# Generated by pormake.
# Topology cml, (3,6)-cn, num edge types: 1
# Building blocks:
#     Node 0, Type 0, BuildingBlock: BETDAH_clean_linker_0, # of connection points: 3
#     Node 1, Type 0, BuildingBlock: BETDAH_clean_linker_0, # of connection points: 3
#     Node 2, Type 0, BuildingBlock: BETDAH_clean_linker_0, # of connection points: 3
#     Node 3, Type 0, BuildingBlock: BETDAH_clean_linker_0, # of connection points: 3
#     Node 4, Type 0, BuildingBlock: BETDAH_clean_linker_0, # of connection points: 3
#     Node 5, Type 0, BuildingBlock: BETDAH_clean_linker_0, # of connection points: 3
#     Node 6, Type 0, BuildingBlock: BETDAH_clean_linker_0, # of connection points: 3
#     Node 7, Type 0, BuildingBlock: BETDAH_clean_linker_0, # of connection points: 3
#     Node 8, Type 1, BuildingBlock: OJICUG_clean_sbu_0, # of connection points: 6
#     Node 9, Type 1, BuildingBlock: OJICUG_clean_sbu_0, # of connection points: 6
#     Node 10, Type 1, BuildingBlock: OJICUG_clean_sbu_0, # of connection points: 6
#     Node 11, Type 1, BuildingBlock: OJICUG_clean_sbu_0, # of connection points: 6
#     Edge 12, Type (0, 1), BuildingBlock: CIFDUS_clean_linker_0, # of connection points: 2
#     Edge 13, Type (0, 1), BuildingBlock: CIFDUS_clean_linker_0, # of connection points: 2
#     Edge 14, Type (0, 1), BuildingBlock: CIFDUS_clean_linker_0, # of connection points: 2
#     Edge 15, Type (0, 1), BuildingBlock: CIFDUS_clean_linker_0, # of connection points: 2
#     Edge 16, Type (0, 1), BuildingBlock: CIFDUS_clean_linker_0, # of connection points: 2
#     Edge 17, Type (0, 1), BuildingBlock: CIFDUS_clean_linker_0, # of connection points: 2
#     Edge 18, Type (0, 1), BuildingBlock: CIFDUS_clean_linker_0, # of connection points: 2
#     Edge 19, Type (0, 1), BuildingBlock: CIFDUS_clean_linker_0, # of connection points: 2
#     Edge 20, Type (0, 1), BuildingBlock: CIFDUS_clean_linker_0, # of connection points: 2
#     Edge 21, Type (0, 1), BuildingBlock: CIFDUS_clean_linker_0, # of connection points: 2
#     Edge 22, Type (0, 1), BuildingBlock: CIFDUS_clean_linker_0, # of connection points: 2
#     Edge 23, Type (0, 1), BuildingBlock: CIFDUS_clean_linker_0, # of connection points: 2
#     Edge 24, Type (0, 1), BuildingBlock: CIFDUS_clean_linker_0, # of connection points: 2
#     Edge 25, Type (0, 1), BuildingBlock: CIFDUS_clean_linker_0, # of connection points: 2
#     Edge 26, Type (0, 1), BuildingBlock: CIFDUS_clean_linker_0, # of connection points: 2
#     Edge 27, Type (0, 1), BuildingBlock: CIFDUS_clean_linker_0, # of connection points: 2
#     Edge 28, Type (0, 1), BuildingBlock: CIFDUS_clean_linker_0, # of connection points: 2
#     Edge 29, Type (0, 1), BuildingBlock: CIFDUS_clean_linker_0, # of connection points: 2
#     Edge 30, Type (0, 1), BuildingBlock: CIFDUS_clean_linker_0, # of connection points: 2
#     Edge 31, Type (0, 1), BuildingBlock: CIFDUS_clean_linker_0, # of connection points: 2
#     Edge 32, Type (0, 1), BuildingBlock: CIFDUS_clean_linker_0, # of connection points: 2
#     Edge 33, Type (0, 1), BuildingBlock: CIFDUS_clean_linker_0, # of connection points: 2
#     Edge 34, Type (0, 1), BuildingBlock: CIFDUS_clean_linker_0, # of connection points: 2
#     Edge 35, Type (0, 1), BuildingBlock: CIFDUS_clean_linker_0, # of connection points: 2
# Relax obj value: 0.007
# Max RMSD: 0.049
# Mean RMSD: 0.042
data_MOF--net-cml--node1-OJICUG_clean_sbu_0--node2-BETDAH_clean_linker_0--edge1-CIFDUS_clean_linker_0
_symmetry_space_group_name_H-M    P1
_symmetry_Int_Tables_number       1
_symmetry_cell_setting            triclinic
loop_
_symmetry_equiv_pos_as_xyz
'x, y, z'
_cell_length_a     35.625861
_cell_length_b     34.781956
_cell_length_c     30.852381
_cell_angle_alpha  89.266037
_cell_angle_beta   90.93547
_cell_angle_gamma 90.892768
loop_
_atom_site_label
_atom_site_type_symbol
_atom_site_fract_x
_atom_site_fract_y
_atom_site_fract_z
_atom_type_partial_charge
H0 H 0.35352 0.43064 0.0687 0.0
H1 H 0.31477 0.4086 0.93849 0.0
H2 H 0.29637 0.32417 0.03834 0.0
C3 C 0.33861 0.41258 0.04567 0.0
C4 C 0.32574 0.37592 0.05906 0.0
C5 C 0.33525 0.42498 0.00225 0.0
C6 C 0.31642 0.4008 0.97256 0.0
C7 C 0.3012 0.36529 0.98591 0.0
C8 C 0.30611 0.35271 0.02901 0.0
N9 N 0.28648 0.34001 0.95413 0.0
C10 C 0.24878 0.32939 0.95154 0.0
H11 H 0.65117 0.58754 0.51157 0.0
H12 H 0.75829 0.59331 0.4493 0.0
H13 H 0.73892 0.66149 0.5619 0.0
C14 C 0.67927 0.59985 0.50948 0.0
C15 C 0.69168 0.62677 0.54017 0.0
C16 C 0.70295 0.58765 0.47671 0.0
C17 C 0.73935 0.60356 0.47358 0.0
C18 C 0.75215 0.63061 0.50425 0.0
C19 C 0.72831 0.64192 0.53737 0.0
N20 N 0.79047 0.64183 0.5069 0.0
C21 C 0.80909 0.66278 0.47495 0.0
H22 H 0.61406 0.39392 0.01144 0.0
H23 H 0.71177 0.43828 0.94661 0.0
H24 H 0.72433 0.35744 0.05197 0.0
C25 C 0.64414 0.39361 0.00657 0.0
C26 C 0.66712 0.37223 0.03505 0.0
C27 C 0.66001 0.41771 0.97476 0.0
C28 C 0.69912 0.41926 0.97056 0.0
C29 C 0.7222 0.39655 0.99712 0.0
C30 C 0.70627 0.37321 0.02968 0.0
N31 N 0.76156 0.40045 0.99317 0.0
C32 C 0.78447 0.36927 0.98651 0.0
H33 H 0.35098 0.57696 0.53307 0.0
H34 H 0.23666 0.60978 0.55265 0.0
H35 H 0.26337 0.53674 0.44648 0.0
C36 C 0.32175 0.57653 0.52262 0.0
C37 C 0.31059 0.55479 0.48655 0.0
C38 C 0.29534 0.59626 0.54669 0.0
C39 C 0.2574 0.59527 0.53374 0.0
C40 C 0.24616 0.57436 0.49697 0.0
C41 C 0.27262 0.55393 0.47382 0.0
N42 N 0.20791 0.57157 0.48454 0.0
C43 C 0.18923 0.603 0.46724 0.0
H44 H 0.85103 0.93297 0.0391 0.0
H45 H 0.79003 0.8797 0.93366 0.0
H46 H 0.82186 0.8126 0.04522 0.0
C47 C 0.83707 0.90804 0.02527 0.0
C48 C 0.8378 0.87282 0.04819 0.0
C49 C 0.82103 0.91085 0.98337 0.0
C50 C 0.80246 0.87838 0.96592 0.0
C51 C 0.80221 0.84327 0.98891 0.0
C52 C 0.82047 0.84048 0.02927 0.0
N53 N 0.78764 0.8093 0.96987 0.0
C54 C 0.75075 0.80564 0.95526 0.0
H55 H 0.1799 0.04269 0.58752 0.0
H56 H 0.27431 0.07482 0.50891 0.0
H57 H 0.25306 0.13562 0.62664 0.0
C58 C 0.20468 0.06056 0.58226 0.0
C59 C 0.21361 0.08995 0.61141 0.0
C60 C 0.22639 0.0547 0.54547 0.0
C61 C 0.25738 0.0792 0.53722 0.0
C62 C 0.2672 0.10823 0.56703 0.0
C63 C 0.24529 0.11328 0.60384 0.0
N64 N 0.2999 0.13165 0.56283 0.0
C65 C 0.31709 0.14232 0.52429 0.0
H66 H 0.16088 0.92536 0.04512 0.0
H67 H 0.2428 0.95627 0.94934 0.0
H68 H 0.27427 0.88569 0.059 0.0
C69 C 0.18902 0.92337 0.03251 0.0
C70 C 0.21622 0.90292 0.05623 0.0
C71 C 0.19822 0.94283 0.99395 0.0
C72 C 0.23493 0.94066 0.97852 0.0
C73 C 0.26206 0.91931 0.00117 0.0
C74 C 0.25284 0.90063 0.04035 0.0
N75 N 0.29929 0.92 0.98598 0.0
C76 C 0.31835 0.88677 0.97643 0.0
H77 H 0.87276 0.07776 0.54823 0.0
H78 H 0.76152 0.12171 0.56443 0.0
H79 H 0.78387 0.04505 0.45994 0.0
C80 C 0.84399 0.08075 0.53674 0.0
C81 C 0.8315 0.06003 0.50058 0.0
C82 C 0.81887 0.10278 0.56021 0.0
C83 C 0.78128 0.10541 0.54599 0.0
C84 C 0.76888 0.08512 0.50914 0.0
C85 C 0.79387 0.0619 0.48723 0.0
N86 N 0.73079 0.08502 0.4955 0.0
C87 C 0.71055 0.11845 0.48941 0.0
Sc88 Sc 0.02542 0.81503 0.31138 0.0
Sc89 Sc 0.04414 0.91511 0.30997 0.0
Sc90 Sc 0.03473 0.86575 0.40929 0.0
O91 O 0.03478 0.86524 0.34352 0.0
C92 C 0.96788 0.8054 0.38933 0.0
C93 C 0.98227 0.87327 0.24946 0.0
C94 C 0.98846 0.94102 0.38334 0.0
C95 C 0.09107 0.85597 0.25625 0.0
C96 C 0.07858 0.78863 0.3907 0.0
C97 C 0.09972 0.92778 0.39094 0.0
O98 O 0.9792 0.79679 0.35185 0.0
O99 O 0.00257 0.90176 0.2611 0.0
O100 O 0.99853 0.91456 0.40971 0.0
O101 O 0.07013 0.82724 0.2662 0.0
O102 O 0.07037 0.81662 0.41474 0.0
O103 O 0.08753 0.93592 0.35314 0.0
O104 O 0.06491 0.78443 0.35259 0.0
O105 O 0.0869 0.88934 0.27177 0.0
O106 O 0.08447 0.90197 0.41464 0.0
O107 O 0.98494 0.84004 0.26679 0.0
O108 O 0.98495 0.82988 0.41307 0.0
O109 O 0.00185 0.94506 0.34548 0.0
Sc110 Sc 1.0012 0.20939 0.82295 0.0
Sc111 Sc 0.99173 0.10839 0.82793 0.0
Sc112 Sc 0.98783 0.1619 0.92364 0.0
O113 O 0.99345 0.15993 0.85814 0.0
C114 C 0.05242 0.22509 0.90745 0.0
C115 C 0.05672 0.15315 0.77604 0.0
C116 C 0.04016 0.08878 0.91272 0.0
C117 C 0.94535 0.16085 0.76148 0.0
C118 C 0.94009 0.23431 0.89159 0.0
C119 C 0.92879 0.09527 0.89985 0.0
O120 O 0.04244 0.232 0.86837 0.0
O121 O 0.03866 0.12299 0.78746 0.0
O122 O 0.02593 0.11524 0.93496 0.0
O123 O 0.96168 0.1921 0.77258 0.0
O124 O 0.94912 0.20881 0.9196 0.0
O125 O 0.94503 0.08676 0.86496 0.0
O126 O 0.95598 0.23765 0.85503 0.0
O127 O 0.95207 0.12858 0.77964 0.0
O128 O 0.94012 0.12273 0.92386 0.0
O129 O 0.0472 0.18667 0.78708 0.0
O130 O 0.03551 0.20045 0.93123 0.0
O131 O 0.03136 0.08323 0.87315 0.0
Sc132 Sc 0.5079 0.29702 0.31712 0.0
Sc133 Sc 0.51698 0.39835 0.32179 0.0
Sc134 Sc 0.52449 0.34338 0.41725 0.0
O135 O 0.51652 0.34614 0.35198 0.0
C136 C 0.45925 0.28046 0.40186 0.0
C137 C 0.4516 0.35391 0.26876 0.0
C138 C 0.47091 0.41608 0.40596 0.0
C139 C 0.56348 0.34717 0.25738 0.0
C140 C 0.57028 0.27055 0.38659 0.0
C141 C 0.58202 0.41101 0.39358 0.0
O142 O 0.46738 0.27331 0.36273 0.0
O143 O 0.46958 0.38388 0.2807 0.0
O144 O 0.48688 0.38999 0.4285 0.0
O145 O 0.5473 0.31545 0.26761 0.0
O146 O 0.56268 0.29615 0.414 0.0
O147 O 0.56411 0.42065 0.35926 0.0
O148 O 0.55334 0.26783 0.3501 0.0
O149 O 0.55627 0.379 0.27505 0.0
O150 O 0.57227 0.38224 0.4169 0.0
O151 O 0.46144 0.32016 0.27978 0.0
O152 O 0.47719 0.30503 0.42463 0.0
O153 O 0.47771 0.42194 0.36609 0.0
Sc154 Sc 0.49808 0.70729 0.78156 0.0
Sc155 Sc 0.48189 0.60763 0.79471 0.0
Sc156 Sc 0.49708 0.66497 0.88616 0.0
O157 O 0.49224 0.66004 0.82073 0.0
C158 C 0.55959 0.72584 0.85433 0.0
C159 C 0.54236 0.64358 0.72968 0.0
C160 C 0.54176 0.58883 0.87065 0.0
C161 C 0.43192 0.6617 0.733 0.0
C162 C 0.44809 0.73734 0.8601 0.0
C163 C 0.43187 0.60053 0.87759 0.0
O164 O 0.54767 0.72769 0.81538 0.0
O165 O 0.52589 0.61542 0.74847 0.0
O166 O 0.538 0.6204 0.8903 0.0
O167 O 0.44974 0.69267 0.7417 0.0
O168 O 0.45677 0.71034 0.88651 0.0
O169 O 0.43674 0.59432 0.8377 0.0
O170 O 0.46177 0.74053 0.82219 0.0
O171 O 0.44055 0.62928 0.74942 0.0
O172 O 0.45262 0.62344 0.89951 0.0
O173 O 0.53497 0.6785 0.73758 0.0
O174 O 0.54302 0.706 0.88331 0.0
O175 O 0.52196 0.57938 0.8376 0.0
H176 H 0.20479 0.28026 0.99718 0.0
H177 H 0.20831 0.35195 0.88242 0.0
H178 H 0.14626 0.32777 0.85954 0.0
H179 H 0.0931 0.28327 0.86987 0.0
H180 H 0.08939 0.21084 0.98453 0.0
H181 H 0.14901 0.2385 0.00995 0.0
C182 C 0.19155 0.29084 0.96753 0.0
C183 C 0.21063 0.31776 0.94141 0.0
C184 C 0.15598 0.27656 0.95448 0.0
C185 C 0.19374 0.33128 0.90295 0.0
C186 C 0.15841 0.31738 0.88984 0.0
C187 C 0.10508 0.27369 0.90062 0.0
C188 C 0.08672 0.24474 0.92498 0.0
C189 C 0.13954 0.28955 0.91499 0.0
C190 C 0.10276 0.23301 0.96494 0.0
C191 C 0.13701 0.24874 0.97951 0.0
H192 H 0.83544 0.73162 0.49759 0.0
H193 H 0.83858 0.64757 0.39658 0.0
H194 H 0.88678 0.68603 0.35883 0.0
H195 H 0.93126 0.74133 0.35793 0.0
H196 H 0.92872 0.82394 0.46122 0.0
H197 H 0.87704 0.7885 0.49453 0.0
C198 C 0.84633 0.72218 0.4669 0.0
C199 C 0.83361 0.68723 0.44948 0.0
C200 C 0.87438 0.74402 0.44608 0.0
C201 C 0.84796 0.67471 0.41016 0.0
C202 C 0.87559 0.69658 0.38881 0.0
C203 C 0.91917 0.75183 0.38747 0.0
C204 C 0.93427 0.78518 0.40714 0.0
C205 C 0.88954 0.73097 0.40692 0.0
C206 C 0.91809 0.79823 0.44548 0.0
C207 C 0.88842 0.77799 0.46462 0.0
H208 H 0.82038 0.36502 0.91191 0.0
H209 H 0.80669 0.30877 0.03589 0.0
H210 H 0.85352 0.2609 0.01695 0.0
H211 H 0.89933 0.23655 0.9657 0.0
H212 H 0.91313 0.29371 0.84163 0.0
H213 H 0.86517 0.33972 0.85995 0.0
C214 C 0.82764 0.34205 0.93453 0.0
C215 C 0.81049 0.33998 0.97505 0.0
C216 C 0.85458 0.31502 0.92345 0.0
C217 C 0.81978 0.31052 0.00445 0.0
C218 C 0.8465 0.28333 0.99363 0.0
C219 C 0.89186 0.25898 0.94255 0.0
C220 C 0.91008 0.26162 0.90236 0.0
C221 C 0.86428 0.2855 0.95331 0.0
C222 C 0.89978 0.29092 0.87283 0.0
C223 C 0.87231 0.31731 0.88325 0.0
H224 H 0.18024 0.67359 0.49895 0.0
H225 H 0.15437 0.60152 0.3897 0.0
H226 H 0.11917 0.65368 0.35463 0.0
H227 H 0.09407 0.71886 0.35651 0.0
H228 H 0.11926 0.79084 0.46664 0.0
H229 H 0.15659 0.73987 0.49974 0.0
C230 C 0.16689 0.66961 0.46742 0.0
C231 C 0.16944 0.63419 0.44671 0.0
C232 C 0.14668 0.69963 0.44769 0.0
C233 C 0.1524 0.62883 0.40598 0.0
C234 C 0.13239 0.65856 0.38601 0.0
C235 C 0.10796 0.7236 0.38756 0.0
C236 C 0.10364 0.75867 0.40902 0.0
C237 C 0.12911 0.694 0.40673 0.0
C238 C 0.12186 0.76412 0.44937 0.0
C239 C 0.14324 0.73496 0.46844 0.0
H240 H 0.72039 0.80399 0.87487 0.0
H241 H 0.69659 0.78415 0.00979 0.0
H242 H 0.63389 0.7592 0.99064 0.0
H243 H 0.58779 0.73916 0.93535 0.0
H244 H 0.61138 0.75861 0.79991 0.0
H245 H 0.67199 0.78786 0.81933 0.0
C246 C 0.70107 0.79474 0.8999 0.0
C247 C 0.71253 0.79587 0.94355 0.0
C248 C 0.66526 0.78013 0.88854 0.0
C249 C 0.68787 0.78363 0.97598 0.0
C250 C 0.65221 0.76923 0.96503 0.0
C251 C 0.60604 0.74996 0.91002 0.0
C252 C 0.59508 0.74631 0.86621 0.0
C253 C 0.64088 0.7667 0.92137 0.0
C254 C 0.61903 0.76092 0.83391 0.0
C255 C 0.6538 0.77761 0.84496 0.0
H256 H 0.33068 0.217 0.52164 0.0
H257 H 0.3539 0.11169 0.45623 0.0
H258 H 0.39822 0.14622 0.40856 0.0
H259 H 0.43432 0.20606 0.39024 0.0
H260 H 0.41249 0.30966 0.46052 0.0
H261 H 0.36355 0.27643 0.50122 0.0
C262 C 0.34501 0.20185 0.49635 0.0
C263 C 0.33911 0.16222 0.49189 0.0
C264 C 0.37093 0.22163 0.47024 0.0
C265 C 0.35798 0.14244 0.4597 0.0
C266 C 0.38339 0.16214 0.43273 0.0
C267 C 0.41841 0.22135 0.41403 0.0
C268 C 0.4272 0.26021 0.42256 0.0
C269 C 0.3907 0.20169 0.43831 0.0
C270 C 0.40657 0.27966 0.4537 0.0
C271 C 0.37852 0.26072 0.47697 0.0
H272 H 0.3444 0.87887 0.89683 0.0
H273 H 0.34017 0.82425 0.02271 0.0
H274 H 0.37925 0.7718 0.99716 0.0
H275 H 0.41608 0.74308 0.93956 0.0
H276 H 0.42073 0.79871 0.81364 0.0
H277 H 0.37984 0.84914 0.83858 0.0
C278 C 0.35197 0.85526 0.91842 0.0
C279 C 0.33976 0.85497 0.96137 0.0
C280 C 0.37449 0.8256 0.90354 0.0
C281 C 0.34947 0.82467 0.98944 0.0
C282 C 0.37177 0.79485 0.97484 0.0
C283 C 0.40807 0.76608 0.91741 0.0
C284 C 0.42173 0.76702 0.87474 0.0
C285 C 0.38469 0.79521 0.93202 0.0
C286 C 0.41086 0.79717 0.84665 0.0
C287 C 0.38745 0.82611 0.86087 0.0
H288 H 0.68177 0.13214 0.41094 0.0
H289 H 0.68809 0.17595 0.54077 0.0
H290 H 0.64617 0.22871 0.51971 0.0
H291 H 0.60596 0.2604 0.46484 0.0
H292 H 0.5991 0.21518 0.33507 0.0
H293 H 0.64321 0.16501 0.35552 0.0
C294 C 0.67405 0.15351 0.43439 0.0
C295 C 0.68764 0.15063 0.47714 0.0
C296 C 0.64988 0.1833 0.42207 0.0
C297 C 0.67772 0.17801 0.50762 0.0
C298 C 0.65381 0.20799 0.49557 0.0
C299 C 0.61428 0.23979 0.44087 0.0
C300 C 0.59899 0.2416 0.39846 0.0
C301 C 0.63944 0.2107 0.45294 0.0
C302 C 0.61018 0.21449 0.36797 0.0
C303 C 0.63543 0.18572 0.37962 0.0
H304 H 0.31376 0.47542 0.93737 0.0
H305 H 0.40214 0.45559 0.0325 0.0
H306 H 0.43558 0.51238 0.00716 0.0
H307 H 0.44368 0.56397 0.95358 0.0
H308 H 0.36138 0.57838 0.85106 0.0
H309 H 0.32195 0.52749 0.8833 0.0
C310 C 0.34039 0.48332 0.95253 0.0
C311 C 0.35479 0.46107 0.98736 0.0
C312 C 0.3608 0.51518 0.9363 0.0
C313 C 0.38931 0.47241 0.00666 0.0
C314 C 0.40893 0.50482 0.99182 0.0
C315 C 0.41665 0.55658 0.93897 0.0
C316 C 0.40506 0.57514 0.9005 0.0
C317 C 0.39528 0.52604 0.95629 0.0
C318 C 0.37058 0.56462 0.88101 0.0
C319 C 0.34822 0.5354 0.89927 0.0
H320 H 0.69577 0.51368 0.50101 0.0
H321 H 0.67823 0.59076 0.3926 0.0
H322 H 0.64206 0.54056 0.35432 0.0
H323 H 0.60875 0.47785 0.35652 0.0
H324 H 0.62543 0.40184 0.46684 0.0
H325 H 0.669 0.44823 0.49924 0.0
C326 C 0.6849 0.51894 0.46844 0.0
C327 C 0.6897 0.55551 0.44931 0.0
C328 C 0.66354 0.49034 0.44733 0.0
C329 C 0.67519 0.56254 0.4075 0.0
C330 C 0.65424 0.53398 0.38592 0.0
C331 C 0.62234 0.47108 0.3873 0.0
C332 C 0.61316 0.43649 0.40942 0.0
C333 C 0.64716 0.4982 0.4062 0.0
C334 C 0.63147 0.42827 0.44916 0.0
C335 C 0.65643 0.45485 0.46785 0.0
H336 H 0.66843 0.49468 0.96686 0.0
H337 H 0.59738 0.39987 0.92654 0.0
H338 H 0.55573 0.44445 0.88763 0.0
H339 H 0.53812 0.51081 0.86822 0.0
H340 H 0.60721 0.60559 0.91335 0.0
H341 H 0.65131 0.56066 0.94693 0.0
C342 C 0.64408 0.48383 0.94901 0.0
C343 C 0.636 0.44418 0.94914 0.0
C344 C 0.61994 0.50963 0.92776 0.0
C345 C 0.60403 0.43037 0.92675 0.0
C346 C 0.5803 0.45581 0.90456 0.0
C347 C 0.56309 0.52153 0.88496 0.0
C348 C 0.5695 0.5614 0.88824 0.0
C349 C 0.58777 0.49555 0.90524 0.0
C350 C 0.60163 0.575 0.91057 0.0
C351 C 0.62684 0.54936 0.92975 0.0
H352 H 0.36153 0.50765 0.52395 0.0
H353 H 0.32119 0.5483 0.39932 0.0
H354 H 0.36762 0.50915 0.36311 0.0
H355 H 0.41986 0.46368 0.36729 0.0
H356 H 0.45908 0.42279 0.49264 0.0
H357 H 0.41304 0.46212 0.52816 0.0
C358 C 0.36316 0.50821 0.48886 0.0
C359 C 0.3383 0.53103 0.46429 0.0
C360 C 0.3897 0.48567 0.46844 0.0
C361 C 0.34005 0.53083 0.41884 0.0
C362 C 0.36664 0.50861 0.3982 0.0
C363 C 0.41847 0.46349 0.40238 0.0
C364 C 0.44304 0.44038 0.42721 0.0
C365 C 0.39167 0.48597 0.42272 0.0
C366 C 0.44053 0.44021 0.47266 0.0
C367 C 0.41422 0.46273 0.49307 0.0
H368 H 0.82185 0.98648 0.00722 0.0
H369 H 0.84112 0.9131 0.89823 0.0
H370 H 0.87102 0.96645 0.85958 0.0
H371 H 0.90148 0.02995 0.86193 0.0
H372 H 0.88722 0.10178 0.97348 0.0
H373 H 0.84599 0.05304 0.0058 0.0
C374 C 0.83216 0.98227 0.97477 0.0
C375 C 0.82972 0.9455 0.95612 0.0
C376 C 0.851 0.01265 0.95343 0.0
C377 C 0.84233 0.94095 0.91352 0.0
C378 C 0.85997 0.97141 0.89152 0.0
C379 C 0.8889 0.03538 0.89298 0.0
C380 C 0.89818 0.06931 0.91553 0.0
C381 C 0.86599 0.0068 0.91198 0.0
C382 C 0.88109 0.07581 0.95553 0.0
C383 C 0.85751 0.04787 0.97414 0.0
H384 H 0.20655 0.05999 0.46022 0.0
H385 H 0.2185 0.97924 0.56641 0.0
H386 H 0.18327 0.93051 0.52563 0.0
H387 H 0.14124 0.91443 0.46457 0.0
H388 H 0.12802 0.99567 0.35864 0.0
H389 H 0.17171 0.04023 0.39413 0.0
C390 C 0.20247 0.03129 0.47367 0.0
C391 C 0.21484 0.02314 0.51618 0.0
C392 C 0.18127 0.00371 0.45045 0.0
C393 C 0.20909 0.98603 0.53365 0.0
C394 C 0.1887 0.9583 0.51052 0.0
C395 C 0.1483 0.94163 0.44892 0.0
C396 C 0.13073 0.95184 0.40937 0.0
C397 C 0.1733 0.96737 0.46965 0.0
C398 C 0.14078 0.98704 0.38928 0.0
C399 C 0.16576 0.0127 0.4096 0.0
H400 H 0.15269 0.99419 0.03075 0.0
H401 H 0.18136 0.94718 0.90716 0.0
H402 H 0.13479 0.98809 0.87088 0.0
H403 H 0.08573 0.03698 0.87467 0.0
H404 H 0.05803 0.08393 0.99896 0.0
H405 H 0.10422 0.04292 0.03456 0.0
C406 C 0.14846 0.9926 0.99591 0.0
C407 C 0.17014 0.96749 0.97168 0.0
C408 C 0.12182 0.01615 0.97541 0.0
C409 C 0.16503 0.9664 0.92645 0.0
C410 C 0.13835 0.98965 0.90577 0.0
C411 C 0.08967 0.03817 0.90956 0.0
C412 C 0.06826 0.06351 0.93402 0.0
C413 C 0.11654 0.01462 0.92996 0.0
C414 C 0.07406 0.06482 0.9792 0.0
C415 C 0.10048 0.04133 0.99968 0.0
H416 H 0.88086 0.07498 0.43631 0.0
H417 H 0.83835 0.98486 0.51995 0.0
H418 H 0.88269 0.93953 0.49002 0.0
H419 H 0.93484 0.92643 0.4423 0.0
H420 H 0.97715 0.01555 0.3568 0.0
H421 H 0.93143 0.06052 0.38486 0.0
C422 C 0.88135 0.04531 0.44753 0.0
C423 C 0.85679 0.03292 0.48014 0.0
C424 C 0.90682 0.01948 0.43002 0.0
C425 C 0.85722 0.99464 0.49477 0.0
C426 C 0.88252 0.96888 0.47776 0.0
C427 C 0.93408 0.95571 0.42976 0.0
C428 C 0.95958 0.96781 0.3979 0.0
C429 C 0.9077 0.98111 0.44576 0.0
C430 C 0.95779 0.00559 0.38138 0.0
C431 C 0.93177 0.03131 0.39751 0.0
H432 H 0.32941 0.41299 0.13645 0.0
H433 H 0.35283 0.3042 0.07774 0.0
H434 H 0.38964 0.2851 0.14157 0.0
H435 H 0.42434 0.30397 0.20801 0.0
H436 H 0.40608 0.41579 0.26216 0.0
H437 H 0.35883 0.42921 0.20612 0.0
C438 C 0.34217 0.38488 0.13782 0.0
C439 C 0.33881 0.36043 0.10191 0.0
C440 C 0.36507 0.37494 0.17354 0.0
C441 C 0.3547 0.32367 0.10483 0.0
C442 C 0.37629 0.31289 0.14115 0.0
C443 C 0.40945 0.33093 0.20801 0.0
C444 C 0.41908 0.35904 0.23884 0.0
C445 C 0.38308 0.339 0.17479 0.0
C446 C 0.3996 0.3939 0.23839 0.0
C447 C 0.37252 0.40158 0.20639 0.0
H448 H 0.651 0.57781 0.59019 0.0
H449 H 0.67746 0.69824 0.57206 0.0
H450 H 0.63428 0.71439 0.62997 0.0
H451 H 0.58718 0.69405 0.68395 0.0
H452 H 0.56154 0.57291 0.7007 0.0
H453 H 0.60597 0.55748 0.64492 0.0
C454 C 0.64715 0.60764 0.59872 0.0
C455 C 0.66701 0.63682 0.57655 0.0
C456 C 0.62231 0.61662 0.63173 0.0
C457 C 0.66248 0.67526 0.58871 0.0
C458 C 0.63768 0.68449 0.62165 0.0
C459 C 0.59134 0.66428 0.67549 0.0
C460 C 0.5707 0.6348 0.69654 0.0
C461 C 0.61715 0.65539 0.64314 0.0
C462 C 0.57679 0.59634 0.68517 0.0
C463 C 0.60225 0.58737 0.65316 0.0
H464 H 0.68392 0.38944 0.11782 0.0
H465 H 0.61095 0.318 0.03936 0.0
H466 H 0.57492 0.29925 0.10356 0.0
H467 H 0.55963 0.30995 0.18035 0.0
H468 H 0.62902 0.38746 0.25598 0.0
H469 H 0.67124 0.39683 0.19503 0.0
C470 C 0.66078 0.3689 0.11513 0.0
C471 C 0.65024 0.35472 0.07425 0.0
C472 C 0.63928 0.35981 0.15168 0.0
C473 C 0.61963 0.32894 0.07073 0.0
C474 C 0.59895 0.31847 0.10734 0.0
C475 C 0.58446 0.3282 0.1836 0.0
C476 C 0.59131 0.34802 0.22244 0.0
C477 C 0.6078 0.33469 0.14776 0.0
C478 C 0.62318 0.37209 0.22623 0.0
C479 C 0.64729 0.37747 0.19142 0.0
H480 H 0.34145 0.65797 0.55762 0.0
H481 H 0.27886 0.57101 0.62743 0.0
H482 H 0.31342 0.58673 0.69431 0.0
H483 H 0.36823 0.61811 0.72932 0.0
H484 H 0.42997 0.70625 0.65993 0.0
H485 H 0.38865 0.69779 0.5966 0.0
C486 C 0.33462 0.64351 0.58791 0.0
C487 C 0.30784 0.61348 0.58798 0.0
C488 C 0.35483 0.65251 0.62599 0.0
C489 C 0.29918 0.59451 0.62703 0.0
C490 C 0.3192 0.60321 0.66505 0.0
C491 C 0.37206 0.63599 0.70061 0.0
C492 C 0.40236 0.6623 0.69892 0.0
C493 C 0.34814 0.63104 0.66443 0.0
C494 C 0.40683 0.68576 0.66189 0.0
C495 C 0.38336 0.68076 0.6256 0.0
H496 H 0.90304 0.90986 0.07101 0.0
H497 H 0.82195 0.82693 0.11941 0.0
H498 H 0.85961 0.81892 0.18572 0.0
H499 H 0.91628 0.83536 0.22989 0.0
H500 H 0.99291 0.92312 0.18273 0.0
H501 H 0.95535 0.93029 0.11671 0.0
C502 C 0.89275 0.89077 0.09633 0.0
C503 C 0.85942 0.86919 0.08988 0.0
C504 C 0.91375 0.88724 0.13488 0.0
C505 C 0.84772 0.84358 0.12293 0.0
C506 C 0.86911 0.83916 0.1611 0.0
C507 C 0.92452 0.85616 0.2052 0.0
C508 C 0.95734 0.87861 0.21119 0.0
C509 C 0.90233 0.86073 0.16735 0.0
C510 C 0.96762 0.90568 0.17911 0.0
C511 C 0.94627 0.90969 0.14119 0.0
H512 H 0.18639 0.15813 0.63858 0.0
H513 H 0.18471 0.03642 0.66737 0.0
H514 H 0.13732 0.04564 0.72239 0.0
H515 H 0.09334 0.08736 0.75848 0.0
H516 H 0.0943 0.20923 0.72993 0.0
H517 H 0.14535 0.2009 0.6791 0.0
C518 C 0.17614 0.13378 0.65751 0.0
C519 C 0.18877 0.0966 0.64866 0.0
C520 C 0.14857 0.13924 0.68885 0.0
C521 C 0.17502 0.06524 0.67318 0.0
C522 C 0.14796 0.07049 0.70464 0.0
C523 C 0.10474 0.11219 0.74131 0.0
C524 C 0.0896 0.14879 0.74769 0.0
C525 C 0.13393 0.10721 0.71203 0.0
C526 C 0.10523 0.18067 0.72557 0.0
C527 C 0.13441 0.17594 0.6964 0.0
H528 H 0.16885 0.84418 0.07658 0.0
H529 H 0.23981 0.93223 0.13282 0.0
H530 H 0.20972 0.92246 0.203 0.0
H531 H 0.15641 0.89606 0.2444 0.0
H532 H 0.08621 0.80694 0.18829 0.0
H533 H 0.12313 0.80932 0.12234 0.0
C534 C 0.17852 0.86013 0.10472 0.0
C535 C 0.20641 0.88875 0.09993 0.0
C536 C 0.16081 0.85459 0.14472 0.0
C537 C 0.21864 0.90973 0.13618 0.0
C538 C 0.20114 0.90445 0.17609 0.0
C539 C 0.14974 0.87661 0.21806 0.0
C540 C 0.11828 0.85181 0.22094 0.0
C541 C 0.17114 0.87809 0.1802 0.0
C542 C 0.11024 0.82635 0.18687 0.0
C543 C 0.1312 0.82786 0.149 0.0
H544 H 0.87071 0.15903 0.57564 0.0
H545 H 0.7964 0.07824 0.63916 0.0
H546 H 0.82746 0.09112 0.70899 0.0
H547 H 0.88091 0.1194 0.74983 0.0
H548 H 0.95345 0.2026 0.6871 0.0
H549 H 0.91779 0.19526 0.61919 0.0
C550 C 0.86076 0.14521 0.6051 0.0
C551 C 0.83143 0.11785 0.60262 0.0
C552 C 0.87874 0.15281 0.64503 0.0
C553 C 0.81872 0.09972 0.64066 0.0
C554 C 0.83669 0.1068 0.68041 0.0
C555 C 0.88843 0.13637 0.72143 0.0
C556 C 0.91995 0.16113 0.72317 0.0
C557 C 0.86752 0.13234 0.6827 0.0
C558 C 0.92924 0.18337 0.68645 0.0
C559 C 0.90899 0.17903 0.64758 0.0
loop_
_geom_bond_atom_site_label_1
_geom_bond_atom_site_label_2
_geom_bond_distance
_geom_bond_site_symmetry_2
_ccdc_geom_bond_type
H0 C3 0.929 . S
H1 C6 0.929 . S
H2 C8 0.930 . S
C3 H0 0.929 . S
C3 C4 1.398 . S
C3 C5 1.396 1_554 S
C4 C3 1.398 . S
C4 C8 1.407 . S
C5 C3 1.396 1_556 S
C5 C6 1.394 . S
C6 H1 0.929 . S
C6 C5 1.394 . S
C6 C7 1.382 1_556 S
C7 C6 1.382 1_554 S
C7 C8 1.392 . S
C7 N9 1.416 1_554 S
C8 H2 0.930 . S
C8 C4 1.407 . S
C8 C7 1.392 . S
N9 C7 1.416 1_556 S
N9 C10 1.255 . S
C10 N9 1.255 . S
H11 C14 0.929 . S
H12 C17 0.929 . S
H13 C19 0.930 . S
C14 H11 0.929 . S
C14 C15 1.398 . S
C14 C16 1.396 . S
C15 C14 1.398 . S
C15 C19 1.407 . S
C16 C14 1.396 . S
C16 C17 1.394 . S
C17 H12 0.929 . S
C17 C16 1.394 . S
C17 C18 1.382 . S
C18 C17 1.382 . S
C18 C19 1.392 . S
C18 N20 1.420 . S
C19 H13 0.930 . S
C19 C15 1.407 . S
C19 C18 1.392 . S
N20 C18 1.420 . S
N20 C21 1.244 . S
C21 N20 1.244 . S
H22 C25 0.929 . S
H23 C28 0.929 . S
H24 C30 0.930 . S
C25 H22 0.929 . S
C25 C26 1.398 . S
C25 C27 1.396 1_554 S
C26 C25 1.398 . S
C26 C30 1.407 . S
C27 C25 1.396 1_556 S
C27 C28 1.394 . S
C28 H23 0.929 . S
C28 C27 1.394 . S
C28 C29 1.382 1_556 S
C29 C28 1.382 1_554 S
C29 C30 1.392 . S
C29 N31 1.420 . S
C30 H24 0.930 . S
C30 C26 1.407 . S
C30 C29 1.392 . S
N31 C29 1.420 . S
N31 C32 1.244 1_554 S
C32 N31 1.244 1_556 S
H33 C36 0.929 . S
H34 C39 0.929 . S
H35 C41 0.930 . S
C36 H33 0.929 . S
C36 C37 1.398 . S
C36 C38 1.396 . S
C37 C36 1.398 . S
C37 C41 1.407 . S
C38 C36 1.396 . S
C38 C39 1.394 . S
C39 H34 0.929 . S
C39 C38 1.394 . S
C39 C40 1.382 . S
C40 C39 1.382 . S
C40 C41 1.392 . S
C40 N42 1.420 . S
C41 H35 0.930 . S
C41 C37 1.407 . S
C41 C40 1.392 . S
N42 C40 1.420 . S
N42 C43 1.244 . S
C43 N42 1.244 . S
H44 C47 0.929 . S
H45 C50 0.929 . S
H46 C52 0.930 . S
C47 H44 0.929 . S
C47 C48 1.398 . S
C47 C49 1.396 1_554 S
C48 C47 1.398 . S
C48 C52 1.407 . S
C49 C47 1.396 1_556 S
C49 C50 1.394 . S
C50 H45 0.929 . S
C50 C49 1.394 . S
C50 C51 1.382 1_556 S
C51 C50 1.382 1_554 S
C51 C52 1.392 . S
C51 N53 1.416 1_554 S
C52 H46 0.930 . S
C52 C48 1.407 . S
C52 C51 1.392 . S
N53 C51 1.416 1_556 S
N53 C54 1.255 . S
C54 N53 1.255 . S
H55 C58 0.929 . S
H56 C61 0.929 . S
H57 C63 0.930 . S
C58 H55 0.929 . S
C58 C59 1.398 . S
C58 C60 1.396 . S
C59 C58 1.398 . S
C59 C63 1.407 . S
C60 C58 1.396 . S
C60 C61 1.394 . S
C61 H56 0.929 . S
C61 C60 1.394 . S
C61 C62 1.382 . S
C62 C61 1.382 . S
C62 C63 1.392 . S
C62 N64 1.420 . S
C63 H57 0.930 . S
C63 C59 1.407 . S
C63 C62 1.392 . S
N64 C62 1.420 . S
N64 C65 1.244 . S
C65 N64 1.244 . S
H66 C69 0.929 . S
H67 C72 0.929 . S
H68 C74 0.930 . S
C69 H66 0.929 . S
C69 C70 1.398 . S
C69 C71 1.396 1_554 S
C70 C69 1.398 . S
C70 C74 1.407 . S
C71 C69 1.396 1_556 S
C71 C72 1.394 . S
C72 H67 0.929 . S
C72 C71 1.394 . S
C72 C73 1.382 1_556 S
C73 C72 1.382 1_554 S
C73 C74 1.392 . S
C73 N75 1.420 . S
C74 H68 0.930 . S
C74 C70 1.407 . S
C74 C73 1.392 . S
N75 C73 1.420 . S
N75 C76 1.244 1_554 S
C76 N75 1.244 1_556 S
H77 C80 0.929 . S
H78 C83 0.929 . S
H79 C85 0.930 . S
C80 H77 0.929 . S
C80 C81 1.398 . S
C80 C82 1.396 . S
C81 C80 1.398 . S
C81 C85 1.407 . S
C82 C80 1.396 . S
C82 C83 1.394 . S
C83 H78 0.929 . S
C83 C82 1.394 . S
C83 C84 1.382 . S
C84 C83 1.382 . S
C84 C85 1.392 . S
C84 N86 1.420 . S
C85 H79 0.930 . S
C85 C81 1.407 . S
C85 C84 1.392 . S
N86 C84 1.420 . S
N86 C87 1.244 . S
C87 N86 1.244 . S
Sc88 O91 2.025 . S
Sc88 O98 2.105 1_455 S
Sc88 O101 2.105 . S
Sc88 O104 2.105 . S
Sc88 O107 2.105 1_455 S
Sc89 O91 2.025 . S
Sc89 O99 2.105 1_455 S
Sc89 O103 2.105 . S
Sc89 O105 2.105 . S
Sc89 O109 2.105 1_455 S
Sc90 O91 2.025 . S
Sc90 O100 2.105 1_455 S
Sc90 O102 2.105 . S
Sc90 O106 2.105 . S
Sc90 O108 2.105 1_455 S
O91 Sc88 2.025 . S
O91 Sc89 2.025 . S
O91 Sc90 2.025 . S
C92 O98 1.268 . S
C92 O108 1.268 . S
C93 O99 1.268 . S
C93 O107 1.268 . S
C94 O100 1.268 . S
C94 O109 1.268 . S
C95 O101 1.268 . S
C95 O105 1.268 . S
C96 O102 1.268 . S
C96 O104 1.268 . S
C97 O103 1.268 . S
C97 O106 1.268 . S
O98 Sc88 2.105 1_655 S
O98 C92 1.268 . S
O99 Sc89 2.105 1_655 S
O99 C93 1.268 . S
O100 Sc90 2.105 1_655 S
O100 C94 1.268 . S
O101 Sc88 2.105 . S
O101 C95 1.268 . S
O102 Sc90 2.105 . S
O102 C96 1.268 . S
O103 Sc89 2.105 . S
O103 C97 1.268 . S
O104 Sc88 2.105 . S
O104 C96 1.268 . S
O105 Sc89 2.105 . S
O105 C95 1.268 . S
O106 Sc90 2.105 . S
O106 C97 1.268 . S
O107 Sc88 2.105 1_655 S
O107 C93 1.268 . S
O108 Sc90 2.105 1_655 S
O108 C92 1.268 . S
O109 Sc89 2.105 1_655 S
O109 C94 1.268 . S
Sc110 O113 2.025 . S
Sc110 O120 2.105 . S
Sc110 O123 2.105 1_455 S
Sc110 O126 2.105 1_455 S
Sc110 O129 2.105 . S
Sc111 O113 2.025 . S
Sc111 O121 2.105 . S
Sc111 O125 2.105 1_455 S
Sc111 O127 2.105 1_455 S
Sc111 O131 2.105 . S
Sc112 O113 2.025 . S
Sc112 O122 2.105 . S
Sc112 O124 2.105 1_455 S
Sc112 O128 2.105 1_455 S
Sc112 O130 2.105 . S
O113 Sc110 2.025 . S
O113 Sc111 2.025 . S
O113 Sc112 2.025 . S
C114 O120 1.268 . S
C114 O130 1.268 . S
C115 O121 1.268 . S
C115 O129 1.268 . S
C116 O122 1.268 . S
C116 O131 1.268 . S
C117 O123 1.268 . S
C117 O127 1.268 . S
C118 O124 1.268 . S
C118 O126 1.268 . S
C119 O125 1.268 . S
C119 O128 1.268 . S
O120 Sc110 2.105 . S
O120 C114 1.268 . S
O121 Sc111 2.105 . S
O121 C115 1.268 . S
O122 Sc112 2.105 . S
O122 C116 1.268 . S
O123 Sc110 2.105 1_655 S
O123 C117 1.268 . S
O124 Sc112 2.105 1_655 S
O124 C118 1.268 . S
O125 Sc111 2.105 1_655 S
O125 C119 1.268 . S
O126 Sc110 2.105 1_655 S
O126 C118 1.268 . S
O127 Sc111 2.105 1_655 S
O127 C117 1.268 . S
O128 Sc112 2.105 1_655 S
O128 C119 1.268 . S
O129 Sc110 2.105 . S
O129 C115 1.268 . S
O130 Sc112 2.105 . S
O130 C114 1.268 . S
O131 Sc111 2.105 . S
O131 C116 1.268 . S
Sc132 O135 2.025 . S
Sc132 O142 2.105 . S
Sc132 O145 2.105 . S
Sc132 O148 2.105 . S
Sc132 O151 2.105 . S
Sc133 O135 2.025 . S
Sc133 O143 2.105 . S
Sc133 O147 2.105 . S
Sc133 O149 2.105 . S
Sc133 O153 2.105 . S
Sc134 O135 2.025 . S
Sc134 O144 2.105 . S
Sc134 O146 2.105 . S
Sc134 O150 2.105 . S
Sc134 O152 2.105 . S
O135 Sc132 2.025 . S
O135 Sc133 2.025 . S
O135 Sc134 2.025 . S
C136 O142 1.268 . S
C136 O152 1.268 . S
C137 O143 1.268 . S
C137 O151 1.268 . S
C138 O144 1.268 . S
C138 O153 1.268 . S
C139 O145 1.268 . S
C139 O149 1.268 . S
C140 O146 1.268 . S
C140 O148 1.268 . S
C141 O147 1.268 . S
C141 O150 1.268 . S
O142 Sc132 2.105 . S
O142 C136 1.268 . S
O143 Sc133 2.105 . S
O143 C137 1.268 . S
O144 Sc134 2.105 . S
O144 C138 1.268 . S
O145 Sc132 2.105 . S
O145 C139 1.268 . S
O146 Sc134 2.105 . S
O146 C140 1.268 . S
O147 Sc133 2.105 . S
O147 C141 1.268 . S
O148 Sc132 2.105 . S
O148 C140 1.268 . S
O149 Sc133 2.105 . S
O149 C139 1.268 . S
O150 Sc134 2.105 . S
O150 C141 1.268 . S
O151 Sc132 2.105 . S
O151 C137 1.268 . S
O152 Sc134 2.105 . S
O152 C136 1.268 . S
O153 Sc133 2.105 . S
O153 C138 1.268 . S
Sc154 O157 2.025 . S
Sc154 O164 2.105 . S
Sc154 O167 2.105 . S
Sc154 O170 2.105 . S
Sc154 O173 2.105 . S
Sc155 O157 2.025 . S
Sc155 O165 2.105 . S
Sc155 O169 2.105 . S
Sc155 O171 2.105 . S
Sc155 O175 2.105 . S
Sc156 O157 2.025 . S
Sc156 O166 2.105 . S
Sc156 O168 2.105 . S
Sc156 O172 2.105 . S
Sc156 O174 2.105 . S
O157 Sc154 2.025 . S
O157 Sc155 2.025 . S
O157 Sc156 2.025 . S
C158 O164 1.268 . S
C158 O174 1.268 . S
C159 O165 1.268 . S
C159 O173 1.268 . S
C160 O166 1.268 . S
C160 O175 1.268 . S
C161 O167 1.268 . S
C161 O171 1.268 . S
C162 O168 1.268 . S
C162 O170 1.268 . S
C163 O169 1.268 . S
C163 O172 1.268 . S
O164 Sc154 2.105 . S
O164 C158 1.268 . S
O165 Sc155 2.105 . S
O165 C159 1.268 . S
O166 Sc156 2.105 . S
O166 C160 1.268 . S
O167 Sc154 2.105 . S
O167 C161 1.268 . S
O168 Sc156 2.105 . S
O168 C162 1.268 . S
O169 Sc155 2.105 . S
O169 C163 1.268 . S
O170 Sc154 2.105 . S
O170 C162 1.268 . S
O171 Sc155 2.105 . S
O171 C161 1.268 . S
O172 Sc156 2.105 . S
O172 C163 1.268 . S
O173 Sc154 2.105 . S
O173 C159 1.268 . S
O174 Sc156 2.105 . S
O174 C158 1.268 . S
O175 Sc155 2.105 . S
O175 C160 1.268 . S
H176 C182 0.930 . S
H177 C185 0.930 . S
H178 C186 0.930 . S
H179 C187 0.930 . S
H180 C190 0.930 . S
H181 C191 0.930 . S
C182 H176 0.930 . S
C182 C183 1.355 . S
C182 C184 1.415 . S
C183 C182 1.355 . S
C183 C185 1.419 . S
C184 C182 1.415 . S
C184 C189 1.425 . S
C184 C191 1.409 . S
C185 H177 0.930 . S
C185 C183 1.419 . S
C185 C186 1.362 . S
C186 H178 0.930 . S
C186 C185 1.362 . S
C186 C189 1.409 . S
C187 H179 0.930 . S
C187 C188 1.355 . S
C187 C189 1.415 . S
C188 C187 1.355 . S
C188 C190 1.419 . S
C189 C184 1.425 . S
C189 C186 1.409 . S
C189 C187 1.415 . S
C190 H180 0.930 . S
C190 C188 1.419 . S
C190 C191 1.362 . S
C191 H181 0.930 . S
C191 C184 1.409 . S
C191 C190 1.362 . S
H192 C198 0.930 . S
H193 C201 0.930 . S
H194 C202 0.930 . S
H195 C203 0.930 . S
H196 C206 0.930 . S
H197 C207 0.930 . S
C198 H192 0.930 . S
C198 C199 1.355 . S
C198 C200 1.415 . S
C199 C198 1.355 . S
C199 C201 1.419 . S
C200 C198 1.415 . S
C200 C205 1.425 . S
C200 C207 1.409 . S
C201 H193 0.930 . S
C201 C199 1.419 . S
C201 C202 1.362 . S
C202 H194 0.930 . S
C202 C201 1.362 . S
C202 C205 1.409 . S
C203 H195 0.930 . S
C203 C204 1.355 . S
C203 C205 1.415 . S
C204 C203 1.355 . S
C204 C206 1.419 . S
C205 C200 1.425 . S
C205 C202 1.409 . S
C205 C203 1.415 . S
C206 H196 0.930 . S
C206 C204 1.419 . S
C206 C207 1.362 . S
C207 H197 0.930 . S
C207 C200 1.409 . S
C207 C206 1.362 . S
H208 C214 0.930 . S
H209 C217 0.930 . S
H210 C218 0.930 . S
H211 C219 0.930 . S
H212 C222 0.930 . S
H213 C223 0.930 . S
C214 H208 0.930 . S
C214 C215 1.355 . S
C214 C216 1.415 . S
C215 C214 1.355 . S
C215 C217 1.419 . S
C216 C214 1.415 . S
C216 C221 1.425 . S
C216 C223 1.409 . S
C217 H209 0.930 . S
C217 C215 1.419 . S
C217 C218 1.362 . S
C218 H210 0.930 . S
C218 C217 1.362 . S
C218 C221 1.409 . S
C219 H211 0.930 . S
C219 C220 1.355 . S
C219 C221 1.415 . S
C220 C219 1.355 . S
C220 C222 1.419 . S
C221 C216 1.425 . S
C221 C218 1.409 . S
C221 C219 1.415 . S
C222 H212 0.930 . S
C222 C220 1.419 . S
C222 C223 1.362 . S
C223 H213 0.930 . S
C223 C216 1.409 . S
C223 C222 1.362 . S
H224 C230 0.930 . S
H225 C233 0.930 . S
H226 C234 0.930 . S
H227 C235 0.930 . S
H228 C238 0.930 . S
H229 C239 0.930 . S
C230 H224 0.930 . S
C230 C231 1.355 . S
C230 C232 1.415 . S
C231 C230 1.355 . S
C231 C233 1.419 . S
C232 C230 1.415 . S
C232 C237 1.425 . S
C232 C239 1.409 . S
C233 H225 0.930 . S
C233 C231 1.419 . S
C233 C234 1.362 . S
C234 H226 0.930 . S
C234 C233 1.362 . S
C234 C237 1.409 . S
C235 H227 0.930 . S
C235 C236 1.355 . S
C235 C237 1.415 . S
C236 C235 1.355 . S
C236 C238 1.419 . S
C237 C232 1.425 . S
C237 C234 1.409 . S
C237 C235 1.415 . S
C238 H228 0.930 . S
C238 C236 1.419 . S
C238 C239 1.362 . S
C239 H229 0.930 . S
C239 C232 1.409 . S
C239 C238 1.362 . S
H240 C246 0.930 . S
H241 C249 0.930 . S
H242 C250 0.930 . S
H243 C251 0.930 . S
H244 C254 0.930 . S
H245 C255 0.930 . S
C246 H240 0.930 . S
C246 C247 1.355 . S
C246 C248 1.415 . S
C247 C246 1.355 . S
C247 C249 1.419 . S
C248 C246 1.415 . S
C248 C253 1.425 . S
C248 C255 1.409 . S
C249 H241 0.930 . S
C249 C247 1.419 . S
C249 C250 1.362 . S
C250 H242 0.930 . S
C250 C249 1.362 . S
C250 C253 1.409 . S
C251 H243 0.930 . S
C251 C252 1.355 . S
C251 C253 1.415 . S
C252 C251 1.355 . S
C252 C254 1.419 . S
C253 C248 1.425 . S
C253 C250 1.409 . S
C253 C251 1.415 . S
C254 H244 0.930 . S
C254 C252 1.419 . S
C254 C255 1.362 . S
C255 H245 0.930 . S
C255 C248 1.409 . S
C255 C254 1.362 . S
H256 C262 0.930 . S
H257 C265 0.930 . S
H258 C266 0.930 . S
H259 C267 0.930 . S
H260 C270 0.930 . S
H261 C271 0.930 . S
C262 H256 0.930 . S
C262 C263 1.355 . S
C262 C264 1.415 . S
C263 C262 1.355 . S
C263 C265 1.419 . S
C264 C262 1.415 . S
C264 C269 1.425 . S
C264 C271 1.409 . S
C265 H257 0.930 . S
C265 C263 1.419 . S
C265 C266 1.362 . S
C266 H258 0.930 . S
C266 C265 1.362 . S
C266 C269 1.409 . S
C267 H259 0.930 . S
C267 C268 1.355 . S
C267 C269 1.415 . S
C268 C267 1.355 . S
C268 C270 1.419 . S
C269 C264 1.425 . S
C269 C266 1.409 . S
C269 C267 1.415 . S
C270 H260 0.930 . S
C270 C268 1.419 . S
C270 C271 1.362 . S
C271 H261 0.930 . S
C271 C264 1.409 . S
C271 C270 1.362 . S
H272 C278 0.930 . S
H273 C281 0.930 1_554 S
H274 C282 0.930 . S
H275 C283 0.930 . S
H276 C286 0.930 . S
H277 C287 0.930 . S
C278 H272 0.930 . S
C278 C279 1.355 . S
C278 C280 1.415 . S
C279 C278 1.355 . S
C279 C281 1.419 . S
C280 C278 1.415 . S
C280 C285 1.425 . S
C280 C287 1.409 . S
C281 H273 0.930 1_556 S
C281 C279 1.419 . S
C281 C282 1.362 . S
C282 H274 0.930 . S
C282 C281 1.362 . S
C282 C285 1.409 . S
C283 H275 0.930 . S
C283 C284 1.355 . S
C283 C285 1.415 . S
C284 C283 1.355 . S
C284 C286 1.419 . S
C285 C280 1.425 . S
C285 C282 1.409 . S
C285 C283 1.415 . S
C286 H276 0.930 . S
C286 C284 1.419 . S
C286 C287 1.362 . S
C287 H277 0.930 . S
C287 C280 1.409 . S
C287 C286 1.362 . S
H288 C294 0.930 . S
H289 C297 0.930 . S
H290 C298 0.930 . S
H291 C299 0.930 . S
H292 C302 0.930 . S
H293 C303 0.930 . S
C294 H288 0.930 . S
C294 C295 1.355 . S
C294 C296 1.415 . S
C295 C294 1.355 . S
C295 C297 1.419 . S
C296 C294 1.415 . S
C296 C301 1.425 . S
C296 C303 1.409 . S
C297 H289 0.930 . S
C297 C295 1.419 . S
C297 C298 1.362 . S
C298 H290 0.930 . S
C298 C297 1.362 . S
C298 C301 1.409 . S
C299 H291 0.930 . S
C299 C300 1.355 . S
C299 C301 1.415 . S
C300 C299 1.355 . S
C300 C302 1.419 . S
C301 C296 1.425 . S
C301 C298 1.409 . S
C301 C299 1.415 . S
C302 H292 0.930 . S
C302 C300 1.419 . S
C302 C303 1.362 . S
C303 H293 0.930 . S
C303 C296 1.409 . S
C303 C302 1.362 . S
H304 C310 0.930 . S
H305 C313 0.930 . S
H306 C314 0.930 1_554 S
H307 C315 0.930 . S
H308 C318 0.930 . S
H309 C319 0.930 . S
C310 H304 0.930 . S
C310 C311 1.355 . S
C310 C312 1.415 . S
C311 C310 1.355 . S
C311 C313 1.419 1_556 S
C312 C310 1.415 . S
C312 C317 1.425 . S
C312 C319 1.409 . S
C313 H305 0.930 . S
C313 C311 1.419 1_554 S
C313 C314 1.362 1_554 S
C314 H306 0.930 1_556 S
C314 C313 1.362 1_556 S
C314 C317 1.409 . S
C315 H307 0.930 . S
C315 C316 1.355 . S
C315 C317 1.415 . S
C316 C315 1.355 . S
C316 C318 1.419 . S
C317 C312 1.425 . S
C317 C314 1.409 . S
C317 C315 1.415 . S
C318 H308 0.930 . S
C318 C316 1.419 . S
C318 C319 1.362 . S
C319 H309 0.930 . S
C319 C312 1.409 . S
C319 C318 1.362 . S
H320 C326 0.930 . S
H321 C329 0.930 . S
H322 C330 0.930 . S
H323 C331 0.930 . S
H324 C334 0.930 . S
H325 C335 0.930 . S
C326 H320 0.930 . S
C326 C327 1.355 . S
C326 C328 1.415 . S
C327 C326 1.355 . S
C327 C329 1.419 . S
C328 C326 1.415 . S
C328 C333 1.425 . S
C328 C335 1.409 . S
C329 H321 0.930 . S
C329 C327 1.419 . S
C329 C330 1.362 . S
C330 H322 0.930 . S
C330 C329 1.362 . S
C330 C333 1.409 . S
C331 H323 0.930 . S
C331 C332 1.355 . S
C331 C333 1.415 . S
C332 C331 1.355 . S
C332 C334 1.419 . S
C333 C328 1.425 . S
C333 C330 1.409 . S
C333 C331 1.415 . S
C334 H324 0.930 . S
C334 C332 1.419 . S
C334 C335 1.362 . S
C335 H325 0.930 . S
C335 C328 1.409 . S
C335 C334 1.362 . S
H336 C342 0.930 . S
H337 C345 0.930 . S
H338 C346 0.930 . S
H339 C347 0.930 . S
H340 C350 0.930 . S
H341 C351 0.930 . S
C342 H336 0.930 . S
C342 C343 1.355 . S
C342 C344 1.415 . S
C343 C342 1.355 . S
C343 C345 1.419 . S
C344 C342 1.415 . S
C344 C349 1.425 . S
C344 C351 1.409 . S
C345 H337 0.930 . S
C345 C343 1.419 . S
C345 C346 1.362 . S
C346 H338 0.930 . S
C346 C345 1.362 . S
C346 C349 1.409 . S
C347 H339 0.930 . S
C347 C348 1.355 . S
C347 C349 1.415 . S
C348 C347 1.355 . S
C348 C350 1.419 . S
C349 C344 1.425 . S
C349 C346 1.409 . S
C349 C347 1.415 . S
C350 H340 0.930 . S
C350 C348 1.419 . S
C350 C351 1.362 . S
C351 H341 0.930 . S
C351 C344 1.409 . S
C351 C350 1.362 . S
H352 C358 0.930 . S
H353 C361 0.930 . S
H354 C362 0.930 . S
H355 C363 0.930 . S
H356 C366 0.930 . S
H357 C367 0.930 . S
C358 H352 0.930 . S
C358 C359 1.355 . S
C358 C360 1.415 . S
C359 C358 1.355 . S
C359 C361 1.419 . S
C360 C358 1.415 . S
C360 C365 1.425 . S
C360 C367 1.409 . S
C361 H353 0.930 . S
C361 C359 1.419 . S
C361 C362 1.362 . S
C362 H354 0.930 . S
C362 C361 1.362 . S
C362 C365 1.409 . S
C363 H355 0.930 . S
C363 C364 1.355 . S
C363 C365 1.415 . S
C364 C363 1.355 . S
C364 C366 1.419 . S
C365 C360 1.425 . S
C365 C362 1.409 . S
C365 C363 1.415 . S
C366 H356 0.930 . S
C366 C364 1.419 . S
C366 C367 1.362 . S
C367 H357 0.930 . S
C367 C360 1.409 . S
C367 C366 1.362 . S
H368 C374 0.940 . S
H369 C377 0.930 . S
H370 C378 0.930 . S
H371 C379 0.930 1_565 S
H372 C382 0.930 . S
H373 C383 0.930 . S
C374 H368 0.940 . S
C374 C375 1.355 . S
C374 C376 1.415 1_565 S
C375 C374 1.355 . S
C375 C377 1.419 . S
C376 C374 1.415 1_545 S
C376 C381 1.425 1_545 S
C376 C383 1.409 . S
C377 H369 0.930 . S
C377 C375 1.419 . S
C377 C378 1.362 . S
C378 H370 0.930 . S
C378 C377 1.362 . S
C378 C381 1.409 . S
C379 H371 0.930 1_545 S
C379 C380 1.355 . S
C379 C381 1.415 1_545 S
C380 C379 1.355 . S
C380 C382 1.419 . S
C381 C376 1.425 1_565 S
C381 C378 1.409 . S
C381 C379 1.415 1_565 S
C382 H372 0.930 . S
C382 C380 1.419 . S
C382 C383 1.362 . S
C383 H373 0.930 . S
C383 C376 1.409 . S
C383 C382 1.362 . S
H384 C390 0.930 . S
H385 C393 0.930 . S
H386 C394 0.930 . S
H387 C395 0.930 . S
H388 C398 0.930 . S
H389 C399 0.930 . S
C390 H384 0.930 . S
C390 C391 1.355 . S
C390 C392 1.415 . S
C391 C390 1.355 . S
C391 C393 1.419 . S
C392 C390 1.415 . S
C392 C397 1.425 1_545 S
C392 C399 1.409 . S
C393 H385 0.930 . S
C393 C391 1.419 . S
C393 C394 1.362 1_545 S
C394 H386 0.930 . S
C394 C393 1.362 1_565 S
C394 C397 1.409 . S
C395 H387 0.930 . S
C395 C396 1.355 . S
C395 C397 1.415 . S
C396 C395 1.355 . S
C396 C398 1.419 . S
C397 C392 1.425 1_565 S
C397 C394 1.409 . S
C397 C395 1.415 . S
C398 H388 0.930 . S
C398 C396 1.419 . S
C398 C399 1.362 1_565 S
C399 H389 0.930 . S
C399 C392 1.409 . S
C399 C398 1.362 1_545 S
H400 C406 0.930 . S
H401 C409 0.930 . S
H402 C410 0.930 . S
H403 C411 0.930 1_565 S
H404 C414 0.930 . S
H405 C415 0.930 . S
C406 H400 0.930 . S
C406 C407 1.355 . S
C406 C408 1.415 1_565 S
C407 C406 1.355 . S
C407 C409 1.419 . S
C408 C406 1.415 1_545 S
C408 C413 1.425 1_545 S
C408 C415 1.409 . S
C409 H401 0.930 . S
C409 C407 1.419 . S
C409 C410 1.362 . S
C410 H402 0.930 . S
C410 C409 1.362 . S
C410 C413 1.409 . S
C411 H403 0.930 1_545 S
C411 C412 1.355 . S
C411 C413 1.415 1_545 S
C412 C411 1.355 . S
C412 C414 1.419 . S
C413 C408 1.425 1_565 S
C413 C410 1.409 . S
C413 C411 1.415 1_565 S
C414 H404 0.930 . S
C414 C412 1.419 . S
C414 C415 1.362 . S
C415 H405 0.930 . S
C415 C408 1.409 . S
C415 C414 1.362 . S
H416 C422 0.930 . S
H417 C425 0.931 . S
H418 C426 0.930 . S
H419 C427 0.930 . S
H420 C430 0.930 . S
H421 C431 0.930 . S
C422 H416 0.930 . S
C422 C423 1.355 . S
C422 C424 1.415 . S
C423 C422 1.355 . S
C423 C425 1.419 . S
C424 C422 1.415 . S
C424 C429 1.425 1_545 S
C424 C431 1.409 . S
C425 H417 0.931 . S
C425 C423 1.419 . S
C425 C426 1.362 1_545 S
C426 H418 0.930 . S
C426 C425 1.362 1_565 S
C426 C429 1.409 . S
C427 H419 0.930 . S
C427 C428 1.355 . S
C427 C429 1.415 . S
C428 C427 1.355 . S
C428 C430 1.419 . S
C429 C424 1.425 1_565 S
C429 C426 1.409 . S
C429 C427 1.415 . S
C430 H420 0.930 . S
C430 C428 1.419 . S
C430 C431 1.362 1_565 S
C431 H421 0.930 . S
C431 C424 1.409 . S
C431 C430 1.362 1_545 S
H432 C438 0.930 . S
H433 C441 0.930 . S
H434 C442 0.930 . S
H435 C443 0.930 . S
H436 C446 0.930 . S
H437 C447 0.930 . S
C438 H432 0.930 . S
C438 C439 1.355 . S
C438 C440 1.415 . S
C439 C438 1.355 . S
C439 C441 1.419 . S
C440 C438 1.415 . S
C440 C445 1.425 . S
C440 C447 1.409 . S
C441 H433 0.930 . S
C441 C439 1.419 . S
C441 C442 1.362 . S
C442 H434 0.930 . S
C442 C441 1.362 . S
C442 C445 1.409 . S
C443 H435 0.930 . S
C443 C444 1.355 . S
C443 C445 1.415 . S
C444 C443 1.355 . S
C444 C446 1.419 . S
C445 C440 1.425 . S
C445 C442 1.409 . S
C445 C443 1.415 . S
C446 H436 0.930 . S
C446 C444 1.419 . S
C446 C447 1.362 . S
C447 H437 0.930 . S
C447 C440 1.409 . S
C447 C446 1.362 . S
H448 C454 0.930 . S
H449 C457 0.930 . S
H450 C458 0.930 . S
H451 C459 0.930 . S
H452 C462 0.930 . S
H453 C463 0.930 . S
C454 H448 0.930 . S
C454 C455 1.355 . S
C454 C456 1.415 . S
C455 C454 1.355 . S
C455 C457 1.419 . S
C456 C454 1.415 . S
C456 C461 1.425 . S
C456 C463 1.409 . S
C457 H449 0.930 . S
C457 C455 1.419 . S
C457 C458 1.362 . S
C458 H450 0.930 . S
C458 C457 1.362 . S
C458 C461 1.409 . S
C459 H451 0.930 . S
C459 C460 1.355 . S
C459 C461 1.415 . S
C460 C459 1.355 . S
C460 C462 1.419 . S
C461 C456 1.425 . S
C461 C458 1.409 . S
C461 C459 1.415 . S
C462 H452 0.930 . S
C462 C460 1.419 . S
C462 C463 1.362 . S
C463 H453 0.930 . S
C463 C456 1.409 . S
C463 C462 1.362 . S
H464 C470 0.930 . S
H465 C473 0.930 . S
H466 C474 0.930 . S
H467 C475 0.930 . S
H468 C478 0.930 . S
H469 C479 0.930 . S
C470 H464 0.930 . S
C470 C471 1.355 . S
C470 C472 1.415 . S
C471 C470 1.355 . S
C471 C473 1.419 . S
C472 C470 1.415 . S
C472 C477 1.425 . S
C472 C479 1.409 . S
C473 H465 0.930 . S
C473 C471 1.419 . S
C473 C474 1.362 . S
C474 H466 0.930 . S
C474 C473 1.362 . S
C474 C477 1.409 . S
C475 H467 0.930 . S
C475 C476 1.355 . S
C475 C477 1.415 . S
C476 C475 1.355 . S
C476 C478 1.419 . S
C477 C472 1.425 . S
C477 C474 1.409 . S
C477 C475 1.415 . S
C478 H468 0.930 . S
C478 C476 1.419 . S
C478 C479 1.362 . S
C479 H469 0.930 . S
C479 C472 1.409 . S
C479 C478 1.362 . S
H480 C486 0.930 . S
H481 C489 0.930 . S
H482 C490 0.930 . S
H483 C491 0.930 . S
H484 C494 0.930 . S
H485 C495 0.930 . S
C486 H480 0.930 . S
C486 C487 1.355 . S
C486 C488 1.415 . S
C487 C486 1.355 . S
C487 C489 1.419 . S
C488 C486 1.415 . S
C488 C493 1.425 . S
C488 C495 1.409 . S
C489 H481 0.930 . S
C489 C487 1.419 . S
C489 C490 1.362 . S
C490 H482 0.930 . S
C490 C489 1.362 . S
C490 C493 1.409 . S
C491 H483 0.930 . S
C491 C492 1.355 . S
C491 C493 1.415 . S
C492 C491 1.355 . S
C492 C494 1.419 . S
C493 C488 1.425 . S
C493 C490 1.409 . S
C493 C491 1.415 . S
C494 H484 0.930 . S
C494 C492 1.419 . S
C494 C495 1.362 . S
C495 H485 0.930 . S
C495 C488 1.409 . S
C495 C494 1.362 . S
H496 C502 0.930 . S
H497 C505 0.930 . S
H498 C506 0.930 . S
H499 C507 0.930 . S
H500 C510 0.930 . S
H501 C511 0.930 . S
C502 H496 0.930 . S
C502 C503 1.355 . S
C502 C504 1.415 . S
C503 C502 1.355 . S
C503 C505 1.419 . S
C504 C502 1.415 . S
C504 C509 1.425 . S
C504 C511 1.409 . S
C505 H497 0.930 . S
C505 C503 1.419 . S
C505 C506 1.362 . S
C506 H498 0.930 . S
C506 C505 1.362 . S
C506 C509 1.409 . S
C507 H499 0.930 . S
C507 C508 1.355 . S
C507 C509 1.415 . S
C508 C507 1.355 . S
C508 C510 1.419 . S
C509 C504 1.425 . S
C509 C506 1.409 . S
C509 C507 1.415 . S
C510 H500 0.930 . S
C510 C508 1.419 . S
C510 C511 1.362 . S
C511 H501 0.930 . S
C511 C504 1.409 . S
C511 C510 1.362 . S
H512 C518 0.930 . S
H513 C521 0.930 . S
H514 C522 0.930 . S
H515 C523 0.930 . S
H516 C526 0.930 . S
H517 C527 0.930 . S
C518 H512 0.930 . S
C518 C519 1.355 . S
C518 C520 1.415 . S
C519 C518 1.355 . S
C519 C521 1.419 . S
C520 C518 1.415 . S
C520 C525 1.425 . S
C520 C527 1.409 . S
C521 H513 0.930 . S
C521 C519 1.419 . S
C521 C522 1.362 . S
C522 H514 0.930 . S
C522 C521 1.362 . S
C522 C525 1.409 . S
C523 H515 0.930 . S
C523 C524 1.355 . S
C523 C525 1.415 . S
C524 C523 1.355 . S
C524 C526 1.419 . S
C525 C520 1.425 . S
C525 C522 1.409 . S
C525 C523 1.415 . S
C526 H516 0.930 . S
C526 C524 1.419 . S
C526 C527 1.362 . S
C527 H517 0.930 . S
C527 C520 1.409 . S
C527 C526 1.362 . S
H528 C534 0.930 . S
H529 C537 0.930 . S
H530 C538 0.930 . S
H531 C539 0.930 . S
H532 C542 0.930 . S
H533 C543 0.930 . S
C534 H528 0.930 . S
C534 C535 1.355 . S
C534 C536 1.415 . S
C535 C534 1.355 . S
C535 C537 1.419 . S
C536 C534 1.415 . S
C536 C541 1.425 . S
C536 C543 1.409 . S
C537 H529 0.930 . S
C537 C535 1.419 . S
C537 C538 1.362 . S
C538 H530 0.930 . S
C538 C537 1.362 . S
C538 C541 1.409 . S
C539 H531 0.930 . S
C539 C540 1.355 . S
C539 C541 1.415 . S
C540 C539 1.355 . S
C540 C542 1.419 . S
C541 C536 1.425 . S
C541 C538 1.409 . S
C541 C539 1.415 . S
C542 H532 0.930 . S
C542 C540 1.419 . S
C542 C543 1.362 . S
C543 H533 0.930 . S
C543 C536 1.409 . S
C543 C542 1.362 . S
H544 C550 0.930 . S
H545 C553 0.930 . S
H546 C554 0.930 . S
H547 C555 0.930 . S
H548 C558 0.930 . S
H549 C559 0.930 . S
C550 H544 0.930 . S
C550 C551 1.355 . S
C550 C552 1.415 . S
C551 C550 1.355 . S
C551 C553 1.419 . S
C552 C550 1.415 . S
C552 C557 1.425 . S
C552 C559 1.409 . S
C553 H545 0.930 . S
C553 C551 1.419 . S
C553 C554 1.362 . S
C554 H546 0.930 . S
C554 C553 1.362 . S
C554 C557 1.409 . S
C555 H547 0.930 . S
C555 C556 1.355 . S
C555 C557 1.415 . S
C556 C555 1.355 . S
C556 C558 1.419 . S
C557 C552 1.425 . S
C557 C554 1.409 . S
C557 C555 1.415 . S
C558 H548 0.930 . S
C558 C556 1.419 . S
C558 C559 1.362 . S
C559 H549 0.930 . S
C559 C552 1.409 . S
C559 C558 1.362 . S
C183 C10 1.515 . S
C188 C114 1.481 . S
C204 C92 1.492 . S
C199 C21 1.517 . S
C220 C118 1.545 . S
C215 C32 1.574 . S
C236 C96 1.442 . S
C231 C43 1.482 . S
C252 C158 1.498 . S
C247 C54 1.530 . S
C268 C136 1.532 . S
C263 C65 1.537 . S
C279 C76 1.601 . S
C284 C162 1.583 . S
C300 C140 1.436 . S
C295 C87 1.475 . S
C311 C5 1.466 . S
C316 C163 1.537 . S
C332 C141 1.515 . S
C327 C16 1.448 . S
C343 C27 1.525 . S
C348 C160 1.585 . S
C359 C37 1.401 . S
C364 C138 1.451 . S
C380 C119 1.532 . S
C375 C49 1.478 . S
C391 C60 1.500 . S
C396 C97 1.475 . S
C412 C116 1.586 . S
C407 C71 1.517 . S
C428 C94 1.413 . S
C423 C81 1.449 . S
C444 C137 1.500 . S
C439 C4 1.457 . S
C460 C159 1.498 . S
C455 C15 1.450 . S
C471 C26 1.481 . S
C476 C139 1.494 . S
C492 C161 1.458 . S
C487 C38 1.489 . S
C508 C93 1.461 . S
C503 C48 1.496 . S
C519 C59 1.494 . S
C524 C115 1.458 . S
C535 C70 1.490 . S
C540 C95 1.478 . S
C551 C82 1.471 . S
C556 C117 1.471 . S
