# Generated by pormake.
# Topology zzz, (3,6)-cn, num edge types: 1
# Building blocks:
#     Node 0, Type 0, BuildingBlock: QEWDON_clean_linker_0, # of connection points: 3
#     Node 1, Type 0, BuildingBlock: QEWDON_clean_linker_0, # of connection points: 3
#     Node 2, Type 0, BuildingBlock: QEWDON_clean_linker_0, # of connection points: 3
#     Node 3, Type 0, BuildingBlock: QEWDON_clean_linker_0, # of connection points: 3
#     Node 4, Type 0, BuildingBlock: QEWDON_clean_linker_0, # of connection points: 3
#     Node 5, Type 0, BuildingBlock: QEWDON_clean_linker_0, # of connection points: 3
#     Node 6, Type 0, BuildingBlock: QEWDON_clean_linker_0, # of connection points: 3
#     Node 7, Type 0, BuildingBlock: QEWDON_clean_linker_0, # of connection points: 3
#     Node 8, Type 1, BuildingBlock: KUMBUR_clean_sbu_0, # of connection points: 6
#     Node 9, Type 1, BuildingBlock: KUMBUR_clean_sbu_0, # of connection points: 6
#     Node 10, Type 1, BuildingBlock: KUMBUR_clean_sbu_0, # of connection points: 6
#     Node 11, Type 1, BuildingBlock: KUMBUR_clean_sbu_0, # of connection points: 6
#     Edge 12, Type (0, 1), BuildingBlock: XUDNAN_clean_linker_2, # of connection points: 2
#     Edge 13, Type (0, 1), BuildingBlock: XUDNAN_clean_linker_2, # of connection points: 2
#     Edge 14, Type (0, 1), BuildingBlock: XUDNAN_clean_linker_2, # of connection points: 2
#     Edge 15, Type (0, 1), BuildingBlock: XUDNAN_clean_linker_2, # of connection points: 2
#     Edge 16, Type (0, 1), BuildingBlock: XUDNAN_clean_linker_2, # of connection points: 2
#     Edge 17, Type (0, 1), BuildingBlock: XUDNAN_clean_linker_2, # of connection points: 2
#     Edge 18, Type (0, 1), BuildingBlock: XUDNAN_clean_linker_2, # of connection points: 2
#     Edge 19, Type (0, 1), BuildingBlock: XUDNAN_clean_linker_2, # of connection points: 2
#     Edge 20, Type (0, 1), BuildingBlock: XUDNAN_clean_linker_2, # of connection points: 2
#     Edge 21, Type (0, 1), BuildingBlock: XUDNAN_clean_linker_2, # of connection points: 2
#     Edge 22, Type (0, 1), BuildingBlock: XUDNAN_clean_linker_2, # of connection points: 2
#     Edge 23, Type (0, 1), BuildingBlock: XUDNAN_clean_linker_2, # of connection points: 2
#     Edge 24, Type (0, 1), BuildingBlock: XUDNAN_clean_linker_2, # of connection points: 2
#     Edge 25, Type (0, 1), BuildingBlock: XUDNAN_clean_linker_2, # of connection points: 2
#     Edge 26, Type (0, 1), BuildingBlock: XUDNAN_clean_linker_2, # of connection points: 2
#     Edge 27, Type (0, 1), BuildingBlock: XUDNAN_clean_linker_2, # of connection points: 2
#     Edge 28, Type (0, 1), BuildingBlock: XUDNAN_clean_linker_2, # of connection points: 2
#     Edge 29, Type (0, 1), BuildingBlock: XUDNAN_clean_linker_2, # of connection points: 2
#     Edge 30, Type (0, 1), BuildingBlock: XUDNAN_clean_linker_2, # of connection points: 2
#     Edge 31, Type (0, 1), BuildingBlock: XUDNAN_clean_linker_2, # of connection points: 2
#     Edge 32, Type (0, 1), BuildingBlock: XUDNAN_clean_linker_2, # of connection points: 2
#     Edge 33, Type (0, 1), BuildingBlock: XUDNAN_clean_linker_2, # of connection points: 2
#     Edge 34, Type (0, 1), BuildingBlock: XUDNAN_clean_linker_2, # of connection points: 2
#     Edge 35, Type (0, 1), BuildingBlock: XUDNAN_clean_linker_2, # of connection points: 2
# Relax obj value: 0.114
# Max RMSD: 0.151
# Mean RMSD: 0.075
data_MOF--net-zzz--node1-KUMBUR_clean_sbu_0--node2-QEWDON_clean_linker_0--edge1-XUDNAN_clean_linker_2
_symmetry_space_group_name_H-M    P1
_symmetry_Int_Tables_number       1
_symmetry_cell_setting            triclinic
loop_
_symmetry_equiv_pos_as_xyz
'x, y, z'
_cell_length_a     54.576073
_cell_length_b     54.296885
_cell_length_c     14.312904
_cell_angle_alpha  91.388329
_cell_angle_beta   90.174768
_cell_angle_gamma 90.12878
loop_
_atom_site_label
_atom_site_type_symbol
_atom_site_fract_x
_atom_site_fract_y
_atom_site_fract_z
_atom_type_partial_charge
H0 H 0.76529 0.55839 0.06373 0.0
C1 C 0.77753 0.55311 0.11929 0.0
C2 C 0.8024 0.55908 0.1113 0.0
C3 C 0.76865 0.54109 0.19897 0.0
H4 H 0.83788 0.55785 0.17483 0.0
C5 C 0.81877 0.55296 0.18239 0.0
C6 C 0.81153 0.53997 0.26054 0.0
C7 C 0.78618 0.53426 0.26923 0.0
C8 C 0.74122 0.53677 0.20975 0.0
H9 H 0.78039 0.5241 0.32938 0.0
C10 C 0.7245 0.53513 0.13208 0.0
C11 C 0.69872 0.5325 0.14557 0.0
C12 C 0.73123 0.53567 0.30014 0.0
H13 H 0.74265 0.53771 0.36171 0.0
C14 C 0.70611 0.53287 0.31365 0.0
H15 H 0.73132 0.53552 0.06131 0.0
C16 C 0.69007 0.53139 0.23783 0.0
H17 H 0.67065 0.53 0.25208 0.0
H18 H 0.6989 0.53231 0.38398 0.0
H19 H 0.0257 0.77763 0.05073 0.0
C20 C 0.0242 0.78993 0.11105 0.0
C21 C 0.03201 0.81423 0.10182 0.0
C22 C 1.0132 0.78204 0.19373 0.0
H23 H 0.03457 0.85033 0.16357 0.0
C24 C 0.02917 0.83146 0.17539 0.0
C25 C 0.01901 0.82488 0.2615 0.0
C26 C 1.01096 0.79983 0.26975 0.0
C27 C 1.00219 0.75614 0.19484 0.0
H28 H 1.00313 0.79425 0.3352 0.0
C29 C 1.01043 0.73616 0.13469 0.0
C30 C 0.99743 0.71329 0.1276 0.0
C31 C 0.98143 0.75184 0.25018 0.0
H32 H 0.97393 0.7662 0.29522 0.0
C33 C 0.96915 0.72927 0.24568 0.0
H34 H 0.02657 0.73837 0.092 0.0
C35 C 0.97683 0.71039 0.18485 0.0
H36 H 0.96666 0.69323 0.18341 0.0
H37 H 0.95316 0.72652 0.28879 0.0
H38 H 0.76502 0.01903 0.07088 0.0
C39 C 0.75301 0.01999 0.1309 0.0
C40 C 0.72941 0.02876 0.11745 0.0
C41 C 0.76092 1.01222 0.21879 0.0
H42 H 0.694 0.03492 0.17525 0.0
C43 C 0.7125 0.02902 0.19047 0.0
C44 C 0.71876 0.0209 0.28 0.0
C45 C 0.74337 1.01248 0.29373 0.0
C46 C 0.78704 1.0028 0.22703 0.0
H47 H 0.7488 1.00652 0.36229 0.0
C48 C 0.80618 1.01076 0.16619 0.0
C49 C 0.82966 0.9994 0.16452 0.0
C50 C 0.79265 0.98414 0.28984 0.0
H51 H 0.77887 0.97712 0.33647 0.0
C52 C 0.81593 0.97345 0.29097 0.0
H53 H 0.80279 0.02551 0.11848 0.0
C54 C 0.83411 0.98075 0.22871 0.0
H55 H 0.85186 0.97192 0.23194 0.0
H56 H 0.81982 0.95903 0.33974 0.0
H57 H 0.55749 0.77854 0.10432 0.0
C58 C 0.55598 0.76638 0.16286 0.0
C59 C 0.56548 0.74254 0.15304 0.0
C60 C 0.54294 0.77383 0.24328 0.0
H61 H 0.56805 0.70686 0.21351 0.0
C62 C 0.56223 0.72574 0.22517 0.0
C63 C 0.54937 0.7321 0.30707 0.0
C64 C 0.54004 0.75649 0.31595 0.0
C65 C 0.52991 0.7984 0.24419 0.0
H66 H 0.53022 0.76176 0.3788 0.0
C67 C 0.53864 0.81885 0.19273 0.0
C68 C 0.52416 0.84028 0.18234 0.0
C69 C 0.50702 0.80072 0.28866 0.0
H70 H 0.49917 0.78564 0.32661 0.0
C71 C 0.49314 0.82214 0.28114 0.0
H72 H 0.55627 0.81798 0.15843 0.0
C73 C 0.50144 0.84158 0.22772 0.0
H74 H 0.49003 0.85779 0.22197 0.0
H75 H 0.4755 0.82345 0.31527 0.0
H76 H 0.27915 0.54516 0.20214 0.0
C77 C 0.26564 0.53838 0.15225 0.0
C78 C 0.24155 0.54657 0.16195 0.0
C79 C 0.27244 0.52276 0.07669 0.0
H80 H 0.20541 0.54711 0.10431 0.0
C81 C 0.22369 0.53954 0.09638 0.0
C82 C 0.22918 0.52425 0.01908 0.0
C83 C 0.25382 0.51583 0.00954 0.0
C84 C 0.29926 0.51587 0.06538 0.0
H85 H 0.25829 0.50388 0.95054 0.0
C86 C 0.31592 0.51476 0.14298 0.0
C87 C 0.34156 0.51147 0.12931 0.0
C88 C 0.30899 0.51243 0.97508 0.0
H89 H 0.29749 0.51363 0.91369 0.0
C90 C 0.33399 0.50841 0.96162 0.0
H91 H 0.30923 0.51699 0.21374 0.0
C92 C 0.3501 0.50815 0.03741 0.0
H93 H 0.36942 0.50523 0.02394 0.0
H94 H 0.34105 0.50595 0.8914 0.0
H95 H 0.02336 0.27413 0.23691 0.0
C96 C 0.02369 0.26122 0.17839 0.0
C97 C 0.02421 0.2361 0.1981 0.0
C98 C 0.02165 0.26958 0.08636 0.0
H99 H 0.02293 0.19916 0.14 0.0
C100 C 0.02368 0.21861 0.12453 0.0
C101 C 0.02153 0.22544 0.03139 0.0
C102 C 0.02067 0.25111 0.01205 0.0
C103 C 0.01748 0.29715 0.07236 0.0
H104 H 0.01855 0.25634 0.94013 0.0
C105 C 0.02374 0.31582 0.14192 0.0
C106 C 0.01622 0.34085 0.13361 0.0
C107 C 1.00489 0.30493 0.99242 0.0
H108 H 0.99911 0.29198 0.93822 0.0
C109 C 0.99847 0.32958 0.98197 0.0
H110 H 0.03397 0.31111 0.20363 0.0
C111 C 1.0038 0.34722 0.0516 0.0
H112 H 0.99828 0.36608 0.04055 0.0
H113 H 0.98876 0.33502 0.91973 0.0
H114 H 0.27161 1.01167 0.24968 0.0
C115 C 0.28468 1.01623 0.19616 0.0
C116 C 0.30943 1.01378 0.21773 0.0
C117 C 0.2768 0.02361 0.10768 0.0
H118 H 0.34634 1.01534 0.16804 0.0
C119 C 0.32722 0.01758 0.14936 0.0
C120 C 0.32071 0.02334 0.05725 0.0
C121 C 0.29528 0.02712 0.03752 0.0
C122 C 0.24929 0.02552 0.09034 0.0
H123 H 0.29007 0.03228 0.96776 0.0
C124 C 0.23203 0.02905 0.16515 0.0
C125 C 0.20626 0.02732 0.15041 0.0
C126 C 0.23975 0.02179 0.99976 0.0
H127 H 0.25167 0.01861 0.94054 0.0
C128 C 0.21447 0.02119 0.98403 0.0
H129 H 0.23845 0.03268 0.23558 0.0
C130 C 0.19796 0.02367 0.05805 0.0
H131 H 0.17854 0.02297 0.04239 0.0
H132 H 0.20757 0.01829 0.91361 0.0
H133 H 0.48582 0.26999 0.21856 0.0
C134 C 0.48771 0.28104 0.15698 0.0
C135 C 0.47388 0.30259 0.15171 0.0
C136 C 0.50502 0.27474 0.08765 0.0
H137 H 0.46618 0.33477 0.07403 0.0
C138 C 0.4772 0.31824 0.07648 0.0
C139 C 0.49597 0.31435 0.01084 0.0
C140 C 0.50923 0.29187 0.01478 0.0
C141 C 0.52031 0.25177 0.09925 0.0
H142 H 0.52323 0.28819 0.9631 0.0
C143 C 0.51134 0.23082 0.14726 0.0
C144 C 0.52681 0.21061 0.16719 0.0
C145 C 0.54479 0.25135 0.06872 0.0
H146 H 0.55283 0.26692 0.03432 0.0
C147 C 0.55981 0.23115 0.08534 0.0
H148 H 0.49255 0.23036 0.17111 0.0
C149 C 0.55104 0.21111 0.13444 0.0
H150 H 0.56331 0.19585 0.14647 0.0
H151 H 0.5786 0.23123 0.06137 0.0
Tb152 Tb 0.03388 1.01606 0.77457 0.0
C153 C 1.0016 0.99219 0.3849 0.0
C154 C 0.0294 1.00756 0.2683 0.0
C155 C 1.00665 0.96978 0.23705 0.0
C156 C 0.01812 1.00967 0.35651 0.0
C157 C 0.99501 0.97243 0.32417 0.0
C158 C 0.02425 0.98702 0.21011 0.0
C159 C 0.96451 0.96078 0.43653 0.0
N160 N 0.99086 0.99543 0.46969 0.0
C161 C 0.9717 0.98071 0.49426 0.0
C162 C 0.9765 0.95636 0.35181 0.0
Tb163 Tb 1.00417 0.0285 0.5589 0.0
N164 N 0.0225 0.02925 0.41466 0.0
C165 C 0.03671 0.04846 0.38554 0.0
C166 C 0.04489 0.02654 0.24018 0.0
C167 C 0.04835 0.04721 0.29864 0.0
H168 H 0.96217 0.98372 0.55934 0.0
H169 H 0.05996 0.06217 0.27678 0.0
H170 H 0.03296 0.98489 0.14245 0.0
H171 H 0.94978 0.94878 0.45771 0.0
H172 H 0.03978 0.0644 0.43063 0.0
H173 H 0.97578 0.98134 0.04814 0.0
H174 H 0.05369 0.02574 0.1724 0.0
H175 H 0.07409 0.06226 0.77973 0.0
H176 H 0.99971 0.97835 0.903 0.0
H177 H 0.08508 0.097 0.88466 0.0
H178 H 1.00197 0.95464 0.18956 0.0
H179 H 0.97752 0.0193 0.14718 0.0
H180 H 0.99697 0.06083 0.18009 0.0
H181 H 0.97093 0.94089 0.30737 0.0
H182 H 0.02738 0.09218 0.13692 0.0
N183 N 0.01492 1.0145 0.91816 0.0
C184 C 1.00116 0.99485 0.94616 0.0
C185 C 0.98822 0.01807 0.08358 0.0
C186 C 1.00393 0.0372 0.05879 0.0
C187 C 0.98724 0.99659 0.02798 0.0
C188 C 0.01726 0.03471 0.975 0.0
H189 H 0.06111 0.1053 0.02874 0.0
N190 N 0.04521 0.0495 0.86616 0.0
C191 C 0.07005 0.08503 0.90253 0.0
C192 C 0.03325 0.05276 0.94839 0.0
C193 C 0.06391 0.06502 0.84358 0.0
C194 C 0.05656 0.08959 0.98387 0.0
C195 C 0.0379 0.07328 0.00795 0.0
O196 O 0.07229 1.01482 0.78667 0.0
O197 O 0.02153 1.00073 0.64069 0.0
O198 O 0.9771 1.01516 0.66451 0.0
O199 O 0.99575 0.02609 0.80532 0.0
O200 O 0.01918 0.97841 0.75111 0.0
O201 O 0.04977 0.9855 0.83804 0.0
O202 O 0.9659 0.03401 0.55895 0.0
O203 O 0.01678 0.04368 0.69184 0.0
O204 O 0.06009 0.02997 0.66833 0.0
O205 O 0.04226 0.01748 0.52816 0.0
O206 O 0.01969 0.06615 0.58494 0.0
O207 O 0.98985 0.05693 0.47923 0.0
C208 C 0.0152 0.97917 0.66296 0.0
C209 C 0.08576 0.97398 0.75648 0.0
C210 C 0.09119 0.93136 0.70202 0.0
C211 C 0.07997 0.94892 0.7614 0.0
C212 C 0.10893 0.93904 0.63818 0.0
C213 C 0.10373 0.98138 0.69263 0.0
C214 C 0.11511 0.96399 0.63357 0.0
C215 C 0.9761 0.01962 0.7565 0.0
C216 C 0.07182 0.99213 0.81397 0.0
C217 C 0.02434 0.07635 0.09076 0.0
C218 C 1.00707 0.05848 0.11544 0.0
C219 C 0.02364 0.06532 0.67323 0.0
C220 C 0.95819 0.07699 0.56266 0.0
C221 C 0.96956 0.0998 0.54924 0.0
C222 C 0.96461 0.12037 0.6079 0.0
C223 C 0.94644 0.11807 0.67681 0.0
C224 C 0.93937 0.07548 0.6287 0.0
C225 C 0.9335 0.09598 0.68517 0.0
C226 C 0.06177 0.02434 0.57751 0.0
C227 C 0.96804 0.05464 0.51485 0.0
H228 H 0.06672 0.94299 0.8125 0.0
H229 H 0.11794 0.92579 0.59215 0.0
H230 H 0.10885 1.00057 0.68769 0.0
H231 H 0.12875 0.9699 0.58405 0.0
H232 H 0.98256 0.10124 0.49278 0.0
H233 H 0.94218 0.13318 0.7246 0.0
H234 H 0.92981 0.05826 0.63898 0.0
H235 H 0.91938 0.09451 0.73766 0.0
Tb236 Tb 0.52903 0.04585 0.7615 0.0
C237 C 0.55687 0.99102 0.4567 0.0
C238 C 0.5541 1.01591 0.31892 0.0
C239 C 0.58838 0.98806 0.33658 0.0
C240 C 0.54479 1.00861 0.40607 0.0
C241 C 0.57843 0.97998 0.4208 0.0
C242 C 0.57624 1.00604 0.28581 0.0
C243 C 0.57786 0.95244 0.55002 0.0
N244 N 0.54696 0.98392 0.53889 0.0
C245 C 0.55667 0.96405 0.58337 0.0
C246 C 0.58904 0.96068 0.46924 0.0
Tb247 Tb 0.51168 1.00425 0.58545 0.0
N248 N 0.52272 1.0167 0.43746 0.0
C249 C 0.50736 0.02816 0.37584 0.0
C250 C 0.54018 0.0318 0.26499 0.0
C251 C 0.51633 0.03733 0.29226 0.0
H252 H 0.54813 0.95627 0.64333 0.0
H253 H 0.50463 0.04816 0.24806 0.0
H254 H 0.58358 1.01145 0.21909 0.0
H255 H 0.58548 0.93698 0.58655 0.0
H256 H 0.4883 0.0313 0.39256 0.0
H257 H 0.5317 1.00039 0.09699 0.0
H258 H 0.54702 0.03845 0.19922 0.0
H259 H 0.49272 0.09319 0.69574 0.0
H260 H 0.54984 0.01748 0.95647 0.0
H261 H 0.45503 0.11271 0.74751 0.0
H262 H 0.60509 0.98006 0.30886 0.0
H263 H 0.48924 1.0112 0.14109 0.0
H264 H 0.45362 0.03915 0.11772 0.0
H265 H 0.6055 0.95168 0.44378 0.0
H266 H 0.43327 0.07073 0.02522 0.0
N267 N 0.5162 0.03285 0.90673 0.0
C268 C 0.53064 0.02076 0.96975 0.0
C269 C 0.4968 0.01779 0.07638 0.0
C270 C 0.48381 0.03419 0.02138 0.0
C271 C 0.52068 1.0116 0.05168 0.0
C272 C 0.49408 0.04146 0.93571 0.0
H273 H 0.43403 0.09868 0.88921 0.0
N274 N 0.4932 0.06605 0.80215 0.0
C275 C 0.46238 0.09743 0.78579 0.0
C276 C 0.48267 0.05925 0.88365 0.0
C277 C 0.48377 0.08567 0.7553 0.0
C278 C 0.45067 0.08958 0.86604 0.0
C279 C 0.46086 0.07045 0.91662 0.0
O280 O 0.53441 0.0814 0.81866 0.0
O281 O 0.54375 0.01994 0.65574 0.0
O282 O 0.51826 0.9815 0.70681 0.0
O283 O 0.54135 1.00828 0.79966 0.0
O284 O 0.55728 0.05513 0.6597 0.0
O285 O 0.56129 0.05318 0.83846 0.0
O286 O 0.5047 0.96875 0.52954 0.0
O287 O 0.49688 0.03023 0.69077 0.0
O288 O 0.52434 0.06861 0.63945 0.0
O289 O 0.50089 0.04227 0.54623 0.0
O290 O 0.48502 0.99448 0.69195 0.0
O291 O 0.47814 0.99758 0.51617 0.0
C292 C 0.55977 0.03393 0.61917 0.0
C293 C 0.57559 0.09327 0.80283 0.0
C294 C 0.61708 0.09952 0.74543 0.0
C295 C 0.59948 0.08471 0.78809 0.0
C296 C 0.6108 0.12325 0.71752 0.0
C297 C 0.56945 0.11711 0.77397 0.0
C298 C 0.58696 0.13191 0.73126 0.0
C299 C 0.53174 0.98616 0.7817 0.0
C300 C 0.55686 0.07678 0.84246 0.0
C301 C 0.45014 0.06255 0.9997 0.0
C302 C 0.4616 0.04444 0.05193 0.0
C303 C 0.48147 1.01587 0.72901 0.0
C304 C 0.46352 0.95873 0.56232 0.0
C305 C 0.43901 0.96615 0.56239 0.0
C306 C 0.42184 0.95555 0.62265 0.0
C307 C 0.42925 0.93644 0.68049 0.0
C308 C 0.47063 0.93941 0.62049 0.0
C309 C 0.45351 0.92833 0.67875 0.0
C310 C 0.51132 0.06405 0.56343 0.0
C311 C 0.48186 0.97385 0.51326 0.0
H312 H 0.60463 0.0666 0.81161 0.0
H313 H 0.62436 0.13508 0.68639 0.0
H314 H 0.55109 0.12425 0.7837 0.0
H315 H 0.58209 0.15022 0.70952 0.0
H316 H 0.43344 0.98061 0.51594 0.0
H317 H 0.41635 0.92785 0.72702 0.0
H318 H 0.4895 0.93333 0.62328 0.0
H319 H 0.45911 0.91365 0.7238 0.0
Tb320 Tb 0.53908 0.5148 0.55166 0.0
C321 C 0.44582 0.51094 0.79505 0.0
C322 C 0.41573 0.53106 0.69967 0.0
C323 C 0.40252 0.50141 0.81343 0.0
C324 C 0.44037 0.52714 0.72609 0.0
C325 C 0.42694 0.49845 0.84199 0.0
C326 C 0.39693 0.51764 0.74197 0.0
C327 C 0.45737 0.48342 0.94859 0.0
N328 N 0.46955 0.50883 0.82094 0.0
C329 C 0.47538 0.49599 0.89929 0.0
C330 C 0.43307 0.48424 0.91875 0.0
Tb331 Tb 0.49841 0.53066 0.73929 0.0
N332 N 0.4591 0.54002 0.68848 0.0
C333 C 0.45381 0.55856 0.62808 0.0
C334 C 0.41066 0.54887 0.63368 0.0
C335 C 0.42977 0.56289 0.5987 0.0
H336 H 0.49415 0.49519 0.92338 0.0
H337 H 0.42604 0.57701 0.54849 0.0
H338 H 0.37796 0.52026 0.72204 0.0
H339 H 0.46227 0.47318 0.00977 0.0
H340 H 0.46787 0.56956 0.59751 0.0
H341 H 0.61162 0.46531 0.72938 0.0
H342 H 0.39204 0.55234 0.61101 0.0
H343 H 0.54213 0.55567 0.38333 0.0
H344 H 0.56959 0.47393 0.68626 0.0
H345 H 0.57389 0.57799 0.29744 0.0
H346 H 0.3878 0.49179 0.84788 0.0
H347 H 0.64561 0.48968 0.66524 0.0
H348 H 0.6595 0.52247 0.55715 0.0
H349 H 0.41912 0.47456 0.95723 0.0
H350 H 0.64934 0.55305 0.43919 0.0
N351 N 0.57829 0.50406 0.59759 0.0
C352 C 0.58361 0.485 0.65558 0.0
C353 C 0.6269 0.49374 0.64533 0.0
C354 C 0.62169 0.51226 0.58233 0.0
C355 C 0.60779 0.47991 0.68133 0.0
C356 C 0.59696 0.517 0.55951 0.0
H357 H 0.61755 0.57353 0.34071 0.0
N358 N 0.56744 0.53803 0.4737 0.0
C359 C 0.57908 0.56609 0.35371 0.0
C360 C 0.59133 0.53449 0.49495 0.0
C361 C 0.56115 0.55327 0.40231 0.0
C362 C 0.60367 0.56348 0.37823 0.0
C363 C 0.6101 0.5474 0.44907 0.0
O364 O 0.53837 0.50822 0.4069 0.0
O365 O 0.50104 0.51656 0.5969 0.0
O366 O 0.49761 0.49005 0.72982 0.0
O367 O 0.53113 0.48135 0.63287 0.0
O368 O 0.50917 0.53033 0.4695 0.0
O369 O 0.53888 0.47799 0.50062 0.0
O370 O 0.50043 0.53957 0.88232 0.0
O371 O 0.53619 0.52818 0.69367 0.0
O372 O 0.54282 0.55507 0.57554 0.0
O373 O 0.50642 0.56326 0.65399 0.0
O374 O 0.52874 0.51643 0.82408 0.0
O375 O 0.49697 0.56808 0.78239 0.0
C376 C 0.49137 0.52523 0.52405 0.0
C377 C 0.51273 0.47507 0.36663 0.0
C378 C 0.4771 0.44763 0.35831 0.0
C379 C 0.49797 0.45679 0.406 0.0
C380 C 0.47048 0.4582 0.27282 0.0
C381 C 0.50587 0.48493 0.28057 0.0
C382 C 0.48473 0.47677 0.23485 0.0
C383 C 0.51379 0.47447 0.69222 0.0
C384 C 0.5348 0.4848 0.41525 0.0
C385 C 0.63467 0.54323 0.47318 0.0
C386 C 0.64045 0.52579 0.54014 0.0
C387 C 0.54627 0.52009 0.76647 0.0
C388 C 0.5242 0.57473 0.91113 0.0
C389 C 0.53771 0.5927 0.86411 0.0
C390 C 0.55791 0.60458 0.90748 0.0
C391 C 0.56526 0.59659 0.99669 0.0
C392 C 0.53196 0.56738 0.99974 0.0
C393 C 0.55262 0.57794 0.04127 0.0
C394 C 0.52566 0.57064 0.60515 0.0
C395 C 0.50237 0.56292 0.86838 0.0
H396 H 0.50294 0.44935 0.47283 0.0
H397 H 0.45501 0.45138 0.23238 0.0
H398 H 0.51683 0.49911 0.24871 0.0
H399 H 0.47973 0.48441 0.16838 0.0
H400 H 0.53207 0.59771 0.79471 0.0
H401 H 0.58001 0.60537 0.03551 0.0
H402 H 0.52203 0.55339 0.03701 0.0
H403 H 0.55841 0.57223 0.10984 0.0
Tb404 Tb 0.02878 0.54441 0.54088 0.0
C405 C 0.01715 0.45294 0.68305 0.0
C406 C 0.97647 0.43693 0.6514 0.0
C407 C 1.01154 0.40989 0.63483 0.0
C408 C 0.99226 0.45678 0.67578 0.0
C409 C 0.02692 0.42912 0.6663 0.0
C410 C 0.98633 0.41381 0.62737 0.0
C411 C 0.06578 0.44421 0.72306 0.0
N412 N 0.03156 0.47206 0.71256 0.0
C413 C 0.05521 0.46734 0.7393 0.0
C414 C 0.05173 0.42513 0.68426 0.0
Tb415 Tb 1.01245 0.50983 0.73305 0.0
N416 N 0.98335 0.47914 0.70286 0.0
C417 C 0.95873 0.48113 0.72245 0.0
C418 C 0.95119 0.4404 0.65801 0.0
C419 C 0.94232 0.46239 0.69653 0.0
H420 H 0.06615 0.48071 0.77679 0.0
H421 H 0.92286 0.46477 0.70807 0.0
H422 H 0.97449 0.39849 0.60759 0.0
H423 H 0.08467 0.44099 0.74252 0.0
H424 H 0.9514 0.49743 0.75654 0.0
H425 H 0.09706 0.60532 0.6965 0.0
H426 H 0.93849 0.42569 0.6396 0.0
H427 H 0.98086 0.5626 0.40532 0.0
H428 H 0.08151 0.56714 0.62641 0.0
H429 H 0.95295 0.5976 0.3981 0.0
H430 H 0.01884 0.39169 0.61965 0.0
H431 H 0.07029 0.64185 0.71035 0.0
H432 H 0.02977 0.66136 0.67695 0.0
H433 H 0.05991 0.40717 0.67234 0.0
H434 H 0.98967 0.6588 0.59865 0.0
N435 N 0.04482 0.57999 0.60886 0.0
C436 C 0.06884 0.58203 0.63621 0.0
C437 C 0.06305 0.62472 0.68112 0.0
C438 C 0.03912 0.62323 0.64665 0.0
C439 C 0.07813 0.60413 0.67405 0.0
C440 C 0.03065 0.60049 0.60853 0.0
H441 H 0.9607 0.63506 0.4951 0.0
N442 N 1.00222 0.57755 0.51973 0.0
C443 C 0.96807 0.59811 0.44728 0.0
C444 C 1.00821 0.59902 0.56484 0.0
C445 C 0.98375 0.57792 0.45385 0.0
C446 C 0.97252 0.61919 0.50189 0.0
C447 C 0.99345 0.62028 0.55812 0.0
O448 O 0.03024 0.55624 0.40182 0.0
O449 O 0.02778 0.5067 0.59243 0.0
O450 O 0.05157 0.5194 0.74929 0.0
O451 O 0.06302 0.52851 0.59829 0.0
O452 O 0.015 0.51264 0.45964 0.0
O453 O 0.06263 0.54415 0.47009 0.0
O454 O 0.02643 0.52037 0.86612 0.0
O455 O 0.02272 0.54675 0.69055 0.0
O456 O 0.98956 0.53477 0.52142 0.0
O457 O 0.97785 0.52147 0.66695 0.0
O458 O 0.99086 0.54323 0.76299 0.0
O459 O 0.99923 0.49244 0.85292 0.0
C460 C 0.0188 0.49576 0.5198 0.0
C461 C 0.06568 0.58096 0.38798 0.0
C462 C 0.1029 0.60613 0.39944 0.0
C463 C 0.09126 0.58291 0.39253 0.0
C464 C 0.08832 0.62747 0.39953 0.0
C465 C 0.05161 0.60261 0.38447 0.0
C466 C 0.06291 0.62566 0.39073 0.0
C467 C 0.06873 0.52336 0.68607 0.0
C468 C 0.05396 0.5567 0.40157 0.0
C469 C 1.00091 0.64242 0.60221 0.0
C470 C 0.02378 0.64392 0.6463 0.0
C471 C 1.00601 0.55928 0.73157 0.0
C472 C 0.9945 0.5216 0.97525 0.0
C473 C 0.97097 0.52853 0.94627 0.0
C474 C 0.95581 0.54333 1.00305 0.0
C475 C 0.96477 0.55121 0.09129 0.0
C476 C 1.00308 0.52957 0.06316 0.0
C477 C 0.98819 0.54428 0.12099 0.0
C478 C 0.97251 0.52824 0.58131 0.0
C479 C 1.01036 0.50756 0.91013 0.0
H480 H 0.10195 0.56613 0.3917 0.0
H481 H 0.09648 0.64561 0.40647 0.0
H482 H 0.03183 0.60184 0.38026 0.0
H483 H 0.05186 0.64219 0.39042 0.0
H484 H 0.96469 0.52273 0.87777 0.0
H485 H 0.9537 0.5624 0.13817 0.0
H486 H 0.02128 0.52465 0.08652 0.0
H487 H 0.99484 0.5504 0.18904 0.0
H488 H 0.16219 1.00193 0.17063 0.0
H489 H 0.20794 0.05686 0.31151 0.0
H490 H 0.17709 0.06088 0.43707 0.0
H491 H 0.10367 0.03007 0.21911 0.0
H492 H 0.08909 1.00052 0.2339 0.0
H493 H 0.11543 1.00292 0.15979 0.0
H494 H 0.13532 0.96848 0.25917 0.0
H495 H 0.10908 0.96814 0.33534 0.0
H496 H 0.13922 0.97366 0.38326 0.0
H497 H 0.14013 0.05949 0.54799 0.0
H498 H 0.10075 0.05367 0.62976 0.0
H499 H 0.07788 1.00116 0.41348 0.0
C500 C 0.1658 1.01496 0.22741 0.0
C501 C 0.18785 0.02912 0.22977 0.0
C502 C 0.19163 0.0455 0.30738 0.0
C503 C 0.17403 0.04803 0.37922 0.0
C504 C 0.15249 0.03403 0.37373 0.0
C505 C 0.14838 0.01774 0.29974 0.0
C506 C 0.12363 1.00499 0.30976 0.0
C507 C 0.10697 1.00999 0.22563 0.0
C508 C 0.12703 0.97717 0.32263 0.0
C509 C 0.11396 0.01733 0.39896 0.0
C510 C 0.13112 0.03366 0.43585 0.0
C511 C 0.12662 0.04678 0.51921 0.0
C512 C 0.10412 0.04332 0.56549 0.0
C513 C 0.08596 0.02707 0.52842 0.0
C514 C 0.09116 1.0139 0.44371 0.0
H515 H 0.55144 0.18741 0.3085 0.0
H516 H 0.48333 0.18447 0.15194 0.0
H517 H 0.47134 0.14685 0.23585 0.0
H518 H 0.56251 0.12259 0.31032 0.0
H519 H 0.57487 0.12301 0.42725 0.0
H520 H 0.57757 0.14986 0.35654 0.0
H521 H 0.55625 0.17617 0.48593 0.0
H522 H 0.55348 0.14935 0.55685 0.0
H523 H 0.52661 0.16689 0.52811 0.0
H524 H 0.46812 0.10731 0.33376 0.0
H525 H 0.47273 0.07259 0.44216 0.0
H526 H 0.54258 0.10254 0.53524 0.0
C527 C 0.53395 0.17892 0.29172 0.0
C528 C 0.51838 0.189 0.22287 0.0
C529 C 0.49552 0.17735 0.20458 0.0
C530 C 0.48864 0.15583 0.25162 0.0
C531 C 0.50466 0.14619 0.31784 0.0
C532 C 0.52675 0.15761 0.33845 0.0
C533 C 0.54076 0.14381 0.41259 0.0
C534 C 0.56538 0.13426 0.37436 0.0
C535 C 0.54448 0.16003 0.5011 0.0
C536 C 0.52323 0.12272 0.43039 0.0
C537 C 0.50256 0.1242 0.3748 0.0
C538 C 0.48421 0.10619 0.37781 0.0
C539 C 0.48703 0.08641 0.43927 0.0
C540 C 0.50797 0.08476 0.49753 0.0
C541 C 0.52619 0.10332 0.49255 0.0
H542 H 0.38474 0.53763 0.14194 0.0
H543 H 0.34081 0.4857 0.29436 0.0
H544 H 0.37386 0.483 0.41372 0.0
H545 H 0.44181 0.50978 0.17842 0.0
H546 H 0.45916 0.53791 0.19323 0.0
H547 H 0.43182 0.53733 0.12236 0.0
H548 H 0.4123 0.57248 0.22092 0.0
H549 H 0.43985 0.57445 0.29032 0.0
H550 H 0.41067 0.57001 0.34617 0.0
H551 H 0.41489 0.48387 0.51142 0.0
H552 H 0.45592 0.49183 0.58237 0.0
H553 H 0.47092 0.54507 0.36952 0.0
C554 C 0.3819 0.52584 0.20091 0.0
C555 C 0.36001 0.51185 0.20827 0.0
C556 C 0.35719 0.49677 0.28714 0.0
C557 C 0.37602 0.49501 0.35504 0.0
C558 C 0.39759 0.5087 0.34437 0.0
C559 C 0.40029 0.52416 0.2697 0.0
C560 C 0.42498 0.53711 0.27329 0.0
C561 C 0.44037 0.53012 0.18673 0.0
C562 C 0.42175 0.56518 0.28328 0.0
C563 C 0.43594 0.52659 0.36138 0.0
C564 C 0.4201 0.51 0.40137 0.0
C565 C 0.42706 0.49727 0.48127 0.0
C566 C 0.45038 0.50201 0.52174 0.0
C567 C 0.46636 0.51981 0.48404 0.0
C568 C 0.45896 0.53183 0.40181 0.0
H569 H 0.98479 0.37786 0.19594 0.0
H570 H 0.05801 0.34969 0.24131 0.0
H571 H 0.06632 0.38461 0.35212 0.0
H572 H 1.00047 0.44166 0.19852 0.0
H573 H 0.97292 0.45141 0.25773 0.0
H574 H 0.97279 0.42369 0.18613 0.0
H575 H 0.95666 0.39973 0.32591 0.0
H576 H 0.95775 0.42676 0.40153 0.0
H577 H 0.97407 0.3993 0.4328 0.0
H578 H 0.06769 0.42635 0.44824 0.0
H579 H 0.06069 0.46721 0.52575 0.0
H580 H 0.98611 0.46673 0.42291 0.0
C581 C 1.00262 0.37887 0.22918 0.0
C582 C 0.02078 0.36073 0.20855 0.0
C583 C 0.04365 0.36295 0.25561 0.0
C584 C 0.04858 0.38294 0.31855 0.0
C585 C 0.03041 0.40069 0.33549 0.0
C586 C 1.00776 0.39859 0.29257 0.0
C587 C 0.99131 0.42009 0.32129 0.0
C588 C 0.98394 0.43509 0.23584 0.0
C589 C 0.96859 0.41094 0.37352 0.0
C590 C 1.00821 0.43489 0.38627 0.0
C591 C 0.03079 0.42356 0.39343 0.0
C592 C 0.04984 0.4349 0.44454 0.0
C593 C 0.04568 0.45809 0.48924 0.0
C594 C 0.02247 0.46969 0.48486 0.0
C595 C 1.00372 0.45788 0.43132 0.0
H596 H 0.86404 0.96979 0.07085 0.0
H597 H 0.8413 0.04604 0.10532 0.0
H598 H 0.87474 0.05863 1.00087 0.0
H599 H 0.92894 0.9818 0.07062 0.0
H600 H 0.93607 0.9583 0.98379 0.0
H601 H 0.90985 0.95478 0.05853 0.0
H602 H 0.88169 0.9495 0.91392 0.0
H603 H 0.90778 0.95285 0.83833 0.0
H604 H 0.88164 0.97277 0.82617 0.0
H605 H 0.91251 0.06354 0.90095 0.0
H606 H 0.95003 0.0602 0.80746 0.0
H607 H 0.94868 0.98094 0.8287 0.0
C608 C 0.86604 0.98918 0.05677 0.0
C609 C 0.84964 1.00687 0.09724 0.0
C610 C 0.85308 0.03197 0.07506 0.0
C611 C 0.87224 0.03935 0.01596 0.0
C612 C 0.88802 0.02151 0.97817 0.0
C613 C 0.88507 0.9969 0.9972 0.0
C614 C 0.90482 0.98151 0.94786 0.0
C615 C 0.92087 0.96832 0.01946 0.0
C616 C 0.89329 0.96306 0.87738 0.0
C617 C 0.91936 1.00131 0.89811 0.0
C618 C 0.90934 0.02426 0.91742 0.0
C619 C 0.9201 0.04559 0.88405 0.0
C620 C 0.94149 0.04352 0.82994 0.0
C621 C 0.95194 0.02038 0.80652 0.0
C622 C 0.94068 0.99891 0.84195 0.0
H623 H 0.49861 0.86095 0.03877 0.0
H624 H 0.56672 0.86765 0.19347 0.0
H625 H 0.57692 0.90547 0.10703 0.0
H626 H 0.52399 0.88123 0.81788 0.0
H627 H 0.49678 0.89733 0.7834 0.0
H628 H 0.49436 0.87077 0.85594 0.0
H629 H 0.47089 0.89577 0.9823 0.0
H630 H 0.4722 0.92245 0.91025 0.0
H631 H 0.48381 0.92417 0.02827 0.0
H632 H 0.57775 0.94506 0.00922 0.0
H633 H 0.57096 0.97957 0.90164 0.0
H634 H 0.5031 0.94543 0.80744 0.0
C635 C 0.5158 0.87025 0.0538 0.0
C636 C 0.53189 0.86132 0.12309 0.0
C637 C 0.55424 0.87399 0.14028 0.0
C638 C 0.56007 0.89559 0.09182 0.0
C639 C 0.54356 0.90414 0.02507 0.0
C640 C 0.52205 0.89155 1.0051 0.0
C641 C 0.50755 0.90415 0.92926 0.0
C642 C 0.50554 0.88737 0.84146 0.0
C643 C 0.48211 0.9121 0.96468 0.0
C644 C 0.52375 0.92628 0.91162 0.0
C645 C 0.54447 0.92606 0.96738 0.0
C646 C 0.56165 0.94519 0.96487 0.0
C647 C 0.55759 0.96484 0.90388 0.0
C648 C 0.53652 0.96532 0.84577 0.0
C649 C 0.51955 0.94559 0.84995 0.0
H650 H 0.657 0.50362 0.1275 0.0
H651 H 0.69754 0.56016 0.98479 0.0
H652 H 0.66408 0.56257 0.86744 0.0
H653 H 0.63054 0.47324 0.92034 0.0
H654 H 0.60185 0.46722 0.97757 0.0
H655 H 0.62978 0.46898 0.04488 0.0
H656 H 0.61045 0.50286 0.1524 0.0
H657 H 0.58257 0.50119 0.08501 0.0
H658 H 0.59824 0.53024 0.10105 0.0
H659 H 0.6229 0.56098 0.77154 0.0
H660 H 0.58128 0.55347 0.70564 0.0
H661 H 0.56882 0.49768 0.91126 0.0
C662 C 0.65906 0.51646 0.07134 0.0
C663 C 0.68019 0.53175 0.06636 0.0
C664 C 0.68189 0.548 0.99036 0.0
C665 C 0.66278 0.54963 0.92355 0.0
C666 C 0.64194 0.53477 0.93252 0.0
C667 C 0.64022 0.5183 1.00436 0.0
C668 C 0.61585 0.50471 1.00089 0.0
C669 C 0.61975 0.47689 0.98498 0.0
C670 C 0.60091 0.51008 0.09012 0.0
C671 C 0.60391 0.5161 0.91637 0.0
C672 C 0.61909 0.53349 0.8775 0.0
C673 C 0.61121 0.54705 0.80094 0.0
C674 C 0.58753 0.54258 0.76333 0.0
C675 C 0.57199 0.52438 0.80098 0.0
C676 C 0.58042 0.5113 0.87922 0.0
H677 H 0.96764 0.68443 0.01125 0.0
H678 H 0.04342 0.69305 0.09745 0.0
H679 H 0.0541 0.65519 1.00579 0.0
H680 H 0.96471 0.61824 0.01824 0.0
H681 H 0.94523 0.61546 0.91652 0.0
H682 H 0.94435 0.64302 0.98905 0.0
H683 H 0.95274 0.66816 0.84218 0.0
H684 H 0.95554 0.64078 0.76927 0.0
H685 H 0.98031 0.6628 0.77622 0.0
H686 H 0.05539 0.613 0.91546 0.0
H687 H 0.04844 0.57499 0.81955 0.0
H688 H 0.97246 0.59529 0.78234 0.0
C689 C 0.98657 0.67851 0.01051 0.0
C690 C 1.00468 0.69202 0.0625 0.0
C691 C 0.0292 0.68345 0.05815 0.0
C692 C 0.03538 0.66173 1.00662 0.0
C693 C 0.01697 0.64866 0.95803 0.0
C694 C 0.99309 0.65704 0.95846 0.0
C695 C 0.97672 0.63993 0.89941 0.0
C696 C 0.95656 0.62849 0.95943 0.0
C697 C 0.96567 0.65372 0.81682 0.0
C698 C 0.99495 0.62044 0.86606 0.0
C699 C 0.01805 0.6256 0.90167 0.0
C700 C 0.03749 0.60931 0.88551 0.0
C701 C 0.03343 0.58774 0.83016 0.0
C702 C 1.01023 0.58261 0.78901 0.0
C703 C 0.99066 0.59906 0.80959 0.0
H704 H 0.04523 0.19606 0.27869 0.0
H705 H 0.99476 0.25624 0.3348 0.0
H706 H 0.98184 0.23668 0.47919 0.0
H707 H 1.00336 0.1526 0.32328 0.0
H708 H 0.02423 0.13057 0.37166 0.0
H709 H 0.03521 0.15266 0.29049 0.0
H710 H 0.06761 0.16651 0.40865 0.0
H711 H 0.0566 0.14606 0.49649 0.0
H712 H 0.059 0.17887 0.52117 0.0
H713 H 0.96528 0.20593 0.58441 0.0
H714 H 0.94798 0.16779 0.64355 0.0
H715 H 1.01092 0.12744 0.53469 0.0
C716 C 0.03209 0.20555 0.32309 0.0
C717 C 0.02119 0.22776 0.29542 0.0
C718 C 1.00391 0.23953 0.35517 0.0
C719 C 0.9963 0.22844 0.43745 0.0
C720 C 1.00611 0.20562 0.45911 0.0
C721 C 0.02381 0.19439 0.4039 0.0
C722 C 0.02805 0.16806 0.43146 0.0
C723 C 0.02236 0.14994 0.34939 0.0
C724 C 0.05436 0.16465 0.46687 0.0
C725 C 1.00927 0.16592 0.50861 0.0
C726 C 0.99685 0.18779 0.52366 0.0
C727 C 0.97542 0.18891 0.57632 0.0
C728 C 0.96572 0.16696 0.61023 0.0
C729 C 0.97764 0.14416 0.59257 0.0
C730 C 1.00068 0.14422 0.5472 0.0
H731 H 0.34046 0.03637 0.34223 0.0
H732 H 0.29494 0.9717 0.29981 0.0
H733 H 0.3113 0.95422 0.44455 0.0
H734 H 0.39086 1.00992 0.39947 0.0
H735 H 0.40133 0.03094 0.49071 0.0
H736 H 0.38057 0.04149 0.40357 0.0
H737 H 0.35036 0.05558 0.53389 0.0
H738 H 0.37119 0.04458 0.62153 0.0
H739 H 0.33997 0.0338 0.61835 0.0
H740 H 0.34074 0.93868 0.556 0.0
H741 H 0.38068 0.92669 0.61968 0.0
H742 H 0.40517 1.0025 0.61102 0.0
C743 C 0.33339 0.01897 0.36604 0.0
C744 C 0.31658 1.00528 0.3109 0.0
C745 C 0.30772 0.98245 0.34214 0.0
C746 C 0.31674 0.97253 0.42465 0.0
C747 C 0.33409 0.986 0.47628 0.0
C748 C 0.34193 1.00906 0.44937 0.0
C749 C 0.36343 0.01796 0.50815 0.0
C750 C 0.38532 0.02546 0.44679 0.0
C751 C 0.35576 0.03924 0.5744 0.0
C752 C 0.36862 0.99494 0.56238 0.0
C753 C 0.35085 0.97708 0.54624 0.0
C754 C 0.35429 0.95272 0.57235 0.0
C755 C 0.37709 0.94602 0.60879 0.0
C756 C 0.39603 0.96368 0.61856 0.0
C757 C 0.39091 0.9887 0.60321 0.0
H758 H 0.49385 0.31359 0.31777 0.0
H759 H 0.42593 0.31693 0.16406 0.0
H760 H 0.41193 0.35089 0.26703 0.0
H761 H 0.46776 0.34705 0.55682 0.0
H762 H 0.49676 0.36268 0.56816 0.0
H763 H 0.49567 0.331 0.52747 0.0
H764 H 0.51993 0.34243 0.38019 0.0
H765 H 0.52128 0.3737 0.41986 0.0
H766 H 0.50841 0.36631 0.30619 0.0
H767 H 0.41263 0.39241 0.33163 0.0
H768 H 0.42824 0.43483 0.34013 0.0
H769 H 0.49787 0.40808 0.44174 0.0
C770 C 0.47528 0.32034 0.31144 0.0
C771 C 0.46083 0.31269 0.23441 0.0
C772 C 0.43702 0.32233 0.22406 0.0
C773 C 0.42899 0.34172 0.28254 0.0
C774 C 0.44504 0.3513 0.35063 0.0
C775 C 0.46761 0.34042 0.36718 0.0
C776 C 0.4842 0.35763 0.42369 0.0
C777 C 0.4862 0.34908 0.52502 0.0
C778 C 0.50989 0.36019 0.37957 0.0
C779 C 0.46949 0.38121 0.41955 0.0
C780 C 0.44615 0.37672 0.38475 0.0
C781 C 0.43065 0.396 0.36065 0.0
C782 C 0.43983 0.42012 0.36437 0.0
C783 C 0.46461 0.42472 0.3887 0.0
C784 C 0.47882 0.40524 0.42363 0.0
H785 H 0.22111 0.53591 0.32738 0.0
H786 H 0.24323 0.59609 0.1548 0.0
H787 H 0.21576 0.62409 0.24231 0.0
H788 H 0.16521 0.54283 0.32134 0.0
H789 H 0.15588 0.53707 0.43962 0.0
H790 H 0.18417 0.52477 0.39712 0.0
H791 H 0.20756 0.54624 0.53279 0.0
H792 H 0.17937 0.55916 0.5774 0.0
H793 H 0.20482 0.57904 0.5522 0.0
H794 H 0.17636 0.63911 0.29465 0.0
H795 H 0.13217 0.64138 0.3212 0.0
H796 H 0.13555 0.5742 0.47905 0.0
C797 C 0.2214 0.55543 0.31367 0.0
C798 C 0.23442 0.56418 0.23645 0.0
C799 C 0.23378 0.58941 0.21567 0.0
C800 C 0.21816 0.60539 0.26505 0.0
C801 C 0.20371 0.59584 0.33593 0.0
C802 C 0.20591 0.57159 0.36315 0.0
C803 C 0.18524 0.56466 0.42819 0.0
C804 C 0.17185 0.54098 0.39436 0.0
C805 C 0.19482 0.56213 0.52858 0.0
C806 C 0.16919 0.58723 0.42072 0.0
C807 C 0.18059 0.6054 0.3704 0.0
C808 C 0.16763 0.62561 0.33797 0.0
C809 C 0.14234 0.62674 0.35347 0.0
C810 C 0.13015 0.60783 0.40164 0.0
C811 C 0.14418 0.58876 0.44063 0.0
H812 H 1.0109 0.8436 0.97436 0.0
H813 H 0.07723 0.80341 0.03398 0.0
H814 H 0.09759 0.82234 0.89896 0.0
H815 H 0.02043 0.8441 0.70421 0.0
H816 H 1.00758 0.87456 0.70006 0.0
H817 H 0.99618 0.85296 0.78332 0.0
H818 H 1.00501 0.88441 0.91873 0.0
H819 H 0.01596 0.90601 0.83594 0.0
H820 H 0.03541 0.89719 0.93151 0.0
H821 H 0.11333 0.85304 0.78948 0.0
H822 H 0.12298 0.89289 0.71897 0.0
H823 H 0.04584 0.9113 0.71739 0.0
C824 C 0.02939 0.83816 0.95603 0.0
C825 C 0.04263 0.82212 0.01303 0.0
C826 C 0.06689 0.81555 0.98972 0.0
C827 C 0.07846 0.82607 0.91297 0.0
C828 C 0.06523 0.84259 0.8593 0.0
C829 C 0.04099 0.84822 0.87875 0.0
C830 C 0.03191 0.86901 0.81936 0.0
C831 C 1.0129 0.85958 0.74749 0.0
C832 C 0.02151 0.8904 0.88004 0.0
C833 C 0.05551 0.87606 0.77167 0.0
C834 C 0.07434 0.86006 0.79272 0.0
C835 C 0.09863 0.86521 0.76967 0.0
C836 C 0.10398 0.88787 0.72932 0.0
C837 C 0.08512 0.90507 0.71348 0.0
C838 C 0.06052 0.89831 0.72891 0.0
H839 H 0.72052 0.0759 0.07506 0.0
H840 H 0.72114 1.00182 0.95768 0.0
H841 H 0.70182 1.01665 0.81291 0.0
H842 H 0.66543 0.09049 0.01737 0.0
H843 H 0.67036 0.12225 0.98828 0.0
H844 H 0.6911 0.10751 0.06582 0.0
H845 H 0.72738 0.11857 0.95793 0.0
H846 H 0.70647 0.13327 0.87903 0.0
H847 H 0.7266 0.1093 0.83616 0.0
H848 H 0.67196 0.03589 0.71065 0.0
H849 H 0.63447 0.05748 0.66333 0.0
H850 H 0.65516 0.1207 0.83467 0.0
C851 C 0.71746 0.06318 0.01672 0.0
C852 C 0.72218 0.03794 0.02587 0.0
C853 C 0.71771 0.02133 0.95044 0.0
C854 C 0.70697 0.02966 0.86802 0.0
C855 C 0.70144 0.05468 0.86203 0.0
C856 C 0.70701 0.07132 0.93393 0.0
C857 C 0.69548 0.09616 0.9181 0.0
C858 C 0.67964 0.10454 1.00227 0.0
C859 C 0.71516 0.11546 0.89649 0.0
C860 C 0.68015 0.0901 0.83235 0.0
C861 C 0.68457 0.06634 0.79875 0.0
C862 C 0.66911 0.05483 0.73318 0.0
C863 C 0.64788 0.0672 0.70617 0.0
C864 C 0.64257 0.09089 0.74356 0.0
C865 C 0.65961 0.10303 0.80237 0.0
H866 H 0.6058 0.71438 0.11933 0.0
H867 H 0.54442 0.74852 0.98231 0.0
H868 H 0.54959 0.72076 0.84685 0.0
H869 H 0.6372 0.68854 0.8747 0.0
H870 H 0.64617 0.66147 0.93662 0.0
H871 H 0.64751 0.69138 0.99422 0.0
H872 H 0.62062 0.67502 0.12741 0.0
H873 H 0.61899 0.64552 0.07073 0.0
H874 H 0.59107 0.66167 0.0998 0.0
H875 H 0.54647 0.68072 0.77671 0.0
H876 H 0.53664 0.63742 0.78443 0.0
H877 H 0.60367 0.62508 0.94043 0.0
C878 C 0.59456 0.71677 0.05781 0.0
C879 C 0.57467 0.73329 0.0613 0.0
C880 C 0.55996 0.73614 0.98095 0.0
C881 C 0.56284 0.72035 0.90319 0.0
C882 C 0.58067 0.70197 0.90625 0.0
C883 C 0.59711 0.70075 0.98017 0.0
C884 C 0.6105 0.67628 0.97832 0.0
C885 C 0.63691 0.67963 0.94386 0.0
C886 C 0.61018 0.66392 0.07463 0.0
C887 C 0.59535 0.66228 0.90559 0.0
C888 C 0.57933 0.67784 0.86047 0.0
C889 C 0.55943 0.66852 0.80928 0.0
C890 C 0.55394 0.64341 0.81412 0.0
C891 C 0.56865 0.62761 0.86835 0.0
C892 C 0.59122 0.63683 0.90331 0.0
H893 H 0.82954 0.60032 0.09152 0.0
H894 H 0.802 0.53625 0.94118 0.0
H895 H 0.83996 0.53377 0.85077 0.0
H896 H 0.88047 0.61952 0.89612 0.0
H897 H 0.90035 0.62798 0.99243 0.0
H898 H 0.86797 0.63414 0.99982 0.0
H899 H 0.8672 0.61051 0.15516 0.0
H900 H 0.89902 0.60338 0.14488 0.0
H901 H 0.87709 0.5788 0.1552 0.0
H902 H 0.88298 0.52473 0.84303 0.0
H903 H 0.92485 0.51558 0.88944 0.0
H904 H 0.92874 0.58513 0.0452 0.0
C905 C 0.83091 0.58725 0.03347 0.0
C906 C 0.81333 0.5682 0.02423 0.0
C907 C 0.81531 0.55099 0.94931 0.0
C908 C 0.83713 0.54928 0.89839 0.0
C909 C 0.85635 0.56529 0.92235 0.0
C910 C 0.85316 0.5848 0.98555 0.0
C911 C 0.87775 0.59547 0.01674 0.0
C912 C 0.88188 0.62077 0.97363 0.0
C913 C 0.88036 0.59707 0.12424 0.0
C914 C 0.89492 0.5765 0.97408 0.0
C915 C 0.88235 0.55996 0.9165 0.0
C916 C 0.89327 0.53829 0.88365 0.0
C917 C 0.91733 0.53323 0.91084 0.0
C918 C 0.93068 0.54987 0.96988 0.0
C919 C 0.91931 0.57206 0.99963 0.0
H920 H 0.05205 0.20248 0.89699 0.0
H921 H 0.97948 0.19925 0.01761 0.0
H922 H 0.97308 0.15809 0.94439 0.0
H923 H 0.0347 0.17124 0.67351 0.0
H924 H 0.0632 0.15445 0.66254 0.0
H925 H 0.0625 0.18416 0.72134 0.0
H926 H 0.08161 0.16605 0.86612 0.0
H927 H 0.08279 0.13609 0.80996 0.0
H928 H 0.06743 0.14027 0.921 0.0
H929 H 0.97717 0.1142 0.88026 0.0
H930 H 0.98683 0.07534 0.7948 0.0
H931 H 0.05345 0.10759 0.69067 0.0
C932 C 0.03444 0.19356 0.90468 0.0
C933 C 0.01603 0.20465 0.96199 0.0
C934 C 0.99364 0.19164 0.9726 0.0
C935 C 0.98997 0.16798 0.93223 0.0
C936 C 1.00869 0.15722 0.87928 0.0
C937 C 0.03017 0.16989 0.86255 0.0
C938 C 0.04707 0.15403 0.80113 0.0
C939 C 0.05215 0.16672 0.70894 0.0
C940 C 0.07114 0.14874 0.85266 0.0
C941 C 0.03174 0.13051 0.78587 0.0
C942 C 1.01002 0.1326 0.83471 0.0
C943 C 0.99383 0.11271 0.8397 0.0
C944 C 0.99942 0.09053 0.79116 0.0
C945 C 0.02056 0.08815 0.73503 0.0
C946 C 0.03694 0.1087 0.73225 0.0
H947 H 0.36113 0.99296 0.03677 0.0
H948 H 0.32744 0.05683 0.91423 0.0
H949 H 0.36386 0.06151 0.81215 0.0
H950 H 0.41857 1.01589 0.05557 0.0
H951 H 0.43615 0.98884 0.0237 0.0
H952 H 0.40635 0.98578 0.07592 0.0
H953 H 0.38887 0.95993 0.94137 0.0
H954 H 0.41865 0.95976 0.88728 0.0
H955 H 0.39221 0.96987 0.823 0.0
H956 H 0.40662 0.05966 0.72597 0.0
H957 H 0.44907 0.05181 0.67032 0.0
H958 H 0.45522 0.9913 0.85985 0.0
C959 C 0.36116 1.00793 0.98822 0.0
C960 C 0.34109 0.02466 0.98501 0.0
C961 C 0.34219 0.04361 0.9185 0.0
C962 C 0.36301 0.04648 0.86034 0.0
C963 C 0.38277 0.03016 0.86828 0.0
C964 C 0.38173 1.01105 0.93018 0.0
C965 C 0.40552 0.99647 0.92923 0.0
C966 C 0.4174 0.99676 0.0268 0.0
C967 C 0.40105 0.96993 0.89306 0.0
C968 C 0.42067 1.01082 0.85996 0.0
C969 C 0.40714 0.02988 0.82357 0.0
C970 C 0.41726 0.04496 0.75547 0.0
C971 C 0.4416 0.04061 0.72497 0.0
C972 C 0.4561 0.02183 0.76422 0.0
C973 C 0.44504 1.00645 0.831 0.0
H974 H 0.49248 0.36465 0.04498 0.0
H975 H 0.51441 0.31199 0.82801 0.0
H976 H 0.52251 0.34673 0.72256 0.0
H977 H 0.45856 0.40257 0.89042 0.0
H978 H 0.46583 0.4306 0.95419 0.0
H979 H 0.46425 0.40198 0.01454 0.0
H980 H 0.50835 0.40836 0.07717 0.0
H981 H 0.51007 0.43728 0.01867 0.0
H982 H 0.5329 0.41393 0.99625 0.0
H983 H 0.52889 0.38958 0.6412 0.0
H984 H 0.52941 0.43306 0.59245 0.0
H985 H 0.49855 0.45527 0.85927 0.0
C986 C 0.49853 0.35997 0.9749 0.0
C987 C 0.5023 0.33504 0.94545 0.0
C988 C 0.51137 0.33065 0.8536 0.0
C989 C 0.51591 0.35038 0.79274 0.0
C990 C 0.51117 0.37457 0.82394 0.0
C991 C 0.50247 0.37922 0.91307 0.0
C992 C 0.4973 0.4064 0.92971 0.0
C993 C 0.46986 0.41063 0.94831 0.0
C994 C 0.51311 0.41711 0.01019 0.0
C995 C 0.50485 0.41669 0.8366 0.0
C996 C 0.51306 0.39824 0.77632 0.0
C997 C 0.52196 0.40391 0.68778 0.0
C998 C 0.5222 0.4288 0.66052 0.0
C999 C 0.5132 0.44793 0.72054 0.0
C1000 C 0.5046 0.44143 0.80981 0.0
H1001 H 0.18023 0.5144 0.05309 0.0
H1002 H 0.2312 0.52362 0.82477 0.0
H1003 H 0.19628 0.52276 0.71295 0.0
H1004 H 0.13561 0.47486 0.92932 0.0
H1005 H 0.10989 0.48942 0.98657 0.0
H1006 H 0.13906 0.48802 0.04549 0.0
H1007 H 0.13862 0.53544 0.06959 0.0
H1008 H 0.10957 0.537 0.01015 0.0
H1009 H 0.13521 0.55474 0.96967 0.0
H1010 H 0.15389 0.52391 0.6262 0.0
H1011 H 0.11045 0.52602 0.57638 0.0
H1012 H 0.08777 0.51781 0.86414 0.0
C1013 C 0.18425 0.51596 0.97944 0.0
C1014 C 0.20883 0.51909 0.94854 0.0
C1015 C 0.21283 0.52083 0.85097 0.0
C1016 C 0.19296 0.5206 0.78681 0.0
C1017 C 0.16897 0.5185 0.82057 0.0
C1018 C 0.16469 0.51601 0.91495 0.0
C1019 C 0.13733 0.51522 0.9351 0.0
C1020 C 0.13005 0.4904 0.97657 0.0
C1021 C 0.12975 0.53689 0.99996 0.0
C1022 C 0.12668 0.5179 0.83764 0.0
C1023 C 0.14513 0.51963 0.77208 0.0
C1024 C 0.13947 0.52255 0.67752 0.0
C1025 C 0.1146 0.52371 0.64968 0.0
C1026 C 0.09532 0.52196 0.71571 0.0
C1027 C 0.10178 0.51904 0.81108 0.0
H1028 H 0.04797 0.867 0.29957 0.0
H1029 H 0.98296 0.82951 0.39845 0.0
H1030 H 0.97562 0.86419 0.50978 0.0
H1031 H 0.06608 0.89593 0.52334 0.0
H1032 H 0.07591 0.92427 0.4718 0.0
H1033 H 0.07789 0.8956 0.40612 0.0
H1034 H 0.05339 0.91422 0.27543 0.0
H1035 H 0.04848 0.94302 0.33782 0.0
H1036 H 0.0227 0.9248 0.29616 0.0
H1037 H 0.97494 0.90401 0.61083 0.0
H1038 H 0.98031 0.94482 0.68852 0.0
H1039 H 0.04296 0.95928 0.51304 0.0
C1040 C 0.03203 0.86584 0.34395 0.0
C1041 C 0.01597 0.84493 0.33794 0.0
C1042 C 0.99586 0.84467 0.40071 0.0
C1043 C 0.9914 0.86458 0.46424 0.0
C1044 C 1.00709 0.88505 0.46537 0.0
C1045 C 0.02714 0.88571 0.40713 0.0
C1046 C 0.04068 0.91032 0.41935 0.0
C1047 C 0.06669 0.9063 0.45745 0.0
C1048 C 0.04137 0.92397 0.32674 0.0
C1049 C 0.02474 0.9238 0.49173 0.0
C1050 C 1.00578 0.90855 0.51876 0.0
C1051 C 0.98949 0.9161 0.58872 0.0
C1052 C 0.99262 0.93948 0.63236 0.0
C1053 C 1.01131 0.95594 0.60457 0.0
C1054 C 0.02774 0.94776 0.53318 0.0
H1055 H 0.67978 0.05354 0.30575 0.0
H1056 H 0.7111 0.98764 0.42289 0.0
H1057 H 0.6749 0.98424 0.52629 0.0
H1058 H 0.64938 0.07767 0.51319 0.0
H1059 H 0.62248 0.08759 0.4513 0.0
H1060 H 0.65182 0.08688 0.39384 0.0
H1061 H 0.63425 0.06039 0.26311 0.0
H1062 H 0.60446 0.05816 0.31611 0.0
H1063 H 0.62155 0.03065 0.28611 0.0
H1064 H 0.63314 0.98795 0.61638 0.0
H1065 H 0.59121 0.9971 0.67486 0.0
H1066 H 0.58573 0.05733 0.48369 0.0
C1067 C 0.67931 0.03826 0.3528 0.0
C1068 C 0.69873 0.02069 0.35423 0.0
C1069 C 0.69697 1.00156 0.4199 0.0
C1070 C 0.67623 0.99938 0.47875 0.0
C1071 C 0.65706 1.01639 0.47182 0.0
C1072 C 0.6586 0.03555 0.4104 0.0
C1073 C 0.63504 0.05056 0.41075 0.0
C1074 C 0.63996 0.07724 0.44434 0.0
C1075 C 0.62306 0.04991 0.31334 0.0
C1076 C 0.61969 0.03675 0.48116 0.0
C1077 C 0.63282 0.01735 0.51716 0.0
C1078 C 0.62269 1.00279 0.58679 0.0
C1079 C 0.59867 1.00791 0.61906 0.0
C1080 C 0.58453 0.02705 0.58048 0.0
C1081 C 0.59561 0.04191 0.51202 0.0
H1082 H 0.57806 0.69206 0.35803 0.0
H1083 H 0.50714 0.72567 0.41044 0.0
H1084 H 0.4953 0.6899 0.50348 0.0
H1085 H 0.55677 0.63119 0.31955 0.0
H1086 H 0.58313 0.61774 0.37491 0.0
H1087 H 0.58569 0.64735 0.32285 0.0
H1088 H 0.6023 0.66395 0.48404 0.0
H1089 H 0.5979 0.63414 0.53435 0.0
H1090 H 0.58357 0.66094 0.58675 0.0
H1091 H 0.48981 0.64874 0.58136 0.0
H1092 H 0.49037 0.60595 0.63278 0.0
H1093 H 0.5638 0.59695 0.52144 0.0
C1094 C 0.56006 0.69214 0.38954 0.0
C1095 C 0.54362 0.71212 0.37599 0.0
C1096 C 0.52041 0.71117 0.4203 0.0
C1097 C 0.5134 0.6907 0.47302 0.0
C1098 C 0.52973 0.67107 0.48171 0.0
C1099 C 0.55267 0.6717 0.44165 0.0
C1100 C 0.5662 0.64756 0.45667 0.0
C1101 C 0.57332 0.63524 0.36283 0.0
C1102 C 0.58884 0.65192 0.51916 0.0
C1103 C 0.54683 0.63271 0.50729 0.0
C1104 C 0.52619 0.64694 0.52312 0.0
C1105 C 0.50586 0.63749 0.56884 0.0
C1106 C 0.50636 0.6129 0.59758 0.0
C1107 C 0.52686 0.59742 0.57949 0.0
C1108 C 0.54757 0.60785 0.53493 0.0
H1109 H 0.85867 0.52382 0.22329 0.0
H1110 H 0.81047 0.54204 0.45517 0.0
H1111 H 0.84586 0.53902 0.56399 0.0
H1112 H 0.90053 0.48253 0.34434 0.0
H1113 H 0.92699 0.49398 0.28392 0.0
H1114 H 0.89738 0.49411 0.22792 0.0
H1115 H 0.90224 0.5406 0.20068 0.0
H1116 H 0.93138 0.5411 0.25989 0.0
H1117 H 0.90727 0.56142 0.29905 0.0
H1118 H 0.88841 0.53683 0.6467 0.0
H1119 H 0.93212 0.53564 0.69293 0.0
H1120 H 0.95254 0.5224 0.40367 0.0
C1121 C 0.85529 0.52702 0.29709 0.0
C1122 C 0.83141 0.53335 0.32992 0.0
C1123 C 0.82824 0.53689 0.42761 0.0
C1124 C 0.84841 0.53544 0.48995 0.0
C1125 C 0.87182 0.53046 0.45406 0.0
C1126 C 0.87522 0.5262 0.35953 0.0
C1127 C 0.90226 0.52279 0.33671 0.0
C1128 C 0.90706 0.4968 0.29582 0.0
C1129 C 0.91128 0.54268 0.27012 0.0
C1130 C 0.91379 0.52608 0.43295 0.0
C1131 C 0.89595 0.53014 0.50013 0.0
C1132 C 0.90235 0.53358 0.59421 0.0
C1133 C 0.92734 0.53281 0.61996 0.0
C1134 C 0.94599 0.52893 0.55224 0.0
C1135 C 0.9389 0.5256 0.45735 0.0
loop_
_geom_bond_atom_site_label_1
_geom_bond_atom_site_label_2
_geom_bond_distance
_geom_bond_site_symmetry_2
_ccdc_geom_bond_type
H0 C1 0.949 . S
C1 H0 0.949 . S
C1 C2 1.395 . S
C1 C3 1.391 . S
C2 C1 1.395 . S
C2 C5 1.390 . S
C3 C1 1.391 . S
C3 C7 1.387 . S
C3 C8 1.491 . S
H4 C5 0.950 . S
C5 C2 1.390 . S
C5 H4 0.950 . S
C5 C6 1.378 . S
C6 C5 1.378 . S
C6 C7 1.409 . S
C7 C3 1.387 . S
C7 C6 1.409 . S
C7 H9 0.951 . S
C8 C3 1.491 . S
C8 C10 1.382 . S
C8 C12 1.404 . S
H9 C7 0.951 . S
C10 C8 1.382 . S
C10 C11 1.390 . S
C10 H15 0.949 . S
C11 C10 1.390 . S
C11 C16 1.399 . S
C12 C8 1.404 . S
C12 H13 0.950 . S
C12 C14 1.375 . S
H13 C12 0.950 . S
C14 C12 1.375 . S
C14 C16 1.382 . S
C14 H18 0.950 . S
H15 C10 0.949 . S
C16 C11 1.399 . S
C16 C14 1.382 . S
C16 H17 0.952 . S
H17 C16 0.952 . S
H18 C14 0.950 . S
H19 C20 0.949 . S
C20 H19 0.949 . S
C20 C21 1.395 . S
C20 C22 1.391 . S
C21 C20 1.395 . S
C21 C24 1.390 . S
C22 C20 1.391 . S
C22 C26 1.387 . S
C22 C27 1.491 . S
H23 C24 0.950 . S
C24 C21 1.390 . S
C24 H23 0.950 . S
C24 C25 1.378 . S
C25 C24 1.378 . S
C25 C26 1.409 . S
C26 C22 1.387 . S
C26 C25 1.409 . S
C26 H28 0.951 . S
C27 C22 1.491 . S
C27 C29 1.382 . S
C27 C31 1.404 . S
H28 C26 0.951 . S
C29 C27 1.382 . S
C29 C30 1.390 . S
C29 H34 0.949 . S
C30 C29 1.390 . S
C30 C35 1.399 . S
C31 C27 1.404 . S
C31 H32 0.950 . S
C31 C33 1.375 . S
H32 C31 0.950 . S
C33 C31 1.375 . S
C33 C35 1.382 . S
C33 H37 0.950 . S
H34 C29 0.949 . S
C35 C30 1.399 . S
C35 C33 1.382 . S
C35 H36 0.952 . S
H36 C35 0.952 . S
H37 C33 0.950 . S
H38 C39 0.949 . S
C39 H38 0.949 . S
C39 C40 1.395 . S
C39 C41 1.391 . S
C40 C39 1.395 . S
C40 C43 1.390 . S
C41 C39 1.391 . S
C41 C45 1.387 . S
C41 C46 1.491 . S
H42 C43 0.950 . S
C43 C40 1.390 . S
C43 H42 0.950 . S
C43 C44 1.378 . S
C44 C43 1.378 . S
C44 C45 1.409 . S
C45 C41 1.387 . S
C45 C44 1.409 . S
C45 H47 0.951 . S
C46 C41 1.491 . S
C46 C48 1.382 . S
C46 C50 1.404 . S
H47 C45 0.951 . S
C48 C46 1.382 . S
C48 C49 1.390 . S
C48 H53 0.949 . S
C49 C48 1.390 . S
C49 C54 1.399 . S
C50 C46 1.404 . S
C50 H51 0.950 . S
C50 C52 1.375 . S
H51 C50 0.950 . S
C52 C50 1.375 . S
C52 C54 1.382 . S
C52 H56 0.950 . S
H53 C48 0.949 . S
C54 C49 1.399 . S
C54 C52 1.382 . S
C54 H55 0.952 . S
H55 C54 0.952 . S
H56 C52 0.950 . S
H57 C58 0.949 . S
C58 H57 0.949 . S
C58 C59 1.395 . S
C58 C60 1.391 . S
C59 C58 1.395 . S
C59 C62 1.390 . S
C60 C58 1.391 . S
C60 C64 1.387 . S
C60 C65 1.491 . S
H61 C62 0.950 . S
C62 C59 1.390 . S
C62 H61 0.950 . S
C62 C63 1.378 . S
C63 C62 1.378 . S
C63 C64 1.409 . S
C64 C60 1.387 . S
C64 C63 1.409 . S
C64 H66 0.951 . S
C65 C60 1.491 . S
C65 C67 1.382 . S
C65 C69 1.404 . S
H66 C64 0.951 . S
C67 C65 1.382 . S
C67 C68 1.390 . S
C67 H72 0.949 . S
C68 C67 1.390 . S
C68 C73 1.399 . S
C69 C65 1.404 . S
C69 H70 0.950 . S
C69 C71 1.375 . S
H70 C69 0.950 . S
C71 C69 1.375 . S
C71 C73 1.382 . S
C71 H75 0.950 . S
H72 C67 0.949 . S
C73 C68 1.399 . S
C73 C71 1.382 . S
C73 H74 0.952 . S
H74 C73 0.952 . S
H75 C71 0.950 . S
H76 C77 0.949 . S
C77 H76 0.949 . S
C77 C78 1.395 . S
C77 C79 1.391 1_554 S
C78 C77 1.395 . S
C78 C81 1.390 1_554 S
C79 C77 1.391 1_556 S
C79 C83 1.387 . S
C79 C84 1.491 . S
H80 C81 0.950 . S
C81 C78 1.390 1_556 S
C81 H80 0.950 . S
C81 C82 1.378 . S
C82 C81 1.378 . S
C82 C83 1.409 . S
C83 C79 1.387 . S
C83 C82 1.409 . S
C83 H85 0.951 . S
C84 C79 1.491 . S
C84 C86 1.382 1_556 S
C84 C88 1.404 . S
H85 C83 0.951 . S
C86 C84 1.382 1_554 S
C86 C87 1.390 . S
C86 H91 0.949 . S
C87 C86 1.390 . S
C87 C92 1.399 1_554 S
C88 C84 1.404 . S
C88 H89 0.950 . S
C88 C90 1.375 . S
H89 C88 0.950 . S
C90 C88 1.375 . S
C90 C92 1.382 . S
C90 H94 0.950 . S
H91 C86 0.949 . S
C92 C87 1.399 1_556 S
C92 C90 1.382 . S
C92 H93 0.952 . S
H93 C92 0.952 . S
H94 C90 0.950 . S
H95 C96 0.949 . S
C96 H95 0.949 . S
C96 C97 1.395 . S
C96 C98 1.391 1_554 S
C97 C96 1.395 . S
C97 C100 1.390 1_554 S
C98 C96 1.391 1_556 S
C98 C102 1.387 . S
C98 C103 1.491 . S
H99 C100 0.950 . S
C100 C97 1.390 1_556 S
C100 H99 0.950 . S
C100 C101 1.378 . S
C101 C100 1.378 . S
C101 C102 1.409 . S
C102 C98 1.387 . S
C102 C101 1.409 . S
C102 H104 0.951 . S
C103 C98 1.491 . S
C103 C105 1.382 1_556 S
C103 C107 1.404 . S
H104 C102 0.951 . S
C105 C103 1.382 1_554 S
C105 C106 1.390 . S
C105 H110 0.949 . S
C106 C105 1.390 . S
C106 C111 1.399 1_554 S
C107 C103 1.404 . S
C107 H108 0.950 . S
C107 C109 1.375 . S
H108 C107 0.950 . S
C109 C107 1.375 . S
C109 C111 1.382 . S
C109 H113 0.950 . S
H110 C105 0.949 . S
C111 C106 1.399 1_556 S
C111 C109 1.382 . S
C111 H112 0.952 . S
H112 C111 0.952 . S
H113 C109 0.950 . S
H114 C115 0.949 . S
C115 H114 0.949 . S
C115 C116 1.395 . S
C115 C117 1.391 1_554 S
C116 C115 1.395 . S
C116 C119 1.390 1_554 S
C117 C115 1.391 1_556 S
C117 C121 1.387 . S
C117 C122 1.491 . S
H118 C119 0.950 . S
C119 C116 1.390 1_556 S
C119 H118 0.950 . S
C119 C120 1.378 . S
C120 C119 1.378 . S
C120 C121 1.409 . S
C121 C117 1.387 . S
C121 C120 1.409 . S
C121 H123 0.951 . S
C122 C117 1.491 . S
C122 C124 1.382 1_556 S
C122 C126 1.404 . S
H123 C121 0.951 . S
C124 C122 1.382 1_554 S
C124 C125 1.390 . S
C124 H129 0.949 . S
C125 C124 1.390 . S
C125 C130 1.399 1_554 S
C126 C122 1.404 . S
C126 H127 0.950 . S
C126 C128 1.375 . S
H127 C126 0.950 . S
C128 C126 1.375 . S
C128 C130 1.382 . S
C128 H132 0.950 . S
H129 C124 0.949 . S
C130 C125 1.399 1_556 S
C130 C128 1.382 . S
C130 H131 0.952 . S
H131 C130 0.952 . S
H132 C128 0.950 . S
H133 C134 0.949 . S
C134 H133 0.949 . S
C134 C135 1.395 . S
C134 C136 1.391 1_554 S
C135 C134 1.395 . S
C135 C138 1.390 1_554 S
C136 C134 1.391 1_556 S
C136 C140 1.387 . S
C136 C141 1.491 . S
H137 C138 0.950 . S
C138 C135 1.390 1_556 S
C138 H137 0.950 . S
C138 C139 1.378 . S
C139 C138 1.378 . S
C139 C140 1.409 . S
C140 C136 1.387 . S
C140 C139 1.409 . S
C140 H142 0.951 . S
C141 C136 1.491 . S
C141 C143 1.382 1_556 S
C141 C145 1.404 . S
H142 C140 0.951 . S
C143 C141 1.382 1_554 S
C143 C144 1.390 . S
C143 H148 0.949 . S
C144 C143 1.390 . S
C144 C149 1.399 1_554 S
C145 C141 1.404 . S
C145 H146 0.950 . S
C145 C147 1.375 . S
H146 C145 0.950 . S
C147 C145 1.375 . S
C147 C149 1.382 . S
C147 H151 0.950 . S
H148 C143 0.949 . S
C149 C144 1.399 1_556 S
C149 C147 1.382 . S
C149 H150 0.952 . S
H150 C149 0.952 . S
H151 C147 0.950 . S
Tb152 N183 2.660 1_565 S
Tb152 N190 2.600 1_565 S
Tb152 O196 2.546 . S
Tb152 O197 2.610 1_455 S
Tb152 O199 2.321 1_455 S
Tb152 O200 2.552 . S
Tb152 O201 2.413 . S
Tb152 O203 2.362 1_565 S
Tb152 O204 2.427 . S
Tb152 C216 2.833 . S
C153 C156 1.432 1_545 S
C153 C157 1.414 . S
C153 N160 1.359 . S
C154 C156 1.417 . S
C154 C158 1.432 . S
C154 C166 1.410 . S
C155 C157 1.444 1_565 S
C155 C158 1.317 . S
C155 H178 0.929 . S
C156 C153 1.432 1_565 S
C156 C154 1.417 . S
C156 N164 1.360 1_565 S
C157 C153 1.414 . S
C157 C155 1.444 1_545 S
C157 C162 1.385 . S
C158 C154 1.432 . S
C158 C155 1.317 . S
C158 H170 0.930 . S
C159 C161 1.392 . S
C159 C162 1.370 . S
C159 H171 0.931 . S
N160 C153 1.359 . S
N160 C161 1.327 . S
N160 Tb163 2.600 . S
C161 C159 1.392 . S
C161 N160 1.327 . S
C161 H168 0.930 . S
C162 C157 1.385 . S
C162 C159 1.370 . S
C162 H181 0.930 . S
Tb163 N160 2.600 . S
Tb163 N164 2.660 . S
Tb163 O197 2.362 1_545 S
Tb163 O198 2.421 . S
Tb163 O202 2.546 . S
Tb163 O203 2.610 1_655 S
Tb163 O205 2.320 1_655 S
Tb163 O206 2.552 1_655 S
Tb163 O207 2.418 . S
Tb163 C227 2.833 . S
N164 C156 1.360 1_545 S
N164 Tb163 2.660 . S
N164 C165 1.305 1_645 S
C165 N164 1.305 1_465 S
C165 C167 1.407 . S
C165 H172 0.930 . S
C166 C154 1.410 . S
C166 C167 1.345 1_655 S
C166 H174 0.930 . S
C167 C165 1.407 . S
C167 C166 1.345 1_455 S
C167 H169 0.930 . S
H168 C161 0.930 . S
H169 C167 0.930 . S
H170 C158 0.930 . S
H171 C159 0.931 . S
H172 C165 0.930 . S
H173 C187 0.930 1_655 S
H174 C166 0.930 . S
H175 C193 0.930 . S
H176 C184 0.930 1_655 S
H177 C191 0.931 . S
H178 C155 0.929 . S
H179 C185 0.930 . S
H180 C218 0.930 . S
H181 C162 0.930 . S
H182 C217 0.929 . S
N183 Tb152 2.660 1_545 S
N183 C184 1.305 . S
N183 C188 1.360 . S
C184 H176 0.930 1_455 S
C184 N183 1.305 . S
C184 C187 1.407 1_556 S
C185 H179 0.930 . S
C185 C186 1.410 . S
C185 C187 1.345 . S
C186 C185 1.410 . S
C186 C188 1.417 1_554 S
C186 C218 1.432 . S
C187 H173 0.930 1_455 S
C187 C184 1.407 1_554 S
C187 C185 1.345 . S
C188 N183 1.360 . S
C188 C186 1.417 1_556 S
C188 C192 1.432 . S
H189 C194 0.930 . S
N190 Tb152 2.600 1_545 S
N190 C192 1.359 . S
N190 C193 1.327 1_545 S
C191 H177 0.931 . S
C191 C193 1.392 . S
C191 C194 1.370 1_565 S
C192 C188 1.432 . S
C192 N190 1.359 . S
C192 C195 1.414 . S
C193 H175 0.930 . S
C193 N190 1.327 1_565 S
C193 C191 1.392 . S
C194 H189 0.930 . S
C194 C191 1.370 1_545 S
C194 C195 1.385 . S
C195 C192 1.414 . S
C195 C194 1.385 . S
C195 C217 1.444 1_556 S
O196 Tb152 2.546 . S
O196 C216 1.251 . S
O197 Tb152 2.610 1_655 S
O197 Tb163 2.362 1_565 S
O197 C208 1.283 . S
O198 Tb163 2.421 . S
O198 C215 1.262 . S
O199 Tb152 2.321 1_655 S
O199 C215 1.258 1_565 S
O200 Tb152 2.552 . S
O200 C208 1.243 1_455 S
O201 Tb152 2.413 . S
O201 C216 1.256 . S
O202 Tb163 2.546 . S
O202 C227 1.251 . S
O203 Tb152 2.362 1_545 S
O203 Tb163 2.610 1_455 S
O203 C219 1.283 . S
O204 Tb152 2.427 . S
O204 C226 1.235 1_565 S
O205 Tb163 2.320 1_455 S
O205 C226 1.260 . S
O206 Tb163 2.552 1_455 S
O206 C219 1.243 . S
O207 Tb163 2.418 . S
O207 C227 1.272 . S
C208 O197 1.283 . S
C208 O200 1.243 1_655 S
C209 C211 1.382 . S
C209 C213 1.393 . S
C209 C216 1.500 . S
C210 C211 1.400 . S
C210 C212 1.384 1_556 S
C211 C209 1.382 . S
C211 C210 1.400 . S
C211 H228 0.890 1_455 S
C212 C210 1.384 1_554 S
C212 C214 1.392 1_554 S
C212 H229 0.931 . S
C213 C209 1.393 . S
C213 C214 1.401 . S
C213 H230 0.930 . S
C214 C212 1.392 1_556 S
C214 C213 1.401 . S
C214 H231 0.930 1_556 S
C215 O198 1.262 . S
C215 O199 1.258 1_545 S
C216 Tb152 2.833 . S
C216 O196 1.251 . S
C216 O201 1.256 . S
C216 C209 1.500 . S
C217 H182 0.929 . S
C217 C195 1.444 1_554 S
C217 C218 1.317 . S
C218 H180 0.930 . S
C218 C186 1.432 . S
C218 C217 1.317 . S
C219 O203 1.283 . S
C219 O206 1.243 . S
C220 C221 1.379 . S
C220 C224 1.393 . S
C220 C227 1.500 . S
C221 C220 1.379 . S
C221 C222 1.400 . S
C221 H232 0.934 1_655 S
C222 C221 1.400 . S
C222 C223 1.384 . S
C223 C222 1.384 . S
C223 C225 1.392 . S
C223 H233 0.931 . S
C224 C220 1.393 . S
C224 C225 1.401 . S
C224 H234 0.930 . S
C225 C223 1.392 . S
C225 C224 1.401 . S
C225 H235 0.930 . S
C226 O204 1.235 1_545 S
C226 O205 1.260 . S
C227 Tb163 2.833 . S
C227 O202 1.251 . S
C227 O207 1.272 . S
C227 C220 1.500 . S
H228 C211 0.890 1_655 S
H229 C212 0.931 . S
H230 C213 0.930 . S
H231 C214 0.930 1_554 S
H232 C221 0.934 1_455 S
H233 C223 0.931 . S
H234 C224 0.930 . S
H235 C225 0.930 . S
Tb236 N267 2.660 . S
Tb236 N274 2.600 . S
Tb236 O280 2.546 . S
Tb236 O281 2.627 . S
Tb236 O283 2.320 1_545 S
Tb236 O284 2.552 . S
Tb236 O285 2.413 . S
Tb236 O287 2.362 . S
Tb236 O288 2.421 . S
Tb236 C300 2.833 . S
C237 C240 1.432 . S
C237 C241 1.414 . S
C237 N244 1.359 . S
C238 C240 1.417 . S
C238 C242 1.432 . S
C238 C250 1.410 . S
C239 C241 1.444 . S
C239 C242 1.317 . S
C239 H262 0.929 . S
C240 C237 1.432 . S
C240 C238 1.417 . S
C240 N248 1.360 . S
C241 C237 1.414 . S
C241 C239 1.444 . S
C241 C246 1.385 . S
C242 C238 1.432 . S
C242 C239 1.317 . S
C242 H254 0.930 . S
C243 C245 1.392 . S
C243 C246 1.370 . S
C243 H255 0.931 . S
N244 C237 1.359 . S
N244 C245 1.327 . S
N244 Tb247 2.600 . S
C245 C243 1.392 . S
C245 N244 1.327 . S
C245 H252 0.930 . S
C246 C241 1.385 . S
C246 C243 1.370 . S
C246 H265 0.930 . S
Tb247 N244 2.600 . S
Tb247 N248 2.660 . S
Tb247 O281 2.357 1_565 S
Tb247 O282 2.421 . S
Tb247 O286 2.546 . S
Tb247 O287 2.610 1_565 S
Tb247 O289 2.320 1_565 S
Tb247 O290 2.552 1_565 S
Tb247 O291 2.413 1_565 S
Tb247 C311 2.833 . S
N248 C240 1.360 . S
N248 Tb247 2.660 . S
N248 C249 1.305 1_565 S
C249 N248 1.305 1_545 S
C249 C251 1.407 . S
C249 H256 0.930 . S
C250 C238 1.410 . S
C250 C251 1.345 1_565 S
C250 H258 0.930 . S
C251 C249 1.407 . S
C251 C250 1.345 1_545 S
C251 H253 0.930 . S
H252 C245 0.930 . S
H253 C251 0.930 . S
H254 C242 0.930 . S
H255 C243 0.931 . S
H256 C249 0.930 . S
H257 C271 0.930 1_565 S
H258 C250 0.930 . S
H259 C277 0.930 . S
H260 C268 0.930 1_565 S
H261 C275 0.931 . S
H262 C239 0.929 . S
H263 C269 0.930 . S
H264 C302 0.930 . S
H265 C246 0.930 . S
H266 C301 0.929 . S
N267 Tb236 2.660 . S
N267 C268 1.305 . S
N267 C272 1.360 . S
C268 H260 0.930 1_545 S
C268 N267 1.305 . S
C268 C271 1.407 1_556 S
C269 H263 0.930 . S
C269 C270 1.410 . S
C269 C271 1.345 . S
C270 C269 1.410 . S
C270 C272 1.417 1_554 S
C270 C302 1.432 . S
C271 H257 0.930 1_545 S
C271 C268 1.407 1_554 S
C271 C269 1.345 . S
C272 N267 1.360 . S
C272 C270 1.417 1_556 S
C272 C276 1.432 . S
H273 C278 0.930 . S
N274 Tb236 2.600 . S
N274 C276 1.359 . S
N274 C277 1.327 . S
C275 H261 0.931 . S
C275 C277 1.392 . S
C275 C278 1.370 . S
C276 C272 1.432 . S
C276 N274 1.359 . S
C276 C279 1.414 . S
C277 H259 0.930 . S
C277 N274 1.327 . S
C277 C275 1.392 . S
C278 H273 0.930 . S
C278 C275 1.370 . S
C278 C279 1.385 . S
C279 C276 1.414 . S
C279 C278 1.385 . S
C279 C301 1.444 1_556 S
O280 Tb236 2.546 . S
O280 C300 1.251 . S
O281 Tb236 2.627 . S
O281 Tb247 2.357 1_545 S
O281 C292 1.284 . S
O282 Tb247 2.421 . S
O282 C299 1.262 . S
O283 Tb236 2.320 1_565 S
O283 C299 1.260 . S
O284 Tb236 2.552 . S
O284 C292 1.243 . S
O285 Tb236 2.413 . S
O285 C300 1.256 . S
O286 Tb247 2.546 . S
O286 C311 1.251 . S
O287 Tb236 2.362 . S
O287 Tb247 2.610 1_545 S
O287 C303 1.283 . S
O288 Tb236 2.421 . S
O288 C310 1.262 . S
O289 Tb247 2.320 1_545 S
O289 C310 1.260 . S
O290 Tb247 2.552 1_545 S
O290 C303 1.243 . S
O291 Tb247 2.413 1_545 S
O291 C311 1.256 1_545 S
C292 O281 1.284 . S
C292 O284 1.243 . S
C293 C295 1.382 . S
C293 C297 1.393 . S
C293 C300 1.500 . S
C294 C295 1.400 . S
C294 C296 1.384 1_556 S
C295 C293 1.382 . S
C295 C294 1.400 . S
C295 H312 0.930 . S
C296 C294 1.384 1_554 S
C296 C298 1.392 1_554 S
C296 H313 0.931 . S
C297 C293 1.393 . S
C297 C298 1.401 . S
C297 H314 0.930 . S
C298 C296 1.392 1_556 S
C298 C297 1.401 . S
C298 H315 0.930 1_556 S
C299 O282 1.262 . S
C299 O283 1.260 . S
C300 Tb236 2.833 . S
C300 O280 1.251 . S
C300 O285 1.256 . S
C300 C293 1.500 . S
C301 H266 0.929 . S
C301 C279 1.444 1_554 S
C301 C302 1.317 . S
C302 H264 0.930 . S
C302 C270 1.432 . S
C302 C301 1.317 . S
C303 O287 1.283 . S
C303 O290 1.243 . S
C304 C305 1.382 1_565 S
C304 C308 1.393 . S
C304 C311 1.500 . S
C305 C304 1.382 1_545 S
C305 C306 1.402 . S
C305 H316 0.930 . S
C306 C305 1.402 . S
C306 C307 1.362 1_545 S
C307 C306 1.362 1_565 S
C307 C309 1.392 . S
C307 H317 0.931 . S
C308 C304 1.393 . S
C308 C309 1.401 . S
C308 H318 0.930 . S
C309 C307 1.392 . S
C309 C308 1.401 . S
C309 H319 0.930 . S
C310 O288 1.262 . S
C310 O289 1.260 . S
C311 Tb247 2.833 . S
C311 O286 1.251 . S
C311 O291 1.256 1_565 S
C311 C304 1.500 . S
H312 C295 0.930 . S
H313 C296 0.931 . S
H314 C297 0.930 . S
H315 C298 0.930 1_554 S
H316 C305 0.930 . S
H317 C307 0.931 . S
H318 C308 0.930 . S
H319 C309 0.930 . S
Tb320 N351 2.660 . S
Tb320 N358 2.600 . S
Tb320 O364 2.546 . S
Tb320 O365 2.610 . S
Tb320 O367 2.320 . S
Tb320 O368 2.552 . S
Tb320 O369 2.413 . S
Tb320 O371 2.362 . S
Tb320 O372 2.421 . S
Tb320 C384 2.833 . S
C321 C324 1.432 . S
C321 C325 1.414 . S
C321 N328 1.359 . S
C322 C324 1.417 . S
C322 C326 1.432 . S
C322 C334 1.410 . S
C323 C325 1.444 . S
C323 C326 1.317 . S
C323 H346 0.929 . S
C324 C321 1.432 . S
C324 C322 1.417 . S
C324 N332 1.360 . S
C325 C321 1.414 . S
C325 C323 1.444 . S
C325 C330 1.385 . S
C326 C322 1.432 . S
C326 C323 1.317 . S
C326 H338 0.930 . S
C327 C329 1.392 . S
C327 C330 1.370 . S
C327 H339 0.931 1_556 S
N328 C321 1.359 . S
N328 C329 1.327 . S
N328 Tb331 2.600 . S
C329 C327 1.392 . S
C329 N328 1.327 . S
C329 H336 0.930 . S
C330 C325 1.385 . S
C330 C327 1.370 . S
C330 H349 0.930 . S
Tb331 N328 2.600 . S
Tb331 N332 2.660 . S
Tb331 O365 2.362 . S
Tb331 O366 2.421 . S
Tb331 O370 2.546 . S
Tb331 O371 2.610 . S
Tb331 O373 2.320 . S
Tb331 O374 2.552 . S
Tb331 O375 2.413 . S
Tb331 C395 2.833 . S
N332 C324 1.360 . S
N332 Tb331 2.660 . S
N332 C333 1.305 . S
C333 N332 1.305 . S
C333 C335 1.407 . S
C333 H340 0.930 . S
C334 C322 1.410 . S
C334 C335 1.345 . S
C334 H342 0.930 . S
C335 C333 1.407 . S
C335 C334 1.345 . S
C335 H337 0.930 . S
H336 C329 0.930 . S
H337 C335 0.930 . S
H338 C326 0.930 . S
H339 C327 0.931 1_554 S
H340 C333 0.930 . S
H341 C355 0.930 . S
H342 C334 0.930 . S
H343 C361 0.930 . S
H344 C352 0.930 . S
H345 C359 0.931 . S
H346 C323 0.929 . S
H347 C353 0.930 . S
H348 C386 0.930 . S
H349 C330 0.930 . S
H350 C385 0.929 . S
N351 Tb320 2.660 . S
N351 C352 1.305 . S
N351 C356 1.360 . S
C352 H344 0.930 . S
C352 N351 1.305 . S
C352 C355 1.407 . S
C353 H347 0.930 . S
C353 C354 1.410 . S
C353 C355 1.345 . S
C354 C353 1.410 . S
C354 C356 1.417 . S
C354 C386 1.432 . S
C355 H341 0.930 . S
C355 C352 1.407 . S
C355 C353 1.345 . S
C356 N351 1.360 . S
C356 C354 1.417 . S
C356 C360 1.432 . S
H357 C362 0.930 . S
N358 Tb320 2.600 . S
N358 C360 1.359 . S
N358 C361 1.327 . S
C359 H345 0.931 . S
C359 C361 1.392 . S
C359 C362 1.370 . S
C360 C356 1.432 . S
C360 N358 1.359 . S
C360 C363 1.414 . S
C361 H343 0.930 . S
C361 N358 1.327 . S
C361 C359 1.392 . S
C362 H357 0.930 . S
C362 C359 1.370 . S
C362 C363 1.385 . S
C363 C360 1.414 . S
C363 C362 1.385 . S
C363 C385 1.444 . S
O364 Tb320 2.546 . S
O364 C384 1.251 . S
O365 Tb320 2.610 . S
O365 Tb331 2.362 . S
O365 C376 1.283 . S
O366 Tb331 2.421 . S
O366 C383 1.262 . S
O367 Tb320 2.320 . S
O367 C383 1.260 . S
O368 Tb320 2.552 . S
O368 C376 1.243 . S
O369 Tb320 2.413 . S
O369 C384 1.256 . S
O370 Tb331 2.546 . S
O370 C395 1.251 . S
O371 Tb320 2.362 . S
O371 Tb331 2.610 . S
O371 C387 1.283 . S
O372 Tb320 2.421 . S
O372 C394 1.262 . S
O373 Tb331 2.320 . S
O373 C394 1.260 . S
O374 Tb331 2.552 . S
O374 C387 1.243 . S
O375 Tb331 2.413 . S
O375 C395 1.256 . S
C376 O365 1.283 . S
C376 O368 1.243 . S
C377 C379 1.382 . S
C377 C381 1.393 . S
C377 C384 1.500 . S
C378 C379 1.400 . S
C378 C380 1.384 . S
C379 C377 1.382 . S
C379 C378 1.400 . S
C379 H396 0.930 . S
C380 C378 1.384 . S
C380 C382 1.392 . S
C380 H397 0.931 . S
C381 C377 1.393 . S
C381 C382 1.401 . S
C381 H398 0.930 . S
C382 C380 1.392 . S
C382 C381 1.401 . S
C382 H399 0.930 . S
C383 O366 1.262 . S
C383 O367 1.260 . S
C384 Tb320 2.833 . S
C384 O364 1.251 . S
C384 O369 1.256 . S
C384 C377 1.500 . S
C385 H350 0.929 . S
C385 C363 1.444 . S
C385 C386 1.317 . S
C386 H348 0.930 . S
C386 C354 1.432 . S
C386 C385 1.317 . S
C387 O371 1.283 . S
C387 O374 1.243 . S
C388 C389 1.382 . S
C388 C392 1.393 1_556 S
C388 C395 1.500 . S
C389 C388 1.382 . S
C389 C390 1.400 1_556 S
C389 H400 0.930 . S
C390 C389 1.400 1_554 S
C390 C391 1.384 . S
C391 C390 1.384 . S
C391 C393 1.392 . S
C391 H401 0.931 . S
C392 C388 1.393 1_554 S
C392 C393 1.401 . S
C392 H402 0.930 . S
C393 C391 1.392 . S
C393 C392 1.401 . S
C393 H403 0.930 . S
C394 O372 1.262 . S
C394 O373 1.260 . S
C395 Tb331 2.833 . S
C395 O370 1.251 . S
C395 O375 1.256 . S
C395 C388 1.500 . S
H396 C379 0.930 . S
H397 C380 0.931 . S
H398 C381 0.930 . S
H399 C382 0.930 . S
H400 C389 0.930 . S
H401 C391 0.931 . S
H402 C392 0.930 . S
H403 C393 0.930 . S
Tb404 N435 2.660 . S
Tb404 N442 2.600 . S
Tb404 O448 2.546 . S
Tb404 O449 2.610 . S
Tb404 O451 2.320 . S
Tb404 O452 2.552 . S
Tb404 O453 2.413 . S
Tb404 O455 2.362 . S
Tb404 O456 2.421 1_455 S
Tb404 C468 2.833 . S
C405 C408 1.432 . S
C405 C409 1.414 . S
C405 N412 1.359 . S
C406 C408 1.417 . S
C406 C410 1.432 . S
C406 C418 1.410 . S
C407 C409 1.444 . S
C407 C410 1.317 . S
C407 H430 0.929 . S
C408 C405 1.432 . S
C408 C406 1.417 . S
C408 N416 1.360 . S
C409 C405 1.414 . S
C409 C407 1.444 . S
C409 C414 1.385 1_655 S
C410 C406 1.432 . S
C410 C407 1.317 . S
C410 H422 0.930 . S
C411 C413 1.392 . S
C411 C414 1.370 . S
C411 H423 0.933 . S
N412 C405 1.359 . S
N412 C413 1.327 1_655 S
N412 Tb415 2.600 . S
C413 C411 1.392 . S
C413 N412 1.327 1_455 S
C413 H420 0.930 . S
C414 C409 1.385 1_455 S
C414 C411 1.370 . S
C414 H433 0.930 . S
Tb415 N412 2.600 . S
Tb415 N416 2.660 . S
Tb415 O449 2.362 1_655 S
Tb415 O450 2.421 1_655 S
Tb415 O454 2.546 . S
Tb415 O455 2.610 1_655 S
Tb415 O457 2.320 . S
Tb415 O458 2.552 . S
Tb415 O459 2.413 . S
Tb415 C479 2.833 . S
N416 C408 1.360 . S
N416 Tb415 2.660 . S
N416 C417 1.305 . S
C417 N416 1.305 . S
C417 C419 1.407 . S
C417 H424 0.930 . S
C418 C406 1.410 . S
C418 C419 1.345 . S
C418 H426 0.930 . S
C419 C417 1.407 . S
C419 C418 1.345 . S
C419 H421 0.930 . S
H420 C413 0.930 . S
H421 C419 0.930 . S
H422 C410 0.930 . S
H423 C411 0.933 . S
H424 C417 0.930 . S
H425 C439 0.930 . S
H426 C418 0.930 . S
H427 C445 0.930 1_655 S
H428 C436 0.930 . S
H429 C443 0.931 . S
H430 C407 0.929 . S
H431 C437 0.930 . S
H432 C470 0.930 . S
H433 C414 0.930 . S
H434 C469 0.929 . S
N435 Tb404 2.660 . S
N435 C436 1.305 . S
N435 C440 1.360 . S
C436 H428 0.930 . S
C436 N435 1.305 . S
C436 C439 1.407 . S
C437 H431 0.930 . S
C437 C438 1.410 . S
C437 C439 1.345 . S
C438 C437 1.410 . S
C438 C440 1.417 . S
C438 C470 1.432 . S
C439 H425 0.930 . S
C439 C436 1.407 . S
C439 C437 1.345 . S
C440 N435 1.360 . S
C440 C438 1.417 . S
C440 C444 1.432 . S
H441 C446 0.930 . S
N442 Tb404 2.600 . S
N442 C444 1.359 . S
N442 C445 1.327 . S
C443 H429 0.931 . S
C443 C445 1.392 1_655 S
C443 C446 1.370 1_655 S
C444 C440 1.432 . S
C444 N442 1.359 . S
C444 C447 1.414 . S
C445 H427 0.930 1_455 S
C445 N442 1.327 . S
C445 C443 1.392 1_455 S
C446 H441 0.930 . S
C446 C443 1.370 1_455 S
C446 C447 1.385 . S
C447 C444 1.414 . S
C447 C446 1.385 . S
C447 C469 1.444 . S
O448 Tb404 2.546 . S
O448 C468 1.251 . S
O449 Tb404 2.610 . S
O449 Tb415 2.362 1_455 S
O449 C460 1.283 . S
O450 Tb415 2.421 1_455 S
O450 C467 1.262 . S
O451 Tb404 2.320 . S
O451 C467 1.260 . S
O452 Tb404 2.552 . S
O452 C460 1.243 . S
O453 Tb404 2.413 . S
O453 C468 1.256 . S
O454 Tb415 2.546 . S
O454 C479 1.251 . S
O455 Tb404 2.362 . S
O455 Tb415 2.610 1_455 S
O455 C471 1.283 1_455 S
O456 Tb404 2.421 1_655 S
O456 C478 1.262 . S
O457 Tb415 2.320 . S
O457 C478 1.260 . S
O458 Tb415 2.552 . S
O458 C471 1.243 . S
O459 Tb415 2.413 . S
O459 C479 1.256 . S
C460 O449 1.283 . S
C460 O452 1.243 . S
C461 C463 1.382 . S
C461 C465 1.393 . S
C461 C468 1.500 . S
C462 C463 1.400 . S
C462 C464 1.384 . S
C463 C461 1.382 . S
C463 C462 1.400 . S
C463 H480 0.930 . S
C464 C462 1.384 . S
C464 C466 1.392 . S
C464 H481 0.931 . S
C465 C461 1.393 . S
C465 C466 1.401 . S
C465 H482 0.930 . S
C466 C464 1.392 . S
C466 C465 1.401 . S
C466 H483 0.930 . S
C467 O450 1.262 . S
C467 O451 1.260 . S
C468 Tb404 2.833 . S
C468 O448 1.251 . S
C468 O453 1.256 . S
C468 C461 1.500 . S
C469 H434 0.929 . S
C469 C447 1.444 . S
C469 C470 1.317 . S
C470 H432 0.930 . S
C470 C438 1.432 . S
C470 C469 1.317 . S
C471 O455 1.283 1_655 S
C471 O458 1.243 . S
C472 C473 1.382 . S
C472 C476 1.393 1_556 S
C472 C479 1.500 . S
C473 C472 1.382 . S
C473 C474 1.400 1_556 S
C473 H484 0.930 . S
C474 C473 1.400 1_554 S
C474 C475 1.384 . S
C475 C474 1.384 . S
C475 C477 1.392 . S
C475 H485 0.931 . S
C476 C472 1.393 1_554 S
C476 C477 1.401 . S
C476 H486 0.930 . S
C477 C475 1.392 . S
C477 C476 1.401 . S
C477 H487 0.930 . S
C478 O456 1.262 . S
C478 O457 1.260 . S
C479 Tb415 2.833 . S
C479 O454 1.251 . S
C479 O459 1.256 . S
C479 C472 1.500 . S
H480 C463 0.930 . S
H481 C464 0.931 . S
H482 C465 0.930 . S
H483 C466 0.930 . S
H484 C473 0.930 . S
H485 C475 0.931 . S
H486 C476 0.930 . S
H487 C477 0.930 . S
H488 C500 0.930 . S
H489 C502 0.930 . S
H490 C503 0.930 . S
H491 C507 0.959 . S
H492 C507 0.959 1_565 S
H493 C507 0.961 . S
H494 C508 0.960 . S
H495 C508 0.961 . S
H496 C508 0.959 . S
H497 C511 0.929 . S
H498 C512 0.931 . S
H499 C514 0.930 . S
C500 H488 0.930 . S
C500 C501 1.399 . S
C500 C505 1.399 . S
C501 C500 1.399 . S
C501 C502 1.376 . S
C502 H489 0.930 . S
C502 C501 1.376 . S
C502 C503 1.388 . S
C503 H490 0.930 . S
C503 C502 1.388 . S
C503 C504 1.390 . S
C504 C503 1.390 . S
C504 C505 1.394 . S
C504 C510 1.465 . S
C505 C500 1.399 . S
C505 C504 1.394 . S
C505 C506 1.516 . S
C506 C505 1.516 . S
C506 C507 1.502 . S
C506 C508 1.561 1_545 S
C506 C509 1.526 . S
C507 H491 0.959 . S
C507 H492 0.959 1_545 S
C507 H493 0.961 . S
C507 C506 1.502 . S
C508 H494 0.960 . S
C508 H495 0.961 . S
C508 H496 0.959 . S
C508 C506 1.561 1_565 S
C509 C506 1.526 . S
C509 C510 1.396 . S
C509 C514 1.390 . S
C510 C504 1.465 . S
C510 C509 1.396 . S
C510 C511 1.399 . S
C511 H497 0.929 . S
C511 C510 1.399 . S
C511 C512 1.385 . S
C512 H498 0.931 . S
C512 C511 1.385 . S
C512 C513 1.389 . S
C513 C512 1.389 . S
C513 C514 1.387 . S
C514 H499 0.930 . S
C514 C509 1.390 . S
C514 C513 1.387 . S
H515 C527 0.930 . S
H516 C529 0.930 . S
H517 C530 0.930 . S
H518 C534 0.959 . S
H519 C534 0.959 . S
H520 C534 0.961 . S
H521 C535 0.960 . S
H522 C535 0.961 . S
H523 C535 0.959 . S
H524 C538 0.929 . S
H525 C539 0.931 . S
H526 C541 0.930 . S
C527 H515 0.930 . S
C527 C528 1.399 . S
C527 C532 1.399 . S
C528 C527 1.399 . S
C528 C529 1.376 . S
C529 H516 0.930 . S
C529 C528 1.376 . S
C529 C530 1.388 . S
C530 H517 0.930 . S
C530 C529 1.388 . S
C530 C531 1.390 . S
C531 C530 1.390 . S
C531 C532 1.394 . S
C531 C537 1.465 . S
C532 C527 1.399 . S
C532 C531 1.394 . S
C532 C533 1.516 . S
C533 C532 1.516 . S
C533 C534 1.502 . S
C533 C535 1.561 . S
C533 C536 1.526 . S
C534 H518 0.959 . S
C534 H519 0.959 . S
C534 H520 0.961 . S
C534 C533 1.502 . S
C535 H521 0.960 . S
C535 H522 0.961 . S
C535 H523 0.959 . S
C535 C533 1.561 . S
C536 C533 1.526 . S
C536 C537 1.396 . S
C536 C541 1.390 . S
C537 C531 1.465 . S
C537 C536 1.396 . S
C537 C538 1.399 . S
C538 H524 0.929 . S
C538 C537 1.399 . S
C538 C539 1.385 . S
C539 H525 0.931 . S
C539 C538 1.385 . S
C539 C540 1.389 . S
C540 C539 1.389 . S
C540 C541 1.387 . S
C541 H526 0.930 . S
C541 C536 1.390 . S
C541 C540 1.387 . S
H542 C554 0.930 . S
H543 C556 0.930 . S
H544 C557 0.930 . S
H545 C561 0.959 . S
H546 C561 0.959 . S
H547 C561 0.961 . S
H548 C562 0.960 . S
H549 C562 0.961 . S
H550 C562 0.959 . S
H551 C565 0.929 . S
H552 C566 0.931 . S
H553 C568 0.930 . S
C554 H542 0.930 . S
C554 C555 1.399 . S
C554 C559 1.399 . S
C555 C554 1.399 . S
C555 C556 1.376 . S
C556 H543 0.930 . S
C556 C555 1.376 . S
C556 C557 1.388 . S
C557 H544 0.930 . S
C557 C556 1.388 . S
C557 C558 1.390 . S
C558 C557 1.390 . S
C558 C559 1.394 . S
C558 C564 1.465 . S
C559 C554 1.399 . S
C559 C558 1.394 . S
C559 C560 1.516 . S
C560 C559 1.516 . S
C560 C561 1.502 . S
C560 C562 1.561 . S
C560 C563 1.526 . S
C561 H545 0.959 . S
C561 H546 0.959 . S
C561 H547 0.961 . S
C561 C560 1.502 . S
C562 H548 0.960 . S
C562 H549 0.961 . S
C562 H550 0.959 . S
C562 C560 1.561 . S
C563 C560 1.526 . S
C563 C564 1.396 . S
C563 C568 1.390 . S
C564 C558 1.465 . S
C564 C563 1.396 . S
C564 C565 1.399 . S
C565 H551 0.929 . S
C565 C564 1.399 . S
C565 C566 1.385 . S
C566 H552 0.931 . S
C566 C565 1.385 . S
C566 C567 1.389 . S
C567 C566 1.389 . S
C567 C568 1.387 . S
C568 H553 0.930 . S
C568 C563 1.390 . S
C568 C567 1.387 . S
H569 C581 0.930 . S
H570 C583 0.930 . S
H571 C584 0.930 . S
H572 C588 0.959 . S
H573 C588 0.959 . S
H574 C588 0.961 . S
H575 C589 0.960 . S
H576 C589 0.961 . S
H577 C589 0.959 . S
H578 C592 0.929 . S
H579 C593 0.931 . S
H580 C595 0.930 . S
C581 H569 0.930 . S
C581 C582 1.399 . S
C581 C586 1.399 . S
C582 C581 1.399 . S
C582 C583 1.376 . S
C583 H570 0.930 . S
C583 C582 1.376 . S
C583 C584 1.388 . S
C584 H571 0.930 . S
C584 C583 1.388 . S
C584 C585 1.390 . S
C585 C584 1.390 . S
C585 C586 1.394 . S
C585 C591 1.465 . S
C586 C581 1.399 . S
C586 C585 1.394 . S
C586 C587 1.516 . S
C587 C586 1.516 . S
C587 C588 1.502 . S
C587 C589 1.561 . S
C587 C590 1.526 . S
C588 H572 0.959 . S
C588 H573 0.959 . S
C588 H574 0.961 . S
C588 C587 1.502 . S
C589 H575 0.960 . S
C589 H576 0.961 . S
C589 H577 0.959 . S
C589 C587 1.561 . S
C590 C587 1.526 . S
C590 C591 1.396 . S
C590 C595 1.390 . S
C591 C585 1.465 . S
C591 C590 1.396 . S
C591 C592 1.399 . S
C592 H578 0.929 . S
C592 C591 1.399 . S
C592 C593 1.385 . S
C593 H579 0.931 . S
C593 C592 1.385 . S
C593 C594 1.389 . S
C594 C593 1.389 . S
C594 C595 1.387 . S
C595 H580 0.930 . S
C595 C590 1.390 . S
C595 C594 1.387 . S
H596 C608 0.930 . S
H597 C610 0.930 1_545 S
H598 C611 0.930 . S
H599 C615 0.959 1_554 S
H600 C615 0.959 . S
H601 C615 0.961 1_554 S
H602 C616 0.960 . S
H603 C616 0.961 . S
H604 C616 0.959 . S
H605 C619 0.929 . S
H606 C620 0.931 . S
H607 C622 0.930 . S
C608 H596 0.930 . S
C608 C609 1.399 . S
C608 C613 1.399 . S
C609 C608 1.399 . S
C609 C610 1.376 . S
C610 H597 0.930 1_565 S
C610 C609 1.376 . S
C610 C611 1.388 1_565 S
C611 H598 0.930 . S
C611 C610 1.388 1_545 S
C611 C612 1.390 1_545 S
C612 C611 1.390 1_565 S
C612 C613 1.394 . S
C612 C618 1.465 1_554 S
C613 C608 1.399 . S
C613 C612 1.394 . S
C613 C614 1.516 1_554 S
C614 C613 1.516 1_556 S
C614 C615 1.502 . S
C614 C616 1.561 . S
C614 C617 1.526 . S
C615 H599 0.959 1_556 S
C615 H600 0.959 . S
C615 H601 0.961 1_556 S
C615 C614 1.502 . S
C616 H602 0.960 . S
C616 H603 0.961 . S
C616 H604 0.959 . S
C616 C614 1.561 . S
C617 C614 1.526 . S
C617 C618 1.396 . S
C617 C622 1.390 . S
C618 C612 1.465 1_556 S
C618 C617 1.396 . S
C618 C619 1.399 1_565 S
C619 H605 0.929 . S
C619 C618 1.399 1_545 S
C619 C620 1.385 . S
C620 H606 0.931 . S
C620 C619 1.385 . S
C620 C621 1.389 1_545 S
C621 C620 1.389 1_565 S
C621 C622 1.387 . S
C622 H607 0.930 . S
C622 C617 1.390 . S
C622 C621 1.387 . S
H623 C635 0.930 . S
H624 C637 0.930 . S
H625 C638 0.930 . S
H626 C642 0.959 . S
H627 C642 0.959 . S
H628 C642 0.961 . S
H629 C643 0.960 . S
H630 C643 0.961 . S
H631 C643 0.959 . S
H632 C646 0.929 . S
H633 C647 0.931 . S
H634 C649 0.930 . S
C635 H623 0.930 . S
C635 C636 1.399 . S
C635 C640 1.399 . S
C636 C635 1.399 . S
C636 C637 1.376 . S
C637 H624 0.930 . S
C637 C636 1.376 . S
C637 C638 1.388 1_554 S
C638 H625 0.930 . S
C638 C637 1.388 1_556 S
C638 C639 1.390 . S
C639 C638 1.390 . S
C639 C640 1.394 1_556 S
C639 C645 1.465 . S
C640 C635 1.399 . S
C640 C639 1.394 1_554 S
C640 C641 1.516 . S
C641 C640 1.516 . S
C641 C642 1.502 . S
C641 C643 1.561 . S
C641 C644 1.526 1_554 S
C642 H626 0.959 . S
C642 H627 0.959 . S
C642 H628 0.961 . S
C642 C641 1.502 . S
C643 H629 0.960 . S
C643 H630 0.961 . S
C643 H631 0.959 . S
C643 C641 1.561 . S
C644 C641 1.526 1_556 S
C644 C645 1.396 . S
C644 C649 1.390 . S
C645 C639 1.465 . S
C645 C644 1.396 . S
C645 C646 1.399 . S
C646 H632 0.929 . S
C646 C645 1.399 . S
C646 C647 1.385 . S
C647 H633 0.931 . S
C647 C646 1.385 . S
C647 C648 1.389 . S
C648 C647 1.389 . S
C648 C649 1.387 . S
C649 H634 0.930 . S
C649 C644 1.390 . S
C649 C648 1.387 . S
H650 C662 0.930 . S
H651 C664 0.930 . S
H652 C665 0.930 . S
H653 C669 0.959 . S
H654 C669 0.959 . S
H655 C669 0.961 . S
H656 C670 0.960 1_554 S
H657 C670 0.961 . S
H658 C670 0.959 . S
H659 C673 0.929 . S
H660 C674 0.931 . S
H661 C676 0.930 . S
C662 H650 0.930 . S
C662 C663 1.399 . S
C662 C667 1.399 . S
C663 C662 1.399 . S
C663 C664 1.376 . S
C664 H651 0.930 . S
C664 C663 1.376 . S
C664 C665 1.388 1_554 S
C665 H652 0.930 . S
C665 C664 1.388 1_556 S
C665 C666 1.390 . S
C666 C665 1.390 . S
C666 C667 1.394 1_556 S
C666 C672 1.465 . S
C667 C662 1.399 . S
C667 C666 1.394 1_554 S
C667 C668 1.516 . S
C668 C667 1.516 . S
C668 C669 1.502 . S
C668 C670 1.561 1_554 S
C668 C671 1.526 1_554 S
C669 H653 0.959 . S
C669 H654 0.959 . S
C669 H655 0.961 . S
C669 C668 1.502 . S
C670 H656 0.960 1_556 S
C670 H657 0.961 . S
C670 H658 0.959 . S
C670 C668 1.561 1_556 S
C671 C668 1.526 1_556 S
C671 C672 1.396 . S
C671 C676 1.390 . S
C672 C666 1.465 . S
C672 C671 1.396 . S
C672 C673 1.399 . S
C673 H659 0.929 . S
C673 C672 1.399 . S
C673 C674 1.385 . S
C674 H660 0.931 . S
C674 C673 1.385 . S
C674 C675 1.389 . S
C675 C674 1.389 . S
C675 C676 1.387 . S
C676 H661 0.930 . S
C676 C671 1.390 . S
C676 C675 1.387 . S
H677 C689 0.930 . S
H678 C691 0.930 . S
H679 C692 0.930 1_455 S
H680 C696 0.959 1_554 S
H681 C696 0.959 . S
H682 C696 0.961 . S
H683 C697 0.960 . S
H684 C697 0.961 . S
H685 C697 0.959 . S
H686 C700 0.929 . S
H687 C701 0.931 . S
H688 C703 0.930 . S
C689 H677 0.930 . S
C689 C690 1.399 . S
C689 C694 1.399 . S
C690 C689 1.399 . S
C690 C691 1.376 . S
C691 H678 0.930 . S
C691 C690 1.376 . S
C691 C692 1.388 . S
C692 H679 0.930 1_655 S
C692 C691 1.388 . S
C692 C693 1.390 . S
C693 C692 1.390 . S
C693 C694 1.394 . S
C693 C699 1.465 1_554 S
C694 C689 1.399 . S
C694 C693 1.394 . S
C694 C695 1.516 1_554 S
C695 C694 1.516 1_556 S
C695 C696 1.502 . S
C695 C697 1.561 . S
C695 C698 1.526 . S
C696 H680 0.959 1_556 S
C696 H681 0.959 . S
C696 H682 0.961 . S
C696 C695 1.502 . S
C697 H683 0.960 . S
C697 H684 0.961 . S
C697 H685 0.959 . S
C697 C695 1.561 . S
C698 C695 1.526 . S
C698 C699 1.396 . S
C698 C703 1.390 . S
C699 C693 1.465 1_556 S
C699 C698 1.396 . S
C699 C700 1.399 1_655 S
C700 H686 0.929 . S
C700 C699 1.399 1_455 S
C700 C701 1.385 . S
C701 H687 0.931 . S
C701 C700 1.385 . S
C701 C702 1.389 1_455 S
C702 C701 1.389 1_655 S
C702 C703 1.387 . S
C703 H688 0.930 . S
C703 C698 1.390 . S
C703 C702 1.387 . S
H704 C716 0.930 . S
H705 C718 0.930 1_556 S
H706 C719 0.930 . S
H707 C723 0.959 . S
H708 C723 0.959 . S
H709 C723 0.961 . S
H710 C724 0.960 . S
H711 C724 0.961 . S
H712 C724 0.959 . S
H713 C727 0.929 . S
H714 C728 0.931 1_655 S
H715 C730 0.930 . S
C716 H704 0.930 . S
C716 C717 1.399 . S
C716 C721 1.399 . S
C717 C716 1.399 . S
C717 C718 1.376 . S
C718 H705 0.930 1_554 S
C718 C717 1.376 . S
C718 C719 1.388 . S
C719 H706 0.930 . S
C719 C718 1.388 . S
C719 C720 1.390 . S
C720 C719 1.390 . S
C720 C721 1.394 . S
C720 C726 1.465 . S
C721 C716 1.399 . S
C721 C720 1.394 . S
C721 C722 1.516 . S
C722 C721 1.516 . S
C722 C723 1.502 . S
C722 C724 1.561 . S
C722 C725 1.526 . S
C723 H707 0.959 . S
C723 H708 0.959 . S
C723 H709 0.961 . S
C723 C722 1.502 . S
C724 H710 0.960 . S
C724 H711 0.961 . S
C724 H712 0.959 . S
C724 C722 1.561 . S
C725 C722 1.526 . S
C725 C726 1.396 . S
C725 C730 1.390 . S
C726 C720 1.465 . S
C726 C725 1.396 . S
C726 C727 1.399 . S
C727 H713 0.929 . S
C727 C726 1.399 . S
C727 C728 1.385 . S
C728 H714 0.931 1_455 S
C728 C727 1.385 . S
C728 C729 1.389 . S
C729 C728 1.389 . S
C729 C730 1.387 . S
C730 H715 0.930 . S
C730 C725 1.390 . S
C730 C729 1.387 . S
H731 C743 0.930 . S
H732 C745 0.930 1_556 S
H733 C746 0.930 . S
H734 C750 0.959 . S
H735 C750 0.959 . S
H736 C750 0.961 . S
H737 C751 0.960 . S
H738 C751 0.961 . S
H739 C751 0.959 . S
H740 C754 0.929 1_565 S
H741 C755 0.931 . S
H742 C757 0.930 . S
C743 H731 0.930 . S
C743 C744 1.399 . S
C743 C748 1.399 . S
C744 C743 1.399 . S
C744 C745 1.376 . S
C745 H732 0.930 1_554 S
C745 C744 1.376 . S
C745 C746 1.388 . S
C746 H733 0.930 . S
C746 C745 1.388 . S
C746 C747 1.390 . S
C747 C746 1.390 . S
C747 C748 1.394 . S
C747 C753 1.465 . S
C748 C743 1.399 . S
C748 C747 1.394 . S
C748 C749 1.516 . S
C749 C748 1.516 . S
C749 C750 1.502 . S
C749 C751 1.561 . S
C749 C752 1.526 . S
C750 H734 0.959 . S
C750 H735 0.959 . S
C750 H736 0.961 . S
C750 C749 1.502 . S
C751 H737 0.960 . S
C751 H738 0.961 . S
C751 H739 0.959 . S
C751 C749 1.561 . S
C752 C749 1.526 . S
C752 C753 1.396 . S
C752 C757 1.390 . S
C753 C747 1.465 . S
C753 C752 1.396 . S
C753 C754 1.399 . S
C754 H740 0.929 1_545 S
C754 C753 1.399 . S
C754 C755 1.385 1_545 S
C755 H741 0.931 . S
C755 C754 1.385 1_565 S
C755 C756 1.389 1_565 S
C756 C755 1.389 1_545 S
C756 C757 1.387 . S
C757 H742 0.930 . S
C757 C752 1.390 . S
C757 C756 1.387 . S
H758 C770 0.930 . S
H759 C772 0.930 . S
H760 C773 0.930 . S
H761 C777 0.959 . S
H762 C777 0.959 . S
H763 C777 0.961 . S
H764 C778 0.960 . S
H765 C778 0.961 . S
H766 C778 0.959 . S
H767 C781 0.929 . S
H768 C782 0.931 . S
H769 C784 0.930 . S
C770 H758 0.930 . S
C770 C771 1.399 . S
C770 C775 1.399 . S
C771 C770 1.399 . S
C771 C772 1.376 . S
C772 H759 0.930 . S
C772 C771 1.376 . S
C772 C773 1.388 . S
C773 H760 0.930 . S
C773 C772 1.388 . S
C773 C774 1.390 . S
C774 C773 1.390 . S
C774 C775 1.394 . S
C774 C780 1.465 . S
C775 C770 1.399 . S
C775 C774 1.394 . S
C775 C776 1.516 . S
C776 C775 1.516 . S
C776 C777 1.502 . S
C776 C778 1.561 . S
C776 C779 1.526 . S
C777 H761 0.959 . S
C777 H762 0.959 . S
C777 H763 0.961 . S
C777 C776 1.502 . S
C778 H764 0.960 . S
C778 H765 0.961 . S
C778 H766 0.959 . S
C778 C776 1.561 . S
C779 C776 1.526 . S
C779 C780 1.396 . S
C779 C784 1.390 . S
C780 C774 1.465 . S
C780 C779 1.396 . S
C780 C781 1.399 . S
C781 H767 0.929 . S
C781 C780 1.399 . S
C781 C782 1.385 . S
C782 H768 0.931 . S
C782 C781 1.385 . S
C782 C783 1.389 . S
C783 C782 1.389 . S
C783 C784 1.387 . S
C784 H769 0.930 . S
C784 C779 1.390 . S
C784 C783 1.387 . S
H785 C797 0.930 . S
H786 C799 0.930 1_556 S
H787 C800 0.930 1_556 S
H788 C804 0.959 . S
H789 C804 0.959 . S
H790 C804 0.961 . S
H791 C805 0.960 . S
H792 C805 0.961 . S
H793 C805 0.959 . S
H794 C808 0.929 . S
H795 C809 0.931 . S
H796 C811 0.930 . S
C797 H785 0.930 . S
C797 C798 1.399 . S
C797 C802 1.399 . S
C798 C797 1.399 . S
C798 C799 1.376 . S
C799 H786 0.930 1_554 S
C799 C798 1.376 . S
C799 C800 1.388 . S
C800 H787 0.930 1_554 S
C800 C799 1.388 . S
C800 C801 1.390 . S
C801 C800 1.390 . S
C801 C802 1.394 . S
C801 C807 1.465 . S
C802 C797 1.399 . S
C802 C801 1.394 . S
C802 C803 1.516 . S
C803 C802 1.516 . S
C803 C804 1.502 . S
C803 C805 1.561 . S
C803 C806 1.526 . S
C804 H788 0.959 . S
C804 H789 0.959 . S
C804 H790 0.961 . S
C804 C803 1.502 . S
C805 H791 0.960 . S
C805 H792 0.961 . S
C805 H793 0.959 . S
C805 C803 1.561 . S
C806 C803 1.526 . S
C806 C807 1.396 . S
C806 C811 1.390 . S
C807 C801 1.465 . S
C807 C806 1.396 . S
C807 C808 1.399 . S
C808 H794 0.929 . S
C808 C807 1.399 . S
C808 C809 1.385 . S
C809 H795 0.931 . S
C809 C808 1.385 . S
C809 C810 1.389 . S
C810 C809 1.389 . S
C810 C811 1.387 . S
C811 H796 0.930 . S
C811 C806 1.390 . S
C811 C810 1.387 . S
H812 C824 0.930 . S
H813 C826 0.930 . S
H814 C827 0.930 . S
H815 C831 0.959 . S
H816 C831 0.959 . S
H817 C831 0.961 . S
H818 C832 0.960 . S
H819 C832 0.961 . S
H820 C832 0.959 1_554 S
H821 C835 0.927 1_455 S
H822 C836 0.931 . S
H823 C838 0.930 . S
C824 H812 0.930 . S
C824 C825 1.399 . S
C824 C829 1.399 . S
C825 C824 1.399 . S
C825 C826 1.376 . S
C826 H813 0.930 . S
C826 C825 1.376 . S
C826 C827 1.388 . S
C827 H814 0.930 . S
C827 C826 1.388 . S
C827 C828 1.390 . S
C828 C827 1.390 . S
C828 C829 1.394 . S
C828 C834 1.465 . S
C829 C824 1.399 . S
C829 C828 1.394 . S
C829 C830 1.516 . S
C830 C829 1.516 . S
C830 C831 1.502 1_554 S
C830 C832 1.561 1_554 S
C830 C833 1.526 . S
C831 H815 0.959 . S
C831 H816 0.959 . S
C831 H817 0.961 . S
C831 C830 1.502 1_556 S
C832 H818 0.960 . S
C832 H819 0.961 . S
C832 H820 0.959 1_556 S
C832 C830 1.561 1_556 S
C833 C830 1.526 . S
C833 C834 1.396 . S
C833 C838 1.390 1_554 S
C834 C828 1.465 . S
C834 C833 1.396 . S
C834 C835 1.399 . S
C835 H821 0.927 1_655 S
C835 C834 1.399 . S
C835 C836 1.385 1_655 S
C836 H822 0.931 . S
C836 C835 1.385 1_455 S
C836 C837 1.389 . S
C837 C836 1.389 . S
C837 C838 1.387 1_454 S
C838 H823 0.930 . S
C838 C833 1.390 1_556 S
C838 C837 1.387 1_656 S
H839 C851 0.930 . S
H840 C853 0.930 . S
H841 C854 0.930 . S
H842 C858 0.959 1_565 S
H843 C858 0.959 . S
H844 C858 0.961 . S
H845 C859 0.960 . S
H846 C859 0.961 . S
H847 C859 0.959 . S
H848 C862 0.929 . S
H849 C863 0.931 . S
H850 C865 0.930 . S
C851 H839 0.930 . S
C851 C852 1.399 . S
C851 C856 1.399 . S
C852 C851 1.399 . S
C852 C853 1.376 . S
C853 H840 0.930 . S
C853 C852 1.376 . S
C853 C854 1.388 . S
C854 H841 0.930 . S
C854 C853 1.388 . S
C854 C855 1.390 . S
C855 C854 1.390 . S
C855 C856 1.394 . S
C855 C861 1.465 . S
C856 C851 1.399 . S
C856 C855 1.394 . S
C856 C857 1.516 1_565 S
C857 C856 1.516 1_545 S
C857 C858 1.502 . S
C857 C859 1.561 . S
C857 C860 1.526 . S
C858 H842 0.959 1_545 S
C858 H843 0.959 . S
C858 H844 0.961 . S
C858 C857 1.502 . S
C859 H845 0.960 . S
C859 H846 0.961 . S
C859 H847 0.959 . S
C859 C857 1.561 . S
C860 C857 1.526 . S
C860 C861 1.396 1_545 S
C860 C865 1.390 . S
C861 C855 1.465 . S
C861 C860 1.396 1_565 S
C861 C862 1.399 1_554 S
C862 H848 0.929 . S
C862 C861 1.399 1_556 S
C862 C863 1.385 . S
C863 H849 0.931 . S
C863 C862 1.385 . S
C863 C864 1.389 1_565 S
C864 C863 1.389 1_545 S
C864 C865 1.387 1_556 S
C865 H850 0.930 . S
C865 C860 1.390 . S
C865 C864 1.387 1_554 S
H866 C878 0.930 . S
H867 C880 0.930 . S
H868 C881 0.930 1_556 S
H869 C885 0.959 . S
H870 C885 0.959 . S
H871 C885 0.961 . S
H872 C886 0.960 . S
H873 C886 0.961 . S
H874 C886 0.959 . S
H875 C889 0.929 . S
H876 C890 0.931 . S
H877 C892 0.930 . S
C878 H866 0.930 . S
C878 C879 1.399 . S
C878 C883 1.399 . S
C879 C878 1.399 . S
C879 C880 1.376 . S
C880 H867 0.930 . S
C880 C879 1.376 . S
C880 C881 1.388 . S
C881 H868 0.930 1_554 S
C881 C880 1.388 . S
C881 C882 1.390 . S
C882 C881 1.390 . S
C882 C883 1.394 . S
C882 C888 1.465 . S
C883 C878 1.399 . S
C883 C882 1.394 . S
C883 C884 1.516 . S
C884 C883 1.516 . S
C884 C885 1.502 . S
C884 C886 1.561 . S
C884 C887 1.526 . S
C885 H869 0.959 . S
C885 H870 0.959 . S
C885 H871 0.961 . S
C885 C884 1.502 . S
C886 H872 0.960 . S
C886 H873 0.961 . S
C886 H874 0.959 . S
C886 C884 1.561 . S
C887 C884 1.526 . S
C887 C888 1.396 . S
C887 C892 1.390 . S
C888 C882 1.465 . S
C888 C887 1.396 . S
C888 C889 1.399 1_554 S
C889 H875 0.929 . S
C889 C888 1.399 1_556 S
C889 C890 1.385 . S
C890 H876 0.931 . S
C890 C889 1.385 . S
C890 C891 1.389 1_556 S
C891 C890 1.389 1_554 S
C891 C892 1.387 . S
C892 H877 0.930 . S
C892 C887 1.390 . S
C892 C891 1.387 . S
H893 C905 0.930 . S
H894 C907 0.930 . S
H895 C908 0.930 . S
H896 C912 0.959 . S
H897 C912 0.959 . S
H898 C912 0.961 . S
H899 C913 0.960 . S
H900 C913 0.961 . S
H901 C913 0.959 . S
H902 C916 0.929 . S
H903 C917 0.931 . S
H904 C919 0.930 . S
C905 H893 0.930 . S
C905 C906 1.399 . S
C905 C910 1.399 . S
C906 C905 1.399 . S
C906 C907 1.376 . S
C907 H894 0.930 . S
C907 C906 1.376 . S
C907 C908 1.388 . S
C908 H895 0.930 . S
C908 C907 1.388 . S
C908 C909 1.390 . S
C909 C908 1.390 . S
C909 C910 1.394 . S
C909 C915 1.465 . S
C910 C905 1.399 . S
C910 C909 1.394 . S
C910 C911 1.516 . S
C911 C910 1.516 . S
C911 C912 1.502 . S
C911 C913 1.561 . S
C911 C914 1.526 . S
C912 H896 0.959 . S
C912 H897 0.959 . S
C912 H898 0.961 . S
C912 C911 1.502 . S
C913 H899 0.960 . S
C913 H900 0.961 . S
C913 H901 0.959 . S
C913 C911 1.561 . S
C914 C911 1.526 . S
C914 C915 1.396 . S
C914 C919 1.390 . S
C915 C909 1.465 . S
C915 C914 1.396 . S
C915 C916 1.399 1_554 S
C916 H902 0.929 . S
C916 C915 1.399 1_556 S
C916 C917 1.385 . S
C917 H903 0.931 . S
C917 C916 1.385 . S
C917 C918 1.389 1_556 S
C918 C917 1.389 1_554 S
C918 C919 1.387 . S
C919 H904 0.930 . S
C919 C914 1.390 . S
C919 C918 1.387 . S
H920 C932 0.930 . S
H921 C934 0.930 . S
H922 C935 0.930 . S
H923 C939 0.959 . S
H924 C939 0.959 . S
H925 C939 0.961 . S
H926 C940 0.960 . S
H927 C940 0.961 . S
H928 C940 0.959 . S
H929 C943 0.929 . S
H930 C944 0.931 . S
H931 C946 0.930 . S
C932 H920 0.930 . S
C932 C933 1.399 . S
C932 C937 1.399 . S
C933 C932 1.399 . S
C933 C934 1.376 . S
C934 H921 0.930 . S
C934 C933 1.376 . S
C934 C935 1.388 . S
C935 H922 0.930 . S
C935 C934 1.388 . S
C935 C936 1.390 . S
C936 C935 1.390 . S
C936 C937 1.394 . S
C936 C942 1.465 . S
C937 C932 1.399 . S
C937 C936 1.394 . S
C937 C938 1.516 . S
C938 C937 1.516 . S
C938 C939 1.502 . S
C938 C940 1.561 . S
C938 C941 1.526 . S
C939 H923 0.959 . S
C939 H924 0.959 . S
C939 H925 0.961 . S
C939 C938 1.502 . S
C940 H926 0.960 . S
C940 H927 0.961 . S
C940 H928 0.959 . S
C940 C938 1.561 . S
C941 C938 1.526 . S
C941 C942 1.396 . S
C941 C946 1.390 . S
C942 C936 1.465 . S
C942 C941 1.396 . S
C942 C943 1.399 . S
C943 H929 0.929 . S
C943 C942 1.399 . S
C943 C944 1.385 . S
C944 H930 0.931 . S
C944 C943 1.385 . S
C944 C945 1.389 . S
C945 C944 1.389 . S
C945 C946 1.387 . S
C946 H931 0.930 . S
C946 C941 1.390 . S
C946 C945 1.387 . S
H947 C959 0.930 . S
H948 C961 0.930 . S
H949 C962 0.930 . S
H950 C966 0.959 . S
H951 C966 0.959 . S
H952 C966 0.961 . S
H953 C967 0.960 . S
H954 C967 0.961 . S
H955 C967 0.959 . S
H956 C970 0.929 . S
H957 C971 0.931 . S
H958 C973 0.930 . S
C959 H947 0.930 . S
C959 C960 1.399 . S
C959 C964 1.399 . S
C960 C959 1.399 . S
C960 C961 1.376 . S
C961 H948 0.930 . S
C961 C960 1.376 . S
C961 C962 1.388 . S
C962 H949 0.930 . S
C962 C961 1.388 . S
C962 C963 1.390 . S
C963 C962 1.390 . S
C963 C964 1.394 . S
C963 C969 1.465 . S
C964 C959 1.399 . S
C964 C963 1.394 . S
C964 C965 1.516 . S
C965 C964 1.516 . S
C965 C966 1.502 . S
C965 C967 1.561 1_545 S
C965 C968 1.526 . S
C966 H950 0.959 . S
C966 H951 0.959 . S
C966 H952 0.961 . S
C966 C965 1.502 . S
C967 H953 0.960 . S
C967 H954 0.961 . S
C967 H955 0.959 . S
C967 C965 1.561 1_565 S
C968 C965 1.526 . S
C968 C969 1.396 . S
C968 C973 1.390 . S
C969 C963 1.465 . S
C969 C968 1.396 . S
C969 C970 1.399 . S
C970 H956 0.929 . S
C970 C969 1.399 . S
C970 C971 1.385 . S
C971 H957 0.931 . S
C971 C970 1.385 . S
C971 C972 1.389 . S
C972 C971 1.389 . S
C972 C973 1.387 . S
C973 H958 0.930 . S
C973 C968 1.390 . S
C973 C972 1.387 . S
H974 C986 0.930 . S
H975 C988 0.930 . S
H976 C989 0.930 . S
H977 C993 0.959 . S
H978 C993 0.959 . S
H979 C993 0.961 1_554 S
H980 C994 0.960 1_554 S
H981 C994 0.961 . S
H982 C994 0.959 . S
H983 C997 0.929 . S
H984 C998 0.931 . S
H985 C1000 0.930 . S
C986 H974 0.930 . S
C986 C987 1.399 . S
C986 C991 1.399 . S
C987 C986 1.399 . S
C987 C988 1.376 . S
C988 H975 0.930 . S
C988 C987 1.376 . S
C988 C989 1.388 . S
C989 H976 0.930 . S
C989 C988 1.388 . S
C989 C990 1.390 . S
C990 C989 1.390 . S
C990 C991 1.394 . S
C990 C996 1.465 . S
C991 C986 1.399 . S
C991 C990 1.394 . S
C991 C992 1.516 . S
C992 C991 1.516 . S
C992 C993 1.502 . S
C992 C994 1.561 . S
C992 C995 1.526 . S
C993 H977 0.959 . S
C993 H978 0.959 . S
C993 H979 0.961 1_556 S
C993 C992 1.502 . S
C994 H980 0.960 1_556 S
C994 H981 0.961 . S
C994 H982 0.959 . S
C994 C992 1.561 . S
C995 C992 1.526 . S
C995 C996 1.396 . S
C995 C1000 1.390 . S
C996 C990 1.465 . S
C996 C995 1.396 . S
C996 C997 1.399 . S
C997 H983 0.929 . S
C997 C996 1.399 . S
C997 C998 1.385 . S
C998 H984 0.931 . S
C998 C997 1.385 . S
C998 C999 1.389 . S
C999 C998 1.389 . S
C999 C1000 1.387 . S
C1000 H985 0.930 . S
C1000 C995 1.390 . S
C1000 C999 1.387 . S
H1001 C1013 0.930 . S
H1002 C1015 0.930 . S
H1003 C1016 0.930 . S
H1004 C1020 0.959 . S
H1005 C1020 0.959 . S
H1006 C1020 0.961 . S
H1007 C1021 0.960 . S
H1008 C1021 0.961 . S
H1009 C1021 0.959 . S
H1010 C1024 0.929 . S
H1011 C1025 0.931 . S
H1012 C1027 0.930 . S
C1013 H1001 0.930 . S
C1013 C1014 1.399 . S
C1013 C1018 1.399 . S
C1014 C1013 1.399 . S
C1014 C1015 1.376 . S
C1015 H1002 0.930 . S
C1015 C1014 1.376 . S
C1015 C1016 1.388 . S
C1016 H1003 0.930 . S
C1016 C1015 1.388 . S
C1016 C1017 1.390 . S
C1017 C1016 1.390 . S
C1017 C1018 1.394 . S
C1017 C1023 1.465 . S
C1018 C1013 1.399 . S
C1018 C1017 1.394 . S
C1018 C1019 1.516 . S
C1019 C1018 1.516 . S
C1019 C1020 1.502 . S
C1019 C1021 1.561 . S
C1019 C1022 1.526 . S
C1020 H1004 0.959 . S
C1020 H1005 0.959 . S
C1020 H1006 0.961 . S
C1020 C1019 1.502 . S
C1021 H1007 0.960 . S
C1021 H1008 0.961 . S
C1021 H1009 0.959 . S
C1021 C1019 1.561 . S
C1022 C1019 1.526 . S
C1022 C1023 1.396 . S
C1022 C1027 1.390 . S
C1023 C1017 1.465 . S
C1023 C1022 1.396 . S
C1023 C1024 1.399 . S
C1024 H1010 0.929 . S
C1024 C1023 1.399 . S
C1024 C1025 1.385 . S
C1025 H1011 0.931 . S
C1025 C1024 1.385 . S
C1025 C1026 1.389 . S
C1026 C1025 1.389 . S
C1026 C1027 1.387 . S
C1027 H1012 0.930 . S
C1027 C1022 1.390 . S
C1027 C1026 1.387 . S
H1028 C1040 0.930 . S
H1029 C1042 0.930 . S
H1030 C1043 0.930 . S
H1031 C1047 0.959 . S
H1032 C1047 0.959 . S
H1033 C1047 0.961 . S
H1034 C1048 0.960 . S
H1035 C1048 0.961 . S
H1036 C1048 0.959 . S
H1037 C1051 0.929 . S
H1038 C1052 0.931 . S
H1039 C1054 0.930 . S
C1040 H1028 0.930 . S
C1040 C1041 1.399 . S
C1040 C1045 1.399 . S
C1041 C1040 1.399 . S
C1041 C1042 1.376 . S
C1042 H1029 0.930 . S
C1042 C1041 1.376 . S
C1042 C1043 1.388 . S
C1043 H1030 0.930 . S
C1043 C1042 1.388 . S
C1043 C1044 1.390 . S
C1044 C1043 1.390 . S
C1044 C1045 1.394 . S
C1044 C1050 1.465 . S
C1045 C1040 1.399 . S
C1045 C1044 1.394 . S
C1045 C1046 1.516 . S
C1046 C1045 1.516 . S
C1046 C1047 1.502 1_655 S
C1046 C1048 1.561 . S
C1046 C1049 1.526 . S
C1047 H1031 0.959 . S
C1047 H1032 0.959 . S
C1047 H1033 0.961 . S
C1047 C1046 1.502 1_455 S
C1048 H1034 0.960 . S
C1048 H1035 0.961 . S
C1048 H1036 0.959 . S
C1048 C1046 1.561 . S
C1049 C1046 1.526 . S
C1049 C1050 1.396 . S
C1049 C1054 1.390 . S
C1050 C1044 1.465 . S
C1050 C1049 1.396 . S
C1050 C1051 1.399 . S
C1051 H1037 0.929 . S
C1051 C1050 1.399 . S
C1051 C1052 1.385 . S
C1052 H1038 0.931 . S
C1052 C1051 1.385 . S
C1052 C1053 1.389 . S
C1053 C1052 1.389 . S
C1053 C1054 1.387 . S
C1054 H1039 0.930 . S
C1054 C1049 1.390 . S
C1054 C1053 1.387 . S
H1055 C1067 0.930 . S
H1056 C1069 0.930 . S
H1057 C1070 0.930 . S
H1058 C1074 0.959 . S
H1059 C1074 0.959 . S
H1060 C1074 0.961 . S
H1061 C1075 0.960 . S
H1062 C1075 0.946 1_545 S
H1063 C1075 0.959 . S
H1064 C1078 0.929 . S
H1065 C1079 0.931 . S
H1066 C1081 0.930 1_545 S
C1067 H1055 0.930 . S
C1067 C1068 1.399 . S
C1067 C1072 1.399 . S
C1068 C1067 1.399 . S
C1068 C1069 1.376 . S
C1069 H1056 0.930 . S
C1069 C1068 1.376 . S
C1069 C1070 1.388 . S
C1070 H1057 0.930 . S
C1070 C1069 1.388 . S
C1070 C1071 1.390 . S
C1071 C1070 1.390 . S
C1071 C1072 1.394 . S
C1071 C1077 1.465 . S
C1072 C1067 1.399 . S
C1072 C1071 1.394 . S
C1072 C1073 1.516 . S
C1073 C1072 1.516 . S
C1073 C1074 1.502 1_565 S
C1073 C1075 1.561 . S
C1073 C1076 1.526 . S
C1074 H1058 0.959 . S
C1074 H1059 0.959 . S
C1074 H1060 0.961 . S
C1074 C1073 1.502 1_545 S
C1075 H1061 0.960 . S
C1075 H1062 0.946 1_565 S
C1075 H1063 0.959 . S
C1075 C1073 1.561 . S
C1076 C1073 1.526 . S
C1076 C1077 1.396 . S
C1076 C1081 1.390 . S
C1077 C1071 1.465 . S
C1077 C1076 1.396 . S
C1077 C1078 1.399 . S
C1078 H1064 0.929 . S
C1078 C1077 1.399 . S
C1078 C1079 1.385 . S
C1079 H1065 0.931 . S
C1079 C1078 1.385 . S
C1079 C1080 1.389 . S
C1080 C1079 1.389 . S
C1080 C1081 1.387 . S
C1081 H1066 0.930 1_565 S
C1081 C1076 1.390 . S
C1081 C1080 1.387 . S
H1082 C1094 0.930 . S
H1083 C1096 0.930 . S
H1084 C1097 0.930 . S
H1085 C1101 0.959 . S
H1086 C1101 0.959 . S
H1087 C1101 0.961 . S
H1088 C1102 0.960 . S
H1089 C1102 0.961 . S
H1090 C1102 0.959 . S
H1091 C1105 0.929 . S
H1092 C1106 0.931 . S
H1093 C1108 0.930 . S
C1094 H1082 0.930 . S
C1094 C1095 1.399 . S
C1094 C1099 1.399 . S
C1095 C1094 1.399 . S
C1095 C1096 1.376 . S
C1096 H1083 0.930 . S
C1096 C1095 1.376 . S
C1096 C1097 1.388 . S
C1097 H1084 0.930 . S
C1097 C1096 1.388 . S
C1097 C1098 1.390 . S
C1098 C1097 1.390 . S
C1098 C1099 1.394 . S
C1098 C1104 1.465 . S
C1099 C1094 1.399 . S
C1099 C1098 1.394 . S
C1099 C1100 1.516 . S
C1100 C1099 1.516 . S
C1100 C1101 1.502 . S
C1100 C1102 1.561 . S
C1100 C1103 1.526 . S
C1101 H1085 0.959 . S
C1101 H1086 0.959 . S
C1101 H1087 0.961 . S
C1101 C1100 1.502 . S
C1102 H1088 0.960 . S
C1102 H1089 0.961 . S
C1102 H1090 0.959 . S
C1102 C1100 1.561 . S
C1103 C1100 1.526 . S
C1103 C1104 1.396 . S
C1103 C1108 1.390 . S
C1104 C1098 1.465 . S
C1104 C1103 1.396 . S
C1104 C1105 1.399 . S
C1105 H1091 0.929 . S
C1105 C1104 1.399 . S
C1105 C1106 1.385 . S
C1106 H1092 0.931 . S
C1106 C1105 1.385 . S
C1106 C1107 1.389 . S
C1107 C1106 1.389 . S
C1107 C1108 1.387 . S
C1108 H1093 0.930 . S
C1108 C1103 1.390 . S
C1108 C1107 1.387 . S
H1109 C1121 0.930 . S
H1110 C1123 0.930 . S
H1111 C1124 0.930 . S
H1112 C1128 0.959 . S
H1113 C1128 0.959 . S
H1114 C1128 0.961 . S
H1115 C1129 0.960 . S
H1116 C1129 0.961 . S
H1117 C1129 0.959 . S
H1118 C1132 0.929 . S
H1119 C1133 0.931 . S
H1120 C1135 0.930 . S
C1121 H1109 0.930 . S
C1121 C1122 1.399 . S
C1121 C1126 1.399 . S
C1122 C1121 1.399 . S
C1122 C1123 1.376 . S
C1123 H1110 0.930 . S
C1123 C1122 1.376 . S
C1123 C1124 1.388 . S
C1124 H1111 0.930 . S
C1124 C1123 1.388 . S
C1124 C1125 1.390 . S
C1125 C1124 1.390 . S
C1125 C1126 1.394 . S
C1125 C1131 1.465 . S
C1126 C1121 1.399 . S
C1126 C1125 1.394 . S
C1126 C1127 1.516 . S
C1127 C1126 1.516 . S
C1127 C1128 1.502 . S
C1127 C1129 1.561 . S
C1127 C1130 1.526 . S
C1128 H1112 0.959 . S
C1128 H1113 0.959 . S
C1128 H1114 0.961 . S
C1128 C1127 1.502 . S
C1129 H1115 0.960 . S
C1129 H1116 0.961 . S
C1129 H1117 0.959 . S
C1129 C1127 1.561 . S
C1130 C1127 1.526 . S
C1130 C1131 1.396 . S
C1130 C1135 1.390 . S
C1131 C1125 1.465 . S
C1131 C1130 1.396 . S
C1131 C1132 1.399 . S
C1132 H1118 0.929 . S
C1132 C1131 1.399 . S
C1132 C1133 1.385 . S
C1133 H1119 0.931 . S
C1133 C1132 1.385 . S
C1133 C1134 1.389 . S
C1134 C1133 1.389 . S
C1134 C1135 1.387 . S
C1135 H1120 0.930 . S
C1135 C1130 1.390 . S
C1135 C1134 1.387 . S
C501 C125 1.917 . S
C513 C226 1.962 . S
C540 C310 1.942 . S
C528 C144 1.929 . S
C567 C376 1.948 . S
C555 C87 2.024 . S
C594 C460 1.960 . S
C582 C106 1.967 . S
C621 C215 1.912 1_565 S
C609 C49 2.005 . S
C636 C68 2.004 . S
C648 C299 1.982 . S
C663 C11 2.116 . S
C675 C387 1.976 . S
C690 C30 2.104 . S
C702 C471 1.921 . S
C729 C222 0.643 1_455 S
C717 C97 0.607 . S
C756 C306 0.616 . S
C744 C116 0.586 . S
C783 C378 0.681 . S
C771 C135 0.663 . S
C798 C78 0.578 . S
C810 C462 0.589 . S
C825 C21 0.630 . S
C837 C210 0.678 1_554 S
C864 C294 0.732 . S
C852 C40 0.763 . S
C891 C390 0.720 . S
C879 C59 0.725 . S
C906 C2 0.711 . S
C918 C474 0.719 . S
C933 C101 1.989 . S
C945 C219 2.100 . S
C960 C120 2.036 . S
C972 C303 2.031 . S
C999 C383 2.077 . S
C987 C139 1.943 . S
C1026 C467 2.093 . S
C1014 C82 1.895 . S
C1041 C25 2.061 . S
C1053 C208 2.059 . S
C1080 C292 2.041 1_565 S
C1068 C44 2.015 . S
C1107 C394 2.072 . S
C1095 C63 1.871 . S
C1122 C6 1.897 . S
C1134 C478 2.117 . S
