# Generated by pormake.
# Topology pts, (4,4)-cn, num edge types: 1
# Building blocks:
#     Node 0, Type 0, BuildingBlock: NAWXER_clean_linker_0, # of connection points: 4
#     Node 1, Type 0, BuildingBlock: NAWXER_clean_linker_0, # of connection points: 4
#     Node 2, Type 1, BuildingBlock: AZAVOO_clean_sbu_0, # of connection points: 4
#     Node 3, Type 1, BuildingBlock: AZAVOO_clean_sbu_0, # of connection points: 4
#     Edge 4, Type (0, 1), BuildingBlock: XUDNAN_clean_linker_2, # of connection points: 2
#     Edge 5, Type (0, 1), BuildingBlock: XUDNAN_clean_linker_2, # of connection points: 2
#     Edge 6, Type (0, 1), BuildingBlock: XUDNAN_clean_linker_2, # of connection points: 2
#     Edge 7, Type (0, 1), BuildingBlock: XUDNAN_clean_linker_2, # of connection points: 2
#     Edge 8, Type (0, 1), BuildingBlock: XUDNAN_clean_linker_2, # of connection points: 2
#     Edge 9, Type (0, 1), BuildingBlock: XUDNAN_clean_linker_2, # of connection points: 2
#     Edge 10, Type (0, 1), BuildingBlock: XUDNAN_clean_linker_2, # of connection points: 2
#     Edge 11, Type (0, 1), BuildingBlock: XUDNAN_clean_linker_2, # of connection points: 2
# Relax obj value: 0.000
# Max RMSD: 0.035
# Mean RMSD: 0.020
data_MOF--net-pts--node1-AZAVOO_clean_sbu_0--node2-NAWXER_clean_linker_0--edge1-XUDNAN_clean_linker_2
_symmetry_space_group_name_H-M    P1
_symmetry_Int_Tables_number       1
_symmetry_cell_setting            triclinic
loop_
_symmetry_equiv_pos_as_xyz
'x, y, z'
_cell_length_a     29.001836
_cell_length_b     29.823094
_cell_length_c     42.822758
_cell_angle_alpha  90.16948
_cell_angle_beta   96.158355
_cell_angle_gamma 89.928941
loop_
_atom_site_label
_atom_site_type_symbol
_atom_site_fract_x
_atom_site_fract_y
_atom_site_fract_z
_atom_type_partial_charge
C0 C 0.67331 0.09253 0.94723 0.0
C1 C 0.67521 0.06262 0.92195 0.0
C2 C 0.63754 0.0895 0.96662 0.0
C3 C 0.60311 0.05645 0.96109 0.0
C4 C 0.64004 0.03034 0.91605 0.0
C5 C 0.6042 0.02751 0.93529 0.0
C6 C 0.56575 0.05162 0.98186 0.0
C7 C 0.69851 0.01288 0.03988 0.0
C8 C 0.7091 0.03848 0.06732 0.0
C9 C 0.65494 0.01629 0.02259 0.0
C10 C 0.62142 0.0461 0.032 0.0
C11 C 0.67541 0.06804 0.07681 0.0
C12 C 0.63198 0.07169 0.05937 0.0
C13 C 0.57424 0.04834 0.01489 0.0
C14 C 0.39615 0.98121 0.05369 0.0
C15 C 0.38949 0.00907 0.07938 0.0
C16 C 0.42937 0.99189 0.03359 0.0
C17 C 0.45649 0.03068 0.03875 0.0
C18 C 0.41645 0.04808 0.08437 0.0
C19 C 0.45005 0.05852 0.06441 0.0
C20 C 0.49288 0.04118 0.01823 0.0
C21 C 0.3542 0.05816 0.96225 0.0
C22 C 0.3481 0.03599 0.93299 0.0
C23 C 0.39823 0.06226 0.97885 0.0
C24 C 0.43712 0.04224 0.96752 0.0
C25 C 0.38765 0.01812 0.92097 0.0
C26 C 0.43131 0.0208 0.93813 0.0
C27 C 0.48425 0.04456 0.98514 0.0
H28 H 0.69994 0.11772 0.95238 0.0
H29 H 0.63691 0.11279 0.98603 0.0
H30 H 0.64012 0.00732 0.89644 0.0
H31 H 0.57777 0.00205 0.93039 0.0
H32 H 0.72339 0.98916 0.03232 0.0
H33 H 0.64716 0.99484 0.00227 0.0
H34 H 0.68263 0.08838 0.09776 0.0
H35 H 0.60654 0.0945 0.06731 0.0
H36 H 0.37579 0.95099 0.04925 0.0
H37 H 0.43427 0.96958 0.0142 0.0
H38 H 0.41245 0.06981 0.10422 0.0
H39 H 0.47097 0.08838 0.06894 0.0
H40 H 0.32507 0.0723 0.97267 0.0
H41 H 0.40156 0.08128 1.00051 0.0
H42 H 0.38534 0.00234 0.89809 0.0
H43 H 0.46068 0.00589 0.92833 0.0
N44 N 0.5212 0.04941 0.96835 0.0
N45 N 0.53742 0.04357 0.03176 0.0
C46 C 0.05888 0.65556 0.55934 0.0
C47 C 0.02974 0.65684 0.58357 0.0
C48 C 0.05591 0.62034 0.53764 0.0
C49 C 0.02316 0.58603 0.53937 0.0
C50 C 0.99661 0.62275 0.58501 0.0
C51 C 0.99353 0.58762 0.56321 0.0
C52 C 0.0233 0.54584 0.519 0.0
C53 C 0.98723 0.65933 0.45079 0.0
C54 C 0.01353 0.66192 0.42503 0.0
C55 C 0.99187 0.62267 0.47121 0.0
C56 C 0.02408 0.58852 0.46698 0.0
C57 C 0.04528 0.62733 0.42075 0.0
C58 C 0.05072 0.59143 0.44156 0.0
C59 C 0.02726 0.54721 0.48636 0.0
C60 C 0.01329 0.35787 0.44198 0.0
C61 C 0.05099 0.3564 0.42374 0.0
C62 C 0.00885 0.39303 0.46314 0.0
C63 C 0.04169 0.42761 0.4662 0.0
C64 C 0.08433 0.39077 0.42756 0.0
C65 C 0.07937 0.42623 0.44827 0.0
C66 C 0.03502 0.46745 0.48568 0.0
C67 C 0.07646 0.35795 0.55558 0.0
C68 C 0.04613 0.35113 0.57865 0.0
C69 C 0.07038 0.39433 0.53509 0.0
C70 C 0.03333 0.42426 0.53685 0.0
C71 C 0.00867 0.38075 0.58008 0.0
C72 C 0.00249 0.41703 0.55947 0.0
C73 C 0.02955 0.46586 0.51799 0.0
H74 H 0.08443 0.68155 0.55732 0.0
H75 H 0.08016 0.6193 0.5201 0.0
H76 H 0.97404 0.62237 0.60357 0.0
H77 H 0.9685 0.56116 0.56534 0.0
H78 H 0.96276 0.68543 0.45518 0.0
H79 H 0.96941 0.62069 0.48978 0.0
H80 H 0.06534 0.62716 0.40085 0.0
H81 H 0.07534 0.56533 0.43733 0.0
H82 H 0.9864 0.33259 0.43934 0.0
H83 H 0.97899 0.394 0.47631 0.0
H84 H 0.11432 0.39043 0.41454 0.0
H85 H 0.10501 0.45278 0.45026 0.0
H86 H 0.10538 0.33549 0.5536 0.0
H87 H 0.09573 0.39985 0.5187 0.0
H88 H 0.985 0.37682 0.59779 0.0
H89 H 0.97405 0.44005 0.56161 0.0
N90 N 0.02402 0.50516 0.53331 0.0
N91 N 0.03337 0.50789 0.47125 0.0
Mg92 Mg 0.07831 0.98846 0.26625 0.0
O93 O 0.01396 -0.00466 0.2299 0.0
O94 O 0.95253 -0.00438 0.25736 0.0
Mg95 Mg 0.97542 0.98568 0.30962 0.0
C96 C 0.97019 -0.00205 0.23133 0.0
C97 C 0.16147 0.97618 0.23235 0.0
O98 O 0.16299 0.9466 0.25511 0.0
O99 O 0.0704 0.06174 0.28163 0.0
O100 O 0.012 0.05363 0.3114 0.0
O101 O 0.07487 0.91311 0.2646 0.0
O102 O 0.03866 0.95516 0.29664 0.0
C103 C 0.04344 0.07741 0.30081 0.0
C104 C 0.04729 0.91599 0.28629 0.0
O105 O 0.12836 0.00444 0.22978 0.0
Mg106 Mg 0.98306 -0.00029 0.73042 0.0
O107 O 0.04334 -0.00229 0.77016 0.0
O108 O 0.10802 0.97808 0.74929 0.0
Mg109 Mg 0.0906 0.97071 0.69633 0.0
C110 C 0.08673 0.98885 0.77281 0.0
C111 C 0.9187 0.00782 0.78352 0.0
O112 O 0.92927 0.96498 0.78456 0.0
O113 O 0.00968 0.06721 0.71469 0.0
O114 O 0.07414 0.04606 0.69399 0.0
O115 O 0.96975 0.9254 0.73347 0.0
O116 O 0.01887 0.95597 0.70386 0.0
C117 C 0.04564 0.07624 0.70103 0.0
C118 C 1.00084 0.92047 0.71424 0.0
O119 O 0.93609 0.03262 0.76369 0.0
H120 H 0.32363 0.06157 0.10386 0.0
H121 H 0.3812 0.92708 0.10586 0.0
H122 H 0.32794 0.90453 0.14416 0.0
H123 H 0.30808 0.06879 0.18573 0.0
H124 H 0.25385 0.09876 0.17971 0.0
H125 H 0.29594 0.10456 0.15197 0.0
H126 H 0.23437 0.08008 0.10685 0.0
H127 H 0.19206 0.07422 0.13446 0.0
H128 H 0.20435 0.02761 0.10976 0.0
H129 H 0.27215 0.89717 0.18357 0.0
H130 H 0.21336 0.9038 0.2206 0.0
H131 H 0.18818 0.04227 0.19252 0.0
C132 C 0.32491 0.02741 0.11242 0.0
C133 C 0.35642 -0.00404 0.10186 0.0
C134 C 0.35696 0.9515 0.11336 0.0
C135 C 0.32701 0.93845 0.13521 0.0
C136 C 0.29643 0.97016 0.14515 0.0
C137 C 0.29477 0.01362 0.13404 0.0
C138 C 0.25823 0.0408 0.14865 0.0
C139 C 0.28036 0.08058 0.16764 0.0
C140 C 0.21998 0.0566 0.12342 0.0
C141 C 0.24007 0.00588 0.16995 0.0
C142 C 0.26291 0.9655 0.16755 0.0
C143 C 0.25376 0.92847 0.18552 0.0
C144 C 0.22037 0.93269 0.20659 0.0
C145 C 0.19608 0.97351 0.20941 0.0
C146 C 0.20589 0.01054 0.19065 0.0
H147 H 0.9819 0.29564 0.60164 0.0
H148 H 0.12962 0.32323 0.60817 0.0
H149 H 0.14448 0.2602 0.64495 0.0
H150 H 0.97988 0.26238 0.6848 0.0
H151 H 0.93723 0.21925 0.67502 0.0
H152 H 0.93763 0.26879 0.65103 0.0
H153 H 0.94358 0.21927 0.60179 0.0
H154 H 0.94302 0.1697 0.62556 0.0
H155 H 0.98995 0.17892 0.60194 0.0
H156 H 0.14429 0.1904 0.67642 0.0
H157 H 0.12882 0.11776 0.70077 0.0
H158 H 0.98111 0.13735 0.67677 0.0
C159 C 0.01729 0.28901 0.61129 0.0
C160 C 0.05461 0.31426 0.60183 0.0
C161 C 0.1005 0.30391 0.61459 0.0
C162 C 0.10928 0.26849 0.6358 0.0
C163 C 0.07178 0.24404 0.64436 0.0
C164 C 0.02667 0.25392 0.63268 0.0
C165 C 0.99291 0.22074 0.64435 0.0
C166 C 0.95997 0.2442 0.66503 0.0
C167 C 0.96579 0.19568 0.61677 0.0
C168 C 0.02628 0.18987 0.66362 0.0
C169 C 0.07159 0.2042 0.66347 0.0
C170 C 0.10895 0.17926 0.67726 0.0
C171 C 0.09986 0.13809 0.69096 0.0
C172 C 0.05381 0.12248 0.691 0.0
C173 C 0.01653 0.14921 0.67781 0.0
H174 H 0.72468 0.0308 0.13122 0.0
H175 H 0.79573 0.03333 0.04712 0.0
H176 H 0.8709 0.02321 0.07965 0.0
H177 H 0.8106 0.09157 0.18124 0.0
H178 H 0.80295 0.05837 0.21541 0.0
H179 H 0.75526 0.06602 0.18533 0.0
H180 H 0.74641 0.97979 0.17961 0.0
H181 H 0.79414 0.97187 0.20962 0.0
H182 H 0.79566 0.94645 0.17151 0.0
H183 H 0.9386 0.01312 0.12209 0.0
H184 H 0.99246 0.0029 0.17041 0.0
H185 H 0.87566 0.00688 0.22594 0.0
C186 C 0.75608 0.02973 0.11964 0.0
C187 C 0.75442 0.03309 0.08666 0.0
C188 C 0.79623 0.03057 0.07236 0.0
C189 C 0.83904 0.025 0.09064 0.0
C190 C 0.83939 0.0218 0.12315 0.0
C191 C 0.79892 0.02397 0.13746 0.0
C192 C 0.80839 0.01898 0.17269 0.0
C193 C 0.79342 0.06126 0.18966 0.0
C194 C 0.78475 0.97676 0.18401 0.0
C195 C 0.86057 0.01394 0.17607 0.0
C196 C 0.87794 0.01563 0.14731 0.0
C197 C 0.92533 0.01172 0.14474 0.0
C198 C 0.95566 0.00592 0.17233 0.0
C199 C 0.93844 0.00403 0.20207 0.0
C200 C 0.89017 0.00812 0.20369 0.0
H201 H 0.9608 0.70197 0.61019 0.0
H202 H 0.11049 0.69314 0.61183 0.0
H203 H 0.11938 0.75467 0.65056 0.0
H204 H 0.95359 0.81854 0.61431 0.0
H205 H 0.90757 0.81982 0.63944 0.0
H206 H 0.91313 0.77263 0.61388 0.0
H207 H 0.91684 0.71913 0.66167 0.0
H208 H 0.91153 0.76631 0.68745 0.0
H209 H 0.95985 0.72832 0.69469 0.0
H210 H 0.11209 0.82143 0.68482 0.0
H211 H 0.08865 0.8897 0.71195 0.0
H212 H 0.94416 0.85316 0.69063 0.0
C213 C 0.99548 0.71233 0.61917 0.0
C214 C 0.03494 0.6928 0.60782 0.0
C215 C 0.0797 0.70803 0.61974 0.0
C216 C 0.08514 0.74261 0.64203 0.0
C217 C 0.04555 0.76133 0.6525 0.0
C218 C 0.00157 0.74665 0.6416 0.0
C219 C 0.96468 0.77428 0.65528 0.0
C220 C 0.9329 0.79771 0.62917 0.0
C221 C 0.93657 0.74527 0.67601 0.0
C222 C 0.99479 0.80767 0.67483 0.0
C223 C 0.04137 0.79932 0.67309 0.0
C224 C 0.0758 0.82787 0.68684 0.0
C225 C 0.06223 0.86658 0.70207 0.0
C226 C 0.01476 0.87611 0.70358 0.0
C227 C 0.98072 0.84574 0.69054 0.0
H228 H 0.31565 0.96974 0.89071 0.0
H229 H 0.27335 0.09411 0.93282 0.0
H230 H 0.19724 0.08838 0.90192 0.0
H231 H 0.26875 -0.00099 0.81453 0.0
H232 H 0.25238 0.94255 0.80303 0.0
H233 H 0.3004 0.95201 0.8325 0.0
H234 H 0.26135 0.90143 0.87117 0.0
H235 H 0.2129 0.89216 0.84184 0.0
H236 H 0.20327 0.91407 0.87988 0.0
H237 H 0.12664 0.07162 0.86407 0.0
H238 H 0.07243 0.05103 0.81769 0.0
H239 H 0.16498 0.94371 0.79599 0.0
C240 C 0.29079 -0.00392 0.89361 0.0
C241 C 0.30114 0.03214 0.91483 0.0
C242 C 0.26653 0.06523 0.9177 0.0
C243 C 0.22297 0.06248 0.90003 0.0
C244 C 0.21447 0.02682 0.87916 0.0
C245 C 0.24771 0.9946 0.87554 0.0
C246 C 0.23212 0.96269 0.84893 0.0
C247 C 0.26537 0.96419 0.82323 0.0
C248 C 0.22711 0.91475 0.8612 0.0
C249 C 0.18534 0.98268 0.83762 0.0
C250 C 0.17515 0.01886 0.85594 0.0
C251 C 0.13418 0.04326 0.84964 0.0
C252 C 0.10351 0.0312 0.82336 0.0
C253 C 0.11463 -0.00417 0.80334 0.0
C254 C 0.15564 0.97083 0.81098 0.0
H255 H 0.02633 0.26787 0.42863 0.0
H256 H 0.08469 0.36134 0.36592 0.0
H257 H 0.09174 0.30007 0.32791 0.0
H258 H 0.09338 0.17189 0.41238 0.0
H259 H 0.04582 0.13335 0.41375 0.0
H260 H 0.04775 0.18423 0.43658 0.0
H261 H 0.96624 0.20629 0.41016 0.0
H262 H 0.96402 0.15544 0.3873 0.0
H263 H 0.95617 0.2089 0.36792 0.0
H264 H 0.09289 0.22692 0.2966 0.0
H265 H 0.08349 0.15008 0.27424 0.0
H266 H 0.01894 0.1084 0.35627 0.0
C267 C 0.04018 0.27584 0.40683 0.0
C268 C 0.05521 0.31961 0.40056 0.0
C269 C 0.07382 0.32797 0.37177 0.0
C270 C 0.07768 0.29343 0.34984 0.0
C271 C 0.06233 0.25076 0.35682 0.0
C272 C 0.0436 0.24208 0.38454 0.0
C273 C 0.02814 0.1939 0.38617 0.0
C274 C 0.05541 0.16941 0.41386 0.0
C275 C 0.97552 0.19099 0.38798 0.0
C276 C 0.04102 0.17677 0.35503 0.0
C277 C 0.06116 0.20973 0.33845 0.0
C278 C 0.07684 0.20093 0.30931 0.0
C279 C 0.07147 0.1573 0.29681 0.0
C280 C 0.04999 0.12349 0.31331 0.0
C281 C 0.0348 0.13366 0.34278 0.0
H282 H 0.7247 0.9923 0.90137 0.0
H283 H 0.71301 0.13722 0.89719 0.0
H284 H 0.77596 0.13974 0.86248 0.0
H285 H 0.84947 0.98694 0.90219 0.0
H286 H 0.84783 0.93705 0.87824 0.0
H287 H 0.80294 0.94717 0.90339 0.0
H288 H 0.74054 0.94004 0.85555 0.0
H289 H 0.78521 0.92989 0.83026 0.0
H290 H 0.74443 0.97499 0.82165 0.0
H291 H 0.83802 0.12554 0.82597 0.0
H292 H 0.89535 0.09607 0.79223 0.0
H293 H 0.86629 0.96068 0.82146 0.0
C294 C 0.73529 0.02458 0.8931 0.0
C295 C 0.71387 0.06457 0.90187 0.0
C296 C 0.72921 0.1062 0.89094 0.0
C297 C 0.76478 0.10793 0.87113 0.0
C298 C 0.78488 0.06777 0.86272 0.0
C299 C 0.77082 0.02691 0.87354 0.0
C300 C 0.79762 0.98854 0.86095 0.0
C301 C 0.82616 0.96346 0.8878 0.0
C302 C 0.765 0.95649 0.84091 0.0
C303 C 0.82861 0.01407 0.84099 0.0
C304 C 0.82083 0.05973 0.84227 0.0
C305 C 0.84459 0.08987 0.82498 0.0
C306 C 0.87703 0.07282 0.80585 0.0
C307 C 0.88548 0.0261 0.80428 0.0
C308 C 0.86098 -0.0034 0.82229 0.0
H309 H 0.07991 0.70085 0.39241 0.0
H310 H 0.93364 0.70939 0.40576 0.0
H311 H 0.92472 0.77254 0.36863 0.0
H312 H 0.10194 0.81527 0.38569 0.0
H313 H 0.13996 0.80882 0.35532 0.0
H314 H 0.13443 0.76412 0.38277 0.0
H315 H 0.11153 0.70941 0.33655 0.0
H316 H 0.11678 0.75409 0.30891 0.0
H317 H 0.06336 0.72304 0.30797 0.0
H318 H 0.93359 0.83895 0.33328 0.0
H319 H 0.95936 0.90122 0.30113 0.0
H320 H 0.09673 0.84273 0.3062 0.0
C321 C 0.04563 0.7151 0.38718 0.0
C322 C 0.00758 0.69988 0.40234 0.0
C323 C 0.96374 0.72079 0.39515 0.0
C324 C 0.95812 0.75641 0.37373 0.0
C325 C 0.99637 0.77017 0.35916 0.0
C326 C 0.03914 0.74981 0.36536 0.0
C327 C 0.07494 0.77111 0.34689 0.0
C328 C 0.11516 0.79102 0.36899 0.0
C329 C 0.09268 0.7374 0.3237 0.0
C330 C 0.04591 0.80741 0.32985 0.0
C331 C 1.00068 0.80649 0.3373 0.0
C332 C 0.9686 0.83943 0.32673 0.0
C333 C 0.98347 0.87462 0.30858 0.0
C334 C 0.02962 0.87595 0.30083 0.0
C335 C 0.06083 0.84146 0.311 0.0
loop_
_geom_bond_atom_site_label_1
_geom_bond_atom_site_label_2
_geom_bond_distance
_geom_bond_site_symmetry_2
_ccdc_geom_bond_type
C0 C1 1.384 . S
C0 C2 1.384 . S
C0 H28 0.931 . S
C1 C0 1.384 . S
C1 C4 1.382 1_545 S
C2 C0 1.384 . S
C2 C3 1.381 . S
C2 H29 0.930 . S
C3 C2 1.381 . S
C3 C5 1.381 1_545 S
C3 C6 1.487 . S
C4 C1 1.382 1_565 S
C4 C5 1.387 . S
C4 H30 0.930 . S
C5 C3 1.381 1_565 S
C5 C4 1.387 . S
C5 H31 0.931 . S
C6 C3 1.487 . S
C6 C13 1.399 1_556 S
C6 N44 1.343 . S
C7 C8 1.384 1_565 S
C7 C9 1.384 . S
C7 H32 0.931 . S
C8 C7 1.384 1_545 S
C8 C11 1.382 . S
C9 C7 1.384 . S
C9 C10 1.381 1_565 S
C9 H33 0.930 . S
C10 C9 1.381 1_545 S
C10 C12 1.381 . S
C10 C13 1.487 . S
C11 C8 1.382 . S
C11 C12 1.387 . S
C11 H34 0.930 . S
C12 C10 1.381 . S
C12 C11 1.387 . S
C12 H35 0.931 . S
C13 C6 1.399 1_554 S
C13 C10 1.487 . S
C13 N45 1.343 . S
C14 C15 1.384 1_565 S
C14 C16 1.384 . S
C14 H36 0.931 . S
C15 C14 1.384 1_545 S
C15 C18 1.382 . S
C16 C14 1.384 . S
C16 C17 1.381 1_565 S
C16 H37 0.930 . S
C17 C16 1.381 1_545 S
C17 C19 1.381 . S
C17 C20 1.487 . S
C18 C15 1.382 . S
C18 C19 1.387 . S
C18 H38 0.930 . S
C19 C17 1.381 . S
C19 C18 1.387 . S
C19 H39 0.931 . S
C20 C17 1.487 . S
C20 C27 1.399 1_554 S
C20 N45 1.343 . S
C21 C22 1.384 . S
C21 C23 1.384 . S
C21 H40 0.931 . S
C22 C21 1.384 . S
C22 C25 1.382 1_545 S
C23 C21 1.384 . S
C23 C24 1.381 . S
C23 H41 0.930 . S
C24 C23 1.381 . S
C24 C26 1.381 1_545 S
C24 C27 1.487 . S
C25 C22 1.382 1_565 S
C25 C26 1.387 . S
C25 H42 0.930 . S
C26 C24 1.381 1_565 S
C26 C25 1.387 . S
C26 H43 0.931 . S
C27 C20 1.399 1_556 S
C27 C24 1.487 . S
C27 N44 1.343 . S
H28 C0 0.931 . S
H29 C2 0.930 . S
H30 C4 0.930 . S
H31 C5 0.931 . S
H32 C7 0.931 . S
H33 C9 0.930 . S
H34 C11 0.930 . S
H35 C12 0.931 . S
H36 C14 0.931 . S
H37 C16 0.930 . S
H38 C18 0.930 . S
H39 C19 0.931 . S
H40 C21 0.931 . S
H41 C23 0.930 . S
H42 C25 0.930 . S
H43 C26 0.931 . S
N44 C6 1.343 . S
N44 C27 1.343 . S
N45 C13 1.343 . S
N45 C20 1.343 . S
C46 C47 1.384 . S
C46 C48 1.384 . S
C46 H74 0.931 . S
C47 C46 1.384 . S
C47 C50 1.382 1_455 S
C48 C46 1.384 . S
C48 C49 1.381 . S
C48 H75 0.930 . S
C49 C48 1.381 . S
C49 C51 1.381 1_455 S
C49 C52 1.487 . S
C50 C47 1.382 1_655 S
C50 C51 1.387 . S
C50 H76 0.930 . S
C51 C49 1.381 1_655 S
C51 C50 1.387 . S
C51 H77 0.931 . S
C52 C49 1.487 . S
C52 C59 1.399 . S
C52 N90 1.343 . S
C53 C54 1.384 . S
C53 C55 1.384 . S
C53 H78 0.931 1_455 S
C54 C53 1.384 . S
C54 C57 1.382 . S
C55 C53 1.384 . S
C55 C56 1.381 . S
C55 H79 0.930 1_455 S
C56 C55 1.381 . S
C56 C58 1.381 . S
C56 C59 1.487 . S
C57 C54 1.382 . S
C57 C58 1.387 . S
C57 H80 0.930 . S
C58 C56 1.381 . S
C58 C57 1.387 . S
C58 H81 0.931 . S
C59 C52 1.399 . S
C59 C56 1.487 . S
C59 N91 1.343 . S
C60 C61 1.384 . S
C60 C62 1.384 . S
C60 H82 0.931 1_455 S
C61 C60 1.384 . S
C61 C64 1.382 . S
C62 C60 1.384 . S
C62 C63 1.381 . S
C62 H83 0.930 1_455 S
C63 C62 1.381 . S
C63 C65 1.381 . S
C63 C66 1.487 . S
C64 C61 1.382 . S
C64 C65 1.387 . S
C64 H84 0.930 . S
C65 C63 1.381 . S
C65 C64 1.387 . S
C65 H85 0.931 . S
C66 C63 1.487 . S
C66 C73 1.399 . S
C66 N91 1.343 . S
C67 C68 1.384 . S
C67 C69 1.384 . S
C67 H86 0.931 . S
C68 C67 1.384 . S
C68 C71 1.382 1_455 S
C69 C67 1.384 . S
C69 C70 1.381 . S
C69 H87 0.930 . S
C70 C69 1.381 . S
C70 C72 1.381 1_455 S
C70 C73 1.487 . S
C71 C68 1.382 1_655 S
C71 C72 1.387 . S
C71 H88 0.930 . S
C72 C70 1.381 1_655 S
C72 C71 1.387 . S
C72 H89 0.931 . S
C73 C66 1.399 . S
C73 C70 1.487 . S
C73 N90 1.343 . S
H74 C46 0.931 . S
H75 C48 0.930 . S
H76 C50 0.930 . S
H77 C51 0.931 . S
H78 C53 0.931 1_655 S
H79 C55 0.930 1_655 S
H80 C57 0.930 . S
H81 C58 0.931 . S
H82 C60 0.931 1_655 S
H83 C62 0.930 1_655 S
H84 C64 0.930 . S
H85 C65 0.931 . S
H86 C67 0.931 . S
H87 C69 0.930 . S
H88 C71 0.930 . S
H89 C72 0.931 . S
N90 C52 1.343 . S
N90 C73 1.343 . S
N91 C59 1.343 . S
N91 C66 1.343 . S
Mg92 O93 2.028 . S
Mg92 O99 1.986 . S
Mg92 O101 2.114 1_545 S
Mg92 O102 2.251 1_545 S
Mg92 O105 2.010 . S
O93 Mg92 2.028 . S
O93 C96 1.250 1_455 S
O94 Mg95 2.028 . S
O94 C96 1.248 . S
Mg95 O94 2.028 . S
Mg95 O100 2.032 1_655 S
Mg95 O102 2.079 1_645 S
C96 O93 1.250 1_655 S
C96 O94 1.248 . S
C97 O98 1.264 . S
C97 O105 1.249 . S
O98 C97 1.264 . S
O99 Mg92 1.986 . S
O99 C103 1.246 . S
O100 Mg95 2.032 1_455 S
O100 C103 1.259 . S
O101 Mg92 2.114 1_565 S
O101 C104 1.252 . S
O102 Mg92 2.251 1_565 S
O102 Mg95 2.079 1_465 S
O102 C104 1.273 . S
C103 O99 1.246 . S
C103 O100 1.259 . S
C104 O101 1.252 . S
C104 O102 1.273 . S
O105 Mg92 2.010 . S
O105 C97 1.249 . S
Mg106 O107 2.028 1_655 S
Mg106 O113 1.986 . S
Mg106 O115 2.114 1_545 S
Mg106 O116 2.251 1_645 S
Mg106 O119 2.010 . S
O107 Mg106 2.028 1_455 S
O107 C110 1.250 . S
O108 Mg109 2.028 . S
O108 C110 1.248 . S
Mg109 O108 2.028 . S
Mg109 O114 2.032 . S
Mg109 O116 2.079 1_545 S
C110 O107 1.250 . S
C110 O108 1.248 . S
C111 O112 1.264 . S
C111 O119 1.249 . S
O112 C111 1.264 . S
O113 Mg106 1.986 . S
O113 C117 1.246 1_655 S
O114 Mg109 2.032 . S
O114 C117 1.259 . S
O115 Mg106 2.114 1_565 S
O115 C118 1.252 1_655 S
O116 Mg106 2.251 1_465 S
O116 Mg109 2.079 1_565 S
O116 C118 1.273 . S
C117 O113 1.246 1_455 S
C117 O114 1.259 . S
C118 O115 1.252 1_455 S
C118 O116 1.273 . S
O119 Mg106 2.010 . S
O119 C111 1.249 . S
H120 C132 0.930 . S
H121 C134 0.930 . S
H122 C135 0.930 . S
H123 C139 0.959 . S
H124 C139 0.959 . S
H125 C139 0.961 . S
H126 C140 0.960 . S
H127 C140 0.961 . S
H128 C140 0.959 . S
H129 C143 0.929 . S
H130 C144 0.931 . S
H131 C146 0.930 . S
C132 H120 0.930 . S
C132 C133 1.399 . S
C132 C137 1.399 . S
C133 C132 1.399 . S
C133 C134 1.376 1_545 S
C134 H121 0.930 . S
C134 C133 1.376 1_565 S
C134 C135 1.388 . S
C135 H122 0.930 . S
C135 C134 1.388 . S
C135 C136 1.390 . S
C136 C135 1.390 . S
C136 C137 1.394 1_565 S
C136 C142 1.465 . S
C137 C132 1.399 . S
C137 C136 1.394 1_545 S
C137 C138 1.516 . S
C138 C137 1.516 . S
C138 C139 1.502 . S
C138 C140 1.561 . S
C138 C141 1.526 . S
C139 H123 0.959 . S
C139 H124 0.959 . S
C139 H125 0.961 . S
C139 C138 1.502 . S
C140 H126 0.960 . S
C140 H127 0.961 . S
C140 H128 0.959 . S
C140 C138 1.561 . S
C141 C138 1.526 . S
C141 C142 1.396 1_545 S
C141 C146 1.390 . S
C142 C136 1.465 . S
C142 C141 1.396 1_565 S
C142 C143 1.399 . S
C143 H129 0.929 . S
C143 C142 1.399 . S
C143 C144 1.385 . S
C144 H130 0.931 . S
C144 C143 1.385 . S
C144 C145 1.389 1_565 S
C145 C144 1.389 1_545 S
C145 C146 1.387 . S
C146 H131 0.930 . S
C146 C141 1.390 . S
C146 C145 1.387 . S
H147 C159 0.930 1_655 S
H148 C161 0.930 . S
H149 C162 0.930 . S
H150 C166 0.959 . S
H151 C166 0.959 . S
H152 C166 0.961 . S
H153 C167 0.960 1_655 S
H154 C167 0.961 1_655 S
H155 C167 0.959 . S
H156 C170 0.929 . S
H157 C171 0.931 . S
H158 C173 0.930 . S
C159 H147 0.930 1_455 S
C159 C160 1.399 . S
C159 C164 1.399 . S
C160 C159 1.399 . S
C160 C161 1.376 . S
C161 H148 0.930 . S
C161 C160 1.376 . S
C161 C162 1.388 . S
C162 H149 0.930 . S
C162 C161 1.388 . S
C162 C163 1.390 . S
C163 C162 1.390 . S
C163 C164 1.394 . S
C163 C169 1.465 . S
C164 C159 1.399 . S
C164 C163 1.394 . S
C164 C165 1.516 1_455 S
C165 C164 1.516 1_655 S
C165 C166 1.502 . S
C165 C167 1.561 1_655 S
C165 C168 1.526 1_655 S
C166 H150 0.959 . S
C166 H151 0.959 . S
C166 H152 0.961 . S
C166 C165 1.502 . S
C167 H153 0.960 1_455 S
C167 H154 0.961 1_455 S
C167 H155 0.959 . S
C167 C165 1.561 1_455 S
C168 C165 1.526 1_455 S
C168 C169 1.396 . S
C168 C173 1.390 1_455 S
C169 C163 1.465 . S
C169 C168 1.396 . S
C169 C170 1.399 . S
C170 H156 0.929 . S
C170 C169 1.399 . S
C170 C171 1.385 . S
C171 H157 0.931 . S
C171 C170 1.385 . S
C171 C172 1.389 . S
C172 C171 1.389 . S
C172 C173 1.387 1_455 S
C173 H158 0.930 . S
C173 C168 1.390 1_655 S
C173 C172 1.387 1_655 S
H174 C186 0.930 . S
H175 C188 0.930 . S
H176 C189 0.930 . S
H177 C193 0.959 . S
H178 C193 0.959 . S
H179 C193 0.961 . S
H180 C194 0.960 . S
H181 C194 0.961 . S
H182 C194 0.959 . S
H183 C197 0.929 . S
H184 C198 0.931 . S
H185 C200 0.930 . S
C186 H174 0.930 . S
C186 C187 1.399 1_565 S
C186 C191 1.399 . S
C187 C186 1.399 1_545 S
C187 C188 1.376 . S
C188 H175 0.930 . S
C188 C187 1.376 . S
C188 C189 1.388 . S
C189 H176 0.930 . S
C189 C188 1.388 . S
C189 C190 1.390 . S
C190 C189 1.390 . S
C190 C191 1.394 1_545 S
C190 C196 1.465 . S
C191 C186 1.399 . S
C191 C190 1.394 1_565 S
C191 C192 1.516 . S
C192 C191 1.516 . S
C192 C193 1.502 . S
C192 C194 1.561 . S
C192 C195 1.526 . S
C193 H177 0.959 . S
C193 H178 0.959 . S
C193 H179 0.961 . S
C193 C192 1.502 . S
C194 H180 0.960 . S
C194 H181 0.961 . S
C194 H182 0.959 . S
C194 C192 1.561 . S
C195 C192 1.526 . S
C195 C196 1.396 1_565 S
C195 C200 1.390 . S
C196 C190 1.465 . S
C196 C195 1.396 1_545 S
C196 C197 1.399 . S
C197 H183 0.929 . S
C197 C196 1.399 . S
C197 C198 1.385 . S
C198 H184 0.931 . S
C198 C197 1.385 . S
C198 C199 1.389 . S
C199 C198 1.389 . S
C199 C200 1.387 1_545 S
C200 H185 0.930 . S
C200 C195 1.390 . S
C200 C199 1.387 1_565 S
H201 C213 0.930 . S
H202 C215 0.930 . S
H203 C216 0.930 . S
H204 C220 0.959 . S
H205 C220 0.959 . S
H206 C220 0.961 . S
H207 C221 0.960 . S
H208 C221 0.961 . S
H209 C221 0.959 1_455 S
H210 C224 0.929 . S
H211 C225 0.931 . S
H212 C227 0.930 . S
C213 H201 0.930 . S
C213 C214 1.399 1_655 S
C213 C218 1.399 1_655 S
C214 C213 1.399 1_455 S
C214 C215 1.376 . S
C215 H202 0.930 . S
C215 C214 1.376 . S
C215 C216 1.388 . S
C216 H203 0.930 . S
C216 C215 1.388 . S
C216 C217 1.390 . S
C217 C216 1.390 . S
C217 C218 1.394 . S
C217 C223 1.465 . S
C218 C213 1.399 1_455 S
C218 C217 1.394 . S
C218 C219 1.516 1_455 S
C219 C218 1.516 1_655 S
C219 C220 1.502 . S
C219 C221 1.561 . S
C219 C222 1.533 . S
C220 H204 0.959 . S
C220 H205 0.959 . S
C220 H206 0.961 . S
C220 C219 1.502 . S
C221 H207 0.960 . S
C221 H208 0.961 . S
C221 H209 0.959 1_655 S
C221 C219 1.561 . S
C222 C219 1.533 . S
C222 C223 1.383 1_655 S
C222 C227 1.394 . S
C223 C217 1.465 . S
C223 C222 1.383 1_455 S
C223 C224 1.399 . S
C224 H210 0.929 . S
C224 C223 1.399 . S
C224 C225 1.385 . S
C225 H211 0.931 . S
C225 C224 1.385 . S
C225 C226 1.389 . S
C226 C225 1.389 . S
C226 C227 1.387 1_455 S
C227 H212 0.930 . S
C227 C222 1.394 . S
C227 C226 1.387 1_655 S
H228 C240 0.930 . S
H229 C242 0.930 . S
H230 C243 0.930 . S
H231 C247 0.959 . S
H232 C247 0.959 . S
H233 C247 0.961 . S
H234 C248 0.960 . S
H235 C248 0.961 . S
H236 C248 0.959 . S
H237 C251 0.929 . S
H238 C252 0.931 . S
H239 C254 0.930 . S
C240 H228 0.930 . S
C240 C241 1.399 1_565 S
C240 C245 1.399 . S
C241 C240 1.399 1_545 S
C241 C242 1.376 . S
C242 H229 0.930 . S
C242 C241 1.376 . S
C242 C243 1.388 . S
C243 H230 0.930 . S
C243 C242 1.388 . S
C243 C244 1.390 . S
C244 C243 1.390 . S
C244 C245 1.394 1_545 S
C244 C250 1.465 . S
C245 C240 1.399 . S
C245 C244 1.394 1_565 S
C245 C246 1.516 . S
C246 C245 1.516 . S
C246 C247 1.502 . S
C246 C248 1.561 . S
C246 C249 1.526 . S
C247 H231 0.959 . S
C247 H232 0.959 . S
C247 H233 0.961 . S
C247 C246 1.502 . S
C248 H234 0.960 . S
C248 H235 0.961 . S
C248 H236 0.959 . S
C248 C246 1.561 . S
C249 C246 1.526 . S
C249 C250 1.396 1_565 S
C249 C254 1.390 . S
C250 C244 1.465 . S
C250 C249 1.396 1_545 S
C250 C251 1.399 . S
C251 H237 0.929 . S
C251 C250 1.399 . S
C251 C252 1.385 . S
C252 H238 0.931 . S
C252 C251 1.385 . S
C252 C253 1.389 . S
C253 C252 1.389 . S
C253 C254 1.387 1_545 S
C254 H239 0.930 . S
C254 C249 1.390 . S
C254 C253 1.387 1_565 S
H255 C267 0.930 . S
H256 C269 0.930 . S
H257 C270 0.930 . S
H258 C274 0.959 . S
H259 C274 0.959 . S
H260 C274 0.961 . S
H261 C275 0.960 . S
H262 C275 0.961 . S
H263 C275 0.959 1_655 S
H264 C278 0.929 . S
H265 C279 0.931 . S
H266 C281 0.930 . S
C267 H255 0.930 . S
C267 C268 1.399 . S
C267 C272 1.399 . S
C268 C267 1.399 . S
C268 C269 1.376 . S
C269 H256 0.930 . S
C269 C268 1.376 . S
C269 C270 1.388 . S
C270 H257 0.930 . S
C270 C269 1.388 . S
C270 C271 1.390 . S
C271 C270 1.390 . S
C271 C272 1.394 . S
C271 C277 1.465 . S
C272 C267 1.399 . S
C272 C271 1.394 . S
C272 C273 1.516 . S
C273 C272 1.516 . S
C273 C274 1.502 . S
C273 C275 1.561 . S
C273 C276 1.526 . S
C274 H258 0.959 . S
C274 H259 0.959 . S
C274 H260 0.961 . S
C274 C273 1.502 . S
C275 H261 0.960 . S
C275 H262 0.961 . S
C275 H263 0.959 1_455 S
C275 C273 1.561 . S
C276 C273 1.526 . S
C276 C277 1.396 . S
C276 C281 1.390 . S
C277 C271 1.465 . S
C277 C276 1.396 . S
C277 C278 1.399 . S
C278 H264 0.929 . S
C278 C277 1.399 . S
C278 C279 1.385 . S
C279 H265 0.931 . S
C279 C278 1.385 . S
C279 C280 1.389 . S
C280 C279 1.389 . S
C280 C281 1.387 . S
C281 H266 0.930 . S
C281 C276 1.390 . S
C281 C280 1.387 . S
H282 C294 0.930 . S
H283 C296 0.930 . S
H284 C297 0.930 . S
H285 C301 0.959 . S
H286 C301 0.959 . S
H287 C301 0.961 . S
H288 C302 0.960 . S
H289 C302 0.961 . S
H290 C302 0.959 . S
H291 C305 0.929 . S
H292 C306 0.931 . S
H293 C308 0.930 . S
C294 H282 0.930 . S
C294 C295 1.399 1_565 S
C294 C299 1.399 . S
C295 C294 1.399 1_545 S
C295 C296 1.376 . S
C296 H283 0.930 . S
C296 C295 1.376 . S
C296 C297 1.388 . S
C297 H284 0.930 . S
C297 C296 1.388 . S
C297 C298 1.390 . S
C298 C297 1.390 . S
C298 C299 1.394 1_545 S
C298 C304 1.465 . S
C299 C294 1.399 . S
C299 C298 1.394 1_565 S
C299 C300 1.516 . S
C300 C299 1.516 . S
C300 C301 1.502 . S
C300 C302 1.561 . S
C300 C303 1.526 . S
C301 H285 0.959 . S
C301 H286 0.959 . S
C301 H287 0.961 . S
C301 C300 1.502 . S
C302 H288 0.960 . S
C302 H289 0.961 . S
C302 H290 0.959 . S
C302 C300 1.561 . S
C303 C300 1.526 . S
C303 C304 1.396 1_565 S
C303 C308 1.390 . S
C304 C298 1.465 . S
C304 C303 1.396 1_545 S
C304 C305 1.399 . S
C305 H291 0.929 . S
C305 C304 1.399 . S
C305 C306 1.385 . S
C306 H292 0.931 . S
C306 C305 1.385 . S
C306 C307 1.389 . S
C307 C306 1.389 . S
C307 C308 1.387 1_545 S
C308 H293 0.930 . S
C308 C303 1.390 . S
C308 C307 1.387 1_565 S
H309 C321 0.930 . S
H310 C323 0.930 . S
H311 C324 0.930 . S
H312 C328 0.959 . S
H313 C328 0.959 . S
H314 C328 0.961 . S
H315 C329 0.960 . S
H316 C329 0.961 . S
H317 C329 0.959 . S
H318 C332 0.929 . S
H319 C333 0.931 1_655 S
H320 C335 0.930 . S
C321 H309 0.930 . S
C321 C322 1.399 . S
C321 C326 1.399 . S
C322 C321 1.399 . S
C322 C323 1.376 1_455 S
C323 H310 0.930 . S
C323 C322 1.376 1_655 S
C323 C324 1.388 . S
C324 H311 0.930 . S
C324 C323 1.388 . S
C324 C325 1.390 1_655 S
C325 C324 1.390 1_455 S
C325 C326 1.394 . S
C325 C331 1.465 . S
C326 C321 1.399 . S
C326 C325 1.394 . S
C326 C327 1.516 . S
C327 C326 1.516 . S
C327 C328 1.502 . S
C327 C329 1.561 . S
C327 C330 1.526 . S
C328 H312 0.959 . S
C328 H313 0.959 . S
C328 H314 0.961 . S
C328 C327 1.502 . S
C329 H315 0.960 . S
C329 H316 0.961 . S
C329 H317 0.959 . S
C329 C327 1.561 . S
C330 C327 1.526 . S
C330 C331 1.396 . S
C330 C335 1.390 . S
C331 C325 1.465 . S
C331 C330 1.396 . S
C331 C332 1.399 1_455 S
C332 H318 0.929 . S
C332 C331 1.399 1_655 S
C332 C333 1.385 1_655 S
C333 H319 0.931 1_455 S
C333 C332 1.385 1_455 S
C333 C334 1.389 . S
C334 C333 1.389 . S
C334 C335 1.387 . S
C335 H320 0.930 . S
C335 C330 1.390 . S
C335 C334 1.387 . S
C145 C97 1.295 . S
C133 C15 1.497 . S
C172 C117 1.456 . S
C160 C68 1.494 . S
C199 C96 1.460 . S
C187 C8 1.487 . S
C226 C118 1.502 . S
C214 C47 1.501 . S
C253 C110 1.473 . S
C241 C22 1.494 . S
C280 C103 1.469 . S
C268 C61 1.495 . S
C307 C111 1.255 . S
C295 C1 1.499 . S
C322 C54 1.501 . S
C334 C104 1.502 . S
