# Generated by pormake.
# Topology anh, (6,3)-cn, num edge types: 1
# Building blocks:
#     Node 0, Type 0, BuildingBlock: BETDEL_clean_sbu_0, # of connection points: 6
#     Node 1, Type 0, BuildingBlock: BETDEL_clean_sbu_0, # of connection points: 6
#     Node 2, Type 0, BuildingBlock: BETDEL_clean_sbu_0, # of connection points: 6
#     Node 3, Type 1, BuildingBlock: QEWDON_clean_linker_0, # of connection points: 3
#     Node 4, Type 1, BuildingBlock: QEWDON_clean_linker_0, # of connection points: 3
#     Node 5, Type 1, BuildingBlock: QEWDON_clean_linker_0, # of connection points: 3
#     Node 6, Type 1, BuildingBlock: QEWDON_clean_linker_0, # of connection points: 3
#     Node 7, Type 1, BuildingBlock: QEWDON_clean_linker_0, # of connection points: 3
#     Node 8, Type 1, BuildingBlock: QEWDON_clean_linker_0, # of connection points: 3
#     Edge 9, Type (0, 1), BuildingBlock: ZUJKAS_clean_linker_0, # of connection points: 2
#     Edge 10, Type (0, 1), BuildingBlock: ZUJKAS_clean_linker_0, # of connection points: 2
#     Edge 11, Type (0, 1), BuildingBlock: ZUJKAS_clean_linker_0, # of connection points: 2
#     Edge 12, Type (0, 1), BuildingBlock: ZUJKAS_clean_linker_0, # of connection points: 2
#     Edge 13, Type (0, 1), BuildingBlock: ZUJKAS_clean_linker_0, # of connection points: 2
#     Edge 14, Type (0, 1), BuildingBlock: ZUJKAS_clean_linker_0, # of connection points: 2
#     Edge 15, Type (0, 1), BuildingBlock: ZUJKAS_clean_linker_0, # of connection points: 2
#     Edge 16, Type (0, 1), BuildingBlock: ZUJKAS_clean_linker_0, # of connection points: 2
#     Edge 17, Type (0, 1), BuildingBlock: ZUJKAS_clean_linker_0, # of connection points: 2
#     Edge 18, Type (0, 1), BuildingBlock: ZUJKAS_clean_linker_0, # of connection points: 2
#     Edge 19, Type (0, 1), BuildingBlock: ZUJKAS_clean_linker_0, # of connection points: 2
#     Edge 20, Type (0, 1), BuildingBlock: ZUJKAS_clean_linker_0, # of connection points: 2
#     Edge 21, Type (0, 1), BuildingBlock: ZUJKAS_clean_linker_0, # of connection points: 2
#     Edge 22, Type (0, 1), BuildingBlock: ZUJKAS_clean_linker_0, # of connection points: 2
#     Edge 23, Type (0, 1), BuildingBlock: ZUJKAS_clean_linker_0, # of connection points: 2
#     Edge 24, Type (0, 1), BuildingBlock: ZUJKAS_clean_linker_0, # of connection points: 2
#     Edge 25, Type (0, 1), BuildingBlock: ZUJKAS_clean_linker_0, # of connection points: 2
#     Edge 26, Type (0, 1), BuildingBlock: ZUJKAS_clean_linker_0, # of connection points: 2
# Relax obj value: 0.088
# Max RMSD: 0.136
# Mean RMSD: 0.129
data_MOF--net-anh--node1-BETDEL_clean_sbu_0--node2-QEWDON_clean_linker_0--edge1-ZUJKAS_clean_linker_0
_symmetry_space_group_name_H-M    P1
_symmetry_Int_Tables_number       1
_symmetry_cell_setting            triclinic
loop_
_symmetry_equiv_pos_as_xyz
'x, y, z'
_cell_length_a     40.533619
_cell_length_b     40.621099
_cell_length_c     61.278585
_cell_angle_alpha  93.744347
_cell_angle_beta   94.043335
_cell_angle_gamma 120.06784
loop_
_atom_site_label
_atom_site_type_symbol
_atom_site_fract_x
_atom_site_fract_y
_atom_site_fract_z
_atom_type_partial_charge
Dy0 Dy 0.05107 0.4865 0.15954 0.0
C1 C 0.96234 0.55633 0.17892 0.0
C2 C 0.09852 0.46273 0.14458 0.0
Dy3 Dy 1.00857 0.52934 0.16643 0.0
O4 O 0.08389 0.45559 0.16307 0.0
O5 O 0.08651 0.48217 0.13406 0.0
O6 O 0.03965 0.46572 0.1927 0.0
O7 O 0.04718 0.5197 0.18766 0.0
C8 C 0.0381 0.49506 0.20104 0.0
C9 C 0.02292 0.52156 0.125 0.0
O10 O 0.06823 0.57977 0.17495 0.0
O11 O 0.09858 0.54889 0.16093 0.0
O12 O 0.97305 0.55641 0.15948 0.0
O13 O 0.9772 0.54175 0.19178 0.0
O14 O 0.02263 0.55129 0.13385 0.0
O15 O 1.01267 0.49619 0.13803 0.0
O16 O 0.99067 0.43591 0.15256 0.0
O17 O 0.96229 0.46792 0.16783 0.0
C18 C 0.09939 0.58072 0.16872 0.0
C19 C 0.9606 0.43567 0.16016 0.0
Dy20 Dy 0.51411 0.03609 0.49685 0.0
C21 C 0.67798 0.13445 0.52242 0.0
C22 C 0.43788 0.98431 0.48547 0.0
Dy23 Dy 0.60449 0.08328 0.50451 0.0
O24 O 0.45519 0.99607 0.5054 0.0
O25 O 0.46221 1.00112 0.47148 0.0
O26 O 0.5147 0.06268 0.53015 0.0
O27 O 0.55855 0.0511 0.52437 0.0
C28 C 0.54662 0.06556 0.53835 0.0
C29 C 0.57996 0.07022 0.461 0.0
O30 O 0.59512 0.02434 0.50839 0.0
O31 O 0.52955 0.98943 0.49576 0.0
O32 O 0.66813 0.10645 0.50702 0.0
O33 O 0.64735 0.13297 0.52877 0.0
O34 O 0.61591 0.08811 0.46895 0.0
O35 O 0.5603 0.06041 0.47685 0.0
O36 O 0.52347 0.09395 0.49062 0.0
O37 O 0.58713 0.12848 0.50666 0.0
C38 C 0.56256 0.99114 0.50231 0.0
C39 C 0.55498 0.12693 0.49846 0.0
Dy40 Dy 0.61158 0.5777 0.83362 0.0
C41 C 0.54223 0.41831 0.85072 0.0
C42 C 0.63705 0.65089 0.82488 0.0
Dy43 Dy 0.56735 0.48742 0.83557 0.0
O44 O 0.62459 0.63747 0.84312 0.0
O45 O 0.63573 0.62424 0.81122 0.0
O46 O 0.64049 0.58538 0.86762 0.0
O47 O 0.58479 0.53867 0.85813 0.0
C48 C 0.61254 0.55403 0.87327 0.0
C49 C 0.57459 0.50478 0.79362 0.0
O50 O 0.5189 0.49869 0.83936 0.0
O51 O 0.5488 0.56135 0.82993 0.0
O52 O 0.52541 0.42439 0.83387 0.0
O53 O 0.57224 0.45025 0.85957 0.0
O54 O 0.55809 0.46978 0.79852 0.0
O55 O 0.58587 0.52648 0.81134 0.0
O56 O 0.65912 0.56559 0.82808 0.0
O57 O 0.62993 0.50419 0.83913 0.0
C58 C 0.51789 0.52978 0.83466 0.0
C59 C 0.66043 0.53504 0.83361 0.0
H60 H 0.54185 0.05135 0.21682 0.0
C61 C 0.51784 0.02307 0.21101 0.0
C62 C 0.49328 1.00168 0.22621 0.0
C63 C 0.51058 1.00883 0.18847 0.0
H64 H 0.44207 0.94924 0.23052 0.0
C65 C 0.46073 0.96592 0.21878 0.0
C66 C 0.4523 0.95067 0.1966 0.0
C67 C 0.47795 0.9717 0.18166 0.0
C68 C 0.53545 0.03335 0.17196 0.0
H69 H 0.47177 0.95915 0.16469 0.0
C70 C 0.5746 0.06306 0.17776 0.0
C71 C 0.59658 0.08554 0.16172 0.0
C72 C 0.51925 0.0279 0.14995 0.0
H73 H 0.48931 1.00729 0.14471 0.0
C74 C 0.54098 0.04965 0.1342 0.0
H75 H 0.58835 0.06844 0.19443 0.0
C76 C 0.57922 0.07799 0.13994 0.0
H77 H 0.59513 0.09479 0.12735 0.0
H78 H 0.52787 0.04482 0.1174 0.0
H79 H 0.54475 0.57169 0.55587 0.0
C80 C 0.54696 0.54761 0.54924 0.0
C81 C 0.55037 0.52409 0.56398 0.0
C82 C 0.544 0.53876 0.52625 0.0
H83 H 0.55352 0.4734 0.56738 0.0
C84 C 0.55074 0.49125 0.55583 0.0
C85 C 0.54804 0.48122 0.53317 0.0
C86 C 0.54589 0.50579 0.51851 0.0
C87 C 0.53521 0.56147 0.51049 0.0
H88 H 0.54464 0.49836 0.50108 0.0
C89 C 0.54469 0.60027 0.51619 0.0
C90 C 0.53244 0.61899 0.50162 0.0
C91 C 0.51422 0.54296 0.48973 0.0
H92 H 0.50467 0.51325 0.48471 0.0
C93 C 0.50358 0.56181 0.47514 0.0
H94 H 0.5607 0.6157 0.53194 0.0
C95 C 0.51242 0.59922 0.48099 0.0
H96 H 0.50323 0.61274 0.46928 0.0
H97 H 0.48757 0.54693 0.45928 0.0
H98 H 0.11164 0.53825 0.89042 0.0
C99 C 0.08461 0.53426 0.88308 0.0
C100 C 0.05595 0.52773 0.89674 0.0
C101 C 0.07941 0.53824 0.86057 0.0
H102 H 0.99993 0.52034 0.8987 0.0
C103 C 0.02149 0.52459 0.88791 0.0
C104 C 1.01482 0.52784 0.86561 0.0
C105 C 0.04375 0.53427 0.85201 0.0
C106 C 0.11207 0.54985 0.8466 0.0
H107 H 0.03812 0.53601 0.83473 0.0
C108 C 0.14194 0.5412 0.85076 0.0
C109 C 0.17354 0.55531 0.83819 0.0
C110 C 0.11472 0.57221 0.82942 0.0
H111 H 0.09401 0.58113 0.82602 0.0
C112 C 0.14487 0.58477 0.81659 0.0
H113 H 0.14116 0.52428 0.86385 0.0
C114 C 0.1739 0.5765 0.82088 0.0
H115 H 0.19701 0.587 0.8106 0.0
H116 H 0.1461 0.60171 0.80341 0.0
H117 H 0.97403 0.54404 0.43878 0.0
C118 C 1.00048 0.57145 0.44213 0.0
C119 C 0.02033 0.58932 0.42452 0.0
C120 C 1.01392 0.5897 0.46388 0.0
H121 H 0.07001 0.63862 0.41539 0.0
C122 C 0.05403 0.62527 0.42885 0.0
C123 C 0.06817 0.6436 0.45036 0.0
C124 C 0.04816 0.62556 0.46782 0.0
C125 C 0.99171 0.5724 0.48248 0.0
H126 H 0.05912 0.63971 0.48448 0.0
C127 C 0.97438 0.5328 0.48419 0.0
C128 C 0.95391 0.51703 0.5021 0.0
C129 C 0.98776 0.59584 0.49877 0.0
H130 H 0.99996 0.6262 0.49773 0.0
C131 C 0.96748 0.58036 0.51645 0.0
H132 H 0.97754 0.51446 0.4719 0.0
C133 C 0.9507 0.54132 0.51815 0.0
H134 H 0.93452 0.53001 0.53186 0.0
H135 H 0.9645 0.59869 0.52881 0.0
H136 H 0.57937 0.01501 0.77512 0.0
C137 C 0.57967 0.03904 0.78408 0.0
C138 C 0.58189 0.06887 0.77263 0.0
C139 C 0.57704 0.0397 0.80687 0.0
H140 H 0.57958 0.12078 0.77526 0.0
C141 C 0.58053 0.0991 0.78421 0.0
C142 C 0.57855 0.10069 0.80702 0.0
C143 C 0.5778 0.07134 0.81824 0.0
C144 C 0.5714 1.00664 0.81871 0.0
H145 H 0.57763 0.07308 0.83593 0.0
C146 C 0.58844 0.98494 0.81276 0.0
C147 C 0.58125 0.95262 0.82331 0.0
C148 C 0.54752 0.99569 0.83568 0.0
H149 H 0.53298 0.01083 0.84034 0.0
C150 C 0.54128 0.96439 0.84659 0.0
H151 H 0.60679 0.99274 0.79972 0.0
C152 C 0.55794 0.94295 0.84048 0.0
H153 H 0.55252 0.91869 0.84921 0.0
H154 H 0.52302 0.95642 0.85967 0.0
H155 H 0.54821 0.56405 0.10474 0.0
C156 C 0.56912 0.56082 0.11496 0.0
C157 C 0.59398 0.55143 0.10502 0.0
C158 C 0.57292 0.56866 0.13798 0.0
H159 H 0.64175 0.54245 0.11071 0.0
C160 C 0.62213 0.54903 0.11838 0.0
C161 C 0.62606 0.55633 0.14143 0.0
C162 C 0.60115 0.56592 0.15107 0.0
C163 C 0.54924 0.58222 0.14836 0.0
H164 H 0.60377 0.57139 0.16884 0.0
C165 C 0.50941 0.56393 0.14205 0.0
C166 C 0.48723 0.57719 0.15191 0.0
C167 C 0.56673 0.61406 0.16458 0.0
H168 H 0.59742 0.629 0.16953 0.0
C169 C 0.54492 0.62734 0.17435 0.0
H170 H 0.49572 0.5394 0.12954 0.0
C171 C 0.50546 0.60908 0.16812 0.0
H172 H 0.4891 0.61958 0.17627 0.0
H173 H 0.55864 0.65184 0.18684 0.0
H174 H 0.14233 0.49065 0.11124 0.0
H175 H 0.20438 0.49577 0.10776 0.0
H176 H 0.1899 0.4296 0.16232 0.0
H177 H 0.12819 0.42521 0.1662 0.0
H178 H 0.25401 0.49847 0.16955 0.0
H179 H 0.24801 0.43032 0.08703 0.0
H180 H 0.23055 0.46302 0.08577 0.0
H181 H 0.20533 0.42072 0.09938 0.0
C182 C 0.15184 0.47617 0.12203 0.0
C183 C 0.13072 0.45781 0.13911 0.0
C184 C 0.18722 0.47889 0.11993 0.0
C185 C 0.20171 0.46286 0.13469 0.0
C186 C 0.1792 0.44207 0.15072 0.0
H187 H 0.43556 0.49995 0.14546 0.0
H188 H 0.36527 0.46825 0.1395 0.0
C189 C 0.14396 0.43956 0.15291 0.0
C190 C 0.24251 0.47327 0.13581 0.0
H191 H 0.31128 0.47728 0.10502 0.0
C192 C 0.26632 0.49318 0.15553 0.0
C193 C 0.25863 0.4664 0.11754 0.0
C194 C 0.2342 0.4436 0.09631 0.0
C195 C 0.30596 0.50774 0.15721 0.0
C196 C 0.32233 0.50269 0.13861 0.0
C197 C 0.29853 0.48142 0.11915 0.0
C198 C 0.3644 0.52099 0.13913 0.0
C199 C 0.33025 0.52915 0.17876 0.0
C200 C 0.38689 0.56095 0.14025 0.0
C201 C 0.42684 0.57907 0.14357 0.0
C202 C 0.44503 0.55753 0.14586 0.0
C203 C 0.42239 0.5173 0.14364 0.0
C204 C 0.3823 0.49916 0.14029 0.0
H205 H 0.31264 0.52354 0.19266 0.0
H206 H 0.35229 0.5211 0.18261 0.0
H207 H 0.34538 0.56037 0.17745 0.0
H208 H 0.37345 0.57818 0.1392 0.0
H209 H 0.4435 0.61003 0.14478 0.0
H210 H 0.70059 0.1985 0.55066 0.0
H211 H 0.7566 0.26184 0.5492 0.0
H212 H 0.79696 0.21344 0.50052 0.0
H213 H 0.74114 0.14984 0.50205 0.0
H214 H 0.85722 0.27685 0.53229 0.0
H215 H 0.75142 0.30855 0.49096 0.0
H216 H 0.7411 0.29188 0.51748 0.0
H217 H 0.73998 0.26051 0.49499 0.0
C218 C 0.72205 0.20111 0.5402 0.0
C219 C 0.71633 0.16936 0.52629 0.0
C220 C 0.7539 0.23734 0.53929 0.0
C221 C 0.78039 0.24236 0.52441 0.0
C222 C 0.77668 0.21014 0.51203 0.0
H223 H 0.91196 0.45746 0.46947 0.0
H224 H 0.87413 0.38915 0.47363 0.0
C225 C 0.74484 0.17382 0.51297 0.0
C226 C 0.80885 0.28137 0.5198 0.0
H227 H 0.81533 0.36002 0.49896 0.0
C228 C 0.84819 0.29509 0.52497 0.0
C229 C 0.79693 0.30469 0.50976 0.0
C230 C 0.7551 0.29067 0.50276 0.0
C231 C 0.87594 0.33214 0.52098 0.0
C232 C 0.86388 0.35602 0.51178 0.0
C233 C 0.82456 0.34177 0.50607 0.0
C234 C 0.89111 0.39645 0.50871 0.0
C235 C 0.91787 0.34527 0.52648 0.0
C236 C 0.91367 0.42316 0.52696 0.0
C237 C 0.9354 0.46212 0.5246 0.0
C238 C 0.93479 0.47525 0.50396 0.0
C239 C 0.91334 0.44828 0.48554 0.0
C240 C 0.89156 0.40926 0.48792 0.0
H241 H 0.92256 0.32061 0.527 0.0
H242 H 0.93531 0.36371 0.51432 0.0
H243 H 0.92834 0.36219 0.54298 0.0
H244 H 0.91324 0.41411 0.54323 0.0
H245 H 0.95196 0.48212 0.53908 0.0
H246 H 0.65734 0.68211 0.78623 0.0
H247 H 0.66807 0.74484 0.77774 0.0
H248 H 0.64952 0.7685 0.84403 0.0
H249 H 0.63985 0.70693 0.85261 0.0
H250 H 0.61656 0.76613 0.77725 0.0
H251 H 0.73867 0.87039 0.8366 0.0
H252 H 0.72804 0.82169 0.83053 0.0
H253 H 0.70509 0.83365 0.8513 0.0
C254 C 0.65652 0.70123 0.79907 0.0
C255 C 0.64777 0.68981 0.82006 0.0
C256 C 0.66267 0.73699 0.79423 0.0
C257 C 0.66041 0.76178 0.81037 0.0
C258 C 0.65273 0.75057 0.83149 0.0
H259 H 0.5438 0.87477 0.81754 0.0
H260 H 0.56996 0.83389 0.80868 0.0
C261 C 0.64672 0.7151 0.83632 0.0
C262 C 0.66055 0.79681 0.80479 0.0
H263 H 0.68811 0.88663 0.82814 0.0
C264 C 0.6331 0.79292 0.78794 0.0
C265 C 0.68286 0.83228 0.81818 0.0
C266 C 0.71561 0.83979 0.83497 0.0
C267 C 0.62426 0.8219 0.78588 0.0
C268 C 0.6426 0.855 0.80145 0.0
C269 C 0.67324 0.86081 0.81655 0.0
C270 C 0.62656 0.88047 0.80467 0.0
C271 C 0.594 0.81587 0.76772 0.0
C272 C 0.6499 0.92046 0.80593 0.0
C273 C 0.6351 0.94411 0.81149 0.0
C274 C 0.59686 0.92808 0.8161 0.0
C275 C 0.5735 0.88804 0.81438 0.0
C276 C 0.58825 0.86457 0.8089 0.0
H277 H 0.59482 0.79933 0.7528 0.0
H278 H 0.56519 0.79895 0.77322 0.0
H279 H 0.59776 0.84349 0.76321 0.0
H280 H 0.67969 0.93334 0.80302 0.0
H281 H 0.65388 0.97488 0.81286 0.0
H282 H 0.92905 0.58477 0.15237 0.0
H283 H 0.8748 0.5928 0.15864 0.0
H284 H 0.87555 0.55854 0.2238 0.0
H285 H 0.92982 0.54951 0.2173 0.0
H286 H 0.8058 0.51871 0.20178 0.0
H287 H 0.85995 0.67052 0.19287 0.0
H288 H 0.87072 0.64958 0.16985 0.0
H289 H 0.89182 0.65196 0.19728 0.0
C290 C 0.91822 0.57972 0.16822 0.0
C291 C 0.9335 0.56647 0.18434 0.0
C292 C 0.88739 0.58468 0.17188 0.0
C293 C 0.8715 0.57699 0.19186 0.0
C294 C 0.88762 0.565 0.20835 0.0
H295 H 0.67234 0.60695 0.17724 0.0
H296 H 0.72911 0.61115 0.19695 0.0
C297 C 0.91857 0.55991 0.20464 0.0
C298 C 0.8353 0.57699 0.194 0.0
H299 H 0.79134 0.62677 0.1802 0.0
C300 C 0.80277 0.54272 0.19768 0.0
C301 C 0.83132 0.60853 0.1893 0.0
C302 C 0.8655 0.64731 0.18738 0.0
C303 C 0.76594 0.53796 0.19456 0.0
C304 C 0.76156 0.56787 0.18696 0.0
C305 C 0.79444 0.60341 0.18552 0.0
C306 C 0.72374 0.56166 0.1778 0.0
C307 C 0.73209 0.50047 0.19875 0.0
C308 C 0.70141 0.53208 0.1607 0.0
C309 C 0.66862 0.52921 0.14966 0.0
C310 C 0.65784 0.55636 0.15514 0.0
C311 C 0.6795 0.58525 0.17275 0.0
C312 C 0.71214 0.58786 0.18397 0.0
H313 H 0.74023 0.48833 0.21244 0.0
H314 H 0.70762 0.50384 0.20289 0.0
H315 H 0.72258 0.47952 0.18381 0.0
H316 H 0.71023 0.51211 0.15517 0.0
H317 H 0.65234 0.50633 0.13637 0.0
H318 H 0.39994 0.94659 0.44489 0.0
H319 H 0.33402 0.89176 0.43686 0.0
H320 H 0.31939 0.89844 0.50573 0.0
H321 H 0.38484 0.95289 0.51381 0.0
H322 H 0.30695 0.82156 0.45612 0.0
H323 H 0.2215 0.89024 0.474 0.0
H324 H 0.27089 0.91711 0.46851 0.0
H325 H 0.25978 0.90159 0.4952 0.0
C326 C 0.38236 0.93666 0.45821 0.0
C327 C 0.39735 0.9539 0.47995 0.0
C328 C 0.34485 0.90539 0.45363 0.0
C329 C 0.32176 0.89138 0.47069 0.0
C330 C 0.33649 0.90922 0.49229 0.0
H331 H 0.12952 0.66697 0.48169 0.0
H332 H 0.19066 0.72796 0.48634 0.0
C333 C 0.37394 0.94019 0.49689 0.0
C334 C 0.28333 0.85638 0.46635 0.0
H335 H 0.18846 0.82194 0.47129 0.0
C336 C 0.28097 0.82166 0.45923 0.0
C337 C 0.24955 0.85669 0.47036 0.0
C338 C 0.25034 0.89344 0.47726 0.0
C339 C 0.24579 0.78699 0.4566 0.0
C340 C 0.21225 0.78711 0.46142 0.0
C341 C 0.21438 0.82196 0.46789 0.0
C342 C 0.17461 0.75125 0.45954 0.0
C343 C 0.24471 0.75047 0.44866 0.0
C344 C 0.14508 0.74477 0.4434 0.0
C345 C 0.11021 0.71011 0.44076 0.0
C346 C 0.10414 0.68144 0.45436 0.0
C347 C 0.13332 0.68858 0.47104 0.0
C348 C 0.16831 0.72321 0.47359 0.0
H349 H 0.27101 0.75623 0.44118 0.0
H350 H 0.24251 0.73408 0.46282 0.0
H351 H 0.21927 0.73224 0.43634 0.0
H352 H 0.14935 0.76621 0.43252 0.0
H353 H 0.08803 0.70558 0.42795 0.0
H354 H 0.49808 0.35089 0.8248 0.0
H355 H 0.49896 0.29192 0.82772 0.0
H356 H 0.57019 0.34043 0.89024 0.0
H357 H 0.5711 0.40058 0.88666 0.0
H358 H 0.60242 0.31579 0.86566 0.0
H359 H 0.45207 0.19974 0.85824 0.0
H360 H 0.45729 0.22739 0.83581 0.0
H361 H 0.46536 0.24931 0.86376 0.0
C362 C 0.51292 0.34857 0.8395 0.0
C363 C 0.5347 0.38026 0.85544 0.0
C364 C 0.51316 0.31462 0.84127 0.0
C365 C 0.53428 0.31135 0.85934 0.0
C366 C 0.55366 0.34217 0.87615 0.0
H367 H 0.53533 0.09591 0.84056 0.0
H368 H 0.52775 0.14662 0.85865 0.0
C369 C 0.55406 0.37646 0.87414 0.0
C370 C 0.54097 0.27855 0.85876 0.0
H371 H 0.49655 0.18261 0.84257 0.0
C372 C 0.57911 0.28653 0.86118 0.0
C373 C 0.5108 0.24012 0.85343 0.0
C374 C 0.46913 0.22872 0.85294 0.0
C375 C 0.58795 0.25772 0.85674 0.0
C376 C 0.55798 0.22019 0.84879 0.0
C377 C 0.51971 0.21157 0.8481 0.0
C378 C 0.56567 0.19035 0.83951 0.0
C379 C 0.62943 0.26812 0.86033 0.0
C380 C 0.58968 0.198 0.82279 0.0
C381 C 0.59492 0.16934 0.81281 0.0
C382 C 0.5754 0.13201 0.81888 0.0
C383 C 0.55143 0.12444 0.83571 0.0
C384 C 0.54674 0.15335 0.84595 0.0
H385 H 0.64552 0.29151 0.87408 0.0
H386 H 0.63221 0.24318 0.86408 0.0
H387 H 0.64314 0.27873 0.84526 0.0
H388 H 0.60372 0.22595 0.81701 0.0
H389 H 0.61393 0.17641 0.80012 0.0
H390 H 0.62314 0.98006 0.51438 0.0
H391 H 0.6219 0.91923 0.5161 0.0
H392 H 0.50011 0.85727 0.49542 0.0
H393 H 0.50116 0.91755 0.49327 0.0
H394 H 0.58415 0.85895 0.54026 0.0
H395 H 0.53547 0.80654 0.45181 0.0
H396 H 0.55224 0.85541 0.46261 0.0
H397 H 0.50375 0.81831 0.46469 0.0
C398 C 0.59607 0.95352 0.51006 0.0
C399 C 0.56233 0.95411 0.50346 0.0
C400 C 0.5954 0.9186 0.51112 0.0
C401 C 0.56104 0.88325 0.5055 0.0
C402 C 0.52726 0.88385 0.49931 0.0
H403 H 0.47875 0.64055 0.49812 0.0
H404 H 0.4885 0.7051 0.5007 0.0
C405 C 0.5279 0.91862 0.4982 0.0
C406 C 0.56022 0.8458 0.5062 0.0
H407 H 0.53185 0.76058 0.47525 0.0
C408 C 0.57304 0.83761 0.52597 0.0
C409 C 0.54597 0.81768 0.4876 0.0
C410 C 0.53395 0.82501 0.46542 0.0
C411 C 0.57056 0.80187 0.52785 0.0
C412 C 0.5553 0.77343 0.50939 0.0
C413 C 0.54332 0.78201 0.48952 0.0
C414 C 0.54977 0.73399 0.5103 0.0
C415 C 0.58302 0.79437 0.54982 0.0
C416 C 0.58077 0.728 0.51535 0.0
C417 C 0.57515 0.69062 0.51396 0.0
C418 C 0.53848 0.65841 0.50729 0.0
C419 C 0.50745 0.66458 0.50317 0.0
C420 C 0.51301 0.70165 0.50458 0.0
H421 H 0.58564 0.81526 0.56346 0.0
H422 H 0.5624 0.76499 0.55344 0.0
H423 H 0.61148 0.79684 0.54939 0.0
H424 H 0.60958 0.75225 0.51949 0.0
H425 H 0.59976 0.68704 0.51698 0.0
H426 H 0.67618 0.48116 0.848 0.0
H427 H 0.73681 0.48176 0.85024 0.0
H428 H 0.7901 0.58907 0.82262 0.0
H429 H 0.72955 0.58919 0.82082 0.0
H430 H 0.78005 0.48018 0.81979 0.0
H431 H 0.86668 0.61556 0.87553 0.0
H432 H 0.81513 0.59228 0.87009 0.0
H433 H 0.84502 0.621 0.85052 0.0
C434 C 0.70072 0.50506 0.84242 0.0
C435 C 0.69767 0.53528 0.83433 0.0
C436 C 0.73557 0.50531 0.8437 0.0
C437 C 0.76862 0.53577 0.83699 0.0
C438 C 0.76555 0.56566 0.8285 0.0
H439 H 1.00513 0.5766 0.84014 0.0
H440 H 0.94601 0.57844 0.83102 0.0
C441 C 0.73065 0.56555 0.82731 0.0
C442 C 0.8058 0.53562 0.8387 0.0
H443 H 0.90004 0.58649 0.86146 0.0
C444 C 0.80622 0.50351 0.82891 0.0
C445 C 0.84032 0.56597 0.85055 0.0
C446 C 0.84185 0.6005 0.86246 0.0
C447 C 0.83974 0.5009 0.83064 0.0
C448 C 0.87405 0.531 0.8427 0.0
C449 C 0.87392 0.56344 0.85212 0.0
C450 C 0.90966 0.52846 0.84676 0.0
C451 C 0.83816 0.46592 0.81935 0.0
C452 C 0.90918 0.49965 0.85849 0.0
C453 C 0.94288 0.49857 0.86371 0.0
C454 C 0.97818 0.52627 0.85735 0.0
C455 C 0.97847 0.55452 0.84506 0.0
C456 C 0.94469 0.55579 0.83999 0.0
H457 H 0.81401 0.45113 0.80586 0.0
H458 H 0.86539 0.47356 0.81245 0.0
H459 H 0.83375 0.44546 0.83153 0.0
H460 H 0.88287 0.47854 0.86423 0.0
H461 H 0.94145 0.47636 0.87316 0.0
H462 H 0.16873 0.59556 0.15556 0.0
H463 H 0.22892 0.65719 0.15863 0.0
H464 H 0.17431 0.71311 0.18887 0.0
H465 H 0.11416 0.6517 0.18603 0.0
H466 H 0.24597 0.72603 0.14138 0.0
H467 H 0.27002 0.74877 0.23261 0.0
H468 H 0.23575 0.70294 0.21746 0.0
H469 H 0.22379 0.73982 0.22135 0.0
C470 C 0.16946 0.62088 0.16298 0.0
C471 C 0.13637 0.61832 0.1707 0.0
C472 C 0.204 0.65624 0.16465 0.0
C473 C 0.20657 0.68996 0.17427 0.0
C474 C 0.17349 0.68755 0.18177 0.0
H475 H 0.38036 0.92953 0.20662 0.0
H476 H 0.32213 0.86659 0.19955 0.0
C477 C 0.13892 0.65228 0.18004 0.0
C478 C 0.2436 0.7276 0.17637 0.0
H479 H 0.31019 0.8015 0.21402 0.0
C480 C 0.26016 0.74244 0.15727 0.0
C481 C 0.26237 0.74916 0.19708 0.0
C482 C 0.24735 0.73429 0.21833 0.0
C483 C 0.29399 0.77859 0.15827 0.0
C484 C 0.31249 0.80039 0.17899 0.0
C485 C 0.29619 0.78515 0.19808 0.0
C486 C 0.34789 0.83955 0.18145 0.0
C487 C 0.30881 0.79363 0.13703 0.0
C488 C 0.38216 0.84607 0.17337 0.0
C489 C 0.41575 0.8825 0.17728 0.0
C490 C 0.41597 0.91308 0.18965 0.0
C491 C 0.38139 0.90662 0.1972 0.0
C492 C 0.34797 0.8705 0.19317 0.0
H493 H 0.28622 0.77873 0.12273 0.0
H494 H 0.3197 0.82484 0.13784 0.0
H495 H 0.33282 0.78878 0.13407 0.0
H496 H 0.38337 0.82272 0.16466 0.0
H497 H 0.44192 0.88631 0.17145 0.0
H498 H 0.4942 0.13751 0.48621 0.0
H499 H 0.49297 0.19735 0.48915 0.0
H500 H 0.61275 0.25973 0.51504 0.0
H501 H 0.61408 0.20017 0.51251 0.0
H502 H 0.57301 0.28119 0.53928 0.0
H503 H 0.53281 0.28453 0.45155 0.0
H504 H 0.49958 0.24123 0.46207 0.0
H505 H 0.54811 0.2522 0.46031 0.0
C506 C 0.52043 0.16397 0.49234 0.0
C507 C 0.55426 0.16364 0.49905 0.0
C508 C 0.51975 0.19839 0.49389 0.0
C509 C 0.55293 0.23357 0.50202 0.0
C510 C 0.58672 0.23326 0.50862 0.0
H511 H 0.58615 0.46655 0.50139 0.0
H512 H 0.58752 0.40713 0.49278 0.0
C513 C 0.58743 0.19894 0.50712 0.0
C514 C 0.5522 0.27035 0.50477 0.0
H515 H 0.53072 0.32972 0.4775 0.0
C516 C 0.56387 0.29174 0.52569 0.0
C517 C 0.54084 0.28486 0.48709 0.0
C518 C 0.52999 0.26476 0.46394 0.0
C519 C 0.56373 0.32631 0.52952 0.0
C520 C 0.55097 0.34006 0.51206 0.0
C521 C 0.54016 0.31924 0.49099 0.0
C522 C 0.54795 0.37542 0.51568 0.0
C523 C 0.5778 0.34809 0.55229 0.0
C524 C 0.52424 0.37726 0.53077 0.0
C525 C 0.52336 0.41101 0.53564 0.0
C526 C 0.54607 0.44416 0.52554 0.0
C527 C 0.56831 0.44175 0.50952 0.0
C528 C 0.56922 0.40775 0.50465 0.0
H529 H 0.59649 0.34007 0.56188 0.0
H530 H 0.59409 0.37949 0.55152 0.0
H531 H 0.55278 0.34127 0.56135 0.0
H532 H 0.50668 0.35262 0.53909 0.0
H533 H 0.50514 0.41129 0.54767 0.0
H534 H 0.44686 0.47048 0.84152 0.0
H535 H 0.38691 0.47103 0.84312 0.0
H536 H 0.44507 0.58992 0.83215 0.0
H537 H 0.50477 0.5894 0.83002 0.0
H538 H 0.36607 0.51073 0.8703 0.0
H539 H 0.3543 0.54743 0.78591 0.0
H540 H 0.38816 0.5333 0.7951 0.0
H541 H 0.3991 0.58188 0.80162 0.0
C542 C 0.44695 0.49674 0.83927 0.0
C543 C 0.48093 0.52981 0.83541 0.0
C544 C 0.4125 0.49703 0.84027 0.0
C545 C 0.4109 0.5303 0.83736 0.0
C546 C 0.44493 0.56349 0.83386 0.0
H547 H 0.24952 0.60943 0.84144 0.0
H548 H 0.30465 0.6003 0.84235 0.0
C549 C 0.47932 0.5632 0.83276 0.0
C550 C 0.374 0.53058 0.83829 0.0
H551 H 0.31365 0.55361 0.81016 0.0
C552 C 0.35445 0.51975 0.85704 0.0
C553 C 0.35828 0.54201 0.82097 0.0
C554 C 0.3758 0.55141 0.79968 0.0
C555 C 0.32085 0.52154 0.85927 0.0
C556 C 0.30596 0.53418 0.84225 0.0
C557 C 0.32501 0.54415 0.82333 0.0
C558 C 0.27194 0.53928 0.84399 0.0
C559 C 0.30225 0.51115 0.88015 0.0
C560 C 0.23477 0.50815 0.84512 0.0
C561 C 0.20276 0.51333 0.84456 0.0
C562 C 0.20726 0.54971 0.84272 0.0
C563 C 0.24477 0.5809 0.8426 0.0
C564 C 0.27647 0.57574 0.84311 0.0
H565 H 0.32112 0.50905 0.89336 0.0
H566 H 0.29477 0.53265 0.88626 0.0
H567 H 0.27527 0.48299 0.8767 0.0
H568 H 0.23024 0.47958 0.84555 0.0
H569 H 0.17437 0.48862 0.84448 0.0
H570 H 0.93998 0.36244 0.14241 0.0
H571 H 0.87969 0.30237 0.14431 0.0
H572 H 0.83879 0.36452 0.18253 0.0
H573 H 0.89794 0.42428 0.18016 0.0
H574 H 0.84576 0.26412 0.17788 0.0
H575 H 0.74854 0.30577 0.13677 0.0
H576 H 0.79992 0.33361 0.13702 0.0
H577 H 0.77765 0.33891 0.16038 0.0
C578 C 0.918 0.36338 0.15104 0.0
C579 C 0.92393 0.39857 0.16085 0.0
C580 C 0.88346 0.32889 0.15219 0.0
C581 C 0.85392 0.32863 0.16316 0.0
C582 C 0.86025 0.36368 0.17334 0.0
H583 H 0.62526 0.15087 0.19077 0.0
H584 H 0.68886 0.20927 0.19296 0.0
C585 C 0.89448 0.39805 0.17206 0.0
C586 C 0.8169 0.29193 0.16441 0.0
H587 H 0.7189 0.24973 0.15514 0.0
C588 C 0.81809 0.26101 0.17277 0.0
C589 C 0.78041 0.28739 0.15778 0.0
C590 C 0.77647 0.31803 0.14728 0.0
C591 C 0.78421 0.22638 0.175 0.0
C592 C 0.74787 0.22215 0.16864 0.0
C593 C 0.74662 0.25297 0.1603 0.0
C594 C 0.71083 0.18541 0.16938 0.0
C595 C 0.78754 0.1947 0.18449 0.0
C596 C 0.70195 0.1522 0.15571 0.0
C597 C 0.66567 0.11897 0.15441 0.0
C598 C 0.63728 0.11784 0.16688 0.0
C599 C 0.64667 0.15052 0.18129 0.0
C600 C 0.68293 0.18404 0.18238 0.0
H601 H 0.81648 0.2054 0.19347 0.0
H602 H 0.76564 0.18067 0.19588 0.0
H603 H 0.78255 0.17269 0.17089 0.0
H604 H 0.72252 0.15248 0.14525 0.0
H605 H 0.65919 0.09449 0.14293 0.0
H606 H 0.04164 0.57389 0.09604 0.0
H607 H 0.0542 0.56851 0.05807 0.0
H608 H 0.03721 0.45601 0.06434 0.0
H609 H 0.02321 0.46081 0.10245 0.0
H610 H 0.10934 0.5598 0.04084 0.0
H611 H 0.96501 0.43537 0.00937 0.0
H612 H 0.97492 0.46156 0.03624 0.0
H613 H 0.99085 0.42787 0.03166 0.0
C614 C 0.04041 0.54789 0.08935 0.0
C615 C 0.03121 0.51766 0.10217 0.0
C616 C 0.04778 0.54492 0.06764 0.0
C617 C 0.04625 0.51171 0.0582 0.0
C618 C 0.03782 0.48163 0.0711 0.0
H619 H 0.07313 0.47927 0.91725 0.0
H620 H 0.07589 0.47269 0.95697 0.0
C621 C 0.03009 0.48448 0.0929 0.0
C622 C 0.05313 0.50916 0.03477 0.0
H623 H 1.00853 0.46277 0.98352 0.0
C624 C 0.08748 0.53823 0.02836 0.0
C625 C 0.02463 0.481 0.01844 0.0
C626 C 0.98663 0.44981 0.02414 0.0
C627 C 0.09337 0.54083 0.00608 0.0
C628 C 0.06427 0.51367 0.98978 0.0
C629 C 0.03083 0.48342 0.99615 0.0
C630 C 0.06587 0.51901 0.96612 0.0
C631 C 0.13009 0.57336 -2e-05 0.0
C632 C 0.05959 0.54731 0.95827 0.0
C633 C 0.05763 0.5508 0.93578 0.0
C634 C 0.06221 0.52624 0.9207 0.0
C635 C 0.06979 0.49868 0.9286 0.0
C636 C 0.07121 0.49482 0.95119 0.0
H637 H 0.15279 0.58709 0.01428 0.0
H638 H 0.14089 0.56308 0.98653 0.0
H639 H 0.12437 0.59539 0.9939 0.0
H640 H 0.05514 0.56604 0.96953 0.0
H641 H 0.05182 0.5723 0.93008 0.0
H642 H 0.50607 0.03955 0.44048 0.0
H643 H 0.48586 0.02765 0.40042 0.0
H644 H 0.60349 0.07204 0.38833 0.0
H645 H 0.62358 0.08373 0.42782 0.0
H646 H 0.51636 0.08484 0.36751 0.0
H647 H 0.54133 0.96335 0.35222 0.0
H648 H 0.53452 0.97845 0.37908 0.0
H649 H 0.58016 1.00462 0.36881 0.0
C650 C 0.5274 0.04642 0.4292 0.0
C651 C 0.56628 0.06217 0.43722 0.0
C652 C 0.51593 0.03983 0.4064 0.0
C653 C 0.5432 0.04858 0.39146 0.0
C654 C 0.58196 0.06461 0.39955 0.0
H655 H 0.56179 0.03343 0.25257 0.0
H656 H 0.57277 0.04769 0.29281 0.0
C657 C 0.59337 0.07133 0.42215 0.0
C658 C 0.532 0.04144 0.36732 0.0
H659 H 0.53502 0.99229 0.32088 0.0
C660 C 0.51986 0.06426 0.35727 0.0
C661 C 0.53691 0.01476 0.35406 0.0
C662 C 0.54862 0.98862 0.36405 0.0
C663 C 0.5139 0.06208 0.33419 0.0
C664 C 0.51977 0.03602 0.32092 0.0
C665 C 0.53097 0.01257 0.33106 0.0
C666 C 0.51414 0.03208 0.29648 0.0
C667 C 0.50273 0.08859 0.3242 0.0
C668 C 0.47775 0.01928 0.28517 0.0
C669 C 0.47149 0.01135 0.26223 0.0
C670 C 0.50144 0.01574 0.25012 0.0
C671 C 0.53825 0.03007 0.2614 0.0
C672 C 0.54448 0.03797 0.28438 0.0
H673 H 0.50894 0.11319 0.33627 0.0
H674 H 0.51809 0.09978 0.30968 0.0
H675 H 0.47145 0.07254 0.31862 0.0
H676 H 0.45378 0.01398 0.29414 0.0
H677 H 0.44287 1.00066 0.25399 0.0
H678 H 0.56848 0.4617 0.75629 0.0
H679 H 0.57007 0.47807 0.71848 0.0
H680 H 0.58776 0.58873 0.74209 0.0
H681 H 0.58622 0.57236 0.78012 0.0
H682 H 0.52441 0.54154 0.70538 0.0
H683 H 0.66546 0.55957 0.68965 0.0
H684 H 0.63522 0.51768 0.70247 0.0
H685 H 0.65342 0.56437 0.71708 0.0
C686 C 0.57314 0.48968 0.75344 0.0
C687 C 0.57777 0.51602 0.7711 0.0
C688 C 0.57418 0.49904 0.73187 0.0
C689 C 0.5795 0.53476 0.72754 0.0
C690 C 0.58405 0.56117 0.74514 0.0
H691 H 0.60088 0.59025 0.59049 0.0
H692 H 0.6089 0.60028 0.63104 0.0
C693 C 0.58346 0.55195 0.76682 0.0
C694 C 0.57823 0.54324 0.70443 0.0
H695 H 0.62244 0.55056 0.65809 0.0
C696 C 0.54615 0.54422 0.6951 0.0
C697 C 0.60677 0.54701 0.69113 0.0
C698 C 0.64238 0.54745 0.70057 0.0
C699 C 0.54082 0.54667 0.67248 0.0
C700 C 0.56822 0.54807 0.65892 0.0
C701 C 0.60139 0.54936 0.66851 0.0
C702 C 0.56118 0.54422 0.63455 0.0
C703 C 0.50542 0.5467 0.66311 0.0
C704 C 0.5316 0.50957 0.62318 0.0
C705 C 0.52724 0.50373 0.60021 0.0
C706 C 0.55229 0.5325 0.58812 0.0
C707 C 0.58103 0.56778 0.59945 0.0
C708 C 0.5857 0.57345 0.62254 0.0
H709 H 0.49291 0.55591 0.67606 0.0
H710 H 0.51203 0.56589 0.64995 0.0
H711 H 0.48344 0.51726 0.65579 0.0
H712 H 0.51273 0.48646 0.63212 0.0
H713 H 0.50483 0.47631 0.59186 0.0
H714 H 0.59324 0.04504 0.56039 0.0
H715 H 0.60428 0.04626 0.60036 0.0
H716 H 0.53929 0.10263 0.60999 0.0
H717 H 0.52691 0.10007 0.57007 0.0
H718 H 0.63653 0.09995 0.63541 0.0
H719 H 0.48087 1.00872 0.64052 0.0
H720 H 0.50046 0.0174 0.6146 0.0
H721 H 0.49205 0.05209 0.62902 0.0
C722 C 0.58169 0.05805 0.57108 0.0
C723 C 0.55872 0.07193 0.56222 0.0
C724 C 0.58797 0.0587 0.59389 0.0
C725 C 0.57164 0.07351 0.60813 0.0
C726 C 0.55108 0.08991 0.59929 0.0
H727 H 0.62322 0.12928 0.74947 0.0
H728 H 0.62245 0.12896 0.70967 0.0
C729 C 0.5443 0.08875 0.57651 0.0
C730 C 0.57475 0.07044 0.6321 0.0
H731 H 0.52096 0.03775 0.67457 0.0
C732 C 0.61128 0.08616 0.64398 0.0
C733 C 0.54176 0.05151 0.64317 0.0
C734 C 0.50159 0.0311 0.63113 0.0
C735 C 0.61575 0.08451 0.66676 0.0
C736 C 0.5828 0.06766 0.67804 0.0
C737 C 0.54627 0.05103 0.66601 0.0
C738 C 0.58521 0.06755 0.70234 0.0
C739 C 0.6557 0.1003 0.67837 0.0
C740 C 0.56377 0.03327 0.71157 0.0
C741 C 0.56314 0.0335 0.73435 0.0
C742 C 0.58414 0.06804 0.74844 0.0
C743 C 0.60629 0.1022 0.73914 0.0
C744 C 0.60646 0.102 0.71635 0.0
H745 H 0.67539 0.09967 0.66684 0.0
H746 H 0.66734 0.13061 0.68506 0.0
H747 H 0.65568 0.08394 0.6922 0.0
H748 H 0.54688 1.00635 0.70108 0.0
H749 H 0.54525 1.00672 0.74081 0.0
H750 H 0.66852 0.58759 0.90794 0.0
H751 H 0.66137 0.57937 0.94683 0.0
H752 H 0.54207 0.49304 0.9294 0.0
H753 H 0.54927 0.50067 0.89035 0.0
H754 H 0.61185 0.59419 0.96845 0.0
H755 H 0.57826 0.44488 0.9749 0.0
H756 H 0.59912 0.47006 0.95176 0.0
H757 H 0.54877 0.4501 0.95372 0.0
C758 C 0.64097 0.56632 0.91237 0.0
C759 C 0.60939 0.54495 0.8962 0.0
C760 C 0.63691 0.56168 0.93457 0.0
C761 C 0.60124 0.53552 0.941 0.0
C762 C 0.57 0.51294 0.92479 0.0
H763 H 0.53072 0.51077 0.07419 0.0
H764 H 0.52938 0.50488 0.03388 0.0
C765 C 0.5741 0.51746 0.90251 0.0
C766 C 0.5962 0.53485 0.96471 0.0
H767 H 0.57424 0.47867 0.00671 0.0
C768 C 0.60362 0.56891 0.97679 0.0
C769 C 0.58504 0.50171 0.9755 0.0
C770 C 0.5776 0.46464 0.9634 0.0
C771 C 0.60074 0.57093 -0.00057 0.0
C772 C 0.59052 0.53813 0.01031 0.0
C773 C 0.58205 0.50372 0.99822 0.0
C774 C 0.59095 0.54005 0.03451 0.0
C775 C 0.60887 0.60822 0.01161 0.0
C776 C 0.626 0.56145 0.04803 0.0
C777 C 0.62686 0.56488 0.07088 0.0
C778 C 0.59263 0.54689 0.08068 0.0
C779 C 0.55749 0.52513 0.06707 0.0
C780 C 0.55669 0.52155 0.04413 0.0
H781 H 0.60781 0.62792 0.00019 0.0
H782 H 0.58793 0.60303 0.0236 0.0
H783 H 0.638 0.62267 0.02092 0.0
H784 H 0.65273 0.57581 0.04086 0.0
H785 H 0.65433 0.58225 0.08088 0.0
H786 H 0.04065 0.55765 0.22235 0.0
H787 H 0.02692 0.56517 0.26013 0.0
H788 H 1.00107 0.4502 0.26798 0.0
H789 H 1.01488 0.44257 0.23032 0.0
H790 H 0.95849 0.51982 0.2808 0.0
H791 H 0.0859 0.51766 0.31914 0.0
H792 H 0.0807 0.52508 0.29068 0.0
H793 H 0.05436 0.47785 0.29892 0.0
C794 C 0.03189 0.53397 0.23213 0.0
C795 C 0.02907 0.49963 0.22353 0.0
C796 C 0.024 0.53826 0.25365 0.0
C797 C 1.01342 0.50839 0.26689 0.0
C798 C 1.00975 0.47378 0.25813 0.0
H799 H 0.99902 0.51593 0.40874 0.0
H800 H 0.98888 0.48992 0.36996 0.0
C801 C 0.01761 0.46947 0.23664 0.0
C802 C 1.00732 0.51387 0.29007 0.0
H803 H 0.04511 0.52219 0.34306 0.0
C804 C 0.97727 0.52015 0.29445 0.0
C805 C 0.03173 0.51403 0.30779 0.0
C806 C 0.0652 0.5086 0.30402 0.0
C807 C 0.97121 0.527 0.31616 0.0
C808 C 0.99633 0.52826 0.33388 0.0
C809 C 0.02571 0.52093 0.32946 0.0
C810 C 0.99535 0.54087 0.35697 0.0
C811 C 0.93803 0.53286 0.3199 0.0
C812 C 1.00148 0.57773 0.36248 0.0
C813 C 1.00711 0.59248 0.38449 0.0
C814 C 1.00711 0.57081 0.40147 0.0
C815 C 0.99889 0.53312 0.39598 0.0
C816 C 0.9933 0.51835 0.37387 0.0
H817 H 0.91469 0.51836 0.30595 0.0
H818 H 0.92608 0.52192 0.33536 0.0
H819 H 0.94815 0.56393 0.32117 0.0
H820 H 1.00399 0.59595 0.34979 0.0
H821 H 1.01316 0.62154 0.38828 0.0
loop_
_geom_bond_atom_site_label_1
_geom_bond_atom_site_label_2
_geom_bond_distance
_geom_bond_site_symmetry_2
_ccdc_geom_bond_type
Dy0 O4 2.398 . S
Dy0 O5 2.491 . S
Dy0 O6 2.403 . S
Dy0 O7 2.664 . S
Dy0 O11 2.326 . S
Dy0 O15 2.310 . S
Dy0 O16 2.351 . S
C1 O12 1.185 . S
C1 O13 1.355 . S
C2 O4 1.185 . S
C2 O5 1.355 . S
Dy3 O7 2.310 . S
Dy3 O10 2.351 . S
Dy3 O12 2.398 1_455 S
Dy3 O13 2.491 1_455 S
Dy3 O14 2.403 . S
Dy3 O15 2.664 . S
Dy3 O17 2.326 1_455 S
O4 Dy0 2.398 . S
O4 C2 1.185 . S
O5 Dy0 2.491 . S
O5 C2 1.355 . S
O6 Dy0 2.403 . S
O6 C8 1.254 . S
O7 Dy0 2.664 . S
O7 Dy3 2.310 . S
O7 C8 1.268 . S
C8 O6 1.254 . S
C8 O7 1.268 . S
C9 O14 1.254 . S
C9 O15 1.268 . S
O10 Dy3 2.351 . S
O10 C18 1.249 . S
O11 Dy0 2.326 . S
O11 C18 1.267 . S
O12 C1 1.185 . S
O12 Dy3 2.398 1_655 S
O13 C1 1.355 . S
O13 Dy3 2.491 1_655 S
O14 Dy3 2.403 . S
O14 C9 1.254 . S
O15 Dy0 2.310 . S
O15 Dy3 2.664 . S
O15 C9 1.268 . S
O16 Dy0 2.351 . S
O16 C19 1.249 1_455 S
O17 Dy3 2.326 1_655 S
O17 C19 1.267 . S
C18 O10 1.249 . S
C18 O11 1.267 . S
C19 O16 1.249 1_655 S
C19 O17 1.267 . S
Dy20 O24 2.398 1_545 S
Dy20 O25 2.491 1_545 S
Dy20 O26 2.403 . S
Dy20 O27 2.664 . S
Dy20 O31 2.326 1_545 S
Dy20 O35 2.310 . S
Dy20 O36 2.351 . S
C21 O32 1.185 . S
C21 O33 1.355 . S
C22 O24 1.185 . S
C22 O25 1.355 . S
Dy23 O27 2.310 . S
Dy23 O30 2.351 1_545 S
Dy23 O32 2.398 . S
Dy23 O33 2.491 . S
Dy23 O34 2.403 . S
Dy23 O35 2.664 . S
Dy23 O37 2.326 . S
O24 Dy20 2.398 1_565 S
O24 C22 1.185 . S
O25 Dy20 2.491 1_565 S
O25 C22 1.355 . S
O26 Dy20 2.403 . S
O26 C28 1.254 . S
O27 Dy20 2.664 . S
O27 Dy23 2.310 . S
O27 C28 1.268 . S
C28 O26 1.254 . S
C28 O27 1.268 . S
C29 O34 1.254 . S
C29 O35 1.268 . S
O30 Dy23 2.351 1_565 S
O30 C38 1.249 . S
O31 Dy20 2.326 1_565 S
O31 C38 1.267 . S
O32 C21 1.185 . S
O32 Dy23 2.398 . S
O33 C21 1.355 . S
O33 Dy23 2.491 . S
O34 Dy23 2.403 . S
O34 C29 1.254 . S
O35 Dy20 2.310 . S
O35 Dy23 2.664 . S
O35 C29 1.268 . S
O36 Dy20 2.351 . S
O36 C39 1.249 . S
O37 Dy23 2.326 . S
O37 C39 1.267 . S
C38 O30 1.249 . S
C38 O31 1.267 . S
C39 O36 1.249 . S
C39 O37 1.267 . S
Dy40 O44 2.398 . S
Dy40 O45 2.491 . S
Dy40 O46 2.403 . S
Dy40 O47 2.664 . S
Dy40 O51 2.326 . S
Dy40 O55 2.310 . S
Dy40 O56 2.351 . S
C41 O52 1.185 . S
C41 O53 1.355 . S
C42 O44 1.185 . S
C42 O45 1.355 . S
Dy43 O47 2.310 . S
Dy43 O50 2.351 . S
Dy43 O52 2.398 . S
Dy43 O53 2.491 . S
Dy43 O54 2.403 . S
Dy43 O55 2.664 . S
Dy43 O57 2.326 . S
O44 Dy40 2.398 . S
O44 C42 1.185 . S
O45 Dy40 2.491 . S
O45 C42 1.355 . S
O46 Dy40 2.403 . S
O46 C48 1.254 . S
O47 Dy40 2.664 . S
O47 Dy43 2.310 . S
O47 C48 1.268 . S
C48 O46 1.254 . S
C48 O47 1.268 . S
C49 O54 1.254 . S
C49 O55 1.268 . S
O50 Dy43 2.351 . S
O50 C58 1.249 . S
O51 Dy40 2.326 . S
O51 C58 1.267 . S
O52 C41 1.185 . S
O52 Dy43 2.398 . S
O53 C41 1.355 . S
O53 Dy43 2.491 . S
O54 Dy43 2.403 . S
O54 C49 1.254 . S
O55 Dy40 2.310 . S
O55 Dy43 2.664 . S
O55 C49 1.268 . S
O56 Dy40 2.351 . S
O56 C59 1.249 . S
O57 Dy43 2.326 . S
O57 C59 1.267 . S
C58 O50 1.249 . S
C58 O51 1.267 . S
C59 O56 1.249 . S
C59 O57 1.267 . S
H60 C61 0.949 . S
C61 H60 0.949 . S
C61 C62 1.395 . S
C61 C63 1.391 . S
C62 C61 1.395 . S
C62 C65 1.390 1_545 S
C63 C61 1.391 . S
C63 C67 1.387 . S
C63 C68 1.491 . S
H64 C65 0.950 . S
C65 C62 1.390 1_565 S
C65 H64 0.950 . S
C65 C66 1.378 . S
C66 C65 1.378 . S
C66 C67 1.409 1_565 S
C67 C63 1.387 . S
C67 C66 1.409 1_545 S
C67 H69 0.951 1_545 S
C68 C63 1.491 . S
C68 C70 1.382 . S
C68 C72 1.404 . S
H69 C67 0.951 1_565 S
C70 C68 1.382 . S
C70 C71 1.390 . S
C70 H75 0.949 . S
C71 C70 1.390 . S
C71 C76 1.399 . S
C72 C68 1.404 . S
C72 H73 0.950 . S
C72 C74 1.375 . S
H73 C72 0.950 . S
C74 C72 1.375 . S
C74 C76 1.382 . S
C74 H78 0.950 . S
H75 C70 0.949 . S
C76 C71 1.399 . S
C76 C74 1.382 . S
C76 H77 0.952 . S
H77 C76 0.952 . S
H78 C74 0.950 . S
H79 C80 0.949 . S
C80 H79 0.949 . S
C80 C81 1.395 . S
C80 C82 1.391 . S
C81 C80 1.395 . S
C81 C84 1.390 . S
C82 C80 1.391 . S
C82 C86 1.387 . S
C82 C87 1.491 . S
H83 C84 0.950 . S
C84 C81 1.390 . S
C84 H83 0.950 . S
C84 C85 1.378 . S
C85 C84 1.378 . S
C85 C86 1.409 . S
C86 C82 1.387 . S
C86 C85 1.409 . S
C86 H88 0.951 . S
C87 C82 1.491 . S
C87 C89 1.382 . S
C87 C91 1.404 . S
H88 C86 0.951 . S
C89 C87 1.382 . S
C89 C90 1.390 . S
C89 H94 0.949 . S
C90 C89 1.390 . S
C90 C95 1.399 . S
C91 C87 1.404 . S
C91 H92 0.950 . S
C91 C93 1.375 . S
H92 C91 0.950 . S
C93 C91 1.375 . S
C93 C95 1.382 . S
C93 H97 0.950 . S
H94 C89 0.949 . S
C95 C90 1.399 . S
C95 C93 1.382 . S
C95 H96 0.952 . S
H96 C95 0.952 . S
H97 C93 0.950 . S
H98 C99 0.949 . S
C99 H98 0.949 . S
C99 C100 1.395 . S
C99 C101 1.391 . S
C100 C99 1.395 . S
C100 C103 1.390 . S
C101 C99 1.391 . S
C101 C105 1.387 . S
C101 C106 1.491 . S
H102 C103 0.950 . S
C103 C100 1.390 . S
C103 H102 0.950 . S
C103 C104 1.378 . S
C104 C103 1.378 . S
C104 C105 1.409 . S
C105 C101 1.387 . S
C105 C104 1.409 . S
C105 H107 0.951 . S
C106 C101 1.491 . S
C106 C108 1.382 . S
C106 C110 1.404 . S
H107 C105 0.951 . S
C108 C106 1.382 . S
C108 C109 1.390 . S
C108 H113 0.949 . S
C109 C108 1.390 . S
C109 C114 1.399 . S
C110 C106 1.404 . S
C110 H111 0.950 . S
C110 C112 1.375 . S
H111 C110 0.950 . S
C112 C110 1.375 . S
C112 C114 1.382 . S
C112 H116 0.950 . S
H113 C108 0.949 . S
C114 C109 1.399 . S
C114 C112 1.382 . S
C114 H115 0.952 . S
H115 C114 0.952 . S
H116 C112 0.950 . S
H117 C118 0.949 . S
C118 H117 0.949 . S
C118 C119 1.395 1_655 S
C118 C120 1.391 . S
C119 C118 1.395 1_455 S
C119 C122 1.390 . S
C120 C118 1.391 . S
C120 C124 1.387 1_655 S
C120 C125 1.491 . S
H121 C122 0.950 . S
C122 C119 1.390 . S
C122 H121 0.950 . S
C122 C123 1.378 . S
C123 C122 1.378 . S
C123 C124 1.409 . S
C124 C120 1.387 1_455 S
C124 C123 1.409 . S
C124 H126 0.951 . S
C125 C120 1.491 . S
C125 C127 1.382 . S
C125 C129 1.404 . S
H126 C124 0.951 . S
C127 C125 1.382 . S
C127 C128 1.390 . S
C127 H132 0.949 . S
C128 C127 1.390 . S
C128 C133 1.399 . S
C129 C125 1.404 . S
C129 H130 0.950 . S
C129 C131 1.375 . S
H130 C129 0.950 . S
C131 C129 1.375 . S
C131 C133 1.382 . S
C131 H135 0.950 . S
H132 C127 0.949 . S
C133 C128 1.399 . S
C133 C131 1.382 . S
C133 H134 0.952 . S
H134 C133 0.952 . S
H135 C131 0.950 . S
H136 C137 0.949 . S
C137 H136 0.949 . S
C137 C138 1.395 . S
C137 C139 1.391 . S
C138 C137 1.395 . S
C138 C141 1.390 . S
C139 C137 1.391 . S
C139 C143 1.387 . S
C139 C144 1.491 . S
H140 C141 0.950 . S
C141 C138 1.390 . S
C141 H140 0.950 . S
C141 C142 1.378 . S
C142 C141 1.378 . S
C142 C143 1.409 . S
C143 C139 1.387 . S
C143 C142 1.409 . S
C143 H145 0.951 . S
C144 C139 1.491 . S
C144 C146 1.382 1_545 S
C144 C148 1.404 1_545 S
H145 C143 0.951 . S
C146 C144 1.382 1_565 S
C146 C147 1.390 . S
C146 H151 0.949 . S
C147 C146 1.390 . S
C147 C152 1.399 . S
C148 C144 1.404 1_565 S
C148 H149 0.950 1_565 S
C148 C150 1.375 . S
H149 C148 0.950 1_545 S
C150 C148 1.375 . S
C150 C152 1.382 . S
C150 H154 0.950 . S
H151 C146 0.949 . S
C152 C147 1.399 . S
C152 C150 1.382 . S
C152 H153 0.952 . S
H153 C152 0.952 . S
H154 C150 0.950 . S
H155 C156 0.949 . S
C156 H155 0.949 . S
C156 C157 1.395 . S
C156 C158 1.391 . S
C157 C156 1.395 . S
C157 C160 1.390 . S
C158 C156 1.391 . S
C158 C162 1.387 . S
C158 C163 1.491 . S
H159 C160 0.950 . S
C160 C157 1.390 . S
C160 H159 0.950 . S
C160 C161 1.378 . S
C161 C160 1.378 . S
C161 C162 1.409 . S
C162 C158 1.387 . S
C162 C161 1.409 . S
C162 H164 0.951 . S
C163 C158 1.491 . S
C163 C165 1.382 . S
C163 C167 1.404 . S
H164 C162 0.951 . S
C165 C163 1.382 . S
C165 C166 1.390 . S
C165 H170 0.949 . S
C166 C165 1.390 . S
C166 C171 1.399 . S
C167 C163 1.404 . S
C167 H168 0.950 . S
C167 C169 1.375 . S
H168 C167 0.950 . S
C169 C167 1.375 . S
C169 C171 1.382 . S
C169 H173 0.950 . S
H170 C165 0.949 . S
C171 C166 1.399 . S
C171 C169 1.382 . S
C171 H172 0.952 . S
H172 C171 0.952 . S
H173 C169 0.950 . S
H174 C182 0.929 . S
H175 C184 0.930 . S
H176 C186 0.930 . S
H177 C189 0.929 . S
H178 C192 0.930 . S
H179 C194 0.960 . S
H180 C194 0.960 . S
H181 C194 0.960 . S
C182 H174 0.929 . S
C182 C183 1.377 . S
C182 C184 1.384 . S
C183 C182 1.377 . S
C183 C189 1.390 . S
C184 H175 0.930 . S
C184 C182 1.384 . S
C184 C185 1.372 . S
C185 C184 1.372 . S
C185 C186 1.400 . S
C185 C190 1.490 . S
C186 H176 0.930 . S
C186 C185 1.400 . S
C186 C189 1.386 . S
H187 C203 0.930 . S
H188 C204 0.931 . S
C189 H177 0.929 . S
C189 C183 1.390 . S
C189 C186 1.386 . S
C190 C185 1.490 . S
C190 C192 1.395 . S
C190 C193 1.403 . S
H191 C197 0.930 . S
C192 H178 0.930 . S
C192 C190 1.395 . S
C192 C195 1.403 . S
C193 C190 1.403 . S
C193 C194 1.524 . S
C193 C197 1.400 . S
C194 H179 0.960 . S
C194 H180 0.960 . S
C194 H181 0.960 . S
C194 C193 1.524 . S
C195 C192 1.403 . S
C195 C196 1.392 . S
C195 C199 1.495 . S
C196 C195 1.392 . S
C196 C197 1.385 . S
C196 C198 1.478 . S
C197 H191 0.930 . S
C197 C193 1.400 . S
C197 C196 1.385 . S
C198 C196 1.478 . S
C198 C200 1.381 . S
C198 C204 1.383 . S
C199 C195 1.495 . S
C199 H205 0.959 . S
C199 H206 0.961 . S
C199 H207 0.960 . S
C200 C198 1.381 . S
C200 C201 1.394 . S
C200 H208 0.930 . S
C201 C200 1.394 . S
C201 C202 1.383 . S
C201 H209 0.929 . S
C202 C201 1.383 . S
C202 C203 1.377 . S
C203 H187 0.930 . S
C203 C202 1.377 . S
C203 C204 1.379 . S
C204 H188 0.931 . S
C204 C198 1.383 . S
C204 C203 1.379 . S
H205 C199 0.959 . S
H206 C199 0.961 . S
H207 C199 0.960 . S
H208 C200 0.930 . S
H209 C201 0.929 . S
H210 C218 0.929 . S
H211 C220 0.930 . S
H212 C222 0.930 . S
H213 C225 0.929 . S
H214 C228 0.930 . S
H215 C230 0.960 . S
H216 C230 0.960 . S
H217 C230 0.960 . S
C218 H210 0.929 . S
C218 C219 1.377 . S
C218 C220 1.384 . S
C219 C218 1.377 . S
C219 C225 1.390 . S
C220 H211 0.930 . S
C220 C218 1.384 . S
C220 C221 1.372 . S
C221 C220 1.372 . S
C221 C222 1.400 . S
C221 C226 1.490 . S
C222 H212 0.930 . S
C222 C221 1.400 . S
C222 C225 1.386 . S
H223 C239 0.930 . S
H224 C240 0.931 . S
C225 H213 0.929 . S
C225 C219 1.390 . S
C225 C222 1.386 . S
C226 C221 1.490 . S
C226 C228 1.395 . S
C226 C229 1.403 . S
H227 C233 0.930 . S
C228 H214 0.930 . S
C228 C226 1.395 . S
C228 C231 1.403 . S
C229 C226 1.403 . S
C229 C230 1.524 . S
C229 C233 1.400 . S
C230 H215 0.960 . S
C230 H216 0.960 . S
C230 H217 0.960 . S
C230 C229 1.524 . S
C231 C228 1.403 . S
C231 C232 1.392 . S
C231 C235 1.495 . S
C232 C231 1.392 . S
C232 C233 1.385 . S
C232 C234 1.478 . S
C233 H227 0.930 . S
C233 C229 1.400 . S
C233 C232 1.385 . S
C234 C232 1.478 . S
C234 C236 1.381 . S
C234 C240 1.383 . S
C235 C231 1.495 . S
C235 H241 0.959 . S
C235 H242 0.961 . S
C235 H243 0.960 . S
C236 C234 1.381 . S
C236 C237 1.394 . S
C236 H244 0.930 . S
C237 C236 1.394 . S
C237 C238 1.383 . S
C237 H245 0.929 . S
C238 C237 1.383 . S
C238 C239 1.377 . S
C239 H223 0.930 . S
C239 C238 1.377 . S
C239 C240 1.379 . S
C240 H224 0.931 . S
C240 C234 1.383 . S
C240 C239 1.379 . S
H241 C235 0.959 . S
H242 C235 0.961 . S
H243 C235 0.960 . S
H244 C236 0.930 . S
H245 C237 0.929 . S
H246 C254 0.929 . S
H247 C256 0.930 . S
H248 C258 0.930 . S
H249 C261 0.929 . S
H250 C264 0.930 . S
H251 C266 0.960 . S
H252 C266 0.960 . S
H253 C266 0.960 . S
C254 H246 0.929 . S
C254 C255 1.377 . S
C254 C256 1.384 . S
C255 C254 1.377 . S
C255 C261 1.390 . S
C256 H247 0.930 . S
C256 C254 1.384 . S
C256 C257 1.372 . S
C257 C256 1.372 . S
C257 C258 1.400 . S
C257 C262 1.490 . S
C258 H248 0.930 . S
C258 C257 1.400 . S
C258 C261 1.386 . S
H259 C275 0.930 . S
H260 C276 0.931 . S
C261 H249 0.929 . S
C261 C255 1.390 . S
C261 C258 1.386 . S
C262 C257 1.490 . S
C262 C264 1.395 . S
C262 C265 1.403 . S
H263 C269 0.930 . S
C264 H250 0.930 . S
C264 C262 1.395 . S
C264 C267 1.403 . S
C265 C262 1.403 . S
C265 C266 1.524 . S
C265 C269 1.400 . S
C266 H251 0.960 . S
C266 H252 0.960 . S
C266 H253 0.960 . S
C266 C265 1.524 . S
C267 C264 1.403 . S
C267 C268 1.392 . S
C267 C271 1.495 . S
C268 C267 1.392 . S
C268 C269 1.385 . S
C268 C270 1.478 . S
C269 H263 0.930 . S
C269 C265 1.400 . S
C269 C268 1.385 . S
C270 C268 1.478 . S
C270 C272 1.381 . S
C270 C276 1.383 . S
C271 C267 1.495 . S
C271 H277 0.959 . S
C271 H278 0.961 . S
C271 H279 0.960 . S
C272 C270 1.381 . S
C272 C273 1.394 . S
C272 H280 0.930 . S
C273 C272 1.394 . S
C273 C274 1.383 . S
C273 H281 0.929 . S
C274 C273 1.383 . S
C274 C275 1.377 . S
C275 H259 0.930 . S
C275 C274 1.377 . S
C275 C276 1.379 . S
C276 H260 0.931 . S
C276 C270 1.383 . S
C276 C275 1.379 . S
H277 C271 0.959 . S
H278 C271 0.961 . S
H279 C271 0.960 . S
H280 C272 0.930 . S
H281 C273 0.929 . S
H282 C290 0.929 . S
H283 C292 0.930 . S
H284 C294 0.930 . S
H285 C297 0.929 . S
H286 C300 0.930 . S
H287 C302 0.960 . S
H288 C302 0.960 . S
H289 C302 0.960 . S
C290 H282 0.929 . S
C290 C291 1.377 . S
C290 C292 1.384 . S
C291 C290 1.377 . S
C291 C297 1.390 . S
C292 H283 0.930 . S
C292 C290 1.384 . S
C292 C293 1.372 . S
C293 C292 1.372 . S
C293 C294 1.400 . S
C293 C298 1.490 . S
C294 H284 0.930 . S
C294 C293 1.400 . S
C294 C297 1.386 . S
H295 C311 0.930 . S
H296 C312 0.931 . S
C297 H285 0.929 . S
C297 C291 1.390 . S
C297 C294 1.386 . S
C298 C293 1.490 . S
C298 C300 1.395 . S
C298 C301 1.403 . S
H299 C305 0.930 . S
C300 H286 0.930 . S
C300 C298 1.395 . S
C300 C303 1.403 . S
C301 C298 1.403 . S
C301 C302 1.524 . S
C301 C305 1.400 . S
C302 H287 0.960 . S
C302 H288 0.960 . S
C302 H289 0.960 . S
C302 C301 1.524 . S
C303 C300 1.403 . S
C303 C304 1.392 . S
C303 C307 1.495 . S
C304 C303 1.392 . S
C304 C305 1.385 . S
C304 C306 1.478 . S
C305 H299 0.930 . S
C305 C301 1.400 . S
C305 C304 1.385 . S
C306 C304 1.478 . S
C306 C308 1.381 . S
C306 C312 1.383 . S
C307 C303 1.495 . S
C307 H313 0.959 . S
C307 H314 0.961 . S
C307 H315 0.960 . S
C308 C306 1.381 . S
C308 C309 1.394 . S
C308 H316 0.930 . S
C309 C308 1.394 . S
C309 C310 1.383 . S
C309 H317 0.929 . S
C310 C309 1.383 . S
C310 C311 1.377 . S
C311 H295 0.930 . S
C311 C310 1.377 . S
C311 C312 1.379 . S
C312 H296 0.931 . S
C312 C306 1.383 . S
C312 C311 1.379 . S
H313 C307 0.959 . S
H314 C307 0.961 . S
H315 C307 0.960 . S
H316 C308 0.930 . S
H317 C309 0.929 . S
H318 C326 0.929 . S
H319 C328 0.930 . S
H320 C330 0.930 . S
H321 C333 0.929 . S
H322 C336 0.930 . S
H323 C338 0.960 . S
H324 C338 0.960 . S
H325 C338 0.960 . S
C326 H318 0.929 . S
C326 C327 1.377 . S
C326 C328 1.384 . S
C327 C326 1.377 . S
C327 C333 1.390 . S
C328 H319 0.930 . S
C328 C326 1.384 . S
C328 C329 1.372 . S
C329 C328 1.372 . S
C329 C330 1.400 . S
C329 C334 1.490 . S
C330 H320 0.930 . S
C330 C329 1.400 . S
C330 C333 1.386 . S
H331 C347 0.930 . S
H332 C348 0.931 . S
C333 H321 0.929 . S
C333 C327 1.390 . S
C333 C330 1.386 . S
C334 C329 1.490 . S
C334 C336 1.395 . S
C334 C337 1.403 . S
H335 C341 0.930 . S
C336 H322 0.930 . S
C336 C334 1.395 . S
C336 C339 1.403 . S
C337 C334 1.403 . S
C337 C338 1.524 . S
C337 C341 1.400 . S
C338 H323 0.960 . S
C338 H324 0.960 . S
C338 H325 0.960 . S
C338 C337 1.524 . S
C339 C336 1.403 . S
C339 C340 1.392 . S
C339 C343 1.495 . S
C340 C339 1.392 . S
C340 C341 1.385 . S
C340 C342 1.478 . S
C341 H335 0.930 . S
C341 C337 1.400 . S
C341 C340 1.385 . S
C342 C340 1.478 . S
C342 C344 1.381 . S
C342 C348 1.383 . S
C343 C339 1.495 . S
C343 H349 0.959 . S
C343 H350 0.961 . S
C343 H351 0.960 . S
C344 C342 1.381 . S
C344 C345 1.394 . S
C344 H352 0.930 . S
C345 C344 1.394 . S
C345 C346 1.383 . S
C345 H353 0.929 . S
C346 C345 1.383 . S
C346 C347 1.377 . S
C347 H331 0.930 . S
C347 C346 1.377 . S
C347 C348 1.379 . S
C348 H332 0.931 . S
C348 C342 1.383 . S
C348 C347 1.379 . S
H349 C343 0.959 . S
H350 C343 0.961 . S
H351 C343 0.960 . S
H352 C344 0.930 . S
H353 C345 0.929 . S
H354 C362 0.929 . S
H355 C364 0.930 . S
H356 C366 0.930 . S
H357 C369 0.929 . S
H358 C372 0.930 . S
H359 C374 0.960 . S
H360 C374 0.960 . S
H361 C374 0.960 . S
C362 H354 0.929 . S
C362 C363 1.377 . S
C362 C364 1.384 . S
C363 C362 1.377 . S
C363 C369 1.390 . S
C364 H355 0.930 . S
C364 C362 1.384 . S
C364 C365 1.372 . S
C365 C364 1.372 . S
C365 C366 1.400 . S
C365 C370 1.490 . S
C366 H356 0.930 . S
C366 C365 1.400 . S
C366 C369 1.386 . S
H367 C383 0.930 . S
H368 C384 0.931 . S
C369 H357 0.929 . S
C369 C363 1.390 . S
C369 C366 1.386 . S
C370 C365 1.490 . S
C370 C372 1.395 . S
C370 C373 1.403 . S
H371 C377 0.930 . S
C372 H358 0.930 . S
C372 C370 1.395 . S
C372 C375 1.403 . S
C373 C370 1.403 . S
C373 C374 1.524 . S
C373 C377 1.400 . S
C374 H359 0.960 . S
C374 H360 0.960 . S
C374 H361 0.960 . S
C374 C373 1.524 . S
C375 C372 1.403 . S
C375 C376 1.392 . S
C375 C379 1.495 . S
C376 C375 1.392 . S
C376 C377 1.385 . S
C376 C378 1.478 . S
C377 H371 0.930 . S
C377 C373 1.400 . S
C377 C376 1.385 . S
C378 C376 1.478 . S
C378 C380 1.381 . S
C378 C384 1.383 . S
C379 C375 1.495 . S
C379 H385 0.959 . S
C379 H386 0.961 . S
C379 H387 0.960 . S
C380 C378 1.381 . S
C380 C381 1.394 . S
C380 H388 0.930 . S
C381 C380 1.394 . S
C381 C382 1.383 . S
C381 H389 0.929 . S
C382 C381 1.383 . S
C382 C383 1.377 . S
C383 H367 0.930 . S
C383 C382 1.377 . S
C383 C384 1.379 . S
C384 H368 0.931 . S
C384 C378 1.383 . S
C384 C383 1.379 . S
H385 C379 0.959 . S
H386 C379 0.961 . S
H387 C379 0.960 . S
H388 C380 0.930 . S
H389 C381 0.929 . S
H390 C398 0.929 . S
H391 C400 0.930 . S
H392 C402 0.930 . S
H393 C405 0.929 . S
H394 C408 0.930 . S
H395 C410 0.960 . S
H396 C410 0.960 . S
H397 C410 0.960 . S
C398 H390 0.929 . S
C398 C399 1.377 . S
C398 C400 1.384 . S
C399 C398 1.377 . S
C399 C405 1.390 . S
C400 H391 0.930 . S
C400 C398 1.384 . S
C400 C401 1.372 . S
C401 C400 1.372 . S
C401 C402 1.400 . S
C401 C406 1.490 . S
C402 H392 0.930 . S
C402 C401 1.400 . S
C402 C405 1.386 . S
H403 C419 0.930 . S
H404 C420 0.931 . S
C405 H393 0.929 . S
C405 C399 1.390 . S
C405 C402 1.386 . S
C406 C401 1.490 . S
C406 C408 1.395 . S
C406 C409 1.403 . S
H407 C413 0.930 . S
C408 H394 0.930 . S
C408 C406 1.395 . S
C408 C411 1.403 . S
C409 C406 1.403 . S
C409 C410 1.524 . S
C409 C413 1.400 . S
C410 H395 0.960 . S
C410 H396 0.960 . S
C410 H397 0.960 . S
C410 C409 1.524 . S
C411 C408 1.403 . S
C411 C412 1.392 . S
C411 C415 1.495 . S
C412 C411 1.392 . S
C412 C413 1.385 . S
C412 C414 1.478 . S
C413 H407 0.930 . S
C413 C409 1.400 . S
C413 C412 1.385 . S
C414 C412 1.478 . S
C414 C416 1.381 . S
C414 C420 1.383 . S
C415 C411 1.495 . S
C415 H421 0.959 . S
C415 H422 0.961 . S
C415 H423 0.960 . S
C416 C414 1.381 . S
C416 C417 1.394 . S
C416 H424 0.930 . S
C417 C416 1.394 . S
C417 C418 1.383 . S
C417 H425 0.929 . S
C418 C417 1.383 . S
C418 C419 1.377 . S
C419 H403 0.930 . S
C419 C418 1.377 . S
C419 C420 1.379 . S
C420 H404 0.931 . S
C420 C414 1.383 . S
C420 C419 1.379 . S
H421 C415 0.959 . S
H422 C415 0.961 . S
H423 C415 0.960 . S
H424 C416 0.930 . S
H425 C417 0.929 . S
H426 C434 0.929 . S
H427 C436 0.930 . S
H428 C438 0.930 . S
H429 C441 0.929 . S
H430 C444 0.930 . S
H431 C446 0.960 . S
H432 C446 0.960 . S
H433 C446 0.960 . S
C434 H426 0.929 . S
C434 C435 1.377 . S
C434 C436 1.384 . S
C435 C434 1.377 . S
C435 C441 1.390 . S
C436 H427 0.930 . S
C436 C434 1.384 . S
C436 C437 1.372 . S
C437 C436 1.372 . S
C437 C438 1.400 . S
C437 C442 1.490 . S
C438 H428 0.930 . S
C438 C437 1.400 . S
C438 C441 1.386 . S
H439 C455 0.930 . S
H440 C456 0.931 . S
C441 H429 0.929 . S
C441 C435 1.390 . S
C441 C438 1.386 . S
C442 C437 1.490 . S
C442 C444 1.395 . S
C442 C445 1.403 . S
H443 C449 0.930 . S
C444 H430 0.930 . S
C444 C442 1.395 . S
C444 C447 1.403 . S
C445 C442 1.403 . S
C445 C446 1.524 . S
C445 C449 1.400 . S
C446 H431 0.960 . S
C446 H432 0.960 . S
C446 H433 0.960 . S
C446 C445 1.524 . S
C447 C444 1.403 . S
C447 C448 1.392 . S
C447 C451 1.495 . S
C448 C447 1.392 . S
C448 C449 1.385 . S
C448 C450 1.478 . S
C449 H443 0.930 . S
C449 C445 1.400 . S
C449 C448 1.385 . S
C450 C448 1.478 . S
C450 C452 1.381 . S
C450 C456 1.383 . S
C451 C447 1.495 . S
C451 H457 0.959 . S
C451 H458 0.961 . S
C451 H459 0.960 . S
C452 C450 1.381 . S
C452 C453 1.394 . S
C452 H460 0.930 . S
C453 C452 1.394 . S
C453 C454 1.383 . S
C453 H461 0.929 . S
C454 C453 1.383 . S
C454 C455 1.377 . S
C455 H439 0.930 . S
C455 C454 1.377 . S
C455 C456 1.379 . S
C456 H440 0.931 . S
C456 C450 1.383 . S
C456 C455 1.379 . S
H457 C451 0.959 . S
H458 C451 0.961 . S
H459 C451 0.960 . S
H460 C452 0.930 . S
H461 C453 0.929 . S
H462 C470 0.929 . S
H463 C472 0.930 . S
H464 C474 0.930 . S
H465 C477 0.929 . S
H466 C480 0.930 . S
H467 C482 0.960 . S
H468 C482 0.960 . S
H469 C482 0.960 . S
C470 H462 0.929 . S
C470 C471 1.377 . S
C470 C472 1.384 . S
C471 C470 1.377 . S
C471 C477 1.390 . S
C472 H463 0.930 . S
C472 C470 1.384 . S
C472 C473 1.372 . S
C473 C472 1.372 . S
C473 C474 1.400 . S
C473 C478 1.490 . S
C474 H464 0.930 . S
C474 C473 1.400 . S
C474 C477 1.386 . S
H475 C491 0.930 . S
H476 C492 0.931 . S
C477 H465 0.929 . S
C477 C471 1.390 . S
C477 C474 1.386 . S
C478 C473 1.490 . S
C478 C480 1.395 . S
C478 C481 1.403 . S
H479 C485 0.930 . S
C480 H466 0.930 . S
C480 C478 1.395 . S
C480 C483 1.403 . S
C481 C478 1.403 . S
C481 C482 1.524 . S
C481 C485 1.400 . S
C482 H467 0.960 . S
C482 H468 0.960 . S
C482 H469 0.960 . S
C482 C481 1.524 . S
C483 C480 1.403 . S
C483 C484 1.392 . S
C483 C487 1.495 . S
C484 C483 1.392 . S
C484 C485 1.385 . S
C484 C486 1.478 . S
C485 H479 0.930 . S
C485 C481 1.400 . S
C485 C484 1.385 . S
C486 C484 1.478 . S
C486 C488 1.381 . S
C486 C492 1.383 . S
C487 C483 1.495 . S
C487 H493 0.959 . S
C487 H494 0.961 . S
C487 H495 0.960 . S
C488 C486 1.381 . S
C488 C489 1.394 . S
C488 H496 0.930 . S
C489 C488 1.394 . S
C489 C490 1.383 . S
C489 H497 0.929 . S
C490 C489 1.383 . S
C490 C491 1.377 . S
C491 H475 0.930 . S
C491 C490 1.377 . S
C491 C492 1.379 . S
C492 H476 0.931 . S
C492 C486 1.383 . S
C492 C491 1.379 . S
H493 C487 0.959 . S
H494 C487 0.961 . S
H495 C487 0.960 . S
H496 C488 0.930 . S
H497 C489 0.929 . S
H498 C506 0.929 . S
H499 C508 0.930 . S
H500 C510 0.930 . S
H501 C513 0.929 . S
H502 C516 0.930 . S
H503 C518 0.960 . S
H504 C518 0.960 . S
H505 C518 0.960 . S
C506 H498 0.929 . S
C506 C507 1.377 . S
C506 C508 1.384 . S
C507 C506 1.377 . S
C507 C513 1.390 . S
C508 H499 0.930 . S
C508 C506 1.384 . S
C508 C509 1.372 . S
C509 C508 1.372 . S
C509 C510 1.400 . S
C509 C514 1.490 . S
C510 H500 0.930 . S
C510 C509 1.400 . S
C510 C513 1.386 . S
H511 C527 0.930 . S
H512 C528 0.931 . S
C513 H501 0.929 . S
C513 C507 1.390 . S
C513 C510 1.386 . S
C514 C509 1.490 . S
C514 C516 1.395 . S
C514 C517 1.403 . S
H515 C521 0.930 . S
C516 H502 0.930 . S
C516 C514 1.395 . S
C516 C519 1.403 . S
C517 C514 1.403 . S
C517 C518 1.524 . S
C517 C521 1.400 . S
C518 H503 0.960 . S
C518 H504 0.960 . S
C518 H505 0.960 . S
C518 C517 1.524 . S
C519 C516 1.403 . S
C519 C520 1.392 . S
C519 C523 1.495 . S
C520 C519 1.392 . S
C520 C521 1.385 . S
C520 C522 1.478 . S
C521 H515 0.930 . S
C521 C517 1.400 . S
C521 C520 1.385 . S
C522 C520 1.478 . S
C522 C524 1.381 . S
C522 C528 1.383 . S
C523 C519 1.495 . S
C523 H529 0.959 . S
C523 H530 0.961 . S
C523 H531 0.960 . S
C524 C522 1.381 . S
C524 C525 1.394 . S
C524 H532 0.930 . S
C525 C524 1.394 . S
C525 C526 1.383 . S
C525 H533 0.929 . S
C526 C525 1.383 . S
C526 C527 1.377 . S
C527 H511 0.930 . S
C527 C526 1.377 . S
C527 C528 1.379 . S
C528 H512 0.931 . S
C528 C522 1.383 . S
C528 C527 1.379 . S
H529 C523 0.959 . S
H530 C523 0.961 . S
H531 C523 0.960 . S
H532 C524 0.930 . S
H533 C525 0.929 . S
H534 C542 0.929 . S
H535 C544 0.930 . S
H536 C546 0.930 . S
H537 C549 0.929 . S
H538 C552 0.930 . S
H539 C554 0.960 . S
H540 C554 0.960 . S
H541 C554 0.960 . S
C542 H534 0.929 . S
C542 C543 1.377 . S
C542 C544 1.384 . S
C543 C542 1.377 . S
C543 C549 1.390 . S
C544 H535 0.930 . S
C544 C542 1.384 . S
C544 C545 1.372 . S
C545 C544 1.372 . S
C545 C546 1.400 . S
C545 C550 1.490 . S
C546 H536 0.930 . S
C546 C545 1.400 . S
C546 C549 1.386 . S
H547 C563 0.930 . S
H548 C564 0.931 . S
C549 H537 0.929 . S
C549 C543 1.390 . S
C549 C546 1.386 . S
C550 C545 1.490 . S
C550 C552 1.395 . S
C550 C553 1.403 . S
H551 C557 0.930 . S
C552 H538 0.930 . S
C552 C550 1.395 . S
C552 C555 1.403 . S
C553 C550 1.403 . S
C553 C554 1.524 . S
C553 C557 1.400 . S
C554 H539 0.960 . S
C554 H540 0.960 . S
C554 H541 0.960 . S
C554 C553 1.524 . S
C555 C552 1.403 . S
C555 C556 1.392 . S
C555 C559 1.495 . S
C556 C555 1.392 . S
C556 C557 1.385 . S
C556 C558 1.478 . S
C557 H551 0.930 . S
C557 C553 1.400 . S
C557 C556 1.385 . S
C558 C556 1.478 . S
C558 C560 1.381 . S
C558 C564 1.383 . S
C559 C555 1.495 . S
C559 H565 0.959 . S
C559 H566 0.961 . S
C559 H567 0.960 . S
C560 C558 1.381 . S
C560 C561 1.394 . S
C560 H568 0.930 . S
C561 C560 1.394 . S
C561 C562 1.383 . S
C561 H569 0.929 . S
C562 C561 1.383 . S
C562 C563 1.377 . S
C563 H547 0.930 . S
C563 C562 1.377 . S
C563 C564 1.379 . S
C564 H548 0.931 . S
C564 C558 1.383 . S
C564 C563 1.379 . S
H565 C559 0.959 . S
H566 C559 0.961 . S
H567 C559 0.960 . S
H568 C560 0.930 . S
H569 C561 0.929 . S
H570 C578 0.929 . S
H571 C580 0.930 . S
H572 C582 0.930 . S
H573 C585 0.929 . S
H574 C588 0.930 . S
H575 C590 0.960 . S
H576 C590 0.960 . S
H577 C590 0.960 . S
C578 H570 0.929 . S
C578 C579 1.377 . S
C578 C580 1.384 . S
C579 C578 1.377 . S
C579 C585 1.390 . S
C580 H571 0.930 . S
C580 C578 1.384 . S
C580 C581 1.372 . S
C581 C580 1.372 . S
C581 C582 1.400 . S
C581 C586 1.490 . S
C582 H572 0.930 . S
C582 C581 1.400 . S
C582 C585 1.386 . S
H583 C599 0.930 . S
H584 C600 0.931 . S
C585 H573 0.929 . S
C585 C579 1.390 . S
C585 C582 1.386 . S
C586 C581 1.490 . S
C586 C588 1.395 . S
C586 C589 1.403 . S
H587 C593 0.930 . S
C588 H574 0.930 . S
C588 C586 1.395 . S
C588 C591 1.403 . S
C589 C586 1.403 . S
C589 C590 1.524 . S
C589 C593 1.400 . S
C590 H575 0.960 . S
C590 H576 0.960 . S
C590 H577 0.960 . S
C590 C589 1.524 . S
C591 C588 1.403 . S
C591 C592 1.392 . S
C591 C595 1.495 . S
C592 C591 1.392 . S
C592 C593 1.385 . S
C592 C594 1.478 . S
C593 H587 0.930 . S
C593 C589 1.400 . S
C593 C592 1.385 . S
C594 C592 1.478 . S
C594 C596 1.381 . S
C594 C600 1.383 . S
C595 C591 1.495 . S
C595 H601 0.959 . S
C595 H602 0.961 . S
C595 H603 0.960 . S
C596 C594 1.381 . S
C596 C597 1.394 . S
C596 H604 0.930 . S
C597 C596 1.394 . S
C597 C598 1.383 . S
C597 H605 0.929 . S
C598 C597 1.383 . S
C598 C599 1.377 . S
C599 H583 0.930 . S
C599 C598 1.377 . S
C599 C600 1.379 . S
C600 H584 0.931 . S
C600 C594 1.383 . S
C600 C599 1.379 . S
H601 C595 0.959 . S
H602 C595 0.961 . S
H603 C595 0.960 . S
H604 C596 0.930 . S
H605 C597 0.929 . S
H606 C614 0.929 . S
H607 C616 0.930 . S
H608 C618 0.930 . S
H609 C621 0.929 . S
H610 C624 0.930 . S
H611 C626 0.960 . S
H612 C626 0.960 . S
H613 C626 0.960 . S
C614 H606 0.929 . S
C614 C615 1.377 . S
C614 C616 1.384 . S
C615 C614 1.377 . S
C615 C621 1.390 . S
C616 H607 0.930 . S
C616 C614 1.384 . S
C616 C617 1.372 . S
C617 C616 1.372 . S
C617 C618 1.400 . S
C617 C622 1.490 . S
C618 H608 0.930 . S
C618 C617 1.400 . S
C618 C621 1.386 . S
H619 C635 0.930 . S
H620 C636 0.931 . S
C621 H609 0.929 . S
C621 C615 1.390 . S
C621 C618 1.386 . S
C622 C617 1.490 . S
C622 C624 1.395 . S
C622 C625 1.403 . S
H623 C629 0.930 . S
C624 H610 0.930 . S
C624 C622 1.395 . S
C624 C627 1.403 . S
C625 C622 1.403 . S
C625 C626 1.524 1_455 S
C625 C629 1.400 1_554 S
C626 H611 0.960 . S
C626 H612 0.960 . S
C626 H613 0.960 . S
C626 C625 1.524 1_655 S
C627 C624 1.403 . S
C627 C628 1.392 1_554 S
C627 C631 1.495 1_554 S
C628 C627 1.392 1_556 S
C628 C629 1.385 . S
C628 C630 1.478 . S
C629 H623 0.930 . S
C629 C625 1.400 1_556 S
C629 C628 1.385 . S
C630 C628 1.478 . S
C630 C632 1.381 . S
C630 C636 1.383 . S
C631 C627 1.495 1_556 S
C631 H637 0.959 1_556 S
C631 H638 0.961 . S
C631 H639 0.960 . S
C632 C630 1.381 . S
C632 C633 1.394 . S
C632 H640 0.930 . S
C633 C632 1.394 . S
C633 C634 1.383 . S
C633 H641 0.929 . S
C634 C633 1.383 . S
C634 C635 1.377 . S
C635 H619 0.930 . S
C635 C634 1.377 . S
C635 C636 1.379 . S
C636 H620 0.931 . S
C636 C630 1.383 . S
C636 C635 1.379 . S
H637 C631 0.959 1_554 S
H638 C631 0.961 . S
H639 C631 0.960 . S
H640 C632 0.930 . S
H641 C633 0.929 . S
H642 C650 0.929 . S
H643 C652 0.930 . S
H644 C654 0.930 . S
H645 C657 0.929 . S
H646 C660 0.930 . S
H647 C662 0.960 . S
H648 C662 0.960 . S
H649 C662 0.960 . S
C650 H642 0.929 . S
C650 C651 1.377 . S
C650 C652 1.384 . S
C651 C650 1.377 . S
C651 C657 1.390 . S
C652 H643 0.930 . S
C652 C650 1.384 . S
C652 C653 1.372 . S
C653 C652 1.372 . S
C653 C654 1.400 . S
C653 C658 1.490 . S
C654 H644 0.930 . S
C654 C653 1.400 . S
C654 C657 1.386 . S
H655 C671 0.930 . S
H656 C672 0.931 . S
C657 H645 0.929 . S
C657 C651 1.390 . S
C657 C654 1.386 . S
C658 C653 1.490 . S
C658 C660 1.395 . S
C658 C661 1.403 1_545 S
H659 C665 0.930 . S
C660 H646 0.930 . S
C660 C658 1.395 . S
C660 C663 1.403 . S
C661 C658 1.403 1_565 S
C661 C662 1.524 . S
C661 C665 1.400 . S
C662 H647 0.960 . S
C662 H648 0.960 . S
C662 H649 0.960 . S
C662 C661 1.524 . S
C663 C660 1.403 . S
C663 C664 1.392 . S
C663 C667 1.495 . S
C664 C663 1.392 . S
C664 C665 1.385 1_545 S
C664 C666 1.478 . S
C665 H659 0.930 . S
C665 C661 1.400 . S
C665 C664 1.385 1_565 S
C666 C664 1.478 . S
C666 C668 1.381 . S
C666 C672 1.383 . S
C667 C663 1.495 . S
C667 H673 0.959 . S
C667 H674 0.961 . S
C667 H675 0.960 . S
C668 C666 1.381 . S
C668 C669 1.394 . S
C668 H676 0.930 . S
C669 C668 1.394 . S
C669 C670 1.383 . S
C669 H677 0.929 . S
C670 C669 1.383 . S
C670 C671 1.377 . S
C671 H655 0.930 . S
C671 C670 1.377 . S
C671 C672 1.379 . S
C672 H656 0.931 . S
C672 C666 1.383 . S
C672 C671 1.379 . S
H673 C667 0.959 . S
H674 C667 0.961 . S
H675 C667 0.960 . S
H676 C668 0.930 . S
H677 C669 0.929 . S
H678 C686 0.929 . S
H679 C688 0.930 . S
H680 C690 0.930 . S
H681 C693 0.929 . S
H682 C696 0.930 . S
H683 C698 0.960 . S
H684 C698 0.960 . S
H685 C698 0.960 . S
C686 H678 0.929 . S
C686 C687 1.377 . S
C686 C688 1.384 . S
C687 C686 1.377 . S
C687 C693 1.390 . S
C688 H679 0.930 . S
C688 C686 1.384 . S
C688 C689 1.372 . S
C689 C688 1.372 . S
C689 C690 1.400 . S
C689 C694 1.490 . S
C690 H680 0.930 . S
C690 C689 1.400 . S
C690 C693 1.386 . S
H691 C707 0.930 . S
H692 C708 0.931 . S
C693 H681 0.929 . S
C693 C687 1.390 . S
C693 C690 1.386 . S
C694 C689 1.490 . S
C694 C696 1.395 . S
C694 C697 1.403 . S
H695 C701 0.930 . S
C696 H682 0.930 . S
C696 C694 1.395 . S
C696 C699 1.403 . S
C697 C694 1.403 . S
C697 C698 1.524 . S
C697 C701 1.400 . S
C698 H683 0.960 . S
C698 H684 0.960 . S
C698 H685 0.960 . S
C698 C697 1.524 . S
C699 C696 1.403 . S
C699 C700 1.392 . S
C699 C703 1.495 . S
C700 C699 1.392 . S
C700 C701 1.385 . S
C700 C702 1.478 . S
C701 H695 0.930 . S
C701 C697 1.400 . S
C701 C700 1.385 . S
C702 C700 1.478 . S
C702 C704 1.381 . S
C702 C708 1.383 . S
C703 C699 1.495 . S
C703 H709 0.959 . S
C703 H710 0.961 . S
C703 H711 0.960 . S
C704 C702 1.381 . S
C704 C705 1.394 . S
C704 H712 0.930 . S
C705 C704 1.394 . S
C705 C706 1.383 . S
C705 H713 0.929 . S
C706 C705 1.383 . S
C706 C707 1.377 . S
C707 H691 0.930 . S
C707 C706 1.377 . S
C707 C708 1.379 . S
C708 H692 0.931 . S
C708 C702 1.383 . S
C708 C707 1.379 . S
H709 C703 0.959 . S
H710 C703 0.961 . S
H711 C703 0.960 . S
H712 C704 0.930 . S
H713 C705 0.929 . S
H714 C722 0.929 1_565 S
H715 C724 0.930 1_565 S
H716 C726 0.930 . S
H717 C729 0.929 . S
H718 C732 0.930 . S
H719 C734 0.960 . S
H720 C734 0.960 . S
H721 C734 0.960 . S
C722 H714 0.929 1_545 S
C722 C723 1.377 . S
C722 C724 1.384 . S
C723 C722 1.377 . S
C723 C729 1.390 . S
C724 H715 0.930 1_545 S
C724 C722 1.384 . S
C724 C725 1.372 . S
C725 C724 1.372 . S
C725 C726 1.400 . S
C725 C730 1.490 . S
C726 H716 0.930 . S
C726 C725 1.400 . S
C726 C729 1.386 . S
H727 C743 0.930 . S
H728 C744 0.931 . S
C729 H717 0.929 . S
C729 C723 1.390 . S
C729 C726 1.386 . S
C730 C725 1.490 . S
C730 C732 1.395 . S
C730 C733 1.403 . S
H731 C737 0.930 . S
C732 H718 0.930 . S
C732 C730 1.395 . S
C732 C735 1.403 . S
C733 C730 1.403 . S
C733 C734 1.524 . S
C733 C737 1.400 . S
C734 H719 0.960 . S
C734 H720 0.960 . S
C734 H721 0.960 . S
C734 C733 1.524 . S
C735 C732 1.403 . S
C735 C736 1.392 . S
C735 C739 1.495 . S
C736 C735 1.392 . S
C736 C737 1.385 . S
C736 C738 1.478 . S
C737 H731 0.930 . S
C737 C733 1.400 . S
C737 C736 1.385 . S
C738 C736 1.478 . S
C738 C740 1.381 . S
C738 C744 1.383 . S
C739 C735 1.495 . S
C739 H745 0.959 . S
C739 H746 0.961 . S
C739 H747 0.960 . S
C740 C738 1.381 . S
C740 C741 1.394 . S
C740 H748 0.930 1_545 S
C741 C740 1.394 . S
C741 C742 1.383 . S
C741 H749 0.929 1_545 S
C742 C741 1.383 . S
C742 C743 1.377 . S
C743 H727 0.930 . S
C743 C742 1.377 . S
C743 C744 1.379 . S
C744 H728 0.931 . S
C744 C738 1.383 . S
C744 C743 1.379 . S
H745 C739 0.959 . S
H746 C739 0.961 . S
H747 C739 0.960 . S
H748 C740 0.930 1_565 S
H749 C741 0.929 1_565 S
H750 C758 0.929 . S
H751 C760 0.930 . S
H752 C762 0.930 . S
H753 C765 0.929 . S
H754 C768 0.930 . S
H755 C770 0.960 . S
H756 C770 0.960 . S
H757 C770 0.960 . S
C758 H750 0.929 . S
C758 C759 1.377 . S
C758 C760 1.384 . S
C759 C758 1.377 . S
C759 C765 1.390 . S
C760 H751 0.930 . S
C760 C758 1.384 . S
C760 C761 1.372 . S
C761 C760 1.372 . S
C761 C762 1.400 . S
C761 C766 1.490 . S
C762 H752 0.930 . S
C762 C761 1.400 . S
C762 C765 1.386 . S
H763 C779 0.930 . S
H764 C780 0.931 . S
C765 H753 0.929 . S
C765 C759 1.390 . S
C765 C762 1.386 . S
C766 C761 1.490 . S
C766 C768 1.395 . S
C766 C769 1.403 . S
H767 C773 0.930 . S
C768 H754 0.930 . S
C768 C766 1.395 . S
C768 C771 1.403 1_556 S
C769 C766 1.403 . S
C769 C770 1.524 . S
C769 C773 1.400 1_556 S
C770 H755 0.960 . S
C770 H756 0.960 . S
C770 H757 0.960 . S
C770 C769 1.524 . S
C771 C768 1.403 1_554 S
C771 C772 1.392 . S
C771 C775 1.495 . S
C772 C771 1.392 . S
C772 C773 1.385 . S
C772 C774 1.478 . S
C773 H767 0.930 . S
C773 C769 1.400 1_554 S
C773 C772 1.385 . S
C774 C772 1.478 . S
C774 C776 1.381 . S
C774 C780 1.383 . S
C775 C771 1.495 . S
C775 H781 0.959 . S
C775 H782 0.961 . S
C775 H783 0.960 . S
C776 C774 1.381 . S
C776 C777 1.394 . S
C776 H784 0.930 . S
C777 C776 1.394 . S
C777 C778 1.383 . S
C777 H785 0.929 . S
C778 C777 1.383 . S
C778 C779 1.377 . S
C779 H763 0.930 . S
C779 C778 1.377 . S
C779 C780 1.379 . S
C780 H764 0.931 . S
C780 C774 1.383 . S
C780 C779 1.379 . S
H781 C775 0.959 . S
H782 C775 0.961 . S
H783 C775 0.960 . S
H784 C776 0.930 . S
H785 C777 0.929 . S
H786 C794 0.929 . S
H787 C796 0.930 . S
H788 C798 0.930 . S
H789 C801 0.929 . S
H790 C804 0.930 . S
H791 C806 0.960 . S
H792 C806 0.960 . S
H793 C806 0.960 . S
C794 H786 0.929 . S
C794 C795 1.377 . S
C794 C796 1.384 . S
C795 C794 1.377 . S
C795 C801 1.390 . S
C796 H787 0.930 . S
C796 C794 1.384 . S
C796 C797 1.372 . S
C797 C796 1.372 . S
C797 C798 1.400 . S
C797 C802 1.490 . S
C798 H788 0.930 . S
C798 C797 1.400 . S
C798 C801 1.386 . S
H799 C815 0.928 1_655 S
H800 C816 0.931 1_655 S
C801 H789 0.929 . S
C801 C795 1.390 . S
C801 C798 1.386 . S
C802 C797 1.490 . S
C802 C804 1.395 . S
C802 C805 1.403 . S
H803 C809 0.930 . S
C804 H790 0.930 . S
C804 C802 1.395 . S
C804 C807 1.403 . S
C805 C802 1.403 . S
C805 C806 1.524 . S
C805 C809 1.400 . S
C806 H791 0.960 . S
C806 H792 0.960 . S
C806 H793 0.960 . S
C806 C805 1.524 . S
C807 C804 1.403 . S
C807 C808 1.392 . S
C807 C811 1.495 1_455 S
C808 C807 1.392 . S
C808 C809 1.385 . S
C808 C810 1.478 . S
C809 H803 0.930 . S
C809 C805 1.400 . S
C809 C808 1.385 . S
C810 C808 1.478 . S
C810 C812 1.381 . S
C810 C816 1.383 . S
C811 C807 1.495 1_655 S
C811 H817 0.959 . S
C811 H818 0.961 . S
C811 H819 0.960 1_655 S
C812 C810 1.381 . S
C812 C813 1.394 . S
C812 H820 0.930 . S
C813 C812 1.394 . S
C813 C814 1.383 . S
C813 H821 0.929 . S
C814 C813 1.383 . S
C814 C815 1.377 . S
C815 H799 0.928 1_455 S
C815 C814 1.377 . S
C815 C816 1.380 . S
C816 H800 0.931 1_455 S
C816 C810 1.383 . S
C816 C815 1.380 . S
H817 C811 0.959 . S
H818 C811 0.961 . S
H819 C811 0.960 1_455 S
H820 C812 0.930 . S
H821 C813 0.929 . S
C183 C2 1.212 . S
C202 C166 1.136 . S
C219 C21 1.078 . S
C238 C128 1.090 . S
C255 C42 1.169 . S
C274 C147 1.157 . S
C291 C1 0.869 . S
C310 C161 0.874 . S
C346 C123 0.955 . S
C327 C22 0.979 . S
C382 C142 0.871 . S
C363 C41 0.861 . S
C399 C38 1.964 . S
C418 C90 1.920 . S
C435 C59 1.844 . S
C454 C104 1.817 1_655 S
C471 C18 1.740 . S
C490 C66 1.725 . S
C526 C85 1.797 . S
C507 C39 1.841 . S
C562 C109 1.900 . S
C543 C58 1.945 . S
C579 C19 2.071 . S
C598 C71 2.012 . S
C634 C100 1.598 . S
C615 C9 1.578 . S
C651 C29 1.579 . S
C670 C62 1.670 . S
C687 C49 1.595 . S
C706 C81 1.623 . S
C742 C138 1.590 . S
C723 C28 1.571 . S
C778 C157 1.538 . S
C759 C48 1.514 . S
C795 C8 1.452 . S
C814 C119 1.492 . S
