# Generated by pormake.
# Topology pth, (4,4)-cn, num edge types: 1
# Building blocks:
#     Node 0, Type 0, BuildingBlock: AZAVOO_clean_sbu_0, # of connection points: 4
#     Node 1, Type 0, BuildingBlock: AZAVOO_clean_sbu_0, # of connection points: 4
#     Node 2, Type 0, BuildingBlock: AZAVOO_clean_sbu_0, # of connection points: 4
#     Node 3, Type 1, BuildingBlock: AZAVOO_clean_linker_0, # of connection points: 4
#     Node 4, Type 1, BuildingBlock: AZAVOO_clean_linker_0, # of connection points: 4
#     Node 5, Type 1, BuildingBlock: AZAVOO_clean_linker_0, # of connection points: 4
#     Edge 6, Type (0, 1), BuildingBlock: FUNLAD_clean_linker_1, # of connection points: 2
#     Edge 7, Type (0, 1), BuildingBlock: FUNLAD_clean_linker_1, # of connection points: 2
#     Edge 8, Type (0, 1), BuildingBlock: FUNLAD_clean_linker_1, # of connection points: 2
#     Edge 9, Type (0, 1), BuildingBlock: FUNLAD_clean_linker_1, # of connection points: 2
#     Edge 10, Type (0, 1), BuildingBlock: FUNLAD_clean_linker_1, # of connection points: 2
#     Edge 11, Type (0, 1), BuildingBlock: FUNLAD_clean_linker_1, # of connection points: 2
#     Edge 12, Type (0, 1), BuildingBlock: FUNLAD_clean_linker_1, # of connection points: 2
#     Edge 13, Type (0, 1), BuildingBlock: FUNLAD_clean_linker_1, # of connection points: 2
#     Edge 14, Type (0, 1), BuildingBlock: FUNLAD_clean_linker_1, # of connection points: 2
#     Edge 15, Type (0, 1), BuildingBlock: FUNLAD_clean_linker_1, # of connection points: 2
#     Edge 16, Type (0, 1), BuildingBlock: FUNLAD_clean_linker_1, # of connection points: 2
#     Edge 17, Type (0, 1), BuildingBlock: FUNLAD_clean_linker_1, # of connection points: 2
# Relax obj value: 0.173
# Max RMSD: 0.231
# Mean RMSD: 0.224
data_MOF--net-pth--node1-AZAVOO_clean_sbu_0--node2-AZAVOO_clean_linker_0--edge1-FUNLAD_clean_linker_1
_symmetry_space_group_name_H-M    P1
_symmetry_Int_Tables_number       1
_symmetry_cell_setting            triclinic
loop_
_symmetry_equiv_pos_as_xyz
'x, y, z'
_cell_length_a     26.877678
_cell_length_b     27.551584
_cell_length_c     72.006206
_cell_angle_alpha  92.239468
_cell_angle_beta   91.939243
_cell_angle_gamma 121.99044
loop_
_atom_site_label
_atom_site_type_symbol
_atom_site_fract_x
_atom_site_fract_y
_atom_site_fract_z
_atom_type_partial_charge
Mg0 Mg 0.19469 0.06787 0.07145 0.0
O1 O 0.11758 0.02371 0.04913 0.0
O2 O 0.11133 0.09197 0.03544 0.0
Mg3 Mg 0.18225 0.17888 0.04934 0.0
C4 C 0.09381 0.03938 0.0371 0.0
C5 C 0.11728 0.9431 0.08869 0.0
O6 O 0.11326 0.89734 0.09517 0.0
O7 O 0.1415 0.08654 0.09125 0.0
O8 O 0.13836 0.15611 0.07733 0.0
O9 O 0.25594 0.07582 0.05004 0.0
O10 O 0.23451 0.14153 0.05671 0.0
C11 C 0.12626 0.12314 0.09071 0.0
C12 C 0.26094 0.12382 0.04649 0.0
O13 O 0.1668 0.98226 0.08357 0.0
Mg14 Mg 0.94839 0.99762 0.3798 0.0
O15 O 0.03745 0.0475 0.39657 0.0
O16 O 0.03647 0.11261 0.41593 0.0
Mg17 Mg 0.94994 0.10814 0.41037 0.0
C18 C 0.06162 0.08774 0.40951 0.0
C19 C 0.93989 0.9021 0.3554 0.0
O20 O 0.88623 0.88314 0.36022 0.0
O21 O 0.97769 0.07252 0.361 0.0
O22 O 0.97387 0.13531 0.38068 0.0
O23 O 0.9124 0.93935 0.4031 0.0
O24 O 0.90993 0.01788 0.40092 0.0
C25 C 0.98294 0.12089 0.36469 0.0
C26 C 0.90111 0.97576 0.41047 0.0
O27 O 0.98071 0.95285 0.36089 0.0
Mg28 Mg 0.06276 0.08007 0.72064 0.0
O29 O 0.11102 0.16168 0.74001 0.0
O30 O 0.04604 0.16497 0.75771 0.0
Mg31 Mg 0.95663 0.08171 0.75089 0.0
C32 C 0.09821 0.18656 0.75255 0.0
C33 C 0.16686 0.09013 0.69953 0.0
O34 O 0.14545 0.03924 0.70597 0.0
O35 O 0.01912 0.11658 0.70303 0.0
O36 O 0.95094 0.10972 0.7217 0.0
O37 O 0.07825 0.0316 0.74202 0.0
O38 O 5e-05 0.03846 0.73999 0.0
C39 C 0.97531 0.12133 0.70622 0.0
C40 C 0.02907 0.02005 0.74851 0.0
O41 O 0.14235 0.1179 0.70299 0.0
H42 H 0.88354 0.37979 0.09386 0.0
H43 H 0.10759 0.89168 0.22806 0.0
H44 H 0.90858 0.37337 0.19194 0.0
H45 H 0.91023 0.29269 0.17707 0.0
H46 H 0.09606 0.37893 0.19272 0.0
H47 H 0.09401 0.45905 0.20713 0.0
H48 H 0.89242 0.46158 0.17084 0.0
H49 H 0.87181 0.4236 0.13832 0.0
H50 H 0.04978 0.46196 0.13658 0.0
H51 H 0.06997 0.50042 0.16903 0.0
H52 H 0.9061 0.5707 0.19238 0.0
H53 H 0.89316 0.62975 0.17048 0.0
H54 H 0.05725 0.67451 0.14714 0.0
H55 H 0.0702 0.61651 0.16929 0.0
H56 H 0.94294 0.60766 0.23344 0.0
H57 H 0.95811 0.70271 0.23999 0.0
H58 H 0.12335 0.77971 0.21371 0.0
H59 H 0.10764 0.6846 0.20729 0.0
H60 H 0.9486 0.51765 0.25757 0.0
H61 H 0.95996 0.57528 0.28581 0.0
H62 H 0.13691 0.70243 0.27261 0.0
H63 H 0.12563 0.64295 0.24474 0.0
H64 H 0.93075 0.39783 0.23737 0.0
H65 H 0.94252 0.33607 0.25802 0.0
H66 H 0.12924 0.46123 0.26505 0.0
H67 H 0.11684 0.52284 0.24408 0.0
O68 O 0.89273 0.39529 0.10667 0.0
O69 O 0.98457 0.4156 0.10654 0.0
O70 O 0.01431 0.81201 0.23853 0.0
O71 O 0.10071 0.85365 0.22588 0.0
C72 C 0.00319 0.47578 0.20603 0.0
C73 C 0.99479 0.50601 0.19207 0.0
C74 C 0.99944 0.55839 0.19687 0.0
C75 C 0.01468 0.5818 0.21544 0.0
C76 C 0.02273 0.55162 0.22949 0.0
C77 C 0.01618 0.49813 0.22483 0.0
C78 C 0.00122 0.42213 0.20058 0.0
C79 C 0.94922 0.37395 0.19255 0.0
C80 C 0.95022 0.32797 0.1841 0.0
C81 C 0.0029 0.32882 0.18385 0.0
C82 C 0.0542 0.37569 0.19298 0.0
C83 C 0.05328 0.42191 0.20123 0.0
C84 C 0.98261 0.48362 0.17227 0.0
C85 C 0.92693 0.46196 0.16337 0.0
C86 C 0.91526 0.44018 0.14481 0.0
C87 C 0.95912 0.43966 0.13485 0.0
C88 C 0.015 0.46166 0.14384 0.0
C89 C 0.02663 0.48357 0.16237 0.0
C90 C 0.98926 0.58977 0.18246 0.0
C91 C 0.93903 0.59319 0.18246 0.0
C92 C 0.93174 0.62683 0.16998 0.0
C93 C 0.97483 0.65805 0.15746 0.0
C94 C 0.02409 0.65267 0.15702 0.0
C95 C 0.03127 0.61891 0.16948 0.0
C96 C 0.02426 0.63939 0.21994 0.0
C97 C 0.98251 0.64519 0.22923 0.0
C98 C 0.99127 0.69948 0.23292 0.0
C99 C 0.04201 0.74885 0.22738 0.0
C100 C 0.08384 0.74268 0.21817 0.0
C101 C 0.07498 0.68843 0.21448 0.0
C102 C 0.036 0.57644 0.249 0.0
C103 C 0.99052 0.55691 0.26117 0.0
C104 C 0.99682 0.59077 0.27714 0.0
C105 C 0.04859 0.64514 0.281 0.0
C106 C 0.0962 0.66133 0.26985 0.0
C107 C 0.09 0.62726 0.25398 0.0
C108 C 0.02281 0.46501 0.23939 0.0
C109 C 0.97398 0.41246 0.24371 0.0
C110 C 0.98085 0.37735 0.25562 0.0
C111 C 0.03691 0.39429 0.26347 0.0
C112 C 0.08559 0.44739 0.25931 0.0
C113 C 0.07856 0.48272 0.24748 0.0
C114 C 0.94649 0.4162 0.11518 0.0
C115 C 0.05131 0.80659 0.23099 0.0
H116 H 0.54931 0.99205 0.42578 0.0
H117 H 0.29873 0.21668 0.56411 0.0
H118 H 0.56402 0.99315 0.52775 0.0
H119 H 0.62092 0.95835 0.51296 0.0
H120 H 0.77879 0.12583 0.52374 0.0
H121 H 0.72108 0.16099 0.53803 0.0
H122 H 0.48613 0.0115 0.50143 0.0
H123 H 0.49634 0.98864 0.46916 0.0
H124 H 0.66835 0.14439 0.47078 0.0
H125 H 0.65721 0.1671 0.50298 0.0
H126 H 0.40586 0.04194 0.52143 0.0
H127 H 0.34218 0.04038 0.49616 0.0
H128 H 0.49004 0.19261 0.47607 0.0
H129 H 0.55367 0.19408 0.50167 0.0
H130 H 0.41473 0.05439 0.56314 0.0
H131 H 0.33377 0.06716 0.57014 0.0
H132 H 0.42869 0.23584 0.54889 0.0
H133 H 0.50953 0.22254 0.54202 0.0
H134 H 0.51185 0.04708 0.58653 0.0
H135 H 0.46935 0.04829 0.61585 0.0
H136 H 0.52679 0.22611 0.61018 0.0
H137 H 0.56829 0.22387 0.58087 0.0
H138 H 0.6071 0.03414 0.57314 0.0
H139 H 0.68648 0.04783 0.59475 0.0
H140 H 0.76757 0.23156 0.5948 0.0
H141 H 0.68793 0.2173 0.57312 0.0
O142 O 0.54602 0.00212 0.43851 0.0
O143 O 0.63436 0.08252 0.44011 0.0
O144 O 0.2788 0.1196 0.56857 0.0
O145 O 0.33056 0.21097 0.56173 0.0
C146 C 0.60095 0.10243 0.53856 0.0
C147 C 0.56495 0.10446 0.52422 0.0
C148 C 0.52293 0.1182 0.52864 0.0
C149 C 0.5161 0.12879 0.54743 0.0
C150 C 0.55375 0.12904 0.56174 0.0
C151 C 0.59737 0.11749 0.55721 0.0
C152 C 0.63841 0.07963 0.53384 0.0
C153 C 0.61117 0.02192 0.52738 0.0
C154 C 0.6436 0.0021 0.51897 0.0
C155 C 0.70408 0.03919 0.51735 0.0
C156 C 0.73234 0.09597 0.52514 0.0
C157 C 0.6995 0.11618 0.53326 0.0
C158 C 0.57079 0.09109 0.50449 0.0
C159 C 0.52575 0.04084 0.49473 0.0
C160 C 0.53182 0.02779 0.47633 0.0
C161 C 0.58317 0.0647 0.46738 0.0
C162 C 0.62823 0.11506 0.47725 0.0
C163 C 0.62201 0.12812 0.49563 0.0
C164 C 0.48412 0.11865 0.51356 0.0
C165 C 0.42425 0.07557 0.51179 0.0
C166 C 0.38791 0.07494 0.49736 0.0
C167 C 0.41098 0.11739 0.48438 0.0
C168 C 0.47116 0.15984 0.486 0.0
C169 C 0.5074 0.16077 0.50057 0.0
C170 C 0.46795 0.13761 0.55213 0.0
C171 C 0.41809 0.0942 0.56013 0.0
C172 C 0.37184 0.10152 0.56404 0.0
C173 C 0.37471 0.15247 0.56001 0.0
C174 C 0.42512 0.19612 0.55217 0.0
C175 C 0.47129 0.18866 0.54821 0.0
C176 C 0.54258 0.13519 0.58148 0.0
C177 C 0.5167 0.08673 0.59193 0.0
C178 C 0.49204 0.08742 0.60861 0.0
C179 C 0.49255 0.13645 0.61514 0.0
C180 C 0.52336 0.18671 0.60544 0.0
C181 C 0.54803 0.18592 0.58872 0.0
C182 C 0.64165 0.12472 0.5717 0.0
C183 C 0.64152 0.07724 0.57809 0.0
C184 C 0.6868 0.08524 0.59052 0.0
C185 C 0.73293 0.141 0.5967 0.0
C186 C 0.73246 0.18825 0.59033 0.0
C187 C 0.68696 0.18019 0.57806 0.0
C188 C 0.58961 0.05053 0.44786 0.0
C189 C 0.32508 0.15983 0.56374 0.0
H190 H 0.65601 0.6506 0.01572 0.0
H191 H 0.34286 0.21179 0.85298 0.0
H192 H 0.6433 0.71029 0.92077 0.0
H193 H 0.72506 0.79325 0.93877 0.0
H194 H 0.84736 0.75956 0.91292 0.0
H195 H 0.76497 0.67534 0.89528 0.0
H196 H 0.555 0.60056 0.93901 0.0
H197 H 0.58254 0.62135 0.97242 0.0
H198 H 0.74092 0.62162 0.96332 0.0
H199 H 0.71238 0.59998 0.92997 0.0
H200 H 0.45731 0.49781 0.91466 0.0
H201 H 0.39914 0.42605 0.93662 0.0
H202 H 0.54102 0.3968 0.94575 0.0
H203 H 0.59857 0.46908 0.92412 0.0
H204 H 0.44122 0.48831 0.87279 0.0
H205 H 0.36135 0.39203 0.86131 0.0
H206 H 0.47519 0.32784 0.87141 0.0
H207 H 0.55446 0.42414 0.88287 0.0
H208 H 0.52695 0.60537 0.85438 0.0
H209 H 0.4673 0.56435 0.82514 0.0
H210 H 0.5318 0.45084 0.81844 0.0
H211 H 0.59288 0.49376 0.84748 0.0
H212 H 0.64061 0.71919 0.87458 0.0
H213 H 0.70309 0.7921 0.85332 0.0
H214 H 0.76767 0.68567 0.83453 0.0
H215 H 0.70553 0.6136 0.85576 0.0
O216 O 0.64577 0.64198 0.00248 0.0
O217 O 0.72699 0.64249 0.99702 0.0
O218 O 0.31507 0.28407 0.85402 0.0
O219 O 0.3736 0.25032 0.85739 0.0
C220 C 0.64798 0.62975 0.89928 0.0
C221 C 0.61528 0.58706 0.91177 0.0
C222 C 0.56742 0.53301 0.90492 0.0
C223 C 0.55218 0.52123 0.88565 0.0
C224 C 0.58428 0.56391 0.87313 0.0
C225 C 0.63274 0.61799 0.87991 0.0
C226 C 0.69814 0.68644 0.90687 0.0
C227 C 0.68781 0.7213 0.91879 0.0
C228 C 0.73443 0.76825 0.92918 0.0
C229 C 0.79228 0.78161 0.92758 0.0
C230 C 0.80302 0.74961 0.9145 0.0
C231 C 0.75617 0.70189 0.90434 0.0
C232 C 0.63165 0.59868 0.9321 0.0
C233 C 0.59539 0.60471 0.94429 0.0
C234 C 0.61135 0.61679 0.96336 0.0
C235 C 0.66398 0.62321 0.97055 0.0
C236 C 0.70012 0.61696 0.95825 0.0
C237 C 0.68397 0.60466 0.9392 0.0
C238 C 0.53219 0.4888 0.91799 0.0
C239 C 0.47561 0.47582 0.92149 0.0
C240 C 0.44257 0.43489 0.93401 0.0
C241 C 0.46552 0.40633 0.94329 0.0
C242 C 0.52204 0.41872 0.93939 0.0
C243 C 0.55512 0.45986 0.9269 0.0
C244 C 0.50354 0.46307 0.8786 0.0
C245 C 0.44876 0.45338 0.87244 0.0
C246 C 0.40327 0.39838 0.86591 0.0
C247 C 0.41193 0.35223 0.8654 0.0
C248 C 0.46703 0.36235 0.87158 0.0
C249 C 0.51235 0.41726 0.87816 0.0
C250 C 0.56358 0.55199 0.85316 0.0
C251 C 0.52975 0.57308 0.84624 0.0
C252 C 0.49471 0.54863 0.82965 0.0
C253 C 0.4927 0.50226 0.81986 0.0
C254 C 0.53169 0.4858 0.82582 0.0
C255 C 0.56685 0.51044 0.84235 0.0
C256 C 0.66882 0.66135 0.86672 0.0
C257 C 0.66845 0.7119 0.86588 0.0
C258 C 0.70413 0.75339 0.8538 0.0
C259 C 0.74138 0.74537 0.84263 0.0
C260 C 0.74099 0.69419 0.84336 0.0
C261 C 0.70493 0.65255 0.8553 0.0
C262 C 0.68101 0.63646 0.99079 0.0
C263 C 0.36384 0.29363 0.85857 0.0
H264 H 0.09933 0.11124 0.11971 0.0
C265 C 0.10009 0.13232 0.10717 0.0
H266 H 0.08659 0.19353 0.09532 0.0
H267 H 0.95902 0.1676 0.17482 0.0
H268 H 0.88759 0.0689 0.1638 0.0
H269 H 0.90097 0.0269 0.13494 0.0
H270 H 0.98606 0.08303 0.11702 0.0
C271 C 0.08414 0.17105 0.10766 0.0
C272 C 0.07587 0.19415 0.12551 0.0
C273 C 0.02539 0.16092 0.13561 0.0
C274 C 0.01678 0.18565 0.15197 0.0
C275 C 0.96678 0.15129 0.16206 0.0
C276 C 0.92566 0.09457 0.15593 0.0
C277 C 0.93326 0.07088 0.1397 0.0
C278 C 0.9824 0.1035 0.12957 0.0
H279 H 0.97323 0.26565 0.15975 0.0
C280 C 0.00484 0.28504 0.17172 0.0
H281 H 0.07855 0.29069 0.18556 0.0
H282 H 0.18017 0.26801 0.11037 0.0
H283 H 0.25101 0.36648 0.12131 0.0
H284 H 0.2344 0.41034 0.14901 0.0
H285 H 0.14718 0.3559 0.166 0.0
C286 C 0.04673 0.2726 0.17368 0.0
C287 C 0.05799 0.24382 0.15792 0.0
C288 C 0.10941 0.2764 0.14815 0.0
C289 C 0.11843 0.25148 0.13198 0.0
C290 C 0.17041 0.28498 0.12255 0.0
C291 C 0.21164 0.34158 0.12871 0.0
C292 C 0.20234 0.36624 0.14432 0.0
C293 C 0.15197 0.33433 0.15396 0.0
H294 H 0.89173 0.94556 0.43893 0.0
C295 C 0.88548 0.97302 0.42999 0.0
H296 H 0.8597 0.03269 0.42779 0.0
H297 H 0.74135 0.92453 0.50667 0.0
H298 H 0.69082 0.82952 0.49059 0.0
H299 H 0.71207 0.81625 0.45836 0.0
H300 H 0.78504 0.89692 0.44232 0.0
C301 C 0.86485 0.00464 0.43678 0.0
C302 C 0.85458 0.00885 0.4568 0.0
C303 C 0.80964 0.96109 0.46549 0.0
C304 C 0.79433 0.96918 0.48356 0.0
C305 C 0.75217 0.92071 0.49256 0.0
C306 C 0.72326 0.8661 0.48355 0.0
C307 C 0.73542 0.85862 0.46544 0.0
C308 C 0.77787 0.90541 0.45642 0.0
H309 H 0.70836 0.99338 0.49251 0.0
C310 C 0.73399 0.02031 0.50488 0.0
H311 H 0.81649 0.06318 0.51981 0.0
H312 H 0.95198 0.10593 0.44612 0.0
H313 H 0.00264 0.20018 0.46246 0.0
H314 H 0.9699 0.21575 0.49248 0.0
H315 H 0.88725 0.13727 0.50645 0.0
C316 C 0.79073 0.03683 0.50742 0.0
C317 C 0.82004 0.02534 0.49211 0.0
C318 C 0.86866 0.072 0.48425 0.0
C319 C 0.88644 0.06344 0.46668 0.0
C320 C 0.93552 0.11051 0.45915 0.0
C321 C 0.96522 0.16473 0.46844 0.0
C322 C 0.94685 0.17346 0.48535 0.0
C323 C 0.89913 0.12787 0.49321 0.0
H324 H 0.03069 0.96832 0.77099 0.0
C325 C 0.00601 0.98517 0.76474 0.0
H326 H 0.92725 0.98474 0.76399 0.0
H327 H 0.76749 0.74246 0.79398 0.0
H328 H 0.73346 0.72412 0.76138 0.0
H329 H 0.7861 0.79742 0.7389 0.0
H330 H 0.87311 0.88939 0.74887 0.0
C331 C 0.95317 0.97002 0.77077 0.0
C332 C 0.92368 0.92559 0.78442 0.0
C333 C 0.87255 0.8721 0.77836 0.0
C334 C 0.842 0.82995 0.79131 0.0
C335 C 0.7918 0.77646 0.7848 0.0
C336 C 0.77193 0.76521 0.76609 0.0
C337 C 0.80157 0.80647 0.75344 0.0
C338 C 0.85138 0.85924 0.75939 0.0
H339 H 0.763 0.81716 0.82494 0.0
C340 C 0.77803 0.78983 0.82975 0.0
H341 H 0.84762 0.77475 0.82948 0.0
H342 H 0.01866 0.02445 0.80087 0.0
H343 H 0.05346 0.04188 0.83341 0.0
H344 H 0.00163 0.96771 0.85572 0.0
H345 H 0.9143 0.87571 0.84562 0.0
C346 C 0.82899 0.7983 0.82401 0.0
C347 C 0.86232 0.84152 0.81034 0.0
C348 C 0.91411 0.89438 0.81635 0.0
C349 C 0.94457 0.93678 0.80341 0.0
C350 C 0.99468 0.99017 0.80998 0.0
C351 C 0.01495 0.00087 0.82865 0.0
C352 C 0.98572 0.95913 0.84122 0.0
C353 C 0.93573 0.90651 0.83524 0.0
H354 H 0.06835 0.98223 0.07888 0.0
C355 C 0.06514 0.94831 0.08685 0.0
H356 H 0.97796 0.92078 0.09214 0.0
H357 H 0.9645 0.68188 0.10783 0.0
H358 H 0.92699 0.65918 0.07552 0.0
H359 H 0.92316 0.731 0.05713 0.0
H360 H 0.95731 0.82631 0.071 0.0
C361 C 0.0137 0.9137 0.09447 0.0
C362 C 0.00401 0.86723 0.10652 0.0
C363 C 0.98154 0.81114 0.0985 0.0
C364 C 0.98279 0.76949 0.10922 0.0
C365 C 0.96332 0.71481 0.10051 0.0
C366 C 0.94192 0.70128 0.08192 0.0
C367 C 0.93984 0.74175 0.07156 0.0
C368 C 0.95959 0.79621 0.07966 0.0
H369 H 0.92332 0.68745 0.1423 0.0
C370 C 0.96742 0.69625 0.14525 0.0
H371 H 0.05799 0.75617 0.14293 0.0
H372 H 0.04231 0.96843 0.12659 0.0
H373 H 0.07626 0.99058 0.15931 0.0
H374 H 0.07733 0.91812 0.17814 0.0
H375 H 0.04464 0.8232 0.16438 0.0
C376 C 0.0132 0.7434 0.13886 0.0
C377 C 0.00517 0.7839 0.12808 0.0
C378 C 0.02381 0.83886 0.13642 0.0
C379 C 0.02304 0.88055 0.12563 0.0
C380 C 0.04239 0.93535 0.1342 0.0
C381 C 0.06178 0.94852 0.15295 0.0
C382 C 0.06239 0.90773 0.16355 0.0
C383 C 0.04368 0.85347 0.15547 0.0
H384 H 0.13176 0.12912 0.4319 0.0
C385 C 0.11786 0.10245 0.41893 0.0
H386 H 0.13506 0.05262 0.4004 0.0
H387 H 0.36137 0.20621 0.46523 0.0
H388 H 0.37514 0.29084 0.45133 0.0
H389 H 0.30984 0.28233 0.4248 0.0
H390 H 0.22937 0.18888 0.41232 0.0
C391 C 0.14914 0.0802 0.41315 0.0
C392 C 0.19732 0.08514 0.42557 0.0
C393 C 0.24633 0.13976 0.43191 0.0
C394 C 0.2859 0.14445 0.44652 0.0
C395 C 0.33153 0.19983 0.45361 0.0
C396 C 0.33974 0.24889 0.44583 0.0
C397 C 0.30284 0.24411 0.43094 0.0
C398 C 0.25659 0.1903 0.42401 0.0
H399 H 0.39398 0.13492 0.45584 0.0
C400 C 0.37363 0.1172 0.46871 0.0
H401 H 0.29538 0.08095 0.48292 0.0
H402 H 0.11127 0.97315 0.41532 0.0
H403 H 0.10239 0.88835 0.42738 0.0
H404 H 0.17436 0.89635 0.45144 0.0
H405 H 0.25542 0.98946 0.4637 0.0
C406 C 0.31642 0.09786 0.4701 0.0
C407 C 0.27831 0.09416 0.45396 0.0
C408 C 0.23202 0.03941 0.44658 0.0
C409 C 0.19125 0.03483 0.43244 0.0
C410 C 0.14418 0.97947 0.42585 0.0
C411 C 0.13844 0.93025 0.43267 0.0
C412 C 0.1789 0.93475 0.44623 0.0
C413 C 0.22515 0.98852 0.45318 0.0
H414 H 0.13289 0.26624 0.77045 0.0
C415 C 0.14538 0.24126 0.762 0.0
H416 H 0.21528 0.23385 0.75316 0.0
H417 H 0.42347 0.4886 0.76928 0.0
H418 H 0.42103 0.47679 0.73561 0.0
H419 H 0.34009 0.38985 0.7183 0.0
H420 H 0.26121 0.3142 0.7345 0.0
C421 C 0.20246 0.25851 0.76162 0.0
C422 C 0.25012 0.31172 0.77221 0.0
C423 C 0.29599 0.35563 0.76251 0.0
C424 C 0.34286 0.40576 0.77247 0.0
C425 C 0.38754 0.4492 0.76241 0.0
C426 C 0.38646 0.44314 0.74308 0.0
C427 C 0.34087 0.39421 0.73333 0.0
C428 C 0.29595 0.35096 0.74284 0.0
H429 H 0.45242 0.43533 0.79661 0.0
C430 C 0.44681 0.46596 0.8048 0.0
H431 H 0.38559 0.48884 0.81173 0.0
H432 H 0.17461 0.23254 0.7958 0.0
H433 H 0.17473 0.2469 0.82911 0.0
H434 H 0.2511 0.33743 0.84596 0.0
H435 H 0.32921 0.41299 0.82964 0.0
C436 C 0.39466 0.46189 0.80296 0.0
C437 C 0.34374 0.41204 0.79212 0.0
C438 C 0.29701 0.36906 0.8018 0.0
C439 C 0.25116 0.31806 0.79194 0.0
C440 C 0.20831 0.27371 0.80227 0.0
C441 C 0.20828 0.28103 0.82151 0.0
C442 C 0.25141 0.33187 0.831 0.0
C443 C 0.2959 0.37508 0.82141 0.0
H444 H 0.90726 0.13432 0.69444 0.0
C445 C 0.94683 0.13492 0.69121 0.0
H446 H 0.00117 0.14004 0.66993 0.0
H447 H 0.79039 0.03542 0.60825 0.0
H448 H 0.82308 0.96866 0.60613 0.0
H449 H 0.90136 0.97933 0.62802 0.0
H450 H 0.94789 0.05707 0.652 0.0
C451 C 0.96305 0.14144 0.67358 0.0
C452 C 0.92326 0.14085 0.65847 0.0
C453 C 0.89657 0.09501 0.6445 0.0
C454 C 0.85056 0.08813 0.63211 0.0
C455 C 0.82484 0.04214 0.61823 0.0
C456 C 0.84327 0.00355 0.61682 0.0
C457 C 0.88739 0.00961 0.62913 0.0
C458 C 0.91378 0.05457 0.64285 0.0
H459 H 0.82529 0.19162 0.60824 0.0
C460 C 0.7834 0.15156 0.60911 0.0
H461 H 0.73753 0.07546 0.62325 0.0
H462 H 0.97476 0.24073 0.68043 0.0
H463 H 0.94121 0.30693 0.68305 0.0
H464 H 0.85467 0.28957 0.66393 0.0
H465 H 0.80231 0.20714 0.64178 0.0
C466 C 0.77895 0.11542 0.62189 0.0
C467 C 0.83077 0.12657 0.63384 0.0
C468 C 0.85909 0.17379 0.64733 0.0
C469 C 0.90671 0.18195 0.65919 0.0
C470 C 0.93657 0.23119 0.67175 0.0
C471 C 0.91805 0.26968 0.67329 0.0
C472 C 0.86951 0.26004 0.66247 0.0
C473 C 0.8401 0.21268 0.64966 0.0
H474 H 0.02535 0.95021 0.02757 0.0
C475 C 0.04533 0.99482 0.02439 0.0
H476 H 0.04684 0.05218 0.00547 0.0
H477 H 0.9048 0.79453 0.95846 0.0
H478 H 0.99507 0.79564 0.96303 0.0
H479 H 0.08042 0.87513 0.98159 0.0
H480 H 0.07523 0.9529 0.99616 0.0
C481 C 0.0274 0.00769 0.0087 0.0
C482 C 0.97871 0.96277 0.99576 0.0
C483 C 0.98398 0.91959 0.98634 0.0
C484 C 0.93626 0.87593 0.97453 0.0
C485 C 0.9408 0.8306 0.96665 0.0
C486 C 0.99225 0.8304 0.9693 0.0
C487 C 0.04018 0.87497 0.97983 0.0
C488 C 0.03638 0.91916 0.98826 0.0
H489 H 0.8846 0.85218 0.93447 0.0
C490 C 0.84152 0.82698 0.94 0.0
H491 H 0.79299 0.80765 0.96401 0.0
H492 H 0.95379 0.03878 0.01177 0.0
H493 H 0.86557 0.04063 0.00579 0.0
H494 H 0.78577 0.96896 0.98362 0.0
H495 H 0.79346 0.89467 0.96742 0.0
C496 C 0.8355 0.83382 0.95823 0.0
C497 C 0.88512 0.878 0.97104 0.0
C498 C 0.88039 0.92183 0.98015 0.0
C499 C 0.92697 0.96392 0.99264 0.0
C500 C 0.92031 0.00632 0.00188 0.0
C501 C 0.86979 0.00783 0.99862 0.0
C502 C 0.82483 0.96743 0.98617 0.0
C503 C 0.8298 0.92489 0.977 0.0
H504 H 0.91285 0.82175 0.33928 0.0
C505 C 0.9509 0.86331 0.34414 0.0
H506 H 0.04367 0.91593 0.34549 0.0
H507 H 0.06036 0.69425 0.33284 0.0
H508 H 0.10533 0.72936 0.36413 0.0
H509 H 0.10838 0.81212 0.37989 0.0
H510 H 0.06628 0.86018 0.36445 0.0
C511 C 0.00474 0.87578 0.34012 0.0
C512 C 0.01168 0.83235 0.32949 0.0
C513 C 0.03814 0.80586 0.33848 0.0
C514 C 0.03709 0.75855 0.32928 0.0
C515 C 0.06125 0.73119 0.33895 0.0
C516 C 0.08688 0.75069 0.35698 0.0
C517 C 0.08853 0.79725 0.36586 0.0
C518 C 0.06425 0.82448 0.35683 0.0
H519 H 0.09598 0.72669 0.29864 0.0
C520 C 0.05284 0.68845 0.29511 0.0
H521 H 0.96151 0.65173 0.2971 0.0
H522 H 0.96683 0.88008 0.30711 0.0
H523 H 0.92232 0.84562 0.27574 0.0
H524 H 0.9174 0.76175 0.26014 0.0
H525 H 0.95853 0.71302 0.27556 0.0
C526 C 0.00553 0.68704 0.30143 0.0
C527 C 0.0104 0.73849 0.31099 0.0
C528 C 0.98621 0.76665 0.30173 0.0
C529 C 0.98761 0.81407 0.31088 0.0
C530 C 0.96495 0.84254 0.30106 0.0
C531 C 0.93976 0.82355 0.28298 0.0
C532 C 0.93717 0.77646 0.27418 0.0
C533 C 0.96063 0.7486 0.28327 0.0
H534 H 0.23623 0.15839 0.68387 0.0
C535 C 0.21852 0.11512 0.68819 0.0
H536 H 0.22653 0.04289 0.68731 0.0
H537 H 0.36998 0.17837 0.61398 0.0
H538 H 0.2782 0.16539 0.60202 0.0
H539 H 0.19163 0.1233 0.6208 0.0
H540 H 0.19691 0.09606 0.65196 0.0
C541 C 0.24294 0.08561 0.68269 0.0
C542 C 0.29481 0.11086 0.67109 0.0
C543 C 0.2903 0.12481 0.65257 0.0
C544 C 0.33972 0.14715 0.64147 0.0
C545 C 0.33408 0.16121 0.6231 0.0
C546 C 0.28143 0.15356 0.61595 0.0
C547 C 0.23277 0.13018 0.62657 0.0
C548 C 0.23669 0.11534 0.64458 0.0
H549 H 0.43512 0.09069 0.63771 0.0
C550 C 0.45603 0.13103 0.63098 0.0
H551 H 0.4586 0.20896 0.62919 0.0
H552 H 0.31922 0.09101 0.70621 0.0
H553 H 0.41222 0.10717 0.71859 0.0
H554 H 0.49785 0.14627 0.69934 0.0
H555 H 0.49087 0.16918 0.66754 0.0
C556 C 0.44132 0.16923 0.63599 0.0
C557 C 0.39284 0.15344 0.64862 0.0
C558 C 0.39789 0.14119 0.66729 0.0
C559 C 0.34872 0.11944 0.67847 0.0
C560 C 0.355 0.10733 0.69704 0.0
C561 C 0.40823 0.11662 0.70436 0.0
C562 C 0.45642 0.13856 0.69352 0.0
C563 C 0.45166 0.15105 0.67523 0.0
H564 H 0.31668 0.13935 0.0229 0.0
C565 C 0.29432 0.15579 0.0308 0.0
H566 H 0.27859 0.22276 0.03463 0.0
H567 H 0.50219 0.4122 0.99805 0.0
H568 H 0.52284 0.44823 0.03041 0.0
H569 H 0.4596 0.38897 0.05465 0.0
H570 H 0.37505 0.29357 0.04665 0.0
C571 C 0.29891 0.20485 0.02639 0.0
C572 C 0.33711 0.23956 0.01165 0.0
C573 C 0.38701 0.29491 0.01665 0.0
C574 C 0.42411 0.32862 0.00275 0.0
C575 C 0.47294 0.38431 0.00807 0.0
C576 C 0.48531 0.40563 0.02661 0.0
C577 C 0.44966 0.37231 0.04025 0.0
C578 C 0.40111 0.31759 0.03543 0.0
H579 H 0.38333 0.35215 0.95723 0.0
C580 C 0.429 0.36442 0.95689 0.0
H581 H 0.49548 0.35682 0.97058 0.0
H582 H 0.24082 0.13829 0.99692 0.0
H583 H 0.22214 0.10091 0.96473 0.0
H584 H 0.2912 0.15603 0.94105 0.0
H585 H 0.37869 0.24942 0.94939 0.0
C586 C 0.44953 0.34327 0.96943 0.0
C587 C 0.41156 0.30668 0.98391 0.0
C588 C 0.36216 0.25099 0.97893 0.0
C589 C 0.32399 0.21796 0.99274 0.0
C590 C 0.27281 0.16411 0.98718 0.0
C591 C 0.26128 0.14231 0.9687 0.0
C592 C 0.30003 0.17343 0.95536 0.0
C593 C 0.34993 0.22715 0.96032 0.0
H594 H 0.99431 0.19905 0.35385 0.0
C595 C 0.99691 0.16179 0.35019 0.0
H596 H 0.01197 0.11757 0.3287 0.0
H597 H 0.93153 0.22514 0.26679 0.0
H598 H 0.86468 0.12289 0.25982 0.0
H599 H 0.86645 0.05304 0.2798 0.0
H600 H 0.9355 0.08494 0.30673 0.0
C601 C 0.01051 0.15508 0.33289 0.0
C602 C 0.01727 0.19626 0.3188 0.0
C603 C 0.97677 0.17678 0.30305 0.0
C604 C 0.97499 0.21711 0.29174 0.0
C605 C 0.93412 0.19646 0.27606 0.0
C606 C 0.8956 0.13786 0.27186 0.0
C607 C 0.89664 0.09854 0.2831 0.0
C608 C 0.93654 0.11749 0.29854 0.0
H609 H 0.08878 0.36011 0.27518 0.0
C610 C 0.04628 0.3561 0.27511 0.0
H611 H 0.96258 0.31368 0.28613 0.0
H612 H 0.11055 0.24697 0.34461 0.0
H613 H 0.17734 0.3493 0.35192 0.0
H614 H 0.1676 0.41959 0.33454 0.0
H615 H 0.09249 0.38826 0.3095 0.0
C616 C 0.00505 0.31793 0.28577 0.0
C617 C 0.01316 0.27683 0.29631 0.0
C618 C 0.05596 0.29629 0.31145 0.0
C619 C 0.05929 0.25582 0.32225 0.0
C620 C 0.10446 0.27607 0.33659 0.0
C621 C 0.14327 0.33459 0.34083 0.0
C622 C 0.13795 0.37414 0.33099 0.0
C623 C 0.0948 0.3555 0.31651 0.0
loop_
_geom_bond_atom_site_label_1
_geom_bond_atom_site_label_2
_geom_bond_distance
_geom_bond_site_symmetry_2
_ccdc_geom_bond_type
Mg0 O1 2.028 . S
Mg0 O7 1.986 . S
Mg0 O9 2.114 . S
Mg0 O10 2.251 . S
Mg0 O13 2.010 . S
O1 Mg0 2.028 . S
O1 C4 1.250 . S
O2 Mg3 2.028 . S
O2 C4 1.248 . S
Mg3 O2 2.028 . S
Mg3 O8 2.032 . S
Mg3 O10 2.079 . S
C4 O1 1.250 . S
C4 O2 1.248 . S
C5 O6 1.264 . S
C5 O13 1.249 . S
O6 C5 1.264 . S
O7 Mg0 1.986 . S
O7 C11 1.246 . S
O8 Mg3 2.032 . S
O8 C11 1.259 . S
O9 Mg0 2.114 . S
O9 C12 1.252 . S
O10 Mg0 2.251 . S
O10 Mg3 2.079 . S
O10 C12 1.273 . S
C11 O7 1.246 . S
C11 O8 1.259 . S
C12 O9 1.252 . S
C12 O10 1.273 . S
O13 Mg0 2.010 . S
O13 C5 1.249 . S
Mg14 O15 2.028 1_665 S
Mg14 O21 1.986 1_665 S
Mg14 O23 2.114 . S
Mg14 O24 2.251 1_565 S
Mg14 O27 2.010 . S
O15 Mg14 2.028 1_445 S
O15 C18 1.250 . S
O16 Mg17 2.028 . S
O16 C18 1.248 . S
Mg17 O16 2.028 . S
Mg17 O22 2.032 . S
Mg17 O24 2.079 1_455 S
C18 O15 1.250 . S
C18 O16 1.248 . S
C19 O20 1.264 . S
C19 O27 1.249 . S
O20 C19 1.264 . S
O21 Mg14 1.986 1_445 S
O21 C25 1.246 . S
O22 Mg17 2.032 . S
O22 C25 1.259 . S
O23 Mg14 2.114 . S
O23 C26 1.252 . S
O24 Mg14 2.251 1_545 S
O24 Mg17 2.079 1_655 S
O24 C26 1.273 1_545 S
C25 O21 1.246 . S
C25 O22 1.259 . S
C26 O23 1.252 . S
C26 O24 1.273 1_565 S
O27 Mg14 2.010 . S
O27 C19 1.249 . S
Mg28 O29 2.028 . S
Mg28 O35 1.986 . S
Mg28 O37 2.114 . S
Mg28 O38 2.251 . S
Mg28 O41 2.010 . S
O29 Mg28 2.028 . S
O29 C32 1.250 . S
O30 Mg31 2.028 . S
O30 C32 1.248 . S
Mg31 O30 2.028 . S
Mg31 O36 2.032 . S
Mg31 O38 2.079 . S
C32 O29 1.250 . S
C32 O30 1.248 . S
C33 O34 1.264 1_545 S
C33 O41 1.249 . S
O34 C33 1.264 1_565 S
O35 Mg28 1.986 . S
O35 C39 1.246 . S
O36 Mg31 2.032 . S
O36 C39 1.259 . S
O37 Mg28 2.114 . S
O37 C40 1.252 . S
O38 Mg28 2.251 . S
O38 Mg31 2.079 . S
O38 C40 1.273 . S
C39 O35 1.246 . S
C39 O36 1.259 . S
C40 O37 1.252 . S
C40 O38 1.273 . S
O41 Mg28 2.010 . S
O41 C33 1.249 . S
H42 O68 0.856 . S
H43 O71 0.854 . S
H44 C79 0.930 1_655 S
H45 C80 0.930 . S
H46 C82 0.930 . S
H47 C83 0.930 . S
H48 C85 0.931 . S
H49 C86 0.930 . S
H50 C88 0.930 . S
H51 C89 0.929 . S
H52 C91 0.930 1_655 S
H53 C92 0.931 . S
H54 C94 0.930 . S
H55 C95 0.929 . S
H56 C97 0.931 1_655 S
H57 C98 0.930 1_655 S
H58 C100 0.930 . S
H59 C101 0.932 . S
H60 C103 0.930 . S
H61 C104 0.929 . S
H62 C106 0.931 . S
H63 C107 0.930 . S
H64 C109 0.925 1_655 S
H65 C110 0.931 1_655 S
H66 C112 0.930 . S
H67 C113 0.929 . S
O68 H42 0.856 . S
O68 C114 1.300 . S
O69 C114 1.209 . S
O70 C115 1.199 . S
O71 H43 0.854 . S
O71 C115 1.297 . S
C72 C73 1.404 . S
C72 C77 1.397 . S
C72 C78 1.492 . S
C73 C72 1.404 . S
C73 C74 1.396 . S
C73 C84 1.492 . S
C74 C73 1.396 . S
C74 C75 1.397 . S
C74 C90 1.509 . S
C75 C74 1.397 . S
C75 C76 1.412 . S
C75 C96 1.485 . S
C76 C75 1.412 . S
C76 C77 1.388 . S
C76 C102 1.490 . S
C77 C72 1.397 . S
C77 C76 1.388 . S
C77 C108 1.519 . S
C78 C72 1.492 . S
C78 C79 1.363 . S
C78 C83 1.390 . S
C79 H44 0.930 1_455 S
C79 C78 1.363 . S
C79 C80 1.372 1_455 S
C80 H45 0.930 . S
C80 C79 1.372 1_655 S
C80 C81 1.383 1_655 S
C81 C80 1.383 1_455 S
C81 C82 1.395 . S
C82 H46 0.930 . S
C82 C81 1.395 . S
C82 C83 1.362 . S
C83 H47 0.930 . S
C83 C78 1.390 . S
C83 C82 1.362 . S
C84 C73 1.492 . S
C84 C85 1.377 . S
C84 C89 1.397 . S
C85 H48 0.931 . S
C85 C84 1.377 . S
C85 C86 1.376 . S
C86 H49 0.930 . S
C86 C85 1.376 . S
C86 C87 1.376 . S
C87 C86 1.376 . S
C87 C88 1.378 . S
C87 C114 1.486 . S
C88 H50 0.930 . S
C88 C87 1.378 . S
C88 C89 1.376 . S
C89 H51 0.929 . S
C89 C84 1.397 . S
C89 C88 1.376 . S
C90 C74 1.509 . S
C90 C91 1.391 . S
C90 C95 1.386 . S
C91 H52 0.930 1_455 S
C91 C90 1.391 . S
C91 C92 1.375 . S
C92 H53 0.931 . S
C92 C91 1.375 . S
C92 C93 1.375 . S
C93 C92 1.375 . S
C93 C94 1.361 . S
C94 H54 0.930 . S
C94 C93 1.361 . S
C94 C95 1.399 . S
C95 H55 0.929 . S
C95 C90 1.386 . S
C95 C94 1.399 . S
C96 C75 1.485 . S
C96 C97 1.394 . S
C96 C101 1.360 . S
C97 H56 0.931 1_455 S
C97 C96 1.394 . S
C97 C98 1.372 . S
C98 H57 0.930 1_455 S
C98 C97 1.372 . S
C98 C99 1.397 . S
C99 C98 1.397 . S
C99 C100 1.390 . S
C99 C115 1.476 . S
C100 H58 0.930 . S
C100 C99 1.390 . S
C100 C101 1.366 . S
C101 H59 0.932 . S
C101 C96 1.360 . S
C101 C100 1.366 . S
C102 C76 1.490 . S
C102 C103 1.380 1_455 S
C102 C107 1.386 . S
C103 H60 0.930 . S
C103 C102 1.380 1_655 S
C103 C104 1.381 . S
C104 H61 0.929 . S
C104 C103 1.381 . S
C104 C105 1.371 1_655 S
C105 C104 1.371 1_455 S
C105 C106 1.380 . S
C106 H62 0.931 . S
C106 C105 1.380 . S
C106 C107 1.387 . S
C107 H63 0.930 . S
C107 C102 1.386 . S
C107 C106 1.387 . S
C108 C77 1.519 . S
C108 C109 1.379 . S
C108 C113 1.361 . S
C109 H64 0.925 1_455 S
C109 C108 1.379 . S
C109 C110 1.388 . S
C110 H65 0.931 1_455 S
C110 C109 1.388 . S
C110 C111 1.363 . S
C111 C110 1.363 . S
C111 C112 1.385 . S
C112 H66 0.930 . S
C112 C111 1.385 . S
C112 C113 1.396 . S
C113 H67 0.929 . S
C113 C108 1.361 . S
C113 C112 1.396 . S
C114 O68 1.300 . S
C114 O69 1.209 . S
C114 C87 1.486 . S
C115 O70 1.199 . S
C115 O71 1.297 . S
C115 C99 1.476 . S
H116 O142 0.856 . S
H117 O145 0.854 . S
H118 C153 0.930 . S
H119 C154 0.930 1_565 S
H120 C156 0.930 . S
H121 C157 0.930 . S
H122 C159 0.931 . S
H123 C160 0.930 . S
H124 C162 0.930 . S
H125 C163 0.929 . S
H126 C165 0.930 . S
H127 C166 0.931 . S
H128 C168 0.930 . S
H129 C169 0.929 . S
H130 C171 0.931 . S
H131 C172 0.930 . S
H132 C174 0.930 . S
H133 C175 0.932 . S
H134 C177 0.930 . S
H135 C178 0.929 . S
H136 C180 0.931 . S
H137 C181 0.930 . S
H138 C183 0.929 . S
H139 C184 0.931 . S
H140 C186 0.930 . S
H141 C187 0.929 . S
O142 H116 0.856 . S
O142 C188 1.300 . S
O143 C188 1.209 . S
O144 C189 1.199 . S
O145 H117 0.854 . S
O145 C189 1.297 . S
C146 C147 1.404 . S
C146 C151 1.397 . S
C146 C152 1.492 . S
C147 C146 1.404 . S
C147 C148 1.396 . S
C147 C158 1.492 . S
C148 C147 1.396 . S
C148 C149 1.397 . S
C148 C164 1.509 . S
C149 C148 1.397 . S
C149 C150 1.412 . S
C149 C170 1.485 . S
C150 C149 1.412 . S
C150 C151 1.388 . S
C150 C176 1.490 . S
C151 C146 1.397 . S
C151 C150 1.388 . S
C151 C182 1.519 . S
C152 C146 1.492 . S
C152 C153 1.363 . S
C152 C157 1.390 . S
C153 H118 0.930 . S
C153 C152 1.363 . S
C153 C154 1.372 . S
C154 H119 0.930 1_545 S
C154 C153 1.372 . S
C154 C155 1.383 . S
C155 C154 1.383 . S
C155 C156 1.395 . S
C156 H120 0.930 . S
C156 C155 1.395 . S
C156 C157 1.362 . S
C157 H121 0.930 . S
C157 C152 1.390 . S
C157 C156 1.362 . S
C158 C147 1.492 . S
C158 C159 1.377 . S
C158 C163 1.397 . S
C159 H122 0.931 . S
C159 C158 1.377 . S
C159 C160 1.376 . S
C160 H123 0.930 . S
C160 C159 1.376 . S
C160 C161 1.376 . S
C161 C160 1.376 . S
C161 C162 1.378 . S
C161 C188 1.486 . S
C162 H124 0.930 . S
C162 C161 1.378 . S
C162 C163 1.376 . S
C163 H125 0.929 . S
C163 C158 1.397 . S
C163 C162 1.376 . S
C164 C148 1.509 . S
C164 C165 1.391 . S
C164 C169 1.386 . S
C165 H126 0.930 . S
C165 C164 1.391 . S
C165 C166 1.375 . S
C166 H127 0.931 . S
C166 C165 1.375 . S
C166 C167 1.375 . S
C167 C166 1.375 . S
C167 C168 1.361 . S
C168 H128 0.930 . S
C168 C167 1.361 . S
C168 C169 1.399 . S
C169 H129 0.929 . S
C169 C164 1.386 . S
C169 C168 1.399 . S
C170 C149 1.485 . S
C170 C171 1.394 . S
C170 C175 1.360 . S
C171 H130 0.931 . S
C171 C170 1.394 . S
C171 C172 1.372 . S
C172 H131 0.930 . S
C172 C171 1.372 . S
C172 C173 1.397 . S
C173 C172 1.397 . S
C173 C174 1.390 . S
C173 C189 1.476 . S
C174 H132 0.930 . S
C174 C173 1.390 . S
C174 C175 1.366 . S
C175 H133 0.932 . S
C175 C170 1.360 . S
C175 C174 1.366 . S
C176 C150 1.490 . S
C176 C177 1.380 . S
C176 C181 1.386 . S
C177 H134 0.930 . S
C177 C176 1.380 . S
C177 C178 1.381 . S
C178 H135 0.929 . S
C178 C177 1.381 . S
C178 C179 1.371 . S
C179 C178 1.371 . S
C179 C180 1.380 . S
C180 H136 0.931 . S
C180 C179 1.380 . S
C180 C181 1.387 . S
C181 H137 0.930 . S
C181 C176 1.386 . S
C181 C180 1.387 . S
C182 C151 1.519 . S
C182 C183 1.377 . S
C182 C187 1.361 . S
C183 H138 0.929 . S
C183 C182 1.377 . S
C183 C184 1.386 . S
C184 H139 0.931 . S
C184 C183 1.386 . S
C184 C185 1.363 . S
C185 C184 1.363 . S
C185 C186 1.385 . S
C186 H140 0.930 . S
C186 C185 1.385 . S
C186 C187 1.396 . S
C187 H141 0.929 . S
C187 C182 1.361 . S
C187 C186 1.396 . S
C188 O142 1.300 . S
C188 O143 1.209 . S
C188 C161 1.486 . S
C189 O144 1.199 . S
C189 O145 1.297 . S
C189 C173 1.476 . S
H190 O216 0.856 . S
H191 O219 0.854 . S
H192 C227 0.930 . S
H193 C228 0.930 . S
H194 C230 0.930 . S
H195 C231 0.930 . S
H196 C233 0.931 . S
H197 C234 0.930 . S
H198 C236 0.930 . S
H199 C237 0.929 . S
H200 C239 0.930 . S
H201 C240 0.931 . S
H202 C242 0.930 . S
H203 C243 0.929 . S
H204 C245 0.931 . S
H205 C246 0.930 . S
H206 C248 0.930 . S
H207 C249 0.932 . S
H208 C251 0.930 . S
H209 C252 0.929 . S
H210 C254 0.931 . S
H211 C255 0.930 . S
H212 C257 0.929 . S
H213 C258 0.931 . S
H214 C260 0.930 . S
H215 C261 0.929 . S
O216 H190 0.856 . S
O216 C262 1.300 1_554 S
O217 C262 1.209 1_554 S
O218 C263 1.199 . S
O219 H191 0.854 . S
O219 C263 1.297 . S
C220 C221 1.404 . S
C220 C225 1.397 . S
C220 C226 1.492 . S
C221 C220 1.404 . S
C221 C222 1.396 . S
C221 C232 1.492 . S
C222 C221 1.396 . S
C222 C223 1.397 . S
C222 C238 1.509 . S
C223 C222 1.397 . S
C223 C224 1.412 . S
C223 C244 1.485 . S
C224 C223 1.412 . S
C224 C225 1.388 . S
C224 C250 1.490 . S
C225 C220 1.397 . S
C225 C224 1.388 . S
C225 C256 1.519 . S
C226 C220 1.492 . S
C226 C227 1.363 . S
C226 C231 1.390 . S
C227 H192 0.930 . S
C227 C226 1.363 . S
C227 C228 1.372 . S
C228 H193 0.930 . S
C228 C227 1.372 . S
C228 C229 1.383 . S
C229 C228 1.383 . S
C229 C230 1.395 . S
C230 H194 0.930 . S
C230 C229 1.395 . S
C230 C231 1.362 . S
C231 H195 0.930 . S
C231 C226 1.390 . S
C231 C230 1.362 . S
C232 C221 1.492 . S
C232 C233 1.377 . S
C232 C237 1.397 . S
C233 H196 0.931 . S
C233 C232 1.377 . S
C233 C234 1.376 . S
C234 H197 0.930 . S
C234 C233 1.376 . S
C234 C235 1.376 . S
C235 C234 1.376 . S
C235 C236 1.378 . S
C235 C262 1.486 . S
C236 H198 0.930 . S
C236 C235 1.378 . S
C236 C237 1.376 . S
C237 H199 0.929 . S
C237 C232 1.397 . S
C237 C236 1.376 . S
C238 C222 1.509 . S
C238 C239 1.391 . S
C238 C243 1.386 . S
C239 H200 0.930 . S
C239 C238 1.391 . S
C239 C240 1.375 . S
C240 H201 0.931 . S
C240 C239 1.375 . S
C240 C241 1.375 . S
C241 C240 1.375 . S
C241 C242 1.361 . S
C242 H202 0.930 . S
C242 C241 1.361 . S
C242 C243 1.399 . S
C243 H203 0.929 . S
C243 C238 1.386 . S
C243 C242 1.399 . S
C244 C223 1.485 . S
C244 C245 1.394 . S
C244 C249 1.360 . S
C245 H204 0.931 . S
C245 C244 1.394 . S
C245 C246 1.372 . S
C246 H205 0.930 . S
C246 C245 1.372 . S
C246 C247 1.397 . S
C247 C246 1.397 . S
C247 C248 1.390 . S
C247 C263 1.476 . S
C248 H206 0.930 . S
C248 C247 1.390 . S
C248 C249 1.366 . S
C249 H207 0.932 . S
C249 C244 1.360 . S
C249 C248 1.366 . S
C250 C224 1.490 . S
C250 C251 1.380 . S
C250 C255 1.386 . S
C251 H208 0.930 . S
C251 C250 1.380 . S
C251 C252 1.381 . S
C252 H209 0.929 . S
C252 C251 1.381 . S
C252 C253 1.371 . S
C253 C252 1.371 . S
C253 C254 1.380 . S
C254 H210 0.931 . S
C254 C253 1.380 . S
C254 C255 1.387 . S
C255 H211 0.930 . S
C255 C250 1.386 . S
C255 C254 1.387 . S
C256 C225 1.519 . S
C256 C257 1.377 . S
C256 C261 1.361 . S
C257 H212 0.929 . S
C257 C256 1.377 . S
C257 C258 1.386 . S
C258 H213 0.931 . S
C258 C257 1.386 . S
C258 C259 1.363 . S
C259 C258 1.363 . S
C259 C260 1.385 . S
C260 H214 0.930 . S
C260 C259 1.385 . S
C260 C261 1.396 . S
C261 H215 0.929 . S
C261 C256 1.361 . S
C261 C260 1.396 . S
C262 O216 1.300 1_556 S
C262 O217 1.209 1_556 S
C262 C235 1.486 . S
C263 O218 1.199 . S
C263 O219 1.297 . S
C263 C247 1.476 . S
H264 C265 0.951 . S
C265 H264 0.951 . S
C265 C271 1.265 . S
H266 C271 0.950 . S
H267 C275 0.949 . S
H268 C276 0.950 . S
H269 C277 0.951 . S
H270 C278 0.951 . S
C271 C265 1.265 . S
C271 H266 0.950 . S
C271 C272 1.478 . S
C272 C271 1.478 . S
C272 C273 1.397 1_455 S
C272 C289 1.394 . S
C273 C272 1.397 1_655 S
C273 C274 1.438 1_655 S
C273 C278 1.429 . S
C274 C273 1.438 1_455 S
C274 C275 1.428 1_455 S
C274 C287 1.394 . S
C275 H267 0.949 . S
C275 C274 1.428 1_655 S
C275 C276 1.345 . S
C276 H268 0.950 . S
C276 C275 1.345 . S
C276 C277 1.424 . S
C277 H269 0.951 . S
C277 C276 1.424 . S
C277 C278 1.347 . S
C278 H270 0.951 . S
C278 C273 1.429 . S
C278 C277 1.347 . S
H279 C280 0.951 1_655 S
C280 H279 0.951 1_455 S
C280 C286 1.265 . S
H281 C286 0.950 . S
H282 C290 0.949 . S
H283 C291 0.950 . S
H284 C292 0.951 . S
H285 C293 0.951 . S
C286 C280 1.265 . S
C286 H281 0.950 . S
C286 C287 1.478 . S
C287 C274 1.394 . S
C287 C286 1.478 . S
C287 C288 1.397 . S
C288 C287 1.397 . S
C288 C289 1.438 . S
C288 C293 1.429 . S
C289 C272 1.394 . S
C289 C288 1.438 . S
C289 C290 1.428 . S
C290 H282 0.949 . S
C290 C289 1.428 . S
C290 C291 1.345 . S
C291 H283 0.950 . S
C291 C290 1.345 . S
C291 C292 1.424 . S
C292 H284 0.951 . S
C292 C291 1.424 . S
C292 C293 1.347 . S
C293 H285 0.951 . S
C293 C288 1.429 . S
C293 C292 1.347 . S
H294 C295 0.951 1_545 S
C295 H294 0.951 1_565 S
C295 C301 1.265 . S
H296 C301 0.950 . S
H297 C305 0.949 . S
H298 C306 0.950 . S
H299 C307 0.951 . S
H300 C308 0.951 . S
C301 C295 1.265 . S
C301 H296 0.950 . S
C301 C302 1.478 1_565 S
C302 C301 1.478 1_545 S
C302 C303 1.397 1_545 S
C302 C319 1.394 . S
C303 C302 1.397 1_565 S
C303 C304 1.438 . S
C303 C308 1.429 . S
C304 C303 1.438 . S
C304 C305 1.428 . S
C304 C317 1.394 1_565 S
C305 H297 0.949 . S
C305 C304 1.428 . S
C305 C306 1.345 . S
C306 H298 0.950 . S
C306 C305 1.345 . S
C306 C307 1.424 . S
C307 H299 0.951 . S
C307 C306 1.424 . S
C307 C308 1.347 . S
C308 H300 0.951 . S
C308 C303 1.429 . S
C308 C307 1.347 . S
H309 C310 0.951 . S
C310 H309 0.951 . S
C310 C316 1.265 . S
H311 C316 0.950 . S
H312 C320 0.949 . S
H313 C321 0.950 . S
H314 C322 0.951 . S
H315 C323 0.951 . S
C316 C310 1.265 . S
C316 H311 0.950 . S
C316 C317 1.478 . S
C317 C304 1.394 1_545 S
C317 C316 1.478 . S
C317 C318 1.397 . S
C318 C317 1.397 . S
C318 C319 1.438 . S
C318 C323 1.429 . S
C319 C302 1.394 . S
C319 C318 1.438 . S
C319 C320 1.428 . S
C320 H312 0.949 . S
C320 C319 1.428 . S
C320 C321 1.345 . S
C321 H313 0.950 . S
C321 C320 1.345 . S
C321 C322 1.424 . S
C322 H314 0.951 . S
C322 C321 1.424 . S
C322 C323 1.347 . S
C323 H315 0.951 . S
C323 C318 1.429 . S
C323 C322 1.347 . S
H324 C325 0.951 1_455 S
C325 H324 0.951 1_655 S
C325 C331 1.265 . S
H326 C331 0.950 . S
H327 C335 0.949 . S
H328 C336 0.950 . S
H329 C337 0.951 . S
H330 C338 0.951 . S
C331 C325 1.265 . S
C331 H326 0.950 . S
C331 C332 1.478 . S
C332 C331 1.478 . S
C332 C333 1.397 . S
C332 C349 1.394 . S
C333 C332 1.397 . S
C333 C334 1.438 . S
C333 C338 1.429 . S
C334 C333 1.438 . S
C334 C335 1.428 . S
C334 C347 1.394 . S
C335 H327 0.949 . S
C335 C334 1.428 . S
C335 C336 1.345 . S
C336 H328 0.950 . S
C336 C335 1.345 . S
C336 C337 1.424 . S
C337 H329 0.951 . S
C337 C336 1.424 . S
C337 C338 1.347 . S
C338 H330 0.951 . S
C338 C333 1.429 . S
C338 C337 1.347 . S
H339 C340 0.951 . S
C340 H339 0.951 . S
C340 C346 1.265 . S
H341 C346 0.950 . S
H342 C350 0.949 1_455 S
H343 C351 0.950 . S
H344 C352 0.951 1_455 S
H345 C353 0.951 . S
C346 C340 1.265 . S
C346 H341 0.950 . S
C346 C347 1.478 . S
C347 C334 1.394 . S
C347 C346 1.478 . S
C347 C348 1.397 . S
C348 C347 1.397 . S
C348 C349 1.438 . S
C348 C353 1.429 . S
C349 C332 1.394 . S
C349 C348 1.438 . S
C349 C350 1.428 . S
C350 H342 0.949 1_655 S
C350 C349 1.428 . S
C350 C351 1.345 1_655 S
C351 H343 0.950 . S
C351 C350 1.345 1_455 S
C351 C352 1.424 1_455 S
C352 H344 0.951 1_655 S
C352 C351 1.424 1_655 S
C352 C353 1.347 . S
C353 H345 0.951 . S
C353 C348 1.429 . S
C353 C352 1.347 . S
H354 C355 0.951 1_545 S
C355 H354 0.951 1_565 S
C355 C361 1.265 . S
H356 C361 0.950 . S
H357 C365 0.949 . S
H358 C366 0.950 . S
H359 C367 0.951 . S
H360 C368 0.951 . S
C361 C355 1.265 . S
C361 H356 0.950 . S
C361 C362 1.478 . S
C362 C361 1.478 . S
C362 C363 1.397 . S
C362 C379 1.394 . S
C363 C362 1.397 . S
C363 C364 1.438 . S
C363 C368 1.429 . S
C364 C363 1.438 . S
C364 C365 1.428 . S
C364 C377 1.394 . S
C365 H357 0.949 . S
C365 C364 1.428 . S
C365 C366 1.345 . S
C366 H358 0.950 . S
C366 C365 1.345 . S
C366 C367 1.424 . S
C367 H359 0.951 . S
C367 C366 1.424 . S
C367 C368 1.347 . S
C368 H360 0.951 . S
C368 C363 1.429 . S
C368 C367 1.347 . S
H369 C370 0.951 . S
C370 H369 0.951 . S
C370 C376 1.265 . S
H371 C376 0.950 . S
H372 C380 0.949 . S
H373 C381 0.950 1_545 S
H374 C382 0.951 . S
H375 C383 0.951 . S
C376 C370 1.265 . S
C376 H371 0.950 . S
C376 C377 1.478 . S
C377 C364 1.394 . S
C377 C376 1.478 . S
C377 C378 1.397 . S
C378 C377 1.397 . S
C378 C379 1.438 . S
C378 C383 1.429 . S
C379 C362 1.394 . S
C379 C378 1.438 . S
C379 C380 1.428 . S
C380 H372 0.949 . S
C380 C379 1.428 . S
C380 C381 1.345 . S
C381 H373 0.950 1_565 S
C381 C380 1.345 . S
C381 C382 1.424 . S
C382 H374 0.951 . S
C382 C381 1.424 . S
C382 C383 1.347 . S
C383 H375 0.951 . S
C383 C378 1.429 . S
C383 C382 1.347 . S
H384 C385 0.951 . S
C385 H384 0.951 . S
C385 C391 1.265 . S
H386 C391 0.950 . S
H387 C395 0.949 . S
H388 C396 0.950 . S
H389 C397 0.951 . S
H390 C398 0.951 . S
C391 C385 1.265 . S
C391 H386 0.950 . S
C391 C392 1.478 . S
C392 C391 1.478 . S
C392 C393 1.397 . S
C392 C409 1.394 . S
C393 C392 1.397 . S
C393 C394 1.438 . S
C393 C398 1.429 . S
C394 C393 1.438 . S
C394 C395 1.428 . S
C394 C407 1.394 . S
C395 H387 0.949 . S
C395 C394 1.428 . S
C395 C396 1.345 . S
C396 H388 0.950 . S
C396 C395 1.345 . S
C396 C397 1.424 . S
C397 H389 0.951 . S
C397 C396 1.424 . S
C397 C398 1.347 . S
C398 H390 0.951 . S
C398 C393 1.429 . S
C398 C397 1.347 . S
H399 C400 0.951 . S
C400 H399 0.951 . S
C400 C406 1.265 . S
H401 C406 0.950 . S
H402 C410 0.949 . S
H403 C411 0.950 . S
H404 C412 0.951 . S
H405 C413 0.951 . S
C406 C400 1.265 . S
C406 H401 0.950 . S
C406 C407 1.478 . S
C407 C394 1.394 . S
C407 C406 1.478 . S
C407 C408 1.397 . S
C408 C407 1.397 . S
C408 C409 1.438 . S
C408 C413 1.429 1_545 S
C409 C392 1.394 . S
C409 C408 1.438 . S
C409 C410 1.428 1_545 S
C410 H402 0.949 . S
C410 C409 1.428 1_565 S
C410 C411 1.345 . S
C411 H403 0.950 . S
C411 C410 1.345 . S
C411 C412 1.424 . S
C412 H404 0.951 . S
C412 C411 1.424 . S
C412 C413 1.347 . S
C413 H405 0.951 . S
C413 C408 1.429 1_565 S
C413 C412 1.347 . S
H414 C415 0.951 . S
C415 H414 0.951 . S
C415 C421 1.265 . S
H416 C421 0.950 . S
H417 C425 0.949 . S
H418 C426 0.950 . S
H419 C427 0.951 . S
H420 C428 0.951 . S
C421 C415 1.265 . S
C421 H416 0.950 . S
C421 C422 1.478 . S
C422 C421 1.478 . S
C422 C423 1.397 . S
C422 C439 1.394 . S
C423 C422 1.397 . S
C423 C424 1.438 . S
C423 C428 1.429 . S
C424 C423 1.438 . S
C424 C425 1.428 . S
C424 C437 1.394 . S
C425 H417 0.949 . S
C425 C424 1.428 . S
C425 C426 1.345 . S
C426 H418 0.950 . S
C426 C425 1.345 . S
C426 C427 1.424 . S
C427 H419 0.951 . S
C427 C426 1.424 . S
C427 C428 1.347 . S
C428 H420 0.951 . S
C428 C423 1.429 . S
C428 C427 1.347 . S
H429 C430 0.951 . S
C430 H429 0.951 . S
C430 C436 1.265 . S
H431 C436 0.950 . S
H432 C440 0.949 . S
H433 C441 0.950 . S
H434 C442 0.951 . S
H435 C443 0.951 . S
C436 C430 1.265 . S
C436 H431 0.950 . S
C436 C437 1.478 . S
C437 C424 1.394 . S
C437 C436 1.478 . S
C437 C438 1.397 . S
C438 C437 1.397 . S
C438 C439 1.438 . S
C438 C443 1.429 . S
C439 C422 1.394 . S
C439 C438 1.438 . S
C439 C440 1.428 . S
C440 H432 0.949 . S
C440 C439 1.428 . S
C440 C441 1.345 . S
C441 H433 0.950 . S
C441 C440 1.345 . S
C441 C442 1.424 . S
C442 H434 0.951 . S
C442 C441 1.424 . S
C442 C443 1.347 . S
C443 H435 0.951 . S
C443 C438 1.429 . S
C443 C442 1.347 . S
H444 C445 0.951 . S
C445 H444 0.951 . S
C445 C451 1.265 . S
H446 C451 0.950 1_455 S
H447 C455 0.949 . S
H448 C456 0.950 . S
H449 C457 0.951 . S
H450 C458 0.951 . S
C451 C445 1.265 . S
C451 H446 0.950 1_655 S
C451 C452 1.478 . S
C452 C451 1.478 . S
C452 C453 1.397 . S
C452 C469 1.394 . S
C453 C452 1.397 . S
C453 C454 1.438 . S
C453 C458 1.429 . S
C454 C453 1.438 . S
C454 C455 1.428 . S
C454 C467 1.394 . S
C455 H447 0.949 . S
C455 C454 1.428 . S
C455 C456 1.345 . S
C456 H448 0.950 . S
C456 C455 1.345 . S
C456 C457 1.424 . S
C457 H449 0.951 . S
C457 C456 1.424 . S
C457 C458 1.347 . S
C458 H450 0.951 . S
C458 C453 1.429 . S
C458 C457 1.347 . S
H459 C460 0.951 . S
C460 H459 0.951 . S
C460 C466 1.265 . S
H461 C466 0.950 . S
H462 C470 0.949 . S
H463 C471 0.950 . S
H464 C472 0.951 . S
H465 C473 0.951 . S
C466 C460 1.265 . S
C466 H461 0.950 . S
C466 C467 1.478 . S
C467 C454 1.394 . S
C467 C466 1.478 . S
C467 C468 1.397 . S
C468 C467 1.397 . S
C468 C469 1.438 . S
C468 C473 1.429 . S
C469 C452 1.394 . S
C469 C468 1.438 . S
C469 C470 1.428 . S
C470 H462 0.949 . S
C470 C469 1.428 . S
C470 C471 1.345 . S
C471 H463 0.950 . S
C471 C470 1.345 . S
C471 C472 1.424 . S
C472 H464 0.951 . S
C472 C471 1.424 . S
C472 C473 1.347 . S
C473 H465 0.951 . S
C473 C468 1.429 . S
C473 C472 1.347 . S
H474 C475 0.951 . S
C475 H474 0.951 . S
C475 C481 1.265 . S
H476 C481 0.950 1_445 S
H477 C485 0.949 . S
H478 C486 0.950 . S
H479 C487 0.951 . S
H480 C488 0.951 1_455 S
C481 C475 1.265 . S
C481 H476 0.950 1_665 S
C481 C482 1.478 1_554 S
C482 C481 1.478 1_556 S
C482 C483 1.397 . S
C482 C499 1.394 . S
C483 C482 1.397 . S
C483 C484 1.438 . S
C483 C488 1.429 . S
C484 C483 1.438 . S
C484 C485 1.428 . S
C484 C497 1.394 . S
C485 H477 0.949 . S
C485 C484 1.428 . S
C485 C486 1.345 . S
C486 H478 0.950 . S
C486 C485 1.345 . S
C486 C487 1.424 1_655 S
C487 H479 0.951 . S
C487 C486 1.424 1_455 S
C487 C488 1.347 1_455 S
C488 H480 0.951 1_655 S
C488 C483 1.429 . S
C488 C487 1.347 1_655 S
H489 C490 0.951 . S
C490 H489 0.951 . S
C490 C496 1.265 . S
H491 C496 0.950 . S
H492 C500 0.989 1_545 S
H493 C501 0.950 1_544 S
H494 C502 0.951 . S
H495 C503 0.951 . S
C496 C490 1.265 . S
C496 H491 0.950 . S
C496 C497 1.478 . S
C497 C484 1.394 . S
C497 C496 1.478 . S
C497 C498 1.397 . S
C498 C497 1.397 . S
C498 C499 1.438 . S
C498 C503 1.429 . S
C499 C482 1.394 . S
C499 C498 1.438 . S
C499 C500 1.397 1_556 S
C500 H492 0.989 1_565 S
C500 C499 1.397 1_554 S
C500 C501 1.340 1_554 S
C501 H493 0.950 1_566 S
C501 C500 1.340 1_556 S
C501 C502 1.424 . S
C502 H494 0.951 . S
C502 C501 1.424 . S
C502 C503 1.347 . S
C503 H495 0.951 . S
C503 C498 1.429 . S
C503 C502 1.347 . S
H504 C505 0.951 . S
C505 H504 0.951 . S
C505 C511 1.265 . S
H506 C511 0.950 1_455 S
H507 C515 0.949 . S
H508 C516 0.950 . S
H509 C517 0.951 . S
H510 C518 0.951 . S
C511 C505 1.265 . S
C511 H506 0.950 1_655 S
C511 C512 1.478 . S
C512 C511 1.478 . S
C512 C513 1.397 . S
C512 C529 1.394 . S
C513 C512 1.397 . S
C513 C514 1.438 . S
C513 C518 1.429 . S
C514 C513 1.438 . S
C514 C515 1.428 . S
C514 C527 1.394 . S
C515 H507 0.949 . S
C515 C514 1.428 . S
C515 C516 1.345 . S
C516 H508 0.950 . S
C516 C515 1.345 . S
C516 C517 1.424 . S
C517 H509 0.951 . S
C517 C516 1.424 . S
C517 C518 1.347 . S
C518 H510 0.951 . S
C518 C513 1.429 . S
C518 C517 1.347 . S
H519 C520 0.951 . S
C520 H519 0.951 . S
C520 C526 1.265 1_455 S
H521 C526 0.950 . S
H522 C530 0.949 . S
H523 C531 0.950 . S
H524 C532 0.951 . S
H525 C533 0.951 . S
C526 C520 1.265 1_655 S
C526 H521 0.950 . S
C526 C527 1.478 . S
C527 C514 1.394 . S
C527 C526 1.478 . S
C527 C528 1.397 . S
C528 C527 1.397 . S
C528 C529 1.438 . S
C528 C533 1.429 . S
C529 C512 1.394 . S
C529 C528 1.438 . S
C529 C530 1.428 1_655 S
C530 H522 0.949 . S
C530 C529 1.428 1_455 S
C530 C531 1.345 . S
C531 H523 0.950 . S
C531 C530 1.345 . S
C531 C532 1.424 . S
C532 H524 0.951 . S
C532 C531 1.424 . S
C532 C533 1.347 1_455 S
C533 H525 0.951 . S
C533 C528 1.429 . S
C533 C532 1.347 1_655 S
H534 C535 0.951 . S
C535 H534 0.951 . S
C535 C541 1.265 . S
H536 C541 0.950 . S
H537 C545 0.949 . S
H538 C546 0.950 . S
H539 C547 0.951 . S
H540 C548 0.951 . S
C541 C535 1.265 . S
C541 H536 0.950 . S
C541 C542 1.478 . S
C542 C541 1.478 . S
C542 C543 1.397 . S
C542 C559 1.394 . S
C543 C542 1.397 . S
C543 C544 1.438 . S
C543 C548 1.429 . S
C544 C543 1.438 . S
C544 C545 1.428 . S
C544 C557 1.394 . S
C545 H537 0.949 . S
C545 C544 1.428 . S
C545 C546 1.345 . S
C546 H538 0.950 . S
C546 C545 1.345 . S
C546 C547 1.424 . S
C547 H539 0.951 . S
C547 C546 1.424 . S
C547 C548 1.347 . S
C548 H540 0.951 . S
C548 C543 1.429 . S
C548 C547 1.347 . S
H549 C550 0.951 . S
C550 H549 0.951 . S
C550 C556 1.265 . S
H551 C556 0.950 . S
H552 C560 0.949 . S
H553 C561 0.950 . S
H554 C562 0.951 . S
H555 C563 0.951 1_545 S
C556 C550 1.265 . S
C556 H551 0.950 . S
C556 C557 1.478 . S
C557 C544 1.394 . S
C557 C556 1.478 . S
C557 C558 1.397 . S
C558 C557 1.397 . S
C558 C559 1.438 . S
C558 C563 1.429 1_545 S
C559 C542 1.394 . S
C559 C558 1.438 . S
C559 C560 1.428 1_545 S
C560 H552 0.949 . S
C560 C559 1.428 1_565 S
C560 C561 1.345 . S
C561 H553 0.950 . S
C561 C560 1.345 . S
C561 C562 1.424 . S
C562 H554 0.951 . S
C562 C561 1.424 . S
C562 C563 1.347 . S
C563 H555 0.951 1_565 S
C563 C558 1.429 1_565 S
C563 C562 1.347 . S
H564 C565 0.951 . S
C565 H564 0.951 . S
C565 C571 1.265 . S
H566 C571 0.950 . S
H567 C575 0.949 . S
H568 C576 0.950 . S
H569 C577 0.951 . S
H570 C578 0.951 1_554 S
C571 C565 1.265 . S
C571 H566 0.950 . S
C571 C572 1.478 . S
C572 C571 1.478 . S
C572 C573 1.397 1_554 S
C572 C589 1.394 . S
C573 C572 1.397 1_556 S
C573 C574 1.438 . S
C573 C578 1.429 . S
C574 C573 1.438 . S
C574 C575 1.428 . S
C574 C587 1.394 . S
C575 H567 0.949 . S
C575 C574 1.428 . S
C575 C576 1.345 . S
C576 H568 0.950 . S
C576 C575 1.345 . S
C576 C577 1.424 . S
C577 H569 0.951 . S
C577 C576 1.424 . S
C577 C578 1.347 . S
C578 H570 0.951 1_556 S
C578 C573 1.429 . S
C578 C577 1.347 . S
H579 C580 0.951 . S
C580 H579 0.951 . S
C580 C586 1.265 . S
H581 C586 0.950 . S
H582 C590 0.949 . S
H583 C591 0.950 . S
H584 C592 0.951 . S
H585 C593 0.951 . S
C586 C580 1.265 . S
C586 H581 0.950 . S
C586 C587 1.478 . S
C587 C574 1.394 . S
C587 C586 1.478 . S
C587 C588 1.397 . S
C588 C587 1.397 . S
C588 C589 1.438 1_556 S
C588 C593 1.429 . S
C589 C572 1.394 . S
C589 C588 1.438 1_554 S
C589 C590 1.428 . S
C590 H582 0.949 . S
C590 C589 1.428 . S
C590 C591 1.345 . S
C591 H583 0.950 . S
C591 C590 1.345 . S
C591 C592 1.424 . S
C592 H584 0.951 . S
C592 C591 1.424 . S
C592 C593 1.347 1_554 S
C593 H585 0.951 . S
C593 C588 1.429 . S
C593 C592 1.347 1_556 S
H594 C595 0.951 . S
C595 H594 0.951 . S
C595 C601 1.265 . S
H596 C601 0.950 . S
H597 C605 0.949 . S
H598 C606 0.950 . S
H599 C607 0.951 . S
H600 C608 0.951 . S
C601 C595 1.265 . S
C601 H596 0.950 . S
C601 C602 1.478 . S
C602 C601 1.478 . S
C602 C603 1.397 . S
C602 C619 1.394 . S
C603 C602 1.397 . S
C603 C604 1.438 . S
C603 C608 1.429 . S
C604 C603 1.438 . S
C604 C605 1.428 1_455 S
C604 C617 1.394 . S
C605 H597 0.949 . S
C605 C604 1.428 1_655 S
C605 C606 1.345 . S
C606 H598 0.950 . S
C606 C605 1.345 . S
C606 C607 1.424 . S
C607 H599 0.951 . S
C607 C606 1.424 . S
C607 C608 1.347 1_655 S
C608 H600 0.951 . S
C608 C603 1.429 . S
C608 C607 1.347 1_455 S
H609 C610 0.951 . S
C610 H609 0.951 . S
C610 C616 1.265 . S
H611 C616 0.950 . S
H612 C620 0.949 . S
H613 C621 0.950 . S
H614 C622 0.951 . S
H615 C623 0.951 . S
C616 C610 1.265 . S
C616 H611 0.950 . S
C616 C617 1.478 . S
C617 C604 1.394 . S
C617 C616 1.478 . S
C617 C618 1.397 . S
C618 C617 1.397 . S
C618 C619 1.438 . S
C618 C623 1.429 . S
C619 C602 1.394 . S
C619 C618 1.438 . S
C619 C620 1.428 . S
C620 H612 0.949 . S
C620 C619 1.428 . S
C620 C621 1.345 . S
C621 H613 0.950 . S
C621 C620 1.345 . S
C621 C622 1.424 . S
C622 H614 0.951 . S
C622 C621 1.424 . S
C622 C623 1.347 . S
C623 H615 0.951 . S
C623 C618 1.429 . S
C623 C622 1.347 . S
C280 C81 1.256 . S
C265 C11 1.349 . S
C295 C26 1.397 . S
C310 C155 1.334 . S
C325 C40 2.025 1_665 S
C340 C259 2.018 . S
C355 C5 0.565 1_565 S
C370 C93 0.672 . S
C400 C167 0.889 . S
C385 C18 0.820 . S
C415 C32 1.417 . S
C430 C253 1.321 . S
C460 C185 1.957 . S
C445 C39 1.927 1_655 S
C475 C4 1.405 1_665 S
C490 C229 1.387 . S
C520 C105 1.360 . S
C505 C19 1.204 . S
C550 C179 1.152 . S
C535 C33 1.228 . S
C580 C241 0.715 . S
C565 C12 0.748 . S
C595 C25 2.066 . S
C610 C111 2.101 . S
