# Generated by pormake.
# Topology ctn, (3,4)-cn, num edge types: 1
# Building blocks:
#     Node 0, Type 0, BuildingBlock: QEWDON_clean_linker_0, # of connection points: 3
#     Node 1, Type 0, BuildingBlock: QEWDON_clean_linker_0, # of connection points: 3
#     Node 2, Type 0, BuildingBlock: QEWDON_clean_linker_0, # of connection points: 3
#     Node 3, Type 0, BuildingBlock: QEWDON_clean_linker_0, # of connection points: 3
#     Node 4, Type 0, BuildingBlock: QEWDON_clean_linker_0, # of connection points: 3
#     Node 5, Type 0, BuildingBlock: QEWDON_clean_linker_0, # of connection points: 3
#     Node 6, Type 0, BuildingBlock: QEWDON_clean_linker_0, # of connection points: 3
#     Node 7, Type 0, BuildingBlock: QEWDON_clean_linker_0, # of connection points: 3
#     Node 8, Type 0, BuildingBlock: QEWDON_clean_linker_0, # of connection points: 3
#     Node 9, Type 0, BuildingBlock: QEWDON_clean_linker_0, # of connection points: 3
#     Node 10, Type 0, BuildingBlock: QEWDON_clean_linker_0, # of connection points: 3
#     Node 11, Type 0, BuildingBlock: QEWDON_clean_linker_0, # of connection points: 3
#     Node 12, Type 0, BuildingBlock: QEWDON_clean_linker_0, # of connection points: 3
#     Node 13, Type 0, BuildingBlock: QEWDON_clean_linker_0, # of connection points: 3
#     Node 14, Type 0, BuildingBlock: QEWDON_clean_linker_0, # of connection points: 3
#     Node 15, Type 0, BuildingBlock: QEWDON_clean_linker_0, # of connection points: 3
#     Node 16, Type 1, BuildingBlock: KUFVIS_clean_sbu_0, # of connection points: 4
#     Node 17, Type 1, BuildingBlock: KUFVIS_clean_sbu_0, # of connection points: 4
#     Node 18, Type 1, BuildingBlock: KUFVIS_clean_sbu_0, # of connection points: 4
#     Node 19, Type 1, BuildingBlock: KUFVIS_clean_sbu_0, # of connection points: 4
#     Node 20, Type 1, BuildingBlock: KUFVIS_clean_sbu_0, # of connection points: 4
#     Node 21, Type 1, BuildingBlock: KUFVIS_clean_sbu_0, # of connection points: 4
#     Node 22, Type 1, BuildingBlock: KUFVIS_clean_sbu_0, # of connection points: 4
#     Node 23, Type 1, BuildingBlock: KUFVIS_clean_sbu_0, # of connection points: 4
#     Node 24, Type 1, BuildingBlock: KUFVIS_clean_sbu_0, # of connection points: 4
#     Node 25, Type 1, BuildingBlock: KUFVIS_clean_sbu_0, # of connection points: 4
#     Node 26, Type 1, BuildingBlock: KUFVIS_clean_sbu_0, # of connection points: 4
#     Node 27, Type 1, BuildingBlock: KUFVIS_clean_sbu_0, # of connection points: 4
#     Edge 28, Type (0, 1), BuildingBlock: MIFKUJ_clean_linker_0, # of connection points: 2
#     Edge 29, Type (0, 1), BuildingBlock: MIFKUJ_clean_linker_0, # of connection points: 2
#     Edge 30, Type (0, 1), BuildingBlock: MIFKUJ_clean_linker_0, # of connection points: 2
#     Edge 31, Type (0, 1), BuildingBlock: MIFKUJ_clean_linker_0, # of connection points: 2
#     Edge 32, Type (0, 1), BuildingBlock: MIFKUJ_clean_linker_0, # of connection points: 2
#     Edge 33, Type (0, 1), BuildingBlock: MIFKUJ_clean_linker_0, # of connection points: 2
#     Edge 34, Type (0, 1), BuildingBlock: MIFKUJ_clean_linker_0, # of connection points: 2
#     Edge 35, Type (0, 1), BuildingBlock: MIFKUJ_clean_linker_0, # of connection points: 2
#     Edge 36, Type (0, 1), BuildingBlock: MIFKUJ_clean_linker_0, # of connection points: 2
#     Edge 37, Type (0, 1), BuildingBlock: MIFKUJ_clean_linker_0, # of connection points: 2
#     Edge 38, Type (0, 1), BuildingBlock: MIFKUJ_clean_linker_0, # of connection points: 2
#     Edge 39, Type (0, 1), BuildingBlock: MIFKUJ_clean_linker_0, # of connection points: 2
#     Edge 40, Type (0, 1), BuildingBlock: MIFKUJ_clean_linker_0, # of connection points: 2
#     Edge 41, Type (0, 1), BuildingBlock: MIFKUJ_clean_linker_0, # of connection points: 2
#     Edge 42, Type (0, 1), BuildingBlock: MIFKUJ_clean_linker_0, # of connection points: 2
#     Edge 43, Type (0, 1), BuildingBlock: MIFKUJ_clean_linker_0, # of connection points: 2
#     Edge 44, Type (0, 1), BuildingBlock: MIFKUJ_clean_linker_0, # of connection points: 2
#     Edge 45, Type (0, 1), BuildingBlock: MIFKUJ_clean_linker_0, # of connection points: 2
#     Edge 46, Type (0, 1), BuildingBlock: MIFKUJ_clean_linker_0, # of connection points: 2
#     Edge 47, Type (0, 1), BuildingBlock: MIFKUJ_clean_linker_0, # of connection points: 2
#     Edge 48, Type (0, 1), BuildingBlock: MIFKUJ_clean_linker_0, # of connection points: 2
#     Edge 49, Type (0, 1), BuildingBlock: MIFKUJ_clean_linker_0, # of connection points: 2
#     Edge 50, Type (0, 1), BuildingBlock: MIFKUJ_clean_linker_0, # of connection points: 2
#     Edge 51, Type (0, 1), BuildingBlock: MIFKUJ_clean_linker_0, # of connection points: 2
#     Edge 52, Type (0, 1), BuildingBlock: MIFKUJ_clean_linker_0, # of connection points: 2
#     Edge 53, Type (0, 1), BuildingBlock: MIFKUJ_clean_linker_0, # of connection points: 2
#     Edge 54, Type (0, 1), BuildingBlock: MIFKUJ_clean_linker_0, # of connection points: 2
#     Edge 55, Type (0, 1), BuildingBlock: MIFKUJ_clean_linker_0, # of connection points: 2
#     Edge 56, Type (0, 1), BuildingBlock: MIFKUJ_clean_linker_0, # of connection points: 2
#     Edge 57, Type (0, 1), BuildingBlock: MIFKUJ_clean_linker_0, # of connection points: 2
#     Edge 58, Type (0, 1), BuildingBlock: MIFKUJ_clean_linker_0, # of connection points: 2
#     Edge 59, Type (0, 1), BuildingBlock: MIFKUJ_clean_linker_0, # of connection points: 2
#     Edge 60, Type (0, 1), BuildingBlock: MIFKUJ_clean_linker_0, # of connection points: 2
#     Edge 61, Type (0, 1), BuildingBlock: MIFKUJ_clean_linker_0, # of connection points: 2
#     Edge 62, Type (0, 1), BuildingBlock: MIFKUJ_clean_linker_0, # of connection points: 2
#     Edge 63, Type (0, 1), BuildingBlock: MIFKUJ_clean_linker_0, # of connection points: 2
#     Edge 64, Type (0, 1), BuildingBlock: MIFKUJ_clean_linker_0, # of connection points: 2
#     Edge 65, Type (0, 1), BuildingBlock: MIFKUJ_clean_linker_0, # of connection points: 2
#     Edge 66, Type (0, 1), BuildingBlock: MIFKUJ_clean_linker_0, # of connection points: 2
#     Edge 67, Type (0, 1), BuildingBlock: MIFKUJ_clean_linker_0, # of connection points: 2
#     Edge 68, Type (0, 1), BuildingBlock: MIFKUJ_clean_linker_0, # of connection points: 2
#     Edge 69, Type (0, 1), BuildingBlock: MIFKUJ_clean_linker_0, # of connection points: 2
#     Edge 70, Type (0, 1), BuildingBlock: MIFKUJ_clean_linker_0, # of connection points: 2
#     Edge 71, Type (0, 1), BuildingBlock: MIFKUJ_clean_linker_0, # of connection points: 2
#     Edge 72, Type (0, 1), BuildingBlock: MIFKUJ_clean_linker_0, # of connection points: 2
#     Edge 73, Type (0, 1), BuildingBlock: MIFKUJ_clean_linker_0, # of connection points: 2
#     Edge 74, Type (0, 1), BuildingBlock: MIFKUJ_clean_linker_0, # of connection points: 2
#     Edge 75, Type (0, 1), BuildingBlock: MIFKUJ_clean_linker_0, # of connection points: 2
# Relax obj value: 0.122
# Max RMSD: 0.270
# Mean RMSD: 0.162
data_MOF--net-ctn--node1-KUFVIS_clean_sbu_0--node2-QEWDON_clean_linker_0--edge1-MIFKUJ_clean_linker_0
_symmetry_space_group_name_H-M    P1
_symmetry_Int_Tables_number       1
_symmetry_cell_setting            triclinic
loop_
_symmetry_equiv_pos_as_xyz
'x, y, z'
_cell_length_a     67.940363
_cell_length_b     70.70196
_cell_length_c     75.458733
_cell_angle_alpha  98.782687
_cell_angle_beta   92.370329
_cell_angle_gamma 96.781597
loop_
_atom_site_label
_atom_site_type_symbol
_atom_site_fract_x
_atom_site_fract_y
_atom_site_fract_z
_atom_type_partial_charge
H0 H 0.09655 0.04158 0.04699 0.0
C1 C 0.08838 0.03833 0.05841 0.0
C2 C 0.08951 0.02074 0.06486 0.0
C3 C 0.0776 0.05235 0.06719 0.0
H4 H 0.07926 1.00366 0.08493 0.0
C5 C 0.07856 0.01704 0.07977 0.0
C6 C 0.06712 0.03071 0.08842 0.0
C7 C 0.06701 0.0484 0.08206 0.0
C8 C 0.07973 0.07217 0.06262 0.0
H9 H 0.0592 0.05953 0.08907 0.0
C10 C 0.07478 0.07587 0.0452 0.0
C11 C 0.07769 0.09492 0.04138 0.0
C12 C 0.08741 0.08763 0.07603 0.0
H13 H 0.09144 0.08513 0.08945 0.0
C14 C 0.09037 0.10638 0.07222 0.0
H15 H 0.06877 0.06409 0.03476 0.0
C16 C 0.08563 0.11002 0.05503 0.0
H17 H 0.08791 0.12476 0.05242 0.0
H18 H 0.09639 0.11816 0.08264 0.0
H19 H 0.37356 0.72298 0.21371 0.0
C20 C 0.362 0.71081 0.21058 0.0
C21 C 0.36411 0.69373 0.21741 0.0
C22 C 0.34488 0.71267 0.2002 0.0
H23 H 0.35 0.66537 0.2194 0.0
C24 C 0.34894 0.67817 0.21332 0.0
C25 C 0.33176 0.67948 0.20267 0.0
C26 C 0.32996 0.69683 0.19599 0.0
C27 C 0.34187 0.73197 0.19587 0.0
H28 H 0.31666 0.69834 0.18816 0.0
C29 C 0.33721 0.73499 0.17817 0.0
C30 C 0.33599 0.75386 0.17461 0.0
C31 C 0.3444 0.74784 0.20985 0.0
H32 H 0.34771 0.74588 0.22358 0.0
C33 C 0.34275 0.76638 0.20635 0.0
H34 H 0.33531 0.72294 0.16723 0.0
C35 C 0.33873 0.76942 0.18884 0.0
H36 H 0.33772 0.78399 0.18638 0.0
H37 H 0.34476 0.77846 0.21723 0.0
H38 H 0.0272 0.47691 0.04367 0.0
C39 C 0.0154 0.48568 0.04215 0.0
C40 C 0.00874 0.49697 0.05728 0.0
C41 C 0.0076 0.48628 0.02481 0.0
H42 H 0.98782 0.51692 0.06599 0.0
C43 C 0.99313 0.50805 0.05464 0.0
C44 C 0.98454 0.50805 0.03729 0.0
C45 C 0.99216 0.49732 0.02249 0.0
C46 C 0.0173 0.47754 0.00891 0.0
H47 H 0.9865 0.49799 0.00898 0.0
C48 C 0.0171 0.45741 0.00446 0.0
C49 C 0.02607 0.44956 0.9889 0.0
C50 C 0.02684 0.48974 0.99802 0.0
H51 H 0.02721 0.50525 1.0013 0.0
C52 C 0.03617 0.4821 0.98296 0.0
H53 H 0.00946 0.44797 0.0127 0.0
C54 C 0.03582 0.4622 0.97841 0.0
H55 H 0.04326 0.4567 0.96665 0.0
H56 H 0.04366 0.49164 0.97474 0.0
H57 H 0.75195 0.81828 0.22729 0.0
C58 C 0.75176 0.81095 0.21356 0.0
C59 C 0.76003 0.82084 0.20022 0.0
C60 C 0.74444 0.79129 0.20955 0.0
H61 H 0.76671 0.81821 0.17225 0.0
C62 C 0.75988 0.81096 0.18252 0.0
C63 C 0.75255 0.79125 0.17832 0.0
C64 C 0.74496 0.78152 0.19196 0.0
C65 C 0.73906 0.78029 0.2242 0.0
H66 H 0.73977 0.76621 0.18898 0.0
C67 C 0.7228 0.78397 0.23466 0.0
C68 C 0.7185 0.77363 0.24891 0.0
C69 C 0.75082 0.7662 0.22801 0.0
H70 H 0.76341 0.76322 0.22015 0.0
C71 C 0.7467 0.7561 0.24218 0.0
H72 H 0.7136 0.79476 0.23174 0.0
C73 C 0.7307 0.7598 0.2526 0.0
H74 H 0.72761 0.75156 0.26338 0.0
H75 H 0.75591 0.74532 0.24507 0.0
H76 H 0.09614 0.96461 0.49359 0.0
C77 C 0.08657 0.9692 0.48365 0.0
C78 C 0.09122 0.98745 0.47836 0.0
C79 C 0.0702 0.95639 0.47537 0.0
H80 H 0.08275 0.00647 0.46028 0.0
C81 C 0.07887 0.99286 0.46501 0.0
C82 C 0.06254 0.98022 0.45656 0.0
C83 C 0.05829 0.96207 0.46191 0.0
C84 C 0.06712 0.936 0.47847 0.0
H85 H 0.04593 0.95205 0.45522 0.0
C86 C 0.06258 0.93081 0.49537 0.0
C87 C 0.05818 0.91112 0.49711 0.0
C88 C 0.06799 0.9214 0.46373 0.0
H89 H 0.07158 0.92502 0.4507 0.0
C90 C 0.0642 0.90204 0.46558 0.0
H91 H 0.06168 0.94193 0.50679 0.0
C92 C 0.05921 0.89692 0.48207 0.0
H93 H 0.05615 0.88174 0.48309 0.0
H94 H 0.06494 0.89094 0.45412 0.0
H95 H 0.26811 0.67488 0.78387 0.0
C96 C 0.26523 0.68409 0.79608 0.0
C97 C 0.27471 0.68222 0.81253 0.0
C98 C 0.2523 0.69802 0.79499 0.0
H99 H 0.27853 0.69371 0.84076 0.0
C100 C 0.27055 0.69435 0.82819 0.0
C101 C 0.25708 0.70806 0.82755 0.0
C102 C 0.24781 0.7095 0.8108 0.0
C103 C 0.24573 0.70212 0.77707 0.0
H104 H 0.23766 0.72007 0.80986 0.0
C105 C 0.22572 0.70382 0.77245 0.0
C106 C 0.22015 0.70768 0.75521 0.0
C107 C 0.26007 0.70473 0.76446 0.0
H108 H 0.27558 0.70383 0.76774 0.0
C109 C 0.25472 0.70894 0.74764 0.0
H110 H 0.21455 0.70164 0.78203 0.0
C111 C 0.23498 0.71044 0.74303 0.0
H112 H 0.23138 0.71398 0.72991 0.0
H113 H 0.26595 0.71113 0.73813 0.0
H114 H 0.99318 0.57489 0.46112 0.0
C115 C 0.98438 0.56385 0.46694 0.0
C116 C 0.97976 0.56747 0.48511 0.0
C117 C 0.97624 0.54662 0.45586 0.0
H118 H 0.96377 0.55586 0.50607 0.0
C119 C 0.96735 0.55333 0.49211 0.0
C120 C 0.95932 0.536 0.48124 0.0
C121 C 0.96398 0.53273 0.46319 0.0
C122 C 0.97746 0.54419 0.4361 0.0
H123 H 0.95717 0.51976 0.45449 0.0
C124 C 0.99531 0.54131 0.42772 0.0
C125 C 0.9952 0.53704 0.40879 0.0
C126 C 0.95987 0.5435 0.42544 0.0
H127 H 0.94602 0.54569 0.43162 0.0
C128 C 0.95986 0.53977 0.40678 0.0
H129 H 0.00892 0.54162 0.43583 0.0
C130 C 0.97734 0.53641 0.3985 0.0
H131 H 0.97694 0.53338 0.38396 0.0
H132 H 0.94621 0.53925 0.39871 0.0
H133 H 0.85034 0.83132 0.80708 0.0
C134 C 0.84907 0.82071 0.81606 0.0
C135 C 0.85904 0.80425 0.81272 0.0
C136 C 0.83812 0.82402 0.83136 0.0
H137 H 0.86512 0.77816 0.82247 0.0
C138 C 0.85722 0.79068 0.82467 0.0
C139 C 0.84621 0.79373 0.84006 0.0
C140 C 0.83681 0.81051 0.84327 0.0
C141 C 0.82998 0.8426 0.83609 0.0
H142 H 0.82842 0.81315 0.85512 0.0
C143 C 0.81633 0.849 0.82438 0.0
C144 C 0.80945 0.86707 0.82913 0.0
C145 C 0.83644 0.85434 0.85252 0.0
H146 H 0.84696 0.84977 0.86168 0.0
C147 C 0.82976 0.87224 0.85714 0.0
H148 H 0.81114 0.84002 0.81172 0.0
C149 C 0.81643 0.87861 0.84553 0.0
H150 H 0.8113 0.8925 0.84948 0.0
H151 H 0.83494 0.88121 0.86979 0.0
H152 H 0.35066 0.32979 0.3071 0.0
C153 C 0.349 0.31872 0.31559 0.0
C154 C 0.35989 0.30286 0.31256 0.0
C155 C 0.33655 0.32075 0.32998 0.0
H156 H 0.36718 0.2773 0.32242 0.0
C157 C 0.35809 0.28896 0.32419 0.0
C158 C 0.34554 0.29061 0.33863 0.0
C159 C 0.33453 0.3064 0.34103 0.0
C160 C 0.32761 0.33892 0.33513 0.0
H161 H 0.32451 0.30784 0.35181 0.0
C162 C 0.31661 0.34724 0.32266 0.0
C163 C 0.30874 0.3647 0.32824 0.0
C164 C 0.33055 0.34825 0.35305 0.0
H165 H 0.33913 0.34237 0.36285 0.0
C166 C 0.32276 0.36538 0.35856 0.0
H167 H 0.31422 0.34023 0.3088 0.0
C168 C 0.31194 0.37354 0.3463 0.0
H169 H 0.30583 0.38675 0.35104 0.0
H170 H 0.32512 0.37237 0.3724 0.0
H171 H 0.52766 0.97517 0.53855 0.0
C172 C 0.51566 0.98376 0.53722 0.0
C173 C 0.50913 0.99491 0.55249 0.0
C174 C 0.50734 0.98415 0.51999 0.0
H175 H 0.48799 0.01446 0.56164 0.0
C176 C 0.49321 0.00572 0.55016 0.0
C177 C 0.48413 0.00554 0.53296 0.0
C178 C 0.49156 0.9949 0.51801 0.0
C179 C 0.51626 0.9749 0.50382 0.0
H180 H 0.48535 0.9953 0.50462 0.0
C181 C 0.51779 0.95497 0.5008 0.0
C182 C 0.52556 0.94645 0.48487 0.0
C183 C 0.52307 0.98629 0.49107 0.0
H184 H 0.52217 1.00166 0.49319 0.0
C185 C 0.53125 0.97802 0.47557 0.0
H186 H 0.51226 0.94607 0.51046 0.0
C187 C 0.53245 0.95826 0.47243 0.0
H188 H 0.5388 0.9522 0.46024 0.0
H189 H 0.53657 0.98695 0.46589 0.0
H190 H 0.26161 0.31471 0.73231 0.0
C191 C 0.26214 0.30757 0.7186 0.0
C192 C 0.27134 0.31758 0.70571 0.0
C193 C 0.25458 0.28796 0.71417 0.0
H194 H 0.27943 0.31494 0.67803 0.0
C195 C 0.27186 0.3078 0.68802 0.0
C196 C 0.26398 0.28832 0.68334 0.0
C197 C 0.25546 0.27851 0.6965 0.0
C198 C 0.24813 0.27658 0.72835 0.0
H199 H 0.24974 0.26335 0.69306 0.0
C200 C 0.23333 0.28193 0.74003 0.0
C201 C 0.22779 0.27082 0.75348 0.0
C202 C 0.25727 0.26012 0.73027 0.0
H203 H 0.26878 0.25582 0.72156 0.0
C204 C 0.25188 0.2492 0.74357 0.0
H205 H 0.22615 0.29457 0.73861 0.0
C206 C 0.23727 0.25446 0.75508 0.0
H207 H 0.23311 0.24549 0.7651 0.0
H208 H 0.25902 0.23655 0.74492 0.0
H209 H 0.86082 0.22541 0.71883 0.0
C210 C 0.85048 0.21227 0.71626 0.0
C211 C 0.8553 0.19545 0.72242 0.0
C212 C 0.83191 0.2126 0.70751 0.0
H213 H 0.8443 0.16604 0.72469 0.0
C214 C 0.84127 0.17879 0.71924 0.0
C215 C 0.82263 0.17886 0.71042 0.0
C216 C 0.81813 0.19587 0.70452 0.0
C217 C 0.8254 0.23126 0.70495 0.0
H218 H 0.80358 0.19637 0.69826 0.0
C219 C 0.82634 0.23812 0.68836 0.0
C220 C 0.81978 0.25603 0.68654 0.0
C221 C 0.81785 0.24222 0.71959 0.0
H222 H 0.81701 0.2371 0.7324 0.0
C223 C 0.81113 0.25971 0.71782 0.0
H224 H 0.83235 0.22969 0.67712 0.0
C225 C 0.81199 0.26655 0.70147 0.0
H226 H 0.80625 0.28003 0.70049 0.0
H227 H 0.80512 0.26798 0.72915 0.0
H228 H 0.6026 0.54036 0.55149 0.0
C229 C 0.59418 0.53722 0.5628 0.0
C230 C 0.59491 0.51961 0.5693 0.0
C231 C 0.58348 0.55141 0.57139 0.0
H232 H 0.58393 0.50262 0.58919 0.0
C233 C 0.58358 0.51603 0.58402 0.0
C234 C 0.57219 0.52988 0.59247 0.0
C235 C 0.57254 0.54762 0.58611 0.0
C236 C 0.58598 0.57118 0.56675 0.0
H237 H 0.56481 0.55888 0.59298 0.0
C238 C 0.58124 0.57483 0.54929 0.0
C239 C 0.58453 0.59381 0.54535 0.0
C240 C 0.59384 0.58662 0.58011 0.0
H241 H 0.59769 0.58414 0.59357 0.0
C242 C 0.59718 0.60531 0.57619 0.0
H243 H 0.57508 0.56306 0.53889 0.0
C244 C 0.59264 0.6089 0.55893 0.0
H245 H 0.5952 0.62359 0.55624 0.0
H246 H 0.60333 0.61708 0.58657 0.0
H247 H 0.59991 0.46322 0.99424 0.0
C248 C 0.59017 0.46779 0.98442 0.0
C249 C 0.59505 0.48571 0.97861 0.0
C250 C 0.57322 0.45533 0.97688 0.0
H251 H 0.58725 0.50409 0.95988 0.0
C252 C 0.58275 0.49092 0.96514 0.0
C253 C 0.56563 0.47877 0.9575 0.0
C254 C 0.5609 0.46112 0.96376 0.0
C255 C 0.56994 0.43503 0.98019 0.0
H256 H 0.54786 0.45142 0.9581 0.0
C257 C 0.56585 0.43005 0.99725 0.0
C258 C 0.56135 0.41042 0.99919 0.0
C259 C 0.57025 0.42029 0.96547 0.0
H260 H 0.57348 0.42375 0.9523 0.0
C261 C 0.56638 0.40099 0.96749 0.0
H262 H 0.56538 0.44129 0.00867 0.0
C263 C 0.56185 0.39607 0.98415 0.0
H264 H 0.55874 0.38094 0.98531 0.0
H265 H 0.5667 0.38979 0.95603 0.0
H266 H 0.76586 0.1688 0.29037 0.0
C267 C 0.76304 0.17806 0.30259 0.0
C268 C 0.77222 0.17566 0.31896 0.0
C269 C 0.75112 0.19291 0.30168 0.0
H270 H 0.77637 0.18643 0.34732 0.0
C271 C 0.76916 0.18814 0.33468 0.0
C272 C 0.75669 0.20267 0.33419 0.0
C273 C 0.74758 0.20483 0.31761 0.0
C274 C 0.7445 0.19723 0.28385 0.0
H275 H 0.73874 0.21654 0.31696 0.0
C276 C 0.72478 0.20045 0.27984 0.0
C277 C 0.71902 0.20414 0.2626 0.0
C278 C 0.75842 0.19833 0.27064 0.0
H279 H 0.77373 0.19629 0.27343 0.0
C280 C 0.75289 0.20237 0.25379 0.0
H281 H 0.71389 0.19947 0.28986 0.0
C282 C 0.73339 0.20523 0.24976 0.0
H283 H 0.72958 0.20847 0.23656 0.0
H284 H 0.76379 0.20331 0.24379 0.0
H285 H 0.49503 0.07488 0.96589 0.0
C286 C 0.48597 0.06381 0.97145 0.0
C287 C 0.48142 0.06709 0.98964 0.0
C288 C 0.47736 0.04703 0.95999 0.0
H289 H 0.46502 0.0553 0.01027 0.0
C290 C 0.46861 0.05301 0.99631 0.0
C291 C 0.46012 0.03608 0.98507 0.0
C292 C 0.46468 0.03316 0.96696 0.0
C293 C 0.47839 0.04554 0.94027 0.0
H294 H 0.45746 0.02057 0.95799 0.0
C295 C 0.49629 0.04372 0.93166 0.0
C296 C 0.49648 0.04252 0.91281 0.0
C297 C 0.46086 0.04605 0.92992 0.0
H298 H 0.44698 0.04747 0.93627 0.0
C299 C 0.46106 0.04495 0.91135 0.0
H300 H 0.50987 0.04324 0.93954 0.0
C301 C 0.4787 0.04323 0.90284 0.0
H302 H 0.47841 0.04215 0.88835 0.0
H303 H 0.44746 0.04539 0.90351 0.0
Mn304 Mn 0.26488 0.86993 0.01256 0.0
Mn305 Mn 0.26487 0.88798 0.97363 0.0
C306 C 0.25251 0.85058 0.98579 0.0
C307 C 0.27926 0.85447 0.03421 0.0
C308 C 0.23618 0.89759 1.00242 0.0
O309 O 0.28571 0.89388 0.01818 0.0
O310 O 0.28516 0.90391 0.99109 0.0
C311 C 0.3047 0.8801 0.96231 0.0
N312 N 0.28463 0.87774 0.959 0.0
C313 C 0.28718 0.85874 0.93008 0.0
C314 C 0.30789 0.86103 0.93314 0.0
C315 C 0.31667 0.87171 0.94935 0.0
C316 C 0.27601 0.86738 0.94351 0.0
H317 H 0.31153 0.88833 0.97474 0.0
C318 C 0.29195 0.90533 0.00741 0.0
O319 O 0.26563 0.86559 0.03799 0.0
O320 O 0.28509 0.85283 0.01793 0.0
N321 N 0.24601 0.8735 0.95559 0.0
C322 C 0.2258 0.87184 0.95512 0.0
C323 C 0.2147 0.86106 0.94005 0.0
C324 C 0.22448 0.85222 0.92558 0.0
C325 C 0.24529 0.85424 0.92631 0.0
C326 C 0.25556 0.86517 0.94168 0.0
H327 H 0.21822 0.87864 0.9662 0.0
O328 O 0.24659 0.84638 1.00103 0.0
O329 O 0.26495 0.86614 0.98677 0.0
O330 O 0.24218 0.88674 0.01298 0.0
O331 O 0.24378 0.89932 0.98747 0.0
C332 C 0.25624 0.84572 0.91248 0.0
C333 C 0.27718 0.84803 0.91433 0.0
H334 H 0.31717 0.85457 0.92318 0.0
H335 H 0.33264 0.87349 0.95184 0.0
H336 H 0.19864 0.85955 0.93959 0.0
H337 H 0.21586 0.84385 0.91401 0.0
H338 H 0.24871 0.8372 0.90042 0.0
H339 H 0.28543 0.84128 0.90367 0.0
Mn340 Mn 0.16149 0.50647 0.24509 0.0
Mn341 Mn 0.14926 0.55174 0.24866 0.0
C342 C 0.18066 0.52969 0.23224 0.0
C343 C 0.17833 0.4836 0.25695 0.0
C344 C 0.12717 0.51767 0.22312 0.0
O345 O 0.1419 0.50773 0.26522 0.0
O346 O 0.13864 0.53947 0.26884 0.0
C347 C 0.17335 0.56928 0.28199 0.0
N348 N 0.1683 0.56924 0.26433 0.0
C349 C 0.19092 0.59802 0.2639 0.0
C350 C 0.19614 0.59855 0.28216 0.0
C351 C 0.18741 0.58403 0.29121 0.0
C352 C 0.17692 0.5829 0.2554 0.0
H353 H 0.16677 0.55809 0.28894 0.0
C354 C 0.13565 0.5228 0.27364 0.0
O355 O 0.1632 0.4784 0.24542 0.0
O356 O 0.18319 0.50199 0.26197 0.0
N357 N 0.15883 0.56542 0.23007 0.0
C358 C 0.15286 0.56236 0.21229 0.0
C359 C 0.16069 0.57525 0.20118 0.0
C360 C 0.17436 0.5913 0.20851 0.0
C361 C 0.18007 0.5943 0.22689 0.0
C362 C 0.17179 0.58095 0.23729 0.0
H363 H 0.14221 0.55017 0.20658 0.0
O364 O 0.18159 0.51149 0.22696 0.0
O365 O 0.16889 0.53364 0.24502 0.0
O366 O 0.13874 0.50533 0.226 0.0
O367 O 0.12904 0.53489 0.23174 0.0
C368 C 0.19373 0.60997 0.23528 0.0
C369 C 0.19921 0.61179 0.25376 0.0
H370 H 0.20696 0.60991 0.28932 0.0
H371 H 0.1915 0.58422 0.30525 0.0
H372 H 0.15617 0.57285 0.18702 0.0
H373 H 0.18041 0.60118 0.1999 0.0
H374 H 0.20031 0.62054 0.22757 0.0
H375 H 0.21 0.62373 0.25998 0.0
Mn376 Mn 0.80348 0.63912 0.99581 0.0
Mn377 Mn 0.7615 0.65021 0.97633 0.0
C378 C 0.77323 0.62031 0.99742 0.0
C379 C 0.83226 0.62377 0.99588 0.0
C380 C 0.78109 0.67227 0.01153 0.0
O381 O 0.81401 0.65748 0.97863 0.0
O382 O 0.78498 0.6612 0.96462 0.0
C383 C 0.76269 0.62723 0.94021 0.0
N384 N 0.75291 0.63185 0.95534 0.0
C385 C 0.72388 0.61022 0.94308 0.0
C386 C 0.73355 0.60542 0.92726 0.0
C387 C 0.7531 0.61387 0.92587 0.0
C388 C 0.73426 0.62351 0.95697 0.0
H389 H 0.7777 0.63367 0.93914 0.0
C390 C 0.80397 0.66396 0.96664 0.0
O391 O 0.83048 0.63921 0.00707 0.0
O392 O 0.81765 0.61767 0.98391 0.0
N393 N 0.73755 0.64041 0.98613 0.0
C394 C 0.73076 0.6457 1.00268 0.0
C395 C 0.71171 0.63796 0.00653 0.0
C396 C 0.6997 0.62514 0.99324 0.0
C397 C 0.70691 0.62012 0.97624 0.0
C398 C 0.72607 0.62816 0.97323 0.0
H399 H 0.7398 0.65573 0.01289 0.0
O400 O 0.78793 0.62028 0.00895 0.0
O401 O 0.7767 0.63114 0.98515 0.0
O402 O 0.79472 0.66156 0.01261 0.0
O403 O 0.76846 0.6699 0.99812 0.0
C404 C 0.69586 0.60738 0.96218 0.0
C405 C 0.70442 0.60224 0.94568 0.0
H406 H 0.72618 0.59516 0.91615 0.0
H407 H 0.76073 0.61013 0.91376 0.0
H408 H 0.70625 0.64195 0.01968 0.0
H409 H 0.68501 0.6192 0.99625 0.0
H410 H 0.68088 0.60122 0.964 0.0
H411 H 0.69592 0.59207 0.93513 0.0
Mn412 Mn 0.92497 0.01122 0.26957 0.0
Mn413 Mn 0.9409 0.96726 0.26316 0.0
C414 C 0.90566 0.98525 0.25169 0.0
C415 C 0.90761 0.03476 0.28504 0.0
C416 C 0.95721 0.99988 0.24396 0.0
O417 O 0.94609 0.01348 0.29042 0.0
O418 O 0.95454 0.98339 0.28498 0.0
C419 C 0.92507 0.95272 0.29522 0.0
N420 N 0.92652 0.95053 0.27709 0.0
C421 C 0.90715 0.91925 0.273 0.0
C422 C 0.9055 0.92113 0.29164 0.0
C423 C 0.91443 0.93797 0.30278 0.0
C424 C 0.91787 0.93445 0.26624 0.0
H425 H 0.93198 0.96561 0.30383 0.0
C426 C 0.95597 1.00021 0.29441 0.0
O427 O 0.92203 0.03924 0.27511 0.0
O428 O 0.90381 0.01669 0.28666 0.0
N429 N 0.92886 0.94986 0.24267 0.0
C430 C 0.93104 0.95074 0.22494 0.0
C431 C 0.92326 0.93491 0.212 0.0
C432 C 0.91337 0.91836 0.21745 0.0
C433 C 0.91084 0.91799 0.23572 0.0
C434 C 0.91928 0.93402 0.24802 0.0
H435 H 0.93898 0.96328 0.22071 0.0
O436 O 0.90378 1.00288 0.24972 0.0
O437 O 0.91899 0.98327 0.26394 0.0
O438 O 0.94633 0.01216 0.25104 0.0
O439 O 0.95661 0.98291 0.24788 0.0
C440 C 0.90037 0.9023 0.24223 0.0
C441 C 0.89839 0.903 0.26085 0.0
H442 H 0.89731 0.90979 0.29752 0.0
H443 H 0.91317 0.93956 0.31717 0.0
H444 H 0.92514 0.93534 0.19789 0.0
H445 H 0.90788 0.90596 0.2075 0.0
H446 H 0.8936 0.88973 0.23301 0.0
H447 H 0.89005 0.89098 0.26568 0.0
Mn448 Mn 0.30234 0.13758 0.49464 0.0
Mn449 Mn 0.2612 0.15216 0.47684 0.0
C450 C 0.2713 0.12051 0.49688 0.0
C451 C 0.33009 0.12066 0.49448 0.0
C452 C 0.28071 0.17079 0.51277 0.0
O453 O 0.31407 0.15507 0.47736 0.0
O454 O 0.28572 0.16524 0.46833 0.0
C455 C 0.26577 0.1345 0.43925 0.0
N456 N 0.25447 0.13694 0.45373 0.0
C457 C 0.22628 0.1174 0.43717 0.0
C458 C 0.23757 0.11477 0.42205 0.0
C459 C 0.25743 0.1233 0.42312 0.0
C460 C 0.23543 0.12866 0.45289 0.0
H461 H 0.28102 0.14106 0.43999 0.0
C462 C 0.30457 0.16547 0.4685 0.0
O463 O 0.32911 0.13632 0.50563 0.0
O464 O 0.31517 0.11508 0.48273 0.0
N465 N 0.23597 0.1412 0.4833 0.0
C466 C 0.22733 0.14467 0.49925 0.0
C467 C 0.20741 0.13732 0.50041 0.0
C468 C 0.19655 0.12652 0.4852 0.0
C469 C 0.20574 0.12317 0.46893 0.0
C470 C 0.22552 0.13119 0.46848 0.0
H471 H 0.23551 0.1532 0.51092 0.0
O472 O 0.28613 0.11989 0.50808 0.0
O473 O 0.27495 0.13108 0.48431 0.0
O474 O 0.29524 0.16088 0.51174 0.0
O475 O 0.26662 0.16851 0.50063 0.0
C476 C 0.19608 0.11211 0.45318 0.0
C477 C 0.20639 0.10913 0.43734 0.0
H478 H 0.23118 0.10615 0.40958 0.0
H479 H 0.26626 0.12128 0.41153 0.0
H480 H 0.20037 0.14023 0.51295 0.0
H481 H 0.18114 0.12097 0.48609 0.0
H482 H 0.1808 0.10567 0.45315 0.0
H483 H 0.19889 0.10039 0.42537 0.0
Mn484 Mn 0.42705 0.51666 0.77242 0.0
Mn485 Mn 0.44223 0.47238 0.76798 0.0
C486 C 0.40733 0.49025 0.75605 0.0
C487 C 0.41011 0.54091 0.78723 0.0
C488 C 0.45904 0.5036 0.74728 0.0
O489 O 0.44836 0.51949 0.79302 0.0
O490 O 0.45623 0.48897 0.78958 0.0
C491 C 0.42592 0.45933 0.8005 0.0
N492 N 0.4271 0.45664 0.78233 0.0
C493 C 0.40486 0.427 0.77888 0.0
C494 C 0.40352 0.4294 0.79756 0.0
C495 C 0.41406 0.44566 0.8084 0.0
C496 C 0.41701 0.44104 0.77176 0.0
H497 H 0.43393 0.47184 0.80888 0.0
C498 C 0.45786 0.50636 0.79787 0.0
O499 O 0.42428 0.54478 0.77682 0.0
O500 O 0.4064 0.5231 0.78969 0.0
N501 N 0.42948 0.45485 0.74778 0.0
C502 C 0.43128 0.45535 0.72993 0.0
C503 C 0.42111 0.44045 0.71723 0.0
C504 C 0.40928 0.42514 0.72298 0.0
C505 C 0.40771 0.42489 0.74141 0.0
C506 C 0.41833 0.44006 0.75346 0.0
H507 H 0.44033 0.46708 0.72541 0.0
O508 O 0.40537 0.50756 0.75308 0.0
O509 O 0.42093 0.48894 0.76825 0.0
O510 O 0.44807 0.51619 0.75355 0.0
O511 O 0.45846 0.48707 0.75224 0.0
C512 C 0.39571 0.41039 0.74829 0.0
C513 C 0.39427 0.41146 0.76701 0.0
H514 H 0.39428 0.41896 0.80371 0.0
H515 H 0.41301 0.44767 0.82283 0.0
H516 H 0.42234 0.44078 0.70302 0.0
H517 H 0.40134 0.41375 0.71314 0.0
H518 H 0.38726 0.39853 0.7393 0.0
H519 H 0.38473 0.4004 0.77212 0.0
Mn520 Mn 0.76819 0.36721 0.5154 0.0
Mn521 Mn 0.76633 0.38285 0.47528 0.0
C522 C 0.75409 0.34677 0.48985 0.0
C523 C 0.78327 0.35292 0.53753 0.0
C524 C 0.7393 0.3946 0.50485 0.0
O525 O 0.78959 0.3907 0.5191 0.0
O526 O 0.78733 0.39948 0.49155 0.0
C527 C 0.80554 0.37369 0.46326 0.0
N528 N 0.78541 0.37157 0.46048 0.0
C529 C 0.78674 0.3506 0.43237 0.0
C530 C 0.80749 0.35265 0.43488 0.0
C531 C 0.81692 0.36421 0.45041 0.0
C532 C 0.77618 0.36044 0.44561 0.0
H533 H 0.81286 0.38251 0.4752 0.0
C534 C 0.79508 0.40154 0.50762 0.0
O535 O 0.77025 0.36471 0.54127 0.0
O536 O 0.78809 0.34981 0.52095 0.0
N537 N 0.74677 0.36769 0.45826 0.0
C538 C 0.72661 0.3663 0.4584 0.0
C539 C 0.71491 0.35482 0.44403 0.0
C540 C 0.72405 0.34499 0.42965 0.0
C541 C 0.74483 0.34673 0.42976 0.0
C542 C 0.75572 0.35845 0.44439 0.0
H543 H 0.71951 0.37382 0.46942 0.0
O544 O 0.74893 0.34371 0.50566 0.0
O545 O 0.76682 0.3619 0.48956 0.0
O546 O 0.74602 0.38459 0.51586 0.0
O547 O 0.74588 0.39515 0.4893 0.0
C548 C 0.75517 0.33707 0.41606 0.0
C549 C 0.7761 0.33893 0.4174 0.0
H550 H 0.81632 0.3453 0.42504 0.0
H551 H 0.83293 0.36579 0.45249 0.0
H552 H 0.69888 0.35351 0.44406 0.0
H553 H 0.71498 0.33603 0.41866 0.0
H554 H 0.74717 0.32801 0.40451 0.0
H555 H 0.78386 0.33118 0.40693 0.0
Mn556 Mn 0.65521 1.00036 0.74551 0.0
Mn557 Mn 0.64283 0.04558 0.74748 0.0
C558 C 0.67558 0.02356 0.73386 0.0
C559 C 0.67105 0.97743 0.75822 0.0
C560 C 0.62312 0.01152 0.72066 0.0
O561 O 0.63434 1.00153 0.76446 0.0
O562 O 0.62927 0.03267 0.76598 0.0
C563 C 0.66188 0.06292 0.78318 0.0
N564 N 0.65977 0.06295 0.76515 0.0
C565 C 0.68322 0.09164 0.76737 0.0
C566 C 0.68561 0.09195 0.78597 0.0
C567 C 0.6749 0.07752 0.7939 0.0
C568 C 0.66999 0.07676 0.75739 0.0
H569 H 0.65369 0.05185 0.78932 0.0
C570 C 0.62632 0.01626 0.77129 0.0
O571 O 0.65673 0.97232 0.74586 0.0
O572 O 0.67566 0.9958 0.76362 0.0
N573 N 0.65508 0.05983 0.73036 0.0
C574 C 0.6515 0.05714 0.71218 0.0
C575 C 0.66114 0.07028 0.70219 0.0
C576 C 0.67423 0.08611 0.71098 0.0
C577 C 0.67757 0.08865 0.7297 0.0
C578 C 0.66738 0.0752 0.73898 0.0
H579 H 0.64136 0.04508 0.70535 0.0
O580 O 0.67657 0.00536 0.72866 0.0
O581 O 0.66287 0.02764 0.74582 0.0
O582 O 0.63377 0.99903 0.72505 0.0
O583 O 0.62485 0.02896 0.72863 0.0
C584 C 0.69077 0.10389 0.73951 0.0
C585 C 0.69364 0.10535 0.75832 0.0
H586 H 0.69569 0.10314 0.79428 0.0
H587 H 0.67668 0.07765 0.80824 0.0
H588 H 0.65847 0.06823 0.68774 0.0
H589 H 0.68164 0.0962 0.70322 0.0
H590 H 0.69896 0.11444 0.73269 0.0
H591 H 0.70399 0.117 0.76568 0.0
Mn592 Mn 0.03906 0.22671 0.87636 0.0
Mn593 Mn 0.99185 0.22121 0.88888 0.0
C594 C 0.01375 0.20992 0.85644 0.0
C595 C 0.06539 0.24314 0.86358 0.0
C596 C 0.0239 0.19933 0.90212 0.0
O597 O 0.03936 0.24822 0.89785 0.0
O598 O 0.00704 0.24415 0.90421 0.0
C599 C 0.97815 0.25646 0.87845 0.0
N600 N 0.97622 0.23687 0.877 0.0
C601 C 0.94796 0.23343 0.8559 0.0
C602 C 0.94961 0.25355 0.85723 0.0
C603 C 0.96479 0.2651 0.86851 0.0
C604 C 0.96162 0.22562 0.86619 0.0
H605 H 0.98984 0.26541 0.88706 0.0
C606 C 0.02472 0.25321 0.90686 0.0
O607 O 0.06836 0.23153 0.8749 0.0
O608 O 0.04712 0.2458 0.86016 0.0
N609 N 0.97582 0.1997 0.87461 0.0
C610 C 0.97722 0.18052 0.87375 0.0
C611 C 0.96359 0.16699 0.86247 0.0
C612 C 0.94868 0.17332 0.85222 0.0
C613 C 0.94751 0.19313 0.85335 0.0
C614 C 0.96142 0.20593 0.86492 0.0
H615 H 0.98872 0.17557 0.88152 0.0
O616 O 0.03196 0.20649 0.85449 0.0
O617 O 0.011 0.22244 0.87027 0.0
O618 O 0.03756 0.20633 0.89303 0.0
O619 O 0.00634 0.20407 0.9017 0.0
C620 C 0.93337 0.20068 0.84316 0.0
C621 C 0.93361 0.22081 0.84441 0.0
H622 H 0.93945 0.26028 0.84949 0.0
H623 H 0.96622 0.28062 0.86946 0.0
H624 H 0.96464 0.15173 0.86161 0.0
H625 H 0.93832 0.16286 0.8434 0.0
H626 H 0.92243 0.19113 0.83411 0.0
H627 H 0.92288 0.22644 0.83627 0.0
Mn628 Mn 0.53785 0.72234 0.37855 0.0
Mn629 Mn 0.49275 0.71765 0.3957 0.0
C630 C 0.51063 0.70504 0.36113 0.0
C631 C 0.56229 0.738 0.36302 0.0
C632 C 0.52615 0.6958 0.40604 0.0
O633 O 0.54056 0.7445 0.39973 0.0
O634 O 0.5095 0.74065 0.40934 0.0
C635 C 0.47764 0.75281 0.38659 0.0
N636 N 0.47563 0.73327 0.38552 0.0
C637 C 0.44419 0.72983 0.3687 0.0
C638 C 0.44589 0.74993 0.36966 0.0
C639 C 0.46272 0.76146 0.3786 0.0
C640 C 0.45952 0.72204 0.37693 0.0
H641 H 0.49053 0.76173 0.39347 0.0
C642 C 0.52713 0.74969 0.41017 0.0
O643 O 0.56659 0.72662 0.37416 0.0
O644 O 0.54382 0.74088 0.36134 0.0
N645 N 0.47518 0.69613 0.38338 0.0
C646 C 0.47656 0.67695 0.38253 0.0
C647 C 0.46116 0.66341 0.37367 0.0
C648 C 0.44451 0.66973 0.36587 0.0
C649 C 0.44354 0.68954 0.36671 0.0
C650 C 0.45928 0.70236 0.37581 0.0
H651 H 0.48927 0.67203 0.38862 0.0
O652 O 0.52855 0.70153 0.35771 0.0
O653 O 0.50923 0.71812 0.37496 0.0
O654 O 0.53863 0.70253 0.39573 0.0
O655 O 0.50869 0.70064 0.4071 0.0
C656 C 0.42765 0.69708 0.35881 0.0
C657 C 0.42803 0.7172 0.35969 0.0
H658 H 0.43444 0.75665 0.36348 0.0
H659 H 0.46417 0.77697 0.37935 0.0
H660 H 0.46205 0.64813 0.37297 0.0
H661 H 0.43258 0.65922 0.35932 0.0
H662 H 0.41511 0.68755 0.35194 0.0
H663 H 0.41589 0.7228 0.3533 0.0
Mn664 Mn 0.01892 0.76156 0.64227 0.0
Mn665 Mn 0.99802 0.7191 0.65276 0.0
C666 C 0.02063 0.73272 0.62281 0.0
C667 C 0.01827 0.78942 0.62884 0.0
C668 C 0.03725 0.74015 0.66999 0.0
O669 O 1.00013 0.77024 0.66192 0.0
O670 O 0.98626 0.74086 0.66612 0.0
C671 C 0.9573 0.71889 0.63708 0.0
N672 N 0.97393 0.71007 0.63848 0.0
C673 C 0.95864 0.68139 0.61918 0.0
C674 C 0.9413 0.69012 0.61756 0.0
C675 C 0.94067 0.70899 0.62648 0.0
C676 C 0.97478 0.69202 0.6298 0.0
H677 H 0.95673 0.73333 0.64402 0.0
C678 C 0.98774 0.75928 0.66938 0.0
O679 O 0.03102 0.78862 0.64189 0.0
O680 O 0.00513 0.77437 0.62419 0.0
N681 N 0.00775 0.69651 0.64092 0.0
C682 C 0.02584 0.69047 0.64339 0.0
C683 C 0.02881 0.6717 0.63583 0.0
C684 C 0.01315 0.65937 0.62586 0.0
C685 C 0.99485 0.66608 0.62308 0.0
C686 C 0.99262 0.68475 0.63131 0.0
H687 H 0.03777 0.69972 0.65143 0.0
O688 O 0.03325 0.74789 0.62241 0.0
O689 O 0.00721 0.7348 0.63455 0.0
O690 O 0.03802 0.75412 0.66108 0.0
O691 O 0.02277 0.72663 0.66815 0.0
C692 C 0.97866 0.6549 0.61266 0.0
C693 C 0.96063 0.66263 0.61056 0.0
H694 H 0.92843 0.68252 0.60944 0.0
H695 H 0.92736 0.71584 0.62526 0.0
H696 H 0.043 0.66663 0.63798 0.0
H697 H 0.01524 0.64469 0.6206 0.0
H698 H 0.97998 0.64042 0.60606 0.0
H699 H 0.94838 0.65401 0.6023 0.0
Mn700 Mn 0.52393 0.26196 0.14581 0.0
Mn701 Mn 0.50132 0.22025 0.15645 0.0
C702 C 0.52503 0.23283 0.12664 0.0
C703 C 0.52409 0.28969 0.13206 0.0
C704 C 0.54075 0.24045 0.17419 0.0
O705 O 0.50518 0.27142 0.16518 0.0
O706 O 0.4898 0.24251 0.16919 0.0
C707 C 0.4612 0.22079 0.13976 0.0
N708 N 0.47746 0.21157 0.14173 0.0
C709 C 0.46194 0.18294 0.12249 0.0
C710 C 0.44497 0.19208 0.12032 0.0
C711 C 0.44464 0.21112 0.12893 0.0
C712 C 0.47802 0.19334 0.13336 0.0
H713 H 0.46089 0.23539 0.14642 0.0
C714 C 0.49202 0.26097 0.17233 0.0
O715 O 0.53672 0.28879 0.14518 0.0
O716 O 0.51072 0.27482 0.12749 0.0
N717 N 0.51071 0.19725 0.14513 0.0
C718 C 0.52857 0.19088 0.14795 0.0
C719 C 0.53126 0.17197 0.14061 0.0
C720 C 0.51556 0.15982 0.13051 0.0
C721 C 0.49752 0.16686 0.12736 0.0
C722 C 0.49557 0.18568 0.13535 0.0
H723 H 0.54052 0.20002 0.15607 0.0
O724 O 0.5381 0.24766 0.12622 0.0
O725 O 0.51154 0.23544 0.13824 0.0
O726 O 0.54241 0.25416 0.16495 0.0
O727 O 0.52576 0.22745 0.17236 0.0
C728 C 0.48136 0.1559 0.11672 0.0
C729 C 0.46365 0.164 0.11415 0.0
H730 H 0.43216 0.18466 0.112 0.0
H731 H 0.43163 0.2183 0.12726 0.0
H732 H 0.54526 0.16665 0.14302 0.0
H733 H 0.51743 0.14504 0.12542 0.0
H734 H 0.48249 0.14131 0.1103 0.0
H735 H 0.45143 0.15556 0.10571 0.0
H736 H 0.25072 0.74617 0.83022 0.0
H737 H 0.24682 0.76876 0.85711 0.0
H738 H 0.25404 0.72468 0.88969 0.0
H739 H 0.25621 0.70137 0.86263 0.0
H740 H 0.22871 0.74552 0.90418 0.0
H741 H 0.29317 0.76021 0.88297 0.0
H742 H 0.31793 0.76806 0.86135 0.0
H743 H 0.29271 0.81997 0.85604 0.0
H744 H 0.2676 0.81226 0.87741 0.0
H745 H 0.2831 0.83652 0.96912 0.0
H746 H 0.28213 0.81088 0.94344 0.0
H747 H 0.21799 0.80491 0.94067 0.0
H748 H 0.21914 0.8299 0.96736 0.0
H749 H 0.27217 0.80794 0.91176 0.0
H750 H 0.19797 0.7606 0.91959 0.0
H751 H 0.17763 0.75087 0.94381 0.0
H752 H 0.22933 0.76137 0.98033 0.0
H753 H 0.25 0.77093 0.95628 0.0
C754 C 0.25095 0.74098 0.84299 0.0
C755 C 0.25388 0.72178 0.84408 0.0
C756 C 0.24903 0.75411 0.85847 0.0
C757 C 0.25061 0.74864 0.87555 0.0
C758 C 0.2529 0.72936 0.87672 0.0
C759 C 0.25442 0.71608 0.86118 0.0
C760 C 0.25073 0.7632 0.89214 0.0
C761 C 0.23812 0.75924 0.90579 0.0
C762 C 0.26337 0.78094 0.89459 0.0
C763 C 0.27838 0.78554 0.88164 0.0
C764 C 0.2928 0.77321 0.87707 0.0
C765 C 0.30691 0.77765 0.86488 0.0
C766 C 0.30686 0.79448 0.85728 0.0
C767 C 0.29271 0.80692 0.8619 0.0
C768 C 0.27854 0.80252 0.87405 0.0
C769 C 0.2688 0.82965 0.96304 0.0
C770 C 0.25119 0.83533 0.96995 0.0
C771 C 0.26822 0.81499 0.94832 0.0
C772 C 0.24999 0.80574 0.93999 0.0
C773 C 0.23228 0.81143 0.94699 0.0
C774 C 0.2329 0.82583 0.96211 0.0
C775 C 0.2498 0.79064 0.92375 0.0
C776 C 0.26247 0.79443 0.91012 0.0
C777 C 0.23775 0.77255 0.92167 0.0
C778 C 0.22547 0.76668 0.93618 0.0
C779 C 0.20499 0.76077 0.93277 0.0
C780 C 0.19341 0.7553 0.94648 0.0
C781 C 0.20217 0.75557 0.96361 0.0
C782 C 0.22255 0.76124 0.96707 0.0
C783 C 0.23419 0.76671 0.95342 0.0
H784 H 0.19318 0.75134 0.9742 0.0
H785 H 0.3178 0.7979 0.84786 0.0
H786 H 0.99992 0.50514 0.38507 0.0
H787 H 0.02714 0.50065 0.36521 0.0
H788 H 0.05809 0.55556 0.39042 0.0
H789 H 0.0308 0.56003 0.41048 0.0
H790 H 0.05259 0.55207 0.35323 0.0
H791 H 0.07689 0.51513 0.39584 0.0
H792 H 0.07456 0.48978 0.41503 0.0
H793 H 0.0603 0.44635 0.36846 0.0
H794 H 0.06225 0.47147 0.34899 0.0
H795 H 0.13545 0.55073 0.30256 0.0
H796 H 0.11478 0.55067 0.32807 0.0
H797 H 0.08867 0.49253 0.30707 0.0
H798 H 0.11029 0.4922 0.28166 0.0
H799 H 0.09208 0.4971 0.34276 0.0
H800 H 0.06528 0.53229 0.30034 0.0
H801 H 0.06568 0.55655 0.28005 0.0
H802 H 0.08172 0.60189 0.32482 0.0
H803 H 0.0817 0.57787 0.34535 0.0
C804 C 0.01277 0.51604 0.38665 0.0
C805 C 0.0133 0.53294 0.3993 0.0
C806 C 0.02833 0.51343 0.37532 0.0
C807 C 0.04469 0.52774 0.37632 0.0
C808 C 0.04563 0.54431 0.38945 0.0
C809 C 0.03013 0.54681 0.40097 0.0
C810 C 0.05968 0.52623 0.36249 0.0
C811 C 0.06152 0.54026 0.35118 0.0
C812 C 0.07066 0.51035 0.35929 0.0
C813 C 0.06955 0.49521 0.37097 0.0
C814 C 0.07309 0.50019 0.38969 0.0
C815 C 0.07187 0.48586 0.40062 0.0
C816 C 0.06724 0.46647 0.39297 0.0
C817 C 0.06387 0.46138 0.37437 0.0
C818 C 0.06505 0.47565 0.36338 0.0
C819 C 0.12551 0.5378 0.30342 0.0
C820 C 0.12437 0.52153 0.28994 0.0
C821 C 0.11359 0.53783 0.31802 0.0
C822 C 0.09969 0.52183 0.31929 0.0
C823 C 0.09915 0.50514 0.30634 0.0
C824 C 0.11149 0.50495 0.29181 0.0
C825 C 0.08518 0.52311 0.33363 0.0
C826 C 0.08328 0.509 0.34491 0.0
C827 C 0.0738 0.53875 0.33665 0.0
C828 C 0.07366 0.55326 0.32436 0.0
C829 C 0.06902 0.54743 0.30584 0.0
C830 C 0.06916 0.56113 0.2943 0.0
C831 C 0.07377 0.58075 0.30114 0.0
C832 C 0.07818 0.58669 0.31954 0.0
C833 C 0.07809 0.57304 0.33114 0.0
H834 H 0.07388 0.59134 0.29218 0.0
H835 H 0.06631 0.4554 0.40145 0.0
H836 H 0.83909 0.75419 0.83285 0.0
H837 H 0.83542 0.7315 0.8544 0.0
H838 H 0.84676 0.7789 0.89829 0.0
H839 H 0.85056 0.80164 0.87683 0.0
H840 H 0.86631 0.74736 0.904 0.0
H841 H 0.80047 0.75979 0.88696 0.0
H842 H 0.77262 0.76166 0.86555 0.0
H843 H 0.77041 0.7012 0.84552 0.0
H844 H 0.79845 0.69902 0.86666 0.0
H845 H 0.82627 0.69933 0.97454 0.0
H846 H 0.83688 0.72086 0.95313 0.0
H847 H 0.81489 0.67589 0.90907 0.0
H848 H 0.80367 0.65485 0.93043 0.0
H849 H 0.80166 0.70646 0.90324 0.0
H850 H 0.86666 0.69307 0.92022 0.0
H851 H 0.89496 0.69065 0.94093 0.0
H852 H 0.89966 0.75147 0.9602 0.0
H853 H 0.8712 0.75422 0.93977 0.0
C854 C 0.841 0.75977 0.84709 0.0
C855 C 0.84494 0.77976 0.8531 0.0
C856 C 0.83882 0.74678 0.8594 0.0
C857 C 0.84065 0.75348 0.878 0.0
C858 C 0.84524 0.77337 0.88403 0.0
C859 C 0.84723 0.78637 0.87174 0.0
C860 C 0.83696 0.73987 0.89115 0.0
C861 C 0.85213 0.73852 0.90397 0.0
C862 C 0.81861 0.72803 0.89091 0.0
C863 C 0.80169 0.72929 0.87826 0.0
C864 C 0.79415 0.74693 0.87789 0.0
C865 C 0.77831 0.74804 0.86582 0.0
C866 C 0.76978 0.73157 0.85415 0.0
C867 C 0.77705 0.71395 0.85455 0.0
C868 C 0.7929 0.71276 0.86658 0.0
C869 C 0.82423 0.69395 0.96027 0.0
C870 C 0.81429 0.67539 0.95412 0.0
C871 C 0.83027 0.70626 0.948 0.0
C872 C 0.82679 0.70009 0.92934 0.0
C873 C 0.81768 0.68116 0.92331 0.0
C874 C 0.81137 0.66904 0.93554 0.0
C875 C 0.83112 0.71362 0.91611 0.0
C876 C 0.81597 0.7151 0.90328 0.0
C877 C 0.84956 0.72541 0.91628 0.0
C878 C 0.86667 0.72381 0.92858 0.0
C879 C 0.87362 0.7059 0.92898 0.0
C880 C 0.88971 0.70448 0.94065 0.0
C881 C 0.89906 0.72089 0.95191 0.0
C882 C 0.89238 0.73877 0.95149 0.0
C883 C 0.87628 0.74027 0.93985 0.0
H884 H 0.91152 0.71975 0.96094 0.0
H885 H 0.75752 0.73246 0.84481 0.0
H886 H 0.04729 0.01405 0.45381 0.0
H887 H 0.03 0.02258 0.42742 0.0
H888 H 0.03544 0.96652 0.39766 0.0
H889 H 0.05255 0.95791 0.4239 0.0
H890 H 0.04751 0.99774 0.37928 0.0
H891 H 0.99232 0.97498 0.41279 0.0
H892 H 0.97252 0.97558 0.43949 0.0
H893 H 0.96345 0.03422 0.43698 0.0
H894 H 0.98344 0.03404 0.41039 0.0
H895 H 0.9823 0.9769 0.30411 0.0
H896 H 1.00113 0.9793 0.33242 0.0
H897 H 0.97883 0.03282 0.35179 0.0
H898 H 0.95912 0.03024 0.32318 0.0
H899 H 0.97713 0.01006 0.37707 0.0
H900 H 0.02802 0.03219 0.34164 0.0
H901 H 0.04811 0.03281 0.31522 0.0
H902 H 0.06651 0.97812 0.3218 0.0
H903 H 0.04629 0.97701 0.3481 0.0
C904 C 0.04469 1.00353 0.44165 0.0
C905 C 0.05117 0.98525 0.44098 0.0
C906 C 0.03479 0.00841 0.42661 0.0
C907 C 0.03141 0.99518 0.41057 0.0
C908 C 0.03788 0.97695 0.40989 0.0
C909 C 0.04751 0.97199 0.42495 0.0
C910 C 0.02146 1.00023 0.39428 0.0
C911 C 0.0321 1.00035 0.37875 0.0
C912 C 1.00162 0.0045 0.39381 0.0
C913 C 0.98958 0.00457 0.40975 0.0
C914 C 0.98627 0.98806 0.41804 0.0
C915 C 0.97497 0.98831 0.43312 0.0
C916 C 0.96679 0.00495 0.43996 0.0
C917 C 0.96983 0.02136 0.43169 0.0
C918 C 0.98113 0.02118 0.41661 0.0
C919 C 0.98141 0.98937 0.31422 0.0
C920 C 0.9691 1.00341 0.31123 0.0
C921 C 0.9924 0.99076 0.33048 0.0
C922 C 0.99173 0.00638 0.34425 0.0
C923 C 0.9797 0.02066 0.34134 0.0
C924 C 0.96854 0.01924 0.32493 0.0
C925 C 1.00298 0.00691 0.36179 0.0
C926 C 0.99266 0.00785 0.3776 0.0
C927 C 0.02325 0.00388 0.3626 0.0
C928 C 0.03554 0.00448 0.34682 0.0
C929 C 0.03624 0.02023 0.33739 0.0
C930 C 0.04767 0.02068 0.32244 0.0
C931 C 0.05856 0.00551 0.31682 0.0
C932 C 0.05807 0.98987 0.32617 0.0
C933 C 0.04665 0.98934 0.34112 0.0
H934 H 0.0674 0.00588 0.30524 0.0
H935 H 0.95804 0.00512 0.45164 0.0
H936 H 0.25373 0.29878 0.65108 0.0
H937 H 0.2568 0.28101 0.62086 0.0
H938 H 0.2821 0.23668 0.64423 0.0
H939 H 0.27884 0.25422 0.67437 0.0
H940 H 0.30319 0.25029 0.61506 0.0
H941 H 0.23656 0.22743 0.62994 0.0
H942 H 0.20272 0.23184 0.63895 0.0
H943 H 0.19226 0.25871 0.59268 0.0
H944 H 0.22617 0.2547 0.58354 0.0
H945 H 0.29943 0.17161 0.54561 0.0
H946 H 0.29679 0.19375 0.57321 0.0
H947 H 0.25764 0.22454 0.54509 0.0
H948 H 0.25949 0.20173 0.51748 0.0
H949 H 0.24377 0.22121 0.57547 0.0
H950 H 0.30819 0.24282 0.55869 0.0
H951 H 0.34216 0.24036 0.54908 0.0
H952 H 0.35749 0.21913 0.59753 0.0
H953 H 0.32352 0.22121 0.60733 0.0
C954 C 0.25996 0.28526 0.64971 0.0
C955 C 0.26592 0.27779 0.66503 0.0
C956 C 0.26166 0.27512 0.6325 0.0
C957 C 0.26962 0.25752 0.63035 0.0
C958 C 0.27591 0.25024 0.64562 0.0
C959 C 0.27392 0.26019 0.6628 0.0
C960 C 0.27128 0.24649 0.61222 0.0
C961 C 0.29023 0.24378 0.60642 0.0
C962 C 0.25438 0.23866 0.60073 0.0
C963 C 0.23397 0.24097 0.60618 0.0
C964 C 0.22711 0.23444 0.62178 0.0
C965 C 0.2079 0.23683 0.62689 0.0
C966 C 0.19537 0.24561 0.61642 0.0
C967 C 0.202 0.25195 0.60079 0.0
C968 C 0.2212 0.24961 0.59564 0.0
C969 C 0.29038 0.18319 0.54522 0.0
C970 C 0.27978 0.18497 0.52928 0.0
C971 C 0.28896 0.19595 0.56104 0.0
C972 C 0.27736 0.21116 0.56125 0.0
C973 C 0.26676 0.213 0.54532 0.0
C974 C 0.26787 0.19998 0.52952 0.0
C975 C 0.27579 0.22462 0.57825 0.0
C976 C 0.25683 0.22784 0.58391 0.0
C977 C 0.29275 0.23325 0.58948 0.0
C978 C 0.31324 0.23204 0.58368 0.0
C979 C 0.31876 0.23751 0.56724 0.0
C980 C 0.33803 0.2362 0.56177 0.0
C981 C 0.35196 0.22956 0.57267 0.0
C982 C 0.34667 0.22426 0.58909 0.0
C983 C 0.32742 0.22552 0.59463 0.0
H984 H 0.36687 0.22855 0.5684 0.0
H985 H 0.1805 0.24744 0.6204 0.0
H986 H 0.58201 0.51067 0.62022 0.0
H987 H 0.56338 0.50607 0.64661 0.0
H988 H 0.51801 0.53733 0.62797 0.0
H989 H 0.53602 0.54132 0.60118 0.0
H990 H 0.53099 0.54967 0.66458 0.0
H991 H 0.50844 0.49058 0.62418 0.0
H992 H 0.51291 0.4607 0.60401 0.0
H993 H 0.54249 0.44018 0.64737 0.0
H994 H 0.53845 0.4701 0.66774 0.0
H995 H 0.45596 0.52971 0.72423 0.0
H996 H 0.47577 0.53426 0.69859 0.0
H997 H 0.51209 0.49164 0.71177 0.0
H998 H 0.4917 0.48639 0.73693 0.0
H999 H 0.5049 0.48524 0.67811 0.0
H1000 H 0.52805 0.54292 0.71884 0.0
H1001 H 0.52551 0.5729 0.73965 0.0
H1002 H 0.49772 0.59636 0.6972 0.0
H1003 H 0.49986 0.56641 0.67618 0.0
C1004 C 0.5679 0.51627 0.62148 0.0
C1005 C 0.56061 0.5264 0.60842 0.0
C1006 C 0.55732 0.51375 0.6367 0.0
C1007 C 0.5393 0.52138 0.6393 0.0
C1008 C 0.53195 0.53144 0.62633 0.0
C1009 C 0.54236 0.53377 0.61102 0.0
C1010 C 0.52814 0.51905 0.65558 0.0
C1011 C 0.52508 0.5356 0.66747 0.0
C1012 C 0.52097 0.50068 0.65964 0.0
C1013 C 0.52333 0.48267 0.64743 0.0
C1014 C 0.51605 0.47977 0.62937 0.0
C1015 C 0.51848 0.46282 0.61791 0.0
C1016 C 0.52803 0.44857 0.62439 0.0
C1017 C 0.53512 0.45124 0.64236 0.0
C1018 C 0.53276 0.46819 0.65387 0.0
C1019 C 0.46831 0.52146 0.72181 0.0
C1020 C 0.47227 0.50774 0.73273 0.0
C1021 C 0.47973 0.52413 0.70713 0.0
C1022 C 0.49573 0.51352 0.70325 0.0
C1023 C 0.49986 0.50002 0.71435 0.0
C1024 C 0.48823 0.49709 0.72882 0.0
C1025 C 0.50764 0.51591 0.6873 0.0
C1026 C 0.51086 0.49936 0.67539 0.0
C1027 C 0.51524 0.5343 0.68338 0.0
C1028 C 0.51395 0.55234 0.69598 0.0
C1029 C 0.52126 0.55441 0.71397 0.0
C1030 C 0.51992 0.57141 0.7258 0.0
C1031 C 0.51142 0.5865 0.71976 0.0
C1032 C 0.50428 0.58465 0.70186 0.0
C1033 C 0.50558 0.56767 0.68998 0.0
H1034 H 0.51039 0.59965 0.72894 0.0
H1035 H 0.52989 0.43545 0.6155 0.0
H1036 H 0.81204 0.23659 0.65184 0.0
H1037 H 0.80931 0.25078 0.62418 0.0
H1038 H 0.82558 0.30756 0.65468 0.0
H1039 H 0.82929 0.29364 0.68207 0.0
H1040 H 0.78498 0.29661 0.63121 0.0
H1041 H 0.8573 0.29796 0.63232 0.0
H1042 H 0.88785 0.28226 0.63212 0.0
H1043 H 0.86706 0.24641 0.58214 0.0
H1044 H 0.83623 0.26172 0.58219 0.0
H1045 H 0.78614 0.36443 0.5737 0.0
H1046 H 0.79543 0.34611 0.59696 0.0
H1047 H 0.80599 0.29914 0.55619 0.0
H1048 H 0.79766 0.31799 0.53279 0.0
H1049 H 0.83173 0.30091 0.58275 0.0
H1050 H 0.76162 0.29907 0.57896 0.0
H1051 H 0.72936 0.31173 0.57787 0.0
H1052 H 0.74271 0.34386 0.63091 0.0
H1053 H 0.77518 0.33161 0.63222 0.0
C1054 C 0.81556 0.25205 0.65259 0.0
C1055 C 0.82056 0.26397 0.66929 0.0
C1056 C 0.81389 0.26012 0.63679 0.0
C1057 C 0.81712 0.28021 0.63746 0.0
C1058 C 0.82292 0.29203 0.65391 0.0
C1059 C 0.82487 0.28401 0.66959 0.0
C1060 C 0.81282 0.28925 0.62148 0.0
C1061 C 0.79523 0.2977 0.62065 0.0
C1062 C 0.82584 0.28993 0.60741 0.0
C1063 C 0.84436 0.28079 0.60739 0.0
C1064 C 0.85914 0.28657 0.6214 0.0
C1065 C 0.87653 0.27778 0.62129 0.0
C1066 C 0.87936 0.26329 0.60716 0.0
C1067 C 0.86483 0.2576 0.59309 0.0
C1068 C 0.8474 0.26633 0.59316 0.0
C1069 C 0.79068 0.35029 0.56969 0.0
C1070 C 0.79103 0.34258 0.55144 0.0
C1071 C 0.79586 0.33974 0.583 0.0
C1072 C 0.80084 0.32093 0.5784 0.0
C1073 C 0.80206 0.31353 0.56014 0.0
C1074 C 0.79731 0.32431 0.54677 0.0
C1075 C 0.80405 0.30894 0.59268 0.0
C1076 C 0.82133 0.29979 0.59318 0.0
C1077 C 0.79047 0.30718 0.60631 0.0
C1078 C 0.7709 0.31453 0.60563 0.0
C1079 C 0.75773 0.30893 0.59035 0.0
C1080 C 0.7394 0.31602 0.58969 0.0
C1081 C 0.73401 0.32862 0.60429 0.0
C1082 C 0.74692 0.33412 0.6196 0.0
C1083 C 0.76527 0.32708 0.62032 0.0
H1084 H 0.71982 0.3341 0.60376 0.0
H1085 H 0.89284 0.25652 0.60709 0.0
H1086 H 0.54881 0.99341 0.56051 0.0
H1087 H 0.56559 0.99384 0.58976 0.0
H1088 H 0.51075 1.00041 0.61529 0.0
H1089 H 0.49331 0.99866 0.58591 0.0
H1090 H 0.55194 0.02861 0.62837 0.0
H1091 H 0.51877 0.96228 0.61703 0.0
H1092 H 0.51041 0.93045 0.59808 0.0
H1093 H 0.57237 0.92412 0.5956 0.0
H1094 H 0.5811 0.95608 0.61432 0.0
H1095 H 0.58728 0.02422 0.71589 0.0
H1096 H 0.5658 0.01917 0.68839 0.0
H1097 H 0.60613 0.98322 0.66144 0.0
H1098 H 0.62708 0.98739 0.68935 0.0
H1099 H 0.57117 0.96948 0.64874 0.0
H1100 H 0.60619 0.03283 0.6581 0.0
H1101 H 0.61832 0.06519 0.67471 0.0
H1102 H 0.5584 0.07857 0.6778 0.0
H1103 H 0.54588 0.04613 0.66148 0.0
C1104 C 0.54006 0.99449 0.5722 0.0
C1105 C 0.51949 0.99575 0.5706 0.0
C1106 C 0.54981 0.99495 0.58898 0.0
C1107 C 0.5394 0.99708 0.60464 0.0
C1108 C 0.51904 0.99876 0.60331 0.0
C1109 C 0.50913 0.9979 0.58646 0.0
C1110 C 0.54998 0.99772 0.62237 0.0
C1111 C 0.55584 0.01569 0.63305 0.0
C1112 C 0.55584 0.98092 0.62798 0.0
C1113 C 0.55058 0.96165 0.6169 0.0
C1114 C 0.53061 0.95419 0.61229 0.0
C1115 C 0.5258 0.9361 0.60163 0.0
C1116 C 0.54085 0.92529 0.5956 0.0
C1117 C 0.56073 0.93252 0.60026 0.0
C1118 C 0.56561 0.95061 0.61091 0.0
C1119 C 0.59138 0.01497 0.70417 0.0
C1120 C 0.6089 0.00626 0.70474 0.0
C1121 C 0.57917 0.01221 0.68838 0.0
C1122 C 0.58458 1.00128 0.67257 0.0
C1123 C 0.60162 0.99182 0.67336 0.0
C1124 C 0.61359 0.99418 0.68934 0.0
C1125 C 0.57296 1.00045 0.65513 0.0
C1126 C 0.56711 0.98247 0.64432 0.0
C1127 C 0.56761 0.01735 0.64912 0.0
C1128 C 0.57509 0.03697 0.65872 0.0
C1129 C 0.59559 0.04263 0.66241 0.0
C1130 C 0.60254 0.06098 0.67178 0.0
C1131 C 0.58913 0.07391 0.67734 0.0
C1132 C 0.56876 0.06853 0.6735 0.0
C1133 C 0.56173 0.05015 0.6642 0.0
H1134 H 0.59453 0.08812 0.68459 0.0
H1135 H 0.53709 0.91129 0.58734 0.0
H1136 H 0.87877 0.16627 0.72319 0.0
H1137 H 0.9076 0.16586 0.74361 0.0
H1138 H 0.90357 0.22466 0.76717 0.0
H1139 H 0.87427 0.225 0.74752 0.0
H1140 H 0.94287 0.21679 0.75905 0.0
H1141 H 0.88608 0.1911 0.78879 0.0
H1142 H 0.85616 0.16834 0.7909 0.0
H1143 H 0.89066 0.12093 0.7833 0.0
H1144 H 0.92076 0.14342 0.78087 0.0
H1145 H 0.99485 0.23592 0.84235 0.0
H1146 H 0.97041 0.23044 0.81702 0.0
H1147 H 0.97677 0.16973 0.80875 0.0
H1148 H 1.00101 0.17525 0.83486 0.0
H1149 H 0.93871 0.1744 0.80583 0.0
H1150 H 0.9963 0.19994 0.77986 0.0
H1151 H 0.02653 0.22227 0.77771 0.0
H1152 H 0.99156 0.26899 0.77729 0.0
H1153 H 0.96113 0.24701 0.77971 0.0
C1154 C 0.8839 0.17911 0.73277 0.0
C1155 C 0.87403 0.19566 0.73364 0.0
C1156 C 0.90047 0.17886 0.74437 0.0
C1157 C 0.90766 0.1952 0.75694 0.0
C1158 C 0.8983 0.21192 0.75749 0.0
C1159 C 0.8816 0.21211 0.7461 0.0
C1160 C 0.92462 0.19488 0.7699 0.0
C1161 C 0.94196 0.20761 0.76935 0.0
C1162 C 0.92366 0.18239 0.78291 0.0
C1163 C 0.9056 0.1689 0.7844 0.0
C1164 C 0.88725 0.1758 0.78739 0.0
C1165 C 0.87026 0.16296 0.78868 0.0
C1166 C 0.87149 0.14319 0.78717 0.0
C1167 C 0.88972 0.13624 0.78442 0.0
C1168 C 0.90675 0.14903 0.78309 0.0
C1169 C 0.99092 0.22137 0.83521 0.0
C1170 C 0.99932 0.20591 0.84079 0.0
C1171 C 0.97716 0.21828 0.82055 0.0
C1172 C 0.9719 0.19971 0.81075 0.0
C1173 C 0.98061 0.1842 0.81609 0.0
C1174 C 0.99444 0.18733 0.83092 0.0
C1175 C 0.95685 0.19675 0.79535 0.0
C1176 C 0.93984 0.18338 0.79539 0.0
C1177 C 0.95819 0.20855 0.78174 0.0
C1178 C 0.97643 0.22182 0.78006 0.0
C1179 C 0.99506 0.215 0.77941 0.0
C1180 C 0.01224 0.2276 0.77814 0.0
C1181 C 0.01097 0.24704 0.77739 0.0
C1182 C 0.99252 0.25392 0.77787 0.0
C1183 C 0.97529 0.24139 0.77916 0.0
H1184 H 0.02429 0.25677 0.77642 0.0
H1185 H 0.85833 0.13327 0.78817 0.0
H1186 H 0.51438 0.92309 0.45306 0.0
H1187 H 0.51638 0.88865 0.44521 0.0
H1188 H 0.53931 0.88708 0.49905 0.0
H1189 H 0.53764 0.92191 0.50698 0.0
H1190 H 0.56021 0.86692 0.47311 0.0
H1191 H 0.49282 0.86872 0.48758 0.0
H1192 H 0.45964 0.87953 0.48674 0.0
H1193 H 0.45207 0.85889 0.43004 0.0
H1194 H 0.48534 0.8482 0.43048 0.0
H1195 H 0.50785 0.76034 0.44036 0.0
H1196 H 0.50997 0.79235 0.45827 0.0
H1197 H 0.55657 0.81312 0.4263 0.0
H1198 H 0.55483 0.78089 0.40853 0.0
H1199 H 0.50065 0.82265 0.44658 0.0
H1200 H 0.58421 0.85336 0.44947 0.0
H1201 H 0.61695 0.84191 0.45225 0.0
H1202 H 0.59137 0.79582 0.47839 0.0
H1203 H 0.55854 0.80715 0.476 0.0
C1204 C 0.51993 0.91547 0.46324 0.0
C1205 C 0.52594 0.92525 0.48063 0.0
C1206 C 0.52095 0.89574 0.45876 0.0
C1207 C 0.5279 0.88526 0.47156 0.0
C1208 C 0.5339 0.89491 0.48897 0.0
C1209 C 0.53279 0.91474 0.49352 0.0
C1210 C 0.52877 0.86423 0.4665 0.0
C1211 C 0.5472 0.85717 0.46741 0.0
C1212 C 0.51171 0.85145 0.45938 0.0
C1213 C 0.49164 0.85778 0.45905 0.0
C1214 C 0.48414 0.86661 0.4749 0.0
C1215 C 0.46531 0.8727 0.47451 0.0
C1216 C 0.45377 0.86993 0.45834 0.0
C1217 C 0.46103 0.86103 0.44255 0.0
C1218 C 0.47986 0.85493 0.44287 0.0
C1219 C 0.51887 0.7716 0.43736 0.0
C1220 C 0.5311 0.76807 0.42293 0.0
C1221 C 0.52002 0.78994 0.44761 0.0
C1222 C 0.53336 0.80523 0.44364 0.0
C1223 C 0.54632 0.80153 0.42981 0.0
C1224 C 0.54531 0.78308 0.41963 0.0
C1225 C 0.53223 0.82528 0.45273 0.0
C1226 C 0.5137 0.83224 0.45248 0.0
C1227 C 0.54914 0.83781 0.46071 0.0
C1228 C 0.56888 0.83102 0.46241 0.0
C1229 C 0.58559 0.84084 0.45589 0.0
C1230 C 0.60416 0.83436 0.45738 0.0
C1231 C 0.60623 0.81812 0.46544 0.0
C1232 C 0.58973 0.80836 0.47209 0.0
C1233 C 0.57114 0.81479 0.47064 0.0
H1234 H 0.62061 0.81312 0.46658 0.0
H1235 H 0.43919 0.87465 0.45806 0.0
H1236 H 0.22889 0.273 0.78983 0.0
H1237 H 0.20082 0.27372 0.80902 0.0
H1238 H 0.16211 0.27919 0.76384 0.0
H1239 H 0.19034 0.27852 0.74447 0.0
H1240 H 0.15247 0.30037 0.79752 0.0
H1241 H 0.16428 0.23633 0.77223 0.0
H1242 H 0.18499 0.21016 0.76483 0.0
H1243 H 0.1991 0.21097 0.82096 0.0
H1244 H 0.17874 0.2374 0.82869 0.0
H1245 H 0.06318 0.25999 0.83331 0.0
H1246 H 0.09055 0.26965 0.81518 0.0
H1247 H 0.1324 0.25493 0.85386 0.0
H1248 H 0.10508 0.2447 0.87167 0.0
H1249 H 0.1396 0.23912 0.82204 0.0
H1250 H 0.1276 0.30297 0.84767 0.0
H1251 H 0.1075 0.32961 0.85521 0.0
H1252 H 0.09375 0.32948 0.79913 0.0
H1253 H 0.11357 0.30265 0.79125 0.0
C1254 C 0.21448 0.27475 0.78405 0.0
C1255 C 0.21173 0.27543 0.7656 0.0
C1256 C 0.19846 0.27519 0.79504 0.0
C1257 C 0.17932 0.27616 0.78779 0.0
C1258 C 0.17677 0.2784 0.76968 0.0
C1259 C 0.19289 0.27803 0.75864 0.0
C1260 C 0.1619 0.27255 0.79865 0.0
C1261 C 0.14946 0.28692 0.80274 0.0
C1262 C 0.15816 0.25509 0.80563 0.0
C1263 C 0.17013 0.23896 0.80103 0.0
C1264 C 0.17191 0.23102 0.78299 0.0
C1265 C 0.18358 0.21613 0.77874 0.0
C1266 C 0.19339 0.20893 0.79242 0.0
C1267 C 0.19151 0.21657 0.81038 0.0
C1268 C 0.1799 0.2315 0.81471 0.0
C1269 C 0.07825 0.25913 0.83809 0.0
C1270 C 0.08196 0.25152 0.85389 0.0
C1271 C 0.09392 0.26472 0.82773 0.0
C1272 C 0.11363 0.26312 0.83314 0.0
C1273 C 0.11735 0.25624 0.84932 0.0
C1274 C 0.10171 0.25044 0.85954 0.0
C1275 C 0.13025 0.26712 0.8214 0.0
C1276 C 0.14253 0.25266 0.81695 0.0
C1277 C 0.13378 0.28451 0.81417 0.0
C1278 C 0.12191 0.30067 0.81888 0.0
C1279 C 0.12017 0.30852 0.83695 0.0
C1280 C 0.10885 0.32367 0.84128 0.0
C1281 C 0.09931 0.33119 0.82766 0.0
C1282 C 0.10113 0.32362 0.80967 0.0
C1283 C 0.11242 0.30845 0.80526 0.0
H1284 H 0.09055 0.34292 0.83105 0.0
H1285 H 0.20242 0.19741 0.78909 0.0
H1286 H 0.54801 0.58811 0.52745 0.0
H1287 H 0.53835 0.60199 0.501 0.0
H1288 H 0.5996 0.62431 0.49659 0.0
H1289 H 0.60902 0.61111 0.5234 0.0
H1290 H 0.57859 0.65159 0.49522 0.0
H1291 H 0.57231 0.58637 0.46501 0.0
H1292 H 0.56075 0.55147 0.45989 0.0
H1293 H 0.50024 0.5631 0.45592 0.0
H1294 H 0.51143 0.59808 0.46126 0.0
H1295 H 0.56371 0.68726 0.4135 0.0
H1296 H 0.57382 0.66647 0.43445 0.0
H1297 H 0.51272 0.65251 0.44612 0.0
H1298 H 0.50243 0.67325 0.42523 0.0
H1299 H 0.53385 0.62031 0.44266 0.0
H1300 H 0.54088 0.68564 0.47427 0.0
H1301 H 0.55295 0.72042 0.47876 0.0
H1302 H 0.61326 0.70784 0.47937 0.0
H1303 H 0.60153 0.67295 0.47462 0.0
C1304 C 0.55941 0.59555 0.5205 0.0
C1305 C 0.57925 0.59851 0.52739 0.0
C1306 C 0.55391 0.60349 0.50537 0.0
C1307 C 0.56823 0.61422 0.49665 0.0
C1308 C 0.58822 0.61624 0.50306 0.0
C1309 C 0.59364 0.60858 0.5183 0.0
C1310 C 0.56232 0.62477 0.48195 0.0
C1311 C 0.56912 0.64457 0.48358 0.0
C1312 C 0.54949 0.61589 0.46692 0.0
C1313 C 0.54271 0.59486 0.46371 0.0
C1314 C 0.55653 0.58149 0.46319 0.0
C1315 C 0.55005 0.56169 0.46022 0.0
C1316 C 0.52977 0.55507 0.45763 0.0
C1317 C 0.51594 0.56824 0.45795 0.0
C1318 C 0.52235 0.58806 0.46093 0.0
C1319 C 0.55237 0.67964 0.42038 0.0
C1320 C 0.53226 0.68211 0.41776 0.0
C1321 C 0.55819 0.66778 0.43238 0.0
C1322 C 0.54404 0.65806 0.44198 0.0
C1323 C 0.5239 0.65987 0.43888 0.0
C1324 C 0.51807 0.67185 0.42699 0.0
C1325 C 0.55034 0.6469 0.45597 0.0
C1326 C 0.5435 0.62713 0.45425 0.0
C1327 C 0.56326 0.65571 0.47088 0.0
C1328 C 0.57033 0.67669 0.4739 0.0
C1329 C 0.55672 0.69029 0.47522 0.0
C1330 C 0.56349 0.71002 0.47783 0.0
C1331 C 0.58386 0.71634 0.4793 0.0
C1332 C 0.59749 0.70293 0.4782 0.0
C1333 C 0.59079 0.68317 0.47556 0.0
H1334 H 0.58908 0.73162 0.48132 0.0
H1335 H 0.52478 0.53974 0.45533 0.0
H1336 H 0.86319 0.7711 0.78969 0.0
H1337 H 0.88598 0.76695 0.76555 0.0
H1338 H 0.90772 0.82763 0.77681 0.0
H1339 H 0.88498 0.83189 0.80101 0.0
H1340 H 0.90368 0.81577 0.74116 0.0
H1341 H 0.93472 0.79469 0.79112 0.0
H1342 H 0.93718 0.77649 0.81634 0.0
H1343 H 0.92595 0.72311 0.77968 0.0
H1344 H 0.92313 0.74099 0.75425 0.0
H1345 H 0.98918 0.79688 0.68743 0.0
H1346 H 0.96832 0.80836 0.71183 0.0
H1347 H 0.93543 0.75157 0.70621 0.0
H1348 H 0.95566 0.74016 0.68216 0.0
H1349 H 0.94872 0.76543 0.74109 0.0
H1350 H 0.91523 0.78747 0.69144 0.0
H1351 H 0.9133 0.80627 0.6666 0.0
H1352 H 0.93072 0.85879 0.70339 0.0
H1353 H 0.93301 0.84025 0.72843 0.0
C1354 C 0.87285 0.78356 0.78709 0.0
C1355 C 0.87225 0.80181 0.79738 0.0
C1356 C 0.88589 0.78118 0.77324 0.0
C1357 C 0.89882 0.79693 0.76947 0.0
C1358 C 0.89792 0.81525 0.77942 0.0
C1359 C 0.88483 0.81766 0.79324 0.0
C1360 C 0.91355 0.7941 0.75545 0.0
C1361 C 0.91375 0.80497 0.7413 0.0
C1362 C 0.92675 0.78003 0.75555 0.0
C1363 C 0.92855 0.76919 0.77079 0.0
C1364 C 0.93264 0.77907 0.78844 0.0
C1365 C 0.93412 0.76881 0.80278 0.0
C1366 C 0.93169 0.74865 0.79962 0.0
C1367 C 0.92782 0.73872 0.78211 0.0
C1368 C 0.92629 0.74891 0.76772 0.0
C1369 C 0.97734 0.78695 0.69127 0.0
C1370 C 0.97435 0.76753 0.6829 0.0
C1371 C 0.96545 0.79351 0.70523 0.0
C1372 C 0.95041 0.78075 0.71098 0.0
C1373 C 0.94705 0.76163 0.7022 0.0
C1374 C 0.95874 0.75514 0.68836 0.0
C1375 C 0.93841 0.78664 0.72652 0.0
C1376 C 0.9388 0.77638 0.74104 0.0
C1377 C 0.92592 0.80134 0.72679 0.0
C1378 C 0.92454 0.81246 0.71176 0.0
C1379 C 0.91883 0.80301 0.6942 0.0
C1380 C 0.91763 0.81362 0.68009 0.0
C1381 C 0.92196 0.83371 0.6834 0.0
C1382 C 0.92743 0.84323 0.70084 0.0
C1383 C 0.92867 0.83268 0.715 0.0
H1384 H 0.92101 0.8419 0.67246 0.0
H1385 H 0.93284 0.74074 0.81073 0.0
H1386 H 0.02472 0.88793 0.50195 0.0
H1387 H 0.01704 0.87229 0.52796 0.0
H1388 H 0.07026 0.9033 0.55669 0.0
H1389 H 0.07806 0.919 0.5304 0.0
H1390 H 0.06798 0.86513 0.55786 0.0
H1391 H 0.02446 0.91274 0.57013 0.0
H1392 H 0.99844 0.93271 0.56373 0.0
H1393 H 0.95604 0.88189 0.55039 0.0
H1394 H 0.98186 0.86157 0.55645 0.0
H1395 H 0.04588 0.82153 0.63454 0.0
H1396 H 0.05151 0.84652 0.61556 0.0
H1397 H 1.00093 0.81946 0.58059 0.0
H1398 H 0.99511 0.79442 0.59962 0.0
H1399 H 1.00296 0.85892 0.58544 0.0
H1400 H 0.04737 0.81148 0.56989 0.0
H1401 H 0.07337 0.79132 0.57588 0.0
H1402 H 0.11414 0.84218 0.5952 0.0
H1403 H 0.08827 0.86264 0.58954 0.0
C1404 C 0.03457 0.89174 0.51397 0.0
C1405 C 0.05197 0.90472 0.51417 0.0
C1406 C 0.03013 0.88282 0.52887 0.0
C1407 C 0.04299 0.88662 0.5444 0.0
C1408 C 0.06006 0.90014 0.5449 0.0
C1409 C 0.06444 0.90924 0.52995 0.0
C1410 C 0.0393 0.87521 0.55932 0.0
C1411 C 0.05392 0.86415 0.56419 0.0
C1412 C 0.02077 0.87346 0.5673 0.0
C1413 C 0.00516 0.88561 0.56363 0.0
C1414 C 0.00963 0.9058 0.56569 0.0
C1415 C 0.9949 0.91719 0.56215 0.0
C1416 C 0.97561 0.90857 0.55662 0.0
C1417 C 0.97099 0.88854 0.55466 0.0
C1418 C 0.98566 0.87708 0.55817 0.0
C1419 C 0.03576 0.82101 0.62295 0.0
C1420 C 0.02009 0.80587 0.61857 0.0
C1421 C 0.03907 0.83529 0.61204 0.0
C1422 C 0.02684 0.83476 0.59645 0.0
C1423 C 0.01061 0.82019 0.59251 0.0
C1424 C 0.00731 0.80585 0.6034 0.0
C1425 C 0.03156 0.84876 0.58379 0.0
C1426 C 0.01711 0.86018 0.5793 0.0
C1427 C 0.05024 0.85085 0.57613 0.0
C1428 C 0.06582 0.83858 0.57949 0.0
C1429 C 0.06183 0.81835 0.57555 0.0
C1430 C 0.07655 0.80688 0.57887 0.0
C1431 C 0.09537 0.81546 0.58597 0.0
C1432 C 0.09953 0.83555 0.58973 0.0
C1433 C 0.08485 0.84709 0.58647 0.0
H1434 H 0.10675 0.80655 0.58852 0.0
H1435 H 0.96423 0.91741 0.55389 0.0
H1436 H 0.20084 0.6934 0.72262 0.0
H1437 H 0.16836 0.69922 0.71155 0.0
H1438 H 0.1584 0.72948 0.7639 0.0
H1439 H 0.19166 0.72464 0.77484 0.0
H1440 H 0.13227 0.69029 0.71735 0.0
H1441 H 0.13001 0.76537 0.75931 0.0
H1442 H 0.15312 0.79302 0.77493 0.0
H1443 H 0.19821 0.77795 0.73901 0.0
H1444 H 0.17529 0.75038 0.72306 0.0
H1445 H 0.03883 0.71702 0.69587 0.0
H1446 H 0.06792 0.71219 0.71392 0.0
H1447 H 0.10396 0.75455 0.68972 0.0
H1448 H 0.07478 0.7599 0.67197 0.0
H1449 H 0.1159 0.75747 0.72383 0.0
H1450 H 0.10177 0.70607 0.67416 0.0
H1451 H 0.08059 0.67965 0.65463 0.0
H1452 H 0.07278 0.6487 0.69909 0.0
H1453 H 0.09365 0.67512 0.71897 0.0
C1454 C 0.19183 0.7014 0.73181 0.0
C1455 C 0.1991 0.70893 0.74953 0.0
C1456 C 0.17309 0.70454 0.72549 0.0
C1457 C 0.16096 0.71511 0.73674 0.0
C1458 C 0.16762 0.72164 0.7548 0.0
C1459 C 0.18657 0.71867 0.76112 0.0
C1460 C 0.14185 0.71987 0.72913 0.0
C1461 C 0.12866 0.70497 0.71893 0.0
C1462 C 0.13718 0.73906 0.73079 0.0
C1463 C 0.15102 0.7557 0.74016 0.0
C1464 C 0.14484 0.768 0.75473 0.0
C1465 C 0.15791 0.78365 0.76364 0.0
C1466 C 0.17715 0.78719 0.75801 0.0
C1467 C 0.18333 0.77515 0.74341 0.0
C1468 C 0.17032 0.7595 0.73444 0.0
C1469 C 0.05288 0.7255 0.69452 0.0
C1470 C 0.05447 0.73873 0.68231 0.0
C1471 C 0.06954 0.72268 0.70484 0.0
C1472 C 0.08824 0.73273 0.70295 0.0
C1473 C 0.08971 0.74659 0.69141 0.0
C1474 C 0.07299 0.7496 0.68122 0.0
C1475 C 0.10644 0.72791 0.71208 0.0
C1476 C 0.11941 0.74276 0.72252 0.0
C1477 C 0.11129 0.70878 0.7101 0.0
C1478 C 0.0991 0.69266 0.6981 0.0
C1479 C 0.09545 0.69368 0.6798 0.0
C1480 C 0.0835 0.67871 0.66866 0.0
C1481 C 0.0753 0.66253 0.67563 0.0
C1482 C 0.07911 0.66126 0.69372 0.0
C1483 C 0.091 0.67623 0.70493 0.0
H1484 H 0.06603 0.65097 0.66699 0.0
H1485 H 0.18724 0.7993 0.76493 0.0
H1486 H 0.95809 0.58914 0.50808 0.0
H1487 H 0.96924 0.61919 0.52816 0.0
H1488 H 0.02777 0.61944 0.50805 0.0
H1489 H 0.01674 0.5888 0.48812 0.0
H1490 H 0.03015 0.62777 0.54389 0.0
H1491 H 0.99754 0.65178 0.49714 0.0
H1492 H 0.97091 0.65377 0.47455 0.0
H1493 H 0.93111 0.66582 0.51639 0.0
H1494 H 0.95741 0.66362 0.53924 0.0
H1495 H 0.05115 0.71693 0.60611 0.0
H1496 H 0.04895 0.69209 0.57957 0.0
H1497 H 0.98493 0.68595 0.57994 0.0
H1498 H 0.98742 0.71301 0.6044 0.0
H1499 H 0.99156 0.68341 0.54893 0.0
H1500 H 0.02266 0.64176 0.59075 0.0
H1501 H 0.04974 0.63782 0.61248 0.0
H1502 H 0.093 0.65925 0.57813 0.0
H1503 H 0.06614 0.6632 0.55638 0.0
C1504 C 0.97338 0.59549 0.50794 0.0
C1505 C 0.98657 0.58642 0.49659 0.0
C1506 C 0.97968 0.61285 0.5193 0.0
C1507 C 0.9993 0.62177 0.51951 0.0
C1508 C 0.01253 0.61289 0.50808 0.0
C1509 C 0.00619 0.59545 0.49663 0.0
C1510 C 0.00595 0.63984 0.53235 0.0
C1511 C 0.02188 0.64007 0.54484 0.0
C1512 C 0.99533 0.656 0.5336 0.0
C1513 C 0.97945 0.65743 0.51991 0.0
C1514 C 0.98308 0.65472 0.50153 0.0
C1515 C 0.96804 0.65591 0.48868 0.0
C1516 C 0.94933 0.6599 0.49403 0.0
C1517 C 0.94562 0.66274 0.51226 0.0
C1518 C 0.9606 0.66155 0.52517 0.0
C1519 C 0.03664 0.71006 0.60057 0.0
C1520 C 0.01939 0.71607 0.60806 0.0
C1521 C 0.03536 0.6955 0.5855 0.0
C1522 C 0.01676 0.68618 0.57788 0.0
C1523 C 0.99957 0.6925 0.58541 0.0
C1524 C 1.00091 0.70765 0.59984 0.0
C1525 C 0.01474 0.67074 0.56158 0.0
C1526 C 0.99986 0.67114 0.54811 0.0
C1527 C 0.02641 0.65523 0.55934 0.0
C1528 C 0.04249 0.65339 0.57245 0.0
C1529 C 0.03798 0.64598 0.58818 0.0
C1530 C 0.05324 0.64361 0.60036 0.0
C1531 C 0.07306 0.64856 0.59681 0.0
C1532 C 0.07765 0.6556 0.58095 0.0
C1533 C 0.06242 0.65783 0.56869 0.0
H1534 H 0.08485 0.64676 0.60627 0.0
H1535 H 0.9377 0.66081 0.48406 0.0
H1536 H 0.78559 0.83459 0.22941 0.0
H1537 H 0.80585 0.86583 0.23638 0.0
H1538 H 0.78023 0.88319 0.18905 0.0
H1539 H 0.75986 0.85165 0.1819 0.0
H1540 H 0.81873 0.89208 0.19067 0.0
H1541 H 0.76942 0.90364 0.23184 0.0
H1542 H 0.74655 0.89726 0.25536 0.0
H1543 H 0.7961 0.89658 0.29238 0.0
H1544 H 0.81928 0.90268 0.269 0.0
H1545 H 0.88507 0.98 0.219 0.0
H1546 H 0.85611 0.95644 0.20841 0.0
H1547 H 0.86187 0.93138 0.25687 0.0
H1548 H 0.88833 0.95698 0.26847 0.0
H1549 H 0.82703 0.93101 0.25153 0.0
H1550 H 0.87333 0.9072 0.20383 0.0
H1551 H 0.89471 0.91271 0.17872 0.0
H1552 H 0.84834 0.93755 0.15367 0.0
H1553 H 0.82687 0.93206 0.17851 0.0
C1554 C 0.78386 0.84518 0.22068 0.0
C1555 C 0.77093 0.84064 0.20517 0.0
C1556 C 0.79551 0.8631 0.22469 0.0
C1557 C 0.79439 0.87706 0.21341 0.0
C1558 C 0.78132 0.8727 0.198 0.0
C1559 C 0.7697 0.85467 0.19392 0.0
C1560 C 0.8079 0.89559 0.21724 0.0
C1561 C 0.82037 0.90074 0.20394 0.0
C1562 C 0.80999 0.90709 0.23444 0.0
C1563 C 0.7961 0.90353 0.24861 0.0
C1564 C 0.77545 0.90201 0.24496 0.0
C1565 C 0.76243 0.89846 0.25827 0.0
C1566 C 0.76987 0.89649 0.27535 0.0
C1567 C 0.79035 0.89811 0.27915 0.0
C1568 C 0.80345 0.90165 0.26587 0.0
C1569 C 0.88019 0.96926 0.22723 0.0
C1570 C 0.8898 0.96952 0.24412 0.0
C1571 C 0.86374 0.95552 0.22104 0.0
C1572 C 0.85693 0.94135 0.2314 0.0
C1573 C 0.86664 0.94185 0.24835 0.0
C1574 C 0.88232 0.95615 0.25484 0.0
C1575 C 0.83921 0.92656 0.22545 0.0
C1576 C 0.82554 0.92234 0.23828 0.0
C1577 C 0.83591 0.91602 0.20778 0.0
C1578 C 0.84886 0.91964 0.19313 0.0
C1579 C 0.86798 0.91408 0.19304 0.0
C1580 C 0.88 0.91711 0.17887 0.0
C1581 C 0.87297 0.92567 0.16475 0.0
C1582 C 0.85382 0.93104 0.16467 0.0
C1583 C 0.84172 0.92791 0.17874 0.0
H1584 H 0.8823 0.92802 0.15381 0.0
H1585 H 0.75976 0.89373 0.28564 0.0
H1586 H 0.81119 0.18109 0.3311 0.0
H1587 H 0.83485 0.15718 0.32846 0.0
H1588 H 0.78797 0.11299 0.30478 0.0
H1589 H 0.7644 0.13696 0.30689 0.0
H1590 H 0.81751 0.10403 0.3344 0.0
H1591 H 0.81228 0.12706 0.27675 0.0
H1592 H 0.81324 0.15294 0.25817 0.0
H1593 H 0.87327 0.17354 0.27814 0.0
H1594 H 0.87251 0.14796 0.2971 0.0
H1595 H 0.86932 0.0285 0.29454 0.0
H1596 H 0.84707 0.05256 0.30329 0.0
H1597 H 0.89504 0.09807 0.30191 0.0
H1598 H 0.91698 0.07395 0.29207 0.0
H1599 H 0.86549 0.10775 0.28687 0.0
H1600 H 0.87346 0.0852 0.34268 0.0
H1601 H 0.87402 0.06161 0.36357 0.0
H1602 H 0.81198 0.04271 0.35065 0.0
H1603 H 0.8111 0.06601 0.3295 0.0
C1604 C 0.80591 0.16621 0.32558 0.0
C1605 C 0.78599 0.16084 0.31921 0.0
C1606 C 0.81941 0.1526 0.32405 0.0
C1607 C 0.81314 0.13333 0.31644 0.0
C1608 C 0.79307 0.12777 0.31076 0.0
C1609 C 0.77967 0.14145 0.31191 0.0
C1610 C 0.82774 0.11927 0.3133 0.0
C1611 C 0.82792 0.10465 0.32392 0.0
C1612 C 0.84172 0.12055 0.30005 0.0
C1613 C 0.84225 0.13576 0.28849 0.0
C1614 C 0.82561 0.13723 0.27731 0.0
C1615 C 0.82613 0.15182 0.26669 0.0
C1616 C 0.84329 0.16492 0.26702 0.0
C1617 C 0.85998 0.16341 0.27793 0.0
C1618 C 0.85951 0.14887 0.28861 0.0
C1619 C 0.87519 0.04364 0.29637 0.0
C1620 C 0.89493 0.04933 0.29267 0.0
C1621 C 0.86245 0.05745 0.30148 0.0
C1622 C 0.8693 0.0773 0.30357 0.0
C1623 C 0.88925 0.08293 0.30038 0.0
C1624 C 0.90185 0.06912 0.29485 0.0
C1625 C 0.85545 0.09213 0.30795 0.0
C1626 C 0.8553 0.107 0.2975 0.0
C1627 C 0.84181 0.09129 0.32167 0.0
C1628 C 0.84226 0.07724 0.33438 0.0
C1629 C 0.85997 0.07592 0.34419 0.0
C1630 C 0.86034 0.06261 0.3561 0.0
C1631 C 0.84306 0.05064 0.3584 0.0
C1632 C 0.82536 0.05198 0.34884 0.0
C1633 C 0.82491 0.06525 0.3369 0.0
H1634 H 0.84338 0.04035 0.36763 0.0
H1635 H 0.84367 0.1762 0.25878 0.0
H1636 H 0.45835 0.99681 0.98155 0.0
H1637 H 0.43202 0.97409 0.99061 0.0
H1638 H 0.40095 0.02166 0.01178 0.0
H1639 H 0.42764 0.04436 1.00342 0.0
H1640 H 0.39592 0.99622 0.03262 0.0
H1641 H 0.38924 0.99369 0.96882 0.0
H1642 H 0.39989 0.98967 0.93777 0.0
H1643 H 0.4103 0.93156 0.94117 0.0
H1644 H 0.39998 0.93534 0.97236 0.0
H1645 H 0.29594 0.94253 1.00194 0.0
H1646 H 0.32685 0.96464 0.00411 0.0
H1647 H 0.35836 0.92288 0.0255 0.0
H1648 H 0.3272 0.90092 0.024 0.0
H1649 H 0.36445 0.94347 0.9854 0.0
H1650 H 0.36997 0.94883 0.05164 0.0
H1651 H 0.35585 0.95515 0.08125 0.0
H1652 H 0.34341 0.0107 0.07077 0.0
H1653 H 0.35719 0.00454 0.04096 0.0
C1654 C 0.44597 1.00237 0.9883 0.0
C1655 C 0.445 0.02232 0.99173 0.0
C1656 C 0.43089 0.9894 0.99342 0.0
C1657 C 0.41422 0.99608 1.00159 0.0
C1658 C 0.41359 0.01607 0.00553 0.0
C1659 C 0.42886 0.02906 1.00072 0.0
C1660 C 0.39699 0.98232 0.0052 0.0
C1661 C 0.38913 0.98468 0.02226 0.0
C1662 C 0.38791 0.96721 0.99175 0.0
C1663 C 0.39407 0.96487 0.97299 0.0
C1664 C 0.39394 0.98011 0.96299 0.0
C1665 C 0.3999 0.97787 0.94536 0.0
C1666 C 0.40583 0.96039 0.93752 0.0
C1667 C 0.40575 0.9451 0.94728 0.0
C1668 C 0.39985 0.94728 0.96493 0.0
C1669 C 0.30931 0.93839 0.00778 0.0
C1670 C 0.30918 0.92014 0.01301 0.0
C1671 C 0.32694 0.95099 0.00895 0.0
C1672 C 0.34482 0.94545 0.01509 0.0
C1673 C 0.34463 0.92756 0.02105 0.0
C1674 C 0.32684 0.91508 0.02027 0.0
C1675 C 0.36377 0.95726 0.01277 0.0
C1676 C 0.37168 0.95472 0.99583 0.0
C1677 C 0.37258 0.9724 0.02614 0.0
C1678 C 0.36434 0.97611 0.04401 0.0
C1679 C 0.36398 0.96227 0.05556 0.0
C1680 C 0.35611 0.96586 0.0724 0.0
C1681 C 0.34866 0.98328 0.07786 0.0
C1682 C 0.34914 0.99719 0.06651 0.0
C1683 C 0.35699 0.99366 0.04965 0.0
H1684 H 0.34259 0.98604 0.09091 0.0
H1685 H 0.41043 0.95869 0.92386 0.0
H1686 H 0.31378 0.40222 0.32335 0.0
H1687 H 0.29039 0.41932 0.30851 0.0
H1688 H 0.25278 0.36569 0.29067 0.0
H1689 H 0.27632 0.34838 0.30567 0.0
H1690 H 0.25468 0.39257 0.26491 0.0
H1691 H 0.24116 0.3909 0.32658 0.0
H1692 H 0.25001 0.39457 0.35904 0.0
H1693 H 0.26952 0.4548 0.36028 0.0
H1694 H 0.26111 0.45142 0.32774 0.0
H1695 H 0.17194 0.44397 0.24925 0.0
H1696 H 0.19273 0.42097 0.25912 0.0
H1697 H 0.23281 0.46823 0.28861 0.0
H1698 H 0.21196 0.49113 0.27918 0.0
H1699 H 0.22681 0.44106 0.3082 0.0
H1700 H 0.24284 0.44275 0.2467 0.0
H1701 H 0.23556 0.43947 0.21401 0.0
H1702 H 0.21225 0.38 0.21219 0.0
H1703 H 0.21916 0.383 0.24494 0.0
C1704 C 0.30073 0.39399 0.31597 0.0
C1705 C 0.29676 0.37399 0.31585 0.0
C1706 C 0.28736 0.40378 0.30751 0.0
C1707 C 0.26965 0.39385 0.29877 0.0
C1708 C 0.26633 0.37365 0.2974 0.0
C1709 C 0.2798 0.36377 0.30591 0.0
C1710 C 0.25402 0.40497 0.29272 0.0
C1711 C 0.2483 0.40295 0.27438 0.0
C1712 C 0.2459 0.4187 0.30504 0.0
C1713 C 0.25064 0.42087 0.32469 0.0
C1714 C 0.24746 0.4049 0.33375 0.0
C1715 C 0.25239 0.40693 0.35217 0.0
C1716 C 0.26036 0.4249 0.36171 0.0
C1717 C 0.26336 0.44089 0.35287 0.0
C1718 C 0.2585 0.43893 0.33443 0.0
C1719 C 0.18514 0.44943 0.25792 0.0
C1720 C 0.19027 0.46941 0.26342 0.0
C1721 C 0.1971 0.43626 0.26345 0.0
C1722 C 0.21455 0.44281 0.27445 0.0
C1723 C 0.21947 0.46275 0.28014 0.0
C1724 C 0.2075 0.47586 0.27471 0.0
C1725 C 0.22773 0.42911 0.28026 0.0
C1726 C 0.23298 0.43059 0.29867 0.0
C1727 C 0.23544 0.41499 0.26796 0.0
C1728 C 0.2313 0.41316 0.24829 0.0
C1729 C 0.23601 0.42902 0.23935 0.0
C1730 C 0.23198 0.4272 0.22081 0.0
C1731 C 0.22339 0.40955 0.21104 0.0
C1732 C 0.21886 0.39367 0.21978 0.0
C1733 C 0.22285 0.39541 0.23833 0.0
H1734 H 0.22028 0.40817 0.19668 0.0
H1735 H 0.26417 0.42644 0.37597 0.0
H1736 H 0.09666 0.02682 0.48775 0.0
H1737 H 0.12807 0.048 0.49412 0.0
H1738 H 0.15975 0.99832 0.49111 0.0
H1739 H 0.12842 0.97704 0.48403 0.0
H1740 H 0.15777 0.05455 0.51912 0.0
H1741 H 0.20356 0.00807 0.47178 0.0
H1742 H 0.1986 0.98293 0.44487 0.0
H1743 H 0.14549 0.00491 0.42881 0.0
H1744 H 0.15028 0.03031 0.45548 0.0
H1745 H 0.25441 0.10879 0.52612 0.0
H1746 H 0.22618 0.08438 0.52675 0.0
H1747 H 0.21752 0.07833 0.46897 0.0
H1748 H 0.24817 0.09976 0.46842 0.0
H1749 H 0.20848 0.04736 0.47406 0.0
H1750 H 0.17994 0.1039 0.51079 0.0
H1751 H 0.18129 0.12988 0.53701 0.0
H1752 H 0.19554 0.09037 0.57207 0.0
H1753 H 0.19408 0.06427 0.54605 0.0
C1754 C 0.1103 0.02038 0.48853 0.0
C1755 C 0.10997 1.0002 0.48517 0.0
C1756 C 0.12827 0.03252 0.4923 0.0
C1757 C 0.14637 0.02481 0.4928 0.0
C1758 C 0.14603 0.00466 0.49051 0.0
C1759 C 0.12804 0.99248 0.48666 0.0
C1760 C 0.1655 0.03792 0.49469 0.0
C1761 C 0.16885 0.05308 0.50921 0.0
C1762 C 0.18008 0.036 0.4819 0.0
C1763 C 0.17717 0.02092 0.46573 0.0
C1764 C 0.19086 0.00755 0.46247 0.0
C1765 C 0.18807 0.99327 0.44727 0.0
C1766 C 0.1717 0.99228 0.43518 0.0
C1767 C 0.15812 0.00564 0.43822 0.0
C1768 C 0.16086 0.01997 0.45339 0.0
C1769 C 0.24632 0.10228 0.51358 0.0
C1770 C 0.25274 0.10719 0.49722 0.0
C1771 C 0.22975 0.08851 0.51396 0.0
C1772 C 0.21856 0.07986 0.49802 0.0
C1773 C 0.2254 0.08464 0.48165 0.0
C1774 C 0.24266 0.09749 0.48126 0.0
C1775 C 0.20051 0.06516 0.49797 0.0
C1776 C 0.19744 0.04928 0.48392 0.0
C1777 C 0.18598 0.06668 0.51102 0.0
C1778 C 0.1875 0.08244 0.52648 0.0
C1779 C 0.18373 0.10097 0.52406 0.0
C1780 C 0.18438 0.11563 0.53887 0.0
C1781 C 0.18878 0.11184 0.55615 0.0
C1782 C 0.19229 0.09333 0.55867 0.0
C1783 C 0.19147 0.0786 0.54392 0.0
H1784 H 0.1893 0.12321 0.56759 0.0
H1785 H 0.16956 0.9812 0.42343 0.0
H1786 H 0.82731 0.1408 0.70064 0.0
H1787 H 0.8028 0.11258 0.70105 0.0
H1788 H 0.75909 0.14998 0.71821 0.0
H1789 H 0.78345 0.17818 0.71772 0.0
H1790 H 0.78497 0.10082 0.72816 0.0
H1791 H 0.71251 0.12799 0.70398 0.0
H1792 H 0.70188 0.1491 0.68321 0.0
H1793 H 0.75249 0.13976 0.65227 0.0
H1794 H 0.76326 0.11836 0.67269 0.0
H1795 H 0.70002 0.04969 0.75714 0.0
H1796 H 0.72584 0.07413 0.7501 0.0
H1797 H 0.7131 0.05339 0.69347 0.0
H1798 H 0.68683 0.02916 0.70062 0.0
H1799 H 0.71682 0.09137 0.69939 0.0
H1800 H 0.75531 0.04398 0.7158 0.0
H1801 H 0.76643 0.02125 0.73468 0.0
H1802 H 0.78504 0.06821 0.77745 0.0
H1803 H 0.77378 0.09121 0.75891 0.0
C1804 C 0.81242 0.14299 0.70436 0.0
C1805 C 0.80732 0.16174 0.70907 0.0
C1806 C 0.79843 0.12686 0.70459 0.0
C1807 C 0.77903 0.12911 0.70953 0.0
C1808 C 0.77382 0.14782 0.714 0.0
C1809 C 0.78778 0.16396 0.71368 0.0
C1810 C 0.76458 0.11195 0.71096 0.0
C1811 C 0.77008 0.09875 0.72182 0.0
C1812 C 0.74523 0.109 0.70247 0.0
C1813 C 0.7388 0.12173 0.69 0.0
C1814 C 0.72133 0.13038 0.69272 0.0
C1815 C 0.71528 0.1424 0.681 0.0
C1816 C 0.72654 0.14582 0.66647 0.0
C1817 C 0.74383 0.13716 0.66358 0.0
C1818 C 0.74993 0.12511 0.67524 0.0
C1819 C 0.70268 0.05051 0.7432 0.0
C1820 C 0.69112 0.03809 0.72938 0.0
C1821 C 0.71758 0.06428 0.73918 0.0
C1822 C 0.72152 0.06557 0.72124 0.0
C1823 C 0.71028 0.05274 0.7074 0.0
C1824 C 0.69534 0.03892 0.71146 0.0
C1825 C 0.73702 0.08063 0.71702 0.0
C1826 C 0.73171 0.09343 0.70568 0.0
C1827 C 0.75664 0.08307 0.72485 0.0
C1828 C 0.76358 0.0693 0.736 0.0
C1829 C 0.76166 0.04945 0.72927 0.0
C1830 C 0.768 0.03652 0.73991 0.0
C1831 C 0.7764 0.04328 0.75726 0.0
C1832 C 0.77853 0.06299 0.764 0.0
C1833 C 0.77219 0.07599 0.75343 0.0
H1834 H 0.7813 0.03324 0.76548 0.0
H1835 H 0.72184 0.15514 0.65742 0.0
H1836 H 0.48001 0.04269 0.54825 0.0
H1837 H 0.45367 0.06187 0.54155 0.0
H1838 H 0.42413 0.01335 0.50447 0.0
H1839 H 0.45035 0.99416 0.5111 0.0
H1840 H 0.42569 0.04511 0.48955 0.0
H1841 H 0.40623 0.02771 0.54589 0.0
H1842 H 0.41074 0.02481 0.57791 0.0
H1843 H 0.42354 0.08639 0.59159 0.0
H1844 H 0.41938 0.08965 0.5596 0.0
H1845 H 0.33377 0.08391 0.47774 0.0
H1846 H 0.35981 0.06408 0.48381 0.0
H1847 H 0.39002 0.11152 0.52174 0.0
H1848 H 0.36401 0.13118 0.51598 0.0
H1849 H 0.38775 0.07976 0.53608 0.0
H1850 H 0.4076 0.09716 0.47974 0.0
H1851 H 0.40322 0.1001 0.44771 0.0
H1852 H 0.38971 0.03857 0.43404 0.0
H1853 H 0.39376 0.03529 0.46603 0.0
C1854 C 0.46774 0.03601 0.5389 0.0
C1855 C 0.46735 0.01688 0.53019 0.0
C1856 C 0.45269 0.04701 0.53502 0.0
C1857 C 0.43682 0.03907 0.52251 0.0
C1858 C 0.43624 0.01988 0.51407 0.0
C1859 C 0.45127 0.00892 0.51789 0.0
C1860 C 0.42106 0.05084 0.51784 0.0
C1861 C 0.41721 0.05247 0.49972 0.0
C1862 C 0.41023 0.06082 0.53108 0.0
C1863 C 0.41268 0.05891 0.55033 0.0
C1864 C 0.41016 0.04063 0.55571 0.0
C1865 C 0.41263 0.03892 0.57386 0.0
C1866 C 0.41748 0.0554 0.58677 0.0
C1867 C 0.41982 0.07363 0.58157 0.0
C1868 C 0.41739 0.07542 0.56343 0.0
C1869 C 0.34611 0.09018 0.48718 0.0
C1870 C 0.34678 0.10914 0.49636 0.0
C1871 C 0.36102 0.07883 0.49065 0.0
C1872 C 0.37699 0.08628 0.50323 0.0
C1873 C 0.37786 0.10536 0.51205 0.0
C1874 C 0.36298 0.11664 0.50866 0.0
C1875 C 0.39244 0.07412 0.50779 0.0
C1876 C 0.39622 0.07239 0.5259 0.0
C1877 C 0.4032 0.06406 0.49454 0.0
C1878 C 0.40078 0.066 0.4753 0.0
C1879 C 0.40354 0.08427 0.46992 0.0
C1880 C 0.40115 0.086 0.45176 0.0
C1881 C 0.39614 0.06954 0.43885 0.0
C1882 C 0.39356 0.05131 0.44406 0.0
C1883 C 0.39592 0.04951 0.4622 0.0
H1884 H 0.3943 0.0709 0.4248 0.0
H1885 H 0.41938 0.05405 0.60082 0.0
H1886 H 0.63139 0.52753 0.55547 0.0
H1887 H 0.65369 0.50493 0.54325 0.0
H1888 H 0.61296 0.45738 0.55443 0.0
H1889 H 0.5897 0.4797 0.56558 0.0
H1890 H 0.65891 0.46271 0.56786 0.0
H1891 H 0.61192 0.45632 0.51617 0.0
H1892 H 0.59258 0.4695 0.49361 0.0
H1893 H 0.64646 0.49636 0.47549 0.0
H1894 H 0.6661 0.48357 0.49815 0.0
H1895 H 0.71117 0.38776 0.52879 0.0
H1896 H 0.68527 0.40749 0.53866 0.0
H1897 H 0.70591 0.44841 0.50441 0.0
H1898 H 0.73109 0.42807 0.49374 0.0
H1899 H 0.66878 0.44615 0.50281 0.0
H1900 H 0.7163 0.4552 0.55268 0.0
H1901 H 0.73805 0.44586 0.57598 0.0
H1902 H 0.68718 0.41889 0.59866 0.0
H1903 H 0.66513 0.42786 0.57534 0.0
C1904 C 0.62676 0.51227 0.55496 0.0
C1905 C 0.60846 0.5056 0.56149 0.0
C1906 C 0.63973 0.49937 0.54813 0.0
C1907 C 0.63497 0.47951 0.54795 0.0
C1908 C 0.61691 0.47269 0.55452 0.0
C1909 C 0.60369 0.48555 0.56101 0.0
C1910 C 0.64914 0.46601 0.54118 0.0
C1911 C 0.66088 0.45876 0.55363 0.0
C1912 C 0.65223 0.4616 0.52269 0.0
C1913 C 0.64045 0.46916 0.50898 0.0
C1914 C 0.61963 0.4652 0.5075 0.0
C1915 C 0.60862 0.47256 0.49466 0.0
C1916 C 0.61828 0.48381 0.48315 0.0
C1917 C 0.63899 0.48767 0.48443 0.0
C1918 C 0.65007 0.48035 0.49725 0.0
C1919 C 0.71015 0.40095 0.52333 0.0
C1920 C 0.72327 0.4064 0.51055 0.0
C1921 C 0.69539 0.41233 0.52909 0.0
C1922 C 0.6938 0.42979 0.52267 0.0
C1923 C 0.70673 0.43507 0.50966 0.0
C1924 C 0.72119 0.42344 0.50357 0.0
C1925 C 0.67873 0.44254 0.52949 0.0
C1926 C 0.66685 0.44984 0.51707 0.0
C1927 C 0.67589 0.44744 0.5481 0.0
C1928 C 0.68909 0.44202 0.56215 0.0
C1929 C 0.70977 0.44716 0.56256 0.0
C1930 C 0.72215 0.44195 0.57578 0.0
C1931 C 0.71401 0.43174 0.58876 0.0
C1932 C 0.69347 0.42677 0.58857 0.0
C1933 C 0.68102 0.43192 0.57537 0.0
H1934 H 0.72362 0.42772 0.59899 0.0
H1935 H 0.60974 0.48949 0.47322 0.0
H1936 H 0.72217 0.21468 0.34669 0.0
H1937 H 0.71818 0.23736 0.37391 0.0
H1938 H 0.78153 0.24461 0.38598 0.0
H1939 H 0.78545 0.22159 0.35912 0.0
H1940 H 0.76429 0.242 0.41523 0.0
H1941 H 0.75565 0.27884 0.36753 0.0
H1942 H 0.74064 0.2862 0.33945 0.0
H1943 H 0.68394 0.28605 0.36259 0.0
H1944 H 0.69858 0.27843 0.39073 0.0
H1945 H 0.78291 0.3317 0.47114 0.0
H1946 H 0.77949 0.30538 0.44575 0.0
H1947 H 0.71587 0.29881 0.44907 0.0
H1948 H 0.71935 0.32544 0.47475 0.0
H1949 H 0.72832 0.29888 0.41361 0.0
H1950 H 0.73995 0.26609 0.46304 0.0
H1951 H 0.757 0.26097 0.49108 0.0
H1952 H 0.81102 0.25599 0.46412 0.0
H1953 H 0.79438 0.26138 0.43597 0.0
C1954 C 0.73522 0.22116 0.35516 0.0
C1955 C 0.75412 0.21631 0.35078 0.0
C1956 C 0.73295 0.23418 0.3707 0.0
C1957 C 0.74958 0.24296 0.38197 0.0
C1958 C 0.76844 0.23803 0.3776 0.0
C1959 C 0.77067 0.22483 0.36224 0.0
C1960 C 0.74752 0.25716 0.39839 0.0
C1961 C 0.75661 0.25454 0.41476 0.0
C1962 C 0.73699 0.2733 0.39805 0.0
C1963 C 0.72815 0.2778 0.38113 0.0
C1964 C 0.73994 0.2802 0.36656 0.0
C1965 C 0.73151 0.28445 0.35065 0.0
C1966 C 0.71133 0.28652 0.34921 0.0
C1967 C 0.69956 0.28439 0.3637 0.0
C1968 C 0.70791 0.28011 0.37964 0.0
C1969 C 0.76818 0.32469 0.4664 0.0
C1970 C 0.75134 0.33081 0.47456 0.0
C1971 C 0.76625 0.30956 0.452 0.0
C1972 C 0.74744 0.30005 0.44556 0.0
C1973 C 0.73052 0.30598 0.45383 0.0
C1974 C 0.7325 0.32109 0.46846 0.0
C1975 C 0.74579 0.28406 0.43009 0.0
C1976 C 0.73592 0.28628 0.41399 0.0
C1977 C 0.75593 0.26776 0.43056 0.0
C1978 C 0.76593 0.26424 0.44741 0.0
C1979 C 0.7555 0.26402 0.46311 0.0
C1980 C 0.76509 0.26106 0.47902 0.0
C1981 C 0.78509 0.25818 0.47938 0.0
C1982 C 0.79553 0.25822 0.46382 0.0
C1983 C 0.78601 0.2612 0.44787 0.0
H1984 H 0.79249 0.25591 0.49172 0.0
H1985 H 0.70483 0.28981 0.33688 0.0
H1986 H 0.51211 0.06422 0.88885 0.0
H1987 H 0.53828 0.05708 0.86853 0.0
H1988 H 0.54803 0.0079 0.89375 0.0
H1989 H 0.52159 0.01504 0.91417 0.0
H1990 H 0.57756 0.05355 0.87187 0.0
H1991 H 0.55717 0.97156 0.85896 0.0
H1992 H 0.52898 0.94696 0.86176 0.0
H1993 H 0.48807 0.98738 0.85432 0.0
H1994 H 0.51599 0.01209 0.85124 0.0
H1995 H 0.6237 0.98949 0.79459 0.0
H1996 H 0.60537 0.99094 0.82216 0.0
H1997 H 0.58187 0.04192 0.81023 0.0
H1998 H 0.59994 0.04071 0.78308 0.0
H1999 H 0.56469 0.99176 0.82957 0.0
H2000 H 0.58514 0.07487 0.84728 0.0
H2001 H 0.6125 0.09946 0.84259 0.0
H2002 H 0.65304 0.05701 0.83904 0.0
H2003 H 0.62604 0.03225 0.84407 0.0
C2004 C 0.52009 0.05209 0.89028 0.0
C2005 C 0.51478 0.04013 0.90302 0.0
C2006 C 0.53508 0.04804 0.87869 0.0
C2007 C 0.54497 0.03181 0.87943 0.0
C2008 C 0.54046 0.0204 0.89281 0.0
C2009 C 0.52549 0.02456 0.90456 0.0
C2010 C 0.55886 0.02637 0.8653 0.0
C2011 C 0.57478 0.04002 0.86267 0.0
C2012 C 0.5556 0.00849 0.85352 0.0
C2013 C 0.53868 0.99372 0.85513 0.0
C2014 C 0.54215 0.97516 0.8579 0.0
C2015 C 0.52623 0.9612 0.85952 0.0
C2016 C 0.50675 0.96563 0.8583 0.0
C2017 C 0.50316 0.98399 0.85535 0.0
C2018 C 0.51903 0.99798 0.85368 0.0
C2019 C 0.6144 1.00083 0.79775 0.0
C2020 C 0.61353 0.01512 0.78671 0.0
C2021 C 0.60397 1.00166 0.81351 0.0
C2022 C 0.5926 0.01679 0.81845 0.0
C2023 C 0.59089 0.03036 0.80691 0.0
C2024 C 0.60125 0.02961 0.79133 0.0
C2025 C 0.58296 0.0192 0.83586 0.0
C2026 C 0.56784 0.00505 0.83908 0.0
C2027 C 0.58694 0.03664 0.8482 0.0
C2028 C 0.60349 0.05166 0.84597 0.0
C2029 C 0.59993 0.07081 0.84569 0.0
C2030 C 0.61537 0.08478 0.84293 0.0
C2031 C 0.63448 0.07979 0.84048 0.0
C2032 C 0.63822 0.06085 0.8409 0.0
C2033 C 0.62285 0.04685 0.84371 0.0
H2034 H 0.6464 0.0906 0.83826 0.0
H2035 H 0.49445 0.95481 0.85958 0.0
H2036 H 0.34869 0.25144 0.33246 0.0
H2037 H 0.34723 0.22904 0.35413 0.0
H2038 H 0.33745 0.27511 0.39609 0.0
H2039 H 0.34072 0.29782 0.37502 0.0
H2040 H 0.35971 0.25502 0.40993 0.0
H2041 H 0.299 0.23806 0.37269 0.0
H2042 H 0.27838 0.22803 0.34438 0.0
H2043 H 0.30528 0.17573 0.33431 0.0
H2044 H 0.32624 0.18558 0.36248 0.0
H2045 H 0.30082 0.20297 0.46756 0.0
H2046 H 0.3134 0.2227 0.44549 0.0
H2047 H 0.34313 0.17589 0.4205 0.0
H2048 H 0.33103 0.15621 0.44308 0.0
H2049 H 0.31484 0.19331 0.39717 0.0
H2050 H 0.37215 0.2104 0.43844 0.0
H2051 H 0.38958 0.22137 0.46821 0.0
H2052 H 0.36499 0.27498 0.47213 0.0
H2053 H 0.34717 0.26421 0.44249 0.0
C2054 C 0.34653 0.25693 0.34634 0.0
C2055 C 0.34455 0.27657 0.35176 0.0
C2056 C 0.3454 0.24397 0.35874 0.0
C2057 C 0.34177 0.25016 0.37681 0.0
C2058 C 0.34014 0.26979 0.38228 0.0
C2059 C 0.34168 0.2828 0.37003 0.0
C2060 C 0.33951 0.23641 0.39011 0.0
C2061 C 0.34977 0.24161 0.40708 0.0
C2062 C 0.32691 0.21858 0.38649 0.0
C2063 C 0.31436 0.21266 0.36956 0.0
C2064 C 0.30062 0.22449 0.36436 0.0
C2065 C 0.28885 0.21883 0.34836 0.0
C2066 C 0.29057 0.20129 0.33752 0.0
C2067 C 0.30401 0.18934 0.3427 0.0
C2068 C 0.31583 0.19495 0.35868 0.0
C2069 C 0.31049 0.19707 0.45765 0.0
C2070 C 0.31517 0.17816 0.45715 0.0
C2071 C 0.3176 0.20833 0.44501 0.0
C2072 C 0.32918 0.20077 0.43133 0.0
C2073 C 0.33427 0.18201 0.43099 0.0
C2074 C 0.32752 0.17086 0.44396 0.0
C2075 C 0.33471 0.21222 0.41688 0.0
C2076 C 0.325 0.2066 0.39978 0.0
C2077 C 0.34742 0.22986 0.42051 0.0
C2078 C 0.3582 0.23643 0.4383 0.0
C2079 C 0.37032 0.22446 0.44572 0.0
C2080 C 0.3803 0.23066 0.46255 0.0
C2081 C 0.37836 0.24885 0.47207 0.0
C2082 C 0.36647 0.26089 0.46475 0.0
C2083 C 0.35645 0.25476 0.44792 0.0
H2084 H 0.3861 0.25362 0.4851 0.0
H2085 H 0.28144 0.19692 0.32514 0.0
H2086 H 0.54585 0.45441 0.92846 0.0
H2087 H 0.52792 0.46286 0.90289 0.0
H2088 H 0.54194 0.52326 0.92461 0.0
H2089 H 0.55828 0.51488 0.95119 0.0
H2090 H 0.50771 0.51923 0.90973 0.0
H2091 H 0.56803 0.49882 0.88933 0.0
H2092 H 0.59426 0.47756 0.88468 0.0
H2093 H 0.55246 0.43316 0.85389 0.0
H2094 H 0.5259 0.45406 0.85856 0.0
H2095 H 0.49814 0.51326 0.80309 0.0
H2096 H 0.51785 0.51373 0.83121 0.0
H2097 H 0.46375 0.50584 0.85881 0.0
H2098 H 0.44432 0.50658 0.83098 0.0
H2099 H 0.52147 0.48759 0.84901 0.0
H2100 H 0.46983 0.51912 0.90308 0.0
H2101 H 0.44784 0.54461 0.90739 0.0
H2102 H 0.4798 0.57474 0.87005 0.0
H2103 H 0.50215 0.54958 0.8657 0.0
C2104 C 0.54476 0.4695 0.92816 0.0
C2105 C 0.55376 0.48391 0.94208 0.0
C2106 C 0.53476 0.47435 0.91323 0.0
C2107 C 0.53398 0.49376 0.91142 0.0
C2108 C 0.54242 0.50817 0.92549 0.0
C2109 C 0.55204 0.50332 0.94065 0.0
C2110 C 0.52459 0.49895 0.89481 0.0
C2111 C 0.51077 0.51234 0.89645 0.0
C2112 C 0.529 0.49056 0.87736 0.0
C2113 C 0.54494 0.47796 0.87441 0.0
C2114 C 0.5644 0.48448 0.88165 0.0
C2115 C 0.57933 0.4725 0.87901 0.0
C2116 C 0.57502 0.45401 0.86903 0.0
C2117 C 0.55577 0.44748 0.86163 0.0
C2118 C 0.54078 0.4594 0.86426 0.0
C2119 C 0.4906 0.51237 0.81537 0.0
C2120 C 0.46981 0.51038 0.81507 0.0
C2121 C 0.50182 0.5124 0.8314 0.0
C2122 C 0.49241 0.50999 0.84735 0.0
C2123 C 0.47154 0.5083 0.84697 0.0
C2124 C 0.46038 0.50869 0.83105 0.0
C2125 C 0.50422 0.50758 0.86389 0.0
C2126 C 0.51849 0.49465 0.86225 0.0
C2127 C 0.50084 0.51705 0.88127 0.0
C2128 C 0.48756 0.53235 0.88395 0.0
C2129 C 0.47223 0.53122 0.89585 0.0
C2130 C 0.45968 0.54561 0.89829 0.0
C2131 C 0.46238 0.56125 0.88896 0.0
C2132 C 0.47767 0.56258 0.87722 0.0
C2133 C 0.49027 0.54824 0.87474 0.0
H2134 H 0.45265 0.57236 0.89086 0.0
H2135 H 0.5866 0.44475 0.867 0.0
H2136 H 0.76858 0.75771 0.16991 0.0
H2137 H 0.77305 0.7403 0.14001 0.0
H2138 H 0.74559 0.78279 0.11572 0.0
H2139 H 0.74131 0.8005 0.14574 0.0
H2140 H 0.732 0.74123 0.10102 0.0
H2141 H 0.79117 0.78701 0.1143 0.0
H2142 H 0.82046 0.80364 0.1332 0.0
H2143 H 0.84345 0.74965 0.1334 0.0
H2144 H 0.81413 0.73264 0.11472 0.0
H2145 H 0.75798 0.70193 0.01375 0.0
H2146 H 0.75322 0.72505 0.04041 0.0
H2147 H 0.79401 0.69897 0.07163 0.0
H2148 H 0.79941 0.67646 0.04506 0.0
H2149 H 0.80024 0.73555 0.0816 0.0
H2150 H 0.74176 0.689 0.07152 0.0
H2151 H 0.7125 0.67034 0.05392 0.0
H2152 H 0.68793 0.72277 0.04942 0.0
H2153 H 0.71723 0.74178 0.06673 0.0
C2154 C 0.76334 0.76326 0.15821 0.0
C2155 C 0.75454 0.78042 0.16013 0.0
C2156 C 0.76598 0.75335 0.14115 0.0
C2157 C 0.75968 0.76028 0.12568 0.0
C2158 C 0.75052 0.77721 0.12752 0.0
C2159 C 0.74817 0.78733 0.14462 0.0
C2160 C 0.76317 0.74996 0.10767 0.0
C2161 C 0.74688 0.74025 0.09657 0.0
C2162 C 0.78261 0.74831 0.10215 0.0
C2163 C 0.80036 0.75853 0.11323 0.0
C2164 C 0.80239 0.77866 0.11849 0.0
C2165 C 0.81902 0.78816 0.12915 0.0
C2166 C 0.83379 0.7777 0.13453 0.0
C2167 C 0.83199 0.75773 0.12923 0.0
C2168 C 0.81538 0.74815 0.11859 0.0
C2169 C 0.76608 0.70126 0.02626 0.0
C2170 C 0.77904 0.68727 0.02722 0.0
C2171 C 0.76326 0.71442 0.04153 0.0
C2172 C 0.77299 0.7136 0.05817 0.0
C2173 C 0.78631 0.69997 0.059 0.0
C2174 C 0.78936 0.68704 0.04373 0.0
C2175 C 0.76905 0.72646 0.07489 0.0
C2176 C 0.78529 0.73666 0.08583 0.0
C2177 C 0.74955 0.72823 0.08041 0.0
C2178 C 0.73179 0.71682 0.07024 0.0
C2179 C 0.73017 0.69656 0.06667 0.0
C2180 C 0.71358 0.68592 0.05676 0.0
C2181 C 0.69839 0.69537 0.05052 0.0
C2182 C 0.69973 0.71547 0.05423 0.0
C2183 C 0.71633 0.72619 0.06409 0.0
H2184 H 0.68556 0.68711 0.04284 0.0
H2185 H 0.84665 0.78509 0.14278 0.0
H2186 H 0.07806 0.01179 0.11602 0.0
H2187 H 0.06008 0.00677 0.14266 0.0
H2188 H 0.01351 0.03712 0.12481 0.0
H2189 H 0.03089 0.04154 0.09776 0.0
H2190 H 0.02674 0.04937 0.16138 0.0
H2191 H 0.00511 0.9902 0.12071 0.0
H2192 H 0.01016 0.9607 0.10025 0.0
H2193 H 0.04124 0.94065 0.14306 0.0
H2194 H 0.03661 0.97018 0.16372 0.0
H2195 H 0.95323 0.02669 0.22179 0.0
H2196 H 0.97259 0.03235 0.19612 0.0
H2197 H 0.01035 0.99033 0.20801 0.0
H2198 H 0.99039 0.98396 0.23314 0.0
H2199 H 1.00269 0.98428 0.17456 0.0
H2200 H 0.02503 0.04201 0.21555 0.0
H2201 H 0.02204 0.07165 0.23667 0.0
H2202 H 0.99269 0.0948 0.19486 0.0
H2203 H 0.99528 0.06518 0.17353 0.0
C2204 C 0.06383 0.01712 0.11752 0.0
C2205 C 0.056 0.02708 0.10458 0.0
C2206 C 0.05363 0.01435 0.13288 0.0
C2207 C 0.03544 0.02158 0.13576 0.0
C2208 C 0.02758 0.03153 0.12295 0.0
C2209 C 0.03763 0.0341 0.10749 0.0
C2210 C 0.0246 0.01883 0.15213 0.0
C2211 C 0.02127 0.03516 0.1642 0.0
C2212 C 0.01801 1.00029 0.15609 0.0
C2213 C 0.02069 0.98249 0.14371 0.0
C2214 C 0.01317 0.97957 0.12572 0.0
C2215 C 0.01592 0.96283 0.1141 0.0
C2216 C 0.02606 0.94883 0.12034 0.0
C2217 C 0.03341 0.95152 0.13823 0.0
C2218 C 0.03072 0.96825 0.14991 0.0
C2219 C 0.96582 0.01885 0.21909 0.0
C2220 C 0.97029 0.00492 0.2296 0.0
C2221 C 0.97698 0.02214 0.20439 0.0
C2222 C 0.99322 0.01198 0.20012 0.0
C2223 C 0.99792 0.99837 0.21088 0.0
C2224 C 0.98653 0.99479 0.22534 0.0
C2225 C 0.00475 0.01487 0.18404 0.0
C2226 C 0.0082 0.99856 0.17193 0.0
C2227 C 0.01175 0.03345 0.18021 0.0
C2228 C 0.01019 0.05129 0.19299 0.0
C2229 C 0.01781 0.05336 0.21089 0.0
C2230 C 0.01621 0.07017 0.22289 0.0
C2231 C 0.00714 0.08508 0.21712 0.0
C2232 C 0.99969 0.08323 0.19931 0.0
C2233 C 1.00124 0.06644 0.18726 0.0
H2234 H 0.00591 0.09808 0.22643 0.0
H2235 H 0.02818 0.93588 0.11132 0.0
H2236 H 0.3612 0.77465 0.15594 0.0
H2237 H 0.35287 0.78847 0.12919 0.0
H2238 H 0.29371 0.75781 0.1259 0.0
H2239 H 0.30226 0.74357 0.15255 0.0
H2240 H 0.30678 0.7614 0.09214 0.0
H2241 H 0.30216 0.80232 0.14835 0.0
H2242 H 0.31451 0.81933 0.17846 0.0
H2243 H 0.36124 0.85191 0.15518 0.0
H2244 H 0.34936 0.83482 0.12495 0.0
H2245 H 0.26911 0.85521 0.06888 0.0
H2246 H 0.27958 0.83541 0.09046 0.0
H2247 H 0.3169 0.80866 0.05171 0.0
H2248 H 0.30619 0.8283 0.02986 0.0
H2249 H 0.31401 0.83288 0.10623 0.0
H2250 H 0.31841 0.76155 0.05828 0.0
H2251 H 0.30316 0.74411 0.02921 0.0
H2252 H 0.25097 0.77238 0.03752 0.0
H2253 H 0.26578 0.78977 0.06673 0.0
C2254 C 0.34664 0.77038 0.14913 0.0
C2255 C 0.33235 0.75808 0.15623 0.0
C2256 C 0.34185 0.77835 0.13392 0.0
C2257 C 0.32254 0.77449 0.12574 0.0
C2258 C 0.30869 0.76101 0.132 0.0
C2259 C 0.31356 0.75286 0.14718 0.0
C2260 C 0.31629 0.78622 0.11222 0.0
C2261 C 0.30845 0.77702 0.09516 0.0
C2262 C 0.31802 0.80662 0.11628 0.0
C2263 C 0.32498 0.81717 0.13441 0.0
C2264 C 0.31514 0.81303 0.14967 0.0
C2265 C 0.32205 0.82268 0.16675 0.0
C2266 C 0.33867 0.83666 0.16873 0.0
C2267 C 0.34838 0.84105 0.15363 0.0
C2268 C 0.34156 0.83139 0.13651 0.0
C2269 C 0.27962 0.84518 0.06494 0.0
C2270 C 0.28679 0.84332 0.04762 0.0
C2271 C 0.28561 0.83386 0.07732 0.0
C2272 C 0.29887 0.82036 0.07269 0.0
C2273 C 0.30641 0.81875 0.05552 0.0
C2274 C 0.30038 0.83008 0.04308 0.0
C2275 C 0.30476 0.80814 0.08595 0.0
C2276 C 0.3125 0.81727 0.10306 0.0
C2277 C 0.30249 0.7877 0.08202 0.0
C2278 C 0.29332 0.77712 0.06459 0.0
C2279 C 0.30366 0.76399 0.05393 0.0
C2280 C 0.29509 0.75412 0.03742 0.0
C2281 C 0.27614 0.75719 0.03149 0.0
C2282 C 0.26568 0.77007 0.04209 0.0
C2283 C 0.27416 0.77995 0.05861 0.0
H2284 H 0.26955 0.74955 0.0187 0.0
H2285 H 0.34401 0.84412 0.18197 0.0
H2286 H 0.99266 0.50173 0.09062 0.0
H2287 H 0.00989 0.50409 0.1202 0.0
H2288 H 0.06462 0.49559 0.09512 0.0
H2289 H 0.04816 0.49465 0.06571 0.0
H2290 H 0.04971 0.47089 0.12518 0.0
H2291 H 0.06617 0.5358 0.10962 0.0
H2292 H 0.05652 0.56569 0.10064 0.0
H2293 H 0.02184 0.57416 0.14685 0.0
H2294 H 0.03107 0.54412 0.15593 0.0
H2295 H 0.12848 0.49263 0.19195 0.0
H2296 H 0.10557 0.48757 0.16542 0.0
H2297 H 0.06801 0.52578 0.19357 0.0
H2298 H 0.09164 0.53178 0.21976 0.0
H2299 H 0.07019 0.5345 0.16308 0.0
H2300 H 0.05557 0.47358 0.18178 0.0
H2301 H 0.06191 0.44309 0.1917 0.0
H2302 H 0.08809 0.42559 0.14196 0.0
H2303 H 0.08216 0.4561 0.13183 0.0
C2304 C 0.00841 0.50061 0.09131 0.0
C2305 C 0.01885 0.49785 0.07552 0.0
C2306 C 0.01818 0.50177 0.10827 0.0
C2307 C 0.03847 0.49985 0.1098 0.0
C2308 C 0.04889 0.49687 0.0942 0.0
C2309 C 0.03931 0.49616 0.07732 0.0
C2310 C 0.04915 0.5015 0.12764 0.0
C2311 C 0.05433 0.48476 0.1335 0.0
C2312 C 0.05448 0.51952 0.1387 0.0
C2313 C 0.04909 0.53761 0.13331 0.0
C2314 C 0.05632 0.54393 0.11775 0.0
C2315 C 0.05097 0.56092 0.11267 0.0
C2316 C 0.03851 0.57178 0.12313 0.0
C2317 C 0.03145 0.56571 0.13873 0.0
C2318 C 0.03674 0.54871 0.14386 0.0
C2319 C 0.11516 0.49969 0.19259 0.0
C2320 C 0.11183 0.51253 0.208 0.0
C2321 C 0.10195 0.49672 0.17739 0.0
C2322 C 0.08473 0.50603 0.17742 0.0
C2323 C 0.08113 0.51842 0.19306 0.0
C2324 C 0.0946 0.52177 0.2081 0.0
C2325 C 0.07123 0.5038 0.16082 0.0
C2326 C 0.06548 0.52048 0.15507 0.0
C2327 C 0.06494 0.4856 0.15009 0.0
C2328 C 0.06856 0.46721 0.15611 0.0
C2329 C 0.06281 0.46329 0.17301 0.0
C2330 C 0.06631 0.44599 0.17866 0.0
C2331 C 0.07544 0.43243 0.16749 0.0
C2332 C 0.08104 0.43612 0.15061 0.0
C2333 C 0.07759 0.4534 0.14489 0.0
H2334 H 0.07813 0.41904 0.17189 0.0
H2335 H 0.03439 0.58494 0.11918 0.0
H2336 H 0.38131 0.72169 0.24458 0.0
H2337 H 0.40828 0.71964 0.26625 0.0
H2338 H 0.4124 0.66127 0.24129 0.0
H2339 H 0.38545 0.66329 0.21929 0.0
H2340 H 0.41223 0.66411 0.27736 0.0
H2341 H 0.44855 0.69706 0.2363 0.0
H2342 H 0.45594 0.72175 0.2169 0.0
H2343 H 0.46084 0.76635 0.26294 0.0
H2344 H 0.45319 0.74195 0.2826 0.0
H2345 H 0.50161 0.6707 0.33834 0.0
H2346 H 0.47855 0.66415 0.31161 0.0
H2347 H 0.46091 0.72103 0.32459 0.0
H2348 H 0.4854 0.7282 0.34993 0.0
H2349 H 0.47112 0.71366 0.29063 0.0
H2350 H 0.40963 0.67462 0.31897 0.0
H2351 H 0.3986 0.64869 0.33624 0.0
H2352 H 0.44282 0.6153 0.31334 0.0
H2353 H 0.4535 0.64074 0.29546 0.0
C2354 C 0.38819 0.70853 0.24341 0.0
C2355 C 0.38127 0.6927 0.23006 0.0
C2356 C 0.4036 0.70737 0.25587 0.0
C2357 C 0.41255 0.69038 0.25528 0.0
C2358 C 0.40575 0.67454 0.24199 0.0
C2359 C 0.39031 0.6757 0.22945 0.0
C2360 C 0.42837 0.68906 0.26911 0.0
C2361 C 0.42532 0.67474 0.28004 0.0
C2362 C 0.44543 0.70291 0.27268 0.0
C2363 C 0.45018 0.71766 0.26092 0.0
C2364 C 0.45107 0.71214 0.24228 0.0
C2365 C 0.45533 0.72609 0.23124 0.0
C2366 C 0.45883 0.74561 0.23868 0.0
C2367 C 0.45812 0.75122 0.25719 0.0
C2368 C 0.45386 0.73734 0.2683 0.0
C2369 C 0.49243 0.68158 0.33564 0.0
C2370 C 0.49458 0.69965 0.34674 0.0
C2371 C 0.479 0.67772 0.3205 0.0
C2372 C 0.4673 0.69179 0.31635 0.0
C2373 C 0.46941 0.70975 0.32762 0.0
C2374 C 0.48318 0.71375 0.34235 0.0
C2375 C 0.45462 0.68913 0.29933 0.0
C2376 C 0.45825 0.7028 0.28774 0.0
C2377 C 0.43821 0.67458 0.29505 0.0
C2378 C 0.43294 0.6599 0.30658 0.0
C2379 C 0.41716 0.66185 0.31788 0.0
C2380 C 0.41078 0.64713 0.32754 0.0
C2381 C 0.42018 0.63046 0.32607 0.0
C2382 C 0.43574 0.62833 0.31468 0.0
C2383 C 0.44193 0.64288 0.30475 0.0
H2384 H 0.41531 0.61913 0.33366 0.0
H2385 H 0.46212 0.75639 0.2301 0.0
H2386 H 0.03068 0.4213 0.00966 0.0
H2387 H 0.03069 0.38665 0.99927 0.0
H2388 H 0.01968 0.39551 0.94459 0.0
H2389 H 0.01886 0.42972 0.95489 0.0
H2390 H 0.99799 0.36449 0.94971 0.0
H2391 H 0.06676 0.39059 0.96218 0.0
H2392 H 0.0959 0.40778 0.98099 0.0
H2393 H 0.08881 0.36645 0.01718 0.0
H2394 H 0.05945 0.34916 0.99869 0.0
H2395 H 0.05543 0.28282 0.91026 0.0
H2396 H 0.05659 0.31495 0.92813 0.0
H2397 H 1.00166 0.29696 0.95095 0.0
H2398 H 1.00019 0.26502 0.93302 0.0
H2399 H 0.05631 0.33184 0.96334 0.0
H2400 H 0.97193 0.33124 0.95045 0.0
H2401 H 0.94503 0.31511 0.92834 0.0
H2402 H 0.98712 0.30817 0.88764 0.0
H2403 H 0.01415 0.32431 0.90945 0.0
C2404 C 0.028 0.41578 0.99546 0.0
C2405 C 0.02501 0.42833 0.98309 0.0
C2406 C 0.02821 0.39601 0.98951 0.0
C2407 C 0.02547 0.38847 0.97109 0.0
C2408 C 0.0219 0.40093 0.95885 0.0
C2409 C 0.02163 0.42056 0.96476 0.0
C2410 C 0.02645 0.3677 0.96429 0.0
C2411 C 0.01069 0.35736 0.95286 0.0
C2412 C 0.04314 0.35837 0.96808 0.0
C2413 C 0.06079 0.36872 0.97918 0.0
C2414 C 0.07133 0.38526 0.97423 0.0
C2415 C 0.0879 0.39501 0.98481 0.0
C2416 C 0.09417 0.38825 1.0003 0.0
C2417 C 0.08391 0.37169 0.0052 0.0
C2418 C 0.06731 0.36191 0.99467 0.0
C2419 C 0.04381 0.28556 0.91937 0.0
C2420 C 0.02756 0.2714 0.91998 0.0
C2421 C 0.04452 0.30395 0.9296 0.0
C2422 C 0.02903 0.30847 0.94063 0.0
C2423 C 0.01361 0.29391 0.9423 0.0
C2424 C 0.01281 0.27562 0.93201 0.0
C2425 C 0.02784 0.32877 0.94887 0.0
C2426 C 0.04351 0.33896 0.96049 0.0
C2427 C 0.01132 0.33821 0.94489 0.0
C2428 C 0.99506 0.32879 0.93162 0.0
C2429 C 0.9754 0.3263 0.93677 0.0
C2430 C 0.96013 0.31713 0.92429 0.0
C2431 C 0.96436 0.31052 0.90661 0.0
C2432 C 0.98384 0.31316 0.90135 0.0
C2433 C 0.99914 0.32229 0.91376 0.0
H2434 H 0.95253 0.30341 0.89698 0.0
H2435 H 0.10701 0.39581 0.00847 0.0
H2436 H 0.67974 0.77158 0.23679 0.0
H2437 H 0.65043 0.77074 0.25483 0.0
H2438 H 0.6886 0.78056 0.3033 0.0
H2439 H 0.71781 0.78119 0.28535 0.0
H2440 H 0.6417 0.74356 0.27746 0.0
H2441 H 0.6644 0.806 0.33679 0.0
H2442 H 0.68288 0.83874 0.34205 0.0
H2443 H 0.67003 0.84457 0.2871 0.0
H2444 H 0.65122 0.812 0.28157 0.0
H2445 H 0.59941 0.72783 0.35847 0.0
H2446 H 0.62345 0.73852 0.33773 0.0
H2447 H 0.58401 0.77692 0.32122 0.0
H2448 H 0.55955 0.76598 0.34179 0.0
H2449 H 0.62719 0.7927 0.32796 0.0
H2450 H 0.58319 0.7401 0.29406 0.0
H2451 H 0.56454 0.70745 0.28879 0.0
H2452 H 0.61909 0.68266 0.29164 0.0
H2453 H 0.63805 0.7152 0.29722 0.0
C2454 C 0.68182 0.77402 0.25131 0.0
C2455 C 0.701 0.77644 0.2597 0.0
C2456 C 0.6651 0.77342 0.26158 0.0
C2457 C 0.66733 0.77563 0.28042 0.0
C2458 C 0.68651 0.779 0.28882 0.0
C2459 C 0.70318 0.77931 0.27856 0.0
C2460 C 0.6498 0.77261 0.29128 0.0
C2461 C 0.63842 0.75439 0.28838 0.0
C2462 C 0.64545 0.78676 0.30548 0.0
C2463 C 0.65653 0.80647 0.30874 0.0
C2464 C 0.66543 0.8143 0.32585 0.0
C2465 C 0.67598 0.83283 0.32888 0.0
C2466 C 0.67767 0.84371 0.31491 0.0
C2467 C 0.66877 0.8361 0.29789 0.0
C2468 C 0.65819 0.81759 0.2948 0.0
C2469 C 0.59588 0.7387 0.35059 0.0
C2470 C 0.57753 0.74601 0.35174 0.0
C2471 C 0.60964 0.74477 0.33872 0.0
C2472 C 0.60546 0.75843 0.3279 0.0
C2473 C 0.5875 0.76637 0.32949 0.0
C2474 C 0.57355 0.76007 0.3412 0.0
C2475 C 0.61953 0.76355 0.31435 0.0
C2476 C 0.63032 0.78204 0.31685 0.0
C2477 C 0.62335 0.74969 0.29972 0.0
C2478 C 0.61202 0.73009 0.2962 0.0
C2479 C 0.59119 0.72769 0.29371 0.0
C2480 C 0.58057 0.7092 0.29064 0.0
C2481 C 0.59062 0.69299 0.28992 0.0
C2482 C 0.61132 0.69523 0.29222 0.0
C2483 C 0.62202 0.7137 0.29531 0.0
H2484 H 0.58237 0.67869 0.28754 0.0
H2485 H 0.68585 0.85804 0.31728 0.0
H2486 H 0.041 0.08968 0.0238 0.0
H2487 H 0.03125 0.10403 0.99764 0.0
H2488 H 0.09259 0.12574 0.99283 0.0
H2489 H 0.10212 0.11204 0.01932 0.0
H2490 H 0.07178 0.15347 0.9924 0.0
H2491 H 0.06468 0.08849 0.96118 0.0
H2492 H 0.05253 0.05371 0.95562 0.0
H2493 H 0.99236 0.0664 0.95207 0.0
H2494 H 0.00413 0.10127 0.95785 0.0
H2495 H 0.06059 0.18972 0.91099 0.0
H2496 H 0.06893 0.16865 0.93223 0.0
H2497 H 0.00701 0.1564 0.94197 0.0
H2498 H 0.99844 0.17747 0.92066 0.0
H2499 H 0.02719 0.12344 0.93933 0.0
H2500 H 0.035 0.18851 0.97116 0.0
H2501 H 0.04765 0.22318 0.9761 0.0
H2502 H 0.10759 0.20961 0.97793 0.0
H2503 H 0.09529 0.17484 0.97272 0.0
C2504 C 0.0524 0.09707 0.0168 0.0
C2505 C 0.0723 0.09971 0.02348 0.0
C2506 C 0.04685 0.10529 1.00185 0.0
C2507 C 0.06117 0.11601 0.99314 0.0
C2508 C 0.08121 0.11768 0.99931 0.0
C2509 C 0.08668 0.10973 0.01436 0.0
C2510 C 0.05528 0.12695 0.97872 0.0
C2511 C 0.0623 0.14672 0.98066 0.0
C2512 C 0.0424 0.11846 0.9636 0.0
C2513 C 0.03528 0.0975 0.96013 0.0
C2514 C 0.04884 0.08387 0.95936 0.0
C2515 C 0.04203 0.06414 0.95614 0.0
C2516 C 0.02169 0.05785 0.95354 0.0
C2517 C 0.00812 0.07129 0.95411 0.0
C2518 C 0.01485 0.09104 0.95734 0.0
C2519 C 0.04867 0.18245 0.9175 0.0
C2520 C 0.02883 0.18549 0.91418 0.0
C2521 C 0.05349 0.17041 0.92969 0.0
C2522 C 0.03862 0.16108 0.93884 0.0
C2523 C 0.01873 0.16346 0.93508 0.0
C2524 C 0.01388 0.17561 0.92296 0.0
C2525 C 0.044 0.1497 0.95298 0.0
C2526 C 0.03677 0.13 0.95105 0.0
C2527 C 0.0568 0.15817 0.96809 0.0
C2528 C 0.06423 0.17907 0.97138 0.0
C2529 C 0.05088 0.19292 0.97248 0.0
C2530 C 0.05799 0.21259 0.97535 0.0
C2531 C 0.07841 0.21859 0.97728 0.0
C2532 C 0.09177 0.20494 0.9764 0.0
C2533 C 0.08474 0.18525 0.9735 0.0
H2534 H 0.08389 0.23383 0.97951 0.0
H2535 H 0.01644 0.04257 0.95105 0.0
H2536 H 0.38623 0.33141 0.30263 0.0
H2537 H 0.40991 0.32835 0.27908 0.0
H2538 H 0.38905 0.26758 0.26563 0.0
H2539 H 0.36549 0.27054 0.28922 0.0
H2540 H 0.4279 0.27273 0.26728 0.0
H2541 H 0.3767 0.30201 0.23931 0.0
H2542 H 0.35455 0.32685 0.23691 0.0
H2543 H 0.40511 0.36987 0.23873 0.0
H2544 H 0.42758 0.34531 0.24137 0.0
H2545 H 0.45685 0.24415 0.18178 0.0
H2546 H 0.43652 0.25594 0.2057 0.0
H2547 H 0.47546 0.30961 0.2167 0.0
H2548 H 0.49636 0.29774 0.19245 0.0
H2549 H 0.4316 0.31215 0.21816 0.0
H2550 H 0.48269 0.28118 0.24328 0.0
H2551 H 0.50388 0.25529 0.24416 0.0
H2552 H 0.45235 0.21459 0.24684 0.0
H2553 H 0.43081 0.24018 0.24566 0.0
C2554 C 0.38651 0.31744 0.2945 0.0
C2555 C 0.3739 0.30122 0.29781 0.0
C2556 C 0.4001 0.3157 0.28103 0.0
C2557 C 0.40123 0.29776 0.2704 0.0
C2558 C 0.38857 0.28158 0.27365 0.0
C2559 C 0.3751 0.28328 0.28717 0.0
C2560 C 0.41585 0.29556 0.2562 0.0
C2561 C 0.42857 0.28131 0.25652 0.0
C2562 C 0.41729 0.30712 0.24239 0.0
C2563 C 0.40381 0.32187 0.24075 0.0
C2564 C 0.38309 0.3168 0.23935 0.0
C2565 C 0.37048 0.33082 0.23791 0.0
C2566 C 0.37842 0.34994 0.23773 0.0
C2567 C 0.39899 0.35506 0.23891 0.0
C2568 C 0.41167 0.3411 0.24037 0.0
C2569 C 0.46116 0.25856 0.1891 0.0
C2570 C 0.47851 0.26987 0.18531 0.0
C2571 C 0.44941 0.26529 0.2028 0.0
C2572 C 0.45461 0.28352 0.21317 0.0
C2573 C 0.47124 0.29544 0.20886 0.0
C2574 C 0.48315 0.28865 0.19502 0.0
C2575 C 0.44318 0.28909 0.22914 0.0
C2576 C 0.43109 0.30386 0.22914 0.0
C2577 C 0.4422 0.27797 0.24325 0.0
C2578 C 0.45513 0.26259 0.24427 0.0
C2579 C 0.47586 0.26668 0.24394 0.0
C2580 C 0.48794 0.25207 0.2445 0.0
C2581 C 0.47947 0.2333 0.24553 0.0
C2582 C 0.45889 0.22913 0.24604 0.0
C2583 C 0.44674 0.2437 0.24545 0.0
H2584 H 0.48884 0.222 0.24596 0.0
H2585 H 0.36863 0.36077 0.23661 0.0
H2586 H 0.52832 0.38704 0.00478 0.0
H2587 H 0.52141 0.37171 0.03109 0.0
H2588 H 0.57471 0.40366 0.0589 0.0
H2589 H 0.58179 0.41898 0.03224 0.0
H2590 H 0.57313 0.36585 0.06079 0.0
H2591 H 0.52859 0.4126 0.0727 0.0
H2592 H 0.50203 0.43188 0.06609 0.0
H2593 H 0.46055 0.38031 0.05347 0.0
H2594 H 0.48692 0.36067 0.05974 0.0
H2595 H 0.55201 0.32162 0.13755 0.0
H2596 H 0.55753 0.34668 0.11859 0.0
H2597 H 0.50667 0.31976 0.08389 0.0
H2598 H 0.50094 0.29474 0.10291 0.0
H2599 H 0.50835 0.35876 0.08867 0.0
H2600 H 0.55375 0.31215 0.07313 0.0
H2601 H 0.58027 0.29259 0.07917 0.0
H2602 H 0.6201 0.34414 0.09835 0.0
H2603 H 0.5937 0.36402 0.09264 0.0
C2604 C 0.53836 0.39111 0.01664 0.0
C2605 C 0.5556 0.40422 0.01646 0.0
C2606 C 0.53436 0.38238 0.03173 0.0
C2607 C 0.54746 0.38655 0.0471 0.0
C2608 C 0.56434 0.40022 0.04723 0.0
C2609 C 0.5683 0.40909 0.03208 0.0
C2610 C 0.54419 0.37537 0.06225 0.0
C2611 C 0.55912 0.36469 0.06719 0.0
C2612 C 0.52575 0.37339 0.07034 0.0
C2613 C 0.50979 0.38514 0.06658 0.0
C2614 C 0.51384 0.40534 0.06838 0.0
C2615 C 0.49881 0.41634 0.06472 0.0
C2616 C 0.47962 0.40732 0.05933 0.0
C2617 C 0.47542 0.38728 0.05763 0.0
C2618 C 0.4904 0.37621 0.06127 0.0
C2619 C 0.54183 0.32115 0.12602 0.0
C2620 C 0.52608 0.30608 0.12172 0.0
C2621 C 0.54507 0.33546 0.11512 0.0
C2622 C 0.53271 0.335 0.09962 0.0
C2623 C 0.51646 0.32044 0.09574 0.0
C2624 C 0.51321 0.30611 0.10663 0.0
C2625 C 0.53718 0.3491 0.087 0.0
C2626 C 0.52246 0.36022 0.08249 0.0
C2627 C 0.5558 0.35148 0.07926 0.0
C2628 C 0.57169 0.33956 0.08266 0.0
C2629 C 0.56812 0.31931 0.07877 0.0
C2630 C 0.58313 0.30817 0.08211 0.0
C2631 C 0.60184 0.31711 0.08919 0.0
C2632 C 0.60559 0.33723 0.0929 0.0
C2633 C 0.59061 0.34844 0.08961 0.0
H2634 H 0.61346 0.30846 0.09176 0.0
H2635 H 0.468 0.41586 0.05651 0.0
H2636 H 0.69353 0.22557 0.28203 0.0
H2637 H 0.66043 0.23195 0.27189 0.0
H2638 H 0.66499 0.19554 0.22124 0.0
H2639 H 0.69743 0.18865 0.23146 0.0
H2640 H 0.6496 0.2495 0.24522 0.0
H2641 H 0.6212 0.17404 0.20332 0.0
H2642 H 0.6229 0.13974 0.20515 0.0
H2643 H 0.63345 0.15355 0.26242 0.0
H2644 H 0.63153 0.18789 0.26098 0.0
H2645 H 0.57953 0.25693 0.17538 0.0
H2646 H 0.60728 0.25156 0.19485 0.0
H2647 H 0.56729 0.21513 0.22198 0.0
H2648 H 0.53964 0.21985 0.2021 0.0
H2649 H 0.59739 0.19812 0.21555 0.0
H2650 H 0.5899 0.26185 0.24221 0.0
H2651 H 0.58633 0.29633 0.24351 0.0
H2652 H 0.64382 0.30631 0.22263 0.0
H2653 H 0.64763 0.27183 0.22096 0.0
C2654 C 0.68725 0.21863 0.26889 0.0
C2655 C 0.69817 0.20669 0.25752 0.0
C2656 C 0.66842 0.22242 0.26304 0.0
C2657 C 0.6601 0.21415 0.24582 0.0
C2658 C 0.67086 0.20189 0.23467 0.0
C2659 C 0.68955 0.1981 0.24048 0.0
C2660 C 0.64066 0.21886 0.23894 0.0
C2661 C 0.6381 0.23827 0.23885 0.0
C2662 C 0.62538 0.20427 0.23101 0.0
C2663 C 0.62636 0.18358 0.23201 0.0
C2664 C 0.62378 0.16975 0.21632 0.0
C2665 C 0.62481 0.1503 0.21728 0.0
C2666 C 0.62833 0.14447 0.23388 0.0
C2667 C 0.63079 0.15808 0.24956 0.0
C2668 C 0.62976 0.17755 0.24867 0.0
C2669 C 0.57659 0.24797 0.18564 0.0
C2670 C 0.55733 0.2388 0.18713 0.0
C2671 C 0.59249 0.24497 0.19686 0.0
C2672 C 0.58945 0.23307 0.2101 0.0
C2673 C 0.57012 0.22432 0.21188 0.0
C2674 C 0.55428 0.22708 0.20051 0.0
C2675 C 0.60656 0.22878 0.22126 0.0
C2676 C 0.60871 0.20941 0.22211 0.0
C2677 C 0.62116 0.24344 0.23032 0.0
C2678 C 0.61898 0.26421 0.23134 0.0
C2679 C 0.60173 0.27137 0.23778 0.0
C2680 C 0.59967 0.29092 0.2386 0.0
C2681 C 0.61482 0.3035 0.23313 0.0
C2682 C 0.63209 0.29655 0.22686 0.0
C2683 C 0.63422 0.27701 0.22599 0.0
H2684 H 0.6132 0.31863 0.23377 0.0
H2685 H 0.62913 0.12941 0.2346 0.0
H2686 H 0.46024 0.08885 0.01303 0.0
H2687 H 0.47183 0.11883 0.03306 0.0
H2688 H 0.53017 0.11833 0.01265 0.0
H2689 H 0.51871 0.08779 0.99275 0.0
H2690 H 0.53265 0.1268 0.04857 0.0
H2691 H 0.50046 0.15074 1.00151 0.0
H2692 H 0.47385 0.15279 0.97892 0.0
H2693 H 0.43438 0.16594 0.02081 0.0
H2694 H 0.46066 0.16369 0.04366 0.0
H2695 H 0.55516 0.216 0.1103 0.0
H2696 H 0.55254 0.19095 0.0839 0.0
H2697 H 0.48854 0.1866 0.08386 0.0
H2698 H 0.49158 0.21393 0.10806 0.0
H2699 H 0.49512 0.18317 0.05302 0.0
H2700 H 0.52524 0.14226 0.0957 0.0
H2701 H 0.5521 0.13798 0.11751 0.0
H2702 H 0.5958 0.15665 0.08226 0.0
H2703 H 0.56916 0.16094 0.06045 0.0
C2704 C 0.47559 0.095 0.01284 0.0
C2705 C 0.48859 0.08579 1.00138 0.0
C2706 C 0.48214 0.11232 0.02417 0.0
C2707 C 0.50183 0.12103 0.02424 0.0
C2708 C 0.51489 0.11195 0.01277 0.0
C2709 C 0.5083 0.09455 1.00135 0.0
C2710 C 0.50871 0.13913 0.03692 0.0
C2711 C 0.5246 0.13926 0.04941 0.0
C2712 C 0.49838 0.15547 0.038 0.0
C2713 C 0.48253 0.15695 0.02431 0.0
C2714 C 0.48607 0.15395 0.00591 0.0
C2715 C 0.47105 0.15516 0.99306 0.0
C2716 C 0.45243 0.15946 0.99843 0.0
C2717 C 0.44881 0.1626 0.01667 0.0
C2718 C 0.46378 0.16139 0.02958 0.0
C2719 C 0.54056 0.20947 0.10468 0.0
C2720 C 0.52346 0.21605 0.112 0.0
C2721 C 0.53902 0.1948 0.0897 0.0
C2722 C 0.5203 0.1859 0.08202 0.0
C2723 C 0.50327 0.1928 0.08937 0.0
C2724 C 0.5049 0.2081 0.10368 0.0
C2725 C 0.518 0.17026 0.06586 0.0
C2726 C 0.50318 0.17074 0.05235 0.0
C2727 C 0.52937 0.15452 0.06378 0.0
C2728 C 0.54533 0.15252 0.07694 0.0
C2729 C 0.54062 0.1458 0.09295 0.0
C2730 C 0.55575 0.14325 0.10517 0.0
C2731 C 0.57563 0.14731 0.10139 0.0
C2732 C 0.58041 0.15368 0.08526 0.0
C2733 C 0.56531 0.15611 0.07296 0.0
H2734 H 0.58733 0.14535 0.11087 0.0
H2735 H 0.44082 0.16039 0.98845 0.0
H2736 H 0.2753 0.34723 0.6857 0.0
H2737 H 0.29621 0.3783 0.69318 0.0
H2738 H 0.31205 0.36477 0.74526 0.0
H2739 H 0.29223 0.33327 0.73764 0.0
H2740 H 0.3014 0.40417 0.74434 0.0
H2741 H 0.34374 0.35839 0.71739 0.0
H2742 H 0.35271 0.33368 0.69339 0.0
H2743 H 0.3523 0.37367 0.65592 0.0
H2744 H 0.34301 0.39853 0.67967 0.0
H2745 H 0.38691 0.46785 0.77665 0.0
H2746 H 0.36118 0.44069 0.76701 0.0
H2747 H 0.36445 0.45098 0.71218 0.0
H2748 H 0.39107 0.47779 0.72189 0.0
H2749 H 0.36314 0.41452 0.71231 0.0
H2750 H 0.32397 0.46143 0.7389 0.0
H2751 H 0.31437 0.48662 0.76211 0.0
H2752 H 0.30743 0.44597 0.79894 0.0
H2753 H 0.31725 0.42059 0.77604 0.0
C2754 C 0.28329 0.35074 0.69873 0.0
C2755 C 0.28207 0.33752 0.71099 0.0
C2756 C 0.29512 0.3686 0.70301 0.0
C2757 C 0.3057 0.37376 0.71974 0.0
C2758 C 0.30389 0.36107 0.73231 0.0
C2759 C 0.29238 0.34307 0.72794 0.0
C2760 C 0.31941 0.392 0.72388 0.0
C2761 C 0.31498 0.40645 0.73746 0.0
C2762 C 0.33678 0.39513 0.71448 0.0
C2763 C 0.34241 0.38022 0.70023 0.0
C2764 C 0.34535 0.36184 0.70399 0.0
C2765 C 0.35054 0.34783 0.69044 0.0
C2766 C 0.353 0.35208 0.67312 0.0
C2767 C 0.35034 0.37038 0.66933 0.0
C2768 C 0.34512 0.38444 0.68282 0.0
C2769 C 0.38222 0.46417 0.76251 0.0
C2770 C 0.39138 0.47434 0.74988 0.0
C2771 C 0.36726 0.44886 0.75704 0.0
C2772 C 0.36064 0.44382 0.73885 0.0
C2773 C 0.36933 0.45451 0.72627 0.0
C2774 C 0.38447 0.46981 0.73178 0.0
C2775 C 0.34535 0.42684 0.73302 0.0
C2776 C 0.34947 0.41251 0.71911 0.0
C2777 C 0.32756 0.42396 0.74199 0.0
C2778 C 0.32146 0.43913 0.75577 0.0
C2779 C 0.3205 0.45789 0.75198 0.0
C2780 C 0.31501 0.4722 0.76508 0.0
C2781 C 0.31032 0.46791 0.782 0.0
C2782 C 0.31107 0.44928 0.78584 0.0
C2783 C 0.31656 0.43491 0.77279 0.0
H2784 H 0.30609 0.47901 0.79213 0.0
H2785 H 0.35702 0.34121 0.66265 0.0
H2786 H 0.3014 0.67232 0.78735 0.0
H2787 H 0.32392 0.6479 0.78699 0.0
H2788 H 0.30578 0.63664 0.83879 0.0
H2789 H 0.28222 0.66041 0.83893 0.0
H2790 H 0.35024 0.64075 0.83272 0.0
H2791 H 0.28695 0.60564 0.80917 0.0
H2792 H 0.25636 0.59977 0.78934 0.0
H2793 H 0.29107 0.59483 0.74295 0.0
H2794 H 0.3219 0.60098 0.76253 0.0
H2795 H 0.37432 0.53519 0.80213 0.0
H2796 H 0.35162 0.55904 0.81061 0.0
H2797 H 0.3943 0.60385 0.79695 0.0
H2798 H 0.41701 0.58003 0.7882 0.0
H2799 H 0.33571 0.58139 0.7874 0.0
H2800 H 0.38839 0.64604 0.82624 0.0
H2801 H 0.41893 0.65202 0.84617 0.0
H2802 H 0.40498 0.59689 0.86297 0.0
H2803 H 0.37422 0.5907 0.84336 0.0
C2804 C 0.30187 0.66453 0.79861 0.0
C2805 C 0.28958 0.66821 0.81303 0.0
C2806 C 0.31498 0.6507 0.79844 0.0
C2807 C 0.31646 0.64042 0.81281 0.0
C2808 C 0.30489 0.64448 0.82758 0.0
C2809 C 0.29147 0.65814 0.82764 0.0
C2810 C 0.32948 0.62487 0.81185 0.0
C2811 C 0.34706 0.62772 0.82288 0.0
C2812 C 0.32523 0.60783 0.79911 0.0
C2813 C 0.30673 0.60394 0.78731 0.0
C2814 C 0.28806 0.60347 0.79474 0.0
C2815 C 0.27068 0.60006 0.78355 0.0
C2816 C 0.27177 0.59698 0.7649 0.0
C2817 C 0.29025 0.59724 0.7574 0.0
C2818 C 0.30768 0.60067 0.76854 0.0
C2819 C 0.37903 0.55017 0.80119 0.0
C2820 C 0.39748 0.55571 0.79447 0.0
C2821 C 0.36598 0.56376 0.80596 0.0
C2822 C 0.37125 0.58323 0.80444 0.0
C2823 C 0.38997 0.58893 0.79837 0.0
C2824 C 0.40292 0.5753 0.79335 0.0
C2825 C 0.35672 0.59733 0.80807 0.0
C2826 C 0.33887 0.59429 0.7974 0.0
C2827 C 0.36075 0.61415 0.82116 0.0
C2828 C 0.37909 0.61784 0.83319 0.0
C2829 C 0.39179 0.63523 0.83425 0.0
C2830 C 0.40915 0.63865 0.84548 0.0
C2831 C 0.41392 0.62482 0.85579 0.0
C2832 C 0.40131 0.60756 0.85493 0.0
C2833 C 0.38393 0.60407 0.84373 0.0
H2834 H 0.42738 0.62749 0.86446 0.0
H2835 H 0.2583 0.59434 0.75625 0.0
H2836 H 0.95836 0.49679 0.47774 0.0
H2837 H 0.9326 0.47363 0.48694 0.0
H2838 H 0.90098 0.52046 0.50891 0.0
H2839 H 0.92702 0.54364 0.50023 0.0
H2840 H 0.8973 0.49445 0.52975 0.0
H2841 H 0.88857 0.49322 0.46633 0.0
H2842 H 0.89827 0.49015 0.43499 0.0
H2843 H 0.91004 0.43208 0.43667 0.0
H2844 H 0.90068 0.43491 0.46814 0.0
H2845 H 0.79746 0.43896 0.50294 0.0
H2846 H 0.82775 0.46181 0.50391 0.0
H2847 H 0.86234 0.41989 0.52117 0.0
H2848 H 0.83188 0.39723 0.52095 0.0
H2849 H 0.86558 0.44194 0.4824 0.0
H2850 H 0.87307 0.44559 0.5481 0.0
H2851 H 0.86005 0.45074 0.57826 0.0
H2852 H 0.84671 0.50683 0.57029 0.0
H2853 H 0.85933 0.50183 0.53993 0.0
C2854 C 0.94599 0.50212 0.48468 0.0
C2855 C 0.94466 0.52201 0.4882 0.0
C2856 C 0.93124 0.48888 0.48989 0.0
C2857 C 0.91458 0.49523 0.49833 0.0
C2858 C 0.91363 0.51515 0.50243 0.0
C2859 C 0.92854 0.52841 0.49746 0.0
C2860 C 0.89772 0.48115 0.50208 0.0
C2861 C 0.89043 0.48298 0.51936 0.0
C2862 C 0.88857 0.46613 0.48858 0.0
C2863 C 0.89415 0.46436 0.46965 0.0
C2864 C 0.89337 0.47985 0.46006 0.0
C2865 C 0.89879 0.47815 0.44227 0.0
C2866 C 0.90482 0.46095 0.43386 0.0
C2867 C 0.9054 0.44541 0.44322 0.0
C2868 C 0.90004 0.44705 0.46103 0.0
C2869 C 0.81145 0.43492 0.50759 0.0
C2870 C 0.81236 0.41649 0.51213 0.0
C2871 C 0.82871 0.44793 0.50808 0.0
C2872 C 0.84722 0.44258 0.51276 0.0
C2873 C 0.84813 0.4244 0.51786 0.0
C2874 C 0.83075 0.41153 0.51781 0.0
C2875 C 0.86556 0.45511 0.51004 0.0
C2876 C 0.87285 0.45316 0.49284 0.0
C2877 C 0.87441 0.47019 0.52346 0.0
C2878 C 0.86685 0.4732 0.54167 0.0
C2879 C 0.86709 0.4589 0.55268 0.0
C2880 C 0.85986 0.46182 0.56984 0.0
C2881 C 0.85248 0.47907 0.57616 0.0
C2882 C 0.85238 0.49345 0.56536 0.0
C2883 C 0.85957 0.49058 0.54818 0.0
H2884 H 0.8469 0.48131 0.58945 0.0
H2885 H 0.90901 0.45966 0.42008 0.0
H2886 H 0.77157 0.85054 0.81857 0.0
H2887 H 0.7455 0.86522 0.80388 0.0
H2888 H 0.78793 0.91447 0.79956 0.0
H2889 H 0.81379 0.90004 0.81452 0.0
H2890 H 0.73319 0.90172 0.81763 0.0
H2891 H 0.7746 0.92989 0.75949 0.0
H2892 H 0.80006 0.92037 0.73869 0.0
H2893 H 0.78388 0.8609 0.74354 0.0
H2894 H 0.75814 0.87001 0.76415 0.0
H2895 H 0.69655 0.983 0.78806 0.0
H2896 H 0.71744 0.96019 0.798 0.0
H2897 H 0.69324 0.91703 0.75335 0.0
H2898 H 0.67201 0.93969 0.74347 0.0
H2899 H 0.73558 0.9221 0.75759 0.0
H2900 H 0.67915 0.91065 0.79235 0.0
H2901 H 0.65348 0.9199 0.81299 0.0
H2902 H 0.69866 0.94438 0.85429 0.0
H2903 H 0.72463 0.93553 0.8338 0.0
C2904 C 0.77536 0.86429 0.8141 0.0
C2905 C 0.79467 0.87413 0.81754 0.0
C2906 C 0.76047 0.87273 0.80586 0.0
C2907 C 0.76477 0.89094 0.80061 0.0
C2908 C 0.78428 0.90037 0.80338 0.0
C2909 C 0.79905 0.89212 0.81188 0.0
C2910 C 0.74876 0.90076 0.79329 0.0
C2911 C 0.73364 0.90606 0.80445 0.0
C2912 C 0.74927 0.90634 0.77606 0.0
C2913 C 0.76455 0.90067 0.7635 0.0
C2914 C 0.77642 0.91477 0.75606 0.0
C2915 C 0.79091 0.90945 0.74431 0.0
C2916 C 0.79363 0.89005 0.73984 0.0
C2917 C 0.78182 0.87593 0.74707 0.0
C2918 C 0.76729 0.88117 0.75881 0.0
C2919 C 0.69551 0.96859 0.78045 0.0
C2920 C 0.68257 0.96314 0.765 0.0
C2921 C 0.70746 0.95556 0.78616 0.0
C2922 C 0.7069 0.9369 0.77643 0.0
C2923 C 0.69391 0.93136 0.76105 0.0
C2924 C 0.68172 0.9443 0.75549 0.0
C2925 C 0.72029 0.92342 0.78209 0.0
C2926 C 0.735 0.91756 0.77068 0.0
C2927 C 0.71941 0.91731 0.79909 0.0
C2928 C 0.70384 0.92255 0.81148 0.0
C2929 C 0.68362 0.91814 0.80578 0.0
C2930 C 0.66901 0.92329 0.81747 0.0
C2931 C 0.67443 0.93276 0.83493 0.0
C2932 C 0.69448 0.93706 0.84076 0.0
C2933 C 0.70915 0.93196 0.82912 0.0
H2934 H 0.6631 0.93674 0.84395 0.0
H2935 H 0.80486 0.88596 0.73074 0.0
H2936 H 0.60007 0.52489 0.98831 0.0
H2937 H 0.63134 0.54641 0.99394 0.0
H2938 H 0.66386 0.49725 0.98912 0.0
H2939 H 0.63253 0.47555 0.98335 0.0
H2940 H 0.68121 0.52766 0.01577 0.0
H2941 H 0.65893 0.51772 0.95326 0.0
H2942 H 0.6343 0.51651 0.92802 0.0
H2943 H 0.62874 0.57644 0.94443 0.0
H2944 H 0.65303 0.57786 0.96999 0.0
H2945 H 0.75773 0.594 0.96879 0.0
H2946 H 0.72886 0.56944 0.9675 0.0
H2947 H 0.71993 0.58966 0.02318 0.0
H2948 H 0.74927 0.6138 0.02452 0.0
H2949 H 0.69216 0.57067 0.97008 0.0
H2950 H 0.69715 0.55399 0.04319 0.0
H2951 H 0.72286 0.55285 0.06695 0.0
H2952 H 0.76552 0.54324 0.02716 0.0
H2953 H 0.74002 0.54407 1.00317 0.0
C2954 C 0.61386 0.51863 0.98868 0.0
C2955 C 0.6138 0.4985 0.98517 0.0
C2956 C 0.63173 0.53096 0.99193 0.0
C2957 C 0.64996 0.52346 0.99168 0.0
C2958 C 0.64996 0.50336 0.98937 0.0
C2959 C 0.63203 0.49097 0.98612 0.0
C2960 C 0.66886 0.5366 0.99214 0.0
C2961 C 0.68357 0.53724 0.00591 0.0
C2962 C 0.67222 0.54867 0.97897 0.0
C2963 C 0.65777 0.5479 0.96352 0.0
C2964 C 0.65239 0.53061 0.95152 0.0
C2965 C 0.63847 0.52988 0.93717 0.0
C2966 C 0.62996 0.54639 0.93462 0.0
C2967 C 0.63536 0.56367 0.9464 0.0
C2968 C 0.64922 0.56445 0.96081 0.0
C2969 C 0.7495 0.5932 0.9807 0.0
C2970 C 0.75536 0.60603 0.99663 0.0
C2971 C 0.73304 0.57913 0.98 0.0
C2972 C 0.72218 0.57747 0.99528 0.0
C2973 C 0.72819 0.59029 0.01128 0.0
C2974 C 0.74485 0.6042 0.01202 0.0
C2975 C 0.70432 0.5627 0.99429 0.0
C2976 C 0.68978 0.56153 0.98024 0.0
C2977 C 0.70132 0.55003 0.00709 0.0
C2978 C 0.71671 0.54928 0.02141 0.0
C2979 C 0.712 0.55156 0.03951 0.0
C2980 C 0.72654 0.55098 0.05302 0.0
C2981 C 0.74583 0.54804 0.04857 0.0
C2982 C 0.7506 0.54559 0.0306 0.0
C2983 C 0.73611 0.54614 0.01704 0.0
H2984 H 0.75706 0.54761 0.05905 0.0
H2985 H 0.61919 0.54579 0.92351 0.0
H2986 H 0.29161 0.68173 0.20314 0.0
H2987 H 0.26504 0.65553 0.20403 0.0
H2988 H 0.30761 0.61461 0.19927 0.0
H2989 H 0.33404 0.64052 0.1971 0.0
H2990 H 0.27484 0.5976 0.18315 0.0
H2991 H 0.29259 0.63553 0.24091 0.0
H2992 H 0.29837 0.66507 0.26348 0.0
H2993 H 0.23729 0.67392 0.25624 0.0
H2994 H 0.23124 0.6446 0.2334 0.0
H2995 H 0.20868 0.55296 0.25427 0.0
H2996 H 0.23452 0.57673 0.24636 0.0
H2997 H 0.2116 0.56376 0.19097 0.0
H2998 H 0.18686 0.5387 0.19883 0.0
H2999 H 0.23535 0.60758 0.23676 0.0
H3000 H 0.24501 0.57629 0.16207 0.0
H3001 H 0.2437 0.54458 0.14284 0.0
H3002 H 0.25659 0.51851 0.1891 0.0
H3003 H 0.25821 0.5501 0.20856 0.0
C3004 C 0.29528 0.66711 0.2017 0.0
C3005 C 0.3151 0.66335 0.20034 0.0
C3006 C 0.28006 0.65213 0.20245 0.0
C3007 C 0.28436 0.63312 0.20225 0.0
C3008 C 0.30388 0.62914 0.19964 0.0
C3009 C 0.31905 0.64405 0.1986 0.0
C3010 C 0.26897 0.61771 0.20618 0.0
C3011 C 0.266 0.59983 0.19476 0.0
C3012 C 0.25789 0.62029 0.22166 0.0
C3013 C 0.26152 0.63799 0.23531 0.0
C3014 C 0.28043 0.64387 0.24403 0.0
C3015 C 0.28376 0.66056 0.25688 0.0
C3016 C 0.26822 0.6714 0.26126 0.0
C3017 C 0.24932 0.66554 0.25281 0.0
C3018 C 0.24594 0.64888 0.23991 0.0
C3019 C 0.20934 0.55515 0.24039 0.0
C3020 C 0.19569 0.54434 0.22717 0.0
C3021 C 0.22407 0.56879 0.23585 0.0
C3022 C 0.22529 0.57214 0.21798 0.0
C3023 C 0.2115 0.56122 0.20475 0.0
C3024 C 0.19718 0.54706 0.20924 0.0
C3025 C 0.24061 0.58742 0.2135 0.0
C3026 C 0.24371 0.60533 0.22489 0.0
C3027 C 0.2523 0.58455 0.19839 0.0
C3028 C 0.25151 0.56552 0.18678 0.0
C3029 C 0.24762 0.5638 0.16812 0.0
C3030 C 0.24682 0.54584 0.15719 0.0
C3031 C 0.24999 0.52953 0.16476 0.0
C3032 C 0.25406 0.53115 0.18327 0.0
C3033 C 0.2549 0.54906 0.19426 0.0
H3034 H 0.24934 0.51564 0.15627 0.0
H3035 H 0.27082 0.68431 0.27123 0.0
H3036 H 0.981 0.54535 0.05252 0.0
H3037 H 0.95543 0.56517 0.04535 0.0
H3038 H 0.92574 0.51727 0.00765 0.0
H3039 H 0.9512 0.49744 0.01474 0.0
H3040 H 0.92858 0.54916 0.99289 0.0
H3041 H 0.90721 0.53188 0.04881 0.0
H3042 H 0.91088 0.52891 0.08088 0.0
H3043 H 0.92465 0.5904 0.09467 0.0
H3044 H 0.92132 0.59372 0.06264 0.0
H3045 H 0.83713 0.58742 0.97915 0.0
H3046 H 0.86335 0.56808 0.98577 0.0
H3047 H 0.89202 0.61579 0.02429 0.0
H3048 H 0.86572 0.63498 0.01801 0.0
H3049 H 0.88992 0.58413 0.03859 0.0
H3050 H 0.91112 0.60151 0.98272 0.0
H3051 H 0.90759 0.60453 0.95065 0.0
H3052 H 0.89431 0.54301 0.93673 0.0
H3053 H 0.8975 0.53964 0.96875 0.0
C3054 C 0.96885 0.53894 0.04293 0.0
C3055 C 0.9682 0.5198 0.03419 0.0
C3056 C 0.95424 0.55032 0.03879 0.0
C3057 C 0.93855 0.54273 0.02597 0.0
C3058 C 0.93772 0.52352 0.01748 0.0
C3059 C 0.95231 0.51219 0.02157 0.0
C3060 C 0.92326 0.55486 0.02103 0.0
C3061 C 0.91995 0.5566 1.00287 0.0
C3062 C 0.91227 0.56498 0.03404 0.0
C3063 C 0.91421 0.56303 0.05331 0.0
C3064 C 0.91117 0.54476 0.05867 0.0
C3065 C 0.91316 0.54301 0.07684 0.0
C3066 C 0.91805 0.55945 0.0898 0.0
C3067 C 0.92089 0.57768 0.08462 0.0
C3068 C 0.91894 0.5795 0.06646 0.0
C3069 C 0.84918 0.59388 0.98882 0.0
C3070 C 0.84931 0.61276 0.99803 0.0
C3071 C 0.86421 0.58281 0.9926 0.0
C3072 C 0.87979 0.59046 0.00552 0.0
C3073 C 0.88017 0.60949 0.01435 0.0
C3074 C 0.86514 0.6205 0.01065 0.0
C3075 C 0.89525 0.57846 0.01043 0.0
C3076 C 0.89857 0.57672 0.02859 0.0
C3077 C 0.90626 0.56836 0.99742 0.0
C3078 C 0.90436 0.57034 0.97815 0.0
C3079 C 0.90729 0.58864 0.97283 0.0
C3080 C 0.90538 0.59041 0.95466 0.0
C3081 C 0.90068 0.57398 0.94167 0.0
C3082 C 0.89792 0.55573 0.94681 0.0
C3083 C 0.8998 0.55388 0.96497 0.0
H3084 H 0.8992 0.57538 0.9276 0.0
H3085 H 0.91958 0.55807 0.10387 0.0
H3086 H 0.08484 0.98084 0.06126 0.0
H3087 H 0.10844 0.95884 0.05023 0.0
H3088 H 0.14824 0.00672 0.03837 0.0
H3089 H 0.1256 0.02901 0.05045 0.0
H3090 H 0.13926 0.97062 0.00957 0.0
H3091 H 0.16128 0.9933 0.07238 0.0
H3092 H 0.15588 0.99868 0.10479 0.0
H3093 H 0.13861 0.93796 0.10295 0.0
H3094 H 0.14362 0.93227 0.07045 0.0
H3095 H 0.22889 0.93189 0.99267 0.0
H3096 H 0.20288 0.95142 1.00251 0.0
H3097 H 0.17987 0.90846 0.03384 0.0
H3098 H 0.20666 0.88942 0.02482 0.0
H3099 H 0.17797 0.94057 0.05245 0.0
H3100 H 0.15695 0.91595 0.99159 0.0
H3101 H 0.15961 0.90841 0.95884 0.0
H3102 H 0.17099 0.96885 0.95583 0.0
H3103 H 0.16868 0.97675 0.9886 0.0
C3104 C 0.09868 0.98683 0.05653 0.0
C3105 C 0.10313 0.0069 0.05686 0.0
C3106 C 0.11208 0.97415 0.05005 0.0
C3107 C 0.13006 0.98116 0.04345 0.0
C3108 C 0.13436 1.001 0.04327 0.0
C3109 C 0.12122 0.01374 0.05008 0.0
C3110 C 0.14473 0.96794 0.03728 0.0
C3111 C 0.14789 0.96414 0.0189 0.0
C3112 C 0.15541 0.95899 0.04941 0.0
C3113 C 0.15259 0.9624 0.06896 0.0
C3114 C 0.15614 0.98112 0.07886 0.0
C3115 C 0.1532 0.98423 0.09725 0.0
C3116 C 0.14685 0.96868 0.10591 0.0
C3117 C 0.14349 0.95 0.09622 0.0
C3118 C 0.14639 0.94682 0.07781 0.0
C3119 C 0.21822 0.92655 1.00159 0.0
C3120 C 0.21982 0.90905 0.00789 0.0
C3121 C 0.20322 0.9377 0.00714 0.0
C3122 C 0.18898 0.93133 0.01867 0.0
C3123 C 0.19056 0.91378 0.02495 0.0
C3124 C 0.20587 0.90285 0.01973 0.0
C3125 C 0.17286 0.9432 0.02455 0.0
C3126 C 0.16935 0.94681 0.04294 0.0
C3127 C 0.16149 0.9516 0.01232 0.0
C3128 C 0.16281 0.94693 0.99259 0.0
C3129 C 0.16015 0.92763 0.98396 0.0
C3130 C 0.16158 0.92329 0.96539 0.0
C3131 C 0.16551 0.93814 0.95527 0.0
C3132 C 0.16797 0.95736 0.96369 0.0
C3133 C 0.16658 0.96178 0.98226 0.0
H3134 H 0.16662 0.93475 0.94089 0.0
H3135 H 0.14457 0.97111 0.12015 0.0
loop_
_geom_bond_atom_site_label_1
_geom_bond_atom_site_label_2
_geom_bond_distance
_geom_bond_site_symmetry_2
_ccdc_geom_bond_type
H0 C1 0.949 . S
C1 H0 0.949 . S
C1 C2 1.395 . S
C1 C3 1.391 . S
C2 C1 1.395 . S
C2 C5 1.390 . S
C3 C1 1.391 . S
C3 C7 1.387 . S
C3 C8 1.491 . S
H4 C5 0.950 1_565 S
C5 C2 1.390 . S
C5 H4 0.950 1_545 S
C5 C6 1.378 . S
C6 C5 1.378 . S
C6 C7 1.409 . S
C7 C3 1.387 . S
C7 C6 1.409 . S
C7 H9 0.951 . S
C8 C3 1.491 . S
C8 C10 1.382 . S
C8 C12 1.404 . S
H9 C7 0.951 . S
C10 C8 1.382 . S
C10 C11 1.420 . S
C10 H15 0.949 . S
C11 C10 1.420 . S
C11 C16 1.420 . S
C12 C8 1.404 . S
C12 H13 0.950 . S
C12 C14 1.375 . S
H13 C12 0.950 . S
C14 C12 1.375 . S
C14 C16 1.382 . S
C14 H18 0.950 . S
H15 C10 0.949 . S
C16 C11 1.420 . S
C16 C14 1.382 . S
C16 H17 0.952 . S
H17 C16 0.952 . S
H18 C14 0.950 . S
H19 C20 0.949 . S
C20 H19 0.949 . S
C20 C21 1.395 . S
C20 C22 1.391 . S
C21 C20 1.395 . S
C21 C24 1.390 . S
C22 C20 1.391 . S
C22 C26 1.387 . S
C22 C27 1.491 . S
H23 C24 0.950 . S
C24 C21 1.390 . S
C24 H23 0.950 . S
C24 C25 1.378 . S
C25 C24 1.378 . S
C25 C26 1.409 . S
C26 C22 1.387 . S
C26 C25 1.409 . S
C26 H28 0.951 . S
C27 C22 1.491 . S
C27 C29 1.382 . S
C27 C31 1.404 . S
H28 C26 0.951 . S
C29 C27 1.382 . S
C29 C30 1.390 . S
C29 H34 0.949 . S
C30 C29 1.390 . S
C30 C35 1.399 . S
C31 C27 1.404 . S
C31 H32 0.950 . S
C31 C33 1.375 . S
H32 C31 0.950 . S
C33 C31 1.375 . S
C33 C35 1.382 . S
C33 H37 0.950 . S
H34 C29 0.949 . S
C35 C30 1.399 . S
C35 C33 1.382 . S
C35 H36 0.952 . S
H36 C35 0.952 . S
H37 C33 0.950 . S
H38 C39 0.949 . S
C39 H38 0.949 . S
C39 C40 1.395 . S
C39 C41 1.391 1_455 S
C40 C39 1.395 . S
C40 C43 1.390 1_455 S
C41 C39 1.391 1_655 S
C41 C45 1.387 . S
C41 C46 1.491 1_554 S
H42 C43 0.950 . S
C43 C40 1.390 1_655 S
C43 H42 0.950 . S
C43 C44 1.378 . S
C44 C43 1.378 . S
C44 C45 1.409 . S
C45 C41 1.387 . S
C45 C44 1.409 . S
C45 H47 0.951 1_554 S
C46 C41 1.491 1_556 S
C46 C48 1.382 1_655 S
C46 C50 1.404 . S
H47 C45 0.951 1_556 S
C48 C46 1.382 1_455 S
C48 C49 1.390 . S
C48 H53 0.949 1_556 S
C49 C48 1.390 . S
C49 C54 1.399 . S
C50 C46 1.404 . S
C50 H51 0.955 . S
C50 C52 1.370 1_655 S
H51 C50 0.955 . S
C52 C50 1.370 1_455 S
C52 C54 1.382 . S
C52 H56 0.950 . S
H53 C48 0.949 1_554 S
C54 C49 1.399 . S
C54 C52 1.382 . S
C54 H55 0.952 . S
H55 C54 0.952 . S
H56 C52 0.950 . S
H57 C58 0.949 . S
C58 H57 0.949 . S
C58 C59 1.395 . S
C58 C60 1.391 . S
C59 C58 1.395 . S
C59 C62 1.390 . S
C60 C58 1.391 . S
C60 C64 1.387 . S
C60 C65 1.491 . S
H61 C62 0.950 . S
C62 C59 1.390 . S
C62 H61 0.950 . S
C62 C63 1.378 . S
C63 C62 1.378 . S
C63 C64 1.409 . S
C64 C60 1.387 . S
C64 C63 1.409 . S
C64 H66 0.951 . S
C65 C60 1.491 . S
C65 C67 1.382 . S
C65 C69 1.404 . S
H66 C64 0.951 . S
C67 C65 1.382 . S
C67 C68 1.390 . S
C67 H72 0.949 . S
C68 C67 1.390 . S
C68 C73 1.399 . S
C69 C65 1.404 . S
C69 H70 0.950 . S
C69 C71 1.375 . S
H70 C69 0.950 . S
C71 C69 1.375 . S
C71 C73 1.382 . S
C71 H75 0.950 . S
H72 C67 0.949 . S
C73 C68 1.399 . S
C73 C71 1.382 . S
C73 H74 0.952 . S
H74 C73 0.952 . S
H75 C71 0.950 . S
H76 C77 0.949 . S
C77 H76 0.949 . S
C77 C78 1.395 . S
C77 C79 1.391 . S
C78 C77 1.395 . S
C78 C81 1.390 . S
C79 C77 1.391 . S
C79 C83 1.387 . S
C79 C84 1.491 . S
H80 C81 0.950 . S
C81 C78 1.390 . S
C81 H80 0.950 . S
C81 C82 1.378 . S
C82 C81 1.378 . S
C82 C83 1.409 . S
C83 C79 1.387 . S
C83 C82 1.409 . S
C83 H85 0.951 . S
C84 C79 1.491 . S
C84 C86 1.382 . S
C84 C88 1.404 . S
H85 C83 0.951 . S
C86 C84 1.382 . S
C86 C87 1.390 . S
C86 H91 0.949 . S
C87 C86 1.390 . S
C87 C92 1.399 . S
C88 C84 1.404 . S
C88 H89 0.950 . S
C88 C90 1.375 . S
H89 C88 0.950 . S
C90 C88 1.375 . S
C90 C92 1.382 . S
C90 H94 0.950 . S
H91 C86 0.949 . S
C92 C87 1.399 . S
C92 C90 1.382 . S
C92 H93 0.952 . S
H93 C92 0.952 . S
H94 C90 0.950 . S
H95 C96 0.949 . S
C96 H95 0.949 . S
C96 C97 1.395 . S
C96 C98 1.391 . S
C97 C96 1.395 . S
C97 C100 1.390 . S
C98 C96 1.391 . S
C98 C102 1.387 . S
C98 C103 1.491 . S
H99 C100 0.950 . S
C100 C97 1.390 . S
C100 H99 0.950 . S
C100 C101 1.378 . S
C101 C100 1.378 . S
C101 C102 1.409 . S
C102 C98 1.387 . S
C102 C101 1.409 . S
C102 H104 0.951 . S
C103 C98 1.491 . S
C103 C105 1.382 . S
C103 C107 1.404 . S
H104 C102 0.951 . S
C105 C103 1.382 . S
C105 C106 1.390 . S
C105 H110 0.949 . S
C106 C105 1.390 . S
C106 C111 1.399 . S
C107 C103 1.404 . S
C107 H108 0.950 . S
C107 C109 1.375 . S
H108 C107 0.950 . S
C109 C107 1.375 . S
C109 C111 1.382 . S
C109 H113 0.950 . S
H110 C105 0.949 . S
C111 C106 1.399 . S
C111 C109 1.382 . S
C111 H112 0.952 . S
H112 C111 0.952 . S
H113 C109 0.950 . S
H114 C115 0.949 1_455 S
C115 H114 0.949 1_655 S
C115 C116 1.395 . S
C115 C117 1.391 . S
C116 C115 1.395 . S
C116 C119 1.390 . S
C117 C115 1.391 . S
C117 C121 1.387 . S
C117 C122 1.491 . S
H118 C119 0.950 . S
C119 C116 1.390 . S
C119 H118 0.950 . S
C119 C120 1.378 . S
C120 C119 1.378 . S
C120 C121 1.409 . S
C121 C117 1.387 . S
C121 C120 1.409 . S
C121 H123 0.951 . S
C122 C117 1.491 . S
C122 C124 1.382 1_655 S
C122 C126 1.404 . S
H123 C121 0.951 . S
C124 C122 1.382 1_455 S
C124 C125 1.390 . S
C124 H129 0.949 . S
C125 C124 1.390 . S
C125 C130 1.399 . S
C126 C122 1.404 . S
C126 H127 0.950 . S
C126 C128 1.375 . S
H127 C126 0.950 . S
C128 C126 1.375 . S
C128 C130 1.382 1_655 S
C128 H132 0.950 . S
H129 C124 0.949 . S
C130 C125 1.399 . S
C130 C128 1.382 1_455 S
C130 H131 0.952 . S
H131 C130 0.952 . S
H132 C128 0.950 . S
H133 C134 0.949 . S
C134 H133 0.949 . S
C134 C135 1.395 . S
C134 C136 1.391 . S
C135 C134 1.395 . S
C135 C138 1.390 . S
C136 C134 1.391 . S
C136 C140 1.387 . S
C136 C141 1.491 . S
H137 C138 0.950 . S
C138 C135 1.390 . S
C138 H137 0.950 . S
C138 C139 1.378 . S
C139 C138 1.378 . S
C139 C140 1.409 . S
C140 C136 1.387 . S
C140 C139 1.409 . S
C140 H142 0.951 . S
C141 C136 1.491 . S
C141 C143 1.382 . S
C141 C145 1.404 . S
H142 C140 0.951 . S
C143 C141 1.382 . S
C143 C144 1.390 . S
C143 H148 0.949 . S
C144 C143 1.390 . S
C144 C149 1.399 . S
C145 C141 1.404 . S
C145 H146 0.950 . S
C145 C147 1.375 . S
H146 C145 0.950 . S
C147 C145 1.375 . S
C147 C149 1.382 . S
C147 H151 0.950 . S
H148 C143 0.949 . S
C149 C144 1.399 . S
C149 C147 1.382 . S
C149 H150 0.952 . S
H150 C149 0.952 . S
H151 C147 0.950 . S
H152 C153 0.949 . S
C153 H152 0.949 . S
C153 C154 1.395 . S
C153 C155 1.391 . S
C154 C153 1.395 . S
C154 C157 1.390 . S
C155 C153 1.391 . S
C155 C159 1.387 . S
C155 C160 1.491 . S
H156 C157 0.950 . S
C157 C154 1.390 . S
C157 H156 0.950 . S
C157 C158 1.378 . S
C158 C157 1.378 . S
C158 C159 1.409 . S
C159 C155 1.387 . S
C159 C158 1.409 . S
C159 H161 0.951 . S
C160 C155 1.491 . S
C160 C162 1.382 . S
C160 C164 1.404 . S
H161 C159 0.951 . S
C162 C160 1.382 . S
C162 C163 1.390 . S
C162 H167 0.949 . S
C163 C162 1.390 . S
C163 C168 1.399 . S
C164 C160 1.404 . S
C164 H165 0.950 . S
C164 C166 1.375 . S
H165 C164 0.950 . S
C166 C164 1.375 . S
C166 C168 1.382 . S
C166 H170 0.950 . S
H167 C162 0.949 . S
C168 C163 1.399 . S
C168 C166 1.382 . S
C168 H169 0.952 . S
H169 C168 0.952 . S
H170 C166 0.950 . S
H171 C172 0.949 . S
C172 H171 0.949 . S
C172 C173 1.395 . S
C172 C174 1.391 . S
C173 C172 1.395 . S
C173 C176 1.390 . S
C174 C172 1.391 . S
C174 C178 1.387 . S
C174 C179 1.491 . S
H175 C176 0.938 1_545 S
C176 C173 1.390 . S
C176 H175 0.938 1_565 S
C176 C177 1.378 . S
C177 C176 1.378 . S
C177 C178 1.409 . S
C178 C174 1.387 . S
C178 C177 1.409 . S
C178 H180 0.951 . S
C179 C174 1.491 . S
C179 C181 1.382 . S
C179 C183 1.404 . S
H180 C178 0.951 . S
C181 C179 1.382 . S
C181 C182 1.390 . S
C181 H186 0.949 . S
C182 C181 1.390 . S
C182 C187 1.399 . S
C183 C179 1.404 . S
C183 H184 0.950 . S
C183 C185 1.375 . S
H184 C183 0.950 . S
C185 C183 1.375 . S
C185 C187 1.382 . S
C185 H189 0.950 . S
H186 C181 0.949 . S
C187 C182 1.399 . S
C187 C185 1.382 . S
C187 H188 0.952 . S
H188 C187 0.952 . S
H189 C185 0.950 . S
H190 C191 0.949 . S
C191 H190 0.949 . S
C191 C192 1.395 . S
C191 C193 1.391 . S
C192 C191 1.395 . S
C192 C195 1.390 . S
C193 C191 1.391 . S
C193 C197 1.387 . S
C193 C198 1.491 . S
H194 C195 0.950 . S
C195 C192 1.390 . S
C195 H194 0.950 . S
C195 C196 1.378 . S
C196 C195 1.378 . S
C196 C197 1.409 . S
C197 C193 1.387 . S
C197 C196 1.409 . S
C197 H199 0.951 . S
C198 C193 1.491 . S
C198 C200 1.382 . S
C198 C202 1.404 . S
H199 C197 0.951 . S
C200 C198 1.382 . S
C200 C201 1.390 . S
C200 H205 0.949 . S
C201 C200 1.390 . S
C201 C206 1.399 . S
C202 C198 1.404 . S
C202 H203 0.950 . S
C202 C204 1.375 . S
H203 C202 0.950 . S
C204 C202 1.375 . S
C204 C206 1.382 . S
C204 H208 0.950 . S
H205 C200 0.949 . S
C206 C201 1.399 . S
C206 C204 1.382 . S
C206 H207 0.952 . S
H207 C206 0.952 . S
H208 C204 0.950 . S
H209 C210 0.949 . S
C210 H209 0.949 . S
C210 C211 1.395 . S
C210 C212 1.391 . S
C211 C210 1.395 . S
C211 C214 1.390 . S
C212 C210 1.391 . S
C212 C216 1.387 . S
C212 C217 1.491 . S
H213 C214 0.950 . S
C214 C211 1.390 . S
C214 H213 0.950 . S
C214 C215 1.378 . S
C215 C214 1.378 . S
C215 C216 1.409 . S
C216 C212 1.387 . S
C216 C215 1.409 . S
C216 H218 0.951 . S
C217 C212 1.491 . S
C217 C219 1.382 . S
C217 C221 1.404 . S
H218 C216 0.951 . S
C219 C217 1.382 . S
C219 C220 1.390 . S
C219 H224 0.949 . S
C220 C219 1.390 . S
C220 C225 1.399 . S
C221 C217 1.404 . S
C221 H222 0.950 . S
C221 C223 1.375 . S
H222 C221 0.950 . S
C223 C221 1.375 . S
C223 C225 1.382 . S
C223 H227 0.950 . S
H224 C219 0.949 . S
C225 C220 1.399 . S
C225 C223 1.382 . S
C225 H226 0.952 . S
H226 C225 0.952 . S
H227 C223 0.950 . S
H228 C229 0.949 . S
C229 H228 0.949 . S
C229 C230 1.395 . S
C229 C231 1.391 . S
C230 C229 1.395 . S
C230 C233 1.390 . S
C231 C229 1.391 . S
C231 C235 1.387 . S
C231 C236 1.491 . S
H232 C233 0.950 . S
C233 C230 1.390 . S
C233 H232 0.950 . S
C233 C234 1.378 . S
C234 C233 1.378 . S
C234 C235 1.409 . S
C235 C231 1.387 . S
C235 C234 1.409 . S
C235 H237 0.951 . S
C236 C231 1.491 . S
C236 C238 1.382 . S
C236 C240 1.404 . S
H237 C235 0.951 . S
C238 C236 1.382 . S
C238 C239 1.390 . S
C238 H243 0.949 . S
C239 C238 1.390 . S
C239 C244 1.399 . S
C240 C236 1.404 . S
C240 H241 0.950 . S
C240 C242 1.375 . S
H241 C240 0.950 . S
C242 C240 1.375 . S
C242 C244 1.382 . S
C242 H246 0.950 . S
H243 C238 0.949 . S
C244 C239 1.399 . S
C244 C242 1.382 . S
C244 H245 0.952 . S
H245 C244 0.952 . S
H246 C242 0.950 . S
H247 C248 0.933 1_554 S
C248 H247 0.933 1_556 S
C248 C249 1.395 . S
C248 C250 1.391 . S
C249 C248 1.395 . S
C249 C252 1.390 . S
C250 C248 1.391 . S
C250 C254 1.387 . S
C250 C255 1.491 . S
H251 C252 0.950 . S
C252 C249 1.390 . S
C252 H251 0.950 . S
C252 C253 1.378 . S
C253 C252 1.378 . S
C253 C254 1.409 . S
C254 C250 1.387 . S
C254 C253 1.409 . S
C254 H256 0.951 . S
C255 C250 1.491 . S
C255 C257 1.382 1_556 S
C255 C259 1.404 . S
H256 C254 0.951 . S
C257 C255 1.382 1_554 S
C257 C258 1.390 . S
C257 H262 0.949 . S
C258 C257 1.390 . S
C258 C263 1.399 . S
C259 C255 1.404 . S
C259 H260 0.950 . S
C259 C261 1.375 . S
H260 C259 0.950 . S
C261 C259 1.375 . S
C261 C263 1.382 1_556 S
C261 H265 0.950 . S
H262 C257 0.949 . S
C263 C258 1.399 . S
C263 C261 1.382 1_554 S
C263 H264 0.952 . S
H264 C263 0.952 . S
H265 C261 0.950 . S
H266 C267 0.949 . S
C267 H266 0.949 . S
C267 C268 1.395 . S
C267 C269 1.391 . S
C268 C267 1.395 . S
C268 C271 1.390 . S
C269 C267 1.391 . S
C269 C273 1.387 . S
C269 C274 1.491 . S
H270 C271 0.950 . S
C271 C268 1.390 . S
C271 H270 0.950 . S
C271 C272 1.378 . S
C272 C271 1.378 . S
C272 C273 1.409 . S
C273 C269 1.387 . S
C273 C272 1.409 . S
C273 H275 0.951 . S
C274 C269 1.491 . S
C274 C276 1.382 . S
C274 C278 1.404 . S
H275 C273 0.951 . S
C276 C274 1.382 . S
C276 C277 1.390 . S
C276 H281 0.949 . S
C277 C276 1.390 . S
C277 C282 1.399 . S
C278 C274 1.404 . S
C278 H279 0.950 . S
C278 C280 1.375 . S
H279 C278 0.950 . S
C280 C278 1.375 . S
C280 C282 1.382 . S
C280 H284 0.950 . S
H281 C276 0.949 . S
C282 C277 1.399 . S
C282 C280 1.382 . S
C282 H283 0.952 . S
H283 C282 0.952 . S
H284 C280 0.950 . S
H285 C286 0.949 . S
C286 H285 0.949 . S
C286 C287 1.395 . S
C286 C288 1.391 . S
C287 C286 1.395 . S
C287 C290 1.390 . S
C288 C286 1.391 . S
C288 C292 1.387 . S
C288 C293 1.491 . S
H289 C290 0.950 . S
C290 C287 1.390 . S
C290 H289 0.950 . S
C290 C291 1.378 . S
C291 C290 1.378 . S
C291 C292 1.409 . S
C292 C288 1.387 . S
C292 C291 1.409 . S
C292 H294 0.951 . S
C293 C288 1.491 . S
C293 C295 1.382 . S
C293 C297 1.404 . S
H294 C292 0.951 . S
C295 C293 1.382 . S
C295 C296 1.390 . S
C295 H300 0.949 . S
C296 C295 1.390 . S
C296 C301 1.399 . S
C297 C293 1.404 . S
C297 H298 0.950 . S
C297 C299 1.375 . S
H298 C297 0.950 . S
C299 C297 1.375 . S
C299 C301 1.382 . S
C299 H303 0.950 . S
H300 C295 0.949 . S
C301 C296 1.399 . S
C301 C299 1.382 . S
C301 H302 0.952 . S
H302 C301 0.952 . S
H303 C299 0.950 . S
Mn304 O309 2.095 . S
Mn304 O319 2.162 . S
Mn304 O320 2.297 . S
Mn304 O328 2.385 . S
Mn304 O329 2.209 . S
Mn304 O330 2.094 . S
Mn305 O310 2.143 . S
Mn305 N312 2.202 1_554 S
Mn305 N321 2.251 1_554 S
Mn305 O329 2.249 . S
Mn305 O331 2.162 . S
C306 O328 1.234 . S
C306 O329 1.283 . S
C307 O319 1.281 . S
C307 O320 1.236 . S
C308 O330 1.240 . S
C308 O331 1.264 . S
O309 Mn304 2.095 . S
O309 C318 1.250 . S
O310 Mn305 2.143 . S
O310 C318 1.258 . S
C311 N312 1.326 . S
C311 C315 1.460 . S
C311 H317 0.929 . S
N312 Mn305 2.202 1_556 S
N312 C311 1.326 . S
N312 C316 1.362 . S
C313 C314 1.258 . S
C313 C316 1.431 . S
C313 C333 1.449 . S
C314 C313 1.258 . S
C314 C315 1.477 . S
C314 H334 0.931 . S
C315 C311 1.460 . S
C315 C314 1.477 . S
C315 H335 0.930 . S
C316 N312 1.362 . S
C316 C313 1.431 . S
C316 C326 1.476 . S
H317 C311 0.929 . S
C318 O309 1.250 . S
C318 O310 1.258 . S
O319 Mn304 2.162 . S
O319 C307 1.281 . S
O320 Mn304 2.297 . S
O320 C307 1.236 . S
N321 Mn305 2.251 1_556 S
N321 C322 1.328 . S
N321 C326 1.318 . S
C322 N321 1.328 . S
C322 C323 1.457 . S
C322 H327 0.950 . S
C323 C322 1.457 . S
C323 C324 1.291 . S
C323 H336 0.931 . S
C324 C323 1.291 . S
C324 C325 1.373 . S
C324 H337 0.929 . S
C325 C324 1.373 . S
C325 C326 1.396 . S
C325 C332 1.403 . S
C326 C316 1.476 . S
C326 N321 1.318 . S
C326 C325 1.396 . S
H327 C322 0.950 . S
O328 Mn304 2.385 . S
O328 C306 1.234 . S
O329 Mn304 2.209 . S
O329 Mn305 2.249 . S
O329 C306 1.283 . S
O330 Mn304 2.094 . S
O330 C308 1.240 . S
O331 Mn305 2.162 . S
O331 C308 1.264 . S
C332 C325 1.403 . S
C332 C333 1.399 . S
C332 H338 0.929 . S
C333 C313 1.449 . S
C333 C332 1.399 . S
C333 H339 0.930 . S
H334 C314 0.931 . S
H335 C315 0.930 . S
H336 C323 0.931 . S
H337 C324 0.929 . S
H338 C332 0.929 . S
H339 C333 0.930 . S
Mn340 O345 2.095 . S
Mn340 O355 2.162 . S
Mn340 O356 2.297 . S
Mn340 O364 2.385 . S
Mn340 O365 2.209 . S
Mn340 O366 2.094 . S
Mn341 O346 2.121 . S
Mn341 N348 2.257 . S
Mn341 N357 2.282 . S
Mn341 O365 2.215 . S
Mn341 O367 2.117 . S
C342 O364 1.234 . S
C342 O365 1.283 . S
C343 O355 1.281 . S
C343 O356 1.236 . S
C344 O366 1.240 . S
C344 O367 1.264 . S
O345 Mn340 2.095 . S
O345 C354 1.250 . S
O346 Mn341 2.121 . S
O346 C354 1.258 . S
C347 N348 1.326 . S
C347 C351 1.460 . S
C347 H353 0.929 . S
N348 Mn341 2.257 . S
N348 C347 1.326 . S
N348 C352 1.362 . S
C349 C350 1.258 . S
C349 C352 1.431 . S
C349 C369 1.449 . S
C350 C349 1.258 . S
C350 C351 1.477 . S
C350 H370 0.931 . S
C351 C347 1.460 . S
C351 C350 1.477 . S
C351 H371 0.930 . S
C352 N348 1.362 . S
C352 C349 1.431 . S
C352 C362 1.476 . S
H353 C347 0.929 . S
C354 O345 1.250 . S
C354 O346 1.258 . S
O355 Mn340 2.162 . S
O355 C343 1.281 . S
O356 Mn340 2.297 . S
O356 C343 1.236 . S
N357 Mn341 2.282 . S
N357 C358 1.328 . S
N357 C362 1.318 . S
C358 N357 1.328 . S
C358 C359 1.457 . S
C358 H363 0.929 . S
C359 C358 1.457 . S
C359 C360 1.291 . S
C359 H372 0.931 . S
C360 C359 1.291 . S
C360 C361 1.373 . S
C360 H373 0.929 . S
C361 C360 1.373 . S
C361 C362 1.396 . S
C361 C368 1.403 . S
C362 C352 1.476 . S
C362 N357 1.318 . S
C362 C361 1.396 . S
H363 C358 0.929 . S
O364 Mn340 2.385 . S
O364 C342 1.234 . S
O365 Mn340 2.209 . S
O365 Mn341 2.215 . S
O365 C342 1.283 . S
O366 Mn340 2.094 . S
O366 C344 1.240 . S
O367 Mn341 2.117 . S
O367 C344 1.264 . S
C368 C361 1.403 . S
C368 C369 1.399 . S
C368 H374 0.929 . S
C369 C349 1.449 . S
C369 C368 1.399 . S
C369 H375 0.930 . S
H370 C350 0.931 . S
H371 C351 0.930 . S
H372 C359 0.931 . S
H373 C360 0.929 . S
H374 C368 0.929 . S
H375 C369 0.930 . S
Mn376 O381 2.095 1_554 S
Mn376 O391 2.162 . S
Mn376 O392 2.297 1_554 S
Mn376 O400 2.385 . S
Mn376 O401 2.209 1_554 S
Mn376 O402 2.094 . S
Mn377 O382 2.121 . S
Mn377 N384 2.257 . S
Mn377 N393 2.282 1_556 S
Mn377 O401 2.215 . S
Mn377 O403 2.117 1_556 S
C378 O400 1.234 . S
C378 O401 1.283 1_554 S
C379 O391 1.282 . S
C379 O392 1.234 1_554 S
C380 O402 1.240 . S
C380 O403 1.264 . S
O381 Mn376 2.095 1_556 S
O381 C390 1.250 . S
O382 Mn377 2.121 . S
O382 C390 1.258 . S
C383 N384 1.326 . S
C383 C387 1.460 . S
C383 H389 0.929 . S
N384 Mn377 2.257 . S
N384 C383 1.326 . S
N384 C388 1.362 . S
C385 C386 1.258 . S
C385 C388 1.431 . S
C385 C405 1.449 . S
C386 C385 1.258 . S
C386 C387 1.477 . S
C386 H406 0.931 . S
C387 C383 1.460 . S
C387 C386 1.477 . S
C387 H407 0.930 . S
C388 N384 1.362 . S
C388 C385 1.431 . S
C388 C398 1.476 . S
H389 C383 0.929 . S
C390 O381 1.250 . S
C390 O382 1.258 . S
O391 Mn376 2.162 . S
O391 C379 1.282 . S
O392 Mn376 2.297 1_556 S
O392 C379 1.234 1_556 S
N393 Mn377 2.282 1_554 S
N393 C394 1.328 . S
N393 C398 1.318 1_554 S
C394 N393 1.328 . S
C394 C395 1.457 . S
C394 H399 0.929 . S
C395 C394 1.457 . S
C395 C396 1.291 . S
C395 H408 0.931 . S
C396 C395 1.291 . S
C396 C397 1.373 1_554 S
C396 H409 0.929 . S
C397 C396 1.373 1_556 S
C397 C398 1.396 . S
C397 C404 1.403 . S
C398 C388 1.476 . S
C398 N393 1.318 1_556 S
C398 C397 1.396 . S
H399 C394 0.929 . S
O400 Mn376 2.385 . S
O400 C378 1.234 . S
O401 Mn376 2.209 1_556 S
O401 Mn377 2.215 . S
O401 C378 1.283 1_556 S
O402 Mn376 2.094 . S
O402 C380 1.240 . S
O403 Mn377 2.117 1_554 S
O403 C380 1.264 . S
C404 C397 1.403 . S
C404 C405 1.399 . S
C404 H410 0.929 . S
C405 C385 1.449 . S
C405 C404 1.399 . S
C405 H411 0.930 . S
H406 C386 0.931 . S
H407 C387 0.930 . S
H408 C395 0.931 . S
H409 C396 0.929 . S
H410 C404 0.929 . S
H411 C405 0.930 . S
Mn412 O417 2.095 . S
Mn412 O427 2.162 . S
Mn412 O428 2.297 . S
Mn412 O436 2.385 . S
Mn412 O437 2.209 1_545 S
Mn412 O438 2.094 . S
Mn413 O418 2.109 1_565 S
Mn413 N420 2.257 . S
Mn413 N429 2.282 . S
Mn413 O437 2.215 . S
Mn413 O439 2.117 1_565 S
C414 O436 1.234 1_565 S
C414 O437 1.283 . S
C415 O427 1.281 . S
C415 O428 1.236 . S
C416 O438 1.240 . S
C416 O439 1.264 . S
O417 Mn412 2.095 . S
O417 C426 1.250 . S
O418 Mn413 2.109 1_545 S
O418 C426 1.298 . S
C419 N420 1.326 . S
C419 C423 1.460 . S
C419 H425 0.929 . S
N420 Mn413 2.257 . S
N420 C419 1.326 . S
N420 C424 1.362 . S
C421 C422 1.258 . S
C421 C424 1.431 . S
C421 C441 1.449 . S
C422 C421 1.258 . S
C422 C423 1.477 . S
C422 H442 0.931 . S
C423 C419 1.460 . S
C423 C422 1.477 . S
C423 H443 0.930 . S
C424 N420 1.362 . S
C424 C421 1.431 . S
C424 C434 1.476 . S
H425 C419 0.929 . S
C426 O417 1.250 . S
C426 O418 1.298 . S
O427 Mn412 2.162 . S
O427 C415 1.281 . S
O428 Mn412 2.297 . S
O428 C415 1.236 . S
N429 Mn413 2.282 . S
N429 C430 1.328 . S
N429 C434 1.318 . S
C430 N429 1.328 . S
C430 C431 1.457 . S
C430 H435 0.929 . S
C431 C430 1.457 . S
C431 C432 1.291 . S
C431 H444 0.931 . S
C432 C431 1.291 . S
C432 C433 1.373 . S
C432 H445 0.929 . S
C433 C432 1.373 . S
C433 C434 1.396 . S
C433 C440 1.403 . S
C434 C424 1.476 . S
C434 N429 1.318 . S
C434 C433 1.396 . S
H435 C430 0.929 . S
O436 Mn412 2.385 . S
O436 C414 1.234 1_545 S
O437 Mn412 2.209 1_565 S
O437 Mn413 2.215 . S
O437 C414 1.283 . S
O438 Mn412 2.094 . S
O438 C416 1.240 . S
O439 Mn413 2.117 1_545 S
O439 C416 1.264 . S
C440 C433 1.403 . S
C440 C441 1.399 . S
C440 H446 0.929 . S
C441 C421 1.449 . S
C441 C440 1.399 . S
C441 H447 0.930 . S
H442 C422 0.931 . S
H443 C423 0.930 . S
H444 C431 0.931 . S
H445 C432 0.929 . S
H446 C440 0.929 . S
H447 C441 0.930 . S
Mn448 O453 2.095 . S
Mn448 O463 2.162 . S
Mn448 O464 2.297 . S
Mn448 O472 2.385 . S
Mn448 O473 2.209 . S
Mn448 O474 2.094 . S
Mn449 O454 2.121 . S
Mn449 N456 2.257 . S
Mn449 N465 2.282 . S
Mn449 O473 2.215 . S
Mn449 O475 2.117 . S
C450 O472 1.234 . S
C450 O473 1.283 . S
C451 O463 1.281 . S
C451 O464 1.236 . S
C452 O474 1.240 . S
C452 O475 1.264 . S
O453 Mn448 2.095 . S
O453 C462 1.250 . S
O454 Mn449 2.121 . S
O454 C462 1.258 . S
C455 N456 1.326 . S
C455 C459 1.460 . S
C455 H461 0.929 . S
N456 Mn449 2.257 . S
N456 C455 1.326 . S
N456 C460 1.362 . S
C457 C458 1.258 . S
C457 C460 1.431 . S
C457 C477 1.449 . S
C458 C457 1.258 . S
C458 C459 1.477 . S
C458 H478 0.931 . S
C459 C455 1.460 . S
C459 C458 1.477 . S
C459 H479 0.930 . S
C460 N456 1.362 . S
C460 C457 1.431 . S
C460 C470 1.476 . S
H461 C455 0.929 . S
C462 O453 1.250 . S
C462 O454 1.258 . S
O463 Mn448 2.162 . S
O463 C451 1.281 . S
O464 Mn448 2.297 . S
O464 C451 1.236 . S
N465 Mn449 2.282 . S
N465 C466 1.328 . S
N465 C470 1.318 . S
C466 N465 1.328 . S
C466 C467 1.457 . S
C466 H471 0.929 . S
C467 C466 1.457 . S
C467 C468 1.291 . S
C467 H480 0.931 . S
C468 C467 1.291 . S
C468 C469 1.373 . S
C468 H481 0.929 . S
C469 C468 1.373 . S
C469 C470 1.396 . S
C469 C476 1.403 . S
C470 C460 1.476 . S
C470 N465 1.318 . S
C470 C469 1.396 . S
H471 C466 0.929 . S
O472 Mn448 2.385 . S
O472 C450 1.234 . S
O473 Mn448 2.209 . S
O473 Mn449 2.215 . S
O473 C450 1.283 . S
O474 Mn448 2.094 . S
O474 C452 1.240 . S
O475 Mn449 2.117 . S
O475 C452 1.264 . S
C476 C469 1.403 . S
C476 C477 1.399 . S
C476 H482 0.929 . S
C477 C457 1.449 . S
C477 C476 1.399 . S
C477 H483 0.930 . S
H478 C458 0.931 . S
H479 C459 0.930 . S
H480 C467 0.931 . S
H481 C468 0.929 . S
H482 C476 0.929 . S
H483 C477 0.930 . S
Mn484 O489 2.095 . S
Mn484 O499 2.162 . S
Mn484 O500 2.297 . S
Mn484 O508 2.385 . S
Mn484 O509 2.209 . S
Mn484 O510 2.094 . S
Mn485 O490 2.121 . S
Mn485 N492 2.257 . S
Mn485 N501 2.282 . S
Mn485 O509 2.215 . S
Mn485 O511 2.117 . S
C486 O508 1.234 . S
C486 O509 1.283 . S
C487 O499 1.281 . S
C487 O500 1.236 . S
C488 O510 1.240 . S
C488 O511 1.264 . S
O489 Mn484 2.095 . S
O489 C498 1.250 . S
O490 Mn485 2.121 . S
O490 C498 1.258 . S
C491 N492 1.326 . S
C491 C495 1.460 . S
C491 H497 0.929 . S
N492 Mn485 2.257 . S
N492 C491 1.326 . S
N492 C496 1.362 . S
C493 C494 1.258 . S
C493 C496 1.431 . S
C493 C513 1.449 . S
C494 C493 1.258 . S
C494 C495 1.477 . S
C494 H514 0.931 . S
C495 C491 1.460 . S
C495 C494 1.477 . S
C495 H515 0.930 . S
C496 N492 1.362 . S
C496 C493 1.431 . S
C496 C506 1.476 . S
H497 C491 0.929 . S
C498 O489 1.250 . S
C498 O490 1.258 . S
O499 Mn484 2.162 . S
O499 C487 1.281 . S
O500 Mn484 2.297 . S
O500 C487 1.236 . S
N501 Mn485 2.282 . S
N501 C502 1.328 . S
N501 C506 1.318 . S
C502 N501 1.328 . S
C502 C503 1.457 . S
C502 H507 0.929 . S
C503 C502 1.457 . S
C503 C504 1.291 . S
C503 H516 0.931 . S
C504 C503 1.291 . S
C504 C505 1.373 . S
C504 H517 0.929 . S
C505 C504 1.373 . S
C505 C506 1.396 . S
C505 C512 1.403 . S
C506 C496 1.476 . S
C506 N501 1.318 . S
C506 C505 1.396 . S
H507 C502 0.929 . S
O508 Mn484 2.385 . S
O508 C486 1.234 . S
O509 Mn484 2.209 . S
O509 Mn485 2.215 . S
O509 C486 1.283 . S
O510 Mn484 2.094 . S
O510 C488 1.240 . S
O511 Mn485 2.117 . S
O511 C488 1.264 . S
C512 C505 1.403 . S
C512 C513 1.399 . S
C512 H518 0.929 . S
C513 C493 1.449 . S
C513 C512 1.399 . S
C513 H519 0.930 . S
H514 C494 0.931 . S
H515 C495 0.930 . S
H516 C503 0.931 . S
H517 C504 0.929 . S
H518 C512 0.929 . S
H519 C513 0.930 . S
Mn520 O525 2.095 . S
Mn520 O535 2.162 . S
Mn520 O536 2.297 . S
Mn520 O544 2.385 . S
Mn520 O545 2.209 . S
Mn520 O546 2.094 . S
Mn521 O526 2.121 . S
Mn521 N528 2.257 . S
Mn521 N537 2.282 . S
Mn521 O545 2.215 . S
Mn521 O547 2.117 . S
C522 O544 1.234 . S
C522 O545 1.283 . S
C523 O535 1.281 . S
C523 O536 1.236 . S
C524 O546 1.240 . S
C524 O547 1.264 . S
O525 Mn520 2.095 . S
O525 C534 1.250 . S
O526 Mn521 2.121 . S
O526 C534 1.258 . S
C527 N528 1.326 . S
C527 C531 1.460 . S
C527 H533 0.929 . S
N528 Mn521 2.257 . S
N528 C527 1.326 . S
N528 C532 1.362 . S
C529 C530 1.258 . S
C529 C532 1.431 . S
C529 C549 1.449 . S
C530 C529 1.258 . S
C530 C531 1.477 . S
C530 H550 0.931 . S
C531 C527 1.460 . S
C531 C530 1.477 . S
C531 H551 0.930 . S
C532 N528 1.362 . S
C532 C529 1.431 . S
C532 C542 1.476 . S
H533 C527 0.929 . S
C534 O525 1.250 . S
C534 O526 1.258 . S
O535 Mn520 2.162 . S
O535 C523 1.281 . S
O536 Mn520 2.297 . S
O536 C523 1.236 . S
N537 Mn521 2.282 . S
N537 C538 1.328 . S
N537 C542 1.318 . S
C538 N537 1.328 . S
C538 C539 1.457 . S
C538 H543 0.929 . S
C539 C538 1.457 . S
C539 C540 1.291 . S
C539 H552 0.931 . S
C540 C539 1.291 . S
C540 C541 1.373 . S
C540 H553 0.929 . S
C541 C540 1.373 . S
C541 C542 1.396 . S
C541 C548 1.403 . S
C542 C532 1.476 . S
C542 N537 1.318 . S
C542 C541 1.396 . S
H543 C538 0.929 . S
O544 Mn520 2.385 . S
O544 C522 1.234 . S
O545 Mn520 2.209 . S
O545 Mn521 2.215 . S
O545 C522 1.283 . S
O546 Mn520 2.094 . S
O546 C524 1.240 . S
O547 Mn521 2.117 . S
O547 C524 1.264 . S
C548 C541 1.403 . S
C548 C549 1.399 . S
C548 H554 0.929 . S
C549 C529 1.449 . S
C549 C548 1.399 . S
C549 H555 0.930 . S
H550 C530 0.931 . S
H551 C531 0.930 . S
H552 C539 0.931 . S
H553 C540 0.929 . S
H554 C548 0.929 . S
H555 C549 0.930 . S
Mn556 O561 2.095 . S
Mn556 O571 2.162 1_545 S
Mn556 O572 2.297 . S
Mn556 O580 2.385 . S
Mn556 O581 2.209 . S
Mn556 O582 2.094 . S
Mn557 O562 2.121 . S
Mn557 N564 2.257 . S
Mn557 N573 2.282 . S
Mn557 O581 2.215 . S
Mn557 O583 2.117 . S
C558 O580 1.234 . S
C558 O581 1.283 . S
C559 O571 1.281 . S
C559 O572 1.236 1_565 S
C560 O582 1.240 . S
C560 O583 1.264 . S
O561 Mn556 2.095 . S
O561 C570 1.250 . S
O562 Mn557 2.121 . S
O562 C570 1.258 . S
C563 N564 1.326 . S
C563 C567 1.460 . S
C563 H569 0.929 . S
N564 Mn557 2.257 . S
N564 C563 1.326 . S
N564 C568 1.362 . S
C565 C566 1.258 . S
C565 C568 1.431 . S
C565 C585 1.449 . S
C566 C565 1.258 . S
C566 C567 1.477 . S
C566 H586 0.931 . S
C567 C563 1.460 . S
C567 C566 1.477 . S
C567 H587 0.930 . S
C568 N564 1.362 . S
C568 C565 1.431 . S
C568 C578 1.476 . S
H569 C563 0.929 . S
C570 O561 1.250 . S
C570 O562 1.258 . S
O571 Mn556 2.162 1_565 S
O571 C559 1.281 . S
O572 Mn556 2.297 . S
O572 C559 1.236 1_545 S
N573 Mn557 2.282 . S
N573 C574 1.328 . S
N573 C578 1.318 . S
C574 N573 1.328 . S
C574 C575 1.457 . S
C574 H579 0.929 . S
C575 C574 1.457 . S
C575 C576 1.291 . S
C575 H588 0.931 . S
C576 C575 1.291 . S
C576 C577 1.373 . S
C576 H589 0.929 . S
C577 C576 1.373 . S
C577 C578 1.396 . S
C577 C584 1.403 . S
C578 C568 1.476 . S
C578 N573 1.318 . S
C578 C577 1.396 . S
H579 C574 0.929 . S
O580 Mn556 2.385 . S
O580 C558 1.234 . S
O581 Mn556 2.209 . S
O581 Mn557 2.215 . S
O581 C558 1.283 . S
O582 Mn556 2.094 . S
O582 C560 1.240 . S
O583 Mn557 2.117 . S
O583 C560 1.264 . S
C584 C577 1.403 . S
C584 C585 1.399 . S
C584 H590 0.929 . S
C585 C565 1.449 . S
C585 C584 1.399 . S
C585 H591 0.930 . S
H586 C566 0.931 . S
H587 C567 0.930 . S
H588 C575 0.931 . S
H589 C576 0.929 . S
H590 C584 0.929 . S
H591 C585 0.930 . S
Mn592 O597 2.095 . S
Mn592 O607 2.162 . S
Mn592 O608 2.297 . S
Mn592 O616 2.385 . S
Mn592 O617 2.209 1_455 S
Mn592 O618 2.094 . S
Mn593 O598 2.121 . S
Mn593 N600 2.257 . S
Mn593 N609 2.282 . S
Mn593 O617 2.215 . S
Mn593 O619 2.117 . S
C594 O616 1.234 1_655 S
C594 O617 1.283 . S
C595 O607 1.281 . S
C595 O608 1.236 . S
C596 O618 1.240 . S
C596 O619 1.264 1_455 S
O597 Mn592 2.095 . S
O597 C606 1.250 . S
O598 Mn593 2.121 . S
O598 C606 1.258 1_655 S
C599 N600 1.326 . S
C599 C603 1.460 . S
C599 H605 0.929 . S
N600 Mn593 2.257 . S
N600 C599 1.326 . S
N600 C604 1.362 . S
C601 C602 1.258 . S
C601 C604 1.431 . S
C601 C621 1.449 . S
C602 C601 1.258 . S
C602 C603 1.477 . S
C602 H622 0.931 . S
C603 C599 1.460 . S
C603 C602 1.477 . S
C603 H623 0.930 . S
C604 N600 1.362 . S
C604 C601 1.431 . S
C604 C614 1.476 . S
H605 C599 0.929 . S
C606 O597 1.250 . S
C606 O598 1.258 1_455 S
O607 Mn592 2.162 . S
O607 C595 1.281 . S
O608 Mn592 2.297 . S
O608 C595 1.236 . S
N609 Mn593 2.282 . S
N609 C610 1.328 . S
N609 C614 1.318 . S
C610 N609 1.328 . S
C610 C611 1.457 . S
C610 H615 0.929 . S
C611 C610 1.457 . S
C611 C612 1.291 . S
C611 H624 0.931 . S
C612 C611 1.291 . S
C612 C613 1.373 . S
C612 H625 0.929 . S
C613 C612 1.373 . S
C613 C614 1.396 . S
C613 C620 1.403 . S
C614 C604 1.476 . S
C614 N609 1.318 . S
C614 C613 1.396 . S
H615 C610 0.929 . S
O616 Mn592 2.385 . S
O616 C594 1.234 1_455 S
O617 Mn592 2.209 1_655 S
O617 Mn593 2.215 . S
O617 C594 1.283 . S
O618 Mn592 2.094 . S
O618 C596 1.240 . S
O619 Mn593 2.117 . S
O619 C596 1.264 1_655 S
C620 C613 1.403 . S
C620 C621 1.399 . S
C620 H626 0.929 . S
C621 C601 1.449 . S
C621 C620 1.399 . S
C621 H627 0.930 . S
H622 C602 0.931 . S
H623 C603 0.930 . S
H624 C611 0.931 . S
H625 C612 0.929 . S
H626 C620 0.929 . S
H627 C621 0.930 . S
Mn628 O633 2.095 . S
Mn628 O643 2.162 . S
Mn628 O644 2.297 . S
Mn628 O652 2.385 . S
Mn628 O653 2.209 . S
Mn628 O654 2.094 . S
Mn629 O634 2.121 . S
Mn629 N636 2.257 . S
Mn629 N645 2.282 . S
Mn629 O653 2.215 . S
Mn629 O655 2.117 . S
C630 O652 1.234 . S
C630 O653 1.283 . S
C631 O643 1.281 . S
C631 O644 1.236 . S
C632 O654 1.240 . S
C632 O655 1.264 . S
O633 Mn628 2.095 . S
O633 C642 1.250 . S
O634 Mn629 2.121 . S
O634 C642 1.258 . S
C635 N636 1.326 . S
C635 C639 1.460 . S
C635 H641 0.929 . S
N636 Mn629 2.257 . S
N636 C635 1.326 . S
N636 C640 1.362 . S
C637 C638 1.258 . S
C637 C640 1.431 . S
C637 C657 1.449 . S
C638 C637 1.258 . S
C638 C639 1.477 . S
C638 H658 0.931 . S
C639 C635 1.460 . S
C639 C638 1.477 . S
C639 H659 0.930 . S
C640 N636 1.362 . S
C640 C637 1.431 . S
C640 C650 1.476 . S
H641 C635 0.929 . S
C642 O633 1.250 . S
C642 O634 1.258 . S
O643 Mn628 2.162 . S
O643 C631 1.281 . S
O644 Mn628 2.297 . S
O644 C631 1.236 . S
N645 Mn629 2.282 . S
N645 C646 1.328 . S
N645 C650 1.318 . S
C646 N645 1.328 . S
C646 C647 1.457 . S
C646 H651 0.929 . S
C647 C646 1.457 . S
C647 C648 1.291 . S
C647 H660 0.931 . S
C648 C647 1.291 . S
C648 C649 1.373 . S
C648 H661 0.929 . S
C649 C648 1.373 . S
C649 C650 1.396 . S
C649 C656 1.403 . S
C650 C640 1.476 . S
C650 N645 1.318 . S
C650 C649 1.396 . S
H651 C646 0.929 . S
O652 Mn628 2.385 . S
O652 C630 1.234 . S
O653 Mn628 2.209 . S
O653 Mn629 2.215 . S
O653 C630 1.283 . S
O654 Mn628 2.094 . S
O654 C632 1.240 . S
O655 Mn629 2.117 . S
O655 C632 1.264 . S
C656 C649 1.403 . S
C656 C657 1.399 . S
C656 H662 0.929 . S
C657 C637 1.449 . S
C657 C656 1.399 . S
C657 H663 0.930 . S
H658 C638 0.931 . S
H659 C639 0.930 . S
H660 C647 0.931 . S
H661 C648 0.929 . S
H662 C656 0.929 . S
H663 C657 0.930 . S
Mn664 O669 2.095 1_455 S
Mn664 O679 2.162 . S
Mn664 O680 2.297 1_455 S
Mn664 O688 2.385 . S
Mn664 O689 2.209 1_455 S
Mn664 O690 2.094 . S
Mn665 O670 2.121 . S
Mn665 N672 2.257 . S
Mn665 N681 2.282 . S
Mn665 O689 2.215 . S
Mn665 O691 2.117 1_655 S
C666 O688 1.234 . S
C666 O689 1.283 1_455 S
C667 O679 1.281 . S
C667 O680 1.236 1_455 S
C668 O690 1.240 . S
C668 O691 1.264 . S
O669 Mn664 2.095 1_655 S
O669 C678 1.250 . S
O670 Mn665 2.121 . S
O670 C678 1.258 . S
C671 N672 1.326 . S
C671 C675 1.460 . S
C671 H677 0.929 . S
N672 Mn665 2.257 . S
N672 C671 1.326 . S
N672 C676 1.362 . S
C673 C674 1.258 . S
C673 C676 1.431 . S
C673 C693 1.449 . S
C674 C673 1.258 . S
C674 C675 1.477 . S
C674 H694 0.931 . S
C675 C671 1.460 . S
C675 C674 1.477 . S
C675 H695 0.930 . S
C676 N672 1.362 . S
C676 C673 1.431 . S
C676 C686 1.476 . S
H677 C671 0.929 . S
C678 O669 1.250 . S
C678 O670 1.258 . S
O679 Mn664 2.162 . S
O679 C667 1.281 . S
O680 Mn664 2.297 1_655 S
O680 C667 1.236 1_655 S
N681 Mn665 2.282 . S
N681 C682 1.328 1_655 S
N681 C686 1.318 . S
C682 N681 1.328 1_455 S
C682 C683 1.457 . S
C682 H687 0.929 . S
C683 C682 1.457 . S
C683 C684 1.291 . S
C683 H696 0.931 . S
C684 C683 1.291 . S
C684 C685 1.373 1_455 S
C684 H697 0.929 . S
C685 C684 1.373 1_655 S
C685 C686 1.396 . S
C685 C692 1.403 . S
C686 C676 1.476 . S
C686 N681 1.318 . S
C686 C685 1.396 . S
H687 C682 0.929 . S
O688 Mn664 2.385 . S
O688 C666 1.234 . S
O689 Mn664 2.209 1_655 S
O689 Mn665 2.215 . S
O689 C666 1.283 1_655 S
O690 Mn664 2.094 . S
O690 C668 1.240 . S
O691 Mn665 2.117 1_455 S
O691 C668 1.264 . S
C692 C685 1.403 . S
C692 C693 1.399 . S
C692 H698 0.929 . S
C693 C673 1.449 . S
C693 C692 1.399 . S
C693 H699 0.930 . S
H694 C674 0.931 . S
H695 C675 0.930 . S
H696 C683 0.931 . S
H697 C684 0.929 . S
H698 C692 0.929 . S
H699 C693 0.930 . S
Mn700 O705 2.095 . S
Mn700 O715 2.162 . S
Mn700 O716 2.297 . S
Mn700 O724 2.385 . S
Mn700 O725 2.209 . S
Mn700 O726 2.094 . S
Mn701 O706 2.121 . S
Mn701 N708 2.257 . S
Mn701 N717 2.282 . S
Mn701 O725 2.215 . S
Mn701 O727 2.117 . S
C702 O724 1.234 . S
C702 O725 1.283 . S
C703 O715 1.281 . S
C703 O716 1.236 . S
C704 O726 1.240 . S
C704 O727 1.264 . S
O705 Mn700 2.095 . S
O705 C714 1.250 . S
O706 Mn701 2.121 . S
O706 C714 1.258 . S
C707 N708 1.326 . S
C707 C711 1.460 . S
C707 H713 0.929 . S
N708 Mn701 2.257 . S
N708 C707 1.326 . S
N708 C712 1.362 . S
C709 C710 1.258 . S
C709 C712 1.431 . S
C709 C729 1.449 . S
C710 C709 1.258 . S
C710 C711 1.477 . S
C710 H730 0.931 . S
C711 C707 1.460 . S
C711 C710 1.477 . S
C711 H731 0.930 . S
C712 N708 1.362 . S
C712 C709 1.431 . S
C712 C722 1.476 . S
H713 C707 0.929 . S
C714 O705 1.250 . S
C714 O706 1.258 . S
O715 Mn700 2.162 . S
O715 C703 1.281 . S
O716 Mn700 2.297 . S
O716 C703 1.236 . S
N717 Mn701 2.282 . S
N717 C718 1.328 . S
N717 C722 1.318 . S
C718 N717 1.328 . S
C718 C719 1.457 . S
C718 H723 0.929 . S
C719 C718 1.457 . S
C719 C720 1.291 . S
C719 H732 0.931 . S
C720 C719 1.291 . S
C720 C721 1.373 . S
C720 H733 0.929 . S
C721 C720 1.373 . S
C721 C722 1.396 . S
C721 C728 1.403 . S
C722 C712 1.476 . S
C722 N717 1.318 . S
C722 C721 1.396 . S
H723 C718 0.929 . S
O724 Mn700 2.385 . S
O724 C702 1.234 . S
O725 Mn700 2.209 . S
O725 Mn701 2.215 . S
O725 C702 1.283 . S
O726 Mn700 2.094 . S
O726 C704 1.240 . S
O727 Mn701 2.117 . S
O727 C704 1.264 . S
C728 C721 1.403 . S
C728 C729 1.399 . S
C728 H734 0.929 . S
C729 C709 1.449 . S
C729 C728 1.399 . S
C729 H735 0.930 . S
H730 C710 0.931 . S
H731 C711 0.930 . S
H732 C719 0.931 . S
H733 C720 0.929 . S
H734 C728 0.929 . S
H735 C729 0.930 . S
H736 C754 0.951 . S
H737 C756 0.951 . S
H738 C758 0.950 . S
H739 C759 0.950 . S
H740 C761 0.950 . S
H741 C764 0.950 . S
H742 C765 0.950 . S
H743 C767 0.950 . S
H744 C768 0.950 . S
H745 C769 0.951 1_554 S
H746 C771 0.951 . S
H747 C773 0.950 . S
H748 C774 0.950 . S
H749 C776 0.950 . S
H750 C779 0.950 . S
H751 C780 0.950 . S
H752 C782 0.950 1_554 S
H753 C783 0.950 . S
C754 H736 0.951 . S
C754 C755 1.366 . S
C754 C756 1.388 . S
C755 C754 1.366 . S
C755 C759 1.385 . S
C756 H737 0.951 . S
C756 C754 1.388 . S
C756 C757 1.366 . S
C757 C756 1.366 . S
C757 C758 1.414 . S
C757 C760 1.499 . S
C758 H738 0.950 . S
C758 C757 1.414 . S
C758 C759 1.374 . S
C759 H739 0.950 . S
C759 C755 1.385 . S
C759 C758 1.374 . S
C760 C757 1.499 . S
C760 C761 1.373 . S
C760 C762 1.389 . S
C761 H740 0.950 . S
C761 C760 1.373 . S
C761 C777 1.377 . S
C762 C760 1.389 . S
C762 C763 1.524 . S
C762 C776 1.377 . S
C763 C762 1.524 . S
C763 C764 1.397 . S
C763 C768 1.363 . S
C764 H741 0.950 . S
C764 C763 1.397 . S
C764 C765 1.334 . S
C765 H742 0.950 . S
C765 C764 1.334 . S
C765 C766 1.287 . S
C766 C765 1.287 . S
C766 C767 1.524 . S
C766 H785 0.913 . S
C767 H743 0.950 . S
C767 C766 1.524 . S
C767 C768 1.415 . S
C768 H744 0.950 . S
C768 C763 1.363 . S
C768 C767 1.415 . S
C769 H745 0.951 1_556 S
C769 C770 1.366 . S
C769 C771 1.388 . S
C770 C769 1.366 . S
C770 C774 1.385 . S
C771 H746 0.951 . S
C771 C769 1.388 . S
C771 C772 1.366 . S
C772 C771 1.366 . S
C772 C773 1.414 . S
C772 C775 1.499 . S
C773 H747 0.950 . S
C773 C772 1.414 . S
C773 C774 1.374 . S
C774 H748 0.950 . S
C774 C770 1.385 . S
C774 C773 1.374 . S
C775 C772 1.499 . S
C775 C776 1.373 . S
C775 C777 1.389 . S
C776 H749 0.950 . S
C776 C762 1.377 . S
C776 C775 1.373 . S
C777 C761 1.377 . S
C777 C775 1.389 . S
C777 C778 1.524 . S
C778 C777 1.524 . S
C778 C779 1.397 . S
C778 C783 1.363 . S
C779 H750 0.950 . S
C779 C778 1.397 . S
C779 C780 1.334 . S
C780 H751 0.950 . S
C780 C779 1.334 . S
C780 C781 1.280 1_556 S
C781 C780 1.280 1_554 S
C781 C782 1.523 1_554 S
C781 H784 1.009 . S
C782 H752 0.950 1_556 S
C782 C781 1.523 1_556 S
C782 C783 1.415 . S
C783 H753 0.950 . S
C783 C778 1.363 . S
C783 C782 1.415 . S
H784 C781 1.009 . S
H785 C766 0.913 . S
H786 C804 0.951 . S
H787 C806 0.951 . S
H788 C808 0.950 . S
H789 C809 0.950 . S
H790 C811 0.950 . S
H791 C814 0.950 . S
H792 C815 0.950 . S
H793 C817 0.950 . S
H794 C818 0.950 . S
H795 C819 0.951 . S
H796 C821 0.951 . S
H797 C823 0.950 . S
H798 C824 0.950 . S
H799 C826 0.950 . S
H800 C829 0.950 . S
H801 C830 0.950 . S
H802 C832 0.950 . S
H803 C833 0.950 . S
C804 H786 0.951 . S
C804 C805 1.366 . S
C804 C806 1.388 . S
C805 C804 1.366 . S
C805 C809 1.385 . S
C806 H787 0.951 . S
C806 C804 1.388 . S
C806 C807 1.366 . S
C807 C806 1.366 . S
C807 C808 1.414 . S
C807 C810 1.499 . S
C808 H788 0.950 . S
C808 C807 1.414 . S
C808 C809 1.374 . S
C809 H789 0.950 . S
C809 C805 1.385 . S
C809 C808 1.374 . S
C810 C807 1.499 . S
C810 C811 1.373 . S
C810 C812 1.389 . S
C811 H790 0.950 . S
C811 C810 1.373 . S
C811 C827 1.377 . S
C812 C810 1.389 . S
C812 C813 1.524 . S
C812 C826 1.377 . S
C813 C812 1.524 . S
C813 C814 1.397 . S
C813 C818 1.363 . S
C814 H791 0.950 . S
C814 C813 1.397 . S
C814 C815 1.334 . S
C815 H792 0.950 . S
C815 C814 1.334 . S
C815 C816 1.287 . S
C816 C815 1.287 . S
C816 C817 1.524 . S
C816 H835 0.913 . S
C817 H793 0.950 . S
C817 C816 1.524 . S
C817 C818 1.415 . S
C818 H794 0.950 . S
C818 C813 1.363 . S
C818 C817 1.415 . S
C819 H795 0.951 . S
C819 C820 1.366 . S
C819 C821 1.388 . S
C820 C819 1.366 . S
C820 C824 1.385 . S
C821 H796 0.951 . S
C821 C819 1.388 . S
C821 C822 1.366 . S
C822 C821 1.366 . S
C822 C823 1.414 . S
C822 C825 1.499 . S
C823 H797 0.950 . S
C823 C822 1.414 . S
C823 C824 1.374 . S
C824 H798 0.950 . S
C824 C820 1.385 . S
C824 C823 1.374 . S
C825 C822 1.499 . S
C825 C826 1.373 . S
C825 C827 1.389 . S
C826 H799 0.950 . S
C826 C812 1.377 . S
C826 C825 1.373 . S
C827 C811 1.377 . S
C827 C825 1.389 . S
C827 C828 1.524 . S
C828 C827 1.524 . S
C828 C829 1.397 . S
C828 C833 1.363 . S
C829 H800 0.950 . S
C829 C828 1.397 . S
C829 C830 1.334 . S
C830 H801 0.950 . S
C830 C829 1.334 . S
C830 C831 1.287 . S
C831 C830 1.287 . S
C831 C832 1.524 . S
C831 H834 0.999 . S
C832 H802 0.950 . S
C832 C831 1.524 . S
C832 C833 1.415 . S
C833 H803 0.950 . S
C833 C828 1.363 . S
C833 C832 1.415 . S
H834 C831 0.999 . S
H835 C816 0.913 . S
H836 C854 0.951 . S
H837 C856 0.951 . S
H838 C858 0.950 . S
H839 C859 0.950 . S
H840 C861 0.950 . S
H841 C864 0.950 . S
H842 C865 0.950 . S
H843 C867 0.950 . S
H844 C868 0.950 . S
H845 C869 0.951 . S
H846 C871 0.951 . S
H847 C873 0.950 . S
H848 C874 0.950 . S
H849 C876 0.950 . S
H850 C879 0.950 . S
H851 C880 0.950 . S
H852 C882 0.950 . S
H853 C883 0.950 . S
C854 H836 0.951 . S
C854 C855 1.366 . S
C854 C856 1.388 . S
C855 C854 1.366 . S
C855 C859 1.385 . S
C856 H837 0.951 . S
C856 C854 1.388 . S
C856 C857 1.366 . S
C857 C856 1.366 . S
C857 C858 1.414 . S
C857 C860 1.499 . S
C858 H838 0.950 . S
C858 C857 1.414 . S
C858 C859 1.374 . S
C859 H839 0.950 . S
C859 C855 1.385 . S
C859 C858 1.374 . S
C860 C857 1.499 . S
C860 C861 1.373 . S
C860 C862 1.389 . S
C861 H840 0.950 . S
C861 C860 1.373 . S
C861 C877 1.377 . S
C862 C860 1.389 . S
C862 C863 1.524 . S
C862 C876 1.377 . S
C863 C862 1.524 . S
C863 C864 1.397 . S
C863 C868 1.363 . S
C864 H841 0.950 . S
C864 C863 1.397 . S
C864 C865 1.334 . S
C865 H842 0.950 . S
C865 C864 1.334 . S
C865 C866 1.287 . S
C866 C865 1.287 . S
C866 C867 1.524 . S
C866 H885 0.913 . S
C867 H843 0.950 . S
C867 C866 1.524 . S
C867 C868 1.415 . S
C868 H844 0.950 . S
C868 C863 1.363 . S
C868 C867 1.415 . S
C869 H845 0.951 . S
C869 C870 1.366 . S
C869 C871 1.388 . S
C870 C869 1.366 . S
C870 C874 1.385 . S
C871 H846 0.951 . S
C871 C869 1.388 . S
C871 C872 1.366 . S
C872 C871 1.366 . S
C872 C873 1.414 . S
C872 C875 1.499 . S
C873 H847 0.950 . S
C873 C872 1.414 . S
C873 C874 1.374 . S
C874 H848 0.950 . S
C874 C870 1.385 . S
C874 C873 1.374 . S
C875 C872 1.499 . S
C875 C876 1.373 . S
C875 C877 1.389 . S
C876 H849 0.950 . S
C876 C862 1.377 . S
C876 C875 1.373 . S
C877 C861 1.377 . S
C877 C875 1.389 . S
C877 C878 1.524 . S
C878 C877 1.524 . S
C878 C879 1.397 . S
C878 C883 1.363 . S
C879 H850 0.950 . S
C879 C878 1.397 . S
C879 C880 1.334 . S
C880 H851 0.950 . S
C880 C879 1.334 . S
C880 C881 1.287 . S
C881 C880 1.287 . S
C881 C882 1.524 . S
C881 H884 0.999 . S
C882 H852 0.950 . S
C882 C881 1.524 . S
C882 C883 1.415 . S
C883 H853 0.950 . S
C883 C878 1.363 . S
C883 C882 1.415 . S
H884 C881 0.999 . S
H885 C866 0.913 . S
H886 C904 0.950 . S
H887 C906 0.951 . S
H888 C908 0.950 . S
H889 C909 0.950 . S
H890 C911 0.950 . S
H891 C914 0.963 . S
H892 C915 0.944 1_565 S
H893 C917 0.950 . S
H894 C918 0.951 . S
H895 C919 0.951 . S
H896 C921 0.951 . S
H897 C923 0.954 . S
H898 C924 0.950 . S
H899 C926 0.950 1_655 S
H900 C929 0.950 . S
H901 C930 0.942 1_545 S
H902 C932 0.950 . S
H903 C933 0.950 . S
C904 H886 0.950 . S
C904 C905 1.367 1_545 S
C904 C906 1.387 . S
C905 C904 1.367 1_565 S
C905 C909 1.385 . S
C906 H887 0.951 . S
C906 C904 1.387 . S
C906 C907 1.366 1_545 S
C907 C906 1.366 1_565 S
C907 C908 1.414 . S
C907 C910 1.499 . S
C908 H888 0.950 . S
C908 C907 1.414 . S
C908 C909 1.374 . S
C909 H889 0.950 . S
C909 C905 1.385 . S
C909 C908 1.374 . S
C910 C907 1.499 . S
C910 C911 1.373 . S
C910 C912 1.389 1_565 S
C911 H890 0.950 . S
C911 C910 1.373 . S
C911 C927 1.377 . S
C912 C910 1.389 1_545 S
C912 C913 1.524 . S
C912 C926 1.377 . S
C913 C912 1.524 . S
C913 C914 1.397 1_445 S
C913 C918 1.363 . S
C914 H891 0.963 . S
C914 C913 1.397 1_665 S
C914 C915 1.333 1_565 S
C915 H892 0.944 1_545 S
C915 C914 1.333 1_545 S
C915 C916 1.294 . S
C916 C915 1.294 . S
C916 C917 1.524 . S
C916 H935 0.913 . S
C917 H893 0.950 . S
C917 C916 1.524 . S
C917 C918 1.414 1_655 S
C918 H894 0.951 . S
C918 C913 1.363 . S
C918 C917 1.414 1_455 S
C919 H895 0.951 . S
C919 C920 1.365 1_565 S
C919 C921 1.388 . S
C920 C919 1.365 1_545 S
C920 C924 1.385 . S
C921 H896 0.951 . S
C921 C919 1.388 . S
C921 C922 1.367 1_565 S
C922 C921 1.367 1_545 S
C922 C923 1.416 . S
C922 C925 1.495 1_655 S
C923 H897 0.954 . S
C923 C922 1.416 . S
C923 C924 1.374 . S
C924 H898 0.950 . S
C924 C920 1.385 . S
C924 C923 1.374 . S
C925 C922 1.495 1_455 S
C925 C926 1.373 . S
C925 C927 1.389 1_545 S
C926 H899 0.950 1_455 S
C926 C912 1.377 . S
C926 C925 1.373 . S
C927 C911 1.377 . S
C927 C925 1.389 1_565 S
C927 C928 1.524 . S
C928 C927 1.524 . S
C928 C929 1.397 1_565 S
C928 C933 1.363 . S
C929 H900 0.950 . S
C929 C928 1.397 1_545 S
C929 C930 1.333 1_545 S
C930 H901 0.942 1_565 S
C930 C929 1.333 1_565 S
C930 C931 1.296 . S
C931 C930 1.296 . S
C931 C932 1.524 . S
C931 H934 0.999 . S
C932 H902 0.950 . S
C932 C931 1.524 . S
C932 C933 1.415 . S
C933 H903 0.950 . S
C933 C928 1.363 . S
C933 C932 1.415 . S
H934 C931 0.999 . S
H935 C916 0.913 . S
H936 C954 0.951 . S
H937 C956 0.951 . S
H938 C958 0.950 . S
H939 C959 0.950 . S
H940 C961 0.950 . S
H941 C964 0.950 . S
H942 C965 0.950 . S
H943 C967 0.950 . S
H944 C968 0.950 . S
H945 C969 0.951 . S
H946 C971 0.951 . S
H947 C973 0.950 . S
H948 C974 0.950 . S
H949 C976 0.950 . S
H950 C979 0.950 . S
H951 C980 0.950 . S
H952 C982 0.950 . S
H953 C983 0.950 . S
C954 H936 0.951 . S
C954 C955 1.366 . S
C954 C956 1.388 . S
C955 C954 1.366 . S
C955 C959 1.385 . S
C956 H937 0.951 . S
C956 C954 1.388 . S
C956 C957 1.366 . S
C957 C956 1.366 . S
C957 C958 1.414 . S
C957 C960 1.499 . S
C958 H938 0.950 . S
C958 C957 1.414 . S
C958 C959 1.374 . S
C959 H939 0.950 . S
C959 C955 1.385 . S
C959 C958 1.374 . S
C960 C957 1.499 . S
C960 C961 1.373 . S
C960 C962 1.389 . S
C961 H940 0.950 . S
C961 C960 1.373 . S
C961 C977 1.377 . S
C962 C960 1.389 . S
C962 C963 1.524 . S
C962 C976 1.377 . S
C963 C962 1.524 . S
C963 C964 1.397 . S
C963 C968 1.363 . S
C964 H941 0.950 . S
C964 C963 1.397 . S
C964 C965 1.334 . S
C965 H942 0.950 . S
C965 C964 1.334 . S
C965 C966 1.287 . S
C966 C965 1.287 . S
C966 C967 1.524 . S
C966 H985 0.913 . S
C967 H943 0.950 . S
C967 C966 1.524 . S
C967 C968 1.415 . S
C968 H944 0.950 . S
C968 C963 1.363 . S
C968 C967 1.415 . S
C969 H945 0.951 . S
C969 C970 1.366 . S
C969 C971 1.388 . S
C970 C969 1.366 . S
C970 C974 1.385 . S
C971 H946 0.951 . S
C971 C969 1.388 . S
C971 C972 1.366 . S
C972 C971 1.366 . S
C972 C973 1.414 . S
C972 C975 1.499 . S
C973 H947 0.950 . S
C973 C972 1.414 . S
C973 C974 1.374 . S
C974 H948 0.950 . S
C974 C970 1.385 . S
C974 C973 1.374 . S
C975 C972 1.499 . S
C975 C976 1.373 . S
C975 C977 1.389 . S
C976 H949 0.950 . S
C976 C962 1.377 . S
C976 C975 1.373 . S
C977 C961 1.377 . S
C977 C975 1.389 . S
C977 C978 1.524 . S
C978 C977 1.524 . S
C978 C979 1.397 . S
C978 C983 1.363 . S
C979 H950 0.950 . S
C979 C978 1.397 . S
C979 C980 1.334 . S
C980 H951 0.950 . S
C980 C979 1.334 . S
C980 C981 1.287 . S
C981 C980 1.287 . S
C981 C982 1.524 . S
C981 H984 0.999 . S
C982 H952 0.950 . S
C982 C981 1.524 . S
C982 C983 1.415 . S
C983 H953 0.950 . S
C983 C978 1.363 . S
C983 C982 1.415 . S
H984 C981 0.999 . S
H985 C966 0.913 . S
H986 C1004 0.951 . S
H987 C1006 0.951 . S
H988 C1008 0.950 . S
H989 C1009 0.950 . S
H990 C1011 0.950 . S
H991 C1014 0.950 . S
H992 C1015 0.950 . S
H993 C1017 0.950 . S
H994 C1018 0.950 . S
H995 C1019 0.951 . S
H996 C1021 0.951 . S
H997 C1023 0.950 . S
H998 C1024 0.950 . S
H999 C1026 0.950 . S
H1000 C1029 0.950 . S
H1001 C1030 0.950 . S
H1002 C1032 0.950 . S
H1003 C1033 0.950 . S
C1004 H986 0.951 . S
C1004 C1005 1.366 . S
C1004 C1006 1.388 . S
C1005 C1004 1.366 . S
C1005 C1009 1.385 . S
C1006 H987 0.951 . S
C1006 C1004 1.388 . S
C1006 C1007 1.366 . S
C1007 C1006 1.366 . S
C1007 C1008 1.414 . S
C1007 C1010 1.499 . S
C1008 H988 0.950 . S
C1008 C1007 1.414 . S
C1008 C1009 1.374 . S
C1009 H989 0.950 . S
C1009 C1005 1.385 . S
C1009 C1008 1.374 . S
C1010 C1007 1.499 . S
C1010 C1011 1.373 . S
C1010 C1012 1.389 . S
C1011 H990 0.950 . S
C1011 C1010 1.373 . S
C1011 C1027 1.377 . S
C1012 C1010 1.389 . S
C1012 C1013 1.524 . S
C1012 C1026 1.377 . S
C1013 C1012 1.524 . S
C1013 C1014 1.397 . S
C1013 C1018 1.363 . S
C1014 H991 0.950 . S
C1014 C1013 1.397 . S
C1014 C1015 1.334 . S
C1015 H992 0.950 . S
C1015 C1014 1.334 . S
C1015 C1016 1.287 . S
C1016 C1015 1.287 . S
C1016 C1017 1.524 . S
C1016 H1035 0.913 . S
C1017 H993 0.950 . S
C1017 C1016 1.524 . S
C1017 C1018 1.415 . S
C1018 H994 0.950 . S
C1018 C1013 1.363 . S
C1018 C1017 1.415 . S
C1019 H995 0.951 . S
C1019 C1020 1.366 . S
C1019 C1021 1.388 . S
C1020 C1019 1.366 . S
C1020 C1024 1.385 . S
C1021 H996 0.951 . S
C1021 C1019 1.388 . S
C1021 C1022 1.366 . S
C1022 C1021 1.366 . S
C1022 C1023 1.414 . S
C1022 C1025 1.499 . S
C1023 H997 0.950 . S
C1023 C1022 1.414 . S
C1023 C1024 1.374 . S
C1024 H998 0.950 . S
C1024 C1020 1.385 . S
C1024 C1023 1.374 . S
C1025 C1022 1.499 . S
C1025 C1026 1.373 . S
C1025 C1027 1.389 . S
C1026 H999 0.950 . S
C1026 C1012 1.377 . S
C1026 C1025 1.373 . S
C1027 C1011 1.377 . S
C1027 C1025 1.389 . S
C1027 C1028 1.524 . S
C1028 C1027 1.524 . S
C1028 C1029 1.397 . S
C1028 C1033 1.363 . S
C1029 H1000 0.950 . S
C1029 C1028 1.397 . S
C1029 C1030 1.334 . S
C1030 H1001 0.950 . S
C1030 C1029 1.334 . S
C1030 C1031 1.287 . S
C1031 C1030 1.287 . S
C1031 C1032 1.524 . S
C1031 H1034 0.999 . S
C1032 H1002 0.950 . S
C1032 C1031 1.524 . S
C1032 C1033 1.415 . S
C1033 H1003 0.950 . S
C1033 C1028 1.363 . S
C1033 C1032 1.415 . S
H1034 C1031 0.999 . S
H1035 C1016 0.913 . S
H1036 C1054 0.951 . S
H1037 C1056 0.951 . S
H1038 C1058 0.950 . S
H1039 C1059 0.950 . S
H1040 C1061 0.950 . S
H1041 C1064 0.950 . S
H1042 C1065 0.950 . S
H1043 C1067 0.950 . S
H1044 C1068 0.950 . S
H1045 C1069 0.951 . S
H1046 C1071 0.951 . S
H1047 C1073 0.950 . S
H1048 C1074 0.950 . S
H1049 C1076 0.950 . S
H1050 C1079 0.950 . S
H1051 C1080 0.950 . S
H1052 C1082 0.950 . S
H1053 C1083 0.950 . S
C1054 H1036 0.951 . S
C1054 C1055 1.366 . S
C1054 C1056 1.388 . S
C1055 C1054 1.366 . S
C1055 C1059 1.385 . S
C1056 H1037 0.951 . S
C1056 C1054 1.388 . S
C1056 C1057 1.366 . S
C1057 C1056 1.366 . S
C1057 C1058 1.414 . S
C1057 C1060 1.499 . S
C1058 H1038 0.950 . S
C1058 C1057 1.414 . S
C1058 C1059 1.374 . S
C1059 H1039 0.950 . S
C1059 C1055 1.385 . S
C1059 C1058 1.374 . S
C1060 C1057 1.499 . S
C1060 C1061 1.373 . S
C1060 C1062 1.389 . S
C1061 H1040 0.950 . S
C1061 C1060 1.373 . S
C1061 C1077 1.377 . S
C1062 C1060 1.389 . S
C1062 C1063 1.524 . S
C1062 C1076 1.377 . S
C1063 C1062 1.524 . S
C1063 C1064 1.397 . S
C1063 C1068 1.363 . S
C1064 H1041 0.950 . S
C1064 C1063 1.397 . S
C1064 C1065 1.334 . S
C1065 H1042 0.950 . S
C1065 C1064 1.334 . S
C1065 C1066 1.287 . S
C1066 C1065 1.287 . S
C1066 C1067 1.524 . S
C1066 H1085 0.913 . S
C1067 H1043 0.950 . S
C1067 C1066 1.524 . S
C1067 C1068 1.415 . S
C1068 H1044 0.950 . S
C1068 C1063 1.363 . S
C1068 C1067 1.415 . S
C1069 H1045 0.951 . S
C1069 C1070 1.366 . S
C1069 C1071 1.388 . S
C1070 C1069 1.366 . S
C1070 C1074 1.385 . S
C1071 H1046 0.951 . S
C1071 C1069 1.388 . S
C1071 C1072 1.366 . S
C1072 C1071 1.366 . S
C1072 C1073 1.414 . S
C1072 C1075 1.499 . S
C1073 H1047 0.950 . S
C1073 C1072 1.414 . S
C1073 C1074 1.374 . S
C1074 H1048 0.950 . S
C1074 C1070 1.385 . S
C1074 C1073 1.374 . S
C1075 C1072 1.499 . S
C1075 C1076 1.373 . S
C1075 C1077 1.389 . S
C1076 H1049 0.950 . S
C1076 C1062 1.377 . S
C1076 C1075 1.373 . S
C1077 C1061 1.377 . S
C1077 C1075 1.389 . S
C1077 C1078 1.524 . S
C1078 C1077 1.524 . S
C1078 C1079 1.397 . S
C1078 C1083 1.363 . S
C1079 H1050 0.950 . S
C1079 C1078 1.397 . S
C1079 C1080 1.334 . S
C1080 H1051 0.950 . S
C1080 C1079 1.334 . S
C1080 C1081 1.287 . S
C1081 C1080 1.287 . S
C1081 C1082 1.524 . S
C1081 H1084 0.999 . S
C1082 H1052 0.950 . S
C1082 C1081 1.524 . S
C1082 C1083 1.415 . S
C1083 H1053 0.950 . S
C1083 C1078 1.363 . S
C1083 C1082 1.415 . S
H1084 C1081 0.999 . S
H1085 C1066 0.913 . S
H1086 C1104 0.951 . S
H1087 C1106 0.951 1_545 S
H1088 C1108 0.950 . S
H1089 C1109 0.950 . S
H1090 C1111 0.948 1_545 S
H1091 C1114 0.950 . S
H1092 C1115 0.950 . S
H1093 C1117 0.950 . S
H1094 C1118 0.915 1_545 S
H1095 C1119 0.951 1_565 S
H1096 C1121 0.979 . S
H1097 C1123 0.950 . S
H1098 C1124 0.950 . S
H1099 C1126 0.950 . S
H1100 C1129 0.950 . S
H1101 C1130 0.950 . S
H1102 C1132 0.950 . S
H1103 C1133 0.950 1_565 S
C1104 H1086 0.951 . S
C1104 C1105 1.366 . S
C1104 C1106 1.388 . S
C1105 C1104 1.366 . S
C1105 C1109 1.385 . S
C1106 H1087 0.951 1_565 S
C1106 C1104 1.388 . S
C1106 C1107 1.366 . S
C1107 C1106 1.366 . S
C1107 C1108 1.414 . S
C1107 C1110 1.499 . S
C1108 H1088 0.950 . S
C1108 C1107 1.414 . S
C1108 C1109 1.374 . S
C1109 H1089 0.950 . S
C1109 C1105 1.385 . S
C1109 C1108 1.374 . S
C1110 C1107 1.499 . S
C1110 C1111 1.373 . S
C1110 C1112 1.389 . S
C1111 H1090 0.948 1_565 S
C1111 C1110 1.373 . S
C1111 C1127 1.377 1_565 S
C1112 C1110 1.389 . S
C1112 C1113 1.524 . S
C1112 C1126 1.377 . S
C1113 C1112 1.524 . S
C1113 C1114 1.397 . S
C1113 C1118 1.363 . S
C1114 H1091 0.950 . S
C1114 C1113 1.397 . S
C1114 C1115 1.334 . S
C1115 H1092 0.950 . S
C1115 C1114 1.334 . S
C1115 C1116 1.287 . S
C1116 C1115 1.287 . S
C1116 C1117 1.524 . S
C1116 H1135 0.913 . S
C1117 H1093 0.950 . S
C1117 C1116 1.524 . S
C1117 C1118 1.415 . S
C1118 H1094 0.915 1_565 S
C1118 C1113 1.363 . S
C1118 C1117 1.415 . S
C1119 H1095 0.951 1_545 S
C1119 C1120 1.366 . S
C1119 C1121 1.390 1_545 S
C1120 C1119 1.366 . S
C1120 C1124 1.385 . S
C1121 H1096 0.979 . S
C1121 C1119 1.390 1_565 S
C1121 C1122 1.339 1_565 S
C1122 C1121 1.339 1_545 S
C1122 C1123 1.414 . S
C1122 C1125 1.499 . S
C1123 H1097 0.950 . S
C1123 C1122 1.414 . S
C1123 C1124 1.374 . S
C1124 H1098 0.950 . S
C1124 C1120 1.385 . S
C1124 C1123 1.374 . S
C1125 C1122 1.499 . S
C1125 C1126 1.373 1_545 S
C1125 C1127 1.389 . S
C1126 H1099 0.950 . S
C1126 C1112 1.377 . S
C1126 C1125 1.373 1_565 S
C1127 C1111 1.377 1_545 S
C1127 C1125 1.389 . S
C1127 C1128 1.524 . S
C1128 C1127 1.524 . S
C1128 C1129 1.397 . S
C1128 C1133 1.363 . S
C1129 H1100 0.950 . S
C1129 C1128 1.397 . S
C1129 C1130 1.334 . S
C1130 H1101 0.950 . S
C1130 C1129 1.334 . S
C1130 C1131 1.287 . S
C1131 C1130 1.287 . S
C1131 C1132 1.524 . S
C1131 H1134 0.999 . S
C1132 H1102 0.950 . S
C1132 C1131 1.524 . S
C1132 C1133 1.415 . S
C1133 H1103 0.950 1_545 S
C1133 C1128 1.363 . S
C1133 C1132 1.415 . S
H1134 C1131 0.999 . S
H1135 C1116 0.913 . S
H1136 C1154 0.951 . S
H1137 C1156 0.951 . S
H1138 C1158 0.950 . S
H1139 C1159 0.950 . S
H1140 C1161 0.950 . S
H1141 C1164 0.950 . S
H1142 C1165 0.950 . S
H1143 C1167 0.950 . S
H1144 C1168 0.950 . S
H1145 C1169 0.951 . S
H1146 C1171 0.951 . S
H1147 C1173 0.950 . S
H1148 C1174 0.950 . S
H1149 C1176 0.950 . S
H1150 C1179 0.950 . S
H1151 C1180 0.950 . S
H1152 C1182 0.950 . S
H1153 C1183 0.950 . S
C1154 H1136 0.951 . S
C1154 C1155 1.366 . S
C1154 C1156 1.388 . S
C1155 C1154 1.366 . S
C1155 C1159 1.385 . S
C1156 H1137 0.951 . S
C1156 C1154 1.388 . S
C1156 C1157 1.366 . S
C1157 C1156 1.366 . S
C1157 C1158 1.414 . S
C1157 C1160 1.499 . S
C1158 H1138 0.950 . S
C1158 C1157 1.414 . S
C1158 C1159 1.374 . S
C1159 H1139 0.950 . S
C1159 C1155 1.385 . S
C1159 C1158 1.374 . S
C1160 C1157 1.499 . S
C1160 C1161 1.373 . S
C1160 C1162 1.389 . S
C1161 H1140 0.950 . S
C1161 C1160 1.373 . S
C1161 C1177 1.377 . S
C1162 C1160 1.389 . S
C1162 C1163 1.524 . S
C1162 C1176 1.377 . S
C1163 C1162 1.524 . S
C1163 C1164 1.397 . S
C1163 C1168 1.363 . S
C1164 H1141 0.950 . S
C1164 C1163 1.397 . S
C1164 C1165 1.334 . S
C1165 H1142 0.950 . S
C1165 C1164 1.334 . S
C1165 C1166 1.287 . S
C1166 C1165 1.287 . S
C1166 C1167 1.524 . S
C1166 H1185 0.913 . S
C1167 H1143 0.950 . S
C1167 C1166 1.524 . S
C1167 C1168 1.415 . S
C1168 H1144 0.950 . S
C1168 C1163 1.363 . S
C1168 C1167 1.415 . S
C1169 H1145 0.951 . S
C1169 C1170 1.366 . S
C1169 C1171 1.388 . S
C1170 C1169 1.366 . S
C1170 C1174 1.385 . S
C1171 H1146 0.951 . S
C1171 C1169 1.388 . S
C1171 C1172 1.366 . S
C1172 C1171 1.366 . S
C1172 C1173 1.414 . S
C1172 C1175 1.499 . S
C1173 H1147 0.950 . S
C1173 C1172 1.414 . S
C1173 C1174 1.374 . S
C1174 H1148 0.950 . S
C1174 C1170 1.385 . S
C1174 C1173 1.374 . S
C1175 C1172 1.499 . S
C1175 C1176 1.373 . S
C1175 C1177 1.389 . S
C1176 H1149 0.950 . S
C1176 C1162 1.377 . S
C1176 C1175 1.373 . S
C1177 C1161 1.377 . S
C1177 C1175 1.389 . S
C1177 C1178 1.524 . S
C1178 C1177 1.524 . S
C1178 C1179 1.397 . S
C1178 C1183 1.363 . S
C1179 H1150 0.950 . S
C1179 C1178 1.397 . S
C1179 C1180 1.334 1_655 S
C1180 H1151 0.950 . S
C1180 C1179 1.334 1_455 S
C1180 C1181 1.287 . S
C1181 C1180 1.287 . S
C1181 C1182 1.524 1_455 S
C1181 H1184 0.999 . S
C1182 H1152 0.950 . S
C1182 C1181 1.524 1_655 S
C1182 C1183 1.415 . S
C1183 H1153 0.950 . S
C1183 C1178 1.363 . S
C1183 C1182 1.415 . S
H1184 C1181 0.999 . S
H1185 C1166 0.913 . S
H1186 C1204 0.951 . S
H1187 C1206 0.951 . S
H1188 C1208 0.950 . S
H1189 C1209 0.950 . S
H1190 C1211 0.950 . S
H1191 C1214 0.950 . S
H1192 C1215 0.950 . S
H1193 C1217 0.950 . S
H1194 C1218 0.950 . S
H1195 C1219 0.951 . S
H1196 C1221 0.951 . S
H1197 C1223 0.950 . S
H1198 C1224 0.950 . S
H1199 C1226 0.950 . S
H1200 C1229 0.950 . S
H1201 C1230 0.950 . S
H1202 C1232 0.950 . S
H1203 C1233 0.950 . S
C1204 H1186 0.951 . S
C1204 C1205 1.366 . S
C1204 C1206 1.388 . S
C1205 C1204 1.366 . S
C1205 C1209 1.385 . S
C1206 H1187 0.951 . S
C1206 C1204 1.388 . S
C1206 C1207 1.366 . S
C1207 C1206 1.366 . S
C1207 C1208 1.414 . S
C1207 C1210 1.499 . S
C1208 H1188 0.950 . S
C1208 C1207 1.414 . S
C1208 C1209 1.374 . S
C1209 H1189 0.950 . S
C1209 C1205 1.385 . S
C1209 C1208 1.374 . S
C1210 C1207 1.499 . S
C1210 C1211 1.373 . S
C1210 C1212 1.389 . S
C1211 H1190 0.950 . S
C1211 C1210 1.373 . S
C1211 C1227 1.377 . S
C1212 C1210 1.389 . S
C1212 C1213 1.524 . S
C1212 C1226 1.377 . S
C1213 C1212 1.524 . S
C1213 C1214 1.397 . S
C1213 C1218 1.363 . S
C1214 H1191 0.950 . S
C1214 C1213 1.397 . S
C1214 C1215 1.334 . S
C1215 H1192 0.950 . S
C1215 C1214 1.334 . S
C1215 C1216 1.287 . S
C1216 C1215 1.287 . S
C1216 C1217 1.524 . S
C1216 H1235 0.913 . S
C1217 H1193 0.950 . S
C1217 C1216 1.524 . S
C1217 C1218 1.415 . S
C1218 H1194 0.950 . S
C1218 C1213 1.363 . S
C1218 C1217 1.415 . S
C1219 H1195 0.951 . S
C1219 C1220 1.366 . S
C1219 C1221 1.388 . S
C1220 C1219 1.366 . S
C1220 C1224 1.385 . S
C1221 H1196 0.951 . S
C1221 C1219 1.388 . S
C1221 C1222 1.366 . S
C1222 C1221 1.366 . S
C1222 C1223 1.414 . S
C1222 C1225 1.499 . S
C1223 H1197 0.950 . S
C1223 C1222 1.414 . S
C1223 C1224 1.374 . S
C1224 H1198 0.950 . S
C1224 C1220 1.385 . S
C1224 C1223 1.374 . S
C1225 C1222 1.499 . S
C1225 C1226 1.373 . S
C1225 C1227 1.389 . S
C1226 H1199 0.950 . S
C1226 C1212 1.377 . S
C1226 C1225 1.373 . S
C1227 C1211 1.377 . S
C1227 C1225 1.389 . S
C1227 C1228 1.524 . S
C1228 C1227 1.524 . S
C1228 C1229 1.397 . S
C1228 C1233 1.363 . S
C1229 H1200 0.950 . S
C1229 C1228 1.397 . S
C1229 C1230 1.334 . S
C1230 H1201 0.950 . S
C1230 C1229 1.334 . S
C1230 C1231 1.287 . S
C1231 C1230 1.287 . S
C1231 C1232 1.524 . S
C1231 H1234 0.999 . S
C1232 H1202 0.950 . S
C1232 C1231 1.524 . S
C1232 C1233 1.415 . S
C1233 H1203 0.950 . S
C1233 C1228 1.363 . S
C1233 C1232 1.415 . S
H1234 C1231 0.999 . S
H1235 C1216 0.913 . S
H1236 C1254 0.951 . S
H1237 C1256 0.951 . S
H1238 C1258 0.950 . S
H1239 C1259 0.950 . S
H1240 C1261 0.950 . S
H1241 C1264 0.950 . S
H1242 C1265 0.950 . S
H1243 C1267 0.950 . S
H1244 C1268 0.950 . S
H1245 C1269 0.951 . S
H1246 C1271 0.951 . S
H1247 C1273 0.950 . S
H1248 C1274 0.950 . S
H1249 C1276 0.950 . S
H1250 C1279 0.950 . S
H1251 C1280 0.950 . S
H1252 C1282 0.950 . S
H1253 C1283 0.950 . S
C1254 H1236 0.951 . S
C1254 C1255 1.366 . S
C1254 C1256 1.388 . S
C1255 C1254 1.366 . S
C1255 C1259 1.385 . S
C1256 H1237 0.951 . S
C1256 C1254 1.388 . S
C1256 C1257 1.366 . S
C1257 C1256 1.366 . S
C1257 C1258 1.414 . S
C1257 C1260 1.499 . S
C1258 H1238 0.950 . S
C1258 C1257 1.414 . S
C1258 C1259 1.374 . S
C1259 H1239 0.950 . S
C1259 C1255 1.385 . S
C1259 C1258 1.374 . S
C1260 C1257 1.499 . S
C1260 C1261 1.373 . S
C1260 C1262 1.389 . S
C1261 H1240 0.950 . S
C1261 C1260 1.373 . S
C1261 C1277 1.377 . S
C1262 C1260 1.389 . S
C1262 C1263 1.524 . S
C1262 C1276 1.377 . S
C1263 C1262 1.524 . S
C1263 C1264 1.397 . S
C1263 C1268 1.363 . S
C1264 H1241 0.950 . S
C1264 C1263 1.397 . S
C1264 C1265 1.334 . S
C1265 H1242 0.950 . S
C1265 C1264 1.334 . S
C1265 C1266 1.287 . S
C1266 C1265 1.287 . S
C1266 C1267 1.524 . S
C1266 H1285 0.913 . S
C1267 H1243 0.950 . S
C1267 C1266 1.524 . S
C1267 C1268 1.415 . S
C1268 H1244 0.950 . S
C1268 C1263 1.363 . S
C1268 C1267 1.415 . S
C1269 H1245 0.951 . S
C1269 C1270 1.366 . S
C1269 C1271 1.388 . S
C1270 C1269 1.366 . S
C1270 C1274 1.385 . S
C1271 H1246 0.951 . S
C1271 C1269 1.388 . S
C1271 C1272 1.366 . S
C1272 C1271 1.366 . S
C1272 C1273 1.414 . S
C1272 C1275 1.499 . S
C1273 H1247 0.950 . S
C1273 C1272 1.414 . S
C1273 C1274 1.374 . S
C1274 H1248 0.950 . S
C1274 C1270 1.385 . S
C1274 C1273 1.374 . S
C1275 C1272 1.499 . S
C1275 C1276 1.373 . S
C1275 C1277 1.389 . S
C1276 H1249 0.950 . S
C1276 C1262 1.377 . S
C1276 C1275 1.373 . S
C1277 C1261 1.377 . S
C1277 C1275 1.389 . S
C1277 C1278 1.524 . S
C1278 C1277 1.524 . S
C1278 C1279 1.397 . S
C1278 C1283 1.363 . S
C1279 H1250 0.950 . S
C1279 C1278 1.397 . S
C1279 C1280 1.334 . S
C1280 H1251 0.950 . S
C1280 C1279 1.334 . S
C1280 C1281 1.287 . S
C1281 C1280 1.287 . S
C1281 C1282 1.524 . S
C1281 H1284 0.999 . S
C1282 H1252 0.950 . S
C1282 C1281 1.524 . S
C1282 C1283 1.415 . S
C1283 H1253 0.950 . S
C1283 C1278 1.363 . S
C1283 C1282 1.415 . S
H1284 C1281 0.999 . S
H1285 C1266 0.913 . S
H1286 C1304 0.951 . S
H1287 C1306 0.951 . S
H1288 C1308 0.950 . S
H1289 C1309 0.950 . S
H1290 C1311 0.950 . S
H1291 C1314 0.950 . S
H1292 C1315 0.950 . S
H1293 C1317 0.950 . S
H1294 C1318 0.950 . S
H1295 C1319 0.951 . S
H1296 C1321 0.951 . S
H1297 C1323 0.950 . S
H1298 C1324 0.950 . S
H1299 C1326 0.950 . S
H1300 C1329 0.950 . S
H1301 C1330 0.950 . S
H1302 C1332 0.950 . S
H1303 C1333 0.950 . S
C1304 H1286 0.951 . S
C1304 C1305 1.366 . S
C1304 C1306 1.388 . S
C1305 C1304 1.366 . S
C1305 C1309 1.385 . S
C1306 H1287 0.951 . S
C1306 C1304 1.388 . S
C1306 C1307 1.366 . S
C1307 C1306 1.366 . S
C1307 C1308 1.414 . S
C1307 C1310 1.499 . S
C1308 H1288 0.950 . S
C1308 C1307 1.414 . S
C1308 C1309 1.374 . S
C1309 H1289 0.950 . S
C1309 C1305 1.385 . S
C1309 C1308 1.374 . S
C1310 C1307 1.499 . S
C1310 C1311 1.373 . S
C1310 C1312 1.389 . S
C1311 H1290 0.950 . S
C1311 C1310 1.373 . S
C1311 C1327 1.377 . S
C1312 C1310 1.389 . S
C1312 C1313 1.524 . S
C1312 C1326 1.377 . S
C1313 C1312 1.524 . S
C1313 C1314 1.397 . S
C1313 C1318 1.363 . S
C1314 H1291 0.950 . S
C1314 C1313 1.397 . S
C1314 C1315 1.334 . S
C1315 H1292 0.950 . S
C1315 C1314 1.334 . S
C1315 C1316 1.287 . S
C1316 C1315 1.287 . S
C1316 C1317 1.524 . S
C1316 H1335 0.913 . S
C1317 H1293 0.950 . S
C1317 C1316 1.524 . S
C1317 C1318 1.415 . S
C1318 H1294 0.950 . S
C1318 C1313 1.363 . S
C1318 C1317 1.415 . S
C1319 H1295 0.951 . S
C1319 C1320 1.366 . S
C1319 C1321 1.388 . S
C1320 C1319 1.366 . S
C1320 C1324 1.385 . S
C1321 H1296 0.951 . S
C1321 C1319 1.388 . S
C1321 C1322 1.366 . S
C1322 C1321 1.366 . S
C1322 C1323 1.414 . S
C1322 C1325 1.499 . S
C1323 H1297 0.950 . S
C1323 C1322 1.414 . S
C1323 C1324 1.374 . S
C1324 H1298 0.950 . S
C1324 C1320 1.385 . S
C1324 C1323 1.374 . S
C1325 C1322 1.499 . S
C1325 C1326 1.373 . S
C1325 C1327 1.389 . S
C1326 H1299 0.950 . S
C1326 C1312 1.377 . S
C1326 C1325 1.373 . S
C1327 C1311 1.377 . S
C1327 C1325 1.389 . S
C1327 C1328 1.524 . S
C1328 C1327 1.524 . S
C1328 C1329 1.397 . S
C1328 C1333 1.363 . S
C1329 H1300 0.950 . S
C1329 C1328 1.397 . S
C1329 C1330 1.334 . S
C1330 H1301 0.950 . S
C1330 C1329 1.334 . S
C1330 C1331 1.287 . S
C1331 C1330 1.287 . S
C1331 C1332 1.524 . S
C1331 H1334 0.999 . S
C1332 H1302 0.950 . S
C1332 C1331 1.524 . S
C1332 C1333 1.415 . S
C1333 H1303 0.950 . S
C1333 C1328 1.363 . S
C1333 C1332 1.415 . S
H1334 C1331 0.999 . S
H1335 C1316 0.913 . S
H1336 C1354 0.951 . S
H1337 C1356 0.951 . S
H1338 C1358 0.950 . S
H1339 C1359 0.950 . S
H1340 C1361 0.950 . S
H1341 C1364 0.950 . S
H1342 C1365 0.950 . S
H1343 C1367 0.950 . S
H1344 C1368 0.950 . S
H1345 C1369 0.951 . S
H1346 C1371 0.951 . S
H1347 C1373 0.950 . S
H1348 C1374 0.950 . S
H1349 C1376 0.950 . S
H1350 C1379 0.950 . S
H1351 C1380 0.950 . S
H1352 C1382 0.950 . S
H1353 C1383 0.950 . S
C1354 H1336 0.951 . S
C1354 C1355 1.366 . S
C1354 C1356 1.388 . S
C1355 C1354 1.366 . S
C1355 C1359 1.385 . S
C1356 H1337 0.951 . S
C1356 C1354 1.388 . S
C1356 C1357 1.366 . S
C1357 C1356 1.366 . S
C1357 C1358 1.414 . S
C1357 C1360 1.499 . S
C1358 H1338 0.950 . S
C1358 C1357 1.414 . S
C1358 C1359 1.374 . S
C1359 H1339 0.950 . S
C1359 C1355 1.385 . S
C1359 C1358 1.374 . S
C1360 C1357 1.499 . S
C1360 C1361 1.373 . S
C1360 C1362 1.389 . S
C1361 H1340 0.950 . S
C1361 C1360 1.373 . S
C1361 C1377 1.377 . S
C1362 C1360 1.389 . S
C1362 C1363 1.524 . S
C1362 C1376 1.377 . S
C1363 C1362 1.524 . S
C1363 C1364 1.397 . S
C1363 C1368 1.363 . S
C1364 H1341 0.950 . S
C1364 C1363 1.397 . S
C1364 C1365 1.334 . S
C1365 H1342 0.950 . S
C1365 C1364 1.334 . S
C1365 C1366 1.287 . S
C1366 C1365 1.287 . S
C1366 C1367 1.524 . S
C1366 H1385 0.913 . S
C1367 H1343 0.950 . S
C1367 C1366 1.524 . S
C1367 C1368 1.415 . S
C1368 H1344 0.950 . S
C1368 C1363 1.363 . S
C1368 C1367 1.415 . S
C1369 H1345 0.951 . S
C1369 C1370 1.366 . S
C1369 C1371 1.388 . S
C1370 C1369 1.366 . S
C1370 C1374 1.385 . S
C1371 H1346 0.951 . S
C1371 C1369 1.388 . S
C1371 C1372 1.366 . S
C1372 C1371 1.366 . S
C1372 C1373 1.414 . S
C1372 C1375 1.499 . S
C1373 H1347 0.950 . S
C1373 C1372 1.414 . S
C1373 C1374 1.374 . S
C1374 H1348 0.950 . S
C1374 C1370 1.385 . S
C1374 C1373 1.374 . S
C1375 C1372 1.499 . S
C1375 C1376 1.373 . S
C1375 C1377 1.389 . S
C1376 H1349 0.950 . S
C1376 C1362 1.377 . S
C1376 C1375 1.373 . S
C1377 C1361 1.377 . S
C1377 C1375 1.389 . S
C1377 C1378 1.524 . S
C1378 C1377 1.524 . S
C1378 C1379 1.397 . S
C1378 C1383 1.363 . S
C1379 H1350 0.950 . S
C1379 C1378 1.397 . S
C1379 C1380 1.334 . S
C1380 H1351 0.950 . S
C1380 C1379 1.334 . S
C1380 C1381 1.287 . S
C1381 C1380 1.287 . S
C1381 C1382 1.524 . S
C1381 H1384 0.999 . S
C1382 H1352 0.950 . S
C1382 C1381 1.524 . S
C1382 C1383 1.415 . S
C1383 H1353 0.950 . S
C1383 C1378 1.363 . S
C1383 C1382 1.415 . S
H1384 C1381 0.999 . S
H1385 C1366 0.913 . S
H1386 C1404 0.951 . S
H1387 C1406 0.951 . S
H1388 C1408 0.950 . S
H1389 C1409 0.950 . S
H1390 C1411 0.950 . S
H1391 C1414 0.950 . S
H1392 C1415 0.950 . S
H1393 C1417 0.950 1_655 S
H1394 C1418 0.943 1_655 S
H1395 C1419 0.951 . S
H1396 C1421 0.951 . S
H1397 C1423 0.950 . S
H1398 C1424 0.950 1_655 S
H1399 C1426 0.950 . S
H1400 C1429 0.950 . S
H1401 C1430 0.950 . S
H1402 C1432 0.950 . S
H1403 C1433 0.950 . S
C1404 H1386 0.951 . S
C1404 C1405 1.366 . S
C1404 C1406 1.388 . S
C1405 C1404 1.366 . S
C1405 C1409 1.385 . S
C1406 H1387 0.951 . S
C1406 C1404 1.388 . S
C1406 C1407 1.366 . S
C1407 C1406 1.366 . S
C1407 C1408 1.414 . S
C1407 C1410 1.499 . S
C1408 H1388 0.950 . S
C1408 C1407 1.414 . S
C1408 C1409 1.374 . S
C1409 H1389 0.950 . S
C1409 C1405 1.385 . S
C1409 C1408 1.374 . S
C1410 C1407 1.499 . S
C1410 C1411 1.373 . S
C1410 C1412 1.389 . S
C1411 H1390 0.950 . S
C1411 C1410 1.373 . S
C1411 C1427 1.377 . S
C1412 C1410 1.389 . S
C1412 C1413 1.524 . S
C1412 C1426 1.377 . S
C1413 C1412 1.524 . S
C1413 C1414 1.397 . S
C1413 C1418 1.363 . S
C1414 H1391 0.950 . S
C1414 C1413 1.397 . S
C1414 C1415 1.334 . S
C1415 H1392 0.950 . S
C1415 C1414 1.334 . S
C1415 C1416 1.287 . S
C1416 C1415 1.287 . S
C1416 C1417 1.524 . S
C1416 H1435 0.913 . S
C1417 H1393 0.950 1_455 S
C1417 C1416 1.524 . S
C1417 C1418 1.415 . S
C1418 H1394 0.943 1_455 S
C1418 C1413 1.363 . S
C1418 C1417 1.415 . S
C1419 H1395 0.951 . S
C1419 C1420 1.366 . S
C1419 C1421 1.388 . S
C1420 C1419 1.366 . S
C1420 C1424 1.385 . S
C1421 H1396 0.951 . S
C1421 C1419 1.388 . S
C1421 C1422 1.366 . S
C1422 C1421 1.366 . S
C1422 C1423 1.414 . S
C1422 C1425 1.499 . S
C1423 H1397 0.950 . S
C1423 C1422 1.414 . S
C1423 C1424 1.374 . S
C1424 H1398 0.950 1_455 S
C1424 C1420 1.385 . S
C1424 C1423 1.374 . S
C1425 C1422 1.499 . S
C1425 C1426 1.373 . S
C1425 C1427 1.389 . S
C1426 H1399 0.950 . S
C1426 C1412 1.377 . S
C1426 C1425 1.373 . S
C1427 C1411 1.377 . S
C1427 C1425 1.389 . S
C1427 C1428 1.524 . S
C1428 C1427 1.524 . S
C1428 C1429 1.397 . S
C1428 C1433 1.363 . S
C1429 H1400 0.950 . S
C1429 C1428 1.397 . S
C1429 C1430 1.334 . S
C1430 H1401 0.950 . S
C1430 C1429 1.334 . S
C1430 C1431 1.287 . S
C1431 C1430 1.287 . S
C1431 C1432 1.524 . S
C1431 H1434 0.999 . S
C1432 H1402 0.950 . S
C1432 C1431 1.524 . S
C1432 C1433 1.415 . S
C1433 H1403 0.950 . S
C1433 C1428 1.363 . S
C1433 C1432 1.415 . S
H1434 C1431 0.999 . S
H1435 C1416 0.913 . S
H1436 C1454 0.951 . S
H1437 C1456 0.951 . S
H1438 C1458 0.950 . S
H1439 C1459 0.950 . S
H1440 C1461 0.950 . S
H1441 C1464 0.950 . S
H1442 C1465 0.950 . S
H1443 C1467 0.950 . S
H1444 C1468 0.950 . S
H1445 C1469 0.951 . S
H1446 C1471 0.951 . S
H1447 C1473 0.950 . S
H1448 C1474 0.950 . S
H1449 C1476 0.950 . S
H1450 C1479 0.950 . S
H1451 C1480 0.950 . S
H1452 C1482 0.950 . S
H1453 C1483 0.950 . S
C1454 H1436 0.951 . S
C1454 C1455 1.366 . S
C1454 C1456 1.388 . S
C1455 C1454 1.366 . S
C1455 C1459 1.385 . S
C1456 H1437 0.951 . S
C1456 C1454 1.388 . S
C1456 C1457 1.366 . S
C1457 C1456 1.366 . S
C1457 C1458 1.414 . S
C1457 C1460 1.499 . S
C1458 H1438 0.950 . S
C1458 C1457 1.414 . S
C1458 C1459 1.374 . S
C1459 H1439 0.950 . S
C1459 C1455 1.385 . S
C1459 C1458 1.374 . S
C1460 C1457 1.499 . S
C1460 C1461 1.373 . S
C1460 C1462 1.389 . S
C1461 H1440 0.950 . S
C1461 C1460 1.373 . S
C1461 C1477 1.377 . S
C1462 C1460 1.389 . S
C1462 C1463 1.524 . S
C1462 C1476 1.377 . S
C1463 C1462 1.524 . S
C1463 C1464 1.397 . S
C1463 C1468 1.363 . S
C1464 H1441 0.950 . S
C1464 C1463 1.397 . S
C1464 C1465 1.334 . S
C1465 H1442 0.950 . S
C1465 C1464 1.334 . S
C1465 C1466 1.287 . S
C1466 C1465 1.287 . S
C1466 C1467 1.524 . S
C1466 H1485 0.913 . S
C1467 H1443 0.950 . S
C1467 C1466 1.524 . S
C1467 C1468 1.415 . S
C1468 H1444 0.950 . S
C1468 C1463 1.363 . S
C1468 C1467 1.415 . S
C1469 H1445 0.951 . S
C1469 C1470 1.366 . S
C1469 C1471 1.388 . S
C1470 C1469 1.366 . S
C1470 C1474 1.385 . S
C1471 H1446 0.951 . S
C1471 C1469 1.388 . S
C1471 C1472 1.366 . S
C1472 C1471 1.366 . S
C1472 C1473 1.414 . S
C1472 C1475 1.499 . S
C1473 H1447 0.950 . S
C1473 C1472 1.414 . S
C1473 C1474 1.374 . S
C1474 H1448 0.950 . S
C1474 C1470 1.385 . S
C1474 C1473 1.374 . S
C1475 C1472 1.499 . S
C1475 C1476 1.373 . S
C1475 C1477 1.389 . S
C1476 H1449 0.950 . S
C1476 C1462 1.377 . S
C1476 C1475 1.373 . S
C1477 C1461 1.377 . S
C1477 C1475 1.389 . S
C1477 C1478 1.524 . S
C1478 C1477 1.524 . S
C1478 C1479 1.397 . S
C1478 C1483 1.363 . S
C1479 H1450 0.950 . S
C1479 C1478 1.397 . S
C1479 C1480 1.334 . S
C1480 H1451 0.950 . S
C1480 C1479 1.334 . S
C1480 C1481 1.287 . S
C1481 C1480 1.287 . S
C1481 C1482 1.524 . S
C1481 H1484 0.999 . S
C1482 H1452 0.950 . S
C1482 C1481 1.524 . S
C1482 C1483 1.415 . S
C1483 H1453 0.950 . S
C1483 C1478 1.363 . S
C1483 C1482 1.415 . S
H1484 C1481 0.999 . S
H1485 C1466 0.913 . S
H1486 C1504 0.951 . S
H1487 C1506 0.951 . S
H1488 C1508 0.950 . S
H1489 C1509 0.950 . S
H1490 C1511 0.950 . S
H1491 C1514 0.950 . S
H1492 C1515 0.950 . S
H1493 C1517 0.950 . S
H1494 C1518 0.950 . S
H1495 C1519 0.951 . S
H1496 C1521 0.951 . S
H1497 C1523 0.950 . S
H1498 C1524 0.950 . S
H1499 C1526 0.950 . S
H1500 C1529 0.950 1_655 S
H1501 C1530 0.950 . S
H1502 C1532 0.950 . S
H1503 C1533 0.950 . S
C1504 H1486 0.951 . S
C1504 C1505 1.366 . S
C1504 C1506 1.388 . S
C1505 C1504 1.366 . S
C1505 C1509 1.385 1_655 S
C1506 H1487 0.951 . S
C1506 C1504 1.388 . S
C1506 C1507 1.366 . S
C1507 C1506 1.366 . S
C1507 C1508 1.414 1_655 S
C1507 C1510 1.499 . S
C1508 H1488 0.950 . S
C1508 C1507 1.414 1_455 S
C1508 C1509 1.374 . S
C1509 H1489 0.950 . S
C1509 C1505 1.385 1_455 S
C1509 C1508 1.374 . S
C1510 C1507 1.499 . S
C1510 C1511 1.373 1_655 S
C1510 C1512 1.389 . S
C1511 H1490 0.950 . S
C1511 C1510 1.373 1_455 S
C1511 C1527 1.377 . S
C1512 C1510 1.389 . S
C1512 C1513 1.524 . S
C1512 C1526 1.377 . S
C1513 C1512 1.524 . S
C1513 C1514 1.397 . S
C1513 C1518 1.363 . S
C1514 H1491 0.950 . S
C1514 C1513 1.397 . S
C1514 C1515 1.334 . S
C1515 H1492 0.950 . S
C1515 C1514 1.334 . S
C1515 C1516 1.287 . S
C1516 C1515 1.287 . S
C1516 C1517 1.524 . S
C1516 H1535 0.913 . S
C1517 H1493 0.950 . S
C1517 C1516 1.524 . S
C1517 C1518 1.415 . S
C1518 H1494 0.950 . S
C1518 C1513 1.363 . S
C1518 C1517 1.415 . S
C1519 H1495 0.951 . S
C1519 C1520 1.366 1_455 S
C1519 C1521 1.388 . S
C1520 C1519 1.366 1_655 S
C1520 C1524 1.385 . S
C1521 H1496 0.951 . S
C1521 C1519 1.388 . S
C1521 C1522 1.366 1_455 S
C1522 C1521 1.366 1_655 S
C1522 C1523 1.414 . S
C1522 C1525 1.499 . S
C1523 H1497 0.950 . S
C1523 C1522 1.414 . S
C1523 C1524 1.374 . S
C1524 H1498 0.950 . S
C1524 C1520 1.385 . S
C1524 C1523 1.374 . S
C1525 C1522 1.499 . S
C1525 C1526 1.373 . S
C1525 C1527 1.389 1_655 S
C1526 H1499 0.950 . S
C1526 C1512 1.377 . S
C1526 C1525 1.373 . S
C1527 C1511 1.377 . S
C1527 C1525 1.389 1_455 S
C1527 C1528 1.524 . S
C1528 C1527 1.524 . S
C1528 C1529 1.397 . S
C1528 C1533 1.363 . S
C1529 H1500 0.950 1_455 S
C1529 C1528 1.397 . S
C1529 C1530 1.334 . S
C1530 H1501 0.950 . S
C1530 C1529 1.334 . S
C1530 C1531 1.287 . S
C1531 C1530 1.287 . S
C1531 C1532 1.524 . S
C1531 H1534 0.999 . S
C1532 H1502 0.950 . S
C1532 C1531 1.524 . S
C1532 C1533 1.415 . S
C1533 H1503 0.950 . S
C1533 C1528 1.363 . S
C1533 C1532 1.415 . S
H1534 C1531 0.999 . S
H1535 C1516 0.913 . S
H1536 C1554 0.951 . S
H1537 C1556 0.951 . S
H1538 C1558 0.950 . S
H1539 C1559 0.950 . S
H1540 C1561 0.950 . S
H1541 C1564 0.950 . S
H1542 C1565 0.950 . S
H1543 C1567 0.950 . S
H1544 C1568 0.950 . S
H1545 C1569 0.951 . S
H1546 C1571 0.951 . S
H1547 C1573 0.950 . S
H1548 C1574 0.950 . S
H1549 C1576 0.950 . S
H1550 C1579 0.950 . S
H1551 C1580 0.950 . S
H1552 C1582 0.950 . S
H1553 C1583 0.950 . S
C1554 H1536 0.951 . S
C1554 C1555 1.366 . S
C1554 C1556 1.388 . S
C1555 C1554 1.366 . S
C1555 C1559 1.385 . S
C1556 H1537 0.951 . S
C1556 C1554 1.388 . S
C1556 C1557 1.366 . S
C1557 C1556 1.366 . S
C1557 C1558 1.414 . S
C1557 C1560 1.499 . S
C1558 H1538 0.950 . S
C1558 C1557 1.414 . S
C1558 C1559 1.374 . S
C1559 H1539 0.950 . S
C1559 C1555 1.385 . S
C1559 C1558 1.374 . S
C1560 C1557 1.499 . S
C1560 C1561 1.373 . S
C1560 C1562 1.389 . S
C1561 H1540 0.950 . S
C1561 C1560 1.373 . S
C1561 C1577 1.377 . S
C1562 C1560 1.389 . S
C1562 C1563 1.524 . S
C1562 C1576 1.377 . S
C1563 C1562 1.524 . S
C1563 C1564 1.397 . S
C1563 C1568 1.363 . S
C1564 H1541 0.950 . S
C1564 C1563 1.397 . S
C1564 C1565 1.334 . S
C1565 H1542 0.950 . S
C1565 C1564 1.334 . S
C1565 C1566 1.287 . S
C1566 C1565 1.287 . S
C1566 C1567 1.524 . S
C1566 H1585 0.913 . S
C1567 H1543 0.950 . S
C1567 C1566 1.524 . S
C1567 C1568 1.415 . S
C1568 H1544 0.950 . S
C1568 C1563 1.363 . S
C1568 C1567 1.415 . S
C1569 H1545 0.951 . S
C1569 C1570 1.366 . S
C1569 C1571 1.388 . S
C1570 C1569 1.366 . S
C1570 C1574 1.385 . S
C1571 H1546 0.951 . S
C1571 C1569 1.388 . S
C1571 C1572 1.366 . S
C1572 C1571 1.366 . S
C1572 C1573 1.414 . S
C1572 C1575 1.499 . S
C1573 H1547 0.950 . S
C1573 C1572 1.414 . S
C1573 C1574 1.374 . S
C1574 H1548 0.950 . S
C1574 C1570 1.385 . S
C1574 C1573 1.374 . S
C1575 C1572 1.499 . S
C1575 C1576 1.373 . S
C1575 C1577 1.389 . S
C1576 H1549 0.950 . S
C1576 C1562 1.377 . S
C1576 C1575 1.373 . S
C1577 C1561 1.377 . S
C1577 C1575 1.389 . S
C1577 C1578 1.524 . S
C1578 C1577 1.524 . S
C1578 C1579 1.397 . S
C1578 C1583 1.363 . S
C1579 H1550 0.950 . S
C1579 C1578 1.397 . S
C1579 C1580 1.334 . S
C1580 H1551 0.950 . S
C1580 C1579 1.334 . S
C1580 C1581 1.287 . S
C1581 C1580 1.287 . S
C1581 C1582 1.524 . S
C1581 H1584 0.999 . S
C1582 H1552 0.950 . S
C1582 C1581 1.524 . S
C1582 C1583 1.415 . S
C1583 H1553 0.950 . S
C1583 C1578 1.363 . S
C1583 C1582 1.415 . S
H1584 C1581 0.999 . S
H1585 C1566 0.913 . S
H1586 C1604 0.951 . S
H1587 C1606 0.951 . S
H1588 C1608 0.950 . S
H1589 C1609 0.950 . S
H1590 C1611 0.950 . S
H1591 C1614 0.950 . S
H1592 C1615 0.950 . S
H1593 C1617 0.950 . S
H1594 C1618 0.950 . S
H1595 C1619 0.951 . S
H1596 C1621 0.951 . S
H1597 C1623 0.950 . S
H1598 C1624 0.950 . S
H1599 C1626 0.950 . S
H1600 C1629 0.950 . S
H1601 C1630 0.950 . S
H1602 C1632 0.950 . S
H1603 C1633 0.950 . S
C1604 H1586 0.951 . S
C1604 C1605 1.366 . S
C1604 C1606 1.388 . S
C1605 C1604 1.366 . S
C1605 C1609 1.385 . S
C1606 H1587 0.951 . S
C1606 C1604 1.388 . S
C1606 C1607 1.366 . S
C1607 C1606 1.366 . S
C1607 C1608 1.414 . S
C1607 C1610 1.499 . S
C1608 H1588 0.950 . S
C1608 C1607 1.414 . S
C1608 C1609 1.374 . S
C1609 H1589 0.950 . S
C1609 C1605 1.385 . S
C1609 C1608 1.374 . S
C1610 C1607 1.499 . S
C1610 C1611 1.373 . S
C1610 C1612 1.389 . S
C1611 H1590 0.950 . S
C1611 C1610 1.373 . S
C1611 C1627 1.377 . S
C1612 C1610 1.389 . S
C1612 C1613 1.524 . S
C1612 C1626 1.377 . S
C1613 C1612 1.524 . S
C1613 C1614 1.397 . S
C1613 C1618 1.363 . S
C1614 H1591 0.950 . S
C1614 C1613 1.397 . S
C1614 C1615 1.334 . S
C1615 H1592 0.950 . S
C1615 C1614 1.334 . S
C1615 C1616 1.287 . S
C1616 C1615 1.287 . S
C1616 C1617 1.524 . S
C1616 H1635 0.913 . S
C1617 H1593 0.950 . S
C1617 C1616 1.524 . S
C1617 C1618 1.415 . S
C1618 H1594 0.950 . S
C1618 C1613 1.363 . S
C1618 C1617 1.415 . S
C1619 H1595 0.951 . S
C1619 C1620 1.366 . S
C1619 C1621 1.388 . S
C1620 C1619 1.366 . S
C1620 C1624 1.385 . S
C1621 H1596 0.951 . S
C1621 C1619 1.388 . S
C1621 C1622 1.366 . S
C1622 C1621 1.366 . S
C1622 C1623 1.414 . S
C1622 C1625 1.499 . S
C1623 H1597 0.950 . S
C1623 C1622 1.414 . S
C1623 C1624 1.374 . S
C1624 H1598 0.950 . S
C1624 C1620 1.385 . S
C1624 C1623 1.374 . S
C1625 C1622 1.499 . S
C1625 C1626 1.373 . S
C1625 C1627 1.389 . S
C1626 H1599 0.950 . S
C1626 C1612 1.377 . S
C1626 C1625 1.373 . S
C1627 C1611 1.377 . S
C1627 C1625 1.389 . S
C1627 C1628 1.524 . S
C1628 C1627 1.524 . S
C1628 C1629 1.397 . S
C1628 C1633 1.363 . S
C1629 H1600 0.950 . S
C1629 C1628 1.397 . S
C1629 C1630 1.334 . S
C1630 H1601 0.950 . S
C1630 C1629 1.334 . S
C1630 C1631 1.287 . S
C1631 C1630 1.287 . S
C1631 C1632 1.524 . S
C1631 H1634 0.999 . S
C1632 H1602 0.950 . S
C1632 C1631 1.524 . S
C1632 C1633 1.415 . S
C1633 H1603 0.950 . S
C1633 C1628 1.363 . S
C1633 C1632 1.415 . S
H1634 C1631 0.999 . S
H1635 C1616 0.913 . S
H1636 C1654 0.951 . S
H1637 C1656 0.951 . S
H1638 C1658 0.921 1_554 S
H1639 C1659 0.960 . S
H1640 C1661 0.950 . S
H1641 C1664 0.950 . S
H1642 C1665 0.950 1_545 S
H1643 C1667 0.950 . S
H1644 C1668 0.950 . S
H1645 C1669 0.951 . S
H1646 C1671 0.951 . S
H1647 C1673 0.950 1_556 S
H1648 C1674 0.950 . S
H1649 C1676 0.950 . S
H1650 C1679 0.950 . S
H1651 C1680 0.950 . S
H1652 C1682 0.950 . S
H1653 C1683 0.950 . S
C1654 H1636 0.951 . S
C1654 C1655 1.366 1_565 S
C1654 C1656 1.388 . S
C1655 C1654 1.366 1_545 S
C1655 C1659 1.385 . S
C1656 H1637 0.951 . S
C1656 C1654 1.388 . S
C1656 C1657 1.366 . S
C1657 C1656 1.366 . S
C1657 C1658 1.427 1_565 S
C1657 C1660 1.499 . S
C1658 H1638 0.921 1_556 S
C1658 C1657 1.427 1_545 S
C1658 C1659 1.391 . S
C1659 H1639 0.960 . S
C1659 C1655 1.385 . S
C1659 C1658 1.391 . S
C1660 C1657 1.499 . S
C1660 C1661 1.373 1_556 S
C1660 C1662 1.389 . S
C1661 H1640 0.950 . S
C1661 C1660 1.373 1_554 S
C1661 C1677 1.377 . S
C1662 C1660 1.389 . S
C1662 C1663 1.524 . S
C1662 C1676 1.377 . S
C1663 C1662 1.524 . S
C1663 C1664 1.397 . S
C1663 C1668 1.363 . S
C1664 H1641 0.950 . S
C1664 C1663 1.397 . S
C1664 C1665 1.334 . S
C1665 H1642 0.950 1_565 S
C1665 C1664 1.334 . S
C1665 C1666 1.287 . S
C1666 C1665 1.287 . S
C1666 C1667 1.524 . S
C1666 H1685 0.913 . S
C1667 H1643 0.950 . S
C1667 C1666 1.524 . S
C1667 C1668 1.415 . S
C1668 H1644 0.950 . S
C1668 C1663 1.363 . S
C1668 C1667 1.415 . S
C1669 H1645 0.951 . S
C1669 C1670 1.366 . S
C1669 C1671 1.388 . S
C1670 C1669 1.366 . S
C1670 C1674 1.385 . S
C1671 H1646 0.951 . S
C1671 C1669 1.388 . S
C1671 C1672 1.366 . S
C1672 C1671 1.366 . S
C1672 C1673 1.414 . S
C1672 C1675 1.499 . S
C1673 H1647 0.950 1_554 S
C1673 C1672 1.414 . S
C1673 C1674 1.374 . S
C1674 H1648 0.950 . S
C1674 C1670 1.385 . S
C1674 C1673 1.374 . S
C1675 C1672 1.499 . S
C1675 C1676 1.373 1_554 S
C1675 C1677 1.389 . S
C1676 H1649 0.950 . S
C1676 C1662 1.377 . S
C1676 C1675 1.373 1_556 S
C1677 C1661 1.377 . S
C1677 C1675 1.389 . S
C1677 C1678 1.524 . S
C1678 C1677 1.524 . S
C1678 C1679 1.397 . S
C1678 C1683 1.363 . S
C1679 H1650 0.950 . S
C1679 C1678 1.397 . S
C1679 C1680 1.334 . S
C1680 H1651 0.950 . S
C1680 C1679 1.334 . S
C1680 C1681 1.287 . S
C1681 C1680 1.287 . S
C1681 C1682 1.524 . S
C1681 H1684 0.999 . S
C1682 H1652 0.950 . S
C1682 C1681 1.524 . S
C1682 C1683 1.415 . S
C1683 H1653 0.950 . S
C1683 C1678 1.363 . S
C1683 C1682 1.415 . S
H1684 C1681 0.999 . S
H1685 C1666 0.913 . S
H1686 C1704 0.951 . S
H1687 C1706 0.951 . S
H1688 C1708 0.950 . S
H1689 C1709 0.950 . S
H1690 C1711 0.950 . S
H1691 C1714 0.950 . S
H1692 C1715 0.950 . S
H1693 C1717 0.950 . S
H1694 C1718 0.950 . S
H1695 C1719 0.951 . S
H1696 C1721 0.951 . S
H1697 C1723 0.950 . S
H1698 C1724 0.950 . S
H1699 C1726 0.950 . S
H1700 C1729 0.950 . S
H1701 C1730 0.950 . S
H1702 C1732 0.950 . S
H1703 C1733 0.950 . S
C1704 H1686 0.951 . S
C1704 C1705 1.366 . S
C1704 C1706 1.388 . S
C1705 C1704 1.366 . S
C1705 C1709 1.385 . S
C1706 H1687 0.951 . S
C1706 C1704 1.388 . S
C1706 C1707 1.366 . S
C1707 C1706 1.366 . S
C1707 C1708 1.414 . S
C1707 C1710 1.499 . S
C1708 H1688 0.950 . S
C1708 C1707 1.414 . S
C1708 C1709 1.374 . S
C1709 H1689 0.950 . S
C1709 C1705 1.385 . S
C1709 C1708 1.374 . S
C1710 C1707 1.499 . S
C1710 C1711 1.373 . S
C1710 C1712 1.389 . S
C1711 H1690 0.950 . S
C1711 C1710 1.373 . S
C1711 C1727 1.377 . S
C1712 C1710 1.389 . S
C1712 C1713 1.524 . S
C1712 C1726 1.377 . S
C1713 C1712 1.524 . S
C1713 C1714 1.397 . S
C1713 C1718 1.363 . S
C1714 H1691 0.950 . S
C1714 C1713 1.397 . S
C1714 C1715 1.334 . S
C1715 H1692 0.950 . S
C1715 C1714 1.334 . S
C1715 C1716 1.287 . S
C1716 C1715 1.287 . S
C1716 C1717 1.524 . S
C1716 H1735 0.913 . S
C1717 H1693 0.950 . S
C1717 C1716 1.524 . S
C1717 C1718 1.415 . S
C1718 H1694 0.950 . S
C1718 C1713 1.363 . S
C1718 C1717 1.415 . S
C1719 H1695 0.951 . S
C1719 C1720 1.366 . S
C1719 C1721 1.388 . S
C1720 C1719 1.366 . S
C1720 C1724 1.385 . S
C1721 H1696 0.951 . S
C1721 C1719 1.388 . S
C1721 C1722 1.366 . S
C1722 C1721 1.366 . S
C1722 C1723 1.414 . S
C1722 C1725 1.499 . S
C1723 H1697 0.950 . S
C1723 C1722 1.414 . S
C1723 C1724 1.374 . S
C1724 H1698 0.950 . S
C1724 C1720 1.385 . S
C1724 C1723 1.374 . S
C1725 C1722 1.499 . S
C1725 C1726 1.373 . S
C1725 C1727 1.389 . S
C1726 H1699 0.950 . S
C1726 C1712 1.377 . S
C1726 C1725 1.373 . S
C1727 C1711 1.377 . S
C1727 C1725 1.389 . S
C1727 C1728 1.524 . S
C1728 C1727 1.524 . S
C1728 C1729 1.397 . S
C1728 C1733 1.363 . S
C1729 H1700 0.950 . S
C1729 C1728 1.397 . S
C1729 C1730 1.334 . S
C1730 H1701 0.950 . S
C1730 C1729 1.334 . S
C1730 C1731 1.287 . S
C1731 C1730 1.287 . S
C1731 C1732 1.524 . S
C1731 H1734 0.999 . S
C1732 H1702 0.950 . S
C1732 C1731 1.524 . S
C1732 C1733 1.415 . S
C1733 H1703 0.950 . S
C1733 C1728 1.363 . S
C1733 C1732 1.415 . S
H1734 C1731 0.999 . S
H1735 C1716 0.913 . S
H1736 C1754 0.951 . S
H1737 C1756 0.951 . S
H1738 C1758 0.950 . S
H1739 C1759 0.950 . S
H1740 C1761 0.950 . S
H1741 C1764 0.950 . S
H1742 C1765 0.950 . S
H1743 C1767 0.950 . S
H1744 C1768 0.950 . S
H1745 C1769 0.951 . S
H1746 C1771 0.951 . S
H1747 C1773 0.950 . S
H1748 C1774 0.950 . S
H1749 C1776 0.950 . S
H1750 C1779 0.950 . S
H1751 C1780 0.950 . S
H1752 C1782 0.950 . S
H1753 C1783 0.950 . S
C1754 H1736 0.951 . S
C1754 C1755 1.366 . S
C1754 C1756 1.388 . S
C1755 C1754 1.366 . S
C1755 C1759 1.385 1_545 S
C1756 H1737 0.951 . S
C1756 C1754 1.388 . S
C1756 C1757 1.366 . S
C1757 C1756 1.366 . S
C1757 C1758 1.414 . S
C1757 C1760 1.499 . S
C1758 H1738 0.950 . S
C1758 C1757 1.414 . S
C1758 C1759 1.374 1_545 S
C1759 H1739 0.950 . S
C1759 C1755 1.385 1_565 S
C1759 C1758 1.374 1_565 S
C1760 C1757 1.499 . S
C1760 C1761 1.373 . S
C1760 C1762 1.389 . S
C1761 H1740 0.950 . S
C1761 C1760 1.373 . S
C1761 C1777 1.377 . S
C1762 C1760 1.389 . S
C1762 C1763 1.524 . S
C1762 C1776 1.377 . S
C1763 C1762 1.524 . S
C1763 C1764 1.397 . S
C1763 C1768 1.363 . S
C1764 H1741 0.950 . S
C1764 C1763 1.397 . S
C1764 C1765 1.334 . S
C1765 H1742 0.950 . S
C1765 C1764 1.334 . S
C1765 C1766 1.287 . S
C1766 C1765 1.287 . S
C1766 C1767 1.524 . S
C1766 H1785 0.913 . S
C1767 H1743 0.950 . S
C1767 C1766 1.524 . S
C1767 C1768 1.415 . S
C1768 H1744 0.950 . S
C1768 C1763 1.363 . S
C1768 C1767 1.415 . S
C1769 H1745 0.951 . S
C1769 C1770 1.366 . S
C1769 C1771 1.388 . S
C1770 C1769 1.366 . S
C1770 C1774 1.385 . S
C1771 H1746 0.951 . S
C1771 C1769 1.388 . S
C1771 C1772 1.366 . S
C1772 C1771 1.366 . S
C1772 C1773 1.414 . S
C1772 C1775 1.499 . S
C1773 H1747 0.950 . S
C1773 C1772 1.414 . S
C1773 C1774 1.374 . S
C1774 H1748 0.950 . S
C1774 C1770 1.385 . S
C1774 C1773 1.374 . S
C1775 C1772 1.499 . S
C1775 C1776 1.373 . S
C1775 C1777 1.389 . S
C1776 H1749 0.950 . S
C1776 C1762 1.377 . S
C1776 C1775 1.373 . S
C1777 C1761 1.377 . S
C1777 C1775 1.389 . S
C1777 C1778 1.524 . S
C1778 C1777 1.524 . S
C1778 C1779 1.397 . S
C1778 C1783 1.363 . S
C1779 H1750 0.950 . S
C1779 C1778 1.397 . S
C1779 C1780 1.334 . S
C1780 H1751 0.950 . S
C1780 C1779 1.334 . S
C1780 C1781 1.287 . S
C1781 C1780 1.287 . S
C1781 C1782 1.524 . S
C1781 H1784 0.999 . S
C1782 H1752 0.950 . S
C1782 C1781 1.524 . S
C1782 C1783 1.415 . S
C1783 H1753 0.950 . S
C1783 C1778 1.363 . S
C1783 C1782 1.415 . S
H1784 C1781 0.999 . S
H1785 C1766 0.913 . S
H1786 C1804 0.951 . S
H1787 C1806 0.951 . S
H1788 C1808 0.950 . S
H1789 C1809 0.950 . S
H1790 C1811 0.950 . S
H1791 C1814 0.950 . S
H1792 C1815 0.950 . S
H1793 C1817 0.950 . S
H1794 C1818 0.950 . S
H1795 C1819 0.951 . S
H1796 C1821 0.951 . S
H1797 C1823 0.950 . S
H1798 C1824 0.950 . S
H1799 C1826 0.950 . S
H1800 C1829 0.950 . S
H1801 C1830 0.950 . S
H1802 C1832 0.950 . S
H1803 C1833 0.950 . S
C1804 H1786 0.951 . S
C1804 C1805 1.366 . S
C1804 C1806 1.388 . S
C1805 C1804 1.366 . S
C1805 C1809 1.385 . S
C1806 H1787 0.951 . S
C1806 C1804 1.388 . S
C1806 C1807 1.366 . S
C1807 C1806 1.366 . S
C1807 C1808 1.414 . S
C1807 C1810 1.499 . S
C1808 H1788 0.950 . S
C1808 C1807 1.414 . S
C1808 C1809 1.374 . S
C1809 H1789 0.950 . S
C1809 C1805 1.385 . S
C1809 C1808 1.374 . S
C1810 C1807 1.499 . S
C1810 C1811 1.373 . S
C1810 C1812 1.389 . S
C1811 H1790 0.950 . S
C1811 C1810 1.373 . S
C1811 C1827 1.377 . S
C1812 C1810 1.389 . S
C1812 C1813 1.524 . S
C1812 C1826 1.377 . S
C1813 C1812 1.524 . S
C1813 C1814 1.397 . S
C1813 C1818 1.363 . S
C1814 H1791 0.950 . S
C1814 C1813 1.397 . S
C1814 C1815 1.334 . S
C1815 H1792 0.950 . S
C1815 C1814 1.334 . S
C1815 C1816 1.287 . S
C1816 C1815 1.287 . S
C1816 C1817 1.524 . S
C1816 H1835 0.913 . S
C1817 H1793 0.950 . S
C1817 C1816 1.524 . S
C1817 C1818 1.415 . S
C1818 H1794 0.950 . S
C1818 C1813 1.363 . S
C1818 C1817 1.415 . S
C1819 H1795 0.951 . S
C1819 C1820 1.366 . S
C1819 C1821 1.388 . S
C1820 C1819 1.366 . S
C1820 C1824 1.385 . S
C1821 H1796 0.951 . S
C1821 C1819 1.388 . S
C1821 C1822 1.366 . S
C1822 C1821 1.366 . S
C1822 C1823 1.414 . S
C1822 C1825 1.499 . S
C1823 H1797 0.950 . S
C1823 C1822 1.414 . S
C1823 C1824 1.374 . S
C1824 H1798 0.950 . S
C1824 C1820 1.385 . S
C1824 C1823 1.374 . S
C1825 C1822 1.499 . S
C1825 C1826 1.373 . S
C1825 C1827 1.389 . S
C1826 H1799 0.950 . S
C1826 C1812 1.377 . S
C1826 C1825 1.373 . S
C1827 C1811 1.377 . S
C1827 C1825 1.389 . S
C1827 C1828 1.524 . S
C1828 C1827 1.524 . S
C1828 C1829 1.397 . S
C1828 C1833 1.363 . S
C1829 H1800 0.950 . S
C1829 C1828 1.397 . S
C1829 C1830 1.334 . S
C1830 H1801 0.950 . S
C1830 C1829 1.334 . S
C1830 C1831 1.287 . S
C1831 C1830 1.287 . S
C1831 C1832 1.524 . S
C1831 H1834 0.999 . S
C1832 H1802 0.950 . S
C1832 C1831 1.524 . S
C1832 C1833 1.415 . S
C1833 H1803 0.950 . S
C1833 C1828 1.363 . S
C1833 C1832 1.415 . S
H1834 C1831 0.999 . S
H1835 C1816 0.913 . S
H1836 C1854 0.951 . S
H1837 C1856 0.951 . S
H1838 C1858 0.950 . S
H1839 C1859 0.950 1_565 S
H1840 C1861 0.950 . S
H1841 C1864 0.950 . S
H1842 C1865 0.950 . S
H1843 C1867 0.950 . S
H1844 C1868 0.950 . S
H1845 C1869 0.951 . S
H1846 C1871 0.951 . S
H1847 C1873 0.950 . S
H1848 C1874 0.950 . S
H1849 C1876 0.950 . S
H1850 C1879 0.950 . S
H1851 C1880 0.950 . S
H1852 C1882 0.950 . S
H1853 C1883 0.950 . S
C1854 H1836 0.951 . S
C1854 C1855 1.366 . S
C1854 C1856 1.388 . S
C1855 C1854 1.366 . S
C1855 C1859 1.385 . S
C1856 H1837 0.951 . S
C1856 C1854 1.388 . S
C1856 C1857 1.366 . S
C1857 C1856 1.366 . S
C1857 C1858 1.414 . S
C1857 C1860 1.499 . S
C1858 H1838 0.950 . S
C1858 C1857 1.414 . S
C1858 C1859 1.374 . S
C1859 H1839 0.950 1_545 S
C1859 C1855 1.385 . S
C1859 C1858 1.374 . S
C1860 C1857 1.499 . S
C1860 C1861 1.373 . S
C1860 C1862 1.389 . S
C1861 H1840 0.950 . S
C1861 C1860 1.373 . S
C1861 C1877 1.377 . S
C1862 C1860 1.389 . S
C1862 C1863 1.524 . S
C1862 C1876 1.377 . S
C1863 C1862 1.524 . S
C1863 C1864 1.397 . S
C1863 C1868 1.363 . S
C1864 H1841 0.950 . S
C1864 C1863 1.397 . S
C1864 C1865 1.334 . S
C1865 H1842 0.950 . S
C1865 C1864 1.334 . S
C1865 C1866 1.287 . S
C1866 C1865 1.287 . S
C1866 C1867 1.524 . S
C1866 H1885 0.913 . S
C1867 H1843 0.950 . S
C1867 C1866 1.524 . S
C1867 C1868 1.415 . S
C1868 H1844 0.950 . S
C1868 C1863 1.363 . S
C1868 C1867 1.415 . S
C1869 H1845 0.951 . S
C1869 C1870 1.366 . S
C1869 C1871 1.388 . S
C1870 C1869 1.366 . S
C1870 C1874 1.385 . S
C1871 H1846 0.951 . S
C1871 C1869 1.388 . S
C1871 C1872 1.366 . S
C1872 C1871 1.366 . S
C1872 C1873 1.414 . S
C1872 C1875 1.499 . S
C1873 H1847 0.950 . S
C1873 C1872 1.414 . S
C1873 C1874 1.374 . S
C1874 H1848 0.950 . S
C1874 C1870 1.385 . S
C1874 C1873 1.374 . S
C1875 C1872 1.499 . S
C1875 C1876 1.373 . S
C1875 C1877 1.389 . S
C1876 H1849 0.950 . S
C1876 C1862 1.377 . S
C1876 C1875 1.373 . S
C1877 C1861 1.377 . S
C1877 C1875 1.389 . S
C1877 C1878 1.524 . S
C1878 C1877 1.524 . S
C1878 C1879 1.397 . S
C1878 C1883 1.363 . S
C1879 H1850 0.950 . S
C1879 C1878 1.397 . S
C1879 C1880 1.334 . S
C1880 H1851 0.950 . S
C1880 C1879 1.334 . S
C1880 C1881 1.287 . S
C1881 C1880 1.287 . S
C1881 C1882 1.524 . S
C1881 H1884 0.999 . S
C1882 H1852 0.950 . S
C1882 C1881 1.524 . S
C1882 C1883 1.415 . S
C1883 H1853 0.950 . S
C1883 C1878 1.363 . S
C1883 C1882 1.415 . S
H1884 C1881 0.999 . S
H1885 C1866 0.913 . S
H1886 C1904 0.951 . S
H1887 C1906 0.951 . S
H1888 C1908 0.950 . S
H1889 C1909 0.950 . S
H1890 C1911 0.950 . S
H1891 C1914 0.950 . S
H1892 C1915 0.950 . S
H1893 C1917 0.950 . S
H1894 C1918 0.950 . S
H1895 C1919 0.951 . S
H1896 C1921 0.951 . S
H1897 C1923 0.950 . S
H1898 C1924 0.950 . S
H1899 C1926 0.950 . S
H1900 C1929 0.950 . S
H1901 C1930 0.950 . S
H1902 C1932 0.950 . S
H1903 C1933 0.950 . S
C1904 H1886 0.951 . S
C1904 C1905 1.366 . S
C1904 C1906 1.388 . S
C1905 C1904 1.366 . S
C1905 C1909 1.385 . S
C1906 H1887 0.951 . S
C1906 C1904 1.388 . S
C1906 C1907 1.366 . S
C1907 C1906 1.366 . S
C1907 C1908 1.414 . S
C1907 C1910 1.499 . S
C1908 H1888 0.950 . S
C1908 C1907 1.414 . S
C1908 C1909 1.374 . S
C1909 H1889 0.950 . S
C1909 C1905 1.385 . S
C1909 C1908 1.374 . S
C1910 C1907 1.499 . S
C1910 C1911 1.373 . S
C1910 C1912 1.389 . S
C1911 H1890 0.950 . S
C1911 C1910 1.373 . S
C1911 C1927 1.377 . S
C1912 C1910 1.389 . S
C1912 C1913 1.524 . S
C1912 C1926 1.377 . S
C1913 C1912 1.524 . S
C1913 C1914 1.397 . S
C1913 C1918 1.363 . S
C1914 H1891 0.950 . S
C1914 C1913 1.397 . S
C1914 C1915 1.334 . S
C1915 H1892 0.950 . S
C1915 C1914 1.334 . S
C1915 C1916 1.287 . S
C1916 C1915 1.287 . S
C1916 C1917 1.524 . S
C1916 H1935 0.913 . S
C1917 H1893 0.950 . S
C1917 C1916 1.524 . S
C1917 C1918 1.415 . S
C1918 H1894 0.950 . S
C1918 C1913 1.363 . S
C1918 C1917 1.415 . S
C1919 H1895 0.951 . S
C1919 C1920 1.366 . S
C1919 C1921 1.388 . S
C1920 C1919 1.366 . S
C1920 C1924 1.385 . S
C1921 H1896 0.951 . S
C1921 C1919 1.388 . S
C1921 C1922 1.366 . S
C1922 C1921 1.366 . S
C1922 C1923 1.414 . S
C1922 C1925 1.499 . S
C1923 H1897 0.950 . S
C1923 C1922 1.414 . S
C1923 C1924 1.374 . S
C1924 H1898 0.950 . S
C1924 C1920 1.385 . S
C1924 C1923 1.374 . S
C1925 C1922 1.499 . S
C1925 C1926 1.373 . S
C1925 C1927 1.389 . S
C1926 H1899 0.950 . S
C1926 C1912 1.377 . S
C1926 C1925 1.373 . S
C1927 C1911 1.377 . S
C1927 C1925 1.389 . S
C1927 C1928 1.524 . S
C1928 C1927 1.524 . S
C1928 C1929 1.397 . S
C1928 C1933 1.363 . S
C1929 H1900 0.950 . S
C1929 C1928 1.397 . S
C1929 C1930 1.334 . S
C1930 H1901 0.950 . S
C1930 C1929 1.334 . S
C1930 C1931 1.287 . S
C1931 C1930 1.287 . S
C1931 C1932 1.524 . S
C1931 H1934 0.999 . S
C1932 H1902 0.950 . S
C1932 C1931 1.524 . S
C1932 C1933 1.415 . S
C1933 H1903 0.950 . S
C1933 C1928 1.363 . S
C1933 C1932 1.415 . S
H1934 C1931 0.999 . S
H1935 C1916 0.913 . S
H1936 C1954 0.951 . S
H1937 C1956 0.951 . S
H1938 C1958 0.950 . S
H1939 C1959 0.950 . S
H1940 C1961 0.950 . S
H1941 C1964 0.950 . S
H1942 C1965 0.950 . S
H1943 C1967 0.950 . S
H1944 C1968 0.950 . S
H1945 C1969 0.951 . S
H1946 C1971 0.951 . S
H1947 C1973 0.950 . S
H1948 C1974 0.950 . S
H1949 C1976 0.950 . S
H1950 C1979 0.950 . S
H1951 C1980 0.950 . S
H1952 C1982 0.950 . S
H1953 C1983 0.950 . S
C1954 H1936 0.951 . S
C1954 C1955 1.366 . S
C1954 C1956 1.388 . S
C1955 C1954 1.366 . S
C1955 C1959 1.385 . S
C1956 H1937 0.951 . S
C1956 C1954 1.388 . S
C1956 C1957 1.366 . S
C1957 C1956 1.366 . S
C1957 C1958 1.414 . S
C1957 C1960 1.499 . S
C1958 H1938 0.950 . S
C1958 C1957 1.414 . S
C1958 C1959 1.374 . S
C1959 H1939 0.950 . S
C1959 C1955 1.385 . S
C1959 C1958 1.374 . S
C1960 C1957 1.499 . S
C1960 C1961 1.373 . S
C1960 C1962 1.389 . S
C1961 H1940 0.950 . S
C1961 C1960 1.373 . S
C1961 C1977 1.377 . S
C1962 C1960 1.389 . S
C1962 C1963 1.524 . S
C1962 C1976 1.377 . S
C1963 C1962 1.524 . S
C1963 C1964 1.397 . S
C1963 C1968 1.363 . S
C1964 H1941 0.950 . S
C1964 C1963 1.397 . S
C1964 C1965 1.334 . S
C1965 H1942 0.950 . S
C1965 C1964 1.334 . S
C1965 C1966 1.287 . S
C1966 C1965 1.287 . S
C1966 C1967 1.524 . S
C1966 H1985 0.913 . S
C1967 H1943 0.950 . S
C1967 C1966 1.524 . S
C1967 C1968 1.415 . S
C1968 H1944 0.950 . S
C1968 C1963 1.363 . S
C1968 C1967 1.415 . S
C1969 H1945 0.951 . S
C1969 C1970 1.366 . S
C1969 C1971 1.388 . S
C1970 C1969 1.366 . S
C1970 C1974 1.385 . S
C1971 H1946 0.951 . S
C1971 C1969 1.388 . S
C1971 C1972 1.366 . S
C1972 C1971 1.366 . S
C1972 C1973 1.414 . S
C1972 C1975 1.499 . S
C1973 H1947 0.950 . S
C1973 C1972 1.414 . S
C1973 C1974 1.374 . S
C1974 H1948 0.950 . S
C1974 C1970 1.385 . S
C1974 C1973 1.374 . S
C1975 C1972 1.499 . S
C1975 C1976 1.373 . S
C1975 C1977 1.389 . S
C1976 H1949 0.950 . S
C1976 C1962 1.377 . S
C1976 C1975 1.373 . S
C1977 C1961 1.377 . S
C1977 C1975 1.389 . S
C1977 C1978 1.524 . S
C1978 C1977 1.524 . S
C1978 C1979 1.397 . S
C1978 C1983 1.363 . S
C1979 H1950 0.950 . S
C1979 C1978 1.397 . S
C1979 C1980 1.334 . S
C1980 H1951 0.950 . S
C1980 C1979 1.334 . S
C1980 C1981 1.287 . S
C1981 C1980 1.287 . S
C1981 C1982 1.524 . S
C1981 H1984 0.999 . S
C1982 H1952 0.950 . S
C1982 C1981 1.524 . S
C1982 C1983 1.415 . S
C1983 H1953 0.950 . S
C1983 C1978 1.363 . S
C1983 C1982 1.415 . S
H1984 C1981 0.999 . S
H1985 C1966 0.913 . S
H1986 C2004 0.951 . S
H1987 C2006 0.951 . S
H1988 C2008 0.950 . S
H1989 C2009 0.950 . S
H1990 C2011 0.950 . S
H1991 C2014 0.950 . S
H1992 C2015 0.950 . S
H1993 C2017 0.950 . S
H1994 C2018 0.950 1_545 S
H1995 C2019 0.951 . S
H1996 C2021 0.951 . S
H1997 C2023 0.950 . S
H1998 C2024 0.950 . S
H1999 C2026 0.950 . S
H2000 C2029 0.950 . S
H2001 C2030 0.950 . S
H2002 C2032 0.950 . S
H2003 C2033 0.950 . S
C2004 H1986 0.951 . S
C2004 C2005 1.366 . S
C2004 C2006 1.388 . S
C2005 C2004 1.366 . S
C2005 C2009 1.385 . S
C2006 H1987 0.951 . S
C2006 C2004 1.388 . S
C2006 C2007 1.366 . S
C2007 C2006 1.366 . S
C2007 C2008 1.414 . S
C2007 C2010 1.499 . S
C2008 H1988 0.950 . S
C2008 C2007 1.414 . S
C2008 C2009 1.374 . S
C2009 H1989 0.950 . S
C2009 C2005 1.385 . S
C2009 C2008 1.374 . S
C2010 C2007 1.499 . S
C2010 C2011 1.373 . S
C2010 C2012 1.389 . S
C2011 H1990 0.950 . S
C2011 C2010 1.373 . S
C2011 C2027 1.377 . S
C2012 C2010 1.389 . S
C2012 C2013 1.524 . S
C2012 C2026 1.377 . S
C2013 C2012 1.524 . S
C2013 C2014 1.397 1_545 S
C2013 C2018 1.363 1_545 S
C2014 H1991 0.950 . S
C2014 C2013 1.397 1_565 S
C2014 C2015 1.334 . S
C2015 H1992 0.950 . S
C2015 C2014 1.334 . S
C2015 C2016 1.287 . S
C2016 C2015 1.287 . S
C2016 C2017 1.524 . S
C2016 H2035 0.913 . S
C2017 H1993 0.950 . S
C2017 C2016 1.524 . S
C2017 C2018 1.415 . S
C2018 H1994 0.950 1_565 S
C2018 C2013 1.363 1_565 S
C2018 C2017 1.415 . S
C2019 H1995 0.951 . S
C2019 C2020 1.366 . S
C2019 C2021 1.388 . S
C2020 C2019 1.366 . S
C2020 C2024 1.385 . S
C2021 H1996 0.951 . S
C2021 C2019 1.388 . S
C2021 C2022 1.366 . S
C2022 C2021 1.366 . S
C2022 C2023 1.414 . S
C2022 C2025 1.499 . S
C2023 H1997 0.950 . S
C2023 C2022 1.414 . S
C2023 C2024 1.374 . S
C2024 H1998 0.950 . S
C2024 C2020 1.385 . S
C2024 C2023 1.374 . S
C2025 C2022 1.499 . S
C2025 C2026 1.373 . S
C2025 C2027 1.389 . S
C2026 H1999 0.950 . S
C2026 C2012 1.377 . S
C2026 C2025 1.373 . S
C2027 C2011 1.377 . S
C2027 C2025 1.389 . S
C2027 C2028 1.524 . S
C2028 C2027 1.524 . S
C2028 C2029 1.397 . S
C2028 C2033 1.363 . S
C2029 H2000 0.950 . S
C2029 C2028 1.397 . S
C2029 C2030 1.334 . S
C2030 H2001 0.950 . S
C2030 C2029 1.334 . S
C2030 C2031 1.287 . S
C2031 C2030 1.287 . S
C2031 C2032 1.524 . S
C2031 H2034 0.999 . S
C2032 H2002 0.950 . S
C2032 C2031 1.524 . S
C2032 C2033 1.415 . S
C2033 H2003 0.950 . S
C2033 C2028 1.363 . S
C2033 C2032 1.415 . S
H2034 C2031 0.999 . S
H2035 C2016 0.913 . S
H2036 C2054 0.951 . S
H2037 C2056 0.951 . S
H2038 C2058 0.950 . S
H2039 C2059 0.950 . S
H2040 C2061 0.950 . S
H2041 C2064 0.950 . S
H2042 C2065 0.950 . S
H2043 C2067 0.950 . S
H2044 C2068 0.950 . S
H2045 C2069 0.951 . S
H2046 C2071 0.951 . S
H2047 C2073 0.950 . S
H2048 C2074 0.950 . S
H2049 C2076 0.950 . S
H2050 C2079 0.950 . S
H2051 C2080 0.950 . S
H2052 C2082 0.950 . S
H2053 C2083 0.950 . S
C2054 H2036 0.951 . S
C2054 C2055 1.366 . S
C2054 C2056 1.388 . S
C2055 C2054 1.366 . S
C2055 C2059 1.385 . S
C2056 H2037 0.951 . S
C2056 C2054 1.388 . S
C2056 C2057 1.366 . S
C2057 C2056 1.366 . S
C2057 C2058 1.414 . S
C2057 C2060 1.499 . S
C2058 H2038 0.950 . S
C2058 C2057 1.414 . S
C2058 C2059 1.374 . S
C2059 H2039 0.950 . S
C2059 C2055 1.385 . S
C2059 C2058 1.374 . S
C2060 C2057 1.499 . S
C2060 C2061 1.373 . S
C2060 C2062 1.389 . S
C2061 H2040 0.950 . S
C2061 C2060 1.373 . S
C2061 C2077 1.377 . S
C2062 C2060 1.389 . S
C2062 C2063 1.524 . S
C2062 C2076 1.377 . S
C2063 C2062 1.524 . S
C2063 C2064 1.397 . S
C2063 C2068 1.363 . S
C2064 H2041 0.950 . S
C2064 C2063 1.397 . S
C2064 C2065 1.334 . S
C2065 H2042 0.950 . S
C2065 C2064 1.334 . S
C2065 C2066 1.287 . S
C2066 C2065 1.287 . S
C2066 C2067 1.524 . S
C2066 H2085 0.913 . S
C2067 H2043 0.950 . S
C2067 C2066 1.524 . S
C2067 C2068 1.415 . S
C2068 H2044 0.950 . S
C2068 C2063 1.363 . S
C2068 C2067 1.415 . S
C2069 H2045 0.951 . S
C2069 C2070 1.366 . S
C2069 C2071 1.388 . S
C2070 C2069 1.366 . S
C2070 C2074 1.385 . S
C2071 H2046 0.951 . S
C2071 C2069 1.388 . S
C2071 C2072 1.366 . S
C2072 C2071 1.366 . S
C2072 C2073 1.414 . S
C2072 C2075 1.499 . S
C2073 H2047 0.950 . S
C2073 C2072 1.414 . S
C2073 C2074 1.374 . S
C2074 H2048 0.950 . S
C2074 C2070 1.385 . S
C2074 C2073 1.374 . S
C2075 C2072 1.499 . S
C2075 C2076 1.373 . S
C2075 C2077 1.389 . S
C2076 H2049 0.950 . S
C2076 C2062 1.377 . S
C2076 C2075 1.373 . S
C2077 C2061 1.377 . S
C2077 C2075 1.389 . S
C2077 C2078 1.524 . S
C2078 C2077 1.524 . S
C2078 C2079 1.397 . S
C2078 C2083 1.363 . S
C2079 H2050 0.950 . S
C2079 C2078 1.397 . S
C2079 C2080 1.334 . S
C2080 H2051 0.950 . S
C2080 C2079 1.334 . S
C2080 C2081 1.287 . S
C2081 C2080 1.287 . S
C2081 C2082 1.524 . S
C2081 H2084 0.999 . S
C2082 H2052 0.950 . S
C2082 C2081 1.524 . S
C2082 C2083 1.415 . S
C2083 H2053 0.950 . S
C2083 C2078 1.363 . S
C2083 C2082 1.415 . S
H2084 C2081 0.999 . S
H2085 C2066 0.913 . S
H2086 C2104 0.951 . S
H2087 C2106 0.951 . S
H2088 C2108 0.950 . S
H2089 C2109 0.950 . S
H2090 C2111 0.950 . S
H2091 C2114 0.950 . S
H2092 C2115 0.950 . S
H2093 C2117 0.950 . S
H2094 C2118 0.950 . S
H2095 C2119 0.951 . S
H2096 C2121 0.951 . S
H2097 C2123 0.950 . S
H2098 C2124 0.950 . S
H2099 C2126 0.950 . S
H2100 C2129 0.950 . S
H2101 C2130 0.950 . S
H2102 C2132 0.950 . S
H2103 C2133 0.950 . S
C2104 H2086 0.951 . S
C2104 C2105 1.366 . S
C2104 C2106 1.388 . S
C2105 C2104 1.366 . S
C2105 C2109 1.385 . S
C2106 H2087 0.951 . S
C2106 C2104 1.388 . S
C2106 C2107 1.366 . S
C2107 C2106 1.366 . S
C2107 C2108 1.414 . S
C2107 C2110 1.499 . S
C2108 H2088 0.950 . S
C2108 C2107 1.414 . S
C2108 C2109 1.374 . S
C2109 H2089 0.950 . S
C2109 C2105 1.385 . S
C2109 C2108 1.374 . S
C2110 C2107 1.499 . S
C2110 C2111 1.373 . S
C2110 C2112 1.389 . S
C2111 H2090 0.950 . S
C2111 C2110 1.373 . S
C2111 C2127 1.377 . S
C2112 C2110 1.389 . S
C2112 C2113 1.524 . S
C2112 C2126 1.377 . S
C2113 C2112 1.524 . S
C2113 C2114 1.397 . S
C2113 C2118 1.363 . S
C2114 H2091 0.950 . S
C2114 C2113 1.397 . S
C2114 C2115 1.334 . S
C2115 H2092 0.950 . S
C2115 C2114 1.334 . S
C2115 C2116 1.287 . S
C2116 C2115 1.287 . S
C2116 C2117 1.524 . S
C2116 H2135 0.913 . S
C2117 H2093 0.950 . S
C2117 C2116 1.524 . S
C2117 C2118 1.415 . S
C2118 H2094 0.950 . S
C2118 C2113 1.363 . S
C2118 C2117 1.415 . S
C2119 H2095 0.951 . S
C2119 C2120 1.366 . S
C2119 C2121 1.388 . S
C2120 C2119 1.366 . S
C2120 C2124 1.385 . S
C2121 H2096 0.951 . S
C2121 C2119 1.388 . S
C2121 C2122 1.366 . S
C2122 C2121 1.366 . S
C2122 C2123 1.414 . S
C2122 C2125 1.499 . S
C2123 H2097 0.950 . S
C2123 C2122 1.414 . S
C2123 C2124 1.374 . S
C2124 H2098 0.950 . S
C2124 C2120 1.385 . S
C2124 C2123 1.374 . S
C2125 C2122 1.499 . S
C2125 C2126 1.373 . S
C2125 C2127 1.389 . S
C2126 H2099 0.950 . S
C2126 C2112 1.377 . S
C2126 C2125 1.373 . S
C2127 C2111 1.377 . S
C2127 C2125 1.389 . S
C2127 C2128 1.524 . S
C2128 C2127 1.524 . S
C2128 C2129 1.397 . S
C2128 C2133 1.363 . S
C2129 H2100 0.950 . S
C2129 C2128 1.397 . S
C2129 C2130 1.334 . S
C2130 H2101 0.950 . S
C2130 C2129 1.334 . S
C2130 C2131 1.287 . S
C2131 C2130 1.287 . S
C2131 C2132 1.524 . S
C2131 H2134 0.999 . S
C2132 H2102 0.950 . S
C2132 C2131 1.524 . S
C2132 C2133 1.415 . S
C2133 H2103 0.950 . S
C2133 C2128 1.363 . S
C2133 C2132 1.415 . S
H2134 C2131 0.999 . S
H2135 C2116 0.913 . S
H2136 C2154 0.951 . S
H2137 C2156 0.951 . S
H2138 C2158 0.950 . S
H2139 C2159 0.950 . S
H2140 C2161 0.950 . S
H2141 C2164 0.950 . S
H2142 C2165 0.950 . S
H2143 C2167 0.950 . S
H2144 C2168 0.950 . S
H2145 C2169 0.951 . S
H2146 C2171 0.951 . S
H2147 C2173 0.950 . S
H2148 C2174 0.950 . S
H2149 C2176 0.950 . S
H2150 C2179 0.950 . S
H2151 C2180 0.950 . S
H2152 C2182 0.950 . S
H2153 C2183 0.950 . S
C2154 H2136 0.951 . S
C2154 C2155 1.366 . S
C2154 C2156 1.388 . S
C2155 C2154 1.366 . S
C2155 C2159 1.385 . S
C2156 H2137 0.951 . S
C2156 C2154 1.388 . S
C2156 C2157 1.366 . S
C2157 C2156 1.366 . S
C2157 C2158 1.414 . S
C2157 C2160 1.499 . S
C2158 H2138 0.950 . S
C2158 C2157 1.414 . S
C2158 C2159 1.374 . S
C2159 H2139 0.950 . S
C2159 C2155 1.385 . S
C2159 C2158 1.374 . S
C2160 C2157 1.499 . S
C2160 C2161 1.373 . S
C2160 C2162 1.389 . S
C2161 H2140 0.950 . S
C2161 C2160 1.373 . S
C2161 C2177 1.377 . S
C2162 C2160 1.389 . S
C2162 C2163 1.524 . S
C2162 C2176 1.377 . S
C2163 C2162 1.524 . S
C2163 C2164 1.397 . S
C2163 C2168 1.363 . S
C2164 H2141 0.950 . S
C2164 C2163 1.397 . S
C2164 C2165 1.334 . S
C2165 H2142 0.950 . S
C2165 C2164 1.334 . S
C2165 C2166 1.287 . S
C2166 C2165 1.287 . S
C2166 C2167 1.524 . S
C2166 H2185 0.913 . S
C2167 H2143 0.950 . S
C2167 C2166 1.524 . S
C2167 C2168 1.415 . S
C2168 H2144 0.950 . S
C2168 C2163 1.363 . S
C2168 C2167 1.415 . S
C2169 H2145 0.951 . S
C2169 C2170 1.366 . S
C2169 C2171 1.388 . S
C2170 C2169 1.366 . S
C2170 C2174 1.385 . S
C2171 H2146 0.951 . S
C2171 C2169 1.388 . S
C2171 C2172 1.366 . S
C2172 C2171 1.366 . S
C2172 C2173 1.414 . S
C2172 C2175 1.499 . S
C2173 H2147 0.950 . S
C2173 C2172 1.414 . S
C2173 C2174 1.374 . S
C2174 H2148 0.950 . S
C2174 C2170 1.385 . S
C2174 C2173 1.374 . S
C2175 C2172 1.499 . S
C2175 C2176 1.373 . S
C2175 C2177 1.389 . S
C2176 H2149 0.950 . S
C2176 C2162 1.377 . S
C2176 C2175 1.373 . S
C2177 C2161 1.377 . S
C2177 C2175 1.389 . S
C2177 C2178 1.524 . S
C2178 C2177 1.524 . S
C2178 C2179 1.397 . S
C2178 C2183 1.363 . S
C2179 H2150 0.950 . S
C2179 C2178 1.397 . S
C2179 C2180 1.334 . S
C2180 H2151 0.950 . S
C2180 C2179 1.334 . S
C2180 C2181 1.287 . S
C2181 C2180 1.287 . S
C2181 C2182 1.524 . S
C2181 H2184 0.999 . S
C2182 H2152 0.950 . S
C2182 C2181 1.524 . S
C2182 C2183 1.415 . S
C2183 H2153 0.950 . S
C2183 C2178 1.363 . S
C2183 C2182 1.415 . S
H2184 C2181 0.999 . S
H2185 C2166 0.913 . S
H2186 C2204 0.951 . S
H2187 C2206 0.951 . S
H2188 C2208 0.950 1_655 S
H2189 C2209 0.950 . S
H2190 C2211 0.950 . S
H2191 C2214 0.950 . S
H2192 C2215 0.950 . S
H2193 C2217 0.950 . S
H2194 C2218 0.950 . S
H2195 C2219 0.951 . S
H2196 C2221 0.951 . S
H2197 C2223 0.950 . S
H2198 C2224 0.950 1_455 S
H2199 C2226 0.950 . S
H2200 C2229 0.950 . S
H2201 C2230 0.950 . S
H2202 C2232 0.950 . S
H2203 C2233 0.950 . S
C2204 H2186 0.951 . S
C2204 C2205 1.366 . S
C2204 C2206 1.388 . S
C2205 C2204 1.366 . S
C2205 C2209 1.385 . S
C2206 H2187 0.951 . S
C2206 C2204 1.388 . S
C2206 C2207 1.366 . S
C2207 C2206 1.366 . S
C2207 C2208 1.414 . S
C2207 C2210 1.499 . S
C2208 H2188 0.950 1_455 S
C2208 C2207 1.414 . S
C2208 C2209 1.374 . S
C2209 H2189 0.950 . S
C2209 C2205 1.385 . S
C2209 C2208 1.374 . S
C2210 C2207 1.499 . S
C2210 C2211 1.373 1_455 S
C2210 C2212 1.389 . S
C2211 H2190 0.950 . S
C2211 C2210 1.373 1_655 S
C2211 C2227 1.377 . S
C2212 C2210 1.389 . S
C2212 C2213 1.521 . S
C2212 C2226 1.377 . S
C2213 C2212 1.521 . S
C2213 C2214 1.401 1_545 S
C2213 C2218 1.363 . S
C2214 H2191 0.950 . S
C2214 C2213 1.401 1_565 S
C2214 C2215 1.334 . S
C2215 H2192 0.950 . S
C2215 C2214 1.334 . S
C2215 C2216 1.287 . S
C2216 C2215 1.287 . S
C2216 C2217 1.524 . S
C2216 H2235 0.913 . S
C2217 H2193 0.950 . S
C2217 C2216 1.524 . S
C2217 C2218 1.415 1_565 S
C2218 H2194 0.950 . S
C2218 C2213 1.363 . S
C2218 C2217 1.415 1_545 S
C2219 H2195 0.951 . S
C2219 C2220 1.366 . S
C2219 C2221 1.388 . S
C2220 C2219 1.366 . S
C2220 C2224 1.385 . S
C2221 H2196 0.951 . S
C2221 C2219 1.388 . S
C2221 C2222 1.366 . S
C2222 C2221 1.366 . S
C2222 C2223 1.414 1_655 S
C2222 C2225 1.505 . S
C2223 H2197 0.950 . S
C2223 C2222 1.414 1_455 S
C2223 C2224 1.374 1_455 S
C2224 H2198 0.950 1_655 S
C2224 C2220 1.385 . S
C2224 C2223 1.374 1_655 S
C2225 C2222 1.505 . S
C2225 C2226 1.360 1_655 S
C2225 C2227 1.396 . S
C2226 H2199 0.950 . S
C2226 C2212 1.377 . S
C2226 C2225 1.360 1_455 S
C2227 C2211 1.377 . S
C2227 C2225 1.396 . S
C2227 C2228 1.524 . S
C2228 C2227 1.524 . S
C2228 C2229 1.397 . S
C2228 C2233 1.363 . S
C2229 H2200 0.950 . S
C2229 C2228 1.397 . S
C2229 C2230 1.334 . S
C2230 H2201 0.950 . S
C2230 C2229 1.334 . S
C2230 C2231 1.287 . S
C2231 C2230 1.287 . S
C2231 C2232 1.524 . S
C2231 H2234 0.999 . S
C2232 H2202 0.950 . S
C2232 C2231 1.524 . S
C2232 C2233 1.415 . S
C2233 H2203 0.950 . S
C2233 C2228 1.363 . S
C2233 C2232 1.415 . S
H2234 C2231 0.999 . S
H2235 C2216 0.913 . S
H2236 C2254 0.951 . S
H2237 C2256 0.951 . S
H2238 C2258 0.950 . S
H2239 C2259 0.950 . S
H2240 C2261 0.950 . S
H2241 C2264 0.950 . S
H2242 C2265 0.950 . S
H2243 C2267 0.950 . S
H2244 C2268 0.950 . S
H2245 C2269 0.951 . S
H2246 C2271 0.951 . S
H2247 C2273 0.950 . S
H2248 C2274 0.950 . S
H2249 C2276 0.950 . S
H2250 C2279 0.950 . S
H2251 C2280 0.950 . S
H2252 C2282 0.950 . S
H2253 C2283 0.950 . S
C2254 H2236 0.951 . S
C2254 C2255 1.366 . S
C2254 C2256 1.388 . S
C2255 C2254 1.366 . S
C2255 C2259 1.385 . S
C2256 H2237 0.951 . S
C2256 C2254 1.388 . S
C2256 C2257 1.366 . S
C2257 C2256 1.366 . S
C2257 C2258 1.414 . S
C2257 C2260 1.499 . S
C2258 H2238 0.950 . S
C2258 C2257 1.414 . S
C2258 C2259 1.374 . S
C2259 H2239 0.950 . S
C2259 C2255 1.385 . S
C2259 C2258 1.374 . S
C2260 C2257 1.499 . S
C2260 C2261 1.373 . S
C2260 C2262 1.389 . S
C2261 H2240 0.950 . S
C2261 C2260 1.373 . S
C2261 C2277 1.377 . S
C2262 C2260 1.389 . S
C2262 C2263 1.524 . S
C2262 C2276 1.377 . S
C2263 C2262 1.524 . S
C2263 C2264 1.397 . S
C2263 C2268 1.363 . S
C2264 H2241 0.950 . S
C2264 C2263 1.397 . S
C2264 C2265 1.334 . S
C2265 H2242 0.950 . S
C2265 C2264 1.334 . S
C2265 C2266 1.287 . S
C2266 C2265 1.287 . S
C2266 C2267 1.524 . S
C2266 H2285 0.913 . S
C2267 H2243 0.950 . S
C2267 C2266 1.524 . S
C2267 C2268 1.415 . S
C2268 H2244 0.950 . S
C2268 C2263 1.363 . S
C2268 C2267 1.415 . S
C2269 H2245 0.951 . S
C2269 C2270 1.366 . S
C2269 C2271 1.388 . S
C2270 C2269 1.366 . S
C2270 C2274 1.385 . S
C2271 H2246 0.951 . S
C2271 C2269 1.388 . S
C2271 C2272 1.366 . S
C2272 C2271 1.366 . S
C2272 C2273 1.414 . S
C2272 C2275 1.499 . S
C2273 H2247 0.950 . S
C2273 C2272 1.414 . S
C2273 C2274 1.374 . S
C2274 H2248 0.950 . S
C2274 C2270 1.385 . S
C2274 C2273 1.374 . S
C2275 C2272 1.499 . S
C2275 C2276 1.373 . S
C2275 C2277 1.389 . S
C2276 H2249 0.950 . S
C2276 C2262 1.377 . S
C2276 C2275 1.373 . S
C2277 C2261 1.377 . S
C2277 C2275 1.389 . S
C2277 C2278 1.524 . S
C2278 C2277 1.524 . S
C2278 C2279 1.397 . S
C2278 C2283 1.363 . S
C2279 H2250 0.950 . S
C2279 C2278 1.397 . S
C2279 C2280 1.334 . S
C2280 H2251 0.950 . S
C2280 C2279 1.334 . S
C2280 C2281 1.287 . S
C2281 C2280 1.287 . S
C2281 C2282 1.524 . S
C2281 H2284 0.999 . S
C2282 H2252 0.950 . S
C2282 C2281 1.524 . S
C2282 C2283 1.415 . S
C2283 H2253 0.950 . S
C2283 C2278 1.363 . S
C2283 C2282 1.415 . S
H2284 C2281 0.999 . S
H2285 C2266 0.913 . S
H2286 C2304 0.951 . S
H2287 C2306 0.951 . S
H2288 C2308 0.950 . S
H2289 C2309 0.950 . S
H2290 C2311 0.950 . S
H2291 C2314 0.950 . S
H2292 C2315 0.950 . S
H2293 C2317 0.950 . S
H2294 C2318 0.950 . S
H2295 C2319 0.951 . S
H2296 C2321 0.951 . S
H2297 C2323 0.950 . S
H2298 C2324 0.950 . S
H2299 C2326 0.950 . S
H2300 C2329 0.950 . S
H2301 C2330 0.950 . S
H2302 C2332 0.950 . S
H2303 C2333 0.950 . S
C2304 H2286 0.951 . S
C2304 C2305 1.366 . S
C2304 C2306 1.388 . S
C2305 C2304 1.366 . S
C2305 C2309 1.385 . S
C2306 H2287 0.951 . S
C2306 C2304 1.388 . S
C2306 C2307 1.366 . S
C2307 C2306 1.366 . S
C2307 C2308 1.414 . S
C2307 C2310 1.499 . S
C2308 H2288 0.950 . S
C2308 C2307 1.414 . S
C2308 C2309 1.374 . S
C2309 H2289 0.950 . S
C2309 C2305 1.385 . S
C2309 C2308 1.374 . S
C2310 C2307 1.499 . S
C2310 C2311 1.373 . S
C2310 C2312 1.389 . S
C2311 H2290 0.950 . S
C2311 C2310 1.373 . S
C2311 C2327 1.377 . S
C2312 C2310 1.389 . S
C2312 C2313 1.524 . S
C2312 C2326 1.377 . S
C2313 C2312 1.524 . S
C2313 C2314 1.397 . S
C2313 C2318 1.363 . S
C2314 H2291 0.950 . S
C2314 C2313 1.397 . S
C2314 C2315 1.334 . S
C2315 H2292 0.950 . S
C2315 C2314 1.334 . S
C2315 C2316 1.287 . S
C2316 C2315 1.287 . S
C2316 C2317 1.524 . S
C2316 H2335 0.913 . S
C2317 H2293 0.950 . S
C2317 C2316 1.524 . S
C2317 C2318 1.415 . S
C2318 H2294 0.950 . S
C2318 C2313 1.363 . S
C2318 C2317 1.415 . S
C2319 H2295 0.951 . S
C2319 C2320 1.366 . S
C2319 C2321 1.388 . S
C2320 C2319 1.366 . S
C2320 C2324 1.385 . S
C2321 H2296 0.951 . S
C2321 C2319 1.388 . S
C2321 C2322 1.366 . S
C2322 C2321 1.366 . S
C2322 C2323 1.414 . S
C2322 C2325 1.499 . S
C2323 H2297 0.950 . S
C2323 C2322 1.414 . S
C2323 C2324 1.374 . S
C2324 H2298 0.950 . S
C2324 C2320 1.385 . S
C2324 C2323 1.374 . S
C2325 C2322 1.499 . S
C2325 C2326 1.373 . S
C2325 C2327 1.389 . S
C2326 H2299 0.950 . S
C2326 C2312 1.377 . S
C2326 C2325 1.373 . S
C2327 C2311 1.377 . S
C2327 C2325 1.389 . S
C2327 C2328 1.524 . S
C2328 C2327 1.524 . S
C2328 C2329 1.397 . S
C2328 C2333 1.363 . S
C2329 H2300 0.950 . S
C2329 C2328 1.397 . S
C2329 C2330 1.334 . S
C2330 H2301 0.950 . S
C2330 C2329 1.334 . S
C2330 C2331 1.287 . S
C2331 C2330 1.287 . S
C2331 C2332 1.524 . S
C2331 H2334 0.999 . S
C2332 H2302 0.950 . S
C2332 C2331 1.524 . S
C2332 C2333 1.415 . S
C2333 H2303 0.950 . S
C2333 C2328 1.363 . S
C2333 C2332 1.415 . S
H2334 C2331 0.999 . S
H2335 C2316 0.913 . S
H2336 C2354 0.951 . S
H2337 C2356 0.951 . S
H2338 C2358 0.950 . S
H2339 C2359 0.950 . S
H2340 C2361 0.950 . S
H2341 C2364 0.950 . S
H2342 C2365 0.950 . S
H2343 C2367 0.950 . S
H2344 C2368 0.950 . S
H2345 C2369 0.951 . S
H2346 C2371 0.951 . S
H2347 C2373 0.950 . S
H2348 C2374 0.950 . S
H2349 C2376 0.950 . S
H2350 C2379 0.950 . S
H2351 C2380 0.950 . S
H2352 C2382 0.950 . S
H2353 C2383 0.950 . S
C2354 H2336 0.951 . S
C2354 C2355 1.366 . S
C2354 C2356 1.388 . S
C2355 C2354 1.366 . S
C2355 C2359 1.385 . S
C2356 H2337 0.951 . S
C2356 C2354 1.388 . S
C2356 C2357 1.366 . S
C2357 C2356 1.366 . S
C2357 C2358 1.414 . S
C2357 C2360 1.499 . S
C2358 H2338 0.950 . S
C2358 C2357 1.414 . S
C2358 C2359 1.374 . S
C2359 H2339 0.950 . S
C2359 C2355 1.385 . S
C2359 C2358 1.374 . S
C2360 C2357 1.499 . S
C2360 C2361 1.373 . S
C2360 C2362 1.389 . S
C2361 H2340 0.950 . S
C2361 C2360 1.373 . S
C2361 C2377 1.377 . S
C2362 C2360 1.389 . S
C2362 C2363 1.524 . S
C2362 C2376 1.377 . S
C2363 C2362 1.524 . S
C2363 C2364 1.397 . S
C2363 C2368 1.363 . S
C2364 H2341 0.950 . S
C2364 C2363 1.397 . S
C2364 C2365 1.334 . S
C2365 H2342 0.950 . S
C2365 C2364 1.334 . S
C2365 C2366 1.287 . S
C2366 C2365 1.287 . S
C2366 C2367 1.524 . S
C2366 H2385 0.913 . S
C2367 H2343 0.950 . S
C2367 C2366 1.524 . S
C2367 C2368 1.415 . S
C2368 H2344 0.950 . S
C2368 C2363 1.363 . S
C2368 C2367 1.415 . S
C2369 H2345 0.951 . S
C2369 C2370 1.366 . S
C2369 C2371 1.388 . S
C2370 C2369 1.366 . S
C2370 C2374 1.385 . S
C2371 H2346 0.951 . S
C2371 C2369 1.388 . S
C2371 C2372 1.366 . S
C2372 C2371 1.366 . S
C2372 C2373 1.414 . S
C2372 C2375 1.499 . S
C2373 H2347 0.950 . S
C2373 C2372 1.414 . S
C2373 C2374 1.374 . S
C2374 H2348 0.950 . S
C2374 C2370 1.385 . S
C2374 C2373 1.374 . S
C2375 C2372 1.499 . S
C2375 C2376 1.373 . S
C2375 C2377 1.389 . S
C2376 H2349 0.950 . S
C2376 C2362 1.377 . S
C2376 C2375 1.373 . S
C2377 C2361 1.377 . S
C2377 C2375 1.389 . S
C2377 C2378 1.524 . S
C2378 C2377 1.524 . S
C2378 C2379 1.397 . S
C2378 C2383 1.363 . S
C2379 H2350 0.950 . S
C2379 C2378 1.397 . S
C2379 C2380 1.334 . S
C2380 H2351 0.950 . S
C2380 C2379 1.334 . S
C2380 C2381 1.287 . S
C2381 C2380 1.287 . S
C2381 C2382 1.524 . S
C2381 H2384 0.999 . S
C2382 H2352 0.950 . S
C2382 C2381 1.524 . S
C2382 C2383 1.415 . S
C2383 H2353 0.950 . S
C2383 C2378 1.363 . S
C2383 C2382 1.415 . S
H2384 C2381 0.999 . S
H2385 C2366 0.913 . S
H2386 C2404 0.951 . S
H2387 C2406 0.951 . S
H2388 C2408 0.950 . S
H2389 C2409 0.950 . S
H2390 C2411 0.950 . S
H2391 C2414 0.950 . S
H2392 C2415 0.950 . S
H2393 C2417 0.950 . S
H2394 C2418 0.950 . S
H2395 C2419 0.951 1_655 S
H2396 C2421 0.934 1_655 S
H2397 C2423 0.950 . S
H2398 C2424 0.950 . S
H2399 C2426 0.950 . S
H2400 C2429 0.950 . S
H2401 C2430 0.950 . S
H2402 C2432 0.950 . S
H2403 C2433 0.950 . S
C2404 H2386 0.951 . S
C2404 C2405 1.366 . S
C2404 C2406 1.388 . S
C2405 C2404 1.366 . S
C2405 C2409 1.385 1_455 S
C2406 H2387 0.951 . S
C2406 C2404 1.388 . S
C2406 C2407 1.366 . S
C2407 C2406 1.366 . S
C2407 C2408 1.414 1_455 S
C2407 C2410 1.499 . S
C2408 H2388 0.950 . S
C2408 C2407 1.414 1_655 S
C2408 C2409 1.374 . S
C2409 H2389 0.950 . S
C2409 C2405 1.385 1_655 S
C2409 C2408 1.374 . S
C2410 C2407 1.499 . S
C2410 C2411 1.373 1_455 S
C2410 C2412 1.389 . S
C2411 H2390 0.950 . S
C2411 C2410 1.373 1_655 S
C2411 C2427 1.377 . S
C2412 C2410 1.389 . S
C2412 C2413 1.524 . S
C2412 C2426 1.377 . S
C2413 C2412 1.524 . S
C2413 C2414 1.397 . S
C2413 C2418 1.363 . S
C2414 H2391 0.950 . S
C2414 C2413 1.397 . S
C2414 C2415 1.334 . S
C2415 H2392 0.950 . S
C2415 C2414 1.334 . S
C2415 C2416 1.287 . S
C2416 C2415 1.287 . S
C2416 C2417 1.524 . S
C2416 H2435 0.913 . S
C2417 H2393 0.950 . S
C2417 C2416 1.524 . S
C2417 C2418 1.415 . S
C2418 H2394 0.950 . S
C2418 C2413 1.363 . S
C2418 C2417 1.415 . S
C2419 H2395 0.951 1_455 S
C2419 C2420 1.366 . S
C2419 C2421 1.394 . S
C2420 C2419 1.366 . S
C2420 C2424 1.385 . S
C2421 H2396 0.934 1_455 S
C2421 C2419 1.394 . S
C2421 C2422 1.377 . S
C2422 C2421 1.377 . S
C2422 C2423 1.414 . S
C2422 C2425 1.499 . S
C2423 H2397 0.950 . S
C2423 C2422 1.414 . S
C2423 C2424 1.374 . S
C2424 H2398 0.950 . S
C2424 C2420 1.385 . S
C2424 C2423 1.374 . S
C2425 C2422 1.499 . S
C2425 C2426 1.373 . S
C2425 C2427 1.389 1_455 S
C2426 H2399 0.950 . S
C2426 C2412 1.377 . S
C2426 C2425 1.373 . S
C2427 C2411 1.377 . S
C2427 C2425 1.389 1_655 S
C2427 C2428 1.524 . S
C2428 C2427 1.524 . S
C2428 C2429 1.397 . S
C2428 C2433 1.363 . S
C2429 H2400 0.950 . S
C2429 C2428 1.397 . S
C2429 C2430 1.334 . S
C2430 H2401 0.950 . S
C2430 C2429 1.334 . S
C2430 C2431 1.287 . S
C2431 C2430 1.287 . S
C2431 C2432 1.524 . S
C2431 H2434 0.999 . S
C2432 H2402 0.950 . S
C2432 C2431 1.524 . S
C2432 C2433 1.415 . S
C2433 H2403 0.950 . S
C2433 C2428 1.363 . S
C2433 C2432 1.415 . S
H2434 C2431 0.999 . S
H2435 C2416 0.913 . S
H2436 C2454 0.951 . S
H2437 C2456 0.951 . S
H2438 C2458 0.950 . S
H2439 C2459 0.950 . S
H2440 C2461 0.950 . S
H2441 C2464 0.950 . S
H2442 C2465 0.950 . S
H2443 C2467 0.950 . S
H2444 C2468 0.950 . S
H2445 C2469 0.951 . S
H2446 C2471 0.951 . S
H2447 C2473 0.950 . S
H2448 C2474 0.950 . S
H2449 C2476 0.950 . S
H2450 C2479 0.950 . S
H2451 C2480 0.950 . S
H2452 C2482 0.950 . S
H2453 C2483 0.950 . S
C2454 H2436 0.951 . S
C2454 C2455 1.366 . S
C2454 C2456 1.388 . S
C2455 C2454 1.366 . S
C2455 C2459 1.385 . S
C2456 H2437 0.951 . S
C2456 C2454 1.388 . S
C2456 C2457 1.366 . S
C2457 C2456 1.366 . S
C2457 C2458 1.414 . S
C2457 C2460 1.499 . S
C2458 H2438 0.950 . S
C2458 C2457 1.414 . S
C2458 C2459 1.374 . S
C2459 H2439 0.950 . S
C2459 C2455 1.385 . S
C2459 C2458 1.374 . S
C2460 C2457 1.499 . S
C2460 C2461 1.373 . S
C2460 C2462 1.389 . S
C2461 H2440 0.950 . S
C2461 C2460 1.373 . S
C2461 C2477 1.377 . S
C2462 C2460 1.389 . S
C2462 C2463 1.524 . S
C2462 C2476 1.377 . S
C2463 C2462 1.524 . S
C2463 C2464 1.397 . S
C2463 C2468 1.363 . S
C2464 H2441 0.950 . S
C2464 C2463 1.397 . S
C2464 C2465 1.334 . S
C2465 H2442 0.950 . S
C2465 C2464 1.334 . S
C2465 C2466 1.287 . S
C2466 C2465 1.287 . S
C2466 C2467 1.524 . S
C2466 H2485 0.913 . S
C2467 H2443 0.950 . S
C2467 C2466 1.524 . S
C2467 C2468 1.415 . S
C2468 H2444 0.950 . S
C2468 C2463 1.363 . S
C2468 C2467 1.415 . S
C2469 H2445 0.951 . S
C2469 C2470 1.366 . S
C2469 C2471 1.388 . S
C2470 C2469 1.366 . S
C2470 C2474 1.385 . S
C2471 H2446 0.951 . S
C2471 C2469 1.388 . S
C2471 C2472 1.366 . S
C2472 C2471 1.366 . S
C2472 C2473 1.414 . S
C2472 C2475 1.499 . S
C2473 H2447 0.950 . S
C2473 C2472 1.414 . S
C2473 C2474 1.374 . S
C2474 H2448 0.950 . S
C2474 C2470 1.385 . S
C2474 C2473 1.374 . S
C2475 C2472 1.499 . S
C2475 C2476 1.373 . S
C2475 C2477 1.389 . S
C2476 H2449 0.950 . S
C2476 C2462 1.377 . S
C2476 C2475 1.373 . S
C2477 C2461 1.377 . S
C2477 C2475 1.389 . S
C2477 C2478 1.524 . S
C2478 C2477 1.524 . S
C2478 C2479 1.397 . S
C2478 C2483 1.363 . S
C2479 H2450 0.950 . S
C2479 C2478 1.397 . S
C2479 C2480 1.334 . S
C2480 H2451 0.950 . S
C2480 C2479 1.334 . S
C2480 C2481 1.287 . S
C2481 C2480 1.287 . S
C2481 C2482 1.524 . S
C2481 H2484 0.999 . S
C2482 H2452 0.950 . S
C2482 C2481 1.524 . S
C2482 C2483 1.415 . S
C2483 H2453 0.950 . S
C2483 C2478 1.363 . S
C2483 C2482 1.415 . S
H2484 C2481 0.999 . S
H2485 C2466 0.913 . S
H2486 C2504 0.951 . S
H2487 C2506 0.951 . S
H2488 C2508 0.950 . S
H2489 C2509 0.950 . S
H2490 C2511 0.950 . S
H2491 C2514 0.950 . S
H2492 C2515 0.950 . S
H2493 C2517 0.950 1_655 S
H2494 C2518 0.950 1_655 S
H2495 C2519 0.951 . S
H2496 C2521 0.951 . S
H2497 C2523 0.950 1_655 S
H2498 C2524 0.951 . S
H2499 C2526 0.950 . S
H2500 C2529 0.950 . S
H2501 C2530 0.950 . S
H2502 C2532 0.950 . S
H2503 C2533 0.950 . S
C2504 H2486 0.951 . S
C2504 C2505 1.366 . S
C2504 C2506 1.388 . S
C2505 C2504 1.366 . S
C2505 C2509 1.385 . S
C2506 H2487 0.951 . S
C2506 C2504 1.388 . S
C2506 C2507 1.366 . S
C2507 C2506 1.366 . S
C2507 C2508 1.414 . S
C2507 C2510 1.499 . S
C2508 H2488 0.950 . S
C2508 C2507 1.414 . S
C2508 C2509 1.374 . S
C2509 H2489 0.950 . S
C2509 C2505 1.385 . S
C2509 C2508 1.374 . S
C2510 C2507 1.499 . S
C2510 C2511 1.373 . S
C2510 C2512 1.389 . S
C2511 H2490 0.950 . S
C2511 C2510 1.373 . S
C2511 C2527 1.377 . S
C2512 C2510 1.389 . S
C2512 C2513 1.524 . S
C2512 C2526 1.377 . S
C2513 C2512 1.524 . S
C2513 C2514 1.397 . S
C2513 C2518 1.363 . S
C2514 H2491 0.950 . S
C2514 C2513 1.397 . S
C2514 C2515 1.334 . S
C2515 H2492 0.950 . S
C2515 C2514 1.334 . S
C2515 C2516 1.287 . S
C2516 C2515 1.287 . S
C2516 C2517 1.524 . S
C2516 H2535 0.913 . S
C2517 H2493 0.950 1_455 S
C2517 C2516 1.524 . S
C2517 C2518 1.415 . S
C2518 H2494 0.950 1_455 S
C2518 C2513 1.363 . S
C2518 C2517 1.415 . S
C2519 H2495 0.951 . S
C2519 C2520 1.366 . S
C2519 C2521 1.388 . S
C2520 C2519 1.366 . S
C2520 C2524 1.384 1_455 S
C2521 H2496 0.951 . S
C2521 C2519 1.388 . S
C2521 C2522 1.366 . S
C2522 C2521 1.366 . S
C2522 C2523 1.414 . S
C2522 C2525 1.499 . S
C2523 H2497 0.950 1_455 S
C2523 C2522 1.414 . S
C2523 C2524 1.373 1_455 S
C2524 H2498 0.951 . S
C2524 C2520 1.384 1_655 S
C2524 C2523 1.373 1_655 S
C2525 C2522 1.499 . S
C2525 C2526 1.373 . S
C2525 C2527 1.389 . S
C2526 H2499 0.950 . S
C2526 C2512 1.377 . S
C2526 C2525 1.373 . S
C2527 C2511 1.377 . S
C2527 C2525 1.389 . S
C2527 C2528 1.524 . S
C2528 C2527 1.524 . S
C2528 C2529 1.397 . S
C2528 C2533 1.363 . S
C2529 H2500 0.950 . S
C2529 C2528 1.397 . S
C2529 C2530 1.334 . S
C2530 H2501 0.950 . S
C2530 C2529 1.334 . S
C2530 C2531 1.287 . S
C2531 C2530 1.287 . S
C2531 C2532 1.524 . S
C2531 H2534 0.999 . S
C2532 H2502 0.950 . S
C2532 C2531 1.524 . S
C2532 C2533 1.415 . S
C2533 H2503 0.950 . S
C2533 C2528 1.363 . S
C2533 C2532 1.415 . S
H2534 C2531 0.999 . S
H2535 C2516 0.913 . S
H2536 C2554 0.951 . S
H2537 C2556 0.951 . S
H2538 C2558 0.950 . S
H2539 C2559 0.950 . S
H2540 C2561 0.950 . S
H2541 C2564 0.950 . S
H2542 C2565 0.950 . S
H2543 C2567 0.950 . S
H2544 C2568 0.950 . S
H2545 C2569 0.951 . S
H2546 C2571 0.951 . S
H2547 C2573 0.950 . S
H2548 C2574 0.950 . S
H2549 C2576 0.950 . S
H2550 C2579 0.950 . S
H2551 C2580 0.950 . S
H2552 C2582 0.950 . S
H2553 C2583 0.950 . S
C2554 H2536 0.951 . S
C2554 C2555 1.366 . S
C2554 C2556 1.388 . S
C2555 C2554 1.366 . S
C2555 C2559 1.385 . S
C2556 H2537 0.951 . S
C2556 C2554 1.388 . S
C2556 C2557 1.366 . S
C2557 C2556 1.366 . S
C2557 C2558 1.414 . S
C2557 C2560 1.499 . S
C2558 H2538 0.950 . S
C2558 C2557 1.414 . S
C2558 C2559 1.374 . S
C2559 H2539 0.950 . S
C2559 C2555 1.385 . S
C2559 C2558 1.374 . S
C2560 C2557 1.499 . S
C2560 C2561 1.373 . S
C2560 C2562 1.389 . S
C2561 H2540 0.950 . S
C2561 C2560 1.373 . S
C2561 C2577 1.377 . S
C2562 C2560 1.389 . S
C2562 C2563 1.524 . S
C2562 C2576 1.377 . S
C2563 C2562 1.524 . S
C2563 C2564 1.397 . S
C2563 C2568 1.363 . S
C2564 H2541 0.950 . S
C2564 C2563 1.397 . S
C2564 C2565 1.334 . S
C2565 H2542 0.950 . S
C2565 C2564 1.334 . S
C2565 C2566 1.287 . S
C2566 C2565 1.287 . S
C2566 C2567 1.524 . S
C2566 H2585 0.913 . S
C2567 H2543 0.950 . S
C2567 C2566 1.524 . S
C2567 C2568 1.415 . S
C2568 H2544 0.950 . S
C2568 C2563 1.363 . S
C2568 C2567 1.415 . S
C2569 H2545 0.951 . S
C2569 C2570 1.366 . S
C2569 C2571 1.388 . S
C2570 C2569 1.366 . S
C2570 C2574 1.385 . S
C2571 H2546 0.951 . S
C2571 C2569 1.388 . S
C2571 C2572 1.366 . S
C2572 C2571 1.366 . S
C2572 C2573 1.414 . S
C2572 C2575 1.499 . S
C2573 H2547 0.950 . S
C2573 C2572 1.414 . S
C2573 C2574 1.374 . S
C2574 H2548 0.950 . S
C2574 C2570 1.385 . S
C2574 C2573 1.374 . S
C2575 C2572 1.499 . S
C2575 C2576 1.373 . S
C2575 C2577 1.389 . S
C2576 H2549 0.950 . S
C2576 C2562 1.377 . S
C2576 C2575 1.373 . S
C2577 C2561 1.377 . S
C2577 C2575 1.389 . S
C2577 C2578 1.524 . S
C2578 C2577 1.524 . S
C2578 C2579 1.397 . S
C2578 C2583 1.363 . S
C2579 H2550 0.950 . S
C2579 C2578 1.397 . S
C2579 C2580 1.334 . S
C2580 H2551 0.950 . S
C2580 C2579 1.334 . S
C2580 C2581 1.287 . S
C2581 C2580 1.287 . S
C2581 C2582 1.524 . S
C2581 H2584 0.999 . S
C2582 H2552 0.950 . S
C2582 C2581 1.524 . S
C2582 C2583 1.415 . S
C2583 H2553 0.950 . S
C2583 C2578 1.363 . S
C2583 C2582 1.415 . S
H2584 C2581 0.999 . S
H2585 C2566 0.913 . S
H2586 C2604 0.951 . S
H2587 C2606 0.951 . S
H2588 C2608 0.950 . S
H2589 C2609 0.950 . S
H2590 C2611 0.950 . S
H2591 C2614 0.950 . S
H2592 C2615 0.950 . S
H2593 C2617 0.950 . S
H2594 C2618 0.950 . S
H2595 C2619 0.951 . S
H2596 C2621 0.951 . S
H2597 C2623 0.950 . S
H2598 C2624 0.950 . S
H2599 C2626 0.950 . S
H2600 C2629 0.950 . S
H2601 C2630 0.950 . S
H2602 C2632 0.950 . S
H2603 C2633 0.950 . S
C2604 H2586 0.951 . S
C2604 C2605 1.366 . S
C2604 C2606 1.388 . S
C2605 C2604 1.366 . S
C2605 C2609 1.385 . S
C2606 H2587 0.951 . S
C2606 C2604 1.388 . S
C2606 C2607 1.366 . S
C2607 C2606 1.366 . S
C2607 C2608 1.414 . S
C2607 C2610 1.499 . S
C2608 H2588 0.950 . S
C2608 C2607 1.414 . S
C2608 C2609 1.374 . S
C2609 H2589 0.950 . S
C2609 C2605 1.385 . S
C2609 C2608 1.374 . S
C2610 C2607 1.499 . S
C2610 C2611 1.373 . S
C2610 C2612 1.389 . S
C2611 H2590 0.950 . S
C2611 C2610 1.373 . S
C2611 C2627 1.377 . S
C2612 C2610 1.389 . S
C2612 C2613 1.524 . S
C2612 C2626 1.377 . S
C2613 C2612 1.524 . S
C2613 C2614 1.397 . S
C2613 C2618 1.363 . S
C2614 H2591 0.950 . S
C2614 C2613 1.397 . S
C2614 C2615 1.334 . S
C2615 H2592 0.950 . S
C2615 C2614 1.334 . S
C2615 C2616 1.287 . S
C2616 C2615 1.287 . S
C2616 C2617 1.524 . S
C2616 H2635 0.913 . S
C2617 H2593 0.950 . S
C2617 C2616 1.524 . S
C2617 C2618 1.415 . S
C2618 H2594 0.950 . S
C2618 C2613 1.363 . S
C2618 C2617 1.415 . S
C2619 H2595 0.951 . S
C2619 C2620 1.366 . S
C2619 C2621 1.388 . S
C2620 C2619 1.366 . S
C2620 C2624 1.385 . S
C2621 H2596 0.951 . S
C2621 C2619 1.388 . S
C2621 C2622 1.366 . S
C2622 C2621 1.366 . S
C2622 C2623 1.414 . S
C2622 C2625 1.499 . S
C2623 H2597 0.950 . S
C2623 C2622 1.414 . S
C2623 C2624 1.374 . S
C2624 H2598 0.950 . S
C2624 C2620 1.385 . S
C2624 C2623 1.374 . S
C2625 C2622 1.499 . S
C2625 C2626 1.373 . S
C2625 C2627 1.389 . S
C2626 H2599 0.950 . S
C2626 C2612 1.377 . S
C2626 C2625 1.373 . S
C2627 C2611 1.377 . S
C2627 C2625 1.389 . S
C2627 C2628 1.524 . S
C2628 C2627 1.524 . S
C2628 C2629 1.397 . S
C2628 C2633 1.363 . S
C2629 H2600 0.950 . S
C2629 C2628 1.397 . S
C2629 C2630 1.334 . S
C2630 H2601 0.950 . S
C2630 C2629 1.334 . S
C2630 C2631 1.287 . S
C2631 C2630 1.287 . S
C2631 C2632 1.524 . S
C2631 H2634 0.999 . S
C2632 H2602 0.950 . S
C2632 C2631 1.524 . S
C2632 C2633 1.415 . S
C2633 H2603 0.950 . S
C2633 C2628 1.363 . S
C2633 C2632 1.415 . S
H2634 C2631 0.999 . S
H2635 C2616 0.913 . S
H2636 C2654 0.951 . S
H2637 C2656 0.951 . S
H2638 C2658 0.950 . S
H2639 C2659 0.950 . S
H2640 C2661 0.950 . S
H2641 C2664 0.950 . S
H2642 C2665 0.950 . S
H2643 C2667 0.950 . S
H2644 C2668 0.950 . S
H2645 C2669 0.951 . S
H2646 C2671 0.951 . S
H2647 C2673 0.950 . S
H2648 C2674 0.950 . S
H2649 C2676 0.950 . S
H2650 C2679 0.950 . S
H2651 C2680 0.950 . S
H2652 C2682 0.950 . S
H2653 C2683 0.950 . S
C2654 H2636 0.951 . S
C2654 C2655 1.366 . S
C2654 C2656 1.388 . S
C2655 C2654 1.366 . S
C2655 C2659 1.385 . S
C2656 H2637 0.951 . S
C2656 C2654 1.388 . S
C2656 C2657 1.366 . S
C2657 C2656 1.366 . S
C2657 C2658 1.414 . S
C2657 C2660 1.499 . S
C2658 H2638 0.950 . S
C2658 C2657 1.414 . S
C2658 C2659 1.374 . S
C2659 H2639 0.950 . S
C2659 C2655 1.385 . S
C2659 C2658 1.374 . S
C2660 C2657 1.499 . S
C2660 C2661 1.373 . S
C2660 C2662 1.389 . S
C2661 H2640 0.950 . S
C2661 C2660 1.373 . S
C2661 C2677 1.377 . S
C2662 C2660 1.389 . S
C2662 C2663 1.524 . S
C2662 C2676 1.377 . S
C2663 C2662 1.524 . S
C2663 C2664 1.397 . S
C2663 C2668 1.363 . S
C2664 H2641 0.950 . S
C2664 C2663 1.397 . S
C2664 C2665 1.334 . S
C2665 H2642 0.950 . S
C2665 C2664 1.334 . S
C2665 C2666 1.287 . S
C2666 C2665 1.287 . S
C2666 C2667 1.524 . S
C2666 H2685 0.913 . S
C2667 H2643 0.950 . S
C2667 C2666 1.524 . S
C2667 C2668 1.415 . S
C2668 H2644 0.950 . S
C2668 C2663 1.363 . S
C2668 C2667 1.415 . S
C2669 H2645 0.951 . S
C2669 C2670 1.366 . S
C2669 C2671 1.388 . S
C2670 C2669 1.366 . S
C2670 C2674 1.385 . S
C2671 H2646 0.951 . S
C2671 C2669 1.388 . S
C2671 C2672 1.366 . S
C2672 C2671 1.366 . S
C2672 C2673 1.414 . S
C2672 C2675 1.499 . S
C2673 H2647 0.950 . S
C2673 C2672 1.414 . S
C2673 C2674 1.374 . S
C2674 H2648 0.950 . S
C2674 C2670 1.385 . S
C2674 C2673 1.374 . S
C2675 C2672 1.499 . S
C2675 C2676 1.373 . S
C2675 C2677 1.389 . S
C2676 H2649 0.950 . S
C2676 C2662 1.377 . S
C2676 C2675 1.373 . S
C2677 C2661 1.377 . S
C2677 C2675 1.389 . S
C2677 C2678 1.524 . S
C2678 C2677 1.524 . S
C2678 C2679 1.397 . S
C2678 C2683 1.363 . S
C2679 H2650 0.950 . S
C2679 C2678 1.397 . S
C2679 C2680 1.334 . S
C2680 H2651 0.950 . S
C2680 C2679 1.334 . S
C2680 C2681 1.287 . S
C2681 C2680 1.287 . S
C2681 C2682 1.524 . S
C2681 H2684 0.999 . S
C2682 H2652 0.950 . S
C2682 C2681 1.524 . S
C2682 C2683 1.415 . S
C2683 H2653 0.950 . S
C2683 C2678 1.363 . S
C2683 C2682 1.415 . S
H2684 C2681 0.999 . S
H2685 C2666 0.913 . S
H2686 C2704 0.951 . S
H2687 C2706 0.951 . S
H2688 C2708 0.950 . S
H2689 C2709 0.966 . S
H2690 C2711 0.950 . S
H2691 C2714 0.950 . S
H2692 C2715 0.950 . S
H2693 C2717 0.950 . S
H2694 C2718 0.950 . S
H2695 C2719 0.951 . S
H2696 C2721 0.951 . S
H2697 C2723 0.950 . S
H2698 C2724 0.950 . S
H2699 C2726 0.950 . S
H2700 C2729 0.950 . S
H2701 C2730 0.950 . S
H2702 C2732 0.950 . S
H2703 C2733 0.950 . S
C2704 H2686 0.951 . S
C2704 C2705 1.366 . S
C2704 C2706 1.388 1_556 S
C2705 C2704 1.366 . S
C2705 C2709 1.401 . S
C2706 H2687 0.951 . S
C2706 C2704 1.388 1_554 S
C2706 C2707 1.366 . S
C2707 C2706 1.366 . S
C2707 C2708 1.414 . S
C2707 C2710 1.499 . S
C2708 H2688 0.950 . S
C2708 C2707 1.414 . S
C2708 C2709 1.343 1_554 S
C2709 H2689 0.966 . S
C2709 C2705 1.401 . S
C2709 C2708 1.343 1_556 S
C2710 C2707 1.499 . S
C2710 C2711 1.373 . S
C2710 C2712 1.389 . S
C2711 H2690 0.950 . S
C2711 C2710 1.373 . S
C2711 C2727 1.377 . S
C2712 C2710 1.389 . S
C2712 C2713 1.524 . S
C2712 C2726 1.377 . S
C2713 C2712 1.524 . S
C2713 C2714 1.397 . S
C2713 C2718 1.363 . S
C2714 H2691 0.950 . S
C2714 C2713 1.397 . S
C2714 C2715 1.334 1_554 S
C2715 H2692 0.950 . S
C2715 C2714 1.334 1_556 S
C2715 C2716 1.287 . S
C2716 C2715 1.287 . S
C2716 C2717 1.524 1_556 S
C2716 H2735 0.913 . S
C2717 H2693 0.950 . S
C2717 C2716 1.524 1_554 S
C2717 C2718 1.415 . S
C2718 H2694 0.950 . S
C2718 C2713 1.363 . S
C2718 C2717 1.415 . S
C2719 H2695 0.951 . S
C2719 C2720 1.366 . S
C2719 C2721 1.388 . S
C2720 C2719 1.366 . S
C2720 C2724 1.385 . S
C2721 H2696 0.951 . S
C2721 C2719 1.388 . S
C2721 C2722 1.366 . S
C2722 C2721 1.366 . S
C2722 C2723 1.414 . S
C2722 C2725 1.499 . S
C2723 H2697 0.950 . S
C2723 C2722 1.414 . S
C2723 C2724 1.374 . S
C2724 H2698 0.950 . S
C2724 C2720 1.385 . S
C2724 C2723 1.374 . S
C2725 C2722 1.499 . S
C2725 C2726 1.373 . S
C2725 C2727 1.389 . S
C2726 H2699 0.950 . S
C2726 C2712 1.377 . S
C2726 C2725 1.373 . S
C2727 C2711 1.377 . S
C2727 C2725 1.389 . S
C2727 C2728 1.524 . S
C2728 C2727 1.524 . S
C2728 C2729 1.397 . S
C2728 C2733 1.363 . S
C2729 H2700 0.950 . S
C2729 C2728 1.397 . S
C2729 C2730 1.334 . S
C2730 H2701 0.950 . S
C2730 C2729 1.334 . S
C2730 C2731 1.287 . S
C2731 C2730 1.287 . S
C2731 C2732 1.524 . S
C2731 H2734 0.999 . S
C2732 H2702 0.950 . S
C2732 C2731 1.524 . S
C2732 C2733 1.415 . S
C2733 H2703 0.950 . S
C2733 C2728 1.363 . S
C2733 C2732 1.415 . S
H2734 C2731 0.999 . S
H2735 C2716 0.913 . S
H2736 C2754 0.951 . S
H2737 C2756 0.951 . S
H2738 C2758 0.950 . S
H2739 C2759 0.950 . S
H2740 C2761 0.950 . S
H2741 C2764 0.950 . S
H2742 C2765 0.950 . S
H2743 C2767 0.950 . S
H2744 C2768 0.950 . S
H2745 C2769 0.951 . S
H2746 C2771 0.951 . S
H2747 C2773 0.950 . S
H2748 C2774 0.950 . S
H2749 C2776 0.950 . S
H2750 C2779 0.950 . S
H2751 C2780 0.950 . S
H2752 C2782 0.950 . S
H2753 C2783 0.950 . S
C2754 H2736 0.951 . S
C2754 C2755 1.366 . S
C2754 C2756 1.388 . S
C2755 C2754 1.366 . S
C2755 C2759 1.385 . S
C2756 H2737 0.951 . S
C2756 C2754 1.388 . S
C2756 C2757 1.366 . S
C2757 C2756 1.366 . S
C2757 C2758 1.414 . S
C2757 C2760 1.499 . S
C2758 H2738 0.950 . S
C2758 C2757 1.414 . S
C2758 C2759 1.374 . S
C2759 H2739 0.950 . S
C2759 C2755 1.385 . S
C2759 C2758 1.374 . S
C2760 C2757 1.499 . S
C2760 C2761 1.373 . S
C2760 C2762 1.389 . S
C2761 H2740 0.950 . S
C2761 C2760 1.373 . S
C2761 C2777 1.377 . S
C2762 C2760 1.389 . S
C2762 C2763 1.524 . S
C2762 C2776 1.377 . S
C2763 C2762 1.524 . S
C2763 C2764 1.397 . S
C2763 C2768 1.363 . S
C2764 H2741 0.950 . S
C2764 C2763 1.397 . S
C2764 C2765 1.334 . S
C2765 H2742 0.950 . S
C2765 C2764 1.334 . S
C2765 C2766 1.287 . S
C2766 C2765 1.287 . S
C2766 C2767 1.524 . S
C2766 H2785 0.913 . S
C2767 H2743 0.950 . S
C2767 C2766 1.524 . S
C2767 C2768 1.415 . S
C2768 H2744 0.950 . S
C2768 C2763 1.363 . S
C2768 C2767 1.415 . S
C2769 H2745 0.951 . S
C2769 C2770 1.366 . S
C2769 C2771 1.388 . S
C2770 C2769 1.366 . S
C2770 C2774 1.385 . S
C2771 H2746 0.951 . S
C2771 C2769 1.388 . S
C2771 C2772 1.366 . S
C2772 C2771 1.366 . S
C2772 C2773 1.414 . S
C2772 C2775 1.499 . S
C2773 H2747 0.950 . S
C2773 C2772 1.414 . S
C2773 C2774 1.374 . S
C2774 H2748 0.950 . S
C2774 C2770 1.385 . S
C2774 C2773 1.374 . S
C2775 C2772 1.499 . S
C2775 C2776 1.373 . S
C2775 C2777 1.389 . S
C2776 H2749 0.950 . S
C2776 C2762 1.377 . S
C2776 C2775 1.373 . S
C2777 C2761 1.377 . S
C2777 C2775 1.389 . S
C2777 C2778 1.524 . S
C2778 C2777 1.524 . S
C2778 C2779 1.397 . S
C2778 C2783 1.363 . S
C2779 H2750 0.950 . S
C2779 C2778 1.397 . S
C2779 C2780 1.334 . S
C2780 H2751 0.950 . S
C2780 C2779 1.334 . S
C2780 C2781 1.287 . S
C2781 C2780 1.287 . S
C2781 C2782 1.524 . S
C2781 H2784 0.999 . S
C2782 H2752 0.950 . S
C2782 C2781 1.524 . S
C2782 C2783 1.415 . S
C2783 H2753 0.950 . S
C2783 C2778 1.363 . S
C2783 C2782 1.415 . S
H2784 C2781 0.999 . S
H2785 C2766 0.913 . S
H2786 C2804 0.951 . S
H2787 C2806 0.951 . S
H2788 C2808 0.950 . S
H2789 C2809 0.950 . S
H2790 C2811 0.950 . S
H2791 C2814 0.950 . S
H2792 C2815 0.950 . S
H2793 C2817 0.950 . S
H2794 C2818 0.950 . S
H2795 C2819 0.951 . S
H2796 C2821 0.951 . S
H2797 C2823 0.950 . S
H2798 C2824 0.950 . S
H2799 C2826 0.950 . S
H2800 C2829 0.950 . S
H2801 C2830 0.950 . S
H2802 C2832 0.950 . S
H2803 C2833 0.950 . S
C2804 H2786 0.951 . S
C2804 C2805 1.366 . S
C2804 C2806 1.388 . S
C2805 C2804 1.366 . S
C2805 C2809 1.385 . S
C2806 H2787 0.951 . S
C2806 C2804 1.388 . S
C2806 C2807 1.366 . S
C2807 C2806 1.366 . S
C2807 C2808 1.414 . S
C2807 C2810 1.499 . S
C2808 H2788 0.950 . S
C2808 C2807 1.414 . S
C2808 C2809 1.374 . S
C2809 H2789 0.950 . S
C2809 C2805 1.385 . S
C2809 C2808 1.374 . S
C2810 C2807 1.499 . S
C2810 C2811 1.373 . S
C2810 C2812 1.389 . S
C2811 H2790 0.950 . S
C2811 C2810 1.373 . S
C2811 C2827 1.377 . S
C2812 C2810 1.389 . S
C2812 C2813 1.524 . S
C2812 C2826 1.377 . S
C2813 C2812 1.524 . S
C2813 C2814 1.397 . S
C2813 C2818 1.363 . S
C2814 H2791 0.950 . S
C2814 C2813 1.397 . S
C2814 C2815 1.334 . S
C2815 H2792 0.950 . S
C2815 C2814 1.334 . S
C2815 C2816 1.287 . S
C2816 C2815 1.287 . S
C2816 C2817 1.524 . S
C2816 H2835 0.913 . S
C2817 H2793 0.950 . S
C2817 C2816 1.524 . S
C2817 C2818 1.415 . S
C2818 H2794 0.950 . S
C2818 C2813 1.363 . S
C2818 C2817 1.415 . S
C2819 H2795 0.951 . S
C2819 C2820 1.366 . S
C2819 C2821 1.388 . S
C2820 C2819 1.366 . S
C2820 C2824 1.385 . S
C2821 H2796 0.951 . S
C2821 C2819 1.388 . S
C2821 C2822 1.366 . S
C2822 C2821 1.366 . S
C2822 C2823 1.414 . S
C2822 C2825 1.499 . S
C2823 H2797 0.950 . S
C2823 C2822 1.414 . S
C2823 C2824 1.374 . S
C2824 H2798 0.950 . S
C2824 C2820 1.385 . S
C2824 C2823 1.374 . S
C2825 C2822 1.499 . S
C2825 C2826 1.373 . S
C2825 C2827 1.389 . S
C2826 H2799 0.950 . S
C2826 C2812 1.377 . S
C2826 C2825 1.373 . S
C2827 C2811 1.377 . S
C2827 C2825 1.389 . S
C2827 C2828 1.524 . S
C2828 C2827 1.524 . S
C2828 C2829 1.397 . S
C2828 C2833 1.363 . S
C2829 H2800 0.950 . S
C2829 C2828 1.397 . S
C2829 C2830 1.334 . S
C2830 H2801 0.950 . S
C2830 C2829 1.334 . S
C2830 C2831 1.287 . S
C2831 C2830 1.287 . S
C2831 C2832 1.524 . S
C2831 H2834 0.999 . S
C2832 H2802 0.950 . S
C2832 C2831 1.524 . S
C2832 C2833 1.415 . S
C2833 H2803 0.950 . S
C2833 C2828 1.363 . S
C2833 C2832 1.415 . S
H2834 C2831 0.999 . S
H2835 C2816 0.913 . S
H2836 C2854 0.951 . S
H2837 C2856 0.951 . S
H2838 C2858 0.950 . S
H2839 C2859 0.950 . S
H2840 C2861 0.950 . S
H2841 C2864 0.950 . S
H2842 C2865 0.950 . S
H2843 C2867 0.950 . S
H2844 C2868 0.950 . S
H2845 C2869 0.951 . S
H2846 C2871 0.951 . S
H2847 C2873 0.950 . S
H2848 C2874 0.950 . S
H2849 C2876 0.950 . S
H2850 C2879 0.950 . S
H2851 C2880 0.950 . S
H2852 C2882 0.950 . S
H2853 C2883 0.950 . S
C2854 H2836 0.951 . S
C2854 C2855 1.366 . S
C2854 C2856 1.388 . S
C2855 C2854 1.366 . S
C2855 C2859 1.385 . S
C2856 H2837 0.951 . S
C2856 C2854 1.388 . S
C2856 C2857 1.366 . S
C2857 C2856 1.366 . S
C2857 C2858 1.414 . S
C2857 C2860 1.499 . S
C2858 H2838 0.950 . S
C2858 C2857 1.414 . S
C2858 C2859 1.374 . S
C2859 H2839 0.950 . S
C2859 C2855 1.385 . S
C2859 C2858 1.374 . S
C2860 C2857 1.499 . S
C2860 C2861 1.373 . S
C2860 C2862 1.389 . S
C2861 H2840 0.950 . S
C2861 C2860 1.373 . S
C2861 C2877 1.377 . S
C2862 C2860 1.389 . S
C2862 C2863 1.524 . S
C2862 C2876 1.377 . S
C2863 C2862 1.524 . S
C2863 C2864 1.397 . S
C2863 C2868 1.363 . S
C2864 H2841 0.950 . S
C2864 C2863 1.397 . S
C2864 C2865 1.334 . S
C2865 H2842 0.950 . S
C2865 C2864 1.334 . S
C2865 C2866 1.287 . S
C2866 C2865 1.287 . S
C2866 C2867 1.524 . S
C2866 H2885 0.913 . S
C2867 H2843 0.950 . S
C2867 C2866 1.524 . S
C2867 C2868 1.415 . S
C2868 H2844 0.950 . S
C2868 C2863 1.363 . S
C2868 C2867 1.415 . S
C2869 H2845 0.951 . S
C2869 C2870 1.366 . S
C2869 C2871 1.388 . S
C2870 C2869 1.366 . S
C2870 C2874 1.385 . S
C2871 H2846 0.951 . S
C2871 C2869 1.388 . S
C2871 C2872 1.366 . S
C2872 C2871 1.366 . S
C2872 C2873 1.414 . S
C2872 C2875 1.499 . S
C2873 H2847 0.950 . S
C2873 C2872 1.414 . S
C2873 C2874 1.374 . S
C2874 H2848 0.950 . S
C2874 C2870 1.385 . S
C2874 C2873 1.374 . S
C2875 C2872 1.499 . S
C2875 C2876 1.373 . S
C2875 C2877 1.389 . S
C2876 H2849 0.950 . S
C2876 C2862 1.377 . S
C2876 C2875 1.373 . S
C2877 C2861 1.377 . S
C2877 C2875 1.389 . S
C2877 C2878 1.524 . S
C2878 C2877 1.524 . S
C2878 C2879 1.397 . S
C2878 C2883 1.363 . S
C2879 H2850 0.950 . S
C2879 C2878 1.397 . S
C2879 C2880 1.334 . S
C2880 H2851 0.950 . S
C2880 C2879 1.334 . S
C2880 C2881 1.287 . S
C2881 C2880 1.287 . S
C2881 C2882 1.524 . S
C2881 H2884 0.999 . S
C2882 H2852 0.950 . S
C2882 C2881 1.524 . S
C2882 C2883 1.415 . S
C2883 H2853 0.950 . S
C2883 C2878 1.363 . S
C2883 C2882 1.415 . S
H2884 C2881 0.999 . S
H2885 C2866 0.913 . S
H2886 C2904 0.951 . S
H2887 C2906 0.951 . S
H2888 C2908 0.950 . S
H2889 C2909 0.950 . S
H2890 C2911 0.950 . S
H2891 C2914 0.950 . S
H2892 C2915 0.950 . S
H2893 C2917 0.950 . S
H2894 C2918 0.950 . S
H2895 C2919 0.951 . S
H2896 C2921 0.951 . S
H2897 C2923 0.950 . S
H2898 C2924 0.950 . S
H2899 C2926 0.950 . S
H2900 C2929 0.950 . S
H2901 C2930 0.950 . S
H2902 C2932 0.950 . S
H2903 C2933 0.950 . S
C2904 H2886 0.951 . S
C2904 C2905 1.366 . S
C2904 C2906 1.388 . S
C2905 C2904 1.366 . S
C2905 C2909 1.385 . S
C2906 H2887 0.951 . S
C2906 C2904 1.388 . S
C2906 C2907 1.366 . S
C2907 C2906 1.366 . S
C2907 C2908 1.414 . S
C2907 C2910 1.499 . S
C2908 H2888 0.950 . S
C2908 C2907 1.414 . S
C2908 C2909 1.374 . S
C2909 H2889 0.950 . S
C2909 C2905 1.385 . S
C2909 C2908 1.374 . S
C2910 C2907 1.499 . S
C2910 C2911 1.373 . S
C2910 C2912 1.389 . S
C2911 H2890 0.950 . S
C2911 C2910 1.373 . S
C2911 C2927 1.377 . S
C2912 C2910 1.389 . S
C2912 C2913 1.524 . S
C2912 C2926 1.377 . S
C2913 C2912 1.524 . S
C2913 C2914 1.397 . S
C2913 C2918 1.363 . S
C2914 H2891 0.950 . S
C2914 C2913 1.397 . S
C2914 C2915 1.334 . S
C2915 H2892 0.950 . S
C2915 C2914 1.334 . S
C2915 C2916 1.287 . S
C2916 C2915 1.287 . S
C2916 C2917 1.524 . S
C2916 H2935 0.913 . S
C2917 H2893 0.950 . S
C2917 C2916 1.524 . S
C2917 C2918 1.415 . S
C2918 H2894 0.950 . S
C2918 C2913 1.363 . S
C2918 C2917 1.415 . S
C2919 H2895 0.951 . S
C2919 C2920 1.366 . S
C2919 C2921 1.388 . S
C2920 C2919 1.366 . S
C2920 C2924 1.385 . S
C2921 H2896 0.951 . S
C2921 C2919 1.388 . S
C2921 C2922 1.366 . S
C2922 C2921 1.366 . S
C2922 C2923 1.414 . S
C2922 C2925 1.499 . S
C2923 H2897 0.950 . S
C2923 C2922 1.414 . S
C2923 C2924 1.374 . S
C2924 H2898 0.950 . S
C2924 C2920 1.385 . S
C2924 C2923 1.374 . S
C2925 C2922 1.499 . S
C2925 C2926 1.373 . S
C2925 C2927 1.389 . S
C2926 H2899 0.950 . S
C2926 C2912 1.377 . S
C2926 C2925 1.373 . S
C2927 C2911 1.377 . S
C2927 C2925 1.389 . S
C2927 C2928 1.524 . S
C2928 C2927 1.524 . S
C2928 C2929 1.397 . S
C2928 C2933 1.363 . S
C2929 H2900 0.950 . S
C2929 C2928 1.397 . S
C2929 C2930 1.334 . S
C2930 H2901 0.950 . S
C2930 C2929 1.334 . S
C2930 C2931 1.287 . S
C2931 C2930 1.287 . S
C2931 C2932 1.524 . S
C2931 H2934 0.999 . S
C2932 H2902 0.950 . S
C2932 C2931 1.524 . S
C2932 C2933 1.415 . S
C2933 H2903 0.950 . S
C2933 C2928 1.363 . S
C2933 C2932 1.415 . S
H2934 C2931 0.999 . S
H2935 C2916 0.913 . S
H2936 C2954 0.951 1_554 S
H2937 C2956 0.951 1_554 S
H2938 C2958 0.950 . S
H2939 C2959 0.950 . S
H2940 C2961 0.959 . S
H2941 C2964 0.950 . S
H2942 C2965 0.950 . S
H2943 C2967 0.950 . S
H2944 C2968 0.950 . S
H2945 C2969 0.951 . S
H2946 C2971 0.951 . S
H2947 C2973 0.950 . S
H2948 C2974 0.950 . S
H2949 C2976 0.950 . S
H2950 C2979 0.950 . S
H2951 C2980 0.950 . S
H2952 C2982 0.950 . S
H2953 C2983 0.950 1_556 S
C2954 H2936 0.951 1_556 S
C2954 C2955 1.366 . S
C2954 C2956 1.388 . S
C2955 C2954 1.366 . S
C2955 C2959 1.385 . S
C2956 H2937 0.951 1_556 S
C2956 C2954 1.388 . S
C2956 C2957 1.366 . S
C2957 C2956 1.366 . S
C2957 C2958 1.414 . S
C2957 C2960 1.499 . S
C2958 H2938 0.950 . S
C2958 C2957 1.414 . S
C2958 C2959 1.374 . S
C2959 H2939 0.950 . S
C2959 C2955 1.385 . S
C2959 C2958 1.374 . S
C2960 C2957 1.499 . S
C2960 C2961 1.373 . S
C2960 C2962 1.389 . S
C2961 H2940 0.959 . S
C2961 C2960 1.373 . S
C2961 C2977 1.377 . S
C2962 C2960 1.389 . S
C2962 C2963 1.524 . S
C2962 C2976 1.377 . S
C2963 C2962 1.524 . S
C2963 C2964 1.397 . S
C2963 C2968 1.363 . S
C2964 H2941 0.950 . S
C2964 C2963 1.397 . S
C2964 C2965 1.334 . S
C2965 H2942 0.950 . S
C2965 C2964 1.334 . S
C2965 C2966 1.287 . S
C2966 C2965 1.287 . S
C2966 C2967 1.524 . S
C2966 H2985 0.913 . S
C2967 H2943 0.950 . S
C2967 C2966 1.524 . S
C2967 C2968 1.415 . S
C2968 H2944 0.950 . S
C2968 C2963 1.363 . S
C2968 C2967 1.415 . S
C2969 H2945 0.951 . S
C2969 C2970 1.366 . S
C2969 C2971 1.388 . S
C2970 C2969 1.366 . S
C2970 C2974 1.385 1_556 S
C2971 H2946 0.951 . S
C2971 C2969 1.388 . S
C2971 C2972 1.366 . S
C2972 C2971 1.366 . S
C2972 C2973 1.414 1_556 S
C2972 C2975 1.499 . S
C2973 H2947 0.950 . S
C2973 C2972 1.414 1_554 S
C2973 C2974 1.374 . S
C2974 H2948 0.950 . S
C2974 C2970 1.385 1_554 S
C2974 C2973 1.374 . S
C2975 C2972 1.499 . S
C2975 C2976 1.373 . S
C2975 C2977 1.409 . S
C2976 H2949 0.950 . S
C2976 C2962 1.377 . S
C2976 C2975 1.373 . S
C2977 C2961 1.377 . S
C2977 C2975 1.409 . S
C2977 C2978 1.503 1_556 S
C2978 C2977 1.503 1_554 S
C2978 C2979 1.397 . S
C2978 C2983 1.363 . S
C2979 H2950 0.950 . S
C2979 C2978 1.397 . S
C2979 C2980 1.334 . S
C2980 H2951 0.950 . S
C2980 C2979 1.334 . S
C2980 C2981 1.287 . S
C2981 C2980 1.287 . S
C2981 C2982 1.524 . S
C2981 H2984 0.999 . S
C2982 H2952 0.950 . S
C2982 C2981 1.524 . S
C2982 C2983 1.415 . S
C2983 H2953 0.950 1_554 S
C2983 C2978 1.363 . S
C2983 C2982 1.415 . S
H2984 C2981 0.999 . S
H2985 C2966 0.913 . S
H2986 C3004 0.951 . S
H2987 C3006 0.951 . S
H2988 C3008 0.950 . S
H2989 C3009 0.950 . S
H2990 C3011 0.950 . S
H2991 C3014 0.950 . S
H2992 C3015 0.950 . S
H2993 C3017 0.950 . S
H2994 C3018 0.950 . S
H2995 C3019 0.951 . S
H2996 C3021 0.951 . S
H2997 C3023 0.950 . S
H2998 C3024 0.950 . S
H2999 C3026 0.950 . S
H3000 C3029 0.950 . S
H3001 C3030 0.950 . S
H3002 C3032 0.950 . S
H3003 C3033 0.950 . S
C3004 H2986 0.951 . S
C3004 C3005 1.366 . S
C3004 C3006 1.388 . S
C3005 C3004 1.366 . S
C3005 C3009 1.385 . S
C3006 H2987 0.951 . S
C3006 C3004 1.388 . S
C3006 C3007 1.366 . S
C3007 C3006 1.366 . S
C3007 C3008 1.414 . S
C3007 C3010 1.499 . S
C3008 H2988 0.950 . S
C3008 C3007 1.414 . S
C3008 C3009 1.374 . S
C3009 H2989 0.950 . S
C3009 C3005 1.385 . S
C3009 C3008 1.374 . S
C3010 C3007 1.499 . S
C3010 C3011 1.373 . S
C3010 C3012 1.389 . S
C3011 H2990 0.950 . S
C3011 C3010 1.373 . S
C3011 C3027 1.377 . S
C3012 C3010 1.389 . S
C3012 C3013 1.524 . S
C3012 C3026 1.377 . S
C3013 C3012 1.524 . S
C3013 C3014 1.397 . S
C3013 C3018 1.363 . S
C3014 H2991 0.950 . S
C3014 C3013 1.397 . S
C3014 C3015 1.334 . S
C3015 H2992 0.950 . S
C3015 C3014 1.334 . S
C3015 C3016 1.287 . S
C3016 C3015 1.287 . S
C3016 C3017 1.524 . S
C3016 H3035 0.913 . S
C3017 H2993 0.950 . S
C3017 C3016 1.524 . S
C3017 C3018 1.415 . S
C3018 H2994 0.950 . S
C3018 C3013 1.363 . S
C3018 C3017 1.415 . S
C3019 H2995 0.951 . S
C3019 C3020 1.366 . S
C3019 C3021 1.388 . S
C3020 C3019 1.366 . S
C3020 C3024 1.385 . S
C3021 H2996 0.951 . S
C3021 C3019 1.388 . S
C3021 C3022 1.366 . S
C3022 C3021 1.366 . S
C3022 C3023 1.414 . S
C3022 C3025 1.499 . S
C3023 H2997 0.950 . S
C3023 C3022 1.414 . S
C3023 C3024 1.374 . S
C3024 H2998 0.950 . S
C3024 C3020 1.385 . S
C3024 C3023 1.374 . S
C3025 C3022 1.499 . S
C3025 C3026 1.373 . S
C3025 C3027 1.389 . S
C3026 H2999 0.950 . S
C3026 C3012 1.377 . S
C3026 C3025 1.373 . S
C3027 C3011 1.377 . S
C3027 C3025 1.389 . S
C3027 C3028 1.524 . S
C3028 C3027 1.524 . S
C3028 C3029 1.397 . S
C3028 C3033 1.363 . S
C3029 H3000 0.950 . S
C3029 C3028 1.397 . S
C3029 C3030 1.334 . S
C3030 H3001 0.950 . S
C3030 C3029 1.334 . S
C3030 C3031 1.287 . S
C3031 C3030 1.287 . S
C3031 C3032 1.524 . S
C3031 H3034 0.999 . S
C3032 H3002 0.950 . S
C3032 C3031 1.524 . S
C3032 C3033 1.415 . S
C3033 H3003 0.950 . S
C3033 C3028 1.363 . S
C3033 C3032 1.415 . S
H3034 C3031 0.999 . S
H3035 C3016 0.913 . S
H3036 C3054 0.951 . S
H3037 C3056 0.951 . S
H3038 C3058 0.950 . S
H3039 C3059 0.950 . S
H3040 C3061 0.950 1_556 S
H3041 C3064 0.950 . S
H3042 C3065 0.950 . S
H3043 C3067 0.950 . S
H3044 C3068 0.950 . S
H3045 C3069 0.951 . S
H3046 C3071 0.951 . S
H3047 C3073 0.950 . S
H3048 C3074 0.950 1_556 S
H3049 C3076 0.950 . S
H3050 C3079 0.950 . S
H3051 C3080 0.950 . S
H3052 C3082 0.950 . S
H3053 C3083 0.950 . S
C3054 H3036 0.951 . S
C3054 C3055 1.366 . S
C3054 C3056 1.388 . S
C3055 C3054 1.366 . S
C3055 C3059 1.385 . S
C3056 H3037 0.951 . S
C3056 C3054 1.388 . S
C3056 C3057 1.366 . S
C3057 C3056 1.366 . S
C3057 C3058 1.414 . S
C3057 C3060 1.499 . S
C3058 H3038 0.950 . S
C3058 C3057 1.414 . S
C3058 C3059 1.374 . S
C3059 H3039 0.950 . S
C3059 C3055 1.385 . S
C3059 C3058 1.374 . S
C3060 C3057 1.499 . S
C3060 C3061 1.373 . S
C3060 C3062 1.389 . S
C3061 H3040 0.950 1_554 S
C3061 C3060 1.373 . S
C3061 C3077 1.377 1_554 S
C3062 C3060 1.389 . S
C3062 C3063 1.524 . S
C3062 C3076 1.377 . S
C3063 C3062 1.524 . S
C3063 C3064 1.397 . S
C3063 C3068 1.363 . S
C3064 H3041 0.950 . S
C3064 C3063 1.397 . S
C3064 C3065 1.334 . S
C3065 H3042 0.950 . S
C3065 C3064 1.334 . S
C3065 C3066 1.287 . S
C3066 C3065 1.287 . S
C3066 C3067 1.524 . S
C3066 H3085 0.913 . S
C3067 H3043 0.950 . S
C3067 C3066 1.524 . S
C3067 C3068 1.415 . S
C3068 H3044 0.950 . S
C3068 C3063 1.363 . S
C3068 C3067 1.415 . S
C3069 H3045 0.951 . S
C3069 C3070 1.382 . S
C3069 C3071 1.388 . S
C3070 C3069 1.382 . S
C3070 C3074 1.382 . S
C3071 H3046 0.951 . S
C3071 C3069 1.388 . S
C3071 C3072 1.366 . S
C3072 C3071 1.366 . S
C3072 C3073 1.414 . S
C3072 C3075 1.499 . S
C3073 H3047 0.950 . S
C3073 C3072 1.414 . S
C3073 C3074 1.374 . S
C3074 H3048 0.950 1_554 S
C3074 C3070 1.382 . S
C3074 C3073 1.374 . S
C3075 C3072 1.499 . S
C3075 C3076 1.373 . S
C3075 C3077 1.389 1_554 S
C3076 H3049 0.950 . S
C3076 C3062 1.377 . S
C3076 C3075 1.373 . S
C3077 C3061 1.377 1_556 S
C3077 C3075 1.389 1_556 S
C3077 C3078 1.524 . S
C3078 C3077 1.524 . S
C3078 C3079 1.397 . S
C3078 C3083 1.363 . S
C3079 H3050 0.950 . S
C3079 C3078 1.397 . S
C3079 C3080 1.334 . S
C3080 H3051 0.950 . S
C3080 C3079 1.334 . S
C3080 C3081 1.287 . S
C3081 C3080 1.287 . S
C3081 C3082 1.524 . S
C3081 H3084 0.999 . S
C3082 H3052 0.950 . S
C3082 C3081 1.524 . S
C3082 C3083 1.415 . S
C3083 H3053 0.950 . S
C3083 C3078 1.363 . S
C3083 C3082 1.415 . S
H3084 C3081 0.999 . S
H3085 C3066 0.913 . S
H3086 C3104 0.951 . S
H3087 C3106 0.951 . S
H3088 C3108 0.950 1_545 S
H3089 C3109 0.950 . S
H3090 C3111 0.950 . S
H3091 C3114 0.950 . S
H3092 C3115 0.950 . S
H3093 C3117 0.950 . S
H3094 C3118 0.950 . S
H3095 C3119 0.951 . S
H3096 C3121 0.951 . S
H3097 C3123 0.950 . S
H3098 C3124 0.950 . S
H3099 C3126 0.950 . S
H3100 C3129 0.950 . S
H3101 C3130 0.950 . S
H3102 C3132 0.950 1_545 S
H3103 C3133 0.950 . S
C3104 H3086 0.951 . S
C3104 C3105 1.366 . S
C3104 C3106 1.388 . S
C3105 C3104 1.366 . S
C3105 C3109 1.385 1_565 S
C3106 H3087 0.951 . S
C3106 C3104 1.388 . S
C3106 C3107 1.366 . S
C3107 C3106 1.366 . S
C3107 C3108 1.414 . S
C3107 C3110 1.499 . S
C3108 H3088 0.950 1_565 S
C3108 C3107 1.414 . S
C3108 C3109 1.374 1_565 S
C3109 H3089 0.950 . S
C3109 C3105 1.385 1_545 S
C3109 C3108 1.374 1_545 S
C3110 C3107 1.499 . S
C3110 C3111 1.373 . S
C3110 C3112 1.389 . S
C3111 H3090 0.950 . S
C3111 C3110 1.373 . S
C3111 C3127 1.377 . S
C3112 C3110 1.389 . S
C3112 C3113 1.524 . S
C3112 C3126 1.377 . S
C3113 C3112 1.524 . S
C3113 C3114 1.397 . S
C3113 C3118 1.363 . S
C3114 H3091 0.950 . S
C3114 C3113 1.397 . S
C3114 C3115 1.334 . S
C3115 H3092 0.950 . S
C3115 C3114 1.334 . S
C3115 C3116 1.287 . S
C3116 C3115 1.287 . S
C3116 C3117 1.524 . S
C3116 H3135 0.913 . S
C3117 H3093 0.950 . S
C3117 C3116 1.524 . S
C3117 C3118 1.415 . S
C3118 H3094 0.950 . S
C3118 C3113 1.363 . S
C3118 C3117 1.415 . S
C3119 H3095 0.951 . S
C3119 C3120 1.366 . S
C3119 C3121 1.388 . S
C3120 C3119 1.366 . S
C3120 C3124 1.385 . S
C3121 H3096 0.951 . S
C3121 C3119 1.388 . S
C3121 C3122 1.366 . S
C3122 C3121 1.366 . S
C3122 C3123 1.414 . S
C3122 C3125 1.499 . S
C3123 H3097 0.950 . S
C3123 C3122 1.414 . S
C3123 C3124 1.374 . S
C3124 H3098 0.950 . S
C3124 C3120 1.385 . S
C3124 C3123 1.374 . S
C3125 C3122 1.499 . S
C3125 C3126 1.373 . S
C3125 C3127 1.389 . S
C3126 H3099 0.950 . S
C3126 C3112 1.377 . S
C3126 C3125 1.373 . S
C3127 C3111 1.377 . S
C3127 C3125 1.389 . S
C3127 C3128 1.524 . S
C3128 C3127 1.524 . S
C3128 C3129 1.397 . S
C3128 C3133 1.363 . S
C3129 H3100 0.950 . S
C3129 C3128 1.397 . S
C3129 C3130 1.334 1_554 S
C3130 H3101 0.950 . S
C3130 C3129 1.334 1_556 S
C3130 C3131 1.287 . S
C3131 C3130 1.287 . S
C3131 C3132 1.524 1_556 S
C3131 H3134 0.999 . S
C3132 H3102 0.950 1_565 S
C3132 C3131 1.524 1_554 S
C3132 C3133 1.415 . S
C3133 H3103 0.950 . S
C3133 C3128 1.363 . S
C3133 C3132 1.415 . S
H3134 C3131 0.999 . S
H3135 C3116 0.913 . S
C770 C306 1.834 1_556 S
C755 C101 1.818 . S
C820 C354 1.116 . S
C805 C125 1.049 . S
C855 C139 1.976 . S
C870 C390 1.874 . S
C920 C426 1.868 . S
C905 C82 1.951 . S
C970 C452 1.436 . S
C955 C196 1.445 . S
C1020 C488 1.990 . S
C1005 C234 2.013 . S
C1055 C220 0.818 . S
C1070 C523 0.874 . S
C1120 C560 1.799 . S
C1105 C173 1.797 . S
C1155 C211 0.971 . S
C1170 C594 0.980 . S
C1220 C642 1.069 . S
C1205 C182 1.031 . S
C1255 C201 1.121 . S
C1270 C595 1.258 . S
C1320 C632 1.458 . S
C1305 C239 1.326 . S
C1355 C135 1.541 . S
C1370 C678 1.493 . S
C1405 C87 1.980 . S
C1420 C667 2.151 . S
C1455 C106 1.149 . S
C1470 C668 1.311 . S
C1505 C116 1.264 . S
C1520 C666 1.265 1_655 S
C1555 C59 1.760 . S
C1570 C414 1.769 . S
C1605 C268 2.302 . S
C1620 C415 2.323 . S
C1670 C318 1.329 . S
C1655 C291 1.417 . S
C1720 C343 1.376 . S
C1705 C163 1.297 . S
C1755 C78 2.284 1_545 S
C1770 C450 2.297 . S
C1820 C558 1.049 . S
C1805 C215 1.058 . S
C1870 C451 1.566 . S
C1855 C177 1.577 1_545 S
C1920 C524 1.965 . S
C1905 C230 1.966 . S
C1970 C522 1.834 . S
C1955 C272 1.818 . S
C2005 C296 1.050 . S
C2020 C570 1.116 . S
C2055 C158 1.976 . S
C2070 C462 1.875 . S
C2120 C498 1.867 . S
C2105 C253 1.951 . S
C2155 C63 1.445 . S
C2170 C380 1.437 . S
C2220 C416 1.990 . S
C2205 C6 2.013 . S
C2270 C307 0.875 . S
C2255 C30 0.821 . S
C2320 C344 1.799 . S
C2305 C40 1.801 . S
C2355 C21 0.969 . S
C2370 C630 0.979 . S
C2405 C49 1.031 . S
C2420 C606 1.069 . S
C2455 C68 1.119 . S
C2470 C631 1.258 . S
C2505 C11 1.278 1_556 S
C2520 C596 1.458 . S
C2570 C714 1.494 . S
C2555 C154 1.541 . S
C2620 C703 2.151 . S
C2605 C258 1.981 . S
C2670 C704 1.310 . S
C2655 C277 1.146 . S
C2705 C287 1.264 . S
C2720 C702 1.266 . S
C2755 C192 1.761 . S
C2770 C486 1.769 . S
C2820 C487 2.323 . S
C2805 C97 2.301 . S
C2870 C534 1.329 . S
C2855 C120 1.417 . S
C2920 C559 1.376 . S
C2905 C144 1.296 . S
C2955 C249 2.284 . S
C2970 C378 2.297 1_556 S
C3020 C342 1.050 . S
C3005 C25 1.058 . S
C3055 C44 1.577 . S
C3070 C379 1.556 . S
C3120 C308 1.965 . S
C3105 C2 1.966 1_565 S
