# Generated by pormake.
# Topology rtl, (3,6)-cn, num edge types: 1
# Building blocks:
#     Node 0, Type 0, BuildingBlock: KAKCAD_clean_linker_0, # of connection points: 3
#     Node 1, Type 0, BuildingBlock: KAKCAD_clean_linker_0, # of connection points: 3
#     Node 2, Type 0, BuildingBlock: KAKCAD_clean_linker_0, # of connection points: 3
#     Node 3, Type 0, BuildingBlock: KAKCAD_clean_linker_0, # of connection points: 3
#     Node 4, Type 1, BuildingBlock: LEVNOQ01_clean_sbu_1, # of connection points: 6
#     Node 5, Type 1, BuildingBlock: LEVNOQ01_clean_sbu_1, # of connection points: 6
#     Edge 6, Type (0, 1), BuildingBlock: TEMPAE_clean_linker_10, # of connection points: 2
#     Edge 7, Type (0, 1), BuildingBlock: TEMPAE_clean_linker_10, # of connection points: 2
#     Edge 8, Type (0, 1), BuildingBlock: TEMPAE_clean_linker_10, # of connection points: 2
#     Edge 9, Type (0, 1), BuildingBlock: TEMPAE_clean_linker_10, # of connection points: 2
#     Edge 10, Type (0, 1), BuildingBlock: TEMPAE_clean_linker_10, # of connection points: 2
#     Edge 11, Type (0, 1), BuildingBlock: TEMPAE_clean_linker_10, # of connection points: 2
#     Edge 12, Type (0, 1), BuildingBlock: TEMPAE_clean_linker_10, # of connection points: 2
#     Edge 13, Type (0, 1), BuildingBlock: TEMPAE_clean_linker_10, # of connection points: 2
#     Edge 14, Type (0, 1), BuildingBlock: TEMPAE_clean_linker_10, # of connection points: 2
#     Edge 15, Type (0, 1), BuildingBlock: TEMPAE_clean_linker_10, # of connection points: 2
#     Edge 16, Type (0, 1), BuildingBlock: TEMPAE_clean_linker_10, # of connection points: 2
#     Edge 17, Type (0, 1), BuildingBlock: TEMPAE_clean_linker_10, # of connection points: 2
# Relax obj value: 0.026
# Max RMSD: 0.060
# Mean RMSD: 0.046
data_MOF--net-rtl--node1-LEVNOQ01_clean_sbu_1--node2-KAKCAD_clean_linker_0--edge1-TEMPAE_clean_linker_10
_symmetry_space_group_name_H-M    P1
_symmetry_Int_Tables_number       1
_symmetry_cell_setting            triclinic
loop_
_symmetry_equiv_pos_as_xyz
'x, y, z'
_cell_length_a     37.776423
_cell_length_b     42.733086
_cell_length_c     30.004595
_cell_angle_alpha  89.924001
_cell_angle_beta   98.059552
_cell_angle_gamma 90.125811
loop_
_atom_site_label
_atom_site_type_symbol
_atom_site_fract_x
_atom_site_fract_y
_atom_site_fract_z
_atom_type_partial_charge
C0 C 0.19032 0.8654 0.95835 0.0
C1 C 0.1879 0.89697 0.9452 0.0
C2 C 0.2059 0.85712 1.00188 0.0
C3 C 0.21968 0.88022 0.03308 0.0
C4 C 0.21814 0.91171 0.01929 0.0
C5 C 0.20236 0.91997 0.97598 0.0
C6 C 0.23429 0.87167 0.08028 0.0
C7 C 0.25444 0.84419 0.08968 0.0
C8 C 0.2665 0.83507 0.13435 0.0
C9 C 0.25845 0.85399 0.16977 0.0
C10 C 0.23873 0.88163 0.16104 0.0
C11 C 0.22692 0.89042 0.11637 0.0
C12 C 0.22825 0.90012 0.19873 0.0
C13 C 0.2113 0.88522 0.2317 0.0
C14 C 0.23423 0.9326 0.20152 0.0
C15 C 0.22336 0.94987 0.23685 0.0
C16 C 0.20568 0.93495 0.26914 0.0
C17 C 0.28674 0.80544 0.14402 0.0
C18 C 0.27666 0.7784 0.11884 0.0
C19 C 0.31635 0.80394 0.17814 0.0
C20 C 0.33607 0.77628 0.18586 0.0
C21 C 0.32657 0.74949 0.15968 0.0
C22 C 0.29634 0.75085 0.12647 0.0
C23 C 0.1999 0.90251 0.26638 0.0
H24 H 0.17921 0.8472 0.93544 0.0
H25 H 0.20617 0.83267 0.01145 0.0
H26 H 0.22911 0.93006 0.04202 0.0
H27 H 0.2015 0.94446 0.96651 0.0
H28 H 0.26108 0.83001 0.06212 0.0
H29 H 0.21053 0.91116 0.10994 0.0
H30 H 0.26694 0.84694 0.20433 0.0
H31 H 0.20614 0.86027 0.23008 0.0
H32 H 0.24736 0.94453 0.17647 0.0
H33 H 0.22798 0.9749 0.23841 0.0
H34 H 0.25366 0.77856 0.09285 0.0
H35 H 0.32492 0.82441 0.19806 0.0
H36 H 0.18643 0.89053 0.29109 0.0
H37 H 0.28857 0.73095 0.10496 0.0
H38 H 0.35913 0.77604 0.21175 0.0
C39 C 0.7116 0.61989 0.72507 0.0
C40 C 0.70654 0.58731 0.72388 0.0
C41 C 0.72012 0.63591 0.68744 0.0
C42 C 0.72417 0.61978 0.64763 0.0
C43 C 0.72016 0.58701 0.64685 0.0
C44 C 0.71127 0.57096 0.68452 0.0
C45 C 0.73127 0.63745 0.60689 0.0
C46 C 0.75337 0.66408 0.61139 0.0
C47 C 0.75816 0.68253 0.57395 0.0
C48 C 0.74134 0.67352 0.53104 0.0
C49 C 0.71952 0.64665 0.52551 0.0
C50 C 0.71461 0.62886 0.56372 0.0
C51 C 0.70102 0.63756 0.48013 0.0
C52 C 0.68484 0.66027 0.44993 0.0
C53 C 0.69884 0.60596 0.46696 0.0
C54 C 0.68072 0.59726 0.4249 0.0
C55 C 0.66424 0.61991 0.39485 0.0
C56 C 0.78021 0.71152 0.58018 0.0
C57 C 0.7772 0.73187 0.61631 0.0
C58 C 0.80452 0.719 0.55039 0.0
C59 C 0.82544 0.7461 0.55671 0.0
C60 C 0.82248 0.76643 0.59288 0.0
C61 C 0.79804 0.75902 0.62255 0.0
C62 C 0.66663 0.65154 0.40786 0.0
H63 H 0.70731 0.63329 0.75446 0.0
H64 H 0.72221 0.66117 0.68915 0.0
H65 H 0.7236 0.57376 0.61703 0.0
H66 H 0.70762 0.54583 0.68268 0.0
H67 H 0.76715 0.67046 0.64426 0.0
H68 H 0.69661 0.60896 0.55999 0.0
H69 H 0.745 0.6876 0.50198 0.0
H70 H 0.68566 0.68478 0.45912 0.0
H71 H 0.71125 0.58789 0.48917 0.0
H72 H 0.67909 0.57265 0.41626 0.0
H73 H 0.75842 0.72697 0.63959 0.0
H74 H 0.80768 0.70373 0.52244 0.0
H75 H 0.65451 0.66962 0.38544 0.0
H76 H 0.7952 0.7741 0.65081 0.0
H77 H 0.84363 0.75136 0.53282 0.0
C78 C 0.82103 0.1418 0.18538 0.0
C79 C 0.85852 0.14505 0.19433 0.0
C80 C 0.80258 0.14891 0.14287 0.0
C81 C 0.82122 0.15876 0.10815 0.0
C82 C 0.85844 0.16229 0.11673 0.0
C83 C 0.87687 0.15588 0.1595 0.0
C84 C 0.80193 0.16476 0.06269 0.0
C85 C 0.77839 0.19007 0.05513 0.0
C86 C 0.76033 0.19635 0.01174 0.0
C87 C 0.76595 0.17644 0.97602 0.0
C88 C 0.78968 0.151 0.98314 0.0
C89 C 0.80754 0.14539 0.02676 0.0
C90 C 0.79722 0.13119 0.94482 0.0
C91 C 0.76983 0.12224 0.91039 0.0
C92 C 0.83242 0.12179 0.94191 0.0
C93 C 0.84019 0.10424 0.90541 0.0
C94 C 0.81301 0.09559 0.87066 0.0
C95 C 0.73657 0.2242 0.00379 0.0
C96 C 0.71561 0.23365 0.03658 0.0
C97 C 0.73541 0.24215 0.96416 0.0
C98 C 0.71422 0.26907 0.95787 0.0
C99 C 0.6943 0.27883 0.9914 0.0
C100 C 0.69497 0.26076 0.0306 0.0
C101 C 0.77767 0.10468 0.87358 0.0
H102 H 0.80589 0.13292 0.21075 0.0
H103 H 0.77382 0.14591 0.13673 0.0
H104 H 0.87323 0.17014 0.09034 0.0
H105 H 0.90553 0.15939 0.1651 0.0
H106 H 0.77516 0.20541 0.08301 0.0
H107 H 0.82563 0.12571 0.03305 0.0
H108 H 0.75227 0.18101 0.94246 0.0
H109 H 0.74235 0.1288 0.91187 0.0
H110 H 0.8543 0.12882 0.9672 0.0
H111 H 0.86786 0.09842 0.90366 0.0
H112 H 0.71507 0.2201 0.06699 0.0
H113 H 0.75154 0.23591 0.93842 0.0
H114 H 0.75615 0.09833 0.84737 0.0
H115 H 0.67928 0.26754 0.05659 0.0
H116 H 0.71412 0.28271 0.92739 0.0
C117 C 0.25832 0.42805 0.30782 0.0
C118 C 0.29291 0.44088 0.31108 0.0
C119 C 0.2476 0.41142 0.34392 0.0
C120 C 0.27131 0.40705 0.38401 0.0
C121 C 0.30554 0.42066 0.38753 0.0
C122 C 0.31603 0.43757 0.3518 0.0
C123 C 0.26113 0.38759 0.42157 0.0
C124 C 0.24046 0.36024 0.41272 0.0
C125 C 0.23299 0.34073 0.44804 0.0
C126 C 0.24609 0.34898 0.49273 0.0
C127 C 0.26696 0.37597 0.50211 0.0
C128 C 0.27391 0.3953 0.46653 0.0
C129 C 0.28317 0.38336 0.54881 0.0
C130 C 0.26218 0.38509 0.58381 0.0
C131 C 0.32001 0.38925 0.55834 0.0
C132 C 0.33551 0.39738 0.60178 0.0
C133 C 0.31444 0.4004 0.63669 0.0
C134 C 0.21304 0.31091 0.43837 0.0
C135 C 0.18161 0.3097 0.4071 0.0
C136 C 0.22516 0.28343 0.46121 0.0
C137 C 0.20571 0.25565 0.45427 0.0
C138 C 0.17359 0.25455 0.42425 0.0
C139 C 0.16196 0.28182 0.40028 0.0
C140 C 0.2776 0.39375 0.62726 0.0
H141 H 0.23988 0.42994 0.27687 0.0
H142 H 0.22085 0.40173 0.34019 0.0
H143 H 0.32483 0.41754 0.41747 0.0
H144 H 0.34265 0.44759 0.35587 0.0
H145 H 0.23155 0.35327 0.37826 0.0
H146 H 0.2894 0.41647 0.47415 0.0
H147 H 0.24073 0.33405 0.52025 0.0
H148 H 0.23367 0.3807 0.57722 0.0
H149 H 0.33689 0.38752 0.53208 0.0
H150 H 0.36408 0.40148 0.60787 0.0
H151 H 0.17162 0.33054 0.38899 0.0
H152 H 0.24956 0.28345 0.48496 0.0
H153 H 0.26041 0.39616 0.65305 0.0
H154 H 0.13736 0.28175 0.37691 0.0
H155 H 0.21519 0.23533 0.47398 0.0
O156 O -0.00046 0.07215 0.66935 0.0
Mg157 Mg 0.05085 0.06848 0.651 0.0
O158 O 0.97492 0.03748 0.61953 0.0
Mg159 Mg 0.01873 0.02387 0.57437 0.0
O160 O 0.04938 0.07096 0.58313 0.0
O161 O 0.07438 0.10765 0.63017 0.0
O162 O 0.0656 0.01523 0.53023 0.0
O163 O 0.98443 0.04911 0.51451 0.0
Mg164 Mg 0.01167 0.98223 0.51491 0.0
O165 O 0.98352 0.976 0.56754 0.0
O166 O 0.06404 0.96489 0.52083 0.0
O167 O 0.99256 0.01431 0.46313 0.0
O168 O 0.97842 0.94587 0.50543 0.0
C169 C 0.07772 0.00424 0.66769 0.0
C170 C 0.9727 0.05627 0.65214 0.0
C171 C 0.06656 0.09732 0.58955 0.0
C172 C 0.08056 0.99033 0.51911 0.0
C173 C 0.98061 0.04053 0.4735 0.0
C174 C 0.96951 0.95206 0.54434 0.0
O175 O 0.08411 0.03241 0.67906 0.0
O176 O 0.05411 0.99742 0.63422 0.0
O177 O 0.50294 0.50781 0.11834 0.0
Mg178 Mg 0.48238 0.47912 0.06204 0.0
O179 O 0.52142 0.54258 0.07277 0.0
Mg180 Mg 0.48508 0.52385 0.00941 0.0
O181 O 0.51369 0.47325 0.0128 0.0
O182 O 0.50779 0.43798 0.067 0.0
O183 O 0.44762 0.50259 0.94711 0.0
O184 O 0.53161 0.53486 0.96633 0.0
Mg185 Mg 0.45982 0.57252 0.93565 0.0
O186 O 0.46022 0.57339 0.00354 0.0
O187 O 0.4225 0.54053 0.90361 0.0
O188 O 0.51151 0.57241 0.91849 0.0
O189 O 0.44115 0.61315 0.95829 0.0
C190 C 0.41598 0.49545 0.05569 0.0
C191 C 0.52056 0.53245 0.11262 0.0
C192 C 0.52102 0.44595 0.03132 0.0
C193 C 0.42553 0.51178 0.91345 0.0
C194 C 0.53633 0.55418 0.93503 0.0
C195 C 0.44638 0.60119 0.99822 0.0
O196 O 0.42738 0.46887 0.04706 0.0
O197 O 0.43627 0.51882 0.05191 0.0
C198 C 0.11428 0.22849 0.42595 0.0
C199 C 0.15085 0.22595 0.42259 0.0
C200 C 0.09501 0.20262 0.43874 0.0
C201 C 0.11297 0.17392 0.44914 0.0
C202 C 0.14807 0.17005 0.43863 0.0
C203 C 0.16665 0.19618 0.42545 0.0
C204 C 0.05705 0.20734 0.44754 0.0
C205 C 0.16793 0.13961 0.44775 0.0
C206 C 0.09962 0.14211 0.56293 0.0
C207 C 0.07799 0.11574 0.5522 0.0
C208 C 0.11107 0.16076 0.52955 0.0
C209 C 0.10055 0.15313 0.48368 0.0
C210 C 0.07891 0.12635 0.47222 0.0
C211 C 0.06787 0.10785 0.50679 0.0
C212 C 0.13447 0.18883 0.54379 0.0
C213 C 0.06683 0.11756 0.4238 0.0
H214 H 0.10155 0.25124 0.42309 0.0
H215 H 0.19454 0.19379 0.42117 0.0
H216 H 0.04071 0.18608 0.43856 0.0
H217 H 0.05699 0.21193 0.48393 0.0
H218 H 0.04435 0.22757 0.42827 0.0
H219 H 0.1904 0.1377 0.42767 0.0
H220 H 0.17913 0.13845 0.48395 0.0
H221 H 0.14982 0.11926 0.44015 0.0
H222 H 0.10785 0.14835 0.59785 0.0
H223 H 0.05119 0.08746 0.49828 0.0
H224 H 0.12094 0.21062 0.53052 0.0
H225 H 0.16007 0.18711 0.52983 0.0
H226 H 0.1407 0.19102 0.58095 0.0
H227 H 0.04494 0.13341 0.40949 0.0
H228 H 0.05668 0.09312 0.42061 0.0
H229 H 0.08887 0.12026 0.40326 0.0
C230 C 0.3349 0.69141 0.15538 0.0
C231 C 0.34996 0.72135 0.1627 0.0
C232 C 0.35541 0.66634 0.14316 0.0
C233 C 0.3917 0.67147 0.13837 0.0
C234 C 0.40835 0.69986 0.15388 0.0
C235 C 0.38717 0.72474 0.16535 0.0
C236 C 0.33687 0.63595 0.12875 0.0
C237 C 0.44751 0.70554 0.15192 0.0
C238 C 0.44102 0.60859 0.08057 0.0
C239 C 0.4343 0.61882 0.03571 0.0
C240 C 0.42787 0.62551 0.11511 0.0
C241 C 0.40749 0.653 0.10412 0.0
C242 C 0.40095 0.6633 0.05883 0.0
C243 C 0.41458 0.64626 0.02553 0.0
C244 C 0.4365 0.61421 0.16304 0.0
C245 C 0.3791 0.69228 0.04503 0.0
H246 H 0.30641 0.68822 0.1553 0.0
H247 H 0.39938 0.74755 0.17188 0.0
H248 H 0.32938 0.63607 0.09163 0.0
H249 H 0.35478 0.6157 0.13769 0.0
H250 H 0.31212 0.63278 0.14438 0.0
H251 H 0.45815 0.72482 0.1748 0.0
H252 H 0.46329 0.68403 0.16104 0.0
H253 H 0.45119 0.71214 0.11707 0.0
H254 H 0.45648 0.58749 0.0887 0.0
H255 H 0.40914 0.65439 0.99102 0.0
H256 H 0.41414 0.61859 0.18256 0.0
H257 H 0.46024 0.62711 0.1797 0.0
H258 H 0.44293 0.58883 0.16451 0.0
H259 H 0.35212 0.69015 0.05534 0.0
H260 H 0.37578 0.69644 0.00812 0.0
H261 H 0.39221 0.71318 0.06197 0.0
C262 C 0.82872 0.82413 0.60853 0.0
C263 C 0.84427 0.79558 0.59872 0.0
C264 C 0.848 0.85233 0.60891 0.0
C265 C 0.88356 0.85196 0.59904 0.0
C266 C 0.90012 0.82298 0.59223 0.0
C267 C 0.88028 0.79518 0.59214 0.0
C268 C 0.82946 0.88267 0.61674 0.0
C269 C 0.93807 0.82146 0.5819 0.0
C270 C 0.9178 0.91619 0.52989 0.0
C271 C 0.94338 0.93097 0.56129 0.0
C272 C 0.89669 0.89173 0.54253 0.0
C273 C 0.90131 0.88155 0.58785 0.0
C274 C 0.92535 0.89779 0.62048 0.0
C275 C 0.94616 0.92252 0.60679 0.0
C276 C 0.8711 0.87547 0.50661 0.0
C277 C 0.93072 0.88785 0.6692 0.0
H278 H 0.8009 0.82467 0.61367 0.0
H279 H 0.89274 0.77313 0.58566 0.0
H280 H 0.8475 0.89841 0.6389 0.0
H281 H 0.82211 0.8949 0.58412 0.0
H282 H 0.80471 0.87874 0.63208 0.0
H283 H 0.9484 0.79711 0.58287 0.0
H284 H 0.9392 0.8312 0.54781 0.0
H285 H 0.95601 0.83582 0.60623 0.0
H286 H 0.91523 0.92302 0.49475 0.0
H287 H 0.96596 0.93392 0.63111 0.0
H288 H 0.84417 0.87365 0.5171 0.0
H289 H 0.88059 0.85132 0.50174 0.0
H290 H 0.86862 0.88787 0.47376 0.0
H291 H 0.9047 0.88278 0.68086 0.0
H292 H 0.94504 0.90601 0.69134 0.0
H293 H 0.94672 0.86603 0.6729 0.0
C294 C 0.67667 0.33011 0.02074 0.0
C295 C 0.67277 0.30784 0.98622 0.0
C296 C 0.65339 0.35566 0.01965 0.0
C297 C 0.62513 0.35864 0.98357 0.0
C298 C 0.62267 0.33745 0.947 0.0
C299 C 0.6467 0.31226 0.94866 0.0
C300 C 0.65764 0.37832 0.0586 0.0
C301 C 0.5933 0.34027 0.90761 0.0
C302 C 0.54301 0.39177 0.02435 0.0
C303 C 0.54475 0.42346 0.01265 0.0
C304 C 0.56777 0.37016 0.01243 0.0
C305 C 0.59525 0.38044 0.98833 0.0
C306 C 0.59581 0.412 0.97374 0.0
C307 C 0.57044 0.43323 0.9861 0.0
C308 C 0.5656 0.33662 0.0279 0.0
C309 C 0.62414 0.42405 0.94736 0.0
H310 H 0.69732 0.32698 0.04935 0.0
H311 H 0.64386 0.2951 0.92181 0.0
H312 H 0.6564 0.40278 0.046 0.0
H313 H 0.63535 0.37505 0.07867 0.0
H314 H 0.68329 0.37497 0.08117 0.0
H315 H 0.59784 0.32473 0.87931 0.0
H316 H 0.56734 0.3339 0.91852 0.0
H317 H 0.59111 0.3648 0.89533 0.0
H318 H 0.52273 0.38389 0.04407 0.0
H319 H 0.57178 0.45766 0.9767 0.0
H320 H 0.5888 0.3314 0.05382 0.0
H321 H 0.56677 0.32034 0.99938 0.0
H322 H 0.54071 0.33181 0.04255 0.0
H323 H 0.64614 0.43461 0.97101 0.0
H324 H 0.61299 0.44254 0.92344 0.0
H325 H 0.63554 0.40529 0.92822 0.0
C326 C 0.21537 0.96948 0.33717 0.0
C327 C 0.19207 0.95281 0.30524 0.0
C328 C 0.20312 0.98233 0.37536 0.0
C329 C 0.16679 0.97847 0.38116 0.0
C330 C 0.14278 0.9636 0.34713 0.0
C331 C 0.1558 0.95075 0.30977 0.0
C332 C 0.22952 0.99808 0.41072 0.0
C333 C 0.10367 0.95943 0.35146 0.0
C334 C 0.13169 0.96456 0.49057 0.0
C335 C 0.11113 0.99149 0.49351 0.0
C336 C 0.1535 0.96151 0.45676 0.0
C337 C 0.15423 0.98582 0.42476 0.0
C338 C 0.13667 0.01447 0.43069 0.0
C339 C 0.1154 0.01706 0.46535 0.0
C340 C 0.17255 0.93087 0.45242 0.0
C341 C 0.13717 0.04111 0.39775 0.0
H342 H 0.24347 0.97101 0.3335 0.0
H343 H 0.1378 0.93814 0.28466 0.0
H344 H 0.21753 0.01892 0.42472 0.0
H345 H 0.23723 0.98152 0.4389 0.0
H346 H 0.25415 0.00533 0.39708 0.0
H347 H 0.08803 0.95021 0.32008 0.0
H348 H 0.1009 0.94282 0.37923 0.0
H349 H 0.09184 0.98202 0.35988 0.0
H350 H 0.12879 0.94496 0.51277 0.0
H351 H 0.09962 0.03802 0.46765 0.0
H352 H 0.20006 0.93499 0.44476 0.0
H353 H 0.15797 0.9172 0.42417 0.0
H354 H 0.17406 0.91655 0.48355 0.0
H355 H 0.16417 0.04413 0.38782 0.0
H356 H 0.12882 0.06349 0.4119 0.0
H357 H 0.11837 0.03582 0.36682 0.0
C358 C 0.70571 0.57938 0.80661 0.0
C359 C 0.69251 0.5715 0.76195 0.0
C360 C 0.68717 0.57068 0.84213 0.0
C361 C 0.65447 0.55421 0.83255 0.0
C362 C 0.64336 0.54309 0.78834 0.0
C363 C 0.66254 0.55188 0.7535 0.0
C364 C 0.70075 0.58173 0.88916 0.0
C365 C 0.60906 0.52483 0.77688 0.0
C366 C 0.59456 0.53034 0.91933 0.0
C367 C 0.57017 0.55527 0.91524 0.0
C368 C 0.62371 0.53024 0.89464 0.0
C369 C 0.62801 0.55536 0.86491 0.0
C370 C 0.60466 0.58132 0.86295 0.0
C371 C 0.57636 0.58102 0.88829 0.0
C372 C 0.64864 0.50257 0.89894 0.0
C373 C 0.6083 0.60886 0.83217 0.0
H374 H 0.72944 0.59387 0.81347 0.0
H375 H 0.65227 0.54555 0.71913 0.0
H376 H 0.68556 0.60277 0.89687 0.0
H377 H 0.6967 0.56346 0.91429 0.0
H378 H 0.72958 0.58798 0.8929 0.0
H379 H 0.60686 0.51405 0.74292 0.0
H380 H 0.60722 0.5061 0.80209 0.0
H381 H 0.58596 0.54074 0.77764 0.0
H382 H 0.59016 0.51044 0.94031 0.0
H383 H 0.55817 0.60073 0.88561 0.0
H384 H 0.67586 0.50904 0.89223 0.0
H385 H 0.63794 0.48444 0.87419 0.0
H386 H 0.65067 0.49212 0.93311 0.0
H387 H 0.63552 0.61906 0.83934 0.0
H388 H 0.58858 0.62761 0.8358 0.0
H389 H 0.60437 0.60095 0.79659 0.0
C390 C 0.86297 0.13937 0.27868 0.0
C391 C 0.87841 0.13573 0.23901 0.0
C392 C 0.8797 0.12753 0.32003 0.0
C393 C 0.91314 0.11235 0.32212 0.0
C394 C 0.92999 0.1104 0.28296 0.0
C395 C 0.91225 0.12166 0.24187 0.0
C396 C 0.86065 0.12974 0.36091 0.0
C397 C 0.96599 0.09491 0.28393 0.0
C398 C 0.96801 0.0922 0.43506 0.0
C399 C 0.96126 0.06005 0.43761 0.0
C400 C 0.95223 0.10986 0.39788 0.0
C401 C 0.92845 0.09506 0.36347 0.0
C402 C 0.92043 0.06286 0.36724 0.0
C403 C 0.9374 0.04568 0.40386 0.0
C404 C 0.96222 0.1439 0.39447 0.0
C405 C 0.89457 0.04629 0.33199 0.0
H406 H 0.83735 0.15092 0.27738 0.0
H407 H 0.92446 0.11823 0.21167 0.0
H408 H 0.85234 0.10599 0.37034 0.0
H409 H 0.87883 0.13919 0.39003 0.0
H410 H 0.8365 0.14479 0.35484 0.0
H411 H 0.97768 0.09917 0.25248 0.0
H412 H 0.98499 0.10356 0.31289 0.0
H413 H 0.96314 0.06928 0.28822 0.0
H414 H 0.98676 0.10318 0.46105 0.0
H415 H 0.93207 0.02082 0.40609 0.0
H416 H 0.93791 0.15856 0.38706 0.0
H417 H 0.97794 0.14703 0.36619 0.0
H418 H 0.97841 0.15257 0.42581 0.0
H419 H 0.86887 0.05918 0.326 0.0
H420 H 0.88908 0.02187 0.34184 0.0
H421 H 0.90563 0.04568 0.29965 0.0
C422 C 0.35711 0.43529 0.68542 0.0
C423 C 0.33065 0.41194 0.68194 0.0
C424 C 0.37193 0.44741 0.72729 0.0
C425 C 0.35964 0.43643 0.76694 0.0
C426 C 0.33335 0.41258 0.76398 0.0
C427 C 0.31928 0.40051 0.72154 0.0
C428 C 0.40004 0.47277 0.72888 0.0
C429 C 0.3194 0.40045 0.80548 0.0
C430 C 0.41999 0.4601 0.87375 0.0
C431 C 0.40515 0.48906 0.88271 0.0
C432 C 0.40419 0.44146 0.83769 0.0
C433 C 0.3726 0.45191 0.81067 0.0
C434 C 0.35596 0.47983 0.82221 0.0
C435 C 0.37262 0.49819 0.8578 0.0
C436 C 0.42284 0.41193 0.8264 0.0
C437 C 0.32192 0.49155 0.79494 0.0
H438 H 0.36565 0.44484 0.6552 0.0
H439 H 0.29925 0.38218 0.7194 0.0
H440 H 0.38934 0.49496 0.74069 0.0
H441 H 0.42386 0.46639 0.75314 0.0
H442 H 0.40865 0.477 0.69547 0.0
H443 H 0.30088 0.38032 0.79793 0.0
H444 H 0.34189 0.39314 0.83115 0.0
H445 H 0.30497 0.41942 0.82058 0.0
H446 H 0.4452 0.45302 0.89288 0.0
H447 H 0.36085 0.52041 0.86502 0.0
H448 H 0.43591 0.41602 0.796 0.0
H449 H 0.40338 0.39256 0.81856 0.0
H450 H 0.44362 0.40449 0.85432 0.0
H451 H 0.32772 0.4999 0.76167 0.0
H452 H 0.30987 0.51115 0.81187 0.0
H453 H 0.30198 0.4724 0.78877 0.0
C454 C 0.65745 0.58693 0.32482 0.0
C455 C 0.64407 0.61037 0.35058 0.0
C456 C 0.63781 0.57637 0.28437 0.0
C457 C 0.60387 0.58952 0.26915 0.0
C458 C 0.59064 0.61383 0.29426 0.0
C459 C 0.61087 0.62394 0.33464 0.0
C460 C 0.65297 0.55048 0.25856 0.0
C461 C 0.55456 0.62842 0.27928 0.0
C462 C 0.56304 0.57409 0.14742 0.0
C463 C 0.54065 0.54843 0.1524 0.0
C464 C 0.58338 0.5881 0.18512 0.0
C465 C 0.58122 0.57623 0.2288 0.0
C466 C 0.55805 0.55082 0.23403 0.0
C467 C 0.53812 0.53729 0.1959 0.0
C468 C 0.60766 0.61524 0.17819 0.0
C469 C 0.55478 0.53749 0.27994 0.0
H470 H 0.68332 0.57667 0.33643 0.0
H471 H 0.60012 0.64184 0.35447 0.0
H472 H 0.63575 0.52939 0.2582 0.0
H473 H 0.65321 0.55766 0.22306 0.0
H474 H 0.68059 0.54403 0.27343 0.0
H475 H 0.54932 0.64868 0.30058 0.0
H476 H 0.55262 0.63635 0.24381 0.0
H477 H 0.53323 0.61072 0.28082 0.0
H478 H 0.56512 0.58294 0.11402 0.0
H479 H 0.52077 0.51763 0.20029 0.0
H480 H 0.63586 0.60869 0.18976 0.0
H481 H 0.60138 0.63556 0.19866 0.0
H482 H 0.60523 0.62256 0.14235 0.0
H483 H 0.58102 0.52821 0.29559 0.0
H484 H 0.53471 0.51834 0.27841 0.0
H485 H 0.54706 0.55616 0.30234 0.0
C486 C 0.84924 0.05629 0.83518 0.0
C487 C 0.82271 0.07943 0.83023 0.0
C488 C 0.866 0.047 0.79857 0.0
C489 C 0.85568 0.06099 0.75594 0.0
C490 C 0.82542 0.08081 0.74945 0.0
C491 C 0.80942 0.09011 0.78686 0.0
C492 C 0.89763 0.02519 0.80686 0.0
C493 C 0.81246 0.09492 0.70401 0.0
C494 C 0.93623 0.08409 0.70213 0.0
C495 C 0.93936 0.05917 0.67259 0.0
C496 C 0.90809 0.08552 0.72764 0.0
C497 C 0.88181 0.06163 0.72318 0.0
C498 C 0.8832 0.03756 0.69099 0.0
C499 C 0.91221 0.03648 0.66615 0.0
C500 C 0.90779 0.1118 0.76135 0.0
C501 C 0.85528 0.01208 0.68422 0.0
H502 H 0.85873 0.04712 0.86841 0.0
H503 H 0.78856 0.10767 0.78253 0.0
H504 H 0.89652 0.00756 0.77964 0.0
H505 H 0.92267 0.03886 0.80699 0.0
H506 H 0.89889 0.01282 0.83963 0.0
H507 H 0.7844 0.10317 0.70186 0.0
H508 H 0.82954 0.11528 0.69824 0.0
H509 H 0.8143 0.07773 0.67673 0.0
H510 H 0.95667 0.1021 0.70669 0.0
H511 H 0.91429 0.01724 0.64316 0.0
H512 H 0.91047 0.10206 0.79596 0.0
H513 H 0.88206 0.1246 0.75526 0.0
H514 H 0.92981 0.12887 0.75978 0.0
H515 H 0.86314 0.9928 0.70835 0.0
H516 H 0.85304 0.00221 0.64969 0.0
H517 H 0.82866 0.02074 0.69013 0.0
C518 C 0.2836 0.47477 0.24139 0.0
C519 C 0.30592 0.45568 0.27139 0.0
C520 C 0.29552 0.48722 0.20263 0.0
C521 C 0.3305 0.48036 0.19376 0.0
C522 C 0.35342 0.46189 0.22461 0.0
C523 C 0.3408 0.44967 0.26272 0.0
C524 C 0.27038 0.50687 0.17059 0.0
C525 C 0.39104 0.45406 0.21664 0.0
C526 C 0.36162 0.47239 0.08076 0.0
C527 C 0.38577 0.49741 0.08197 0.0
C528 C 0.34002 0.46849 0.1147 0.0
C529 C 0.34294 0.49002 0.15086 0.0
C530 C 0.36403 0.51736 0.14927 0.0
C531 C 0.38516 0.52084 0.11457 0.0
C532 C 0.31729 0.43937 0.11446 0.0
C533 C 0.36751 0.54114 0.18674 0.0
H534 H 0.25675 0.47985 0.24806 0.0
H535 H 0.35807 0.43448 0.28506 0.0
H536 H 0.28396 0.52845 0.16122 0.0
H537 H 0.26207 0.49353 0.13915 0.0
H538 H 0.24601 0.51353 0.18516 0.0
H539 H 0.40611 0.44104 0.24526 0.0
H540 H 0.39015 0.43955 0.18585 0.0
H541 H 0.40599 0.47578 0.21116 0.0
H542 H 0.36159 0.45451 0.05513 0.0
H543 H 0.40358 0.54041 0.1155 0.0
H544 H 0.29096 0.44481 0.12488 0.0
H545 H 0.33086 0.42224 0.13891 0.0
H546 H 0.31287 0.42817 0.08074 0.0
H547 H 0.34151 0.54504 0.199 0.0
H548 H 0.3777 0.56389 0.17582 0.0
H549 H 0.38663 0.53231 0.21545 0.0
C550 C 0.14544 0.93117 0.89584 0.0
C551 C 0.1697 0.90622 0.89996 0.0
C552 C 0.12967 0.94181 0.85349 0.0
C553 C 0.13848 0.92728 0.81408 0.0
C554 C 0.16181 0.90122 0.81798 0.0
C555 C 0.1771 0.89092 0.86096 0.0
C556 C 0.10467 0.96951 0.85096 0.0
C557 C 0.1719 0.88515 0.77683 0.0
C558 C 0.07778 0.95313 0.70867 0.0
C559 C 0.09618 0.97971 0.69686 0.0
C560 C 0.09237 0.93412 0.74502 0.0
C561 C 0.12616 0.94185 0.76946 0.0
C562 C 0.14613 0.96692 0.75467 0.0
C563 C 0.13079 0.98564 0.71878 0.0
C564 C 0.07033 0.90748 0.75952 0.0
C565 C 0.18247 0.97573 0.77915 0.0
H566 H 0.13907 0.94265 0.92592 0.0
H567 H 0.19588 0.87163 0.86399 0.0
H568 H 0.11705 0.98979 0.83587 0.0
H569 H 0.0793 0.96402 0.82898 0.0
H570 H 0.09835 0.97652 0.8846 0.0
H571 H 0.18623 0.86279 0.78537 0.0
H572 H 0.14777 0.88034 0.75217 0.0
H573 H 0.18952 0.90076 0.76011 0.0
H574 H 0.05096 0.94856 0.69185 0.0
H575 H 0.1452 0.00603 0.70934 0.0
H576 H 0.05868 0.91453 0.78994 0.0
H577 H 0.0872 0.88658 0.76853 0.0
H578 H 0.0481 0.90097 0.73282 0.0
H579 H 0.17939 0.98612 0.81227 0.0
H580 H 0.19639 0.993 0.75996 0.0
H581 H 0.19961 0.95472 0.7856 0.0
loop_
_geom_bond_atom_site_label_1
_geom_bond_atom_site_label_2
_geom_bond_distance
_geom_bond_site_symmetry_2
_ccdc_geom_bond_type
C0 C1 1.386 . S
C0 C2 1.397 . S
C0 H24 0.931 . S
C1 C0 1.386 . S
C1 C5 1.397 . S
C2 C0 1.397 . S
C2 C3 1.369 1_556 S
C2 H25 0.930 . S
C3 C2 1.369 1_554 S
C3 C4 1.376 1_554 S
C3 C6 1.497 . S
C4 C3 1.376 1_556 S
C4 C5 1.389 . S
C4 H26 0.929 1_556 S
C5 C1 1.397 . S
C5 C4 1.389 . S
C5 H27 0.931 . S
C6 C3 1.497 . S
C6 C7 1.387 . S
C6 C11 1.390 . S
C7 C6 1.387 . S
C7 C8 1.401 . S
C7 H28 0.930 . S
C8 C7 1.401 . S
C8 C9 1.376 . S
C8 C17 1.511 . S
C9 C8 1.376 . S
C9 C10 1.392 . S
C9 H30 0.931 . S
C10 C9 1.392 . S
C10 C11 1.361 . S
C10 C12 1.500 . S
C11 C6 1.390 . S
C11 C10 1.361 . S
C11 H29 0.931 . S
C12 C10 1.500 . S
C12 C13 1.371 . S
C12 C14 1.365 . S
C13 C12 1.371 . S
C13 C23 1.386 . S
C13 H31 0.931 . S
C14 C12 1.365 . S
C14 C15 1.409 . S
C14 H32 0.929 . S
C15 C14 1.409 . S
C15 C16 1.380 . S
C15 H33 0.930 . S
C16 C15 1.380 . S
C16 C23 1.357 . S
C17 C8 1.511 . S
C17 C18 1.341 . S
C17 C19 1.371 . S
C18 C17 1.341 . S
C18 C22 1.394 . S
C18 H34 0.930 . S
C19 C17 1.371 . S
C19 C20 1.392 . S
C19 H35 0.931 . S
C20 C19 1.392 . S
C20 C21 1.331 . S
C20 H38 0.932 . S
C21 C20 1.331 . S
C21 C22 1.336 . S
C22 C18 1.394 . S
C22 C21 1.336 . S
C22 H37 0.929 . S
C23 C13 1.386 . S
C23 C16 1.357 . S
C23 H36 0.928 . S
H24 C0 0.931 . S
H25 C2 0.930 . S
H26 C4 0.929 1_554 S
H27 C5 0.931 . S
H28 C7 0.930 . S
H29 C11 0.931 . S
H30 C9 0.931 . S
H31 C13 0.931 . S
H32 C14 0.929 . S
H33 C15 0.930 . S
H34 C18 0.930 . S
H35 C19 0.931 . S
H36 C23 0.928 . S
H37 C22 0.929 . S
H38 C20 0.932 . S
C39 C40 1.386 . S
C39 C41 1.397 . S
C39 H63 0.931 . S
C40 C39 1.386 . S
C40 C44 1.397 . S
C41 C39 1.397 . S
C41 C42 1.384 . S
C41 H64 0.930 . S
C42 C41 1.384 . S
C42 C43 1.377 . S
C42 C45 1.481 . S
C43 C42 1.377 . S
C43 C44 1.389 . S
C43 H65 0.929 . S
C44 C40 1.397 . S
C44 C43 1.389 . S
C44 H66 0.931 . S
C45 C42 1.481 . S
C45 C46 1.387 . S
C45 C50 1.390 . S
C46 C45 1.387 . S
C46 C47 1.401 . S
C46 H67 0.930 . S
C47 C46 1.401 . S
C47 C48 1.376 . S
C47 C56 1.511 . S
C48 C47 1.376 . S
C48 C49 1.392 . S
C48 H69 0.931 . S
C49 C48 1.392 . S
C49 C50 1.361 . S
C49 C51 1.500 . S
C50 C45 1.390 . S
C50 C49 1.361 . S
C50 H68 0.931 . S
C51 C49 1.500 . S
C51 C52 1.371 . S
C51 C53 1.365 . S
C52 C51 1.371 . S
C52 C62 1.386 . S
C52 H70 0.931 . S
C53 C51 1.365 . S
C53 C54 1.409 . S
C53 H71 0.929 . S
C54 C53 1.409 . S
C54 C55 1.380 . S
C54 H72 0.930 . S
C55 C54 1.380 . S
C55 C62 1.357 . S
C56 C47 1.511 . S
C56 C57 1.341 . S
C56 C58 1.371 . S
C57 C56 1.341 . S
C57 C61 1.394 . S
C57 H73 0.930 . S
C58 C56 1.371 . S
C58 C59 1.392 . S
C58 H74 0.931 . S
C59 C58 1.392 . S
C59 C60 1.331 . S
C59 H77 0.932 . S
C60 C59 1.331 . S
C60 C61 1.336 . S
C61 C57 1.394 . S
C61 C60 1.336 . S
C61 H76 0.929 . S
C62 C52 1.386 . S
C62 C55 1.357 . S
C62 H75 0.928 . S
H63 C39 0.931 . S
H64 C41 0.930 . S
H65 C43 0.929 . S
H66 C44 0.931 . S
H67 C46 0.930 . S
H68 C50 0.931 . S
H69 C48 0.931 . S
H70 C52 0.931 . S
H71 C53 0.929 . S
H72 C54 0.930 . S
H73 C57 0.930 . S
H74 C58 0.931 . S
H75 C62 0.928 . S
H76 C61 0.929 . S
H77 C59 0.932 . S
C78 C79 1.386 . S
C78 C80 1.397 . S
C78 H102 0.931 . S
C79 C78 1.386 . S
C79 C83 1.397 . S
C80 C78 1.397 . S
C80 C81 1.384 . S
C80 H103 0.930 . S
C81 C80 1.384 . S
C81 C82 1.377 . S
C81 C84 1.481 . S
C82 C81 1.377 . S
C82 C83 1.389 . S
C82 H104 0.929 . S
C83 C79 1.397 . S
C83 C82 1.389 . S
C83 H105 0.931 . S
C84 C81 1.481 . S
C84 C85 1.387 . S
C84 C89 1.390 . S
C85 C84 1.387 . S
C85 C86 1.401 1_554 S
C85 H106 0.930 . S
C86 C85 1.401 1_556 S
C86 C87 1.376 . S
C86 C95 1.511 . S
C87 C86 1.376 . S
C87 C88 1.392 . S
C87 H108 0.931 . S
C88 C87 1.392 . S
C88 C89 1.361 1_556 S
C88 C90 1.500 . S
C89 C84 1.390 . S
C89 C88 1.361 1_554 S
C89 H107 0.931 . S
C90 C88 1.500 . S
C90 C91 1.371 . S
C90 C92 1.365 . S
C91 C90 1.371 . S
C91 C101 1.386 . S
C91 H109 0.931 . S
C92 C90 1.365 . S
C92 C93 1.409 . S
C92 H110 0.929 . S
C93 C92 1.409 . S
C93 C94 1.380 . S
C93 H111 0.930 . S
C94 C93 1.380 . S
C94 C101 1.357 . S
C95 C86 1.511 . S
C95 C96 1.341 1_556 S
C95 C97 1.371 . S
C96 C95 1.341 1_554 S
C96 C100 1.394 . S
C96 H112 0.930 . S
C97 C95 1.371 . S
C97 C98 1.392 . S
C97 H113 0.931 . S
C98 C97 1.392 . S
C98 C99 1.331 . S
C98 H116 0.932 . S
C99 C98 1.331 . S
C99 C100 1.336 1_556 S
C100 C96 1.394 . S
C100 C99 1.336 1_554 S
C100 H115 0.929 . S
C101 C91 1.386 . S
C101 C94 1.357 . S
C101 H114 0.928 . S
H102 C78 0.931 . S
H103 C80 0.930 . S
H104 C82 0.929 . S
H105 C83 0.931 . S
H106 C85 0.930 . S
H107 C89 0.931 . S
H108 C87 0.931 . S
H109 C91 0.931 . S
H110 C92 0.929 . S
H111 C93 0.930 . S
H112 C96 0.930 . S
H113 C97 0.931 . S
H114 C101 0.928 . S
H115 C100 0.929 . S
H116 C98 0.932 . S
C117 C118 1.386 . S
C117 C119 1.397 . S
C117 H141 0.931 . S
C118 C117 1.386 . S
C118 C122 1.397 . S
C119 C117 1.397 . S
C119 C120 1.384 . S
C119 H142 0.930 . S
C120 C119 1.384 . S
C120 C121 1.377 . S
C120 C123 1.481 . S
C121 C120 1.377 . S
C121 C122 1.389 . S
C121 H143 0.929 . S
C122 C118 1.397 . S
C122 C121 1.389 . S
C122 H144 0.931 . S
C123 C120 1.481 . S
C123 C124 1.387 . S
C123 C128 1.390 . S
C124 C123 1.387 . S
C124 C125 1.401 . S
C124 H145 0.930 . S
C125 C124 1.401 . S
C125 C126 1.376 . S
C125 C134 1.511 . S
C126 C125 1.376 . S
C126 C127 1.392 . S
C126 H147 0.931 . S
C127 C126 1.392 . S
C127 C128 1.361 . S
C127 C129 1.500 . S
C128 C123 1.390 . S
C128 C127 1.361 . S
C128 H146 0.931 . S
C129 C127 1.500 . S
C129 C130 1.371 . S
C129 C131 1.365 . S
C130 C129 1.371 . S
C130 C140 1.386 . S
C130 H148 0.931 . S
C131 C129 1.365 . S
C131 C132 1.409 . S
C131 H149 0.929 . S
C132 C131 1.409 . S
C132 C133 1.380 . S
C132 H150 0.930 . S
C133 C132 1.380 . S
C133 C140 1.357 . S
C134 C125 1.511 . S
C134 C135 1.341 . S
C134 C136 1.371 . S
C135 C134 1.341 . S
C135 C139 1.394 . S
C135 H151 0.930 . S
C136 C134 1.371 . S
C136 C137 1.392 . S
C136 H152 0.931 . S
C137 C136 1.392 . S
C137 C138 1.331 . S
C137 H155 0.932 . S
C138 C137 1.331 . S
C138 C139 1.336 . S
C139 C135 1.394 . S
C139 C138 1.336 . S
C139 H154 0.929 . S
C140 C130 1.386 . S
C140 C133 1.357 . S
C140 H153 0.928 . S
H141 C117 0.931 . S
H142 C119 0.930 . S
H143 C121 0.929 . S
H144 C122 0.931 . S
H145 C124 0.930 . S
H146 C128 0.931 . S
H147 C126 0.931 . S
H148 C130 0.931 . S
H149 C131 0.929 . S
H150 C132 0.930 . S
H151 C135 0.930 . S
H152 C136 0.931 . S
H153 C140 0.928 . S
H154 C139 0.929 . S
H155 C137 0.932 . S
O156 Mg157 1.990 1_655 S
O156 C170 1.253 . S
Mg157 O156 1.990 1_455 S
Mg157 O160 2.180 . S
Mg157 O161 2.117 . S
Mg157 O175 2.030 . S
O158 Mg159 2.072 1_655 S
O158 C170 1.260 . S
Mg159 O158 2.072 1_455 S
Mg159 O160 2.099 . S
Mg159 O162 2.079 1_545 S
Mg159 O163 2.072 1_455 S
Mg159 O165 2.099 1_445 S
Mg159 O176 2.079 1_545 S
O160 Mg157 2.180 . S
O160 Mg159 2.099 . S
O160 C171 1.279 . S
O161 Mg157 2.117 . S
O161 C171 1.250 . S
O162 Mg159 2.079 1_565 S
O162 C172 1.264 . S
O163 Mg159 2.072 1_655 S
O163 C173 1.260 . S
Mg164 O165 2.180 . S
Mg164 O166 2.030 1_655 S
Mg164 O167 1.990 1_565 S
Mg164 O168 2.117 . S
O165 Mg159 2.099 1_665 S
O165 Mg164 2.180 . S
O165 C174 1.279 . S
O166 Mg164 2.030 1_455 S
O166 C172 1.248 . S
O167 Mg164 1.990 1_545 S
O167 C173 1.253 . S
O168 Mg164 2.117 . S
O168 C174 1.250 . S
C169 O175 1.248 1_565 S
C169 O176 1.264 . S
C170 O156 1.253 . S
C170 O158 1.260 . S
C171 O160 1.279 . S
C171 O161 1.250 . S
C172 O162 1.264 . S
C172 O166 1.248 . S
C173 O163 1.260 . S
C173 O167 1.253 . S
C174 O165 1.279 . S
C174 O168 1.250 . S
O175 Mg157 2.030 . S
O175 C169 1.248 1_545 S
O176 Mg159 2.079 1_565 S
O176 C169 1.264 . S
O177 Mg178 1.990 . S
O177 C191 1.253 . S
Mg178 O177 1.990 . S
Mg178 O181 2.180 . S
Mg178 O182 2.117 . S
Mg178 O196 2.030 . S
O179 Mg180 2.072 . S
O179 C191 1.260 . S
Mg180 O179 2.072 . S
Mg180 O181 2.099 . S
Mg180 O183 2.079 1_554 S
Mg180 O184 2.072 1_554 S
Mg180 O186 2.099 . S
Mg180 O197 2.079 . S
O181 Mg178 2.180 . S
O181 Mg180 2.099 . S
O181 C192 1.279 . S
O182 Mg178 2.117 . S
O182 C192 1.250 . S
O183 Mg180 2.079 1_556 S
O183 C193 1.264 . S
O184 Mg180 2.072 1_556 S
O184 C194 1.260 . S
Mg185 O186 2.180 1_556 S
Mg185 O187 2.030 . S
Mg185 O188 1.990 . S
Mg185 O189 2.127 . S
O186 Mg180 2.099 . S
O186 Mg185 2.180 1_554 S
O186 C195 1.279 . S
O187 Mg185 2.030 . S
O187 C193 1.248 . S
O188 Mg185 1.990 . S
O188 C194 1.253 . S
O189 Mg185 2.127 . S
O189 C195 1.239 1_556 S
C190 O196 1.248 . S
C190 O197 1.264 . S
C191 O177 1.253 . S
C191 O179 1.260 . S
C192 O181 1.279 . S
C192 O182 1.250 . S
C193 O183 1.264 . S
C193 O187 1.248 . S
C194 O184 1.260 . S
C194 O188 1.253 . S
C195 O186 1.279 . S
C195 O189 1.239 1_554 S
O196 Mg178 2.030 . S
O196 C190 1.248 . S
O197 Mg180 2.079 . S
O197 C190 1.264 . S
C198 C199 1.391 . S
C198 C200 1.394 . S
C198 H214 0.931 . S
C199 C198 1.391 . S
C199 C203 1.376 . S
C200 C198 1.394 . S
C200 C201 1.369 . S
C200 C204 1.531 . S
C201 C200 1.369 . S
C201 C202 1.410 . S
C201 C209 1.503 . S
C202 C201 1.410 . S
C202 C203 1.392 . S
C202 C205 1.511 . S
C203 C199 1.376 . S
C203 C202 1.392 . S
C203 H215 0.929 . S
C204 C200 1.531 . S
C204 H216 0.960 . S
C204 H217 0.962 . S
C204 H218 0.960 . S
C205 C202 1.511 . S
C205 H219 0.961 . S
C205 H220 0.961 . S
C205 H221 0.961 . S
C206 C207 1.370 . S
C206 C208 1.363 . S
C206 H222 0.931 . S
C207 C206 1.370 . S
C207 C211 1.408 . S
C208 C206 1.363 . S
C208 C209 1.370 . S
C208 C212 1.524 . S
C209 C201 1.503 . S
C209 C208 1.370 . S
C209 C210 1.403 . S
C210 C209 1.403 . S
C210 C211 1.404 . S
C210 C213 1.539 . S
C211 C207 1.408 . S
C211 C210 1.404 . S
C211 H223 0.930 . S
C212 C208 1.524 . S
C212 H224 0.956 . S
C212 H225 0.961 . S
C212 H226 0.961 . S
C213 C210 1.539 . S
C213 H227 0.958 . S
C213 H228 0.961 . S
C213 H229 0.960 . S
H214 C198 0.931 . S
H215 C203 0.929 . S
H216 C204 0.960 . S
H217 C204 0.962 . S
H218 C204 0.960 . S
H219 C205 0.961 . S
H220 C205 0.961 . S
H221 C205 0.961 . S
H222 C206 0.931 . S
H223 C211 0.930 . S
H224 C212 0.956 . S
H225 C212 0.961 . S
H226 C212 0.961 . S
H227 C213 0.958 . S
H228 C213 0.961 . S
H229 C213 0.960 . S
C230 C231 1.391 . S
C230 C232 1.394 . S
C230 H246 0.931 . S
C231 C230 1.391 . S
C231 C235 1.376 . S
C232 C230 1.394 . S
C232 C233 1.369 . S
C232 C236 1.531 . S
C233 C232 1.369 . S
C233 C234 1.410 . S
C233 C241 1.503 . S
C234 C233 1.410 . S
C234 C235 1.392 . S
C234 C237 1.511 . S
C235 C231 1.376 . S
C235 C234 1.392 . S
C235 H247 0.929 . S
C236 C232 1.531 . S
C236 H248 0.960 . S
C236 H249 0.962 . S
C236 H250 0.960 . S
C237 C234 1.511 . S
C237 H251 0.961 . S
C237 H252 0.961 . S
C237 H253 0.961 . S
C238 C239 1.370 . S
C238 C240 1.363 . S
C238 H254 0.931 . S
C239 C238 1.370 . S
C239 C243 1.408 . S
C240 C238 1.363 . S
C240 C241 1.370 . S
C240 C244 1.524 . S
C241 C233 1.503 . S
C241 C240 1.370 . S
C241 C242 1.403 . S
C242 C241 1.403 . S
C242 C243 1.404 . S
C242 C245 1.539 1_554 S
C243 C239 1.408 . S
C243 C242 1.404 . S
C243 H255 0.930 1_554 S
C244 C240 1.524 . S
C244 H256 0.956 . S
C244 H257 0.961 . S
C244 H258 0.961 . S
C245 C242 1.539 1_556 S
C245 H259 0.958 . S
C245 H260 0.961 . S
C245 H261 0.953 1_556 S
H246 C230 0.931 . S
H247 C235 0.929 . S
H248 C236 0.960 . S
H249 C236 0.962 . S
H250 C236 0.960 . S
H251 C237 0.961 . S
H252 C237 0.961 . S
H253 C237 0.961 . S
H254 C238 0.931 . S
H255 C243 0.930 1_556 S
H256 C244 0.956 . S
H257 C244 0.961 . S
H258 C244 0.961 . S
H259 C245 0.958 . S
H260 C245 0.961 . S
H261 C245 0.953 1_554 S
C262 C263 1.391 . S
C262 C264 1.394 . S
C262 H278 0.931 . S
C263 C262 1.391 . S
C263 C267 1.376 . S
C264 C262 1.394 . S
C264 C265 1.369 . S
C264 C268 1.531 . S
C265 C264 1.369 . S
C265 C266 1.410 . S
C265 C273 1.503 . S
C266 C265 1.410 . S
C266 C267 1.392 . S
C266 C269 1.511 . S
C267 C263 1.376 . S
C267 C266 1.392 . S
C267 H279 0.929 . S
C268 C264 1.531 . S
C268 H280 0.960 . S
C268 H281 0.962 . S
C268 H282 0.960 . S
C269 C266 1.511 . S
C269 H283 0.961 . S
C269 H284 0.961 . S
C269 H285 0.961 . S
C270 C271 1.370 . S
C270 C272 1.363 . S
C270 H286 0.931 . S
C271 C270 1.370 . S
C271 C275 1.408 . S
C272 C270 1.363 . S
C272 C273 1.370 . S
C272 C276 1.524 . S
C273 C265 1.503 . S
C273 C272 1.370 . S
C273 C274 1.403 . S
C274 C273 1.403 . S
C274 C275 1.404 . S
C274 C277 1.539 . S
C275 C271 1.408 . S
C275 C274 1.404 . S
C275 H287 0.930 . S
C276 C272 1.524 . S
C276 H288 0.956 . S
C276 H289 0.961 . S
C276 H290 0.961 . S
C277 C274 1.539 . S
C277 H291 0.958 . S
C277 H292 0.961 . S
C277 H293 0.960 . S
H278 C262 0.931 . S
H279 C267 0.929 . S
H280 C268 0.960 . S
H281 C268 0.962 . S
H282 C268 0.960 . S
H283 C269 0.961 . S
H284 C269 0.961 . S
H285 C269 0.961 . S
H286 C270 0.931 . S
H287 C275 0.930 . S
H288 C276 0.956 . S
H289 C276 0.961 . S
H290 C276 0.961 . S
H291 C277 0.958 . S
H292 C277 0.961 . S
H293 C277 0.960 . S
C294 C295 1.391 1_554 S
C294 C296 1.394 . S
C294 H310 0.931 . S
C295 C294 1.391 1_556 S
C295 C299 1.376 . S
C296 C294 1.394 . S
C296 C297 1.369 . S
C296 C300 1.531 . S
C297 C296 1.369 . S
C297 C298 1.410 1_554 S
C297 C305 1.503 . S
C298 C297 1.410 1_556 S
C298 C299 1.392 . S
C298 C301 1.511 . S
C299 C295 1.376 . S
C299 C298 1.392 . S
C299 H311 0.929 . S
C300 C296 1.531 . S
C300 H312 0.960 . S
C300 H313 0.962 . S
C300 H314 0.960 . S
C301 C298 1.511 . S
C301 H315 0.961 . S
C301 H316 0.961 . S
C301 H317 0.961 . S
C302 C303 1.370 . S
C302 C304 1.363 . S
C302 H318 0.931 . S
C303 C302 1.370 . S
C303 C307 1.408 . S
C304 C302 1.363 . S
C304 C305 1.370 . S
C304 C308 1.524 . S
C305 C297 1.503 . S
C305 C304 1.370 . S
C305 C306 1.403 . S
C306 C305 1.403 . S
C306 C307 1.404 . S
C306 C309 1.539 . S
C307 C303 1.408 . S
C307 C306 1.404 . S
C307 H319 0.930 . S
C308 C304 1.524 . S
C308 H320 0.956 . S
C308 H321 0.961 1_554 S
C308 H322 0.961 . S
C309 C306 1.539 . S
C309 H323 0.958 . S
C309 H324 0.961 1_554 S
C309 H325 0.960 1_554 S
H310 C294 0.931 . S
H311 C299 0.929 . S
H312 C300 0.960 . S
H313 C300 0.962 . S
H314 C300 0.960 . S
H315 C301 0.961 . S
H316 C301 0.961 . S
H317 C301 0.961 . S
H318 C302 0.931 . S
H319 C307 0.930 . S
H320 C308 0.956 . S
H321 C308 0.961 1_556 S
H322 C308 0.961 . S
H323 C309 0.958 . S
H324 C309 0.961 1_556 S
H325 C309 0.960 1_556 S
C326 C327 1.391 . S
C326 C328 1.394 . S
C326 H342 0.931 . S
C327 C326 1.391 . S
C327 C331 1.376 . S
C328 C326 1.394 . S
C328 C329 1.369 . S
C328 C332 1.531 . S
C329 C328 1.369 . S
C329 C330 1.410 . S
C329 C337 1.503 . S
C330 C329 1.410 . S
C330 C331 1.392 . S
C330 C333 1.511 . S
C331 C327 1.376 . S
C331 C330 1.392 . S
C331 H343 0.929 . S
C332 C328 1.531 . S
C332 H344 0.960 . S
C332 H345 0.962 . S
C332 H346 0.960 . S
C333 C330 1.511 . S
C333 H347 0.961 . S
C333 H348 0.961 . S
C333 H349 0.961 . S
C334 C335 1.370 . S
C334 C336 1.363 . S
C334 H350 0.931 . S
C335 C334 1.370 . S
C335 C339 1.408 1_565 S
C336 C334 1.363 . S
C336 C337 1.370 . S
C336 C340 1.524 . S
C337 C329 1.503 . S
C337 C336 1.370 . S
C337 C338 1.403 1_565 S
C338 C337 1.403 1_545 S
C338 C339 1.404 . S
C338 C341 1.539 . S
C339 C335 1.408 1_545 S
C339 C338 1.404 . S
C339 H351 0.930 . S
C340 C336 1.524 . S
C340 H352 0.956 . S
C340 H353 0.961 . S
C340 H354 0.961 . S
C341 C338 1.539 . S
C341 H355 0.958 . S
C341 H356 0.961 . S
C341 H357 0.960 . S
H342 C326 0.931 . S
H343 C331 0.929 . S
H344 C332 0.960 . S
H345 C332 0.962 . S
H346 C332 0.960 . S
H347 C333 0.961 . S
H348 C333 0.961 . S
H349 C333 0.961 . S
H350 C334 0.931 . S
H351 C339 0.930 . S
H352 C340 0.956 . S
H353 C340 0.961 . S
H354 C340 0.961 . S
H355 C341 0.958 . S
H356 C341 0.961 . S
H357 C341 0.960 . S
C358 C359 1.391 . S
C358 C360 1.394 . S
C358 H374 0.931 . S
C359 C358 1.391 . S
C359 C363 1.376 . S
C360 C358 1.394 . S
C360 C361 1.369 . S
C360 C364 1.531 . S
C361 C360 1.369 . S
C361 C362 1.410 . S
C361 C369 1.503 . S
C362 C361 1.410 . S
C362 C363 1.392 . S
C362 C365 1.511 . S
C363 C359 1.376 . S
C363 C362 1.392 . S
C363 H375 0.929 . S
C364 C360 1.531 . S
C364 H376 0.960 . S
C364 H377 0.962 . S
C364 H378 0.960 . S
C365 C362 1.511 . S
C365 H379 0.961 . S
C365 H380 0.961 . S
C365 H381 0.961 . S
C366 C367 1.370 . S
C366 C368 1.363 . S
C366 H382 0.931 . S
C367 C366 1.370 . S
C367 C371 1.408 . S
C368 C366 1.363 . S
C368 C369 1.370 . S
C368 C372 1.524 . S
C369 C361 1.503 . S
C369 C368 1.370 . S
C369 C370 1.403 . S
C370 C369 1.403 . S
C370 C371 1.404 . S
C370 C373 1.539 . S
C371 C367 1.408 . S
C371 C370 1.404 . S
C371 H383 0.930 . S
C372 C368 1.524 . S
C372 H384 0.956 . S
C372 H385 0.961 . S
C372 H386 0.961 . S
C373 C370 1.539 . S
C373 H387 0.958 . S
C373 H388 0.961 . S
C373 H389 0.960 . S
H374 C358 0.931 . S
H375 C363 0.929 . S
H376 C364 0.960 . S
H377 C364 0.962 . S
H378 C364 0.960 . S
H379 C365 0.961 . S
H380 C365 0.961 . S
H381 C365 0.961 . S
H382 C366 0.931 . S
H383 C371 0.930 . S
H384 C372 0.956 . S
H385 C372 0.961 . S
H386 C372 0.961 . S
H387 C373 0.958 . S
H388 C373 0.961 . S
H389 C373 0.960 . S
C390 C391 1.391 . S
C390 C392 1.394 . S
C390 H406 0.931 . S
C391 C390 1.391 . S
C391 C395 1.376 . S
C392 C390 1.394 . S
C392 C393 1.369 . S
C392 C396 1.531 . S
C393 C392 1.369 . S
C393 C394 1.410 . S
C393 C401 1.503 . S
C394 C393 1.410 . S
C394 C395 1.392 . S
C394 C397 1.511 . S
C395 C391 1.376 . S
C395 C394 1.392 . S
C395 H407 0.929 . S
C396 C392 1.531 . S
C396 H408 0.960 . S
C396 H409 0.962 . S
C396 H410 0.960 . S
C397 C394 1.511 . S
C397 H411 0.961 . S
C397 H412 0.961 . S
C397 H413 0.961 . S
C398 C399 1.370 . S
C398 C400 1.363 . S
C398 H414 0.931 . S
C399 C398 1.370 . S
C399 C403 1.408 . S
C400 C398 1.363 . S
C400 C401 1.370 . S
C400 C404 1.524 . S
C401 C393 1.503 . S
C401 C400 1.370 . S
C401 C402 1.403 . S
C402 C401 1.403 . S
C402 C403 1.404 . S
C402 C405 1.539 . S
C403 C399 1.408 . S
C403 C402 1.404 . S
C403 H415 0.930 . S
C404 C400 1.524 . S
C404 H416 0.956 . S
C404 H417 0.961 . S
C404 H418 0.961 . S
C405 C402 1.539 . S
C405 H419 0.958 . S
C405 H420 0.961 1_545 S
C405 H421 0.960 . S
H406 C390 0.931 . S
H407 C395 0.929 . S
H408 C396 0.960 . S
H409 C396 0.962 . S
H410 C396 0.960 . S
H411 C397 0.961 . S
H412 C397 0.961 . S
H413 C397 0.961 . S
H414 C398 0.931 . S
H415 C403 0.930 . S
H416 C404 0.956 . S
H417 C404 0.961 . S
H418 C404 0.961 . S
H419 C405 0.958 . S
H420 C405 0.961 1_565 S
H421 C405 0.960 . S
C422 C423 1.391 . S
C422 C424 1.394 . S
C422 H438 0.931 . S
C423 C422 1.391 . S
C423 C427 1.376 . S
C424 C422 1.394 . S
C424 C425 1.369 . S
C424 C428 1.531 . S
C425 C424 1.369 . S
C425 C426 1.410 . S
C425 C433 1.503 . S
C426 C425 1.410 . S
C426 C427 1.392 . S
C426 C429 1.511 . S
C427 C423 1.376 . S
C427 C426 1.392 . S
C427 H439 0.929 . S
C428 C424 1.531 . S
C428 H440 0.960 . S
C428 H441 0.962 . S
C428 H442 0.960 . S
C429 C426 1.511 . S
C429 H443 0.961 . S
C429 H444 0.961 . S
C429 H445 0.961 . S
C430 C431 1.370 . S
C430 C432 1.363 . S
C430 H446 0.931 . S
C431 C430 1.370 . S
C431 C435 1.408 . S
C432 C430 1.363 . S
C432 C433 1.370 . S
C432 C436 1.524 . S
C433 C425 1.503 . S
C433 C432 1.370 . S
C433 C434 1.403 . S
C434 C433 1.403 . S
C434 C435 1.404 . S
C434 C437 1.539 . S
C435 C431 1.408 . S
C435 C434 1.404 . S
C435 H447 0.930 . S
C436 C432 1.524 . S
C436 H448 0.956 . S
C436 H449 0.961 . S
C436 H450 0.961 . S
C437 C434 1.539 . S
C437 H451 0.958 . S
C437 H452 0.961 . S
C437 H453 0.960 . S
H438 C422 0.931 . S
H439 C427 0.929 . S
H440 C428 0.960 . S
H441 C428 0.962 . S
H442 C428 0.960 . S
H443 C429 0.961 . S
H444 C429 0.961 . S
H445 C429 0.961 . S
H446 C430 0.931 . S
H447 C435 0.930 . S
H448 C436 0.956 . S
H449 C436 0.961 . S
H450 C436 0.961 . S
H451 C437 0.958 . S
H452 C437 0.961 . S
H453 C437 0.960 . S
C454 C455 1.391 . S
C454 C456 1.394 . S
C454 H470 0.931 . S
C455 C454 1.391 . S
C455 C459 1.376 . S
C456 C454 1.394 . S
C456 C457 1.369 . S
C456 C460 1.531 . S
C457 C456 1.369 . S
C457 C458 1.410 . S
C457 C465 1.503 . S
C458 C457 1.410 . S
C458 C459 1.392 . S
C458 C461 1.511 . S
C459 C455 1.376 . S
C459 C458 1.392 . S
C459 H471 0.929 . S
C460 C456 1.531 . S
C460 H472 0.960 . S
C460 H473 0.962 . S
C460 H474 0.960 . S
C461 C458 1.511 . S
C461 H475 0.961 . S
C461 H476 0.961 . S
C461 H477 0.961 . S
C462 C463 1.370 . S
C462 C464 1.363 . S
C462 H478 0.931 . S
C463 C462 1.370 . S
C463 C467 1.408 . S
C464 C462 1.363 . S
C464 C465 1.370 . S
C464 C468 1.524 . S
C465 C457 1.503 . S
C465 C464 1.370 . S
C465 C466 1.403 . S
C466 C465 1.403 . S
C466 C467 1.404 . S
C466 C469 1.539 . S
C467 C463 1.408 . S
C467 C466 1.404 . S
C467 H479 0.930 . S
C468 C464 1.524 . S
C468 H480 0.956 . S
C468 H481 0.961 . S
C468 H482 0.961 . S
C469 C466 1.539 . S
C469 H483 0.958 . S
C469 H484 0.961 . S
C469 H485 0.960 . S
H470 C454 0.931 . S
H471 C459 0.929 . S
H472 C460 0.960 . S
H473 C460 0.962 . S
H474 C460 0.960 . S
H475 C461 0.961 . S
H476 C461 0.961 . S
H477 C461 0.961 . S
H478 C462 0.931 . S
H479 C467 0.930 . S
H480 C468 0.956 . S
H481 C468 0.961 . S
H482 C468 0.961 . S
H483 C469 0.958 . S
H484 C469 0.961 . S
H485 C469 0.960 . S
C486 C487 1.391 . S
C486 C488 1.394 . S
C486 H502 0.931 . S
C487 C486 1.391 . S
C487 C491 1.376 . S
C488 C486 1.394 . S
C488 C489 1.369 . S
C488 C492 1.531 . S
C489 C488 1.369 . S
C489 C490 1.410 . S
C489 C497 1.503 . S
C490 C489 1.410 . S
C490 C491 1.392 . S
C490 C493 1.511 . S
C491 C487 1.376 . S
C491 C490 1.392 . S
C491 H503 0.929 . S
C492 C488 1.531 . S
C492 H504 0.960 . S
C492 H505 0.962 . S
C492 H506 0.960 . S
C493 C490 1.511 . S
C493 H507 0.961 . S
C493 H508 0.961 . S
C493 H509 0.961 . S
C494 C495 1.370 . S
C494 C496 1.363 . S
C494 H510 0.931 . S
C495 C494 1.370 . S
C495 C499 1.408 . S
C496 C494 1.363 . S
C496 C497 1.370 . S
C496 C500 1.524 . S
C497 C489 1.503 . S
C497 C496 1.370 . S
C497 C498 1.403 . S
C498 C497 1.403 . S
C498 C499 1.404 . S
C498 C501 1.539 . S
C499 C495 1.408 . S
C499 C498 1.404 . S
C499 H511 0.930 . S
C500 C496 1.524 . S
C500 H512 0.956 . S
C500 H513 0.961 . S
C500 H514 0.961 . S
C501 C498 1.539 . S
C501 H515 0.958 . S
C501 H516 0.961 . S
C501 H517 0.960 . S
H502 C486 0.931 . S
H503 C491 0.929 . S
H504 C492 0.960 . S
H505 C492 0.962 . S
H506 C492 0.960 . S
H507 C493 0.961 . S
H508 C493 0.961 . S
H509 C493 0.961 . S
H510 C494 0.931 . S
H511 C499 0.930 . S
H512 C500 0.956 . S
H513 C500 0.961 . S
H514 C500 0.961 . S
H515 C501 0.958 . S
H516 C501 0.961 . S
H517 C501 0.960 . S
C518 C519 1.391 . S
C518 C520 1.394 . S
C518 H534 0.931 . S
C519 C518 1.391 . S
C519 C523 1.376 . S
C520 C518 1.394 . S
C520 C521 1.369 . S
C520 C524 1.531 . S
C521 C520 1.369 . S
C521 C522 1.410 . S
C521 C529 1.503 . S
C522 C521 1.410 . S
C522 C523 1.392 . S
C522 C525 1.511 . S
C523 C519 1.376 . S
C523 C522 1.392 . S
C523 H535 0.929 . S
C524 C520 1.531 . S
C524 H536 0.960 . S
C524 H537 0.962 . S
C524 H538 0.960 . S
C525 C522 1.511 . S
C525 H539 0.961 . S
C525 H540 0.961 . S
C525 H541 0.961 . S
C526 C527 1.370 . S
C526 C528 1.363 . S
C526 H542 0.931 . S
C527 C526 1.370 . S
C527 C531 1.408 . S
C528 C526 1.363 . S
C528 C529 1.370 . S
C528 C532 1.524 . S
C529 C521 1.503 . S
C529 C528 1.370 . S
C529 C530 1.403 . S
C530 C529 1.403 . S
C530 C531 1.404 . S
C530 C533 1.539 . S
C531 C527 1.408 . S
C531 C530 1.404 . S
C531 H543 0.930 . S
C532 C528 1.524 . S
C532 H544 0.956 . S
C532 H545 0.961 . S
C532 H546 0.961 . S
C533 C530 1.539 . S
C533 H547 0.958 . S
C533 H548 0.961 . S
C533 H549 0.960 . S
H534 C518 0.931 . S
H535 C523 0.929 . S
H536 C524 0.960 . S
H537 C524 0.962 . S
H538 C524 0.960 . S
H539 C525 0.961 . S
H540 C525 0.961 . S
H541 C525 0.961 . S
H542 C526 0.931 . S
H543 C531 0.930 . S
H544 C532 0.956 . S
H545 C532 0.961 . S
H546 C532 0.961 . S
H547 C533 0.958 . S
H548 C533 0.961 . S
H549 C533 0.960 . S
C550 C551 1.391 . S
C550 C552 1.394 . S
C550 H566 0.931 . S
C551 C550 1.391 . S
C551 C555 1.376 . S
C552 C550 1.394 . S
C552 C553 1.369 . S
C552 C556 1.531 1_565 S
C553 C552 1.369 . S
C553 C554 1.410 . S
C553 C561 1.503 . S
C554 C553 1.410 . S
C554 C555 1.392 . S
C554 C557 1.511 . S
C555 C551 1.376 . S
C555 C554 1.392 . S
C555 H567 0.929 . S
C556 C552 1.531 1_545 S
C556 H568 0.960 . S
C556 H569 0.962 1_545 S
C556 H570 0.960 . S
C557 C554 1.511 . S
C557 H571 0.961 . S
C557 H572 0.961 . S
C557 H573 0.961 . S
C558 C559 1.370 . S
C558 C560 1.363 . S
C558 H574 0.931 . S
C559 C558 1.370 . S
C559 C563 1.408 1_565 S
C560 C558 1.363 . S
C560 C561 1.370 . S
C560 C564 1.524 . S
C561 C553 1.503 . S
C561 C560 1.370 . S
C561 C562 1.390 1_565 S
C562 C561 1.390 1_545 S
C562 C563 1.405 . S
C562 C565 1.550 . S
C563 C559 1.408 1_545 S
C563 C562 1.405 . S
C563 H575 0.930 . S
C564 C560 1.524 . S
C564 H576 0.956 . S
C564 H577 0.961 . S
C564 H578 0.961 . S
C565 C562 1.550 . S
C565 H579 0.958 . S
C565 H580 0.961 . S
C565 H581 0.960 . S
H566 C550 0.931 . S
H567 C555 0.929 . S
H568 C556 0.960 . S
H569 C556 0.962 1_565 S
H570 C556 0.960 . S
H571 C557 0.961 . S
H572 C557 0.961 . S
H573 C557 0.961 . S
H574 C558 0.931 . S
H575 C563 0.930 . S
H576 C564 0.956 . S
H577 C564 0.961 . S
H578 C564 0.961 . S
H579 C565 0.958 . S
H580 C565 0.961 . S
H581 C565 0.960 . S
C207 C171 1.377 . S
C199 C138 1.524 . S
C231 C21 1.519 . S
C239 C195 1.335 . S
C263 C60 1.664 . S
C271 C174 1.491 . S
C295 C99 1.652 . S
C303 C192 1.477 . S
C335 C172 1.616 . S
C327 C16 1.612 . S
C367 C194 1.568 . S
C359 C40 1.596 . S
C391 C79 1.601 . S
C399 C173 1.501 . S
C423 C133 1.610 . S
C431 C193 1.524 . S
C463 C191 1.513 . S
C455 C55 1.582 . S
C495 C170 1.588 . S
C487 C94 1.621 . S
C527 C190 1.609 . S
C519 C118 1.595 . S
C551 C1 1.609 . S
C559 C169 1.520 . S
