# Generated by pormake.
# Topology bwt, (3,3)-cn, num edge types: 1
# Building blocks:
#     Node 0, Type 0, BuildingBlock: WUSLED_clean_sbu_0, # of connection points: 3
#     Node 1, Type 0, BuildingBlock: WUSLED_clean_sbu_0, # of connection points: 3
#     Node 2, Type 0, BuildingBlock: WUSLED_clean_sbu_0, # of connection points: 3
#     Node 3, Type 0, BuildingBlock: WUSLED_clean_sbu_0, # of connection points: 3
#     Node 4, Type 0, BuildingBlock: WUSLED_clean_sbu_0, # of connection points: 3
#     Node 5, Type 0, BuildingBlock: WUSLED_clean_sbu_0, # of connection points: 3
#     Node 6, Type 0, BuildingBlock: WUSLED_clean_sbu_0, # of connection points: 3
#     Node 7, Type 0, BuildingBlock: WUSLED_clean_sbu_0, # of connection points: 3
#     Node 8, Type 0, BuildingBlock: WUSLED_clean_sbu_0, # of connection points: 3
#     Node 9, Type 0, BuildingBlock: WUSLED_clean_sbu_0, # of connection points: 3
#     Node 10, Type 0, BuildingBlock: WUSLED_clean_sbu_0, # of connection points: 3
#     Node 11, Type 0, BuildingBlock: WUSLED_clean_sbu_0, # of connection points: 3
#     Node 12, Type 0, BuildingBlock: WUSLED_clean_sbu_0, # of connection points: 3
#     Node 13, Type 0, BuildingBlock: WUSLED_clean_sbu_0, # of connection points: 3
#     Node 14, Type 0, BuildingBlock: WUSLED_clean_sbu_0, # of connection points: 3
#     Node 15, Type 0, BuildingBlock: WUSLED_clean_sbu_0, # of connection points: 3
#     Node 16, Type 0, BuildingBlock: WUSLED_clean_sbu_0, # of connection points: 3
#     Node 17, Type 0, BuildingBlock: WUSLED_clean_sbu_0, # of connection points: 3
#     Node 18, Type 0, BuildingBlock: WUSLED_clean_sbu_0, # of connection points: 3
#     Node 19, Type 0, BuildingBlock: WUSLED_clean_sbu_0, # of connection points: 3
#     Node 20, Type 0, BuildingBlock: WUSLED_clean_sbu_0, # of connection points: 3
#     Node 21, Type 0, BuildingBlock: WUSLED_clean_sbu_0, # of connection points: 3
#     Node 22, Type 0, BuildingBlock: WUSLED_clean_sbu_0, # of connection points: 3
#     Node 23, Type 0, BuildingBlock: WUSLED_clean_sbu_0, # of connection points: 3
#     Node 24, Type 1, BuildingBlock: CUQRIR_clean_linker_1, # of connection points: 3
#     Node 25, Type 1, BuildingBlock: CUQRIR_clean_linker_1, # of connection points: 3
#     Node 26, Type 1, BuildingBlock: CUQRIR_clean_linker_1, # of connection points: 3
#     Node 27, Type 1, BuildingBlock: CUQRIR_clean_linker_1, # of connection points: 3
#     Node 28, Type 1, BuildingBlock: CUQRIR_clean_linker_1, # of connection points: 3
#     Node 29, Type 1, BuildingBlock: CUQRIR_clean_linker_1, # of connection points: 3
#     Node 30, Type 1, BuildingBlock: CUQRIR_clean_linker_1, # of connection points: 3
#     Node 31, Type 1, BuildingBlock: CUQRIR_clean_linker_1, # of connection points: 3
#     Node 32, Type 1, BuildingBlock: CUQRIR_clean_linker_1, # of connection points: 3
#     Node 33, Type 1, BuildingBlock: CUQRIR_clean_linker_1, # of connection points: 3
#     Node 34, Type 1, BuildingBlock: CUQRIR_clean_linker_1, # of connection points: 3
#     Node 35, Type 1, BuildingBlock: CUQRIR_clean_linker_1, # of connection points: 3
#     Node 36, Type 1, BuildingBlock: CUQRIR_clean_linker_1, # of connection points: 3
#     Node 37, Type 1, BuildingBlock: CUQRIR_clean_linker_1, # of connection points: 3
#     Node 38, Type 1, BuildingBlock: CUQRIR_clean_linker_1, # of connection points: 3
#     Node 39, Type 1, BuildingBlock: CUQRIR_clean_linker_1, # of connection points: 3
#     Node 40, Type 1, BuildingBlock: CUQRIR_clean_linker_1, # of connection points: 3
#     Node 41, Type 1, BuildingBlock: CUQRIR_clean_linker_1, # of connection points: 3
#     Node 42, Type 1, BuildingBlock: CUQRIR_clean_linker_1, # of connection points: 3
#     Node 43, Type 1, BuildingBlock: CUQRIR_clean_linker_1, # of connection points: 3
#     Node 44, Type 1, BuildingBlock: CUQRIR_clean_linker_1, # of connection points: 3
#     Node 45, Type 1, BuildingBlock: CUQRIR_clean_linker_1, # of connection points: 3
#     Node 46, Type 1, BuildingBlock: CUQRIR_clean_linker_1, # of connection points: 3
#     Node 47, Type 1, BuildingBlock: CUQRIR_clean_linker_1, # of connection points: 3
#     Edge 48, Type (0, 1), BuildingBlock: XIVTED_clean_linker_0, # of connection points: 2
#     Edge 49, Type (0, 1), BuildingBlock: XIVTED_clean_linker_0, # of connection points: 2
#     Edge 50, Type (0, 1), BuildingBlock: XIVTED_clean_linker_0, # of connection points: 2
#     Edge 51, Type (0, 1), BuildingBlock: XIVTED_clean_linker_0, # of connection points: 2
#     Edge 52, Type (0, 1), BuildingBlock: XIVTED_clean_linker_0, # of connection points: 2
#     Edge 53, Type (0, 1), BuildingBlock: XIVTED_clean_linker_0, # of connection points: 2
#     Edge 54, Type (0, 1), BuildingBlock: XIVTED_clean_linker_0, # of connection points: 2
#     Edge 55, Type (0, 1), BuildingBlock: XIVTED_clean_linker_0, # of connection points: 2
#     Edge 56, Type (0, 1), BuildingBlock: XIVTED_clean_linker_0, # of connection points: 2
#     Edge 57, Type (0, 1), BuildingBlock: XIVTED_clean_linker_0, # of connection points: 2
#     Edge 58, Type (0, 1), BuildingBlock: XIVTED_clean_linker_0, # of connection points: 2
#     Edge 59, Type (0, 1), BuildingBlock: XIVTED_clean_linker_0, # of connection points: 2
#     Edge 60, Type (0, 1), BuildingBlock: XIVTED_clean_linker_0, # of connection points: 2
#     Edge 61, Type (0, 1), BuildingBlock: XIVTED_clean_linker_0, # of connection points: 2
#     Edge 62, Type (0, 1), BuildingBlock: XIVTED_clean_linker_0, # of connection points: 2
#     Edge 63, Type (0, 1), BuildingBlock: XIVTED_clean_linker_0, # of connection points: 2
#     Edge 64, Type (0, 1), BuildingBlock: XIVTED_clean_linker_0, # of connection points: 2
#     Edge 65, Type (0, 1), BuildingBlock: XIVTED_clean_linker_0, # of connection points: 2
#     Edge 66, Type (0, 1), BuildingBlock: XIVTED_clean_linker_0, # of connection points: 2
#     Edge 67, Type (0, 1), BuildingBlock: XIVTED_clean_linker_0, # of connection points: 2
#     Edge 68, Type (0, 1), BuildingBlock: XIVTED_clean_linker_0, # of connection points: 2
#     Edge 69, Type (0, 1), BuildingBlock: XIVTED_clean_linker_0, # of connection points: 2
#     Edge 70, Type (0, 1), BuildingBlock: XIVTED_clean_linker_0, # of connection points: 2
#     Edge 71, Type (0, 1), BuildingBlock: XIVTED_clean_linker_0, # of connection points: 2
#     Edge 72, Type (0, 1), BuildingBlock: XIVTED_clean_linker_0, # of connection points: 2
#     Edge 73, Type (0, 1), BuildingBlock: XIVTED_clean_linker_0, # of connection points: 2
#     Edge 74, Type (0, 1), BuildingBlock: XIVTED_clean_linker_0, # of connection points: 2
#     Edge 75, Type (0, 1), BuildingBlock: XIVTED_clean_linker_0, # of connection points: 2
#     Edge 76, Type (0, 1), BuildingBlock: XIVTED_clean_linker_0, # of connection points: 2
#     Edge 77, Type (0, 1), BuildingBlock: XIVTED_clean_linker_0, # of connection points: 2
#     Edge 78, Type (0, 1), BuildingBlock: XIVTED_clean_linker_0, # of connection points: 2
#     Edge 79, Type (0, 1), BuildingBlock: XIVTED_clean_linker_0, # of connection points: 2
#     Edge 80, Type (0, 1), BuildingBlock: XIVTED_clean_linker_0, # of connection points: 2
#     Edge 81, Type (0, 1), BuildingBlock: XIVTED_clean_linker_0, # of connection points: 2
#     Edge 82, Type (0, 1), BuildingBlock: XIVTED_clean_linker_0, # of connection points: 2
#     Edge 83, Type (0, 1), BuildingBlock: XIVTED_clean_linker_0, # of connection points: 2
#     Edge 84, Type (0, 1), BuildingBlock: XIVTED_clean_linker_0, # of connection points: 2
#     Edge 85, Type (0, 1), BuildingBlock: XIVTED_clean_linker_0, # of connection points: 2
#     Edge 86, Type (0, 1), BuildingBlock: XIVTED_clean_linker_0, # of connection points: 2
#     Edge 87, Type (0, 1), BuildingBlock: XIVTED_clean_linker_0, # of connection points: 2
#     Edge 88, Type (0, 1), BuildingBlock: XIVTED_clean_linker_0, # of connection points: 2
#     Edge 89, Type (0, 1), BuildingBlock: XIVTED_clean_linker_0, # of connection points: 2
#     Edge 90, Type (0, 1), BuildingBlock: XIVTED_clean_linker_0, # of connection points: 2
#     Edge 91, Type (0, 1), BuildingBlock: XIVTED_clean_linker_0, # of connection points: 2
#     Edge 92, Type (0, 1), BuildingBlock: XIVTED_clean_linker_0, # of connection points: 2
#     Edge 93, Type (0, 1), BuildingBlock: XIVTED_clean_linker_0, # of connection points: 2
#     Edge 94, Type (0, 1), BuildingBlock: XIVTED_clean_linker_0, # of connection points: 2
#     Edge 95, Type (0, 1), BuildingBlock: XIVTED_clean_linker_0, # of connection points: 2
#     Edge 96, Type (0, 1), BuildingBlock: XIVTED_clean_linker_0, # of connection points: 2
#     Edge 97, Type (0, 1), BuildingBlock: XIVTED_clean_linker_0, # of connection points: 2
#     Edge 98, Type (0, 1), BuildingBlock: XIVTED_clean_linker_0, # of connection points: 2
#     Edge 99, Type (0, 1), BuildingBlock: XIVTED_clean_linker_0, # of connection points: 2
#     Edge 100, Type (0, 1), BuildingBlock: XIVTED_clean_linker_0, # of connection points: 2
#     Edge 101, Type (0, 1), BuildingBlock: XIVTED_clean_linker_0, # of connection points: 2
#     Edge 102, Type (0, 1), BuildingBlock: XIVTED_clean_linker_0, # of connection points: 2
#     Edge 103, Type (0, 1), BuildingBlock: XIVTED_clean_linker_0, # of connection points: 2
#     Edge 104, Type (0, 1), BuildingBlock: XIVTED_clean_linker_0, # of connection points: 2
#     Edge 105, Type (0, 1), BuildingBlock: XIVTED_clean_linker_0, # of connection points: 2
#     Edge 106, Type (0, 1), BuildingBlock: XIVTED_clean_linker_0, # of connection points: 2
#     Edge 107, Type (0, 1), BuildingBlock: XIVTED_clean_linker_0, # of connection points: 2
#     Edge 108, Type (0, 1), BuildingBlock: XIVTED_clean_linker_0, # of connection points: 2
#     Edge 109, Type (0, 1), BuildingBlock: XIVTED_clean_linker_0, # of connection points: 2
#     Edge 110, Type (0, 1), BuildingBlock: XIVTED_clean_linker_0, # of connection points: 2
#     Edge 111, Type (0, 1), BuildingBlock: XIVTED_clean_linker_0, # of connection points: 2
#     Edge 112, Type (0, 1), BuildingBlock: XIVTED_clean_linker_0, # of connection points: 2
#     Edge 113, Type (0, 1), BuildingBlock: XIVTED_clean_linker_0, # of connection points: 2
#     Edge 114, Type (0, 1), BuildingBlock: XIVTED_clean_linker_0, # of connection points: 2
#     Edge 115, Type (0, 1), BuildingBlock: XIVTED_clean_linker_0, # of connection points: 2
#     Edge 116, Type (0, 1), BuildingBlock: XIVTED_clean_linker_0, # of connection points: 2
#     Edge 117, Type (0, 1), BuildingBlock: XIVTED_clean_linker_0, # of connection points: 2
#     Edge 118, Type (0, 1), BuildingBlock: XIVTED_clean_linker_0, # of connection points: 2
#     Edge 119, Type (0, 1), BuildingBlock: XIVTED_clean_linker_0, # of connection points: 2
# Relax obj value: 0.125
# Max RMSD: 0.182
# Mean RMSD: 0.087
data_MOF--net-bwt--node1-WUSLED_clean_sbu_0--node2-CUQRIR_clean_linker_1--edge1-XIVTED_clean_linker_0
_symmetry_space_group_name_H-M    P1
_symmetry_Int_Tables_number       1
_symmetry_cell_setting            triclinic
loop_
_symmetry_equiv_pos_as_xyz
'x, y, z'
_cell_length_a     63.982536
_cell_length_b     63.970983
_cell_length_c     63.930772
_cell_angle_alpha  96.329913
_cell_angle_beta   96.384417
_cell_angle_gamma 96.340105
loop_
_atom_site_label
_atom_site_type_symbol
_atom_site_fract_x
_atom_site_fract_y
_atom_site_fract_z
_atom_type_partial_charge
C0 C 0.32188 0.66493 0.36408 0.0
C1 C 0.33592 0.65564 0.37761 0.0
C2 C 0.36382 0.66192 0.35516 0.0
C3 C 0.35662 0.65408 0.37318 0.0
C4 C 0.34973 0.67167 0.34191 0.0
C5 C 0.32895 0.67315 0.34634 0.0
U6 U 0.28071 0.65426 0.40028 0.0
O7 O 0.25447 0.67142 0.40965 0.0
O8 O 0.248 0.63843 0.39448 0.0
C9 C 0.23999 0.65546 0.40175 0.0
C10 C 0.29976 0.66533 0.36822 0.0
C11 C 0.22103 0.66063 0.38898 0.0
C12 C 0.19853 0.65912 0.35541 0.0
C13 C 0.21768 0.65585 0.36679 0.0
C14 C 0.18622 0.67256 0.38817 0.0
C15 C 0.18247 0.66729 0.36601 0.0
C16 C 0.20528 0.66923 0.3995 0.0
C17 C 0.30109 0.63328 0.45221 0.0
C18 C 0.28547 0.60786 0.47351 0.0
C19 C 0.31437 0.63444 0.48943 0.0
C20 C 0.3151 0.64246 0.47007 0.0
C21 C 0.30002 0.61667 0.49127 0.0
C22 C 0.28595 0.61614 0.45414 0.0
C23 C 0.30366 0.64109 0.43166 0.0
O24 O 0.2891 0.64653 0.36816 0.0
O25 O 0.29694 0.67899 0.38428 0.0
O26 O 0.30153 0.66117 0.43069 0.0
O27 O 0.29489 0.62859 0.41449 0.0
H28 H 0.33072 0.64922 0.39142 0.0
H29 H 0.36673 0.64616 0.38361 0.0
H30 H 0.35476 0.67834 0.32817 0.0
H31 H 0.31837 0.68055 0.33583 0.0
H32 H 0.19627 0.65515 0.33834 0.0
H33 H 0.22966 0.64924 0.35831 0.0
H34 H 0.17414 0.67859 0.39691 0.0
H35 H 0.20751 0.6729 0.41662 0.0
H36 H 0.27426 0.59409 0.47432 0.0
H37 H 0.32528 0.64194 0.50293 0.0
H38 H 0.327 0.65555 0.46891 0.0
H39 H 0.2749 0.60874 0.4406 0.0
C40 C 0.20657 0.34057 0.79099 0.0
C41 C 0.19348 0.35508 0.79869 0.0
C42 C 0.16208 0.33226 0.78086 0.0
C43 C 0.17148 0.35103 0.7936 0.0
C44 C 0.17531 0.31744 0.77378 0.0
C45 C 0.19735 0.32161 0.77875 0.0
U46 U 0.25535 0.37103 0.82417 0.0
O47 O 0.28728 0.3625 0.83314 0.0
O48 O 0.28323 0.38915 0.81477 0.0
C49 C 0.29647 0.37717 0.82314 0.0
C50 C 0.22979 0.34548 0.79506 0.0
C51 C 0.31258 0.37072 0.80993 0.0
C52 C 0.32296 0.3533 0.77761 0.0
C53 C 0.30717 0.35793 0.79036 0.0
C54 C 0.34953 0.37398 0.80406 0.0
C55 C 0.34434 0.36142 0.78426 0.0
C56 C 0.33382 0.37854 0.81673 0.0
C57 C 0.24909 0.4091 0.87208 0.0
C58 C 0.2773 0.43709 0.88686 0.0
C59 C 0.24604 0.43128 0.90471 0.0
C60 C 0.23776 0.41447 0.88902 0.0
C61 C 0.26568 0.44305 0.9035 0.0
C62 C 0.26911 0.42021 0.87134 0.0
C63 C 0.23964 0.39266 0.85469 0.0
O64 O 0.23717 0.3649 0.79248 0.0
O65 O 0.23888 0.33908 0.81231 0.0
O66 O 0.24517 0.37363 0.8561 0.0
O67 O 0.24007 0.39841 0.83562 0.0
H68 H 0.2003 0.3698 0.80827 0.0
H69 H 0.16192 0.36296 0.79913 0.0
H70 H 0.16865 0.30265 0.76428 0.0
H71 H 0.20721 0.31015 0.7728 0.0
H72 H 0.31842 0.34344 0.76255 0.0
H73 H 0.29078 0.3518 0.78487 0.0
H74 H 0.3657 0.38088 0.80955 0.0
H75 H 0.33824 0.38857 0.83172 0.0
H76 H 0.2926 0.44569 0.8857 0.0
H77 H 0.23673 0.43559 0.9173 0.0
H78 H 0.2223 0.406 0.88984 0.0
H79 H 0.27819 0.41614 0.85847 0.0
C80 C 0.68441 0.98616 0.62963 0.0
C81 C 0.69908 0.9774 0.6176 0.0
C82 C 0.7253 0.98194 0.64892 0.0
C83 C 0.71929 0.97521 0.62717 0.0
C84 C 0.71052 0.99084 0.66088 0.0
C85 C 0.69023 0.99289 0.65129 0.0
U86 U 0.64767 0.98699 0.57962 0.0
O87 O 0.61504 0.97232 0.56907 0.0
O88 O 0.62267 0.00693 0.57181 0.0
C89 C 0.60769 0.9907 0.56874 0.0
C90 C 0.66321 0.98848 0.6195 0.0
C91 C 0.58907 0.99342 0.57992 0.0
C92 C 0.56499 0.98226 0.60449 0.0
C93 C 0.58271 0.97943 0.59412 0.0
C94 C 0.55976 0.01324 0.58681 0.0
C95 C 0.55339 0.99929 0.60109 0.0
C96 C 0.5774 0.01026 0.57627 0.0
C97 C 0.66796 0.97868 0.52634 0.0
C98 C 0.652 0.95866 0.49272 0.0
C99 C 0.67303 0.99265 0.49319 0.0
C100 C 0.67667 0.99463 0.5153 0.0
C101 C 0.66083 0.97456 0.48171 0.0
C102 C 0.65545 0.96072 0.51482 0.0
C103 C 0.67192 0.98102 0.54973 0.0
O104 O 0.66205 0.00552 0.60987 0.0
O105 O 0.653 0.9712 0.60821 0.0
O106 O 0.6631 0.96548 0.55891 0.0
O107 O 0.67039 0.99991 0.55945 0.0
H108 H 0.69485 0.97218 0.6008 0.0
H109 H 0.73011 0.96804 0.61753 0.0
H110 H 0.71472 0.9965 0.67757 0.0
H111 H 0.67913 0.99984 0.66075 0.0
H112 H 0.56031 0.97098 0.61506 0.0
H113 H 0.59137 0.96625 0.59724 0.0
H114 H 0.55137 0.02666 0.58402 0.0
H115 H 0.58203 0.02123 0.56536 0.0
H116 H 0.6425 0.94459 0.4842 0.0
H117 H 0.6803 0.00498 0.48503 0.0
H118 H 0.68643 0.00857 0.52377 0.0
H119 H 0.64839 0.94815 0.52281 0.0
C120 C 0.8086 0.00544 0.2788 0.0
C121 C 0.791 0.99657 0.26415 0.0
C122 C 0.76797 0.99912 0.29184 0.0
C123 C 0.77085 0.99349 0.27063 0.0
C124 C 0.78551 0.0088 0.30627 0.0
C125 C 0.8057 0.0118 0.29982 0.0
U126 U 0.84135 0.00394 0.23396 0.0
O127 O 0.87031 0.02292 0.22775 0.0
O128 O 0.86964 0.98856 0.22828 0.0
C129 C 0.88119 0.00661 0.22704 0.0
C130 C 0.82989 0.00772 0.27209 0.0
C131 C 0.90292 0.0098 0.23858 0.0
C132 C 0.93415 0.03317 0.2559 0.0
C133 C 0.91268 0.03005 0.24766 0.0
C134 C 0.93635 0.9958 0.24675 0.0
C135 C 0.94633 0.01614 0.25519 0.0
C136 C 0.91494 0.9927 0.23847 0.0
C137 C 0.80911 0.99182 0.17855 0.0
C138 C 0.815 0.97046 0.14639 0.0
C139 C 0.79047 0.99666 0.14458 0.0
C140 C 0.79494 0.00233 0.16647 0.0
C141 C 0.79992 0.98018 0.13437 0.0
C142 C 0.8196 0.97627 0.16828 0.0
C143 C 0.81122 0.99608 0.20184 0.0
O144 O 0.83551 0.9901 0.26302 0.0
O145 O 0.83426 0.02411 0.26187 0.0
O146 O 0.81911 0.01541 0.21023 0.0
O147 O 0.81835 0.98129 0.21241 0.0
H148 H 0.79291 0.99178 0.24775 0.0
H149 H 0.75756 0.98627 0.25917 0.0
H150 H 0.78369 0.01422 0.32253 0.0
H151 H 0.81904 0.01898 0.31125 0.0
H152 H 0.94132 0.04899 0.26248 0.0
H153 H 0.90395 0.04362 0.24789 0.0
H154 H 0.9453 0.9824 0.24565 0.0
H155 H 0.90798 0.97699 0.23128 0.0
H156 H 0.82245 0.9576 0.13912 0.0
H157 H 0.77911 0.00477 0.13575 0.0
H158 H 0.78678 0.01445 0.17409 0.0
H159 H 0.83073 0.968 0.17722 0.0
C160 C 0.36146 0.32754 0.66691 0.0
C161 C 0.3735 0.34183 0.65646 0.0
C162 C 0.35076 0.36914 0.66463 0.0
C163 C 0.3682 0.36234 0.65529 0.0
C164 C 0.33892 0.35477 0.67535 0.0
C165 C 0.34422 0.33417 0.67645 0.0
U166 U 0.39999 0.28796 0.65744 0.0
O167 O 0.40977 0.2618 0.67446 0.0
O168 O 0.39539 0.25525 0.64121 0.0
C169 C 0.40269 0.24728 0.65825 0.0
C170 C 0.36678 0.30572 0.66753 0.0
C171 C 0.39094 0.22718 0.66255 0.0
C172 C 0.37411 0.20489 0.68614 0.0
C173 C 0.38312 0.22484 0.68199 0.0
C174 C 0.3802 0.1895 0.65139 0.0
C175 C 0.37288 0.18687 0.67101 0.0
C176 C 0.38914 0.20935 0.64727 0.0
C177 C 0.45092 0.31193 0.63622 0.0
C178 C 0.48199 0.29481 0.62924 0.0
C179 C 0.47714 0.32845 0.61651 0.0
C180 C 0.45824 0.32865 0.62549 0.0
C181 C 0.48932 0.31156 0.61824 0.0
C182 C 0.46289 0.29497 0.63812 0.0
C183 C 0.43048 0.31259 0.64464 0.0
O184 O 0.36754 0.29511 0.64888 0.0
O185 O 0.38281 0.30359 0.68158 0.0
O186 O 0.42996 0.30944 0.66456 0.0
O187 O 0.41378 0.30303 0.63198 0.0
H188 H 0.38694 0.33705 0.64905 0.0
H189 H 0.37758 0.37271 0.64665 0.0
H190 H 0.32562 0.35944 0.68304 0.0
H191 H 0.3348 0.32341 0.68469 0.0
H192 H 0.36874 0.20347 0.70146 0.0
H193 H 0.38437 0.23827 0.69415 0.0
H194 H 0.37916 0.17614 0.63918 0.0
H195 H 0.3951 0.21067 0.63219 0.0
H196 H 0.49105 0.28167 0.63112 0.0
H197 H 0.48197 0.34144 0.60789 0.0
H198 H 0.44916 0.34184 0.6238 0.0
H199 H 0.45745 0.28189 0.64637 0.0
C200 C 0.30448 0.81415 0.03629 0.0
C201 C 0.28904 0.79929 0.02405 0.0
C202 C 0.31315 0.77251 0.02363 0.0
C203 C 0.29342 0.77913 0.01744 0.0
C204 C 0.32844 0.78697 0.03711 0.0
C205 C 0.32421 0.80785 0.04321 0.0
U206 U 0.26101 0.84674 0.03379 0.0
O207 O 0.25364 0.87695 0.05005 0.0
O208 O 0.25378 0.87242 0.01545 0.0
C209 C 0.25184 0.88556 0.03223 0.0
C210 C 0.29939 0.83611 0.0399 0.0
C211 C 0.26117 0.90783 0.03243 0.0
C212 C 0.26304 0.94473 0.04749 0.0
C213 C 0.25878 0.9231 0.04924 0.0
C214 C 0.27311 0.93619 0.01247 0.0
C215 C 0.26951 0.95154 0.02874 0.0
C216 C 0.26903 0.91463 0.01429 0.0
C217 C 0.20762 0.81049 0.01778 0.0
C218 C 0.17591 0.81793 0.9967 0.0
C219 C 0.1766 0.78416 0.01045 0.0
C220 C 0.19726 0.79063 0.02021 0.0
C221 C 0.16596 0.79744 0.99798 0.0
C222 C 0.19665 0.8244 0.0065 0.0
C223 C 0.23051 0.81495 0.02465 0.0
O224 O 0.29173 0.84309 0.0224 0.0
O225 O 0.28814 0.84004 0.05558 0.0
O226 O 0.23659 0.82426 0.04409 0.0
O227 O 0.24188 0.82236 0.0106 0.0
H228 H 0.27373 0.80361 0.01852 0.0
H229 H 0.28133 0.76926 0.00658 0.0
H230 H 0.34392 0.78254 0.04199 0.0
H231 H 0.3364 0.8191 0.05276 0.0
H232 H 0.26049 0.9561 0.06051 0.0
H233 H 0.25257 0.91835 0.06332 0.0
H234 H 0.27781 0.94072 0.99768 0.0
H235 H 0.27088 0.90336 1.00089 0.0
H236 H 0.16815 0.82848 0.98714 0.0
H237 H 0.16922 0.76843 0.01204 0.0
H238 H 0.2055 0.77969 0.02885 0.0
H239 H 0.20446 0.83981 0.00441 0.0
C240 C 0.77888 0.20359 0.33532 0.0
C241 C 0.79416 0.18973 0.33849 0.0
C242 C 0.76721 0.15928 0.32754 0.0
C243 C 0.7884 0.16779 0.33453 0.0
C244 C 0.75204 0.17332 0.32417 0.0
C245 C 0.75784 0.19526 0.32802 0.0
U246 U 0.81531 0.25003 0.36626 0.0
O247 O 0.82632 0.28165 0.35796 0.0
O248 O 0.80829 0.27864 0.38504 0.0
C249 C 0.81697 0.29145 0.37281 0.0
C250 C 0.78443 0.22662 0.34089 0.0
C251 C 0.8047 0.30848 0.36662 0.0
C252 C 0.77144 0.32353 0.36181 0.0
C253 C 0.78245 0.30613 0.36481 0.0
C254 C 0.80469 0.34548 0.36125 0.0
C255 C 0.78249 0.34356 0.36056 0.0
C256 C 0.81566 0.32813 0.36431 0.0
C257 C 0.86242 0.2392 0.40328 0.0
C258 C 0.88407 0.26817 0.42626 0.0
C259 C 0.88809 0.23183 0.4316 0.0
C260 C 0.87253 0.22467 0.41438 0.0
C261 C 0.89373 0.25367 0.43802 0.0
C262 C 0.8685 0.26099 0.40909 0.0
C263 C 0.84436 0.23156 0.38699 0.0
O264 O 0.78275 0.23364 0.36066 0.0
O265 O 0.80188 0.23493 0.33428 0.0
O266 O 0.84599 0.23728 0.36804 0.0
O267 O 0.82578 0.2337 0.39328 0.0
H268 H 0.81048 0.19588 0.34429 0.0
H269 H 0.80057 0.15752 0.33702 0.0
H270 H 0.73552 0.1674 0.31915 0.0
H271 H 0.7458 0.20573 0.32571 0.0
H272 H 0.75437 0.3215 0.36146 0.0
H273 H 0.77364 0.29107 0.36647 0.0
H274 H 0.81366 0.36055 0.35993 0.0
H275 H 0.83281 0.33026 0.36557 0.0
H276 H 0.88827 0.28509 0.43057 0.0
H277 H 0.89501 0.22024 0.44041 0.0
H278 H 0.86789 0.20779 0.41018 0.0
H279 H 0.86078 0.27243 0.4007 0.0
C280 C 0.63096 0.67378 0.96896 0.0
C281 C 0.62569 0.68806 0.95461 0.0
C282 C 0.65573 0.71338 0.97103 0.0
C283 C 0.63806 0.70761 0.95554 0.0
C284 C 0.66119 0.69891 0.98514 0.0
C285 C 0.64892 0.67923 0.98406 0.0
U286 U 0.57535 0.64637 0.96486 0.0
O287 O 0.56002 0.61498 0.95013 0.0
O288 O 0.56092 0.62385 0.98441 0.0
C289 C 0.55683 0.60854 0.96849 0.0
C290 C 0.61674 0.6542 0.96961 0.0
C291 C 0.56539 0.58876 0.97239 0.0
C292 C 0.59477 0.56778 0.97333 0.0
C293 C 0.5867 0.58677 0.97032 0.0
C294 C 0.56049 0.55274 0.98121 0.0
C295 C 0.58172 0.55051 0.97864 0.0
C296 C 0.55236 0.57174 0.97801 0.0
C297 C 0.53149 0.68171 0.95384 0.0
C298 C 0.49376 0.66946 0.9485 0.0
C299 C 0.50606 0.70712 0.95404 0.0
C300 C 0.527 0.70271 0.95549 0.0
C301 C 0.48923 0.69056 0.95089 0.0
C302 C 0.5148 0.66505 0.95007 0.0
C303 C 0.55367 0.67774 0.95702 0.0
O304 O 0.60558 0.65479 0.98567 0.0
O305 O 0.60555 0.64584 0.95152 0.0
O306 O 0.55991 0.66495 0.94206 0.0
O307 O 0.56062 0.6742 0.97628 0.0
H308 H 0.61167 0.68439 0.94305 0.0
H309 H 0.63328 0.71856 0.94468 0.0
H310 H 0.6748 0.70292 0.99717 0.0
H311 H 0.65312 0.66851 0.99539 0.0
H312 H 0.61127 0.56662 0.97158 0.0
H313 H 0.59705 0.59987 0.96621 0.0
H314 H 0.55007 0.53965 0.98522 0.0
H315 H 0.53589 0.57307 0.97974 0.0
H316 H 0.4811 0.6564 0.94634 0.0
H317 H 0.50303 0.72351 0.95579 0.0
H318 H 0.53973 0.71573 0.95838 0.0
H319 H 0.51804 0.64872 0.94885 0.0
C320 C 0.66914 0.3646 0.32591 0.0
C321 C 0.66825 0.3811 0.34208 0.0
C322 C 0.66584 0.35596 0.36813 0.0
C323 C 0.66688 0.37688 0.36296 0.0
C324 C 0.66676 0.33948 0.35178 0.0
C325 C 0.66847 0.34378 0.33095 0.0
U326 U 0.65855 0.40048 0.28383 0.0
O327 O 0.6767 0.41103 0.2587 0.0
O328 O 0.64446 0.39432 0.25039 0.0
C329 C 0.66137 0.40339 0.24345 0.0
C330 C 0.6698 0.36891 0.30371 0.0
C331 C 0.66747 0.39313 0.22361 0.0
C332 C 0.67777 0.36314 0.202 0.0
C333 C 0.67324 0.37255 0.22164 0.0
C334 C 0.67109 0.3949 0.18633 0.0
C335 C 0.67654 0.37413 0.18399 0.0
C336 C 0.66665 0.40425 0.20589 0.0
C337 C 0.63469 0.45124 0.30289 0.0
C338 C 0.60712 0.47101 0.28855 0.0
C339 C 0.63528 0.48866 0.3151 0.0
C340 C 0.64427 0.46978 0.31568 0.0
C341 C 0.61625 0.48933 0.30208 0.0
C342 C 0.61625 0.45211 0.28893 0.0
C343 C 0.6432 0.43104 0.30583 0.0
O344 O 0.65119 0.36829 0.29247 0.0
O345 O 0.68325 0.3852 0.30099 0.0
O346 O 0.66357 0.43085 0.30473 0.0
O347 O 0.63158 0.41353 0.29661 0.0
H348 H 0.66845 0.39727 0.33851 0.0
H349 H 0.66658 0.39008 0.37501 0.0
H350 H 0.66561 0.32313 0.35488 0.0
H351 H 0.66889 0.33078 0.31868 0.0
H352 H 0.68217 0.34723 0.20093 0.0
H353 H 0.67399 0.36371 0.23516 0.0
H354 H 0.66957 0.40379 0.17289 0.0
H355 H 0.66213 0.42014 0.20708 0.0
H356 H 0.59242 0.47102 0.27835 0.0
H357 H 0.64298 0.50269 0.32514 0.0
H358 H 0.65839 0.46951 0.32661 0.0
H359 H 0.60848 0.43808 0.27882 0.0
C360 C 1.00027 0.2792 0.81533 0.0
C361 C 0.98933 0.2673 0.79679 0.0
C362 C 0.99724 0.29661 0.77662 0.0
C363 C 0.9877 0.27597 0.77767 0.0
C364 C 0.00834 0.30845 0.79521 0.0
C365 C 0.00983 0.2998 0.81443 0.0
U366 U 0.99972 0.22965 0.84073 0.0
O367 O 0.01796 0.22018 0.86862 0.0
O368 O 0.98322 0.21813 0.86639 0.0
C369 C 0.00095 0.21592 0.87797 0.0
C370 C 0.00216 0.2697 0.83528 0.0
C371 C 0.00234 0.22359 0.90065 0.0
C372 C 0.01294 0.25041 0.93113 0.0
C373 C 0.01184 0.24401 0.90929 0.0
C374 C 0.99484 0.21617 0.93561 0.0
C375 C 0.00456 0.23646 0.94456 0.0
C376 C 0.99381 0.20982 0.91393 0.0
C377 C 0.99087 0.17868 0.80251 0.0
C378 C 0.98421 0.1443 0.81484 0.0
C379 C 0.98298 0.14695 0.77718 0.0
C380 C 0.988 0.1689 0.78155 0.0
C381 C 0.98073 0.13441 0.79375 0.0
C382 C 0.98925 0.16629 0.81918 0.0
C383 C 0.99423 0.20184 0.80666 0.0
O384 O 0.98465 0.25875 0.8391 0.0
O385 O 0.01903 0.25994 0.8387 0.0
O386 O 0.01304 0.2102 0.81616 0.0
O387 O 0.97863 0.21042 0.81456 0.0
H388 H 0.98198 0.25127 0.7971 0.0
H389 H 0.97874 0.26657 0.76377 0.0
H390 H 0.01601 0.32434 0.79493 0.0
H391 H 0.01851 0.30913 0.82852 0.0
H392 H 0.02057 0.26612 0.93752 0.0
H393 H 0.01843 0.2549 0.89921 0.0
H394 H 0.98774 0.20519 0.94531 0.0
H395 H 0.98628 0.19406 0.90749 0.0
H396 H 0.98279 0.13507 0.82794 0.0
H397 H 0.98006 0.13991 0.76077 0.0
H398 H 0.98908 0.1783 0.76853 0.0
H399 H 0.99143 0.17369 0.83549 0.0
C400 C 0.31503 0.76507 0.18748 0.0
C401 C 0.3022 0.77798 0.17664 0.0
C402 C 0.29773 0.75266 0.14439 0.0
C403 C 0.29371 0.77187 0.15533 0.0
C404 C 0.31074 0.73996 0.15529 0.0
C405 C 0.31912 0.746 0.17651 0.0
U406 U 0.35278 0.7969 0.23474 0.0
O407 O 0.34682 0.80725 0.26747 0.0
O408 O 0.37029 0.78535 0.26175 0.0
C409 C 0.36028 0.79543 0.27583 0.0
C410 C 0.32326 0.77037 0.2104 0.0
C411 C 0.35383 0.78373 0.29323 0.0
C412 C 0.34649 0.7508 0.30842 0.0
C413 C 0.34942 0.76152 0.29076 0.0
C414 C 0.35146 0.78435 0.33102 0.0
C415 C 0.34792 0.76206 0.32887 0.0
C416 C 0.35439 0.79501 0.31341 0.0
C417 C 0.39482 0.84122 0.22642 0.0
C418 C 0.41734 0.86261 0.25602 0.0
C419 C 0.42564 0.86441 0.22016 0.0
C420 C 0.40788 0.84968 0.21244 0.0
C421 C 0.43069 0.87102 0.24208 0.0
C422 C 0.39963 0.8478 0.24827 0.0
C423 C 0.37676 0.82501 0.21806 0.0
O424 O 0.34244 0.76575 0.21608 0.0
O425 O 0.31958 0.78859 0.22011 0.0
O426 O 0.3584 0.82848 0.22428 0.0
O427 O 0.38061 0.80532 0.2186 0.0
H428 H 0.29852 0.79269 0.18464 0.0
H429 H 0.2837 0.78203 0.14756 0.0
H430 H 0.31468 0.72532 0.14738 0.0
H431 H 0.32878 0.73561 0.1844 0.0
H432 H 0.34347 0.73366 0.30609 0.0
H433 H 0.34888 0.75243 0.27534 0.0
H434 H 0.35298 0.7936 0.34647 0.0
H435 H 0.35795 0.81213 0.31572 0.0
H436 H 0.42052 0.86751 0.27294 0.0
H437 H 0.43568 0.87021 0.20895 0.0
H438 H 0.40451 0.84466 0.19553 0.0
H439 H 0.38976 0.84138 0.25933 0.0
C440 C 0.98618 0.63588 0.6834 0.0
C441 C 0.97925 0.62431 0.69927 0.0
C442 C 0.98729 0.65594 0.7251 0.0
C443 C 0.97972 0.63427 0.71992 0.0
C444 C 0.9941 0.66746 0.70904 0.0
C445 C 0.99354 0.65749 0.68836 0.0
U446 U 0.98344 0.58546 0.64581 0.0
O447 O 0.96745 0.57662 0.61319 0.0
O448 O 0.00191 0.5769 0.61995 0.0
C449 C 0.98546 0.57533 0.60533 0.0
C450 C 0.98637 0.62534 0.66185 0.0
C451 C 0.98859 0.58755 0.58756 0.0
C452 C 0.00377 0.619 0.57397 0.0
C453 C 1.00014 0.60785 0.59105 0.0
C454 C 0.98364 0.59005 0.54977 0.0
C455 C 0.99569 0.61014 0.55316 0.0
C456 C 0.9802 0.5788 0.56687 0.0
C457 C 0.97808 0.53211 0.66744 0.0
C458 C 0.95846 0.49724 0.65556 0.0
C459 C 0.99436 0.50028 0.67322 0.0
C460 C 0.99545 0.52234 0.67525 0.0
C461 C 0.97577 0.48752 0.66358 0.0
C462 C 0.9596 0.51933 0.65743 0.0
C463 C 0.97938 0.5555 0.67039 0.0
O464 O 0.00299 0.61543 0.65917 0.0
O465 O 0.9684 0.6142 0.65314 0.0
O466 O 0.96315 0.56384 0.66168 0.0
O467 O 0.99779 0.56576 0.66811 0.0
H468 H 0.97359 0.60756 0.6957 0.0
H469 H 0.97409 0.62498 0.7318 0.0
H470 H 1.00033 0.68407 0.71253 0.0
H471 H 0.99908 0.66659 0.67629 0.0
H472 H 0.01285 0.63458 0.57703 0.0
H473 H 0.00652 0.61499 0.60696 0.0
H474 H 0.97733 0.58284 0.53387 0.0
H475 H 0.97117 0.56317 0.56394 0.0
H476 H 0.94396 0.48776 0.648 0.0
H477 H 0.00781 0.49323 0.6799 0.0
H478 H 0.00981 0.53177 0.68321 0.0
H479 H 0.9459 0.52632 0.65125 0.0
C480 C 0.68011 0.33825 0.64245 0.0
C481 C 0.66432 0.34331 0.62746 0.0
C482 C 0.63873 0.34106 0.65284 0.0
C483 C 0.64376 0.34459 0.63257 0.0
C484 C 0.65458 0.33579 0.66774 0.0
C485 C 0.67509 0.33433 0.66255 0.0
U486 U 0.72028 0.34835 0.60466 0.0
O487 O 0.75274 0.36489 0.61 0.0
O488 O 0.74694 0.33154 0.59589 0.0
C489 C 0.76114 0.34782 0.60356 0.0
C490 C 0.70202 0.33823 0.63754 0.0
C491 C 0.78024 0.34323 0.61675 0.0
C492 C 0.80647 0.35108 0.64818 0.0
C493 C 0.78699 0.354 0.6372 0.0
C494 C 0.81234 0.32603 0.61883 0.0
C495 C 0.8196 0.33739 0.63892 0.0
C496 C 0.79295 0.32898 0.60787 0.0
C497 C 0.69913 0.36773 0.55229 0.0
C498 C 0.72016 0.38688 0.52946 0.0
C499 C 0.68278 0.37565 0.51844 0.0
C500 C 0.6813 0.36649 0.53715 0.0
C501 C 0.70213 0.38625 0.51452 0.0
C502 C 0.71869 0.37764 0.54819 0.0
C503 C 0.69657 0.35999 0.57279 0.0
O504 O 0.70475 0.32417 0.62177 0.0
O505 O 0.71205 0.35712 0.63667 0.0
O506 O 0.70511 0.37302 0.58967 0.0
O507 O 0.69964 0.34019 0.57418 0.0
H508 H 0.66797 0.34653 0.61189 0.0
H509 H 0.63194 0.34887 0.62084 0.0
H510 H 0.6511 0.33282 0.68343 0.0
H511 H 0.68712 0.33047 0.67432 0.0
H512 H 0.8116 0.36018 0.66355 0.0
H513 H 0.77755 0.36512 0.64448 0.0
H514 H 0.82182 0.31505 0.61137 0.0
H515 H 0.78813 0.3205 0.59214 0.0
H516 H 0.73533 0.39479 0.52681 0.0
H517 H 0.66857 0.37531 0.50747 0.0
H518 H 0.66605 0.35899 0.5401 0.0
H519 H 0.73266 0.3787 0.5597 0.0
C520 C 0.79493 0.65877 0.21522 0.0
C521 C 0.80817 0.6437 0.20913 0.0
C522 C 0.8393 0.66744 0.22615 0.0
C523 C 0.83011 0.64794 0.21463 0.0
C524 C 0.82596 0.68273 0.23163 0.0
C525 C 0.80398 0.67839 0.22626 0.0
U526 U 0.74558 0.62879 0.1818 0.0
O527 O 0.71744 0.61144 0.19145 0.0
O528 O 0.71396 0.63837 0.17335 0.0
C529 C 0.70458 0.62413 0.1837 0.0
C530 C 0.77172 0.65389 0.21082 0.0
C531 C 0.68966 0.6316 0.19787 0.0
C532 C 0.68168 0.6452 0.23273 0.0
C533 C 0.69649 0.64016 0.21902 0.0
C534 C 0.65321 0.63389 0.20407 0.0
C535 C 0.65983 0.64184 0.22548 0.0
C536 C 0.668 0.62881 0.19043 0.0
C537 C 0.75001 0.59032 0.13372 0.0
C538 C 0.71972 0.56489 0.11846 0.0
C539 C 0.75234 0.5659 0.1024 0.0
C540 C 0.76158 0.58262 0.1178 0.0
C541 C 0.73145 0.55657 0.10287 0.0
C542 C 0.7289 0.58165 0.13371 0.0
C543 C 0.76024 0.60653 0.15097 0.0
O544 O 0.76284 0.66044 0.19357 0.0
O545 O 0.76411 0.63451 0.21332 0.0
O546 O 0.75986 0.60082 0.17006 0.0
O547 O 0.75533 0.62582 0.14971 0.0
H548 H 0.80151 0.62845 0.2005 0.0
H549 H 0.83977 0.63564 0.21037 0.0
H550 H 0.83247 0.69806 0.24014 0.0
H551 H 0.79401 0.69027 0.23096 0.0
H552 H 0.6873 0.6515 0.24906 0.0
H553 H 0.71321 0.64246 0.22501 0.0
H554 H 0.63653 0.63079 0.19801 0.0
H555 H 0.66246 0.62212 0.17418 0.0
H556 H 0.70351 0.55821 0.11903 0.0
H557 H 0.7618 0.55974 0.09066 0.0
H558 H 0.7779 0.58916 0.1176 0.0
H559 H 0.71969 0.58751 0.14583 0.0
C560 C 0.32397 0.02374 0.37356 0.0
C561 C 0.30857 0.03065 0.38577 0.0
C562 C 0.28354 0.02887 0.35387 0.0
C563 C 0.28856 0.03324 0.37602 0.0
C564 C 0.29908 0.02191 0.34171 0.0
C565 C 0.31916 0.01938 0.35151 0.0
U566 U 0.35945 0.02385 0.4243 0.0
O567 O 0.3828 0.00291 0.43408 0.0
O568 O 0.39273 0.03693 0.43446 0.0
C569 C 0.39876 0.01812 0.43605 0.0
C570 C 0.34491 0.02101 0.38401 0.0
C571 C 0.41632 0.01338 0.42408 0.0
C572 C 0.42923 0.00302 0.39066 0.0
C573 C 0.41243 0.00656 0.40224 0.0
C574 C 0.45403 0.01304 0.42264 0.0
C575 C 0.45027 0.00641 0.40066 0.0
C576 C 0.43717 0.01651 0.43424 0.0
C577 C 0.33417 0.03601 0.47521 0.0
C578 C 0.3524 0.03618 0.51061 0.0
C579 C 0.31585 0.04332 0.5059 0.0
C580 C 0.31595 0.04092 0.48396 0.0
C581 C 0.33402 0.04085 0.51949 0.0
C582 C 0.35248 0.03378 0.4886 0.0
C583 C 0.33355 0.03289 0.45211 0.0
O584 O 0.35556 0.03835 0.39473 0.0
O585 O 0.34522 0.00447 0.3945 0.0
O586 O 0.33496 0.01346 0.44375 0.0
O587 O 0.34516 0.04742 0.44397 0.0
H588 H 0.31206 0.03408 0.40286 0.0
H589 H 0.27711 0.03889 0.38585 0.0
H590 H 0.29564 0.01811 0.32465 0.0
H591 H 0.33087 0.01392 0.34189 0.0
H592 H 0.42571 0.99759 0.37385 0.0
H593 H 0.39639 0.00414 0.39413 0.0
H594 H 0.47003 0.01605 0.4308 0.0
H595 H 0.44043 0.02193 0.45108 0.0
H596 H 0.3667 0.03433 0.52066 0.0
H597 H 0.30132 0.04652 0.51217 0.0
H598 H 0.30167 0.0426 0.47378 0.0
H599 H 0.3667 0.03002 0.48202 0.0
C600 C 0.18673 0.96616 0.68868 0.0
C601 C 0.19423 0.98767 0.69441 0.0
C602 C 0.22709 0.98334 0.67926 0.0
C603 C 0.2139 0.99599 0.68996 0.0
C604 C 0.21921 0.96188 0.67254 0.0
C605 C 0.19923 0.95334 0.67731 0.0
U606 U 0.16051 0.96079 0.73675 0.0
O607 O 0.13187 0.97212 0.74694 0.0
O608 O 0.13584 0.93839 0.74705 0.0
C609 C 0.12338 0.95325 0.75006 0.0
C610 C 0.16729 0.9573 0.697 0.0
C611 C 0.10056 0.94807 0.74254 0.0
C612 C 0.0688 0.95656 0.72223 0.0
C613 C 0.0909 0.9575 0.72576 0.0
C614 C 0.06571 0.93541 0.75114 0.0
C615 C 0.05598 0.94614 0.73539 0.0
C616 C 0.08777 0.93644 0.75472 0.0
C617 C 0.19811 0.98476 0.78715 0.0
C618 C 0.1893 0.00346 0.81961 0.0
C619 C 0.22453 0.99331 0.81811 0.0
C620 C 0.21857 0.98405 0.79717 0.0
C621 C 0.21014 0.00361 0.82942 0.0
C622 C 0.18332 0.9941 0.79863 0.0
C623 C 0.19324 0.97725 0.76434 0.0
O624 O 0.16946 0.9418 0.70871 0.0
O625 O 0.15637 0.97161 0.70535 0.0
O626 O 0.18136 0.9886 0.75322 0.0
O627 O 0.18824 0.95671 0.75907 0.0
H628 H 0.18548 0.99813 0.70357 0.0
H629 H 0.21917 0.01215 0.69683 0.0
H630 H 0.22856 0.95151 0.66411 0.0
H631 H 0.19392 0.93661 0.6728 0.0
H632 H 0.06191 0.9651 0.71003 0.0
H633 H 0.10043 0.96665 0.71617 0.0
H634 H 0.0563 0.92686 0.76128 0.0
H635 H 0.09489 0.92911 0.76779 0.0
H636 H 0.17787 0.01137 0.82779 0.0
H637 H 0.24057 0.99277 0.8253 0.0
H638 H 0.23017 0.97686 0.78857 0.0
H639 H 0.16739 0.99478 0.79117 0.0
C640 C 0.63423 0.67819 0.33502 0.0
C641 C 0.62144 0.66422 0.34512 0.0
C642 C 0.64424 0.63669 0.33866 0.0
C643 C 0.62639 0.64372 0.34696 0.0
C644 C 0.65678 0.65068 0.32817 0.0
C645 C 0.65179 0.67125 0.32636 0.0
U646 U 0.59749 0.71867 0.34616 0.0
O647 O 0.60317 0.75159 0.36152 0.0
O648 O 0.58691 0.74444 0.32896 0.0
C649 C 0.59518 0.75923 0.34453 0.0
C650 C 0.62956 0.70013 0.33432 0.0
C651 C 0.60763 0.77796 0.33854 0.0
C652 C 0.6412 0.79848 0.33514 0.0
C653 C 0.62982 0.77983 0.33966 0.0
C654 C 0.60831 0.81332 0.32793 0.0
C655 C 0.63058 0.81553 0.32933 0.0
C656 C 0.597 0.79475 0.33248 0.0
C657 C 0.54754 0.69598 0.36953 0.0
C658 C 0.51898 0.71516 0.38038 0.0
C659 C 0.51965 0.67854 0.38655 0.0
C660 C 0.53824 0.67797 0.37713 0.0
C661 C 0.50966 0.69711 0.38832 0.0
C662 C 0.53783 0.71462 0.37112 0.0
C663 C 0.56762 0.69478 0.36062 0.0
O664 O 0.61298 0.7024 0.32103 0.0
O665 O 0.63003 0.71111 0.35304 0.0
O666 O 0.58468 0.70451 0.37261 0.0
O667 O 0.56744 0.69739 0.34051 0.0
H668 H 0.60777 0.66931 0.3519 0.0
H669 H 0.61651 0.63361 0.3554 0.0
H670 H 0.67041 0.64573 0.32126 0.0
H671 H 0.66177 0.68178 0.3184 0.0
H672 H 0.6583 0.79954 0.33616 0.0
H673 H 0.63834 0.767 0.34427 0.0
H674 H 0.59958 0.82619 0.32387 0.0
H675 H 0.5799 0.79367 0.33163 0.0
H676 H 0.51168 0.72966 0.38117 0.0
H677 H 0.51342 0.66443 0.39283 0.0
H678 H 0.54557 0.66347 0.37608 0.0
H679 H 0.54485 0.72869 0.36528 0.0
C680 C 0.69134 0.18439 0.96386 0.0
C681 C 0.70689 0.19889 0.97631 0.0
C682 C 0.68265 0.22549 0.97879 0.0
C683 C 0.70255 0.21874 0.98398 0.0
C684 C 0.66713 0.21137 0.9652 0.0
C685 C 0.67138 0.19073 0.95795 0.0
U686 U 0.73522 0.15295 0.96838 0.0
O687 O 0.74074 0.12375 0.98185 0.0
O688 O 0.74691 0.12694 0.94905 0.0
C689 C 0.74688 0.11484 0.96442 0.0
C690 C 0.69688 0.16275 0.95897 0.0
C691 C 0.73984 0.09209 0.95874 0.0
C692 C 0.71412 0.06102 0.95815 0.0
C693 C 0.71911 0.08312 0.96018 0.0
C694 C 0.75036 0.05689 0.95261 0.0
C695 C 0.72985 0.04763 0.95483 0.0
C696 C 0.75524 0.07884 0.95447 0.0
C697 C 0.78636 0.18946 0.99322 0.0
C698 C 0.81944 0.17872 0.00842 0.0
C699 C 0.81684 0.21577 0.00515 0.0
C700 C 0.79581 0.21054 0.99607 0.0
C701 C 0.82891 0.19997 0.01158 0.0
C702 C 0.7983 0.1735 0.99926 0.0
C703 C 0.76384 0.18492 0.98478 0.0
O704 O 0.71027 0.16093 0.94486 0.0
O705 O 0.7026 0.15397 0.97604 0.0
O706 O 0.75166 0.17415 0.99613 0.0
O707 O 0.7595 0.17891 0.96429 0.0
H708 H 0.72235 0.19449 0.98108 0.0
H709 H 0.7149 0.22821 0.99488 0.0
H710 H 0.65151 0.21584 0.96105 0.0
H711 H 0.65906 0.17972 0.94828 0.0
H712 H 0.6981 0.05448 0.95966 0.0
H713 H 0.70703 0.09315 0.9636 0.0
H714 H 0.76305 0.04727 0.95051 0.0
H715 H 0.7714 0.08551 0.9536 0.0
H716 H 0.82835 0.16618 0.01305 0.0
H717 H 0.82346 0.23231 0.00769 0.0
H718 H 0.78675 0.22306 0.99161 0.0
H719 H 0.79121 0.1571 0.99714 0.0
C720 C 0.23038 0.82547 0.68679 0.0
C721 C 0.2146 0.83546 0.69623 0.0
C722 C 0.23848 0.8687 0.70505 0.0
C723 C 0.21859 0.85682 0.70518 0.0
C724 C 0.25408 0.85865 0.69535 0.0
C725 C 0.25012 0.83738 0.68647 0.0
U726 U 0.20474 0.77624 0.64739 0.0
O727 O 0.21982 0.75042 0.63209 0.0
O728 O 0.19589 0.74314 0.65321 0.0
C729 C 0.20948 0.73574 0.6412 0.0
C730 C 0.22731 0.80249 0.67846 0.0
C731 C 0.22129 0.71863 0.64842 0.0
C732 C 0.25393 0.70232 0.65294 0.0
C733 C 0.24353 0.72019 0.65011 0.0
C734 C 0.22019 0.68131 0.65344 0.0
C735 C 0.24235 0.68249 0.65407 0.0
C736 C 0.20982 0.69914 0.65061 0.0
C737 C 0.16261 0.78073 0.60105 0.0
C738 C 0.13346 0.75507 0.58282 0.0
C739 C 0.15087 0.78095 0.5635 0.0
C740 C 0.16432 0.7894 0.58198 0.0
C741 C 0.13525 0.76371 0.56369 0.0
C742 C 0.14705 0.76342 0.60128 0.0
C743 C 0.17712 0.79009 0.62034 0.0
O744 O 0.20927 0.79135 0.68056 0.0
O745 O 0.23401 0.79741 0.66007 0.0
O746 O 0.19745 0.79125 0.61848 0.0
O747 O 0.17256 0.78413 0.63853 0.0
H748 H 0.19924 0.82676 0.69694 0.0
H749 H 0.2062 0.86389 0.71259 0.0
H750 H 0.26944 0.86727 0.69444 0.0
H751 H 0.26265 0.83014 0.67946 0.0
H752 H 0.27103 0.70393 0.65372 0.0
H753 H 0.25284 0.73497 0.64845 0.0
H754 H 0.21068 0.66634 0.65401 0.0
H755 H 0.19266 0.69743 0.64909 0.0
H756 H 0.12173 0.74166 0.58345 0.0
H757 H 0.15251 0.78815 0.54911 0.0
H758 H 0.17609 0.8028 0.58137 0.0
H759 H 0.14536 0.75628 0.61569 0.0
C760 C 0.36763 0.31797 0.0083 0.0
C761 C 0.37811 0.30019 0.01122 0.0
C762 C 0.34455 0.27734 0.00408 0.0
C763 C 0.3667 0.28009 0.00914 0.0
C764 C 0.334 0.29526 0.00156 0.0
C765 C 0.34552 0.31549 0.0036 0.0
U766 U 0.42128 0.34838 0.01924 0.0
O767 O 0.4376 0.37356 0.00405 0.0
O768 O 0.43389 0.37904 0.03789 0.0
C769 C 0.43955 0.3874 0.02118 0.0
C770 C 0.3802 0.33882 0.01008 0.0
C771 C 0.4318 0.40776 0.01812 0.0
C772 C 0.40452 0.42785 0.00416 0.0
C773 C 0.41207 0.40843 0.00634 0.0
C774 C 0.43629 0.44612 0.02559 0.0
C775 C 0.41648 0.44689 0.01391 0.0
C776 C 0.4439 0.42669 0.02763 0.0
C777 C 0.4659 0.31447 0.03209 0.0
C778 C 0.50094 0.32652 0.051 0.0
C779 C 0.4945 0.29291 0.02837 0.0
C780 C 0.47335 0.29604 0.02345 0.0
C781 C 0.50859 0.30813 0.04217 0.0
C782 C 0.47981 0.32972 0.04591 0.0
C783 C 0.44357 0.31731 0.02652 0.0
O784 O 0.38942 0.346 0.02933 0.0
O785 O 0.39304 0.34071 0.99552 0.0
O786 O 0.43863 0.32254 0.00744 0.0
O787 O 0.43466 0.32787 0.04123 0.0
H788 H 0.39519 0.30186 0.01499 0.0
H789 H 0.37524 0.26666 0.01153 0.0
H790 H 0.31695 0.29357 0.99754 0.0
H791 H 0.33723 0.3291 0.00133 0.0
H792 H 0.38909 0.42792 0.9953 0.0
H793 H 0.40241 0.39392 0.99905 0.0
H794 H 0.44591 0.46055 0.03312 0.0
H795 H 0.45914 0.42643 0.0368 0.0
H796 H 0.51126 0.33848 0.06185 0.0
H797 H 0.4999 0.27878 0.02093 0.0
H798 H 0.46282 0.28413 0.0127 0.0
H799 H 0.47439 0.34411 0.05275 0.0
C800 C 0.33552 0.63927 0.68156 0.0
C801 C 0.34574 0.62687 0.66736 0.0
C802 C 0.33848 0.64979 0.63996 0.0
C803 C 0.34724 0.63207 0.64683 0.0
C804 C 0.32818 0.66212 0.65434 0.0
C805 C 0.32665 0.65685 0.67488 0.0
U806 U 0.34604 0.60178 0.72192 0.0
O807 O 0.36043 0.60701 0.75524 0.0
O808 O 0.32813 0.59036 0.74691 0.0
C809 C 0.34358 0.59776 0.76214 0.0
C810 C 0.33454 0.63407 0.70339 0.0
C811 C 0.33773 0.60742 0.78239 0.0
C812 C 0.33359 0.63785 0.80741 0.0
C813 C 0.33716 0.62931 0.78707 0.0
C814 C 0.33079 0.60269 0.81833 0.0
C815 C 0.33079 0.62464 0.8234 0.0
C816 C 0.33418 0.59422 0.79807 0.0
C817 C 0.37008 0.55197 0.70118 0.0
C818 C 0.39056 0.52979 0.72189 0.0
C819 C 0.37805 0.51817 0.68483 0.0
C820 C 0.36844 0.53663 0.68347 0.0
C821 C 0.38937 0.51457 0.70398 0.0
C822 C 0.38096 0.54833 0.72051 0.0
C823 C 0.36135 0.57203 0.69868 0.0
O824 O 0.32122 0.61737 0.70522 0.0
O825 O 0.35307 0.63447 0.71471 0.0
O826 O 0.37294 0.58932 0.70844 0.0
O827 O 0.34103 0.57192 0.7002 0.0
H828 H 0.35272 0.61321 0.67222 0.0
H829 H 0.35563 0.62236 0.63651 0.0
H830 H 0.3209 0.67565 0.64964 0.0
H831 H 0.31859 0.66655 0.68556 0.0
H832 H 0.33376 0.65483 0.81084 0.0
H833 H 0.33995 0.63981 0.77521 0.0
H834 H 0.32836 0.59204 0.83012 0.0
H835 H 0.33456 0.57729 0.7948 0.0
H836 H 0.39899 0.5274 0.73692 0.0
H837 H 0.37725 0.50704 0.67067 0.0
H838 H 0.36015 0.53917 0.66841 0.0
H839 H 0.38231 0.55995 0.73442 0.0
C840 C 0.99625 0.72222 0.19194 0.0
C841 C 0.00806 0.7344 0.20989 0.0
C842 C 0.00084 0.70585 0.23114 0.0
C843 C 0.01045 0.72625 0.22927 0.0
C844 C 0.9886 0.69386 0.21324 0.0
C845 C 0.98636 0.70198 0.19377 0.0
U846 U 0.99827 0.77068 0.16494 0.0
O847 O 0.01439 0.78051 0.13845 0.0
O848 O 0.97986 0.78022 0.1371 0.0
C849 C 0.99663 0.78304 0.12708 0.0
C850 C 0.9941 0.73097 0.17159 0.0
C851 C 0.99417 0.77388 0.10473 0.0
C852 C 0.99838 0.7459 0.07714 0.0
C853 C 0.99894 0.75336 0.09866 0.0
C854 C 0.98766 0.77916 0.0677 0.0
C855 C 0.99302 0.75886 0.06142 0.0
C856 C 0.98824 0.78656 0.08914 0.0
C857 C 0.01072 0.82207 0.20322 0.0
C858 C 0.02678 0.85565 0.19446 0.0
C859 C 0.01586 0.8532 0.22932 0.0
C860 C 0.00848 0.8318 0.2234 0.0
C861 C 0.02573 0.86517 0.21516 0.0
C862 C 0.01932 0.83421 0.18852 0.0
C863 C 0.00585 0.79901 0.19859 0.0
O864 O 0.97776 0.74154 0.1684 0.0
O865 O 0.01177 0.74075 0.16678 0.0
O866 O 0.02066 0.78934 0.19035 0.0
O867 O 0.98659 0.79177 0.18949 0.0
H868 H 0.01566 0.75019 0.20887 0.0
H869 H 0.02019 0.73575 0.24264 0.0
H870 H 0.98078 0.67818 0.21423 0.0
H871 H 0.97698 0.69247 0.18016 0.0
H872 H 0.00236 0.73011 0.07283 0.0
H873 H 0.00351 0.74332 0.11053 0.0
H874 H 0.98378 0.78969 0.05609 0.0
H875 H 0.98462 0.80249 0.09358 0.0
H876 H 0.0344 0.86443 0.18324 0.0
H877 H 0.01449 0.86022 0.24525 0.0
H878 H 0.00176 0.82265 0.23487 0.0
H879 H 0.02109 0.82688 0.17281 0.0
C880 C 0.6792 0.23367 0.81386 0.0
C881 C 0.67179 0.22262 0.82991 0.0
C882 C 0.69604 0.24637 0.85685 0.0
C883 C 0.68018 0.22888 0.85123 0.0
C884 C 0.70371 0.25696 0.84056 0.0
C885 C 0.69539 0.25067 0.81934 0.0
U886 U 0.63996 0.20172 0.76783 0.0
O887 O 0.62195 0.21355 0.74125 0.0
O888 O 0.64537 0.19179 0.73487 0.0
C889 C 0.63177 0.20367 0.72687 0.0
C890 C 0.66989 0.22847 0.79143 0.0
C891 C 0.63818 0.21575 0.70973 0.0
C892 C 0.64903 0.24886 0.6962 0.0
C893 C 0.64537 0.23754 0.71331 0.0
C894 C 0.63902 0.21662 0.67189 0.0
C895 C 0.64559 0.23859 0.6752 0.0
C896 C 0.63537 0.20537 0.68895 0.0
C897 C 0.59912 0.15626 0.77563 0.0
C898 C 0.57471 0.13776 0.74576 0.0
C899 C 0.57124 0.12914 0.78125 0.0
C900 C 0.58866 0.14423 0.78927 0.0
C901 C 0.56391 0.12581 0.7594 0.0
C902 C 0.59211 0.15284 0.7538 0.0
C903 C 0.61689 0.1727 0.78433 0.0
O904 O 0.67338 0.21025 0.78163 0.0
O905 O 0.65033 0.23261 0.787 0.0
O906 O 0.61263 0.19233 0.78429 0.0
O907 O 0.63527 0.16984 0.77782 0.0
H908 H 0.65926 0.20946 0.826 0.0
H909 H 0.67373 0.22049 0.86335 0.0
H910 H 0.71606 0.2703 0.84423 0.0
H911 H 0.70137 0.25936 0.80718 0.0
H912 H 0.65435 0.2657 0.6994 0.0
H913 H 0.64768 0.24589 0.72925 0.0
H914 H 0.63586 0.20818 0.65601 0.0
H915 H 0.62968 0.18859 0.68582 0.0
H916 H 0.56976 0.13543 0.72882 0.0
H917 H 0.5632 0.12046 0.79227 0.0
H918 H 0.5938 0.1467 0.80618 0.0
H919 H 0.60002 0.16197 0.743 0.0
C920 C 0.00813 0.3659 0.32198 0.0
C921 C 0.0028 0.37653 0.30445 0.0
C922 C 0.0058 0.34506 0.28037 0.0
C923 C 0.00153 0.36619 0.28387 0.0
C924 C 0.01124 0.33451 0.29804 0.0
C925 C 0.01238 0.34486 0.31867 0.0
U926 U 0.01616 0.41741 0.35805 0.0
O927 O 1.00056 0.42841 0.38551 0.0
O928 O 0.03502 0.4278 0.38901 0.0
C929 C 0.01818 0.4303 0.39866 0.0
C930 C 0.00993 0.37699 0.34361 0.0
C931 C 0.01672 0.42012 0.41818 0.0
C932 C 0.02994 0.39749 0.44347 0.0
C933 C 0.03158 0.40687 0.42492 0.0
C934 C 0.99856 0.41435 0.4489 0.0
C935 C 0.01335 0.40099 0.45563 0.0
C936 C 1.0003 0.42388 0.43042 0.0
C937 C 0.02467 0.4681 0.33242 0.0
C938 C 0.03386 0.5028 0.35304 0.0
C939 C 0.0275 0.49959 0.31465 0.0
C940 C 0.02351 0.47763 0.31375 0.0
C941 C 0.03287 0.51246 0.33428 0.0
C942 C 0.0298 0.48074 0.35211 0.0
C943 C 0.02067 0.44498 0.33098 0.0
O944 O 0.02878 0.38712 0.35089 0.0
O945 O 0.99442 0.38818 0.34744 0.0
O946 O 0.0021 0.43739 0.33578 0.0
O947 O 0.03642 0.43578 0.33931 0.0
H948 H 0.9996 0.39287 0.30669 0.0
H949 H 0.99696 0.37471 0.2707 0.0
H950 H 0.01492 0.31835 0.29594 0.0
H951 H 0.01673 0.3365 0.33203 0.0
H952 H 0.04184 0.38761 0.44836 0.0
H953 H 0.04451 0.40373 0.41593 0.0
H954 H 0.98543 0.41719 0.4577 0.0
H955 H 0.9887 0.43409 0.42559 0.0
H956 H 0.03795 0.51225 0.36838 0.0
H957 H 0.02601 0.5065 0.29991 0.0
H958 H 0.01943 0.46807 0.29845 0.0
H959 H 0.03071 0.47353 0.36669 0.0
C960 C 0.30642 0.52909 0.64976 0.0
N961 N 0.30326 0.54513 0.63796 0.0
N962 N 0.3141 0.51313 0.63832 0.0
C963 C 0.30338 0.5295 0.67275 0.0
C964 C 0.31544 0.52002 0.61917 0.0
N965 N 0.30891 0.53939 0.61897 0.0
C966 C 0.32183 0.50724 0.60024 0.0
H967 H 0.31519 0.52082 0.6811 0.0
H968 H 0.28732 0.52152 0.6739 0.0
H969 H 0.30475 0.546 0.68067 0.0
H970 H 0.31824 0.49 0.60105 0.0
H971 H 0.33915 0.51102 0.60004 0.0
H972 H 0.31357 0.51118 0.58526 0.0
C973 C 0.35076 0.59777 0.01547 0.0
N974 N 0.34465 0.57693 0.00878 0.0
N975 N 0.33484 0.60933 0.01037 0.0
C976 C 0.37292 0.60711 0.02466 0.0
C977 C 0.31886 0.59469 1.00043 0.0
N978 N 0.32484 0.57504 0.99932 0.0
C979 C 0.29724 0.59956 0.99207 0.0
H980 H 0.37352 0.6105 0.04213 0.0
H981 H 0.37741 0.62226 0.01841 0.0
H982 H 0.38463 0.59607 0.02111 0.0
H983 H 0.29695 0.60201 0.97514 0.0
H984 H 0.29332 0.61418 0.00105 0.0
H985 H 0.28502 0.58612 0.99316 0.0
C986 C 0.71296 0.97045 0.30537 0.0
N987 N 0.69721 0.96223 0.32051 0.0
N988 N 0.71606 0.00383 0.31846 0.0
C989 C 0.72061 0.95522 0.28811 0.0
C990 C 0.70065 0.00245 0.33654 0.0
N991 N 0.69134 0.97883 0.33642 0.0
C992 C 0.69731 0.02061 0.35239 0.0
H993 H 0.73801 0.95503 0.29029 0.0
H994 H 0.71552 0.95866 0.27184 0.0
H995 H 0.7136 0.93873 0.2888 0.0
H996 H 0.68159 0.02568 0.34782 0.0
H997 H 0.70949 0.03442 0.35308 0.0
H998 H 0.69752 0.01552 0.36843 0.0
C999 C 0.71802 0.87848 0.97237 0.0
N1000 N 0.72816 0.89756 0.98136 0.0
N1001 N 0.72382 0.863 0.98385 0.0
C1002 C 0.70172 0.87501 0.95309 0.0
C1003 C 0.7379 0.87344 1.00006 0.0
N1004 N 0.74059 0.89443 0.99848 0.0
C1005 C 0.74803 0.86335 0.01815 0.0
H1006 H 0.68803 0.86373 0.95563 0.0
H1007 H 0.70886 0.86787 0.93939 0.0
H1008 H 0.6961 0.89005 0.94913 0.0
H1009 H 0.74795 0.84607 0.01379 0.0
H1010 H 0.73915 0.86597 0.03197 0.0
H1011 H 0.76462 0.87069 0.02299 0.0
C1012 C 0.64515 0.31112 0.52671 0.0
N1013 N 0.63337 0.30762 0.54267 0.0
N1014 N 0.63383 0.31944 0.51106 0.0
C1015 C 0.66811 0.30793 0.52716 0.0
C1016 C 0.61473 0.32077 0.51815 0.0
N1017 N 0.61451 0.31371 0.53732 0.0
C1018 C 0.5957 0.32731 0.50567 0.0
H1019 H 0.67599 0.30953 0.54371 0.0
H1020 H 0.67656 0.31952 0.51834 0.0
H1021 H 0.6692 0.29172 0.51953 0.0
H1022 H 0.59622 0.32377 0.48837 0.0
H1023 H 0.59553 0.34462 0.50961 0.0
H1024 H 0.5808 0.31906 0.50978 0.0
C1025 C 1.00065 0.72632 0.89122 0.0
N1026 N 0.01351 0.73551 0.90884 0.0
N1027 N 0.01099 0.727 0.8739 0.0
C1028 C 0.97851 0.71561 0.89115 0.0
C1029 C 0.03064 0.73664 0.88162 0.0
N1030 N 0.03221 0.74179 0.90288 0.0
C1031 C 0.04848 0.74014 0.86845 0.0
H1032 H 0.9779 0.70605 0.90459 0.0
H1033 H 0.97276 0.70532 0.87603 0.0
H1034 H 0.96772 0.72789 0.89331 0.0
H1035 H 0.04237 0.74314 0.85227 0.0
H1036 H 0.05652 0.72563 0.86695 0.0
H1037 H 0.06025 0.75367 0.87596 0.0
C1038 C 1.00009 0.32698 0.60133 0.0
N1039 N 0.99471 0.32286 0.5801 0.0
N1040 N 0.99324 0.31002 0.61096 0.0
C1041 C 0.01129 0.34776 0.6127 0.0
C1042 C 0.98354 0.29557 0.5946 0.0
N1043 N 0.98444 0.30342 0.57592 0.0
C1044 C 0.97313 0.27375 0.59664 0.0
H1045 H 0.0283 0.34618 0.61677 0.0
H1046 H 0.00451 0.35204 0.62759 0.0
H1047 H 0.01029 0.36082 0.60278 0.0
H1048 H 0.9559 0.27424 0.59699 0.0
H1049 H 0.97996 0.26794 0.61131 0.0
H1050 H 0.9751 0.26243 0.58277 0.0
C1051 C 0.30385 0.69393 0.98296 0.0
N1052 N 0.32353 0.69333 0.97052 0.0
N1053 N 0.30789 0.71419 1.00085 0.0
C1054 C 0.28411 0.67835 0.97862 0.0
C1055 C 0.33982 0.72711 0.99514 0.0
N1056 N 0.34211 0.70979 0.97685 0.0
C1057 C 0.35869 0.74421 0.00433 0.0
H1058 H 0.27093 0.68629 0.97164 0.0
H1059 H 0.27971 0.67303 0.99364 0.0
H1060 H 0.28632 0.66436 0.96759 0.0
H1061 H 0.35453 0.7605 0.00748 0.0
H1062 H 0.37035 0.74528 0.9928 0.0
H1063 H 0.36722 0.73984 0.01899 0.0
C1064 C 0.52275 0.64379 0.31348 0.0
N1065 N 0.53902 0.6326 0.3097 0.0
N1066 N 0.50775 0.63202 0.32208 0.0
C1067 C 0.52203 0.66655 0.30993 0.0
C1068 C 0.51551 0.61325 0.32339 0.0
N1069 N 0.53451 0.61364 0.31593 0.0
C1070 C 0.50368 0.59394 0.33008 0.0
H1071 H 0.53821 0.67493 0.31031 0.0
H1072 H 0.51376 0.67483 0.32214 0.0
H1073 H 0.51316 0.66714 0.29412 0.0
H1074 H 0.48631 0.59391 0.32653 0.0
H1075 H 0.50766 0.59406 0.34744 0.0
H1076 H 0.50823 0.57918 0.32199 0.0
C1077 C 0.88754 0.96764 0.71665 0.0
N1078 N 0.9059 0.97744 0.72782 0.0
N1079 N 0.87132 0.97892 0.7203 0.0
C1080 C 0.88523 0.94685 0.70265 0.0
C1081 C 0.88046 0.99601 0.73393 0.0
N1082 N 0.90144 0.99501 0.73867 0.0
C1083 C 0.86938 0.0148 0.74061 0.0
H1084 H 0.88831 0.94989 0.68644 0.0
H1085 H 0.86892 0.93853 0.70165 0.0
H1086 H 0.89682 0.93656 0.70867 0.0
H1087 H 0.86414 0.0131 0.75637 0.0
H1088 H 0.85526 0.01586 0.72921 0.0
H1089 H 0.88022 0.0298 0.74197 0.0
C1090 C 0.58734 0.99085 0.31519 0.0
N1091 N 0.56658 0.98295 0.31172 0.0
N1092 N 0.59771 0.98308 0.29931 0.0
C1093 C 0.5977 0.0058 0.33423 0.0
C1094 C 0.58256 0.96992 0.28617 0.0
N1095 N 0.56357 0.97 0.29363 0.0
C1096 C 0.58664 0.95543 0.26732 0.0
H1097 H 0.58641 0.0163 0.3402 0.0
H1098 H 0.61184 0.01557 0.33031 0.0
H1099 H 0.60296 0.99642 0.347 0.0
H1100 H 0.58074 0.93882 0.26909 0.0
H1101 H 0.60373 0.95662 0.26536 0.0
H1102 H 0.57769 0.95957 0.25279 0.0
C1103 C 0.97345 0.31328 0.72349 0.0
N1104 N 0.967 0.32903 0.70752 0.0
N1105 N 0.00737 0.32554 0.72894 0.0
C1106 C 0.9573 0.29557 0.72922 0.0
C1107 C 0.0076 0.34387 0.71378 0.0
N1108 N 0.98468 0.34442 0.70299 0.0
C1109 C 0.02649 0.35942 0.71179 0.0
H1110 H 0.95395 0.299 0.74582 0.0
H1111 H 0.9618 0.27935 0.72674 0.0
H1112 H 0.94207 0.29456 0.71894 0.0
H1113 H 0.03273 0.35475 0.69669 0.0
H1114 H 0.03931 0.35987 0.72502 0.0
H1115 H 0.02177 0.37555 0.71143 0.0
C1116 C 0.69547 0.48233 0.36198 0.0
N1117 N 0.69941 0.46634 0.37346 0.0
N1118 N 0.685 0.49645 0.37281 0.0
C1119 C 0.70299 0.48484 0.34084 0.0
C1120 C 0.68287 0.48847 0.39137 0.0
N1121 N 0.69173 0.47023 0.39177 0.0
C1122 C 0.67349 0.49917 0.40964 0.0
H1123 H 0.71989 0.49176 0.34346 0.0
H1124 H 0.69366 0.49546 0.33208 0.0
H1125 H 0.70183 0.46922 0.33108 0.0
H1126 H 0.66047 0.50804 0.4041 0.0
H1127 H 0.68602 0.51065 0.41944 0.0
H1128 H 0.66738 0.48746 0.41975 0.0
C1129 C 0.64597 0.4002 0.99127 0.0
N1130 N 0.65157 0.42115 0.99761 0.0
N1131 N 0.6612 0.38888 0.99896 0.0
C1132 C 0.62479 0.39073 0.97948 0.0
C1133 C 0.67622 0.40387 0.01008 0.0
N1134 N 0.67027 0.42342 0.00943 0.0
C1135 C 0.69728 0.39967 0.02071 0.0
H1136 H 0.61912 0.37579 0.98552 0.0
H1137 H 0.62651 0.38703 0.96244 0.0
H1138 H 0.61279 0.40189 0.98092 0.0
H1139 H 0.70221 0.38492 0.01297 0.0
H1140 H 0.69605 0.39798 0.03762 0.0
H1141 H 0.70962 0.41316 0.02013 0.0
C1142 C 0.29812 0.03204 0.70946 0.0
N1143 N 0.30783 0.04085 0.68773 0.0
N1144 N 0.28026 0.00947 0.70121 0.0
C1145 C 0.30238 0.04291 0.73172 0.0
C1146 C 0.28211 0.00652 0.66378 0.0
N1147 N 0.30024 0.02808 0.66494 0.0
C1148 C 0.27446 0.99158 0.64312 0.0
H1149 H 0.308 0.03163 0.74242 0.0
H1150 H 0.28735 0.04762 0.73673 0.0
H1151 H 0.31437 0.05704 0.73308 0.0
H1152 H 0.25724 0.98606 0.64081 0.0
H1153 H 0.28325 0.97756 0.64238 0.0
H1154 H 0.27783 0.99998 0.62939 0.0
C1155 C 0.26926 0.1146 0.99592 0.0
N1156 N 0.26219 0.09557 0.98442 0.0
N1157 N 0.26855 0.13035 0.98341 0.0
C1158 C 0.27937 0.11738 0.0186 0.0
C1159 C 0.26096 0.12017 0.96393 0.0
N1160 N 0.25718 0.09905 0.96448 0.0
C1161 C 0.25787 0.13093 0.94424 0.0
H1162 H 0.2671 0.11324 0.02893 0.0
H1163 H 0.28686 0.13386 0.02391 0.0
H1164 H 0.29148 0.10635 0.0205 0.0
H1165 H 0.27256 0.13136 0.9365 0.0
H1166 H 0.2546 0.14748 0.94829 0.0
H1167 H 0.24463 0.12213 0.93286 0.0
C1168 C 0.35498 0.69663 0.48145 0.0
N1169 N 0.3662 0.69958 0.46497 0.0
N1170 N 0.36654 0.68811 0.49677 0.0
C1171 C 0.33239 0.70087 0.482 0.0
C1172 C 0.38522 0.68618 0.48903 0.0
N1173 N 0.38498 0.6931 0.46978 0.0
C1174 C 0.40419 0.67884 0.50083 0.0
H1175 H 0.33226 0.71766 0.48847 0.0
H1176 H 0.32425 0.69063 0.4923 0.0
H1177 H 0.32358 0.69819 0.46578 0.0
H1178 H 0.40368 0.66149 0.49657 0.0
H1179 H 0.40417 0.68217 0.51823 0.0
H1180 H 0.41914 0.68668 0.49642 0.0
C1181 C 0.99424 0.27729 0.11359 0.0
N1182 N 0.98273 0.2667 0.09579 0.0
N1183 N 0.98295 0.27656 0.13029 0.0
C1184 C 0.01679 0.28733 0.11488 0.0
C1185 C 0.96416 0.26521 0.12193 0.0
N1186 N 0.96411 0.25905 0.10099 0.0
C1187 C 0.9452 0.26196 0.13373 0.0
H1188 H 0.02529 0.28763 0.13103 0.0
H1189 H 0.01682 0.30388 0.1112 0.0
H1190 H 0.0253 0.27869 0.10315 0.0
H1191 H 0.94568 0.27487 0.14694 0.0
H1192 H 0.94523 0.2467 0.14045 0.0
H1193 H 0.93023 0.26132 0.12298 0.0
C1194 C 0.01169 0.68563 0.41119 0.0
N1195 N 0.02099 0.6903 0.43148 0.0
N1196 N 0.02081 0.69876 0.39863 0.0
C1197 C 0.99481 0.66728 0.40336 0.0
C1198 C 0.03608 0.71156 0.41207 0.0
N1199 N 0.03624 0.70632 0.43207 0.0
C1200 C 0.05161 0.72823 0.40545 0.0
H1201 H 0.00236 0.65249 0.40161 0.0
H1202 H 0.98623 0.66935 0.38782 0.0
H1203 H 0.98321 0.66547 0.41486 0.0
H1204 H 0.0444 0.7357 0.39207 0.0
H1205 H 0.06522 0.72065 0.40015 0.0
H1206 H 0.0576 0.74074 0.41886 0.0
C1207 C 0.69439 0.303 0.0219 0.0
N1208 N 0.67584 0.30321 0.03589 0.0
N1209 N 0.68909 0.28326 0.00345 0.0
C1210 C 0.71508 0.31715 0.02655 0.0
C1211 C 0.6578 0.27022 0.01086 0.0
N1212 N 0.65686 0.28709 0.03015 0.0
C1213 C 0.63865 0.25305 0.00261 0.0
H1214 H 0.71271 0.33302 0.02194 0.0
H1215 H 0.72731 0.31067 0.01764 0.0
H1216 H 0.72072 0.31901 0.04377 0.0
H1217 H 0.63757 0.24333 0.98707 0.0
H1218 H 0.62386 0.26061 0.00238 0.0
H1219 H 0.63789 0.2414 0.01418 0.0
C1220 C 0.47876 0.35747 0.69282 0.0
N1221 N 0.46268 0.369 0.69634 0.0
N1222 N 0.49466 0.36937 0.68558 0.0
C1223 C 0.47953 0.33504 0.69752 0.0
C1224 C 0.48772 0.38859 0.68504 0.0
N1225 N 0.46836 0.38836 0.69164 0.0
C1226 C 0.49961 0.40745 0.67766 0.0
H1227 H 0.49553 0.33323 0.70526 0.0
H1228 H 0.47652 0.32429 0.68238 0.0
H1229 H 0.46743 0.33014 0.70774 0.0
H1230 H 0.51028 0.40237 0.66606 0.0
H1231 H 0.50933 0.41717 0.69154 0.0
H1232 H 0.48844 0.41746 0.67035 0.0
C1233 C 0.11995 0.03562 0.28417 0.0
N1234 N 0.10306 0.02234 0.27402 0.0
N1235 N 0.13825 0.02767 0.2808 0.0
C1236 C 0.1185 0.05494 0.29929 0.0
C1237 C 0.13179 0.00902 0.26842 0.0
N1238 N 0.11043 0.00572 0.26438 0.0
C1239 C 0.14633 0.9931 0.26215 0.0
H1240 H 0.134 0.06507 0.30297 0.0
H1241 H 0.11349 0.04986 0.31422 0.0
H1242 H 0.10635 0.06425 0.29251 0.0
H1243 H 0.15124 0.98506 0.27609 0.0
H1244 H 0.16083 0.00116 0.25709 0.0
H1245 H 0.13844 0.98103 0.24903 0.0
C1246 C 0.40881 0.01181 0.675 0.0
N1247 N 0.42965 0.01902 0.67997 0.0
N1248 N 0.39839 0.01487 0.69232 0.0
C1249 C 0.39862 0.00248 0.65308 0.0
C1250 C 0.41402 0.02419 0.7079 0.0
N1251 N 0.4329 0.02677 0.7003 0.0
C1252 C 0.41128 0.03018 0.73077 0.0
H1253 H 0.40852 0.00661 0.64067 0.0
H1254 H 0.38296 0.00809 0.64948 0.0
H1255 H 0.39632 0.98496 0.65224 0.0
H1256 H 0.39726 0.02068 0.73524 0.0
H1257 H 0.40943 0.04728 0.73339 0.0
H1258 H 0.42551 0.02765 0.74129 0.0
C1259 C 0.02788 0.68882 0.28303 0.0
N1260 N 0.03506 0.67283 0.2983 0.0
N1261 N 0.994 0.67695 0.27945 0.0
C1262 C 0.04382 0.70576 0.27589 0.0
C1263 C 0.99457 0.65846 0.29427 0.0
N1264 N 0.0179 0.65726 0.30343 0.0
C1265 C 0.97547 0.64477 0.299 0.0
H1266 H 0.04113 0.72211 0.28168 0.0
H1267 H 0.04392 0.70422 0.25847 0.0
H1268 H 0.06016 0.70405 0.28258 0.0
H1269 H 0.96941 0.63305 0.28493 0.0
H1270 H 0.96271 0.65463 0.30221 0.0
H1271 H 0.97941 0.63638 0.31293 0.0
H1272 H 0.15791 0.69954 0.37208 0.0
H1273 H 0.06082 0.64424 0.28641 0.0
H1274 H 0.1591 0.64011 0.33331 0.0
H1275 H 0.05857 0.70116 0.32824 0.0
H1276 H 0.09774 0.6435 0.30165 0.0
H1277 H 0.12243 0.70157 0.35455 0.0
C1278 C 0.15073 0.68691 0.35987 0.0
C1279 C 0.16153 0.66955 0.35428 0.0
C1280 C 0.08925 0.65622 0.30747 0.0
C1281 C 0.12081 0.67187 0.33397 0.0
C1282 C 0.06829 0.65661 0.29875 0.0
C1283 C 0.05692 0.67273 0.30626 0.0
C1284 C 0.09883 0.67217 0.32371 0.0
C1285 C 0.06701 0.68851 0.32219 0.0
C1286 C 0.13047 0.68812 0.34979 0.0
C1287 C 0.15151 0.65388 0.33803 0.0
N1288 N 0.0874 0.68782 0.33045 0.0
N1289 N 0.1317 0.65536 0.32853 0.0
H1290 H 0.38515 0.35398 0.79612 0.0
H1291 H 0.42161 0.3571 0.68049 0.0
H1292 H 0.34214 0.36052 0.74085 0.0
H1293 H 0.46455 0.3689 0.7384 0.0
H1294 H 0.3917 0.35184 0.70138 0.0
H1295 H 0.41382 0.35259 0.77406 0.0
C1296 C 0.38168 0.35507 0.77933 0.0
C1297 C 0.36121 0.35776 0.77045 0.0
C1298 C 0.40768 0.35534 0.70947 0.0
C1299 C 0.39404 0.35587 0.74499 0.0
C1300 C 0.42462 0.35836 0.69761 0.0
C1301 C 0.4453 0.36354 0.70794 0.0
C1302 C 0.41163 0.35728 0.73171 0.0
C1303 C 0.44869 0.36487 0.73006 0.0
C1304 C 0.39808 0.35419 0.76673 0.0
C1305 C 0.35762 0.35841 0.74844 0.0
N1306 N 0.43201 0.36181 0.74126 0.0
N1307 N 0.37391 0.35765 0.73649 0.0
H1308 H 0.54907 0.9935 0.64226 0.0
H1309 H 0.43667 0.03589 0.64386 0.0
H1310 H 0.51564 0.01278 0.58649 0.0
H1311 H 0.46123 0.99609 0.68829 0.0
H1312 H 0.46689 0.03118 0.62376 0.0
H1313 H 0.51841 0.99807 0.66088 0.0
C1314 C 0.53524 0.99854 0.63384 0.0
C1315 C 0.53492 0.00257 0.61267 0.0
C1316 C 0.46553 0.02331 0.63779 0.0
C1317 C 0.49985 0.00828 0.63414 0.0
C1318 C 0.44831 0.02589 0.64908 0.0
C1319 C 0.44644 0.01587 0.66729 0.0
C1320 C 0.48107 0.01105 0.64518 0.0
C1321 C 0.46217 0.00375 0.67409 0.0
C1322 C 0.51776 0.00125 0.64454 0.0
C1323 C 0.5167 0.00967 0.60285 0.0
N1324 N 0.47888 0.00168 0.66306 0.0
N1325 N 0.49987 0.01233 0.61368 0.0
H1326 H 0.97484 0.04878 0.24751 0.0
H1327 H 0.07641 0.99759 0.29348 0.0
H1328 H 0.97098 0.99145 0.27745 0.0
H1329 H 0.0799 0.05058 0.25752 0.0
H1330 H 0.03792 0.99778 0.29188 0.0
H1331 H 0.01341 0.05258 0.25535 0.0
C1332 C 0.98207 0.03715 0.25603 0.0
C1333 C 0.96961 0.0197 0.26174 0.0
C1334 C 0.04707 0.00953 0.28451 0.0
C1335 C 0.01387 0.0238 0.27049 0.0
C1336 C 0.06895 0.0094 0.28546 0.0
C1337 C 0.08105 0.02404 0.27553 0.0
C1338 C 0.03729 0.02447 0.27356 0.0
C1339 C 0.07093 0.03915 0.26541 0.0
C1340 C 0.00412 0.03925 0.26036 0.0
C1341 C 0.97994 0.00498 0.27248 0.0
N1342 N 0.04957 0.03892 0.26455 0.0
N1343 N 0.00145 0.00731 0.2764 0.0
H1344 H 0.38807 0.14908 0.66067 0.0
H1345 H 0.29577 0.07745 0.70467 0.0
H1346 H 0.33883 0.17529 0.69215 0.0
H1347 H 0.34505 0.05232 0.67273 0.0
H1348 H 0.31259 0.11351 0.70281 0.0
H1349 H 0.37362 0.11375 0.66694 0.0
C1350 C 0.37414 0.14744 0.66883 0.0
C1351 C 0.36455 0.1653 0.67566 0.0
C1352 C 0.3199 0.10012 0.69646 0.0
C1353 C 0.34797 0.1246 0.68319 0.0
C1354 C 0.31042 0.07956 0.69774 0.0
C1355 C 0.3192 0.0619 0.68917 0.0
C1356 C 0.33825 0.10303 0.68635 0.0
C1357 C 0.33784 0.06547 0.67972 0.0
C1358 C 0.36596 0.1272 0.67255 0.0
C1359 C 0.34683 0.16208 0.68665 0.0
N1360 N 0.34668 0.08558 0.67849 0.0
N1361 N 0.33905 0.14215 0.68996 0.0
H1362 H 0.24338 0.98051 0.04148 0.0
H1363 H 0.28679 0.06679 0.97047 0.0
H1364 H 0.29744 0.97438 0.00737 0.0
H1365 H 0.24198 0.0785 0.01448 0.0
H1366 H 0.29019 0.03228 0.98302 0.0
H1367 H 0.24255 0.01629 0.03197 0.0
C1368 C 0.25534 0.98675 0.03231 0.0
C1369 C 0.27047 0.97424 0.02517 0.0
C1370 C 0.27963 0.04237 0.99 0.0
C1371 C 0.26915 0.01515 0.01368 0.0
C1372 C 0.27757 0.06189 0.9827 0.0
C1373 C 0.26393 0.07516 0.99138 0.0
C1374 C 0.26785 0.0361 0.00604 0.0
C1375 C 0.25259 0.06852 0.00746 0.0
C1376 C 0.2547 0.00717 0.02671 0.0
C1377 C 0.28523 0.9832 0.01293 0.0
N1378 N 0.25471 0.04936 0.01424 0.0
N1379 N 0.28408 0.00301 0.00744 0.0
H1380 H 0.79525 0.383 0.38221 0.0
H1381 H 0.69032 0.43279 0.34303 0.0
H1382 H 0.74379 0.34772 0.33859 0.0
H1383 H 0.73757 0.46253 0.39378 0.0
H1384 H 0.71142 0.40304 0.33771 0.0
H1385 H 0.77609 0.41383 0.38318 0.0
C1386 C 0.78003 0.38179 0.37259 0.0
C1387 C 0.77119 0.36268 0.36024 0.0
C1388 C 0.71722 0.41613 0.34992 0.0
C1389 C 0.74888 0.39803 0.3616 0.0
C1390 C 0.70531 0.43306 0.35279 0.0
C1391 C 0.71243 0.44994 0.36874 0.0
C1392 C 0.73633 0.41621 0.36316 0.0
C1393 C 0.73172 0.4497 0.38129 0.0
C1394 C 0.76899 0.3994 0.3733 0.0
C1395 C 0.75115 0.36204 0.34849 0.0
N1396 N 0.743 0.43307 0.37829 0.0
N1397 N 0.74065 0.37945 0.34948 0.0
H1398 H 0.57709 0.52528 0.01025 0.0
H1399 H 0.64337 0.43702 0.96086 0.0
H1400 H 0.60571 0.52954 0.95263 0.0
H1401 H 0.63224 0.44358 0.02622 0.0
H1402 H 0.62463 0.46794 0.95542 0.0
H1403 H 0.59238 0.49223 0.01438 0.0
C1404 C 0.58647 0.51917 0.99842 0.0
C1405 C 0.59026 0.53019 0.98114 0.0
C1406 C 0.62615 0.46256 0.97094 0.0
C1407 C 0.6077 0.49251 0.98572 0.0
C1408 C 0.63668 0.44495 0.97393 0.0
C1409 C 0.63917 0.43805 0.99394 0.0
C1410 C 0.61793 0.4731 0.98809 0.0
C1411 C 0.63051 0.44867 0.0106 0.0
C1412 C 0.59527 0.50041 1.00083 0.0
C1413 C 0.60264 0.52168 0.96632 0.0
N1414 N 0.62023 0.46574 0.00732 0.0
N1415 N 0.61089 0.50333 0.96893 0.0
H1416 H 0.69521 0.39197 0.152 0.0
H1417 H 0.66881 0.28528 0.07096 0.0
H1418 H 0.66496 0.3326 0.16681 0.0
H1419 H 0.69257 0.34486 0.05139 0.0
H1420 H 0.67114 0.30226 0.10701 0.0
H1421 H 0.69746 0.3751 0.11612 0.0
C1422 C 0.68906 0.3754 0.1478 0.0
C1423 C 0.67977 0.36377 0.16261 0.0
C1424 C 0.67574 0.31176 0.09488 0.0
C1425 C 0.6826 0.34431 0.1215 0.0
C1426 C 0.67434 0.30206 0.07414 0.0
C1427 C 0.67951 0.31373 0.05764 0.0
C1428 C 0.68264 0.3335 0.0996 0.0
C1429 C 0.68752 0.33526 0.06318 0.0
C1430 C 0.69046 0.36578 0.1273 0.0
C1431 C 0.67251 0.34224 0.15622 0.0
N1432 N 0.68862 0.34451 0.08366 0.0
N1433 N 0.67401 0.33331 0.13622 0.0
H1434 H 0.9988 0.27507 0.96545 0.0
H1435 H 0.98587 0.229 0.07421 0.0
H1436 H 0.01241 0.21235 0.9767 0.0
H1437 H 0.99422 0.29608 0.07058 0.0
H1438 H 0.99453 0.22253 0.03783 0.0
H1439 H 0.99666 0.28357 0.00343 0.0
C1440 C 0.00163 0.26318 0.9759 0.0
C1441 C 0.00546 0.24283 0.96777 0.0
C1442 C 0.99473 0.23871 0.04501 0.0
C1443 C 0.00266 0.25235 0.0111 0.0
C1444 C 0.98976 0.24232 0.06566 0.0
C1445 C 0.98945 0.26302 0.07513 0.0
C1446 C 0.99906 0.25597 0.03365 0.0
C1447 C 0.9945 0.27991 0.06365 0.0
C1448 C 1.00031 0.26803 0.99755 0.0
C1449 C 0.00884 0.22805 0.98211 0.0
N1450 N 0.99889 0.27603 0.04334 0.0
N1451 N 0.00712 0.23301 0.00298 0.0
H1452 H 0.36503 0.72573 0.33681 0.0
H1453 H 0.35039 0.73643 0.45934 0.0
H1454 H 0.32975 0.7728 0.36513 0.0
H1455 H 0.36672 0.67975 0.42552 0.0
H1456 H 0.34288 0.75054 0.42538 0.0
H1457 H 0.36676 0.70943 0.36961 0.0
C1458 C 0.35724 0.73241 0.34971 0.0
C1459 C 0.34723 0.75075 0.34808 0.0
C1460 C 0.3479 0.73492 0.42537 0.0
C1461 C 0.34916 0.73196 0.38583 0.0
C1462 C 0.35205 0.72687 0.4447 0.0
C1463 C 0.3593 0.70703 0.44514 0.0
C1464 C 0.35129 0.7231 0.40642 0.0
C1465 C 0.36147 0.69528 0.42581 0.0
C1466 C 0.35826 0.72306 0.36848 0.0
C1467 C 0.33789 0.75887 0.36568 0.0
N1468 N 0.35773 0.70357 0.40727 0.0
N1469 N 0.33918 0.74951 0.38383 0.0
H1470 H 0.03377 0.62995 0.54607 0.0
H1471 H 0.04953 0.66869 0.45081 0.0
H1472 H 0.96809 0.61665 0.51924 0.0
H1473 H 0.98571 0.68398 0.45071 0.0
H1474 H 0.04473 0.6483 0.48061 0.0
H1475 H 0.04117 0.64934 0.51636 0.0
C1476 C 0.02093 0.63108 0.53385 0.0
C1477 C 1.0003 0.62166 0.53504 0.0
C1478 C 0.03182 0.65628 0.47427 0.0
C1479 C 0.00872 0.64336 0.50075 0.0
C1480 C 0.03454 0.66771 0.45723 0.0
C1481 C 0.01796 0.67784 0.44851 0.0
C1482 C 0.01235 0.65505 0.48257 0.0
C1483 C 0.99871 0.67611 0.45702 0.0
C1484 C 0.02521 0.64189 0.51675 0.0
C1485 C 0.98425 0.6235 0.51876 0.0
N1486 N 0.99636 0.66481 0.47359 0.0
N1487 N 0.98876 0.6343 0.50233 0.0
H1488 H 0.85604 0.3354 0.6205 0.0
H1489 H 0.93197 0.33029 0.72802 0.0
H1490 H 0.83283 0.33621 0.68142 0.0
H1491 H 0.9528 0.33181 0.66641 0.0
H1492 H 0.89548 0.33189 0.71193 0.0
H1493 H 0.89146 0.33304 0.63753 0.0
C1494 C 0.85832 0.33487 0.63747 0.0
C1495 C 0.84128 0.33582 0.64947 0.0
C1496 C 0.90804 0.3315 0.70191 0.0
C1497 C 0.88222 0.33347 0.6693 0.0
C1498 C 0.92878 0.33035 0.71104 0.0
C1499 C 0.94531 0.32955 0.69835 0.0
C1500 C 0.9039 0.33229 0.67996 0.0
C1501 C 0.94052 0.33108 0.67665 0.0
C1502 C 0.87867 0.33369 0.64725 0.0
C1503 C 0.84547 0.33563 0.67153 0.0
N1504 N 0.92035 0.33223 0.66818 0.0
N1505 N 0.86551 0.33443 0.68073 0.0
H1506 H 0.66038 0.63195 0.26622 0.0
H1507 H 0.53948 0.64808 0.27214 0.0
H1508 H 0.62256 0.65904 0.21845 0.0
H1509 H 0.58007 0.63117 0.32429 0.0
H1510 H 0.57036 0.65465 0.25323 0.0
H1511 H 0.63193 0.63356 0.2886 0.0
C1512 C 0.6463 0.63866 0.2606 0.0
C1513 C 0.64382 0.64521 0.24031 0.0
C1514 C 0.57262 0.64977 0.26892 0.0
C1515 C 0.61112 0.64705 0.26594 0.0
C1516 C 0.55503 0.64618 0.27973 0.0
C1517 C 0.55736 0.63906 0.29969 0.0
C1518 C 0.59264 0.64596 0.27809 0.0
C1519 C 0.57772 0.63645 0.30879 0.0
C1520 C 0.63002 0.63954 0.27341 0.0
C1521 C 0.62503 0.65345 0.2338 0.0
N1522 N 0.59457 0.63967 0.29782 0.0
N1523 N 0.60936 0.65398 0.2465 0.0
H1524 H 0.4868 0.98912 0.41185 0.0
H1525 H 0.52991 0.99763 0.2998 0.0
H1526 H 0.45464 0.01694 0.36081 0.0
H1527 H 0.56636 0.97787 0.35317 0.0
H1528 H 0.50161 0.00389 0.32176 0.0
H1529 H 0.51584 0.98422 0.39065 0.0
C1530 C 0.48588 0.99431 0.39625 0.0
C1531 C 0.46816 0.00338 0.3881 0.0
C1532 C 0.51582 0.99831 0.32877 0.0
C1533 C 0.50126 0.99759 0.36364 0.0
C1534 C 0.53188 0.99473 0.31623 0.0
C1535 C 0.55037 0.98743 0.32485 0.0
C1536 C 0.51827 0.99438 0.35005 0.0
C1537 C 0.55237 0.98382 0.34615 0.0
C1538 C 0.50243 0.99142 0.38412 0.0
C1539 C 0.46775 0.00953 0.36764 0.0
N1540 N 0.53646 0.98727 0.35806 0.0
N1541 N 0.48401 0.00648 0.35613 0.0
H1542 H 0.03217 0.95211 0.7681 0.0
H1543 H 0.92666 0.96713 0.69422 0.0
H1544 H 0.02717 0.94539 0.69972 0.0
H1545 H 0.93234 0.97288 0.76238 0.0
H1546 H 0.9628 0.95735 0.69554 0.0
H1547 H 0.99504 0.95776 0.76603 0.0
C1548 C 0.0232 0.95148 0.7526 0.0
C1549 C 0.0329 0.94815 0.73404 0.0
C1550 C 0.95612 0.96059 0.71022 0.0
C1551 C 0.99023 0.95512 0.73159 0.0
C1552 C 0.93549 0.966 0.70943 0.0
C1553 C 0.92663 0.97059 0.72822 0.0
C1554 C 0.96792 0.95985 0.72998 0.0
C1555 C 0.93876 0.96945 0.74759 0.0
C1556 C 0.00198 0.95491 0.75144 0.0
C1557 C 0.02047 0.94808 0.71445 0.0
N1558 N 0.9588 0.96423 0.74799 0.0
N1559 N 0.99982 0.95157 0.71375 0.0
H1560 H 0.62019 0.84101 0.29886 0.0
H1561 H 0.71674 0.93261 0.33951 0.0
H1562 H 0.66813 0.83651 0.35073 0.0
H1563 H 0.66253 0.94019 0.29626 0.0
H1564 H 0.7021 0.89553 0.34034 0.0
H1565 H 0.63806 0.87572 0.29463 0.0
C1566 C 0.63449 0.84729 0.30937 0.0
C1567 C 0.64248 0.83583 0.32535 0.0
C1568 C 0.6932 0.90543 0.33096 0.0
C1569 C 0.66324 0.87566 0.32039 0.0
C1570 C 0.70144 0.92658 0.33068 0.0
C1571 C 0.68969 0.93999 0.31958 0.0
C1572 C 0.67348 0.89748 0.31925 0.0
C1573 C 0.67099 0.93102 0.30673 0.0
C1574 C 0.64475 0.86711 0.30687 0.0
C1575 C 0.66141 0.84465 0.33812 0.0
N1576 N 0.6633 0.91041 0.30712 0.0
N1577 N 0.67105 0.86408 0.33546 0.0
H1578 H 0.7044 0.02613 0.97954 0.0
H1579 H 0.75661 0.92051 0.96275 0.0
H1580 H 0.74598 0.0157 0.9316 0.0
H1581 H 0.69565 0.92068 0.98501 0.0
H1582 H 0.75455 0.95653 0.95331 0.0
H1583 H 0.70161 0.98838 0.98344 0.0
C1584 C 0.71264 0.01593 0.96953 0.0
C1585 C 0.72566 0.0243 0.95536 0.0
C1586 C 0.74147 0.94861 0.95999 0.0
C1587 C 0.72296 0.98115 0.96028 0.0
C1588 C 0.7427 0.92819 0.96534 0.0
C1589 C 0.72617 0.91786 0.97434 0.0
C1590 C 0.72379 0.95886 0.96421 0.0
C1591 C 0.70853 0.9283 0.97784 0.0
C1592 C 0.71113 0.99438 0.9719 0.0
C1593 C 0.7362 0.01018 0.94313 0.0
N1594 N 0.70786 0.9484 0.97297 0.0
N1595 N 0.73487 0.9894 0.9461 0.0
H1596 H 0.27483 0.67162 0.63207 0.0
H1597 H 0.26753 0.5518 0.65562 0.0
H1598 H 0.2339 0.64812 0.67585 0.0
H1599 H 0.32239 0.58415 0.63436 0.0
H1600 H 0.25347 0.58597 0.66195 0.0
H1601 H 0.29038 0.63844 0.63031 0.0
C1602 C 0.26938 0.65971 0.64168 0.0
C1603 C 0.25305 0.66286 0.65424 0.0
C1604 C 0.26868 0.58559 0.65609 0.0
C1605 C 0.27105 0.62467 0.65235 0.0
C1606 C 0.27672 0.56617 0.65263 0.0
C1607 C 0.29604 0.56523 0.64434 0.0
C1608 C 0.27991 0.60408 0.65089 0.0
C1609 C 0.30727 0.58421 0.64043 0.0
C1610 C 0.27829 0.64071 0.64064 0.0
C1611 C 0.24632 0.64642 0.66583 0.0
N1612 N 0.29892 0.60278 0.64345 0.0
N1613 N 0.2553 0.62803 0.66457 0.0
H1614 H 0.39675 0.46104 0.97885 0.0
H1615 H 0.36335 0.56346 0.04375 0.0
H1616 H 0.41666 0.47928 0.04571 0.0
H1617 H 0.35536 0.55221 0.97557 0.0
H1618 H 0.38307 0.53266 0.04501 0.0
H1619 H 0.3811 0.49413 0.97731 0.0
C1620 C 0.39785 0.47204 0.99319 0.0
C1621 C 0.40796 0.46739 0.01245 0.0
C1622 C 0.37712 0.53697 0.02975 0.0
C1623 C 0.39013 0.50526 0.01083 0.0
C1624 C 0.36596 0.55449 0.02909 0.0
C1625 C 0.35761 0.55999 0.00957 0.0
C1626 C 0.37977 0.52487 0.0107 0.0
C1627 C 0.36129 0.54809 0.9909 0.0
C1628 C 0.38903 0.49097 0.99229 0.0
C1629 C 0.40917 0.48232 0.0305 0.0
N1630 N 0.37194 0.53093 0.99191 0.0
N1631 N 0.40021 0.50051 0.02929 0.0
H1632 H 0.35052 0.61432 0.86041 0.0
H1633 H 0.29332 0.69115 0.93684 0.0
H1634 H 0.30644 0.65524 0.83696 0.0
H1635 H 0.35036 0.66512 0.95755 0.0
H1636 H 0.29393 0.67355 0.90099 0.0
H1637 H 0.34696 0.62867 0.89672 0.0
C1638 C 0.33997 0.62624 0.86289 0.0
C1639 C 0.32873 0.63355 0.84555 0.0
C1640 C 0.30623 0.67159 0.91345 0.0
C1641 C 0.32458 0.65008 0.88725 0.0
C1642 C 0.30584 0.68155 0.93398 0.0
C1643 C 0.32194 0.67994 0.95035 0.0
C1644 C 0.32271 0.65961 0.90919 0.0
C1645 C 0.33763 0.66703 0.94558 0.0
C1646 C 0.33803 0.63449 0.88365 0.0
C1647 C 0.31553 0.64925 0.84981 0.0
N1648 N 0.33767 0.65747 0.92548 0.0
N1649 N 0.31376 0.65693 0.87021 0.0
H1650 H 0.02288 0.73713 0.04406 0.0
H1651 H 0.98227 0.75437 0.92513 0.0
H1652 H 0.96599 0.76505 0.02679 0.0
H1653 H 0.03401 0.71911 0.94126 0.0
H1654 H 0.97529 0.7575 0.96224 0.0
H1655 H 0.02645 0.72907 0.00649 0.0
C1656 C 0.01095 0.74128 0.03238 0.0
C1657 C 0.99418 0.75192 0.03864 0.0
C1658 C 0.98811 0.74896 0.95769 0.0
C1659 C 0.99842 0.74309 0.99554 0.0
C1660 C 0.99199 0.74715 0.93656 0.0
C1661 C 0.00875 0.73661 0.93037 0.0
C1662 C 0.0012 0.74023 0.97271 0.0
C1663 C 0.02113 0.72763 0.94564 0.0
C1664 C 0.01309 0.7368 0.01091 0.0
C1665 C 0.97939 0.75718 0.02274 0.0
N1666 N 0.0172 0.72975 0.96617 0.0
N1667 N 0.98194 0.75286 0.00196 0.0
H1668 H 0.6342 0.27814 0.67018 0.0
H1669 H 0.64913 0.27056 0.54714 0.0
H1670 H 0.66113 0.22672 0.63771 0.0
H1671 H 0.63132 0.32558 0.58253 0.0
H1672 H 0.65535 0.25474 0.5803 0.0
H1673 H 0.63429 0.29616 0.63849 0.0
C1674 C 0.6405 0.27078 0.65656 0.0
C1675 C 0.64756 0.25075 0.65669 0.0
C1676 C 0.65026 0.27036 0.58087 0.0
C1677 C 0.64759 0.27143 0.62013 0.0
C1678 C 0.64687 0.2794 0.56199 0.0
C1679 C 0.63961 0.2993 0.5622 0.0
C1680 C 0.64616 0.28127 0.60003 0.0
C1681 C 0.63664 0.31007 0.58174 0.0
C1682 C 0.64048 0.28109 0.63839 0.0
C1683 C 0.65518 0.24194 0.63829 0.0
N1684 N 0.63968 0.30084 0.59981 0.0
N1685 N 0.65487 0.25225 0.62075 0.0
H1686 H 0.00097 0.41714 0.49342 0.0
H1687 H 0.0183 0.31347 0.54928 0.0
H1688 H 0.02108 0.36077 0.46217 0.0
H1689 H 0.98158 0.36081 0.57381 0.0
H1690 H 0.02389 0.33328 0.51927 0.0
H1691 H 0.99752 0.39914 0.52493 0.0
C1692 C 0.00458 0.40098 0.49311 0.0
C1693 C 0.01135 0.39048 0.47505 0.0
C1694 C 0.01481 0.33953 0.53131 0.0
C1695 C 0.00781 0.37 0.51121 0.0
C1696 C 0.01178 0.32831 0.54841 0.0
C1697 C 0.99992 0.33588 0.56405 0.0
C1698 C 0.0058 0.35844 0.52985 0.0
C1699 C 0.99131 0.35489 0.56224 0.0
C1700 C 0.00272 0.39078 0.51116 0.0
C1701 C 0.01617 0.36966 0.47578 0.0
N1702 N 0.99443 0.3656 0.54539 0.0
N1703 N 0.01433 0.36015 0.49354 0.0
H1704 H 0.33563 0.61077 0.51674 0.0
H1705 H 0.27348 0.55235 0.60028 0.0
H1706 H 0.26734 0.59952 0.51126 0.0
H1707 H 0.34047 0.55353 0.59756 0.0
H1708 H 0.2709 0.57273 0.56983 0.0
H1709 H 0.33774 0.5934 0.54881 0.0
C1710 C 0.32104 0.60484 0.52239 0.0
C1711 C 0.30125 0.60667 0.51124 0.0
C1712 C 0.28617 0.56854 0.57587 0.0
C1713 C 0.30361 0.58626 0.54786 0.0
C1714 C 0.28761 0.55699 0.59318 0.0
C1715 C 0.30718 0.55129 0.60114 0.0
C1716 C 0.30451 0.57448 0.56662 0.0
C1717 C 0.32511 0.55754 0.5916 0.0
C1718 C 0.32228 0.59473 0.54062 0.0
C1719 C 0.28293 0.59827 0.51918 0.0
N1720 N 0.32337 0.56884 0.57483 0.0
N1721 N 0.28455 0.58841 0.53699 0.0
H1722 H 0.26732 0.44824 0.94701 0.0
H1723 H 0.31199 0.57138 0.95755 0.0
H1724 H 0.28151 0.48176 0.89433 0.0
H1725 H 0.31387 0.53636 0.01131 0.0
H1726 H 0.29616 0.53918 0.93458 0.0
H1727 H 0.2803 0.48075 0.97133 0.0
C1728 C 0.27312 0.46244 0.94059 0.0
C1729 C 0.2735 0.4623 0.91865 0.0
C1730 C 0.29986 0.53847 0.95142 0.0
C1731 C 0.28813 0.49939 0.94622 0.0
C1732 C 0.30864 0.55689 0.9645 0.0
C1733 C 0.3139 0.55642 0.98626 0.0
C1734 C 0.29633 0.51937 0.96015 0.0
C1735 C 0.30986 0.5372 0.99456 0.0
C1736 C 0.28057 0.48091 0.95445 0.0
C1737 C 0.28123 0.48108 0.91114 0.0
N1738 N 0.30129 0.51934 0.98146 0.0
N1739 N 0.28816 0.49883 0.92487 0.0
H1740 H 0.66726 0.93964 0.45598 0.0
H1741 H 0.65672 0.99475 0.35014 0.0
H1742 H 0.64997 0.00281 0.45438 0.0
H1743 H 0.70321 0.95312 0.36516 0.0
H1744 H 0.64313 0.99022 0.38382 0.0
H1745 H 0.66874 0.93669 0.41769 0.0
C1746 C 0.66332 0.9527 0.44747 0.0
C1747 C 0.65874 0.9716 0.4583 0.0
C1748 C 0.65577 0.98143 0.37923 0.0
C1749 C 0.66037 0.96828 0.41473 0.0
C1750 C 0.66342 0.9838 0.35991 0.0
C1751 C 0.6805 0.97332 0.35409 0.0
C1752 C 0.66528 0.96849 0.3928 0.0
C1753 C 0.6892 0.96026 0.36806 0.0
C1754 C 0.66425 0.95103 0.42571 0.0
C1755 C 0.65389 0.98811 0.44658 0.0
N1756 N 0.68154 0.95823 0.38675 0.0
N1757 N 0.65498 0.98614 0.42536 0.0
H1758 H 0.82337 0.96552 0.1034 0.0
H1759 H 0.71991 0.92021 0.02226 0.0
H1760 H 0.75943 0.97504 0.11408 0.0
H1761 H 0.78226 0.90505 0.01269 0.0
H1762 H 0.73522 0.94519 0.05335 0.0
H1763 H 0.80973 0.94766 0.06786 0.0
C1764 C 0.80651 0.96402 0.09825 0.0
C1765 C 0.79253 0.97171 0.11186 0.0
C1766 C 0.74567 0.93663 0.04439 0.0
C1767 C 0.77688 0.95145 0.07119 0.0
C1768 C 0.73693 0.92254 0.02662 0.0
C1769 C 0.74994 0.91074 0.01516 0.0
C1770 C 0.76762 0.93873 0.05083 0.0
C1771 C 0.77184 0.91391 0.02139 0.0
C1772 C 0.79876 0.9539 0.07793 0.0
C1773 C 0.77088 0.96963 0.10415 0.0
N1774 N 0.78004 0.9275 0.03899 0.0
N1775 N 0.76374 0.95957 0.08444 0.0
H1776 H 0.51899 0.34542 0.61571 0.0
H1777 H 0.59441 0.27881 0.55009 0.0
H1778 H 0.50573 0.27769 0.59821 0.0
H1779 H 0.59544 0.34641 0.55299 0.0
H1780 H 0.56485 0.27766 0.57175 0.0
H1781 H 0.55022 0.34564 0.59711 0.0
C1782 C 0.52253 0.33057 0.60788 0.0
C1783 C 0.5094 0.31153 0.60834 0.0
C1784 C 0.57153 0.29274 0.56764 0.0
C1785 C 0.54549 0.31171 0.58708 0.0
C1786 C 0.58831 0.29336 0.55535 0.0
C1787 C 0.59707 0.31271 0.54976 0.0
C1788 C 0.56367 0.31167 0.5745 0.0
C1789 C 0.58883 0.33122 0.55688 0.0
C1790 C 0.54048 0.33072 0.59733 0.0
C1791 C 0.51535 0.29274 0.59843 0.0
N1792 N 0.57262 0.33027 0.56892 0.0
N1793 N 0.53289 0.29332 0.58812 0.0
H1794 H 0.15557 0.75878 0.97447 0.0
H1795 H 0.03785 0.77767 0.93053 0.0
H1796 H 0.13008 0.81723 0.99106 0.0
H1797 H 0.06897 0.7251 0.90733 0.0
H1798 H 0.07025 0.79173 0.95478 0.0
H1799 H 0.12264 0.74529 0.95188 0.0
C1800 C 0.14291 0.7687 0.97355 0.0
C1801 C 0.14553 0.78911 0.98482 0.0
C1802 C 0.07002 0.77718 0.94431 0.0
C1803 C 0.10773 0.77383 0.9586 0.0
C1804 C 0.05161 0.76921 0.93058 0.0
C1805 C 0.05106 0.75044 0.9169 0.0
C1806 C 0.08781 0.76608 0.94438 0.0
C1807 C 0.06905 0.73983 0.91745 0.0
C1808 C 0.12415 0.76105 0.96048 0.0
C1809 C 0.12874 0.80144 0.98259 0.0
N1810 N 0.0867 0.74778 0.93098 0.0
N1811 N 0.1105 0.79358 0.96975 0.0
H1812 H 0.93036 0.23816 0.45285 0.0
H1813 H 0.9504 0.31962 0.55981 0.0
H1814 H 0.89042 0.28631 0.46845 0.0
H1815 H 0.98938 0.27016 0.54744 0.0
H1816 H 0.92886 0.30793 0.52558 0.0
H1817 H 0.95292 0.24988 0.48658 0.0
C1818 C 0.92634 0.2512 0.46333 0.0
C1819 C 0.90845 0.26127 0.45775 0.0
C1820 C 0.94202 0.29948 0.53028 0.0
C1821 C 0.93423 0.27478 0.4963 0.0
C1822 C 0.9542 0.30614 0.54978 0.0
C1823 C 0.97133 0.29561 0.55629 0.0
C1824 C 0.94709 0.28215 0.51713 0.0
C1825 C 0.97601 0.27838 0.54289 0.0
C1826 C 0.93926 0.25791 0.48255 0.0
C1827 C 0.90419 0.27825 0.47185 0.0
N1828 N 0.96391 0.27214 0.52385 0.0
N1829 N 0.91692 0.2844 0.49044 0.0
H1830 H 0.47588 0.7185 0.98013 0.0
H1831 H 0.37477 0.7004 0.00246 0.0
H1832 H 0.45262 0.67338 0.92494 0.0
H1833 H 0.35665 0.71295 0.93853 0.0
H1834 H 0.41043 0.69684 0.99414 0.0
H1835 H 0.43946 0.72441 0.98436 0.0
C1836 C 0.46313 0.71011 0.96867 0.0
C1837 C 0.46725 0.69536 0.9522 0.0
C1838 C 0.39866 0.70036 0.98191 0.0
C1839 C 0.42563 0.70197 0.95711 0.0
C1840 C 0.37829 0.70225 0.98658 0.0
C1841 C 0.36283 0.70695 0.97112 0.0
C1842 C 0.4037 0.70309 0.96158 0.0
C1843 C 0.36829 0.70933 0.95079 0.0
C1844 C 0.44241 0.71342 0.97117 0.0
C1845 C 0.45003 0.6847 0.93798 0.0
N1846 N 0.38844 0.70724 0.94647 0.0
N1847 N 0.42984 0.68816 0.94079 0.0
H1848 H 0.60994 0.51322 0.33834 0.0
H1849 H 0.54535 0.59494 0.27938 0.0
H1850 H 0.59707 0.50899 0.27022 0.0
H1851 H 0.55161 0.59302 0.34681 0.0
H1852 H 0.56634 0.56508 0.2755 0.0
H1853 H 0.59059 0.54395 0.34163 0.0
C1854 C 0.60325 0.51894 0.32404 0.0
C1855 C 0.60521 0.50858 0.30396 0.0
C1856 C 0.56315 0.57116 0.29116 0.0
C1857 C 0.58296 0.54387 0.30762 0.0
C1858 C 0.55126 0.58817 0.29333 0.0
C1859 C 0.54686 0.59623 0.31342 0.0
C1860 C 0.57066 0.56225 0.30925 0.0
C1861 C 0.55466 0.58703 0.33109 0.0
C1862 C 0.59207 0.53641 0.32594 0.0
C1863 C 0.59585 0.51645 0.286 0.0
N1864 N 0.56621 0.57052 0.32861 0.0
N1865 N 0.58518 0.53368 0.28825 0.0
H1866 H 0.99253 0.10587 0.76335 0.0
H1867 H 0.90225 0.01385 0.77869 0.0
H1868 H 0.95182 0.11052 0.81274 0.0
H1869 H 0.9348 0.01482 0.72335 0.0
H1870 H 0.92524 0.04607 0.79527 0.0
H1871 H 0.97648 0.0693 0.75235 0.0
C1872 C 0.98032 0.09915 0.77198 0.0
C1873 C 0.97331 0.11139 0.78881 0.0
C1874 C 0.92758 0.03906 0.77963 0.0
C1875 C 0.95496 0.0695 0.77638 0.0
C1876 C 0.91453 0.02075 0.77026 0.0
C1877 C 0.91673 0.01191 0.74972 0.0
C1878 C 0.9429 0.04852 0.76829 0.0
C1879 C 0.93281 0.02118 0.7393 0.0
C1880 C 0.97122 0.07825 0.76574 0.0
C1881 C 0.95779 0.10169 0.79973 0.0
N1882 N 0.9452 0.03912 0.74863 0.0
N1883 N 0.94897 0.08139 0.79318 0.0
H1884 H 0.45817 0.87112 0.27841 0.0
H1885 H 0.53977 0.96794 0.25563 0.0
H1886 H 0.44765 0.90557 0.22456 0.0
H1887 H 0.54407 0.94039 0.31413 0.0
H1888 H 0.50681 0.94414 0.24299 0.0
H1889 H 0.49023 0.89554 0.29115 0.0
C1890 C 0.46244 0.88391 0.26933 0.0
C1891 C 0.45006 0.88619 0.25032 0.0
C1892 C 0.51494 0.94327 0.2586 0.0
C1893 C 0.48718 0.91409 0.26471 0.0
C1894 C 0.53373 0.95673 0.26569 0.0
C1895 C 0.54447 0.95593 0.28583 0.0
C1896 C 0.50699 0.92883 0.27175 0.0
C1897 C 0.53607 0.94141 0.29851 0.0
C1898 C 0.48088 0.89779 0.27657 0.0
C1899 C 0.45679 0.9029 0.2391 0.0
N1900 N 0.51785 0.92838 0.29126 0.0
N1901 N 0.47488 0.91614 0.24642 0.0
H1902 H 0.94289 0.46158 0.67419 0.0
H1903 H 0.0021 0.35784 0.66913 0.0
H1904 H 0.00467 0.46059 0.65331 0.0
H1905 H 0.95771 0.37233 0.71294 0.0
H1906 H 0.99749 0.39125 0.65443 0.0
H1907 H 0.94213 0.42415 0.67897 0.0
C1908 C 0.95611 0.45337 0.67019 0.0
C1909 C 0.97397 0.46423 0.66356 0.0
C1910 C 0.98855 0.38687 0.66705 0.0
C1911 C 0.97326 0.42152 0.66917 0.0
C1912 C 0.99119 0.3679 0.6754 0.0
C1913 C 0.98035 0.36245 0.6923 0.0
C1914 C 0.97472 0.40018 0.67552 0.0
C1915 C 0.96626 0.37591 0.69985 0.0
C1916 C 0.95572 0.43207 0.67306 0.0
C1917 C 0.99075 0.45284 0.65879 0.0
N1918 N 0.96388 0.39417 0.69145 0.0
N1919 N 0.99007 0.43208 0.66184 0.0
H1920 H 0.72178 0.42609 0.51263 0.0
H1921 H 0.67791 0.42872 0.39053 0.0
H1922 H 0.68428 0.37286 0.47348 0.0
H1923 H 0.71068 0.48289 0.43174 0.0
H1924 H 0.6821 0.40702 0.41983 0.0
H1925 H 0.7204 0.44612 0.48222 0.0
C1926 C 0.71346 0.41851 0.49755 0.0
C1927 C 0.703 0.3978 0.49563 0.0
C1928 C 0.68833 0.42366 0.42252 0.0
C1929 C 0.70106 0.42079 0.46076 0.0
C1930 C 0.68593 0.43595 0.40585 0.0
C1931 C 0.6937 0.45755 0.40899 0.0
C1932 C 0.69871 0.4331 0.44242 0.0
C1933 C 0.70412 0.46636 0.42894 0.0
C1934 C 0.71252 0.43003 0.48022 0.0
C1935 C 0.69223 0.38891 0.47574 0.0
N1936 N 0.70631 0.45411 0.44493 0.0
N1937 N 0.69147 0.40046 0.4591 0.0
H1938 H 0.73269 0.54882 0.05982 0.0
H1939 H 0.67771 0.42921 0.05189 0.0
H1940 H 0.70982 0.52048 0.11247 0.0
H1941 H 0.68408 0.46095 0.99658 0.0
H1942 H 0.69293 0.46195 0.07443 0.0
H1943 H 0.71809 0.51626 0.03628 0.0
C1944 C 0.7246 0.53576 0.0664 0.0
C1945 C 0.72236 0.53738 0.0881 0.0
C1946 C 0.69109 0.46184 0.05737 0.0
C1947 C 0.70582 0.5002 0.06141 0.0
C1948 C 0.6826 0.44313 0.04458 0.0
C1949 C 0.67995 0.44252 0.02251 0.0
C1950 C 0.69705 0.48008 0.04799 0.0
C1951 C 0.68602 0.46097 0.01362 0.0
C1952 C 0.71622 0.51726 0.05297 0.0
C1953 C 0.71166 0.52005 0.09581 0.0
N1954 N 0.6944 0.47908 0.02642 0.0
N1955 N 0.7039 0.50219 0.08251 0.0
H1956 H 0.35073 0.01526 0.54691 0.0
H1957 H 0.29475 0.06231 0.64463 0.0
H1958 H 0.3154 0.06889 0.54497 0.0
H1959 H 0.32437 0.0051 0.64255 0.0
H1960 H 0.30669 0.06852 0.61022 0.0
H1961 H 0.34617 0.01501 0.58423 0.0
C1962 C 0.3423 0.02721 0.55441 0.0
C1963 C 0.33327 0.042 0.54271 0.0
C1964 C 0.31083 0.05475 0.61743 0.0
C1965 C 0.32762 0.04154 0.58542 0.0
C1966 C 0.30409 0.05132 0.63698 0.0
C1967 C 0.30882 0.0333 0.64618 0.0
C1968 C 0.32222 0.03992 0.60718 0.0
C1969 C 0.32068 0.01925 0.63585 0.0
C1970 C 0.33955 0.02695 0.5757 0.0
C1971 C 0.32227 0.05693 0.55327 0.0
N1972 N 0.32692 0.02279 0.61683 0.0
N1973 N 0.31961 0.05622 0.57398 0.0
H1974 H 0.18886 0.00672 0.86469 0.0
H1975 H 0.27924 0.0925 0.93153 0.0
H1976 H 0.24783 0.0285 0.84258 0.0
H1977 H 0.2227 0.06953 0.95677 0.0
H1978 H 0.26834 0.06756 0.89934 0.0
H1979 H 0.20093 0.02835 0.89891 0.0
C1980 C 0.20434 0.01597 0.86703 0.0
C1981 C 0.21737 0.0157 0.85071 0.0
C1982 C 0.25827 0.06781 0.91188 0.0
C1983 C 0.23129 0.04037 0.88982 0.0
C1984 C 0.2645 0.08206 0.93016 0.0
C1985 C 0.25163 0.08311 0.94645 0.0
C1986 C 0.23893 0.05454 0.90984 0.0
C1987 C 0.23288 0.06911 0.94433 0.0
C1988 C 0.21126 0.02822 0.8866 0.0
C1989 C 0.23736 0.02788 0.85474 0.0
N1990 N 0.22693 0.05547 0.92621 0.0
N1991 N 0.24363 0.03973 0.87379 0.0
H1992 H 0.47783 0.66459 0.38764 0.0
H1993 H 0.40544 0.72864 0.45879 0.0
H1994 H 0.49597 0.73026 0.4128 0.0
H1995 H 0.40332 0.66078 0.45216 0.0
H1996 H 0.43518 0.73071 0.43734 0.0
H1997 H 0.4467 0.66414 0.40618 0.0
C1998 C 0.4753 0.67896 0.39697 0.0
C1999 C 0.48979 0.69741 0.39859 0.0
C2000 C 0.4282 0.71538 0.44058 0.0
C2001 C 0.45384 0.69703 0.42007 0.0
C2002 C 0.41132 0.71423 0.45271 0.0
C2003 C 0.40225 0.69453 0.4572 0.0
C2004 C 0.43572 0.69662 0.43267 0.0
C2005 C 0.41017 0.67621 0.44909 0.0
C2006 C 0.45745 0.67868 0.40761 0.0
C2007 C 0.48527 0.71567 0.41082 0.0
N2008 N 0.42642 0.67767 0.43713 0.0
N2009 N 0.46774 0.715 0.42116 0.0
H2010 H 0.85958 0.22939 0.00166 0.0
H2011 H 0.94149 0.22149 0.10396 0.0
H2012 H 0.84844 0.18446 0.04608 0.0
H2013 H 0.94668 0.27218 0.06509 0.0
H2014 H 0.90984 0.20456 0.08026 0.0
H2015 H 0.89413 0.24203 0.0219 0.0
C2016 C 0.86442 0.22212 0.01564 0.0
C2017 C 0.85093 0.20601 0.02232 0.0
C2018 C 0.91798 0.2193 0.0768 0.0
C2019 C 0.89063 0.22034 0.04552 0.0
C2020 C 0.93595 0.22891 0.09031 0.0
C2021 C 0.94649 0.2482 0.0864 0.0
C2022 C 0.91061 0.22909 0.05925 0.0
C2023 C 0.939 0.25721 0.06847 0.0
C2024 C 0.8842 0.2293 0.02715 0.0
C2025 C 0.85831 0.19685 0.04028 0.0
N2026 N 0.92144 0.24763 0.0556 0.0
N2027 N 0.87759 0.20427 0.05136 0.0
H2028 H 0.14538 0.75569 0.52321 0.0
H2029 H 0.02538 0.72112 0.47 0.0
H2030 H 0.09224 0.75173 0.55925 0.0
H2031 H 0.07927 0.71165 0.43693 0.0
H2032 H 0.04946 0.73475 0.50242 0.0
H2033 H 0.12134 0.74206 0.49093 0.0
C2034 C 0.12864 0.75202 0.52433 0.0
C2035 C 0.12083 0.75492 0.544 0.0
C2036 C 0.05606 0.72981 0.48806 0.0
C2037 C 0.09317 0.73925 0.50703 0.0
C2038 C 0.04233 0.72208 0.46961 0.0
C2039 C 0.05041 0.71553 0.4508 0.0
C2040 C 0.07808 0.73112 0.48766 0.0
C2041 C 0.07247 0.717 0.45102 0.0
C2042 C 0.11493 0.74413 0.5059 0.0
C2043 C 0.099 0.74959 0.54449 0.0
N2044 N 0.08555 0.72469 0.46914 0.0
N2045 N 0.08594 0.74213 0.52629 0.0
H2046 H 0.54283 0.33859 0.04611 0.0
H2047 H 0.62894 0.25731 0.0443 0.0
H2048 H 0.52652 0.27144 0.04743 0.0
H2049 H 0.64067 0.32394 0.03925 0.0
H2050 H 0.59273 0.26219 0.05159 0.0
H2051 H 0.58003 0.33369 0.04983 0.0
C2052 C 0.54704 0.32283 0.04754 0.0
C2053 C 0.5314 0.3054 0.0463 0.0
C2054 C 0.60334 0.2757 0.04877 0.0
C2055 C 0.5743 0.29952 0.05001 0.0
C2056 C 0.62385 0.27285 0.04422 0.0
C2057 C 0.63729 0.28989 0.03903 0.0
C2058 C 0.59664 0.29592 0.0488 0.0
C2059 C 0.63061 0.31006 0.04151 0.0
C2060 C 0.56838 0.31999 0.04951 0.0
C2061 C 0.53799 0.28529 0.04787 0.0
N2062 N 0.61075 0.31245 0.04584 0.0
N2063 N 0.55895 0.28285 0.04941 0.0
H2064 H 0.42911 0.51148 0.72388 0.0
H2065 H 0.43063 0.39268 0.67056 0.0
H2066 H 0.37513 0.47389 0.68592 0.0
H2067 H 0.47956 0.42431 0.71883 0.0
H2068 H 0.41082 0.42321 0.67508 0.0
H2069 H 0.4482 0.48032 0.72227 0.0
C2070 C 0.42117 0.49663 0.7154 0.0
C2071 C 0.40053 0.49539 0.7048 0.0
C2072 C 0.42566 0.42335 0.68499 0.0
C2073 C 0.42245 0.45976 0.70259 0.0
C2074 C 0.43692 0.40598 0.68238 0.0
C2075 C 0.45647 0.40605 0.69455 0.0
C2076 C 0.434 0.4409 0.69991 0.0
C2077 C 0.46443 0.42382 0.70924 0.0
C2078 C 0.43214 0.47888 0.71438 0.0
C2079 C 0.39117 0.47574 0.69388 0.0
N2080 N 0.45316 0.4406 0.71154 0.0
N2081 N 0.40223 0.45879 0.69294 0.0
H2082 H 0.05057 0.87819 0.25267 0.0
H2083 H 0.08001 0.99795 0.2306 0.0
H2084 H 0.02659 0.90095 0.19468 0.0
H2085 H 0.11182 0.96899 0.28066 0.0
H2086 H 0.05782 0.96383 0.21818 0.0
H2087 H 0.07036 0.91288 0.26457 0.0
C2088 C 0.04924 0.89061 0.24254 0.0
C2089 C 0.03678 0.88671 0.22271 0.0
C2090 C 0.06976 0.96493 0.23178 0.0
C2091 C 0.05985 0.92651 0.23609 0.0
C2092 C 0.08234 0.98427 0.23877 0.0
C2093 C 0.09786 0.98588 0.25631 0.0
C2094 C 0.07269 0.94736 0.24271 0.0
C2095 C 0.10026 0.96806 0.26677 0.0
C2096 C 0.06073 0.91038 0.24926 0.0
C2097 C 0.03609 0.90329 0.21004 0.0
N2098 N 0.08781 0.94953 0.25982 0.0
N2099 N 0.04748 0.92253 0.21696 0.0
H2100 H 0.55174 0.08654 0.77135 0.0
H2101 H 0.44586 0.06418 0.68819 0.0
H2102 H 0.53207 0.13004 0.7282 0.0
H2103 H 0.46209 0.02138 0.73301 0.0
H2104 H 0.47799 0.08815 0.70253 0.0
H2105 H 0.51966 0.06217 0.75762 0.0
C2106 C 0.54068 0.09103 0.75906 0.0
C2107 C 0.54473 0.11045 0.75095 0.0
C2108 C 0.47457 0.07362 0.70941 0.0
C2109 C 0.50798 0.08247 0.73503 0.0
C2110 C 0.45625 0.06003 0.70124 0.0
C2111 C 0.45134 0.0411 0.70971 0.0
C2112 C 0.48825 0.06819 0.72617 0.0
C2113 C 0.46527 0.0361 0.7264 0.0
C2114 C 0.5224 0.07705 0.75117 0.0
C2115 C 0.5299 0.11518 0.73477 0.0
N2116 N 0.48316 0.04958 0.73413 0.0
N2117 N 0.51226 0.10135 0.72741 0.0
H2118 H 0.02006 0.54311 0.36214 0.0
H2119 H 0.00405 0.61783 0.2842 0.0
H2120 H 0.05395 0.53523 0.30758 0.0
H2121 H 0.04409 0.65126 0.3393 0.0
H2122 H 0.01253 0.5845 0.29557 0.0
H2123 H 0.02081 0.581 0.3583 0.0
C2124 C 0.02815 0.54938 0.34974 0.0
C2125 C 0.03654 0.53586 0.33484 0.0
C2126 C 0.01923 0.59921 0.30523 0.0
C2127 C 0.03724 0.5788 0.33047 0.0
C2128 C 0.01435 0.61829 0.29889 0.0
C2129 C 0.02278 0.6376 0.31107 0.0
C2130 C 0.03249 0.59922 0.32407 0.0
C2131 C 0.03654 0.63691 0.32973 0.0
C2132 C 0.02858 0.57095 0.34764 0.0
C2133 C 0.04668 0.5449 0.319 0.0
N2134 N 0.04082 0.61791 0.33588 0.0
N2135 N 0.04625 0.5657 0.31688 0.0
H2136 H 0.37715 0.65471 0.31573 0.0
H2137 H 0.49144 0.62848 0.35891 0.0
H2138 H 0.40058 0.66286 0.38257 0.0
H2139 H 0.47786 0.64742 0.29676 0.0
H2140 H 0.45597 0.63573 0.3666 0.0
H2141 H 0.41253 0.64858 0.30762 0.0
C2142 C 0.38969 0.65546 0.32874 0.0
C2143 C 0.38564 0.65924 0.34993 0.0
C2144 C 0.46096 0.63875 0.35146 0.0
C2145 C 0.42614 0.65153 0.3406 0.0
C2146 C 0.48103 0.6344 0.34701 0.0
C2147 C 0.48753 0.63752 0.32726 0.0
C2148 C 0.44747 0.64664 0.3362 0.0
C2149 C 0.47353 0.64523 0.31232 0.0
C2150 C 0.40988 0.65179 0.32404 0.0
C2151 C 0.40264 0.65953 0.36601 0.0
N2152 N 0.45412 0.64953 0.31708 0.0
N2153 N 0.42204 0.65553 0.36101 0.0
H2154 H 0.14075 0.31378 0.74244 0.0
H2155 H 0.02842 0.34528 0.7672 0.0
H2156 H 0.12999 0.34277 0.80396 0.0
H2157 H 0.03747 0.30467 0.71138 0.0
H2158 H 0.0652 0.34439 0.78122 0.0
H2159 H 0.10275 0.30983 0.73115 0.0
C2160 C 0.13043 0.31908 0.75371 0.0
C2161 C 0.13874 0.32868 0.77422 0.0
C2162 C 0.05891 0.33503 0.76624 0.0
C2163 C 0.09501 0.32461 0.76112 0.0
C2164 C 0.03765 0.33512 0.7584 0.0
C2165 C 0.02889 0.32315 0.73899 0.0
C2166 C 0.07197 0.32379 0.75412 0.0
C2167 C 0.04278 0.31262 0.72717 0.0
C2168 C 0.10867 0.31694 0.74717 0.0
C2169 C 0.12443 0.33562 0.78788 0.0
N2170 N 0.06348 0.3131 0.73494 0.0
N2171 N 0.10332 0.33356 0.78105 0.0
H2172 H 0.76295 0.98791 0.63225 0.0
H2173 H 0.83544 0.97472 0.73861 0.0
H2174 H 0.73712 0.97118 0.68864 0.0
H2175 H 0.85907 0.97651 0.67834 0.0
H2176 H 0.79918 0.97367 0.72088 0.0
H2177 H 0.79829 0.98434 0.64904 0.0
C2178 C 0.76464 0.98329 0.64809 0.0
C2179 C 0.74694 0.97982 0.65901 0.0
C2180 C 0.81223 0.974 0.71146 0.0
C2181 C 0.78755 0.97604 0.67847 0.0
C2182 C 0.83281 0.97454 0.72156 0.0
C2183 C 0.84999 0.97555 0.70978 0.0
C2184 C 0.80895 0.97479 0.68946 0.0
C2185 C 0.84607 0.97549 0.6878 0.0
C2186 C 0.78488 0.98134 0.6577 0.0
C2187 C 0.75029 0.97433 0.6797 0.0
N2188 N 0.82594 0.97532 0.67833 0.0
N2189 N 0.77018 0.97269 0.68878 0.0
H2190 H 0.76277 0.98553 0.33141 0.0
H2191 H 0.62211 0.00815 0.27782 0.0
H2192 H 0.73432 0.99598 0.29176 0.0
H2193 H 0.62416 0.96133 0.32108 0.0
H2194 H 0.66114 0.01108 0.27956 0.0
H2195 H 0.7282 0.97738 0.35216 0.0
C2196 C 0.74734 0.9873 0.32353 0.0
C2197 C 0.74518 0.99475 0.29896 0.0
C2198 C 0.65302 1.00017 0.28866 0.0
C2199 C 0.68805 0.98921 0.3026 0.0
C2200 C 0.63089 0.99849 0.2876 0.0
C2201 C 0.62024 0.98451 0.29937 0.0
C2202 C 0.66437 0.98791 0.30171 0.0
C2203 C 0.63199 0.97229 0.31184 0.0
C2204 C 0.72737 0.98209 0.33628 0.0
C2205 C 0.72291 0.99806 0.28168 0.0
N2206 N 0.65341 0.97427 0.31262 0.0
N2207 N 0.6992 0.99555 0.28409 0.0
H2208 H 0.31088 0.38224 0.6601 0.0
H2209 H 0.35192 0.49866 0.63694 0.0
H2210 H 0.37719 0.40608 0.66505 0.0
H2211 H 0.28934 0.48262 0.65358 0.0
H2212 H 0.36099 0.4639 0.64498 0.0
H2213 H 0.30201 0.41794 0.65587 0.0
C2214 C 0.32363 0.39496 0.66056 0.0
C2215 C 0.34492 0.39098 0.6629 0.0
C2216 C 0.34532 0.46799 0.6471 0.0
C2217 C 0.33475 0.43193 0.65764 0.0
C2218 C 0.34019 0.48778 0.6425 0.0
C2219 C 0.31995 0.49343 0.64476 0.0
C2220 C 0.32999 0.45356 0.65374 0.0
C2221 C 0.30519 0.47885 0.65191 0.0
C2222 C 0.31852 0.41535 0.65804 0.0
C2223 C 0.36062 0.4082 0.66293 0.0
N2224 N 0.31042 0.45947 0.65598 0.0
N2225 N 0.35525 0.4278 0.66021 0.0
H2226 H 0.30379 0.76013 0.98063 0.0
H2227 H 0.34668 0.64051 0.04345 0.0
H2228 H 0.33204 0.74388 0.04704 0.0
H2229 H 0.32703 0.6294 0.97617 0.0
H2230 H 0.34681 0.67891 0.04197 0.0
H2231 H 0.30717 0.7232 0.95649 0.0
C2232 C 0.3104 0.74769 0.98834 0.0
C2233 C 0.31787 0.75144 0.01404 0.0
C2234 C 0.34261 0.66805 0.02751 0.0
C2235 C 0.33311 0.69831 0.00741 0.0
C2236 C 0.34251 0.64622 0.0284 0.0
C2237 C 0.33633 0.63188 0.00997 0.0
C2238 C 0.3363 0.67538 0.00812 0.0
C2239 C 0.33122 0.63989 0.99086 0.0
C2240 C 0.3125 0.72638 0.9734 0.0
C2241 C 0.32906 0.73638 0.0308 0.0
N2242 N 0.331 0.66097 0.99058 0.0
N2243 N 0.33531 0.71374 0.02771 0.0
H2244 H 0.73776 0.13563 0.29683 0.0
H2245 H 0.75204 0.02568 0.34194 0.0
H2246 H 0.78188 0.12946 0.35139 0.0
H2247 H 0.6995 0.03413 0.29659 0.0
H2248 H 0.76588 0.06265 0.34242 0.0
H2249 H 0.7262 0.09757 0.29343 0.0
C2250 C 0.74501 0.12633 0.30813 0.0
C2251 C 0.76078 0.13591 0.32451 0.0
C2252 C 0.75166 0.05625 0.33184 0.0
C2253 C 0.74777 0.09217 0.32048 0.0
C2254 C 0.74398 0.03488 0.33115 0.0
C2255 C 0.72567 0.02587 0.31745 0.0
C2256 C 0.74059 0.06914 0.31937 0.0
C2257 C 0.71459 0.03965 0.30596 0.0
C2258 C 0.73845 0.10456 0.30611 0.0
C2259 C 0.76988 0.12285 0.33836 0.0
N2260 N 0.72233 0.06046 0.30699 0.0
N2261 N 0.76322 0.10171 0.33605 0.0
H2262 H 0.6686 0.74054 0.00736 0.0
H2263 H 0.72176 0.83383 0.94949 0.0
H2264 H 0.66943 0.73531 0.9396 0.0
H2265 H 0.70459 0.84297 0.01278 0.0
H2266 H 0.70603 0.79656 0.94606 0.0
H2267 H 0.68599 0.77692 0.01047 0.0
C2268 C 0.67268 0.74698 0.99316 0.0
C2269 C 0.66757 0.73492 0.97319 0.0
C2270 C 0.70573 0.80672 0.9607 0.0
C2271 C 0.68726 0.77659 0.97659 0.0
C2272 C 0.71461 0.82791 0.96259 0.0
C2273 C 0.71453 0.84124 0.98147 0.0
C2274 C 0.69686 0.79892 0.9779 0.0
C2275 C 0.70523 0.83298 0.99812 0.0
C2276 C 0.68243 0.7678 0.99492 0.0
C2277 C 0.67294 0.74416 0.95527 0.0
N2278 N 0.69684 0.81231 0.996 0.0
N2279 N 0.68252 0.76447 0.95739 0.0
H2280 H 0.68149 0.32471 0.3898 0.0
H2281 H 0.62906 0.35638 0.49521 0.0
H2282 H 0.6438 0.37644 0.39728 0.0
H2283 H 0.65345 0.29685 0.48219 0.0
H2284 H 0.63797 0.36599 0.46096 0.0
H2285 H 0.67499 0.31626 0.42506 0.0
C2286 C 0.6718 0.33429 0.39872 0.0
C2287 C 0.66307 0.35127 0.39022 0.0
C2288 C 0.64141 0.35081 0.46555 0.0
C2289 C 0.65592 0.34181 0.43103 0.0
C2290 C 0.63625 0.34531 0.48506 0.0
C2291 C 0.64037 0.32574 0.49147 0.0
C2292 C 0.65099 0.33672 0.45231 0.0
C2293 C 0.65021 0.31219 0.47795 0.0
C2294 C 0.66821 0.3295 0.41897 0.0
C2295 C 0.65112 0.36336 0.40302 0.0
N2296 N 0.65516 0.3179 0.45901 0.0
N2297 N 0.6479 0.35838 0.42267 0.0
H2298 H 0.98652 0.33753 0.77419 0.0
H2299 H 0.96076 0.29538 0.63152 0.0
H2300 H 0.00402 0.27431 0.73939 0.0
H2301 H 0.02663 0.32176 0.64188 0.0
H2302 H 0.9617 0.29394 0.66976 0.0
H2303 H 0.98107 0.35968 0.73974 0.0
C2304 C 0.98887 0.33011 0.75873 0.0
C2305 C 0.99526 0.30576 0.75626 0.0
C2306 C 0.9757 0.30054 0.66352 0.0
C2307 C 0.99405 0.31019 0.70029 0.0
C2308 C 0.97538 0.30092 0.64174 0.0
C2309 C 0.99363 0.30886 0.63343 0.0
C2310 C 0.99373 0.30977 0.6771 0.0
C2311 C 0.012 0.31626 0.64763 0.0
C2312 C 0.98539 0.34366 0.73899 0.0
C2313 C 0.99968 0.28937 0.73537 0.0
N2314 N 0.01154 0.31679 0.6689 0.0
N2315 N 0.99893 0.29146 0.71162 0.0
H2316 H 0.29211 0.77728 0.1117 0.0
H2317 H 0.27284 0.73621 0.00528 0.0
H2318 H 0.28312 0.71238 0.12492 0.0
H2319 H 0.30201 0.68609 0.03042 0.0
H2320 H 0.2623 0.74726 0.04081 0.0
H2321 H 0.28259 0.76491 0.07387 0.0
C2322 C 0.28763 0.76049 0.10679 0.0
C2323 C 0.28892 0.74586 0.12165 0.0
C2324 C 0.27129 0.73398 0.03858 0.0
C2325 C 0.27786 0.73158 0.07821 0.0
C2326 C 0.27771 0.72824 0.01863 0.0
C2327 C 0.29238 0.71366 0.01671 0.0
C2328 C 0.27785 0.72309 0.05565 0.0
C2329 C 0.29361 0.69977 0.03233 0.0
C2330 C 0.28204 0.75344 0.08512 0.0
C2331 C 0.28307 0.72426 0.11411 0.0
N2332 N 0.28736 0.70536 0.05154 0.0
N2333 N 0.27831 0.71778 0.09297 0.0
H2334 H 0.97886 0.69606 0.73884 0.0
H2335 H 0.00877 0.68523 0.86196 0.0
H2336 H 0.99878 0.63958 0.762 0.0
H2337 H 0.99927 0.74442 0.83866 0.0
H2338 H 0.00094 0.66712 0.82552 0.0
H2339 H 0.98255 0.7132 0.7754 0.0
C2340 C 0.98405 0.68726 0.75158 0.0
C2341 C 0.98859 0.66634 0.74727 0.0
C2342 C 1.00038 0.68404 0.82832 0.0
C2343 C 0.99256 0.6858 0.7892 0.0
C2344 C 0.00473 0.69425 0.84904 0.0
C2345 C 0.00448 0.71614 0.85298 0.0
C2346 C 0.99583 0.69593 0.81151 0.0
C2347 C 0.99944 0.72744 0.83598 0.0
C2348 C 0.98603 0.69703 0.77246 0.0
C2349 C 0.99484 0.65561 0.7645 0.0
N2350 N 0.99535 0.71721 0.81589 0.0
N2351 N 0.99669 0.66548 0.78467 0.0
H2352 H 0.62863 0.36266 0.68882 0.0
H2353 H 0.50298 0.33631 0.65899 0.0
H2354 H 0.60005 0.32564 0.63006 0.0
H2355 H 0.53282 0.38936 0.70351 0.0
H2356 H 0.53824 0.32759 0.6517 0.0
H2357 H 0.59329 0.36826 0.69771 0.0
C2358 C 0.61489 0.35553 0.67789 0.0
C2359 C 0.61727 0.34368 0.65868 0.0
C2360 C 0.53703 0.34123 0.66292 0.0
C2361 C 0.57678 0.35005 0.66874 0.0
C2362 C 0.51701 0.34606 0.66715 0.0
C2363 C 0.51514 0.36368 0.6816 0.0
C2364 C 0.55525 0.35409 0.67334 0.0
C2365 C 0.53369 0.37587 0.69198 0.0
C2366 C 0.59474 0.35885 0.6829 0.0
C2367 C 0.59891 0.33502 0.64497 0.0
N2368 N 0.55298 0.37087 0.68763 0.0
N2369 N 0.57941 0.33833 0.65029 0.0
H2370 H 0.8602 0.68875 0.26371 0.0
H2371 H 0.97208 0.65311 0.24406 0.0
H2372 H 0.87169 0.65506 0.20456 0.0
H2373 H 0.96436 0.70069 0.29488 0.0
H2374 H 0.93531 0.65311 0.22973 0.0
H2375 H 0.89819 0.69327 0.27556 0.0
C2376 C 0.87067 0.68252 0.25306 0.0
C2377 C 0.86258 0.6714 0.23308 0.0
C2378 C 0.94186 0.66411 0.24361 0.0
C2379 C 0.9062 0.67616 0.24685 0.0
C2380 C 0.96307 0.66444 0.25162 0.0
C2381 C 0.97226 0.6786 0.26951 0.0
C2382 C 0.92917 0.67719 0.2542 0.0
C2383 C 0.95873 0.69091 0.28003 0.0
C2384 C 0.8924 0.68501 0.25993 0.0
C2385 C 0.87705 0.66337 0.22024 0.0
N2386 N 0.93796 0.69 0.27217 0.0
N2387 N 0.89809 0.66578 0.22739 0.0
H2388 H 0.27296 0.04462 0.31633 0.0
H2389 H 0.14803 0.02519 0.32229 0.0
H2390 H 0.24516 0.01883 0.36797 0.0
H2391 H 0.17474 0.04143 0.26653 0.0
H2392 H 0.18387 0.02813 0.34143 0.0
H2393 H 0.23743 0.04789 0.2995 0.0
C2394 C 0.25941 0.03959 0.32412 0.0
C2395 C 0.2621 0.03137 0.34359 0.0
C2396 C 0.18195 0.03137 0.3251 0.0
C2397 C 0.2214 0.0354 0.32456 0.0
C2398 C 0.16156 0.02992 0.31434 0.0
C2399 C 0.1587 0.03324 0.293 0.0
C2400 C 0.19956 0.03611 0.31434 0.0
C2401 C 0.17653 0.0389 0.28306 0.0
C2402 C 0.23914 0.04161 0.31457 0.0
C2403 C 0.24393 0.0255 0.35311 0.0
N2404 N 0.19628 0.04002 0.29377 0.0
N2405 N 0.22439 0.02757 0.34348 0.0
H2406 H 0.26266 0.95938 0.68006 0.0
H2407 H 0.37516 0.04126 0.71344 0.0
H2408 H 0.23934 0.02728 0.67646 0.0
H2409 H 0.36915 0.98159 0.67345 0.0
H2410 H 0.33808 0.03648 0.715 0.0
H2411 H 0.30399 0.96785 0.686 0.0
C2412 C 0.26839 0.97596 0.68051 0.0
C2413 C 0.24965 0.99245 0.67827 0.0
C2414 C 0.34412 0.02501 0.70451 0.0
C2415 C 0.30696 0.00568 0.68776 0.0
C2416 C 0.36599 0.02726 0.70457 0.0
C2417 C 0.37569 0.01201 0.69305 0.0
C2418 C 0.33119 0.00879 0.69067 0.0
C2419 C 0.36251 0.99447 0.68163 0.0
C2420 C 0.29475 0.98094 0.68488 0.0
C2421 C 0.25274 0.01858 0.67908 0.0
N2422 N 0.34103 0.9936 0.68041 0.0
N2423 N 0.275 0.03113 0.68286 0.0
H2424 H 0.61777 0.59944 0.33762 0.0
H2425 H 0.71154 0.52952 0.36462 0.0
H2426 H 0.68405 0.6247 0.34679 0.0
H2427 H 0.64582 0.50851 0.36756 0.0
H2428 H 0.70176 0.56354 0.35473 0.0
H2429 H 0.62774 0.56512 0.34549 0.0
C2430 C 0.63441 0.59783 0.34127 0.0
C2431 C 0.65007 0.61518 0.3417 0.0
C2432 C 0.68945 0.55152 0.35756 0.0
C2433 C 0.66154 0.57558 0.35025 0.0
C2434 C 0.69504 0.53217 0.36313 0.0
C2435 C 0.67943 0.51641 0.36697 0.0
C2436 C 0.66805 0.55505 0.35573 0.0
C2437 C 0.65829 0.52049 0.365 0.0
C2438 C 0.64007 0.57814 0.34563 0.0
C2439 C 0.6714 0.61183 0.34603 0.0
N2440 N 0.65318 0.53939 0.35947 0.0
N2441 N 0.67648 0.59248 0.35018 0.0
H2442 H 0.69424 0.23648 0.02168 0.0
H2443 H 0.65005 0.35824 0.96517 0.0
H2444 H 0.6625 0.25522 0.95764 0.0
H2445 H 0.66937 0.36779 0.03254 0.0
H2446 H 0.64994 0.31989 0.96572 0.0
H2447 H 0.69327 0.27296 0.04724 0.0
C2448 C 0.68724 0.2492 0.01483 0.0
C2449 C 0.67821 0.24627 0.9895 0.0
C2450 C 0.65419 0.33039 0.98042 0.0
C2451 C 0.66376 0.29954 0.99939 0.0
C2452 C 0.65419 0.35225 0.98007 0.0
C2453 C 0.66013 0.36623 0.9988 0.0
C2454 C 0.66076 0.32257 0.99949 0.0
C2455 C 0.66547 0.35768 0.0176 0.0
C2456 C 0.68627 0.27011 0.03072 0.0
C2457 C 0.66635 0.26214 0.97403 0.0
N2458 N 0.6662 0.33657 0.01728 0.0
N2459 N 0.66027 0.28472 0.97857 0.0
H2460 H 0.21186 0.90004 0.70515 0.0
H2461 H 0.30601 0.99063 0.72838 0.0
H2462 H 0.27568 0.8896 0.72719 0.0
H2463 H 0.24162 0.98324 0.72954 0.0
H2464 H 0.29507 0.95553 0.73746 0.0
H2465 H 0.22125 0.93788 0.7175 0.0
C2466 C 0.22773 0.90555 0.71291 0.0
C2467 C 0.24309 0.89147 0.71466 0.0
C2468 C 0.28307 0.96573 0.73387 0.0
C2469 C 0.25399 0.93503 0.72878 0.0
C2470 C 0.28928 0.98598 0.72877 0.0
C2471 C 0.27419 0.99735 0.7188 0.0
C2472 C 0.26148 0.95823 0.73169 0.0
C2473 C 0.25283 0.99274 0.72202 0.0
C2474 C 0.23308 0.92723 0.72001 0.0
C2475 C 0.26343 0.8998 0.72482 0.0
N2476 N 0.24708 0.97324 0.72899 0.0
N2477 N 0.26834 0.92097 0.73112 0.0
H2478 H 0.35538 0.24187 0.9824 0.0
H2479 H 0.25765 0.16336 0.00831 0.0
H2480 H 0.3071 0.26354 0.01851 0.0
H2481 H 0.304 0.14494 0.96837 0.0
H2482 H 0.27592 0.19996 0.0139 0.0
H2483 H 0.33709 0.20599 0.9784 0.0
C2484 C 0.34093 0.23903 0.98957 0.0
C2485 C 0.33282 0.25569 1.00093 0.0
C2486 C 0.28211 0.1879 0.00394 0.0
C2487 C 0.31159 0.21452 0.99627 0.0
C2488 C 0.27176 0.16715 1.00087 0.0
C2489 C 0.27945 0.15147 0.98785 0.0
C2490 C 0.30023 0.19274 0.99393 0.0
C2491 C 0.29767 0.15681 0.97841 0.0
C2492 C 0.33041 0.21853 0.98721 0.0
C2493 C 0.31381 0.25115 0.00953 0.0
N2494 N 0.30744 0.177 0.98161 0.0
N2495 N 0.30385 0.23094 0.00709 0.0
H2496 H 0.34355 0.68962 0.62705 0.0
H2497 H 0.36856 0.6501 0.51106 0.0
H2498 H 0.33804 0.62325 0.60266 0.0
H2499 H 0.35124 0.71235 0.52766 0.0
H2500 H 0.36001 0.64038 0.54548 0.0
H2501 H 0.34829 0.6987 0.59164 0.0
C2502 C 0.3431 0.6769 0.6143 0.0
C2503 C 0.3405 0.65557 0.61812 0.0
C2504 C 0.35795 0.65613 0.54158 0.0
C2505 C 0.34649 0.66604 0.57741 0.0
C2506 C 0.36297 0.66171 0.52204 0.0
C2507 C 0.36054 0.68202 0.51658 0.0
C2508 C 0.35084 0.67114 0.55601 0.0
C2509 C 0.35305 0.69646 0.53123 0.0
C2510 C 0.34593 0.68215 0.59405 0.0
C2511 C 0.34049 0.63991 0.60079 0.0
N2512 N 0.34862 0.69081 0.55035 0.0
N2513 N 0.34361 0.64546 0.58131 0.0
H2514 H 0.01202 0.66519 0.23245 0.0
H2515 H 0.00852 0.72865 0.37474 0.0
H2516 H 0.99703 0.72829 0.26938 0.0
H2517 H 0.02434 0.66484 0.37084 0.0
H2518 H 0.00354 0.72567 0.33587 0.0
H2519 H 0.02006 0.643 0.26608 0.0
C2520 C 0.01049 0.67247 0.24821 0.0
C2521 C 0.00432 0.69681 0.25143 0.0
C2522 C 0.00808 0.71226 0.34346 0.0
C2523 C 0.00892 0.69189 0.3077 0.0
C2524 C 0.01108 0.71407 0.3656 0.0
C2525 C 0.01731 0.69713 0.37584 0.0
C2526 C 0.01115 0.69329 0.33148 0.0
C2527 C 0.01971 0.67832 0.36342 0.0
C2528 C 0.01503 0.65871 0.26751 0.0
C2529 C 0.00146 0.71312 0.27292 0.0
N2530 N 0.01658 0.67692 0.34191 0.0
N2531 N 0.0035 0.71077 0.29667 0.0
H2532 H 0.70359 0.28766 0.87526 0.0
H2533 H 0.72311 0.26087 0.99482 0.0
H2534 H 0.70541 0.22377 0.89047 0.0
H2535 H 0.69355 0.31314 0.97543 0.0
H2536 H 0.7308 0.25148 0.95781 0.0
H2537 H 0.71275 0.30087 0.91282 0.0
C2538 C 0.70632 0.27639 0.88641 0.0
C2539 C 0.70352 0.2545 0.8796 0.0
C2540 C 0.72238 0.2649 0.96165 0.0
C2541 C 0.71408 0.26968 0.92287 0.0
C2542 C 0.71744 0.2696 0.9824 0.0
C2543 C 0.70336 0.28439 0.98644 0.0
C2544 C 0.71516 0.27705 0.9459 0.0
C2545 C 0.7014 0.29933 0.97193 0.0
C2546 C 0.71153 0.28398 0.9079 0.0
C2547 C 0.70704 0.24073 0.895 0.0
N2548 N 0.70626 0.29476 0.95193 0.0
N2549 N 0.71197 0.24852 0.91592 0.0
H2550 H 0.99045 0.30363 0.26552 0.0
H2551 H 0.99805 0.31751 0.1438 0.0
H2552 H 0.01787 0.36147 0.24495 0.0
H2553 H 0.98129 0.25734 0.16565 0.0
H2554 H 0.00576 0.33403 0.18078 0.0
H2555 H 0.98718 0.28636 0.22912 0.0
C2556 C 0.99598 0.31267 0.25342 0.0
C2557 C 0.00438 0.3341 0.25838 0.0
C2558 C 1.00055 0.31718 0.17752 0.0
C2559 C 1.00033 0.31446 0.21649 0.0
C2560 C 0.99629 0.3078 0.15647 0.0
C2561 C 0.98903 0.28613 0.15185 0.0
C2562 C 0.99737 0.30478 0.19401 0.0
C2563 C 0.98667 0.27416 0.16871 0.0
C2564 C 0.99401 0.30281 0.23259 0.0
C2565 C 0.01094 0.34505 0.24187 0.0
N2566 N 0.99069 0.28366 0.18906 0.0
N2567 N 0.00868 0.33514 0.22168 0.0
loop_
_geom_bond_atom_site_label_1
_geom_bond_atom_site_label_2
_geom_bond_distance
_geom_bond_site_symmetry_2
_ccdc_geom_bond_type
C0 C1 1.264 . S
C0 C5 1.479 . S
C0 C10 1.465 . S
C1 C0 1.264 . S
C1 C3 1.339 . S
C1 H28 0.931 . S
C2 C3 1.395 . S
C2 C4 1.320 . S
C3 C1 1.339 . S
C3 C2 1.395 . S
C3 H29 0.929 . S
C4 C2 1.320 . S
C4 C5 1.405 . S
C4 H30 0.930 . S
C5 C0 1.479 . S
C5 C4 1.405 . S
C5 H31 0.931 . S
U6 O7 2.454 . S
U6 O8 2.458 . S
U6 C9 2.984 . S
U6 C10 2.847 . S
U6 C23 2.882 . S
U6 O24 2.441 . S
U6 O25 2.420 . S
U6 O26 2.455 . S
U6 O27 2.449 . S
O7 U6 2.454 . S
O7 C9 1.353 . S
O8 U6 2.458 . S
O8 C9 1.286 . S
C9 U6 2.984 . S
C9 O7 1.353 . S
C9 O8 1.286 . S
C9 C11 1.363 . S
C10 C0 1.465 . S
C10 U6 2.847 . S
C10 O24 1.249 . S
C10 O25 1.202 . S
C11 C9 1.363 . S
C11 C13 1.408 . S
C11 C16 1.342 . S
C12 C13 1.310 . S
C12 C15 1.461 . S
C12 H32 0.932 . S
C13 C11 1.408 . S
C13 C12 1.310 . S
C13 H33 0.930 . S
C14 C15 1.474 . S
C14 C16 1.285 . S
C14 H34 0.929 . S
C15 C12 1.461 . S
C15 C14 1.474 . S
C16 C11 1.342 . S
C16 C14 1.285 . S
C16 H35 0.930 . S
C17 C20 1.424 . S
C17 C22 1.245 . S
C17 C23 1.428 . S
C18 C21 1.260 . S
C18 C22 1.477 . S
C18 H36 0.932 . S
C19 C20 1.384 . S
C19 C21 1.479 . S
C19 H37 0.929 . S
C20 C17 1.424 . S
C20 C19 1.384 . S
C20 H38 0.928 . S
C21 C18 1.260 . S
C21 C19 1.479 . S
C22 C17 1.245 . S
C22 C18 1.477 . S
C22 H39 0.932 . S
C23 U6 2.882 . S
C23 C17 1.428 . S
C23 O26 1.301 . S
C23 O27 1.282 . S
O24 U6 2.441 . S
O24 C10 1.249 . S
O25 U6 2.420 . S
O25 C10 1.202 . S
O26 U6 2.455 . S
O26 C23 1.301 . S
O27 U6 2.449 . S
O27 C23 1.282 . S
H28 C1 0.931 . S
H29 C3 0.929 . S
H30 C4 0.930 . S
H31 C5 0.931 . S
H32 C12 0.932 . S
H33 C13 0.930 . S
H34 C14 0.929 . S
H35 C16 0.930 . S
H36 C18 0.932 . S
H37 C19 0.929 . S
H38 C20 0.928 . S
H39 C22 0.932 . S
C40 C41 1.264 . S
C40 C45 1.479 . S
C40 C50 1.465 . S
C41 C40 1.264 . S
C41 C43 1.339 . S
C41 H68 0.931 . S
C42 C43 1.395 . S
C42 C44 1.320 . S
C43 C41 1.339 . S
C43 C42 1.395 . S
C43 H69 0.929 . S
C44 C42 1.320 . S
C44 C45 1.405 . S
C44 H70 0.930 . S
C45 C40 1.479 . S
C45 C44 1.405 . S
C45 H71 0.931 . S
U46 O47 2.454 . S
U46 O48 2.458 . S
U46 C49 2.984 . S
U46 C50 2.847 . S
U46 C63 2.882 . S
U46 O64 2.441 . S
U46 O65 2.420 . S
U46 O66 2.455 . S
U46 O67 2.449 . S
O47 U46 2.454 . S
O47 C49 1.353 . S
O48 U46 2.458 . S
O48 C49 1.286 . S
C49 U46 2.984 . S
C49 O47 1.353 . S
C49 O48 1.286 . S
C49 C51 1.363 . S
C50 C40 1.465 . S
C50 U46 2.847 . S
C50 O64 1.249 . S
C50 O65 1.202 . S
C51 C49 1.363 . S
C51 C53 1.408 . S
C51 C56 1.342 . S
C52 C53 1.310 . S
C52 C55 1.461 . S
C52 H72 0.932 . S
C53 C51 1.408 . S
C53 C52 1.310 . S
C53 H73 0.930 . S
C54 C55 1.474 . S
C54 C56 1.285 . S
C54 H74 0.929 . S
C55 C52 1.461 . S
C55 C54 1.474 . S
C56 C51 1.342 . S
C56 C54 1.285 . S
C56 H75 0.930 . S
C57 C60 1.424 . S
C57 C62 1.245 . S
C57 C63 1.428 . S
C58 C61 1.260 . S
C58 C62 1.477 . S
C58 H76 0.932 . S
C59 C60 1.384 . S
C59 C61 1.479 . S
C59 H77 0.929 . S
C60 C57 1.424 . S
C60 C59 1.384 . S
C60 H78 0.928 . S
C61 C58 1.260 . S
C61 C59 1.479 . S
C62 C57 1.245 . S
C62 C58 1.477 . S
C62 H79 0.932 . S
C63 U46 2.882 . S
C63 C57 1.428 . S
C63 O66 1.301 . S
C63 O67 1.282 . S
O64 U46 2.441 . S
O64 C50 1.249 . S
O65 U46 2.420 . S
O65 C50 1.202 . S
O66 U46 2.455 . S
O66 C63 1.301 . S
O67 U46 2.449 . S
O67 C63 1.282 . S
H68 C41 0.931 . S
H69 C43 0.929 . S
H70 C44 0.930 . S
H71 C45 0.931 . S
H72 C52 0.932 . S
H73 C53 0.930 . S
H74 C54 0.929 . S
H75 C56 0.930 . S
H76 C58 0.932 . S
H77 C59 0.929 . S
H78 C60 0.928 . S
H79 C62 0.932 . S
C80 C81 1.264 . S
C80 C85 1.479 . S
C80 C90 1.465 . S
C81 C80 1.264 . S
C81 C83 1.339 . S
C81 H108 0.931 . S
C82 C83 1.395 . S
C82 C84 1.320 . S
C83 C81 1.339 . S
C83 C82 1.395 . S
C83 H109 0.929 . S
C84 C82 1.320 . S
C84 C85 1.405 . S
C84 H110 0.926 1_565 S
C85 C80 1.479 . S
C85 C84 1.405 . S
C85 H111 0.931 . S
U86 O87 2.454 . S
U86 O88 2.458 . S
U86 C89 2.984 . S
U86 C90 2.847 . S
U86 C103 2.882 . S
U86 O104 2.441 . S
U86 O105 2.420 . S
U86 O106 2.455 . S
U86 O107 2.449 . S
O87 U86 2.454 . S
O87 C89 1.353 . S
O88 U86 2.458 . S
O88 C89 1.286 . S
C89 U86 2.984 . S
C89 O87 1.353 . S
C89 O88 1.286 . S
C89 C91 1.363 . S
C90 C80 1.465 . S
C90 U86 2.847 . S
C90 O104 1.249 . S
C90 O105 1.202 . S
C91 C89 1.363 . S
C91 C93 1.408 . S
C91 C96 1.342 . S
C92 C93 1.310 . S
C92 C95 1.461 . S
C92 H112 0.932 . S
C93 C91 1.408 . S
C93 C92 1.310 . S
C93 H113 0.930 . S
C94 C95 1.473 1_545 S
C94 C96 1.284 1_545 S
C94 H114 0.932 . S
C95 C92 1.461 . S
C95 C94 1.473 1_565 S
C96 C91 1.342 . S
C96 C94 1.284 1_565 S
C96 H115 0.936 . S
C97 C100 1.424 . S
C97 C102 1.245 . S
C97 C103 1.428 . S
C98 C101 1.260 . S
C98 C102 1.477 . S
C98 H116 0.932 . S
C99 C100 1.384 . S
C99 C101 1.479 . S
C99 H117 0.929 . S
C100 C97 1.424 . S
C100 C99 1.384 . S
C100 H118 0.928 . S
C101 C98 1.260 . S
C101 C99 1.479 . S
C102 C97 1.245 . S
C102 C98 1.477 . S
C102 H119 0.932 . S
C103 U86 2.882 . S
C103 C97 1.428 . S
C103 O106 1.301 . S
C103 O107 1.282 . S
O104 U86 2.441 . S
O104 C90 1.249 . S
O105 U86 2.420 . S
O105 C90 1.202 . S
O106 U86 2.455 . S
O106 C103 1.301 . S
O107 U86 2.449 . S
O107 C103 1.282 . S
H108 C81 0.931 . S
H109 C83 0.929 . S
H110 C84 0.926 1_545 S
H111 C85 0.931 . S
H112 C92 0.932 . S
H113 C93 0.930 . S
H114 C94 0.932 . S
H115 C96 0.936 . S
H116 C98 0.932 . S
H117 C99 0.929 . S
H118 C100 0.928 . S
H119 C102 0.932 . S
C120 C121 1.264 . S
C120 C125 1.479 . S
C120 C130 1.465 . S
C121 C120 1.264 . S
C121 C123 1.339 . S
C121 H148 0.931 . S
C122 C123 1.395 . S
C122 C124 1.320 . S
C123 C121 1.339 . S
C123 C122 1.395 . S
C123 H149 0.929 . S
C124 C122 1.320 . S
C124 C125 1.405 . S
C124 H150 0.930 . S
C125 C120 1.479 . S
C125 C124 1.405 . S
C125 H151 0.931 . S
U126 O127 2.454 . S
U126 O128 2.458 . S
U126 C129 2.984 . S
U126 C130 2.847 . S
U126 C143 2.882 1_545 S
U126 O144 2.441 . S
U126 O145 2.420 . S
U126 O146 2.455 . S
U126 O147 2.449 . S
O127 U126 2.454 . S
O127 C129 1.353 . S
O128 U126 2.458 . S
O128 C129 1.286 . S
C129 U126 2.984 . S
C129 O127 1.353 . S
C129 O128 1.286 . S
C129 C131 1.363 . S
C130 C120 1.465 . S
C130 U126 2.847 . S
C130 O144 1.249 . S
C130 O145 1.202 . S
C131 C129 1.363 . S
C131 C133 1.408 . S
C131 C136 1.342 . S
C132 C133 1.310 . S
C132 C135 1.461 . S
C132 H152 0.932 . S
C133 C131 1.408 . S
C133 C132 1.310 . S
C133 H153 0.930 . S
C134 C135 1.474 . S
C134 C136 1.285 . S
C134 H154 0.929 . S
C135 C132 1.461 . S
C135 C134 1.474 . S
C136 C131 1.342 . S
C136 C134 1.285 . S
C136 H155 0.930 . S
C137 C140 1.424 . S
C137 C142 1.245 . S
C137 C143 1.428 . S
C138 C141 1.260 . S
C138 C142 1.477 . S
C138 H156 0.932 . S
C139 C140 1.384 . S
C139 C141 1.479 . S
C139 H157 0.929 . S
C140 C137 1.424 . S
C140 C139 1.384 . S
C140 H158 0.928 . S
C141 C138 1.260 . S
C141 C139 1.479 . S
C142 C137 1.245 . S
C142 C138 1.477 . S
C142 H159 0.932 . S
C143 U126 2.882 1_565 S
C143 C137 1.428 . S
C143 O146 1.301 1_565 S
C143 O147 1.282 1_565 S
O144 U126 2.441 . S
O144 C130 1.249 . S
O145 U126 2.420 . S
O145 C130 1.202 . S
O146 U126 2.455 . S
O146 C143 1.301 1_545 S
O147 U126 2.449 . S
O147 C143 1.282 1_545 S
H148 C121 0.931 . S
H149 C123 0.929 . S
H150 C124 0.930 . S
H151 C125 0.931 . S
H152 C132 0.932 . S
H153 C133 0.930 . S
H154 C134 0.929 . S
H155 C136 0.930 . S
H156 C138 0.932 . S
H157 C139 0.929 . S
H158 C140 0.928 . S
H159 C142 0.932 . S
C160 C161 1.264 . S
C160 C165 1.479 . S
C160 C170 1.465 . S
C161 C160 1.264 . S
C161 C163 1.339 . S
C161 H188 0.931 . S
C162 C163 1.395 . S
C162 C164 1.320 . S
C163 C161 1.339 . S
C163 C162 1.395 . S
C163 H189 0.929 . S
C164 C162 1.320 . S
C164 C165 1.405 . S
C164 H190 0.930 . S
C165 C160 1.479 . S
C165 C164 1.405 . S
C165 H191 0.931 . S
U166 O167 2.454 . S
U166 O168 2.458 . S
U166 C169 2.984 . S
U166 C170 2.847 . S
U166 C183 2.882 . S
U166 O184 2.441 . S
U166 O185 2.420 . S
U166 O186 2.455 . S
U166 O187 2.449 . S
O167 U166 2.454 . S
O167 C169 1.353 . S
O168 U166 2.458 . S
O168 C169 1.286 . S
C169 U166 2.984 . S
C169 O167 1.353 . S
C169 O168 1.286 . S
C169 C171 1.363 . S
C170 C160 1.465 . S
C170 U166 2.847 . S
C170 O184 1.249 . S
C170 O185 1.202 . S
C171 C169 1.363 . S
C171 C173 1.408 . S
C171 C176 1.342 . S
C172 C173 1.310 . S
C172 C175 1.461 . S
C172 H192 0.932 . S
C173 C171 1.408 . S
C173 C172 1.310 . S
C173 H193 0.930 . S
C174 C175 1.474 . S
C174 C176 1.285 . S
C174 H194 0.929 . S
C175 C172 1.461 . S
C175 C174 1.474 . S
C176 C171 1.342 . S
C176 C174 1.285 . S
C176 H195 0.930 . S
C177 C180 1.424 . S
C177 C182 1.245 . S
C177 C183 1.428 . S
C178 C181 1.260 . S
C178 C182 1.477 . S
C178 H196 0.932 . S
C179 C180 1.384 . S
C179 C181 1.479 . S
C179 H197 0.929 . S
C180 C177 1.424 . S
C180 C179 1.384 . S
C180 H198 0.928 . S
C181 C178 1.260 . S
C181 C179 1.479 . S
C182 C177 1.245 . S
C182 C178 1.477 . S
C182 H199 0.932 . S
C183 U166 2.882 . S
C183 C177 1.428 . S
C183 O186 1.301 . S
C183 O187 1.282 . S
O184 U166 2.441 . S
O184 C170 1.249 . S
O185 U166 2.420 . S
O185 C170 1.202 . S
O186 U166 2.455 . S
O186 C183 1.301 . S
O187 U166 2.449 . S
O187 C183 1.282 . S
H188 C161 0.931 . S
H189 C163 0.929 . S
H190 C164 0.930 . S
H191 C165 0.931 . S
H192 C172 0.932 . S
H193 C173 0.930 . S
H194 C174 0.929 . S
H195 C176 0.930 . S
H196 C178 0.932 . S
H197 C179 0.929 . S
H198 C180 0.928 . S
H199 C182 0.932 . S
C200 C201 1.264 . S
C200 C205 1.479 . S
C200 C210 1.465 . S
C201 C200 1.264 . S
C201 C203 1.339 . S
C201 H228 0.931 . S
C202 C203 1.395 . S
C202 C204 1.320 . S
C203 C201 1.339 . S
C203 C202 1.395 . S
C203 H229 0.929 . S
C204 C202 1.320 . S
C204 C205 1.405 . S
C204 H230 0.930 . S
C205 C200 1.479 . S
C205 C204 1.405 . S
C205 H231 0.931 . S
U206 O207 2.454 . S
U206 O208 2.458 . S
U206 C209 2.984 . S
U206 C210 2.847 . S
U206 C223 2.882 1_554 S
U206 O224 2.441 . S
U206 O225 2.420 . S
U206 O226 2.455 . S
U206 O227 2.449 . S
O207 U206 2.454 . S
O207 C209 1.353 . S
O208 U206 2.458 . S
O208 C209 1.286 . S
C209 U206 2.984 . S
C209 O207 1.353 . S
C209 O208 1.286 . S
C209 C211 1.363 . S
C210 C200 1.465 . S
C210 U206 2.847 . S
C210 O224 1.249 . S
C210 O225 1.202 . S
C211 C209 1.363 . S
C211 C213 1.408 . S
C211 C216 1.342 . S
C212 C213 1.310 . S
C212 C215 1.461 . S
C212 H232 0.932 . S
C213 C211 1.408 . S
C213 C212 1.310 . S
C213 H233 0.930 . S
C214 C215 1.474 . S
C214 C216 1.285 . S
C214 H234 0.929 . S
C215 C212 1.461 . S
C215 C214 1.474 . S
C216 C211 1.342 . S
C216 C214 1.285 . S
C216 H235 0.930 . S
C217 C220 1.424 . S
C217 C222 1.245 . S
C217 C223 1.428 . S
C218 C221 1.260 . S
C218 C222 1.477 . S
C218 H236 0.932 . S
C219 C220 1.384 . S
C219 C221 1.479 . S
C219 H237 0.929 . S
C220 C217 1.424 . S
C220 C219 1.384 . S
C220 H238 0.928 . S
C221 C218 1.260 . S
C221 C219 1.479 . S
C222 C217 1.245 . S
C222 C218 1.477 . S
C222 H239 0.932 . S
C223 U206 2.882 1_556 S
C223 C217 1.428 . S
C223 O226 1.301 1_556 S
C223 O227 1.282 1_556 S
O224 U206 2.441 . S
O224 C210 1.249 . S
O225 U206 2.420 . S
O225 C210 1.202 . S
O226 U206 2.455 . S
O226 C223 1.301 1_554 S
O227 U206 2.449 . S
O227 C223 1.282 1_554 S
H228 C201 0.931 . S
H229 C203 0.929 . S
H230 C204 0.930 . S
H231 C205 0.931 . S
H232 C212 0.932 . S
H233 C213 0.930 . S
H234 C214 0.929 . S
H235 C216 0.930 . S
H236 C218 0.932 . S
H237 C219 0.929 . S
H238 C220 0.928 . S
H239 C222 0.932 . S
C240 C241 1.264 . S
C240 C245 1.479 . S
C240 C250 1.465 . S
C241 C240 1.264 . S
C241 C243 1.339 . S
C241 H268 0.931 . S
C242 C243 1.395 . S
C242 C244 1.320 . S
C243 C241 1.339 . S
C243 C242 1.395 . S
C243 H269 0.929 . S
C244 C242 1.320 . S
C244 C245 1.405 . S
C244 H270 0.930 . S
C245 C240 1.479 . S
C245 C244 1.405 . S
C245 H271 0.931 . S
U246 O247 2.454 . S
U246 O248 2.458 . S
U246 C249 2.984 . S
U246 C250 2.847 . S
U246 C263 2.882 . S
U246 O264 2.441 . S
U246 O265 2.420 . S
U246 O266 2.455 . S
U246 O267 2.449 . S
O247 U246 2.454 . S
O247 C249 1.353 . S
O248 U246 2.458 . S
O248 C249 1.286 . S
C249 U246 2.984 . S
C249 O247 1.353 . S
C249 O248 1.286 . S
C249 C251 1.363 . S
C250 C240 1.465 . S
C250 U246 2.847 . S
C250 O264 1.249 . S
C250 O265 1.202 . S
C251 C249 1.363 . S
C251 C253 1.408 . S
C251 C256 1.342 . S
C252 C253 1.310 . S
C252 C255 1.461 . S
C252 H272 0.932 . S
C253 C251 1.408 . S
C253 C252 1.310 . S
C253 H273 0.930 . S
C254 C255 1.474 . S
C254 C256 1.285 . S
C254 H274 0.929 . S
C255 C252 1.461 . S
C255 C254 1.474 . S
C256 C251 1.342 . S
C256 C254 1.285 . S
C256 H275 0.930 . S
C257 C260 1.424 . S
C257 C262 1.245 . S
C257 C263 1.428 . S
C258 C261 1.260 . S
C258 C262 1.477 . S
C258 H276 0.932 . S
C259 C260 1.384 . S
C259 C261 1.479 . S
C259 H277 0.929 . S
C260 C257 1.424 . S
C260 C259 1.384 . S
C260 H278 0.928 . S
C261 C258 1.260 . S
C261 C259 1.479 . S
C262 C257 1.245 . S
C262 C258 1.477 . S
C262 H279 0.932 . S
C263 U246 2.882 . S
C263 C257 1.428 . S
C263 O266 1.301 . S
C263 O267 1.282 . S
O264 U246 2.441 . S
O264 C250 1.249 . S
O265 U246 2.420 . S
O265 C250 1.202 . S
O266 U246 2.455 . S
O266 C263 1.301 . S
O267 U246 2.449 . S
O267 C263 1.282 . S
H268 C241 0.931 . S
H269 C243 0.929 . S
H270 C244 0.930 . S
H271 C245 0.931 . S
H272 C252 0.932 . S
H273 C253 0.930 . S
H274 C254 0.929 . S
H275 C256 0.930 . S
H276 C258 0.932 . S
H277 C259 0.929 . S
H278 C260 0.928 . S
H279 C262 0.932 . S
C280 C281 1.264 . S
C280 C285 1.479 . S
C280 C290 1.465 . S
C281 C280 1.264 . S
C281 C283 1.339 . S
C281 H308 0.931 . S
C282 C283 1.395 . S
C282 C284 1.320 . S
C283 C281 1.339 . S
C283 C282 1.395 . S
C283 H309 0.929 . S
C284 C282 1.320 . S
C284 C285 1.405 . S
C284 H310 0.926 1_556 S
C285 C280 1.479 . S
C285 C284 1.405 . S
C285 H311 0.931 . S
U286 O287 2.454 . S
U286 O288 2.458 . S
U286 C289 2.984 . S
U286 C290 2.847 . S
U286 C303 2.882 . S
U286 O304 2.441 . S
U286 O305 2.420 . S
U286 O306 2.455 . S
U286 O307 2.449 . S
O287 U286 2.454 . S
O287 C289 1.353 . S
O288 U286 2.458 . S
O288 C289 1.286 . S
C289 U286 2.984 . S
C289 O287 1.353 . S
C289 O288 1.286 . S
C289 C291 1.363 . S
C290 C280 1.465 . S
C290 U286 2.847 . S
C290 O304 1.249 . S
C290 O305 1.202 . S
C291 C289 1.363 . S
C291 C293 1.408 . S
C291 C296 1.342 . S
C292 C293 1.310 . S
C292 C295 1.461 . S
C292 H312 0.932 . S
C293 C291 1.408 . S
C293 C292 1.310 . S
C293 H313 0.930 . S
C294 C295 1.473 1_554 S
C294 C296 1.284 1_554 S
C294 H314 0.932 . S
C295 C292 1.461 . S
C295 C294 1.473 1_556 S
C296 C291 1.342 . S
C296 C294 1.284 1_556 S
C296 H315 0.936 . S
C297 C300 1.424 . S
C297 C302 1.245 . S
C297 C303 1.428 . S
C298 C301 1.260 . S
C298 C302 1.477 . S
C298 H316 0.932 . S
C299 C300 1.384 . S
C299 C301 1.479 . S
C299 H317 0.929 . S
C300 C297 1.424 . S
C300 C299 1.384 . S
C300 H318 0.928 . S
C301 C298 1.260 . S
C301 C299 1.479 . S
C302 C297 1.245 . S
C302 C298 1.477 . S
C302 H319 0.932 . S
C303 U286 2.882 . S
C303 C297 1.428 . S
C303 O306 1.301 . S
C303 O307 1.282 . S
O304 U286 2.441 . S
O304 C290 1.249 . S
O305 U286 2.420 . S
O305 C290 1.202 . S
O306 U286 2.455 . S
O306 C303 1.301 . S
O307 U286 2.449 . S
O307 C303 1.282 . S
H308 C281 0.931 . S
H309 C283 0.929 . S
H310 C284 0.926 1_554 S
H311 C285 0.931 . S
H312 C292 0.932 . S
H313 C293 0.930 . S
H314 C294 0.932 . S
H315 C296 0.936 . S
H316 C298 0.932 . S
H317 C299 0.929 . S
H318 C300 0.928 . S
H319 C302 0.932 . S
C320 C321 1.264 . S
C320 C325 1.479 . S
C320 C330 1.465 . S
C321 C320 1.264 . S
C321 C323 1.339 . S
C321 H348 0.931 . S
C322 C323 1.395 . S
C322 C324 1.320 . S
C323 C321 1.339 . S
C323 C322 1.395 . S
C323 H349 0.929 . S
C324 C322 1.320 . S
C324 C325 1.405 . S
C324 H350 0.930 . S
C325 C320 1.479 . S
C325 C324 1.405 . S
C325 H351 0.931 . S
U326 O327 2.454 . S
U326 O328 2.458 . S
U326 C329 2.984 . S
U326 C330 2.847 . S
U326 C343 2.882 . S
U326 O344 2.441 . S
U326 O345 2.420 . S
U326 O346 2.455 . S
U326 O347 2.449 . S
O327 U326 2.454 . S
O327 C329 1.353 . S
O328 U326 2.458 . S
O328 C329 1.286 . S
C329 U326 2.984 . S
C329 O327 1.353 . S
C329 O328 1.286 . S
C329 C331 1.363 . S
C330 C320 1.465 . S
C330 U326 2.847 . S
C330 O344 1.249 . S
C330 O345 1.202 . S
C331 C329 1.363 . S
C331 C333 1.408 . S
C331 C336 1.342 . S
C332 C333 1.310 . S
C332 C335 1.461 . S
C332 H352 0.932 . S
C333 C331 1.408 . S
C333 C332 1.310 . S
C333 H353 0.930 . S
C334 C335 1.474 . S
C334 C336 1.285 . S
C334 H354 0.929 . S
C335 C332 1.461 . S
C335 C334 1.474 . S
C336 C331 1.342 . S
C336 C334 1.285 . S
C336 H355 0.930 . S
C337 C340 1.424 . S
C337 C342 1.245 . S
C337 C343 1.428 . S
C338 C341 1.260 . S
C338 C342 1.477 . S
C338 H356 0.932 . S
C339 C340 1.384 . S
C339 C341 1.479 . S
C339 H357 0.929 . S
C340 C337 1.424 . S
C340 C339 1.384 . S
C340 H358 0.928 . S
C341 C338 1.260 . S
C341 C339 1.479 . S
C342 C337 1.245 . S
C342 C338 1.477 . S
C342 H359 0.932 . S
C343 U326 2.882 . S
C343 C337 1.428 . S
C343 O346 1.301 . S
C343 O347 1.282 . S
O344 U326 2.441 . S
O344 C330 1.249 . S
O345 U326 2.420 . S
O345 C330 1.202 . S
O346 U326 2.455 . S
O346 C343 1.301 . S
O347 U326 2.449 . S
O347 C343 1.282 . S
H348 C321 0.931 . S
H349 C323 0.929 . S
H350 C324 0.930 . S
H351 C325 0.931 . S
H352 C332 0.932 . S
H353 C333 0.930 . S
H354 C334 0.929 . S
H355 C336 0.930 . S
H356 C338 0.932 . S
H357 C339 0.929 . S
H358 C340 0.928 . S
H359 C342 0.932 . S
C360 C361 1.264 . S
C360 C365 1.479 . S
C360 C370 1.465 . S
C361 C360 1.264 . S
C361 C363 1.339 . S
C361 H388 0.931 . S
C362 C363 1.395 . S
C362 C364 1.320 . S
C363 C361 1.339 . S
C363 C362 1.395 . S
C363 H389 0.929 . S
C364 C362 1.320 . S
C364 C365 1.405 . S
C364 H390 0.930 . S
C365 C360 1.479 . S
C365 C364 1.405 . S
C365 H391 0.931 . S
U366 O367 2.454 . S
U366 O368 2.458 . S
U366 C369 2.984 . S
U366 C370 2.847 . S
U366 C383 2.882 1_455 S
U366 O384 2.441 . S
U366 O385 2.420 . S
U366 O386 2.455 . S
U366 O387 2.449 . S
O367 U366 2.454 . S
O367 C369 1.353 . S
O368 U366 2.458 . S
O368 C369 1.286 . S
C369 U366 2.984 . S
C369 O367 1.353 . S
C369 O368 1.286 . S
C369 C371 1.363 . S
C370 C360 1.465 . S
C370 U366 2.847 . S
C370 O384 1.249 . S
C370 O385 1.202 . S
C371 C369 1.363 . S
C371 C373 1.408 . S
C371 C376 1.342 . S
C372 C373 1.310 . S
C372 C375 1.461 . S
C372 H392 0.932 . S
C373 C371 1.408 . S
C373 C372 1.310 . S
C373 H393 0.930 . S
C374 C375 1.474 . S
C374 C376 1.285 . S
C374 H394 0.929 . S
C375 C372 1.461 . S
C375 C374 1.474 . S
C376 C371 1.342 . S
C376 C374 1.285 . S
C376 H395 0.930 . S
C377 C380 1.424 . S
C377 C382 1.245 . S
C377 C383 1.428 . S
C378 C381 1.260 . S
C378 C382 1.477 . S
C378 H396 0.932 . S
C379 C380 1.384 . S
C379 C381 1.479 . S
C379 H397 0.929 . S
C380 C377 1.424 . S
C380 C379 1.384 . S
C380 H398 0.928 . S
C381 C378 1.260 . S
C381 C379 1.479 . S
C382 C377 1.245 . S
C382 C378 1.477 . S
C382 H399 0.932 . S
C383 U366 2.882 1_655 S
C383 C377 1.428 . S
C383 O386 1.301 1_655 S
C383 O387 1.282 1_655 S
O384 U366 2.441 . S
O384 C370 1.249 . S
O385 U366 2.420 . S
O385 C370 1.202 . S
O386 U366 2.455 . S
O386 C383 1.301 1_455 S
O387 U366 2.449 . S
O387 C383 1.282 1_455 S
H388 C361 0.931 . S
H389 C363 0.929 . S
H390 C364 0.930 . S
H391 C365 0.931 . S
H392 C372 0.932 . S
H393 C373 0.930 . S
H394 C374 0.929 . S
H395 C376 0.930 . S
H396 C378 0.932 . S
H397 C379 0.929 . S
H398 C380 0.928 . S
H399 C382 0.932 . S
C400 C401 1.264 . S
C400 C405 1.479 . S
C400 C410 1.465 . S
C401 C400 1.264 . S
C401 C403 1.339 . S
C401 H428 0.931 . S
C402 C403 1.395 . S
C402 C404 1.320 . S
C403 C401 1.339 . S
C403 C402 1.395 . S
C403 H429 0.929 . S
C404 C402 1.320 . S
C404 C405 1.405 . S
C404 H430 0.930 . S
C405 C400 1.479 . S
C405 C404 1.405 . S
C405 H431 0.931 . S
U406 O407 2.454 . S
U406 O408 2.458 . S
U406 C409 2.984 . S
U406 C410 2.847 . S
U406 C423 2.882 . S
U406 O424 2.441 . S
U406 O425 2.420 . S
U406 O426 2.455 . S
U406 O427 2.449 . S
O407 U406 2.454 . S
O407 C409 1.353 . S
O408 U406 2.458 . S
O408 C409 1.286 . S
C409 U406 2.984 . S
C409 O407 1.353 . S
C409 O408 1.286 . S
C409 C411 1.363 . S
C410 C400 1.465 . S
C410 U406 2.847 . S
C410 O424 1.249 . S
C410 O425 1.202 . S
C411 C409 1.363 . S
C411 C413 1.408 . S
C411 C416 1.342 . S
C412 C413 1.310 . S
C412 C415 1.461 . S
C412 H432 0.932 . S
C413 C411 1.408 . S
C413 C412 1.310 . S
C413 H433 0.930 . S
C414 C415 1.474 . S
C414 C416 1.285 . S
C414 H434 0.929 . S
C415 C412 1.461 . S
C415 C414 1.474 . S
C416 C411 1.342 . S
C416 C414 1.285 . S
C416 H435 0.930 . S
C417 C420 1.424 . S
C417 C422 1.245 . S
C417 C423 1.428 . S
C418 C421 1.260 . S
C418 C422 1.477 . S
C418 H436 0.932 . S
C419 C420 1.384 . S
C419 C421 1.479 . S
C419 H437 0.929 . S
C420 C417 1.424 . S
C420 C419 1.384 . S
C420 H438 0.928 . S
C421 C418 1.260 . S
C421 C419 1.479 . S
C422 C417 1.245 . S
C422 C418 1.477 . S
C422 H439 0.932 . S
C423 U406 2.882 . S
C423 C417 1.428 . S
C423 O426 1.301 . S
C423 O427 1.282 . S
O424 U406 2.441 . S
O424 C410 1.249 . S
O425 U406 2.420 . S
O425 C410 1.202 . S
O426 U406 2.455 . S
O426 C423 1.301 . S
O427 U406 2.449 . S
O427 C423 1.282 . S
H428 C401 0.931 . S
H429 C403 0.929 . S
H430 C404 0.930 . S
H431 C405 0.931 . S
H432 C412 0.932 . S
H433 C413 0.930 . S
H434 C414 0.929 . S
H435 C416 0.930 . S
H436 C418 0.932 . S
H437 C419 0.929 . S
H438 C420 0.928 . S
H439 C422 0.932 . S
C440 C441 1.264 . S
C440 C445 1.479 . S
C440 C450 1.465 . S
C441 C440 1.264 . S
C441 C443 1.339 . S
C441 H468 0.931 . S
C442 C443 1.395 . S
C442 C444 1.320 . S
C443 C441 1.339 . S
C443 C442 1.395 . S
C443 H469 0.929 . S
C444 C442 1.320 . S
C444 C445 1.405 . S
C444 H470 0.926 1_655 S
C445 C440 1.479 . S
C445 C444 1.405 . S
C445 H471 0.931 . S
U446 O447 2.454 . S
U446 O448 2.458 . S
U446 C449 2.984 . S
U446 C450 2.847 . S
U446 C463 2.882 . S
U446 O464 2.441 . S
U446 O465 2.420 . S
U446 O466 2.455 . S
U446 O467 2.449 . S
O447 U446 2.454 . S
O447 C449 1.353 . S
O448 U446 2.458 . S
O448 C449 1.286 . S
C449 U446 2.984 . S
C449 O447 1.353 . S
C449 O448 1.286 . S
C449 C451 1.363 . S
C450 C440 1.465 . S
C450 U446 2.847 . S
C450 O464 1.249 . S
C450 O465 1.202 . S
C451 C449 1.363 . S
C451 C453 1.408 . S
C451 C456 1.342 . S
C452 C453 1.310 . S
C452 C455 1.461 . S
C452 H472 0.932 . S
C453 C451 1.408 . S
C453 C452 1.310 . S
C453 H473 0.930 . S
C454 C455 1.473 1_455 S
C454 C456 1.284 1_455 S
C454 H474 0.932 . S
C455 C452 1.461 . S
C455 C454 1.473 1_655 S
C456 C451 1.342 . S
C456 C454 1.284 1_655 S
C456 H475 0.936 . S
C457 C460 1.424 . S
C457 C462 1.245 . S
C457 C463 1.428 . S
C458 C461 1.260 . S
C458 C462 1.477 . S
C458 H476 0.932 . S
C459 C460 1.384 . S
C459 C461 1.479 . S
C459 H477 0.929 . S
C460 C457 1.424 . S
C460 C459 1.384 . S
C460 H478 0.928 . S
C461 C458 1.260 . S
C461 C459 1.479 . S
C462 C457 1.245 . S
C462 C458 1.477 . S
C462 H479 0.932 . S
C463 U446 2.882 . S
C463 C457 1.428 . S
C463 O466 1.301 . S
C463 O467 1.282 . S
O464 U446 2.441 . S
O464 C450 1.249 . S
O465 U446 2.420 . S
O465 C450 1.202 . S
O466 U446 2.455 . S
O466 C463 1.301 . S
O467 U446 2.449 . S
O467 C463 1.282 . S
H468 C441 0.931 . S
H469 C443 0.929 . S
H470 C444 0.926 1_455 S
H471 C445 0.931 . S
H472 C452 0.932 . S
H473 C453 0.930 . S
H474 C454 0.932 . S
H475 C456 0.936 . S
H476 C458 0.932 . S
H477 C459 0.929 . S
H478 C460 0.928 . S
H479 C462 0.932 . S
C480 C481 1.264 . S
C480 C485 1.479 . S
C480 C490 1.465 . S
C481 C480 1.264 . S
C481 C483 1.339 . S
C481 H508 0.931 . S
C482 C483 1.395 . S
C482 C484 1.320 . S
C483 C481 1.339 . S
C483 C482 1.395 . S
C483 H509 0.929 . S
C484 C482 1.320 . S
C484 C485 1.405 . S
C484 H510 0.930 . S
C485 C480 1.479 . S
C485 C484 1.405 . S
C485 H511 0.931 . S
U486 O487 2.454 . S
U486 O488 2.458 . S
U486 C489 2.984 . S
U486 C490 2.847 . S
U486 C503 2.882 . S
U486 O504 2.441 . S
U486 O505 2.420 . S
U486 O506 2.455 . S
U486 O507 2.449 . S
O487 U486 2.454 . S
O487 C489 1.353 . S
O488 U486 2.458 . S
O488 C489 1.286 . S
C489 U486 2.984 . S
C489 O487 1.353 . S
C489 O488 1.286 . S
C489 C491 1.363 . S
C490 C480 1.465 . S
C490 U486 2.847 . S
C490 O504 1.249 . S
C490 O505 1.202 . S
C491 C489 1.363 . S
C491 C493 1.408 . S
C491 C496 1.342 . S
C492 C493 1.310 . S
C492 C495 1.461 . S
C492 H512 0.932 . S
C493 C491 1.408 . S
C493 C492 1.310 . S
C493 H513 0.930 . S
C494 C495 1.474 . S
C494 C496 1.285 . S
C494 H514 0.929 . S
C495 C492 1.461 . S
C495 C494 1.474 . S
C496 C491 1.342 . S
C496 C494 1.285 . S
C496 H515 0.930 . S
C497 C500 1.424 . S
C497 C502 1.245 . S
C497 C503 1.428 . S
C498 C501 1.260 . S
C498 C502 1.477 . S
C498 H516 0.932 . S
C499 C500 1.384 . S
C499 C501 1.479 . S
C499 H517 0.929 . S
C500 C497 1.424 . S
C500 C499 1.384 . S
C500 H518 0.928 . S
C501 C498 1.260 . S
C501 C499 1.479 . S
C502 C497 1.245 . S
C502 C498 1.477 . S
C502 H519 0.932 . S
C503 U486 2.882 . S
C503 C497 1.428 . S
C503 O506 1.301 . S
C503 O507 1.282 . S
O504 U486 2.441 . S
O504 C490 1.249 . S
O505 U486 2.420 . S
O505 C490 1.202 . S
O506 U486 2.455 . S
O506 C503 1.301 . S
O507 U486 2.449 . S
O507 C503 1.282 . S
H508 C481 0.931 . S
H509 C483 0.929 . S
H510 C484 0.930 . S
H511 C485 0.931 . S
H512 C492 0.932 . S
H513 C493 0.930 . S
H514 C494 0.929 . S
H515 C496 0.930 . S
H516 C498 0.932 . S
H517 C499 0.929 . S
H518 C500 0.928 . S
H519 C502 0.932 . S
C520 C521 1.264 . S
C520 C525 1.479 . S
C520 C530 1.465 . S
C521 C520 1.264 . S
C521 C523 1.339 . S
C521 H548 0.931 . S
C522 C523 1.395 . S
C522 C524 1.320 . S
C523 C521 1.339 . S
C523 C522 1.395 . S
C523 H549 0.929 . S
C524 C522 1.320 . S
C524 C525 1.405 . S
C524 H550 0.930 . S
C525 C520 1.479 . S
C525 C524 1.405 . S
C525 H551 0.931 . S
U526 O527 2.454 . S
U526 O528 2.458 . S
U526 C529 2.984 . S
U526 C530 2.847 . S
U526 C543 2.882 . S
U526 O544 2.441 . S
U526 O545 2.420 . S
U526 O546 2.455 . S
U526 O547 2.449 . S
O527 U526 2.454 . S
O527 C529 1.353 . S
O528 U526 2.458 . S
O528 C529 1.286 . S
C529 U526 2.984 . S
C529 O527 1.353 . S
C529 O528 1.286 . S
C529 C531 1.363 . S
C530 C520 1.465 . S
C530 U526 2.847 . S
C530 O544 1.249 . S
C530 O545 1.202 . S
C531 C529 1.363 . S
C531 C533 1.408 . S
C531 C536 1.342 . S
C532 C533 1.310 . S
C532 C535 1.461 . S
C532 H552 0.932 . S
C533 C531 1.408 . S
C533 C532 1.310 . S
C533 H553 0.930 . S
C534 C535 1.474 . S
C534 C536 1.285 . S
C534 H554 0.929 . S
C535 C532 1.461 . S
C535 C534 1.474 . S
C536 C531 1.342 . S
C536 C534 1.285 . S
C536 H555 0.930 . S
C537 C540 1.424 . S
C537 C542 1.245 . S
C537 C543 1.428 . S
C538 C541 1.260 . S
C538 C542 1.477 . S
C538 H556 0.932 . S
C539 C540 1.384 . S
C539 C541 1.479 . S
C539 H557 0.929 . S
C540 C537 1.424 . S
C540 C539 1.384 . S
C540 H558 0.928 . S
C541 C538 1.260 . S
C541 C539 1.479 . S
C542 C537 1.245 . S
C542 C538 1.477 . S
C542 H559 0.932 . S
C543 U526 2.882 . S
C543 C537 1.428 . S
C543 O546 1.301 . S
C543 O547 1.282 . S
O544 U526 2.441 . S
O544 C530 1.249 . S
O545 U526 2.420 . S
O545 C530 1.202 . S
O546 U526 2.455 . S
O546 C543 1.301 . S
O547 U526 2.449 . S
O547 C543 1.282 . S
H548 C521 0.931 . S
H549 C523 0.929 . S
H550 C524 0.930 . S
H551 C525 0.931 . S
H552 C532 0.932 . S
H553 C533 0.930 . S
H554 C534 0.929 . S
H555 C536 0.930 . S
H556 C538 0.932 . S
H557 C539 0.929 . S
H558 C540 0.928 . S
H559 C542 0.932 . S
C560 C561 1.264 . S
C560 C565 1.479 . S
C560 C570 1.465 . S
C561 C560 1.264 . S
C561 C563 1.339 . S
C561 H588 0.931 . S
C562 C563 1.395 . S
C562 C564 1.320 . S
C563 C561 1.339 . S
C563 C562 1.395 . S
C563 H589 0.929 . S
C564 C562 1.320 . S
C564 C565 1.405 . S
C564 H590 0.919 1_565 S
C565 C560 1.479 . S
C565 C564 1.405 . S
C565 H591 0.931 . S
U566 O567 2.454 . S
U566 O568 2.458 . S
U566 C569 2.984 . S
U566 C570 2.847 . S
U566 C583 2.882 . S
U566 O584 2.441 . S
U566 O585 2.420 . S
U566 O586 2.455 . S
U566 O587 2.449 . S
O567 U566 2.454 . S
O567 C569 1.353 . S
O568 U566 2.458 . S
O568 C569 1.286 . S
C569 U566 2.984 . S
C569 O567 1.353 . S
C569 O568 1.286 . S
C569 C571 1.363 . S
C570 C560 1.465 . S
C570 U566 2.847 . S
C570 O584 1.249 . S
C570 O585 1.202 . S
C571 C569 1.363 . S
C571 C573 1.408 . S
C571 C576 1.342 . S
C572 C573 1.310 . S
C572 C575 1.459 . S
C572 H592 0.932 . S
C573 C571 1.408 . S
C573 C572 1.310 . S
C573 H593 0.930 . S
C574 C575 1.475 1_545 S
C574 C576 1.285 1_545 S
C574 H594 0.930 . S
C575 C572 1.459 . S
C575 C574 1.475 1_565 S
C576 C571 1.342 . S
C576 C574 1.285 1_565 S
C576 H595 0.929 . S
C577 C580 1.424 . S
C577 C582 1.245 . S
C577 C583 1.428 . S
C578 C581 1.260 . S
C578 C582 1.477 . S
C578 H596 0.932 . S
C579 C580 1.384 . S
C579 C581 1.479 . S
C579 H597 0.929 . S
C580 C577 1.424 . S
C580 C579 1.384 . S
C580 H598 0.928 . S
C581 C578 1.260 . S
C581 C579 1.479 . S
C582 C577 1.245 . S
C582 C578 1.477 . S
C582 H599 0.932 . S
C583 U566 2.882 . S
C583 C577 1.428 . S
C583 O586 1.301 . S
C583 O587 1.282 . S
O584 U566 2.441 . S
O584 C570 1.249 . S
O585 U566 2.420 . S
O585 C570 1.202 . S
O586 U566 2.455 . S
O586 C583 1.301 . S
O587 U566 2.449 . S
O587 C583 1.282 . S
H588 C561 0.931 . S
H589 C563 0.929 . S
H590 C564 0.919 1_545 S
H591 C565 0.931 . S
H592 C572 0.932 . S
H593 C573 0.930 . S
H594 C574 0.930 . S
H595 C576 0.929 . S
H596 C578 0.932 . S
H597 C579 0.929 . S
H598 C580 0.928 . S
H599 C582 0.932 . S
C600 C601 1.262 1_565 S
C600 C605 1.479 . S
C600 C610 1.465 1_565 S
C601 C600 1.262 1_545 S
C601 C603 1.326 1_545 S
C601 H628 0.948 . S
C602 C603 1.395 . S
C602 C604 1.320 . S
C603 C601 1.326 1_565 S
C603 C602 1.395 . S
C603 H629 0.929 . S
C604 C602 1.320 . S
C604 C605 1.405 . S
C604 H630 0.930 . S
C605 C600 1.479 . S
C605 C604 1.405 . S
C605 H631 0.931 . S
U606 O607 2.454 1_545 S
U606 O608 2.458 . S
U606 C609 2.984 1_545 S
U606 C610 2.847 . S
U606 C623 2.882 . S
U606 O624 2.441 1_545 S
U606 O625 2.420 . S
U606 O626 2.455 . S
U606 O627 2.449 . S
O607 U606 2.454 1_565 S
O607 C609 1.353 . S
O608 U606 2.458 . S
O608 C609 1.286 1_545 S
C609 U606 2.984 1_565 S
C609 O607 1.353 . S
C609 O608 1.286 1_565 S
C609 C611 1.363 . S
C610 C600 1.465 1_545 S
C610 U606 2.847 . S
C610 O624 1.249 1_545 S
C610 O625 1.202 . S
C611 C609 1.363 . S
C611 C613 1.408 . S
C611 C616 1.342 . S
C612 C613 1.310 . S
C612 C615 1.461 . S
C612 H632 0.932 . S
C613 C611 1.408 . S
C613 C612 1.310 . S
C613 H633 0.930 . S
C614 C615 1.474 . S
C614 C616 1.285 . S
C614 H634 0.929 . S
C615 C612 1.461 . S
C615 C614 1.474 . S
C616 C611 1.342 . S
C616 C614 1.285 . S
C616 H635 0.930 . S
C617 C620 1.424 . S
C617 C622 1.245 . S
C617 C623 1.428 . S
C618 C621 1.260 . S
C618 C622 1.477 . S
C618 H636 0.932 . S
C619 C620 1.384 . S
C619 C621 1.479 . S
C619 H637 0.929 . S
C620 C617 1.424 . S
C620 C619 1.384 . S
C620 H638 0.928 . S
C621 C618 1.260 . S
C621 C619 1.479 . S
C622 C617 1.245 . S
C622 C618 1.477 . S
C622 H639 0.932 . S
C623 U606 2.882 . S
C623 C617 1.428 . S
C623 O626 1.301 . S
C623 O627 1.282 . S
O624 U606 2.441 1_565 S
O624 C610 1.249 1_565 S
O625 U606 2.420 . S
O625 C610 1.202 . S
O626 U606 2.455 . S
O626 C623 1.301 . S
O627 U606 2.449 . S
O627 C623 1.282 . S
H628 C601 0.948 . S
H629 C603 0.929 . S
H630 C604 0.930 . S
H631 C605 0.931 . S
H632 C612 0.932 . S
H633 C613 0.930 . S
H634 C614 0.929 . S
H635 C616 0.930 . S
H636 C618 0.932 . S
H637 C619 0.929 . S
H638 C620 0.928 . S
H639 C622 0.932 . S
C640 C641 1.264 . S
C640 C645 1.479 . S
C640 C650 1.465 . S
C641 C640 1.264 . S
C641 C643 1.339 . S
C641 H668 0.931 . S
C642 C643 1.395 . S
C642 C644 1.320 . S
C643 C641 1.339 . S
C643 C642 1.395 . S
C643 H669 0.929 . S
C644 C642 1.320 . S
C644 C645 1.405 . S
C644 H670 0.930 . S
C645 C640 1.479 . S
C645 C644 1.405 . S
C645 H671 0.931 . S
U646 O647 2.454 . S
U646 O648 2.458 . S
U646 C649 2.984 . S
U646 C650 2.847 . S
U646 C663 2.882 . S
U646 O664 2.441 . S
U646 O665 2.420 . S
U646 O666 2.455 . S
U646 O667 2.449 . S
O647 U646 2.454 . S
O647 C649 1.353 . S
O648 U646 2.458 . S
O648 C649 1.286 . S
C649 U646 2.984 . S
C649 O647 1.353 . S
C649 O648 1.286 . S
C649 C651 1.363 . S
C650 C640 1.465 . S
C650 U646 2.847 . S
C650 O664 1.249 . S
C650 O665 1.202 . S
C651 C649 1.363 . S
C651 C653 1.408 . S
C651 C656 1.342 . S
C652 C653 1.310 . S
C652 C655 1.461 . S
C652 H672 0.932 . S
C653 C651 1.408 . S
C653 C652 1.310 . S
C653 H673 0.930 . S
C654 C655 1.474 . S
C654 C656 1.285 . S
C654 H674 0.929 . S
C655 C652 1.461 . S
C655 C654 1.474 . S
C656 C651 1.342 . S
C656 C654 1.285 . S
C656 H675 0.930 . S
C657 C660 1.424 . S
C657 C662 1.245 . S
C657 C663 1.428 . S
C658 C661 1.260 . S
C658 C662 1.477 . S
C658 H676 0.932 . S
C659 C660 1.384 . S
C659 C661 1.479 . S
C659 H677 0.929 . S
C660 C657 1.424 . S
C660 C659 1.384 . S
C660 H678 0.928 . S
C661 C658 1.260 . S
C661 C659 1.479 . S
C662 C657 1.245 . S
C662 C658 1.477 . S
C662 H679 0.932 . S
C663 U646 2.882 . S
C663 C657 1.428 . S
C663 O666 1.301 . S
C663 O667 1.282 . S
O664 U646 2.441 . S
O664 C650 1.249 . S
O665 U646 2.420 . S
O665 C650 1.202 . S
O666 U646 2.455 . S
O666 C663 1.301 . S
O667 U646 2.449 . S
O667 C663 1.282 . S
H668 C641 0.931 . S
H669 C643 0.929 . S
H670 C644 0.930 . S
H671 C645 0.931 . S
H672 C652 0.932 . S
H673 C653 0.930 . S
H674 C654 0.929 . S
H675 C656 0.930 . S
H676 C658 0.932 . S
H677 C659 0.929 . S
H678 C660 0.928 . S
H679 C662 0.932 . S
C680 C681 1.262 1_556 S
C680 C685 1.479 . S
C680 C690 1.465 1_556 S
C681 C680 1.262 1_554 S
C681 C683 1.326 1_554 S
C681 H708 0.948 . S
C682 C683 1.395 . S
C682 C684 1.320 . S
C683 C681 1.326 1_556 S
C683 C682 1.395 . S
C683 H709 0.929 . S
C684 C682 1.320 . S
C684 C685 1.405 . S
C684 H710 0.930 . S
C685 C680 1.479 . S
C685 C684 1.405 . S
C685 H711 0.931 . S
U686 O687 2.454 1_554 S
U686 O688 2.458 . S
U686 C689 2.984 1_554 S
U686 C690 2.847 . S
U686 C703 2.882 . S
U686 O704 2.441 1_554 S
U686 O705 2.420 . S
U686 O706 2.455 . S
U686 O707 2.449 . S
O687 U686 2.454 1_556 S
O687 C689 1.353 . S
O688 U686 2.458 . S
O688 C689 1.286 1_554 S
C689 U686 2.984 1_556 S
C689 O687 1.353 . S
C689 O688 1.286 1_556 S
C689 C691 1.363 . S
C690 C680 1.465 1_554 S
C690 U686 2.847 . S
C690 O704 1.249 1_554 S
C690 O705 1.202 . S
C691 C689 1.363 . S
C691 C693 1.408 . S
C691 C696 1.342 . S
C692 C693 1.310 . S
C692 C695 1.461 . S
C692 H712 0.932 . S
C693 C691 1.408 . S
C693 C692 1.310 . S
C693 H713 0.930 . S
C694 C695 1.474 . S
C694 C696 1.285 . S
C694 H714 0.929 . S
C695 C692 1.461 . S
C695 C694 1.474 . S
C696 C691 1.342 . S
C696 C694 1.285 . S
C696 H715 0.930 . S
C697 C700 1.424 . S
C697 C702 1.245 . S
C697 C703 1.428 . S
C698 C701 1.260 . S
C698 C702 1.477 . S
C698 H716 0.932 . S
C699 C700 1.384 . S
C699 C701 1.479 . S
C699 H717 0.929 . S
C700 C697 1.424 . S
C700 C699 1.384 . S
C700 H718 0.928 . S
C701 C698 1.260 . S
C701 C699 1.479 . S
C702 C697 1.245 . S
C702 C698 1.477 . S
C702 H719 0.932 . S
C703 U686 2.882 . S
C703 C697 1.428 . S
C703 O706 1.301 . S
C703 O707 1.282 . S
O704 U686 2.441 1_556 S
O704 C690 1.249 1_556 S
O705 U686 2.420 . S
O705 C690 1.202 . S
O706 U686 2.455 . S
O706 C703 1.301 . S
O707 U686 2.449 . S
O707 C703 1.282 . S
H708 C681 0.948 . S
H709 C683 0.929 . S
H710 C684 0.930 . S
H711 C685 0.931 . S
H712 C692 0.932 . S
H713 C693 0.930 . S
H714 C694 0.929 . S
H715 C696 0.930 . S
H716 C698 0.932 . S
H717 C699 0.929 . S
H718 C700 0.928 . S
H719 C702 0.932 . S
C720 C721 1.264 . S
C720 C725 1.479 . S
C720 C730 1.465 . S
C721 C720 1.264 . S
C721 C723 1.339 . S
C721 H748 0.931 . S
C722 C723 1.395 . S
C722 C724 1.320 . S
C723 C721 1.339 . S
C723 C722 1.395 . S
C723 H749 0.929 . S
C724 C722 1.320 . S
C724 C725 1.405 . S
C724 H750 0.930 . S
C725 C720 1.479 . S
C725 C724 1.405 . S
C725 H751 0.931 . S
U726 O727 2.454 . S
U726 O728 2.458 . S
U726 C729 2.984 . S
U726 C730 2.847 . S
U726 C743 2.882 . S
U726 O744 2.441 . S
U726 O745 2.420 . S
U726 O746 2.455 . S
U726 O747 2.449 . S
O727 U726 2.454 . S
O727 C729 1.353 . S
O728 U726 2.458 . S
O728 C729 1.286 . S
C729 U726 2.984 . S
C729 O727 1.353 . S
C729 O728 1.286 . S
C729 C731 1.363 . S
C730 C720 1.465 . S
C730 U726 2.847 . S
C730 O744 1.249 . S
C730 O745 1.202 . S
C731 C729 1.363 . S
C731 C733 1.408 . S
C731 C736 1.342 . S
C732 C733 1.310 . S
C732 C735 1.461 . S
C732 H752 0.932 . S
C733 C731 1.408 . S
C733 C732 1.310 . S
C733 H753 0.930 . S
C734 C735 1.474 . S
C734 C736 1.285 . S
C734 H754 0.929 . S
C735 C732 1.461 . S
C735 C734 1.474 . S
C736 C731 1.342 . S
C736 C734 1.285 . S
C736 H755 0.930 . S
C737 C740 1.424 . S
C737 C742 1.245 . S
C737 C743 1.428 . S
C738 C741 1.260 . S
C738 C742 1.477 . S
C738 H756 0.932 . S
C739 C740 1.384 . S
C739 C741 1.479 . S
C739 H757 0.929 . S
C740 C737 1.424 . S
C740 C739 1.384 . S
C740 H758 0.928 . S
C741 C738 1.260 . S
C741 C739 1.479 . S
C742 C737 1.245 . S
C742 C738 1.477 . S
C742 H759 0.932 . S
C743 U726 2.882 . S
C743 C737 1.428 . S
C743 O746 1.301 . S
C743 O747 1.282 . S
O744 U726 2.441 . S
O744 C730 1.249 . S
O745 U726 2.420 . S
O745 C730 1.202 . S
O746 U726 2.455 . S
O746 C743 1.301 . S
O747 U726 2.449 . S
O747 C743 1.282 . S
H748 C721 0.931 . S
H749 C723 0.929 . S
H750 C724 0.930 . S
H751 C725 0.931 . S
H752 C732 0.932 . S
H753 C733 0.930 . S
H754 C734 0.929 . S
H755 C736 0.930 . S
H756 C738 0.932 . S
H757 C739 0.929 . S
H758 C740 0.928 . S
H759 C742 0.932 . S
C760 C761 1.264 . S
C760 C765 1.479 . S
C760 C770 1.465 . S
C761 C760 1.264 . S
C761 C763 1.339 . S
C761 H788 0.931 . S
C762 C763 1.395 . S
C762 C764 1.320 . S
C763 C761 1.339 . S
C763 C762 1.395 . S
C763 H789 0.929 . S
C764 C762 1.320 . S
C764 C765 1.405 . S
C764 H790 0.919 1_556 S
C765 C760 1.479 . S
C765 C764 1.405 . S
C765 H791 0.931 . S
U766 O767 2.454 . S
U766 O768 2.458 . S
U766 C769 2.984 . S
U766 C770 2.847 . S
U766 C783 2.882 . S
U766 O784 2.441 . S
U766 O785 2.420 . S
U766 O786 2.455 . S
U766 O787 2.449 . S
O767 U766 2.454 . S
O767 C769 1.353 . S
O768 U766 2.458 . S
O768 C769 1.286 . S
C769 U766 2.984 . S
C769 O767 1.353 . S
C769 O768 1.286 . S
C769 C771 1.363 . S
C770 C760 1.465 . S
C770 U766 2.847 . S
C770 O784 1.249 . S
C770 O785 1.202 . S
C771 C769 1.363 . S
C771 C773 1.408 . S
C771 C776 1.342 . S
C772 C773 1.310 . S
C772 C775 1.459 . S
C772 H792 0.932 . S
C773 C771 1.408 . S
C773 C772 1.310 . S
C773 H793 0.930 . S
C774 C775 1.475 1_554 S
C774 C776 1.285 1_554 S
C774 H794 0.930 . S
C775 C772 1.459 . S
C775 C774 1.475 1_556 S
C776 C771 1.342 . S
C776 C774 1.285 1_556 S
C776 H795 0.929 . S
C777 C780 1.424 . S
C777 C782 1.245 . S
C777 C783 1.428 . S
C778 C781 1.260 . S
C778 C782 1.477 . S
C778 H796 0.932 . S
C779 C780 1.384 . S
C779 C781 1.479 . S
C779 H797 0.929 . S
C780 C777 1.424 . S
C780 C779 1.384 . S
C780 H798 0.928 . S
C781 C778 1.260 . S
C781 C779 1.479 . S
C782 C777 1.245 . S
C782 C778 1.477 . S
C782 H799 0.932 . S
C783 U766 2.882 . S
C783 C777 1.428 . S
C783 O786 1.301 . S
C783 O787 1.282 . S
O784 U766 2.441 . S
O784 C770 1.249 . S
O785 U766 2.420 . S
O785 C770 1.202 . S
O786 U766 2.455 . S
O786 C783 1.301 . S
O787 U766 2.449 . S
O787 C783 1.282 . S
H788 C761 0.931 . S
H789 C763 0.929 . S
H790 C764 0.919 1_554 S
H791 C765 0.931 . S
H792 C772 0.932 . S
H793 C773 0.930 . S
H794 C774 0.930 . S
H795 C776 0.929 . S
H796 C778 0.932 . S
H797 C779 0.929 . S
H798 C780 0.928 . S
H799 C782 0.932 . S
C800 C801 1.264 . S
C800 C805 1.479 . S
C800 C810 1.465 . S
C801 C800 1.264 . S
C801 C803 1.339 . S
C801 H828 0.931 . S
C802 C803 1.395 . S
C802 C804 1.320 . S
C803 C801 1.339 . S
C803 C802 1.395 . S
C803 H829 0.929 . S
C804 C802 1.320 . S
C804 C805 1.405 . S
C804 H830 0.930 . S
C805 C800 1.479 . S
C805 C804 1.405 . S
C805 H831 0.931 . S
U806 O807 2.454 . S
U806 O808 2.458 . S
U806 C809 2.984 . S
U806 C810 2.847 . S
U806 C823 2.882 . S
U806 O824 2.441 . S
U806 O825 2.420 . S
U806 O826 2.455 . S
U806 O827 2.449 . S
O807 U806 2.454 . S
O807 C809 1.353 . S
O808 U806 2.458 . S
O808 C809 1.286 . S
C809 U806 2.984 . S
C809 O807 1.353 . S
C809 O808 1.286 . S
C809 C811 1.363 . S
C810 C800 1.465 . S
C810 U806 2.847 . S
C810 O824 1.249 . S
C810 O825 1.202 . S
C811 C809 1.363 . S
C811 C813 1.408 . S
C811 C816 1.342 . S
C812 C813 1.310 . S
C812 C815 1.461 . S
C812 H832 0.932 . S
C813 C811 1.408 . S
C813 C812 1.310 . S
C813 H833 0.930 . S
C814 C815 1.474 . S
C814 C816 1.285 . S
C814 H834 0.929 . S
C815 C812 1.461 . S
C815 C814 1.474 . S
C816 C811 1.342 . S
C816 C814 1.285 . S
C816 H835 0.930 . S
C817 C820 1.424 . S
C817 C822 1.245 . S
C817 C823 1.428 . S
C818 C821 1.260 . S
C818 C822 1.477 . S
C818 H836 0.932 . S
C819 C820 1.384 . S
C819 C821 1.479 . S
C819 H837 0.929 . S
C820 C817 1.424 . S
C820 C819 1.384 . S
C820 H838 0.928 . S
C821 C818 1.260 . S
C821 C819 1.479 . S
C822 C817 1.245 . S
C822 C818 1.477 . S
C822 H839 0.932 . S
C823 U806 2.882 . S
C823 C817 1.428 . S
C823 O826 1.301 . S
C823 O827 1.282 . S
O824 U806 2.441 . S
O824 C810 1.249 . S
O825 U806 2.420 . S
O825 C810 1.202 . S
O826 U806 2.455 . S
O826 C823 1.301 . S
O827 U806 2.449 . S
O827 C823 1.282 . S
H828 C801 0.931 . S
H829 C803 0.929 . S
H830 C804 0.930 . S
H831 C805 0.931 . S
H832 C812 0.932 . S
H833 C813 0.930 . S
H834 C814 0.929 . S
H835 C816 0.930 . S
H836 C818 0.932 . S
H837 C819 0.929 . S
H838 C820 0.928 . S
H839 C822 0.932 . S
C840 C841 1.262 1_655 S
C840 C845 1.479 . S
C840 C850 1.465 1_655 S
C841 C840 1.262 1_455 S
C841 C843 1.326 1_455 S
C841 H868 0.948 . S
C842 C843 1.395 . S
C842 C844 1.320 . S
C843 C841 1.326 1_655 S
C843 C842 1.395 . S
C843 H869 0.929 . S
C844 C842 1.320 . S
C844 C845 1.405 . S
C844 H870 0.930 . S
C845 C840 1.479 . S
C845 C844 1.405 . S
C845 H871 0.931 . S
U846 O847 2.454 1_455 S
U846 O848 2.458 . S
U846 C849 2.984 1_455 S
U846 C850 2.847 . S
U846 C863 2.882 . S
U846 O864 2.441 1_455 S
U846 O865 2.420 . S
U846 O866 2.455 . S
U846 O867 2.449 . S
O847 U846 2.454 1_655 S
O847 C849 1.353 . S
O848 U846 2.458 . S
O848 C849 1.286 1_455 S
C849 U846 2.984 1_655 S
C849 O847 1.353 . S
C849 O848 1.286 1_655 S
C849 C851 1.363 . S
C850 C840 1.465 1_455 S
C850 U846 2.847 . S
C850 O864 1.249 1_455 S
C850 O865 1.202 . S
C851 C849 1.363 . S
C851 C853 1.408 . S
C851 C856 1.342 . S
C852 C853 1.310 . S
C852 C855 1.461 . S
C852 H872 0.932 . S
C853 C851 1.408 . S
C853 C852 1.310 . S
C853 H873 0.930 . S
C854 C855 1.474 . S
C854 C856 1.285 . S
C854 H874 0.929 . S
C855 C852 1.461 . S
C855 C854 1.474 . S
C856 C851 1.342 . S
C856 C854 1.285 . S
C856 H875 0.930 . S
C857 C860 1.424 . S
C857 C862 1.245 . S
C857 C863 1.428 . S
C858 C861 1.260 . S
C858 C862 1.477 . S
C858 H876 0.932 . S
C859 C860 1.384 . S
C859 C861 1.479 . S
C859 H877 0.929 . S
C860 C857 1.424 . S
C860 C859 1.384 . S
C860 H878 0.928 . S
C861 C858 1.260 . S
C861 C859 1.479 . S
C862 C857 1.245 . S
C862 C858 1.477 . S
C862 H879 0.932 . S
C863 U846 2.882 . S
C863 C857 1.428 . S
C863 O866 1.301 . S
C863 O867 1.282 . S
O864 U846 2.441 1_655 S
O864 C850 1.249 1_655 S
O865 U846 2.420 . S
O865 C850 1.202 . S
O866 U846 2.455 . S
O866 C863 1.301 . S
O867 U846 2.449 . S
O867 C863 1.282 . S
H868 C841 0.948 . S
H869 C843 0.929 . S
H870 C844 0.930 . S
H871 C845 0.931 . S
H872 C852 0.932 . S
H873 C853 0.930 . S
H874 C854 0.929 . S
H875 C856 0.930 . S
H876 C858 0.932 . S
H877 C859 0.929 . S
H878 C860 0.928 . S
H879 C862 0.932 . S
C880 C881 1.264 . S
C880 C885 1.479 . S
C880 C890 1.465 . S
C881 C880 1.264 . S
C881 C883 1.339 . S
C881 H908 0.931 . S
C882 C883 1.395 . S
C882 C884 1.320 . S
C883 C881 1.339 . S
C883 C882 1.395 . S
C883 H909 0.929 . S
C884 C882 1.320 . S
C884 C885 1.405 . S
C884 H910 0.930 . S
C885 C880 1.479 . S
C885 C884 1.405 . S
C885 H911 0.931 . S
U886 O887 2.454 . S
U886 O888 2.458 . S
U886 C889 2.984 . S
U886 C890 2.847 . S
U886 C903 2.882 . S
U886 O904 2.441 . S
U886 O905 2.420 . S
U886 O906 2.455 . S
U886 O907 2.449 . S
O887 U886 2.454 . S
O887 C889 1.353 . S
O888 U886 2.458 . S
O888 C889 1.286 . S
C889 U886 2.984 . S
C889 O887 1.353 . S
C889 O888 1.286 . S
C889 C891 1.363 . S
C890 C880 1.465 . S
C890 U886 2.847 . S
C890 O904 1.249 . S
C890 O905 1.202 . S
C891 C889 1.363 . S
C891 C893 1.408 . S
C891 C896 1.342 . S
C892 C893 1.310 . S
C892 C895 1.461 . S
C892 H912 0.932 . S
C893 C891 1.408 . S
C893 C892 1.310 . S
C893 H913 0.930 . S
C894 C895 1.474 . S
C894 C896 1.285 . S
C894 H914 0.929 . S
C895 C892 1.461 . S
C895 C894 1.474 . S
C896 C891 1.342 . S
C896 C894 1.285 . S
C896 H915 0.930 . S
C897 C900 1.424 . S
C897 C902 1.245 . S
C897 C903 1.428 . S
C898 C901 1.260 . S
C898 C902 1.477 . S
C898 H916 0.932 . S
C899 C900 1.384 . S
C899 C901 1.479 . S
C899 H917 0.929 . S
C900 C897 1.424 . S
C900 C899 1.384 . S
C900 H918 0.928 . S
C901 C898 1.260 . S
C901 C899 1.479 . S
C902 C897 1.245 . S
C902 C898 1.477 . S
C902 H919 0.932 . S
C903 U886 2.882 . S
C903 C897 1.428 . S
C903 O906 1.301 . S
C903 O907 1.282 . S
O904 U886 2.441 . S
O904 C890 1.249 . S
O905 U886 2.420 . S
O905 C890 1.202 . S
O906 U886 2.455 . S
O906 C903 1.301 . S
O907 U886 2.449 . S
O907 C903 1.282 . S
H908 C881 0.931 . S
H909 C883 0.929 . S
H910 C884 0.930 . S
H911 C885 0.931 . S
H912 C892 0.932 . S
H913 C893 0.930 . S
H914 C894 0.929 . S
H915 C896 0.930 . S
H916 C898 0.932 . S
H917 C899 0.929 . S
H918 C900 0.928 . S
H919 C902 0.932 . S
C920 C921 1.264 . S
C920 C925 1.479 . S
C920 C930 1.465 . S
C921 C920 1.264 . S
C921 C923 1.339 . S
C921 H948 0.931 . S
C922 C923 1.395 . S
C922 C924 1.320 . S
C923 C921 1.339 . S
C923 C922 1.395 . S
C923 H949 0.929 . S
C924 C922 1.320 . S
C924 C925 1.405 . S
C924 H950 0.919 1_655 S
C925 C920 1.479 . S
C925 C924 1.405 . S
C925 H951 0.931 . S
U926 O927 2.454 . S
U926 O928 2.458 . S
U926 C929 2.984 . S
U926 C930 2.847 . S
U926 C943 2.882 . S
U926 O944 2.441 . S
U926 O945 2.420 . S
U926 O946 2.455 . S
U926 O947 2.449 . S
O927 U926 2.454 . S
O927 C929 1.353 . S
O928 U926 2.458 . S
O928 C929 1.286 . S
C929 U926 2.984 . S
C929 O927 1.353 . S
C929 O928 1.286 . S
C929 C931 1.363 . S
C930 C920 1.465 . S
C930 U926 2.847 . S
C930 O944 1.249 . S
C930 O945 1.202 . S
C931 C929 1.363 . S
C931 C933 1.408 . S
C931 C936 1.342 . S
C932 C933 1.310 . S
C932 C935 1.459 . S
C932 H952 0.932 . S
C933 C931 1.408 . S
C933 C932 1.310 . S
C933 H953 0.930 . S
C934 C935 1.475 1_455 S
C934 C936 1.285 1_455 S
C934 H954 0.930 . S
C935 C932 1.459 . S
C935 C934 1.475 1_655 S
C936 C931 1.342 . S
C936 C934 1.285 1_655 S
C936 H955 0.929 . S
C937 C940 1.424 . S
C937 C942 1.245 . S
C937 C943 1.428 . S
C938 C941 1.260 . S
C938 C942 1.477 . S
C938 H956 0.932 . S
C939 C940 1.384 . S
C939 C941 1.479 . S
C939 H957 0.929 . S
C940 C937 1.424 . S
C940 C939 1.384 . S
C940 H958 0.928 . S
C941 C938 1.260 . S
C941 C939 1.479 . S
C942 C937 1.245 . S
C942 C938 1.477 . S
C942 H959 0.932 . S
C943 U926 2.882 . S
C943 C937 1.428 . S
C943 O946 1.301 . S
C943 O947 1.282 . S
O944 U926 2.441 . S
O944 C930 1.249 . S
O945 U926 2.420 . S
O945 C930 1.202 . S
O946 U926 2.455 . S
O946 C943 1.301 . S
O947 U926 2.449 . S
O947 C943 1.282 . S
H948 C921 0.931 . S
H949 C923 0.929 . S
H950 C924 0.919 1_455 S
H951 C925 0.931 . S
H952 C932 0.932 . S
H953 C933 0.930 . S
H954 C934 0.930 . S
H955 C936 0.929 . S
H956 C938 0.932 . S
H957 C939 0.929 . S
H958 C940 0.928 . S
H959 C942 0.932 . S
C960 N961 1.317 . S
C960 N962 1.348 . S
C960 C963 1.485 . S
N961 C960 1.317 . S
N961 N965 1.370 . S
N962 C960 1.348 . S
N962 C964 1.346 . S
C963 C960 1.485 . S
C963 H967 0.960 . S
C963 H968 0.961 . S
C963 H969 0.960 . S
C964 N962 1.346 . S
C964 N965 1.307 . S
C964 C966 1.486 . S
N965 N961 1.370 . S
N965 C964 1.307 . S
C966 C964 1.486 . S
C966 H970 0.960 . S
C966 H971 0.960 . S
C966 H972 0.959 . S
H967 C963 0.960 . S
H968 C963 0.961 . S
H969 C963 0.960 . S
H970 C966 0.960 . S
H971 C966 0.960 . S
H972 C966 0.959 . S
C973 N974 1.317 . S
C973 N975 1.348 . S
C973 C976 1.485 . S
N974 C973 1.317 . S
N974 N978 1.370 1_554 S
N975 C973 1.348 . S
N975 C977 1.346 1_554 S
C976 C973 1.485 . S
C976 H980 0.960 . S
C976 H981 0.961 . S
C976 H982 0.960 . S
C977 N975 1.346 1_556 S
C977 N978 1.307 . S
C977 C979 1.486 . S
N978 N974 1.370 1_556 S
N978 C977 1.307 . S
C979 C977 1.486 . S
C979 H983 0.960 . S
C979 H984 0.960 . S
C979 H985 0.959 . S
H980 C976 0.960 . S
H981 C976 0.961 . S
H982 C976 0.960 . S
H983 C979 0.960 . S
H984 C979 0.960 . S
H985 C979 0.959 . S
C986 N987 1.317 . S
C986 N988 1.348 1_565 S
C986 C989 1.485 . S
N987 C986 1.317 . S
N987 N991 1.359 1_565 S
N988 C986 1.348 1_545 S
N988 C990 1.346 . S
C989 C986 1.485 . S
C989 H993 0.960 . S
C989 H994 0.963 1_565 S
C989 H995 0.960 . S
C990 N988 1.346 . S
C990 N991 1.325 . S
C990 C992 1.486 . S
N991 N987 1.359 1_545 S
N991 C990 1.325 . S
C992 C990 1.486 . S
C992 H996 0.960 . S
C992 H997 0.960 . S
C992 H998 0.959 . S
H993 C989 0.960 . S
H994 C989 0.963 1_545 S
H995 C989 0.960 . S
H996 C992 0.960 . S
H997 C992 0.960 . S
H998 C992 0.959 . S
C999 N1000 1.317 . S
C999 N1001 1.348 . S
C999 C1002 1.485 . S
N1000 C999 1.317 . S
N1000 N1004 1.370 1_556 S
N1001 C999 1.348 . S
N1001 C1003 1.346 1_556 S
C1002 C999 1.485 . S
C1002 H1006 0.960 . S
C1002 H1007 0.961 . S
C1002 H1008 0.960 . S
C1003 N1001 1.346 1_554 S
C1003 N1004 1.307 . S
C1003 C1005 1.486 . S
N1004 N1000 1.370 1_554 S
N1004 C1003 1.307 . S
C1005 C1003 1.486 . S
C1005 H1009 0.960 . S
C1005 H1010 0.960 . S
C1005 H1011 0.959 . S
H1006 C1002 0.960 . S
H1007 C1002 0.961 . S
H1008 C1002 0.960 . S
H1009 C1005 0.960 . S
H1010 C1005 0.960 . S
H1011 C1005 0.959 . S
C1012 N1013 1.317 . S
C1012 N1014 1.348 . S
C1012 C1015 1.485 . S
N1013 C1012 1.317 . S
N1013 N1017 1.370 . S
N1014 C1012 1.348 . S
N1014 C1016 1.346 . S
C1015 C1012 1.485 . S
C1015 H1019 0.960 . S
C1015 H1020 0.961 . S
C1015 H1021 0.960 . S
C1016 N1014 1.346 . S
C1016 N1017 1.307 . S
C1016 C1018 1.486 . S
N1017 N1013 1.370 . S
N1017 C1016 1.307 . S
C1018 C1016 1.486 . S
C1018 H1022 0.960 . S
C1018 H1023 0.960 . S
C1018 H1024 0.959 . S
H1019 C1015 0.960 . S
H1020 C1015 0.961 . S
H1021 C1015 0.960 . S
H1022 C1018 0.960 . S
H1023 C1018 0.960 . S
H1024 C1018 0.959 . S
C1025 N1026 1.317 . S
C1025 N1027 1.348 . S
C1025 C1028 1.485 . S
N1026 C1025 1.317 . S
N1026 N1030 1.370 1_655 S
N1027 C1025 1.348 . S
N1027 C1029 1.346 1_655 S
C1028 C1025 1.485 . S
C1028 H1032 0.960 . S
C1028 H1033 0.961 . S
C1028 H1034 0.960 . S
C1029 N1027 1.346 1_455 S
C1029 N1030 1.307 . S
C1029 C1031 1.486 . S
N1030 N1026 1.370 1_455 S
N1030 C1029 1.307 . S
C1031 C1029 1.486 . S
C1031 H1035 0.960 . S
C1031 H1036 0.960 . S
C1031 H1037 0.959 . S
H1032 C1028 0.960 . S
H1033 C1028 0.961 . S
H1034 C1028 0.960 . S
H1035 C1031 0.960 . S
H1036 C1031 0.960 . S
H1037 C1031 0.959 . S
C1038 N1039 1.317 . S
C1038 N1040 1.348 . S
C1038 C1041 1.485 . S
N1039 C1038 1.317 . S
N1039 N1043 1.370 1_455 S
N1040 C1038 1.348 . S
N1040 C1042 1.346 1_455 S
C1041 C1038 1.485 . S
C1041 H1045 0.960 . S
C1041 H1046 0.961 . S
C1041 H1047 0.960 . S
C1042 N1040 1.346 1_655 S
C1042 N1043 1.307 . S
C1042 C1044 1.486 . S
N1043 N1039 1.370 1_655 S
N1043 C1042 1.307 . S
C1044 C1042 1.486 . S
C1044 H1048 0.960 . S
C1044 H1049 0.960 . S
C1044 H1050 0.959 . S
H1045 C1041 0.960 . S
H1046 C1041 0.961 . S
H1047 C1041 0.960 . S
H1048 C1044 0.960 . S
H1049 C1044 0.960 . S
H1050 C1044 0.959 . S
C1051 N1052 1.317 . S
C1051 N1053 1.348 1_556 S
C1051 C1054 1.485 . S
N1052 C1051 1.317 . S
N1052 N1056 1.359 1_556 S
N1053 C1051 1.348 1_554 S
N1053 C1055 1.346 . S
C1054 C1051 1.485 . S
C1054 H1058 0.960 . S
C1054 H1059 0.963 1_556 S
C1054 H1060 0.960 . S
C1055 N1053 1.346 . S
C1055 N1056 1.325 . S
C1055 C1057 1.486 . S
N1056 N1052 1.359 1_554 S
N1056 C1055 1.325 . S
C1057 C1055 1.486 . S
C1057 H1061 0.960 . S
C1057 H1062 0.960 . S
C1057 H1063 0.959 . S
H1058 C1054 0.960 . S
H1059 C1054 0.963 1_554 S
H1060 C1054 0.960 . S
H1061 C1057 0.960 . S
H1062 C1057 0.960 . S
H1063 C1057 0.959 . S
C1064 N1065 1.317 . S
C1064 N1066 1.348 . S
C1064 C1067 1.485 . S
N1065 C1064 1.317 . S
N1065 N1069 1.370 . S
N1066 C1064 1.348 . S
N1066 C1068 1.346 . S
C1067 C1064 1.485 . S
C1067 H1071 0.960 . S
C1067 H1072 0.961 . S
C1067 H1073 0.960 . S
C1068 N1066 1.346 . S
C1068 N1069 1.307 . S
C1068 C1070 1.486 . S
N1069 N1065 1.370 . S
N1069 C1068 1.307 . S
C1070 C1068 1.486 . S
C1070 H1074 0.960 . S
C1070 H1075 0.960 . S
C1070 H1076 0.959 . S
H1071 C1067 0.960 . S
H1072 C1067 0.961 . S
H1073 C1067 0.960 . S
H1074 C1070 0.960 . S
H1075 C1070 0.960 . S
H1076 C1070 0.959 . S
C1077 N1078 1.317 . S
C1077 N1079 1.348 . S
C1077 C1080 1.485 . S
N1078 C1077 1.317 . S
N1078 N1082 1.370 1_565 S
N1079 C1077 1.348 . S
N1079 C1081 1.346 1_565 S
C1080 C1077 1.485 . S
C1080 H1084 0.960 . S
C1080 H1085 0.961 . S
C1080 H1086 0.960 . S
C1081 N1079 1.346 1_545 S
C1081 N1082 1.307 . S
C1081 C1083 1.486 . S
N1082 N1078 1.370 1_545 S
N1082 C1081 1.307 . S
C1083 C1081 1.486 . S
C1083 H1087 0.960 . S
C1083 H1088 0.960 . S
C1083 H1089 0.959 . S
H1084 C1080 0.960 . S
H1085 C1080 0.961 . S
H1086 C1080 0.960 . S
H1087 C1083 0.960 . S
H1088 C1083 0.960 . S
H1089 C1083 0.959 . S
C1090 N1091 1.317 . S
C1090 N1092 1.348 . S
C1090 C1093 1.485 . S
N1091 C1090 1.317 . S
N1091 N1095 1.370 1_545 S
N1092 C1090 1.348 . S
N1092 C1094 1.346 1_545 S
C1093 C1090 1.485 . S
C1093 H1097 0.960 . S
C1093 H1098 0.961 . S
C1093 H1099 0.960 . S
C1094 N1092 1.346 1_565 S
C1094 N1095 1.307 . S
C1094 C1096 1.486 . S
N1095 N1091 1.370 1_565 S
N1095 C1094 1.307 . S
C1096 C1094 1.486 . S
C1096 H1100 0.960 . S
C1096 H1101 0.960 . S
C1096 H1102 0.959 . S
H1097 C1093 0.960 . S
H1098 C1093 0.961 . S
H1099 C1093 0.960 . S
H1100 C1096 0.960 . S
H1101 C1096 0.960 . S
H1102 C1096 0.959 . S
C1103 N1104 1.317 . S
C1103 N1105 1.348 1_655 S
C1103 C1106 1.485 . S
N1104 C1103 1.317 . S
N1104 N1108 1.359 1_655 S
N1105 C1103 1.348 1_455 S
N1105 C1107 1.346 . S
C1106 C1103 1.485 . S
C1106 H1110 0.960 . S
C1106 H1111 0.963 1_655 S
C1106 H1112 0.960 . S
C1107 N1105 1.346 . S
C1107 N1108 1.325 . S
C1107 C1109 1.486 . S
N1108 N1104 1.359 1_455 S
N1108 C1107 1.325 . S
C1109 C1107 1.486 . S
C1109 H1113 0.960 . S
C1109 H1114 0.960 . S
C1109 H1115 0.959 . S
H1110 C1106 0.960 . S
H1111 C1106 0.963 1_455 S
H1112 C1106 0.960 . S
H1113 C1109 0.960 . S
H1114 C1109 0.960 . S
H1115 C1109 0.959 . S
C1116 N1117 1.317 . S
C1116 N1118 1.348 . S
C1116 C1119 1.485 . S
N1117 C1116 1.317 . S
N1117 N1121 1.370 . S
N1118 C1116 1.348 . S
N1118 C1120 1.346 . S
C1119 C1116 1.485 . S
C1119 H1123 0.960 . S
C1119 H1124 0.961 . S
C1119 H1125 0.960 . S
C1120 N1118 1.346 . S
C1120 N1121 1.307 . S
C1120 C1122 1.486 . S
N1121 N1117 1.370 . S
N1121 C1120 1.307 . S
C1122 C1120 1.486 . S
C1122 H1126 0.960 . S
C1122 H1127 0.960 . S
C1122 H1128 0.959 . S
H1123 C1119 0.960 . S
H1124 C1119 0.961 . S
H1125 C1119 0.960 . S
H1126 C1122 0.960 . S
H1127 C1122 0.960 . S
H1128 C1122 0.959 . S
C1129 N1130 1.317 . S
C1129 N1131 1.348 . S
C1129 C1132 1.485 . S
N1130 C1129 1.317 . S
N1130 N1134 1.370 1_556 S
N1131 C1129 1.348 . S
N1131 C1133 1.346 1_556 S
C1132 C1129 1.485 . S
C1132 H1136 0.960 . S
C1132 H1137 0.961 . S
C1132 H1138 0.960 . S
C1133 N1131 1.346 1_554 S
C1133 N1134 1.307 . S
C1133 C1135 1.486 . S
N1134 N1130 1.370 1_554 S
N1134 C1133 1.307 . S
C1135 C1133 1.486 . S
C1135 H1139 0.960 . S
C1135 H1140 0.960 . S
C1135 H1141 0.959 . S
H1136 C1132 0.960 . S
H1137 C1132 0.961 . S
H1138 C1132 0.960 . S
H1139 C1135 0.960 . S
H1140 C1135 0.960 . S
H1141 C1135 0.959 . S
C1142 N1143 1.317 . S
C1142 N1144 1.348 1_545 S
C1142 C1145 1.485 . S
N1143 C1142 1.317 . S
N1143 N1147 1.362 1_545 S
N1144 C1142 1.348 1_565 S
N1144 C1146 1.346 . S
C1145 C1142 1.485 . S
C1145 H1149 0.960 . S
C1145 H1150 0.961 . S
C1145 H1151 0.960 . S
C1146 N1144 1.346 . S
C1146 N1147 1.320 . S
C1146 C1148 1.486 . S
N1147 N1143 1.362 1_565 S
N1147 C1146 1.320 . S
C1148 C1146 1.486 . S
C1148 H1152 0.960 . S
C1148 H1153 0.960 . S
C1148 H1154 0.959 . S
H1149 C1145 0.960 . S
H1150 C1145 0.961 . S
H1151 C1145 0.960 . S
H1152 C1148 0.960 . S
H1153 C1148 0.960 . S
H1154 C1148 0.959 . S
C1155 N1156 1.317 . S
C1155 N1157 1.348 . S
C1155 C1158 1.485 . S
N1156 C1155 1.317 . S
N1156 N1160 1.370 1_554 S
N1157 C1155 1.348 . S
N1157 C1159 1.346 1_554 S
C1158 C1155 1.485 . S
C1158 H1162 0.960 . S
C1158 H1163 0.961 . S
C1158 H1164 0.960 . S
C1159 N1157 1.346 1_556 S
C1159 N1160 1.307 . S
C1159 C1161 1.486 . S
N1160 N1156 1.370 1_556 S
N1160 C1159 1.307 . S
C1161 C1159 1.486 . S
C1161 H1165 0.960 . S
C1161 H1166 0.960 . S
C1161 H1167 0.959 . S
H1162 C1158 0.960 . S
H1163 C1158 0.961 . S
H1164 C1158 0.960 . S
H1165 C1161 0.960 . S
H1166 C1161 0.960 . S
H1167 C1161 0.959 . S
C1168 N1169 1.317 . S
C1168 N1170 1.348 . S
C1168 C1171 1.485 . S
N1169 C1168 1.317 . S
N1169 N1173 1.370 . S
N1170 C1168 1.348 . S
N1170 C1172 1.346 . S
C1171 C1168 1.485 . S
C1171 H1175 0.960 . S
C1171 H1176 0.961 . S
C1171 H1177 0.960 . S
C1172 N1170 1.346 . S
C1172 N1173 1.307 . S
C1172 C1174 1.486 . S
N1173 N1169 1.370 . S
N1173 C1172 1.307 . S
C1174 C1172 1.486 . S
C1174 H1178 0.960 . S
C1174 H1179 0.960 . S
C1174 H1180 0.959 . S
H1175 C1171 0.960 . S
H1176 C1171 0.961 . S
H1177 C1171 0.960 . S
H1178 C1174 0.960 . S
H1179 C1174 0.960 . S
H1180 C1174 0.959 . S
C1181 N1182 1.317 . S
C1181 N1183 1.348 . S
C1181 C1184 1.485 . S
N1182 C1181 1.317 . S
N1182 N1186 1.370 1_455 S
N1183 C1181 1.348 . S
N1183 C1185 1.346 1_455 S
C1184 C1181 1.485 . S
C1184 H1188 0.960 . S
C1184 H1189 0.961 . S
C1184 H1190 0.960 . S
C1185 N1183 1.346 1_655 S
C1185 N1186 1.307 . S
C1185 C1187 1.486 . S
N1186 N1182 1.370 1_655 S
N1186 C1185 1.307 . S
C1187 C1185 1.486 . S
C1187 H1191 0.960 . S
C1187 H1192 0.960 . S
C1187 H1193 0.959 . S
H1188 C1184 0.960 . S
H1189 C1184 0.961 . S
H1190 C1184 0.960 . S
H1191 C1187 0.960 . S
H1192 C1187 0.960 . S
H1193 C1187 0.959 . S
C1194 N1195 1.317 . S
C1194 N1196 1.348 . S
C1194 C1197 1.485 . S
N1195 C1194 1.317 . S
N1195 N1199 1.370 1_655 S
N1196 C1194 1.348 . S
N1196 C1198 1.346 1_655 S
C1197 C1194 1.485 . S
C1197 H1201 0.960 . S
C1197 H1202 0.961 . S
C1197 H1203 0.960 . S
C1198 N1196 1.346 1_455 S
C1198 N1199 1.307 . S
C1198 C1200 1.486 . S
N1199 N1195 1.370 1_455 S
N1199 C1198 1.307 . S
C1200 C1198 1.486 . S
C1200 H1204 0.960 . S
C1200 H1205 0.960 . S
C1200 H1206 0.959 . S
H1201 C1197 0.960 . S
H1202 C1197 0.961 . S
H1203 C1197 0.960 . S
H1204 C1200 0.960 . S
H1205 C1200 0.960 . S
H1206 C1200 0.959 . S
C1207 N1208 1.317 . S
C1207 N1209 1.348 1_554 S
C1207 C1210 1.485 . S
N1208 C1207 1.317 . S
N1208 N1212 1.362 1_554 S
N1209 C1207 1.348 1_556 S
N1209 C1211 1.346 . S
C1210 C1207 1.485 . S
C1210 H1214 0.960 . S
C1210 H1215 0.961 . S
C1210 H1216 0.960 . S
C1211 N1209 1.346 . S
C1211 N1212 1.320 . S
C1211 C1213 1.486 . S
N1212 N1208 1.362 1_556 S
N1212 C1211 1.320 . S
C1213 C1211 1.486 . S
C1213 H1217 0.960 . S
C1213 H1218 0.960 . S
C1213 H1219 0.959 . S
H1214 C1210 0.960 . S
H1215 C1210 0.961 . S
H1216 C1210 0.960 . S
H1217 C1213 0.960 . S
H1218 C1213 0.960 . S
H1219 C1213 0.959 . S
C1220 N1221 1.317 . S
C1220 N1222 1.348 . S
C1220 C1223 1.485 . S
N1221 C1220 1.317 . S
N1221 N1225 1.370 . S
N1222 C1220 1.348 . S
N1222 C1224 1.346 . S
C1223 C1220 1.485 . S
C1223 H1227 0.960 . S
C1223 H1228 0.961 . S
C1223 H1229 0.960 . S
C1224 N1222 1.346 . S
C1224 N1225 1.307 . S
C1224 C1226 1.486 . S
N1225 N1221 1.370 . S
N1225 C1224 1.307 . S
C1226 C1224 1.486 . S
C1226 H1230 0.960 . S
C1226 H1231 0.960 . S
C1226 H1232 0.959 . S
H1227 C1223 0.960 . S
H1228 C1223 0.961 . S
H1229 C1223 0.960 . S
H1230 C1226 0.960 . S
H1231 C1226 0.960 . S
H1232 C1226 0.959 . S
C1233 N1234 1.317 . S
C1233 N1235 1.348 . S
C1233 C1236 1.485 . S
N1234 C1233 1.317 . S
N1234 N1238 1.370 1_545 S
N1235 C1233 1.348 . S
N1235 C1237 1.346 1_545 S
C1236 C1233 1.485 . S
C1236 H1240 0.960 . S
C1236 H1241 0.961 . S
C1236 H1242 0.960 . S
C1237 N1235 1.346 1_565 S
C1237 N1238 1.307 . S
C1237 C1239 1.486 . S
N1238 N1234 1.370 1_565 S
N1238 C1237 1.307 . S
C1239 C1237 1.486 . S
C1239 H1243 0.960 . S
C1239 H1244 0.960 . S
C1239 H1245 0.959 . S
H1240 C1236 0.960 . S
H1241 C1236 0.961 . S
H1242 C1236 0.960 . S
H1243 C1239 0.960 . S
H1244 C1239 0.960 . S
H1245 C1239 0.959 . S
C1246 N1247 1.317 . S
C1246 N1248 1.348 . S
C1246 C1249 1.485 . S
N1247 C1246 1.317 . S
N1247 N1251 1.370 1_565 S
N1248 C1246 1.348 . S
N1248 C1250 1.346 1_565 S
C1249 C1246 1.485 . S
C1249 H1253 0.960 . S
C1249 H1254 0.961 . S
C1249 H1255 0.960 . S
C1250 N1248 1.346 1_545 S
C1250 N1251 1.307 . S
C1250 C1252 1.486 . S
N1251 N1247 1.370 1_545 S
N1251 C1250 1.307 . S
C1252 C1250 1.486 . S
C1252 H1256 0.960 . S
C1252 H1257 0.960 . S
C1252 H1258 0.959 . S
H1253 C1249 0.960 . S
H1254 C1249 0.961 . S
H1255 C1249 0.960 . S
H1256 C1252 0.960 . S
H1257 C1252 0.960 . S
H1258 C1252 0.959 . S
C1259 N1260 1.317 . S
C1259 N1261 1.348 1_455 S
C1259 C1262 1.485 . S
N1260 C1259 1.317 . S
N1260 N1264 1.362 1_455 S
N1261 C1259 1.348 1_655 S
N1261 C1263 1.346 . S
C1262 C1259 1.485 . S
C1262 H1266 0.960 . S
C1262 H1267 0.961 . S
C1262 H1268 0.960 . S
C1263 N1261 1.346 . S
C1263 N1264 1.320 . S
C1263 C1265 1.486 . S
N1264 N1260 1.362 1_655 S
N1264 C1263 1.320 . S
C1265 C1263 1.486 . S
C1265 H1269 0.960 . S
C1265 H1270 0.960 . S
C1265 H1271 0.959 . S
H1266 C1262 0.960 . S
H1267 C1262 0.961 . S
H1268 C1262 0.960 . S
H1269 C1265 0.960 . S
H1270 C1265 0.960 . S
H1271 C1265 0.959 . S
H1272 C1278 0.930 . S
H1273 C1282 0.930 . S
H1274 C1287 0.929 . S
H1275 C1285 0.929 . S
H1276 C1280 0.929 . S
H1277 C1286 0.929 . S
C1278 H1272 0.930 . S
C1278 C1279 1.367 . S
C1278 C1286 1.378 . S
C1279 C1278 1.367 . S
C1279 C1287 1.433 . S
C1280 H1276 0.929 . S
C1280 C1282 1.378 . S
C1280 C1284 1.350 . S
C1281 C1284 1.463 . S
C1281 C1286 1.350 . S
C1281 N1289 1.427 . S
C1282 H1273 0.930 . S
C1282 C1280 1.378 . S
C1282 C1283 1.367 . S
C1283 C1282 1.367 . S
C1283 C1285 1.433 . S
C1284 C1280 1.350 . S
C1284 C1281 1.463 . S
C1284 N1288 1.427 . S
C1285 H1275 0.929 . S
C1285 C1283 1.433 . S
C1285 N1288 1.384 . S
C1286 H1277 0.929 . S
C1286 C1278 1.378 . S
C1286 C1281 1.350 . S
C1287 H1274 0.929 . S
C1287 C1279 1.433 . S
C1287 N1289 1.384 . S
N1288 C1284 1.427 . S
N1288 C1285 1.384 . S
N1289 C1281 1.427 . S
N1289 C1287 1.384 . S
H1290 C1296 0.930 . S
H1291 C1300 0.930 . S
H1292 C1305 0.929 . S
H1293 C1303 0.929 . S
H1294 C1298 0.929 . S
H1295 C1304 0.929 . S
C1296 H1290 0.930 . S
C1296 C1297 1.367 . S
C1296 C1304 1.378 . S
C1297 C1296 1.367 . S
C1297 C1305 1.433 . S
C1298 H1294 0.929 . S
C1298 C1300 1.378 . S
C1298 C1302 1.350 . S
C1299 C1302 1.463 . S
C1299 C1304 1.350 . S
C1299 N1307 1.427 . S
C1300 H1291 0.930 . S
C1300 C1298 1.378 . S
C1300 C1301 1.367 . S
C1301 C1300 1.367 . S
C1301 C1303 1.433 . S
C1302 C1298 1.350 . S
C1302 C1299 1.463 . S
C1302 N1306 1.427 . S
C1303 H1293 0.929 . S
C1303 C1301 1.433 . S
C1303 N1306 1.384 . S
C1304 H1295 0.929 . S
C1304 C1296 1.378 . S
C1304 C1299 1.350 . S
C1305 H1292 0.929 . S
C1305 C1297 1.433 . S
C1305 N1307 1.384 . S
N1306 C1302 1.427 . S
N1306 C1303 1.384 . S
N1307 C1299 1.427 . S
N1307 C1305 1.384 . S
H1308 C1314 0.930 . S
H1309 C1318 0.930 . S
H1310 C1323 0.929 . S
H1311 C1321 0.929 . S
H1312 C1316 0.929 . S
H1313 C1322 0.929 . S
C1314 H1308 0.930 . S
C1314 C1315 1.376 . S
C1314 C1322 1.378 . S
C1315 C1314 1.376 . S
C1315 C1323 1.423 1_545 S
C1316 H1312 0.929 . S
C1316 C1318 1.378 . S
C1316 C1320 1.350 . S
C1317 C1320 1.463 . S
C1317 C1322 1.350 1_565 S
C1317 N1325 1.427 . S
C1318 H1309 0.930 . S
C1318 C1316 1.378 . S
C1318 C1319 1.367 . S
C1319 C1318 1.367 . S
C1319 C1321 1.433 1_565 S
C1320 C1316 1.350 . S
C1320 C1317 1.463 . S
C1320 N1324 1.427 1_565 S
C1321 H1311 0.929 . S
C1321 C1319 1.433 1_545 S
C1321 N1324 1.384 . S
C1322 H1313 0.929 . S
C1322 C1314 1.378 . S
C1322 C1317 1.350 1_545 S
C1323 H1310 0.929 . S
C1323 C1315 1.423 1_565 S
C1323 N1325 1.384 . S
N1324 C1320 1.427 1_545 S
N1324 C1321 1.384 . S
N1325 C1317 1.427 . S
N1325 C1323 1.384 . S
H1326 C1332 0.930 . S
H1327 C1336 0.930 . S
H1328 C1341 0.929 1_565 S
H1329 C1339 0.929 . S
H1330 C1334 0.929 . S
H1331 C1340 0.929 . S
C1332 H1326 0.930 . S
C1332 C1333 1.367 . S
C1332 C1340 1.378 1_655 S
C1333 C1332 1.367 . S
C1333 C1341 1.433 . S
C1334 H1330 0.929 . S
C1334 C1336 1.378 . S
C1334 C1338 1.350 1_565 S
C1335 C1338 1.463 . S
C1335 C1340 1.350 . S
C1335 N1343 1.427 . S
C1336 H1327 0.930 . S
C1336 C1334 1.378 . S
C1336 C1337 1.367 1_565 S
C1337 C1336 1.367 1_545 S
C1337 C1339 1.433 . S
C1338 C1334 1.350 1_545 S
C1338 C1335 1.463 . S
C1338 N1342 1.427 . S
C1339 H1329 0.929 . S
C1339 C1337 1.433 . S
C1339 N1342 1.384 . S
C1340 H1331 0.929 . S
C1340 C1332 1.378 1_455 S
C1340 C1335 1.350 . S
C1341 H1328 0.929 1_545 S
C1341 C1333 1.433 . S
C1341 N1343 1.384 1_655 S
N1342 C1338 1.427 . S
N1342 C1339 1.384 . S
N1343 C1335 1.427 . S
N1343 C1341 1.384 1_455 S
H1344 C1350 0.930 . S
H1345 C1354 0.930 . S
H1346 C1359 0.929 . S
H1347 C1357 0.929 . S
H1348 C1352 0.929 . S
H1349 C1358 0.929 . S
C1350 H1344 0.930 . S
C1350 C1351 1.367 . S
C1350 C1358 1.378 . S
C1351 C1350 1.367 . S
C1351 C1359 1.433 . S
C1352 H1348 0.929 . S
C1352 C1354 1.378 . S
C1352 C1356 1.350 . S
C1353 C1356 1.463 . S
C1353 C1358 1.350 . S
C1353 N1361 1.427 . S
C1354 H1345 0.930 . S
C1354 C1352 1.378 . S
C1354 C1355 1.367 . S
C1355 C1354 1.367 . S
C1355 C1357 1.433 . S
C1356 C1352 1.350 . S
C1356 C1353 1.463 . S
C1356 N1360 1.427 . S
C1357 H1347 0.929 . S
C1357 C1355 1.433 . S
C1357 N1360 1.384 . S
C1358 H1349 0.929 . S
C1358 C1350 1.378 . S
C1358 C1353 1.350 . S
C1359 H1346 0.929 . S
C1359 C1351 1.433 . S
C1359 N1361 1.384 . S
N1360 C1356 1.427 . S
N1360 C1357 1.384 . S
N1361 C1353 1.427 . S
N1361 C1359 1.384 . S
H1362 C1368 0.930 . S
H1363 C1372 0.930 . S
H1364 C1377 0.929 . S
H1365 C1375 0.929 . S
H1366 C1370 0.929 . S
H1367 C1376 0.929 . S
C1368 H1362 0.930 . S
C1368 C1369 1.367 . S
C1368 C1376 1.378 1_565 S
C1369 C1368 1.367 . S
C1369 C1377 1.433 1_554 S
C1370 H1366 0.929 . S
C1370 C1372 1.378 . S
C1370 C1374 1.350 1_556 S
C1371 C1374 1.463 . S
C1371 C1376 1.350 . S
C1371 N1379 1.428 1_544 S
C1372 H1363 0.930 . S
C1372 C1370 1.378 . S
C1372 C1373 1.367 1_556 S
C1373 C1372 1.367 1_554 S
C1373 C1375 1.433 . S
C1374 C1370 1.350 1_554 S
C1374 C1371 1.463 . S
C1374 N1378 1.427 . S
C1375 H1365 0.929 . S
C1375 C1373 1.433 . S
C1375 N1378 1.384 . S
C1376 H1367 0.929 . S
C1376 C1368 1.378 1_545 S
C1376 C1371 1.350 . S
C1377 H1364 0.929 . S
C1377 C1369 1.433 1_556 S
C1377 N1379 1.382 . S
N1378 C1374 1.427 . S
N1378 C1375 1.384 . S
N1379 C1371 1.428 1_566 S
N1379 C1377 1.382 . S
H1380 C1386 0.930 . S
H1381 C1390 0.930 . S
H1382 C1395 0.929 . S
H1383 C1393 0.929 . S
H1384 C1388 0.929 . S
H1385 C1394 0.929 . S
C1386 H1380 0.930 . S
C1386 C1387 1.367 . S
C1386 C1394 1.378 . S
C1387 C1386 1.367 . S
C1387 C1395 1.433 . S
C1388 H1384 0.929 . S
C1388 C1390 1.378 . S
C1388 C1392 1.350 . S
C1389 C1392 1.463 . S
C1389 C1394 1.350 . S
C1389 N1397 1.427 . S
C1390 H1381 0.930 . S
C1390 C1388 1.378 . S
C1390 C1391 1.367 . S
C1391 C1390 1.367 . S
C1391 C1393 1.433 . S
C1392 C1388 1.350 . S
C1392 C1389 1.463 . S
C1392 N1396 1.427 . S
C1393 H1383 0.929 . S
C1393 C1391 1.433 . S
C1393 N1396 1.384 . S
C1394 H1385 0.929 . S
C1394 C1386 1.378 . S
C1394 C1389 1.350 . S
C1395 H1382 0.929 . S
C1395 C1387 1.433 . S
C1395 N1397 1.384 . S
N1396 C1392 1.427 . S
N1396 C1393 1.384 . S
N1397 C1389 1.427 . S
N1397 C1395 1.384 . S
H1398 C1404 0.930 . S
H1399 C1408 0.930 . S
H1400 C1413 0.929 . S
H1401 C1411 0.929 . S
H1402 C1406 0.929 . S
H1403 C1412 0.929 . S
C1404 H1398 0.930 . S
C1404 C1405 1.392 . S
C1404 C1412 1.378 . S
C1405 C1404 1.392 . S
C1405 C1413 1.407 1_554 S
C1406 H1402 0.929 . S
C1406 C1408 1.378 . S
C1406 C1410 1.350 . S
C1407 C1410 1.463 . S
C1407 C1412 1.350 1_556 S
C1407 N1415 1.427 . S
C1408 H1399 0.930 . S
C1408 C1406 1.378 . S
C1408 C1409 1.367 . S
C1409 C1408 1.367 . S
C1409 C1411 1.433 1_556 S
C1410 C1406 1.350 . S
C1410 C1407 1.463 . S
C1410 N1414 1.427 1_556 S
C1411 H1401 0.929 . S
C1411 C1409 1.433 1_554 S
C1411 N1414 1.384 . S
C1412 H1403 0.929 . S
C1412 C1404 1.378 . S
C1412 C1407 1.350 1_554 S
C1413 H1400 0.929 . S
C1413 C1405 1.407 1_556 S
C1413 N1415 1.384 . S
N1414 C1410 1.427 1_554 S
N1414 C1411 1.384 . S
N1415 C1407 1.427 . S
N1415 C1413 1.384 . S
H1416 C1422 0.930 . S
H1417 C1426 0.930 . S
H1418 C1431 0.929 . S
H1419 C1429 0.929 . S
H1420 C1424 0.929 . S
H1421 C1430 0.929 . S
C1422 H1416 0.930 . S
C1422 C1423 1.367 . S
C1422 C1430 1.378 . S
C1423 C1422 1.367 . S
C1423 C1431 1.433 . S
C1424 H1420 0.929 . S
C1424 C1426 1.378 . S
C1424 C1428 1.350 . S
C1425 C1428 1.463 . S
C1425 C1430 1.350 . S
C1425 N1433 1.427 . S
C1426 H1417 0.930 . S
C1426 C1424 1.378 . S
C1426 C1427 1.367 . S
C1427 C1426 1.367 . S
C1427 C1429 1.433 . S
C1428 C1424 1.350 . S
C1428 C1425 1.463 . S
C1428 N1432 1.427 . S
C1429 H1419 0.929 . S
C1429 C1427 1.433 . S
C1429 N1432 1.384 . S
C1430 H1421 0.929 . S
C1430 C1422 1.378 . S
C1430 C1425 1.350 . S
C1431 H1418 0.929 . S
C1431 C1423 1.433 . S
C1431 N1433 1.384 . S
N1432 C1428 1.427 . S
N1432 C1429 1.384 . S
N1433 C1425 1.427 . S
N1433 C1431 1.384 . S
H1434 C1440 0.930 . S
H1435 C1444 0.930 . S
H1436 C1449 0.929 . S
H1437 C1447 0.929 1_655 S
H1438 C1442 0.929 . S
H1439 C1448 0.929 . S
C1440 H1434 0.930 . S
C1440 C1441 1.367 . S
C1440 C1448 1.378 1_556 S
C1441 C1440 1.367 . S
C1441 C1449 1.433 . S
C1442 H1438 0.929 . S
C1442 C1444 1.378 . S
C1442 C1446 1.350 . S
C1443 C1446 1.463 . S
C1443 C1448 1.350 . S
C1443 N1451 1.427 . S
C1444 H1435 0.930 . S
C1444 C1442 1.378 . S
C1444 C1445 1.367 . S
C1445 C1444 1.367 . S
C1445 C1447 1.433 . S
C1446 C1442 1.350 . S
C1446 C1443 1.463 . S
C1446 N1450 1.427 . S
C1447 H1437 0.929 1_455 S
C1447 C1445 1.433 . S
C1447 N1450 1.384 . S
C1448 H1439 0.929 . S
C1448 C1440 1.378 1_554 S
C1448 C1443 1.350 . S
C1449 H1436 0.929 . S
C1449 C1441 1.433 . S
C1449 N1451 1.384 1_556 S
N1450 C1446 1.427 . S
N1450 C1447 1.384 . S
N1451 C1443 1.427 . S
N1451 C1449 1.384 1_554 S
H1452 C1458 0.930 . S
H1453 C1462 0.930 . S
H1454 C1467 0.929 . S
H1455 C1465 0.929 . S
H1456 C1460 0.929 . S
H1457 C1466 0.929 . S
C1458 H1452 0.930 . S
C1458 C1459 1.367 . S
C1458 C1466 1.378 . S
C1459 C1458 1.367 . S
C1459 C1467 1.433 . S
C1460 H1456 0.929 . S
C1460 C1462 1.378 . S
C1460 C1464 1.350 . S
C1461 C1464 1.463 . S
C1461 C1466 1.350 . S
C1461 N1469 1.427 . S
C1462 H1453 0.930 . S
C1462 C1460 1.378 . S
C1462 C1463 1.367 . S
C1463 C1462 1.367 . S
C1463 C1465 1.433 . S
C1464 C1460 1.350 . S
C1464 C1461 1.463 . S
C1464 N1468 1.427 . S
C1465 H1455 0.929 . S
C1465 C1463 1.433 . S
C1465 N1468 1.384 . S
C1466 H1457 0.929 . S
C1466 C1458 1.378 . S
C1466 C1461 1.350 . S
C1467 H1454 0.929 . S
C1467 C1459 1.433 . S
C1467 N1469 1.384 . S
N1468 C1464 1.427 . S
N1468 C1465 1.384 . S
N1469 C1461 1.427 . S
N1469 C1467 1.384 . S
H1470 C1476 0.930 . S
H1471 C1480 0.930 . S
H1472 C1485 0.929 . S
H1473 C1483 0.948 . S
H1474 C1478 0.929 . S
H1475 C1484 0.929 . S
C1476 H1470 0.930 . S
C1476 C1477 1.373 . S
C1476 C1484 1.378 . S
C1477 C1476 1.373 . S
C1477 C1485 1.427 1_455 S
C1478 H1474 0.929 . S
C1478 C1480 1.378 . S
C1478 C1482 1.350 . S
C1479 C1482 1.463 . S
C1479 C1484 1.350 1_655 S
C1479 N1487 1.427 . S
C1480 H1471 0.930 . S
C1480 C1478 1.378 . S
C1480 C1481 1.367 . S
C1481 C1480 1.367 . S
C1481 C1483 1.415 1_655 S
C1482 C1478 1.350 . S
C1482 C1479 1.463 . S
C1482 N1486 1.427 1_655 S
C1483 H1473 0.948 . S
C1483 C1481 1.415 1_455 S
C1483 N1486 1.386 . S
C1484 H1475 0.929 . S
C1484 C1476 1.378 . S
C1484 C1479 1.350 1_455 S
C1485 H1472 0.929 . S
C1485 C1477 1.427 1_655 S
C1485 N1487 1.384 . S
N1486 C1482 1.427 1_455 S
N1486 C1483 1.386 . S
N1487 C1479 1.427 . S
N1487 C1485 1.384 . S
H1488 C1494 0.930 . S
H1489 C1498 0.930 . S
H1490 C1503 0.929 . S
H1491 C1501 0.929 . S
H1492 C1496 0.929 . S
H1493 C1502 0.929 . S
C1494 H1488 0.930 . S
C1494 C1495 1.367 . S
C1494 C1502 1.378 . S
C1495 C1494 1.367 . S
C1495 C1503 1.433 . S
C1496 H1492 0.929 . S
C1496 C1498 1.378 . S
C1496 C1500 1.350 . S
C1497 C1500 1.463 . S
C1497 C1502 1.350 . S
C1497 N1505 1.427 . S
C1498 H1489 0.930 . S
C1498 C1496 1.378 . S
C1498 C1499 1.367 . S
C1499 C1498 1.367 . S
C1499 C1501 1.433 . S
C1500 C1496 1.350 . S
C1500 C1497 1.463 . S
C1500 N1504 1.427 . S
C1501 H1491 0.929 . S
C1501 C1499 1.433 . S
C1501 N1504 1.384 . S
C1502 H1493 0.929 . S
C1502 C1494 1.378 . S
C1502 C1497 1.350 . S
C1503 H1490 0.929 . S
C1503 C1495 1.433 . S
C1503 N1505 1.384 . S
N1504 C1500 1.427 . S
N1504 C1501 1.384 . S
N1505 C1497 1.427 . S
N1505 C1503 1.384 . S
H1506 C1512 0.930 . S
H1507 C1516 0.930 . S
H1508 C1521 0.929 . S
H1509 C1519 0.929 . S
H1510 C1514 0.929 . S
H1511 C1520 0.929 . S
C1512 H1506 0.930 . S
C1512 C1513 1.367 . S
C1512 C1520 1.378 . S
C1513 C1512 1.367 . S
C1513 C1521 1.433 . S
C1514 H1510 0.929 . S
C1514 C1516 1.378 . S
C1514 C1518 1.350 . S
C1515 C1518 1.463 . S
C1515 C1520 1.350 . S
C1515 N1523 1.427 . S
C1516 H1507 0.930 . S
C1516 C1514 1.378 . S
C1516 C1517 1.367 . S
C1517 C1516 1.367 . S
C1517 C1519 1.433 . S
C1518 C1514 1.350 . S
C1518 C1515 1.463 . S
C1518 N1522 1.427 . S
C1519 H1509 0.929 . S
C1519 C1517 1.433 . S
C1519 N1522 1.384 . S
C1520 H1511 0.929 . S
C1520 C1512 1.378 . S
C1520 C1515 1.350 . S
C1521 H1508 0.929 . S
C1521 C1513 1.433 . S
C1521 N1523 1.384 . S
N1522 C1518 1.427 . S
N1522 C1519 1.384 . S
N1523 C1515 1.427 . S
N1523 C1521 1.384 . S
H1524 C1530 0.930 . S
H1525 C1534 0.930 . S
H1526 C1539 0.929 . S
H1527 C1537 0.929 . S
H1528 C1532 0.929 . S
H1529 C1538 0.929 . S
C1530 H1524 0.930 . S
C1530 C1531 1.391 . S
C1530 C1538 1.378 . S
C1531 C1530 1.391 . S
C1531 C1539 1.408 1_565 S
C1532 H1528 0.929 . S
C1532 C1534 1.378 . S
C1532 C1536 1.350 . S
C1533 C1536 1.463 . S
C1533 C1538 1.350 1_545 S
C1533 N1541 1.427 . S
C1534 H1525 0.930 . S
C1534 C1532 1.378 . S
C1534 C1535 1.367 . S
C1535 C1534 1.367 . S
C1535 C1537 1.433 1_545 S
C1536 C1532 1.350 . S
C1536 C1533 1.463 . S
C1536 N1540 1.427 1_545 S
C1537 H1527 0.929 . S
C1537 C1535 1.433 1_565 S
C1537 N1540 1.384 . S
C1538 H1529 0.929 . S
C1538 C1530 1.378 . S
C1538 C1533 1.350 1_565 S
C1539 H1526 0.929 . S
C1539 C1531 1.408 1_545 S
C1539 N1541 1.384 . S
N1540 C1536 1.427 1_565 S
N1540 C1537 1.384 . S
N1541 C1533 1.427 . S
N1541 C1539 1.384 . S
H1542 C1548 0.930 1_545 S
H1543 C1552 0.930 . S
H1544 C1557 0.929 . S
H1545 C1555 0.929 . S
H1546 C1550 0.929 . S
H1547 C1556 0.941 1_655 S
C1548 H1542 0.930 1_565 S
C1548 C1549 1.367 . S
C1548 C1556 1.375 1_565 S
C1549 C1548 1.367 . S
C1549 C1557 1.433 . S
C1550 H1546 0.929 . S
C1550 C1552 1.378 . S
C1550 C1554 1.350 . S
C1551 C1554 1.463 . S
C1551 C1556 1.340 1_665 S
C1551 N1559 1.427 . S
C1552 H1543 0.930 . S
C1552 C1550 1.378 . S
C1552 C1553 1.367 . S
C1553 C1552 1.367 . S
C1553 C1555 1.433 1_565 S
C1554 C1550 1.350 . S
C1554 C1551 1.463 . S
C1554 N1558 1.427 1_565 S
C1555 H1545 0.929 . S
C1555 C1553 1.433 1_545 S
C1555 N1558 1.384 . S
C1556 H1547 0.941 1_455 S
C1556 C1548 1.375 1_545 S
C1556 C1551 1.340 1_445 S
C1557 H1544 0.929 . S
C1557 C1549 1.433 . S
C1557 N1559 1.384 1_455 S
N1558 C1554 1.427 1_545 S
N1558 C1555 1.384 . S
N1559 C1551 1.427 . S
N1559 C1557 1.384 1_655 S
H1560 C1566 0.930 . S
H1561 C1570 0.930 . S
H1562 C1575 0.929 . S
H1563 C1573 0.929 . S
H1564 C1568 0.929 . S
H1565 C1574 0.929 . S
C1566 H1560 0.930 . S
C1566 C1567 1.367 . S
C1566 C1574 1.378 . S
C1567 C1566 1.367 . S
C1567 C1575 1.433 . S
C1568 H1564 0.929 . S
C1568 C1570 1.378 . S
C1568 C1572 1.350 . S
C1569 C1572 1.463 . S
C1569 C1574 1.350 . S
C1569 N1577 1.427 . S
C1570 H1561 0.930 . S
C1570 C1568 1.378 . S
C1570 C1571 1.367 . S
C1571 C1570 1.367 . S
C1571 C1573 1.433 . S
C1572 C1568 1.350 . S
C1572 C1569 1.463 . S
C1572 N1576 1.427 . S
C1573 H1563 0.929 . S
C1573 C1571 1.433 . S
C1573 N1576 1.384 . S
C1574 H1565 0.929 . S
C1574 C1566 1.378 . S
C1574 C1569 1.350 . S
C1575 H1562 0.929 . S
C1575 C1567 1.433 . S
C1575 N1577 1.384 . S
N1576 C1572 1.427 . S
N1576 C1573 1.384 . S
N1577 C1569 1.427 . S
N1577 C1575 1.384 . S
H1578 C1584 0.930 . S
H1579 C1588 0.930 . S
H1580 C1593 0.929 . S
H1581 C1591 0.935 . S
H1582 C1586 0.929 . S
H1583 C1592 0.929 . S
C1584 H1578 0.930 . S
C1584 C1585 1.367 . S
C1584 C1592 1.378 1_545 S
C1585 C1584 1.367 . S
C1585 C1593 1.433 . S
C1586 H1582 0.929 . S
C1586 C1588 1.378 . S
C1586 C1590 1.350 . S
C1587 C1590 1.463 . S
C1587 C1592 1.350 . S
C1587 N1595 1.427 . S
C1588 H1579 0.930 . S
C1588 C1586 1.378 . S
C1588 C1589 1.367 . S
C1589 C1588 1.367 . S
C1589 C1591 1.433 . S
C1590 C1586 1.350 . S
C1590 C1587 1.463 . S
C1590 N1594 1.427 . S
C1591 H1581 0.935 . S
C1591 C1589 1.433 . S
C1591 N1594 1.384 . S
C1592 H1583 0.929 . S
C1592 C1584 1.378 1_565 S
C1592 C1587 1.350 . S
C1593 H1580 0.929 . S
C1593 C1585 1.433 . S
C1593 N1595 1.384 1_545 S
N1594 C1590 1.427 . S
N1594 C1591 1.384 . S
N1595 C1587 1.427 . S
N1595 C1593 1.384 1_565 S
H1596 C1602 0.930 . S
H1597 C1606 0.930 . S
H1598 C1611 0.929 . S
H1599 C1609 0.929 . S
H1600 C1604 0.929 . S
H1601 C1610 0.929 . S
C1602 H1596 0.930 . S
C1602 C1603 1.367 . S
C1602 C1610 1.378 . S
C1603 C1602 1.367 . S
C1603 C1611 1.433 . S
C1604 H1600 0.929 . S
C1604 C1606 1.378 . S
C1604 C1608 1.350 . S
C1605 C1608 1.463 . S
C1605 C1610 1.350 . S
C1605 N1613 1.427 . S
C1606 H1597 0.930 . S
C1606 C1604 1.378 . S
C1606 C1607 1.367 . S
C1607 C1606 1.367 . S
C1607 C1609 1.433 . S
C1608 C1604 1.350 . S
C1608 C1605 1.463 . S
C1608 N1612 1.427 . S
C1609 H1599 0.929 . S
C1609 C1607 1.433 . S
C1609 N1612 1.384 . S
C1610 H1601 0.929 . S
C1610 C1602 1.378 . S
C1610 C1605 1.350 . S
C1611 H1598 0.929 . S
C1611 C1603 1.433 . S
C1611 N1613 1.384 . S
N1612 C1608 1.427 . S
N1612 C1609 1.384 . S
N1613 C1605 1.427 . S
N1613 C1611 1.384 . S
H1614 C1620 0.930 . S
H1615 C1624 0.930 . S
H1616 C1629 0.929 . S
H1617 C1627 0.929 . S
H1618 C1622 0.929 . S
H1619 C1628 0.929 . S
C1620 H1614 0.930 . S
C1620 C1621 1.395 . S
C1620 C1628 1.378 . S
C1621 C1620 1.395 . S
C1621 C1629 1.404 1_556 S
C1622 H1618 0.929 . S
C1622 C1624 1.378 . S
C1622 C1626 1.350 . S
C1623 C1626 1.463 . S
C1623 C1628 1.350 1_554 S
C1623 N1631 1.427 . S
C1624 H1615 0.930 . S
C1624 C1622 1.378 . S
C1624 C1625 1.367 . S
C1625 C1624 1.367 . S
C1625 C1627 1.433 1_554 S
C1626 C1622 1.350 . S
C1626 C1623 1.463 . S
C1626 N1630 1.427 1_554 S
C1627 H1617 0.929 . S
C1627 C1625 1.433 1_556 S
C1627 N1630 1.384 . S
C1628 H1619 0.929 . S
C1628 C1620 1.378 . S
C1628 C1623 1.350 1_556 S
C1629 H1616 0.929 . S
C1629 C1621 1.404 1_554 S
C1629 N1631 1.384 . S
N1630 C1626 1.427 1_556 S
N1630 C1627 1.384 . S
N1631 C1623 1.427 . S
N1631 C1629 1.384 . S
H1632 C1638 0.930 . S
H1633 C1642 0.930 . S
H1634 C1647 0.929 . S
H1635 C1645 0.929 . S
H1636 C1640 0.929 . S
H1637 C1646 0.929 . S
C1638 H1632 0.930 . S
C1638 C1639 1.367 . S
C1638 C1646 1.378 . S
C1639 C1638 1.367 . S
C1639 C1647 1.433 . S
C1640 H1636 0.929 . S
C1640 C1642 1.378 . S
C1640 C1644 1.350 . S
C1641 C1644 1.463 . S
C1641 C1646 1.350 . S
C1641 N1649 1.427 . S
C1642 H1633 0.930 . S
C1642 C1640 1.378 . S
C1642 C1643 1.367 . S
C1643 C1642 1.367 . S
C1643 C1645 1.433 . S
C1644 C1640 1.350 . S
C1644 C1641 1.463 . S
C1644 N1648 1.427 . S
C1645 H1635 0.929 . S
C1645 C1643 1.433 . S
C1645 N1648 1.384 . S
C1646 H1637 0.929 . S
C1646 C1638 1.378 . S
C1646 C1641 1.350 . S
C1647 H1634 0.929 . S
C1647 C1639 1.433 . S
C1647 N1649 1.384 . S
N1648 C1644 1.427 . S
N1648 C1645 1.384 . S
N1649 C1641 1.427 . S
N1649 C1647 1.384 . S
H1650 C1656 0.931 1_455 S
H1651 C1660 0.930 . S
H1652 C1665 0.929 . S
H1653 C1663 0.929 . S
H1654 C1658 0.929 . S
H1655 C1664 0.911 1_556 S
C1656 H1650 0.931 1_655 S
C1656 C1657 1.366 . S
C1656 C1664 1.425 1_655 S
C1657 C1656 1.366 . S
C1657 C1665 1.433 . S
C1658 H1654 0.929 . S
C1658 C1660 1.378 . S
C1658 C1662 1.350 . S
C1659 C1662 1.463 . S
C1659 C1664 1.322 1_656 S
C1659 N1667 1.427 . S
C1660 H1651 0.930 . S
C1660 C1658 1.378 . S
C1660 C1661 1.367 . S
C1661 C1660 1.367 . S
C1661 C1663 1.433 1_655 S
C1662 C1658 1.350 . S
C1662 C1659 1.463 . S
C1662 N1666 1.427 1_655 S
C1663 H1653 0.929 . S
C1663 C1661 1.433 1_455 S
C1663 N1666 1.384 . S
C1664 H1655 0.911 1_554 S
C1664 C1656 1.425 1_455 S
C1664 C1659 1.322 1_454 S
C1665 H1652 0.929 . S
C1665 C1657 1.433 . S
C1665 N1667 1.384 1_554 S
N1666 C1662 1.427 1_455 S
N1666 C1663 1.384 . S
N1667 C1659 1.427 . S
N1667 C1665 1.384 1_556 S
H1668 C1674 0.930 . S
H1669 C1678 0.930 . S
H1670 C1683 0.929 . S
H1671 C1681 0.929 . S
H1672 C1676 0.929 . S
H1673 C1682 0.929 . S
C1674 H1668 0.930 . S
C1674 C1675 1.367 . S
C1674 C1682 1.378 . S
C1675 C1674 1.367 . S
C1675 C1683 1.433 . S
C1676 H1672 0.929 . S
C1676 C1678 1.378 . S
C1676 C1680 1.350 . S
C1677 C1680 1.463 . S
C1677 C1682 1.350 . S
C1677 N1685 1.427 . S
C1678 H1669 0.930 . S
C1678 C1676 1.378 . S
C1678 C1679 1.367 . S
C1679 C1678 1.367 . S
C1679 C1681 1.433 . S
C1680 C1676 1.350 . S
C1680 C1677 1.463 . S
C1680 N1684 1.427 . S
C1681 H1671 0.929 . S
C1681 C1679 1.433 . S
C1681 N1684 1.384 . S
C1682 H1673 0.929 . S
C1682 C1674 1.378 . S
C1682 C1677 1.350 . S
C1683 H1670 0.929 . S
C1683 C1675 1.433 . S
C1683 N1685 1.384 . S
N1684 C1680 1.427 . S
N1684 C1681 1.384 . S
N1685 C1677 1.427 . S
N1685 C1683 1.384 . S
H1686 C1692 0.930 . S
H1687 C1696 0.930 1_655 S
H1688 C1701 0.929 . S
H1689 C1699 0.929 . S
H1690 C1694 0.939 . S
H1691 C1700 0.929 . S
C1692 H1686 0.930 . S
C1692 C1693 1.365 . S
C1692 C1700 1.378 . S
C1693 C1692 1.365 . S
C1693 C1701 1.435 1_455 S
C1694 H1690 0.939 . S
C1694 C1696 1.377 1_655 S
C1694 C1698 1.342 1_655 S
C1695 C1698 1.463 . S
C1695 C1700 1.350 . S
C1695 N1703 1.427 1_455 S
C1696 H1687 0.930 1_455 S
C1696 C1694 1.377 1_455 S
C1696 C1697 1.367 . S
C1697 C1696 1.367 . S
C1697 C1699 1.433 . S
C1698 C1694 1.342 1_455 S
C1698 C1695 1.463 . S
C1698 N1702 1.427 . S
C1699 H1689 0.929 . S
C1699 C1697 1.433 . S
C1699 N1702 1.384 . S
C1700 H1691 0.929 . S
C1700 C1692 1.378 . S
C1700 C1695 1.350 . S
C1701 H1688 0.929 . S
C1701 C1693 1.435 1_655 S
C1701 N1703 1.384 . S
N1702 C1698 1.427 . S
N1702 C1699 1.384 . S
N1703 C1695 1.427 1_655 S
N1703 C1701 1.384 . S
H1704 C1710 0.930 . S
H1705 C1714 0.930 . S
H1706 C1719 0.929 . S
H1707 C1717 0.929 . S
H1708 C1712 0.929 . S
H1709 C1718 0.929 . S
C1710 H1704 0.930 . S
C1710 C1711 1.367 . S
C1710 C1718 1.378 . S
C1711 C1710 1.367 . S
C1711 C1719 1.433 . S
C1712 H1708 0.929 . S
C1712 C1714 1.378 . S
C1712 C1716 1.350 . S
C1713 C1716 1.463 . S
C1713 C1718 1.350 . S
C1713 N1721 1.427 . S
C1714 H1705 0.930 . S
C1714 C1712 1.378 . S
C1714 C1715 1.367 . S
C1715 C1714 1.367 . S
C1715 C1717 1.433 . S
C1716 C1712 1.350 . S
C1716 C1713 1.463 . S
C1716 N1720 1.427 . S
C1717 H1707 0.929 . S
C1717 C1715 1.433 . S
C1717 N1720 1.384 . S
C1718 H1709 0.929 . S
C1718 C1710 1.378 . S
C1718 C1713 1.350 . S
C1719 H1706 0.929 . S
C1719 C1711 1.433 . S
C1719 N1721 1.384 . S
N1720 C1716 1.427 . S
N1720 C1717 1.384 . S
N1721 C1713 1.427 . S
N1721 C1719 1.384 . S
H1722 C1728 0.930 . S
H1723 C1732 0.930 . S
H1724 C1737 0.929 . S
H1725 C1735 0.929 1_554 S
H1726 C1730 0.929 . S
H1727 C1736 0.929 . S
C1728 H1722 0.930 . S
C1728 C1729 1.367 . S
C1728 C1736 1.378 . S
C1729 C1728 1.367 . S
C1729 C1737 1.433 . S
C1730 H1726 0.929 . S
C1730 C1732 1.378 . S
C1730 C1734 1.350 . S
C1731 C1734 1.463 . S
C1731 C1736 1.350 . S
C1731 N1739 1.427 . S
C1732 H1723 0.930 . S
C1732 C1730 1.378 . S
C1732 C1733 1.367 . S
C1733 C1732 1.367 . S
C1733 C1735 1.433 . S
C1734 C1730 1.350 . S
C1734 C1731 1.463 . S
C1734 N1738 1.427 . S
C1735 H1725 0.929 1_556 S
C1735 C1733 1.433 . S
C1735 N1738 1.384 . S
C1736 H1727 0.929 . S
C1736 C1728 1.378 . S
C1736 C1731 1.350 . S
C1737 H1724 0.929 . S
C1737 C1729 1.433 . S
C1737 N1739 1.384 . S
N1738 C1734 1.427 . S
N1738 C1735 1.384 . S
N1739 C1731 1.427 . S
N1739 C1737 1.384 . S
H1740 C1746 0.930 . S
H1741 C1750 0.930 . S
H1742 C1755 0.929 . S
H1743 C1753 0.929 . S
H1744 C1748 0.929 . S
H1745 C1754 0.929 . S
C1746 H1740 0.930 . S
C1746 C1747 1.384 . S
C1746 C1754 1.378 . S
C1747 C1746 1.384 . S
C1747 C1755 1.415 1_565 S
C1748 H1744 0.929 . S
C1748 C1750 1.378 . S
C1748 C1752 1.312 1_545 S
C1749 C1752 1.467 . S
C1749 C1754 1.350 . S
C1749 N1757 1.427 1_565 S
C1750 H1741 0.930 . S
C1750 C1748 1.378 . S
C1750 C1751 1.367 1_545 S
C1751 C1750 1.367 1_565 S
C1751 C1753 1.433 . S
C1752 C1748 1.312 1_565 S
C1752 C1749 1.467 . S
C1752 N1756 1.465 . S
C1753 H1743 0.929 . S
C1753 C1751 1.433 . S
C1753 N1756 1.384 . S
C1754 H1745 0.929 . S
C1754 C1746 1.378 . S
C1754 C1749 1.350 . S
C1755 H1742 0.929 . S
C1755 C1747 1.415 1_545 S
C1755 N1757 1.384 . S
N1756 C1752 1.465 . S
N1756 C1753 1.384 . S
N1757 C1749 1.427 1_545 S
N1757 C1755 1.384 . S
H1758 C1764 0.930 . S
H1759 C1768 0.930 . S
H1760 C1773 0.929 . S
H1761 C1771 0.929 . S
H1762 C1766 0.929 . S
H1763 C1772 0.929 . S
C1764 H1758 0.930 . S
C1764 C1765 1.367 . S
C1764 C1772 1.378 . S
C1765 C1764 1.367 . S
C1765 C1773 1.433 . S
C1766 H1762 0.929 . S
C1766 C1768 1.378 . S
C1766 C1770 1.350 . S
C1767 C1770 1.463 . S
C1767 C1772 1.350 . S
C1767 N1775 1.427 . S
C1768 H1759 0.930 . S
C1768 C1766 1.378 . S
C1768 C1769 1.367 . S
C1769 C1768 1.367 . S
C1769 C1771 1.433 . S
C1770 C1766 1.350 . S
C1770 C1767 1.463 . S
C1770 N1774 1.427 . S
C1771 H1761 0.929 . S
C1771 C1769 1.433 . S
C1771 N1774 1.384 . S
C1772 H1763 0.929 . S
C1772 C1764 1.378 . S
C1772 C1767 1.350 . S
C1773 H1760 0.929 . S
C1773 C1765 1.433 . S
C1773 N1775 1.384 . S
N1774 C1770 1.427 . S
N1774 C1771 1.384 . S
N1775 C1767 1.427 . S
N1775 C1773 1.384 . S
H1776 C1782 0.930 . S
H1777 C1786 0.930 . S
H1778 C1791 0.929 . S
H1779 C1789 0.929 . S
H1780 C1784 0.929 . S
H1781 C1790 0.929 . S
C1782 H1776 0.930 . S
C1782 C1783 1.367 . S
C1782 C1790 1.378 . S
C1783 C1782 1.367 . S
C1783 C1791 1.433 . S
C1784 H1780 0.929 . S
C1784 C1786 1.378 . S
C1784 C1788 1.350 . S
C1785 C1788 1.463 . S
C1785 C1790 1.350 . S
C1785 N1793 1.427 . S
C1786 H1777 0.930 . S
C1786 C1784 1.378 . S
C1786 C1787 1.367 . S
C1787 C1786 1.367 . S
C1787 C1789 1.433 . S
C1788 C1784 1.350 . S
C1788 C1785 1.463 . S
C1788 N1792 1.427 . S
C1789 H1779 0.929 . S
C1789 C1787 1.433 . S
C1789 N1792 1.384 . S
C1790 H1781 0.929 . S
C1790 C1782 1.378 . S
C1790 C1785 1.350 . S
C1791 H1778 0.929 . S
C1791 C1783 1.433 . S
C1791 N1793 1.384 . S
N1792 C1788 1.427 . S
N1792 C1789 1.384 . S
N1793 C1785 1.427 . S
N1793 C1791 1.384 . S
H1794 C1800 0.930 . S
H1795 C1804 0.930 . S
H1796 C1809 0.929 . S
H1797 C1807 0.929 . S
H1798 C1802 0.929 . S
H1799 C1808 0.929 . S
C1800 H1794 0.930 . S
C1800 C1801 1.367 . S
C1800 C1808 1.378 . S
C1801 C1800 1.367 . S
C1801 C1809 1.433 . S
C1802 H1798 0.929 . S
C1802 C1804 1.378 . S
C1802 C1806 1.350 . S
C1803 C1806 1.463 . S
C1803 C1808 1.350 . S
C1803 N1811 1.427 . S
C1804 H1795 0.930 . S
C1804 C1802 1.378 . S
C1804 C1805 1.367 . S
C1805 C1804 1.367 . S
C1805 C1807 1.433 . S
C1806 C1802 1.350 . S
C1806 C1803 1.463 . S
C1806 N1810 1.427 . S
C1807 H1797 0.929 . S
C1807 C1805 1.433 . S
C1807 N1810 1.384 . S
C1808 H1799 0.929 . S
C1808 C1800 1.378 . S
C1808 C1803 1.350 . S
C1809 H1796 0.929 . S
C1809 C1801 1.433 . S
C1809 N1811 1.384 . S
N1810 C1806 1.427 . S
N1810 C1807 1.384 . S
N1811 C1803 1.427 . S
N1811 C1809 1.384 . S
H1812 C1818 0.930 . S
H1813 C1822 0.930 . S
H1814 C1827 0.929 . S
H1815 C1825 0.929 1_455 S
H1816 C1820 0.929 . S
H1817 C1826 0.929 . S
C1818 H1812 0.930 . S
C1818 C1819 1.367 . S
C1818 C1826 1.378 . S
C1819 C1818 1.367 . S
C1819 C1827 1.433 . S
C1820 H1816 0.929 . S
C1820 C1822 1.378 . S
C1820 C1824 1.350 . S
C1821 C1824 1.463 . S
C1821 C1826 1.350 . S
C1821 N1829 1.427 . S
C1822 H1813 0.930 . S
C1822 C1820 1.378 . S
C1822 C1823 1.367 . S
C1823 C1822 1.367 . S
C1823 C1825 1.433 . S
C1824 C1820 1.350 . S
C1824 C1821 1.463 . S
C1824 N1828 1.427 . S
C1825 H1815 0.929 1_655 S
C1825 C1823 1.433 . S
C1825 N1828 1.384 . S
C1826 H1817 0.929 . S
C1826 C1818 1.378 . S
C1826 C1821 1.350 . S
C1827 H1814 0.929 . S
C1827 C1819 1.433 . S
C1827 N1829 1.384 . S
N1828 C1824 1.427 . S
N1828 C1825 1.384 . S
N1829 C1821 1.427 . S
N1829 C1827 1.384 . S
H1830 C1836 0.930 . S
H1831 C1840 0.930 . S
H1832 C1845 0.929 . S
H1833 C1843 0.929 . S
H1834 C1838 0.929 . S
H1835 C1844 0.929 . S
C1836 H1830 0.930 . S
C1836 C1837 1.378 . S
C1836 C1844 1.378 . S
C1837 C1836 1.378 . S
C1837 C1845 1.422 1_554 S
C1838 H1834 0.929 . S
C1838 C1840 1.378 . S
C1838 C1842 1.350 . S
C1839 C1842 1.463 . S
C1839 C1844 1.339 1_556 S
C1839 N1847 1.439 . S
C1840 H1831 0.930 . S
C1840 C1838 1.378 . S
C1840 C1841 1.367 . S
C1841 C1840 1.367 . S
C1841 C1843 1.433 1_556 S
C1842 C1838 1.350 . S
C1842 C1839 1.463 . S
C1842 N1846 1.427 1_556 S
C1843 H1833 0.929 . S
C1843 C1841 1.433 1_554 S
C1843 N1846 1.384 . S
C1844 H1835 0.929 . S
C1844 C1836 1.378 . S
C1844 C1839 1.339 1_554 S
C1845 H1832 0.929 . S
C1845 C1837 1.422 1_556 S
C1845 N1847 1.384 . S
N1846 C1842 1.427 1_554 S
N1846 C1843 1.384 . S
N1847 C1839 1.439 . S
N1847 C1845 1.384 . S
H1848 C1854 0.930 . S
H1849 C1858 0.930 . S
H1850 C1863 0.929 . S
H1851 C1861 0.929 . S
H1852 C1856 0.929 . S
H1853 C1862 0.929 . S
C1854 H1848 0.930 . S
C1854 C1855 1.367 . S
C1854 C1862 1.378 . S
C1855 C1854 1.367 . S
C1855 C1863 1.433 . S
C1856 H1852 0.929 . S
C1856 C1858 1.378 . S
C1856 C1860 1.350 . S
C1857 C1860 1.463 . S
C1857 C1862 1.350 . S
C1857 N1865 1.427 . S
C1858 H1849 0.930 . S
C1858 C1856 1.378 . S
C1858 C1859 1.367 . S
C1859 C1858 1.367 . S
C1859 C1861 1.433 . S
C1860 C1856 1.350 . S
C1860 C1857 1.463 . S
C1860 N1864 1.427 . S
C1861 H1851 0.929 . S
C1861 C1859 1.433 . S
C1861 N1864 1.384 . S
C1862 H1853 0.929 . S
C1862 C1854 1.378 . S
C1862 C1857 1.350 . S
C1863 H1850 0.929 . S
C1863 C1855 1.433 . S
C1863 N1865 1.384 . S
N1864 C1860 1.427 . S
N1864 C1861 1.384 . S
N1865 C1857 1.427 . S
N1865 C1863 1.384 . S
H1866 C1872 0.930 . S
H1867 C1876 0.930 . S
H1868 C1881 0.929 . S
H1869 C1879 0.929 . S
H1870 C1874 0.929 . S
H1871 C1880 0.929 . S
C1872 H1866 0.930 . S
C1872 C1873 1.367 . S
C1872 C1880 1.378 . S
C1873 C1872 1.367 . S
C1873 C1881 1.433 . S
C1874 H1870 0.929 . S
C1874 C1876 1.378 . S
C1874 C1878 1.350 . S
C1875 C1878 1.463 . S
C1875 C1880 1.350 . S
C1875 N1883 1.427 . S
C1876 H1867 0.930 . S
C1876 C1874 1.378 . S
C1876 C1877 1.367 . S
C1877 C1876 1.367 . S
C1877 C1879 1.433 . S
C1878 C1874 1.350 . S
C1878 C1875 1.463 . S
C1878 N1882 1.427 . S
C1879 H1869 0.929 . S
C1879 C1877 1.433 . S
C1879 N1882 1.384 . S
C1880 H1871 0.929 . S
C1880 C1872 1.378 . S
C1880 C1875 1.350 . S
C1881 H1868 0.929 . S
C1881 C1873 1.433 . S
C1881 N1883 1.384 . S
N1882 C1878 1.427 . S
N1882 C1879 1.384 . S
N1883 C1875 1.427 . S
N1883 C1881 1.384 . S
H1884 C1890 0.930 . S
H1885 C1894 0.930 . S
H1886 C1899 0.929 . S
H1887 C1897 0.929 . S
H1888 C1892 0.929 . S
H1889 C1898 0.929 . S
C1890 H1884 0.930 . S
C1890 C1891 1.367 . S
C1890 C1898 1.378 . S
C1891 C1890 1.367 . S
C1891 C1899 1.433 . S
C1892 H1888 0.929 . S
C1892 C1894 1.378 . S
C1892 C1896 1.350 . S
C1893 C1896 1.463 . S
C1893 C1898 1.350 . S
C1893 N1901 1.427 . S
C1894 H1885 0.930 . S
C1894 C1892 1.378 . S
C1894 C1895 1.367 . S
C1895 C1894 1.367 . S
C1895 C1897 1.433 . S
C1896 C1892 1.350 . S
C1896 C1893 1.463 . S
C1896 N1900 1.427 . S
C1897 H1887 0.929 . S
C1897 C1895 1.433 . S
C1897 N1900 1.384 . S
C1898 H1889 0.929 . S
C1898 C1890 1.378 . S
C1898 C1893 1.350 . S
C1899 H1886 0.929 . S
C1899 C1891 1.433 . S
C1899 N1901 1.384 . S
N1900 C1896 1.427 . S
N1900 C1897 1.384 . S
N1901 C1893 1.427 . S
N1901 C1899 1.384 . S
H1902 C1908 0.930 . S
H1903 C1912 0.930 . S
H1904 C1917 0.929 . S
H1905 C1915 0.929 . S
H1906 C1910 0.929 . S
H1907 C1916 0.929 . S
C1908 H1902 0.930 . S
C1908 C1909 1.366 . S
C1908 C1916 1.378 . S
C1909 C1908 1.366 . S
C1909 C1917 1.434 1_655 S
C1910 H1906 0.929 . S
C1910 C1912 1.378 . S
C1910 C1914 1.350 1_455 S
C1911 C1914 1.463 . S
C1911 C1916 1.350 . S
C1911 N1919 1.427 1_655 S
C1912 H1903 0.930 . S
C1912 C1910 1.378 . S
C1912 C1913 1.367 1_455 S
C1913 C1912 1.367 1_655 S
C1913 C1915 1.433 . S
C1914 C1910 1.350 1_655 S
C1914 C1911 1.463 . S
C1914 N1918 1.427 . S
C1915 H1905 0.929 . S
C1915 C1913 1.433 . S
C1915 N1918 1.384 . S
C1916 H1907 0.929 . S
C1916 C1908 1.378 . S
C1916 C1911 1.350 . S
C1917 H1904 0.929 . S
C1917 C1909 1.434 1_455 S
C1917 N1919 1.384 . S
N1918 C1914 1.427 . S
N1918 C1915 1.384 . S
N1919 C1911 1.427 1_455 S
N1919 C1917 1.384 . S
H1920 C1926 0.930 . S
H1921 C1930 0.930 . S
H1922 C1935 0.929 . S
H1923 C1933 0.929 . S
H1924 C1928 0.929 . S
H1925 C1934 0.929 . S
C1926 H1920 0.930 . S
C1926 C1927 1.367 . S
C1926 C1934 1.378 . S
C1927 C1926 1.367 . S
C1927 C1935 1.433 . S
C1928 H1924 0.929 . S
C1928 C1930 1.378 . S
C1928 C1932 1.350 . S
C1929 C1932 1.463 . S
C1929 C1934 1.350 . S
C1929 N1937 1.427 . S
C1930 H1921 0.930 . S
C1930 C1928 1.378 . S
C1930 C1931 1.367 . S
C1931 C1930 1.367 . S
C1931 C1933 1.433 . S
C1932 C1928 1.350 . S
C1932 C1929 1.463 . S
C1932 N1936 1.427 . S
C1933 H1923 0.929 . S
C1933 C1931 1.433 . S
C1933 N1936 1.384 . S
C1934 H1925 0.929 . S
C1934 C1926 1.378 . S
C1934 C1929 1.350 . S
C1935 H1922 0.929 . S
C1935 C1927 1.433 . S
C1935 N1937 1.384 . S
N1936 C1932 1.427 . S
N1936 C1933 1.384 . S
N1937 C1929 1.427 . S
N1937 C1935 1.384 . S
H1938 C1944 0.930 . S
H1939 C1948 0.930 . S
H1940 C1953 0.929 . S
H1941 C1951 0.929 1_556 S
H1942 C1946 0.929 . S
H1943 C1952 0.929 . S
C1944 H1938 0.930 . S
C1944 C1945 1.367 . S
C1944 C1952 1.378 . S
C1945 C1944 1.367 . S
C1945 C1953 1.433 . S
C1946 H1942 0.929 . S
C1946 C1948 1.378 . S
C1946 C1950 1.350 . S
C1947 C1950 1.463 . S
C1947 C1952 1.350 . S
C1947 N1955 1.427 . S
C1948 H1939 0.930 . S
C1948 C1946 1.378 . S
C1948 C1949 1.367 . S
C1949 C1948 1.367 . S
C1949 C1951 1.433 . S
C1950 C1946 1.350 . S
C1950 C1947 1.463 . S
C1950 N1954 1.427 . S
C1951 H1941 0.929 1_554 S
C1951 C1949 1.433 . S
C1951 N1954 1.384 . S
C1952 H1943 0.929 . S
C1952 C1944 1.378 . S
C1952 C1947 1.350 . S
C1953 H1940 0.929 . S
C1953 C1945 1.433 . S
C1953 N1955 1.384 . S
N1954 C1950 1.427 . S
N1954 C1951 1.384 . S
N1955 C1947 1.427 . S
N1955 C1953 1.384 . S
H1956 C1962 0.930 . S
H1957 C1966 0.930 . S
H1958 C1971 0.929 . S
H1959 C1969 0.929 . S
H1960 C1964 0.929 . S
H1961 C1970 0.929 . S
C1962 H1956 0.930 . S
C1962 C1963 1.387 . S
C1962 C1970 1.378 . S
C1963 C1962 1.387 . S
C1963 C1971 1.414 1_565 S
C1964 H1960 0.929 . S
C1964 C1966 1.378 . S
C1964 C1968 1.350 . S
C1965 C1968 1.463 . S
C1965 C1970 1.340 1_545 S
C1965 N1973 1.438 . S
C1966 H1957 0.930 . S
C1966 C1964 1.378 . S
C1966 C1967 1.367 . S
C1967 C1966 1.367 . S
C1967 C1969 1.433 1_545 S
C1968 C1964 1.350 . S
C1968 C1965 1.463 . S
C1968 N1972 1.427 1_545 S
C1969 H1959 0.929 . S
C1969 C1967 1.433 1_565 S
C1969 N1972 1.384 . S
C1970 H1961 0.929 . S
C1970 C1962 1.378 . S
C1970 C1965 1.340 1_565 S
C1971 H1958 0.929 . S
C1971 C1963 1.414 1_545 S
C1971 N1973 1.384 . S
N1972 C1968 1.427 1_565 S
N1972 C1969 1.384 . S
N1973 C1965 1.438 . S
N1973 C1971 1.384 . S
H1974 C1980 0.930 . S
H1975 C1984 0.930 . S
H1976 C1989 0.929 . S
H1977 C1987 0.929 . S
H1978 C1982 0.929 . S
H1979 C1988 0.929 . S
C1980 H1974 0.930 . S
C1980 C1981 1.367 . S
C1980 C1988 1.378 . S
C1981 C1980 1.367 . S
C1981 C1989 1.433 . S
C1982 H1978 0.929 . S
C1982 C1984 1.378 . S
C1982 C1986 1.350 . S
C1983 C1986 1.463 . S
C1983 C1988 1.350 . S
C1983 N1991 1.427 . S
C1984 H1975 0.930 . S
C1984 C1982 1.378 . S
C1984 C1985 1.367 . S
C1985 C1984 1.367 . S
C1985 C1987 1.433 . S
C1986 C1982 1.350 . S
C1986 C1983 1.463 . S
C1986 N1990 1.427 . S
C1987 H1977 0.929 . S
C1987 C1985 1.433 . S
C1987 N1990 1.384 . S
C1988 H1979 0.929 . S
C1988 C1980 1.378 . S
C1988 C1983 1.350 . S
C1989 H1976 0.929 . S
C1989 C1981 1.433 . S
C1989 N1991 1.384 . S
N1990 C1986 1.427 . S
N1990 C1987 1.384 . S
N1991 C1983 1.427 . S
N1991 C1989 1.384 . S
H1992 C1998 0.930 . S
H1993 C2002 0.930 . S
H1994 C2007 0.929 . S
H1995 C2005 0.929 . S
H1996 C2000 0.929 . S
H1997 C2006 0.929 . S
C1998 H1992 0.930 . S
C1998 C1999 1.367 . S
C1998 C2006 1.378 . S
C1999 C1998 1.367 . S
C1999 C2007 1.433 . S
C2000 H1996 0.929 . S
C2000 C2002 1.378 . S
C2000 C2004 1.350 . S
C2001 C2004 1.463 . S
C2001 C2006 1.350 . S
C2001 N2009 1.427 . S
C2002 H1993 0.930 . S
C2002 C2000 1.378 . S
C2002 C2003 1.367 . S
C2003 C2002 1.367 . S
C2003 C2005 1.433 . S
C2004 C2000 1.350 . S
C2004 C2001 1.463 . S
C2004 N2008 1.427 . S
C2005 H1995 0.929 . S
C2005 C2003 1.433 . S
C2005 N2008 1.384 . S
C2006 H1997 0.929 . S
C2006 C1998 1.378 . S
C2006 C2001 1.350 . S
C2007 H1994 0.929 . S
C2007 C1999 1.433 . S
C2007 N2009 1.384 . S
N2008 C2004 1.427 . S
N2008 C2005 1.384 . S
N2009 C2001 1.427 . S
N2009 C2007 1.384 . S
H2010 C2016 0.930 . S
H2011 C2020 0.930 . S
H2012 C2025 0.929 . S
H2013 C2023 0.929 . S
H2014 C2018 0.929 . S
H2015 C2024 0.929 . S
C2016 H2010 0.930 . S
C2016 C2017 1.367 . S
C2016 C2024 1.378 . S
C2017 C2016 1.367 . S
C2017 C2025 1.433 . S
C2018 H2014 0.929 . S
C2018 C2020 1.378 . S
C2018 C2022 1.350 . S
C2019 C2022 1.463 . S
C2019 C2024 1.350 . S
C2019 N2027 1.427 . S
C2020 H2011 0.930 . S
C2020 C2018 1.378 . S
C2020 C2021 1.367 . S
C2021 C2020 1.367 . S
C2021 C2023 1.433 . S
C2022 C2018 1.350 . S
C2022 C2019 1.463 . S
C2022 N2026 1.427 . S
C2023 H2013 0.929 . S
C2023 C2021 1.433 . S
C2023 N2026 1.384 . S
C2024 H2015 0.929 . S
C2024 C2016 1.378 . S
C2024 C2019 1.350 . S
C2025 H2012 0.929 . S
C2025 C2017 1.433 . S
C2025 N2027 1.384 . S
N2026 C2022 1.427 . S
N2026 C2023 1.384 . S
N2027 C2019 1.427 . S
N2027 C2025 1.384 . S
H2028 C2034 0.930 . S
H2029 C2038 0.930 . S
H2030 C2043 0.929 . S
H2031 C2041 0.929 . S
H2032 C2036 0.929 . S
H2033 C2042 0.929 . S
C2034 H2028 0.930 . S
C2034 C2035 1.367 . S
C2034 C2042 1.378 . S
C2035 C2034 1.367 . S
C2035 C2043 1.433 . S
C2036 H2032 0.929 . S
C2036 C2038 1.378 . S
C2036 C2040 1.350 . S
C2037 C2040 1.463 . S
C2037 C2042 1.350 . S
C2037 N2045 1.427 . S
C2038 H2029 0.930 . S
C2038 C2036 1.378 . S
C2038 C2039 1.367 . S
C2039 C2038 1.367 . S
C2039 C2041 1.433 . S
C2040 C2036 1.350 . S
C2040 C2037 1.463 . S
C2040 N2044 1.427 . S
C2041 H2031 0.929 . S
C2041 C2039 1.433 . S
C2041 N2044 1.384 . S
C2042 H2033 0.929 . S
C2042 C2034 1.378 . S
C2042 C2037 1.350 . S
C2043 H2030 0.929 . S
C2043 C2035 1.433 . S
C2043 N2045 1.384 . S
N2044 C2040 1.427 . S
N2044 C2041 1.384 . S
N2045 C2037 1.427 . S
N2045 C2043 1.384 . S
H2046 C2052 0.930 . S
H2047 C2056 0.930 . S
H2048 C2061 0.929 . S
H2049 C2059 0.929 . S
H2050 C2054 0.929 . S
H2051 C2060 0.929 . S
C2052 H2046 0.930 . S
C2052 C2053 1.371 . S
C2052 C2060 1.378 . S
C2053 C2052 1.371 . S
C2053 C2061 1.429 1_556 S
C2054 H2050 0.929 . S
C2054 C2056 1.378 . S
C2054 C2058 1.350 . S
C2055 C2058 1.463 . S
C2055 C2060 1.334 1_554 S
C2055 N2063 1.445 . S
C2056 H2047 0.930 . S
C2056 C2054 1.378 . S
C2056 C2057 1.367 . S
C2057 C2056 1.367 . S
C2057 C2059 1.433 1_554 S
C2058 C2054 1.350 . S
C2058 C2055 1.463 . S
C2058 N2062 1.427 1_554 S
C2059 H2049 0.929 . S
C2059 C2057 1.433 1_556 S
C2059 N2062 1.384 . S
C2060 H2051 0.929 . S
C2060 C2052 1.378 . S
C2060 C2055 1.334 1_556 S
C2061 H2048 0.929 . S
C2061 C2053 1.429 1_554 S
C2061 N2063 1.384 . S
N2062 C2058 1.427 1_556 S
N2062 C2059 1.384 . S
N2063 C2055 1.445 . S
N2063 C2061 1.384 . S
H2064 C2070 0.930 . S
H2065 C2074 0.930 . S
H2066 C2079 0.929 . S
H2067 C2077 0.929 . S
H2068 C2072 0.929 . S
H2069 C2078 0.929 . S
C2070 H2064 0.930 . S
C2070 C2071 1.367 . S
C2070 C2078 1.378 . S
C2071 C2070 1.367 . S
C2071 C2079 1.433 . S
C2072 H2068 0.929 . S
C2072 C2074 1.378 . S
C2072 C2076 1.350 . S
C2073 C2076 1.463 . S
C2073 C2078 1.350 . S
C2073 N2081 1.427 . S
C2074 H2065 0.930 . S
C2074 C2072 1.378 . S
C2074 C2075 1.367 . S
C2075 C2074 1.367 . S
C2075 C2077 1.433 . S
C2076 C2072 1.350 . S
C2076 C2073 1.463 . S
C2076 N2080 1.427 . S
C2077 H2067 0.929 . S
C2077 C2075 1.433 . S
C2077 N2080 1.384 . S
C2078 H2069 0.929 . S
C2078 C2070 1.378 . S
C2078 C2073 1.350 . S
C2079 H2066 0.929 . S
C2079 C2071 1.433 . S
C2079 N2081 1.384 . S
N2080 C2076 1.427 . S
N2080 C2077 1.384 . S
N2081 C2073 1.427 . S
N2081 C2079 1.384 . S
H2082 C2088 0.930 . S
H2083 C2092 0.930 . S
H2084 C2097 0.929 . S
H2085 C2095 0.929 . S
H2086 C2090 0.929 . S
H2087 C2096 0.929 . S
C2088 H2082 0.930 . S
C2088 C2089 1.367 . S
C2088 C2096 1.378 . S
C2089 C2088 1.367 . S
C2089 C2097 1.433 . S
C2090 H2086 0.929 . S
C2090 C2092 1.378 . S
C2090 C2094 1.350 . S
C2091 C2094 1.463 . S
C2091 C2096 1.350 . S
C2091 N2099 1.427 . S
C2092 H2083 0.930 . S
C2092 C2090 1.378 . S
C2092 C2093 1.367 . S
C2093 C2092 1.367 . S
C2093 C2095 1.433 . S
C2094 C2090 1.350 . S
C2094 C2091 1.463 . S
C2094 N2098 1.427 . S
C2095 H2085 0.929 . S
C2095 C2093 1.433 . S
C2095 N2098 1.384 . S
C2096 H2087 0.929 . S
C2096 C2088 1.378 . S
C2096 C2091 1.350 . S
C2097 H2084 0.929 . S
C2097 C2089 1.433 . S
C2097 N2099 1.384 . S
N2098 C2094 1.427 . S
N2098 C2095 1.384 . S
N2099 C2091 1.427 . S
N2099 C2097 1.384 . S
H2100 C2106 0.930 . S
H2101 C2110 0.930 . S
H2102 C2115 0.929 . S
H2103 C2113 0.929 1_565 S
H2104 C2108 0.929 . S
H2105 C2114 0.929 . S
C2106 H2100 0.930 . S
C2106 C2107 1.367 . S
C2106 C2114 1.378 . S
C2107 C2106 1.367 . S
C2107 C2115 1.433 . S
C2108 H2104 0.929 . S
C2108 C2110 1.378 . S
C2108 C2112 1.350 . S
C2109 C2112 1.463 . S
C2109 C2114 1.350 . S
C2109 N2117 1.427 . S
C2110 H2101 0.930 . S
C2110 C2108 1.378 . S
C2110 C2111 1.367 . S
C2111 C2110 1.367 . S
C2111 C2113 1.433 . S
C2112 C2108 1.350 . S
C2112 C2109 1.463 . S
C2112 N2116 1.427 . S
C2113 H2103 0.929 1_545 S
C2113 C2111 1.433 . S
C2113 N2116 1.384 . S
C2114 H2105 0.929 . S
C2114 C2106 1.378 . S
C2114 C2109 1.350 . S
C2115 H2102 0.929 . S
C2115 C2107 1.433 . S
C2115 N2117 1.384 . S
N2116 C2112 1.427 . S
N2116 C2113 1.384 . S
N2117 C2109 1.427 . S
N2117 C2115 1.384 . S
H2118 C2124 0.930 . S
H2119 C2128 0.930 . S
H2120 C2133 0.929 . S
H2121 C2131 0.929 . S
H2122 C2126 0.929 . S
H2123 C2132 0.929 . S
C2124 H2118 0.930 . S
C2124 C2125 1.373 . S
C2124 C2132 1.378 . S
C2125 C2124 1.373 . S
C2125 C2133 1.427 1_655 S
C2126 H2122 0.929 . S
C2126 C2128 1.378 . S
C2126 C2130 1.350 . S
C2127 C2130 1.463 . S
C2127 C2132 1.334 1_455 S
C2127 N2135 1.445 . S
C2128 H2119 0.930 . S
C2128 C2126 1.378 . S
C2128 C2129 1.367 . S
C2129 C2128 1.367 . S
C2129 C2131 1.433 1_455 S
C2130 C2126 1.350 . S
C2130 C2127 1.463 . S
C2130 N2134 1.427 1_455 S
C2131 H2121 0.929 . S
C2131 C2129 1.433 1_655 S
C2131 N2134 1.384 . S
C2132 H2123 0.929 . S
C2132 C2124 1.378 . S
C2132 C2127 1.334 1_655 S
C2133 H2120 0.929 . S
C2133 C2125 1.427 1_455 S
C2133 N2135 1.384 . S
N2134 C2130 1.427 1_655 S
N2134 C2131 1.384 . S
N2135 C2127 1.445 . S
N2135 C2133 1.384 . S
H2136 C2142 0.930 . S
H2137 C2146 0.930 . S
H2138 C2151 0.929 . S
H2139 C2149 0.929 . S
H2140 C2144 0.929 . S
H2141 C2150 0.929 . S
C2142 H2136 0.930 . S
C2142 C2143 1.367 . S
C2142 C2150 1.378 . S
C2143 C2142 1.367 . S
C2143 C2151 1.433 . S
C2144 H2140 0.929 . S
C2144 C2146 1.378 . S
C2144 C2148 1.350 . S
C2145 C2148 1.463 . S
C2145 C2150 1.350 . S
C2145 N2153 1.427 . S
C2146 H2137 0.930 . S
C2146 C2144 1.378 . S
C2146 C2147 1.367 . S
C2147 C2146 1.367 . S
C2147 C2149 1.433 . S
C2148 C2144 1.350 . S
C2148 C2145 1.463 . S
C2148 N2152 1.427 . S
C2149 H2139 0.929 . S
C2149 C2147 1.433 . S
C2149 N2152 1.384 . S
C2150 H2141 0.929 . S
C2150 C2142 1.378 . S
C2150 C2145 1.350 . S
C2151 H2138 0.929 . S
C2151 C2143 1.433 . S
C2151 N2153 1.384 . S
N2152 C2148 1.427 . S
N2152 C2149 1.384 . S
N2153 C2145 1.427 . S
N2153 C2151 1.384 . S
H2154 C2160 0.930 . S
H2155 C2164 0.930 . S
H2156 C2169 0.929 . S
H2157 C2167 0.929 . S
H2158 C2162 0.929 . S
H2159 C2168 0.929 . S
C2160 H2154 0.930 . S
C2160 C2161 1.367 . S
C2160 C2168 1.378 . S
C2161 C2160 1.367 . S
C2161 C2169 1.433 . S
C2162 H2158 0.929 . S
C2162 C2164 1.378 . S
C2162 C2166 1.350 . S
C2163 C2166 1.463 . S
C2163 C2168 1.350 . S
C2163 N2171 1.427 . S
C2164 H2155 0.930 . S
C2164 C2162 1.378 . S
C2164 C2165 1.367 . S
C2165 C2164 1.367 . S
C2165 C2167 1.433 . S
C2166 C2162 1.350 . S
C2166 C2163 1.463 . S
C2166 N2170 1.427 . S
C2167 H2157 0.929 . S
C2167 C2165 1.433 . S
C2167 N2170 1.384 . S
C2168 H2159 0.929 . S
C2168 C2160 1.378 . S
C2168 C2163 1.350 . S
C2169 H2156 0.929 . S
C2169 C2161 1.433 . S
C2169 N2171 1.384 . S
N2170 C2166 1.427 . S
N2170 C2167 1.384 . S
N2171 C2163 1.427 . S
N2171 C2169 1.384 . S
H2172 C2178 0.930 . S
H2173 C2182 0.930 . S
H2174 C2187 0.929 . S
H2175 C2185 0.929 . S
H2176 C2180 0.929 . S
H2177 C2186 0.929 . S
C2178 H2172 0.930 . S
C2178 C2179 1.345 1_545 S
C2178 C2186 1.378 . S
C2179 C2178 1.345 1_565 S
C2179 C2187 1.464 . S
C2180 H2176 0.929 . S
C2180 C2182 1.378 . S
C2180 C2184 1.350 . S
C2181 C2184 1.463 . S
C2181 C2186 1.350 1_565 S
C2181 N2189 1.427 . S
C2182 H2173 0.930 . S
C2182 C2180 1.378 . S
C2182 C2183 1.367 . S
C2183 C2182 1.367 . S
C2183 C2185 1.433 1_565 S
C2184 C2180 1.350 . S
C2184 C2181 1.463 . S
C2184 N2188 1.427 1_565 S
C2185 H2175 0.929 . S
C2185 C2183 1.433 1_545 S
C2185 N2188 1.384 . S
C2186 H2177 0.929 . S
C2186 C2178 1.378 . S
C2186 C2181 1.350 1_545 S
C2187 H2174 0.929 . S
C2187 C2179 1.464 . S
C2187 N2189 1.384 . S
N2188 C2184 1.427 1_545 S
N2188 C2185 1.384 . S
N2189 C2181 1.427 . S
N2189 C2187 1.384 . S
H2190 C2196 0.930 1_565 S
H2191 C2200 0.930 . S
H2192 C2205 0.929 . S
H2193 C2203 0.929 . S
H2194 C2198 0.929 . S
H2195 C2204 0.929 1_565 S
C2196 H2190 0.930 1_545 S
C2196 C2197 1.367 . S
C2196 C2204 1.378 . S
C2197 C2196 1.367 . S
C2197 C2205 1.433 . S
C2198 H2194 0.929 . S
C2198 C2200 1.378 . S
C2198 C2202 1.350 . S
C2199 C2202 1.463 . S
C2199 C2204 1.350 . S
C2199 N2207 1.427 . S
C2200 H2191 0.930 . S
C2200 C2198 1.378 . S
C2200 C2201 1.367 . S
C2201 C2200 1.367 . S
C2201 C2203 1.433 1_545 S
C2202 C2198 1.350 . S
C2202 C2199 1.463 . S
C2202 N2206 1.427 1_545 S
C2203 H2193 0.929 . S
C2203 C2201 1.433 1_565 S
C2203 N2206 1.384 . S
C2204 H2195 0.929 1_545 S
C2204 C2196 1.378 . S
C2204 C2199 1.350 . S
C2205 H2192 0.929 . S
C2205 C2197 1.433 . S
C2205 N2207 1.384 . S
N2206 C2202 1.427 1_565 S
N2206 C2203 1.384 . S
N2207 C2199 1.427 . S
N2207 C2205 1.384 . S
H2208 C2214 0.930 . S
H2209 C2218 0.930 . S
H2210 C2223 0.929 . S
H2211 C2221 0.929 . S
H2212 C2216 0.929 . S
H2213 C2222 0.929 . S
C2214 H2208 0.930 . S
C2214 C2215 1.367 . S
C2214 C2222 1.378 . S
C2215 C2214 1.367 . S
C2215 C2223 1.433 . S
C2216 H2212 0.929 . S
C2216 C2218 1.378 . S
C2216 C2220 1.350 . S
C2217 C2220 1.463 . S
C2217 C2222 1.350 . S
C2217 N2225 1.427 . S
C2218 H2209 0.930 . S
C2218 C2216 1.378 . S
C2218 C2219 1.367 . S
C2219 C2218 1.367 . S
C2219 C2221 1.433 . S
C2220 C2216 1.350 . S
C2220 C2217 1.463 . S
C2220 N2224 1.427 . S
C2221 H2211 0.929 . S
C2221 C2219 1.433 . S
C2221 N2224 1.384 . S
C2222 H2213 0.929 . S
C2222 C2214 1.378 . S
C2222 C2217 1.350 . S
C2223 H2210 0.929 . S
C2223 C2215 1.433 . S
C2223 N2225 1.384 . S
N2224 C2220 1.427 . S
N2224 C2221 1.384 . S
N2225 C2217 1.427 . S
N2225 C2223 1.384 . S
H2226 C2232 0.928 1_556 S
H2227 C2236 0.930 . S
H2228 C2241 0.929 . S
H2229 C2239 0.929 . S
H2230 C2234 0.929 . S
H2231 C2240 0.929 . S
C2232 H2226 0.928 1_554 S
C2232 C2233 1.369 . S
C2232 C2240 1.378 1_554 S
C2233 C2232 1.369 . S
C2233 C2241 1.433 . S
C2234 H2230 0.929 . S
C2234 C2236 1.378 . S
C2234 C2238 1.350 . S
C2235 C2238 1.463 . S
C2235 C2240 1.350 1_554 S
C2235 N2243 1.427 . S
C2236 H2227 0.930 . S
C2236 C2234 1.378 . S
C2236 C2237 1.367 . S
C2237 C2236 1.367 . S
C2237 C2239 1.433 1_554 S
C2238 C2234 1.350 . S
C2238 C2235 1.463 . S
C2238 N2242 1.427 1_554 S
C2239 H2229 0.929 . S
C2239 C2237 1.433 1_556 S
C2239 N2242 1.384 . S
C2240 H2231 0.929 . S
C2240 C2232 1.378 1_556 S
C2240 C2235 1.350 1_556 S
C2241 H2228 0.929 . S
C2241 C2233 1.433 . S
C2241 N2243 1.384 . S
N2242 C2238 1.427 1_556 S
N2242 C2239 1.384 . S
N2243 C2235 1.427 . S
N2243 C2241 1.384 . S
H2244 C2250 0.930 . S
H2245 C2254 0.930 . S
H2246 C2259 0.929 . S
H2247 C2257 0.929 . S
H2248 C2252 0.929 . S
H2249 C2258 0.929 . S
C2250 H2244 0.930 . S
C2250 C2251 1.367 . S
C2250 C2258 1.378 . S
C2251 C2250 1.367 . S
C2251 C2259 1.433 . S
C2252 H2248 0.929 . S
C2252 C2254 1.378 . S
C2252 C2256 1.350 . S
C2253 C2256 1.463 . S
C2253 C2258 1.350 . S
C2253 N2261 1.427 . S
C2254 H2245 0.930 . S
C2254 C2252 1.378 . S
C2254 C2255 1.367 . S
C2255 C2254 1.367 . S
C2255 C2257 1.433 . S
C2256 C2252 1.350 . S
C2256 C2253 1.463 . S
C2256 N2260 1.427 . S
C2257 H2247 0.929 . S
C2257 C2255 1.433 . S
C2257 N2260 1.384 . S
C2258 H2249 0.929 . S
C2258 C2250 1.378 . S
C2258 C2253 1.350 . S
C2259 H2246 0.929 . S
C2259 C2251 1.433 . S
C2259 N2261 1.384 . S
N2260 C2256 1.427 . S
N2260 C2257 1.384 . S
N2261 C2253 1.427 . S
N2261 C2259 1.384 . S
H2262 C2268 0.930 . S
H2263 C2272 0.930 . S
H2264 C2277 0.929 . S
H2265 C2275 0.929 . S
H2266 C2270 0.929 . S
H2267 C2276 0.929 . S
C2268 H2262 0.930 . S
C2268 C2269 1.345 1_554 S
C2268 C2276 1.378 . S
C2269 C2268 1.345 1_556 S
C2269 C2277 1.463 . S
C2270 H2266 0.929 . S
C2270 C2272 1.378 . S
C2270 C2274 1.350 . S
C2271 C2274 1.463 . S
C2271 C2276 1.350 1_556 S
C2271 N2279 1.427 . S
C2272 H2263 0.930 . S
C2272 C2270 1.378 . S
C2272 C2273 1.367 . S
C2273 C2272 1.367 . S
C2273 C2275 1.433 1_556 S
C2274 C2270 1.350 . S
C2274 C2271 1.463 . S
C2274 N2278 1.427 1_556 S
C2275 H2265 0.929 . S
C2275 C2273 1.433 1_554 S
C2275 N2278 1.384 . S
C2276 H2267 0.929 . S
C2276 C2268 1.378 . S
C2276 C2271 1.350 1_554 S
C2277 H2264 0.929 . S
C2277 C2269 1.463 . S
C2277 N2279 1.384 . S
N2278 C2274 1.427 1_554 S
N2278 C2275 1.384 . S
N2279 C2271 1.427 . S
N2279 C2277 1.384 . S
H2280 C2286 0.930 . S
H2281 C2290 0.930 . S
H2282 C2295 0.929 . S
H2283 C2293 0.929 . S
H2284 C2288 0.929 . S
H2285 C2294 0.929 . S
C2286 H2280 0.930 . S
C2286 C2287 1.367 . S
C2286 C2294 1.378 . S
C2287 C2286 1.367 . S
C2287 C2295 1.433 . S
C2288 H2284 0.929 . S
C2288 C2290 1.378 . S
C2288 C2292 1.350 . S
C2289 C2292 1.463 . S
C2289 C2294 1.350 . S
C2289 N2297 1.427 . S
C2290 H2281 0.930 . S
C2290 C2288 1.378 . S
C2290 C2291 1.367 . S
C2291 C2290 1.367 . S
C2291 C2293 1.433 . S
C2292 C2288 1.350 . S
C2292 C2289 1.463 . S
C2292 N2296 1.427 . S
C2293 H2283 0.929 . S
C2293 C2291 1.433 . S
C2293 N2296 1.384 . S
C2294 H2285 0.929 . S
C2294 C2286 1.378 . S
C2294 C2289 1.350 . S
C2295 H2282 0.929 . S
C2295 C2287 1.433 . S
C2295 N2297 1.384 . S
N2296 C2292 1.427 . S
N2296 C2293 1.384 . S
N2297 C2289 1.427 . S
N2297 C2295 1.384 . S
H2298 C2304 0.930 . S
H2299 C2308 0.935 . S
H2300 C2313 0.929 . S
H2301 C2311 0.929 . S
H2302 C2306 0.929 1_655 S
H2303 C2312 0.929 . S
C2304 H2298 0.930 . S
C2304 C2305 1.367 . S
C2304 C2312 1.378 . S
C2305 C2304 1.367 . S
C2305 C2313 1.433 . S
C2306 H2302 0.929 1_455 S
C2306 C2308 1.377 1_455 S
C2306 C2310 1.350 . S
C2307 C2310 1.463 . S
C2307 C2312 1.350 . S
C2307 N2315 1.427 . S
C2308 H2299 0.935 . S
C2308 C2306 1.377 1_655 S
C2308 C2309 1.363 1_655 S
C2309 C2308 1.363 1_455 S
C2309 C2311 1.433 . S
C2310 C2306 1.350 . S
C2310 C2307 1.463 . S
C2310 N2314 1.427 . S
C2311 H2301 0.929 . S
C2311 C2309 1.433 . S
C2311 N2314 1.384 . S
C2312 H2303 0.929 . S
C2312 C2304 1.378 . S
C2312 C2307 1.350 . S
C2313 H2300 0.929 . S
C2313 C2305 1.433 . S
C2313 N2315 1.384 . S
N2314 C2310 1.427 . S
N2314 C2311 1.384 . S
N2315 C2307 1.427 . S
N2315 C2313 1.384 . S
H2316 C2322 0.930 . S
H2317 C2326 0.930 . S
H2318 C2331 0.929 . S
H2319 C2329 0.929 . S
H2320 C2324 0.929 . S
H2321 C2330 0.929 . S
C2322 H2316 0.930 . S
C2322 C2323 1.367 . S
C2322 C2330 1.378 . S
C2323 C2322 1.367 . S
C2323 C2331 1.433 . S
C2324 H2320 0.929 . S
C2324 C2326 1.378 . S
C2324 C2328 1.350 . S
C2325 C2328 1.463 . S
C2325 C2330 1.350 . S
C2325 N2333 1.427 . S
C2326 H2317 0.930 . S
C2326 C2324 1.378 . S
C2326 C2327 1.367 . S
C2327 C2326 1.367 . S
C2327 C2329 1.433 . S
C2328 C2324 1.350 . S
C2328 C2325 1.463 . S
C2328 N2332 1.427 . S
C2329 H2319 0.929 . S
C2329 C2327 1.433 . S
C2329 N2332 1.384 . S
C2330 H2321 0.929 . S
C2330 C2322 1.378 . S
C2330 C2325 1.350 . S
C2331 H2318 0.929 . S
C2331 C2323 1.433 . S
C2331 N2333 1.384 . S
N2332 C2328 1.427 . S
N2332 C2329 1.384 . S
N2333 C2325 1.427 . S
N2333 C2331 1.384 . S
H2334 C2340 0.930 . S
H2335 C2344 0.930 . S
H2336 C2349 0.929 . S
H2337 C2347 0.929 . S
H2338 C2342 0.929 . S
H2339 C2348 0.929 . S
C2340 H2334 0.930 . S
C2340 C2341 1.367 . S
C2340 C2348 1.378 . S
C2341 C2340 1.367 . S
C2341 C2349 1.433 1_655 S
C2342 H2338 0.929 . S
C2342 C2344 1.378 . S
C2342 C2346 1.350 1_455 S
C2343 C2346 1.463 . S
C2343 C2348 1.350 . S
C2343 N2351 1.427 1_655 S
C2344 H2335 0.930 . S
C2344 C2342 1.378 . S
C2344 C2345 1.367 1_455 S
C2345 C2344 1.367 1_655 S
C2345 C2347 1.433 . S
C2346 C2342 1.350 1_655 S
C2346 C2343 1.463 . S
C2346 N2350 1.427 . S
C2347 H2337 0.929 . S
C2347 C2345 1.433 . S
C2347 N2350 1.384 . S
C2348 H2339 0.929 . S
C2348 C2340 1.378 . S
C2348 C2343 1.350 . S
C2349 H2336 0.929 . S
C2349 C2341 1.433 1_455 S
C2349 N2351 1.384 . S
N2350 C2346 1.427 . S
N2350 C2347 1.384 . S
N2351 C2343 1.427 1_455 S
N2351 C2349 1.384 . S
H2352 C2358 0.930 . S
H2353 C2362 0.930 . S
H2354 C2367 0.929 . S
H2355 C2365 0.929 . S
H2356 C2360 0.929 . S
H2357 C2366 0.929 . S
C2358 H2352 0.930 . S
C2358 C2359 1.367 . S
C2358 C2366 1.378 . S
C2359 C2358 1.367 . S
C2359 C2367 1.433 . S
C2360 H2356 0.929 . S
C2360 C2362 1.378 . S
C2360 C2364 1.350 . S
C2361 C2364 1.463 . S
C2361 C2366 1.350 . S
C2361 N2369 1.427 . S
C2362 H2353 0.930 . S
C2362 C2360 1.378 . S
C2362 C2363 1.367 . S
C2363 C2362 1.367 . S
C2363 C2365 1.433 . S
C2364 C2360 1.350 . S
C2364 C2361 1.463 . S
C2364 N2368 1.427 . S
C2365 H2355 0.929 . S
C2365 C2363 1.433 . S
C2365 N2368 1.384 . S
C2366 H2357 0.929 . S
C2366 C2358 1.378 . S
C2366 C2361 1.350 . S
C2367 H2354 0.929 . S
C2367 C2359 1.433 . S
C2367 N2369 1.384 . S
N2368 C2364 1.427 . S
N2368 C2365 1.384 . S
N2369 C2361 1.427 . S
N2369 C2367 1.384 . S
H2370 C2376 0.930 . S
H2371 C2380 0.930 . S
H2372 C2385 0.929 . S
H2373 C2383 0.929 . S
H2374 C2378 0.929 . S
H2375 C2384 0.929 . S
C2376 H2370 0.930 . S
C2376 C2377 1.367 . S
C2376 C2384 1.378 . S
C2377 C2376 1.367 . S
C2377 C2385 1.433 . S
C2378 H2374 0.929 . S
C2378 C2380 1.378 . S
C2378 C2382 1.350 . S
C2379 C2382 1.463 . S
C2379 C2384 1.350 . S
C2379 N2387 1.427 . S
C2380 H2371 0.930 . S
C2380 C2378 1.378 . S
C2380 C2381 1.367 . S
C2381 C2380 1.367 . S
C2381 C2383 1.433 . S
C2382 C2378 1.350 . S
C2382 C2379 1.463 . S
C2382 N2386 1.427 . S
C2383 H2373 0.929 . S
C2383 C2381 1.433 . S
C2383 N2386 1.384 . S
C2384 H2375 0.929 . S
C2384 C2376 1.378 . S
C2384 C2379 1.350 . S
C2385 H2372 0.929 . S
C2385 C2377 1.433 . S
C2385 N2387 1.384 . S
N2386 C2382 1.427 . S
N2386 C2383 1.384 . S
N2387 C2379 1.427 . S
N2387 C2385 1.384 . S
H2388 C2394 0.930 . S
H2389 C2398 0.930 . S
H2390 C2403 0.929 . S
H2391 C2401 0.929 . S
H2392 C2396 0.929 . S
H2393 C2402 0.929 . S
C2394 H2388 0.930 . S
C2394 C2395 1.367 . S
C2394 C2402 1.378 . S
C2395 C2394 1.367 . S
C2395 C2403 1.433 1_545 S
C2396 H2392 0.929 . S
C2396 C2398 1.378 . S
C2396 C2400 1.350 1_565 S
C2397 C2400 1.463 . S
C2397 C2402 1.350 . S
C2397 N2405 1.427 1_545 S
C2398 H2389 0.930 . S
C2398 C2396 1.378 . S
C2398 C2399 1.367 1_565 S
C2399 C2398 1.367 1_545 S
C2399 C2401 1.433 . S
C2400 C2396 1.350 1_545 S
C2400 C2397 1.463 . S
C2400 N2404 1.427 . S
C2401 H2391 0.929 . S
C2401 C2399 1.433 . S
C2401 N2404 1.384 . S
C2402 H2393 0.929 . S
C2402 C2394 1.378 . S
C2402 C2397 1.350 . S
C2403 H2390 0.929 . S
C2403 C2395 1.433 1_565 S
C2403 N2405 1.384 . S
N2404 C2400 1.427 . S
N2404 C2401 1.384 . S
N2405 C2397 1.427 1_565 S
N2405 C2403 1.384 . S
H2406 C2412 0.930 . S
H2407 C2416 0.930 . S
H2408 C2421 0.951 . S
H2409 C2419 0.929 . S
H2410 C2414 0.929 . S
H2411 C2420 0.929 . S
C2412 H2406 0.930 . S
C2412 C2413 1.367 . S
C2412 C2420 1.378 . S
C2413 C2412 1.367 . S
C2413 C2421 1.411 1_565 S
C2414 H2410 0.929 . S
C2414 C2416 1.378 . S
C2414 C2418 1.350 1_545 S
C2415 C2418 1.463 . S
C2415 C2420 1.350 . S
C2415 N2423 1.427 1_565 S
C2416 H2407 0.930 . S
C2416 C2414 1.378 . S
C2416 C2417 1.367 1_545 S
C2417 C2416 1.367 1_565 S
C2417 C2419 1.433 . S
C2418 C2414 1.350 1_565 S
C2418 C2415 1.463 . S
C2418 N2422 1.427 . S
C2419 H2409 0.929 . S
C2419 C2417 1.433 . S
C2419 N2422 1.384 . S
C2420 H2411 0.929 . S
C2420 C2412 1.378 . S
C2420 C2415 1.350 . S
C2421 H2408 0.951 . S
C2421 C2413 1.411 1_545 S
C2421 N2423 1.384 . S
N2422 C2418 1.427 . S
N2422 C2419 1.384 . S
N2423 C2415 1.427 1_545 S
N2423 C2421 1.384 . S
H2424 C2430 0.930 . S
H2425 C2434 0.930 . S
H2426 C2439 0.929 . S
H2427 C2437 0.929 . S
H2428 C2432 0.929 . S
H2429 C2438 0.929 . S
C2430 H2424 0.930 . S
C2430 C2431 1.367 . S
C2430 C2438 1.378 . S
C2431 C2430 1.367 . S
C2431 C2439 1.433 . S
C2432 H2428 0.929 . S
C2432 C2434 1.378 . S
C2432 C2436 1.350 . S
C2433 C2436 1.463 . S
C2433 C2438 1.350 . S
C2433 N2441 1.427 . S
C2434 H2425 0.930 . S
C2434 C2432 1.378 . S
C2434 C2435 1.367 . S
C2435 C2434 1.367 . S
C2435 C2437 1.433 . S
C2436 C2432 1.350 . S
C2436 C2433 1.463 . S
C2436 N2440 1.427 . S
C2437 H2427 0.929 . S
C2437 C2435 1.433 . S
C2437 N2440 1.384 . S
C2438 H2429 0.929 . S
C2438 C2430 1.378 . S
C2438 C2433 1.350 . S
C2439 H2426 0.929 . S
C2439 C2431 1.433 . S
C2439 N2441 1.384 . S
N2440 C2436 1.427 . S
N2440 C2437 1.384 . S
N2441 C2433 1.427 . S
N2441 C2439 1.384 . S
H2442 C2448 0.899 1_554 S
H2443 C2452 0.930 . S
H2444 C2457 0.929 . S
H2445 C2455 0.929 . S
H2446 C2450 0.929 . S
H2447 C2456 0.929 . S
C2448 H2442 0.899 1_556 S
C2448 C2449 1.400 . S
C2448 C2456 1.377 1_556 S
C2449 C2448 1.400 . S
C2449 C2457 1.433 . S
C2450 H2446 0.929 . S
C2450 C2452 1.378 . S
C2450 C2454 1.350 . S
C2451 C2454 1.463 . S
C2451 C2456 1.350 1_556 S
C2451 N2459 1.427 . S
C2452 H2443 0.930 . S
C2452 C2450 1.378 . S
C2452 C2453 1.367 . S
C2453 C2452 1.367 . S
C2453 C2455 1.433 1_556 S
C2454 C2450 1.350 . S
C2454 C2451 1.463 . S
C2454 N2458 1.427 1_556 S
C2455 H2445 0.929 . S
C2455 C2453 1.433 1_554 S
C2455 N2458 1.384 . S
C2456 H2447 0.929 . S
C2456 C2448 1.377 1_554 S
C2456 C2451 1.350 1_554 S
C2457 H2444 0.929 . S
C2457 C2449 1.433 . S
C2457 N2459 1.384 . S
N2458 C2454 1.427 1_554 S
N2458 C2455 1.384 . S
N2459 C2451 1.427 . S
N2459 C2457 1.384 . S
H2460 C2466 0.930 . S
H2461 C2470 0.930 . S
H2462 C2475 0.929 . S
H2463 C2473 0.929 . S
H2464 C2468 0.929 . S
H2465 C2474 0.929 . S
C2466 H2460 0.930 . S
C2466 C2467 1.367 . S
C2466 C2474 1.378 . S
C2467 C2466 1.367 . S
C2467 C2475 1.433 . S
C2468 H2464 0.929 . S
C2468 C2470 1.378 . S
C2468 C2472 1.350 . S
C2469 C2472 1.463 . S
C2469 C2474 1.350 . S
C2469 N2477 1.427 . S
C2470 H2461 0.930 . S
C2470 C2468 1.378 . S
C2470 C2471 1.367 . S
C2471 C2470 1.367 . S
C2471 C2473 1.433 . S
C2472 C2468 1.350 . S
C2472 C2469 1.463 . S
C2472 N2476 1.427 . S
C2473 H2463 0.929 . S
C2473 C2471 1.433 . S
C2473 N2476 1.384 . S
C2474 H2465 0.929 . S
C2474 C2466 1.378 . S
C2474 C2469 1.350 . S
C2475 H2462 0.929 . S
C2475 C2467 1.433 . S
C2475 N2477 1.384 . S
N2476 C2472 1.427 . S
N2476 C2473 1.384 . S
N2477 C2469 1.427 . S
N2477 C2475 1.384 . S
H2478 C2484 0.930 . S
H2479 C2488 0.930 . S
H2480 C2493 0.929 . S
H2481 C2491 0.929 . S
H2482 C2486 0.929 . S
H2483 C2492 0.929 . S
C2484 H2478 0.930 . S
C2484 C2485 1.345 1_556 S
C2484 C2492 1.378 . S
C2485 C2484 1.345 1_554 S
C2485 C2493 1.464 . S
C2486 H2482 0.929 . S
C2486 C2488 1.378 . S
C2486 C2490 1.350 . S
C2487 C2490 1.463 . S
C2487 C2492 1.350 1_554 S
C2487 N2495 1.427 . S
C2488 H2479 0.930 . S
C2488 C2486 1.378 . S
C2488 C2489 1.367 . S
C2489 C2488 1.367 . S
C2489 C2491 1.433 1_554 S
C2490 C2486 1.350 . S
C2490 C2487 1.463 . S
C2490 N2494 1.427 1_554 S
C2491 H2481 0.929 . S
C2491 C2489 1.433 1_556 S
C2491 N2494 1.384 . S
C2492 H2483 0.929 . S
C2492 C2484 1.378 . S
C2492 C2487 1.350 1_556 S
C2493 H2480 0.929 . S
C2493 C2485 1.464 . S
C2493 N2495 1.384 . S
N2494 C2490 1.427 1_556 S
N2494 C2491 1.384 . S
N2495 C2487 1.427 . S
N2495 C2493 1.384 . S
H2496 C2502 0.930 . S
H2497 C2506 0.930 . S
H2498 C2511 0.929 . S
H2499 C2509 0.929 . S
H2500 C2504 0.929 . S
H2501 C2510 0.929 . S
C2502 H2496 0.930 . S
C2502 C2503 1.367 . S
C2502 C2510 1.378 . S
C2503 C2502 1.367 . S
C2503 C2511 1.433 . S
C2504 H2500 0.929 . S
C2504 C2506 1.378 . S
C2504 C2508 1.350 . S
C2505 C2508 1.463 . S
C2505 C2510 1.350 . S
C2505 N2513 1.427 . S
C2506 H2497 0.930 . S
C2506 C2504 1.378 . S
C2506 C2507 1.367 . S
C2507 C2506 1.367 . S
C2507 C2509 1.433 . S
C2508 C2504 1.350 . S
C2508 C2505 1.463 . S
C2508 N2512 1.427 . S
C2509 H2499 0.929 . S
C2509 C2507 1.433 . S
C2509 N2512 1.384 . S
C2510 H2501 0.929 . S
C2510 C2502 1.378 . S
C2510 C2505 1.350 . S
C2511 H2498 0.929 . S
C2511 C2503 1.433 . S
C2511 N2513 1.384 . S
N2512 C2508 1.427 . S
N2512 C2509 1.384 . S
N2513 C2505 1.427 . S
N2513 C2511 1.384 . S
H2514 C2520 0.930 . S
H2515 C2524 0.930 . S
H2516 C2529 0.929 . S
H2517 C2527 0.929 . S
H2518 C2522 0.929 . S
H2519 C2528 0.929 . S
C2520 H2514 0.930 . S
C2520 C2521 1.367 . S
C2520 C2528 1.378 . S
C2521 C2520 1.367 . S
C2521 C2529 1.433 . S
C2522 H2518 0.929 . S
C2522 C2524 1.378 . S
C2522 C2526 1.350 . S
C2523 C2526 1.463 . S
C2523 C2528 1.350 . S
C2523 N2531 1.427 . S
C2524 H2515 0.930 . S
C2524 C2522 1.378 . S
C2524 C2525 1.367 . S
C2525 C2524 1.367 . S
C2525 C2527 1.433 . S
C2526 C2522 1.350 . S
C2526 C2523 1.463 . S
C2526 N2530 1.427 . S
C2527 H2517 0.929 . S
C2527 C2525 1.433 . S
C2527 N2530 1.384 . S
C2528 H2519 0.929 . S
C2528 C2520 1.378 . S
C2528 C2523 1.350 . S
C2529 H2516 0.929 . S
C2529 C2521 1.433 . S
C2529 N2531 1.384 . S
N2530 C2526 1.427 . S
N2530 C2527 1.384 . S
N2531 C2523 1.427 . S
N2531 C2529 1.384 . S
H2532 C2538 0.930 . S
H2533 C2542 0.930 . S
H2534 C2547 0.929 . S
H2535 C2545 0.929 . S
H2536 C2540 0.929 . S
H2537 C2546 0.929 . S
C2538 H2532 0.930 . S
C2538 C2539 1.367 . S
C2538 C2546 1.378 . S
C2539 C2538 1.367 . S
C2539 C2547 1.433 . S
C2540 H2536 0.929 . S
C2540 C2542 1.378 . S
C2540 C2544 1.350 . S
C2541 C2544 1.463 . S
C2541 C2546 1.350 . S
C2541 N2549 1.427 . S
C2542 H2533 0.930 . S
C2542 C2540 1.378 . S
C2542 C2543 1.367 . S
C2543 C2542 1.367 . S
C2543 C2545 1.433 . S
C2544 C2540 1.350 . S
C2544 C2541 1.463 . S
C2544 N2548 1.427 . S
C2545 H2535 0.929 . S
C2545 C2543 1.433 . S
C2545 N2548 1.384 . S
C2546 H2537 0.929 . S
C2546 C2538 1.378 . S
C2546 C2541 1.350 . S
C2547 H2534 0.929 . S
C2547 C2539 1.433 . S
C2547 N2549 1.384 . S
N2548 C2544 1.427 . S
N2548 C2545 1.384 . S
N2549 C2541 1.427 . S
N2549 C2547 1.384 . S
H2550 C2556 0.930 . S
H2551 C2560 0.930 . S
H2552 C2565 0.929 . S
H2553 C2563 0.929 . S
H2554 C2558 0.929 . S
H2555 C2564 0.929 . S
C2556 H2550 0.930 . S
C2556 C2557 1.349 1_655 S
C2556 C2564 1.378 . S
C2557 C2556 1.349 1_455 S
C2557 C2565 1.461 . S
C2558 H2554 0.929 . S
C2558 C2560 1.378 . S
C2558 C2562 1.350 . S
C2559 C2562 1.463 . S
C2559 C2564 1.350 1_455 S
C2559 N2567 1.427 . S
C2560 H2551 0.930 . S
C2560 C2558 1.378 . S
C2560 C2561 1.367 . S
C2561 C2560 1.367 . S
C2561 C2563 1.433 1_455 S
C2562 C2558 1.350 . S
C2562 C2559 1.463 . S
C2562 N2566 1.427 1_455 S
C2563 H2553 0.929 . S
C2563 C2561 1.433 1_655 S
C2563 N2566 1.384 . S
C2564 H2555 0.929 . S
C2564 C2556 1.378 . S
C2564 C2559 1.350 1_655 S
C2565 H2552 0.929 . S
C2565 C2557 1.461 . S
C2565 N2567 1.384 . S
N2566 C2562 1.427 1_655 S
N2566 C2563 1.384 . S
N2567 C2559 1.427 . S
N2567 C2565 1.384 . S
C1283 N1260 1.687 . S
C1279 C15 1.699 . S
C1301 N1221 1.577 . S
C1297 C55 1.492 . S
C1319 N1247 0.725 . S
C1315 C95 0.704 1_545 S
C1337 N1234 1.479 . S
C1333 C135 1.484 . S
C1355 N1143 1.687 . S
C1351 C175 1.699 . S
C1369 C215 1.490 . S
C1373 N1156 1.483 . S
C1391 N1117 1.577 . S
C1387 C255 1.484 . S
C1405 C295 0.704 1_554 S
C1409 N1130 0.715 . S
C1427 N1208 1.687 . S
C1423 C335 1.699 . S
C1441 C375 1.490 . S
C1445 N1182 1.492 . S
C1459 C415 1.485 . S
C1463 N1169 1.578 . S
C1481 N1195 0.725 . S
C1477 C455 0.704 1_455 S
C1499 N1104 1.703 . S
C1495 C495 1.692 . S
C1513 C535 1.485 . S
C1517 N1065 1.577 . S
C1535 N1091 0.720 . S
C1531 C575 0.705 . S
C1549 C615 1.478 . S
C1553 N1078 1.514 . S
C1571 N987 1.699 . S
C1567 C655 1.698 . S
C1589 N1000 1.519 . S
C1585 C695 1.489 . S
C1603 C735 1.475 . S
C1607 N961 1.577 . S
C1621 C775 0.705 . S
C1625 N974 0.723 . S
C1639 C815 1.687 . S
C1643 N1052 1.708 . S
C1657 C855 1.479 . S
C1661 N1026 1.515 . S
C1679 N1013 1.577 . S
C1675 C895 1.474 . S
C1693 C935 0.704 1_455 S
C1697 N1039 0.699 . S
C1715 N965 1.690 . S
C1711 C21 1.687 . S
C1733 N978 1.910 . S
C1729 C61 1.885 . S
C1747 C101 0.948 . S
C1751 N991 0.946 1_565 S
C1765 C141 1.024 . S
C1769 N1004 1.009 . S
C1787 N1017 1.690 . S
C1783 C181 1.688 . S
C1801 C221 1.024 . S
C1805 N1030 1.016 . S
C1823 N1043 1.910 . S
C1819 C261 1.885 . S
C1841 N1056 0.956 1_556 S
C1837 C301 0.945 1_554 S
C1859 N1069 1.690 . S
C1855 C341 1.687 . S
C1873 C381 1.022 . S
C1877 N1082 1.012 . S
C1891 C421 1.879 . S
C1895 N1095 1.902 . S
C1909 C461 0.942 . S
C1913 N1108 0.951 1_655 S
C1927 C501 1.636 . S
C1931 N1121 1.689 . S
C1945 C541 1.744 . S
C1949 N1134 1.904 . S
C1963 C581 0.950 . S
C1967 N1147 0.957 1_545 S
C1981 C621 1.011 . S
C1985 N1160 1.006 . S
C1999 C661 1.645 . S
C2003 N1173 1.690 . S
C2021 N1186 1.024 . S
C2017 C701 0.999 . S
C2039 N1199 1.900 . S
C2035 C741 1.727 . S
C2057 N1212 0.953 1_554 S
C2053 C781 0.955 . S
C2075 N1225 1.689 . S
C2071 C821 1.636 . S
C2089 C861 0.999 . S
C2093 N1238 1.016 . S
C2107 C901 1.745 . S
C2111 N1251 1.904 . S
C2125 C941 0.955 . S
C2129 N1264 0.954 1_455 S
C2143 C2 1.647 . S
C2147 N1066 1.643 . S
C2165 N1105 1.886 . S
C2161 C42 1.871 . S
C2179 C82 1.532 . S
C2183 N1079 1.527 . S
C2201 N1092 1.634 . S
C2197 C122 1.602 . S
C2215 C162 1.646 . S
C2219 N962 1.644 . S
C2233 C202 1.597 . S
C2237 N975 1.633 . S
C2251 C242 1.883 . S
C2255 N988 1.877 . S
C2269 C282 1.532 . S
C2273 N1001 1.527 . S
C2291 N1014 1.641 . S
C2287 C322 1.646 . S
C2309 N1040 1.634 . S
C2305 C362 1.603 . S
C2323 C402 1.880 . S
C2327 N1053 1.883 . S
C2341 C442 1.528 . S
C2345 N1027 1.519 . S
C2363 N1222 1.646 . S
C2359 C482 1.609 . S
C2381 N1261 1.875 . S
C2377 C522 1.767 . S
C2395 C562 1.547 1_545 S
C2399 N1235 1.508 . S
C2417 N1248 1.636 . S
C2413 C602 1.583 . S
C2431 C642 1.614 . S
C2435 N1118 1.645 . S
C2449 C682 1.570 . S
C2453 N1131 1.636 . S
C2467 C722 1.774 . S
C2471 N1144 1.875 . S
C2489 N1157 1.519 . S
C2485 C762 1.534 1_554 S
C2507 N1170 1.645 . S
C2503 C802 1.611 . S
C2525 N1196 1.636 . S
C2521 C842 1.581 . S
C2539 C882 1.771 . S
C2543 N1209 1.870 . S
C2561 N1183 1.516 . S
C2557 C922 1.533 1_455 S
