# Generated by pormake.
# Topology zzz, (3,6)-cn, num edge types: 1
# Building blocks:
#     Node 0, Type 0, BuildingBlock: VETTIZ_charged_linker_0, # of connection points: 3
#     Node 1, Type 0, BuildingBlock: VETTIZ_charged_linker_0, # of connection points: 3
#     Node 2, Type 0, BuildingBlock: VETTIZ_charged_linker_0, # of connection points: 3
#     Node 3, Type 0, BuildingBlock: VETTIZ_charged_linker_0, # of connection points: 3
#     Node 4, Type 0, BuildingBlock: VETTIZ_charged_linker_0, # of connection points: 3
#     Node 5, Type 0, BuildingBlock: VETTIZ_charged_linker_0, # of connection points: 3
#     Node 6, Type 0, BuildingBlock: VETTIZ_charged_linker_0, # of connection points: 3
#     Node 7, Type 0, BuildingBlock: VETTIZ_charged_linker_0, # of connection points: 3
#     Node 8, Type 1, BuildingBlock: KUMBOL_clean_sbu_1, # of connection points: 6
#     Node 9, Type 1, BuildingBlock: KUMBOL_clean_sbu_1, # of connection points: 6
#     Node 10, Type 1, BuildingBlock: KUMBOL_clean_sbu_1, # of connection points: 6
#     Node 11, Type 1, BuildingBlock: KUMBOL_clean_sbu_1, # of connection points: 6
#     Edge 12, Type (0, 1), BuildingBlock: MIFKUJ_clean_linker_0, # of connection points: 2
#     Edge 13, Type (0, 1), BuildingBlock: MIFKUJ_clean_linker_0, # of connection points: 2
#     Edge 14, Type (0, 1), BuildingBlock: MIFKUJ_clean_linker_0, # of connection points: 2
#     Edge 15, Type (0, 1), BuildingBlock: MIFKUJ_clean_linker_0, # of connection points: 2
#     Edge 16, Type (0, 1), BuildingBlock: MIFKUJ_clean_linker_0, # of connection points: 2
#     Edge 17, Type (0, 1), BuildingBlock: MIFKUJ_clean_linker_0, # of connection points: 2
#     Edge 18, Type (0, 1), BuildingBlock: MIFKUJ_clean_linker_0, # of connection points: 2
#     Edge 19, Type (0, 1), BuildingBlock: MIFKUJ_clean_linker_0, # of connection points: 2
#     Edge 20, Type (0, 1), BuildingBlock: MIFKUJ_clean_linker_0, # of connection points: 2
#     Edge 21, Type (0, 1), BuildingBlock: MIFKUJ_clean_linker_0, # of connection points: 2
#     Edge 22, Type (0, 1), BuildingBlock: MIFKUJ_clean_linker_0, # of connection points: 2
#     Edge 23, Type (0, 1), BuildingBlock: MIFKUJ_clean_linker_0, # of connection points: 2
#     Edge 24, Type (0, 1), BuildingBlock: MIFKUJ_clean_linker_0, # of connection points: 2
#     Edge 25, Type (0, 1), BuildingBlock: MIFKUJ_clean_linker_0, # of connection points: 2
#     Edge 26, Type (0, 1), BuildingBlock: MIFKUJ_clean_linker_0, # of connection points: 2
#     Edge 27, Type (0, 1), BuildingBlock: MIFKUJ_clean_linker_0, # of connection points: 2
#     Edge 28, Type (0, 1), BuildingBlock: MIFKUJ_clean_linker_0, # of connection points: 2
#     Edge 29, Type (0, 1), BuildingBlock: MIFKUJ_clean_linker_0, # of connection points: 2
#     Edge 30, Type (0, 1), BuildingBlock: MIFKUJ_clean_linker_0, # of connection points: 2
#     Edge 31, Type (0, 1), BuildingBlock: MIFKUJ_clean_linker_0, # of connection points: 2
#     Edge 32, Type (0, 1), BuildingBlock: MIFKUJ_clean_linker_0, # of connection points: 2
#     Edge 33, Type (0, 1), BuildingBlock: MIFKUJ_clean_linker_0, # of connection points: 2
#     Edge 34, Type (0, 1), BuildingBlock: MIFKUJ_clean_linker_0, # of connection points: 2
#     Edge 35, Type (0, 1), BuildingBlock: MIFKUJ_clean_linker_0, # of connection points: 2
# Relax obj value: 0.294
# Max RMSD: 0.213
# Mean RMSD: 0.183
data_MOF--net-zzz--node1-KUMBOL_clean_sbu_1--node2-VETTIZ_charged_linker_0--edge1-MIFKUJ_clean_linker_0
_symmetry_space_group_name_H-M    P1
_symmetry_Int_Tables_number       1
_symmetry_cell_setting            triclinic
loop_
_symmetry_equiv_pos_as_xyz
'x, y, z'
_cell_length_a     70.082434
_cell_length_b     70.20157
_cell_length_c     26.096122
_cell_angle_alpha  90.076267
_cell_angle_beta   89.863619
_cell_angle_gamma 90.378498
loop_
_atom_site_label
_atom_site_type_symbol
_atom_site_fract_x
_atom_site_fract_y
_atom_site_fract_z
_atom_type_partial_charge
C0 C 0.77362 0.53653 0.34086 0.0
C1 C 0.79251 0.52858 0.34312 0.0
C2 C 0.79852 0.51685 0.30235 0.0
C3 C 0.77161 0.52665 0.25286 0.0
C4 C 0.76276 0.53428 0.29466 0.0
C5 C 0.74272 0.54095 0.27762 0.0
H6 H 0.68989 0.55951 0.05567 0.0
C7 C 0.76188 0.53265 0.2069 0.0
C8 C 0.74288 0.53696 0.21891 0.0
H9 H 0.66636 0.52244 0.17183 0.0
H10 H 0.69712 0.52417 0.21916 0.0
H11 H 0.71926 0.58791 0.13133 0.0
H12 H 0.72095 0.53657 0.04115 0.0
H13 H 0.74368 0.54651 0.0352 0.0
H14 H 0.72339 0.55959 0.01203 0.0
H15 H 0.71676 0.58725 0.06287 0.0
H16 H 0.73991 0.58867 0.09271 0.0
C17 C 0.74031 0.56233 0.28866 0.0
C18 C 0.7272 0.52921 0.30483 0.0
C19 C 0.80727 0.56654 0.08712 0.0
C20 C 0.80485 0.57311 0.03688 0.0
C21 C 0.78631 0.57695 0.01914 0.0
C22 C 0.77043 0.57228 0.04938 0.0
C23 C 0.77324 0.56271 0.0961 0.0
C24 C 0.79147 0.55993 0.11408 0.0
C25 C 0.79211 0.54751 0.16077 0.0
C26 C 0.77097 0.54275 0.16677 0.0
C27 C 0.76013 0.55278 0.13126 0.0
C28 C 0.79986 0.55966 0.20568 0.0
C29 C 0.80454 0.52969 0.15009 0.0
C30 C 0.69045 0.55263 0.09273 0.0
C31 C 0.67506 0.54151 0.11023 0.0
C32 C 0.67767 0.53149 0.15724 0.0
C33 C 0.6952 0.53272 0.18519 0.0
C34 C 0.71029 0.54406 0.16618 0.0
C35 C 0.7077 0.55322 0.11962 0.0
C36 C 0.72604 0.56012 0.09673 0.0
C37 C 0.74012 0.55294 0.13558 0.0
C38 C 0.73117 0.54497 0.17895 0.0
C39 C 0.72556 0.58215 0.09536 0.0
C40 C 0.72873 0.55041 0.04344 0.0
H41 H 0.79298 0.50707 0.22586 0.0
H42 H 0.76808 0.54485 0.37243 0.0
H43 H 0.7284 0.51389 0.29459 0.0
H44 H 0.71281 0.53426 0.29388 0.0
H45 H 0.72861 0.53062 0.34708 0.0
H46 H 0.75174 0.57074 0.26932 0.0
H47 H 0.74106 0.56519 0.3305 0.0
H48 H 0.7263 0.56736 0.27438 0.0
H49 H 0.82141 0.56423 0.10255 0.0
H50 H 0.78397 0.58214 0.98063 0.0
H51 H 0.75664 0.57502 0.03337 0.0
H52 H 0.79043 0.57205 0.21316 0.0
H53 H 0.81441 0.56514 0.19679 0.0
H54 H 0.80098 0.5514 0.24153 0.0
H55 H 0.81486 0.53177 0.11829 0.0
H56 H 0.79557 0.5172 0.13928 0.0
H57 H 0.81342 0.526 0.18371 0.0
H58 H 0.81216 0.50968 0.30396 0.0
C59 C 0.788 0.51573 0.25723 0.0
C60 C 0.94554 0.77849 0.02009 0.0
C61 C 0.94197 0.79809 0.02351 0.0
C62 C 0.93588 0.80588 0.07049 0.0
C63 C 0.94332 0.77623 0.11207 0.0
C64 C 0.94617 0.76778 0.06506 0.0
C65 C 0.95197 0.74735 0.0699 0.0
H66 H 1.00743 0.68494 0.15281 0.0
C67 C 0.95073 0.76339 0.15157 0.0
C68 C 0.9541 0.74589 0.12827 0.0
H69 H 0.95533 0.67549 0.06601 0.0
H70 H 0.94231 0.7045 0.10232 0.0
H71 H 0.0127 0.73543 0.15135 0.0
H72 H 0.97562 0.70538 0.25873 0.0
H73 H 0.9934 0.72109 0.28452 0.0
H74 H 1.00047 0.69916 0.25467 0.0
H75 H 0.02243 0.71695 0.19125 0.0
H76 H 0.01613 0.73959 0.21867 0.0
C77 C 0.97118 0.74411 0.04189 0.0
C78 C 0.93587 0.73486 0.04702 0.0
C79 C 0.97666 0.79702 0.30646 0.0
C80 C 0.9908 0.79384 0.34306 0.0
C81 C 1.00126 0.77657 0.33913 0.0
C82 C 0.997 0.76276 0.3002 0.0
C83 C 0.98237 0.76638 0.2644 0.0
C84 C 0.9729 0.78361 0.26818 0.0
C85 C 0.95919 0.78691 0.22579 0.0
C86 C 0.96049 0.76821 0.19738 0.0
C87 C 0.9741 0.75572 0.21918 0.0
C88 C 0.96656 0.80429 0.19385 0.0
C89 C 0.93902 0.78958 0.24908 0.0
C90 C 0.99361 0.68956 0.13948 0.0
C91 C 0.98297 0.67824 0.1033 0.0
C92 C 0.9643 0.68402 0.09095 0.0
C93 C 0.95703 0.70108 0.10916 0.0
C94 C 0.96875 0.71313 0.13738 0.0
C95 C 0.98557 0.707 0.15792 0.0
C96 C 0.99169 0.72118 0.20046 0.0
C97 C 0.97664 0.73718 0.19557 0.0
C98 C 0.96458 0.73213 0.15493 0.0
C99 C 0.01193 0.72873 0.1899 0.0
C100 C 0.99026 0.71118 0.25268 0.0
H101 H 0.93186 0.80129 0.15022 0.0
H102 H 0.94943 0.77211 0.98378 0.0
H103 H 0.92917 0.7418 0.01334 0.0
H104 H 0.92444 0.73215 0.07573 0.0
H105 H 0.94141 0.72119 0.03199 0.0
H106 H 0.98245 0.75371 0.05746 0.0
H107 H 0.96983 0.74679 1.00014 0.0
H108 H 0.97605 0.72921 0.04612 0.0
H109 H 0.96887 0.81031 0.30616 0.0
H110 H 0.01253 0.77369 0.36627 0.0
H111 H 1.00527 0.7499 0.29836 0.0
H112 H 0.97945 0.8112 0.21054 0.0
H113 H 0.95577 0.81575 0.19154 0.0
H114 H 0.97098 0.8001 0.15459 0.0
H115 H 0.93655 0.77946 0.28125 0.0
H116 H 0.92754 0.78656 0.22117 0.0
H117 H 0.93721 0.80427 0.26417 0.0
H118 H 0.9326 0.82088 0.07381 0.0
C119 C 0.93615 0.79478 0.11491 0.0
C120 C 0.84053 0.99432 0.14135 0.0
C121 C 0.85288 0.9839 0.10766 0.0
C122 C 0.84917 0.96435 0.09978 0.0
C123 C 0.81972 0.96691 0.14598 0.0
C124 C 0.82407 0.98497 0.16212 0.0
C125 C 0.80918 0.99112 0.20246 0.0
H126 H 0.71975 0.96708 0.30509 0.0
C127 C 0.80101 0.96145 0.164 0.0
C128 C 0.79461 0.97443 0.20099 0.0
H129 H 0.7538 0.01491 0.35426 0.0
H130 H 0.77948 1.00543 0.29422 0.0
H131 H 0.71971 0.97211 0.20886 0.0
H132 H 0.75262 0.93512 0.2934 0.0
H133 H 0.74675 0.92336 0.23561 0.0
H134 H 0.72805 0.93387 0.2737 0.0
H135 H 0.71791 0.94793 0.19183 0.0
H136 H 0.73321 0.96416 0.1562 0.0
C137 C 0.80002 0.01003 0.18649 0.0
C138 C 0.81903 0.99255 0.25491 0.0
C139 C 0.75592 0.93875 0.03092 0.0
C140 C 0.73619 0.93554 0.03548 0.0
C141 C 0.72883 0.92831 0.0819 0.0
C142 C 0.74033 0.92806 0.12558 0.0
C143 C 0.75862 0.93609 0.12254 0.0
C144 C 0.76693 0.93921 0.07543 0.0
C145 C 0.78707 0.94633 0.08029 0.0
C146 C 0.78814 0.94932 0.13853 0.0
C147 C 0.77067 0.94511 0.16168 0.0
C148 C 0.7896 0.96527 0.05047 0.0
C149 C 0.80047 0.93074 0.05949 0.0
C150 C 0.73285 0.97538 0.30398 0.0
C151 C 0.73476 0.99154 0.33463 0.0
C152 C 0.752 1.00219 0.33121 0.0
C153 C 0.76681 0.99675 0.29652 0.0
C154 C 0.76424 0.98061 0.26487 0.0
C155 C 0.74727 0.97044 0.26939 0.0
C156 C 0.74535 0.95487 0.23094 0.0
C157 C 0.76462 0.95603 0.20457 0.0
C158 C 0.776 0.97124 0.22368 0.0
C159 C 0.72829 0.95986 0.19501 0.0
C160 C 0.74293 0.93574 0.25971 0.0
H161 H 0.83069 0.94064 0.11546 0.0
H162 H 0.8436 1.00902 0.15087 0.0
H163 H 0.82622 0.97893 0.26434 0.0
H164 H 0.80875 0.99555 0.28595 0.0
H165 H 0.82999 1.00407 0.25464 0.0
H166 H 0.79363 1.00872 0.14768 0.0
H167 H 0.81087 0.02164 0.18561 0.0
H168 H 0.78858 0.01418 0.2135 0.0
H169 H 0.76198 0.94324 0.99468 0.0
H170 H 0.7138 0.92499 0.08608 0.0
H171 H 0.73418 0.92326 0.16099 0.0
H172 H 0.77938 0.97615 0.06455 0.0
H173 H 0.78729 0.96316 1.00878 0.0
H174 H 0.80424 0.9711 0.05448 0.0
H175 H 0.79409 0.92335 0.02583 0.0
H176 H 0.80337 0.91982 0.0892 0.0
H177 H 0.81408 0.93683 0.04512 0.0
H178 H 0.85866 0.95575 0.07662 0.0
C179 C 0.83285 0.95576 0.11983 0.0
C180 C 0.53095 0.7517 0.31973 0.0
C181 C 0.54167 0.73682 0.34377 0.0
C182 C 0.56152 0.73615 0.33515 0.0
C183 C 0.55859 0.75966 0.26913 0.0
C184 C 0.54033 0.76381 0.28344 0.0
C185 C 0.53402 0.78181 0.25421 0.0
H186 H 0.55472 0.83447 0.03253 0.0
C187 C 0.56318 0.76939 0.22185 0.0
C188 C 0.55019 0.78428 0.21395 0.0
H189 H 0.5196 0.8559 0.15538 0.0
H190 H 0.52513 0.82624 0.20408 0.0
H191 H 0.58862 0.81902 0.0979 0.0
H192 H 0.53864 0.79702 0.02845 0.0
H193 H 0.55105 0.77583 0.03967 0.0
H194 H 0.5611 0.79383 0.99786 0.0
H195 H 0.58449 0.81556 0.03057 0.0
H196 H 0.59498 0.79718 0.0693 0.0
C197 C 0.5336 0.79843 0.29265 0.0
C198 C 0.51454 0.77872 0.22863 0.0
C199 C 0.58328 0.7236 0.08528 0.0
C200 C 0.58358 0.72563 0.03199 0.0
C201 C 0.5855 0.74382 0.01029 0.0
C202 C 0.5846 0.76 0.04156 0.0
C203 C 0.58106 0.75775 0.0943 0.0
C204 C 0.58173 0.73984 0.11587 0.0
C205 C 0.57738 0.74002 0.17216 0.0
C206 C 0.57285 0.76116 0.17996 0.0
C207 C 0.57387 0.77099 0.13363 0.0
C208 C 0.59528 0.73324 0.20135 0.0
C209 C 0.55979 0.727 0.18247 0.0
C210 C 0.54849 0.83334 0.07043 0.0
C211 C 0.53724 0.84804 0.09016 0.0
C212 C 0.5286 0.845 0.13893 0.0
C213 C 0.53189 0.82793 0.16742 0.0
C214 C 0.54386 0.8137 0.14702 0.0
C215 C 0.55174 0.81684 0.09896 0.0
C216 C 0.5637 0.80077 0.08069 0.0
C217 C 0.56381 0.78826 0.12767 0.0
C218 C 0.55168 0.79516 0.16693 0.0
C219 C 0.58403 0.80845 0.06855 0.0
C220 C 0.55326 0.79135 0.0343 0.0
H221 H 0.58528 0.74732 0.29238 0.0
H222 H 0.51595 0.75349 0.32822 0.0
H223 H 0.51503 0.76626 0.20231 0.0
H224 H 0.51051 0.79147 0.20608 0.0
H225 H 0.5033 0.77608 0.25791 0.0
H226 H 0.54804 0.80103 0.30892 0.0
H227 H 0.52368 0.79513 0.32479 0.0
H228 H 0.52871 0.81173 0.27487 0.0
H229 H 0.5822 0.70955 0.10217 0.0
H230 H 0.58596 0.74556 0.96905 0.0
H231 H 0.58542 0.77359 0.02309 0.0
H232 H 0.60402 0.72333 0.17791 0.0
H233 H 0.59141 0.72499 0.23606 0.0
H234 H 0.60459 0.74546 0.21215 0.0
H235 H 0.54719 0.73203 0.16058 0.0
H236 H 0.55583 0.72648 0.22341 0.0
H237 H 0.56265 0.71203 0.17136 0.0
H238 H 0.57026 0.72583 0.35492 0.0
C239 C 0.57008 0.74781 0.29838 0.0
C240 C 0.33763 0.49793 0.09647 0.0
C241 C 0.3497 0.48761 0.13099 0.0
C242 C 0.34576 0.46818 0.1397 0.0
C243 C 0.31657 0.47072 0.09275 0.0
C244 C 0.32116 0.4886 0.07572 0.0
C245 C 0.30635 0.49461 0.03501 0.0
H246 H 0.2193 0.46647 0.9247 0.0
C247 C 0.29804 0.46517 0.07409 0.0
C248 C 0.29186 0.47782 0.03626 0.0
H249 H 0.25081 0.51673 0.88026 0.0
H250 H 0.27593 0.5088 0.94338 0.0
H251 H 0.25355 0.4366 0.94045 0.0
H252 H 0.21668 0.47136 0.01941 0.0
H253 H 0.22998 0.46527 0.07411 0.0
H254 H 0.21661 0.44741 0.03865 0.0
H255 H 0.22869 0.43417 0.95667 0.0
H256 H 0.24701 0.42468 0.99754 0.0
C257 C 0.31626 0.49612 0.98256 0.0
C258 C 0.29698 0.51344 0.0509 0.0
C259 C 0.25065 0.44316 0.20266 0.0
C260 C 0.23146 0.43794 0.19533 0.0
C261 C 0.22597 0.42923 0.14893 0.0
C262 C 0.23847 0.42931 0.10717 0.0
C263 C 0.25595 0.43881 0.11223 0.0
C264 C 0.26283 0.44331 0.16012 0.0
C265 C 0.28281 0.45109 0.15732 0.0
C266 C 0.28514 0.45295 0.099 0.0
C267 C 0.26838 0.44779 0.07392 0.0
C268 C 0.29625 0.43646 0.18217 0.0
C269 C 0.28409 0.47064 0.18469 0.0
C270 C 0.23177 0.47565 0.92676 0.0
C271 C 0.2331 0.49188 0.89597 0.0
C272 C 0.24934 0.50391 0.90294 0.0
C273 C 0.2639 0.49932 0.93923 0.0
C274 C 0.262 0.48281 0.96976 0.0
C275 C 0.24576 0.47168 0.96323 0.0
C276 C 0.24398 0.45606 1.0015 0.0
C277 C 0.26264 0.45829 0.03012 0.0
C278 C 0.27362 0.47401 0.01209 0.0
C279 C 0.24314 0.43679 0.9727 0.0
C280 C 0.22602 0.46009 0.0353 0.0
H281 H 0.32703 0.44457 0.12508 0.0
H282 H 0.3409 0.51254 0.08644 0.0
H283 H 0.29047 0.51211 0.08963 0.0
H284 H 0.2856 0.51747 0.02372 0.0
H285 H 0.30774 0.52514 0.05195 0.0
H286 H 0.32339 0.48249 0.97273 0.0
H287 H 0.32726 0.50759 0.98307 0.0
H288 H 0.30595 0.49929 0.95179 0.0
H289 H 0.2553 0.44923 0.2387 0.0
H290 H 0.21142 0.42436 0.14336 0.0
H291 H 0.23365 0.42347 0.0714 0.0
H292 H 0.28963 0.43007 0.21697 0.0
H293 H 0.30963 0.44322 0.19576 0.0
H294 H 0.29959 0.4247 0.15512 0.0
H295 H 0.27381 0.48086 0.16782 0.0
H296 H 0.29861 0.47688 0.1815 0.0
H297 H 0.28103 0.46925 0.22627 0.0
H298 H 0.3551 0.45967 0.16337 0.0
C299 C 0.32942 0.45964 0.11981 0.0
C300 C 0.08456 0.25365 0.2146 0.0
C301 C 0.08761 0.23389 0.21197 0.0
C302 C 0.09235 0.22568 0.16426 0.0
C303 C 0.08451 0.25509 0.12223 0.0
C304 C 0.08283 0.26397 0.16908 0.0
C305 C 0.0768 0.28436 0.16383 0.0
H306 H 0.0165 0.34317 0.08644 0.0
C307 C 0.07624 0.26758 0.08317 0.0
C308 C 0.07307 0.28523 0.10594 0.0
H309 H 0.06883 0.35609 0.16838 0.0
H310 H 0.08338 0.32771 0.13094 0.0
H311 H 0.04883 0.325 0.97762 0.0
H312 H 0.01366 0.29359 0.08687 0.0
H313 H 0.00986 0.28911 0.01991 0.0
H314 H 1.00296 0.31158 0.04713 0.0
H315 H 0.02375 0.33013 0.98277 0.0
H316 H 0.03163 0.30861 0.95231 0.0
C317 C 0.09342 0.29719 0.18224 0.0
C318 C 0.05839 0.28778 0.19538 0.0
C319 C 0.0495 0.23329 0.93038 0.0
C320 C 0.03487 0.23623 0.89516 0.0
C321 C 0.02414 0.25328 0.89964 0.0
C322 C 0.02859 0.2672 0.93797 0.0
C323 C 0.04363 0.26381 0.97269 0.0
C324 C 0.05336 0.24675 0.96837 0.0
C325 C 0.06731 0.24362 0.01027 0.0
C326 C 0.06608 0.2624 0.03832 0.0
C327 C 0.05212 0.2746 0.01719 0.0
C328 C 0.08736 0.24091 0.98621 0.0
C329 C 0.06006 0.22635 0.04286 0.0
C330 C 0.03082 0.33949 0.09804 0.0
C331 C 0.0411 0.35121 0.1337 0.0
C332 C 0.06028 0.34687 0.1441 0.0
C333 C 0.06843 0.33027 0.12509 0.0
C334 C 0.05712 0.31755 0.09755 0.0
C335 C 0.03974 0.32276 0.07842 0.0
C336 C 0.03378 0.30844 0.0364 0.0
C337 C 0.04946 0.2931 0.04047 0.0
C338 C 0.06189 0.29866 0.07993 0.0
C339 C 0.03449 0.31857 0.98421 0.0
C340 C 0.0139 0.30019 0.04817 0.0
H341 H 0.09459 0.22947 0.08397 0.0
H342 H 0.08192 0.26053 0.25105 0.0
H343 H 0.04677 0.27802 0.1827 0.0
H344 H 0.05332 0.30261 0.19137 0.0
H345 H 0.06091 0.28546 0.23689 0.0
H346 H 0.10162 0.29037 0.21363 0.0
H347 H 0.0882 0.31071 0.199 0.0
H348 H 0.10358 0.30026 0.15049 0.0
H349 H 0.0575 0.22013 0.9299 0.0
H350 H 0.01249 0.25587 0.87344 0.0
H351 H 0.02011 0.27988 0.94025 0.0
H352 H 0.08954 0.25076 0.95328 0.0
H353 H 0.0892 0.22612 0.97198 0.0
H354 H 0.09901 0.24431 0.01331 0.0
H355 H 0.04662 0.21991 0.02795 0.0
H356 H 0.05652 0.23052 0.08278 0.0
H357 H 0.07054 0.21457 0.04343 0.0
H358 H 0.09518 0.2106 0.16065 0.0
C359 C 0.09129 0.23642 0.11942 0.0
C360 C 0.27804 0.03164 0.91605 0.0
C361 C 0.29365 0.04184 0.89302 0.0
C362 C 0.29545 0.06151 0.90265 0.0
C363 C 0.27112 0.05935 0.96714 0.0
C364 C 0.2662 0.04128 0.95227 0.0
C365 C 0.24771 0.03537 0.98055 0.0
H366 H 0.18792 0.06141 0.18424 0.0
C367 C 0.26024 0.06473 0.0119 0.0
C368 C 0.24503 0.05191 0.01917 0.0
H369 H 0.17621 0.01497 0.08065 0.0
H370 H 0.20611 0.02217 0.03351 0.0
H371 H 0.22354 0.05143 0.2087 0.0
H372 H 0.20422 0.09289 0.10673 0.0
H373 H 0.22406 0.10264 0.13949 0.0
H374 H 0.20433 0.09295 0.17566 0.0
H375 H 0.22815 0.07555 0.22403 0.0
H376 H 0.24593 0.06107 0.19233 0.0
C377 C 0.25044 0.01622 1.00792 0.0
C378 C 0.23135 0.03458 0.94145 0.0
C379 C 0.29941 0.08887 0.15794 0.0
C380 C 0.29433 0.09276 0.20903 0.0
C381 C 0.27528 0.09743 0.22053 0.0
C382 C 0.26115 0.09563 0.18305 0.0
C383 C 0.26612 0.08841 0.13474 0.0
C384 C 0.28506 0.08677 0.12132 0.0
C385 C 0.28757 0.08023 0.06696 0.0
C386 C 0.26672 0.0763 0.05241 0.0
C387 C 0.2546 0.07974 0.0938 0.0
C388 C 0.29977 0.0619 0.06571 0.0
C389 C 0.29708 0.09657 0.0363 0.0
C390 C 0.19128 0.053 0.15057 0.0
C391 C 0.17926 0.03806 0.13555 0.0
C392 C 0.18502 0.02684 0.09289 0.0
C393 C 0.2022 0.03107 0.06535 0.0
C394 C 0.21388 0.04644 0.08119 0.0
C395 C 0.20824 0.05671 0.12401 0.0
C396 C 0.2227 0.07103 0.14082 0.0
C397 C 0.23722 0.06941 0.09812 0.0
C398 C 0.23243 0.05491 0.06242 0.0
C399 C 0.23054 0.06461 0.194 0.0
C400 C 0.21339 0.09098 0.14109 0.0
H401 H 0.28499 0.08553 0.94467 0.0
H402 H 0.2755 0.0168 0.90694 0.0
H403 H 0.23014 0.0484 0.921 0.0
H404 H 0.21748 0.03165 0.96004 0.0
H405 H 0.23398 0.02325 0.91252 0.0
H406 H 0.26278 0.01705 0.03455 0.0
H407 H 0.25314 1.00468 0.9797 0.0
H408 H 0.2376 0.01233 0.03053 0.0
H409 H 0.314 0.08562 0.14771 0.0
H410 H 0.27116 0.10119 0.25926 0.0
H411 H 0.24678 0.09896 0.19359 0.0
H412 H 0.29302 0.05048 0.08919 0.0
H413 H 0.31436 0.06463 0.08058 0.0
H414 H 0.30161 0.05642 0.02624 0.0
H415 H 0.3071 0.10499 0.06049 0.0
H416 H 0.28624 0.10655 0.02107 0.0
H417 H 0.306 0.09108 1.00451 0.0
H418 H 0.30639 0.06988 0.88351 0.0
C419 C 0.28393 0.07037 0.93897 0.0
C420 C 0.49409 0.28186 0.91015 0.0
C421 C 0.48327 0.29709 0.88783 0.0
C422 C 0.46381 0.29859 0.90135 0.0
C423 C 0.46751 0.27471 0.96582 0.0
C424 C 0.48531 0.27009 0.94847 0.0
C425 C 0.49164 0.25162 0.97581 0.0
H426 H 0.46913 0.19264 0.18489 0.0
C427 C 0.4628 0.26374 0.01085 0.0
C428 C 0.47568 0.24867 0.01641 0.0
H429 H 0.5135 0.18034 0.0755 0.0
H430 H 0.50498 0.20938 0.02659 0.0
H431 H 0.47896 0.2284 0.20594 0.0
H432 H 0.43644 0.20683 0.10958 0.0
H433 H 0.42662 0.22684 0.14071 0.0
H434 H 0.43694 0.20803 0.1784 0.0
H435 H 0.45494 0.23221 0.22382 0.0
H436 H 0.46857 0.25027 0.19006 0.0
C437 C 0.51123 0.25447 1.00099 0.0
C438 C 0.49181 0.23531 0.93643 0.0
C439 C 0.43957 0.30231 0.15905 0.0
C440 C 0.43618 0.29711 0.21023 0.0
C441 C 0.43184 0.27799 0.22183 0.0
C442 C 0.43347 0.26394 0.18412 0.0
C443 C 0.44025 0.26908 0.13543 0.0
C444 C 0.44155 0.28802 0.12214 0.0
C445 C 0.44745 0.29066 0.06728 0.0
C446 C 0.45158 0.26995 0.05231 0.0
C447 C 0.44869 0.25779 0.09375 0.0
C448 C 0.46557 0.30339 0.06453 0.0
C449 C 0.43055 0.29964 0.0382 0.0
C450 C 0.47703 0.19583 0.15015 0.0
C451 C 0.49199 0.18413 0.13462 0.0
C452 C 0.50177 0.18906 0.08862 0.0
C453 C 0.49687 0.2058 0.06034 0.0
C454 C 0.48202 0.21764 0.07811 0.0
C455 C 0.47259 0.21226 0.12265 0.0
C456 C 0.45833 0.22643 0.14032 0.0
C457 C 0.45919 0.24065 0.09701 0.0
C458 C 0.47321 0.23598 0.05977 0.0
C459 C 0.46538 0.2348 0.19253 0.0
C460 C 0.4385 0.21658 0.14282 0.0
H461 H 0.44076 0.28772 0.94667 0.0
H462 H 0.50865 0.27931 0.8982 0.0
H463 H 0.47762 0.23387 0.9178 0.0
H464 H 0.49516 0.22153 0.95447 0.0
H465 H 0.50262 0.23815 0.9061 0.0
H466 H 0.51084 0.26665 0.02823 0.0
H467 H 0.52233 0.25746 0.97153 0.0
H468 H 0.51546 0.24157 0.02249 0.0
H469 H 0.44247 0.31699 0.14892 0.0
H470 H 0.42847 0.27378 0.26076 0.0
H471 H 0.43041 0.24951 0.1948 0.0
H472 H 0.47739 0.29699 0.0869 0.0
H473 H 0.46276 0.31786 0.0798 0.0
H474 H 0.47055 0.30537 0.0246 0.0
H475 H 0.42215 0.3093 0.06326 0.0
H476 H 0.42063 0.28849 0.02353 0.0
H477 H 0.4355 0.3088 1.00621 0.0
H478 H 0.45474 0.3092 0.88393 0.0
C479 C 0.45584 0.28708 0.93908 0.0
C480 C 0.06847 0.03764 0.69304 0.0
C481 C 0.05896 0.05164 0.77426 0.0
C482 C 0.05542 0.03903 0.73322 0.0
C483 C 0.07554 0.06296 0.77411 0.0
C484 C 0.08518 0.04895 0.69296 0.0
C485 C 0.08859 0.06164 0.73358 0.0
N486 N 0.06469 0.02545 0.65374 0.0
C487 C 0.0774 0.02328 0.61444 0.0
C488 C 0.09797 0.04719 0.65197 0.0
C489 C 0.09411 0.03422 0.61272 0.0
Gd490 Gd 0.99303 0.02344 0.58022 0.0
Gd491 Gd 0.03638 1.00768 0.6612 0.0
N492 N 0.03917 0.02827 0.73178 0.0
C493 C 0.04577 0.05243 0.81448 0.0
C494 C 0.02675 0.02835 0.77209 0.0
C495 C 0.02969 0.04062 0.81356 0.0
H496 H 0.01489 0.01865 0.7735 0.0
H497 H 0.01969 0.04072 0.84516 0.0
H498 H 0.0143 0.01338 0.46739 0.0
H499 H 0.07504 0.01271 0.58513 0.0
H500 H 1.00772 0.9946 0.39042 0.0
H501 H 0.04813 0.0618 0.84687 0.0
H502 H 0.07842 0.07277 0.80527 0.0
H503 H 0.95327 0.02055 0.65225 0.0
H504 H 0.11097 0.05563 0.65056 0.0
H505 H 0.1041 0.03249 0.58138 0.0
H506 H 0.94592 0.96726 0.42136 0.0
H507 H 0.10134 0.07046 0.7341 0.0
H508 H 0.91433 0.98242 0.57874 0.0
H509 H 0.92258 1.00339 0.65176 0.0
N510 N 0.96324 1.00809 0.58318 0.0
C511 C 0.95883 0.99702 0.5421 0.0
C512 C 0.95034 0.01069 0.62176 0.0
C513 C 0.9281 0.98953 0.57958 0.0
C514 C 0.93272 1.00129 0.62094 0.0
C515 C 0.94109 0.98748 0.53916 0.0
H516 H 0.92314 0.96912 0.49272 0.0
N517 N 0.9891 1.00465 0.50655 0.0
C518 C 0.97199 0.99548 0.50237 0.0
C519 C 0.98049 0.98456 0.41765 0.0
C520 C 0.9674 0.98488 0.45813 0.0
C521 C 1.00164 1.00476 0.46652 0.0
C522 C 0.99771 0.99446 0.42197 0.0
O523 O 0.0327 0.03972 0.64591 0.0
O524 O 1.00048 0.04287 0.64635 0.0
O525 O 0.99565 0.04699 0.52719 0.0
O526 O 0.96812 0.04081 0.56436 0.0
O527 O 1.00679 1.00028 0.69487 0.0
O528 O 0.98752 0.02418 0.66557 0.0
O529 O 0.99587 0.99103 0.58843 0.0
O530 O 0.02788 0.98582 0.60095 0.0
O531 O 0.03803 0.98691 0.72224 0.0
O532 O 0.06265 0.9924 0.67436 0.0
O533 O 0.02302 0.0297 0.54801 0.0
O534 O 0.04116 1.00485 0.57601 0.0
C535 C 0.01748 0.05013 0.65438 0.0
C536 C 0.99124 0.01075 0.69908 0.0
C537 C 0.96929 0.06774 0.50617 0.0
C538 C 0.97358 0.09705 0.45824 0.0
C539 C 0.94198 0.0875 0.48662 0.0
C540 C 0.9496 0.07117 0.509 0.0
C541 C 0.95393 0.10054 0.46172 0.0
C542 C 0.98115 0.08059 0.48012 0.0
C543 C 0.97778 0.05161 0.53317 0.0
C544 C 0.94975 0.97536 0.45513 0.0
C545 C 0.93672 0.9765 0.49572 0.0
H546 H 0.97718 0.97729 0.38222 0.0
C547 C 0.01082 0.97971 0.58723 0.0
C548 C 0.03785 0.01838 0.54261 0.0
C549 C 0.05743 0.96067 0.70071 0.0
C550 C 0.04759 0.92823 0.72036 0.0
C551 C 0.07292 0.93393 0.65879 0.0
C552 C 0.07105 0.95355 0.66604 0.0
C553 C 0.06127 0.92126 0.68592 0.0
C554 C 0.04582 0.94787 0.72782 0.0
C555 C 0.05501 0.9813 0.70857 0.0
H556 H 0.92682 0.09018 0.48918 0.0
H557 H 0.94017 0.06142 0.52909 0.0
H558 H 0.94789 0.11328 0.44516 0.0
H559 H 0.99643 0.07823 0.47858 0.0
H560 H 0.08339 0.92853 0.63201 0.0
H561 H 0.08023 0.96308 0.64446 0.0
H562 H 0.06279 0.90609 0.67966 0.0
H563 H 0.03544 0.95317 0.75514 0.0
C564 C 0.51627 0.95289 0.57067 0.0
C565 C 0.49301 0.93697 0.62528 0.0
C566 C 0.50019 0.95368 0.60213 0.0
C567 C 0.50256 0.91965 0.61808 0.0
C568 C 0.52569 0.93544 0.56273 0.0
C569 C 0.5189 0.91891 0.58714 0.0
N570 N 0.52239 0.96905 0.54685 0.0
C571 C 0.53731 0.9686 0.51313 0.0
C572 C 0.54147 0.93506 0.52972 0.0
C573 C 0.54715 0.95167 0.50442 0.0
Gd574 Gd 0.52237 0.03538 0.65833 0.0
Gd575 Gd 0.50505 0.99657 0.56577 0.0
N576 N 0.49146 0.97074 0.60958 0.0
C577 C 0.47624 0.93812 0.65424 0.0
C578 C 0.47481 0.97179 0.6365 0.0
C579 C 0.46707 0.95557 0.65975 0.0
H580 H 0.4671 0.9849 0.63913 0.0
H581 H 0.45385 0.95648 0.68114 0.0
H582 H 0.55749 0.04688 0.57628 0.0
H583 H 0.54141 0.98115 0.49186 0.0
H584 H 0.57023 0.07559 0.53398 0.0
H585 H 0.46993 0.92553 0.67117 0.0
H586 H 0.49732 0.9067 0.6359 0.0
H587 H 0.4868 0.05038 0.73572 0.0
H588 H 0.54909 0.92193 0.52264 0.0
H589 H 0.55895 0.95141 0.47762 0.0
H590 H 0.52914 0.12565 0.59139 0.0
H591 H 0.526 0.9054 0.58162 0.0
H592 H 0.4794 0.10995 0.71057 0.0
H593 H 0.46996 0.08013 0.75438 0.0
N594 N 0.50494 0.06274 0.67911 0.0
C595 C 0.51087 0.07907 0.65594 0.0
C596 C 0.49057 0.06302 0.71454 0.0
C597 C 0.48666 0.0968 0.70137 0.0
C598 C 0.48116 0.07998 0.7259 0.0
C599 C 0.50184 0.09656 0.66641 0.0
H600 H 0.50163 0.1268 0.64998 0.0
N601 N 0.53453 0.06131 0.61219 0.0
C602 C 0.52632 0.07841 0.62246 0.0
C603 C 0.54911 0.0941 0.56709 0.0
C604 C 0.5332 0.09523 0.59931 0.0
C605 C 0.55033 0.0602 0.58179 0.0
C606 C 0.55772 0.07652 0.55824 0.0
O607 O 0.518 0.98584 0.64149 0.0
O608 O 0.51186 1.00919 0.7005 0.0
O609 O 0.55069 0.0336 0.69117 0.0
O610 O 0.52807 0.04938 0.73107 0.0
O611 O 0.48165 0.01457 0.6035 0.0
O612 O 0.49356 0.02338 0.68171 0.0
O613 O 0.50889 0.04577 0.58279 0.0
O614 O 0.51685 0.02258 0.52541 0.0
O615 O 0.47989 1.00378 0.52306 0.0
O616 O 0.49813 0.98091 0.49625 0.0
O617 O 0.5454 0.0159 0.6239 0.0
O618 O 0.53402 1.00838 0.54446 0.0
C619 C 0.51584 0.99139 0.68948 0.0
C620 C 0.47899 0.02015 0.65121 0.0
C621 C 0.55914 0.04896 0.77135 0.0
C622 C 0.58921 0.04356 0.81485 0.0
C623 C 0.56804 0.06863 0.84398 0.0
C624 C 0.55507 0.06383 0.80556 0.0
C625 C 0.58505 0.05857 0.84871 0.0
C626 C 0.57623 0.03891 0.77604 0.0
C627 C 0.54579 0.04405 0.73036 0.0
C628 C 0.52411 0.11261 0.60919 0.0
C629 C 0.50842 0.11326 0.64248 0.0
H630 H 0.55504 0.10679 0.5499 0.0
C631 C 0.51161 0.04015 0.53504 0.0
C632 C 0.5484 0.01077 0.57597 0.0
C633 C 0.46487 0.97877 0.48009 0.0
C634 C 0.43222 0.97906 0.44932 0.0
C635 C 0.44563 0.94997 0.48382 0.0
C636 C 0.46295 0.95943 0.49286 0.0
C637 C 0.43026 0.95973 0.46225 0.0
C638 C 0.44953 0.98841 0.45871 0.0
C639 C 0.48212 0.98991 0.49041 0.0
H640 H 0.56487 0.0801 0.87033 0.0
H641 H 0.54195 0.07181 0.80238 0.0
H642 H 0.59474 0.06226 0.87948 0.0
H643 H 0.57944 0.02744 0.74955 0.0
H644 H 0.44411 0.93506 0.49364 0.0
H645 H 0.47465 0.95174 0.51 0.0
H646 H 0.41699 0.95219 0.45522 0.0
H647 H 0.45102 1.00349 0.45031 0.0
C648 C 0.47014 0.49546 0.7237 0.0
C649 C 0.48163 0.49784 0.81103 0.0
C650 C 0.48255 0.50351 0.75926 0.0
C651 C 0.46853 0.48369 0.82602 0.0
C652 C 0.45671 0.48152 0.73883 0.0
C653 C 0.45627 0.47538 0.78995 0.0
N654 N 0.47053 0.50199 0.67477 0.0
C655 C 0.45693 0.49648 0.64025 0.0
C656 C 0.44356 0.47477 0.70261 0.0
C657 C 0.44351 0.48249 0.65329 0.0
Gd658 Gd 0.53514 0.50831 0.57159 0.0
Gd659 Gd 0.49303 0.52577 0.6567 0.0
N660 N 0.49433 0.51794 0.74418 0.0
C661 C 0.49324 0.50722 0.84673 0.0
C662 C 0.50446 0.52815 0.77966 0.0
C663 C 0.50453 0.5226 0.83105 0.0
H664 H 0.51227 0.54083 0.76887 0.0
H665 H 0.51294 0.53047 0.85874 0.0
H666 H 0.52093 0.51657 0.45301 0.0
H667 H 0.45671 0.50264 0.6024 0.0
H668 H 0.52822 0.5388 0.38181 0.0
H669 H 0.49302 0.5032 0.88681 0.0
H670 H 0.46724 0.47965 0.86586 0.0
H671 H 0.57353 0.51103 0.65125 0.0
H672 H 0.43303 0.46406 0.71278 0.0
H673 H 0.43307 0.47777 0.62546 0.0
H674 H 0.57932 0.57776 0.44741 0.0
H675 H 0.44601 0.46472 0.80239 0.0
H676 H 0.60654 0.55979 0.60839 0.0
H677 H 0.60036 0.53285 0.66725 0.0
N678 N 0.56268 0.52692 0.58811 0.0
C679 C 0.56675 0.5407 0.5531 0.0
C680 C 0.57522 0.52336 0.62697 0.0
C681 C 0.59428 0.55061 0.60214 0.0
C682 C 0.59081 0.53546 0.6355 0.0
C683 C 0.58254 0.55303 0.55937 0.0
H684 H 0.59856 0.57649 0.52612 0.0
N685 N 0.54137 0.52892 0.50315 0.0
C686 C 0.556 0.54147 0.50875 0.0
C687 C 0.55024 0.5537 0.42372 0.0
C688 C 0.56061 0.55449 0.46954 0.0
C689 C 0.53192 0.52729 0.45764 0.0
C690 C 0.53604 0.53981 0.41744 0.0
O691 O 0.49549 0.49361 0.63962 0.0
O692 O 0.52749 0.48848 0.63708 0.0
O693 O 0.53338 0.48569 0.51618 0.0
O694 O 0.56077 0.49304 0.54879 0.0
O695 O 0.52299 0.53348 0.68458 0.0
O696 O 0.54 0.50755 0.65843 0.0
O697 O 0.52034 0.53655 0.55483 0.0
O698 O 0.51506 0.54817 0.63428 0.0
O699 O 0.47428 0.54242 0.70489 0.0
O700 O 0.47288 0.54535 0.62251 0.0
O701 O 0.50574 0.50059 0.53917 0.0
O702 O 0.48554 0.52333 0.57249 0.0
C703 C 0.51022 0.4826 0.64899 0.0
C704 C 0.53694 0.52133 0.69174 0.0
C705 C 0.55573 0.46084 0.52273 0.0
C706 C 0.54734 0.42834 0.49752 0.0
C707 C 0.57839 0.43531 0.53504 0.0
C708 C 0.57369 0.45456 0.53886 0.0
C709 C 0.56546 0.4223 0.51379 0.0
C710 C 0.54249 0.44756 0.50382 0.0
C711 C 0.55132 0.48129 0.51965 0.0
C712 C 0.57568 0.56747 0.47682 0.0
C713 C 0.5866 0.56677 0.5217 0.0
H714 H 0.55337 0.56344 0.3926 0.0
C715 C 0.51922 0.5512 0.58593 0.0
C716 C 0.48991 0.51072 0.53702 0.0
C717 C 0.46777 0.57283 0.67164 0.0
C718 C 0.48064 0.60167 0.71012 0.0
C719 C 0.45447 0.60355 0.64971 0.0
C720 C 0.45463 0.58376 0.64419 0.0
C721 C 0.46729 0.61249 0.68296 0.0
C722 C 0.48107 0.58188 0.70372 0.0
C723 C 0.46743 0.55204 0.66663 0.0
H724 H 0.59233 0.43055 0.54709 0.0
H725 H 0.58424 0.46453 0.55333 0.0
H726 H 0.56992 0.40768 0.5089 0.0
H727 H 0.52845 0.45237 0.49273 0.0
H728 H 0.44428 0.61195 0.62855 0.0
H729 H 0.44445 0.57698 0.61873 0.0
H730 H 0.46686 0.62783 0.68731 0.0
H731 H 0.49141 0.57355 0.72478 0.0
C732 C 0.03576 0.47046 0.71948 0.0
C733 C 0.03871 0.48327 0.8054 0.0
C734 C 0.03015 0.48353 0.75653 0.0
C735 C 0.05339 0.47029 0.81562 0.0
C736 C 0.04989 0.45685 0.73033 0.0
C737 C 0.05891 0.45706 0.77826 0.0
N738 N 0.02726 0.47095 0.67278 0.0
C739 C 0.03095 0.4573 0.63687 0.0
C740 C 0.05445 0.44336 0.69269 0.0
C741 C 0.04478 0.44347 0.64596 0.0
Gd742 Gd 0.02231 0.53578 0.57747 0.0
Gd743 Gd 1.00361 0.49389 0.66157 0.0
N744 N 0.01562 0.49568 0.74585 0.0
C745 C 0.03178 0.49557 0.84323 0.0
C746 C 1.00768 0.50631 0.78419 0.0
C747 C 0.01596 0.50687 0.83284 0.0
H748 H 0.9946 0.51394 0.77828 0.0
H749 H 0.00984 0.51568 0.86264 0.0
H750 H 0.01742 0.52096 0.45726 0.0
H751 H 0.02326 0.45711 0.60122 0.0
H752 H 0.99852 0.52891 0.38039 0.0
H753 H 0.03798 0.49581 0.88121 0.0
H754 H 0.06022 0.47001 0.85282 0.0
H755 H 0.02137 0.57541 0.65115 0.0
H756 H 0.06521 0.43266 0.69959 0.0
H757 H 0.0479 0.43287 0.61702 0.0
H758 H 0.96232 0.58362 0.43221 0.0
H759 H 0.06997 0.44688 0.78709 0.0
H760 H 0.9777 0.61177 0.59446 0.0
H761 H 1.00237 0.60435 0.65908 0.0
N762 N 1.00614 0.56487 0.58652 0.0
C763 C 0.99402 0.56948 0.548 0.0
C764 C 0.00989 0.57771 0.62456 0.0
C765 C 0.98561 0.5986 0.59168 0.0
C766 C 0.99939 0.59446 0.62846 0.0
C767 C 0.98324 0.58636 0.54979 0.0
H768 H 0.96275 0.60378 0.50947 0.0
N769 N 1.00523 0.54273 0.50294 0.0
C770 C 0.99381 0.55823 0.50443 0.0
C771 C 0.98429 0.55249 0.4168 0.0
C772 C 0.98279 0.5634 0.46161 0.0
C773 C 1.00753 0.53262 0.45871 0.0
C774 C 0.99693 0.53718 0.41515 0.0
O775 O 0.03557 0.49701 0.64247 0.0
O776 O 0.03879 0.52878 0.64909 0.0
O777 O 0.05024 0.53134 0.54476 0.0
O778 O 0.03908 0.55999 0.55173 0.0
O779 O 0.99475 0.52337 0.69153 0.0
O780 O 0.01974 0.54183 0.6632 0.0
O781 O 0.99331 0.52279 0.5564 0.0
O782 O 0.98123 0.51505 0.63481 0.0
O783 O 0.98775 0.47672 0.71585 0.0
O784 O 0.98416 0.47182 0.6347 0.0
O785 O 0.02774 0.50634 0.54254 0.0
O786 O 1.0044 0.48673 0.57683 0.0
C787 C 0.04597 0.51185 0.65582 0.0
C788 C 1.0056 0.53877 0.69559 0.0
C789 C 0.06135 0.55401 0.4851 0.0
C790 C 0.08715 0.54833 0.42458 0.0
C791 C 0.06519 0.57454 0.41115 0.0
C792 C 0.05534 0.56961 0.45584 0.0
C793 C 0.08111 0.56409 0.39572 0.0
C794 C 0.07697 0.54332 0.46882 0.0
C795 C 0.05287 0.54936 0.53492 0.0
C796 C 0.9711 0.57954 0.46445 0.0
C797 C 0.9713 0.59099 0.50852 0.0
H798 H 0.97609 0.55602 0.38301 0.0
C799 C 0.97852 0.51995 0.58668 0.0
C800 C 0.0171 0.49071 0.54103 0.0
C801 C 0.95758 0.46653 0.68774 0.0
C802 C 0.92825 0.47947 0.72219 0.0
C803 C 0.92797 0.44866 0.6803 0.0
C804 C 0.94758 0.45029 0.67126 0.0
C805 C 0.91833 0.46312 0.70626 0.0
C806 C 0.94778 0.48131 0.71222 0.0
C807 C 0.97827 0.46764 0.68061 0.0
H808 H 0.06067 0.58669 0.38887 0.0
H809 H 0.0433 0.57814 0.46777 0.0
H810 H 0.08882 0.56855 0.36175 0.0
H811 H 0.08128 0.53108 0.49119 0.0
H812 H 0.9203 0.43608 0.66773 0.0
H813 H 0.95497 0.43883 0.65191 0.0
H814 H 0.90319 0.4616 0.71376 0.0
H815 H 0.95538 0.49399 0.72477 0.0
H816 H 0.15293 0.06428 0.16646 0.0
H817 H 0.12766 0.06072 0.23025 0.0
H818 H 0.14005 1.00085 0.24264 0.0
H819 H 0.16546 1.00438 0.17779 0.0
H820 H 0.10178 1.00664 0.25138 0.0
H821 H 0.15748 0.03476 0.32981 0.0
H822 H 0.18333 0.0586 0.33717 0.0
H823 H 0.14199 0.10309 0.35372 0.0
H824 H 0.11588 0.07954 0.34546 0.0
H825 H 0.06127 0.99156 0.49962 0.0
H826 H 0.08314 0.99495 0.42683 0.0
H827 H 0.06684 0.05369 0.41037 0.0
H828 H 0.0446 0.05026 0.48297 0.0
H829 H 0.10644 0.04905 0.40324 0.0
H830 H 0.05143 0.02377 0.32248 0.0
H831 H 0.02406 1.00207 0.31025 0.0
H832 H 0.06212 0.95464 0.2963 0.0
H833 H 0.08979 0.97616 0.30809 0.0
C834 C 0.15013 0.05024 0.18206 0.0
C835 C 0.16142 0.03463 0.16684 0.0
C836 C 0.13568 0.04824 0.21906 0.0
C837 C 0.13208 0.03061 0.24284 0.0
C838 C 0.14252 0.0147 0.22551 0.0
C839 C 0.15702 0.01668 0.18805 0.0
C840 C 0.1181 0.0291 0.28697 0.0
C841 C 0.10307 0.01573 0.28484 0.0
C842 C 0.11908 0.04133 0.33043 0.0
C843 C 0.13475 0.05542 0.3366 0.0
C844 C 0.15391 0.04964 0.33477 0.0
C845 C 0.16861 0.0631 0.33907 0.0
C846 C 0.16431 0.08235 0.34581 0.0
C847 C 0.1453 0.08817 0.34844 0.0
C848 C 0.13055 0.07478 0.34395 0.0
C849 C 0.06228 1.00523 0.48057 0.0
C850 C 0.0511 0.02063 0.4975 0.0
C851 C 0.0748 1.00714 0.43865 0.0
C852 C 0.07674 0.02457 0.41253 0.0
C853 C 0.06572 0.04007 0.4296 0.0
C854 C 0.0529 0.03807 0.4711 0.0
C855 C 0.09031 0.02649 0.36774 0.0
C856 C 0.10524 0.03992 0.36981 0.0
C857 C 0.08909 0.01453 0.32399 0.0
C858 C 0.07263 1.00151 0.31675 0.0
C859 C 0.05395 1.00869 0.31718 0.0
C860 C 0.03839 0.99643 0.31025 0.0
C861 C 0.04133 0.97695 0.30302 0.0
C862 C 0.05987 0.96972 0.30213 0.0
C863 C 0.0755 0.98195 0.30872 0.0
H864 H 0.02924 0.96746 0.29787 0.0
H865 H 0.1757 0.09275 0.3491 0.0
H866 H 0.49676 0.14544 0.11355 0.0
H867 H 0.50083 0.11941 0.17604 0.0
H868 H 0.50165 0.16056 0.29893 0.0
H869 H 0.49843 0.1862 0.23716 0.0
H870 H 0.52641 0.1366 0.32041 0.0
H871 H 0.46146 0.12932 0.26368 0.0
H872 H 0.43519 0.12351 0.2028 0.0
H873 H 0.4588 0.06902 0.16438 0.0
H874 H 0.48538 0.07465 0.22445 0.0
H875 H 0.50279 0.07857 0.53812 0.0
H876 H 0.50176 0.10134 0.46727 0.0
H877 H 0.51392 0.05622 0.36037 0.0
H878 H 0.51611 0.03354 0.43147 0.0
H879 H 0.48405 0.07987 0.32657 0.0
H880 H 0.54819 0.08699 0.38405 0.0
H881 H 0.5758 0.09357 0.43985 0.0
H882 H 0.55322 0.14869 0.47631 0.0
H883 H 0.52537 0.14235 0.4211 0.0
C884 C 0.49826 0.14889 0.1538 0.0
C885 C 0.49737 0.16803 0.17 0.0
C886 C 0.50025 0.13394 0.18983 0.0
C887 C 0.50127 0.13773 0.24305 0.0
C888 C 0.50092 0.15692 0.25862 0.0
C889 C 0.49907 0.17171 0.22296 0.0
C890 C 0.50306 0.1222 0.28314 0.0
C891 C 0.51685 0.12439 0.32185 0.0
C892 C 0.4912 0.10568 0.28504 0.0
C893 C 0.47554 0.10254 0.24795 0.0
C894 C 0.46117 0.11621 0.24176 0.0
C895 C 0.4462 0.11293 0.2075 0.0
C896 C 0.44537 0.09594 0.17958 0.0
C897 C 0.4595 0.0822 0.18588 0.0
C898 C 0.47452 0.08544 0.21999 0.0
C899 C 0.50571 0.07348 0.49984 0.0
C900 C 0.51005 0.05414 0.49132 0.0
C901 C 0.50493 0.08658 0.459 0.0
C902 C 0.50789 0.08069 0.40798 0.0
C903 C 0.51164 0.06128 0.39911 0.0
C904 C 0.51291 0.04828 0.44009 0.0
C905 C 0.507 0.09473 0.3642 0.0
C906 C 0.49347 0.09217 0.32494 0.0
C907 C 0.51897 0.11104 0.36184 0.0
C908 C 0.53467 0.11414 0.39876 0.0
C909 C 0.54897 0.10039 0.4046 0.0
C910 C 0.56475 0.10415 0.43572 0.0
C911 C 0.5664 0.12165 0.46098 0.0
C912 C 0.55203 0.13523 0.45624 0.0
C913 C 0.53624 0.13155 0.42512 0.0
H914 H 0.57867 0.12456 0.4849 0.0
H915 H 0.43373 0.0934 0.15319 0.0
H916 H 0.3485 0.51277 0.21123 0.0
H917 H 0.37317 0.51764 0.2765 0.0
H918 H 0.41234 0.48395 0.18721 0.0
H919 H 0.38744 0.47867 0.12297 0.0
H920 H 0.41524 0.47257 0.27929 0.0
H921 H 0.41676 0.53522 0.20787 0.0
H922 H 0.40334 0.56566 0.1783 0.0
H923 H 0.38224 0.57702 0.32988 0.0
H924 H 0.39533 0.54651 0.36016 0.0
H925 H 0.49479 0.49055 0.44631 0.0
H926 H 0.47305 0.48841 0.37312 0.0
H927 H 0.43217 0.52299 0.45396 0.0
H928 H 0.45418 0.52604 0.52555 0.0
H929 H 0.43135 0.53399 0.36287 0.0
H930 H 0.42924 0.47016 0.43297 0.0
H931 H 0.44335 0.43984 0.46127 0.0
H932 H 0.4665 0.43089 0.31072 0.0
H933 H 0.45265 0.46123 0.28168 0.0
C934 C 0.36264 0.50713 0.20443 0.0
C935 C 0.36611 0.49587 0.16077 0.0
C936 C 0.3768 0.50974 0.24221 0.0
C937 C 0.39498 0.50132 0.23733 0.0
C938 C 0.39862 0.49068 0.19259 0.0
C939 C 0.38444 0.48796 0.15513 0.0
C940 C 0.40979 0.50274 0.27959 0.0
C941 C 0.41889 0.4861 0.29692 0.0
C942 C 0.41462 0.52018 0.30407 0.0
C943 C 0.40687 0.53854 0.28613 0.0
C944 C 0.40915 0.54417 0.23479 0.0
C945 C 0.40162 0.56143 0.21792 0.0
C946 C 0.3919 0.57325 0.25216 0.0
C947 C 0.38975 0.56785 0.30339 0.0
C948 C 0.39723 0.55058 0.32044 0.0
C949 C 0.48117 0.49768 0.44862 0.0
C950 C 0.47639 0.50841 0.49248 0.0
C951 C 0.46856 0.49632 0.4066 0.0
C952 C 0.45053 0.50522 0.40754 0.0
C953 C 0.44583 0.51591 0.45144 0.0
C954 C 0.45852 0.51756 0.4929 0.0
C955 C 0.43663 0.50381 0.36311 0.0
C956 C 0.4277 0.52045 0.34529 0.0
C957 C 0.43202 0.48637 0.33812 0.0
C958 C 0.44004 0.468 0.35531 0.0
C959 C 0.43739 0.46174 0.40599 0.0
C960 C 0.44534 0.44455 0.42214 0.0
C961 C 0.45584 0.43345 0.38782 0.0
C962 C 0.45836 0.43949 0.33725 0.0
C963 C 0.45045 0.45666 0.3209 0.0
H964 H 0.46198 0.42014 0.40039 0.0
H965 H 0.38608 0.58661 0.23902 0.0
H966 H 0.04885 0.38925 0.12332 0.0
H967 H 0.04339 0.41427 0.18718 0.0
H968 H 0.0122 0.37412 0.28085 0.0
H969 H 0.01695 0.34943 0.21562 0.0
H970 H 0.99645 0.40612 0.29336 0.0
H971 H 0.06328 0.38857 0.29503 0.0
H972 H 0.09572 0.38488 0.25955 0.0
H973 H 0.09818 0.4447 0.22574 0.0
H974 H 0.06565 0.44868 0.26019 0.0
H975 H 1.00081 0.45515 0.52977 0.0
H976 H 1.00414 0.43266 0.45959 0.0
H977 H 0.03968 0.47295 0.37818 0.0
H978 H 0.03818 0.49466 0.45137 0.0
H979 H 0.05287 0.44203 0.356 0.0
H980 H 0.98694 0.46043 0.35266 0.0
H981 H 0.95462 0.46521 0.38794 0.0
H982 H 0.95017 0.40549 0.4219 0.0
H983 H 0.98254 0.40041 0.38744 0.0
C984 C 0.04012 0.38602 0.15654 0.0
C985 C 0.03283 0.36745 0.16348 0.0
C986 C 0.03739 0.40025 0.19389 0.0
C987 C 0.02783 0.39619 0.24026 0.0
C988 C 0.0197 0.37786 0.24591 0.0
C989 C 0.02218 0.36371 0.20814 0.0
C990 C 0.02659 0.41067 0.28326 0.0
C991 C 0.00889 0.41379 0.30724 0.0
C992 C 0.04255 0.42139 0.30115 0.0
C993 C 0.06196 0.41887 0.27966 0.0
C994 C 0.07068 0.40089 0.27959 0.0
C995 C 0.08909 0.39876 0.25972 0.0
C996 C 0.09899 0.41453 0.24031 0.0
C997 C 0.09049 0.43248 0.24067 0.0
C998 C 0.07207 0.43468 0.26033 0.0
C999 C 0.00949 0.45929 0.49721 0.0
C1000 C 0.01905 0.47704 0.49666 0.0
C1001 C 0.01112 0.44639 0.45618 0.0
C1002 C 0.02158 0.45107 0.41165 0.0
C1003 C 0.03132 0.46875 0.41128 0.0
C1004 C 0.03029 0.48138 0.45329 0.0
C1005 C 0.02269 0.43749 0.36633 0.0
C1006 C 0.04037 0.4345 0.34196 0.0
C1007 C 1.00667 0.42706 0.3476 0.0
C1008 C 0.98718 0.43008 0.36786 0.0
C1009 C 0.97908 0.44835 0.36786 0.0
C1010 C 0.96076 0.4511 0.38771 0.0
C1011 C 0.95036 0.43567 0.40723 0.0
C1012 C 0.95824 0.41743 0.40682 0.0
C1013 C 0.97656 0.41461 0.3871 0.0
H1014 H 0.93619 0.43784 0.4226 0.0
H1015 H 0.11326 0.41286 0.22511 0.0
H1016 H 0.85234 0.01204 0.03448 0.0
H1017 H 0.87693 0.0183 0.9692 0.0
H1018 H 0.91454 0.97885 0.04426 0.0
H1019 H 0.89021 0.97301 0.10986 0.0
H1020 H 0.9358 1.0056 1.00529 0.0
H1021 H 0.88677 0.96596 0.93876 0.0
H1022 H 0.85389 0.95615 0.91748 0.0
H1023 H 0.84836 1.00461 0.81845 0.0
H1024 H 0.88113 0.01489 0.83988 0.0
H1025 H 0.99104 0.9831 0.77523 0.0
H1026 H 0.96911 0.98016 0.84875 0.0
H1027 H 0.93973 0.03066 0.80018 0.0
H1028 H 0.96208 0.03437 0.7291 0.0
H1029 H 0.91481 0.99749 0.82511 0.0
H1030 H 0.96531 0.03666 0.89815 0.0
H1031 H 0.99886 0.04373 0.91955 0.0
H1032 H 1.0024 0.99135 1.00372 0.0
H1033 H 0.96878 0.98404 0.98302 0.0
C1034 C 0.86615 1.00534 0.03826 0.0
C1035 C 0.86934 0.99225 0.07807 0.0
C1036 C 0.88014 1.00862 1.00022 0.0
C1037 C 0.89766 0.99876 1.00062 0.0
C1038 C 0.90129 0.98668 0.04242 0.0
C1039 C 0.88736 0.98344 0.08034 0.0
C1040 C 0.91164 1.00006 0.9564 0.0
C1041 C 0.9311 1.00365 0.96605 0.0
C1042 C 0.90593 0.99745 0.90461 0.0
C1043 C 0.88629 0.99132 0.89138 0.0
C1044 C 0.87848 0.97461 0.91276 0.0
C1045 C 0.85988 0.96895 0.90064 0.0
C1046 C 0.84902 0.97978 0.86675 0.0
C1047 C 0.85677 0.99626 0.84479 0.0
C1048 C 0.87536 1.00201 0.85691 0.0
C1049 C 0.97994 0.99361 0.78016 0.0
C1050 C 0.97815 1.00867 0.74482 0.0
C1051 C 0.96736 0.9919 0.82233 0.0
C1052 C 0.95249 1.00505 0.82992 0.0
C1053 C 0.95081 0.02014 0.79504 0.0
C1054 C 0.96362 0.02213 0.75385 0.0
C1055 C 0.93874 1.00331 0.87419 0.0
C1056 C 0.91937 0.99951 0.86444 0.0
C1057 C 0.94459 1.00531 0.92583 0.0
C1058 C 0.96465 0.00974 0.93871 0.0
C1059 C 0.97329 0.02661 0.92098 0.0
C1060 C 0.9923 0.03067 0.93301 0.0
C1061 C 1.00281 0.01793 0.96263 0.0
C1062 C 0.99426 1.00118 0.98067 0.0
C1063 C 0.97521 0.9971 0.96898 0.0
H1064 H 0.01755 0.02108 0.97177 0.0
H1065 H 0.83462 0.97538 0.85739 0.0
H1066 H 0.56444 0.86639 0.03192 0.0
H1067 H 0.56031 0.89138 0.96891 0.0
H1068 H 0.5012 0.89653 0.01267 0.0
H1069 H 0.50502 0.8703 0.07412 0.0
H1070 H 0.50217 0.89785 0.9156 0.0
H1071 H 0.53985 0.93182 0.03927 0.0
H1072 H 0.56707 0.9383 0.09657 0.0
H1073 H 0.60543 0.93689 0.96806 0.0
H1074 H 0.57848 0.93013 0.91011 0.0
H1075 H 0.50707 0.99629 0.79166 0.0
H1076 H 0.51017 0.97351 0.86223 0.0
H1077 H 0.53145 0.93138 0.75701 0.0
H1078 H 0.52849 0.95409 0.68608 0.0
H1079 H 0.54834 0.95068 0.88757 0.0
H1080 H 0.50918 0.90346 0.77694 0.0
H1081 H 0.48094 0.89704 0.72315 0.0
H1082 H 0.44547 0.92664 0.8312 0.0
H1083 H 0.47358 0.93299 0.88582 0.0
C1084 C 0.55047 0.87276 0.02846 0.0
C1085 C 0.53499 0.86591 0.05822 0.0
C1086 C 0.54819 0.88742 0.9925 0.0
C1087 C 0.53047 0.89634 0.98564 0.0
C1088 C 0.5151 0.89007 0.01667 0.0
C1089 C 0.51732 0.87512 0.05248 0.0
C1090 C 0.52782 0.91123 0.94417 0.0
C1091 C 0.51232 0.90942 0.91026 0.0
C1092 C 0.54093 0.92652 0.93555 0.0
C1093 C 0.55716 0.93031 0.97046 0.0
C1094 C 0.55411 0.93273 0.02332 0.0
C1095 C 0.56949 0.93648 0.05589 0.0
C1096 C 0.58797 0.93797 0.03599 0.0
C1097 C 0.59111 0.93571 0.98345 0.0
C1098 C 0.57579 0.93193 0.95073 0.0
C1099 C 0.51239 0.98218 0.78323 0.0
C1100 C 0.51744 0.97716 0.73257 0.0
C1101 C 0.51414 0.96911 0.82388 0.0
C1102 C 0.5209 0.95057 0.81529 0.0
C1103 C 0.52594 0.94546 0.76486 0.0
C1104 C 0.52422 0.95853 0.72412 0.0
C1105 C 0.5231 0.93681 0.85918 0.0
C1106 C 0.53837 0.939 0.89347 0.0
C1107 C 0.50994 0.92186 0.86831 0.0
C1108 C 0.49337 0.91889 0.83478 0.0
C1109 C 0.49536 0.90872 0.78883 0.0
C1110 C 0.47939 0.905 0.75844 0.0
C1111 C 0.46143 0.91152 0.7736 0.0
C1112 C 0.4594 0.92168 0.81937 0.0
C1113 C 0.47532 0.92531 0.85009 0.0
H1114 H 0.44908 0.90867 0.7499 0.0
H1115 H 0.59985 0.9409 0.06127 0.0
H1116 H 0.65906 0.56865 0.04711 0.0
H1117 H 0.63542 0.56455 0.98059 0.0
H1118 H 0.62584 0.50658 0.02903 0.0
H1119 H 0.65122 0.51007 0.09314 0.0
H1120 H 0.62494 0.50579 0.93319 0.0
H1121 H 0.59295 0.54881 0.04757 0.0
H1122 H 0.58921 0.57787 0.09978 0.0
H1123 H 0.59589 0.6125 0.96534 0.0
H1124 H 0.60002 0.58367 0.91244 0.0
H1125 H 0.54704 0.49357 0.75998 0.0
H1126 H 0.5672 0.49641 0.83602 0.0
H1127 H 0.57704 0.55583 0.80159 0.0
H1128 H 0.55521 0.55324 0.72858 0.0
H1129 H 0.57663 0.55486 0.89422 0.0
H1130 H 0.61117 0.51231 0.78085 0.0
H1131 H 0.61496 0.48339 0.72801 0.0
H1132 H 0.60349 0.44834 0.85947 0.0
H1133 H 0.59943 0.47705 0.9129 0.0
C1134 C 0.65212 0.55488 0.04387 0.0
C1135 C 0.65758 0.53962 0.07596 0.0
C1136 C 0.63811 0.55266 1.00583 0.0
C1137 C 0.62819 0.53532 0.99934 0.0
C1138 C 0.63305 0.5202 0.03254 0.0
C1139 C 0.6475 0.52229 0.07007 0.0
C1140 C 0.61354 0.53282 0.95671 0.0
C1141 C 0.61422 0.51647 0.92544 0.0
C1142 C 0.59961 0.54677 0.94451 0.0
C1143 C 0.59697 0.56409 0.97619 0.0
C1144 C 0.59374 0.56263 0.02921 0.0
C1145 C 0.59155 0.57905 0.0589 0.0
C1146 C 0.59241 0.597 0.03591 0.0
C1147 C 0.5953 0.59858 0.98311 0.0
C1148 C 0.59756 0.58221 0.95326 0.0
C1149 C 0.55351 0.50724 0.76879 0.0
C1150 C 0.54958 0.52314 0.7379 0.0
C1151 C 0.56536 0.50886 0.81222 0.0
C1152 C 0.57458 0.52622 0.82476 0.0
C1153 C 0.57042 0.54216 0.7937 0.0
C1154 C 0.55793 0.5407 0.75151 0.0
C1155 C 0.58824 0.52798 0.87005 0.0
C1156 C 0.58736 0.54418 0.90189 0.0
C1157 C 0.60207 0.51397 0.88257 0.0
C1158 C 0.60487 0.49678 0.85068 0.0
C1159 C 0.60943 0.49842 0.79838 0.0
C1160 C 0.6116 0.48207 0.76835 0.0
C1161 C 0.60944 0.46404 0.79035 0.0
C1162 C 0.60515 0.46231 0.84247 0.0
C1163 C 0.60294 0.4786 0.87264 0.0
H1164 H 0.6111 0.4514 0.76702 0.0
H1165 H 0.59089 0.60966 0.0591 0.0
H1166 H 0.9655 0.64343 0.09742 0.0
H1167 H 0.97021 0.61904 0.03257 0.0
H1168 H 0.02079 0.64841 0.97966 0.0
H1169 H 0.01514 0.67377 0.0429 0.0
H1170 H 1.00264 0.63942 0.90108 0.0
H1171 H 0.01755 0.60057 0.04676 0.0
H1172 H 0.0126 0.58548 0.13107 0.0
H1173 H 0.96166 0.55809 0.07581 0.0
H1174 H 0.9661 0.57329 0.9915 0.0
H1175 H 0.03209 0.56403 0.73387 0.0
H1176 H 0.02901 0.58652 0.80481 0.0
H1177 H 0.97156 0.56701 0.83182 0.0
H1178 H 0.97443 0.5443 0.76007 0.0
H1179 H 0.99335 0.56987 0.92359 0.0
H1180 H 0.97522 0.6109 0.78665 0.0
H1181 H 0.97703 0.62744 0.70345 0.0
H1182 H 0.03233 0.64978 0.74253 0.0
H1183 H 0.03064 0.63363 0.82645 0.0
C1184 C 0.978 0.64445 0.07305 0.0
C1185 C 0.99004 0.66063 0.07615 0.0
C1186 C 0.98076 0.63031 0.03563 0.0
C1187 C 0.99606 0.63137 1.00065 0.0
C1188 C 0.00882 0.64697 1.00571 0.0
C1189 C 1.00583 0.6614 0.04276 0.0
C1190 C 0.99776 0.61723 0.95662 0.0
C1191 C 1.00107 0.62419 0.90677 0.0
C1192 C 0.99485 0.59721 0.96219 0.0
C1193 C 0.99207 0.58822 0.013 0.0
C1194 C 1.0052 0.59147 0.05275 0.0
C1195 C 1.00249 0.58288 0.10053 0.0
C1196 C 0.9868 0.57088 0.10885 0.0
C1197 C 0.97379 0.56742 0.06938 0.0
C1198 C 0.97639 0.57602 0.0216 0.0
C1199 C 0.01865 0.56451 0.75441 0.0
C1200 C 1.00345 0.55227 0.74041 0.0
C1201 C 0.01695 0.57745 0.79536 0.0
C1202 C 1.00006 0.57853 0.82436 0.0
C1203 C 0.98486 0.56627 0.81086 0.0
C1204 C 0.9865 0.55334 0.76951 0.0
C1205 C 0.99855 0.59218 0.86905 0.0
C1206 C 0.99519 0.58511 0.91862 0.0
C1207 C 1.0013 0.61208 0.86345 0.0
C1208 C 1.00291 0.62092 0.81233 0.0
C1209 C 0.98782 0.61922 0.77725 0.0
C1210 C 0.98873 0.62869 0.73027 0.0
C1211 C 1.00481 0.63963 0.71765 0.0
C1212 C 0.01992 0.64127 0.75227 0.0
C1213 C 0.01894 0.63206 0.79967 0.0
H1214 H 1.00555 0.64681 0.68104 0.0
H1215 H 0.98476 0.56422 0.14585 0.0
H1216 H 0.10322 0.19979 0.24195 0.0
H1217 H 0.08708 0.17553 0.29384 0.0
H1218 H 0.04274 0.21543 0.33136 0.0
H1219 H 0.0579 0.23935 0.27788 0.0
H1220 H 0.06539 0.17789 0.40908 0.0
H1221 H 0.01386 0.19849 0.27099 0.0
H1222 H 0.01011 0.21006 0.18218 0.0
H1223 H 0.05079 0.16886 0.1296 0.0
H1224 H 0.05483 0.15723 0.21827 0.0
H1225 H 0.97724 0.13453 0.4815 0.0
H1226 H 1.00065 0.15714 0.44623 0.0
H1227 H 0.02271 0.11319 0.34719 0.0
H1228 H 0.9995 0.09043 0.38289 0.0
H1229 H 0.01394 0.15065 0.29979 0.0
H1230 H 0.05152 0.1217 0.43344 0.0
H1231 H 0.05656 0.10984 0.52131 0.0
H1232 H 0.04465 0.16546 0.58159 0.0
H1233 H 0.03991 0.17771 0.49408 0.0
C1234 C 0.09029 0.20357 0.26223 0.0
C1235 C 0.08178 0.22147 0.25513 0.0
C1236 C 0.08123 0.18976 0.29218 0.0
C1237 C 0.06383 0.19387 0.31598 0.0
C1238 C 0.0563 0.21221 0.31336 0.0
C1239 C 0.06514 0.22591 0.28297 0.0
C1240 C 0.05176 0.17838 0.33527 0.0
C1241 C 0.05416 0.17188 0.38539 0.0
C1242 C 0.03737 0.1705 0.3039 0.0
C1243 C 0.03459 0.17702 0.25077 0.0
C1244 C 0.02191 0.19189 0.2403 0.0
C1245 C 0.01979 0.19849 0.19013 0.0
C1246 C 0.03021 0.1902 0.15026 0.0
C1247 C 0.04275 0.17528 0.1605 0.0
C1248 C 0.04497 0.1687 0.21066 0.0
C1249 C 0.98695 0.12983 0.45176 0.0
C1250 C 0.98657 0.11093 0.43432 0.0
C1251 C 1.00034 0.14262 0.43208 0.0
C1252 C 0.0133 0.13666 0.39447 0.0
C1253 C 0.01273 0.1179 0.37628 0.0
C1254 C 0.99954 0.10502 0.39652 0.0
C1255 C 0.02739 0.15017 0.37399 0.0
C1256 C 0.02529 0.15643 0.32351 0.0
C1257 C 0.04212 0.15767 0.40501 0.0
C1258 C 0.04534 0.15057 0.45748 0.0
C1259 C 0.05002 0.13138 0.46556 0.0
C1260 C 0.05291 0.12462 0.51523 0.0
C1261 C 0.05109 0.13692 0.55704 0.0
C1262 C 0.04634 0.15601 0.54924 0.0
C1263 C 0.04362 0.16289 0.4996 0.0
H1264 H 0.05339 0.13164 0.59541 0.0
H1265 H 0.02857 0.19534 0.11144 0.0
H1266 H 0.33273 0.10013 0.21352 0.0
H1267 H 0.35563 0.08236 0.26493 0.0
H1268 H 0.30937 0.05554 0.34748 0.0
H1269 H 0.28641 0.07278 0.2957 0.0
H1270 H 0.34247 0.06245 0.4078 0.0
H1271 H 0.32349 0.03421 0.24721 0.0
H1272 H 0.31831 0.03362 0.15381 0.0
H1273 H 0.37802 0.04412 0.12834 0.0
H1274 H 0.38348 0.04518 0.22168 0.0
H1275 H 0.39465 0.97921 0.47831 0.0
H1276 H 0.36951 1.00003 0.44536 0.0
H1277 H 0.4098 0.02515 0.33934 0.0
H1278 H 0.43446 1.00383 0.36983 0.0
H1279 H 0.3776 0.01815 0.29372 0.0
H1280 H 0.39685 0.04672 0.4544 0.0
H1281 H 0.40199 0.04783 0.54784 0.0
H1282 H 0.34236 0.03688 0.57346 0.0
H1283 H 0.33697 0.03529 0.4802 0.0
C1284 C 0.32746 0.09092 0.24375 0.0
C1285 C 0.30779 0.08769 0.25016 0.0
C1286 C 0.34053 0.08081 0.27301 0.0
C1287 C 0.33405 0.06747 0.3091 0.0
C1288 C 0.31454 0.06581 0.31967 0.0
C1289 C 0.30145 0.07581 0.29022 0.0
C1290 C 0.34728 0.05338 0.3301 0.0
C1291 C 0.3501 0.05264 0.38312 0.0
C1292 C 0.3571 0.04066 0.2975 0.0
C1293 C 0.35384 0.04004 0.24139 0.0
C1294 C 0.33547 0.03661 0.22169 0.0
C1295 C 0.3325 0.03616 0.16876 0.0
C1296 C 0.34781 0.0389 0.13515 0.0
C1297 C 0.36616 0.04206 0.15441 0.0
C1298 C 0.3692 0.0426 0.20731 0.0
C1299 C 0.39795 0.9889 0.44723 0.0
C1300 C 0.41646 0.98998 0.42668 0.0
C1301 C 0.38371 1.00095 0.42904 0.0
C1302 C 0.38795 0.0143 0.39059 0.0
C1303 C 0.40628 0.01499 0.3692 0.0
C1304 C 0.42037 1.00286 0.38681 0.0
C1305 C 0.37339 0.02754 0.37156 0.0
C1306 C 0.37009 0.02797 0.31868 0.0
C1307 C 0.36324 0.03996 0.40437 0.0
C1308 C 0.36656 0.04065 0.46038 0.0
C1309 C 0.38489 0.04433 0.47999 0.0
C1310 C 0.38784 0.04507 0.53292 0.0
C1311 C 0.37253 0.04237 0.56659 0.0
C1312 C 0.35423 0.03891 0.54739 0.0
C1313 C 0.35122 0.03807 0.49451 0.0
H1314 H 0.37485 0.04301 0.60755 0.0
H1315 H 0.34548 0.03853 0.09418 0.0
H1316 H 0.45807 0.28999 0.29318 0.0
H1317 H 0.47318 0.31334 0.34885 0.0
H1318 H 0.44221 0.35836 0.27412 0.0
H1319 H 0.42707 0.33491 0.21748 0.0
H1320 H 0.4797 0.36486 0.27406 0.0
H1321 H 0.43342 0.34562 0.40098 0.0
H1322 H 0.41572 0.32186 0.45224 0.0
H1323 H 0.46817 0.30242 0.51813 0.0
H1324 H 0.48622 0.32596 0.46699 0.0
H1325 H 0.52141 0.43659 0.4217 0.0
H1326 H 0.49857 0.41543 0.38204 0.0
H1327 H 0.52111 0.3682 0.46815 0.0
H1328 H 0.54234 0.38987 0.51384 0.0
H1329 H 0.4858 0.36375 0.46337 0.0
H1330 H 0.5327 0.3793 0.33516 0.0
H1331 H 0.55233 0.40048 0.28082 0.0
H1332 H 0.50167 0.42374 0.21382 0.0
H1333 H 0.48175 0.40279 0.26803 0.0
C1334 C 0.45383 0.30476 0.28995 0.0
C1335 C 0.44124 0.31064 0.25133 0.0
C1336 C 0.46257 0.31811 0.32169 0.0
C1337 C 0.45866 0.33753 0.31588 0.0
C1338 C 0.44532 0.34338 0.27922 0.0
C1339 C 0.43664 0.33002 0.24713 0.0
C1340 C 0.47007 0.35177 0.34414 0.0
C1341 C 0.48076 0.36493 0.31555 0.0
C1342 C 0.47202 0.3512 0.39798 0.0
C1343 C 0.46115 0.33749 0.42999 0.0
C1344 C 0.44118 0.33625 0.42635 0.0
C1345 C 0.43109 0.32283 0.45541 0.0
C1346 C 0.44082 0.31066 0.48847 0.0
C1347 C 0.46066 0.31191 0.49265 0.0
C1348 C 0.47082 0.32531 0.46372 0.0
C1349 C 0.52124 0.42185 0.43379 0.0
C1350 C 0.53379 0.41507 0.4717 0.0
C1351 C 0.50837 0.40963 0.4099 0.0
C1352 C 0.50844 0.39012 0.42101 0.0
C1353 C 0.52087 0.38322 0.45869 0.0
C1354 C 0.53325 0.3956 0.48424 0.0
C1355 C 0.49556 0.37691 0.39331 0.0
C1356 C 0.48465 0.36389 0.42192 0.0
C1357 C 0.49374 0.37728 0.33925 0.0
C1358 C 0.50574 0.38967 0.30613 0.0
C1359 C 0.52576 0.38902 0.30905 0.0
C1360 C 0.53694 0.40096 0.27822 0.0
C1361 C 0.52826 0.4135 0.24402 0.0
C1362 C 0.50838 0.41406 0.2404 0.0
C1363 C 0.49714 0.40214 0.27113 0.0
H1364 H 0.53693 0.42275 0.22022 0.0
H1365 H 0.43299 0.30025 0.51084 0.0
H1366 H 0.22872 0.43719 0.30032 0.0
H1367 H 0.2066 0.45604 0.35327 0.0
H1368 H 0.18079 0.4785 0.21634 0.0
H1369 H 0.2024 0.45973 0.16376 0.0
H1370 H 0.19234 0.50646 0.29429 0.0
H1371 H 0.15604 0.4477 0.26764 0.0
H1372 H 0.15273 0.41273 0.27118 0.0
H1373 H 0.16261 0.41396 0.43356 0.0
H1374 H 0.16613 0.44898 0.43075 0.0
H1375 H 0.09862 0.53902 0.32756 0.0
H1376 H 0.12611 0.5199 0.30281 0.0
H1377 H 0.14057 0.51184 0.46169 0.0
H1378 H 0.1139 0.53197 0.48716 0.0
H1379 H 0.13848 0.47691 0.39019 0.0
H1380 H 0.1682 0.53761 0.41671 0.0
H1381 H 0.16995 0.57258 0.40938 0.0
H1382 H 0.17219 0.56795 0.24536 0.0
H1383 H 0.17009 0.53292 0.25173 0.0
C1384 C 0.21802 0.44586 0.28186 0.0
C1385 C 0.21684 0.44663 0.22821 0.0
C1386 C 0.20561 0.45669 0.31189 0.0
C1387 C 0.19228 0.46862 0.28832 0.0
C1388 C 0.19108 0.46936 0.23491 0.0
C1389 C 0.20318 0.45838 0.20507 0.0
C1390 C 0.1791 0.48019 0.31872 0.0
C1391 C 0.18065 0.50006 0.31566 0.0
C1392 C 0.16411 0.47172 0.34692 0.0
C1393 C 0.16154 0.45083 0.34893 0.0
C1394 C 0.1576 0.44047 0.30402 0.0
C1395 C 0.15567 0.42066 0.30589 0.0
C1396 C 0.15753 0.41111 0.35255 0.0
C1397 C 0.16121 0.42137 0.39745 0.0
C1398 C 0.16315 0.44119 0.39576 0.0
C1399 C 0.1078 0.53351 0.3573 0.0
C1400 C 0.104 0.53704 0.4093 0.0
C1401 C 0.12333 0.52242 0.34311 0.0
C1402 C 0.1351 0.51451 0.38066 0.0
C1403 C 0.13139 0.51778 0.4325 0.0
C1404 C 0.1161 0.5292 0.44677 0.0
C1405 C 0.15156 0.50315 0.36501 0.0
C1406 C 0.15054 0.48334 0.37045 0.0
C1407 C 0.16703 0.51169 0.33889 0.0
C1408 C 0.16888 0.53267 0.3347 0.0
C1409 C 0.16895 0.54406 0.37907 0.0
C1410 C 0.17001 0.56389 0.37509 0.0
C1411 C 0.17115 0.57248 0.32693 0.0
C1412 C 0.17131 0.56126 0.28264 0.0
C1413 C 0.17021 0.54142 0.28641 0.0
H1414 H 0.17194 0.58784 0.32392 0.0
H1415 H 0.15608 0.39577 0.35392 0.0
H1416 H 0.97588 0.79615 0.97481 0.0
H1417 H 0.99023 0.82004 0.91907 0.0
H1418 H 0.93871 0.85319 0.92591 0.0
H1419 H 0.92407 0.82919 0.98264 0.0
H1420 H 0.96259 0.84592 0.81963 0.0
H1421 H 0.96367 0.8709 0.99358 0.0
H1422 H 0.96899 0.86803 0.08658 0.0
H1423 H 0.02758 0.85352 0.05943 0.0
H1424 H 0.02246 0.85586 0.96614 0.0
H1425 H 0.00902 0.9299 0.72912 0.0
H1426 H 0.98825 0.90879 0.7793 0.0
H1427 H 0.03727 0.87643 0.82675 0.0
H1428 H 0.05815 0.89756 0.7767 0.0
H1429 H 0.01175 0.88551 0.90701 0.0
H1430 H 0.01232 0.85883 0.73903 0.0
H1431 H 0.00959 0.8604 0.64527 0.0
H1432 H 0.95046 0.87534 0.65901 0.0
H1433 H 0.95307 0.87458 0.75333 0.0
C1434 C 0.96731 0.80818 0.96315 0.0
C1435 C 0.94877 0.81078 0.98249 0.0
C1436 C 0.9756 0.82184 0.93171 0.0
C1437 C 0.96546 0.83822 0.91895 0.0
C1438 C 0.9466 0.84048 0.93562 0.0
C1439 C 0.93831 0.82687 0.96782 0.0
C1440 C 0.97544 0.85351 0.89169 0.0
C1441 C 0.97299 0.85498 0.8387 0.0
C1442 C 0.98946 0.86462 0.91685 0.0
C1443 C 0.9926 0.86331 0.9729 0.0
C1444 C 0.97761 0.86685 1.00742 0.0
C1445 C 0.98061 0.86537 0.06019 0.0
C1446 C 0.9986 0.86053 0.07891 0.0
C1447 C 0.01364 0.85722 0.04488 0.0
C1448 C 0.0107 0.85861 0.99205 0.0
C1449 C 0.01532 0.91828 0.75036 0.0
C1450 C 0.03509 0.91516 0.74904 0.0
C1451 C 1.00349 0.9063 0.77884 0.0
C1452 C 0.01133 0.89116 0.80638 0.0
C1453 C 0.03108 0.88814 0.80564 0.0
C1454 C 0.0429 0.90001 0.77677 0.0
C1455 C 0.99882 0.87808 0.83485 0.0
C1456 C 1.001 0.87686 0.888 0.0
C1457 C 0.98477 0.86699 0.80972 0.0
C1458 C 0.98295 0.8669 0.75317 0.0
C1459 C 0.99877 0.86263 0.72208 0.0
C1460 C 0.99724 0.86335 0.66879 0.0
C1461 C 0.97985 0.86794 0.64604 0.0
C1462 C 0.96394 0.87181 0.67666 0.0
C1463 C 0.96544 0.87129 0.73007 0.0
H1464 H 0.9787 0.86847 0.60471 0.0
H1465 H 1.00089 0.85941 0.11979 0.0
H1466 H 0.74029 0.97067 0.99403 0.0
H1467 H 0.71665 0.98861 0.94675 0.0
H1468 H 0.67832 0.9403 0.95069 0.0
H1469 H 0.70225 0.92186 0.9976 0.0
H1470 H 0.68103 0.95949 0.85485 0.0
H1471 H 0.67236 0.97415 0.03481 0.0
H1472 H 0.68228 0.98531 0.1204 0.0
H1473 H 0.69813 0.03965 0.05734 0.0
H1474 H 0.68866 0.02868 0.97122 0.0
H1475 H 0.59242 1.0049 0.81222 0.0
H1476 H 0.62034 0.98614 0.83474 0.0
H1477 H 0.6532 0.03785 0.85475 0.0
H1478 H 0.62524 0.05671 0.83248 0.0
H1479 H 0.65458 0.0174 0.93686 0.0
H1480 H 0.66526 1.00557 0.76141 0.0
H1481 H 0.66094 0.99585 0.67137 0.0
H1482 H 0.64589 0.93923 0.71949 0.0
H1483 H 0.64982 0.94867 0.80993 0.0
C1484 C 0.72712 0.96355 0.9834 0.0
C1485 C 0.72319 0.9447 0.99884 0.0
C1486 C 0.71353 0.97397 0.95718 0.0
C1487 C 0.69577 0.96579 0.94626 0.0
C1488 C 0.69202 0.94676 0.95932 0.0
C1489 C 0.70564 0.93628 0.98584 0.0
C1490 C 0.68103 0.97732 0.92178 0.0
C1491 C 0.67492 0.97199 0.87291 0.0
C1492 C 0.67398 0.99409 0.94481 0.0
C1493 C 0.68001 1.0005 0.99649 0.0
C1494 C 0.67819 0.98839 0.03909 0.0
C1495 C 0.68369 0.9947 0.08773 0.0
C1496 C 0.69088 0.01316 0.09428 0.0
C1497 C 0.6926 0.02534 0.05221 0.0
C1498 C 0.68718 0.01908 1.00349 0.0
C1499 C 0.60573 0.01224 0.82016 0.0
C1500 C 0.60667 0.03224 0.82144 0.0
C1501 C 0.62169 1.00151 0.83277 0.0
C1502 C 0.6388 0.01064 0.84638 0.0
C1503 C 0.64006 0.03058 0.84456 0.0
C1504 C 0.6241 0.04131 0.83221 0.0
C1505 C 0.65436 0.9996 0.86944 0.0
C1506 C 0.66061 1.00494 0.9184 0.0
C1507 C 0.66187 0.98312 0.846 0.0
C1508 C 0.65761 0.97789 0.79236 0.0
C1509 C 0.66063 0.99116 0.75285 0.0
C1510 C 0.65836 0.98568 0.70179 0.0
C1511 C 0.65315 0.96697 0.68995 0.0
C1512 C 0.6499 0.95373 0.72893 0.0
C1513 C 0.65213 0.95914 0.78004 0.0
H1514 H 0.65179 0.96268 0.6506 0.0
H1515 H 0.69507 0.01804 0.132 0.0
H1516 H 0.54976 0.70815 0.04094 0.0
H1517 H 0.53664 0.68296 0.98743 0.0
H1518 H 0.58883 0.68191 0.89901 0.0
H1519 H 0.60167 0.7082 0.95157 0.0
H1520 H 0.55965 0.68091 0.83874 0.0
H1521 H 0.57617 0.64634 0.98867 0.0
H1522 H 0.57749 0.64077 0.0818 0.0
H1523 H 0.5165 0.63496 0.0871 0.0
H1524 H 0.5147 0.64137 0.99445 0.0
H1525 H 0.51936 0.59948 0.71178 0.0
H1526 H 0.54125 0.61627 0.76977 0.0
H1527 H 0.49319 0.64056 0.84946 0.0
H1528 H 0.47129 0.62425 0.79047 0.0
H1529 H 0.52571 0.62504 0.91293 0.0
H1530 H 0.50939 0.66706 0.77198 0.0
H1531 H 0.50656 0.6747 0.68017 0.0
H1532 H 0.56688 0.66667 0.66076 0.0
H1533 H 0.5699 0.65843 0.7521 0.0
C1534 C 0.55852 0.70234 0.01047 0.0
C1535 C 0.57682 0.70968 1.00062 0.0
C1536 C 0.55107 0.68789 0.98017 0.0
C1537 C 0.56202 0.6801 0.9404 0.0
C1538 C 0.58031 0.68754 0.93015 0.0
C1539 C 0.58764 0.70242 0.95997 0.0
C1540 C 0.55361 0.66509 0.90778 0.0
C1541 C 0.55273 0.66841 0.85491 0.0
C1542 C 0.54423 0.64897 0.92903 0.0
C1543 C 0.54532 0.64436 0.98449 0.0
C1544 C 0.56302 0.64395 0.00969 0.0
C1545 C 0.56385 0.6407 0.06245 0.0
C1546 C 0.54711 0.63739 0.09028 0.0
C1547 C 0.52947 0.63746 0.06546 0.0
C1548 C 0.52853 0.64096 0.01283 0.0
C1549 C 0.51355 0.60835 0.74175 0.0
C1550 C 0.49377 0.61092 0.74636 0.0
C1551 C 0.52599 0.61779 0.77489 0.0
C1552 C 0.5187 0.62952 0.81359 0.0
C1553 C 0.49894 0.63143 0.81977 0.0
C1554 C 0.48653 0.62234 0.78593 0.0
C1555 C 0.53161 0.64122 0.8448 0.0
C1556 C 0.53323 0.63725 0.89706 0.0
C1557 C 0.54163 0.65676 0.82327 0.0
C1558 C 0.53982 0.66182 0.76851 0.0
C1559 C 0.52199 0.66666 0.7479 0.0
C1560 C 0.52034 0.67111 0.69596 0.0
C1561 C 0.53648 0.67106 0.66448 0.0
C1562 C 0.55433 0.66659 0.68494 0.0
C1563 C 0.55602 0.66199 0.73679 0.0
H1564 H 0.53513 0.67461 0.62434 0.0
H1565 H 0.5478 0.63482 0.13111 0.0
H1566 H 0.81382 0.59567 0.95326 0.0
H1567 H 0.83902 0.58952 0.88949 0.0
H1568 H 0.85659 0.54022 0.97548 0.0
H1569 H 0.83149 0.54538 0.03634 0.0
H1570 H 0.88684 0.56254 0.94433 0.0
H1571 H 0.82782 0.53376 0.8839 0.0
H1572 H 0.79467 0.53354 0.85251 0.0
H1573 H 0.81096 0.5698 0.72717 0.0
H1574 H 0.84419 0.57048 0.75847 0.0
H1575 H 0.91488 0.47781 0.81954 0.0
H1576 H 0.89888 0.50341 0.86716 0.0
H1577 H 0.90441 0.54037 0.73597 0.0
H1578 H 0.91964 0.51465 0.68842 0.0
H1579 H 0.86721 0.53636 0.77585 0.0
H1580 H 0.93129 0.54818 0.83539 0.0
H1581 H 0.96191 0.53941 0.87518 0.0
H1582 H 0.93311 0.52573 0.01561 0.0
H1583 H 0.9022 0.53317 0.97612 0.0
C1584 C 0.82324 0.58369 0.95863 0.0
C1585 C 0.82097 0.57139 1.00076 0.0
C1586 C 0.8376 0.58028 0.9225 0.0
C1587 C 0.84978 0.5647 0.92876 0.0
C1588 C 0.84764 0.55264 0.97093 0.0
C1589 C 0.8333 0.55579 1.00609 0.0
C1590 C 0.86396 0.55936 0.8902 0.0
C1591 C 0.88277 0.55707 0.90698 0.0
C1592 C 0.85839 0.55235 0.84178 0.0
C1593 C 0.83833 0.55259 0.8242 0.0
C1594 C 0.82425 0.54197 0.8502 0.0
C1595 C 0.80547 0.54169 0.8323 0.0
C1596 C 0.80068 0.55176 0.78807 0.0
C1597 C 0.81467 0.56211 0.76162 0.0
C1598 C 0.83346 0.5625 0.77948 0.0
C1599 C 0.9126 0.49144 0.80118 0.0
C1600 C 0.91846 0.49451 0.75052 0.0
C1601 C 0.90375 0.50603 0.82835 0.0
C1602 C 0.90081 0.52377 0.80495 0.0
C1603 C 0.90674 0.52681 0.75447 0.0
C1604 C 0.91551 0.51222 0.72747 0.0
C1605 C 0.88981 0.53844 0.8315 0.0
C1606 C 0.8717 0.54259 0.812 0.0
C1607 C 0.89566 0.54601 0.87913 0.0
C1608 C 0.91435 0.54132 0.90265 0.0
C1609 C 0.93142 0.54312 0.87457 0.0
C1610 C 0.94885 0.5384 0.8971 0.0
C1611 C 0.94947 0.53229 0.94796 0.0
C1612 C 0.93263 0.53057 0.97627 0.0
C1613 C 0.91514 0.53494 0.95375 0.0
H1614 H 0.96301 0.52882 0.96538 0.0
H1615 H 0.78615 0.55146 0.77413 0.0
H1616 H 0.06087 0.21846 0.8339 0.0
H1617 H 0.05739 0.18831 0.78868 0.0
H1618 H 0.99728 0.18748 0.82451 0.0
H1619 H 1.00102 0.21753 0.87229 0.0
H1620 H 0.01089 0.15427 0.84467 0.0
H1621 H 0.01747 0.1934 0.69297 0.0
H1622 H 0.0327 0.2174 0.63697 0.0
H1623 H 0.08456 0.18513 0.63611 0.0
H1624 H 0.06964 0.16098 0.69222 0.0
H1625 H 0.98926 0.07255 0.69477 0.0
H1626 H 0.99177 0.10475 0.72964 0.0
H1627 H 0.05223 0.10517 0.69863 0.0
H1628 H 0.04965 0.07305 0.66206 0.0
H1629 H 0.03841 0.13869 0.67476 0.0
H1630 H 0.03346 0.1 0.82438 0.0
H1631 H 0.01996 0.0759 0.88329 0.0
H1632 H 0.96742 0.10677 0.89075 0.0
H1633 H 0.98056 0.13113 0.83217 0.0
C1634 C 0.04677 0.21213 0.83119 0.0
C1635 C 0.0312 0.22062 0.8567 0.0
C1636 C 0.04476 0.19478 0.80489 0.0
C1637 C 0.027 0.18538 0.80219 0.0
C1638 C 0.01119 0.19428 0.82564 0.0
C1639 C 0.01324 0.21168 0.85244 0.0
C1640 C 0.02534 0.16574 0.77859 0.0
C1641 C 0.01658 0.15105 0.80697 0.0
C1642 C 0.03347 0.16094 0.73034 0.0
C1643 C 0.04249 0.1755 0.69703 0.0
C1644 C 0.03216 0.19151 0.68107 0.0
C1645 C 0.04072 0.2051 0.64924 0.0
C1646 C 0.05961 0.20282 0.63311 0.0
C1647 C 0.06996 0.18692 0.64876 0.0
C1648 C 0.06144 0.17325 0.68045 0.0
C1649 C 1.00313 0.07944 0.69521 0.0
C1650 C 0.01928 0.06995 0.67584 0.0
C1651 C 1.00459 0.09792 0.71569 0.0
C1652 C 0.02226 0.10755 0.7179 0.0
C1653 C 0.03839 0.0982 0.69787 0.0
C1654 C 0.03693 0.07968 0.67722 0.0
C1655 C 0.02376 0.12733 0.74052 0.0
C1656 C 0.03258 0.14197 0.71218 0.0
C1657 C 0.01593 0.13204 0.78908 0.0
C1658 C 1.00791 0.11727 0.82351 0.0
C1659 C 0.01897 0.10156 0.83823 0.0
C1660 C 0.0114 0.08787 0.87157 0.0
C1661 C 0.99283 0.08972 0.89032 0.0
C1662 C 0.98179 0.10533 0.87604 0.0
C1663 C 0.98929 0.11911 0.84292 0.0
H1664 H 0.98701 0.07911 0.91613 0.0
H1665 H 0.06619 0.21335 0.60839 0.0
H1666 H 0.29849 0.04166 0.7885 0.0
H1667 H 0.3286 0.03663 0.74178 0.0
H1668 H 0.35586 0.02052 0.88288 0.0
H1669 H 0.32573 0.02521 0.92915 0.0
H1670 H 0.3755 0.0496 0.82908 0.0
H1671 H 0.34609 0.9882 0.78886 0.0
H1672 H 0.32062 0.96818 0.75157 0.0
H1673 H 0.33053 0.99343 0.60397 0.0
H1674 H 0.35587 0.01375 0.64066 0.0
H1675 H 0.46745 0.02213 0.752 0.0
H1676 H 0.43522 0.02457 0.78653 0.0
H1677 H 0.41235 0.02399 0.63326 0.0
H1678 H 0.44477 0.02113 0.59846 0.0
H1679 H 0.38903 1.00498 0.68634 0.0
H1680 H 0.41339 0.0661 0.71184 0.0
H1681 H 0.43518 0.09222 0.73637 0.0
H1682 H 0.43165 0.07498 0.89397 0.0
H1683 H 0.40982 0.04869 0.87031 0.0
C1684 C 0.31067 0.03613 0.80903 0.0
C1685 C 0.30942 0.03305 0.86231 0.0
C1686 C 0.32801 0.03351 0.78239 0.0
C1687 C 0.34471 0.0281 0.80851 0.0
C1688 C 0.3433 0.02456 0.86149 0.0
C1689 C 0.32593 0.02692 0.8879 0.0
C1690 C 0.36386 0.02731 0.78185 0.0
C1691 C 0.37853 0.03956 0.79852 0.0
C1692 C 0.36767 0.01521 0.73948 0.0
C1693 C 0.3527 1.00268 0.7176 0.0
C1694 C 0.34272 0.98959 0.74856 0.0
C1695 C 0.32833 0.97816 0.72752 0.0
C1696 C 0.32391 0.97957 0.67547 0.0
C1697 C 0.33392 0.99237 0.6443 0.0
C1698 C 0.3483 1.00384 0.6652 0.0
C1699 C 0.45565 0.02276 0.72538 0.0
C1700 C 0.45897 0.0218 0.67216 0.0
C1701 C 0.43704 0.0242 0.74534 0.0
C1702 C 0.42099 0.02492 0.7129 0.0
C1703 C 0.42425 0.02358 0.65963 0.0
C1704 C 0.44292 0.02202 0.63961 0.0
C1705 C 0.40102 0.0268 0.73492 0.0
C1706 C 0.38614 0.01492 0.71719 0.0
C1707 C 0.39667 0.03992 0.77472 0.0
C1708 C 0.41016 0.05531 0.78924 0.0
C1709 C 0.4174 0.06777 0.75167 0.0
C1710 C 0.42968 0.08266 0.76544 0.0
C1711 C 0.43484 0.08523 0.81668 0.0
C1712 C 0.42766 0.07295 0.85428 0.0
C1713 C 0.41529 0.05808 0.84074 0.0
H1714 H 0.4444 0.09674 0.82724 0.0
H1715 H 0.31275 0.97072 0.65926 0.0
H1716 H 0.46769 0.30951 0.79782 0.0
H1717 H 0.47337 0.33968 0.75509 0.0
H1718 H 0.52209 0.34999 0.85228 0.0
H1719 H 0.51524 0.3202 0.89842 0.0
H1720 H 0.50559 0.3806 0.84917 0.0
H1721 H 0.52154 0.34035 0.7088 0.0
H1722 H 0.51823 0.31493 0.64408 0.0
H1723 H 0.46821 0.34187 0.58403 0.0
H1724 H 0.47099 0.36726 0.64907 0.0
H1725 H 0.53635 0.46206 0.70353 0.0
H1726 H 0.53313 0.4301 0.7401 0.0
H1727 H 0.47553 0.42635 0.68356 0.0
H1728 H 0.47868 0.45853 0.64698 0.0
H1729 H 0.49748 0.39281 0.66347 0.0
H1730 H 0.47891 0.42799 0.81919 0.0
H1731 H 0.48272 0.45237 0.88663 0.0
H1732 H 0.54066 0.43522 0.91023 0.0
H1733 H 0.53685 0.40996 0.84494 0.0
C1734 C 0.47992 0.31795 0.80956 0.0
C1735 C 0.491 0.31218 0.8519 0.0
C1736 C 0.48329 0.33537 0.78452 0.0
C1737 C 0.49838 0.34752 0.79931 0.0
C1738 C 0.51027 0.34119 0.83958 0.0
C1739 C 0.5066 0.32385 0.86557 0.0
C1740 C 0.50072 0.36726 0.77581 0.0
C1741 C 0.50419 0.38294 0.80829 0.0
C1742 C 0.4984 0.3711 0.72249 0.0
C1743 C 0.49639 0.35561 0.68416 0.0
C1744 C 0.50971 0.34074 0.68216 0.0
C1745 C 0.50794 0.32636 0.64537 0.0
C1746 C 0.493 0.32677 0.61005 0.0
C1747 C 0.47976 0.34155 0.61149 0.0
C1748 C 0.48142 0.35594 0.64833 0.0
C1749 C 0.52292 0.45453 0.69895 0.0
C1750 C 0.50773 0.4631 0.67237 0.0
C1751 C 0.52107 0.43618 0.72023 0.0
C1752 C 0.50404 0.4256 0.71517 0.0
C1753 C 0.48884 0.43407 0.68835 0.0
C1754 C 0.4906 0.4526 0.66767 0.0
C1755 C 0.50238 0.40569 0.73696 0.0
C1756 C 0.49899 0.39013 0.70418 0.0
C1757 C 0.50506 0.40182 0.78965 0.0
C1758 C 0.50769 0.41735 0.82701 0.0
C1759 C 0.49249 0.42956 0.83855 0.0
C1760 C 0.49463 0.44348 0.8764 0.0
C1761 C 0.51202 0.44565 0.9019 0.0
C1762 C 0.52724 0.43363 0.89022 0.0
C1763 C 0.52505 0.41938 0.85321 0.0
H1764 H 0.51362 0.45651 0.93106 0.0
H1765 H 0.49174 0.31566 0.58149 0.0
H1766 H 0.21461 0.52602 0.87588 0.0
H1767 H 0.18458 0.53051 0.82912 0.0
H1768 H 0.1834 0.47076 0.79085 0.0
H1769 H 0.21372 0.4665 0.8346 0.0
H1770 H 0.16885 0.48802 0.7148 0.0
H1771 H 0.15663 0.49202 0.89575 0.0
H1772 H 0.16145 0.50483 0.98286 0.0
H1773 H 0.14519 0.56048 0.93129 0.0
H1774 H 0.14051 0.54801 0.8437 0.0
H1775 H 0.06933 0.48018 0.65687 0.0
H1776 H 0.10106 0.47698 0.69467 0.0
H1777 H 0.10065 0.53655 0.7353 0.0
H1778 H 0.0683 0.53928 0.70152 0.0
H1779 H 0.11636 0.51973 0.80887 0.0
H1780 H 0.12683 0.51444 0.62688 0.0
H1781 H 0.12198 0.50065 0.54093 0.0
H1782 H 0.14156 0.4464 0.59459 0.0
H1783 H 0.14608 0.45976 0.68125 0.0
C1784 C 0.20824 0.51395 0.85634 0.0
C1785 C 0.21671 0.49586 0.85983 0.0
C1786 C 0.19078 0.51644 0.83016 0.0
C1787 C 0.1811 0.50087 0.80725 0.0
C1788 C 0.19018 0.48308 0.80819 0.0
C1789 C 0.20763 0.48064 0.83373 0.0
C1790 C 0.16129 0.50273 0.7843 0.0
C1791 C 0.15738 0.49484 0.73572 0.0
C1792 C 0.14604 0.51174 0.81054 0.0
C1793 C 0.14838 0.51914 0.86325 0.0
C1794 C 0.15414 0.507 0.90304 0.0
C1795 C 0.15686 0.5142 0.95244 0.0
C1796 C 0.15367 0.53347 0.96258 0.0
C1797 C 0.14767 0.54556 0.92337 0.0
C1798 C 0.14497 0.53844 0.87386 0.0
C1799 C 0.07578 0.49248 0.67494 0.0
C1800 C 0.06587 0.50986 0.67691 0.0
C1801 C 0.09426 0.49077 0.69574 0.0
C1802 C 0.10381 0.5066 0.71751 0.0
C1803 C 0.09391 0.52401 0.71906 0.0
C1804 C 0.07531 0.5256 0.69925 0.0
C1805 C 0.12388 0.50517 0.73904 0.0
C1806 C 0.12782 0.51304 0.78761 0.0
C1807 C 0.13911 0.49602 0.7128 0.0
C1808 C 0.13665 0.48806 0.6606 0.0
C1809 C 0.13001 0.49955 0.62039 0.0
C1810 C 0.12732 0.49181 0.57154 0.0
C1811 C 0.13149 0.47268 0.56224 0.0
C1812 C 0.13834 0.46123 0.60182 0.0
C1813 C 0.14095 0.46886 0.65083 0.0
H1814 H 0.12943 0.46673 0.52435 0.0
H1815 H 0.15581 0.53902 1.00085 0.0
H1816 H 0.02493 0.80987 0.37811 0.0
H1817 H 0.02882 0.83944 0.42841 0.0
H1818 H 0.9678 0.84324 0.44498 0.0
H1819 H 0.96391 0.81372 0.39693 0.0
H1820 H 0.9825 0.87599 0.40683 0.0
H1821 H 0.99448 0.835 0.54621 0.0
H1822 H 0.00965 0.80983 0.59728 0.0
H1823 H 0.06303 0.84017 0.59169 0.0
H1824 H 0.04825 0.86537 0.5397 0.0
H1825 H 0.97793 0.96028 0.55899 0.0
H1826 H 0.97474 0.92796 0.52534 0.0
H1827 H 0.03564 0.92068 0.53593 0.0
H1828 H 0.03885 0.95293 0.57048 0.0
H1829 H 0.02069 0.88899 0.56269 0.0
H1830 H 0.00938 0.92596 0.40694 0.0
H1831 H 0.99396 0.94888 0.34897 0.0
H1832 H 0.93892 0.92556 0.3873 0.0
H1833 H 0.95415 0.9021 0.44427 0.0
C1834 C 0.0124 0.81666 0.39386 0.0
C1835 C 0.99409 0.80931 0.3827 0.0
C1836 C 0.01461 0.83372 0.42244 0.0
C1837 C 0.99859 0.8439 0.44032 0.0
C1838 C 0.98045 0.83596 0.43148 0.0
C1839 C 0.97825 0.81894 0.40379 0.0
C1840 C 1.00031 0.86346 0.46439 0.0
C1841 C 0.99073 0.87869 0.44129 0.0
C1842 C 0.01121 0.86738 0.50896 0.0
C1843 C 0.02034 0.8519 0.53826 0.0
C1844 C 0.00955 0.83612 0.55497 0.0
C1845 C 0.01805 0.8219 0.58435 0.0
C1846 C 0.03731 0.82335 0.59751 0.0
C1847 C 0.04812 0.83903 0.58131 0.0
C1848 C 0.03969 0.85329 0.55187 0.0
C1849 C 0.99071 0.95195 0.55375 0.0
C1850 C 1.00869 0.95962 0.56698 0.0
C1851 C 0.98888 0.9333 0.53407 0.0
C1852 C 1.00497 0.92162 0.52649 0.0
C1853 C 0.0229 0.92915 0.54076 0.0
C1854 C 0.02473 0.94778 0.56054 0.0
C1855 C 1.00318 0.90165 0.50435 0.0
C1856 C 0.01261 0.8863 0.52801 0.0
C1857 C 0.9921 0.89749 0.46023 0.0
C1858 C 0.98283 0.91251 0.43002 0.0
C1859 C 0.99398 0.92589 0.4033 0.0
C1860 C 0.9853 0.93881 0.37025 0.0
C1861 C 0.96547 0.93865 0.36438 0.0
C1862 C 0.95427 0.92561 0.39171 0.0
C1863 C 0.96292 0.91244 0.42412 0.0
H1864 H 0.95877 0.94871 0.33882 0.0
H1865 H 0.04386 0.81236 0.62044 0.0
H1866 H 0.70147 1.00561 0.29868 0.0
H1867 H 0.6711 1.00913 0.34404 0.0
H1868 H 0.698 0.99203 0.48489 0.0
H1869 H 0.72858 0.98832 0.43886 0.0
H1870 H 0.66319 0.97389 0.47191 0.0
H1871 H 0.68508 0.0389 0.4654 0.0
H1872 H 0.69809 0.06721 0.42133 0.0
H1873 H 0.6493 0.06819 0.3221 0.0
H1874 H 0.63612 0.03972 0.36521 0.0
H1875 H 0.58202 1.00347 0.6278 0.0
H1876 H 0.61441 1.00056 0.59172 0.0
H1877 H 0.59241 0.01234 0.44111 0.0
H1878 H 0.56017 0.01476 0.4765 0.0
H1879 H 0.62558 0.03339 0.46343 0.0
H1880 H 0.6022 0.96997 0.47283 0.0
H1881 H 0.58945 0.9407 0.51233 0.0
H1882 H 0.64081 0.93454 0.59953 0.0
H1883 H 0.65378 0.96409 0.5614 0.0
C1884 C 0.70106 1.00317 0.33966 0.0
C1885 C 0.71765 0.99736 0.36544 0.0
C1886 C 0.68359 1.00504 0.36564 0.0
C1887 C 0.68206 1.0011 0.41838 0.0
C1888 C 0.69867 0.9953 0.44439 0.0
C1889 C 0.71626 0.99348 0.41825 0.0
C1890 C 0.66307 1.00287 0.44554 0.0
C1891 C 0.65515 0.98703 0.47107 0.0
C1892 C 0.6521 0.01975 0.44318 0.0
C1893 C 0.65967 0.03718 0.41834 0.0
C1894 C 0.67716 0.04514 0.4341 0.0
C1895 C 0.68456 0.0612 0.40928 0.0
C1896 C 0.67454 0.06948 0.3689 0.0
C1897 C 0.65704 0.06176 0.3534 0.0
C1898 C 0.64958 0.04569 0.37806 0.0
C1899 C 0.58409 1.0054 0.58699 0.0
C1900 C 0.56835 1.00921 0.55515 0.0
C1901 C 0.60264 1.00369 0.56632 0.0
C1902 C 0.60601 1.00616 0.51343 0.0
C1903 C 0.59034 0.01034 0.48191 0.0
C1904 C 0.57182 0.01163 0.5023 0.0
C1905 C 0.62571 1.00447 0.49056 0.0
C1906 C 0.6337 0.02031 0.46529 0.0
C1907 C 0.6366 0.98748 0.4929 0.0
C1908 C 0.62872 0.9697 0.51569 0.0
C1909 C 0.61063 0.96269 0.50136 0.0
C1910 C 0.60338 0.94598 0.5233 0.0
C1911 C 0.61418 0.93595 0.55899 0.0
C1912 C 0.63235 0.94247 0.57235 0.0
C1913 C 0.63964 0.95923 0.5507 0.0
H1914 H 0.60855 0.923 0.57588 0.0
H1915 H 0.68031 0.08189 0.34965 0.0
H1916 H 0.54489 0.73051 0.44707 0.0
H1917 H 0.53946 0.70044 0.49271 0.0
H1918 H 0.51749 0.67525 0.35381 0.0
H1919 H 0.52205 0.70567 0.30923 0.0
H1920 H 0.49904 0.65995 0.42513 0.0
H1921 H 0.56616 0.67085 0.40568 0.0
H1922 H 0.59688 0.68778 0.41546 0.0
H1923 H 0.59223 0.68351 0.57919 0.0
H1924 H 0.56143 0.66672 0.5701 0.0
H1925 H 0.51369 0.56282 0.4868 0.0
H1926 H 0.51676 0.5947 0.45047 0.0
H1927 H 0.52973 0.61726 0.60022 0.0
H1928 H 0.5277 0.58483 0.63611 0.0
H1929 H 0.55237 0.63411 0.52778 0.0
H1930 H 0.48487 0.62248 0.54391 0.0
H1931 H 0.45545 0.60364 0.53083 0.0
H1932 H 0.46282 0.60741 0.36774 0.0
H1933 H 0.49246 0.62601 0.37984 0.0
C1934 C 0.53814 0.71878 0.42692 0.0
C1935 C 0.5333 0.72079 0.37483 0.0
C1936 C 0.53544 0.70133 0.45277 0.0
C1937 C 0.52849 0.68504 0.42688 0.0
C1938 C 0.52288 0.68734 0.37532 0.0
C1939 C 0.52527 0.7049 0.34975 0.0
C1940 C 0.52747 0.66562 0.45262 0.0
C1941 C 0.51088 0.65437 0.44702 0.0
C1942 C 0.54264 0.65795 0.48231 0.0
C1943 C 0.56127 0.6679 0.48738 0.0
C1944 C 0.5716 0.67369 0.44377 0.0
C1945 C 0.58906 0.68322 0.44914 0.0
C1946 C 0.59646 0.68683 0.49791 0.0
C1947 C 0.58646 0.68082 0.54141 0.0
C1948 C 0.56899 0.67132 0.53618 0.0
C1949 C 0.51747 0.57446 0.51205 0.0
C1950 C 0.5205 0.57111 0.56462 0.0
C1951 C 0.519 0.59287 0.49121 0.0
C1952 C 0.52323 0.60875 0.52235 0.0
C1953 C 0.52639 0.60544 0.57498 0.0
C1954 C 0.525 0.5869 0.59576 0.0
C1955 C 0.52405 0.62864 0.49987 0.0
C1956 C 0.54057 0.63988 0.50604 0.0
C1957 C 0.50899 0.63621 0.47003 0.0
C1958 C 0.4909 0.62554 0.46277 0.0
C1959 C 0.48023 0.61924 0.50527 0.0
C1960 C 0.46354 0.60859 0.49804 0.0
C1961 C 0.45728 0.60432 0.44851 0.0
C1962 C 0.46768 0.61073 0.40608 0.0
C1963 C 0.48442 0.62134 0.41309 0.0
H1964 H 0.44436 0.59605 0.44299 0.0
H1965 H 0.60998 0.6942 0.502 0.0
H1966 H 0.82355 0.55108 0.32904 0.0
H1967 H 0.85343 0.55083 0.37744 0.0
H1968 H 0.82722 0.51497 0.49165 0.0
H1969 H 0.79724 0.51473 0.442 0.0
H1970 H 0.85653 0.54874 0.52633 0.0
H1971 H 0.84989 0.49115 0.42489 0.0
H1972 H 0.84189 0.47451 0.34441 0.0
H1973 H 0.8857 0.50602 0.26548 0.0
H1974 H 0.89368 0.52311 0.34544 0.0
H1975 H 0.94451 0.51734 0.63794 0.0
H1976 H 0.91175 0.51996 0.60409 0.0
H1977 H 0.93466 0.52963 0.45311 0.0
H1978 H 0.96693 0.5256 0.48647 0.0
H1979 H 0.90559 0.50925 0.44037 0.0
H1980 H 0.91409 0.56571 0.53966 0.0
H1981 H 0.92123 0.58511 0.61612 0.0
H1982 H 0.87404 0.55932 0.69588 0.0
H1983 H 0.86698 0.53931 0.62043 0.0
C1984 C 0.82383 0.54378 0.36559 0.0
C1985 C 0.80766 0.53337 0.38214 0.0
C1986 C 0.84108 0.54349 0.39309 0.0
C1987 C 0.84281 0.53292 0.43854 0.0
C1988 C 0.82635 0.52344 0.45709 0.0
C1989 C 0.80907 0.52346 0.42893 0.0
C1990 C 0.86224 0.53022 0.4627 0.0
C1991 C 0.86716 0.53983 0.50811 0.0
C1992 C 0.87651 0.51917 0.43843 0.0
C1993 C 0.87225 0.50849 0.39089 0.0
C1994 C 0.85772 0.4946 0.39026 0.0
C1995 C 0.8532 0.48509 0.34478 0.0
C1996 C 0.86325 0.48923 0.29982 0.0
C1997 C 0.87791 0.50284 0.30033 0.0
C1998 C 0.88244 0.51243 0.34571 0.0
C1999 C 0.94244 0.52004 0.59765 0.0
C2000 C 0.9585 0.52172 0.56557 0.0
C2001 C 0.9237 0.52174 0.57823 0.0
C2002 C 0.92033 0.52556 0.52596 0.0
C2003 C 0.93645 0.5269 0.49363 0.0
C2004 C 0.95513 0.52486 0.513 0.0
C2005 C 0.90018 0.52771 0.50482 0.0
C2006 C 0.89508 0.51807 0.45939 0.0
C2007 C 0.88585 0.53895 0.52903 0.0
C2008 C 0.89014 0.55086 0.57457 0.0
C2009 C 0.90536 0.56402 0.57369 0.0
C2010 C 0.9094 0.57512 0.61687 0.0
C2011 C 0.89813 0.5734 0.66089 0.0
C2012 C 0.88278 0.5606 0.66179 0.0
C2013 C 0.8788 0.54933 0.6189 0.0
H2014 H 0.90127 0.58201 0.69429 0.0
H2015 H 0.85971 0.48188 0.2646 0.0
loop_
_geom_bond_atom_site_label_1
_geom_bond_atom_site_label_2
_geom_bond_distance
_geom_bond_site_symmetry_2
_ccdc_geom_bond_type
C0 C1 1.391 . S
C0 C4 1.391 . S
C0 H42 0.948 . S
C1 C0 1.391 . S
C1 C2 1.391 . S
C2 C1 1.391 . S
C2 H58 0.947 . S
C2 C59 1.392 . S
C3 C4 1.391 . S
C3 C7 1.397 . S
C3 C59 1.419 . S
C4 C0 1.391 . S
C4 C3 1.391 . S
C4 C5 1.399 . S
C5 C4 1.399 . S
C5 C8 1.396 . S
C5 C17 1.453 . S
C5 C18 1.684 . S
H6 C30 0.948 . S
C7 C3 1.397 . S
C7 C8 1.394 . S
C7 C26 1.723 . S
C8 C5 1.396 . S
C8 C7 1.394 . S
C8 C38 1.723 . S
H9 C32 0.947 . S
H10 C33 0.948 . S
H11 C39 0.982 . S
H12 C40 0.979 . S
H13 C40 0.980 . S
H14 C40 0.983 . S
H15 C39 0.979 . S
H16 C39 0.977 . S
C17 C5 1.453 . S
C17 H46 0.982 . S
C17 H47 0.979 . S
C17 H48 0.977 . S
C18 C5 1.684 . S
C18 H43 0.979 . S
C18 H44 0.980 . S
C18 H45 0.983 . S
C19 C20 1.391 . S
C19 C24 1.391 . S
C19 H49 0.948 . S
C20 C19 1.391 . S
C20 C21 1.391 . S
C21 C20 1.391 . S
C21 C22 1.392 . S
C21 H50 0.947 1_554 S
C22 C21 1.392 . S
C22 C23 1.419 . S
C22 H51 0.948 . S
C23 C22 1.419 . S
C23 C24 1.391 . S
C23 C27 1.397 . S
C24 C19 1.391 . S
C24 C23 1.391 . S
C24 C25 1.399 . S
C25 C24 1.399 . S
C25 C26 1.396 . S
C25 C28 1.453 . S
C25 C29 1.684 . S
C26 C7 1.723 . S
C26 C25 1.396 . S
C26 C27 1.394 . S
C27 C23 1.397 . S
C27 C26 1.394 . S
C27 C37 1.723 . S
C28 C25 1.453 . S
C28 H52 0.982 . S
C28 H53 0.979 . S
C28 H54 0.977 . S
C29 C25 1.684 . S
C29 H55 0.979 . S
C29 H56 0.980 . S
C29 H57 0.983 . S
C30 H6 0.948 . S
C30 C31 1.391 . S
C30 C35 1.391 . S
C31 C30 1.391 . S
C31 C32 1.391 . S
C32 H9 0.947 . S
C32 C31 1.391 . S
C32 C33 1.392 . S
C33 H10 0.948 . S
C33 C32 1.392 . S
C33 C34 1.419 . S
C34 C33 1.419 . S
C34 C35 1.391 . S
C34 C38 1.397 . S
C35 C30 1.391 . S
C35 C34 1.391 . S
C35 C36 1.399 . S
C36 C35 1.399 . S
C36 C37 1.396 . S
C36 C39 1.453 . S
C36 C40 1.684 . S
C37 C27 1.723 . S
C37 C36 1.396 . S
C37 C38 1.394 . S
C38 C8 1.723 . S
C38 C34 1.397 . S
C38 C37 1.394 . S
C39 H11 0.982 . S
C39 H15 0.979 . S
C39 H16 0.977 . S
C39 C36 1.453 . S
C40 H12 0.979 . S
C40 H13 0.980 . S
C40 H14 0.983 . S
C40 C36 1.684 . S
H41 C59 0.948 . S
H42 C0 0.948 . S
H43 C18 0.979 . S
H44 C18 0.980 . S
H45 C18 0.983 . S
H46 C17 0.982 . S
H47 C17 0.979 . S
H48 C17 0.977 . S
H49 C19 0.948 . S
H50 C21 0.947 1_556 S
H51 C22 0.948 . S
H52 C28 0.982 . S
H53 C28 0.979 . S
H54 C28 0.977 . S
H55 C29 0.979 . S
H56 C29 0.980 . S
H57 C29 0.983 . S
H58 C2 0.947 . S
C59 C2 1.392 . S
C59 C3 1.419 . S
C59 H41 0.948 . S
C60 C61 1.391 . S
C60 C64 1.391 . S
C60 H102 0.948 1_554 S
C61 C60 1.391 . S
C61 C62 1.391 . S
C62 C61 1.391 . S
C62 H118 0.947 . S
C62 C119 1.392 . S
C63 C64 1.391 . S
C63 C67 1.397 . S
C63 C119 1.419 . S
C64 C60 1.391 . S
C64 C63 1.391 . S
C64 C65 1.399 . S
C65 C64 1.399 . S
C65 C68 1.396 . S
C65 C77 1.453 . S
C65 C78 1.684 . S
H66 C90 0.948 . S
C67 C63 1.397 . S
C67 C68 1.394 . S
C67 C86 1.723 . S
C68 C65 1.396 . S
C68 C67 1.394 . S
C68 C98 1.723 . S
H69 C92 0.947 . S
H70 C93 0.948 . S
H71 C99 0.982 . S
H72 C100 0.979 . S
H73 C100 0.980 . S
H74 C100 0.983 . S
H75 C99 0.979 . S
H76 C99 0.977 . S
C77 C65 1.453 . S
C77 H106 0.982 . S
C77 H107 0.979 . S
C77 H108 0.977 . S
C78 C65 1.684 . S
C78 H103 0.979 . S
C78 H104 0.980 . S
C78 H105 0.983 1_554 S
C79 C80 1.391 . S
C79 C84 1.391 . S
C79 H109 0.948 . S
C80 C79 1.391 . S
C80 C81 1.391 . S
C81 C80 1.391 . S
C81 C82 1.392 . S
C81 H110 0.947 . S
C82 C81 1.392 . S
C82 C83 1.419 . S
C82 H111 0.948 . S
C83 C82 1.419 . S
C83 C84 1.391 . S
C83 C87 1.397 . S
C84 C79 1.391 . S
C84 C83 1.391 . S
C84 C85 1.399 . S
C85 C84 1.399 . S
C85 C86 1.396 . S
C85 C88 1.453 . S
C85 C89 1.684 . S
C86 C67 1.723 . S
C86 C85 1.396 . S
C86 C87 1.394 . S
C87 C83 1.397 . S
C87 C86 1.394 . S
C87 C97 1.723 . S
C88 C85 1.453 . S
C88 H112 0.982 . S
C88 H113 0.979 . S
C88 H114 0.977 . S
C89 C85 1.684 . S
C89 H115 0.979 . S
C89 H116 0.980 . S
C89 H117 0.983 . S
C90 H66 0.948 . S
C90 C91 1.391 . S
C90 C95 1.391 . S
C91 C90 1.391 . S
C91 C92 1.391 . S
C92 H69 0.947 . S
C92 C91 1.391 . S
C92 C93 1.392 . S
C93 H70 0.948 . S
C93 C92 1.392 . S
C93 C94 1.419 . S
C94 C93 1.419 . S
C94 C95 1.391 . S
C94 C98 1.397 . S
C95 C90 1.391 . S
C95 C94 1.391 . S
C95 C96 1.399 . S
C96 C95 1.399 . S
C96 C97 1.396 . S
C96 C99 1.453 . S
C96 C100 1.684 . S
C97 C87 1.723 . S
C97 C96 1.396 . S
C97 C98 1.394 . S
C98 C68 1.723 . S
C98 C94 1.397 . S
C98 C97 1.394 . S
C99 H71 0.982 . S
C99 H75 0.979 . S
C99 H76 0.977 . S
C99 C96 1.453 . S
C100 H72 0.979 . S
C100 H73 0.980 . S
C100 H74 0.983 . S
C100 C96 1.684 . S
H101 C119 0.948 . S
H102 C60 0.948 1_556 S
H103 C78 0.979 . S
H104 C78 0.980 . S
H105 C78 0.983 1_556 S
H106 C77 0.982 . S
H107 C77 0.979 . S
H108 C77 0.977 . S
H109 C79 0.948 . S
H110 C81 0.947 . S
H111 C82 0.948 . S
H112 C88 0.982 . S
H113 C88 0.979 . S
H114 C88 0.977 . S
H115 C89 0.979 . S
H116 C89 0.980 . S
H117 C89 0.983 . S
H118 C62 0.947 . S
C119 C62 1.392 . S
C119 C63 1.419 . S
C119 H101 0.948 . S
C120 C121 1.391 . S
C120 C124 1.391 . S
C120 H162 0.948 . S
C121 C120 1.391 . S
C121 C122 1.391 . S
C122 C121 1.391 . S
C122 H178 0.947 . S
C122 C179 1.392 . S
C123 C124 1.391 . S
C123 C127 1.397 . S
C123 C179 1.419 . S
C124 C120 1.391 . S
C124 C123 1.391 . S
C124 C125 1.399 . S
C125 C124 1.399 . S
C125 C128 1.396 . S
C125 C137 1.453 . S
C125 C138 1.684 . S
H126 C150 0.948 . S
C127 C123 1.397 . S
C127 C128 1.394 . S
C127 C146 1.723 . S
C128 C125 1.396 . S
C128 C127 1.394 . S
C128 C158 1.723 . S
H129 C152 0.947 . S
H130 C153 0.948 . S
H131 C159 0.982 . S
H132 C160 0.979 . S
H133 C160 0.980 . S
H134 C160 0.983 . S
H135 C159 0.979 . S
H136 C159 0.977 . S
C137 C125 1.453 . S
C137 H166 0.982 . S
C137 H167 0.979 . S
C137 H168 0.977 . S
C138 C125 1.684 . S
C138 H163 0.979 . S
C138 H164 0.980 . S
C138 H165 0.983 . S
C139 C140 1.391 . S
C139 C144 1.391 . S
C139 H169 0.948 1_554 S
C140 C139 1.391 . S
C140 C141 1.391 . S
C141 C140 1.391 . S
C141 C142 1.392 . S
C141 H170 0.947 . S
C142 C141 1.392 . S
C142 C143 1.419 . S
C142 H171 0.948 . S
C143 C142 1.419 . S
C143 C144 1.391 . S
C143 C147 1.397 . S
C144 C139 1.391 . S
C144 C143 1.391 . S
C144 C145 1.399 . S
C145 C144 1.399 . S
C145 C146 1.396 . S
C145 C148 1.453 . S
C145 C149 1.684 . S
C146 C127 1.723 . S
C146 C145 1.396 . S
C146 C147 1.394 . S
C147 C143 1.397 . S
C147 C146 1.394 . S
C147 C157 1.723 . S
C148 C145 1.453 . S
C148 H172 0.982 . S
C148 H173 0.979 . S
C148 H174 0.977 . S
C149 C145 1.684 . S
C149 H175 0.979 . S
C149 H176 0.980 . S
C149 H177 0.983 1_554 S
C150 H126 0.948 . S
C150 C151 1.391 . S
C150 C155 1.391 . S
C151 C150 1.391 . S
C151 C152 1.391 . S
C152 H129 0.947 . S
C152 C151 1.391 . S
C152 C153 1.392 . S
C153 H130 0.948 . S
C153 C152 1.392 . S
C153 C154 1.419 . S
C154 C153 1.419 . S
C154 C155 1.391 . S
C154 C158 1.397 . S
C155 C150 1.391 . S
C155 C154 1.391 . S
C155 C156 1.399 . S
C156 C155 1.399 . S
C156 C157 1.396 . S
C156 C159 1.453 . S
C156 C160 1.684 . S
C157 C147 1.723 . S
C157 C156 1.396 . S
C157 C158 1.394 . S
C158 C128 1.723 . S
C158 C154 1.397 . S
C158 C157 1.394 . S
C159 H131 0.982 . S
C159 H135 0.979 . S
C159 H136 0.977 . S
C159 C156 1.453 . S
C160 H132 0.979 . S
C160 H133 0.980 . S
C160 H134 0.983 . S
C160 C156 1.684 . S
H161 C179 0.948 . S
H162 C120 0.948 . S
H163 C138 0.979 . S
H164 C138 0.980 . S
H165 C138 0.983 . S
H166 C137 0.982 . S
H167 C137 0.979 . S
H168 C137 0.977 . S
H169 C139 0.948 1_556 S
H170 C141 0.947 . S
H171 C142 0.948 . S
H172 C148 0.982 . S
H173 C148 0.979 . S
H174 C148 0.977 . S
H175 C149 0.979 . S
H176 C149 0.980 . S
H177 C149 0.983 1_556 S
H178 C122 0.947 . S
C179 C122 1.392 . S
C179 C123 1.419 . S
C179 H161 0.948 . S
C180 C181 1.391 . S
C180 C184 1.391 . S
C180 H222 0.948 . S
C181 C180 1.391 . S
C181 C182 1.391 . S
C182 C181 1.391 . S
C182 H238 0.947 . S
C182 C239 1.392 . S
C183 C184 1.391 . S
C183 C187 1.397 . S
C183 C239 1.419 . S
C184 C180 1.391 . S
C184 C183 1.391 . S
C184 C185 1.399 . S
C185 C184 1.399 . S
C185 C188 1.396 . S
C185 C197 1.453 . S
C185 C198 1.684 . S
H186 C210 0.948 . S
C187 C183 1.397 . S
C187 C188 1.394 . S
C187 C206 1.723 . S
C188 C185 1.396 . S
C188 C187 1.394 . S
C188 C218 1.723 . S
H189 C212 0.947 . S
H190 C213 0.948 . S
H191 C219 0.982 . S
H192 C220 0.979 . S
H193 C220 0.980 . S
H194 C220 0.983 . S
H195 C219 0.979 . S
H196 C219 0.977 . S
C197 C185 1.453 . S
C197 H226 0.982 . S
C197 H227 0.979 . S
C197 H228 0.977 . S
C198 C185 1.684 . S
C198 H223 0.979 . S
C198 H224 0.980 . S
C198 H225 0.983 . S
C199 C200 1.391 . S
C199 C204 1.391 . S
C199 H229 0.948 . S
C200 C199 1.391 . S
C200 C201 1.391 . S
C201 C200 1.391 . S
C201 C202 1.392 . S
C201 H230 0.947 1_554 S
C202 C201 1.392 . S
C202 C203 1.419 . S
C202 H231 0.948 . S
C203 C202 1.419 . S
C203 C204 1.391 . S
C203 C207 1.397 . S
C204 C199 1.391 . S
C204 C203 1.391 . S
C204 C205 1.399 . S
C205 C204 1.399 . S
C205 C206 1.396 . S
C205 C208 1.453 . S
C205 C209 1.684 . S
C206 C187 1.723 . S
C206 C205 1.396 . S
C206 C207 1.394 . S
C207 C203 1.397 . S
C207 C206 1.394 . S
C207 C217 1.723 . S
C208 C205 1.453 . S
C208 H232 0.982 . S
C208 H233 0.979 . S
C208 H234 0.977 . S
C209 C205 1.684 . S
C209 H235 0.979 . S
C209 H236 0.980 . S
C209 H237 0.983 . S
C210 H186 0.948 . S
C210 C211 1.391 . S
C210 C215 1.391 . S
C211 C210 1.391 . S
C211 C212 1.391 . S
C212 H189 0.947 . S
C212 C211 1.391 . S
C212 C213 1.392 . S
C213 H190 0.948 . S
C213 C212 1.392 . S
C213 C214 1.419 . S
C214 C213 1.419 . S
C214 C215 1.391 . S
C214 C218 1.397 . S
C215 C210 1.391 . S
C215 C214 1.391 . S
C215 C216 1.399 . S
C216 C215 1.399 . S
C216 C217 1.396 . S
C216 C219 1.453 . S
C216 C220 1.684 . S
C217 C207 1.723 . S
C217 C216 1.396 . S
C217 C218 1.394 . S
C218 C188 1.723 . S
C218 C214 1.397 . S
C218 C217 1.394 . S
C219 H191 0.982 . S
C219 H195 0.979 . S
C219 H196 0.977 . S
C219 C216 1.453 . S
C220 H192 0.979 . S
C220 H193 0.980 . S
C220 H194 0.983 . S
C220 C216 1.684 . S
H221 C239 0.948 . S
H222 C180 0.948 . S
H223 C198 0.979 . S
H224 C198 0.980 . S
H225 C198 0.983 . S
H226 C197 0.982 . S
H227 C197 0.979 . S
H228 C197 0.977 . S
H229 C199 0.948 . S
H230 C201 0.947 1_556 S
H231 C202 0.948 . S
H232 C208 0.982 . S
H233 C208 0.979 . S
H234 C208 0.977 . S
H235 C209 0.979 . S
H236 C209 0.980 . S
H237 C209 0.983 . S
H238 C182 0.947 . S
C239 C182 1.392 . S
C239 C183 1.419 . S
C239 H221 0.948 . S
C240 C241 1.391 . S
C240 C244 1.391 . S
C240 H282 0.948 . S
C241 C240 1.391 . S
C241 C242 1.391 . S
C242 C241 1.391 . S
C242 H298 0.947 . S
C242 C299 1.392 . S
C243 C244 1.391 . S
C243 C247 1.397 . S
C243 C299 1.419 . S
C244 C240 1.391 . S
C244 C243 1.391 . S
C244 C245 1.399 1_554 S
C245 C244 1.399 1_556 S
C245 C248 1.396 1_556 S
C245 C257 1.453 . S
C245 C258 1.684 . S
H246 C270 0.948 . S
C247 C243 1.397 . S
C247 C248 1.394 . S
C247 C266 1.723 . S
C248 C245 1.396 1_554 S
C248 C247 1.394 . S
C248 C278 1.723 1_554 S
H249 C272 0.947 . S
H250 C273 0.948 . S
H251 C279 0.982 . S
H252 C280 0.979 . S
H253 C280 0.980 1_554 S
H254 C280 0.983 . S
H255 C279 0.979 . S
H256 C279 0.977 1_554 S
C257 C245 1.453 . S
C257 H286 0.982 . S
C257 H287 0.979 . S
C257 H288 0.977 . S
C258 C245 1.684 . S
C258 H283 0.979 . S
C258 H284 0.980 . S
C258 H285 0.983 . S
C259 C260 1.391 . S
C259 C264 1.391 . S
C259 H289 0.948 . S
C260 C259 1.391 . S
C260 C261 1.391 . S
C261 C260 1.391 . S
C261 C262 1.392 . S
C261 H290 0.947 . S
C262 C261 1.392 . S
C262 C263 1.419 . S
C262 H291 0.948 . S
C263 C262 1.419 . S
C263 C264 1.391 . S
C263 C267 1.397 . S
C264 C259 1.391 . S
C264 C263 1.391 . S
C264 C265 1.399 . S
C265 C264 1.399 . S
C265 C266 1.396 . S
C265 C268 1.453 . S
C265 C269 1.684 . S
C266 C247 1.723 . S
C266 C265 1.396 . S
C266 C267 1.394 . S
C267 C263 1.397 . S
C267 C266 1.394 . S
C267 C277 1.723 . S
C268 C265 1.453 . S
C268 H292 0.982 . S
C268 H293 0.979 . S
C268 H294 0.977 . S
C269 C265 1.684 . S
C269 H295 0.979 . S
C269 H296 0.980 . S
C269 H297 0.983 . S
C270 H246 0.948 . S
C270 C271 1.391 . S
C270 C275 1.391 . S
C271 C270 1.391 . S
C271 C272 1.391 . S
C272 H249 0.947 . S
C272 C271 1.391 . S
C272 C273 1.392 . S
C273 H250 0.948 . S
C273 C272 1.392 . S
C273 C274 1.419 . S
C274 C273 1.419 . S
C274 C275 1.391 . S
C274 C278 1.397 . S
C275 C270 1.391 . S
C275 C274 1.391 . S
C275 C276 1.399 . S
C276 C275 1.399 . S
C276 C277 1.396 1_556 S
C276 C279 1.453 . S
C276 C280 1.684 . S
C277 C267 1.723 . S
C277 C276 1.396 1_554 S
C277 C278 1.394 1_554 S
C278 C248 1.723 1_556 S
C278 C274 1.397 . S
C278 C277 1.394 1_556 S
C279 H251 0.982 . S
C279 H255 0.979 . S
C279 H256 0.977 1_556 S
C279 C276 1.453 . S
C280 H252 0.979 . S
C280 H253 0.980 1_556 S
C280 H254 0.983 . S
C280 C276 1.684 . S
H281 C299 0.948 . S
H282 C240 0.948 . S
H283 C258 0.979 . S
H284 C258 0.980 . S
H285 C258 0.983 . S
H286 C257 0.982 . S
H287 C257 0.979 . S
H288 C257 0.977 . S
H289 C259 0.948 . S
H290 C261 0.947 . S
H291 C262 0.948 . S
H292 C268 0.982 . S
H293 C268 0.979 . S
H294 C268 0.977 . S
H295 C269 0.979 . S
H296 C269 0.980 . S
H297 C269 0.983 . S
H298 C242 0.947 . S
C299 C242 1.392 . S
C299 C243 1.419 . S
C299 H281 0.948 . S
C300 C301 1.391 . S
C300 C304 1.391 . S
C300 H342 0.948 . S
C301 C300 1.391 . S
C301 C302 1.391 . S
C302 C301 1.391 . S
C302 H358 0.947 . S
C302 C359 1.392 . S
C303 C304 1.391 . S
C303 C307 1.397 . S
C303 C359 1.419 . S
C304 C300 1.391 . S
C304 C303 1.391 . S
C304 C305 1.399 . S
C305 C304 1.399 . S
C305 C308 1.396 . S
C305 C317 1.453 . S
C305 C318 1.684 . S
H306 C330 0.948 . S
C307 C303 1.397 . S
C307 C308 1.394 . S
C307 C326 1.723 . S
C308 C305 1.396 . S
C308 C307 1.394 . S
C308 C338 1.723 . S
H309 C332 0.947 . S
H310 C333 0.948 . S
H311 C339 0.982 . S
H312 C340 0.979 . S
H313 C340 0.980 . S
H314 C340 0.983 . S
H315 C339 0.979 . S
H316 C339 0.977 . S
C317 C305 1.453 . S
C317 H346 0.982 . S
C317 H347 0.979 . S
C317 H348 0.977 . S
C318 C305 1.684 . S
C318 H343 0.979 . S
C318 H344 0.980 . S
C318 H345 0.983 . S
C319 C320 1.391 . S
C319 C324 1.391 . S
C319 H349 0.948 . S
C320 C319 1.391 . S
C320 C321 1.391 . S
C321 C320 1.391 . S
C321 C322 1.392 . S
C321 H350 0.947 . S
C322 C321 1.392 . S
C322 C323 1.419 . S
C322 H351 0.948 . S
C323 C322 1.419 . S
C323 C324 1.391 . S
C323 C327 1.397 . S
C324 C319 1.391 . S
C324 C323 1.391 . S
C324 C325 1.399 . S
C325 C324 1.399 . S
C325 C326 1.396 1_556 S
C325 C328 1.453 . S
C325 C329 1.684 . S
C326 C307 1.723 . S
C326 C325 1.396 1_554 S
C326 C327 1.394 1_554 S
C327 C323 1.397 . S
C327 C326 1.394 1_556 S
C327 C337 1.723 1_556 S
C328 C325 1.453 . S
C328 H352 0.982 . S
C328 H353 0.979 . S
C328 H354 0.977 1_556 S
C329 C325 1.684 . S
C329 H355 0.979 . S
C329 H356 0.980 1_556 S
C329 H357 0.983 . S
C330 H306 0.948 . S
C330 C331 1.391 . S
C330 C335 1.391 . S
C331 C330 1.391 . S
C331 C332 1.391 . S
C332 H309 0.947 . S
C332 C331 1.391 . S
C332 C333 1.392 . S
C333 H310 0.948 . S
C333 C332 1.392 . S
C333 C334 1.419 . S
C334 C333 1.419 . S
C334 C335 1.391 . S
C334 C338 1.397 . S
C335 C330 1.391 . S
C335 C334 1.391 . S
C335 C336 1.399 1_554 S
C336 C335 1.399 1_556 S
C336 C337 1.396 1_556 S
C336 C339 1.453 . S
C336 C340 1.684 . S
C337 C327 1.723 1_554 S
C337 C336 1.396 1_554 S
C337 C338 1.394 . S
C338 C308 1.723 . S
C338 C334 1.397 . S
C338 C337 1.394 . S
C339 H311 0.982 . S
C339 H315 0.979 . S
C339 H316 0.977 . S
C339 C336 1.453 . S
C340 H312 0.979 . S
C340 H313 0.980 . S
C340 H314 0.983 . S
C340 C336 1.684 . S
H341 C359 0.948 . S
H342 C300 0.948 . S
H343 C318 0.979 . S
H344 C318 0.980 . S
H345 C318 0.983 . S
H346 C317 0.982 . S
H347 C317 0.979 . S
H348 C317 0.977 . S
H349 C319 0.948 . S
H350 C321 0.947 . S
H351 C322 0.948 . S
H352 C328 0.982 . S
H353 C328 0.979 . S
H354 C328 0.977 1_554 S
H355 C329 0.979 . S
H356 C329 0.980 1_554 S
H357 C329 0.983 . S
H358 C302 0.947 . S
C359 C302 1.392 . S
C359 C303 1.419 . S
C359 H341 0.948 . S
C360 C361 1.391 . S
C360 C364 1.391 . S
C360 H402 0.948 . S
C361 C360 1.391 . S
C361 C362 1.391 . S
C362 C361 1.391 . S
C362 H418 0.947 . S
C362 C419 1.392 . S
C363 C364 1.391 . S
C363 C367 1.397 . S
C363 C419 1.419 . S
C364 C360 1.391 . S
C364 C363 1.391 . S
C364 C365 1.399 . S
C365 C364 1.399 . S
C365 C368 1.396 . S
C365 C377 1.453 . S
C365 C378 1.684 . S
H366 C390 0.948 . S
C367 C363 1.397 . S
C367 C368 1.394 . S
C367 C386 1.723 1_556 S
C368 C365 1.396 . S
C368 C367 1.394 . S
C368 C398 1.723 1_556 S
H369 C392 0.947 . S
H370 C393 0.948 1_556 S
H371 C399 0.982 . S
H372 C400 0.979 . S
H373 C400 0.980 . S
H374 C400 0.983 . S
H375 C399 0.979 . S
H376 C399 0.977 . S
C377 C365 1.453 . S
C377 H406 0.982 . S
C377 H407 0.979 . S
C377 H408 0.977 . S
C378 C365 1.684 . S
C378 H403 0.979 . S
C378 H404 0.980 . S
C378 H405 0.983 . S
C379 C380 1.391 . S
C379 C384 1.391 . S
C379 H409 0.948 . S
C380 C379 1.391 . S
C380 C381 1.391 . S
C381 C380 1.391 . S
C381 C382 1.392 . S
C381 H410 0.947 . S
C382 C381 1.392 . S
C382 C383 1.419 . S
C382 H411 0.948 . S
C383 C382 1.419 . S
C383 C384 1.391 . S
C383 C387 1.397 . S
C384 C379 1.391 . S
C384 C383 1.391 . S
C384 C385 1.399 . S
C385 C384 1.399 . S
C385 C386 1.396 . S
C385 C388 1.453 . S
C385 C389 1.684 . S
C386 C367 1.723 1_554 S
C386 C385 1.396 . S
C386 C387 1.394 . S
C387 C383 1.397 . S
C387 C386 1.394 . S
C387 C397 1.723 . S
C388 C385 1.453 . S
C388 H412 0.982 . S
C388 H413 0.979 . S
C388 H414 0.977 1_554 S
C389 C385 1.684 . S
C389 H415 0.979 . S
C389 H416 0.980 1_554 S
C389 H417 0.983 . S
C390 H366 0.948 . S
C390 C391 1.391 . S
C390 C395 1.391 . S
C391 C390 1.391 . S
C391 C392 1.391 . S
C392 H369 0.947 . S
C392 C391 1.391 . S
C392 C393 1.392 . S
C393 H370 0.948 1_554 S
C393 C392 1.392 . S
C393 C394 1.419 . S
C394 C393 1.419 . S
C394 C395 1.391 . S
C394 C398 1.397 . S
C395 C390 1.391 . S
C395 C394 1.391 . S
C395 C396 1.399 . S
C396 C395 1.399 . S
C396 C397 1.396 . S
C396 C399 1.453 . S
C396 C400 1.684 . S
C397 C387 1.723 . S
C397 C396 1.396 . S
C397 C398 1.394 . S
C398 C368 1.723 1_554 S
C398 C394 1.397 . S
C398 C397 1.394 . S
C399 H371 0.982 . S
C399 H375 0.979 . S
C399 H376 0.977 . S
C399 C396 1.453 . S
C400 H372 0.979 . S
C400 H373 0.980 . S
C400 H374 0.983 . S
C400 C396 1.684 . S
H401 C419 0.948 . S
H402 C360 0.948 . S
H403 C378 0.979 . S
H404 C378 0.980 . S
H405 C378 0.983 . S
H406 C377 0.982 . S
H407 C377 0.979 . S
H408 C377 0.977 . S
H409 C379 0.948 . S
H410 C381 0.947 . S
H411 C382 0.948 . S
H412 C388 0.982 . S
H413 C388 0.979 . S
H414 C388 0.977 1_556 S
H415 C389 0.979 . S
H416 C389 0.980 1_556 S
H417 C389 0.983 . S
H418 C362 0.947 . S
C419 C362 1.392 . S
C419 C363 1.419 . S
C419 H401 0.948 . S
C420 C421 1.391 . S
C420 C424 1.391 . S
C420 H462 0.948 . S
C421 C420 1.391 . S
C421 C422 1.391 . S
C422 C421 1.391 . S
C422 H478 0.947 . S
C422 C479 1.392 . S
C423 C424 1.391 . S
C423 C427 1.397 . S
C423 C479 1.419 . S
C424 C420 1.391 . S
C424 C423 1.391 . S
C424 C425 1.399 . S
C425 C424 1.399 . S
C425 C428 1.396 . S
C425 C437 1.453 . S
C425 C438 1.684 . S
H426 C450 0.948 . S
C427 C423 1.397 . S
C427 C428 1.394 . S
C427 C446 1.723 1_556 S
C428 C425 1.396 . S
C428 C427 1.394 . S
C428 C458 1.723 1_556 S
H429 C452 0.947 1_556 S
H430 C453 0.948 1_556 S
H431 C459 0.982 . S
H432 C460 0.979 . S
H433 C460 0.980 . S
H434 C460 0.983 . S
H435 C459 0.979 . S
H436 C459 0.977 . S
C437 C425 1.453 . S
C437 H466 0.982 . S
C437 H467 0.979 . S
C437 H468 0.977 . S
C438 C425 1.684 . S
C438 H463 0.979 . S
C438 H464 0.980 . S
C438 H465 0.983 . S
C439 C440 1.391 . S
C439 C444 1.391 . S
C439 H469 0.948 . S
C440 C439 1.391 . S
C440 C441 1.391 . S
C441 C440 1.391 . S
C441 C442 1.392 . S
C441 H470 0.947 . S
C442 C441 1.392 . S
C442 C443 1.419 . S
C442 H471 0.948 . S
C443 C442 1.419 . S
C443 C444 1.391 . S
C443 C447 1.397 . S
C444 C439 1.391 . S
C444 C443 1.391 . S
C444 C445 1.399 . S
C445 C444 1.399 . S
C445 C446 1.396 . S
C445 C448 1.453 . S
C445 C449 1.684 . S
C446 C427 1.723 1_554 S
C446 C445 1.396 . S
C446 C447 1.394 . S
C447 C443 1.397 . S
C447 C446 1.394 . S
C447 C457 1.723 . S
C448 C445 1.453 . S
C448 H472 0.982 . S
C448 H473 0.979 . S
C448 H474 0.977 1_554 S
C449 C445 1.684 . S
C449 H475 0.979 . S
C449 H476 0.980 1_554 S
C449 H477 0.983 . S
C450 H426 0.948 . S
C450 C451 1.391 . S
C450 C455 1.391 . S
C451 C450 1.391 . S
C451 C452 1.391 . S
C452 H429 0.947 1_554 S
C452 C451 1.391 . S
C452 C453 1.392 . S
C453 H430 0.948 1_554 S
C453 C452 1.392 . S
C453 C454 1.419 . S
C454 C453 1.419 . S
C454 C455 1.391 . S
C454 C458 1.397 . S
C455 C450 1.391 . S
C455 C454 1.391 . S
C455 C456 1.399 . S
C456 C455 1.399 . S
C456 C457 1.396 . S
C456 C459 1.453 . S
C456 C460 1.684 . S
C457 C447 1.723 . S
C457 C456 1.396 . S
C457 C458 1.394 . S
C458 C428 1.723 1_554 S
C458 C454 1.397 . S
C458 C457 1.394 . S
C459 H431 0.982 . S
C459 H435 0.979 . S
C459 H436 0.977 . S
C459 C456 1.453 . S
C460 H432 0.979 . S
C460 H433 0.980 . S
C460 H434 0.983 . S
C460 C456 1.684 . S
H461 C479 0.948 . S
H462 C420 0.948 . S
H463 C438 0.979 . S
H464 C438 0.980 . S
H465 C438 0.983 . S
H466 C437 0.982 . S
H467 C437 0.979 . S
H468 C437 0.977 . S
H469 C439 0.948 . S
H470 C441 0.947 . S
H471 C442 0.948 . S
H472 C448 0.982 . S
H473 C448 0.979 . S
H474 C448 0.977 1_556 S
H475 C449 0.979 . S
H476 C449 0.980 1_556 S
H477 C449 0.983 . S
H478 C422 0.947 . S
C479 C422 1.392 . S
C479 C423 1.419 . S
C479 H461 0.948 . S
C480 C482 1.422 . S
C480 C484 1.415 . S
C480 N486 1.369 1_545 S
C481 C482 1.421 . S
C481 C483 1.417 . S
C481 C493 1.422 . S
C482 C480 1.422 . S
C482 C481 1.421 . S
C482 N492 1.359 . S
C483 C481 1.417 . S
C483 C485 1.329 . S
C483 H502 0.930 . S
C484 C480 1.415 . S
C484 C485 1.437 . S
C484 C488 1.413 . S
C485 C483 1.329 . S
C485 C484 1.437 . S
C485 H507 0.929 . S
N486 C480 1.369 1_565 S
N486 C487 1.338 . S
N486 Gd491 2.622 . S
C487 N486 1.338 . S
C487 C489 1.378 1_565 S
C487 H499 0.929 . S
C488 C484 1.413 . S
C488 C489 1.348 . S
C488 H504 0.931 . S
C489 C487 1.378 1_545 S
C489 C488 1.348 . S
C489 H505 0.930 . S
Gd490 N510 2.622 . S
Gd490 N517 2.570 . S
Gd490 O524 2.353 1_655 S
Gd490 O525 2.465 1_655 S
Gd490 O526 2.427 . S
Gd490 O528 2.388 . S
Gd490 O529 2.386 1_545 S
Gd490 O533 2.307 1_655 S
Gd490 C543 2.805 . S
Gd491 N486 2.622 . S
Gd491 N492 2.570 1_565 S
Gd491 O523 2.386 1_565 S
Gd491 O527 2.302 1_465 S
Gd491 O530 2.353 . S
Gd491 O531 2.468 . S
Gd491 O532 2.427 . S
Gd491 O534 2.388 . S
Gd491 C555 2.805 . S
N492 C482 1.359 . S
N492 Gd491 2.570 1_545 S
N492 C494 1.343 . S
C493 C481 1.422 . S
C493 C495 1.321 . S
C493 H501 0.931 . S
C494 N492 1.343 . S
C494 C495 1.390 . S
C494 H496 0.863 1_445 S
C495 C493 1.321 . S
C495 C494 1.390 . S
C495 H497 0.983 . S
H496 C494 0.863 1_665 S
H497 C495 0.983 . S
H498 C521 0.923 1_455 S
H499 C487 0.929 . S
H500 C522 0.938 1_455 S
H501 C493 0.931 . S
H502 C483 0.930 . S
H503 C512 0.929 . S
H504 C488 0.931 . S
H505 C489 0.930 . S
H506 C544 0.930 . S
H507 C485 0.929 . S
H508 C513 0.939 . S
H509 C514 0.930 . S
N510 Gd490 2.622 . S
N510 C511 1.369 . S
N510 C512 1.338 . S
C511 N510 1.369 . S
C511 C515 1.415 1_545 S
C511 C518 1.422 . S
C512 H503 0.929 . S
C512 N510 1.338 . S
C512 C514 1.378 . S
C513 H508 0.939 . S
C513 C514 1.338 1_565 S
C513 C515 1.415 . S
C514 H509 0.930 . S
C514 C512 1.378 . S
C514 C513 1.338 1_545 S
C515 C511 1.415 1_565 S
C515 C513 1.415 . S
C515 C545 1.437 . S
H516 C545 0.929 . S
N517 Gd490 2.570 . S
N517 C518 1.359 . S
N517 C521 1.350 . S
C518 C511 1.422 . S
C518 N517 1.359 . S
C518 C520 1.421 1_545 S
C519 C520 1.422 . S
C519 C522 1.344 . S
C519 H546 0.931 . S
C520 C518 1.421 1_565 S
C520 C519 1.422 . S
C520 C544 1.417 . S
C521 H498 0.923 1_655 S
C521 N517 1.350 . S
C521 C522 1.364 1_545 S
C522 H500 0.938 1_655 S
C522 C519 1.344 . S
C522 C521 1.364 1_565 S
O523 Gd491 2.386 1_545 S
O523 C535 1.265 . S
O524 Gd490 2.353 1_455 S
O524 C535 1.242 . S
O525 Gd490 2.465 1_455 S
O525 C543 1.257 1_455 S
O526 Gd490 2.427 . S
O526 C543 1.252 . S
O527 Gd491 2.302 1_645 S
O527 C536 1.265 . S
O528 Gd490 2.388 . S
O528 C536 1.252 . S
O529 Gd490 2.386 1_565 S
O529 C547 1.265 . S
O530 Gd491 2.353 . S
O530 C547 1.242 1_455 S
O531 Gd491 2.468 . S
O531 C555 1.263 . S
O532 Gd491 2.427 . S
O532 C555 1.252 . S
O533 Gd490 2.307 1_455 S
O533 C548 1.261 . S
O534 Gd491 2.388 . S
O534 C548 1.252 1_565 S
C535 O523 1.265 . S
C535 O524 1.242 . S
C536 O527 1.265 . S
C536 O528 1.252 . S
C537 C540 1.394 . S
C537 C542 1.370 . S
C537 C543 1.500 . S
C538 C541 1.383 . S
C538 C542 1.395 . S
C539 C540 1.396 . S
C539 C541 1.365 . S
C539 H556 0.929 . S
C540 C537 1.394 . S
C540 C539 1.396 . S
C540 H557 0.930 . S
C541 C538 1.383 . S
C541 C539 1.365 . S
C541 H558 0.931 . S
C542 C537 1.370 . S
C542 C538 1.395 . S
C542 H559 0.930 1_655 S
C543 Gd490 2.805 . S
C543 O525 1.257 1_655 S
C543 O526 1.252 . S
C543 C537 1.500 . S
C544 H506 0.930 . S
C544 C520 1.417 . S
C544 C545 1.329 . S
C545 C515 1.437 . S
C545 H516 0.929 . S
C545 C544 1.329 . S
H546 C519 0.931 . S
C547 O529 1.265 . S
C547 O530 1.242 1_655 S
C548 O533 1.261 . S
C548 O534 1.252 1_545 S
C549 C552 1.394 . S
C549 C554 1.370 . S
C549 C555 1.500 . S
C550 C553 1.383 . S
C550 C554 1.395 . S
C551 C552 1.396 . S
C551 C553 1.365 . S
C551 H560 0.929 . S
C552 C549 1.394 . S
C552 C551 1.396 . S
C552 H561 0.930 . S
C553 C550 1.383 . S
C553 C551 1.365 . S
C553 H562 0.931 . S
C554 C549 1.370 . S
C554 C550 1.395 . S
C554 H563 0.960 . S
C555 Gd491 2.805 . S
C555 O531 1.263 . S
C555 O532 1.252 . S
C555 C549 1.500 . S
H556 C539 0.929 . S
H557 C540 0.930 . S
H558 C541 0.931 . S
H559 C542 0.930 1_455 S
H560 C551 0.929 . S
H561 C552 0.930 . S
H562 C553 0.931 . S
H563 C554 0.960 . S
C564 C566 1.422 . S
C564 C568 1.415 . S
C564 N570 1.369 . S
C565 C566 1.421 . S
C565 C567 1.417 . S
C565 C577 1.422 . S
C566 C564 1.422 . S
C566 C565 1.421 . S
C566 N576 1.359 . S
C567 C565 1.417 . S
C567 C569 1.329 . S
C567 H586 0.930 . S
C568 C564 1.415 . S
C568 C569 1.437 . S
C568 C572 1.413 . S
C569 C567 1.329 . S
C569 C568 1.437 . S
C569 H591 0.929 . S
N570 C564 1.369 . S
N570 C571 1.338 . S
N570 Gd575 2.622 . S
C571 N570 1.338 . S
C571 C573 1.378 . S
C571 H583 0.929 . S
C572 C568 1.413 . S
C572 C573 1.348 . S
C572 H588 0.931 . S
C573 C571 1.378 . S
C573 C572 1.348 . S
C573 H589 0.930 . S
Gd574 N594 2.622 . S
Gd574 N601 2.570 . S
Gd574 O608 2.353 1_545 S
Gd574 O609 2.468 . S
Gd574 O610 2.427 . S
Gd574 O612 2.388 . S
Gd574 O613 2.386 . S
Gd574 O617 2.307 . S
Gd574 C627 2.805 . S
Gd575 N570 2.622 . S
Gd575 N576 2.570 . S
Gd575 O607 2.386 . S
Gd575 O611 2.307 1_565 S
Gd575 O614 2.353 1_565 S
Gd575 O615 2.468 . S
Gd575 O616 2.427 . S
Gd575 O618 2.388 . S
Gd575 C639 2.805 . S
N576 C566 1.359 . S
N576 Gd575 2.570 . S
N576 C578 1.343 . S
C577 C565 1.422 . S
C577 C579 1.321 . S
C577 H585 0.931 . S
C578 N576 1.343 . S
C578 C579 1.390 . S
C578 H580 0.931 . S
C579 C577 1.321 . S
C579 C578 1.390 . S
C579 H581 0.930 . S
H580 C578 0.931 . S
H581 C579 0.930 . S
H582 C605 0.931 . S
H583 C571 0.929 . S
H584 C606 0.930 . S
H585 C577 0.931 . S
H586 C567 0.930 . S
H587 C596 0.929 . S
H588 C572 0.931 . S
H589 C573 0.930 . S
H590 C628 0.930 . S
H591 C569 0.929 . S
H592 C597 0.931 . S
H593 C598 0.930 . S
N594 Gd574 2.622 . S
N594 C595 1.369 . S
N594 C596 1.338 . S
C595 N594 1.369 . S
C595 C599 1.415 . S
C595 C602 1.422 . S
C596 H587 0.929 . S
C596 N594 1.338 . S
C596 C598 1.378 . S
C597 H592 0.931 . S
C597 C598 1.348 . S
C597 C599 1.413 . S
C598 H593 0.930 . S
C598 C596 1.378 . S
C598 C597 1.348 . S
C599 C595 1.415 . S
C599 C597 1.413 . S
C599 C629 1.437 . S
H600 C629 0.929 . S
N601 Gd574 2.570 . S
N601 C602 1.359 . S
N601 C605 1.343 . S
C602 C595 1.422 . S
C602 N601 1.359 . S
C602 C604 1.421 . S
C603 C604 1.422 . S
C603 C606 1.321 . S
C603 H630 0.931 . S
C604 C602 1.421 . S
C604 C603 1.422 . S
C604 C628 1.417 . S
C605 H582 0.931 . S
C605 N601 1.343 . S
C605 C606 1.390 . S
C606 H584 0.930 . S
C606 C603 1.321 . S
C606 C605 1.390 . S
O607 Gd575 2.386 . S
O607 C619 1.265 . S
O608 Gd574 2.353 1_565 S
O608 C619 1.242 . S
O609 Gd574 2.468 . S
O609 C627 1.263 . S
O610 Gd574 2.427 . S
O610 C627 1.252 . S
O611 Gd575 2.307 1_545 S
O611 C620 1.261 . S
O612 Gd574 2.388 . S
O612 C620 1.252 . S
O613 Gd574 2.386 . S
O613 C631 1.265 . S
O614 Gd575 2.353 1_545 S
O614 C631 1.242 . S
O615 Gd575 2.468 . S
O615 C639 1.263 . S
O616 Gd575 2.427 . S
O616 C639 1.252 . S
O617 Gd574 2.307 . S
O617 C632 1.261 1_545 S
O618 Gd575 2.388 . S
O618 C632 1.252 . S
C619 O607 1.265 . S
C619 O608 1.242 . S
C620 O611 1.261 . S
C620 O612 1.252 . S
C621 C624 1.394 . S
C621 C626 1.370 . S
C621 C627 1.500 . S
C622 C625 1.383 . S
C622 C626 1.395 . S
C623 C624 1.396 . S
C623 C625 1.365 . S
C623 H640 0.929 . S
C624 C621 1.394 . S
C624 C623 1.396 . S
C624 H641 0.930 . S
C625 C622 1.383 . S
C625 C623 1.365 . S
C625 H642 0.931 . S
C626 C621 1.370 . S
C626 C622 1.395 . S
C626 H643 0.930 . S
C627 Gd574 2.805 . S
C627 O609 1.263 . S
C627 O610 1.252 . S
C627 C621 1.500 . S
C628 H590 0.930 . S
C628 C604 1.417 . S
C628 C629 1.329 . S
C629 C599 1.437 . S
C629 H600 0.929 . S
C629 C628 1.329 . S
H630 C603 0.931 . S
C631 O613 1.265 . S
C631 O614 1.242 . S
C632 O617 1.261 1_565 S
C632 O618 1.252 . S
C633 C636 1.394 . S
C633 C638 1.370 1_565 S
C633 C639 1.500 . S
C634 C637 1.383 1_545 S
C634 C638 1.395 . S
C635 C636 1.396 . S
C635 C637 1.365 . S
C635 H644 0.929 . S
C636 C633 1.394 . S
C636 C635 1.396 . S
C636 H645 0.930 . S
C637 C634 1.383 1_565 S
C637 C635 1.365 . S
C637 H646 0.931 . S
C638 C633 1.370 1_545 S
C638 C634 1.395 . S
C638 H647 0.930 . S
C639 Gd575 2.805 . S
C639 O615 1.263 . S
C639 O616 1.252 . S
C639 C633 1.500 . S
H640 C623 0.929 . S
H641 C624 0.930 . S
H642 C625 0.931 . S
H643 C626 0.930 . S
H644 C635 0.929 . S
H645 C636 0.930 . S
H646 C637 0.931 . S
H647 C638 0.930 . S
C648 C650 1.422 . S
C648 C652 1.415 . S
C648 N654 1.369 . S
C649 C650 1.421 . S
C649 C651 1.417 . S
C649 C661 1.422 . S
C650 C648 1.422 . S
C650 C649 1.421 . S
C650 N660 1.359 . S
C651 C649 1.417 . S
C651 C653 1.329 . S
C651 H670 0.930 . S
C652 C648 1.415 . S
C652 C653 1.437 . S
C652 C656 1.413 . S
C653 C651 1.329 . S
C653 C652 1.437 . S
C653 H675 0.929 . S
N654 C648 1.369 . S
N654 C655 1.338 . S
N654 Gd659 2.622 . S
C655 N654 1.338 . S
C655 C657 1.378 . S
C655 H667 0.929 . S
C656 C652 1.413 . S
C656 C657 1.348 . S
C656 H672 0.931 . S
C657 C655 1.378 . S
C657 C656 1.348 . S
C657 H673 0.930 . S
Gd658 N678 2.622 . S
Gd658 N685 2.570 . S
Gd658 O692 2.353 . S
Gd658 O693 2.468 . S
Gd658 O694 2.427 . S
Gd658 O696 2.388 . S
Gd658 O697 2.386 . S
Gd658 O701 2.307 . S
Gd658 C711 2.805 . S
Gd659 N654 2.622 . S
Gd659 N660 2.570 . S
Gd659 O691 2.386 . S
Gd659 O695 2.307 . S
Gd659 O698 2.353 . S
Gd659 O699 2.468 . S
Gd659 O700 2.427 . S
Gd659 O702 2.388 . S
Gd659 C723 2.805 . S
N660 C650 1.359 . S
N660 Gd659 2.570 . S
N660 C662 1.343 . S
C661 C649 1.422 . S
C661 C663 1.321 . S
C661 H669 0.931 . S
C662 N660 1.343 . S
C662 C663 1.390 . S
C662 H664 0.931 . S
C663 C661 1.321 . S
C663 C662 1.390 . S
C663 H665 0.930 . S
H664 C662 0.931 . S
H665 C663 0.930 . S
H666 C689 0.931 . S
H667 C655 0.929 . S
H668 C690 0.930 . S
H669 C661 0.931 . S
H670 C651 0.930 . S
H671 C680 0.929 . S
H672 C656 0.931 . S
H673 C657 0.930 . S
H674 C712 0.930 . S
H675 C653 0.929 . S
H676 C681 0.931 . S
H677 C682 0.930 . S
N678 Gd658 2.622 . S
N678 C679 1.369 . S
N678 C680 1.338 . S
C679 N678 1.369 . S
C679 C683 1.415 . S
C679 C686 1.422 . S
C680 H671 0.929 . S
C680 N678 1.338 . S
C680 C682 1.378 . S
C681 H676 0.931 . S
C681 C682 1.348 . S
C681 C683 1.413 . S
C682 H677 0.930 . S
C682 C680 1.378 . S
C682 C681 1.348 . S
C683 C679 1.415 . S
C683 C681 1.413 . S
C683 C713 1.437 . S
H684 C713 0.929 . S
N685 Gd658 2.570 . S
N685 C686 1.359 . S
N685 C689 1.343 . S
C686 C679 1.422 . S
C686 N685 1.359 . S
C686 C688 1.421 . S
C687 C688 1.422 . S
C687 C690 1.321 . S
C687 H714 0.931 . S
C688 C686 1.421 . S
C688 C687 1.422 . S
C688 C712 1.417 . S
C689 H666 0.931 . S
C689 N685 1.343 . S
C689 C690 1.390 . S
C690 H668 0.930 . S
C690 C687 1.321 . S
C690 C689 1.390 . S
O691 Gd659 2.386 . S
O691 C703 1.265 . S
O692 Gd658 2.353 . S
O692 C703 1.242 . S
O693 Gd658 2.468 . S
O693 C711 1.263 . S
O694 Gd658 2.427 . S
O694 C711 1.252 . S
O695 Gd659 2.307 . S
O695 C704 1.261 . S
O696 Gd658 2.388 . S
O696 C704 1.252 . S
O697 Gd658 2.386 . S
O697 C715 1.265 . S
O698 Gd659 2.353 . S
O698 C715 1.242 . S
O699 Gd659 2.468 . S
O699 C723 1.263 . S
O700 Gd659 2.427 . S
O700 C723 1.252 . S
O701 Gd658 2.307 . S
O701 C716 1.261 . S
O702 Gd659 2.388 . S
O702 C716 1.252 . S
C703 O691 1.265 . S
C703 O692 1.242 . S
C704 O695 1.261 . S
C704 O696 1.252 . S
C705 C708 1.394 . S
C705 C710 1.370 . S
C705 C711 1.500 . S
C706 C709 1.383 . S
C706 C710 1.395 . S
C707 C708 1.396 . S
C707 C709 1.365 . S
C707 H724 0.929 . S
C708 C705 1.394 . S
C708 C707 1.396 . S
C708 H725 0.930 . S
C709 C706 1.383 . S
C709 C707 1.365 . S
C709 H726 0.931 . S
C710 C705 1.370 . S
C710 C706 1.395 . S
C710 H727 0.930 . S
C711 Gd658 2.805 . S
C711 O693 1.263 . S
C711 O694 1.252 . S
C711 C705 1.500 . S
C712 H674 0.930 . S
C712 C688 1.417 . S
C712 C713 1.329 . S
C713 C683 1.437 . S
C713 H684 0.929 . S
C713 C712 1.329 . S
H714 C687 0.931 . S
C715 O697 1.265 . S
C715 O698 1.242 . S
C716 O701 1.261 . S
C716 O702 1.252 . S
C717 C720 1.394 . S
C717 C722 1.370 . S
C717 C723 1.500 . S
C718 C721 1.383 . S
C718 C722 1.395 . S
C719 C720 1.396 . S
C719 C721 1.365 . S
C719 H728 0.929 . S
C720 C717 1.394 . S
C720 C719 1.396 . S
C720 H729 0.930 . S
C721 C718 1.383 . S
C721 C719 1.365 . S
C721 H730 0.931 . S
C722 C717 1.370 . S
C722 C718 1.395 . S
C722 H731 0.930 . S
C723 Gd659 2.805 . S
C723 O699 1.263 . S
C723 O700 1.252 . S
C723 C717 1.500 . S
H724 C707 0.929 . S
H725 C708 0.930 . S
H726 C709 0.931 . S
H727 C710 0.930 . S
H728 C719 0.929 . S
H729 C720 0.930 . S
H730 C721 0.931 . S
H731 C722 0.930 . S
C732 C734 1.422 . S
C732 C736 1.415 . S
C732 N738 1.369 1_455 S
C733 C734 1.421 . S
C733 C735 1.417 . S
C733 C745 1.422 . S
C734 C732 1.422 . S
C734 C733 1.421 . S
C734 N744 1.376 . S
C735 C733 1.417 . S
C735 C737 1.329 . S
C735 H754 0.930 . S
C736 C732 1.415 . S
C736 C737 1.437 . S
C736 C740 1.413 . S
C737 C735 1.329 . S
C737 C736 1.437 . S
C737 H759 0.929 . S
N738 C732 1.369 1_655 S
N738 C739 1.338 . S
N738 Gd743 2.622 . S
C739 N738 1.338 . S
C739 C741 1.378 1_655 S
C739 H751 0.929 . S
C740 C736 1.413 . S
C740 C741 1.348 . S
C740 H756 0.931 . S
C741 C739 1.378 1_455 S
C741 C740 1.348 . S
C741 H757 0.926 1_455 S
Gd742 N762 2.622 . S
Gd742 N769 2.570 . S
Gd742 O776 2.353 . S
Gd742 O777 2.468 . S
Gd742 O778 2.427 . S
Gd742 O780 2.388 . S
Gd742 O781 2.386 1_455 S
Gd742 O785 2.307 . S
Gd742 C795 2.805 . S
Gd743 N738 2.622 . S
Gd743 N744 2.556 1_655 S
Gd743 O775 2.386 1_655 S
Gd743 O779 2.306 1_655 S
Gd743 O782 2.353 . S
Gd743 O783 2.468 . S
Gd743 O784 2.427 . S
Gd743 O786 2.388 . S
Gd743 C807 2.805 . S
N744 C734 1.376 . S
N744 Gd743 2.556 1_455 S
N744 C746 1.349 . S
C745 C733 1.422 . S
C745 C747 1.321 . S
C745 H753 0.931 . S
C746 N744 1.349 . S
C746 C747 1.390 . S
C746 H748 0.931 1_455 S
C747 C745 1.321 . S
C747 C746 1.390 . S
C747 H749 0.930 . S
H748 C746 0.931 1_655 S
H749 C747 0.930 . S
H750 C773 0.931 . S
H751 C739 0.929 . S
H752 C774 0.937 . S
H753 C745 0.931 . S
H754 C735 0.930 . S
H755 C764 0.929 . S
H756 C740 0.931 . S
H757 C741 0.926 1_655 S
H758 C796 0.930 . S
H759 C737 0.929 . S
H760 C765 0.915 1_655 S
H761 C766 0.930 . S
N762 Gd742 2.622 . S
N762 C763 1.369 . S
N762 C764 1.338 . S
C763 N762 1.369 . S
C763 C767 1.398 1_455 S
C763 C770 1.422 . S
C764 H755 0.929 . S
C764 N762 1.338 . S
C764 C766 1.378 . S
C765 H760 0.915 1_455 S
C765 C766 1.370 . S
C765 C767 1.409 1_455 S
C766 H761 0.930 . S
C766 C764 1.378 . S
C766 C765 1.370 . S
C767 C763 1.398 1_655 S
C767 C765 1.409 1_655 S
C767 C797 1.461 . S
H768 C797 0.929 . S
N769 Gd742 2.570 . S
N769 C770 1.359 . S
N769 C773 1.343 . S
C770 C763 1.422 . S
C770 N769 1.359 . S
C770 C772 1.421 1_455 S
C771 C772 1.422 . S
C771 C774 1.341 . S
C771 H798 0.931 . S
C772 C770 1.421 1_655 S
C772 C771 1.422 . S
C772 C796 1.417 . S
C773 H750 0.931 . S
C773 N769 1.343 . S
C773 C774 1.367 1_455 S
C774 H752 0.937 . S
C774 C771 1.341 . S
C774 C773 1.367 1_655 S
O775 Gd743 2.386 1_455 S
O775 C787 1.265 . S
O776 Gd742 2.353 . S
O776 C787 1.242 . S
O777 Gd742 2.468 . S
O777 C795 1.263 . S
O778 Gd742 2.427 . S
O778 C795 1.252 . S
O779 Gd743 2.306 1_455 S
O779 C788 1.262 . S
O780 Gd742 2.388 . S
O780 C788 1.252 . S
O781 Gd742 2.386 1_655 S
O781 C799 1.265 . S
O782 Gd743 2.353 . S
O782 C799 1.242 . S
O783 Gd743 2.468 . S
O783 C807 1.263 . S
O784 Gd743 2.427 . S
O784 C807 1.252 . S
O785 Gd742 2.307 . S
O785 C800 1.261 . S
O786 Gd743 2.388 . S
O786 C800 1.252 1_655 S
C787 O775 1.265 . S
C787 O776 1.242 . S
C788 O779 1.262 . S
C788 O780 1.252 . S
C789 C792 1.394 . S
C789 C794 1.370 . S
C789 C795 1.500 . S
C790 C793 1.383 . S
C790 C794 1.395 . S
C791 C792 1.396 . S
C791 C793 1.365 . S
C791 H808 0.929 . S
C792 C789 1.394 . S
C792 C791 1.396 . S
C792 H809 0.930 . S
C793 C790 1.383 . S
C793 C791 1.365 . S
C793 H810 0.931 . S
C794 C789 1.370 . S
C794 C790 1.395 . S
C794 H811 0.930 . S
C795 Gd742 2.805 . S
C795 O777 1.263 . S
C795 O778 1.252 . S
C795 C789 1.500 . S
C796 H758 0.930 . S
C796 C772 1.417 . S
C796 C797 1.329 . S
C797 C767 1.461 . S
C797 H768 0.929 . S
C797 C796 1.329 . S
H798 C771 0.931 . S
C799 O781 1.265 . S
C799 O782 1.242 . S
C800 O785 1.261 . S
C800 O786 1.252 1_455 S
C801 C804 1.394 . S
C801 C806 1.370 . S
C801 C807 1.500 . S
C802 C805 1.383 . S
C802 C806 1.395 . S
C803 C804 1.396 . S
C803 C805 1.365 . S
C803 H812 0.929 . S
C804 C801 1.394 . S
C804 C803 1.396 . S
C804 H813 0.930 . S
C805 C802 1.383 . S
C805 C803 1.365 . S
C805 H814 0.931 . S
C806 C801 1.370 . S
C806 C802 1.395 . S
C806 H815 0.930 . S
C807 Gd743 2.805 . S
C807 O783 1.263 . S
C807 O784 1.252 . S
C807 C801 1.500 . S
H808 C791 0.929 . S
H809 C792 0.930 . S
H810 C793 0.931 . S
H811 C794 0.930 . S
H812 C803 0.929 . S
H813 C804 0.930 . S
H814 C805 0.931 . S
H815 C806 0.930 . S
H816 C834 0.951 . S
H817 C836 0.951 . S
H818 C838 0.950 . S
H819 C839 0.950 . S
H820 C841 0.950 . S
H821 C844 0.950 . S
H822 C845 0.950 . S
H823 C847 0.950 . S
H824 C848 0.950 . S
H825 C849 0.900 1_565 S
H826 C851 0.951 1_565 S
H827 C853 0.950 . S
H828 C854 0.950 . S
H829 C856 0.950 . S
H830 C859 0.950 . S
H831 C860 0.937 1_545 S
H832 C862 0.950 . S
H833 C863 0.950 . S
C834 H816 0.951 . S
C834 C835 1.366 . S
C834 C836 1.388 . S
C835 C834 1.366 . S
C835 C839 1.385 . S
C836 H817 0.951 . S
C836 C834 1.388 . S
C836 C837 1.366 . S
C837 C836 1.366 . S
C837 C838 1.414 . S
C837 C840 1.499 . S
C838 H818 0.950 . S
C838 C837 1.414 . S
C838 C839 1.374 . S
C839 H819 0.950 . S
C839 C835 1.385 . S
C839 C838 1.374 . S
C840 C837 1.499 . S
C840 C841 1.373 . S
C840 C842 1.389 . S
C841 H820 0.950 . S
C841 C840 1.373 . S
C841 C857 1.377 . S
C842 C840 1.389 . S
C842 C843 1.524 . S
C842 C856 1.377 . S
C843 C842 1.524 . S
C843 C844 1.397 . S
C843 C848 1.363 . S
C844 H821 0.950 . S
C844 C843 1.397 . S
C844 C845 1.334 . S
C845 H822 0.950 . S
C845 C844 1.334 . S
C845 C846 1.287 . S
C846 C845 1.287 . S
C846 C847 1.524 . S
C846 H865 0.913 . S
C847 H823 0.950 . S
C847 C846 1.524 . S
C847 C848 1.415 . S
C848 H824 0.950 . S
C848 C843 1.363 . S
C848 C847 1.415 . S
C849 H825 0.900 1_545 S
C849 C850 1.406 . S
C849 C851 1.399 . S
C850 C849 1.406 . S
C850 C854 1.385 . S
C851 H826 0.951 1_545 S
C851 C849 1.399 . S
C851 C852 1.366 . S
C852 C851 1.366 . S
C852 C853 1.414 . S
C852 C855 1.499 . S
C853 H827 0.950 . S
C853 C852 1.414 . S
C853 C854 1.374 . S
C854 H828 0.950 . S
C854 C850 1.385 . S
C854 C853 1.374 . S
C855 C852 1.499 . S
C855 C856 1.373 . S
C855 C857 1.389 . S
C856 H829 0.950 . S
C856 C842 1.377 . S
C856 C855 1.373 . S
C857 C841 1.377 . S
C857 C855 1.389 . S
C857 C858 1.524 . S
C858 C857 1.524 . S
C858 C859 1.397 . S
C858 C863 1.363 1_545 S
C859 H830 0.950 . S
C859 C858 1.397 . S
C859 C860 1.310 1_545 S
C860 H831 0.937 1_565 S
C860 C859 1.310 1_565 S
C860 C861 1.326 . S
C861 C860 1.326 . S
C861 C862 1.524 . S
C861 H864 0.999 . S
C862 H832 0.950 . S
C862 C861 1.524 . S
C862 C863 1.415 . S
C863 H833 0.950 . S
C863 C858 1.363 1_565 S
C863 C862 1.415 . S
H864 C861 0.999 . S
H865 C846 0.913 . S
H866 C884 0.951 . S
H867 C886 0.951 . S
H868 C888 0.950 . S
H869 C889 0.950 . S
H870 C891 0.950 . S
H871 C894 0.950 . S
H872 C895 0.950 . S
H873 C897 0.950 . S
H874 C898 0.950 . S
H875 C899 0.951 . S
H876 C901 0.951 . S
H877 C903 0.950 . S
H878 C904 0.950 . S
H879 C906 0.950 . S
H880 C909 0.950 . S
H881 C910 0.950 . S
H882 C912 0.950 . S
H883 C913 0.950 . S
C884 H866 0.951 . S
C884 C885 1.366 . S
C884 C886 1.388 . S
C885 C884 1.366 . S
C885 C889 1.385 . S
C886 H867 0.951 . S
C886 C884 1.388 . S
C886 C887 1.366 . S
C887 C886 1.366 . S
C887 C888 1.414 . S
C887 C890 1.499 . S
C888 H868 0.950 . S
C888 C887 1.414 . S
C888 C889 1.374 . S
C889 H869 0.950 . S
C889 C885 1.385 . S
C889 C888 1.374 . S
C890 C887 1.499 . S
C890 C891 1.373 . S
C890 C892 1.389 . S
C891 H870 0.950 . S
C891 C890 1.373 . S
C891 C907 1.377 . S
C892 C890 1.389 . S
C892 C893 1.524 . S
C892 C906 1.377 . S
C893 C892 1.524 . S
C893 C894 1.397 . S
C893 C898 1.363 . S
C894 H871 0.950 . S
C894 C893 1.397 . S
C894 C895 1.334 . S
C895 H872 0.950 . S
C895 C894 1.334 . S
C895 C896 1.287 . S
C896 C895 1.287 . S
C896 C897 1.524 . S
C896 H915 0.913 . S
C897 H873 0.950 . S
C897 C896 1.524 . S
C897 C898 1.415 . S
C898 H874 0.950 . S
C898 C893 1.363 . S
C898 C897 1.415 . S
C899 H875 0.951 . S
C899 C900 1.366 . S
C899 C901 1.388 . S
C900 C899 1.366 . S
C900 C904 1.385 . S
C901 H876 0.951 . S
C901 C899 1.388 . S
C901 C902 1.366 . S
C902 C901 1.366 . S
C902 C903 1.414 . S
C902 C905 1.499 . S
C903 H877 0.950 . S
C903 C902 1.414 . S
C903 C904 1.374 . S
C904 H878 0.950 . S
C904 C900 1.385 . S
C904 C903 1.374 . S
C905 C902 1.499 . S
C905 C906 1.373 . S
C905 C907 1.389 . S
C906 H879 0.950 . S
C906 C892 1.377 . S
C906 C905 1.373 . S
C907 C891 1.377 . S
C907 C905 1.389 . S
C907 C908 1.524 . S
C908 C907 1.524 . S
C908 C909 1.397 . S
C908 C913 1.363 . S
C909 H880 0.950 . S
C909 C908 1.397 . S
C909 C910 1.334 . S
C910 H881 0.950 . S
C910 C909 1.334 . S
C910 C911 1.287 . S
C911 C910 1.287 . S
C911 C912 1.524 . S
C911 H914 0.999 . S
C912 H882 0.950 . S
C912 C911 1.524 . S
C912 C913 1.415 . S
C913 H883 0.950 . S
C913 C908 1.363 . S
C913 C912 1.415 . S
H914 C911 0.999 . S
H915 C896 0.913 . S
H916 C934 0.951 . S
H917 C936 0.951 . S
H918 C938 0.950 . S
H919 C939 0.950 . S
H920 C941 0.950 . S
H921 C944 0.950 . S
H922 C945 0.950 . S
H923 C947 0.950 . S
H924 C948 0.950 . S
H925 C949 0.951 . S
H926 C951 0.951 . S
H927 C953 0.950 . S
H928 C954 0.950 . S
H929 C956 0.950 . S
H930 C959 0.950 . S
H931 C960 0.950 . S
H932 C962 0.950 . S
H933 C963 0.950 . S
C934 H916 0.951 . S
C934 C935 1.366 . S
C934 C936 1.388 . S
C935 C934 1.366 . S
C935 C939 1.385 . S
C936 H917 0.951 . S
C936 C934 1.388 . S
C936 C937 1.366 . S
C937 C936 1.366 . S
C937 C938 1.414 . S
C937 C940 1.499 . S
C938 H918 0.950 . S
C938 C937 1.414 . S
C938 C939 1.374 . S
C939 H919 0.950 . S
C939 C935 1.385 . S
C939 C938 1.374 . S
C940 C937 1.499 . S
C940 C941 1.373 . S
C940 C942 1.389 . S
C941 H920 0.950 . S
C941 C940 1.373 . S
C941 C957 1.377 . S
C942 C940 1.389 . S
C942 C943 1.524 . S
C942 C956 1.377 . S
C943 C942 1.524 . S
C943 C944 1.397 . S
C943 C948 1.363 . S
C944 H921 0.950 . S
C944 C943 1.397 . S
C944 C945 1.334 . S
C945 H922 0.950 . S
C945 C944 1.334 . S
C945 C946 1.287 . S
C946 C945 1.287 . S
C946 C947 1.524 . S
C946 H965 0.913 . S
C947 H923 0.950 . S
C947 C946 1.524 . S
C947 C948 1.415 . S
C948 H924 0.950 . S
C948 C943 1.363 . S
C948 C947 1.415 . S
C949 H925 0.951 . S
C949 C950 1.366 . S
C949 C951 1.388 . S
C950 C949 1.366 . S
C950 C954 1.385 . S
C951 H926 0.951 . S
C951 C949 1.388 . S
C951 C952 1.366 . S
C952 C951 1.366 . S
C952 C953 1.414 . S
C952 C955 1.499 . S
C953 H927 0.950 . S
C953 C952 1.414 . S
C953 C954 1.374 . S
C954 H928 0.950 . S
C954 C950 1.385 . S
C954 C953 1.374 . S
C955 C952 1.499 . S
C955 C956 1.373 . S
C955 C957 1.389 . S
C956 H929 0.950 . S
C956 C942 1.377 . S
C956 C955 1.373 . S
C957 C941 1.377 . S
C957 C955 1.389 . S
C957 C958 1.524 . S
C958 C957 1.524 . S
C958 C959 1.397 . S
C958 C963 1.363 . S
C959 H930 0.950 . S
C959 C958 1.397 . S
C959 C960 1.334 . S
C960 H931 0.950 . S
C960 C959 1.334 . S
C960 C961 1.287 . S
C961 C960 1.287 . S
C961 C962 1.524 . S
C961 H964 0.999 . S
C962 H932 0.950 . S
C962 C961 1.524 . S
C962 C963 1.415 . S
C963 H933 0.950 . S
C963 C958 1.363 . S
C963 C962 1.415 . S
H964 C961 0.999 . S
H965 C946 0.913 . S
H966 C984 0.951 . S
H967 C986 0.951 . S
H968 C988 0.950 . S
H969 C989 0.950 . S
H970 C991 0.950 . S
H971 C994 0.950 . S
H972 C995 0.950 . S
H973 C997 0.950 . S
H974 C998 0.950 . S
H975 C999 0.951 . S
H976 C1001 0.951 . S
H977 C1003 0.950 . S
H978 C1004 0.950 . S
H979 C1006 0.950 . S
H980 C1009 0.950 . S
H981 C1010 0.950 . S
H982 C1012 0.950 . S
H983 C1013 0.950 . S
C984 H966 0.951 . S
C984 C985 1.366 . S
C984 C986 1.388 . S
C985 C984 1.366 . S
C985 C989 1.385 . S
C986 H967 0.951 . S
C986 C984 1.388 . S
C986 C987 1.366 . S
C987 C986 1.366 . S
C987 C988 1.414 . S
C987 C990 1.499 . S
C988 H968 0.950 . S
C988 C987 1.414 . S
C988 C989 1.374 . S
C989 H969 0.950 . S
C989 C985 1.385 . S
C989 C988 1.374 . S
C990 C987 1.499 . S
C990 C991 1.373 . S
C990 C992 1.389 . S
C991 H970 0.950 . S
C991 C990 1.373 . S
C991 C1007 1.377 . S
C992 C990 1.389 . S
C992 C993 1.524 . S
C992 C1006 1.377 . S
C993 C992 1.524 . S
C993 C994 1.397 . S
C993 C998 1.363 . S
C994 H971 0.950 . S
C994 C993 1.397 . S
C994 C995 1.334 . S
C995 H972 0.950 . S
C995 C994 1.334 . S
C995 C996 1.287 . S
C996 C995 1.287 . S
C996 C997 1.524 . S
C996 H1015 0.913 . S
C997 H973 0.950 . S
C997 C996 1.524 . S
C997 C998 1.415 . S
C998 H974 0.950 . S
C998 C993 1.363 . S
C998 C997 1.415 . S
C999 H975 0.951 . S
C999 C1000 1.366 . S
C999 C1001 1.388 . S
C1000 C999 1.366 . S
C1000 C1004 1.385 . S
C1001 H976 0.951 . S
C1001 C999 1.388 . S
C1001 C1002 1.366 . S
C1002 C1001 1.366 . S
C1002 C1003 1.414 . S
C1002 C1005 1.499 . S
C1003 H977 0.950 . S
C1003 C1002 1.414 . S
C1003 C1004 1.374 . S
C1004 H978 0.950 . S
C1004 C1000 1.385 . S
C1004 C1003 1.374 . S
C1005 C1002 1.499 . S
C1005 C1006 1.373 . S
C1005 C1007 1.389 . S
C1006 H979 0.950 . S
C1006 C992 1.377 . S
C1006 C1005 1.373 . S
C1007 C991 1.377 . S
C1007 C1005 1.389 . S
C1007 C1008 1.524 1_455 S
C1008 C1007 1.524 1_655 S
C1008 C1009 1.397 . S
C1008 C1013 1.363 . S
C1009 H980 0.950 . S
C1009 C1008 1.397 . S
C1009 C1010 1.334 . S
C1010 H981 0.950 . S
C1010 C1009 1.334 . S
C1010 C1011 1.287 . S
C1011 C1010 1.287 . S
C1011 C1012 1.524 . S
C1011 H1014 0.999 . S
C1012 H982 0.950 . S
C1012 C1011 1.524 . S
C1012 C1013 1.415 . S
C1013 H983 0.950 . S
C1013 C1008 1.363 . S
C1013 C1012 1.415 . S
H1014 C1011 0.999 . S
H1015 C996 0.913 . S
H1016 C1034 0.951 . S
H1017 C1036 0.951 . S
H1018 C1038 0.950 . S
H1019 C1039 0.950 . S
H1020 C1041 0.950 . S
H1021 C1044 0.950 . S
H1022 C1045 0.950 . S
H1023 C1047 0.950 . S
H1024 C1048 0.950 . S
H1025 C1049 0.951 . S
H1026 C1051 0.951 . S
H1027 C1053 0.950 . S
H1028 C1054 0.950 . S
H1029 C1056 0.950 . S
H1030 C1059 0.950 . S
H1031 C1060 0.950 . S
H1032 C1062 0.950 . S
H1033 C1063 0.950 . S
C1034 H1016 0.951 . S
C1034 C1035 1.366 . S
C1034 C1036 1.388 1_554 S
C1035 C1034 1.366 . S
C1035 C1039 1.385 . S
C1036 H1017 0.951 . S
C1036 C1034 1.388 1_556 S
C1036 C1037 1.366 . S
C1037 C1036 1.366 . S
C1037 C1038 1.414 1_556 S
C1037 C1040 1.499 . S
C1038 H1018 0.950 . S
C1038 C1037 1.414 1_554 S
C1038 C1039 1.374 . S
C1039 H1019 0.950 . S
C1039 C1035 1.385 . S
C1039 C1038 1.374 . S
C1040 C1037 1.499 . S
C1040 C1041 1.373 . S
C1040 C1042 1.389 . S
C1041 H1020 0.950 . S
C1041 C1040 1.373 . S
C1041 C1057 1.377 . S
C1042 C1040 1.389 . S
C1042 C1043 1.524 . S
C1042 C1056 1.377 . S
C1043 C1042 1.524 . S
C1043 C1044 1.397 . S
C1043 C1048 1.363 . S
C1044 H1021 0.950 . S
C1044 C1043 1.397 . S
C1044 C1045 1.334 . S
C1045 H1022 0.950 . S
C1045 C1044 1.334 . S
C1045 C1046 1.287 . S
C1046 C1045 1.287 . S
C1046 C1047 1.524 . S
C1046 H1065 0.913 . S
C1047 H1023 0.950 . S
C1047 C1046 1.524 . S
C1047 C1048 1.415 . S
C1048 H1024 0.950 . S
C1048 C1043 1.363 . S
C1048 C1047 1.415 . S
C1049 H1025 0.951 . S
C1049 C1050 1.366 . S
C1049 C1051 1.388 . S
C1050 C1049 1.366 . S
C1050 C1054 1.385 1_565 S
C1051 H1026 0.951 . S
C1051 C1049 1.388 . S
C1051 C1052 1.366 . S
C1052 C1051 1.366 . S
C1052 C1053 1.414 1_565 S
C1052 C1055 1.499 . S
C1053 H1027 0.950 . S
C1053 C1052 1.414 1_545 S
C1053 C1054 1.374 . S
C1054 H1028 0.950 . S
C1054 C1050 1.385 1_545 S
C1054 C1053 1.374 . S
C1055 C1052 1.499 . S
C1055 C1056 1.373 . S
C1055 C1057 1.389 . S
C1056 H1029 0.950 . S
C1056 C1042 1.377 . S
C1056 C1055 1.373 . S
C1057 C1041 1.377 . S
C1057 C1055 1.389 . S
C1057 C1058 1.524 . S
C1058 C1057 1.524 . S
C1058 C1059 1.397 1_565 S
C1058 C1063 1.363 . S
C1059 H1030 0.950 . S
C1059 C1058 1.397 1_545 S
C1059 C1060 1.334 . S
C1060 H1031 0.950 . S
C1060 C1059 1.334 . S
C1060 C1061 1.287 . S
C1061 C1060 1.287 . S
C1061 C1062 1.524 1_545 S
C1061 H1064 1.052 . S
C1062 H1032 0.950 . S
C1062 C1061 1.524 1_565 S
C1062 C1063 1.415 . S
C1063 H1033 0.950 . S
C1063 C1058 1.363 . S
C1063 C1062 1.415 . S
H1064 C1061 1.052 . S
H1065 C1046 0.913 . S
H1066 C1084 0.951 . S
H1067 C1086 0.951 1_556 S
H1068 C1088 0.950 . S
H1069 C1089 0.950 . S
H1070 C1091 0.950 . S
H1071 C1094 0.950 . S
H1072 C1095 0.950 . S
H1073 C1097 0.950 . S
H1074 C1098 0.950 . S
H1075 C1099 0.951 . S
H1076 C1101 0.951 . S
H1077 C1103 0.950 . S
H1078 C1104 0.950 . S
H1079 C1106 0.950 . S
H1080 C1109 0.950 . S
H1081 C1110 0.950 . S
H1082 C1112 0.950 . S
H1083 C1113 0.950 . S
C1084 H1066 0.951 . S
C1084 C1085 1.366 . S
C1084 C1086 1.388 . S
C1085 C1084 1.366 . S
C1085 C1089 1.385 . S
C1086 H1067 0.951 1_554 S
C1086 C1084 1.388 . S
C1086 C1087 1.366 1_554 S
C1087 C1086 1.366 1_556 S
C1087 C1088 1.414 1_556 S
C1087 C1090 1.499 . S
C1088 H1068 0.950 . S
C1088 C1087 1.414 1_554 S
C1088 C1089 1.374 . S
C1089 H1069 0.950 . S
C1089 C1085 1.385 . S
C1089 C1088 1.374 . S
C1090 C1087 1.499 . S
C1090 C1091 1.373 . S
C1090 C1092 1.389 . S
C1091 H1070 0.950 . S
C1091 C1090 1.373 . S
C1091 C1107 1.377 . S
C1092 C1090 1.389 . S
C1092 C1093 1.524 . S
C1092 C1106 1.377 . S
C1093 C1092 1.524 . S
C1093 C1094 1.397 1_556 S
C1093 C1098 1.363 . S
C1094 H1071 0.950 . S
C1094 C1093 1.397 1_554 S
C1094 C1095 1.334 . S
C1095 H1072 0.950 . S
C1095 C1094 1.334 . S
C1095 C1096 1.287 . S
C1096 C1095 1.287 . S
C1096 C1097 1.524 1_554 S
C1096 H1115 0.913 . S
C1097 H1073 0.950 . S
C1097 C1096 1.524 1_556 S
C1097 C1098 1.415 . S
C1098 H1074 0.950 . S
C1098 C1093 1.363 . S
C1098 C1097 1.415 . S
C1099 H1075 0.951 . S
C1099 C1100 1.366 . S
C1099 C1101 1.388 . S
C1100 C1099 1.366 . S
C1100 C1104 1.385 . S
C1101 H1076 0.951 . S
C1101 C1099 1.388 . S
C1101 C1102 1.366 . S
C1102 C1101 1.366 . S
C1102 C1103 1.414 . S
C1102 C1105 1.499 . S
C1103 H1077 0.950 . S
C1103 C1102 1.414 . S
C1103 C1104 1.374 . S
C1104 H1078 0.950 . S
C1104 C1100 1.385 . S
C1104 C1103 1.374 . S
C1105 C1102 1.499 . S
C1105 C1106 1.373 . S
C1105 C1107 1.389 . S
C1106 H1079 0.950 . S
C1106 C1092 1.377 . S
C1106 C1105 1.373 . S
C1107 C1091 1.377 . S
C1107 C1105 1.389 . S
C1107 C1108 1.524 . S
C1108 C1107 1.524 . S
C1108 C1109 1.397 . S
C1108 C1113 1.363 . S
C1109 H1080 0.950 . S
C1109 C1108 1.397 . S
C1109 C1110 1.334 . S
C1110 H1081 0.950 . S
C1110 C1109 1.334 . S
C1110 C1111 1.287 . S
C1111 C1110 1.287 . S
C1111 C1112 1.524 . S
C1111 H1114 0.999 . S
C1112 H1082 0.950 . S
C1112 C1111 1.524 . S
C1112 C1113 1.415 . S
C1113 H1083 0.950 . S
C1113 C1108 1.363 . S
C1113 C1112 1.415 . S
H1114 C1111 0.999 . S
H1115 C1096 0.913 . S
H1116 C1134 0.951 . S
H1117 C1136 0.951 . S
H1118 C1138 0.950 . S
H1119 C1139 0.950 . S
H1120 C1141 0.950 . S
H1121 C1144 0.950 1_554 S
H1122 C1145 0.950 . S
H1123 C1147 0.950 . S
H1124 C1148 0.950 . S
H1125 C1149 0.951 . S
H1126 C1151 0.951 . S
H1127 C1153 0.950 . S
H1128 C1154 0.950 . S
H1129 C1156 0.950 . S
H1130 C1159 0.950 . S
H1131 C1160 0.950 . S
H1132 C1162 0.950 . S
H1133 C1163 0.950 . S
C1134 H1116 0.951 . S
C1134 C1135 1.366 . S
C1134 C1136 1.388 1_554 S
C1135 C1134 1.366 . S
C1135 C1139 1.385 . S
C1136 H1117 0.951 . S
C1136 C1134 1.388 1_556 S
C1136 C1137 1.366 . S
C1137 C1136 1.366 . S
C1137 C1138 1.414 1_556 S
C1137 C1140 1.499 . S
C1138 H1118 0.950 . S
C1138 C1137 1.414 1_554 S
C1138 C1139 1.374 . S
C1139 H1119 0.950 . S
C1139 C1135 1.385 . S
C1139 C1138 1.374 . S
C1140 C1137 1.499 . S
C1140 C1141 1.373 . S
C1140 C1142 1.389 . S
C1141 H1120 0.950 . S
C1141 C1140 1.373 . S
C1141 C1157 1.377 . S
C1142 C1140 1.389 . S
C1142 C1143 1.524 . S
C1142 C1156 1.377 . S
C1143 C1142 1.524 . S
C1143 C1144 1.397 . S
C1143 C1148 1.363 . S
C1144 H1121 0.950 1_556 S
C1144 C1143 1.397 . S
C1144 C1145 1.334 1_556 S
C1145 H1122 0.950 . S
C1145 C1144 1.334 1_554 S
C1145 C1146 1.287 1_554 S
C1146 C1145 1.287 1_556 S
C1146 C1147 1.524 . S
C1146 H1165 0.913 . S
C1147 H1123 0.950 . S
C1147 C1146 1.524 . S
C1147 C1148 1.415 . S
C1148 H1124 0.950 . S
C1148 C1143 1.363 . S
C1148 C1147 1.415 . S
C1149 H1125 0.951 . S
C1149 C1150 1.366 . S
C1149 C1151 1.388 . S
C1150 C1149 1.366 . S
C1150 C1154 1.385 . S
C1151 H1126 0.951 . S
C1151 C1149 1.388 . S
C1151 C1152 1.366 . S
C1152 C1151 1.366 . S
C1152 C1153 1.414 . S
C1152 C1155 1.499 . S
C1153 H1127 0.950 . S
C1153 C1152 1.414 . S
C1153 C1154 1.374 . S
C1154 H1128 0.950 . S
C1154 C1150 1.385 . S
C1154 C1153 1.374 . S
C1155 C1152 1.499 . S
C1155 C1156 1.373 . S
C1155 C1157 1.389 . S
C1156 H1129 0.950 . S
C1156 C1142 1.377 . S
C1156 C1155 1.373 . S
C1157 C1141 1.377 . S
C1157 C1155 1.389 . S
C1157 C1158 1.524 . S
C1158 C1157 1.524 . S
C1158 C1159 1.397 . S
C1158 C1163 1.363 . S
C1159 H1130 0.950 . S
C1159 C1158 1.397 . S
C1159 C1160 1.334 . S
C1160 H1131 0.950 . S
C1160 C1159 1.334 . S
C1160 C1161 1.287 . S
C1161 C1160 1.287 . S
C1161 C1162 1.524 . S
C1161 H1164 0.999 . S
C1162 H1132 0.950 . S
C1162 C1161 1.524 . S
C1162 C1163 1.415 . S
C1163 H1133 0.950 . S
C1163 C1158 1.363 . S
C1163 C1162 1.415 . S
H1164 C1161 0.999 . S
H1165 C1146 0.913 . S
H1166 C1184 0.951 . S
H1167 C1186 0.951 . S
H1168 C1188 0.950 1_556 S
H1169 C1189 0.950 . S
H1170 C1191 0.950 . S
H1171 C1194 0.950 . S
H1172 C1195 0.950 . S
H1173 C1197 0.950 . S
H1174 C1198 0.950 . S
H1175 C1199 0.951 . S
H1176 C1201 0.951 . S
H1177 C1203 0.950 . S
H1178 C1204 0.950 . S
H1179 C1206 0.950 . S
H1180 C1209 0.950 . S
H1181 C1210 0.950 . S
H1182 C1212 0.950 . S
H1183 C1213 0.950 . S
C1184 H1166 0.951 . S
C1184 C1185 1.366 . S
C1184 C1186 1.388 . S
C1185 C1184 1.366 . S
C1185 C1189 1.385 . S
C1186 H1167 0.951 . S
C1186 C1184 1.388 . S
C1186 C1187 1.366 1_554 S
C1187 C1186 1.366 1_556 S
C1187 C1188 1.414 1_556 S
C1187 C1190 1.499 . S
C1188 H1168 0.950 1_554 S
C1188 C1187 1.414 1_554 S
C1188 C1189 1.374 . S
C1189 H1169 0.950 . S
C1189 C1185 1.385 . S
C1189 C1188 1.374 . S
C1190 C1187 1.499 . S
C1190 C1191 1.373 . S
C1190 C1192 1.389 . S
C1191 H1170 0.950 . S
C1191 C1190 1.373 . S
C1191 C1207 1.377 . S
C1192 C1190 1.389 . S
C1192 C1193 1.524 . S
C1192 C1206 1.377 . S
C1193 C1192 1.524 . S
C1193 C1194 1.397 1_556 S
C1193 C1198 1.363 . S
C1194 H1171 0.950 . S
C1194 C1193 1.397 1_554 S
C1194 C1195 1.334 . S
C1195 H1172 0.950 . S
C1195 C1194 1.334 . S
C1195 C1196 1.287 . S
C1196 C1195 1.287 . S
C1196 C1197 1.524 . S
C1196 H1215 0.913 . S
C1197 H1173 0.950 . S
C1197 C1196 1.524 . S
C1197 C1198 1.415 1_554 S
C1198 H1174 0.950 . S
C1198 C1193 1.363 . S
C1198 C1197 1.415 1_556 S
C1199 H1175 0.951 . S
C1199 C1200 1.366 1_455 S
C1199 C1201 1.388 . S
C1200 C1199 1.366 1_655 S
C1200 C1204 1.385 . S
C1201 H1176 0.951 . S
C1201 C1199 1.388 . S
C1201 C1202 1.366 1_455 S
C1202 C1201 1.366 1_655 S
C1202 C1203 1.414 . S
C1202 C1205 1.499 . S
C1203 H1177 0.950 . S
C1203 C1202 1.414 . S
C1203 C1204 1.374 . S
C1204 H1178 0.950 . S
C1204 C1200 1.385 . S
C1204 C1203 1.374 . S
C1205 C1202 1.499 . S
C1205 C1206 1.373 . S
C1205 C1207 1.389 . S
C1206 H1179 0.950 . S
C1206 C1192 1.377 . S
C1206 C1205 1.373 . S
C1207 C1191 1.377 . S
C1207 C1205 1.389 . S
C1207 C1208 1.524 . S
C1208 C1207 1.524 . S
C1208 C1209 1.397 . S
C1208 C1213 1.363 1_655 S
C1209 H1180 0.950 . S
C1209 C1208 1.397 . S
C1209 C1210 1.334 . S
C1210 H1181 0.950 . S
C1210 C1209 1.334 . S
C1210 C1211 1.287 . S
C1211 C1210 1.287 . S
C1211 C1212 1.524 1_655 S
C1211 H1214 0.999 . S
C1212 H1182 0.950 . S
C1212 C1211 1.524 1_455 S
C1212 C1213 1.415 . S
C1213 H1183 0.950 . S
C1213 C1208 1.363 1_455 S
C1213 C1212 1.415 . S
H1214 C1211 0.999 . S
H1215 C1196 0.913 . S
H1216 C1234 0.951 . S
H1217 C1236 0.951 . S
H1218 C1238 0.950 . S
H1219 C1239 0.950 . S
H1220 C1241 0.950 . S
H1221 C1244 0.950 . S
H1222 C1245 0.950 . S
H1223 C1247 0.953 . S
H1224 C1248 0.950 . S
H1225 C1249 0.930 1_655 S
H1226 C1251 0.951 . S
H1227 C1253 0.950 . S
H1228 C1254 0.950 . S
H1229 C1256 0.950 . S
H1230 C1259 0.950 . S
H1231 C1260 0.950 . S
H1232 C1262 0.950 . S
H1233 C1263 0.950 . S
C1234 H1216 0.951 . S
C1234 C1235 1.366 . S
C1234 C1236 1.388 . S
C1235 C1234 1.366 . S
C1235 C1239 1.385 . S
C1236 H1217 0.951 . S
C1236 C1234 1.388 . S
C1236 C1237 1.366 . S
C1237 C1236 1.366 . S
C1237 C1238 1.414 . S
C1237 C1240 1.499 . S
C1238 H1218 0.950 . S
C1238 C1237 1.414 . S
C1238 C1239 1.374 . S
C1239 H1219 0.950 . S
C1239 C1235 1.385 . S
C1239 C1238 1.374 . S
C1240 C1237 1.499 . S
C1240 C1241 1.373 . S
C1240 C1242 1.389 . S
C1241 H1220 0.950 . S
C1241 C1240 1.373 . S
C1241 C1257 1.377 . S
C1242 C1240 1.389 . S
C1242 C1243 1.524 . S
C1242 C1256 1.377 . S
C1243 C1242 1.524 . S
C1243 C1244 1.397 1_455 S
C1243 C1248 1.363 . S
C1244 H1221 0.950 . S
C1244 C1243 1.397 1_655 S
C1244 C1245 1.334 . S
C1245 H1222 0.950 . S
C1245 C1244 1.334 . S
C1245 C1246 1.287 . S
C1246 C1245 1.287 . S
C1246 C1247 1.496 1_655 S
C1246 H1265 0.913 . S
C1247 H1223 0.953 . S
C1247 C1246 1.496 1_455 S
C1247 C1248 1.442 . S
C1248 H1224 0.950 . S
C1248 C1243 1.363 . S
C1248 C1247 1.442 . S
C1249 H1225 0.930 1_455 S
C1249 C1250 1.371 . S
C1249 C1251 1.407 . S
C1250 C1249 1.371 . S
C1250 C1254 1.385 . S
C1251 H1226 0.951 . S
C1251 C1249 1.407 . S
C1251 C1252 1.366 . S
C1252 C1251 1.366 . S
C1252 C1253 1.414 . S
C1252 C1255 1.499 . S
C1253 H1227 0.950 . S
C1253 C1252 1.414 . S
C1253 C1254 1.374 . S
C1254 H1228 0.950 . S
C1254 C1250 1.385 . S
C1254 C1253 1.374 . S
C1255 C1252 1.499 . S
C1255 C1256 1.373 . S
C1255 C1257 1.389 . S
C1256 H1229 0.950 . S
C1256 C1242 1.377 . S
C1256 C1255 1.373 . S
C1257 C1241 1.377 . S
C1257 C1255 1.389 . S
C1257 C1258 1.524 . S
C1258 C1257 1.524 . S
C1258 C1259 1.397 . S
C1258 C1263 1.363 . S
C1259 H1230 0.950 . S
C1259 C1258 1.397 . S
C1259 C1260 1.334 . S
C1260 H1231 0.950 . S
C1260 C1259 1.334 . S
C1260 C1261 1.287 . S
C1261 C1260 1.287 . S
C1261 C1262 1.524 . S
C1261 H1264 0.999 . S
C1262 H1232 0.950 . S
C1262 C1261 1.524 . S
C1262 C1263 1.415 . S
C1263 H1233 0.950 . S
C1263 C1258 1.363 . S
C1263 C1262 1.415 . S
H1264 C1261 0.999 . S
H1265 C1246 0.913 . S
H1266 C1284 0.951 . S
H1267 C1286 0.951 . S
H1268 C1288 0.950 . S
H1269 C1289 0.950 . S
H1270 C1291 0.950 . S
H1271 C1294 0.950 . S
H1272 C1295 0.950 . S
H1273 C1297 0.950 . S
H1274 C1298 0.950 . S
H1275 C1299 0.969 . S
H1276 C1301 0.951 . S
H1277 C1303 0.950 . S
H1278 C1304 0.950 . S
H1279 C1306 0.950 . S
H1280 C1309 0.950 . S
H1281 C1310 0.950 . S
H1282 C1312 0.950 . S
H1283 C1313 0.950 . S
C1284 H1266 0.951 . S
C1284 C1285 1.366 . S
C1284 C1286 1.388 . S
C1285 C1284 1.366 . S
C1285 C1289 1.385 . S
C1286 H1267 0.951 . S
C1286 C1284 1.388 . S
C1286 C1287 1.366 . S
C1287 C1286 1.366 . S
C1287 C1288 1.414 . S
C1287 C1290 1.499 . S
C1288 H1268 0.950 . S
C1288 C1287 1.414 . S
C1288 C1289 1.374 . S
C1289 H1269 0.950 . S
C1289 C1285 1.385 . S
C1289 C1288 1.374 . S
C1290 C1287 1.499 . S
C1290 C1291 1.373 . S
C1290 C1292 1.389 . S
C1291 H1270 0.950 . S
C1291 C1290 1.373 . S
C1291 C1307 1.377 . S
C1292 C1290 1.389 . S
C1292 C1293 1.524 . S
C1292 C1306 1.377 . S
C1293 C1292 1.524 . S
C1293 C1294 1.397 . S
C1293 C1298 1.363 . S
C1294 H1271 0.950 . S
C1294 C1293 1.397 . S
C1294 C1295 1.334 1_545 S
C1295 H1272 0.950 . S
C1295 C1294 1.334 1_565 S
C1295 C1296 1.287 1_565 S
C1296 C1295 1.287 1_545 S
C1296 C1297 1.524 . S
C1296 H1315 0.913 1_545 S
C1297 H1273 0.950 . S
C1297 C1296 1.524 . S
C1297 C1298 1.415 . S
C1298 H1274 0.950 . S
C1298 C1293 1.363 . S
C1298 C1297 1.415 . S
C1299 H1275 0.969 . S
C1299 C1300 1.360 1_565 S
C1299 C1301 1.377 1_565 S
C1300 C1299 1.360 1_545 S
C1300 C1304 1.385 . S
C1301 H1276 0.951 . S
C1301 C1299 1.377 1_545 S
C1301 C1302 1.366 . S
C1302 C1301 1.366 . S
C1302 C1303 1.414 . S
C1302 C1305 1.499 . S
C1303 H1277 0.950 . S
C1303 C1302 1.414 . S
C1303 C1304 1.374 . S
C1304 H1278 0.950 . S
C1304 C1300 1.385 . S
C1304 C1303 1.374 . S
C1305 C1302 1.499 . S
C1305 C1306 1.373 . S
C1305 C1307 1.389 . S
C1306 H1279 0.950 . S
C1306 C1292 1.377 . S
C1306 C1305 1.373 . S
C1307 C1291 1.377 . S
C1307 C1305 1.389 . S
C1307 C1308 1.524 . S
C1308 C1307 1.524 . S
C1308 C1309 1.397 . S
C1308 C1313 1.363 . S
C1309 H1280 0.950 . S
C1309 C1308 1.397 . S
C1309 C1310 1.334 . S
C1310 H1281 0.950 . S
C1310 C1309 1.334 . S
C1310 C1311 1.287 . S
C1311 C1310 1.287 . S
C1311 C1312 1.524 . S
C1311 H1314 0.999 . S
C1312 H1282 0.950 . S
C1312 C1311 1.524 . S
C1312 C1313 1.415 . S
C1313 H1283 0.950 . S
C1313 C1308 1.363 . S
C1313 C1312 1.415 . S
H1314 C1311 0.999 . S
H1315 C1296 0.913 1_565 S
H1316 C1334 0.951 . S
H1317 C1336 0.951 . S
H1318 C1338 0.950 . S
H1319 C1339 0.950 . S
H1320 C1341 0.950 . S
H1321 C1344 0.950 . S
H1322 C1345 0.950 . S
H1323 C1347 0.950 . S
H1324 C1348 0.950 . S
H1325 C1349 0.951 . S
H1326 C1351 0.951 . S
H1327 C1353 0.950 . S
H1328 C1354 0.950 . S
H1329 C1356 0.950 . S
H1330 C1359 0.950 . S
H1331 C1360 0.950 . S
H1332 C1362 0.950 . S
H1333 C1363 0.950 . S
C1334 H1316 0.951 . S
C1334 C1335 1.366 . S
C1334 C1336 1.388 . S
C1335 C1334 1.366 . S
C1335 C1339 1.385 . S
C1336 H1317 0.951 . S
C1336 C1334 1.388 . S
C1336 C1337 1.366 . S
C1337 C1336 1.366 . S
C1337 C1338 1.414 . S
C1337 C1340 1.499 . S
C1338 H1318 0.950 . S
C1338 C1337 1.414 . S
C1338 C1339 1.374 . S
C1339 H1319 0.950 . S
C1339 C1335 1.385 . S
C1339 C1338 1.374 . S
C1340 C1337 1.499 . S
C1340 C1341 1.373 . S
C1340 C1342 1.389 . S
C1341 H1320 0.950 . S
C1341 C1340 1.373 . S
C1341 C1357 1.377 . S
C1342 C1340 1.389 . S
C1342 C1343 1.524 . S
C1342 C1356 1.377 . S
C1343 C1342 1.524 . S
C1343 C1344 1.397 . S
C1343 C1348 1.363 . S
C1344 H1321 0.950 . S
C1344 C1343 1.397 . S
C1344 C1345 1.334 . S
C1345 H1322 0.950 . S
C1345 C1344 1.334 . S
C1345 C1346 1.287 . S
C1346 C1345 1.287 . S
C1346 C1347 1.524 . S
C1346 H1365 0.913 . S
C1347 H1323 0.950 . S
C1347 C1346 1.524 . S
C1347 C1348 1.415 . S
C1348 H1324 0.950 . S
C1348 C1343 1.363 . S
C1348 C1347 1.415 . S
C1349 H1325 0.951 . S
C1349 C1350 1.366 . S
C1349 C1351 1.388 . S
C1350 C1349 1.366 . S
C1350 C1354 1.385 . S
C1351 H1326 0.951 . S
C1351 C1349 1.388 . S
C1351 C1352 1.366 . S
C1352 C1351 1.366 . S
C1352 C1353 1.414 . S
C1352 C1355 1.499 . S
C1353 H1327 0.950 . S
C1353 C1352 1.414 . S
C1353 C1354 1.374 . S
C1354 H1328 0.950 . S
C1354 C1350 1.385 . S
C1354 C1353 1.374 . S
C1355 C1352 1.499 . S
C1355 C1356 1.373 . S
C1355 C1357 1.389 . S
C1356 H1329 0.950 . S
C1356 C1342 1.377 . S
C1356 C1355 1.373 . S
C1357 C1341 1.377 . S
C1357 C1355 1.389 . S
C1357 C1358 1.524 . S
C1358 C1357 1.524 . S
C1358 C1359 1.397 . S
C1358 C1363 1.363 . S
C1359 H1330 0.950 . S
C1359 C1358 1.397 . S
C1359 C1360 1.334 . S
C1360 H1331 0.950 . S
C1360 C1359 1.334 . S
C1360 C1361 1.287 . S
C1361 C1360 1.287 . S
C1361 C1362 1.524 . S
C1361 H1364 0.999 . S
C1362 H1332 0.950 . S
C1362 C1361 1.524 . S
C1362 C1363 1.415 . S
C1363 H1333 0.950 . S
C1363 C1358 1.363 . S
C1363 C1362 1.415 . S
H1364 C1361 0.999 . S
H1365 C1346 0.913 . S
H1366 C1384 0.951 . S
H1367 C1386 0.951 . S
H1368 C1388 0.950 . S
H1369 C1389 0.950 . S
H1370 C1391 0.950 . S
H1371 C1394 0.950 . S
H1372 C1395 0.950 . S
H1373 C1397 0.950 . S
H1374 C1398 0.950 . S
H1375 C1399 0.951 . S
H1376 C1401 0.951 . S
H1377 C1403 0.950 . S
H1378 C1404 0.950 . S
H1379 C1406 0.950 . S
H1380 C1409 0.950 . S
H1381 C1410 0.950 . S
H1382 C1412 0.950 . S
H1383 C1413 0.950 . S
C1384 H1366 0.951 . S
C1384 C1385 1.366 . S
C1384 C1386 1.388 . S
C1385 C1384 1.366 . S
C1385 C1389 1.385 . S
C1386 H1367 0.951 . S
C1386 C1384 1.388 . S
C1386 C1387 1.366 . S
C1387 C1386 1.366 . S
C1387 C1388 1.414 . S
C1387 C1390 1.499 . S
C1388 H1368 0.950 . S
C1388 C1387 1.414 . S
C1388 C1389 1.374 . S
C1389 H1369 0.950 . S
C1389 C1385 1.385 . S
C1389 C1388 1.374 . S
C1390 C1387 1.499 . S
C1390 C1391 1.373 . S
C1390 C1392 1.389 . S
C1391 H1370 0.950 . S
C1391 C1390 1.373 . S
C1391 C1407 1.377 . S
C1392 C1390 1.389 . S
C1392 C1393 1.524 . S
C1392 C1406 1.377 . S
C1393 C1392 1.524 . S
C1393 C1394 1.397 . S
C1393 C1398 1.363 . S
C1394 H1371 0.950 . S
C1394 C1393 1.397 . S
C1394 C1395 1.334 . S
C1395 H1372 0.950 . S
C1395 C1394 1.334 . S
C1395 C1396 1.287 . S
C1396 C1395 1.287 . S
C1396 C1397 1.524 . S
C1396 H1415 0.913 . S
C1397 H1373 0.950 . S
C1397 C1396 1.524 . S
C1397 C1398 1.415 . S
C1398 H1374 0.950 . S
C1398 C1393 1.363 . S
C1398 C1397 1.415 . S
C1399 H1375 0.951 . S
C1399 C1400 1.366 . S
C1399 C1401 1.388 . S
C1400 C1399 1.366 . S
C1400 C1404 1.385 . S
C1401 H1376 0.951 . S
C1401 C1399 1.388 . S
C1401 C1402 1.366 . S
C1402 C1401 1.366 . S
C1402 C1403 1.414 . S
C1402 C1405 1.499 . S
C1403 H1377 0.950 . S
C1403 C1402 1.414 . S
C1403 C1404 1.374 . S
C1404 H1378 0.950 . S
C1404 C1400 1.385 . S
C1404 C1403 1.374 . S
C1405 C1402 1.499 . S
C1405 C1406 1.373 . S
C1405 C1407 1.389 . S
C1406 H1379 0.950 . S
C1406 C1392 1.377 . S
C1406 C1405 1.373 . S
C1407 C1391 1.377 . S
C1407 C1405 1.389 . S
C1407 C1408 1.524 . S
C1408 C1407 1.524 . S
C1408 C1409 1.397 . S
C1408 C1413 1.363 . S
C1409 H1380 0.950 . S
C1409 C1408 1.397 . S
C1409 C1410 1.334 . S
C1410 H1381 0.950 . S
C1410 C1409 1.334 . S
C1410 C1411 1.287 . S
C1411 C1410 1.287 . S
C1411 C1412 1.524 . S
C1411 H1414 0.999 . S
C1412 H1382 0.950 . S
C1412 C1411 1.524 . S
C1412 C1413 1.415 . S
C1413 H1383 0.950 . S
C1413 C1408 1.363 . S
C1413 C1412 1.415 . S
H1414 C1411 0.999 . S
H1415 C1396 0.913 . S
H1416 C1434 0.951 . S
H1417 C1436 0.951 . S
H1418 C1438 0.950 . S
H1419 C1439 0.950 . S
H1420 C1441 0.950 . S
H1421 C1444 0.950 . S
H1422 C1445 0.950 . S
H1423 C1447 0.950 . S
H1424 C1448 0.950 1_556 S
H1425 C1449 0.951 . S
H1426 C1451 0.951 . S
H1427 C1453 0.950 . S
H1428 C1454 0.950 . S
H1429 C1456 0.950 1_455 S
H1430 C1459 0.950 1_455 S
H1431 C1460 0.950 . S
H1432 C1462 0.950 . S
H1433 C1463 0.950 . S
C1434 H1416 0.951 . S
C1434 C1435 1.366 . S
C1434 C1436 1.388 1_554 S
C1435 C1434 1.366 . S
C1435 C1439 1.385 1_554 S
C1436 H1417 0.951 . S
C1436 C1434 1.388 1_556 S
C1436 C1437 1.366 . S
C1437 C1436 1.366 . S
C1437 C1438 1.414 . S
C1437 C1440 1.499 . S
C1438 H1418 0.950 . S
C1438 C1437 1.414 . S
C1438 C1439 1.374 . S
C1439 H1419 0.950 . S
C1439 C1435 1.385 1_556 S
C1439 C1438 1.374 . S
C1440 C1437 1.499 . S
C1440 C1441 1.373 . S
C1440 C1442 1.389 . S
C1441 H1420 0.950 . S
C1441 C1440 1.373 . S
C1441 C1457 1.377 . S
C1442 C1440 1.389 . S
C1442 C1443 1.524 1_556 S
C1442 C1456 1.377 . S
C1443 C1442 1.524 1_554 S
C1443 C1444 1.397 . S
C1443 C1448 1.363 1_655 S
C1444 H1421 0.950 . S
C1444 C1443 1.397 . S
C1444 C1445 1.334 . S
C1445 H1422 0.950 . S
C1445 C1444 1.334 . S
C1445 C1446 1.287 . S
C1446 C1445 1.287 . S
C1446 C1447 1.524 1_655 S
C1446 H1465 0.906 1_655 S
C1447 H1423 0.950 . S
C1447 C1446 1.524 1_455 S
C1447 C1448 1.415 . S
C1448 H1424 0.950 1_554 S
C1448 C1443 1.363 1_455 S
C1448 C1447 1.415 . S
C1449 H1425 0.951 . S
C1449 C1450 1.366 1_655 S
C1449 C1451 1.388 . S
C1450 C1449 1.366 1_455 S
C1450 C1454 1.385 . S
C1451 H1426 0.951 . S
C1451 C1449 1.388 . S
C1451 C1452 1.366 . S
C1452 C1451 1.366 . S
C1452 C1453 1.414 1_655 S
C1452 C1455 1.499 . S
C1453 H1427 0.950 . S
C1453 C1452 1.414 1_455 S
C1453 C1454 1.374 . S
C1454 H1428 0.950 . S
C1454 C1450 1.385 . S
C1454 C1453 1.374 . S
C1455 C1452 1.499 . S
C1455 C1456 1.373 . S
C1455 C1457 1.389 . S
C1456 H1429 0.950 1_655 S
C1456 C1442 1.377 . S
C1456 C1455 1.373 . S
C1457 C1441 1.377 . S
C1457 C1455 1.389 . S
C1457 C1458 1.524 . S
C1458 C1457 1.524 . S
C1458 C1459 1.397 . S
C1458 C1463 1.363 . S
C1459 H1430 0.950 1_655 S
C1459 C1458 1.397 . S
C1459 C1460 1.334 . S
C1460 H1431 0.950 . S
C1460 C1459 1.334 . S
C1460 C1461 1.287 . S
C1461 C1460 1.287 . S
C1461 C1462 1.524 . S
C1461 H1464 0.999 . S
C1462 H1432 0.950 . S
C1462 C1461 1.524 . S
C1462 C1463 1.415 . S
C1463 H1433 0.950 . S
C1463 C1458 1.363 . S
C1463 C1462 1.415 . S
H1464 C1461 0.999 . S
H1465 C1446 0.906 1_455 S
H1466 C1484 0.951 . S
H1467 C1486 0.951 . S
H1468 C1488 0.950 . S
H1469 C1489 0.950 . S
H1470 C1491 0.950 . S
H1471 C1494 0.950 . S
H1472 C1495 0.950 1_565 S
H1473 C1497 0.950 . S
H1474 C1498 0.950 . S
H1475 C1499 0.951 . S
H1476 C1501 0.951 . S
H1477 C1503 0.950 . S
H1478 C1504 0.950 . S
H1479 C1506 0.952 . S
H1480 C1509 0.950 . S
H1481 C1510 0.950 . S
H1482 C1512 0.950 . S
H1483 C1513 0.950 . S
C1484 H1466 0.951 . S
C1484 C1485 1.366 . S
C1484 C1486 1.388 1_554 S
C1485 C1484 1.366 . S
C1485 C1489 1.385 . S
C1486 H1467 0.951 . S
C1486 C1484 1.388 1_556 S
C1486 C1487 1.366 . S
C1487 C1486 1.366 . S
C1487 C1488 1.414 . S
C1487 C1490 1.499 . S
C1488 H1468 0.950 . S
C1488 C1487 1.414 . S
C1488 C1489 1.374 1_556 S
C1489 H1469 0.950 . S
C1489 C1485 1.385 . S
C1489 C1488 1.374 1_554 S
C1490 C1487 1.499 . S
C1490 C1491 1.373 . S
C1490 C1492 1.389 . S
C1491 H1470 0.950 . S
C1491 C1490 1.373 . S
C1491 C1507 1.377 . S
C1492 C1490 1.389 . S
C1492 C1493 1.524 1_565 S
C1492 C1506 1.376 1_565 S
C1493 C1492 1.524 1_545 S
C1493 C1494 1.397 1_546 S
C1493 C1498 1.363 . S
C1494 H1471 0.950 . S
C1494 C1493 1.397 1_564 S
C1494 C1495 1.334 1_565 S
C1495 H1472 0.950 1_545 S
C1495 C1494 1.334 1_545 S
C1495 C1496 1.287 . S
C1496 C1495 1.287 . S
C1496 C1497 1.524 . S
C1496 H1515 0.913 . S
C1497 H1473 0.950 . S
C1497 C1496 1.524 . S
C1497 C1498 1.415 1_554 S
C1498 H1474 0.950 . S
C1498 C1493 1.363 . S
C1498 C1497 1.415 1_556 S
C1499 H1475 0.951 . S
C1499 C1500 1.366 1_565 S
C1499 C1501 1.388 . S
C1500 C1499 1.366 1_545 S
C1500 C1504 1.385 . S
C1501 H1476 0.951 . S
C1501 C1499 1.388 . S
C1501 C1502 1.366 . S
C1502 C1501 1.366 . S
C1502 C1503 1.414 1_565 S
C1502 C1505 1.499 . S
C1503 H1477 0.950 . S
C1503 C1502 1.414 1_545 S
C1503 C1504 1.374 . S
C1504 H1478 0.950 . S
C1504 C1500 1.385 . S
C1504 C1503 1.374 . S
C1505 C1502 1.499 . S
C1505 C1506 1.372 1_565 S
C1505 C1507 1.389 . S
C1506 H1479 0.952 . S
C1506 C1492 1.376 1_545 S
C1506 C1505 1.372 1_545 S
C1507 C1491 1.377 . S
C1507 C1505 1.389 . S
C1507 C1508 1.524 . S
C1508 C1507 1.524 . S
C1508 C1509 1.397 . S
C1508 C1513 1.363 . S
C1509 H1480 0.950 . S
C1509 C1508 1.397 . S
C1509 C1510 1.334 . S
C1510 H1481 0.950 . S
C1510 C1509 1.334 . S
C1510 C1511 1.287 . S
C1511 C1510 1.287 . S
C1511 C1512 1.524 . S
C1511 H1514 0.999 . S
C1512 H1482 0.950 . S
C1512 C1511 1.524 . S
C1512 C1513 1.415 . S
C1513 H1483 0.950 . S
C1513 C1508 1.363 . S
C1513 C1512 1.415 . S
H1514 C1511 0.999 . S
H1515 C1496 0.913 . S
H1516 C1534 0.951 . S
H1517 C1536 0.950 1_554 S
H1518 C1538 0.950 . S
H1519 C1539 0.950 . S
H1520 C1541 0.950 . S
H1521 C1544 0.950 . S
H1522 C1545 0.950 . S
H1523 C1547 0.950 . S
H1524 C1548 0.950 . S
H1525 C1549 0.951 . S
H1526 C1551 0.951 . S
H1527 C1553 0.950 . S
H1528 C1554 0.950 . S
H1529 C1556 0.950 . S
H1530 C1559 0.950 . S
H1531 C1560 0.950 . S
H1532 C1562 0.950 . S
H1533 C1563 0.950 . S
C1534 H1516 0.951 . S
C1534 C1535 1.366 . S
C1534 C1536 1.386 1_554 S
C1535 C1534 1.366 . S
C1535 C1539 1.385 1_554 S
C1536 H1517 0.950 1_556 S
C1536 C1534 1.386 1_556 S
C1536 C1537 1.368 . S
C1537 C1536 1.368 . S
C1537 C1538 1.414 . S
C1537 C1540 1.499 . S
C1538 H1518 0.950 . S
C1538 C1537 1.414 . S
C1538 C1539 1.374 . S
C1539 H1519 0.950 . S
C1539 C1535 1.385 1_556 S
C1539 C1538 1.374 . S
C1540 C1537 1.499 . S
C1540 C1541 1.373 . S
C1540 C1542 1.389 . S
C1541 H1520 0.950 . S
C1541 C1540 1.373 . S
C1541 C1557 1.377 . S
C1542 C1540 1.389 . S
C1542 C1543 1.524 1_556 S
C1542 C1556 1.377 . S
C1543 C1542 1.524 1_554 S
C1543 C1544 1.397 . S
C1543 C1548 1.363 . S
C1544 H1521 0.950 . S
C1544 C1543 1.397 . S
C1544 C1545 1.334 . S
C1545 H1522 0.950 . S
C1545 C1544 1.334 . S
C1545 C1546 1.287 . S
C1546 C1545 1.287 . S
C1546 C1547 1.524 . S
C1546 H1565 0.913 . S
C1547 H1523 0.950 . S
C1547 C1546 1.524 . S
C1547 C1548 1.415 . S
C1548 H1524 0.950 . S
C1548 C1543 1.363 . S
C1548 C1547 1.415 . S
C1549 H1525 0.951 . S
C1549 C1550 1.366 . S
C1549 C1551 1.388 . S
C1550 C1549 1.366 . S
C1550 C1554 1.385 . S
C1551 H1526 0.951 . S
C1551 C1549 1.388 . S
C1551 C1552 1.366 . S
C1552 C1551 1.366 . S
C1552 C1553 1.414 . S
C1552 C1555 1.499 . S
C1553 H1527 0.950 . S
C1553 C1552 1.414 . S
C1553 C1554 1.374 . S
C1554 H1528 0.950 . S
C1554 C1550 1.385 . S
C1554 C1553 1.374 . S
C1555 C1552 1.499 . S
C1555 C1556 1.373 . S
C1555 C1557 1.389 . S
C1556 H1529 0.950 . S
C1556 C1542 1.377 . S
C1556 C1555 1.373 . S
C1557 C1541 1.377 . S
C1557 C1555 1.389 . S
C1557 C1558 1.524 . S
C1558 C1557 1.524 . S
C1558 C1559 1.397 . S
C1558 C1563 1.363 . S
C1559 H1530 0.950 . S
C1559 C1558 1.397 . S
C1559 C1560 1.334 . S
C1560 H1531 0.950 . S
C1560 C1559 1.334 . S
C1560 C1561 1.287 . S
C1561 C1560 1.287 . S
C1561 C1562 1.524 . S
C1561 H1564 0.999 . S
C1562 H1532 0.950 . S
C1562 C1561 1.524 . S
C1562 C1563 1.415 . S
C1563 H1533 0.950 . S
C1563 C1558 1.363 . S
C1563 C1562 1.415 . S
H1564 C1561 0.999 . S
H1565 C1546 0.913 . S
H1566 C1584 0.951 . S
H1567 C1586 0.951 . S
H1568 C1588 0.950 . S
H1569 C1589 0.950 . S
H1570 C1591 0.950 . S
H1571 C1594 0.950 . S
H1572 C1595 0.950 . S
H1573 C1597 0.950 . S
H1574 C1598 0.950 . S
H1575 C1599 0.951 . S
H1576 C1601 0.951 . S
H1577 C1603 0.950 . S
H1578 C1604 0.950 . S
H1579 C1606 0.950 . S
H1580 C1609 0.950 . S
H1581 C1610 0.950 . S
H1582 C1612 0.950 . S
H1583 C1613 0.950 1_554 S
C1584 H1566 0.951 . S
C1584 C1585 1.366 1_556 S
C1584 C1586 1.388 . S
C1585 C1584 1.366 1_554 S
C1585 C1589 1.385 . S
C1586 H1567 0.951 . S
C1586 C1584 1.388 . S
C1586 C1587 1.366 . S
C1587 C1586 1.366 . S
C1587 C1588 1.414 1_556 S
C1587 C1590 1.499 . S
C1588 H1568 0.950 . S
C1588 C1587 1.414 1_554 S
C1588 C1589 1.374 . S
C1589 H1569 0.950 . S
C1589 C1585 1.385 . S
C1589 C1588 1.374 . S
C1590 C1587 1.499 . S
C1590 C1591 1.373 . S
C1590 C1592 1.389 . S
C1591 H1570 0.950 . S
C1591 C1590 1.373 . S
C1591 C1607 1.377 . S
C1592 C1590 1.389 . S
C1592 C1593 1.524 . S
C1592 C1606 1.377 . S
C1593 C1592 1.524 . S
C1593 C1594 1.397 . S
C1593 C1598 1.363 . S
C1594 H1571 0.950 . S
C1594 C1593 1.397 . S
C1594 C1595 1.334 . S
C1595 H1572 0.950 . S
C1595 C1594 1.334 . S
C1595 C1596 1.287 . S
C1596 C1595 1.287 . S
C1596 C1597 1.524 . S
C1596 H1615 0.913 . S
C1597 H1573 0.950 . S
C1597 C1596 1.524 . S
C1597 C1598 1.415 . S
C1598 H1574 0.950 . S
C1598 C1593 1.363 . S
C1598 C1597 1.415 . S
C1599 H1575 0.951 . S
C1599 C1600 1.366 . S
C1599 C1601 1.388 . S
C1600 C1599 1.366 . S
C1600 C1604 1.385 . S
C1601 H1576 0.951 . S
C1601 C1599 1.388 . S
C1601 C1602 1.366 . S
C1602 C1601 1.366 . S
C1602 C1603 1.414 . S
C1602 C1605 1.499 . S
C1603 H1577 0.950 . S
C1603 C1602 1.414 . S
C1603 C1604 1.374 . S
C1604 H1578 0.950 . S
C1604 C1600 1.385 . S
C1604 C1603 1.374 . S
C1605 C1602 1.499 . S
C1605 C1606 1.373 . S
C1605 C1607 1.389 . S
C1606 H1579 0.950 . S
C1606 C1592 1.377 . S
C1606 C1605 1.373 . S
C1607 C1591 1.377 . S
C1607 C1605 1.389 . S
C1607 C1608 1.524 . S
C1608 C1607 1.524 . S
C1608 C1609 1.397 . S
C1608 C1613 1.363 . S
C1609 H1580 0.950 . S
C1609 C1608 1.397 . S
C1609 C1610 1.334 . S
C1610 H1581 0.950 . S
C1610 C1609 1.334 . S
C1610 C1611 1.287 . S
C1611 C1610 1.287 . S
C1611 C1612 1.524 1_556 S
C1611 H1614 0.999 1_556 S
C1612 H1582 0.950 . S
C1612 C1611 1.524 1_554 S
C1612 C1613 1.415 1_554 S
C1613 H1583 0.950 1_556 S
C1613 C1608 1.363 . S
C1613 C1612 1.415 1_556 S
H1614 C1611 0.999 1_554 S
H1615 C1596 0.913 . S
H1616 C1634 0.951 . S
H1617 C1636 0.951 . S
H1618 C1638 0.950 . S
H1619 C1639 0.950 . S
H1620 C1641 0.950 . S
H1621 C1644 0.950 . S
H1622 C1645 0.950 . S
H1623 C1647 0.950 . S
H1624 C1648 0.950 . S
H1625 C1649 0.951 1_655 S
H1626 C1651 0.946 . S
H1627 C1653 0.950 . S
H1628 C1654 0.950 . S
H1629 C1656 0.950 . S
H1630 C1659 0.950 . S
H1631 C1660 0.950 . S
H1632 C1662 0.950 1_655 S
H1633 C1663 0.950 1_655 S
C1634 H1616 0.951 . S
C1634 C1635 1.366 . S
C1634 C1636 1.388 . S
C1635 C1634 1.366 . S
C1635 C1639 1.385 . S
C1636 H1617 0.951 . S
C1636 C1634 1.388 . S
C1636 C1637 1.366 . S
C1637 C1636 1.366 . S
C1637 C1638 1.414 . S
C1637 C1640 1.499 . S
C1638 H1618 0.950 . S
C1638 C1637 1.414 . S
C1638 C1639 1.374 . S
C1639 H1619 0.950 . S
C1639 C1635 1.385 . S
C1639 C1638 1.374 . S
C1640 C1637 1.499 . S
C1640 C1641 1.373 . S
C1640 C1642 1.389 . S
C1641 H1620 0.950 . S
C1641 C1640 1.373 . S
C1641 C1657 1.377 . S
C1642 C1640 1.389 . S
C1642 C1643 1.524 . S
C1642 C1656 1.377 . S
C1643 C1642 1.524 . S
C1643 C1644 1.397 . S
C1643 C1648 1.363 . S
C1644 H1621 0.950 . S
C1644 C1643 1.397 . S
C1644 C1645 1.334 . S
C1645 H1622 0.950 . S
C1645 C1644 1.334 . S
C1645 C1646 1.287 . S
C1646 C1645 1.287 . S
C1646 C1647 1.524 . S
C1646 H1665 0.913 . S
C1647 H1623 0.950 . S
C1647 C1646 1.524 . S
C1647 C1648 1.415 . S
C1648 H1624 0.950 . S
C1648 C1643 1.363 . S
C1648 C1647 1.415 . S
C1649 H1625 0.951 1_455 S
C1649 C1650 1.366 . S
C1649 C1651 1.388 . S
C1650 C1649 1.366 . S
C1650 C1654 1.385 . S
C1651 H1626 0.946 . S
C1651 C1649 1.388 . S
C1651 C1652 1.366 . S
C1652 C1651 1.366 . S
C1652 C1653 1.414 . S
C1652 C1655 1.499 . S
C1653 H1627 0.950 . S
C1653 C1652 1.414 . S
C1653 C1654 1.374 . S
C1654 H1628 0.950 . S
C1654 C1650 1.385 . S
C1654 C1653 1.374 . S
C1655 C1652 1.499 . S
C1655 C1656 1.373 . S
C1655 C1657 1.389 . S
C1656 H1629 0.950 . S
C1656 C1642 1.377 . S
C1656 C1655 1.373 . S
C1657 C1641 1.377 . S
C1657 C1655 1.389 . S
C1657 C1658 1.524 . S
C1658 C1657 1.524 . S
C1658 C1659 1.397 . S
C1658 C1663 1.363 . S
C1659 H1630 0.950 . S
C1659 C1658 1.397 . S
C1659 C1660 1.334 . S
C1660 H1631 0.950 . S
C1660 C1659 1.334 . S
C1660 C1661 1.287 . S
C1661 C1660 1.287 . S
C1661 C1662 1.524 . S
C1661 H1664 0.999 . S
C1662 H1632 0.950 1_455 S
C1662 C1661 1.524 . S
C1662 C1663 1.415 . S
C1663 H1633 0.950 1_455 S
C1663 C1658 1.363 . S
C1663 C1662 1.415 . S
H1664 C1661 0.999 . S
H1665 C1646 0.913 . S
H1666 C1684 0.951 . S
H1667 C1686 0.951 . S
H1668 C1688 0.950 . S
H1669 C1689 0.950 . S
H1670 C1691 0.950 . S
H1671 C1694 0.950 . S
H1672 C1695 0.950 . S
H1673 C1697 0.950 . S
H1674 C1698 0.950 . S
H1675 C1699 0.951 . S
H1676 C1701 0.951 . S
H1677 C1703 0.950 . S
H1678 C1704 0.950 . S
H1679 C1706 0.950 . S
H1680 C1709 0.950 . S
H1681 C1710 0.950 . S
H1682 C1712 0.950 . S
H1683 C1713 0.950 . S
C1684 H1666 0.951 . S
C1684 C1685 1.366 . S
C1684 C1686 1.388 . S
C1685 C1684 1.366 . S
C1685 C1689 1.385 . S
C1686 H1667 0.951 . S
C1686 C1684 1.388 . S
C1686 C1687 1.366 . S
C1687 C1686 1.366 . S
C1687 C1688 1.414 . S
C1687 C1690 1.499 . S
C1688 H1668 0.950 . S
C1688 C1687 1.414 . S
C1688 C1689 1.374 . S
C1689 H1669 0.950 . S
C1689 C1685 1.385 . S
C1689 C1688 1.374 . S
C1690 C1687 1.499 . S
C1690 C1691 1.373 . S
C1690 C1692 1.389 . S
C1691 H1670 0.950 . S
C1691 C1690 1.373 . S
C1691 C1707 1.377 . S
C1692 C1690 1.389 . S
C1692 C1693 1.524 . S
C1692 C1706 1.377 . S
C1693 C1692 1.524 . S
C1693 C1694 1.397 1_545 S
C1693 C1698 1.363 . S
C1694 H1671 0.950 . S
C1694 C1693 1.397 1_565 S
C1694 C1695 1.334 . S
C1695 H1672 0.950 . S
C1695 C1694 1.334 . S
C1695 C1696 1.287 . S
C1696 C1695 1.287 . S
C1696 C1697 1.524 . S
C1696 H1715 0.913 . S
C1697 H1673 0.950 . S
C1697 C1696 1.524 . S
C1697 C1698 1.415 1_565 S
C1698 H1674 0.950 . S
C1698 C1693 1.363 . S
C1698 C1697 1.415 1_545 S
C1699 H1675 0.951 . S
C1699 C1700 1.366 . S
C1699 C1701 1.388 . S
C1700 C1699 1.366 . S
C1700 C1704 1.385 . S
C1701 H1676 0.951 . S
C1701 C1699 1.388 . S
C1701 C1702 1.366 . S
C1702 C1701 1.366 . S
C1702 C1703 1.414 . S
C1702 C1705 1.499 . S
C1703 H1677 0.950 . S
C1703 C1702 1.414 . S
C1703 C1704 1.374 . S
C1704 H1678 0.950 . S
C1704 C1700 1.385 . S
C1704 C1703 1.374 . S
C1705 C1702 1.499 . S
C1705 C1706 1.373 . S
C1705 C1707 1.389 . S
C1706 H1679 0.950 . S
C1706 C1692 1.377 . S
C1706 C1705 1.373 . S
C1707 C1691 1.377 . S
C1707 C1705 1.389 . S
C1707 C1708 1.524 . S
C1708 C1707 1.524 . S
C1708 C1709 1.397 . S
C1708 C1713 1.363 . S
C1709 H1680 0.950 . S
C1709 C1708 1.397 . S
C1709 C1710 1.334 . S
C1710 H1681 0.950 . S
C1710 C1709 1.334 . S
C1710 C1711 1.287 . S
C1711 C1710 1.287 . S
C1711 C1712 1.524 . S
C1711 H1714 0.999 . S
C1712 H1682 0.950 . S
C1712 C1711 1.524 . S
C1712 C1713 1.415 . S
C1713 H1683 0.950 . S
C1713 C1708 1.363 . S
C1713 C1712 1.415 . S
H1714 C1711 0.999 . S
H1715 C1696 0.913 . S
H1716 C1734 0.951 . S
H1717 C1736 0.951 . S
H1718 C1738 0.950 . S
H1719 C1739 0.950 . S
H1720 C1741 0.950 . S
H1721 C1744 0.950 . S
H1722 C1745 0.950 . S
H1723 C1747 0.950 . S
H1724 C1748 0.950 . S
H1725 C1749 0.951 . S
H1726 C1751 0.951 . S
H1727 C1753 0.950 . S
H1728 C1754 0.950 . S
H1729 C1756 0.950 . S
H1730 C1759 0.950 . S
H1731 C1760 0.950 . S
H1732 C1762 0.950 . S
H1733 C1763 0.950 . S
C1734 H1716 0.951 . S
C1734 C1735 1.366 . S
C1734 C1736 1.388 . S
C1735 C1734 1.366 . S
C1735 C1739 1.385 . S
C1736 H1717 0.951 . S
C1736 C1734 1.388 . S
C1736 C1737 1.366 . S
C1737 C1736 1.366 . S
C1737 C1738 1.414 . S
C1737 C1740 1.499 . S
C1738 H1718 0.950 . S
C1738 C1737 1.414 . S
C1738 C1739 1.374 . S
C1739 H1719 0.950 . S
C1739 C1735 1.385 . S
C1739 C1738 1.374 . S
C1740 C1737 1.499 . S
C1740 C1741 1.373 . S
C1740 C1742 1.389 . S
C1741 H1720 0.950 . S
C1741 C1740 1.373 . S
C1741 C1757 1.377 . S
C1742 C1740 1.389 . S
C1742 C1743 1.524 . S
C1742 C1756 1.377 . S
C1743 C1742 1.524 . S
C1743 C1744 1.397 . S
C1743 C1748 1.363 . S
C1744 H1721 0.950 . S
C1744 C1743 1.397 . S
C1744 C1745 1.334 . S
C1745 H1722 0.950 . S
C1745 C1744 1.334 . S
C1745 C1746 1.287 . S
C1746 C1745 1.287 . S
C1746 C1747 1.524 . S
C1746 H1765 0.913 . S
C1747 H1723 0.950 . S
C1747 C1746 1.524 . S
C1747 C1748 1.415 . S
C1748 H1724 0.950 . S
C1748 C1743 1.363 . S
C1748 C1747 1.415 . S
C1749 H1725 0.951 . S
C1749 C1750 1.366 . S
C1749 C1751 1.388 . S
C1750 C1749 1.366 . S
C1750 C1754 1.385 . S
C1751 H1726 0.951 . S
C1751 C1749 1.388 . S
C1751 C1752 1.366 . S
C1752 C1751 1.366 . S
C1752 C1753 1.414 . S
C1752 C1755 1.499 . S
C1753 H1727 0.950 . S
C1753 C1752 1.414 . S
C1753 C1754 1.374 . S
C1754 H1728 0.950 . S
C1754 C1750 1.385 . S
C1754 C1753 1.374 . S
C1755 C1752 1.499 . S
C1755 C1756 1.373 . S
C1755 C1757 1.389 . S
C1756 H1729 0.950 . S
C1756 C1742 1.377 . S
C1756 C1755 1.373 . S
C1757 C1741 1.377 . S
C1757 C1755 1.389 . S
C1757 C1758 1.524 . S
C1758 C1757 1.524 . S
C1758 C1759 1.397 . S
C1758 C1763 1.363 . S
C1759 H1730 0.950 . S
C1759 C1758 1.397 . S
C1759 C1760 1.334 . S
C1760 H1731 0.950 . S
C1760 C1759 1.334 . S
C1760 C1761 1.287 . S
C1761 C1760 1.287 . S
C1761 C1762 1.524 . S
C1761 H1764 0.999 . S
C1762 H1732 0.950 . S
C1762 C1761 1.524 . S
C1762 C1763 1.415 . S
C1763 H1733 0.950 . S
C1763 C1758 1.363 . S
C1763 C1762 1.415 . S
H1764 C1761 0.999 . S
H1765 C1746 0.913 . S
H1766 C1784 0.951 . S
H1767 C1786 0.951 . S
H1768 C1788 0.950 . S
H1769 C1789 0.950 . S
H1770 C1791 0.950 . S
H1771 C1794 0.950 . S
H1772 C1795 0.950 . S
H1773 C1797 0.950 . S
H1774 C1798 0.950 . S
H1775 C1799 0.951 . S
H1776 C1801 0.951 . S
H1777 C1803 0.950 . S
H1778 C1804 0.950 . S
H1779 C1806 0.950 . S
H1780 C1809 0.950 . S
H1781 C1810 0.950 . S
H1782 C1812 0.950 . S
H1783 C1813 0.950 . S
C1784 H1766 0.951 . S
C1784 C1785 1.366 . S
C1784 C1786 1.388 . S
C1785 C1784 1.366 . S
C1785 C1789 1.385 . S
C1786 H1767 0.951 . S
C1786 C1784 1.388 . S
C1786 C1787 1.366 . S
C1787 C1786 1.366 . S
C1787 C1788 1.414 . S
C1787 C1790 1.499 . S
C1788 H1768 0.950 . S
C1788 C1787 1.414 . S
C1788 C1789 1.374 . S
C1789 H1769 0.950 . S
C1789 C1785 1.385 . S
C1789 C1788 1.374 . S
C1790 C1787 1.499 . S
C1790 C1791 1.373 . S
C1790 C1792 1.389 . S
C1791 H1770 0.950 . S
C1791 C1790 1.373 . S
C1791 C1807 1.377 . S
C1792 C1790 1.389 . S
C1792 C1793 1.524 . S
C1792 C1806 1.377 . S
C1793 C1792 1.524 . S
C1793 C1794 1.397 . S
C1793 C1798 1.363 . S
C1794 H1771 0.950 . S
C1794 C1793 1.397 . S
C1794 C1795 1.334 . S
C1795 H1772 0.950 . S
C1795 C1794 1.334 . S
C1795 C1796 1.287 . S
C1796 C1795 1.287 . S
C1796 C1797 1.524 . S
C1796 H1815 0.913 . S
C1797 H1773 0.950 . S
C1797 C1796 1.524 . S
C1797 C1798 1.415 . S
C1798 H1774 0.950 . S
C1798 C1793 1.363 . S
C1798 C1797 1.415 . S
C1799 H1775 0.951 . S
C1799 C1800 1.366 . S
C1799 C1801 1.388 . S
C1800 C1799 1.366 . S
C1800 C1804 1.385 . S
C1801 H1776 0.951 . S
C1801 C1799 1.388 . S
C1801 C1802 1.366 . S
C1802 C1801 1.366 . S
C1802 C1803 1.414 . S
C1802 C1805 1.499 . S
C1803 H1777 0.950 . S
C1803 C1802 1.414 . S
C1803 C1804 1.374 . S
C1804 H1778 0.950 . S
C1804 C1800 1.385 . S
C1804 C1803 1.374 . S
C1805 C1802 1.499 . S
C1805 C1806 1.373 . S
C1805 C1807 1.389 . S
C1806 H1779 0.950 . S
C1806 C1792 1.377 . S
C1806 C1805 1.373 . S
C1807 C1791 1.377 . S
C1807 C1805 1.389 . S
C1807 C1808 1.524 . S
C1808 C1807 1.524 . S
C1808 C1809 1.397 . S
C1808 C1813 1.363 . S
C1809 H1780 0.950 . S
C1809 C1808 1.397 . S
C1809 C1810 1.334 . S
C1810 H1781 0.950 . S
C1810 C1809 1.334 . S
C1810 C1811 1.287 . S
C1811 C1810 1.287 . S
C1811 C1812 1.524 . S
C1811 H1814 0.999 . S
C1812 H1782 0.950 . S
C1812 C1811 1.524 . S
C1812 C1813 1.415 . S
C1813 H1783 0.950 . S
C1813 C1808 1.363 . S
C1813 C1812 1.415 . S
H1814 C1811 0.999 . S
H1815 C1796 0.913 . S
H1816 C1834 0.951 . S
H1817 C1836 0.937 1_455 S
H1818 C1838 0.950 . S
H1819 C1839 0.950 . S
H1820 C1841 0.950 . S
H1821 C1844 0.950 . S
H1822 C1845 0.921 1_655 S
H1823 C1847 0.950 . S
H1824 C1848 0.950 . S
H1825 C1849 0.951 . S
H1826 C1851 0.951 . S
H1827 C1853 0.950 . S
H1828 C1854 0.950 . S
H1829 C1856 0.950 1_455 S
H1830 C1859 0.950 . S
H1831 C1860 0.950 . S
H1832 C1862 0.950 . S
H1833 C1863 0.950 . S
C1834 H1816 0.951 . S
C1834 C1835 1.366 . S
C1834 C1836 1.388 . S
C1835 C1834 1.366 . S
C1835 C1839 1.385 . S
C1836 H1817 0.937 1_655 S
C1836 C1834 1.388 . S
C1836 C1837 1.366 . S
C1837 C1836 1.366 . S
C1837 C1838 1.414 . S
C1837 C1840 1.499 . S
C1838 H1818 0.950 . S
C1838 C1837 1.414 . S
C1838 C1839 1.374 . S
C1839 H1819 0.950 . S
C1839 C1835 1.385 . S
C1839 C1838 1.374 . S
C1840 C1837 1.499 . S
C1840 C1841 1.373 . S
C1840 C1842 1.389 . S
C1841 H1820 0.950 . S
C1841 C1840 1.373 . S
C1841 C1857 1.377 . S
C1842 C1840 1.389 . S
C1842 C1843 1.524 1_655 S
C1842 C1856 1.377 . S
C1843 C1842 1.524 1_455 S
C1843 C1844 1.397 1_455 S
C1843 C1848 1.363 . S
C1844 H1821 0.950 . S
C1844 C1843 1.397 1_655 S
C1844 C1845 1.304 1_655 S
C1845 H1822 0.921 1_455 S
C1845 C1844 1.304 1_455 S
C1845 C1846 1.349 . S
C1846 C1845 1.349 . S
C1846 C1847 1.524 . S
C1846 H1865 0.913 . S
C1847 H1823 0.950 . S
C1847 C1846 1.524 . S
C1847 C1848 1.415 . S
C1848 H1824 0.950 . S
C1848 C1843 1.363 . S
C1848 C1847 1.415 . S
C1849 H1825 0.951 . S
C1849 C1850 1.366 . S
C1849 C1851 1.388 . S
C1850 C1849 1.366 . S
C1850 C1854 1.385 1_655 S
C1851 H1826 0.951 . S
C1851 C1849 1.388 . S
C1851 C1852 1.366 . S
C1852 C1851 1.366 . S
C1852 C1853 1.414 1_655 S
C1852 C1855 1.499 . S
C1853 H1827 0.950 . S
C1853 C1852 1.414 1_455 S
C1853 C1854 1.374 . S
C1854 H1828 0.950 . S
C1854 C1850 1.385 1_455 S
C1854 C1853 1.374 . S
C1855 C1852 1.499 . S
C1855 C1856 1.373 . S
C1855 C1857 1.389 . S
C1856 H1829 0.950 1_655 S
C1856 C1842 1.377 . S
C1856 C1855 1.373 . S
C1857 C1841 1.377 . S
C1857 C1855 1.389 . S
C1857 C1858 1.524 . S
C1858 C1857 1.524 . S
C1858 C1859 1.397 . S
C1858 C1863 1.363 . S
C1859 H1830 0.950 . S
C1859 C1858 1.397 . S
C1859 C1860 1.334 . S
C1860 H1831 0.950 . S
C1860 C1859 1.334 . S
C1860 C1861 1.287 . S
C1861 C1860 1.287 . S
C1861 C1862 1.524 . S
C1861 H1864 0.999 . S
C1862 H1832 0.950 . S
C1862 C1861 1.524 . S
C1862 C1863 1.415 . S
C1863 H1833 0.950 . S
C1863 C1858 1.363 . S
C1863 C1862 1.415 . S
H1864 C1861 0.999 . S
H1865 C1846 0.913 . S
H1866 C1884 0.951 . S
H1867 C1886 0.951 . S
H1868 C1888 0.950 . S
H1869 C1889 0.950 . S
H1870 C1891 0.950 . S
H1871 C1894 0.950 . S
H1872 C1895 0.950 . S
H1873 C1897 0.950 . S
H1874 C1898 0.935 1_565 S
H1875 C1899 0.951 . S
H1876 C1901 0.951 . S
H1877 C1903 0.950 . S
H1878 C1904 0.950 . S
H1879 C1906 0.937 1_545 S
H1880 C1909 0.950 . S
H1881 C1910 0.950 . S
H1882 C1912 0.950 . S
H1883 C1913 0.950 . S
C1884 H1866 0.951 . S
C1884 C1885 1.366 . S
C1884 C1886 1.388 . S
C1885 C1884 1.366 . S
C1885 C1889 1.385 . S
C1886 H1867 0.951 . S
C1886 C1884 1.388 . S
C1886 C1887 1.366 . S
C1887 C1886 1.366 . S
C1887 C1888 1.414 . S
C1887 C1890 1.499 . S
C1888 H1868 0.950 . S
C1888 C1887 1.414 . S
C1888 C1889 1.374 . S
C1889 H1869 0.950 . S
C1889 C1885 1.385 . S
C1889 C1888 1.374 . S
C1890 C1887 1.499 . S
C1890 C1891 1.373 . S
C1890 C1892 1.389 . S
C1891 H1870 0.950 . S
C1891 C1890 1.373 . S
C1891 C1907 1.377 . S
C1892 C1890 1.389 . S
C1892 C1893 1.524 1_565 S
C1892 C1906 1.377 . S
C1893 C1892 1.524 1_545 S
C1893 C1894 1.397 . S
C1893 C1898 1.363 . S
C1894 H1871 0.950 . S
C1894 C1893 1.397 . S
C1894 C1895 1.334 . S
C1895 H1872 0.950 . S
C1895 C1894 1.334 . S
C1895 C1896 1.287 . S
C1896 C1895 1.287 . S
C1896 C1897 1.524 . S
C1896 H1915 0.913 . S
C1897 H1873 0.950 . S
C1897 C1896 1.524 . S
C1897 C1898 1.415 . S
C1898 H1874 0.935 1_545 S
C1898 C1893 1.363 . S
C1898 C1897 1.415 . S
C1899 H1875 0.951 . S
C1899 C1900 1.366 . S
C1899 C1901 1.388 . S
C1900 C1899 1.366 . S
C1900 C1904 1.385 . S
C1901 H1876 0.951 . S
C1901 C1899 1.388 . S
C1901 C1902 1.366 . S
C1902 C1901 1.366 . S
C1902 C1903 1.414 . S
C1902 C1905 1.499 . S
C1903 H1877 0.950 . S
C1903 C1902 1.414 . S
C1903 C1904 1.374 . S
C1904 H1878 0.950 . S
C1904 C1900 1.385 . S
C1904 C1903 1.374 . S
C1905 C1902 1.499 . S
C1905 C1906 1.373 . S
C1905 C1907 1.389 . S
C1906 H1879 0.937 1_565 S
C1906 C1892 1.377 . S
C1906 C1905 1.373 . S
C1907 C1891 1.377 . S
C1907 C1905 1.389 . S
C1907 C1908 1.524 . S
C1908 C1907 1.524 . S
C1908 C1909 1.397 . S
C1908 C1913 1.363 . S
C1909 H1880 0.950 . S
C1909 C1908 1.397 . S
C1909 C1910 1.334 . S
C1910 H1881 0.950 . S
C1910 C1909 1.334 . S
C1910 C1911 1.287 . S
C1911 C1910 1.287 . S
C1911 C1912 1.524 . S
C1911 H1914 0.999 . S
C1912 H1882 0.950 . S
C1912 C1911 1.524 . S
C1912 C1913 1.415 . S
C1913 H1883 0.950 . S
C1913 C1908 1.363 . S
C1913 C1912 1.415 . S
H1914 C1911 0.999 . S
H1915 C1896 0.913 . S
H1916 C1934 0.951 . S
H1917 C1936 0.951 . S
H1918 C1938 0.950 . S
H1919 C1939 0.950 . S
H1920 C1941 0.950 . S
H1921 C1944 0.950 . S
H1922 C1945 0.950 . S
H1923 C1947 0.950 . S
H1924 C1948 0.950 . S
H1925 C1949 0.951 . S
H1926 C1951 0.951 . S
H1927 C1953 0.950 . S
H1928 C1954 0.950 . S
H1929 C1956 0.950 . S
H1930 C1959 0.950 . S
H1931 C1960 0.950 . S
H1932 C1962 0.950 . S
H1933 C1963 0.950 . S
C1934 H1916 0.951 . S
C1934 C1935 1.366 . S
C1934 C1936 1.388 . S
C1935 C1934 1.366 . S
C1935 C1939 1.385 . S
C1936 H1917 0.951 . S
C1936 C1934 1.388 . S
C1936 C1937 1.366 . S
C1937 C1936 1.366 . S
C1937 C1938 1.414 . S
C1937 C1940 1.499 . S
C1938 H1918 0.950 . S
C1938 C1937 1.414 . S
C1938 C1939 1.374 . S
C1939 H1919 0.950 . S
C1939 C1935 1.385 . S
C1939 C1938 1.374 . S
C1940 C1937 1.499 . S
C1940 C1941 1.373 . S
C1940 C1942 1.389 . S
C1941 H1920 0.950 . S
C1941 C1940 1.373 . S
C1941 C1957 1.377 . S
C1942 C1940 1.389 . S
C1942 C1943 1.524 . S
C1942 C1956 1.377 . S
C1943 C1942 1.524 . S
C1943 C1944 1.397 . S
C1943 C1948 1.363 . S
C1944 H1921 0.950 . S
C1944 C1943 1.397 . S
C1944 C1945 1.334 . S
C1945 H1922 0.950 . S
C1945 C1944 1.334 . S
C1945 C1946 1.287 . S
C1946 C1945 1.287 . S
C1946 C1947 1.524 . S
C1946 H1965 0.913 . S
C1947 H1923 0.950 . S
C1947 C1946 1.524 . S
C1947 C1948 1.415 . S
C1948 H1924 0.950 . S
C1948 C1943 1.363 . S
C1948 C1947 1.415 . S
C1949 H1925 0.951 . S
C1949 C1950 1.366 . S
C1949 C1951 1.388 . S
C1950 C1949 1.366 . S
C1950 C1954 1.385 . S
C1951 H1926 0.951 . S
C1951 C1949 1.388 . S
C1951 C1952 1.366 . S
C1952 C1951 1.366 . S
C1952 C1953 1.414 . S
C1952 C1955 1.499 . S
C1953 H1927 0.950 . S
C1953 C1952 1.414 . S
C1953 C1954 1.374 . S
C1954 H1928 0.950 . S
C1954 C1950 1.385 . S
C1954 C1953 1.374 . S
C1955 C1952 1.499 . S
C1955 C1956 1.373 . S
C1955 C1957 1.389 . S
C1956 H1929 0.950 . S
C1956 C1942 1.377 . S
C1956 C1955 1.373 . S
C1957 C1941 1.377 . S
C1957 C1955 1.389 . S
C1957 C1958 1.524 . S
C1958 C1957 1.524 . S
C1958 C1959 1.397 . S
C1958 C1963 1.363 . S
C1959 H1930 0.950 . S
C1959 C1958 1.397 . S
C1959 C1960 1.334 . S
C1960 H1931 0.950 . S
C1960 C1959 1.334 . S
C1960 C1961 1.287 . S
C1961 C1960 1.287 . S
C1961 C1962 1.524 . S
C1961 H1964 0.999 . S
C1962 H1932 0.950 . S
C1962 C1961 1.524 . S
C1962 C1963 1.415 . S
C1963 H1933 0.950 . S
C1963 C1958 1.363 . S
C1963 C1962 1.415 . S
H1964 C1961 0.999 . S
H1965 C1946 0.913 . S
H1966 C1984 0.951 . S
H1967 C1986 0.951 . S
H1968 C1988 0.950 . S
H1969 C1989 0.950 . S
H1970 C1991 0.950 . S
H1971 C1994 0.950 . S
H1972 C1995 0.950 . S
H1973 C1997 0.950 . S
H1974 C1998 0.950 . S
H1975 C1999 0.951 . S
H1976 C2001 0.951 . S
H1977 C2003 0.950 . S
H1978 C2004 0.950 . S
H1979 C2006 0.950 . S
H1980 C2009 0.950 . S
H1981 C2010 0.950 . S
H1982 C2012 0.950 . S
H1983 C2013 0.950 . S
C1984 H1966 0.951 . S
C1984 C1985 1.366 . S
C1984 C1986 1.388 . S
C1985 C1984 1.366 . S
C1985 C1989 1.385 . S
C1986 H1967 0.951 . S
C1986 C1984 1.388 . S
C1986 C1987 1.366 . S
C1987 C1986 1.366 . S
C1987 C1988 1.414 . S
C1987 C1990 1.499 . S
C1988 H1968 0.950 . S
C1988 C1987 1.414 . S
C1988 C1989 1.374 . S
C1989 H1969 0.950 . S
C1989 C1985 1.385 . S
C1989 C1988 1.374 . S
C1990 C1987 1.499 . S
C1990 C1991 1.373 . S
C1990 C1992 1.389 . S
C1991 H1970 0.950 . S
C1991 C1990 1.373 . S
C1991 C2007 1.377 . S
C1992 C1990 1.389 . S
C1992 C1993 1.524 . S
C1992 C2006 1.377 . S
C1993 C1992 1.524 . S
C1993 C1994 1.397 . S
C1993 C1998 1.363 . S
C1994 H1971 0.950 . S
C1994 C1993 1.397 . S
C1994 C1995 1.334 . S
C1995 H1972 0.950 . S
C1995 C1994 1.334 . S
C1995 C1996 1.287 . S
C1996 C1995 1.287 . S
C1996 C1997 1.524 . S
C1996 H2015 0.913 . S
C1997 H1973 0.950 . S
C1997 C1996 1.524 . S
C1997 C1998 1.415 . S
C1998 H1974 0.950 . S
C1998 C1993 1.363 . S
C1998 C1997 1.415 . S
C1999 H1975 0.951 . S
C1999 C2000 1.366 . S
C1999 C2001 1.388 . S
C2000 C1999 1.366 . S
C2000 C2004 1.385 . S
C2001 H1976 0.951 . S
C2001 C1999 1.388 . S
C2001 C2002 1.366 . S
C2002 C2001 1.366 . S
C2002 C2003 1.414 . S
C2002 C2005 1.499 . S
C2003 H1977 0.950 . S
C2003 C2002 1.414 . S
C2003 C2004 1.374 . S
C2004 H1978 0.950 . S
C2004 C2000 1.385 . S
C2004 C2003 1.374 . S
C2005 C2002 1.499 . S
C2005 C2006 1.373 . S
C2005 C2007 1.389 . S
C2006 H1979 0.950 . S
C2006 C1992 1.377 . S
C2006 C2005 1.373 . S
C2007 C1991 1.377 . S
C2007 C2005 1.389 . S
C2007 C2008 1.524 . S
C2008 C2007 1.524 . S
C2008 C2009 1.397 . S
C2008 C2013 1.363 . S
C2009 H1980 0.950 . S
C2009 C2008 1.397 . S
C2009 C2010 1.334 . S
C2010 H1981 0.950 . S
C2010 C2009 1.334 . S
C2010 C2011 1.287 . S
C2011 C2010 1.287 . S
C2011 C2012 1.524 . S
C2011 H2014 0.999 . S
C2012 H1982 0.950 . S
C2012 C2011 1.524 . S
C2012 C2013 1.415 . S
C2013 H1983 0.950 . S
C2013 C2008 1.363 . S
C2013 C2012 1.415 . S
H2014 C2011 0.999 . S
H2015 C1996 0.913 . S
C835 C391 2.172 . S
C850 C548 2.187 . S
C900 C631 2.207 . S
C885 C451 2.191 . S
C950 C716 2.175 . S
C935 C241 1.902 . S
C1000 C800 2.156 . S
C985 C331 1.885 . S
C1050 C536 2.186 1_565 S
C1035 C121 1.953 . S
C1085 C211 2.155 . S
C1100 C619 2.208 . S
C1135 C31 2.127 . S
C1150 C704 2.176 . S
C1185 C91 1.921 . S
C1200 C788 2.155 1_655 S
C1250 C538 0.429 1_455 S
C1235 C301 0.484 . S
C1300 C634 0.525 . S
C1285 C380 0.199 . S
C1350 C706 0.428 . S
C1335 C440 0.253 . S
C1385 C260 0.480 . S
C1400 C790 0.426 . S
C1435 C61 0.385 . S
C1450 C550 0.430 . S
C1500 C622 0.525 . S
C1485 C140 0.377 . S
C1550 C718 0.428 . S
C1535 C200 0.389 . S
C1585 C20 0.373 . S
C1600 C802 0.422 . S
C1635 C320 2.516 . S
C1650 C535 2.651 . S
C1685 C361 2.226 . S
C1700 C620 2.657 . S
C1750 C703 2.679 . S
C1735 C421 2.264 . S
C1800 C787 2.681 . S
C1785 C271 2.546 . S
C1835 C80 2.545 . S
C1850 C547 2.650 . S
C1900 C632 2.657 . S
C1885 C151 2.532 . S
C1950 C715 2.679 . S
C1935 C181 2.228 . S
C1985 C1 2.234 . S
C2000 C799 2.681 . S
