# Generated by pormake.
# Topology pyr, (3,6)-cn, num edge types: 1
# Building blocks:
#     Node 0, Type 0, BuildingBlock: VETTIZ_charged_linker_0, # of connection points: 3
#     Node 1, Type 0, BuildingBlock: VETTIZ_charged_linker_0, # of connection points: 3
#     Node 2, Type 0, BuildingBlock: VETTIZ_charged_linker_0, # of connection points: 3
#     Node 3, Type 0, BuildingBlock: VETTIZ_charged_linker_0, # of connection points: 3
#     Node 4, Type 0, BuildingBlock: VETTIZ_charged_linker_0, # of connection points: 3
#     Node 5, Type 0, BuildingBlock: VETTIZ_charged_linker_0, # of connection points: 3
#     Node 6, Type 0, BuildingBlock: VETTIZ_charged_linker_0, # of connection points: 3
#     Node 7, Type 0, BuildingBlock: VETTIZ_charged_linker_0, # of connection points: 3
#     Node 8, Type 1, BuildingBlock: PAMTOO_clean_sbu_0, # of connection points: 6
#     Node 9, Type 1, BuildingBlock: PAMTOO_clean_sbu_0, # of connection points: 6
#     Node 10, Type 1, BuildingBlock: PAMTOO_clean_sbu_0, # of connection points: 6
#     Node 11, Type 1, BuildingBlock: PAMTOO_clean_sbu_0, # of connection points: 6
#     Edge 12, Type (0, 1), BuildingBlock: AJUNOK_clean_linker_0, # of connection points: 2
#     Edge 13, Type (0, 1), BuildingBlock: AJUNOK_clean_linker_0, # of connection points: 2
#     Edge 14, Type (0, 1), BuildingBlock: AJUNOK_clean_linker_0, # of connection points: 2
#     Edge 15, Type (0, 1), BuildingBlock: AJUNOK_clean_linker_0, # of connection points: 2
#     Edge 16, Type (0, 1), BuildingBlock: AJUNOK_clean_linker_0, # of connection points: 2
#     Edge 17, Type (0, 1), BuildingBlock: AJUNOK_clean_linker_0, # of connection points: 2
#     Edge 18, Type (0, 1), BuildingBlock: AJUNOK_clean_linker_0, # of connection points: 2
#     Edge 19, Type (0, 1), BuildingBlock: AJUNOK_clean_linker_0, # of connection points: 2
#     Edge 20, Type (0, 1), BuildingBlock: AJUNOK_clean_linker_0, # of connection points: 2
#     Edge 21, Type (0, 1), BuildingBlock: AJUNOK_clean_linker_0, # of connection points: 2
#     Edge 22, Type (0, 1), BuildingBlock: AJUNOK_clean_linker_0, # of connection points: 2
#     Edge 23, Type (0, 1), BuildingBlock: AJUNOK_clean_linker_0, # of connection points: 2
#     Edge 24, Type (0, 1), BuildingBlock: AJUNOK_clean_linker_0, # of connection points: 2
#     Edge 25, Type (0, 1), BuildingBlock: AJUNOK_clean_linker_0, # of connection points: 2
#     Edge 26, Type (0, 1), BuildingBlock: AJUNOK_clean_linker_0, # of connection points: 2
#     Edge 27, Type (0, 1), BuildingBlock: AJUNOK_clean_linker_0, # of connection points: 2
#     Edge 28, Type (0, 1), BuildingBlock: AJUNOK_clean_linker_0, # of connection points: 2
#     Edge 29, Type (0, 1), BuildingBlock: AJUNOK_clean_linker_0, # of connection points: 2
#     Edge 30, Type (0, 1), BuildingBlock: AJUNOK_clean_linker_0, # of connection points: 2
#     Edge 31, Type (0, 1), BuildingBlock: AJUNOK_clean_linker_0, # of connection points: 2
#     Edge 32, Type (0, 1), BuildingBlock: AJUNOK_clean_linker_0, # of connection points: 2
#     Edge 33, Type (0, 1), BuildingBlock: AJUNOK_clean_linker_0, # of connection points: 2
#     Edge 34, Type (0, 1), BuildingBlock: AJUNOK_clean_linker_0, # of connection points: 2
#     Edge 35, Type (0, 1), BuildingBlock: AJUNOK_clean_linker_0, # of connection points: 2
# Relax obj value: 0.128
# Max RMSD: 0.173
# Mean RMSD: 0.073
data_MOF--net-pyr--node1-PAMTOO_clean_sbu_0--node2-VETTIZ_charged_linker_0--edge1-AJUNOK_clean_linker_0
_symmetry_space_group_name_H-M    P1
_symmetry_Int_Tables_number       1
_symmetry_cell_setting            triclinic
loop_
_symmetry_equiv_pos_as_xyz
'x, y, z'
_cell_length_a     35.684931
_cell_length_b     37.048498
_cell_length_c     35.945674
_cell_angle_alpha  90.089693
_cell_angle_beta   89.988283
_cell_angle_gamma 103.46506
loop_
_atom_site_label
_atom_site_type_symbol
_atom_site_fract_x
_atom_site_fract_y
_atom_site_fract_z
_atom_type_partial_charge
C0 C 0.35003 0.25049 0.39024 0.0
C1 C 0.31814 0.25593 0.41067 0.0
C2 C 0.29816 0.28208 0.39776 0.0
C3 C 0.33451 0.28845 0.34042 0.0
C4 C 0.35719 0.26631 0.3548 0.0
C5 C 0.38348 0.25612 0.32582 0.0
H6 H 0.41365 0.22749 0.14522 0.0
C7 C 0.34211 0.29254 0.30011 0.0
C8 C 0.37116 0.27414 0.29132 0.0
H9 H 0.47186 0.19525 0.2406 0.0
H10 H 0.44259 0.23365 0.28037 0.0
H11 H 0.42321 0.31559 0.17162 0.0
H12 H 0.33182 0.21686 0.18273 0.0
H13 H 0.3124 0.25347 0.16652 0.0
H14 H 0.34723 0.23791 0.13863 0.0
H15 H 0.39293 0.29668 0.13309 0.0
H16 H 0.37919 0.32848 0.1657 0.0
C17 C 0.42566 0.27408 0.33685 0.0
C18 C 0.37416 0.21313 0.32273 0.0
C19 C 0.24645 0.33943 0.22073 0.0
C20 C 0.24116 0.34142 0.1823 0.0
C21 C 0.26834 0.33217 0.15789 0.0
C22 C 0.29975 0.31947 0.17189 0.0
C23 C 0.30376 0.31601 0.21062 0.0
C24 C 0.2779 0.32698 0.23423 0.0
C25 C 0.28655 0.32209 0.27446 0.0
C26 C 0.3216 0.30567 0.2713 0.0
C27 C 0.33138 0.30173 0.23389 0.0
C28 C 0.29703 0.36103 0.2928 0.0
C29 C 0.25121 0.29474 0.29213 0.0
C30 C 0.42017 0.22893 0.17469 0.0
C31 C 0.4441 0.20751 0.19008 0.0
C32 C 0.45318 0.21115 0.22821 0.0
C33 C 0.43584 0.23311 0.25128 0.0
C34 C 0.40857 0.25091 0.23618 0.0
C35 C 0.40251 0.25019 0.19822 0.0
C36 C 0.37285 0.27121 0.18715 0.0
C37 C 0.36111 0.28344 0.22492 0.0
C38 C 0.38163 0.27074 0.25355 0.0
C39 C 0.39276 0.30466 0.16288 0.0
C40 C 0.33925 0.24372 0.16753 0.0
H41 H 0.28882 0.31664 0.35373 0.0
H42 H 0.36615 0.23085 0.39976 0.0
H43 H 0.34247 0.20148 0.3237 0.0
H44 H 0.38362 0.20279 0.29652 0.0
H45 H 0.38733 0.2008 0.34604 0.0
H46 H 0.4276 0.3 0.35318 0.0
H47 H 0.43812 0.25497 0.35415 0.0
H48 H 0.44433 0.28283 0.31234 0.0
H49 H 0.22607 0.34686 0.23997 0.0
H50 H 0.2647 0.33393 0.12808 0.0
H51 H 0.3192 0.31206 0.15209 0.0
H52 H 0.31491 0.38172 0.27372 0.0
H53 H 0.2707 0.37085 0.29962 0.0
H54 H 0.31463 0.36182 0.31822 0.0
H55 H 0.23139 0.27895 0.27077 0.0
H56 H 0.25956 0.27297 0.30908 0.0
H57 H 0.23397 0.30961 0.30962 0.0
H58 H 0.27332 0.2868 0.41258 0.0
C59 C 0.30662 0.29879 0.36297 0.0
C60 C 0.10461 0.84442 0.68136 0.0
C61 C 0.08384 0.86804 0.69822 0.0
C62 C 0.07854 0.86655 0.73704 0.0
C63 C 0.11873 0.82227 0.74199 0.0
C64 C 0.12179 0.82184 0.70372 0.0
C65 C 0.1473 0.79717 0.69067 0.0
H66 H 0.27634 0.69614 0.73476 0.0
C67 C 0.14251 0.79818 0.7574 0.0
C68 C 0.15861 0.78254 0.72748 0.0
H69 H 0.24554 0.7272 0.62528 0.0
H70 H 0.19546 0.75368 0.65195 0.0
H71 H 0.27467 0.77476 0.77149 0.0
H72 H 0.19342 0.66896 0.76854 0.0
H73 H 0.18505 0.68955 0.81089 0.0
H74 H 0.23125 0.67883 0.80248 0.0
H75 H 0.28275 0.73286 0.79165 0.0
H76 H 0.25881 0.76226 0.81701 0.0
C77 C 0.18235 0.82181 0.67026 0.0
C78 C 0.1229 0.76579 0.66647 0.0
C79 C 0.18253 0.81049 0.89265 0.0
C80 C 0.20806 0.79444 0.91321 0.0
C81 C 0.21724 0.76186 0.89955 0.0
C82 C 0.2056 0.74862 0.86389 0.0
C83 C 0.1851 0.76847 0.84162 0.0
C84 C 0.17112 0.79683 0.85704 0.0
C85 C 0.1473 0.81278 0.82975 0.0
C86 C 0.15296 0.79187 0.79449 0.0
C87 C 0.17621 0.76687 0.80149 0.0
C88 C 0.16487 0.85503 0.8262 0.0
C89 C 0.10478 0.80289 0.84307 0.0
C90 C 0.25809 0.70775 0.71645 0.0
C91 C 0.26454 0.70934 0.67794 0.0
C92 C 0.241 0.72569 0.65509 0.0
C93 C 0.21213 0.74115 0.67066 0.0
C94 C 0.20744 0.74107 0.70956 0.0
C95 C 0.22983 0.72392 0.73163 0.0
C96 C 0.2231 0.72847 0.77241 0.0
C97 C 0.19257 0.75098 0.77137 0.0
C98 C 0.18377 0.75866 0.73451 0.0
C99 C 0.26166 0.75058 0.78936 0.0
C100 C 0.20763 0.68955 0.78974 0.0
H101 H 0.0917 0.84448 0.78849 0.0
H102 H 0.10849 0.84443 0.65146 0.0
H103 H 0.09361 0.75576 0.67853 0.0
H104 H 0.13514 0.74106 0.66499 0.0
H105 H 0.11946 0.7757 0.6378 0.0
H106 H 0.19089 0.8498 0.6833 0.0
H107 H 0.17553 0.82573 0.6406 0.0
H108 H 0.20849 0.81083 0.67176 0.0
H109 H 0.1746 0.83534 0.90238 0.0
H110 H 0.23594 0.74833 0.91531 0.0
H111 H 0.21534 0.72504 0.85402 0.0
H112 H 0.19666 0.86049 0.82257 0.0
H113 H 0.15895 0.87005 0.85148 0.0
H114 H 0.15392 0.86772 0.80209 0.0
H115 H 0.09917 0.77958 0.86335 0.0
H116 H 0.08443 0.79317 0.81987 0.0
H117 H 0.09689 0.82692 0.85689 0.0
H118 H 0.06253 0.88436 0.75059 0.0
C119 C 0.0957 0.84361 0.75899 0.0
C120 C 0.60194 0.26195 0.94484 0.0
C121 C 0.57075 0.23602 0.92926 0.0
C122 C 0.55377 0.24658 0.89657 0.0
C123 C 0.59979 0.30706 0.89585 0.0
C124 C 0.61608 0.2964 0.92771 0.0
C125 C 0.65082 0.32478 0.94031 0.0
H126 H 0.78473 0.48428 0.91664 0.0
C127 C 0.62302 0.34481 0.88496 0.0
C128 C 0.6531 0.35464 0.91107 0.0
H129 H 0.77695 0.40078 1.00201 0.0
H130 H 0.71728 0.36653 0.9767 0.0
H131 H 0.69023 0.48371 0.91895 0.0
H132 H 0.75655 0.42775 0.84823 0.0
H133 H 0.72413 0.44511 0.82046 0.0
H134 H 0.76101 0.477 0.84608 0.0
H135 H 0.72397 0.50811 0.88532 0.0
H136 H 0.67504 0.48619 0.87268 0.0
C137 C 0.64204 0.33857 0.97945 0.0
C138 C 0.68601 0.30672 0.93859 0.0
C139 C 0.58621 0.41667 0.77353 0.0
C140 C 0.60353 0.45119 0.75671 0.0
C141 C 0.63806 0.47205 0.77266 0.0
C142 C 0.65481 0.45929 0.804 0.0
C143 C 0.63735 0.42489 0.8201 0.0
C144 C 0.60371 0.40396 0.80471 0.0
C145 C 0.59022 0.36723 0.82478 0.0
C146 C 0.6203 0.37026 0.85554 0.0
C147 C 0.64807 0.40431 0.85255 0.0
C148 C 0.54958 0.36503 0.84069 0.0
C149 C 0.5919 0.33566 0.79714 0.0
C150 C 0.76978 0.45875 0.92988 0.0
C151 C 0.7859 0.44499 0.96128 0.0
C152 C 0.76556 0.4117 0.97763 0.0
C153 C 0.73071 0.39175 0.96276 0.0
C154 C 0.71554 0.40478 0.93075 0.0
C155 C 0.73451 0.43804 0.91505 0.0
C156 C 0.7131 0.44717 0.88121 0.0
C157 C 0.67895 0.41342 0.8789 0.0
C158 C 0.68094 0.38882 0.90806 0.0
C159 C 0.69998 0.48331 0.88958 0.0
C160 C 0.73997 0.44971 0.84705 0.0
H161 H 0.55377 0.28816 0.8553 0.0
H162 H 0.61569 0.25554 0.97004 0.0
H163 H 0.68212 0.28476 0.91682 0.0
H164 H 0.71304 0.32652 0.9306 0.0
H165 H 0.69038 0.29362 0.96551 0.0
H166 H 0.611 0.33871 0.98224 0.0
H167 H 0.64899 0.3204 1.00169 0.0
H168 H 0.65746 0.36758 0.98506 0.0
H169 H 0.55937 0.39988 0.76299 0.0
H170 H 0.65269 0.49828 0.76051 0.0
H171 H 0.68109 0.47666 0.81431 0.0
H172 H 0.54869 0.39119 0.85551 0.0
H173 H 0.52775 0.36084 0.81809 0.0
H174 H 0.54083 0.34245 0.8611 0.0
H175 H 0.61851 0.34303 0.77994 0.0
H176 H 0.59306 0.30951 0.8112 0.0
H177 H 0.56677 0.33043 0.77799 0.0
H178 H 0.53016 0.2273 0.88319 0.0
C179 C 0.56789 0.2819 0.88003 0.0
C180 C 0.93843 0.80889 0.41425 0.0
C181 C 0.92569 0.82612 0.44554 0.0
C182 C 0.89023 0.80899 0.46192 0.0
C183 C 0.88189 0.75735 0.41888 0.0
C184 C 0.91595 0.7743 0.40142 0.0
C185 C 0.9244 0.75071 0.36923 0.0
H186 H 0.86827 0.5911 0.26553 0.0
C187 C 0.86571 0.72134 0.40041 0.0
C188 C 0.89013 0.71692 0.37094 0.0
H189 H 0.97003 0.67947 0.25007 0.0
H190 H 0.95184 0.71254 0.30264 0.0
H191 H 0.87576 0.58902 0.35687 0.0
H192 H 0.80946 0.64345 0.28446 0.0
H193 H 0.77999 0.62212 0.32132 0.0
H194 H 0.79932 0.59384 0.28912 0.0
H195 H 0.83614 0.56351 0.32963 0.0
H196 H 0.82864 0.58244 0.3745 0.0
C197 C 0.96296 0.74002 0.37715 0.0
C198 C 0.92444 0.77298 0.33294 0.0
C199 C 0.74284 0.64098 0.45367 0.0
C200 C 0.71888 0.60651 0.44405 0.0
C201 C 0.72947 0.58716 0.41333 0.0
C202 C 0.76313 0.60218 0.39262 0.0
C203 C 0.78655 0.63704 0.40256 0.0
C204 C 0.77595 0.6556 0.43272 0.0
C205 C 0.80309 0.69246 0.43936 0.0
C206 C 0.83227 0.6932 0.40852 0.0
C207 C 0.82275 0.66078 0.38685 0.0
C208 C 0.82122 0.69137 0.4785 0.0
C209 C 0.78019 0.72303 0.43414 0.0
C210 C 0.88706 0.61726 0.27367 0.0
C211 C 0.92095 0.63228 0.25332 0.0
C212 C 0.94368 0.66712 0.26476 0.0
C213 C 0.93315 0.68634 0.2955 0.0
C214 C 0.89934 0.67086 0.31551 0.0
C215 C 0.87703 0.63672 0.30448 0.0
C216 C 0.84223 0.62413 0.32909 0.0
C217 C 0.847 0.65624 0.35645 0.0
C218 C 0.88061 0.68394 0.34847 0.0
C219 C 0.84545 0.58772 0.3485 0.0
C220 C 0.80564 0.62037 0.30492 0.0
H221 H 0.84225 0.76372 0.4635 0.0
H222 H 0.96544 0.82152 0.40081 0.0
H223 H 0.89988 0.78678 0.3327 0.0
H224 H 0.92082 0.75535 0.30786 0.0
H225 H 0.95148 0.79488 0.33027 0.0
H226 H 0.96442 0.7317 0.40674 0.0
H227 H 0.98777 0.7638 0.37177 0.0
H228 H 0.96665 0.71601 0.36059 0.0
H229 H 0.73587 0.65661 0.47714 0.0
H230 H 0.71127 0.56085 0.40475 0.0
H231 H 0.76942 0.58629 0.36941 0.0
H232 H 0.82533 0.66315 0.48487 0.0
H233 H 0.80249 0.69872 0.50055 0.0
H234 H 0.85035 0.70967 0.48099 0.0
H235 H 0.75554 0.7139 0.41467 0.0
H236 H 0.79766 0.74859 0.4213 0.0
H237 H 0.76827 0.73021 0.46097 0.0
H238 H 0.8793 0.8219 0.48535 0.0
C239 C 0.86854 0.77503 0.44899 0.0
C240 C 0.74778 0.72902 0.94774 0.0
C241 C 0.77368 0.71165 0.9291 0.0
C242 C 0.7724 0.7093 0.89 0.0
C243 C 0.72155 0.74227 0.88831 0.0
C244 C 0.72165 0.74387 0.9267 0.0
C245 C 0.69217 0.76391 0.94106 0.0
H246 H 0.5692 0.87376 0.90092 0.0
C247 C 0.69318 0.76202 0.87421 0.0
C248 C 0.67495 0.77419 0.90482 0.0
H249 H 0.60083 0.84176 1.00969 0.0
H250 H 0.63647 0.80023 0.98152 0.0
H251 H 0.55231 0.79322 0.86332 0.0
H252 H 0.6518 0.88455 0.86674 0.0
H253 H 0.64621 0.86873 0.82066 0.0
H254 H 0.60839 0.88585 0.8421 0.0
H255 H 0.55656 0.83286 0.83366 0.0
H256 H 0.57499 0.7933 0.81993 0.0
C257 C 0.66214 0.73639 0.96448 0.0
C258 C 0.71385 0.79854 0.96284 0.0
C259 C 0.7001 0.80046 0.73924 0.0
C260 C 0.68195 0.82426 0.71938 0.0
C261 C 0.64801 0.83205 0.73401 0.0
C262 C 0.63534 0.82025 0.76983 0.0
C263 C 0.65712 0.80088 0.79129 0.0
C264 C 0.68725 0.78914 0.77504 0.0
C265 C 0.70675 0.76829 0.80176 0.0
C266 C 0.68517 0.77199 0.8375 0.0
C267 C 0.65677 0.79179 0.83134 0.0
C268 C 0.69938 0.72738 0.78833 0.0
C269 C 0.74995 0.78873 0.80417 0.0
C270 C 0.5834 0.85737 0.91862 0.0
C271 C 0.58253 0.861 0.95735 0.0
C272 C 0.60112 0.83921 0.97967 0.0
C273 C 0.62207 0.81549 0.96327 0.0
C274 C 0.62457 0.81387 0.92422 0.0
C275 C 0.60442 0.83387 0.90272 0.0
C276 C 0.61085 0.82999 0.86186 0.0
C277 C 0.63818 0.80424 0.86206 0.0
C278 C 0.64676 0.79522 0.89866 0.0
C279 C 0.57175 0.81165 0.84345 0.0
C280 C 0.6301 0.86914 0.84667 0.0
H281 H 0.74732 0.72164 0.84006 0.0
H282 H 0.74814 0.73124 0.97779 0.0
H283 H 0.74006 0.81305 0.94741 0.0
H284 H 0.69668 0.8194 0.96682 0.0
H285 H 0.72313 0.79064 0.99056 0.0
H286 H 0.65582 0.70821 0.9518 0.0
H287 H 0.67287 0.73409 0.99318 0.0
H288 H 0.63408 0.74407 0.96587 0.0
H289 H 0.72631 0.79403 0.729 0.0
H290 H 0.63307 0.84977 0.71891 0.0
H291 H 0.61074 0.82895 0.7804 0.0
H292 H 0.67416 0.71995 0.76929 0.0
H293 H 0.72464 0.7221 0.77305 0.0
H294 H 0.69218 0.70741 0.81165 0.0
H295 H 0.75312 0.81933 0.80488 0.0
H296 H 0.76448 0.78235 0.8295 0.0
H297 H 0.76623 0.78215 0.77974 0.0
H298 H 0.79263 0.6971 0.87484 0.0
C299 C 0.74624 0.72396 0.86968 0.0
C300 C 0.91129 0.22251 0.46845 0.0
C301 C 0.9373 0.20354 0.45248 0.0
C302 C 0.9478 0.20991 0.41489 0.0
C303 C 0.90115 0.24746 0.40799 0.0
C304 C 0.89372 0.24456 0.44568 0.0
C305 C 0.86404 0.26554 0.45713 0.0
H306 H 0.7217 0.34716 0.40315 0.0
C307 C 0.87449 0.26756 0.39091 0.0
C308 C 0.8533 0.27933 0.41962 0.0
H309 H 0.75762 0.33249 0.51585 0.0
H310 H 0.81002 0.3072 0.49245 0.0
H311 H 0.72391 0.27847 0.37317 0.0
H312 H 0.81035 0.3791 0.37045 0.0
H313 H 0.80925 0.35891 0.32591 0.0
H314 H 0.76603 0.36932 0.34468 0.0
H315 H 0.72847 0.30833 0.33364 0.0
H316 H 0.75242 0.27052 0.33579 0.0
C317 C 0.82978 0.23784 0.47534 0.0
C318 C 0.8837 0.29795 0.48286 0.0
C319 C 0.84269 0.2467 0.25437 0.0
C320 C 0.81048 0.25174 0.2343 0.0
C321 C 0.79083 0.27827 0.24691 0.0
C322 C 0.7996 0.29539 0.28154 0.0
C323 C 0.82746 0.28506 0.30411 0.0
C324 C 0.84998 0.26269 0.28977 0.0
C325 C 0.8766 0.2529 0.3186 0.0
C326 C 0.86435 0.27117 0.35312 0.0
C327 C 0.83531 0.28952 0.34436 0.0
C328 C 0.86745 0.20997 0.32196 0.0
C329 C 0.91876 0.27071 0.30723 0.0
C330 C 0.74115 0.33918 0.42298 0.0
C331 C 0.73512 0.34148 0.46139 0.0
C332 C 0.76098 0.33019 0.48607 0.0
C333 C 0.79157 0.31581 0.47244 0.0
C334 C 0.7963 0.3127 0.43377 0.0
C335 C 0.77168 0.32508 0.40993 0.0
C336 C 0.78038 0.3199 0.36978 0.0
C337 C 0.81472 0.30257 0.37318 0.0
C338 C 0.82379 0.29791 0.41066 0.0
C339 C 0.74463 0.29317 0.35195 0.0
C340 C 0.79189 0.35872 0.35142 0.0
H341 H 0.93825 0.23502 0.36394 0.0
H342 H 0.90378 0.21911 0.49764 0.0
H343 H 0.91437 0.30894 0.47488 0.0
H344 H 0.87044 0.32202 0.4808 0.0
H345 H 0.88316 0.28883 0.51232 0.0
H346 H 0.82135 0.21214 0.45828 0.0
H347 H 0.83756 0.2298 0.50356 0.0
H348 H 0.80371 0.24877 0.47779 0.0
H349 H 0.85913 0.22745 0.2445 0.0
H350 H 0.7663 0.28322 0.23173 0.0
H351 H 0.78224 0.31374 0.29054 0.0
H352 H 0.83583 0.19852 0.32436 0.0
H353 H 0.87778 0.1973 0.2971 0.0
H354 H 0.88031 0.1999 0.34647 0.0
H355 H 0.92045 0.29363 0.28688 0.0
H356 H 0.93636 0.28369 0.33125 0.0
H357 H 0.93274 0.24999 0.29421 0.0
H358 H 0.96814 0.19605 0.40214 0.0
C359 C 0.93014 0.23213 0.39268 0.0
C360 C 0.42095 0.66362 0.35869 0.0
C361 C 0.40505 0.62801 0.37375 0.0
C362 C 0.37156 0.60631 0.35688 0.0
C363 C 0.37119 0.65408 0.31048 0.0
C364 C 0.40376 0.67596 0.32698 0.0
C365 C 0.41732 0.71238 0.30633 0.0
H366 H 0.38835 0.82432 0.1621 0.0
C367 C 0.36042 0.67429 0.27781 0.0
C368 C 0.38752 0.70878 0.27513 0.0
H369 H 0.48022 0.84997 0.24274 0.0
H370 H 0.45576 0.78986 0.27261 0.0
H371 H 0.3233 0.79344 0.21804 0.0
H372 H 0.39303 0.74227 0.14786 0.0
H373 H 0.34694 0.7127 0.14617 0.0
H374 H 0.35377 0.76006 0.13056 0.0
H375 H 0.31386 0.78619 0.1693 0.0
H376 H 0.29236 0.7519 0.20349 0.0
C377 C 0.41547 0.74448 0.33316 0.0
C378 C 0.4581 0.71419 0.29093 0.0
C379 C 0.24197 0.61602 0.19769 0.0
C380 C 0.22484 0.6294 0.16658 0.0
C381 C 0.24227 0.66492 0.15281 0.0
C382 C 0.27555 0.68659 0.1691 0.0
C383 C 0.29215 0.67318 0.20007 0.0
C384 C 0.27543 0.6385 0.21407 0.0
C385 C 0.29717 0.62967 0.24782 0.0
C386 C 0.32963 0.66473 0.25139 0.0
C387 C 0.32632 0.68982 0.22311 0.0
C388 C 0.26951 0.62464 0.28158 0.0
C389 C 0.31285 0.59512 0.23862 0.0
C390 C 0.40313 0.81737 0.18645 0.0
C391 C 0.43582 0.84239 0.20038 0.0
C392 C 0.45475 0.83136 0.23149 0.0
C393 C 0.44042 0.79648 0.24884 0.0
C394 C 0.40695 0.77208 0.23479 0.0
C395 C 0.38932 0.78305 0.20387 0.0
C396 C 0.35441 0.75466 0.19185 0.0
C397 C 0.35346 0.72443 0.22037 0.0
C398 C 0.38413 0.73425 0.24591 0.0
C399 C 0.31903 0.77224 0.19549 0.0
C400 C 0.36199 0.74175 0.15198 0.0
H401 H 0.32947 0.60078 0.31432 0.0
H402 H 0.44666 0.68108 0.37079 0.0
H403 H 0.45958 0.68719 0.27815 0.0
H404 H 0.46639 0.73511 0.26881 0.0
H405 H 0.47995 0.72038 0.31349 0.0
H406 H 0.38759 0.73843 0.34842 0.0
H407 H 0.43907 0.74844 0.35401 0.0
H408 H 0.41724 0.77097 0.31857 0.0
H409 H 0.22987 0.58871 0.20892 0.0
H410 H 0.22971 0.67646 0.12955 0.0
H411 H 0.28685 0.71324 0.15686 0.0
H412 H 0.2506 0.64461 0.28028 0.0
H413 H 0.25063 0.5962 0.2822 0.0
H414 H 0.28475 0.63039 0.30842 0.0
H415 H 0.32348 0.59633 0.20944 0.0
H416 H 0.33781 0.59306 0.25591 0.0
H417 H 0.28999 0.56922 0.24169 0.0
H418 H 0.35819 0.57922 0.36802 0.0
C419 C 0.35473 0.61899 0.32563 0.0
C420 C 0.082 0.24961 0.71464 0.0
C421 C 0.09808 0.23155 0.68596 0.0
C422 C 0.13603 0.24738 0.67434 0.0
C423 C 0.13903 0.30076 0.71407 0.0
C424 C 0.10329 0.28426 0.7285 0.0
C425 C 0.0923 0.30804 0.75933 0.0
H426 H 0.1377 0.47145 0.85871 0.0
C427 C 0.15259 0.33783 0.73119 0.0
C428 C 0.12577 0.34259 0.75829 0.0
H429 H 0.04269 0.3772 0.87794 0.0
H430 H 0.06201 0.34548 0.82489 0.0
H431 H 0.12674 0.47013 0.76894 0.0
H432 H 0.20384 0.42508 0.83802 0.0
H433 H 0.22946 0.45216 0.80158 0.0
H434 H 0.20498 0.4738 0.83554 0.0
H435 H 0.169 0.49931 0.78936 0.0
H436 H 0.17094 0.47581 0.74557 0.0
C437 C 0.05358 0.31734 0.74921 0.0
C438 C 0.09124 0.28658 0.7963 0.0
C439 C 0.27264 0.42226 0.67699 0.0
C440 C 0.29104 0.45986 0.68171 0.0
C441 C 0.27519 0.48091 0.70775 0.0
C442 C 0.24257 0.46447 0.72921 0.0
C443 C 0.22488 0.42663 0.72426 0.0
C444 C 0.23976 0.40659 0.69793 0.0
C445 C 0.21619 0.36766 0.69399 0.0
C446 C 0.1846 0.36726 0.7224 0.0
C447 C 0.18999 0.40154 0.74077 0.0
C448 C 0.20043 0.36306 0.65353 0.0
C449 C 0.24193 0.34083 0.70499 0.0
C450 C 0.12109 0.44394 0.85159 0.0
C451 C 0.0891 0.42664 0.87347 0.0
C452 C 0.06814 0.39089 0.8626 0.0
C453 C 0.07938 0.37242 0.83166 0.0
C454 C 0.11213 0.38956 0.81095 0.0
C455 C 0.13216 0.42499 0.82085 0.0
C456 C 0.16581 0.43934 0.7952 0.0
C457 C 0.16406 0.40611 0.76973 0.0
C458 C 0.13218 0.37685 0.77869 0.0
C459 C 0.15812 0.47309 0.7737 0.0
C460 C 0.20315 0.44831 0.81865 0.0
H461 H 0.1845 0.29217 0.67673 0.0
H462 H 0.05345 0.23757 0.72526 0.0
H463 H 0.11499 0.27176 0.79738 0.0
H464 H 0.09564 0.30493 0.82088 0.0
H465 H 0.06359 0.26556 0.79937 0.0
H466 H 0.05406 0.32694 0.71987 0.0
H467 H 0.02936 0.29253 0.75222 0.0
H468 H 0.04739 0.33992 0.76645 0.0
H469 H 0.28368 0.40502 0.65745 0.0
H470 H 0.28769 0.51026 0.71134 0.0
H471 H 0.23222 0.48186 0.74872 0.0
H472 H 0.19421 0.38936 0.64316 0.0
H473 H 0.22164 0.35541 0.63423 0.0
H474 H 0.17271 0.34252 0.65086 0.0
H475 H 0.26454 0.35391 0.72536 0.0
H476 H 0.22558 0.3156 0.7193 0.0
H477 H 0.25678 0.33255 0.68036 0.0
H478 H 0.15009 0.23339 0.65401 0.0
C479 C 0.15627 0.28165 0.68788 0.0
Dy480 Dy 0.05136 0.03821 0.54366 0.0
Dy481 Dy 0.96677 1.02057 0.58492 0.0
C482 C 0.0338 0.09057 0.61112 0.0
O483 O 0.04944 0.98891 0.57934 0.0
O484 O 1.00164 0.99182 0.62131 0.0
O485 O 0.11204 0.0399 0.54727 0.0
O486 O 0.08693 0.05162 0.4948 0.0
O487 O 0.96954 0.96873 0.55413 0.0
O488 O 0.01158 0.99519 0.5083 0.0
O489 O 0.96479 0.05205 0.53231 0.0
O490 O 0.02629 0.08601 0.52918 0.0
O491 O 0.90619 1.01386 0.57415 0.0
O492 O 0.92647 1.01168 0.63082 0.0
C493 C 0.03166 0.97932 0.61097 0.0
O494 O 0.05947 0.07751 0.59227 0.0
O495 O 0.99664 0.07555 0.60923 0.0
C496 C 0.15126 0.08322 0.5079 0.0
C497 C 0.21478 0.14249 0.49367 0.0
C498 C 0.17734 0.14859 0.49534 0.0
C499 C 0.14579 0.11917 0.50263 0.0
C500 C 0.18864 0.0774 0.50795 0.0
C501 C 0.22018 0.10679 0.50096 0.0
C502 C 0.11855 0.05135 0.51309 0.0
C503 C 0.98575 0.96677 0.52158 0.0
C504 C 0.98956 0.08263 0.52303 0.0
C505 C 0.86295 0.97793 0.61618 0.0
C506 C 0.79661 0.92267 0.63279 0.0
C507 C 0.83347 0.91613 0.63859 0.0
C508 C 0.8665 0.94357 0.6302 0.0
C509 C 0.82629 0.98392 0.60902 0.0
C510 C 0.79337 0.95654 0.61724 0.0
C511 C 0.89663 1.00826 0.60895 0.0
H512 H 0.17219 0.17561 0.48912 0.0
H513 H 0.1171 0.12429 0.50302 0.0
H514 H 0.19336 0.04988 0.5125 0.0
H515 H 0.24872 0.10137 0.49993 0.0
H516 H 0.83679 0.89054 0.65124 0.0
H517 H 0.89464 0.93833 0.63554 0.0
H518 H 0.82312 1.0102 0.59782 0.0
H519 H 0.76532 0.96225 0.61253 0.0
Dy520 Dy 0.46155 1.02532 1.04435 0.0
Dy521 Dy 0.54984 0.04533 0.0768 0.0
C522 C 0.48502 0.97915 0.11248 0.0
O523 O 0.46669 0.07815 0.07495 0.0
O524 O 0.51865 0.07834 0.11288 0.0
O525 O 0.40048 1.0187 1.05296 0.0
O526 O 0.42247 1.00922 0.99836 0.0
O527 O 0.5473 0.09483 1.04215 0.0
O528 O 0.49515 0.06897 1.00533 0.0
O529 O 0.54813 1.01209 1.02485 0.0
O530 O 0.487 0.97739 1.03007 0.0
O531 O 0.61063 0.0573 1.06423 0.0
O532 O 0.59102 0.04932 0.12141 0.0
C533 C 0.48795 0.09051 0.10406 0.0
O534 O 0.45881 0.99525 0.09887 0.0
O535 O 0.5213 0.99017 0.10225 0.0
C536 C 0.36203 0.97261 1.01549 0.0
C537 C 0.30661 0.90654 1.0014 0.0
C538 C 0.34217 0.9054 1.01763 0.0
C539 C 0.3697 0.93826 1.02474 0.0
C540 C 0.32606 0.97397 1.00086 0.0
C541 C 0.29852 0.94118 0.99383 0.0
C542 C 0.39193 1.00698 1.01909 0.0
C543 C 0.52551 0.09602 1.01287 0.0
C544 C 0.52253 0.98114 1.01884 0.0
C545 C 0.65199 0.08903 0.11051 0.0
C546 C 0.71241 0.14521 0.13817 0.0
C547 C 0.71977 0.112 0.12453 0.0
C548 C 0.6897 0.08407 0.11087 0.0
C549 C 0.64478 0.12295 0.1221 0.0
C550 C 0.6749 0.15093 0.13587 0.0
C551 C 0.62062 0.05802 0.09911 0.0
H552 H 0.34916 0.87905 1.02354 0.0
H553 H 0.39739 0.93685 1.03625 0.0
H554 H 0.3198 1.00032 0.99358 0.0
H555 H 0.27178 0.94291 0.98049 0.0
H556 H 0.74854 0.10717 0.12573 0.0
H557 H 0.6957 0.05814 0.1016 0.0
H558 H 0.61578 0.12727 0.12162 0.0
H559 H 0.66855 0.17626 0.14643 0.0
Dy560 Dy 0.49837 0.49723 0.54301 0.0
Dy561 Dy 0.51181 0.5779 0.58308 0.0
C562 C 0.53967 0.51113 0.62375 0.0
O563 O 0.43954 0.49775 0.56547 0.0
O564 O 0.45972 0.54256 0.60968 0.0
O565 O 0.48295 0.43718 0.54385 0.0
O566 O 0.50342 0.46623 0.49302 0.0
O567 O 0.46965 0.58009 0.5367 0.0
O568 O 0.48386 0.53527 0.49934 0.0
O569 O 0.55944 0.58388 0.54158 0.0
O570 O 0.56164 0.52296 0.53825 0.0
O571 O 0.52222 0.63769 0.57947 0.0
O572 O 0.51427 0.61086 0.63309 0.0
C573 C 0.43334 0.51501 0.59615 0.0
O574 O 0.51629 0.48813 0.6015 0.0
O575 O 0.54791 0.54724 0.6173 0.0
C576 C 0.52789 0.41468 0.50741 0.0
C577 C 0.59423 0.3869 0.49741 0.0
C578 C 0.58706 0.40179 0.53181 0.0
C579 C 0.5544 0.41598 0.5366 0.0
C580 C 0.53446 0.39868 0.47337 0.0
C581 C 0.56756 0.3851 0.46831 0.0
C582 C 0.49687 0.4347 0.51062 0.0
C583 C 0.46916 0.56441 0.50375 0.0
C584 C 0.57686 0.55803 0.53109 0.0
C585 C 0.48102 0.65787 0.62263 0.0
C586 C 0.40996 0.67615 0.63712 0.0
C587 C 0.42501 0.67893 0.60091 0.0
C588 C 0.46015 0.66973 0.59366 0.0
C589 C 0.46703 0.65746 0.65919 0.0
C590 C 0.43178 0.6664 0.66635 0.0
C591 C 0.51383 0.6409 0.61444 0.0
H592 H 0.60763 0.40402 0.55436 0.0
H593 H 0.55074 0.42942 0.56259 0.0
H594 H 0.51483 0.39809 0.45027 0.0
H595 H 0.57281 0.37391 0.44145 0.0
H596 H 0.40882 0.68666 0.57798 0.0
H597 H 0.47002 0.6704 0.56512 0.0
H598 H 0.4825 0.64859 0.68206 0.0
H599 H 0.42114 0.6649 0.69467 0.0
Dy600 Dy 0.0112 0.57006 1.04047 0.0
Dy601 Dy 1.00251 0.49263 0.08613 0.0
C602 C 0.97253 0.55947 0.12263 0.0
O603 O 0.07133 0.57196 1.06065 0.0
O604 O 0.05413 0.53221 0.10961 0.0
O605 O 0.02346 0.63008 1.03928 0.0
O606 O 1.0059 0.59855 0.98905 0.0
O607 O 0.04222 0.48873 1.03832 0.0
O608 O 0.02449 0.52964 0.99834 0.0
O609 O 0.95262 0.48235 1.04658 0.0
O610 O 0.9483 0.54232 1.03773 0.0
O611 O 0.99113 0.43273 0.08744 0.0
O612 O 0.00711 0.46423 0.13791 0.0
C613 C 0.07934 0.55854 0.09282 0.0
O614 O 0.9946 0.58174 0.09885 0.0
O615 O 0.96513 0.52317 0.11815 0.0
C616 C 0.97871 0.64924 0.99971 0.0
C617 C 0.91079 0.67266 0.98436 0.0
C618 C 0.91774 0.66128 1.02035 0.0
C619 C 0.95137 0.64936 1.02794 0.0
C620 C 0.97241 0.66221 0.96418 0.0
C621 C 0.93861 0.6737 0.95651 0.0
C622 C 0.01054 0.63066 1.0054 0.0
C623 C 0.03989 0.50119 1.00433 0.0
C624 C 0.93382 0.50651 1.0343 0.0
C625 C 0.03557 0.41422 0.12735 0.0
C626 C 0.102 0.38737 0.1412 0.0
C627 C 0.09755 0.40458 0.10725 0.0
C628 C 0.06505 0.41844 0.10074 0.0
C629 C 0.03913 0.39588 0.16076 0.0
C630 C 0.07214 0.38259 0.16769 0.0
C631 C 1.00332 0.43219 0.12158 0.0
H632 H 0.89636 0.65993 1.04202 0.0
H633 H 0.95518 0.63878 1.05542 0.0
H634 H 0.99281 0.66183 0.94193 0.0
H635 H 0.93353 0.68226 0.92851 0.0
H636 H 0.11945 0.40786 0.08586 0.0
H637 H 0.06346 0.43334 0.07524 0.0
H638 H 0.01697 0.39284 0.1819 0.0
H639 H 0.0748 0.36958 0.19421 0.0
C640 C 0.29429 0.19002 0.42924 0.0
C641 C 0.29944 0.22782 0.43846 0.0
C642 C 0.26866 0.16251 0.44897 0.0
C643 C 0.24698 0.17158 0.4787 0.0
H644 H 0.30783 0.1816 0.40476 0.0
H645 H 0.26387 0.13415 0.4391 0.0
S646 S 0.25504 0.26544 0.51857 0.0
N647 N 0.28482 0.27236 0.48271 0.0
N648 N 0.23608 0.2203 0.5198 0.0
C649 C 0.25397 0.20885 0.49018 0.0
C650 C 0.28036 0.23702 0.4701 0.0
C651 C 0.27193 0.82168 0.94176 0.0
C652 C 0.23154 0.8161 0.9434 0.0
C653 C 0.296 0.84917 0.96307 0.0
C654 C 0.28068 0.87228 0.98675 0.0
H655 H 0.2853 0.80679 0.92169 0.0
H656 H 0.32684 0.85418 0.95873 0.0
S657 S 0.17719 0.86401 1.00716 0.0
N658 N 0.17736 0.83197 0.97517 0.0
N659 N 0.22288 0.88424 1.015 0.0
C660 C 0.24047 0.8649 0.99122 0.0
C661 C 0.21585 0.83667 0.96962 0.0
C662 C 0.58786 0.50404 0.71871 0.0
C663 C 0.58654 0.46573 0.72266 0.0
C664 C 0.57329 0.51851 0.68682 0.0
C665 C 0.55616 0.49545 0.65724 0.0
H666 H 0.6 0.52322 0.7407 0.0
H667 H 0.57504 0.54807 0.68567 0.0
S668 S 0.54684 0.39331 0.65225 0.0
N669 N 0.56827 0.40542 0.69253 0.0
N670 N 0.53938 0.43192 0.63414 0.0
C671 C 0.55455 0.45707 0.66084 0.0
C672 C 0.56996 0.44245 0.69301 0.0
C673 C 0.94661 0.63232 0.18755 0.0
C674 C 0.93251 0.61238 0.22001 0.0
C675 C 0.95862 0.61486 0.15633 0.0
C676 C 0.95712 0.57643 0.15575 0.0
H677 H 0.9483 0.66185 0.18609 0.0
H678 H 0.96934 0.63188 0.1324 0.0
S679 S 0.92373 0.51132 0.23388 0.0
N680 N 0.91872 0.55179 0.24973 0.0
N681 N 0.94059 0.51904 0.19112 0.0
C682 C 0.94274 0.55599 0.18787 0.0
C683 C 0.93065 0.57386 0.21983 0.0
C684 C 0.49375 0.17399 0.16768 0.0
C685 C 0.4555 0.17813 0.16766 0.0
C686 C 0.50419 0.14525 0.14753 0.0
C687 C 0.47669 0.11971 0.12676 0.0
H688 H 0.51577 0.19326 0.18313 0.0
H689 H 0.53404 0.14341 0.14777 0.0
S690 S 0.37184 0.11601 0.12135 0.0
N691 N 0.3896 0.15247 0.1477 0.0
N692 N 0.409 0.09894 0.10977 0.0
C693 C 0.43819 0.12311 0.12736 0.0
C694 C 0.42765 0.15218 0.1478 0.0
C695 C 0.03262 0.90096 0.67918 0.0
C696 C 0.07058 0.89639 0.67593 0.0
C697 C 0.02019 0.92829 0.65866 0.0
C698 C 0.04536 0.95199 0.63426 0.0
H699 H 0.01229 0.883 0.69738 0.0
H700 H 0.99054 0.93038 0.6614 0.0
S701 S 0.14884 0.95388 0.61905 0.0
N702 N 0.13391 0.91963 0.64873 0.0
N703 N 0.11081 0.97064 0.61014 0.0
C704 C 0.08366 0.9482 0.63157 0.0
C705 C 0.0962 0.9205 0.65238 0.0
C706 C 0.85184 0.44172 0.98241 0.0
C707 C 0.82455 0.4632 0.97681 0.0
C708 C 0.88676 0.45604 1.00091 0.0
C709 C 0.89623 0.49265 1.0147 0.0
H710 H 0.84587 0.41321 0.9728 0.0
H711 H 0.90649 0.43807 1.00439 0.0
S712 S 0.83431 0.56033 1.00815 0.0
N713 N 0.8091 0.52288 0.98694 0.0
N714 N 0.87496 0.55018 1.02144 0.0
C715 C 0.86946 0.51477 1.00877 0.0
C716 C 0.83367 0.50001 0.98988 0.0
C717 C 0.65893 0.61693 0.47444 0.0
C718 C 0.68234 0.59237 0.46538 0.0
C719 C 0.62546 0.60557 0.49592 0.0
C720 C 0.61348 0.56899 0.50933 0.0
H721 H 0.66643 0.64533 0.46468 0.0
H722 H 0.60866 0.62582 0.5017 0.0
S723 S 0.6648 0.49364 0.49414 0.0
N724 N 0.69149 0.52971 0.47213 0.0
N725 N 0.62816 0.50805 0.51195 0.0
C726 C 0.63645 0.54391 0.50031 0.0
C727 C 0.67082 0.55562 0.47845 0.0
C728 C 0.16993 0.32935 0.17549 0.0
C729 C 0.2065 0.35224 0.16833 0.0
C730 C 0.13631 0.3406 0.16599 0.0
C731 C 0.1381 0.37536 0.14941 0.0
H732 H 0.16737 0.30274 0.18897 0.0
H733 H 0.10871 0.32203 0.1719 0.0
S734 S 0.22748 0.44613 0.12687 0.0
N735 N 0.24299 0.41106 0.14437 0.0
N736 N 0.17996 0.43308 0.12749 0.0
C737 C 0.17475 0.39845 0.14209 0.0
C738 C 0.20892 0.38668 0.15135 0.0
C739 C 0.58526 0.18065 0.96248 0.0
C740 C 0.55765 0.19826 0.94716 0.0
C741 C 0.57453 0.14748 0.98288 0.0
C742 C 0.53562 0.12949 0.98829 0.0
H743 H 0.61573 0.19287 0.95915 0.0
H744 H 0.59706 0.13587 0.9947 0.0
S745 S 0.45151 0.16266 0.9539 0.0
N746 N 0.48911 0.19441 0.93921 0.0
N747 N 0.46917 0.13128 0.97608 0.0
C748 C 0.50758 0.14575 0.97208 0.0
C749 C 0.5185 0.18014 0.95184 0.0
C750 C 0.95713 0.89502 0.44332 0.0
C751 C 0.94836 0.86119 0.463 0.0
C752 C 0.97091 0.92925 0.46196 0.0
C753 C 0.9758 0.93078 0.50094 0.0
H754 H 0.95144 0.89521 0.41374 0.0
H755 H 0.97591 0.95472 0.44604 0.0
S756 S 0.96279 0.84973 0.5642 0.0
N757 N 0.95027 0.83136 0.52287 0.0
N758 N 0.97508 0.89504 0.55764 0.0
C759 C 0.96931 0.89697 0.52037 0.0
C760 C 0.95593 0.8624 0.50149 0.0
C761 C 0.32618 0.72314 0.64193 0.0
C762 C 0.29866 0.69783 0.66284 0.0
C763 C 0.36179 0.71554 0.63277 0.0
C764 C 0.37111 0.68247 0.64438 0.0
H765 H 0.32091 0.74976 0.63413 0.0
H766 H 0.38274 0.73629 0.61777 0.0
S767 S 0.30683 0.60476 0.69466 0.0
N768 N 0.28152 0.63671 0.69131 0.0
N769 N 0.34844 0.62247 0.67413 0.0
C770 C 0.34306 0.6561 0.6635 0.0
C771 C 0.30683 0.66376 0.67271 0.0
C772 C 0.70901 0.88649 0.69232 0.0
C773 C 0.70365 0.84773 0.68945 0.0
C774 C 0.7376 0.91047 0.67189 0.0
C775 C 0.76203 0.89667 0.64785 0.0
H776 H 0.69321 0.89859 0.71273 0.0
H777 H 0.74234 0.94001 0.67704 0.0
S778 S 0.75481 0.79782 0.6245 0.0
N779 N 0.72112 0.79674 0.65629 0.0
N780 N 0.77548 0.84213 0.61806 0.0
C781 C 0.75492 0.85814 0.64223 0.0
C782 C 0.72552 0.83361 0.66292 0.0
C783 C 0.77553 0.23562 0.17367 0.0
C784 C 0.79198 0.22419 0.2059 0.0
C785 C 0.75101 0.20979 0.15072 0.0
C786 C 0.74246 0.17169 0.15908 0.0
H787 H 0.78038 0.26485 0.16703 0.0
H788 H 0.73775 0.21974 0.12692 0.0
S789 S 0.77753 0.1273 0.24017 0.0
N790 N 0.79752 0.17192 0.24488 0.0
N791 N 0.75229 0.12367 0.20134 0.0
C792 C 0.75982 0.15975 0.19031 0.0
C793 C 0.78444 0.18592 0.21379 0.0
C794 C 0.43067 0.63186 0.44031 0.0
C795 C 0.42306 0.61248 0.40628 0.0
C796 C 0.44492 0.6161 0.47168 0.0
C797 C 0.45276 0.58039 0.47042 0.0
H798 H 0.42481 0.65914 0.44297 0.0
H799 H 0.45003 0.63224 0.4971 0.0
S800 S 0.43945 0.51879 0.38721 0.0
N801 N 0.4257 0.55605 0.37306 0.0
N802 N 0.45229 0.5267 0.43113 0.0
C803 C 0.44578 0.56109 0.43623 0.0
C804 C 0.43105 0.577 0.40454 0.0
C805 C 0.07473 0.48291 0.90615 0.0
C806 C 0.07762 0.44557 0.90746 0.0
C807 C 0.06285 0.50065 0.93741 0.0
C808 C 0.0539 0.48216 0.97175 0.0
H809 H 0.08096 0.4984 0.88047 0.0
H810 H 0.06069 0.52919 0.93456 0.0
S811 S 0.05784 0.38442 0.99043 0.0
N812 N 0.07149 0.39112 0.94662 0.0
N813 N 0.04886 0.42395 1.00463 0.0
C814 C 0.05715 0.44495 0.97348 0.0
C815 C 0.069 0.42685 0.94164 0.0
C816 C 0.5803 0.92746 0.96186 0.0
C817 C 0.56596 0.8906 0.97354 0.0
C818 C 0.56552 0.95643 0.97619 0.0
C819 C 0.53529 0.94956 1.00217 0.0
H820 H 0.60358 0.93401 0.94182 0.0
H821 H 0.57793 0.98447 0.96687 0.0
S822 S 0.4877 0.85792 1.04184 0.0
N823 N 0.52013 0.84869 1.01276 0.0
N824 N 0.49166 0.90318 1.03937 0.0
C825 C 0.52033 0.91275 1.01383 0.0
C826 C 0.53592 0.88326 0.99967 0.0
C827 C 0.98978 0.17349 0.47363 0.0
C828 C 0.95056 0.17427 0.47328 0.0
C829 C 1.0022 0.14388 0.48989 0.0
C830 C 0.97577 0.11363 0.50588 0.0
H831 H 0.01098 0.19581 0.46095 0.0
H832 H 0.03271 0.14454 0.48944 0.0
S833 S 0.86972 0.10274 0.51223 0.0
N834 N 0.88538 0.14255 0.49041 0.0
N835 N 0.90843 0.08703 0.52104 0.0
C836 C 0.93645 0.1144 0.50604 0.0
C837 C 0.92394 0.14469 0.48978 0.0
C838 C 0.18457 0.60821 0.10927 0.0
C839 C 0.18854 0.60781 0.1484 0.0
C840 C 0.14948 0.59216 0.0915 0.0
C841 C 0.11682 0.57437 0.11195 0.0
H842 H 0.20876 0.62154 0.09209 0.0
H843 H 0.14799 0.59375 1.06147 0.0
S844 S 0.11131 0.56542 0.21498 0.0
N845 N 0.1561 0.58824 0.20691 0.0
N846 N 0.0908 0.55707 0.17373 0.0
C847 C 0.12056 0.57284 0.15102 0.0
C848 C 0.15618 0.58966 0.16914 0.0
C849 C 0.32988 0.4662 0.62207 0.0
C850 C 0.32674 0.47627 0.65969 0.0
C851 C 0.36408 0.47885 0.60161 0.0
C852 C 0.39666 0.50256 0.61769 0.0
H853 H 0.30563 0.44815 0.60817 0.0
H854 H 0.36494 0.46997 0.57301 0.0
S855 S 0.40402 0.53716 0.7154 0.0
N856 N 0.3599 0.511 0.71221 0.0
N857 N 0.42334 0.53577 0.6739 0.0
C858 C 0.3937 0.51343 0.65512 0.0
C859 C 0.35905 0.50017 0.67602 0.0
C860 C 0.82937 0.72194 0.97358 0.0
C861 C 0.80423 0.6982 0.94907 0.0
C862 C 0.86329 0.71292 0.98635 0.0
C863 C 0.87315 0.68012 0.97465 0.0
H864 H 0.82393 0.74855 0.98124 0.0
H865 H 0.88276 0.73242 1.00403 0.0
S866 S 0.8147 0.60633 0.91525 0.0
N867 N 0.78933 0.63829 0.9177 0.0
N868 N 0.85391 0.62245 0.94019 0.0
C869 C 0.84733 0.65531 0.95195 0.0
C870 C 0.8126 0.66403 0.93961 0.0
C871 C 0.48753 0.89187 0.16934 0.0
C872 C 0.44929 0.87951 0.18186 0.0
C873 C 0.49907 0.92446 0.14779 0.0
C874 C 0.47292 0.94624 0.13791 0.0
H875 H 0.50837 0.8755 0.17502 0.0
H876 H 0.52856 0.93202 0.138 0.0
S877 S 0.37023 0.92782 0.16716 0.0
N878 N 0.38606 0.89324 0.18525 0.0
N879 N 0.40731 0.9538 0.14496 0.0
C880 C 0.43493 0.9348 0.15159 0.0
C881 C 0.42328 0.90173 0.17345 0.0
C882 C 0.0581 0.165 0.68714 0.0
C883 C 0.07666 0.19674 0.66688 0.0
C884 C 0.04325 0.13065 0.66911 0.0
C885 C 0.04704 0.12683 0.63036 0.0
H886 H 0.05637 0.16634 0.71717 0.0
H887 H 0.02995 0.1067 0.68569 0.0
S888 S 0.08766 0.20216 0.56398 0.0
N889 N 0.0931 0.2226 0.60512 0.0
N890 N 0.06714 0.15817 0.5721 0.0
C891 C 0.06384 0.15857 0.60977 0.0
C892 C 0.07808 0.19345 0.62778 0.0
C893 C 0.69138 0.38515 0.45651 0.0
C894 C 0.70116 0.35486 0.47458 0.0
C895 C 0.65677 0.39527 0.46419 0.0
C896 C 0.63099 0.37608 0.49084 0.0
H897 H 0.71026 0.40074 0.43558 0.0
H898 H 0.65 0.41818 0.449 0.0
S899 S 0.64285 0.29575 0.54695 0.0
N900 N 0.68189 0.30598 0.5207 0.0
N901 N 0.61755 0.32638 0.53627 0.0
C902 C 0.64084 0.34678 0.51025 0.0
C903 C 0.67582 0.33591 0.50194 0.0
loop_
_geom_bond_atom_site_label_1
_geom_bond_atom_site_label_2
_geom_bond_distance
_geom_bond_site_symmetry_2
_ccdc_geom_bond_type
C0 C1 1.391 . S
C0 C4 1.391 . S
C0 H42 0.948 . S
C1 C0 1.391 . S
C1 C2 1.391 . S
C2 C1 1.391 . S
C2 H58 0.947 . S
C2 C59 1.392 . S
C3 C4 1.391 . S
C3 C7 1.397 . S
C3 C59 1.419 . S
C4 C0 1.391 . S
C4 C3 1.391 . S
C4 C5 1.399 . S
C5 C4 1.399 . S
C5 C8 1.396 . S
C5 C17 1.453 . S
C5 C18 1.684 . S
H6 C30 0.948 . S
C7 C3 1.397 . S
C7 C8 1.394 . S
C7 C26 1.723 . S
C8 C5 1.396 . S
C8 C7 1.394 . S
C8 C38 1.723 . S
H9 C32 0.947 . S
H10 C33 0.948 . S
H11 C39 0.982 . S
H12 C40 0.979 . S
H13 C40 0.980 . S
H14 C40 0.983 . S
H15 C39 0.979 . S
H16 C39 0.977 . S
C17 C5 1.453 . S
C17 H46 0.982 . S
C17 H47 0.979 . S
C17 H48 0.977 . S
C18 C5 1.684 . S
C18 H43 0.979 . S
C18 H44 0.980 . S
C18 H45 0.983 . S
C19 C20 1.391 . S
C19 C24 1.391 . S
C19 H49 0.948 . S
C20 C19 1.391 . S
C20 C21 1.391 . S
C21 C20 1.391 . S
C21 C22 1.392 . S
C21 H50 0.947 . S
C22 C21 1.392 . S
C22 C23 1.419 . S
C22 H51 0.948 . S
C23 C22 1.419 . S
C23 C24 1.391 . S
C23 C27 1.397 . S
C24 C19 1.391 . S
C24 C23 1.391 . S
C24 C25 1.399 . S
C25 C24 1.399 . S
C25 C26 1.396 . S
C25 C28 1.453 . S
C25 C29 1.684 . S
C26 C7 1.723 . S
C26 C25 1.396 . S
C26 C27 1.394 . S
C27 C23 1.397 . S
C27 C26 1.394 . S
C27 C37 1.723 . S
C28 C25 1.453 . S
C28 H52 0.982 . S
C28 H53 0.979 . S
C28 H54 0.977 . S
C29 C25 1.684 . S
C29 H55 0.979 . S
C29 H56 0.980 . S
C29 H57 0.983 . S
C30 H6 0.948 . S
C30 C31 1.391 . S
C30 C35 1.391 . S
C31 C30 1.391 . S
C31 C32 1.391 . S
C32 H9 0.947 . S
C32 C31 1.391 . S
C32 C33 1.392 . S
C33 H10 0.948 . S
C33 C32 1.392 . S
C33 C34 1.419 . S
C34 C33 1.419 . S
C34 C35 1.391 . S
C34 C38 1.397 . S
C35 C30 1.391 . S
C35 C34 1.391 . S
C35 C36 1.399 . S
C36 C35 1.399 . S
C36 C37 1.396 . S
C36 C39 1.453 . S
C36 C40 1.684 . S
C37 C27 1.723 . S
C37 C36 1.396 . S
C37 C38 1.394 . S
C38 C8 1.723 . S
C38 C34 1.397 . S
C38 C37 1.394 . S
C39 H11 0.982 . S
C39 H15 0.979 . S
C39 H16 0.977 . S
C39 C36 1.453 . S
C40 H12 0.979 . S
C40 H13 0.980 . S
C40 H14 0.983 . S
C40 C36 1.684 . S
H41 C59 0.948 . S
H42 C0 0.948 . S
H43 C18 0.979 . S
H44 C18 0.980 . S
H45 C18 0.983 . S
H46 C17 0.982 . S
H47 C17 0.979 . S
H48 C17 0.977 . S
H49 C19 0.948 . S
H50 C21 0.947 . S
H51 C22 0.948 . S
H52 C28 0.982 . S
H53 C28 0.979 . S
H54 C28 0.977 . S
H55 C29 0.979 . S
H56 C29 0.980 . S
H57 C29 0.983 . S
H58 C2 0.947 . S
C59 C2 1.392 . S
C59 C3 1.419 . S
C59 H41 0.948 . S
C60 C61 1.391 . S
C60 C64 1.391 . S
C60 H102 0.948 . S
C61 C60 1.391 . S
C61 C62 1.391 . S
C62 C61 1.391 . S
C62 H118 0.947 . S
C62 C119 1.392 . S
C63 C64 1.391 . S
C63 C67 1.397 . S
C63 C119 1.419 . S
C64 C60 1.391 . S
C64 C63 1.391 . S
C64 C65 1.399 . S
C65 C64 1.399 . S
C65 C68 1.396 . S
C65 C77 1.453 . S
C65 C78 1.684 . S
H66 C90 0.948 . S
C67 C63 1.397 . S
C67 C68 1.394 . S
C67 C86 1.723 . S
C68 C65 1.396 . S
C68 C67 1.394 . S
C68 C98 1.723 . S
H69 C92 0.947 . S
H70 C93 0.948 . S
H71 C99 0.982 . S
H72 C100 0.979 . S
H73 C100 0.980 . S
H74 C100 0.983 . S
H75 C99 0.979 . S
H76 C99 0.977 . S
C77 C65 1.453 . S
C77 H106 0.982 . S
C77 H107 0.979 . S
C77 H108 0.977 . S
C78 C65 1.684 . S
C78 H103 0.979 . S
C78 H104 0.980 . S
C78 H105 0.983 . S
C79 C80 1.391 . S
C79 C84 1.391 . S
C79 H109 0.948 . S
C80 C79 1.391 . S
C80 C81 1.391 . S
C81 C80 1.391 . S
C81 C82 1.392 . S
C81 H110 0.947 . S
C82 C81 1.392 . S
C82 C83 1.419 . S
C82 H111 0.948 . S
C83 C82 1.419 . S
C83 C84 1.391 . S
C83 C87 1.397 . S
C84 C79 1.391 . S
C84 C83 1.391 . S
C84 C85 1.399 . S
C85 C84 1.399 . S
C85 C86 1.396 . S
C85 C88 1.453 . S
C85 C89 1.684 . S
C86 C67 1.723 . S
C86 C85 1.396 . S
C86 C87 1.394 . S
C87 C83 1.397 . S
C87 C86 1.394 . S
C87 C97 1.723 . S
C88 C85 1.453 . S
C88 H112 0.982 . S
C88 H113 0.979 . S
C88 H114 0.977 . S
C89 C85 1.684 . S
C89 H115 0.979 . S
C89 H116 0.980 . S
C89 H117 0.983 . S
C90 H66 0.948 . S
C90 C91 1.391 . S
C90 C95 1.391 . S
C91 C90 1.391 . S
C91 C92 1.391 . S
C92 H69 0.947 . S
C92 C91 1.391 . S
C92 C93 1.392 . S
C93 H70 0.948 . S
C93 C92 1.392 . S
C93 C94 1.419 . S
C94 C93 1.419 . S
C94 C95 1.391 . S
C94 C98 1.397 . S
C95 C90 1.391 . S
C95 C94 1.391 . S
C95 C96 1.399 . S
C96 C95 1.399 . S
C96 C97 1.396 . S
C96 C99 1.453 . S
C96 C100 1.684 . S
C97 C87 1.723 . S
C97 C96 1.396 . S
C97 C98 1.394 . S
C98 C68 1.723 . S
C98 C94 1.397 . S
C98 C97 1.394 . S
C99 H71 0.982 . S
C99 H75 0.979 . S
C99 H76 0.977 . S
C99 C96 1.453 . S
C100 H72 0.979 . S
C100 H73 0.980 . S
C100 H74 0.983 . S
C100 C96 1.684 . S
H101 C119 0.948 . S
H102 C60 0.948 . S
H103 C78 0.979 . S
H104 C78 0.980 . S
H105 C78 0.983 . S
H106 C77 0.982 . S
H107 C77 0.979 . S
H108 C77 0.977 . S
H109 C79 0.948 . S
H110 C81 0.947 . S
H111 C82 0.948 . S
H112 C88 0.982 . S
H113 C88 0.979 . S
H114 C88 0.977 . S
H115 C89 0.979 . S
H116 C89 0.980 . S
H117 C89 0.983 . S
H118 C62 0.947 . S
C119 C62 1.392 . S
C119 C63 1.419 . S
C119 H101 0.948 . S
C120 C121 1.391 . S
C120 C124 1.391 . S
C120 H162 0.948 . S
C121 C120 1.391 . S
C121 C122 1.391 . S
C122 C121 1.391 . S
C122 H178 0.947 . S
C122 C179 1.392 . S
C123 C124 1.391 . S
C123 C127 1.397 . S
C123 C179 1.419 . S
C124 C120 1.391 . S
C124 C123 1.391 . S
C124 C125 1.399 . S
C125 C124 1.399 . S
C125 C128 1.396 . S
C125 C137 1.453 . S
C125 C138 1.684 . S
H126 C150 0.948 . S
C127 C123 1.397 . S
C127 C128 1.394 . S
C127 C146 1.723 . S
C128 C125 1.396 . S
C128 C127 1.394 . S
C128 C158 1.723 . S
H129 C152 0.947 . S
H130 C153 0.948 . S
H131 C159 0.982 . S
H132 C160 0.979 . S
H133 C160 0.980 . S
H134 C160 0.983 . S
H135 C159 0.979 . S
H136 C159 0.977 . S
C137 C125 1.453 . S
C137 H166 0.982 . S
C137 H167 0.979 . S
C137 H168 0.977 . S
C138 C125 1.684 . S
C138 H163 0.979 . S
C138 H164 0.980 . S
C138 H165 0.983 . S
C139 C140 1.391 . S
C139 C144 1.391 . S
C139 H169 0.948 . S
C140 C139 1.391 . S
C140 C141 1.391 . S
C141 C140 1.391 . S
C141 C142 1.392 . S
C141 H170 0.947 . S
C142 C141 1.392 . S
C142 C143 1.419 . S
C142 H171 0.948 . S
C143 C142 1.419 . S
C143 C144 1.391 . S
C143 C147 1.397 . S
C144 C139 1.391 . S
C144 C143 1.391 . S
C144 C145 1.399 . S
C145 C144 1.399 . S
C145 C146 1.396 . S
C145 C148 1.453 . S
C145 C149 1.684 . S
C146 C127 1.723 . S
C146 C145 1.396 . S
C146 C147 1.394 . S
C147 C143 1.397 . S
C147 C146 1.394 . S
C147 C157 1.723 . S
C148 C145 1.453 . S
C148 H172 0.982 . S
C148 H173 0.979 . S
C148 H174 0.977 . S
C149 C145 1.684 . S
C149 H175 0.979 . S
C149 H176 0.980 . S
C149 H177 0.983 . S
C150 H126 0.948 . S
C150 C151 1.391 . S
C150 C155 1.391 . S
C151 C150 1.391 . S
C151 C152 1.391 . S
C152 H129 0.947 . S
C152 C151 1.391 . S
C152 C153 1.392 . S
C153 H130 0.948 . S
C153 C152 1.392 . S
C153 C154 1.419 . S
C154 C153 1.419 . S
C154 C155 1.391 . S
C154 C158 1.397 . S
C155 C150 1.391 . S
C155 C154 1.391 . S
C155 C156 1.399 . S
C156 C155 1.399 . S
C156 C157 1.396 . S
C156 C159 1.453 . S
C156 C160 1.684 . S
C157 C147 1.723 . S
C157 C156 1.396 . S
C157 C158 1.394 . S
C158 C128 1.723 . S
C158 C154 1.397 . S
C158 C157 1.394 . S
C159 H131 0.982 . S
C159 H135 0.979 . S
C159 H136 0.977 . S
C159 C156 1.453 . S
C160 H132 0.979 . S
C160 H133 0.980 . S
C160 H134 0.983 . S
C160 C156 1.684 . S
H161 C179 0.948 . S
H162 C120 0.948 . S
H163 C138 0.979 . S
H164 C138 0.980 . S
H165 C138 0.983 . S
H166 C137 0.982 . S
H167 C137 0.979 . S
H168 C137 0.977 . S
H169 C139 0.948 . S
H170 C141 0.947 . S
H171 C142 0.948 . S
H172 C148 0.982 . S
H173 C148 0.979 . S
H174 C148 0.977 . S
H175 C149 0.979 . S
H176 C149 0.980 . S
H177 C149 0.983 . S
H178 C122 0.947 . S
C179 C122 1.392 . S
C179 C123 1.419 . S
C179 H161 0.948 . S
C180 C181 1.391 . S
C180 C184 1.391 . S
C180 H222 0.948 . S
C181 C180 1.391 . S
C181 C182 1.391 . S
C182 C181 1.391 . S
C182 H238 0.947 . S
C182 C239 1.392 . S
C183 C184 1.391 . S
C183 C187 1.397 . S
C183 C239 1.419 . S
C184 C180 1.391 . S
C184 C183 1.391 . S
C184 C185 1.399 . S
C185 C184 1.399 . S
C185 C188 1.396 . S
C185 C197 1.453 . S
C185 C198 1.684 . S
H186 C210 0.948 . S
C187 C183 1.397 . S
C187 C188 1.394 . S
C187 C206 1.723 . S
C188 C185 1.396 . S
C188 C187 1.394 . S
C188 C218 1.723 . S
H189 C212 0.947 . S
H190 C213 0.948 . S
H191 C219 0.982 . S
H192 C220 0.979 . S
H193 C220 0.980 . S
H194 C220 0.983 . S
H195 C219 0.979 . S
H196 C219 0.977 . S
C197 C185 1.453 . S
C197 H226 0.982 . S
C197 H227 0.979 . S
C197 H228 0.977 . S
C198 C185 1.684 . S
C198 H223 0.979 . S
C198 H224 0.980 . S
C198 H225 0.983 . S
C199 C200 1.391 . S
C199 C204 1.391 . S
C199 H229 0.948 . S
C200 C199 1.391 . S
C200 C201 1.391 . S
C201 C200 1.391 . S
C201 C202 1.392 . S
C201 H230 0.947 . S
C202 C201 1.392 . S
C202 C203 1.419 . S
C202 H231 0.948 . S
C203 C202 1.419 . S
C203 C204 1.391 . S
C203 C207 1.397 . S
C204 C199 1.391 . S
C204 C203 1.391 . S
C204 C205 1.399 . S
C205 C204 1.399 . S
C205 C206 1.396 . S
C205 C208 1.453 . S
C205 C209 1.684 . S
C206 C187 1.723 . S
C206 C205 1.396 . S
C206 C207 1.394 . S
C207 C203 1.397 . S
C207 C206 1.394 . S
C207 C217 1.723 . S
C208 C205 1.453 . S
C208 H232 0.982 . S
C208 H233 0.979 . S
C208 H234 0.977 . S
C209 C205 1.684 . S
C209 H235 0.979 . S
C209 H236 0.980 . S
C209 H237 0.983 . S
C210 H186 0.948 . S
C210 C211 1.391 . S
C210 C215 1.391 . S
C211 C210 1.391 . S
C211 C212 1.391 . S
C212 H189 0.947 . S
C212 C211 1.391 . S
C212 C213 1.392 . S
C213 H190 0.948 . S
C213 C212 1.392 . S
C213 C214 1.419 . S
C214 C213 1.419 . S
C214 C215 1.391 . S
C214 C218 1.397 . S
C215 C210 1.391 . S
C215 C214 1.391 . S
C215 C216 1.399 . S
C216 C215 1.399 . S
C216 C217 1.396 . S
C216 C219 1.453 . S
C216 C220 1.684 . S
C217 C207 1.723 . S
C217 C216 1.396 . S
C217 C218 1.394 . S
C218 C188 1.723 . S
C218 C214 1.397 . S
C218 C217 1.394 . S
C219 H191 0.982 . S
C219 H195 0.979 . S
C219 H196 0.977 . S
C219 C216 1.453 . S
C220 H192 0.979 . S
C220 H193 0.980 . S
C220 H194 0.983 . S
C220 C216 1.684 . S
H221 C239 0.948 . S
H222 C180 0.948 . S
H223 C198 0.979 . S
H224 C198 0.980 . S
H225 C198 0.983 . S
H226 C197 0.982 . S
H227 C197 0.979 . S
H228 C197 0.977 . S
H229 C199 0.948 . S
H230 C201 0.947 . S
H231 C202 0.948 . S
H232 C208 0.982 . S
H233 C208 0.979 . S
H234 C208 0.977 . S
H235 C209 0.979 . S
H236 C209 0.980 . S
H237 C209 0.983 . S
H238 C182 0.947 . S
C239 C182 1.392 . S
C239 C183 1.419 . S
C239 H221 0.948 . S
C240 C241 1.391 . S
C240 C244 1.391 . S
C240 H282 0.948 . S
C241 C240 1.391 . S
C241 C242 1.391 . S
C242 C241 1.391 . S
C242 H298 0.947 . S
C242 C299 1.392 . S
C243 C244 1.391 . S
C243 C247 1.397 . S
C243 C299 1.419 . S
C244 C240 1.391 . S
C244 C243 1.391 . S
C244 C245 1.399 . S
C245 C244 1.399 . S
C245 C248 1.396 . S
C245 C257 1.453 . S
C245 C258 1.684 . S
H246 C270 0.948 . S
C247 C243 1.397 . S
C247 C248 1.394 . S
C247 C266 1.723 . S
C248 C245 1.396 . S
C248 C247 1.394 . S
C248 C278 1.723 . S
H249 C272 0.947 . S
H250 C273 0.948 . S
H251 C279 0.982 . S
H252 C280 0.979 . S
H253 C280 0.980 . S
H254 C280 0.983 . S
H255 C279 0.979 . S
H256 C279 0.977 . S
C257 C245 1.453 . S
C257 H286 0.982 . S
C257 H287 0.979 . S
C257 H288 0.977 . S
C258 C245 1.684 . S
C258 H283 0.979 . S
C258 H284 0.980 . S
C258 H285 0.983 . S
C259 C260 1.391 . S
C259 C264 1.391 . S
C259 H289 0.948 . S
C260 C259 1.391 . S
C260 C261 1.391 . S
C261 C260 1.391 . S
C261 C262 1.392 . S
C261 H290 0.947 . S
C262 C261 1.392 . S
C262 C263 1.419 . S
C262 H291 0.948 . S
C263 C262 1.419 . S
C263 C264 1.391 . S
C263 C267 1.397 . S
C264 C259 1.391 . S
C264 C263 1.391 . S
C264 C265 1.399 . S
C265 C264 1.399 . S
C265 C266 1.396 . S
C265 C268 1.453 . S
C265 C269 1.684 . S
C266 C247 1.723 . S
C266 C265 1.396 . S
C266 C267 1.394 . S
C267 C263 1.397 . S
C267 C266 1.394 . S
C267 C277 1.723 . S
C268 C265 1.453 . S
C268 H292 0.982 . S
C268 H293 0.979 . S
C268 H294 0.977 . S
C269 C265 1.684 . S
C269 H295 0.979 . S
C269 H296 0.980 . S
C269 H297 0.983 . S
C270 H246 0.948 . S
C270 C271 1.391 . S
C270 C275 1.391 . S
C271 C270 1.391 . S
C271 C272 1.391 . S
C272 H249 0.947 . S
C272 C271 1.391 . S
C272 C273 1.392 . S
C273 H250 0.948 . S
C273 C272 1.392 . S
C273 C274 1.419 . S
C274 C273 1.419 . S
C274 C275 1.391 . S
C274 C278 1.397 . S
C275 C270 1.391 . S
C275 C274 1.391 . S
C275 C276 1.399 . S
C276 C275 1.399 . S
C276 C277 1.396 . S
C276 C279 1.453 . S
C276 C280 1.684 . S
C277 C267 1.723 . S
C277 C276 1.396 . S
C277 C278 1.394 . S
C278 C248 1.723 . S
C278 C274 1.397 . S
C278 C277 1.394 . S
C279 H251 0.982 . S
C279 H255 0.979 . S
C279 H256 0.977 . S
C279 C276 1.453 . S
C280 H252 0.979 . S
C280 H253 0.980 . S
C280 H254 0.983 . S
C280 C276 1.684 . S
H281 C299 0.948 . S
H282 C240 0.948 . S
H283 C258 0.979 . S
H284 C258 0.980 . S
H285 C258 0.983 . S
H286 C257 0.982 . S
H287 C257 0.979 . S
H288 C257 0.977 . S
H289 C259 0.948 . S
H290 C261 0.947 . S
H291 C262 0.948 . S
H292 C268 0.982 . S
H293 C268 0.979 . S
H294 C268 0.977 . S
H295 C269 0.979 . S
H296 C269 0.980 . S
H297 C269 0.983 . S
H298 C242 0.947 . S
C299 C242 1.392 . S
C299 C243 1.419 . S
C299 H281 0.948 . S
C300 C301 1.391 . S
C300 C304 1.391 . S
C300 H342 0.948 . S
C301 C300 1.391 . S
C301 C302 1.391 . S
C302 C301 1.391 . S
C302 H358 0.947 . S
C302 C359 1.392 . S
C303 C304 1.391 . S
C303 C307 1.397 . S
C303 C359 1.419 . S
C304 C300 1.391 . S
C304 C303 1.391 . S
C304 C305 1.399 . S
C305 C304 1.399 . S
C305 C308 1.396 . S
C305 C317 1.453 . S
C305 C318 1.684 . S
H306 C330 0.948 . S
C307 C303 1.397 . S
C307 C308 1.394 . S
C307 C326 1.723 . S
C308 C305 1.396 . S
C308 C307 1.394 . S
C308 C338 1.723 . S
H309 C332 0.947 . S
H310 C333 0.948 . S
H311 C339 0.982 . S
H312 C340 0.979 . S
H313 C340 0.980 . S
H314 C340 0.983 . S
H315 C339 0.979 . S
H316 C339 0.977 . S
C317 C305 1.453 . S
C317 H346 0.982 . S
C317 H347 0.979 . S
C317 H348 0.977 . S
C318 C305 1.684 . S
C318 H343 0.979 . S
C318 H344 0.980 . S
C318 H345 0.983 . S
C319 C320 1.391 . S
C319 C324 1.391 . S
C319 H349 0.948 . S
C320 C319 1.391 . S
C320 C321 1.391 . S
C321 C320 1.391 . S
C321 C322 1.392 . S
C321 H350 0.947 . S
C322 C321 1.392 . S
C322 C323 1.419 . S
C322 H351 0.948 . S
C323 C322 1.419 . S
C323 C324 1.391 . S
C323 C327 1.397 . S
C324 C319 1.391 . S
C324 C323 1.391 . S
C324 C325 1.399 . S
C325 C324 1.399 . S
C325 C326 1.396 . S
C325 C328 1.453 . S
C325 C329 1.684 . S
C326 C307 1.723 . S
C326 C325 1.396 . S
C326 C327 1.394 . S
C327 C323 1.397 . S
C327 C326 1.394 . S
C327 C337 1.723 . S
C328 C325 1.453 . S
C328 H352 0.982 . S
C328 H353 0.979 . S
C328 H354 0.977 . S
C329 C325 1.684 . S
C329 H355 0.979 . S
C329 H356 0.980 . S
C329 H357 0.983 . S
C330 H306 0.948 . S
C330 C331 1.391 . S
C330 C335 1.391 . S
C331 C330 1.391 . S
C331 C332 1.391 . S
C332 H309 0.947 . S
C332 C331 1.391 . S
C332 C333 1.392 . S
C333 H310 0.948 . S
C333 C332 1.392 . S
C333 C334 1.419 . S
C334 C333 1.419 . S
C334 C335 1.391 . S
C334 C338 1.397 . S
C335 C330 1.391 . S
C335 C334 1.391 . S
C335 C336 1.399 . S
C336 C335 1.399 . S
C336 C337 1.396 . S
C336 C339 1.453 . S
C336 C340 1.684 . S
C337 C327 1.723 . S
C337 C336 1.396 . S
C337 C338 1.394 . S
C338 C308 1.723 . S
C338 C334 1.397 . S
C338 C337 1.394 . S
C339 H311 0.982 . S
C339 H315 0.979 . S
C339 H316 0.977 . S
C339 C336 1.453 . S
C340 H312 0.979 . S
C340 H313 0.980 . S
C340 H314 0.983 . S
C340 C336 1.684 . S
H341 C359 0.948 . S
H342 C300 0.948 . S
H343 C318 0.979 . S
H344 C318 0.980 . S
H345 C318 0.983 . S
H346 C317 0.982 . S
H347 C317 0.979 . S
H348 C317 0.977 . S
H349 C319 0.948 . S
H350 C321 0.947 . S
H351 C322 0.948 . S
H352 C328 0.982 . S
H353 C328 0.979 . S
H354 C328 0.977 . S
H355 C329 0.979 . S
H356 C329 0.980 . S
H357 C329 0.983 . S
H358 C302 0.947 . S
C359 C302 1.392 . S
C359 C303 1.419 . S
C359 H341 0.948 . S
C360 C361 1.391 . S
C360 C364 1.391 . S
C360 H402 0.948 . S
C361 C360 1.391 . S
C361 C362 1.391 . S
C362 C361 1.391 . S
C362 H418 0.947 . S
C362 C419 1.392 . S
C363 C364 1.391 . S
C363 C367 1.397 . S
C363 C419 1.419 . S
C364 C360 1.391 . S
C364 C363 1.391 . S
C364 C365 1.399 . S
C365 C364 1.399 . S
C365 C368 1.396 . S
C365 C377 1.453 . S
C365 C378 1.684 . S
H366 C390 0.948 . S
C367 C363 1.397 . S
C367 C368 1.394 . S
C367 C386 1.723 . S
C368 C365 1.396 . S
C368 C367 1.394 . S
C368 C398 1.723 . S
H369 C392 0.947 . S
H370 C393 0.948 . S
H371 C399 0.982 . S
H372 C400 0.979 . S
H373 C400 0.980 . S
H374 C400 0.983 . S
H375 C399 0.979 . S
H376 C399 0.977 . S
C377 C365 1.453 . S
C377 H406 0.982 . S
C377 H407 0.979 . S
C377 H408 0.977 . S
C378 C365 1.684 . S
C378 H403 0.979 . S
C378 H404 0.980 . S
C378 H405 0.983 . S
C379 C380 1.391 . S
C379 C384 1.391 . S
C379 H409 0.948 . S
C380 C379 1.391 . S
C380 C381 1.391 . S
C381 C380 1.391 . S
C381 C382 1.392 . S
C381 H410 0.947 . S
C382 C381 1.392 . S
C382 C383 1.419 . S
C382 H411 0.948 . S
C383 C382 1.419 . S
C383 C384 1.391 . S
C383 C387 1.397 . S
C384 C379 1.391 . S
C384 C383 1.391 . S
C384 C385 1.399 . S
C385 C384 1.399 . S
C385 C386 1.396 . S
C385 C388 1.453 . S
C385 C389 1.684 . S
C386 C367 1.723 . S
C386 C385 1.396 . S
C386 C387 1.394 . S
C387 C383 1.397 . S
C387 C386 1.394 . S
C387 C397 1.723 . S
C388 C385 1.453 . S
C388 H412 0.982 . S
C388 H413 0.979 . S
C388 H414 0.977 . S
C389 C385 1.684 . S
C389 H415 0.979 . S
C389 H416 0.980 . S
C389 H417 0.983 . S
C390 H366 0.948 . S
C390 C391 1.391 . S
C390 C395 1.391 . S
C391 C390 1.391 . S
C391 C392 1.391 . S
C392 H369 0.947 . S
C392 C391 1.391 . S
C392 C393 1.392 . S
C393 H370 0.948 . S
C393 C392 1.392 . S
C393 C394 1.419 . S
C394 C393 1.419 . S
C394 C395 1.391 . S
C394 C398 1.397 . S
C395 C390 1.391 . S
C395 C394 1.391 . S
C395 C396 1.399 . S
C396 C395 1.399 . S
C396 C397 1.396 . S
C396 C399 1.453 . S
C396 C400 1.684 . S
C397 C387 1.723 . S
C397 C396 1.396 . S
C397 C398 1.394 . S
C398 C368 1.723 . S
C398 C394 1.397 . S
C398 C397 1.394 . S
C399 H371 0.982 . S
C399 H375 0.979 . S
C399 H376 0.977 . S
C399 C396 1.453 . S
C400 H372 0.979 . S
C400 H373 0.980 . S
C400 H374 0.983 . S
C400 C396 1.684 . S
H401 C419 0.948 . S
H402 C360 0.948 . S
H403 C378 0.979 . S
H404 C378 0.980 . S
H405 C378 0.983 . S
H406 C377 0.982 . S
H407 C377 0.979 . S
H408 C377 0.977 . S
H409 C379 0.948 . S
H410 C381 0.947 . S
H411 C382 0.948 . S
H412 C388 0.982 . S
H413 C388 0.979 . S
H414 C388 0.977 . S
H415 C389 0.979 . S
H416 C389 0.980 . S
H417 C389 0.983 . S
H418 C362 0.947 . S
C419 C362 1.392 . S
C419 C363 1.419 . S
C419 H401 0.948 . S
C420 C421 1.391 . S
C420 C424 1.391 . S
C420 H462 0.948 . S
C421 C420 1.391 . S
C421 C422 1.391 . S
C422 C421 1.391 . S
C422 H478 0.947 . S
C422 C479 1.392 . S
C423 C424 1.391 . S
C423 C427 1.397 . S
C423 C479 1.419 . S
C424 C420 1.391 . S
C424 C423 1.391 . S
C424 C425 1.399 . S
C425 C424 1.399 . S
C425 C428 1.396 . S
C425 C437 1.453 . S
C425 C438 1.684 . S
H426 C450 0.948 . S
C427 C423 1.397 . S
C427 C428 1.394 . S
C427 C446 1.723 . S
C428 C425 1.396 . S
C428 C427 1.394 . S
C428 C458 1.723 . S
H429 C452 0.947 . S
H430 C453 0.948 . S
H431 C459 0.982 . S
H432 C460 0.979 . S
H433 C460 0.980 . S
H434 C460 0.983 . S
H435 C459 0.979 . S
H436 C459 0.977 . S
C437 C425 1.453 . S
C437 H466 0.982 . S
C437 H467 0.979 . S
C437 H468 0.977 . S
C438 C425 1.684 . S
C438 H463 0.979 . S
C438 H464 0.980 . S
C438 H465 0.983 . S
C439 C440 1.391 . S
C439 C444 1.391 . S
C439 H469 0.948 . S
C440 C439 1.391 . S
C440 C441 1.391 . S
C441 C440 1.391 . S
C441 C442 1.392 . S
C441 H470 0.947 . S
C442 C441 1.392 . S
C442 C443 1.419 . S
C442 H471 0.948 . S
C443 C442 1.419 . S
C443 C444 1.391 . S
C443 C447 1.397 . S
C444 C439 1.391 . S
C444 C443 1.391 . S
C444 C445 1.399 . S
C445 C444 1.399 . S
C445 C446 1.396 . S
C445 C448 1.453 . S
C445 C449 1.684 . S
C446 C427 1.723 . S
C446 C445 1.396 . S
C446 C447 1.394 . S
C447 C443 1.397 . S
C447 C446 1.394 . S
C447 C457 1.723 . S
C448 C445 1.453 . S
C448 H472 0.982 . S
C448 H473 0.979 . S
C448 H474 0.977 . S
C449 C445 1.684 . S
C449 H475 0.979 . S
C449 H476 0.980 . S
C449 H477 0.983 . S
C450 H426 0.948 . S
C450 C451 1.391 . S
C450 C455 1.391 . S
C451 C450 1.391 . S
C451 C452 1.391 . S
C452 H429 0.947 . S
C452 C451 1.391 . S
C452 C453 1.392 . S
C453 H430 0.948 . S
C453 C452 1.392 . S
C453 C454 1.419 . S
C454 C453 1.419 . S
C454 C455 1.391 . S
C454 C458 1.397 . S
C455 C450 1.391 . S
C455 C454 1.391 . S
C455 C456 1.399 . S
C456 C455 1.399 . S
C456 C457 1.396 . S
C456 C459 1.453 . S
C456 C460 1.684 . S
C457 C447 1.723 . S
C457 C456 1.396 . S
C457 C458 1.394 . S
C458 C428 1.723 . S
C458 C454 1.397 . S
C458 C457 1.394 . S
C459 H431 0.982 . S
C459 H435 0.979 . S
C459 H436 0.977 . S
C459 C456 1.453 . S
C460 H432 0.979 . S
C460 H433 0.980 . S
C460 H434 0.983 . S
C460 C456 1.684 . S
H461 C479 0.948 . S
H462 C420 0.948 . S
H463 C438 0.979 . S
H464 C438 0.980 . S
H465 C438 0.983 . S
H466 C437 0.982 . S
H467 C437 0.979 . S
H468 C437 0.977 . S
H469 C439 0.948 . S
H470 C441 0.947 . S
H471 C442 0.948 . S
H472 C448 0.982 . S
H473 C448 0.979 . S
H474 C448 0.977 . S
H475 C449 0.979 . S
H476 C449 0.980 . S
H477 C449 0.983 . S
H478 C422 0.947 . S
C479 C422 1.392 . S
C479 C423 1.419 . S
C479 H461 0.948 . S
Dy480 O483 2.307 1_545 S
Dy480 O485 2.395 . S
Dy480 O486 2.379 . S
Dy480 O488 2.339 1_545 S
Dy480 O490 2.281 1_455 S
Dy480 O494 2.275 . S
Dy480 C502 2.738 . S
Dy481 O484 2.298 1_655 S
Dy481 O487 2.275 . S
Dy481 O489 2.307 1_565 S
Dy481 O491 2.395 . S
Dy481 O492 2.379 . S
Dy481 O495 2.339 1_565 S
Dy481 C511 2.738 . S
C482 O494 1.254 . S
C482 O495 1.257 1_455 S
O483 Dy480 2.307 1_565 S
O483 C493 1.266 . S
O484 Dy481 2.298 1_455 S
O484 C493 1.236 . S
O485 Dy480 2.395 . S
O485 C502 1.255 . S
O486 Dy480 2.379 . S
O486 C502 1.249 . S
O487 Dy481 2.275 . S
O487 C503 1.254 . S
O488 Dy480 2.339 1_565 S
O488 C503 1.257 1_455 S
O489 Dy481 2.307 1_545 S
O489 C504 1.266 . S
O490 Dy480 2.281 1_655 S
O490 C504 1.254 . S
O491 Dy481 2.395 . S
O491 C511 1.255 . S
O492 Dy481 2.379 . S
O492 C511 1.249 . S
C493 O483 1.266 . S
C493 O484 1.236 . S
O494 Dy480 2.275 . S
O494 C482 1.254 . S
O495 Dy481 2.339 1_545 S
O495 C482 1.257 1_655 S
C496 C499 1.344 . S
C496 C500 1.328 . S
C496 C502 1.516 . S
C497 C498 1.304 . S
C497 C501 1.323 . S
C498 C497 1.304 . S
C498 C499 1.371 . S
C498 H512 0.930 . S
C499 C496 1.344 . S
C499 C498 1.371 . S
C499 H513 0.931 . S
C500 C496 1.328 . S
C500 C501 1.433 . S
C500 H514 0.931 . S
C501 C497 1.323 . S
C501 C500 1.433 . S
C501 H515 0.933 . S
C502 Dy480 2.738 . S
C502 O485 1.255 . S
C502 O486 1.249 . S
C502 C496 1.516 . S
C503 O487 1.254 . S
C503 O488 1.257 1_655 S
C504 O489 1.266 . S
C504 O490 1.254 . S
C505 C508 1.344 . S
C505 C509 1.328 . S
C505 C511 1.516 . S
C506 C507 1.304 . S
C506 C510 1.323 . S
C507 C506 1.304 . S
C507 C508 1.371 . S
C507 H516 0.930 . S
C508 C505 1.344 . S
C508 C507 1.371 . S
C508 H517 0.931 . S
C509 C505 1.328 . S
C509 C510 1.433 . S
C509 H518 0.931 . S
C510 C506 1.323 . S
C510 C509 1.433 . S
C510 H519 0.933 . S
C511 Dy481 2.738 . S
C511 O491 1.255 . S
C511 O492 1.249 . S
C511 C505 1.516 . S
H512 C498 0.930 . S
H513 C499 0.931 . S
H514 C500 0.931 . S
H515 C501 0.933 . S
H516 C507 0.930 . S
H517 C508 0.931 . S
H518 C509 0.931 . S
H519 C510 0.933 . S
Dy520 O523 2.307 1_566 S
Dy520 O525 2.395 . S
Dy520 O526 2.379 . S
Dy520 O528 2.339 1_565 S
Dy520 O530 2.298 . S
Dy520 O534 2.275 1_556 S
Dy520 C542 2.738 . S
Dy521 O524 2.298 . S
Dy521 O527 2.275 1_554 S
Dy521 O529 2.307 1_544 S
Dy521 O531 2.395 . S
Dy521 O532 2.379 . S
Dy521 O535 2.339 1_545 S
Dy521 C551 2.738 . S
C522 O534 1.254 . S
C522 O535 1.257 . S
O523 Dy520 2.307 1_544 S
O523 C533 1.266 . S
O524 Dy521 2.298 . S
O524 C533 1.236 . S
O525 Dy520 2.395 . S
O525 C542 1.255 . S
O526 Dy520 2.379 . S
O526 C542 1.249 . S
O527 Dy521 2.275 1_556 S
O527 C543 1.254 . S
O528 Dy520 2.339 1_545 S
O528 C543 1.257 . S
O529 Dy521 2.307 1_566 S
O529 C544 1.266 . S
O530 Dy520 2.298 . S
O530 C544 1.236 . S
O531 Dy521 2.395 . S
O531 C551 1.255 . S
O532 Dy521 2.379 . S
O532 C551 1.249 . S
C533 O523 1.266 . S
C533 O524 1.236 . S
O534 Dy520 2.275 1_554 S
O534 C522 1.254 . S
O535 Dy521 2.339 1_565 S
O535 C522 1.257 . S
C536 C539 1.344 . S
C536 C540 1.328 . S
C536 C542 1.516 . S
C537 C538 1.304 . S
C537 C541 1.323 . S
C538 C537 1.304 . S
C538 C539 1.371 . S
C538 H552 0.930 . S
C539 C536 1.344 . S
C539 C538 1.371 . S
C539 H553 0.931 . S
C540 C536 1.328 . S
C540 C541 1.433 . S
C540 H554 0.931 . S
C541 C537 1.323 . S
C541 C540 1.433 . S
C541 H555 0.933 . S
C542 Dy520 2.738 . S
C542 O525 1.255 . S
C542 O526 1.249 . S
C542 C536 1.516 . S
C543 O527 1.254 . S
C543 O528 1.257 . S
C544 O529 1.266 . S
C544 O530 1.236 . S
C545 C548 1.344 . S
C545 C549 1.328 . S
C545 C551 1.516 . S
C546 C547 1.304 . S
C546 C550 1.323 . S
C547 C546 1.304 . S
C547 C548 1.371 . S
C547 H556 0.930 . S
C548 C545 1.344 . S
C548 C547 1.371 . S
C548 H557 0.931 . S
C549 C545 1.328 . S
C549 C550 1.433 . S
C549 H558 0.931 . S
C550 C546 1.323 . S
C550 C549 1.433 . S
C550 H559 0.933 . S
C551 Dy521 2.738 . S
C551 O531 1.255 . S
C551 O532 1.249 . S
C551 C545 1.516 . S
H552 C538 0.930 . S
H553 C539 0.931 . S
H554 C540 0.931 . S
H555 C541 0.933 . S
H556 C547 0.930 . S
H557 C548 0.931 . S
H558 C549 0.931 . S
H559 C550 0.933 . S
Dy560 O563 2.307 . S
Dy560 O565 2.395 . S
Dy560 O566 2.379 . S
Dy560 O568 2.339 . S
Dy560 O570 2.298 . S
Dy560 O574 2.275 . S
Dy560 C582 2.738 . S
Dy561 O564 2.298 . S
Dy561 O567 2.275 . S
Dy561 O569 2.307 . S
Dy561 O571 2.395 . S
Dy561 O572 2.379 . S
Dy561 O575 2.339 . S
Dy561 C591 2.738 . S
C562 O574 1.254 . S
C562 O575 1.257 . S
O563 Dy560 2.307 . S
O563 C573 1.266 . S
O564 Dy561 2.298 . S
O564 C573 1.236 . S
O565 Dy560 2.395 . S
O565 C582 1.255 . S
O566 Dy560 2.379 . S
O566 C582 1.249 . S
O567 Dy561 2.275 . S
O567 C583 1.254 . S
O568 Dy560 2.339 . S
O568 C583 1.257 . S
O569 Dy561 2.307 . S
O569 C584 1.266 . S
O570 Dy560 2.298 . S
O570 C584 1.236 . S
O571 Dy561 2.395 . S
O571 C591 1.255 . S
O572 Dy561 2.379 . S
O572 C591 1.249 . S
C573 O563 1.266 . S
C573 O564 1.236 . S
O574 Dy560 2.275 . S
O574 C562 1.254 . S
O575 Dy561 2.339 . S
O575 C562 1.257 . S
C576 C579 1.344 . S
C576 C580 1.328 . S
C576 C582 1.516 . S
C577 C578 1.304 . S
C577 C581 1.323 . S
C578 C577 1.304 . S
C578 C579 1.371 . S
C578 H592 0.930 . S
C579 C576 1.344 . S
C579 C578 1.371 . S
C579 H593 0.931 . S
C580 C576 1.328 . S
C580 C581 1.433 . S
C580 H594 0.931 . S
C581 C577 1.323 . S
C581 C580 1.433 . S
C581 H595 0.933 . S
C582 Dy560 2.738 . S
C582 O565 1.255 . S
C582 O566 1.249 . S
C582 C576 1.516 . S
C583 O567 1.254 . S
C583 O568 1.257 . S
C584 O569 1.266 . S
C584 O570 1.236 . S
C585 C588 1.344 . S
C585 C589 1.328 . S
C585 C591 1.516 . S
C586 C587 1.304 . S
C586 C590 1.323 . S
C587 C586 1.304 . S
C587 C588 1.371 . S
C587 H596 0.930 . S
C588 C585 1.344 . S
C588 C587 1.371 . S
C588 H597 0.931 . S
C589 C585 1.328 . S
C589 C590 1.433 . S
C589 H598 0.931 . S
C590 C586 1.323 . S
C590 C589 1.433 . S
C590 H599 0.933 . S
C591 Dy561 2.738 . S
C591 O571 1.255 . S
C591 O572 1.249 . S
C591 C585 1.516 . S
H592 C578 0.930 . S
H593 C579 0.931 . S
H594 C580 0.931 . S
H595 C581 0.933 . S
H596 C587 0.930 . S
H597 C588 0.931 . S
H598 C589 0.931 . S
H599 C590 0.933 . S
Dy600 O603 2.309 1_656 S
Dy600 O605 2.395 . S
Dy600 O606 2.379 . S
Dy600 O608 2.339 1_655 S
Dy600 O610 2.298 . S
Dy600 O614 2.275 1_556 S
Dy600 C622 2.738 . S
Dy601 O604 2.298 . S
Dy601 O607 2.275 1_554 S
Dy601 O609 2.309 1_455 S
Dy601 O611 2.395 . S
Dy601 O612 2.379 . S
Dy601 O615 2.339 1_455 S
Dy601 C631 2.738 . S
C602 O614 1.254 . S
C602 O615 1.257 . S
O603 Dy600 2.309 1_454 S
O603 C613 1.264 . S
O604 Dy601 2.298 . S
O604 C613 1.236 . S
O605 Dy600 2.395 . S
O605 C622 1.255 . S
O606 Dy600 2.379 . S
O606 C622 1.249 . S
O607 Dy601 2.275 1_556 S
O607 C623 1.254 . S
O608 Dy600 2.339 1_455 S
O608 C623 1.257 . S
O609 Dy601 2.309 1_655 S
O609 C624 1.264 1_554 S
O610 Dy600 2.298 . S
O610 C624 1.236 . S
O611 Dy601 2.395 . S
O611 C631 1.255 . S
O612 Dy601 2.379 . S
O612 C631 1.249 . S
C613 O603 1.264 . S
C613 O604 1.236 . S
O614 Dy600 2.275 1_554 S
O614 C602 1.254 . S
O615 Dy601 2.339 1_655 S
O615 C602 1.257 . S
C616 C619 1.344 . S
C616 C620 1.328 . S
C616 C622 1.516 . S
C617 C618 1.304 . S
C617 C621 1.323 . S
C618 C617 1.304 . S
C618 C619 1.371 . S
C618 H632 0.930 . S
C619 C616 1.344 . S
C619 C618 1.371 . S
C619 H633 0.931 . S
C620 C616 1.328 . S
C620 C621 1.433 . S
C620 H634 0.931 . S
C621 C617 1.323 . S
C621 C620 1.433 . S
C621 H635 0.933 . S
C622 Dy600 2.738 . S
C622 O605 1.255 . S
C622 O606 1.249 . S
C622 C616 1.516 . S
C623 O607 1.254 . S
C623 O608 1.257 . S
C624 O609 1.264 1_556 S
C624 O610 1.236 . S
C625 C628 1.344 . S
C625 C629 1.328 . S
C625 C631 1.516 . S
C626 C627 1.304 . S
C626 C630 1.323 . S
C627 C626 1.304 . S
C627 C628 1.371 . S
C627 H636 0.930 . S
C628 C625 1.344 . S
C628 C627 1.371 . S
C628 H637 0.931 . S
C629 C625 1.328 . S
C629 C630 1.433 . S
C629 H638 0.931 . S
C630 C626 1.323 . S
C630 C629 1.433 . S
C630 H639 0.933 . S
C631 Dy601 2.738 . S
C631 O611 1.255 . S
C631 O612 1.249 . S
C631 C625 1.516 . S
H632 C618 0.930 . S
H633 C619 0.931 . S
H634 C620 0.931 . S
H635 C621 0.933 . S
H636 C627 0.930 . S
H637 C628 0.931 . S
H638 C629 0.931 . S
H639 C630 0.933 . S
C640 C641 1.369 . S
C640 C642 1.419 . S
C640 H644 0.930 . S
C641 C640 1.369 . S
C641 C650 1.429 . S
C642 C640 1.419 . S
C642 C643 1.363 . S
C642 H645 0.929 . S
C643 C642 1.363 . S
C643 C649 1.428 . S
H644 C640 0.930 . S
H645 C642 0.929 . S
S646 N647 1.613 . S
S646 N648 1.610 . S
N647 S646 1.613 . S
N647 C650 1.350 . S
N648 S646 1.610 . S
N648 C649 1.351 . S
C649 C643 1.428 . S
C649 N648 1.351 . S
C649 C650 1.434 . S
C650 C641 1.429 . S
C650 N647 1.350 . S
C650 C649 1.434 . S
C651 C652 1.369 . S
C651 C653 1.419 . S
C651 H655 0.930 . S
C652 C651 1.369 . S
C652 C661 1.429 . S
C653 C651 1.419 . S
C653 C654 1.363 . S
C653 H656 0.929 . S
C654 C653 1.363 . S
C654 C660 1.428 . S
H655 C651 0.930 . S
H656 C653 0.929 . S
S657 N658 1.613 . S
S657 N659 1.610 . S
N658 S657 1.613 . S
N658 C661 1.350 . S
N659 S657 1.610 . S
N659 C660 1.351 . S
C660 C654 1.428 . S
C660 N659 1.351 . S
C660 C661 1.434 . S
C661 C652 1.429 . S
C661 N658 1.350 . S
C661 C660 1.434 . S
C662 C663 1.369 . S
C662 C664 1.419 . S
C662 H666 0.930 . S
C663 C662 1.369 . S
C663 C672 1.429 . S
C664 C662 1.419 . S
C664 C665 1.363 . S
C664 H667 0.929 . S
C665 C664 1.363 . S
C665 C671 1.428 . S
H666 C662 0.930 . S
H667 C664 0.929 . S
S668 N669 1.613 . S
S668 N670 1.610 . S
N669 S668 1.613 . S
N669 C672 1.350 . S
N670 S668 1.610 . S
N670 C671 1.351 . S
C671 C665 1.428 . S
C671 N670 1.351 . S
C671 C672 1.434 . S
C672 C663 1.429 . S
C672 N669 1.350 . S
C672 C671 1.434 . S
C673 C674 1.369 . S
C673 C675 1.419 . S
C673 H677 0.930 . S
C674 C673 1.369 . S
C674 C683 1.429 . S
C675 C673 1.419 . S
C675 C676 1.363 . S
C675 H678 0.929 . S
C676 C675 1.363 . S
C676 C682 1.428 . S
H677 C673 0.930 . S
H678 C675 0.929 . S
S679 N680 1.613 . S
S679 N681 1.610 . S
N680 S679 1.613 . S
N680 C683 1.350 . S
N681 S679 1.610 . S
N681 C682 1.351 . S
C682 C676 1.428 . S
C682 N681 1.351 . S
C682 C683 1.434 . S
C683 C674 1.429 . S
C683 N680 1.350 . S
C683 C682 1.434 . S
C684 C685 1.369 . S
C684 C686 1.419 . S
C684 H688 0.930 . S
C685 C684 1.369 . S
C685 C694 1.429 . S
C686 C684 1.419 . S
C686 C687 1.363 . S
C686 H689 0.929 . S
C687 C686 1.363 . S
C687 C693 1.428 . S
H688 C684 0.930 . S
H689 C686 0.929 . S
S690 N691 1.613 . S
S690 N692 1.610 . S
N691 S690 1.613 . S
N691 C694 1.350 . S
N692 S690 1.610 . S
N692 C693 1.351 . S
C693 C687 1.428 . S
C693 N692 1.351 . S
C693 C694 1.434 . S
C694 C685 1.429 . S
C694 N691 1.350 . S
C694 C693 1.434 . S
C695 C696 1.369 1_655 S
C695 C697 1.419 . S
C695 H699 0.930 . S
C696 C695 1.369 1_455 S
C696 C705 1.429 . S
C697 C695 1.419 . S
C697 C698 1.363 1_655 S
C697 H700 0.929 . S
C698 C697 1.363 1_455 S
C698 C704 1.428 . S
H699 C695 0.930 . S
H700 C697 0.929 . S
S701 N702 1.613 . S
S701 N703 1.610 . S
N702 S701 1.613 . S
N702 C705 1.350 . S
N703 S701 1.610 . S
N703 C704 1.351 . S
C704 C698 1.428 . S
C704 N703 1.351 . S
C704 C705 1.434 . S
C705 C696 1.429 . S
C705 N702 1.350 . S
C705 C704 1.434 . S
C706 C707 1.369 . S
C706 C708 1.419 . S
C706 H710 0.930 . S
C707 C706 1.369 . S
C707 C716 1.429 . S
C708 C706 1.419 . S
C708 C709 1.363 . S
C708 H711 0.929 . S
C709 C708 1.363 . S
C709 C715 1.428 . S
H710 C706 0.930 . S
H711 C708 0.929 . S
S712 N713 1.613 . S
S712 N714 1.610 . S
N713 S712 1.613 . S
N713 C716 1.350 . S
N714 S712 1.610 . S
N714 C715 1.351 . S
C715 C709 1.428 . S
C715 N714 1.351 . S
C715 C716 1.434 . S
C716 C707 1.429 . S
C716 N713 1.350 . S
C716 C715 1.434 . S
C717 C718 1.369 . S
C717 C719 1.419 . S
C717 H721 0.930 . S
C718 C717 1.369 . S
C718 C727 1.429 . S
C719 C717 1.419 . S
C719 C720 1.363 . S
C719 H722 0.929 . S
C720 C719 1.363 . S
C720 C726 1.428 . S
H721 C717 0.930 . S
H722 C719 0.929 . S
S723 N724 1.613 . S
S723 N725 1.610 . S
N724 S723 1.613 . S
N724 C727 1.350 . S
N725 S723 1.610 . S
N725 C726 1.351 . S
C726 C720 1.428 . S
C726 N725 1.351 . S
C726 C727 1.434 . S
C727 C718 1.429 . S
C727 N724 1.350 . S
C727 C726 1.434 . S
C728 C729 1.369 . S
C728 C730 1.419 . S
C728 H732 0.930 . S
C729 C728 1.369 . S
C729 C738 1.429 . S
C730 C728 1.419 . S
C730 C731 1.363 . S
C730 H733 0.929 . S
C731 C730 1.363 . S
C731 C737 1.428 . S
H732 C728 0.930 . S
H733 C730 0.929 . S
S734 N735 1.613 . S
S734 N736 1.610 . S
N735 S734 1.613 . S
N735 C738 1.350 . S
N736 S734 1.610 . S
N736 C737 1.351 . S
C737 C731 1.428 . S
C737 N736 1.351 . S
C737 C738 1.434 . S
C738 C729 1.429 . S
C738 N735 1.350 . S
C738 C737 1.434 . S
C739 C740 1.369 . S
C739 C741 1.419 . S
C739 H743 0.930 . S
C740 C739 1.369 . S
C740 C749 1.429 . S
C741 C739 1.419 . S
C741 C742 1.363 . S
C741 H744 0.929 . S
C742 C741 1.363 . S
C742 C748 1.428 . S
H743 C739 0.930 . S
H744 C741 0.929 . S
S745 N746 1.613 . S
S745 N747 1.610 . S
N746 S745 1.613 . S
N746 C749 1.350 . S
N747 S745 1.610 . S
N747 C748 1.351 . S
C748 C742 1.428 . S
C748 N747 1.351 . S
C748 C749 1.434 . S
C749 C740 1.429 . S
C749 N746 1.350 . S
C749 C748 1.434 . S
C750 C751 1.369 . S
C750 C752 1.419 . S
C750 H754 0.930 . S
C751 C750 1.369 . S
C751 C760 1.429 . S
C752 C750 1.419 . S
C752 C753 1.363 . S
C752 H755 0.929 . S
C753 C752 1.363 . S
C753 C759 1.428 . S
H754 C750 0.930 . S
H755 C752 0.929 . S
S756 N757 1.613 . S
S756 N758 1.610 . S
N757 S756 1.613 . S
N757 C760 1.350 . S
N758 S756 1.610 . S
N758 C759 1.351 . S
C759 C753 1.428 . S
C759 N758 1.351 . S
C759 C760 1.434 . S
C760 C751 1.429 . S
C760 N757 1.350 . S
C760 C759 1.434 . S
C761 C762 1.369 . S
C761 C763 1.419 . S
C761 H765 0.930 . S
C762 C761 1.369 . S
C762 C771 1.429 . S
C763 C761 1.419 . S
C763 C764 1.363 . S
C763 H766 0.929 . S
C764 C763 1.363 . S
C764 C770 1.428 . S
H765 C761 0.930 . S
H766 C763 0.929 . S
S767 N768 1.613 . S
S767 N769 1.610 . S
N768 S767 1.613 . S
N768 C771 1.350 . S
N769 S767 1.610 . S
N769 C770 1.351 . S
C770 C764 1.428 . S
C770 N769 1.351 . S
C770 C771 1.434 . S
C771 C762 1.429 . S
C771 N768 1.350 . S
C771 C770 1.434 . S
C772 C773 1.369 . S
C772 C774 1.419 . S
C772 H776 0.930 . S
C773 C772 1.369 . S
C773 C782 1.429 . S
C774 C772 1.419 . S
C774 C775 1.363 . S
C774 H777 0.929 . S
C775 C774 1.363 . S
C775 C781 1.428 . S
H776 C772 0.930 . S
H777 C774 0.929 . S
S778 N779 1.613 . S
S778 N780 1.610 . S
N779 S778 1.613 . S
N779 C782 1.350 . S
N780 S778 1.610 . S
N780 C781 1.351 . S
C781 C775 1.428 . S
C781 N780 1.351 . S
C781 C782 1.434 . S
C782 C773 1.429 . S
C782 N779 1.350 . S
C782 C781 1.434 . S
C783 C784 1.369 . S
C783 C785 1.419 . S
C783 H787 0.930 . S
C784 C783 1.369 . S
C784 C793 1.429 . S
C785 C783 1.419 . S
C785 C786 1.363 . S
C785 H788 0.929 . S
C786 C785 1.363 . S
C786 C792 1.428 . S
H787 C783 0.930 . S
H788 C785 0.929 . S
S789 N790 1.613 . S
S789 N791 1.610 . S
N790 S789 1.613 . S
N790 C793 1.350 . S
N791 S789 1.610 . S
N791 C792 1.351 . S
C792 C786 1.428 . S
C792 N791 1.351 . S
C792 C793 1.434 . S
C793 C784 1.429 . S
C793 N790 1.350 . S
C793 C792 1.434 . S
C794 C795 1.369 . S
C794 C796 1.419 . S
C794 H798 0.930 . S
C795 C794 1.369 . S
C795 C804 1.429 . S
C796 C794 1.419 . S
C796 C797 1.363 . S
C796 H799 0.929 . S
C797 C796 1.363 . S
C797 C803 1.428 . S
H798 C794 0.930 . S
H799 C796 0.929 . S
S800 N801 1.613 . S
S800 N802 1.610 . S
N801 S800 1.613 . S
N801 C804 1.350 . S
N802 S800 1.610 . S
N802 C803 1.351 . S
C803 C797 1.428 . S
C803 N802 1.351 . S
C803 C804 1.434 . S
C804 C795 1.429 . S
C804 N801 1.350 . S
C804 C803 1.434 . S
C805 C806 1.369 . S
C805 C807 1.419 . S
C805 H809 0.930 . S
C806 C805 1.369 . S
C806 C815 1.429 . S
C807 C805 1.419 . S
C807 C808 1.363 . S
C807 H810 0.929 . S
C808 C807 1.363 . S
C808 C814 1.428 . S
H809 C805 0.930 . S
H810 C807 0.929 . S
S811 N812 1.613 . S
S811 N813 1.610 . S
N812 S811 1.613 . S
N812 C815 1.350 . S
N813 S811 1.610 . S
N813 C814 1.351 . S
C814 C808 1.428 . S
C814 N813 1.351 . S
C814 C815 1.434 . S
C815 C806 1.429 . S
C815 N812 1.350 . S
C815 C814 1.434 . S
C816 C817 1.369 . S
C816 C818 1.419 . S
C816 H820 0.930 . S
C817 C816 1.369 . S
C817 C826 1.429 . S
C818 C816 1.419 . S
C818 C819 1.363 . S
C818 H821 0.929 . S
C819 C818 1.363 . S
C819 C825 1.428 . S
H820 C816 0.930 . S
H821 C818 0.929 . S
S822 N823 1.613 . S
S822 N824 1.610 . S
N823 S822 1.613 . S
N823 C826 1.350 . S
N824 S822 1.610 . S
N824 C825 1.351 . S
C825 C819 1.428 . S
C825 N824 1.351 . S
C825 C826 1.434 . S
C826 C817 1.429 . S
C826 N823 1.350 . S
C826 C825 1.434 . S
C827 C828 1.369 . S
C827 C829 1.419 . S
C827 H831 0.930 1_655 S
C828 C827 1.369 . S
C828 C837 1.429 . S
C829 C827 1.419 . S
C829 C830 1.363 . S
C829 H832 0.937 . S
C830 C829 1.363 . S
C830 C836 1.428 . S
H831 C827 0.930 1_455 S
H832 C829 0.937 . S
S833 N834 1.613 . S
S833 N835 1.610 . S
N834 S833 1.613 . S
N834 C837 1.350 . S
N835 S833 1.610 . S
N835 C836 1.351 . S
C836 C830 1.428 . S
C836 N835 1.351 . S
C836 C837 1.434 . S
C837 C828 1.429 . S
C837 N834 1.350 . S
C837 C836 1.434 . S
C838 C839 1.369 . S
C838 C840 1.419 . S
C838 H842 0.930 . S
C839 C838 1.369 . S
C839 C848 1.429 . S
C840 C838 1.419 . S
C840 C841 1.363 . S
C840 H843 0.929 . S
C841 C840 1.363 . S
C841 C847 1.428 . S
H842 C838 0.930 . S
H843 C840 0.929 . S
S844 N845 1.613 . S
S844 N846 1.610 . S
N845 S844 1.613 . S
N845 C848 1.350 . S
N846 S844 1.610 . S
N846 C847 1.351 . S
C847 C841 1.428 . S
C847 N846 1.351 . S
C847 C848 1.434 . S
C848 C839 1.429 . S
C848 N845 1.350 . S
C848 C847 1.434 . S
C849 C850 1.369 . S
C849 C851 1.419 . S
C849 H853 0.930 . S
C850 C849 1.369 . S
C850 C859 1.429 . S
C851 C849 1.419 . S
C851 C852 1.363 . S
C851 H854 0.929 . S
C852 C851 1.363 . S
C852 C858 1.428 . S
H853 C849 0.930 . S
H854 C851 0.929 . S
S855 N856 1.613 . S
S855 N857 1.610 . S
N856 S855 1.613 . S
N856 C859 1.350 . S
N857 S855 1.610 . S
N857 C858 1.351 . S
C858 C852 1.428 . S
C858 N857 1.351 . S
C858 C859 1.434 . S
C859 C850 1.429 . S
C859 N856 1.350 . S
C859 C858 1.434 . S
C860 C861 1.369 . S
C860 C862 1.419 . S
C860 H864 0.930 . S
C861 C860 1.369 . S
C861 C870 1.429 . S
C862 C860 1.419 . S
C862 C863 1.363 . S
C862 H865 0.929 . S
C863 C862 1.363 . S
C863 C869 1.428 . S
H864 C860 0.930 . S
H865 C862 0.929 . S
S866 N867 1.613 . S
S866 N868 1.610 . S
N867 S866 1.613 . S
N867 C870 1.350 . S
N868 S866 1.610 . S
N868 C869 1.351 . S
C869 C863 1.428 . S
C869 N868 1.351 . S
C869 C870 1.434 . S
C870 C861 1.429 . S
C870 N867 1.350 . S
C870 C869 1.434 . S
C871 C872 1.369 . S
C871 C873 1.419 . S
C871 H875 0.930 . S
C872 C871 1.369 . S
C872 C881 1.429 . S
C873 C871 1.419 . S
C873 C874 1.363 . S
C873 H876 0.929 . S
C874 C873 1.363 . S
C874 C880 1.428 . S
H875 C871 0.930 . S
H876 C873 0.929 . S
S877 N878 1.613 . S
S877 N879 1.610 . S
N878 S877 1.613 . S
N878 C881 1.350 . S
N879 S877 1.610 . S
N879 C880 1.351 . S
C880 C874 1.428 . S
C880 N879 1.351 . S
C880 C881 1.434 . S
C881 C872 1.429 . S
C881 N878 1.350 . S
C881 C880 1.434 . S
C882 C883 1.369 . S
C882 C884 1.419 . S
C882 H886 0.930 . S
C883 C882 1.369 . S
C883 C892 1.429 . S
C884 C882 1.419 . S
C884 C885 1.363 . S
C884 H887 0.929 . S
C885 C884 1.363 . S
C885 C891 1.428 . S
H886 C882 0.930 . S
H887 C884 0.929 . S
S888 N889 1.613 . S
S888 N890 1.610 . S
N889 S888 1.613 . S
N889 C892 1.350 . S
N890 S888 1.610 . S
N890 C891 1.351 . S
C891 C885 1.428 . S
C891 N890 1.351 . S
C891 C892 1.434 . S
C892 C883 1.429 . S
C892 N889 1.350 . S
C892 C891 1.434 . S
C893 C894 1.369 . S
C893 C895 1.419 . S
C893 H897 0.930 . S
C894 C893 1.369 . S
C894 C903 1.429 . S
C895 C893 1.419 . S
C895 C896 1.363 . S
C895 H898 0.929 . S
C896 C895 1.363 . S
C896 C902 1.428 . S
H897 C893 0.930 . S
H898 C895 0.929 . S
S899 N900 1.613 . S
S899 N901 1.610 . S
N900 S899 1.613 . S
N900 C903 1.350 . S
N901 S899 1.610 . S
N901 C902 1.351 . S
C902 C896 1.428 . S
C902 N901 1.351 . S
C902 C903 1.434 . S
C903 C894 1.429 . S
C903 N900 1.350 . S
C903 C902 1.434 . S
C641 C1 1.185 . S
C643 C497 1.366 . S
C652 C80 1.298 . S
C654 C537 1.367 . S
C665 C562 2.440 . S
C663 C140 2.437 . S
C674 C211 2.486 . S
C676 C602 2.438 . S
C687 C533 1.968 . S
C685 C31 1.678 . S
C698 C493 1.970 . S
C696 C61 1.826 . S
C709 C624 1.780 . S
C707 C151 1.741 . S
C720 C584 1.777 . S
C718 C200 1.837 . S
C729 C20 1.572 . S
C731 C626 1.627 . S
C742 C543 2.198 . S
C740 C121 2.256 . S
C751 C181 2.165 . S
C753 C503 2.202 . S
C762 C91 1.681 . S
C764 C586 1.632 . S
C775 C506 1.368 . S
C773 C260 1.276 . S
C784 C320 1.296 . S
C786 C546 1.368 . S
C795 C361 2.453 . S
C797 C583 2.439 . S
C806 C451 2.483 . S
C808 C623 2.441 . S
C817 C271 1.755 . S
C819 C544 1.967 . S
C830 C504 1.970 . S
C828 C301 1.826 . S
C841 C613 1.776 . S
C839 C380 1.736 . S
C852 C573 1.776 . S
C850 C440 1.836 . S
C861 C241 1.409 . S
C863 C617 1.630 . S
C874 C522 2.201 . S
C872 C391 2.270 . S
C885 C482 2.202 . S
C883 C421 2.167 . S
C894 C331 1.675 . S
C896 C577 1.635 . S
