# Generated by pormake.
# Topology cml, (3,6)-cn, num edge types: 1
# Building blocks:
#     Node 0, Type 0, BuildingBlock: PAMTOO_clean_linker_0, # of connection points: 3
#     Node 1, Type 0, BuildingBlock: PAMTOO_clean_linker_0, # of connection points: 3
#     Node 2, Type 0, BuildingBlock: PAMTOO_clean_linker_0, # of connection points: 3
#     Node 3, Type 0, BuildingBlock: PAMTOO_clean_linker_0, # of connection points: 3
#     Node 4, Type 0, BuildingBlock: PAMTOO_clean_linker_0, # of connection points: 3
#     Node 5, Type 0, BuildingBlock: PAMTOO_clean_linker_0, # of connection points: 3
#     Node 6, Type 0, BuildingBlock: PAMTOO_clean_linker_0, # of connection points: 3
#     Node 7, Type 0, BuildingBlock: PAMTOO_clean_linker_0, # of connection points: 3
#     Node 8, Type 1, BuildingBlock: OJICUG_clean_sbu_0, # of connection points: 6
#     Node 9, Type 1, BuildingBlock: OJICUG_clean_sbu_0, # of connection points: 6
#     Node 10, Type 1, BuildingBlock: OJICUG_clean_sbu_0, # of connection points: 6
#     Node 11, Type 1, BuildingBlock: OJICUG_clean_sbu_0, # of connection points: 6
#     Edge 12, Type (0, 1), BuildingBlock: OJICUG_clean_linker_0, # of connection points: 2
#     Edge 13, Type (0, 1), BuildingBlock: OJICUG_clean_linker_0, # of connection points: 2
#     Edge 14, Type (0, 1), BuildingBlock: OJICUG_clean_linker_0, # of connection points: 2
#     Edge 15, Type (0, 1), BuildingBlock: OJICUG_clean_linker_0, # of connection points: 2
#     Edge 16, Type (0, 1), BuildingBlock: OJICUG_clean_linker_0, # of connection points: 2
#     Edge 17, Type (0, 1), BuildingBlock: OJICUG_clean_linker_0, # of connection points: 2
#     Edge 18, Type (0, 1), BuildingBlock: OJICUG_clean_linker_0, # of connection points: 2
#     Edge 19, Type (0, 1), BuildingBlock: OJICUG_clean_linker_0, # of connection points: 2
#     Edge 20, Type (0, 1), BuildingBlock: OJICUG_clean_linker_0, # of connection points: 2
#     Edge 21, Type (0, 1), BuildingBlock: OJICUG_clean_linker_0, # of connection points: 2
#     Edge 22, Type (0, 1), BuildingBlock: OJICUG_clean_linker_0, # of connection points: 2
#     Edge 23, Type (0, 1), BuildingBlock: OJICUG_clean_linker_0, # of connection points: 2
#     Edge 24, Type (0, 1), BuildingBlock: OJICUG_clean_linker_0, # of connection points: 2
#     Edge 25, Type (0, 1), BuildingBlock: OJICUG_clean_linker_0, # of connection points: 2
#     Edge 26, Type (0, 1), BuildingBlock: OJICUG_clean_linker_0, # of connection points: 2
#     Edge 27, Type (0, 1), BuildingBlock: OJICUG_clean_linker_0, # of connection points: 2
#     Edge 28, Type (0, 1), BuildingBlock: OJICUG_clean_linker_0, # of connection points: 2
#     Edge 29, Type (0, 1), BuildingBlock: OJICUG_clean_linker_0, # of connection points: 2
#     Edge 30, Type (0, 1), BuildingBlock: OJICUG_clean_linker_0, # of connection points: 2
#     Edge 31, Type (0, 1), BuildingBlock: OJICUG_clean_linker_0, # of connection points: 2
#     Edge 32, Type (0, 1), BuildingBlock: OJICUG_clean_linker_0, # of connection points: 2
#     Edge 33, Type (0, 1), BuildingBlock: OJICUG_clean_linker_0, # of connection points: 2
#     Edge 34, Type (0, 1), BuildingBlock: OJICUG_clean_linker_0, # of connection points: 2
#     Edge 35, Type (0, 1), BuildingBlock: OJICUG_clean_linker_0, # of connection points: 2
# Relax obj value: 0.007
# Max RMSD: 0.050
# Mean RMSD: 0.043
data_MOF--net-cml--node1-OJICUG_clean_sbu_0--node2-PAMTOO_clean_linker_0--edge1-OJICUG_clean_linker_0
_symmetry_space_group_name_H-M    P1
_symmetry_Int_Tables_number       1
_symmetry_cell_setting            triclinic
loop_
_symmetry_equiv_pos_as_xyz
'x, y, z'
_cell_length_a     29.617217
_cell_length_b     29.867728
_cell_length_c     25.952502
_cell_angle_alpha  89.552106
_cell_angle_beta   88.286324
_cell_angle_gamma 90.059128
loop_
_atom_site_label
_atom_site_type_symbol
_atom_site_fract_x
_atom_site_fract_y
_atom_site_fract_z
_atom_type_partial_charge
H0 H 0.36834 0.43497 0.0481 0.0
H1 H 0.2702 0.42304 0.92987 0.0
H2 H 0.27437 0.32515 0.0521 0.0
H3 H 0.26115 0.29047 0.94602 0.0
C4 C 0.23904 0.31752 0.93127 0.0
O5 O 0.23297 0.35004 0.96828 0.0
H6 H 0.25605 0.33239 0.89633 0.0
C7 C 0.33972 0.41797 0.0319 0.0
C8 C 0.32319 0.37878 0.05586 0.0
C9 C 0.32128 0.43428 0.98631 0.0
C10 C 0.28515 0.41098 0.96495 0.0
C11 C 0.26821 0.37176 -0.0113 0.0
C12 C 0.28751 0.35544 0.03392 0.0
H13 H 0.64006 0.54617 0.5456 0.0
H14 H 0.73829 0.65234 0.54272 0.0
H15 H 0.7314 0.56261 0.4147 0.0
H16 H 0.82265 0.58513 0.43581 0.0
C17 C 0.81739 0.61703 0.45703 0.0
O18 O 0.77346 0.63109 0.45226 0.0
H19 H 0.8248 0.61074 0.4983 0.0
C20 C 0.66849 0.5631 0.52665 0.0
C21 C 0.68358 0.54931 0.47762 0.0
C22 C 0.68785 0.60018 0.55039 0.0
C23 C 0.72303 0.62357 0.5249 0.0
C24 C 0.73889 0.60943 0.47631 0.0
C25 C 0.71897 0.57279 0.45251 0.0
H26 H 0.64663 0.44701 0.05052 0.0
H27 H 0.74438 0.34076 0.04643 0.0
H28 H 0.74051 0.43569 0.92145 0.0
H29 H 0.75748 0.34572 0.88662 0.0
C30 C 0.77144 0.33083 0.92221 0.0
O31 O 0.78031 0.36428 0.95673 0.0
H32 H 0.74581 0.3071 0.93896 0.0
C33 C 0.67562 0.43107 0.0319 0.0
C34 C 0.69152 0.44667 0.98361 0.0
C35 C 0.69443 0.39307 0.05488 0.0
C36 C 0.72998 0.37058 0.02949 0.0
C37 C 0.74673 0.38642 0.98168 0.0
C38 C 0.7277 0.42438 0.95888 0.0
H39 H 0.36977 0.54944 0.54502 0.0
H40 H 0.27795 0.57118 0.42186 0.0
H41 H 0.28082 0.66315 0.54825 0.0
H42 H 0.18918 0.6311 0.51158 0.0
C43 C 0.1974 0.63265 0.46944 0.0
O44 O 0.24228 0.64368 0.46121 0.0
H45 H 0.19073 0.59894 0.4533 0.0
C46 C 0.34262 0.56836 0.52814 0.0
C47 C 0.32697 0.60728 0.55273 0.0
C48 C 0.32547 0.55488 0.48091 0.0
C49 C 0.29186 0.58097 0.45824 0.0
C50 C 0.27547 0.6196 0.4828 0.0
C51 C 0.29338 0.63307 0.52971 0.0
H52 H 0.86818 0.93515 0.04832 0.0
H53 H 0.77001 0.92319 0.93013 0.0
H54 H 0.77423 0.82532 0.05236 0.0
H55 H 0.76101 0.79063 0.94628 0.0
C56 C 0.73891 0.81768 0.93153 0.0
O57 O 0.73281 0.85018 0.96854 0.0
H58 H 0.75593 0.83256 0.8966 0.0
C59 C 0.83955 0.91815 0.03214 0.0
C60 C 0.82303 0.87897 0.05611 0.0
C61 C 0.8211 0.93445 0.98656 0.0
C62 C 0.78496 0.91114 0.96521 0.0
C63 C 0.76804 0.87193 -0.01103 0.0
C64 C 0.78735 0.85562 0.03419 0.0
H65 H 0.14025 0.04593 0.54579 0.0
H66 H 0.23843 0.15214 0.54298 0.0
H67 H 0.23159 0.06245 0.41491 0.0
H68 H 0.32284 0.08504 0.43608 0.0
C69 C 0.31755 0.11696 0.45725 0.0
O70 O 0.27361 0.13096 0.45251 0.0
H71 H 0.325 0.11071 0.49852 0.0
C72 C 0.16868 0.06287 0.52687 0.0
C73 C 0.18378 0.04911 0.47782 0.0
C74 C 0.18801 0.09995 0.55062 0.0
C75 C 0.22319 0.12336 0.52516 0.0
C76 C 0.23906 0.10925 0.47656 0.0
C77 C 0.21916 0.07261 0.45274 0.0
H78 H 0.14671 0.9471 0.05065 0.0
H79 H 0.24443 0.84082 0.04658 0.0
H80 H 0.24053 0.9357 0.92154 0.0
H81 H 0.25743 0.8457 0.88677 0.0
C82 C 0.27142 0.83082 0.92235 0.0
O83 O 0.28033 0.86429 0.95684 0.0
H84 H 0.24581 0.8071 0.93914 0.0
C85 C 0.17569 0.93115 0.03202 0.0
C86 C 0.19158 0.94672 0.98372 0.0
C87 C 0.1945 0.89315 0.05502 0.0
C88 C 0.23003 0.87064 0.02963 0.0
C89 C 0.24677 0.88646 0.9818 0.0
C90 C 0.22774 0.92441 0.95898 0.0
H91 H 0.86962 0.04932 0.5452 0.0
H92 H 0.77783 0.07109 0.42202 0.0
H93 H 0.78068 0.16304 0.54843 0.0
H94 H 0.68904 0.13107 0.51171 0.0
C95 C 0.69728 0.1326 0.46957 0.0
O96 O 0.74216 0.14359 0.46136 0.0
H97 H 0.6906 0.09888 0.45346 0.0
C98 C 0.84247 0.06824 0.52832 0.0
C99 C 0.82682 0.10716 0.55291 0.0
C100 C 0.82534 0.05478 0.48108 0.0
C101 C 0.79173 0.08086 0.45841 0.0
C102 C 0.77533 0.11949 0.48297 0.0
C103 C 0.79323 0.13295 0.52989 0.0
Sc104 Sc 0.00861 0.78244 0.28552 0.0
Sc105 Sc 1.00366 0.90013 0.29373 0.0
Sc106 Sc 1.00175 0.836 0.4071 0.0
O107 O 0.00459 0.83935 0.32882 0.0
C108 C 0.93924 0.75397 0.3768 0.0
C109 C 0.93961 0.84273 0.2227 0.0
C110 C 0.93325 0.91644 0.38664 0.0
C111 C 0.07613 0.84773 0.22365 0.0
C112 C 0.07284 0.75863 0.37892 0.0
C113 C 0.06805 0.9189 0.38694 0.0
O114 O 0.95658 0.74948 0.33168 0.0
O115 O 0.95353 0.8791 0.24163 0.0
O116 O 0.94815 0.88493 0.41468 0.0
O117 O 0.06197 0.80852 0.23478 0.0
O118 O 0.05475 0.78702 0.40936 0.0
O119 O 0.05355 0.92762 0.34246 0.0
O120 O 0.06028 0.7534 0.33282 0.0
O121 O 0.05777 0.88281 0.24171 0.0
O122 O 0.05253 0.887 0.41497 0.0
O123 O 0.95664 0.80475 0.23351 0.0
O124 O 0.95146 0.78422 0.40766 0.0
O125 O 0.94986 0.92533 0.34213 0.0
Sc126 Sc 0.00655 0.20416 0.78505 0.0
Sc127 Sc 1.00402 0.08673 0.79798 0.0
Sc128 Sc 1.00102 0.153 0.90891 0.0
O129 O 1.00379 0.14806 0.83066 0.0
C130 C 0.07185 0.23013 0.8763 0.0
C131 C 0.07505 0.13953 0.72521 0.0
C132 C 0.06937 0.07158 0.89187 0.0
C133 C 0.93916 0.14145 0.72417 0.0
C134 C 0.93494 0.2312 0.87415 0.0
C135 C 0.93378 0.07078 0.89165 0.0
O136 O 0.05849 0.23424 0.83034 0.0
O137 O 0.05784 0.10424 0.74497 0.0
O138 O 0.05335 0.10365 0.91869 0.0
O139 O 0.95517 0.17991 0.73415 0.0
O140 O 0.94845 0.20263 0.90684 0.0
O141 O 0.95037 0.06156 0.84736 0.0
O142 O 0.95327 0.23602 0.8295 0.0
O143 O 0.95367 0.10561 0.74446 0.0
O144 O 0.94857 0.1027 0.91867 0.0
O145 O 0.06001 0.17847 0.73509 0.0
O146 O 0.05356 0.20307 0.90878 0.0
O147 O 0.05451 0.06147 0.84806 0.0
Sc148 Sc 0.50861 0.28236 0.28548 0.0
Sc149 Sc 0.50364 0.40006 0.29359 0.0
Sc150 Sc 0.50174 0.336 0.40702 0.0
O151 O 0.50458 0.33929 0.32873 0.0
C152 C 0.43925 0.25393 0.37679 0.0
C153 C 0.43962 0.34259 0.22259 0.0
C154 C 0.43324 0.41642 0.3865 0.0
C155 C 0.57612 0.34763 0.22356 0.0
C156 C 0.57283 0.2586 0.37891 0.0
C157 C 0.56801 0.41891 0.3868 0.0
O158 O 0.45659 0.24942 0.33166 0.0
O159 O 0.45352 0.37898 0.2415 0.0
O160 O 0.44814 0.38493 0.41457 0.0
O161 O 0.56197 0.30842 0.23471 0.0
O162 O 0.55475 0.28702 0.40932 0.0
O163 O 0.55351 0.4276 0.34231 0.0
O164 O 0.56029 0.25335 0.33281 0.0
O165 O 0.55776 0.38271 0.24159 0.0
O166 O 0.55251 0.38702 0.41485 0.0
O167 O 0.45666 0.30463 0.23344 0.0
O168 O 0.45147 0.28421 0.40761 0.0
O169 O 0.44983 0.42528 0.34197 0.0
Sc170 Sc 0.50655 0.70427 0.78505 0.0
Sc171 Sc 0.50408 0.58682 0.79786 0.0
Sc172 Sc 0.50102 0.65302 0.90886 0.0
O173 O 0.50381 0.64813 0.8306 0.0
C174 C 0.57181 0.7302 0.87635 0.0
C175 C 0.57508 0.63971 0.72514 0.0
C176 C 0.56941 0.57163 0.89176 0.0
C177 C 0.43921 0.64156 0.72408 0.0
C178 C 0.43491 0.7312 0.87416 0.0
C179 C 0.43384 0.57076 0.8915 0.0
O180 O 0.55847 0.73434 0.83038 0.0
O181 O 0.5579 0.60439 0.74488 0.0
O182 O 0.55337 0.60368 0.91861 0.0
O183 O 0.45519 0.68003 0.7341 0.0
O184 O 0.44842 0.70261 0.90682 0.0
O185 O 0.45044 0.56159 0.84721 0.0
O186 O 0.45325 0.73607 0.82951 0.0
O187 O 0.45374 0.60571 0.74435 0.0
O188 O 0.4486 0.60268 0.91856 0.0
O189 O 0.56002 0.67864 0.73506 0.0
O190 O 0.55353 0.70312 0.90879 0.0
O191 O 0.55457 0.56155 0.84794 0.0
C192 C 0.17515 0.30591 0.87003 0.0
C193 C 0.19411 0.29759 0.91813 0.0
H194 H 0.12166 0.29136 0.81904 0.0
C195 C 0.1711 0.26954 0.95368 0.0
H196 H 0.19208 0.32779 0.84212 0.0
C197 C 0.13069 0.24877 0.94072 0.0
C198 C 0.11235 0.25565 0.89181 0.0
H199 H 0.18497 0.26297 -0.00885 0.0
H200 H 0.11444 0.22648 0.96869 0.0
C201 C 0.13476 0.28508 0.85693 0.0
C202 C 0.85911 0.68947 0.46618 0.0
C203 C 0.84833 0.65267 0.43571 0.0
H204 H 0.89606 0.75056 0.47145 0.0
C205 C 0.8648 0.6508 0.38455 0.0
H206 H 0.84578 0.69194 0.50539 0.0
C207 C 0.89341 0.68436 0.3648 0.0
C208 C 0.90566 0.72057 0.39583 0.0
H209 H 0.85594 0.62311 0.36009 0.0
H210 H 0.90645 0.68147 0.32554 0.0
C211 C 0.88762 0.72306 0.44653 0.0
C212 C 0.83048 0.27447 0.94538 0.0
C213 C 0.81422 0.30582 0.91 0.0
H214 H 0.88143 0.22632 0.962 0.0
C215 C 0.83904 0.31448 0.86415 0.0
H216 H 0.81211 0.26795 0.98139 0.0
C217 C 0.87875 0.29087 0.8529 0.0
C218 C 0.89458 0.25843 0.88761 0.0
H219 H 0.82745 0.33917 0.83676 0.0
H220 H 0.89672 0.29775 0.81675 0.0
C221 C 0.87023 0.2509 0.93429 0.0
C222 C 0.1538 0.66103 0.39356 0.0
C223 C 0.16792 0.66691 0.44424 0.0
H224 H 0.11266 0.68537 0.3329 0.0
C225 C 0.15391 0.70504 0.47146 0.0
H226 H 0.16489 0.63217 0.37156 0.0
C227 C 0.12419 0.73552 0.44953 0.0
C228 C 0.1081 0.7287 0.39964 0.0
H229 H 0.16509 0.71064 0.51025 0.0
H230 H 0.11312 0.76395 0.47224 0.0
C231 C 0.12407 0.69157 0.37146 0.0
C232 C 0.67097 0.76967 0.95386 0.0
C233 C 0.69398 0.79775 0.91834 0.0
H234 H 0.61432 0.72656 0.96879 0.0
C235 C 0.67506 0.80606 0.87022 0.0
H236 H 0.68481 0.7631 -0.00866 0.0
C237 C 0.6347 0.78521 0.85707 0.0
C238 C 0.61228 0.75575 0.89191 0.0
H239 H 0.692 0.82795 0.84233 0.0
H240 H 0.62163 0.79149 0.81916 0.0
C241 C 0.63058 0.74888 0.94084 0.0
C242 C 0.36493 0.15068 0.38471 0.0
C243 C 0.34845 0.15261 0.43587 0.0
H244 H 0.40655 0.18133 0.32565 0.0
C245 C 0.35917 0.18947 0.46626 0.0
H246 H 0.3561 0.12295 0.3603 0.0
C247 C 0.38764 0.22307 0.44655 0.0
C248 C 0.40569 0.22053 0.39586 0.0
H249 H 0.34582 0.19198 0.50546 0.0
H250 H 0.39604 0.25062 0.47142 0.0
C251 C 0.39349 0.18425 0.3649 0.0
C252 C 0.33047 0.77444 0.94545 0.0
C253 C 0.3142 0.80581 0.9101 0.0
H254 H 0.38142 0.72627 0.96202 0.0
C255 C 0.339 0.81449 0.86424 0.0
H256 H 0.31211 0.7679 0.98147 0.0
C257 C 0.37871 0.79088 0.85297 0.0
C258 C 0.39454 0.75843 0.88764 0.0
H259 H 0.3274 0.83919 0.83688 0.0
H260 H 0.39667 0.79778 0.81681 0.0
C261 C 0.37021 0.75087 0.93433 0.0
C262 C 0.65384 0.20502 0.47152 0.0
C263 C 0.66783 0.16686 0.44434 0.0
H264 H 0.61308 0.26396 0.47224 0.0
C265 C 0.65374 0.16097 0.39365 0.0
H266 H 0.665 0.21063 0.51032 0.0
C267 C 0.62403 0.19152 0.37152 0.0
C268 C 0.60808 0.22867 0.39967 0.0
H269 H 0.66481 0.1321 0.37168 0.0
H270 H 0.61263 0.18531 0.33295 0.0
C271 C 0.62415 0.2355 0.44956 0.0
C272 C 0.35363 0.47225 0.90706 0.0
C273 C 0.34255 0.47366 0.95998 0.0
H274 H 0.39087 0.50193 0.84381 0.0
C275 C 0.35696 0.51052 -0.01129 0.0
H276 H 0.34322 0.44425 0.88394 0.0
C277 C 0.38461 0.54354 0.96588 0.0
C278 C 0.39852 0.54038 0.91379 0.0
H279 H 0.34831 0.51287 0.02945 0.0
H280 H 0.39674 0.57035 -0.01028 0.0
C281 C 0.38132 0.50522 0.88422 0.0
C282 C 0.64696 0.51739 0.40056 0.0
C283 C 0.65985 0.51248 0.45188 0.0
H284 H 0.60798 0.49162 0.33962 0.0
C285 C 0.64605 0.47417 0.47994 0.0
H286 H 0.65685 0.54671 0.37811 0.0
C287 C 0.61765 0.44271 0.45814 0.0
C288 C 0.60252 0.44896 0.40779 0.0
H289 H 0.65615 0.46921 0.51936 0.0
H290 H 0.6064 0.41434 0.48141 0.0
C291 C 0.61861 0.48593 0.3787 0.0
C292 C 0.6542 0.47792 0.9061 0.0
C293 C 0.66669 0.48297 0.95747 0.0
H294 H 0.61378 0.50191 0.84504 0.0
C295 C 0.65053 0.52008 0.98542 0.0
H296 H 0.66578 0.44947 0.88372 0.0
C297 C 0.62026 0.55 0.96348 0.0
C298 C 0.60552 0.54336 0.91313 0.0
H299 H 0.66009 0.5251 0.02493 0.0
H300 H 0.60723 0.57735 0.98669 0.0
C301 C 0.62395 0.50779 0.88415 0.0
C302 C 0.35743 0.51766 0.40172 0.0
C303 C 0.34541 0.51536 0.45439 0.0
H304 H 0.3941 0.48797 0.33874 0.0
C305 C 0.35718 0.47697 0.48273 0.0
H306 H 0.34901 0.5468 0.37883 0.0
C307 C 0.38348 0.44328 0.45993 0.0
C308 C 0.39849 0.44725 0.40822 0.0
H309 H 0.34757 0.47382 0.5232 0.0
H310 H 0.39378 0.41526 0.48355 0.0
C311 C 0.38362 0.48396 0.37885 0.0
C312 C 0.85683 0.01067 -0.01111 0.0
C313 C 0.84239 0.97381 0.96019 0.0
H314 H 0.89667 0.07046 -0.01014 0.0
C315 C 0.85347 0.97236 0.90728 0.0
H316 H 0.84818 0.01305 0.02964 0.0
C317 C 0.8812 0.00529 0.88441 0.0
C318 C 0.89843 0.04045 0.91396 0.0
H319 H 0.84303 0.94435 0.88417 0.0
H320 H 0.89074 0.00196 0.84401 0.0
C321 C 0.88451 0.04366 0.96604 0.0
C322 C 0.14622 0.97398 0.48007 0.0
C323 C 0.16003 0.01231 0.45205 0.0
H324 H 0.10651 0.91419 0.48151 0.0
C325 C 0.14711 0.01728 0.40075 0.0
H326 H 0.15634 0.96897 0.51947 0.0
C327 C 0.11871 0.98588 0.37888 0.0
C328 C 0.1026 0.9489 0.40794 0.0
H329 H 0.15701 0.04661 0.37832 0.0
H330 H 0.10805 0.99161 0.33982 0.0
C331 C 0.11777 0.94258 0.45826 0.0
C332 C 0.15419 0.9779 0.90622 0.0
C333 C 0.16673 0.98299 0.95757 0.0
H334 H 0.11371 0.00182 0.84518 0.0
C335 C 0.15058 0.02013 0.98549 0.0
H336 H 0.16575 0.94943 0.88386 0.0
C337 C 0.12027 0.05002 0.96356 0.0
C338 C 0.10549 0.04333 0.91323 0.0
H339 H 0.16017 0.02518 0.02498 0.0
H340 H 0.10726 0.07738 0.98675 0.0
C341 C 0.12391 0.00774 0.88428 0.0
C342 C 0.85736 0.01762 0.40188 0.0
C343 C 0.84531 0.01528 0.45455 0.0
H344 H 0.8941 0.98799 0.33891 0.0
C345 C 0.85709 0.97688 0.48287 0.0
H346 H 0.84893 0.04676 0.37902 0.0
C347 C 0.88343 0.94323 0.46006 0.0
C348 C 0.89848 0.94724 0.40836 0.0
H349 H 0.84746 0.9737 0.52333 0.0
H350 H 0.89374 0.91521 0.48367 0.0
C351 C 0.88359 0.98396 0.37902 0.0
C352 C 0.36874 0.32307 0.10523 0.0
C353 C 0.34446 0.36344 0.10365 0.0
H354 H 0.41841 0.28438 0.14474 0.0
C355 C 0.34691 0.3932 0.14493 0.0
H356 H 0.36753 0.29982 0.07347 0.0
C357 C 0.37579 0.38464 0.18514 0.0
C358 C 0.40311 0.34614 0.18497 0.0
H359 H 0.32832 0.42444 0.14456 0.0
H360 H 0.37827 0.4094 0.21523 0.0
C361 C 0.39791 0.31439 0.14581 0.0
C362 C 0.6497 0.65762 0.60595 0.0
C363 C 0.66874 0.61482 0.60056 0.0
H364 H 0.60467 0.69943 0.65033 0.0
C365 C 0.66267 0.58327 0.64041 0.0
H366 H 0.65389 0.68236 0.57543 0.0
C367 C 0.63464 0.5928 0.68285 0.0
C368 C 0.61197 0.63406 0.68617 0.0
H369 H 0.67745 0.55019 0.63716 0.0
H370 H 0.62883 0.56683 0.71169 0.0
C371 C 0.62144 0.66724 0.64863 0.0
C372 C 0.66738 0.40581 0.14478 0.0
C373 C 0.67384 0.37617 0.10366 0.0
H374 H 0.63188 0.41946 0.21553 0.0
C375 C 0.65358 0.33363 0.10625 0.0
H376 H 0.68298 0.43866 0.14366 0.0
C377 C 0.62386 0.32255 0.14742 0.0
C378 C 0.61415 0.35406 0.18614 0.0
H379 H 0.658 0.3104 0.07465 0.0
H380 H 0.60619 0.29079 0.14699 0.0
C381 C 0.6379 0.39485 0.18565 0.0
C382 C 0.35206 0.58843 0.64084 0.0
C383 C 0.34762 0.62051 0.60158 0.0
H384 H 0.38384 0.57023 0.71056 0.0
C385 C 0.36865 0.66241 0.60643 0.0
H386 H 0.33575 0.55606 0.63824 0.0
C387 C 0.39663 0.67065 0.64802 0.0
C388 C 0.4039 0.63702 0.68515 0.0
H389 H 0.36584 0.6876 0.57645 0.0
H390 H 0.41452 0.70224 0.64941 0.0
C391 C 0.3798 0.59657 0.68213 0.0
C392 C 0.86861 0.82324 0.10543 0.0
C393 C 0.84433 0.86361 0.10388 0.0
H394 H 0.91829 0.78453 0.14488 0.0
C395 C 0.84684 0.89338 0.14515 0.0
H396 H 0.86735 0.79999 0.07368 0.0
C397 C 0.87577 0.88481 0.18532 0.0
C398 C 0.90308 0.8463 0.18511 0.0
H399 H 0.82827 0.92462 0.1448 0.0
H400 H 0.87829 0.90957 0.2154 0.0
C401 C 0.89782 0.81455 0.14596 0.0
C402 C 0.14983 0.1574 0.60613 0.0
C403 C 0.16886 0.1146 0.60076 0.0
H404 H 0.10476 0.19923 0.65044 0.0
C405 C 0.1627 0.08304 0.6406 0.0
H406 H 0.15407 0.18215 0.57563 0.0
C407 C 0.13461 0.09257 0.68299 0.0
C408 C 0.11196 0.13385 0.68628 0.0
H409 H 0.17747 0.04995 0.63737 0.0
H410 H 0.12875 0.06661 0.71182 0.0
C411 C 0.12151 0.16703 0.64876 0.0
C412 C 0.15364 0.83372 0.10638 0.0
C413 C 0.1739 0.87627 0.1038 0.0
H414 H 0.10624 0.79088 0.14711 0.0
C415 C 0.16742 0.90591 0.14491 0.0
H416 H 0.15808 0.81048 0.07479 0.0
C417 C 0.13791 0.89496 0.18576 0.0
C418 C 0.11416 0.85416 0.18624 0.0
H419 H 0.18302 0.93876 0.14379 0.0
H420 H 0.13188 0.91957 0.21563 0.0
C421 C 0.1239 0.82265 0.14754 0.0
C422 C 0.85194 0.08833 0.64102 0.0
C423 C 0.84748 0.1204 0.60176 0.0
H424 H 0.88376 0.07013 0.71071 0.0
C425 C 0.86853 0.16229 0.60657 0.0
H426 H 0.83562 0.05596 0.63844 0.0
C427 C 0.89654 0.17053 0.64814 0.0
C428 C 0.90382 0.13691 0.68527 0.0
H429 H 0.86571 0.18748 0.57659 0.0
H430 H 0.91444 0.20212 0.6495 0.0
C431 C 0.87971 0.09646 0.68228 0.0
loop_
_geom_bond_atom_site_label_1
_geom_bond_atom_site_label_2
_geom_bond_distance
_geom_bond_site_symmetry_2
_ccdc_geom_bond_type
H0 C7 0.929 . S
H1 C10 0.930 . S
H2 C12 0.929 . S
H3 C4 0.969 . S
C4 H3 0.969 . S
C4 O5 1.550 1_556 S
C4 H6 0.973 . S
O5 C4 1.550 1_554 S
O5 C11 1.412 . S
H6 C4 0.973 . S
C7 H0 0.929 . S
C7 C8 1.400 . S
C7 C9 1.364 1_554 S
C8 C7 1.400 . S
C8 C12 1.377 . S
C9 C7 1.364 1_556 S
C9 C10 1.374 . S
C10 H1 0.930 . S
C10 C9 1.374 . S
C10 C11 1.383 1_556 S
C11 O5 1.412 . S
C11 C10 1.383 1_554 S
C11 C12 1.394 . S
C12 H2 0.929 . S
C12 C8 1.377 . S
C12 C11 1.394 . S
H13 C20 0.929 . S
H14 C23 0.930 . S
H15 C25 0.929 . S
H16 C17 0.969 . S
C17 H16 0.969 . S
C17 O18 1.550 . S
C17 H19 0.973 . S
O18 C17 1.550 . S
O18 C24 1.412 . S
H19 C17 0.973 . S
C20 H13 0.929 . S
C20 C21 1.400 . S
C20 C22 1.364 . S
C21 C20 1.400 . S
C21 C25 1.377 . S
C22 C20 1.364 . S
C22 C23 1.374 . S
C23 H14 0.930 . S
C23 C22 1.374 . S
C23 C24 1.383 . S
C24 O18 1.412 . S
C24 C23 1.383 . S
C24 C25 1.394 . S
C25 H15 0.929 . S
C25 C21 1.377 . S
C25 C24 1.394 . S
H26 C33 0.929 . S
H27 C36 0.930 . S
H28 C38 0.929 . S
H29 C30 0.969 . S
C30 H29 0.969 . S
C30 O31 1.550 . S
C30 H32 0.973 1_556 S
O31 C30 1.550 . S
O31 C37 1.412 . S
H32 C30 0.973 1_554 S
C33 H26 0.929 . S
C33 C34 1.400 1_554 S
C33 C35 1.364 . S
C34 C33 1.400 1_556 S
C34 C38 1.377 . S
C35 C33 1.364 . S
C35 C36 1.374 . S
C36 H27 0.930 . S
C36 C35 1.374 . S
C36 C37 1.383 1_554 S
C37 O31 1.412 . S
C37 C36 1.383 1_556 S
C37 C38 1.394 . S
C38 H28 0.929 . S
C38 C34 1.377 . S
C38 C37 1.394 . S
H39 C46 0.929 . S
H40 C49 0.930 . S
H41 C51 0.929 . S
H42 C43 0.969 . S
C43 H42 0.969 . S
C43 O44 1.550 . S
C43 H45 0.973 . S
O44 C43 1.550 . S
O44 C50 1.412 . S
H45 C43 0.973 . S
C46 H39 0.929 . S
C46 C47 1.400 . S
C46 C48 1.364 . S
C47 C46 1.400 . S
C47 C51 1.377 . S
C48 C46 1.364 . S
C48 C49 1.374 . S
C49 H40 0.930 . S
C49 C48 1.374 . S
C49 C50 1.383 . S
C50 O44 1.412 . S
C50 C49 1.383 . S
C50 C51 1.394 . S
C51 H41 0.929 . S
C51 C47 1.377 . S
C51 C50 1.394 . S
H52 C59 0.929 . S
H53 C62 0.930 . S
H54 C64 0.929 . S
H55 C56 0.969 . S
C56 H55 0.969 . S
C56 O57 1.550 1_556 S
C56 H58 0.973 . S
O57 C56 1.550 1_554 S
O57 C63 1.412 . S
H58 C56 0.973 . S
C59 H52 0.929 . S
C59 C60 1.400 . S
C59 C61 1.364 1_554 S
C60 C59 1.400 . S
C60 C64 1.377 . S
C61 C59 1.364 1_556 S
C61 C62 1.374 . S
C62 H53 0.930 . S
C62 C61 1.374 . S
C62 C63 1.383 1_556 S
C63 O57 1.412 . S
C63 C62 1.383 1_554 S
C63 C64 1.394 . S
C64 H54 0.929 . S
C64 C60 1.377 . S
C64 C63 1.394 . S
H65 C72 0.929 . S
H66 C75 0.930 . S
H67 C77 0.929 . S
H68 C69 0.969 . S
C69 H68 0.969 . S
C69 O70 1.550 . S
C69 H71 0.973 . S
O70 C69 1.550 . S
O70 C76 1.412 . S
H71 C69 0.973 . S
C72 H65 0.929 . S
C72 C73 1.400 . S
C72 C74 1.364 . S
C73 C72 1.400 . S
C73 C77 1.377 . S
C74 C72 1.364 . S
C74 C75 1.374 . S
C75 H66 0.930 . S
C75 C74 1.374 . S
C75 C76 1.383 . S
C76 O70 1.412 . S
C76 C75 1.383 . S
C76 C77 1.394 . S
C77 H67 0.929 . S
C77 C73 1.377 . S
C77 C76 1.394 . S
H78 C85 0.929 . S
H79 C88 0.930 . S
H80 C90 0.929 . S
H81 C82 0.969 . S
C82 H81 0.969 . S
C82 O83 1.550 . S
C82 H84 0.973 1_556 S
O83 C82 1.550 . S
O83 C89 1.412 . S
H84 C82 0.973 1_554 S
C85 H78 0.929 . S
C85 C86 1.400 1_554 S
C85 C87 1.364 . S
C86 C85 1.400 1_556 S
C86 C90 1.377 . S
C87 C85 1.364 . S
C87 C88 1.374 . S
C88 H79 0.930 . S
C88 C87 1.374 . S
C88 C89 1.383 1_554 S
C89 O83 1.412 . S
C89 C88 1.383 1_556 S
C89 C90 1.394 . S
C90 H80 0.929 . S
C90 C86 1.377 . S
C90 C89 1.394 . S
H91 C98 0.929 . S
H92 C101 0.930 . S
H93 C103 0.929 . S
H94 C95 0.969 . S
C95 H94 0.969 . S
C95 O96 1.550 . S
C95 H97 0.973 . S
O96 C95 1.550 . S
O96 C102 1.412 . S
H97 C95 0.973 . S
C98 H91 0.929 . S
C98 C99 1.400 . S
C98 C100 1.364 . S
C99 C98 1.400 . S
C99 C103 1.377 . S
C100 C98 1.364 . S
C100 C101 1.374 . S
C101 H92 0.930 . S
C101 C100 1.374 . S
C101 C102 1.383 . S
C102 O96 1.412 . S
C102 C101 1.383 . S
C102 C103 1.394 . S
C103 H93 0.929 . S
C103 C99 1.377 . S
C103 C102 1.394 . S
Sc104 O107 2.025 . S
Sc104 O114 2.105 1_455 S
Sc104 O117 2.105 . S
Sc104 O120 2.105 . S
Sc104 O123 2.105 1_455 S
Sc105 O107 2.025 . S
Sc105 O115 2.105 1_455 S
Sc105 O119 2.105 . S
Sc105 O121 2.105 . S
Sc105 O125 2.105 1_455 S
Sc106 O107 2.025 1_655 S
Sc106 O116 2.107 . S
Sc106 O118 2.103 1_655 S
Sc106 O122 2.103 1_655 S
Sc106 O124 2.107 . S
O107 Sc104 2.025 . S
O107 Sc105 2.025 . S
O107 Sc106 2.025 1_455 S
C108 O114 1.268 . S
C108 O124 1.268 . S
C109 O115 1.268 . S
C109 O123 1.268 . S
C110 O116 1.268 . S
C110 O125 1.268 . S
C111 O117 1.268 . S
C111 O121 1.268 . S
C112 O118 1.268 . S
C112 O120 1.268 . S
C113 O119 1.268 . S
C113 O122 1.268 . S
O114 Sc104 2.105 1_655 S
O114 C108 1.268 . S
O115 Sc105 2.105 1_655 S
O115 C109 1.268 . S
O116 Sc106 2.107 . S
O116 C110 1.268 . S
O117 Sc104 2.105 . S
O117 C111 1.268 . S
O118 Sc106 2.103 1_455 S
O118 C112 1.268 . S
O119 Sc105 2.105 . S
O119 C113 1.268 . S
O120 Sc104 2.105 . S
O120 C112 1.268 . S
O121 Sc105 2.105 . S
O121 C111 1.268 . S
O122 Sc106 2.103 1_455 S
O122 C113 1.268 . S
O123 Sc104 2.105 1_655 S
O123 C109 1.268 . S
O124 Sc106 2.107 . S
O124 C108 1.268 . S
O125 Sc105 2.105 1_655 S
O125 C110 1.268 . S
Sc126 O129 2.025 . S
Sc126 O136 2.105 . S
Sc126 O139 2.105 1_455 S
Sc126 O142 2.105 1_455 S
Sc126 O145 2.105 . S
Sc127 O129 2.025 . S
Sc127 O137 2.105 . S
Sc127 O141 2.105 1_455 S
Sc127 O143 2.105 1_455 S
Sc127 O147 2.105 . S
Sc128 O129 2.025 1_655 S
Sc128 O138 2.103 1_655 S
Sc128 O140 2.107 . S
Sc128 O144 2.107 . S
Sc128 O146 2.103 1_655 S
O129 Sc126 2.025 . S
O129 Sc127 2.025 . S
O129 Sc128 2.025 1_455 S
C130 O136 1.268 . S
C130 O146 1.268 . S
C131 O137 1.268 . S
C131 O145 1.268 . S
C132 O138 1.268 . S
C132 O147 1.268 . S
C133 O139 1.268 . S
C133 O143 1.268 . S
C134 O140 1.268 . S
C134 O142 1.268 . S
C135 O141 1.268 . S
C135 O144 1.268 . S
O136 Sc126 2.105 . S
O136 C130 1.268 . S
O137 Sc127 2.105 . S
O137 C131 1.268 . S
O138 Sc128 2.103 1_455 S
O138 C132 1.268 . S
O139 Sc126 2.105 1_655 S
O139 C133 1.268 . S
O140 Sc128 2.107 . S
O140 C134 1.268 . S
O141 Sc127 2.105 1_655 S
O141 C135 1.268 . S
O142 Sc126 2.105 1_655 S
O142 C134 1.268 . S
O143 Sc127 2.105 1_655 S
O143 C133 1.268 . S
O144 Sc128 2.107 . S
O144 C135 1.268 . S
O145 Sc126 2.105 . S
O145 C131 1.268 . S
O146 Sc128 2.103 1_455 S
O146 C130 1.268 . S
O147 Sc127 2.105 . S
O147 C132 1.268 . S
Sc148 O151 2.025 . S
Sc148 O158 2.105 . S
Sc148 O161 2.105 . S
Sc148 O164 2.105 . S
Sc148 O167 2.105 . S
Sc149 O151 2.025 . S
Sc149 O159 2.105 . S
Sc149 O163 2.105 . S
Sc149 O165 2.105 . S
Sc149 O169 2.105 . S
Sc150 O151 2.025 . S
Sc150 O160 2.105 . S
Sc150 O162 2.105 . S
Sc150 O166 2.105 . S
Sc150 O168 2.105 . S
O151 Sc148 2.025 . S
O151 Sc149 2.025 . S
O151 Sc150 2.025 . S
C152 O158 1.268 . S
C152 O168 1.268 . S
C153 O159 1.268 . S
C153 O167 1.268 . S
C154 O160 1.268 . S
C154 O169 1.268 . S
C155 O161 1.268 . S
C155 O165 1.268 . S
C156 O162 1.268 . S
C156 O164 1.268 . S
C157 O163 1.268 . S
C157 O166 1.268 . S
O158 Sc148 2.105 . S
O158 C152 1.268 . S
O159 Sc149 2.105 . S
O159 C153 1.268 . S
O160 Sc150 2.105 . S
O160 C154 1.268 . S
O161 Sc148 2.105 . S
O161 C155 1.268 . S
O162 Sc150 2.105 . S
O162 C156 1.268 . S
O163 Sc149 2.105 . S
O163 C157 1.268 . S
O164 Sc148 2.105 . S
O164 C156 1.268 . S
O165 Sc149 2.105 . S
O165 C155 1.268 . S
O166 Sc150 2.105 . S
O166 C157 1.268 . S
O167 Sc148 2.105 . S
O167 C153 1.268 . S
O168 Sc150 2.105 . S
O168 C152 1.268 . S
O169 Sc149 2.105 . S
O169 C154 1.268 . S
Sc170 O173 2.025 . S
Sc170 O180 2.105 . S
Sc170 O183 2.105 . S
Sc170 O186 2.105 . S
Sc170 O189 2.105 . S
Sc171 O173 2.025 . S
Sc171 O181 2.105 . S
Sc171 O185 2.105 . S
Sc171 O187 2.105 . S
Sc171 O191 2.105 . S
Sc172 O173 2.025 . S
Sc172 O182 2.105 . S
Sc172 O184 2.105 . S
Sc172 O188 2.105 . S
Sc172 O190 2.105 . S
O173 Sc170 2.025 . S
O173 Sc171 2.025 . S
O173 Sc172 2.025 . S
C174 O180 1.268 . S
C174 O190 1.268 . S
C175 O181 1.268 . S
C175 O189 1.268 . S
C176 O182 1.268 . S
C176 O191 1.268 . S
C177 O183 1.268 . S
C177 O187 1.268 . S
C178 O184 1.268 . S
C178 O186 1.268 . S
C179 O185 1.268 . S
C179 O188 1.268 . S
O180 Sc170 2.105 . S
O180 C174 1.268 . S
O181 Sc171 2.105 . S
O181 C175 1.268 . S
O182 Sc172 2.105 . S
O182 C176 1.268 . S
O183 Sc170 2.105 . S
O183 C177 1.268 . S
O184 Sc172 2.105 . S
O184 C178 1.268 . S
O185 Sc171 2.105 . S
O185 C179 1.268 . S
O186 Sc170 2.105 . S
O186 C178 1.268 . S
O187 Sc171 2.105 . S
O187 C177 1.268 . S
O188 Sc172 2.105 . S
O188 C179 1.268 . S
O189 Sc170 2.105 . S
O189 C175 1.268 . S
O190 Sc172 2.105 . S
O190 C174 1.268 . S
O191 Sc171 2.105 . S
O191 C176 1.268 . S
C192 C193 1.387 . S
C192 H196 0.950 . S
C192 C201 1.390 . S
C193 C192 1.387 . S
C193 C195 1.387 . S
H194 C201 0.950 . S
C195 C193 1.387 . S
C195 C197 1.390 . S
C195 H199 0.950 1_556 S
H196 C192 0.950 . S
C197 C195 1.390 . S
C197 C198 1.387 . S
C197 H200 0.950 . S
C198 C197 1.387 . S
C198 C201 1.387 . S
H199 C195 0.950 1_554 S
H200 C197 0.950 . S
C201 C192 1.390 . S
C201 H194 0.950 . S
C201 C198 1.387 . S
C202 C203 1.387 . S
C202 H206 0.950 . S
C202 C211 1.390 . S
C203 C202 1.387 . S
C203 C205 1.387 . S
H204 C211 0.950 . S
C205 C203 1.387 . S
C205 C207 1.390 . S
C205 H209 0.950 . S
H206 C202 0.950 . S
C207 C205 1.390 . S
C207 C208 1.387 . S
C207 H210 0.950 . S
C208 C207 1.387 . S
C208 C211 1.387 . S
H209 C205 0.950 . S
H210 C207 0.950 . S
C211 C202 1.390 . S
C211 H204 0.950 . S
C211 C208 1.387 . S
C212 C213 1.387 . S
C212 H216 0.950 1_556 S
C212 C221 1.390 . S
C213 C212 1.387 . S
C213 C215 1.387 . S
H214 C221 0.950 . S
C215 C213 1.387 . S
C215 C217 1.390 . S
C215 H219 0.950 . S
H216 C212 0.950 1_554 S
C217 C215 1.390 . S
C217 C218 1.387 . S
C217 H220 0.950 . S
C218 C217 1.387 . S
C218 C221 1.387 . S
H219 C215 0.950 . S
H220 C217 0.950 . S
C221 C212 1.390 . S
C221 H214 0.950 . S
C221 C218 1.387 . S
C222 C223 1.387 . S
C222 H226 0.950 . S
C222 C231 1.390 . S
C223 C222 1.387 . S
C223 C225 1.387 . S
H224 C231 0.950 . S
C225 C223 1.387 . S
C225 C227 1.390 . S
C225 H229 0.950 . S
H226 C222 0.950 . S
C227 C225 1.390 . S
C227 C228 1.387 . S
C227 H230 0.950 . S
C228 C227 1.387 . S
C228 C231 1.387 . S
H229 C225 0.950 . S
H230 C227 0.950 . S
C231 C222 1.390 . S
C231 H224 0.950 . S
C231 C228 1.387 . S
C232 C233 1.387 . S
C232 H236 0.950 1_556 S
C232 C241 1.390 . S
C233 C232 1.387 . S
C233 C235 1.387 . S
H234 C241 0.950 . S
C235 C233 1.387 . S
C235 C237 1.390 . S
C235 H239 0.950 . S
H236 C232 0.950 1_554 S
C237 C235 1.390 . S
C237 C238 1.387 . S
C237 H240 0.950 . S
C238 C237 1.387 . S
C238 C241 1.387 . S
H239 C235 0.950 . S
H240 C237 0.950 . S
C241 C232 1.390 . S
C241 H234 0.950 . S
C241 C238 1.387 . S
C242 C243 1.387 . S
C242 H246 0.950 . S
C242 C251 1.390 . S
C243 C242 1.387 . S
C243 C245 1.387 . S
H244 C251 0.950 . S
C245 C243 1.387 . S
C245 C247 1.390 . S
C245 H249 0.950 . S
H246 C242 0.950 . S
C247 C245 1.390 . S
C247 C248 1.387 . S
C247 H250 0.950 . S
C248 C247 1.387 . S
C248 C251 1.387 . S
H249 C245 0.950 . S
H250 C247 0.950 . S
C251 C242 1.390 . S
C251 H244 0.950 . S
C251 C248 1.387 . S
C252 C253 1.387 . S
C252 H256 0.950 . S
C252 C261 1.390 . S
C253 C252 1.387 . S
C253 C255 1.387 . S
H254 C261 0.950 . S
C255 C253 1.387 . S
C255 C257 1.390 . S
C255 H259 0.950 . S
H256 C252 0.950 . S
C257 C255 1.390 . S
C257 C258 1.387 . S
C257 H260 0.950 . S
C258 C257 1.387 . S
C258 C261 1.387 . S
H259 C255 0.950 . S
H260 C257 0.950 . S
C261 C252 1.390 . S
C261 H254 0.950 . S
C261 C258 1.387 . S
C262 C263 1.387 . S
C262 H266 0.950 . S
C262 C271 1.390 . S
C263 C262 1.387 . S
C263 C265 1.387 . S
H264 C271 0.950 . S
C265 C263 1.387 . S
C265 C267 1.390 . S
C265 H269 0.950 . S
H266 C262 0.950 . S
C267 C265 1.390 . S
C267 C268 1.387 . S
C267 H270 0.950 . S
C268 C267 1.387 . S
C268 C271 1.387 . S
H269 C265 0.950 . S
H270 C267 0.950 . S
C271 C262 1.390 . S
C271 H264 0.950 . S
C271 C268 1.387 . S
C272 C273 1.387 . S
C272 H276 0.950 . S
C272 C281 1.390 . S
C273 C272 1.387 . S
C273 C275 1.387 . S
H274 C281 0.950 . S
C275 C273 1.387 . S
C275 C277 1.390 . S
C275 H279 0.950 1_556 S
H276 C272 0.950 . S
C277 C275 1.390 . S
C277 C278 1.387 . S
C277 H280 0.950 . S
C278 C277 1.387 . S
C278 C281 1.387 . S
H279 C275 0.950 1_554 S
H280 C277 0.950 . S
C281 C272 1.390 . S
C281 H274 0.950 . S
C281 C278 1.387 . S
C282 C283 1.387 . S
C282 H286 0.950 . S
C282 C291 1.390 . S
C283 C282 1.387 . S
C283 C285 1.387 . S
H284 C291 0.950 . S
C285 C283 1.387 . S
C285 C287 1.390 . S
C285 H289 0.950 . S
H286 C282 0.950 . S
C287 C285 1.390 . S
C287 C288 1.387 . S
C287 H290 0.950 . S
C288 C287 1.387 . S
C288 C291 1.387 . S
H289 C285 0.950 . S
H290 C287 0.950 . S
C291 C282 1.390 . S
C291 H284 0.950 . S
C291 C288 1.387 . S
C292 C293 1.387 . S
C292 H296 0.950 . S
C292 C301 1.390 . S
C293 C292 1.387 . S
C293 C295 1.387 . S
H294 C301 0.950 . S
C295 C293 1.387 . S
C295 C297 1.390 . S
C295 H299 0.950 1_556 S
H296 C292 0.950 . S
C297 C295 1.390 . S
C297 C298 1.387 . S
C297 H300 0.950 . S
C298 C297 1.387 . S
C298 C301 1.387 . S
H299 C295 0.950 1_554 S
H300 C297 0.950 . S
C301 C292 1.390 . S
C301 H294 0.950 . S
C301 C298 1.387 . S
C302 C303 1.387 . S
C302 H306 0.950 . S
C302 C311 1.390 . S
C303 C302 1.387 . S
C303 C305 1.387 . S
H304 C311 0.950 . S
C305 C303 1.387 . S
C305 C307 1.390 . S
C305 H309 0.950 . S
H306 C302 0.950 . S
C307 C305 1.390 . S
C307 C308 1.387 . S
C307 H310 0.950 . S
C308 C307 1.387 . S
C308 C311 1.387 . S
H309 C305 0.950 . S
H310 C307 0.950 . S
C311 C302 1.390 . S
C311 H304 0.950 . S
C311 C308 1.387 . S
C312 C313 1.381 1_545 S
C312 H316 0.951 1_556 S
C312 C321 1.395 . S
C313 C312 1.381 1_565 S
C313 C315 1.387 . S
H314 C321 0.950 . S
C315 C313 1.387 . S
C315 C317 1.390 . S
C315 H319 0.950 . S
H316 C312 0.951 1_554 S
C317 C315 1.390 . S
C317 C318 1.387 1_565 S
C317 H320 0.950 . S
C318 C317 1.387 1_545 S
C318 C321 1.387 . S
H319 C315 0.950 . S
H320 C317 0.950 . S
C321 C312 1.395 . S
C321 H314 0.950 . S
C321 C318 1.387 . S
C322 C323 1.387 1_565 S
C322 H326 0.950 . S
C322 C331 1.390 . S
C323 C322 1.387 1_545 S
C323 C325 1.387 . S
H324 C331 0.950 . S
C325 C323 1.387 . S
C325 C327 1.390 . S
C325 H329 0.950 . S
H326 C322 0.950 . S
C327 C325 1.390 . S
C327 C328 1.387 1_545 S
C327 H330 0.950 . S
C328 C327 1.387 1_565 S
C328 C331 1.387 . S
H329 C325 0.950 . S
H330 C327 0.950 . S
C331 C322 1.390 . S
C331 H324 0.950 . S
C331 C328 1.387 . S
C332 C333 1.387 . S
C332 H336 0.950 . S
C332 C341 1.390 . S
C333 C332 1.387 . S
C333 C335 1.387 1_565 S
H334 C341 0.950 . S
C335 C333 1.387 1_545 S
C335 C337 1.390 . S
C335 H339 0.950 1_556 S
H336 C332 0.950 . S
C337 C335 1.390 . S
C337 C338 1.387 . S
C337 H340 0.950 . S
C338 C337 1.387 . S
C338 C341 1.387 1_545 S
H339 C335 0.950 1_554 S
H340 C337 0.950 . S
C341 C332 1.390 . S
C341 H334 0.950 . S
C341 C338 1.387 1_565 S
C342 C343 1.387 . S
C342 H346 0.950 . S
C342 C351 1.390 . S
C343 C342 1.387 . S
C343 C345 1.387 1_545 S
H344 C351 0.950 . S
C345 C343 1.387 1_565 S
C345 C347 1.390 . S
C345 H349 0.950 . S
H346 C342 0.950 . S
C347 C345 1.390 . S
C347 C348 1.387 . S
C347 H350 0.950 . S
C348 C347 1.387 . S
C348 C351 1.387 1_565 S
H349 C345 0.950 . S
H350 C347 0.950 . S
C351 C342 1.390 . S
C351 H344 0.950 . S
C351 C348 1.387 1_545 S
C352 C353 1.387 . S
C352 H356 0.950 . S
C352 C361 1.390 . S
C353 C352 1.387 . S
C353 C355 1.387 . S
H354 C361 0.950 . S
C355 C353 1.387 . S
C355 C357 1.390 . S
C355 H359 0.950 . S
H356 C352 0.950 . S
C357 C355 1.390 . S
C357 C358 1.387 . S
C357 H360 0.950 . S
C358 C357 1.387 . S
C358 C361 1.387 . S
H359 C355 0.950 . S
H360 C357 0.950 . S
C361 C352 1.390 . S
C361 H354 0.950 . S
C361 C358 1.387 . S
C362 C363 1.387 . S
C362 H366 0.950 . S
C362 C371 1.390 . S
C363 C362 1.387 . S
C363 C365 1.387 . S
H364 C371 0.950 . S
C365 C363 1.387 . S
C365 C367 1.390 . S
C365 H369 0.950 . S
H366 C362 0.950 . S
C367 C365 1.390 . S
C367 C368 1.387 . S
C367 H370 0.950 . S
C368 C367 1.387 . S
C368 C371 1.387 . S
H369 C365 0.950 . S
H370 C367 0.950 . S
C371 C362 1.390 . S
C371 H364 0.950 . S
C371 C368 1.387 . S
C372 C373 1.387 . S
C372 H376 0.950 . S
C372 C381 1.390 . S
C373 C372 1.387 . S
C373 C375 1.387 . S
H374 C381 0.950 . S
C375 C373 1.387 . S
C375 C377 1.390 . S
C375 H379 0.950 . S
H376 C372 0.950 . S
C377 C375 1.390 . S
C377 C378 1.387 . S
C377 H380 0.950 . S
C378 C377 1.387 . S
C378 C381 1.387 . S
H379 C375 0.950 . S
H380 C377 0.950 . S
C381 C372 1.390 . S
C381 H374 0.950 . S
C381 C378 1.387 . S
C382 C383 1.387 . S
C382 H386 0.950 . S
C382 C391 1.390 . S
C383 C382 1.387 . S
C383 C385 1.387 . S
H384 C391 0.950 . S
C385 C383 1.387 . S
C385 C387 1.390 . S
C385 H389 0.950 . S
H386 C382 0.950 . S
C387 C385 1.390 . S
C387 C388 1.387 . S
C387 H390 0.950 . S
C388 C387 1.387 . S
C388 C391 1.387 . S
H389 C385 0.950 . S
H390 C387 0.950 . S
C391 C382 1.390 . S
C391 H384 0.950 . S
C391 C388 1.387 . S
C392 C393 1.387 . S
C392 H396 0.950 . S
C392 C401 1.390 . S
C393 C392 1.387 . S
C393 C395 1.387 . S
H394 C401 0.950 . S
C395 C393 1.387 . S
C395 C397 1.390 . S
C395 H399 0.950 . S
H396 C392 0.950 . S
C397 C395 1.390 . S
C397 C398 1.387 . S
C397 H400 0.950 . S
C398 C397 1.387 . S
C398 C401 1.387 . S
H399 C395 0.950 . S
H400 C397 0.950 . S
C401 C392 1.390 . S
C401 H394 0.950 . S
C401 C398 1.387 . S
C402 C403 1.387 . S
C402 H406 0.950 . S
C402 C411 1.390 . S
C403 C402 1.387 . S
C403 C405 1.387 . S
H404 C411 0.950 . S
C405 C403 1.387 . S
C405 C407 1.390 . S
C405 H409 0.950 . S
H406 C402 0.950 . S
C407 C405 1.390 . S
C407 C408 1.387 . S
C407 H410 0.950 . S
C408 C407 1.387 . S
C408 C411 1.387 . S
H409 C405 0.950 . S
H410 C407 0.950 . S
C411 C402 1.390 . S
C411 H404 0.950 . S
C411 C408 1.387 . S
C412 C413 1.387 . S
C412 H416 0.950 . S
C412 C421 1.390 . S
C413 C412 1.387 . S
C413 C415 1.387 . S
H414 C421 0.950 . S
C415 C413 1.387 . S
C415 C417 1.390 . S
C415 H419 0.950 . S
H416 C412 0.950 . S
C417 C415 1.390 . S
C417 C418 1.387 . S
C417 H420 0.950 . S
C418 C417 1.387 . S
C418 C421 1.387 . S
H419 C415 0.950 . S
H420 C417 0.950 . S
C421 C412 1.390 . S
C421 H414 0.950 . S
C421 C418 1.387 . S
C422 C423 1.387 . S
C422 H426 0.950 . S
C422 C431 1.390 . S
C423 C422 1.387 . S
C423 C425 1.387 . S
H424 C431 0.950 . S
C425 C423 1.387 . S
C425 C427 1.390 . S
C425 H429 0.950 . S
H426 C422 0.950 . S
C427 C425 1.390 . S
C427 C428 1.387 . S
C427 H430 0.950 . S
C428 C427 1.387 . S
C428 C431 1.387 . S
H429 C425 0.950 . S
H430 C427 0.950 . S
C431 C422 1.390 . S
C431 H424 0.950 . S
C431 C428 1.387 . S
C193 C4 1.517 . S
C198 C130 1.569 . S
C208 C108 1.459 . S
C203 C17 1.469 . S
C218 C134 1.461 . S
C213 C30 1.415 . S
C228 C112 1.567 . S
C223 C43 1.569 . S
C238 C174 1.567 . S
C233 C56 1.515 . S
C248 C152 1.461 . S
C243 C69 1.468 . S
C253 C82 1.414 . S
C258 C178 1.461 . S
C268 C156 1.569 . S
C263 C95 1.569 . S
C273 C9 1.535 . S
C278 C179 1.564 . S
C288 C157 1.452 . S
C283 C21 1.449 . S
C293 C34 1.445 . S
C298 C176 1.450 . S
C303 C48 1.540 . S
C308 C154 1.562 . S
C318 C135 1.562 . S
C313 C61 1.537 . S
C323 C73 1.450 . S
C328 C113 1.451 . S
C338 C132 1.450 . S
C333 C86 1.445 . S
C348 C110 1.562 . S
C343 C100 1.539 . S
C358 C153 1.500 . S
C353 C8 1.496 . S
C368 C175 1.504 . S
C363 C22 1.490 . S
C373 C35 1.486 . S
C378 C155 1.505 . S
C388 C177 1.500 . S
C383 C47 1.502 . S
C398 C109 1.500 . S
C393 C60 1.497 . S
C403 C74 1.490 . S
C408 C131 1.504 . S
C413 C87 1.484 . S
C418 C111 1.506 . S
C423 C99 1.502 . S
C428 C133 1.500 . S
