# Generated by pormake.
# Topology pyr, (3,6)-cn, num edge types: 1
# Building blocks:
#     Node 0, Type 0, BuildingBlock: MIDCAF_clean_linker_0, # of connection points: 3
#     Node 1, Type 0, BuildingBlock: MIDCAF_clean_linker_0, # of connection points: 3
#     Node 2, Type 0, BuildingBlock: MIDCAF_clean_linker_0, # of connection points: 3
#     Node 3, Type 0, BuildingBlock: MIDCAF_clean_linker_0, # of connection points: 3
#     Node 4, Type 0, BuildingBlock: MIDCAF_clean_linker_0, # of connection points: 3
#     Node 5, Type 0, BuildingBlock: MIDCAF_clean_linker_0, # of connection points: 3
#     Node 6, Type 0, BuildingBlock: MIDCAF_clean_linker_0, # of connection points: 3
#     Node 7, Type 0, BuildingBlock: MIDCAF_clean_linker_0, # of connection points: 3
#     Node 8, Type 1, BuildingBlock: JUFBIX_clean_sbu_0, # of connection points: 6
#     Node 9, Type 1, BuildingBlock: JUFBIX_clean_sbu_0, # of connection points: 6
#     Node 10, Type 1, BuildingBlock: JUFBIX_clean_sbu_0, # of connection points: 6
#     Node 11, Type 1, BuildingBlock: JUFBIX_clean_sbu_0, # of connection points: 6
#     Edge 12, Type (0, 1), BuildingBlock: MIFKUJ_clean_linker_0, # of connection points: 2
#     Edge 13, Type (0, 1), BuildingBlock: MIFKUJ_clean_linker_0, # of connection points: 2
#     Edge 14, Type (0, 1), BuildingBlock: MIFKUJ_clean_linker_0, # of connection points: 2
#     Edge 15, Type (0, 1), BuildingBlock: MIFKUJ_clean_linker_0, # of connection points: 2
#     Edge 16, Type (0, 1), BuildingBlock: MIFKUJ_clean_linker_0, # of connection points: 2
#     Edge 17, Type (0, 1), BuildingBlock: MIFKUJ_clean_linker_0, # of connection points: 2
#     Edge 18, Type (0, 1), BuildingBlock: MIFKUJ_clean_linker_0, # of connection points: 2
#     Edge 19, Type (0, 1), BuildingBlock: MIFKUJ_clean_linker_0, # of connection points: 2
#     Edge 20, Type (0, 1), BuildingBlock: MIFKUJ_clean_linker_0, # of connection points: 2
#     Edge 21, Type (0, 1), BuildingBlock: MIFKUJ_clean_linker_0, # of connection points: 2
#     Edge 22, Type (0, 1), BuildingBlock: MIFKUJ_clean_linker_0, # of connection points: 2
#     Edge 23, Type (0, 1), BuildingBlock: MIFKUJ_clean_linker_0, # of connection points: 2
#     Edge 24, Type (0, 1), BuildingBlock: MIFKUJ_clean_linker_0, # of connection points: 2
#     Edge 25, Type (0, 1), BuildingBlock: MIFKUJ_clean_linker_0, # of connection points: 2
#     Edge 26, Type (0, 1), BuildingBlock: MIFKUJ_clean_linker_0, # of connection points: 2
#     Edge 27, Type (0, 1), BuildingBlock: MIFKUJ_clean_linker_0, # of connection points: 2
#     Edge 28, Type (0, 1), BuildingBlock: MIFKUJ_clean_linker_0, # of connection points: 2
#     Edge 29, Type (0, 1), BuildingBlock: MIFKUJ_clean_linker_0, # of connection points: 2
#     Edge 30, Type (0, 1), BuildingBlock: MIFKUJ_clean_linker_0, # of connection points: 2
#     Edge 31, Type (0, 1), BuildingBlock: MIFKUJ_clean_linker_0, # of connection points: 2
#     Edge 32, Type (0, 1), BuildingBlock: MIFKUJ_clean_linker_0, # of connection points: 2
#     Edge 33, Type (0, 1), BuildingBlock: MIFKUJ_clean_linker_0, # of connection points: 2
#     Edge 34, Type (0, 1), BuildingBlock: MIFKUJ_clean_linker_0, # of connection points: 2
#     Edge 35, Type (0, 1), BuildingBlock: MIFKUJ_clean_linker_0, # of connection points: 2
# Relax obj value: 0.035
# Max RMSD: 0.087
# Mean RMSD: 0.029
data_MOF--net-pry--node1-JUFBIX_clean_sbu_0--node2-MIDCAF_clean_linker_0--edge1-MIFKUJ_clean_linker_0
_symmetry_space_group_name_H-M    P1
_symmetry_Int_Tables_number       1
_symmetry_cell_setting            triclinic
loop_
_symmetry_equiv_pos_as_xyz
'x, y, z'
_cell_length_a     56.850151
_cell_length_b     54.660664
_cell_length_c     56.804919
_cell_angle_alpha  86.609976
_cell_angle_beta   90.22794
_cell_angle_gamma 91.724131
loop_
_atom_site_label
_atom_site_type_symbol
_atom_site_fract_x
_atom_site_fract_y
_atom_site_fract_z
_atom_type_partial_charge
C0 C 0.13466 0.13942 0.24059 0.0
C1 C 0.1447 0.11925 0.25301 0.0
C2 C 0.16545 0.10991 0.24398 0.0
C3 C 0.17573 0.12035 0.22311 0.0
H4 H 0.23279 0.11526 0.17723 0.0
H5 H 0.26747 0.09801 0.16017 0.0
H6 H 0.26243 0.14926 0.0997 0.0
H7 H 0.22762 0.16635 0.11656 0.0
H8 H 0.19231 0.21195 0.1191 0.0
H9 H 0.17436 0.24824 0.10056 0.0
H10 H 0.116 0.23874 0.14904 0.0
H11 H 0.13422 0.20304 0.16796 0.0
H12 H 0.13655 0.16539 0.21094 0.0
H13 H 0.11893 0.14743 0.2471 0.0
H14 H 0.17361 0.09426 0.25285 0.0
H15 H 0.19161 0.11254 0.21673 0.0
N16 N 0.19601 0.14248 0.17902 0.0
N17 N 0.19557 0.1728 0.14788 0.0
N18 N 0.16657 0.17174 0.17723 0.0
C19 C 0.20573 0.1528 0.15871 0.0
C20 C 0.17597 0.18242 0.157 0.0
C21 C 0.17639 0.15182 0.18843 0.0
C22 C 0.22719 0.14228 0.14837 0.0
C23 C 0.239 0.1229 0.16029 0.0
C24 C 0.25907 0.11306 0.15053 0.0
C25 C 0.26789 0.12216 0.12848 0.0
C26 C 0.25607 0.14151 0.11655 0.0
C27 C 0.23609 0.15145 0.12636 0.0
C28 C 0.16486 0.20443 0.14517 0.0
C29 C 0.17565 0.21757 0.12584 0.0
C30 C 0.16524 0.23841 0.11508 0.0
C31 C 0.14366 0.2467 0.12324 0.0
C32 C 0.13281 0.23337 0.14245 0.0
C33 C 0.14326 0.21266 0.15326 0.0
C34 C 0.16561 0.14051 0.21069 0.0
C35 C 0.14493 0.14987 0.21981 0.0
C36 C 0.33976 0.92803 0.58761 0.0
C37 C 0.32875 0.91722 0.56842 0.0
C38 C 0.33955 0.89749 0.55842 0.0
C39 C 0.3605 0.88836 0.56784 0.0
H40 H 0.38992 0.81966 0.58619 0.0
H41 H 0.39999 0.77822 0.57803 0.0
H42 H 0.47196 0.79343 0.59903 0.0
H43 H 0.46136 0.83459 0.60853 0.0
H44 H 0.45597 0.87114 0.65804 0.0
H45 H 0.47014 0.88915 0.69392 0.0
H46 H 0.4292 0.95319 0.67719 0.0
H47 H 0.41472 0.93519 0.64162 0.0
H48 H 0.36842 0.92753 0.61201 0.0
H49 H 0.33177 0.94297 0.59603 0.0
H50 H 0.33173 0.88898 0.54341 0.0
H51 H 0.36815 0.87291 0.55993 0.0
N52 N 0.39954 0.86581 0.59268 0.0
N53 N 0.42981 0.86711 0.62085 0.0
N54 N 0.40406 0.89973 0.61573 0.0
C55 C 0.41824 0.85524 0.60368 0.0
C56 C 0.42279 0.88944 0.62696 0.0
C57 C 0.39242 0.88812 0.5985 0.0
C58 C 0.42488 0.83038 0.59797 0.0
C59 C 0.40792 0.81417 0.589 0.0
C60 C 0.41377 0.7904 0.58416 0.0
C61 C 0.43686 0.78236 0.5877 0.0
C62 C 0.4539 0.79875 0.59646 0.0
C63 C 0.4479 0.82242 0.60177 0.0
C64 C 0.43391 0.90153 0.64707 0.0
C65 C 0.45022 0.8892 0.66182 0.0
C66 C 0.45844 0.89956 0.68235 0.0
C67 C 0.45056 0.92245 0.68852 0.0
C68 C 0.43524 0.9353 0.67314 0.0
C69 C 0.42701 0.92498 0.65268 0.0
C70 C 0.37119 0.89885 0.58738 0.0
C71 C 0.36077 0.91904 0.59689 0.0
C72 C 0.65623 0.27084 0.89152 0.0
C73 C 0.63372 0.26357 0.8837 0.0
C74 C 0.62276 0.27808 0.86587 0.0
C75 C 0.63408 0.29923 0.85593 0.0
H76 H 0.62369 0.36059 0.81037 0.0
H77 H 0.60614 0.38042 0.77543 0.0
H78 H 0.67465 0.40979 0.75362 0.0
H79 H 0.69196 0.3909 0.78924 0.0
H80 H 0.7234 0.40148 0.84109 0.0
H81 H 0.76051 0.41656 0.85725 0.0
H82 H 0.76773 0.34804 0.89806 0.0
H83 H 0.73058 0.33279 0.88196 0.0
H84 H 0.68497 0.29696 0.88794 0.0
H85 H 0.66529 0.25992 0.90504 0.0
H86 H 0.60527 0.27324 0.8597 0.0
H87 H 0.62504 0.3099 0.84221 0.0
N88 N 0.65892 0.34113 0.83391 0.0
N89 N 0.69105 0.36905 0.8319 0.0
N90 N 0.68994 0.33669 0.86097 0.0
C91 C 0.66995 0.36125 0.82339 0.0
C92 C 0.70113 0.35694 0.85077 0.0
C93 C 0.66879 0.32869 0.85265 0.0
C94 C 0.65923 0.37409 0.80254 0.0
C95 C 0.63499 0.37138 0.79816 0.0
C96 C 0.62495 0.38265 0.778 0.0
C97 C 0.63896 0.39657 0.76147 0.0
C98 C 0.6632 0.39954 0.76606 0.0
C99 C 0.67319 0.38858 0.78645 0.0
C100 C 0.72395 0.36591 0.86023 0.0
C101 C 0.73289 0.38954 0.85343 0.0
C102 C 0.75409 0.39827 0.86278 0.0
C103 C 0.76697 0.38348 0.87892 0.0
C104 C 0.75825 0.35975 0.8855 0.0
C105 C 0.73689 0.3511 0.87637 0.0
C106 C 0.65667 0.30645 0.86361 0.0
C107 C 0.66756 0.29205 0.88161 0.0
C108 C 0.844 0.61028 0.45933 0.0
C109 C 0.82918 0.59416 0.44734 0.0
C110 C 0.8367 0.58552 0.42595 0.0
C111 C 0.85812 0.59375 0.41609 0.0
H112 H 0.8938 0.59138 0.35604 0.0
H113 H 0.90152 0.58004 0.31617 0.0
H114 H 0.96044 0.63185 0.31128 0.0
H115 H 0.95247 0.64371 0.35109 0.0
H116 H 0.95551 0.68354 0.38837 0.0
H117 H 0.97388 0.72085 0.40207 0.0
H118 H 0.94055 0.70707 0.46988 0.0
H119 H 0.92193 0.66951 0.45627 0.0
H120 H 0.87608 0.63188 0.45853 0.0
H121 H 0.83851 0.61723 0.47585 0.0
H122 H 0.82568 0.57285 0.41652 0.0
H123 H 0.86295 0.58715 0.39921 0.0
N124 N 0.89927 0.6148 0.3934 0.0
N125 N 0.92974 0.6445 0.39033 0.0
N126 N 0.90615 0.64076 0.42425 0.0
C127 C 0.91734 0.62584 0.38094 0.0
C128 C 0.92435 0.65204 0.41198 0.0
C129 C 0.89356 0.62204 0.41505 0.0
C130 C 0.92255 0.61846 0.35687 0.0
C131 C 0.90846 0.60039 0.34656 0.0
C132 C 0.91292 0.59378 0.32369 0.0
C133 C 0.93161 0.60501 0.31058 0.0
C134 C 0.94572 0.62308 0.32083 0.0
C135 C 0.94125 0.62974 0.34374 0.0
C136 C 0.93704 0.67356 0.42115 0.0
C137 C 0.95219 0.68822 0.4063 0.0
C138 C 0.96267 0.70968 0.41407 0.0
C139 C 0.95847 0.71689 0.43694 0.0
C140 C 0.94412 0.70184 0.45218 0.0
C141 C 0.93339 0.68042 0.44432 0.0
C142 C 0.87244 0.61102 0.42728 0.0
C143 C 0.86544 0.61873 0.44934 0.0
C144 C 0.76708 0.89604 0.86761 0.0
C145 C 0.75228 0.88152 0.88295 0.0
C146 C 0.75822 0.85702 0.88838 0.0
C147 C 0.77849 0.84735 0.87888 0.0
H148 H 0.8353 0.79897 0.89779 0.0
H149 H 0.85423 0.76341 0.91657 0.0
H150 H 0.89475 0.75592 0.85333 0.0
H151 H 0.87654 0.79191 0.835 0.0
H152 H 0.88029 0.8361 0.79726 0.0
H153 H 0.89798 0.85475 0.76138 0.0
H154 H 0.84921 0.91375 0.7619 0.0
H155 H 0.83162 0.89526 0.79812 0.0
H156 H 0.79797 0.89797 0.8459 0.0
H157 H 0.76297 0.91493 0.86294 0.0
H158 H 0.74732 0.84537 0.90026 0.0
H159 H 0.78247 0.82842 0.88355 0.0
N160 N 0.82419 0.83071 0.86303 0.0
N161 N 0.85295 0.83188 0.83342 0.0
N162 N 0.82446 0.8621 0.83284 0.0
C163 C 0.84348 0.8209 0.85348 0.0
C164 C 0.84365 0.85246 0.82293 0.0
C165 C 0.81452 0.85131 0.85283 0.0
C166 C 0.85438 0.79854 0.86484 0.0
C167 C 0.84823 0.78974 0.88786 0.0
C168 C 0.85906 0.76915 0.89862 0.0
C169 C 0.87623 0.75658 0.88663 0.0
C170 C 0.88206 0.76525 0.86347 0.0
C171 C 0.87142 0.78592 0.85281 0.0
C172 C 0.85441 0.86407 0.8008 0.0
C173 C 0.87325 0.85306 0.78983 0.0
C174 C 0.88336 0.86371 0.76905 0.0
C175 C 0.87505 0.88578 0.75855 0.0
C176 C 0.85628 0.89689 0.76954 0.0
C177 C 0.84607 0.88617 0.79031 0.0
C178 C 0.79317 0.86177 0.8633 0.0
C179 C 0.78711 0.88625 0.85775 0.0
C180 C 0.59548 0.07577 0.33724 0.0
C181 C 0.58029 0.08827 0.32145 0.0
C182 C 0.57173 0.11095 0.32738 0.0
C183 C 0.57888 0.12132 0.34825 0.0
H184 H 0.58438 0.18841 0.37891 0.0
H185 H 0.57431 0.2303 0.38677 0.0
H186 H 0.60046 0.2194 0.45794 0.0
H187 H 0.61075 0.1776 0.45017 0.0
H188 H 0.6506 0.13627 0.45786 0.0
H189 H 0.6862 0.12111 0.47695 0.0
H190 H 0.69166 0.06753 0.42438 0.0
H191 H 0.65583 0.08206 0.40581 0.0
H192 H 0.6147 0.07611 0.36958 0.0
H193 H 0.60208 0.05807 0.33334 0.0
H194 H 0.56017 0.12115 0.31548 0.0
H195 H 0.57241 0.13912 0.35194 0.0
N196 N 0.5965 0.14345 0.39011 0.0
N197 N 0.62256 0.14367 0.42221 0.0
N198 N 0.62102 0.11028 0.39819 0.0
C199 C 0.60564 0.15479 0.40888 0.0
C200 C 0.63039 0.12142 0.41696 0.0
C201 C 0.60396 0.12106 0.38477 0.0
C202 C 0.59838 0.17969 0.41393 0.0
C203 C 0.58786 0.19487 0.39628 0.0
C204 C 0.58226 0.21889 0.40069 0.0
C205 C 0.58671 0.22801 0.42291 0.0
C206 C 0.59678 0.21272 0.44068 0.0
C207 C 0.60273 0.18885 0.43619 0.0
C208 C 0.65043 0.11054 0.43015 0.0
C209 C 0.65922 0.12103 0.45056 0.0
C210 C 0.6797 0.11242 0.46145 0.0
C211 C 0.69192 0.09322 0.45212 0.0
C212 C 0.68257 0.08211 0.43229 0.0
C213 C 0.66203 0.09058 0.42151 0.0
C214 C 0.59478 0.10922 0.36364 0.0
C215 C 0.60264 0.08611 0.35808 0.0
C216 C 0.2638 0.60826 0.15582 0.0
C217 C 0.25486 0.61904 0.1347 0.0
C218 C 0.26722 0.63917 0.12362 0.0
C219 C 0.288 0.64836 0.13346 0.0
H220 H 0.33462 0.708 0.12859 0.0
H221 H 0.3544 0.74486 0.11126 0.0
H222 H 0.41334 0.733 0.15839 0.0
H223 H 0.39337 0.69662 0.17618 0.0
H224 H 0.38443 0.66189 0.22204 0.0
H225 H 0.40073 0.64224 0.25766 0.0
H226 H 0.35189 0.58076 0.25187 0.0
H227 H 0.33503 0.60076 0.21651 0.0
H228 H 0.29099 0.60857 0.18192 0.0
H229 H 0.25482 0.59257 0.16465 0.0
H230 H 0.26064 0.64807 0.10747 0.0
H231 H 0.29697 0.66396 0.12445 0.0
N232 N 0.33011 0.66786 0.15516 0.0
N233 N 0.3592 0.66553 0.18447 0.0
N234 N 0.32829 0.63617 0.18488 0.0
C235 C 0.35024 0.67701 0.16472 0.0
C236 C 0.34837 0.64513 0.19468 0.0
C237 C 0.31902 0.64743 0.16512 0.0
C238 C 0.36233 0.6993 0.15385 0.0
C239 C 0.3518 0.71323 0.13528 0.0
C240 C 0.36321 0.73433 0.12524 0.0
C241 C 0.38547 0.74195 0.13344 0.0
C242 C 0.39604 0.72794 0.15191 0.0
C243 C 0.3846 0.70694 0.16202 0.0
C244 C 0.35838 0.63293 0.21633 0.0
C245 C 0.37712 0.64417 0.22829 0.0
C246 C 0.3866 0.63282 0.24869 0.0
C247 C 0.37772 0.60985 0.25761 0.0
C248 C 0.35897 0.59859 0.24567 0.0
C249 C 0.34938 0.61002 0.2253 0.0
C250 C 0.29699 0.6376 0.15461 0.0
C251 C 0.28463 0.61739 0.16564 0.0
C252 C 0.07049 0.30622 0.56231 0.0
C253 C 0.04813 0.29885 0.57117 0.0
C254 C 0.03734 0.31355 0.58728 0.0
C255 C 0.04903 0.33445 0.59507 0.0
H256 H 0.05734 0.37008 0.6577 0.0
H257 H 0.05083 0.38053 0.69827 0.0
H258 H 0.11052 0.43136 0.69332 0.0
H259 H 0.11676 0.42147 0.65281 0.0
H260 H 0.14642 0.42761 0.6081 0.0
H261 H 0.1836 0.44178 0.59059 0.0
H262 H 0.17288 0.3927 0.53439 0.0
H263 H 0.13573 0.37801 0.55217 0.0
H264 H 0.09945 0.33201 0.56305 0.0
H265 H 0.07963 0.2952 0.55025 0.0
H266 H 0.01996 0.30877 0.59415 0.0
H267 H 0.04045 0.34506 0.60787 0.0
N268 N 0.07937 0.36983 0.61789 0.0
N269 N 0.11108 0.39822 0.61553 0.0
N270 N 0.10371 0.3727 0.58449 0.0
C271 C 0.09243 0.38784 0.62765 0.0
C272 C 0.11679 0.39089 0.59393 0.0
C273 C 0.08487 0.36221 0.5963 0.0
C274 C 0.08757 0.39493 0.6519 0.0
C275 C 0.06898 0.38362 0.66519 0.0
C276 C 0.06533 0.38947 0.68851 0.0
C277 C 0.08016 0.40677 0.69901 0.0
C278 C 0.09856 0.41823 0.68565 0.0
C279 C 0.10219 0.41243 0.66239 0.0
C280 C 0.13813 0.4014 0.58173 0.0
C281 C 0.15178 0.41995 0.59187 0.0
C282 C 0.17307 0.42828 0.5817 0.0
C283 C 0.18125 0.41831 0.56113 0.0
C284 C 0.16717 0.40052 0.55041 0.0
C285 C 0.14583 0.39217 0.56058 0.0
C286 C 0.07161 0.34136 0.58663 0.0
C287 C 0.08199 0.32731 0.56979 0.0
Co288 Co 0.99304 0.0072 0.49789 0.0
C289 C 0.01281 0.96123 0.49563 0.0
Co290 Co 0.02714 0.00334 0.5159 0.0
C291 C 0.94506 0.01999 0.48932 0.0
C292 C 0.95862 0.9993 0.46182 0.0
N293 N 0.96462 0.00917 0.48229 0.0
N294 N 0.92705 0.01709 0.47415 0.0
C295 C 0.93544 0.00403 0.45683 0.0
H296 H 0.94388 0.02931 0.50556 0.0
H297 H 0.9703 0.98914 0.4513 0.0
C298 C 0.00756 0.0494 0.51809 0.0
N299 N 0.05549 1.00163 0.53165 0.0
C300 C 0.07565 0.99168 0.52494 0.0
C301 C 0.06069 0.01167 0.55224 0.0
N302 N 0.09325 0.99546 0.5404 0.0
C303 C 0.08394 0.00802 0.5576 0.0
C304 C 0.03147 0.02045 0.4687 0.0
O305 O 0.99053 0.04004 0.50684 0.0
O306 O 0.02512 0.03643 0.5235 0.0
O307 O 0.04317 0.01402 0.4871 0.0
O308 O 0.0091 0.01904 0.46963 0.0
O309 O 0.02908 0.97018 0.50819 0.0
H310 H 0.04842 0.02138 0.56251 0.0
H311 H 0.07755 0.9825 0.50871 0.0
O312 O 0.99576 0.97449 0.48906 0.0
O313 O 0.97705 0.99523 0.52626 0.0
O314 O 0.01095 0.99272 0.54451 0.0
C315 C 0.98864 0.98999 0.54501 0.0
H316 H 0.92556 0.99847 0.44161 0.0
H317 H 0.0933 0.01405 0.57296 0.0
Co318 Co 0.50006 0.99767 0.99048 0.0
C319 C 0.49687 0.96024 0.02583 0.0
Co320 Co 0.52077 0.00486 0.02229 0.0
C321 C 0.48937 0.99155 0.94169 0.0
C322 C 0.4593 0.98389 0.96377 0.0
N323 N 0.48216 0.99114 0.9643 0.0
N324 N 0.47196 0.98473 0.92702 0.0
C325 C 0.45296 0.97998 0.94087 0.0
H326 H 0.50712 0.99669 0.93613 0.0
H327 H 0.44811 0.98115 0.97911 0.0
C328 C 0.52394 0.04234 0.987 0.0
N329 N 0.53904 0.01151 0.04823 0.0
C330 C 0.53289 0.0113 0.07117 0.0
C331 C 0.56195 0.01867 0.04769 0.0
N332 N 0.55112 0.01798 0.08495 0.0
C333 C 0.56943 0.02259 0.07019 0.0
C334 C 0.54583 0.9811 0.98816 0.0
O335 O 0.51054 0.02818 0.97566 0.0
O336 O 0.53014 0.03571 0.00785 0.0
O337 O 0.54733 0.9902 0.00821 0.0
O338 O 0.52629 0.98185 0.97724 0.0
O339 O 0.51119 0.97393 0.03669 0.0
H340 H 0.57244 0.02139 0.03185 0.0
H341 H 0.51536 0.00645 0.0776 0.0
O342 O 0.48978 0.96729 1.00537 0.0
O343 O 0.47384 0.01347 1.00398 0.0
O344 O 0.49412 0.01947 0.03608 0.0
C345 C 0.47492 0.0214 0.0246 0.0
H346 H 0.4359 0.97341 0.93501 0.0
H347 H 0.58678 0.02917 0.07518 0.0
Co348 Co 0.52338 0.51198 0.50338 0.0
C349 C 0.48552 0.51423 0.47172 0.0
Co350 Co 0.49096 0.49237 0.51608 0.0
C351 C 0.57231 0.52615 0.49499 0.0
C352 C 0.54834 0.55247 0.4803 0.0
N353 N 0.54917 0.53052 0.49241 0.0
N354 N 0.58589 0.54448 0.48481 0.0
C355 C 0.57085 0.56104 0.47555 0.0
H356 H 0.57903 0.50986 0.5041 0.0
H357 H 0.53236 0.56184 0.47554 0.0
C358 C 0.52879 0.49001 0.54768 0.0
N359 N 0.46513 0.47387 0.52698 0.0
C360 C 0.44205 0.47836 0.52411 0.0
C361 C 0.46572 0.45152 0.53833 0.0
N362 N 0.42824 0.45954 0.533 0.0
C363 C 0.4431 0.44267 0.54203 0.0
C364 C 0.52194 0.46437 0.49142 0.0
O365 O 0.53973 0.50272 0.53154 0.0
O366 O 0.50732 0.48389 0.54453 0.0
O367 O 0.50262 0.46436 0.50257 0.0
O368 O 0.53443 0.48402 0.48905 0.0
O369 O 0.47485 0.50091 0.48759 0.0
H370 H 0.48162 0.44202 0.54312 0.0
H371 H 0.43554 0.49473 0.51493 0.0
O372 O 0.50673 0.52108 0.47522 0.0
O373 O 0.51231 0.53967 0.51788 0.0
O374 O 0.47943 0.52061 0.52951 0.0
C375 C 0.49261 0.53981 0.52831 0.0
H376 H 0.57579 0.57842 0.46651 0.0
H377 H 0.438 0.42511 0.55062 0.0
Co378 Co 0.02098 0.50275 0.99001 0.0
C379 C 0.97723 0.48018 0.98597 0.0
Co380 Co 1.00029 0.50281 0.02267 0.0
C381 C 0.0396 0.48742 0.94623 0.0
C382 C 0.05287 0.52289 0.95474 0.0
N383 N 0.03868 0.50406 0.96279 0.0
N384 N 0.05371 0.4952 0.92805 0.0
C385 C 0.06216 0.51749 0.93345 0.0
H386 H 0.02949 0.47031 0.94717 0.0
H387 H 0.05596 0.53968 0.96359 0.0
C388 C 0.04403 0.52539 0.02667 0.0
N389 N 0.98264 0.50147 0.04996 0.0
C390 C 0.98187 0.51803 0.06661 0.0
C391 C 0.96858 0.48256 0.05812 0.0
N392 N 0.96803 0.51012 0.08496 0.0
C393 C 0.95956 0.48783 0.07957 0.0
C394 C 0.02903 0.46207 0.0204 0.0
O395 O 0.0458 0.51929 1.00556 0.0
O396 O 0.02502 0.52026 0.03781 0.0
O397 O 0.01439 0.47261 0.033 0.0
O398 O 0.03427 0.47186 1.00011 0.0
O399 O 0.97583 0.48542 0.00738 0.0
H400 H 0.9655 0.46576 0.04929 0.0
H401 H 0.99197 0.53515 0.06566 0.0
O402 O 0.99589 0.48615 0.97454 0.0
O403 O 0.00768 0.53356 0.98014 0.0
O404 O 0.98624 0.53309 0.01216 0.0
C405 C 0.99233 0.54353 0.99239 0.0
H406 H 0.07411 0.5292 0.92276 0.0
H407 H 0.94785 0.47601 0.09041 0.0
H408 H 0.0976 0.11145 0.26269 0.0
H409 H 0.07932 0.09452 0.29917 0.0
H410 H 0.14788 0.08464 0.33038 0.0
H411 H 0.16634 0.10162 0.29387 0.0
H412 H 0.12022 0.04563 0.34166 0.0
H413 H 0.1124 0.13239 0.34447 0.0
H414 H 0.10129 0.17385 0.32988 0.0
H415 H 0.02887 0.14969 0.32625 0.0
H416 H 0.03959 0.10797 0.34051 0.0
H417 H 0.07904 0.02598 0.46037 0.0
H418 H 0.09872 0.04216 0.42421 0.0
H419 H 0.03128 0.05236 0.39062 0.0
H420 H 0.01151 0.03651 0.42676 0.0
H421 H 0.0592 0.09154 0.3811 0.0
H422 H 0.06722 0.0046 0.37791 0.0
H423 H 0.0784 0.96325 0.39278 0.0
H424 H 0.15059 0.98795 0.39751 0.0
H425 H 0.13978 0.02956 0.38296 0.0
C426 C 0.10886 0.1059 0.27735 0.0
C427 C 0.13353 0.10816 0.27524 0.0
C428 C 0.09833 0.09615 0.29828 0.0
C429 C 0.11212 0.08859 0.31783 0.0
C430 C 0.13676 0.09033 0.31565 0.0
C431 C 0.14733 0.10002 0.29466 0.0
C432 C 0.10084 0.07893 0.34048 0.0
C433 C 0.10712 0.05586 0.35043 0.0
C434 C 0.08335 0.09192 0.35187 0.0
C435 C 0.07684 0.117 0.34334 0.0
C436 C 0.09413 0.13587 0.34039 0.0
C437 C 0.0879 0.15942 0.3322 0.0
C438 C 0.0644 0.16438 0.32708 0.0
C439 C 0.04707 0.14581 0.33019 0.0
C440 C 0.05321 0.12221 0.33834 0.0
C441 C 0.06837 0.03159 0.44528 0.0
C442 C 0.04363 0.02984 0.44656 0.0
C443 C 0.07968 0.04078 0.42452 0.0
C444 C 0.06657 0.04832 0.40445 0.0
C445 C 0.04187 0.0467 0.40576 0.0
C446 C 0.03056 0.03752 0.42649 0.0
C447 C 0.07847 0.05818 0.3822 0.0
C448 C 0.07231 0.08131 0.37234 0.0
C449 C 0.09609 0.04526 0.37093 0.0
C450 C 0.10265 0.02025 0.37957 0.0
C451 C 0.08545 1.00126 0.38229 0.0
C452 C 0.09172 0.97777 0.39063 0.0
C453 C 0.11518 0.973 0.39615 0.0
C454 C 0.13242 0.99169 0.39327 0.0
C455 C 0.12623 0.01522 0.38495 0.0
H456 H 0.12 0.9548 0.40261 0.0
H457 H 0.05961 0.18263 0.32075 0.0
H458 H 0.49367 0.92308 0.71056 0.0
H459 H 0.50294 0.93729 0.74979 0.0
H460 H 0.4307 0.95727 0.75796 0.0
H461 H 0.4214 0.94328 0.71898 0.0
H462 H 0.45976 0.99183 0.77359 0.0
H463 H 0.4521 0.90308 0.78256 0.0
H464 H 0.46223 0.86089 0.77427 0.0
H465 H 0.53339 0.87484 0.79658 0.0
H466 H 0.52373 0.91724 0.80473 0.0
H467 H 0.43675 0.98867 0.89499 0.0
H468 H 0.43887 0.98168 0.85305 0.0
H469 H 0.51291 0.96764 0.86012 0.0
H470 H 0.51076 0.97396 0.90234 0.0
H471 H 0.49014 0.9332 0.83561 0.0
H472 H 0.49565 0.02039 0.83228 0.0
H473 H 0.48467 0.06208 0.84139 0.0
H474 H 0.4171 0.05102 0.80902 0.0
H475 H 0.42754 0.00912 0.80001 0.0
C476 C 0.47982 0.93055 0.72075 0.0
C477 C 0.45682 0.93211 0.71167 0.0
C478 C 0.48513 0.93867 0.74312 0.0
C479 C 0.46746 0.94818 0.75687 0.0
C480 C 0.44464 0.95016 0.74762 0.0
C481 C 0.43937 0.94219 0.72529 0.0
C482 C 0.47224 0.95539 0.78123 0.0
C483 C 0.46632 0.97899 0.78718 0.0
C484 C 0.48149 0.93888 0.7988 0.0
C485 C 0.48727 0.9134 0.79396 0.0
C486 C 0.46995 0.89721 0.78551 0.0
C487 C 0.4756 0.87325 0.78087 0.0
C488 C 0.49846 0.86521 0.78482 0.0
C489 C 0.5157 0.8811 0.79348 0.0
C490 C 0.51015 0.90509 0.79812 0.0
C491 C 0.45347 0.98407 0.88766 0.0
C492 C 0.47356 0.98186 0.90203 0.0
C493 C 0.45473 0.98033 0.86363 0.0
C494 C 0.47612 0.97445 0.85341 0.0
C495 C 0.49627 0.97233 0.86764 0.0
C496 C 0.49504 0.97613 0.89173 0.0
C497 C 0.47698 0.96939 0.8281 0.0
C498 C 0.48399 0.94622 0.82196 0.0
C499 C 0.46865 0.98626 0.81036 0.0
C500 C 0.46234 0.01154 0.81559 0.0
C501 C 0.47839 0.02678 0.82724 0.0
C502 C 0.47227 0.05047 0.83237 0.0
C503 C 0.45019 0.05918 0.82582 0.0
C504 C 0.4342 0.04424 0.81408 0.0
C505 C 0.44022 0.02053 0.80893 0.0
H506 H 0.44548 0.07752 0.82981 0.0
H507 H 0.5028 0.84666 0.78122 0.0
H508 H 0.60356 0.37699 0.73481 0.0
H509 H 0.58621 0.39454 0.69871 0.0
H510 H 0.63403 0.45722 0.70044 0.0
H511 H 0.65036 0.44065 0.73766 0.0
H512 H 0.59313 0.47224 0.68766 0.0
H513 H 0.64183 0.40941 0.66249 0.0
H514 H 0.65781 0.36802 0.66185 0.0
H515 H 0.58976 0.33886 0.64311 0.0
H516 H 0.57328 0.38004 0.64396 0.0
H517 H 0.57048 0.50768 0.56519 0.0
H518 H 0.59059 0.49326 0.60149 0.0
H519 H 0.53499 0.43903 0.61553 0.0
H520 H 0.51459 0.45352 0.57963 0.0
H521 H 0.58253 0.42121 0.61878 0.0
H522 H 0.53455 0.4857 0.64585 0.0
H523 H 0.52053 0.52799 0.64505 0.0
H524 H 0.59077 0.555 0.65825 0.0
H525 H 0.60528 0.51287 0.65877 0.0
C526 C 0.61019 0.39472 0.72782 0.0
C527 C 0.62843 0.40735 0.73928 0.0
C528 C 0.60047 0.40456 0.70688 0.0
C529 C 0.60914 0.42697 0.69651 0.0
C530 C 0.62715 0.43981 0.70799 0.0
C531 C 0.63666 0.43015 0.72917 0.0
C532 C 0.59918 0.43704 0.67386 0.0
C533 C 0.5912 0.46117 0.6725 0.0
C534 C 0.59643 0.4226 0.65405 0.0
C535 C 0.60628 0.39779 0.65348 0.0
C536 C 0.63023 0.39414 0.6584 0.0
C537 C 0.63939 0.37072 0.65797 0.0
C538 C 0.6248 0.35081 0.65249 0.0
C539 C 0.60103 0.3543 0.64737 0.0
C540 C 0.59178 0.37768 0.6478 0.0
C541 C 0.56252 0.49274 0.57607 0.0
C542 C 0.54093 0.48176 0.56963 0.0
C543 C 0.574 0.48458 0.59677 0.0
C544 C 0.5642 0.46514 0.61112 0.0
C545 C 0.54278 0.45405 0.60464 0.0
C546 C 0.53113 0.46243 0.58419 0.0
C547 C 0.57631 0.4561 0.63286 0.0
C548 C 0.5847 0.43222 0.63396 0.0
C549 C 0.57978 0.47087 0.65224 0.0
C550 C 0.57104 0.49617 0.65207 0.0
C551 C 0.54705 0.50068 0.64835 0.0
C552 C 0.539 0.52462 0.648 0.0
C553 C 0.55476 0.54418 0.65152 0.0
C554 C 0.57859 0.53984 0.65548 0.0
C555 C 0.58673 0.51593 0.65582 0.0
H556 H 0.54849 0.5627 0.65125 0.0
H557 H 0.63193 0.3327 0.65217 0.0
H558 H 0.93067 0.55869 0.29507 0.0
H559 H 0.9383 0.54632 0.25534 0.0
H560 H 0.95191 0.62188 0.23175 0.0
H561 H 0.94346 0.63455 0.27145 0.0
H562 H 0.92475 0.59775 0.20036 0.0
H563 H 0.99724 0.58471 0.24105 0.0
H564 H 0.0228 0.5696 0.27357 0.0
H565 H 1.00124 0.49541 0.26155 0.0
H566 H 0.97527 0.51009 0.22916 0.0
H567 H 0.97143 0.55893 0.09158 0.0
H568 H 0.96707 0.57862 0.12886 0.0
H569 H 0.9521 0.50803 0.16453 0.0
H570 H 0.95722 0.48822 0.12772 0.0
H571 H 0.98358 0.53438 0.18853 0.0
H572 H 0.90844 0.54808 0.15023 0.0
H573 H 0.88267 0.56333 0.11792 0.0
H574 H 0.90971 0.63668 0.12534 0.0
H575 H 0.93588 0.62179 0.15752 0.0
C576 C 0.93506 0.57273 0.2814 0.0
C577 C 0.93649 0.5976 0.28642 0.0
C578 C 0.93964 0.56561 0.25876 0.0
C579 C 0.94599 0.58316 0.2407 0.0
C580 C 0.94716 0.60805 0.2455 0.0
C581 C 0.94253 0.61522 0.26821 0.0
C582 C 0.95137 0.57528 0.21687 0.0
C583 C 0.93791 0.58423 0.19765 0.0
C584 C 0.96838 0.55747 0.21345 0.0
C585 C 0.98418 0.54853 0.23277 0.0
C586 C 0.99783 0.56518 0.24543 0.0
C587 C 0.01241 0.55669 0.26384 0.0
C588 C 0.01361 0.53156 0.26965 0.0
C589 C 1.00028 0.51487 0.25703 0.0
C590 C 0.98565 0.52326 0.23862 0.0
C591 C 0.96734 0.5476 0.10739 0.0
C592 C 0.96462 0.52198 0.10662 0.0
C593 C 0.96466 0.5589 0.12862 0.0
C594 C 0.95911 0.54478 0.14941 0.0
C595 C 0.95636 0.51926 0.14867 0.0
C596 C 0.95906 0.50798 0.12753 0.0
C597 C 0.9565 0.5563 0.17215 0.0
C598 C 0.9706 0.54811 0.19117 0.0
C599 C 0.94012 0.57482 0.17533 0.0
C600 C 0.92431 0.58378 0.15609 0.0
C601 C 0.90903 0.56743 0.14485 0.0
C602 C 0.89433 0.57601 0.12658 0.0
C603 C 0.89461 0.60095 0.11953 0.0
C604 C 0.90955 0.61736 0.13079 0.0
C605 C 0.9243 0.60886 0.14905 0.0
H606 H 0.88322 0.60756 0.10538 0.0
H607 H 0.02491 0.52502 0.28391 0.0
H608 H 0.30859 0.1073 0.15088 0.0
H609 H 0.34335 0.09008 0.13363 0.0
H610 H 0.31087 0.09602 0.06491 0.0
H611 H 0.27582 0.11273 0.08212 0.0
H612 H 0.33183 0.05254 0.07186 0.0
H613 H 0.35436 0.13691 0.08086 0.0
H614 H 0.36055 0.17438 0.10249 0.0
H615 H 0.40927 0.13714 0.14899 0.0
H616 H 0.40313 0.09932 0.12782 0.0
H617 H 0.43307 0.03335 1.0032 0.0
H618 H 0.39845 0.05032 0.02082 0.0
H619 H 0.43393 0.05007 0.0881 0.0
H620 H 0.46893 0.03384 0.07034 0.0
H621 H 0.41128 0.09035 0.08238 0.0
H622 H 0.38916 0.00596 0.07369 0.0
H623 H 0.38279 0.96817 0.05253 0.0
H624 H 0.33332 0.00462 0.00636 0.0
H625 H 0.33958 0.04274 0.02701 0.0
C626 C 0.30871 0.10479 0.13211 0.0
C627 C 0.28927 0.11155 0.11795 0.0
C628 C 0.32876 0.09511 0.1222 0.0
C629 C 0.33 0.09193 0.09784 0.0
C630 C 0.31051 0.09832 0.08371 0.0
C631 C 0.29049 0.10811 0.09359 0.0
C632 C 0.35151 0.08192 0.0871 0.0
C633 C 0.34916 0.06101 0.07393 0.0
C634 C 0.37432 0.09248 0.0902 0.0
C635 C 0.3781 0.11521 0.10291 0.0
C636 C 0.36625 0.13665 0.09582 0.0
C637 C 0.36978 0.15797 0.10797 0.0
C638 C 0.38525 0.15812 0.12714 0.0
C639 C 0.39727 0.13698 0.13416 0.0
C640 C 0.39379 0.11561 0.12208 0.0
C641 C 0.43356 0.03693 0.02175 0.0
C642 C 0.45388 0.03213 0.03531 0.0
C643 C 0.4136 0.04651 0.0319 0.0
C644 C 0.41319 0.05116 0.05601 0.0
C645 C 0.4336 0.04666 0.0695 0.0
C646 C 0.45367 0.03731 0.0593 0.0
C647 C 0.39167 0.0609 0.06708 0.0
C648 C 0.394 0.08179 0.08033 0.0
C649 C 0.36884 0.05022 0.06416 0.0
C650 C 0.36501 0.02728 0.05177 0.0
C651 C 0.37704 0.00598 0.05892 0.0
C652 C 0.37344 0.98449 0.04704 0.0
C653 C 0.35772 0.98402 0.02809 0.0
C654 C 0.34551 0.00502 0.02102 0.0
C655 C 0.34906 0.02656 0.03282 0.0
H656 H 0.35496 0.96736 0.01892 0.0
H657 H 0.38796 0.17464 0.13653 0.0
H658 H 0.29105 0.88934 0.55401 0.0
H659 H 0.25157 0.90309 0.54391 0.0
H660 H 0.27388 0.97777 0.5543 0.0
H661 H 0.31364 0.96439 0.56359 0.0
H662 H 0.23409 0.96013 0.58117 0.0
H663 H 0.26249 0.96314 0.50097 0.0
H664 H 0.28038 0.94594 0.46634 0.0
H665 H 0.22477 0.89108 0.46524 0.0
H666 H 0.20673 0.90774 0.5001 0.0
H667 H 0.1319 0.02192 0.5515 0.0
H668 H 0.17257 0.00866 0.55154 0.0
H669 H 0.14925 0.93886 0.52658 0.0
H670 H 0.10851 0.95264 0.52565 0.0
H671 H 0.18943 0.9523 0.50662 0.0
H672 H 0.16126 0.94614 0.58568 0.0
H673 H 0.14266 0.95997 0.62152 0.0
H674 H 0.19683 0.01583 0.62687 0.0
H675 H 0.21559 1.00255 0.59086 0.0
C676 C 0.28778 0.90878 0.55353 0.0
C677 C 0.30551 0.92575 0.55981 0.0
C678 C 0.26517 0.91656 0.54784 0.0
C679 C 0.25989 0.9414 0.54842 0.0
C680 C 0.27767 0.95849 0.55386 0.0
C681 C 0.30031 0.95078 0.55932 0.0
C682 C 0.2354 0.94934 0.54539 0.0
C683 C 0.22441 0.9588 0.56477 0.0
C684 C 0.22259 0.9465 0.5243 0.0
C685 C 0.23339 0.93654 0.5033 0.0
C686 C 0.25419 0.94727 0.49349 0.0
C687 C 0.26434 0.93765 0.47378 0.0
C688 C 0.25376 0.91739 0.46364 0.0
C689 C 0.23297 0.90675 0.47314 0.0
C690 C 0.22277 0.91629 0.49286 0.0
C691 C 0.13554 0.00381 0.54593 0.0
C692 C 0.11719 0.98814 0.53887 0.0
C693 C 0.15872 0.99622 0.54598 0.0
C694 C 0.16389 0.97253 0.53964 0.0
C695 C 0.14566 0.95717 0.53166 0.0
C696 C 0.12245 0.96499 0.53116 0.0
C697 C 0.18818 0.96359 0.54232 0.0
C698 C 0.19909 0.95374 0.52301 0.0
C699 C 0.20085 0.96552 0.56369 0.0
C700 C 0.18971 0.97348 0.58545 0.0
C701 C 0.16912 0.96148 0.59441 0.0
C702 C 0.15856 0.96921 0.61476 0.0
C703 C 0.16853 0.9888 0.62643 0.0
C704 C 0.18912 1.00067 0.6178 0.0
C705 C 0.19973 0.99304 0.59743 0.0
H706 H 0.16032 0.99476 0.64219 0.0
H707 H 0.26163 0.90998 0.44838 0.0
H708 H 0.8089 0.36044 0.88356 0.0
H709 H 0.84552 0.37611 0.90072 0.0
H710 H 0.8117 0.44331 0.91493 0.0
H711 H 0.77528 0.42794 0.89727 0.0
H712 H 0.8535 0.45396 0.89923 0.0
H713 H 0.82137 0.39716 0.95872 0.0
H714 H 0.80517 0.35746 0.97523 0.0
H715 H 0.86972 0.32301 0.95961 0.0
H716 H 0.8862 0.36247 0.94272 0.0
H717 H 0.93681 0.46178 0.00677 0.0
H718 H 0.90202 0.44471 0.98769 0.0
H719 H 0.93639 0.45469 0.92008 0.0
H720 H 0.97139 0.47199 0.93909 0.0
H721 H 0.89445 0.40548 0.96268 0.0
H722 H 0.89323 0.47191 0.87879 0.0
H723 H 0.90403 0.5148 0.86641 0.0
H724 H 0.90004 0.53478 0.93822 0.0
H725 H 0.88883 0.49213 0.95098 0.0
C726 C 0.80931 0.37853 0.89042 0.0
C727 C 0.78925 0.39296 0.88915 0.0
C728 C 0.83022 0.38746 0.90024 0.0
C729 C 0.83132 0.41079 0.9094 0.0
C730 C 0.81133 0.4253 0.90792 0.0
C731 C 0.79053 0.4165 0.89784 0.0
C732 C 0.85321 0.42009 0.92067 0.0
C733 C 0.86251 0.44328 0.91301 0.0
C734 C 0.86474 0.40644 0.93903 0.0
C735 C 0.85492 0.38271 0.94924 0.0
C736 C 0.83204 0.38108 0.95865 0.0
C737 C 0.82282 0.35863 0.9681 0.0
C738 C 0.83638 0.33771 0.9684 0.0
C739 C 0.85922 0.33922 0.95932 0.0
C740 C 0.86852 0.36162 0.94982 0.0
C741 C 0.93707 0.46024 0.98785 0.0
C742 C 0.95685 0.46834 0.97443 0.0
C743 C 0.91717 0.4504 0.97698 0.0
C744 C 0.91653 0.44861 0.95246 0.0
C745 C 0.93642 0.45617 0.93902 0.0
C746 C 0.95644 0.46593 0.94991 0.0
C747 C 0.89482 0.43922 0.94106 0.0
C748 C 0.88558 0.41601 0.9487 0.0
C749 C 0.88292 0.45321 0.92323 0.0
C750 C 0.89047 0.47874 0.91585 0.0
C751 C 0.8947 0.48545 0.89194 0.0
C752 C 0.90084 0.50972 0.88486 0.0
C753 C 0.90269 0.52749 0.90152 0.0
C754 C 0.89863 0.52098 0.92534 0.0
C755 C 0.89243 0.49674 0.93251 0.0
H756 H 0.90713 0.54633 0.89595 0.0
H757 H 0.82921 0.32035 0.97573 0.0
H758 H 0.81512 0.57649 0.49148 0.0
H759 H 0.77451 0.56646 0.50467 0.0
H760 H 0.74871 0.58871 0.43541 0.0
H761 H 0.7889 0.59842 0.42219 0.0
H762 H 0.72494 0.60896 0.47409 0.0
H763 H 0.75262 0.53111 0.44811 0.0
H764 H 0.77928 0.49627 0.44994 0.0
H765 H 0.7611 0.4799 0.52259 0.0
H766 H 0.73456 0.51489 0.52126 0.0
H767 H 0.61265 0.56628 0.45018 0.0
H768 H 0.65519 0.57325 0.45059 0.0
H769 H 0.65915 0.53496 0.51906 0.0
H770 H 0.61628 0.52769 0.51858 0.0
H771 H 0.69525 0.5234 0.49088 0.0
H772 H 0.66272 0.5964 0.51554 0.0
H773 H 0.63578 0.63095 0.51454 0.0
H774 H 0.66331 0.65725 0.44715 0.0
H775 H 0.69017 0.62264 0.44755 0.0
C776 C 0.8007 0.5792 0.47918 0.0
C777 C 0.80504 0.58803 0.4558 0.0
C778 C 0.77763 0.57344 0.48667 0.0
C779 C 0.75873 0.57685 0.47095 0.0
C780 C 0.7631 0.58597 0.44776 0.0
C781 C 0.78603 0.59135 0.44021 0.0
C782 C 0.73419 0.57106 0.47824 0.0
C783 C 0.7184 0.59028 0.4778 0.0
C784 C 0.72595 0.54678 0.48393 0.0
C785 C 0.74188 0.52579 0.48468 0.0
C786 C 0.7545 0.52023 0.46454 0.0
C787 C 0.76954 0.50043 0.46547 0.0
C788 C 0.77195 0.48594 0.48639 0.0
C789 C 0.75926 0.49118 0.50641 0.0
C790 C 0.74422 0.51098 0.50558 0.0
C791 C 0.62256 0.55937 0.46533 0.0
C792 C 0.61115 0.54674 0.48447 0.0
C793 C 0.64686 0.56335 0.46557 0.0
C794 C 0.66025 0.55513 0.48512 0.0
C795 C 0.64909 0.54161 0.50389 0.0
C796 C 0.62467 0.53742 0.50357 0.0
C797 C 0.6858 0.56124 0.48574 0.0
C798 C 0.70179 0.54216 0.48776 0.0
C799 C 0.69432 0.58574 0.48176 0.0
C800 C 0.67841 0.60682 0.48154 0.0
C801 C 0.66295 0.60947 0.50044 0.0
C802 C 0.64769 0.62908 0.49998 0.0
C803 C 0.64782 0.64627 0.48078 0.0
C804 C 0.66324 0.64392 0.46201 0.0
C805 C 0.67852 0.62433 0.46236 0.0
H806 H 0.63598 0.66143 0.48046 0.0
H807 H 0.7836 0.47061 0.48708 0.0
H808 H 0.11888 0.28189 0.14453 0.0
H809 H 0.09969 0.31751 0.12607 0.0
H810 H 0.12417 0.29875 0.05793 0.0
H811 H 0.14304 0.26268 0.07617 0.0
H812 H 0.12975 0.34814 0.06375 0.0
H813 H 0.06737 0.28714 0.07375 0.0
H814 H 0.04247 0.25615 0.09595 0.0
H815 H 0.02016 0.31078 0.14166 0.0
H816 H 0.04519 0.34205 0.11992 0.0
H817 H 0.05734 0.43145 0.99708 0.0
H818 H 0.07678 0.39473 0.01326 0.0
H819 H 0.04696 0.405 0.08157 0.0
H820 H 0.02691 0.4411 0.06533 0.0
H821 H 0.04425 0.35902 0.07456 0.0
H822 H 0.10689 0.41985 0.06622 0.0
H823 H 0.13224 0.4513 0.04513 0.0
H824 H 0.15462 0.3981 0.99796 0.0
H825 H 0.12917 0.36639 0.01855 0.0
C826 C 0.12001 0.28506 0.12557 0.0
C827 C 0.13247 0.26906 0.11193 0.0
C828 C 0.10906 0.3056 0.11503 0.0
C829 C 0.1102 0.31079 0.09052 0.0
C830 C 0.12301 0.29522 0.07686 0.0
C831 C 0.1339 0.27458 0.08739 0.0
C832 C 0.09788 0.33231 0.0792 0.0
C833 C 0.11099 0.35035 0.06584 0.0
C834 C 0.07348 0.33562 0.08232 0.0
C835 C 0.05832 0.31688 0.09534 0.0
C836 C 0.05729 0.29251 0.08864 0.0
C837 C 0.04313 0.2749 0.10113 0.0
C838 C 0.02979 0.28148 0.12024 0.0
C839 C 0.03053 0.3057 0.12687 0.0
C840 C 0.04468 0.32338 0.11446 0.0
C841 C 0.05486 0.42584 0.01553 0.0
C842 C 0.04053 0.43932 0.02986 0.0
C843 C 0.06615 0.40488 0.02485 0.0
C844 C 0.06375 0.39711 0.04884 0.0
C845 C 0.0492 0.41044 0.06305 0.0
C846 C 0.03773 0.4312 0.0537 0.0
C847 C 0.07612 0.37508 0.0592 0.0
C848 C 0.06301 0.35689 0.07239 0.0
C849 C 0.10057 0.37177 0.05611 0.0
C850 C 0.11594 0.3908 0.04377 0.0
C851 C 0.11708 0.4149 0.05124 0.0
C852 C 0.13149 0.43277 0.0394 0.0
C853 C 0.14497 0.42672 0.02019 0.0
C854 C 0.14413 0.40277 0.01282 0.0
C855 C 0.12974 0.38484 0.02457 0.0
H856 H 0.15611 0.44057 0.01106 0.0
H857 H 0.01884 0.26782 0.12988 0.0
H858 H 0.608 0.22915 0.86064 0.0
H859 H 0.58808 0.19202 0.87763 0.0
H860 H 0.61266 0.20916 0.94684 0.0
H861 H 0.6324 0.24652 0.93005 0.0
H862 H 0.61903 0.16135 0.93824 0.0
H863 H 0.55619 0.21843 0.93088 0.0
H864 H 0.53078 0.24833 0.90988 0.0
H865 H 0.50777 0.19368 0.86289 0.0
H866 H 0.53332 0.16353 0.88341 0.0
H867 H 0.54878 0.07841 0.00819 0.0
H868 H 0.56603 0.11613 0.98975 0.0
H869 H 0.53774 0.09722 0.92239 0.0
H870 H 0.51991 0.05951 0.94087 0.0
H871 H 0.53323 0.14529 0.92869 0.0
H872 H 0.5952 0.08804 0.9358 0.0
H873 H 0.62038 0.05767 0.95645 0.0
H874 H 0.64529 0.11204 1.00288 0.0
H875 H 0.61997 0.14266 0.98274 0.0
C876 C 0.60896 0.22519 0.87952 0.0
C877 C 0.62173 0.24088 0.894 0.0
C878 C 0.5976 0.20392 0.88918 0.0
C879 C 0.59871 0.19796 0.91352 0.0
C880 C 0.61161 0.21342 0.928 0.0
C881 C 0.62296 0.23471 0.91836 0.0
C882 C 0.58668 0.17541 0.92387 0.0
C883 C 0.60022 0.15797 0.93641 0.0
C884 C 0.56226 0.1707 0.92086 0.0
C885 C 0.54686 0.1888 0.90853 0.0
C886 C 0.54587 0.21285 0.91594 0.0
C887 C 0.53141 0.22983 0.90415 0.0
C888 C 0.51772 0.22293 0.88502 0.0
C889 C 0.51841 0.19901 0.87769 0.0
C890 C 0.53287 0.18196 0.88941 0.0
C891 C 0.54609 0.08229 0.98947 0.0
C892 C 0.53311 0.06587 0.97595 0.0
C893 C 0.55605 0.10384 0.97893 0.0
C894 C 0.55355 0.10927 0.95461 0.0
C895 C 0.53997 0.09332 0.94117 0.0
C896 C 0.52983 0.07178 0.95175 0.0
C897 C 0.56555 0.13135 0.94325 0.0
C898 C 0.55204 0.14865 0.93047 0.0
C899 C 0.59005 0.13589 0.94591 0.0
C900 C 0.60553 0.11759 0.95788 0.0
C901 C 0.60593 0.09348 0.95051 0.0
C902 C 0.62024 0.07623 0.96212 0.0
C903 C 0.63438 0.08291 0.98099 0.0
C904 C 0.6343 0.10688 0.98827 0.0
C905 C 0.61999 0.1242 0.97675 0.0
H906 H 0.64545 0.06952 0.98996 0.0
H907 H 0.50653 0.23611 0.87592 0.0
H908 H 0.95604 0.76104 0.41278 0.0
H909 H 0.97129 0.80067 0.42448 0.0
H910 H 0.99793 0.76638 0.48921 0.0
H911 H 0.98194 0.72655 0.47775 0.0
H912 H 0.97831 0.80719 0.49817 0.0
H913 H 0.0353 0.78618 0.44272 0.0
H914 H 0.05042 0.7719 0.40546 0.0
H915 H 0.01999 0.83322 0.36708 0.0
H916 H 1.00437 0.84769 0.40407 0.0
H917 H 0.03615 0.92339 0.5179 0.0
H918 H 0.03309 0.87987 0.50936 0.0
H919 H 0.98709 0.89769 0.45068 0.0
H920 H 0.98966 0.94096 0.45932 0.0
H921 H 0.02378 0.86303 0.44194 0.0
H922 H 0.96231 0.87931 0.49827 0.0
H923 H 0.94862 0.89353 0.53613 0.0
H924 H 0.99068 0.84013 0.57372 0.0
H925 H 1.00492 0.82586 0.53603 0.0
C926 C 0.96533 0.76192 0.42941 0.0
C927 C 0.96804 0.74074 0.44427 0.0
C928 C 0.97413 0.78456 0.43605 0.0
C929 C 0.98628 0.78645 0.45747 0.0
C930 C 0.98877 0.76533 0.47252 0.0
C931 C 0.97964 0.74264 0.466 0.0
C932 C 0.99552 0.81072 0.4643 0.0
C933 C 0.98872 0.81915 0.48607 0.0
C934 C 0.00904 0.82646 0.44852 0.0
C935 C 0.01855 0.81794 0.42619 0.0
C936 C 0.0317 0.79654 0.42632 0.0
C937 C 0.04038 0.78843 0.40524 0.0
C938 C 0.03614 0.80163 0.38391 0.0
C939 C 0.02326 0.82301 0.38362 0.0
C940 C 0.01452 0.8312 0.40465 0.0
C941 C 0.02563 0.91802 0.50302 0.0
C942 C 0.01301 0.93547 0.48935 0.0
C943 C 0.02388 0.89322 0.49821 0.0
C944 C 0.00982 0.8857 0.47945 0.0
C945 C 0.99806 0.90323 0.46519 0.0
C946 C 0.99946 0.92788 0.47023 0.0
C947 C 1.00601 0.85945 0.47537 0.0
C948 C 0.01383 0.85074 0.45415 0.0
C949 C 0.99372 0.84338 0.49175 0.0
C950 C 0.98491 0.85174 0.51436 0.0
C951 C 0.9688 0.87075 0.51461 0.0
C952 C 0.96091 0.87879 0.53604 0.0
C953 C 0.96884 0.8678 0.55732 0.0
C954 C 0.9846 0.84867 0.55722 0.0
C955 C 0.99258 0.84059 0.53584 0.0
H956 H 0.96272 0.87405 0.57389 0.0
H957 H 0.04287 0.79531 0.36761 0.0
H958 H 0.41954 0.75479 0.55223 0.0
H959 H 0.42814 0.71243 0.54493 0.0
H960 H 0.47761 0.71021 0.60259 0.0
H961 H 0.46809 0.75206 0.61119 0.0
H962 H 0.49104 0.69364 0.55121 0.0
H963 H 0.43665 0.68221 0.61779 0.0
H964 H 0.39915 0.68933 0.6376 0.0
H965 H 0.36082 0.65981 0.57994 0.0
H966 H 0.39812 0.65288 0.55961 0.0
H967 H 0.51962 0.57054 0.5532 0.0
H968 H 0.50921 0.61057 0.56631 0.0
H969 H 0.43941 0.60097 0.53728 0.0
H970 H 0.44941 0.56001 0.5257 0.0
H971 H 0.43576 0.6244 0.57426 0.0
H972 H 0.48598 0.6347 0.50718 0.0
H973 H 0.52123 0.62864 0.4833 0.0
H974 H 0.56474 0.66203 0.53516 0.0
H975 H 0.52978 0.66793 0.55956 0.0
C976 C 0.43195 0.74527 0.56369 0.0
C977 C 0.44297 0.75694 0.58246 0.0
C978 C 0.43697 0.72112 0.55931 0.0
C979 C 0.45339 0.70835 0.5733 0.0
C980 C 0.46489 0.71994 0.59164 0.0
C981 C 0.45954 0.74393 0.59637 0.0
C982 C 0.45856 0.68284 0.56866 0.0
C983 C 0.47922 0.67837 0.55652 0.0
C984 C 0.44253 0.6633 0.57477 0.0
C985 C 0.42015 0.6673 0.58707 0.0
C986 C 0.42022 0.67748 0.60922 0.0
C987 C 0.399 0.68143 0.62057 0.0
C988 C 0.37761 0.6751 0.61 0.0
C989 C 0.3774 0.66474 0.58809 0.0
C990 C 0.39856 0.66079 0.57666 0.0
C991 C 0.50195 0.57689 0.55 0.0
C992 C 0.48531 0.56247 0.53835 0.0
C993 C 0.49606 0.59981 0.5573 0.0
C994 C 0.47377 0.60918 0.55208 0.0
C995 C 0.45677 0.59424 0.54136 0.0
C996 C 0.46245 0.57089 0.53474 0.0
C997 C 0.46859 0.63485 0.55699 0.0
C998 C 0.4478 0.63949 0.569 0.0
C999 C 0.48423 0.65471 0.55012 0.0
C1000 C 0.50527 0.65156 0.5353 0.0
C1001 C 0.50308 0.64063 0.51356 0.0
C1002 C 0.52301 0.63722 0.49992 0.0
C1003 C 0.54522 0.64489 0.50773 0.0
C1004 C 0.54753 0.65607 0.52915 0.0
C1005 C 0.52766 0.65946 0.54289 0.0
H1006 H 0.56063 0.64222 0.49717 0.0
H1007 H 0.36121 0.67816 0.61881 0.0
H1008 H 0.88997 0.86266 0.71979 0.0
H1009 H 0.90869 0.88091 0.68402 0.0
H1010 H 0.90375 0.95275 0.71079 0.0
H1011 H 0.88492 0.9346 0.74664 0.0
H1012 H 0.89304 0.95538 0.66581 0.0
H1013 H 0.95646 0.92143 0.7113 0.0
H1014 H 0.97783 0.88929 0.73406 0.0
H1015 H 0.9792 0.8462 0.67331 0.0
H1016 H 0.95754 0.87795 0.65026 0.0
H1017 H 0.00729 0.98295 0.5894 0.0
H1018 H 0.98753 0.96664 0.62537 0.0
H1019 H 0.92285 0.95763 0.58643 0.0
H1020 H 0.94237 0.97472 0.55055 0.0
H1021 H 0.96898 0.92492 0.63858 0.0
H1022 H 0.87499 0.96092 0.62287 0.0
H1023 H 0.85533 0.99594 0.60276 0.0
H1024 H 0.91862 0.04026 0.60769 0.0
H1025 H 0.93849 0.00567 0.62834 0.0
C1026 C 0.893 0.88234 0.71821 0.0
C1027 C 0.886 0.89708 0.73632 0.0
C1028 C 0.90373 0.89279 0.69765 0.0
C1029 C 0.90803 0.91826 0.69468 0.0
C1030 C 0.90068 0.93307 0.71253 0.0
C1031 C 0.88983 0.92264 0.73306 0.0
C1032 C 0.92024 0.92941 0.67308 0.0
C1033 C 0.90963 0.94866 0.65985 0.0
C1034 C 0.94212 0.92107 0.66534 0.0
C1035 C 0.95518 0.90196 0.67913 0.0
C1036 C 0.96116 0.90502 0.70284 0.0
C1037 C 0.97335 0.88688 0.71579 0.0
C1038 C 0.97981 0.86569 0.70515 0.0
C1039 C 0.97415 0.86261 0.68153 0.0
C1040 C 0.96193 0.88068 0.66851 0.0
C1041 C 0.98881 0.97765 0.58849 0.0
C1042 C 0.97643 0.98032 0.56702 0.0
C1043 C 0.9775 0.9682 0.60912 0.0
C1044 C 0.95352 0.96105 0.6089 0.0
C1045 C 0.94119 0.96345 0.58738 0.0
C1046 C 0.95243 0.97315 0.56677 0.0
C1047 C 0.94168 0.95077 0.63108 0.0
C1048 C 0.95235 0.93162 0.64443 0.0
C1049 C 0.92009 0.95957 0.63917 0.0
C1050 C 0.90831 0.98058 0.6269 0.0
C1051 C 0.88469 0.97816 0.61974 0.0
C1052 C 0.8735 0.99795 0.60826 0.0
C1053 C 0.88576 0.02028 0.60383 0.0
C1054 C 0.90918 0.02292 0.61103 0.0
C1055 C 0.92041 0.00322 0.62264 0.0
H1056 H 0.87708 0.03555 0.59487 0.0
H1057 H 0.98925 0.85167 0.7152 0.0
H1058 H 0.53768 0.08721 0.29855 0.0
H1059 H 0.52945 0.07338 0.25898 0.0
H1060 H 0.60184 0.05326 0.25256 0.0
H1061 H 0.61031 0.06755 0.29166 0.0
H1062 H 0.58714 0.08078 0.21455 0.0
H1063 H 0.55855 0.0099 0.26183 0.0
H1064 H 0.53412 0.98809 0.29261 0.0
H1065 H 0.47145 0.01137 0.25645 0.0
H1066 H 0.49553 0.03362 0.2256 0.0
H1067 H 0.58765 0.0125 0.11506 0.0
H1068 H 0.58901 0.02274 0.15628 0.0
H1069 H 0.51585 0.04143 0.1528 0.0
H1070 H 0.5144 0.03121 0.11134 0.0
H1071 H 0.52758 0.01672 0.1953 0.0
H1072 H 0.55571 0.08622 0.1474 0.0
H1073 H 0.5798 0.10818 0.11645 0.0
H1074 H 0.64282 0.08835 0.15391 0.0
H1075 H 0.61911 0.06594 0.18493 0.0
C1076 C 0.55181 0.0798 0.28868 0.0
C1077 C 0.57463 0.07843 0.29824 0.0
C1078 C 0.54704 0.07174 0.26619 0.0
C1079 C 0.56502 0.06218 0.25292 0.0
C1080 C 0.58771 0.06053 0.26255 0.0
C1081 C 0.59247 0.06852 0.28498 0.0
C1082 C 0.56067 0.05494 0.22854 0.0
C1083 C 0.5743 0.06658 0.21039 0.0
C1084 C 0.54332 0.03704 0.22304 0.0
C1085 C 0.52884 0.02365 0.24155 0.0
C1086 C 0.53956 0.01056 0.26055 0.0
C1087 C 0.52578 0.99808 0.27799 0.0
C1088 C 0.50125 0.99841 0.27652 0.0
C1089 C 0.49045 0.01117 0.25758 0.0
C1090 C 0.50415 0.0237 0.24011 0.0
C1091 C 0.57184 0.01872 0.12307 0.0
C1092 C 0.55103 0.0214 0.10987 0.0
C1093 C 0.57261 0.02449 0.14663 0.0
C1094 C 0.55264 0.03326 0.15742 0.0
C1095 C 0.53146 0.03476 0.14473 0.0
C1096 C 0.53065 0.02888 0.12109 0.0
C1097 C 0.55449 0.04213 0.1815 0.0
C1098 C 0.54034 0.03098 0.1995 0.0
C1099 C 0.57129 0.06059 0.18693 0.0
C1100 C 0.58563 0.07422 0.16839 0.0
C1101 C 0.57471 0.08639 0.14896 0.0
C1102 C 0.5883 0.09894 0.13141 0.0
C1103 C 0.61282 0.09962 0.13318 0.0
C1104 C 0.62381 0.08779 0.15254 0.0
C1105 C 0.61031 0.07518 0.17013 0.0
H1106 H 0.62331 0.10935 0.11958 0.0
H1107 H 0.49061 0.98873 0.29004 0.0
H1108 H 0.35458 0.58386 0.29381 0.0
H1109 H 0.37156 0.5648 0.32971 0.0
H1110 H 0.44081 0.59041 0.307 0.0
H1111 H 0.42414 0.60844 0.27057 0.0
H1112 H 0.44257 0.54511 0.32516 0.0
H1113 H 0.40912 0.61966 0.34861 0.0
H1114 H 0.37778 0.64927 0.35296 0.0
H1115 H 0.33701 0.59497 0.39405 0.0
H1116 H 0.368 0.56492 0.38967 0.0
H1117 H 0.50448 0.54 0.43342 0.0
H1118 H 0.48461 0.5534 0.39695 0.0
H1119 H 0.41954 0.51963 0.4231 0.0
H1120 H 0.43929 0.5062 0.45984 0.0
H1121 H 0.41381 0.56633 0.40353 0.0
H1122 H 0.44959 0.49264 0.38191 0.0
H1123 H 0.48214 0.46433 0.37816 0.0
H1124 H 0.51981 0.51854 0.33403 0.0
H1125 H 0.48763 0.54734 0.33779 0.0
C1126 C 0.37346 0.58516 0.29628 0.0
C1127 C 0.38797 0.59783 0.27933 0.0
C1128 C 0.38312 0.57448 0.31696 0.0
C1129 C 0.40743 0.57649 0.32123 0.0
C1130 C 0.42199 0.58871 0.30415 0.0
C1131 C 0.41239 0.59924 0.28342 0.0
C1132 C 0.41777 0.56608 0.34355 0.0
C1133 C 0.43642 0.54995 0.34228 0.0
C1134 C 0.40941 0.57193 0.36593 0.0
C1135 C 0.39075 0.58996 0.36858 0.0
C1136 C 0.39339 0.61397 0.3584 0.0
C1137 C 0.3757 0.63085 0.3609 0.0
C1138 C 0.35538 0.62399 0.37371 0.0
C1139 C 0.35274 0.60025 0.38409 0.0
C1140 C 0.37036 0.58329 0.38162 0.0
C1141 C 0.48596 0.53532 0.43143 0.0
C1142 C 0.47348 0.52195 0.4495 0.0
C1143 C 0.47465 0.54292 0.41052 0.0
C1144 C 0.45067 0.53727 0.40723 0.0
C1145 C 0.43809 0.52409 0.42529 0.0
C1146 C 0.44941 0.51638 0.44621 0.0
C1147 C 0.43873 0.54562 0.38508 0.0
C1148 C 0.4198 0.56136 0.38639 0.0
C1149 C 0.44696 0.53958 0.36274 0.0
C1150 C 0.46627 0.52222 0.36029 0.0
C1151 C 0.46489 0.4986 0.37154 0.0
C1152 C 0.48326 0.48245 0.36939 0.0
C1153 C 0.50305 0.48965 0.3559 0.0
C1154 C 0.50448 0.513 0.34448 0.0
C1155 C 0.48616 0.52923 0.3466 0.0
H1156 H 0.51726 0.47712 0.35427 0.0
H1157 H 0.34171 0.63708 0.37563 0.0
H1158 H 0.08311 0.4519 0.71715 0.0
H1159 H 0.07992 0.46167 0.75833 0.0
H1160 H 0.06596 0.3853 0.77845 0.0
H1161 H 0.06948 0.37525 0.73713 0.0
H1162 H 0.03648 0.41609 0.80068 0.0
H1163 H 0.11869 0.40842 0.78926 0.0
H1164 H 0.15705 0.4152 0.76947 0.0
H1165 H 0.15434 0.49236 0.77923 0.0
H1166 H 0.11578 0.4861 0.79877 0.0
H1167 H 0.05013 0.44631 0.92172 0.0
H1168 H 0.05554 0.42624 0.88479 0.0
H1169 H 0.0716 0.49649 0.84894 0.0
H1170 H 0.06594 0.51663 0.88546 0.0
H1171 H 0.10234 0.46179 0.83754 0.0
H1172 H 0.01776 0.46941 0.84455 0.0
H1173 H 0.97957 0.4624 0.86466 0.0
H1174 H 0.98728 0.38456 0.8637 0.0
H1175 H 0.02571 0.39112 0.84388 0.0
C1176 C 0.07952 0.43713 0.73032 0.0
C1177 C 0.07678 0.41277 0.72389 0.0
C1178 C 0.07766 0.44275 0.75384 0.0
C1179 C 0.07308 0.42414 0.77144 0.0
C1180 C 0.06959 0.39989 0.76509 0.0
C1181 C 0.07151 0.39422 0.7415 0.0
C1182 C 0.07206 0.43032 0.79642 0.0
C1183 C 0.05103 0.42565 0.80895 0.0
C1184 C 0.09102 0.44291 0.80709 0.0
C1185 C 0.11424 0.4468 0.79534 0.0
C1186 C 0.12618 0.42686 0.78702 0.0
C1187 C 0.14798 0.43061 0.77588 0.0
C1188 C 0.15811 0.45421 0.77306 0.0
C1189 C 0.14647 0.4741 0.78142 0.0
C1190 C 0.12465 0.47045 0.79256 0.0
C1191 C 0.05468 0.45749 0.90595 0.0
C1192 C 0.05758 0.48311 0.90659 0.0
C1193 C 0.05784 0.44598 0.8849 0.0
C1194 C 0.06386 0.45992 0.86415 0.0
C1195 C 0.06709 0.48539 0.86481 0.0
C1196 C 0.06392 0.49688 0.88577 0.0
C1197 C 0.06651 0.44831 0.84148 0.0
C1198 C 0.08792 0.45189 0.82942 0.0
C1199 C 0.04793 0.43468 0.83131 0.0
C1200 C 0.02472 0.43075 0.84299 0.0
C1201 C 0.01139 0.4508 0.84879 0.0
C1202 C 0.98969 0.44691 0.86011 0.0
C1203 C 0.98104 0.42305 0.86553 0.0
C1204 C 0.99403 0.40303 0.85955 0.0
C1205 C 0.01577 0.40682 0.84826 0.0
H1206 H 0.96424 0.42008 0.8743 0.0
H1207 H 0.17499 0.45707 0.76443 0.0
H1208 H 0.74824 0.92526 0.90379 0.0
H1209 H 0.71308 0.94182 0.92124 0.0
H1210 H 0.67234 0.87804 0.90259 0.0
H1211 H 0.70753 0.86121 0.88542 0.0
H1212 H 0.65012 0.92499 0.89151 0.0
H1213 H 0.68752 0.87998 0.95658 0.0
H1214 H 0.72081 0.86955 0.98288 0.0
H1215 H 0.72538 0.94369 1.004 0.0
H1216 H 0.69233 0.95465 0.97754 0.0
H1217 H 0.54675 0.94548 0.95621 0.0
H1218 H 0.58117 0.92795 0.93866 0.0
H1219 H 0.62669 0.97631 0.97696 0.0
H1220 H 0.59231 0.9925 0.99579 0.0
H1221 H 0.64699 0.93692 0.9773 0.0
H1222 H 0.6117 0.9838 0.91348 0.0
H1223 H 0.57966 0.99705 0.8867 0.0
H1224 H 0.57289 0.92451 0.86181 0.0
H1225 H 0.60468 0.91073 0.88869 0.0
C1226 C 0.73177 0.9148 0.90331 0.0
C1227 C 0.73075 0.89186 0.89324 0.0
C1228 C 0.71169 0.92426 0.91336 0.0
C1229 C 0.69001 0.91118 0.91329 0.0
C1230 C 0.68882 0.8885 0.90287 0.0
C1231 C 0.709 0.87882 0.89319 0.0
C1232 C 0.66871 0.92097 0.92448 0.0
C1233 C 0.64929 0.92736 0.91031 0.0
C1234 C 0.66784 0.9248 0.94888 0.0
C1235 C 0.68761 0.91819 0.96489 0.0
C1236 C 0.69576 0.89411 0.96667 0.0
C1237 C 0.71456 0.88809 0.98164 0.0
C1238 C 0.72524 0.90596 0.99506 0.0
C1239 C 0.71711 0.92987 0.99358 0.0
C1240 C 0.69833 0.93599 0.97861 0.0
C1241 C 0.56412 0.9523 0.96092 0.0
C1242 C 0.56676 0.97041 0.97739 0.0
C1243 C 0.58389 0.94242 0.95067 0.0
C1244 C 0.60683 0.95109 0.95587 0.0
C1245 C 0.60938 0.96914 0.97248 0.0
C1246 C 0.58965 0.9785 0.98325 0.0
C1247 C 0.62812 0.94123 0.94436 0.0
C1248 C 0.64765 0.93474 0.95846 0.0
C1249 C 0.62927 0.93785 0.91976 0.0
C1250 C 0.61043 0.94618 0.90327 0.0
C1251 C 0.6033 0.97064 0.90238 0.0
C1252 C 0.58518 0.97825 0.88718 0.0
C1253 C 0.5742 0.96161 0.87261 0.0
C1254 C 0.58139 0.93736 0.87313 0.0
C1255 C 0.59947 0.92965 0.88833 0.0
H1256 H 0.56016 0.96753 0.86087 0.0
H1257 H 0.73979 0.90126 0.00664 0.0
H1258 H 0.7273 0.12309 0.46818 0.0
H1259 H 0.76723 0.11186 0.47917 0.0
H1260 H 0.74983 0.03617 0.46743 0.0
H1261 H 0.70946 0.04702 0.45769 0.0
H1262 H 0.77925 0.03885 0.50365 0.0
H1263 H 0.77539 0.07509 0.42417 0.0
H1264 H 0.76649 0.1073 0.39345 0.0
H1265 H 0.81316 0.15793 0.42685 0.0
H1266 H 0.82209 0.12609 0.45797 0.0
H1267 H 0.88669 0.99354 0.46267 0.0
H1268 H 0.8467 0.00862 0.46571 0.0
H1269 H 0.87459 0.07555 0.493 0.0
H1270 H 0.91466 0.06031 0.49031 0.0
H1271 H 0.8414 0.08069 0.45353 0.0
H1272 H 0.8496 0.04073 0.52974 0.0
H1273 H 0.85966 0.00666 0.55787 0.0
H1274 H 0.80516 0.96125 0.52898 0.0
H1275 H 0.79525 0.99485 0.50006 0.0
C1276 C 0.73172 0.10394 0.46858 0.0
C1277 C 0.71521 0.08598 0.46175 0.0
C1278 C 0.75466 0.09759 0.47463 0.0
C1279 C 0.76165 0.07327 0.47359 0.0
C1280 C 0.74487 0.0551 0.46818 0.0
C1281 C 0.72186 0.06137 0.46236 0.0
C1282 C 0.78674 0.06699 0.4763 0.0
C1283 C 0.79282 0.04793 0.49264 0.0
C1284 C 0.80453 0.07916 0.46222 0.0
C1285 C 0.79918 0.09832 0.44354 0.0
C1286 C 0.7836 0.09315 0.42506 0.0
C1287 C 0.77858 0.11133 0.40756 0.0
C1288 C 0.78919 0.13467 0.40824 0.0
C1289 C 0.80491 0.13986 0.42638 0.0
C1290 C 0.80996 0.12176 0.44395 0.0
C1291 C 0.88423 0.01144 0.46931 0.0
C1292 C 0.90364 0.02582 0.47623 0.0
C1293 C 0.86147 0.01995 0.47118 0.0
C1294 C 0.85781 0.0431 0.47969 0.0
C1295 C 0.87715 0.05759 0.4865 0.0
C1296 C 0.89992 0.04887 0.48505 0.0
C1297 C 0.83375 0.05238 0.48058 0.0
C1298 C 0.82787 0.07194 0.46483 0.0
C1299 C 0.81616 0.04047 0.49499 0.0
C1300 C 0.82182 0.02028 0.51256 0.0
C1301 C 0.83989 0.02341 0.5292 0.0
C1302 C 0.84555 0.00419 0.54533 0.0
C1303 C 0.83304 0.9818 0.54527 0.0
C1304 C 0.81484 0.97861 0.52902 0.0
C1305 C 0.80922 0.99773 0.51272 0.0
H1306 H 0.83743 0.96695 0.55781 0.0
H1307 H 0.78529 0.14871 0.39467 0.0
H1308 H 0.24563 0.61154 0.08834 0.0
H1309 H 0.20886 0.59659 0.0711 0.0
H1310 H 0.17715 0.58976 0.14014 0.0
H1311 H 0.21395 0.60467 0.15753 0.0
H1312 H 0.16607 0.55053 0.11561 0.0
H1313 H 0.16476 0.63781 0.10135 0.0
H1314 H 0.18037 0.67865 0.08734 0.0
H1315 H 0.18356 0.65513 0.01665 0.0
H1316 H 0.16828 0.61402 0.03031 0.0
H1317 H 0.04863 0.53583 0.07312 0.0
H1318 H 0.08349 0.55292 0.09248 0.0
H1319 H 0.12021 0.55843 0.02598 0.0
H1320 H 0.08552 0.54157 0.0065 0.0
H1321 H 0.12756 0.59923 0.05063 0.0
H1322 H 0.12969 0.51167 0.06513 0.0
H1323 H 0.11371 0.47096 0.07912 0.0
H1324 H 0.10893 0.49506 0.14945 0.0
H1325 H 0.12439 0.53611 0.13581 0.0
C1326 C 0.23078 0.60701 0.09984 0.0
C1327 C 0.23266 0.60944 0.12429 0.0
C1328 C 0.20978 0.59844 0.08997 0.0
C1329 C 0.19014 0.59238 0.10429 0.0
C1330 C 0.19208 0.59434 0.12875 0.0
C1331 C 0.21313 0.60281 0.13866 0.0
C1332 C 0.16756 0.58409 0.0937 0.0
C1333 C 0.15746 0.56135 0.10165 0.0
C1334 C 0.15653 0.598 0.07519 0.0
C1335 C 0.16556 0.62277 0.0669 0.0
C1336 C 0.16895 0.64129 0.08285 0.0
C1337 C 0.17772 0.6645 0.07496 0.0
C1338 C 0.18301 0.66946 0.05113 0.0
C1339 C 0.17948 0.65125 0.03511 0.0
C1340 C 0.17074 0.628 0.04291 0.0
C1341 C 0.06407 0.54087 0.06259 0.0
C1342 C 0.06435 0.53722 0.03829 0.0
C1343 C 0.08399 0.55053 0.0737 0.0
C1344 C 0.10451 0.55668 0.0607 0.0
C1345 C 0.10457 0.55377 0.03634 0.0
C1346 C 0.08474 0.54405 0.02525 0.0
C1347 C 0.12618 0.56564 0.07246 0.0
C1348 C 0.13611 0.58849 0.0647 0.0
C1349 C 0.13703 0.55183 0.09113 0.0
C1350 C 0.12796 0.52706 0.09939 0.0
C1351 C 0.12505 0.50836 0.08354 0.0
C1352 C 0.11611 0.48521 0.09141 0.0
C1353 C 0.11029 0.48044 0.11514 0.0
C1354 C 0.11342 0.4988 0.13107 0.0
C1355 C 0.12226 0.52201 0.12328 0.0
H1356 H 0.10338 0.4625 0.12119 0.0
H1357 H 0.1898 0.68744 0.04506 0.0
H1358 H 0.21398 0.38764 0.54544 0.0
H1359 H 0.25516 0.39743 0.53609 0.0
H1360 H 0.24456 0.47342 0.54837 0.0
H1361 H 0.203 0.46389 0.55717 0.0
H1362 H 0.27528 0.46705 0.51046 0.0
H1363 H 0.26529 0.43896 0.59166 0.0
H1364 H 0.25118 0.41072 0.62439 0.0
H1365 H 0.2911 0.35289 0.59785 0.0
H1366 H 0.30517 0.3807 0.56474 0.0
H1367 H 0.39712 0.49605 0.53412 0.0
H1368 H 0.35409 0.49153 0.5348 0.0
H1369 H 0.35936 0.41335 0.53028 0.0
H1370 H 0.40217 0.41778 0.52983 0.0
H1371 H 0.33072 0.42313 0.5645 0.0
H1372 H 0.34111 0.45134 0.4832 0.0
H1373 H 0.3553 0.4797 0.4506 0.0
H1374 H 0.31523 0.53739 0.47718 0.0
H1375 H 0.30106 0.50946 0.51015 0.0
C1376 C 0.22018 0.40656 0.54553 0.0
C1377 C 0.20526 0.42497 0.55224 0.0
C1378 C 0.24378 0.41209 0.54034 0.0
C1379 C 0.25293 0.43607 0.54191 0.0
C1380 C 0.23782 0.45478 0.54717 0.0
C1381 C 0.21416 0.44927 0.55238 0.0
C1382 C 0.27862 0.44101 0.54014 0.0
C1383 C 0.28746 0.45769 0.52239 0.0
C1384 C 0.29441 0.42858 0.55562 0.0
C1385 C 0.2861 0.41185 0.5756 0.0
C1386 C 0.27091 0.42017 0.5927 0.0
C1387 C 0.26295 0.40425 0.61133 0.0
C1388 C 0.2702 0.38001 0.61317 0.0
C1389 C 0.28548 0.37166 0.59639 0.0
C1390 C 0.29346 0.3875 0.5777 0.0
C1391 C 0.38904 0.47798 0.53299 0.0
C1392 C 0.40298 0.45724 0.53215 0.0
C1393 C 0.36448 0.47541 0.53333 0.0
C1394 C 0.35351 0.4521 0.53249 0.0
C1395 C 0.36745 0.43149 0.53108 0.0
C1396 C 0.39191 0.43402 0.53094 0.0
C1397 C 0.3276 0.44878 0.53443 0.0
C1398 C 0.31865 0.43249 0.55245 0.0
C1399 C 0.31182 0.4616 0.51918 0.0
C1400 C 0.32021 0.47837 0.49929 0.0
C1401 C 0.33547 0.47013 0.4822 0.0
C1402 C 0.34348 0.48612 0.46364 0.0
C1403 C 0.33622 0.51035 0.46185 0.0
C1404 C 0.32087 0.51863 0.4786 0.0
C1405 C 0.31282 0.50272 0.49722 0.0
H1406 H 0.34245 0.5227 0.44746 0.0
H1407 H 0.26401 0.36771 0.62761 0.0
H1408 H 0.85753 0.72056 0.91798 0.0
H1409 H 0.87709 0.68519 0.93666 0.0
H1410 H 0.94119 0.70675 0.89979 0.0
H1411 H 0.92211 0.74257 0.8816 0.0
H1412 H 0.93104 0.65733 0.89778 0.0
H1413 H 0.93602 0.71628 0.95734 0.0
H1414 H 0.92042 0.74561 0.98425 0.0
H1415 H 0.87741 0.68819 0.01835 0.0
H1416 H 0.89253 0.65857 0.9914 0.0
H1417 H 0.00906 0.57725 0.95854 0.0
H1418 H 0.98978 0.6137 0.94183 0.0
H1419 H 0.93012 0.59737 0.98741 0.0
H1420 H 0.94998 0.56157 1.00506 0.0
H1421 H 0.937 0.64389 0.98469 0.0
H1422 H 0.93335 0.58407 0.92625 0.0
H1423 H 0.94991 0.55467 0.89997 0.0
H1424 H 0.98913 0.61309 0.8629 0.0
H1425 H 0.97363 0.64273 0.88954 0.0
C1426 C 0.87588 0.71808 0.91402 0.0
C1427 C 0.8881 0.73469 0.89815 0.0
C1428 C 0.88704 0.69767 0.92468 0.0
C1429 C 0.9107 0.69325 0.91976 0.0
C1430 C 0.9229 0.70962 0.90382 0.0
C1431 C 0.91184 0.73012 0.8933 0.0
C1432 C 0.92277 0.67161 0.93114 0.0
C1433 C 0.93257 0.65451 0.91678 0.0
C1434 C 0.9243 0.66751 0.95596 0.0
C1435 C 0.91522 0.68527 0.97219 0.0
C1436 C 0.92309 0.70996 0.97044 0.0
C1437 C 0.91436 0.72662 0.98573 0.0
C1438 C 0.89788 0.71878 1.00295 0.0
C1439 C 0.89014 0.69424 1.00497 0.0
C1440 C 0.8988 0.67751 0.98971 0.0
C1441 C 0.99189 0.5815 0.96512 0.0
C1442 C 0.98103 0.56639 0.98308 0.0
C1443 C 0.98075 0.60232 0.9554 0.0
C1444 C 0.95809 0.60815 0.96282 0.0
C1445 C 0.94749 0.59337 0.9812 0.0
C1446 C 0.95887 0.57283 0.99129 0.0
C1447 C 0.94542 0.62946 0.95135 0.0
C1448 C 0.93543 0.64653 0.96568 0.0
C1449 C 0.94358 0.63342 0.92646 0.0
C1450 C 0.95246 0.61563 0.91006 0.0
C1451 C 0.94562 0.59065 0.9126 0.0
C1452 C 0.95482 0.57393 0.89764 0.0
C1453 C 0.97046 0.58202 0.87974 0.0
C1454 C 0.977 0.60685 0.87678 0.0
C1455 C 0.96807 0.62361 0.89185 0.0
H1456 H 0.97753 0.56904 0.86816 0.0
H1457 H 0.89115 0.73171 0.01478 0.0
H1458 H 0.38722 0.75804 0.0868 0.0
H1459 H 0.40735 0.79479 0.06941 0.0
H1460 H 0.43236 0.81288 0.13823 0.0
H1461 H 0.41133 0.77678 0.15592 0.0
H1462 H 0.41788 0.85262 0.11473 0.0
H1463 H 0.46868 0.78771 0.09806 0.0
H1464 H 0.47934 0.74802 0.08326 0.0
H1465 H 0.45864 0.77265 0.01326 0.0
H1466 H 0.44754 0.81239 0.0277 0.0
H1467 H 0.50298 0.94253 0.0715 0.0
H1468 H 0.48573 0.9048 0.09046 0.0
H1469 H 0.45279 0.88742 0.02474 0.0
H1470 H 0.46995 0.92497 1.00565 0.0
H1471 H 0.47296 0.84724 0.04781 0.0
H1472 H 0.42173 0.91243 0.06566 0.0
H1473 H 0.41278 0.95234 0.08107 0.0
H1474 H 0.43587 0.92692 0.15004 0.0
H1475 H 0.44548 0.88702 0.13493 0.0
C1476 C 0.39676 0.76996 0.0983 0.0
C1477 C 0.3977 0.76436 0.12277 0.0
C1478 C 0.40851 0.79084 0.08828 0.0
C1479 C 0.4217 0.8064 0.10246 0.0
C1480 C 0.42242 0.80107 0.12692 0.0
C1481 C 0.41056 0.78027 0.13697 0.0
C1482 C 0.43457 0.82835 0.0918 0.0
C1483 C 0.43019 0.85138 0.10034 0.0
C1484 C 0.45039 0.82682 0.07278 0.0
C1485 C 0.45707 0.80295 0.06402 0.0
C1486 C 0.46623 0.7846 0.07955 0.0
C1487 C 0.47238 0.7621 0.07122 0.0
C1488 C 0.46962 0.75779 0.04735 0.0
C1489 C 0.46075 0.776 0.03175 0.0
C1490 C 0.45454 0.79852 0.03999 0.0
C1491 C 0.49221 0.93058 0.06105 0.0
C1492 C 0.48774 0.93679 0.0371 0.0
C1493 C 0.48231 0.90909 0.07192 0.0
C1494 C 0.46782 0.89346 0.05903 0.0
C1495 C 0.46391 0.89925 0.03498 0.0
C1496 C 0.47367 0.92077 0.02414 0.0
C1497 C 0.45613 0.87139 0.07067 0.0
C1498 C 0.46073 0.84839 0.06229 0.0
C1499 C 0.44066 0.87293 0.08994 0.0
C1500 C 0.43456 0.89681 0.0991 0.0
C1501 C 0.42508 0.91541 0.08407 0.0
C1502 C 0.41986 0.93802 0.09275 0.0
C1503 C 0.42377 0.94217 0.1165 0.0
C1504 C 0.43287 0.92369 0.13163 0.0
C1505 C 0.43822 0.90108 0.12302 0.0
H1506 H 0.4197 0.95969 0.12318 0.0
H1507 H 0.4744 0.74037 0.04093 0.0
H1508 H 0.02157 0.26613 0.59931 0.0
H1509 H 0.00737 0.22529 0.59026 0.0
H1510 H 0.03673 0.23587 0.52035 0.0
H1511 H 0.04936 0.27751 0.52857 0.0
H1512 H 0.99867 0.209 0.51803 0.0
H1513 H 0.06749 0.20762 0.56766 0.0
H1514 H 0.09116 0.21652 0.60279 0.0
H1515 H 0.04038 0.17683 0.64722 0.0
H1516 H 0.01625 0.16796 0.61233 0.0
H1517 H 0.04505 0.07686 0.53202 0.0
H1518 H 0.04615 0.11979 0.54105 0.0
H1519 H 0.97142 0.12343 0.52805 0.0
H1520 H 0.9704 0.08038 0.51796 0.0
H1521 H 0.02814 0.14324 0.57343 0.0
H1522 H 0.95832 0.18195 0.50854 0.0
H1523 H 0.94051 0.17295 0.47019 0.0
H1524 H 1.00338 0.13762 0.45062 0.0
H1525 H 0.02165 0.14668 0.48872 0.0
C1526 C 0.0244 0.26017 0.58173 0.0
C1527 C 0.037 0.27511 0.56479 0.0
C1528 C 0.01649 0.23661 0.57669 0.0
C1529 C 0.02153 0.22725 0.55484 0.0
C1530 C 0.0328 0.24259 0.53742 0.0
C1531 C 0.04033 0.26632 0.54228 0.0
C1532 C 0.01692 0.20094 0.55077 0.0
C1533 C 1.00496 0.1946 0.53022 0.0
C1534 C 0.02547 0.18212 0.56645 0.0
C1535 C 0.03994 0.18739 0.58744 0.0
C1536 C 0.0613 0.20094 0.58494 0.0
C1537 C 0.0748 0.20596 0.6048 0.0
C1538 C 0.06724 0.19731 0.62723 0.0
C1539 C 0.04619 0.18356 0.62984 0.0
C1540 C 0.03259 0.17853 0.61003 0.0
C1541 C 0.02881 0.08675 0.53107 0.0
C1542 C 0.00764 0.07527 0.52421 0.0
C1543 C 0.02945 0.11132 0.53633 0.0
C1544 C 0.00891 0.12495 0.53512 0.0
C1545 C 0.98758 0.11342 0.52872 0.0
C1546 C 0.98699 0.08882 0.52306 0.0
C1547 C 0.01026 0.15122 0.54046 0.0
C1548 C 0.02152 0.15758 0.56137 0.0
C1549 C 1.0019 0.17002 0.52464 0.0
C1550 C 0.99121 0.16473 0.50158 0.0
C1551 C 0.96835 0.17232 0.49602 0.0
C1552 C 0.95818 0.1672 0.47433 0.0
C1553 C 0.97077 0.15463 0.45802 0.0
C1554 C 0.99361 0.14726 0.46331 0.0
C1555 C 1.00387 0.15236 0.48495 0.0
H1556 H 0.96285 0.15067 0.44126 0.0
H1557 H 0.07772 0.2012 0.64259 0.0
H1558 H 0.56196 0.24333 0.4599 0.0
H1559 H 0.55215 0.28545 0.46764 0.0
H1560 H 0.58879 0.31207 0.40445 0.0
H1561 H 0.59848 0.26985 0.39647 0.0
H1562 H 0.59914 0.33828 0.44761 0.0
H1563 H 0.53441 0.31132 0.39972 0.0
H1564 H 0.50252 0.28261 0.38867 0.0
H1565 H 0.46894 0.28975 0.45539 0.0
H1566 H 0.50084 0.31823 0.46699 0.0
H1567 H 0.55524 0.4587 0.45751 0.0
H1568 H 0.56729 0.42015 0.44185 0.0
H1569 H 0.51884 0.37991 0.48917 0.0
H1570 H 0.50614 0.41817 0.50406 0.0
H1571 H 0.51562 0.36208 0.44856 0.0
H1572 H 0.58029 0.38446 0.49896 0.0
H1573 H 0.61231 0.41144 0.51291 0.0
H1574 H 0.6461 0.41132 0.44544 0.0
H1575 H 0.61408 0.38457 0.431 0.0
C1576 C 0.56797 0.25819 0.44772 0.0
C1577 C 0.58089 0.25343 0.42757 0.0
C1578 C 0.56232 0.28215 0.45211 0.0
C1579 C 0.56972 0.30173 0.43654 0.0
C1580 C 0.58296 0.29712 0.41661 0.0
C1581 C 0.58832 0.27308 0.41202 0.0
C1582 C 0.56323 0.32696 0.44112 0.0
C1583 C 0.58094 0.34374 0.44744 0.0
C1584 C 0.53945 0.33369 0.44132 0.0
C1585 C 0.52012 0.31676 0.43429 0.0
C1586 C 0.52032 0.30662 0.41211 0.0
C1587 C 0.50223 0.29041 0.40574 0.0
C1588 C 0.48374 0.28432 0.42134 0.0
C1589 C 0.48328 0.29447 0.44333 0.0
C1590 C 0.50135 0.31067 0.4498 0.0
C1591 C 0.5472 0.44159 0.46451 0.0
C1592 C 0.52975 0.44142 0.48197 0.0
C1593 C 0.55415 0.41959 0.45564 0.0
C1594 C 0.54413 0.39708 0.46449 0.0
C1595 C 0.52674 0.39701 0.48196 0.0
C1596 C 0.51954 0.41892 0.49051 0.0
C1597 C 0.55147 0.37345 0.45572 0.0
C1598 C 0.53389 0.35688 0.44852 0.0
C1599 C 0.57535 0.3668 0.45513 0.0
C1600 C 0.59466 0.38276 0.46382 0.0
C1601 C 0.59446 0.39034 0.48705 0.0
C1602 C 0.61262 0.40556 0.49505 0.0
C1603 C 0.63119 0.41316 0.48004 0.0
C1604 C 0.63167 0.40546 0.45702 0.0
C1605 C 0.61354 0.39026 0.44893 0.0
H1606 H 0.64523 0.42495 0.48626 0.0
H1607 H 0.46975 0.27177 0.41637 0.0
loop_
_geom_bond_atom_site_label_1
_geom_bond_atom_site_label_2
_geom_bond_distance
_geom_bond_site_symmetry_2
_ccdc_geom_bond_type
C0 C1 1.384 . S
C0 H13 0.947 . S
C0 C35 1.382 . S
C1 C0 1.384 . S
C1 C2 1.378 . S
C2 C1 1.378 . S
C2 C3 1.378 . S
C2 H14 0.952 . S
C3 C2 1.378 . S
C3 H15 0.950 . S
C3 C34 1.383 . S
H4 C23 0.947 . S
H5 C24 0.946 . S
H6 C26 0.953 . S
H7 C27 0.945 . S
H8 C29 0.952 . S
H9 C30 0.949 . S
H10 C32 0.950 . S
H11 C33 0.948 . S
H12 C35 0.951 . S
H13 C0 0.947 . S
H14 C2 0.952 . S
H15 C3 0.950 . S
N16 C19 1.382 . S
N16 C21 1.363 . S
N17 C19 1.371 . S
N17 C20 1.372 . S
N18 C20 1.361 . S
N18 C21 1.377 . S
C19 N16 1.382 . S
C19 N17 1.371 . S
C19 C22 1.480 . S
C20 N17 1.372 . S
C20 N18 1.361 . S
C20 C28 1.457 . S
C21 N16 1.363 . S
C21 N18 1.377 . S
C21 C34 1.479 . S
C22 C19 1.480 . S
C22 C23 1.383 . S
C22 C27 1.385 . S
C23 H4 0.947 . S
C23 C22 1.383 . S
C23 C24 1.388 . S
C24 H5 0.946 . S
C24 C23 1.388 . S
C24 C25 1.384 . S
C25 C24 1.384 . S
C25 C26 1.377 . S
C26 H6 0.953 . S
C26 C25 1.377 . S
C26 C27 1.369 . S
C27 H7 0.945 . S
C27 C22 1.385 . S
C27 C26 1.369 . S
C28 C20 1.457 . S
C28 C29 1.372 . S
C28 C33 1.364 . S
C29 H8 0.952 . S
C29 C28 1.372 . S
C29 C30 1.389 . S
C30 H9 0.949 . S
C30 C29 1.389 . S
C30 C31 1.387 . S
C31 C30 1.387 . S
C31 C32 1.372 . S
C32 H10 0.950 . S
C32 C31 1.372 . S
C32 C33 1.379 . S
C33 H11 0.948 . S
C33 C28 1.364 . S
C33 C32 1.379 . S
C34 C3 1.383 . S
C34 C21 1.479 . S
C34 C35 1.398 . S
C35 C0 1.382 . S
C35 H12 0.951 . S
C35 C34 1.398 . S
C36 C37 1.384 . S
C36 H49 0.947 . S
C36 C71 1.382 . S
C37 C36 1.384 . S
C37 C38 1.378 . S
C38 C37 1.378 . S
C38 C39 1.378 . S
C38 H50 0.952 . S
C39 C38 1.378 . S
C39 H51 0.950 . S
C39 C70 1.383 . S
H40 C59 0.947 . S
H41 C60 0.946 . S
H42 C62 0.953 . S
H43 C63 0.945 . S
H44 C65 0.952 . S
H45 C66 0.949 . S
H46 C68 0.950 . S
H47 C69 0.948 . S
H48 C71 0.951 . S
H49 C36 0.947 . S
H50 C38 0.952 . S
H51 C39 0.950 . S
N52 C55 1.382 . S
N52 C57 1.363 . S
N53 C55 1.371 . S
N53 C56 1.372 . S
N54 C56 1.361 . S
N54 C57 1.377 . S
C55 N52 1.382 . S
C55 N53 1.371 . S
C55 C58 1.480 . S
C56 N53 1.372 . S
C56 N54 1.361 . S
C56 C64 1.457 . S
C57 N52 1.363 . S
C57 N54 1.377 . S
C57 C70 1.479 . S
C58 C55 1.480 . S
C58 C59 1.383 . S
C58 C63 1.385 . S
C59 H40 0.947 . S
C59 C58 1.383 . S
C59 C60 1.388 . S
C60 H41 0.946 . S
C60 C59 1.388 . S
C60 C61 1.384 . S
C61 C60 1.384 . S
C61 C62 1.377 . S
C62 H42 0.953 . S
C62 C61 1.377 . S
C62 C63 1.369 . S
C63 H43 0.945 . S
C63 C58 1.385 . S
C63 C62 1.369 . S
C64 C56 1.457 . S
C64 C65 1.372 . S
C64 C69 1.364 . S
C65 H44 0.952 . S
C65 C64 1.372 . S
C65 C66 1.389 . S
C66 H45 0.949 . S
C66 C65 1.389 . S
C66 C67 1.387 . S
C67 C66 1.387 . S
C67 C68 1.372 . S
C68 H46 0.950 . S
C68 C67 1.372 . S
C68 C69 1.379 . S
C69 H47 0.948 . S
C69 C64 1.364 . S
C69 C68 1.379 . S
C70 C39 1.383 . S
C70 C57 1.479 . S
C70 C71 1.398 . S
C71 C36 1.382 . S
C71 H48 0.951 . S
C71 C70 1.398 . S
C72 C73 1.384 . S
C72 H85 0.947 . S
C72 C107 1.382 . S
C73 C72 1.384 . S
C73 C74 1.378 . S
C74 C73 1.378 . S
C74 C75 1.378 . S
C74 H86 0.952 . S
C75 C74 1.378 . S
C75 H87 0.950 . S
C75 C106 1.383 . S
H76 C95 0.947 . S
H77 C96 0.946 . S
H78 C98 0.953 . S
H79 C99 0.945 . S
H80 C101 0.952 . S
H81 C102 0.949 . S
H82 C104 0.950 . S
H83 C105 0.948 . S
H84 C107 0.951 . S
H85 C72 0.947 . S
H86 C74 0.952 . S
H87 C75 0.950 . S
N88 C91 1.382 . S
N88 C93 1.363 . S
N89 C91 1.371 . S
N89 C92 1.372 . S
N90 C92 1.361 . S
N90 C93 1.377 . S
C91 N88 1.382 . S
C91 N89 1.371 . S
C91 C94 1.480 . S
C92 N89 1.372 . S
C92 N90 1.361 . S
C92 C100 1.457 . S
C93 N88 1.363 . S
C93 N90 1.377 . S
C93 C106 1.479 . S
C94 C91 1.480 . S
C94 C95 1.383 . S
C94 C99 1.385 . S
C95 H76 0.947 . S
C95 C94 1.383 . S
C95 C96 1.388 . S
C96 H77 0.946 . S
C96 C95 1.388 . S
C96 C97 1.384 . S
C97 C96 1.384 . S
C97 C98 1.377 . S
C98 H78 0.953 . S
C98 C97 1.377 . S
C98 C99 1.369 . S
C99 H79 0.945 . S
C99 C94 1.385 . S
C99 C98 1.369 . S
C100 C92 1.457 . S
C100 C101 1.372 . S
C100 C105 1.364 . S
C101 H80 0.952 . S
C101 C100 1.372 . S
C101 C102 1.389 . S
C102 H81 0.949 . S
C102 C101 1.389 . S
C102 C103 1.387 . S
C103 C102 1.387 . S
C103 C104 1.372 . S
C104 H82 0.950 . S
C104 C103 1.372 . S
C104 C105 1.379 . S
C105 H83 0.948 . S
C105 C100 1.364 . S
C105 C104 1.379 . S
C106 C75 1.383 . S
C106 C93 1.479 . S
C106 C107 1.398 . S
C107 C72 1.382 . S
C107 H84 0.951 . S
C107 C106 1.398 . S
C108 C109 1.384 . S
C108 H121 0.947 . S
C108 C143 1.382 . S
C109 C108 1.384 . S
C109 C110 1.378 . S
C110 C109 1.378 . S
C110 C111 1.378 . S
C110 H122 0.952 . S
C111 C110 1.378 . S
C111 H123 0.950 . S
C111 C142 1.383 . S
H112 C131 0.947 . S
H113 C132 0.946 . S
H114 C134 0.953 . S
H115 C135 0.945 . S
H116 C137 0.952 . S
H117 C138 0.949 . S
H118 C140 0.950 . S
H119 C141 0.948 . S
H120 C143 0.951 . S
H121 C108 0.947 . S
H122 C110 0.952 . S
H123 C111 0.950 . S
N124 C127 1.382 . S
N124 C129 1.363 . S
N125 C127 1.371 . S
N125 C128 1.372 . S
N126 C128 1.361 . S
N126 C129 1.377 . S
C127 N124 1.382 . S
C127 N125 1.371 . S
C127 C130 1.480 . S
C128 N125 1.372 . S
C128 N126 1.361 . S
C128 C136 1.457 . S
C129 N124 1.363 . S
C129 N126 1.377 . S
C129 C142 1.479 . S
C130 C127 1.480 . S
C130 C131 1.383 . S
C130 C135 1.385 . S
C131 H112 0.947 . S
C131 C130 1.383 . S
C131 C132 1.388 . S
C132 H113 0.946 . S
C132 C131 1.388 . S
C132 C133 1.384 . S
C133 C132 1.384 . S
C133 C134 1.377 . S
C134 H114 0.953 . S
C134 C133 1.377 . S
C134 C135 1.369 . S
C135 H115 0.945 . S
C135 C130 1.385 . S
C135 C134 1.369 . S
C136 C128 1.457 . S
C136 C137 1.372 . S
C136 C141 1.364 . S
C137 H116 0.952 . S
C137 C136 1.372 . S
C137 C138 1.389 . S
C138 H117 0.949 . S
C138 C137 1.389 . S
C138 C139 1.387 . S
C139 C138 1.387 . S
C139 C140 1.372 . S
C140 H118 0.950 . S
C140 C139 1.372 . S
C140 C141 1.379 . S
C141 H119 0.948 . S
C141 C136 1.364 . S
C141 C140 1.379 . S
C142 C111 1.383 . S
C142 C129 1.479 . S
C142 C143 1.398 . S
C143 C108 1.382 . S
C143 H120 0.951 . S
C143 C142 1.398 . S
C144 C145 1.384 . S
C144 H157 0.947 . S
C144 C179 1.382 . S
C145 C144 1.384 . S
C145 C146 1.378 . S
C146 C145 1.378 . S
C146 C147 1.378 . S
C146 H158 0.952 . S
C147 C146 1.378 . S
C147 H159 0.950 . S
C147 C178 1.383 . S
H148 C167 0.947 . S
H149 C168 0.946 . S
H150 C170 0.953 . S
H151 C171 0.945 . S
H152 C173 0.952 . S
H153 C174 0.949 . S
H154 C176 0.950 . S
H155 C177 0.948 . S
H156 C179 0.951 . S
H157 C144 0.947 . S
H158 C146 0.952 . S
H159 C147 0.950 . S
N160 C163 1.382 . S
N160 C165 1.363 . S
N161 C163 1.371 . S
N161 C164 1.372 . S
N162 C164 1.361 . S
N162 C165 1.377 . S
C163 N160 1.382 . S
C163 N161 1.371 . S
C163 C166 1.480 . S
C164 N161 1.372 . S
C164 N162 1.361 . S
C164 C172 1.457 . S
C165 N160 1.363 . S
C165 N162 1.377 . S
C165 C178 1.479 . S
C166 C163 1.480 . S
C166 C167 1.383 . S
C166 C171 1.385 . S
C167 H148 0.947 . S
C167 C166 1.383 . S
C167 C168 1.388 . S
C168 H149 0.946 . S
C168 C167 1.388 . S
C168 C169 1.384 . S
C169 C168 1.384 . S
C169 C170 1.377 . S
C170 H150 0.953 . S
C170 C169 1.377 . S
C170 C171 1.369 . S
C171 H151 0.945 . S
C171 C166 1.385 . S
C171 C170 1.369 . S
C172 C164 1.457 . S
C172 C173 1.372 . S
C172 C177 1.364 . S
C173 H152 0.952 . S
C173 C172 1.372 . S
C173 C174 1.389 . S
C174 H153 0.949 . S
C174 C173 1.389 . S
C174 C175 1.387 . S
C175 C174 1.387 . S
C175 C176 1.372 . S
C176 H154 0.950 . S
C176 C175 1.372 . S
C176 C177 1.379 . S
C177 H155 0.948 . S
C177 C172 1.364 . S
C177 C176 1.379 . S
C178 C147 1.383 . S
C178 C165 1.479 . S
C178 C179 1.398 . S
C179 C144 1.382 . S
C179 H156 0.951 . S
C179 C178 1.398 . S
C180 C181 1.384 . S
C180 H193 0.947 . S
C180 C215 1.382 . S
C181 C180 1.384 . S
C181 C182 1.378 . S
C182 C181 1.378 . S
C182 C183 1.378 . S
C182 H194 0.952 . S
C183 C182 1.378 . S
C183 H195 0.950 . S
C183 C214 1.383 . S
H184 C203 0.947 . S
H185 C204 0.946 . S
H186 C206 0.953 . S
H187 C207 0.945 . S
H188 C209 0.952 . S
H189 C210 0.949 . S
H190 C212 0.950 . S
H191 C213 0.948 . S
H192 C215 0.951 . S
H193 C180 0.947 . S
H194 C182 0.952 . S
H195 C183 0.950 . S
N196 C199 1.382 . S
N196 C201 1.363 . S
N197 C199 1.371 . S
N197 C200 1.372 . S
N198 C200 1.361 . S
N198 C201 1.377 . S
C199 N196 1.382 . S
C199 N197 1.371 . S
C199 C202 1.480 . S
C200 N197 1.372 . S
C200 N198 1.361 . S
C200 C208 1.457 . S
C201 N196 1.363 . S
C201 N198 1.377 . S
C201 C214 1.479 . S
C202 C199 1.480 . S
C202 C203 1.383 . S
C202 C207 1.385 . S
C203 H184 0.947 . S
C203 C202 1.383 . S
C203 C204 1.388 . S
C204 H185 0.946 . S
C204 C203 1.388 . S
C204 C205 1.384 . S
C205 C204 1.384 . S
C205 C206 1.377 . S
C206 H186 0.953 . S
C206 C205 1.377 . S
C206 C207 1.369 . S
C207 H187 0.945 . S
C207 C202 1.385 . S
C207 C206 1.369 . S
C208 C200 1.457 . S
C208 C209 1.372 . S
C208 C213 1.364 . S
C209 H188 0.952 . S
C209 C208 1.372 . S
C209 C210 1.389 . S
C210 H189 0.949 . S
C210 C209 1.389 . S
C210 C211 1.387 . S
C211 C210 1.387 . S
C211 C212 1.372 . S
C212 H190 0.950 . S
C212 C211 1.372 . S
C212 C213 1.379 . S
C213 H191 0.948 . S
C213 C208 1.364 . S
C213 C212 1.379 . S
C214 C183 1.383 . S
C214 C201 1.479 . S
C214 C215 1.398 . S
C215 C180 1.382 . S
C215 H192 0.951 . S
C215 C214 1.398 . S
C216 C217 1.384 . S
C216 H229 0.947 . S
C216 C251 1.382 . S
C217 C216 1.384 . S
C217 C218 1.378 . S
C218 C217 1.378 . S
C218 C219 1.378 . S
C218 H230 0.952 . S
C219 C218 1.378 . S
C219 H231 0.950 . S
C219 C250 1.383 . S
H220 C239 0.947 . S
H221 C240 0.946 . S
H222 C242 0.953 . S
H223 C243 0.945 . S
H224 C245 0.952 . S
H225 C246 0.949 . S
H226 C248 0.950 . S
H227 C249 0.948 . S
H228 C251 0.951 . S
H229 C216 0.947 . S
H230 C218 0.952 . S
H231 C219 0.950 . S
N232 C235 1.382 . S
N232 C237 1.363 . S
N233 C235 1.371 . S
N233 C236 1.372 . S
N234 C236 1.361 . S
N234 C237 1.377 . S
C235 N232 1.382 . S
C235 N233 1.371 . S
C235 C238 1.480 . S
C236 N233 1.372 . S
C236 N234 1.361 . S
C236 C244 1.457 . S
C237 N232 1.363 . S
C237 N234 1.377 . S
C237 C250 1.479 . S
C238 C235 1.480 . S
C238 C239 1.383 . S
C238 C243 1.385 . S
C239 H220 0.947 . S
C239 C238 1.383 . S
C239 C240 1.388 . S
C240 H221 0.946 . S
C240 C239 1.388 . S
C240 C241 1.384 . S
C241 C240 1.384 . S
C241 C242 1.377 . S
C242 H222 0.953 . S
C242 C241 1.377 . S
C242 C243 1.369 . S
C243 H223 0.945 . S
C243 C238 1.385 . S
C243 C242 1.369 . S
C244 C236 1.457 . S
C244 C245 1.372 . S
C244 C249 1.364 . S
C245 H224 0.952 . S
C245 C244 1.372 . S
C245 C246 1.389 . S
C246 H225 0.949 . S
C246 C245 1.389 . S
C246 C247 1.387 . S
C247 C246 1.387 . S
C247 C248 1.372 . S
C248 H226 0.950 . S
C248 C247 1.372 . S
C248 C249 1.379 . S
C249 H227 0.948 . S
C249 C244 1.364 . S
C249 C248 1.379 . S
C250 C219 1.383 . S
C250 C237 1.479 . S
C250 C251 1.398 . S
C251 C216 1.382 . S
C251 H228 0.951 . S
C251 C250 1.398 . S
C252 C253 1.384 . S
C252 H265 0.947 . S
C252 C287 1.382 . S
C253 C252 1.384 . S
C253 C254 1.378 . S
C254 C253 1.378 . S
C254 C255 1.378 . S
C254 H266 0.952 . S
C255 C254 1.378 . S
C255 H267 0.950 . S
C255 C286 1.383 . S
H256 C275 0.947 . S
H257 C276 0.946 . S
H258 C278 0.953 . S
H259 C279 0.945 . S
H260 C281 0.952 . S
H261 C282 0.949 . S
H262 C284 0.950 . S
H263 C285 0.948 . S
H264 C287 0.951 . S
H265 C252 0.947 . S
H266 C254 0.952 . S
H267 C255 0.950 . S
N268 C271 1.382 . S
N268 C273 1.363 . S
N269 C271 1.371 . S
N269 C272 1.372 . S
N270 C272 1.361 . S
N270 C273 1.377 . S
C271 N268 1.382 . S
C271 N269 1.371 . S
C271 C274 1.480 . S
C272 N269 1.372 . S
C272 N270 1.361 . S
C272 C280 1.457 . S
C273 N268 1.363 . S
C273 N270 1.377 . S
C273 C286 1.479 . S
C274 C271 1.480 . S
C274 C275 1.383 . S
C274 C279 1.385 . S
C275 H256 0.947 . S
C275 C274 1.383 . S
C275 C276 1.388 . S
C276 H257 0.946 . S
C276 C275 1.388 . S
C276 C277 1.384 . S
C277 C276 1.384 . S
C277 C278 1.377 . S
C278 H258 0.953 . S
C278 C277 1.377 . S
C278 C279 1.369 . S
C279 H259 0.945 . S
C279 C274 1.385 . S
C279 C278 1.369 . S
C280 C272 1.457 . S
C280 C281 1.372 . S
C280 C285 1.364 . S
C281 H260 0.952 . S
C281 C280 1.372 . S
C281 C282 1.389 . S
C282 H261 0.949 . S
C282 C281 1.389 . S
C282 C283 1.387 . S
C283 C282 1.387 . S
C283 C284 1.372 . S
C284 H262 0.950 . S
C284 C283 1.372 . S
C284 C285 1.379 . S
C285 H263 0.948 . S
C285 C280 1.364 . S
C285 C284 1.379 . S
C286 C255 1.383 . S
C286 C273 1.479 . S
C286 C287 1.398 . S
C287 C252 1.382 . S
C287 H264 0.951 . S
C287 C286 1.398 . S
Co288 N293 2.057 . S
Co288 O305 2.021 . S
Co288 O308 2.062 . S
Co288 O312 2.117 1_545 S
Co288 O313 2.020 1_545 S
C289 O309 1.259 1_655 S
C289 O312 1.258 . S
Co290 N299 2.057 . S
Co290 O306 2.117 1_565 S
Co290 O307 2.020 1_565 S
Co290 O309 2.021 . S
Co290 O314 2.062 . S
C291 N293 1.316 . S
C291 N294 1.347 . S
C291 H296 0.931 . S
C292 N293 1.375 1_565 S
C292 C295 1.350 1_565 S
C292 H297 0.930 . S
N293 Co288 2.057 . S
N293 C291 1.316 . S
N293 C292 1.375 1_545 S
N294 C291 1.347 . S
N294 C295 1.373 . S
C295 C292 1.350 1_545 S
C295 N294 1.373 . S
C295 H316 0.931 1_545 S
H296 C291 0.931 . S
H297 C292 0.930 . S
C298 O305 1.259 1_455 S
C298 O306 1.258 . S
N299 Co290 2.057 . S
N299 C300 1.316 . S
N299 C301 1.375 1_565 S
C300 N299 1.316 . S
C300 N302 1.347 . S
C300 H311 0.931 . S
C301 N299 1.375 1_545 S
C301 C303 1.350 1_545 S
C301 H310 0.930 . S
N302 C300 1.347 . S
N302 C303 1.373 . S
C303 C301 1.350 1_565 S
C303 N302 1.373 . S
C303 H317 0.931 1_565 S
C304 O307 1.256 . S
C304 O308 1.255 1_455 S
O305 Co288 2.021 . S
O305 C298 1.259 1_655 S
O306 Co290 2.117 1_545 S
O306 C298 1.258 . S
O307 Co290 2.020 1_545 S
O307 C304 1.256 . S
O308 Co288 2.062 . S
O308 C304 1.255 1_655 S
O309 C289 1.259 1_455 S
O309 Co290 2.021 . S
H310 C301 0.930 . S
H311 C300 0.931 . S
O312 Co288 2.117 1_565 S
O312 C289 1.258 . S
O313 Co288 2.020 1_565 S
O313 C315 1.256 . S
O314 Co290 2.062 . S
O314 C315 1.255 1_455 S
C315 O313 1.256 . S
C315 O314 1.255 1_655 S
H316 C295 0.931 1_565 S
H317 C303 0.931 1_545 S
Co318 N323 2.057 . S
Co318 O335 2.021 1_565 S
Co318 O338 2.062 . S
Co318 O342 2.117 . S
Co318 O343 2.020 1_565 S
C319 O339 1.259 . S
C319 O342 1.258 1_554 S
Co320 N329 2.057 . S
Co320 O336 2.117 . S
Co320 O337 2.020 1_545 S
Co320 O339 2.021 1_545 S
Co320 O344 2.062 . S
C321 N323 1.316 . S
C321 N324 1.347 . S
C321 H326 0.931 1_565 S
C322 N323 1.375 . S
C322 C325 1.350 . S
C322 H327 0.930 . S
N323 Co318 2.057 . S
N323 C321 1.316 . S
N323 C322 1.375 . S
N324 C321 1.347 . S
N324 C325 1.373 . S
C325 C322 1.350 . S
C325 N324 1.373 . S
C325 H346 0.931 . S
H326 C321 0.931 1_545 S
H327 C322 0.930 . S
C328 O335 1.259 . S
C328 O336 1.258 1_556 S
N329 Co320 2.057 . S
N329 C330 1.316 . S
N329 C331 1.375 . S
C330 N329 1.316 . S
C330 N332 1.347 . S
C330 H341 0.931 1_545 S
C331 N329 1.375 . S
C331 C333 1.350 . S
C331 H340 0.930 . S
N332 C330 1.347 . S
N332 C333 1.373 . S
C333 C331 1.350 . S
C333 N332 1.373 . S
C333 H347 0.931 . S
C334 O337 1.256 1_556 S
C334 O338 1.255 . S
O335 Co318 2.021 1_545 S
O335 C328 1.259 . S
O336 Co320 2.117 . S
O336 C328 1.258 1_554 S
O337 Co320 2.020 1_565 S
O337 C334 1.256 1_554 S
O338 Co318 2.062 . S
O338 C334 1.255 . S
O339 C319 1.259 . S
O339 Co320 2.021 1_565 S
H340 C331 0.930 . S
H341 C330 0.931 1_565 S
O342 Co318 2.117 . S
O342 C319 1.258 1_556 S
O343 Co318 2.020 1_545 S
O343 C345 1.256 1_556 S
O344 Co320 2.062 . S
O344 C345 1.255 . S
C345 O343 1.256 1_554 S
C345 O344 1.255 . S
H346 C325 0.931 . S
H347 C333 0.931 . S
Co348 N353 2.057 . S
Co348 O365 2.021 . S
Co348 O368 2.062 . S
Co348 O372 2.117 . S
Co348 O373 2.020 . S
C349 O369 1.259 . S
C349 O372 1.258 . S
Co350 N359 2.057 . S
Co350 O366 2.117 . S
Co350 O367 2.020 . S
Co350 O369 2.021 . S
Co350 O374 2.062 . S
C351 N353 1.316 . S
C351 N354 1.347 . S
C351 H356 0.931 . S
C352 N353 1.375 . S
C352 C355 1.350 . S
C352 H357 0.930 . S
N353 Co348 2.057 . S
N353 C351 1.316 . S
N353 C352 1.375 . S
N354 C351 1.347 . S
N354 C355 1.373 . S
C355 C352 1.350 . S
C355 N354 1.373 . S
C355 H376 0.931 . S
H356 C351 0.931 . S
H357 C352 0.930 . S
C358 O365 1.259 . S
C358 O366 1.258 . S
N359 Co350 2.057 . S
N359 C360 1.316 . S
N359 C361 1.375 . S
C360 N359 1.316 . S
C360 N362 1.347 . S
C360 H371 0.931 . S
C361 N359 1.375 . S
C361 C363 1.350 . S
C361 H370 0.930 . S
N362 C360 1.347 . S
N362 C363 1.373 . S
C363 C361 1.350 . S
C363 N362 1.373 . S
C363 H377 0.931 . S
C364 O367 1.256 . S
C364 O368 1.255 . S
O365 Co348 2.021 . S
O365 C358 1.259 . S
O366 Co350 2.117 . S
O366 C358 1.258 . S
O367 Co350 2.020 . S
O367 C364 1.256 . S
O368 Co348 2.062 . S
O368 C364 1.255 . S
O369 C349 1.259 . S
O369 Co350 2.021 . S
H370 C361 0.930 . S
H371 C360 0.931 . S
O372 Co348 2.117 . S
O372 C349 1.258 . S
O373 Co348 2.020 . S
O373 C375 1.256 . S
O374 Co350 2.062 . S
O374 C375 1.255 . S
C375 O373 1.256 . S
C375 O374 1.255 . S
H376 C355 0.931 . S
H377 C363 0.931 . S
Co378 N383 2.057 . S
Co378 O395 2.021 . S
Co378 O398 2.062 . S
Co378 O402 2.117 1_455 S
Co378 O403 2.027 . S
C379 O399 1.259 1_556 S
C379 O402 1.258 . S
Co380 N389 2.057 . S
Co380 O396 2.117 1_655 S
Co380 O397 2.020 1_655 S
Co380 O399 2.021 . S
Co380 O404 2.062 . S
C381 N383 1.316 . S
C381 N384 1.347 . S
C381 H386 0.931 . S
C382 N383 1.375 1_655 S
C382 C385 1.350 1_655 S
C382 H387 0.930 . S
N383 Co378 2.057 . S
N383 C381 1.316 . S
N383 C382 1.375 1_455 S
N384 C381 1.347 . S
N384 C385 1.373 . S
C385 C382 1.350 1_455 S
C385 N384 1.373 . S
C385 H406 0.931 1_455 S
H386 C381 0.931 . S
H387 C382 0.930 . S
C388 O395 1.259 1_554 S
C388 O396 1.258 . S
N389 Co380 2.057 . S
N389 C390 1.316 . S
N389 C391 1.375 1_655 S
C390 N389 1.316 . S
C390 N392 1.347 . S
C390 H401 0.931 . S
C391 N389 1.375 1_455 S
C391 C393 1.350 1_455 S
C391 H400 0.930 . S
N392 C390 1.347 . S
N392 C393 1.373 . S
C393 C391 1.350 1_655 S
C393 N392 1.373 . S
C393 H407 0.931 1_655 S
C394 O397 1.256 . S
C394 O398 1.255 1_554 S
O395 Co378 2.021 . S
O395 C388 1.259 1_556 S
O396 Co380 2.117 1_455 S
O396 C388 1.258 . S
O397 Co380 2.020 1_455 S
O397 C394 1.256 . S
O398 Co378 2.062 . S
O398 C394 1.255 1_556 S
O399 C379 1.259 1_554 S
O399 Co380 2.021 . S
H400 C391 0.930 . S
H401 C390 0.931 . S
O402 Co378 2.117 1_655 S
O402 C379 1.258 . S
O403 Co378 2.027 . S
O403 C405 1.246 1_455 S
O404 Co380 2.062 . S
O404 C405 1.255 1_554 S
C405 O403 1.246 1_655 S
C405 O404 1.255 1_556 S
H406 C385 0.931 1_655 S
H407 C393 0.931 1_455 S
H408 C426 0.951 . S
H409 C428 0.951 . S
H410 C430 0.950 . S
H411 C431 0.950 . S
H412 C433 0.950 . S
H413 C436 0.950 . S
H414 C437 0.950 . S
H415 C439 0.916 1_655 S
H416 C440 0.950 . S
H417 C441 0.951 . S
H418 C443 0.951 . S
H419 C445 0.950 . S
H420 C446 0.950 1_655 S
H421 C448 0.950 . S
H422 C451 0.950 . S
H423 C452 0.950 . S
H424 C454 0.950 . S
H425 C455 0.930 1_545 S
C426 H408 0.951 . S
C426 C427 1.366 . S
C426 C428 1.388 . S
C427 C426 1.366 . S
C427 C431 1.385 . S
C428 H409 0.951 . S
C428 C426 1.388 . S
C428 C429 1.366 . S
C429 C428 1.366 . S
C429 C430 1.414 . S
C429 C432 1.499 . S
C430 H410 0.950 . S
C430 C429 1.414 . S
C430 C431 1.374 . S
C431 H411 0.950 . S
C431 C427 1.385 . S
C431 C430 1.374 . S
C432 C429 1.499 . S
C432 C433 1.373 . S
C432 C434 1.389 . S
C433 H412 0.950 . S
C433 C432 1.373 . S
C433 C449 1.377 . S
C434 C432 1.389 . S
C434 C435 1.524 . S
C434 C448 1.377 . S
C435 C434 1.524 . S
C435 C436 1.397 . S
C435 C440 1.363 . S
C436 H413 0.950 . S
C436 C435 1.397 . S
C436 C437 1.334 . S
C437 H414 0.950 . S
C437 C436 1.334 . S
C437 C438 1.287 . S
C438 C437 1.287 . S
C438 C439 1.524 . S
C438 H457 0.913 . S
C439 H415 0.916 1_455 S
C439 C438 1.524 . S
C439 C440 1.415 . S
C440 H416 0.950 . S
C440 C435 1.363 . S
C440 C439 1.415 . S
C441 H417 0.951 . S
C441 C442 1.366 . S
C441 C443 1.388 . S
C442 C441 1.366 . S
C442 C446 1.385 . S
C443 H418 0.951 . S
C443 C441 1.388 . S
C443 C444 1.366 . S
C444 C443 1.366 . S
C444 C445 1.414 . S
C444 C447 1.499 . S
C445 H419 0.950 . S
C445 C444 1.414 . S
C445 C446 1.374 . S
C446 H420 0.950 1_455 S
C446 C442 1.385 . S
C446 C445 1.374 . S
C447 C444 1.499 . S
C447 C448 1.373 . S
C447 C449 1.389 . S
C448 H421 0.950 . S
C448 C434 1.377 . S
C448 C447 1.373 . S
C449 C433 1.377 . S
C449 C447 1.389 . S
C449 C450 1.524 1_545 S
C450 C449 1.524 1_565 S
C450 C451 1.397 . S
C450 C455 1.363 . S
C451 H422 0.950 . S
C451 C450 1.397 . S
C451 C452 1.334 . S
C452 H423 0.950 . S
C452 C451 1.334 . S
C452 C453 1.287 . S
C453 C452 1.287 . S
C453 C454 1.524 . S
C453 H456 0.999 . S
C454 H424 0.950 . S
C454 C453 1.524 . S
C454 C455 1.415 . S
C455 H425 0.930 1_565 S
C455 C450 1.363 . S
C455 C454 1.415 . S
H456 C453 0.999 . S
H457 C438 0.913 . S
H458 C476 0.951 . S
H459 C478 0.951 . S
H460 C480 0.950 . S
H461 C481 0.950 . S
H462 C483 0.950 . S
H463 C486 0.950 . S
H464 C487 0.950 . S
H465 C489 0.950 . S
H466 C490 0.950 . S
H467 C491 0.951 . S
H468 C493 0.951 . S
H469 C495 0.950 . S
H470 C496 0.950 . S
H471 C498 0.950 . S
H472 C501 0.950 . S
H473 C502 0.950 . S
H474 C504 0.950 . S
H475 C505 0.950 . S
C476 H458 0.951 . S
C476 C477 1.366 . S
C476 C478 1.388 . S
C477 C476 1.366 . S
C477 C481 1.385 . S
C478 H459 0.951 . S
C478 C476 1.388 . S
C478 C479 1.366 . S
C479 C478 1.366 . S
C479 C480 1.414 . S
C479 C482 1.499 . S
C480 H460 0.950 . S
C480 C479 1.414 . S
C480 C481 1.374 . S
C481 H461 0.950 . S
C481 C477 1.385 . S
C481 C480 1.374 . S
C482 C479 1.499 . S
C482 C483 1.373 . S
C482 C484 1.389 . S
C483 H462 0.950 . S
C483 C482 1.373 . S
C483 C499 1.377 . S
C484 C482 1.389 . S
C484 C485 1.524 . S
C484 C498 1.377 . S
C485 C484 1.524 . S
C485 C486 1.397 . S
C485 C490 1.363 . S
C486 H463 0.950 . S
C486 C485 1.397 . S
C486 C487 1.334 . S
C487 H464 0.950 . S
C487 C486 1.334 . S
C487 C488 1.287 . S
C488 C487 1.287 . S
C488 C489 1.524 . S
C488 H507 0.913 . S
C489 H465 0.950 . S
C489 C488 1.524 . S
C489 C490 1.415 . S
C490 H466 0.950 . S
C490 C485 1.363 . S
C490 C489 1.415 . S
C491 H467 0.951 . S
C491 C492 1.366 . S
C491 C493 1.388 . S
C492 C491 1.366 . S
C492 C496 1.385 . S
C493 H468 0.951 . S
C493 C491 1.388 . S
C493 C494 1.366 . S
C494 C493 1.366 . S
C494 C495 1.414 . S
C494 C497 1.499 . S
C495 H469 0.950 . S
C495 C494 1.414 . S
C495 C496 1.374 . S
C496 H470 0.950 . S
C496 C492 1.385 . S
C496 C495 1.374 . S
C497 C494 1.499 . S
C497 C498 1.373 . S
C497 C499 1.389 . S
C498 H471 0.950 . S
C498 C484 1.377 . S
C498 C497 1.373 . S
C499 C483 1.377 . S
C499 C497 1.389 . S
C499 C500 1.524 . S
C500 C499 1.524 . S
C500 C501 1.397 . S
C500 C505 1.363 . S
C501 H472 0.950 . S
C501 C500 1.397 . S
C501 C502 1.334 1_565 S
C502 H473 0.950 . S
C502 C501 1.334 1_545 S
C502 C503 1.287 1_545 S
C503 C502 1.287 1_565 S
C503 C504 1.524 . S
C503 H506 0.999 1_565 S
C504 H474 0.950 . S
C504 C503 1.524 . S
C504 C505 1.415 . S
C505 H475 0.950 . S
C505 C500 1.363 . S
C505 C504 1.415 . S
H506 C503 0.999 1_545 S
H507 C488 0.913 . S
H508 C526 0.951 . S
H509 C528 0.951 . S
H510 C530 0.950 . S
H511 C531 0.950 . S
H512 C533 0.950 . S
H513 C536 0.950 . S
H514 C537 0.950 . S
H515 C539 0.950 . S
H516 C540 0.950 . S
H517 C541 0.951 . S
H518 C543 0.951 . S
H519 C545 0.950 . S
H520 C546 0.950 . S
H521 C548 0.950 . S
H522 C551 0.950 . S
H523 C552 0.950 . S
H524 C554 0.950 . S
H525 C555 0.950 . S
C526 H508 0.951 . S
C526 C527 1.366 . S
C526 C528 1.388 . S
C527 C526 1.366 . S
C527 C531 1.385 . S
C528 H509 0.951 . S
C528 C526 1.388 . S
C528 C529 1.366 . S
C529 C528 1.366 . S
C529 C530 1.414 . S
C529 C532 1.499 . S
C530 H510 0.950 . S
C530 C529 1.414 . S
C530 C531 1.374 . S
C531 H511 0.950 . S
C531 C527 1.385 . S
C531 C530 1.374 . S
C532 C529 1.499 . S
C532 C533 1.373 . S
C532 C534 1.389 . S
C533 H512 0.950 . S
C533 C532 1.373 . S
C533 C549 1.377 . S
C534 C532 1.389 . S
C534 C535 1.524 . S
C534 C548 1.377 . S
C535 C534 1.524 . S
C535 C536 1.397 . S
C535 C540 1.363 . S
C536 H513 0.950 . S
C536 C535 1.397 . S
C536 C537 1.334 . S
C537 H514 0.950 . S
C537 C536 1.334 . S
C537 C538 1.287 . S
C538 C537 1.287 . S
C538 C539 1.524 . S
C538 H557 0.913 . S
C539 H515 0.950 . S
C539 C538 1.524 . S
C539 C540 1.415 . S
C540 H516 0.950 . S
C540 C535 1.363 . S
C540 C539 1.415 . S
C541 H517 0.951 . S
C541 C542 1.366 . S
C541 C543 1.388 . S
C542 C541 1.366 . S
C542 C546 1.385 . S
C543 H518 0.951 . S
C543 C541 1.388 . S
C543 C544 1.366 . S
C544 C543 1.366 . S
C544 C545 1.414 . S
C544 C547 1.499 . S
C545 H519 0.950 . S
C545 C544 1.414 . S
C545 C546 1.374 . S
C546 H520 0.950 . S
C546 C542 1.385 . S
C546 C545 1.374 . S
C547 C544 1.499 . S
C547 C548 1.373 . S
C547 C549 1.389 . S
C548 H521 0.950 . S
C548 C534 1.377 . S
C548 C547 1.373 . S
C549 C533 1.377 . S
C549 C547 1.389 . S
C549 C550 1.524 . S
C550 C549 1.524 . S
C550 C551 1.397 . S
C550 C555 1.363 . S
C551 H522 0.950 . S
C551 C550 1.397 . S
C551 C552 1.334 . S
C552 H523 0.950 . S
C552 C551 1.334 . S
C552 C553 1.287 . S
C553 C552 1.287 . S
C553 C554 1.524 . S
C553 H556 0.999 . S
C554 H524 0.950 . S
C554 C553 1.524 . S
C554 C555 1.415 . S
C555 H525 0.950 . S
C555 C550 1.363 . S
C555 C554 1.415 . S
H556 C553 0.999 . S
H557 C538 0.913 . S
H558 C576 0.951 . S
H559 C578 0.951 . S
H560 C580 0.950 . S
H561 C581 0.950 . S
H562 C583 0.950 . S
H563 C586 0.950 . S
H564 C587 0.950 . S
H565 C589 0.950 . S
H566 C590 0.950 . S
H567 C591 0.951 . S
H568 C593 0.951 . S
H569 C595 0.950 . S
H570 C596 0.950 . S
H571 C598 0.950 . S
H572 C601 0.950 . S
H573 C602 0.950 . S
H574 C604 0.950 . S
H575 C605 0.950 . S
C576 H558 0.951 . S
C576 C577 1.366 . S
C576 C578 1.388 . S
C577 C576 1.366 . S
C577 C581 1.385 . S
C578 H559 0.951 . S
C578 C576 1.388 . S
C578 C579 1.366 . S
C579 C578 1.366 . S
C579 C580 1.414 . S
C579 C582 1.499 . S
C580 H560 0.950 . S
C580 C579 1.414 . S
C580 C581 1.374 . S
C581 H561 0.950 . S
C581 C577 1.385 . S
C581 C580 1.374 . S
C582 C579 1.499 . S
C582 C583 1.373 . S
C582 C584 1.389 . S
C583 H562 0.950 . S
C583 C582 1.373 . S
C583 C599 1.377 . S
C584 C582 1.389 . S
C584 C585 1.524 . S
C584 C598 1.377 . S
C585 C584 1.524 . S
C585 C586 1.397 . S
C585 C590 1.363 . S
C586 H563 0.950 . S
C586 C585 1.397 . S
C586 C587 1.334 1_655 S
C587 H564 0.950 . S
C587 C586 1.334 1_455 S
C587 C588 1.287 1_455 S
C588 C587 1.287 1_655 S
C588 C589 1.524 . S
C588 H607 0.913 1_655 S
C589 H565 0.950 . S
C589 C588 1.524 . S
C589 C590 1.415 . S
C590 H566 0.950 . S
C590 C585 1.363 . S
C590 C589 1.415 . S
C591 H567 0.951 . S
C591 C592 1.366 . S
C591 C593 1.388 . S
C592 C591 1.366 . S
C592 C596 1.385 . S
C593 H568 0.951 . S
C593 C591 1.388 . S
C593 C594 1.366 . S
C594 C593 1.366 . S
C594 C595 1.414 . S
C594 C597 1.499 . S
C595 H569 0.950 . S
C595 C594 1.414 . S
C595 C596 1.374 . S
C596 H570 0.950 . S
C596 C592 1.385 . S
C596 C595 1.374 . S
C597 C594 1.499 . S
C597 C598 1.373 . S
C597 C599 1.389 . S
C598 H571 0.950 . S
C598 C584 1.377 . S
C598 C597 1.373 . S
C599 C583 1.377 . S
C599 C597 1.389 . S
C599 C600 1.524 . S
C600 C599 1.524 . S
C600 C601 1.397 . S
C600 C605 1.363 . S
C601 H572 0.950 . S
C601 C600 1.397 . S
C601 C602 1.334 . S
C602 H573 0.950 . S
C602 C601 1.334 . S
C602 C603 1.287 . S
C603 C602 1.287 . S
C603 C604 1.524 . S
C603 H606 0.999 . S
C604 H574 0.950 . S
C604 C603 1.524 . S
C604 C605 1.415 . S
C605 H575 0.950 . S
C605 C600 1.363 . S
C605 C604 1.415 . S
H606 C603 0.999 . S
H607 C588 0.913 1_455 S
H608 C626 0.951 . S
H609 C628 0.951 . S
H610 C630 0.950 . S
H611 C631 0.950 . S
H612 C633 0.950 . S
H613 C636 0.950 . S
H614 C637 0.950 . S
H615 C639 0.950 . S
H616 C640 0.950 . S
H617 C641 0.951 1_556 S
H618 C643 0.963 . S
H619 C645 0.950 . S
H620 C646 0.950 . S
H621 C648 0.950 . S
H622 C651 0.950 . S
H623 C652 0.950 . S
H624 C654 0.950 . S
H625 C655 0.950 . S
C626 H608 0.951 . S
C626 C627 1.366 . S
C626 C628 1.388 . S
C627 C626 1.366 . S
C627 C631 1.385 . S
C628 H609 0.951 . S
C628 C626 1.388 . S
C628 C629 1.366 . S
C629 C628 1.366 . S
C629 C630 1.414 . S
C629 C632 1.499 . S
C630 H610 0.950 . S
C630 C629 1.414 . S
C630 C631 1.374 . S
C631 H611 0.950 . S
C631 C627 1.385 . S
C631 C630 1.374 . S
C632 C629 1.499 . S
C632 C633 1.373 . S
C632 C634 1.389 . S
C633 H612 0.950 . S
C633 C632 1.373 . S
C633 C649 1.377 . S
C634 C632 1.389 . S
C634 C635 1.524 . S
C634 C648 1.377 . S
C635 C634 1.524 . S
C635 C636 1.397 . S
C635 C640 1.363 . S
C636 H613 0.950 . S
C636 C635 1.397 . S
C636 C637 1.334 . S
C637 H614 0.950 . S
C637 C636 1.334 . S
C637 C638 1.287 . S
C638 C637 1.287 . S
C638 C639 1.524 . S
C638 H657 0.913 . S
C639 H615 0.950 . S
C639 C638 1.524 . S
C639 C640 1.415 . S
C640 H616 0.950 . S
C640 C635 1.363 . S
C640 C639 1.415 . S
C641 H617 0.951 1_554 S
C641 C642 1.366 . S
C641 C643 1.388 . S
C642 C641 1.366 . S
C642 C646 1.385 . S
C643 H618 0.963 . S
C643 C641 1.388 . S
C643 C644 1.366 . S
C644 C643 1.366 . S
C644 C645 1.414 . S
C644 C647 1.499 . S
C645 H619 0.950 . S
C645 C644 1.414 . S
C645 C646 1.374 . S
C646 H620 0.950 . S
C646 C642 1.385 . S
C646 C645 1.374 . S
C647 C644 1.499 . S
C647 C648 1.373 . S
C647 C649 1.389 . S
C648 H621 0.950 . S
C648 C634 1.377 . S
C648 C647 1.373 . S
C649 C633 1.377 . S
C649 C647 1.389 . S
C649 C650 1.524 . S
C650 C649 1.524 . S
C650 C651 1.397 1_545 S
C650 C655 1.363 1_554 S
C651 H622 0.950 . S
C651 C650 1.397 1_565 S
C651 C652 1.334 . S
C652 H623 0.950 . S
C652 C651 1.334 . S
C652 C653 1.287 1_554 S
C653 C652 1.287 1_556 S
C653 C654 1.524 . S
C653 H656 0.999 . S
C654 H624 0.950 . S
C654 C653 1.524 . S
C654 C655 1.415 1_565 S
C655 H625 0.950 . S
C655 C650 1.363 1_556 S
C655 C654 1.415 1_545 S
H656 C653 0.999 . S
H657 C638 0.913 . S
H658 C676 0.951 . S
H659 C678 0.951 . S
H660 C680 0.950 . S
H661 C681 0.950 . S
H662 C683 0.950 . S
H663 C686 0.950 . S
H664 C687 0.950 . S
H665 C689 0.950 . S
H666 C690 0.950 . S
H667 C691 0.951 . S
H668 C693 0.951 . S
H669 C695 0.950 . S
H670 C696 0.950 . S
H671 C698 0.950 . S
H672 C701 0.950 . S
H673 C702 0.950 . S
H674 C704 0.950 . S
H675 C705 0.950 . S
C676 H658 0.951 . S
C676 C677 1.366 . S
C676 C678 1.388 . S
C677 C676 1.366 . S
C677 C681 1.385 . S
C678 H659 0.951 . S
C678 C676 1.388 . S
C678 C679 1.366 . S
C679 C678 1.366 . S
C679 C680 1.414 . S
C679 C682 1.499 . S
C680 H660 0.950 . S
C680 C679 1.414 . S
C680 C681 1.374 . S
C681 H661 0.950 . S
C681 C677 1.385 . S
C681 C680 1.374 . S
C682 C679 1.499 . S
C682 C683 1.373 . S
C682 C684 1.389 . S
C683 H662 0.950 . S
C683 C682 1.373 . S
C683 C699 1.377 . S
C684 C682 1.389 . S
C684 C685 1.524 . S
C684 C698 1.377 . S
C685 C684 1.524 . S
C685 C686 1.397 . S
C685 C690 1.363 . S
C686 H663 0.950 . S
C686 C685 1.397 . S
C686 C687 1.334 . S
C687 H664 0.950 . S
C687 C686 1.334 . S
C687 C688 1.287 . S
C688 C687 1.287 . S
C688 C689 1.524 . S
C688 H707 0.913 . S
C689 H665 0.950 . S
C689 C688 1.524 . S
C689 C690 1.415 . S
C690 H666 0.950 . S
C690 C685 1.363 . S
C690 C689 1.415 . S
C691 H667 0.951 . S
C691 C692 1.366 . S
C691 C693 1.388 . S
C692 C691 1.366 . S
C692 C696 1.385 . S
C693 H668 0.951 . S
C693 C691 1.388 . S
C693 C694 1.366 . S
C694 C693 1.366 . S
C694 C695 1.414 . S
C694 C697 1.499 . S
C695 H669 0.950 . S
C695 C694 1.414 . S
C695 C696 1.374 . S
C696 H670 0.950 . S
C696 C692 1.385 . S
C696 C695 1.374 . S
C697 C694 1.499 . S
C697 C698 1.373 . S
C697 C699 1.389 . S
C698 H671 0.950 . S
C698 C684 1.377 . S
C698 C697 1.373 . S
C699 C683 1.377 . S
C699 C697 1.389 . S
C699 C700 1.524 . S
C700 C699 1.524 . S
C700 C701 1.397 . S
C700 C705 1.363 . S
C701 H672 0.950 . S
C701 C700 1.397 . S
C701 C702 1.334 . S
C702 H673 0.950 . S
C702 C701 1.334 . S
C702 C703 1.287 1_565 S
C703 C702 1.287 1_545 S
C703 C704 1.524 . S
C703 H706 0.999 . S
C704 H674 0.950 . S
C704 C703 1.524 . S
C704 C705 1.415 1_545 S
C705 H675 0.950 . S
C705 C700 1.363 . S
C705 C704 1.415 1_565 S
H706 C703 0.999 . S
H707 C688 0.913 . S
H708 C726 0.951 . S
H709 C728 0.951 . S
H710 C730 0.950 . S
H711 C731 0.950 . S
H712 C733 0.950 . S
H713 C736 0.950 . S
H714 C737 0.950 . S
H715 C739 0.950 . S
H716 C740 0.950 . S
H717 C741 0.969 . S
H718 C743 0.951 . S
H719 C745 0.950 . S
H720 C746 0.950 . S
H721 C748 0.950 . S
H722 C751 0.950 . S
H723 C752 0.950 . S
H724 C754 0.950 . S
H725 C755 0.950 . S
C726 H708 0.951 . S
C726 C727 1.366 . S
C726 C728 1.388 . S
C727 C726 1.366 . S
C727 C731 1.385 . S
C728 H709 0.951 . S
C728 C726 1.388 . S
C728 C729 1.366 . S
C729 C728 1.366 . S
C729 C730 1.414 . S
C729 C732 1.499 . S
C730 H710 0.950 . S
C730 C729 1.414 . S
C730 C731 1.374 . S
C731 H711 0.950 . S
C731 C727 1.385 . S
C731 C730 1.374 . S
C732 C729 1.499 . S
C732 C733 1.373 . S
C732 C734 1.389 . S
C733 H712 0.950 . S
C733 C732 1.373 . S
C733 C749 1.377 . S
C734 C732 1.389 . S
C734 C735 1.524 . S
C734 C748 1.377 . S
C735 C734 1.524 . S
C735 C736 1.397 . S
C735 C740 1.363 . S
C736 H713 0.950 . S
C736 C735 1.397 . S
C736 C737 1.334 . S
C737 H714 0.950 . S
C737 C736 1.334 . S
C737 C738 1.287 . S
C738 C737 1.287 . S
C738 C739 1.524 . S
C738 H757 0.913 . S
C739 H715 0.950 . S
C739 C738 1.524 . S
C739 C740 1.415 . S
C740 H716 0.950 . S
C740 C735 1.363 . S
C740 C739 1.415 . S
C741 H717 0.969 . S
C741 C742 1.366 . S
C741 C743 1.388 . S
C742 C741 1.366 . S
C742 C746 1.385 . S
C743 H718 0.951 . S
C743 C741 1.388 . S
C743 C744 1.366 . S
C744 C743 1.366 . S
C744 C745 1.414 . S
C744 C747 1.499 . S
C745 H719 0.950 . S
C745 C744 1.414 . S
C745 C746 1.374 . S
C746 H720 0.950 . S
C746 C742 1.385 . S
C746 C745 1.374 . S
C747 C744 1.499 . S
C747 C748 1.373 . S
C747 C749 1.389 . S
C748 H721 0.950 . S
C748 C734 1.377 . S
C748 C747 1.373 . S
C749 C733 1.377 . S
C749 C747 1.389 . S
C749 C750 1.524 . S
C750 C749 1.524 . S
C750 C751 1.397 . S
C750 C755 1.363 . S
C751 H722 0.950 . S
C751 C750 1.397 . S
C751 C752 1.334 . S
C752 H723 0.950 . S
C752 C751 1.334 . S
C752 C753 1.287 . S
C753 C752 1.287 . S
C753 C754 1.524 . S
C753 H756 0.999 . S
C754 H724 0.950 . S
C754 C753 1.524 . S
C754 C755 1.415 . S
C755 H725 0.950 . S
C755 C750 1.363 . S
C755 C754 1.415 . S
H756 C753 0.999 . S
H757 C738 0.913 . S
H758 C776 0.951 . S
H759 C778 0.951 . S
H760 C780 0.950 . S
H761 C781 0.950 . S
H762 C783 0.950 . S
H763 C786 0.950 . S
H764 C787 0.950 . S
H765 C789 0.950 . S
H766 C790 0.950 . S
H767 C791 0.951 . S
H768 C793 0.951 . S
H769 C795 0.950 . S
H770 C796 0.950 . S
H771 C798 0.950 . S
H772 C801 0.950 . S
H773 C802 0.950 . S
H774 C804 0.950 . S
H775 C805 0.950 . S
C776 H758 0.951 . S
C776 C777 1.366 . S
C776 C778 1.388 . S
C777 C776 1.366 . S
C777 C781 1.385 . S
C778 H759 0.951 . S
C778 C776 1.388 . S
C778 C779 1.366 . S
C779 C778 1.366 . S
C779 C780 1.414 . S
C779 C782 1.499 . S
C780 H760 0.950 . S
C780 C779 1.414 . S
C780 C781 1.374 . S
C781 H761 0.950 . S
C781 C777 1.385 . S
C781 C780 1.374 . S
C782 C779 1.499 . S
C782 C783 1.373 . S
C782 C784 1.389 . S
C783 H762 0.950 . S
C783 C782 1.373 . S
C783 C799 1.377 . S
C784 C782 1.389 . S
C784 C785 1.524 . S
C784 C798 1.377 . S
C785 C784 1.524 . S
C785 C786 1.397 . S
C785 C790 1.363 . S
C786 H763 0.950 . S
C786 C785 1.397 . S
C786 C787 1.334 . S
C787 H764 0.950 . S
C787 C786 1.334 . S
C787 C788 1.287 . S
C788 C787 1.287 . S
C788 C789 1.524 . S
C788 H807 0.913 . S
C789 H765 0.950 . S
C789 C788 1.524 . S
C789 C790 1.415 . S
C790 H766 0.950 . S
C790 C785 1.363 . S
C790 C789 1.415 . S
C791 H767 0.951 . S
C791 C792 1.366 . S
C791 C793 1.388 . S
C792 C791 1.366 . S
C792 C796 1.385 . S
C793 H768 0.951 . S
C793 C791 1.388 . S
C793 C794 1.366 . S
C794 C793 1.366 . S
C794 C795 1.414 . S
C794 C797 1.499 . S
C795 H769 0.950 . S
C795 C794 1.414 . S
C795 C796 1.374 . S
C796 H770 0.950 . S
C796 C792 1.385 . S
C796 C795 1.374 . S
C797 C794 1.499 . S
C797 C798 1.373 . S
C797 C799 1.389 . S
C798 H771 0.950 . S
C798 C784 1.377 . S
C798 C797 1.373 . S
C799 C783 1.377 . S
C799 C797 1.389 . S
C799 C800 1.524 . S
C800 C799 1.524 . S
C800 C801 1.397 . S
C800 C805 1.363 . S
C801 H772 0.950 . S
C801 C800 1.397 . S
C801 C802 1.334 . S
C802 H773 0.950 . S
C802 C801 1.334 . S
C802 C803 1.287 . S
C803 C802 1.287 . S
C803 C804 1.524 . S
C803 H806 0.999 . S
C804 H774 0.950 . S
C804 C803 1.524 . S
C804 C805 1.415 . S
C805 H775 0.950 . S
C805 C800 1.363 . S
C805 C804 1.415 . S
H806 C803 0.999 . S
H807 C788 0.913 . S
H808 C826 0.951 . S
H809 C828 0.951 . S
H810 C830 0.950 . S
H811 C831 0.950 . S
H812 C833 0.950 . S
H813 C836 0.950 . S
H814 C837 0.950 . S
H815 C839 0.950 . S
H816 C840 0.950 . S
H817 C841 0.928 1_556 S
H818 C843 0.951 . S
H819 C845 0.950 . S
H820 C846 0.950 . S
H821 C848 0.950 . S
H822 C851 0.950 1_554 S
H823 C852 0.950 . S
H824 C854 0.950 . S
H825 C855 0.950 . S
C826 H808 0.951 . S
C826 C827 1.366 . S
C826 C828 1.388 . S
C827 C826 1.366 . S
C827 C831 1.385 . S
C828 H809 0.951 . S
C828 C826 1.388 . S
C828 C829 1.366 . S
C829 C828 1.366 . S
C829 C830 1.414 . S
C829 C832 1.499 . S
C830 H810 0.950 . S
C830 C829 1.414 . S
C830 C831 1.374 . S
C831 H811 0.950 . S
C831 C827 1.385 . S
C831 C830 1.374 . S
C832 C829 1.499 . S
C832 C833 1.373 . S
C832 C834 1.389 . S
C833 H812 0.950 . S
C833 C832 1.373 . S
C833 C849 1.377 . S
C834 C832 1.389 . S
C834 C835 1.524 . S
C834 C848 1.377 . S
C835 C834 1.524 . S
C835 C836 1.397 . S
C835 C840 1.363 . S
C836 H813 0.950 . S
C836 C835 1.397 . S
C836 C837 1.334 . S
C837 H814 0.950 . S
C837 C836 1.334 . S
C837 C838 1.287 . S
C838 C837 1.287 . S
C838 C839 1.524 . S
C838 H857 0.913 . S
C839 H815 0.950 . S
C839 C838 1.524 . S
C839 C840 1.415 . S
C840 H816 0.950 . S
C840 C835 1.363 . S
C840 C839 1.415 . S
C841 H817 0.928 1_554 S
C841 C842 1.366 . S
C841 C843 1.388 . S
C842 C841 1.366 . S
C842 C846 1.385 . S
C843 H818 0.951 . S
C843 C841 1.388 . S
C843 C844 1.366 . S
C844 C843 1.366 . S
C844 C845 1.414 . S
C844 C847 1.499 . S
C845 H819 0.950 . S
C845 C844 1.414 . S
C845 C846 1.374 . S
C846 H820 0.950 . S
C846 C842 1.385 . S
C846 C845 1.374 . S
C847 C844 1.499 . S
C847 C848 1.373 . S
C847 C849 1.389 . S
C848 H821 0.950 . S
C848 C834 1.377 . S
C848 C847 1.373 . S
C849 C833 1.377 . S
C849 C847 1.389 . S
C849 C850 1.524 1_554 S
C850 C849 1.524 1_556 S
C850 C851 1.397 . S
C850 C855 1.363 . S
C851 H822 0.950 1_556 S
C851 C850 1.397 . S
C851 C852 1.334 . S
C852 H823 0.950 . S
C852 C851 1.334 . S
C852 C853 1.287 . S
C853 C852 1.287 . S
C853 C854 1.524 . S
C853 H856 0.999 . S
C854 H824 0.950 . S
C854 C853 1.524 . S
C854 C855 1.415 . S
C855 H825 0.950 . S
C855 C850 1.363 . S
C855 C854 1.415 . S
H856 C853 0.999 . S
H857 C838 0.913 . S
H858 C876 0.951 . S
H859 C878 0.951 . S
H860 C880 0.950 . S
H861 C881 0.950 . S
H862 C883 0.950 . S
H863 C886 0.950 . S
H864 C887 0.950 . S
H865 C889 0.950 . S
H866 C890 0.950 . S
H867 C891 0.951 . S
H868 C893 0.951 . S
H869 C895 0.950 . S
H870 C896 0.950 . S
H871 C898 0.950 . S
H872 C901 0.950 1_556 S
H873 C902 0.950 . S
H874 C904 0.950 . S
H875 C905 0.950 . S
C876 H858 0.951 . S
C876 C877 1.366 . S
C876 C878 1.388 . S
C877 C876 1.366 . S
C877 C881 1.385 . S
C878 H859 0.951 . S
C878 C876 1.388 . S
C878 C879 1.366 . S
C879 C878 1.366 . S
C879 C880 1.414 . S
C879 C882 1.499 . S
C880 H860 0.950 . S
C880 C879 1.414 . S
C880 C881 1.374 . S
C881 H861 0.950 . S
C881 C877 1.385 . S
C881 C880 1.374 . S
C882 C879 1.499 . S
C882 C883 1.373 . S
C882 C884 1.389 . S
C883 H862 0.950 . S
C883 C882 1.373 . S
C883 C899 1.377 . S
C884 C882 1.389 . S
C884 C885 1.524 . S
C884 C898 1.377 . S
C885 C884 1.524 . S
C885 C886 1.397 . S
C885 C890 1.363 . S
C886 H863 0.950 . S
C886 C885 1.397 . S
C886 C887 1.334 . S
C887 H864 0.950 . S
C887 C886 1.334 . S
C887 C888 1.287 . S
C888 C887 1.287 . S
C888 C889 1.524 . S
C888 H907 0.913 . S
C889 H865 0.950 . S
C889 C888 1.524 . S
C889 C890 1.415 . S
C890 H866 0.950 . S
C890 C885 1.363 . S
C890 C889 1.415 . S
C891 H867 0.951 . S
C891 C892 1.366 . S
C891 C893 1.388 . S
C892 C891 1.366 . S
C892 C896 1.385 . S
C893 H868 0.951 . S
C893 C891 1.388 . S
C893 C894 1.366 . S
C894 C893 1.366 . S
C894 C895 1.414 . S
C894 C897 1.499 . S
C895 H869 0.950 . S
C895 C894 1.414 . S
C895 C896 1.374 . S
C896 H870 0.950 . S
C896 C892 1.385 . S
C896 C895 1.374 . S
C897 C894 1.499 . S
C897 C898 1.373 . S
C897 C899 1.389 . S
C898 H871 0.950 . S
C898 C884 1.377 . S
C898 C897 1.373 . S
C899 C883 1.377 . S
C899 C897 1.389 . S
C899 C900 1.524 . S
C900 C899 1.524 . S
C900 C901 1.397 1_556 S
C900 C905 1.363 1_556 S
C901 H872 0.950 1_554 S
C901 C900 1.397 1_554 S
C901 C902 1.334 . S
C902 H873 0.950 . S
C902 C901 1.334 . S
C902 C903 1.287 . S
C903 C902 1.287 . S
C903 C904 1.524 . S
C903 H906 0.999 . S
C904 H874 0.950 . S
C904 C903 1.524 . S
C904 C905 1.415 . S
C905 H875 0.950 . S
C905 C900 1.363 1_554 S
C905 C904 1.415 . S
H906 C903 0.999 . S
H907 C888 0.913 . S
H908 C926 0.951 . S
H909 C928 0.951 . S
H910 C930 0.950 . S
H911 C931 0.950 . S
H912 C933 0.950 . S
H913 C936 0.950 . S
H914 C937 0.950 . S
H915 C939 0.950 . S
H916 C940 0.950 . S
H917 C941 0.951 . S
H918 C943 0.951 . S
H919 C945 0.950 . S
H920 C946 0.950 . S
H921 C948 0.950 . S
H922 C951 0.950 . S
H923 C952 0.950 . S
H924 C954 0.950 . S
H925 C955 0.950 . S
C926 H908 0.951 . S
C926 C927 1.366 . S
C926 C928 1.388 . S
C927 C926 1.366 . S
C927 C931 1.385 . S
C928 H909 0.951 . S
C928 C926 1.388 . S
C928 C929 1.366 . S
C929 C928 1.366 . S
C929 C930 1.414 . S
C929 C932 1.499 . S
C930 H910 0.950 . S
C930 C929 1.414 . S
C930 C931 1.374 . S
C931 H911 0.950 . S
C931 C927 1.385 . S
C931 C930 1.374 . S
C932 C929 1.499 . S
C932 C933 1.373 . S
C932 C934 1.389 . S
C933 H912 0.950 . S
C933 C932 1.373 . S
C933 C949 1.377 . S
C934 C932 1.389 . S
C934 C935 1.524 . S
C934 C948 1.377 . S
C935 C934 1.524 . S
C935 C936 1.397 1_655 S
C935 C940 1.363 . S
C936 H913 0.950 . S
C936 C935 1.397 1_455 S
C936 C937 1.334 . S
C937 H914 0.950 . S
C937 C936 1.334 . S
C937 C938 1.287 . S
C938 C937 1.287 . S
C938 C939 1.524 1_455 S
C938 H957 0.913 . S
C939 H915 0.950 . S
C939 C938 1.524 1_655 S
C939 C940 1.415 . S
C940 H916 0.950 . S
C940 C935 1.363 . S
C940 C939 1.415 . S
C941 H917 0.951 . S
C941 C942 1.366 . S
C941 C943 1.388 . S
C942 C941 1.366 . S
C942 C946 1.385 . S
C943 H918 0.951 . S
C943 C941 1.388 . S
C943 C944 1.366 . S
C944 C943 1.366 . S
C944 C945 1.414 . S
C944 C947 1.499 . S
C945 H919 0.950 . S
C945 C944 1.414 . S
C945 C946 1.374 . S
C946 H920 0.950 . S
C946 C942 1.385 . S
C946 C945 1.374 . S
C947 C944 1.499 . S
C947 C948 1.373 . S
C947 C949 1.389 . S
C948 H921 0.950 . S
C948 C934 1.377 . S
C948 C947 1.373 . S
C949 C933 1.377 . S
C949 C947 1.389 . S
C949 C950 1.524 . S
C950 C949 1.524 . S
C950 C951 1.397 . S
C950 C955 1.363 . S
C951 H922 0.950 . S
C951 C950 1.397 . S
C951 C952 1.334 . S
C952 H923 0.950 . S
C952 C951 1.334 . S
C952 C953 1.287 . S
C953 C952 1.287 . S
C953 C954 1.524 . S
C953 H956 0.999 . S
C954 H924 0.950 . S
C954 C953 1.524 . S
C954 C955 1.415 . S
C955 H925 0.950 . S
C955 C950 1.363 . S
C955 C954 1.415 . S
H956 C953 0.999 . S
H957 C938 0.913 . S
H958 C976 0.951 . S
H959 C978 0.951 . S
H960 C980 0.950 . S
H961 C981 0.950 . S
H962 C983 0.950 . S
H963 C986 0.950 . S
H964 C987 0.950 . S
H965 C989 0.950 . S
H966 C990 0.950 . S
H967 C991 0.951 . S
H968 C993 0.951 . S
H969 C995 0.950 . S
H970 C996 0.950 . S
H971 C998 0.950 . S
H972 C1001 0.950 . S
H973 C1002 0.950 . S
H974 C1004 0.950 . S
H975 C1005 0.950 . S
C976 H958 0.951 . S
C976 C977 1.366 . S
C976 C978 1.388 . S
C977 C976 1.366 . S
C977 C981 1.385 . S
C978 H959 0.951 . S
C978 C976 1.388 . S
C978 C979 1.366 . S
C979 C978 1.366 . S
C979 C980 1.414 . S
C979 C982 1.499 . S
C980 H960 0.950 . S
C980 C979 1.414 . S
C980 C981 1.374 . S
C981 H961 0.950 . S
C981 C977 1.385 . S
C981 C980 1.374 . S
C982 C979 1.499 . S
C982 C983 1.373 . S
C982 C984 1.389 . S
C983 H962 0.950 . S
C983 C982 1.373 . S
C983 C999 1.377 . S
C984 C982 1.389 . S
C984 C985 1.524 . S
C984 C998 1.377 . S
C985 C984 1.524 . S
C985 C986 1.397 . S
C985 C990 1.363 . S
C986 H963 0.950 . S
C986 C985 1.397 . S
C986 C987 1.334 . S
C987 H964 0.950 . S
C987 C986 1.334 . S
C987 C988 1.287 . S
C988 C987 1.287 . S
C988 C989 1.524 . S
C988 H1007 0.913 . S
C989 H965 0.950 . S
C989 C988 1.524 . S
C989 C990 1.415 . S
C990 H966 0.950 . S
C990 C985 1.363 . S
C990 C989 1.415 . S
C991 H967 0.951 . S
C991 C992 1.366 . S
C991 C993 1.388 . S
C992 C991 1.366 . S
C992 C996 1.385 . S
C993 H968 0.951 . S
C993 C991 1.388 . S
C993 C994 1.366 . S
C994 C993 1.366 . S
C994 C995 1.414 . S
C994 C997 1.499 . S
C995 H969 0.950 . S
C995 C994 1.414 . S
C995 C996 1.374 . S
C996 H970 0.950 . S
C996 C992 1.385 . S
C996 C995 1.374 . S
C997 C994 1.499 . S
C997 C998 1.373 . S
C997 C999 1.389 . S
C998 H971 0.950 . S
C998 C984 1.377 . S
C998 C997 1.373 . S
C999 C983 1.377 . S
C999 C997 1.389 . S
C999 C1000 1.524 . S
C1000 C999 1.524 . S
C1000 C1001 1.397 . S
C1000 C1005 1.363 . S
C1001 H972 0.950 . S
C1001 C1000 1.397 . S
C1001 C1002 1.334 . S
C1002 H973 0.950 . S
C1002 C1001 1.334 . S
C1002 C1003 1.287 . S
C1003 C1002 1.287 . S
C1003 C1004 1.524 . S
C1003 H1006 0.999 . S
C1004 H974 0.950 . S
C1004 C1003 1.524 . S
C1004 C1005 1.415 . S
C1005 H975 0.950 . S
C1005 C1000 1.363 . S
C1005 C1004 1.415 . S
H1006 C1003 0.999 . S
H1007 C988 0.913 . S
H1008 C1026 0.951 . S
H1009 C1028 0.951 . S
H1010 C1030 0.950 . S
H1011 C1031 0.950 . S
H1012 C1033 0.950 . S
H1013 C1036 0.950 . S
H1014 C1037 0.950 . S
H1015 C1039 0.950 . S
H1016 C1040 0.950 . S
H1017 C1041 0.951 1_445 S
H1018 C1043 0.951 . S
H1019 C1045 0.950 . S
H1020 C1046 0.950 . S
H1021 C1048 0.950 . S
H1022 C1051 0.950 1_565 S
H1023 C1052 0.950 . S
H1024 C1054 0.950 . S
H1025 C1055 0.950 . S
C1026 H1008 0.951 . S
C1026 C1027 1.366 . S
C1026 C1028 1.388 . S
C1027 C1026 1.366 . S
C1027 C1031 1.385 . S
C1028 H1009 0.951 . S
C1028 C1026 1.388 . S
C1028 C1029 1.366 . S
C1029 C1028 1.366 . S
C1029 C1030 1.414 . S
C1029 C1032 1.499 . S
C1030 H1010 0.950 . S
C1030 C1029 1.414 . S
C1030 C1031 1.374 . S
C1031 H1011 0.950 . S
C1031 C1027 1.385 . S
C1031 C1030 1.374 . S
C1032 C1029 1.499 . S
C1032 C1033 1.373 . S
C1032 C1034 1.389 . S
C1033 H1012 0.950 . S
C1033 C1032 1.373 . S
C1033 C1049 1.377 . S
C1034 C1032 1.389 . S
C1034 C1035 1.524 . S
C1034 C1048 1.377 . S
C1035 C1034 1.524 . S
C1035 C1036 1.397 . S
C1035 C1040 1.363 . S
C1036 H1013 0.950 . S
C1036 C1035 1.397 . S
C1036 C1037 1.334 . S
C1037 H1014 0.950 . S
C1037 C1036 1.334 . S
C1037 C1038 1.287 . S
C1038 C1037 1.287 . S
C1038 C1039 1.524 . S
C1038 H1057 0.913 . S
C1039 H1015 0.950 . S
C1039 C1038 1.524 . S
C1039 C1040 1.415 . S
C1040 H1016 0.950 . S
C1040 C1035 1.363 . S
C1040 C1039 1.415 . S
C1041 H1017 0.951 1_665 S
C1041 C1042 1.366 . S
C1041 C1043 1.388 . S
C1042 C1041 1.366 . S
C1042 C1046 1.385 . S
C1043 H1018 0.951 . S
C1043 C1041 1.388 . S
C1043 C1044 1.366 . S
C1044 C1043 1.366 . S
C1044 C1045 1.414 . S
C1044 C1047 1.499 . S
C1045 H1019 0.950 . S
C1045 C1044 1.414 . S
C1045 C1046 1.374 . S
C1046 H1020 0.950 . S
C1046 C1042 1.385 . S
C1046 C1045 1.374 . S
C1047 C1044 1.499 . S
C1047 C1048 1.373 . S
C1047 C1049 1.389 . S
C1048 H1021 0.950 . S
C1048 C1034 1.377 . S
C1048 C1047 1.373 . S
C1049 C1033 1.377 . S
C1049 C1047 1.389 . S
C1049 C1050 1.524 1_565 S
C1050 C1049 1.524 1_545 S
C1050 C1051 1.397 . S
C1050 C1055 1.363 . S
C1051 H1022 0.950 1_545 S
C1051 C1050 1.397 . S
C1051 C1052 1.334 . S
C1052 H1023 0.950 . S
C1052 C1051 1.334 . S
C1052 C1053 1.287 . S
C1053 C1052 1.287 . S
C1053 C1054 1.524 . S
C1053 H1056 0.999 . S
C1054 H1024 0.950 . S
C1054 C1053 1.524 . S
C1054 C1055 1.415 . S
C1055 H1025 0.950 . S
C1055 C1050 1.363 . S
C1055 C1054 1.415 . S
H1056 C1053 0.999 . S
H1057 C1038 0.913 . S
H1058 C1076 0.951 . S
H1059 C1078 0.951 . S
H1060 C1080 0.950 . S
H1061 C1081 0.950 . S
H1062 C1083 0.950 . S
H1063 C1086 0.950 . S
H1064 C1087 0.950 . S
H1065 C1089 0.950 . S
H1066 C1090 0.950 . S
H1067 C1091 0.951 . S
H1068 C1093 0.951 . S
H1069 C1095 0.950 . S
H1070 C1096 0.950 . S
H1071 C1098 0.950 . S
H1072 C1101 0.950 . S
H1073 C1102 0.950 . S
H1074 C1104 0.950 . S
H1075 C1105 0.950 . S
C1076 H1058 0.951 . S
C1076 C1077 1.366 . S
C1076 C1078 1.388 . S
C1077 C1076 1.366 . S
C1077 C1081 1.385 . S
C1078 H1059 0.951 . S
C1078 C1076 1.388 . S
C1078 C1079 1.366 . S
C1079 C1078 1.366 . S
C1079 C1080 1.414 . S
C1079 C1082 1.499 . S
C1080 H1060 0.950 . S
C1080 C1079 1.414 . S
C1080 C1081 1.374 . S
C1081 H1061 0.950 . S
C1081 C1077 1.385 . S
C1081 C1080 1.374 . S
C1082 C1079 1.499 . S
C1082 C1083 1.373 . S
C1082 C1084 1.389 . S
C1083 H1062 0.950 . S
C1083 C1082 1.373 . S
C1083 C1099 1.377 . S
C1084 C1082 1.389 . S
C1084 C1085 1.524 . S
C1084 C1098 1.377 . S
C1085 C1084 1.524 . S
C1085 C1086 1.397 . S
C1085 C1090 1.363 . S
C1086 H1063 0.950 . S
C1086 C1085 1.397 . S
C1086 C1087 1.334 . S
C1087 H1064 0.950 . S
C1087 C1086 1.334 . S
C1087 C1088 1.287 . S
C1088 C1087 1.287 . S
C1088 C1089 1.524 . S
C1088 H1107 0.913 . S
C1089 H1065 0.950 . S
C1089 C1088 1.524 . S
C1089 C1090 1.415 . S
C1090 H1066 0.950 . S
C1090 C1085 1.363 . S
C1090 C1089 1.415 . S
C1091 H1067 0.951 . S
C1091 C1092 1.366 . S
C1091 C1093 1.388 . S
C1092 C1091 1.366 . S
C1092 C1096 1.385 . S
C1093 H1068 0.951 . S
C1093 C1091 1.388 . S
C1093 C1094 1.366 . S
C1094 C1093 1.366 . S
C1094 C1095 1.414 . S
C1094 C1097 1.499 . S
C1095 H1069 0.950 . S
C1095 C1094 1.414 . S
C1095 C1096 1.374 . S
C1096 H1070 0.950 . S
C1096 C1092 1.385 . S
C1096 C1095 1.374 . S
C1097 C1094 1.499 . S
C1097 C1098 1.373 . S
C1097 C1099 1.389 . S
C1098 H1071 0.950 . S
C1098 C1084 1.377 . S
C1098 C1097 1.373 . S
C1099 C1083 1.377 . S
C1099 C1097 1.389 . S
C1099 C1100 1.524 . S
C1100 C1099 1.524 . S
C1100 C1101 1.397 . S
C1100 C1105 1.363 . S
C1101 H1072 0.950 . S
C1101 C1100 1.397 . S
C1101 C1102 1.334 . S
C1102 H1073 0.950 . S
C1102 C1101 1.334 . S
C1102 C1103 1.287 . S
C1103 C1102 1.287 . S
C1103 C1104 1.524 . S
C1103 H1106 0.999 . S
C1104 H1074 0.950 . S
C1104 C1103 1.524 . S
C1104 C1105 1.415 . S
C1105 H1075 0.950 . S
C1105 C1100 1.363 . S
C1105 C1104 1.415 . S
H1106 C1103 0.999 . S
H1107 C1088 0.913 . S
H1108 C1126 0.951 . S
H1109 C1128 0.951 . S
H1110 C1130 0.950 . S
H1111 C1131 0.950 . S
H1112 C1133 0.950 . S
H1113 C1136 0.950 . S
H1114 C1137 0.950 . S
H1115 C1139 0.950 . S
H1116 C1140 0.950 . S
H1117 C1141 0.951 . S
H1118 C1143 0.951 . S
H1119 C1145 0.950 . S
H1120 C1146 0.950 . S
H1121 C1148 0.950 . S
H1122 C1151 0.950 . S
H1123 C1152 0.950 . S
H1124 C1154 0.950 . S
H1125 C1155 0.950 . S
C1126 H1108 0.951 . S
C1126 C1127 1.366 . S
C1126 C1128 1.388 . S
C1127 C1126 1.366 . S
C1127 C1131 1.385 . S
C1128 H1109 0.951 . S
C1128 C1126 1.388 . S
C1128 C1129 1.366 . S
C1129 C1128 1.366 . S
C1129 C1130 1.414 . S
C1129 C1132 1.499 . S
C1130 H1110 0.950 . S
C1130 C1129 1.414 . S
C1130 C1131 1.374 . S
C1131 H1111 0.950 . S
C1131 C1127 1.385 . S
C1131 C1130 1.374 . S
C1132 C1129 1.499 . S
C1132 C1133 1.373 . S
C1132 C1134 1.389 . S
C1133 H1112 0.950 . S
C1133 C1132 1.373 . S
C1133 C1149 1.377 . S
C1134 C1132 1.389 . S
C1134 C1135 1.524 . S
C1134 C1148 1.377 . S
C1135 C1134 1.524 . S
C1135 C1136 1.397 . S
C1135 C1140 1.363 . S
C1136 H1113 0.950 . S
C1136 C1135 1.397 . S
C1136 C1137 1.334 . S
C1137 H1114 0.950 . S
C1137 C1136 1.334 . S
C1137 C1138 1.287 . S
C1138 C1137 1.287 . S
C1138 C1139 1.524 . S
C1138 H1157 0.913 . S
C1139 H1115 0.950 . S
C1139 C1138 1.524 . S
C1139 C1140 1.415 . S
C1140 H1116 0.950 . S
C1140 C1135 1.363 . S
C1140 C1139 1.415 . S
C1141 H1117 0.951 . S
C1141 C1142 1.366 . S
C1141 C1143 1.388 . S
C1142 C1141 1.366 . S
C1142 C1146 1.385 . S
C1143 H1118 0.951 . S
C1143 C1141 1.388 . S
C1143 C1144 1.366 . S
C1144 C1143 1.366 . S
C1144 C1145 1.414 . S
C1144 C1147 1.499 . S
C1145 H1119 0.950 . S
C1145 C1144 1.414 . S
C1145 C1146 1.374 . S
C1146 H1120 0.950 . S
C1146 C1142 1.385 . S
C1146 C1145 1.374 . S
C1147 C1144 1.499 . S
C1147 C1148 1.373 . S
C1147 C1149 1.389 . S
C1148 H1121 0.950 . S
C1148 C1134 1.377 . S
C1148 C1147 1.373 . S
C1149 C1133 1.377 . S
C1149 C1147 1.389 . S
C1149 C1150 1.524 . S
C1150 C1149 1.524 . S
C1150 C1151 1.397 . S
C1150 C1155 1.363 . S
C1151 H1122 0.950 . S
C1151 C1150 1.397 . S
C1151 C1152 1.334 . S
C1152 H1123 0.950 . S
C1152 C1151 1.334 . S
C1152 C1153 1.287 . S
C1153 C1152 1.287 . S
C1153 C1154 1.524 . S
C1153 H1156 0.999 . S
C1154 H1124 0.950 . S
C1154 C1153 1.524 . S
C1154 C1155 1.415 . S
C1155 H1125 0.950 . S
C1155 C1150 1.363 . S
C1155 C1154 1.415 . S
H1156 C1153 0.999 . S
H1157 C1138 0.913 . S
H1158 C1176 0.951 . S
H1159 C1178 0.951 . S
H1160 C1180 0.950 . S
H1161 C1181 0.950 . S
H1162 C1183 0.950 . S
H1163 C1186 0.950 . S
H1164 C1187 0.950 . S
H1165 C1189 0.950 . S
H1166 C1190 0.950 . S
H1167 C1191 0.951 . S
H1168 C1193 0.951 . S
H1169 C1195 0.950 . S
H1170 C1196 0.950 . S
H1171 C1198 0.950 . S
H1172 C1201 0.949 1_455 S
H1173 C1202 0.950 . S
H1174 C1204 0.950 . S
H1175 C1205 0.950 . S
C1176 H1158 0.951 . S
C1176 C1177 1.366 . S
C1176 C1178 1.388 . S
C1177 C1176 1.366 . S
C1177 C1181 1.385 . S
C1178 H1159 0.951 . S
C1178 C1176 1.388 . S
C1178 C1179 1.366 . S
C1179 C1178 1.366 . S
C1179 C1180 1.414 . S
C1179 C1182 1.499 . S
C1180 H1160 0.950 . S
C1180 C1179 1.414 . S
C1180 C1181 1.374 . S
C1181 H1161 0.950 . S
C1181 C1177 1.385 . S
C1181 C1180 1.374 . S
C1182 C1179 1.499 . S
C1182 C1183 1.373 . S
C1182 C1184 1.389 . S
C1183 H1162 0.950 . S
C1183 C1182 1.373 . S
C1183 C1199 1.377 . S
C1184 C1182 1.389 . S
C1184 C1185 1.524 . S
C1184 C1198 1.377 . S
C1185 C1184 1.524 . S
C1185 C1186 1.397 . S
C1185 C1190 1.363 . S
C1186 H1163 0.950 . S
C1186 C1185 1.397 . S
C1186 C1187 1.334 . S
C1187 H1164 0.950 . S
C1187 C1186 1.334 . S
C1187 C1188 1.287 . S
C1188 C1187 1.287 . S
C1188 C1189 1.524 . S
C1188 H1207 0.913 . S
C1189 H1165 0.950 . S
C1189 C1188 1.524 . S
C1189 C1190 1.415 . S
C1190 H1166 0.950 . S
C1190 C1185 1.363 . S
C1190 C1189 1.415 . S
C1191 H1167 0.951 . S
C1191 C1192 1.366 . S
C1191 C1193 1.388 . S
C1192 C1191 1.366 . S
C1192 C1196 1.385 . S
C1193 H1168 0.951 . S
C1193 C1191 1.388 . S
C1193 C1194 1.366 . S
C1194 C1193 1.366 . S
C1194 C1195 1.414 . S
C1194 C1197 1.499 . S
C1195 H1169 0.950 . S
C1195 C1194 1.414 . S
C1195 C1196 1.374 . S
C1196 H1170 0.950 . S
C1196 C1192 1.385 . S
C1196 C1195 1.374 . S
C1197 C1194 1.499 . S
C1197 C1198 1.373 . S
C1197 C1199 1.389 . S
C1198 H1171 0.950 . S
C1198 C1184 1.377 . S
C1198 C1197 1.373 . S
C1199 C1183 1.377 . S
C1199 C1197 1.389 . S
C1199 C1200 1.524 . S
C1200 C1199 1.524 . S
C1200 C1201 1.397 1_455 S
C1200 C1205 1.363 . S
C1201 H1172 0.949 1_655 S
C1201 C1200 1.397 1_655 S
C1201 C1202 1.334 . S
C1202 H1173 0.950 . S
C1202 C1201 1.334 . S
C1202 C1203 1.287 . S
C1203 C1202 1.287 . S
C1203 C1204 1.524 . S
C1203 H1206 0.999 . S
C1204 H1174 0.950 . S
C1204 C1203 1.524 . S
C1204 C1205 1.415 1_655 S
C1205 H1175 0.950 . S
C1205 C1200 1.363 . S
C1205 C1204 1.415 1_455 S
H1206 C1203 0.999 . S
H1207 C1188 0.913 . S
H1208 C1226 0.951 . S
H1209 C1228 0.951 . S
H1210 C1230 0.950 . S
H1211 C1231 0.950 . S
H1212 C1233 0.950 . S
H1213 C1236 0.950 . S
H1214 C1237 0.950 . S
H1215 C1239 0.950 . S
H1216 C1240 0.950 . S
H1217 C1241 0.951 . S
H1218 C1243 0.951 . S
H1219 C1245 0.950 . S
H1220 C1246 0.950 1_545 S
H1221 C1248 0.950 . S
H1222 C1251 0.950 . S
H1223 C1252 0.950 . S
H1224 C1254 0.950 . S
H1225 C1255 0.950 . S
C1226 H1208 0.951 . S
C1226 C1227 1.366 . S
C1226 C1228 1.388 . S
C1227 C1226 1.366 . S
C1227 C1231 1.385 . S
C1228 H1209 0.951 . S
C1228 C1226 1.388 . S
C1228 C1229 1.366 . S
C1229 C1228 1.366 . S
C1229 C1230 1.414 . S
C1229 C1232 1.499 . S
C1230 H1210 0.950 . S
C1230 C1229 1.414 . S
C1230 C1231 1.374 . S
C1231 H1211 0.950 . S
C1231 C1227 1.385 . S
C1231 C1230 1.374 . S
C1232 C1229 1.499 . S
C1232 C1233 1.373 . S
C1232 C1234 1.389 . S
C1233 H1212 0.950 . S
C1233 C1232 1.373 . S
C1233 C1249 1.377 . S
C1234 C1232 1.389 . S
C1234 C1235 1.524 . S
C1234 C1248 1.377 . S
C1235 C1234 1.524 . S
C1235 C1236 1.397 . S
C1235 C1240 1.363 1_556 S
C1236 H1213 0.950 . S
C1236 C1235 1.397 . S
C1236 C1237 1.334 1_556 S
C1237 H1214 0.950 . S
C1237 C1236 1.334 1_554 S
C1237 C1238 1.287 . S
C1238 C1237 1.287 . S
C1238 C1239 1.524 . S
C1238 H1257 0.913 . S
C1239 H1215 0.950 . S
C1239 C1238 1.524 . S
C1239 C1240 1.415 . S
C1240 H1216 0.950 . S
C1240 C1235 1.363 1_554 S
C1240 C1239 1.415 . S
C1241 H1217 0.951 . S
C1241 C1242 1.366 . S
C1241 C1243 1.388 . S
C1242 C1241 1.366 . S
C1242 C1246 1.385 . S
C1243 H1218 0.951 . S
C1243 C1241 1.388 . S
C1243 C1244 1.366 . S
C1244 C1243 1.366 . S
C1244 C1245 1.414 . S
C1244 C1247 1.499 . S
C1245 H1219 0.950 . S
C1245 C1244 1.414 . S
C1245 C1246 1.374 . S
C1246 H1220 0.950 1_565 S
C1246 C1242 1.385 . S
C1246 C1245 1.374 . S
C1247 C1244 1.499 . S
C1247 C1248 1.373 . S
C1247 C1249 1.389 . S
C1248 H1221 0.950 . S
C1248 C1234 1.377 . S
C1248 C1247 1.373 . S
C1249 C1233 1.377 . S
C1249 C1247 1.389 . S
C1249 C1250 1.524 . S
C1250 C1249 1.524 . S
C1250 C1251 1.397 . S
C1250 C1255 1.363 . S
C1251 H1222 0.950 . S
C1251 C1250 1.397 . S
C1251 C1252 1.334 . S
C1252 H1223 0.950 . S
C1252 C1251 1.334 . S
C1252 C1253 1.287 . S
C1253 C1252 1.287 . S
C1253 C1254 1.524 . S
C1253 H1256 0.999 . S
C1254 H1224 0.950 . S
C1254 C1253 1.524 . S
C1254 C1255 1.415 . S
C1255 H1225 0.950 . S
C1255 C1250 1.363 . S
C1255 C1254 1.415 . S
H1256 C1253 0.999 . S
H1257 C1238 0.913 . S
H1258 C1276 0.951 . S
H1259 C1278 0.951 . S
H1260 C1280 0.950 . S
H1261 C1281 0.950 . S
H1262 C1283 0.950 . S
H1263 C1286 0.950 . S
H1264 C1287 0.950 . S
H1265 C1289 0.950 . S
H1266 C1290 0.950 . S
H1267 C1291 0.951 . S
H1268 C1293 0.951 . S
H1269 C1295 0.950 . S
H1270 C1296 0.950 . S
H1271 C1298 0.950 . S
H1272 C1301 0.950 . S
H1273 C1302 0.950 . S
H1274 C1304 0.910 1_565 S
H1275 C1305 0.950 . S
C1276 H1258 0.951 . S
C1276 C1277 1.366 . S
C1276 C1278 1.388 . S
C1277 C1276 1.366 . S
C1277 C1281 1.385 . S
C1278 H1259 0.951 . S
C1278 C1276 1.388 . S
C1278 C1279 1.366 . S
C1279 C1278 1.366 . S
C1279 C1280 1.414 . S
C1279 C1282 1.499 . S
C1280 H1260 0.950 . S
C1280 C1279 1.414 . S
C1280 C1281 1.374 . S
C1281 H1261 0.950 . S
C1281 C1277 1.385 . S
C1281 C1280 1.374 . S
C1282 C1279 1.499 . S
C1282 C1283 1.373 . S
C1282 C1284 1.389 . S
C1283 H1262 0.950 . S
C1283 C1282 1.373 . S
C1283 C1299 1.377 . S
C1284 C1282 1.389 . S
C1284 C1285 1.524 . S
C1284 C1298 1.377 . S
C1285 C1284 1.524 . S
C1285 C1286 1.397 . S
C1285 C1290 1.363 . S
C1286 H1263 0.950 . S
C1286 C1285 1.397 . S
C1286 C1287 1.334 . S
C1287 H1264 0.950 . S
C1287 C1286 1.334 . S
C1287 C1288 1.287 . S
C1288 C1287 1.287 . S
C1288 C1289 1.524 . S
C1288 H1307 0.913 . S
C1289 H1265 0.950 . S
C1289 C1288 1.524 . S
C1289 C1290 1.415 . S
C1290 H1266 0.950 . S
C1290 C1285 1.363 . S
C1290 C1289 1.415 . S
C1291 H1267 0.951 . S
C1291 C1292 1.366 . S
C1291 C1293 1.388 . S
C1292 C1291 1.366 . S
C1292 C1296 1.385 . S
C1293 H1268 0.951 . S
C1293 C1291 1.388 . S
C1293 C1294 1.366 . S
C1294 C1293 1.366 . S
C1294 C1295 1.414 . S
C1294 C1297 1.499 . S
C1295 H1269 0.950 . S
C1295 C1294 1.414 . S
C1295 C1296 1.374 . S
C1296 H1270 0.950 . S
C1296 C1292 1.385 . S
C1296 C1295 1.374 . S
C1297 C1294 1.499 . S
C1297 C1298 1.373 . S
C1297 C1299 1.389 . S
C1298 H1271 0.950 . S
C1298 C1284 1.377 . S
C1298 C1297 1.373 . S
C1299 C1283 1.377 . S
C1299 C1297 1.389 . S
C1299 C1300 1.524 . S
C1300 C1299 1.524 . S
C1300 C1301 1.397 . S
C1300 C1305 1.363 . S
C1301 H1272 0.950 . S
C1301 C1300 1.397 . S
C1301 C1302 1.334 . S
C1302 H1273 0.950 . S
C1302 C1301 1.334 . S
C1302 C1303 1.287 . S
C1303 C1302 1.287 . S
C1303 C1304 1.545 . S
C1303 H1306 0.999 . S
C1304 H1274 0.910 1_545 S
C1304 C1303 1.545 . S
C1304 C1305 1.440 . S
C1305 H1275 0.950 . S
C1305 C1300 1.363 . S
C1305 C1304 1.440 . S
H1306 C1303 0.999 . S
H1307 C1288 0.913 . S
H1308 C1326 0.951 . S
H1309 C1328 0.951 . S
H1310 C1330 0.950 . S
H1311 C1331 0.950 . S
H1312 C1333 0.950 . S
H1313 C1336 0.950 . S
H1314 C1337 0.950 . S
H1315 C1339 0.950 . S
H1316 C1340 0.950 . S
H1317 C1341 0.951 . S
H1318 C1343 0.951 . S
H1319 C1345 0.950 . S
H1320 C1346 0.950 1_556 S
H1321 C1348 0.950 . S
H1322 C1351 0.950 . S
H1323 C1352 0.950 . S
H1324 C1354 0.950 . S
H1325 C1355 0.950 . S
C1326 H1308 0.951 . S
C1326 C1327 1.366 . S
C1326 C1328 1.388 . S
C1327 C1326 1.366 . S
C1327 C1331 1.385 . S
C1328 H1309 0.951 . S
C1328 C1326 1.388 . S
C1328 C1329 1.366 . S
C1329 C1328 1.366 . S
C1329 C1330 1.414 . S
C1329 C1332 1.499 . S
C1330 H1310 0.950 . S
C1330 C1329 1.414 . S
C1330 C1331 1.374 . S
C1331 H1311 0.950 . S
C1331 C1327 1.385 . S
C1331 C1330 1.374 . S
C1332 C1329 1.499 . S
C1332 C1333 1.373 . S
C1332 C1334 1.389 . S
C1333 H1312 0.950 . S
C1333 C1332 1.373 . S
C1333 C1349 1.377 . S
C1334 C1332 1.389 . S
C1334 C1335 1.524 . S
C1334 C1348 1.377 . S
C1335 C1334 1.524 . S
C1335 C1336 1.397 . S
C1335 C1340 1.363 . S
C1336 H1313 0.950 . S
C1336 C1335 1.397 . S
C1336 C1337 1.334 . S
C1337 H1314 0.950 . S
C1337 C1336 1.334 . S
C1337 C1338 1.287 . S
C1338 C1337 1.287 . S
C1338 C1339 1.524 . S
C1338 H1357 0.913 . S
C1339 H1315 0.950 . S
C1339 C1338 1.524 . S
C1339 C1340 1.415 . S
C1340 H1316 0.950 . S
C1340 C1335 1.363 . S
C1340 C1339 1.415 . S
C1341 H1317 0.951 . S
C1341 C1342 1.366 . S
C1341 C1343 1.388 . S
C1342 C1341 1.366 . S
C1342 C1346 1.385 . S
C1343 H1318 0.951 . S
C1343 C1341 1.388 . S
C1343 C1344 1.366 . S
C1344 C1343 1.366 . S
C1344 C1345 1.414 . S
C1344 C1347 1.499 . S
C1345 H1319 0.950 . S
C1345 C1344 1.414 . S
C1345 C1346 1.374 . S
C1346 H1320 0.950 1_554 S
C1346 C1342 1.385 . S
C1346 C1345 1.374 . S
C1347 C1344 1.499 . S
C1347 C1348 1.373 . S
C1347 C1349 1.389 . S
C1348 H1321 0.950 . S
C1348 C1334 1.377 . S
C1348 C1347 1.373 . S
C1349 C1333 1.377 . S
C1349 C1347 1.389 . S
C1349 C1350 1.524 . S
C1350 C1349 1.524 . S
C1350 C1351 1.397 . S
C1350 C1355 1.363 . S
C1351 H1322 0.950 . S
C1351 C1350 1.397 . S
C1351 C1352 1.334 . S
C1352 H1323 0.950 . S
C1352 C1351 1.334 . S
C1352 C1353 1.287 . S
C1353 C1352 1.287 . S
C1353 C1354 1.524 . S
C1353 H1356 0.999 . S
C1354 H1324 0.950 . S
C1354 C1353 1.524 . S
C1354 C1355 1.415 . S
C1355 H1325 0.950 . S
C1355 C1350 1.363 . S
C1355 C1354 1.415 . S
H1356 C1353 0.999 . S
H1357 C1338 0.913 . S
H1358 C1376 0.951 . S
H1359 C1378 0.951 . S
H1360 C1380 0.950 . S
H1361 C1381 0.950 . S
H1362 C1383 0.950 . S
H1363 C1386 0.950 . S
H1364 C1387 0.950 . S
H1365 C1389 0.950 . S
H1366 C1390 0.950 . S
H1367 C1391 0.951 . S
H1368 C1393 0.951 . S
H1369 C1395 0.950 . S
H1370 C1396 0.950 . S
H1371 C1398 0.950 . S
H1372 C1401 0.950 . S
H1373 C1402 0.950 . S
H1374 C1404 0.950 . S
H1375 C1405 0.950 . S
C1376 H1358 0.951 . S
C1376 C1377 1.366 . S
C1376 C1378 1.388 . S
C1377 C1376 1.366 . S
C1377 C1381 1.385 . S
C1378 H1359 0.951 . S
C1378 C1376 1.388 . S
C1378 C1379 1.366 . S
C1379 C1378 1.366 . S
C1379 C1380 1.414 . S
C1379 C1382 1.499 . S
C1380 H1360 0.950 . S
C1380 C1379 1.414 . S
C1380 C1381 1.374 . S
C1381 H1361 0.950 . S
C1381 C1377 1.385 . S
C1381 C1380 1.374 . S
C1382 C1379 1.499 . S
C1382 C1383 1.373 . S
C1382 C1384 1.389 . S
C1383 H1362 0.950 . S
C1383 C1382 1.373 . S
C1383 C1399 1.377 . S
C1384 C1382 1.389 . S
C1384 C1385 1.524 . S
C1384 C1398 1.377 . S
C1385 C1384 1.524 . S
C1385 C1386 1.397 . S
C1385 C1390 1.363 . S
C1386 H1363 0.950 . S
C1386 C1385 1.397 . S
C1386 C1387 1.334 . S
C1387 H1364 0.950 . S
C1387 C1386 1.334 . S
C1387 C1388 1.287 . S
C1388 C1387 1.287 . S
C1388 C1389 1.524 . S
C1388 H1407 0.913 . S
C1389 H1365 0.950 . S
C1389 C1388 1.524 . S
C1389 C1390 1.415 . S
C1390 H1366 0.950 . S
C1390 C1385 1.363 . S
C1390 C1389 1.415 . S
C1391 H1367 0.951 . S
C1391 C1392 1.366 . S
C1391 C1393 1.388 . S
C1392 C1391 1.366 . S
C1392 C1396 1.385 . S
C1393 H1368 0.951 . S
C1393 C1391 1.388 . S
C1393 C1394 1.366 . S
C1394 C1393 1.366 . S
C1394 C1395 1.414 . S
C1394 C1397 1.499 . S
C1395 H1369 0.950 . S
C1395 C1394 1.414 . S
C1395 C1396 1.374 . S
C1396 H1370 0.950 . S
C1396 C1392 1.385 . S
C1396 C1395 1.374 . S
C1397 C1394 1.499 . S
C1397 C1398 1.373 . S
C1397 C1399 1.389 . S
C1398 H1371 0.950 . S
C1398 C1384 1.377 . S
C1398 C1397 1.373 . S
C1399 C1383 1.377 . S
C1399 C1397 1.389 . S
C1399 C1400 1.524 . S
C1400 C1399 1.524 . S
C1400 C1401 1.397 . S
C1400 C1405 1.363 . S
C1401 H1372 0.950 . S
C1401 C1400 1.397 . S
C1401 C1402 1.334 . S
C1402 H1373 0.950 . S
C1402 C1401 1.334 . S
C1402 C1403 1.287 . S
C1403 C1402 1.287 . S
C1403 C1404 1.524 . S
C1403 H1406 0.999 . S
C1404 H1374 0.950 . S
C1404 C1403 1.524 . S
C1404 C1405 1.415 . S
C1405 H1375 0.950 . S
C1405 C1400 1.363 . S
C1405 C1404 1.415 . S
H1406 C1403 0.999 . S
H1407 C1388 0.913 . S
H1408 C1426 0.951 . S
H1409 C1428 0.951 . S
H1410 C1430 0.950 . S
H1411 C1431 0.950 . S
H1412 C1433 0.950 . S
H1413 C1436 0.950 1_556 S
H1414 C1437 0.950 . S
H1415 C1439 0.950 . S
H1416 C1440 0.950 1_556 S
H1417 C1441 0.951 1_455 S
H1418 C1443 0.951 1_455 S
H1419 C1445 0.950 . S
H1420 C1446 0.950 . S
H1421 C1448 0.950 . S
H1422 C1451 0.950 . S
H1423 C1452 0.950 . S
H1424 C1454 0.950 . S
H1425 C1455 0.950 1_455 S
C1426 H1408 0.951 . S
C1426 C1427 1.366 . S
C1426 C1428 1.388 . S
C1427 C1426 1.366 . S
C1427 C1431 1.385 . S
C1428 H1409 0.951 . S
C1428 C1426 1.388 . S
C1428 C1429 1.366 . S
C1429 C1428 1.366 . S
C1429 C1430 1.414 . S
C1429 C1432 1.499 . S
C1430 H1410 0.950 . S
C1430 C1429 1.414 . S
C1430 C1431 1.374 . S
C1431 H1411 0.950 . S
C1431 C1427 1.385 . S
C1431 C1430 1.374 . S
C1432 C1429 1.499 . S
C1432 C1433 1.373 . S
C1432 C1434 1.389 . S
C1433 H1412 0.950 . S
C1433 C1432 1.373 . S
C1433 C1449 1.377 . S
C1434 C1432 1.389 . S
C1434 C1435 1.524 . S
C1434 C1448 1.377 . S
C1435 C1434 1.524 . S
C1435 C1436 1.397 1_556 S
C1435 C1440 1.363 1_556 S
C1436 H1413 0.950 1_554 S
C1436 C1435 1.397 1_554 S
C1436 C1437 1.332 . S
C1437 H1414 0.950 . S
C1437 C1436 1.332 . S
C1437 C1438 1.287 . S
C1438 C1437 1.287 . S
C1438 C1439 1.524 . S
C1438 H1457 0.913 . S
C1439 H1415 0.950 . S
C1439 C1438 1.524 . S
C1439 C1440 1.415 . S
C1440 H1416 0.950 1_554 S
C1440 C1435 1.363 1_554 S
C1440 C1439 1.415 . S
C1441 H1417 0.951 1_655 S
C1441 C1442 1.366 . S
C1441 C1443 1.388 . S
C1442 C1441 1.366 . S
C1442 C1446 1.385 . S
C1443 H1418 0.951 1_655 S
C1443 C1441 1.388 . S
C1443 C1444 1.366 . S
C1444 C1443 1.366 . S
C1444 C1445 1.414 . S
C1444 C1447 1.499 . S
C1445 H1419 0.950 . S
C1445 C1444 1.414 . S
C1445 C1446 1.374 . S
C1446 H1420 0.950 . S
C1446 C1442 1.385 . S
C1446 C1445 1.374 . S
C1447 C1444 1.499 . S
C1447 C1448 1.373 . S
C1447 C1449 1.389 . S
C1448 H1421 0.950 . S
C1448 C1434 1.377 . S
C1448 C1447 1.373 . S
C1449 C1433 1.377 . S
C1449 C1447 1.389 . S
C1449 C1450 1.524 . S
C1450 C1449 1.524 . S
C1450 C1451 1.397 . S
C1450 C1455 1.363 . S
C1451 H1422 0.950 . S
C1451 C1450 1.397 . S
C1451 C1452 1.334 . S
C1452 H1423 0.950 . S
C1452 C1451 1.334 . S
C1452 C1453 1.287 . S
C1453 C1452 1.287 . S
C1453 C1454 1.524 1_655 S
C1453 H1456 0.999 1_655 S
C1454 H1424 0.950 . S
C1454 C1453 1.524 1_455 S
C1454 C1455 1.415 1_455 S
C1455 H1425 0.950 1_655 S
C1455 C1450 1.363 . S
C1455 C1454 1.415 1_655 S
H1456 C1453 0.999 1_455 S
H1457 C1438 0.913 . S
H1458 C1476 0.951 . S
H1459 C1478 0.951 . S
H1460 C1480 0.950 . S
H1461 C1481 0.950 . S
H1462 C1483 0.950 . S
H1463 C1486 0.950 . S
H1464 C1487 0.950 . S
H1465 C1489 0.950 . S
H1466 C1490 0.950 1_556 S
H1467 C1491 0.951 . S
H1468 C1493 0.951 . S
H1469 C1495 0.950 . S
H1470 C1496 0.950 1_556 S
H1471 C1498 0.950 . S
H1472 C1501 0.950 . S
H1473 C1502 0.950 . S
H1474 C1504 0.950 . S
H1475 C1505 0.950 . S
C1476 H1458 0.951 . S
C1476 C1477 1.366 . S
C1476 C1478 1.388 . S
C1477 C1476 1.366 . S
C1477 C1481 1.385 . S
C1478 H1459 0.951 . S
C1478 C1476 1.388 . S
C1478 C1479 1.366 . S
C1479 C1478 1.366 . S
C1479 C1480 1.414 . S
C1479 C1482 1.499 . S
C1480 H1460 0.950 . S
C1480 C1479 1.414 . S
C1480 C1481 1.374 . S
C1481 H1461 0.950 . S
C1481 C1477 1.385 . S
C1481 C1480 1.374 . S
C1482 C1479 1.499 . S
C1482 C1483 1.373 . S
C1482 C1484 1.389 . S
C1483 H1462 0.950 . S
C1483 C1482 1.373 . S
C1483 C1499 1.377 . S
C1484 C1482 1.389 . S
C1484 C1485 1.524 . S
C1484 C1498 1.377 . S
C1485 C1484 1.524 . S
C1485 C1486 1.397 . S
C1485 C1490 1.363 . S
C1486 H1463 0.950 . S
C1486 C1485 1.397 . S
C1486 C1487 1.334 . S
C1487 H1464 0.950 . S
C1487 C1486 1.334 . S
C1487 C1488 1.287 . S
C1488 C1487 1.287 . S
C1488 C1489 1.524 1_554 S
C1488 H1507 0.913 . S
C1489 H1465 0.950 . S
C1489 C1488 1.524 1_556 S
C1489 C1490 1.415 1_556 S
C1490 H1466 0.950 1_554 S
C1490 C1485 1.363 . S
C1490 C1489 1.415 1_554 S
C1491 H1467 0.951 . S
C1491 C1492 1.366 . S
C1491 C1493 1.388 . S
C1492 C1491 1.366 . S
C1492 C1496 1.385 . S
C1493 H1468 0.951 . S
C1493 C1491 1.388 . S
C1493 C1494 1.366 . S
C1494 C1493 1.366 . S
C1494 C1495 1.414 . S
C1494 C1497 1.499 . S
C1495 H1469 0.950 . S
C1495 C1494 1.414 . S
C1495 C1496 1.374 . S
C1496 H1470 0.950 1_554 S
C1496 C1492 1.385 . S
C1496 C1495 1.374 . S
C1497 C1494 1.499 . S
C1497 C1498 1.373 . S
C1497 C1499 1.389 . S
C1498 H1471 0.950 . S
C1498 C1484 1.377 . S
C1498 C1497 1.373 . S
C1499 C1483 1.377 . S
C1499 C1497 1.389 . S
C1499 C1500 1.524 . S
C1500 C1499 1.524 . S
C1500 C1501 1.397 . S
C1500 C1505 1.363 . S
C1501 H1472 0.950 . S
C1501 C1500 1.397 . S
C1501 C1502 1.334 . S
C1502 H1473 0.950 . S
C1502 C1501 1.334 . S
C1502 C1503 1.287 . S
C1503 C1502 1.287 . S
C1503 C1504 1.524 . S
C1503 H1506 0.999 . S
C1504 H1474 0.950 . S
C1504 C1503 1.524 . S
C1504 C1505 1.415 . S
C1505 H1475 0.950 . S
C1505 C1500 1.363 . S
C1505 C1504 1.415 . S
H1506 C1503 0.999 . S
H1507 C1488 0.913 . S
H1508 C1526 0.951 . S
H1509 C1528 0.951 . S
H1510 C1530 0.950 . S
H1511 C1531 0.950 . S
H1512 C1533 0.950 . S
H1513 C1536 0.950 . S
H1514 C1537 0.950 . S
H1515 C1539 0.950 . S
H1516 C1540 0.950 . S
H1517 C1541 0.951 . S
H1518 C1543 0.951 . S
H1519 C1545 0.950 . S
H1520 C1546 0.950 1_655 S
H1521 C1548 0.950 . S
H1522 C1551 0.950 1_655 S
H1523 C1552 0.950 . S
H1524 C1554 0.950 . S
H1525 C1555 0.950 . S
C1526 H1508 0.951 . S
C1526 C1527 1.366 . S
C1526 C1528 1.388 . S
C1527 C1526 1.366 . S
C1527 C1531 1.385 . S
C1528 H1509 0.951 . S
C1528 C1526 1.388 . S
C1528 C1529 1.366 . S
C1529 C1528 1.366 . S
C1529 C1530 1.414 . S
C1529 C1532 1.499 . S
C1530 H1510 0.950 . S
C1530 C1529 1.414 . S
C1530 C1531 1.374 . S
C1531 H1511 0.950 . S
C1531 C1527 1.385 . S
C1531 C1530 1.374 . S
C1532 C1529 1.499 . S
C1532 C1533 1.373 . S
C1532 C1534 1.389 . S
C1533 H1512 0.950 . S
C1533 C1532 1.373 . S
C1533 C1549 1.377 . S
C1534 C1532 1.389 . S
C1534 C1535 1.524 . S
C1534 C1548 1.377 . S
C1535 C1534 1.524 . S
C1535 C1536 1.397 . S
C1535 C1540 1.363 . S
C1536 H1513 0.950 . S
C1536 C1535 1.397 . S
C1536 C1537 1.334 . S
C1537 H1514 0.950 . S
C1537 C1536 1.334 . S
C1537 C1538 1.287 . S
C1538 C1537 1.287 . S
C1538 C1539 1.524 . S
C1538 H1557 0.913 . S
C1539 H1515 0.950 . S
C1539 C1538 1.524 . S
C1539 C1540 1.415 . S
C1540 H1516 0.950 . S
C1540 C1535 1.363 . S
C1540 C1539 1.415 . S
C1541 H1517 0.951 . S
C1541 C1542 1.366 . S
C1541 C1543 1.388 . S
C1542 C1541 1.366 . S
C1542 C1546 1.385 . S
C1543 H1518 0.951 . S
C1543 C1541 1.388 . S
C1543 C1544 1.366 . S
C1544 C1543 1.366 . S
C1544 C1545 1.414 . S
C1544 C1547 1.499 . S
C1545 H1519 0.950 . S
C1545 C1544 1.414 . S
C1545 C1546 1.374 . S
C1546 H1520 0.950 1_455 S
C1546 C1542 1.385 . S
C1546 C1545 1.374 . S
C1547 C1544 1.499 . S
C1547 C1548 1.373 . S
C1547 C1549 1.389 . S
C1548 H1521 0.950 . S
C1548 C1534 1.377 . S
C1548 C1547 1.373 . S
C1549 C1533 1.377 . S
C1549 C1547 1.389 . S
C1549 C1550 1.524 . S
C1550 C1549 1.524 . S
C1550 C1551 1.397 . S
C1550 C1555 1.363 . S
C1551 H1522 0.950 1_455 S
C1551 C1550 1.397 . S
C1551 C1552 1.334 1_455 S
C1552 H1523 0.950 . S
C1552 C1551 1.334 1_655 S
C1552 C1553 1.287 1_655 S
C1553 C1552 1.287 1_455 S
C1553 C1554 1.524 . S
C1553 H1556 0.999 . S
C1554 H1524 0.950 . S
C1554 C1553 1.524 . S
C1554 C1555 1.415 . S
C1555 H1525 0.950 . S
C1555 C1550 1.363 . S
C1555 C1554 1.415 . S
H1556 C1553 0.999 . S
H1557 C1538 0.913 . S
H1558 C1576 0.951 . S
H1559 C1578 0.951 . S
H1560 C1580 0.950 . S
H1561 C1581 0.950 . S
H1562 C1583 0.950 . S
H1563 C1586 0.950 . S
H1564 C1587 0.950 . S
H1565 C1589 0.950 . S
H1566 C1590 0.950 . S
H1567 C1591 0.951 . S
H1568 C1593 0.951 . S
H1569 C1595 0.950 . S
H1570 C1596 0.950 . S
H1571 C1598 0.950 . S
H1572 C1601 0.950 . S
H1573 C1602 0.950 . S
H1574 C1604 0.950 . S
H1575 C1605 0.950 . S
C1576 H1558 0.951 . S
C1576 C1577 1.366 . S
C1576 C1578 1.388 . S
C1577 C1576 1.366 . S
C1577 C1581 1.385 . S
C1578 H1559 0.951 . S
C1578 C1576 1.388 . S
C1578 C1579 1.366 . S
C1579 C1578 1.366 . S
C1579 C1580 1.414 . S
C1579 C1582 1.499 . S
C1580 H1560 0.950 . S
C1580 C1579 1.414 . S
C1580 C1581 1.374 . S
C1581 H1561 0.950 . S
C1581 C1577 1.385 . S
C1581 C1580 1.374 . S
C1582 C1579 1.499 . S
C1582 C1583 1.373 . S
C1582 C1584 1.389 . S
C1583 H1562 0.950 . S
C1583 C1582 1.373 . S
C1583 C1599 1.377 . S
C1584 C1582 1.389 . S
C1584 C1585 1.524 . S
C1584 C1598 1.377 . S
C1585 C1584 1.524 . S
C1585 C1586 1.397 . S
C1585 C1590 1.363 . S
C1586 H1563 0.950 . S
C1586 C1585 1.397 . S
C1586 C1587 1.334 . S
C1587 H1564 0.950 . S
C1587 C1586 1.334 . S
C1587 C1588 1.287 . S
C1588 C1587 1.287 . S
C1588 C1589 1.524 . S
C1588 H1607 0.913 . S
C1589 H1565 0.950 . S
C1589 C1588 1.524 . S
C1589 C1590 1.415 . S
C1590 H1566 0.950 . S
C1590 C1585 1.363 . S
C1590 C1589 1.415 . S
C1591 H1567 0.951 . S
C1591 C1592 1.366 . S
C1591 C1593 1.388 . S
C1592 C1591 1.366 . S
C1592 C1596 1.385 . S
C1593 H1568 0.951 . S
C1593 C1591 1.388 . S
C1593 C1594 1.366 . S
C1594 C1593 1.366 . S
C1594 C1595 1.414 . S
C1594 C1597 1.499 . S
C1595 H1569 0.950 . S
C1595 C1594 1.414 . S
C1595 C1596 1.374 . S
C1596 H1570 0.950 . S
C1596 C1592 1.385 . S
C1596 C1595 1.374 . S
C1597 C1594 1.499 . S
C1597 C1598 1.373 . S
C1597 C1599 1.389 . S
C1598 H1571 0.950 . S
C1598 C1584 1.377 . S
C1598 C1597 1.373 . S
C1599 C1583 1.377 . S
C1599 C1597 1.389 . S
C1599 C1600 1.524 . S
C1600 C1599 1.524 . S
C1600 C1601 1.397 . S
C1600 C1605 1.363 . S
C1601 H1572 0.950 . S
C1601 C1600 1.397 . S
C1601 C1602 1.334 . S
C1602 H1573 0.950 . S
C1602 C1601 1.334 . S
C1602 C1603 1.287 . S
C1603 C1602 1.287 . S
C1603 C1604 1.524 . S
C1603 H1606 0.999 . S
C1604 H1574 0.950 . S
C1604 C1603 1.524 . S
C1604 C1605 1.415 . S
C1605 H1575 0.950 . S
C1605 C1600 1.363 . S
C1605 C1604 1.415 . S
H1606 C1603 0.999 . S
H1607 C1588 0.913 . S
C427 C1 2.156 . S
C442 C304 2.187 . S
C477 C67 1.089 . S
C492 N324 1.084 . S
C542 C358 1.966 . S
C527 C97 1.935 . S
C577 C133 1.342 . S
C592 N392 1.274 . S
C642 C345 2.379 . S
C627 C25 2.342 . S
C692 N302 1.167 . S
C677 C37 1.193 . S
C742 C379 1.968 . S
C727 C103 1.936 . S
C792 N354 1.004 . S
C777 C109 1.011 . S
C827 C31 1.827 . S
C842 C394 1.864 . S
C892 C328 1.695 . S
C877 C73 1.667 . S
C927 C139 1.493 . S
C942 C289 1.494 . S
C977 C61 1.432 . S
C992 C375 1.463 . S
C1042 C315 2.198 . S
C1027 C175 2.195 . S
C1077 C181 1.080 . S
C1092 N332 1.072 . S
C1127 C247 1.990 . S
C1142 C349 1.988 . S
C1177 C277 1.332 . S
C1192 N384 1.269 . S
C1227 C145 2.370 . S
C1242 C334 2.373 . S
C1292 N294 1.173 . S
C1277 C211 1.193 . S
C1342 C388 1.950 . S
C1327 C217 1.945 . S
C1392 N362 1.020 . S
C1377 C283 1.031 . S
C1427 C169 1.850 . S
C1442 C405 1.856 . S
C1492 C319 1.698 . S
C1477 C241 1.695 . S
C1542 C298 1.480 . S
C1527 C253 1.477 . S
C1577 C205 1.441 . S
C1592 C364 1.473 . S
