# Generated by pormake.
# Topology zzz, (3,6)-cn, num edge types: 1
# Building blocks:
#     Node 0, Type 0, BuildingBlock: CUQRIR_clean_linker_1, # of connection points: 3
#     Node 1, Type 0, BuildingBlock: CUQRIR_clean_linker_1, # of connection points: 3
#     Node 2, Type 0, BuildingBlock: CUQRIR_clean_linker_1, # of connection points: 3
#     Node 3, Type 0, BuildingBlock: CUQRIR_clean_linker_1, # of connection points: 3
#     Node 4, Type 0, BuildingBlock: CUQRIR_clean_linker_1, # of connection points: 3
#     Node 5, Type 0, BuildingBlock: CUQRIR_clean_linker_1, # of connection points: 3
#     Node 6, Type 0, BuildingBlock: CUQRIR_clean_linker_1, # of connection points: 3
#     Node 7, Type 0, BuildingBlock: CUQRIR_clean_linker_1, # of connection points: 3
#     Node 8, Type 1, BuildingBlock: BETDEL_clean_sbu_0, # of connection points: 6
#     Node 9, Type 1, BuildingBlock: BETDEL_clean_sbu_0, # of connection points: 6
#     Node 10, Type 1, BuildingBlock: BETDEL_clean_sbu_0, # of connection points: 6
#     Node 11, Type 1, BuildingBlock: BETDEL_clean_sbu_0, # of connection points: 6
#     Edge 12, Type (0, 1), BuildingBlock: OJICUG_clean_linker_0, # of connection points: 2
#     Edge 13, Type (0, 1), BuildingBlock: OJICUG_clean_linker_0, # of connection points: 2
#     Edge 14, Type (0, 1), BuildingBlock: OJICUG_clean_linker_0, # of connection points: 2
#     Edge 15, Type (0, 1), BuildingBlock: OJICUG_clean_linker_0, # of connection points: 2
#     Edge 16, Type (0, 1), BuildingBlock: OJICUG_clean_linker_0, # of connection points: 2
#     Edge 17, Type (0, 1), BuildingBlock: OJICUG_clean_linker_0, # of connection points: 2
#     Edge 18, Type (0, 1), BuildingBlock: OJICUG_clean_linker_0, # of connection points: 2
#     Edge 19, Type (0, 1), BuildingBlock: OJICUG_clean_linker_0, # of connection points: 2
#     Edge 20, Type (0, 1), BuildingBlock: OJICUG_clean_linker_0, # of connection points: 2
#     Edge 21, Type (0, 1), BuildingBlock: OJICUG_clean_linker_0, # of connection points: 2
#     Edge 22, Type (0, 1), BuildingBlock: OJICUG_clean_linker_0, # of connection points: 2
#     Edge 23, Type (0, 1), BuildingBlock: OJICUG_clean_linker_0, # of connection points: 2
#     Edge 24, Type (0, 1), BuildingBlock: OJICUG_clean_linker_0, # of connection points: 2
#     Edge 25, Type (0, 1), BuildingBlock: OJICUG_clean_linker_0, # of connection points: 2
#     Edge 26, Type (0, 1), BuildingBlock: OJICUG_clean_linker_0, # of connection points: 2
#     Edge 27, Type (0, 1), BuildingBlock: OJICUG_clean_linker_0, # of connection points: 2
#     Edge 28, Type (0, 1), BuildingBlock: OJICUG_clean_linker_0, # of connection points: 2
#     Edge 29, Type (0, 1), BuildingBlock: OJICUG_clean_linker_0, # of connection points: 2
#     Edge 30, Type (0, 1), BuildingBlock: OJICUG_clean_linker_0, # of connection points: 2
#     Edge 31, Type (0, 1), BuildingBlock: OJICUG_clean_linker_0, # of connection points: 2
#     Edge 32, Type (0, 1), BuildingBlock: OJICUG_clean_linker_0, # of connection points: 2
#     Edge 33, Type (0, 1), BuildingBlock: OJICUG_clean_linker_0, # of connection points: 2
#     Edge 34, Type (0, 1), BuildingBlock: OJICUG_clean_linker_0, # of connection points: 2
#     Edge 35, Type (0, 1), BuildingBlock: OJICUG_clean_linker_0, # of connection points: 2
# Relax obj value: 0.198
# Max RMSD: 0.205
# Mean RMSD: 0.126
data_MOF--net-zzz--node1-BETDEL_clean_sbu_0--node2-CUQRIR_clean_linker_1--edge1-OJICUG_clean_linker_0
_symmetry_space_group_name_H-M    P1
_symmetry_Int_Tables_number       1
_symmetry_cell_setting            triclinic
loop_
_symmetry_equiv_pos_as_xyz
'x, y, z'
_cell_length_a     31.755762
_cell_length_b     32.775764
_cell_length_c     9.3146188
_cell_angle_alpha  91.37634
_cell_angle_beta   88.24473
_cell_angle_gamma 94.810618
loop_
_atom_site_label
_atom_site_type_symbol
_atom_site_fract_x
_atom_site_fract_y
_atom_site_fract_z
_atom_type_partial_charge
C0 C 0.74841 0.53416 0.19984 0.0
N1 N 0.78407 0.51524 0.21963 0.0
N2 N 0.72534 0.5147 0.09455 0.0
C3 C 0.73863 0.57389 0.2709 0.0
C4 C 0.7485 0.4836 0.05141 0.0
N5 N 0.78449 0.48412 0.12563 0.0
C6 C 0.73855 0.45592 0.9236 0.0
H7 H 0.70409 0.57709 0.27257 0.0
H8 H 0.75484 0.59947 0.20914 0.0
H9 H 0.75044 0.5759 0.38199 0.0
H10 H 0.74858 0.47229 0.82375 0.0
H11 H 0.70397 0.44766 0.91977 0.0
H12 H 0.75547 0.4277 0.9278 0.0
C13 C 1.01673 0.74357 0.20179 0.0
N14 N 0.0312 0.78358 0.21302 0.0
N15 N 0.03611 0.72507 0.08882 0.0
C16 C 0.98053 0.72396 0.28946 0.0
C17 C 0.06225 0.75558 0.03145 0.0
N18 N 0.05945 0.79101 0.10688 0.0
C19 C 0.08654 0.75193 0.89126 0.0
H20 H 0.9825 0.69035 0.2933 0.0
H21 H 0.9505 0.72983 0.23889 0.0
H22 H 0.98027 0.7374 0.39999 0.0
H23 H 0.06528 0.75637 0.80159 0.0
H24 H 0.09811 0.72098 0.87829 0.0
H25 H 0.11364 0.77558 0.88519 0.0
C26 C 0.79509 1.01332 0.21648 0.0
N27 N 0.75712 0.02899 0.24143 0.0
N28 N 0.81506 0.03006 0.09775 0.0
C29 C 0.8112 0.9797 0.30028 0.0
C30 C 0.7877 0.05619 0.05181 0.0
N31 N 0.75253 0.05527 0.13745 0.0
C32 C 0.79292 0.07863 0.91225 0.0
H33 H 0.84626 0.98318 0.30175 0.0
H34 H 0.80147 0.94986 0.24735 0.0
H35 H 0.79788 0.97969 0.41183 0.0
H36 H 0.82655 0.08232 0.87535 0.0
H37 H 0.78093 0.10935 0.92442 0.0
H38 H 0.77423 0.06112 0.82904 0.0
C39 C 0.53772 0.79429 0.2245 0.0
N40 N 0.52071 0.75574 0.25097 0.0
N41 N 0.5153 0.81186 0.12411 0.0
C42 C 0.57864 0.81292 0.28283 0.0
C43 C 0.48406 0.78247 0.09292 0.0
N44 N 0.48786 0.74811 0.1668 0.0
C45 C 0.45119 0.78591 0.98182 0.0
H46 H 0.57308 0.84207 0.34061 0.0
H47 H 0.60138 0.82032 0.1925 0.0
H48 H 0.59246 0.79208 0.35718 0.0
H49 H 0.46252 0.77338 0.87725 0.0
H50 H 0.44468 0.81833 0.96848 0.0
H51 H 0.42152 0.76758 0.01355 0.0
C52 C 0.30015 0.50478 0.0036 0.0
N53 N 0.26494 0.52392 0.97852 0.0
N54 N 0.32317 0.52534 0.1068 0.0
C55 C 0.30946 0.46399 0.93992 0.0
C56 C 0.30048 0.55736 0.14295 0.0
N57 N 0.26466 0.55622 0.06745 0.0
C58 C 0.3106 0.58678 0.26599 0.0
H59 H 0.29244 0.43951 0.00475 0.0
H60 H 0.34385 0.46021 0.94131 0.0
H61 H 0.29819 0.46074 0.82826 0.0
H62 H 0.34524 0.59477 0.2692 0.0
H63 H 0.30032 0.57202 0.36863 0.0
H64 H 0.29403 0.61504 0.25612 0.0
C65 C 0.03068 0.2956 0.9819 0.0
N66 N 1.01602 0.25563 0.97072 0.0
N67 N 1.01086 0.31443 0.09319 0.0
C68 C 0.06762 0.31477 0.89665 0.0
C69 C 0.98417 0.28415 0.14944 0.0
N70 N 0.98734 0.24844 0.07586 0.0
C71 C 0.95926 0.28823 0.28825 0.0
H72 H 0.09721 0.30851 0.94938 0.0
H73 H 0.06615 0.34844 0.89246 0.0
H74 H 0.06837 0.30132 0.78619 0.0
H75 H 0.94692 0.31891 0.29754 0.0
H76 H 0.98031 0.28507 0.37956 0.0
H77 H 0.93266 0.26407 0.29521 0.0
C78 C 0.25529 0.03116 0.96977 0.0
N79 N 0.29302 1.0148 0.94748 0.0
N80 N 0.23491 1.0156 0.08967 0.0
C81 C 0.23961 0.06399 0.88121 0.0
C82 C 0.26175 0.98963 0.13951 0.0
N83 N 0.29693 0.98926 0.0543 0.0
C84 C 0.25628 0.96909 0.28262 0.0
H85 H 0.24982 0.0943 0.92993 0.0
H86 H 0.20454 0.06094 0.8802 0.0
H87 H 0.25285 0.06258 0.76971 0.0
H88 H 0.22263 0.96605 0.31943 0.0
H89 H 0.27492 0.98768 0.36335 0.0
H90 H 0.26819 0.93825 0.27596 0.0
C91 C 0.51725 0.24619 0.95975 0.0
N92 N 0.52888 0.28692 0.95393 0.0
N93 N 0.53797 0.22884 0.06556 0.0
C94 C 0.4846 0.224 0.86719 0.0
C95 C 0.56209 0.26076 0.12383 0.0
N96 N 0.55692 0.2957 0.05513 0.0
C97 C 0.58687 0.25871 0.2588 0.0
H98 H 0.45282 0.22738 0.91668 0.0
H99 H 0.48956 0.19091 0.85788 0.0
H100 H 0.48562 0.23751 0.75889 0.0
H101 H 0.61581 0.24287 0.23388 0.0
H102 H 0.56779 0.24088 0.34125 0.0
H103 H 0.59687 0.28948 0.30395 0.0
Dy104 Dy 0.05132 1.00593 0.72161 0.0
C105 C 0.99538 0.08473 0.23937 0.0
C106 C 0.07313 0.95654 0.93584 0.0
Dy107 Dy 1.00256 0.03334 0.46035 0.0
O108 O 0.09722 0.96872 0.82756 0.0
O109 O 0.03803 0.97412 0.93062 0.0
O110 O 0.11035 0.03905 0.62983 0.0
O111 O 0.06494 1.01162 0.49079 0.0
C112 C 0.09993 0.03316 0.49619 0.0
C113 C 0.94751 0.01925 0.6834 0.0
O114 O 1.00206 0.96762 0.39094 0.0
O115 O 0.029 0.94678 0.60548 0.0
O116 O 0.96478 0.05989 0.29069 0.0
O117 O 0.0303 0.07755 0.2993 0.0
O118 O 0.93618 0.02848 0.55597 0.0
O119 O 0.987 0.01663 0.67913 0.0
O120 O 0.04508 0.0702 0.80014 0.0
O121 O 1.02267 0.0919 0.58138 0.0
C122 C 1.01274 0.93854 0.47675 0.0
C123 C 0.03545 0.09957 0.7143 0.0
Dy124 Dy 0.50745 0.99098 0.47985 0.0
C125 C 0.5958 0.08616 0.90504 0.0
C126 C 0.45277 0.9549 0.28415 0.0
Dy127 Dy 0.5429 0.04893 0.70501 0.0
O128 O 0.4883 0.97592 0.25451 0.0
O129 O 0.44885 0.95178 0.42244 0.0
O130 O 0.56917 0.96242 0.44252 0.0
O131 O 0.56948 0.02402 0.50604 0.0
C132 C 0.59263 0.99478 0.48428 0.0
C133 C 0.45767 0.04539 0.69733 0.0
O134 O 0.54703 0.09169 0.52167 0.0
O135 O 0.49814 0.05262 0.38709 0.0
O136 O 0.56058 0.06435 0.93236 0.0
O137 O 0.60021 0.08945 0.76705 0.0
O138 O 0.48132 0.0782 0.7335 0.0
O139 O 0.48074 1.01589 0.67937 0.0
O140 O 0.51016 0.94509 0.64944 0.0
O141 O 0.55292 0.98727 0.79747 0.0
C142 C 0.5221 0.08699 0.41048 0.0
C143 C 0.53367 0.95097 0.76381 0.0
Dy144 Dy 0.49843 0.53538 0.73324 0.0
C145 C 0.56888 0.4607 0.25052 0.0
C146 C 0.4757 0.58351 0.96325 0.0
Dy147 Dy 0.54755 0.50846 0.48142 0.0
O148 O 0.45171 0.57099 0.85814 0.0
O149 O 0.51144 0.56732 0.94489 0.0
O150 O 0.43907 0.50317 0.64877 0.0
O151 O 0.4848 0.53035 0.50467 0.0
C152 C 0.44979 0.5089 0.51429 0.0
C153 C 0.59616 0.53488 0.70083 0.0
O154 O 0.54799 0.57265 0.40832 0.0
O155 O 0.52333 0.59499 0.62996 0.0
O156 O 0.59359 0.47288 0.35414 0.0
O157 O 0.5335 0.4774 0.27003 0.0
O158 O 0.60679 0.54076 0.56634 0.0
O159 O 0.56119 0.51336 0.71011 0.0
O160 O 0.49854 0.47051 0.80402 0.0
O161 O 0.52326 0.44862 0.5819 0.0
C162 C 0.53869 0.60261 0.49827 0.0
C163 C 0.50811 0.44067 0.71329 0.0
Dy164 Dy 1.00632 0.49378 0.71243 0.0
C165 C 0.0966 0.57275 0.25742 0.0
C166 C 0.95229 0.46624 0.93261 0.0
Dy167 Dy 0.04337 0.54409 0.47833 0.0
O168 O 0.96235 0.44544 0.81828 0.0
O169 O 0.97441 0.50135 0.92844 0.0
O170 O 0.0361 0.43918 0.62025 0.0
O171 O 1.01385 0.48153 0.48088 0.0
C172 C 0.0326 0.44905 0.48697 0.0
C173 C 1.0163 0.58872 0.70268 0.0
O174 O 0.97812 0.54068 0.39476 0.0
O175 O 0.94885 0.51543 0.60776 0.0
O176 O 0.08604 0.59329 0.37176 0.0
O177 O 0.07548 0.53712 0.26227 0.0
O178 O 1.0128 0.59833 0.5692 0.0
O179 O 0.03558 0.55656 0.70951 0.0
O180 O 0.07139 0.49691 0.79681 0.0
O181 O 0.10091 0.52279 0.58493 0.0
C182 C 0.9447 0.53014 0.47795 0.0
C183 C 0.10492 0.50783 0.71465 0.0
C184 C 0.15802 1.0116 0.14217 0.0
C185 C 0.19881 0.02942 0.1693 0.0
H186 H 0.09418 0.99922 0.22349 0.0
C187 C 0.20515 0.05313 0.2956 0.0
H188 H 0.15283 0.99255 0.04694 0.0
C189 C 0.17215 0.0565 0.3976 0.0
C190 C 0.13196 0.03624 0.37559 0.0
H191 H 0.23655 0.06648 0.31991 0.0
H192 H 0.17882 0.07308 0.49746 0.0
C193 C 0.12475 1.01516 0.24388 0.0
C194 C 0.49189 0.17226 0.17489 0.0
C195 C 0.53192 0.18823 0.1238 0.0
H196 H 0.45716 0.12677 0.30548 0.0
C197 C 0.56745 0.16754 0.1544 0.0
H198 H 0.46406 0.1879 0.1544 0.0
C199 C 0.56384 0.13413 0.24544 0.0
C200 C 0.5243 0.11961 0.30332 0.0
H201 H 0.59846 0.1789 0.11446 0.0
H202 H 0.59216 0.12013 0.27313 0.0
C203 C 0.48803 0.13773 0.26261 0.0
C204 C 0.39823 0.52215 0.15786 0.0
C205 C 0.35572 0.51121 0.19286 0.0
H206 H 0.46186 0.53012 0.23199 0.0
C207 C 0.34506 0.49446 0.3277 0.0
H208 H 0.40645 0.53527 0.05484 0.0
C209 C 0.37617 0.4913 0.42933 0.0
C210 C 0.41852 0.50526 0.39833 0.0
H211 H 0.31222 0.48643 0.35736 0.0
H212 H 0.36663 0.48013 0.53491 0.0
C213 C 0.42951 0.51932 0.25951 0.0
C214 C 1.00517 0.3879 0.14616 0.0
C215 C 1.02453 0.35177 0.16913 0.0
H216 H 0.99327 0.44788 0.22784 0.0
C217 C 0.05075 0.35006 0.28696 0.0
H218 H 0.98419 0.38938 0.05736 0.0
C219 C 0.05532 0.38284 0.3858 0.0
C220 C 0.03395 0.41815 0.36816 0.0
H221 H 0.0653 0.32212 0.30752 0.0
H222 H 0.07391 0.3797 0.47992 0.0
C223 C 1.01018 0.42109 0.24418 0.0
C224 C 0.89211 0.02944 0.04778 0.0
C225 C 0.85033 1.01623 0.01333 0.0
H226 H 0.95695 0.03931 0.97081 0.0
C227 C 0.84286 0.99733 0.8787 0.0
H228 H 0.89814 0.04484 0.1498 0.0
C229 C 0.87559 0.99553 0.77544 0.0
C230 C 0.91692 1.01153 0.80551 0.0
H231 H 0.81086 0.98728 0.84925 0.0
H232 H 0.86802 0.98379 0.66873 0.0
C233 C 0.92544 0.02654 0.94521 0.0
C234 C 0.53262 0.88674 0.09807 0.0
C235 C 0.52803 0.84701 0.03745 0.0
H236 H 0.53992 0.95139 0.05707 0.0
C237 C 0.5318 0.84208 0.88741 0.0
H238 H 0.53015 0.89132 0.2134 0.0
C239 C 0.5353 0.87601 0.7989 0.0
C240 C 0.53697 0.91579 0.85853 0.0
H241 H 0.52997 0.81175 0.83828 0.0
H242 H 0.53561 0.87107 0.68342 0.0
C243 C 0.53778 0.92095 0.00889 0.0
C244 C 0.70152 0.54875 0.88299 0.0
C245 C 0.69193 0.52937 0.01403 0.0
H246 H 0.67851 0.56615 0.68135 0.0
C247 C 0.64982 0.51674 0.04924 0.0
H248 H 0.73408 0.55808 0.85312 0.0
C249 C 0.61786 0.5208 0.95108 0.0
C250 C 0.62784 0.53753 0.81534 0.0
H251 H 0.64248 0.50127 0.14884 0.0
H252 H 0.58588 0.50874 0.97808 0.0
C253 C 0.66976 0.55296 0.78466 0.0
C254 C 0.99664 0.68801 0.89725 0.0
C255 C 1.02296 0.68725 0.0151 0.0
H256 H 0.97376 0.65714 0.70623 0.0
C257 C 0.0428 0.65152 0.04055 0.0
H258 H 0.98169 0.7156 0.87496 0.0
C259 C 0.03822 0.61783 0.94452 0.0
C260 C 1.01438 0.61987 0.82032 0.0
H261 H 0.06382 0.65076 0.12958 0.0
H262 H 0.05552 0.59139 0.96242 0.0
C263 C 0.99244 0.65472 0.80058 0.0
C264 C 0.95665 0.17681 0.06053 0.0
C265 C 0.97939 0.20861 0.13646 0.0
H266 H 0.94372 0.11164 0.03304 0.0
C267 C 1.00422 0.1992 0.25049 0.0
H268 H 0.938 0.1837 0.97021 0.0
C269 C 1.00928 0.15877 0.28069 0.0
C270 C 0.98854 0.12672 0.20056 0.0
H271 H 1.02286 0.22323 0.30748 0.0
H272 H 0.0303 0.15267 0.36561 0.0
C273 C 0.96067 0.13584 0.09416 0.0
C274 C 0.34522 0.93772 0.12268 0.0
C275 C 0.33708 0.9786 0.10201 0.0
H276 H 0.38954 0.89747 0.19944 0.0
C277 C 0.3684 1.01009 0.13059 0.0
H278 H 0.32117 0.91312 0.10116 0.0
C279 C 0.40757 1.00119 0.17611 0.0
C280 C 0.4155 0.96067 0.20204 0.0
H281 H 0.36209 0.04181 0.12068 0.0
H282 H 0.43073 0.02641 0.20059 0.0
C283 C 0.38418 0.92879 0.17598 0.0
C284 C 0.59285 0.36519 0.03952 0.0
C285 C 0.56566 0.3362 0.11293 0.0
H286 H 0.61589 0.42876 0.02683 0.0
C287 C 0.54073 0.34846 0.2295 0.0
H288 H 0.61146 0.35592 0.94691 0.0
C289 C 0.54162 0.3894 0.26975 0.0
C290 C 0.56843 0.41863 0.19693 0.0
H291 H 0.51882 0.32645 0.28395 0.0
H292 H 0.52097 0.39827 0.35755 0.0
C293 C 0.59483 0.40649 0.08327 0.0
C294 C 0.20967 0.55194 0.25302 0.0
C295 C 0.22571 0.5697 0.1257 0.0
H296 H 0.15551 0.53748 0.38633 0.0
C297 C 0.19942 0.59176 0.04283 0.0
H298 H 0.22879 0.53331 0.31484 0.0
C299 C 0.15691 0.59462 0.08571 0.0
C300 C 0.14095 0.5749 0.21026 0.0
H301 H 0.21119 0.60474 0.94214 0.0
H302 H 0.13642 0.61056 0.0196 0.0
C303 C 0.16772 0.55409 0.29345 0.0
C304 C 0.04587 0.84361 0.93882 0.0
C305 C 0.06953 0.83125 0.0517 0.0
H306 H 0.02707 0.89362 0.82105 0.0
C307 C 0.09577 0.86046 0.12727 0.0
H308 H 1.02444 0.82165 0.88294 0.0
C309 C 0.09785 0.90187 0.09054 0.0
C310 C 0.07259 0.91411 0.98118 0.0
H311 H 0.11336 0.85133 0.21721 0.0
H312 H 0.11804 0.92416 0.14954 0.0
C313 C 0.04693 0.8847 0.90533 0.0
C314 C 0.70271 0.10568 0.07043 0.0
C315 C 0.71193 0.06507 0.09038 0.0
H316 H 0.65767 0.14482 0.99181 0.0
C317 C 0.6814 0.03296 0.06017 0.0
H318 H 0.72609 0.1308 0.09293 0.0
C319 C 0.64193 0.04097 0.01449 0.0
C320 C 0.63301 0.08121 0.98884 0.0
H321 H 0.68857 1.00144 0.06845 0.0
H322 H 0.61943 1.01528 0.98899 0.0
C323 C 0.6636 0.1137 0.01585 0.0
C324 C 0.49947 0.69647 0.98296 0.0
C325 C 0.47738 0.70783 0.10774 0.0
H326 H 0.51795 0.64766 0.84727 0.0
C327 C 0.45303 0.6778 0.18653 0.0
H328 H 0.51962 0.71903 0.92419 0.0
C329 C 0.45126 0.63657 0.14027 0.0
C330 C 0.47503 0.62554 0.0181 0.0
H331 H 0.43678 0.68612 0.28545 0.0
H332 H 0.43265 0.61347 0.20147 0.0
C333 C 0.49887 0.65574 0.94014 0.0
C334 C 0.84912 0.44741 0.14522 0.0
C335 C 0.82342 0.47103 0.06585 0.0
H336 H 0.91147 0.42674 0.16484 0.0
C337 C 0.83996 0.49019 0.94167 0.0
H338 H 0.83695 0.43335 0.2437 0.0
C339 C 0.88187 0.48773 0.90089 0.0
C340 C 0.90801 0.46511 0.9804 0.0
H341 H 0.82124 0.50992 0.88281 0.0
H342 H 0.89446 0.50523 0.81034 0.0
C343 C 0.89149 0.4441 0.10166 0.0
C344 C 1.01059 0.21066 0.75774 0.0
C345 C 0.03213 0.22335 0.88207 0.0
H346 H 0.99426 0.16172 0.60886 0.0
C347 C 0.05915 0.19671 0.9414 0.0
H348 H 0.98878 0.23021 0.71259 0.0
C349 C 0.06126 0.15668 0.88575 0.0
C350 C 0.03725 0.14297 0.76702 0.0
H351 H 0.07546 0.20565 0.03907 0.0
H352 H 0.08036 0.13607 0.93893 0.0
C353 C 1.0133 0.17108 0.70021 0.0
C354 C 0.34776 0.99409 0.77415 0.0
C355 C 0.32722 0.02567 0.8445 0.0
H356 H 0.4049 0.97531 0.67388 0.0
C357 C 0.34761 0.06546 0.84439 0.0
H358 H 0.33298 0.96308 0.77412 0.0
C359 C 0.38925 0.0725 0.78843 0.0
C360 C 0.41122 0.03992 0.73079 0.0
H361 H 0.33308 0.09023 0.90037 0.0
H362 H 0.40514 0.10293 0.79889 0.0
C363 C 0.38921 1.00104 0.71837 0.0
C364 C 0.53314 0.32976 0.74137 0.0
C365 C 0.51211 0.31803 0.87004 0.0
H366 H 0.54857 0.37746 0.59165 0.0
C367 C 0.48492 0.34498 0.93691 0.0
H368 H 0.55514 0.31005 0.69021 0.0
C369 C 0.48216 0.38444 0.884 0.0
C370 C 0.5057 0.3973 0.76057 0.0
H371 H 0.46896 0.33685 0.03787 0.0
H372 H 0.46312 0.4054 0.94323 0.0
C373 C 0.52975 0.36876 0.68655 0.0
C374 C 0.2232 0.52946 0.76474 0.0
C375 C 0.22921 0.50973 0.89324 0.0
H376 H 0.17948 0.54562 0.61109 0.0
C377 C 0.195 0.48583 0.95594 0.0
H378 H 0.24874 0.54924 0.71773 0.0
C379 C 0.15484 0.48378 0.89542 0.0
C380 C 0.14821 0.50553 0.77058 0.0
H381 H 0.19866 0.47144 0.05774 0.0
H382 H 0.12868 0.46661 0.94985 0.0
C383 C 0.18326 0.5275 0.7043 0.0
C384 C 0.98847 0.84251 0.24587 0.0
C385 C 1.01543 0.81557 0.30343 0.0
H386 H 0.96706 0.903 0.2529 0.0
C387 C 0.03686 0.82744 0.42868 0.0
H388 H 0.97235 0.83418 0.14732 0.0
C389 C 0.03407 0.86666 0.48913 0.0
C390 C 1.01001 0.8951 0.42461 0.0
H391 H 0.05869 0.80761 0.47225 0.0
H392 H 0.0533 0.87554 0.5804 0.0
C393 C 0.98608 0.88208 0.3049 0.0
C394 C 0.70224 0.04752 0.41731 0.0
C395 C 0.72325 0.01679 0.34383 0.0
H396 H 0.64461 0.06489 0.51785 0.0
C397 C 0.70336 0.97679 0.33956 0.0
H398 H 0.71666 0.07865 0.42081 0.0
C399 C 0.6616 0.9689 0.39334 0.0
C400 C 0.63913 1.00078 0.45348 0.0
H401 H 0.71829 0.95268 0.28119 0.0
H402 H 0.64601 0.93846 0.37907 0.0
C403 C 0.66072 0.0397 0.47113 0.0
C404 C 0.56284 0.69636 0.26656 0.0
C405 C 0.53706 0.72437 0.33417 0.0
H406 H 0.58312 0.63542 0.26356 0.0
C407 C 0.51655 0.71391 0.46495 0.0
H408 H 0.578 0.70344 0.16341 0.0
C409 C 0.51906 0.67513 0.52195 0.0
C410 C 0.54203 0.64569 0.44879 0.0
H411 H 0.49545 0.73451 0.51617 0.0
H412 H 0.50027 0.66731 0.6176 0.0
C413 C 0.56507 0.65723 0.32266 0.0
C414 C 0.8264 0.50859 0.43125 0.0
C415 C 0.82001 0.52896 0.30439 0.0
H416 H 0.87062 0.4919 0.58252 0.0
C417 C 0.85399 0.55323 0.24189 0.0
H418 H 0.80101 0.48859 0.47801 0.0
C419 C 0.89434 0.55495 0.3006 0.0
C420 C 0.90132 0.53261 0.42365 0.0
H421 H 0.84996 0.56817 0.14138 0.0
H422 H 0.92033 0.57239 0.2463 0.0
C423 C 0.86651 0.51034 0.49023 0.0
loop_
_geom_bond_atom_site_label_1
_geom_bond_atom_site_label_2
_geom_bond_distance
_geom_bond_site_symmetry_2
_ccdc_geom_bond_type
C0 N1 1.317 . S
C0 N2 1.348 . S
C0 C3 1.485 . S
N1 C0 1.317 . S
N1 N5 1.370 . S
N2 C0 1.348 . S
N2 C4 1.346 . S
C3 C0 1.485 . S
C3 H7 0.960 . S
C3 H8 0.961 . S
C3 H9 0.960 . S
C4 N2 1.346 . S
C4 N5 1.307 . S
C4 C6 1.486 1_554 S
N5 N1 1.370 . S
N5 C4 1.307 . S
C6 C4 1.486 1_556 S
C6 H10 0.960 . S
C6 H11 0.960 . S
C6 H12 0.959 . S
H7 C3 0.960 . S
H8 C3 0.961 . S
H9 C3 0.960 . S
H10 C6 0.960 . S
H11 C6 0.960 . S
H12 C6 0.959 . S
C13 N14 1.317 . S
C13 N15 1.348 . S
C13 C16 1.485 . S
N14 C13 1.317 . S
N14 N18 1.370 . S
N15 C13 1.348 . S
N15 C17 1.346 1_655 S
C16 C13 1.485 . S
C16 H20 0.960 1_655 S
C16 H21 0.961 . S
C16 H22 0.960 . S
C17 N15 1.346 1_455 S
C17 N18 1.306 1_455 S
C17 C19 1.486 1_554 S
N18 N14 1.370 . S
N18 C17 1.306 1_655 S
C19 C17 1.486 1_556 S
C19 H23 0.960 1_455 S
C19 H24 0.960 . S
C19 H25 0.959 . S
H20 C16 0.960 1_455 S
H21 C16 0.961 . S
H22 C16 0.960 . S
H23 C19 0.960 1_655 S
H24 C19 0.960 . S
H25 C19 0.959 . S
C26 N27 1.317 . S
C26 N28 1.348 . S
C26 C29 1.485 . S
N27 C26 1.317 . S
N27 N31 1.370 . S
N28 C26 1.348 . S
N28 C30 1.346 1_554 S
C29 C26 1.485 . S
C29 H33 0.960 . S
C29 H34 0.961 . S
C29 H35 0.960 . S
C30 N28 1.346 1_556 S
C30 N31 1.307 1_556 S
C30 C32 1.486 . S
N31 N27 1.370 . S
N31 C30 1.307 1_554 S
C32 C30 1.486 . S
C32 H36 0.960 . S
C32 H37 0.960 . S
C32 H38 0.959 . S
H33 C29 0.960 . S
H34 C29 0.961 . S
H35 C29 0.960 . S
H36 C32 0.960 . S
H37 C32 0.960 . S
H38 C32 0.959 . S
C39 N40 1.317 . S
C39 N41 1.348 . S
C39 C42 1.485 . S
N40 C39 1.317 . S
N40 N44 1.370 . S
N41 C39 1.348 . S
N41 C43 1.346 . S
C42 C39 1.485 . S
C42 H46 0.960 . S
C42 H47 0.961 . S
C42 H48 0.960 . S
C43 N41 1.346 . S
C43 N44 1.307 . S
C43 C45 1.486 1_554 S
N44 N40 1.370 . S
N44 C43 1.307 . S
C45 C43 1.486 1_556 S
C45 H49 0.960 . S
C45 H50 0.960 . S
C45 H51 0.959 . S
H46 C42 0.960 . S
H47 C42 0.961 . S
H48 C42 0.960 . S
H49 C45 0.960 . S
H50 C45 0.960 . S
H51 C45 0.959 . S
C52 N53 1.317 . S
C52 N54 1.348 1_556 S
C52 C55 1.485 . S
N53 C52 1.317 . S
N53 N57 1.370 1_556 S
N54 C52 1.348 1_554 S
N54 C56 1.346 . S
C55 C52 1.485 . S
C55 H59 0.960 . S
C55 H60 0.961 . S
C55 H61 0.960 . S
C56 N54 1.346 . S
C56 N57 1.307 . S
C56 C58 1.486 . S
N57 N53 1.370 1_554 S
N57 C56 1.307 . S
C58 C56 1.486 . S
C58 H62 0.960 . S
C58 H63 0.960 . S
C58 H64 0.959 . S
H59 C55 0.960 . S
H60 C55 0.961 . S
H61 C55 0.960 . S
H62 C58 0.960 . S
H63 C58 0.960 . S
H64 C58 0.959 . S
C65 N66 1.317 . S
C65 N67 1.348 1_556 S
C65 C68 1.485 . S
N66 C65 1.317 . S
N66 N70 1.371 1_556 S
N67 C65 1.348 1_554 S
N67 C69 1.345 1_655 S
C68 C65 1.485 . S
C68 H72 0.960 1_655 S
C68 H73 0.961 . S
C68 H74 0.960 . S
C69 N67 1.345 1_455 S
C69 N70 1.308 1_455 S
C69 C71 1.487 . S
N70 N66 1.371 1_554 S
N70 C69 1.308 1_655 S
C71 C69 1.487 . S
C71 H75 0.960 1_455 S
C71 H76 0.960 . S
C71 H77 0.959 . S
H72 C68 0.960 1_455 S
H73 C68 0.961 . S
H74 C68 0.960 . S
H75 C71 0.960 1_655 S
H76 C71 0.960 . S
H77 C71 0.959 . S
C78 N79 1.317 . S
C78 N80 1.348 1_556 S
C78 C81 1.485 . S
N79 C78 1.317 . S
N79 N83 1.370 1_556 S
N80 C78 1.348 1_554 S
N80 C82 1.346 . S
C81 C78 1.485 . S
C81 H85 0.960 . S
C81 H86 0.961 . S
C81 H87 0.960 . S
C82 N80 1.346 . S
C82 N83 1.307 . S
C82 C84 1.486 . S
N83 N79 1.370 1_554 S
N83 C82 1.307 . S
C84 C82 1.486 . S
C84 H88 0.960 . S
C84 H89 0.960 . S
C84 H90 0.959 . S
H85 C81 0.960 . S
H86 C81 0.961 . S
H87 C81 0.960 . S
H88 C84 0.960 . S
H89 C84 0.960 . S
H90 C84 0.959 . S
C91 N92 1.317 . S
C91 N93 1.348 1_556 S
C91 C94 1.485 . S
N92 C91 1.317 . S
N92 N96 1.370 1_556 S
N93 C91 1.348 1_554 S
N93 C95 1.346 . S
C94 C91 1.485 . S
C94 H98 0.960 . S
C94 H99 0.961 . S
C94 H100 0.960 . S
C95 N93 1.346 . S
C95 N96 1.307 . S
C95 C97 1.486 . S
N96 N92 1.370 1_554 S
N96 C95 1.307 . S
C97 C95 1.486 . S
C97 H101 0.960 . S
C97 H102 0.960 . S
C97 H103 0.959 . S
H98 C94 0.960 . S
H99 C94 0.961 . S
H100 C94 0.960 . S
H101 C97 0.960 . S
H102 C97 0.960 . S
H103 C97 0.959 . S
Dy104 O108 2.398 . S
Dy104 O109 2.491 1_455 S
Dy104 O110 2.403 . S
Dy104 O111 2.664 1_565 S
Dy104 O115 2.326 . S
Dy104 O119 2.310 1_455 S
Dy104 O120 2.351 1_565 S
C105 O116 1.185 . S
C105 O117 1.355 1_655 S
C106 O108 1.185 . S
C106 O109 1.355 1_455 S
Dy107 O111 2.310 1_655 S
Dy107 O114 2.351 1_545 S
Dy107 O116 2.398 . S
Dy107 O117 2.491 1_655 S
Dy107 O118 2.403 . S
Dy107 O119 2.664 1_545 S
Dy107 O121 2.326 . S
O108 Dy104 2.398 . S
O108 C106 1.185 . S
O109 Dy104 2.491 1_655 S
O109 C106 1.355 1_655 S
O110 Dy104 2.403 . S
O110 C112 1.254 1_565 S
O111 Dy104 2.664 1_545 S
O111 Dy107 2.310 1_455 S
O111 C112 1.268 . S
C112 O110 1.254 1_545 S
C112 O111 1.268 . S
C113 O118 1.254 1_565 S
C113 O119 1.268 . S
O114 Dy107 2.351 1_565 S
O114 C122 1.249 . S
O115 Dy104 2.326 . S
O115 C122 1.267 1_455 S
O116 C105 1.185 . S
O116 Dy107 2.398 . S
O117 C105 1.355 1_455 S
O117 Dy107 2.491 1_455 S
O118 Dy107 2.403 . S
O118 C113 1.254 1_545 S
O119 Dy104 2.310 1_655 S
O119 Dy107 2.664 1_565 S
O119 C113 1.268 . S
O120 Dy104 2.351 1_545 S
O120 C123 1.249 . S
O121 Dy107 2.326 . S
O121 C123 1.267 1_655 S
C122 O114 1.249 . S
C122 O115 1.267 1_655 S
C123 O120 1.249 . S
C123 O121 1.267 1_455 S
Dy124 O128 2.398 . S
Dy124 O129 2.491 1_565 S
Dy124 O130 2.403 . S
Dy124 O131 2.664 . S
Dy124 O135 2.326 1_565 S
Dy124 O139 2.310 1_565 S
Dy124 O140 2.351 . S
C125 O136 1.185 . S
C125 O137 1.355 1_545 S
C126 O128 1.185 . S
C126 O129 1.355 1_565 S
Dy127 O131 2.310 1_545 S
Dy127 O134 2.351 . S
Dy127 O136 2.398 . S
Dy127 O137 2.491 1_545 S
Dy127 O138 2.403 . S
Dy127 O139 2.664 . S
Dy127 O141 2.326 1_545 S
O128 Dy124 2.398 . S
O128 C126 1.185 . S
O129 Dy124 2.491 1_545 S
O129 C126 1.355 1_545 S
O130 Dy124 2.403 . S
O130 C132 1.254 . S
O131 Dy124 2.664 . S
O131 Dy127 2.310 1_565 S
O131 C132 1.268 . S
C132 O130 1.254 . S
C132 O131 1.268 . S
C133 O138 1.254 . S
C133 O139 1.268 . S
O134 Dy127 2.351 . S
O134 C142 1.249 . S
O135 Dy124 2.326 1_545 S
O135 C142 1.267 . S
O136 C125 1.185 . S
O136 Dy127 2.398 . S
O137 C125 1.355 1_565 S
O137 Dy127 2.491 1_565 S
O138 Dy127 2.403 . S
O138 C133 1.254 . S
O139 Dy124 2.310 1_545 S
O139 Dy127 2.664 . S
O139 C133 1.268 . S
O140 Dy124 2.351 . S
O140 C143 1.249 . S
O141 Dy127 2.326 1_565 S
O141 C143 1.267 . S
C142 O134 1.249 . S
C142 O135 1.267 . S
C143 O140 1.249 . S
C143 O141 1.267 . S
Dy144 O148 2.398 . S
Dy144 O149 2.491 . S
Dy144 O150 2.403 . S
Dy144 O151 2.664 . S
Dy144 O155 2.326 . S
Dy144 O159 2.310 . S
Dy144 O160 2.351 . S
C145 O156 1.185 . S
C145 O157 1.355 . S
C146 O148 1.185 . S
C146 O149 1.355 . S
Dy147 O151 2.310 . S
Dy147 O154 2.351 . S
Dy147 O156 2.398 . S
Dy147 O157 2.491 . S
Dy147 O158 2.403 . S
Dy147 O159 2.664 . S
Dy147 O161 2.326 . S
O148 Dy144 2.398 . S
O148 C146 1.185 . S
O149 Dy144 2.491 . S
O149 C146 1.355 . S
O150 Dy144 2.403 . S
O150 C152 1.254 . S
O151 Dy144 2.664 . S
O151 Dy147 2.310 . S
O151 C152 1.268 . S
C152 O150 1.254 . S
C152 O151 1.268 . S
C153 O158 1.254 . S
C153 O159 1.268 . S
O154 Dy147 2.351 . S
O154 C162 1.249 . S
O155 Dy144 2.326 . S
O155 C162 1.267 . S
O156 C145 1.185 . S
O156 Dy147 2.398 . S
O157 C145 1.355 . S
O157 Dy147 2.491 . S
O158 Dy147 2.403 . S
O158 C153 1.254 . S
O159 Dy144 2.310 . S
O159 Dy147 2.664 . S
O159 C153 1.268 . S
O160 Dy144 2.351 . S
O160 C163 1.249 . S
O161 Dy147 2.326 . S
O161 C163 1.267 . S
C162 O154 1.249 . S
C162 O155 1.267 . S
C163 O160 1.249 . S
C163 O161 1.267 . S
Dy164 O168 2.398 . S
Dy164 O169 2.491 . S
Dy164 O170 2.403 . S
Dy164 O171 2.664 1_655 S
Dy164 O175 2.326 . S
Dy164 O179 2.310 . S
Dy164 O180 2.351 1_655 S
C165 O176 1.185 . S
C165 O177 1.355 . S
C166 O168 1.185 . S
C166 O169 1.355 . S
Dy167 O171 2.310 . S
Dy167 O174 2.351 1_455 S
Dy167 O176 2.398 . S
Dy167 O177 2.491 . S
Dy167 O178 2.403 . S
Dy167 O179 2.664 1_455 S
Dy167 O181 2.326 . S
O168 Dy164 2.398 . S
O168 C166 1.185 . S
O169 Dy164 2.491 . S
O169 C166 1.355 . S
O170 Dy164 2.403 . S
O170 C172 1.254 . S
O171 Dy164 2.664 1_455 S
O171 Dy167 2.310 . S
O171 C172 1.268 1_455 S
C172 O170 1.254 . S
C172 O171 1.268 1_655 S
C173 O178 1.254 . S
C173 O179 1.268 1_455 S
O174 Dy167 2.351 1_655 S
O174 C182 1.249 . S
O175 Dy164 2.326 . S
O175 C182 1.267 . S
O176 C165 1.185 . S
O176 Dy167 2.398 . S
O177 C165 1.355 . S
O177 Dy167 2.491 . S
O178 Dy167 2.403 . S
O178 C173 1.254 . S
O179 Dy164 2.310 . S
O179 Dy167 2.664 1_655 S
O179 C173 1.268 1_655 S
O180 Dy164 2.351 1_455 S
O180 C183 1.249 . S
O181 Dy167 2.326 . S
O181 C183 1.267 . S
C182 O174 1.249 . S
C182 O175 1.267 . S
C183 O180 1.249 . S
C183 O181 1.267 . S
C184 C185 1.387 . S
C184 H188 0.950 1_545 S
C184 C193 1.394 . S
C185 C184 1.387 . S
C185 C187 1.387 . S
H186 C193 0.933 1_565 S
C187 C185 1.387 . S
C187 C189 1.390 . S
C187 H191 0.950 . S
H188 C184 0.950 1_565 S
C189 C187 1.390 . S
C189 C190 1.387 . S
C189 H192 0.950 . S
C190 C189 1.387 . S
C190 C193 1.401 . S
H191 C187 0.950 . S
H192 C189 0.950 . S
C193 C184 1.394 . S
C193 H186 0.933 1_545 S
C193 C190 1.401 . S
C194 C195 1.387 . S
C194 H198 0.950 . S
C194 C203 1.390 . S
C195 C194 1.387 . S
C195 C197 1.387 . S
H196 C203 0.950 . S
C197 C195 1.387 . S
C197 C199 1.390 . S
C197 H201 0.950 . S
H198 C194 0.950 . S
C199 C197 1.390 . S
C199 C200 1.387 . S
C199 H202 0.950 . S
C200 C199 1.387 . S
C200 C203 1.387 . S
H201 C197 0.950 . S
H202 C199 0.950 . S
C203 C194 1.390 . S
C203 H196 0.950 . S
C203 C200 1.387 . S
C204 C205 1.387 . S
C204 H208 0.950 . S
C204 C213 1.390 . S
C205 C204 1.387 . S
C205 C207 1.387 . S
H206 C213 0.950 . S
C207 C205 1.387 . S
C207 C209 1.390 . S
C207 H211 0.950 . S
H208 C204 0.950 . S
C209 C207 1.390 . S
C209 C210 1.387 . S
C209 H212 0.950 . S
C210 C209 1.387 . S
C210 C213 1.387 . S
H211 C207 0.950 . S
H212 C209 0.950 . S
C213 C204 1.390 . S
C213 H206 0.950 . S
C213 C210 1.387 . S
C214 C215 1.389 . S
C214 H218 0.950 . S
C214 C223 1.390 . S
C215 C214 1.389 . S
C215 C217 1.386 1_655 S
H216 C223 0.950 . S
C217 C215 1.386 1_455 S
C217 C219 1.390 . S
C217 H221 0.950 . S
H218 C214 0.950 . S
C219 C217 1.390 . S
C219 C220 1.376 1_455 S
C219 H222 0.950 . S
C220 C219 1.376 1_655 S
C220 C223 1.398 . S
H221 C217 0.950 . S
H222 C219 0.950 . S
C223 C214 1.390 . S
C223 H216 0.950 . S
C223 C220 1.398 . S
C224 C225 1.387 1_545 S
C224 H228 0.950 . S
C224 C233 1.390 . S
C225 C224 1.387 1_565 S
C225 C227 1.387 . S
H226 C233 0.950 . S
C227 C225 1.387 . S
C227 C229 1.390 . S
C227 H231 0.950 . S
H228 C224 0.950 . S
C229 C227 1.390 . S
C229 C230 1.387 . S
C229 H232 0.950 . S
C230 C229 1.387 . S
C230 C233 1.387 1_565 S
H231 C227 0.950 . S
H232 C229 0.950 . S
C233 C224 1.390 . S
C233 H226 0.950 . S
C233 C230 1.387 1_545 S
C234 C235 1.387 . S
C234 H238 0.950 . S
C234 C243 1.390 1_554 S
C235 C234 1.387 . S
C235 C237 1.387 1_554 S
H236 C243 0.950 1_554 S
C237 C235 1.387 1_556 S
C237 C239 1.390 . S
C237 H241 0.950 . S
H238 C234 0.950 . S
C239 C237 1.390 . S
C239 C240 1.387 . S
C239 H242 0.950 . S
C240 C239 1.387 . S
C240 C243 1.387 . S
H241 C237 0.950 . S
H242 C239 0.950 . S
C243 C234 1.390 1_556 S
C243 H236 0.950 1_556 S
C243 C240 1.387 . S
C244 C245 1.387 1_556 S
C244 H248 0.950 1_556 S
C244 C253 1.390 . S
C245 C244 1.387 1_554 S
C245 C247 1.387 1_554 S
H246 C253 0.950 . S
C247 C245 1.387 1_556 S
C247 C249 1.390 . S
C247 H251 0.948 1_556 S
H248 C244 0.950 1_554 S
C249 C247 1.390 . S
C249 C250 1.387 . S
C249 H252 0.950 . S
C250 C249 1.387 . S
C250 C253 1.387 . S
H251 C247 0.948 1_554 S
H252 C249 0.950 . S
C253 C244 1.390 . S
C253 H246 0.950 . S
C253 C250 1.387 . S
C254 C255 1.387 1_656 S
C254 H258 0.950 1_556 S
C254 C263 1.390 . S
C255 C254 1.387 1_454 S
C255 C257 1.388 1_554 S
H256 C263 0.950 . S
C257 C255 1.388 1_556 S
C257 C259 1.390 . S
C257 H261 0.950 . S
H258 C254 0.950 1_554 S
C259 C257 1.390 . S
C259 C260 1.403 . S
C259 H262 0.950 . S
C260 C259 1.403 . S
C260 C263 1.371 1_455 S
H261 C257 0.950 . S
H262 C259 0.950 . S
C263 C254 1.390 . S
C263 H256 0.950 . S
C263 C260 1.371 1_655 S
C264 C265 1.387 . S
C264 H268 0.950 . S
C264 C273 1.390 . S
C265 C264 1.387 . S
C265 C267 1.387 1_655 S
H266 C273 0.950 . S
C267 C265 1.387 1_455 S
C267 C269 1.390 . S
C267 H271 0.950 . S
H268 C264 0.950 . S
C269 C267 1.390 . S
C269 C270 1.387 1_455 S
C269 H272 0.950 . S
C270 C269 1.387 1_655 S
C270 C273 1.387 . S
H271 C267 0.950 . S
H272 C269 0.950 . S
C273 C264 1.390 . S
C273 H266 0.950 . S
C273 C270 1.387 . S
C274 C275 1.387 . S
C274 H278 0.950 1_554 S
C274 C283 1.390 . S
C275 C274 1.387 . S
C275 C277 1.387 . S
H276 C283 0.950 1_566 S
C277 C275 1.387 . S
C277 C279 1.390 . S
C277 H281 0.950 . S
H278 C274 0.950 1_556 S
C279 C277 1.390 . S
C279 C280 1.387 . S
C279 H282 0.950 . S
C280 C279 1.387 . S
C280 C283 1.387 . S
H281 C277 0.950 . S
H282 C279 0.950 . S
C283 C274 1.390 . S
C283 H276 0.950 1_544 S
C283 C280 1.387 . S
C284 C285 1.387 . S
C284 H288 0.950 . S
C284 C293 1.390 . S
C285 C284 1.387 . S
C285 C287 1.387 . S
H286 C293 0.950 . S
C287 C285 1.387 . S
C287 C289 1.390 . S
C287 H291 0.950 1_554 S
H288 C284 0.950 . S
C289 C287 1.390 . S
C289 C290 1.387 . S
C289 H292 0.950 . S
C290 C289 1.387 . S
C290 C293 1.387 . S
H291 C287 0.950 1_556 S
H292 C289 0.950 . S
C293 C284 1.390 . S
C293 H286 0.950 . S
C293 C290 1.387 . S
C294 C295 1.387 . S
C294 H298 0.950 . S
C294 C303 1.390 . S
C295 C294 1.387 . S
C295 C297 1.387 . S
H296 C303 0.950 . S
C297 C295 1.387 . S
C297 C299 1.390 . S
C297 H301 0.950 . S
H298 C294 0.950 . S
C299 C297 1.390 . S
C299 C300 1.387 . S
C299 H302 0.950 . S
C300 C299 1.387 . S
C300 C303 1.387 . S
H301 C297 0.950 . S
H302 C299 0.950 . S
C303 C294 1.390 . S
C303 H296 0.950 . S
C303 C300 1.387 . S
C304 C305 1.387 1_655 S
C304 H308 0.950 . S
C304 C313 1.390 1_655 S
C305 C304 1.387 1_455 S
C305 C307 1.387 1_554 S
H306 C313 0.950 1_655 S
C307 C305 1.387 1_556 S
C307 C309 1.390 . S
C307 H311 0.950 . S
H308 C304 0.950 . S
C309 C307 1.390 . S
C309 C310 1.387 . S
C309 H312 0.950 . S
C310 C309 1.387 . S
C310 C313 1.387 1_556 S
H311 C307 0.950 . S
H312 C309 0.950 . S
C313 C304 1.390 1_455 S
C313 H306 0.950 1_455 S
C313 C310 1.387 1_554 S
C314 C315 1.387 . S
C314 H318 0.950 . S
C314 C323 1.390 1_565 S
C315 C314 1.387 . S
C315 C317 1.387 1_554 S
H316 C323 0.950 . S
C317 C315 1.387 1_556 S
C317 C319 1.390 . S
C317 H321 0.950 . S
H318 C314 0.950 . S
C319 C317 1.390 . S
C319 C320 1.379 1_565 S
C319 H322 0.950 . S
C320 C319 1.379 1_545 S
C320 C323 1.388 1_556 S
H321 C317 0.950 . S
H322 C319 0.950 . S
C323 C314 1.390 1_545 S
C323 H316 0.950 . S
C323 C320 1.388 1_554 S
C324 C325 1.387 1_556 S
C324 H328 0.950 . S
C324 C333 1.390 . S
C325 C324 1.387 1_554 S
C325 C327 1.387 . S
H326 C333 0.950 . S
C327 C325 1.387 . S
C327 C329 1.390 . S
C327 H331 0.950 . S
H328 C324 0.950 . S
C329 C327 1.390 . S
C329 C330 1.387 1_554 S
C329 H332 0.950 . S
C330 C329 1.387 1_556 S
C330 C333 1.387 . S
H331 C327 0.950 . S
H332 C329 0.950 . S
C333 C324 1.390 . S
C333 H326 0.950 . S
C333 C330 1.387 . S
C334 C335 1.387 . S
C334 H338 0.950 . S
C334 C343 1.390 1_554 S
C335 C334 1.387 . S
C335 C337 1.387 1_554 S
H336 C343 0.950 1_554 S
C337 C335 1.387 1_556 S
C337 C339 1.390 . S
C337 H341 0.950 . S
H338 C334 0.950 . S
C339 C337 1.390 . S
C339 C340 1.387 . S
C339 H342 0.950 . S
C340 C339 1.387 . S
C340 C343 1.387 . S
H341 C337 0.950 . S
H342 C339 0.950 . S
C343 C334 1.390 1_556 S
C343 H336 0.950 1_556 S
C343 C340 1.387 . S
C344 C345 1.387 1_655 S
C344 H348 0.947 1_556 S
C344 C353 1.390 . S
C345 C344 1.387 1_455 S
C345 C347 1.387 . S
H346 C353 0.950 . S
C347 C345 1.387 . S
C347 C349 1.390 . S
C347 H351 0.950 . S
H348 C344 0.947 1_554 S
C349 C347 1.390 . S
C349 C350 1.387 . S
C349 H352 0.950 . S
C350 C349 1.387 . S
C350 C353 1.387 1_455 S
H351 C347 0.950 . S
H352 C349 0.950 . S
C353 C344 1.390 . S
C353 H346 0.950 . S
C353 C350 1.387 1_655 S
C354 C355 1.407 . S
C354 H358 0.935 1_545 S
C354 C363 1.386 1_545 S
C355 C354 1.407 . S
C355 C357 1.387 . S
H356 C363 0.950 . S
C357 C355 1.387 . S
C357 C359 1.390 . S
C357 H361 0.950 . S
H358 C354 0.935 1_565 S
C359 C357 1.390 . S
C359 C360 1.387 . S
C359 H362 0.950 . S
C360 C359 1.387 . S
C360 C363 1.387 1_545 S
H361 C357 0.950 . S
H362 C359 0.950 . S
C363 C354 1.386 1_565 S
C363 H356 0.950 . S
C363 C360 1.387 1_565 S
C364 C365 1.387 . S
C364 H368 0.950 . S
C364 C373 1.390 . S
C365 C364 1.387 . S
C365 C367 1.387 . S
H366 C373 0.950 . S
C367 C365 1.387 . S
C367 C369 1.390 . S
C367 H371 0.950 . S
H368 C364 0.950 . S
C369 C367 1.390 . S
C369 C370 1.387 . S
C369 H372 0.950 . S
C370 C369 1.387 . S
C370 C373 1.387 . S
H371 C367 0.950 . S
H372 C369 0.950 . S
C373 C364 1.390 . S
C373 H366 0.950 . S
C373 C370 1.387 . S
C374 C375 1.387 . S
C374 H378 0.950 . S
C374 C383 1.390 . S
C375 C374 1.387 . S
C375 C377 1.387 . S
H376 C383 0.950 . S
C377 C375 1.387 . S
C377 C379 1.390 . S
C377 H381 0.950 . S
H378 C374 0.950 . S
C379 C377 1.390 . S
C379 C380 1.387 . S
C379 H382 0.950 . S
C380 C379 1.387 . S
C380 C383 1.387 . S
H381 C377 0.950 . S
H382 C379 0.950 . S
C383 C374 1.390 . S
C383 H376 0.950 . S
C383 C380 1.387 . S
C384 C385 1.387 . S
C384 H388 0.950 . S
C384 C393 1.390 . S
C385 C384 1.387 . S
C385 C387 1.387 1_655 S
H386 C393 0.950 . S
C387 C385 1.387 1_455 S
C387 C389 1.390 . S
C387 H391 0.950 . S
H388 C384 0.950 . S
C389 C387 1.390 . S
C389 C390 1.387 1_455 S
C389 H392 0.950 . S
C390 C389 1.387 1_655 S
C390 C393 1.387 . S
H391 C387 0.950 . S
H392 C389 0.950 . S
C393 C384 1.390 . S
C393 H386 0.950 . S
C393 C390 1.387 . S
C394 C395 1.387 . S
C394 H398 0.950 1_565 S
C394 C403 1.388 1_565 S
C395 C394 1.387 . S
C395 C397 1.387 . S
H396 C403 0.957 . S
C397 C395 1.387 . S
C397 C399 1.390 . S
C397 H401 0.950 . S
H398 C394 0.950 1_545 S
C399 C397 1.390 . S
C399 C400 1.387 . S
C399 H402 0.950 . S
C400 C399 1.387 . S
C400 C403 1.382 1_565 S
H401 C397 0.950 . S
H402 C399 0.950 . S
C403 C394 1.388 1_545 S
C403 H396 0.957 . S
C403 C400 1.382 1_545 S
C404 C405 1.387 . S
C404 H408 0.950 . S
C404 C413 1.390 . S
C405 C404 1.387 . S
C405 C407 1.387 . S
H406 C413 0.950 . S
C407 C405 1.387 . S
C407 C409 1.390 . S
C407 H411 0.950 . S
H408 C404 0.950 . S
C409 C407 1.390 . S
C409 C410 1.387 . S
C409 H412 0.950 . S
C410 C409 1.387 . S
C410 C413 1.387 . S
H411 C407 0.950 . S
H412 C409 0.950 . S
C413 C404 1.390 . S
C413 H406 0.950 . S
C413 C410 1.387 . S
C414 C415 1.387 . S
C414 H418 0.950 . S
C414 C423 1.390 . S
C415 C414 1.387 . S
C415 C417 1.387 . S
H416 C423 0.950 . S
C417 C415 1.387 . S
C417 C419 1.390 . S
C417 H421 0.950 . S
H418 C414 0.950 . S
C419 C417 1.390 . S
C419 C420 1.387 . S
C419 H422 0.950 . S
C420 C419 1.387 . S
C420 C423 1.387 . S
H421 C417 0.950 . S
H422 C419 0.950 . S
C423 C414 1.390 . S
C423 H416 0.950 . S
C423 C420 1.387 . S
C185 N80 1.677 . S
C190 C112 1.732 . S
C200 C142 1.789 . S
C195 N93 1.752 . S
C210 C152 1.677 . S
C205 N54 1.604 . S
C220 C172 1.578 . S
C215 N67 1.519 . S
C230 C113 1.735 . S
C225 N28 1.684 1_556 S
C235 N41 1.759 . S
C240 C143 1.790 . S
C245 N2 1.604 . S
C250 C153 1.677 . S
C255 N15 1.519 1_455 S
C260 C173 1.579 . S
C270 C105 1.020 . S
C265 N70 1.023 . S
C280 C126 0.912 1_545 S
C275 N83 0.919 . S
C290 C145 1.124 . S
C285 N96 1.115 . S
C295 N57 0.949 . S
C300 C165 0.944 . S
C305 N18 1.027 1_455 S
C310 C106 1.021 . S
C320 C125 0.918 . S
C315 N31 0.923 . S
C330 C146 1.121 . S
C325 N44 1.116 . S
C335 N5 0.951 . S
C340 C166 0.950 . S
C345 N66 1.627 1_455 S
C350 C123 1.649 . S
C355 N79 1.543 . S
C360 C133 1.624 . S
C370 C163 1.788 . S
C365 N92 1.753 . S
C380 C183 1.788 . S
C375 N53 1.757 . S
C385 N14 1.618 . S
C390 C122 1.648 . S
C400 C132 1.624 . S
C395 N27 1.554 . S
C410 C162 1.790 . S
C405 N40 1.754 . S
C415 N1 1.753 . S
C420 C182 1.791 . S
