# Generated by pormake.
# Topology zzz, (3,6)-cn, num edge types: 1
# Building blocks:
#     Node 0, Type 0, BuildingBlock: VETTIZ_charged_linker_0, # of connection points: 3
#     Node 1, Type 0, BuildingBlock: VETTIZ_charged_linker_0, # of connection points: 3
#     Node 2, Type 0, BuildingBlock: VETTIZ_charged_linker_0, # of connection points: 3
#     Node 3, Type 0, BuildingBlock: VETTIZ_charged_linker_0, # of connection points: 3
#     Node 4, Type 0, BuildingBlock: VETTIZ_charged_linker_0, # of connection points: 3
#     Node 5, Type 0, BuildingBlock: VETTIZ_charged_linker_0, # of connection points: 3
#     Node 6, Type 0, BuildingBlock: VETTIZ_charged_linker_0, # of connection points: 3
#     Node 7, Type 0, BuildingBlock: VETTIZ_charged_linker_0, # of connection points: 3
#     Node 8, Type 1, BuildingBlock: PAMTOO_clean_sbu_0, # of connection points: 6
#     Node 9, Type 1, BuildingBlock: PAMTOO_clean_sbu_0, # of connection points: 6
#     Node 10, Type 1, BuildingBlock: PAMTOO_clean_sbu_0, # of connection points: 6
#     Node 11, Type 1, BuildingBlock: PAMTOO_clean_sbu_0, # of connection points: 6
#     Edge 12, Type (0, 1), BuildingBlock: CIFDUS_clean_linker_0, # of connection points: 2
#     Edge 13, Type (0, 1), BuildingBlock: CIFDUS_clean_linker_0, # of connection points: 2
#     Edge 14, Type (0, 1), BuildingBlock: CIFDUS_clean_linker_0, # of connection points: 2
#     Edge 15, Type (0, 1), BuildingBlock: CIFDUS_clean_linker_0, # of connection points: 2
#     Edge 16, Type (0, 1), BuildingBlock: CIFDUS_clean_linker_0, # of connection points: 2
#     Edge 17, Type (0, 1), BuildingBlock: CIFDUS_clean_linker_0, # of connection points: 2
#     Edge 18, Type (0, 1), BuildingBlock: CIFDUS_clean_linker_0, # of connection points: 2
#     Edge 19, Type (0, 1), BuildingBlock: CIFDUS_clean_linker_0, # of connection points: 2
#     Edge 20, Type (0, 1), BuildingBlock: CIFDUS_clean_linker_0, # of connection points: 2
#     Edge 21, Type (0, 1), BuildingBlock: CIFDUS_clean_linker_0, # of connection points: 2
#     Edge 22, Type (0, 1), BuildingBlock: CIFDUS_clean_linker_0, # of connection points: 2
#     Edge 23, Type (0, 1), BuildingBlock: CIFDUS_clean_linker_0, # of connection points: 2
#     Edge 24, Type (0, 1), BuildingBlock: CIFDUS_clean_linker_0, # of connection points: 2
#     Edge 25, Type (0, 1), BuildingBlock: CIFDUS_clean_linker_0, # of connection points: 2
#     Edge 26, Type (0, 1), BuildingBlock: CIFDUS_clean_linker_0, # of connection points: 2
#     Edge 27, Type (0, 1), BuildingBlock: CIFDUS_clean_linker_0, # of connection points: 2
#     Edge 28, Type (0, 1), BuildingBlock: CIFDUS_clean_linker_0, # of connection points: 2
#     Edge 29, Type (0, 1), BuildingBlock: CIFDUS_clean_linker_0, # of connection points: 2
#     Edge 30, Type (0, 1), BuildingBlock: CIFDUS_clean_linker_0, # of connection points: 2
#     Edge 31, Type (0, 1), BuildingBlock: CIFDUS_clean_linker_0, # of connection points: 2
#     Edge 32, Type (0, 1), BuildingBlock: CIFDUS_clean_linker_0, # of connection points: 2
#     Edge 33, Type (0, 1), BuildingBlock: CIFDUS_clean_linker_0, # of connection points: 2
#     Edge 34, Type (0, 1), BuildingBlock: CIFDUS_clean_linker_0, # of connection points: 2
#     Edge 35, Type (0, 1), BuildingBlock: CIFDUS_clean_linker_0, # of connection points: 2
# Relax obj value: 0.371
# Max RMSD: 0.285
# Mean RMSD: 0.224
data_MOF--net-zzz--node1-PAMTOO_clean_sbu_0--node2-VETTIZ_charged_linker_0--edge1-CIFDUS_clean_linker_0
_symmetry_space_group_name_H-M    P1
_symmetry_Int_Tables_number       1
_symmetry_cell_setting            triclinic
loop_
_symmetry_equiv_pos_as_xyz
'x, y, z'
_cell_length_a     56.873652
_cell_length_b     48.965844
_cell_length_c     18.483023
_cell_angle_alpha  92.45178
_cell_angle_beta   80.822206
_cell_angle_gamma 84.42377
loop_
_atom_site_label
_atom_site_type_symbol
_atom_site_fract_x
_atom_site_fract_y
_atom_site_fract_z
_atom_type_partial_charge
C0 C 0.81829 0.53909 0.66815 0.0
C1 C 0.83794 0.55432 0.67977 0.0
C2 C 0.83765 0.58142 0.65538 0.0
C3 C 0.80529 0.57404 0.59143 0.0
C4 C 0.80124 0.55031 0.6254 0.0
C5 C 0.77873 0.53972 0.60199 0.0
H6 H 0.71806 0.53036 0.31228 0.0
C7 C 0.79206 0.57651 0.53108 0.0
C8 C 0.77377 0.55901 0.54055 0.0
H9 H 0.67764 0.54147 0.53036 0.0
H10 H 0.71497 0.54816 0.58005 0.0
H11 H 0.72387 0.58687 0.36124 0.0
H12 H 0.76598 0.5137 0.29771 0.0
H13 H 0.79024 0.53325 0.30266 0.0
H14 H 0.76988 0.54127 0.23925 0.0
H15 H 0.73683 0.5745 0.26943 0.0
H16 H 0.75065 0.59863 0.32202 0.0
C17 C 0.75812 0.54331 0.66752 0.0
C18 C 0.78391 0.50951 0.57285 0.0
C19 C 0.84624 0.58288 0.29021 0.0
C20 C 0.84204 0.57772 0.21844 0.0
C21 C 0.8186 0.58045 0.2034 0.0
C22 C 0.79933 0.58457 0.26094 0.0
C23 C 0.8038 0.58495 0.33355 0.0
C24 C 0.82673 0.58633 0.34759 0.0
C25 C 0.82783 0.58644 0.42842 0.0
C26 C 0.80144 0.58405 0.45993 0.0
C27 C 0.78849 0.58043 0.40282 0.0
C28 C 0.83705 0.61361 0.45189 0.0
C29 C 0.84446 0.5609 0.44276 0.0
C30 C 0.71734 0.53189 0.37138 0.0
C31 C 0.69523 0.53379 0.41712 0.0
C32 C 0.69467 0.53866 0.49377 0.0
C33 C 0.71616 0.54225 0.52253 0.0
C34 C 0.73801 0.54224 0.47391 0.0
C35 C 0.73731 0.53943 0.39924 0.0
C36 C 0.75508 0.55523 0.35515 0.0
C37 C 0.76825 0.56558 0.41366 0.0
C38 C 0.75977 0.55614 0.48279 0.0
C39 C 0.74108 0.57996 0.32448 0.0
C40 C 0.77114 0.53504 0.29563 0.0
H41 H 0.82103 0.61212 0.59496 0.0
H42 H 0.81678 0.51898 0.68941 0.0
H43 H 0.7991 0.50702 0.52627 0.0
H44 H 0.76793 0.50234 0.55338 0.0
H45 H 0.78856 0.49618 0.61676 0.0
H46 H 0.75339 0.56541 0.68536 0.0
H47 H 0.76337 0.53226 0.71474 0.0
H48 H 0.74201 0.5348 0.65311 0.0
H49 H 0.86437 0.58079 0.30188 0.0
H50 H 0.8152 0.57649 0.14806 0.0
H51 H 0.78188 0.58503 0.24643 0.0
H52 H 0.84906 0.62163 0.40598 0.0
H53 H 0.84815 0.61069 0.49565 0.0
H54 H 0.82197 0.62981 0.47064 0.0
H55 H 0.83764 0.54165 0.42454 0.0
H56 H 0.84604 0.55968 0.50131 0.0
H57 H 0.86297 0.56143 0.41318 0.0
H58 H 0.85137 0.5945 0.66341 0.0
C59 C 0.82097 0.59148 0.61304 0.0
C60 C 1.01207 0.75606 0.14019 0.0
C61 C 0.02692 0.77664 0.12095 0.0
C62 C 0.04012 0.78721 0.17195 0.0
C63 C 0.02159 0.75916 0.26322 0.0
C64 C 1.0099 0.7473 0.21194 0.0
C65 C 0.99762 0.72323 0.24099 0.0
H66 H 0.03153 0.62622 0.34973 0.0
C67 C 1.0154 0.74643 0.3326 0.0
C68 C 1.00045 0.72606 0.32206 0.0
H69 H 0.96691 0.63785 0.25183 0.0
H70 H 0.95723 0.68329 0.31625 0.0
H71 H 0.04999 0.68676 0.36119 0.0
H72 H 0.9932 0.66894 0.53505 0.0
H73 H 0.0201 0.68099 0.55881 0.0
H74 H 0.02099 0.64681 0.51714 0.0
H75 H 0.05458 0.65727 0.41451 0.0
H76 H 0.05393 0.69133 0.45566 0.0
C77 C 1.0124 0.69726 0.20023 0.0
C78 C 0.97112 0.72578 0.22947 0.0
C79 C 0.02892 0.79376 0.56276 0.0
C80 C 1.01384 0.79458 0.63043 0.0
C81 C 1.0012 0.77143 0.64786 0.0
C82 C 1.00351 0.74819 0.59703 0.0
C83 C 1.01755 0.74889 0.52729 0.0
C84 C 0.02879 0.7723 0.51042 0.0
C85 C 0.03327 0.7758 0.42926 0.0
C86 C 0.0222 0.75135 0.40151 0.0
C87 C 1.01607 0.73371 0.45699 0.0
C88 C 0.06071 0.7734 0.40302 0.0
C89 C 0.01955 0.80363 0.41452 0.0
C90 C 1.01481 0.63786 0.34421 0.0
C91 C 1.00079 0.629 0.29138 0.0
C92 C 0.97848 0.64424 0.28913 0.0
C93 C 0.97297 0.6704 0.32455 0.0
C94 C 0.98944 0.68033 0.36431 0.0
C95 C 1.00728 0.66335 0.38534 0.0
C96 C 1.01861 0.67966 0.44121 0.0
C97 C 1.00589 0.7091 0.4403 0.0
C98 C 0.99383 0.70847 0.37949 0.0
C99 C 0.0459 0.67868 0.41661 0.0
C100 C 1.01288 0.66843 0.51761 0.0
H101 H 0.04736 0.78806 0.28013 0.0
H102 H 1.00215 0.74752 0.10085 0.0
H103 H 0.96781 0.73939 0.18487 0.0
H104 H 0.95894 0.73436 0.2801 0.0
H105 H 0.96561 0.7056 0.21324 0.0
H106 H 0.03064 0.69459 0.21525 0.0
H107 H 1.01436 0.69873 0.13977 0.0
H108 H 1.00397 0.67836 0.21175 0.0
H109 H 0.03753 0.81183 0.5462 0.0
H110 H 0.98872 0.77194 0.69881 0.0
H111 H 0.99274 0.73141 0.60932 0.0
H112 H 0.07058 0.76107 0.44 0.0
H113 H 0.06743 0.79395 0.4015 0.0
H114 H 0.06606 0.76242 0.34833 0.0
H115 H 1.00199 0.80739 0.45181 0.0
H116 H 1.01491 0.80462 0.3591 0.0
H117 H 0.02995 0.82114 0.42385 0.0
H118 H 0.0512 0.80367 0.15812 0.0
C119 C 0.03758 0.77851 0.24295 0.0
C120 C 0.85804 1.00195 0.28106 0.0
C121 C 0.86993 1.00571 0.20796 0.0
C122 C 0.85592 0.014 0.15557 0.0
C123 C 0.81966 0.01029 0.23974 0.0
C124 C 0.83226 1.00489 0.29614 0.0
C125 C 0.81434 1.00274 0.36774 0.0
H126 H 0.69377 0.03626 0.52062 0.0
C127 C 0.79401 0.01115 0.26608 0.0
C128 C 0.78963 1.00759 0.34219 0.0
H129 H 0.73499 0.969 0.59857 0.0
H130 H 0.76967 0.97564 0.5038 0.0
H131 H 0.72504 0.07248 0.40735 0.0
H132 H 0.70345 0.99121 0.41514 0.0
H133 H 0.70937 0.99512 0.32189 0.0
H134 H 0.68607 0.01798 0.37875 0.0
H135 H 0.6951 0.06348 0.40837 0.0
H136 H 0.71538 0.06452 0.32329 0.0
C137 C 0.81712 0.02529 0.42516 0.0
C138 C 0.81859 0.97404 0.39661 0.0
C139 C 0.73941 1.00461 0.07986 0.0
C140 C 0.71463 1.00747 0.08719 0.0
C141 C 0.70038 0.01852 0.15319 0.0
C142 C 0.71095 0.02528 0.21346 0.0
C143 C 0.73579 0.01968 0.20805 0.0
C144 C 0.7496 0.01089 0.14137 0.0
C145 C 0.7756 0.01145 0.14295 0.0
C146 C 0.77512 0.01525 0.22556 0.0
C147 C 0.75181 0.02058 0.26258 0.0
C148 C 0.78316 0.037 0.10086 0.0
C149 C 0.7889 0.98349 0.10942 0.0
C150 C 0.71084 0.02455 0.52237 0.0
C151 C 0.71174 1.00342 0.57042 0.0
C152 C 0.73376 0.98622 0.56405 0.0
C153 C 0.75395 0.99022 0.5097 0.0
C154 C 0.75177 0.01034 0.45779 0.0
C155 C 0.72912 0.02468 0.46185 0.0
C156 C 0.72294 0.02818 0.38714 0.0
C157 C 0.74684 0.02012 0.33957 0.0
C158 C 0.76487 0.01124 0.38008 0.0
C159 C 0.71399 0.05874 0.3809 0.0
C160 C 0.70445 1.00741 0.37467 0.0
H161 H 0.82255 0.02106 0.1262 0.0
H162 H 0.86832 0.99649 0.32372 0.0
H163 H 0.81478 0.95796 0.35705 0.0
H164 H 0.80713 0.97247 0.45014 0.0
H165 H 0.83749 0.96975 0.40495 0.0
H166 H 0.81439 0.04596 0.40324 0.0
H167 H 0.83533 0.02264 0.44023 0.0
H168 H 0.80372 0.0245 0.47564 0.0
H169 H 0.75044 0.99797 0.02758 0.0
H170 H 0.68107 0.02213 0.1576 0.0
H171 H 0.69942 0.0344 0.26176 0.0
H172 H 0.76785 0.04991 0.08464 0.0
H173 H 0.79578 0.03077 0.0492 0.0
H174 H 0.79139 0.05126 0.13536 0.0
H175 H 0.77963 0.96618 0.13345 0.0
H176 H 0.8075 0.98006 0.11956 0.0
H177 H 0.78947 0.98179 0.04904 0.0
H178 H 0.86412 0.01818 0.10056 0.0
C179 C 0.83135 0.016 0.17076 0.0
C180 C 0.55769 0.70506 0.43783 0.0
C181 C 0.5616 0.67638 0.44869 0.0
C182 C 0.56694 0.65782 0.38717 0.0
C183 C 0.56529 0.69498 0.30554 0.0
C184 C 0.55984 0.71401 0.36467 0.0
C185 C 0.55675 0.7432 0.3377 0.0
H186 H 0.56436 0.81902 0.02618 0.0
C187 C 0.56662 0.70942 0.23701 0.0
C188 C 0.56188 0.73801 0.25357 0.0
H189 H 0.54053 0.85391 0.24718 0.0
H190 H 0.54773 0.80799 0.29458 0.0
H191 H 0.60548 0.7764 0.04796 0.0
H192 H 0.53035 0.77629 0.048 0.0
H193 H 0.54179 0.74291 1.01496 0.0
H194 H 0.5515 0.77172 0.96457 0.0
H195 H 0.5921 0.77711 0.96636 0.0
H196 H 0.60253 0.74518 1.00158 0.0
C197 C 0.57519 0.76037 0.36491 0.0
C198 C 0.53084 0.75585 0.36463 0.0
C199 C 0.57764 0.65128 1.00042 0.0
C200 C 0.57542 0.65784 0.92845 0.0
C201 C 0.57579 0.68513 0.90887 0.0
C202 C 0.5769 0.70594 0.96217 0.0
C203 C 0.57654 0.6993 0.03593 0.0
C204 C 0.57755 0.67224 0.05326 0.0
C205 C 0.57501 0.66877 0.13411 0.0
C206 C 0.57163 0.69852 0.16338 0.0
C207 C 0.57259 0.71607 0.10596 0.0
C208 C 0.59881 0.65334 0.14917 0.0
C209 C 0.55215 0.654 0.15752 0.0
C210 C 0.56015 0.81734 0.08496 0.0
C211 C 0.55115 0.84037 0.13197 0.0
C212 C 0.5472 0.83656 0.20871 0.0
C213 C 0.55113 0.80994 0.23622 0.0
C214 C 0.5587 0.78687 0.18654 0.0
C215 C 0.56286 0.79141 0.1123 0.0
C216 C 0.56813 0.76579 0.06442 0.0
C217 C 0.56812 0.74466 0.12089 0.0
C218 C 0.56259 0.75627 0.19379 0.0
C219 C 0.59326 0.76601 0.01705 0.0
C220 C 0.54708 0.76397 0.02018 0.0
H221 H 0.57267 0.65107 0.27352 0.0
H222 H 0.55328 0.71985 0.48442 0.0
H223 H 0.51796 0.74201 0.34831 0.0
H224 H 0.52701 0.77581 0.34101 0.0
H225 H 0.52735 0.75908 0.42544 0.0
H226 H 0.59361 0.74989 0.34783 0.0
H227 H 0.57169 0.76325 0.42578 0.0
H228 H 0.57469 0.78088 0.34205 0.0
H229 H 0.57674 0.63045 0.01756 0.0
H230 H 0.57399 0.69045 0.85358 0.0
H231 H 0.5767 0.72645 0.94424 0.0
H232 H 0.61416 0.65615 0.10557 0.0
H233 H 0.59757 0.63089 0.1516 0.0
H234 H 0.60423 0.66125 0.20042 0.0
H235 H 0.53844 0.65904 0.12201 0.0
H236 H 0.54278 0.6605 0.21358 0.0
H237 H 0.55639 0.6313 0.15347 0.0
H238 H 0.56959 0.63589 0.3938 0.0
C239 C 0.56879 0.66682 0.31666 0.0
C240 C 0.33216 0.48655 0.0876 0.0
C241 C 0.34554 0.47275 0.13741 0.0
C242 C 0.34206 0.44528 0.1517 0.0
C243 C 0.30853 0.44849 0.08857 0.0
C244 C 0.31383 0.47303 0.06093 0.0
C245 C 0.29584 0.48167 1.00946 0.0
H246 H 0.18828 0.44814 0.90823 0.0
C247 C 0.2856 0.44236 0.07356 0.0
C248 C 0.27801 0.45965 0.02165 0.0
H249 H 0.22601 0.51525 0.82344 0.0
H250 H 0.25829 0.50192 0.89469 0.0
H251 H 0.23077 0.4002 0.92214 0.0
H252 H 0.18387 0.46209 0.03862 0.0
H253 H 0.20003 0.45591 0.1107 0.0
H254 H 0.18339 0.42979 0.07569 0.0
H255 H 0.19914 0.40298 0.95674 0.0
H256 H 0.22066 0.38912 1.01076 0.0
C257 C 0.30903 0.4797 0.92977 0.0
C258 C 0.28362 0.51077 0.03298 0.0
C259 C 0.22328 0.43455 0.28851 0.0
C260 C 0.19897 0.43108 0.28942 0.0
C261 C 0.19262 0.41474 0.23208 0.0
C262 C 0.20932 0.40698 0.16886 0.0
C263 C 0.23155 0.41721 0.16237 0.0
C264 C 0.23942 0.42745 0.22358 0.0
C265 C 0.26475 0.43428 0.20564 0.0
C266 C 0.26886 0.4298 0.1215 0.0
C267 C 0.24796 0.42348 0.09737 0.0
C268 C 0.28064 0.41423 0.24408 0.0
C269 C 0.2664 0.46454 0.23084 0.0
C270 C 0.20379 0.45955 0.90121 0.0
C271 C 0.20454 0.48224 0.85792 0.0
C272 C 0.22477 0.49741 0.85589 0.0
C273 C 0.2434 0.48981 0.89714 0.0
C274 C 0.2413 0.46754 0.94297 0.0
C275 C 0.22128 0.45341 0.94455 0.0
C276 C 0.21826 0.43433 1.00505 0.0
C277 C 0.24136 0.43627 0.03485 0.0
C278 C 0.25535 0.45575 0.99886 0.0
C279 C 0.21701 0.40504 0.97218 0.0
C280 C 0.19539 0.44589 0.06057 0.0
H281 H 0.32073 0.4121 0.13918 0.0
H282 H 0.33516 0.50726 0.07316 0.0
H283 H 0.27509 0.51191 0.09164 0.0
H284 H 0.26956 0.51669 0.99991 0.0
H285 H 0.29693 0.52604 0.026 0.0
H286 H 0.31807 0.4586 0.91456 0.0
H287 H 0.32286 0.49434 0.92289 0.0
H288 H 0.2965 0.48443 0.89086 0.0
H289 H 0.22894 0.44521 0.33421 0.0
H290 H 0.1743 0.41057 0.23186 0.0
H291 H 0.20384 0.39574 0.12429 0.0
H292 H 0.27172 0.41119 0.30081 0.0
H293 H 0.2977 0.4224 0.25064 0.0
H294 H 0.28438 0.39381 0.21356 0.0
H295 H 0.25447 0.47881 0.20414 0.0
H296 H 0.28493 0.47016 0.21719 0.0
H297 H 0.26128 0.46801 0.29127 0.0
H298 H 0.3527 0.4339 0.18635 0.0
C299 C 0.32368 0.43298 0.12658 0.0
C300 C 0.03345 0.25536 0.39748 0.0
C301 C 0.03692 0.22676 0.39846 0.0
C302 C 0.0296 0.21016 0.3437 0.0
C303 C 1.0171 0.25048 0.28501 0.0
C304 C 0.02323 0.26683 0.34029 0.0
C305 C 1.01661 0.29674 0.33171 0.0
H306 H 0.03702 0.39361 0.16584 0.0
C307 C 1.00908 0.26818 0.23035 0.0
C308 C 1.00718 0.29506 0.25848 0.0
H309 H 0.98722 0.39316 0.37055 0.0
H310 H 0.97614 0.34869 0.32987 0.0
H311 H 0.05878 0.32599 0.1229 0.0
H312 H 0.98852 0.35383 0.07217 0.0
H313 H 1.01109 0.33728 1.00021 0.0
H314 H 1.01393 0.37132 0.0362 0.0
H315 H 0.0558 0.35421 0.06429 0.0
H316 H 0.05283 0.31975 0.03102 0.0
C317 C 0.0394 0.31186 0.32652 0.0
C318 C 0.99746 0.30821 0.39784 0.0
C319 C 1.00834 0.22265 0.98558 0.0
C320 C 1.01659 0.22752 0.91302 0.0
C321 C 0.02312 0.25438 0.89771 0.0
C322 C 0.02169 0.27537 0.95589 0.0
C323 C 1.01454 0.26895 0.02957 0.0
C324 C 1.00893 0.24233 0.04155 0.0
C325 C 1.00893 0.23486 0.11818 0.0
C326 C 1.01048 0.26248 0.15439 0.0
C327 C 1.01361 0.28347 0.10433 0.0
C328 C 0.03177 0.21433 0.11868 0.0
C329 C 0.9849 0.2235 0.1473 0.0
C330 C 0.02388 0.38389 0.20209 0.0
C331 C 1.01428 0.39602 0.27475 0.0
C332 C 0.99587 0.38379 0.31756 0.0
C333 C 0.98992 0.35825 0.296 0.0
C334 C 1.00281 0.34483 0.23232 0.0
C335 C 1.01644 0.35801 0.18019 0.0
C336 C 0.02193 0.33876 0.10875 0.0
C337 C 1.01233 0.31156 0.13536 0.0
C338 C 1.00431 0.31623 0.21104 0.0
C339 C 0.04896 0.33443 0.08 0.0
C340 C 1.00807 0.35097 0.05083 0.0
H341 H 1.01245 0.20848 0.25094 0.0
H342 H 0.03759 0.26828 0.44181 0.0
H343 H 1.00049 0.29863 0.44942 0.0
H344 H 0.97921 0.30434 0.38846 0.0
H345 H 0.99807 0.33047 0.40964 0.0
H346 H 0.05285 0.3035 0.27831 0.0
H347 H 0.04767 0.30953 0.37674 0.0
H348 H 0.03533 0.3342 0.32117 0.0
H349 H 1.00405 0.20224 0.99988 0.0
H350 H 0.03003 0.2588 0.84191 0.0
H351 H 0.02743 0.29526 0.94334 0.0
H352 H 0.04401 0.21183 0.06492 0.0
H353 H 0.02702 0.19342 0.13168 0.0
H354 H 0.04323 0.22143 0.15731 0.0
H355 H 0.96966 0.23584 0.12907 0.0
H356 H 0.98081 0.22453 0.20797 0.0
H357 H 0.98496 0.20183 0.12682 0.0
H358 H 0.03057 0.18801 0.34664 0.0
C359 C 0.01915 0.22194 0.28811 0.0
C360 C 0.3102 1.00602 1.01155 0.0
C361 C 0.33096 0.02105 0.99957 0.0
C362 C 0.33017 0.04613 0.04136 0.0
C363 C 0.2941 0.0365 0.11664 0.0
C364 C 0.29086 0.01554 0.06954 0.0
C365 C 0.26639 1.00515 0.09857 0.0
H366 H 0.18327 1.009 0.42359 0.0
C367 C 0.27833 0.03553 0.18537 0.0
C368 C 0.25862 0.02165 0.17397 0.0
H369 H 0.15853 0.01035 0.21489 0.0
H370 H 0.20033 0.01452 0.15321 0.0
H371 H 0.22864 0.9688 0.37756 0.0
H372 H 0.2102 0.05536 0.40317 0.0
H373 H 0.23764 0.05044 0.43501 0.0
H374 H 0.21266 0.03371 0.47815 0.0
H375 H 0.22794 0.98728 0.46347 0.0
H376 H 0.25519 0.98034 0.39761 0.0
C377 C 0.26951 0.97407 0.10827 0.0
C378 C 0.24885 0.01217 0.04537 0.0
C379 C 0.32595 0.0177 0.38888 0.0
C380 C 0.31949 0.01223 0.46302 0.0
C381 C 0.29532 0.01229 0.49342 0.0
C382 C 0.27771 0.01796 0.44987 0.0
C383 C 0.28456 0.02333 0.37548 0.0
C384 C 0.30828 0.02401 0.34685 0.0
C385 C 0.3123 0.03081 0.26768 0.0
C386 C 0.2864 0.03435 0.2537 0.0
C387 C 0.27101 0.02758 0.31502 0.0
C388 C 0.32722 1.00596 0.2218 0.0
C389 C 0.32509 0.0573 0.26006 0.0
C390 C 0.18633 1.00858 0.36418 0.0
C391 C 0.16738 1.00791 0.32493 0.0
C392 C 0.17279 0.00998 0.24736 0.0
C393 C 0.19687 0.01189 0.21143 0.0
C394 C 0.2156 0.01141 0.25336 0.0
C395 C 0.20947 0.01043 0.3288 0.0
C396 C 0.22947 0.01406 0.36934 0.0
C397 C 0.2484 0.01987 0.3076 0.0
C398 C 0.24155 0.01676 0.23789 0.0
C399 C 0.23567 0.9864 0.40424 0.0
C400 C 0.22223 0.03953 0.42479 0.0
H401 H 0.31169 0.07271 0.1324 0.0
H402 H 0.30948 0.98742 0.97857 0.0
H403 H 0.24528 0.03481 0.04278 0.0
H404 H 0.23167 1.00359 0.06268 0.0
H405 H 0.25641 1.00325 0.9892 0.0
H406 H 0.28259 0.96912 0.14573 0.0
H407 H 0.27609 0.96258 0.05455 0.0
H408 H 0.25214 0.96689 0.1321 0.0
H409 H 0.34458 0.01711 0.36387 0.0
H410 H 0.29012 1.00817 0.55055 0.0
H411 H 0.25952 0.01776 0.47591 0.0
H412 H 0.31742 0.98736 0.22654 0.0
H413 H 0.34468 1.00118 0.24054 0.0
H414 H 0.33144 0.00993 0.16299 0.0
H415 H 0.33708 0.05941 0.30144 0.0
H416 H 0.31194 0.07592 0.26727 0.0
H417 H 0.33703 0.05717 0.20644 0.0
H418 H 0.34489 0.05874 0.03353 0.0
C419 C 0.31164 0.054 0.09931 0.0
C420 C 0.49067 0.31356 0.12602 0.0
C421 C 0.48082 0.34045 0.11237 0.0
C422 C 0.46101 0.35316 0.16197 0.0
C423 C 0.4655 0.3172 0.24509 0.0
C424 C 0.48175 0.30173 0.19263 0.0
C425 C 0.48649 0.27266 0.21862 0.0
H426 H 0.48047 0.19778 0.53117 0.0
C427 C 0.4632 0.30322 0.3136 0.0
C428 C 0.47416 0.27602 0.29955 0.0
H429 H 0.50067 0.16162 0.31026 0.0
H430 H 0.49352 0.20735 0.26184 0.0
H431 H 0.51078 0.24451 0.50377 0.0
H432 H 0.43685 0.23498 0.51432 0.0
H433 H 0.43732 0.26754 0.55761 0.0
H434 H 0.45175 0.23763 0.59258 0.0
H435 H 0.49042 0.25126 0.58811 0.0
H436 H 0.49776 0.27819 0.52719 0.0
C437 C 0.51352 0.26411 0.21126 0.0
C438 C 0.47408 0.25311 0.17322 0.0
C439 C 0.45907 0.36546 0.53982 0.0
C440 C 0.46452 0.35984 0.60949 0.0
C441 C 0.46463 0.33302 0.63279 0.0
C442 C 0.46097 0.31163 0.58477 0.0
C443 C 0.45846 0.31709 0.51193 0.0
C444 C 0.45661 0.3438 0.49131 0.0
C445 C 0.45527 0.34585 0.4111 0.0
C446 C 0.45805 0.31535 0.38603 0.0
C447 C 0.46045 0.299 0.44502 0.0
C448 C 0.47658 0.36087 0.3753 0.0
C449 C 0.43057 0.36102 0.40371 0.0
C450 C 0.48362 0.19922 0.47216 0.0
C451 C 0.49146 0.17584 0.42522 0.0
C452 C 0.4946 0.17923 0.34837 0.0
C453 C 0.49039 0.20565 0.32022 0.0
C454 C 0.48271 0.22883 0.36926 0.0
C455 C 0.47956 0.22485 0.4438 0.0
C456 C 0.47226 0.25073 0.49017 0.0
C457 C 0.46861 0.2708 0.43243 0.0
C458 C 0.47547 0.25874 0.36045 0.0
C459 C 0.49369 0.25656 0.5298 0.0
C460 C 0.4484 0.24769 0.54193 0.0
H461 H 0.43776 0.3514 0.26362 0.0
H462 H 0.50487 0.30245 0.08665 0.0
H463 H 0.45483 0.26067 0.1764 0.0
H464 H 0.47484 0.2322 0.19294 0.0
H465 H 0.48262 0.25179 0.11456 0.0
H466 H 0.52206 0.27919 0.24245 0.0
H467 H 0.52219 0.26308 0.15279 0.0
H468 H 0.51702 0.24363 0.23298 0.0
H469 H 0.4589 0.38613 0.52107 0.0
H470 H 0.46858 0.32851 0.68674 0.0
H471 H 0.46161 0.29153 0.60532 0.0
H472 H 0.49389 0.34997 0.38405 0.0
H473 H 0.4753 0.3823 0.39887 0.0
H474 H 0.47727 0.36249 0.31576 0.0
H475 H 0.42065 0.37059 0.45693 0.0
H476 H 0.41877 0.34674 0.38308 0.0
H477 H 0.43253 0.37817 0.3665 0.0
H478 H 0.45241 0.37304 0.15176 0.0
C479 C 0.45305 0.34136 0.22757 0.0
Dy480 Dy 1.00087 0.01523 0.72626 0.0
Dy481 Dy 0.03888 1.00486 0.83696 0.0
C482 C 0.0585 1.00808 0.66265 0.0
O483 O 1.00539 0.96898 0.71966 0.0
O484 O 0.02967 0.96245 0.80715 0.0
O485 O 0.98673 0.01093 0.62456 0.0
O486 O 0.96705 0.03757 0.71501 0.0
O487 O 1.00244 0.01354 0.90875 0.0
O488 O 0.9802 0.99905 0.8258 0.0
O489 O 0.04221 0.04867 0.81549 0.0
O490 O 1.00752 0.05815 0.76957 0.0
O491 O 0.05052 0.0136 0.94076 0.0
O492 O 0.07007 0.98145 0.86419 0.0
C493 C 1.01749 0.95264 0.75868 0.0
O494 O 0.03642 0.01147 0.64915 0.0
O495 O 0.06313 1.0059 0.72971 0.0
C496 C 0.9765 0.05693 0.60425 0.0
C497 C 0.99015 0.1099 0.58113 0.0
C498 C 1.00725 0.08761 0.58447 0.0
C499 C 1.00063 0.06156 0.59136 0.0
C500 C 0.95894 0.07881 0.60095 0.0
C501 C 0.96581 0.10515 0.58723 0.0
C502 C 0.97122 0.03252 0.64401 0.0
C503 C 0.98261 1.00454 0.89408 0.0
C504 C 0.02595 0.06657 0.79661 0.0
C505 C 0.0581 0.96952 0.9826 0.0
C506 C 0.0409 0.91923 0.01934 0.0
C507 C 0.02499 0.94311 0.02166 0.0
C508 C 0.03353 0.96803 1.00538 0.0
C509 C 0.0743 0.94634 0.98612 0.0
C510 C 0.06576 0.92139 1.0055 0.0
C511 C 0.06491 0.99081 0.93254 0.0
H512 H 0.02595 0.09001 0.58462 0.0
H513 H 1.01463 0.04542 0.59376 0.0
H514 H 0.94011 0.07585 0.61238 0.0
H515 H 0.95207 0.12173 0.5838 0.0
H516 H 1.00578 0.94249 0.03096 0.0
H517 H 0.02052 0.98547 1.00318 0.0
H518 H 0.09331 0.94693 0.96789 0.0
H519 H 0.07861 0.9036 1.00587 0.0
Dy520 Dy 0.52037 0.98581 0.71181 0.0
Dy521 Dy 0.51987 0.02926 0.84875 0.0
C522 C 0.51144 0.05242 0.69299 0.0
O523 O 0.56006 0.98863 0.70261 0.0
O524 O 0.55883 0.02208 0.79443 0.0
O525 O 0.53117 0.97036 0.59889 0.0
O526 O 0.50622 0.94963 0.67261 0.0
O527 O 0.52018 0.9874 0.89641 0.0
O528 O 0.53475 0.95963 0.79344 0.0
O529 O 0.48095 0.03103 0.84412 0.0
O530 O 0.48184 0.99094 0.77455 0.0
O531 O 0.51219 0.03996 0.96587 0.0
O532 O 0.52952 0.06758 0.89146 0.0
C533 C 0.57092 1.00551 0.74002 0.0
O534 O 0.51492 0.02721 0.66268 0.0
O535 O 0.51115 0.05738 0.76339 0.0
C536 C 0.49552 0.96034 0.56096 0.0
C537 C 0.45052 0.97844 0.52703 0.0
C538 C 0.46723 0.99714 0.53496 0.0
C539 C 0.48963 0.98809 0.54944 0.0
C540 C 0.47946 0.9412 0.54986 0.0
C541 C 0.45715 0.95017 0.53178 0.0
C542 C 0.51439 0.95382 0.60446 0.0
C543 C 0.52943 0.96333 0.86496 0.0
C544 C 0.46987 0.0115 0.81813 0.0
C545 C 0.54912 0.05347 0.98411 0.0
C546 C 0.59901 0.04303 0.96903 0.0
C547 C 0.58508 0.02189 0.95578 0.0
C548 C 0.56051 0.02679 0.96631 0.0
C549 C 0.56266 0.07473 0.99969 0.0
C550 C 0.58753 0.06938 0.99378 0.0
C551 C 0.52645 0.05937 0.95805 0.0
H552 H 0.46276 0.01911 0.53412 0.0
H553 H 0.50154 1.00339 0.55762 0.0
H554 H 0.48355 0.91974 0.55969 0.0
H555 H 0.44484 0.93513 0.52446 0.0
H556 H 0.59303 1.00161 0.93416 0.0
H557 H 0.55073 0.01008 0.9521 0.0
H558 H 0.55428 0.0956 1.01156 0.0
H559 H 0.59772 0.08601 1.00634 0.0
Dy560 Dy 0.54334 0.51025 0.83113 0.0
Dy561 Dy 0.49498 0.50955 0.7241 0.0
C562 C 0.50654 0.46256 0.84432 0.0
O563 O 0.55695 0.47441 0.75119 0.0
O564 O 0.53389 0.49642 0.68299 0.0
O565 O 0.54674 0.51002 0.94614 0.0
O566 O 0.57798 0.51654 0.86518 0.0
O567 O 0.50971 0.54935 0.70664 0.0
O568 O 0.5463 0.54555 0.75067 0.0
O569 O 0.48139 0.54547 0.80398 0.0
O570 O 0.50445 0.52364 0.87242 0.0
O571 O 0.49013 0.50926 0.60889 0.0
O572 O 0.46025 0.50274 0.6951 0.0
C573 C 0.54532 0.47305 0.69585 0.0
O574 O 0.52787 0.47024 0.85037 0.0
O575 O 0.49134 0.47592 0.80659 0.0
C576 C 0.58296 0.51648 0.99722 0.0
C577 C 0.60818 0.51956 0.11916 0.0
C578 C 0.58566 0.5094 0.12622 0.0
C579 C 0.57325 0.50802 0.06656 0.0
C580 C 0.60538 0.52699 0.98989 0.0
C581 C 0.61776 0.52868 0.05022 0.0
C582 C 0.56919 0.51463 0.93459 0.0
C583 C 0.53034 0.55847 0.71408 0.0
C584 C 0.49297 0.54699 0.85947 0.0
C585 C 0.45207 0.50155 0.56778 0.0
C586 C 0.42145 0.49662 0.45998 0.0
C587 C 0.4426 0.5097 0.44502 0.0
C588 C 0.45773 0.51198 0.49797 0.0
C589 C 0.43136 0.48795 0.58227 0.0
C590 C 0.41647 0.48526 0.52916 0.0
C591 C 0.46776 0.50448 0.62486 0.0
H592 H 0.57752 0.5025 0.17836 0.0
H593 H 0.55598 0.50002 0.07485 0.0
H594 H 0.61334 0.53393 0.9376 0.0
H595 H 0.6351 0.53651 0.04245 0.0
H596 H 0.44724 0.51887 0.3931 0.0
H597 H 0.47367 0.52242 0.48465 0.0
H598 H 0.42666 0.47918 0.6348 0.0
H599 H 0.40098 0.47415 0.54281 0.0
Dy600 Dy 0.02604 0.53984 0.7377 0.0
Dy601 Dy 1.01516 0.48192 0.80617 0.0
C602 C 0.02975 0.48192 0.63395 0.0
O603 O 0.9863 0.5458 0.77005 0.0
O604 O 0.9805 0.50016 0.77192 0.0
O605 O 0.02434 0.56602 0.64623 0.0
O606 O 0.04472 0.57649 0.72984 0.0
O607 O 1.0113 0.51215 0.90452 0.0
O608 O 1.01683 0.55418 0.85637 0.0
O609 O 0.05524 0.47748 0.7828 0.0
O610 O 0.06058 0.52281 0.77318 0.0
O611 O 0.02099 0.45135 0.88395 0.0
O612 O 0.99456 0.44708 0.81314 0.0
C613 C 0.97207 0.52618 0.7703 0.0
O614 O 0.02474 0.50891 0.64134 0.0
O615 O 0.03083 0.46761 0.69163 0.0
C616 C 0.06483 0.5695 0.61087 0.0
C617 C 0.10662 0.54637 0.51876 0.0
C618 C 0.09461 0.53105 0.57205 0.0
C619 C 0.07354 0.542 0.61401 0.0
C620 C 0.07759 0.58614 0.5621 0.0
C621 C 0.0985 0.57439 0.515 0.0
C622 C 0.04252 0.57826 0.6611 0.0
C623 C 1.01275 0.5388 0.9127 0.0
C624 C 0.06919 0.49735 0.77929 0.0
C625 C 0.98286 0.4407 0.9375 0.0
C626 C 0.94061 0.46214 0.02883 0.0
C627 C 0.96268 0.46922 0.04376 0.0
C628 C 0.98372 0.45843 0.99878 0.0
C629 C 0.96105 0.43075 0.92892 0.0
C630 C 0.9399 0.44154 0.97446 0.0
C631 C 1.00197 0.43979 0.87351 0.0
H632 H 0.10071 0.50975 0.57862 0.0
H633 H 0.06365 0.52837 0.64784 0.0
H634 H 0.07116 0.60754 0.55902 0.0
H635 H 0.10773 0.58672 0.47466 0.0
H636 H 0.96347 0.48488 0.08633 0.0
H637 H 1.00021 0.46641 1.00757 0.0
H638 H 0.95999 0.41708 0.88215 0.0
H639 H 0.92292 0.4358 0.96267 0.0
H640 H 0.15614 0.97871 0.4456 0.0
H641 H 0.12272 0.03403 0.30763 0.0
H642 H 0.08526 0.03783 0.39709 0.0
H643 H 0.06311 0.02853 0.52226 0.0
H644 H 0.10139 0.9795 0.6637 0.0
H645 H 0.13614 0.97191 0.56774 0.0
C646 C 0.14088 0.99203 0.43473 0.0
C647 C 0.14277 1.00649 0.36967 0.0
C648 C 0.12025 0.99587 0.48876 0.0
C649 C 0.1221 0.0225 0.35646 0.0
C650 C 0.10071 0.02502 0.40847 0.0
C651 C 0.07904 0.01609 0.53175 0.0
C652 C 0.07936 1.00447 0.60076 0.0
C653 C 0.09972 0.01234 0.47603 0.0
C654 C 0.10039 0.98876 0.61192 0.0
C655 C 0.12035 0.98421 0.55664 0.0
H656 H 0.51257 0.16663 0.54557 0.0
H657 H 0.48049 0.12401 0.38374 0.0
H658 H 0.4841 0.08171 0.4502 0.0
H659 H 0.4951 0.05719 0.55886 0.0
H660 H 0.52389 0.103 0.72323 0.0
H661 H 0.52218 0.14354 0.65248 0.0
C662 C 0.50619 0.1482 0.52454 0.0
C663 C 0.49615 0.1488 0.45936 0.0
C664 C 0.50752 0.12437 0.56435 0.0
C665 C 0.48858 0.12428 0.43293 0.0
C666 C 0.49042 0.10011 0.47154 0.0
C667 C 0.50105 0.07602 0.57894 0.0
C668 C 0.50963 0.07677 0.64682 0.0
C669 C 0.49967 0.09991 0.53795 0.0
C670 C 0.51702 0.1016 0.67193 0.0
C671 C 0.51619 0.12491 0.63116 0.0
H672 H 0.3353 0.48775 0.28129 0.0
H673 H 0.3923 0.48315 0.09644 0.0
H674 H 0.42117 0.49047 0.17955 0.0
H675 H 0.43062 0.49356 0.30662 0.0
H676 H 0.37246 0.49809 0.49003 0.0
H677 H 0.34406 0.49455 0.40618 0.0
C678 C 0.35392 0.48945 0.25903 0.0
C679 C 0.36147 0.48585 0.18242 0.0
C680 C 0.37044 0.49264 0.30739 0.0
C681 C 0.38584 0.48687 0.15474 0.0
C682 C 0.40241 0.49054 0.20258 0.0
C683 C 0.41173 0.49424 0.32859 0.0
C684 C 0.40412 0.49562 0.4058 0.0
C685 C 0.39502 0.49277 0.27935 0.0
C686 C 0.37936 0.49617 0.4318 0.0
C687 C 0.36286 0.49453 0.38357 0.0
H688 H 0.04685 0.39268 0.36645 0.0
H689 H 0.99804 0.45078 0.2819 0.0
H690 H 0.9996 0.48407 0.38373 0.0
H691 H 1.01066 0.49425 0.50745 0.0
H692 H 0.05735 0.43373 0.59375 0.0
H693 H 0.06088 0.40434 0.4821 0.0
C694 C 0.03756 0.41319 0.3681 0.0
C695 C 0.02313 0.41947 0.31415 0.0
C696 C 0.03761 0.43171 0.42922 0.0
C697 C 1.01014 0.44569 0.32018 0.0
C698 C 1.01063 0.46456 0.3797 0.0
C699 C 0.022 0.47491 0.50115 0.0
C700 C 0.03366 0.46638 0.55997 0.0
C701 C 0.02367 0.4575 0.43618 0.0
C702 C 0.04798 0.44094 0.55041 0.0
C703 C 0.05008 0.42401 0.48611 0.0
H704 H 0.89112 0.96994 0.09728 0.0
H705 H 0.90701 0.03354 0.24421 0.0
H706 H 0.94487 0.0377 0.16173 0.0
H707 H 0.97078 0.0275 0.03783 0.0
H708 H 0.94951 0.96896 0.88583 0.0
H709 H 0.91631 0.95945 0.97805 0.0
C710 C 0.90333 0.98399 0.11285 0.0
C711 C 0.89631 1.00092 0.17826 0.0
C712 C 0.92379 0.98802 0.06199 0.0
C713 C 0.91209 0.01963 0.19589 0.0
C714 C 0.93352 0.02246 0.1475 0.0
C715 C 0.95901 0.01246 0.02531 0.0
C716 C 0.96288 0.99896 0.95429 0.0
C717 C 0.93915 1.0075 0.07882 0.0
C718 C 0.94713 0.9798 0.93926 0.0
C719 C 0.92812 0.97416 0.99239 0.0
H720 H 0.53365 0.8479 1.00397 0.0
H721 H 0.5557 0.89384 0.18145 0.0
H722 H 0.55007 0.93626 0.1168 0.0
H723 H 0.54058 0.96004 1.00542 0.0
H724 H 0.52389 0.91107 0.82423 0.0
H725 H 0.52683 0.87006 0.89335 0.0
C726 C 0.53776 0.86698 0.02865 0.0
C727 C 0.54556 0.86723 0.0977 0.0
C728 C 0.53569 0.89088 0.98964 0.0
C729 C 0.54958 0.89273 0.12897 0.0
C730 C 0.54659 0.91702 0.09146 0.0
C731 C 0.53754 0.94038 0.98139 0.0
C732 C 0.53187 0.93879 0.90958 0.0
C733 C 0.5399 0.91634 0.02118 0.0
C734 C 0.52833 0.91302 0.87897 0.0
C735 C 0.5299 0.88949 0.91869 0.0
H736 H 0.66467 0.49615 0.38586 0.0
H737 H 0.68017 0.57951 0.3541 0.0
H738 H 0.6556 0.58271 0.25712 0.0
H739 H 0.63195 0.56053 0.1737 0.0
H740 H 0.61486 0.47779 0.20944 0.0
H741 H 0.63717 0.47583 0.31188 0.0
C742 C 0.66181 0.51536 0.35989 0.0
C743 C 0.67388 0.53776 0.37887 0.0
C744 C 0.6476 0.51704 0.30333 0.0
C745 C 0.67057 0.56221 0.34239 0.0
C746 C 0.6568 0.56391 0.28585 0.0
C747 C 0.63309 0.54208 0.20395 0.0
C748 C 0.62178 0.51925 0.18288 0.0
C749 C 0.64567 0.54123 0.26441 0.0
C750 C 0.62326 0.49572 0.22393 0.0
C751 C 0.63608 0.49455 0.2828 0.0
H752 H 0.97822 0.58695 0.2407 0.0
H753 H 0.0435 0.62557 0.19711 0.0
H754 H 0.05323 0.60138 0.07538 0.0
H755 H 0.04083 0.57277 0.97531 0.0
H756 H 0.97602 0.53334 0.02224 0.0
H757 H 0.96816 0.55471 0.14702 0.0
C758 C 0.9949 0.58954 0.20535 0.0
C759 C 1.01012 0.60807 0.22879 0.0
C760 C 1.00009 0.576 0.13464 0.0
C761 C 0.03162 0.61115 0.18166 0.0
C762 C 0.03697 0.59766 0.11124 0.0
C763 C 0.02501 0.56889 1.01305 0.0
C764 C 1.00876 0.55182 0.98892 0.0
C765 C 0.02095 0.58071 0.08607 0.0
C766 C 0.98867 0.5465 0.03906 0.0
C767 C 0.98422 0.55867 0.11062 0.0
H768 H 1.00846 0.23188 0.52823 0.0
H769 H 0.07499 0.19057 0.41314 0.0
H770 H 0.06556 0.14774 0.46746 0.0
H771 H 0.03324 0.12133 0.50935 0.0
H772 H 0.96595 0.16095 0.62817 0.0
H773 H 0.97991 0.20574 0.60296 0.0
C774 C 0.02154 0.21387 0.51927 0.0
C775 C 0.04171 0.21354 0.46445 0.0
C776 C 1.0149 0.18896 0.54552 0.0
C777 C 0.0591 0.1908 0.45435 0.0
C778 C 0.05329 0.16615 0.48332 0.0
C779 C 0.02185 0.13941 0.5341 0.0
C780 C 0.99846 0.13745 0.57086 0.0
C781 C 0.03035 0.16474 0.52315 0.0
C782 C 0.98377 0.16167 0.59783 0.0
C783 C 0.99192 0.1873 0.58494 0.0
H784 H 0.35565 0.04201 0.46729 0.0
H785 H 0.32614 0.97007 0.55378 0.0
H786 H 0.36466 0.95433 0.59059 0.0
H787 H 0.40819 0.95798 0.57856 0.0
H788 H 0.43777 0.02293 0.45274 0.0
H789 H 0.39801 0.04399 0.44793 0.0
C790 C 0.35765 0.02297 0.4949 0.0
C791 C 0.33864 1.00683 0.50637 0.0
C792 C 0.38013 0.01248 0.50644 0.0
C793 C 0.34082 0.98271 0.54425 0.0
C794 C 0.36288 0.97349 0.56375 0.0
C795 C 0.406 0.97646 0.54905 0.0
C796 C 0.4261 0.98912 0.51762 0.0
C797 C 0.38298 0.98752 0.54125 0.0
C798 C 0.42276 0.01323 0.48007 0.0
C799 C 0.4 0.02532 0.47687 0.0
H800 H 0.50715 0.3569 0.65954 0.0
H801 H 0.44348 0.41109 0.64685 0.0
H802 H 0.46493 0.45058 0.66312 0.0
H803 H 0.50249 0.46875 0.66073 0.0
H804 H 0.5645 0.41898 0.70268 0.0
H805 H 0.54359 0.37753 0.68936 0.0
C806 C 0.49779 0.37742 0.66365 0.0
C807 C 0.47399 0.38138 0.65015 0.0
C808 C 0.51026 0.40029 0.6736 0.0
C809 C 0.46187 0.40782 0.6561 0.0
C810 C 0.47425 0.43036 0.66395 0.0
C811 C 0.5115 0.44922 0.66759 0.0
C812 C 0.5349 0.44723 0.68195 0.0
C813 C 0.49864 0.42668 0.66858 0.0
C814 C 0.54637 0.42114 0.691 0.0
C815 C 0.53431 0.39761 0.68461 0.0
H816 H 0.20084 0.48415 0.33797 0.0
H817 H 0.15448 0.41884 0.3507 0.0
H818 H 0.12096 0.45119 0.40874 0.0
H819 H 0.10482 0.49734 0.45233 0.0
H820 H 0.15171 0.56085 0.4663 0.0
H821 H 0.18524 0.53001 0.39653 0.0
C822 C 0.18363 0.47666 0.35538 0.0
C823 C 0.18018 0.44898 0.33915 0.0
C824 C 0.16455 0.49519 0.39079 0.0
C825 C 0.15757 0.44001 0.36107 0.0
C826 C 0.13838 0.4585 0.39402 0.0
C827 C 0.12245 0.50446 0.44086 0.0
C828 C 0.12597 0.53113 0.46526 0.0
C829 C 0.14168 0.48608 0.40787 0.0
C830 C 0.14862 0.54043 0.44767 0.0
C831 C 0.16777 0.52265 0.40917 0.0
H832 H 0.9918 0.81457 0.11236 0.0
H833 H 0.05869 0.77588 0.99343 0.0
H834 H 0.06737 0.81923 0.93896 0.0
H835 H 0.0607 0.86954 0.95271 0.0
H836 H 0.99924 0.90796 0.10417 0.0
H837 H 0.9837 0.86398 0.11912 0.0
C838 C 1.00761 0.81547 0.07119 0.0
C839 C 0.02476 0.7926 0.05716 0.0
C840 C 1.01396 0.841 0.04929 0.0
C841 C 0.04527 0.79348 1.00436 0.0
C842 C 0.05052 0.81843 0.97522 0.0
C843 C 0.04401 0.86836 0.98952 0.0
C844 C 0.03137 0.89222 0.02763 0.0
C845 C 0.03592 0.84264 1.0023 0.0
C846 C 1.00934 0.8902 0.07314 0.0
C847 C 1.00038 0.86495 0.08206 0.0
H848 H 0.70708 0.04161 0.98401 0.0
H849 H 0.69477 0.96141 0.05876 0.0
H850 H 0.65686 0.96399 1.01259 0.0
H851 H 0.62349 0.99501 0.99278 0.0
H852 H 0.63372 0.07693 0.92361 0.0
H853 H 0.67633 0.06839 0.92999 0.0
C854 C 0.69665 0.02414 0.98561 0.0
C855 C 0.70289 1.00168 0.02532 0.0
C856 C 0.67413 0.02688 0.96469 0.0
C857 C 0.68984 0.97886 0.02811 0.0
C858 C 0.668 0.98067 1.00337 0.0
C859 C 0.63498 0.01071 0.97525 0.0
C860 C 0.62525 0.03686 0.95958 0.0
C861 C 0.65921 1.00556 0.97793 0.0
C862 C 0.64062 0.05699 0.93889 0.0
C863 C 0.66501 0.05199 0.94131 0.0
H864 H 0.53493 0.66168 0.86701 0.0
H865 H 0.59688 0.60666 0.8912 0.0
H866 H 0.57356 0.56804 0.8906 0.0
H867 H 0.53471 0.55175 0.90285 0.0
H868 H 0.47521 0.60075 0.8418 0.0
H869 H 0.49769 0.64141 0.84326 0.0
C870 C 0.54362 0.641 0.86766 0.0
C871 C 0.56725 0.63685 0.88238 0.0
C872 C 0.53012 0.61856 0.86573 0.0
C873 C 0.57859 0.61013 0.88113 0.0
C874 C 0.56507 0.58813 0.88283 0.0
C875 C 0.52659 0.57093 0.88938 0.0
C876 C 0.5035 0.57288 0.87233 0.0
C877 C 0.5406 0.59248 0.87959 0.0
C878 C 0.49307 0.5986 0.85562 0.0
C879 C 0.50608 0.62161 0.85481 0.0
H880 H 0.84603 0.52351 0.20723 0.0
H881 H 0.87867 0.59357 0.12033 0.0
H882 H 0.91163 0.56286 0.0477 0.0
H883 H 0.93233 0.51638 0.01857 0.0
H884 H 0.9004 0.4465 0.11008 0.0
H885 H 0.86546 0.47687 0.17202 0.0
C886 C 0.86026 0.53186 0.17129 0.0
C887 C 0.86031 0.5604 0.168 0.0
C888 C 0.8791 0.51424 0.1319 0.0
C889 C 0.87861 0.57151 0.12268 0.0
C890 C 0.89732 0.55403 0.08179 0.0
C891 C 0.91762 0.50792 0.05209 0.0
C892 C 0.9188 0.47954 0.06152 0.0
C893 C 0.89798 0.52544 0.08753 0.0
C894 C 0.89966 0.4684 0.1031 0.0
C895 C 0.87985 0.48571 0.13831 0.0
H896 H 0.04848 0.18342 0.91563 0.0
H897 H 0.99195 0.21315 0.80098 0.0
H898 H 0.98986 0.16603 0.75171 0.0
H899 H 1.00128 0.11472 0.75316 0.0
H900 H 0.05636 0.08735 0.87815 0.0
H901 H 0.06122 0.13438 0.91182 0.0
C902 C 0.03632 0.17982 0.87737 0.0
C903 C 0.02085 0.20223 0.86084 0.0
C904 C 0.03435 0.15252 0.8527 0.0
C905 C 1.00462 0.19672 0.81323 0.0
C906 C 1.00312 0.16953 0.78611 0.0
C907 C 1.01447 0.11904 0.78723 0.0
C908 C 0.02842 0.09678 0.81248 0.0
C909 C 1.01736 0.14696 0.80746 0.0
C910 C 0.04537 0.10338 0.85678 0.0
C911 C 0.04828 0.13057 0.8764 0.0
H912 H 0.35923 0.05104 0.90684 0.0
H913 H 0.35702 0.96964 0.98542 0.0
H914 H 0.39942 0.95814 0.93096 0.0
H915 H 0.43887 0.97326 0.8716 0.0
H916 H 0.44024 0.05698 0.80885 0.0
H917 H 0.39706 0.0656 0.8477 0.0
C918 C 0.36782 0.03056 0.91142 0.0
C919 C 0.35453 0.01127 0.95041 0.0
C920 C 0.39252 0.02466 0.88358 0.0
C921 C 0.36633 0.98486 0.9548 0.0
C922 C 0.39083 0.97842 0.92454 0.0
C923 C 0.42958 0.99319 0.8652 0.0
C924 C 0.44297 0.01439 0.83609 0.0
C925 C 0.40438 0.9984 0.89027 0.0
C926 C 0.43058 0.04026 0.83028 0.0
C927 C 0.40577 0.04523 0.85259 0.0
H928 H 0.45943 0.36357 1.0038 0.0
H929 H 0.52539 0.35749 0.09134 0.0
H930 H 0.5394 0.39444 1.01563 0.0
H931 H 0.53161 0.43089 0.93171 0.0
H932 H 0.46565 0.43678 0.84289 0.0
H933 H 0.45317 0.39745 0.91082 0.0
C934 C 0.47719 0.36975 1.00443 0.0
C935 C 0.49155 0.35726 0.0522 0.0
C936 C 0.48502 0.39132 0.96113 0.0
C937 C 0.51429 0.36605 0.05364 0.0
C938 C 0.52215 0.38751 1.01104 0.0
C939 C 0.51455 0.42354 0.92647 0.0
C940 C 0.49951 0.43732 0.88237 0.0
C941 C 0.50747 0.40069 0.96565 0.0
C942 C 0.47756 0.42707 0.87669 0.0
C943 C 0.4704 0.40443 0.91556 0.0
H944 H 0.17548 0.44912 0.79785 0.0
H945 H 0.18281 0.53462 0.8454 0.0
H946 H 0.14218 0.54709 0.82032 0.0
H947 H 0.10268 0.53315 0.79902 0.0
H948 H 0.09487 0.44681 0.76757 0.0
H949 H 0.13696 0.43532 0.77595 0.0
C950 C 0.16832 0.47059 0.80306 0.0
C951 C 0.18242 0.49079 0.82506 0.0
C952 C 0.1444 0.47743 0.79338 0.0
C953 C 0.17276 0.51849 0.8284 0.0
C954 C 0.14926 0.52561 0.81518 0.0
C955 C 0.1102 0.51182 0.79357 0.0
C956 C 0.09532 0.4909 0.78281 0.0
C957 C 0.1346 0.50518 0.80001 0.0
C958 C 0.10559 0.4634 0.77617 0.0
C959 C 0.1298 0.45677 0.78065 0.0
H960 H 0.04162 0.82273 0.7095 0.0
H961 H 0.97382 0.82972 0.63296 0.0
H962 H 0.96868 0.87933 0.66404 0.0
H963 H 0.98514 0.92176 0.7041 0.0
H964 H 0.052 0.91391 0.78741 0.0
H965 H 0.05567 0.86419 0.76348 0.0
C966 C 0.0253 0.83497 0.70237 0.0
C967 C 1.00782 0.82225 0.6707 0.0
C968 C 0.02249 0.86367 0.72035 0.0
C969 C 0.98716 0.8387 0.65949 0.0
C970 C 0.98441 0.86724 0.67617 0.0
C971 C 1.00044 0.90917 0.71742 0.0
C972 C 1.01839 0.92193 0.7469 0.0
C973 C 1.00222 0.88014 0.7051 0.0
C974 C 0.0379 0.90497 0.76455 0.0
C975 C 0.04005 0.87637 0.75083 0.0
H976 H 0.67755 0.03825 0.66044 0.0
H977 H 0.69117 0.95477 0.5692 0.0
H978 H 0.64915 0.94766 0.6114 0.0
H979 H 0.6072 0.96639 0.6679 0.0
H980 H 0.59496 0.04968 0.76243 0.0
H981 H 0.63712 0.05555 0.72495 0.0
C982 C 0.67153 0.01822 0.6515 0.0
C983 C 0.68797 0.99695 0.61257 0.0
C984 C 0.64716 0.01436 0.67547 0.0
C985 C 0.6794 0.97135 0.60056 0.0
C986 C 0.65513 0.96741 0.6238 0.0
C987 C 0.61378 0.98576 0.68075 0.0
C988 C 0.59749 1.00758 0.71825 0.0
C989 C 0.63862 0.98893 0.66024 0.0
C990 C 0.60672 0.03241 0.73432 0.0
C991 C 0.631 0.03585 0.71273 0.0
H992 H 0.52147 0.666 0.53914 0.0
H993 H 0.59829 0.65431 0.51296 0.0
H994 H 0.59623 0.61738 0.59847 0.0
H995 H 0.57228 0.58338 0.66688 0.0
H996 H 0.49516 0.59625 0.68846 0.0
H997 H 0.49775 0.63706 0.62052 0.0
C998 C 0.5377 0.65637 0.55518 0.0
C999 C 0.55996 0.66358 0.52109 0.0
C1000 C 0.53639 0.63441 0.60249 0.0
C1001 C 0.58087 0.64986 0.54017 0.0
C1002 C 0.5797 0.62828 0.58811 0.0
C1003 C 0.55608 0.5954 0.65795 0.0
C1004 C 0.53362 0.58591 0.68204 0.0
C1005 C 0.55753 0.61954 0.61759 0.0
C1006 C 0.51286 0.6022 0.66962 0.0
C1007 C 0.5142 0.62591 0.63075 0.0
H1008 H 0.8676 0.58151 0.75672 0.0
H1009 H 0.85889 0.50025 0.67177 0.0
H1010 H 0.89854 0.48364 0.69818 0.0
H1011 H 0.93802 0.49346 0.73213 0.0
H1012 H 0.94726 0.57687 0.79836 0.0
H1013 H 0.90595 0.59147 0.78747 0.0
C1014 C 0.87426 0.5602 0.74206 0.0
C1015 C 0.85995 0.54254 0.70979 0.0
C1016 C 0.89776 0.5512 0.75243 0.0
C1017 C 0.86903 0.51462 0.69646 0.0
C1018 C 0.89202 0.50513 0.7106 0.0
C1019 C 0.93093 0.51478 0.7448 0.0
C1020 C 0.94606 0.53395 0.76634 0.0
C1021 C 0.90692 0.52341 0.7365 0.0
C1022 C 0.93636 0.56153 0.78174 0.0
C1023 C 0.91257 0.56996 0.77573 0.0
loop_
_geom_bond_atom_site_label_1
_geom_bond_atom_site_label_2
_geom_bond_distance
_geom_bond_site_symmetry_2
_ccdc_geom_bond_type
C0 C1 1.391 . S
C0 C4 1.391 . S
C0 H42 0.948 . S
C1 C0 1.391 . S
C1 C2 1.391 . S
C2 C1 1.391 . S
C2 H58 0.947 . S
C2 C59 1.392 . S
C3 C4 1.391 . S
C3 C7 1.397 . S
C3 C59 1.419 . S
C4 C0 1.391 . S
C4 C3 1.391 . S
C4 C5 1.399 . S
C5 C4 1.399 . S
C5 C8 1.396 . S
C5 C17 1.453 . S
C5 C18 1.684 . S
H6 C30 0.948 . S
C7 C3 1.397 . S
C7 C8 1.394 . S
C7 C26 1.723 . S
C8 C5 1.396 . S
C8 C7 1.394 . S
C8 C38 1.723 . S
H9 C32 0.947 . S
H10 C33 0.948 . S
H11 C39 0.982 . S
H12 C40 0.979 . S
H13 C40 0.980 . S
H14 C40 0.983 . S
H15 C39 0.979 . S
H16 C39 0.977 . S
C17 C5 1.453 . S
C17 H46 0.982 . S
C17 H47 0.979 . S
C17 H48 0.977 . S
C18 C5 1.684 . S
C18 H43 0.979 . S
C18 H44 0.980 . S
C18 H45 0.983 . S
C19 C20 1.391 . S
C19 C24 1.391 . S
C19 H49 0.948 . S
C20 C19 1.391 . S
C20 C21 1.391 . S
C21 C20 1.391 . S
C21 C22 1.392 . S
C21 H50 0.947 . S
C22 C21 1.392 . S
C22 C23 1.419 . S
C22 H51 0.948 . S
C23 C22 1.419 . S
C23 C24 1.391 . S
C23 C27 1.397 . S
C24 C19 1.391 . S
C24 C23 1.391 . S
C24 C25 1.399 . S
C25 C24 1.399 . S
C25 C26 1.396 . S
C25 C28 1.453 . S
C25 C29 1.684 . S
C26 C7 1.723 . S
C26 C25 1.396 . S
C26 C27 1.394 . S
C27 C23 1.397 . S
C27 C26 1.394 . S
C27 C37 1.723 . S
C28 C25 1.453 . S
C28 H52 0.982 . S
C28 H53 0.979 . S
C28 H54 0.977 . S
C29 C25 1.684 . S
C29 H55 0.979 . S
C29 H56 0.980 . S
C29 H57 0.983 . S
C30 H6 0.948 . S
C30 C31 1.391 . S
C30 C35 1.391 . S
C31 C30 1.391 . S
C31 C32 1.391 . S
C32 H9 0.947 . S
C32 C31 1.391 . S
C32 C33 1.392 . S
C33 H10 0.948 . S
C33 C32 1.392 . S
C33 C34 1.419 . S
C34 C33 1.419 . S
C34 C35 1.391 . S
C34 C38 1.397 . S
C35 C30 1.391 . S
C35 C34 1.391 . S
C35 C36 1.399 . S
C36 C35 1.399 . S
C36 C37 1.396 . S
C36 C39 1.453 . S
C36 C40 1.684 . S
C37 C27 1.723 . S
C37 C36 1.396 . S
C37 C38 1.394 . S
C38 C8 1.723 . S
C38 C34 1.397 . S
C38 C37 1.394 . S
C39 H11 0.982 . S
C39 H15 0.979 . S
C39 H16 0.977 . S
C39 C36 1.453 . S
C40 H12 0.979 . S
C40 H13 0.980 . S
C40 H14 0.983 . S
C40 C36 1.684 . S
H41 C59 0.948 . S
H42 C0 0.948 . S
H43 C18 0.979 . S
H44 C18 0.980 . S
H45 C18 0.983 . S
H46 C17 0.982 . S
H47 C17 0.979 . S
H48 C17 0.977 . S
H49 C19 0.948 . S
H50 C21 0.947 . S
H51 C22 0.948 . S
H52 C28 0.982 . S
H53 C28 0.979 . S
H54 C28 0.977 . S
H55 C29 0.979 . S
H56 C29 0.980 . S
H57 C29 0.983 . S
H58 C2 0.947 . S
C59 C2 1.392 . S
C59 C3 1.419 . S
C59 H41 0.948 . S
C60 C61 1.391 . S
C60 C64 1.391 . S
C60 H102 0.948 . S
C61 C60 1.391 . S
C61 C62 1.391 . S
C62 C61 1.391 . S
C62 H118 0.947 . S
C62 C119 1.392 . S
C63 C64 1.391 . S
C63 C67 1.401 . S
C63 C119 1.419 . S
C64 C60 1.391 . S
C64 C63 1.391 . S
C64 C65 1.399 . S
C65 C64 1.399 . S
C65 C68 1.397 1_655 S
C65 C77 1.453 1_655 S
C65 C78 1.684 . S
H66 C90 0.948 . S
C67 C63 1.401 . S
C67 C68 1.402 1_655 S
C67 C86 1.714 1_655 S
C68 C65 1.397 1_455 S
C68 C67 1.402 1_455 S
C68 C98 1.722 1_455 S
H69 C92 0.947 . S
H70 C93 0.948 . S
H71 C99 0.982 . S
H72 C100 0.979 . S
H73 C100 0.980 . S
H74 C100 0.983 . S
H75 C99 0.979 . S
H76 C99 0.977 . S
C77 C65 1.453 1_455 S
C77 H106 0.982 . S
C77 H107 0.979 . S
C77 H108 0.977 . S
C78 C65 1.684 . S
C78 H103 0.979 . S
C78 H104 0.980 . S
C78 H105 0.983 . S
C79 C80 1.391 . S
C79 C84 1.391 . S
C79 H109 0.948 . S
C80 C79 1.391 . S
C80 C81 1.391 . S
C81 C80 1.391 . S
C81 C82 1.392 . S
C81 H110 0.947 . S
C82 C81 1.392 . S
C82 C83 1.419 . S
C82 H111 0.948 . S
C83 C82 1.419 . S
C83 C84 1.391 . S
C83 C87 1.392 . S
C84 C79 1.391 . S
C84 C83 1.391 . S
C84 C85 1.399 . S
C85 C84 1.399 . S
C85 C86 1.396 1_655 S
C85 C88 1.453 1_655 S
C85 C89 1.684 . S
C86 C67 1.714 1_455 S
C86 C85 1.396 1_455 S
C86 C87 1.392 1_455 S
C87 C83 1.392 . S
C87 C86 1.392 1_655 S
C87 C97 1.730 1_655 S
C88 C85 1.453 1_455 S
C88 H112 0.982 . S
C88 H113 0.979 . S
C88 H114 0.977 . S
C89 C85 1.684 . S
C89 H115 0.979 . S
C89 H116 0.980 . S
C89 H117 0.983 . S
C90 H66 0.948 . S
C90 C91 1.391 . S
C90 C95 1.391 . S
C91 C90 1.391 . S
C91 C92 1.391 . S
C92 H69 0.947 . S
C92 C91 1.391 . S
C92 C93 1.392 . S
C93 H70 0.948 . S
C93 C92 1.392 . S
C93 C94 1.419 . S
C94 C93 1.419 . S
C94 C95 1.391 . S
C94 C98 1.408 . S
C95 C90 1.391 . S
C95 C94 1.391 . S
C95 C96 1.399 . S
C96 C95 1.399 . S
C96 C97 1.397 1_655 S
C96 C99 1.453 1_655 S
C96 C100 1.684 . S
C97 C87 1.730 1_455 S
C97 C96 1.397 1_455 S
C97 C98 1.386 1_455 S
C98 C68 1.722 1_655 S
C98 C94 1.408 . S
C98 C97 1.386 1_655 S
C99 H71 0.982 . S
C99 H75 0.979 . S
C99 H76 0.977 . S
C99 C96 1.453 1_455 S
C100 H72 0.979 . S
C100 H73 0.980 . S
C100 H74 0.983 . S
C100 C96 1.684 . S
H101 C119 0.948 . S
H102 C60 0.948 . S
H103 C78 0.979 . S
H104 C78 0.980 . S
H105 C78 0.983 . S
H106 C77 0.982 . S
H107 C77 0.979 . S
H108 C77 0.977 . S
H109 C79 0.948 . S
H110 C81 0.947 . S
H111 C82 0.948 . S
H112 C88 0.982 . S
H113 C88 0.979 . S
H114 C88 0.977 . S
H115 C89 0.979 . S
H116 C89 0.980 . S
H117 C89 0.983 . S
H118 C62 0.947 . S
C119 C62 1.392 . S
C119 C63 1.419 . S
C119 H101 0.948 . S
C120 C121 1.391 . S
C120 C124 1.391 . S
C120 H162 0.948 . S
C121 C120 1.391 . S
C121 C122 1.391 . S
C122 C121 1.391 . S
C122 H178 0.947 . S
C122 C179 1.392 . S
C123 C124 1.391 . S
C123 C127 1.397 1_565 S
C123 C179 1.419 . S
C124 C120 1.391 . S
C124 C123 1.391 . S
C124 C125 1.399 . S
C125 C124 1.399 . S
C125 C128 1.396 1_565 S
C125 C137 1.453 1_565 S
C125 C138 1.684 . S
H126 C150 0.948 . S
C127 C123 1.397 1_545 S
C127 C128 1.394 . S
C127 C146 1.723 . S
C128 C125 1.396 1_545 S
C128 C127 1.394 . S
C128 C158 1.723 . S
H129 C152 0.947 . S
H130 C153 0.948 . S
H131 C159 0.982 . S
H132 C160 0.979 . S
H133 C160 0.980 . S
H134 C160 0.983 . S
H135 C159 0.979 . S
H136 C159 0.977 . S
C137 C125 1.453 1_545 S
C137 H166 0.982 . S
C137 H167 0.979 . S
C137 H168 0.977 . S
C138 C125 1.684 . S
C138 H163 0.979 . S
C138 H164 0.980 . S
C138 H165 0.983 . S
C139 C140 1.391 . S
C139 C144 1.391 . S
C139 H169 0.948 . S
C140 C139 1.391 . S
C140 C141 1.391 . S
C141 C140 1.391 . S
C141 C142 1.392 . S
C141 H170 0.947 . S
C142 C141 1.392 . S
C142 C143 1.419 . S
C142 H171 0.948 . S
C143 C142 1.419 . S
C143 C144 1.391 . S
C143 C147 1.397 1_565 S
C144 C139 1.391 . S
C144 C143 1.391 . S
C144 C145 1.399 . S
C145 C144 1.399 . S
C145 C146 1.396 1_565 S
C145 C148 1.453 1_565 S
C145 C149 1.684 . S
C146 C127 1.723 . S
C146 C145 1.396 1_545 S
C146 C147 1.394 . S
C147 C143 1.397 1_545 S
C147 C146 1.394 . S
C147 C157 1.723 . S
C148 C145 1.453 1_545 S
C148 H172 0.982 . S
C148 H173 0.979 . S
C148 H174 0.977 . S
C149 C145 1.684 . S
C149 H175 0.979 . S
C149 H176 0.980 . S
C149 H177 0.983 . S
C150 H126 0.948 . S
C150 C151 1.391 . S
C150 C155 1.391 . S
C151 C150 1.391 . S
C151 C152 1.391 . S
C152 H129 0.947 . S
C152 C151 1.391 . S
C152 C153 1.392 . S
C153 H130 0.948 . S
C153 C152 1.392 . S
C153 C154 1.419 . S
C154 C153 1.419 . S
C154 C155 1.391 . S
C154 C158 1.397 1_565 S
C155 C150 1.391 . S
C155 C154 1.391 . S
C155 C156 1.399 . S
C156 C155 1.399 . S
C156 C157 1.396 1_565 S
C156 C159 1.453 1_565 S
C156 C160 1.684 . S
C157 C147 1.723 . S
C157 C156 1.396 1_545 S
C157 C158 1.394 . S
C158 C128 1.723 . S
C158 C154 1.397 1_545 S
C158 C157 1.394 . S
C159 H131 0.982 . S
C159 H135 0.979 . S
C159 H136 0.977 . S
C159 C156 1.453 1_545 S
C160 H132 0.979 . S
C160 H133 0.980 . S
C160 H134 0.983 . S
C160 C156 1.684 . S
H161 C179 0.948 . S
H162 C120 0.948 . S
H163 C138 0.979 . S
H164 C138 0.980 . S
H165 C138 0.983 . S
H166 C137 0.982 . S
H167 C137 0.979 . S
H168 C137 0.977 . S
H169 C139 0.948 . S
H170 C141 0.947 . S
H171 C142 0.948 . S
H172 C148 0.982 . S
H173 C148 0.979 . S
H174 C148 0.977 . S
H175 C149 0.979 . S
H176 C149 0.980 . S
H177 C149 0.983 . S
H178 C122 0.947 . S
C179 C122 1.392 . S
C179 C123 1.419 . S
C179 H161 0.948 . S
C180 C181 1.391 . S
C180 C184 1.391 . S
C180 H222 0.948 . S
C181 C180 1.391 . S
C181 C182 1.391 . S
C182 C181 1.391 . S
C182 H238 0.947 . S
C182 C239 1.392 . S
C183 C184 1.391 . S
C183 C187 1.397 . S
C183 C239 1.419 . S
C184 C180 1.391 . S
C184 C183 1.391 . S
C184 C185 1.399 . S
C185 C184 1.399 . S
C185 C188 1.396 . S
C185 C197 1.453 . S
C185 C198 1.684 . S
H186 C210 0.948 1_556 S
C187 C183 1.397 . S
C187 C188 1.394 . S
C187 C206 1.723 . S
C188 C185 1.396 . S
C188 C187 1.394 . S
C188 C218 1.723 . S
H189 C212 0.947 . S
H190 C213 0.948 . S
H191 C219 0.982 . S
H192 C220 0.979 . S
H193 C220 0.980 . S
H194 C220 0.983 . S
H195 C219 0.979 . S
H196 C219 0.977 . S
C197 C185 1.453 . S
C197 H226 0.982 . S
C197 H227 0.979 . S
C197 H228 0.977 . S
C198 C185 1.684 . S
C198 H223 0.979 . S
C198 H224 0.980 . S
C198 H225 0.983 . S
C199 C200 1.391 . S
C199 C204 1.391 1_556 S
C199 H229 0.948 1_556 S
C200 C199 1.391 . S
C200 C201 1.391 . S
C201 C200 1.391 . S
C201 C202 1.392 . S
C201 H230 0.947 . S
C202 C201 1.392 . S
C202 C203 1.419 1_556 S
C202 H231 0.948 . S
C203 C202 1.419 1_554 S
C203 C204 1.391 . S
C203 C207 1.397 . S
C204 C199 1.391 1_554 S
C204 C203 1.391 . S
C204 C205 1.399 . S
C205 C204 1.399 . S
C205 C206 1.396 . S
C205 C208 1.453 . S
C205 C209 1.684 . S
C206 C187 1.723 . S
C206 C205 1.396 . S
C206 C207 1.394 . S
C207 C203 1.397 . S
C207 C206 1.394 . S
C207 C217 1.723 . S
C208 C205 1.453 . S
C208 H232 0.982 . S
C208 H233 0.979 . S
C208 H234 0.977 . S
C209 C205 1.684 . S
C209 H235 0.979 . S
C209 H236 0.980 . S
C209 H237 0.983 . S
C210 H186 0.948 1_554 S
C210 C211 1.391 . S
C210 C215 1.391 . S
C211 C210 1.391 . S
C211 C212 1.391 . S
C212 H189 0.947 . S
C212 C211 1.391 . S
C212 C213 1.392 . S
C213 H190 0.948 . S
C213 C212 1.392 . S
C213 C214 1.419 . S
C214 C213 1.419 . S
C214 C215 1.391 . S
C214 C218 1.397 . S
C215 C210 1.391 . S
C215 C214 1.391 . S
C215 C216 1.399 . S
C216 C215 1.399 . S
C216 C217 1.396 . S
C216 C219 1.453 1_554 S
C216 C220 1.684 1_554 S
C217 C207 1.723 . S
C217 C216 1.396 . S
C217 C218 1.394 . S
C218 C188 1.723 . S
C218 C214 1.397 . S
C218 C217 1.394 . S
C219 H191 0.982 . S
C219 H195 0.979 . S
C219 H196 0.977 . S
C219 C216 1.453 1_556 S
C220 H192 0.979 . S
C220 H193 0.980 . S
C220 H194 0.983 . S
C220 C216 1.684 1_556 S
H221 C239 0.948 . S
H222 C180 0.948 . S
H223 C198 0.979 . S
H224 C198 0.980 . S
H225 C198 0.983 . S
H226 C197 0.982 . S
H227 C197 0.979 . S
H228 C197 0.977 . S
H229 C199 0.948 1_554 S
H230 C201 0.947 . S
H231 C202 0.948 . S
H232 C208 0.982 . S
H233 C208 0.979 . S
H234 C208 0.977 . S
H235 C209 0.979 . S
H236 C209 0.980 . S
H237 C209 0.983 . S
H238 C182 0.947 . S
C239 C182 1.392 . S
C239 C183 1.419 . S
C239 H221 0.948 . S
C240 C241 1.391 1_556 S
C240 C244 1.391 . S
C240 H282 0.948 . S
C241 C240 1.391 1_554 S
C241 C242 1.391 . S
C242 C241 1.391 . S
C242 H298 0.947 . S
C242 C299 1.392 . S
C243 C244 1.391 1_554 S
C243 C247 1.397 . S
C243 C299 1.419 . S
C244 C240 1.391 . S
C244 C243 1.391 1_556 S
C244 C245 1.399 . S
C245 C244 1.399 . S
C245 C248 1.396 . S
C245 C257 1.453 . S
C245 C258 1.684 . S
H246 C270 0.948 . S
C247 C243 1.397 . S
C247 C248 1.394 1_554 S
C247 C266 1.723 . S
C248 C245 1.396 . S
C248 C247 1.394 1_556 S
C248 C278 1.723 . S
H249 C272 0.947 . S
H250 C273 0.948 . S
H251 C279 0.982 . S
H252 C280 0.979 . S
H253 C280 0.980 . S
H254 C280 0.983 . S
H255 C279 0.979 . S
H256 C279 0.977 . S
C257 C245 1.453 . S
C257 H286 0.982 . S
C257 H287 0.979 . S
C257 H288 0.977 . S
C258 C245 1.684 . S
C258 H283 0.979 . S
C258 H284 0.980 . S
C258 H285 0.983 . S
C259 C260 1.391 . S
C259 C264 1.391 . S
C259 H289 0.948 . S
C260 C259 1.391 . S
C260 C261 1.391 . S
C261 C260 1.391 . S
C261 C262 1.392 . S
C261 H290 0.947 . S
C262 C261 1.392 . S
C262 C263 1.419 . S
C262 H291 0.948 . S
C263 C262 1.419 . S
C263 C264 1.391 . S
C263 C267 1.397 . S
C264 C259 1.391 . S
C264 C263 1.391 . S
C264 C265 1.399 . S
C265 C264 1.399 . S
C265 C266 1.396 . S
C265 C268 1.453 . S
C265 C269 1.684 . S
C266 C247 1.723 . S
C266 C265 1.396 . S
C266 C267 1.394 . S
C267 C263 1.397 . S
C267 C266 1.394 . S
C267 C277 1.723 1_554 S
C268 C265 1.453 . S
C268 H292 0.982 . S
C268 H293 0.979 . S
C268 H294 0.977 . S
C269 C265 1.684 . S
C269 H295 0.979 . S
C269 H296 0.980 . S
C269 H297 0.983 . S
C270 H246 0.948 . S
C270 C271 1.391 . S
C270 C275 1.391 . S
C271 C270 1.391 . S
C271 C272 1.391 . S
C272 H249 0.947 . S
C272 C271 1.391 . S
C272 C273 1.392 . S
C273 H250 0.948 . S
C273 C272 1.392 . S
C273 C274 1.419 . S
C274 C273 1.419 . S
C274 C275 1.391 . S
C274 C278 1.397 . S
C275 C270 1.391 . S
C275 C274 1.391 . S
C275 C276 1.399 . S
C276 C275 1.399 . S
C276 C277 1.396 . S
C276 C279 1.453 . S
C276 C280 1.684 . S
C277 C267 1.723 1_556 S
C277 C276 1.396 . S
C277 C278 1.394 . S
C278 C248 1.723 . S
C278 C274 1.397 . S
C278 C277 1.394 . S
C279 H251 0.982 . S
C279 H255 0.979 . S
C279 H256 0.977 . S
C279 C276 1.453 . S
C280 H252 0.979 . S
C280 H253 0.980 . S
C280 H254 0.983 . S
C280 C276 1.684 . S
H281 C299 0.948 . S
H282 C240 0.948 . S
H283 C258 0.979 . S
H284 C258 0.980 . S
H285 C258 0.983 . S
H286 C257 0.982 . S
H287 C257 0.979 . S
H288 C257 0.977 . S
H289 C259 0.948 . S
H290 C261 0.947 . S
H291 C262 0.948 . S
H292 C268 0.982 . S
H293 C268 0.979 . S
H294 C268 0.977 . S
H295 C269 0.979 . S
H296 C269 0.980 . S
H297 C269 0.983 . S
H298 C242 0.947 . S
C299 C242 1.392 . S
C299 C243 1.419 . S
C299 H281 0.948 . S
C300 C301 1.387 . S
C300 C304 1.389 . S
C300 H342 0.947 . S
C301 C300 1.387 . S
C301 C302 1.391 . S
C302 C301 1.391 . S
C302 H358 0.947 . S
C302 C359 1.394 . S
C303 C304 1.391 . S
C303 C307 1.397 . S
C303 C359 1.425 . S
C304 C300 1.389 . S
C304 C303 1.391 . S
C304 C305 1.395 . S
C305 C304 1.395 . S
C305 C308 1.399 . S
C305 C317 1.489 . S
C305 C318 1.666 1_455 S
H306 C330 0.948 . S
C307 C303 1.397 . S
C307 C308 1.394 . S
C307 C326 1.723 . S
C308 C305 1.399 . S
C308 C307 1.394 . S
C308 C338 1.723 . S
H309 C332 0.947 . S
H310 C333 0.947 1_655 S
H311 C339 0.982 . S
H312 C340 0.979 . S
H313 C340 0.980 1_556 S
H314 C340 0.983 . S
H315 C339 0.979 . S
H316 C339 0.977 1_556 S
C317 C305 1.489 . S
C317 H346 0.982 . S
C317 H347 0.979 . S
C317 H348 0.977 . S
C318 C305 1.666 1_655 S
C318 H343 0.979 . S
C318 H344 0.980 . S
C318 H345 0.983 . S
C319 C320 1.390 . S
C319 C324 1.398 . S
C319 H349 0.949 . S
C320 C319 1.390 . S
C320 C321 1.391 . S
C321 C320 1.391 . S
C321 C322 1.388 . S
C321 H350 0.947 . S
C322 C321 1.388 . S
C322 C323 1.423 . S
C322 H351 0.949 1_455 S
C323 C322 1.423 . S
C323 C324 1.392 . S
C323 C327 1.397 1_556 S
C324 C319 1.398 . S
C324 C323 1.392 . S
C324 C325 1.395 1_556 S
C325 C324 1.395 1_554 S
C325 C326 1.412 . S
C325 C328 1.482 . S
C325 C329 1.657 1_455 S
C326 C307 1.723 . S
C326 C325 1.412 . S
C326 C327 1.394 . S
C327 C323 1.397 1_554 S
C327 C326 1.394 . S
C327 C337 1.723 . S
C328 C325 1.482 . S
C328 H352 0.982 . S
C328 H353 0.979 . S
C328 H354 0.977 . S
C329 C325 1.657 1_655 S
C329 H355 0.979 . S
C329 H356 0.980 . S
C329 H357 0.983 . S
C330 H306 0.948 . S
C330 C331 1.400 . S
C330 C335 1.386 . S
C331 C330 1.400 . S
C331 C332 1.391 . S
C332 H309 0.947 . S
C332 C331 1.391 . S
C332 C333 1.397 . S
C333 H310 0.947 1_455 S
C333 C332 1.397 . S
C333 C334 1.416 . S
C334 C333 1.416 . S
C334 C335 1.392 . S
C334 C338 1.397 . S
C335 C330 1.386 . S
C335 C334 1.392 . S
C335 C336 1.406 . S
C336 C335 1.406 . S
C336 C337 1.402 . S
C336 C339 1.481 . S
C336 C340 1.656 1_455 S
C337 C327 1.723 . S
C337 C336 1.402 . S
C337 C338 1.394 . S
C338 C308 1.723 . S
C338 C334 1.397 . S
C338 C337 1.394 . S
C339 H311 0.982 . S
C339 H315 0.979 . S
C339 H316 0.977 1_554 S
C339 C336 1.481 . S
C340 H312 0.979 . S
C340 H313 0.980 1_554 S
C340 H314 0.983 . S
C340 C336 1.656 1_655 S
H341 C359 0.940 1_655 S
H342 C300 0.947 . S
H343 C318 0.979 . S
H344 C318 0.980 . S
H345 C318 0.983 . S
H346 C317 0.982 . S
H347 C317 0.979 . S
H348 C317 0.977 . S
H349 C319 0.949 . S
H350 C321 0.947 . S
H351 C322 0.949 1_655 S
H352 C328 0.982 . S
H353 C328 0.979 . S
H354 C328 0.977 . S
H355 C329 0.979 . S
H356 C329 0.980 . S
H357 C329 0.983 . S
H358 C302 0.947 . S
C359 C302 1.394 . S
C359 C303 1.425 . S
C359 H341 0.940 1_455 S
C360 C361 1.391 . S
C360 C364 1.391 1_556 S
C360 H402 0.948 . S
C361 C360 1.391 . S
C361 C362 1.391 . S
C362 C361 1.391 . S
C362 H418 0.947 . S
C362 C419 1.392 1_556 S
C363 C364 1.391 . S
C363 C367 1.397 1_545 S
C363 C419 1.419 . S
C364 C360 1.391 1_554 S
C364 C363 1.391 . S
C364 C365 1.399 . S
C365 C364 1.399 . S
C365 C368 1.396 1_545 S
C365 C377 1.453 1_545 S
C365 C378 1.684 . S
H366 C390 0.948 . S
C367 C363 1.397 1_565 S
C367 C368 1.394 . S
C367 C386 1.723 . S
C368 C365 1.396 1_565 S
C368 C367 1.394 . S
C368 C398 1.723 . S
H369 C392 0.947 . S
H370 C393 0.948 . S
H371 C399 0.982 . S
H372 C400 0.979 . S
H373 C400 0.980 . S
H374 C400 0.983 . S
H375 C399 0.979 . S
H376 C399 0.977 . S
C377 C365 1.453 1_565 S
C377 H406 0.982 . S
C377 H407 0.979 1_554 S
C377 H408 0.977 . S
C378 C365 1.684 . S
C378 H403 0.979 . S
C378 H404 0.980 . S
C378 H405 0.983 1_554 S
C379 C380 1.391 . S
C379 C384 1.391 . S
C379 H409 0.948 . S
C380 C379 1.391 . S
C380 C381 1.391 . S
C381 C380 1.391 . S
C381 C382 1.392 . S
C381 H410 0.947 . S
C382 C381 1.392 . S
C382 C383 1.419 . S
C382 H411 0.948 . S
C383 C382 1.419 . S
C383 C384 1.391 . S
C383 C387 1.397 1_545 S
C384 C379 1.391 . S
C384 C383 1.391 . S
C384 C385 1.399 . S
C385 C384 1.399 . S
C385 C386 1.396 1_545 S
C385 C388 1.453 1_545 S
C385 C389 1.684 . S
C386 C367 1.723 . S
C386 C385 1.396 1_565 S
C386 C387 1.394 . S
C387 C383 1.397 1_565 S
C387 C386 1.394 . S
C387 C397 1.723 . S
C388 C385 1.453 1_565 S
C388 H412 0.982 . S
C388 H413 0.979 . S
C388 H414 0.977 . S
C389 C385 1.684 . S
C389 H415 0.979 . S
C389 H416 0.980 . S
C389 H417 0.983 . S
C390 H366 0.948 . S
C390 C391 1.391 . S
C390 C395 1.391 . S
C391 C390 1.391 . S
C391 C392 1.391 . S
C392 H369 0.947 . S
C392 C391 1.391 . S
C392 C393 1.392 . S
C393 H370 0.948 . S
C393 C392 1.392 . S
C393 C394 1.419 . S
C394 C393 1.419 . S
C394 C395 1.391 . S
C394 C398 1.397 1_545 S
C395 C390 1.391 . S
C395 C394 1.391 . S
C395 C396 1.399 . S
C396 C395 1.399 . S
C396 C397 1.396 1_545 S
C396 C399 1.453 1_545 S
C396 C400 1.684 . S
C397 C387 1.723 . S
C397 C396 1.396 1_565 S
C397 C398 1.394 . S
C398 C368 1.723 . S
C398 C394 1.397 1_565 S
C398 C397 1.394 . S
C399 H371 0.982 . S
C399 H375 0.979 . S
C399 H376 0.977 . S
C399 C396 1.453 1_565 S
C400 H372 0.979 . S
C400 H373 0.980 . S
C400 H374 0.983 . S
C400 C396 1.684 . S
H401 C419 0.948 . S
H402 C360 0.948 . S
H403 C378 0.979 . S
H404 C378 0.980 . S
H405 C378 0.983 1_556 S
H406 C377 0.982 . S
H407 C377 0.979 1_556 S
H408 C377 0.977 . S
H409 C379 0.948 . S
H410 C381 0.947 . S
H411 C382 0.948 . S
H412 C388 0.982 . S
H413 C388 0.979 . S
H414 C388 0.977 . S
H415 C389 0.979 . S
H416 C389 0.980 . S
H417 C389 0.983 . S
H418 C362 0.947 . S
C419 C362 1.392 1_554 S
C419 C363 1.419 . S
C419 H401 0.948 . S
C420 C421 1.391 . S
C420 C424 1.391 . S
C420 H462 0.948 . S
C421 C420 1.391 . S
C421 C422 1.391 . S
C422 C421 1.391 . S
C422 H478 0.947 . S
C422 C479 1.392 . S
C423 C424 1.391 . S
C423 C427 1.397 . S
C423 C479 1.419 . S
C424 C420 1.391 . S
C424 C423 1.391 . S
C424 C425 1.399 . S
C425 C424 1.399 . S
C425 C428 1.396 . S
C425 C437 1.453 . S
C425 C438 1.684 . S
H426 C450 0.948 . S
C427 C423 1.397 . S
C427 C428 1.394 . S
C427 C446 1.723 . S
C428 C425 1.396 . S
C428 C427 1.394 . S
C428 C458 1.723 . S
H429 C452 0.947 . S
H430 C453 0.948 . S
H431 C459 0.982 . S
H432 C460 0.979 . S
H433 C460 0.980 . S
H434 C460 0.983 . S
H435 C459 0.979 . S
H436 C459 0.977 . S
C437 C425 1.453 . S
C437 H466 0.982 . S
C437 H467 0.979 . S
C437 H468 0.977 . S
C438 C425 1.684 . S
C438 H463 0.979 . S
C438 H464 0.980 . S
C438 H465 0.983 . S
C439 C440 1.391 . S
C439 C444 1.391 . S
C439 H469 0.948 . S
C440 C439 1.391 . S
C440 C441 1.391 . S
C441 C440 1.391 . S
C441 C442 1.392 . S
C441 H470 0.947 . S
C442 C441 1.392 . S
C442 C443 1.419 . S
C442 H471 0.948 . S
C443 C442 1.419 . S
C443 C444 1.391 . S
C443 C447 1.397 . S
C444 C439 1.391 . S
C444 C443 1.391 . S
C444 C445 1.399 . S
C445 C444 1.399 . S
C445 C446 1.396 . S
C445 C448 1.453 . S
C445 C449 1.684 . S
C446 C427 1.723 . S
C446 C445 1.396 . S
C446 C447 1.394 . S
C447 C443 1.397 . S
C447 C446 1.394 . S
C447 C457 1.723 . S
C448 C445 1.453 . S
C448 H472 0.982 . S
C448 H473 0.979 . S
C448 H474 0.977 . S
C449 C445 1.684 . S
C449 H475 0.979 . S
C449 H476 0.980 . S
C449 H477 0.983 . S
C450 H426 0.948 . S
C450 C451 1.391 . S
C450 C455 1.391 . S
C451 C450 1.391 . S
C451 C452 1.391 . S
C452 H429 0.947 . S
C452 C451 1.391 . S
C452 C453 1.392 . S
C453 H430 0.948 . S
C453 C452 1.392 . S
C453 C454 1.419 . S
C454 C453 1.419 . S
C454 C455 1.391 . S
C454 C458 1.397 . S
C455 C450 1.391 . S
C455 C454 1.391 . S
C455 C456 1.399 . S
C456 C455 1.399 . S
C456 C457 1.396 . S
C456 C459 1.453 . S
C456 C460 1.684 . S
C457 C447 1.723 . S
C457 C456 1.396 . S
C457 C458 1.394 . S
C458 C428 1.723 . S
C458 C454 1.397 . S
C458 C457 1.394 . S
C459 H431 0.982 . S
C459 H435 0.979 . S
C459 H436 0.977 . S
C459 C456 1.453 . S
C460 H432 0.979 . S
C460 H433 0.980 . S
C460 H434 0.983 . S
C460 C456 1.684 . S
H461 C479 0.948 . S
H462 C420 0.948 . S
H463 C438 0.979 . S
H464 C438 0.980 . S
H465 C438 0.983 . S
H466 C437 0.982 . S
H467 C437 0.979 . S
H468 C437 0.977 . S
H469 C439 0.948 . S
H470 C441 0.947 . S
H471 C442 0.948 . S
H472 C448 0.982 . S
H473 C448 0.979 . S
H474 C448 0.977 . S
H475 C449 0.979 . S
H476 C449 0.980 . S
H477 C449 0.983 . S
H478 C422 0.947 . S
C479 C422 1.392 . S
C479 C423 1.419 . S
C479 H461 0.948 . S
Dy480 O483 2.307 1_545 S
Dy480 O485 2.395 1_655 S
Dy480 O486 2.379 . S
Dy480 O488 2.339 . S
Dy480 O490 2.298 . S
Dy480 O494 2.275 1_655 S
Dy480 C502 2.738 . S
Dy481 O484 2.298 . S
Dy481 O487 2.275 1_455 S
Dy481 O489 2.307 1_565 S
Dy481 O491 2.394 . S
Dy481 O492 2.379 . S
Dy481 O495 2.339 . S
Dy481 C511 2.738 . S
C482 O494 1.254 1_565 S
C482 O495 1.257 . S
O483 Dy480 2.307 1_565 S
O483 C493 1.266 . S
O484 Dy481 2.298 . S
O484 C493 1.236 1_455 S
O485 Dy480 2.395 1_455 S
O485 C502 1.255 1_455 S
O486 Dy480 2.379 . S
O486 C502 1.249 . S
O487 Dy481 2.275 1_655 S
O487 C503 1.254 1_565 S
O488 Dy480 2.339 . S
O488 C503 1.257 . S
O489 Dy481 2.307 1_545 S
O489 C504 1.266 . S
O490 Dy480 2.298 . S
O490 C504 1.236 1_655 S
O491 Dy481 2.394 . S
O491 C511 1.253 . S
O492 Dy481 2.379 . S
O492 C511 1.249 . S
C493 O483 1.266 . S
C493 O484 1.236 1_655 S
O494 Dy480 2.275 1_455 S
O494 C482 1.254 1_545 S
O495 Dy481 2.339 . S
O495 C482 1.257 . S
C496 C499 1.341 1_655 S
C496 C500 1.328 . S
C496 C502 1.516 . S
C497 C498 1.304 . S
C497 C501 1.323 . S
C498 C497 1.304 . S
C498 C499 1.371 1_655 S
C498 H512 0.930 1_655 S
C499 C496 1.341 1_455 S
C499 C498 1.371 1_455 S
C499 H513 0.934 . S
C500 C496 1.328 . S
C500 C501 1.433 . S
C500 H514 0.931 . S
C501 C497 1.323 . S
C501 C500 1.433 . S
C501 H515 0.933 . S
C502 Dy480 2.738 . S
C502 O485 1.255 1_655 S
C502 O486 1.249 . S
C502 C496 1.516 . S
C503 O487 1.254 1_545 S
C503 O488 1.257 . S
C504 O489 1.266 . S
C504 O490 1.236 1_455 S
C505 C508 1.344 . S
C505 C509 1.328 . S
C505 C511 1.516 . S
C506 C507 1.304 1_554 S
C506 C510 1.323 1_554 S
C507 C506 1.304 1_556 S
C507 C508 1.371 . S
C507 H516 0.930 1_456 S
C508 C505 1.344 . S
C508 C507 1.371 . S
C508 H517 0.931 1_455 S
C509 C505 1.328 . S
C509 C510 1.433 . S
C509 H518 0.931 . S
C510 C506 1.323 1_556 S
C510 C509 1.433 . S
C510 H519 0.933 . S
C511 Dy481 2.738 . S
C511 O491 1.253 . S
C511 O492 1.249 . S
C511 C505 1.516 . S
H512 C498 0.930 1_455 S
H513 C499 0.934 . S
H514 C500 0.931 . S
H515 C501 0.933 . S
H516 C507 0.930 1_654 S
H517 C508 0.931 1_655 S
H518 C509 0.931 . S
H519 C510 0.933 . S
Dy520 O523 2.307 . S
Dy520 O525 2.395 1_565 S
Dy520 O526 2.379 . S
Dy520 O528 2.339 . S
Dy520 O530 2.298 . S
Dy520 O534 2.275 1_565 S
Dy520 C542 2.738 . S
Dy521 O524 2.298 . S
Dy521 O527 2.275 1_545 S
Dy521 O529 2.307 . S
Dy521 O531 2.395 1_545 S
Dy521 O532 2.379 . S
Dy521 O535 2.339 . S
Dy521 C551 2.738 . S
C522 O534 1.254 . S
C522 O535 1.257 . S
O523 Dy520 2.307 . S
O523 C533 1.266 . S
O524 Dy521 2.298 . S
O524 C533 1.236 1_545 S
O525 Dy520 2.395 1_545 S
O525 C542 1.255 1_545 S
O526 Dy520 2.379 . S
O526 C542 1.249 . S
O527 Dy521 2.275 1_565 S
O527 C543 1.254 . S
O528 Dy520 2.339 . S
O528 C543 1.257 . S
O529 Dy521 2.307 . S
O529 C544 1.266 . S
O530 Dy520 2.298 . S
O530 C544 1.236 1_565 S
O531 Dy521 2.395 1_565 S
O531 C551 1.255 1_565 S
O532 Dy521 2.379 . S
O532 C551 1.249 . S
C533 O523 1.266 . S
C533 O524 1.236 1_565 S
O534 Dy520 2.275 1_545 S
O534 C522 1.254 . S
O535 Dy521 2.339 . S
O535 C522 1.257 . S
C536 C539 1.357 . S
C536 C540 1.328 . S
C536 C542 1.516 . S
C537 C538 1.304 . S
C537 C541 1.323 . S
C538 C537 1.304 . S
C538 C539 1.373 . S
C538 H552 0.930 1_565 S
C539 C536 1.357 . S
C539 C538 1.373 . S
C539 H553 0.916 1_565 S
C540 C536 1.328 . S
C540 C541 1.433 . S
C540 H554 0.931 . S
C541 C537 1.323 . S
C541 C540 1.433 . S
C541 H555 0.933 . S
C542 Dy520 2.738 . S
C542 O525 1.255 1_565 S
C542 O526 1.249 . S
C542 C536 1.516 . S
C543 O527 1.254 . S
C543 O528 1.257 . S
C544 O529 1.266 . S
C544 O530 1.236 1_545 S
C545 C548 1.365 . S
C545 C549 1.328 . S
C545 C551 1.516 . S
C546 C547 1.304 . S
C546 C550 1.323 . S
C547 C546 1.304 . S
C547 C548 1.375 . S
C547 H556 0.930 1_545 S
C548 C545 1.365 . S
C548 C547 1.375 . S
C548 H557 0.907 1_545 S
C549 C545 1.328 . S
C549 C550 1.433 . S
C549 H558 0.931 . S
C550 C546 1.323 . S
C550 C549 1.433 . S
C550 H559 0.933 1_556 S
C551 Dy521 2.738 . S
C551 O531 1.255 1_545 S
C551 O532 1.249 . S
C551 C545 1.516 . S
H552 C538 0.930 1_545 S
H553 C539 0.916 1_545 S
H554 C540 0.931 . S
H555 C541 0.933 . S
H556 C547 0.930 1_565 S
H557 C548 0.907 1_565 S
H558 C549 0.931 . S
H559 C550 0.933 1_554 S
Dy560 O563 2.307 . S
Dy560 O565 2.395 . S
Dy560 O566 2.379 . S
Dy560 O568 2.339 . S
Dy560 O570 2.298 . S
Dy560 O574 2.275 . S
Dy560 C582 2.738 . S
Dy561 O564 2.298 . S
Dy561 O567 2.275 . S
Dy561 O569 2.307 . S
Dy561 O571 2.395 . S
Dy561 O572 2.379 . S
Dy561 O575 2.339 . S
Dy561 C591 2.738 . S
C562 O574 1.254 . S
C562 O575 1.257 . S
O563 Dy560 2.307 . S
O563 C573 1.266 . S
O564 Dy561 2.298 . S
O564 C573 1.236 . S
O565 Dy560 2.395 . S
O565 C582 1.255 . S
O566 Dy560 2.379 . S
O566 C582 1.249 . S
O567 Dy561 2.275 . S
O567 C583 1.254 . S
O568 Dy560 2.339 . S
O568 C583 1.257 . S
O569 Dy561 2.307 . S
O569 C584 1.266 . S
O570 Dy560 2.298 . S
O570 C584 1.236 . S
O571 Dy561 2.395 . S
O571 C591 1.255 . S
O572 Dy561 2.379 . S
O572 C591 1.249 . S
C573 O563 1.266 . S
C573 O564 1.236 . S
O574 Dy560 2.275 . S
O574 C562 1.254 . S
O575 Dy561 2.339 . S
O575 C562 1.257 . S
C576 C579 1.344 . S
C576 C580 1.328 . S
C576 C582 1.516 . S
C577 C578 1.304 1_556 S
C577 C581 1.323 . S
C578 C577 1.304 1_554 S
C578 C579 1.371 1_554 S
C578 H592 0.930 . S
C579 C576 1.344 . S
C579 C578 1.371 1_556 S
C579 H593 0.931 . S
C580 C576 1.328 . S
C580 C581 1.433 . S
C580 H594 0.931 . S
C581 C577 1.323 . S
C581 C580 1.433 . S
C581 H595 0.933 . S
C582 Dy560 2.738 . S
C582 O565 1.255 . S
C582 O566 1.249 . S
C582 C576 1.516 . S
C583 O567 1.254 . S
C583 O568 1.257 . S
C584 O569 1.266 . S
C584 O570 1.236 . S
C585 C588 1.344 . S
C585 C589 1.328 . S
C585 C591 1.516 . S
C586 C587 1.304 . S
C586 C590 1.323 . S
C587 C586 1.304 . S
C587 C588 1.371 . S
C587 H596 0.930 . S
C588 C585 1.344 . S
C588 C587 1.371 . S
C588 H597 0.931 . S
C589 C585 1.328 . S
C589 C590 1.433 . S
C589 H598 0.931 . S
C590 C586 1.323 . S
C590 C589 1.433 . S
C590 H599 0.933 . S
C591 Dy561 2.738 . S
C591 O571 1.255 . S
C591 O572 1.249 . S
C591 C585 1.516 . S
H592 C578 0.930 . S
H593 C579 0.931 . S
H594 C580 0.931 . S
H595 C581 0.933 . S
H596 C587 0.930 . S
H597 C588 0.931 . S
H598 C589 0.931 . S
H599 C590 0.933 . S
Dy600 O603 2.307 1_455 S
Dy600 O605 2.395 . S
Dy600 O606 2.379 . S
Dy600 O608 2.339 . S
Dy600 O610 2.298 . S
Dy600 O614 2.275 . S
Dy600 C622 2.738 . S
Dy601 O604 2.298 . S
Dy601 O607 2.275 . S
Dy601 O609 2.307 1_655 S
Dy601 O611 2.395 . S
Dy601 O612 2.379 . S
Dy601 O615 2.339 . S
Dy601 C631 2.738 . S
C602 O614 1.245 1_655 S
C602 O615 1.268 . S
O603 Dy600 2.307 1_655 S
O603 C613 1.266 . S
O604 Dy601 2.298 . S
O604 C613 1.236 . S
O605 Dy600 2.395 . S
O605 C622 1.255 . S
O606 Dy600 2.379 . S
O606 C622 1.249 . S
O607 Dy601 2.275 . S
O607 C623 1.254 1_655 S
O608 Dy600 2.339 . S
O608 C623 1.257 . S
O609 Dy601 2.307 1_455 S
O609 C624 1.266 . S
O610 Dy600 2.298 . S
O610 C624 1.236 . S
O611 Dy601 2.395 . S
O611 C631 1.255 . S
O612 Dy601 2.379 . S
O612 C631 1.249 . S
C613 O603 1.266 . S
C613 O604 1.236 . S
O614 Dy600 2.275 . S
O614 C602 1.245 1_455 S
O615 Dy601 2.339 . S
O615 C602 1.268 . S
C616 C619 1.344 . S
C616 C620 1.328 . S
C616 C622 1.516 . S
C617 C618 1.304 . S
C617 C621 1.323 . S
C618 C617 1.304 . S
C618 C619 1.371 . S
C618 H632 0.930 . S
C619 C616 1.344 . S
C619 C618 1.371 . S
C619 H633 0.931 . S
C620 C616 1.328 . S
C620 C621 1.433 . S
C620 H634 0.931 . S
C621 C617 1.323 . S
C621 C620 1.433 . S
C621 H635 0.933 . S
C622 Dy600 2.738 . S
C622 O605 1.255 . S
C622 O606 1.249 . S
C622 C616 1.516 . S
C623 O607 1.254 1_455 S
C623 O608 1.257 . S
C624 O609 1.266 . S
C624 O610 1.236 . S
C625 C628 1.344 1_556 S
C625 C629 1.328 . S
C625 C631 1.516 . S
C626 C627 1.304 . S
C626 C630 1.323 . S
C627 C626 1.304 . S
C627 C628 1.371 . S
C627 H636 0.930 . S
C628 C625 1.344 1_554 S
C628 C627 1.371 . S
C628 H637 0.931 1_554 S
C629 C625 1.328 . S
C629 C630 1.433 1_556 S
C629 H638 0.931 . S
C630 C626 1.323 . S
C630 C629 1.433 1_554 S
C630 H639 0.933 . S
C631 Dy601 2.738 . S
C631 O611 1.255 . S
C631 O612 1.249 . S
C631 C625 1.516 . S
H632 C618 0.930 . S
H633 C619 0.931 . S
H634 C620 0.931 . S
H635 C621 0.933 . S
H636 C627 0.930 . S
H637 C628 0.931 1_556 S
H638 C629 0.931 . S
H639 C630 0.933 . S
H640 C646 0.930 . S
H641 C649 0.930 . S
H642 C650 0.930 . S
H643 C651 0.930 . S
H644 C654 0.930 . S
H645 C655 0.930 . S
C646 H640 0.930 . S
C646 C647 1.336 1_565 S
C646 C648 1.415 . S
C647 C646 1.336 1_545 S
C647 C649 1.439 . S
C648 C646 1.415 . S
C648 C653 1.425 1_565 S
C648 C655 1.409 . S
C649 H641 0.930 . S
C649 C647 1.439 . S
C649 C650 1.362 . S
C650 H642 0.930 . S
C650 C649 1.362 . S
C650 C653 1.409 . S
C651 H643 0.930 . S
C651 C652 1.356 . S
C651 C653 1.415 . S
C652 C651 1.356 . S
C652 C654 1.417 1_545 S
C653 C648 1.425 1_545 S
C653 C650 1.409 . S
C653 C651 1.415 . S
C654 H644 0.930 . S
C654 C652 1.417 1_565 S
C654 C655 1.362 . S
C655 H645 0.930 . S
C655 C648 1.409 . S
C655 C654 1.362 . S
H656 C662 0.930 . S
H657 C665 0.930 . S
H658 C666 0.930 . S
H659 C667 0.930 . S
H660 C670 0.930 . S
H661 C671 0.930 . S
C662 H656 0.930 . S
C662 C663 1.355 . S
C662 C664 1.415 . S
C663 C662 1.355 . S
C663 C665 1.419 . S
C664 C662 1.415 . S
C664 C669 1.425 . S
C664 C671 1.409 . S
C665 H657 0.930 . S
C665 C663 1.419 . S
C665 C666 1.362 . S
C666 H658 0.930 . S
C666 C665 1.362 . S
C666 C669 1.409 . S
C667 H659 0.930 . S
C667 C668 1.355 . S
C667 C669 1.415 . S
C668 C667 1.355 . S
C668 C670 1.419 . S
C669 C664 1.425 . S
C669 C666 1.409 . S
C669 C667 1.415 . S
C670 H660 0.930 . S
C670 C668 1.419 . S
C670 C671 1.362 . S
C671 H661 0.930 . S
C671 C664 1.409 . S
C671 C670 1.362 . S
H672 C678 0.930 . S
H673 C681 0.930 . S
H674 C682 0.930 . S
H675 C683 0.930 . S
H676 C686 0.930 . S
H677 C687 0.930 . S
C678 H672 0.930 . S
C678 C679 1.355 . S
C678 C680 1.415 . S
C679 C678 1.355 . S
C679 C681 1.419 . S
C680 C678 1.415 . S
C680 C685 1.425 . S
C680 C687 1.409 . S
C681 H673 0.930 . S
C681 C679 1.419 . S
C681 C682 1.362 . S
C682 H674 0.930 . S
C682 C681 1.362 . S
C682 C685 1.409 . S
C683 H675 0.930 . S
C683 C684 1.355 . S
C683 C685 1.415 . S
C684 C683 1.355 . S
C684 C686 1.419 . S
C685 C680 1.425 . S
C685 C682 1.409 . S
C685 C683 1.415 . S
C686 H676 0.930 . S
C686 C684 1.419 . S
C686 C687 1.362 . S
C687 H677 0.930 . S
C687 C680 1.409 . S
C687 C686 1.362 . S
H688 C694 0.930 . S
H689 C697 0.930 . S
H690 C698 0.930 . S
H691 C699 0.930 . S
H692 C702 0.930 . S
H693 C703 0.930 . S
C694 H688 0.930 . S
C694 C695 1.355 . S
C694 C696 1.415 . S
C695 C694 1.355 . S
C695 C697 1.419 1_455 S
C696 C694 1.415 . S
C696 C701 1.425 1_455 S
C696 C703 1.409 . S
C697 H689 0.930 . S
C697 C695 1.419 1_655 S
C697 C698 1.362 . S
C698 H690 0.930 . S
C698 C697 1.362 . S
C698 C701 1.409 . S
C699 H691 0.930 . S
C699 C700 1.355 1_655 S
C699 C701 1.415 . S
C700 C699 1.355 1_455 S
C700 C702 1.419 . S
C701 C696 1.425 1_655 S
C701 C698 1.409 . S
C701 C699 1.415 . S
C702 H692 0.930 . S
C702 C700 1.419 . S
C702 C703 1.362 . S
C703 H693 0.930 . S
C703 C696 1.409 . S
C703 C702 1.362 . S
H704 C710 0.930 . S
H705 C713 0.930 . S
H706 C714 0.930 . S
H707 C715 0.930 . S
H708 C718 0.930 . S
H709 C719 0.930 . S
C710 H704 0.930 . S
C710 C711 1.354 . S
C710 C712 1.415 . S
C711 C710 1.354 . S
C711 C713 1.419 1_565 S
C712 C710 1.415 . S
C712 C717 1.425 1_565 S
C712 C719 1.409 1_554 S
C713 H705 0.930 . S
C713 C711 1.419 1_545 S
C713 C714 1.362 . S
C714 H706 0.930 . S
C714 C713 1.362 . S
C714 C717 1.409 . S
C715 H707 0.930 . S
C715 C716 1.348 1_545 S
C715 C717 1.415 1_556 S
C716 C715 1.348 1_565 S
C716 C718 1.431 . S
C717 C712 1.425 1_545 S
C717 C714 1.409 . S
C717 C715 1.415 1_554 S
C718 H708 0.930 . S
C718 C716 1.431 . S
C718 C719 1.362 . S
C719 H709 0.930 . S
C719 C712 1.409 1_556 S
C719 C718 1.362 . S
H720 C726 0.930 . S
H721 C729 0.930 . S
H722 C730 0.930 . S
H723 C731 0.930 . S
H724 C734 0.930 . S
H725 C735 0.930 . S
C726 H720 0.930 . S
C726 C727 1.355 1_556 S
C726 C728 1.415 . S
C727 C726 1.355 1_554 S
C727 C729 1.419 . S
C728 C726 1.415 . S
C728 C733 1.425 . S
C728 C735 1.409 . S
C729 H721 0.930 . S
C729 C727 1.419 . S
C729 C730 1.362 . S
C730 H722 0.930 . S
C730 C729 1.362 . S
C730 C733 1.409 1_554 S
C731 H723 0.930 . S
C731 C732 1.355 . S
C731 C733 1.415 . S
C732 C731 1.355 . S
C732 C734 1.419 . S
C733 C728 1.425 . S
C733 C730 1.409 1_556 S
C733 C731 1.415 . S
C734 H724 0.930 . S
C734 C732 1.419 . S
C734 C735 1.362 . S
C735 H725 0.930 . S
C735 C728 1.409 . S
C735 C734 1.362 . S
H736 C742 0.930 . S
H737 C745 0.930 . S
H738 C746 0.930 . S
H739 C747 0.930 . S
H740 C750 0.930 . S
H741 C751 0.930 . S
C742 H736 0.930 . S
C742 C743 1.355 . S
C742 C744 1.415 . S
C743 C742 1.355 . S
C743 C745 1.419 . S
C744 C742 1.415 . S
C744 C749 1.425 . S
C744 C751 1.409 . S
C745 H737 0.930 . S
C745 C743 1.419 . S
C745 C746 1.362 . S
C746 H738 0.930 . S
C746 C745 1.362 . S
C746 C749 1.409 . S
C747 H739 0.930 . S
C747 C748 1.355 . S
C747 C749 1.415 . S
C748 C747 1.355 . S
C748 C750 1.419 . S
C749 C744 1.425 . S
C749 C746 1.409 . S
C749 C747 1.415 . S
C750 H740 0.930 . S
C750 C748 1.419 . S
C750 C751 1.362 . S
C751 H741 0.930 . S
C751 C744 1.409 . S
C751 C750 1.362 . S
H752 C758 0.930 . S
H753 C761 0.930 . S
H754 C762 0.930 . S
H755 C763 0.930 . S
H756 C766 0.930 . S
H757 C767 0.930 . S
C758 H752 0.930 . S
C758 C759 1.355 1_655 S
C758 C760 1.415 . S
C759 C758 1.355 1_455 S
C759 C761 1.419 . S
C760 C758 1.415 . S
C760 C765 1.425 1_655 S
C760 C767 1.409 . S
C761 H753 0.930 . S
C761 C759 1.419 . S
C761 C762 1.362 . S
C762 H754 0.930 . S
C762 C761 1.362 . S
C762 C765 1.409 . S
C763 H755 0.930 . S
C763 C764 1.355 1_455 S
C763 C765 1.415 1_556 S
C764 C763 1.355 1_655 S
C764 C766 1.419 . S
C765 C760 1.425 1_455 S
C765 C762 1.409 . S
C765 C763 1.415 1_554 S
C766 H756 0.930 . S
C766 C764 1.419 . S
C766 C767 1.362 1_556 S
C767 H757 0.930 . S
C767 C760 1.409 . S
C767 C766 1.362 1_554 S
H768 C774 0.930 . S
H769 C777 0.930 . S
H770 C778 0.928 . S
H771 C779 0.930 . S
H772 C782 0.930 . S
H773 C783 0.930 . S
C774 H768 0.930 . S
C774 C775 1.355 1_655 S
C774 C776 1.415 . S
C775 C774 1.355 1_455 S
C775 C777 1.419 . S
C776 C774 1.415 . S
C776 C781 1.425 . S
C776 C783 1.409 . S
C777 H769 0.930 . S
C777 C775 1.419 . S
C777 C778 1.372 . S
C778 H770 0.928 . S
C778 C777 1.372 . S
C778 C781 1.402 1_455 S
C779 H771 0.930 . S
C779 C780 1.355 . S
C779 C781 1.415 . S
C780 C779 1.355 . S
C780 C782 1.419 . S
C781 C776 1.425 . S
C781 C778 1.402 1_655 S
C781 C779 1.415 . S
C782 H772 0.930 . S
C782 C780 1.419 . S
C782 C783 1.362 . S
C783 H773 0.930 . S
C783 C776 1.409 . S
C783 C782 1.362 . S
H784 C790 0.927 1_545 S
H785 C793 0.930 . S
H786 C794 0.930 . S
H787 C795 0.930 . S
H788 C798 0.930 . S
H789 C799 0.944 . S
C790 H784 0.927 1_565 S
C790 C791 1.351 . S
C790 C792 1.416 . S
C791 C790 1.351 . S
C791 C793 1.434 . S
C792 C790 1.416 . S
C792 C797 1.425 . S
C792 C799 1.409 . S
C793 H785 0.930 . S
C793 C791 1.434 . S
C793 C794 1.362 . S
C794 H786 0.930 . S
C794 C793 1.362 . S
C794 C797 1.409 . S
C795 H787 0.930 . S
C795 C796 1.355 . S
C795 C797 1.415 . S
C796 C795 1.355 . S
C796 C798 1.419 . S
C797 C792 1.425 . S
C797 C794 1.409 . S
C797 C795 1.415 . S
C798 H788 0.930 . S
C798 C796 1.419 . S
C798 C799 1.362 . S
C799 H789 0.944 . S
C799 C792 1.409 . S
C799 C798 1.362 . S
H800 C806 0.930 . S
H801 C809 0.930 . S
H802 C810 0.930 . S
H803 C811 0.930 . S
H804 C814 0.930 . S
H805 C815 0.930 . S
C806 H800 0.930 . S
C806 C807 1.355 . S
C806 C808 1.415 . S
C807 C806 1.355 . S
C807 C809 1.419 . S
C808 C806 1.415 . S
C808 C813 1.425 . S
C808 C815 1.409 . S
C809 H801 0.930 . S
C809 C807 1.419 . S
C809 C810 1.362 . S
C810 H802 0.930 . S
C810 C809 1.362 . S
C810 C813 1.409 . S
C811 H803 0.930 . S
C811 C812 1.355 . S
C811 C813 1.415 . S
C812 C811 1.355 . S
C812 C814 1.419 . S
C813 C808 1.425 . S
C813 C810 1.409 . S
C813 C811 1.415 . S
C814 H804 0.930 . S
C814 C812 1.419 . S
C814 C815 1.362 . S
C815 H805 0.930 . S
C815 C808 1.409 . S
C815 C814 1.362 . S
H816 C822 0.930 . S
H817 C825 0.930 . S
H818 C826 0.930 . S
H819 C827 0.930 . S
H820 C830 0.930 . S
H821 C831 0.930 . S
C822 H816 0.930 . S
C822 C823 1.355 . S
C822 C824 1.415 . S
C823 C822 1.355 . S
C823 C825 1.419 . S
C824 C822 1.415 . S
C824 C829 1.425 . S
C824 C831 1.409 . S
C825 H817 0.930 . S
C825 C823 1.419 . S
C825 C826 1.362 . S
C826 H818 0.930 . S
C826 C825 1.362 . S
C826 C829 1.409 . S
C827 H819 0.930 . S
C827 C828 1.355 . S
C827 C829 1.415 . S
C828 C827 1.355 . S
C828 C830 1.419 . S
C829 C824 1.425 . S
C829 C826 1.409 . S
C829 C827 1.415 . S
C830 H820 0.930 . S
C830 C828 1.419 . S
C830 C831 1.362 . S
C831 H821 0.930 . S
C831 C824 1.409 . S
C831 C830 1.362 . S
H832 C838 0.930 . S
H833 C841 0.930 . S
H834 C842 0.930 . S
H835 C843 0.930 . S
H836 C846 0.930 1_655 S
H837 C847 0.930 . S
C838 H832 0.930 . S
C838 C839 1.355 . S
C838 C840 1.391 1_655 S
C839 C838 1.355 . S
C839 C841 1.419 1_655 S
C840 C838 1.391 1_455 S
C840 C845 1.468 . S
C840 C847 1.394 1_455 S
C841 H833 0.930 . S
C841 C839 1.419 1_455 S
C841 C842 1.362 . S
C842 H834 0.930 . S
C842 C841 1.362 . S
C842 C845 1.409 . S
C843 H835 0.930 . S
C843 C844 1.355 . S
C843 C845 1.415 . S
C844 C843 1.355 . S
C844 C846 1.419 . S
C845 C840 1.468 . S
C845 C842 1.409 . S
C845 C843 1.415 . S
C846 H836 0.930 1_455 S
C846 C844 1.419 . S
C846 C847 1.362 1_455 S
C847 H837 0.930 . S
C847 C840 1.394 1_655 S
C847 C846 1.362 1_655 S
H848 C854 0.930 . S
H849 C857 0.930 . S
H850 C858 0.930 . S
H851 C859 0.930 . S
H852 C862 0.930 . S
H853 C863 0.930 . S
C854 H848 0.930 . S
C854 C855 1.355 1_545 S
C854 C856 1.415 . S
C855 C854 1.355 1_565 S
C855 C857 1.419 . S
C856 C854 1.415 . S
C856 C861 1.425 . S
C856 C863 1.409 1_554 S
C857 H849 0.930 . S
C857 C855 1.419 . S
C857 C858 1.362 . S
C858 H850 0.930 . S
C858 C857 1.362 . S
C858 C861 1.409 1_565 S
C859 H851 0.930 . S
C859 C860 1.355 . S
C859 C861 1.415 . S
C860 C859 1.355 . S
C860 C862 1.419 1_554 S
C861 C856 1.425 . S
C861 C858 1.409 1_545 S
C861 C859 1.415 . S
C862 H852 0.930 . S
C862 C860 1.419 1_556 S
C862 C863 1.362 . S
C863 H853 0.930 . S
C863 C856 1.409 1_556 S
C863 C862 1.362 . S
H864 C870 0.930 . S
H865 C873 0.930 . S
H866 C874 0.930 . S
H867 C875 0.930 . S
H868 C878 0.930 . S
H869 C879 0.930 . S
C870 H864 0.930 . S
C870 C871 1.355 . S
C870 C872 1.415 . S
C871 C870 1.355 . S
C871 C873 1.419 . S
C872 C870 1.415 . S
C872 C877 1.425 . S
C872 C879 1.409 . S
C873 H865 0.930 . S
C873 C871 1.419 . S
C873 C874 1.362 . S
C874 H866 0.930 . S
C874 C873 1.362 . S
C874 C877 1.409 . S
C875 H867 0.930 . S
C875 C876 1.355 . S
C875 C877 1.415 . S
C876 C875 1.355 . S
C876 C878 1.419 . S
C877 C872 1.425 . S
C877 C874 1.409 . S
C877 C875 1.415 . S
C878 H868 0.930 . S
C878 C876 1.419 . S
C878 C879 1.362 . S
C879 H869 0.930 . S
C879 C872 1.409 . S
C879 C878 1.362 . S
H880 C886 0.930 . S
H881 C889 0.930 . S
H882 C890 0.930 . S
H883 C891 0.930 . S
H884 C894 0.930 . S
H885 C895 0.930 . S
C886 H880 0.930 . S
C886 C887 1.355 . S
C886 C888 1.415 . S
C887 C886 1.355 . S
C887 C889 1.419 . S
C888 C886 1.415 . S
C888 C893 1.425 . S
C888 C895 1.409 . S
C889 H881 0.930 . S
C889 C887 1.419 . S
C889 C890 1.362 . S
C890 H882 0.930 . S
C890 C889 1.362 . S
C890 C893 1.409 . S
C891 H883 0.930 . S
C891 C892 1.355 . S
C891 C893 1.415 . S
C892 C891 1.355 . S
C892 C894 1.419 . S
C893 C888 1.425 . S
C893 C890 1.409 . S
C893 C891 1.415 . S
C894 H884 0.930 . S
C894 C892 1.419 . S
C894 C895 1.362 . S
C895 H885 0.930 . S
C895 C888 1.409 . S
C895 C894 1.362 . S
H896 C902 0.930 . S
H897 C905 0.930 . S
H898 C906 0.930 . S
H899 C907 0.930 . S
H900 C910 0.930 . S
H901 C911 0.930 . S
C902 H896 0.930 . S
C902 C903 1.355 . S
C902 C904 1.415 . S
C903 C902 1.355 . S
C903 C905 1.419 1_455 S
C904 C902 1.415 . S
C904 C909 1.417 1_455 S
C904 C911 1.409 . S
C905 H897 0.930 . S
C905 C903 1.419 1_655 S
C905 C906 1.362 . S
C906 H898 0.930 . S
C906 C905 1.362 . S
C906 C909 1.415 . S
C907 H899 0.930 . S
C907 C908 1.355 1_655 S
C907 C909 1.417 . S
C908 C907 1.355 1_455 S
C908 C910 1.419 . S
C909 C904 1.417 1_655 S
C909 C906 1.415 . S
C909 C907 1.417 . S
C910 H900 0.930 . S
C910 C908 1.419 . S
C910 C911 1.362 . S
C911 H901 0.930 . S
C911 C904 1.409 . S
C911 C910 1.362 . S
H912 C918 0.930 . S
H913 C921 0.930 . S
H914 C922 0.930 . S
H915 C923 0.937 . S
H916 C926 0.930 . S
H917 C927 0.930 . S
C918 H912 0.930 . S
C918 C919 1.367 . S
C918 C920 1.415 . S
C919 C918 1.367 . S
C919 C921 1.409 1_545 S
C920 C918 1.415 . S
C920 C925 1.414 1_545 S
C920 C927 1.409 . S
C921 H913 0.930 . S
C921 C919 1.409 1_565 S
C921 C922 1.362 . S
C922 H914 0.930 . S
C922 C921 1.362 . S
C922 C925 1.424 . S
C923 H915 0.937 . S
C923 C924 1.345 1_565 S
C923 C925 1.414 . S
C924 C923 1.345 1_545 S
C924 C926 1.419 . S
C925 C920 1.414 1_565 S
C925 C922 1.424 . S
C925 C923 1.414 . S
C926 H916 0.930 . S
C926 C924 1.419 . S
C926 C927 1.362 . S
C927 H917 0.930 . S
C927 C920 1.409 . S
C927 C926 1.362 . S
H928 C934 0.930 . S
H929 C937 0.930 . S
H930 C938 0.930 . S
H931 C939 0.930 1_554 S
H932 C942 0.930 . S
H933 C943 0.930 . S
C934 H928 0.930 . S
C934 C935 1.355 1_556 S
C934 C936 1.415 . S
C935 C934 1.355 1_554 S
C935 C937 1.419 . S
C936 C934 1.415 . S
C936 C941 1.425 1_556 S
C936 C943 1.409 . S
C937 H929 0.930 . S
C937 C935 1.419 . S
C937 C938 1.362 . S
C938 H930 0.930 . S
C938 C937 1.362 . S
C938 C941 1.409 . S
C939 H931 0.930 1_556 S
C939 C940 1.355 . S
C939 C941 1.415 1_556 S
C940 C939 1.355 . S
C940 C942 1.419 . S
C941 C936 1.425 1_554 S
C941 C938 1.409 . S
C941 C939 1.415 1_554 S
C942 H932 0.930 . S
C942 C940 1.419 . S
C942 C943 1.362 . S
C943 H933 0.930 . S
C943 C936 1.409 . S
C943 C942 1.362 . S
H944 C950 0.930 . S
H945 C953 0.930 . S
H946 C954 0.930 . S
H947 C955 0.930 . S
H948 C958 0.930 . S
H949 C959 0.930 . S
C950 H944 0.930 . S
C950 C951 1.355 . S
C950 C952 1.415 . S
C951 C950 1.355 . S
C951 C953 1.419 . S
C952 C950 1.415 . S
C952 C957 1.425 . S
C952 C959 1.409 . S
C953 H945 0.930 . S
C953 C951 1.419 . S
C953 C954 1.362 . S
C954 H946 0.930 . S
C954 C953 1.362 . S
C954 C957 1.409 . S
C955 H947 0.930 . S
C955 C956 1.355 . S
C955 C957 1.415 . S
C956 C955 1.355 . S
C956 C958 1.419 . S
C957 C952 1.425 . S
C957 C954 1.409 . S
C957 C955 1.415 . S
C958 H948 0.930 . S
C958 C956 1.419 . S
C958 C959 1.362 . S
C959 H949 0.930 . S
C959 C952 1.409 . S
C959 C958 1.362 . S
H960 C966 0.930 . S
H961 C969 0.930 . S
H962 C970 0.930 . S
H963 C971 0.930 . S
H964 C974 0.930 . S
H965 C975 0.930 . S
C966 H960 0.930 . S
C966 C967 1.355 1_455 S
C966 C968 1.415 . S
C967 C966 1.355 1_655 S
C967 C969 1.419 . S
C968 C966 1.415 . S
C968 C973 1.420 1_455 S
C968 C975 1.414 . S
C969 H961 0.930 . S
C969 C967 1.419 . S
C969 C970 1.362 . S
C970 H962 0.930 . S
C970 C969 1.362 . S
C970 C973 1.409 . S
C971 H963 0.930 . S
C971 C972 1.355 . S
C971 C973 1.415 . S
C972 C971 1.355 . S
C972 C974 1.419 1_655 S
C973 C968 1.420 1_655 S
C973 C970 1.409 . S
C973 C971 1.415 . S
C974 H964 0.930 . S
C974 C972 1.419 1_455 S
C974 C975 1.362 . S
C975 H965 0.930 . S
C975 C968 1.414 . S
C975 C974 1.362 . S
H976 C982 0.930 . S
H977 C985 0.930 . S
H978 C986 0.930 . S
H979 C987 0.930 . S
H980 C990 0.930 . S
H981 C991 0.930 . S
C982 H976 0.930 . S
C982 C983 1.355 1_545 S
C982 C984 1.415 . S
C983 C982 1.355 1_565 S
C983 C985 1.419 . S
C984 C982 1.415 . S
C984 C989 1.425 1_545 S
C984 C991 1.409 . S
C985 H977 0.930 . S
C985 C983 1.419 . S
C985 C986 1.362 . S
C986 H978 0.930 . S
C986 C985 1.362 . S
C986 C989 1.409 . S
C987 H979 0.930 . S
C987 C988 1.355 . S
C987 C989 1.415 . S
C988 C987 1.355 . S
C988 C990 1.419 1_565 S
C989 C984 1.425 1_565 S
C989 C986 1.409 . S
C989 C987 1.415 . S
C990 H980 0.930 . S
C990 C988 1.419 1_545 S
C990 C991 1.362 . S
C991 H981 0.930 . S
C991 C984 1.409 . S
C991 C990 1.362 . S
H992 C998 0.930 . S
H993 C1001 0.930 . S
H994 C1002 0.930 . S
H995 C1003 0.930 . S
H996 C1006 0.930 . S
H997 C1007 0.930 . S
C998 H992 0.930 . S
C998 C999 1.355 . S
C998 C1000 1.415 . S
C999 C998 1.355 . S
C999 C1001 1.419 . S
C1000 C998 1.415 . S
C1000 C1005 1.425 . S
C1000 C1007 1.409 . S
C1001 H993 0.930 . S
C1001 C999 1.419 . S
C1001 C1002 1.362 . S
C1002 H994 0.930 . S
C1002 C1001 1.362 . S
C1002 C1005 1.409 . S
C1003 H995 0.930 . S
C1003 C1004 1.355 . S
C1003 C1005 1.415 . S
C1004 C1003 1.355 . S
C1004 C1006 1.419 . S
C1005 C1000 1.425 . S
C1005 C1002 1.409 . S
C1005 C1003 1.415 . S
C1006 H996 0.930 . S
C1006 C1004 1.419 . S
C1006 C1007 1.362 . S
C1007 H997 0.930 . S
C1007 C1000 1.409 . S
C1007 C1006 1.362 . S
H1008 C1014 0.930 . S
H1009 C1017 0.930 . S
H1010 C1018 0.930 . S
H1011 C1019 0.930 . S
H1012 C1022 0.930 . S
H1013 C1023 0.930 . S
C1014 H1008 0.930 . S
C1014 C1015 1.355 . S
C1014 C1016 1.415 . S
C1015 C1014 1.355 . S
C1015 C1017 1.419 . S
C1016 C1014 1.415 . S
C1016 C1021 1.425 . S
C1016 C1023 1.409 . S
C1017 H1009 0.930 . S
C1017 C1015 1.419 . S
C1017 C1018 1.362 . S
C1018 H1010 0.930 . S
C1018 C1017 1.362 . S
C1018 C1021 1.409 . S
C1019 H1011 0.930 . S
C1019 C1020 1.355 . S
C1019 C1021 1.415 . S
C1020 C1019 1.355 . S
C1020 C1022 1.419 . S
C1021 C1016 1.425 . S
C1021 C1018 1.409 . S
C1021 C1019 1.415 . S
C1022 H1012 0.930 . S
C1022 C1020 1.419 . S
C1022 C1023 1.362 . S
C1023 H1013 0.930 . S
C1023 C1016 1.409 . S
C1023 C1022 1.362 . S
C647 C391 2.277 . S
C652 C482 2.296 1_545 S
C668 C522 2.188 . S
C663 C451 2.188 . S
C684 C586 2.673 . S
C679 C241 2.337 . S
C700 C602 2.421 1_455 S
C695 C331 1.929 . S
C716 C503 2.295 1_565 S
C711 C121 2.056 . S
C727 C211 2.154 . S
C732 C543 2.192 . S
C743 C31 2.626 . S
C748 C577 2.621 1_554 S
C759 C91 1.930 1_455 S
C764 C623 2.413 1_655 S
C780 C497 0.547 . S
C775 C301 0.529 . S
C796 C537 0.661 . S
C791 C380 0.660 1_565 S
C812 C573 0.781 . S
C807 C440 0.692 . S
C823 C260 0.912 . S
C828 C617 0.920 . S
C839 C61 0.509 . S
C844 C506 0.406 . S
C860 C546 0.655 1_554 S
C855 C140 0.582 . S
C876 C584 0.594 . S
C871 C200 0.647 . S
C887 C20 0.919 . S
C892 C626 0.915 . S
C903 C320 2.897 . S
C908 C504 3.099 . S
C919 C361 2.327 . S
C924 C544 2.913 . S
C940 C562 2.037 . S
C935 C421 1.825 . S
C956 C624 3.534 . S
C951 C271 3.225 . S
C967 C80 2.836 . S
C972 C493 3.079 . S
C988 C533 2.900 . S
C983 C151 2.711 . S
C1004 C583 2.089 . S
C999 C181 1.843 . S
C1015 C1 2.832 . S
C1020 C613 3.537 . S
