# Generated by pormake.
# Topology anh, (6,3)-cn, num edge types: 1
# Building blocks:
#     Node 0, Type 0, BuildingBlock: BETDEL_clean_sbu_0, # of connection points: 6
#     Node 1, Type 0, BuildingBlock: BETDEL_clean_sbu_0, # of connection points: 6
#     Node 2, Type 0, BuildingBlock: BETDEL_clean_sbu_0, # of connection points: 6
#     Node 3, Type 1, BuildingBlock: KAKCAD_clean_linker_0, # of connection points: 3
#     Node 4, Type 1, BuildingBlock: KAKCAD_clean_linker_0, # of connection points: 3
#     Node 5, Type 1, BuildingBlock: KAKCAD_clean_linker_0, # of connection points: 3
#     Node 6, Type 1, BuildingBlock: KAKCAD_clean_linker_0, # of connection points: 3
#     Node 7, Type 1, BuildingBlock: KAKCAD_clean_linker_0, # of connection points: 3
#     Node 8, Type 1, BuildingBlock: KAKCAD_clean_linker_0, # of connection points: 3
#     Edge 9, Type (0, 1), BuildingBlock: UVAHIK_clean_linker_0, # of connection points: 2
#     Edge 10, Type (0, 1), BuildingBlock: UVAHIK_clean_linker_0, # of connection points: 2
#     Edge 11, Type (0, 1), BuildingBlock: UVAHIK_clean_linker_0, # of connection points: 2
#     Edge 12, Type (0, 1), BuildingBlock: UVAHIK_clean_linker_0, # of connection points: 2
#     Edge 13, Type (0, 1), BuildingBlock: UVAHIK_clean_linker_0, # of connection points: 2
#     Edge 14, Type (0, 1), BuildingBlock: UVAHIK_clean_linker_0, # of connection points: 2
#     Edge 15, Type (0, 1), BuildingBlock: UVAHIK_clean_linker_0, # of connection points: 2
#     Edge 16, Type (0, 1), BuildingBlock: UVAHIK_clean_linker_0, # of connection points: 2
#     Edge 17, Type (0, 1), BuildingBlock: UVAHIK_clean_linker_0, # of connection points: 2
#     Edge 18, Type (0, 1), BuildingBlock: UVAHIK_clean_linker_0, # of connection points: 2
#     Edge 19, Type (0, 1), BuildingBlock: UVAHIK_clean_linker_0, # of connection points: 2
#     Edge 20, Type (0, 1), BuildingBlock: UVAHIK_clean_linker_0, # of connection points: 2
#     Edge 21, Type (0, 1), BuildingBlock: UVAHIK_clean_linker_0, # of connection points: 2
#     Edge 22, Type (0, 1), BuildingBlock: UVAHIK_clean_linker_0, # of connection points: 2
#     Edge 23, Type (0, 1), BuildingBlock: UVAHIK_clean_linker_0, # of connection points: 2
#     Edge 24, Type (0, 1), BuildingBlock: UVAHIK_clean_linker_0, # of connection points: 2
#     Edge 25, Type (0, 1), BuildingBlock: UVAHIK_clean_linker_0, # of connection points: 2
#     Edge 26, Type (0, 1), BuildingBlock: UVAHIK_clean_linker_0, # of connection points: 2
# Relax obj value: 0.136
# Max RMSD: 0.165
# Mean RMSD: 0.131
data_MOF--net-anh--node1-BETDEL_clean_sbu_0--node2-KAKCAD_clean_linker_0--edge1-UVAHIK_clean_linker_0
_symmetry_space_group_name_H-M    P1
_symmetry_Int_Tables_number       1
_symmetry_cell_setting            triclinic
loop_
_symmetry_equiv_pos_as_xyz
'x, y, z'
_cell_length_a     44.650398
_cell_length_b     44.642517
_cell_length_c     80.128197
_cell_angle_alpha  90.121565
_cell_angle_beta   89.996552
_cell_angle_gamma 120.00545
loop_
_atom_site_label
_atom_site_type_symbol
_atom_site_fract_x
_atom_site_fract_y
_atom_site_fract_z
_atom_type_partial_charge
Dy0 Dy 0.04589 0.4937 0.16485 0.0
C1 C 0.96465 0.55258 0.18613 0.0
C2 C 0.08965 0.47395 0.15169 0.0
Dy3 Dy 0.00778 0.53227 0.17262 0.0
O4 O 0.07032 0.46025 0.16471 0.0
O5 O 0.08451 0.49796 0.14565 0.0
O6 O 0.03188 0.46772 0.18976 0.0
O7 O 0.03942 0.51785 0.18727 0.0
C8 C 0.02942 0.49244 0.19697 0.0
C9 C 0.02459 0.53332 0.14046 0.0
O10 O 0.06104 0.57484 0.17897 0.0
O11 O 0.08939 0.54933 0.16624 0.0
O12 O 0.98183 0.56436 0.17234 0.0
O13 O 0.97132 0.52994 0.19261 0.0
O14 O 0.02316 0.55856 0.14776 0.0
O15 O 0.01399 0.50785 0.15017 0.0
O16 O 0.99239 0.45068 0.15904 0.0
O17 O 0.96448 0.47674 0.17173 0.0
C18 C 0.08968 0.57651 0.17321 0.0
C19 C 0.96399 0.44928 0.16501 0.0
Dy20 Dy 0.48768 0.03084 0.49667 0.0
C21 C 0.62848 0.11252 0.52198 0.0
C22 C 0.42407 0.98595 0.48385 0.0
Dy23 Dy 0.56873 0.0727 0.5049 0.0
O24 O 0.42961 0.0055 0.49684 0.0
O25 O 0.45329 0.99148 0.47771 0.0
O26 O 0.47733 0.04425 0.52235 0.0
O27 O 0.52096 0.03932 0.51805 0.0
C28 C 0.50592 0.04811 0.52857 0.0
C29 C 0.55738 0.0699 0.4717 0.0
O30 O 0.55874 0.01831 0.5074 0.0
O31 O 0.50091 0.98827 0.49862 0.0
O32 O 0.62484 0.09126 0.50996 0.0
O33 O 0.59922 0.11127 0.52486 0.0
O34 O 0.58816 0.08497 0.47826 0.0
O35 O 0.53579 0.05795 0.48337 0.0
O36 O 0.5002 0.08485 0.49045 0.0
O37 O 0.55209 0.1127 0.50539 0.0
C38 C 0.53 0.98916 0.5033 0.0
C39 C 0.52606 0.11299 0.49744 0.0
Dy40 Dy 0.57945 0.58483 0.83032 0.0
C41 C 0.51971 0.44371 0.84993 0.0
C42 C 0.60031 0.64908 0.81784 0.0
Dy43 Dy 0.54053 0.50784 0.83723 0.0
O44 O 0.61175 0.64281 0.83151 0.0
O45 O 0.57788 0.62021 0.81084 0.0
O46 O 0.60536 0.59469 0.85532 0.0
O47 O 0.55465 0.55331 0.85226 0.0
C48 C 0.57984 0.56762 0.86216 0.0
C49 C 0.5399 0.52478 0.80526 0.0
O50 O 0.4981 0.51861 0.84382 0.0
O51 O 0.52379 0.57292 0.83161 0.0
O52 O 0.50785 0.44986 0.83636 0.0
O53 O 0.54265 0.47266 0.85667 0.0
O54 O 0.51459 0.4979 0.81233 0.0
O55 O 0.56535 0.5393 0.81507 0.0
O56 O 0.6226 0.57454 0.82462 0.0
O57 O 0.59614 0.52005 0.83668 0.0
C58 C 0.49649 0.54581 0.83835 0.0
C59 C 0.62386 0.54733 0.83036 0.0
C60 C 0.53251 0.05692 0.28327 0.0
C61 C 0.52272 0.02788 0.29343 0.0
C62 C 0.53299 0.05414 0.26592 0.0
C63 C 0.52411 0.02232 0.25829 0.0
C64 C 0.51402 0.99318 0.2685 0.0
C65 C 0.51315 0.99591 0.28587 0.0
C66 C 0.52555 0.0197 0.23978 0.0
C67 C 0.55181 0.04684 0.23057 0.0
C68 C 0.55297 0.0454 0.21306 0.0
C69 C 0.52755 0.01565 0.20467 0.0
C70 C 0.50138 0.98788 0.21377 0.0
C71 C 0.50057 0.99029 0.23124 0.0
C72 C 0.47389 0.95625 0.20545 0.0
C73 C 0.45189 0.95829 0.19355 0.0
C74 C 0.46694 0.92351 0.21093 0.0
C75 C 0.4379 0.89347 0.20514 0.0
C76 C 0.41481 0.89543 0.19388 0.0
C77 C 0.58111 0.0754 0.20396 0.0
C78 C 0.59016 0.10926 0.20866 0.0
C79 C 0.60101 0.07085 0.19169 0.0
C80 C 0.63024 0.09957 0.18486 0.0
C81 C 0.64001 0.13343 0.19007 0.0
C82 C 0.61916 0.1378 0.20187 0.0
C83 C 0.42246 0.92816 0.1879 0.0
H84 H 0.5396 0.0818 0.28876 0.0
H85 H 0.54012 0.07696 0.25848 0.0
H86 H 0.50747 0.96837 0.26312 0.0
H87 H 0.50586 0.97319 0.29343 0.0
H88 H 0.57195 0.06911 0.2371 0.0
H89 H 0.47971 0.96944 0.23814 0.0
H90 H 0.52805 0.01413 0.19118 0.0
H91 H 0.45652 0.98323 0.18923 0.0
H92 H 0.48347 0.92125 0.22014 0.0
H93 H 0.43267 0.86876 0.21011 0.0
H94 H 0.57519 0.1137 0.21797 0.0
H95 H 0.59479 0.0451 0.18785 0.0
H96 H 0.40531 0.93049 0.17912 0.0
H97 H 0.62592 0.16329 0.20639 0.0
H98 H 0.64541 0.0952 0.17565 0.0
C99 C 0.51294 0.56206 0.61825 0.0
C100 C 0.53807 0.55752 0.62661 0.0
C101 C 0.51118 0.5611 0.60082 0.0
C102 C 0.53434 0.55532 0.59137 0.0
C103 C 0.55961 0.551 0.59973 0.0
C104 C 0.56153 0.55222 0.61715 0.0
C105 C 0.53202 0.55354 0.57286 0.0
C106 C 0.52745 0.57781 0.56384 0.0
C107 C 0.52563 0.57665 0.54632 0.0
C108 C 0.52826 0.55043 0.53771 0.0
C109 C 0.53254 0.52555 0.54663 0.0
C110 C 0.53437 0.52751 0.56417 0.0
C111 C 0.53445 0.49676 0.53814 0.0
C112 C 0.51029 0.47625 0.52584 0.0
C113 C 0.55848 0.48732 0.54368 0.0
C114 C 0.557 0.45704 0.53796 0.0
C115 C 0.53158 0.43536 0.52644 0.0
C116 C 0.52186 0.60384 0.53747 0.0
C117 C 0.49603 0.61118 0.54246 0.0
C118 C 0.54642 0.62541 0.52566 0.0
C119 C 0.54622 0.65485 0.51967 0.0
C120 C 0.52118 0.66299 0.52521 0.0
C121 C 0.49559 0.64027 0.53636 0.0
C122 C 0.50891 0.44584 0.52002 0.0
H123 H 0.49468 0.56647 0.62519 0.0
H124 H 0.49129 0.5643 0.59474 0.0
H125 H 0.57803 0.54684 0.59277 0.0
H126 H 0.58098 0.54831 0.62323 0.0
H127 H 0.52626 0.59839 0.57048 0.0
H128 H 0.53675 0.50806 0.57118 0.0
H129 H 0.52697 0.54942 0.5242 0.0
H130 H 0.49135 0.48273 0.52137 0.0
H131 H 0.57788 0.50289 0.55289 0.0
H132 H 0.57539 0.45019 0.54286 0.0
H133 H 0.47681 0.595 0.55158 0.0
H134 H 0.56678 0.6205 0.52171 0.0
H135 H 0.48905 0.4297 0.51112 0.0
H136 H 0.4761 0.64582 0.54101 0.0
H137 H 0.5661 0.67163 0.51096 0.0
C138 C 0.08501 0.56513 0.95339 0.0
C139 C 0.05558 0.5396 0.96173 0.0
C140 C 0.08572 0.567 0.93597 0.0
C141 C 0.05691 0.54356 0.92649 0.0
C142 C 0.02743 0.51814 0.93483 0.0
C143 C 0.02682 0.51609 0.95225 0.0
C144 C 0.05772 0.54537 0.90796 0.0
C145 C 0.08677 0.54974 0.89917 0.0
C146 C 0.08765 0.55066 0.88164 0.0
C147 C 0.05878 0.54734 0.87279 0.0
C148 C 0.02941 0.54333 0.88146 0.0
C149 C 0.02934 0.54237 0.89902 0.0
C150 C 0.9987 0.54067 0.87259 0.0
C151 C 1.0025 0.56333 0.85954 0.0
C152 C 0.96511 0.51717 0.8782 0.0
C153 C 0.93626 0.5173 0.87151 0.0
C154 C 0.93998 0.5408 0.8589 0.0
C155 C 0.11879 0.55411 0.87305 0.0
C156 C 0.15191 0.58018 0.87801 0.0
C157 C 0.116 0.52912 0.8615 0.0
C158 C 0.14574 0.52915 0.85575 0.0
C159 C 0.17887 0.55447 0.86126 0.0
C160 C 0.18156 0.58048 0.87213 0.0
C161 C 0.9735 0.56345 0.8528 0.0
H162 H 0.10767 0.58344 0.96034 0.0
H163 H 0.10872 0.58702 0.9299 0.0
H164 H 0.00494 0.49953 0.92786 0.0
H165 H 1.00365 0.49634 0.95832 0.0
H166 H 0.1085 0.55137 0.90601 0.0
H167 H 0.00735 0.54012 0.90586 0.0
H168 H 0.05921 0.54786 0.85927 0.0
H169 H 0.02798 0.58186 0.85497 0.0
H170 H 0.96114 0.49904 0.88809 0.0
H171 H 0.91109 0.49968 0.87671 0.0
H172 H 0.15482 0.59976 0.88692 0.0
H173 H 0.0908 0.50857 0.85757 0.0
H174 H 0.97741 0.58159 0.84294 0.0
H175 H 0.20655 0.6002 0.87675 0.0
H176 H 0.14278 0.50895 0.84725 0.0
C177 C 0.95718 0.50168 0.38282 0.0
C178 C 0.98294 0.49952 0.37371 0.0
C179 C 0.96061 0.50718 0.40011 0.0
C180 C 0.9902 0.51137 0.40835 0.0
C181 C 0.01576 0.50898 0.39925 0.0
C182 C 0.01203 0.50282 0.38211 0.0
C183 C 0.99566 0.51983 0.4263 0.0
C184 C 0.9733 0.49662 0.43827 0.0
C185 C 0.98082 0.50344 0.45535 0.0
C186 C 0.01044 0.53416 0.46037 0.0
C187 C 0.03247 0.55816 0.44846 0.0
C188 C 0.0248 0.55059 0.43143 0.0
C189 C 0.06344 0.59117 0.45356 0.0
C190 C 0.06217 0.61032 0.46722 0.0
C191 C 0.0941 0.60465 0.44422 0.0
C192 C 0.12221 0.6371 0.44793 0.0
C193 C 0.12073 0.65678 0.46131 0.0
C194 C 0.95851 0.47761 0.46786 0.0
C195 C 0.92271 0.46484 0.46785 0.0
C196 C 0.9727 0.46444 0.47937 0.0
C197 C 0.95124 0.43806 0.49035 0.0
C198 C 0.91537 0.42501 0.49021 0.0
C199 C 0.90135 0.43899 0.47905 0.0
C200 C 0.09055 0.6427 0.47109 0.0
H201 H 0.93452 0.49917 0.37658 0.0
H202 H 0.9407 0.50909 0.40695 0.0
H203 H 0.03877 0.51214 0.40541 0.0
H204 H 0.03237 0.50157 0.37533 0.0
H205 H 0.95097 0.47258 0.43429 0.0
H206 H 0.04132 0.56878 0.42203 0.0
H207 H 0.01636 0.53917 0.47355 0.0
H208 H 0.0389 0.6008 0.47464 0.0
H209 H 0.0963 0.59033 0.43382 0.0
H210 H 0.14473 0.6471 0.43995 0.0
H211 H 0.91126 0.47469 0.45909 0.0
H212 H 1.00025 0.47378 0.4795 0.0
H213 H 0.08865 0.65681 0.48166 0.0
H214 H 0.87371 0.42907 0.47861 0.0
H215 H 0.96258 0.42763 0.49884 0.0
C216 C 0.56079 0.06298 0.70951 0.0
C217 C 0.57534 0.09647 0.703 0.0
C218 C 0.55941 0.05779 0.72668 0.0
C219 C 0.57331 0.08605 0.7378 0.0
C220 C 0.58751 0.11969 0.73122 0.0
C221 C 0.58824 0.12482 0.71394 0.0
C222 C 0.5728 0.07989 0.75609 0.0
C223 C 0.57694 0.05257 0.76199 0.0
C224 C 0.57292 0.04365 0.77896 0.0
C225 C 0.5664 0.06364 0.79034 0.0
C226 C 0.56387 0.0921 0.78479 0.0
C227 C 0.56687 0.1 0.76769 0.0
C228 C 0.55751 0.11339 0.79681 0.0
C229 C 0.5282 0.0983 0.80714 0.0
C230 C 0.58044 0.14916 0.7977 0.0
C231 C 0.57407 0.16962 0.80869 0.0
C232 C 0.54431 0.15474 0.81872 0.0
C233 C 0.57485 0.0129 0.78445 0.0
C234 C 0.56005 0.98289 0.77453 0.0
C235 C 0.59232 0.01351 0.79916 0.0
C236 C 0.59575 0.98502 0.80354 0.0
C237 C 0.58185 0.95543 0.79328 0.0
C238 C 0.56375 0.95471 0.77879 0.0
C239 C 0.52141 0.11891 0.81789 0.0
H240 H 0.55014 0.04072 0.70127 0.0
H241 H 0.5472 0.03145 0.73122 0.0
H242 H 0.59863 0.14207 0.73937 0.0
H243 H 0.59952 0.15088 0.70911 0.0
H244 H 0.58338 0.03806 0.75328 0.0
H245 H 0.56338 0.12108 0.76345 0.0
H246 H 0.56315 0.05707 0.80349 0.0
H247 H 0.51013 0.07074 0.80656 0.0
H248 H 0.60324 0.16124 0.78986 0.0
H249 H 0.59188 0.19726 0.80901 0.0
H250 H 0.54584 0.98127 0.76328 0.0
H251 H 0.6041 0.03629 0.80705 0.0
H252 H 0.49827 0.10697 0.82549 0.0
H253 H 0.55311 0.93268 0.77042 0.0
H254 H 0.60946 0.9863 0.81491 0.0
C255 C 0.57728 0.49588 0.04799 0.0
C256 C 0.5658 0.51471 0.0385 0.0
C257 C 0.57136 0.49187 0.06522 0.0
C258 C 0.55396 0.50673 0.07332 0.0
C259 C 0.54293 0.52588 0.06382 0.0
C260 C 0.54847 0.52953 0.04667 0.0
C261 C 0.54721 0.50267 0.09159 0.0
C262 C 0.5721 0.50428 0.10283 0.0
C263 C 0.56651 0.5034 0.1201 0.0
C264 C 0.53601 0.50103 0.12624 0.0
C265 C 0.51059 0.49872 0.11517 0.0
C266 C 0.51617 0.49886 0.09791 0.0
C267 C 0.47855 0.49718 0.12138 0.0
C268 C 0.46038 0.47638 0.13508 0.0
C269 C 0.46543 0.51601 0.11323 0.0
C270 C 0.43432 0.51328 0.11825 0.0
C271 C 0.41569 0.49201 0.13173 0.0
C272 C 0.59323 0.50611 0.13172 0.0
C273 C 0.6001 0.47887 0.13304 0.0
C274 C 0.61273 0.53635 0.14107 0.0
C275 C 0.63973 0.53982 0.15122 0.0
C276 C 0.64729 0.51281 0.15239 0.0
C277 C 0.62658 0.48199 0.14344 0.0
C278 C 0.42923 0.47383 0.14021 0.0
H279 H 0.59101 0.48438 0.04214 0.0
H280 H 0.58004 0.4768 0.07213 0.0
H281 H 0.53008 0.53831 0.06965 0.0
H282 H 0.53867 0.54369 0.03979 0.0
H283 H 0.59638 0.5075 0.09825 0.0
H284 H 0.49615 0.49601 0.08933 0.0
H285 H 0.53235 0.50136 0.1396 0.0
H286 H 0.46979 0.46146 0.14159 0.0
H287 H 0.4791 0.53276 0.10282 0.0
H288 H 0.42451 0.52727 0.11124 0.0
H289 H 0.58502 0.45522 0.12598 0.0
H290 H 0.60776 0.55768 0.14009 0.0
H291 H 0.41571 0.45752 0.15077 0.0
H292 H 0.63099 0.4603 0.14432 0.0
H293 H 0.65533 0.56411 0.15769 0.0
C294 C 0.12168 0.4417 0.15408 0.0
C295 C 0.1186 0.46881 0.14702 0.0
C296 C 0.15221 0.44056 0.15212 0.0
C297 C 0.24293 0.49877 0.14987 0.0
H298 H 0.2535 0.42411 0.13162 0.0
C299 C 0.37642 0.51654 0.13536 0.0
C300 C 0.38171 0.4881 0.13636 0.0
C301 C 0.34365 0.51233 0.13783 0.0
C302 C 0.25093 0.44491 0.13708 0.0
H303 H 0.14394 0.51492 0.13173 0.0
H304 H 0.1976 0.51331 0.12865 0.0
H305 H 0.1962 0.41862 0.13246 0.0
H306 H 0.35681 0.4331 0.14152 0.0
H307 H 0.29988 0.42608 0.14669 0.0
H308 H 0.29702 0.5248 0.15505 0.0
C309 C 0.17636 0.49292 0.13557 0.0
C310 C 0.21819 0.44181 0.1374 0.0
C311 C 0.14567 0.4937 0.13726 0.0
C312 C 0.35372 0.45562 0.14074 0.0
C313 C 0.32092 0.45148 0.14344 0.0
C314 C 0.27546 0.50162 0.14986 0.0
C315 C 0.18013 0.46686 0.14334 0.0
C316 C 0.21416 0.46903 0.1435 0.0
C317 C 0.31534 0.47967 0.14169 0.0
C318 C 0.28007 0.47506 0.14316 0.0
H319 H 0.10111 0.42224 0.16168 0.0
H320 H 0.1547 0.42028 0.15822 0.0
H321 H 0.24017 0.5198 0.15492 0.0
H322 H 0.39752 0.54207 0.13233 0.0
H323 H 0.34043 0.53462 0.13617 0.0
C324 C 0.66324 0.16622 0.53857 0.0
C325 C 0.66204 0.14025 0.52821 0.0
C326 C 0.69436 0.19706 0.54101 0.0
C327 C 0.75062 0.26529 0.52743 0.0
H328 H 0.84324 0.27901 0.53084 0.0
C329 C 0.86681 0.39654 0.51067 0.0
C330 C 0.89217 0.39534 0.50084 0.0
C331 C 0.84231 0.3671 0.51915 0.0
C332 C 0.81755 0.27562 0.5298 0.0
H333 H 0.69273 0.1244 0.51371 0.0
H334 H 0.74716 0.17828 0.51798 0.0
H335 H 0.79343 0.22235 0.53719 0.0
H336 H 0.91275 0.36305 0.49254 0.0
H337 H 0.86926 0.31123 0.50669 0.0
H338 H 0.77392 0.31732 0.51894 0.0
C339 C 0.72415 0.17493 0.52421 0.0
C340 C 0.78909 0.24323 0.53354 0.0
C341 C 0.69297 0.14412 0.52171 0.0
C342 C 0.89354 0.36464 0.50016 0.0
C343 C 0.86868 0.335 0.50838 0.0
C344 C 0.77891 0.29741 0.52348 0.0
C345 C 0.72479 0.20233 0.5332 0.0
C346 C 0.75531 0.23759 0.53205 0.0
C347 C 0.84219 0.33559 0.51766 0.0
C348 C 0.81275 0.30285 0.52422 0.0
H349 H 0.63977 0.16376 0.54385 0.0
H350 H 0.69424 0.21759 0.54819 0.0
H351 H 0.72488 0.2616 0.52585 0.0
H352 H 0.86553 0.42011 0.51152 0.0
H353 H 0.8229 0.36884 0.5265 0.0
C354 C 0.58543 0.68658 0.80102 0.0
C355 C 0.607 0.68352 0.81276 0.0
C356 C 0.58812 0.71862 0.79805 0.0
C357 C 0.61928 0.80345 0.8187 0.0
H358 H 0.59311 0.8258 0.77639 0.0
C359 C 0.61879 0.93131 0.80363 0.0
C360 C 0.58711 0.9258 0.79713 0.0
C361 C 0.62467 0.90357 0.80574 0.0
C362 C 0.60052 0.81983 0.78826 0.0
H363 H 0.6497 0.71157 0.82988 0.0
H364 H 0.6555 0.76795 0.82421 0.0
H365 H 0.60007 0.77512 0.7784 0.0
H366 H 0.53612 0.88638 0.78874 0.0
H367 H 0.54702 0.83842 0.79186 0.0
H368 H 0.62013 0.84875 0.82836 0.0
C369 C 0.63569 0.7455 0.81768 0.0
C370 C 0.60435 0.79074 0.78946 0.0
C371 C 0.63263 0.7133 0.82082 0.0
C372 C 0.56114 0.89178 0.79334 0.0
C373 C 0.56726 0.86426 0.79517 0.0
C374 C 0.61605 0.83292 0.81739 0.0
C375 C 0.61281 0.74841 0.80661 0.0
C376 C 0.61293 0.78166 0.8048 0.0
C377 C 0.59921 0.86999 0.80116 0.0
C378 C 0.60585 0.84083 0.80226 0.0
H379 H 0.56531 0.66393 0.79472 0.0
H380 H 0.56968 0.71961 0.78963 0.0
H381 H 0.62541 0.79709 0.83078 0.0
H382 H 0.63952 0.95715 0.80652 0.0
H383 H 0.64951 0.9085 0.8104 0.0
C384 C 0.91364 0.53764 0.20417 0.0
C385 C 0.93633 0.55819 0.19151 0.0
C386 C 0.88242 0.53713 0.20667 0.0
C387 C 0.81017 0.516 0.19486 0.0
H388 H 0.79252 0.59162 0.18741 0.0
C389 C 0.69742 0.50291 0.15623 0.0
C390 C 0.67775 0.51741 0.1621 0.0
C391 C 0.72682 0.50821 0.16479 0.0
C392 C 0.79698 0.5703 0.18983 0.0
H393 H 0.94614 0.59681 0.17271 0.0
H394 H 0.89168 0.5959 0.17701 0.0
H395 H 0.85083 0.60415 0.19499 0.0
H396 H 0.67361 0.54848 0.18191 0.0
H397 H 0.72618 0.55892 0.19647 0.0
H398 H 0.75691 0.48224 0.18872 0.0
C399 C 0.89784 0.58023 0.18504 0.0
C400 C 0.83031 0.57745 0.19406 0.0
C401 C 0.92894 0.58061 0.18249 0.0
C402 C 0.68833 0.5373 0.17686 0.0
C403 C 0.71825 0.54312 0.18529 0.0
C404 C 0.77704 0.50891 0.19048 0.0
C405 C 0.87356 0.5573 0.19662 0.0
C406 C 0.83746 0.55035 0.19603 0.0
C407 C 0.73769 0.52859 0.17929 0.0
C408 C 0.77048 0.53599 0.18733 0.0
H409 H 0.91891 0.52029 0.21138 0.0
H410 H 0.86436 0.51952 0.21582 0.0
H411 H 0.81487 0.49454 0.19612 0.0
H412 H 0.6908 0.48826 0.1447 0.0
H413 H 0.7418 0.49731 0.15971 0.0
C414 C 0.38793 0.93185 0.46782 0.0
C415 C 0.39 0.95737 0.47876 0.0
C416 C 0.3563 0.90193 0.46488 0.0
C417 C 0.27032 0.84908 0.48449 0.0
H418 H 0.25137 0.79703 0.44325 0.0
C419 C 0.1441 0.71906 0.46959 0.0
C420 C 0.1501 0.6923 0.46448 0.0
C421 C 0.1716 0.75294 0.47133 0.0
C422 C 0.2564 0.81139 0.45481 0.0
H423 H 0.36061 0.97288 0.49445 0.0
H424 H 0.3049 0.92124 0.48878 0.0
H425 H 0.30146 0.85512 0.44498 0.0
H426 H 0.19016 0.68022 0.45802 0.0
H427 H 0.23775 0.73953 0.46041 0.0
H428 H 0.22461 0.80517 0.4941 0.0
C429 C 0.32783 0.92368 0.48288 0.0
C430 C 0.28515 0.84458 0.45587 0.0
C431 C 0.35965 0.95342 0.48601 0.0
C432 C 0.18436 0.7002 0.46155 0.0
C433 C 0.21168 0.73411 0.46298 0.0
C434 C 0.24117 0.8161 0.48331 0.0
C435 C 0.32589 0.89711 0.47263 0.0
C436 C 0.293 0.86356 0.47085 0.0
C437 C 0.20548 0.76077 0.46771 0.0
C438 C 0.23447 0.79674 0.46859 0.0
H439 H 0.41103 0.93418 0.46215 0.0
H440 H 0.3561 0.88195 0.45713 0.0
H441 H 0.2757 0.86259 0.49631 0.0
H442 H 0.11809 0.71415 0.47175 0.0
H443 H 0.16629 0.7732 0.47499 0.0
C444 C 0.53516 0.40635 0.86663 0.0
C445 C 0.51344 0.40933 0.8549 0.0
C446 C 0.53404 0.37476 0.86881 0.0
C447 C 0.54748 0.31838 0.85607 0.0
H448 H 0.46618 0.22691 0.85571 0.0
C449 C 0.56117 0.20092 0.84031 0.0
C450 C 0.53638 0.17714 0.82919 0.0
C451 C 0.55545 0.22518 0.84857 0.0
C452 C 0.48916 0.25226 0.85573 0.0
H453 H 0.47157 0.38135 0.83734 0.0
H454 H 0.46936 0.32606 0.84126 0.0
H455 H 0.46008 0.27747 0.86128 0.0
H456 H 0.48577 0.159 0.81837 0.0
H457 H 0.47625 0.2022 0.83214 0.0
H458 H 0.57641 0.29412 0.84934 0.0
C459 C 0.48728 0.34803 0.84874 0.0
C460 C 0.48563 0.28113 0.85904 0.0
C461 C 0.48866 0.37969 0.84642 0.0
C462 C 0.50514 0.17698 0.82701 0.0
C463 C 0.49967 0.20167 0.835 0.0
C464 C 0.55096 0.28969 0.85253 0.0
C465 C 0.5109 0.34561 0.85944 0.0
C466 C 0.5147 0.31452 0.85886 0.0
C467 C 0.52516 0.22671 0.84556 0.0
C468 C 0.52176 0.25629 0.85188 0.0
H469 H 0.55444 0.42884 0.87336 0.0
H470 H 0.55235 0.37349 0.87723 0.0
H471 H 0.57028 0.34386 0.85558 0.0
H472 H 0.58532 0.20121 0.8423 0.0
H473 H 0.57528 0.24342 0.85693 0.0
C474 C 0.49895 0.92412 0.50198 0.0
C475 C 0.52974 0.95572 0.50458 0.0
C476 C 0.49841 0.8926 0.50336 0.0
C477 C 0.55455 0.85343 0.50247 0.0
H478 H 0.47795 0.77774 0.52562 0.0
C479 C 0.55446 0.72741 0.52053 0.0
C480 C 0.5228 0.69606 0.52037 0.0
C481 C 0.55559 0.75892 0.51763 0.0
C482 C 0.4993 0.79835 0.51888 0.0
H483 H 0.58427 0.97862 0.51052 0.0
H484 H 0.58327 0.9236 0.51292 0.0
H485 H 0.47944 0.83271 0.52261 0.0
H486 H 0.46768 0.67323 0.51623 0.0
H487 H 0.46964 0.72792 0.51088 0.0
H488 H 0.57435 0.81902 0.49866 0.0
C489 C 0.55955 0.92329 0.50973 0.0
C490 C 0.50019 0.82999 0.51719 0.0
C491 C 0.56006 0.95488 0.50845 0.0
C492 C 0.49245 0.69692 0.51669 0.0
C493 C 0.49358 0.72838 0.5137 0.0
C494 C 0.55359 0.82169 0.50408 0.0
C495 C 0.52867 0.89173 0.50728 0.0
C496 C 0.52783 0.85799 0.50899 0.0
C497 C 0.52509 0.75992 0.51441 0.0
C498 C 0.52595 0.79367 0.51233 0.0
H499 H 0.47506 0.9236 0.49894 0.0
H500 H 0.47427 0.86884 0.50119 0.0
H501 H 0.57601 0.87428 0.49588 0.0
H502 H 0.57828 0.72777 0.52355 0.0
H503 H 0.5803 0.78259 0.5185 0.0
C504 C 0.65811 0.517 0.83384 0.0
C505 C 0.65727 0.54742 0.83023 0.0
C506 C 0.68959 0.51734 0.83486 0.0
C507 C 0.78222 0.57536 0.84346 0.0
H508 H 0.79212 0.50017 0.82538 0.0
C509 C 0.91127 0.57434 0.84925 0.0
C510 C 0.90909 0.54241 0.85278 0.0
C511 C 0.88172 0.57596 0.84481 0.0
C512 C 0.78977 0.52122 0.83069 0.0
H513 H 0.68919 0.60204 0.82469 0.0
H514 H 0.74417 0.60263 0.82657 0.0
H515 H 0.73856 0.50102 0.82085 0.0
H516 H 0.87385 0.487 0.85365 0.0
H517 H 0.82251 0.48989 0.8465 0.0
H518 H 0.83294 0.59512 0.85372 0.0
C519 C 0.72036 0.57851 0.82864 0.0
C520 C 0.75901 0.52174 0.82803 0.0
C521 C 0.68879 0.5781 0.82744 0.0
C522 C 0.87662 0.51213 0.8513 0.0
C523 C 0.84709 0.51377 0.84695 0.0
C524 C 0.81289 0.57471 0.84624 0.0
C525 C 0.72117 0.54816 0.83247 0.0
C526 C 0.75469 0.54865 0.8345 0.0
C527 C 0.84906 0.54573 0.8438 0.0
C528 C 0.81705 0.54745 0.84004 0.0
H529 H 0.63441 0.49288 0.83609 0.0
H530 H 0.68921 0.49356 0.838 0.0
H531 H 0.77964 0.59627 0.8488 0.0
H532 H 0.93566 0.59828 0.85039 0.0
H533 H 0.88452 0.60104 0.84224 0.0
C534 C 0.1242 0.64015 0.17982 0.0
C535 C 0.12319 0.60941 0.17486 0.0
C536 C 0.15576 0.67123 0.18104 0.0
C537 C 0.24945 0.70588 0.18654 0.0
H538 H 0.25812 0.79071 0.16897 0.0
C539 C 0.38145 0.83255 0.18563 0.0
C540 C 0.38188 0.86356 0.18934 0.0
C541 C 0.35016 0.80191 0.18282 0.0
C542 C 0.25612 0.76739 0.17414 0.0
H543 H 0.15487 0.5874 0.16738 0.0
H544 H 0.20978 0.64146 0.16967 0.0
H545 H 0.20307 0.73678 0.16663 0.0
H546 H 0.34965 0.88664 0.19287 0.0
H547 H 0.29511 0.83325 0.18827 0.0
H548 H 0.30209 0.73635 0.19441 0.0
C549 C 0.18614 0.6415 0.17264 0.0
C550 C 0.2245 0.73642 0.17276 0.0
C551 C 0.15458 0.61051 0.17126 0.0
C552 C 0.35028 0.86332 0.1898 0.0
C553 C 0.31895 0.8326 0.18715 0.0
C554 C 0.28096 0.73687 0.18806 0.0
C555 C 0.18713 0.67228 0.1775 0.0
C556 C 0.22078 0.70528 0.17894 0.0
C557 C 0.31837 0.80132 0.18381 0.0
C558 C 0.28481 0.76813 0.18188 0.0
H559 H 0.10057 0.64032 0.18265 0.0
H560 H 0.15563 0.69439 0.18498 0.0
H561 H 0.24734 0.68245 0.19164 0.0
H562 H 0.40537 0.83195 0.18499 0.0
H563 H 0.35096 0.77862 0.17991 0.0
C564 C 0.49499 0.14699 0.49479 0.0
C565 C 0.52578 0.14615 0.49718 0.0
C566 C 0.49466 0.17818 0.49641 0.0
C567 C 0.5458 0.26496 0.51617 0.0
H568 H 0.48624 0.28755 0.49045 0.0
C569 C 0.52939 0.38018 0.53471 0.0
C570 C 0.52786 0.40115 0.52207 0.0
C571 C 0.52738 0.34868 0.53089 0.0
C572 C 0.50327 0.2818 0.49765 0.0
H573 H 0.58072 0.17787 0.50214 0.0
H574 H 0.58039 0.23191 0.50442 0.0
H575 H 0.48709 0.23423 0.48444 0.0
H576 H 0.52206 0.40487 0.49544 0.0
H577 H 0.51925 0.34995 0.48864 0.0
H578 H 0.56278 0.31267 0.52907 0.0
C579 C 0.55617 0.20848 0.50189 0.0
C580 C 0.50345 0.25097 0.49433 0.0
C581 C 0.55641 0.1774 0.50046 0.0
C582 C 0.5233 0.3893 0.50547 0.0
C583 C 0.52158 0.35775 0.5016 0.0
C584 C 0.54574 0.2957 0.51941 0.0
C585 C 0.52518 0.20927 0.50032 0.0
C586 C 0.52476 0.24213 0.50356 0.0
C587 C 0.5241 0.33723 0.51426 0.0
C588 C 0.52434 0.30454 0.51031 0.0
H589 H 0.4709 0.12337 0.49231 0.0
H590 H 0.47025 0.17763 0.49521 0.0
H591 H 0.56215 0.25896 0.52377 0.0
H592 H 0.53203 0.3881 0.54767 0.0
H593 H 0.5284 0.33327 0.54105 0.0
C594 C 0.46226 0.57664 0.8368 0.0
C595 C 0.46358 0.54641 0.84019 0.0
C596 C 0.43125 0.57713 0.83845 0.0
C597 C 0.34354 0.52876 0.85785 0.0
H598 H 0.32277 0.58331 0.82739 0.0
C599 C 0.21012 0.52108 0.85724 0.0
C600 C 0.2104 0.55272 0.85667 0.0
C601 C 0.24046 0.51982 0.85445 0.0
C602 C 0.32828 0.56812 0.83607 0.0
H603 H 0.43289 0.49279 0.84778 0.0
H604 H 0.37886 0.49338 0.85028 0.0
H605 H 0.37641 0.58196 0.82417 0.0
H606 H 0.24273 0.60767 0.85209 0.0
H607 H 0.2956 0.60545 0.84716 0.0
H608 H 0.29517 0.51468 0.86962 0.0
C609 C 0.40193 0.51705 0.84671 0.0
C610 C 0.35917 0.56743 0.83427 0.0
C611 C 0.433 0.51664 0.84519 0.0
C612 C 0.24162 0.5829 0.85274 0.0
C613 C 0.27189 0.58159 0.84979 0.0
C614 C 0.31256 0.52925 0.85955 0.0
C615 C 0.40055 0.54733 0.8434 0.0
C616 C 0.36736 0.54782 0.84518 0.0
C617 C 0.27184 0.5501 0.85086 0.0
C618 C 0.30454 0.54901 0.84873 0.0
H619 H 0.48529 0.60013 0.83298 0.0
H620 H 0.43153 0.60113 0.83604 0.0
H621 H 0.34906 0.51388 0.86671 0.0
H622 H 0.18666 0.49738 0.86039 0.0
H623 H 0.23938 0.49507 0.85519 0.0
C624 C 0.92949 0.38429 0.16255 0.0
C625 C 0.93057 0.41612 0.16456 0.0
C626 C 0.89802 0.353 0.16371 0.0
C627 C 0.80882 0.31771 0.18068 0.0
H628 H 0.789 0.23627 0.15486 0.0
C629 C 0.6739 0.196 0.18137 0.0
C630 C 0.67255 0.16418 0.18401 0.0
C631 C 0.70516 0.22583 0.17759 0.0
C632 C 0.79428 0.25877 0.16222 0.0
H633 H 0.8991 0.43997 0.16854 0.0
H634 H 0.84452 0.38592 0.16996 0.0
H635 H 0.84374 0.29009 0.15072 0.0
H636 H 0.70328 0.13887 0.18403 0.0
H637 H 0.75776 0.19094 0.17711 0.0
H638 H 0.75929 0.28658 0.19201 0.0
C639 C 0.86795 0.38481 0.16808 0.0
C640 C 0.82572 0.28964 0.1599 0.0
C641 C 0.89934 0.41595 0.16712 0.0
C642 C 0.70316 0.16276 0.18194 0.0
C643 C 0.73447 0.19266 0.17803 0.0
C644 C 0.77738 0.28706 0.18285 0.0
C645 C 0.86683 0.35281 0.16675 0.0
C646 C 0.83341 0.31964 0.16907 0.0
C647 C 0.73596 0.22471 0.17619 0.0
C648 C 0.76962 0.25721 0.17364 0.0
H649 H 0.95308 0.38347 0.16065 0.0
H650 H 0.89838 0.32899 0.16276 0.0
H651 H 0.814 0.33981 0.18833 0.0
H652 H 0.6508 0.19802 0.18245 0.0
H653 H 0.70527 0.24996 0.17592 0.0
C654 C 0.025 0.50182 0.11459 0.0
C655 C 0.03156 0.53263 0.1225 0.0
C656 C 0.02996 0.50118 0.09736 0.0
C657 C 0.0749 0.55735 0.06133 0.0
H658 H 1.00085 0.48515 0.03516 0.0
C659 C 0.06736 0.56787 0.98994 0.0
C660 C 0.05479 0.53766 0.98026 0.0
C661 C 0.06619 0.56608 0.00736 0.0
C662 C 0.02207 0.5052 0.04226 0.0
H663 H 0.04937 0.58706 0.11879 0.0
H664 H 0.05823 0.58603 0.0888 0.0
H665 H 0.99672 0.48382 0.06552 0.0
H666 H 0.03181 0.48193 0.98129 0.0
H667 H 0.03019 0.47878 0.0117 0.0
H668 H 0.10033 0.57879 0.03815 0.0
C669 C 0.04929 0.56238 0.09585 0.0
C670 C 0.01965 0.50443 0.05968 0.0
C671 C 0.04402 0.56293 0.113 0.0
C672 C 0.04127 0.50563 0.98841 0.0
C673 C 0.0403 0.50384 0.00584 0.0
C674 C 0.07745 0.558 0.04393 0.0
C675 C 0.04197 0.53144 0.08779 0.0
C676 C 0.04581 0.53076 0.06939 0.0
C677 C 0.05264 0.53405 0.01556 0.0
C678 C 0.05084 0.53222 0.03414 0.0
H679 H 0.0155 0.47812 0.12165 0.0
H680 H 0.0244 0.47704 0.09151 0.0
H681 H 0.09571 0.57774 0.06849 0.0
H682 H 0.07749 0.5929 0.98404 0.0
H683 H 0.0753 0.58983 0.01439 0.0
C684 C 0.57786 0.08408 0.44247 0.0
C685 C 0.55036 0.06596 0.4536 0.0
C686 C 0.57264 0.07928 0.42529 0.0
C687 C 0.50504 0.0439 0.39225 0.0
H688 H 0.57945 0.04528 0.36663 0.0
C689 C 0.49577 0.00748 0.32169 0.0
C690 C 0.52361 0.03128 0.31186 0.0
C691 C 0.49705 0.0107 0.3391 0.0
C692 C 0.55853 0.04499 0.37361 0.0
H693 H 0.49565 0.02945 0.45552 0.0
H694 H 0.48645 0.0199 0.42542 0.0
H695 H 0.58487 0.05225 0.39678 0.0
H696 H 0.57464 0.07684 0.3125 0.0
H697 H 0.57706 0.0822 0.34287 0.0
H698 H 0.47854 0.03584 0.36886 0.0
C699 C 0.51204 0.0383 0.42995 0.0
C700 C 0.56166 0.04917 0.3909 0.0
C701 C 0.51726 0.04352 0.44721 0.0
C702 C 0.55271 0.05829 0.31975 0.0
C703 C 0.55419 0.06121 0.33712 0.0
C704 C 0.50175 0.03926 0.37491 0.0
C705 C 0.53985 0.05577 0.41878 0.0
C706 C 0.53526 0.04932 0.40044 0.0
C707 C 0.52644 0.03742 0.34697 0.0
C708 C 0.52873 0.04032 0.36542 0.0
H709 H 0.60362 0.10191 0.44704 0.0
H710 H 0.59449 0.094 0.41712 0.0
H711 H 0.4843 0.04411 0.39914 0.0
H712 H 0.47294 0.98653 0.3159 0.0
H713 H 0.47537 0.99194 0.34642 0.0
C714 C 0.57167 0.55593 0.77933 0.0
C715 C 0.54073 0.53241 0.78731 0.0
C716 C 0.5723 0.5609 0.76204 0.0
C717 C 0.52233 0.51676 0.72393 0.0
H718 H 0.57849 0.60618 0.70306 0.0
C719 C 0.5085 0.53902 0.65437 0.0
C720 C 0.53919 0.55732 0.64514 0.0
C721 C 0.50949 0.5376 0.67176 0.0
C722 C 0.56289 0.581 0.70873 0.0
H723 H 0.48596 0.497 0.78374 0.0
H724 H 0.48678 0.50624 0.7538 0.0
H725 H 0.57867 0.60123 0.73346 0.0
H726 H 0.59495 0.58925 0.64698 0.0
H727 H 0.59668 0.58671 0.67744 0.0
H728 H 0.50628 0.49659 0.69927 0.0
C729 C 0.51082 0.52009 0.76067 0.0
C730 C 0.56303 0.57814 0.72613 0.0
C731 C 0.51028 0.51496 0.77786 0.0
C732 C 0.57089 0.57469 0.65374 0.0
C733 C 0.57186 0.5735 0.67117 0.0
C734 C 0.52201 0.51968 0.7066 0.0
C735 C 0.54193 0.5426 0.75246 0.0
C736 C 0.54256 0.54599 0.73395 0.0
C737 C 0.54119 0.55462 0.68035 0.0
C738 C 0.54212 0.55182 0.6988 0.0
H739 H 0.59551 0.56977 0.78637 0.0
H740 H 0.59675 0.5783 0.75613 0.0
H741 H 0.50691 0.49142 0.72945 0.0
H742 H 0.4837 0.52514 0.64812 0.0
H743 H 0.48539 0.52314 0.6785 0.0
C744 C 0.54587 0.05632 0.55208 0.0
C745 C 0.51817 0.05929 0.54574 0.0
C746 C 0.55649 0.06531 0.56861 0.0
C747 C 0.5539 0.1148 0.60473 0.0
H748 H 0.56101 0.0452 0.63048 0.0
C749 C 0.55869 0.1155 0.67702 0.0
C750 C 0.57672 0.10109 0.68475 0.0
C751 C 0.55571 0.11488 0.65962 0.0
C752 C 0.55992 0.06533 0.62346 0.0
H753 H 0.48054 0.07497 0.5514 0.0
H754 H 0.49925 0.09088 0.58039 0.0
H755 H 0.54846 0.03616 0.60082 0.0
H756 H 0.60768 0.07689 0.68064 0.0
H757 H 0.60395 0.07715 0.65029 0.0
H758 H 0.56555 0.14411 0.62739 0.0
C759 C 0.51273 0.08165 0.57256 0.0
C760 C 0.55255 0.06001 0.60645 0.0
C761 C 0.50189 0.07233 0.55604 0.0
C762 C 0.5934 0.08788 0.67488 0.0
C763 C 0.59094 0.08777 0.65753 0.0
C764 C 0.56171 0.12036 0.62177 0.0
C765 C 0.53978 0.0777 0.57906 0.0
C766 C 0.54923 0.08453 0.59694 0.0
C767 C 0.57111 0.10019 0.64968 0.0
C768 C 0.56461 0.09557 0.63138 0.0
H769 H 0.55893 0.04643 0.54436 0.0
H770 H 0.57762 0.06232 0.57328 0.0
H771 H 0.5517 0.13422 0.59763 0.0
H772 H 0.54544 0.12559 0.68447 0.0
H773 H 0.53999 0.1244 0.65406 0.0
C774 C 0.54744 0.53395 0.8872 0.0
C775 C 0.57893 0.55753 0.87969 0.0
C776 C 0.54635 0.52596 0.90412 0.0
C777 C 0.59758 0.52503 0.93943 0.0
H778 H 0.53482 0.54097 0.96652 0.0
C779 C 0.56796 0.49113 0.01019 0.0
C780 C 0.57114 0.51863 0.02013 0.0
C781 C 0.57025 0.49414 0.99279 0.0
C782 C 0.55236 0.53633 0.95908 0.0
H783 H 0.6341 0.5901 0.88358 0.0
H784 H 0.63224 0.57561 0.91316 0.0
H785 H 0.53525 0.54767 0.93623 0.0
H786 H 0.58135 0.57159 0.01951 0.0
H787 H 0.58393 0.57613 0.98921 0.0
H788 H 0.61456 0.51359 0.9624 0.0
C789 C 0.60846 0.56357 0.906 0.0
C790 C 0.55244 0.53992 0.94179 0.0
C791 C 0.60948 0.57201 0.88915 0.0
C792 C 0.57779 0.54953 0.01227 0.0
C793 C 0.57948 0.55227 0.99494 0.0
C794 C 0.59703 0.52079 0.95674 0.0
C795 C 0.57681 0.54094 0.91368 0.0
C796 C 0.57533 0.53472 0.93184 0.0
C797 C 0.57526 0.52447 0.98505 0.0
C798 C 0.57476 0.52692 0.9667 0.0
H799 H 0.52355 0.52233 0.88013 0.0
H800 H 0.52167 0.5083 0.90977 0.0
H801 H 0.61538 0.52081 0.93197 0.0
H802 H 0.56251 0.46686 0.01577 0.0
H803 H 0.56683 0.47234 0.98536 0.0
C804 C 0.01992 0.52063 0.2219 0.0
C805 C 0.02127 0.49255 0.21478 0.0
C806 C 0.01269 0.52055 0.23891 0.0
C807 C 0.02062 0.48512 0.27847 0.0
H808 H 0.95156 0.50609 0.29508 0.0
C809 C 0.98584 0.46979 0.34786 0.0
C810 C 0.98059 0.49519 0.35537 0.0
C811 C 0.98757 0.46806 0.33053 0.0
C812 C 0.97123 0.50058 0.29067 0.0
H813 H 0.01584 0.44233 0.21968 0.0
H814 H 1.00392 0.44253 0.24938 0.0
H815 H 0.96179 0.50714 0.26503 0.0
H816 H 0.97214 0.53817 0.35078 0.0
H817 H 0.97616 0.53593 0.32044 0.0
H818 H 0.03105 0.47954 0.30389 0.0
C819 C 0.00835 0.46451 0.24186 0.0
C820 C 0.97699 0.50112 0.27347 0.0
C821 C 0.01509 0.46437 0.22487 0.0
C822 C 0.97593 0.51815 0.34524 0.0
C823 C 0.97817 0.51678 0.32786 0.0
C824 C 0.01521 0.485 0.29561 0.0
C825 C 0.00726 0.49264 0.24906 0.0
C826 C 1.00154 0.49311 0.26723 0.0
C827 C 0.98472 0.49212 0.32031 0.0
C828 C 0.99023 0.49241 0.30196 0.0
H829 H 0.02473 0.54273 0.21439 0.0
H830 H 0.01221 0.54265 0.2442 0.0
H831 H 0.04011 0.47939 0.27399 0.0
H832 H 0.98913 0.45156 0.35544 0.0
H833 H 0.99166 0.44811 0.32516 0.0
loop_
_geom_bond_atom_site_label_1
_geom_bond_atom_site_label_2
_geom_bond_distance
_geom_bond_site_symmetry_2
_ccdc_geom_bond_type
Dy0 O4 2.398 . S
Dy0 O5 2.491 . S
Dy0 O6 2.403 . S
Dy0 O7 2.664 . S
Dy0 O11 2.326 . S
Dy0 O15 2.310 . S
Dy0 O16 2.351 . S
C1 O12 1.185 . S
C1 O13 1.355 . S
C2 O4 1.185 . S
C2 O5 1.355 . S
Dy3 O7 2.310 . S
Dy3 O10 2.351 . S
Dy3 O12 2.398 1_455 S
Dy3 O13 2.491 1_455 S
Dy3 O14 2.403 . S
Dy3 O15 2.664 . S
Dy3 O17 2.326 1_455 S
O4 Dy0 2.398 . S
O4 C2 1.185 . S
O5 Dy0 2.491 . S
O5 C2 1.355 . S
O6 Dy0 2.403 . S
O6 C8 1.254 . S
O7 Dy0 2.664 . S
O7 Dy3 2.310 . S
O7 C8 1.268 . S
C8 O6 1.254 . S
C8 O7 1.268 . S
C9 O14 1.254 . S
C9 O15 1.268 . S
O10 Dy3 2.351 . S
O10 C18 1.249 . S
O11 Dy0 2.326 . S
O11 C18 1.267 . S
O12 C1 1.185 . S
O12 Dy3 2.398 1_655 S
O13 C1 1.355 . S
O13 Dy3 2.491 1_655 S
O14 Dy3 2.403 . S
O14 C9 1.254 . S
O15 Dy0 2.310 . S
O15 Dy3 2.664 . S
O15 C9 1.268 . S
O16 Dy0 2.351 . S
O16 C19 1.249 1_455 S
O17 Dy3 2.326 1_655 S
O17 C19 1.267 . S
C18 O10 1.249 . S
C18 O11 1.267 . S
C19 O16 1.249 1_655 S
C19 O17 1.267 . S
Dy20 O24 2.398 1_545 S
Dy20 O25 2.491 1_545 S
Dy20 O26 2.403 . S
Dy20 O27 2.664 . S
Dy20 O31 2.326 1_545 S
Dy20 O35 2.310 . S
Dy20 O36 2.351 . S
C21 O32 1.185 . S
C21 O33 1.355 . S
C22 O24 1.185 . S
C22 O25 1.355 . S
Dy23 O27 2.310 . S
Dy23 O30 2.351 . S
Dy23 O32 2.398 . S
Dy23 O33 2.491 . S
Dy23 O34 2.403 . S
Dy23 O35 2.664 . S
Dy23 O37 2.326 . S
O24 Dy20 2.398 1_565 S
O24 C22 1.185 . S
O25 Dy20 2.491 1_565 S
O25 C22 1.355 . S
O26 Dy20 2.403 . S
O26 C28 1.254 . S
O27 Dy20 2.664 . S
O27 Dy23 2.310 . S
O27 C28 1.268 . S
C28 O26 1.254 . S
C28 O27 1.268 . S
C29 O34 1.254 . S
C29 O35 1.268 . S
O30 Dy23 2.351 . S
O30 C38 1.249 1_545 S
O31 Dy20 2.326 1_565 S
O31 C38 1.267 . S
O32 C21 1.185 . S
O32 Dy23 2.398 . S
O33 C21 1.355 . S
O33 Dy23 2.491 . S
O34 Dy23 2.403 . S
O34 C29 1.254 . S
O35 Dy20 2.310 . S
O35 Dy23 2.664 . S
O35 C29 1.268 . S
O36 Dy20 2.351 . S
O36 C39 1.249 . S
O37 Dy23 2.326 . S
O37 C39 1.267 . S
C38 O30 1.249 1_565 S
C38 O31 1.267 . S
C39 O36 1.249 . S
C39 O37 1.267 . S
Dy40 O44 2.398 . S
Dy40 O45 2.491 . S
Dy40 O46 2.403 . S
Dy40 O47 2.664 . S
Dy40 O51 2.326 . S
Dy40 O55 2.310 . S
Dy40 O56 2.351 . S
C41 O52 1.185 . S
C41 O53 1.355 . S
C42 O44 1.185 . S
C42 O45 1.355 . S
Dy43 O47 2.310 . S
Dy43 O50 2.351 . S
Dy43 O52 2.398 . S
Dy43 O53 2.491 . S
Dy43 O54 2.403 . S
Dy43 O55 2.664 . S
Dy43 O57 2.326 . S
O44 Dy40 2.398 . S
O44 C42 1.185 . S
O45 Dy40 2.491 . S
O45 C42 1.355 . S
O46 Dy40 2.403 . S
O46 C48 1.254 . S
O47 Dy40 2.664 . S
O47 Dy43 2.310 . S
O47 C48 1.268 . S
C48 O46 1.254 . S
C48 O47 1.268 . S
C49 O54 1.254 . S
C49 O55 1.268 . S
O50 Dy43 2.351 . S
O50 C58 1.249 . S
O51 Dy40 2.326 . S
O51 C58 1.267 . S
O52 C41 1.185 . S
O52 Dy43 2.398 . S
O53 C41 1.355 . S
O53 Dy43 2.491 . S
O54 Dy43 2.403 . S
O54 C49 1.254 . S
O55 Dy40 2.310 . S
O55 Dy43 2.664 . S
O55 C49 1.268 . S
O56 Dy40 2.351 . S
O56 C59 1.249 . S
O57 Dy43 2.326 . S
O57 C59 1.267 . S
C58 O50 1.249 . S
C58 O51 1.267 . S
C59 O56 1.249 . S
C59 O57 1.267 . S
C60 C61 1.386 . S
C60 C62 1.397 . S
C60 H84 0.931 . S
C61 C60 1.386 . S
C61 C65 1.397 1_545 S
C62 C60 1.397 . S
C62 C63 1.384 . S
C62 H85 0.930 . S
C63 C62 1.384 . S
C63 C64 1.377 1_545 S
C63 C66 1.481 . S
C64 C63 1.377 1_565 S
C64 C65 1.389 . S
C64 H86 0.929 . S
C65 C61 1.397 1_565 S
C65 C64 1.389 . S
C65 H87 0.931 . S
C66 C63 1.481 . S
C66 C67 1.387 . S
C66 C71 1.390 1_545 S
C67 C66 1.387 . S
C67 C68 1.401 . S
C67 H88 0.930 . S
C68 C67 1.401 . S
C68 C69 1.376 . S
C68 C77 1.511 . S
C69 C68 1.376 . S
C69 C70 1.392 1_545 S
C69 H90 0.931 . S
C70 C69 1.392 1_565 S
C70 C71 1.361 . S
C70 C72 1.500 . S
C71 C66 1.390 1_565 S
C71 C70 1.361 . S
C71 H89 0.931 . S
C72 C70 1.500 . S
C72 C73 1.371 . S
C72 C74 1.365 . S
C73 C72 1.371 . S
C73 C83 1.386 . S
C73 H91 0.931 . S
C74 C72 1.365 . S
C74 C75 1.409 . S
C74 H92 0.929 . S
C75 C74 1.409 . S
C75 C76 1.380 . S
C75 H93 0.930 . S
C76 C75 1.380 . S
C76 C83 1.357 . S
C77 C68 1.511 . S
C77 C78 1.341 . S
C77 C79 1.371 . S
C78 C77 1.341 . S
C78 C82 1.394 . S
C78 H94 0.930 . S
C79 C77 1.371 . S
C79 C80 1.392 . S
C79 H95 0.931 . S
C80 C79 1.392 . S
C80 C81 1.331 . S
C80 H98 0.932 . S
C81 C80 1.331 . S
C81 C82 1.336 . S
C82 C78 1.394 . S
C82 C81 1.336 . S
C82 H97 0.929 . S
C83 C73 1.386 . S
C83 C76 1.357 . S
C83 H96 0.928 . S
H84 C60 0.931 . S
H85 C62 0.930 . S
H86 C64 0.929 . S
H87 C65 0.931 . S
H88 C67 0.930 . S
H89 C71 0.931 . S
H90 C69 0.931 . S
H91 C73 0.931 . S
H92 C74 0.929 . S
H93 C75 0.930 . S
H94 C78 0.930 . S
H95 C79 0.931 . S
H96 C83 0.928 . S
H97 C82 0.929 . S
H98 C80 0.932 . S
C99 C100 1.386 . S
C99 C101 1.397 . S
C99 H123 0.931 . S
C100 C99 1.386 . S
C100 C104 1.397 . S
C101 C99 1.397 . S
C101 C102 1.384 . S
C101 H124 0.930 . S
C102 C101 1.384 . S
C102 C103 1.377 . S
C102 C105 1.481 . S
C103 C102 1.377 . S
C103 C104 1.389 . S
C103 H125 0.929 . S
C104 C100 1.397 . S
C104 C103 1.389 . S
C104 H126 0.931 . S
C105 C102 1.481 . S
C105 C106 1.387 . S
C105 C110 1.390 . S
C106 C105 1.387 . S
C106 C107 1.401 . S
C106 H127 0.930 . S
C107 C106 1.401 . S
C107 C108 1.376 . S
C107 C116 1.511 . S
C108 C107 1.376 . S
C108 C109 1.392 . S
C108 H129 0.931 . S
C109 C108 1.392 . S
C109 C110 1.361 . S
C109 C111 1.500 . S
C110 C105 1.390 . S
C110 C109 1.361 . S
C110 H128 0.931 . S
C111 C109 1.500 . S
C111 C112 1.371 . S
C111 C113 1.365 . S
C112 C111 1.371 . S
C112 C122 1.386 . S
C112 H130 0.931 . S
C113 C111 1.365 . S
C113 C114 1.409 . S
C113 H131 0.929 . S
C114 C113 1.409 . S
C114 C115 1.380 . S
C114 H132 0.930 . S
C115 C114 1.380 . S
C115 C122 1.357 . S
C116 C107 1.511 . S
C116 C117 1.341 . S
C116 C118 1.371 . S
C117 C116 1.341 . S
C117 C121 1.394 . S
C117 H133 0.930 . S
C118 C116 1.371 . S
C118 C119 1.392 . S
C118 H134 0.931 . S
C119 C118 1.392 . S
C119 C120 1.331 . S
C119 H137 0.932 . S
C120 C119 1.331 . S
C120 C121 1.336 . S
C121 C117 1.394 . S
C121 C120 1.336 . S
C121 H136 0.929 . S
C122 C112 1.386 . S
C122 C115 1.357 . S
C122 H135 0.928 . S
H123 C99 0.931 . S
H124 C101 0.930 . S
H125 C103 0.929 . S
H126 C104 0.931 . S
H127 C106 0.930 . S
H128 C110 0.931 . S
H129 C108 0.931 . S
H130 C112 0.931 . S
H131 C113 0.929 . S
H132 C114 0.930 . S
H133 C117 0.930 . S
H134 C118 0.931 . S
H135 C122 0.928 . S
H136 C121 0.929 . S
H137 C119 0.932 . S
C138 C139 1.386 . S
C138 C140 1.397 . S
C138 H162 0.931 . S
C139 C138 1.386 . S
C139 C143 1.397 . S
C140 C138 1.397 . S
C140 C141 1.384 . S
C140 H163 0.930 . S
C141 C140 1.384 . S
C141 C142 1.377 . S
C141 C144 1.481 . S
C142 C141 1.377 . S
C142 C143 1.389 . S
C142 H164 0.929 . S
C143 C139 1.397 . S
C143 C142 1.389 . S
C143 H165 0.931 . S
C144 C141 1.481 . S
C144 C145 1.387 . S
C144 C149 1.390 . S
C145 C144 1.387 . S
C145 C146 1.401 . S
C145 H166 0.930 . S
C146 C145 1.401 . S
C146 C147 1.376 . S
C146 C155 1.511 . S
C147 C146 1.376 . S
C147 C148 1.392 . S
C147 H168 0.931 . S
C148 C147 1.392 . S
C148 C149 1.361 . S
C148 C150 1.500 . S
C149 C144 1.390 . S
C149 C148 1.361 . S
C149 H167 0.931 . S
C150 C148 1.500 . S
C150 C151 1.371 . S
C150 C152 1.365 1_455 S
C151 C150 1.371 . S
C151 C161 1.386 1_455 S
C151 H169 0.931 . S
C152 C150 1.365 1_655 S
C152 C153 1.409 . S
C152 H170 0.929 . S
C153 C152 1.409 . S
C153 C154 1.380 . S
C153 H171 0.930 . S
C154 C153 1.380 . S
C154 C161 1.357 . S
C155 C146 1.511 . S
C155 C156 1.341 . S
C155 C157 1.371 . S
C156 C155 1.341 . S
C156 C160 1.394 . S
C156 H172 0.930 . S
C157 C155 1.371 . S
C157 C158 1.392 . S
C157 H173 0.931 . S
C158 C157 1.392 . S
C158 C159 1.331 . S
C158 H176 0.932 . S
C159 C158 1.331 . S
C159 C160 1.336 . S
C160 C156 1.394 . S
C160 C159 1.336 . S
C160 H175 0.929 . S
C161 C151 1.386 1_655 S
C161 C154 1.357 . S
C161 H174 0.928 . S
H162 C138 0.931 . S
H163 C140 0.930 . S
H164 C142 0.929 . S
H165 C143 0.931 . S
H166 C145 0.930 . S
H167 C149 0.931 . S
H168 C147 0.931 . S
H169 C151 0.931 . S
H170 C152 0.929 . S
H171 C153 0.930 . S
H172 C156 0.930 . S
H173 C157 0.931 . S
H174 C161 0.928 . S
H175 C160 0.929 . S
H176 C158 0.932 . S
C177 C178 1.386 1_655 S
C177 C179 1.397 . S
C177 H201 0.931 . S
C178 C177 1.386 1_455 S
C178 C182 1.397 . S
C179 C177 1.397 . S
C179 C180 1.384 1_655 S
C179 H202 0.930 . S
C180 C179 1.384 1_455 S
C180 C181 1.377 . S
C180 C183 1.481 . S
C181 C180 1.377 . S
C181 C182 1.389 . S
C181 H203 0.929 . S
C182 C178 1.397 . S
C182 C181 1.389 . S
C182 H204 0.931 . S
C183 C180 1.481 . S
C183 C184 1.387 1_455 S
C183 C188 1.390 . S
C184 C183 1.387 1_655 S
C184 C185 1.401 . S
C184 H205 0.930 . S
C185 C184 1.401 . S
C185 C186 1.376 1_655 S
C185 C194 1.511 . S
C186 C185 1.376 1_455 S
C186 C187 1.392 . S
C186 H207 0.931 . S
C187 C186 1.392 . S
C187 C188 1.361 . S
C187 C189 1.500 . S
C188 C183 1.390 . S
C188 C187 1.361 . S
C188 H206 0.931 . S
C189 C187 1.500 . S
C189 C190 1.371 . S
C189 C191 1.365 . S
C190 C189 1.371 . S
C190 C200 1.386 . S
C190 H208 0.931 . S
C191 C189 1.365 . S
C191 C192 1.409 . S
C191 H209 0.929 . S
C192 C191 1.409 . S
C192 C193 1.380 . S
C192 H210 0.930 . S
C193 C192 1.380 . S
C193 C200 1.357 . S
C194 C185 1.511 . S
C194 C195 1.341 . S
C194 C196 1.371 . S
C195 C194 1.341 . S
C195 C199 1.394 . S
C195 H211 0.930 . S
C196 C194 1.371 . S
C196 C197 1.392 . S
C196 H212 0.931 . S
C197 C196 1.392 . S
C197 C198 1.331 . S
C197 H215 0.932 . S
C198 C197 1.331 . S
C198 C199 1.336 . S
C199 C195 1.394 . S
C199 C198 1.336 . S
C199 H214 0.929 . S
C200 C190 1.386 . S
C200 C193 1.357 . S
C200 H213 0.928 . S
H201 C177 0.931 . S
H202 C179 0.930 . S
H203 C181 0.929 . S
H204 C182 0.931 . S
H205 C184 0.930 . S
H206 C188 0.931 . S
H207 C186 0.931 . S
H208 C190 0.931 . S
H209 C191 0.929 . S
H210 C192 0.930 . S
H211 C195 0.930 . S
H212 C196 0.931 . S
H213 C200 0.928 . S
H214 C199 0.929 . S
H215 C197 0.932 . S
C216 C217 1.386 . S
C216 C218 1.397 . S
C216 H240 0.931 . S
C217 C216 1.386 . S
C217 C221 1.397 . S
C218 C216 1.397 . S
C218 C219 1.384 . S
C218 H241 0.930 . S
C219 C218 1.384 . S
C219 C220 1.377 . S
C219 C222 1.481 . S
C220 C219 1.377 . S
C220 C221 1.389 . S
C220 H242 0.929 . S
C221 C217 1.397 . S
C221 C220 1.389 . S
C221 H243 0.931 . S
C222 C219 1.481 . S
C222 C223 1.387 . S
C222 C227 1.390 . S
C223 C222 1.387 . S
C223 C224 1.401 . S
C223 H244 0.930 . S
C224 C223 1.401 . S
C224 C225 1.376 . S
C224 C233 1.511 . S
C225 C224 1.376 . S
C225 C226 1.392 . S
C225 H246 0.931 . S
C226 C225 1.392 . S
C226 C227 1.361 . S
C226 C228 1.500 . S
C227 C222 1.390 . S
C227 C226 1.361 . S
C227 H245 0.931 . S
C228 C226 1.500 . S
C228 C229 1.371 . S
C228 C230 1.365 . S
C229 C228 1.371 . S
C229 C239 1.386 . S
C229 H247 0.931 . S
C230 C228 1.365 . S
C230 C231 1.409 . S
C230 H248 0.929 . S
C231 C230 1.409 . S
C231 C232 1.380 . S
C231 H249 0.930 . S
C232 C231 1.380 . S
C232 C239 1.357 . S
C233 C224 1.511 . S
C233 C234 1.341 1_545 S
C233 C235 1.371 . S
C234 C233 1.341 1_565 S
C234 C238 1.394 . S
C234 H250 0.930 . S
C235 C233 1.371 . S
C235 C236 1.392 1_545 S
C235 H251 0.931 . S
C236 C235 1.392 1_565 S
C236 C237 1.331 . S
C236 H254 0.932 . S
C237 C236 1.331 . S
C237 C238 1.336 . S
C238 C234 1.394 . S
C238 C237 1.336 . S
C238 H253 0.929 . S
C239 C229 1.386 . S
C239 C232 1.357 . S
C239 H252 0.928 . S
H240 C216 0.931 . S
H241 C218 0.930 . S
H242 C220 0.929 . S
H243 C221 0.931 . S
H244 C223 0.930 . S
H245 C227 0.931 . S
H246 C225 0.931 . S
H247 C229 0.931 . S
H248 C230 0.929 . S
H249 C231 0.930 . S
H250 C234 0.930 . S
H251 C235 0.931 . S
H252 C239 0.928 . S
H253 C238 0.929 . S
H254 C236 0.932 . S
C255 C256 1.386 . S
C255 C257 1.397 . S
C255 H279 0.931 . S
C256 C255 1.386 . S
C256 C260 1.397 . S
C257 C255 1.397 . S
C257 C258 1.384 . S
C257 H280 0.930 . S
C258 C257 1.384 . S
C258 C259 1.377 . S
C258 C261 1.481 . S
C259 C258 1.377 . S
C259 C260 1.389 . S
C259 H281 0.929 . S
C260 C256 1.397 . S
C260 C259 1.389 . S
C260 H282 0.931 . S
C261 C258 1.481 . S
C261 C262 1.387 . S
C261 C266 1.390 . S
C262 C261 1.387 . S
C262 C263 1.401 . S
C262 H283 0.930 . S
C263 C262 1.401 . S
C263 C264 1.376 . S
C263 C272 1.511 . S
C264 C263 1.376 . S
C264 C265 1.392 . S
C264 H285 0.931 . S
C265 C264 1.392 . S
C265 C266 1.361 . S
C265 C267 1.500 . S
C266 C261 1.390 . S
C266 C265 1.361 . S
C266 H284 0.931 . S
C267 C265 1.500 . S
C267 C268 1.371 . S
C267 C269 1.365 . S
C268 C267 1.371 . S
C268 C278 1.386 . S
C268 H286 0.931 . S
C269 C267 1.365 . S
C269 C270 1.409 . S
C269 H287 0.929 . S
C270 C269 1.409 . S
C270 C271 1.380 . S
C270 H288 0.930 . S
C271 C270 1.380 . S
C271 C278 1.357 . S
C272 C263 1.511 . S
C272 C273 1.341 . S
C272 C274 1.371 . S
C273 C272 1.341 . S
C273 C277 1.394 . S
C273 H289 0.930 . S
C274 C272 1.371 . S
C274 C275 1.392 . S
C274 H290 0.931 . S
C275 C274 1.392 . S
C275 C276 1.331 . S
C275 H293 0.932 . S
C276 C275 1.331 . S
C276 C277 1.336 . S
C277 C273 1.394 . S
C277 C276 1.336 . S
C277 H292 0.929 . S
C278 C268 1.386 . S
C278 C271 1.357 . S
C278 H291 0.928 . S
H279 C255 0.931 . S
H280 C257 0.930 . S
H281 C259 0.929 . S
H282 C260 0.931 . S
H283 C262 0.930 . S
H284 C266 0.931 . S
H285 C264 0.931 . S
H286 C268 0.931 . S
H287 C269 0.929 . S
H288 C270 0.930 . S
H289 C273 0.930 . S
H290 C274 0.931 . S
H291 C278 0.928 . S
H292 C277 0.929 . S
H293 C275 0.932 . S
C294 C295 1.349 . S
C294 C296 1.327 . S
C294 H319 0.950 . S
C295 C294 1.349 . S
C295 C311 1.349 . S
C296 C294 1.327 . S
C296 C315 1.429 . S
C296 H320 0.950 . S
C297 C314 1.574 . S
C297 C316 1.368 . S
C297 H321 0.949 . S
H298 C302 0.949 . S
C299 C300 1.349 . S
C299 C301 1.327 . S
C299 H322 0.950 . S
C300 C299 1.349 . S
C300 C312 1.349 . S
C301 C299 1.327 . S
C301 C317 1.429 . S
C301 H323 0.950 . S
C302 H298 0.949 . S
C302 C310 1.574 . S
C302 C318 1.368 . S
H303 C311 0.950 . S
H304 C309 0.950 . S
H305 C310 0.949 . S
H306 C312 0.950 . S
H307 C313 0.950 . S
H308 C314 0.949 . S
C309 H304 0.950 . S
C309 C311 1.327 . S
C309 C315 1.429 . S
C310 C302 1.574 . S
C310 H305 0.949 . S
C310 C316 1.368 . S
C311 C295 1.349 . S
C311 H303 0.950 . S
C311 C309 1.327 . S
C312 C300 1.349 . S
C312 H306 0.950 . S
C312 C313 1.327 . S
C313 H307 0.950 . S
C313 C312 1.327 . S
C313 C317 1.429 . S
C314 C297 1.574 . S
C314 H308 0.949 . S
C314 C318 1.368 . S
C315 C296 1.429 . S
C315 C309 1.429 . S
C315 C316 1.523 . S
C316 C297 1.368 . S
C316 C310 1.368 . S
C316 C315 1.523 . S
C317 C301 1.429 . S
C317 C313 1.429 . S
C317 C318 1.523 . S
C318 C302 1.368 . S
C318 C314 1.368 . S
C318 C317 1.523 . S
H319 C294 0.950 . S
H320 C296 0.950 . S
H321 C297 0.949 . S
H322 C299 0.950 . S
H323 C301 0.950 . S
C324 C325 1.349 . S
C324 C326 1.327 . S
C324 H349 0.950 . S
C325 C324 1.349 . S
C325 C341 1.349 . S
C326 C324 1.327 . S
C326 C345 1.429 . S
C326 H350 0.950 . S
C327 C344 1.574 . S
C327 C346 1.368 . S
C327 H351 0.949 . S
H328 C332 0.949 . S
C329 C330 1.349 . S
C329 C331 1.327 . S
C329 H352 0.950 . S
C330 C329 1.349 . S
C330 C342 1.349 . S
C331 C329 1.327 . S
C331 C347 1.429 . S
C331 H353 0.950 . S
C332 H328 0.949 . S
C332 C340 1.574 . S
C332 C348 1.368 . S
H333 C341 0.950 . S
H334 C339 0.950 . S
H335 C340 0.949 . S
H336 C342 0.950 . S
H337 C343 0.950 . S
H338 C344 0.949 . S
C339 H334 0.950 . S
C339 C341 1.327 . S
C339 C345 1.429 . S
C340 C332 1.574 . S
C340 H335 0.949 . S
C340 C346 1.368 . S
C341 C325 1.349 . S
C341 H333 0.950 . S
C341 C339 1.327 . S
C342 C330 1.349 . S
C342 H336 0.950 . S
C342 C343 1.327 . S
C343 H337 0.950 . S
C343 C342 1.327 . S
C343 C347 1.429 . S
C344 C327 1.574 . S
C344 H338 0.949 . S
C344 C348 1.368 . S
C345 C326 1.429 . S
C345 C339 1.429 . S
C345 C346 1.523 . S
C346 C327 1.368 . S
C346 C340 1.368 . S
C346 C345 1.523 . S
C347 C331 1.429 . S
C347 C343 1.429 . S
C347 C348 1.523 . S
C348 C332 1.368 . S
C348 C344 1.368 . S
C348 C347 1.523 . S
H349 C324 0.950 . S
H350 C326 0.950 . S
H351 C327 0.949 . S
H352 C329 0.950 . S
H353 C331 0.950 . S
C354 C355 1.349 . S
C354 C356 1.327 . S
C354 H379 0.950 . S
C355 C354 1.349 . S
C355 C371 1.349 . S
C356 C354 1.327 . S
C356 C375 1.429 . S
C356 H380 0.950 . S
C357 C374 1.574 . S
C357 C376 1.368 . S
C357 H381 0.949 . S
H358 C362 0.949 . S
C359 C360 1.349 . S
C359 C361 1.327 . S
C359 H382 0.950 . S
C360 C359 1.349 . S
C360 C372 1.349 . S
C361 C359 1.327 . S
C361 C377 1.429 . S
C361 H383 0.950 . S
C362 H358 0.949 . S
C362 C370 1.574 . S
C362 C378 1.368 . S
H363 C371 0.950 . S
H364 C369 0.950 . S
H365 C370 0.949 . S
H366 C372 0.950 . S
H367 C373 0.950 . S
H368 C374 0.949 . S
C369 H364 0.950 . S
C369 C371 1.327 . S
C369 C375 1.429 . S
C370 C362 1.574 . S
C370 H365 0.949 . S
C370 C376 1.368 . S
C371 C355 1.349 . S
C371 H363 0.950 . S
C371 C369 1.327 . S
C372 C360 1.349 . S
C372 H366 0.950 . S
C372 C373 1.327 . S
C373 H367 0.950 . S
C373 C372 1.327 . S
C373 C377 1.429 . S
C374 C357 1.574 . S
C374 H368 0.949 . S
C374 C378 1.368 . S
C375 C356 1.429 . S
C375 C369 1.429 . S
C375 C376 1.523 . S
C376 C357 1.368 . S
C376 C370 1.368 . S
C376 C375 1.523 . S
C377 C361 1.429 . S
C377 C373 1.429 . S
C377 C378 1.523 . S
C378 C362 1.368 . S
C378 C374 1.368 . S
C378 C377 1.523 . S
H379 C354 0.950 . S
H380 C356 0.950 . S
H381 C357 0.949 . S
H382 C359 0.950 . S
H383 C361 0.950 . S
C384 C385 1.349 . S
C384 C386 1.327 . S
C384 H409 0.950 . S
C385 C384 1.349 . S
C385 C401 1.349 . S
C386 C384 1.327 . S
C386 C405 1.429 . S
C386 H410 0.950 . S
C387 C404 1.574 . S
C387 C406 1.368 . S
C387 H411 0.949 . S
H388 C392 0.949 . S
C389 C390 1.349 . S
C389 C391 1.327 . S
C389 H412 0.950 . S
C390 C389 1.349 . S
C390 C402 1.349 . S
C391 C389 1.327 . S
C391 C407 1.429 . S
C391 H413 0.950 . S
C392 H388 0.949 . S
C392 C400 1.574 . S
C392 C408 1.368 . S
H393 C401 0.950 . S
H394 C399 0.950 . S
H395 C400 0.949 . S
H396 C402 0.950 . S
H397 C403 0.950 . S
H398 C404 0.949 . S
C399 H394 0.950 . S
C399 C401 1.327 . S
C399 C405 1.429 . S
C400 C392 1.574 . S
C400 H395 0.949 . S
C400 C406 1.368 . S
C401 C385 1.349 . S
C401 H393 0.950 . S
C401 C399 1.327 . S
C402 C390 1.349 . S
C402 H396 0.950 . S
C402 C403 1.327 . S
C403 H397 0.950 . S
C403 C402 1.327 . S
C403 C407 1.429 . S
C404 C387 1.574 . S
C404 H398 0.949 . S
C404 C408 1.368 . S
C405 C386 1.429 . S
C405 C399 1.429 . S
C405 C406 1.523 . S
C406 C387 1.368 . S
C406 C400 1.368 . S
C406 C405 1.523 . S
C407 C391 1.429 . S
C407 C403 1.429 . S
C407 C408 1.523 . S
C408 C392 1.368 . S
C408 C404 1.368 . S
C408 C407 1.523 . S
H409 C384 0.950 . S
H410 C386 0.950 . S
H411 C387 0.949 . S
H412 C389 0.950 . S
H413 C391 0.950 . S
C414 C415 1.349 . S
C414 C416 1.327 . S
C414 H439 0.950 . S
C415 C414 1.349 . S
C415 C431 1.349 . S
C416 C414 1.327 . S
C416 C435 1.429 . S
C416 H440 0.950 . S
C417 C434 1.574 . S
C417 C436 1.368 . S
C417 H441 0.949 . S
H418 C422 0.949 . S
C419 C420 1.349 . S
C419 C421 1.327 . S
C419 H442 0.950 . S
C420 C419 1.349 . S
C420 C432 1.349 . S
C421 C419 1.327 . S
C421 C437 1.429 . S
C421 H443 0.950 . S
C422 H418 0.949 . S
C422 C430 1.574 . S
C422 C438 1.368 . S
H423 C431 0.950 . S
H424 C429 0.950 . S
H425 C430 0.949 . S
H426 C432 0.950 . S
H427 C433 0.950 . S
H428 C434 0.949 . S
C429 H424 0.950 . S
C429 C431 1.327 . S
C429 C435 1.429 . S
C430 C422 1.574 . S
C430 H425 0.949 . S
C430 C436 1.368 . S
C431 C415 1.349 . S
C431 H423 0.950 . S
C431 C429 1.327 . S
C432 C420 1.349 . S
C432 H426 0.950 . S
C432 C433 1.327 . S
C433 H427 0.950 . S
C433 C432 1.327 . S
C433 C437 1.429 . S
C434 C417 1.574 . S
C434 H428 0.949 . S
C434 C438 1.368 . S
C435 C416 1.429 . S
C435 C429 1.429 . S
C435 C436 1.523 . S
C436 C417 1.368 . S
C436 C430 1.368 . S
C436 C435 1.523 . S
C437 C421 1.429 . S
C437 C433 1.429 . S
C437 C438 1.523 . S
C438 C422 1.368 . S
C438 C434 1.368 . S
C438 C437 1.523 . S
H439 C414 0.950 . S
H440 C416 0.950 . S
H441 C417 0.949 . S
H442 C419 0.950 . S
H443 C421 0.950 . S
C444 C445 1.349 . S
C444 C446 1.327 . S
C444 H469 0.950 . S
C445 C444 1.349 . S
C445 C461 1.349 . S
C446 C444 1.327 . S
C446 C465 1.429 . S
C446 H470 0.950 . S
C447 C464 1.574 . S
C447 C466 1.368 . S
C447 H471 0.949 . S
H448 C452 0.949 . S
C449 C450 1.349 . S
C449 C451 1.327 . S
C449 H472 0.950 . S
C450 C449 1.349 . S
C450 C462 1.349 . S
C451 C449 1.327 . S
C451 C467 1.429 . S
C451 H473 0.950 . S
C452 H448 0.949 . S
C452 C460 1.574 . S
C452 C468 1.368 . S
H453 C461 0.950 . S
H454 C459 0.950 . S
H455 C460 0.949 . S
H456 C462 0.950 . S
H457 C463 0.950 . S
H458 C464 0.949 . S
C459 H454 0.950 . S
C459 C461 1.327 . S
C459 C465 1.429 . S
C460 C452 1.574 . S
C460 H455 0.949 . S
C460 C466 1.368 . S
C461 C445 1.349 . S
C461 H453 0.950 . S
C461 C459 1.327 . S
C462 C450 1.349 . S
C462 H456 0.950 . S
C462 C463 1.327 . S
C463 H457 0.950 . S
C463 C462 1.327 . S
C463 C467 1.429 . S
C464 C447 1.574 . S
C464 H458 0.949 . S
C464 C468 1.368 . S
C465 C446 1.429 . S
C465 C459 1.429 . S
C465 C466 1.523 . S
C466 C447 1.368 . S
C466 C460 1.368 . S
C466 C465 1.523 . S
C467 C451 1.429 . S
C467 C463 1.429 . S
C467 C468 1.523 . S
C468 C452 1.368 . S
C468 C464 1.368 . S
C468 C467 1.523 . S
H469 C444 0.950 . S
H470 C446 0.950 . S
H471 C447 0.949 . S
H472 C449 0.950 . S
H473 C451 0.950 . S
C474 C475 1.349 . S
C474 C476 1.327 . S
C474 H499 0.950 . S
C475 C474 1.349 . S
C475 C491 1.349 . S
C476 C474 1.327 . S
C476 C495 1.429 . S
C476 H500 0.950 . S
C477 C494 1.574 . S
C477 C496 1.368 . S
C477 H501 0.949 . S
H478 C482 0.949 . S
C479 C480 1.349 . S
C479 C481 1.327 . S
C479 H502 0.950 . S
C480 C479 1.349 . S
C480 C492 1.349 . S
C481 C479 1.327 . S
C481 C497 1.429 . S
C481 H503 0.950 . S
C482 H478 0.949 . S
C482 C490 1.574 . S
C482 C498 1.368 . S
H483 C491 0.950 . S
H484 C489 0.950 . S
H485 C490 0.949 . S
H486 C492 0.950 . S
H487 C493 0.950 . S
H488 C494 0.949 . S
C489 H484 0.950 . S
C489 C491 1.327 . S
C489 C495 1.429 . S
C490 C482 1.574 . S
C490 H485 0.949 . S
C490 C496 1.368 . S
C491 C475 1.349 . S
C491 H483 0.950 . S
C491 C489 1.327 . S
C492 C480 1.349 . S
C492 H486 0.950 . S
C492 C493 1.327 . S
C493 H487 0.950 . S
C493 C492 1.327 . S
C493 C497 1.429 . S
C494 C477 1.574 . S
C494 H488 0.949 . S
C494 C498 1.368 . S
C495 C476 1.429 . S
C495 C489 1.429 . S
C495 C496 1.523 . S
C496 C477 1.368 . S
C496 C490 1.368 . S
C496 C495 1.523 . S
C497 C481 1.429 . S
C497 C493 1.429 . S
C497 C498 1.523 . S
C498 C482 1.368 . S
C498 C494 1.368 . S
C498 C497 1.523 . S
H499 C474 0.950 . S
H500 C476 0.950 . S
H501 C477 0.949 . S
H502 C479 0.950 . S
H503 C481 0.950 . S
C504 C505 1.349 . S
C504 C506 1.327 . S
C504 H529 0.950 . S
C505 C504 1.349 . S
C505 C521 1.349 . S
C506 C504 1.327 . S
C506 C525 1.429 . S
C506 H530 0.950 . S
C507 C524 1.574 . S
C507 C526 1.368 . S
C507 H531 0.949 . S
H508 C512 0.949 . S
C509 C510 1.349 . S
C509 C511 1.327 . S
C509 H532 0.950 . S
C510 C509 1.349 . S
C510 C522 1.349 . S
C511 C509 1.327 . S
C511 C527 1.429 . S
C511 H533 0.950 . S
C512 H508 0.949 . S
C512 C520 1.574 . S
C512 C528 1.368 . S
H513 C521 0.950 . S
H514 C519 0.950 . S
H515 C520 0.949 . S
H516 C522 0.950 . S
H517 C523 0.950 . S
H518 C524 0.949 . S
C519 H514 0.950 . S
C519 C521 1.327 . S
C519 C525 1.429 . S
C520 C512 1.574 . S
C520 H515 0.949 . S
C520 C526 1.368 . S
C521 C505 1.349 . S
C521 H513 0.950 . S
C521 C519 1.327 . S
C522 C510 1.349 . S
C522 H516 0.950 . S
C522 C523 1.327 . S
C523 H517 0.950 . S
C523 C522 1.327 . S
C523 C527 1.429 . S
C524 C507 1.574 . S
C524 H518 0.949 . S
C524 C528 1.368 . S
C525 C506 1.429 . S
C525 C519 1.429 . S
C525 C526 1.523 . S
C526 C507 1.368 . S
C526 C520 1.368 . S
C526 C525 1.523 . S
C527 C511 1.429 . S
C527 C523 1.429 . S
C527 C528 1.523 . S
C528 C512 1.368 . S
C528 C524 1.368 . S
C528 C527 1.523 . S
H529 C504 0.950 . S
H530 C506 0.950 . S
H531 C507 0.949 . S
H532 C509 0.950 . S
H533 C511 0.950 . S
C534 C535 1.349 . S
C534 C536 1.327 . S
C534 H559 0.950 . S
C535 C534 1.349 . S
C535 C551 1.349 . S
C536 C534 1.327 . S
C536 C555 1.429 . S
C536 H560 0.950 . S
C537 C554 1.574 . S
C537 C556 1.368 . S
C537 H561 0.949 . S
H538 C542 0.949 . S
C539 C540 1.349 . S
C539 C541 1.327 . S
C539 H562 0.950 . S
C540 C539 1.349 . S
C540 C552 1.349 . S
C541 C539 1.327 . S
C541 C557 1.429 . S
C541 H563 0.950 . S
C542 H538 0.949 . S
C542 C550 1.574 . S
C542 C558 1.368 . S
H543 C551 0.950 . S
H544 C549 0.950 . S
H545 C550 0.949 . S
H546 C552 0.950 . S
H547 C553 0.950 . S
H548 C554 0.949 . S
C549 H544 0.950 . S
C549 C551 1.327 . S
C549 C555 1.429 . S
C550 C542 1.574 . S
C550 H545 0.949 . S
C550 C556 1.368 . S
C551 C535 1.349 . S
C551 H543 0.950 . S
C551 C549 1.327 . S
C552 C540 1.349 . S
C552 H546 0.950 . S
C552 C553 1.327 . S
C553 H547 0.950 . S
C553 C552 1.327 . S
C553 C557 1.429 . S
C554 C537 1.574 . S
C554 H548 0.949 . S
C554 C558 1.368 . S
C555 C536 1.429 . S
C555 C549 1.429 . S
C555 C556 1.523 . S
C556 C537 1.368 . S
C556 C550 1.368 . S
C556 C555 1.523 . S
C557 C541 1.429 . S
C557 C553 1.429 . S
C557 C558 1.523 . S
C558 C542 1.368 . S
C558 C554 1.368 . S
C558 C557 1.523 . S
H559 C534 0.950 . S
H560 C536 0.950 . S
H561 C537 0.949 . S
H562 C539 0.950 . S
H563 C541 0.950 . S
C564 C565 1.349 . S
C564 C566 1.327 . S
C564 H589 0.950 . S
C565 C564 1.349 . S
C565 C581 1.349 . S
C566 C564 1.327 . S
C566 C585 1.429 . S
C566 H590 0.950 . S
C567 C584 1.574 . S
C567 C586 1.368 . S
C567 H591 0.949 . S
H568 C572 0.949 . S
C569 C570 1.349 . S
C569 C571 1.327 . S
C569 H592 0.950 . S
C570 C569 1.349 . S
C570 C582 1.349 . S
C571 C569 1.327 . S
C571 C587 1.429 . S
C571 H593 0.950 . S
C572 H568 0.949 . S
C572 C580 1.574 . S
C572 C588 1.368 . S
H573 C581 0.950 . S
H574 C579 0.950 . S
H575 C580 0.949 . S
H576 C582 0.950 . S
H577 C583 0.950 . S
H578 C584 0.949 . S
C579 H574 0.950 . S
C579 C581 1.327 . S
C579 C585 1.429 . S
C580 C572 1.574 . S
C580 H575 0.949 . S
C580 C586 1.368 . S
C581 C565 1.349 . S
C581 H573 0.950 . S
C581 C579 1.327 . S
C582 C570 1.349 . S
C582 H576 0.950 . S
C582 C583 1.327 . S
C583 H577 0.950 . S
C583 C582 1.327 . S
C583 C587 1.429 . S
C584 C567 1.574 . S
C584 H578 0.949 . S
C584 C588 1.368 . S
C585 C566 1.429 . S
C585 C579 1.429 . S
C585 C586 1.523 . S
C586 C567 1.368 . S
C586 C580 1.368 . S
C586 C585 1.523 . S
C587 C571 1.429 . S
C587 C583 1.429 . S
C587 C588 1.523 . S
C588 C572 1.368 . S
C588 C584 1.368 . S
C588 C587 1.523 . S
H589 C564 0.950 . S
H590 C566 0.950 . S
H591 C567 0.949 . S
H592 C569 0.950 . S
H593 C571 0.950 . S
C594 C595 1.349 . S
C594 C596 1.327 . S
C594 H619 0.950 . S
C595 C594 1.349 . S
C595 C611 1.349 . S
C596 C594 1.327 . S
C596 C615 1.429 . S
C596 H620 0.950 . S
C597 C614 1.574 . S
C597 C616 1.368 . S
C597 H621 0.949 . S
H598 C602 0.949 . S
C599 C600 1.349 . S
C599 C601 1.327 . S
C599 H622 0.950 . S
C600 C599 1.349 . S
C600 C612 1.349 . S
C601 C599 1.327 . S
C601 C617 1.429 . S
C601 H623 0.950 . S
C602 H598 0.949 . S
C602 C610 1.574 . S
C602 C618 1.368 . S
H603 C611 0.950 . S
H604 C609 0.950 . S
H605 C610 0.949 . S
H606 C612 0.950 . S
H607 C613 0.950 . S
H608 C614 0.949 . S
C609 H604 0.950 . S
C609 C611 1.327 . S
C609 C615 1.429 . S
C610 C602 1.574 . S
C610 H605 0.949 . S
C610 C616 1.368 . S
C611 C595 1.349 . S
C611 H603 0.950 . S
C611 C609 1.327 . S
C612 C600 1.349 . S
C612 H606 0.950 . S
C612 C613 1.327 . S
C613 H607 0.950 . S
C613 C612 1.327 . S
C613 C617 1.429 . S
C614 C597 1.574 . S
C614 H608 0.949 . S
C614 C618 1.368 . S
C615 C596 1.429 . S
C615 C609 1.429 . S
C615 C616 1.523 . S
C616 C597 1.368 . S
C616 C610 1.368 . S
C616 C615 1.523 . S
C617 C601 1.429 . S
C617 C613 1.429 . S
C617 C618 1.523 . S
C618 C602 1.368 . S
C618 C614 1.368 . S
C618 C617 1.523 . S
H619 C594 0.950 . S
H620 C596 0.950 . S
H621 C597 0.949 . S
H622 C599 0.950 . S
H623 C601 0.950 . S
C624 C625 1.349 . S
C624 C626 1.327 . S
C624 H649 0.950 . S
C625 C624 1.349 . S
C625 C641 1.349 . S
C626 C624 1.327 . S
C626 C645 1.429 . S
C626 H650 0.950 . S
C627 C644 1.574 . S
C627 C646 1.368 . S
C627 H651 0.949 . S
H628 C632 0.949 . S
C629 C630 1.349 . S
C629 C631 1.327 . S
C629 H652 0.950 . S
C630 C629 1.349 . S
C630 C642 1.349 . S
C631 C629 1.327 . S
C631 C647 1.429 . S
C631 H653 0.950 . S
C632 H628 0.949 . S
C632 C640 1.574 . S
C632 C648 1.368 . S
H633 C641 0.950 . S
H634 C639 0.950 . S
H635 C640 0.949 . S
H636 C642 0.950 . S
H637 C643 0.950 . S
H638 C644 0.949 . S
C639 H634 0.950 . S
C639 C641 1.327 . S
C639 C645 1.429 . S
C640 C632 1.574 . S
C640 H635 0.949 . S
C640 C646 1.368 . S
C641 C625 1.349 . S
C641 H633 0.950 . S
C641 C639 1.327 . S
C642 C630 1.349 . S
C642 H636 0.950 . S
C642 C643 1.327 . S
C643 H637 0.950 . S
C643 C642 1.327 . S
C643 C647 1.429 . S
C644 C627 1.574 . S
C644 H638 0.949 . S
C644 C648 1.368 . S
C645 C626 1.429 . S
C645 C639 1.429 . S
C645 C646 1.523 . S
C646 C627 1.368 . S
C646 C640 1.368 . S
C646 C645 1.523 . S
C647 C631 1.429 . S
C647 C643 1.429 . S
C647 C648 1.523 . S
C648 C632 1.368 . S
C648 C644 1.368 . S
C648 C647 1.523 . S
H649 C624 0.950 . S
H650 C626 0.950 . S
H651 C627 0.949 . S
H652 C629 0.950 . S
H653 C631 0.950 . S
C654 C655 1.349 . S
C654 C656 1.327 . S
C654 H679 0.950 1_455 S
C655 C654 1.349 . S
C655 C671 1.349 . S
C656 C654 1.327 . S
C656 C675 1.429 . S
C656 H680 0.950 1_455 S
C657 C674 1.574 . S
C657 C676 1.368 . S
C657 H681 0.949 . S
H658 C662 0.939 1_655 S
C659 C660 1.349 . S
C659 C661 1.327 1_556 S
C659 H682 0.950 . S
C660 C659 1.349 . S
C660 C672 1.349 . S
C661 C659 1.327 1_554 S
C661 C677 1.429 . S
C661 H683 0.950 . S
C662 H658 0.939 1_455 S
C662 C670 1.574 . S
C662 C678 1.368 . S
H663 C671 0.950 . S
H664 C669 0.950 . S
H665 C670 0.949 1_655 S
H666 C672 0.950 . S
H667 C673 0.950 . S
H668 C674 0.949 . S
C669 H664 0.950 . S
C669 C671 1.327 . S
C669 C675 1.429 . S
C670 C662 1.574 . S
C670 H665 0.949 1_455 S
C670 C676 1.368 . S
C671 C655 1.349 . S
C671 H663 0.950 . S
C671 C669 1.327 . S
C672 C660 1.349 . S
C672 H666 0.950 . S
C672 C673 1.327 1_556 S
C673 H667 0.950 . S
C673 C672 1.327 1_554 S
C673 C677 1.429 . S
C674 C657 1.574 . S
C674 H668 0.949 . S
C674 C678 1.368 . S
C675 C656 1.429 . S
C675 C669 1.429 . S
C675 C676 1.523 . S
C676 C657 1.368 . S
C676 C670 1.368 . S
C676 C675 1.523 . S
C677 C661 1.429 . S
C677 C673 1.429 . S
C677 C678 1.523 . S
C678 C662 1.368 . S
C678 C674 1.368 . S
C678 C677 1.523 . S
H679 C654 0.950 1_655 S
H680 C656 0.950 1_655 S
H681 C657 0.949 . S
H682 C659 0.950 . S
H683 C661 0.950 . S
C684 C685 1.349 . S
C684 C686 1.327 . S
C684 H709 0.950 . S
C685 C684 1.349 . S
C685 C701 1.349 . S
C686 C684 1.327 . S
C686 C705 1.429 . S
C686 H710 0.950 . S
C687 C704 1.574 . S
C687 C706 1.368 1_565 S
C687 H711 0.949 . S
H688 C692 0.949 . S
C689 C690 1.349 1_565 S
C689 C691 1.327 . S
C689 H712 0.950 . S
C690 C689 1.349 1_545 S
C690 C702 1.349 . S
C691 C689 1.327 . S
C691 C707 1.429 1_565 S
C691 H713 0.950 . S
C692 H688 0.949 . S
C692 C700 1.574 . S
C692 C708 1.368 . S
H693 C701 0.950 1_565 S
H694 C699 0.955 . S
H695 C700 0.949 . S
H696 C702 0.950 . S
H697 C703 0.950 . S
H698 C704 0.949 . S
C699 H694 0.955 . S
C699 C701 1.326 1_565 S
C699 C705 1.424 1_565 S
C700 C692 1.574 . S
C700 H695 0.949 . S
C700 C706 1.368 . S
C701 C685 1.349 . S
C701 H693 0.950 1_545 S
C701 C699 1.326 1_545 S
C702 C690 1.349 . S
C702 H696 0.950 . S
C702 C703 1.327 . S
C703 H697 0.950 . S
C703 C702 1.327 . S
C703 C707 1.429 . S
C704 C687 1.574 . S
C704 H698 0.949 . S
C704 C708 1.368 1_565 S
C705 C686 1.429 . S
C705 C699 1.424 1_545 S
C705 C706 1.523 . S
C706 C687 1.368 1_545 S
C706 C700 1.368 . S
C706 C705 1.523 . S
C707 C691 1.429 1_545 S
C707 C703 1.429 . S
C707 C708 1.523 . S
C708 C692 1.368 . S
C708 C704 1.368 1_545 S
C708 C707 1.523 . S
H709 C684 0.950 . S
H710 C686 0.950 . S
H711 C687 0.949 . S
H712 C689 0.950 . S
H713 C691 0.950 . S
C714 C715 1.349 . S
C714 C716 1.327 . S
C714 H739 0.950 . S
C715 C714 1.349 . S
C715 C731 1.349 . S
C716 C714 1.327 . S
C716 C735 1.429 . S
C716 H740 0.950 . S
C717 C734 1.574 . S
C717 C736 1.368 . S
C717 H741 0.949 . S
H718 C722 0.949 . S
C719 C720 1.349 . S
C719 C721 1.327 . S
C719 H742 0.950 . S
C720 C719 1.349 . S
C720 C732 1.349 . S
C721 C719 1.327 . S
C721 C737 1.429 . S
C721 H743 0.950 . S
C722 H718 0.949 . S
C722 C730 1.574 . S
C722 C738 1.368 . S
H723 C731 0.950 . S
H724 C729 0.950 . S
H725 C730 0.949 . S
H726 C732 0.950 . S
H727 C733 0.950 . S
H728 C734 0.949 . S
C729 H724 0.950 . S
C729 C731 1.327 . S
C729 C735 1.429 . S
C730 C722 1.574 . S
C730 H725 0.949 . S
C730 C736 1.368 . S
C731 C715 1.349 . S
C731 H723 0.950 . S
C731 C729 1.327 . S
C732 C720 1.349 . S
C732 H726 0.950 . S
C732 C733 1.327 . S
C733 H727 0.950 . S
C733 C732 1.327 . S
C733 C737 1.429 . S
C734 C717 1.574 . S
C734 H728 0.949 . S
C734 C738 1.368 . S
C735 C716 1.429 . S
C735 C729 1.429 . S
C735 C736 1.523 . S
C736 C717 1.368 . S
C736 C730 1.368 . S
C736 C735 1.523 . S
C737 C721 1.429 . S
C737 C733 1.429 . S
C737 C738 1.523 . S
C738 C722 1.368 . S
C738 C734 1.368 . S
C738 C737 1.523 . S
H739 C714 0.950 . S
H740 C716 0.950 . S
H741 C717 0.949 . S
H742 C719 0.950 . S
H743 C721 0.950 . S
C744 C745 1.349 . S
C744 C746 1.327 . S
C744 H769 0.950 1_545 S
C745 C744 1.349 . S
C745 C761 1.349 . S
C746 C744 1.327 . S
C746 C765 1.429 . S
C746 H770 0.929 1_545 S
C747 C764 1.574 . S
C747 C766 1.368 . S
C747 H771 0.949 . S
H748 C752 0.949 . S
C749 C750 1.349 . S
C749 C751 1.327 . S
C749 H772 0.950 . S
C750 C749 1.349 . S
C750 C762 1.349 . S
C751 C749 1.327 . S
C751 C767 1.429 . S
C751 H773 0.950 . S
C752 H748 0.949 . S
C752 C760 1.574 . S
C752 C768 1.368 . S
H753 C761 0.950 . S
H754 C759 0.950 . S
H755 C760 0.982 . S
H756 C762 0.950 . S
H757 C763 0.950 . S
H758 C764 0.949 . S
C759 H754 0.950 . S
C759 C761 1.327 . S
C759 C765 1.429 . S
C760 C752 1.574 . S
C760 H755 0.982 . S
C760 C766 1.368 . S
C761 C745 1.349 . S
C761 H753 0.950 . S
C761 C759 1.327 . S
C762 C750 1.349 . S
C762 H756 0.950 . S
C762 C763 1.327 . S
C763 H757 0.950 . S
C763 C762 1.327 . S
C763 C767 1.429 . S
C764 C747 1.574 . S
C764 H758 0.949 . S
C764 C768 1.368 . S
C765 C746 1.429 . S
C765 C759 1.429 . S
C765 C766 1.523 . S
C766 C747 1.368 . S
C766 C760 1.368 . S
C766 C765 1.523 . S
C767 C751 1.429 . S
C767 C763 1.429 . S
C767 C768 1.523 . S
C768 C752 1.368 . S
C768 C764 1.368 . S
C768 C767 1.523 . S
H769 C744 0.950 1_565 S
H770 C746 0.929 1_565 S
H771 C747 0.949 . S
H772 C749 0.950 . S
H773 C751 0.950 . S
C774 C775 1.349 . S
C774 C776 1.327 . S
C774 H799 0.950 . S
C775 C774 1.349 . S
C775 C791 1.349 . S
C776 C774 1.327 . S
C776 C795 1.429 . S
C776 H800 0.950 . S
C777 C794 1.574 . S
C777 C796 1.368 . S
C777 H801 0.949 . S
H778 C782 0.949 . S
C779 C780 1.349 . S
C779 C781 1.327 1_554 S
C779 H802 0.950 . S
C780 C779 1.349 . S
C780 C792 1.349 . S
C781 C779 1.327 1_556 S
C781 C797 1.429 . S
C781 H803 0.950 . S
C782 H778 0.949 . S
C782 C790 1.574 . S
C782 C798 1.368 . S
H783 C791 0.950 . S
H784 C789 0.950 . S
H785 C790 0.949 . S
H786 C792 0.950 . S
H787 C793 0.957 . S
H788 C794 0.949 . S
C789 H784 0.950 . S
C789 C791 1.327 . S
C789 C795 1.429 . S
C790 C782 1.574 . S
C790 H785 0.949 . S
C790 C796 1.368 . S
C791 C775 1.349 . S
C791 H783 0.950 . S
C791 C789 1.327 . S
C792 C780 1.349 . S
C792 H786 0.950 . S
C792 C793 1.308 1_554 S
C793 H787 0.957 . S
C793 C792 1.308 1_556 S
C793 C797 1.440 . S
C794 C777 1.574 . S
C794 H788 0.949 . S
C794 C798 1.368 . S
C795 C776 1.429 . S
C795 C789 1.429 . S
C795 C796 1.523 . S
C796 C777 1.368 . S
C796 C790 1.368 . S
C796 C795 1.523 . S
C797 C781 1.429 . S
C797 C793 1.440 . S
C797 C798 1.523 . S
C798 C782 1.368 . S
C798 C794 1.368 . S
C798 C797 1.523 . S
H799 C774 0.950 . S
H800 C776 0.950 . S
H801 C777 0.949 . S
H802 C779 0.950 . S
H803 C781 0.950 . S
C804 C805 1.349 . S
C804 C806 1.327 . S
C804 H829 0.950 . S
C805 C804 1.349 . S
C805 C821 1.349 . S
C806 C804 1.327 . S
C806 C825 1.429 . S
C806 H830 0.950 . S
C807 C824 1.574 . S
C807 C826 1.368 . S
C807 H831 0.949 . S
H808 C812 0.949 . S
C809 C810 1.349 . S
C809 C811 1.327 . S
C809 H832 0.950 . S
C810 C809 1.349 . S
C810 C822 1.349 . S
C811 C809 1.327 . S
C811 C827 1.429 . S
C811 H833 0.950 . S
C812 H808 0.949 . S
C812 C820 1.574 . S
C812 C828 1.368 . S
H813 C821 0.950 . S
H814 C819 0.950 . S
H815 C820 0.949 . S
H816 C822 0.950 . S
H817 C823 0.950 . S
H818 C824 0.949 . S
C819 H814 0.950 . S
C819 C821 1.327 . S
C819 C825 1.429 . S
C820 C812 1.574 . S
C820 H815 0.949 . S
C820 C826 1.368 . S
C821 C805 1.349 . S
C821 H813 0.950 . S
C821 C819 1.327 . S
C822 C810 1.349 . S
C822 H816 0.950 . S
C822 C823 1.327 . S
C823 H817 0.950 . S
C823 C822 1.327 . S
C823 C827 1.429 . S
C824 C807 1.574 . S
C824 H818 0.949 . S
C824 C828 1.368 . S
C825 C806 1.429 . S
C825 C819 1.429 . S
C825 C826 1.523 . S
C826 C807 1.368 . S
C826 C820 1.368 . S
C826 C825 1.523 . S
C827 C811 1.429 . S
C827 C823 1.429 . S
C827 C828 1.523 . S
C828 C812 1.368 . S
C828 C824 1.368 . S
C828 C827 1.523 . S
H829 C804 0.950 . S
H830 C806 0.950 . S
H831 C807 0.949 . S
H832 C809 0.950 . S
H833 C811 0.950 . S
C295 C2 1.048 . S
C300 C271 1.043 . S
C325 C21 0.972 . S
C330 C198 0.973 . S
C355 C42 1.046 . S
C360 C237 1.041 . S
C385 C1 0.954 . S
C390 C276 0.954 . S
C420 C193 1.024 . S
C415 C22 1.030 . S
C450 C232 0.956 . S
C445 C41 0.956 . S
C475 C38 1.833 . S
C480 C120 1.817 . S
C505 C59 1.920 . S
C510 C154 1.885 . S
C535 C18 1.818 . S
C540 C76 1.800 . S
C570 C115 1.866 . S
C565 C39 1.902 . S
C600 C159 1.797 . S
C595 C58 1.814 . S
C625 C19 1.917 . S
C630 C81 1.883 . S
C660 C139 1.565 . S
C655 C9 1.502 . S
C685 C29 1.504 . S
C690 C61 1.567 . S
C715 C49 1.503 . S
C720 C100 1.564 . S
C750 C217 1.388 . S
C745 C28 1.359 . S
C780 C256 1.386 . S
C775 C48 1.356 . S
C805 C8 1.355 . S
C810 C178 1.385 . S
