# Generated by pormake.
# Topology pyr, (3,6)-cn, num edge types: 1
# Building blocks:
#     Node 0, Type 0, BuildingBlock: BETDAH_clean_linker_0, # of connection points: 3
#     Node 1, Type 0, BuildingBlock: BETDAH_clean_linker_0, # of connection points: 3
#     Node 2, Type 0, BuildingBlock: BETDAH_clean_linker_0, # of connection points: 3
#     Node 3, Type 0, BuildingBlock: BETDAH_clean_linker_0, # of connection points: 3
#     Node 4, Type 0, BuildingBlock: BETDAH_clean_linker_0, # of connection points: 3
#     Node 5, Type 0, BuildingBlock: BETDAH_clean_linker_0, # of connection points: 3
#     Node 6, Type 0, BuildingBlock: BETDAH_clean_linker_0, # of connection points: 3
#     Node 7, Type 0, BuildingBlock: BETDAH_clean_linker_0, # of connection points: 3
#     Node 8, Type 1, BuildingBlock: MIDCAF_clean_sbu_0, # of connection points: 6
#     Node 9, Type 1, BuildingBlock: MIDCAF_clean_sbu_0, # of connection points: 6
#     Node 10, Type 1, BuildingBlock: MIDCAF_clean_sbu_0, # of connection points: 6
#     Node 11, Type 1, BuildingBlock: MIDCAF_clean_sbu_0, # of connection points: 6
#     Edge 12, Type (0, 1), BuildingBlock: XUDNAN_clean_linker_2, # of connection points: 2
#     Edge 13, Type (0, 1), BuildingBlock: XUDNAN_clean_linker_2, # of connection points: 2
#     Edge 14, Type (0, 1), BuildingBlock: XUDNAN_clean_linker_2, # of connection points: 2
#     Edge 15, Type (0, 1), BuildingBlock: XUDNAN_clean_linker_2, # of connection points: 2
#     Edge 16, Type (0, 1), BuildingBlock: XUDNAN_clean_linker_2, # of connection points: 2
#     Edge 17, Type (0, 1), BuildingBlock: XUDNAN_clean_linker_2, # of connection points: 2
#     Edge 18, Type (0, 1), BuildingBlock: XUDNAN_clean_linker_2, # of connection points: 2
#     Edge 19, Type (0, 1), BuildingBlock: XUDNAN_clean_linker_2, # of connection points: 2
#     Edge 20, Type (0, 1), BuildingBlock: XUDNAN_clean_linker_2, # of connection points: 2
#     Edge 21, Type (0, 1), BuildingBlock: XUDNAN_clean_linker_2, # of connection points: 2
#     Edge 22, Type (0, 1), BuildingBlock: XUDNAN_clean_linker_2, # of connection points: 2
#     Edge 23, Type (0, 1), BuildingBlock: XUDNAN_clean_linker_2, # of connection points: 2
#     Edge 24, Type (0, 1), BuildingBlock: XUDNAN_clean_linker_2, # of connection points: 2
#     Edge 25, Type (0, 1), BuildingBlock: XUDNAN_clean_linker_2, # of connection points: 2
#     Edge 26, Type (0, 1), BuildingBlock: XUDNAN_clean_linker_2, # of connection points: 2
#     Edge 27, Type (0, 1), BuildingBlock: XUDNAN_clean_linker_2, # of connection points: 2
#     Edge 28, Type (0, 1), BuildingBlock: XUDNAN_clean_linker_2, # of connection points: 2
#     Edge 29, Type (0, 1), BuildingBlock: XUDNAN_clean_linker_2, # of connection points: 2
#     Edge 30, Type (0, 1), BuildingBlock: XUDNAN_clean_linker_2, # of connection points: 2
#     Edge 31, Type (0, 1), BuildingBlock: XUDNAN_clean_linker_2, # of connection points: 2
#     Edge 32, Type (0, 1), BuildingBlock: XUDNAN_clean_linker_2, # of connection points: 2
#     Edge 33, Type (0, 1), BuildingBlock: XUDNAN_clean_linker_2, # of connection points: 2
#     Edge 34, Type (0, 1), BuildingBlock: XUDNAN_clean_linker_2, # of connection points: 2
#     Edge 35, Type (0, 1), BuildingBlock: XUDNAN_clean_linker_2, # of connection points: 2
# Relax obj value: 0.085
# Max RMSD: 0.180
# Mean RMSD: 0.134
data_MOF--net-pry--node1-MIDCAF_clean_sbu_0--node2-BETDAH_clean_linker_0--edge1-XUDNAN_clean_linker_2
_symmetry_space_group_name_H-M    P1
_symmetry_Int_Tables_number       1
_symmetry_cell_setting            triclinic
loop_
_symmetry_equiv_pos_as_xyz
'x, y, z'
_cell_length_a     34.442636
_cell_length_b     35.039079
_cell_length_c     36.43413
_cell_angle_alpha  90.438351
_cell_angle_beta   90.771196
_cell_angle_gamma 97.041587
loop_
_atom_site_label
_atom_site_type_symbol
_atom_site_fract_x
_atom_site_fract_y
_atom_site_fract_z
_atom_type_partial_charge
H0 H 0.25467 0.17635 0.27095 0.0
H1 H 0.29843 0.26727 0.19842 0.0
H2 H 0.19976 0.28062 0.26532 0.0
C3 C 0.25351 0.20493 0.2603 0.0
C4 C 0.2246 0.22704 0.27295 0.0
C5 C 0.28052 0.21889 0.23345 0.0
C6 C 0.27749 0.25525 0.21843 0.0
C7 C 0.24769 0.27679 0.22865 0.0
C8 C 0.22142 0.26288 0.25618 0.0
N9 N 0.24663 0.31307 0.2116 0.0
C10 C 0.21408 0.33282 0.20804 0.0
H11 H 0.37402 0.7934 0.79669 0.0
H12 H 0.27687 0.84957 0.83323 0.0
H13 H 0.26311 0.77742 0.73813 0.0
C14 C 0.34381 0.79852 0.79369 0.0
C15 C 0.32066 0.78109 0.76428 0.0
C16 C 0.32855 0.82333 0.81896 0.0
C17 C 0.28982 0.83138 0.81387 0.0
C18 C 0.26717 0.81608 0.78393 0.0
C19 C 0.28224 0.79063 0.75967 0.0
N20 N 0.22818 0.82453 0.77986 0.0
C21 C 0.21665 0.84662 0.75105 0.0
H22 H 0.78247 0.29501 0.89536 0.0
H23 H 0.75218 0.35874 0.80135 0.0
H24 H 0.67907 0.25594 0.8306 0.0
C25 C 0.76276 0.2979 0.87242 0.0
C26 C 0.72955 0.27078 0.86658 0.0
C27 C 0.77059 0.32977 0.84941 0.0
C28 C 0.74608 0.33405 0.81899 0.0
C29 C 0.71363 0.30634 0.81182 0.0
C30 C 0.70547 0.27544 0.83576 0.0
N31 N 0.68795 0.30841 0.78125 0.0
C32 C 0.68632 0.34036 0.75922 0.0
H33 H 0.73835 0.79353 0.39622 0.0
H34 H 0.81995 0.78681 0.30819 0.0
H35 H 0.70375 0.7257 0.30051 0.0
C36 C 0.74566 0.7827 0.36959 0.0
C37 C 0.71729 0.75785 0.35058 0.0
C38 C 0.78329 0.79282 0.35533 0.0
C39 C 0.79138 0.77924 0.31995 0.0
C40 C 0.76225 0.75557 0.29987 0.0
C41 C 0.72571 0.74461 0.31564 0.0
N42 N 0.76789 0.74243 0.2636 0.0
C43 C 0.80353 0.74242 0.24613 0.0
H44 H 0.97418 0.86799 0.8716 0.0
H45 H 0.91223 0.91752 0.95912 0.0
H46 H 0.9329 0.97794 0.85821 0.0
C47 C 0.9586 0.8906 0.88234 0.0
C48 C 0.95392 0.92239 0.86009 0.0
C49 C 0.94365 0.88822 0.91836 0.0
C50 C 0.92386 0.91844 0.93163 0.0
C51 C 0.9202 0.95073 0.90987 0.0
C52 C 0.93533 0.95254 0.87449 0.0
N53 N 0.90533 0.9836 0.9243 0.0
C54 C 0.86757 0.98332 0.93736 0.0
H55 H 0.67882 0.11251 0.3787 0.0
H56 H 0.6906 0.15492 0.48988 0.0
H57 H 0.59373 0.18033 0.42296 0.0
C58 C 0.66835 0.12865 0.40125 0.0
C59 C 0.63363 0.14572 0.39675 0.0
C60 C 0.68978 0.13251 0.4344 0.0
C61 C 0.67556 0.15313 0.46348 0.0
C62 C 0.64165 0.17104 0.45932 0.0
C63 C 0.62087 0.16782 0.4257 0.0
N64 N 0.6264 0.18746 0.49089 0.0
C65 C 0.61828 0.22528 0.49347 0.0
H66 H 0.351 0.65825 0.11387 0.0
H67 H 0.39773 0.56956 0.17514 0.0
H68 H 0.47122 0.674 0.15183 0.0
C69 C 0.37535 0.64824 0.12853 0.0
C70 C 0.4116 0.67145 0.13087 0.0
C71 C 0.37002 0.61184 0.14488 0.0
C72 C 0.40142 0.59792 0.16304 0.0
C73 C 0.43804 0.62028 0.16458 0.0
C74 C 0.44292 0.65691 0.14906 0.0
N75 N 0.47062 0.60549 0.18043 0.0
C76 C 0.47794 0.60858 0.21786 0.0
H77 H 0.17062 0.41435 0.60158 0.0
H78 H 0.10865 0.48993 0.66663 0.0
H79 H 0.04994 0.38156 0.62717 0.0
C80 C 0.14393 0.42087 0.6144 0.0
C81 C 0.11057 0.39387 0.61253 0.0
C82 C 0.14354 0.45562 0.6339 0.0
C83 C 0.10923 0.46312 0.65175 0.0
C84 C 0.07512 0.43655 0.64858 0.0
C85 C 0.07607 0.40222 0.62896 0.0
N86 N 0.03897 0.44391 0.66348 0.0
C87 C 0.03544 0.46086 0.6976 0.0
Zn88 Zn 0.99597 0.07287 0.57131 0.0
Zn89 Zn 0.06878 0.99721 0.48505 0.0
Zn90 Zn 0.02814 0.03966 0.53012 0.0
C91 C 0.08825 0.07673 0.46859 0.0
C92 C 0.98661 0.97723 0.47283 0.0
O93 O 0.0329 0.01527 0.58755 0.0
O94 O 0.97857 0.03394 0.6081 0.0
C95 C 0.05783 0.12315 0.55617 0.0
O96 O 0.0658 0.08127 0.49597 0.0
O97 O 0.09447 0.0434 0.45861 0.0
O98 O 0.01954 0.96811 0.46357 0.0
O99 O 0.98417 0.00453 0.49627 0.0
O100 O 0.03969 0.1125 0.58489 0.0
O101 O 0.05379 0.10105 0.52757 0.0
O102 O 0.96539 0.035 0.511 0.0
O103 O 0.95546 0.08889 0.53831 0.0
C104 C 0.94427 0.06264 0.51533 0.0
O105 O 0.06258 0.00434 0.56482 0.0
O106 O 0.09779 0.97409 0.52603 0.0
C107 C 0.00597 0.01353 0.61209 0.0
C108 C 0.08895 0.98203 0.55853 0.0
Zn109 Zn 0.49178 0.06641 0.0267 0.0
Zn110 Zn 0.5734 0.98566 0.11329 0.0
Zn111 Zn 0.53054 0.02601 0.07244 0.0
C112 C 0.6235 0.0159 0.06028 0.0
C113 C 0.51233 0.93457 0.08423 0.0
O114 O 0.49835 0.06372 0.10779 0.0
O115 O 0.4636 0.09074 0.06608 0.0
C116 C 0.57029 0.08668 0.0128 0.0
O117 O 0.59237 0.03152 0.05229 0.0
O118 O 0.6236 0.99366 0.08733 0.0
O119 O 0.54118 0.93555 0.10607 0.0
O120 O 0.50442 0.96537 0.06811 0.0
O121 O 0.5375 0.09604 1.00303 0.0
O122 O 0.57263 0.06043 0.03704 0.0
O123 O 0.48893 0.98488 0.03872 0.0
O124 O 0.46353 0.02254 0.99893 0.0
C125 C 0.46696 0.98918 0.01037 0.0
O126 O 0.52743 0.04894 0.12975 0.0
O127 O 0.56788 0.01482 0.159 0.0
C128 C 0.47195 0.08551 0.09941 0.0
C129 C 0.54583 0.04108 0.15934 0.0
Zn130 Zn 0.54674 0.60603 0.60578 0.0
Zn131 Zn 0.45649 0.50091 0.52685 0.0
Zn132 Zn 0.50134 0.55242 0.56489 0.0
C133 C 0.51285 0.46129 0.55746 0.0
C134 C 0.48992 0.55381 0.47673 0.0
O135 O 0.46404 0.58084 0.6036 0.0
O136 O 0.50452 0.6206 0.63805 0.0
C137 C 0.57497 0.5343 0.61546 0.0
O138 O 0.52506 0.49568 0.56904 0.0
O139 O 0.48066 0.4548 0.54024 0.0
O140 O 0.46851 0.52193 0.47754 0.0
O141 O 0.50428 0.56983 0.50669 0.0
O142 O 0.58254 0.56953 0.62383 0.0
O143 O 0.54564 0.52264 0.59413 0.0
O144 O 0.52917 0.59649 0.5274 0.0
O145 O 0.56266 0.64032 0.5635 0.0
C146 C 0.55145 0.62855 0.53178 0.0
O147 O 0.4403 0.55081 0.58532 0.0
O148 O 0.40594 0.50909 0.548 0.0
C149 C 0.47009 0.60626 0.62958 0.0
C150 C 0.40726 0.53261 0.57451 0.0
Zn151 Zn 0.07137 0.59862 1.00139 0.0
Zn152 Zn 0.96275 0.5207 0.07698 0.0
Zn153 Zn 0.01674 0.5607 0.03833 0.0
C154 C 0.03351 0.4993 0.10242 0.0
C155 C 0.94841 0.49874 0.00376 0.0
O156 O 0.00516 0.62229 0.03898 0.0
O157 O 0.04965 0.64826 1.00027 0.0
C158 C 0.10973 0.56783 0.05784 0.0
O159 O 0.0464 0.52596 0.07974 0.0
O160 O 0.99713 0.49008 0.10569 0.0
O161 O 0.93182 0.49606 0.03451 0.0
O162 O 0.98129 0.52026 1.00027 0.0
O163 O 0.11663 0.59205 0.03262 0.0
O164 O 0.07445 0.5522 0.06347 0.0
O165 O 0.01102 0.54158 0.97964 0.0
O166 O 0.06613 0.56866 0.95548 0.0
C167 C 0.03428 0.54694 0.95216 0.0
O168 O 0.98216 0.60245 0.06593 0.0
O169 O 0.94453 0.56479 0.10296 0.0
C170 C 0.02046 0.65126 0.02013 0.0
C171 C 0.95686 0.59804 0.09186 0.0
H172 H 0.24216 0.18202 0.33151 0.0
H173 H 0.14742 0.23847 0.28519 0.0
H174 H 0.10477 0.21279 0.3354 0.0
H175 H 0.183 0.09553 0.35178 0.0
H176 H 0.20989 0.08663 0.39298 0.0
H177 H 0.23412 0.11375 0.35636 0.0
H178 H 0.25539 0.16998 0.40177 0.0
H179 H 0.23082 0.14312 0.4385 0.0
H180 H 0.21883 0.19049 0.42788 0.0
H181 H 0.07088 0.17727 0.38941 0.0
H182 H 0.04782 0.13087 0.43784 0.0
H183 H 0.16307 0.09385 0.44484 0.0
C184 C 0.21242 0.18901 0.33147 0.0
C185 C 0.19853 0.21256 0.30393 0.0
C186 C 0.1594 0.22124 0.30603 0.0
C187 C 0.13476 0.2066 0.33449 0.0
C188 C 0.14941 0.18307 0.3607 0.0
C189 C 0.18728 0.17409 0.35915 0.0
C190 C 0.19516 0.14557 0.38859 0.0
C191 C 0.20617 0.10816 0.3714 0.0
C192 C 0.22694 0.16337 0.41579 0.0
C193 C 0.15555 0.13921 0.4066 0.0
C194 C 0.12972 0.16172 0.39072 0.0
C195 C 0.09102 0.15985 0.40221 0.0
C196 C 0.07822 0.13364 0.42988 0.0
C197 C 0.10392 0.10948 0.44554 0.0
C198 C 0.1431 0.11264 0.43387 0.0
H199 H 0.32914 0.89582 0.84898 0.0
H200 H 0.38287 0.79074 0.86123 0.0
H201 H 0.42212 0.81997 0.91384 0.0
H202 H 0.41261 0.9614 0.87097 0.0
H203 H 0.38574 0.99411 0.89569 0.0
H204 H 0.36205 0.96449 0.85937 0.0
H205 H 0.30798 0.93725 0.90425 0.0
H206 H 0.33166 0.96668 0.9408 0.0
H207 H 0.32156 0.91537 0.94639 0.0
H208 H 0.45803 0.86291 0.96416 0.0
H209 H 0.48694 0.9153 0.00571 0.0
H210 H 0.40483 0.989 0.96333 0.0
C211 C 0.34864 0.87854 0.86293 0.0
C212 C 0.35269 0.84081 0.85071 0.0
C213 C 0.37948 0.81986 0.86952 0.0
C214 C 0.40169 0.83611 0.89973 0.0
C215 C 0.39662 0.87325 0.91114 0.0
C216 C 0.37061 0.89407 0.89328 0.0
C217 C 0.37079 0.93359 0.91036 0.0
C218 C 0.38357 0.96525 0.88244 0.0
C219 C 0.33061 0.93849 0.9264 0.0
C220 C 0.40131 0.93205 0.94039 0.0
C221 C 0.41595 0.89706 0.94058 0.0
C222 C 0.44612 0.89009 0.9647 0.0
C223 C 0.46201 0.91983 0.98871 0.0
C224 C 0.44737 0.95588 0.98884 0.0
C225 C 0.41632 0.9616 0.96449 0.0
H226 H 0.61978 0.34585 0.72128 0.0
H227 H 0.73612 0.40399 0.74368 0.0
H228 H 0.72191 0.45791 0.70384 0.0
H229 H 0.612 0.37674 0.62478 0.0
H230 H 0.56084 0.38212 0.6288 0.0
H231 H 0.58182 0.34692 0.65598 0.0
H232 H 0.55696 0.37738 0.71501 0.0
H233 H 0.53627 0.41264 0.68774 0.0
H234 H 0.57066 0.4279 0.72425 0.0
H235 H 0.69328 0.50701 0.66581 0.0
H236 H 0.65223 0.54906 0.63307 0.0
H237 H 0.55394 0.45905 0.63538 0.0
C238 C 0.64232 0.3698 0.71726 0.0
C239 C 0.67905 0.37115 0.73509 0.0
C240 C 0.70791 0.40275 0.72991 0.0
C241 C 0.7001 0.43327 0.7073 0.0
C242 C 0.6634 0.43134 0.69012 0.0
C243 C 0.63497 0.40038 0.69477 0.0
C244 C 0.59719 0.40639 0.67501 0.0
C245 C 0.58742 0.37625 0.64431 0.0
C246 C 0.56328 0.40608 0.70213 0.0
C247 C 0.60839 0.44609 0.65937 0.0
C248 C 0.64686 0.4597 0.66805 0.0
C249 C 0.66331 0.49647 0.65845 0.0
C250 C 0.63972 0.52017 0.63997 0.0
C251 C 0.60009 0.50709 0.63126 0.0
C252 C 0.58441 0.4694 0.64078 0.0
H253 H 0.85364 0.69023 0.25652 0.0
H254 H 0.82202 0.77682 0.18155 0.0
H255 H 0.86628 0.75474 0.13487 0.0
H256 H 0.95843 0.69078 0.22573 0.0
H257 H 0.95564 0.63945 0.2313 0.0
H258 H 0.92796 0.66725 0.26076 0.0
H259 H 0.86447 0.62355 0.24204 0.0
H260 H 0.89174 0.59598 0.21227 0.0
H261 H 0.85099 0.61798 0.19412 0.0
H262 H 0.90482 0.71542 0.09296 0.0
H263 H 0.93531 0.66398 0.06116 0.0
H264 H 0.94286 0.60458 0.16423 0.0
C265 C 0.85751 0.70554 0.23084 0.0
C266 C 0.83546 0.7357 0.22266 0.0
C267 C 0.83963 0.75422 0.18839 0.0
C268 C 0.86457 0.74178 0.16176 0.0
C269 C 0.88515 0.71095 0.17009 0.0
C270 C 0.88226 0.69344 0.20408 0.0
C271 C 0.90388 0.65839 0.205 0.0
C272 C 0.93854 0.66434 0.23231 0.0
C273 C 0.8761 0.62184 0.21386 0.0
C274 C 0.91784 0.65779 0.16583 0.0
C275 C 0.90738 0.68859 0.14612 0.0
C276 C 0.91422 0.69188 0.10846 0.0
C277 C 0.9319 0.66282 0.0906 0.0
C278 C 0.94252 0.63111 0.11045 0.0
C279 C 0.93567 0.62896 0.14853 0.0
H280 H 0.31114 0.21478 0.16413 0.0
H281 H 0.32143 0.17025 0.27431 0.0
H282 H 0.37274 0.13212 0.25317 0.0
H283 H 0.326 0.13045 0.11503 0.0
H284 H 0.35435 0.15583 0.0796 0.0
H285 H 0.31818 0.17893 0.10362 0.0
H286 H 0.37098 0.2354 0.12174 0.0
H287 H 0.40735 0.21241 0.0978 0.0
H288 H 0.41484 0.22552 0.14554 0.0
H289 H 0.42202 0.09626 0.21815 0.0
H290 H 0.46422 0.06818 0.1733 0.0
H291 H 0.42542 0.14212 0.08892 0.0
C292 C 0.32443 0.19758 0.18417 0.0
C293 C 0.31183 0.19573 0.221 0.0
C294 C 0.32979 0.17186 0.24578 0.0
C295 C 0.35932 0.15028 0.2341 0.0
C296 C 0.37107 0.1531 0.19764 0.0
C297 C 0.35425 0.17641 0.17318 0.0
C298 C 0.37193 0.17475 0.13552 0.0
C299 C 0.34076 0.15905 0.10676 0.0
C300 C 0.3925 0.21438 0.12452 0.0
C301 C 0.40112 0.14658 0.1424 0.0
C302 C 0.40026 0.13416 0.17829 0.0
C303 C 0.42341 0.10643 0.19017 0.0
C304 C 0.44772 0.09092 0.16461 0.0
C305 C 0.44922 0.10363 0.12778 0.0
C306 C 0.42563 0.13205 0.11695 0.0
H307 H 0.16538 0.82794 0.6944 0.0
H308 H 0.23756 0.92294 0.74762 0.0
H309 H 0.21254 0.9683 0.70389 0.0
H310 H 0.17655 0.86295 0.60129 0.0
H311 H 0.12675 0.84637 0.58781 0.0
H312 H 0.15061 0.82154 0.62305 0.0
H313 H 0.09446 0.83084 0.66776 0.0
H314 H 0.07054 0.85579 0.63264 0.0
H315 H 0.08221 0.87861 0.67657 0.0
H316 H 0.17815 0.00334 0.6557 0.0
H317 H 0.13874 0.0255 0.60445 0.0
H318 H 0.09 0.90776 0.58119 0.0
C319 C 0.17605 0.85828 0.69647 0.0
C320 C 0.20348 0.87225 0.72397 0.0
C321 C 0.21669 0.91196 0.72641 0.0
C322 C 0.20257 0.93784 0.70182 0.0
C323 C 0.17527 0.92337 0.67501 0.0
C324 C 0.16226 0.88451 0.67203 0.0
C325 C 0.13269 0.87655 0.64083 0.0
C326 C 0.14755 0.8503 0.61151 0.0
C327 C 0.0926 0.85943 0.65533 0.0
C328 C 0.13134 0.9169 0.62654 0.0
C329 C 0.15587 0.94352 0.64689 0.0
C330 C 0.159 0.98275 0.63949 0.0
C331 C 0.13657 0.99508 0.61046 0.0
C332 C 0.11152 0.96827 0.58922 0.0
C333 C 0.10906 0.9287 0.59716 0.0
H334 H 0.76611 0.38927 0.89594 0.0
H335 H 0.84714 0.33506 0.82927 0.0
H336 H 0.90267 0.37791 0.85726 0.0
H337 H 0.82138 0.48854 0.89786 0.0
H338 H 0.80839 0.49591 0.94492 0.0
H339 H 0.77545 0.46578 0.91495 0.0
H340 H 0.77511 0.41001 0.96131 0.0
H341 H 0.80841 0.43966 0.99112 0.0
H342 H 0.82082 0.39393 0.97516 0.0
H343 H 0.94943 0.42051 0.89921 0.0
H344 H 0.98281 0.46017 0.94973 0.0
H345 H 0.87055 0.48625 0.98836 0.0
C346 C 0.79549 0.38763 0.8863 0.0
C347 C 0.80264 0.35984 0.85993 0.0
C348 C 0.84135 0.35702 0.84884 0.0
C349 C 0.87291 0.3811 0.86469 0.0
C350 C 0.86504 0.40768 0.8915 0.0
C351 C 0.82715 0.4113 0.9019 0.0
C352 C 0.8265 0.43928 0.93365 0.0
C353 C 0.80677 0.47447 0.92214 0.0
C354 C 0.80655 0.41952 0.96728 0.0
C355 C 0.8699 0.44995 0.94038 0.0
C356 C 0.89178 0.43186 0.9156 0.0
C357 C 0.93255 0.43546 0.9182 0.0
C358 C 0.95129 0.45812 0.94683 0.0
C359 C 0.92927 0.47698 0.97222 0.0
C360 C 0.88812 0.47269 0.96885 0.0
H361 H 0.68554 0.68349 0.36158 0.0
H362 H 0.66705 0.80167 0.38304 0.0
H363 H 0.61365 0.77946 0.42519 0.0
H364 H 0.57936 0.64105 0.37088 0.0
H365 H 0.59173 0.59874 0.39399 0.0
H366 H 0.62369 0.62154 0.35963 0.0
H367 H 0.68215 0.62953 0.40481 0.0
H368 H 0.65188 0.60557 0.43949 0.0
H369 H 0.67756 0.65274 0.44861 0.0
H370 H 0.57369 0.7466 0.47389 0.0
H371 H 0.54597 0.70433 0.52344 0.0
H372 H 0.58742 0.60646 0.47005 0.0
C373 C 0.66896 0.70447 0.3739 0.0
C374 C 0.68004 0.74425 0.36891 0.0
C375 C 0.65876 0.77108 0.38644 0.0
C376 C 0.62834 0.7587 0.4103 0.0
C377 C 0.61927 0.71937 0.41605 0.0
C378 C 0.63847 0.69251 0.39793 0.0
C379 C 0.62616 0.65234 0.41228 0.0
C380 C 0.6039 0.62689 0.38244 0.0
C381 C 0.66154 0.63401 0.42719 0.0
C382 C 0.59913 0.66121 0.44288 0.0
C383 C 0.59507 0.69999 0.4441 0.0
C384 C 0.57558 0.71602 0.47256 0.0
C385 C 0.56019 0.69194 0.50068 0.0
C386 C 0.56411 0.65228 0.49999 0.0
C387 C 0.58321 0.63659 0.47046 0.0
H388 H 0.2069 0.37204 0.14524 0.0
H389 H 0.15471 0.34883 0.25152 0.0
H390 H 0.10514 0.39256 0.23709 0.0
H391 H 0.19354 0.47245 0.14132 0.0
H392 H 0.18181 0.4718 0.09286 0.0
H393 H 0.2134 0.43905 0.11114 0.0
H394 H 0.16808 0.38116 0.08411 0.0
H395 H 0.13674 0.41367 0.06498 0.0
H396 H 0.11672 0.37553 0.09469 0.0
H397 H 0.06048 0.43685 0.21031 0.0
H398 H 0.02205 0.47743 0.17284 0.0
H399 H 0.1037 0.47361 0.08371 0.0
C400 C 0.18491 0.37624 0.16536 0.0
C401 C 0.18423 0.35722 0.19944 0.0
C402 C 0.15537 0.3632 0.22527 0.0
C403 C 0.12732 0.38804 0.21731 0.0
C404 C 0.12879 0.40666 0.18347 0.0
C405 C 0.15674 0.40097 0.15782 0.0
C406 C 0.15131 0.42384 0.12323 0.0
C407 C 0.18715 0.45358 0.11677 0.0
C408 C 0.14269 0.39694 0.08979 0.0
C409 C 0.11576 0.4432 0.1333 0.0
C410 C 0.10338 0.43285 0.16823 0.0
C411 C 0.07011 0.44539 0.18311 0.0
C412 C 0.04847 0.46844 0.16159 0.0
C413 C 0.06015 0.47909 0.12557 0.0
C414 C 0.09461 0.46669 0.11146 0.0
H415 H 0.68584 0.19963 0.85459 0.0
H416 H 0.74595 0.27085 0.94136 0.0
H417 H 0.72186 0.22267 0.98653 0.0
H418 H 0.60067 0.18329 0.90195 0.0
H419 H 0.58666 0.13507 0.88488 0.0
H420 H 0.6174 0.1688 0.85788 0.0
H421 H 0.66964 0.12141 0.85518 0.0
H422 H 0.63887 0.0875 0.88235 0.0
H423 H 0.68834 0.10342 0.89727 0.0
H424 H 0.68514 0.1706 0.02392 0.0
H425 H 0.63184 0.12541 0.05017 0.0
H426 H 0.58738 0.09549 0.94066 0.0
C427 C 0.6944 0.20538 0.88293 0.0
C428 C 0.71844 0.23946 0.89372 0.0
C429 C 0.72886 0.24476 0.93149 0.0
C430 C 0.71507 0.21746 0.9577 0.0
C431 C 0.69032 0.18509 0.94611 0.0
C432 C 0.67968 0.17922 0.90962 0.0
C433 C 0.6474 0.14602 0.90495 0.0
C434 C 0.61089 0.1591 0.88634 0.0
C435 C 0.66195 0.11261 0.88367 0.0
C436 C 0.64011 0.13552 0.94466 0.0
C437 C 0.66639 0.15714 0.9679 0.0
C438 C 0.6646 0.15333 0.00597 0.0
C439 C 0.63437 0.12769 0.02064 0.0
C440 C 0.6058 0.10744 0.99725 0.0
C441 C 0.60915 0.11078 0.9589 0.0
H442 H 0.8434 0.84828 0.33316 0.0
H443 H 0.79286 0.79148 0.43023 0.0
H444 H 0.83494 0.83657 0.46942 0.0
H445 H 0.94278 0.86012 0.37198 0.0
H446 H 0.95635 0.90552 0.34981 0.0
H447 H 0.92027 0.87023 0.32875 0.0
H448 H 0.87125 0.92073 0.32649 0.0
H449 H 0.90701 0.95596 0.34812 0.0
H450 H 0.85958 0.94443 0.36831 0.0
H451 H 0.87826 0.89032 0.49868 0.0
H452 H 0.93211 0.94051 0.51669 0.0
H453 H 0.96267 0.95676 0.40235 0.0
C454 C 0.8414 0.84495 0.3626 0.0
C455 C 0.81325 0.81712 0.37832 0.0
C456 C 0.81242 0.81368 0.41716 0.0
C457 C 0.8365 0.83903 0.43987 0.0
C458 C 0.86252 0.86704 0.42357 0.0
C459 C 0.86625 0.86939 0.38592 0.0
C460 C 0.89904 0.90043 0.37589 0.0
C461 C 0.93154 0.88303 0.3554 0.0
C462 C 0.88326 0.93226 0.35337 0.0
C463 C 0.91279 0.91506 0.41381 0.0
C464 C 0.8905 0.89598 0.44079 0.0
C465 C 0.89631 0.90519 0.47789 0.0
C466 C 0.92666 0.93385 0.48784 0.0
C467 C 0.95123 0.95226 0.46088 0.0
C468 C 0.94409 0.94299 0.42338 0.0
H469 H 0.37686 0.73231 0.77886 0.0
H470 H 0.30075 0.76496 0.69123 0.0
H471 H 0.32387 0.71637 0.65089 0.0
H472 H 0.45743 0.72578 0.72013 0.0
H473 H 0.47469 0.68666 0.74487 0.0
H474 H 0.44808 0.72025 0.76849 0.0
H475 H 0.39837 0.66366 0.7903 0.0
H476 H 0.42456 0.62994 0.76618 0.0
H477 H 0.37319 0.63105 0.75685 0.0
H478 H 0.35646 0.66485 0.61891 0.0
H479 H 0.40389 0.62356 0.59505 0.0
H480 H 0.46391 0.63024 0.70065 0.0
C481 C 0.36501 0.72978 0.75119 0.0
C482 C 0.33607 0.75251 0.73899 0.0
C483 C 0.3217 0.74733 0.70228 0.0
C484 C 0.33485 0.71978 0.67884 0.0
C485 C 0.36304 0.69787 0.692 0.0
C486 C 0.37858 0.70319 0.72706 0.0
C487 C 0.41158 0.67891 0.73324 0.0
C488 C 0.45023 0.70442 0.74219 0.0
C489 C 0.40129 0.64913 0.76344 0.0
C490 C 0.41262 0.65964 0.69594 0.0
C491 C 0.38363 0.67009 0.67286 0.0
C492 C 0.3792 0.65642 0.63679 0.0
C493 C 0.40604 0.63269 0.62355 0.0
C494 C 0.43723 0.62341 0.64614 0.0
C495 C 0.44003 0.63654 0.68296 0.0
H496 H 0.91317 0.93795 0.79874 0.0
H497 H 0.02782 0.91437 0.83559 0.0
H498 H 0.05348 0.92794 0.77301 0.0
H499 H 0.91849 0.89823 0.70415 0.0
H500 H 0.89216 0.93503 0.68513 0.0
H501 H 0.88253 0.91851 0.73123 0.0
H502 H 0.89725 0.98861 0.75556 0.0
H503 H 0.90702 0.00527 0.7097 0.0
H504 H 0.94354 0.01609 0.7454 0.0
H505 H 0.06794 0.95359 0.70773 0.0
H506 H 0.06853 0.98636 0.64772 0.0
H507 H 0.94359 0.98919 0.65408 0.0
C508 C 0.9435 0.93489 0.79342 0.0
C509 C 0.96854 0.92511 0.82187 0.0
C510 C 0.00809 0.92146 0.81399 0.0
C511 C 0.02287 0.92921 0.77857 0.0
C512 C 0.99752 0.93986 0.75128 0.0
C513 C 0.95848 0.94208 0.75834 0.0
C514 C 0.93757 0.95635 0.7254 0.0
C515 C 0.90581 0.92516 0.7106 0.0
C516 C 0.92037 0.9938 0.73458 0.0
C517 C 0.97116 0.96338 0.69904 0.0
C518 C 0.00553 0.95341 0.71406 0.0
C519 C 0.0409 0.96053 0.69547 0.0
C520 C 0.04105 0.9788 0.66109 0.0
C521 C 0.00617 0.98961 0.64563 0.0
C522 C 0.97082 0.98096 0.66481 0.0
H523 H 0.61014 0.07608 0.36542 0.0
H524 H 0.60474 0.19781 0.35049 0.0
H525 H 0.5721 0.18395 0.28974 0.0
H526 H 0.63528 0.05528 0.27729 0.0
H527 H 0.60683 0.00857 0.27491 0.0
H528 H 0.62435 0.02825 0.31858 0.0
H529 H 0.55339 0.02013 0.34287 0.0
H530 H 0.5356 1.00046 0.29908 0.0
H531 H 0.51588 0.04147 0.31822 0.0
H532 H 0.54826 0.15611 0.2263 0.0
H533 H 0.53631 0.11783 0.16867 0.0
H534 H 0.55541 0.01493 0.228 0.0
C535 C 0.60145 0.09978 0.34962 0.0
C536 C 0.61 0.13799 0.36246 0.0
C537 C 0.59817 0.16828 0.34115 0.0
C538 C 0.57965 0.16062 0.30666 0.0
C539 C 0.57253 0.12249 0.29434 0.0
C540 C 0.58273 0.0926 0.31558 0.0
C541 C 0.5747 0.05445 0.29563 0.0
C542 C 0.61253 0.03556 0.29134 0.0
C543 C 0.543 0.02755 0.31511 0.0
C544 C 0.55988 0.06748 0.25916 0.0
C545 C 0.55825 0.1067 0.25879 0.0
C546 C 0.54863 0.12527 0.22665 0.0
C547 C 0.54164 0.10333 0.19406 0.0
C548 C 0.54439 0.06334 0.19398 0.0
C549 C 0.55253 0.04536 0.22727 0.0
H550 H 0.49323 0.54995 0.26032 0.0
H551 H 0.47868 0.6709 0.2623 0.0
H552 H 0.48817 0.67245 0.33007 0.0
H553 H 0.44011 0.5246 0.33852 0.0
H554 H 0.47103 0.49003 0.35445 0.0
H555 H 0.46795 0.50012 0.30628 0.0
H556 H 0.54328 0.51721 0.30472 0.0
H557 H 0.5467 0.50754 0.3531 0.0
H558 H 0.56696 0.55357 0.33555 0.0
H559 H 0.49343 0.65863 0.39817 0.0
H560 H 0.4909 0.63009 0.46029 0.0
H561 H 0.50238 0.51848 0.41258 0.0
C562 C 0.49275 0.57682 0.27513 0.0
C563 C 0.48552 0.61036 0.25673 0.0
C564 C 0.48445 0.64505 0.27644 0.0
C565 C 0.48994 0.64617 0.31473 0.0
C566 C 0.49663 0.61235 0.33243 0.0
C567 C 0.49818 0.57836 0.31317 0.0
C568 C 0.5029 0.54537 0.33861 0.0
C569 C 0.46844 0.51316 0.3342 0.0
C570 C 0.54231 0.53003 0.33264 0.0
C571 C 0.50226 0.56566 0.37527 0.0
C572 C 0.4993 0.6044 0.3713 0.0
C573 C 0.49621 0.62843 0.40158 0.0
C574 C 0.49514 0.61213 0.43672 0.0
C575 C 0.49711 0.57234 0.441 0.0
C576 C 0.50131 0.54911 0.40994 0.0
H577 H 0.08651 0.47222 0.75474 0.0
H578 H 0.96628 0.47861 0.72162 0.0
H579 H 0.95094 0.49781 0.78499 0.0
H580 H 0.06586 0.43353 0.8449 0.0
H581 H 0.108 0.46088 0.86628 0.0
H582 H 0.10917 0.44738 0.81854 0.0
H583 H 0.12705 0.51888 0.80087 0.0
H584 H 0.12638 0.53249 0.84857 0.0
H585 H 0.09626 0.55395 0.81569 0.0
H586 H 0.94949 0.51742 0.85212 0.0
H587 H 0.96312 0.53908 0.91654 0.0
H588 H 0.08388 0.51835 0.90524 0.0
C589 C 0.05708 0.47795 0.76097 0.0
C590 C 0.02751 0.47441 0.73377 0.0
C591 C 0.98923 0.48164 0.74245 0.0
C592 C 0.98026 0.4923 0.77828 0.0
C593 C 0.01001 0.49533 0.80486 0.0
C594 C 0.04769 0.48855 0.79656 0.0
C595 C 0.0745 0.49446 0.82983 0.0
C596 C 0.0903 0.45681 0.84051 0.0
C597 C 0.10801 0.52688 0.82335 0.0
C598 C 0.04621 0.50605 0.85803 0.0
C599 C 0.00904 0.50612 0.84329 0.0
C600 C 0.9784 0.51713 0.86403 0.0
C601 C 0.98625 0.52907 0.90058 0.0
C602 C 0.02425 0.52949 0.91586 0.0
C603 C 0.05438 0.51762 0.89431 0.0
H604 H 0.83968 0.98027 0.00671 0.0
H605 H 0.80907 1.00141 0.89365 0.0
H606 H 0.74414 0.01733 0.9131 0.0
H607 H 0.74462 0.93562 0.03317 0.0
H608 H 0.74791 0.95668 0.07857 0.0
H609 H 0.7917 0.94771 0.0553 0.0
H610 H 0.81954 0.01943 0.06403 0.0
H611 H 0.7755 0.0287 0.08682 0.0
H612 H 0.79187 0.05628 0.04717 0.0
H613 H 0.68197 0.02979 0.94528 0.0
H614 H 0.62616 0.03257 0.9867 0.0
H615 H 0.69839 0.00531 0.07894 0.0
C616 C 0.81905 0.98797 0.98616 0.0
C617 C 0.82879 0.98938 0.94875 0.0
C618 C 0.80162 0.99989 0.92244 0.0
C619 C 0.7649 0.00921 0.93327 0.0
C620 C 0.7561 0.00799 0.97053 0.0
C621 C 0.78231 0.99735 0.99654 0.0
C622 C 0.76537 0.99739 0.03467 0.0
C623 C 0.7622 0.95695 0.0514 0.0
C624 C 0.78952 0.02723 0.05964 0.0
C625 C 0.72541 0.00919 0.02604 0.0
C626 C 0.72069 0.01559 0.98897 0.0
C627 C 0.68555 0.02532 0.97443 0.0
C628 C 0.65412 0.02746 0.99827 0.0
C629 C 0.65812 0.0202 0.03622 0.0
C630 C 0.69453 0.01157 0.05015 0.0
H631 H 0.75762 0.16489 0.46738 0.0
H632 H 0.70568 0.06049 0.41226 0.0
H633 H 0.76682 0.03124 0.423 0.0
H634 H 0.8564 0.16336 0.43486 0.0
H635 H 0.87817 0.18159 0.47776 0.0
H636 H 0.83127 0.1944 0.46339 0.0
H637 H 0.80112 0.16854 0.52458 0.0
H638 H 0.8479 0.15576 0.53912 0.0
H639 H 0.80571 0.11981 0.53782 0.0
H640 H 0.83435 0.01246 0.44388 0.0
H641 H 0.89927 0.00703 0.47257 0.0
H642 H 0.90407 0.1243 0.5129 0.0
C643 C 0.759 0.13586 0.45751 0.0
C644 C 0.7268 0.11498 0.43908 0.0
C645 C 0.73013 0.07722 0.42618 0.0
C646 C 0.7647 0.06032 0.43227 0.0
C647 C 0.79577 0.08167 0.45104 0.0
C648 C 0.79308 0.11873 0.46326 0.0
C649 C 0.82966 0.13553 0.4837 0.0
C650 C 0.85008 0.1708 0.46372 0.0
C651 C 0.82054 0.14547 0.52366 0.0
C652 C 0.85328 0.10202 0.48172 0.0
C653 C 0.83368 0.07113 0.46267 0.0
C654 C 0.84996 0.03667 0.45864 0.0
C655 C 0.88691 0.03378 0.47493 0.0
C656 C 0.9069 0.06507 0.4951 0.0
C657 C 0.88976 0.09963 0.49783 0.0
H658 H 0.3347 0.58268 0.0827 0.0
H659 H 0.31807 0.59235 0.19964 0.0
H660 H 0.24775 0.56789 0.19131 0.0
H661 H 0.25607 0.61995 0.05613 0.0
H662 H 0.24319 0.58959 0.01656 0.0
H663 H 0.29293 0.59703 0.03272 0.0
H664 H 0.29349 0.52346 0.03896 0.0
H665 H 0.24352 0.51556 0.02247 0.0
H666 H 0.25664 0.49587 0.06581 0.0
H667 H 0.17738 0.55609 0.16812 0.0
H668 H 0.11563 0.55852 0.13264 0.0
H669 H 0.17965 0.55654 0.03138 0.0
C670 C 0.31646 0.57786 0.10661 0.0
C671 C 0.3314 0.58872 0.14175 0.0
C672 C 0.30694 0.58335 0.17258 0.0
C673 C 0.26707 0.56951 0.16805 0.0
C674 C 0.25261 0.56069 0.1326 0.0
C675 C 0.2769 0.56399 0.10248 0.0
C676 C 0.25393 0.55811 0.06689 0.0
C677 C 0.262 0.59326 0.04165 0.0
C678 C 0.2624 0.52104 0.04739 0.0
C679 C 0.21282 0.55401 0.08137 0.0
C680 C 0.21233 0.55443 0.11932 0.0
C681 C 0.17743 0.55487 0.13844 0.0
C682 C 0.14251 0.55613 0.11819 0.0
C683 C 0.14322 0.55757 0.07945 0.0
C684 C 0.17849 0.55511 0.06104 0.0
H685 H 0.18102 0.48805 0.57538 0.0
H686 H 0.18797 0.48276 0.69378 0.0
H687 H 0.25593 0.51586 0.69253 0.0
H688 H 0.26792 0.46142 0.55904 0.0
H689 H 0.28011 0.49166 0.52002 0.0
H690 H 0.22982 0.4778 0.531 0.0
H691 H 0.21809 0.54942 0.53459 0.0
H692 H 0.26856 0.56363 0.5232 0.0
H693 H 0.24868 0.58221 0.56423 0.0
H694 H 0.3273 0.5365 0.67668 0.0
H695 H 0.39279 0.54173 0.64814 0.0
H696 H 0.33769 0.53342 0.54042 0.0
C697 C 0.19638 0.49547 0.60108 0.0
C698 C 0.17947 0.48342 0.63465 0.0
C699 C 0.20041 0.49252 0.66785 0.0
C700 C 0.23898 0.51124 0.66732 0.0
C701 C 0.25569 0.52113 0.6334 0.0
C702 C 0.2346 0.51407 0.60091 0.0
C703 C 0.26016 0.52212 0.56783 0.0
C704 C 0.25947 0.48611 0.54307 0.0
C705 C 0.24816 0.55639 0.5462 0.0
C706 C 0.29948 0.53231 0.58654 0.0
C707 C 0.29648 0.53268 0.62436 0.0
C708 C 0.32981 0.53727 0.64712 0.0
C709 C 0.36689 0.54031 0.63076 0.0
C710 C 0.37006 0.53823 0.59216 0.0
C711 C 0.33597 0.53552 0.57002 0.0
H712 H 0.94223 0.81191 0.89858 0.0
H713 H 0.96065 0.88918 0.99259 0.0
H714 H 0.97476 0.83498 0.0314 0.0
H715 H 0.89919 0.72654 0.94784 0.0
H716 H 0.92398 0.69448 0.92016 0.0
H717 H 0.91091 0.73846 0.9009 0.0
H718 H 0.98318 0.75864 0.88335 0.0
H719 H 0.99635 0.71469 0.90231 0.0
H720 H 0.02088 0.76028 0.91834 0.0
H721 H 0.99292 0.77248 0.05902 0.0
H722 H 0.01515 0.70873 0.07116 0.0
H723 H 0.98598 0.6739 0.95894 0.0
C724 C 0.94905 0.81756 0.92735 0.0
C725 C 0.95004 0.85502 0.94238 0.0
C726 C 0.95887 0.86076 0.98036 0.0
C727 C 0.96712 0.8301 1.0027 0.0
C728 C 0.96636 0.79368 0.98681 0.0
C729 C 0.95751 0.78739 0.94995 0.0
C730 C 0.96122 0.74632 0.9388 0.0
C731 C 0.92145 0.72521 0.92619 0.0
C732 C 0.99226 0.74492 0.90895 0.0
C733 C 0.97448 0.73068 0.97486 0.0
C734 C 0.97683 0.75815 1.00249 0.0
C735 C 0.9906 0.75062 0.03769 0.0
C736 C 0.003 0.71441 0.04447 0.0
C737 C 1.00133 0.68641 0.01619 0.0
C738 C 0.98654 0.69463 0.98123 0.0
H739 H 0.47768 0.71025 0.10038 0.0
H740 H 0.35722 0.72306 0.12658 0.0
H741 H 0.36722 0.78976 0.10483 0.0
H742 H 0.51534 0.79674 0.13862 0.0
H743 H 0.55406 0.80702 0.10603 0.0
H744 H 0.53492 0.75805 0.11506 0.0
H745 H 0.51958 0.74676 0.04561 0.0
H746 H 0.53853 0.79598 0.03645 0.0
H747 H 0.48956 0.77758 0.02182 0.0
H748 H 0.39238 0.85769 0.08716 0.0
H749 H 0.43241 0.92135 0.08287 0.0
H750 H 0.53716 0.86504 0.07504 0.0
C751 C 0.45315 0.72676 0.10136 0.0
C752 C 0.41654 0.71088 0.11505 0.0
C753 C 0.38533 0.73387 0.11539 0.0
C754 C 0.39072 0.77199 0.10312 0.0
C755 C 0.42751 0.78693 0.09074 0.0
C756 C 0.45826 0.76502 0.09009 0.0
C757 C 0.49631 0.78909 0.08098 0.0
C758 C 0.52692 0.78765 0.11202 0.0
C759 C 0.5119 0.7766 0.04401 0.0
C760 C 0.48254 0.82831 0.07835 0.0
C761 C 0.44254 0.82641 0.08269 0.0
C762 C 0.42364 0.85947 0.08332 0.0
C763 C 0.44647 0.89542 0.08082 0.0
C764 C 0.48763 0.8977 0.07873 0.0
C765 C 0.50563 0.86379 0.07644 0.0
H766 H 0.105 0.32647 0.6483 0.0
H767 H 0.11961 0.37568 0.54006 0.0
H768 H 0.1172 0.31004 0.51291 0.0
H769 H 0.16324 0.24531 0.63228 0.0
H770 H 0.13101 0.21334 0.65999 0.0
H771 H 0.13847 0.2641 0.67044 0.0
H772 H 0.06358 0.26669 0.66618 0.0
H773 H 0.05595 0.21608 0.65598 0.0
H774 H 0.03721 0.24954 0.62502 0.0
H775 H 0.10363 0.23808 0.49779 0.0
H776 H 0.08075 0.16827 0.49659 0.0
H777 H 0.08036 0.16786 0.61543 0.0
C778 C 0.10837 0.32329 0.61895 0.0
C779 C 0.11235 0.35561 0.59607 0.0
C780 C 0.11662 0.35088 0.55782 0.0
C781 C 0.11542 0.31385 0.54231 0.0
C782 C 0.11084 0.28223 0.56568 0.0
C783 C 0.10791 0.2868 0.60327 0.0
C784 C 0.10076 0.24861 0.62241 0.0
C785 C 0.13545 0.24249 0.64777 0.0
C786 C 0.06209 0.24504 0.64361 0.0
C787 C 0.09828 0.2217 0.58968 0.0
C788 C 0.10456 0.24134 0.55712 0.0
C789 C 0.09966 0.22237 0.5232 0.0
C790 C 0.08691 0.18262 0.52267 0.0
C791 C 0.07917 0.16247 0.55578 0.0
C792 C 0.08639 0.18226 0.58956 0.0
H793 H 0.54905 0.24713 0.51347 0.0
H794 H 0.67097 0.28923 0.49684 0.0
H795 H 0.65917 0.35402 0.51893 0.0
H796 H 0.50956 0.33086 0.48318 0.0
H797 H 0.47132 0.32725 0.51672 0.0
H798 H 0.49054 0.2846 0.50112 0.0
H799 H 0.50641 0.26831 0.56865 0.0
H800 H 0.48788 0.31143 0.58431 0.0
H801 H 0.537 0.30303 0.59641 0.0
H802 H 0.63279 0.41491 0.54155 0.0
H803 H 0.59309 0.46737 0.5557 0.0
H804 H 0.4889 0.38443 0.55818 0.0
C805 C 0.5731 0.27017 0.51429 0.0
C806 C 0.61075 0.26374 0.50316 0.0
C807 C 0.6418 0.29408 0.50491 0.0
C808 C 0.63542 0.33075 0.51773 0.0
C809 C 0.59789 0.33627 0.52894 0.0
C810 C 0.56722 0.30681 0.52708 0.0
C811 C 0.52938 0.32041 0.5393 0.0
C812 C 0.49839 0.3155 0.50823 0.0
C813 C 0.51429 0.29954 0.57424 0.0
C814 C 0.54316 0.36238 0.54725 0.0
C815 C 0.5829 0.37095 0.54185 0.0
C816 C 0.60172 0.4084 0.54613 0.0
C817 C 0.57903 0.43799 0.55462 0.0
C818 C 0.53801 0.42992 0.55854 0.0
C819 C 0.52028 0.39142 0.55582 0.0
loop_
_geom_bond_atom_site_label_1
_geom_bond_atom_site_label_2
_geom_bond_distance
_geom_bond_site_symmetry_2
_ccdc_geom_bond_type
H0 C3 0.929 . S
H1 C6 0.929 . S
H2 C8 0.930 . S
C3 H0 0.929 . S
C3 C4 1.398 . S
C3 C5 1.396 . S
C4 C3 1.398 . S
C4 C8 1.407 . S
C5 C3 1.396 . S
C5 C6 1.394 . S
C6 H1 0.929 . S
C6 C5 1.394 . S
C6 C7 1.382 . S
C7 C6 1.382 . S
C7 C8 1.392 . S
C7 N9 1.420 . S
C8 H2 0.930 . S
C8 C4 1.407 . S
C8 C7 1.392 . S
N9 C7 1.420 . S
N9 C10 1.244 . S
C10 N9 1.244 . S
H11 C14 0.929 . S
H12 C17 0.929 . S
H13 C19 0.930 . S
C14 H11 0.929 . S
C14 C15 1.398 . S
C14 C16 1.396 . S
C15 C14 1.398 . S
C15 C19 1.407 . S
C16 C14 1.396 . S
C16 C17 1.394 . S
C17 H12 0.929 . S
C17 C16 1.394 . S
C17 C18 1.382 . S
C18 C17 1.382 . S
C18 C19 1.392 . S
C18 N20 1.420 . S
C19 H13 0.930 . S
C19 C15 1.407 . S
C19 C18 1.392 . S
N20 C18 1.420 . S
N20 C21 1.244 . S
C21 N20 1.244 . S
H22 C25 0.929 . S
H23 C28 0.929 . S
H24 C30 0.930 . S
C25 H22 0.929 . S
C25 C26 1.398 . S
C25 C27 1.396 . S
C26 C25 1.398 . S
C26 C30 1.407 . S
C27 C25 1.396 . S
C27 C28 1.394 . S
C28 H23 0.929 . S
C28 C27 1.394 . S
C28 C29 1.382 . S
C29 C28 1.382 . S
C29 C30 1.392 . S
C29 N31 1.420 . S
C30 H24 0.930 . S
C30 C26 1.407 . S
C30 C29 1.392 . S
N31 C29 1.420 . S
N31 C32 1.244 . S
C32 N31 1.244 . S
H33 C36 0.929 . S
H34 C39 0.929 . S
H35 C41 0.930 . S
C36 H33 0.929 . S
C36 C37 1.398 . S
C36 C38 1.396 . S
C37 C36 1.398 . S
C37 C41 1.407 . S
C38 C36 1.396 . S
C38 C39 1.394 . S
C39 H34 0.929 . S
C39 C38 1.394 . S
C39 C40 1.382 . S
C40 C39 1.382 . S
C40 C41 1.392 . S
C40 N42 1.420 . S
C41 H35 0.930 . S
C41 C37 1.407 . S
C41 C40 1.392 . S
N42 C40 1.420 . S
N42 C43 1.244 . S
C43 N42 1.244 . S
H44 C47 0.929 . S
H45 C50 0.929 . S
H46 C52 0.930 1_545 S
C47 H44 0.929 . S
C47 C48 1.398 . S
C47 C49 1.396 . S
C48 C47 1.398 . S
C48 C52 1.407 . S
C49 C47 1.396 . S
C49 C50 1.394 . S
C50 H45 0.929 . S
C50 C49 1.394 . S
C50 C51 1.382 . S
C51 C50 1.382 . S
C51 C52 1.392 . S
C51 N53 1.420 1_565 S
C52 H46 0.930 1_565 S
C52 C48 1.407 . S
C52 C51 1.392 . S
N53 C51 1.420 1_545 S
N53 C54 1.244 1_545 S
C54 N53 1.244 1_565 S
H55 C58 0.929 . S
H56 C61 0.929 . S
H57 C63 0.930 . S
C58 H55 0.929 . S
C58 C59 1.398 . S
C58 C60 1.396 . S
C59 C58 1.398 . S
C59 C63 1.407 . S
C60 C58 1.396 . S
C60 C61 1.394 . S
C61 H56 0.929 . S
C61 C60 1.394 . S
C61 C62 1.382 . S
C62 C61 1.382 . S
C62 C63 1.392 . S
C62 N64 1.420 . S
C63 H57 0.930 . S
C63 C59 1.407 . S
C63 C62 1.392 . S
N64 C62 1.420 . S
N64 C65 1.244 . S
C65 N64 1.244 . S
H66 C69 0.929 . S
H67 C72 0.929 . S
H68 C74 0.930 . S
C69 H66 0.929 . S
C69 C70 1.398 . S
C69 C71 1.396 . S
C70 C69 1.398 . S
C70 C74 1.407 . S
C71 C69 1.396 . S
C71 C72 1.394 . S
C72 H67 0.929 . S
C72 C71 1.394 . S
C72 C73 1.382 . S
C73 C72 1.382 . S
C73 C74 1.392 . S
C73 N75 1.420 . S
C74 H68 0.930 . S
C74 C70 1.407 . S
C74 C73 1.392 . S
N75 C73 1.420 . S
N75 C76 1.244 . S
C76 N75 1.244 . S
H77 C80 0.929 . S
H78 C83 0.929 . S
H79 C85 0.930 . S
C80 H77 0.929 . S
C80 C81 1.398 . S
C80 C82 1.396 . S
C81 C80 1.398 . S
C81 C85 1.407 . S
C82 C80 1.396 . S
C82 C83 1.394 . S
C83 H78 0.929 . S
C83 C82 1.394 . S
C83 C84 1.382 . S
C84 C83 1.382 . S
C84 C85 1.392 . S
C84 N86 1.420 . S
C85 H79 0.930 . S
C85 C81 1.407 . S
C85 C84 1.392 . S
N86 C84 1.420 . S
N86 C87 1.244 . S
C87 N86 1.244 . S
Zn88 O94 1.920 . S
Zn88 O100 1.898 . S
Zn88 O103 1.905 . S
Zn89 O97 1.905 1_565 S
Zn89 O98 1.898 . S
Zn89 O106 1.920 . S
Zn90 O93 2.080 1_455 S
Zn90 O96 2.114 . S
Zn90 O99 2.120 1_445 S
Zn90 O101 2.120 . S
Zn90 O102 2.114 1_455 S
Zn90 O105 2.080 . S
C91 O96 1.166 . S
C91 O97 1.182 . S
C92 O98 1.167 1_655 S
C92 O99 1.299 . S
O93 Zn90 2.080 1_655 S
O93 C107 1.305 . S
O94 Zn88 1.920 . S
O94 C107 1.234 . S
C95 O100 1.167 1_455 S
C95 O101 1.299 . S
O96 Zn90 2.114 . S
O96 C91 1.166 . S
O97 Zn89 1.905 1_545 S
O97 C91 1.182 . S
O98 Zn89 1.898 . S
O98 C92 1.167 1_455 S
O99 Zn90 2.120 1_665 S
O99 C92 1.299 . S
O100 Zn88 1.898 . S
O100 C95 1.167 1_655 S
O101 Zn90 2.120 . S
O101 C95 1.299 . S
O102 Zn90 2.114 1_655 S
O102 C104 1.166 . S
O103 Zn88 1.905 . S
O103 C104 1.182 . S
C104 O102 1.166 . S
C104 O103 1.182 . S
O105 Zn90 2.080 . S
O105 C108 1.305 1_545 S
O106 Zn89 1.920 . S
O106 C108 1.234 . S
C107 O93 1.305 . S
C107 O94 1.234 . S
C108 O105 1.305 1_565 S
C108 O106 1.234 . S
Zn109 O115 1.920 . S
Zn109 O121 1.893 1_554 S
Zn109 O124 1.905 1_554 S
Zn110 O118 1.905 . S
Zn110 O119 1.898 . S
Zn110 O127 1.920 . S
Zn111 O114 2.080 . S
Zn111 O117 2.116 . S
Zn111 O120 2.120 1_545 S
Zn111 O122 2.120 . S
Zn111 O123 2.114 . S
Zn111 O126 2.080 . S
C112 O117 1.165 1_565 S
C112 O118 1.186 . S
C113 O119 1.167 . S
C113 O120 1.299 . S
O114 Zn111 2.080 . S
O114 C128 1.305 . S
O115 Zn109 1.920 . S
O115 C128 1.234 . S
C116 O121 1.152 1_554 S
C116 O122 1.299 . S
O117 Zn111 2.116 . S
O117 C112 1.165 1_545 S
O118 Zn110 1.905 . S
O118 C112 1.186 . S
O119 Zn110 1.898 . S
O119 C113 1.167 . S
O120 Zn111 2.120 1_565 S
O120 C113 1.299 . S
O121 Zn109 1.893 1_556 S
O121 C116 1.152 1_556 S
O122 Zn111 2.120 . S
O122 C116 1.299 . S
O123 Zn111 2.114 . S
O123 C125 1.167 1_544 S
O124 Zn109 1.905 1_556 S
O124 C125 1.173 1_545 S
C125 O123 1.167 1_566 S
C125 O124 1.173 1_565 S
O126 Zn111 2.080 . S
O126 C129 1.305 . S
O127 Zn110 1.920 . S
O127 C129 1.234 1_565 S
C128 O114 1.305 . S
C128 O115 1.234 . S
C129 O126 1.305 . S
C129 O127 1.234 1_545 S
Zn130 O136 1.920 . S
Zn130 O142 1.898 . S
Zn130 O145 1.905 . S
Zn131 O139 1.905 . S
Zn131 O140 1.898 . S
Zn131 O148 1.920 . S
Zn132 O135 2.080 . S
Zn132 O138 2.114 . S
Zn132 O141 2.120 . S
Zn132 O143 2.120 . S
Zn132 O144 2.114 . S
Zn132 O147 2.080 . S
C133 O138 1.166 . S
C133 O139 1.182 . S
C134 O140 1.167 . S
C134 O141 1.299 . S
O135 Zn132 2.080 . S
O135 C149 1.305 . S
O136 Zn130 1.920 . S
O136 C149 1.234 . S
C137 O142 1.167 . S
C137 O143 1.299 . S
O138 Zn132 2.114 . S
O138 C133 1.166 . S
O139 Zn131 1.905 . S
O139 C133 1.182 . S
O140 Zn131 1.898 . S
O140 C134 1.167 . S
O141 Zn132 2.120 . S
O141 C134 1.299 . S
O142 Zn130 1.898 . S
O142 C137 1.167 . S
O143 Zn132 2.120 . S
O143 C137 1.299 . S
O144 Zn132 2.114 . S
O144 C146 1.166 . S
O145 Zn130 1.905 . S
O145 C146 1.182 . S
C146 O144 1.166 . S
C146 O145 1.182 . S
O147 Zn132 2.080 . S
O147 C150 1.305 . S
O148 Zn131 1.920 . S
O148 C150 1.234 . S
C149 O135 1.305 . S
C149 O136 1.234 . S
C150 O147 1.305 . S
C150 O148 1.234 . S
Zn151 O157 1.920 . S
Zn151 O163 1.898 . S
Zn151 O166 1.905 . S
Zn152 O160 1.905 1_655 S
Zn152 O161 1.898 . S
Zn152 O169 1.920 . S
Zn153 O156 2.080 1_554 S
Zn153 O159 2.114 . S
Zn153 O162 2.120 1_454 S
Zn153 O164 2.120 . S
Zn153 O165 2.114 1_554 S
Zn153 O168 2.080 . S
C154 O159 1.166 . S
C154 O160 1.182 . S
C155 O161 1.167 1_556 S
C155 O162 1.299 . S
O156 Zn153 2.080 1_556 S
O156 C170 1.305 . S
O157 Zn151 1.920 . S
O157 C170 1.234 . S
C158 O163 1.167 1_554 S
C158 O164 1.299 . S
O159 Zn153 2.114 . S
O159 C154 1.166 . S
O160 Zn152 1.905 1_455 S
O160 C154 1.182 . S
O161 Zn152 1.898 . S
O161 C155 1.167 1_554 S
O162 Zn153 2.120 1_656 S
O162 C155 1.299 . S
O163 Zn151 1.898 . S
O163 C158 1.167 1_556 S
O164 Zn153 2.120 . S
O164 C158 1.299 . S
O165 Zn153 2.114 1_556 S
O165 C167 1.166 . S
O166 Zn151 1.905 . S
O166 C167 1.182 . S
C167 O165 1.166 . S
C167 O166 1.182 . S
O168 Zn153 2.080 . S
O168 C171 1.305 1_455 S
O169 Zn152 1.920 . S
O169 C171 1.234 . S
C170 O156 1.305 . S
C170 O157 1.234 . S
C171 O168 1.305 1_655 S
C171 O169 1.234 . S
H172 C184 0.930 . S
H173 C186 0.930 . S
H174 C187 0.930 . S
H175 C191 0.959 . S
H176 C191 0.959 . S
H177 C191 0.961 . S
H178 C192 0.960 . S
H179 C192 0.961 . S
H180 C192 0.959 . S
H181 C195 0.929 . S
H182 C196 0.931 . S
H183 C198 0.930 . S
C184 H172 0.930 . S
C184 C185 1.399 . S
C184 C189 1.399 . S
C185 C184 1.399 . S
C185 C186 1.376 . S
C186 H173 0.930 . S
C186 C185 1.376 . S
C186 C187 1.388 . S
C187 H174 0.930 . S
C187 C186 1.388 . S
C187 C188 1.390 . S
C188 C187 1.390 . S
C188 C189 1.394 . S
C188 C194 1.465 . S
C189 C184 1.399 . S
C189 C188 1.394 . S
C189 C190 1.516 . S
C190 C189 1.516 . S
C190 C191 1.502 . S
C190 C192 1.561 . S
C190 C193 1.526 . S
C191 H175 0.959 . S
C191 H176 0.959 . S
C191 H177 0.961 . S
C191 C190 1.502 . S
C192 H178 0.960 . S
C192 H179 0.961 . S
C192 H180 0.959 . S
C192 C190 1.561 . S
C193 C190 1.526 . S
C193 C194 1.396 . S
C193 C198 1.390 . S
C194 C188 1.465 . S
C194 C193 1.396 . S
C194 C195 1.399 . S
C195 H181 0.929 . S
C195 C194 1.399 . S
C195 C196 1.385 . S
C196 H182 0.931 . S
C196 C195 1.385 . S
C196 C197 1.389 . S
C197 C196 1.389 . S
C197 C198 1.387 . S
C198 H183 0.930 . S
C198 C193 1.390 . S
C198 C197 1.387 . S
H199 C211 0.930 . S
H200 C213 0.930 . S
H201 C214 0.930 . S
H202 C218 0.959 1_565 S
H203 C218 0.959 . S
H204 C218 0.961 . S
H205 C219 0.960 . S
H206 C219 0.961 1_545 S
H207 C219 0.959 . S
H208 C222 0.929 . S
H209 C223 0.931 . S
H210 C225 0.930 1_545 S
C211 H199 0.930 . S
C211 C212 1.399 . S
C211 C216 1.399 . S
C212 C211 1.399 . S
C212 C213 1.376 . S
C213 H200 0.930 . S
C213 C212 1.376 . S
C213 C214 1.388 . S
C214 H201 0.930 . S
C214 C213 1.388 . S
C214 C215 1.390 . S
C215 C214 1.390 . S
C215 C216 1.394 . S
C215 C221 1.465 . S
C216 C211 1.399 . S
C216 C215 1.394 . S
C216 C217 1.516 . S
C217 C216 1.516 . S
C217 C218 1.502 1_565 S
C217 C219 1.561 . S
C217 C220 1.526 . S
C218 H202 0.959 1_545 S
C218 H203 0.959 . S
C218 H204 0.961 . S
C218 C217 1.502 1_545 S
C219 H205 0.960 . S
C219 H206 0.961 1_565 S
C219 H207 0.959 . S
C219 C217 1.561 . S
C220 C217 1.526 . S
C220 C221 1.396 . S
C220 C225 1.390 . S
C221 C215 1.465 . S
C221 C220 1.396 . S
C221 C222 1.399 . S
C222 H208 0.929 . S
C222 C221 1.399 . S
C222 C223 1.385 . S
C223 H209 0.931 . S
C223 C222 1.385 . S
C223 C224 1.389 . S
C224 C223 1.389 . S
C224 C225 1.387 . S
C225 H210 0.930 1_565 S
C225 C220 1.390 . S
C225 C224 1.387 . S
H226 C238 0.930 . S
H227 C240 0.930 . S
H228 C241 0.930 . S
H229 C245 0.959 . S
H230 C245 0.959 . S
H231 C245 0.961 . S
H232 C246 0.960 . S
H233 C246 0.961 . S
H234 C246 0.959 . S
H235 C249 0.929 . S
H236 C250 0.931 . S
H237 C252 0.930 . S
C238 H226 0.930 . S
C238 C239 1.399 . S
C238 C243 1.399 . S
C239 C238 1.399 . S
C239 C240 1.376 . S
C240 H227 0.930 . S
C240 C239 1.376 . S
C240 C241 1.388 . S
C241 H228 0.930 . S
C241 C240 1.388 . S
C241 C242 1.390 . S
C242 C241 1.390 . S
C242 C243 1.394 . S
C242 C248 1.465 . S
C243 C238 1.399 . S
C243 C242 1.394 . S
C243 C244 1.516 . S
C244 C243 1.516 . S
C244 C245 1.502 . S
C244 C246 1.561 . S
C244 C247 1.526 . S
C245 H229 0.959 . S
C245 H230 0.959 . S
C245 H231 0.961 . S
C245 C244 1.502 . S
C246 H232 0.960 . S
C246 H233 0.961 . S
C246 H234 0.959 . S
C246 C244 1.561 . S
C247 C244 1.526 . S
C247 C248 1.396 . S
C247 C252 1.390 . S
C248 C242 1.465 . S
C248 C247 1.396 . S
C248 C249 1.399 . S
C249 H235 0.929 . S
C249 C248 1.399 . S
C249 C250 1.385 . S
C250 H236 0.931 . S
C250 C249 1.385 . S
C250 C251 1.389 . S
C251 C250 1.389 . S
C251 C252 1.387 . S
C252 H237 0.930 . S
C252 C247 1.390 . S
C252 C251 1.387 . S
H253 C265 0.930 . S
H254 C267 0.930 . S
H255 C268 0.930 . S
H256 C272 0.959 1_455 S
H257 C272 0.959 1_455 S
H258 C272 0.961 . S
H259 C273 0.960 . S
H260 C273 0.961 . S
H261 C273 0.959 . S
H262 C276 0.929 . S
H263 C277 0.931 . S
H264 C279 0.930 . S
C265 H253 0.930 . S
C265 C266 1.399 . S
C265 C270 1.399 . S
C266 C265 1.399 . S
C266 C267 1.376 . S
C267 H254 0.930 . S
C267 C266 1.376 . S
C267 C268 1.388 . S
C268 H255 0.930 . S
C268 C267 1.388 . S
C268 C269 1.390 . S
C269 C268 1.390 . S
C269 C270 1.394 . S
C269 C275 1.465 . S
C270 C265 1.399 . S
C270 C269 1.394 . S
C270 C271 1.516 . S
C271 C270 1.516 . S
C271 C272 1.502 . S
C271 C273 1.561 . S
C271 C274 1.526 . S
C272 H256 0.959 1_655 S
C272 H257 0.959 1_655 S
C272 H258 0.961 . S
C272 C271 1.502 . S
C273 H259 0.960 . S
C273 H260 0.961 . S
C273 H261 0.959 . S
C273 C271 1.561 . S
C274 C271 1.526 . S
C274 C275 1.396 . S
C274 C279 1.390 . S
C275 C269 1.465 . S
C275 C274 1.396 . S
C275 C276 1.399 . S
C276 H262 0.929 . S
C276 C275 1.399 . S
C276 C277 1.385 . S
C277 H263 0.931 . S
C277 C276 1.385 . S
C277 C278 1.389 . S
C278 C277 1.389 . S
C278 C279 1.387 . S
C279 H264 0.930 . S
C279 C274 1.390 . S
C279 C278 1.387 . S
H280 C292 0.930 . S
H281 C294 0.930 . S
H282 C295 0.930 . S
H283 C299 0.959 . S
H284 C299 0.959 . S
H285 C299 0.961 . S
H286 C300 0.960 . S
H287 C300 0.961 . S
H288 C300 0.959 . S
H289 C303 0.929 . S
H290 C304 0.931 . S
H291 C306 0.930 . S
C292 H280 0.930 . S
C292 C293 1.399 . S
C292 C297 1.399 . S
C293 C292 1.399 . S
C293 C294 1.376 . S
C294 H281 0.930 . S
C294 C293 1.376 . S
C294 C295 1.388 . S
C295 H282 0.930 . S
C295 C294 1.388 . S
C295 C296 1.390 . S
C296 C295 1.390 . S
C296 C297 1.394 . S
C296 C302 1.465 . S
C297 C292 1.399 . S
C297 C296 1.394 . S
C297 C298 1.516 . S
C298 C297 1.516 . S
C298 C299 1.502 . S
C298 C300 1.561 . S
C298 C301 1.526 . S
C299 H283 0.959 . S
C299 H284 0.959 . S
C299 H285 0.961 . S
C299 C298 1.502 . S
C300 H286 0.960 . S
C300 H287 0.961 . S
C300 H288 0.959 . S
C300 C298 1.561 . S
C301 C298 1.526 . S
C301 C302 1.396 . S
C301 C306 1.390 . S
C302 C296 1.465 . S
C302 C301 1.396 . S
C302 C303 1.399 . S
C303 H289 0.929 . S
C303 C302 1.399 . S
C303 C304 1.385 . S
C304 H290 0.931 . S
C304 C303 1.385 . S
C304 C305 1.389 . S
C305 C304 1.389 . S
C305 C306 1.387 . S
C306 H291 0.930 . S
C306 C301 1.390 . S
C306 C305 1.387 . S
H307 C319 0.930 . S
H308 C321 0.930 . S
H309 C322 0.930 . S
H310 C326 0.959 . S
H311 C326 0.959 . S
H312 C326 0.961 . S
H313 C327 0.960 . S
H314 C327 0.961 . S
H315 C327 0.959 . S
H316 C330 0.929 . S
H317 C331 0.942 . S
H318 C333 0.930 . S
C319 H307 0.930 . S
C319 C320 1.399 . S
C319 C324 1.399 . S
C320 C319 1.399 . S
C320 C321 1.376 . S
C321 H308 0.930 . S
C321 C320 1.376 . S
C321 C322 1.388 . S
C322 H309 0.930 . S
C322 C321 1.388 . S
C322 C323 1.390 . S
C323 C322 1.390 . S
C323 C324 1.394 . S
C323 C329 1.465 . S
C324 C319 1.399 . S
C324 C323 1.394 . S
C324 C325 1.516 . S
C325 C324 1.516 . S
C325 C326 1.502 . S
C325 C327 1.561 . S
C325 C328 1.526 . S
C326 H310 0.959 . S
C326 H311 0.959 . S
C326 H312 0.961 . S
C326 C325 1.502 . S
C327 H313 0.960 . S
C327 H314 0.961 . S
C327 H315 0.959 . S
C327 C325 1.561 . S
C328 C325 1.526 . S
C328 C329 1.396 . S
C328 C333 1.390 . S
C329 C323 1.465 . S
C329 C328 1.396 . S
C329 C330 1.399 . S
C330 H316 0.929 . S
C330 C329 1.399 . S
C330 C331 1.385 . S
C331 H317 0.942 . S
C331 C330 1.385 . S
C331 C332 1.389 . S
C332 C331 1.389 . S
C332 C333 1.387 . S
C333 H318 0.930 . S
C333 C328 1.390 . S
C333 C332 1.387 . S
H334 C346 0.930 . S
H335 C348 0.930 . S
H336 C349 0.930 . S
H337 C353 0.959 . S
H338 C353 0.959 . S
H339 C353 0.961 . S
H340 C354 0.960 . S
H341 C354 0.961 1_554 S
H342 C354 0.959 1_554 S
H343 C357 0.929 . S
H344 C358 0.931 . S
H345 C360 0.930 . S
C346 H334 0.930 . S
C346 C347 1.399 . S
C346 C351 1.399 . S
C347 C346 1.399 . S
C347 C348 1.376 . S
C348 H335 0.930 . S
C348 C347 1.376 . S
C348 C349 1.388 . S
C349 H336 0.930 . S
C349 C348 1.388 . S
C349 C350 1.390 . S
C350 C349 1.390 . S
C350 C351 1.394 . S
C350 C356 1.465 . S
C351 C346 1.399 . S
C351 C350 1.394 . S
C351 C352 1.516 . S
C352 C351 1.516 . S
C352 C353 1.502 . S
C352 C354 1.561 . S
C352 C355 1.526 . S
C353 H337 0.959 . S
C353 H338 0.959 . S
C353 H339 0.961 . S
C353 C352 1.502 . S
C354 H340 0.960 . S
C354 H341 0.961 1_556 S
C354 H342 0.959 1_556 S
C354 C352 1.561 . S
C355 C352 1.526 . S
C355 C356 1.396 . S
C355 C360 1.390 . S
C356 C350 1.465 . S
C356 C355 1.396 . S
C356 C357 1.399 . S
C357 H343 0.929 . S
C357 C356 1.399 . S
C357 C358 1.385 . S
C358 H344 0.931 . S
C358 C357 1.385 . S
C358 C359 1.389 . S
C359 C358 1.389 . S
C359 C360 1.387 . S
C360 H345 0.930 . S
C360 C355 1.390 . S
C360 C359 1.387 . S
H361 C373 0.930 . S
H362 C375 0.930 . S
H363 C376 0.930 . S
H364 C380 0.959 . S
H365 C380 0.959 . S
H366 C380 0.961 . S
H367 C381 0.960 . S
H368 C381 0.961 . S
H369 C381 0.959 . S
H370 C384 0.929 . S
H371 C385 0.931 . S
H372 C387 0.930 . S
C373 H361 0.930 . S
C373 C374 1.399 . S
C373 C378 1.399 . S
C374 C373 1.399 . S
C374 C375 1.376 . S
C375 H362 0.930 . S
C375 C374 1.376 . S
C375 C376 1.388 . S
C376 H363 0.930 . S
C376 C375 1.388 . S
C376 C377 1.390 . S
C377 C376 1.390 . S
C377 C378 1.394 . S
C377 C383 1.465 . S
C378 C373 1.399 . S
C378 C377 1.394 . S
C378 C379 1.516 . S
C379 C378 1.516 . S
C379 C380 1.502 . S
C379 C381 1.561 . S
C379 C382 1.526 . S
C380 H364 0.959 . S
C380 H365 0.959 . S
C380 H366 0.961 . S
C380 C379 1.502 . S
C381 H367 0.960 . S
C381 H368 0.961 . S
C381 H369 0.959 . S
C381 C379 1.561 . S
C382 C379 1.526 . S
C382 C383 1.396 . S
C382 C387 1.390 . S
C383 C377 1.465 . S
C383 C382 1.396 . S
C383 C384 1.399 . S
C384 H370 0.929 . S
C384 C383 1.399 . S
C384 C385 1.385 . S
C385 H371 0.931 . S
C385 C384 1.385 . S
C385 C386 1.389 . S
C386 C385 1.389 . S
C386 C387 1.387 . S
C387 H372 0.930 . S
C387 C382 1.390 . S
C387 C386 1.387 . S
H388 C400 0.930 . S
H389 C402 0.930 . S
H390 C403 0.930 . S
H391 C407 0.959 . S
H392 C407 0.959 . S
H393 C407 0.961 . S
H394 C408 0.960 . S
H395 C408 0.961 . S
H396 C408 0.959 . S
H397 C411 0.929 . S
H398 C412 0.931 . S
H399 C414 0.930 . S
C400 H388 0.930 . S
C400 C401 1.399 . S
C400 C405 1.399 . S
C401 C400 1.399 . S
C401 C402 1.376 . S
C402 H389 0.930 . S
C402 C401 1.376 . S
C402 C403 1.388 . S
C403 H390 0.930 . S
C403 C402 1.388 . S
C403 C404 1.390 . S
C404 C403 1.390 . S
C404 C405 1.394 . S
C404 C410 1.465 . S
C405 C400 1.399 . S
C405 C404 1.394 . S
C405 C406 1.516 . S
C406 C405 1.516 . S
C406 C407 1.502 . S
C406 C408 1.561 . S
C406 C409 1.526 . S
C407 H391 0.959 . S
C407 H392 0.959 . S
C407 H393 0.961 . S
C407 C406 1.502 . S
C408 H394 0.960 . S
C408 H395 0.961 . S
C408 H396 0.959 . S
C408 C406 1.561 . S
C409 C406 1.526 . S
C409 C410 1.396 . S
C409 C414 1.390 . S
C410 C404 1.465 . S
C410 C409 1.396 . S
C410 C411 1.399 . S
C411 H397 0.929 . S
C411 C410 1.399 . S
C411 C412 1.385 . S
C412 H398 0.931 . S
C412 C411 1.385 . S
C412 C413 1.389 . S
C413 C412 1.389 . S
C413 C414 1.387 . S
C414 H399 0.930 . S
C414 C409 1.390 . S
C414 C413 1.387 . S
H415 C427 0.930 . S
H416 C429 0.930 . S
H417 C430 0.930 . S
H418 C434 0.959 . S
H419 C434 0.959 . S
H420 C434 0.961 . S
H421 C435 0.960 . S
H422 C435 0.961 1_554 S
H423 C435 0.959 1_554 S
H424 C438 0.929 . S
H425 C439 0.931 . S
H426 C441 0.930 . S
C427 H415 0.930 . S
C427 C428 1.399 . S
C427 C432 1.399 . S
C428 C427 1.399 . S
C428 C429 1.376 . S
C429 H416 0.930 . S
C429 C428 1.376 . S
C429 C430 1.388 . S
C430 H417 0.930 . S
C430 C429 1.388 . S
C430 C431 1.390 . S
C431 C430 1.390 . S
C431 C432 1.394 . S
C431 C437 1.465 . S
C432 C427 1.399 . S
C432 C431 1.394 . S
C432 C433 1.516 . S
C433 C432 1.516 . S
C433 C434 1.502 . S
C433 C435 1.561 . S
C433 C436 1.526 . S
C434 H418 0.959 . S
C434 H419 0.959 . S
C434 H420 0.961 . S
C434 C433 1.502 . S
C435 H421 0.960 . S
C435 H422 0.961 1_556 S
C435 H423 0.959 1_556 S
C435 C433 1.561 . S
C436 C433 1.526 . S
C436 C437 1.396 . S
C436 C441 1.390 . S
C437 C431 1.465 . S
C437 C436 1.396 . S
C437 C438 1.399 . S
C438 H424 0.929 . S
C438 C437 1.399 . S
C438 C439 1.385 1_556 S
C439 H425 0.931 . S
C439 C438 1.385 1_554 S
C439 C440 1.389 . S
C440 C439 1.389 . S
C440 C441 1.387 1_554 S
C441 H426 0.930 . S
C441 C436 1.390 . S
C441 C440 1.387 1_556 S
H442 C454 0.930 . S
H443 C456 0.930 . S
H444 C457 0.930 . S
H445 C461 0.959 . S
H446 C461 0.959 . S
H447 C461 0.961 . S
H448 C462 0.960 . S
H449 C462 0.961 . S
H450 C462 0.959 . S
H451 C465 0.929 . S
H452 C466 0.931 . S
H453 C468 0.930 . S
C454 H442 0.930 . S
C454 C455 1.399 . S
C454 C459 1.399 . S
C455 C454 1.399 . S
C455 C456 1.376 . S
C456 H443 0.930 . S
C456 C455 1.376 . S
C456 C457 1.388 . S
C457 H444 0.930 . S
C457 C456 1.388 . S
C457 C458 1.390 . S
C458 C457 1.390 . S
C458 C459 1.394 . S
C458 C464 1.465 . S
C459 C454 1.399 . S
C459 C458 1.394 . S
C459 C460 1.516 . S
C460 C459 1.516 . S
C460 C461 1.502 . S
C460 C462 1.561 . S
C460 C463 1.526 . S
C461 H445 0.959 . S
C461 H446 0.959 . S
C461 H447 0.961 . S
C461 C460 1.502 . S
C462 H448 0.960 . S
C462 H449 0.961 . S
C462 H450 0.959 . S
C462 C460 1.561 . S
C463 C460 1.526 . S
C463 C464 1.396 . S
C463 C468 1.390 . S
C464 C458 1.465 . S
C464 C463 1.396 . S
C464 C465 1.399 . S
C465 H451 0.929 . S
C465 C464 1.399 . S
C465 C466 1.385 . S
C466 H452 0.931 . S
C466 C465 1.385 . S
C466 C467 1.389 . S
C467 C466 1.389 . S
C467 C468 1.387 . S
C468 H453 0.930 . S
C468 C463 1.390 . S
C468 C467 1.387 . S
H469 C481 0.930 . S
H470 C483 0.930 . S
H471 C484 0.930 . S
H472 C488 0.959 . S
H473 C488 0.959 . S
H474 C488 0.961 . S
H475 C489 0.960 . S
H476 C489 0.961 . S
H477 C489 0.959 . S
H478 C492 0.929 . S
H479 C493 0.931 . S
H480 C495 0.930 . S
C481 H469 0.930 . S
C481 C482 1.399 . S
C481 C486 1.399 . S
C482 C481 1.399 . S
C482 C483 1.376 . S
C483 H470 0.930 . S
C483 C482 1.376 . S
C483 C484 1.388 . S
C484 H471 0.930 . S
C484 C483 1.388 . S
C484 C485 1.390 . S
C485 C484 1.390 . S
C485 C486 1.394 . S
C485 C491 1.465 . S
C486 C481 1.399 . S
C486 C485 1.394 . S
C486 C487 1.516 . S
C487 C486 1.516 . S
C487 C488 1.502 . S
C487 C489 1.561 . S
C487 C490 1.526 . S
C488 H472 0.959 . S
C488 H473 0.959 . S
C488 H474 0.961 . S
C488 C487 1.502 . S
C489 H475 0.960 . S
C489 H476 0.961 . S
C489 H477 0.959 . S
C489 C487 1.561 . S
C490 C487 1.526 . S
C490 C491 1.396 . S
C490 C495 1.390 . S
C491 C485 1.465 . S
C491 C490 1.396 . S
C491 C492 1.399 . S
C492 H478 0.929 . S
C492 C491 1.399 . S
C492 C493 1.385 . S
C493 H479 0.931 . S
C493 C492 1.385 . S
C493 C494 1.389 . S
C494 C493 1.389 . S
C494 C495 1.387 . S
C495 H480 0.930 . S
C495 C490 1.390 . S
C495 C494 1.387 . S
H496 C508 0.930 . S
H497 C510 0.930 . S
H498 C511 0.930 . S
H499 C515 0.959 . S
H500 C515 0.959 . S
H501 C515 0.961 . S
H502 C516 0.960 . S
H503 C516 0.961 . S
H504 C516 0.959 . S
H505 C519 0.929 . S
H506 C520 0.931 . S
H507 C522 0.930 . S
C508 H496 0.930 . S
C508 C509 1.399 . S
C508 C513 1.399 . S
C509 C508 1.399 . S
C509 C510 1.376 1_565 S
C510 H497 0.930 . S
C510 C509 1.376 1_545 S
C510 C511 1.388 . S
C511 H498 0.930 . S
C511 C510 1.388 . S
C511 C512 1.390 . S
C512 C511 1.390 . S
C512 C513 1.394 1_545 S
C512 C518 1.465 . S
C513 C508 1.399 . S
C513 C512 1.394 1_565 S
C513 C514 1.516 . S
C514 C513 1.516 . S
C514 C515 1.502 1_655 S
C514 C516 1.561 . S
C514 C517 1.526 . S
C515 H499 0.959 . S
C515 H500 0.959 . S
C515 H501 0.961 . S
C515 C514 1.502 1_455 S
C516 H502 0.960 . S
C516 H503 0.961 . S
C516 H504 0.959 . S
C516 C514 1.561 . S
C517 C514 1.526 . S
C517 C518 1.396 1_565 S
C517 C522 1.390 . S
C518 C512 1.465 . S
C518 C517 1.396 1_545 S
C518 C519 1.399 . S
C519 H505 0.929 . S
C519 C518 1.399 . S
C519 C520 1.385 . S
C520 H506 0.931 . S
C520 C519 1.385 . S
C520 C521 1.389 . S
C521 C520 1.389 . S
C521 C522 1.387 1_545 S
C522 H507 0.930 . S
C522 C517 1.390 . S
C522 C521 1.387 1_565 S
H523 C535 0.930 . S
H524 C537 0.930 . S
H525 C538 0.930 . S
H526 C542 0.959 1_545 S
H527 C542 0.959 . S
H528 C542 0.961 . S
H529 C543 0.960 . S
H530 C543 0.961 . S
H531 C543 0.959 . S
H532 C546 0.929 . S
H533 C547 0.931 . S
H534 C549 0.930 1_565 S
C535 H523 0.930 . S
C535 C536 1.399 . S
C535 C540 1.399 . S
C536 C535 1.399 . S
C536 C537 1.376 . S
C537 H524 0.930 . S
C537 C536 1.376 . S
C537 C538 1.388 . S
C538 H525 0.930 . S
C538 C537 1.388 . S
C538 C539 1.390 . S
C539 C538 1.390 . S
C539 C540 1.394 . S
C539 C545 1.465 . S
C540 C535 1.399 . S
C540 C539 1.394 . S
C540 C541 1.516 . S
C541 C540 1.516 . S
C541 C542 1.502 1_545 S
C541 C543 1.561 1_545 S
C541 C544 1.526 . S
C542 H526 0.959 1_565 S
C542 H527 0.959 . S
C542 H528 0.961 . S
C542 C541 1.502 1_565 S
C543 H529 0.960 . S
C543 H530 0.961 . S
C543 H531 0.959 . S
C543 C541 1.561 1_565 S
C544 C541 1.526 . S
C544 C545 1.396 . S
C544 C549 1.390 . S
C545 C539 1.465 . S
C545 C544 1.396 . S
C545 C546 1.399 . S
C546 H532 0.929 . S
C546 C545 1.399 . S
C546 C547 1.385 . S
C547 H533 0.931 . S
C547 C546 1.385 . S
C547 C548 1.389 . S
C548 C547 1.389 . S
C548 C549 1.387 . S
C549 H534 0.930 1_545 S
C549 C544 1.390 . S
C549 C548 1.387 . S
H550 C562 0.930 . S
H551 C564 0.930 . S
H552 C565 0.930 . S
H553 C569 0.959 . S
H554 C569 0.959 . S
H555 C569 0.961 . S
H556 C570 0.960 . S
H557 C570 0.961 . S
H558 C570 0.959 . S
H559 C573 0.929 . S
H560 C574 0.931 . S
H561 C576 0.930 . S
C562 H550 0.930 . S
C562 C563 1.399 . S
C562 C567 1.399 . S
C563 C562 1.399 . S
C563 C564 1.376 . S
C564 H551 0.930 . S
C564 C563 1.376 . S
C564 C565 1.388 . S
C565 H552 0.930 . S
C565 C564 1.388 . S
C565 C566 1.390 . S
C566 C565 1.390 . S
C566 C567 1.394 . S
C566 C572 1.465 . S
C567 C562 1.399 . S
C567 C566 1.394 . S
C567 C568 1.516 . S
C568 C567 1.516 . S
C568 C569 1.502 . S
C568 C570 1.561 . S
C568 C571 1.526 . S
C569 H553 0.959 . S
C569 H554 0.959 . S
C569 H555 0.961 . S
C569 C568 1.502 . S
C570 H556 0.960 . S
C570 H557 0.961 . S
C570 H558 0.959 . S
C570 C568 1.561 . S
C571 C568 1.526 . S
C571 C572 1.396 . S
C571 C576 1.390 . S
C572 C566 1.465 . S
C572 C571 1.396 . S
C572 C573 1.399 . S
C573 H559 0.929 . S
C573 C572 1.399 . S
C573 C574 1.385 . S
C574 H560 0.931 . S
C574 C573 1.385 . S
C574 C575 1.389 . S
C575 C574 1.389 . S
C575 C576 1.387 . S
C576 H561 0.930 . S
C576 C571 1.390 . S
C576 C575 1.387 . S
H577 C589 0.930 . S
H578 C591 0.930 . S
H579 C592 0.930 . S
H580 C596 0.959 1_655 S
H581 C596 0.965 . S
H582 C596 0.961 . S
H583 C597 0.960 . S
H584 C597 0.961 . S
H585 C597 0.959 . S
H586 C600 0.929 . S
H587 C601 0.931 . S
H588 C603 0.930 . S
C589 H577 0.930 . S
C589 C590 1.399 . S
C589 C594 1.399 . S
C590 C589 1.399 . S
C590 C591 1.376 . S
C591 H578 0.930 . S
C591 C590 1.376 . S
C591 C592 1.388 . S
C592 H579 0.930 . S
C592 C591 1.388 . S
C592 C593 1.390 . S
C593 C592 1.390 . S
C593 C594 1.394 . S
C593 C599 1.465 . S
C594 C589 1.399 . S
C594 C593 1.394 . S
C594 C595 1.516 . S
C595 C594 1.516 . S
C595 C596 1.502 . S
C595 C597 1.561 . S
C595 C598 1.526 . S
C596 H580 0.959 1_455 S
C596 H581 0.965 . S
C596 H582 0.961 . S
C596 C595 1.502 . S
C597 H583 0.960 . S
C597 H584 0.961 . S
C597 H585 0.959 . S
C597 C595 1.561 . S
C598 C595 1.526 . S
C598 C599 1.396 . S
C598 C603 1.390 . S
C599 C593 1.465 . S
C599 C598 1.396 . S
C599 C600 1.399 . S
C600 H586 0.929 . S
C600 C599 1.399 . S
C600 C601 1.385 . S
C601 H587 0.931 . S
C601 C600 1.385 . S
C601 C602 1.389 . S
C602 C601 1.389 . S
C602 C603 1.387 . S
C603 H588 0.930 . S
C603 C598 1.390 . S
C603 C602 1.387 . S
H604 C616 0.930 . S
H605 C618 0.930 . S
H606 C619 0.930 . S
H607 C623 0.959 . S
H608 C623 0.959 . S
H609 C623 0.961 . S
H610 C624 0.960 . S
H611 C624 0.961 . S
H612 C624 0.959 . S
H613 C627 0.941 . S
H614 C628 0.931 . S
H615 C630 0.930 . S
C616 H604 0.930 . S
C616 C617 1.399 . S
C616 C621 1.399 . S
C617 C616 1.399 . S
C617 C618 1.378 1_564 S
C618 H605 0.930 . S
C618 C617 1.378 1_546 S
C618 C619 1.388 . S
C619 H606 0.930 . S
C619 C618 1.388 . S
C619 C620 1.390 1_556 S
C620 C619 1.390 1_554 S
C620 C621 1.394 1_545 S
C620 C626 1.465 . S
C621 C616 1.399 . S
C621 C620 1.394 1_565 S
C621 C622 1.516 . S
C622 C621 1.516 . S
C622 C623 1.502 . S
C622 C624 1.561 . S
C622 C625 1.526 . S
C623 H607 0.959 . S
C623 H608 0.959 . S
C623 H609 0.961 . S
C623 C622 1.502 . S
C624 H610 0.960 . S
C624 H611 0.961 . S
C624 H612 0.959 . S
C624 C622 1.561 . S
C625 C622 1.526 . S
C625 C626 1.396 1_565 S
C625 C630 1.390 . S
C626 C620 1.465 . S
C626 C625 1.396 1_545 S
C626 C627 1.399 . S
C627 H613 0.941 . S
C627 C626 1.399 . S
C627 C628 1.385 . S
C628 H614 0.931 . S
C628 C627 1.385 . S
C628 C629 1.389 . S
C629 C628 1.389 . S
C629 C630 1.387 1_545 S
C630 H615 0.930 . S
C630 C625 1.390 . S
C630 C629 1.387 1_565 S
H631 C643 0.930 . S
H632 C645 0.930 . S
H633 C646 0.930 . S
H634 C650 0.959 . S
H635 C650 0.959 . S
H636 C650 0.961 . S
H637 C651 0.960 . S
H638 C651 0.961 . S
H639 C651 0.959 . S
H640 C654 0.929 1_565 S
H641 C655 0.931 1_565 S
H642 C657 0.930 . S
C643 H631 0.930 . S
C643 C644 1.399 . S
C643 C648 1.399 . S
C644 C643 1.399 . S
C644 C645 1.376 . S
C645 H632 0.930 . S
C645 C644 1.376 . S
C645 C646 1.388 . S
C646 H633 0.930 . S
C646 C645 1.388 . S
C646 C647 1.390 . S
C647 C646 1.390 . S
C647 C648 1.394 . S
C647 C653 1.465 . S
C648 C643 1.399 . S
C648 C647 1.394 . S
C648 C649 1.516 . S
C649 C648 1.516 . S
C649 C650 1.502 . S
C649 C651 1.561 . S
C649 C652 1.526 . S
C650 H634 0.959 . S
C650 H635 0.959 . S
C650 H636 0.961 . S
C650 C649 1.502 . S
C651 H637 0.960 . S
C651 H638 0.961 . S
C651 H639 0.959 . S
C651 C649 1.561 . S
C652 C649 1.526 . S
C652 C653 1.396 . S
C652 C657 1.390 . S
C653 C647 1.465 . S
C653 C652 1.396 . S
C653 C654 1.399 . S
C654 H640 0.929 1_545 S
C654 C653 1.399 . S
C654 C655 1.385 . S
C655 H641 0.931 1_545 S
C655 C654 1.385 . S
C655 C656 1.389 . S
C656 C655 1.389 . S
C656 C657 1.387 . S
C657 H642 0.930 . S
C657 C652 1.390 . S
C657 C656 1.387 . S
H658 C670 0.930 . S
H659 C672 0.930 . S
H660 C673 0.930 . S
H661 C677 0.959 1_556 S
H662 C677 0.959 1_556 S
H663 C677 0.961 . S
H664 C678 0.960 . S
H665 C678 0.961 . S
H666 C678 0.959 . S
H667 C681 0.929 . S
H668 C682 0.931 . S
H669 C684 0.930 . S
C670 H658 0.930 . S
C670 C671 1.399 . S
C670 C675 1.399 . S
C671 C670 1.399 . S
C671 C672 1.376 . S
C672 H659 0.930 . S
C672 C671 1.376 . S
C672 C673 1.388 . S
C673 H660 0.930 . S
C673 C672 1.388 . S
C673 C674 1.390 . S
C674 C673 1.390 . S
C674 C675 1.394 . S
C674 C680 1.465 . S
C675 C670 1.399 . S
C675 C674 1.394 . S
C675 C676 1.516 . S
C676 C675 1.516 . S
C676 C677 1.502 . S
C676 C678 1.561 . S
C676 C679 1.526 . S
C677 H661 0.959 1_554 S
C677 H662 0.959 1_554 S
C677 H663 0.961 . S
C677 C676 1.502 . S
C678 H664 0.960 . S
C678 H665 0.961 . S
C678 H666 0.959 . S
C678 C676 1.561 . S
C679 C676 1.526 . S
C679 C680 1.396 . S
C679 C684 1.390 . S
C680 C674 1.465 . S
C680 C679 1.396 . S
C680 C681 1.399 . S
C681 H667 0.929 . S
C681 C680 1.399 . S
C681 C682 1.385 . S
C682 H668 0.931 . S
C682 C681 1.385 . S
C682 C683 1.389 . S
C683 C682 1.389 . S
C683 C684 1.387 . S
C684 H669 0.930 . S
C684 C679 1.390 . S
C684 C683 1.387 . S
H685 C697 0.930 . S
H686 C699 0.930 . S
H687 C700 0.930 . S
H688 C704 0.959 . S
H689 C704 0.959 . S
H690 C704 0.961 . S
H691 C705 0.960 . S
H692 C705 0.961 . S
H693 C705 0.959 . S
H694 C708 0.929 . S
H695 C709 0.931 . S
H696 C711 0.930 . S
C697 H685 0.930 . S
C697 C698 1.399 . S
C697 C702 1.399 . S
C698 C697 1.399 . S
C698 C699 1.376 . S
C699 H686 0.930 . S
C699 C698 1.376 . S
C699 C700 1.388 . S
C700 H687 0.930 . S
C700 C699 1.388 . S
C700 C701 1.390 . S
C701 C700 1.390 . S
C701 C702 1.394 . S
C701 C707 1.465 . S
C702 C697 1.399 . S
C702 C701 1.394 . S
C702 C703 1.516 . S
C703 C702 1.516 . S
C703 C704 1.502 . S
C703 C705 1.561 . S
C703 C706 1.526 . S
C704 H688 0.959 . S
C704 H689 0.959 . S
C704 H690 0.961 . S
C704 C703 1.502 . S
C705 H691 0.960 . S
C705 H692 0.961 . S
C705 H693 0.959 . S
C705 C703 1.561 . S
C706 C703 1.526 . S
C706 C707 1.396 . S
C706 C711 1.390 . S
C707 C701 1.465 . S
C707 C706 1.396 . S
C707 C708 1.399 . S
C708 H694 0.929 . S
C708 C707 1.399 . S
C708 C709 1.385 . S
C709 H695 0.931 . S
C709 C708 1.385 . S
C709 C710 1.389 . S
C710 C709 1.389 . S
C710 C711 1.387 . S
C711 H696 0.930 . S
C711 C706 1.390 . S
C711 C710 1.387 . S
H712 C724 0.930 . S
H713 C726 0.930 . S
H714 C727 0.930 . S
H715 C731 0.959 . S
H716 C731 0.959 . S
H717 C731 0.961 . S
H718 C732 0.960 . S
H719 C732 0.961 . S
H720 C732 0.959 . S
H721 C735 0.929 . S
H722 C736 0.931 . S
H723 C738 0.930 . S
C724 H712 0.930 . S
C724 C725 1.399 . S
C724 C729 1.399 . S
C725 C724 1.399 . S
C725 C726 1.376 1_556 S
C726 H713 0.930 . S
C726 C725 1.376 1_554 S
C726 C727 1.388 1_655 S
C727 H714 0.930 . S
C727 C726 1.388 1_455 S
C727 C728 1.390 1_554 S
C728 C727 1.390 1_556 S
C728 C729 1.394 1_455 S
C728 C734 1.465 1_556 S
C729 C724 1.399 . S
C729 C728 1.394 1_655 S
C729 C730 1.516 . S
C730 C729 1.516 . S
C730 C731 1.502 . S
C730 C732 1.561 1_655 S
C730 C733 1.526 1_655 S
C731 H715 0.959 . S
C731 H716 0.959 . S
C731 H717 0.961 . S
C731 C730 1.502 . S
C732 H718 0.960 . S
C732 H719 0.961 . S
C732 H720 0.959 . S
C732 C730 1.561 1_455 S
C733 C730 1.526 1_455 S
C733 C734 1.395 1_556 S
C733 C738 1.390 . S
C734 C728 1.465 1_554 S
C734 C733 1.395 1_554 S
C734 C735 1.399 . S
C735 H721 0.929 . S
C735 C734 1.399 . S
C735 C736 1.385 . S
C736 H722 0.931 . S
C736 C735 1.385 . S
C736 C737 1.389 1_554 S
C737 C736 1.389 1_556 S
C737 C738 1.387 . S
C738 H723 0.930 . S
C738 C733 1.390 . S
C738 C737 1.387 . S
H739 C751 0.930 . S
H740 C753 0.930 . S
H741 C754 0.930 . S
H742 C758 0.959 . S
H743 C758 0.959 . S
H744 C758 0.961 . S
H745 C759 0.960 . S
H746 C759 0.961 . S
H747 C759 0.959 . S
H748 C762 0.929 . S
H749 C763 0.931 . S
H750 C765 0.930 . S
C751 H739 0.930 . S
C751 C752 1.399 . S
C751 C756 1.399 . S
C752 C751 1.399 . S
C752 C753 1.376 . S
C753 H740 0.930 . S
C753 C752 1.376 . S
C753 C754 1.388 . S
C754 H741 0.930 . S
C754 C753 1.388 . S
C754 C755 1.390 . S
C755 C754 1.390 . S
C755 C756 1.394 . S
C755 C761 1.465 . S
C756 C751 1.399 . S
C756 C755 1.394 . S
C756 C757 1.516 . S
C757 C756 1.516 . S
C757 C758 1.502 . S
C757 C759 1.561 . S
C757 C760 1.526 . S
C758 H742 0.959 . S
C758 H743 0.959 . S
C758 H744 0.961 . S
C758 C757 1.502 . S
C759 H745 0.960 . S
C759 H746 0.961 . S
C759 H747 0.959 . S
C759 C757 1.561 . S
C760 C757 1.526 . S
C760 C761 1.396 . S
C760 C765 1.390 . S
C761 C755 1.465 . S
C761 C760 1.396 . S
C761 C762 1.399 . S
C762 H748 0.929 . S
C762 C761 1.399 . S
C762 C763 1.385 . S
C763 H749 0.931 . S
C763 C762 1.385 . S
C763 C764 1.389 . S
C764 C763 1.389 . S
C764 C765 1.387 . S
C765 H750 0.930 . S
C765 C760 1.390 . S
C765 C764 1.387 . S
H766 C778 0.930 . S
H767 C780 0.930 . S
H768 C781 0.930 . S
H769 C785 0.959 . S
H770 C785 0.959 . S
H771 C785 0.961 . S
H772 C786 0.960 . S
H773 C786 0.961 . S
H774 C786 0.959 . S
H775 C789 0.929 . S
H776 C790 0.931 . S
H777 C792 0.930 . S
C778 H766 0.930 . S
C778 C779 1.399 . S
C778 C783 1.399 . S
C779 C778 1.399 . S
C779 C780 1.376 . S
C780 H767 0.930 . S
C780 C779 1.376 . S
C780 C781 1.388 . S
C781 H768 0.930 . S
C781 C780 1.388 . S
C781 C782 1.390 . S
C782 C781 1.390 . S
C782 C783 1.394 . S
C782 C788 1.465 . S
C783 C778 1.399 . S
C783 C782 1.394 . S
C783 C784 1.516 . S
C784 C783 1.516 . S
C784 C785 1.502 . S
C784 C786 1.561 . S
C784 C787 1.526 . S
C785 H769 0.959 . S
C785 H770 0.959 . S
C785 H771 0.961 . S
C785 C784 1.502 . S
C786 H772 0.960 . S
C786 H773 0.961 . S
C786 H774 0.959 . S
C786 C784 1.561 . S
C787 C784 1.526 . S
C787 C788 1.396 . S
C787 C792 1.390 . S
C788 C782 1.465 . S
C788 C787 1.396 . S
C788 C789 1.399 . S
C789 H775 0.929 . S
C789 C788 1.399 . S
C789 C790 1.385 . S
C790 H776 0.931 . S
C790 C789 1.385 . S
C790 C791 1.389 . S
C791 C790 1.389 . S
C791 C792 1.387 . S
C792 H777 0.930 . S
C792 C787 1.390 . S
C792 C791 1.387 . S
H793 C805 0.930 . S
H794 C807 0.930 . S
H795 C808 0.930 . S
H796 C812 0.959 . S
H797 C812 0.959 . S
H798 C812 0.961 . S
H799 C813 0.960 . S
H800 C813 0.961 . S
H801 C813 0.959 . S
H802 C816 0.929 . S
H803 C817 0.931 . S
H804 C819 0.930 . S
C805 H793 0.930 . S
C805 C806 1.399 . S
C805 C810 1.399 . S
C806 C805 1.399 . S
C806 C807 1.376 . S
C807 H794 0.930 . S
C807 C806 1.376 . S
C807 C808 1.388 . S
C808 H795 0.930 . S
C808 C807 1.388 . S
C808 C809 1.390 . S
C809 C808 1.390 . S
C809 C810 1.394 . S
C809 C815 1.465 . S
C810 C805 1.399 . S
C810 C809 1.394 . S
C810 C811 1.516 . S
C811 C810 1.516 . S
C811 C812 1.502 . S
C811 C813 1.561 . S
C811 C814 1.526 . S
C812 H796 0.959 . S
C812 H797 0.959 . S
C812 H798 0.961 . S
C812 C811 1.502 . S
C813 H799 0.960 . S
C813 H800 0.961 . S
C813 H801 0.959 . S
C813 C811 1.561 . S
C814 C811 1.526 . S
C814 C815 1.396 . S
C814 C819 1.390 . S
C815 C809 1.465 . S
C815 C814 1.396 . S
C815 C816 1.399 . S
C816 H802 0.929 . S
C816 C815 1.399 . S
C816 C817 1.385 . S
C817 H803 0.931 . S
C817 C816 1.385 . S
C817 C818 1.389 . S
C818 C817 1.389 . S
C818 C819 1.387 . S
C819 H804 0.930 . S
C819 C814 1.390 . S
C819 C818 1.387 . S
C185 C4 1.709 . S
C197 C91 1.564 . S
C212 C16 1.816 . S
C224 C125 1.733 . S
C251 C137 1.029 . S
C239 C32 1.116 . S
C266 C43 1.359 . S
C278 C171 1.279 . S
C305 C128 1.832 . S
C293 C5 1.973 . S
C332 C108 1.303 . S
C320 C21 1.321 . S
C359 C155 1.273 . S
C347 C27 1.387 . S
C386 C146 1.330 . S
C374 C37 1.420 . S
C401 C10 1.569 . S
C413 C154 1.458 . S
C440 C116 1.435 . S
C428 C26 1.601 . S
C455 C38 1.269 . S
C467 C92 1.163 . S
C482 C15 1.662 . S
C494 C149 1.563 . S
C521 C107 1.735 . S
C509 C48 1.890 . S
C536 C59 1.647 . S
C548 C129 1.603 . S
C563 C76 1.490 . S
C575 C134 1.449 . S
C590 C87 1.310 . S
C602 C167 1.230 . S
C617 C54 1.495 1_554 S
C629 C112 1.450 1_545 S
C656 C104 1.837 . S
C644 C60 1.964 . S
C683 C158 1.441 . S
C671 C71 1.450 . S
C710 C150 1.332 . S
C698 C82 1.411 . S
C725 C49 1.834 . S
C737 C170 1.732 . S
C764 C113 1.253 . S
C752 C70 1.319 . S
C791 C95 1.538 . S
C779 C81 1.674 . S
C806 C65 1.542 . S
C818 C133 1.490 . S
