# Generated by pormake.
# Topology ftw, (4,12)-cn, num edge types: 1
# Building blocks:
#     Node 0, Type 0, BuildingBlock: MUDLON_clean_linker_0, # of connection points: 4
#     Node 1, Type 0, BuildingBlock: MUDLON_clean_linker_0, # of connection points: 4
#     Node 2, Type 0, BuildingBlock: MUDLON_clean_linker_0, # of connection points: 4
#     Node 3, Type 1, BuildingBlock: QEWDON_clean_sbu_0, # of connection points: 12
#     Edge 4, Type (0, 1), BuildingBlock: TEMPAE_clean_linker_10, # of connection points: 2
#     Edge 5, Type (0, 1), BuildingBlock: TEMPAE_clean_linker_10, # of connection points: 2
#     Edge 6, Type (0, 1), BuildingBlock: TEMPAE_clean_linker_10, # of connection points: 2
#     Edge 7, Type (0, 1), BuildingBlock: TEMPAE_clean_linker_10, # of connection points: 2
#     Edge 8, Type (0, 1), BuildingBlock: TEMPAE_clean_linker_10, # of connection points: 2
#     Edge 9, Type (0, 1), BuildingBlock: TEMPAE_clean_linker_10, # of connection points: 2
#     Edge 10, Type (0, 1), BuildingBlock: TEMPAE_clean_linker_10, # of connection points: 2
#     Edge 11, Type (0, 1), BuildingBlock: TEMPAE_clean_linker_10, # of connection points: 2
#     Edge 12, Type (0, 1), BuildingBlock: TEMPAE_clean_linker_10, # of connection points: 2
#     Edge 13, Type (0, 1), BuildingBlock: TEMPAE_clean_linker_10, # of connection points: 2
#     Edge 14, Type (0, 1), BuildingBlock: TEMPAE_clean_linker_10, # of connection points: 2
#     Edge 15, Type (0, 1), BuildingBlock: TEMPAE_clean_linker_10, # of connection points: 2
# Relax obj value: 0.099
# Max RMSD: 0.251
# Mean RMSD: 0.184
data_MOF--net-ftw--node1-QEWDON_clean_sbu_0--node2-MUDLON_clean_linker_0--edge1-TEMPAE_clean_linker_10
_symmetry_space_group_name_H-M    P1
_symmetry_Int_Tables_number       1
_symmetry_cell_setting            triclinic
loop_
_symmetry_equiv_pos_as_xyz
'x, y, z'
_cell_length_a     29.293081
_cell_length_b     33.284158
_cell_length_c     31.644505
_cell_angle_alpha  90.29357
_cell_angle_beta   89.899075
_cell_angle_gamma 90.110286
loop_
_atom_site_label
_atom_site_type_symbol
_atom_site_fract_x
_atom_site_fract_y
_atom_site_fract_z
_atom_type_partial_charge
H0 H 0.92688 0.68263 0.54973 0.0
N1 N -0.01177 0.63892 0.50823 0.0
H2 H 0.93689 0.71966 0.61607 0.0
H3 H 0.06564 0.64083 0.55651 0.0
H4 H 0.07591 0.67701 0.62355 0.0
H5 H 0.06611 0.68007 0.48726 0.0
H6 H 0.07709 0.72299 0.42527 0.0
H7 H 0.9306 0.65027 0.44459 0.0
H8 H 0.94148 0.69267 0.38222 0.0
H9 H 0.92922 0.58131 0.52803 0.0
H10 H 0.06671 0.60037 0.48424 0.0
H11 H 0.9402 0.50863 0.52389 0.0
H12 H 0.07774 0.52761 0.47821 0.0
H13 H 0.94546 0.32854 0.52109 0.0
H14 H 0.92363 0.29231 0.58519 0.0
H15 H 0.06551 0.26555 0.60895 0.0
H16 H 0.08688 0.30169 0.54453 0.0
H17 H 0.10215 0.30839 0.44796 0.0
H18 H 0.09977 0.26902 0.38199 0.0
H19 H 0.95338 0.28234 0.37835 0.0
H20 H 0.95573 0.31994 0.44491 0.0
H21 H 0.95506 0.38268 0.47219 0.0
H22 H 0.94647 0.45521 0.47536 0.0
H23 H 0.08665 0.46678 0.51621 0.0
N24 N 0.03224 0.33938 0.49081 0.0
H25 H 0.09534 0.39372 0.51115 0.0
C26 C -0.00472 0.6589 0.5483 0.0
C27 C 0.95939 0.68117 0.56589 0.0
C28 C 0.96517 0.70212 0.60394 0.0
C29 C 0.00719 0.70127 0.62544 0.0
C30 C 0.04323 0.6787 0.60774 0.0
C31 C 0.03736 0.65774 0.56953 0.0
C32 C -0.00278 0.66219 0.47072 0.0
C33 C 0.03879 0.6826 0.4645 0.0
C34 C 0.04498 0.70723 0.42909 0.0
C35 C 0.01009 0.71136 0.39889 0.0
C36 C 0.96914 0.68993 0.40469 0.0
C37 C 0.9628 0.66577 0.44029 0.0
C38 C -0.00314 0.59624 0.50622 0.0
C39 C 0.96177 0.56966 0.51732 0.0
C40 C 0.96806 0.52807 0.5145 0.0
C41 C 0.00974 0.51187 0.50019 0.0
C42 C 0.04528 0.53874 0.48967 0.0
C43 C 0.03899 0.58048 0.49283 0.0
C44 C 0.01797 0.31792 0.52809 0.0
C45 C 0.97186 0.31492 0.54003 0.0
C46 C 0.95944 0.2943 0.57686 0.0
C47 C -0.00719 0.276 0.60233 0.0
C48 C 0.03886 0.27884 0.58993 0.0
C49 C 0.0512 0.29963 0.55328 0.0
C50 C 0.02941 0.31797 0.45105 0.0
C51 C 0.06961 0.30297 0.43275 0.0
C52 C 0.06819 0.28041 0.39524 0.0
C53 C 0.02643 0.27293 0.37485 0.0
C54 C -0.01388 0.28818 0.39304 0.0
C55 C -0.01252 0.30999 0.43106 0.0
C56 C 0.02618 0.38249 0.49103 0.0
C57 C 0.9842 0.40057 0.48129 0.0
C58 C 0.97918 0.44239 0.48364 0.0
C59 C 0.01578 0.46726 0.49628 0.0
C60 C 0.05781 0.44894 0.50577 0.0
C61 C 0.06284 0.40712 0.50312 0.0
H62 H 0.47816 0.95135 0.31747 0.0
N63 N 0.49384 0.02266 0.35914 0.0
H64 H 0.40849 0.93236 0.27982 0.0
H65 H 0.41525 0.06223 0.35737 0.0
H66 H 0.3452 0.04329 0.32004 0.0
H67 H 0.51983 0.0802 0.30637 0.0
H68 H 0.58461 0.07933 0.25723 0.0
H69 H 0.55575 0.96192 0.34967 0.0
H70 H 0.62006 0.96037 0.30022 0.0
H71 H 0.46698 0.95387 0.40099 0.0
H72 H 0.53997 0.06571 0.41565 0.0
H73 H 0.47849 0.93919 0.47506 0.0
H74 H 0.5553 0.04965 0.48931 0.0
H75 H 0.51514 0.89833 0.71712 0.0
H76 H 0.45139 0.89897 0.7674 0.0
H77 H 0.41139 0.01581 0.72173 0.0
H78 H 0.4753 0.01542 0.67281 0.0
H79 H 0.55191 0.02786 0.70888 0.0
H80 H 0.61805 0.04751 0.75086 0.0
H81 H 0.68894 0.94069 0.70866 0.0
H82 H 0.62138 0.92019 0.66875 0.0
H83 H 0.53565 0.90487 0.6019 0.0
H84 H 0.52758 0.91928 0.52676 0.0
H85 H 0.5249 0.04657 0.55566 0.0
N86 N 0.54113 0.95676 0.66551 0.0
H87 H 0.53718 0.03157 0.6299 0.0
C88 C 0.45206 0.00866 0.33982 0.0
C89 C 0.44933 0.97156 0.31833 0.0
C90 C 0.40945 0.96065 0.29686 0.0
C91 C 0.37143 0.98634 0.29691 0.0
C92 C 0.37373 0.02262 0.31982 0.0
C93 C 0.4137 0.03363 0.34096 0.0
C94 C 0.53319 0.02137 0.33172 0.0
C95 C 0.54185 0.05412 0.30524 0.0
C96 C 0.5786 0.05341 0.27704 0.0
C97 C 0.60747 0.01977 0.27479 0.0
C98 C 0.59883 0.98695 0.30157 0.0
C99 C 0.56201 0.9877 0.32974 0.0
C100 C 0.50193 0.01152 0.40263 0.0
C101 C 0.48586 0.97526 0.41994 0.0
C102 C 0.4931 0.96657 0.46261 0.0
C103 C 0.51777 0.99322 0.48882 0.0
C104 C 0.53507 0.02877 0.47085 0.0
C105 C 0.52679 0.0379 0.4285 0.0
C106 C 0.50018 0.95655 0.691 0.0
C107 C 0.49215 0.92377 0.71765 0.0
C108 C 0.45568 0.92417 0.74622 0.0
C109 C 0.42648 0.95757 0.74874 0.0
C110 C 0.43367 0.98987 0.72102 0.0
C111 C 0.47017 0.98948 0.69258 0.0
C112 C 0.58143 0.97197 0.6863 0.0
C113 C 0.58165 0.00867 0.70859 0.0
C114 C 0.6198 0.02008 0.7324 0.0
C115 C 0.65874 0.9954 0.73383 0.0
C116 C 0.65917 0.95991 0.70939 0.0
C117 C 0.62082 0.94829 0.68617 0.0
C118 C 0.53618 0.96693 0.62154 0.0
C119 C 0.53351 0.93583 0.59174 0.0
C120 C 0.52843 0.94425 0.54878 0.0
C121 C 0.52495 0.9842 0.53463 0.0
C122 C 0.52802 0.01542 0.56482 0.0
C123 C 0.53429 0.00691 0.60767 0.0
H124 H 0.44885 0.32195 0.19743 0.0
N125 N 0.48483 0.38556 0.15967 0.0
H126 H 0.37306 0.29377 0.18775 0.0
H127 H 0.41097 0.42415 0.12151 0.0
H128 H 0.33482 0.39732 0.11391 0.0
H129 H 0.4722 0.34831 0.08302 0.0
H130 H 0.52211 0.29762 0.05083 0.0
H131 H 0.56356 0.35816 0.18928 0.0
H132 H 0.61389 0.30782 0.15701 0.0
H133 H 0.51094 0.44096 0.21515 0.0
H134 H 0.48657 0.42209 0.08234 0.0
H135 H 0.53497 0.50991 0.20109 0.0
H136 H 0.50743 0.49151 0.06802 0.0
H137 H 0.55225 0.73987 0.13905 0.0
H138 H 0.48795 0.78404 0.12257 0.0
H139 H 0.44829 0.70388 0.02115 0.0
H140 H 0.51235 0.65971 0.03831 0.0
H141 H 0.59261 0.67312 1.01686 0.0
H142 H 0.66402 0.69595 0.98427 0.0
H143 H 0.72293 0.71214 0.10816 0.0
H144 H 0.65151 0.68916 0.14055 0.0
H145 H 0.53288 0.64222 0.16983 0.0
H146 H 0.50911 0.57324 0.18341 0.0
H147 H 0.56732 0.53667 0.06347 0.0
N148 N 0.57413 0.67095 0.10189 0.0
H149 H 0.5877 0.60594 0.04903 0.0
C150 C 0.4369 0.37448 0.1593 0.0
C151 C 0.42395 0.33883 0.17956 0.0
C152 C 0.38025 0.32294 0.17428 0.0
C153 C 0.34774 0.34294 0.14941 0.0
C154 C 0.35936 0.38045 0.13216 0.0
C155 C 0.40346 0.39594 0.13668 0.0
C156 C 0.51418 0.35679 0.13885 0.0
C157 C 0.50308 0.33968 0.09934 0.0
C158 C 0.53144 0.31064 0.08106 0.0
C159 C 0.57172 0.29883 0.1015 0.0
C160 C 0.58317 0.3166 0.14046 0.0
C161 C 0.55454 0.3452 0.15896 0.0
C162 C 0.49648 0.42663 0.15007 0.0
C163 C 0.5101 0.45204 0.18304 0.0
C164 C 0.52353 0.49152 0.17486 0.0
C165 C 0.52294 0.50666 0.13336 0.0
C166 C 0.50917 0.48095 0.10027 0.0
C167 C 0.49674 0.44121 0.10843 0.0
C168 C 0.53677 0.69658 0.0902 0.0
C169 C 0.52969 0.73206 0.1132 0.0
C170 C 0.49321 0.75729 0.10354 0.0
C171 C 0.46306 0.74738 0.07059 0.0
C172 C 0.47069 0.71205 0.04702 0.0
C173 C 0.50732 0.68688 0.05665 0.0
C174 C 0.61685 0.6797 0.08131 0.0
C175 C 0.62111 0.68092 0.03698 0.0
C176 C 0.66192 0.69375 1.01836 0.0
C177 C 0.69869 0.70598 0.04377 0.0
C178 C 0.69488 0.70312 0.08793 0.0
C179 C 0.65433 0.68998 0.10644 0.0
C180 C 0.56257 0.62938 0.10887 0.0
C181 C 0.54043 0.61918 0.14657 0.0
C182 C 0.52722 0.57961 0.15435 0.0
C183 C 0.53656 0.54901 0.12474 0.0
C184 C 0.55888 0.55934 0.08683 0.0
C185 C 0.57122 0.59915 0.0787 0.0
Zn186 Zn 0.1217 0.05054 1.01508 0.0
Zn187 Zn 0.05371 0.08013 0.06688 0.0
O188 O 0.05186 0.05042 1.01179 0.0
H189 H 0.03428 0.05752 0.98714 0.0
C190 C 0.89966 0.13392 0.87208 0.0
O191 O 0.85773 0.12015 0.87468 0.0
Zn192 Zn 0.95911 0.93239 0.07684 0.0
Zn193 Zn 0.97239 0.96783 0.98756 0.0
O194 O -0.00714 0.97752 0.04934 0.0
H195 H -0.00295 0.00359 0.06233 0.0
Zn196 Zn 0.89979 0.10254 0.95877 0.0
O197 O 0.94108 0.08606 1.00778 0.0
Zn198 Zn 0.89967 0.07255 0.05662 0.0
H199 H 0.925 0.09427 0.98265 0.0
Zn200 Zn 0.08617 0.90011 0.97075 0.0
O201 O 0.04361 0.91415 1.02002 0.0
H202 H 0.06057 0.90708 0.99488 0.0
Zn203 Zn 0.08233 0.92746 0.07046 0.0
C204 C 0.04821 0.87552 0.8868 0.0
O205 O 0.04078 0.91431 0.88354 0.0
O206 O 0.15014 0.10378 0.03711 0.0
O207 O 0.08681 0.13241 0.06031 0.0
O208 O 0.95659 0.90881 0.97152 0.0
O209 O 0.94938 0.88608 0.03692 0.0
O210 O 0.83385 0.11456 0.97849 0.0
O211 O 0.83466 0.09075 0.04422 0.0
C212 C 0.10263 0.01196 0.10725 0.0
O213 O 0.15283 0.89375 0.9906 0.0
O214 O 0.14791 0.91013 0.05883 0.0
O215 O 0.92539 0.00577 0.95936 0.0
C216 C 0.12921 0.13435 0.05181 0.0
O217 O 0.15837 0.02067 0.96852 0.0
C218 C 0.88099 0.98728 0.08713 0.0
O219 O 0.92565 0.13076 0.90409 0.0
C220 C 0.94858 0.8803 0.99713 0.0
O221 O 0.06556 0.86213 0.92078 0.0
C222 C 0.96366 0.10502 0.11502 0.0
O223 O 0.0926 0.04914 0.107 0.0
O224 O 0.08068 0.98784 0.08318 0.0
C225 C 0.81379 0.10749 1.01352 0.0
O226 O 0.89608 0.95187 0.09254 0.0
O227 O 0.90612 0.01297 0.06855 0.0
C228 C 0.02365 0.8931 0.14306 0.0
O229 O 0.921 0.10227 0.10892 0.0
O230 O -0.01041 0.08982 0.08689 0.0
C231 C 0.17105 0.89813 0.0269 0.0
O232 O 0.06022 0.89623 0.12149 0.0
O233 O -0.01387 0.90828 0.13042 0.0
C234 C 0.93081 0.01222 0.92012 0.0
O235 O 0.96843 0.99942 0.90185 0.0
C236 C 0.19341 1.00006 0.97774 0.0
O237 O 0.20495 0.9963 1.01764 0.0
C238 C 0.00182 0.26304 0.29956 0.0
C239 C 0.02461 0.24853 0.33528 0.0
C240 C -0.00214 0.23955 0.26265 0.0
C241 C 0.01601 0.2001 0.26171 0.0
C242 C 0.04007 0.18569 0.29737 0.0
C243 C 0.04448 0.21023 0.33354 0.0
C244 C 0.97315 0.25659 0.22497 0.0
C245 C 0.05962 0.14378 0.29789 0.0
C246 C 0.95187 0.12834 0.18914 0.0
C247 C 0.98054 0.12601 0.15361 0.0
C248 C 0.96399 0.15101 0.22492 0.0
C249 C 0.0056 0.17273 0.22523 0.0
C250 C 0.03553 0.16952 0.19002 0.0
C251 C 0.02271 0.14596 0.15474 0.0
C252 C 0.93149 0.15253 0.26202 0.0
C253 C 0.07998 0.19247 0.18843 0.0
H254 H -0.01304 0.29284 0.30059 0.0
H255 H 0.06204 0.19887 0.36113 0.0
H256 H -0.00568 0.25302 0.19607 0.0
H257 H 0.94089 0.23978 0.21972 0.0
H258 H 0.96485 0.28891 0.22921 0.0
H259 H 0.07976 0.13791 0.32691 0.0
H260 H 0.03147 0.12148 0.29601 0.0
H261 H 0.08186 0.13893 0.26991 0.0
H262 H 0.91937 0.11267 0.1888 0.0
H263 H 0.04484 0.14459 0.12748 0.0
H264 H 0.91794 0.18344 0.26583 0.0
H265 H 0.94971 0.14486 0.2916 0.0
H266 H 0.9022 0.13159 0.25811 0.0
H267 H 0.07295 0.22396 0.17912 0.0
H268 H 0.10396 0.17928 0.16497 0.0
H269 H 0.09693 0.19326 0.21974 0.0
C270 C 0.6888 0.00366 0.25701 0.0
C271 C 0.64632 0.0188 0.2445 0.0
C272 C 0.72549 1.00153 0.22856 0.0
C273 C 0.71967 0.01498 0.18652 0.0
C274 C 0.67716 0.03108 0.17386 0.0
C275 C 0.64094 0.03263 0.20296 0.0
C276 C 0.77039 0.98445 0.24337 0.0
C277 C 0.66921 0.04551 0.12933 0.0
C278 C 0.83057 0.03429 0.12751 0.0
C279 C 0.83647 0.99787 0.10599 0.0
C280 C 0.7917 0.0412 0.1525 0.0
C281 C 0.75786 0.01085 0.15577 0.0
C282 C 0.76255 0.97486 0.13215 0.0
C283 C 0.80195 0.96872 0.10776 0.0
C284 C 0.78912 0.07977 0.17768 0.0
C285 C 0.72728 0.94181 0.13461 0.0
H286 H 0.69344 0.99357 0.28924 0.0
H287 H 0.60805 0.04391 0.19285 0.0
H288 H 0.77972 0.95799 0.22372 0.0
H289 H 0.79785 0.00715 0.23952 0.0
H290 H 0.76927 0.97512 0.27701 0.0
H291 H 0.64067 0.06741 0.12794 0.0
H292 H 0.70025 0.05964 0.11584 0.0
H293 H 0.66014 0.01945 0.10901 0.0
H294 H 0.85758 0.05637 0.12719 0.0
H295 H 0.80654 0.94041 0.09117 0.0
H296 H 0.80789 0.07583 0.2078 0.0
H297 H 0.75351 0.08832 0.18539 0.0
H298 H 0.80566 0.10486 0.16034 0.0
H299 H 0.72611 0.9297 0.16721 0.0
H300 H 0.73471 0.91669 0.1124 0.0
H301 H 0.69292 0.95388 0.1274 0.0
C302 C 0.03259 0.77774 0.36729 0.0
C303 C 0.01571 0.73855 0.36191 0.0
C304 C 0.03566 0.80441 0.333 0.0
C305 C 0.02206 0.79146 0.29218 0.0
C306 C 0.00595 0.75163 0.28643 0.0
C307 C 0.00271 0.7258 0.32134 0.0
C308 C 0.05254 0.8467 0.34063 0.0
C309 C -0.00826 0.73637 0.2434 0.0
C310 C -0.01466 0.86699 0.20873 0.0
C311 C 0.02425 0.86929 0.18286 0.0
C312 C 0.98462 0.84266 0.24496 0.0
C313 C 0.02361 0.81969 0.25556 0.0
C314 C 0.06335 0.82258 0.23018 0.0
C315 C 0.06325 0.84737 0.19431 0.0
C316 C 0.94175 0.84094 0.27146 0.0
C317 C 0.10561 0.79856 0.24018 0.0
H318 H 0.04224 0.78793 0.39862 0.0
H319 H -0.0099 0.69544 0.31687 0.0
H320 H 0.08208 0.85325 0.31978 0.0
H321 H 0.02526 0.86845 0.33262 0.0
H322 H 0.06295 0.8518 0.37397 0.0
H323 H 0.98152 0.70422 0.24393 0.0
H324 H 0.9626 0.75429 0.23154 0.0
H325 H 0.02023 0.74004 0.22057 0.0
H326 H 0.95508 0.8839 0.20045 0.0
H327 H 0.09353 0.8488 0.17466 0.0
H328 H 0.94984 0.84786 0.30496 0.0
H329 H 0.92726 0.81013 0.27043 0.0
H330 H 0.91531 0.86232 0.26042 0.0
H331 H 0.11644 0.80418 0.27326 0.0
H332 H 0.13454 0.80589 0.2188 0.0
H333 H 0.09793 0.76601 0.23724 0.0
C334 C 0.28665 0.98388 0.28685 0.0
C335 C 0.33062 0.97711 0.27079 0.0
C336 C 0.24825 0.98168 0.26049 0.0
C337 C 0.25406 0.97288 0.217 0.0
C338 C 0.29793 0.96292 0.20135 0.0
C339 C 0.33574 0.96516 0.22846 0.0
C340 C 0.20188 0.99164 0.27854 0.0
C341 C 0.30563 0.9532 0.15525 0.0
C342 C 0.14757 0.96063 0.14879 0.0
C343 C 0.14211 0.99968 0.13348 0.0
C344 C 0.18419 0.95085 0.17558 0.0
C345 C 0.21616 0.98102 0.18703 0.0
C346 C 0.2115 0.02023 0.17061 0.0
C347 C 0.1747 0.02899 0.1442 0.0
C348 C 0.18728 0.90873 0.19273 0.0
C349 C 0.24489 0.05336 0.18161 0.0
H350 H 0.28247 0.99234 0.31975 0.0
H351 H 0.36964 0.95997 0.21578 0.0
H352 H 0.19049 0.02114 0.26627 0.0
H353 H 0.17641 0.96884 0.26846 0.0
H354 H 0.20224 0.99316 0.31362 0.0
H355 H 0.33794 0.93639 0.1503 0.0
H356 H 0.2769 0.93538 0.14212 0.0
H357 H 0.30779 0.9816 0.13713 0.0
H358 H 0.12279 0.93801 0.14092 0.0
H359 H 0.1714 0.05924 0.13201 0.0
H360 H 0.16898 0.90743 0.22342 0.0
H361 H 0.22315 0.89956 0.19816 0.0
H362 H 0.1709 0.88669 0.17104 0.0
H363 H 0.24458 0.05885 0.21623 0.0
H364 H 0.23684 0.08203 0.16543 0.0
H365 H 0.28004 0.04426 0.17272 0.0
C366 C 0.05395 0.7458 0.67345 0.0
C367 C 0.01337 0.72452 0.66563 0.0
C368 C 0.05939 0.76919 0.71029 0.0
C369 C 0.02337 0.77155 0.74016 0.0
C370 C 0.9826 0.7497 0.7328 0.0
C371 C 0.97813 0.72645 0.69578 0.0
C372 C 0.10345 0.79197 0.71688 0.0
C373 C 0.94341 0.75127 0.76383 0.0
C374 C 0.05186 0.80754 0.85177 0.0
C375 C 0.03958 0.84828 0.85018 0.0
C376 C 0.04635 0.78214 0.81643 0.0
C377 C 0.02797 0.79771 0.77851 0.0
C378 C 0.01465 0.83858 0.77699 0.0
C379 C 0.02064 0.86331 0.81274 0.0
C380 C 0.06094 0.73877 0.81944 0.0
C381 C -0.00537 0.85638 0.73734 0.0
H382 H 0.08117 0.74501 0.65024 0.0
H383 H 0.94692 0.70965 0.69048 0.0
H384 H 0.0965 0.82472 0.71782 0.0
H385 H 0.11876 0.7838 0.74769 0.0
H386 H 0.12878 0.78587 0.69149 0.0
H387 H 0.91438 0.73187 0.75398 0.0
H388 H 0.95508 0.74159 0.79552 0.0
H389 H 0.93101 0.78261 0.76706 0.0
H390 H 0.06651 0.79556 0.88048 0.0
H391 H 0.01089 0.89466 0.81111 0.0
H392 H 0.08857 0.73266 0.79628 0.0
H393 H 0.03196 0.71867 0.81135 0.0
H394 H 0.07341 0.73097 0.8515 0.0
H395 H 0.01977 0.8543 0.71116 0.0
H396 H 0.98485 0.88837 0.74161 0.0
H397 H 0.96398 0.83908 0.72755 0.0
C398 C 0.36298 0.92615 0.79089 0.0
C399 C 0.39012 0.95975 0.78154 0.0
C400 C 0.32906 0.92803 0.82232 0.0
C401 C 0.32245 0.96427 0.84514 0.0
C402 C 0.34973 0.99826 0.83578 0.0
C403 C 0.38321 0.99555 0.80421 0.0
C404 C 0.30087 0.89108 0.83146 0.0
C405 C 0.34365 0.03755 0.85923 0.0
C406 C 0.21172 0.98991 0.90117 0.0
C407 C 0.22393 0.98519 0.94372 0.0
C408 C 0.2427 0.98111 0.86857 0.0
C409 C 0.28697 0.96725 0.87873 0.0
C410 C 0.29856 0.96014 0.92146 0.0
C411 C 0.26689 0.96919 0.95347 0.0
C412 C 0.22887 0.98869 0.82336 0.0
C413 C 0.34534 0.94526 0.93359 0.0
H414 H 0.36798 0.89844 0.77336 0.0
H415 H 0.40458 0.02143 0.79773 0.0
H416 H 0.31143 0.87848 0.86227 0.0
H417 H 0.2641 0.89869 0.83385 0.0
H418 H 0.30531 0.86747 0.80686 0.0
H419 H 0.36744 0.06122 0.84792 0.0
H420 H 0.30814 0.04847 0.85539 0.0
H421 H 0.34943 0.03304 0.89352 0.0
H422 H 0.17841 1.00184 0.89329 0.0
H423 H 0.27654 0.96516 0.98623 0.0
H424 H 0.23653 0.96204 0.80339 0.0
H425 H 0.24889 0.01426 0.81062 0.0
H426 H 0.19198 0.99583 0.82046 0.0
H427 H 0.35523 0.91913 0.91371 0.0
H428 H 0.34699 0.93647 0.96736 0.0
H429 H 0.37089 0.96932 0.92804 0.0
C430 C 0.00026 0.21745 0.65197 0.0
C431 C 0.97983 0.25429 0.64181 0.0
C432 C -0.01134 0.19685 0.68922 0.0
C433 C 0.95598 0.21353 0.71729 0.0
C434 C 0.93531 0.25075 0.70728 0.0
C435 C 0.94735 0.27057 0.66968 0.0
C436 C 0.01113 0.15707 0.69839 0.0
C437 C 0.90055 0.26974 0.73641 0.0
C438 C 0.89228 0.14597 0.79445 0.0
C439 C 0.9157 0.15306 0.8324 0.0
C440 C 0.90554 0.16479 0.7567 0.0
C441 C 0.9429 0.19187 0.75685 0.0
C442 C 0.96713 0.19876 0.79498 0.0
C443 C 0.95346 0.17904 0.83222 0.0
C444 C 0.87917 0.15597 0.71674 0.0
C445 C 0.00698 0.22754 0.79661 0.0
H446 H 0.02497 0.20437 0.63042 0.0
H447 H 0.93181 0.29924 0.66243 0.0
H448 H 0.02926 0.15862 0.72911 0.0
H449 H 0.9848 0.1332 0.70108 0.0
H450 H 0.03594 0.14819 0.67346 0.0
H451 H 0.88808 0.29904 0.72441 0.0
H452 H 0.8709 0.24931 0.74034 0.0
H453 H 0.91568 0.27452 0.76816 0.0
H454 H 0.86352 0.12551 0.7942 0.0
H455 H 0.97171 0.1847 0.86143 0.0
H456 H 0.90274 0.14586 0.69137 0.0
H457 H 0.86233 0.18377 0.70556 0.0
H458 H 0.85264 0.1325 0.72143 0.0
H459 H 0.03346 0.21828 0.77346 0.0
H460 H 0.02272 0.22911 0.82849 0.0
H461 H -0.0045 0.25808 0.78767 0.0
C462 C 0.72085 0.97476 0.78358 0.0
C463 C 0.69793 0.00544 0.76206 0.0
C464 C 0.75818 0.98317 0.80982 0.0
C465 C 0.77265 0.02345 0.81562 0.0
C466 C 0.74889 0.05481 0.79508 0.0
C467 C 0.7122 0.04537 0.76816 0.0
C468 C 0.78247 0.9487 0.83103 0.0
C469 C 0.76243 0.09829 0.80022 0.0
C470 C 0.84838 0.03082 0.91207 0.0
C471 C 0.89164 0.02511 0.89387 0.0
C472 C 0.80932 0.03439 0.88666 0.0
C473 C 0.81364 0.0316 0.84217 0.0
C474 C 0.85762 0.03003 0.82368 0.0
C475 C 0.89613 0.02682 0.84975 0.0
C476 C 0.76321 0.03872 0.90746 0.0
C477 C 0.86379 0.02863 0.77635 0.0
H478 H 0.70945 0.94393 0.78015 0.0
H479 H 0.69513 0.06937 0.75145 0.0
H480 H 0.81893 0.94836 0.82144 0.0
H481 H 0.78133 0.95263 0.86586 0.0
H482 H 0.76715 0.91908 0.82297 0.0
H483 H 0.73212 0.11818 0.79798 0.0
H484 H 0.77972 0.10423 0.83075 0.0
H485 H 0.78598 0.10656 0.77419 0.0
H486 H 0.84463 0.03047 0.94615 0.0
H487 H 0.92951 0.02337 0.83538 0.0
H488 H 0.74417 0.00997 0.90469 0.0
H489 H 0.74289 0.06219 0.89132 0.0
H490 H 0.76613 0.0467 0.94149 0.0
H491 H 0.85122 0.99935 0.76403 0.0
H492 H 0.90012 0.03227 0.76692 0.0
H493 H 0.84345 0.05262 0.76117 0.0
C494 C 0.2873 0.32542 0.09631 0.0
C495 C 0.30428 0.32242 0.13768 0.0
C496 C 0.25191 0.3004 0.08215 0.0
C497 C 0.23389 0.27098 0.10961 0.0
C498 C 0.24816 0.26992 0.15229 0.0
C499 C 0.2828 0.29604 0.16596 0.0
C500 C 0.2366 0.30322 0.03673 0.0
C501 C 0.22979 0.23888 0.18258 0.0
C502 C 0.13299 0.20539 0.07838 0.0
C503 C 0.15527 0.17101 0.06287 0.0
C504 C 0.15796 0.23877 0.09285 0.0
C505 C 0.20622 0.23743 0.09213 0.0
C506 C 0.2288 0.20321 0.07557 0.0
C507 C 0.20306 0.17057 0.06092 0.0
C508 C 0.13277 0.27497 0.10977 0.0
C509 C 0.28031 0.2005 0.07449 0.0
H510 H 0.30353 0.34543 0.07394 0.0
H511 H 0.29461 0.29432 0.19833 0.0
H512 H 0.25187 0.27823 1.0182 0.0
H513 H 0.19894 0.30037 0.03438 0.0
H514 H 0.24724 0.33204 0.02208 0.0
H515 H 0.23979 0.24535 0.21577 0.0
H516 H 0.19203 0.23721 0.18082 0.0
H517 H 0.24327 0.20886 0.17367 0.0
H518 H 0.09603 0.20596 0.08001 0.0
H519 H 0.22059 0.14414 0.04911 0.0
H520 H 0.14583 0.3028 0.09478 0.0
H521 H 0.1387 0.27788 0.14425 0.0
H522 H 0.09539 0.27286 0.10426 0.0
H523 H 0.29467 0.22564 0.05579 0.0
H524 H 0.29249 0.17177 0.06051 0.0
H525 H 0.2941 0.20321 0.10703 0.0
C526 C 0.42679 0.81503 0.06176 0.0
C527 C 0.42278 0.77301 0.06206 0.0
C528 C 0.38843 0.83951 0.05554 0.0
C529 C 0.34515 0.82147 0.04949 0.0
C530 C 0.34098 0.77907 0.0494 0.0
C531 C 0.37985 0.75538 0.05563 0.0
C532 C 0.39419 0.88459 0.05539 0.0
C533 C 0.29527 0.7587 0.04349 0.0
C534 C 0.23546 0.87728 0.0737 0.0
C535 C 0.21874 0.88467 0.03295 0.0
C536 C 0.27748 0.85798 0.07961 0.0
C537 C 0.30379 0.84663 0.04396 0.0
C538 C 0.28849 0.85632 1.0029 0.0
C539 C 0.24605 0.87507 0.99786 0.0
C540 C 0.29251 0.84758 0.12385 0.0
C541 C 0.3157 0.84479 0.96416 0.0
H542 H 0.46003 0.82877 0.06625 0.0
H543 H 0.37646 0.72295 0.05649 0.0
H544 H 0.38472 0.8965 0.02395 0.0
H545 H 0.37099 0.89865 0.07892 0.0
H546 H 0.42978 0.89393 0.06255 0.0
H547 H 0.29798 0.72542 0.04387 0.0
H548 H 0.27149 0.76819 0.06896 0.0
H549 H 0.27992 0.76788 1.01302 0.0
H550 H 0.21467 0.88465 0.10099 0.0
H551 H 0.23361 0.88102 0.96626 0.0
H552 H 0.29484 0.81448 0.12717 0.0
H553 H 0.26863 0.85913 0.14829 0.0
H554 H 0.32701 0.86005 0.13005 0.0
H555 H 0.35157 0.85508 0.96734 0.0
H556 H 0.30102 0.85764 0.9349 0.0
H557 H 0.31634 0.8116 0.96082 0.0
C558 C 0.58399 0.23099 0.06871 0.0
C559 C 0.60186 0.26787 0.08264 0.0
C560 C 0.6129 0.20041 0.05372 0.0
C561 C 0.6606 0.20719 0.05234 0.0
C562 C 0.67853 0.24493 0.065 0.0
C563 C 0.64895 0.27471 0.08018 0.0
C564 C 0.59262 0.1605 0.04074 0.0
C565 C 0.72919 0.25351 0.06365 0.0
C566 C 0.74946 0.12565 0.06205 0.0
C567 C 0.76795 0.12499 0.0211 0.0
C568 C 0.71216 0.15032 0.07203 0.0
C569 C 0.69256 0.17446 0.04019 0.0
C570 C 0.70818 0.17098 0.998 0.0
C571 C 0.74574 0.14625 0.98893 0.0
C572 C 0.69608 0.15308 0.11732 0.0
C573 C 0.68784 0.1959 0.96308 0.0
H574 H 0.54755 0.22561 0.07086 0.0
H575 H 0.6627 0.30341 0.09046 0.0
H576 H 0.60552 0.15137 1.00915 0.0
H577 H 0.60326 0.13702 0.06343 0.0
H578 H 0.55473 0.16134 0.03982 0.0
H579 H 0.73732 0.28503 0.07265 0.0
H580 H 0.74731 0.23313 0.08558 0.0
H581 H 0.74275 0.24772 0.03144 0.0
H582 H 0.76592 0.10895 0.08703 0.0
H583 H 0.75927 0.1455 0.95702 0.0
H584 H 0.65866 0.14822 0.11907 0.0
H585 H 0.70317 0.18358 0.13006 0.0
H586 H 0.71316 0.13089 0.13792 0.0
H587 H 0.65002 0.19576 0.96493 0.0
H588 H 0.69837 0.18495 0.93131 0.0
H589 H 0.69933 0.22753 0.96664 0.0
C590 C 0.7641 0.70714 0.99221 0.0
C591 C 0.73926 0.72544 0.02496 0.0
C592 C 0.80366 0.72547 0.97584 0.0
C593 C 0.81813 0.76293 0.99257 0.0
C594 C 0.79195 0.78204 0.02459 0.0
C595 C 0.75306 0.76296 0.04043 0.0
C596 C 0.83064 0.70395 0.942 0.0
C597 C 0.80547 0.82238 0.043 0.0
C598 C 0.93346 0.80774 1.00663 0.0
C599 C 0.92855 0.84229 0.98197 0.0
C600 C 0.90053 0.77721 1.0053 0.0
C601 C 0.8617 0.78205 0.9793 0.0
C602 C 0.8609 0.81337 0.94919 0.0
C603 C 0.89476 0.84326 0.9507 0.0
C604 C 0.9038 0.74322 0.03649 0.0
C605 C 0.82084 0.81885 0.91993 0.0
H606 H 0.75327 0.67808 0.98023 0.0
H607 H 0.73326 0.77743 0.06516 0.0
H608 H 0.84565 0.72533 0.91905 0.0
H609 H 0.85914 0.6874 0.95697 0.0
H610 H 0.80917 0.68185 0.92461 0.0
H611 H 0.78005 0.8339 0.06615 0.0
H612 H 0.83888 0.81986 0.05922 0.0
H613 H 0.80929 0.84486 1.01747 0.0
H614 H 0.96026 0.8066 0.03021 0.0
H615 H 0.89121 0.86975 0.93117 0.0
H616 H 0.89099 0.71478 0.02242 0.0
H617 H 0.88238 0.75028 0.06453 0.0
H618 H 0.93947 0.7387 0.04733 0.0
H619 H 0.8078 0.78947 0.90841 0.0
H620 H 0.83006 0.83776 0.89235 0.0
H621 H 0.79277 0.83399 0.93739 0.0
loop_
_geom_bond_atom_site_label_1
_geom_bond_atom_site_label_2
_geom_bond_distance
_geom_bond_site_symmetry_2
_ccdc_geom_bond_type
H0 C27 0.929 . S
N1 C26 1.433 . S
N1 C32 1.435 . S
N1 C38 1.423 . S
H2 C28 0.930 1_655 S
H3 C31 0.931 . S
H4 C30 0.929 . S
H5 C33 0.930 . S
H6 C34 0.932 . S
H7 C37 0.929 . S
H8 C36 0.931 . S
H9 C39 0.929 . S
H10 C43 0.932 . S
H11 C40 0.931 . S
H12 C42 0.929 . S
H13 C45 0.929 . S
H14 C46 0.930 1_655 S
H15 C48 0.929 . S
H16 C49 0.931 . S
H17 C51 0.930 . S
H18 C52 0.932 . S
H19 C54 0.931 . S
H20 C55 0.929 . S
H21 C57 0.929 . S
H22 C58 0.931 . S
H23 C60 0.929 . S
N24 C44 1.433 . S
N24 C50 1.435 . S
N24 C56 1.423 . S
H25 C61 0.932 . S
C26 N1 1.433 . S
C26 C27 1.363 1_455 S
C26 C31 1.370 . S
C27 H0 0.929 . S
C27 C26 1.363 1_655 S
C27 C28 1.385 1_655 S
C28 H2 0.930 1_455 S
C28 C27 1.385 1_455 S
C28 C29 1.357 . S
C29 C28 1.357 . S
C29 C30 1.406 . S
C30 H4 0.929 . S
C30 C29 1.406 . S
C30 C31 1.391 . S
C31 H3 0.931 . S
C31 C26 1.370 . S
C31 C30 1.391 . S
C32 N1 1.435 . S
C32 C33 1.358 . S
C32 C37 1.371 1_455 S
C33 H5 0.930 . S
C33 C32 1.358 . S
C33 C34 1.405 . S
C34 H6 0.932 . S
C34 C33 1.405 . S
C34 C35 1.383 . S
C35 C34 1.383 . S
C35 C36 1.393 1_455 S
C36 H8 0.931 . S
C36 C35 1.393 1_655 S
C36 C37 1.382 . S
C37 H7 0.929 . S
C37 C32 1.371 1_655 S
C37 C36 1.382 . S
C38 N1 1.423 . S
C38 C39 1.362 1_455 S
C38 C43 1.388 . S
C39 H9 0.929 . S
C39 C38 1.362 1_655 S
C39 C40 1.376 . S
C40 H11 0.931 . S
C40 C39 1.376 . S
C40 C41 1.396 . S
C41 C40 1.396 . S
C41 C42 1.348 1_655 S
C41 C59 1.472 . S
C42 H12 0.929 . S
C42 C41 1.348 1_455 S
C42 C43 1.443 . S
C43 H10 0.932 . S
C43 C38 1.388 . S
C43 C42 1.443 . S
C44 N24 1.433 . S
C44 C45 1.363 1_455 S
C44 C49 1.370 . S
C45 H13 0.929 . S
C45 C44 1.363 1_655 S
C45 C46 1.385 1_655 S
C46 H14 0.930 1_455 S
C46 C45 1.385 1_455 S
C46 C47 1.357 . S
C47 C46 1.357 . S
C47 C48 1.406 . S
C48 H15 0.929 . S
C48 C47 1.406 . S
C48 C49 1.391 . S
C49 H16 0.931 . S
C49 C44 1.370 . S
C49 C48 1.391 . S
C50 N24 1.435 . S
C50 C51 1.358 . S
C50 C55 1.371 1_455 S
C51 H17 0.930 . S
C51 C50 1.358 . S
C51 C52 1.405 . S
C52 H18 0.932 . S
C52 C51 1.405 . S
C52 C53 1.383 . S
C53 C52 1.383 . S
C53 C54 1.393 1_455 S
C54 H19 0.931 . S
C54 C53 1.393 1_655 S
C54 C55 1.382 . S
C55 H20 0.929 . S
C55 C50 1.371 1_655 S
C55 C54 1.382 . S
C56 N24 1.423 . S
C56 C57 1.362 1_455 S
C56 C61 1.388 . S
C57 H21 0.929 . S
C57 C56 1.362 1_655 S
C57 C58 1.376 . S
C58 H22 0.931 . S
C58 C57 1.376 . S
C58 C59 1.396 . S
C59 C41 1.472 . S
C59 C58 1.396 . S
C59 C60 1.348 1_655 S
C60 H23 0.929 . S
C60 C59 1.348 1_455 S
C60 C61 1.443 . S
C61 H25 0.932 . S
C61 C56 1.388 . S
C61 C60 1.443 . S
H62 C89 0.929 . S
N63 C88 1.433 . S
N63 C94 1.435 . S
N63 C100 1.423 . S
H64 C90 0.930 . S
H65 C93 0.931 . S
H66 C92 0.929 . S
H67 C95 0.930 . S
H68 C96 0.932 . S
H69 C99 0.929 . S
H70 C98 0.931 . S
H71 C101 0.929 . S
H72 C105 0.932 1_545 S
H73 C102 0.931 . S
H74 C104 0.929 1_545 S
H75 C107 0.929 . S
H76 C108 0.930 . S
H77 C110 0.929 . S
H78 C111 0.931 . S
H79 C113 0.930 . S
H80 C114 0.932 . S
H81 C116 0.931 . S
H82 C117 0.929 . S
H83 C119 0.929 . S
H84 C120 0.931 . S
H85 C122 0.929 1_545 S
N86 C106 1.433 . S
N86 C112 1.435 . S
N86 C118 1.423 . S
H87 C123 0.932 1_545 S
C88 N63 1.433 . S
C88 C89 1.363 . S
C88 C93 1.370 1_565 S
C89 H62 0.929 . S
C89 C88 1.363 . S
C89 C90 1.385 . S
C90 H64 0.930 . S
C90 C89 1.385 . S
C90 C91 1.357 . S
C91 C90 1.357 . S
C91 C92 1.406 1_565 S
C92 H66 0.929 . S
C92 C91 1.406 1_545 S
C92 C93 1.391 . S
C93 H65 0.931 . S
C93 C88 1.370 1_545 S
C93 C92 1.391 . S
C94 N63 1.435 . S
C94 C95 1.358 1_565 S
C94 C99 1.371 . S
C95 H67 0.930 . S
C95 C94 1.358 1_545 S
C95 C96 1.405 . S
C96 H68 0.932 . S
C96 C95 1.405 . S
C96 C97 1.375 1_545 S
C97 C96 1.375 1_565 S
C97 C98 1.404 . S
C98 H70 0.931 . S
C98 C97 1.404 . S
C98 C99 1.382 . S
C99 H69 0.929 . S
C99 C94 1.371 . S
C99 C98 1.382 . S
C100 N63 1.423 . S
C100 C101 1.362 . S
C100 C105 1.388 . S
C101 H71 0.929 . S
C101 C100 1.362 . S
C101 C102 1.376 . S
C102 H73 0.931 . S
C102 C101 1.376 . S
C102 C103 1.396 . S
C103 C102 1.396 . S
C103 C104 1.348 . S
C103 C121 1.472 . S
C104 H74 0.929 1_565 S
C104 C103 1.348 . S
C104 C105 1.443 . S
C105 H72 0.932 1_565 S
C105 C100 1.388 . S
C105 C104 1.443 . S
C106 N86 1.433 . S
C106 C107 1.363 . S
C106 C111 1.370 1_565 S
C107 H75 0.929 . S
C107 C106 1.363 . S
C107 C108 1.385 . S
C108 H76 0.930 . S
C108 C107 1.385 . S
C108 C109 1.357 . S
C109 C108 1.357 . S
C109 C110 1.406 1_565 S
C110 H77 0.929 . S
C110 C109 1.406 1_545 S
C110 C111 1.391 . S
C111 H78 0.931 . S
C111 C106 1.370 1_545 S
C111 C110 1.391 . S
C112 N86 1.435 . S
C112 C113 1.358 1_565 S
C112 C117 1.371 . S
C113 H79 0.930 . S
C113 C112 1.358 1_545 S
C113 C114 1.405 . S
C114 H80 0.932 . S
C114 C113 1.405 . S
C114 C115 1.375 1_545 S
C115 C114 1.375 1_565 S
C115 C116 1.404 . S
C116 H81 0.931 . S
C116 C115 1.404 . S
C116 C117 1.382 . S
C117 H82 0.929 . S
C117 C112 1.371 . S
C117 C116 1.382 . S
C118 N86 1.423 . S
C118 C119 1.362 . S
C118 C123 1.388 . S
C119 H83 0.929 . S
C119 C118 1.362 . S
C119 C120 1.376 . S
C120 H84 0.931 . S
C120 C119 1.376 . S
C120 C121 1.396 . S
C121 C103 1.472 . S
C121 C120 1.396 . S
C121 C122 1.348 . S
C122 H85 0.929 1_565 S
C122 C121 1.348 . S
C122 C123 1.443 . S
C123 H87 0.932 1_565 S
C123 C118 1.388 . S
C123 C122 1.443 . S
H124 C151 0.929 . S
N125 C150 1.433 . S
N125 C156 1.435 . S
N125 C162 1.423 . S
H126 C152 0.930 . S
H127 C155 0.919 1_556 S
H128 C154 0.929 . S
H129 C157 0.930 . S
H130 C158 0.932 . S
H131 C161 0.929 . S
H132 C160 0.931 . S
H133 C163 0.929 . S
H134 C167 0.932 1_556 S
H135 C164 0.931 . S
H136 C166 0.929 . S
H137 C169 0.929 . S
H138 C170 0.930 . S
H139 C172 0.929 . S
H140 C173 0.919 1_556 S
H141 C175 0.930 . S
H142 C176 0.932 . S
H143 C178 0.931 . S
H144 C179 0.929 . S
H145 C181 0.929 . S
H146 C182 0.931 . S
H147 C184 0.929 . S
N148 C168 1.433 . S
N148 C174 1.435 . S
N148 C180 1.423 . S
H149 C185 0.932 1_556 S
C150 N125 1.433 . S
C150 C151 1.363 . S
C150 C155 1.386 . S
C151 H124 0.929 . S
C151 C150 1.363 . S
C151 C152 1.385 . S
C152 H126 0.930 . S
C152 C151 1.385 . S
C152 C153 1.357 . S
C153 C152 1.357 . S
C153 C154 1.406 1_554 S
C154 H128 0.929 . S
C154 C153 1.406 1_556 S
C154 C155 1.388 1_556 S
C155 H127 0.919 1_554 S
C155 C150 1.386 . S
C155 C154 1.388 1_554 S
C156 N125 1.435 . S
C156 C157 1.358 1_554 S
C156 C161 1.371 . S
C157 H129 0.930 . S
C157 C156 1.358 1_556 S
C157 C158 1.405 . S
C158 H130 0.932 . S
C158 C157 1.405 . S
C158 C159 1.383 1_556 S
C159 C158 1.383 1_554 S
C159 C160 1.393 . S
C160 H132 0.931 . S
C160 C159 1.393 . S
C160 C161 1.382 . S
C161 H131 0.929 . S
C161 C156 1.371 . S
C161 C160 1.382 . S
C162 N125 1.423 . S
C162 C163 1.362 . S
C162 C167 1.388 . S
C163 H133 0.929 . S
C163 C162 1.362 . S
C163 C164 1.376 . S
C164 H135 0.931 . S
C164 C163 1.376 . S
C164 C165 1.396 . S
C165 C164 1.396 . S
C165 C166 1.348 . S
C165 C183 1.472 . S
C166 H136 0.929 . S
C166 C165 1.348 . S
C166 C167 1.443 . S
C167 H134 0.932 1_554 S
C167 C162 1.388 . S
C167 C166 1.443 . S
C168 N148 1.433 . S
C168 C169 1.363 . S
C168 C173 1.386 . S
C169 H137 0.929 . S
C169 C168 1.363 . S
C169 C170 1.385 . S
C170 H138 0.930 . S
C170 C169 1.385 . S
C170 C171 1.357 . S
C171 C170 1.357 . S
C171 C172 1.406 1_554 S
C172 H139 0.929 . S
C172 C171 1.406 1_556 S
C172 C173 1.388 1_556 S
C173 H140 0.919 1_554 S
C173 C168 1.386 . S
C173 C172 1.388 1_554 S
C174 N148 1.435 . S
C174 C175 1.358 1_554 S
C174 C179 1.371 . S
C175 H141 0.930 . S
C175 C174 1.358 1_556 S
C175 C176 1.405 . S
C176 H142 0.932 . S
C176 C175 1.405 . S
C176 C177 1.383 1_556 S
C177 C176 1.383 1_554 S
C177 C178 1.393 . S
C178 H143 0.931 . S
C178 C177 1.393 . S
C178 C179 1.382 . S
C179 H144 0.929 . S
C179 C174 1.371 . S
C179 C178 1.382 . S
C180 N148 1.423 . S
C180 C181 1.362 . S
C180 C185 1.388 . S
C181 H145 0.929 . S
C181 C180 1.362 . S
C181 C182 1.376 . S
C182 H146 0.931 . S
C182 C181 1.376 . S
C182 C183 1.396 . S
C183 C165 1.472 . S
C183 C182 1.396 . S
C183 C184 1.348 . S
C184 H147 0.929 . S
C184 C183 1.348 . S
C184 C185 1.443 . S
C185 H149 0.932 1_554 S
C185 C180 1.388 . S
C185 C184 1.443 . S
Zn186 O188 1.933 1_556 S
Zn186 O206 1.985 . S
Zn186 O217 1.955 . S
Zn187 O188 1.911 . S
Zn187 O207 1.970 . S
Zn187 O223 1.945 . S
Zn187 O230 1.981 . S
O188 Zn186 1.933 1_554 S
O188 Zn187 1.911 . S
O188 H189 0.841 . S
H189 O188 0.841 . S
C190 O191 1.246 . S
C190 O219 1.276 1_455 S
O191 C190 1.246 . S
Zn192 O194 1.911 . S
Zn192 O209 1.970 . S
Zn192 O226 1.945 . S
Zn192 O233 1.981 1_655 S
Zn193 O194 1.933 1_556 S
Zn193 O208 1.985 . S
Zn193 O215 1.955 . S
O194 Zn192 1.911 . S
O194 Zn193 1.933 1_554 S
O194 H195 0.841 . S
H195 O194 0.841 . S
Zn196 O197 1.933 1_556 S
Zn196 O210 1.985 . S
Zn196 O219 1.955 . S
O197 Zn196 1.933 1_554 S
O197 Zn198 1.911 . S
O197 H199 0.841 1_655 S
Zn198 O197 1.911 . S
Zn198 O211 1.970 . S
Zn198 O227 1.981 . S
Zn198 O229 1.945 . S
H199 O197 0.841 1_455 S
Zn200 O201 1.933 1_556 S
Zn200 O213 1.985 . S
Zn200 O221 1.955 . S
O201 Zn200 1.933 1_554 S
O201 H202 0.841 . S
O201 Zn203 1.911 . S
H202 O201 0.841 . S
Zn203 O201 1.911 . S
Zn203 O214 1.970 . S
Zn203 O224 1.981 . S
Zn203 O232 1.945 . S
C204 O205 1.246 . S
C204 O221 1.276 . S
O205 C204 1.246 . S
O206 Zn186 1.985 . S
O206 C216 1.245 1_556 S
O207 Zn187 1.970 . S
O207 C216 1.263 . S
O208 Zn193 1.985 . S
O208 C220 1.245 1_556 S
O209 Zn192 1.970 . S
O209 C220 1.263 . S
O210 Zn196 1.985 . S
O210 C225 1.245 1_556 S
O211 Zn198 1.970 . S
O211 C225 1.263 . S
C212 O223 1.268 . S
C212 O224 1.242 1_545 S
O213 Zn200 1.985 . S
O213 C231 1.245 1_556 S
O214 Zn203 1.970 . S
O214 C231 1.263 . S
O215 Zn193 1.955 . S
O215 C234 1.276 1_565 S
C216 O206 1.245 1_554 S
C216 O207 1.263 . S
O217 Zn186 1.955 . S
O217 C236 1.276 1_545 S
C218 O226 1.257 1_545 S
C218 O227 1.247 . S
O219 C190 1.276 1_655 S
O219 Zn196 1.955 . S
C220 O208 1.245 1_554 S
C220 O209 1.263 . S
O221 Zn200 1.955 . S
O221 C204 1.276 . S
C222 O229 1.262 1_455 S
C222 O230 1.245 . S
O223 Zn187 1.945 . S
O223 C212 1.268 . S
O224 Zn203 1.981 . S
O224 C212 1.242 1_565 S
C225 O210 1.245 1_554 S
C225 O211 1.263 . S
O226 Zn192 1.945 . S
O226 C218 1.257 1_565 S
O227 Zn198 1.981 . S
O227 C218 1.247 . S
C228 O232 1.262 . S
C228 O233 1.245 . S
O229 Zn198 1.945 . S
O229 C222 1.262 1_655 S
O230 Zn187 1.981 . S
O230 C222 1.245 . S
C231 O213 1.245 1_554 S
C231 O214 1.263 . S
O232 Zn203 1.945 . S
O232 C228 1.262 . S
O233 Zn192 1.981 1_455 S
O233 C228 1.245 . S
C234 O215 1.276 1_545 S
C234 O235 1.246 . S
O235 C234 1.246 . S
C236 O217 1.276 1_565 S
C236 O237 1.246 . S
O237 C236 1.246 . S
C238 C239 1.391 . S
C238 C240 1.394 . S
C238 H254 0.931 . S
C239 C238 1.391 . S
C239 C243 1.376 . S
C240 C238 1.394 . S
C240 C241 1.369 . S
C240 C244 1.531 . S
C241 C240 1.369 . S
C241 C242 1.410 . S
C241 C249 1.503 . S
C242 C241 1.410 . S
C242 C243 1.392 . S
C242 C245 1.511 . S
C243 C239 1.376 . S
C243 C242 1.392 . S
C243 H255 0.929 . S
C244 C240 1.531 . S
C244 H256 0.960 . S
C244 H257 0.962 1_455 S
C244 H258 0.960 . S
C245 C242 1.511 . S
C245 H259 0.961 . S
C245 H260 0.961 . S
C245 H261 0.961 . S
C246 C247 1.370 . S
C246 C248 1.363 . S
C246 H262 0.931 1_455 S
C247 C246 1.370 . S
C247 C251 1.408 . S
C248 C246 1.363 . S
C248 C249 1.370 . S
C248 C252 1.524 1_455 S
C249 C241 1.503 . S
C249 C248 1.370 . S
C249 C250 1.403 . S
C250 C249 1.403 . S
C250 C251 1.404 . S
C250 C253 1.539 . S
C251 C247 1.408 . S
C251 C250 1.404 . S
C251 H263 0.930 . S
C252 C248 1.524 1_655 S
C252 H264 0.956 . S
C252 H265 0.961 . S
C252 H266 0.961 . S
C253 C250 1.539 . S
C253 H267 0.958 . S
C253 H268 0.961 . S
C253 H269 0.960 . S
H254 C238 0.931 . S
H255 C243 0.929 . S
H256 C244 0.960 . S
H257 C244 0.962 1_655 S
H258 C244 0.960 . S
H259 C245 0.961 . S
H260 C245 0.961 . S
H261 C245 0.961 . S
H262 C246 0.931 1_655 S
H263 C251 0.930 . S
H264 C252 0.956 . S
H265 C252 0.961 . S
H266 C252 0.961 . S
H267 C253 0.958 . S
H268 C253 0.961 . S
H269 C253 0.960 . S
C270 C271 1.391 . S
C270 C272 1.394 . S
C270 H286 0.931 . S
C271 C270 1.391 . S
C271 C275 1.376 1_565 S
C272 C270 1.394 . S
C272 C273 1.369 . S
C272 C276 1.531 . S
C273 C272 1.369 . S
C273 C274 1.410 1_565 S
C273 C281 1.503 1_565 S
C274 C273 1.410 1_545 S
C274 C275 1.392 . S
C274 C277 1.511 . S
C275 C271 1.376 1_545 S
C275 C274 1.392 . S
C275 H287 0.929 . S
C276 C272 1.531 . S
C276 H288 0.960 . S
C276 H289 0.962 . S
C276 H290 0.960 . S
C277 C274 1.511 . S
C277 H291 0.961 . S
C277 H292 0.961 . S
C277 H293 0.961 . S
C278 C279 1.370 . S
C278 C280 1.363 . S
C278 H294 0.931 . S
C279 C278 1.370 . S
C279 C283 1.408 1_545 S
C280 C278 1.363 . S
C280 C281 1.372 . S
C280 C284 1.524 . S
C281 C273 1.503 1_545 S
C281 C280 1.372 . S
C281 C282 1.401 1_545 S
C282 C281 1.401 1_565 S
C282 C283 1.404 . S
C282 C285 1.539 . S
C283 C279 1.408 1_565 S
C283 C282 1.404 . S
C283 H295 0.930 . S
C284 C280 1.524 . S
C284 H296 0.956 . S
C284 H297 0.961 . S
C284 H298 0.961 . S
C285 C282 1.539 . S
C285 H299 0.958 . S
C285 H300 0.961 . S
C285 H301 0.960 . S
H286 C270 0.931 . S
H287 C275 0.929 . S
H288 C276 0.960 . S
H289 C276 0.962 . S
H290 C276 0.960 . S
H291 C277 0.961 . S
H292 C277 0.961 . S
H293 C277 0.961 . S
H294 C278 0.931 . S
H295 C283 0.930 . S
H296 C284 0.956 . S
H297 C284 0.961 . S
H298 C284 0.961 . S
H299 C285 0.958 . S
H300 C285 0.961 . S
H301 C285 0.960 . S
C302 C303 1.391 . S
C302 C304 1.394 . S
C302 H318 0.931 . S
C303 C302 1.391 . S
C303 C307 1.370 1_455 S
C304 C302 1.394 . S
C304 C305 1.369 . S
C304 C308 1.531 . S
C305 C304 1.369 . S
C305 C306 1.405 1_455 S
C305 C313 1.503 . S
C306 C305 1.405 1_655 S
C306 C307 1.392 . S
C306 C309 1.515 . S
C307 C303 1.370 1_655 S
C307 C306 1.392 . S
C307 H319 0.935 . S
C308 C304 1.531 . S
C308 H320 0.960 . S
C308 H321 0.962 . S
C308 H322 0.960 . S
C309 C306 1.515 . S
C309 H323 0.961 . S
C309 H324 0.961 . S
C309 H325 0.961 . S
C310 C311 1.381 . S
C310 C312 1.365 . S
C310 H326 0.918 1_455 S
C311 C310 1.381 . S
C311 C315 1.408 . S
C312 C310 1.365 . S
C312 C313 1.370 . S
C312 C316 1.524 1_455 S
C313 C305 1.503 . S
C313 C312 1.370 . S
C313 C314 1.403 . S
C314 C313 1.403 . S
C314 C315 1.404 . S
C314 C317 1.539 . S
C315 C311 1.408 . S
C315 C314 1.404 . S
C315 H327 0.930 . S
C316 C312 1.524 1_655 S
C316 H328 0.972 . S
C316 H329 0.961 . S
C316 H330 0.961 . S
C317 C314 1.539 . S
C317 H331 0.958 . S
C317 H332 0.961 . S
C317 H333 0.960 . S
H318 C302 0.931 . S
H319 C307 0.935 . S
H320 C308 0.960 . S
H321 C308 0.962 . S
H322 C308 0.960 . S
H323 C309 0.961 . S
H324 C309 0.961 . S
H325 C309 0.961 . S
H326 C310 0.918 1_655 S
H327 C315 0.930 . S
H328 C316 0.972 . S
H329 C316 0.961 . S
H330 C316 0.961 . S
H331 C317 0.958 . S
H332 C317 0.961 . S
H333 C317 0.960 . S
C334 C335 1.391 . S
C334 C336 1.394 . S
C334 H350 0.931 . S
C335 C334 1.391 . S
C335 C339 1.374 1_545 S
C336 C334 1.394 . S
C336 C337 1.369 . S
C336 C340 1.531 . S
C337 C336 1.369 . S
C337 C338 1.412 . S
C337 C345 1.503 . S
C338 C337 1.412 . S
C338 C339 1.392 1_545 S
C338 C341 1.509 1_545 S
C339 C335 1.374 1_565 S
C339 C338 1.392 1_565 S
C339 H351 0.932 . S
C340 C336 1.531 . S
C340 H352 0.960 . S
C340 H353 0.962 1_545 S
C340 H354 0.960 . S
C341 C338 1.509 1_565 S
C341 H355 0.961 . S
C341 H356 0.961 . S
C341 H357 0.961 1_565 S
C342 C343 1.370 . S
C342 C344 1.363 . S
C342 H358 0.931 . S
C343 C342 1.370 . S
C343 C347 1.408 1_565 S
C344 C342 1.363 . S
C344 C345 1.370 1_565 S
C344 C348 1.524 . S
C345 C337 1.503 . S
C345 C344 1.370 1_545 S
C345 C346 1.403 . S
C346 C345 1.403 . S
C346 C347 1.404 . S
C346 C349 1.539 . S
C347 C343 1.408 1_545 S
C347 C346 1.404 . S
C347 H359 0.930 . S
C348 C344 1.524 . S
C348 H360 0.956 . S
C348 H361 0.961 . S
C348 H362 0.961 . S
C349 C346 1.539 . S
C349 H363 0.958 . S
C349 H364 0.961 . S
C349 H365 0.960 . S
H350 C334 0.931 . S
H351 C339 0.932 . S
H352 C340 0.960 . S
H353 C340 0.962 1_565 S
H354 C340 0.960 . S
H355 C341 0.961 . S
H356 C341 0.961 . S
H357 C341 0.961 1_545 S
H358 C342 0.931 . S
H359 C347 0.930 . S
H360 C348 0.956 . S
H361 C348 0.961 . S
H362 C348 0.961 . S
H363 C349 0.958 . S
H364 C349 0.961 . S
H365 C349 0.960 . S
C366 C367 1.391 . S
C366 C368 1.394 . S
C366 H382 0.931 . S
C367 C366 1.391 . S
C367 C371 1.376 1_455 S
C368 C366 1.394 . S
C368 C369 1.369 . S
C368 C372 1.531 . S
C369 C368 1.369 . S
C369 C370 1.410 1_455 S
C369 C377 1.503 . S
C370 C369 1.410 1_655 S
C370 C371 1.392 . S
C370 C373 1.511 . S
C371 C367 1.376 1_655 S
C371 C370 1.392 . S
C371 H383 0.929 . S
C372 C368 1.531 . S
C372 H384 0.960 . S
C372 H385 0.962 . S
C372 H386 0.960 . S
C373 C370 1.511 . S
C373 H387 0.961 . S
C373 H388 0.961 . S
C373 H389 0.961 . S
C374 C375 1.370 . S
C374 C376 1.363 . S
C374 H390 0.931 . S
C375 C374 1.370 . S
C375 C379 1.408 . S
C376 C374 1.363 . S
C376 C377 1.370 . S
C376 C380 1.524 . S
C377 C369 1.503 . S
C377 C376 1.370 . S
C377 C378 1.403 . S
C378 C377 1.403 . S
C378 C379 1.404 . S
C378 C381 1.539 . S
C379 C375 1.408 . S
C379 C378 1.404 . S
C379 H391 0.930 . S
C380 C376 1.524 . S
C380 H392 0.956 . S
C380 H393 0.961 1_455 S
C380 H394 0.961 . S
C381 C378 1.539 . S
C381 H395 0.958 . S
C381 H396 0.961 . S
C381 H397 0.960 . S
H382 C366 0.931 . S
H383 C371 0.929 . S
H384 C372 0.960 . S
H385 C372 0.962 . S
H386 C372 0.960 . S
H387 C373 0.961 . S
H388 C373 0.961 . S
H389 C373 0.961 . S
H390 C374 0.931 . S
H391 C379 0.930 . S
H392 C380 0.956 . S
H393 C380 0.961 1_655 S
H394 C380 0.961 . S
H395 C381 0.958 . S
H396 C381 0.961 . S
H397 C381 0.960 . S
C398 C399 1.391 . S
C398 C400 1.394 . S
C398 H414 0.931 . S
C399 C398 1.391 . S
C399 C403 1.376 1_565 S
C400 C398 1.394 . S
C400 C401 1.369 . S
C400 C404 1.531 . S
C401 C400 1.369 . S
C401 C402 1.410 1_565 S
C401 C409 1.503 . S
C402 C401 1.410 1_545 S
C402 C403 1.392 . S
C402 C405 1.511 . S
C403 C399 1.376 1_545 S
C403 C402 1.392 . S
C403 H415 0.929 . S
C404 C400 1.531 . S
C404 H416 0.960 . S
C404 H417 0.962 . S
C404 H418 0.960 . S
C405 C402 1.511 . S
C405 H419 0.961 . S
C405 H420 0.961 . S
C405 H421 0.961 . S
C406 C407 1.370 1_545 S
C406 C408 1.363 . S
C406 H422 0.931 . S
C407 C406 1.370 1_565 S
C407 C411 1.408 . S
C408 C406 1.363 . S
C408 C409 1.370 1_545 S
C408 C412 1.524 . S
C409 C401 1.503 . S
C409 C408 1.370 1_565 S
C409 C410 1.403 . S
C410 C409 1.403 . S
C410 C411 1.404 . S
C410 C413 1.539 . S
C411 C407 1.408 . S
C411 C410 1.404 . S
C411 H423 0.930 . S
C412 C408 1.524 . S
C412 H424 0.956 . S
C412 H425 0.961 . S
C412 H426 0.961 . S
C413 C410 1.539 . S
C413 H427 0.958 . S
C413 H428 0.961 . S
C413 H429 0.960 . S
H414 C398 0.931 . S
H415 C403 0.929 . S
H416 C404 0.960 . S
H417 C404 0.962 . S
H418 C404 0.960 . S
H419 C405 0.961 . S
H420 C405 0.961 . S
H421 C405 0.961 . S
H422 C406 0.931 . S
H423 C411 0.930 . S
H424 C412 0.956 . S
H425 C412 0.961 . S
H426 C412 0.961 . S
H427 C413 0.958 . S
H428 C413 0.961 . S
H429 C413 0.960 . S
C430 C431 1.391 . S
C430 C432 1.394 . S
C430 H446 0.931 . S
C431 C430 1.391 . S
C431 C435 1.376 1_455 S
C432 C430 1.394 . S
C432 C433 1.369 . S
C432 C436 1.531 . S
C433 C432 1.369 . S
C433 C434 1.410 1_455 S
C433 C441 1.503 . S
C434 C433 1.410 1_655 S
C434 C435 1.392 . S
C434 C437 1.511 . S
C435 C431 1.376 1_655 S
C435 C434 1.392 . S
C435 H447 0.929 . S
C436 C432 1.531 . S
C436 H448 0.960 . S
C436 H449 0.962 . S
C436 H450 0.960 . S
C437 C434 1.511 . S
C437 H451 0.961 . S
C437 H452 0.961 . S
C437 H453 0.961 . S
C438 C439 1.370 . S
C438 C440 1.363 . S
C438 H454 0.931 . S
C439 C438 1.370 . S
C439 C443 1.408 . S
C440 C438 1.363 . S
C440 C441 1.370 . S
C440 C444 1.524 . S
C441 C433 1.503 . S
C441 C440 1.370 . S
C441 C442 1.403 . S
C442 C441 1.403 . S
C442 C443 1.404 . S
C442 C445 1.539 1_455 S
C443 C439 1.408 . S
C443 C442 1.404 . S
C443 H455 0.930 . S
C444 C440 1.524 . S
C444 H456 0.956 . S
C444 H457 0.961 . S
C444 H458 0.961 . S
C445 C442 1.539 1_655 S
C445 H459 0.958 1_655 S
C445 H460 0.961 . S
C445 H461 0.960 . S
H446 C430 0.931 . S
H447 C435 0.929 . S
H448 C436 0.960 . S
H449 C436 0.962 . S
H450 C436 0.960 . S
H451 C437 0.961 . S
H452 C437 0.961 . S
H453 C437 0.961 . S
H454 C438 0.931 . S
H455 C443 0.930 . S
H456 C444 0.956 . S
H457 C444 0.961 . S
H458 C444 0.961 . S
H459 C445 0.958 1_455 S
H460 C445 0.961 . S
H461 C445 0.960 . S
C462 C463 1.391 1_565 S
C462 C464 1.394 . S
C462 H478 0.931 . S
C463 C462 1.391 1_545 S
C463 C467 1.376 . S
C464 C462 1.394 . S
C464 C465 1.369 1_565 S
C464 C468 1.531 . S
C465 C464 1.369 1_545 S
C465 C466 1.410 . S
C465 C473 1.503 . S
C466 C465 1.410 . S
C466 C467 1.392 . S
C466 C469 1.511 . S
C467 C463 1.376 . S
C467 C466 1.392 . S
C467 H479 0.929 . S
C468 C464 1.531 . S
C468 H480 0.960 . S
C468 H481 0.962 . S
C468 H482 0.960 . S
C469 C466 1.511 . S
C469 H483 0.961 . S
C469 H484 0.961 . S
C469 H485 0.961 . S
C470 C471 1.370 1_565 S
C470 C472 1.363 . S
C470 H486 0.931 . S
C471 C470 1.370 1_545 S
C471 C475 1.408 . S
C472 C470 1.363 . S
C472 C473 1.370 1_565 S
C472 C476 1.524 . S
C473 C465 1.503 . S
C473 C472 1.370 1_545 S
C473 C474 1.403 . S
C474 C473 1.403 . S
C474 C475 1.404 . S
C474 C477 1.539 . S
C475 C471 1.408 . S
C475 C474 1.404 . S
C475 H487 0.930 . S
C476 C472 1.524 . S
C476 H488 0.956 . S
C476 H489 0.961 . S
C476 H490 0.961 . S
C477 C474 1.539 . S
C477 H491 0.958 . S
C477 H492 0.961 . S
C477 H493 0.960 . S
H478 C462 0.931 . S
H479 C467 0.929 . S
H480 C468 0.960 . S
H481 C468 0.962 . S
H482 C468 0.960 . S
H483 C469 0.961 . S
H484 C469 0.961 . S
H485 C469 0.961 . S
H486 C470 0.931 . S
H487 C475 0.930 . S
H488 C476 0.956 . S
H489 C476 0.961 . S
H490 C476 0.961 . S
H491 C477 0.958 . S
H492 C477 0.961 . S
H493 C477 0.960 . S
C494 C495 1.391 1_556 S
C494 C496 1.394 . S
C494 H510 0.931 . S
C495 C494 1.391 1_554 S
C495 C499 1.376 . S
C496 C494 1.394 . S
C496 C497 1.369 1_556 S
C496 C500 1.531 . S
C497 C496 1.369 1_554 S
C497 C498 1.410 . S
C497 C505 1.503 . S
C498 C497 1.410 . S
C498 C499 1.392 . S
C498 C501 1.511 . S
C499 C495 1.376 . S
C499 C498 1.392 . S
C499 H511 0.929 . S
C500 C496 1.531 . S
C500 H512 0.960 . S
C500 H513 0.962 . S
C500 H514 0.960 . S
C501 C498 1.511 . S
C501 H515 0.961 . S
C501 H516 0.961 . S
C501 H517 0.961 . S
C502 C503 1.370 . S
C502 C504 1.363 . S
C502 H518 0.931 . S
C503 C502 1.370 . S
C503 C507 1.408 1_554 S
C504 C502 1.363 . S
C504 C505 1.370 . S
C504 C508 1.524 . S
C505 C497 1.503 . S
C505 C504 1.370 . S
C505 C506 1.403 1_554 S
C506 C505 1.403 1_556 S
C506 C507 1.404 . S
C506 C509 1.539 . S
C507 C503 1.408 1_556 S
C507 C506 1.404 . S
C507 H519 0.930 . S
C508 C504 1.524 . S
C508 H520 0.956 . S
C508 H521 0.961 . S
C508 H522 0.961 . S
C509 C506 1.539 . S
C509 H523 0.958 . S
C509 H524 0.961 . S
C509 H525 0.960 . S
H510 C494 0.931 . S
H511 C499 0.929 . S
H512 C500 0.960 . S
H513 C500 0.962 . S
H514 C500 0.960 . S
H515 C501 0.961 . S
H516 C501 0.961 . S
H517 C501 0.961 . S
H518 C502 0.931 . S
H519 C507 0.930 . S
H520 C508 0.956 . S
H521 C508 0.961 . S
H522 C508 0.961 . S
H523 C509 0.958 . S
H524 C509 0.961 . S
H525 C509 0.960 . S
C526 C527 1.391 1_556 S
C526 C528 1.394 . S
C526 H542 0.931 . S
C527 C526 1.391 1_554 S
C527 C531 1.376 . S
C528 C526 1.394 . S
C528 C529 1.369 1_556 S
C528 C532 1.531 . S
C529 C528 1.369 1_554 S
C529 C530 1.410 . S
C529 C537 1.503 . S
C530 C529 1.410 . S
C530 C531 1.392 . S
C530 C533 1.511 . S
C531 C527 1.376 . S
C531 C530 1.392 . S
C531 H543 0.929 . S
C532 C528 1.531 . S
C532 H544 0.960 . S
C532 H545 0.962 . S
C532 H546 0.960 . S
C533 C530 1.511 . S
C533 H547 0.961 . S
C533 H548 0.961 . S
C533 H549 0.961 . S
C534 C535 1.370 . S
C534 C536 1.363 . S
C534 H550 0.931 . S
C535 C534 1.370 . S
C535 C539 1.408 1_554 S
C536 C534 1.363 . S
C536 C537 1.370 . S
C536 C540 1.524 . S
C537 C529 1.503 . S
C537 C536 1.370 . S
C537 C538 1.403 1_554 S
C538 C537 1.403 1_556 S
C538 C539 1.404 . S
C538 C541 1.539 . S
C539 C535 1.408 1_556 S
C539 C538 1.404 . S
C539 H551 0.930 . S
C540 C536 1.524 . S
C540 H552 0.956 . S
C540 H553 0.961 . S
C540 H554 0.961 . S
C541 C538 1.539 . S
C541 H555 0.958 . S
C541 H556 0.961 . S
C541 H557 0.960 . S
H542 C526 0.931 . S
H543 C531 0.929 . S
H544 C532 0.960 . S
H545 C532 0.962 . S
H546 C532 0.960 . S
H547 C533 0.961 . S
H548 C533 0.961 . S
H549 C533 0.961 . S
H550 C534 0.931 . S
H551 C539 0.930 . S
H552 C540 0.956 . S
H553 C540 0.961 . S
H554 C540 0.961 . S
H555 C541 0.958 . S
H556 C541 0.961 . S
H557 C541 0.960 . S
C558 C559 1.391 1_556 S
C558 C560 1.394 . S
C558 H574 0.931 . S
C559 C558 1.391 1_554 S
C559 C563 1.376 . S
C560 C558 1.394 . S
C560 C561 1.369 1_556 S
C560 C564 1.531 . S
C561 C560 1.369 1_554 S
C561 C562 1.410 . S
C561 C569 1.503 . S
C562 C561 1.410 . S
C562 C563 1.392 . S
C562 C565 1.511 . S
C563 C559 1.376 . S
C563 C562 1.392 . S
C563 H575 0.929 . S
C564 C560 1.531 . S
C564 H576 0.960 . S
C564 H577 0.962 . S
C564 H578 0.960 . S
C565 C562 1.511 . S
C565 H579 0.961 . S
C565 H580 0.961 . S
C565 H581 0.961 . S
C566 C567 1.370 . S
C566 C568 1.363 . S
C566 H582 0.931 . S
C567 C566 1.370 . S
C567 C571 1.408 1_554 S
C568 C566 1.363 . S
C568 C569 1.370 . S
C568 C572 1.524 . S
C569 C561 1.503 . S
C569 C568 1.370 . S
C569 C570 1.403 1_554 S
C570 C569 1.403 1_556 S
C570 C571 1.404 . S
C570 C573 1.539 . S
C571 C567 1.408 1_556 S
C571 C570 1.404 . S
C571 H583 0.930 . S
C572 C568 1.524 . S
C572 H584 0.956 . S
C572 H585 0.961 . S
C572 H586 0.961 . S
C573 C570 1.539 . S
C573 H587 0.958 . S
C573 H588 0.961 . S
C573 H589 0.960 . S
H574 C558 0.931 . S
H575 C563 0.929 . S
H576 C564 0.960 . S
H577 C564 0.962 . S
H578 C564 0.960 . S
H579 C565 0.961 . S
H580 C565 0.961 . S
H581 C565 0.961 . S
H582 C566 0.931 . S
H583 C571 0.930 . S
H584 C572 0.956 . S
H585 C572 0.961 . S
H586 C572 0.961 . S
H587 C573 0.958 . S
H588 C573 0.961 . S
H589 C573 0.960 . S
C590 C591 1.391 1_556 S
C590 C592 1.394 . S
C590 H606 0.931 . S
C591 C590 1.391 1_554 S
C591 C595 1.376 . S
C592 C590 1.394 . S
C592 C593 1.366 1_556 S
C592 C596 1.531 . S
C593 C592 1.366 1_554 S
C593 C594 1.412 . S
C593 C601 1.504 . S
C594 C593 1.412 . S
C594 C595 1.392 . S
C594 C597 1.511 . S
C595 C591 1.376 . S
C595 C594 1.392 . S
C595 H607 0.929 . S
C596 C592 1.531 . S
C596 H608 0.960 . S
C596 H609 0.962 . S
C596 H610 0.960 . S
C597 C594 1.511 . S
C597 H611 0.961 . S
C597 H612 0.961 . S
C597 H613 0.961 . S
C598 C599 1.370 . S
C598 C600 1.363 . S
C598 H614 0.931 . S
C599 C598 1.370 . S
C599 C603 1.408 1_554 S
C600 C598 1.363 . S
C600 C601 1.370 . S
C600 C604 1.524 . S
C601 C593 1.504 . S
C601 C600 1.370 . S
C601 C602 1.403 1_554 S
C602 C601 1.403 1_556 S
C602 C603 1.404 . S
C602 C605 1.539 . S
C603 C599 1.408 1_556 S
C603 C602 1.404 . S
C603 H615 0.930 . S
C604 C600 1.524 . S
C604 H616 0.956 . S
C604 H617 0.961 . S
C604 H618 0.961 . S
C605 C602 1.539 . S
C605 H619 0.958 . S
C605 H620 0.961 . S
C605 H621 0.960 . S
H606 C590 0.931 . S
H607 C595 0.929 . S
H608 C596 0.960 . S
H609 C596 0.962 . S
H610 C596 0.960 . S
H611 C597 0.961 . S
H612 C597 0.961 . S
H613 C597 0.961 . S
H614 C598 0.931 . S
H615 C603 0.930 . S
H616 C604 0.956 . S
H617 C604 0.961 . S
H618 C604 0.961 . S
H619 C605 0.958 . S
H620 C605 0.961 . S
H621 C605 0.960 . S
C247 C222 2.210 . S
C239 C53 2.267 . S
C279 C218 1.223 . S
C271 C97 1.347 . S
C311 C228 2.199 . S
C303 C35 2.265 . S
C343 C212 1.393 1_565 S
C335 C91 1.458 1_545 S
C367 C29 2.450 . S
C375 C204 2.417 . S
C407 C236 1.518 . S
C399 C109 1.554 . S
C431 C47 2.482 . S
C439 C190 2.402 . S
C463 C115 1.478 1_545 S
C471 C234 1.368 . S
C495 C153 1.099 . S
C503 C216 1.117 . S
C527 C171 1.183 . S
C535 C231 1.143 . S
C567 C225 0.929 . S
C559 C159 0.955 . S
C599 C220 0.994 . S
C591 C177 1.054 . S
