# Generated by pormake.
# Topology eea, (3,6)-cn, num edge types: 1
# Building blocks:
#     Node 0, Type 0, BuildingBlock: KAKCAD_clean_linker_0, # of connection points: 3
#     Node 1, Type 0, BuildingBlock: KAKCAD_clean_linker_0, # of connection points: 3
#     Node 2, Type 0, BuildingBlock: KAKCAD_clean_linker_0, # of connection points: 3
#     Node 3, Type 0, BuildingBlock: KAKCAD_clean_linker_0, # of connection points: 3
#     Node 4, Type 0, BuildingBlock: KAKCAD_clean_linker_0, # of connection points: 3
#     Node 5, Type 0, BuildingBlock: KAKCAD_clean_linker_0, # of connection points: 3
#     Node 6, Type 0, BuildingBlock: KAKCAD_clean_linker_0, # of connection points: 3
#     Node 7, Type 0, BuildingBlock: KAKCAD_clean_linker_0, # of connection points: 3
#     Node 8, Type 0, BuildingBlock: KAKCAD_clean_linker_0, # of connection points: 3
#     Node 9, Type 0, BuildingBlock: KAKCAD_clean_linker_0, # of connection points: 3
#     Node 10, Type 0, BuildingBlock: KAKCAD_clean_linker_0, # of connection points: 3
#     Node 11, Type 0, BuildingBlock: KAKCAD_clean_linker_0, # of connection points: 3
#     Node 12, Type 0, BuildingBlock: KAKCAD_clean_linker_0, # of connection points: 3
#     Node 13, Type 0, BuildingBlock: KAKCAD_clean_linker_0, # of connection points: 3
#     Node 14, Type 0, BuildingBlock: KAKCAD_clean_linker_0, # of connection points: 3
#     Node 15, Type 0, BuildingBlock: KAKCAD_clean_linker_0, # of connection points: 3
#     Node 16, Type 0, BuildingBlock: KAKCAD_clean_linker_0, # of connection points: 3
#     Node 17, Type 0, BuildingBlock: KAKCAD_clean_linker_0, # of connection points: 3
#     Node 18, Type 1, BuildingBlock: CUKXOW_clean_sbu_0, # of connection points: 6
#     Node 19, Type 1, BuildingBlock: CUKXOW_clean_sbu_0, # of connection points: 6
#     Node 20, Type 1, BuildingBlock: CUKXOW_clean_sbu_0, # of connection points: 6
#     Node 21, Type 1, BuildingBlock: CUKXOW_clean_sbu_0, # of connection points: 6
#     Node 22, Type 1, BuildingBlock: CUKXOW_clean_sbu_0, # of connection points: 6
#     Node 23, Type 1, BuildingBlock: CUKXOW_clean_sbu_0, # of connection points: 6
#     Node 24, Type 1, BuildingBlock: CUKXOW_clean_sbu_0, # of connection points: 6
#     Node 25, Type 1, BuildingBlock: CUKXOW_clean_sbu_0, # of connection points: 6
#     Node 26, Type 1, BuildingBlock: CUKXOW_clean_sbu_0, # of connection points: 6
#     Edge 27, Type (0, 1), BuildingBlock: MIFKUJ_clean_linker_0, # of connection points: 2
#     Edge 28, Type (0, 1), BuildingBlock: MIFKUJ_clean_linker_0, # of connection points: 2
#     Edge 29, Type (0, 1), BuildingBlock: MIFKUJ_clean_linker_0, # of connection points: 2
#     Edge 30, Type (0, 1), BuildingBlock: MIFKUJ_clean_linker_0, # of connection points: 2
#     Edge 31, Type (0, 1), BuildingBlock: MIFKUJ_clean_linker_0, # of connection points: 2
#     Edge 32, Type (0, 1), BuildingBlock: MIFKUJ_clean_linker_0, # of connection points: 2
#     Edge 33, Type (0, 1), BuildingBlock: MIFKUJ_clean_linker_0, # of connection points: 2
#     Edge 34, Type (0, 1), BuildingBlock: MIFKUJ_clean_linker_0, # of connection points: 2
#     Edge 35, Type (0, 1), BuildingBlock: MIFKUJ_clean_linker_0, # of connection points: 2
#     Edge 36, Type (0, 1), BuildingBlock: MIFKUJ_clean_linker_0, # of connection points: 2
#     Edge 37, Type (0, 1), BuildingBlock: MIFKUJ_clean_linker_0, # of connection points: 2
#     Edge 38, Type (0, 1), BuildingBlock: MIFKUJ_clean_linker_0, # of connection points: 2
#     Edge 39, Type (0, 1), BuildingBlock: MIFKUJ_clean_linker_0, # of connection points: 2
#     Edge 40, Type (0, 1), BuildingBlock: MIFKUJ_clean_linker_0, # of connection points: 2
#     Edge 41, Type (0, 1), BuildingBlock: MIFKUJ_clean_linker_0, # of connection points: 2
#     Edge 42, Type (0, 1), BuildingBlock: MIFKUJ_clean_linker_0, # of connection points: 2
#     Edge 43, Type (0, 1), BuildingBlock: MIFKUJ_clean_linker_0, # of connection points: 2
#     Edge 44, Type (0, 1), BuildingBlock: MIFKUJ_clean_linker_0, # of connection points: 2
#     Edge 45, Type (0, 1), BuildingBlock: MIFKUJ_clean_linker_0, # of connection points: 2
#     Edge 46, Type (0, 1), BuildingBlock: MIFKUJ_clean_linker_0, # of connection points: 2
#     Edge 47, Type (0, 1), BuildingBlock: MIFKUJ_clean_linker_0, # of connection points: 2
#     Edge 48, Type (0, 1), BuildingBlock: MIFKUJ_clean_linker_0, # of connection points: 2
#     Edge 49, Type (0, 1), BuildingBlock: MIFKUJ_clean_linker_0, # of connection points: 2
#     Edge 50, Type (0, 1), BuildingBlock: MIFKUJ_clean_linker_0, # of connection points: 2
#     Edge 51, Type (0, 1), BuildingBlock: MIFKUJ_clean_linker_0, # of connection points: 2
#     Edge 52, Type (0, 1), BuildingBlock: MIFKUJ_clean_linker_0, # of connection points: 2
#     Edge 53, Type (0, 1), BuildingBlock: MIFKUJ_clean_linker_0, # of connection points: 2
#     Edge 54, Type (0, 1), BuildingBlock: MIFKUJ_clean_linker_0, # of connection points: 2
#     Edge 55, Type (0, 1), BuildingBlock: MIFKUJ_clean_linker_0, # of connection points: 2
#     Edge 56, Type (0, 1), BuildingBlock: MIFKUJ_clean_linker_0, # of connection points: 2
#     Edge 57, Type (0, 1), BuildingBlock: MIFKUJ_clean_linker_0, # of connection points: 2
#     Edge 58, Type (0, 1), BuildingBlock: MIFKUJ_clean_linker_0, # of connection points: 2
#     Edge 59, Type (0, 1), BuildingBlock: MIFKUJ_clean_linker_0, # of connection points: 2
#     Edge 60, Type (0, 1), BuildingBlock: MIFKUJ_clean_linker_0, # of connection points: 2
#     Edge 61, Type (0, 1), BuildingBlock: MIFKUJ_clean_linker_0, # of connection points: 2
#     Edge 62, Type (0, 1), BuildingBlock: MIFKUJ_clean_linker_0, # of connection points: 2
#     Edge 63, Type (0, 1), BuildingBlock: MIFKUJ_clean_linker_0, # of connection points: 2
#     Edge 64, Type (0, 1), BuildingBlock: MIFKUJ_clean_linker_0, # of connection points: 2
#     Edge 65, Type (0, 1), BuildingBlock: MIFKUJ_clean_linker_0, # of connection points: 2
#     Edge 66, Type (0, 1), BuildingBlock: MIFKUJ_clean_linker_0, # of connection points: 2
#     Edge 67, Type (0, 1), BuildingBlock: MIFKUJ_clean_linker_0, # of connection points: 2
#     Edge 68, Type (0, 1), BuildingBlock: MIFKUJ_clean_linker_0, # of connection points: 2
#     Edge 69, Type (0, 1), BuildingBlock: MIFKUJ_clean_linker_0, # of connection points: 2
#     Edge 70, Type (0, 1), BuildingBlock: MIFKUJ_clean_linker_0, # of connection points: 2
#     Edge 71, Type (0, 1), BuildingBlock: MIFKUJ_clean_linker_0, # of connection points: 2
#     Edge 72, Type (0, 1), BuildingBlock: MIFKUJ_clean_linker_0, # of connection points: 2
#     Edge 73, Type (0, 1), BuildingBlock: MIFKUJ_clean_linker_0, # of connection points: 2
#     Edge 74, Type (0, 1), BuildingBlock: MIFKUJ_clean_linker_0, # of connection points: 2
#     Edge 75, Type (0, 1), BuildingBlock: MIFKUJ_clean_linker_0, # of connection points: 2
#     Edge 76, Type (0, 1), BuildingBlock: MIFKUJ_clean_linker_0, # of connection points: 2
#     Edge 77, Type (0, 1), BuildingBlock: MIFKUJ_clean_linker_0, # of connection points: 2
#     Edge 78, Type (0, 1), BuildingBlock: MIFKUJ_clean_linker_0, # of connection points: 2
#     Edge 79, Type (0, 1), BuildingBlock: MIFKUJ_clean_linker_0, # of connection points: 2
#     Edge 80, Type (0, 1), BuildingBlock: MIFKUJ_clean_linker_0, # of connection points: 2
# Relax obj value: 0.017
# Max RMSD: 0.127
# Mean RMSD: 0.052
data_MOF--net-eea--node1-CUKXOW_clean_sbu_0--node2-KAKCAD_clean_linker_0--edge1-MIFKUJ_clean_linker_0
_symmetry_space_group_name_H-M    P1
_symmetry_Int_Tables_number       1
_symmetry_cell_setting            triclinic
loop_
_symmetry_equiv_pos_as_xyz
'x, y, z'
_cell_length_a     83.062597
_cell_length_b     80.184482
_cell_length_c     92.000703
_cell_angle_alpha  93.105392
_cell_angle_beta   92.974477
_cell_angle_gamma 119.87797
loop_
_atom_site_label
_atom_site_type_symbol
_atom_site_fract_x
_atom_site_fract_y
_atom_site_fract_z
_atom_type_partial_charge
C0 C 0.26971 0.1567 0.48834 0.0
C1 C 0.28361 0.15286 0.49363 0.0
C2 C 0.26455 0.15447 0.47334 0.0
C3 C 0.27318 0.14834 0.46331 0.0
C4 C 0.28733 0.14489 0.46858 0.0
C5 C 0.29251 0.14715 0.48355 0.0
C6 C 0.26706 0.14496 0.44744 0.0
C7 C 0.26325 0.15795 0.44048 0.0
C8 C 0.25717 0.15453 0.42553 0.0
C9 C 0.25467 0.13788 0.41756 0.0
C10 C 0.25799 0.12453 0.42441 0.0
C11 C 0.26442 0.1283 0.4393 0.0
C12 C 0.25356 0.10605 0.41628 0.0
C13 C 0.23656 0.09511 0.4076 0.0
C14 C 0.26587 0.09885 0.41756 0.0
C15 C 0.26116 0.08095 0.41042 0.0
C16 C 0.24396 0.06985 0.40201 0.0
C17 C 0.25253 0.16781 0.41832 0.0
C18 C 0.23957 0.17218 0.42396 0.0
C19 C 0.26033 0.17544 0.40541 0.0
C20 C 0.25518 0.1872 0.3982 0.0
C21 C 0.24181 0.19126 0.4036 0.0
C22 C 0.23413 0.18362 0.41662 0.0
C23 C 0.23179 0.07718 0.40058 0.0
H24 H 0.26244 0.16091 0.49582 0.0
H25 H 0.25344 0.15702 0.46963 0.0
H26 H 0.29445 0.14046 0.4611 0.0
H27 H 0.30353 0.14445 0.48723 0.0
H28 H 0.26522 0.17086 0.44662 0.0
H29 H 0.26657 0.1178 0.44471 0.0
H30 H 0.24969 0.13509 0.40606 0.0
H31 H 0.22672 0.1002 0.40653 0.0
H32 H 0.27911 0.10703 0.42413 0.0
H33 H 0.27076 0.07559 0.41177 0.0
H34 H 0.2332 0.16623 0.43381 0.0
H35 H 0.27045 0.17232 0.40093 0.0
H36 H 0.21852 0.069 0.39405 0.0
H37 H 0.22353 0.18601 0.42099 0.0
H38 H 0.26171 0.19311 0.38841 0.0
C39 C 0.86872 0.16159 0.48519 0.0
C40 C 0.86041 0.1467 0.49444 0.0
C41 C 0.87141 0.15752 0.47084 0.0
C42 C 0.86589 0.1385 0.46548 0.0
C43 C 0.85783 0.1237 0.47483 0.0
C44 C 0.85508 0.12775 0.48913 0.0
C45 C 0.86849 0.13398 0.4502 0.0
C46 C 0.88502 0.14609 0.44394 0.0
C47 C 0.88785 0.14127 0.42976 0.0
C48 C 0.87387 0.12428 0.42177 0.0
C49 C 0.85723 0.11209 0.42782 0.0
C50 C 0.85461 0.11711 0.44199 0.0
C51 C 0.84292 0.0937 0.41958 0.0
C52 C 0.83802 0.09295 0.4046 0.0
C53 C 0.83444 0.0766 0.4266 0.0
C54 C 0.82159 0.05909 0.41878 0.0
C55 C 0.8169 0.05827 0.40376 0.0
C56 C 0.90565 0.1536 0.42345 0.0
C57 C 0.91348 0.17374 0.42432 0.0
C58 C 0.91492 0.14524 0.41647 0.0
C59 C 0.93163 0.15676 0.41043 0.0
C60 C 0.93941 0.17692 0.41113 0.0
C61 C 0.93014 0.18528 0.41818 0.0
C62 C 0.82509 0.07542 0.39677 0.0
H63 H 0.87281 0.17631 0.48895 0.0
H64 H 0.87751 0.16922 0.46386 0.0
H65 H 0.8538 0.10897 0.47116 0.0
H66 H 0.84896 0.11603 0.49608 0.0
H67 H 0.89602 0.15889 0.4503 0.0
H68 H 0.84164 0.10791 0.4466 0.0
H69 H 0.87608 0.12041 0.41088 0.0
H70 H 0.8442 0.10593 0.39893 0.0
H71 H 0.83805 0.07667 0.4381 0.0
H72 H 0.81534 0.04615 0.42449 0.0
H73 H 0.90653 0.18054 0.42953 0.0
H74 H 0.90936 0.12977 0.41585 0.0
H75 H 0.82184 0.07521 0.38519 0.0
H76 H 0.9356 0.20072 0.41875 0.0
H77 H 0.93857 0.14987 0.40536 0.0
C78 C 0.89386 0.7387 0.50357 0.0
C79 C 0.87537 0.72527 0.50596 0.0
C80 C 0.89806 0.74692 0.49026 0.0
C81 C 0.8839 0.74178 0.47896 0.0
C82 C 0.86545 0.72819 0.48131 0.0
C83 C 0.86123 0.72017 0.49464 0.0
C84 C 0.88823 0.75061 0.46481 0.0
C85 C 0.90469 0.75448 0.45851 0.0
C86 C 0.90871 0.76266 0.4451 0.0
C87 C 0.89594 0.76681 0.43789 0.0
C88 C 0.87937 0.76291 0.44393 0.0
C89 C 0.87575 0.75503 0.45745 0.0
C90 C 0.86567 0.76678 0.43605 0.0
C91 C 0.87162 0.78389 0.4292 0.0
C92 C 0.8465 0.75324 0.43525 0.0
C93 C 0.83356 0.75672 0.42775 0.0
C94 C 0.83949 0.77382 0.42088 0.0
C95 C 0.92617 0.7668 0.43854 0.0
C96 C 0.94319 0.77499 0.44729 0.0
C97 C 0.926 0.76288 0.42343 0.0
C98 C 0.94248 0.76728 0.41719 0.0
C99 C 0.95954 0.77567 0.4259 0.0
C100 C 0.95969 0.77938 0.44104 0.0
C101 C 0.85867 0.78738 0.4217 0.0
H102 H 0.90517 0.7428 0.51194 0.0
H103 H 0.9124 0.75748 0.48893 0.0
H104 H 0.8542 0.72361 0.4728 0.0
H105 H 0.84679 0.71012 0.49611 0.0
H106 H 0.91417 0.75065 0.46385 0.0
H107 H 0.86329 0.75266 0.46236 0.0
H108 H 0.89886 0.77301 0.42751 0.0
H109 H 0.88627 0.79471 0.42979 0.0
H110 H 0.8415 0.73978 0.44022 0.0
H111 H 0.81893 0.74584 0.42712 0.0
H112 H 0.94383 0.77833 0.45894 0.0
H113 H 0.9131 0.75635 0.41641 0.0
H114 H 0.86367 0.80082 0.41671 0.0
H115 H 0.97255 0.78563 0.44808 0.0
H116 H 0.94189 0.76443 0.40548 0.0
C117 C 0.13462 0.27681 0.50723 0.0
C118 C 0.1365 0.29507 0.50601 0.0
C119 C 0.1332 0.26956 0.52085 0.0
C120 C 0.13332 0.2803 0.53346 0.0
C121 C 0.135 0.29848 0.53225 0.0
C122 C 0.13679 0.30592 0.51863 0.0
C123 C 0.13159 0.27239 0.54781 0.0
C124 C 0.14341 0.26556 0.55253 0.0
C125 C 0.14157 0.25759 0.56596 0.0
C126 C 0.12749 0.25605 0.57454 0.0
C127 C 0.11517 0.26229 0.56975 0.0
C128 C 0.1176 0.27084 0.55649 0.0
C129 C 0.09895 0.25856 0.57797 0.0
C130 C 0.0881 0.24046 0.58326 0.0
C131 C 0.09356 0.27254 0.57988 0.0
C132 C 0.07748 0.26839 0.58671 0.0
C133 C 0.0664 0.25012 0.59173 0.0
C134 C 0.15409 0.25043 0.57084 0.0
C135 C 0.15582 0.23683 0.56179 0.0
C136 C 0.16432 0.25711 0.58459 0.0
C137 C 0.17625 0.25043 0.58916 0.0
C138 C 0.1778 0.23666 0.58018 0.0
C139 C 0.16743 0.22984 0.56649 0.0
C140 C 0.07201 0.23628 0.59002 0.0
H141 H 0.13452 0.26826 0.49766 0.0
H142 H 0.1318 0.25546 0.52151 0.0
H143 H 0.13516 0.30701 0.54185 0.0
H144 H 0.13822 0.32003 0.51792 0.0
H145 H 0.15422 0.2667 0.54584 0.0
H146 H 0.10801 0.27541 0.55254 0.0
H147 H 0.12587 0.24959 0.58481 0.0
H148 H 0.09168 0.22925 0.58172 0.0
H149 H 0.10175 0.28669 0.57603 0.0
H150 H 0.07372 0.27948 0.58805 0.0
H151 H 0.14797 0.23143 0.55117 0.0
H152 H 0.16323 0.26764 0.59172 0.0
H153 H 0.06364 0.22195 0.5935 0.0
H154 H 0.16845 0.21924 0.55939 0.0
H155 H 0.18404 0.25578 0.5998 0.0
C156 C 0.70541 0.83343 0.51715 0.0
C157 C 0.71403 0.84727 0.50717 0.0
C158 C 0.71207 0.83762 0.53194 0.0
C159 C 0.72735 0.85579 0.53703 0.0
C160 C 0.73591 0.86963 0.52703 0.0
C161 C 0.72935 0.8654 0.51227 0.0
C162 C 0.73448 0.8604 0.55269 0.0
C163 C 0.73735 0.84727 0.56031 0.0
C164 C 0.745 0.85197 0.57496 0.0
C165 C 0.7495 0.86998 0.582 0.0
C166 C 0.74686 0.88332 0.57446 0.0
C167 C 0.73922 0.87835 0.55986 0.0
C168 C 0.75289 0.90284 0.58156 0.0
C169 C 0.74876 0.90528 0.59587 0.0
C170 C 0.76306 0.91923 0.57403 0.0
C171 C 0.769 0.93767 0.58064 0.0
C172 C 0.76485 0.94015 0.59493 0.0
C173 C 0.74939 0.83858 0.58254 0.0
C174 C 0.73734 0.81848 0.58034 0.0
C175 C 0.76612 0.8458 0.59153 0.0
C176 C 0.77086 0.83324 0.5979 0.0
C177 C 0.75909 0.81312 0.59536 0.0
C178 C 0.74215 0.8059 0.58663 0.0
C179 C 0.75461 0.92377 0.60247 0.0
H180 H 0.69366 0.81929 0.5135 0.0
H181 H 0.70515 0.82672 0.53942 0.0
H182 H 0.74783 0.88369 0.53061 0.0
H183 H 0.73616 0.87643 0.50486 0.0
H184 H 0.73442 0.83374 0.55459 0.0
H185 H 0.73689 0.88848 0.55406 0.0
H186 H 0.75547 0.87383 0.59326 0.0
H187 H 0.74086 0.89289 0.6019 0.0
H188 H 0.76663 0.91781 0.56305 0.0
H189 H 0.77671 0.95001 0.57451 0.0
H190 H 0.72424 0.81243 0.57362 0.0
H191 H 0.77586 0.86118 0.59334 0.0
H192 H 0.75134 0.92527 0.61354 0.0
H193 H 0.73281 0.79049 0.58433 0.0
H194 H 0.78387 0.83932 0.60475 0.0
C195 C 0.1135 0.84913 0.50533 0.0
C196 C 0.13108 0.85209 0.50223 0.0
C197 C 0.10989 0.8516 0.51972 0.0
C198 C 0.12382 0.85712 0.53127 0.0
C199 C 0.14126 0.8597 0.5282 0.0
C200 C 0.14484 0.85717 0.51384 0.0
C201 C 0.12039 0.86078 0.54644 0.0
C202 C 0.10358 0.84811 0.55206 0.0
C203 C 0.10019 0.85176 0.56635 0.0
C204 C 0.11387 0.86824 0.57505 0.0
C205 C 0.1307 0.88121 0.56954 0.0
C206 C 0.13382 0.8773 0.55522 0.0
C207 C 0.14471 0.89926 0.57842 0.0
C208 C 0.13902 0.90998 0.58715 0.0
C209 C 0.16389 0.90635 0.57775 0.0
C210 C 0.17705 0.924 0.58527 0.0
C211 C 0.17135 0.93492 0.59376 0.0
C212 C 0.08213 0.83865 0.57203 0.0
C213 C 0.06531 0.83197 0.5633 0.0
C214 C 0.08155 0.83309 0.5863 0.0
C215 C 0.06449 0.82123 0.59177 0.0
C216 C 0.04766 0.81477 0.58311 0.0
C217 C 0.04825 0.82018 0.56879 0.0
C218 C 0.15218 0.92754 0.59478 0.0
H219 H 0.10268 0.84544 0.49661 0.0
H220 H 0.09638 0.84972 0.52175 0.0
H221 H 0.15215 0.86366 0.53692 0.0
H222 H 0.15841 0.85919 0.51184 0.0
H223 H 0.09323 0.83524 0.54538 0.0
H224 H 0.14645 0.88751 0.55065 0.0
H225 H 0.11127 0.87111 0.58607 0.0
H226 H 0.12437 0.90509 0.58781 0.0
H227 H 0.16878 0.89834 0.57131 0.0
H228 H 0.19167 0.92929 0.58411 0.0
H229 H 0.06532 0.83616 0.5523 0.0
H230 H 0.0943 0.83789 0.59323 0.0
H231 H 0.14729 0.9354 0.60141 0.0
H232 H 0.03551 0.81527 0.56182 0.0
H233 H 0.06446 0.81744 0.6029 0.0
C234 C 0.93596 0.48691 0.82399 0.0
C235 C 0.9494 0.48228 0.82898 0.0
C236 C 0.93064 0.48495 0.80906 0.0
C237 C 0.93874 0.47844 0.7988 0.0
C238 C 0.95243 0.47415 0.80381 0.0
C239 C 0.95767 0.476 0.81874 0.0
C240 C 0.93249 0.47555 0.78298 0.0
C241 C 0.92856 0.48873 0.77651 0.0
C242 C 0.92178 0.48557 0.76172 0.0
C243 C 0.91925 0.46916 0.7533 0.0
C244 C 0.92316 0.45583 0.75958 0.0
C245 C 0.92977 0.45917 0.77442 0.0
C246 C 0.91945 0.43788 0.75096 0.0
C247 C 0.90293 0.42702 0.7417 0.0
C248 C 0.93195 0.43094 0.75253 0.0
C249 C 0.92775 0.41326 0.74536 0.0
C250 C 0.91098 0.40213 0.73644 0.0
C251 C 0.91662 0.49901 0.75528 0.0
C252 C 0.90649 0.50569 0.76305 0.0
C253 C 0.92144 0.50499 0.7413 0.0
C254 C 0.91618 0.51735 0.73519 0.0
C255 C 0.90588 0.52385 0.74292 0.0
C256 C 0.90117 0.51796 0.75693 0.0
C257 C 0.89875 0.40934 0.7345 0.0
H258 H 0.92919 0.49156 0.83165 0.0
H259 H 0.91984 0.48808 0.80559 0.0
H260 H 0.95915 0.46939 0.79618 0.0
H261 H 0.96827 0.47261 0.82227 0.0
H262 H 0.93089 0.50157 0.78297 0.0
H263 H 0.93207 0.44854 0.77947 0.0
H264 H 0.91391 0.46657 0.74191 0.0
H265 H 0.89289 0.43183 0.74041 0.0
H266 H 0.94493 0.43913 0.75941 0.0
H267 H 0.93759 0.40822 0.74687 0.0
H268 H 0.9024 0.50118 0.77379 0.0
H269 H 0.92936 0.50018 0.7351 0.0
H270 H 0.8856 0.40099 0.72784 0.0
H271 H 0.8934 0.52288 0.76321 0.0
H272 H 0.91988 0.52154 0.72432 0.0
C273 C 0.53792 0.49531 0.82293 0.0
C274 C 0.53059 0.48105 0.83278 0.0
C275 C 0.54116 0.49079 0.80889 0.0
C276 C 0.53686 0.47188 0.80442 0.0
C277 C 0.52941 0.45762 0.81424 0.0
C278 C 0.52638 0.46218 0.8283 0.0
C279 C 0.54018 0.46693 0.78956 0.0
C280 C 0.55736 0.47837 0.78398 0.0
C281 C 0.56085 0.47341 0.77006 0.0
C282 C 0.54679 0.45654 0.76186 0.0
C283 C 0.52957 0.44473 0.76739 0.0
C284 C 0.52634 0.45031 0.78117 0.0
C285 C 0.51523 0.42622 0.7591 0.0
C286 C 0.51284 0.42436 0.74371 0.0
C287 C 0.50406 0.41001 0.76659 0.0
C288 C 0.49087 0.39253 0.75894 0.0
C289 C 0.48884 0.3907 0.74363 0.0
C290 C 0.57921 0.48565 0.76422 0.0
C291 C 0.58915 0.50581 0.76762 0.0
C292 C 0.58697 0.47734 0.75514 0.0
C293 C 0.60387 0.48887 0.74933 0.0
C294 C 0.61383 0.50903 0.75274 0.0
C295 C 0.6063 0.51728 0.76213 0.0
C296 C 0.49991 0.40668 0.73605 0.0
H297 H 0.54138 0.50999 0.82617 0.0
H298 H 0.54684 0.50201 0.80148 0.0
H299 H 0.52612 0.44297 0.81109 0.0
H300 H 0.52057 0.45089 0.83564 0.0
H301 H 0.56821 0.49079 0.79076 0.0
H302 H 0.51295 0.44178 0.78543 0.0
H303 H 0.54933 0.45245 0.7512 0.0
H304 H 0.52087 0.43654 0.73754 0.0
H305 H 0.50574 0.41064 0.77839 0.0
H306 H 0.48256 0.38025 0.76496 0.0
H307 H 0.58361 0.51287 0.77439 0.0
H308 H 0.58007 0.46187 0.7525 0.0
H309 H 0.49844 0.40551 0.72421 0.0
H310 H 0.61361 0.53266 0.76531 0.0
H311 H 0.60891 0.48188 0.74196 0.0
C312 C 0.56435 0.06794 0.83506 0.0
C313 C 0.54767 0.05104 0.83705 0.0
C314 C 0.56648 0.07668 0.82202 0.0
C315 C 0.55193 0.0688 0.81073 0.0
C316 C 0.53526 0.05186 0.81269 0.0
C317 C 0.53318 0.04301 0.8257 0.0
C318 C 0.55425 0.07834 0.797 0.0
C319 C 0.57089 0.08497 0.79026 0.0
C320 C 0.57374 0.09476 0.77759 0.0
C321 C 0.55967 0.09797 0.77172 0.0
C322 C 0.54284 0.09126 0.77823 0.0
C323 C 0.54014 0.08128 0.79079 0.0
C324 C 0.52827 0.09506 0.77203 0.0
C325 C 0.53291 0.11381 0.76895 0.0
C326 C 0.50975 0.08001 0.76901 0.0
C327 C 0.49618 0.08358 0.76272 0.0
C328 C 0.50078 0.10235 0.75954 0.0
C329 C 0.59135 0.10143 0.7705 0.0
C330 C 0.60854 0.10954 0.77901 0.0
C331 C 0.59107 0.09929 0.75521 0.0
C332 C 0.60757 0.10488 0.74859 0.0
C333 C 0.6247 0.11268 0.75713 0.0
C334 C 0.62502 0.11506 0.7724 0.0
C335 C 0.51931 0.11745 0.76289 0.0
H336 H 0.57578 0.07439 0.84358 0.0
H337 H 0.57944 0.08982 0.82087 0.0
H338 H 0.52386 0.0454 0.80414 0.0
H339 H 0.52008 0.03011 0.82699 0.0
H340 H 0.58152 0.08213 0.79475 0.0
H341 H 0.52734 0.07644 0.79602 0.0
H342 H 0.56179 0.10574 0.76206 0.0
H343 H 0.54705 0.12572 0.77137 0.0
H344 H 0.50586 0.06539 0.77119 0.0
H345 H 0.48217 0.07151 0.7601 0.0
H346 H 0.60929 0.1117 0.7908 0.0
H347 H 0.57804 0.09285 0.74835 0.0
H348 H 0.52336 0.13217 0.76095 0.0
H349 H 0.63804 0.12131 0.77925 0.0
H350 H 0.60685 0.10265 0.7368 0.0
C351 C 0.79202 0.59257 0.83295 0.0
C352 C 0.78909 0.60808 0.83058 0.0
C353 C 0.78969 0.5851 0.84654 0.0
C354 C 0.78433 0.59292 0.85809 0.0
C355 C 0.7811 0.60822 0.85566 0.0
C356 C 0.78346 0.61572 0.84206 0.0
C357 C 0.78229 0.58523 0.87263 0.0
C358 C 0.79548 0.58083 0.8787 0.0
C359 C 0.79368 0.57358 0.89245 0.0
C360 C 0.77841 0.57064 0.90011 0.0
C361 C 0.76508 0.57492 0.89423 0.0
C362 C 0.76716 0.58226 0.88051 0.0
C363 C 0.74893 0.57159 0.90242 0.0
C364 C 0.73929 0.55469 0.90954 0.0
C365 C 0.74312 0.58533 0.90327 0.0
C366 C 0.72806 0.58227 0.91112 0.0
C367 C 0.71846 0.56539 0.91829 0.0
C368 C 0.80775 0.56911 0.89888 0.0
C369 C 0.81475 0.55959 0.89023 0.0
C370 C 0.81408 0.57411 0.91379 0.0
C371 C 0.82688 0.56945 0.91997 0.0
C372 C 0.83368 0.55967 0.91139 0.0
C373 C 0.82758 0.55492 0.89642 0.0
C374 C 0.72423 0.55162 0.91737 0.0
H375 H 0.79603 0.58611 0.82426 0.0
H376 H 0.79195 0.57308 0.84798 0.0
H377 H 0.77716 0.6147 0.86439 0.0
H378 H 0.78132 0.62782 0.84065 0.0
H379 H 0.80743 0.58354 0.87287 0.0
H380 H 0.7567 0.58518 0.87576 0.0
H381 H 0.77689 0.56498 0.9107 0.0
H382 H 0.74323 0.54369 0.9089 0.0
H383 H 0.75043 0.59861 0.89806 0.0
H384 H 0.72413 0.59328 0.91177 0.0
H385 H 0.81 0.55536 0.87874 0.0
H386 H 0.80924 0.58177 0.92069 0.0
H387 H 0.71693 0.53832 0.92255 0.0
H388 H 0.8324 0.54722 0.88955 0.0
H389 H 0.83158 0.57365 0.93147 0.0
C390 C 0.38647 0.17466 0.85178 0.0
C391 C 0.39253 0.18986 0.84269 0.0
C392 C 0.39163 0.17842 0.86682 0.0
C393 C 0.40316 0.19747 0.87315 0.0
C394 C 0.40951 0.21263 0.86402 0.0
C395 C 0.40415 0.20889 0.84903 0.0
C396 C 0.40851 0.20164 0.8892 0.0
C397 C 0.41238 0.18931 0.8971 0.0
C398 C 0.41787 0.19348 0.91218 0.0
C399 C 0.41971 0.21036 0.91933 0.0
C400 C 0.41607 0.22295 0.91163 0.0
C401 C 0.41016 0.21827 0.89665 0.0
C402 C 0.41921 0.2414 0.91905 0.0
C403 C 0.41431 0.24228 0.93336 0.0
C404 C 0.42774 0.25847 0.91197 0.0
C405 C 0.43146 0.27602 0.91907 0.0
C406 C 0.42684 0.27694 0.93345 0.0
C407 C 0.42222 0.18052 0.92038 0.0
C408 C 0.41101 0.16033 0.91776 0.0
C409 C 0.4377 0.18824 0.93084 0.0
C410 C 0.44191 0.17609 0.93846 0.0
C411 C 0.4308 0.15591 0.93576 0.0
C412 C 0.41525 0.14817 0.92536 0.0
C413 C 0.41813 0.25988 0.9405 0.0
H414 H 0.37773 0.15979 0.84728 0.0
H415 H 0.38633 0.16639 0.87351 0.0
H416 H 0.4187 0.22746 0.86842 0.0
H417 H 0.40891 0.22103 0.84247 0.0
H418 H 0.41172 0.17676 0.89142 0.0
H419 H 0.40669 0.22759 0.8908 0.0
H420 H 0.42423 0.21384 0.9309 0.0
H421 H 0.40748 0.22935 0.93904 0.0
H422 H 0.43202 0.2584 0.90106 0.0
H423 H 0.43847 0.28898 0.91344 0.0
H424 H 0.39888 0.15392 0.90987 0.0
H425 H 0.44676 0.20371 0.93301 0.0
H426 H 0.41422 0.26013 0.95153 0.0
H427 H 0.40652 0.1327 0.92289 0.0
H428 H 0.45386 0.18254 0.94651 0.0
C429 C 0.78281 0.1744 0.83809 0.0
C430 C 0.80125 0.18085 0.83491 0.0
C431 C 0.7789 0.17709 0.85233 0.0
C432 C 0.79333 0.18615 0.86371 0.0
C433 C 0.81171 0.19207 0.86055 0.0
C434 C 0.81563 0.18953 0.8463 0.0
C435 C 0.78935 0.19017 0.87866 0.0
C436 C 0.77313 0.17671 0.88463 0.0
C437 C 0.76878 0.18091 0.89843 0.0
C438 C 0.78118 0.19871 0.90641 0.0
C439 C 0.79765 0.21216 0.90075 0.0
C440 C 0.80153 0.20782 0.88684 0.0
C441 C 0.81074 0.23093 0.90919 0.0
C442 C 0.80407 0.24179 0.91652 0.0
C443 C 0.83008 0.23827 0.90976 0.0
C444 C 0.84248 0.25614 0.91737 0.0
C445 C 0.83584 0.26709 0.92458 0.0
C446 C 0.75109 0.16693 0.90434 0.0
C447 C 0.73455 0.15628 0.89504 0.0
C448 C 0.75046 0.16445 0.91936 0.0
C449 C 0.73366 0.15202 0.92497 0.0
C450 C 0.71708 0.14156 0.91569 0.0
C451 C 0.7178 0.14368 0.90062 0.0
C452 C 0.81649 0.25969 0.92412 0.0
H453 H 0.77149 0.16782 0.82948 0.0
H454 H 0.76463 0.1726 0.85432 0.0
H455 H 0.8231 0.19874 0.8691 0.0
H456 H 0.82993 0.19436 0.84417 0.0
H457 H 0.76396 0.16284 0.87856 0.0
H458 H 0.8138 0.21854 0.88218 0.0
H459 H 0.77798 0.2022 0.91702 0.0
H460 H 0.78925 0.2366 0.91618 0.0
H461 H 0.83565 0.23016 0.90433 0.0
H462 H 0.85731 0.26151 0.91739 0.0
H463 H 0.73442 0.15796 0.88344 0.0
H464 H 0.76296 0.17217 0.92683 0.0
H465 H 0.81092 0.2677 0.92969 0.0
H466 H 0.70539 0.13566 0.8931 0.0
H467 H 0.73365 0.15097 0.93665 0.0
C468 C 0.61555 0.83855 0.15075 0.0
C469 C 0.62676 0.83139 0.15626 0.0
C470 C 0.60982 0.83566 0.13581 0.0
C471 C 0.6154 0.82576 0.12605 0.0
C472 C 0.62722 0.81926 0.13158 0.0
C473 C 0.63271 0.82192 0.14652 0.0
C474 C 0.60824 0.8214 0.11031 0.0
C475 C 0.6055 0.83469 0.10275 0.0
C476 C 0.59782 0.83014 0.08811 0.0
C477 C 0.59326 0.8122 0.08095 0.0
C478 C 0.59602 0.79878 0.08827 0.0
C479 C 0.60342 0.80348 0.10294 0.0
C480 C 0.59051 0.77955 0.08082 0.0
C481 C 0.57358 0.76901 0.07198 0.0
C482 C 0.60193 0.77138 0.08277 0.0
C483 C 0.59644 0.75299 0.0762 0.0
C484 C 0.57938 0.74234 0.06753 0.0
C485 C 0.59363 0.84361 0.0805 0.0
C486 C 0.58562 0.85315 0.08781 0.0
C487 C 0.59666 0.84627 0.06569 0.0
C488 C 0.59128 0.8577 0.05825 0.0
C489 C 0.58275 0.86676 0.06545 0.0
C490 C 0.58028 0.8646 0.08038 0.0
C491 C 0.56808 0.75063 0.06541 0.0
H492 H 0.61068 0.84579 0.15806 0.0
H493 H 0.60052 0.84063 0.13201 0.0
H494 H 0.63216 0.81198 0.12438 0.0
H495 H 0.6416 0.81651 0.15049 0.0
H496 H 0.60944 0.84867 0.10822 0.0
H497 H 0.60473 0.79279 0.1088 0.0
H498 H 0.58724 0.80851 0.0697 0.0
H499 H 0.56436 0.7748 0.07037 0.0
H500 H 0.61514 0.77921 0.08941 0.0
H501 H 0.60539 0.74696 0.07816 0.0
H502 H 0.58294 0.85129 0.09917 0.0
H503 H 0.60301 0.83932 0.05979 0.0
H504 H 0.55496 0.7429 0.05865 0.0
H505 H 0.57401 0.87161 0.08631 0.0
H506 H 0.59328 0.85896 0.04674 0.0
C507 C 0.20592 0.83134 0.15139 0.0
C508 C 0.19962 0.81716 0.16136 0.0
C509 C 0.20766 0.82671 0.13689 0.0
C510 C 0.20316 0.80782 0.13207 0.0
C511 C 0.19699 0.79371 0.14209 0.0
C512 C 0.19515 0.7983 0.15651 0.0
C513 C 0.20487 0.8027 0.11668 0.0
C514 C 0.22016 0.81535 0.10935 0.0
C515 C 0.22223 0.81011 0.09504 0.0
C516 C 0.20874 0.79207 0.08801 0.0
C517 C 0.19343 0.77926 0.09519 0.0
C518 C 0.19151 0.78477 0.10943 0.0
C519 C 0.17984 0.75978 0.08808 0.0
C520 C 0.17274 0.75731 0.07343 0.0
C521 C 0.17408 0.74347 0.09591 0.0
C522 C 0.16155 0.72504 0.08923 0.0
C523 C 0.15443 0.72254 0.0746 0.0
C524 C 0.23892 0.82309 0.08767 0.0
C525 C 0.24556 0.84305 0.08837 0.0
C526 C 0.2485 0.81559 0.08006 0.0
C527 C 0.26439 0.82776 0.07332 0.0
C528 C 0.27107 0.84773 0.07401 0.0
C529 C 0.26146 0.85524 0.08159 0.0
C530 C 0.16008 0.73886 0.06677 0.0
H531 H 0.20964 0.84605 0.15479 0.0
H532 H 0.21232 0.83788 0.12942 0.0
H533 H 0.19369 0.77909 0.13882 0.0
H534 H 0.18998 0.78693 0.16381 0.0
H535 H 0.23087 0.82895 0.11499 0.0
H536 H 0.17946 0.77505 0.11486 0.0
H537 H 0.21034 0.78784 0.07703 0.0
H538 H 0.17686 0.76965 0.06717 0.0
H539 H 0.17948 0.74492 0.10717 0.0
H540 H 0.15731 0.71275 0.09558 0.0
H541 H 0.23835 0.8492 0.09404 0.0
H542 H 0.24392 0.80032 0.07955 0.0
H543 H 0.15491 0.73733 0.05544 0.0
H544 H 0.26611 0.87052 0.08216 0.0
H545 H 0.27167 0.82156 0.06781 0.0
C546 C 0.21785 0.39168 0.16319 0.0
C547 C 0.20056 0.37607 0.16603 0.0
C548 C 0.22082 0.39797 0.14918 0.0
C549 C 0.20654 0.38889 0.13774 0.0
C550 C 0.1894 0.37306 0.14047 0.0
C551 C 0.18648 0.36666 0.15443 0.0
C552 C 0.20926 0.39618 0.12306 0.0
C553 C 0.22568 0.40085 0.11643 0.0
C554 C 0.22816 0.4076 0.1025 0.0
C555 C 0.21428 0.41009 0.09532 0.0
C556 C 0.19802 0.40601 0.10196 0.0
C557 C 0.19551 0.3988 0.11575 0.0
C558 C 0.18408 0.4101 0.09478 0.0
C559 C 0.18996 0.42747 0.08833 0.0
C560 C 0.16488 0.39696 0.09462 0.0
C561 C 0.15184 0.40116 0.08816 0.0
C562 C 0.15773 0.41862 0.08178 0.0
C563 C 0.24537 0.41242 0.09547 0.0
C564 C 0.26289 0.42568 0.10267 0.0
C565 C 0.24431 0.40427 0.0813 0.0
C566 C 0.26054 0.40935 0.07442 0.0
C567 C 0.27804 0.42295 0.08149 0.0
C568 C 0.2791 0.43105 0.09568 0.0
C569 C 0.17695 0.4317 0.08194 0.0
H570 H 0.22892 0.39943 0.17189 0.0
H571 H 0.23412 0.41032 0.14741 0.0
H572 H 0.17824 0.36559 0.13179 0.0
H573 H 0.17313 0.35435 0.15613 0.0
H574 H 0.23636 0.39882 0.12194 0.0
H575 H 0.18314 0.3959 0.12106 0.0
H576 H 0.2163 0.41548 0.08462 0.0
H577 H 0.20465 0.43804 0.08852 0.0
H578 H 0.15994 0.38337 0.09937 0.0
H579 H 0.13715 0.39064 0.08805 0.0
H580 H 0.264 0.43221 0.11358 0.0
H581 H 0.23092 0.39398 0.07556 0.0
H582 H 0.18199 0.44544 0.07739 0.0
H583 H 0.29247 0.44151 0.10135 0.0
H584 H 0.2594 0.40299 0.06345 0.0
C585 C 0.47435 0.94393 0.17295 0.0
C586 C 0.4717 0.95949 0.17018 0.0
C587 C 0.47222 0.93714 0.18677 0.0
C588 C 0.46723 0.94566 0.19808 0.0
C589 C 0.46446 0.96116 0.19532 0.0
C590 C 0.46681 0.96812 0.18151 0.0
C591 C 0.46492 0.93828 0.2127 0.0
C592 C 0.47835 0.93466 0.21928 0.0
C593 C 0.47601 0.92689 0.23284 0.0
C594 C 0.46003 0.92295 0.23989 0.0
C595 C 0.44633 0.92637 0.23344 0.0
C596 C 0.44899 0.93416 0.21984 0.0
C597 C 0.42892 0.92108 0.24058 0.0
C598 C 0.42032 0.90423 0.24794 0.0
C599 C 0.42053 0.93258 0.23987 0.0
C600 C 0.40388 0.92723 0.24619 0.0
C601 C 0.39539 0.91043 0.25353 0.0
C602 C 0.48993 0.92228 0.23936 0.0
C603 C 0.49784 0.91394 0.23049 0.0
C604 C 0.49518 0.92583 0.25448 0.0
C605 C 0.50789 0.92096 0.2606 0.0
C606 C 0.51569 0.91253 0.25171 0.0
C607 C 0.5106 0.90917 0.23659 0.0
C608 C 0.40383 0.89904 0.25442 0.0
H609 H 0.47828 0.93713 0.16445 0.0
H610 H 0.47429 0.92507 0.18856 0.0
H611 H 0.46069 0.96803 0.20389 0.0
H612 H 0.4646 0.98008 0.17964 0.0
H613 H 0.49078 0.93809 0.21385 0.0
H614 H 0.43832 0.93632 0.21449 0.0
H615 H 0.45814 0.91692 0.25034 0.0
H616 H 0.42611 0.89477 0.24845 0.0
H617 H 0.42688 0.9458 0.2345 0.0
H618 H 0.39774 0.93636 0.24548 0.0
H619 H 0.49386 0.91069 0.21884 0.0
H620 H 0.48958 0.9325 0.2616 0.0
H621 H 0.39743 0.88587 0.25985 0.0
H622 H 0.51616 0.90243 0.22949 0.0
H623 H 0.51173 0.92394 0.27227 0.0
C624 C 0.03853 0.50054 0.18834 0.0
C625 C 0.04429 0.5152 0.17879 0.0
C626 C 0.04621 0.5048 0.20288 0.0
C627 C 0.05984 0.52378 0.20813 0.0
C628 C 0.06576 0.53832 0.19848 0.0
C629 C 0.05804 0.5341 0.18401 0.0
C630 C 0.06803 0.52858 0.22358 0.0
C631 C 0.07277 0.51627 0.23059 0.0
C632 C 0.08162 0.5215 0.24486 0.0
C633 C 0.08573 0.53922 0.25213 0.0
C634 C 0.08088 0.55161 0.24539 0.0
C635 C 0.0718 0.54599 0.23119 0.0
C636 C 0.0858 0.57066 0.25293 0.0
C637 C 0.08483 0.57281 0.26809 0.0
C638 C 0.0918 0.58696 0.245 0.0
C639 C 0.09657 0.60489 0.25202 0.0
C640 C 0.09573 0.60701 0.26715 0.0
C641 C 0.08706 0.50873 0.25208 0.0
C642 C 0.07446 0.48881 0.25174 0.0
C643 C 0.10489 0.51645 0.25946 0.0
C644 C 0.11001 0.5045 0.26638 0.0
C645 C 0.09738 0.48459 0.26614 0.0
C646 C 0.07954 0.47686 0.25876 0.0
C647 C 0.08987 0.59084 0.27514 0.0
H648 H 0.02786 0.48586 0.18463 0.0
H649 H 0.04124 0.4933 0.21007 0.0
H650 H 0.07656 0.553 0.20205 0.0
H651 H 0.06302 0.54562 0.17684 0.0
H652 H 0.07024 0.50296 0.22475 0.0
H653 H 0.06752 0.55518 0.22605 0.0
H654 H 0.09288 0.54342 0.26303 0.0
H655 H 0.08 0.56054 0.27451 0.0
H656 H 0.09314 0.58598 0.23339 0.0
H657 H 0.1013 0.61721 0.24565 0.0
H658 H 0.06059 0.4825 0.2462 0.0
H659 H 0.11496 0.53172 0.25978 0.0
H660 H 0.08896 0.59211 0.28682 0.0
H661 H 0.06958 0.46154 0.25829 0.0
H662 H 0.12381 0.51088 0.27207 0.0
C663 C 0.45957 0.51032 0.18307 0.0
C664 C 0.47658 0.51174 0.18002 0.0
C665 C 0.45582 0.51226 0.19747 0.0
C666 C 0.46907 0.51583 0.20911 0.0
C667 C 0.48601 0.51702 0.20609 0.0
C668 C 0.48969 0.51488 0.19167 0.0
C669 C 0.46542 0.51901 0.22431 0.0
C670 C 0.44804 0.5068 0.22934 0.0
C671 C 0.444 0.51046 0.24339 0.0
C672 C 0.45775 0.52645 0.25251 0.0
C673 C 0.47525 0.53885 0.24765 0.0
C674 C 0.47897 0.53492 0.23353 0.0
C675 C 0.48927 0.55653 0.2569 0.0
C676 C 0.48369 0.56776 0.26516 0.0
C677 C 0.5084 0.56282 0.25704 0.0
C678 C 0.52165 0.58019 0.26486 0.0
C679 C 0.51604 0.59156 0.27284 0.0
C680 C 0.4252 0.49805 0.24832 0.0
C681 C 0.40913 0.49151 0.23864 0.0
C682 C 0.42313 0.493 0.26278 0.0
C683 C 0.4054 0.48184 0.26748 0.0
C684 C 0.38933 0.47539 0.25782 0.0
C685 C 0.39142 0.48026 0.24332 0.0
C686 C 0.49693 0.58503 0.27309 0.0
H687 H 0.44916 0.50773 0.17429 0.0
H688 H 0.44271 0.51145 0.19947 0.0
H689 H 0.49641 0.51967 0.21489 0.0
H690 H 0.50295 0.51613 0.1896 0.0
H691 H 0.43766 0.49436 0.22228 0.0
H692 H 0.49211 0.54477 0.22942 0.0
H693 H 0.4547 0.52947 0.26332 0.0
H694 H 0.46911 0.56356 0.26511 0.0
H695 H 0.51317 0.55437 0.25101 0.0
H696 H 0.5363 0.58479 0.26463 0.0
H697 H 0.4102 0.49534 0.22748 0.0
H698 H 0.43521 0.49763 0.27047 0.0
H699 H 0.49223 0.59363 0.279 0.0
H700 H 0.37936 0.47535 0.23555 0.0
H701 H 0.40431 0.47854 0.27877 0.0
Tb702 Tb 0.51665 0.01756 0.99801 0.0
C703 C 0.5068 0.9745 0.00195 0.0
Tb704 Tb 0.47592 0.98595 0.00097 0.0
O705 O 0.51947 0.03053 0.02034 0.0
O706 O 0.5011 0.00121 0.01449 0.0
O707 O 0.51767 0.99066 0.99587 0.0
C708 C 0.44289 0.96542 0.01135 0.0
O709 O 0.49077 0.97101 0.00693 0.0
C710 C 0.48669 0.98905 0.97458 0.0
C711 C 0.48593 0.0297 0.99735 0.0
O712 O 0.44806 0.96036 -0.00037 0.0
O713 O 0.45626 0.98205 0.01716 0.0
O714 O 0.47349 0.97297 0.97863 0.0
O715 O 0.49139 0.00225 0.9846 0.0
O716 O 0.47326 0.01185 -0.0 0.0
O717 O 0.50355 0.03496 0.99555 0.0
C718 C 0.54868 0.03838 0.98623 0.0
O719 O 0.53222 0.03291 0.98016 0.0
O720 O 0.54727 0.03232 0.99919 0.0
C721 C 0.50605 0.01457 0.02448 0.0
Tb722 Tb 0.98141 0.50038 0.99919 0.0
C723 C 0.02144 0.53022 0.01306 0.0
Tb724 Tb 0.00765 0.48525 0.00849 0.0
O725 O 0.98073 0.50953 0.02177 0.0
O726 O 0.98477 0.48612 0.01686 0.0
O727 O 0.00714 0.5277 0.00415 0.0
C728 C 0.03134 0.47614 0.02157 0.0
O729 O 0.02315 0.51558 0.0174 0.0
C730 C 0.00426 0.48894 0.98059 0.0
C731 C 0.96747 0.45526 0.99493 0.0
O732 O 0.0344 0.48608 0.01034 0.0
O733 O 0.01492 0.47137 0.02552 0.0
O734 O 0.00774 0.47615 0.98563 0.0
O735 O 0.00438 0.49973 0.99108 0.0
O736 O 0.982 0.45777 0.00354 0.0
O737 O 0.96554 0.46988 0.99086 0.0
C738 C 0.95889 0.50985 0.98467 0.0
O739 O 0.95575 0.5018 0.99686 0.0
O740 O 0.9747 0.51258 0.98068 0.0
C741 C 0.98465 0.49717 0.02711 0.0
Tb742 Tb 0.48346 0.50316 0.00622 0.0
C743 C 0.49184 0.46893 0.99869 0.0
Tb744 Tb 0.52374 0.51246 0.00338 0.0
O745 O 0.48125 0.51198 0.98427 0.0
O746 O 0.49912 0.50181 0.98948 0.0
O747 O 0.48006 0.47411 0.0037 0.0
C748 C 0.55675 0.52497 0.9928 0.0
O749 O 0.50907 0.4818 0.99599 0.0
C750 C 0.51202 0.50476 0.0294 0.0
C751 C 0.51549 0.54662 0.01124 0.0
O752 O 0.5517 0.51593 0.00449 0.0
O753 O 0.54332 0.5271 0.9872 0.0
O754 O 0.52511 0.50204 0.02472 0.0
O755 O 0.50798 0.51353 0.02032 0.0
O756 O 0.52723 0.54152 0.00601 0.0
O757 O 0.4984 0.53365 0.01418 0.0
C758 C 0.44971 0.48936 0.01566 0.0
O759 O 0.45699 0.50289 0.0069 0.0
O760 O 0.46146 0.48376 0.01921 0.0
C761 C 0.49475 0.50974 0.97993 0.0
Tb762 Tb 0.18457 0.34732 0.33296 0.0
C763 C 0.17356 0.30621 0.34117 0.0
Tb764 Tb 0.1434 0.31889 0.33776 0.0
O765 O 0.19405 0.35291 0.35639 0.0
O766 O 0.16642 0.34333 0.34935 0.0
O767 O 0.18385 0.31979 0.33267 0.0
C768 C 0.11103 0.29574 0.34831 0.0
O769 O 0.15839 0.30496 0.34632 0.0
C770 C 0.15173 0.32172 0.31052 0.0
C771 C 0.15425 0.36064 0.32978 0.0
O772 O 0.11864 0.29035 0.33852 0.0
O773 O 0.12154 0.3141 0.35203 0.0
O774 O 0.13523 0.31686 0.31435 0.0
O775 O 0.16179 0.32264 0.32155 0.0
O776 O 0.14169 0.34477 0.33526 0.0
O777 O 0.17125 0.36406 0.3274 0.0
C778 C 0.2157 0.36944 0.3205 0.0
O779 O 0.19922 0.36614 0.31605 0.0
O780 O 0.21468 0.36046 0.33202 0.0
C781 C 0.17729 0.34589 0.36037 0.0
Tb782 Tb 0.6527 0.83165 0.32721 0.0
C783 C 0.69379 0.86678 0.33729 0.0
Tb784 Tb 0.68485 0.8238 0.33337 0.0
O785 O 0.64171 0.8216 0.34818 0.0
O786 O 0.66997 0.8336 0.34559 0.0
O787 O 0.677 0.86113 0.33066 0.0
C788 C 0.70748 0.81251 0.3452 0.0
O789 O 0.69887 0.85424 0.34122 0.0
C790 C 0.67961 0.83101 0.3067 0.0
C791 C 0.64352 0.7886 0.32446 0.0
O792 O 0.70995 0.82129 0.33337 0.0
O793 O 0.69221 0.80994 0.35027 0.0
O794 O 0.69581 0.83499 0.31258 0.0
O795 O 0.66741 0.8216 0.31504 0.0
O796 O 0.66054 0.79443 0.33069 0.0
O797 O 0.63825 0.8009 0.32025 0.0
C798 C 0.63143 0.84398 0.31454 0.0
O799 O 0.62823 0.83528 0.32645 0.0
O800 O 0.64652 0.84562 0.30974 0.0
C801 C 0.65769 0.82485 0.3541 0.0
Tb802 Tb 0.15216 0.83316 0.3362 0.0
C803 C 0.16154 0.80085 0.32804 0.0
Tb804 Tb 0.19271 0.84532 0.33051 0.0
O805 O 0.14281 0.82595 0.31278 0.0
O806 O 0.17025 0.84664 0.31999 0.0
O807 O 0.15085 0.80536 0.33564 0.0
C808 C 0.22338 0.85203 0.31805 0.0
O809 O 0.17768 0.81424 0.32379 0.0
C810 C 0.18493 0.84233 0.35776 0.0
C811 C 0.18383 0.87798 0.33932 0.0
O812 O 0.22064 0.84879 0.33162 0.0
O813 O 0.20888 0.8515 0.31152 0.0
O814 O 0.20137 0.85422 0.3539 0.0
O815 O 0.17454 0.83189 0.34671 0.0
O816 O 0.19575 0.87385 0.33324 0.0
O817 O 0.16675 0.86449 0.34193 0.0
C818 C 0.12232 0.82706 0.3498 0.0
O819 O 0.13949 0.83922 0.35452 0.0
O820 O 0.12189 0.81848 0.33729 0.0
C821 C 0.15946 0.83688 0.30893 0.0
Tb822 Tb 0.85007 0.6809 0.66559 0.0
C823 C 0.8427 0.64352 0.67971 0.0
Tb824 Tb 0.80924 0.64964 0.66931 0.0
O825 O 0.85645 0.68925 0.68915 0.0
O826 O 0.82939 0.67706 0.67964 0.0
O827 O 0.85365 0.65696 0.67138 0.0
C828 C 0.77739 0.62642 0.68031 0.0
O829 O 0.8257 0.64013 0.68197 0.0
C830 C 0.82025 0.64811 0.64329 0.0
C831 C 0.81617 0.68542 0.65281 0.0
O832 O 0.78635 0.62072 0.67215 0.0
O833 O 0.78633 0.64514 0.68222 0.0
O834 O 0.80283 0.64088 0.64571 0.0
O835 O 0.82996 0.65355 0.65539 0.0
O836 O 0.80443 0.67159 0.66054 0.0
O837 O 0.83369 0.68961 0.65191 0.0
C838 C 0.88243 0.70517 0.65537 0.0
O839 O 0.86886 0.70849 0.65711 0.0
O840 O 0.87786 0.68829 0.65951 0.0
C841 C 0.8391 0.68196 0.69169 0.0
Tb842 Tb 0.32011 0.16909 0.66409 0.0
C843 C 0.36004 0.19967 0.67802 0.0
Tb844 Tb 0.34856 0.15538 0.6715 0.0
O845 O 0.31784 0.17541 0.68713 0.0
O846 O 0.32596 0.15549 0.68093 0.0
O847 O 0.34496 0.19686 0.67004 0.0
C848 C 0.37096 0.14472 0.68471 0.0
O849 O 0.36327 0.18548 0.68104 0.0
C850 C 0.34399 0.16025 0.64397 0.0
C851 C 0.30842 0.12498 0.65773 0.0
O852 O 0.37627 0.15897 0.67655 0.0
O853 O 0.35309 0.13648 0.68538 0.0
O854 O 0.34972 0.14874 0.64822 0.0
O855 O 0.34321 0.16966 0.655 0.0
O856 O 0.32328 0.1277 0.66596 0.0
O857 O 0.30575 0.13933 0.65426 0.0
C858 C 0.29687 0.1779 0.65 0.0
O859 O 0.29207 0.16455 0.65894 0.0
O860 O 0.31473 0.18643 0.64918 0.0
C861 C 0.32473 0.16502 0.69174 0.0
Tb862 Tb 0.8182 0.16428 0.6701 0.0
C863 C 0.82662 0.13346 0.65601 0.0
Tb864 Tb 0.85822 0.17785 0.6619 0.0
O865 O 0.80711 0.15657 0.64719 0.0
O866 O 0.83458 0.17863 0.65312 0.0
O867 O 0.81563 0.13638 0.66453 0.0
C868 C 0.88942 0.18711 0.64924 0.0
O869 O 0.84272 0.14776 0.65239 0.0
C870 C 0.85264 0.17296 0.6895 0.0
C871 C 0.84976 0.20875 0.67553 0.0
O872 O 0.88379 0.17657 0.66013 0.0
O873 O 0.87743 0.19229 0.64543 0.0
O874 O 0.86846 0.18562 0.68516 0.0
O875 O 0.84162 0.16313 0.67855 0.0
O876 O 0.86061 0.20575 0.66697 0.0
O877 O 0.8338 0.19448 0.67933 0.0
C878 C 0.7883 0.15633 0.68421 0.0
O879 O 0.79278 0.16557 0.67259 0.0
O880 O 0.80056 0.15139 0.68781 0.0
C881 C 0.82296 0.16849 0.64245 0.0
H882 H 0.29965 0.88348 0.08479 0.0
H883 H 0.32827 0.90416 0.07358 0.0
H884 H 0.31002 0.86178 0.03641 0.0
H885 H 0.28125 0.84113 0.04744 0.0
H886 H 0.34586 0.87425 0.04681 0.0
H887 H 0.30884 0.9028 0.03355 0.0
H888 H 0.28936 0.91743 0.03809 0.0
H889 H 0.33443 0.96375 0.06579 0.0
H890 H 0.35411 0.94924 0.06158 0.0
H891 H 0.41376 0.93072 -3e-05 0.0
H892 H 0.3841 0.91127 0.01039 0.0
H893 H 0.402 0.95462 0.04687 0.0
H894 H 0.43158 0.97423 0.03637 0.0
H895 H 0.36632 0.94185 0.03689 0.0
H896 H 0.4032 0.91365 0.05071 0.0
H897 H 0.42302 0.89927 0.04674 0.0
H898 H 0.37863 0.85256 0.01882 0.0
H899 H 0.35862 0.86682 0.02245 0.0
C900 C 0.30159 0.87868 0.07413 0.0
C901 C 0.28817 0.86065 0.06701 0.0
C902 C 0.31797 0.89049 0.06776 0.0
C903 C 0.3212 0.88453 0.05413 0.0
C904 C 0.30781 0.8666 0.04696 0.0
C905 C 0.29141 0.8548 0.0533 0.0
C906 C 0.3388 0.89672 0.04753 0.0
C907 C 0.35021 0.88894 0.04444 0.0
C908 C 0.34468 0.91605 0.04485 0.0
C909 C 0.33289 0.92483 0.04736 0.0
C910 C 0.31455 0.91602 0.04071 0.0
C911 C 0.30348 0.92431 0.0432 0.0
C912 C 0.31064 0.94148 0.05225 0.0
C913 C 0.3289 0.95044 0.0588 0.0
C914 C 0.34002 0.94219 0.05635 0.0
C915 C 0.41131 0.93609 0.01018 0.0
C916 C 0.4249 0.9539 0.01741 0.0
C917 C 0.39443 0.92497 0.01615 0.0
C918 C 0.39095 0.93142 0.02948 0.0
C919 C 0.40442 0.94939 0.03657 0.0
C920 C 0.42129 0.96053 0.0306 0.0
C921 C 0.37333 0.91934 0.0361 0.0
C922 C 0.36194 0.92715 0.03923 0.0
C923 C 0.3675 0.90006 0.03891 0.0
C924 C 0.37948 0.89141 0.03674 0.0
C925 C 0.39771 0.90039 0.04363 0.0
C926 C 0.40897 0.89225 0.04146 0.0
C927 C 0.4021 0.87504 0.0325 0.0
C928 C 0.38394 0.86591 0.02573 0.0
C929 C 0.37263 0.874 0.02786 0.0
H930 H 0.41084 0.86876 0.03083 0.0
H931 H 0.30204 0.94788 0.05417 0.0
H932 H 0.12481 0.412 0.09202 0.0
H933 H 0.10281 0.42101 0.08166 0.0
H934 H 0.13761 0.4455 0.04662 0.0
H935 H 0.1595 0.43623 0.05673 0.0
H936 H 0.12718 0.46989 0.05919 0.0
H937 H 0.09758 0.40331 0.04016 0.0
H938 H 0.08425 0.36831 0.0416 0.0
H939 H 0.04375 0.36753 0.06915 0.0
H940 H 0.05702 0.4026 0.06804 0.0
H941 H 0.06559 0.48521 0.0136 0.0
H942 H 0.0867 0.4752 0.02408 0.0
H943 H 0.04745 0.44463 0.05526 0.0
H944 H 0.02603 0.45423 0.04447 0.0
H945 H 0.06018 0.42331 0.04515 0.0
H946 H 0.09077 0.48965 0.06595 0.0
H947 H 0.10434 0.52488 0.06552 0.0
H948 H 0.14296 0.52621 0.03569 0.0
H949 H 0.12949 0.49097 0.0359 0.0
C950 C 0.12764 0.41902 0.08198 0.0
C951 C 0.14395 0.4234 0.07522 0.0
C952 C 0.11508 0.42421 0.0761 0.0
C953 C 0.11854 0.43384 0.06333 0.0
C954 C 0.13471 0.43814 0.05651 0.0
C955 C 0.14725 0.43289 0.06234 0.0
C956 C 0.1056 0.43997 0.05732 0.0
C957 C 0.11257 0.45968 0.05595 0.0
C958 C 0.08645 0.42672 0.05348 0.0
C959 C 0.07842 0.40562 0.05413 0.0
C960 C 0.08594 0.39571 0.04663 0.0
C961 C 0.07837 0.37585 0.04737 0.0
C962 C 0.0632 0.36571 0.0555 0.0
C963 C 0.05552 0.37541 0.06288 0.0
C964 C 0.06305 0.39527 0.06218 0.0
C965 C 0.06152 0.47643 0.02274 0.0
C966 C 0.04424 0.47055 0.02828 0.0
C967 C 0.07366 0.47084 0.02881 0.0
C968 C 0.06889 0.45948 0.04069 0.0
C969 C 0.05151 0.45346 0.04615 0.0
C970 C 0.0393 0.45898 0.04002 0.0
C971 C 0.08172 0.4533 0.04703 0.0
C972 C 0.07475 0.43357 0.04845 0.0
C973 C 0.10087 0.46655 0.05102 0.0
C974 C 0.10895 0.48769 0.0508 0.0
C975 C 0.10202 0.49746 0.0592 0.0
C976 C 0.10974 0.51742 0.05903 0.0
C977 C 0.12444 0.52776 0.05052 0.0
C978 C 0.13153 0.51818 0.04224 0.0
C979 C 0.12389 0.49822 0.0424 0.0
H980 H 0.13038 0.54321 0.05039 0.0
H981 H 0.05736 0.35034 0.05606 0.0
H982 H 0.60036 0.72909 0.05451 0.0
H983 H 0.59015 0.69618 0.04433 0.0
H984 H 0.53422 0.67795 0.05528 0.0
H985 H 0.54444 0.71063 0.06592 0.0
H986 H 0.54482 0.6528 0.0629 0.0
H987 H 0.54584 0.6853 0.02016 0.0
H988 H 0.55992 0.71073 0.00331 0.0
H989 H 0.60152 0.6951 0.99589 0.0
H990 H 0.58783 0.66974 0.01286 0.0
H991 H 0.49563 0.56267 0.02174 0.0
H992 H 0.50726 0.59636 0.03031 0.0
H993 H 0.56231 0.6111 0.01911 0.0
H994 H 0.55075 0.57739 0.01027 0.0
H995 H 0.5534 0.63813 0.01173 0.0
H996 H 0.55205 0.60516 0.05394 0.0
H997 H 0.53766 0.57925 0.07036 0.0
H998 H 0.49685 0.59567 0.07878 0.0
H999 H 0.51081 0.62149 0.06222 0.0
C1000 C 0.58591 0.71805 0.05483 0.0
C1001 C 0.5732 0.7225 0.06099 0.0
C1002 C 0.58006 0.69929 0.04889 0.0
C1003 C 0.56138 0.68466 0.04891 0.0
C1004 C 0.54869 0.68903 0.0551 0.0
C1005 C 0.55452 0.70777 0.06106 0.0
C1006 C 0.55505 0.66469 0.04267 0.0
C1007 C 0.54649 0.64957 0.05166 0.0
C1008 C 0.5577 0.66055 0.02813 0.0
C1009 C 0.56592 0.67576 0.0179 0.0
C1010 C 0.55808 0.68739 0.01503 0.0
C1011 C 0.56597 0.70177 0.00544 0.0
C1012 C 0.58163 0.70456 0.99857 0.0
C1013 C 0.5894 0.69294 0.00124 0.0
C1014 C 0.58157 0.67855 0.01083 0.0
C1015 C 0.5102 0.57306 0.021 0.0
C1016 C 0.5223 0.56728 0.01545 0.0
C1017 C 0.51683 0.59232 0.02595 0.0
C1018 C 0.53571 0.60615 0.02558 0.0
C1019 C 0.5477 0.60061 0.01955 0.0
C1020 C 0.54106 0.58133 0.01454 0.0
C1021 C 0.54299 0.62626 0.03191 0.0
C1022 C 0.55177 0.64139 0.02298 0.0
C1023 C 0.54059 0.63044 0.04652 0.0
C1024 C 0.53239 0.61517 0.05673 0.0
C1025 C 0.53994 0.60318 0.05923 0.0
C1026 C 0.53187 0.58851 0.06856 0.0
C1027 C 0.51633 0.58579 0.07558 0.0
C1028 C 0.50888 0.59778 0.07333 0.0
C1029 C 0.51688 0.61245 0.06397 0.0
H1030 H 0.51008 0.5744 0.08279 0.0
H1031 H 0.58772 0.7157 0.99115 0.0
H1032 H 0.83416 0.30033 0.92458 0.0
H1033 H 0.85624 0.332 0.93719 0.0
H1034 H 0.88977 0.30909 0.95447 0.0
H1035 H 0.86746 0.27723 0.94225 0.0
H1036 H 0.88574 0.33141 0.97515 0.0
H1037 H 0.90227 0.33641 0.92572 0.0
H1038 H 0.89748 0.33507 0.89891 0.0
H1039 H 0.88117 0.37805 0.9034 0.0
H1040 H 0.88555 0.37941 0.93025 0.0
H1041 H 0.96796 0.4216 0.99752 0.0
H1042 H 0.94513 0.38933 0.98632 0.0
H1043 H 0.91178 0.41179 0.96785 0.0
H1044 H 0.93462 0.44409 0.97875 0.0
H1045 H 0.9159 0.38955 0.94785 0.0
H1046 H 0.89878 0.38431 0.99714 0.0
H1047 H 0.90413 0.38631 0.02395 0.0
H1048 H 0.92178 0.34437 0.01973 0.0
H1049 H 0.91677 0.34231 0.99286 0.0
C1050 C 0.84614 0.30198 0.93119 0.0
C1051 C 0.84909 0.28628 0.93239 0.0
C1052 C 0.85884 0.32013 0.93827 0.0
C1053 C 0.87477 0.32295 0.94662 0.0
C1054 C 0.87761 0.30725 0.94802 0.0
C1055 C 0.86492 0.28909 0.94095 0.0
C1056 C 0.88844 0.34226 0.95396 0.0
C1057 C 0.89252 0.34409 0.96916 0.0
C1058 C 0.89695 0.35887 0.94617 0.0
C1059 C 0.89402 0.35783 0.93001 0.0
C1060 C 0.89745 0.34541 0.921 0.0
C1061 C 0.89485 0.34468 0.90579 0.0
C1062 C 0.88897 0.35642 0.89946 0.0
C1063 C 0.88568 0.36893 0.90832 0.0
C1064 C 0.88822 0.36968 0.92353 0.0
C1065 C 0.95569 0.41965 0.99119 0.0
C1066 C 0.95314 0.43545 0.98904 0.0
C1067 C 0.94262 0.40118 0.98483 0.0
C1068 C 0.92667 0.39812 0.97634 0.0
C1069 C 0.92399 0.41382 0.97434 0.0
C1070 C 0.93707 0.43228 0.98063 0.0
C1071 C 0.91311 0.37874 0.96905 0.0
C1072 C 0.90908 0.37688 0.95385 0.0
C1073 C 0.90462 0.36214 0.97683 0.0
C1074 C 0.90757 0.3633 0.99298 0.0
C1075 C 0.90394 0.37562 0.00192 0.0
C1076 C 0.90689 0.37675 0.01713 0.0
C1077 C 0.91334 0.36551 0.02354 0.0
C1078 C 0.91681 0.35308 0.01475 0.0
C1079 C 0.9139 0.35192 -0.00047 0.0
H1080 H 0.91561 0.3664 0.03531 0.0
H1081 H 0.887 0.35587 0.88768 0.0
H1082 H 0.6904 0.57271 0.91072 0.0
H1083 H 0.66398 0.56706 0.92445 0.0
H1084 H 0.68371 0.54482 0.9584 0.0
H1085 H 0.71026 0.55056 0.94478 0.0
H1086 H 0.64675 0.52184 0.95111 0.0
H1087 H 0.68899 0.58951 0.9635 0.0
H1088 H 0.70988 0.62327 0.95857 0.0
H1089 H 0.66424 0.62412 0.93518 0.0
H1090 H 0.64311 0.59026 0.93979 0.0
H1091 H 0.58538 0.51993 0.00282 0.0
H1092 H 0.61386 0.52792 0.99104 0.0
H1093 H 0.59599 0.55044 0.95607 0.0
H1094 H 0.56764 0.54267 0.96788 0.0
H1095 H 0.63271 0.57369 0.96469 0.0
H1096 H 0.59082 0.50603 0.95137 0.0
H1097 H 0.56968 0.47216 0.95591 0.0
H1098 H 0.61447 0.47124 0.98065 0.0
H1099 H 0.63582 0.50521 0.97642 0.0
C1100 C 0.68924 0.56683 0.92119 0.0
C1101 C 0.70247 0.56212 0.92667 0.0
C1102 C 0.67412 0.56358 0.92901 0.0
C1103 C 0.67198 0.55569 0.94251 0.0
C1104 C 0.68509 0.5509 0.94799 0.0
C1105 C 0.70021 0.55413 0.94017 0.0
C1106 C 0.65587 0.5521 0.95079 0.0
C1107 C 0.64384 0.53324 0.95429 0.0
C1108 C 0.65185 0.56689 0.95463 0.0
C1109 C 0.66451 0.58728 0.95188 0.0
C1110 C 0.68343 0.59684 0.95721 0.0
C1111 C 0.69532 0.61601 0.95449 0.0
C1112 C 0.6884 0.62582 0.94654 0.0
C1113 C 0.66958 0.61649 0.94132 0.0
C1114 C 0.65764 0.59732 0.944 0.0
C1115 C 0.58763 0.5267 0.99268 0.0
C1116 C 0.57435 0.53066 0.98622 0.0
C1117 C 0.60383 0.53118 0.98593 0.0
C1118 C 0.60694 0.53958 0.9726 0.0
C1119 C 0.59387 0.54397 0.96635 0.0
C1120 C 0.57768 0.53949 0.97308 0.0
C1121 C 0.62359 0.54344 0.96498 0.0
C1122 C 0.63569 0.56233 0.96158 0.0
C1123 C 0.62765 0.52867 0.96119 0.0
C1124 C 0.61486 0.50823 0.96371 0.0
C1125 C 0.59612 0.49865 0.95788 0.0
C1126 C 0.58411 0.47943 0.96038 0.0
C1127 C 0.59072 0.46957 0.9686 0.0
C1128 C 0.60937 0.47891 0.9743 0.0
C1129 C 0.62143 0.49814 0.97185 0.0
H1130 H 0.5814 0.45469 0.97053 0.0
H1131 H 0.69762 0.64065 0.94444 0.0
H1132 H 0.4655 0.16083 0.94216 0.0
H1133 H 0.47361 0.13951 0.95451 0.0
H1134 H 0.41543 0.10013 0.95879 0.0
H1135 H 0.40722 0.12183 0.94692 0.0
H1136 H 0.43667 0.10427 0.98352 0.0
H1137 H 0.43714 0.09043 0.93244 0.0
H1138 H 0.44553 0.09772 0.90731 0.0
H1139 H 0.50339 0.12146 0.92175 0.0
H1140 H 0.49538 0.11456 0.94701 0.0
H1141 H 0.45035 0.02388 0.99614 0.0
H1142 H 0.44002 0.04575 0.98772 0.0
H1143 H 0.49706 0.08896 0.98338 0.0
H1144 H 0.50751 0.0673 0.99167 0.0
H1145 H 0.47462 0.08145 0.95853 0.0
H1146 H 0.47352 0.09511 0.00998 0.0
H1147 H 0.46439 0.08686 0.03482 0.0
H1148 H 0.40671 0.06199 0.01926 0.0
H1149 H 0.41549 0.06987 0.99427 0.0
C1150 C 0.45442 0.14778 0.94591 0.0
C1151 C 0.43569 0.14302 0.94351 0.0
C1152 C 0.45907 0.13551 0.95284 0.0
C1153 C 0.4451 0.11809 0.95738 0.0
C1154 C 0.42642 0.11346 0.95531 0.0
C1155 C 0.42174 0.12578 0.9484 0.0
C1156 C 0.45006 0.10461 0.964 0.0
C1157 C 0.44475 0.09906 0.97799 0.0
C1158 C 0.46078 0.09799 0.95684 0.0
C1159 C 0.46566 0.10214 0.94165 0.0
C1160 C 0.45167 0.09735 0.93028 0.0
C1161 C 0.45635 0.10139 0.91601 0.0
C1162 C 0.47499 0.11009 0.91294 0.0
C1163 C 0.48897 0.11474 0.92414 0.0
C1164 C 0.48436 0.11075 0.93844 0.0
C1165 C 0.46074 0.03816 0.99365 0.0
C1166 C 0.47976 0.04374 0.99446 0.0
C1167 C 0.4548 0.05065 0.98886 0.0
C1168 C 0.46778 0.06895 0.98489 0.0
C1169 C 0.48681 0.07485 0.98632 0.0
C1170 C 0.49275 0.06243 0.9911 0.0
C1171 C 0.46156 0.08141 0.97816 0.0
C1172 C 0.46654 0.08667 0.96408 0.0
C1173 C 0.45045 0.08759 0.9852 0.0
C1174 C 0.44515 0.0829 0.00022 0.0
C1175 C 0.45888 0.08773 0.01183 0.0
C1176 C 0.45377 0.08315 0.02594 0.0
C1177 C 0.43498 0.07386 0.02861 0.0
C1178 C 0.42126 0.06917 0.01717 0.0
C1179 C 0.4263 0.0737 0.00303 0.0
H1180 H 0.43105 0.07032 0.03954 0.0
H1181 H 0.47859 0.11321 0.90188 0.0
H1182 H 0.68259 0.13615 0.90692 0.0
H1183 H 0.65332 0.11684 0.9176 0.0
H1184 H 0.68139 0.10024 0.94947 0.0
H1185 H 0.71054 0.11853 0.93826 0.0
H1186 H 0.64786 0.07042 0.94044 0.0
H1187 H 0.67222 0.13753 0.95746 0.0
H1188 H 0.68405 0.172 0.95445 0.0
H1189 H 0.63259 0.15761 0.93008 0.0
H1190 H 0.62055 0.12302 0.93279 0.0
H1191 H 0.58353 0.04522 0.99513 0.0
H1192 H 0.6117 0.06156 0.98207 0.0
H1193 H 0.58057 0.0715 0.94805 0.0
H1194 H 0.55242 0.05489 0.96082 0.0
H1195 H 0.6148 0.10405 0.95747 0.0
H1196 H 0.59015 0.03746 0.94059 0.0
H1197 H 0.57772 0.00291 0.9436 0.0
H1198 H 0.62906 0.01625 0.96765 0.0
H1199 H 0.64173 0.05093 0.96491 0.0
C1200 C 0.68252 0.12809 0.916 0.0
C1201 C 0.69903 0.12905 0.92178 0.0
C1202 C 0.66578 0.11723 0.92222 0.0
C1203 C 0.66525 0.10743 0.93453 0.0
C1204 C 0.68151 0.10781 0.94004 0.0
C1205 C 0.69822 0.11848 0.93371 0.0
C1206 C 0.64792 0.09737 0.942 0.0
C1207 C 0.64077 0.07785 0.94431 0.0
C1208 C 0.63838 0.10691 0.94676 0.0
C1209 C 0.64556 0.1277 0.94522 0.0
C1210 C 0.66348 0.14172 0.95139 0.0
C1211 C 0.67021 0.16127 0.94974 0.0
C1212 C 0.65909 0.16699 0.94205 0.0
C1213 C 0.64119 0.15316 0.93602 0.0
C1214 C 0.6344 0.13359 0.93762 0.0
C1215 C 0.58278 0.05095 0.98488 0.0
C1216 C 0.5659 0.04888 0.97897 0.0
C1217 C 0.59879 0.06016 0.97742 0.0
C1218 C 0.59811 0.06755 0.96404 0.0
C1219 C 0.58133 0.06579 0.9583 0.0
C1220 C 0.5653 0.05636 0.96562 0.0
C1221 C 0.61494 0.07725 0.95603 0.0
C1222 C 0.62194 0.09667 0.9536 0.0
C1223 C 0.62429 0.06762 0.95115 0.0
C1224 C 0.61682 0.04679 0.95266 0.0
C1225 C 0.59874 0.03303 0.9466 0.0
C1226 C 0.59166 0.01343 0.94824 0.0
C1227 C 0.60257 0.00739 0.95585 0.0
C1228 C 0.62062 0.02095 0.96177 0.0
C1229 C 0.62777 0.04058 0.96016 0.0
H1230 H 0.59706 0.99221 0.95712 0.0
H1231 H 0.66434 0.18213 0.94079 0.0
H1232 H 0.83244 0.54497 0.93768 0.0
H1233 H 0.85459 0.53701 0.94921 0.0
H1234 H 0.88684 0.55383 0.91194 0.0
H1235 H 0.86471 0.56194 0.90032 0.0
H1236 H 0.88313 0.52043 0.92131 0.0
H1237 H 0.90157 0.58379 0.94272 0.0
H1238 H 0.89716 0.6091 0.95508 0.0
H1239 H 0.87954 0.57642 0.99235 0.0
H1240 H 0.88359 0.55077 0.98012 0.0
H1241 H 0.96303 0.52434 0.95815 0.0
H1242 H 0.94241 0.53321 0.94492 0.0
H1243 H 0.90634 0.51611 0.97993 0.0
H1244 H 0.92694 0.5073 0.99322 0.0
H1245 H 0.91357 0.55106 0.9709 0.0
H1246 H 0.89352 0.4871 0.94907 0.0
H1247 H 0.89867 0.46204 0.93719 0.0
H1248 H 0.91991 0.49614 0.90104 0.0
H1249 H 0.91508 0.52153 0.9128 0.0
C1250 C 0.84431 0.54712 0.93197 0.0
C1251 C 0.8469 0.55428 0.91815 0.0
C1252 C 0.85694 0.54251 0.93855 0.0
C1253 C 0.87251 0.54508 0.93152 0.0
C1254 C 0.87492 0.55176 0.91756 0.0
C1255 C 0.86225 0.55635 0.91094 0.0
C1256 C 0.88634 0.54104 0.9389 0.0
C1257 C 0.89 0.52734 0.93205 0.0
C1258 C 0.8951 0.54984 0.95302 0.0
C1259 C 0.89273 0.56528 0.96044 0.0
C1260 C 0.89662 0.58193 0.9535 0.0
C1261 C 0.8942 0.59635 0.9605 0.0
C1262 C 0.88803 0.59435 0.97448 0.0
C1263 C 0.8843 0.57794 0.98151 0.0
C1264 C 0.88667 0.56347 0.97456 0.0
C1265 C 0.95069 0.52249 0.963 0.0
C1266 C 0.94651 0.51513 0.97667 0.0
C1267 C 0.93892 0.5275 0.95543 0.0
C1268 C 0.9228 0.5252 0.96141 0.0
C1269 C 0.91872 0.51801 0.97514 0.0
C1270 C 0.93044 0.51292 0.98268 0.0
C1271 C 0.91013 0.53029 0.9534 0.0
C1272 C 0.90674 0.54422 0.96013 0.0
C1273 C 0.90166 0.52172 0.93919 0.0
C1274 C 0.9041 0.50628 0.93187 0.0
C1275 C 0.89937 0.48929 0.93861 0.0
C1276 C 0.90222 0.47503 0.9319 0.0
C1277 C 0.90966 0.47752 0.91839 0.0
C1278 C 0.91417 0.49424 0.91151 0.0
C1279 C 0.91135 0.50856 0.91819 0.0
H1280 H 0.91189 0.46647 0.91328 0.0
H1281 H 0.88617 0.60553 0.97987 0.0
H1282 H 0.42238 0.30578 0.92293 0.0
H1283 H 0.43257 0.33776 0.93517 0.0
H1284 H 0.45286 0.32279 0.97357 0.0
H1285 H 0.44258 0.29076 0.96142 0.0
H1286 H 0.43611 0.34226 0.98122 0.0
H1287 H 0.48194 0.34959 0.94856 0.0
H1288 H 0.49389 0.34739 0.92498 0.0
H1289 H 0.47494 0.38387 0.90753 0.0
H1290 H 0.46256 0.38599 0.93093 0.0
H1291 H 0.51217 0.45222 0.99084 0.0
H1292 H 0.50049 0.41882 0.98133 0.0
H1293 H 0.44408 0.40584 0.986 0.0
H1294 H 0.45568 0.43913 0.99588 0.0
H1295 H 0.47964 0.40017 0.95745 0.0
H1296 H 0.41684 0.35838 0.99127 0.0
H1297 H 0.40738 0.36108 0.01587 0.0
H1298 H 0.46485 0.39415 0.03291 0.0
H1299 H 0.47464 0.39143 0.00847 0.0
C1300 C 0.42899 0.30932 0.93399 0.0
C1301 C 0.43179 0.29582 0.94119 0.0
C1302 C 0.4348 0.32758 0.94096 0.0
C1303 C 0.44372 0.33276 0.9552 0.0
C1304 C 0.446 0.3191 0.96258 0.0
C1305 C 0.44009 0.30079 0.95564 0.0
C1306 C 0.45118 0.35259 0.96227 0.0
C1307 C 0.44559 0.35493 0.97601 0.0
C1308 C 0.46379 0.36912 0.95557 0.0
C1309 C 0.4711 0.36772 0.94145 0.0
C1310 C 0.48014 0.35696 0.93965 0.0
C1311 C 0.48702 0.35576 0.92632 0.0
C1312 C 0.48511 0.36542 0.91475 0.0
C1313 C 0.47635 0.37634 0.91649 0.0
C1314 C 0.46939 0.37754 0.92978 0.0
C1315 C 0.49729 0.44222 0.99002 0.0
C1316 C 0.48486 0.44834 0.99414 0.0
C1317 C 0.49063 0.42314 0.98453 0.0
C1318 C 0.47143 0.40979 0.98302 0.0
C1319 C 0.45898 0.41579 0.9873 0.0
C1320 C 0.46564 0.43485 0.99292 0.0
C1321 C 0.46445 0.38987 0.97635 0.0
C1322 C 0.47009 0.38751 0.96264 0.0
C1323 C 0.45219 0.37335 0.9832 0.0
C1324 C 0.44646 0.37486 0.998 0.0
C1325 C 0.42745 0.36616 0.00028 0.0
C1326 C 0.42203 0.36771 0.0142 0.0
C1327 C 0.4355 0.37783 0.02594 0.0
C1328 C 0.45443 0.38637 0.0238 0.0
C1329 C 0.45992 0.38485 0.00991 0.0
H1330 H 0.43128 0.37903 0.0367 0.0
H1331 H 0.49047 0.36449 0.90445 0.0
H1332 H 0.15673 0.68986 0.07603 0.0
H1333 H 0.13446 0.6573 0.06495 0.0
H1334 H 0.10007 0.67833 0.04609 0.0
H1335 H 0.12218 0.71093 0.05736 0.0
H1336 H 0.07983 0.64483 0.05937 0.0
H1337 H 0.12603 0.66849 0.02488 0.0
H1338 H 0.15781 0.68314 0.01698 0.0
H1339 H 0.16354 0.63661 0.03242 0.0
H1340 H 0.13187 0.62182 0.04061 0.0
H1341 H 0.02096 0.56364 0.00962 0.0
H1342 H 0.04419 0.59631 0.01969 0.0
H1343 H 0.07762 0.57464 0.03928 0.0
H1344 H 0.05447 0.54185 0.02925 0.0
H1345 H 0.09846 0.60832 0.02561 0.0
H1346 H 0.05273 0.58463 0.06014 0.0
H1347 H 0.02093 0.56949 0.06803 0.0
H1348 H 0.01449 0.61576 0.05295 0.0
H1349 H 0.04615 0.63101 0.0447 0.0
C1350 C 0.14438 0.68753 0.06957 0.0
C1351 C 0.14117 0.70292 0.06756 0.0
C1352 C 0.13176 0.66897 0.06317 0.0
C1353 C 0.11571 0.66547 0.05462 0.0
C1354 C 0.11241 0.68077 0.05263 0.0
C1355 C 0.1251 0.69938 0.05897 0.0
C1356 C 0.10222 0.64574 0.04796 0.0
C1357 C 0.08382 0.63695 0.05182 0.0
C1358 C 0.10761 0.63531 0.03844 0.0
C1359 C 0.12665 0.64415 0.03349 0.0
C1360 C 0.13413 0.66147 0.0267 0.0
C1361 C 0.15211 0.66978 0.02215 0.0
C1362 C 0.16271 0.66084 0.02423 0.0
C1363 C 0.15533 0.64353 0.03083 0.0
C1364 C 0.13735 0.63517 0.03542 0.0
C1365 C 0.03328 0.56578 0.01601 0.0
C1366 C 0.03582 0.5501 0.01867 0.0
C1367 C 0.04651 0.58447 0.02178 0.0
C1368 C 0.06251 0.58782 0.03031 0.0
C1369 C 0.06533 0.57231 0.03272 0.0
C1370 C 0.05205 0.55358 0.02703 0.0
C1371 C 0.07608 0.6075 0.03696 0.0
C1372 C 0.09448 0.61624 0.03313 0.0
C1373 C 0.07072 0.61786 0.04657 0.0
C1374 C 0.05175 0.60886 0.05167 0.0
C1375 C 0.04448 0.5915 0.05839 0.0
C1376 C 0.02649 0.58291 0.06295 0.0
C1377 C 0.01568 0.59164 0.06096 0.0
C1378 C 0.02287 0.60901 0.05446 0.0
C1379 C 0.04084 0.61763 0.04985 0.0
H1380 H 0.00176 0.58497 0.0645 0.0
H1381 H 0.17663 0.6673 0.0207 0.0
H1382 H 0.28986 0.39991 0.06882 0.0
H1383 H 0.31833 0.41008 0.05634 0.0
H1384 H 0.33271 0.4696 0.06432 0.0
H1385 H 0.3045 0.45954 0.0771 0.0
H1386 H 0.33465 0.45532 0.03371 0.0
H1387 H 0.3552 0.45873 0.08473 0.0
H1388 H 0.35373 0.44543 0.10848 0.0
H1389 H 0.36153 0.40069 0.08834 0.0
H1390 H 0.36276 0.41357 0.0644 0.0
H1391 H 0.4289 0.5068 0.01782 0.0
H1392 H 0.39837 0.49387 0.02735 0.0
H1393 H 0.39732 0.44027 0.0333 0.0
H1394 H 0.42838 0.45373 0.02466 0.0
H1395 H 0.38711 0.44953 0.05601 0.0
H1396 H 0.36846 0.44567 0.00558 0.0
H1397 H 0.36888 0.45688 0.9811 0.0
H1398 H 0.35608 0.4993 0.99843 0.0
H1399 H 0.35583 0.48852 0.02307 0.0
C1400 C 0.29913 0.41515 0.06788 0.0
C1401 C 0.29512 0.42898 0.07394 0.0
C1402 C 0.31532 0.42092 0.06079 0.0
C1403 C 0.32753 0.44056 0.05943 0.0
C1404 C 0.32339 0.45438 0.06526 0.0
C1405 C 0.3074 0.44865 0.07261 0.0
C1406 C 0.34481 0.44674 0.05216 0.0
C1407 C 0.34626 0.45429 0.03859 0.0
C1408 C 0.35957 0.4447 0.05837 0.0
C1409 C 0.35882 0.43696 0.07275 0.0
C1410 C 0.35639 0.44593 0.08533 0.0
C1411 C 0.35565 0.4385 0.09884 0.0
C1412 C 0.35746 0.42218 0.09991 0.0
C1413 C 0.36008 0.4133 0.08749 0.0
C1414 C 0.36081 0.42067 0.07395 0.0
C1415 C 0.42204 0.49223 0.02109 0.0
C1416 C 0.43091 0.48125 0.0206 0.0
C1417 C 0.40451 0.48475 0.02639 0.0
C1418 C 0.39529 0.46591 0.03082 0.0
C1419 C 0.40406 0.4548 0.02994 0.0
C1420 C 0.4218 0.46248 0.02502 0.0
C1421 C 0.37725 0.45839 0.03743 0.0
C1422 C 0.37558 0.45054 0.05095 0.0
C1423 C 0.36216 0.45986 0.03101 0.0
C1424 C 0.36229 0.46639 0.0162 0.0
C1425 C 0.36587 0.45749 0.0042 0.0
C1426 C 0.36606 0.46375 0.99029 0.0
C1427 C 0.36255 0.47882 0.98822 0.0
C1428 C 0.35881 0.48764 5e-05 0.0
C1429 C 0.35862 0.48144 0.01399 0.0
H1430 H 0.3627 0.48365 0.97744 0.0
H1431 H 0.3569 0.41646 0.11038 0.0
H1432 H 0.54998 0.8665 0.0678 0.0
H1433 H 0.53817 0.88413 0.05434 0.0
H1434 H 0.58728 0.90886 0.03075 0.0
H1435 H 0.59957 0.89175 0.04462 0.0
H1436 H 0.57847 0.93565 0.03937 0.0
H1437 H 0.54609 0.87256 0.01424 0.0
H1438 H 0.52728 0.83699 0.01171 0.0
H1439 H 0.48189 0.83964 0.02978 0.0
H1440 H 0.50052 0.87523 0.03262 0.0
H1441 H 0.53781 0.97506 0.99243 0.0
H1442 H 0.55139 0.95565 0.00018 0.0
H1443 H 0.50611 0.92554 0.02698 0.0
H1444 H 0.49226 0.94447 0.01908 0.0
H1445 H 0.5148 0.90111 0.01369 0.0
H1446 H 0.54872 0.96417 0.04094 0.0
H1447 H 0.56767 -0.00027 0.04353 0.0
H1448 H 0.61045 0.99699 0.02107 0.0
H1449 H 0.59161 0.96139 0.0182 0.0
C1450 C 0.5584 0.87586 0.05988 0.0
C1451 C 0.57575 0.87773 0.05731 0.0
C1452 C 0.55151 0.88575 0.05206 0.0
C1453 C 0.5617 0.89756 0.04136 0.0
C1454 C 0.57913 0.8997 0.03888 0.0
C1455 C 0.58607 0.88982 0.04674 0.0
C1456 C 0.55415 0.90786 0.033 0.0
C1457 C 0.56469 0.92807 0.03351 0.0
C1458 C 0.53608 0.89799 0.0255 0.0
C1459 C 0.52477 0.87657 0.02374 0.0
C1460 C 0.53215 0.86556 0.01777 0.0
C1461 C 0.52151 0.84539 0.01626 0.0
C1462 C 0.50341 0.83606 0.0206 0.0
C1463 C 0.49591 0.84688 0.02642 0.0
C1464 C 0.5065 0.86706 0.02797 0.0
C1465 C 0.53062 0.96412 -0.00018 0.0
C1466 C 0.51399 0.96139 0.00518 0.0
C1467 C 0.53845 0.95311 0.00429 0.0
C1468 C 0.52992 0.93936 0.01435 0.0
C1469 C 0.51294 0.93607 0.01922 0.0
C1470 C 0.50504 0.94694 0.01469 0.0
C1471 C 0.53894 0.92891 0.02035 0.0
C1472 C 0.52868 0.90866 0.01938 0.0
C1473 C 0.55728 0.93875 0.0274 0.0
C1474 C 0.56867 0.96013 0.02923 0.0
C1475 C 0.56211 0.97116 0.03649 0.0
C1476 C 0.57284 0.99132 0.03802 0.0
C1477 C 0.59023 0.00062 0.03244 0.0
C1478 C 0.59696 0.98977 0.02537 0.0
C1479 C 0.58627 0.9696 0.02379 0.0
H1480 H 0.59852 0.01623 0.03362 0.0
H1481 H 0.4952 0.82045 0.01943 0.0
H1482 H 0.95041 0.16903 0.38533 0.0
H1483 H 0.97971 0.18884 0.37469 0.0
H1484 H 0.99752 0.23239 0.41096 0.0
H1485 H 0.96844 0.21247 0.4219 0.0
H1486 H 0.00312 0.24738 0.38389 0.0
H1487 H 0.01543 0.20376 0.40984 0.0
H1488 H 0.00925 0.17182 0.41643 0.0
H1489 H 0.01293 0.15587 0.37194 0.0
H1490 H 0.01888 0.18764 0.36504 0.0
H1491 H 0.09782 0.30449 0.37211 0.0
H1492 H 0.06864 0.28383 0.3826 0.0
H1493 H 0.05531 0.23805 0.34896 0.0
H1494 H 0.08493 0.25856 0.33873 0.0
H1495 H 0.04689 0.22373 0.37422 0.0
H1496 H 0.03457 0.26663 0.34789 0.0
H1497 H 0.04015 0.2981 0.34064 0.0
H1498 H 0.03553 0.31481 0.38467 0.0
H1499 H 0.03017 0.28352 0.39223 0.0
C1500 C 0.96063 0.18271 0.39116 0.0
C1501 C 0.95709 0.18911 0.40452 0.0
C1502 C 0.97733 0.19404 0.38502 0.0
C1503 C 0.9908 0.21198 0.39211 0.0
C1504 C 0.98725 0.21857 0.40532 0.0
C1505 C 0.9706 0.20721 0.41152 0.0
C1506 C 0.00857 0.22395 0.38568 0.0
C1507 C 0.01283 0.24234 0.38194 0.0
C1508 C 0.0209 0.21708 0.38276 0.0
C1509 C 0.01741 0.19801 0.3869 0.0
C1510 C 0.01477 0.19338 0.40144 0.0
C1511 C 0.01134 0.17532 0.40523 0.0
C1512 C 0.01065 0.16181 0.3946 0.0
C1513 C 0.01344 0.16635 0.38016 0.0
C1514 C 0.01686 0.18438 0.3763 0.0
C1515 C 0.08863 0.29002 0.36695 0.0
C1516 C 0.09347 0.28312 0.35455 0.0
C1517 C 0.07194 0.27826 0.37291 0.0
C1518 C 0.05959 0.25951 0.36639 0.0
C1519 C 0.06458 0.25249 0.35413 0.0
C1520 C 0.08144 0.2642 0.34827 0.0
C1521 C 0.04154 0.24726 0.37245 0.0
C1522 C 0.0372 0.2288 0.37613 0.0
C1523 C 0.02903 0.254 0.37519 0.0
C1524 C 0.03213 0.27279 0.37065 0.0
C1525 C 0.03487 0.27706 0.35605 0.0
C1526 C 0.03798 0.29486 0.35188 0.0
C1527 C 0.03824 0.30846 0.36219 0.0
C1528 C 0.03534 0.30427 0.37669 0.0
C1529 C 0.03225 0.28649 0.38093 0.0
H1530 H 0.04064 0.32224 0.35894 0.0
H1531 H 0.00799 0.14783 0.39756 0.0
H1532 H 0.84223 0.78906 0.39459 0.0
H1533 H 0.81957 0.79512 0.38146 0.0
H1534 H 0.78287 0.77267 0.41572 0.0
H1535 H 0.80553 0.76669 0.42897 0.0
H1536 H 0.76402 0.75876 0.38898 0.0
H1537 H 0.80826 0.82075 0.41339 0.0
H1538 H 0.83949 0.84889 0.42051 0.0
H1539 H 0.84671 0.8602 0.37552 0.0
H1540 H 0.81562 0.83195 0.36811 0.0
H1541 H 0.70401 0.79538 0.37047 0.0
H1542 H 0.72622 0.78797 0.38279 0.0
H1543 H 0.76244 0.81055 0.34823 0.0
H1544 H 0.74032 0.81819 0.33595 0.0
H1545 H 0.78152 0.82414 0.37485 0.0
H1546 H 0.73676 0.76221 0.35056 0.0
H1547 H 0.70537 0.73421 0.3437 0.0
H1548 H 0.69891 0.72293 0.38875 0.0
H1549 H 0.73017 0.75104 0.39591 0.0
C1550 C 0.82942 0.78559 0.3994 0.0
C1551 C 0.82572 0.77746 0.41286 0.0
C1552 C 0.81646 0.78901 0.39187 0.0
C1553 C 0.79961 0.78451 0.39769 0.0
C1554 C 0.79577 0.77621 0.41103 0.0
C1555 C 0.80872 0.77277 0.41856 0.0
C1556 C 0.78598 0.78846 0.38985 0.0
C1557 C 0.76777 0.7731 0.38605 0.0
C1558 C 0.79101 0.80708 0.38576 0.0
C1559 C 0.80969 0.82411 0.39019 0.0
C1560 C 0.81657 0.82915 0.40501 0.0
C1561 C 0.83423 0.84513 0.4091 0.0
C1562 C 0.8451 0.8563 0.39847 0.0
C1563 C 0.83829 0.85152 0.38374 0.0
C1564 C 0.82065 0.83553 0.37959 0.0
C1565 C 0.71665 0.79863 0.36546 0.0
C1566 C 0.72046 0.80728 0.35225 0.0
C1567 C 0.7293 0.79435 0.37248 0.0
C1568 C 0.74591 0.79855 0.36635 0.0
C1569 C 0.7497 0.80717 0.35313 0.0
C1570 C 0.73704 0.81146 0.34611 0.0
C1571 C 0.75956 0.79444 0.37396 0.0
C1572 C 0.77778 0.80978 0.37774 0.0
C1573 C 0.75452 0.77581 0.37806 0.0
C1574 C 0.73574 0.75884 0.37378 0.0
C1575 C 0.72859 0.75385 0.35902 0.0
C1576 C 0.71083 0.73794 0.35507 0.0
C1577 C 0.70013 0.72682 0.36579 0.0
C1578 C 0.7072 0.73157 0.38046 0.0
C1579 C 0.72495 0.74747 0.38447 0.0
H1580 H 0.68639 0.71451 0.36271 0.0
H1581 H 0.85877 0.86867 0.40166 0.0
H1582 H 0.26493 0.05919 0.38619 0.0
H1583 H 0.2555 0.02698 0.37463 0.0
H1584 H 0.20123 0.00463 0.39057 0.0
H1585 H 0.21059 0.03669 0.40223 0.0
H1586 H 0.2167 0.98135 0.39504 0.0
H1587 H 0.206 0.01349 0.35597 0.0
H1588 H 0.21486 0.03957 0.33968 0.0
H1589 H 0.25681 0.02874 0.32378 0.0
H1590 H 0.24836 0.00276 0.34014 0.0
H1591 H 0.16455 0.89214 0.35367 0.0
H1592 H 0.17573 0.92546 0.36307 0.0
H1593 H 0.22809 0.94347 0.34478 0.0
H1594 H 0.21699 0.91013 0.33517 0.0
H1595 H 0.2154 0.96931 0.34137 0.0
H1596 H 0.22655 0.93739 0.37952 0.0
H1597 H 0.21819 0.91091 0.39533 0.0
H1598 H 0.1768 0.92137 0.4129 0.0
H1599 H 0.18476 0.94778 0.39704 0.0
C1600 C 0.25103 0.04737 0.38728 0.0
C1601 C 0.23845 0.05043 0.39504 0.0
C1602 C 0.24564 0.02904 0.38061 0.0
C1603 C 0.22763 0.0135 0.38167 0.0
C1604 C 0.21517 0.01647 0.3896 0.0
C1605 C 0.22049 0.03479 0.39616 0.0
C1606 C 0.2217 0.99408 0.37453 0.0
C1607 C 0.21623 0.97868 0.3833 0.0
C1608 C 0.22162 0.99075 0.35925 0.0
C1609 C 0.22669 0.00633 0.3494 0.0
C1610 C 0.21722 0.01679 0.3491 0.0
C1611 C 0.22215 0.03153 0.33983 0.0
C1612 C 0.23643 0.03585 0.33073 0.0
C1613 C 0.24577 0.0254 0.33085 0.0
C1614 C 0.24091 0.01066 0.34011 0.0
C1615 C 0.17837 0.90317 0.35147 0.0
C1616 C 0.18993 0.89842 0.34376 0.0
C1617 C 0.18475 0.92221 0.3569 0.0
C1618 C 0.20282 0.93684 0.35479 0.0
C1619 C 0.21411 0.93235 0.34655 0.0
C1620 C 0.20775 0.91327 0.34112 0.0
C1621 C 0.21018 0.9566 0.36186 0.0
C1622 C 0.21595 0.97203 0.35312 0.0
C1623 C 0.21072 0.96003 0.37718 0.0
C1624 C 0.20617 0.94448 0.38702 0.0
C1625 C 0.21561 0.93399 0.38671 0.0
C1626 C 0.21096 0.91901 0.39569 0.0
C1627 C 0.197 0.91448 0.40512 0.0
C1628 C 0.18766 0.92493 0.40561 0.0
C1629 C 0.19225 0.93993 0.39664 0.0
H1630 H 0.19348 0.90291 0.41207 0.0
H1631 H 0.24022 0.04726 0.32356 0.0
H1632 H 0.54659 0.61988 0.26178 0.0
H1633 H 0.56873 0.6521 0.27338 0.0
H1634 H 0.53934 0.63854 0.31228 0.0
H1635 H 0.51685 0.60636 0.30053 0.0
H1636 H 0.54661 0.67241 0.30595 0.0
H1637 H 0.58278 0.64188 0.31105 0.0
H1638 H 0.59702 0.62263 0.30329 0.0
H1639 H 0.6283 0.66429 0.27363 0.0
H1640 H 0.61405 0.68367 0.28105 0.0
H1641 H 0.64582 0.75877 0.33547 0.0
H1642 H 0.62422 0.72416 0.32976 0.0
H1643 H 0.59057 0.73657 0.29988 0.0
H1644 H 0.61173 0.77109 0.30584 0.0
H1645 H 0.61515 0.70173 0.30584 0.0
H1646 H 0.54566 0.70283 0.29819 0.0
H1647 H 0.53164 0.72121 0.30842 0.0
H1648 H 0.56735 0.73653 0.34817 0.0
H1649 H 0.5814 0.71803 0.33826 0.0
C1650 C 0.54502 0.62368 0.27288 0.0
C1651 C 0.53007 0.61062 0.28029 0.0
C1652 C 0.55769 0.64209 0.27952 0.0
C1653 C 0.55587 0.64768 0.29379 0.0
C1654 C 0.54103 0.63456 0.30127 0.0
C1655 C 0.52821 0.6162 0.29456 0.0
C1656 C 0.56897 0.66751 0.3006 0.0
C1657 C 0.5616 0.67877 0.30601 0.0
C1658 C 0.58855 0.67572 0.301 0.0
C1659 C 0.59724 0.66416 0.29654 0.0
C1660 C 0.5926 0.64687 0.3028 0.0
C1661 C 0.60069 0.63595 0.29847 0.0
C1662 C 0.61353 0.64221 0.28796 0.0
C1663 C 0.61834 0.65945 0.28177 0.0
C1664 C 0.61028 0.67042 0.28605 0.0
C1665 C 0.63376 0.75412 0.32774 0.0
C1666 C 0.63043 0.76767 0.32116 0.0
C1667 C 0.62144 0.73433 0.32448 0.0
C1668 C 0.60563 0.72775 0.31455 0.0
C1669 C 0.60242 0.74128 0.30785 0.0
C1670 C 0.61459 0.76104 0.31122 0.0
C1671 C 0.59276 0.70675 0.3108 0.0
C1672 C 0.60017 0.69529 0.30594 0.0
C1673 C 0.57324 0.69821 0.31129 0.0
C1674 C 0.56468 0.70915 0.31742 0.0
C1675 C 0.55045 0.71003 0.30914 0.0
C1676 C 0.54252 0.72049 0.31488 0.0
C1677 C 0.54864 0.73007 0.32892 0.0
C1678 C 0.56267 0.72915 0.33727 0.0
C1679 C 0.57063 0.7187 0.33159 0.0
H1680 H 0.54249 0.73817 0.33333 0.0
H1681 H 0.61978 0.63373 0.28462 0.0
H1682 H 0.38696 0.89942 0.28094 0.0
H1683 H 0.35742 0.88903 0.29161 0.0
H1684 H 0.3341 0.89731 0.25146 0.0
H1685 H 0.36387 0.9083 0.24094 0.0
H1686 H 0.32367 0.91011 0.27335 0.0
H1687 H 0.32378 0.8515 0.26114 0.0
H1688 H 0.33614 0.8292 0.26075 0.0
H1689 H 0.33701 0.82982 0.30749 0.0
H1690 H 0.3249 0.85235 0.30818 0.0
H1691 H 0.22941 0.85709 0.28964 0.0
H1692 H 0.25836 0.86636 0.27824 0.0
H1693 H 0.28487 0.866 0.31974 0.0
H1694 H 0.25583 0.85675 0.33111 0.0
H1695 H 0.29299 0.84858 0.29667 0.0
H1696 H 0.29323 0.90831 0.30812 0.0
H1697 H 0.27974 0.9296 0.30759 0.0
H1698 H 0.2765 0.92502 0.26069 0.0
H1699 H 0.28984 0.90355 0.26094 0.0
C1700 C 0.3755 0.89899 0.27441 0.0
C1701 C 0.37764 0.90457 0.2601 0.0
C1702 C 0.35861 0.89298 0.28048 0.0
C1703 C 0.34339 0.89202 0.27225 0.0
C1704 C 0.34561 0.89789 0.25802 0.0
C1705 C 0.36261 0.90417 0.25202 0.0
C1706 C 0.32519 0.88499 0.2785 0.0
C1707 C 0.31686 0.89652 0.27825 0.0
C1708 C 0.31637 0.86737 0.2851 0.0
C1709 C 0.32359 0.85376 0.28472 0.0
C1710 C 0.32674 0.84699 0.27135 0.0
C1711 C 0.33368 0.83429 0.27107 0.0
C1712 C 0.3374 0.82813 0.28409 0.0
C1713 C 0.33414 0.83462 0.29741 0.0
C1714 C 0.32722 0.84735 0.29775 0.0
C1715 C 0.24144 0.85903 0.29626 0.0
C1716 C 0.24053 0.85648 0.31121 0.0
C1717 C 0.25794 0.8643 0.28979 0.0
C1718 C 0.27383 0.86711 0.29821 0.0
C1719 C 0.27277 0.86395 0.31308 0.0
C1720 C 0.25623 0.85872 0.31955 0.0
C1721 C 0.29165 0.87375 0.29156 0.0
C1722 C 0.29986 0.86214 0.29173 0.0
C1723 C 0.30024 0.89115 0.28472 0.0
C1724 C 0.29244 0.90425 0.28455 0.0
C1725 C 0.28957 0.91177 0.29769 0.0
C1726 C 0.28197 0.92389 0.29744 0.0
C1727 C 0.2773 0.92868 0.28411 0.0
C1728 C 0.28019 0.92134 0.271 0.0
C1729 C 0.28779 0.90922 0.27119 0.0
H1730 H 0.27145 0.93809 0.28395 0.0
H1731 H 0.34278 0.8183 0.28385 0.0
H1732 H 0.07715 0.45629 0.28376 0.0
H1733 H 0.08645 0.43557 0.29594 0.0
H1734 H 0.13934 0.46382 0.27743 0.0
H1735 H 0.13004 0.48438 0.26508 0.0
H1736 H 0.12277 0.4242 0.27446 0.0
H1737 H 0.13692 0.4746 0.31251 0.0
H1738 H 0.12979 0.49513 0.32871 0.0
H1739 H 0.08791 0.44487 0.34671 0.0
H1740 H 0.09462 0.42401 0.33046 0.0
H1741 H 0.17411 0.39259 0.31522 0.0
H1742 H 0.16384 0.41405 0.30606 0.0
H1743 H 0.11183 0.38234 0.32528 0.0
H1744 H 0.12198 0.36074 0.3346 0.0
H1745 H 0.12646 0.42264 0.32837 0.0
H1746 H 0.11056 0.37221 0.29054 0.0
H1747 H 0.11631 0.3505 0.2744 0.0
H1748 H 0.15994 0.39948 0.25642 0.0
H1749 H 0.15439 0.42145 0.27241 0.0
C1750 C 0.09071 0.45799 0.28223 0.0
C1751 C 0.10289 0.47197 0.2735 0.0
C1752 C 0.09606 0.44627 0.28928 0.0
C1753 C 0.11365 0.4483 0.28768 0.0
C1754 C 0.12574 0.46209 0.27885 0.0
C1755 C 0.12046 0.47389 0.27188 0.0
C1756 C 0.11939 0.43585 0.29499 0.0
C1757 C 0.12379 0.42405 0.28626 0.0
C1758 C 0.12014 0.4352 0.31035 0.0
C1759 C 0.11614 0.44773 0.32016 0.0
C1760 C 0.12608 0.46791 0.31983 0.0
C1761 C 0.12214 0.47961 0.32904 0.0
C1762 C 0.10837 0.47131 0.33871 0.0
C1763 C 0.09855 0.45128 0.3392 0.0
C1764 C 0.10243 0.43952 0.33 0.0
C1765 C 0.16058 0.39027 0.31769 0.0
C1766 C 0.14881 0.37483 0.32556 0.0
C1767 C 0.15473 0.40255 0.31241 0.0
C1768 C 0.13701 0.39961 0.31486 0.0
C1769 C 0.12555 0.3848 0.32327 0.0
C1770 C 0.13136 0.37244 0.32853 0.0
C1771 C 0.13009 0.41129 0.30783 0.0
C1772 C 0.12541 0.42283 0.31658 0.0
C1773 C 0.12886 0.41158 0.29247 0.0
C1774 C 0.13211 0.39846 0.28269 0.0
C1775 C 0.1214 0.37833 0.28316 0.0
C1776 C 0.12458 0.36598 0.27401 0.0
C1777 C 0.13838 0.37359 0.26431 0.0
C1778 C 0.14912 0.39358 0.26381 0.0
C1779 C 0.14594 0.40599 0.27289 0.0
H1780 H 0.14067 0.36397 0.25718 0.0
H1781 H 0.10534 0.48039 0.34583 0.0
H1782 H 0.35826 0.47809 0.25092 0.0
H1783 H 0.32744 0.45952 0.25963 0.0
H1784 H 0.34704 0.42875 0.28546 0.0
H1785 H 0.37765 0.44658 0.27623 0.0
H1786 H 0.3132 0.40465 0.27259 0.0
H1787 H 0.34298 0.46669 0.30067 0.0
H1788 H 0.35908 0.50225 0.30428 0.0
H1789 H 0.31223 0.50162 0.28162 0.0
H1790 H 0.29594 0.46604 0.27771 0.0
H1791 H 0.24946 0.37264 0.32669 0.0
H1792 H 0.27759 0.39042 0.31404 0.0
H1793 H 0.24851 0.4094 0.28525 0.0
H1794 H 0.22014 0.39135 0.29776 0.0
H1795 H 0.28523 0.43918 0.29762 0.0
H1796 H 0.25439 0.3764 0.27171 0.0
H1797 H 0.2383 0.34085 0.26944 0.0
H1798 H 0.2874 0.34283 0.28889 0.0
H1799 H 0.30368 0.37844 0.29164 0.0
C1800 C 0.35596 0.46717 0.25828 0.0
C1801 C 0.37047 0.46389 0.26292 0.0
C1802 C 0.33837 0.45671 0.26337 0.0
C1803 C 0.33501 0.44295 0.27336 0.0
C1804 C 0.34934 0.43936 0.2778 0.0
C1805 C 0.36689 0.44972 0.27263 0.0
C1806 C 0.31668 0.43249 0.27942 0.0
C1807 C 0.30717 0.41221 0.27817 0.0
C1808 C 0.30858 0.44235 0.28638 0.0
C1809 C 0.31834 0.46373 0.28875 0.0
C1810 C 0.33617 0.47415 0.29636 0.0
C1811 C 0.34532 0.4943 0.29848 0.0
C1812 C 0.3367 0.50419 0.29315 0.0
C1813 C 0.3189 0.49394 0.28572 0.0
C1814 C 0.3097 0.47378 0.28356 0.0
C1815 C 0.24909 0.38065 0.31769 0.0
C1816 C 0.23271 0.38069 0.31318 0.0
C1817 C 0.26511 0.39072 0.31047 0.0
C1818 C 0.26503 0.40109 0.29869 0.0
C1819 C 0.24878 0.40146 0.29432 0.0
C1820 C 0.23265 0.39116 0.30144 0.0
C1821 C 0.28199 0.41145 0.29098 0.0
C1822 C 0.29121 0.43167 0.29191 0.0
C1823 C 0.28987 0.40155 0.28381 0.0
C1824 C 0.28021 0.38012 0.282 0.0
C1825 C 0.26172 0.36927 0.27562 0.0
C1826 C 0.25256 0.3491 0.27423 0.0
C1827 C 0.26181 0.33957 0.27901 0.0
C1828 C 0.28025 0.35022 0.28519 0.0
C1829 C 0.28945 0.37041 0.28668 0.0
H1830 H 0.25469 0.32395 0.2779 0.0
H1831 H 0.34381 0.5198 0.2948 0.0
H1832 H 0.51246 0.89391 0.27631 0.0
H1833 H 0.53345 0.88362 0.28663 0.0
H1834 H 0.56937 0.90785 0.25213 0.0
H1835 H 0.54827 0.91803 0.24167 0.0
H1836 H 0.56427 0.87319 0.25611 0.0
H1837 H 0.58156 0.93026 0.28714 0.0
H1838 H 0.57669 0.95248 0.30344 0.0
H1839 H 0.55387 0.90958 0.334 0.0
H1840 H 0.55837 0.88698 0.31779 0.0
H1841 H 0.63847 0.86465 0.29084 0.0
H1842 H 0.61961 0.877 0.27958 0.0
H1843 H 0.57983 0.852 0.31153 0.0
H1844 H 0.59875 0.83975 0.32289 0.0
H1845 H 0.58873 0.88881 0.30838 0.0
H1846 H 0.56714 0.83057 0.27522 0.0
H1847 H 0.57127 0.80816 0.25847 0.0
H1848 H 0.60386 0.85448 0.23253 0.0
H1849 H 0.59943 0.87705 0.24891 0.0
C1850 C 0.52495 0.89725 0.27103 0.0
C1851 C 0.52876 0.90684 0.25822 0.0
C1852 C 0.53694 0.89136 0.27693 0.0
C1853 C 0.55312 0.89518 0.27026 0.0
C1854 C 0.55696 0.90475 0.25746 0.0
C1855 C 0.5449 0.91053 0.25149 0.0
C1856 C 0.56575 0.88875 0.27648 0.0
C1857 C 0.56986 0.87689 0.26748 0.0
C1858 C 0.57284 0.89329 0.29137 0.0
C1859 C 0.57016 0.90686 0.30118 0.0
C1860 C 0.57537 0.9255 0.29729 0.0
C1861 C 0.5727 0.93818 0.30652 0.0
C1862 C 0.56493 0.93243 0.31973 0.0
C1863 C 0.55987 0.91401 0.32376 0.0
C1864 C 0.5625 0.90127 0.31456 0.0
C1865 C 0.62566 0.86175 0.29541 0.0
C1866 C 0.62 0.85125 0.3077 0.0
C1867 C 0.61485 0.8687 0.28893 0.0
C1868 C 0.59821 0.86525 0.29463 0.0
C1869 C 0.59261 0.8548 0.30695 0.0
C1870 C 0.60339 0.84782 0.31342 0.0
C1871 C 0.58693 0.87303 0.28808 0.0
C1872 C 0.58317 0.88522 0.297 0.0
C1873 C 0.58027 0.8689 0.27312 0.0
C1874 C 0.58306 0.85547 0.26332 0.0
C1875 C 0.57521 0.83596 0.26596 0.0
C1876 C 0.57753 0.82322 0.2565 0.0
C1877 C 0.58791 0.82991 0.24449 0.0
C1878 C 0.59582 0.84932 0.24183 0.0
C1879 C 0.59329 0.86205 0.25113 0.0
H1880 H 0.5898 0.82005 0.23724 0.0
H1881 H 0.56288 0.94226 0.32686 0.0
H1882 H 0.11973 0.62526 0.29155 0.0
H1883 H 0.13 0.65764 0.30304 0.0
H1884 H 0.09404 0.66407 0.27103 0.0
H1885 H 0.08426 0.63195 0.25925 0.0
H1886 H 0.12551 0.6953 0.27413 0.0
H1887 H 0.08365 0.65571 0.30737 0.0
H1888 H 0.07022 0.62969 0.32381 0.0
H1889 H 0.12167 0.65713 0.35136 0.0
H1890 H 0.13551 0.68319 0.33498 0.0
H1891 H 0.12849 0.76939 0.33317 0.0
H1892 H 0.11659 0.73574 0.32412 0.0
H1893 H 0.16807 0.75195 0.30486 0.0
H1894 H 0.17997 0.78569 0.31359 0.0
H1895 H 0.12655 0.7092 0.3275 0.0
H1896 H 0.15803 0.72683 0.27148 0.0
H1897 H 0.16767 0.75287 0.25501 0.0
H1898 H 0.12955 0.76851 0.2724 0.0
H1899 H 0.11934 0.74231 0.28869 0.0
C1900 C 0.11392 0.63356 0.28708 0.0
C1901 C 0.10121 0.62616 0.27455 0.0
C1902 C 0.11975 0.65202 0.29366 0.0
C1903 C 0.11263 0.66323 0.28801 0.0
C1904 C 0.09977 0.65573 0.27556 0.0
C1905 C 0.09417 0.6374 0.26886 0.0
C1906 C 0.11903 0.68301 0.29478 0.0
C1907 C 0.12571 0.69829 0.2858 0.0
C1908 C 0.11894 0.68694 0.30997 0.0
C1909 C 0.11067 0.67131 0.31987 0.0
C1910 C 0.09215 0.65612 0.31688 0.0
C1911 C 0.08445 0.64138 0.32619 0.0
C1912 C 0.0951 0.64173 0.3386 0.0
C1913 C 0.11345 0.65686 0.34174 0.0
C1914 C 0.12122 0.67163 0.33245 0.0
C1915 C 0.13738 0.7658 0.32713 0.0
C1916 C 0.15512 0.78026 0.32398 0.0
C1917 C 0.13057 0.74654 0.32202 0.0
C1918 C 0.14134 0.74141 0.31365 0.0
C1919 C 0.15941 0.75567 0.3111 0.0
C1920 C 0.16621 0.77494 0.31614 0.0
C1921 C 0.13331 0.72139 0.30688 0.0
C1922 C 0.12635 0.70612 0.31584 0.0
C1923 C 0.13251 0.71737 0.2916 0.0
C1924 C 0.1381 0.73274 0.28144 0.0
C1925 C 0.15161 0.73574 0.27172 0.0
C1926 C 0.15718 0.75052 0.26242 0.0
C1927 C 0.14928 0.76237 0.26273 0.0
C1928 C 0.13569 0.75936 0.27222 0.0
C1929 C 0.13 0.74453 0.28147 0.0
H1930 H 0.15366 0.77386 0.25561 0.0
H1931 H 0.08912 0.6303 0.3458 0.0
H1932 H 0.78833 0.04998 0.38308 0.0
H1933 H 0.76702 0.01874 0.36934 0.0
H1934 H 0.7948 0.99299 0.39191 0.0
H1935 H 0.81633 0.02415 0.40539 0.0
H1936 H 0.78857 0.98231 0.36271 0.0
H1937 H 0.75365 0.98657 0.40183 0.0
H1938 H 0.73932 0.00159 0.41639 0.0
H1939 H 0.70572 0.99846 0.37811 0.0
H1940 H 0.72005 0.98364 0.36328 0.0
H1941 H 0.72596 0.88277 0.35532 0.0
H1942 H 0.74623 0.9166 0.36406 0.0
H1943 H 0.71089 0.93175 0.33887 0.0
H1944 H 0.69016 0.89764 0.33021 0.0
H1945 H 0.72028 0.94959 0.36626 0.0
H1946 H 0.75286 0.94206 0.32761 0.0
H1947 H 0.76696 0.92665 0.31322 0.0
H1948 H 0.80495 0.93591 0.35032 0.0
H1949 H 0.7909 0.95113 0.36502 0.0
C1950 C 0.78995 0.03767 0.38502 0.0
C1951 C 0.80393 0.03947 0.39537 0.0
C1952 C 0.77771 0.01983 0.37724 0.0
C1953 C 0.77926 0.00354 0.3797 0.0
C1954 C 0.79335 0.00539 0.38987 0.0
C1955 C 0.80553 0.02315 0.39766 0.0
C1956 C 0.76622 0.98446 0.37178 0.0
C1957 C 0.77365 0.97509 0.36354 0.0
C1958 C 0.74671 0.97535 0.37251 0.0
C1959 C 0.73808 0.98422 0.38142 0.0
C1960 C 0.74332 0.98924 0.3965 0.0
C1961 C 0.73518 0.99769 0.4048 0.0
C1962 C 0.72166 0.00104 0.39817 0.0
C1963 C 0.71622 0.99589 0.38323 0.0
C1964 C 0.72434 0.98746 0.37487 0.0
C1965 C 0.72252 0.89325 0.3515 0.0
C1966 C 0.70648 0.88749 0.34197 0.0
C1967 C 0.73418 0.91263 0.35649 0.0
C1968 C 0.73024 0.92673 0.35193 0.0
C1969 C 0.71422 0.92108 0.34246 0.0
C1970 C 0.70243 0.90161 0.3375 0.0
C1971 C 0.74268 0.94725 0.35745 0.0
C1972 C 0.73517 0.9569 0.36522 0.0
C1973 C 0.76213 0.95666 0.35628 0.0
C1974 C 0.77073 0.94764 0.34744 0.0
C1975 C 0.76414 0.9407 0.33273 0.0
C1976 C 0.77213 0.93201 0.32452 0.0
C1977 C 0.78682 0.93027 0.33086 0.0
C1978 C 0.79357 0.93726 0.34542 0.0
C1979 C 0.78561 0.94595 0.3537 0.0
H1980 H 0.79299 0.92354 0.32448 0.0
H1981 H 0.71537 0.00758 0.40462 0.0
H1982 H 0.99375 0.80824 0.43232 0.0
H1983 H 0.02235 0.81726 0.42059 0.0
H1984 H 0.99365 0.76439 0.39209 0.0
H1985 H 0.96518 0.75489 0.40416 0.0
H1986 H 0.02783 0.77181 0.40146 0.0
H1987 H 0.00125 0.80723 0.38035 0.0
H1988 H 0.98851 0.8292 0.38062 0.0
H1989 H 0.04039 0.87518 0.40165 0.0
H1990 H 0.05336 0.85339 0.40169 0.0
H1991 H 0.08662 0.79769 0.34332 0.0
H1992 H 0.05993 0.78956 0.35756 0.0
H1993 H 0.0947 0.83853 0.38872 0.0
H1994 H 0.12156 0.84654 0.37466 0.0
H1995 H 0.05878 0.83404 0.37906 0.0
H1996 H 0.0858 0.79854 0.39873 0.0
H1997 H 0.09842 0.7765 0.39736 0.0
H1998 H 0.04537 0.7304 0.37827 0.0
H1999 H 0.03253 0.7523 0.37919 0.0
C2000 C 0.99358 0.79838 0.42371 0.0
C2001 C 0.97714 0.78088 0.41913 0.0
C2002 C 0.0099 0.80366 0.41691 0.0
C2003 C 0.01007 0.79163 0.40532 0.0
C2004 C 0.99382 0.77393 0.40097 0.0
C2005 C 0.97751 0.76861 0.40779 0.0
C2006 C 0.02704 0.79765 0.3975 0.0
C2007 C 0.03448 0.78533 0.39644 0.0
C2008 C 0.03596 0.81548 0.3912 0.0
C2009 C 0.0282 0.82862 0.39117 0.0
C2010 C 0.00989 0.82198 0.38514 0.0
C2011 C 0.00263 0.83441 0.38522 0.0
C2012 C 0.01361 0.85356 0.39118 0.0
C2013 C 0.03189 0.86033 0.39705 0.0
C2014 C 0.0392 0.84795 0.39702 0.0
C2015 C 0.08853 0.80676 0.35317 0.0
C2016 C 0.10607 0.82274 0.35791 0.0
C2017 C 0.07332 0.80208 0.3613 0.0
C2018 C 0.07542 0.81342 0.3742 0.0
C2019 C 0.09285 0.82965 0.37878 0.0
C2020 C 0.10813 0.83417 0.37077 0.0
C2021 C 0.0594 0.80814 0.38296 0.0
C2022 C 0.05216 0.82059 0.38417 0.0
C2023 C 0.05063 0.7904 0.38932 0.0
C2024 C 0.05825 0.77713 0.3889 0.0
C2025 C 0.07686 0.78375 0.39411 0.0
C2026 C 0.08405 0.77128 0.39344 0.0
C2027 C 0.07271 0.75207 0.38773 0.0
C2028 C 0.05414 0.74529 0.38268 0.0
C2029 C 0.0469 0.75773 0.38327 0.0
H2030 H 0.07831 0.74243 0.38723 0.0
H2031 H 0.00797 0.86316 0.39123 0.0
H2032 H 0.23761 0.19244 0.37384 0.0
H2033 H 0.22651 0.21109 0.3608 0.0
H2034 H 0.21948 0.23422 0.4018 0.0
H2035 H 0.23168 0.21672 0.41504 0.0
H2036 H 0.18648 0.21392 0.37672 0.0
H2037 H 0.25189 0.26391 0.38946 0.0
H2038 H 0.28568 0.27652 0.38927 0.0
H2039 H 0.2799 0.26955 0.34233 0.0
H2040 H 0.24599 0.25661 0.34228 0.0
H2041 H 0.16606 0.28678 0.36548 0.0
H2042 H 0.17746 0.2656 0.37319 0.0
H2043 H 0.20519 0.27267 0.33378 0.0
H2044 H 0.19468 0.29484 0.32632 0.0
H2045 H 0.22715 0.27457 0.35461 0.0
H2046 H 0.16359 0.22923 0.34061 0.0
H2047 H 0.12949 0.21517 0.33919 0.0
H2048 H 0.13031 0.21012 0.38541 0.0
H2049 H 0.16445 0.22442 0.38716 0.0
C2050 C 0.23413 0.2018 0.38015 0.0
C2051 C 0.23555 0.20297 0.39556 0.0
C2052 C 0.22762 0.2123 0.37265 0.0
C2053 C 0.22216 0.22389 0.38038 0.0
C2054 C 0.22356 0.2252 0.39568 0.0
C2055 C 0.23041 0.21505 0.40321 0.0
C2056 C 0.21453 0.23439 0.37257 0.0
C2057 C 0.19529 0.22725 0.37194 0.0
C2058 C 0.22604 0.25123 0.36581 0.0
C2059 C 0.24639 0.25905 0.36587 0.0
C2060 C 0.25779 0.26486 0.37911 0.0
C2061 C 0.27697 0.27212 0.37904 0.0
C2062 C 0.28493 0.27377 0.3658 0.0
C2063 C 0.27372 0.26822 0.35259 0.0
C2064 C 0.25452 0.26093 0.3526 0.0
C2065 C 0.17442 0.28367 0.35838 0.0
C2066 C 0.1794 0.29235 0.34527 0.0
C2067 C 0.18082 0.27146 0.36277 0.0
C2068 C 0.19181 0.26713 0.35396 0.0
C2069 C 0.19667 0.27568 0.34076 0.0
C2070 C 0.19062 0.2883 0.3365 0.0
C2071 C 0.19893 0.2545 0.35905 0.0
C2072 C 0.21812 0.26112 0.35915 0.0
C2073 C 0.18725 0.23688 0.36504 0.0
C2074 C 0.16664 0.22802 0.36402 0.0
C2075 C 0.15652 0.22522 0.35049 0.0
C2076 C 0.13717 0.2172 0.34962 0.0
C2077 C 0.12774 0.21177 0.3622 0.0
C2078 C 0.13763 0.21429 0.37567 0.0
C2079 C 0.15698 0.22233 0.37659 0.0
H2080 H 0.11276 0.20559 0.36152 0.0
H2081 H 0.29978 0.2794 0.36577 0.0
H2082 H 0.62781 0.54626 0.74523 0.0
H2083 H 0.65629 0.56594 0.73395 0.0
H2084 H 0.66804 0.51921 0.73256 0.0
H2085 H 0.64064 0.50012 0.74538 0.0
H2086 H 0.69878 0.55 0.73742 0.0
H2087 H 0.64732 0.52991 0.70193 0.0
H2088 H 0.61719 0.52505 0.69147 0.0
H2089 H 0.63938 0.5864 0.69488 0.0
H2090 H 0.66959 0.59163 0.70555 0.0
H2091 H 0.7598 0.58723 0.68 0.0
H2092 H 0.73182 0.56635 0.69207 0.0
H2093 H 0.72832 0.61618 0.70732 0.0
H2094 H 0.75632 0.6371 0.69544 0.0
H2095 H 0.69372 0.58282 0.69468 0.0
H2096 H 0.74868 0.59961 0.72699 0.0
H2097 H 0.77782 0.5996 0.73328 0.0
H2098 H 0.74749 0.53781 0.7324 0.0
H2099 H 0.71824 0.53726 0.72522 0.0
C2100 C 0.63661 0.54023 0.74293 0.0
C2101 C 0.63163 0.52138 0.74618 0.0
C2102 C 0.65281 0.55146 0.73619 0.0
C2103 C 0.66407 0.54389 0.73196 0.0
C2104 C 0.65951 0.52534 0.73555 0.0
C2105 C 0.64358 0.51429 0.7427 0.0
C2106 C 0.6803 0.55513 0.72348 0.0
C2107 C 0.69759 0.55694 0.72796 0.0
C2108 C 0.67881 0.5642 0.71108 0.0
C2109 C 0.66066 0.56114 0.70468 0.0
C2110 C 0.64573 0.54236 0.70055 0.0
C2111 C 0.62865 0.53954 0.69457 0.0
C2112 C 0.62636 0.55541 0.69255 0.0
C2113 C 0.64117 0.57413 0.69647 0.0
C2114 C 0.65828 0.57703 0.70248 0.0
C2115 C 0.75296 0.59366 0.68586 0.0
C2116 C 0.76016 0.61371 0.68687 0.0
C2117 C 0.73704 0.58176 0.69272 0.0
C2118 C 0.72815 0.58981 0.7006 0.0
C2119 C 0.73503 0.60977 0.70126 0.0
C2120 C 0.75102 0.62167 0.69453 0.0
C2121 C 0.71202 0.57763 0.70866 0.0
C2122 C 0.6948 0.57575 0.70411 0.0
C2123 C 0.71347 0.56784 0.72056 0.0
C2124 C 0.73117 0.56837 0.7253 0.0
C2125 C 0.74818 0.58595 0.72782 0.0
C2126 C 0.76477 0.58606 0.73154 0.0
C2127 C 0.76451 0.56874 0.73323 0.0
C2128 C 0.74767 0.55124 0.73108 0.0
C2129 C 0.73109 0.55102 0.7271 0.0
H2130 H 0.77735 0.56888 0.73624 0.0
H2131 H 0.61312 0.55319 0.68791 0.0
H2132 H 0.46345 0.08535 0.76382 0.0
H2133 H 0.44006 0.09136 0.75188 0.0
H2134 H 0.48215 0.13452 0.72805 0.0
H2135 H 0.50547 0.12803 0.7393 0.0
H2136 H 0.45795 0.14587 0.74227 0.0
H2137 H 0.45514 0.0937 0.71052 0.0
H2138 H 0.45109 0.06126 0.70538 0.0
H2139 H 0.39641 0.03558 0.72048 0.0
H2140 H 0.40026 0.06792 0.7259 0.0
H2141 H 0.40884 0.16299 0.68617 0.0
H2142 H 0.4294 0.15466 0.70005 0.0
H2143 H 0.3815 0.10601 0.71497 0.0
H2144 H 0.36088 0.11438 0.70116 0.0
H2145 H 0.40665 0.09624 0.7073 0.0
H2146 H 0.40678 0.14556 0.73779 0.0
H2147 H 0.4089 0.17687 0.7443 0.0
H2148 H 0.46597 0.20663 0.73423 0.0
H2149 H 0.46407 0.17547 0.72742 0.0
C2150 C 0.46775 0.09595 0.7559 0.0
C2151 C 0.48645 0.10619 0.75256 0.0
C2152 C 0.45436 0.09946 0.74918 0.0
C2153 C 0.45942 0.11339 0.73912 0.0
C2154 C 0.47802 0.12381 0.73589 0.0
C2155 C 0.49136 0.12013 0.74242 0.0
C2156 C 0.44531 0.11699 0.73174 0.0
C2157 C 0.44684 0.13512 0.73451 0.0
C2158 C 0.4304 0.10265 0.72209 0.0
C2159 C 0.42807 0.08323 0.71877 0.0
C2160 C 0.44232 0.08115 0.71287 0.0
C2161 C 0.44005 0.06278 0.70988 0.0
C2162 C 0.42353 0.04637 0.71265 0.0
C2163 C 0.40922 0.0483 0.71837 0.0
C2164 C 0.41143 0.06664 0.72139 0.0
C2165 C 0.40272 0.15052 0.6924 0.0
C2166 C 0.38332 0.13935 0.69265 0.0
C2167 C 0.41446 0.14581 0.70037 0.0
C2168 C 0.40698 0.12988 0.70873 0.0
C2169 C 0.38756 0.11844 0.70869 0.0
C2170 C 0.37582 0.12323 0.70081 0.0
C2171 C 0.41953 0.12533 0.71755 0.0
C2172 C 0.41769 0.107 0.71511 0.0
C2173 C 0.4339 0.13934 0.72777 0.0
C2174 C 0.43523 0.15816 0.73197 0.0
C2175 C 0.41974 0.15878 0.73686 0.0
C2176 C 0.42091 0.1765 0.74062 0.0
C2177 C 0.43756 0.19373 0.73965 0.0
C2178 C 0.45308 0.19327 0.73496 0.0
C2179 C 0.45197 0.17557 0.73116 0.0
H2180 H 0.43844 0.20744 0.74256 0.0
H2181 H 0.42179 0.03216 0.71032 0.0
H2182 H 0.89538 0.3861 0.70866 0.0
H2183 H 0.8854 0.35333 0.69818 0.0
H2184 H 0.90477 0.34146 0.73861 0.0
H2185 H 0.91481 0.37416 0.74912 0.0
H2186 H 0.91398 0.32701 0.71599 0.0
H2187 H 0.85873 0.32545 0.73046 0.0
H2188 H 0.83547 0.33596 0.73143 0.0
H2189 H 0.8225 0.32303 0.68497 0.0
H2190 H 0.84589 0.3127 0.68369 0.0
H2191 H 0.83489 0.22037 0.69688 0.0
H2192 H 0.84571 0.25333 0.70725 0.0
H2193 H 0.88906 0.27525 0.67782 0.0
H2194 H 0.87856 0.24234 0.66757 0.0
H2195 H 0.84818 0.28416 0.69596 0.0
H2196 H 0.92761 0.3143 0.69494 0.0
H2197 H 0.94987 0.30241 0.69622 0.0
H2198 H 0.91281 0.25581 0.72019 0.0
H2199 H 0.89046 0.26757 0.71922 0.0
C2200 C 0.8975 0.37648 0.71531 0.0
C2201 C 0.90583 0.38268 0.72973 0.0
C2202 C 0.8918 0.35779 0.70931 0.0
C2203 C 0.89415 0.34489 0.71768 0.0
C2204 C 0.90287 0.35119 0.73195 0.0
C2205 C 0.90864 0.3699 0.73792 0.0
C2206 C 0.88716 0.32469 0.7117 0.0
C2207 C 0.89961 0.31766 0.71157 0.0
C2208 C 0.86831 0.31236 0.70622 0.0
C2209 C 0.85419 0.31848 0.70696 0.0
C2210 C 0.85102 0.32499 0.72043 0.0
C2211 C 0.8378 0.33089 0.72104 0.0
C2212 C 0.82755 0.33021 0.70826 0.0
C2213 C 0.83047 0.32358 0.69485 0.0
C2214 C 0.84369 0.31768 0.69418 0.0
C2215 C 0.84668 0.23221 0.69257 0.0
C2216 C 0.85589 0.22873 0.68143 0.0
C2217 C 0.85282 0.25102 0.6985 0.0
C2218 C 0.86828 0.26671 0.6934 0.0
C2219 C 0.87728 0.26332 0.68208 0.0
C2220 C 0.87122 0.2445 0.6762 0.0
C2221 C 0.87508 0.28659 0.70004 0.0
C2222 C 0.86258 0.29355 0.7003 0.0
C2223 C 0.89377 0.29869 0.70597 0.0
C2224 C 0.90729 0.29173 0.70688 0.0
C2225 C 0.92426 0.30158 0.70054 0.0
C2226 C 0.93688 0.29485 0.7012 0.0
C2227 C 0.93273 0.27833 0.70824 0.0
C2228 C 0.91598 0.26856 0.71469 0.0
C2229 C 0.90332 0.27524 0.71408 0.0
H2230 H 0.94251 0.27313 0.70872 0.0
H2231 H 0.81732 0.33479 0.70876 0.0
H2232 H 0.20593 0.94613 0.6073 0.0
H2233 H 0.22931 0.97824 0.61828 0.0
H2234 H 0.19156 0.99926 0.6085 0.0
H2235 H 0.16857 0.96754 0.59669 0.0
H2236 H 0.22457 0.02424 0.60202 0.0
H2237 H 0.20023 0.98941 0.64365 0.0
H2238 H 0.19126 0.96287 0.6595 0.0
H2239 H 0.2481 0.97579 0.66509 0.0
H2240 H 0.25737 0.00227 0.64911 0.0
H2241 H 0.27261 0.1122 0.64694 0.0
H2242 H 0.24933 0.07966 0.63677 0.0
H2243 H 0.28889 0.06045 0.64475 0.0
H2244 H 0.31213 0.09292 0.65543 0.0
H2245 H 0.25533 0.03463 0.65201 0.0
H2246 H 0.2789 0.07146 0.61024 0.0
H2247 H 0.28624 0.09931 0.5961 0.0
H2248 H 0.22844 0.08316 0.59195 0.0
H2249 H 0.22079 0.05542 0.60626 0.0
C2250 C 0.20264 0.95761 0.60736 0.0
C2251 C 0.18532 0.9542 0.60112 0.0
C2252 C 0.21596 0.97593 0.61381 0.0
C2253 C 0.21211 0.99112 0.61439 0.0
C2254 C 0.19483 0.98775 0.60822 0.0
C2255 C 0.18159 0.96951 0.60162 0.0
C2256 C 0.2262 0.01063 0.62118 0.0
C2257 C 0.23114 0.02652 0.61301 0.0
C2258 C 0.23499 0.01361 0.63544 0.0
C2259 C 0.22946 0.99769 0.64506 0.0
C2260 C 0.21079 0.98649 0.64817 0.0
C2261 C 0.20566 0.97148 0.65719 0.0
C2262 C 0.21909 0.96761 0.66326 0.0
C2263 C 0.2377 0.97879 0.66036 0.0
C2264 C 0.24291 0.99381 0.65132 0.0
C2265 C 0.27638 0.10106 0.64655 0.0
C2266 C 0.29425 0.10515 0.6519 0.0
C2267 C 0.26307 0.08247 0.64068 0.0
C2268 C 0.2675 0.06772 0.63972 0.0
C2269 C 0.28522 0.07165 0.64532 0.0
C2270 C 0.29847 0.09021 0.6514 0.0
C2271 C 0.25367 0.04819 0.63285 0.0
C2272 C 0.2488 0.0323 0.64099 0.0
C2273 C 0.24475 0.04526 0.61864 0.0
C2274 C 0.2493 0.06145 0.60945 0.0
C2275 C 0.26776 0.07388 0.60634 0.0
C2276 C 0.27198 0.08966 0.59831 0.0
C2277 C 0.25782 0.09306 0.59323 0.0
C2278 C 0.23939 0.08054 0.59596 0.0
C2279 C 0.23511 0.06478 0.60401 0.0
H2280 H 0.26108 0.1054 0.58719 0.0
H2281 H 0.21509 0.95598 0.67025 0.0
H2282 H 0.05226 0.229 0.61502 0.0
H2283 H 0.02207 0.21882 0.62444 0.0
H2284 H 0.01033 0.25001 0.59282 0.0
H2285 H 0.04034 0.25994 0.5831 0.0
H2286 H 0.00064 0.25517 0.62049 0.0
H2287 H 0.99096 0.20283 0.58639 0.0
H2288 H 0.99754 0.17821 0.57573 0.0
H2289 H 0.98782 0.15161 0.61609 0.0
H2290 H 0.98145 0.17626 0.62706 0.0
H2291 H 0.90343 0.21122 0.62778 0.0
H2292 H 0.9336 0.22259 0.61785 0.0
H2293 H 0.94567 0.18857 0.64651 0.0
H2294 H 0.91544 0.17705 0.65637 0.0
H2295 H 0.95501 0.18512 0.61967 0.0
H2296 H 0.96532 0.23748 0.65408 0.0
H2297 H 0.95897 0.26211 0.66508 0.0
H2298 H 0.96776 0.2887 0.62474 0.0
H2299 H 0.97392 0.26405 0.61344 0.0
C2300 C 0.04324 0.23364 0.61001 0.0
C2301 C 0.04869 0.24517 0.59822 0.0
C2302 C 0.02602 0.22786 0.61545 0.0
C2303 C 0.01389 0.23349 0.60921 0.0
C2304 C 0.0195 0.24553 0.59778 0.0
C2305 C 0.03671 0.25125 0.59229 0.0
C2306 C 0.99517 0.22639 0.61439 0.0
C2307 C 0.99055 0.23987 0.62015 0.0
C2308 C 0.98218 0.20641 0.61418 0.0
C2309 C 0.98591 0.19151 0.60759 0.0
C2310 C 0.99038 0.19183 0.59303 0.0
C2311 C 0.99404 0.17785 0.58693 0.0
C2312 C 0.99315 0.16338 0.59524 0.0
C2313 C 0.98853 0.16284 0.60967 0.0
C2314 C 0.98488 0.1768 0.61583 0.0
C2315 C 0.91255 0.20619 0.63195 0.0
C2316 C 0.90722 0.19335 0.64288 0.0
C2317 C 0.9298 0.21276 0.62633 0.0
C2318 C 0.942 0.20663 0.63158 0.0
C2319 C 0.93649 0.1935 0.64231 0.0
C2320 C 0.91927 0.18697 0.64796 0.0
C2321 C 0.96051 0.21389 0.62592 0.0
C2322 C 0.96507 0.20043 0.62003 0.0
C2323 C 0.97347 0.23389 0.62607 0.0
C2324 C 0.9699 0.2488 0.63287 0.0
C2325 C 0.96576 0.24849 0.64752 0.0
C2326 C 0.96222 0.26247 0.65382 0.0
C2327 C 0.96291 0.27693 0.6456 0.0
C2328 C 0.96721 0.27747 0.63108 0.0
C2329 C 0.97074 0.26351 0.62473 0.0
H2330 H 0.96016 0.28774 0.65049 0.0
H2331 H 0.99599 0.15257 0.59049 0.0
H2332 H 0.73713 0.77856 0.60661 0.0
H2333 H 0.74647 0.75615 0.61543 0.0
H2334 H 0.80328 0.79529 0.60697 0.0
H2335 H 0.79391 0.81727 0.59744 0.0
H2336 H 0.79387 0.75998 0.5975 0.0
H2337 H 0.78887 0.79028 0.64209 0.0
H2338 H 0.77354 0.80098 0.65952 0.0
H2339 H 0.73077 0.74211 0.66188 0.0
H2340 H 0.74571 0.73107 0.6443 0.0
H2341 H 0.83738 0.71883 0.64024 0.0
H2342 H 0.82729 0.73941 0.62932 0.0
H2343 H 0.77028 0.69886 0.63625 0.0
H2344 H 0.78041 0.67851 0.64792 0.0
H2345 H 0.77963 0.73453 0.64599 0.0
H2346 H 0.77965 0.71027 0.59228 0.0
H2347 H 0.79454 0.70169 0.57295 0.0
H2348 H 0.84787 0.75003 0.58904 0.0
H2349 H 0.83309 0.75944 0.60795 0.0
C2350 C 0.75159 0.78234 0.60652 0.0
C2351 C 0.76477 0.79977 0.60134 0.0
C2352 C 0.75695 0.76961 0.61173 0.0
C2353 C 0.77563 0.77414 0.61203 0.0
C2354 C 0.7888 0.79151 0.60689 0.0
C2355 C 0.78344 0.80417 0.60159 0.0
C2356 C 0.78142 0.7606 0.61736 0.0
C2357 C 0.79091 0.7546 0.60819 0.0
C2358 C 0.77731 0.75327 0.63118 0.0
C2359 C 0.76831 0.75987 0.64177 0.0
C2360 C 0.77612 0.77963 0.64624 0.0
C2361 C 0.76751 0.78575 0.65616 0.0
C2362 C 0.75116 0.77224 0.66178 0.0
C2363 C 0.74341 0.75256 0.65751 0.0
C2364 C 0.75196 0.74636 0.64757 0.0
C2365 C 0.82264 0.7141 0.63929 0.0
C2366 C 0.80971 0.69703 0.64504 0.0
C2367 C 0.81685 0.7258 0.6328 0.0
C2368 C 0.79795 0.72048 0.63156 0.0
C2369 C 0.78493 0.7032 0.63698 0.0
C2370 C 0.79075 0.6916 0.64368 0.0
C2371 C 0.79203 0.73389 0.62611 0.0
C2372 C 0.7825 0.73987 0.63529 0.0
C2373 C 0.79627 0.74141 0.61238 0.0
C2374 C 0.80539 0.73517 0.60175 0.0
C2375 C 0.79457 0.71894 0.59174 0.0
C2376 C 0.80295 0.71409 0.58076 0.0
C2377 C 0.82217 0.72515 0.57989 0.0
C2378 C 0.83301 0.74135 0.58981 0.0
C2379 C 0.82462 0.74655 0.60057 0.0
H2380 H 0.82865 0.72123 0.57148 0.0
H2381 H 0.74452 0.77701 0.66946 0.0
H2382 H 0.03774 0.7841 0.59938 0.0
H2383 H 0.00827 0.76527 0.61014 0.0
H2384 H 0.98716 0.79939 0.59108 0.0
H2385 H 0.01676 0.81856 0.58055 0.0
H2386 H 0.98113 0.79556 0.61971 0.0
H2387 H 0.97209 0.75438 0.577 0.0
H2388 H 0.9794 0.73536 0.55941 0.0
H2389 H 0.9782 0.69944 0.59277 0.0
H2390 H 0.97125 0.71849 0.61066 0.0
H2391 H 0.88909 0.73558 0.63986 0.0
H2392 H 0.91589 0.754 0.62596 0.0
H2393 H 0.94002 0.72015 0.64022 0.0
H2394 H 0.91293 0.70129 0.65368 0.0
H2395 H 0.94301 0.7241 0.61214 0.0
H2396 H 0.95549 0.76737 0.65536 0.0
H2397 H 0.94832 0.78641 0.6731 0.0
H2398 H 0.9432 0.8182 0.63881 0.0
H2399 H 0.95012 0.79918 0.62085 0.0
C2400 C 0.02683 0.7876 0.5975 0.0
C2401 C 0.02955 0.8028 0.58913 0.0
C2402 C 0.00996 0.77674 0.60354 0.0
C2403 C 0.9955 0.78084 0.60128 0.0
C2404 C 0.99814 0.79596 0.59289 0.0
C2405 C 0.01498 0.80679 0.58681 0.0
C2406 C 0.97789 0.76982 0.60817 0.0
C2407 C 0.97263 0.77995 0.6179 0.0
C2408 C 0.96702 0.74945 0.60596 0.0
C2409 C 0.97135 0.73803 0.59523 0.0
C2410 C 0.97363 0.7426 0.58065 0.0
C2411 C 0.97767 0.73177 0.57061 0.0
C2412 C 0.97932 0.71624 0.57498 0.0
C2413 C 0.97693 0.71149 0.58941 0.0
C2414 C 0.97294 0.72229 0.5995 0.0
C2415 C 0.90022 0.73223 0.64011 0.0
C2416 C 0.89911 0.71719 0.64792 0.0
C2417 C 0.91551 0.74275 0.63218 0.0
C2418 C 0.93008 0.73861 0.63218 0.0
C2419 C 0.92895 0.72359 0.64005 0.0
C2420 C 0.91356 0.71292 0.64781 0.0
C2421 C 0.9465 0.7498 0.62397 0.0
C2422 C 0.95149 0.73971 0.61393 0.0
C2423 C 0.95719 0.77021 0.62593 0.0
C2424 C 0.95314 0.78172 0.63675 0.0
C2425 C 0.95271 0.77833 0.6516 0.0
C2426 C 0.94871 0.78913 0.66169 0.0
C2427 C 0.94526 0.80347 0.65708 0.0
C2428 C 0.94585 0.80707 0.64237 0.0
C2429 C 0.94983 0.7963 0.63223 0.0
H2430 H 0.94216 0.81181 0.66491 0.0
H2431 H 0.9824 0.70785 0.56718 0.0
H2432 H 0.1682 0.19917 0.58239 0.0
H2433 H 0.18803 0.187 0.59233 0.0
H2434 H 0.23469 0.24518 0.59896 0.0
H2435 H 0.21479 0.25746 0.58942 0.0
H2436 H 0.23964 0.21104 0.5848 0.0
H2437 H 0.21876 0.23382 0.62665 0.0
H2438 H 0.19405 0.2343 0.64011 0.0
H2439 H 0.16717 0.17282 0.64157 0.0
H2440 H 0.1916 0.17197 0.6279 0.0
H2441 H 0.30606 0.20815 0.63374 0.0
H2442 H 0.28492 0.21568 0.61994 0.0
H2443 H 0.2377 0.16448 0.63296 0.0
H2444 H 0.2589 0.15739 0.6473 0.0
H2445 H 0.23096 0.19213 0.63554 0.0
H2446 H 0.25182 0.16789 0.59727 0.0
H2447 H 0.27416 0.16429 0.58264 0.0
H2448 H 0.29811 0.2232 0.57258 0.0
H2449 H 0.27608 0.22725 0.5873 0.0
C2450 C 0.18274 0.2093 0.58584 0.0
C2451 C 0.19002 0.22922 0.58522 0.0
C2452 C 0.19401 0.20235 0.59148 0.0
C2453 C 0.21277 0.21522 0.59629 0.0
C2454 C 0.22025 0.23506 0.5952 0.0
C2455 C 0.20889 0.24205 0.58986 0.0
C2456 C 0.22424 0.20815 0.6035 0.0
C2457 C 0.23794 0.20704 0.59593 0.0
C2458 C 0.22139 0.20224 0.61777 0.0
C2459 C 0.20686 0.20281 0.62611 0.0
C2460 C 0.20748 0.22039 0.62971 0.0
C2461 C 0.19355 0.22074 0.63741 0.0
C2462 C 0.17902 0.2036 0.64165 0.0
C2463 C 0.17842 0.18608 0.63825 0.0
C2464 C 0.1923 0.18566 0.63054 0.0
C2465 C 0.29116 0.19853 0.63365 0.0
C2466 C 0.28406 0.18225 0.6416 0.0
C2467 C 0.27908 0.20272 0.62564 0.0
C2468 C 0.25968 0.19047 0.62518 0.0
C2469 C 0.2526 0.17413 0.63312 0.0
C2470 C 0.26469 0.17009 0.6413 0.0
C2471 C 0.24683 0.19526 0.617 0.0
C2472 C 0.23274 0.19593 0.62437 0.0
C2473 C 0.24906 0.20028 0.6024 0.0
C2474 C 0.26236 0.19792 0.5935 0.0
C2475 C 0.26194 0.18013 0.59203 0.0
C2476 C 0.27453 0.178 0.58371 0.0
C2477 C 0.28755 0.19352 0.57671 0.0
C2478 C 0.28801 0.21119 0.57801 0.0
C2479 C 0.27545 0.21341 0.58633 0.0
H2480 H 0.29724 0.19185 0.57025 0.0
H2481 H 0.16825 0.20389 0.6476 0.0
H2482 H 0.79915 0.9723 0.5948 0.0
H2483 H 0.80954 0.00496 0.60566 0.0
H2484 H 0.75567 0.98514 0.62179 0.0
H2485 H 0.74506 0.95243 0.6107 0.0
H2486 H 0.76817 0.01902 0.60862 0.0
H2487 H 0.79167 0.99383 0.64491 0.0
H2488 H 0.80876 0.97817 0.65414 0.0
H2489 H 0.85961 0.0237 0.64046 0.0
H2490 H 0.84277 0.0395 0.63095 0.0
H2491 H 0.79295 0.10094 0.65782 0.0
H2492 H 0.78278 0.06807 0.64769 0.0
H2493 H 0.83617 0.08775 0.63074 0.0
H2494 H 0.84655 0.12072 0.64088 0.0
H2495 H 0.82389 0.05395 0.64447 0.0
H2496 H 0.80076 0.07918 0.60817 0.0
H2497 H 0.78406 0.09528 0.59906 0.0
H2498 H 0.73286 0.04997 0.61246 0.0
H2499 H 0.74935 0.03377 0.62192 0.0
C2500 C 0.78949 0.97491 0.6006 0.0
C2501 C 0.77129 0.95982 0.6019 0.0
C2502 C 0.79549 0.99354 0.60689 0.0
C2503 C 0.78341 0.99741 0.61461 0.0
C2504 C 0.76521 0.98241 0.61589 0.0
C2505 C 0.75922 0.96374 0.60966 0.0
C2506 C 0.78977 0.01721 0.6212 0.0
C2507 C 0.78018 0.02657 0.61662 0.0
C2508 C 0.80574 0.02719 0.63134 0.0
C2509 C 0.81592 0.01775 0.63709 0.0
C2510 C 0.80647 0.00042 0.64375 0.0
C2511 C 0.81612 0.99153 0.64906 0.0
C2512 C 0.83525 -9e-05 0.64786 0.0
C2513 C 0.84478 0.01721 0.64137 0.0
C2514 C 0.8352 0.02615 0.63603 0.0
C2515 C 0.80258 0.09831 0.65198 0.0
C2516 C 0.82056 0.11348 0.65013 0.0
C2517 C 0.79671 0.07952 0.64617 0.0
C2518 C 0.80868 0.07555 0.63839 0.0
C2519 C 0.82673 0.09056 0.63671 0.0
C2520 C 0.83259 0.10939 0.64246 0.0
C2521 C 0.80226 0.05571 0.63191 0.0
C2522 C 0.81186 0.04638 0.63649 0.0
C2523 C 0.78635 0.04578 0.62173 0.0
C2524 C 0.77633 0.05536 0.61589 0.0
C2525 C 0.78597 0.07272 0.60929 0.0
C2526 C 0.77654 0.08186 0.60404 0.0
C2527 C 0.75742 0.07367 0.60521 0.0
C2528 C 0.74768 0.05631 0.61159 0.0
C2529 C 0.75706 0.04714 0.61689 0.0
H2530 H 0.75014 0.08076 0.60114 0.0
H2531 H 0.8427 0.99301 0.65197 0.0
H2532 H 0.49667 0.36827 0.72566 0.0
H2533 H 0.47485 0.33587 0.71398 0.0
H2534 H 0.42914 0.33889 0.73178 0.0
H2535 H 0.45122 0.37083 0.74416 0.0
H2536 H 0.4241 0.30582 0.73495 0.0
H2537 H 0.43838 0.34316 0.69409 0.0
H2538 H 0.45805 0.36637 0.67724 0.0
H2539 H 0.48113 0.33044 0.66594 0.0
H2540 H 0.46177 0.30713 0.68288 0.0
H2541 H 0.35336 0.22909 0.68446 0.0
H2542 H 0.37568 0.26181 0.69533 0.0
H2543 H 0.4196 0.24791 0.69614 0.0
H2544 H 0.39725 0.21492 0.68562 0.0
H2545 H 0.42499 0.28582 0.68315 0.0
H2546 H 0.40737 0.24783 0.72521 0.0
H2547 H 0.38415 0.22512 0.74052 0.0
H2548 H 0.36341 0.26407 0.7479 0.0
H2549 H 0.38617 0.28678 0.73229 0.0
C2550 C 0.48193 0.36199 0.72692 0.0
C2551 C 0.4755 0.37191 0.73567 0.0
C2552 C 0.46944 0.34355 0.72021 0.0
C2553 C 0.45025 0.33499 0.72177 0.0
C2554 C 0.44385 0.34513 0.7304 0.0
C2555 C 0.4564 0.36337 0.7374 0.0
C2556 C 0.43694 0.31521 0.71489 0.0
C2557 C 0.42421 0.30161 0.72356 0.0
C2558 C 0.43706 0.3095 0.70005 0.0
C2559 C 0.44876 0.3235 0.68987 0.0
C2560 C 0.44776 0.34028 0.6881 0.0
C2561 C 0.45883 0.35344 0.67852 0.0
C2562 C 0.47087 0.3499 0.67056 0.0
C2563 C 0.47182 0.33317 0.67213 0.0
C2564 C 0.46078 0.31997 0.68171 0.0
C2565 C 0.36779 0.23302 0.6869 0.0
C2566 C 0.37361 0.2195 0.68419 0.0
C2567 C 0.38047 0.25165 0.69312 0.0
C2568 C 0.39919 0.25713 0.69649 0.0
C2569 C 0.40516 0.24384 0.69357 0.0
C2570 C 0.3924 0.22504 0.68763 0.0
C2571 C 0.41247 0.27675 0.70324 0.0
C2572 C 0.42507 0.29022 0.69452 0.0
C2573 C 0.41185 0.28249 0.71789 0.0
C2574 C 0.39833 0.2689 0.72742 0.0
C2575 C 0.39771 0.25145 0.72994 0.0
C2576 C 0.38464 0.23859 0.7387 0.0
C2577 C 0.37228 0.24314 0.74514 0.0
C2578 C 0.37297 0.26056 0.74287 0.0
C2579 C 0.38594 0.27341 0.73406 0.0
H2580 H 0.36218 0.23321 0.75194 0.0
H2581 H 0.47943 0.36011 0.66314 0.0
H2582 H 0.6524 0.10536 0.76572 0.0
H2583 H 0.6808 0.11354 0.75393 0.0
H2584 H 0.66477 0.14009 0.72094 0.0
H2585 H 0.63628 0.13185 0.73266 0.0
H2586 H 0.67619 0.11745 0.70882 0.0
H2587 H 0.69929 0.16706 0.74873 0.0
H2588 H 0.70455 0.18024 0.77447 0.0
H2589 H 0.7339 0.15045 0.78526 0.0
H2590 H 0.72855 0.13684 0.75961 0.0
H2591 H 0.76192 0.16594 0.67741 0.0
H2592 H 0.73462 0.159 0.69045 0.0
H2593 H 0.7507 0.13078 0.72196 0.0
H2594 H 0.77818 0.13789 0.709 0.0
H2595 H 0.7395 0.15402 0.73505 0.0
H2596 H 0.71623 0.10422 0.69541 0.0
H2597 H 0.71117 0.091 0.66969 0.0
H2598 H 0.68225 0.1211 0.65852 0.0
H2599 H 0.68737 0.13472 0.68415 0.0
C2600 C 0.65504 0.11314 0.75605 0.0
C2601 C 0.64213 0.11801 0.75014 0.0
C2602 C 0.67128 0.11781 0.74932 0.0
C2603 C 0.67502 0.12762 0.73664 0.0
C2604 C 0.66216 0.1325 0.73071 0.0
C2605 C 0.64587 0.12775 0.73739 0.0
C2606 C 0.69208 0.13232 0.7293 0.0
C2607 C 0.69005 0.12569 0.71451 0.0
C2608 C 0.71013 0.1426 0.73683 0.0
C2609 C 0.71334 0.15076 0.75227 0.0
C2610 C 0.70672 0.16318 0.75661 0.0
C2611 C 0.70974 0.17075 0.77118 0.0
C2612 C 0.71951 0.16614 0.7815 0.0
C2613 C 0.72631 0.15398 0.77726 0.0
C2614 C 0.72329 0.14634 0.7627 0.0
C2615 C 0.7596 0.15824 0.68711 0.0
C2616 C 0.77199 0.15227 0.69215 0.0
C2617 C 0.74401 0.15425 0.69453 0.0
C2618 C 0.7405 0.14414 0.70705 0.0
C2619 C 0.75312 0.13853 0.71228 0.0
C2620 C 0.76872 0.1425 0.70484 0.0
C2621 C 0.72356 0.13926 0.71459 0.0
C2622 C 0.72562 0.1458 0.72939 0.0
C2623 C 0.70552 0.12887 0.70709 0.0
C2624 C 0.70234 0.12064 0.69168 0.0
C2625 C 0.70892 0.10814 0.68745 0.0
C2626 C 0.70602 0.10056 0.67289 0.0
C2627 C 0.69643 0.10525 0.66247 0.0
C2628 C 0.68969 0.1175 0.6666 0.0
C2629 C 0.69257 0.12514 0.68114 0.0
H2630 H 0.6942 0.09936 0.6512 0.0
H2631 H 0.72184 0.17203 0.79278 0.0
H2632 H 0.87173 0.52094 0.74307 0.0
H2633 H 0.86162 0.54182 0.73237 0.0
H2634 H 0.91587 0.57595 0.71693 0.0
H2635 H 0.92624 0.55531 0.72792 0.0
H2636 H 0.90289 0.5984 0.72963 0.0
H2637 H 0.88042 0.54447 0.69344 0.0
H2638 H 0.86375 0.51002 0.68422 0.0
H2639 H 0.81238 0.50416 0.69718 0.0
H2640 H 0.82881 0.53853 0.70667 0.0
H2641 H 0.87734 0.64746 0.67937 0.0
H2642 H 0.88833 0.62746 0.69037 0.0
H2643 H 0.83461 0.59275 0.70644 0.0
H2644 H 0.82342 0.6126 0.69546 0.0
H2645 H 0.84769 0.5708 0.69321 0.0
H2646 H 0.86983 0.62438 0.72948 0.0
H2647 H 0.88617 0.65882 0.73868 0.0
H2648 H 0.9378 0.66533 0.72576 0.0
H2649 H 0.92169 0.63097 0.71626 0.0
C2650 C 0.88156 0.53298 0.7375 0.0
C2651 C 0.89978 0.53649 0.73633 0.0
C2652 C 0.87572 0.5448 0.7313 0.0
C2653 C 0.88796 0.56031 0.72375 0.0
C2654 C 0.90622 0.56401 0.72269 0.0
C2655 C 0.91206 0.55213 0.72886 0.0
C2656 C 0.88161 0.57261 0.71697 0.0
C2657 C 0.891 0.59244 0.7215 0.0
C2658 C 0.86581 0.56469 0.70664 0.0
C2659 C 0.85588 0.54403 0.7009 0.0
C2660 C 0.8656 0.5358 0.69444 0.0
C2661 C 0.85619 0.51629 0.68914 0.0
C2662 C 0.83702 0.5049 0.69015 0.0
C2663 C 0.82723 0.513 0.69642 0.0
C2664 C 0.83658 0.5325 0.70175 0.0
C2665 C 0.86784 0.63559 0.68525 0.0
C2666 C 0.84949 0.63161 0.68651 0.0
C2667 C 0.87418 0.62423 0.69157 0.0
C2668 C 0.8623 0.60872 0.69928 0.0
C2669 C 0.84397 0.60466 0.70052 0.0
C2670 C 0.83764 0.61606 0.69427 0.0
C2671 C 0.86895 0.59657 0.70589 0.0
C2672 C 0.85961 0.57677 0.70132 0.0
C2673 C 0.88475 0.60451 0.71621 0.0
C2674 C 0.89452 0.62514 0.72202 0.0
C2675 C 0.88464 0.63319 0.72849 0.0
C2676 C 0.89386 0.65269 0.73378 0.0
C2677 C 0.91301 0.66427 0.73277 0.0
C2678 C 0.92297 0.65634 0.72651 0.0
C2679 C 0.9138 0.63685 0.72118 0.0
H2680 H 0.92013 0.67936 0.73687 0.0
H2681 H 0.82976 0.4898 0.68604 0.0
H2682 H 0.49139 0.99687 0.16336 0.0
H2683 H 0.4969 0.00829 0.13895 0.0
H2684 H 0.4627 0.94962 0.11955 0.0
H2685 H 0.45754 0.93817 0.14389 0.0
H2686 H 0.49345 0.96649 0.10694 0.0
H2687 H 0.44787 0.9836 0.11981 0.0
H2688 H 0.43454 0.99911 0.13505 0.0
H2689 H 0.48191 0.05484 0.13077 0.0
H2690 H 0.49564 0.03963 0.11566 0.0
H2691 H 0.48153 0.98051 0.03428 0.0
H2692 H 0.47489 0.97358 0.05938 0.0
H2693 H 0.5138 0.03321 0.07428 0.0
H2694 H 0.51984 0.04049 0.04884 0.0
H2695 H 0.48271 0.01798 0.08961 0.0
H2696 H 0.52719 0.99954 0.0754 0.0
H2697 H 0.53856 0.98296 0.05914 0.0
H2698 H 0.49104 0.92819 0.06535 0.0
H2699 H 0.47924 0.94446 0.0815 0.0
C2700 C 0.4849 0.98647 0.15386 0.0
C2701 C 0.4741 0.96664 0.15549 0.0
C2702 C 0.48802 0.993 0.13993 0.0
C2703 C 0.48011 0.97983 0.1274 0.0
C2704 C 0.46902 0.96005 0.12905 0.0
C2705 C 0.46609 0.95352 0.14294 0.0
C2706 C 0.48396 0.98642 0.11254 0.0
C2707 C 0.49089 0.97761 0.10313 0.0
C2708 C 0.48111 0.00129 0.10766 0.0
C2709 C 0.47288 0.01046 0.11674 0.0
C2710 C 0.45552 0.99915 0.12222 0.0
C2711 C 0.44788 0.00789 0.13081 0.0
C2712 C 0.4574 0.02794 0.13391 0.0
C2713 C 0.47456 0.0393 0.12838 0.0
C2714 C 0.48228 0.03064 0.11979 0.0
C2715 C 0.48836 0.99228 0.04283 0.0
C2716 C 0.50117 0.01106 0.03961 0.0
C2717 C 0.48469 0.98825 0.0572 0.0
C2718 C 0.49415 0.00279 0.06872 0.0
C2719 C 0.50643 0.02177 0.06554 0.0
C2720 C 0.50992 0.02589 0.05105 0.0
C2721 C 0.49183 0.99779 0.08403 0.0
C2722 C 0.48533 0.00695 0.09351 0.0
C2723 C 0.4949 0.9831 0.08898 0.0
C2724 C 0.50229 0.97325 0.0796 0.0
C2725 C 0.51913 0.98397 0.07326 0.0
C2726 C 0.52565 0.97462 0.06405 0.0
C2727 C 0.51551 0.95453 0.06119 0.0
C2728 C 0.49887 0.94374 0.06758 0.0
C2729 C 0.49228 0.95302 0.07678 0.0
H2730 H 0.52053 0.94729 0.05406 0.0
H2731 H 0.45145 0.03468 0.14056 0.0
H2732 H 0.03248 0.53599 0.16361 0.0
H2733 H 0.02035 0.53005 0.13795 0.0
H2734 H 0.02514 0.47889 0.13359 0.0
H2735 H 0.03763 0.48496 0.15928 0.0
H2736 H 0.03972 0.50212 0.11125 0.0
H2737 H 0.98303 0.47422 0.13475 0.0
H2738 H 0.96146 0.47334 0.15252 0.0
H2739 H 0.96041 0.52099 0.13427 0.0
H2740 H 0.9822 0.52233 0.11651 0.0
H2741 H 0.98891 0.46982 0.04052 0.0
H2742 H 0.99758 0.47057 0.06657 0.0
H2743 H 0.99758 0.52402 0.07504 0.0
H2744 H 0.98951 0.52363 0.04903 0.0
H2745 H 0.97932 0.49705 0.09527 0.0
H2746 H 0.03642 0.52565 0.07225 0.0
H2747 H 0.05771 0.52661 0.05421 0.0
H2748 H 0.05886 0.47877 0.07203 0.0
H2749 H 0.03696 0.47697 0.08972 0.0
C2750 C 0.03097 0.52348 0.15718 0.0
C2751 C 0.03604 0.51096 0.16343 0.0
C2752 C 0.0239 0.52003 0.14256 0.0
C2753 C 0.02171 0.50395 0.13392 0.0
C2754 C 0.02668 0.49135 0.14012 0.0
C2755 C 0.03368 0.49475 0.15479 0.0
C2756 C 0.01477 0.50073 0.11828 0.0
C2757 C 0.02635 0.50063 0.10774 0.0
C2758 C 0.99754 0.49929 0.11375 0.0
C2759 C 0.98438 0.49847 0.12438 0.0
C2760 C 0.97832 0.48461 0.1346 0.0
C2761 C 0.96603 0.48401 0.14466 0.0
C2762 C 0.9596 0.49713 0.14454 0.0
C2763 C 0.96542 0.51084 0.13435 0.0
C2764 C 0.97772 0.51152 0.12427 0.0
C2765 C 0.99101 0.48182 0.04793 0.0
C2766 C 0.98891 0.49684 0.04278 0.0
C2767 C 0.99577 0.48215 0.06279 0.0
C2768 C 0.99829 0.49741 0.07267 0.0
C2769 C 0.99564 0.51211 0.06757 0.0
C2770 C 0.99109 0.51188 0.05273 0.0
C2771 C 0.00428 0.49847 0.08828 0.0
C2772 C 0.99257 0.49828 0.09879 0.0
C2773 C 0.02143 0.49975 0.09278 0.0
C2774 C 0.03477 0.50096 0.08217 0.0
C2775 C 0.04098 0.51513 0.07218 0.0
C2776 C 0.05316 0.51583 0.06199 0.0
C2777 C 0.05953 0.50266 0.06187 0.0
C2778 C 0.05382 0.48886 0.07201 0.0
C2779 C 0.04146 0.48795 0.08209 0.0
H2780 H 0.06887 0.50315 0.05392 0.0
H2781 H 0.95009 0.49664 0.15234 0.0
H2782 H 0.49066 0.49039 0.16782 0.0
H2783 H 0.49657 0.48768 0.14221 0.0
H2784 H 0.47817 0.52787 0.13226 0.0
H2785 H 0.47191 0.53027 0.1577 0.0
H2786 H 0.46297 0.4985 0.11263 0.0
H2787 H 0.52511 0.54061 0.13507 0.0
H2788 H 0.55241 0.55045 0.15266 0.0
H2789 H 0.55611 0.50136 0.13641 0.0
H2790 H 0.52867 0.49109 0.11884 0.0
H2791 H 0.49566 0.52246 0.04321 0.0
H2792 H 0.48938 0.52212 0.06881 0.0
H2793 H 0.50988 0.48278 0.07528 0.0
H2794 H 0.51716 0.48398 0.04973 0.0
H2795 H 0.52339 0.50946 0.09678 0.0
H2796 H 0.46084 0.46866 0.07322 0.0
H2797 H 0.43348 0.46025 0.05609 0.0
H2798 H 0.43123 0.50928 0.07462 0.0
H2799 H 0.45861 0.51803 0.0918 0.0
C2800 C 0.48803 0.49873 0.16015 0.0
C2801 C 0.48076 0.51047 0.16469 0.0
C2802 C 0.49144 0.49722 0.14555 0.0
C2803 C 0.48795 0.50769 0.13533 0.0
C2804 C 0.48089 0.51958 0.13993 0.0
C2805 C 0.47729 0.52092 0.15445 0.0
C2806 C 0.49104 0.5059 0.11972 0.0
C2807 C 0.47625 0.50108 0.10916 0.0
C2808 C 0.50821 0.50881 0.11521 0.0
C2809 C 0.52472 0.51497 0.12575 0.0
C2810 C 0.53166 0.53183 0.13533 0.0
C2811 C 0.54717 0.5375 0.14528 0.0
C2812 C 0.55595 0.5265 0.14569 0.0
C2813 C 0.54927 0.50984 0.1361 0.0
C2814 C 0.53375 0.5041 0.12614 0.0
C2815 C 0.49869 0.51362 0.05007 0.0
C2816 C 0.50687 0.50322 0.04454 0.0
C2817 C 0.49496 0.51331 0.06469 0.0
C2818 C 0.4988 0.50212 0.07396 0.0
C2819 C 0.50674 0.49148 0.06835 0.0
C2820 C 0.51084 0.49211 0.05376 0.0
C2821 C 0.49534 0.50224 0.08963 0.0
C2822 C 0.51005 0.50671 0.10024 0.0
C2823 C 0.47815 0.49924 0.0942 0.0
C2824 C 0.46183 0.49405 0.08373 0.0
C2825 C 0.45458 0.47771 0.07356 0.0
C2826 C 0.43906 0.47288 0.06386 0.0
C2827 C 0.43067 0.48427 0.06427 0.0
C2828 C 0.43776 0.50049 0.07434 0.0
C2829 C 0.45324 0.50536 0.08408 0.0
H2830 H 0.41865 0.48055 0.05684 0.0
H2831 H 0.56796 0.53092 0.1534 0.0
H2832 H 0.95359 0.45608 0.84403 0.0
H2833 H 0.962 0.45825 0.87022 0.0
H2834 H 0.96486 0.51344 0.876 0.0
H2835 H 0.95672 0.51151 0.84973 0.0
H2836 H 0.99503 0.51351 0.88998 0.0
H2837 H 0.92868 0.4744 0.8855 0.0
H2838 H 0.89773 0.44717 0.87642 0.0
H2839 H 0.91287 0.4072 0.89268 0.0
H2840 H 0.94406 0.43418 0.90167 0.0
H2841 H 0.00373 0.51844 0.96766 0.0
H2842 H 0.99299 0.51811 0.94228 0.0
H2843 H 0.98322 0.46023 0.93326 0.0
H2844 H 0.99296 0.46019 0.95882 0.0
H2845 H 0.95516 0.46288 0.9213 0.0
H2846 H 0.02212 0.50052 0.92277 0.0
H2847 H 0.0535 0.5271 0.93187 0.0
H2848 H 0.03762 0.56864 0.92094 0.0
H2849 H 0.00606 0.54228 0.91195 0.0
C2850 C 0.95613 0.46874 0.85087 0.0
C2851 C 0.95452 0.48364 0.84485 0.0
C2852 C 0.96077 0.46987 0.86583 0.0
C2853 C 0.96386 0.48591 0.87503 0.0
C2854 C 0.96244 0.50091 0.86906 0.0
C2855 C 0.9577 0.49973 0.85409 0.0
C2856 C 0.96895 0.48717 0.89087 0.0
C2857 C 0.98619 0.5026 0.8969 0.0
C2858 C 0.95755 0.47268 0.89976 0.0
C2859 C 0.93883 0.45637 0.89416 0.0
C2860 C 0.92553 0.45981 0.88699 0.0
C2861 C 0.9079 0.44441 0.88189 0.0
C2862 C 0.90334 0.42546 0.88394 0.0
C2863 C 0.91641 0.42188 0.8911 0.0
C2864 C 0.93407 0.43724 0.89621 0.0
C2865 C 0.999 0.50557 0.96028 0.0
C2866 C 0.99885 0.48923 0.96518 0.0
C2867 C 0.9931 0.50547 0.94576 0.0
C2868 C 0.98742 0.48918 0.93584 0.0
C2869 C 0.98748 0.47293 0.94074 0.0
C2870 C 0.99318 0.47296 0.95528 0.0
C2871 C 0.98142 0.48899 0.92034 0.0
C2872 C 0.96396 0.47381 0.91439 0.0
C2873 C 0.99269 0.50358 0.91147 0.0
C2874 C 0.01167 0.51943 0.91683 0.0
C2875 C 0.02528 0.51532 0.92241 0.0
C2876 C 0.0431 0.53035 0.92753 0.0
C2877 C 0.04753 0.54955 0.92702 0.0
C2878 C 0.03416 0.55376 0.92135 0.0
C2879 C 0.01631 0.53879 0.91623 0.0
H2880 H 0.06134 0.56116 0.93099 0.0
H2881 H 0.88967 0.41356 0.88001 0.0
H2882 H 0.51318 0.50091 0.84091 0.0
H2883 H 0.50677 0.5074 0.86563 0.0
H2884 H 0.53461 0.47849 0.88301 0.0
H2885 H 0.54065 0.47163 0.85832 0.0
H2886 H 0.50337 0.46699 0.89478 0.0
H2887 H 0.55486 0.52872 0.88619 0.0
H2888 H 0.5719 0.55765 0.87296 0.0
H2889 H 0.5286 0.57144 0.87788 0.0
H2890 H 0.51117 0.54243 0.89098 0.0
H2891 H 0.51727 0.49762 0.96909 0.0
H2892 H 0.52325 0.49487 0.94371 0.0
H2893 H 0.48839 0.51828 0.93082 0.0
H2894 H 0.48265 0.52153 0.9565 0.0
H2895 H 0.52089 0.53254 0.91635 0.0
H2896 H 0.47082 0.47107 0.92698 0.0
H2897 H 0.45558 0.44286 0.94123 0.0
H2898 H 0.49809 0.42883 0.93311 0.0
H2899 H 0.51383 0.45722 0.91905 0.0
C2900 C 0.51805 0.49611 0.85004 0.0
C2901 C 0.52738 0.48575 0.84774 0.0
C2902 C 0.51441 0.49983 0.86415 0.0
C2903 C 0.52035 0.49357 0.8762 0.0
C2904 C 0.52983 0.48339 0.87388 0.0
C2905 C 0.53327 0.47948 0.85979 0.0
C2906 C 0.51635 0.49716 0.89121 0.0
C2907 C 0.50739 0.48136 0.89954 0.0
C2908 C 0.52116 0.51584 0.89729 0.0
C2909 C 0.53162 0.53329 0.88942 0.0
C2910 C 0.5489 0.53783 0.88434 0.0
C2911 C 0.55864 0.55426 0.87689 0.0
C2912 C 0.55131 0.56635 0.87454 0.0
C2913 C 0.53425 0.56205 0.87968 0.0
C2914 C 0.52444 0.54562 0.88713 0.0
C2915 C 0.51111 0.50252 0.96092 0.0
C2916 C 0.49948 0.50979 0.96474 0.0
C2917 C 0.51444 0.50079 0.9464 0.0
C2918 C 0.50599 0.50605 0.9354 0.0
C2919 C 0.49494 0.51405 0.9392 0.0
C2920 C 0.49165 0.51586 0.95381 0.0
C2921 C 0.50824 0.50244 0.91991 0.0
C2922 C 0.51679 0.51818 0.91151 0.0
C2923 C 0.50324 0.48372 0.9138 0.0
C2924 C 0.49361 0.4664 0.92205 0.0
C2925 C 0.47701 0.46207 0.92831 0.0
C2926 C 0.46828 0.44604 0.93636 0.0
C2927 C 0.47589 0.4341 0.93811 0.0
C2928 C 0.49223 0.43813 0.93177 0.0
C2929 C 0.50106 0.45418 0.92375 0.0
H2930 H 0.46911 0.42171 0.94435 0.0
H2931 H 0.55888 0.57906 0.86877 0.0
H2932 H 0.5564 0.06943 0.86453 0.0
H2933 H 0.54966 0.05489 0.88766 0.0
H2934 H 0.52648 0.99827 0.86463 0.0
H2935 H 0.5329 0.01282 0.84136 0.0
H2936 H 0.50337 0.99769 0.88199 0.0
H2937 H 0.56811 0.01954 0.88885 0.0
H2938 H 0.60219 0.04121 0.89043 0.0
H2939 H 0.5986 0.07808 0.92413 0.0
H2940 H 0.56447 0.05678 0.92263 0.0
H2941 H 0.48515 0.96239 0.9538 0.0
H2942 H 0.49811 0.96877 0.92989 0.0
H2943 H 0.51663 0.02931 0.93901 0.0
H2944 H 0.50319 0.02291 0.96241 0.0
H2945 H 0.54419 0.0221 0.92847 0.0
H2946 H 0.47877 0.0027 0.91759 0.0
H2947 H 0.44498 0.97992 0.91698 0.0
H2948 H 0.45098 0.9375 0.89105 0.0
H2949 H 0.48489 0.95998 0.89168 0.0
C2950 C 0.55022 0.05391 0.86442 0.0
C2951 C 0.5451 0.04225 0.85114 0.0
C2952 C 0.54647 0.0456 0.87768 0.0
C2953 C 0.53777 0.02546 0.87796 0.0
C2954 C 0.53322 0.01383 0.86471 0.0
C2955 C 0.53681 0.02214 0.85143 0.0
C2956 C 0.53144 0.01658 0.89183 0.0
C2957 C 0.51249 0.0027 0.89206 0.0
C2958 C 0.5432 0.02323 0.90508 0.0
C2959 C 0.56367 0.03657 0.90556 0.0
C2960 C 0.57454 0.03238 0.89648 0.0
C2961 C 0.59389 0.04457 0.89741 0.0
C2962 C 0.60256 0.061 0.9074 0.0
C2963 C 0.59188 0.06533 0.91643 0.0
C2964 C 0.57253 0.05318 0.91556 0.0
C2965 C 0.49193 0.977 0.9506 0.0
C2966 C 0.4936 0.99225 0.96001 0.0
C2967 C 0.49938 0.98063 0.93704 0.0
C2968 C 0.50852 0.99955 0.93282 0.0
C2969 C 0.50991 0.01467 0.94218 0.0
C2970 C 0.50232 0.01101 0.95556 0.0
C2971 C 0.51624 0.00387 0.9185 0.0
C2972 C 0.53536 0.01684 0.91825 0.0
C2973 C 0.50472 0.99637 0.90523 0.0
C2974 C 0.48437 0.98291 0.90485 0.0
C2975 C 0.47291 0.98845 0.91187 0.0
C2976 C 0.45373 0.97561 0.9115 0.0
C2977 C 0.44585 0.95725 0.90403 0.0
C2978 C 0.45712 0.95171 0.89687 0.0
C2979 C 0.47631 0.96449 0.89723 0.0
H2980 H 0.431 0.94733 0.90375 0.0
H2981 H 0.61754 0.07037 0.90815 0.0
H2982 H 0.16387 0.32963 0.4984 0.0
H2983 H 0.16913 0.34036 0.47378 0.0
H2984 H 0.11847 0.28854 0.45657 0.0
H2985 H 0.11367 0.27752 0.48108 0.0
H2986 H 0.14466 0.29258 0.44143 0.0
H2987 H 0.12393 0.33551 0.45809 0.0
H2988 H 0.12311 0.36039 0.47447 0.0
H2989 H 0.17976 0.40095 0.46743 0.0
H2990 H 0.18102 0.37622 0.45115 0.0
H2991 H 0.14554 0.31665 0.36912 0.0
H2992 H 0.13682 0.31032 0.39397 0.0
H2993 H 0.19013 0.35893 0.41076 0.0
H2994 H 0.19829 0.36589 0.38563 0.0
H2995 H 0.16205 0.35732 0.42597 0.0
H2996 H 0.18249 0.31243 0.41082 0.0
H2997 H 0.18265 0.28663 0.39514 0.0
H2998 H 0.12431 0.24924 0.39925 0.0
H2999 H 0.12387 0.27485 0.41507 0.0
C3000 C 0.15374 0.32075 0.48936 0.0
C3001 C 0.13844 0.30273 0.49155 0.0
C3002 C 0.15668 0.32691 0.47531 0.0
C3003 C 0.14414 0.31532 0.46328 0.0
C3004 C 0.1284 0.2977 0.46564 0.0
C3005 C 0.12564 0.29141 0.47962 0.0
C3006 C 0.14829 0.32052 0.44811 0.0
C3007 C 0.1481 0.30665 0.43803 0.0
C3008 C 0.15331 0.33904 0.44371 0.0
C3009 C 0.15262 0.35394 0.45351 0.0
C3010 C 0.13627 0.34968 0.46013 0.0
C3011 C 0.13571 0.36377 0.46938 0.0
C3012 C 0.15138 0.38222 0.47202 0.0
C3013 C 0.16763 0.38664 0.46539 0.0
C3014 C 0.16827 0.3726 0.45614 0.0
C3015 C 0.15499 0.32644 0.37805 0.0
C3016 C 0.17218 0.34215 0.37544 0.0
C3017 C 0.15024 0.32256 0.3923 0.0
C3018 C 0.16286 0.33411 0.40426 0.0
C3019 C 0.18013 0.34989 0.40169 0.0
C3020 C 0.18482 0.35379 0.38737 0.0
C3021 C 0.15823 0.3293 0.4194 0.0
C3022 C 0.15844 0.34325 0.42944 0.0
C3023 C 0.15298 0.31077 0.42379 0.0
C3024 C 0.15313 0.29557 0.41401 0.0
C3025 C 0.16968 0.29875 0.40828 0.0
C3026 C 0.16982 0.28414 0.39941 0.0
C3027 C 0.15346 0.26631 0.39615 0.0
C3028 C 0.13695 0.26306 0.40178 0.0
C3029 C 0.13676 0.27758 0.41074 0.0
H3030 H 0.15355 0.25497 0.38932 0.0
H3031 H 0.15092 0.39311 0.47918 0.0
H3032 H 0.67791 0.82985 0.49516 0.0
H3033 H 0.66682 0.82406 0.46919 0.0
H3034 H 0.72352 0.8491 0.45783 0.0
H3035 H 0.73466 0.85506 0.48373 0.0
H3036 H 0.70568 0.86314 0.44286 0.0
H3037 H 0.69287 0.79981 0.4536 0.0
H3038 H 0.67938 0.77061 0.46693 0.0
H3039 H 0.62432 0.76045 0.45515 0.0
H3040 H 0.6375 0.78976 0.44191 0.0
H3041 H 0.69164 0.83638 0.36805 0.0
H3042 H 0.69941 0.83734 0.39408 0.0
H3043 H 0.64149 0.81365 0.40165 0.0
H3044 H 0.63347 0.81178 0.3753 0.0
H3045 H 0.65825 0.79888 0.41871 0.0
H3046 H 0.67152 0.86203 0.40716 0.0
H3047 H 0.68539 0.89035 0.39288 0.0
H3048 H 0.74017 0.9005 0.40586 0.0
H3049 H 0.72661 0.87206 0.42006 0.0
C3050 C 0.68797 0.83391 0.4871 0.0
C3051 C 0.70715 0.84294 0.49146 0.0
C3052 C 0.68163 0.8306 0.47228 0.0
C3053 C 0.69434 0.83603 0.46156 0.0
C3054 C 0.71347 0.84487 0.46591 0.0
C3055 C 0.71982 0.84829 0.4807 0.0
C3056 C 0.68784 0.83303 0.44581 0.0
C3057 C 0.69546 0.84904 0.43756 0.0
C3058 C 0.67413 0.81473 0.43897 0.0
C3059 C 0.66619 0.79709 0.4469 0.0
C3060 C 0.67789 0.79144 0.45396 0.0
C3061 C 0.6703 0.77485 0.46147 0.0
C3062 C 0.65101 0.76371 0.46192 0.0
C3063 C 0.63926 0.76911 0.45481 0.0
C3064 C 0.64678 0.7857 0.44729 0.0
C3065 C 0.68048 0.83097 0.37519 0.0
C3066 C 0.66194 0.82397 0.36968 0.0
C3067 C 0.68497 0.8317 0.39009 0.0
C3068 C 0.67109 0.82595 0.39983 0.0
C3069 C 0.65243 0.81825 0.39431 0.0
C3070 C 0.64787 0.81726 0.3793 0.0
C3071 C 0.6763 0.82892 0.41579 0.0
C3072 C 0.6684 0.81296 0.42406 0.0
C3073 C 0.6898 0.84727 0.42268 0.0
C3074 C 0.69803 0.86483 0.41461 0.0
C3075 C 0.68652 0.87027 0.40695 0.0
C3076 C 0.69433 0.88634 0.39885 0.0
C3077 C 0.71365 0.89719 0.39843 0.0
C3078 C 0.72521 0.89207 0.40619 0.0
C3079 C 0.71747 0.876 0.41428 0.0
H3080 H 0.71966 0.90958 0.39211 0.0
H3081 H 0.64516 0.75088 0.46775 0.0
H3082 H 0.16305 0.87565 0.48989 0.0
H3083 H 0.17017 0.87291 0.4648 0.0
H3084 H 0.11561 0.82263 0.45459 0.0
H3085 H 0.10862 0.82483 0.47993 0.0
H3086 H 0.14212 0.81715 0.44357 0.0
H3087 H 0.12467 0.86584 0.44195 0.0
H3088 H 0.12521 0.89585 0.45045 0.0
H3089 H 0.18385 0.92867 0.44551 0.0
H3090 H 0.18368 0.8988 0.43721 0.0
H3091 H 0.15182 0.81644 0.3672 0.0
H3092 H 0.14056 0.81758 0.39105 0.0
H3093 H 0.19287 0.86923 0.40532 0.0
H3094 H 0.20381 0.86864 0.38119 0.0
H3095 H 0.16444 0.87276 0.41349 0.0
H3096 H 0.18172 0.82326 0.41534 0.0
H3097 H 0.18039 0.79295 0.40654 0.0
H3098 H 0.12161 0.76131 0.41117 0.0
H3099 H 0.12259 0.79148 0.41989 0.0
C3100 C 0.15261 0.86388 0.48236 0.0
C3101 C 0.13527 0.85043 0.48691 0.0
C3102 C 0.15662 0.86248 0.46797 0.0
C3103 C 0.14331 0.84774 0.45778 0.0
C3104 C 0.12603 0.83419 0.46228 0.0
C3105 C 0.12201 0.83555 0.47671 0.0
C3106 C 0.14771 0.84632 0.44254 0.0
C3107 C 0.14677 0.82922 0.4369 0.0
C3108 C 0.154 0.86214 0.43394 0.0
C3109 C 0.15416 0.88011 0.43895 0.0
C3110 C 0.13769 0.87946 0.44274 0.0
C3111 C 0.13793 0.89644 0.44753 0.0
C3112 C 0.15456 0.91416 0.44852 0.0
C3113 C 0.17098 0.91494 0.44473 0.0
C3114 C 0.17081 0.898 0.43995 0.0
C3115 C 0.16088 0.82806 0.37543 0.0
C3116 C 0.17865 0.84249 0.3724 0.0
C3117 C 0.15448 0.82862 0.38908 0.0
C3118 C 0.16597 0.84334 0.40004 0.0
C3119 C 0.18378 0.85773 0.39702 0.0
C3120 C 0.19008 0.85731 0.3833 0.0
C3121 C 0.15946 0.84383 0.41467 0.0
C3122 C 0.15987 0.86073 0.42016 0.0
C3123 C 0.15268 0.8278 0.42312 0.0
C3124 C 0.15219 0.80964 0.41811 0.0
C3125 C 0.1685 0.80985 0.4144 0.0
C3126 C 0.16781 0.7927 0.40945 0.0
C3127 C 0.15092 0.77522 0.40826 0.0
C3128 C 0.13469 0.77485 0.41208 0.0
C3129 C 0.13531 0.79197 0.41705 0.0
H3130 H 0.15041 0.76196 0.40441 0.0
H3131 H 0.15472 0.92729 0.45222 0.0
H3132 H 0.6416 0.86373 0.17556 0.0
H3133 H 0.65029 0.86627 0.20189 0.0
H3134 H 0.63127 0.80527 0.19903 0.0
H3135 H 0.62278 0.80271 0.17278 0.0
H3136 H 0.61919 0.81924 0.22329 0.0
H3137 H 0.67508 0.83386 0.19943 0.0
H3138 H 0.69988 0.85218 0.1835 0.0
H3139 H 0.71641 0.90467 0.21029 0.0
H3140 H 0.6915 0.88667 0.22626 0.0
H3141 H 0.65646 0.80197 0.28659 0.0
H3142 H 0.64777 0.80439 0.26135 0.0
H3143 H 0.68291 0.86648 0.26776 0.0
H3144 H 0.69284 0.86373 0.29273 0.0
H3145 H 0.68593 0.85573 0.24229 0.0
H3146 H 0.63235 0.84015 0.26834 0.0
H3147 H 0.60812 0.82113 0.28455 0.0
H3148 H 0.58661 0.77099 0.25394 0.0
H3149 H 0.61088 0.78947 0.23768 0.0
C3150 C 0.63922 0.85089 0.18061 0.0
C3151 C 0.63166 0.83306 0.17218 0.0
C3152 C 0.64419 0.85235 0.19559 0.0
C3153 C 0.64142 0.83595 0.20234 0.0
C3154 C 0.63347 0.81807 0.194 0.0
C3155 C 0.62877 0.81666 0.17902 0.0
C3156 C 0.64735 0.83737 0.21802 0.0
C3157 C 0.63376 0.82716 0.2275 0.0
C3158 C 0.66631 0.84817 0.2235 0.0
C3159 C 0.68128 0.85897 0.21392 0.0
C3160 C 0.68388 0.84934 0.20183 0.0
C3161 C 0.69798 0.85965 0.19282 0.0
C3162 C 0.70967 0.87959 0.19585 0.0
C3163 C 0.70731 0.88923 0.20793 0.0
C3164 C 0.69321 0.87898 0.21697 0.0
C3165 C 0.66245 0.81607 0.28248 0.0
C3166 C 0.6753 0.83267 0.29141 0.0
C3167 C 0.65731 0.81751 0.26815 0.0
C3168 C 0.66416 0.83569 0.26274 0.0
C3169 C 0.67731 0.8523 0.27168 0.0
C3170 C 0.68299 0.85077 0.28589 0.0
C3171 C 0.6578 0.83723 0.2477 0.0
C3172 C 0.67129 0.84806 0.23828 0.0
C3173 C 0.63868 0.82709 0.24232 0.0
C3174 C 0.62357 0.81619 0.25184 0.0
C3175 C 0.62252 0.82505 0.2651 0.0
C3176 C 0.60884 0.81435 0.27433 0.0
C3177 C 0.59596 0.79488 0.27034 0.0
C3178 C 0.59664 0.78607 0.25705 0.0
C3179 C 0.61036 0.79664 0.24782 0.0
H3180 H 0.58537 0.78666 0.27749 0.0
H3181 H 0.72059 0.88755 0.18886 0.0
H3182 H 0.20782 0.80431 0.18608 0.0
H3183 H 0.20178 0.80974 0.21107 0.0
H3184 H 0.18103 0.84637 0.19669 0.0
H3185 H 0.18645 0.84056 0.17148 0.0
H3186 H 0.20611 0.86074 0.22364 0.0
H3187 H 0.14942 0.80349 0.20214 0.0
H3188 H 0.13194 0.77107 0.18874 0.0
H3189 H 0.15408 0.74893 0.22072 0.0
H3190 H 0.17199 0.78131 0.23411 0.0
H3191 H 0.1642 0.86228 0.28904 0.0
H3192 H 0.17208 0.86108 0.26383 0.0
H3193 H 0.17611 0.81036 0.27086 0.0
H3194 H 0.16684 0.81085 0.29559 0.0
H3195 H 0.15883 0.80418 0.24659 0.0
H3196 H 0.21672 0.85888 0.26737 0.0
H3197 H 0.23698 0.89072 0.28127 0.0
H3198 H 0.21672 0.91705 0.25159 0.0
H3199 H 0.19631 0.88536 0.23768 0.0
C3200 C 0.20186 0.81344 0.18817 0.0
C3201 C 0.19741 0.82181 0.17673 0.0
C3202 C 0.19855 0.81662 0.20248 0.0
C3203 C 0.19082 0.8283 0.20564 0.0
C3204 C 0.18703 0.83732 0.19441 0.0
C3205 C 0.1902 0.83403 0.18004 0.0
C3206 C 0.186 0.83036 0.22061 0.0
C3207 C 0.19563 0.84847 0.22867 0.0
C3208 C 0.17271 0.81422 0.2272 0.0
C3209 C 0.16199 0.79478 0.21913 0.0
C3210 C 0.15062 0.79172 0.20626 0.0
C3211 C 0.14066 0.77336 0.19866 0.0
C3212 C 0.14189 0.75795 0.20388 0.0
C3213 C 0.15311 0.76086 0.2167 0.0
C3214 C 0.16315 0.7792 0.2243 0.0
C3215 C 0.16685 0.85097 0.28511 0.0
C3216 C 0.16508 0.83673 0.29412 0.0
C3217 C 0.17155 0.85038 0.27078 0.0
C3218 C 0.17507 0.83584 0.26543 0.0
C3219 C 0.1735 0.82175 0.27465 0.0
C3220 C 0.16832 0.82207 0.28882 0.0
C3221 C 0.17935 0.83454 0.25003 0.0
C3222 C 0.16944 0.81653 0.24175 0.0
C3223 C 0.19274 0.85072 0.24338 0.0
C3224 C 0.20484 0.86977 0.2517 0.0
C3225 C 0.21651 0.87148 0.26398 0.0
C3226 C 0.22803 0.88947 0.2718 0.0
C3227 C 0.22804 0.90587 0.26737 0.0
C3228 C 0.21664 0.90433 0.25505 0.0
C3229 C 0.20512 0.88636 0.24718 0.0
H3230 H 0.23691 0.91978 0.27344 0.0
H3231 H 0.13415 0.74374 0.19798 0.0
H3232 H 0.16849 0.36463 0.17941 0.0
H3233 H 0.16256 0.35551 0.20421 0.0
H3234 H 0.21855 0.36579 0.21208 0.0
H3235 H 0.22437 0.37406 0.18689 0.0
H3236 H 0.19351 0.33327 0.22373 0.0
H3237 H 0.20859 0.39999 0.22706 0.0
H3238 H 0.20612 0.4275 0.21883 0.0
H3239 H 0.14728 0.39682 0.22327 0.0
H3240 H 0.14941 0.36908 0.23138 0.0
H3241 H 0.18539 0.33043 0.30096 0.0
H3242 H 0.19633 0.34083 0.27706 0.0
H3243 H 0.14306 0.33476 0.26322 0.0
H3244 H 0.13244 0.32526 0.28729 0.0
H3245 H 0.17088 0.36773 0.25554 0.0
H3246 H 0.15575 0.30074 0.25272 0.0
H3247 H 0.15854 0.27337 0.26079 0.0
H3248 H 0.21696 0.30369 0.25472 0.0
H3249 H 0.21454 0.33131 0.24674 0.0
C3250 C 0.17949 0.36467 0.18628 0.0
C3251 C 0.19693 0.37012 0.18111 0.0
C3252 C 0.17615 0.35968 0.20055 0.0
C3253 C 0.19023 0.36032 0.21009 0.0
C3254 C 0.20753 0.36533 0.20493 0.0
C3255 C 0.21088 0.37022 0.19057 0.0
C3256 C 0.1868 0.35596 0.22547 0.0
C3257 C 0.18876 0.34093 0.23077 0.0
C3258 C 0.18047 0.36585 0.23459 0.0
C3259 C 0.17917 0.38255 0.2299 0.0
C3260 C 0.19514 0.39914 0.22627 0.0
C3261 C 0.19379 0.41475 0.22162 0.0
C3262 C 0.17656 0.41392 0.22055 0.0
C3263 C 0.16062 0.39746 0.22412 0.0
C3264 C 0.1619 0.38182 0.22879 0.0
C3265 C 0.17609 0.33144 0.29282 0.0
C3266 C 0.15811 0.32715 0.29596 0.0
C3267 C 0.18229 0.33724 0.27914 0.0
C3268 C 0.17047 0.33845 0.26829 0.0
C3269 C 0.15247 0.33403 0.27143 0.0
C3270 C 0.14635 0.32846 0.28514 0.0
C3271 C 0.17672 0.34441 0.25365 0.0
C3272 C 0.1755 0.35995 0.24852 0.0
C3273 C 0.18364 0.3349 0.2447 0.0
C3274 C 0.18501 0.31818 0.24932 0.0
C3275 C 0.16922 0.30162 0.2532 0.0
C3276 C 0.17072 0.28605 0.25774 0.0
C3277 C 0.18793 0.28682 0.25831 0.0
C3278 C 0.20365 0.30312 0.25429 0.0
C3279 C 0.20221 0.31873 0.24975 0.0
H3280 H 0.18907 0.27476 0.26184 0.0
H3281 H 0.17554 0.42601 0.21694 0.0
H3282 H 0.7683 0.62034 0.81512 0.0
H3283 H 0.77439 0.63472 0.79175 0.0
H3284 H 0.82326 0.629 0.79034 0.0
H3285 H 0.81764 0.61526 0.81381 0.0
H3286 H 0.83018 0.66427 0.78373 0.0
H3287 H 0.7815 0.59737 0.77032 0.0
H3288 H 0.75015 0.56905 0.77099 0.0
H3289 H 0.72528 0.60149 0.75583 0.0
H3290 H 0.75651 0.63011 0.75522 0.0
H3291 H 0.85565 0.67227 0.713 0.0
H3292 H 0.84435 0.66077 0.7364 0.0
H3293 H 0.79547 0.66532 0.72597 0.0
H3294 H 0.80656 0.67618 0.70207 0.0
H3295 H 0.7857 0.63433 0.73935 0.0
H3296 H 0.83274 0.69981 0.75039 0.0
H3297 H 0.86335 0.72919 0.74976 0.0
H3298 H 0.89034 0.70148 0.77009 0.0
H3299 H 0.85991 0.67184 0.77068 0.0
C3300 C 0.78041 0.62227 0.80987 0.0
C3301 C 0.79244 0.61656 0.8163 0.0
C3302 C 0.78378 0.63035 0.79646 0.0
C3303 C 0.79918 0.63277 0.78924 0.0
C3304 C 0.81125 0.62721 0.7957 0.0
C3305 C 0.80792 0.61918 0.80906 0.0
C3306 C 0.80307 0.64125 0.77502 0.0
C3307 C 0.82052 0.65763 0.77399 0.0
C3308 C 0.79009 0.63315 0.76249 0.0
C3309 C 0.77134 0.61596 0.76291 0.0
C3310 C 0.76934 0.59855 0.76731 0.0
C3311 C 0.7516 0.58243 0.76766 0.0
C3312 C 0.73573 0.58351 0.76356 0.0
C3313 C 0.73758 0.60072 0.7591 0.0
C3314 C 0.7553 0.61688 0.75872 0.0
C3315 C 0.84254 0.67091 0.71572 0.0
C3316 C 0.83203 0.67527 0.70584 0.0
C3317 C 0.8361 0.66439 0.72913 0.0
C3318 C 0.81929 0.66268 0.73318 0.0
C3319 C 0.80855 0.66666 0.72316 0.0
C3320 C 0.81486 0.67286 0.70955 0.0
C3321 C 0.81323 0.65681 0.74791 0.0
C3322 C 0.79533 0.64108 0.74908 0.0
C3323 C 0.82567 0.66569 0.76069 0.0
C3324 C 0.84403 0.68357 0.76051 0.0
C3325 C 0.84521 0.69995 0.75466 0.0
C3326 C 0.86253 0.71665 0.75432 0.0
C3327 C 0.87878 0.71719 0.75987 0.0
C3328 C 0.87774 0.70104 0.7658 0.0
C3329 C 0.86045 0.6843 0.76617 0.0
H3330 H 0.89218 0.73013 0.75959 0.0
H3331 H 0.72201 0.57099 0.76374 0.0
H3332 H 0.41267 0.20864 0.82013 0.0
H3333 H 0.40178 0.20381 0.79423 0.0
H3334 H 0.34818 0.15715 0.80298 0.0
H3335 H 0.35853 0.16241 0.829 0.0
H3336 H 0.36484 0.15 0.77747 0.0
H3337 H 0.34946 0.19655 0.79945 0.0
H3338 H 0.35711 0.227 0.8136 0.0
H3339 H 0.39734 0.25933 0.78388 0.0
H3340 H 0.3902 0.22901 0.76977 0.0
H3341 H 0.31149 0.17217 0.71616 0.0
H3342 H 0.32369 0.17534 0.74161 0.0
H3343 H 0.36708 0.16552 0.72699 0.0
H3344 H 0.3547 0.1622 0.70172 0.0
H3345 H 0.35611 0.20047 0.75559 0.0
H3346 H 0.37981 0.14439 0.75374 0.0
H3347 H 0.37312 0.1145 0.73928 0.0
H3348 H 0.31693 0.10137 0.72812 0.0
H3349 H 0.32314 0.13094 0.74286 0.0
C3350 C 0.3985 0.19745 0.81662 0.0
C3351 C 0.38645 0.18603 0.82675 0.0
C3352 C 0.39238 0.19462 0.80179 0.0
C3353 C 0.3742 0.18017 0.79677 0.0
C3354 C 0.36231 0.16831 0.80669 0.0
C3355 C 0.36831 0.1713 0.82156 0.0
C3356 C 0.36727 0.17791 0.78126 0.0
C3357 C 0.36296 0.16102 0.77263 0.0
C3358 C 0.36495 0.19236 0.77502 0.0
C3359 C 0.36937 0.21054 0.78361 0.0
C3360 C 0.36006 0.21014 0.79603 0.0
C3361 C 0.36429 0.22738 0.80403 0.0
C3362 C 0.37772 0.24509 0.79966 0.0
C3363 C 0.38696 0.2456 0.78728 0.0
C3364 C 0.38282 0.22841 0.77927 0.0
C3365 C 0.32348 0.17044 0.71844 0.0
C3366 C 0.33179 0.16622 0.70701 0.0
C3367 C 0.33049 0.17234 0.73294 0.0
C3368 C 0.34608 0.17028 0.73624 0.0
C3369 C 0.35468 0.16656 0.72477 0.0
C3370 C 0.3475 0.16443 0.7103 0.0
C3371 C 0.35349 0.17246 0.75167 0.0
C3372 C 0.35804 0.18943 0.76033 0.0
C3373 C 0.35619 0.15812 0.75786 0.0
C3374 C 0.35202 0.14 0.74927 0.0
C3375 C 0.36599 0.13507 0.74826 0.0
C3376 C 0.36229 0.11819 0.74001 0.0
C3377 C 0.34465 0.10611 0.73269 0.0
C3378 C 0.33061 0.11079 0.73374 0.0
C3379 C 0.33421 0.1276 0.74207 0.0
H3380 H 0.34184 0.0931 0.72624 0.0
H3381 H 0.38096 0.25842 0.80586 0.0
H3382 H 0.78364 0.14929 0.81483 0.0
H3383 H 0.79102 0.1467 0.78962 0.0
H3384 H 0.83583 0.20593 0.79548 0.0
H3385 H 0.8285 0.20863 0.82063 0.0
H3386 H 0.81279 0.19629 0.76905 0.0
H3387 H 0.84636 0.17198 0.79715 0.0
H3388 H 0.84911 0.15057 0.81412 0.0
H3389 H 0.81068 0.1009 0.78519 0.0
H3390 H 0.8075 0.12202 0.76813 0.0
H3391 H 0.86743 0.20271 0.71088 0.0
H3392 H 0.85681 0.20261 0.73528 0.0
H3393 H 0.81478 0.14252 0.72596 0.0
H3394 H 0.82542 0.14258 0.70157 0.0
H3395 H 0.83401 0.1507 0.75348 0.0
H3396 H 0.80043 0.17311 0.7252 0.0
H3397 H 0.79547 0.19295 0.70794 0.0
H3398 H 0.83138 0.24415 0.7364 0.0
H3399 H 0.83667 0.22462 0.7538 0.0
C3400 C 0.79501 0.16176 0.81069 0.0
C3401 C 0.80558 0.17913 0.81968 0.0
C3402 C 0.79924 0.16024 0.79635 0.0
C3403 C 0.81402 0.17611 0.79076 0.0
C3404 C 0.82439 0.19354 0.79963 0.0
C3405 C 0.82029 0.19501 0.814 0.0
C3406 C 0.81889 0.17454 0.77572 0.0
C3407 C 0.81763 0.18649 0.76568 0.0
C3408 C 0.82457 0.16126 0.77123 0.0
C3409 C 0.82653 0.14856 0.78145 0.0
C3410 C 0.83837 0.15648 0.79447 0.0
C3411 C 0.84003 0.1444 0.80409 0.0
C3412 C 0.83003 0.12439 0.80076 0.0
C3413 C 0.81839 0.11641 0.78777 0.0
C3414 C 0.81666 0.12842 0.77812 0.0
C3415 C 0.85605 0.18947 0.71413 0.0
C3416 C 0.84714 0.17267 0.70443 0.0
C3417 C 0.84991 0.18946 0.72798 0.0
C3418 C 0.83491 0.1726 0.73233 0.0
C3419 C 0.82634 0.15566 0.72277 0.0
C3420 C 0.83237 0.15574 0.70888 0.0
C3421 C 0.82824 0.1727 0.7469 0.0
C3422 C 0.82911 0.16046 0.75683 0.0
C3423 C 0.82196 0.18553 0.75124 0.0
C3424 C 0.81905 0.19741 0.74075 0.0
C3425 C 0.80738 0.18861 0.72772 0.0
C3426 C 0.80445 0.19979 0.71795 0.0
C3427 C 0.81306 0.21978 0.7211 0.0
C3428 C 0.82467 0.22865 0.73401 0.0
C3429 C 0.82762 0.21753 0.74384 0.0
H3430 H 0.81077 0.22841 0.71351 0.0
H3431 H 0.83135 0.11506 0.80822 0.0
H3432 H 0.2905 0.1283 0.50867 0.0
H3433 H 0.29924 0.1309 0.53475 0.0
H3434 H 0.29598 0.18281 0.541 0.0
H3435 H 0.28784 0.18068 0.51471 0.0
H3436 H 0.3271 0.18702 0.55529 0.0
H3437 H 0.26179 0.14066 0.55298 0.0
H3438 H 0.23238 0.11124 0.54367 0.0
H3439 H 0.25655 0.0763 0.55379 0.0
H3440 H 0.28617 0.10554 0.56299 0.0
H3441 H 0.33871 0.18808 0.63277 0.0
H3442 H 0.32618 0.1877 0.60799 0.0
H3443 H 0.32399 0.13373 0.59601 0.0
H3444 H 0.33529 0.13351 0.62106 0.0
H3445 H 0.29357 0.13223 0.58529 0.0
H3446 H 0.35949 0.17919 0.58662 0.0
H3447 H 0.38858 0.20874 0.59627 0.0
H3448 H 0.36295 0.24288 0.58813 0.0
H3449 H 0.33364 0.21349 0.57859 0.0
C3450 C 0.29177 0.14036 0.51555 0.0
C3451 C 0.28854 0.15432 0.50959 0.0
C3452 C 0.29654 0.1417 0.5305 0.0
C3453 C 0.29801 0.1569 0.53985 0.0
C3454 C 0.29482 0.1709 0.53398 0.0
C3455 C 0.29005 0.16959 0.51898 0.0
C3456 C 0.30351 0.15842 0.55567 0.0
C3457 C 0.31959 0.17517 0.56193 0.0
C3458 C 0.29388 0.14286 0.56427 0.0
C3459 C 0.2762 0.12528 0.55858 0.0
C3460 C 0.26086 0.12671 0.5531 0.0
C3461 C 0.24415 0.11007 0.54787 0.0
C3462 C 0.24261 0.09192 0.54811 0.0
C3463 C 0.25778 0.09037 0.55357 0.0
C3464 C 0.27453 0.10697 0.5588 0.0
C3465 C 0.33515 0.17597 0.6249 0.0
C3466 C 0.33758 0.16066 0.62884 0.0
C3467 C 0.32832 0.17592 0.61069 0.0
C3468 C 0.32433 0.16079 0.60007 0.0
C3469 C 0.32695 0.14556 0.60401 0.0
C3470 C 0.33353 0.1455 0.61827 0.0
C3471 C 0.31736 0.16065 0.58485 0.0
C3472 C 0.30099 0.14414 0.5787 0.0
C3473 C 0.3267 0.17647 0.57638 0.0
C3474 C 0.34434 0.19413 0.58202 0.0
C3475 C 0.36003 0.19299 0.58698 0.0
C3476 C 0.37656 0.20971 0.59241 0.0
C3477 C 0.3776 0.22767 0.59284 0.0
C3478 C 0.36212 0.22895 0.58781 0.0
C3479 C 0.34556 0.21227 0.58237 0.0
H3480 H 0.3904 0.2406 0.59706 0.0
H3481 H 0.22965 0.07905 0.54408 0.0
H3482 H 0.82915 0.12604 0.50845 0.0
H3483 H 0.82394 0.1321 0.53359 0.0
H3484 H 0.87877 0.18275 0.53975 0.0
H3485 H 0.88424 0.17652 0.51461 0.0
H3486 H 0.87138 0.16004 0.56254 0.0
H3487 H 0.8414 0.18802 0.53564 0.0
H3488 H 0.82026 0.18895 0.5163 0.0
H3489 H 0.77335 0.14187 0.53313 0.0
H3490 H 0.79425 0.14046 0.55246 0.0
H3491 H 0.85313 0.19535 0.62988 0.0
H3492 H 0.861 0.19314 0.60474 0.0
H3493 H 0.80942 0.13906 0.59525 0.0
H3494 H 0.80198 0.14077 0.62048 0.0
H3495 H 0.81666 0.16589 0.57424 0.0
H3496 H 0.84658 0.13801 0.60126 0.0
H3497 H 0.86769 0.13603 0.61997 0.0
H3498 H 0.91493 0.18175 0.6024 0.0
H3499 H 0.89406 0.18471 0.584 0.0
C3500 C 0.84013 0.13842 0.51517 0.0
C3501 C 0.85712 0.1508 0.50957 0.0
C3502 C 0.83708 0.14196 0.52949 0.0
C3503 C 0.85091 0.15798 0.53848 0.0
C3504 C 0.8679 0.17035 0.53296 0.0
C3505 C 0.87095 0.16686 0.51859 0.0
C3506 C 0.84765 0.16149 0.55372 0.0
C3507 C 0.85965 0.16173 0.56514 0.0
C3508 C 0.83205 0.16319 0.55702 0.0
C3509 C 0.81942 0.16403 0.54543 0.0
C3510 C 0.8266 0.17776 0.53515 0.0
C3511 C 0.81465 0.17839 0.5242 0.0
C3512 C 0.79548 0.16545 0.52346 0.0
C3513 C 0.78821 0.15188 0.5337 0.0
C3514 C 0.80009 0.15117 0.54467 0.0
C3515 C 0.84372 0.18283 0.62249 0.0
C3516 C 0.82722 0.16802 0.62716 0.0
C3517 C 0.84811 0.18168 0.60814 0.0
C3518 C 0.83585 0.16585 0.59823 0.0
C3519 C 0.81907 0.15136 0.60277 0.0
C3520 C 0.81483 0.15237 0.61715 0.0
C3521 C 0.84036 0.16438 0.58307 0.0
C3522 C 0.82855 0.16447 0.57166 0.0
C3523 C 0.85615 0.16298 0.57982 0.0
C3524 C 0.86868 0.16182 0.59136 0.0
C3525 C 0.86142 0.14798 0.60157 0.0
C3526 C 0.87336 0.14666 0.61213 0.0
C3527 C 0.89263 0.15884 0.61244 0.0
C3528 C 0.89999 0.17244 0.60223 0.0
C3529 C 0.8881 0.17401 0.59178 0.0
H3530 H 0.90186 0.15767 0.62053 0.0
H3531 H 0.78626 0.16597 0.51498 0.0
H3532 H 0.89104 0.74268 0.5336 0.0
H3533 H 0.88299 0.72842 0.55685 0.0
H3534 H 0.84073 0.67452 0.53396 0.0
H3535 H 0.84917 0.68825 0.51062 0.0
H3536 H 0.82911 0.6896 0.55853 0.0
H3537 H 0.87896 0.67722 0.54587 0.0
H3538 H 0.91098 0.6872 0.53999 0.0
H3539 H 0.9329 0.723 0.5806 0.0
H3540 H 0.90108 0.71347 0.58661 0.0
H3541 H 0.80164 0.63174 0.61653 0.0
H3542 H 0.8125 0.64258 0.59273 0.0
H3543 H 0.8652 0.68754 0.61421 0.0
H3544 H 0.85485 0.67529 0.63763 0.0
H3545 H 0.87201 0.67792 0.59023 0.0
H3546 H 0.82625 0.69328 0.60418 0.0
H3547 H 0.79579 0.68574 0.61239 0.0
H3548 H 0.76818 0.65079 0.57216 0.0
H3549 H 0.79846 0.65761 0.56383 0.0
C3550 C 0.88024 0.7277 0.53345 0.0
C3551 C 0.87075 0.71665 0.52017 0.0
C3552 C 0.87559 0.71964 0.54677 0.0
C3553 C 0.86127 0.70046 0.54707 0.0
C3554 C 0.85175 0.6894 0.53391 0.0
C3555 C 0.85654 0.69734 0.52059 0.0
C3556 C 0.85606 0.69187 0.56109 0.0
C3557 C 0.83836 0.68682 0.56542 0.0
C3558 C 0.86849 0.68906 0.57031 0.0
C3559 C 0.88763 0.69479 0.56661 0.0
C3560 C 0.89062 0.68737 0.55347 0.0
C3561 C 0.90875 0.69292 0.55013 0.0
C3562 C 0.92399 0.70577 0.55989 0.0
C3563 C 0.92113 0.71307 0.57303 0.0
C3564 C 0.90305 0.7076 0.57641 0.0
C3565 C 0.81566 0.64367 0.61607 0.0
C3566 C 0.82739 0.65303 0.62891 0.0
C3567 C 0.82182 0.64997 0.6025 0.0
C3568 C 0.83944 0.66638 0.60167 0.0
C3569 C 0.85149 0.67499 0.61448 0.0
C3570 C 0.84557 0.66812 0.62793 0.0
C3571 C 0.84488 0.67534 0.5877 0.0
C3572 C 0.86266 0.68062 0.5834 0.0
C3573 C 0.83279 0.6791 0.57879 0.0
C3574 C 0.81464 0.67578 0.58344 0.0
C3575 C 0.81369 0.68386 0.59712 0.0
C3576 C 0.79644 0.67963 0.60184 0.0
C3577 C 0.78005 0.6677 0.59286 0.0
C3578 C 0.78089 0.65998 0.57912 0.0
C3579 C 0.79809 0.66399 0.5744 0.0
H3580 H 0.76673 0.66456 0.59651 0.0
H3581 H 0.938 0.71002 0.55728 0.0
loop_
_geom_bond_atom_site_label_1
_geom_bond_atom_site_label_2
_geom_bond_distance
_geom_bond_site_symmetry_2
_ccdc_geom_bond_type
C0 C1 1.386 . S
C0 C2 1.397 . S
C0 H24 0.931 . S
C1 C0 1.386 . S
C1 C5 1.397 . S
C2 C0 1.397 . S
C2 C3 1.384 . S
C2 H25 0.930 . S
C3 C2 1.384 . S
C3 C4 1.377 . S
C3 C6 1.481 . S
C4 C3 1.377 . S
C4 C5 1.389 . S
C4 H26 0.929 . S
C5 C1 1.397 . S
C5 C4 1.389 . S
C5 H27 0.931 . S
C6 C3 1.481 . S
C6 C7 1.387 . S
C6 C11 1.390 . S
C7 C6 1.387 . S
C7 C8 1.401 . S
C7 H28 0.930 . S
C8 C7 1.401 . S
C8 C9 1.376 . S
C8 C17 1.511 . S
C9 C8 1.376 . S
C9 C10 1.392 . S
C9 H30 0.931 . S
C10 C9 1.392 . S
C10 C11 1.361 . S
C10 C12 1.500 . S
C11 C6 1.390 . S
C11 C10 1.361 . S
C11 H29 0.931 . S
C12 C10 1.500 . S
C12 C13 1.371 . S
C12 C14 1.365 . S
C13 C12 1.371 . S
C13 C23 1.386 . S
C13 H31 0.931 . S
C14 C12 1.365 . S
C14 C15 1.409 . S
C14 H32 0.929 . S
C15 C14 1.409 . S
C15 C16 1.380 . S
C15 H33 0.930 . S
C16 C15 1.380 . S
C16 C23 1.357 . S
C17 C8 1.511 . S
C17 C18 1.341 . S
C17 C19 1.371 . S
C18 C17 1.341 . S
C18 C22 1.394 . S
C18 H34 0.930 . S
C19 C17 1.371 . S
C19 C20 1.392 . S
C19 H35 0.931 . S
C20 C19 1.392 . S
C20 C21 1.331 . S
C20 H38 0.932 . S
C21 C20 1.331 . S
C21 C22 1.336 . S
C22 C18 1.394 . S
C22 C21 1.336 . S
C22 H37 0.929 . S
C23 C13 1.386 . S
C23 C16 1.357 . S
C23 H36 0.928 . S
H24 C0 0.931 . S
H25 C2 0.930 . S
H26 C4 0.929 . S
H27 C5 0.931 . S
H28 C7 0.930 . S
H29 C11 0.931 . S
H30 C9 0.931 . S
H31 C13 0.931 . S
H32 C14 0.929 . S
H33 C15 0.930 . S
H34 C18 0.930 . S
H35 C19 0.931 . S
H36 C23 0.928 . S
H37 C22 0.929 . S
H38 C20 0.932 . S
C39 C40 1.386 . S
C39 C41 1.397 . S
C39 H63 0.931 . S
C40 C39 1.386 . S
C40 C44 1.397 . S
C41 C39 1.397 . S
C41 C42 1.384 . S
C41 H64 0.930 . S
C42 C41 1.384 . S
C42 C43 1.377 . S
C42 C45 1.481 . S
C43 C42 1.377 . S
C43 C44 1.389 . S
C43 H65 0.929 . S
C44 C40 1.397 . S
C44 C43 1.389 . S
C44 H66 0.931 . S
C45 C42 1.481 . S
C45 C46 1.387 . S
C45 C50 1.390 . S
C46 C45 1.387 . S
C46 C47 1.401 . S
C46 H67 0.930 . S
C47 C46 1.401 . S
C47 C48 1.376 . S
C47 C56 1.511 . S
C48 C47 1.376 . S
C48 C49 1.392 . S
C48 H69 0.931 . S
C49 C48 1.392 . S
C49 C50 1.361 . S
C49 C51 1.500 . S
C50 C45 1.390 . S
C50 C49 1.361 . S
C50 H68 0.931 . S
C51 C49 1.500 . S
C51 C52 1.371 . S
C51 C53 1.365 . S
C52 C51 1.371 . S
C52 C62 1.386 . S
C52 H70 0.931 . S
C53 C51 1.365 . S
C53 C54 1.409 . S
C53 H71 0.929 . S
C54 C53 1.409 . S
C54 C55 1.380 . S
C54 H72 0.930 . S
C55 C54 1.380 . S
C55 C62 1.357 . S
C56 C47 1.511 . S
C56 C57 1.341 . S
C56 C58 1.371 . S
C57 C56 1.341 . S
C57 C61 1.394 . S
C57 H73 0.930 . S
C58 C56 1.371 . S
C58 C59 1.392 . S
C58 H74 0.931 . S
C59 C58 1.392 . S
C59 C60 1.331 . S
C59 H77 0.932 . S
C60 C59 1.331 . S
C60 C61 1.336 . S
C61 C57 1.394 . S
C61 C60 1.336 . S
C61 H76 0.929 . S
C62 C52 1.386 . S
C62 C55 1.357 . S
C62 H75 0.928 . S
H63 C39 0.931 . S
H64 C41 0.930 . S
H65 C43 0.929 . S
H66 C44 0.931 . S
H67 C46 0.930 . S
H68 C50 0.931 . S
H69 C48 0.931 . S
H70 C52 0.931 . S
H71 C53 0.929 . S
H72 C54 0.930 . S
H73 C57 0.930 . S
H74 C58 0.931 . S
H75 C62 0.928 . S
H76 C61 0.929 . S
H77 C59 0.932 . S
C78 C79 1.386 . S
C78 C80 1.397 . S
C78 H102 0.931 . S
C79 C78 1.386 . S
C79 C83 1.397 . S
C80 C78 1.397 . S
C80 C81 1.384 . S
C80 H103 0.930 . S
C81 C80 1.384 . S
C81 C82 1.377 . S
C81 C84 1.481 . S
C82 C81 1.377 . S
C82 C83 1.389 . S
C82 H104 0.929 . S
C83 C79 1.397 . S
C83 C82 1.389 . S
C83 H105 0.931 . S
C84 C81 1.481 . S
C84 C85 1.387 . S
C84 C89 1.390 . S
C85 C84 1.387 . S
C85 C86 1.401 . S
C85 H106 0.930 . S
C86 C85 1.401 . S
C86 C87 1.376 . S
C86 C95 1.511 . S
C87 C86 1.376 . S
C87 C88 1.392 . S
C87 H108 0.931 . S
C88 C87 1.392 . S
C88 C89 1.361 . S
C88 C90 1.500 . S
C89 C84 1.390 . S
C89 C88 1.361 . S
C89 H107 0.931 . S
C90 C88 1.500 . S
C90 C91 1.371 . S
C90 C92 1.365 . S
C91 C90 1.371 . S
C91 C101 1.386 . S
C91 H109 0.931 . S
C92 C90 1.365 . S
C92 C93 1.409 . S
C92 H110 0.929 . S
C93 C92 1.409 . S
C93 C94 1.380 . S
C93 H111 0.930 . S
C94 C93 1.380 . S
C94 C101 1.357 . S
C95 C86 1.511 . S
C95 C96 1.341 . S
C95 C97 1.371 . S
C96 C95 1.341 . S
C96 C100 1.394 . S
C96 H112 0.930 . S
C97 C95 1.371 . S
C97 C98 1.392 . S
C97 H113 0.931 . S
C98 C97 1.392 . S
C98 C99 1.331 . S
C98 H116 0.932 . S
C99 C98 1.331 . S
C99 C100 1.336 . S
C100 C96 1.394 . S
C100 C99 1.336 . S
C100 H115 0.929 . S
C101 C91 1.386 . S
C101 C94 1.357 . S
C101 H114 0.928 . S
H102 C78 0.931 . S
H103 C80 0.930 . S
H104 C82 0.929 . S
H105 C83 0.931 . S
H106 C85 0.930 . S
H107 C89 0.931 . S
H108 C87 0.931 . S
H109 C91 0.931 . S
H110 C92 0.929 . S
H111 C93 0.930 . S
H112 C96 0.930 . S
H113 C97 0.931 . S
H114 C101 0.928 . S
H115 C100 0.929 . S
H116 C98 0.932 . S
C117 C118 1.386 . S
C117 C119 1.397 . S
C117 H141 0.931 . S
C118 C117 1.386 . S
C118 C122 1.397 . S
C119 C117 1.397 . S
C119 C120 1.384 . S
C119 H142 0.930 . S
C120 C119 1.384 . S
C120 C121 1.377 . S
C120 C123 1.481 . S
C121 C120 1.377 . S
C121 C122 1.389 . S
C121 H143 0.929 . S
C122 C118 1.397 . S
C122 C121 1.389 . S
C122 H144 0.931 . S
C123 C120 1.481 . S
C123 C124 1.387 . S
C123 C128 1.390 . S
C124 C123 1.387 . S
C124 C125 1.401 . S
C124 H145 0.930 . S
C125 C124 1.401 . S
C125 C126 1.376 . S
C125 C134 1.511 . S
C126 C125 1.376 . S
C126 C127 1.392 . S
C126 H147 0.931 . S
C127 C126 1.392 . S
C127 C128 1.361 . S
C127 C129 1.500 . S
C128 C123 1.390 . S
C128 C127 1.361 . S
C128 H146 0.931 . S
C129 C127 1.500 . S
C129 C130 1.371 . S
C129 C131 1.365 . S
C130 C129 1.371 . S
C130 C140 1.386 . S
C130 H148 0.931 . S
C131 C129 1.365 . S
C131 C132 1.409 . S
C131 H149 0.929 . S
C132 C131 1.409 . S
C132 C133 1.380 . S
C132 H150 0.930 . S
C133 C132 1.380 . S
C133 C140 1.357 . S
C134 C125 1.511 . S
C134 C135 1.341 . S
C134 C136 1.371 . S
C135 C134 1.341 . S
C135 C139 1.394 . S
C135 H151 0.930 . S
C136 C134 1.371 . S
C136 C137 1.392 . S
C136 H152 0.931 . S
C137 C136 1.392 . S
C137 C138 1.331 . S
C137 H155 0.932 . S
C138 C137 1.331 . S
C138 C139 1.336 . S
C139 C135 1.394 . S
C139 C138 1.336 . S
C139 H154 0.929 . S
C140 C130 1.386 . S
C140 C133 1.357 . S
C140 H153 0.928 . S
H141 C117 0.931 . S
H142 C119 0.930 . S
H143 C121 0.929 . S
H144 C122 0.931 . S
H145 C124 0.930 . S
H146 C128 0.931 . S
H147 C126 0.931 . S
H148 C130 0.931 . S
H149 C131 0.929 . S
H150 C132 0.930 . S
H151 C135 0.930 . S
H152 C136 0.931 . S
H153 C140 0.928 . S
H154 C139 0.929 . S
H155 C137 0.932 . S
C156 C157 1.386 . S
C156 C158 1.397 . S
C156 H180 0.931 . S
C157 C156 1.386 . S
C157 C161 1.397 . S
C158 C156 1.397 . S
C158 C159 1.384 . S
C158 H181 0.930 . S
C159 C158 1.384 . S
C159 C160 1.377 . S
C159 C162 1.481 . S
C160 C159 1.377 . S
C160 C161 1.389 . S
C160 H182 0.929 . S
C161 C157 1.397 . S
C161 C160 1.389 . S
C161 H183 0.931 . S
C162 C159 1.481 . S
C162 C163 1.387 . S
C162 C167 1.390 . S
C163 C162 1.387 . S
C163 C164 1.401 . S
C163 H184 0.930 . S
C164 C163 1.401 . S
C164 C165 1.376 . S
C164 C173 1.511 . S
C165 C164 1.376 . S
C165 C166 1.392 . S
C165 H186 0.931 . S
C166 C165 1.392 . S
C166 C167 1.361 . S
C166 C168 1.500 . S
C167 C162 1.390 . S
C167 C166 1.361 . S
C167 H185 0.931 . S
C168 C166 1.500 . S
C168 C169 1.371 . S
C168 C170 1.365 . S
C169 C168 1.371 . S
C169 C179 1.386 . S
C169 H187 0.931 . S
C170 C168 1.365 . S
C170 C171 1.409 . S
C170 H188 0.929 . S
C171 C170 1.409 . S
C171 C172 1.380 . S
C171 H189 0.930 . S
C172 C171 1.380 . S
C172 C179 1.357 . S
C173 C164 1.511 . S
C173 C174 1.341 . S
C173 C175 1.371 . S
C174 C173 1.341 . S
C174 C178 1.394 . S
C174 H190 0.930 . S
C175 C173 1.371 . S
C175 C176 1.392 . S
C175 H191 0.931 . S
C176 C175 1.392 . S
C176 C177 1.331 . S
C176 H194 0.932 . S
C177 C176 1.331 . S
C177 C178 1.336 . S
C178 C174 1.394 . S
C178 C177 1.336 . S
C178 H193 0.929 . S
C179 C169 1.386 . S
C179 C172 1.357 . S
C179 H192 0.928 . S
H180 C156 0.931 . S
H181 C158 0.930 . S
H182 C160 0.929 . S
H183 C161 0.931 . S
H184 C163 0.930 . S
H185 C167 0.931 . S
H186 C165 0.931 . S
H187 C169 0.931 . S
H188 C170 0.929 . S
H189 C171 0.930 . S
H190 C174 0.930 . S
H191 C175 0.931 . S
H192 C179 0.928 . S
H193 C178 0.929 . S
H194 C176 0.932 . S
C195 C196 1.386 . S
C195 C197 1.397 . S
C195 H219 0.931 . S
C196 C195 1.386 . S
C196 C200 1.397 . S
C197 C195 1.397 . S
C197 C198 1.384 . S
C197 H220 0.930 . S
C198 C197 1.384 . S
C198 C199 1.377 . S
C198 C201 1.481 . S
C199 C198 1.377 . S
C199 C200 1.389 . S
C199 H221 0.929 . S
C200 C196 1.397 . S
C200 C199 1.389 . S
C200 H222 0.931 . S
C201 C198 1.481 . S
C201 C202 1.387 . S
C201 C206 1.390 . S
C202 C201 1.387 . S
C202 C203 1.401 . S
C202 H223 0.930 . S
C203 C202 1.401 . S
C203 C204 1.376 . S
C203 C212 1.511 . S
C204 C203 1.376 . S
C204 C205 1.392 . S
C204 H225 0.931 . S
C205 C204 1.392 . S
C205 C206 1.361 . S
C205 C207 1.500 . S
C206 C201 1.390 . S
C206 C205 1.361 . S
C206 H224 0.931 . S
C207 C205 1.500 . S
C207 C208 1.371 . S
C207 C209 1.365 . S
C208 C207 1.371 . S
C208 C218 1.386 . S
C208 H226 0.931 . S
C209 C207 1.365 . S
C209 C210 1.409 . S
C209 H227 0.929 . S
C210 C209 1.409 . S
C210 C211 1.380 . S
C210 H228 0.930 . S
C211 C210 1.380 . S
C211 C218 1.357 . S
C212 C203 1.511 . S
C212 C213 1.341 . S
C212 C214 1.371 . S
C213 C212 1.341 . S
C213 C217 1.394 . S
C213 H229 0.930 . S
C214 C212 1.371 . S
C214 C215 1.392 . S
C214 H230 0.931 . S
C215 C214 1.392 . S
C215 C216 1.331 . S
C215 H233 0.932 . S
C216 C215 1.331 . S
C216 C217 1.336 . S
C217 C213 1.394 . S
C217 C216 1.336 . S
C217 H232 0.929 . S
C218 C208 1.386 . S
C218 C211 1.357 . S
C218 H231 0.928 . S
H219 C195 0.931 . S
H220 C197 0.930 . S
H221 C199 0.929 . S
H222 C200 0.931 . S
H223 C202 0.930 . S
H224 C206 0.931 . S
H225 C204 0.931 . S
H226 C208 0.931 . S
H227 C209 0.929 . S
H228 C210 0.930 . S
H229 C213 0.930 . S
H230 C214 0.931 . S
H231 C218 0.928 . S
H232 C217 0.929 . S
H233 C215 0.932 . S
C234 C235 1.386 . S
C234 C236 1.397 . S
C234 H258 0.931 . S
C235 C234 1.386 . S
C235 C239 1.397 . S
C236 C234 1.397 . S
C236 C237 1.384 . S
C236 H259 0.930 . S
C237 C236 1.384 . S
C237 C238 1.377 . S
C237 C240 1.481 . S
C238 C237 1.377 . S
C238 C239 1.389 . S
C238 H260 0.929 . S
C239 C235 1.397 . S
C239 C238 1.389 . S
C239 H261 0.931 . S
C240 C237 1.481 . S
C240 C241 1.387 . S
C240 C245 1.390 . S
C241 C240 1.387 . S
C241 C242 1.401 . S
C241 H262 0.930 . S
C242 C241 1.401 . S
C242 C243 1.376 . S
C242 C251 1.511 . S
C243 C242 1.376 . S
C243 C244 1.392 . S
C243 H264 0.931 . S
C244 C243 1.392 . S
C244 C245 1.361 . S
C244 C246 1.500 . S
C245 C240 1.390 . S
C245 C244 1.361 . S
C245 H263 0.931 . S
C246 C244 1.500 . S
C246 C247 1.371 . S
C246 C248 1.365 . S
C247 C246 1.371 . S
C247 C257 1.386 . S
C247 H265 0.931 . S
C248 C246 1.365 . S
C248 C249 1.409 . S
C248 H266 0.929 . S
C249 C248 1.409 . S
C249 C250 1.380 . S
C249 H267 0.930 . S
C250 C249 1.380 . S
C250 C257 1.357 . S
C251 C242 1.511 . S
C251 C252 1.341 . S
C251 C253 1.371 . S
C252 C251 1.341 . S
C252 C256 1.394 . S
C252 H268 0.930 . S
C253 C251 1.371 . S
C253 C254 1.392 . S
C253 H269 0.931 . S
C254 C253 1.392 . S
C254 C255 1.331 . S
C254 H272 0.932 . S
C255 C254 1.331 . S
C255 C256 1.336 . S
C256 C252 1.394 . S
C256 C255 1.336 . S
C256 H271 0.929 . S
C257 C247 1.386 . S
C257 C250 1.357 . S
C257 H270 0.928 . S
H258 C234 0.931 . S
H259 C236 0.930 . S
H260 C238 0.929 . S
H261 C239 0.931 . S
H262 C241 0.930 . S
H263 C245 0.931 . S
H264 C243 0.931 . S
H265 C247 0.931 . S
H266 C248 0.929 . S
H267 C249 0.930 . S
H268 C252 0.930 . S
H269 C253 0.931 . S
H270 C257 0.928 . S
H271 C256 0.929 . S
H272 C254 0.932 . S
C273 C274 1.386 . S
C273 C275 1.397 . S
C273 H297 0.931 . S
C274 C273 1.386 . S
C274 C278 1.397 . S
C275 C273 1.397 . S
C275 C276 1.384 . S
C275 H298 0.930 . S
C276 C275 1.384 . S
C276 C277 1.377 . S
C276 C279 1.481 . S
C277 C276 1.377 . S
C277 C278 1.389 . S
C277 H299 0.929 . S
C278 C274 1.397 . S
C278 C277 1.389 . S
C278 H300 0.931 . S
C279 C276 1.481 . S
C279 C280 1.387 . S
C279 C284 1.390 . S
C280 C279 1.387 . S
C280 C281 1.401 . S
C280 H301 0.930 . S
C281 C280 1.401 . S
C281 C282 1.376 . S
C281 C290 1.511 . S
C282 C281 1.376 . S
C282 C283 1.392 . S
C282 H303 0.931 . S
C283 C282 1.392 . S
C283 C284 1.361 . S
C283 C285 1.500 . S
C284 C279 1.390 . S
C284 C283 1.361 . S
C284 H302 0.931 . S
C285 C283 1.500 . S
C285 C286 1.371 . S
C285 C287 1.365 . S
C286 C285 1.371 . S
C286 C296 1.386 . S
C286 H304 0.931 . S
C287 C285 1.365 . S
C287 C288 1.409 . S
C287 H305 0.929 . S
C288 C287 1.409 . S
C288 C289 1.380 . S
C288 H306 0.930 . S
C289 C288 1.380 . S
C289 C296 1.357 . S
C290 C281 1.511 . S
C290 C291 1.341 . S
C290 C292 1.371 . S
C291 C290 1.341 . S
C291 C295 1.394 . S
C291 H307 0.930 . S
C292 C290 1.371 . S
C292 C293 1.392 . S
C292 H308 0.931 . S
C293 C292 1.392 . S
C293 C294 1.331 . S
C293 H311 0.932 . S
C294 C293 1.331 . S
C294 C295 1.336 . S
C295 C291 1.394 . S
C295 C294 1.336 . S
C295 H310 0.929 . S
C296 C286 1.386 . S
C296 C289 1.357 . S
C296 H309 0.928 . S
H297 C273 0.931 . S
H298 C275 0.930 . S
H299 C277 0.929 . S
H300 C278 0.931 . S
H301 C280 0.930 . S
H302 C284 0.931 . S
H303 C282 0.931 . S
H304 C286 0.931 . S
H305 C287 0.929 . S
H306 C288 0.930 . S
H307 C291 0.930 . S
H308 C292 0.931 . S
H309 C296 0.928 . S
H310 C295 0.929 . S
H311 C293 0.932 . S
C312 C313 1.386 . S
C312 C314 1.397 . S
C312 H336 0.931 . S
C313 C312 1.386 . S
C313 C317 1.397 . S
C314 C312 1.397 . S
C314 C315 1.384 . S
C314 H337 0.930 . S
C315 C314 1.384 . S
C315 C316 1.377 . S
C315 C318 1.481 . S
C316 C315 1.377 . S
C316 C317 1.389 . S
C316 H338 0.929 . S
C317 C313 1.397 . S
C317 C316 1.389 . S
C317 H339 0.931 . S
C318 C315 1.481 . S
C318 C319 1.387 . S
C318 C323 1.390 . S
C319 C318 1.387 . S
C319 C320 1.401 . S
C319 H340 0.930 . S
C320 C319 1.401 . S
C320 C321 1.376 . S
C320 C329 1.511 . S
C321 C320 1.376 . S
C321 C322 1.392 . S
C321 H342 0.931 . S
C322 C321 1.392 . S
C322 C323 1.361 . S
C322 C324 1.500 . S
C323 C318 1.390 . S
C323 C322 1.361 . S
C323 H341 0.931 . S
C324 C322 1.500 . S
C324 C325 1.371 . S
C324 C326 1.365 . S
C325 C324 1.371 . S
C325 C335 1.386 . S
C325 H343 0.931 . S
C326 C324 1.365 . S
C326 C327 1.409 . S
C326 H344 0.929 . S
C327 C326 1.409 . S
C327 C328 1.380 . S
C327 H345 0.930 . S
C328 C327 1.380 . S
C328 C335 1.357 . S
C329 C320 1.511 . S
C329 C330 1.341 . S
C329 C331 1.371 . S
C330 C329 1.341 . S
C330 C334 1.394 . S
C330 H346 0.930 . S
C331 C329 1.371 . S
C331 C332 1.392 . S
C331 H347 0.931 . S
C332 C331 1.392 . S
C332 C333 1.331 . S
C332 H350 0.932 . S
C333 C332 1.331 . S
C333 C334 1.336 . S
C334 C330 1.394 . S
C334 C333 1.336 . S
C334 H349 0.929 . S
C335 C325 1.386 . S
C335 C328 1.357 . S
C335 H348 0.928 . S
H336 C312 0.931 . S
H337 C314 0.930 . S
H338 C316 0.929 . S
H339 C317 0.931 . S
H340 C319 0.930 . S
H341 C323 0.931 . S
H342 C321 0.931 . S
H343 C325 0.931 . S
H344 C326 0.929 . S
H345 C327 0.930 . S
H346 C330 0.930 . S
H347 C331 0.931 . S
H348 C335 0.928 . S
H349 C334 0.929 . S
H350 C332 0.932 . S
C351 C352 1.386 . S
C351 C353 1.397 . S
C351 H375 0.931 . S
C352 C351 1.386 . S
C352 C356 1.397 . S
C353 C351 1.397 . S
C353 C354 1.384 . S
C353 H376 0.930 . S
C354 C353 1.384 . S
C354 C355 1.377 . S
C354 C357 1.481 . S
C355 C354 1.377 . S
C355 C356 1.389 . S
C355 H377 0.929 . S
C356 C352 1.397 . S
C356 C355 1.389 . S
C356 H378 0.931 . S
C357 C354 1.481 . S
C357 C358 1.387 . S
C357 C362 1.390 . S
C358 C357 1.387 . S
C358 C359 1.401 . S
C358 H379 0.930 . S
C359 C358 1.401 . S
C359 C360 1.376 . S
C359 C368 1.511 . S
C360 C359 1.376 . S
C360 C361 1.392 . S
C360 H381 0.931 . S
C361 C360 1.392 . S
C361 C362 1.361 . S
C361 C363 1.500 . S
C362 C357 1.390 . S
C362 C361 1.361 . S
C362 H380 0.931 . S
C363 C361 1.500 . S
C363 C364 1.371 . S
C363 C365 1.365 . S
C364 C363 1.371 . S
C364 C374 1.386 . S
C364 H382 0.931 . S
C365 C363 1.365 . S
C365 C366 1.409 . S
C365 H383 0.929 . S
C366 C365 1.409 . S
C366 C367 1.380 . S
C366 H384 0.930 . S
C367 C366 1.380 . S
C367 C374 1.357 . S
C368 C359 1.511 . S
C368 C369 1.341 . S
C368 C370 1.371 . S
C369 C368 1.341 . S
C369 C373 1.394 . S
C369 H385 0.930 . S
C370 C368 1.371 . S
C370 C371 1.392 . S
C370 H386 0.931 . S
C371 C370 1.392 . S
C371 C372 1.331 . S
C371 H389 0.932 . S
C372 C371 1.331 . S
C372 C373 1.336 . S
C373 C369 1.394 . S
C373 C372 1.336 . S
C373 H388 0.929 . S
C374 C364 1.386 . S
C374 C367 1.357 . S
C374 H387 0.928 . S
H375 C351 0.931 . S
H376 C353 0.930 . S
H377 C355 0.929 . S
H378 C356 0.931 . S
H379 C358 0.930 . S
H380 C362 0.931 . S
H381 C360 0.931 . S
H382 C364 0.931 . S
H383 C365 0.929 . S
H384 C366 0.930 . S
H385 C369 0.930 . S
H386 C370 0.931 . S
H387 C374 0.928 . S
H388 C373 0.929 . S
H389 C371 0.932 . S
C390 C391 1.386 . S
C390 C392 1.397 . S
C390 H414 0.931 . S
C391 C390 1.386 . S
C391 C395 1.397 . S
C392 C390 1.397 . S
C392 C393 1.384 . S
C392 H415 0.930 . S
C393 C392 1.384 . S
C393 C394 1.377 . S
C393 C396 1.481 . S
C394 C393 1.377 . S
C394 C395 1.389 . S
C394 H416 0.929 . S
C395 C391 1.397 . S
C395 C394 1.389 . S
C395 H417 0.931 . S
C396 C393 1.481 . S
C396 C397 1.387 . S
C396 C401 1.390 . S
C397 C396 1.387 . S
C397 C398 1.401 . S
C397 H418 0.930 . S
C398 C397 1.401 . S
C398 C399 1.376 . S
C398 C407 1.511 . S
C399 C398 1.376 . S
C399 C400 1.392 . S
C399 H420 0.931 . S
C400 C399 1.392 . S
C400 C401 1.361 . S
C400 C402 1.500 . S
C401 C396 1.390 . S
C401 C400 1.361 . S
C401 H419 0.931 . S
C402 C400 1.500 . S
C402 C403 1.371 . S
C402 C404 1.365 . S
C403 C402 1.371 . S
C403 C413 1.386 . S
C403 H421 0.931 . S
C404 C402 1.365 . S
C404 C405 1.409 . S
C404 H422 0.929 . S
C405 C404 1.409 . S
C405 C406 1.380 . S
C405 H423 0.930 . S
C406 C405 1.380 . S
C406 C413 1.357 . S
C407 C398 1.511 . S
C407 C408 1.341 . S
C407 C409 1.371 . S
C408 C407 1.341 . S
C408 C412 1.394 . S
C408 H424 0.930 . S
C409 C407 1.371 . S
C409 C410 1.392 . S
C409 H425 0.931 . S
C410 C409 1.392 . S
C410 C411 1.331 . S
C410 H428 0.932 . S
C411 C410 1.331 . S
C411 C412 1.336 . S
C412 C408 1.394 . S
C412 C411 1.336 . S
C412 H427 0.929 . S
C413 C403 1.386 . S
C413 C406 1.357 . S
C413 H426 0.928 . S
H414 C390 0.931 . S
H415 C392 0.930 . S
H416 C394 0.929 . S
H417 C395 0.931 . S
H418 C397 0.930 . S
H419 C401 0.931 . S
H420 C399 0.931 . S
H421 C403 0.931 . S
H422 C404 0.929 . S
H423 C405 0.930 . S
H424 C408 0.930 . S
H425 C409 0.931 . S
H426 C413 0.928 . S
H427 C412 0.929 . S
H428 C410 0.932 . S
C429 C430 1.386 . S
C429 C431 1.397 . S
C429 H453 0.931 . S
C430 C429 1.386 . S
C430 C434 1.397 . S
C431 C429 1.397 . S
C431 C432 1.384 . S
C431 H454 0.930 . S
C432 C431 1.384 . S
C432 C433 1.377 . S
C432 C435 1.481 . S
C433 C432 1.377 . S
C433 C434 1.389 . S
C433 H455 0.929 . S
C434 C430 1.397 . S
C434 C433 1.389 . S
C434 H456 0.931 . S
C435 C432 1.481 . S
C435 C436 1.387 . S
C435 C440 1.390 . S
C436 C435 1.387 . S
C436 C437 1.401 . S
C436 H457 0.930 . S
C437 C436 1.401 . S
C437 C438 1.376 . S
C437 C446 1.511 . S
C438 C437 1.376 . S
C438 C439 1.392 . S
C438 H459 0.931 . S
C439 C438 1.392 . S
C439 C440 1.361 . S
C439 C441 1.500 . S
C440 C435 1.390 . S
C440 C439 1.361 . S
C440 H458 0.931 . S
C441 C439 1.500 . S
C441 C442 1.371 . S
C441 C443 1.365 . S
C442 C441 1.371 . S
C442 C452 1.386 . S
C442 H460 0.931 . S
C443 C441 1.365 . S
C443 C444 1.409 . S
C443 H461 0.929 . S
C444 C443 1.409 . S
C444 C445 1.380 . S
C444 H462 0.930 . S
C445 C444 1.380 . S
C445 C452 1.357 . S
C446 C437 1.511 . S
C446 C447 1.341 . S
C446 C448 1.371 . S
C447 C446 1.341 . S
C447 C451 1.394 . S
C447 H463 0.930 . S
C448 C446 1.371 . S
C448 C449 1.392 . S
C448 H464 0.931 . S
C449 C448 1.392 . S
C449 C450 1.331 . S
C449 H467 0.932 . S
C450 C449 1.331 . S
C450 C451 1.336 . S
C451 C447 1.394 . S
C451 C450 1.336 . S
C451 H466 0.929 . S
C452 C442 1.386 . S
C452 C445 1.357 . S
C452 H465 0.928 . S
H453 C429 0.931 . S
H454 C431 0.930 . S
H455 C433 0.929 . S
H456 C434 0.931 . S
H457 C436 0.930 . S
H458 C440 0.931 . S
H459 C438 0.931 . S
H460 C442 0.931 . S
H461 C443 0.929 . S
H462 C444 0.930 . S
H463 C447 0.930 . S
H464 C448 0.931 . S
H465 C452 0.928 . S
H466 C451 0.929 . S
H467 C449 0.932 . S
C468 C469 1.386 . S
C468 C470 1.397 . S
C468 H492 0.931 . S
C469 C468 1.386 . S
C469 C473 1.397 . S
C470 C468 1.397 . S
C470 C471 1.384 . S
C470 H493 0.930 . S
C471 C470 1.384 . S
C471 C472 1.377 . S
C471 C474 1.481 . S
C472 C471 1.377 . S
C472 C473 1.389 . S
C472 H494 0.929 . S
C473 C469 1.397 . S
C473 C472 1.389 . S
C473 H495 0.931 . S
C474 C471 1.481 . S
C474 C475 1.387 . S
C474 C479 1.390 . S
C475 C474 1.387 . S
C475 C476 1.401 . S
C475 H496 0.930 . S
C476 C475 1.401 . S
C476 C477 1.376 . S
C476 C485 1.511 . S
C477 C476 1.376 . S
C477 C478 1.392 . S
C477 H498 0.931 . S
C478 C477 1.392 . S
C478 C479 1.361 . S
C478 C480 1.500 . S
C479 C474 1.390 . S
C479 C478 1.361 . S
C479 H497 0.931 . S
C480 C478 1.500 . S
C480 C481 1.371 . S
C480 C482 1.365 . S
C481 C480 1.371 . S
C481 C491 1.386 . S
C481 H499 0.931 . S
C482 C480 1.365 . S
C482 C483 1.409 . S
C482 H500 0.929 . S
C483 C482 1.409 . S
C483 C484 1.380 . S
C483 H501 0.930 . S
C484 C483 1.380 . S
C484 C491 1.357 . S
C485 C476 1.511 . S
C485 C486 1.341 . S
C485 C487 1.371 . S
C486 C485 1.341 . S
C486 C490 1.394 . S
C486 H502 0.930 . S
C487 C485 1.371 . S
C487 C488 1.392 . S
C487 H503 0.931 . S
C488 C487 1.392 . S
C488 C489 1.331 . S
C488 H506 0.932 . S
C489 C488 1.331 . S
C489 C490 1.336 . S
C490 C486 1.394 . S
C490 C489 1.336 . S
C490 H505 0.929 . S
C491 C481 1.386 . S
C491 C484 1.357 . S
C491 H504 0.928 . S
H492 C468 0.931 . S
H493 C470 0.930 . S
H494 C472 0.929 . S
H495 C473 0.931 . S
H496 C475 0.930 . S
H497 C479 0.931 . S
H498 C477 0.931 . S
H499 C481 0.931 . S
H500 C482 0.929 . S
H501 C483 0.930 . S
H502 C486 0.930 . S
H503 C487 0.931 . S
H504 C491 0.928 . S
H505 C490 0.929 . S
H506 C488 0.932 . S
C507 C508 1.386 . S
C507 C509 1.397 . S
C507 H531 0.931 . S
C508 C507 1.386 . S
C508 C512 1.397 . S
C509 C507 1.397 . S
C509 C510 1.384 . S
C509 H532 0.930 . S
C510 C509 1.384 . S
C510 C511 1.377 . S
C510 C513 1.481 . S
C511 C510 1.377 . S
C511 C512 1.389 . S
C511 H533 0.929 . S
C512 C508 1.397 . S
C512 C511 1.389 . S
C512 H534 0.931 . S
C513 C510 1.481 . S
C513 C514 1.387 . S
C513 C518 1.390 . S
C514 C513 1.387 . S
C514 C515 1.401 . S
C514 H535 0.930 . S
C515 C514 1.401 . S
C515 C516 1.376 . S
C515 C524 1.511 . S
C516 C515 1.376 . S
C516 C517 1.392 . S
C516 H537 0.931 . S
C517 C516 1.392 . S
C517 C518 1.361 . S
C517 C519 1.500 . S
C518 C513 1.390 . S
C518 C517 1.361 . S
C518 H536 0.931 . S
C519 C517 1.500 . S
C519 C520 1.371 . S
C519 C521 1.365 . S
C520 C519 1.371 . S
C520 C530 1.386 . S
C520 H538 0.931 . S
C521 C519 1.365 . S
C521 C522 1.409 . S
C521 H539 0.929 . S
C522 C521 1.409 . S
C522 C523 1.380 . S
C522 H540 0.930 . S
C523 C522 1.380 . S
C523 C530 1.357 . S
C524 C515 1.511 . S
C524 C525 1.341 . S
C524 C526 1.371 . S
C525 C524 1.341 . S
C525 C529 1.394 . S
C525 H541 0.930 . S
C526 C524 1.371 . S
C526 C527 1.392 . S
C526 H542 0.931 . S
C527 C526 1.392 . S
C527 C528 1.331 . S
C527 H545 0.932 . S
C528 C527 1.331 . S
C528 C529 1.336 . S
C529 C525 1.394 . S
C529 C528 1.336 . S
C529 H544 0.929 . S
C530 C520 1.386 . S
C530 C523 1.357 . S
C530 H543 0.928 . S
H531 C507 0.931 . S
H532 C509 0.930 . S
H533 C511 0.929 . S
H534 C512 0.931 . S
H535 C514 0.930 . S
H536 C518 0.931 . S
H537 C516 0.931 . S
H538 C520 0.931 . S
H539 C521 0.929 . S
H540 C522 0.930 . S
H541 C525 0.930 . S
H542 C526 0.931 . S
H543 C530 0.928 . S
H544 C529 0.929 . S
H545 C527 0.932 . S
C546 C547 1.386 . S
C546 C548 1.397 . S
C546 H570 0.931 . S
C547 C546 1.386 . S
C547 C551 1.397 . S
C548 C546 1.397 . S
C548 C549 1.384 . S
C548 H571 0.930 . S
C549 C548 1.384 . S
C549 C550 1.377 . S
C549 C552 1.481 . S
C550 C549 1.377 . S
C550 C551 1.389 . S
C550 H572 0.929 . S
C551 C547 1.397 . S
C551 C550 1.389 . S
C551 H573 0.931 . S
C552 C549 1.481 . S
C552 C553 1.387 . S
C552 C557 1.390 . S
C553 C552 1.387 . S
C553 C554 1.401 . S
C553 H574 0.930 . S
C554 C553 1.401 . S
C554 C555 1.376 . S
C554 C563 1.511 . S
C555 C554 1.376 . S
C555 C556 1.392 . S
C555 H576 0.931 . S
C556 C555 1.392 . S
C556 C557 1.361 . S
C556 C558 1.500 . S
C557 C552 1.390 . S
C557 C556 1.361 . S
C557 H575 0.931 . S
C558 C556 1.500 . S
C558 C559 1.371 . S
C558 C560 1.365 . S
C559 C558 1.371 . S
C559 C569 1.386 . S
C559 H577 0.931 . S
C560 C558 1.365 . S
C560 C561 1.409 . S
C560 H578 0.929 . S
C561 C560 1.409 . S
C561 C562 1.380 . S
C561 H579 0.930 . S
C562 C561 1.380 . S
C562 C569 1.357 . S
C563 C554 1.511 . S
C563 C564 1.341 . S
C563 C565 1.371 . S
C564 C563 1.341 . S
C564 C568 1.394 . S
C564 H580 0.930 . S
C565 C563 1.371 . S
C565 C566 1.392 . S
C565 H581 0.931 . S
C566 C565 1.392 . S
C566 C567 1.331 . S
C566 H584 0.932 . S
C567 C566 1.331 . S
C567 C568 1.336 . S
C568 C564 1.394 . S
C568 C567 1.336 . S
C568 H583 0.929 . S
C569 C559 1.386 . S
C569 C562 1.357 . S
C569 H582 0.928 . S
H570 C546 0.931 . S
H571 C548 0.930 . S
H572 C550 0.929 . S
H573 C551 0.931 . S
H574 C553 0.930 . S
H575 C557 0.931 . S
H576 C555 0.931 . S
H577 C559 0.931 . S
H578 C560 0.929 . S
H579 C561 0.930 . S
H580 C564 0.930 . S
H581 C565 0.931 . S
H582 C569 0.928 . S
H583 C568 0.929 . S
H584 C566 0.932 . S
C585 C586 1.386 . S
C585 C587 1.397 . S
C585 H609 0.931 . S
C586 C585 1.386 . S
C586 C590 1.397 . S
C587 C585 1.397 . S
C587 C588 1.384 . S
C587 H610 0.930 . S
C588 C587 1.384 . S
C588 C589 1.377 . S
C588 C591 1.481 . S
C589 C588 1.377 . S
C589 C590 1.389 . S
C589 H611 0.929 . S
C590 C586 1.397 . S
C590 C589 1.389 . S
C590 H612 0.931 . S
C591 C588 1.481 . S
C591 C592 1.387 . S
C591 C596 1.390 . S
C592 C591 1.387 . S
C592 C593 1.401 . S
C592 H613 0.930 . S
C593 C592 1.401 . S
C593 C594 1.376 . S
C593 C602 1.511 . S
C594 C593 1.376 . S
C594 C595 1.392 . S
C594 H615 0.931 . S
C595 C594 1.392 . S
C595 C596 1.361 . S
C595 C597 1.500 . S
C596 C591 1.390 . S
C596 C595 1.361 . S
C596 H614 0.931 . S
C597 C595 1.500 . S
C597 C598 1.371 . S
C597 C599 1.365 . S
C598 C597 1.371 . S
C598 C608 1.386 . S
C598 H616 0.931 . S
C599 C597 1.365 . S
C599 C600 1.409 . S
C599 H617 0.929 . S
C600 C599 1.409 . S
C600 C601 1.380 . S
C600 H618 0.930 . S
C601 C600 1.380 . S
C601 C608 1.357 . S
C602 C593 1.511 . S
C602 C603 1.341 . S
C602 C604 1.371 . S
C603 C602 1.341 . S
C603 C607 1.394 . S
C603 H619 0.930 . S
C604 C602 1.371 . S
C604 C605 1.392 . S
C604 H620 0.931 . S
C605 C604 1.392 . S
C605 C606 1.331 . S
C605 H623 0.932 . S
C606 C605 1.331 . S
C606 C607 1.336 . S
C607 C603 1.394 . S
C607 C606 1.336 . S
C607 H622 0.929 . S
C608 C598 1.386 . S
C608 C601 1.357 . S
C608 H621 0.928 . S
H609 C585 0.931 . S
H610 C587 0.930 . S
H611 C589 0.929 . S
H612 C590 0.931 . S
H613 C592 0.930 . S
H614 C596 0.931 . S
H615 C594 0.931 . S
H616 C598 0.931 . S
H617 C599 0.929 . S
H618 C600 0.930 . S
H619 C603 0.930 . S
H620 C604 0.931 . S
H621 C608 0.928 . S
H622 C607 0.929 . S
H623 C605 0.932 . S
C624 C625 1.386 . S
C624 C626 1.397 . S
C624 H648 0.931 . S
C625 C624 1.386 . S
C625 C629 1.397 . S
C626 C624 1.397 . S
C626 C627 1.384 . S
C626 H649 0.930 . S
C627 C626 1.384 . S
C627 C628 1.377 . S
C627 C630 1.481 . S
C628 C627 1.377 . S
C628 C629 1.389 . S
C628 H650 0.929 . S
C629 C625 1.397 . S
C629 C628 1.389 . S
C629 H651 0.931 . S
C630 C627 1.481 . S
C630 C631 1.387 . S
C630 C635 1.390 . S
C631 C630 1.387 . S
C631 C632 1.401 . S
C631 H652 0.930 . S
C632 C631 1.401 . S
C632 C633 1.376 . S
C632 C641 1.511 . S
C633 C632 1.376 . S
C633 C634 1.392 . S
C633 H654 0.931 . S
C634 C633 1.392 . S
C634 C635 1.361 . S
C634 C636 1.500 . S
C635 C630 1.390 . S
C635 C634 1.361 . S
C635 H653 0.931 . S
C636 C634 1.500 . S
C636 C637 1.371 . S
C636 C638 1.365 . S
C637 C636 1.371 . S
C637 C647 1.386 . S
C637 H655 0.931 . S
C638 C636 1.365 . S
C638 C639 1.409 . S
C638 H656 0.929 . S
C639 C638 1.409 . S
C639 C640 1.380 . S
C639 H657 0.930 . S
C640 C639 1.380 . S
C640 C647 1.357 . S
C641 C632 1.511 . S
C641 C642 1.341 . S
C641 C643 1.371 . S
C642 C641 1.341 . S
C642 C646 1.394 . S
C642 H658 0.930 . S
C643 C641 1.371 . S
C643 C644 1.392 . S
C643 H659 0.931 . S
C644 C643 1.392 . S
C644 C645 1.331 . S
C644 H662 0.932 . S
C645 C644 1.331 . S
C645 C646 1.336 . S
C646 C642 1.394 . S
C646 C645 1.336 . S
C646 H661 0.929 . S
C647 C637 1.386 . S
C647 C640 1.357 . S
C647 H660 0.928 . S
H648 C624 0.931 . S
H649 C626 0.930 . S
H650 C628 0.929 . S
H651 C629 0.931 . S
H652 C631 0.930 . S
H653 C635 0.931 . S
H654 C633 0.931 . S
H655 C637 0.931 . S
H656 C638 0.929 . S
H657 C639 0.930 . S
H658 C642 0.930 . S
H659 C643 0.931 . S
H660 C647 0.928 . S
H661 C646 0.929 . S
H662 C644 0.932 . S
C663 C664 1.386 . S
C663 C665 1.397 . S
C663 H687 0.931 . S
C664 C663 1.386 . S
C664 C668 1.397 . S
C665 C663 1.397 . S
C665 C666 1.384 . S
C665 H688 0.930 . S
C666 C665 1.384 . S
C666 C667 1.377 . S
C666 C669 1.481 . S
C667 C666 1.377 . S
C667 C668 1.389 . S
C667 H689 0.929 . S
C668 C664 1.397 . S
C668 C667 1.389 . S
C668 H690 0.931 . S
C669 C666 1.481 . S
C669 C670 1.387 . S
C669 C674 1.390 . S
C670 C669 1.387 . S
C670 C671 1.401 . S
C670 H691 0.930 . S
C671 C670 1.401 . S
C671 C672 1.376 . S
C671 C680 1.511 . S
C672 C671 1.376 . S
C672 C673 1.392 . S
C672 H693 0.931 . S
C673 C672 1.392 . S
C673 C674 1.361 . S
C673 C675 1.500 . S
C674 C669 1.390 . S
C674 C673 1.361 . S
C674 H692 0.931 . S
C675 C673 1.500 . S
C675 C676 1.371 . S
C675 C677 1.365 . S
C676 C675 1.371 . S
C676 C686 1.386 . S
C676 H694 0.931 . S
C677 C675 1.365 . S
C677 C678 1.409 . S
C677 H695 0.929 . S
C678 C677 1.409 . S
C678 C679 1.380 . S
C678 H696 0.930 . S
C679 C678 1.380 . S
C679 C686 1.357 . S
C680 C671 1.511 . S
C680 C681 1.341 . S
C680 C682 1.371 . S
C681 C680 1.341 . S
C681 C685 1.394 . S
C681 H697 0.930 . S
C682 C680 1.371 . S
C682 C683 1.392 . S
C682 H698 0.931 . S
C683 C682 1.392 . S
C683 C684 1.331 . S
C683 H701 0.932 . S
C684 C683 1.331 . S
C684 C685 1.336 . S
C685 C681 1.394 . S
C685 C684 1.336 . S
C685 H700 0.929 . S
C686 C676 1.386 . S
C686 C679 1.357 . S
C686 H699 0.928 . S
H687 C663 0.931 . S
H688 C665 0.930 . S
H689 C667 0.929 . S
H690 C668 0.931 . S
H691 C670 0.930 . S
H692 C674 0.931 . S
H693 C672 0.931 . S
H694 C676 0.931 . S
H695 C677 0.929 . S
H696 C678 0.930 . S
H697 C681 0.930 . S
H698 C682 0.931 . S
H699 C686 0.928 . S
H700 C685 0.929 . S
H701 C683 0.932 . S
Tb702 O705 2.453 . S
Tb702 O706 2.596 1_545 S
Tb702 O707 2.374 1_545 S
Tb702 O715 2.343 1_554 S
Tb702 O717 2.353 . S
Tb702 O719 2.427 1_554 S
Tb702 O720 2.513 1_554 S
C703 O707 1.251 . S
C703 O709 1.244 1_554 S
Tb704 O706 2.343 1_556 S
Tb704 O709 2.361 . S
Tb704 O712 2.427 1_556 S
Tb704 O713 2.513 1_556 S
Tb704 O714 2.453 . S
Tb704 O715 2.596 1_565 S
Tb704 O716 2.374 1_565 S
O705 Tb702 2.453 . S
O705 C721 1.245 . S
O706 Tb702 2.596 1_565 S
O706 Tb704 2.343 1_554 S
O706 C721 1.259 1_565 S
O707 Tb702 2.374 1_565 S
O707 C703 1.251 . S
C708 O712 1.275 . S
C708 O713 1.246 . S
O709 C703 1.244 1_556 S
O709 Tb704 2.361 . S
C710 O714 1.241 . S
C710 O715 1.260 1_565 S
C711 O716 1.250 . S
C711 O717 1.263 1_556 S
O712 Tb704 2.427 1_554 S
O712 C708 1.275 . S
O713 Tb704 2.513 1_554 S
O713 C708 1.246 . S
O714 Tb704 2.453 . S
O714 C710 1.241 . S
O715 Tb702 2.343 1_556 S
O715 Tb704 2.596 1_545 S
O715 C710 1.260 1_545 S
O716 Tb704 2.374 1_545 S
O716 C711 1.250 . S
O717 Tb702 2.353 . S
O717 C711 1.263 1_554 S
C718 O719 1.275 . S
C718 O720 1.246 . S
O719 Tb702 2.427 1_556 S
O719 C718 1.275 . S
O720 Tb702 2.513 1_556 S
O720 C718 1.246 . S
C721 O705 1.245 . S
C721 O706 1.259 1_545 S
Tb722 O725 2.453 . S
Tb722 O726 2.596 1_655 S
Tb722 O727 2.374 1_655 S
Tb722 O735 2.343 1_554 S
Tb722 O737 2.359 . S
Tb722 O739 2.427 1_554 S
Tb722 O740 2.513 1_554 S
C723 O727 1.251 . S
C723 O729 1.263 . S
Tb724 O726 2.343 1_556 S
Tb724 O729 2.353 1_556 S
Tb724 O732 2.427 1_556 S
Tb724 O733 2.513 1_556 S
Tb724 O734 2.453 . S
Tb724 O735 2.596 1_455 S
Tb724 O736 2.374 1_455 S
O725 Tb722 2.453 . S
O725 C741 1.245 1_655 S
O726 Tb722 2.596 1_455 S
O726 Tb724 2.343 1_554 S
O726 C741 1.259 . S
O727 Tb722 2.374 1_455 S
O727 C723 1.251 . S
C728 O732 1.275 . S
C728 O733 1.246 . S
O729 C723 1.263 . S
O729 Tb724 2.353 1_554 S
C730 O734 1.286 . S
C730 O735 1.244 1_455 S
C731 O736 1.250 . S
C731 O737 1.246 1_556 S
O732 Tb724 2.427 1_554 S
O732 C728 1.275 . S
O733 Tb724 2.513 1_554 S
O733 C728 1.246 . S
O734 Tb724 2.453 . S
O734 C730 1.286 . S
O735 Tb722 2.343 1_556 S
O735 Tb724 2.596 1_655 S
O735 C730 1.244 1_655 S
O736 Tb724 2.374 1_655 S
O736 C731 1.250 . S
O737 Tb722 2.359 . S
O737 C731 1.246 1_554 S
C738 O739 1.275 . S
C738 O740 1.246 . S
O739 Tb722 2.427 1_556 S
O739 C738 1.275 . S
O740 Tb722 2.513 1_556 S
O740 C738 1.246 . S
C741 O725 1.245 1_455 S
C741 O726 1.259 . S
Tb742 O745 2.453 . S
Tb742 O746 2.596 . S
Tb742 O747 2.374 . S
Tb742 O755 2.343 1_556 S
Tb742 O757 2.353 1_556 S
Tb742 O759 2.427 1_556 S
Tb742 O760 2.513 1_556 S
C743 O747 1.251 . S
C743 O749 1.263 1_556 S
Tb744 O746 2.343 1_554 S
Tb744 O749 2.353 . S
Tb744 O752 2.427 1_554 S
Tb744 O753 2.513 1_554 S
Tb744 O754 2.453 . S
Tb744 O755 2.596 . S
Tb744 O756 2.374 . S
O745 Tb742 2.453 . S
O745 C761 1.245 . S
O746 Tb742 2.596 . S
O746 Tb744 2.343 1_556 S
O746 C761 1.259 . S
O747 Tb742 2.374 . S
O747 C743 1.251 . S
C748 O752 1.275 . S
C748 O753 1.246 . S
O749 C743 1.263 1_554 S
O749 Tb744 2.353 . S
C750 O754 1.245 . S
C750 O755 1.259 . S
C751 O756 1.250 . S
C751 O757 1.263 . S
O752 Tb744 2.427 1_556 S
O752 C748 1.275 . S
O753 Tb744 2.513 1_556 S
O753 C748 1.246 . S
O754 Tb744 2.453 . S
O754 C750 1.245 . S
O755 Tb742 2.343 1_554 S
O755 Tb744 2.596 . S
O755 C750 1.259 . S
O756 Tb744 2.374 . S
O756 C751 1.250 . S
O757 Tb742 2.353 1_554 S
O757 C751 1.263 . S
C758 O759 1.275 . S
C758 O760 1.246 . S
O759 Tb742 2.427 1_554 S
O759 C758 1.275 . S
O760 Tb742 2.513 1_554 S
O760 C758 1.246 . S
C761 O745 1.245 . S
C761 O746 1.259 . S
Tb762 O765 2.453 . S
Tb762 O766 2.596 . S
Tb762 O767 2.374 . S
Tb762 O775 2.343 . S
Tb762 O777 2.353 . S
Tb762 O779 2.427 . S
Tb762 O780 2.513 . S
C763 O767 1.251 . S
C763 O769 1.263 . S
Tb764 O766 2.343 . S
Tb764 O769 2.353 . S
Tb764 O772 2.427 . S
Tb764 O773 2.513 . S
Tb764 O774 2.453 . S
Tb764 O775 2.596 . S
Tb764 O776 2.374 . S
O765 Tb762 2.453 . S
O765 C781 1.245 . S
O766 Tb762 2.596 . S
O766 Tb764 2.343 . S
O766 C781 1.259 . S
O767 Tb762 2.374 . S
O767 C763 1.251 . S
C768 O772 1.275 . S
C768 O773 1.246 . S
O769 C763 1.263 . S
O769 Tb764 2.353 . S
C770 O774 1.245 . S
C770 O775 1.259 . S
C771 O776 1.250 . S
C771 O777 1.263 . S
O772 Tb764 2.427 . S
O772 C768 1.275 . S
O773 Tb764 2.513 . S
O773 C768 1.246 . S
O774 Tb764 2.453 . S
O774 C770 1.245 . S
O775 Tb762 2.343 . S
O775 Tb764 2.596 . S
O775 C770 1.259 . S
O776 Tb764 2.374 . S
O776 C771 1.250 . S
O777 Tb762 2.353 . S
O777 C771 1.263 . S
C778 O779 1.275 . S
C778 O780 1.246 . S
O779 Tb762 2.427 . S
O779 C778 1.275 . S
O780 Tb762 2.513 . S
O780 C778 1.246 . S
C781 O765 1.245 . S
C781 O766 1.259 . S
Tb782 O785 2.453 . S
Tb782 O786 2.596 . S
Tb782 O787 2.374 . S
Tb782 O795 2.343 . S
Tb782 O797 2.353 . S
Tb782 O799 2.427 . S
Tb782 O800 2.513 . S
C783 O787 1.251 . S
C783 O789 1.263 . S
Tb784 O786 2.343 . S
Tb784 O789 2.353 . S
Tb784 O792 2.427 . S
Tb784 O793 2.513 . S
Tb784 O794 2.453 . S
Tb784 O795 2.596 . S
Tb784 O796 2.374 . S
O785 Tb782 2.453 . S
O785 C801 1.245 . S
O786 Tb782 2.596 . S
O786 Tb784 2.343 . S
O786 C801 1.259 . S
O787 Tb782 2.374 . S
O787 C783 1.251 . S
C788 O792 1.275 . S
C788 O793 1.246 . S
O789 C783 1.263 . S
O789 Tb784 2.353 . S
C790 O794 1.245 . S
C790 O795 1.259 . S
C791 O796 1.250 . S
C791 O797 1.263 . S
O792 Tb784 2.427 . S
O792 C788 1.275 . S
O793 Tb784 2.513 . S
O793 C788 1.246 . S
O794 Tb784 2.453 . S
O794 C790 1.245 . S
O795 Tb782 2.343 . S
O795 Tb784 2.596 . S
O795 C790 1.259 . S
O796 Tb784 2.374 . S
O796 C791 1.250 . S
O797 Tb782 2.353 . S
O797 C791 1.263 . S
C798 O799 1.275 . S
C798 O800 1.246 . S
O799 Tb782 2.427 . S
O799 C798 1.275 . S
O800 Tb782 2.513 . S
O800 C798 1.246 . S
C801 O785 1.245 . S
C801 O786 1.259 . S
Tb802 O805 2.453 . S
Tb802 O806 2.596 . S
Tb802 O807 2.374 . S
Tb802 O815 2.343 . S
Tb802 O817 2.353 . S
Tb802 O819 2.427 . S
Tb802 O820 2.513 . S
C803 O807 1.251 . S
C803 O809 1.263 . S
Tb804 O806 2.343 . S
Tb804 O809 2.353 . S
Tb804 O812 2.427 . S
Tb804 O813 2.513 . S
Tb804 O814 2.453 . S
Tb804 O815 2.596 . S
Tb804 O816 2.374 . S
O805 Tb802 2.453 . S
O805 C821 1.245 . S
O806 Tb802 2.596 . S
O806 Tb804 2.343 . S
O806 C821 1.259 . S
O807 Tb802 2.374 . S
O807 C803 1.251 . S
C808 O812 1.275 . S
C808 O813 1.246 . S
O809 C803 1.263 . S
O809 Tb804 2.353 . S
C810 O814 1.245 . S
C810 O815 1.259 . S
C811 O816 1.250 . S
C811 O817 1.263 . S
O812 Tb804 2.427 . S
O812 C808 1.275 . S
O813 Tb804 2.513 . S
O813 C808 1.246 . S
O814 Tb804 2.453 . S
O814 C810 1.245 . S
O815 Tb802 2.343 . S
O815 Tb804 2.596 . S
O815 C810 1.259 . S
O816 Tb804 2.374 . S
O816 C811 1.250 . S
O817 Tb802 2.353 . S
O817 C811 1.263 . S
C818 O819 1.275 . S
C818 O820 1.246 . S
O819 Tb802 2.427 . S
O819 C818 1.275 . S
O820 Tb802 2.513 . S
O820 C818 1.246 . S
C821 O805 1.245 . S
C821 O806 1.259 . S
Tb822 O825 2.453 . S
Tb822 O826 2.596 . S
Tb822 O827 2.374 . S
Tb822 O835 2.343 . S
Tb822 O837 2.353 . S
Tb822 O839 2.427 . S
Tb822 O840 2.513 . S
C823 O827 1.251 . S
C823 O829 1.263 . S
Tb824 O826 2.343 . S
Tb824 O829 2.353 . S
Tb824 O832 2.427 . S
Tb824 O833 2.513 . S
Tb824 O834 2.453 . S
Tb824 O835 2.596 . S
Tb824 O836 2.374 . S
O825 Tb822 2.453 . S
O825 C841 1.245 . S
O826 Tb822 2.596 . S
O826 Tb824 2.343 . S
O826 C841 1.259 . S
O827 Tb822 2.374 . S
O827 C823 1.251 . S
C828 O832 1.275 . S
C828 O833 1.246 . S
O829 C823 1.263 . S
O829 Tb824 2.353 . S
C830 O834 1.245 . S
C830 O835 1.259 . S
C831 O836 1.250 . S
C831 O837 1.263 . S
O832 Tb824 2.427 . S
O832 C828 1.275 . S
O833 Tb824 2.513 . S
O833 C828 1.246 . S
O834 Tb824 2.453 . S
O834 C830 1.245 . S
O835 Tb822 2.343 . S
O835 Tb824 2.596 . S
O835 C830 1.259 . S
O836 Tb824 2.374 . S
O836 C831 1.250 . S
O837 Tb822 2.353 . S
O837 C831 1.263 . S
C838 O839 1.275 . S
C838 O840 1.246 . S
O839 Tb822 2.427 . S
O839 C838 1.275 . S
O840 Tb822 2.513 . S
O840 C838 1.246 . S
C841 O825 1.245 . S
C841 O826 1.259 . S
Tb842 O845 2.453 . S
Tb842 O846 2.596 . S
Tb842 O847 2.374 . S
Tb842 O855 2.343 . S
Tb842 O857 2.353 . S
Tb842 O859 2.427 . S
Tb842 O860 2.513 . S
C843 O847 1.251 . S
C843 O849 1.263 . S
Tb844 O846 2.343 . S
Tb844 O849 2.353 . S
Tb844 O852 2.427 . S
Tb844 O853 2.513 . S
Tb844 O854 2.453 . S
Tb844 O855 2.596 . S
Tb844 O856 2.374 . S
O845 Tb842 2.453 . S
O845 C861 1.245 . S
O846 Tb842 2.596 . S
O846 Tb844 2.343 . S
O846 C861 1.259 . S
O847 Tb842 2.374 . S
O847 C843 1.251 . S
C848 O852 1.275 . S
C848 O853 1.246 . S
O849 C843 1.263 . S
O849 Tb844 2.353 . S
C850 O854 1.245 . S
C850 O855 1.259 . S
C851 O856 1.250 . S
C851 O857 1.263 . S
O852 Tb844 2.427 . S
O852 C848 1.275 . S
O853 Tb844 2.513 . S
O853 C848 1.246 . S
O854 Tb844 2.453 . S
O854 C850 1.245 . S
O855 Tb842 2.343 . S
O855 Tb844 2.596 . S
O855 C850 1.259 . S
O856 Tb844 2.374 . S
O856 C851 1.250 . S
O857 Tb842 2.353 . S
O857 C851 1.263 . S
C858 O859 1.275 . S
C858 O860 1.246 . S
O859 Tb842 2.427 . S
O859 C858 1.275 . S
O860 Tb842 2.513 . S
O860 C858 1.246 . S
C861 O845 1.245 . S
C861 O846 1.259 . S
Tb862 O865 2.453 . S
Tb862 O866 2.596 . S
Tb862 O867 2.374 . S
Tb862 O875 2.343 . S
Tb862 O877 2.353 . S
Tb862 O879 2.427 . S
Tb862 O880 2.513 . S
C863 O867 1.251 . S
C863 O869 1.263 . S
Tb864 O866 2.343 . S
Tb864 O869 2.353 . S
Tb864 O872 2.427 . S
Tb864 O873 2.513 . S
Tb864 O874 2.453 . S
Tb864 O875 2.596 . S
Tb864 O876 2.374 . S
O865 Tb862 2.453 . S
O865 C881 1.245 . S
O866 Tb862 2.596 . S
O866 Tb864 2.343 . S
O866 C881 1.259 . S
O867 Tb862 2.374 . S
O867 C863 1.251 . S
C868 O872 1.275 . S
C868 O873 1.246 . S
O869 C863 1.263 . S
O869 Tb864 2.353 . S
C870 O874 1.245 . S
C870 O875 1.259 . S
C871 O876 1.250 . S
C871 O877 1.263 . S
O872 Tb864 2.427 . S
O872 C868 1.275 . S
O873 Tb864 2.513 . S
O873 C868 1.246 . S
O874 Tb864 2.453 . S
O874 C870 1.245 . S
O875 Tb862 2.343 . S
O875 Tb864 2.596 . S
O875 C870 1.259 . S
O876 Tb864 2.374 . S
O876 C871 1.250 . S
O877 Tb862 2.353 . S
O877 C871 1.263 . S
C878 O879 1.275 . S
C878 O880 1.246 . S
O879 Tb862 2.427 . S
O879 C878 1.275 . S
O880 Tb862 2.513 . S
O880 C878 1.246 . S
C881 O865 1.245 . S
C881 O866 1.259 . S
H882 C900 0.951 . S
H883 C902 0.951 . S
H884 C904 0.950 . S
H885 C905 0.950 . S
H886 C907 0.950 . S
H887 C910 0.950 . S
H888 C911 0.950 . S
H889 C913 0.950 . S
H890 C914 0.950 . S
H891 C915 0.951 . S
H892 C917 0.951 . S
H893 C919 0.950 . S
H894 C920 0.950 . S
H895 C922 0.950 . S
H896 C925 0.950 . S
H897 C926 0.950 . S
H898 C928 0.950 . S
H899 C929 0.950 . S
C900 H882 0.951 . S
C900 C901 1.366 . S
C900 C902 1.388 . S
C901 C900 1.366 . S
C901 C905 1.385 . S
C902 H883 0.951 . S
C902 C900 1.388 . S
C902 C903 1.366 . S
C903 C902 1.366 . S
C903 C904 1.414 . S
C903 C906 1.499 . S
C904 H884 0.950 . S
C904 C903 1.414 . S
C904 C905 1.374 . S
C905 H885 0.950 . S
C905 C901 1.385 . S
C905 C904 1.374 . S
C906 C903 1.499 . S
C906 C907 1.373 . S
C906 C908 1.389 . S
C907 H886 0.950 . S
C907 C906 1.373 . S
C907 C923 1.377 . S
C908 C906 1.389 . S
C908 C909 1.524 . S
C908 C922 1.377 . S
C909 C908 1.524 . S
C909 C910 1.397 . S
C909 C914 1.363 . S
C910 H887 0.950 . S
C910 C909 1.397 . S
C910 C911 1.334 . S
C911 H888 0.950 . S
C911 C910 1.334 . S
C911 C912 1.287 . S
C912 C911 1.287 . S
C912 C913 1.524 . S
C912 H931 0.913 . S
C913 H889 0.950 . S
C913 C912 1.524 . S
C913 C914 1.415 . S
C914 H890 0.950 . S
C914 C909 1.363 . S
C914 C913 1.415 . S
C915 H891 0.951 . S
C915 C916 1.366 . S
C915 C917 1.388 . S
C916 C915 1.366 . S
C916 C920 1.385 . S
C917 H892 0.951 . S
C917 C915 1.388 . S
C917 C918 1.366 . S
C918 C917 1.366 . S
C918 C919 1.414 . S
C918 C921 1.499 . S
C919 H893 0.950 . S
C919 C918 1.414 . S
C919 C920 1.374 . S
C920 H894 0.950 . S
C920 C916 1.385 . S
C920 C919 1.374 . S
C921 C918 1.499 . S
C921 C922 1.373 . S
C921 C923 1.389 . S
C922 H895 0.950 . S
C922 C908 1.377 . S
C922 C921 1.373 . S
C923 C907 1.377 . S
C923 C921 1.389 . S
C923 C924 1.524 . S
C924 C923 1.524 . S
C924 C925 1.397 . S
C924 C929 1.363 . S
C925 H896 0.950 . S
C925 C924 1.397 . S
C925 C926 1.334 . S
C926 H897 0.950 . S
C926 C925 1.334 . S
C926 C927 1.287 . S
C927 C926 1.287 . S
C927 C928 1.524 . S
C927 H930 0.999 . S
C928 H898 0.950 . S
C928 C927 1.524 . S
C928 C929 1.415 . S
C929 H899 0.950 . S
C929 C924 1.363 . S
C929 C928 1.415 . S
H930 C927 0.999 . S
H931 C912 0.913 . S
H932 C950 0.951 . S
H933 C952 0.951 . S
H934 C954 0.950 . S
H935 C955 0.950 . S
H936 C957 0.950 . S
H937 C960 0.950 . S
H938 C961 0.950 . S
H939 C963 0.950 . S
H940 C964 0.950 . S
H941 C965 0.951 . S
H942 C967 0.951 . S
H943 C969 0.950 . S
H944 C970 0.950 . S
H945 C972 0.950 . S
H946 C975 0.950 . S
H947 C976 0.950 . S
H948 C978 0.950 . S
H949 C979 0.950 . S
C950 H932 0.951 . S
C950 C951 1.366 . S
C950 C952 1.388 . S
C951 C950 1.366 . S
C951 C955 1.385 . S
C952 H933 0.951 . S
C952 C950 1.388 . S
C952 C953 1.366 . S
C953 C952 1.366 . S
C953 C954 1.414 . S
C953 C956 1.499 . S
C954 H934 0.950 . S
C954 C953 1.414 . S
C954 C955 1.374 . S
C955 H935 0.950 . S
C955 C951 1.385 . S
C955 C954 1.374 . S
C956 C953 1.499 . S
C956 C957 1.373 . S
C956 C958 1.389 . S
C957 H936 0.950 . S
C957 C956 1.373 . S
C957 C973 1.377 . S
C958 C956 1.389 . S
C958 C959 1.524 . S
C958 C972 1.377 . S
C959 C958 1.524 . S
C959 C960 1.397 . S
C959 C964 1.363 . S
C960 H937 0.950 . S
C960 C959 1.397 . S
C960 C961 1.334 . S
C961 H938 0.950 . S
C961 C960 1.334 . S
C961 C962 1.287 . S
C962 C961 1.287 . S
C962 C963 1.524 . S
C962 H981 0.913 . S
C963 H939 0.950 . S
C963 C962 1.524 . S
C963 C964 1.415 . S
C964 H940 0.950 . S
C964 C959 1.363 . S
C964 C963 1.415 . S
C965 H941 0.951 . S
C965 C966 1.366 . S
C965 C967 1.388 . S
C966 C965 1.366 . S
C966 C970 1.385 . S
C967 H942 0.951 . S
C967 C965 1.388 . S
C967 C968 1.366 . S
C968 C967 1.366 . S
C968 C969 1.414 . S
C968 C971 1.499 . S
C969 H943 0.950 . S
C969 C968 1.414 . S
C969 C970 1.374 . S
C970 H944 0.950 . S
C970 C966 1.385 . S
C970 C969 1.374 . S
C971 C968 1.499 . S
C971 C972 1.373 . S
C971 C973 1.389 . S
C972 H945 0.950 . S
C972 C958 1.377 . S
C972 C971 1.373 . S
C973 C957 1.377 . S
C973 C971 1.389 . S
C973 C974 1.524 . S
C974 C973 1.524 . S
C974 C975 1.397 . S
C974 C979 1.363 . S
C975 H946 0.950 . S
C975 C974 1.397 . S
C975 C976 1.334 . S
C976 H947 0.950 . S
C976 C975 1.334 . S
C976 C977 1.287 . S
C977 C976 1.287 . S
C977 C978 1.524 . S
C977 H980 0.999 . S
C978 H948 0.950 . S
C978 C977 1.524 . S
C978 C979 1.415 . S
C979 H949 0.950 . S
C979 C974 1.363 . S
C979 C978 1.415 . S
H980 C977 0.999 . S
H981 C962 0.913 . S
H982 C1000 0.951 . S
H983 C1002 0.951 . S
H984 C1004 0.950 . S
H985 C1005 0.950 . S
H986 C1007 0.950 . S
H987 C1010 0.950 . S
H988 C1011 0.981 . S
H989 C1013 0.950 . S
H990 C1014 0.950 . S
H991 C1015 0.951 . S
H992 C1017 0.951 . S
H993 C1019 0.950 . S
H994 C1020 0.950 . S
H995 C1022 0.950 . S
H996 C1025 0.950 . S
H997 C1026 0.950 . S
H998 C1028 0.950 . S
H999 C1029 0.950 . S
C1000 H982 0.951 . S
C1000 C1001 1.366 . S
C1000 C1002 1.388 . S
C1001 C1000 1.366 . S
C1001 C1005 1.385 . S
C1002 H983 0.951 . S
C1002 C1000 1.388 . S
C1002 C1003 1.366 . S
C1003 C1002 1.366 . S
C1003 C1004 1.414 . S
C1003 C1006 1.499 . S
C1004 H984 0.950 . S
C1004 C1003 1.414 . S
C1004 C1005 1.374 . S
C1005 H985 0.950 . S
C1005 C1001 1.385 . S
C1005 C1004 1.374 . S
C1006 C1003 1.499 . S
C1006 C1007 1.373 . S
C1006 C1008 1.389 . S
C1007 H986 0.950 . S
C1007 C1006 1.373 . S
C1007 C1023 1.377 . S
C1008 C1006 1.389 . S
C1008 C1009 1.524 . S
C1008 C1022 1.377 . S
C1009 C1008 1.524 . S
C1009 C1010 1.397 . S
C1009 C1014 1.363 . S
C1010 H987 0.950 . S
C1010 C1009 1.397 . S
C1010 C1011 1.334 . S
C1011 H988 0.981 . S
C1011 C1010 1.334 . S
C1011 C1012 1.287 . S
C1012 C1011 1.287 . S
C1012 C1013 1.524 . S
C1012 H1031 0.913 . S
C1013 H989 0.950 . S
C1013 C1012 1.524 . S
C1013 C1014 1.415 . S
C1014 H990 0.950 . S
C1014 C1009 1.363 . S
C1014 C1013 1.415 . S
C1015 H991 0.951 . S
C1015 C1016 1.366 . S
C1015 C1017 1.388 . S
C1016 C1015 1.366 . S
C1016 C1020 1.385 . S
C1017 H992 0.951 . S
C1017 C1015 1.388 . S
C1017 C1018 1.366 . S
C1018 C1017 1.366 . S
C1018 C1019 1.414 . S
C1018 C1021 1.499 . S
C1019 H993 0.950 . S
C1019 C1018 1.414 . S
C1019 C1020 1.374 . S
C1020 H994 0.950 . S
C1020 C1016 1.385 . S
C1020 C1019 1.374 . S
C1021 C1018 1.499 . S
C1021 C1022 1.373 . S
C1021 C1023 1.389 . S
C1022 H995 0.950 . S
C1022 C1008 1.377 . S
C1022 C1021 1.373 . S
C1023 C1007 1.377 . S
C1023 C1021 1.389 . S
C1023 C1024 1.524 . S
C1024 C1023 1.524 . S
C1024 C1025 1.397 . S
C1024 C1029 1.363 . S
C1025 H996 0.950 . S
C1025 C1024 1.397 . S
C1025 C1026 1.334 . S
C1026 H997 0.950 . S
C1026 C1025 1.334 . S
C1026 C1027 1.287 . S
C1027 C1026 1.287 . S
C1027 C1028 1.524 . S
C1027 H1030 0.999 . S
C1028 H998 0.950 . S
C1028 C1027 1.524 . S
C1028 C1029 1.415 . S
C1029 H999 0.950 . S
C1029 C1024 1.363 . S
C1029 C1028 1.415 . S
H1030 C1027 0.999 . S
H1031 C1012 0.913 . S
H1032 C1050 0.951 . S
H1033 C1052 0.951 . S
H1034 C1054 0.950 . S
H1035 C1055 0.950 . S
H1036 C1057 0.950 . S
H1037 C1060 0.950 . S
H1038 C1061 0.950 . S
H1039 C1063 0.950 . S
H1040 C1064 0.950 . S
H1041 C1065 0.951 . S
H1042 C1067 0.951 . S
H1043 C1069 0.950 . S
H1044 C1070 0.950 . S
H1045 C1072 0.950 . S
H1046 C1075 0.950 . S
H1047 C1076 0.950 . S
H1048 C1078 0.950 . S
H1049 C1079 0.950 . S
C1050 H1032 0.951 . S
C1050 C1051 1.366 . S
C1050 C1052 1.388 . S
C1051 C1050 1.366 . S
C1051 C1055 1.385 . S
C1052 H1033 0.951 . S
C1052 C1050 1.388 . S
C1052 C1053 1.366 . S
C1053 C1052 1.366 . S
C1053 C1054 1.414 . S
C1053 C1056 1.499 . S
C1054 H1034 0.950 . S
C1054 C1053 1.414 . S
C1054 C1055 1.374 . S
C1055 H1035 0.950 . S
C1055 C1051 1.385 . S
C1055 C1054 1.374 . S
C1056 C1053 1.499 . S
C1056 C1057 1.373 . S
C1056 C1058 1.389 . S
C1057 H1036 0.950 . S
C1057 C1056 1.373 . S
C1057 C1073 1.377 . S
C1058 C1056 1.389 . S
C1058 C1059 1.524 . S
C1058 C1072 1.377 . S
C1059 C1058 1.524 . S
C1059 C1060 1.397 . S
C1059 C1064 1.363 . S
C1060 H1037 0.950 . S
C1060 C1059 1.397 . S
C1060 C1061 1.334 . S
C1061 H1038 0.950 . S
C1061 C1060 1.334 . S
C1061 C1062 1.287 . S
C1062 C1061 1.287 . S
C1062 C1063 1.524 . S
C1062 H1081 0.913 . S
C1063 H1039 0.950 . S
C1063 C1062 1.524 . S
C1063 C1064 1.415 . S
C1064 H1040 0.950 . S
C1064 C1059 1.363 . S
C1064 C1063 1.415 . S
C1065 H1041 0.951 . S
C1065 C1066 1.366 . S
C1065 C1067 1.388 . S
C1066 C1065 1.366 . S
C1066 C1070 1.385 . S
C1067 H1042 0.951 . S
C1067 C1065 1.388 . S
C1067 C1068 1.366 . S
C1068 C1067 1.366 . S
C1068 C1069 1.414 . S
C1068 C1071 1.499 . S
C1069 H1043 0.950 . S
C1069 C1068 1.414 . S
C1069 C1070 1.374 . S
C1070 H1044 0.950 . S
C1070 C1066 1.385 . S
C1070 C1069 1.374 . S
C1071 C1068 1.499 . S
C1071 C1072 1.373 . S
C1071 C1073 1.389 . S
C1072 H1045 0.950 . S
C1072 C1058 1.377 . S
C1072 C1071 1.373 . S
C1073 C1057 1.377 . S
C1073 C1071 1.389 . S
C1073 C1074 1.524 . S
C1074 C1073 1.524 . S
C1074 C1075 1.397 1_556 S
C1074 C1079 1.363 . S
C1075 H1046 0.950 . S
C1075 C1074 1.397 1_554 S
C1075 C1076 1.334 . S
C1076 H1047 0.950 . S
C1076 C1075 1.334 . S
C1076 C1077 1.287 . S
C1077 C1076 1.287 . S
C1077 C1078 1.524 . S
C1077 H1080 0.999 . S
C1078 H1048 0.950 . S
C1078 C1077 1.524 . S
C1078 C1079 1.415 1_554 S
C1079 H1049 0.950 . S
C1079 C1074 1.363 . S
C1079 C1078 1.415 1_556 S
H1080 C1077 0.999 . S
H1081 C1062 0.913 . S
H1082 C1100 0.951 . S
H1083 C1102 0.951 . S
H1084 C1104 0.950 . S
H1085 C1105 0.950 . S
H1086 C1107 0.950 . S
H1087 C1110 0.950 . S
H1088 C1111 0.950 . S
H1089 C1113 0.950 . S
H1090 C1114 0.950 . S
H1091 C1115 0.951 . S
H1092 C1117 0.951 . S
H1093 C1119 0.950 . S
H1094 C1120 0.950 . S
H1095 C1122 0.950 . S
H1096 C1125 0.950 . S
H1097 C1126 0.950 . S
H1098 C1128 0.950 . S
H1099 C1129 0.950 . S
C1100 H1082 0.951 . S
C1100 C1101 1.366 . S
C1100 C1102 1.388 . S
C1101 C1100 1.366 . S
C1101 C1105 1.385 . S
C1102 H1083 0.951 . S
C1102 C1100 1.388 . S
C1102 C1103 1.366 . S
C1103 C1102 1.366 . S
C1103 C1104 1.414 . S
C1103 C1106 1.499 . S
C1104 H1084 0.950 . S
C1104 C1103 1.414 . S
C1104 C1105 1.374 . S
C1105 H1085 0.950 . S
C1105 C1101 1.385 . S
C1105 C1104 1.374 . S
C1106 C1103 1.499 . S
C1106 C1107 1.373 . S
C1106 C1108 1.389 . S
C1107 H1086 0.950 . S
C1107 C1106 1.373 . S
C1107 C1123 1.377 . S
C1108 C1106 1.389 . S
C1108 C1109 1.524 . S
C1108 C1122 1.377 . S
C1109 C1108 1.524 . S
C1109 C1110 1.397 . S
C1109 C1114 1.363 . S
C1110 H1087 0.950 . S
C1110 C1109 1.397 . S
C1110 C1111 1.334 . S
C1111 H1088 0.950 . S
C1111 C1110 1.334 . S
C1111 C1112 1.287 . S
C1112 C1111 1.287 . S
C1112 C1113 1.524 . S
C1112 H1131 0.913 . S
C1113 H1089 0.950 . S
C1113 C1112 1.524 . S
C1113 C1114 1.415 . S
C1114 H1090 0.950 . S
C1114 C1109 1.363 . S
C1114 C1113 1.415 . S
C1115 H1091 0.951 . S
C1115 C1116 1.366 . S
C1115 C1117 1.388 . S
C1116 C1115 1.366 . S
C1116 C1120 1.385 . S
C1117 H1092 0.951 . S
C1117 C1115 1.388 . S
C1117 C1118 1.366 . S
C1118 C1117 1.366 . S
C1118 C1119 1.414 . S
C1118 C1121 1.499 . S
C1119 H1093 0.950 . S
C1119 C1118 1.414 . S
C1119 C1120 1.374 . S
C1120 H1094 0.950 . S
C1120 C1116 1.385 . S
C1120 C1119 1.374 . S
C1121 C1118 1.499 . S
C1121 C1122 1.373 . S
C1121 C1123 1.389 . S
C1122 H1095 0.950 . S
C1122 C1108 1.377 . S
C1122 C1121 1.373 . S
C1123 C1107 1.377 . S
C1123 C1121 1.389 . S
C1123 C1124 1.524 . S
C1124 C1123 1.524 . S
C1124 C1125 1.397 . S
C1124 C1129 1.363 . S
C1125 H1096 0.950 . S
C1125 C1124 1.397 . S
C1125 C1126 1.334 . S
C1126 H1097 0.950 . S
C1126 C1125 1.334 . S
C1126 C1127 1.287 . S
C1127 C1126 1.287 . S
C1127 C1128 1.524 . S
C1127 H1130 0.999 . S
C1128 H1098 0.950 . S
C1128 C1127 1.524 . S
C1128 C1129 1.415 . S
C1129 H1099 0.950 . S
C1129 C1124 1.363 . S
C1129 C1128 1.415 . S
H1130 C1127 0.999 . S
H1131 C1112 0.913 . S
H1132 C1150 0.951 . S
H1133 C1152 0.951 . S
H1134 C1154 0.950 . S
H1135 C1155 0.950 . S
H1136 C1157 0.950 . S
H1137 C1160 0.950 . S
H1138 C1161 0.950 . S
H1139 C1163 0.950 . S
H1140 C1164 0.950 . S
H1141 C1165 0.951 . S
H1142 C1167 0.951 . S
H1143 C1169 0.950 . S
H1144 C1170 0.950 . S
H1145 C1172 0.950 . S
H1146 C1175 0.950 . S
H1147 C1176 0.950 . S
H1148 C1178 0.950 . S
H1149 C1179 0.950 . S
C1150 H1132 0.951 . S
C1150 C1151 1.366 . S
C1150 C1152 1.388 . S
C1151 C1150 1.366 . S
C1151 C1155 1.385 . S
C1152 H1133 0.951 . S
C1152 C1150 1.388 . S
C1152 C1153 1.366 . S
C1153 C1152 1.366 . S
C1153 C1154 1.414 . S
C1153 C1156 1.499 . S
C1154 H1134 0.950 . S
C1154 C1153 1.414 . S
C1154 C1155 1.374 . S
C1155 H1135 0.950 . S
C1155 C1151 1.385 . S
C1155 C1154 1.374 . S
C1156 C1153 1.499 . S
C1156 C1157 1.373 . S
C1156 C1158 1.389 . S
C1157 H1136 0.950 . S
C1157 C1156 1.373 . S
C1157 C1173 1.377 . S
C1158 C1156 1.389 . S
C1158 C1159 1.524 . S
C1158 C1172 1.377 . S
C1159 C1158 1.524 . S
C1159 C1160 1.397 . S
C1159 C1164 1.363 . S
C1160 H1137 0.950 . S
C1160 C1159 1.397 . S
C1160 C1161 1.334 . S
C1161 H1138 0.950 . S
C1161 C1160 1.334 . S
C1161 C1162 1.287 . S
C1162 C1161 1.287 . S
C1162 C1163 1.524 . S
C1162 H1181 0.913 . S
C1163 H1139 0.950 . S
C1163 C1162 1.524 . S
C1163 C1164 1.415 . S
C1164 H1140 0.950 . S
C1164 C1159 1.363 . S
C1164 C1163 1.415 . S
C1165 H1141 0.951 . S
C1165 C1166 1.366 . S
C1165 C1167 1.388 . S
C1166 C1165 1.366 . S
C1166 C1170 1.385 . S
C1167 H1142 0.951 . S
C1167 C1165 1.388 . S
C1167 C1168 1.366 . S
C1168 C1167 1.366 . S
C1168 C1169 1.414 . S
C1168 C1171 1.499 . S
C1169 H1143 0.950 . S
C1169 C1168 1.414 . S
C1169 C1170 1.374 . S
C1170 H1144 0.950 . S
C1170 C1166 1.385 . S
C1170 C1169 1.374 . S
C1171 C1168 1.499 . S
C1171 C1172 1.373 . S
C1171 C1173 1.389 . S
C1172 H1145 0.950 . S
C1172 C1158 1.377 . S
C1172 C1171 1.373 . S
C1173 C1157 1.377 . S
C1173 C1171 1.389 . S
C1173 C1174 1.524 . S
C1174 C1173 1.524 . S
C1174 C1175 1.397 1_556 S
C1174 C1179 1.363 . S
C1175 H1146 0.950 . S
C1175 C1174 1.397 1_554 S
C1175 C1176 1.334 . S
C1176 H1147 0.950 . S
C1176 C1175 1.334 . S
C1176 C1177 1.287 . S
C1177 C1176 1.287 . S
C1177 C1178 1.524 . S
C1177 H1180 0.999 . S
C1178 H1148 0.950 . S
C1178 C1177 1.524 . S
C1178 C1179 1.415 1_554 S
C1179 H1149 0.950 . S
C1179 C1174 1.363 . S
C1179 C1178 1.415 1_556 S
H1180 C1177 0.999 . S
H1181 C1162 0.913 . S
H1182 C1200 0.951 . S
H1183 C1202 0.951 . S
H1184 C1204 0.950 . S
H1185 C1205 0.950 . S
H1186 C1207 0.950 . S
H1187 C1210 0.950 . S
H1188 C1211 0.950 . S
H1189 C1213 0.950 . S
H1190 C1214 0.950 . S
H1191 C1215 0.951 . S
H1192 C1217 0.951 . S
H1193 C1219 0.950 . S
H1194 C1220 0.950 . S
H1195 C1222 0.950 . S
H1196 C1225 0.950 . S
H1197 C1226 0.950 . S
H1198 C1228 0.950 . S
H1199 C1229 0.950 . S
C1200 H1182 0.951 . S
C1200 C1201 1.366 . S
C1200 C1202 1.388 . S
C1201 C1200 1.366 . S
C1201 C1205 1.385 . S
C1202 H1183 0.951 . S
C1202 C1200 1.388 . S
C1202 C1203 1.366 . S
C1203 C1202 1.366 . S
C1203 C1204 1.414 . S
C1203 C1206 1.499 . S
C1204 H1184 0.950 . S
C1204 C1203 1.414 . S
C1204 C1205 1.374 . S
C1205 H1185 0.950 . S
C1205 C1201 1.385 . S
C1205 C1204 1.374 . S
C1206 C1203 1.499 . S
C1206 C1207 1.373 . S
C1206 C1208 1.389 . S
C1207 H1186 0.950 . S
C1207 C1206 1.373 . S
C1207 C1223 1.377 . S
C1208 C1206 1.389 . S
C1208 C1209 1.524 . S
C1208 C1222 1.377 . S
C1209 C1208 1.524 . S
C1209 C1210 1.397 . S
C1209 C1214 1.363 . S
C1210 H1187 0.950 . S
C1210 C1209 1.397 . S
C1210 C1211 1.334 . S
C1211 H1188 0.950 . S
C1211 C1210 1.334 . S
C1211 C1212 1.287 . S
C1212 C1211 1.287 . S
C1212 C1213 1.524 . S
C1212 H1231 0.913 . S
C1213 H1189 0.950 . S
C1213 C1212 1.524 . S
C1213 C1214 1.415 . S
C1214 H1190 0.950 . S
C1214 C1209 1.363 . S
C1214 C1213 1.415 . S
C1215 H1191 0.951 . S
C1215 C1216 1.366 . S
C1215 C1217 1.388 . S
C1216 C1215 1.366 . S
C1216 C1220 1.385 . S
C1217 H1192 0.951 . S
C1217 C1215 1.388 . S
C1217 C1218 1.366 . S
C1218 C1217 1.366 . S
C1218 C1219 1.414 . S
C1218 C1221 1.499 . S
C1219 H1193 0.950 . S
C1219 C1218 1.414 . S
C1219 C1220 1.374 . S
C1220 H1194 0.950 . S
C1220 C1216 1.385 . S
C1220 C1219 1.374 . S
C1221 C1218 1.499 . S
C1221 C1222 1.373 . S
C1221 C1223 1.389 . S
C1222 H1195 0.950 . S
C1222 C1208 1.377 . S
C1222 C1221 1.373 . S
C1223 C1207 1.377 . S
C1223 C1221 1.389 . S
C1223 C1224 1.524 . S
C1224 C1223 1.524 . S
C1224 C1225 1.397 . S
C1224 C1229 1.363 . S
C1225 H1196 0.950 . S
C1225 C1224 1.397 . S
C1225 C1226 1.334 . S
C1226 H1197 0.950 . S
C1226 C1225 1.334 . S
C1226 C1227 1.287 . S
C1227 C1226 1.287 . S
C1227 C1228 1.524 . S
C1227 H1230 0.999 . S
C1228 H1198 0.950 . S
C1228 C1227 1.524 . S
C1228 C1229 1.415 . S
C1229 H1199 0.950 . S
C1229 C1224 1.363 . S
C1229 C1228 1.415 . S
H1230 C1227 0.999 . S
H1231 C1212 0.913 . S
H1232 C1250 0.951 . S
H1233 C1252 0.951 . S
H1234 C1254 0.950 . S
H1235 C1255 0.950 . S
H1236 C1257 0.950 . S
H1237 C1260 0.950 . S
H1238 C1261 0.950 . S
H1239 C1263 0.950 . S
H1240 C1264 0.950 . S
H1241 C1265 0.951 . S
H1242 C1267 0.951 . S
H1243 C1269 0.950 . S
H1244 C1270 0.950 . S
H1245 C1272 0.950 . S
H1246 C1275 0.950 . S
H1247 C1276 0.950 . S
H1248 C1278 0.950 . S
H1249 C1279 0.950 . S
C1250 H1232 0.951 . S
C1250 C1251 1.366 . S
C1250 C1252 1.388 . S
C1251 C1250 1.366 . S
C1251 C1255 1.385 . S
C1252 H1233 0.951 . S
C1252 C1250 1.388 . S
C1252 C1253 1.366 . S
C1253 C1252 1.366 . S
C1253 C1254 1.414 . S
C1253 C1256 1.499 . S
C1254 H1234 0.950 . S
C1254 C1253 1.414 . S
C1254 C1255 1.374 . S
C1255 H1235 0.950 . S
C1255 C1251 1.385 . S
C1255 C1254 1.374 . S
C1256 C1253 1.499 . S
C1256 C1257 1.373 . S
C1256 C1258 1.389 . S
C1257 H1236 0.950 . S
C1257 C1256 1.373 . S
C1257 C1273 1.377 . S
C1258 C1256 1.389 . S
C1258 C1259 1.524 . S
C1258 C1272 1.377 . S
C1259 C1258 1.524 . S
C1259 C1260 1.397 . S
C1259 C1264 1.363 . S
C1260 H1237 0.950 . S
C1260 C1259 1.397 . S
C1260 C1261 1.334 . S
C1261 H1238 0.950 . S
C1261 C1260 1.334 . S
C1261 C1262 1.287 . S
C1262 C1261 1.287 . S
C1262 C1263 1.524 . S
C1262 H1281 0.913 . S
C1263 H1239 0.950 . S
C1263 C1262 1.524 . S
C1263 C1264 1.415 . S
C1264 H1240 0.950 . S
C1264 C1259 1.363 . S
C1264 C1263 1.415 . S
C1265 H1241 0.951 . S
C1265 C1266 1.366 . S
C1265 C1267 1.388 . S
C1266 C1265 1.366 . S
C1266 C1270 1.385 . S
C1267 H1242 0.951 . S
C1267 C1265 1.388 . S
C1267 C1268 1.366 . S
C1268 C1267 1.366 . S
C1268 C1269 1.414 . S
C1268 C1271 1.499 . S
C1269 H1243 0.950 . S
C1269 C1268 1.414 . S
C1269 C1270 1.374 . S
C1270 H1244 0.950 . S
C1270 C1266 1.385 . S
C1270 C1269 1.374 . S
C1271 C1268 1.499 . S
C1271 C1272 1.373 . S
C1271 C1273 1.389 . S
C1272 H1245 0.950 . S
C1272 C1258 1.377 . S
C1272 C1271 1.373 . S
C1273 C1257 1.377 . S
C1273 C1271 1.389 . S
C1273 C1274 1.524 . S
C1274 C1273 1.524 . S
C1274 C1275 1.397 . S
C1274 C1279 1.363 . S
C1275 H1246 0.950 . S
C1275 C1274 1.397 . S
C1275 C1276 1.334 . S
C1276 H1247 0.950 . S
C1276 C1275 1.334 . S
C1276 C1277 1.287 . S
C1277 C1276 1.287 . S
C1277 C1278 1.524 . S
C1277 H1280 0.999 . S
C1278 H1248 0.950 . S
C1278 C1277 1.524 . S
C1278 C1279 1.415 . S
C1279 H1249 0.950 . S
C1279 C1274 1.363 . S
C1279 C1278 1.415 . S
H1280 C1277 0.999 . S
H1281 C1262 0.913 . S
H1282 C1300 0.951 . S
H1283 C1302 0.951 . S
H1284 C1304 0.950 . S
H1285 C1305 0.950 . S
H1286 C1307 0.950 . S
H1287 C1310 0.950 . S
H1288 C1311 0.950 . S
H1289 C1313 0.950 . S
H1290 C1314 0.950 . S
H1291 C1315 0.951 1_554 S
H1292 C1317 0.972 . S
H1293 C1319 0.950 . S
H1294 C1320 0.950 . S
H1295 C1322 0.950 . S
H1296 C1325 0.950 . S
H1297 C1326 0.950 . S
H1298 C1328 0.950 . S
H1299 C1329 0.950 . S
C1300 H1282 0.951 . S
C1300 C1301 1.366 . S
C1300 C1302 1.388 . S
C1301 C1300 1.366 . S
C1301 C1305 1.385 . S
C1302 H1283 0.951 . S
C1302 C1300 1.388 . S
C1302 C1303 1.366 . S
C1303 C1302 1.366 . S
C1303 C1304 1.414 . S
C1303 C1306 1.499 . S
C1304 H1284 0.950 . S
C1304 C1303 1.414 . S
C1304 C1305 1.374 . S
C1305 H1285 0.950 . S
C1305 C1301 1.385 . S
C1305 C1304 1.374 . S
C1306 C1303 1.499 . S
C1306 C1307 1.373 . S
C1306 C1308 1.389 . S
C1307 H1286 0.950 . S
C1307 C1306 1.373 . S
C1307 C1323 1.377 . S
C1308 C1306 1.389 . S
C1308 C1309 1.524 . S
C1308 C1322 1.377 . S
C1309 C1308 1.524 . S
C1309 C1310 1.397 . S
C1309 C1314 1.363 . S
C1310 H1287 0.950 . S
C1310 C1309 1.397 . S
C1310 C1311 1.334 . S
C1311 H1288 0.950 . S
C1311 C1310 1.334 . S
C1311 C1312 1.287 . S
C1312 C1311 1.287 . S
C1312 C1313 1.524 . S
C1312 H1331 0.913 . S
C1313 H1289 0.950 . S
C1313 C1312 1.524 . S
C1313 C1314 1.415 . S
C1314 H1290 0.950 . S
C1314 C1309 1.363 . S
C1314 C1313 1.415 . S
C1315 H1291 0.951 1_556 S
C1315 C1316 1.366 . S
C1315 C1317 1.388 . S
C1316 C1315 1.366 . S
C1316 C1320 1.385 . S
C1317 H1292 0.972 . S
C1317 C1315 1.388 . S
C1317 C1318 1.366 . S
C1318 C1317 1.366 . S
C1318 C1319 1.414 . S
C1318 C1321 1.499 . S
C1319 H1293 0.950 . S
C1319 C1318 1.414 . S
C1319 C1320 1.374 . S
C1320 H1294 0.950 . S
C1320 C1316 1.385 . S
C1320 C1319 1.374 . S
C1321 C1318 1.499 . S
C1321 C1322 1.373 . S
C1321 C1323 1.389 . S
C1322 H1295 0.950 . S
C1322 C1308 1.377 . S
C1322 C1321 1.373 . S
C1323 C1307 1.377 . S
C1323 C1321 1.389 . S
C1323 C1324 1.524 . S
C1324 C1323 1.524 . S
C1324 C1325 1.397 . S
C1324 C1329 1.363 1_556 S
C1325 H1296 0.950 . S
C1325 C1324 1.397 . S
C1325 C1326 1.334 1_556 S
C1326 H1297 0.950 . S
C1326 C1325 1.334 1_554 S
C1326 C1327 1.287 . S
C1327 C1326 1.287 . S
C1327 C1328 1.524 . S
C1327 H1330 0.999 . S
C1328 H1298 0.950 . S
C1328 C1327 1.524 . S
C1328 C1329 1.415 . S
C1329 H1299 0.950 . S
C1329 C1324 1.363 1_554 S
C1329 C1328 1.415 . S
H1330 C1327 0.999 . S
H1331 C1312 0.913 . S
H1332 C1350 0.951 . S
H1333 C1352 0.951 . S
H1334 C1354 0.950 . S
H1335 C1355 0.950 . S
H1336 C1357 0.950 . S
H1337 C1360 0.950 . S
H1338 C1361 0.950 . S
H1339 C1363 0.950 . S
H1340 C1364 0.950 . S
H1341 C1365 0.951 . S
H1342 C1367 0.951 . S
H1343 C1369 0.950 . S
H1344 C1370 0.950 . S
H1345 C1372 0.950 . S
H1346 C1375 0.950 . S
H1347 C1376 0.950 . S
H1348 C1378 0.950 . S
H1349 C1379 0.950 . S
C1350 H1332 0.951 . S
C1350 C1351 1.366 . S
C1350 C1352 1.388 . S
C1351 C1350 1.366 . S
C1351 C1355 1.385 . S
C1352 H1333 0.951 . S
C1352 C1350 1.388 . S
C1352 C1353 1.366 . S
C1353 C1352 1.366 . S
C1353 C1354 1.414 . S
C1353 C1356 1.499 . S
C1354 H1334 0.950 . S
C1354 C1353 1.414 . S
C1354 C1355 1.374 . S
C1355 H1335 0.950 . S
C1355 C1351 1.385 . S
C1355 C1354 1.374 . S
C1356 C1353 1.499 . S
C1356 C1357 1.373 . S
C1356 C1358 1.389 . S
C1357 H1336 0.950 . S
C1357 C1356 1.373 . S
C1357 C1373 1.377 . S
C1358 C1356 1.389 . S
C1358 C1359 1.524 . S
C1358 C1372 1.377 . S
C1359 C1358 1.524 . S
C1359 C1360 1.397 . S
C1359 C1364 1.363 . S
C1360 H1337 0.950 . S
C1360 C1359 1.397 . S
C1360 C1361 1.334 . S
C1361 H1338 0.950 . S
C1361 C1360 1.334 . S
C1361 C1362 1.287 . S
C1362 C1361 1.287 . S
C1362 C1363 1.524 . S
C1362 H1381 0.895 1_554 S
C1363 H1339 0.950 . S
C1363 C1362 1.524 . S
C1363 C1364 1.415 . S
C1364 H1340 0.950 . S
C1364 C1359 1.363 . S
C1364 C1363 1.415 . S
C1365 H1341 0.951 . S
C1365 C1366 1.366 . S
C1365 C1367 1.388 . S
C1366 C1365 1.366 . S
C1366 C1370 1.385 . S
C1367 H1342 0.951 . S
C1367 C1365 1.388 . S
C1367 C1368 1.366 . S
C1368 C1367 1.366 . S
C1368 C1369 1.414 . S
C1368 C1371 1.499 . S
C1369 H1343 0.950 . S
C1369 C1368 1.414 . S
C1369 C1370 1.374 . S
C1370 H1344 0.950 . S
C1370 C1366 1.385 . S
C1370 C1369 1.374 . S
C1371 C1368 1.499 . S
C1371 C1372 1.373 . S
C1371 C1373 1.389 . S
C1372 H1345 0.950 . S
C1372 C1358 1.377 . S
C1372 C1371 1.373 . S
C1373 C1357 1.377 . S
C1373 C1371 1.389 . S
C1373 C1374 1.524 . S
C1374 C1373 1.524 . S
C1374 C1375 1.397 . S
C1374 C1379 1.363 . S
C1375 H1346 0.950 . S
C1375 C1374 1.397 . S
C1375 C1376 1.334 . S
C1376 H1347 0.950 . S
C1376 C1375 1.334 . S
C1376 C1377 1.287 . S
C1377 C1376 1.287 . S
C1377 C1378 1.524 . S
C1377 H1380 0.999 . S
C1378 H1348 0.950 . S
C1378 C1377 1.524 . S
C1378 C1379 1.415 . S
C1379 H1349 0.950 . S
C1379 C1374 1.363 . S
C1379 C1378 1.415 . S
H1380 C1377 0.999 . S
H1381 C1362 0.895 1_556 S
H1382 C1400 0.951 . S
H1383 C1402 0.951 . S
H1384 C1404 0.950 . S
H1385 C1405 0.950 . S
H1386 C1407 0.950 . S
H1387 C1410 0.950 . S
H1388 C1411 0.950 . S
H1389 C1413 0.950 . S
H1390 C1414 0.950 . S
H1391 C1415 0.951 . S
H1392 C1417 0.951 . S
H1393 C1419 0.950 . S
H1394 C1420 0.950 . S
H1395 C1422 0.950 . S
H1396 C1425 0.950 . S
H1397 C1426 0.950 . S
H1398 C1428 0.950 . S
H1399 C1429 0.950 . S
C1400 H1382 0.951 . S
C1400 C1401 1.366 . S
C1400 C1402 1.388 . S
C1401 C1400 1.366 . S
C1401 C1405 1.385 . S
C1402 H1383 0.951 . S
C1402 C1400 1.388 . S
C1402 C1403 1.366 . S
C1403 C1402 1.366 . S
C1403 C1404 1.414 . S
C1403 C1406 1.499 . S
C1404 H1384 0.950 . S
C1404 C1403 1.414 . S
C1404 C1405 1.374 . S
C1405 H1385 0.950 . S
C1405 C1401 1.385 . S
C1405 C1404 1.374 . S
C1406 C1403 1.499 . S
C1406 C1407 1.373 . S
C1406 C1408 1.389 . S
C1407 H1386 0.950 . S
C1407 C1406 1.373 . S
C1407 C1423 1.377 . S
C1408 C1406 1.389 . S
C1408 C1409 1.524 . S
C1408 C1422 1.377 . S
C1409 C1408 1.524 . S
C1409 C1410 1.397 . S
C1409 C1414 1.363 . S
C1410 H1387 0.950 . S
C1410 C1409 1.397 . S
C1410 C1411 1.334 . S
C1411 H1388 0.950 . S
C1411 C1410 1.334 . S
C1411 C1412 1.287 . S
C1412 C1411 1.287 . S
C1412 C1413 1.524 . S
C1412 H1431 0.913 . S
C1413 H1389 0.950 . S
C1413 C1412 1.524 . S
C1413 C1414 1.415 . S
C1414 H1390 0.950 . S
C1414 C1409 1.363 . S
C1414 C1413 1.415 . S
C1415 H1391 0.951 . S
C1415 C1416 1.366 . S
C1415 C1417 1.388 . S
C1416 C1415 1.366 . S
C1416 C1420 1.385 . S
C1417 H1392 0.951 . S
C1417 C1415 1.388 . S
C1417 C1418 1.366 . S
C1418 C1417 1.366 . S
C1418 C1419 1.414 . S
C1418 C1421 1.499 . S
C1419 H1393 0.950 . S
C1419 C1418 1.414 . S
C1419 C1420 1.374 . S
C1420 H1394 0.950 . S
C1420 C1416 1.385 . S
C1420 C1419 1.374 . S
C1421 C1418 1.499 . S
C1421 C1422 1.373 . S
C1421 C1423 1.389 . S
C1422 H1395 0.950 . S
C1422 C1408 1.377 . S
C1422 C1421 1.373 . S
C1423 C1407 1.377 . S
C1423 C1421 1.389 . S
C1423 C1424 1.524 . S
C1424 C1423 1.524 . S
C1424 C1425 1.397 . S
C1424 C1429 1.363 . S
C1425 H1396 0.950 . S
C1425 C1424 1.397 . S
C1425 C1426 1.334 . S
C1426 H1397 0.950 . S
C1426 C1425 1.334 . S
C1426 C1427 1.287 . S
C1427 C1426 1.287 . S
C1427 C1428 1.524 . S
C1427 H1430 0.999 . S
C1428 H1398 0.950 . S
C1428 C1427 1.524 . S
C1428 C1429 1.415 . S
C1429 H1399 0.950 . S
C1429 C1424 1.363 . S
C1429 C1428 1.415 . S
H1430 C1427 0.999 . S
H1431 C1412 0.913 . S
H1432 C1450 0.951 . S
H1433 C1452 0.951 . S
H1434 C1454 0.950 . S
H1435 C1455 0.950 . S
H1436 C1457 0.950 . S
H1437 C1460 0.950 . S
H1438 C1461 0.941 1_556 S
H1439 C1463 0.950 . S
H1440 C1464 0.950 . S
H1441 C1465 0.951 . S
H1442 C1467 0.951 . S
H1443 C1469 0.950 . S
H1444 C1470 0.950 . S
H1445 C1472 0.950 . S
H1446 C1475 0.950 . S
H1447 C1476 0.950 . S
H1448 C1478 0.950 . S
H1449 C1479 0.950 . S
C1450 H1432 0.951 . S
C1450 C1451 1.366 . S
C1450 C1452 1.388 . S
C1451 C1450 1.366 . S
C1451 C1455 1.385 . S
C1452 H1433 0.951 . S
C1452 C1450 1.388 . S
C1452 C1453 1.366 . S
C1453 C1452 1.366 . S
C1453 C1454 1.414 . S
C1453 C1456 1.499 . S
C1454 H1434 0.950 . S
C1454 C1453 1.414 . S
C1454 C1455 1.374 . S
C1455 H1435 0.950 . S
C1455 C1451 1.385 . S
C1455 C1454 1.374 . S
C1456 C1453 1.499 . S
C1456 C1457 1.373 . S
C1456 C1458 1.389 . S
C1457 H1436 0.950 . S
C1457 C1456 1.373 . S
C1457 C1473 1.377 . S
C1458 C1456 1.389 . S
C1458 C1459 1.524 . S
C1458 C1472 1.377 . S
C1459 C1458 1.524 . S
C1459 C1460 1.397 . S
C1459 C1464 1.363 . S
C1460 H1437 0.950 . S
C1460 C1459 1.397 . S
C1460 C1461 1.334 . S
C1461 H1438 0.941 1_554 S
C1461 C1460 1.334 . S
C1461 C1462 1.287 . S
C1462 C1461 1.287 . S
C1462 C1463 1.524 . S
C1462 H1481 0.913 1_554 S
C1463 H1439 0.950 . S
C1463 C1462 1.524 . S
C1463 C1464 1.415 . S
C1464 H1440 0.950 . S
C1464 C1459 1.363 . S
C1464 C1463 1.415 . S
C1465 H1441 0.951 . S
C1465 C1466 1.366 . S
C1465 C1467 1.388 . S
C1466 C1465 1.366 . S
C1466 C1470 1.385 . S
C1467 H1442 0.951 . S
C1467 C1465 1.388 . S
C1467 C1468 1.366 . S
C1468 C1467 1.366 . S
C1468 C1469 1.414 . S
C1468 C1471 1.499 . S
C1469 H1443 0.950 . S
C1469 C1468 1.414 . S
C1469 C1470 1.374 . S
C1470 H1444 0.950 . S
C1470 C1466 1.385 . S
C1470 C1469 1.374 . S
C1471 C1468 1.499 . S
C1471 C1472 1.373 . S
C1471 C1473 1.389 . S
C1472 H1445 0.950 . S
C1472 C1458 1.377 . S
C1472 C1471 1.373 . S
C1473 C1457 1.377 . S
C1473 C1471 1.389 . S
C1473 C1474 1.524 . S
C1474 C1473 1.524 . S
C1474 C1475 1.397 . S
C1474 C1479 1.363 . S
C1475 H1446 0.950 . S
C1475 C1474 1.397 . S
C1475 C1476 1.334 . S
C1476 H1447 0.950 . S
C1476 C1475 1.334 . S
C1476 C1477 1.287 . S
C1477 C1476 1.287 . S
C1477 C1478 1.524 . S
C1477 H1480 0.999 1_565 S
C1478 H1448 0.950 . S
C1478 C1477 1.524 . S
C1478 C1479 1.415 . S
C1479 H1449 0.950 . S
C1479 C1474 1.363 . S
C1479 C1478 1.415 . S
H1480 C1477 0.999 1_545 S
H1481 C1462 0.913 1_556 S
H1482 C1500 0.951 . S
H1483 C1502 0.951 . S
H1484 C1504 0.961 . S
H1485 C1505 0.950 . S
H1486 C1507 0.950 . S
H1487 C1510 0.944 1_455 S
H1488 C1511 0.950 . S
H1489 C1513 0.950 . S
H1490 C1514 0.952 1_455 S
H1491 C1515 0.951 . S
H1492 C1517 0.951 . S
H1493 C1519 0.950 . S
H1494 C1520 0.950 . S
H1495 C1522 0.950 . S
H1496 C1525 0.950 . S
H1497 C1526 0.950 . S
H1498 C1528 0.950 . S
H1499 C1529 0.950 . S
C1500 H1482 0.951 . S
C1500 C1501 1.366 . S
C1500 C1502 1.388 . S
C1501 C1500 1.366 . S
C1501 C1505 1.385 . S
C1502 H1483 0.951 . S
C1502 C1500 1.388 . S
C1502 C1503 1.366 . S
C1503 C1502 1.366 . S
C1503 C1504 1.414 . S
C1503 C1506 1.499 1_655 S
C1504 H1484 0.961 . S
C1504 C1503 1.414 . S
C1504 C1505 1.374 . S
C1505 H1485 0.950 . S
C1505 C1501 1.385 . S
C1505 C1504 1.374 . S
C1506 C1503 1.499 1_455 S
C1506 C1507 1.373 . S
C1506 C1508 1.389 . S
C1507 H1486 0.950 . S
C1507 C1506 1.373 . S
C1507 C1523 1.377 . S
C1508 C1506 1.389 . S
C1508 C1509 1.524 . S
C1508 C1522 1.377 . S
C1509 C1508 1.524 . S
C1509 C1510 1.397 1_455 S
C1509 C1514 1.361 1_455 S
C1510 H1487 0.944 1_655 S
C1510 C1509 1.397 1_655 S
C1510 C1511 1.334 . S
C1511 H1488 0.950 . S
C1511 C1510 1.334 . S
C1511 C1512 1.287 . S
C1512 C1511 1.287 . S
C1512 C1513 1.524 . S
C1512 H1531 0.913 . S
C1513 H1489 0.950 . S
C1513 C1512 1.524 . S
C1513 C1514 1.418 . S
C1514 H1490 0.952 1_655 S
C1514 C1509 1.361 1_655 S
C1514 C1513 1.418 . S
C1515 H1491 0.951 . S
C1515 C1516 1.366 . S
C1515 C1517 1.388 . S
C1516 C1515 1.366 . S
C1516 C1520 1.385 . S
C1517 H1492 0.951 . S
C1517 C1515 1.388 . S
C1517 C1518 1.366 . S
C1518 C1517 1.366 . S
C1518 C1519 1.414 . S
C1518 C1521 1.499 . S
C1519 H1493 0.950 . S
C1519 C1518 1.414 . S
C1519 C1520 1.374 . S
C1520 H1494 0.950 . S
C1520 C1516 1.385 . S
C1520 C1519 1.374 . S
C1521 C1518 1.499 . S
C1521 C1522 1.373 . S
C1521 C1523 1.389 . S
C1522 H1495 0.950 . S
C1522 C1508 1.377 . S
C1522 C1521 1.373 . S
C1523 C1507 1.377 . S
C1523 C1521 1.389 . S
C1523 C1524 1.524 . S
C1524 C1523 1.524 . S
C1524 C1525 1.397 . S
C1524 C1529 1.363 . S
C1525 H1496 0.950 . S
C1525 C1524 1.397 . S
C1525 C1526 1.334 . S
C1526 H1497 0.950 . S
C1526 C1525 1.334 . S
C1526 C1527 1.287 . S
C1527 C1526 1.287 . S
C1527 C1528 1.524 . S
C1527 H1530 0.999 . S
C1528 H1498 0.950 . S
C1528 C1527 1.524 . S
C1528 C1529 1.415 . S
C1529 H1499 0.950 . S
C1529 C1524 1.363 . S
C1529 C1528 1.415 . S
H1530 C1527 0.999 . S
H1531 C1512 0.913 . S
H1532 C1550 0.951 . S
H1533 C1552 0.951 . S
H1534 C1554 0.950 . S
H1535 C1555 0.950 . S
H1536 C1557 0.950 . S
H1537 C1560 0.950 . S
H1538 C1561 0.950 . S
H1539 C1563 0.950 . S
H1540 C1564 0.950 . S
H1541 C1565 0.951 . S
H1542 C1567 0.951 . S
H1543 C1569 0.950 . S
H1544 C1570 0.950 . S
H1545 C1572 0.950 . S
H1546 C1575 0.950 . S
H1547 C1576 0.950 . S
H1548 C1578 0.950 . S
H1549 C1579 0.950 . S
C1550 H1532 0.951 . S
C1550 C1551 1.366 . S
C1550 C1552 1.388 . S
C1551 C1550 1.366 . S
C1551 C1555 1.385 . S
C1552 H1533 0.951 . S
C1552 C1550 1.388 . S
C1552 C1553 1.366 . S
C1553 C1552 1.366 . S
C1553 C1554 1.414 . S
C1553 C1556 1.499 . S
C1554 H1534 0.950 . S
C1554 C1553 1.414 . S
C1554 C1555 1.374 . S
C1555 H1535 0.950 . S
C1555 C1551 1.385 . S
C1555 C1554 1.374 . S
C1556 C1553 1.499 . S
C1556 C1557 1.373 . S
C1556 C1558 1.389 . S
C1557 H1536 0.950 . S
C1557 C1556 1.373 . S
C1557 C1573 1.377 . S
C1558 C1556 1.389 . S
C1558 C1559 1.524 . S
C1558 C1572 1.377 . S
C1559 C1558 1.524 . S
C1559 C1560 1.397 . S
C1559 C1564 1.363 . S
C1560 H1537 0.950 . S
C1560 C1559 1.397 . S
C1560 C1561 1.334 . S
C1561 H1538 0.950 . S
C1561 C1560 1.334 . S
C1561 C1562 1.287 . S
C1562 C1561 1.287 . S
C1562 C1563 1.524 . S
C1562 H1581 0.913 . S
C1563 H1539 0.950 . S
C1563 C1562 1.524 . S
C1563 C1564 1.415 . S
C1564 H1540 0.950 . S
C1564 C1559 1.363 . S
C1564 C1563 1.415 . S
C1565 H1541 0.951 . S
C1565 C1566 1.366 . S
C1565 C1567 1.388 . S
C1566 C1565 1.366 . S
C1566 C1570 1.385 . S
C1567 H1542 0.951 . S
C1567 C1565 1.388 . S
C1567 C1568 1.366 . S
C1568 C1567 1.366 . S
C1568 C1569 1.414 . S
C1568 C1571 1.499 . S
C1569 H1543 0.950 . S
C1569 C1568 1.414 . S
C1569 C1570 1.374 . S
C1570 H1544 0.950 . S
C1570 C1566 1.385 . S
C1570 C1569 1.374 . S
C1571 C1568 1.499 . S
C1571 C1572 1.373 . S
C1571 C1573 1.389 . S
C1572 H1545 0.950 . S
C1572 C1558 1.377 . S
C1572 C1571 1.373 . S
C1573 C1557 1.377 . S
C1573 C1571 1.389 . S
C1573 C1574 1.524 . S
C1574 C1573 1.524 . S
C1574 C1575 1.397 . S
C1574 C1579 1.363 . S
C1575 H1546 0.950 . S
C1575 C1574 1.397 . S
C1575 C1576 1.334 . S
C1576 H1547 0.950 . S
C1576 C1575 1.334 . S
C1576 C1577 1.287 . S
C1577 C1576 1.287 . S
C1577 C1578 1.524 . S
C1577 H1580 0.999 . S
C1578 H1548 0.950 . S
C1578 C1577 1.524 . S
C1578 C1579 1.415 . S
C1579 H1549 0.950 . S
C1579 C1574 1.363 . S
C1579 C1578 1.415 . S
H1580 C1577 0.999 . S
H1581 C1562 0.913 . S
H1582 C1600 0.951 . S
H1583 C1602 0.951 . S
H1584 C1604 0.950 . S
H1585 C1605 0.950 . S
H1586 C1607 0.950 . S
H1587 C1610 0.950 . S
H1588 C1611 0.950 . S
H1589 C1613 0.950 . S
H1590 C1614 0.950 . S
H1591 C1615 0.951 . S
H1592 C1617 0.951 . S
H1593 C1619 0.950 . S
H1594 C1620 0.950 . S
H1595 C1622 0.950 . S
H1596 C1625 0.950 . S
H1597 C1626 0.950 . S
H1598 C1628 0.950 . S
H1599 C1629 0.950 . S
C1600 H1582 0.951 . S
C1600 C1601 1.366 . S
C1600 C1602 1.388 . S
C1601 C1600 1.366 . S
C1601 C1605 1.385 . S
C1602 H1583 0.951 . S
C1602 C1600 1.388 . S
C1602 C1603 1.366 . S
C1603 C1602 1.366 . S
C1603 C1604 1.414 . S
C1603 C1606 1.499 1_545 S
C1604 H1584 0.950 . S
C1604 C1603 1.414 . S
C1604 C1605 1.374 . S
C1605 H1585 0.950 . S
C1605 C1601 1.385 . S
C1605 C1604 1.374 . S
C1606 C1603 1.499 1_565 S
C1606 C1607 1.373 . S
C1606 C1608 1.389 . S
C1607 H1586 0.950 . S
C1607 C1606 1.373 . S
C1607 C1623 1.377 . S
C1608 C1606 1.389 . S
C1608 C1609 1.524 . S
C1608 C1622 1.377 . S
C1609 C1608 1.524 . S
C1609 C1610 1.397 1_565 S
C1609 C1614 1.363 . S
C1610 H1587 0.950 . S
C1610 C1609 1.397 1_545 S
C1610 C1611 1.334 . S
C1611 H1588 0.950 . S
C1611 C1610 1.334 . S
C1611 C1612 1.287 . S
C1612 C1611 1.287 . S
C1612 C1613 1.524 . S
C1612 H1631 0.913 . S
C1613 H1589 0.950 . S
C1613 C1612 1.524 . S
C1613 C1614 1.415 1_545 S
C1614 H1590 0.950 . S
C1614 C1609 1.363 . S
C1614 C1613 1.415 1_565 S
C1615 H1591 0.951 . S
C1615 C1616 1.366 . S
C1615 C1617 1.388 . S
C1616 C1615 1.366 . S
C1616 C1620 1.385 . S
C1617 H1592 0.951 . S
C1617 C1615 1.388 . S
C1617 C1618 1.366 . S
C1618 C1617 1.366 . S
C1618 C1619 1.414 . S
C1618 C1621 1.499 . S
C1619 H1593 0.950 . S
C1619 C1618 1.414 . S
C1619 C1620 1.374 . S
C1620 H1594 0.950 . S
C1620 C1616 1.385 . S
C1620 C1619 1.374 . S
C1621 C1618 1.499 . S
C1621 C1622 1.373 . S
C1621 C1623 1.389 . S
C1622 H1595 0.950 . S
C1622 C1608 1.377 . S
C1622 C1621 1.373 . S
C1623 C1607 1.377 . S
C1623 C1621 1.389 . S
C1623 C1624 1.524 . S
C1624 C1623 1.524 . S
C1624 C1625 1.397 . S
C1624 C1629 1.363 . S
C1625 H1596 0.950 . S
C1625 C1624 1.397 . S
C1625 C1626 1.334 . S
C1626 H1597 0.950 . S
C1626 C1625 1.334 . S
C1626 C1627 1.287 . S
C1627 C1626 1.287 . S
C1627 C1628 1.524 . S
C1627 H1630 0.999 . S
C1628 H1598 0.950 . S
C1628 C1627 1.524 . S
C1628 C1629 1.415 . S
C1629 H1599 0.950 . S
C1629 C1624 1.363 . S
C1629 C1628 1.415 . S
H1630 C1627 0.999 . S
H1631 C1612 0.913 . S
H1632 C1650 0.951 . S
H1633 C1652 0.951 . S
H1634 C1654 0.950 . S
H1635 C1655 0.950 . S
H1636 C1657 0.950 . S
H1637 C1660 0.950 . S
H1638 C1661 0.950 . S
H1639 C1663 0.950 . S
H1640 C1664 0.950 . S
H1641 C1665 0.951 . S
H1642 C1667 0.951 . S
H1643 C1669 0.950 . S
H1644 C1670 0.950 . S
H1645 C1672 0.950 . S
H1646 C1675 0.950 . S
H1647 C1676 0.950 . S
H1648 C1678 0.950 . S
H1649 C1679 0.950 . S
C1650 H1632 0.951 . S
C1650 C1651 1.366 . S
C1650 C1652 1.388 . S
C1651 C1650 1.366 . S
C1651 C1655 1.385 . S
C1652 H1633 0.951 . S
C1652 C1650 1.388 . S
C1652 C1653 1.366 . S
C1653 C1652 1.366 . S
C1653 C1654 1.414 . S
C1653 C1656 1.499 . S
C1654 H1634 0.950 . S
C1654 C1653 1.414 . S
C1654 C1655 1.374 . S
C1655 H1635 0.950 . S
C1655 C1651 1.385 . S
C1655 C1654 1.374 . S
C1656 C1653 1.499 . S
C1656 C1657 1.373 . S
C1656 C1658 1.389 . S
C1657 H1636 0.950 . S
C1657 C1656 1.373 . S
C1657 C1673 1.377 . S
C1658 C1656 1.389 . S
C1658 C1659 1.524 . S
C1658 C1672 1.377 . S
C1659 C1658 1.524 . S
C1659 C1660 1.397 . S
C1659 C1664 1.363 . S
C1660 H1637 0.950 . S
C1660 C1659 1.397 . S
C1660 C1661 1.334 . S
C1661 H1638 0.950 . S
C1661 C1660 1.334 . S
C1661 C1662 1.287 . S
C1662 C1661 1.287 . S
C1662 C1663 1.524 . S
C1662 H1681 0.913 . S
C1663 H1639 0.950 . S
C1663 C1662 1.524 . S
C1663 C1664 1.415 . S
C1664 H1640 0.950 . S
C1664 C1659 1.363 . S
C1664 C1663 1.415 . S
C1665 H1641 0.951 . S
C1665 C1666 1.366 . S
C1665 C1667 1.388 . S
C1666 C1665 1.366 . S
C1666 C1670 1.385 . S
C1667 H1642 0.951 . S
C1667 C1665 1.388 . S
C1667 C1668 1.366 . S
C1668 C1667 1.366 . S
C1668 C1669 1.414 . S
C1668 C1671 1.499 . S
C1669 H1643 0.950 . S
C1669 C1668 1.414 . S
C1669 C1670 1.374 . S
C1670 H1644 0.950 . S
C1670 C1666 1.385 . S
C1670 C1669 1.374 . S
C1671 C1668 1.499 . S
C1671 C1672 1.373 . S
C1671 C1673 1.389 . S
C1672 H1645 0.950 . S
C1672 C1658 1.377 . S
C1672 C1671 1.373 . S
C1673 C1657 1.377 . S
C1673 C1671 1.389 . S
C1673 C1674 1.524 . S
C1674 C1673 1.524 . S
C1674 C1675 1.397 . S
C1674 C1679 1.363 . S
C1675 H1646 0.950 . S
C1675 C1674 1.397 . S
C1675 C1676 1.334 . S
C1676 H1647 0.950 . S
C1676 C1675 1.334 . S
C1676 C1677 1.287 . S
C1677 C1676 1.287 . S
C1677 C1678 1.524 . S
C1677 H1680 0.999 . S
C1678 H1648 0.950 . S
C1678 C1677 1.524 . S
C1678 C1679 1.415 . S
C1679 H1649 0.950 . S
C1679 C1674 1.363 . S
C1679 C1678 1.415 . S
H1680 C1677 0.999 . S
H1681 C1662 0.913 . S
H1682 C1700 0.951 . S
H1683 C1702 0.951 . S
H1684 C1704 0.950 . S
H1685 C1705 0.950 . S
H1686 C1707 0.950 . S
H1687 C1710 0.950 . S
H1688 C1711 0.950 . S
H1689 C1713 0.950 . S
H1690 C1714 0.950 . S
H1691 C1715 0.951 . S
H1692 C1717 0.951 . S
H1693 C1719 0.950 . S
H1694 C1720 0.950 . S
H1695 C1722 0.950 . S
H1696 C1725 0.950 . S
H1697 C1726 0.950 . S
H1698 C1728 0.950 . S
H1699 C1729 0.950 . S
C1700 H1682 0.951 . S
C1700 C1701 1.366 . S
C1700 C1702 1.388 . S
C1701 C1700 1.366 . S
C1701 C1705 1.385 . S
C1702 H1683 0.951 . S
C1702 C1700 1.388 . S
C1702 C1703 1.366 . S
C1703 C1702 1.366 . S
C1703 C1704 1.414 . S
C1703 C1706 1.499 . S
C1704 H1684 0.950 . S
C1704 C1703 1.414 . S
C1704 C1705 1.374 . S
C1705 H1685 0.950 . S
C1705 C1701 1.385 . S
C1705 C1704 1.374 . S
C1706 C1703 1.499 . S
C1706 C1707 1.373 . S
C1706 C1708 1.389 . S
C1707 H1686 0.950 . S
C1707 C1706 1.373 . S
C1707 C1723 1.377 . S
C1708 C1706 1.389 . S
C1708 C1709 1.524 . S
C1708 C1722 1.377 . S
C1709 C1708 1.524 . S
C1709 C1710 1.397 . S
C1709 C1714 1.363 . S
C1710 H1687 0.950 . S
C1710 C1709 1.397 . S
C1710 C1711 1.334 . S
C1711 H1688 0.950 . S
C1711 C1710 1.334 . S
C1711 C1712 1.287 . S
C1712 C1711 1.287 . S
C1712 C1713 1.524 . S
C1712 H1731 0.913 . S
C1713 H1689 0.950 . S
C1713 C1712 1.524 . S
C1713 C1714 1.415 . S
C1714 H1690 0.950 . S
C1714 C1709 1.363 . S
C1714 C1713 1.415 . S
C1715 H1691 0.951 . S
C1715 C1716 1.366 . S
C1715 C1717 1.388 . S
C1716 C1715 1.366 . S
C1716 C1720 1.385 . S
C1717 H1692 0.951 . S
C1717 C1715 1.388 . S
C1717 C1718 1.366 . S
C1718 C1717 1.366 . S
C1718 C1719 1.414 . S
C1718 C1721 1.499 . S
C1719 H1693 0.950 . S
C1719 C1718 1.414 . S
C1719 C1720 1.374 . S
C1720 H1694 0.950 . S
C1720 C1716 1.385 . S
C1720 C1719 1.374 . S
C1721 C1718 1.499 . S
C1721 C1722 1.373 . S
C1721 C1723 1.389 . S
C1722 H1695 0.950 . S
C1722 C1708 1.377 . S
C1722 C1721 1.373 . S
C1723 C1707 1.377 . S
C1723 C1721 1.389 . S
C1723 C1724 1.524 . S
C1724 C1723 1.524 . S
C1724 C1725 1.397 . S
C1724 C1729 1.363 . S
C1725 H1696 0.950 . S
C1725 C1724 1.397 . S
C1725 C1726 1.334 . S
C1726 H1697 0.950 . S
C1726 C1725 1.334 . S
C1726 C1727 1.287 . S
C1727 C1726 1.287 . S
C1727 C1728 1.524 . S
C1727 H1730 0.999 . S
C1728 H1698 0.950 . S
C1728 C1727 1.524 . S
C1728 C1729 1.415 . S
C1729 H1699 0.950 . S
C1729 C1724 1.363 . S
C1729 C1728 1.415 . S
H1730 C1727 0.999 . S
H1731 C1712 0.913 . S
H1732 C1750 0.951 . S
H1733 C1752 0.951 . S
H1734 C1754 0.950 . S
H1735 C1755 0.950 . S
H1736 C1757 0.950 . S
H1737 C1760 0.950 . S
H1738 C1761 0.950 . S
H1739 C1763 0.950 . S
H1740 C1764 0.950 . S
H1741 C1765 0.951 . S
H1742 C1767 0.951 . S
H1743 C1769 0.950 . S
H1744 C1770 0.950 . S
H1745 C1772 0.950 . S
H1746 C1775 0.950 . S
H1747 C1776 0.950 . S
H1748 C1778 0.950 . S
H1749 C1779 0.950 . S
C1750 H1732 0.951 . S
C1750 C1751 1.366 . S
C1750 C1752 1.388 . S
C1751 C1750 1.366 . S
C1751 C1755 1.385 . S
C1752 H1733 0.951 . S
C1752 C1750 1.388 . S
C1752 C1753 1.366 . S
C1753 C1752 1.366 . S
C1753 C1754 1.414 . S
C1753 C1756 1.499 . S
C1754 H1734 0.950 . S
C1754 C1753 1.414 . S
C1754 C1755 1.374 . S
C1755 H1735 0.950 . S
C1755 C1751 1.385 . S
C1755 C1754 1.374 . S
C1756 C1753 1.499 . S
C1756 C1757 1.373 . S
C1756 C1758 1.389 . S
C1757 H1736 0.950 . S
C1757 C1756 1.373 . S
C1757 C1773 1.377 . S
C1758 C1756 1.389 . S
C1758 C1759 1.524 . S
C1758 C1772 1.377 . S
C1759 C1758 1.524 . S
C1759 C1760 1.397 . S
C1759 C1764 1.363 . S
C1760 H1737 0.950 . S
C1760 C1759 1.397 . S
C1760 C1761 1.334 . S
C1761 H1738 0.950 . S
C1761 C1760 1.334 . S
C1761 C1762 1.287 . S
C1762 C1761 1.287 . S
C1762 C1763 1.524 . S
C1762 H1781 0.913 . S
C1763 H1739 0.950 . S
C1763 C1762 1.524 . S
C1763 C1764 1.415 . S
C1764 H1740 0.950 . S
C1764 C1759 1.363 . S
C1764 C1763 1.415 . S
C1765 H1741 0.951 . S
C1765 C1766 1.366 . S
C1765 C1767 1.388 . S
C1766 C1765 1.366 . S
C1766 C1770 1.385 . S
C1767 H1742 0.951 . S
C1767 C1765 1.388 . S
C1767 C1768 1.366 . S
C1768 C1767 1.366 . S
C1768 C1769 1.414 . S
C1768 C1771 1.499 . S
C1769 H1743 0.950 . S
C1769 C1768 1.414 . S
C1769 C1770 1.374 . S
C1770 H1744 0.950 . S
C1770 C1766 1.385 . S
C1770 C1769 1.374 . S
C1771 C1768 1.499 . S
C1771 C1772 1.373 . S
C1771 C1773 1.389 . S
C1772 H1745 0.950 . S
C1772 C1758 1.377 . S
C1772 C1771 1.373 . S
C1773 C1757 1.377 . S
C1773 C1771 1.389 . S
C1773 C1774 1.524 . S
C1774 C1773 1.524 . S
C1774 C1775 1.397 . S
C1774 C1779 1.363 . S
C1775 H1746 0.950 . S
C1775 C1774 1.397 . S
C1775 C1776 1.334 . S
C1776 H1747 0.950 . S
C1776 C1775 1.334 . S
C1776 C1777 1.287 . S
C1777 C1776 1.287 . S
C1777 C1778 1.524 . S
C1777 H1780 0.999 . S
C1778 H1748 0.950 . S
C1778 C1777 1.524 . S
C1778 C1779 1.415 . S
C1779 H1749 0.950 . S
C1779 C1774 1.363 . S
C1779 C1778 1.415 . S
H1780 C1777 0.999 . S
H1781 C1762 0.913 . S
H1782 C1800 0.951 . S
H1783 C1802 0.951 . S
H1784 C1804 0.950 . S
H1785 C1805 0.950 . S
H1786 C1807 0.950 . S
H1787 C1810 0.950 . S
H1788 C1811 0.950 . S
H1789 C1813 0.950 . S
H1790 C1814 0.950 . S
H1791 C1815 0.951 . S
H1792 C1817 0.951 . S
H1793 C1819 0.950 . S
H1794 C1820 0.950 . S
H1795 C1822 0.950 . S
H1796 C1825 0.950 . S
H1797 C1826 0.950 . S
H1798 C1828 0.950 . S
H1799 C1829 0.950 . S
C1800 H1782 0.951 . S
C1800 C1801 1.366 . S
C1800 C1802 1.388 . S
C1801 C1800 1.366 . S
C1801 C1805 1.385 . S
C1802 H1783 0.951 . S
C1802 C1800 1.388 . S
C1802 C1803 1.366 . S
C1803 C1802 1.366 . S
C1803 C1804 1.414 . S
C1803 C1806 1.499 . S
C1804 H1784 0.950 . S
C1804 C1803 1.414 . S
C1804 C1805 1.374 . S
C1805 H1785 0.950 . S
C1805 C1801 1.385 . S
C1805 C1804 1.374 . S
C1806 C1803 1.499 . S
C1806 C1807 1.373 . S
C1806 C1808 1.389 . S
C1807 H1786 0.950 . S
C1807 C1806 1.373 . S
C1807 C1823 1.377 . S
C1808 C1806 1.389 . S
C1808 C1809 1.524 . S
C1808 C1822 1.377 . S
C1809 C1808 1.524 . S
C1809 C1810 1.397 . S
C1809 C1814 1.363 . S
C1810 H1787 0.950 . S
C1810 C1809 1.397 . S
C1810 C1811 1.334 . S
C1811 H1788 0.950 . S
C1811 C1810 1.334 . S
C1811 C1812 1.287 . S
C1812 C1811 1.287 . S
C1812 C1813 1.524 . S
C1812 H1831 0.913 . S
C1813 H1789 0.950 . S
C1813 C1812 1.524 . S
C1813 C1814 1.415 . S
C1814 H1790 0.950 . S
C1814 C1809 1.363 . S
C1814 C1813 1.415 . S
C1815 H1791 0.951 . S
C1815 C1816 1.366 . S
C1815 C1817 1.388 . S
C1816 C1815 1.366 . S
C1816 C1820 1.385 . S
C1817 H1792 0.951 . S
C1817 C1815 1.388 . S
C1817 C1818 1.366 . S
C1818 C1817 1.366 . S
C1818 C1819 1.414 . S
C1818 C1821 1.499 . S
C1819 H1793 0.950 . S
C1819 C1818 1.414 . S
C1819 C1820 1.374 . S
C1820 H1794 0.950 . S
C1820 C1816 1.385 . S
C1820 C1819 1.374 . S
C1821 C1818 1.499 . S
C1821 C1822 1.373 . S
C1821 C1823 1.389 . S
C1822 H1795 0.950 . S
C1822 C1808 1.377 . S
C1822 C1821 1.373 . S
C1823 C1807 1.377 . S
C1823 C1821 1.389 . S
C1823 C1824 1.524 . S
C1824 C1823 1.524 . S
C1824 C1825 1.397 . S
C1824 C1829 1.363 . S
C1825 H1796 0.950 . S
C1825 C1824 1.397 . S
C1825 C1826 1.334 . S
C1826 H1797 0.950 . S
C1826 C1825 1.334 . S
C1826 C1827 1.287 . S
C1827 C1826 1.287 . S
C1827 C1828 1.524 . S
C1827 H1830 0.999 . S
C1828 H1798 0.950 . S
C1828 C1827 1.524 . S
C1828 C1829 1.415 . S
C1829 H1799 0.950 . S
C1829 C1824 1.363 . S
C1829 C1828 1.415 . S
H1830 C1827 0.999 . S
H1831 C1812 0.913 . S
H1832 C1850 0.951 . S
H1833 C1852 0.951 . S
H1834 C1854 0.950 . S
H1835 C1855 0.950 . S
H1836 C1857 0.950 . S
H1837 C1860 0.950 . S
H1838 C1861 0.950 . S
H1839 C1863 0.950 . S
H1840 C1864 0.950 . S
H1841 C1865 0.951 . S
H1842 C1867 0.951 . S
H1843 C1869 0.950 . S
H1844 C1870 0.950 . S
H1845 C1872 0.950 . S
H1846 C1875 0.950 . S
H1847 C1876 0.950 . S
H1848 C1878 0.950 . S
H1849 C1879 0.950 . S
C1850 H1832 0.951 . S
C1850 C1851 1.366 . S
C1850 C1852 1.388 . S
C1851 C1850 1.366 . S
C1851 C1855 1.385 . S
C1852 H1833 0.951 . S
C1852 C1850 1.388 . S
C1852 C1853 1.366 . S
C1853 C1852 1.366 . S
C1853 C1854 1.414 . S
C1853 C1856 1.499 . S
C1854 H1834 0.950 . S
C1854 C1853 1.414 . S
C1854 C1855 1.374 . S
C1855 H1835 0.950 . S
C1855 C1851 1.385 . S
C1855 C1854 1.374 . S
C1856 C1853 1.499 . S
C1856 C1857 1.373 . S
C1856 C1858 1.389 . S
C1857 H1836 0.950 . S
C1857 C1856 1.373 . S
C1857 C1873 1.377 . S
C1858 C1856 1.389 . S
C1858 C1859 1.524 . S
C1858 C1872 1.377 . S
C1859 C1858 1.524 . S
C1859 C1860 1.397 . S
C1859 C1864 1.363 . S
C1860 H1837 0.950 . S
C1860 C1859 1.397 . S
C1860 C1861 1.334 . S
C1861 H1838 0.950 . S
C1861 C1860 1.334 . S
C1861 C1862 1.287 . S
C1862 C1861 1.287 . S
C1862 C1863 1.524 . S
C1862 H1881 0.913 . S
C1863 H1839 0.950 . S
C1863 C1862 1.524 . S
C1863 C1864 1.415 . S
C1864 H1840 0.950 . S
C1864 C1859 1.363 . S
C1864 C1863 1.415 . S
C1865 H1841 0.951 . S
C1865 C1866 1.366 . S
C1865 C1867 1.388 . S
C1866 C1865 1.366 . S
C1866 C1870 1.385 . S
C1867 H1842 0.951 . S
C1867 C1865 1.388 . S
C1867 C1868 1.366 . S
C1868 C1867 1.366 . S
C1868 C1869 1.414 . S
C1868 C1871 1.499 . S
C1869 H1843 0.950 . S
C1869 C1868 1.414 . S
C1869 C1870 1.374 . S
C1870 H1844 0.950 . S
C1870 C1866 1.385 . S
C1870 C1869 1.374 . S
C1871 C1868 1.499 . S
C1871 C1872 1.373 . S
C1871 C1873 1.389 . S
C1872 H1845 0.950 . S
C1872 C1858 1.377 . S
C1872 C1871 1.373 . S
C1873 C1857 1.377 . S
C1873 C1871 1.389 . S
C1873 C1874 1.524 . S
C1874 C1873 1.524 . S
C1874 C1875 1.397 . S
C1874 C1879 1.363 . S
C1875 H1846 0.950 . S
C1875 C1874 1.397 . S
C1875 C1876 1.334 . S
C1876 H1847 0.950 . S
C1876 C1875 1.334 . S
C1876 C1877 1.287 . S
C1877 C1876 1.287 . S
C1877 C1878 1.524 . S
C1877 H1880 0.999 . S
C1878 H1848 0.950 . S
C1878 C1877 1.524 . S
C1878 C1879 1.415 . S
C1879 H1849 0.950 . S
C1879 C1874 1.363 . S
C1879 C1878 1.415 . S
H1880 C1877 0.999 . S
H1881 C1862 0.913 . S
H1882 C1900 0.951 . S
H1883 C1902 0.951 . S
H1884 C1904 0.950 . S
H1885 C1905 0.950 . S
H1886 C1907 0.950 . S
H1887 C1910 0.950 . S
H1888 C1911 0.950 . S
H1889 C1913 0.950 . S
H1890 C1914 0.950 . S
H1891 C1915 0.951 . S
H1892 C1917 0.951 . S
H1893 C1919 0.950 . S
H1894 C1920 0.950 . S
H1895 C1922 0.950 . S
H1896 C1925 0.950 . S
H1897 C1926 0.950 . S
H1898 C1928 0.950 . S
H1899 C1929 0.950 . S
C1900 H1882 0.951 . S
C1900 C1901 1.366 . S
C1900 C1902 1.388 . S
C1901 C1900 1.366 . S
C1901 C1905 1.385 . S
C1902 H1883 0.951 . S
C1902 C1900 1.388 . S
C1902 C1903 1.366 . S
C1903 C1902 1.366 . S
C1903 C1904 1.414 . S
C1903 C1906 1.499 . S
C1904 H1884 0.950 . S
C1904 C1903 1.414 . S
C1904 C1905 1.374 . S
C1905 H1885 0.950 . S
C1905 C1901 1.385 . S
C1905 C1904 1.374 . S
C1906 C1903 1.499 . S
C1906 C1907 1.373 . S
C1906 C1908 1.389 . S
C1907 H1886 0.950 . S
C1907 C1906 1.373 . S
C1907 C1923 1.377 . S
C1908 C1906 1.389 . S
C1908 C1909 1.524 . S
C1908 C1922 1.377 . S
C1909 C1908 1.524 . S
C1909 C1910 1.397 . S
C1909 C1914 1.363 . S
C1910 H1887 0.950 . S
C1910 C1909 1.397 . S
C1910 C1911 1.334 . S
C1911 H1888 0.950 . S
C1911 C1910 1.334 . S
C1911 C1912 1.287 . S
C1912 C1911 1.287 . S
C1912 C1913 1.524 . S
C1912 H1931 0.913 . S
C1913 H1889 0.950 . S
C1913 C1912 1.524 . S
C1913 C1914 1.415 . S
C1914 H1890 0.950 . S
C1914 C1909 1.363 . S
C1914 C1913 1.415 . S
C1915 H1891 0.951 . S
C1915 C1916 1.366 . S
C1915 C1917 1.388 . S
C1916 C1915 1.366 . S
C1916 C1920 1.385 . S
C1917 H1892 0.951 . S
C1917 C1915 1.388 . S
C1917 C1918 1.366 . S
C1918 C1917 1.366 . S
C1918 C1919 1.414 . S
C1918 C1921 1.499 . S
C1919 H1893 0.950 . S
C1919 C1918 1.414 . S
C1919 C1920 1.374 . S
C1920 H1894 0.950 . S
C1920 C1916 1.385 . S
C1920 C1919 1.374 . S
C1921 C1918 1.499 . S
C1921 C1922 1.373 . S
C1921 C1923 1.389 . S
C1922 H1895 0.950 . S
C1922 C1908 1.377 . S
C1922 C1921 1.373 . S
C1923 C1907 1.377 . S
C1923 C1921 1.389 . S
C1923 C1924 1.524 . S
C1924 C1923 1.524 . S
C1924 C1925 1.397 . S
C1924 C1929 1.363 . S
C1925 H1896 0.950 . S
C1925 C1924 1.397 . S
C1925 C1926 1.334 . S
C1926 H1897 0.950 . S
C1926 C1925 1.334 . S
C1926 C1927 1.287 . S
C1927 C1926 1.287 . S
C1927 C1928 1.524 . S
C1927 H1930 0.999 . S
C1928 H1898 0.950 . S
C1928 C1927 1.524 . S
C1928 C1929 1.415 . S
C1929 H1899 0.950 . S
C1929 C1924 1.363 . S
C1929 C1928 1.415 . S
H1930 C1927 0.999 . S
H1931 C1912 0.913 . S
H1932 C1950 0.951 . S
H1933 C1952 0.951 . S
H1934 C1954 0.950 . S
H1935 C1955 0.950 . S
H1936 C1957 0.950 . S
H1937 C1960 0.895 1_565 S
H1938 C1961 0.950 . S
H1939 C1963 0.950 . S
H1940 C1964 0.950 . S
H1941 C1965 0.951 . S
H1942 C1967 0.951 . S
H1943 C1969 0.950 . S
H1944 C1970 0.950 . S
H1945 C1972 0.950 . S
H1946 C1975 0.950 . S
H1947 C1976 0.950 . S
H1948 C1978 0.950 . S
H1949 C1979 0.950 . S
C1950 H1932 0.951 . S
C1950 C1951 1.366 . S
C1950 C1952 1.388 . S
C1951 C1950 1.366 . S
C1951 C1955 1.385 . S
C1952 H1933 0.951 . S
C1952 C1950 1.388 . S
C1952 C1953 1.366 . S
C1953 C1952 1.366 . S
C1953 C1954 1.414 . S
C1953 C1956 1.499 1_545 S
C1954 H1934 0.950 . S
C1954 C1953 1.414 . S
C1954 C1955 1.374 . S
C1955 H1935 0.950 . S
C1955 C1951 1.385 . S
C1955 C1954 1.374 . S
C1956 C1953 1.499 1_565 S
C1956 C1957 1.373 . S
C1956 C1958 1.389 . S
C1957 H1936 0.950 . S
C1957 C1956 1.373 . S
C1957 C1973 1.377 . S
C1958 C1956 1.389 . S
C1958 C1959 1.524 . S
C1958 C1972 1.377 . S
C1959 C1958 1.524 . S
C1959 C1960 1.375 1_565 S
C1959 C1964 1.363 . S
C1960 H1937 0.895 1_545 S
C1960 C1959 1.375 1_545 S
C1960 C1961 1.388 . S
C1961 H1938 0.950 . S
C1961 C1960 1.388 . S
C1961 C1962 1.287 . S
C1962 C1961 1.287 . S
C1962 C1963 1.524 . S
C1962 H1981 0.913 . S
C1963 H1939 0.950 . S
C1963 C1962 1.524 . S
C1963 C1964 1.415 1_545 S
C1964 H1940 0.950 . S
C1964 C1959 1.363 . S
C1964 C1963 1.415 1_565 S
C1965 H1941 0.951 . S
C1965 C1966 1.366 . S
C1965 C1967 1.388 . S
C1966 C1965 1.366 . S
C1966 C1970 1.385 . S
C1967 H1942 0.951 . S
C1967 C1965 1.388 . S
C1967 C1968 1.366 . S
C1968 C1967 1.366 . S
C1968 C1969 1.414 . S
C1968 C1971 1.499 . S
C1969 H1943 0.950 . S
C1969 C1968 1.414 . S
C1969 C1970 1.374 . S
C1970 H1944 0.950 . S
C1970 C1966 1.385 . S
C1970 C1969 1.374 . S
C1971 C1968 1.499 . S
C1971 C1972 1.373 . S
C1971 C1973 1.389 . S
C1972 H1945 0.950 . S
C1972 C1958 1.377 . S
C1972 C1971 1.373 . S
C1973 C1957 1.377 . S
C1973 C1971 1.389 . S
C1973 C1974 1.524 . S
C1974 C1973 1.524 . S
C1974 C1975 1.397 . S
C1974 C1979 1.363 . S
C1975 H1946 0.950 . S
C1975 C1974 1.397 . S
C1975 C1976 1.334 . S
C1976 H1947 0.950 . S
C1976 C1975 1.334 . S
C1976 C1977 1.287 . S
C1977 C1976 1.287 . S
C1977 C1978 1.524 . S
C1977 H1980 0.999 . S
C1978 H1948 0.950 . S
C1978 C1977 1.524 . S
C1978 C1979 1.415 . S
C1979 H1949 0.950 . S
C1979 C1974 1.363 . S
C1979 C1978 1.415 . S
H1980 C1977 0.999 . S
H1981 C1962 0.913 . S
H1982 C2000 0.951 . S
H1983 C2002 0.951 1_455 S
H1984 C2004 0.950 . S
H1985 C2005 0.950 . S
H1986 C2007 0.950 . S
H1987 C2010 0.950 1_655 S
H1988 C2011 0.950 . S
H1989 C2013 0.950 . S
H1990 C2014 0.950 . S
H1991 C2015 0.951 . S
H1992 C2017 0.951 . S
H1993 C2019 0.950 . S
H1994 C2020 0.950 . S
H1995 C2022 0.950 . S
H1996 C2025 0.950 . S
H1997 C2026 0.950 . S
H1998 C2028 0.950 . S
H1999 C2029 0.950 . S
C2000 H1982 0.951 . S
C2000 C2001 1.366 . S
C2000 C2002 1.388 . S
C2001 C2000 1.366 . S
C2001 C2005 1.385 . S
C2002 H1983 0.951 1_655 S
C2002 C2000 1.388 . S
C2002 C2003 1.379 . S
C2003 C2002 1.379 . S
C2003 C2004 1.430 . S
C2003 C2006 1.470 1_655 S
C2004 H1984 0.950 . S
C2004 C2003 1.430 . S
C2004 C2005 1.374 . S
C2005 H1985 0.950 . S
C2005 C2001 1.385 . S
C2005 C2004 1.374 . S
C2006 C2003 1.470 1_455 S
C2006 C2007 1.373 . S
C2006 C2008 1.389 . S
C2007 H1986 0.950 . S
C2007 C2006 1.373 . S
C2007 C2023 1.377 . S
C2008 C2006 1.389 . S
C2008 C2009 1.524 . S
C2008 C2022 1.377 . S
C2009 C2008 1.524 . S
C2009 C2010 1.397 . S
C2009 C2014 1.363 . S
C2010 H1987 0.950 1_455 S
C2010 C2009 1.397 . S
C2010 C2011 1.334 1_455 S
C2011 H1988 0.950 . S
C2011 C2010 1.334 1_655 S
C2011 C2012 1.287 1_655 S
C2012 C2011 1.287 1_455 S
C2012 C2013 1.524 . S
C2012 H2031 0.913 . S
C2013 H1989 0.950 . S
C2013 C2012 1.524 . S
C2013 C2014 1.415 . S
C2014 H1990 0.950 . S
C2014 C2009 1.363 . S
C2014 C2013 1.415 . S
C2015 H1991 0.951 . S
C2015 C2016 1.366 . S
C2015 C2017 1.388 . S
C2016 C2015 1.366 . S
C2016 C2020 1.385 . S
C2017 H1992 0.951 . S
C2017 C2015 1.388 . S
C2017 C2018 1.366 . S
C2018 C2017 1.366 . S
C2018 C2019 1.414 . S
C2018 C2021 1.499 . S
C2019 H1993 0.950 . S
C2019 C2018 1.414 . S
C2019 C2020 1.374 . S
C2020 H1994 0.950 . S
C2020 C2016 1.385 . S
C2020 C2019 1.374 . S
C2021 C2018 1.499 . S
C2021 C2022 1.373 . S
C2021 C2023 1.389 . S
C2022 H1995 0.950 . S
C2022 C2008 1.377 . S
C2022 C2021 1.373 . S
C2023 C2007 1.377 . S
C2023 C2021 1.389 . S
C2023 C2024 1.524 . S
C2024 C2023 1.524 . S
C2024 C2025 1.397 . S
C2024 C2029 1.363 . S
C2025 H1996 0.950 . S
C2025 C2024 1.397 . S
C2025 C2026 1.334 . S
C2026 H1997 0.950 . S
C2026 C2025 1.334 . S
C2026 C2027 1.287 . S
C2027 C2026 1.287 . S
C2027 C2028 1.524 . S
C2027 H2030 0.999 . S
C2028 H1998 0.950 . S
C2028 C2027 1.524 . S
C2028 C2029 1.415 . S
C2029 H1999 0.950 . S
C2029 C2024 1.363 . S
C2029 C2028 1.415 . S
H2030 C2027 0.999 . S
H2031 C2012 0.913 . S
H2032 C2050 0.951 . S
H2033 C2052 0.951 . S
H2034 C2054 0.950 . S
H2035 C2055 0.950 . S
H2036 C2057 0.950 . S
H2037 C2060 0.950 . S
H2038 C2061 0.950 . S
H2039 C2063 0.950 . S
H2040 C2064 0.950 . S
H2041 C2065 0.951 . S
H2042 C2067 0.951 . S
H2043 C2069 0.950 . S
H2044 C2070 0.950 . S
H2045 C2072 0.950 . S
H2046 C2075 0.950 . S
H2047 C2076 0.950 . S
H2048 C2078 0.950 . S
H2049 C2079 0.950 . S
C2050 H2032 0.951 . S
C2050 C2051 1.366 . S
C2050 C2052 1.388 . S
C2051 C2050 1.366 . S
C2051 C2055 1.385 . S
C2052 H2033 0.951 . S
C2052 C2050 1.388 . S
C2052 C2053 1.366 . S
C2053 C2052 1.366 . S
C2053 C2054 1.414 . S
C2053 C2056 1.499 . S
C2054 H2034 0.950 . S
C2054 C2053 1.414 . S
C2054 C2055 1.374 . S
C2055 H2035 0.950 . S
C2055 C2051 1.385 . S
C2055 C2054 1.374 . S
C2056 C2053 1.499 . S
C2056 C2057 1.373 . S
C2056 C2058 1.389 . S
C2057 H2036 0.950 . S
C2057 C2056 1.373 . S
C2057 C2073 1.377 . S
C2058 C2056 1.389 . S
C2058 C2059 1.524 . S
C2058 C2072 1.377 . S
C2059 C2058 1.524 . S
C2059 C2060 1.397 . S
C2059 C2064 1.363 . S
C2060 H2037 0.950 . S
C2060 C2059 1.397 . S
C2060 C2061 1.334 . S
C2061 H2038 0.950 . S
C2061 C2060 1.334 . S
C2061 C2062 1.287 . S
C2062 C2061 1.287 . S
C2062 C2063 1.524 . S
C2062 H2081 0.913 . S
C2063 H2039 0.950 . S
C2063 C2062 1.524 . S
C2063 C2064 1.415 . S
C2064 H2040 0.950 . S
C2064 C2059 1.363 . S
C2064 C2063 1.415 . S
C2065 H2041 0.951 . S
C2065 C2066 1.366 . S
C2065 C2067 1.388 . S
C2066 C2065 1.366 . S
C2066 C2070 1.385 . S
C2067 H2042 0.951 . S
C2067 C2065 1.388 . S
C2067 C2068 1.366 . S
C2068 C2067 1.366 . S
C2068 C2069 1.414 . S
C2068 C2071 1.499 . S
C2069 H2043 0.950 . S
C2069 C2068 1.414 . S
C2069 C2070 1.374 . S
C2070 H2044 0.950 . S
C2070 C2066 1.385 . S
C2070 C2069 1.374 . S
C2071 C2068 1.499 . S
C2071 C2072 1.373 . S
C2071 C2073 1.389 . S
C2072 H2045 0.950 . S
C2072 C2058 1.377 . S
C2072 C2071 1.373 . S
C2073 C2057 1.377 . S
C2073 C2071 1.389 . S
C2073 C2074 1.524 . S
C2074 C2073 1.524 . S
C2074 C2075 1.397 . S
C2074 C2079 1.363 . S
C2075 H2046 0.950 . S
C2075 C2074 1.397 . S
C2075 C2076 1.334 . S
C2076 H2047 0.950 . S
C2076 C2075 1.334 . S
C2076 C2077 1.287 . S
C2077 C2076 1.287 . S
C2077 C2078 1.524 . S
C2077 H2080 0.999 . S
C2078 H2048 0.950 . S
C2078 C2077 1.524 . S
C2078 C2079 1.415 . S
C2079 H2049 0.950 . S
C2079 C2074 1.363 . S
C2079 C2078 1.415 . S
H2080 C2077 0.999 . S
H2081 C2062 0.913 . S
H2082 C2100 0.951 . S
H2083 C2102 0.951 . S
H2084 C2104 0.950 . S
H2085 C2105 0.950 . S
H2086 C2107 0.950 . S
H2087 C2110 0.950 . S
H2088 C2111 0.950 . S
H2089 C2113 0.950 . S
H2090 C2114 0.950 . S
H2091 C2115 0.951 . S
H2092 C2117 0.951 . S
H2093 C2119 0.950 . S
H2094 C2120 0.950 . S
H2095 C2122 0.950 . S
H2096 C2125 0.950 . S
H2097 C2126 0.950 . S
H2098 C2128 0.950 . S
H2099 C2129 0.950 . S
C2100 H2082 0.951 . S
C2100 C2101 1.366 . S
C2100 C2102 1.388 . S
C2101 C2100 1.366 . S
C2101 C2105 1.385 . S
C2102 H2083 0.951 . S
C2102 C2100 1.388 . S
C2102 C2103 1.366 . S
C2103 C2102 1.366 . S
C2103 C2104 1.414 . S
C2103 C2106 1.499 . S
C2104 H2084 0.950 . S
C2104 C2103 1.414 . S
C2104 C2105 1.374 . S
C2105 H2085 0.950 . S
C2105 C2101 1.385 . S
C2105 C2104 1.374 . S
C2106 C2103 1.499 . S
C2106 C2107 1.373 . S
C2106 C2108 1.389 . S
C2107 H2086 0.950 . S
C2107 C2106 1.373 . S
C2107 C2123 1.377 . S
C2108 C2106 1.389 . S
C2108 C2109 1.524 . S
C2108 C2122 1.377 . S
C2109 C2108 1.524 . S
C2109 C2110 1.397 . S
C2109 C2114 1.363 . S
C2110 H2087 0.950 . S
C2110 C2109 1.397 . S
C2110 C2111 1.334 . S
C2111 H2088 0.950 . S
C2111 C2110 1.334 . S
C2111 C2112 1.287 . S
C2112 C2111 1.287 . S
C2112 C2113 1.524 . S
C2112 H2131 0.913 . S
C2113 H2089 0.950 . S
C2113 C2112 1.524 . S
C2113 C2114 1.415 . S
C2114 H2090 0.950 . S
C2114 C2109 1.363 . S
C2114 C2113 1.415 . S
C2115 H2091 0.951 . S
C2115 C2116 1.366 . S
C2115 C2117 1.388 . S
C2116 C2115 1.366 . S
C2116 C2120 1.385 . S
C2117 H2092 0.951 . S
C2117 C2115 1.388 . S
C2117 C2118 1.366 . S
C2118 C2117 1.366 . S
C2118 C2119 1.414 . S
C2118 C2121 1.499 . S
C2119 H2093 0.950 . S
C2119 C2118 1.414 . S
C2119 C2120 1.374 . S
C2120 H2094 0.950 . S
C2120 C2116 1.385 . S
C2120 C2119 1.374 . S
C2121 C2118 1.499 . S
C2121 C2122 1.373 . S
C2121 C2123 1.389 . S
C2122 H2095 0.950 . S
C2122 C2108 1.377 . S
C2122 C2121 1.373 . S
C2123 C2107 1.377 . S
C2123 C2121 1.389 . S
C2123 C2124 1.524 . S
C2124 C2123 1.524 . S
C2124 C2125 1.397 . S
C2124 C2129 1.363 . S
C2125 H2096 0.950 . S
C2125 C2124 1.397 . S
C2125 C2126 1.334 . S
C2126 H2097 0.950 . S
C2126 C2125 1.334 . S
C2126 C2127 1.287 . S
C2127 C2126 1.287 . S
C2127 C2128 1.524 . S
C2127 H2130 0.999 . S
C2128 H2098 0.950 . S
C2128 C2127 1.524 . S
C2128 C2129 1.415 . S
C2129 H2099 0.950 . S
C2129 C2124 1.363 . S
C2129 C2128 1.415 . S
H2130 C2127 0.999 . S
H2131 C2112 0.913 . S
H2132 C2150 0.951 . S
H2133 C2152 0.951 . S
H2134 C2154 0.950 . S
H2135 C2155 0.950 . S
H2136 C2157 0.950 . S
H2137 C2160 0.950 . S
H2138 C2161 0.950 . S
H2139 C2163 0.950 . S
H2140 C2164 0.950 . S
H2141 C2165 0.951 . S
H2142 C2167 0.951 . S
H2143 C2169 0.950 . S
H2144 C2170 0.950 . S
H2145 C2172 0.950 . S
H2146 C2175 0.950 . S
H2147 C2176 0.950 . S
H2148 C2178 0.950 . S
H2149 C2179 0.950 . S
C2150 H2132 0.951 . S
C2150 C2151 1.366 . S
C2150 C2152 1.388 . S
C2151 C2150 1.366 . S
C2151 C2155 1.385 . S
C2152 H2133 0.951 . S
C2152 C2150 1.388 . S
C2152 C2153 1.366 . S
C2153 C2152 1.366 . S
C2153 C2154 1.414 . S
C2153 C2156 1.499 . S
C2154 H2134 0.950 . S
C2154 C2153 1.414 . S
C2154 C2155 1.374 . S
C2155 H2135 0.950 . S
C2155 C2151 1.385 . S
C2155 C2154 1.374 . S
C2156 C2153 1.499 . S
C2156 C2157 1.373 . S
C2156 C2158 1.389 . S
C2157 H2136 0.950 . S
C2157 C2156 1.373 . S
C2157 C2173 1.377 . S
C2158 C2156 1.389 . S
C2158 C2159 1.524 . S
C2158 C2172 1.377 . S
C2159 C2158 1.524 . S
C2159 C2160 1.397 . S
C2159 C2164 1.363 . S
C2160 H2137 0.950 . S
C2160 C2159 1.397 . S
C2160 C2161 1.334 . S
C2161 H2138 0.950 . S
C2161 C2160 1.334 . S
C2161 C2162 1.287 . S
C2162 C2161 1.287 . S
C2162 C2163 1.524 . S
C2162 H2181 0.913 . S
C2163 H2139 0.950 . S
C2163 C2162 1.524 . S
C2163 C2164 1.415 . S
C2164 H2140 0.950 . S
C2164 C2159 1.363 . S
C2164 C2163 1.415 . S
C2165 H2141 0.951 . S
C2165 C2166 1.366 . S
C2165 C2167 1.388 . S
C2166 C2165 1.366 . S
C2166 C2170 1.385 . S
C2167 H2142 0.951 . S
C2167 C2165 1.388 . S
C2167 C2168 1.366 . S
C2168 C2167 1.366 . S
C2168 C2169 1.414 . S
C2168 C2171 1.499 . S
C2169 H2143 0.950 . S
C2169 C2168 1.414 . S
C2169 C2170 1.374 . S
C2170 H2144 0.950 . S
C2170 C2166 1.385 . S
C2170 C2169 1.374 . S
C2171 C2168 1.499 . S
C2171 C2172 1.373 . S
C2171 C2173 1.389 . S
C2172 H2145 0.950 . S
C2172 C2158 1.377 . S
C2172 C2171 1.373 . S
C2173 C2157 1.377 . S
C2173 C2171 1.389 . S
C2173 C2174 1.524 . S
C2174 C2173 1.524 . S
C2174 C2175 1.397 . S
C2174 C2179 1.363 . S
C2175 H2146 0.950 . S
C2175 C2174 1.397 . S
C2175 C2176 1.334 . S
C2176 H2147 0.950 . S
C2176 C2175 1.334 . S
C2176 C2177 1.287 . S
C2177 C2176 1.287 . S
C2177 C2178 1.524 . S
C2177 H2180 0.999 . S
C2178 H2148 0.950 . S
C2178 C2177 1.524 . S
C2178 C2179 1.415 . S
C2179 H2149 0.950 . S
C2179 C2174 1.363 . S
C2179 C2178 1.415 . S
H2180 C2177 0.999 . S
H2181 C2162 0.913 . S
H2182 C2200 0.951 . S
H2183 C2202 0.951 . S
H2184 C2204 0.950 . S
H2185 C2205 0.950 . S
H2186 C2207 0.950 . S
H2187 C2210 0.950 . S
H2188 C2211 0.950 . S
H2189 C2213 0.950 . S
H2190 C2214 0.950 . S
H2191 C2215 0.951 . S
H2192 C2217 0.951 . S
H2193 C2219 0.950 . S
H2194 C2220 0.950 . S
H2195 C2222 0.950 . S
H2196 C2225 0.950 . S
H2197 C2226 0.950 . S
H2198 C2228 0.950 . S
H2199 C2229 0.950 . S
C2200 H2182 0.951 . S
C2200 C2201 1.366 . S
C2200 C2202 1.388 . S
C2201 C2200 1.366 . S
C2201 C2205 1.385 . S
C2202 H2183 0.951 . S
C2202 C2200 1.388 . S
C2202 C2203 1.366 . S
C2203 C2202 1.366 . S
C2203 C2204 1.414 . S
C2203 C2206 1.499 . S
C2204 H2184 0.950 . S
C2204 C2203 1.414 . S
C2204 C2205 1.374 . S
C2205 H2185 0.950 . S
C2205 C2201 1.385 . S
C2205 C2204 1.374 . S
C2206 C2203 1.499 . S
C2206 C2207 1.373 . S
C2206 C2208 1.389 . S
C2207 H2186 0.950 . S
C2207 C2206 1.373 . S
C2207 C2223 1.377 . S
C2208 C2206 1.389 . S
C2208 C2209 1.524 . S
C2208 C2222 1.377 . S
C2209 C2208 1.524 . S
C2209 C2210 1.397 . S
C2209 C2214 1.363 . S
C2210 H2187 0.950 . S
C2210 C2209 1.397 . S
C2210 C2211 1.334 . S
C2211 H2188 0.950 . S
C2211 C2210 1.334 . S
C2211 C2212 1.287 . S
C2212 C2211 1.287 . S
C2212 C2213 1.524 . S
C2212 H2231 0.913 . S
C2213 H2189 0.950 . S
C2213 C2212 1.524 . S
C2213 C2214 1.415 . S
C2214 H2190 0.950 . S
C2214 C2209 1.363 . S
C2214 C2213 1.415 . S
C2215 H2191 0.951 . S
C2215 C2216 1.366 . S
C2215 C2217 1.388 . S
C2216 C2215 1.366 . S
C2216 C2220 1.385 . S
C2217 H2192 0.951 . S
C2217 C2215 1.388 . S
C2217 C2218 1.366 . S
C2218 C2217 1.366 . S
C2218 C2219 1.414 . S
C2218 C2221 1.499 . S
C2219 H2193 0.950 . S
C2219 C2218 1.414 . S
C2219 C2220 1.374 . S
C2220 H2194 0.950 . S
C2220 C2216 1.385 . S
C2220 C2219 1.374 . S
C2221 C2218 1.499 . S
C2221 C2222 1.373 . S
C2221 C2223 1.389 . S
C2222 H2195 0.950 . S
C2222 C2208 1.377 . S
C2222 C2221 1.373 . S
C2223 C2207 1.377 . S
C2223 C2221 1.389 . S
C2223 C2224 1.524 . S
C2224 C2223 1.524 . S
C2224 C2225 1.397 . S
C2224 C2229 1.363 . S
C2225 H2196 0.950 . S
C2225 C2224 1.397 . S
C2225 C2226 1.334 . S
C2226 H2197 0.950 . S
C2226 C2225 1.334 . S
C2226 C2227 1.287 . S
C2227 C2226 1.287 . S
C2227 C2228 1.524 . S
C2227 H2230 0.999 . S
C2228 H2198 0.950 . S
C2228 C2227 1.524 . S
C2228 C2229 1.415 . S
C2229 H2199 0.950 . S
C2229 C2224 1.363 . S
C2229 C2228 1.415 . S
H2230 C2227 0.999 . S
H2231 C2212 0.913 . S
H2232 C2250 0.951 . S
H2233 C2252 0.951 . S
H2234 C2254 0.950 . S
H2235 C2255 0.950 . S
H2236 C2257 0.950 . S
H2237 C2260 0.950 . S
H2238 C2261 0.950 . S
H2239 C2263 0.950 . S
H2240 C2264 0.950 . S
H2241 C2265 0.951 . S
H2242 C2267 0.951 . S
H2243 C2269 0.950 . S
H2244 C2270 0.950 . S
H2245 C2272 0.950 . S
H2246 C2275 0.950 . S
H2247 C2276 0.950 . S
H2248 C2278 0.950 . S
H2249 C2279 0.950 . S
C2250 H2232 0.951 . S
C2250 C2251 1.366 . S
C2250 C2252 1.388 . S
C2251 C2250 1.366 . S
C2251 C2255 1.385 . S
C2252 H2233 0.951 . S
C2252 C2250 1.388 . S
C2252 C2253 1.366 . S
C2253 C2252 1.366 . S
C2253 C2254 1.414 . S
C2253 C2256 1.499 1_565 S
C2254 H2234 0.950 . S
C2254 C2253 1.414 . S
C2254 C2255 1.374 . S
C2255 H2235 0.950 . S
C2255 C2251 1.385 . S
C2255 C2254 1.374 . S
C2256 C2253 1.499 1_545 S
C2256 C2257 1.373 . S
C2256 C2258 1.389 . S
C2257 H2236 0.950 . S
C2257 C2256 1.373 . S
C2257 C2273 1.377 . S
C2258 C2256 1.389 . S
C2258 C2259 1.524 . S
C2258 C2272 1.377 . S
C2259 C2258 1.524 . S
C2259 C2260 1.397 1_545 S
C2259 C2264 1.363 . S
C2260 H2237 0.950 . S
C2260 C2259 1.397 1_565 S
C2260 C2261 1.334 . S
C2261 H2238 0.950 . S
C2261 C2260 1.334 . S
C2261 C2262 1.287 . S
C2262 C2261 1.287 . S
C2262 C2263 1.524 . S
C2262 H2281 0.913 . S
C2263 H2239 0.950 . S
C2263 C2262 1.524 . S
C2263 C2264 1.415 1_565 S
C2264 H2240 0.950 . S
C2264 C2259 1.363 . S
C2264 C2263 1.415 1_545 S
C2265 H2241 0.951 . S
C2265 C2266 1.366 . S
C2265 C2267 1.388 . S
C2266 C2265 1.366 . S
C2266 C2270 1.385 . S
C2267 H2242 0.951 . S
C2267 C2265 1.388 . S
C2267 C2268 1.366 . S
C2268 C2267 1.366 . S
C2268 C2269 1.414 . S
C2268 C2271 1.499 . S
C2269 H2243 0.950 . S
C2269 C2268 1.414 . S
C2269 C2270 1.374 . S
C2270 H2244 0.950 . S
C2270 C2266 1.385 . S
C2270 C2269 1.374 . S
C2271 C2268 1.499 . S
C2271 C2272 1.373 . S
C2271 C2273 1.389 . S
C2272 H2245 0.950 . S
C2272 C2258 1.377 . S
C2272 C2271 1.373 . S
C2273 C2257 1.377 . S
C2273 C2271 1.389 . S
C2273 C2274 1.524 . S
C2274 C2273 1.524 . S
C2274 C2275 1.397 . S
C2274 C2279 1.363 . S
C2275 H2246 0.950 . S
C2275 C2274 1.397 . S
C2275 C2276 1.334 . S
C2276 H2247 0.950 . S
C2276 C2275 1.334 . S
C2276 C2277 1.287 . S
C2277 C2276 1.287 . S
C2277 C2278 1.524 . S
C2277 H2280 0.999 . S
C2278 H2248 0.950 . S
C2278 C2277 1.524 . S
C2278 C2279 1.415 . S
C2279 H2249 0.950 . S
C2279 C2274 1.363 . S
C2279 C2278 1.415 . S
H2280 C2277 0.999 . S
H2281 C2262 0.913 . S
H2282 C2300 0.951 . S
H2283 C2302 0.951 . S
H2284 C2304 0.950 1_655 S
H2285 C2305 0.950 . S
H2286 C2307 0.950 . S
H2287 C2310 0.950 . S
H2288 C2311 0.950 . S
H2289 C2313 0.950 . S
H2290 C2314 0.950 . S
H2291 C2315 0.951 . S
H2292 C2317 0.951 . S
H2293 C2319 0.950 . S
H2294 C2320 0.950 . S
H2295 C2322 0.950 . S
H2296 C2325 0.950 . S
H2297 C2326 0.950 . S
H2298 C2328 0.950 . S
H2299 C2329 0.950 . S
C2300 H2282 0.951 . S
C2300 C2301 1.366 . S
C2300 C2302 1.388 . S
C2301 C2300 1.366 . S
C2301 C2305 1.385 . S
C2302 H2283 0.951 . S
C2302 C2300 1.388 . S
C2302 C2303 1.366 . S
C2303 C2302 1.366 . S
C2303 C2304 1.414 . S
C2303 C2306 1.499 1_455 S
C2304 H2284 0.950 1_455 S
C2304 C2303 1.414 . S
C2304 C2305 1.374 . S
C2305 H2285 0.950 . S
C2305 C2301 1.385 . S
C2305 C2304 1.374 . S
C2306 C2303 1.499 1_655 S
C2306 C2307 1.373 . S
C2306 C2308 1.389 . S
C2307 H2286 0.950 . S
C2307 C2306 1.373 . S
C2307 C2323 1.377 . S
C2308 C2306 1.389 . S
C2308 C2309 1.524 . S
C2308 C2322 1.377 . S
C2309 C2308 1.524 . S
C2309 C2310 1.397 . S
C2309 C2314 1.363 . S
C2310 H2287 0.950 . S
C2310 C2309 1.397 . S
C2310 C2311 1.334 . S
C2311 H2288 0.950 . S
C2311 C2310 1.334 . S
C2311 C2312 1.287 . S
C2312 C2311 1.287 . S
C2312 C2313 1.524 . S
C2312 H2331 0.913 . S
C2313 H2289 0.950 . S
C2313 C2312 1.524 . S
C2313 C2314 1.415 . S
C2314 H2290 0.950 . S
C2314 C2309 1.363 . S
C2314 C2313 1.415 . S
C2315 H2291 0.951 . S
C2315 C2316 1.366 . S
C2315 C2317 1.388 . S
C2316 C2315 1.366 . S
C2316 C2320 1.385 . S
C2317 H2292 0.951 . S
C2317 C2315 1.388 . S
C2317 C2318 1.366 . S
C2318 C2317 1.366 . S
C2318 C2319 1.414 . S
C2318 C2321 1.499 . S
C2319 H2293 0.950 . S
C2319 C2318 1.414 . S
C2319 C2320 1.374 . S
C2320 H2294 0.950 . S
C2320 C2316 1.385 . S
C2320 C2319 1.374 . S
C2321 C2318 1.499 . S
C2321 C2322 1.373 . S
C2321 C2323 1.389 . S
C2322 H2295 0.950 . S
C2322 C2308 1.377 . S
C2322 C2321 1.373 . S
C2323 C2307 1.377 . S
C2323 C2321 1.389 . S
C2323 C2324 1.524 . S
C2324 C2323 1.524 . S
C2324 C2325 1.397 . S
C2324 C2329 1.363 . S
C2325 H2296 0.950 . S
C2325 C2324 1.397 . S
C2325 C2326 1.334 . S
C2326 H2297 0.950 . S
C2326 C2325 1.334 . S
C2326 C2327 1.287 . S
C2327 C2326 1.287 . S
C2327 C2328 1.524 . S
C2327 H2330 0.999 . S
C2328 H2298 0.950 . S
C2328 C2327 1.524 . S
C2328 C2329 1.415 . S
C2329 H2299 0.950 . S
C2329 C2324 1.363 . S
C2329 C2328 1.415 . S
H2330 C2327 0.999 . S
H2331 C2312 0.913 . S
H2332 C2350 0.951 . S
H2333 C2352 0.951 . S
H2334 C2354 0.950 . S
H2335 C2355 0.950 . S
H2336 C2357 0.950 . S
H2337 C2360 0.950 . S
H2338 C2361 0.950 . S
H2339 C2363 0.950 . S
H2340 C2364 0.950 . S
H2341 C2365 0.951 . S
H2342 C2367 0.951 . S
H2343 C2369 0.950 . S
H2344 C2370 0.950 . S
H2345 C2372 0.950 . S
H2346 C2375 0.950 . S
H2347 C2376 0.950 . S
H2348 C2378 0.950 . S
H2349 C2379 0.950 . S
C2350 H2332 0.951 . S
C2350 C2351 1.366 . S
C2350 C2352 1.388 . S
C2351 C2350 1.366 . S
C2351 C2355 1.385 . S
C2352 H2333 0.951 . S
C2352 C2350 1.388 . S
C2352 C2353 1.366 . S
C2353 C2352 1.366 . S
C2353 C2354 1.414 . S
C2353 C2356 1.499 . S
C2354 H2334 0.950 . S
C2354 C2353 1.414 . S
C2354 C2355 1.374 . S
C2355 H2335 0.950 . S
C2355 C2351 1.385 . S
C2355 C2354 1.374 . S
C2356 C2353 1.499 . S
C2356 C2357 1.373 . S
C2356 C2358 1.389 . S
C2357 H2336 0.950 . S
C2357 C2356 1.373 . S
C2357 C2373 1.377 . S
C2358 C2356 1.389 . S
C2358 C2359 1.524 . S
C2358 C2372 1.377 . S
C2359 C2358 1.524 . S
C2359 C2360 1.397 . S
C2359 C2364 1.363 . S
C2360 H2337 0.950 . S
C2360 C2359 1.397 . S
C2360 C2361 1.334 . S
C2361 H2338 0.950 . S
C2361 C2360 1.334 . S
C2361 C2362 1.287 . S
C2362 C2361 1.287 . S
C2362 C2363 1.524 . S
C2362 H2381 0.913 . S
C2363 H2339 0.950 . S
C2363 C2362 1.524 . S
C2363 C2364 1.415 . S
C2364 H2340 0.950 . S
C2364 C2359 1.363 . S
C2364 C2363 1.415 . S
C2365 H2341 0.951 . S
C2365 C2366 1.366 . S
C2365 C2367 1.388 . S
C2366 C2365 1.366 . S
C2366 C2370 1.385 . S
C2367 H2342 0.951 . S
C2367 C2365 1.388 . S
C2367 C2368 1.366 . S
C2368 C2367 1.366 . S
C2368 C2369 1.414 . S
C2368 C2371 1.499 . S
C2369 H2343 0.950 . S
C2369 C2368 1.414 . S
C2369 C2370 1.374 . S
C2370 H2344 0.950 . S
C2370 C2366 1.385 . S
C2370 C2369 1.374 . S
C2371 C2368 1.499 . S
C2371 C2372 1.373 . S
C2371 C2373 1.389 . S
C2372 H2345 0.950 . S
C2372 C2358 1.377 . S
C2372 C2371 1.373 . S
C2373 C2357 1.377 . S
C2373 C2371 1.389 . S
C2373 C2374 1.524 . S
C2374 C2373 1.524 . S
C2374 C2375 1.397 . S
C2374 C2379 1.363 . S
C2375 H2346 0.950 . S
C2375 C2374 1.397 . S
C2375 C2376 1.334 . S
C2376 H2347 0.950 . S
C2376 C2375 1.334 . S
C2376 C2377 1.287 . S
C2377 C2376 1.287 . S
C2377 C2378 1.524 . S
C2377 H2380 0.999 . S
C2378 H2348 0.950 . S
C2378 C2377 1.524 . S
C2378 C2379 1.415 . S
C2379 H2349 0.950 . S
C2379 C2374 1.363 . S
C2379 C2378 1.415 . S
H2380 C2377 0.999 . S
H2381 C2362 0.913 . S
H2382 C2400 0.951 . S
H2383 C2402 0.951 . S
H2384 C2404 0.950 . S
H2385 C2405 0.950 . S
H2386 C2407 0.950 . S
H2387 C2410 0.950 . S
H2388 C2411 0.950 . S
H2389 C2413 0.949 1_455 S
H2390 C2414 0.950 . S
H2391 C2415 0.951 . S
H2392 C2417 0.951 . S
H2393 C2419 0.950 . S
H2394 C2420 0.950 . S
H2395 C2422 0.950 . S
H2396 C2425 0.950 . S
H2397 C2426 0.950 . S
H2398 C2428 0.950 . S
H2399 C2429 0.950 . S
C2400 H2382 0.951 . S
C2400 C2401 1.366 . S
C2400 C2402 1.388 . S
C2401 C2400 1.366 . S
C2401 C2405 1.385 . S
C2402 H2383 0.951 . S
C2402 C2400 1.388 . S
C2402 C2403 1.366 . S
C2403 C2402 1.366 . S
C2403 C2404 1.414 . S
C2403 C2406 1.499 1_455 S
C2404 H2384 0.950 . S
C2404 C2403 1.414 . S
C2404 C2405 1.374 . S
C2405 H2385 0.950 . S
C2405 C2401 1.385 . S
C2405 C2404 1.374 . S
C2406 C2403 1.499 1_655 S
C2406 C2407 1.373 . S
C2406 C2408 1.389 . S
C2407 H2386 0.950 . S
C2407 C2406 1.373 . S
C2407 C2423 1.377 . S
C2408 C2406 1.389 . S
C2408 C2409 1.524 . S
C2408 C2422 1.377 . S
C2409 C2408 1.524 . S
C2409 C2410 1.397 . S
C2409 C2414 1.363 . S
C2410 H2387 0.950 . S
C2410 C2409 1.397 . S
C2410 C2411 1.334 1_655 S
C2411 H2388 0.950 . S
C2411 C2410 1.334 1_455 S
C2411 C2412 1.287 . S
C2412 C2411 1.287 . S
C2412 C2413 1.524 1_455 S
C2412 H2431 0.913 . S
C2413 H2389 0.949 1_655 S
C2413 C2412 1.524 1_655 S
C2413 C2414 1.416 . S
C2414 H2390 0.950 . S
C2414 C2409 1.363 . S
C2414 C2413 1.416 . S
C2415 H2391 0.951 . S
C2415 C2416 1.366 . S
C2415 C2417 1.388 . S
C2416 C2415 1.366 . S
C2416 C2420 1.385 . S
C2417 H2392 0.951 . S
C2417 C2415 1.388 . S
C2417 C2418 1.366 . S
C2418 C2417 1.366 . S
C2418 C2419 1.414 . S
C2418 C2421 1.499 . S
C2419 H2393 0.950 . S
C2419 C2418 1.414 . S
C2419 C2420 1.374 . S
C2420 H2394 0.950 . S
C2420 C2416 1.385 . S
C2420 C2419 1.374 . S
C2421 C2418 1.499 . S
C2421 C2422 1.373 . S
C2421 C2423 1.389 . S
C2422 H2395 0.950 . S
C2422 C2408 1.377 . S
C2422 C2421 1.373 . S
C2423 C2407 1.377 . S
C2423 C2421 1.389 . S
C2423 C2424 1.524 . S
C2424 C2423 1.524 . S
C2424 C2425 1.397 . S
C2424 C2429 1.363 . S
C2425 H2396 0.950 . S
C2425 C2424 1.397 . S
C2425 C2426 1.334 . S
C2426 H2397 0.950 . S
C2426 C2425 1.334 . S
C2426 C2427 1.287 . S
C2427 C2426 1.287 . S
C2427 C2428 1.524 . S
C2427 H2430 0.999 . S
C2428 H2398 0.950 . S
C2428 C2427 1.524 . S
C2428 C2429 1.415 . S
C2429 H2399 0.950 . S
C2429 C2424 1.363 . S
C2429 C2428 1.415 . S
H2430 C2427 0.999 . S
H2431 C2412 0.913 . S
H2432 C2450 0.951 . S
H2433 C2452 0.951 . S
H2434 C2454 0.950 . S
H2435 C2455 0.950 . S
H2436 C2457 0.950 . S
H2437 C2460 0.950 . S
H2438 C2461 0.950 . S
H2439 C2463 0.950 . S
H2440 C2464 0.950 . S
H2441 C2465 0.951 . S
H2442 C2467 0.951 . S
H2443 C2469 0.950 . S
H2444 C2470 0.950 . S
H2445 C2472 0.950 . S
H2446 C2475 0.950 . S
H2447 C2476 0.950 . S
H2448 C2478 0.950 . S
H2449 C2479 0.950 . S
C2450 H2432 0.951 . S
C2450 C2451 1.366 . S
C2450 C2452 1.388 . S
C2451 C2450 1.366 . S
C2451 C2455 1.385 . S
C2452 H2433 0.951 . S
C2452 C2450 1.388 . S
C2452 C2453 1.366 . S
C2453 C2452 1.366 . S
C2453 C2454 1.414 . S
C2453 C2456 1.499 . S
C2454 H2434 0.950 . S
C2454 C2453 1.414 . S
C2454 C2455 1.374 . S
C2455 H2435 0.950 . S
C2455 C2451 1.385 . S
C2455 C2454 1.374 . S
C2456 C2453 1.499 . S
C2456 C2457 1.373 . S
C2456 C2458 1.389 . S
C2457 H2436 0.950 . S
C2457 C2456 1.373 . S
C2457 C2473 1.377 . S
C2458 C2456 1.389 . S
C2458 C2459 1.524 . S
C2458 C2472 1.377 . S
C2459 C2458 1.524 . S
C2459 C2460 1.397 . S
C2459 C2464 1.363 . S
C2460 H2437 0.950 . S
C2460 C2459 1.397 . S
C2460 C2461 1.334 . S
C2461 H2438 0.950 . S
C2461 C2460 1.334 . S
C2461 C2462 1.287 . S
C2462 C2461 1.287 . S
C2462 C2463 1.524 . S
C2462 H2481 0.913 . S
C2463 H2439 0.950 . S
C2463 C2462 1.524 . S
C2463 C2464 1.415 . S
C2464 H2440 0.950 . S
C2464 C2459 1.363 . S
C2464 C2463 1.415 . S
C2465 H2441 0.951 . S
C2465 C2466 1.366 . S
C2465 C2467 1.388 . S
C2466 C2465 1.366 . S
C2466 C2470 1.385 . S
C2467 H2442 0.951 . S
C2467 C2465 1.388 . S
C2467 C2468 1.366 . S
C2468 C2467 1.366 . S
C2468 C2469 1.414 . S
C2468 C2471 1.499 . S
C2469 H2443 0.950 . S
C2469 C2468 1.414 . S
C2469 C2470 1.374 . S
C2470 H2444 0.950 . S
C2470 C2466 1.385 . S
C2470 C2469 1.374 . S
C2471 C2468 1.499 . S
C2471 C2472 1.373 . S
C2471 C2473 1.389 . S
C2472 H2445 0.950 . S
C2472 C2458 1.377 . S
C2472 C2471 1.373 . S
C2473 C2457 1.377 . S
C2473 C2471 1.389 . S
C2473 C2474 1.524 . S
C2474 C2473 1.524 . S
C2474 C2475 1.397 . S
C2474 C2479 1.363 . S
C2475 H2446 0.950 . S
C2475 C2474 1.397 . S
C2475 C2476 1.334 . S
C2476 H2447 0.950 . S
C2476 C2475 1.334 . S
C2476 C2477 1.287 . S
C2477 C2476 1.287 . S
C2477 C2478 1.524 . S
C2477 H2480 0.999 . S
C2478 H2448 0.950 . S
C2478 C2477 1.524 . S
C2478 C2479 1.415 . S
C2479 H2449 0.950 . S
C2479 C2474 1.363 . S
C2479 C2478 1.415 . S
H2480 C2477 0.999 . S
H2481 C2462 0.913 . S
H2482 C2500 0.951 . S
H2483 C2502 0.951 . S
H2484 C2504 0.950 . S
H2485 C2505 0.950 . S
H2486 C2507 0.950 . S
H2487 C2510 0.950 . S
H2488 C2511 0.950 . S
H2489 C2513 0.950 . S
H2490 C2514 0.950 . S
H2491 C2515 0.951 . S
H2492 C2517 0.951 . S
H2493 C2519 0.950 . S
H2494 C2520 0.950 . S
H2495 C2522 0.950 . S
H2496 C2525 0.950 . S
H2497 C2526 0.950 . S
H2498 C2528 0.950 . S
H2499 C2529 0.950 . S
C2500 H2482 0.951 . S
C2500 C2501 1.366 . S
C2500 C2502 1.388 . S
C2501 C2500 1.366 . S
C2501 C2505 1.385 . S
C2502 H2483 0.951 . S
C2502 C2500 1.388 . S
C2502 C2503 1.366 . S
C2503 C2502 1.366 . S
C2503 C2504 1.414 . S
C2503 C2506 1.499 1_565 S
C2504 H2484 0.950 . S
C2504 C2503 1.414 . S
C2504 C2505 1.374 . S
C2505 H2485 0.950 . S
C2505 C2501 1.385 . S
C2505 C2504 1.374 . S
C2506 C2503 1.499 1_545 S
C2506 C2507 1.373 . S
C2506 C2508 1.389 . S
C2507 H2486 0.950 . S
C2507 C2506 1.373 . S
C2507 C2523 1.377 . S
C2508 C2506 1.389 . S
C2508 C2509 1.524 . S
C2508 C2522 1.377 . S
C2509 C2508 1.524 . S
C2509 C2510 1.397 1_545 S
C2509 C2514 1.363 . S
C2510 H2487 0.950 . S
C2510 C2509 1.397 1_565 S
C2510 C2511 1.334 . S
C2511 H2488 0.950 . S
C2511 C2510 1.334 . S
C2511 C2512 1.287 . S
C2512 C2511 1.287 . S
C2512 C2513 1.524 1_565 S
C2512 H2531 0.913 . S
C2513 H2489 0.950 . S
C2513 C2512 1.524 1_545 S
C2513 C2514 1.415 . S
C2514 H2490 0.950 . S
C2514 C2509 1.363 . S
C2514 C2513 1.415 . S
C2515 H2491 0.951 . S
C2515 C2516 1.366 . S
C2515 C2517 1.388 . S
C2516 C2515 1.366 . S
C2516 C2520 1.385 . S
C2517 H2492 0.951 . S
C2517 C2515 1.388 . S
C2517 C2518 1.366 . S
C2518 C2517 1.366 . S
C2518 C2519 1.414 . S
C2518 C2521 1.499 . S
C2519 H2493 0.950 . S
C2519 C2518 1.414 . S
C2519 C2520 1.374 . S
C2520 H2494 0.950 . S
C2520 C2516 1.385 . S
C2520 C2519 1.374 . S
C2521 C2518 1.499 . S
C2521 C2522 1.373 . S
C2521 C2523 1.389 . S
C2522 H2495 0.950 . S
C2522 C2508 1.377 . S
C2522 C2521 1.373 . S
C2523 C2507 1.377 . S
C2523 C2521 1.389 . S
C2523 C2524 1.524 . S
C2524 C2523 1.524 . S
C2524 C2525 1.397 . S
C2524 C2529 1.363 . S
C2525 H2496 0.950 . S
C2525 C2524 1.397 . S
C2525 C2526 1.334 . S
C2526 H2497 0.950 . S
C2526 C2525 1.334 . S
C2526 C2527 1.287 . S
C2527 C2526 1.287 . S
C2527 C2528 1.524 . S
C2527 H2530 0.999 . S
C2528 H2498 0.950 . S
C2528 C2527 1.524 . S
C2528 C2529 1.415 . S
C2529 H2499 0.950 . S
C2529 C2524 1.363 . S
C2529 C2528 1.415 . S
H2530 C2527 0.999 . S
H2531 C2512 0.913 . S
H2532 C2550 0.951 . S
H2533 C2552 0.951 . S
H2534 C2554 0.950 . S
H2535 C2555 0.950 . S
H2536 C2557 0.950 . S
H2537 C2560 0.950 . S
H2538 C2561 0.950 . S
H2539 C2563 0.950 . S
H2540 C2564 0.950 . S
H2541 C2565 0.951 . S
H2542 C2567 0.951 . S
H2543 C2569 0.950 . S
H2544 C2570 0.950 . S
H2545 C2572 0.950 . S
H2546 C2575 0.950 . S
H2547 C2576 0.950 . S
H2548 C2578 0.950 . S
H2549 C2579 0.950 . S
C2550 H2532 0.951 . S
C2550 C2551 1.366 . S
C2550 C2552 1.388 . S
C2551 C2550 1.366 . S
C2551 C2555 1.385 . S
C2552 H2533 0.951 . S
C2552 C2550 1.388 . S
C2552 C2553 1.366 . S
C2553 C2552 1.366 . S
C2553 C2554 1.414 . S
C2553 C2556 1.499 . S
C2554 H2534 0.950 . S
C2554 C2553 1.414 . S
C2554 C2555 1.374 . S
C2555 H2535 0.950 . S
C2555 C2551 1.385 . S
C2555 C2554 1.374 . S
C2556 C2553 1.499 . S
C2556 C2557 1.373 . S
C2556 C2558 1.389 . S
C2557 H2536 0.950 . S
C2557 C2556 1.373 . S
C2557 C2573 1.377 . S
C2558 C2556 1.389 . S
C2558 C2559 1.524 . S
C2558 C2572 1.377 . S
C2559 C2558 1.524 . S
C2559 C2560 1.397 . S
C2559 C2564 1.363 . S
C2560 H2537 0.950 . S
C2560 C2559 1.397 . S
C2560 C2561 1.334 . S
C2561 H2538 0.950 . S
C2561 C2560 1.334 . S
C2561 C2562 1.287 . S
C2562 C2561 1.287 . S
C2562 C2563 1.524 . S
C2562 H2581 0.913 . S
C2563 H2539 0.950 . S
C2563 C2562 1.524 . S
C2563 C2564 1.415 . S
C2564 H2540 0.950 . S
C2564 C2559 1.363 . S
C2564 C2563 1.415 . S
C2565 H2541 0.951 . S
C2565 C2566 1.366 . S
C2565 C2567 1.388 . S
C2566 C2565 1.366 . S
C2566 C2570 1.385 . S
C2567 H2542 0.951 . S
C2567 C2565 1.388 . S
C2567 C2568 1.366 . S
C2568 C2567 1.366 . S
C2568 C2569 1.414 . S
C2568 C2571 1.499 . S
C2569 H2543 0.950 . S
C2569 C2568 1.414 . S
C2569 C2570 1.374 . S
C2570 H2544 0.950 . S
C2570 C2566 1.385 . S
C2570 C2569 1.374 . S
C2571 C2568 1.499 . S
C2571 C2572 1.373 . S
C2571 C2573 1.389 . S
C2572 H2545 0.950 . S
C2572 C2558 1.377 . S
C2572 C2571 1.373 . S
C2573 C2557 1.377 . S
C2573 C2571 1.389 . S
C2573 C2574 1.524 . S
C2574 C2573 1.524 . S
C2574 C2575 1.397 . S
C2574 C2579 1.363 . S
C2575 H2546 0.950 . S
C2575 C2574 1.397 . S
C2575 C2576 1.334 . S
C2576 H2547 0.950 . S
C2576 C2575 1.334 . S
C2576 C2577 1.287 . S
C2577 C2576 1.287 . S
C2577 C2578 1.524 . S
C2577 H2580 0.999 . S
C2578 H2548 0.950 . S
C2578 C2577 1.524 . S
C2578 C2579 1.415 . S
C2579 H2549 0.950 . S
C2579 C2574 1.363 . S
C2579 C2578 1.415 . S
H2580 C2577 0.999 . S
H2581 C2562 0.913 . S
H2582 C2600 0.951 . S
H2583 C2602 0.951 . S
H2584 C2604 0.950 . S
H2585 C2605 0.950 . S
H2586 C2607 0.950 . S
H2587 C2610 0.950 . S
H2588 C2611 0.950 . S
H2589 C2613 0.950 . S
H2590 C2614 0.950 . S
H2591 C2615 0.951 . S
H2592 C2617 0.951 . S
H2593 C2619 0.950 . S
H2594 C2620 0.950 . S
H2595 C2622 0.950 . S
H2596 C2625 0.950 . S
H2597 C2626 0.950 . S
H2598 C2628 0.950 . S
H2599 C2629 0.950 . S
C2600 H2582 0.951 . S
C2600 C2601 1.366 . S
C2600 C2602 1.388 . S
C2601 C2600 1.366 . S
C2601 C2605 1.385 . S
C2602 H2583 0.951 . S
C2602 C2600 1.388 . S
C2602 C2603 1.366 . S
C2603 C2602 1.366 . S
C2603 C2604 1.414 . S
C2603 C2606 1.499 . S
C2604 H2584 0.950 . S
C2604 C2603 1.414 . S
C2604 C2605 1.374 . S
C2605 H2585 0.950 . S
C2605 C2601 1.385 . S
C2605 C2604 1.374 . S
C2606 C2603 1.499 . S
C2606 C2607 1.373 . S
C2606 C2608 1.389 . S
C2607 H2586 0.950 . S
C2607 C2606 1.373 . S
C2607 C2623 1.377 . S
C2608 C2606 1.389 . S
C2608 C2609 1.524 . S
C2608 C2622 1.377 . S
C2609 C2608 1.524 . S
C2609 C2610 1.397 . S
C2609 C2614 1.363 . S
C2610 H2587 0.950 . S
C2610 C2609 1.397 . S
C2610 C2611 1.334 . S
C2611 H2588 0.950 . S
C2611 C2610 1.334 . S
C2611 C2612 1.287 . S
C2612 C2611 1.287 . S
C2612 C2613 1.524 . S
C2612 H2631 0.913 . S
C2613 H2589 0.950 . S
C2613 C2612 1.524 . S
C2613 C2614 1.415 . S
C2614 H2590 0.950 . S
C2614 C2609 1.363 . S
C2614 C2613 1.415 . S
C2615 H2591 0.951 . S
C2615 C2616 1.366 . S
C2615 C2617 1.388 . S
C2616 C2615 1.366 . S
C2616 C2620 1.385 . S
C2617 H2592 0.951 . S
C2617 C2615 1.388 . S
C2617 C2618 1.366 . S
C2618 C2617 1.366 . S
C2618 C2619 1.414 . S
C2618 C2621 1.499 . S
C2619 H2593 0.950 . S
C2619 C2618 1.414 . S
C2619 C2620 1.374 . S
C2620 H2594 0.950 . S
C2620 C2616 1.385 . S
C2620 C2619 1.374 . S
C2621 C2618 1.499 . S
C2621 C2622 1.373 . S
C2621 C2623 1.389 . S
C2622 H2595 0.950 . S
C2622 C2608 1.377 . S
C2622 C2621 1.373 . S
C2623 C2607 1.377 . S
C2623 C2621 1.389 . S
C2623 C2624 1.524 . S
C2624 C2623 1.524 . S
C2624 C2625 1.397 . S
C2624 C2629 1.363 . S
C2625 H2596 0.950 . S
C2625 C2624 1.397 . S
C2625 C2626 1.334 . S
C2626 H2597 0.950 . S
C2626 C2625 1.334 . S
C2626 C2627 1.287 . S
C2627 C2626 1.287 . S
C2627 C2628 1.524 . S
C2627 H2630 0.999 . S
C2628 H2598 0.950 . S
C2628 C2627 1.524 . S
C2628 C2629 1.415 . S
C2629 H2599 0.950 . S
C2629 C2624 1.363 . S
C2629 C2628 1.415 . S
H2630 C2627 0.999 . S
H2631 C2612 0.913 . S
H2632 C2650 0.951 . S
H2633 C2652 0.951 . S
H2634 C2654 0.950 . S
H2635 C2655 0.950 . S
H2636 C2657 0.950 . S
H2637 C2660 0.950 . S
H2638 C2661 0.950 . S
H2639 C2663 0.950 . S
H2640 C2664 0.950 . S
H2641 C2665 0.951 . S
H2642 C2667 0.951 . S
H2643 C2669 0.950 . S
H2644 C2670 0.950 . S
H2645 C2672 0.950 . S
H2646 C2675 0.950 . S
H2647 C2676 0.950 . S
H2648 C2678 0.950 . S
H2649 C2679 0.950 . S
C2650 H2632 0.951 . S
C2650 C2651 1.366 . S
C2650 C2652 1.388 . S
C2651 C2650 1.366 . S
C2651 C2655 1.385 . S
C2652 H2633 0.951 . S
C2652 C2650 1.388 . S
C2652 C2653 1.366 . S
C2653 C2652 1.366 . S
C2653 C2654 1.414 . S
C2653 C2656 1.499 . S
C2654 H2634 0.950 . S
C2654 C2653 1.414 . S
C2654 C2655 1.374 . S
C2655 H2635 0.950 . S
C2655 C2651 1.385 . S
C2655 C2654 1.374 . S
C2656 C2653 1.499 . S
C2656 C2657 1.373 . S
C2656 C2658 1.389 . S
C2657 H2636 0.950 . S
C2657 C2656 1.373 . S
C2657 C2673 1.377 . S
C2658 C2656 1.389 . S
C2658 C2659 1.524 . S
C2658 C2672 1.377 . S
C2659 C2658 1.524 . S
C2659 C2660 1.397 . S
C2659 C2664 1.363 . S
C2660 H2637 0.950 . S
C2660 C2659 1.397 . S
C2660 C2661 1.334 . S
C2661 H2638 0.950 . S
C2661 C2660 1.334 . S
C2661 C2662 1.287 . S
C2662 C2661 1.287 . S
C2662 C2663 1.524 . S
C2662 H2681 0.913 . S
C2663 H2639 0.950 . S
C2663 C2662 1.524 . S
C2663 C2664 1.415 . S
C2664 H2640 0.950 . S
C2664 C2659 1.363 . S
C2664 C2663 1.415 . S
C2665 H2641 0.951 . S
C2665 C2666 1.366 . S
C2665 C2667 1.388 . S
C2666 C2665 1.366 . S
C2666 C2670 1.385 . S
C2667 H2642 0.951 . S
C2667 C2665 1.388 . S
C2667 C2668 1.366 . S
C2668 C2667 1.366 . S
C2668 C2669 1.414 . S
C2668 C2671 1.499 . S
C2669 H2643 0.950 . S
C2669 C2668 1.414 . S
C2669 C2670 1.374 . S
C2670 H2644 0.950 . S
C2670 C2666 1.385 . S
C2670 C2669 1.374 . S
C2671 C2668 1.499 . S
C2671 C2672 1.373 . S
C2671 C2673 1.389 . S
C2672 H2645 0.950 . S
C2672 C2658 1.377 . S
C2672 C2671 1.373 . S
C2673 C2657 1.377 . S
C2673 C2671 1.389 . S
C2673 C2674 1.524 . S
C2674 C2673 1.524 . S
C2674 C2675 1.397 . S
C2674 C2679 1.363 . S
C2675 H2646 0.950 . S
C2675 C2674 1.397 . S
C2675 C2676 1.334 . S
C2676 H2647 0.950 . S
C2676 C2675 1.334 . S
C2676 C2677 1.287 . S
C2677 C2676 1.287 . S
C2677 C2678 1.524 . S
C2677 H2680 0.999 . S
C2678 H2648 0.950 . S
C2678 C2677 1.524 . S
C2678 C2679 1.415 . S
C2679 H2649 0.950 . S
C2679 C2674 1.363 . S
C2679 C2678 1.415 . S
H2680 C2677 0.999 . S
H2681 C2662 0.913 . S
H2682 C2700 0.951 . S
H2683 C2702 0.951 . S
H2684 C2704 0.950 . S
H2685 C2705 0.950 . S
H2686 C2707 0.950 . S
H2687 C2710 0.950 . S
H2688 C2711 0.950 . S
H2689 C2713 0.950 . S
H2690 C2714 0.950 . S
H2691 C2715 0.951 . S
H2692 C2717 0.951 . S
H2693 C2719 0.950 . S
H2694 C2720 0.950 . S
H2695 C2722 0.950 . S
H2696 C2725 0.950 . S
H2697 C2726 0.950 . S
H2698 C2728 0.950 . S
H2699 C2729 0.950 . S
C2700 H2682 0.951 . S
C2700 C2701 1.366 . S
C2700 C2702 1.388 . S
C2701 C2700 1.366 . S
C2701 C2705 1.385 . S
C2702 H2683 0.951 . S
C2702 C2700 1.388 . S
C2702 C2703 1.366 . S
C2703 C2702 1.366 . S
C2703 C2704 1.414 . S
C2703 C2706 1.499 . S
C2704 H2684 0.950 . S
C2704 C2703 1.414 . S
C2704 C2705 1.374 . S
C2705 H2685 0.950 . S
C2705 C2701 1.385 . S
C2705 C2704 1.374 . S
C2706 C2703 1.499 . S
C2706 C2707 1.373 . S
C2706 C2708 1.389 . S
C2707 H2686 0.950 . S
C2707 C2706 1.373 . S
C2707 C2723 1.377 . S
C2708 C2706 1.389 . S
C2708 C2709 1.524 . S
C2708 C2722 1.377 . S
C2709 C2708 1.524 . S
C2709 C2710 1.397 . S
C2709 C2714 1.363 1_565 S
C2710 H2687 0.950 . S
C2710 C2709 1.397 . S
C2710 C2711 1.334 . S
C2711 H2688 0.950 . S
C2711 C2710 1.334 . S
C2711 C2712 1.287 . S
C2712 C2711 1.287 . S
C2712 C2713 1.524 1_565 S
C2712 H2731 0.913 . S
C2713 H2689 0.950 . S
C2713 C2712 1.524 1_545 S
C2713 C2714 1.415 . S
C2714 H2690 0.950 . S
C2714 C2709 1.363 1_545 S
C2714 C2713 1.415 . S
C2715 H2691 0.951 . S
C2715 C2716 1.366 . S
C2715 C2717 1.388 . S
C2716 C2715 1.366 . S
C2716 C2720 1.385 1_565 S
C2717 H2692 0.951 . S
C2717 C2715 1.388 . S
C2717 C2718 1.366 . S
C2718 C2717 1.366 . S
C2718 C2719 1.414 1_565 S
C2718 C2721 1.499 . S
C2719 H2693 0.950 . S
C2719 C2718 1.414 1_545 S
C2719 C2720 1.374 . S
C2720 H2694 0.950 . S
C2720 C2716 1.385 1_545 S
C2720 C2719 1.374 . S
C2721 C2718 1.499 . S
C2721 C2722 1.373 . S
C2721 C2723 1.389 . S
C2722 H2695 0.950 . S
C2722 C2708 1.377 . S
C2722 C2721 1.373 . S
C2723 C2707 1.377 . S
C2723 C2721 1.389 . S
C2723 C2724 1.524 . S
C2724 C2723 1.524 . S
C2724 C2725 1.397 . S
C2724 C2729 1.363 . S
C2725 H2696 0.950 . S
C2725 C2724 1.397 . S
C2725 C2726 1.334 . S
C2726 H2697 0.950 . S
C2726 C2725 1.334 . S
C2726 C2727 1.287 . S
C2727 C2726 1.287 . S
C2727 C2728 1.524 . S
C2727 H2730 0.999 . S
C2728 H2698 0.950 . S
C2728 C2727 1.524 . S
C2728 C2729 1.415 . S
C2729 H2699 0.950 . S
C2729 C2724 1.363 . S
C2729 C2728 1.415 . S
H2730 C2727 0.999 . S
H2731 C2712 0.913 . S
H2732 C2750 0.951 . S
H2733 C2752 0.951 . S
H2734 C2754 0.950 . S
H2735 C2755 0.950 . S
H2736 C2757 0.950 . S
H2737 C2760 0.950 1_655 S
H2738 C2761 0.950 . S
H2739 C2763 0.950 . S
H2740 C2764 0.950 . S
H2741 C2765 0.948 1_655 S
H2742 C2767 0.951 1_655 S
H2743 C2769 0.950 . S
H2744 C2770 0.950 . S
H2745 C2772 0.950 . S
H2746 C2775 0.950 . S
H2747 C2776 0.950 . S
H2748 C2778 0.950 . S
H2749 C2779 0.950 . S
C2750 H2732 0.951 . S
C2750 C2751 1.366 . S
C2750 C2752 1.388 . S
C2751 C2750 1.366 . S
C2751 C2755 1.385 . S
C2752 H2733 0.951 . S
C2752 C2750 1.388 . S
C2752 C2753 1.366 . S
C2753 C2752 1.366 . S
C2753 C2754 1.414 . S
C2753 C2756 1.499 . S
C2754 H2734 0.950 . S
C2754 C2753 1.414 . S
C2754 C2755 1.374 . S
C2755 H2735 0.950 . S
C2755 C2751 1.385 . S
C2755 C2754 1.374 . S
C2756 C2753 1.499 . S
C2756 C2757 1.373 . S
C2756 C2758 1.389 . S
C2757 H2736 0.950 . S
C2757 C2756 1.373 . S
C2757 C2773 1.377 . S
C2758 C2756 1.389 . S
C2758 C2759 1.524 . S
C2758 C2772 1.377 . S
C2759 C2758 1.524 . S
C2759 C2760 1.397 . S
C2759 C2764 1.363 . S
C2760 H2737 0.950 1_455 S
C2760 C2759 1.397 . S
C2760 C2761 1.334 1_455 S
C2761 H2738 0.950 . S
C2761 C2760 1.334 1_655 S
C2761 C2762 1.287 1_655 S
C2762 C2761 1.287 1_455 S
C2762 C2763 1.524 . S
C2762 H2781 0.913 . S
C2763 H2739 0.950 . S
C2763 C2762 1.524 . S
C2763 C2764 1.415 . S
C2764 H2740 0.950 . S
C2764 C2759 1.363 . S
C2764 C2763 1.415 . S
C2765 H2741 0.948 1_455 S
C2765 C2766 1.367 . S
C2765 C2767 1.389 . S
C2766 C2765 1.367 . S
C2766 C2770 1.385 . S
C2767 H2742 0.951 1_455 S
C2767 C2765 1.389 . S
C2767 C2768 1.366 . S
C2768 C2767 1.366 . S
C2768 C2769 1.414 . S
C2768 C2771 1.499 . S
C2769 H2743 0.950 . S
C2769 C2768 1.414 . S
C2769 C2770 1.374 . S
C2770 H2744 0.950 . S
C2770 C2766 1.385 . S
C2770 C2769 1.374 . S
C2771 C2768 1.499 . S
C2771 C2772 1.373 . S
C2771 C2773 1.389 . S
C2772 H2745 0.950 . S
C2772 C2758 1.377 . S
C2772 C2771 1.373 . S
C2773 C2757 1.377 . S
C2773 C2771 1.389 . S
C2773 C2774 1.524 . S
C2774 C2773 1.524 . S
C2774 C2775 1.397 . S
C2774 C2779 1.363 . S
C2775 H2746 0.950 . S
C2775 C2774 1.397 . S
C2775 C2776 1.334 . S
C2776 H2747 0.950 . S
C2776 C2775 1.334 . S
C2776 C2777 1.287 . S
C2777 C2776 1.287 . S
C2777 C2778 1.524 . S
C2777 H2780 0.999 . S
C2778 H2748 0.950 . S
C2778 C2777 1.524 . S
C2778 C2779 1.415 . S
C2779 H2749 0.950 . S
C2779 C2774 1.363 . S
C2779 C2778 1.415 . S
H2780 C2777 0.999 . S
H2781 C2762 0.913 . S
H2782 C2800 0.951 . S
H2783 C2802 0.951 . S
H2784 C2804 0.950 . S
H2785 C2805 0.950 . S
H2786 C2807 0.950 . S
H2787 C2810 0.950 . S
H2788 C2811 0.950 . S
H2789 C2813 0.950 . S
H2790 C2814 0.950 . S
H2791 C2815 0.951 . S
H2792 C2817 0.951 . S
H2793 C2819 0.950 . S
H2794 C2820 0.950 . S
H2795 C2822 0.950 . S
H2796 C2825 0.950 . S
H2797 C2826 0.950 . S
H2798 C2828 0.950 . S
H2799 C2829 0.950 . S
C2800 H2782 0.951 . S
C2800 C2801 1.366 . S
C2800 C2802 1.388 . S
C2801 C2800 1.366 . S
C2801 C2805 1.385 . S
C2802 H2783 0.951 . S
C2802 C2800 1.388 . S
C2802 C2803 1.366 . S
C2803 C2802 1.366 . S
C2803 C2804 1.414 . S
C2803 C2806 1.499 . S
C2804 H2784 0.950 . S
C2804 C2803 1.414 . S
C2804 C2805 1.374 . S
C2805 H2785 0.950 . S
C2805 C2801 1.385 . S
C2805 C2804 1.374 . S
C2806 C2803 1.499 . S
C2806 C2807 1.373 . S
C2806 C2808 1.389 . S
C2807 H2786 0.950 . S
C2807 C2806 1.373 . S
C2807 C2823 1.377 . S
C2808 C2806 1.389 . S
C2808 C2809 1.524 . S
C2808 C2822 1.377 . S
C2809 C2808 1.524 . S
C2809 C2810 1.397 . S
C2809 C2814 1.363 . S
C2810 H2787 0.950 . S
C2810 C2809 1.397 . S
C2810 C2811 1.334 . S
C2811 H2788 0.950 . S
C2811 C2810 1.334 . S
C2811 C2812 1.287 . S
C2812 C2811 1.287 . S
C2812 C2813 1.524 . S
C2812 H2831 0.913 . S
C2813 H2789 0.950 . S
C2813 C2812 1.524 . S
C2813 C2814 1.415 . S
C2814 H2790 0.950 . S
C2814 C2809 1.363 . S
C2814 C2813 1.415 . S
C2815 H2791 0.951 . S
C2815 C2816 1.366 . S
C2815 C2817 1.388 . S
C2816 C2815 1.366 . S
C2816 C2820 1.385 . S
C2817 H2792 0.951 . S
C2817 C2815 1.388 . S
C2817 C2818 1.366 . S
C2818 C2817 1.366 . S
C2818 C2819 1.414 . S
C2818 C2821 1.499 . S
C2819 H2793 0.950 . S
C2819 C2818 1.414 . S
C2819 C2820 1.374 . S
C2820 H2794 0.950 . S
C2820 C2816 1.385 . S
C2820 C2819 1.374 . S
C2821 C2818 1.499 . S
C2821 C2822 1.373 . S
C2821 C2823 1.389 . S
C2822 H2795 0.950 . S
C2822 C2808 1.377 . S
C2822 C2821 1.373 . S
C2823 C2807 1.377 . S
C2823 C2821 1.389 . S
C2823 C2824 1.524 . S
C2824 C2823 1.524 . S
C2824 C2825 1.397 . S
C2824 C2829 1.363 . S
C2825 H2796 0.950 . S
C2825 C2824 1.397 . S
C2825 C2826 1.334 . S
C2826 H2797 0.950 . S
C2826 C2825 1.334 . S
C2826 C2827 1.287 . S
C2827 C2826 1.287 . S
C2827 C2828 1.524 . S
C2827 H2830 0.999 . S
C2828 H2798 0.950 . S
C2828 C2827 1.524 . S
C2828 C2829 1.415 . S
C2829 H2799 0.950 . S
C2829 C2824 1.363 . S
C2829 C2828 1.415 . S
H2830 C2827 0.999 . S
H2831 C2812 0.913 . S
H2832 C2850 0.951 . S
H2833 C2852 0.951 . S
H2834 C2854 0.950 . S
H2835 C2855 0.950 . S
H2836 C2857 0.950 . S
H2837 C2860 0.950 . S
H2838 C2861 0.950 . S
H2839 C2863 0.950 . S
H2840 C2864 0.950 . S
H2841 C2865 0.951 . S
H2842 C2867 0.951 . S
H2843 C2869 0.950 . S
H2844 C2870 0.946 1_455 S
H2845 C2872 0.950 . S
H2846 C2875 0.950 . S
H2847 C2876 0.950 . S
H2848 C2878 0.950 . S
H2849 C2879 0.950 1_655 S
C2850 H2832 0.951 . S
C2850 C2851 1.366 . S
C2850 C2852 1.388 . S
C2851 C2850 1.366 . S
C2851 C2855 1.385 . S
C2852 H2833 0.951 . S
C2852 C2850 1.388 . S
C2852 C2853 1.366 . S
C2853 C2852 1.366 . S
C2853 C2854 1.414 . S
C2853 C2856 1.499 . S
C2854 H2834 0.950 . S
C2854 C2853 1.414 . S
C2854 C2855 1.374 . S
C2855 H2835 0.950 . S
C2855 C2851 1.385 . S
C2855 C2854 1.374 . S
C2856 C2853 1.499 . S
C2856 C2857 1.373 . S
C2856 C2858 1.389 . S
C2857 H2836 0.950 . S
C2857 C2856 1.373 . S
C2857 C2873 1.377 . S
C2858 C2856 1.389 . S
C2858 C2859 1.524 . S
C2858 C2872 1.377 . S
C2859 C2858 1.524 . S
C2859 C2860 1.397 . S
C2859 C2864 1.363 . S
C2860 H2837 0.950 . S
C2860 C2859 1.397 . S
C2860 C2861 1.334 . S
C2861 H2838 0.950 . S
C2861 C2860 1.334 . S
C2861 C2862 1.287 . S
C2862 C2861 1.287 . S
C2862 C2863 1.524 . S
C2862 H2881 0.913 . S
C2863 H2839 0.950 . S
C2863 C2862 1.524 . S
C2863 C2864 1.415 . S
C2864 H2840 0.950 . S
C2864 C2859 1.363 . S
C2864 C2863 1.415 . S
C2865 H2841 0.951 . S
C2865 C2866 1.366 . S
C2865 C2867 1.388 . S
C2866 C2865 1.366 . S
C2866 C2870 1.385 . S
C2867 H2842 0.951 . S
C2867 C2865 1.388 . S
C2867 C2868 1.366 . S
C2868 C2867 1.366 . S
C2868 C2869 1.414 . S
C2868 C2871 1.499 . S
C2869 H2843 0.950 . S
C2869 C2868 1.414 . S
C2869 C2870 1.374 . S
C2870 H2844 0.946 1_655 S
C2870 C2866 1.385 . S
C2870 C2869 1.374 . S
C2871 C2868 1.499 . S
C2871 C2872 1.373 . S
C2871 C2873 1.389 . S
C2872 H2845 0.950 . S
C2872 C2858 1.377 . S
C2872 C2871 1.373 . S
C2873 C2857 1.377 . S
C2873 C2871 1.389 . S
C2873 C2874 1.524 1_655 S
C2874 C2873 1.524 1_455 S
C2874 C2875 1.397 . S
C2874 C2879 1.363 . S
C2875 H2846 0.950 . S
C2875 C2874 1.397 . S
C2875 C2876 1.334 . S
C2876 H2847 0.950 . S
C2876 C2875 1.334 . S
C2876 C2877 1.287 . S
C2877 C2876 1.287 . S
C2877 C2878 1.524 . S
C2877 H2880 0.999 . S
C2878 H2848 0.950 . S
C2878 C2877 1.524 . S
C2878 C2879 1.415 . S
C2879 H2849 0.950 1_455 S
C2879 C2874 1.363 . S
C2879 C2878 1.415 . S
H2880 C2877 0.999 . S
H2881 C2862 0.913 . S
H2882 C2900 0.951 . S
H2883 C2902 0.951 . S
H2884 C2904 0.950 . S
H2885 C2905 0.950 . S
H2886 C2907 0.950 . S
H2887 C2910 0.950 . S
H2888 C2911 0.950 . S
H2889 C2913 0.950 . S
H2890 C2914 0.950 . S
H2891 C2915 0.951 . S
H2892 C2917 0.951 . S
H2893 C2919 0.950 . S
H2894 C2920 0.950 . S
H2895 C2922 0.950 . S
H2896 C2925 0.950 . S
H2897 C2926 0.950 . S
H2898 C2928 0.950 . S
H2899 C2929 0.950 . S
C2900 H2882 0.951 . S
C2900 C2901 1.366 . S
C2900 C2902 1.388 . S
C2901 C2900 1.366 . S
C2901 C2905 1.385 . S
C2902 H2883 0.951 . S
C2902 C2900 1.388 . S
C2902 C2903 1.366 . S
C2903 C2902 1.366 . S
C2903 C2904 1.414 . S
C2903 C2906 1.499 . S
C2904 H2884 0.950 . S
C2904 C2903 1.414 . S
C2904 C2905 1.374 . S
C2905 H2885 0.950 . S
C2905 C2901 1.385 . S
C2905 C2904 1.374 . S
C2906 C2903 1.499 . S
C2906 C2907 1.373 . S
C2906 C2908 1.389 . S
C2907 H2886 0.950 . S
C2907 C2906 1.373 . S
C2907 C2923 1.377 . S
C2908 C2906 1.389 . S
C2908 C2909 1.524 . S
C2908 C2922 1.377 . S
C2909 C2908 1.524 . S
C2909 C2910 1.397 . S
C2909 C2914 1.363 . S
C2910 H2887 0.950 . S
C2910 C2909 1.397 . S
C2910 C2911 1.334 . S
C2911 H2888 0.950 . S
C2911 C2910 1.334 . S
C2911 C2912 1.287 . S
C2912 C2911 1.287 . S
C2912 C2913 1.524 . S
C2912 H2931 0.913 . S
C2913 H2889 0.950 . S
C2913 C2912 1.524 . S
C2913 C2914 1.415 . S
C2914 H2890 0.950 . S
C2914 C2909 1.363 . S
C2914 C2913 1.415 . S
C2915 H2891 0.951 . S
C2915 C2916 1.366 . S
C2915 C2917 1.388 . S
C2916 C2915 1.366 . S
C2916 C2920 1.385 . S
C2917 H2892 0.951 . S
C2917 C2915 1.388 . S
C2917 C2918 1.366 . S
C2918 C2917 1.366 . S
C2918 C2919 1.414 . S
C2918 C2921 1.499 . S
C2919 H2893 0.950 . S
C2919 C2918 1.414 . S
C2919 C2920 1.374 . S
C2920 H2894 0.950 . S
C2920 C2916 1.385 . S
C2920 C2919 1.374 . S
C2921 C2918 1.499 . S
C2921 C2922 1.373 . S
C2921 C2923 1.389 . S
C2922 H2895 0.950 . S
C2922 C2908 1.377 . S
C2922 C2921 1.373 . S
C2923 C2907 1.377 . S
C2923 C2921 1.389 . S
C2923 C2924 1.524 . S
C2924 C2923 1.524 . S
C2924 C2925 1.397 . S
C2924 C2929 1.363 . S
C2925 H2896 0.950 . S
C2925 C2924 1.397 . S
C2925 C2926 1.334 . S
C2926 H2897 0.950 . S
C2926 C2925 1.334 . S
C2926 C2927 1.287 . S
C2927 C2926 1.287 . S
C2927 C2928 1.524 . S
C2927 H2930 0.999 . S
C2928 H2898 0.950 . S
C2928 C2927 1.524 . S
C2928 C2929 1.415 . S
C2929 H2899 0.950 . S
C2929 C2924 1.363 . S
C2929 C2928 1.415 . S
H2930 C2927 0.999 . S
H2931 C2912 0.913 . S
H2932 C2950 0.951 . S
H2933 C2952 0.951 . S
H2934 C2954 0.950 . S
H2935 C2955 0.950 . S
H2936 C2957 0.950 . S
H2937 C2960 0.950 . S
H2938 C2961 0.950 . S
H2939 C2963 0.950 . S
H2940 C2964 0.950 . S
H2941 C2965 0.951 . S
H2942 C2967 0.992 . S
H2943 C2969 0.950 . S
H2944 C2970 0.950 . S
H2945 C2972 0.950 . S
H2946 C2975 0.950 1_545 S
H2947 C2976 0.950 . S
H2948 C2978 0.950 . S
H2949 C2979 0.950 . S
C2950 H2932 0.951 . S
C2950 C2951 1.366 . S
C2950 C2952 1.388 . S
C2951 C2950 1.366 . S
C2951 C2955 1.385 . S
C2952 H2933 0.951 . S
C2952 C2950 1.388 . S
C2952 C2953 1.366 . S
C2953 C2952 1.366 . S
C2953 C2954 1.414 . S
C2953 C2956 1.499 . S
C2954 H2934 0.950 . S
C2954 C2953 1.414 . S
C2954 C2955 1.374 . S
C2955 H2935 0.950 . S
C2955 C2951 1.385 . S
C2955 C2954 1.374 . S
C2956 C2953 1.499 . S
C2956 C2957 1.373 . S
C2956 C2958 1.389 . S
C2957 H2936 0.950 . S
C2957 C2956 1.373 . S
C2957 C2973 1.377 . S
C2958 C2956 1.389 . S
C2958 C2959 1.524 . S
C2958 C2972 1.377 . S
C2959 C2958 1.524 . S
C2959 C2960 1.397 . S
C2959 C2964 1.363 . S
C2960 H2937 0.950 . S
C2960 C2959 1.397 . S
C2960 C2961 1.334 . S
C2961 H2938 0.950 . S
C2961 C2960 1.334 . S
C2961 C2962 1.287 . S
C2962 C2961 1.287 . S
C2962 C2963 1.524 . S
C2962 H2981 0.913 . S
C2963 H2939 0.950 . S
C2963 C2962 1.524 . S
C2963 C2964 1.415 . S
C2964 H2940 0.950 . S
C2964 C2959 1.363 . S
C2964 C2963 1.415 . S
C2965 H2941 0.951 . S
C2965 C2966 1.366 1_565 S
C2965 C2967 1.402 . S
C2966 C2965 1.366 1_545 S
C2966 C2970 1.385 . S
C2967 H2942 0.992 . S
C2967 C2965 1.402 . S
C2967 C2968 1.312 1_565 S
C2968 C2967 1.312 1_545 S
C2968 C2969 1.414 . S
C2968 C2971 1.499 . S
C2969 H2943 0.950 . S
C2969 C2968 1.414 . S
C2969 C2970 1.374 . S
C2970 H2944 0.950 . S
C2970 C2966 1.385 . S
C2970 C2969 1.374 . S
C2971 C2968 1.499 . S
C2971 C2972 1.373 . S
C2971 C2973 1.389 . S
C2972 H2945 0.950 . S
C2972 C2958 1.377 . S
C2972 C2971 1.373 . S
C2973 C2957 1.377 . S
C2973 C2971 1.389 . S
C2973 C2974 1.524 1_545 S
C2974 C2973 1.524 1_565 S
C2974 C2975 1.397 . S
C2974 C2979 1.363 . S
C2975 H2946 0.950 1_565 S
C2975 C2974 1.397 . S
C2975 C2976 1.334 . S
C2976 H2947 0.950 . S
C2976 C2975 1.334 . S
C2976 C2977 1.287 . S
C2977 C2976 1.287 . S
C2977 C2978 1.524 . S
C2977 H2980 0.999 . S
C2978 H2948 0.950 . S
C2978 C2977 1.524 . S
C2978 C2979 1.415 . S
C2979 H2949 0.950 . S
C2979 C2974 1.363 . S
C2979 C2978 1.415 . S
H2980 C2977 0.999 . S
H2981 C2962 0.913 . S
H2982 C3000 0.951 . S
H2983 C3002 0.951 . S
H2984 C3004 0.950 . S
H2985 C3005 0.950 . S
H2986 C3007 0.950 . S
H2987 C3010 0.950 . S
H2988 C3011 0.950 . S
H2989 C3013 0.950 . S
H2990 C3014 0.950 . S
H2991 C3015 0.951 . S
H2992 C3017 0.951 . S
H2993 C3019 0.950 . S
H2994 C3020 0.950 . S
H2995 C3022 0.950 . S
H2996 C3025 0.950 . S
H2997 C3026 0.950 . S
H2998 C3028 0.950 . S
H2999 C3029 0.950 . S
C3000 H2982 0.951 . S
C3000 C3001 1.366 . S
C3000 C3002 1.388 . S
C3001 C3000 1.366 . S
C3001 C3005 1.385 . S
C3002 H2983 0.951 . S
C3002 C3000 1.388 . S
C3002 C3003 1.366 . S
C3003 C3002 1.366 . S
C3003 C3004 1.414 . S
C3003 C3006 1.499 . S
C3004 H2984 0.950 . S
C3004 C3003 1.414 . S
C3004 C3005 1.374 . S
C3005 H2985 0.950 . S
C3005 C3001 1.385 . S
C3005 C3004 1.374 . S
C3006 C3003 1.499 . S
C3006 C3007 1.373 . S
C3006 C3008 1.389 . S
C3007 H2986 0.950 . S
C3007 C3006 1.373 . S
C3007 C3023 1.377 . S
C3008 C3006 1.389 . S
C3008 C3009 1.524 . S
C3008 C3022 1.377 . S
C3009 C3008 1.524 . S
C3009 C3010 1.397 . S
C3009 C3014 1.363 . S
C3010 H2987 0.950 . S
C3010 C3009 1.397 . S
C3010 C3011 1.334 . S
C3011 H2988 0.950 . S
C3011 C3010 1.334 . S
C3011 C3012 1.287 . S
C3012 C3011 1.287 . S
C3012 C3013 1.524 . S
C3012 H3031 0.913 . S
C3013 H2989 0.950 . S
C3013 C3012 1.524 . S
C3013 C3014 1.415 . S
C3014 H2990 0.950 . S
C3014 C3009 1.363 . S
C3014 C3013 1.415 . S
C3015 H2991 0.951 . S
C3015 C3016 1.366 . S
C3015 C3017 1.388 . S
C3016 C3015 1.366 . S
C3016 C3020 1.385 . S
C3017 H2992 0.951 . S
C3017 C3015 1.388 . S
C3017 C3018 1.366 . S
C3018 C3017 1.366 . S
C3018 C3019 1.414 . S
C3018 C3021 1.499 . S
C3019 H2993 0.950 . S
C3019 C3018 1.414 . S
C3019 C3020 1.374 . S
C3020 H2994 0.950 . S
C3020 C3016 1.385 . S
C3020 C3019 1.374 . S
C3021 C3018 1.499 . S
C3021 C3022 1.373 . S
C3021 C3023 1.389 . S
C3022 H2995 0.950 . S
C3022 C3008 1.377 . S
C3022 C3021 1.373 . S
C3023 C3007 1.377 . S
C3023 C3021 1.389 . S
C3023 C3024 1.524 . S
C3024 C3023 1.524 . S
C3024 C3025 1.397 . S
C3024 C3029 1.363 . S
C3025 H2996 0.950 . S
C3025 C3024 1.397 . S
C3025 C3026 1.334 . S
C3026 H2997 0.950 . S
C3026 C3025 1.334 . S
C3026 C3027 1.287 . S
C3027 C3026 1.287 . S
C3027 C3028 1.524 . S
C3027 H3030 0.999 . S
C3028 H2998 0.950 . S
C3028 C3027 1.524 . S
C3028 C3029 1.415 . S
C3029 H2999 0.950 . S
C3029 C3024 1.363 . S
C3029 C3028 1.415 . S
H3030 C3027 0.999 . S
H3031 C3012 0.913 . S
H3032 C3050 0.951 . S
H3033 C3052 0.951 . S
H3034 C3054 0.950 . S
H3035 C3055 0.950 . S
H3036 C3057 0.950 . S
H3037 C3060 0.950 . S
H3038 C3061 0.950 . S
H3039 C3063 0.950 . S
H3040 C3064 0.950 . S
H3041 C3065 0.951 . S
H3042 C3067 0.951 . S
H3043 C3069 0.950 . S
H3044 C3070 0.950 . S
H3045 C3072 0.950 . S
H3046 C3075 0.950 . S
H3047 C3076 0.950 . S
H3048 C3078 0.950 . S
H3049 C3079 0.950 . S
C3050 H3032 0.951 . S
C3050 C3051 1.366 . S
C3050 C3052 1.388 . S
C3051 C3050 1.366 . S
C3051 C3055 1.385 . S
C3052 H3033 0.951 . S
C3052 C3050 1.388 . S
C3052 C3053 1.366 . S
C3053 C3052 1.366 . S
C3053 C3054 1.414 . S
C3053 C3056 1.499 . S
C3054 H3034 0.950 . S
C3054 C3053 1.414 . S
C3054 C3055 1.374 . S
C3055 H3035 0.950 . S
C3055 C3051 1.385 . S
C3055 C3054 1.374 . S
C3056 C3053 1.499 . S
C3056 C3057 1.373 . S
C3056 C3058 1.389 . S
C3057 H3036 0.950 . S
C3057 C3056 1.373 . S
C3057 C3073 1.377 . S
C3058 C3056 1.389 . S
C3058 C3059 1.524 . S
C3058 C3072 1.377 . S
C3059 C3058 1.524 . S
C3059 C3060 1.397 . S
C3059 C3064 1.363 . S
C3060 H3037 0.950 . S
C3060 C3059 1.397 . S
C3060 C3061 1.334 . S
C3061 H3038 0.950 . S
C3061 C3060 1.334 . S
C3061 C3062 1.287 . S
C3062 C3061 1.287 . S
C3062 C3063 1.524 . S
C3062 H3081 0.913 . S
C3063 H3039 0.950 . S
C3063 C3062 1.524 . S
C3063 C3064 1.415 . S
C3064 H3040 0.950 . S
C3064 C3059 1.363 . S
C3064 C3063 1.415 . S
C3065 H3041 0.951 . S
C3065 C3066 1.366 . S
C3065 C3067 1.388 . S
C3066 C3065 1.366 . S
C3066 C3070 1.385 . S
C3067 H3042 0.951 . S
C3067 C3065 1.388 . S
C3067 C3068 1.366 . S
C3068 C3067 1.366 . S
C3068 C3069 1.414 . S
C3068 C3071 1.499 . S
C3069 H3043 0.950 . S
C3069 C3068 1.414 . S
C3069 C3070 1.374 . S
C3070 H3044 0.950 . S
C3070 C3066 1.385 . S
C3070 C3069 1.374 . S
C3071 C3068 1.499 . S
C3071 C3072 1.373 . S
C3071 C3073 1.389 . S
C3072 H3045 0.950 . S
C3072 C3058 1.377 . S
C3072 C3071 1.373 . S
C3073 C3057 1.377 . S
C3073 C3071 1.389 . S
C3073 C3074 1.524 . S
C3074 C3073 1.524 . S
C3074 C3075 1.397 . S
C3074 C3079 1.363 . S
C3075 H3046 0.950 . S
C3075 C3074 1.397 . S
C3075 C3076 1.334 . S
C3076 H3047 0.950 . S
C3076 C3075 1.334 . S
C3076 C3077 1.287 . S
C3077 C3076 1.287 . S
C3077 C3078 1.524 . S
C3077 H3080 0.999 . S
C3078 H3048 0.950 . S
C3078 C3077 1.524 . S
C3078 C3079 1.415 . S
C3079 H3049 0.950 . S
C3079 C3074 1.363 . S
C3079 C3078 1.415 . S
H3080 C3077 0.999 . S
H3081 C3062 0.913 . S
H3082 C3100 0.951 . S
H3083 C3102 0.951 . S
H3084 C3104 0.950 . S
H3085 C3105 0.950 . S
H3086 C3107 0.950 . S
H3087 C3110 0.950 . S
H3088 C3111 0.950 . S
H3089 C3113 0.950 . S
H3090 C3114 0.950 . S
H3091 C3115 0.951 . S
H3092 C3117 0.951 . S
H3093 C3119 0.950 . S
H3094 C3120 0.950 . S
H3095 C3122 0.950 . S
H3096 C3125 0.950 . S
H3097 C3126 0.950 . S
H3098 C3128 0.950 . S
H3099 C3129 0.950 . S
C3100 H3082 0.951 . S
C3100 C3101 1.366 . S
C3100 C3102 1.388 . S
C3101 C3100 1.366 . S
C3101 C3105 1.385 . S
C3102 H3083 0.951 . S
C3102 C3100 1.388 . S
C3102 C3103 1.366 . S
C3103 C3102 1.366 . S
C3103 C3104 1.414 . S
C3103 C3106 1.499 . S
C3104 H3084 0.950 . S
C3104 C3103 1.414 . S
C3104 C3105 1.374 . S
C3105 H3085 0.950 . S
C3105 C3101 1.385 . S
C3105 C3104 1.374 . S
C3106 C3103 1.499 . S
C3106 C3107 1.373 . S
C3106 C3108 1.389 . S
C3107 H3086 0.950 . S
C3107 C3106 1.373 . S
C3107 C3123 1.377 . S
C3108 C3106 1.389 . S
C3108 C3109 1.524 . S
C3108 C3122 1.377 . S
C3109 C3108 1.524 . S
C3109 C3110 1.397 . S
C3109 C3114 1.363 . S
C3110 H3087 0.950 . S
C3110 C3109 1.397 . S
C3110 C3111 1.334 . S
C3111 H3088 0.950 . S
C3111 C3110 1.334 . S
C3111 C3112 1.287 . S
C3112 C3111 1.287 . S
C3112 C3113 1.524 . S
C3112 H3131 0.913 . S
C3113 H3089 0.950 . S
C3113 C3112 1.524 . S
C3113 C3114 1.415 . S
C3114 H3090 0.950 . S
C3114 C3109 1.363 . S
C3114 C3113 1.415 . S
C3115 H3091 0.951 . S
C3115 C3116 1.366 . S
C3115 C3117 1.388 . S
C3116 C3115 1.366 . S
C3116 C3120 1.385 . S
C3117 H3092 0.951 . S
C3117 C3115 1.388 . S
C3117 C3118 1.366 . S
C3118 C3117 1.366 . S
C3118 C3119 1.414 . S
C3118 C3121 1.499 . S
C3119 H3093 0.950 . S
C3119 C3118 1.414 . S
C3119 C3120 1.374 . S
C3120 H3094 0.950 . S
C3120 C3116 1.385 . S
C3120 C3119 1.374 . S
C3121 C3118 1.499 . S
C3121 C3122 1.373 . S
C3121 C3123 1.389 . S
C3122 H3095 0.950 . S
C3122 C3108 1.377 . S
C3122 C3121 1.373 . S
C3123 C3107 1.377 . S
C3123 C3121 1.389 . S
C3123 C3124 1.524 . S
C3124 C3123 1.524 . S
C3124 C3125 1.397 . S
C3124 C3129 1.363 . S
C3125 H3096 0.950 . S
C3125 C3124 1.397 . S
C3125 C3126 1.334 . S
C3126 H3097 0.950 . S
C3126 C3125 1.334 . S
C3126 C3127 1.287 . S
C3127 C3126 1.287 . S
C3127 C3128 1.524 . S
C3127 H3130 0.999 . S
C3128 H3098 0.950 . S
C3128 C3127 1.524 . S
C3128 C3129 1.415 . S
C3129 H3099 0.950 . S
C3129 C3124 1.363 . S
C3129 C3128 1.415 . S
H3130 C3127 0.999 . S
H3131 C3112 0.913 . S
H3132 C3150 0.951 . S
H3133 C3152 0.951 . S
H3134 C3154 0.950 . S
H3135 C3155 0.950 . S
H3136 C3157 0.950 . S
H3137 C3160 0.950 . S
H3138 C3161 0.950 . S
H3139 C3163 0.950 . S
H3140 C3164 0.950 . S
H3141 C3165 0.951 . S
H3142 C3167 0.951 . S
H3143 C3169 0.950 . S
H3144 C3170 0.950 . S
H3145 C3172 0.950 . S
H3146 C3175 0.950 . S
H3147 C3176 0.950 . S
H3148 C3178 0.950 . S
H3149 C3179 0.950 . S
C3150 H3132 0.951 . S
C3150 C3151 1.366 . S
C3150 C3152 1.388 . S
C3151 C3150 1.366 . S
C3151 C3155 1.385 . S
C3152 H3133 0.951 . S
C3152 C3150 1.388 . S
C3152 C3153 1.366 . S
C3153 C3152 1.366 . S
C3153 C3154 1.414 . S
C3153 C3156 1.499 . S
C3154 H3134 0.950 . S
C3154 C3153 1.414 . S
C3154 C3155 1.374 . S
C3155 H3135 0.950 . S
C3155 C3151 1.385 . S
C3155 C3154 1.374 . S
C3156 C3153 1.499 . S
C3156 C3157 1.373 . S
C3156 C3158 1.389 . S
C3157 H3136 0.950 . S
C3157 C3156 1.373 . S
C3157 C3173 1.377 . S
C3158 C3156 1.389 . S
C3158 C3159 1.524 . S
C3158 C3172 1.377 . S
C3159 C3158 1.524 . S
C3159 C3160 1.397 . S
C3159 C3164 1.363 . S
C3160 H3137 0.950 . S
C3160 C3159 1.397 . S
C3160 C3161 1.334 . S
C3161 H3138 0.950 . S
C3161 C3160 1.334 . S
C3161 C3162 1.287 . S
C3162 C3161 1.287 . S
C3162 C3163 1.524 . S
C3162 H3181 0.913 . S
C3163 H3139 0.950 . S
C3163 C3162 1.524 . S
C3163 C3164 1.415 . S
C3164 H3140 0.950 . S
C3164 C3159 1.363 . S
C3164 C3163 1.415 . S
C3165 H3141 0.951 . S
C3165 C3166 1.366 . S
C3165 C3167 1.388 . S
C3166 C3165 1.366 . S
C3166 C3170 1.385 . S
C3167 H3142 0.951 . S
C3167 C3165 1.388 . S
C3167 C3168 1.366 . S
C3168 C3167 1.366 . S
C3168 C3169 1.414 . S
C3168 C3171 1.499 . S
C3169 H3143 0.950 . S
C3169 C3168 1.414 . S
C3169 C3170 1.374 . S
C3170 H3144 0.950 . S
C3170 C3166 1.385 . S
C3170 C3169 1.374 . S
C3171 C3168 1.499 . S
C3171 C3172 1.373 . S
C3171 C3173 1.389 . S
C3172 H3145 0.950 . S
C3172 C3158 1.377 . S
C3172 C3171 1.373 . S
C3173 C3157 1.377 . S
C3173 C3171 1.389 . S
C3173 C3174 1.524 . S
C3174 C3173 1.524 . S
C3174 C3175 1.397 . S
C3174 C3179 1.363 . S
C3175 H3146 0.950 . S
C3175 C3174 1.397 . S
C3175 C3176 1.334 . S
C3176 H3147 0.950 . S
C3176 C3175 1.334 . S
C3176 C3177 1.287 . S
C3177 C3176 1.287 . S
C3177 C3178 1.524 . S
C3177 H3180 0.999 . S
C3178 H3148 0.950 . S
C3178 C3177 1.524 . S
C3178 C3179 1.415 . S
C3179 H3149 0.950 . S
C3179 C3174 1.363 . S
C3179 C3178 1.415 . S
H3180 C3177 0.999 . S
H3181 C3162 0.913 . S
H3182 C3200 0.951 . S
H3183 C3202 0.951 . S
H3184 C3204 0.950 . S
H3185 C3205 0.950 . S
H3186 C3207 0.950 . S
H3187 C3210 0.950 . S
H3188 C3211 0.950 . S
H3189 C3213 0.950 . S
H3190 C3214 0.950 . S
H3191 C3215 0.951 . S
H3192 C3217 0.951 . S
H3193 C3219 0.950 . S
H3194 C3220 0.950 . S
H3195 C3222 0.950 . S
H3196 C3225 0.950 . S
H3197 C3226 0.950 . S
H3198 C3228 0.950 . S
H3199 C3229 0.950 . S
C3200 H3182 0.951 . S
C3200 C3201 1.366 . S
C3200 C3202 1.388 . S
C3201 C3200 1.366 . S
C3201 C3205 1.385 . S
C3202 H3183 0.951 . S
C3202 C3200 1.388 . S
C3202 C3203 1.366 . S
C3203 C3202 1.366 . S
C3203 C3204 1.414 . S
C3203 C3206 1.499 . S
C3204 H3184 0.950 . S
C3204 C3203 1.414 . S
C3204 C3205 1.374 . S
C3205 H3185 0.950 . S
C3205 C3201 1.385 . S
C3205 C3204 1.374 . S
C3206 C3203 1.499 . S
C3206 C3207 1.373 . S
C3206 C3208 1.389 . S
C3207 H3186 0.950 . S
C3207 C3206 1.373 . S
C3207 C3223 1.377 . S
C3208 C3206 1.389 . S
C3208 C3209 1.524 . S
C3208 C3222 1.377 . S
C3209 C3208 1.524 . S
C3209 C3210 1.397 . S
C3209 C3214 1.363 . S
C3210 H3187 0.950 . S
C3210 C3209 1.397 . S
C3210 C3211 1.334 . S
C3211 H3188 0.950 . S
C3211 C3210 1.334 . S
C3211 C3212 1.287 . S
C3212 C3211 1.287 . S
C3212 C3213 1.524 . S
C3212 H3231 0.913 . S
C3213 H3189 0.950 . S
C3213 C3212 1.524 . S
C3213 C3214 1.415 . S
C3214 H3190 0.950 . S
C3214 C3209 1.363 . S
C3214 C3213 1.415 . S
C3215 H3191 0.951 . S
C3215 C3216 1.366 . S
C3215 C3217 1.388 . S
C3216 C3215 1.366 . S
C3216 C3220 1.385 . S
C3217 H3192 0.951 . S
C3217 C3215 1.388 . S
C3217 C3218 1.366 . S
C3218 C3217 1.366 . S
C3218 C3219 1.414 . S
C3218 C3221 1.499 . S
C3219 H3193 0.950 . S
C3219 C3218 1.414 . S
C3219 C3220 1.374 . S
C3220 H3194 0.950 . S
C3220 C3216 1.385 . S
C3220 C3219 1.374 . S
C3221 C3218 1.499 . S
C3221 C3222 1.373 . S
C3221 C3223 1.389 . S
C3222 H3195 0.950 . S
C3222 C3208 1.377 . S
C3222 C3221 1.373 . S
C3223 C3207 1.377 . S
C3223 C3221 1.389 . S
C3223 C3224 1.524 . S
C3224 C3223 1.524 . S
C3224 C3225 1.397 . S
C3224 C3229 1.363 . S
C3225 H3196 0.950 . S
C3225 C3224 1.397 . S
C3225 C3226 1.334 . S
C3226 H3197 0.950 . S
C3226 C3225 1.334 . S
C3226 C3227 1.287 . S
C3227 C3226 1.287 . S
C3227 C3228 1.524 . S
C3227 H3230 0.999 . S
C3228 H3198 0.950 . S
C3228 C3227 1.524 . S
C3228 C3229 1.415 . S
C3229 H3199 0.950 . S
C3229 C3224 1.363 . S
C3229 C3228 1.415 . S
H3230 C3227 0.999 . S
H3231 C3212 0.913 . S
H3232 C3250 0.951 . S
H3233 C3252 0.951 . S
H3234 C3254 0.950 . S
H3235 C3255 0.950 . S
H3236 C3257 0.950 . S
H3237 C3260 0.950 . S
H3238 C3261 0.950 . S
H3239 C3263 0.950 . S
H3240 C3264 0.950 . S
H3241 C3265 0.951 . S
H3242 C3267 0.951 . S
H3243 C3269 0.950 . S
H3244 C3270 0.950 . S
H3245 C3272 0.950 . S
H3246 C3275 0.950 . S
H3247 C3276 0.950 . S
H3248 C3278 0.950 . S
H3249 C3279 0.950 . S
C3250 H3232 0.951 . S
C3250 C3251 1.366 . S
C3250 C3252 1.388 . S
C3251 C3250 1.366 . S
C3251 C3255 1.385 . S
C3252 H3233 0.951 . S
C3252 C3250 1.388 . S
C3252 C3253 1.366 . S
C3253 C3252 1.366 . S
C3253 C3254 1.414 . S
C3253 C3256 1.499 . S
C3254 H3234 0.950 . S
C3254 C3253 1.414 . S
C3254 C3255 1.374 . S
C3255 H3235 0.950 . S
C3255 C3251 1.385 . S
C3255 C3254 1.374 . S
C3256 C3253 1.499 . S
C3256 C3257 1.373 . S
C3256 C3258 1.389 . S
C3257 H3236 0.950 . S
C3257 C3256 1.373 . S
C3257 C3273 1.377 . S
C3258 C3256 1.389 . S
C3258 C3259 1.524 . S
C3258 C3272 1.377 . S
C3259 C3258 1.524 . S
C3259 C3260 1.397 . S
C3259 C3264 1.363 . S
C3260 H3237 0.950 . S
C3260 C3259 1.397 . S
C3260 C3261 1.334 . S
C3261 H3238 0.950 . S
C3261 C3260 1.334 . S
C3261 C3262 1.287 . S
C3262 C3261 1.287 . S
C3262 C3263 1.524 . S
C3262 H3281 0.913 . S
C3263 H3239 0.950 . S
C3263 C3262 1.524 . S
C3263 C3264 1.415 . S
C3264 H3240 0.950 . S
C3264 C3259 1.363 . S
C3264 C3263 1.415 . S
C3265 H3241 0.951 . S
C3265 C3266 1.366 . S
C3265 C3267 1.388 . S
C3266 C3265 1.366 . S
C3266 C3270 1.385 . S
C3267 H3242 0.951 . S
C3267 C3265 1.388 . S
C3267 C3268 1.366 . S
C3268 C3267 1.366 . S
C3268 C3269 1.414 . S
C3268 C3271 1.499 . S
C3269 H3243 0.950 . S
C3269 C3268 1.414 . S
C3269 C3270 1.374 . S
C3270 H3244 0.950 . S
C3270 C3266 1.385 . S
C3270 C3269 1.374 . S
C3271 C3268 1.499 . S
C3271 C3272 1.373 . S
C3271 C3273 1.389 . S
C3272 H3245 0.950 . S
C3272 C3258 1.377 . S
C3272 C3271 1.373 . S
C3273 C3257 1.377 . S
C3273 C3271 1.389 . S
C3273 C3274 1.524 . S
C3274 C3273 1.524 . S
C3274 C3275 1.397 . S
C3274 C3279 1.363 . S
C3275 H3246 0.950 . S
C3275 C3274 1.397 . S
C3275 C3276 1.334 . S
C3276 H3247 0.950 . S
C3276 C3275 1.334 . S
C3276 C3277 1.287 . S
C3277 C3276 1.287 . S
C3277 C3278 1.524 . S
C3277 H3280 0.999 . S
C3278 H3248 0.950 . S
C3278 C3277 1.524 . S
C3278 C3279 1.415 . S
C3279 H3249 0.950 . S
C3279 C3274 1.363 . S
C3279 C3278 1.415 . S
H3280 C3277 0.999 . S
H3281 C3262 0.913 . S
H3282 C3300 0.951 . S
H3283 C3302 0.951 . S
H3284 C3304 0.950 . S
H3285 C3305 0.950 . S
H3286 C3307 0.950 . S
H3287 C3310 0.950 . S
H3288 C3311 0.950 . S
H3289 C3313 0.950 . S
H3290 C3314 0.950 . S
H3291 C3315 0.951 . S
H3292 C3317 0.951 . S
H3293 C3319 0.950 . S
H3294 C3320 0.950 . S
H3295 C3322 0.950 . S
H3296 C3325 0.950 . S
H3297 C3326 0.950 . S
H3298 C3328 0.950 . S
H3299 C3329 0.950 . S
C3300 H3282 0.951 . S
C3300 C3301 1.366 . S
C3300 C3302 1.388 . S
C3301 C3300 1.366 . S
C3301 C3305 1.385 . S
C3302 H3283 0.951 . S
C3302 C3300 1.388 . S
C3302 C3303 1.366 . S
C3303 C3302 1.366 . S
C3303 C3304 1.414 . S
C3303 C3306 1.499 . S
C3304 H3284 0.950 . S
C3304 C3303 1.414 . S
C3304 C3305 1.374 . S
C3305 H3285 0.950 . S
C3305 C3301 1.385 . S
C3305 C3304 1.374 . S
C3306 C3303 1.499 . S
C3306 C3307 1.373 . S
C3306 C3308 1.389 . S
C3307 H3286 0.950 . S
C3307 C3306 1.373 . S
C3307 C3323 1.377 . S
C3308 C3306 1.389 . S
C3308 C3309 1.524 . S
C3308 C3322 1.377 . S
C3309 C3308 1.524 . S
C3309 C3310 1.397 . S
C3309 C3314 1.363 . S
C3310 H3287 0.950 . S
C3310 C3309 1.397 . S
C3310 C3311 1.334 . S
C3311 H3288 0.950 . S
C3311 C3310 1.334 . S
C3311 C3312 1.287 . S
C3312 C3311 1.287 . S
C3312 C3313 1.524 . S
C3312 H3331 0.913 . S
C3313 H3289 0.950 . S
C3313 C3312 1.524 . S
C3313 C3314 1.415 . S
C3314 H3290 0.950 . S
C3314 C3309 1.363 . S
C3314 C3313 1.415 . S
C3315 H3291 0.951 . S
C3315 C3316 1.366 . S
C3315 C3317 1.388 . S
C3316 C3315 1.366 . S
C3316 C3320 1.385 . S
C3317 H3292 0.951 . S
C3317 C3315 1.388 . S
C3317 C3318 1.366 . S
C3318 C3317 1.366 . S
C3318 C3319 1.414 . S
C3318 C3321 1.499 . S
C3319 H3293 0.950 . S
C3319 C3318 1.414 . S
C3319 C3320 1.374 . S
C3320 H3294 0.950 . S
C3320 C3316 1.385 . S
C3320 C3319 1.374 . S
C3321 C3318 1.499 . S
C3321 C3322 1.373 . S
C3321 C3323 1.389 . S
C3322 H3295 0.950 . S
C3322 C3308 1.377 . S
C3322 C3321 1.373 . S
C3323 C3307 1.377 . S
C3323 C3321 1.389 . S
C3323 C3324 1.524 . S
C3324 C3323 1.524 . S
C3324 C3325 1.397 . S
C3324 C3329 1.363 . S
C3325 H3296 0.950 . S
C3325 C3324 1.397 . S
C3325 C3326 1.334 . S
C3326 H3297 0.950 . S
C3326 C3325 1.334 . S
C3326 C3327 1.287 . S
C3327 C3326 1.287 . S
C3327 C3328 1.524 . S
C3327 H3330 0.999 . S
C3328 H3298 0.950 . S
C3328 C3327 1.524 . S
C3328 C3329 1.415 . S
C3329 H3299 0.950 . S
C3329 C3324 1.363 . S
C3329 C3328 1.415 . S
H3330 C3327 0.999 . S
H3331 C3312 0.913 . S
H3332 C3350 0.951 . S
H3333 C3352 0.951 . S
H3334 C3354 0.950 . S
H3335 C3355 0.950 . S
H3336 C3357 0.950 . S
H3337 C3360 0.950 . S
H3338 C3361 0.950 . S
H3339 C3363 0.950 . S
H3340 C3364 0.950 . S
H3341 C3365 0.951 . S
H3342 C3367 0.951 . S
H3343 C3369 0.950 . S
H3344 C3370 0.950 . S
H3345 C3372 0.950 . S
H3346 C3375 0.950 . S
H3347 C3376 0.950 . S
H3348 C3378 0.950 . S
H3349 C3379 0.950 . S
C3350 H3332 0.951 . S
C3350 C3351 1.366 . S
C3350 C3352 1.388 . S
C3351 C3350 1.366 . S
C3351 C3355 1.385 . S
C3352 H3333 0.951 . S
C3352 C3350 1.388 . S
C3352 C3353 1.366 . S
C3353 C3352 1.366 . S
C3353 C3354 1.414 . S
C3353 C3356 1.499 . S
C3354 H3334 0.950 . S
C3354 C3353 1.414 . S
C3354 C3355 1.374 . S
C3355 H3335 0.950 . S
C3355 C3351 1.385 . S
C3355 C3354 1.374 . S
C3356 C3353 1.499 . S
C3356 C3357 1.373 . S
C3356 C3358 1.389 . S
C3357 H3336 0.950 . S
C3357 C3356 1.373 . S
C3357 C3373 1.377 . S
C3358 C3356 1.389 . S
C3358 C3359 1.524 . S
C3358 C3372 1.377 . S
C3359 C3358 1.524 . S
C3359 C3360 1.397 . S
C3359 C3364 1.363 . S
C3360 H3337 0.950 . S
C3360 C3359 1.397 . S
C3360 C3361 1.334 . S
C3361 H3338 0.950 . S
C3361 C3360 1.334 . S
C3361 C3362 1.287 . S
C3362 C3361 1.287 . S
C3362 C3363 1.524 . S
C3362 H3381 0.913 . S
C3363 H3339 0.950 . S
C3363 C3362 1.524 . S
C3363 C3364 1.415 . S
C3364 H3340 0.950 . S
C3364 C3359 1.363 . S
C3364 C3363 1.415 . S
C3365 H3341 0.951 . S
C3365 C3366 1.366 . S
C3365 C3367 1.388 . S
C3366 C3365 1.366 . S
C3366 C3370 1.385 . S
C3367 H3342 0.951 . S
C3367 C3365 1.388 . S
C3367 C3368 1.366 . S
C3368 C3367 1.366 . S
C3368 C3369 1.414 . S
C3368 C3371 1.499 . S
C3369 H3343 0.950 . S
C3369 C3368 1.414 . S
C3369 C3370 1.374 . S
C3370 H3344 0.950 . S
C3370 C3366 1.385 . S
C3370 C3369 1.374 . S
C3371 C3368 1.499 . S
C3371 C3372 1.373 . S
C3371 C3373 1.389 . S
C3372 H3345 0.950 . S
C3372 C3358 1.377 . S
C3372 C3371 1.373 . S
C3373 C3357 1.377 . S
C3373 C3371 1.389 . S
C3373 C3374 1.524 . S
C3374 C3373 1.524 . S
C3374 C3375 1.397 . S
C3374 C3379 1.363 . S
C3375 H3346 0.950 . S
C3375 C3374 1.397 . S
C3375 C3376 1.334 . S
C3376 H3347 0.950 . S
C3376 C3375 1.334 . S
C3376 C3377 1.287 . S
C3377 C3376 1.287 . S
C3377 C3378 1.524 . S
C3377 H3380 0.999 . S
C3378 H3348 0.950 . S
C3378 C3377 1.524 . S
C3378 C3379 1.415 . S
C3379 H3349 0.950 . S
C3379 C3374 1.363 . S
C3379 C3378 1.415 . S
H3380 C3377 0.999 . S
H3381 C3362 0.913 . S
H3382 C3400 0.951 . S
H3383 C3402 0.951 . S
H3384 C3404 0.950 . S
H3385 C3405 0.950 . S
H3386 C3407 0.950 . S
H3387 C3410 0.950 . S
H3388 C3411 0.950 . S
H3389 C3413 0.950 . S
H3390 C3414 0.950 . S
H3391 C3415 0.951 . S
H3392 C3417 0.951 . S
H3393 C3419 0.950 . S
H3394 C3420 0.950 . S
H3395 C3422 0.950 . S
H3396 C3425 0.950 . S
H3397 C3426 0.950 . S
H3398 C3428 0.950 . S
H3399 C3429 0.950 . S
C3400 H3382 0.951 . S
C3400 C3401 1.366 . S
C3400 C3402 1.388 . S
C3401 C3400 1.366 . S
C3401 C3405 1.385 . S
C3402 H3383 0.951 . S
C3402 C3400 1.388 . S
C3402 C3403 1.366 . S
C3403 C3402 1.366 . S
C3403 C3404 1.414 . S
C3403 C3406 1.499 . S
C3404 H3384 0.950 . S
C3404 C3403 1.414 . S
C3404 C3405 1.374 . S
C3405 H3385 0.950 . S
C3405 C3401 1.385 . S
C3405 C3404 1.374 . S
C3406 C3403 1.499 . S
C3406 C3407 1.373 . S
C3406 C3408 1.389 . S
C3407 H3386 0.950 . S
C3407 C3406 1.373 . S
C3407 C3423 1.377 . S
C3408 C3406 1.389 . S
C3408 C3409 1.524 . S
C3408 C3422 1.377 . S
C3409 C3408 1.524 . S
C3409 C3410 1.397 . S
C3409 C3414 1.363 . S
C3410 H3387 0.950 . S
C3410 C3409 1.397 . S
C3410 C3411 1.334 . S
C3411 H3388 0.950 . S
C3411 C3410 1.334 . S
C3411 C3412 1.287 . S
C3412 C3411 1.287 . S
C3412 C3413 1.524 . S
C3412 H3431 0.913 . S
C3413 H3389 0.950 . S
C3413 C3412 1.524 . S
C3413 C3414 1.415 . S
C3414 H3390 0.950 . S
C3414 C3409 1.363 . S
C3414 C3413 1.415 . S
C3415 H3391 0.951 . S
C3415 C3416 1.366 . S
C3415 C3417 1.388 . S
C3416 C3415 1.366 . S
C3416 C3420 1.385 . S
C3417 H3392 0.951 . S
C3417 C3415 1.388 . S
C3417 C3418 1.366 . S
C3418 C3417 1.366 . S
C3418 C3419 1.414 . S
C3418 C3421 1.499 . S
C3419 H3393 0.950 . S
C3419 C3418 1.414 . S
C3419 C3420 1.374 . S
C3420 H3394 0.950 . S
C3420 C3416 1.385 . S
C3420 C3419 1.374 . S
C3421 C3418 1.499 . S
C3421 C3422 1.373 . S
C3421 C3423 1.389 . S
C3422 H3395 0.950 . S
C3422 C3408 1.377 . S
C3422 C3421 1.373 . S
C3423 C3407 1.377 . S
C3423 C3421 1.389 . S
C3423 C3424 1.524 . S
C3424 C3423 1.524 . S
C3424 C3425 1.397 . S
C3424 C3429 1.363 . S
C3425 H3396 0.950 . S
C3425 C3424 1.397 . S
C3425 C3426 1.334 . S
C3426 H3397 0.950 . S
C3426 C3425 1.334 . S
C3426 C3427 1.287 . S
C3427 C3426 1.287 . S
C3427 C3428 1.524 . S
C3427 H3430 0.999 . S
C3428 H3398 0.950 . S
C3428 C3427 1.524 . S
C3428 C3429 1.415 . S
C3429 H3399 0.950 . S
C3429 C3424 1.363 . S
C3429 C3428 1.415 . S
H3430 C3427 0.999 . S
H3431 C3412 0.913 . S
H3432 C3450 0.951 . S
H3433 C3452 0.951 . S
H3434 C3454 0.950 . S
H3435 C3455 0.950 . S
H3436 C3457 0.950 . S
H3437 C3460 0.950 . S
H3438 C3461 0.950 . S
H3439 C3463 0.950 . S
H3440 C3464 0.950 . S
H3441 C3465 0.951 . S
H3442 C3467 0.951 . S
H3443 C3469 0.950 . S
H3444 C3470 0.950 . S
H3445 C3472 0.950 . S
H3446 C3475 0.950 . S
H3447 C3476 0.950 . S
H3448 C3478 0.950 . S
H3449 C3479 0.950 . S
C3450 H3432 0.951 . S
C3450 C3451 1.366 . S
C3450 C3452 1.388 . S
C3451 C3450 1.366 . S
C3451 C3455 1.385 . S
C3452 H3433 0.951 . S
C3452 C3450 1.388 . S
C3452 C3453 1.366 . S
C3453 C3452 1.366 . S
C3453 C3454 1.414 . S
C3453 C3456 1.499 . S
C3454 H3434 0.950 . S
C3454 C3453 1.414 . S
C3454 C3455 1.374 . S
C3455 H3435 0.950 . S
C3455 C3451 1.385 . S
C3455 C3454 1.374 . S
C3456 C3453 1.499 . S
C3456 C3457 1.373 . S
C3456 C3458 1.389 . S
C3457 H3436 0.950 . S
C3457 C3456 1.373 . S
C3457 C3473 1.377 . S
C3458 C3456 1.389 . S
C3458 C3459 1.524 . S
C3458 C3472 1.377 . S
C3459 C3458 1.524 . S
C3459 C3460 1.397 . S
C3459 C3464 1.363 . S
C3460 H3437 0.950 . S
C3460 C3459 1.397 . S
C3460 C3461 1.334 . S
C3461 H3438 0.950 . S
C3461 C3460 1.334 . S
C3461 C3462 1.287 . S
C3462 C3461 1.287 . S
C3462 C3463 1.524 . S
C3462 H3481 0.913 . S
C3463 H3439 0.950 . S
C3463 C3462 1.524 . S
C3463 C3464 1.415 . S
C3464 H3440 0.950 . S
C3464 C3459 1.363 . S
C3464 C3463 1.415 . S
C3465 H3441 0.951 . S
C3465 C3466 1.366 . S
C3465 C3467 1.388 . S
C3466 C3465 1.366 . S
C3466 C3470 1.385 . S
C3467 H3442 0.951 . S
C3467 C3465 1.388 . S
C3467 C3468 1.366 . S
C3468 C3467 1.366 . S
C3468 C3469 1.414 . S
C3468 C3471 1.499 . S
C3469 H3443 0.950 . S
C3469 C3468 1.414 . S
C3469 C3470 1.374 . S
C3470 H3444 0.950 . S
C3470 C3466 1.385 . S
C3470 C3469 1.374 . S
C3471 C3468 1.499 . S
C3471 C3472 1.373 . S
C3471 C3473 1.389 . S
C3472 H3445 0.950 . S
C3472 C3458 1.377 . S
C3472 C3471 1.373 . S
C3473 C3457 1.377 . S
C3473 C3471 1.389 . S
C3473 C3474 1.524 . S
C3474 C3473 1.524 . S
C3474 C3475 1.397 . S
C3474 C3479 1.363 . S
C3475 H3446 0.950 . S
C3475 C3474 1.397 . S
C3475 C3476 1.334 . S
C3476 H3447 0.950 . S
C3476 C3475 1.334 . S
C3476 C3477 1.287 . S
C3477 C3476 1.287 . S
C3477 C3478 1.524 . S
C3477 H3480 0.999 . S
C3478 H3448 0.950 . S
C3478 C3477 1.524 . S
C3478 C3479 1.415 . S
C3479 H3449 0.950 . S
C3479 C3474 1.363 . S
C3479 C3478 1.415 . S
H3480 C3477 0.999 . S
H3481 C3462 0.913 . S
H3482 C3500 0.951 . S
H3483 C3502 0.951 . S
H3484 C3504 0.950 . S
H3485 C3505 0.950 . S
H3486 C3507 0.950 . S
H3487 C3510 0.950 . S
H3488 C3511 0.950 . S
H3489 C3513 0.950 . S
H3490 C3514 0.950 . S
H3491 C3515 0.951 . S
H3492 C3517 0.951 . S
H3493 C3519 0.950 . S
H3494 C3520 0.950 . S
H3495 C3522 0.950 . S
H3496 C3525 0.950 . S
H3497 C3526 0.950 . S
H3498 C3528 0.950 . S
H3499 C3529 0.950 . S
C3500 H3482 0.951 . S
C3500 C3501 1.366 . S
C3500 C3502 1.388 . S
C3501 C3500 1.366 . S
C3501 C3505 1.385 . S
C3502 H3483 0.951 . S
C3502 C3500 1.388 . S
C3502 C3503 1.366 . S
C3503 C3502 1.366 . S
C3503 C3504 1.414 . S
C3503 C3506 1.499 . S
C3504 H3484 0.950 . S
C3504 C3503 1.414 . S
C3504 C3505 1.374 . S
C3505 H3485 0.950 . S
C3505 C3501 1.385 . S
C3505 C3504 1.374 . S
C3506 C3503 1.499 . S
C3506 C3507 1.373 . S
C3506 C3508 1.389 . S
C3507 H3486 0.950 . S
C3507 C3506 1.373 . S
C3507 C3523 1.377 . S
C3508 C3506 1.389 . S
C3508 C3509 1.524 . S
C3508 C3522 1.377 . S
C3509 C3508 1.524 . S
C3509 C3510 1.397 . S
C3509 C3514 1.363 . S
C3510 H3487 0.950 . S
C3510 C3509 1.397 . S
C3510 C3511 1.334 . S
C3511 H3488 0.950 . S
C3511 C3510 1.334 . S
C3511 C3512 1.287 . S
C3512 C3511 1.287 . S
C3512 C3513 1.524 . S
C3512 H3531 0.913 . S
C3513 H3489 0.950 . S
C3513 C3512 1.524 . S
C3513 C3514 1.415 . S
C3514 H3490 0.950 . S
C3514 C3509 1.363 . S
C3514 C3513 1.415 . S
C3515 H3491 0.951 . S
C3515 C3516 1.366 . S
C3515 C3517 1.388 . S
C3516 C3515 1.366 . S
C3516 C3520 1.385 . S
C3517 H3492 0.951 . S
C3517 C3515 1.388 . S
C3517 C3518 1.366 . S
C3518 C3517 1.366 . S
C3518 C3519 1.414 . S
C3518 C3521 1.499 . S
C3519 H3493 0.950 . S
C3519 C3518 1.414 . S
C3519 C3520 1.374 . S
C3520 H3494 0.950 . S
C3520 C3516 1.385 . S
C3520 C3519 1.374 . S
C3521 C3518 1.499 . S
C3521 C3522 1.373 . S
C3521 C3523 1.389 . S
C3522 H3495 0.950 . S
C3522 C3508 1.377 . S
C3522 C3521 1.373 . S
C3523 C3507 1.377 . S
C3523 C3521 1.389 . S
C3523 C3524 1.524 . S
C3524 C3523 1.524 . S
C3524 C3525 1.397 . S
C3524 C3529 1.363 . S
C3525 H3496 0.950 . S
C3525 C3524 1.397 . S
C3525 C3526 1.334 . S
C3526 H3497 0.950 . S
C3526 C3525 1.334 . S
C3526 C3527 1.287 . S
C3527 C3526 1.287 . S
C3527 C3528 1.524 . S
C3527 H3530 0.999 . S
C3528 H3498 0.950 . S
C3528 C3527 1.524 . S
C3528 C3529 1.415 . S
C3529 H3499 0.950 . S
C3529 C3524 1.363 . S
C3529 C3528 1.415 . S
H3530 C3527 0.999 . S
H3531 C3512 0.913 . S
H3532 C3550 0.951 . S
H3533 C3552 0.951 . S
H3534 C3554 0.950 . S
H3535 C3555 0.950 . S
H3536 C3557 0.950 . S
H3537 C3560 0.950 . S
H3538 C3561 0.950 . S
H3539 C3563 0.950 . S
H3540 C3564 0.950 . S
H3541 C3565 0.951 . S
H3542 C3567 0.951 . S
H3543 C3569 0.950 . S
H3544 C3570 0.950 . S
H3545 C3572 0.950 . S
H3546 C3575 0.950 . S
H3547 C3576 0.950 . S
H3548 C3578 0.950 . S
H3549 C3579 0.950 . S
C3550 H3532 0.951 . S
C3550 C3551 1.366 . S
C3550 C3552 1.388 . S
C3551 C3550 1.366 . S
C3551 C3555 1.385 . S
C3552 H3533 0.951 . S
C3552 C3550 1.388 . S
C3552 C3553 1.366 . S
C3553 C3552 1.366 . S
C3553 C3554 1.414 . S
C3553 C3556 1.499 . S
C3554 H3534 0.950 . S
C3554 C3553 1.414 . S
C3554 C3555 1.374 . S
C3555 H3535 0.950 . S
C3555 C3551 1.385 . S
C3555 C3554 1.374 . S
C3556 C3553 1.499 . S
C3556 C3557 1.373 . S
C3556 C3558 1.389 . S
C3557 H3536 0.950 . S
C3557 C3556 1.373 . S
C3557 C3573 1.377 . S
C3558 C3556 1.389 . S
C3558 C3559 1.524 . S
C3558 C3572 1.377 . S
C3559 C3558 1.524 . S
C3559 C3560 1.397 . S
C3559 C3564 1.363 . S
C3560 H3537 0.950 . S
C3560 C3559 1.397 . S
C3560 C3561 1.334 . S
C3561 H3538 0.950 . S
C3561 C3560 1.334 . S
C3561 C3562 1.287 . S
C3562 C3561 1.287 . S
C3562 C3563 1.524 . S
C3562 H3581 0.913 . S
C3563 H3539 0.950 . S
C3563 C3562 1.524 . S
C3563 C3564 1.415 . S
C3564 H3540 0.950 . S
C3564 C3559 1.363 . S
C3564 C3563 1.415 . S
C3565 H3541 0.951 . S
C3565 C3566 1.366 . S
C3565 C3567 1.388 . S
C3566 C3565 1.366 . S
C3566 C3570 1.385 . S
C3567 H3542 0.951 . S
C3567 C3565 1.388 . S
C3567 C3568 1.366 . S
C3568 C3567 1.366 . S
C3568 C3569 1.414 . S
C3568 C3571 1.499 . S
C3569 H3543 0.950 . S
C3569 C3568 1.414 . S
C3569 C3570 1.374 . S
C3570 H3544 0.950 . S
C3570 C3566 1.385 . S
C3570 C3569 1.374 . S
C3571 C3568 1.499 . S
C3571 C3572 1.373 . S
C3571 C3573 1.389 . S
C3572 H3545 0.950 . S
C3572 C3558 1.377 . S
C3572 C3571 1.373 . S
C3573 C3557 1.377 . S
C3573 C3571 1.389 . S
C3573 C3574 1.524 . S
C3574 C3573 1.524 . S
C3574 C3575 1.397 . S
C3574 C3579 1.363 . S
C3575 H3546 0.950 . S
C3575 C3574 1.397 . S
C3575 C3576 1.334 . S
C3576 H3547 0.950 . S
C3576 C3575 1.334 . S
C3576 C3577 1.287 . S
C3577 C3576 1.287 . S
C3577 C3578 1.524 . S
C3577 H3580 0.999 . S
C3578 H3548 0.950 . S
C3578 C3577 1.524 . S
C3578 C3579 1.415 . S
C3579 H3549 0.950 . S
C3579 C3574 1.363 . S
C3579 C3578 1.415 . S
H3580 C3577 0.999 . S
H3581 C3562 0.913 . S
C901 C528 1.534 . S
C916 C708 1.512 . S
C951 C562 1.557 . S
C966 C728 1.527 . S
C1001 C484 1.563 . S
C1016 C751 1.560 . S
C1051 C445 1.444 . S
C1066 C731 1.439 . S
C1116 C748 1.413 . S
C1101 C367 1.429 . S
C1151 C411 1.410 . S
C1166 C711 1.405 . S
C1216 C718 1.530 . S
C1201 C450 1.545 . S
C1266 C738 1.510 . S
C1251 C372 1.536 . S
C1301 C406 1.562 . S
C1316 C743 1.560 . S
C1351 C523 1.442 . S
C1366 C723 1.439 . S
C1401 C567 1.407 . S
C1416 C758 1.395 . S
C1466 C703 1.424 . S
C1451 C489 1.422 . S
C1516 C768 1.513 . S
C1501 C60 1.534 . S
C1551 C94 1.557 . S
C1566 C788 1.528 . S
C1601 C16 1.563 . S
C1616 C811 1.560 . S
C1651 C679 1.444 . S
C1666 C791 1.439 . S
C1701 C601 1.429 . S
C1716 C808 1.413 . S
C1751 C645 1.410 . S
C1766 C771 1.404 . S
C1801 C684 1.545 . S
C1816 C778 1.530 . S
C1851 C606 1.536 . S
C1866 C798 1.510 . S
C1916 C803 1.559 . S
C1901 C640 1.561 . S
C1951 C55 1.442 . S
C1966 C783 1.438 . S
C2016 C818 1.394 . S
C2001 C99 1.408 . S
C2051 C21 1.422 . S
C2066 C763 1.424 . S
C2116 C828 1.512 . S
C2101 C294 1.534 . S
C2151 C328 1.557 . S
C2166 C848 1.527 . S
C2216 C871 1.560 . S
C2201 C250 1.564 . S
C2266 C851 1.439 . S
C2251 C211 1.444 . S
C2316 C868 1.413 . S
C2301 C133 1.429 . S
C2351 C177 1.410 . S
C2366 C831 1.404 . S
C2401 C216 1.544 . S
C2416 C838 1.530 . S
C2451 C138 1.537 . S
C2466 C858 1.509 . S
C2516 C863 1.560 . S
C2501 C172 1.561 . S
C2551 C289 1.442 . S
C2566 C843 1.438 . S
C2601 C333 1.408 . S
C2616 C878 1.395 . S
C2651 C255 1.422 . S
C2666 C823 1.424 . S
C2701 C586 1.228 . S
C2716 C721 1.202 1_565 S
C2766 C741 1.633 . S
C2751 C625 1.695 . S
C2801 C664 1.488 . S
C2816 C750 1.447 . S
C2851 C235 1.711 . S
C2866 C730 1.639 1_655 S
C2901 C274 1.471 . S
C2916 C761 1.428 . S
C2966 C710 1.201 1_545 S
C2951 C313 1.226 . S
C3001 C118 1.228 . S
C3016 C781 1.202 . S
C3051 C157 1.695 . S
C3066 C801 1.633 . S
C3101 C196 1.488 . S
C3116 C810 1.448 . S
C3151 C469 1.710 . S
C3166 C790 1.652 . S
C3216 C821 1.428 . S
C3201 C508 1.471 . S
C3251 C547 1.226 . S
C3266 C770 1.198 . S
C3301 C352 1.228 . S
C3316 C841 1.202 . S
C3351 C391 1.696 . S
C3366 C861 1.633 . S
C3416 C870 1.447 . S
C3401 C430 1.488 . S
C3451 C1 1.710 . S
C3466 C850 1.652 . S
C3501 C40 1.471 . S
C3516 C881 1.428 . S
C3551 C79 1.226 . S
C3566 C830 1.198 . S
