# Generated by pormake.
# Topology llj, (12,3)-cn, num edge types: 1
# Building blocks:
#     Node 0, Type 0, BuildingBlock: QEWDON_clean_sbu_0, # of connection points: 12
#     Node 1, Type 0, BuildingBlock: QEWDON_clean_sbu_0, # of connection points: 12
#     Node 2, Type 1, BuildingBlock: QEWDON_clean_linker_0, # of connection points: 3
#     Node 3, Type 1, BuildingBlock: QEWDON_clean_linker_0, # of connection points: 3
#     Node 4, Type 1, BuildingBlock: QEWDON_clean_linker_0, # of connection points: 3
#     Node 5, Type 1, BuildingBlock: QEWDON_clean_linker_0, # of connection points: 3
#     Node 6, Type 1, BuildingBlock: QEWDON_clean_linker_0, # of connection points: 3
#     Node 7, Type 1, BuildingBlock: QEWDON_clean_linker_0, # of connection points: 3
#     Node 8, Type 1, BuildingBlock: QEWDON_clean_linker_0, # of connection points: 3
#     Node 9, Type 1, BuildingBlock: QEWDON_clean_linker_0, # of connection points: 3
#     Edge 10, Type (0, 1), BuildingBlock: OJICUG_clean_linker_0, # of connection points: 2
#     Edge 11, Type (0, 1), BuildingBlock: OJICUG_clean_linker_0, # of connection points: 2
#     Edge 12, Type (0, 1), BuildingBlock: OJICUG_clean_linker_0, # of connection points: 2
#     Edge 13, Type (0, 1), BuildingBlock: OJICUG_clean_linker_0, # of connection points: 2
#     Edge 14, Type (0, 1), BuildingBlock: OJICUG_clean_linker_0, # of connection points: 2
#     Edge 15, Type (0, 1), BuildingBlock: OJICUG_clean_linker_0, # of connection points: 2
#     Edge 16, Type (0, 1), BuildingBlock: OJICUG_clean_linker_0, # of connection points: 2
#     Edge 17, Type (0, 1), BuildingBlock: OJICUG_clean_linker_0, # of connection points: 2
#     Edge 18, Type (0, 1), BuildingBlock: OJICUG_clean_linker_0, # of connection points: 2
#     Edge 19, Type (0, 1), BuildingBlock: OJICUG_clean_linker_0, # of connection points: 2
#     Edge 20, Type (0, 1), BuildingBlock: OJICUG_clean_linker_0, # of connection points: 2
#     Edge 21, Type (0, 1), BuildingBlock: OJICUG_clean_linker_0, # of connection points: 2
#     Edge 22, Type (0, 1), BuildingBlock: OJICUG_clean_linker_0, # of connection points: 2
#     Edge 23, Type (0, 1), BuildingBlock: OJICUG_clean_linker_0, # of connection points: 2
#     Edge 24, Type (0, 1), BuildingBlock: OJICUG_clean_linker_0, # of connection points: 2
#     Edge 25, Type (0, 1), BuildingBlock: OJICUG_clean_linker_0, # of connection points: 2
#     Edge 26, Type (0, 1), BuildingBlock: OJICUG_clean_linker_0, # of connection points: 2
#     Edge 27, Type (0, 1), BuildingBlock: OJICUG_clean_linker_0, # of connection points: 2
#     Edge 28, Type (0, 1), BuildingBlock: OJICUG_clean_linker_0, # of connection points: 2
#     Edge 29, Type (0, 1), BuildingBlock: OJICUG_clean_linker_0, # of connection points: 2
#     Edge 30, Type (0, 1), BuildingBlock: OJICUG_clean_linker_0, # of connection points: 2
#     Edge 31, Type (0, 1), BuildingBlock: OJICUG_clean_linker_0, # of connection points: 2
#     Edge 32, Type (0, 1), BuildingBlock: OJICUG_clean_linker_0, # of connection points: 2
#     Edge 33, Type (0, 1), BuildingBlock: OJICUG_clean_linker_0, # of connection points: 2
# Relax obj value: 0.027
# Max RMSD: 0.161
# Mean RMSD: 0.139
data_MOF--net-llj--node1-QEWDON_clean_sbu_0--node2-QEWDON_clean_linker_0--edge1-OJICUG_clean_linker_0
_symmetry_space_group_name_H-M    P1
_symmetry_Int_Tables_number       1
_symmetry_cell_setting            triclinic
loop_
_symmetry_equiv_pos_as_xyz
'x, y, z'
_cell_length_a     32.137485
_cell_length_b     32.068956
_cell_length_c     18.539203
_cell_angle_alpha  91.461194
_cell_angle_beta   91.367992
_cell_angle_gamma 90.33383
loop_
_atom_site_label
_atom_site_type_symbol
_atom_site_fract_x
_atom_site_fract_y
_atom_site_fract_z
_atom_type_partial_charge
Zn0 Zn 0.94557 0.07949 0.93705 0.0
Zn1 Zn 0.94381 0.08558 0.1084 0.0
O2 O 0.98004 0.06898 0.0271 0.0
H3 H 0.99986 0.04655 0.02937 0.0
C4 C 0.84569 0.03014 0.85139 0.0
O5 O 0.84205 0.053 0.91068 0.0
Zn6 Zn 0.05888 0.92449 0.10036 0.0
Zn7 Zn 0.05349 0.93263 0.93272 0.0
O8 O 0.02007 0.94178 0.02161 0.0
H9 H 0.00116 0.9649 0.02664 0.0
Zn10 Zn 0.8596 0.96495 0.95686 0.0
O11 O 0.91197 0.97889 0.01556 0.0
Zn12 Zn 0.90966 0.94208 0.10058 0.0
H13 H 0.93456 0.99667 0.00142 0.0
Zn14 Zn 0.09472 0.07175 0.93301 0.0
O15 O 0.08186 0.03482 0.01592 0.0
H16 H 0.06483 0.01001 0.01085 0.0
Zn17 Zn 0.09302 0.06938 0.10474 0.0
C18 C 0.11128 0.00154 0.83703 0.0
O19 O 0.11663 0.98393 0.89972 0.0
O20 O 0.90108 0.12425 0.95487 0.0
O21 O 0.90099 0.12867 0.07495 0.0
O22 O 0.096 0.88556 0.94528 0.0
O23 O 0.09814 0.87861 0.06442 0.0
O24 O 0.83503 0.90659 0.97596 0.0
O25 O 0.87129 0.89261 0.07616 0.0
C26 C 0.0195 0.10756 0.19 0.0
O27 O 0.13601 0.11888 0.96296 0.0
O28 O 0.13506 0.11537 0.08292 0.0
O29 O 0.02017 0.93418 0.83624 0.0
C30 C 0.88758 0.14047 0.01326 0.0
O31 O 0.97898 0.08247 0.84308 0.0
C32 C 0.98551 0.90963 0.1817 0.0
O33 O 0.85264 0.99132 0.85633 0.0
C34 C 0.10967 0.86735 0.00132 0.0
O35 O 0.10218 0.04005 0.8355 0.0
C36 C 0.89999 0.01472 0.18996 0.0
O37 O 0.97996 0.11021 0.18996 0.0
O38 O 0.03627 0.0904 0.13528 0.0
C39 C 0.8442 0.88229 0.0273 0.0
O40 O 0.02489 0.90564 0.18357 0.0
O41 O 0.96805 0.9229 0.12443 0.0
C42 C 0.10781 0.99388 0.18281 0.0
O43 O 0.89068 0.97609 0.18589 0.0
O44 O 0.91791 0.03079 0.13679 0.0
C45 C 0.14885 0.13134 0.02554 0.0
O46 O 0.11627 0.03262 0.18268 0.0
O47 O 0.08818 0.97803 0.12851 0.0
C48 C 0.98062 0.93273 0.83659 0.0
O49 O 0.96179 0.93131 0.89858 0.0
C50 C 0.01146 0.1053 0.846 0.0
O51 O 0.02133 0.12531 0.90683 0.0
Zn52 Zn 0.43999 0.59599 0.41937 0.0
Zn53 Zn 0.44046 0.58591 0.59133 0.0
O54 O 0.47331 0.57313 0.50387 0.0
H55 H 0.49318 0.55077 0.49974 0.0
C56 C 0.34887 0.52449 0.33396 0.0
O57 O 0.3529 0.54736 0.39356 0.0
Zn58 Zn 0.5563 0.42317 0.58479 0.0
Zn59 Zn 0.55124 0.42987 0.41713 0.0
O60 O 0.51789 0.44063 0.50571 0.0
H61 H 0.49908 0.46389 0.51008 0.0
Zn62 Zn 0.35805 0.45783 0.43735 0.0
O63 O 0.40874 0.4759 0.49767 0.0
Zn64 Zn 0.40725 0.44042 0.58413 0.0
H65 H 0.4306 0.49466 0.48379 0.0
Zn66 Zn 0.60822 0.55986 0.41934 0.0
O67 O 0.58234 0.53016 0.50094 0.0
H68 H 0.55979 0.51043 0.49344 0.0
Zn69 Zn 0.59258 0.56602 0.58891 0.0
C70 C 0.62509 0.48676 0.32509 0.0
O71 O 0.62731 0.4675 0.38673 0.0
O72 O 0.39415 0.6371 0.44978 0.0
O73 O 0.39672 0.63027 0.56901 0.0
O74 O 0.59248 0.38163 0.43036 0.0
O75 O 0.59479 0.3766 0.54988 0.0
O76 O 0.33417 0.39927 0.45951 0.0
O77 O 0.36929 0.39025 0.56272 0.0
C78 C 0.51861 0.60464 0.67089 0.0
O79 O 0.6475 0.6082 0.45102 0.0
O80 O 0.63574 0.61175 0.56904 0.0
O81 O 0.51759 0.43157 0.32119 0.0
C82 C 0.38164 0.64722 0.51252 0.0
O83 O 0.47254 0.60906 0.32718 0.0
C84 C 0.48309 0.40966 0.6662 0.0
O85 O 0.34929 0.48495 0.33783 0.0
C86 C 0.6059 0.36408 0.48724 0.0
O87 O 0.61804 0.52571 0.32519 0.0
C88 C 0.39785 0.51402 0.67252 0.0
O89 O 0.47915 0.60812 0.67088 0.0
O90 O 0.53525 0.58747 0.61599 0.0
C91 C 0.3431 0.37733 0.51416 0.0
O92 O 0.52242 0.40551 0.66861 0.0
O93 O 0.46579 0.42191 0.60808 0.0
C94 C 0.60502 0.49132 0.66817 0.0
O95 O 0.38869 0.47535 0.66847 0.0
O96 O 0.41546 0.5303 0.61908 0.0
C97 C 0.65455 0.62455 0.51357 0.0
O98 O 0.61418 0.52988 0.66919 0.0
O99 O 0.5861 0.47618 0.61261 0.0
C100 C 0.47811 0.42898 0.32219 0.0
O101 O 0.45972 0.42608 0.38438 0.0
C102 C 0.51209 0.60993 0.33043 0.0
O103 O 0.53129 0.60226 0.39198 0.0
H104 H 0.36823 0.3285 0.11231 0.0
C105 C 0.37374 0.34213 0.06044 0.0
C106 C 0.39296 0.38147 0.05719 0.0
C107 C 0.36622 0.31792 -0.00254 0.0
H108 H 0.41659 0.42789 0.9867 0.0
C109 C 0.40207 0.39739 0.98955 0.0
C110 C 0.39651 0.37277 0.92633 0.0
C111 C 0.37783 0.33316 0.93056 0.0
C112 C 0.35526 0.27356 0.00411 0.0
H113 H 0.37518 0.31289 0.88295 0.0
C114 C 0.31375 0.26062 0.01137 0.0
C115 C 0.30466 0.21847 0.02381 0.0
C116 C 0.38741 0.24424 0.00809 0.0
H117 H 0.41956 0.25388 0.00299 0.0
C118 C 0.37841 0.20246 0.02021 0.0
H119 H 0.28884 0.28321 0.00851 0.0
C120 C 0.3373 0.18962 0.02848 0.0
H121 H 0.33088 0.15698 0.03749 0.0
H122 H 0.40335 0.18001 0.02355 0.0
H123 H 0.71467 0.3727 0.09791 0.0
C124 C 0.69642 0.37891 0.04948 0.0
C125 C 0.65945 0.40197 0.05421 0.0
C126 C 0.71248 0.36807 0.98186 0.0
H127 H 0.60911 0.42969 -0.00635 0.0
C128 C 0.63761 0.41188 0.99046 0.0
C129 C 0.654 0.40244 0.92255 0.0
C130 C 0.69115 0.3798 0.91865 0.0
C131 C 0.75556 0.35292 0.97716 0.0
H132 H 0.70528 0.37416 0.86679 0.0
C133 C 0.76591 0.31142 0.99217 0.0
C134 C 0.80724 0.298 0.98529 0.0
C135 C 0.78674 0.38082 0.95679 0.0
H136 H 0.77923 0.41293 0.94538 0.0
C137 C 0.82779 0.3676 0.9512 0.0
H138 H 0.74194 0.28961 0.00731 0.0
C139 C 0.83802 0.32635 0.96504 0.0
H140 H 0.86997 0.31637 0.95938 0.0
H141 H 0.85167 0.38928 0.93553 0.0
H142 H 0.66761 0.65952 0.8982 0.0
C143 C 0.65028 0.65329 0.94618 0.0
C144 C 0.60842 0.64023 0.94083 0.0
C145 C 0.67033 0.65812 0.01381 0.0
H146 H 0.55618 0.61905 0.00128 0.0
C147 C 0.58735 0.63198 0.00475 0.0
C148 C 0.60633 0.63905 0.07314 0.0
C149 C 0.6482 0.65203 0.07686 0.0
C150 C 0.7153 0.66682 0.01896 0.0
H151 H 0.66396 0.65748 0.12857 0.0
C152 C 0.73052 0.70791 0.01859 0.0
C153 C 0.77351 0.71589 0.02708 0.0
C154 C 0.74305 0.6336 0.02686 0.0
H155 H 0.73163 0.60175 0.02744 0.0
C156 C 0.78571 0.64128 0.03439 0.0
H157 H 0.70887 0.73353 0.01357 0.0
C158 C 0.80092 0.68214 0.03472 0.0
H159 H 0.83419 0.68733 0.04042 0.0
H160 H 0.80703 0.61552 0.04029 0.0
H161 H 0.26849 0.63129 0.08681 0.0
C162 C 0.28934 0.62412 0.04312 0.0
C163 C 0.32513 0.60011 0.05603 0.0
C164 C 0.27801 0.63502 0.97253 0.0
H165 H 0.37782 0.57004 0.00757 0.0
C166 C 0.3504 0.58883 -0.00206 0.0
C167 C 0.33926 0.59934 0.92703 0.0
C168 C 0.3033 0.62299 0.91504 0.0
C169 C 0.2361 0.65139 0.95625 0.0
H170 H 0.2931 0.62941 0.86027 0.0
C171 C 0.22483 0.6924 0.97599 0.0
C172 C 0.18568 0.70778 0.9542 0.0
C173 C 0.20755 0.62565 0.91732 0.0
H174 H 0.21571 0.59395 0.902 0.0
C175 C 0.16844 0.64057 0.89745 0.0
H176 H 0.24687 0.7126 0.00529 0.0
C177 C 0.15763 0.68149 0.91521 0.0
H178 H 0.1273 0.69277 0.89829 0.0
H179 H 0.14664 0.62054 0.86738 0.0
H180 H 0.87121 0.83 0.62993 0.0
C181 C 0.87658 0.84292 0.57744 0.0
C182 C 0.89604 0.88203 0.57264 0.0
C183 C 0.86848 0.81802 0.51537 0.0
H184 H 0.9201 0.9272 0.50038 0.0
C185 C 0.90514 0.89698 0.50438 0.0
C186 C 0.89906 0.87173 0.442 0.0
C187 C 0.87981 0.83244 0.44764 0.0
C188 C 0.85777 0.77372 0.52432 0.0
H189 H 0.8768 0.81172 0.40065 0.0
C190 C 0.81626 0.75948 0.52083 0.0
C191 C 0.80699 0.71784 0.5373 0.0
C192 C 0.8898 0.74604 0.54246 0.0
H193 H 0.92188 0.75667 0.54575 0.0
C194 C 0.88067 0.70473 0.55787 0.0
H195 H 0.79138 0.7808 0.50736 0.0
C196 C 0.83951 0.69073 0.55586 0.0
H197 H 0.83303 0.65851 0.56809 0.0
H198 H 0.90552 0.6836 0.57204 0.0
H199 H 0.2022 0.88219 0.62932 0.0
C200 C 0.18664 0.88723 0.57775 0.0
C201 C 0.1498 0.91046 0.57497 0.0
C202 C 0.20631 0.87464 0.51414 0.0
H203 H 0.10351 0.93754 0.50495 0.0
C204 C 0.13167 0.9191 0.50754 0.0
C205 C 0.15163 0.90792 0.44339 0.0
C206 C 0.18864 0.88481 0.44688 0.0
C207 C 0.24974 0.86043 0.51962 0.0
H208 H 0.2056 0.87816 0.39809 0.0
C209 C 0.25989 0.81783 0.51703 0.0
C210 C 0.30126 0.80547 0.53041 0.0
C211 C 0.28113 0.89038 0.53365 0.0
H212 H 0.27366 0.92329 0.53623 0.0
C213 C 0.32215 0.87812 0.54591 0.0
H214 H 0.23572 0.79456 0.50685 0.0
C215 C 0.33218 0.8359 0.54485 0.0
H216 H 0.36422 0.82692 0.55481 0.0
H217 H 0.34616 0.90138 0.55698 0.0
H218 H 0.16871 0.16017 0.41939 0.0
C219 C 0.15176 0.15139 0.46654 0.0
C220 C 0.10952 0.13965 0.46022 0.0
C221 C 0.17274 0.15115 0.5337 0.0
H222 H 0.05587 0.12044 0.51942 0.0
C223 C 0.08837 0.12934 0.52317 0.0
C224 C 0.10867 0.13037 0.5912 0.0
C225 C 0.15124 0.14049 0.59554 0.0
C226 C 0.21767 0.16061 0.53947 0.0
H227 H 0.16788 0.14013 0.64708 0.0
C228 C 0.23265 0.20116 0.52839 0.0
C229 C 0.27529 0.2105 0.5387 0.0
C230 C 0.24552 0.12915 0.5592 0.0
H231 H 0.23439 0.09778 0.56806 0.0
C232 C 0.28793 0.13795 0.56749 0.0
H233 H 0.21092 0.22563 0.51476 0.0
C234 C 0.30278 0.17833 0.55761 0.0
H235 H 0.33582 0.18442 0.56483 0.0
H236 H 0.30932 0.11349 0.58231 0.0
H237 H 0.76415 0.12988 0.59675 0.0
C238 C 0.78601 0.12344 0.55429 0.0
C239 C 0.82286 0.10147 0.56946 0.0
C240 C 0.77521 0.13337 0.48304 0.0
H241 H 0.8778 0.074 0.52373 0.0
C242 C 0.84948 0.09115 0.51266 0.0
C243 C 0.83867 0.10045 0.44105 0.0
C244 C 0.80176 0.12219 0.42696 0.0
C245 C 0.73293 0.14787 0.46456 0.0
H246 H 0.79193 0.12766 0.37165 0.0
C247 C 0.72077 0.18929 0.47857 0.0
C248 C 0.68149 0.20296 0.45402 0.0
C249 C 0.70521 0.12002 0.42844 0.0
H250 H 0.71417 0.08801 0.4173 0.0
C251 C 0.66595 0.13329 0.40576 0.0
H252 H 0.74227 0.21105 0.5056 0.0
C253 C 0.65421 0.17458 0.41791 0.0
H254 H 0.62374 0.18446 0.39906 0.0
H255 H 0.64476 0.11166 0.37788 0.0
C256 C 0.1953 0.18464 0.97138 0.0
C257 C 0.18453 0.16076 0.03089 0.0
H258 H 0.24188 0.22258 0.92337 0.0
C259 C 0.21134 0.16101 0.09196 0.0
H260 H 0.17521 0.1852 0.92365 0.0
C261 C 0.24963 0.18182 0.09113 0.0
C262 C 0.26137 0.20353 0.02998 0.0
H263 H 0.20404 0.14289 0.13858 0.0
H264 H 0.2709 0.17951 0.13708 0.0
C265 C 0.2333 0.20615 0.9712 0.0
C266 C 0.85042 0.20138 0.07025 0.0
C267 C 0.85944 0.17688 0.0085 0.0
H268 H 0.82613 0.25948 0.11107 0.0
C269 C 0.84528 0.19029 0.94053 0.0
H270 H 0.86083 0.19202 0.12339 0.0
C271 C 0.8254 0.22862 0.93387 0.0
C272 C 0.81898 0.25414 -0.00505 0.0
H273 H 0.8515 0.17228 0.89183 0.0
H274 H 0.81705 0.23938 0.88054 0.0
C275 C 0.83046 0.23986 0.06342 0.0
C276 C 0.83723 0.81184 0.08121 0.0
C277 C 0.82434 0.84051 0.02916 0.0
H278 H 0.83105 0.75025 0.12153 0.0
C279 C 0.79338 0.82829 0.97785 0.0
H280 H 0.86087 0.82016 0.12174 0.0
C281 C 0.77625 0.78808 0.97791 0.0
C282 C 0.78996 0.75921 0.02888 0.0
H283 H 0.78269 0.84958 0.93706 0.0
H284 H 0.75303 0.77924 0.93693 0.0
C285 C 0.82032 0.77166 0.08091 0.0
C286 C 0.14519 0.81555 0.92118 0.0
C287 C 0.13593 0.82981 0.99138 0.0
H288 H 0.16841 0.76564 0.85499 0.0
C289 C 0.14851 0.80562 0.05033 0.0
H290 H 0.1364 0.83338 0.87443 0.0
C291 C 0.16746 0.7668 0.03881 0.0
C292 C 0.17378 0.75159 0.96829 0.0
H293 H 0.14205 0.81576 0.10508 0.0
H294 H 0.17497 0.74769 0.08462 0.0
C295 C 0.16361 0.77677 0.90983 0.0
C296 C 0.7099 0.66051 0.58985 0.0
C297 C 0.68889 0.6554 0.5228 0.0
H298 H 0.76424 0.68439 0.64666 0.0
C299 C 0.7043 0.67611 0.46281 0.0
H300 H 0.69894 0.64494 0.63705 0.0
C301 C 0.74133 0.69928 0.46878 0.0
C302 C 0.76385 0.70155 0.5345 0.0
H303 H 0.6887 0.67295 0.4105 0.0
H304 H 0.75369 0.71317 0.42106 0.0
C305 C 0.74728 0.68299 0.59542 0.0
C306 C 0.35126 0.70517 0.58683 0.0
C307 C 0.35327 0.68323 0.52037 0.0
H308 H 0.33304 0.76159 0.6417 0.0
C309 C 0.33221 0.69923 0.45969 0.0
H310 H 0.36704 0.69376 0.63463 0.0
C311 C 0.31216 0.7378 0.46427 0.0
C312 C 0.31331 0.76112 0.5293 0.0
H313 H 0.33293 0.68293 0.40783 0.0
H314 H 0.2982 0.75064 0.41598 0.0
C315 C 0.33184 0.74398 0.59101 0.0
C316 C 0.33579 0.31037 0.57935 0.0
C317 C 0.32406 0.33538 0.52111 0.0
H318 H 0.32935 0.25185 0.63069 0.0
C319 C 0.29502 0.31935 0.46939 0.0
H320 H 0.35787 0.32161 0.6205 0.0
C321 C 0.27861 0.27902 0.47538 0.0
C322 C 0.29117 0.25385 0.53286 0.0
H323 H 0.28526 0.33775 0.42389 0.0
H324 H 0.25681 0.2672 0.43422 0.0
C325 C 0.31962 0.27018 0.58505 0.0
C326 C 0.6377 0.30825 0.41027 0.0
C327 C 0.63139 0.3259 0.47937 0.0
H328 H 0.65861 0.2554 0.34859 0.0
C329 C 0.64638 0.30464 0.54017 0.0
H330 H 0.62691 0.32376 0.36214 0.0
C331 C 0.66511 0.26549 0.532 0.0
C332 C 0.66866 0.2469 0.46309 0.0
H333 H 0.64225 0.31748 0.59411 0.0
H334 H 0.67479 0.24882 0.57959 0.0
C335 C 0.65583 0.26907 0.40232 0.0
C336 C 0.02296 0.13568 0.31694 0.0
C337 C 0.04381 0.12052 0.25593 0.0
H338 H 0.02726 0.15579 0.42729 0.0
C339 C 0.08723 0.1165 0.2604 0.0
H340 H 0.98959 0.14035 0.31523 0.0
C341 C 0.10882 0.12353 0.32604 0.0
C342 C 0.08761 0.13645 0.38828 0.0
H343 H 0.10457 0.10713 0.21382 0.0
H344 H 0.14189 0.11738 0.32816 0.0
C345 C 0.04461 0.14406 0.38184 0.0
C346 C 0.88549 0.01759 0.32084 0.0
C347 C 0.89056 0.03885 0.25628 0.0
H348 H 0.86555 0.02049 0.42969 0.0
C349 C 0.88342 0.08198 0.25537 0.0
H350 H 0.89126 0.98438 0.32341 0.0
C351 C 0.86863 0.10288 0.31681 0.0
C352 C 0.86138 0.081 0.38023 0.0
H353 H 0.88715 0.09907 0.20638 0.0
H354 H 0.86149 0.13577 0.31402 0.0
C355 C 0.87121 0.03842 0.38212 0.0
C356 C 0.98152 0.90801 0.3152 0.0
C357 C 0.96189 0.90185 0.24737 0.0
H358 H 0.97721 0.90315 0.4292 0.0
C359 C 0.92084 0.88659 0.24361 0.0
H360 H 0.01327 0.91953 0.31985 0.0
C361 C 0.89981 0.87736 0.30661 0.0
C362 C 0.91956 0.88348 0.37448 0.0
H363 H 0.90554 0.88046 0.19213 0.0
H364 H 0.86833 0.86514 0.30227 0.0
C365 C 0.96063 0.89901 0.37793 0.0
C366 C 0.12256 0.99233 0.31439 0.0
C367 C 0.11726 0.97025 0.24844 0.0
H368 H 0.13751 0.98987 0.42674 0.0
C369 C 0.12223 0.92669 0.24672 0.0
H370 H 0.1188 0.02587 0.31772 0.0
C371 C 0.13326 0.90582 0.31 0.0
C372 C 0.13856 0.92825 0.37576 0.0
H373 H 0.11861 0.90901 0.19649 0.0
H374 H 0.13763 0.87235 0.30766 0.0
C375 C 0.13294 0.97163 0.37713 0.0
C376 C 0.12574 0.93424 0.77092 0.0
C377 C 0.11748 0.97724 0.76941 0.0
H378 H 0.14166 0.87903 0.71024 0.0
C379 C 0.11667 0.99712 0.70286 0.0
H380 H 0.12638 0.91795 0.82135 0.0
C381 C 0.1253 0.97487 0.63945 0.0
C382 C 0.13497 0.93215 0.64109 0.0
H383 H 0.11083 0.03023 0.69997 0.0
H384 H 0.12629 0.9917 0.58958 0.0
C385 C 0.13446 0.91191 0.70736 0.0
C386 C 0.02927 0.08624 0.71841 0.0
C387 C 0.03724 0.11028 0.7817 0.0
H388 H 0.04625 0.07264 0.60957 0.0
C389 C 0.06992 0.13959 0.7829 0.0
H390 H 0.00467 0.06297 0.71608 0.0
C391 C 0.0934 0.14557 0.72156 0.0
C392 C 0.08506 0.12211 0.65764 0.0
H393 H 0.07695 0.15856 0.83087 0.0
H394 H 0.11739 0.16946 0.72382 0.0
C395 C 0.05296 0.09202 0.65715 0.0
C396 C 0.82893 0.09091 0.77326 0.0
C397 C 0.8413 0.04914 0.7797 0.0
H398 H 0.81371 0.14045 0.70175 0.0
C399 C 0.84895 0.02538 0.71678 0.0
H400 H 0.82278 0.11003 0.82074 0.0
C401 C 0.84374 0.04274 0.64894 0.0
C402 C 0.83079 0.08433 0.64224 0.0
H403 H 0.85857 0.99315 0.71976 0.0
H404 H 0.84882 0.0231 0.6016 0.0
C405 C 0.82357 0.1083 0.70517 0.0
C406 C 0.91426 0.91575 0.7682 0.0
C407 C 0.95665 0.92692 0.76813 0.0
H408 H 0.86132 0.89342 0.70573 0.0
C409 C 0.97695 0.92874 0.70211 0.0
H410 H 0.89766 0.91439 0.81826 0.0
C411 C 0.9562 0.91672 0.63802 0.0
C412 C 0.91462 0.90272 0.63843 0.0
H413 H 0.00951 0.93754 0.70017 0.0
H414 H 0.97373 0.9159 0.58883 0.0
C415 C 0.89345 0.90363 0.70388 0.0
C416 C 0.58634 0.61381 0.7417 0.0
C417 C 0.54286 0.61715 0.73716 0.0
H418 H 0.64108 0.61611 0.80931 0.0
C419 C 0.52176 0.63183 0.79822 0.0
H420 H 0.60385 0.60495 0.69513 0.0
C421 C 0.54329 0.64087 0.8629 0.0
C422 C 0.58648 0.63434 0.86931 0.0
H423 H 0.48832 0.63597 0.79661 0.0
H424 H 0.52572 0.65261 0.9081 0.0
C425 C 0.60786 0.6214 0.80728 0.0
C426 C 0.38241 0.58114 0.73987 0.0
C427 C 0.3886 0.53785 0.73942 0.0
H428 H 0.36204 0.63499 0.80021 0.0
C429 C 0.38298 0.51614 0.8034 0.0
H430 H 0.38658 0.59862 0.69157 0.0
C431 C 0.36925 0.53674 0.86533 0.0
C432 C 0.3606 0.57962 0.86484 0.0
H433 H 0.388 0.48278 0.80512 0.0
H434 H 0.36327 0.5185 0.91241 0.0
C435 C 0.36823 0.60186 0.80197 0.0
C436 C 0.41867 0.38665 0.72816 0.0
C437 C 0.45926 0.40295 0.73192 0.0
H438 H 0.3664 0.36474 0.78662 0.0
C439 C 0.47827 0.41091 0.79977 0.0
H440 H 0.404 0.37903 0.67678 0.0
C441 C 0.45726 0.40232 0.8626 0.0
C442 C 0.41671 0.38544 0.85907 0.0
H443 H 0.50971 0.42329 0.80434 0.0
H444 H 0.47349 0.40753 0.91394 0.0
C445 C 0.39748 0.37796 0.79112 0.0
C446 C 0.61699 0.48762 0.80046 0.0
C447 C 0.61351 0.46678 0.73307 0.0
H448 H 0.63225 0.4836 0.91253 0.0
C449 C 0.62048 0.42359 0.72879 0.0
H450 H 0.61159 0.52088 0.80556 0.0
C451 C 0.63249 0.40199 0.79067 0.0
C452 C 0.63695 0.42322 0.85776 0.0
H453 H 0.61829 0.4069 0.67743 0.0
H454 H 0.63898 0.36894 0.78593 0.0
C455 C 0.62841 0.46612 0.862 0.0
C456 C 0.64214 0.42131 0.25454 0.0
C457 C 0.63165 0.46386 0.25611 0.0
H458 H 0.6588 0.36802 0.18917 0.0
C459 C 0.62831 0.48495 0.19082 0.0
H460 H 0.64478 0.40415 0.30399 0.0
C461 C 0.63629 0.46438 0.12563 0.0
C462 C 0.64763 0.42206 0.12379 0.0
H463 H 0.62024 0.5177 0.18998 0.0
H464 H 0.63489 0.48219 0.07676 0.0
C465 C 0.65023 0.40063 0.18893 0.0
C466 C 0.51631 0.63235 0.20238 0.0
C467 C 0.53624 0.61857 0.2655 0.0
H468 H 0.52271 0.6515 0.09391 0.0
C469 C 0.57951 0.61278 0.26585 0.0
H470 H 0.48306 0.63778 0.20064 0.0
C471 C 0.60217 0.61885 0.20361 0.0
C472 C 0.58234 0.63246 0.13999 0.0
H473 H 0.59591 0.60306 0.31405 0.0
H474 H 0.63515 0.61223 0.20548 0.0
C475 C 0.53913 0.63977 0.14076 0.0
C476 C 0.3466 0.52038 0.19912 0.0
C477 C 0.34391 0.54442 0.26319 0.0
H478 H 0.34281 0.51918 0.08389 0.0
C479 C 0.33617 0.58745 0.25882 0.0
H480 H 0.35264 0.48722 0.20054 0.0
C481 C 0.3304 0.60584 0.19163 0.0
C482 C 0.33293 0.58165 0.12766 0.0
H483 H 0.33401 0.60683 0.30729 0.0
H484 H 0.32404 0.63893 0.18963 0.0
C485 C 0.34131 0.53879 0.1322 0.0
C486 C 0.47373 0.42721 0.18779 0.0
C487 C 0.45384 0.42385 0.25393 0.0
H488 H 0.47016 0.41636 0.07408 0.0
C489 C 0.41164 0.41198 0.25408 0.0
H490 H 0.50613 0.43657 0.1858 0.0
C491 C 0.39066 0.40074 0.18949 0.0
C492 C 0.41147 0.40137 0.12373 0.0
H493 H 0.39537 0.40942 0.30428 0.0
H494 H 0.35869 0.39 0.19129 0.0
C495 C 0.45283 0.41604 0.12347 0.0
loop_
_geom_bond_atom_site_label_1
_geom_bond_atom_site_label_2
_geom_bond_distance
_geom_bond_site_symmetry_2
_ccdc_geom_bond_type
Zn0 O2 1.933 1_556 S
Zn0 O20 1.985 . S
Zn0 O31 1.955 . S
Zn1 O2 1.911 . S
Zn1 O21 1.970 . S
Zn1 O37 1.945 . S
Zn1 O44 1.981 . S
O2 Zn0 1.933 1_554 S
O2 Zn1 1.911 . S
O2 H3 0.841 1_655 S
H3 O2 0.841 1_455 S
C4 O5 1.246 . S
C4 O33 1.276 1_545 S
O5 C4 1.246 . S
Zn6 O8 1.911 . S
Zn6 O23 1.970 . S
Zn6 O40 1.945 . S
Zn6 O47 1.981 . S
Zn7 O8 1.933 1_556 S
Zn7 O22 1.985 . S
Zn7 O29 1.955 . S
O8 Zn6 1.911 . S
O8 Zn7 1.933 1_554 S
O8 H9 0.841 1_455 S
H9 O8 0.841 1_655 S
Zn10 O11 1.933 1_556 S
Zn10 O24 1.985 . S
Zn10 O33 1.955 . S
O11 Zn10 1.933 1_554 S
O11 Zn12 1.911 . S
O11 H13 0.841 1_565 S
Zn12 O11 1.911 . S
Zn12 O25 1.970 . S
Zn12 O41 1.981 . S
Zn12 O43 1.945 . S
H13 O11 0.841 1_545 S
Zn14 O15 1.933 1_556 S
Zn14 O27 1.985 . S
Zn14 O35 1.955 . S
O15 Zn14 1.933 1_554 S
O15 H16 0.841 1_545 S
O15 Zn17 1.911 . S
H16 O15 0.841 1_565 S
Zn17 O15 1.911 . S
Zn17 O28 1.970 . S
Zn17 O38 1.981 . S
Zn17 O46 1.945 . S
C18 O19 1.246 . S
C18 O35 1.276 1_565 S
O19 C18 1.246 . S
O20 Zn0 1.985 . S
O20 C30 1.245 1_556 S
O21 Zn1 1.970 . S
O21 C30 1.263 . S
O22 Zn7 1.985 . S
O22 C34 1.245 1_556 S
O23 Zn6 1.970 . S
O23 C34 1.263 . S
O24 Zn10 1.985 . S
O24 C39 1.245 1_556 S
O25 Zn12 1.970 . S
O25 C39 1.263 . S
C26 O37 1.262 1_455 S
C26 O38 1.245 . S
O27 Zn14 1.985 . S
O27 C45 1.245 1_556 S
O28 Zn17 1.970 . S
O28 C45 1.263 . S
O29 Zn7 1.955 . S
O29 C48 1.276 1_455 S
C30 O20 1.245 1_554 S
C30 O21 1.263 . S
O31 Zn0 1.955 . S
O31 C50 1.276 1_655 S
C32 O40 1.262 1_655 S
C32 O41 1.245 . S
O33 C4 1.276 1_565 S
O33 Zn10 1.955 . S
C34 O22 1.245 1_554 S
C34 O23 1.263 . S
O35 Zn14 1.955 . S
O35 C18 1.276 1_545 S
C36 O43 1.262 1_545 S
C36 O44 1.245 . S
O37 Zn1 1.945 . S
O37 C26 1.262 1_655 S
O38 Zn17 1.981 . S
O38 C26 1.245 . S
C39 O24 1.245 1_554 S
C39 O25 1.263 . S
O40 Zn6 1.945 . S
O40 C32 1.262 1_455 S
O41 Zn12 1.981 . S
O41 C32 1.245 . S
C42 O46 1.262 1_565 S
C42 O47 1.245 . S
O43 Zn12 1.945 . S
O43 C36 1.262 1_565 S
O44 Zn1 1.981 . S
O44 C36 1.245 . S
C45 O27 1.245 1_554 S
C45 O28 1.263 . S
O46 Zn17 1.945 . S
O46 C42 1.262 1_545 S
O47 Zn6 1.981 . S
O47 C42 1.245 . S
C48 O29 1.276 1_655 S
C48 O49 1.246 . S
O49 C48 1.246 . S
C50 O31 1.276 1_455 S
C50 O51 1.246 . S
O51 C50 1.246 . S
Zn52 O54 1.933 . S
Zn52 O72 1.985 . S
Zn52 O83 1.955 . S
Zn53 O54 1.911 . S
Zn53 O73 1.970 . S
Zn53 O89 1.945 . S
Zn53 O96 1.981 . S
O54 Zn52 1.933 . S
O54 Zn53 1.911 . S
O54 H55 0.841 . S
H55 O54 0.841 . S
C56 O57 1.246 . S
C56 O85 1.276 . S
O57 C56 1.246 . S
Zn58 O60 1.911 . S
Zn58 O75 1.970 . S
Zn58 O92 1.945 . S
Zn58 O99 1.981 . S
Zn59 O60 1.933 . S
Zn59 O74 1.985 . S
Zn59 O81 1.955 . S
O60 Zn58 1.911 . S
O60 Zn59 1.933 . S
O60 H61 0.841 . S
H61 O60 0.841 . S
Zn62 O63 1.933 . S
Zn62 O76 1.985 . S
Zn62 O85 1.955 . S
O63 Zn62 1.933 . S
O63 Zn64 1.911 . S
O63 H65 0.841 . S
Zn64 O63 1.911 . S
Zn64 O77 1.970 . S
Zn64 O93 1.981 . S
Zn64 O95 1.945 . S
H65 O63 0.841 . S
Zn66 O67 1.933 . S
Zn66 O79 1.985 . S
Zn66 O87 1.955 . S
O67 Zn66 1.933 . S
O67 H68 0.841 . S
O67 Zn69 1.911 . S
H68 O67 0.841 . S
Zn69 O67 1.911 . S
Zn69 O80 1.970 . S
Zn69 O90 1.981 . S
Zn69 O98 1.945 . S
C70 O71 1.246 . S
C70 O87 1.276 . S
O71 C70 1.246 . S
O72 Zn52 1.985 . S
O72 C82 1.245 . S
O73 Zn53 1.970 . S
O73 C82 1.263 . S
O74 Zn59 1.985 . S
O74 C86 1.245 . S
O75 Zn58 1.970 . S
O75 C86 1.263 . S
O76 Zn62 1.985 . S
O76 C91 1.245 . S
O77 Zn64 1.970 . S
O77 C91 1.263 . S
C78 O89 1.262 . S
C78 O90 1.245 . S
O79 Zn66 1.985 . S
O79 C97 1.245 . S
O80 Zn69 1.970 . S
O80 C97 1.263 . S
O81 Zn59 1.955 . S
O81 C100 1.276 . S
C82 O72 1.245 . S
C82 O73 1.263 . S
O83 Zn52 1.955 . S
O83 C102 1.276 . S
C84 O92 1.262 . S
C84 O93 1.245 . S
O85 C56 1.276 . S
O85 Zn62 1.955 . S
C86 O74 1.245 . S
C86 O75 1.263 . S
O87 Zn66 1.955 . S
O87 C70 1.276 . S
C88 O95 1.262 . S
C88 O96 1.245 . S
O89 Zn53 1.945 . S
O89 C78 1.262 . S
O90 Zn69 1.981 . S
O90 C78 1.245 . S
C91 O76 1.245 . S
C91 O77 1.263 . S
O92 Zn58 1.945 . S
O92 C84 1.262 . S
O93 Zn64 1.981 . S
O93 C84 1.245 . S
C94 O98 1.262 . S
C94 O99 1.245 . S
O95 Zn64 1.945 . S
O95 C88 1.262 . S
O96 Zn53 1.981 . S
O96 C88 1.245 . S
C97 O79 1.245 . S
C97 O80 1.263 . S
O98 Zn69 1.945 . S
O98 C94 1.262 . S
O99 Zn58 1.981 . S
O99 C94 1.245 . S
C100 O81 1.276 . S
C100 O101 1.246 . S
O101 C100 1.246 . S
C102 O83 1.276 . S
C102 O103 1.246 . S
O103 C102 1.246 . S
H104 C105 0.949 . S
C105 H104 0.949 . S
C105 C106 1.395 . S
C105 C107 1.391 1_554 S
C106 C105 1.395 . S
C106 C109 1.390 . S
C107 C105 1.391 1_556 S
C107 C111 1.387 . S
C107 C112 1.491 . S
H108 C109 0.950 . S
C109 C106 1.390 . S
C109 H108 0.950 . S
C109 C110 1.378 1_554 S
C110 C109 1.378 1_556 S
C110 C111 1.409 . S
C111 C107 1.387 . S
C111 C110 1.409 . S
C111 H113 0.951 . S
C112 C107 1.491 . S
C112 C114 1.382 1_556 S
C112 C116 1.404 . S
H113 C111 0.951 . S
C114 C112 1.382 1_554 S
C114 C115 1.390 . S
C114 H119 0.949 . S
C115 C114 1.390 . S
C115 C120 1.399 1_554 S
C116 C112 1.404 . S
C116 H117 0.950 . S
C116 C118 1.375 . S
H117 C116 0.950 . S
C118 C116 1.375 . S
C118 C120 1.382 . S
C118 H122 0.950 . S
H119 C114 0.949 . S
C120 C115 1.399 1_556 S
C120 C118 1.382 . S
C120 H121 0.952 . S
H121 C120 0.952 . S
H122 C118 0.950 . S
H123 C124 0.949 . S
C124 H123 0.949 . S
C124 C125 1.395 . S
C124 C126 1.391 . S
C125 C124 1.395 . S
C125 C128 1.390 . S
C126 C124 1.391 . S
C126 C130 1.387 1_554 S
C126 C131 1.491 1_554 S
H127 C128 0.950 . S
C128 C125 1.390 . S
C128 H127 0.950 . S
C128 C129 1.378 1_554 S
C129 C128 1.378 1_556 S
C129 C130 1.409 . S
C130 C126 1.387 1_556 S
C130 C129 1.409 . S
C130 H132 0.951 . S
C131 C126 1.491 1_556 S
C131 C133 1.382 1_556 S
C131 C135 1.404 . S
H132 C130 0.951 . S
C133 C131 1.382 1_554 S
C133 C134 1.390 . S
C133 H138 0.949 . S
C134 C133 1.390 . S
C134 C139 1.399 1_554 S
C135 C131 1.404 . S
C135 H136 0.950 . S
C135 C137 1.375 . S
H136 C135 0.950 . S
C137 C135 1.375 . S
C137 C139 1.382 . S
C137 H141 0.950 . S
H138 C133 0.949 . S
C139 C134 1.399 1_556 S
C139 C137 1.382 . S
C139 H140 0.952 . S
H140 C139 0.952 . S
H141 C137 0.950 . S
H142 C143 0.949 . S
C143 H142 0.949 . S
C143 C144 1.395 . S
C143 C145 1.391 1_556 S
C144 C143 1.395 . S
C144 C147 1.390 1_556 S
C145 C143 1.391 1_554 S
C145 C149 1.387 . S
C145 C150 1.491 . S
H146 C147 0.950 . S
C147 C144 1.390 1_554 S
C147 H146 0.950 . S
C147 C148 1.378 . S
C148 C147 1.378 . S
C148 C149 1.409 . S
C149 C145 1.387 . S
C149 C148 1.409 . S
C149 H151 0.951 . S
C150 C145 1.491 . S
C150 C152 1.382 . S
C150 C154 1.404 . S
H151 C149 0.951 . S
C152 C150 1.382 . S
C152 C153 1.390 . S
C152 H157 0.949 1_554 S
C153 C152 1.390 . S
C153 C158 1.399 . S
C154 C150 1.404 . S
C154 H155 0.950 . S
C154 C156 1.375 . S
H155 C154 0.950 . S
C156 C154 1.375 . S
C156 C158 1.382 . S
C156 H160 0.950 . S
H157 C152 0.949 1_556 S
C158 C153 1.399 . S
C158 C156 1.382 . S
C158 H159 0.952 . S
H159 C158 0.952 . S
H160 C156 0.950 . S
H161 C162 0.949 . S
C162 H161 0.949 . S
C162 C163 1.395 . S
C162 C164 1.391 1_554 S
C163 C162 1.395 . S
C163 C166 1.390 . S
C164 C162 1.391 1_556 S
C164 C168 1.387 . S
C164 C169 1.491 . S
H165 C166 0.950 . S
C166 C163 1.390 . S
C166 H165 0.950 . S
C166 C167 1.378 1_554 S
C167 C166 1.378 1_556 S
C167 C168 1.409 . S
C168 C164 1.387 . S
C168 C167 1.409 . S
C168 H170 0.951 . S
C169 C164 1.491 . S
C169 C171 1.382 1_556 S
C169 C173 1.404 . S
H170 C168 0.951 . S
C171 C169 1.382 1_554 S
C171 C172 1.390 . S
C171 H176 0.949 . S
C172 C171 1.390 . S
C172 C177 1.399 1_554 S
C173 C169 1.404 . S
C173 H174 0.950 . S
C173 C175 1.375 . S
H174 C173 0.950 . S
C175 C173 1.375 . S
C175 C177 1.382 . S
C175 H179 0.950 . S
H176 C171 0.949 . S
C177 C172 1.399 1_556 S
C177 C175 1.382 . S
C177 H178 0.952 . S
H178 C177 0.952 . S
H179 C175 0.950 . S
H180 C181 0.949 . S
C181 H180 0.949 . S
C181 C182 1.395 . S
C181 C183 1.391 . S
C182 C181 1.395 . S
C182 C185 1.390 . S
C183 C181 1.391 . S
C183 C187 1.387 . S
C183 C188 1.491 . S
H184 C185 0.950 . S
C185 C182 1.390 . S
C185 H184 0.950 . S
C185 C186 1.378 . S
C186 C185 1.378 . S
C186 C187 1.409 . S
C187 C183 1.387 . S
C187 C186 1.409 . S
C187 H189 0.951 . S
C188 C183 1.491 . S
C188 C190 1.382 . S
C188 C192 1.404 . S
H189 C187 0.951 . S
C190 C188 1.382 . S
C190 C191 1.390 . S
C190 H195 0.949 . S
C191 C190 1.390 . S
C191 C196 1.399 . S
C192 C188 1.404 . S
C192 H193 0.950 . S
C192 C194 1.375 . S
H193 C192 0.950 . S
C194 C192 1.375 . S
C194 C196 1.382 . S
C194 H198 0.950 . S
H195 C190 0.949 . S
C196 C191 1.399 . S
C196 C194 1.382 . S
C196 H197 0.952 . S
H197 C196 0.952 . S
H198 C194 0.950 . S
H199 C200 0.949 . S
C200 H199 0.949 . S
C200 C201 1.395 . S
C200 C202 1.391 . S
C201 C200 1.395 . S
C201 C204 1.390 . S
C202 C200 1.391 . S
C202 C206 1.387 . S
C202 C207 1.491 . S
H203 C204 0.950 . S
C204 C201 1.390 . S
C204 H203 0.950 . S
C204 C205 1.378 . S
C205 C204 1.378 . S
C205 C206 1.409 . S
C206 C202 1.387 . S
C206 C205 1.409 . S
C206 H208 0.951 . S
C207 C202 1.491 . S
C207 C209 1.382 . S
C207 C211 1.404 . S
H208 C206 0.951 . S
C209 C207 1.382 . S
C209 C210 1.390 . S
C209 H214 0.949 . S
C210 C209 1.390 . S
C210 C215 1.399 . S
C211 C207 1.404 . S
C211 H212 0.950 . S
C211 C213 1.375 . S
H212 C211 0.950 . S
C213 C211 1.375 . S
C213 C215 1.382 . S
C213 H217 0.950 . S
H214 C209 0.949 . S
C215 C210 1.399 . S
C215 C213 1.382 . S
C215 H216 0.952 . S
H216 C215 0.952 . S
H217 C213 0.950 . S
H218 C219 0.949 . S
C219 H218 0.949 . S
C219 C220 1.395 . S
C219 C221 1.391 . S
C220 C219 1.395 . S
C220 C223 1.390 . S
C221 C219 1.391 . S
C221 C225 1.387 . S
C221 C226 1.491 . S
H222 C223 0.950 . S
C223 C220 1.390 . S
C223 H222 0.950 . S
C223 C224 1.378 . S
C224 C223 1.378 . S
C224 C225 1.409 . S
C225 C221 1.387 . S
C225 C224 1.409 . S
C225 H227 0.951 . S
C226 C221 1.491 . S
C226 C228 1.382 . S
C226 C230 1.404 . S
H227 C225 0.951 . S
C228 C226 1.382 . S
C228 C229 1.390 . S
C228 H233 0.949 . S
C229 C228 1.390 . S
C229 C234 1.399 . S
C230 C226 1.404 . S
C230 H231 0.950 . S
C230 C232 1.375 . S
H231 C230 0.950 . S
C232 C230 1.375 . S
C232 C234 1.382 . S
C232 H236 0.950 . S
H233 C228 0.949 . S
C234 C229 1.399 . S
C234 C232 1.382 . S
C234 H235 0.952 . S
H235 C234 0.952 . S
H236 C232 0.950 . S
H237 C238 0.949 . S
C238 H237 0.949 . S
C238 C239 1.395 . S
C238 C240 1.391 . S
C239 C238 1.395 . S
C239 C242 1.390 . S
C240 C238 1.391 . S
C240 C244 1.387 . S
C240 C245 1.491 . S
H241 C242 0.950 . S
C242 C239 1.390 . S
C242 H241 0.950 . S
C242 C243 1.378 . S
C243 C242 1.378 . S
C243 C244 1.409 . S
C244 C240 1.387 . S
C244 C243 1.409 . S
C244 H246 0.951 . S
C245 C240 1.491 . S
C245 C247 1.382 . S
C245 C249 1.404 . S
H246 C244 0.951 . S
C247 C245 1.382 . S
C247 C248 1.390 . S
C247 H252 0.949 . S
C248 C247 1.390 . S
C248 C253 1.399 . S
C249 C245 1.404 . S
C249 H250 0.950 . S
C249 C251 1.375 . S
H250 C249 0.950 . S
C251 C249 1.375 . S
C251 C253 1.382 . S
C251 H255 0.950 . S
H252 C247 0.949 . S
C253 C248 1.399 . S
C253 C251 1.382 . S
C253 H254 0.952 . S
H254 C253 0.952 . S
H255 C251 0.950 . S
C256 C257 1.387 1_556 S
C256 H260 0.950 . S
C256 C265 1.390 . S
C257 C256 1.387 1_554 S
C257 C259 1.387 . S
H258 C265 0.950 . S
C259 C257 1.387 . S
C259 C261 1.390 . S
C259 H263 0.950 . S
H260 C256 0.950 . S
C261 C259 1.390 . S
C261 C262 1.387 . S
C261 H264 0.950 . S
C262 C261 1.387 . S
C262 C265 1.387 1_554 S
H263 C259 0.950 . S
H264 C261 0.950 . S
C265 C256 1.390 . S
C265 H258 0.950 . S
C265 C262 1.387 1_556 S
C266 C267 1.387 . S
C266 H270 0.950 . S
C266 C275 1.390 . S
C267 C266 1.387 . S
C267 C269 1.387 1_554 S
H268 C275 0.950 . S
C269 C267 1.387 1_556 S
C269 C271 1.390 . S
C269 H273 0.950 . S
H270 C266 0.950 . S
C271 C269 1.390 . S
C271 C272 1.387 1_556 S
C271 H274 0.950 . S
C272 C271 1.387 1_554 S
C272 C275 1.387 . S
H273 C269 0.950 . S
H274 C271 0.950 . S
C275 C266 1.390 . S
C275 H268 0.950 . S
C275 C272 1.387 . S
C276 C277 1.387 . S
C276 H280 0.950 . S
C276 C285 1.390 . S
C277 C276 1.387 . S
C277 C279 1.387 1_554 S
H278 C285 0.950 . S
C279 C277 1.387 1_556 S
C279 C281 1.390 . S
C279 H283 0.950 . S
H280 C276 0.950 . S
C281 C279 1.390 . S
C281 C282 1.387 1_556 S
C281 H284 0.950 . S
C282 C281 1.387 1_554 S
C282 C285 1.387 . S
H283 C279 0.950 . S
H284 C281 0.950 . S
C285 C276 1.390 . S
C285 H278 0.950 . S
C285 C282 1.387 . S
C286 C287 1.387 1_556 S
C286 H290 0.950 . S
C286 C295 1.390 . S
C287 C286 1.387 1_554 S
C287 C289 1.387 . S
H288 C295 0.950 . S
C289 C287 1.387 . S
C289 C291 1.390 . S
C289 H293 0.950 . S
H290 C286 0.950 . S
C291 C289 1.390 . S
C291 C292 1.387 . S
C291 H294 0.950 . S
C292 C291 1.387 . S
C292 C295 1.387 1_554 S
H293 C289 0.950 . S
H294 C291 0.950 . S
C295 C286 1.390 . S
C295 H288 0.950 . S
C295 C292 1.387 1_556 S
C296 C297 1.387 . S
C296 H300 0.950 . S
C296 C305 1.390 . S
C297 C296 1.387 . S
C297 C299 1.387 . S
H298 C305 0.950 . S
C299 C297 1.387 . S
C299 C301 1.390 . S
C299 H303 0.950 . S
H300 C296 0.950 . S
C301 C299 1.390 . S
C301 C302 1.387 . S
C301 H304 0.950 . S
C302 C301 1.387 . S
C302 C305 1.387 . S
H303 C299 0.950 . S
H304 C301 0.950 . S
C305 C296 1.390 . S
C305 H298 0.950 . S
C305 C302 1.387 . S
C306 C307 1.387 . S
C306 H310 0.950 . S
C306 C315 1.390 . S
C307 C306 1.387 . S
C307 C309 1.387 . S
H308 C315 0.950 . S
C309 C307 1.387 . S
C309 C311 1.390 . S
C309 H313 0.950 . S
H310 C306 0.950 . S
C311 C309 1.390 . S
C311 C312 1.387 . S
C311 H314 0.950 . S
C312 C311 1.387 . S
C312 C315 1.387 . S
H313 C309 0.950 . S
H314 C311 0.950 . S
C315 C306 1.390 . S
C315 H308 0.950 . S
C315 C312 1.387 . S
C316 C317 1.387 . S
C316 H320 0.950 . S
C316 C325 1.390 . S
C317 C316 1.387 . S
C317 C319 1.387 . S
H318 C325 0.950 . S
C319 C317 1.387 . S
C319 C321 1.390 . S
C319 H323 0.950 . S
H320 C316 0.950 . S
C321 C319 1.390 . S
C321 C322 1.387 . S
C321 H324 0.950 . S
C322 C321 1.387 . S
C322 C325 1.387 . S
H323 C319 0.950 . S
H324 C321 0.950 . S
C325 C316 1.390 . S
C325 H318 0.950 . S
C325 C322 1.387 . S
C326 C327 1.387 . S
C326 H330 0.950 . S
C326 C335 1.390 . S
C327 C326 1.387 . S
C327 C329 1.387 . S
H328 C335 0.950 . S
C329 C327 1.387 . S
C329 C331 1.390 . S
C329 H333 0.950 . S
H330 C326 0.950 . S
C331 C329 1.390 . S
C331 C332 1.387 . S
C331 H334 0.950 . S
C332 C331 1.387 . S
C332 C335 1.387 . S
H333 C329 0.950 . S
H334 C331 0.950 . S
C335 C326 1.390 . S
C335 H328 0.950 . S
C335 C332 1.387 . S
C336 C337 1.387 . S
C336 H340 0.943 1_455 S
C336 C345 1.390 . S
C337 C336 1.387 . S
C337 C339 1.387 . S
H338 C345 0.950 . S
C339 C337 1.387 . S
C339 C341 1.390 . S
C339 H343 0.950 . S
H340 C336 0.943 1_655 S
C341 C339 1.390 . S
C341 C342 1.387 . S
C341 H344 0.950 . S
C342 C341 1.387 . S
C342 C345 1.387 . S
H343 C339 0.950 . S
H344 C341 0.950 . S
C345 C336 1.390 . S
C345 H338 0.950 . S
C345 C342 1.387 . S
C346 C347 1.387 . S
C346 H350 0.950 1_545 S
C346 C355 1.390 . S
C347 C346 1.387 . S
C347 C349 1.387 . S
H348 C355 0.950 1_565 S
C349 C347 1.387 . S
C349 C351 1.390 . S
C349 H353 0.950 . S
H350 C346 0.950 1_565 S
C351 C349 1.390 . S
C351 C352 1.387 . S
C351 H354 0.950 . S
C352 C351 1.387 . S
C352 C355 1.387 . S
H353 C349 0.950 . S
H354 C351 0.950 . S
C355 C346 1.390 . S
C355 H348 0.950 1_545 S
C355 C352 1.387 . S
C356 C357 1.387 . S
C356 H360 0.950 1_655 S
C356 C365 1.390 . S
C357 C356 1.387 . S
C357 C359 1.387 . S
H358 C365 0.950 1_455 S
C359 C357 1.387 . S
C359 C361 1.390 . S
C359 H363 0.950 . S
H360 C356 0.950 1_455 S
C361 C359 1.390 . S
C361 C362 1.387 . S
C361 H364 0.950 . S
C362 C361 1.387 . S
C362 C365 1.387 . S
H363 C359 0.950 . S
H364 C361 0.950 . S
C365 C356 1.390 . S
C365 H358 0.950 1_655 S
C365 C362 1.387 . S
C366 C367 1.387 . S
C366 H370 0.950 1_565 S
C366 C375 1.390 . S
C367 C366 1.387 . S
C367 C369 1.387 . S
H368 C375 0.950 1_545 S
C369 C367 1.387 . S
C369 C371 1.390 . S
C369 H373 0.950 . S
H370 C366 0.950 1_545 S
C371 C369 1.390 . S
C371 C372 1.387 . S
C371 H374 0.950 . S
C372 C371 1.387 . S
C372 C375 1.387 . S
H373 C369 0.950 . S
H374 C371 0.950 . S
C375 C366 1.390 . S
C375 H368 0.950 1_565 S
C375 C372 1.387 . S
C376 C377 1.387 . S
C376 H380 0.950 . S
C376 C385 1.390 . S
C377 C376 1.387 . S
C377 C379 1.387 . S
H378 C385 0.950 . S
C379 C377 1.387 . S
C379 C381 1.390 . S
C379 H383 0.950 1_565 S
H380 C376 0.950 . S
C381 C379 1.390 . S
C381 C382 1.387 . S
C381 H384 0.950 . S
C382 C381 1.387 . S
C382 C385 1.387 . S
H383 C379 0.950 1_545 S
H384 C381 0.950 . S
C385 C376 1.390 . S
C385 H378 0.950 . S
C385 C382 1.387 . S
C386 C387 1.387 . S
C386 H390 0.950 . S
C386 C395 1.390 . S
C387 C386 1.387 . S
C387 C389 1.387 . S
H388 C395 0.950 . S
C389 C387 1.387 . S
C389 C391 1.390 . S
C389 H393 0.950 . S
H390 C386 0.950 . S
C391 C389 1.390 . S
C391 C392 1.387 . S
C391 H394 0.950 . S
C392 C391 1.387 . S
C392 C395 1.387 . S
H393 C389 0.950 . S
H394 C391 0.950 . S
C395 C386 1.390 . S
C395 H388 0.950 . S
C395 C392 1.387 . S
C396 C397 1.387 . S
C396 H400 0.950 . S
C396 C405 1.390 . S
C397 C396 1.387 . S
C397 C399 1.387 . S
H398 C405 0.950 . S
C399 C397 1.387 . S
C399 C401 1.390 . S
C399 H403 0.966 . S
H400 C396 0.950 . S
C401 C399 1.390 . S
C401 C402 1.387 . S
C401 H404 0.950 . S
C402 C401 1.387 . S
C402 C405 1.387 . S
H403 C399 0.966 . S
H404 C401 0.950 . S
C405 C396 1.390 . S
C405 H398 0.950 . S
C405 C402 1.387 . S
C406 C407 1.387 . S
C406 H410 0.950 . S
C406 C415 1.390 . S
C407 C406 1.387 . S
C407 C409 1.387 . S
H408 C415 0.950 . S
C409 C407 1.387 . S
C409 C411 1.390 . S
C409 H413 0.950 1_655 S
H410 C406 0.950 . S
C411 C409 1.390 . S
C411 C412 1.387 . S
C411 H414 0.950 . S
C412 C411 1.387 . S
C412 C415 1.387 . S
H413 C409 0.950 1_455 S
H414 C411 0.950 . S
C415 C406 1.390 . S
C415 H408 0.950 . S
C415 C412 1.387 . S
C416 C417 1.387 . S
C416 H420 0.950 . S
C416 C425 1.390 . S
C417 C416 1.387 . S
C417 C419 1.387 . S
H418 C425 0.950 . S
C419 C417 1.387 . S
C419 C421 1.390 . S
C419 H423 0.950 . S
H420 C416 0.950 . S
C421 C419 1.390 . S
C421 C422 1.387 . S
C421 H424 0.950 . S
C422 C421 1.387 . S
C422 C425 1.387 . S
H423 C419 0.950 . S
H424 C421 0.950 . S
C425 C416 1.390 . S
C425 H418 0.950 . S
C425 C422 1.387 . S
C426 C427 1.387 . S
C426 H430 0.950 . S
C426 C435 1.390 . S
C427 C426 1.387 . S
C427 C429 1.387 . S
H428 C435 0.950 . S
C429 C427 1.387 . S
C429 C431 1.390 . S
C429 H433 0.950 . S
H430 C426 0.950 . S
C431 C429 1.390 . S
C431 C432 1.387 . S
C431 H434 0.950 . S
C432 C431 1.387 . S
C432 C435 1.387 . S
H433 C429 0.950 . S
H434 C431 0.950 . S
C435 C426 1.390 . S
C435 H428 0.950 . S
C435 C432 1.387 . S
C436 C437 1.387 . S
C436 H440 0.950 . S
C436 C445 1.390 . S
C437 C436 1.387 . S
C437 C439 1.387 . S
H438 C445 0.950 . S
C439 C437 1.387 . S
C439 C441 1.390 . S
C439 H443 0.950 . S
H440 C436 0.950 . S
C441 C439 1.390 . S
C441 C442 1.387 . S
C441 H444 0.950 . S
C442 C441 1.387 . S
C442 C445 1.387 . S
H443 C439 0.950 . S
H444 C441 0.950 . S
C445 C436 1.390 . S
C445 H438 0.950 . S
C445 C442 1.387 . S
C446 C447 1.387 . S
C446 H450 0.950 . S
C446 C455 1.390 . S
C447 C446 1.387 . S
C447 C449 1.387 . S
H448 C455 0.950 . S
C449 C447 1.387 . S
C449 C451 1.390 . S
C449 H453 0.950 . S
H450 C446 0.950 . S
C451 C449 1.390 . S
C451 C452 1.387 . S
C451 H454 0.950 . S
C452 C451 1.387 . S
C452 C455 1.387 . S
H453 C449 0.950 . S
H454 C451 0.950 . S
C455 C446 1.390 . S
C455 H448 0.950 . S
C455 C452 1.387 . S
C456 C457 1.387 . S
C456 H460 0.950 . S
C456 C465 1.390 . S
C457 C456 1.387 . S
C457 C459 1.387 . S
H458 C465 0.950 . S
C459 C457 1.387 . S
C459 C461 1.390 . S
C459 H463 0.950 . S
H460 C456 0.950 . S
C461 C459 1.390 . S
C461 C462 1.387 . S
C461 H464 0.950 . S
C462 C461 1.387 . S
C462 C465 1.387 . S
H463 C459 0.950 . S
H464 C461 0.950 . S
C465 C456 1.390 . S
C465 H458 0.950 . S
C465 C462 1.387 . S
C466 C467 1.387 . S
C466 H470 0.950 . S
C466 C475 1.390 . S
C467 C466 1.387 . S
C467 C469 1.387 . S
H468 C475 0.950 . S
C469 C467 1.387 . S
C469 C471 1.390 . S
C469 H473 0.950 . S
H470 C466 0.950 . S
C471 C469 1.390 . S
C471 C472 1.387 . S
C471 H474 0.950 . S
C472 C471 1.387 . S
C472 C475 1.387 . S
H473 C469 0.950 . S
H474 C471 0.950 . S
C475 C466 1.390 . S
C475 H468 0.950 . S
C475 C472 1.387 . S
C476 C477 1.387 . S
C476 H480 0.950 . S
C476 C485 1.390 . S
C477 C476 1.387 . S
C477 C479 1.387 . S
H478 C485 0.950 . S
C479 C477 1.387 . S
C479 C481 1.390 . S
C479 H483 0.950 . S
H480 C476 0.950 . S
C481 C479 1.390 . S
C481 C482 1.387 . S
C481 H484 0.950 . S
C482 C481 1.387 . S
C482 C485 1.387 . S
H483 C479 0.950 . S
H484 C481 0.950 . S
C485 C476 1.390 . S
C485 H478 0.950 . S
C485 C482 1.387 . S
C486 C487 1.387 . S
C486 H490 0.950 . S
C486 C495 1.390 . S
C487 C486 1.387 . S
C487 C489 1.387 . S
H488 C495 0.950 . S
C489 C487 1.387 . S
C489 C491 1.390 . S
C489 H493 0.950 . S
H490 C486 0.950 . S
C491 C489 1.390 . S
C491 C492 1.387 . S
C491 H494 0.950 . S
C492 C491 1.387 . S
C492 C495 1.387 . S
H493 C489 0.950 . S
H494 C491 0.950 . S
C495 C486 1.390 . S
C495 H488 0.950 . S
C495 C492 1.387 . S
C257 C45 1.558 . S
C262 C115 1.505 . S
C267 C30 1.567 . S
C272 C134 1.496 . S
C277 C39 1.561 . S
C282 C153 1.373 . S
C292 C172 1.495 . S
C287 C34 1.566 . S
C297 C97 1.560 . S
C302 C191 1.504 . S
C312 C210 1.496 . S
C307 C82 1.567 . S
C322 C229 1.375 . S
C317 C91 1.561 . S
C332 C248 1.496 . S
C327 C86 1.566 . S
C342 C220 1.575 . S
C337 C26 1.541 . S
C352 C243 1.523 . S
C347 C36 1.467 . S
C362 C186 1.594 . S
C357 C32 1.538 . S
C372 C205 1.519 . S
C367 C42 1.471 . S
C377 C18 1.669 . S
C382 C201 1.728 . S
C392 C224 1.655 . S
C387 C50 1.587 . S
C397 C4 1.672 . S
C402 C239 1.719 . S
C407 C48 1.594 . S
C412 C182 1.646 . S
C422 C144 1.577 . S
C417 C78 1.545 . S
C427 C88 1.470 . S
C432 C167 1.524 . S
C442 C110 1.595 . S
C437 C84 1.542 . S
C452 C129 1.519 . S
C447 C94 1.472 . S
C462 C125 1.728 . S
C457 C70 1.669 . S
C472 C148 1.655 . S
C467 C102 1.588 . S
C477 C56 1.675 . S
C482 C163 1.722 . S
C487 C100 1.597 . S
C492 C106 1.649 . S
