# Generated by pormake.
# Topology pto, (3,4)-cn, num edge types: 1
# Building blocks:
#     Node 0, Type 0, BuildingBlock: KAKCAD_clean_linker_0, # of connection points: 3
#     Node 1, Type 0, BuildingBlock: KAKCAD_clean_linker_0, # of connection points: 3
#     Node 2, Type 0, BuildingBlock: KAKCAD_clean_linker_0, # of connection points: 3
#     Node 3, Type 0, BuildingBlock: KAKCAD_clean_linker_0, # of connection points: 3
#     Node 4, Type 0, BuildingBlock: KAKCAD_clean_linker_0, # of connection points: 3
#     Node 5, Type 0, BuildingBlock: KAKCAD_clean_linker_0, # of connection points: 3
#     Node 6, Type 0, BuildingBlock: KAKCAD_clean_linker_0, # of connection points: 3
#     Node 7, Type 0, BuildingBlock: KAKCAD_clean_linker_0, # of connection points: 3
#     Node 8, Type 1, BuildingBlock: NAWXER_clean_sbu_0, # of connection points: 4
#     Node 9, Type 1, BuildingBlock: NAWXER_clean_sbu_0, # of connection points: 4
#     Node 10, Type 1, BuildingBlock: NAWXER_clean_sbu_0, # of connection points: 4
#     Node 11, Type 1, BuildingBlock: NAWXER_clean_sbu_0, # of connection points: 4
#     Node 12, Type 1, BuildingBlock: NAWXER_clean_sbu_0, # of connection points: 4
#     Node 13, Type 1, BuildingBlock: NAWXER_clean_sbu_0, # of connection points: 4
#     Edge 14, Type (0, 1), None
#     Edge 15, Type (0, 1), None
#     Edge 16, Type (0, 1), None
#     Edge 17, Type (0, 1), None
#     Edge 18, Type (0, 1), None
#     Edge 19, Type (0, 1), None
#     Edge 20, Type (0, 1), None
#     Edge 21, Type (0, 1), None
#     Edge 22, Type (0, 1), None
#     Edge 23, Type (0, 1), None
#     Edge 24, Type (0, 1), None
#     Edge 25, Type (0, 1), None
#     Edge 26, Type (0, 1), None
#     Edge 27, Type (0, 1), None
#     Edge 28, Type (0, 1), None
#     Edge 29, Type (0, 1), None
#     Edge 30, Type (0, 1), None
#     Edge 31, Type (0, 1), None
#     Edge 32, Type (0, 1), None
#     Edge 33, Type (0, 1), None
#     Edge 34, Type (0, 1), None
#     Edge 35, Type (0, 1), None
#     Edge 36, Type (0, 1), None
#     Edge 37, Type (0, 1), None
# Relax obj value: 0.000
# Max RMSD: 0.002
# Mean RMSD: 0.002
data_MOF--net-pto--node1-NAWXER_clean_sbu_0--node2-KAKCAD_clean_linker_0--edge1-none
_symmetry_space_group_name_H-M    P1
_symmetry_Int_Tables_number       1
_symmetry_cell_setting            triclinic
loop_
_symmetry_equiv_pos_as_xyz
'x, y, z'
_cell_length_a     28.563512
_cell_length_b     26.908538
_cell_length_c     25.31019
_cell_angle_alpha  90.35564
_cell_angle_beta   90.514907
_cell_angle_gamma 90.620645
loop_
_atom_site_label
_atom_site_type_symbol
_atom_site_fract_x
_atom_site_fract_y
_atom_site_fract_z
_atom_type_partial_charge
C0 C 0.25836 0.14219 0.40869 0.0
C1 C 0.21753 0.11438 0.41912 0.0
C2 C 0.25947 0.17666 0.36791 0.0
C3 C 0.21987 0.18455 0.33596 0.0
C4 C 0.17815 0.1586 0.34751 0.0
C5 C 0.17701 0.12365 0.38876 0.0
C6 C 0.22419 0.21774 0.28928 0.0
C7 C 0.26335 0.21279 0.25643 0.0
C8 C 0.27236 0.2467 0.21578 0.0
C9 C 0.24024 0.28499 0.20687 0.0
C10 C 0.20031 0.29061 0.23844 0.0
C11 C 0.19231 0.25633 0.27959 0.0
C12 C 0.16888 0.33396 0.22947 0.0
C13 C 0.18779 0.38044 0.21448 0.0
C14 C 0.12005 0.32963 0.2354 0.0
C15 C 0.09116 0.37074 0.22714 0.0
C16 C 0.11042 0.41662 0.21188 0.0
C17 C 0.31655 0.24418 0.18468 0.0
C18 C 0.35881 0.22878 0.2085 0.0
C19 C 0.3175 0.25968 0.13162 0.0
C20 C 0.3596 0.26189 0.10412 0.0
C21 C 0.40141 0.24712 0.12836 0.0
C22 C 0.40076 0.22965 0.18031 0.0
C23 C 0.15885 0.42113 0.20549 0.0
H24 H 0.29012 0.13687 0.43158 0.0
H25 H 0.29187 0.19675 0.36079 0.0
H26 H 0.14704 0.16402 0.32355 0.0
H27 H 0.14492 0.10307 0.39591 0.0
H28 H 0.28721 0.18239 0.2631 0.0
H29 H 0.1628 0.26104 0.30567 0.0
H30 H 0.24688 0.31145 0.17576 0.0
H31 H 0.22522 0.38598 0.21102 0.0
H32 H 0.10413 0.29456 0.24651 0.0
H33 H 0.05383 0.36695 0.23353 0.0
H34 H 0.35998 0.21748 0.24945 0.0
H35 H 0.28579 0.27051 0.11121 0.0
H36 H 0.1745 0.45667 0.19549 0.0
H37 H 0.43288 0.21829 0.19961 0.0
H38 H 0.35952 0.275 0.06371 0.0
C39 C 0.3978 0.75982 0.84873 0.0
C40 C 0.41296 0.71391 0.86849 0.0
C41 C 0.3546 0.76408 0.82361 0.0
C42 C 0.32535 0.72234 0.81608 0.0
C43 C 0.34162 0.6756 0.83299 0.0
C44 C 0.38497 0.67146 0.85923 0.0
C45 C 0.27723 0.72889 0.79367 0.0
C46 C 0.2684 0.76615 0.75638 0.0
C47 C 0.22258 0.77774 0.74021 0.0
C48 C 0.18525 0.7475 0.75777 0.0
C49 C 0.1935 0.70806 0.79336 0.0
C50 C 0.2394 0.70067 0.81235 0.0
C51 C 0.1552 0.67323 0.81002 0.0
C52 C 0.10853 0.68894 0.81539 0.0
C53 C 0.16514 0.62269 0.81876 0.0
C54 C 0.12959 0.58876 0.83065 0.0
C55 C 0.08305 0.60411 0.83352 0.0
C56 C 0.21512 0.82254 0.70638 0.0
C57 C 0.24286 0.86541 0.71528 0.0
C58 C 0.18291 0.82266 0.66383 0.0
C59 C 0.18076 0.86353 0.62937 0.0
C60 C 0.21113 0.9046 0.63663 0.0
C61 C 0.24134 0.90543 0.6806 0.0
C62 C 0.0727 0.6545 0.82639 0.0
H63 H 0.41838 0.79347 0.85476 0.0
H64 H 0.34346 0.80089 0.81237 0.0
H65 H 0.32049 0.64237 0.82699 0.0
H66 H 0.39567 0.63556 0.87388 0.0
H67 H 0.29753 0.78692 0.74014 0.0
H68 H 0.24559 0.67341 0.84282 0.0
H69 H 0.15008 0.75475 0.74379 0.0
H70 H 0.0994 0.72748 0.80972 0.0
H71 H 0.20012 0.60845 0.81368 0.0
H72 H 0.13807 0.5497 0.83381 0.0
H73 H 0.2669 0.86766 0.74858 0.0
H74 H 0.16092 0.79043 0.65576 0.0
H75 H 0.0367 0.66676 0.82668 0.0
H76 H 0.26469 0.93683 0.68768 0.0
H77 H 0.15723 0.86186 0.5956 0.0
C78 C 0.63958 0.67007 0.098 0.0
C79 C 0.61164 0.71113 0.08592 0.0
C80 C 0.67528 0.67454 0.13643 0.0
C81 C 0.6834 0.72009 0.16323 0.0
C82 C 0.65385 0.76007 0.1524 0.0
C83 C 0.61844 0.75555 0.11476 0.0
C84 C 0.72443 0.72807 0.19921 0.0
C85 C 0.76793 0.70784 0.18661 0.0
C86 C 0.80807 0.71802 0.21763 0.0
C87 C 0.80443 0.75259 0.2598 0.0
C88 C 0.76124 0.775 0.27219 0.0
C89 C 0.72125 0.76008 0.24312 0.0
C90 C 0.75781 0.81551 0.31338 0.0
C91 C 0.789 0.81805 0.35678 0.0
C92 C 0.72409 0.85346 0.30857 0.0
C93 C 0.72194 0.89247 0.34547 0.0
C94 C 0.75439 0.89561 0.38717 0.0
C95 C 0.85312 0.6919 0.20577 0.0
C96 C 0.85236 0.64389 0.18277 0.0
C97 C 0.89709 0.71315 0.219 0.0
C98 C 0.93832 0.68602 0.21268 0.0
C99 C 0.93682 0.63797 0.19086 0.0
C100 C 0.89368 0.61771 0.17467 0.0
C101 C 0.78776 0.85792 0.3926 0.0
H102 H 0.635 0.63534 0.07664 0.0
H103 H 0.69706 0.64271 0.14436 0.0
H104 H 0.65922 0.79595 0.17125 0.0
H105 H 0.59722 0.78791 0.10715 0.0
H106 H 0.7707 0.68532 0.15124 0.0
H107 H 0.6873 0.77415 0.25399 0.0
H108 H 0.83525 0.7623 0.28275 0.0
H109 H 0.81471 0.78946 0.36329 0.0
H110 H 0.70005 0.85427 0.27532 0.0
H111 H 0.6963 0.9214 0.33996 0.0
H112 H 0.81972 0.62499 0.17327 0.0
H113 H 0.89992 0.75026 0.23544 0.0
H114 H 0.81307 0.85933 0.42474 0.0
H115 H 0.89149 0.57997 0.15956 0.0
H116 H 0.97127 0.70197 0.22639 0.0
C117 C 0.79402 0.12567 0.6265 0.0
C118 C 0.75183 0.10953 0.60246 0.0
C119 C 0.79404 0.15838 0.6694 0.0
C120 C 0.75188 0.17657 0.68955 0.0
C121 C 0.70949 0.16112 0.66505 0.0
C122 C 0.70946 0.12776 0.62209 0.0
C123 C 0.75267 0.20923 0.7376 0.0
C124 C 0.78919 0.24428 0.74615 0.0
C125 C 0.79301 0.27165 0.79386 0.0
C126 C 0.7586 0.26408 0.83252 0.0
C127 C 0.7207 0.23133 0.82358 0.0
C128 C 0.71824 0.20374 0.77644 0.0
C129 C 0.68265 0.22762 0.86283 0.0
C130 C 0.69299 0.22389 0.91709 0.0
C131 C 0.63568 0.23137 0.84639 0.0
C132 C 0.59994 0.23359 0.88361 0.0
C133 C 0.61061 0.23128 0.93764 0.0
C134 C 0.83229 0.30844 0.80313 0.0
C135 C 0.87622 0.30201 0.7792 0.0
C136 C 0.82615 0.35091 0.83538 0.0
C137 C 0.86236 0.38587 0.84276 0.0
C138 C 0.9051 0.38014 0.81684 0.0
C139 C 0.91178 0.33786 0.78519 0.0
C140 C 0.65714 0.22562 0.95426 0.0
H141 H 0.82747 0.11227 0.61289 0.0
H142 H 0.82731 0.16828 0.68766 0.0
H143 H 0.67628 0.17477 0.67903 0.0
H144 H 0.6764 0.11629 0.60435 0.0
H145 H 0.81425 0.25061 0.71505 0.0
H146 H 0.69003 0.17692 0.77089 0.0
H147 H 0.76065 0.28414 0.86966 0.0
H148 H 0.72887 0.22066 0.93078 0.0
H149 H 0.62677 0.23486 0.80489 0.0
H150 H 0.56414 0.23866 0.87031 0.0
H151 H 0.88331 0.2695 0.75533 0.0
H152 H 0.79286 0.35844 0.85365 0.0
H153 H 0.66587 0.2244 0.99598 0.0
H154 H 0.94449 0.3328 0.76457 0.0
H155 H 0.856 0.41881 0.86636 0.0
C156 C 0.84767 0.8716 0.58243 0.0
C157 C 0.84015 0.92134 0.59581 0.0
C158 C 0.83683 0.83409 0.6183 0.0
C159 C 0.81859 0.84572 0.66845 0.0
C160 C 0.81443 0.89597 0.68298 0.0
C161 C 0.82469 0.93341 0.64673 0.0
C162 C 0.80157 0.80538 0.7037 0.0
C163 C 0.82517 0.76001 0.70478 0.0
C164 C 0.8079 0.71956 0.73344 0.0
C165 C 0.76709 0.72552 0.76347 0.0
C166 C 0.74312 0.77111 0.76428 0.0
C167 C 0.76063 0.81079 0.73395 0.0
C168 C 0.69952 0.77652 0.79613 0.0
C169 C 0.66717 0.73695 0.79891 0.0
C170 C 0.69048 0.82015 0.82539 0.0
C171 C 0.65116 0.82305 0.85836 0.0
C172 C 0.62025 0.78231 0.86286 0.0
C173 C 0.83417 0.67209 0.73329 0.0
C174 C 0.85568 0.65456 0.68689 0.0
C175 C 0.84109 0.64605 0.78047 0.0
C176 C 0.87082 0.60533 0.78196 0.0
C177 C 0.89469 0.58968 0.73639 0.0
C178 C 0.88575 0.6138 0.68844 0.0
C179 C 0.62834 0.73972 0.83184 0.0
H180 H 0.85782 0.86149 0.54266 0.0
H181 H 0.83983 0.79589 0.60518 0.0
H182 H 0.80137 0.90635 0.72149 0.0
H183 H 0.81742 0.97167 0.65717 0.0
H184 H 0.85779 0.75633 0.68366 0.0
H185 H 0.74138 0.84522 0.73243 0.0
H186 H 0.75409 0.69457 0.78645 0.0
H187 H 0.67207 0.70333 0.77596 0.0
H188 H 0.71468 0.85137 0.82434 0.0
H189 H 0.64604 0.85631 0.88183 0.0
H190 H 0.85026 0.67322 0.64957 0.0
H191 H 0.82543 0.65855 0.81695 0.0
H192 H 0.60496 0.70781 0.83366 0.0
H193 H 0.9033 0.60248 0.65264 0.0
H194 H 0.87649 0.58736 0.81962 0.0
C195 C 0.61252 0.29731 0.19294 0.0
C196 C 0.6117 0.32885 0.14908 0.0
C197 C 0.6513 0.29676 0.22697 0.0
C198 C 0.6912 0.32645 0.21702 0.0
C199 C 0.68943 0.35964 0.17413 0.0
C200 C 0.64986 0.36115 0.14083 0.0
C201 C 0.73498 0.32028 0.2495 0.0
C202 C 0.74642 0.27321 0.26938 0.0
C203 C 0.78615 0.26612 0.30157 0.0
C204 C 0.81685 0.30641 0.31081 0.0
C205 C 0.8077 0.35345 0.28933 0.0
C206 C 0.76596 0.3603 0.25996 0.0
C207 C 0.84373 0.39393 0.29356 0.0
C208 C 0.87211 0.40044 0.33916 0.0
C209 C 0.85291 0.42356 0.24937 0.0
C210 C 0.89065 0.45667 0.2495 0.0
C211 C 0.92072 0.46113 0.29368 0.0
C212 C 0.79384 0.21711 0.32737 0.0
C213 C 0.7551 0.18983 0.34552 0.0
C214 C 0.83904 0.19791 0.33602 0.0
C215 C 0.8451 0.15315 0.36346 0.0
C216 C 0.80605 0.12667 0.38228 0.0
C217 C 0.76106 0.14524 0.37198 0.0
C218 C 0.91028 0.43389 0.33926 0.0
H219 H 0.58337 0.27231 0.20045 0.0
H220 H 0.65025 0.27202 0.26051 0.0
H221 H 0.71932 0.38289 0.16468 0.0
H222 H 0.65027 0.3855 0.10691 0.0
H223 H 0.72448 0.24144 0.25931 0.0
H224 H 0.75772 0.3969 0.24525 0.0
H225 H 0.84822 0.30098 0.33428 0.0
H226 H 0.86556 0.37879 0.3743 0.0
H227 H 0.83244 0.41945 0.21335 0.0
H228 H 0.89722 0.47766 0.21387 0.0
H229 H 0.71983 0.20362 0.3409 0.0
H230 H 0.86972 0.21754 0.32196 0.0
H231 H 0.93267 0.43674 0.37393 0.0
H232 H 0.72998 0.1262 0.38595 0.0
H233 H 0.88021 0.13987 0.37076 0.0
C234 C 0.38129 0.34837 0.92836 0.0
C235 C 0.42567 0.32824 0.91972 0.0
C236 C 0.34644 0.34489 0.88906 0.0
C237 C 0.35567 0.32185 0.84009 0.0
C238 C 0.40139 0.30476 0.83079 0.0
C239 C 0.43566 0.30709 0.87049 0.0
C240 C 0.31736 0.312 0.80047 0.0
C241 C 0.2796 0.34488 0.79398 0.0
C242 C 0.24273 0.3338 0.75819 0.0
C243 C 0.24449 0.29 0.72799 0.0
C244 C 0.28142 0.25655 0.73414 0.0
C245 C 0.3174 0.26769 0.77054 0.0
C246 C 0.28174 0.20938 0.70331 0.0
C247 C 0.24005 0.18215 0.69475 0.0
C248 C 0.32347 0.19177 0.68127 0.0
C249 C 0.32322 0.14872 0.65008 0.0
C250 C 0.28118 0.12258 0.64003 0.0
C251 C 0.20026 0.36529 0.75517 0.0
C252 C 0.17924 0.38197 0.80178 0.0
C253 C 0.1781 0.37521 0.7064 0.0
C254 C 0.1354 0.40046 0.70452 0.0
C255 C 0.11389 0.41597 0.75141 0.0
C256 C 0.13667 0.40684 0.79995 0.0
C257 C 0.23974 0.13938 0.6633 0.0
H258 H 0.37275 0.36421 0.96649 0.0
H259 H 0.31175 0.35804 0.89818 0.0
H260 H 0.41051 0.2882 0.79323 0.0
H261 H 0.46977 0.29135 0.86311 0.0
H262 H 0.27876 0.37914 0.81661 0.0
H263 H 0.34461 0.2406 0.7769 0.0
H264 H 0.21629 0.28127 0.70045 0.0
H265 H 0.20749 0.19402 0.71216 0.0
H266 H 0.35613 0.21206 0.68682 0.0
H267 H 0.35572 0.13683 0.63255 0.0
H268 H 0.1949 0.37435 0.83998 0.0
H269 H 0.19363 0.3631 0.66969 0.0
H270 H 0.20682 0.11985 0.6567 0.0
H271 H 0.12147 0.41862 0.83696 0.0
H272 H 0.11908 0.40733 0.66651 0.0
C273 C 0.31949 0.93123 0.37675 0.0
C274 C 0.30827 0.91586 0.4279 0.0
C275 C 0.31974 0.89674 0.33522 0.0
C276 C 0.30894 0.84639 0.34448 0.0
C277 C 0.30061 0.83093 0.39663 0.0
C278 C 0.29968 0.86552 0.43786 0.0
C279 C 0.30279 0.81082 0.29972 0.0
C280 C 0.33224 0.81276 0.25565 0.0
C281 C 0.32557 0.77997 0.21274 0.0
C282 C 0.28899 0.74424 0.21494 0.0
C283 C 0.2592 0.7415 0.25904 0.0
C284 C 0.26618 0.77555 0.30063 0.0
C285 C 0.22008 0.70414 0.26184 0.0
C286 C 0.19376 0.69136 0.21652 0.0
C287 C 0.20764 0.68215 0.31033 0.0
C288 C 0.16951 0.64904 0.31347 0.0
C289 C 0.14324 0.63656 0.26809 0.0
C290 C 0.35817 0.78181 0.16691 0.0
C291 C 0.3754 0.82738 0.14711 0.0
C292 C 0.37376 0.73755 0.1438 0.0
C293 C 0.40587 0.73857 0.10265 0.0
C294 C 0.42375 0.7839 0.08321 0.0
C295 C 0.40788 0.82842 0.10569 0.0
C296 C 0.15606 0.65794 0.21957 0.0
H297 H 0.32536 0.97024 0.36841 0.0
H298 H 0.32586 0.91003 0.29555 0.0
H299 H 0.29324 0.7923 0.40538 0.0
H300 H 0.29055 0.85325 0.47719 0.0
H301 H 0.36123 0.83906 0.25539 0.0
H302 H 0.24203 0.77557 0.33338 0.0
H303 H 0.28384 0.71843 0.18237 0.0
H304 H 0.20155 0.70798 0.17871 0.0
H305 H 0.22753 0.69031 0.34601 0.0
H306 H 0.16091 0.63292 0.35132 0.0
H307 H 0.36375 0.86231 0.16361 0.0
H308 H 0.36211 0.70179 0.1584 0.0
H309 H 0.13651 0.6494 0.18372 0.0
H310 H 0.42075 0.86391 0.09164 0.0
H311 H 0.41714 0.70332 0.08658 0.0
C312 C 0.96432 0.49094 0.28827 0.0
C313 C 0.10298 0.60113 0.27008 0.0
O314 O 0.98667 0.50992 0.32751 0.0
Zn315 Zn 0.03484 0.54432 0.28478 0.0
O316 O 0.97921 0.49807 0.24145 0.0
Zn317 Zn 0.03217 0.53544 0.19939 0.0
O318 O 0.06628 0.47996 0.16845 0.0
O319 O 0.07222 0.48222 0.25558 0.0
O320 O 0.0859 0.58421 0.22658 0.0
O321 O 0.08491 0.5875 0.3136 0.0
O322 O 0.99119 0.59572 0.2439 0.0
O323 O 0.99186 0.5788 0.15824 0.0
C324 C 0.0814 0.46139 0.21138 0.0
C325 C 0.97705 0.60473 0.19683 0.0
C326 C 0.93988 0.42109 0.81645 0.0
C327 C 0.04624 0.56598 0.82796 0.0
O328 O 0.95251 0.44359 0.8587 0.0
Zn329 Zn 0.99312 0.49383 0.82684 0.0
O330 O 0.955 0.43614 0.7718 0.0
Zn331 Zn 0.99807 0.49384 0.74114 0.0
O332 O 0.04936 0.45738 0.70844 0.0
O333 O 0.04997 0.45319 0.79553 0.0
O334 O 0.03749 0.55012 0.78118 0.0
O335 O 0.02807 0.54439 0.86765 0.0
O336 O 0.94389 0.53857 0.78786 0.0
O337 O 0.95331 0.53449 0.70158 0.0
C338 C 0.06865 0.44262 0.7511 0.0
C339 C 0.93157 0.55166 0.74138 0.0
C340 C 0.21575 0.94432 0.59658 0.0
C341 C 0.21935 0.07517 0.46035 0.0
O342 O 0.18069 0.96044 0.57073 0.0
Zn343 Zn 0.21489 1.00948 0.5281 0.0
O344 O 0.25664 0.96224 0.58752 0.0
Zn345 Zn 0.28945 0.01531 0.53682 0.0
O346 O 0.31755 0.06163 0.58558 0.0
O347 O 0.24019 0.0636 0.58525 0.0
O348 O 0.25928 0.06415 0.48021 0.0
O349 O 0.18294 0.05203 0.47603 0.0
O350 O 0.25459 0.96191 0.47795 0.0
O351 O 0.33004 0.97554 0.49359 0.0
C352 C 0.27981 0.08004 0.60281 0.0
C353 C 0.29761 0.95271 0.46851 0.0
C354 C 0.57756 0.71124 0.04152 0.0
C355 C 0.45479 0.71347 0.9036 0.0
O356 O 0.56079 0.67178 0.02004 0.0
Zn357 Zn 0.51831 0.70591 0.96998 0.0
O358 O 0.56448 0.75365 0.025 0.0
Zn359 Zn 0.52011 0.78823 0.97109 0.0
O360 O 0.47766 0.822 0.02102 0.0
O361 O 0.47242 0.74021 0.02394 0.0
O362 O 0.47108 0.75557 0.91914 0.0
O363 O 0.47202 0.67362 0.92228 0.0
O364 O 0.5663 0.73861 0.91686 0.0
O365 O 0.56563 0.82039 0.92345 0.0
C366 C 0.45935 0.78277 0.04061 0.0
C367 C 0.58196 0.78111 0.90236 0.0
C368 C 0.83258 0.95701 0.55344 0.0
C369 C 0.81055 0.08229 0.41632 0.0
O370 O 0.79001 0.96562 0.5409 0.0
Zn371 Zn 0.75008 1.00894 0.48807 0.0
O372 O 0.86611 0.97786 0.52874 0.0
Zn373 Zn 0.82605 0.01643 0.48179 0.0
O374 O 0.79385 0.0631 0.53893 0.0
O375 O 0.71727 0.05106 0.53957 0.0
O376 O 0.85005 0.06569 0.43133 0.0
O377 O 0.77302 0.06305 0.4347 0.0
O378 O 0.71976 0.95825 0.44256 0.0
O379 O 0.79662 0.95829 0.43447 0.0
C380 C 0.75367 0.07335 0.55791 0.0
C381 C 0.75648 0.93954 0.42274 0.0
C382 C 0.57377 0.32338 0.10919 0.0
C383 C 0.45934 0.32314 0.96362 0.0
O384 O 0.55908 0.27965 0.09684 0.0
Zn385 Zn 0.51213 0.24581 0.04071 0.0
O386 O 0.55754 0.36066 0.08484 0.0
Zn387 Zn 0.51506 0.32463 0.03683 0.0
O388 O 0.45985 0.2945 0.08485 0.0
O389 O 0.46658 0.2127 0.08421 0.0
O390 O 0.47788 0.3611 0.98591 0.0
O391 O 0.46935 0.27935 0.97973 0.0
O392 O 0.55366 0.20522 0.99976 0.0
O393 O 0.56299 0.28596 0.98633 0.0
C394 C 0.4454 0.25143 0.09925 0.0
C395 C 0.57412 0.24086 0.97642 0.0
loop_
_geom_bond_atom_site_label_1
_geom_bond_atom_site_label_2
_geom_bond_distance
_geom_bond_site_symmetry_2
_ccdc_geom_bond_type
C0 C1 1.386 . S
C0 C2 1.397 . S
C0 H24 0.931 . S
C1 C0 1.386 . S
C1 C5 1.397 . S
C2 C0 1.397 . S
C2 C3 1.384 . S
C2 H25 0.930 . S
C3 C2 1.384 . S
C3 C4 1.377 . S
C3 C6 1.481 . S
C4 C3 1.377 . S
C4 C5 1.389 . S
C4 H26 0.929 . S
C5 C1 1.397 . S
C5 C4 1.389 . S
C5 H27 0.931 . S
C6 C3 1.481 . S
C6 C7 1.387 . S
C6 C11 1.390 . S
C7 C6 1.387 . S
C7 C8 1.401 . S
C7 H28 0.930 . S
C8 C7 1.401 . S
C8 C9 1.376 . S
C8 C17 1.511 . S
C9 C8 1.376 . S
C9 C10 1.392 . S
C9 H30 0.931 . S
C10 C9 1.392 . S
C10 C11 1.361 . S
C10 C12 1.500 . S
C11 C6 1.390 . S
C11 C10 1.361 . S
C11 H29 0.931 . S
C12 C10 1.500 . S
C12 C13 1.371 . S
C12 C14 1.365 . S
C13 C12 1.371 . S
C13 C23 1.386 . S
C13 H31 0.931 . S
C14 C12 1.365 . S
C14 C15 1.409 . S
C14 H32 0.929 . S
C15 C14 1.409 . S
C15 C16 1.380 . S
C15 H33 0.930 . S
C16 C15 1.380 . S
C16 C23 1.357 . S
C17 C8 1.511 . S
C17 C18 1.341 . S
C17 C19 1.371 . S
C18 C17 1.341 . S
C18 C22 1.394 . S
C18 H34 0.930 . S
C19 C17 1.371 . S
C19 C20 1.392 . S
C19 H35 0.931 . S
C20 C19 1.392 . S
C20 C21 1.331 . S
C20 H38 0.932 . S
C21 C20 1.331 . S
C21 C22 1.336 . S
C22 C18 1.394 . S
C22 C21 1.336 . S
C22 H37 0.929 . S
C23 C13 1.386 . S
C23 C16 1.357 . S
C23 H36 0.928 . S
H24 C0 0.931 . S
H25 C2 0.930 . S
H26 C4 0.929 . S
H27 C5 0.931 . S
H28 C7 0.930 . S
H29 C11 0.931 . S
H30 C9 0.931 . S
H31 C13 0.931 . S
H32 C14 0.929 . S
H33 C15 0.930 . S
H34 C18 0.930 . S
H35 C19 0.931 . S
H36 C23 0.928 . S
H37 C22 0.929 . S
H38 C20 0.932 . S
C39 C40 1.386 . S
C39 C41 1.397 . S
C39 H63 0.931 . S
C40 C39 1.386 . S
C40 C44 1.397 . S
C41 C39 1.397 . S
C41 C42 1.384 . S
C41 H64 0.930 . S
C42 C41 1.384 . S
C42 C43 1.377 . S
C42 C45 1.481 . S
C43 C42 1.377 . S
C43 C44 1.389 . S
C43 H65 0.929 . S
C44 C40 1.397 . S
C44 C43 1.389 . S
C44 H66 0.931 . S
C45 C42 1.481 . S
C45 C46 1.387 . S
C45 C50 1.390 . S
C46 C45 1.387 . S
C46 C47 1.401 . S
C46 H67 0.930 . S
C47 C46 1.401 . S
C47 C48 1.376 . S
C47 C56 1.511 . S
C48 C47 1.376 . S
C48 C49 1.392 . S
C48 H69 0.931 . S
C49 C48 1.392 . S
C49 C50 1.361 . S
C49 C51 1.500 . S
C50 C45 1.390 . S
C50 C49 1.361 . S
C50 H68 0.931 . S
C51 C49 1.500 . S
C51 C52 1.371 . S
C51 C53 1.365 . S
C52 C51 1.371 . S
C52 C62 1.386 . S
C52 H70 0.931 . S
C53 C51 1.365 . S
C53 C54 1.409 . S
C53 H71 0.929 . S
C54 C53 1.409 . S
C54 C55 1.380 . S
C54 H72 0.930 . S
C55 C54 1.380 . S
C55 C62 1.357 . S
C56 C47 1.511 . S
C56 C57 1.341 . S
C56 C58 1.371 . S
C57 C56 1.341 . S
C57 C61 1.394 . S
C57 H73 0.930 . S
C58 C56 1.371 . S
C58 C59 1.392 . S
C58 H74 0.931 . S
C59 C58 1.392 . S
C59 C60 1.331 . S
C59 H77 0.932 . S
C60 C59 1.331 . S
C60 C61 1.336 . S
C61 C57 1.394 . S
C61 C60 1.336 . S
C61 H76 0.929 . S
C62 C52 1.386 . S
C62 C55 1.357 . S
C62 H75 0.928 . S
H63 C39 0.931 . S
H64 C41 0.930 . S
H65 C43 0.929 . S
H66 C44 0.931 . S
H67 C46 0.930 . S
H68 C50 0.931 . S
H69 C48 0.931 . S
H70 C52 0.931 . S
H71 C53 0.929 . S
H72 C54 0.930 . S
H73 C57 0.930 . S
H74 C58 0.931 . S
H75 C62 0.928 . S
H76 C61 0.929 . S
H77 C59 0.932 . S
C78 C79 1.386 . S
C78 C80 1.397 . S
C78 H102 0.931 . S
C79 C78 1.386 . S
C79 C83 1.397 . S
C80 C78 1.397 . S
C80 C81 1.384 . S
C80 H103 0.930 . S
C81 C80 1.384 . S
C81 C82 1.377 . S
C81 C84 1.481 . S
C82 C81 1.377 . S
C82 C83 1.389 . S
C82 H104 0.929 . S
C83 C79 1.397 . S
C83 C82 1.389 . S
C83 H105 0.931 . S
C84 C81 1.481 . S
C84 C85 1.387 . S
C84 C89 1.390 . S
C85 C84 1.387 . S
C85 C86 1.401 . S
C85 H106 0.930 . S
C86 C85 1.401 . S
C86 C87 1.376 . S
C86 C95 1.511 . S
C87 C86 1.376 . S
C87 C88 1.392 . S
C87 H108 0.931 . S
C88 C87 1.392 . S
C88 C89 1.361 . S
C88 C90 1.500 . S
C89 C84 1.390 . S
C89 C88 1.361 . S
C89 H107 0.931 . S
C90 C88 1.500 . S
C90 C91 1.371 . S
C90 C92 1.365 . S
C91 C90 1.371 . S
C91 C101 1.386 . S
C91 H109 0.931 . S
C92 C90 1.365 . S
C92 C93 1.409 . S
C92 H110 0.929 . S
C93 C92 1.409 . S
C93 C94 1.380 . S
C93 H111 0.930 . S
C94 C93 1.380 . S
C94 C101 1.357 . S
C95 C86 1.511 . S
C95 C96 1.341 . S
C95 C97 1.371 . S
C96 C95 1.341 . S
C96 C100 1.394 . S
C96 H112 0.930 . S
C97 C95 1.371 . S
C97 C98 1.392 . S
C97 H113 0.931 . S
C98 C97 1.392 . S
C98 C99 1.331 . S
C98 H116 0.932 . S
C99 C98 1.331 . S
C99 C100 1.336 . S
C100 C96 1.394 . S
C100 C99 1.336 . S
C100 H115 0.929 . S
C101 C91 1.386 . S
C101 C94 1.357 . S
C101 H114 0.928 . S
H102 C78 0.931 . S
H103 C80 0.930 . S
H104 C82 0.929 . S
H105 C83 0.931 . S
H106 C85 0.930 . S
H107 C89 0.931 . S
H108 C87 0.931 . S
H109 C91 0.931 . S
H110 C92 0.929 . S
H111 C93 0.930 . S
H112 C96 0.930 . S
H113 C97 0.931 . S
H114 C101 0.928 . S
H115 C100 0.929 . S
H116 C98 0.932 . S
C117 C118 1.386 . S
C117 C119 1.397 . S
C117 H141 0.931 . S
C118 C117 1.386 . S
C118 C122 1.397 . S
C119 C117 1.397 . S
C119 C120 1.384 . S
C119 H142 0.930 . S
C120 C119 1.384 . S
C120 C121 1.377 . S
C120 C123 1.481 . S
C121 C120 1.377 . S
C121 C122 1.389 . S
C121 H143 0.929 . S
C122 C118 1.397 . S
C122 C121 1.389 . S
C122 H144 0.931 . S
C123 C120 1.481 . S
C123 C124 1.387 . S
C123 C128 1.390 . S
C124 C123 1.387 . S
C124 C125 1.401 . S
C124 H145 0.930 . S
C125 C124 1.401 . S
C125 C126 1.376 . S
C125 C134 1.511 . S
C126 C125 1.376 . S
C126 C127 1.392 . S
C126 H147 0.931 . S
C127 C126 1.392 . S
C127 C128 1.361 . S
C127 C129 1.500 . S
C128 C123 1.390 . S
C128 C127 1.361 . S
C128 H146 0.931 . S
C129 C127 1.500 . S
C129 C130 1.371 . S
C129 C131 1.365 . S
C130 C129 1.371 . S
C130 C140 1.386 . S
C130 H148 0.931 . S
C131 C129 1.365 . S
C131 C132 1.409 . S
C131 H149 0.929 . S
C132 C131 1.409 . S
C132 C133 1.380 . S
C132 H150 0.930 . S
C133 C132 1.380 . S
C133 C140 1.357 . S
C134 C125 1.511 . S
C134 C135 1.341 . S
C134 C136 1.371 . S
C135 C134 1.341 . S
C135 C139 1.394 . S
C135 H151 0.930 . S
C136 C134 1.371 . S
C136 C137 1.392 . S
C136 H152 0.931 . S
C137 C136 1.392 . S
C137 C138 1.331 . S
C137 H155 0.932 . S
C138 C137 1.331 . S
C138 C139 1.336 . S
C139 C135 1.394 . S
C139 C138 1.336 . S
C139 H154 0.929 . S
C140 C130 1.386 . S
C140 C133 1.357 . S
C140 H153 0.928 . S
H141 C117 0.931 . S
H142 C119 0.930 . S
H143 C121 0.929 . S
H144 C122 0.931 . S
H145 C124 0.930 . S
H146 C128 0.931 . S
H147 C126 0.931 . S
H148 C130 0.931 . S
H149 C131 0.929 . S
H150 C132 0.930 . S
H151 C135 0.930 . S
H152 C136 0.931 . S
H153 C140 0.928 . S
H154 C139 0.929 . S
H155 C137 0.932 . S
C156 C157 1.386 . S
C156 C158 1.397 . S
C156 H180 0.931 . S
C157 C156 1.386 . S
C157 C161 1.397 . S
C158 C156 1.397 . S
C158 C159 1.384 . S
C158 H181 0.930 . S
C159 C158 1.384 . S
C159 C160 1.377 . S
C159 C162 1.481 . S
C160 C159 1.377 . S
C160 C161 1.389 . S
C160 H182 0.929 . S
C161 C157 1.397 . S
C161 C160 1.389 . S
C161 H183 0.931 . S
C162 C159 1.481 . S
C162 C163 1.387 . S
C162 C167 1.390 . S
C163 C162 1.387 . S
C163 C164 1.401 . S
C163 H184 0.930 . S
C164 C163 1.401 . S
C164 C165 1.376 . S
C164 C173 1.511 . S
C165 C164 1.376 . S
C165 C166 1.392 . S
C165 H186 0.931 . S
C166 C165 1.392 . S
C166 C167 1.361 . S
C166 C168 1.500 . S
C167 C162 1.390 . S
C167 C166 1.361 . S
C167 H185 0.931 . S
C168 C166 1.500 . S
C168 C169 1.371 . S
C168 C170 1.365 . S
C169 C168 1.371 . S
C169 C179 1.386 . S
C169 H187 0.931 . S
C170 C168 1.365 . S
C170 C171 1.409 . S
C170 H188 0.929 . S
C171 C170 1.409 . S
C171 C172 1.380 . S
C171 H189 0.930 . S
C172 C171 1.380 . S
C172 C179 1.357 . S
C173 C164 1.511 . S
C173 C174 1.341 . S
C173 C175 1.371 . S
C174 C173 1.341 . S
C174 C178 1.394 . S
C174 H190 0.930 . S
C175 C173 1.371 . S
C175 C176 1.392 . S
C175 H191 0.931 . S
C176 C175 1.392 . S
C176 C177 1.331 . S
C176 H194 0.932 . S
C177 C176 1.331 . S
C177 C178 1.336 . S
C178 C174 1.394 . S
C178 C177 1.336 . S
C178 H193 0.929 . S
C179 C169 1.386 . S
C179 C172 1.357 . S
C179 H192 0.928 . S
H180 C156 0.931 . S
H181 C158 0.930 . S
H182 C160 0.929 . S
H183 C161 0.931 . S
H184 C163 0.930 . S
H185 C167 0.931 . S
H186 C165 0.931 . S
H187 C169 0.931 . S
H188 C170 0.929 . S
H189 C171 0.930 . S
H190 C174 0.930 . S
H191 C175 0.931 . S
H192 C179 0.928 . S
H193 C178 0.929 . S
H194 C176 0.932 . S
C195 C196 1.386 . S
C195 C197 1.397 . S
C195 H219 0.931 . S
C196 C195 1.386 . S
C196 C200 1.397 . S
C197 C195 1.397 . S
C197 C198 1.384 . S
C197 H220 0.930 . S
C198 C197 1.384 . S
C198 C199 1.377 . S
C198 C201 1.481 . S
C199 C198 1.377 . S
C199 C200 1.389 . S
C199 H221 0.929 . S
C200 C196 1.397 . S
C200 C199 1.389 . S
C200 H222 0.931 . S
C201 C198 1.481 . S
C201 C202 1.387 . S
C201 C206 1.390 . S
C202 C201 1.387 . S
C202 C203 1.401 . S
C202 H223 0.930 . S
C203 C202 1.401 . S
C203 C204 1.376 . S
C203 C212 1.511 . S
C204 C203 1.376 . S
C204 C205 1.392 . S
C204 H225 0.931 . S
C205 C204 1.392 . S
C205 C206 1.361 . S
C205 C207 1.500 . S
C206 C201 1.390 . S
C206 C205 1.361 . S
C206 H224 0.931 . S
C207 C205 1.500 . S
C207 C208 1.371 . S
C207 C209 1.365 . S
C208 C207 1.371 . S
C208 C218 1.386 . S
C208 H226 0.931 . S
C209 C207 1.365 . S
C209 C210 1.409 . S
C209 H227 0.929 . S
C210 C209 1.409 . S
C210 C211 1.380 . S
C210 H228 0.930 . S
C211 C210 1.380 . S
C211 C218 1.357 . S
C212 C203 1.511 . S
C212 C213 1.341 . S
C212 C214 1.371 . S
C213 C212 1.341 . S
C213 C217 1.394 . S
C213 H229 0.930 . S
C214 C212 1.371 . S
C214 C215 1.392 . S
C214 H230 0.931 . S
C215 C214 1.392 . S
C215 C216 1.331 . S
C215 H233 0.932 . S
C216 C215 1.331 . S
C216 C217 1.336 . S
C217 C213 1.394 . S
C217 C216 1.336 . S
C217 H232 0.929 . S
C218 C208 1.386 . S
C218 C211 1.357 . S
C218 H231 0.928 . S
H219 C195 0.931 . S
H220 C197 0.930 . S
H221 C199 0.929 . S
H222 C200 0.931 . S
H223 C202 0.930 . S
H224 C206 0.931 . S
H225 C204 0.931 . S
H226 C208 0.931 . S
H227 C209 0.929 . S
H228 C210 0.930 . S
H229 C213 0.930 . S
H230 C214 0.931 . S
H231 C218 0.928 . S
H232 C217 0.929 . S
H233 C215 0.932 . S
C234 C235 1.386 . S
C234 C236 1.397 . S
C234 H258 0.931 . S
C235 C234 1.386 . S
C235 C239 1.397 . S
C236 C234 1.397 . S
C236 C237 1.384 . S
C236 H259 0.930 . S
C237 C236 1.384 . S
C237 C238 1.377 . S
C237 C240 1.481 . S
C238 C237 1.377 . S
C238 C239 1.389 . S
C238 H260 0.929 . S
C239 C235 1.397 . S
C239 C238 1.389 . S
C239 H261 0.931 . S
C240 C237 1.481 . S
C240 C241 1.387 . S
C240 C245 1.390 . S
C241 C240 1.387 . S
C241 C242 1.401 . S
C241 H262 0.930 . S
C242 C241 1.401 . S
C242 C243 1.376 . S
C242 C251 1.511 . S
C243 C242 1.376 . S
C243 C244 1.392 . S
C243 H264 0.931 . S
C244 C243 1.392 . S
C244 C245 1.361 . S
C244 C246 1.500 . S
C245 C240 1.390 . S
C245 C244 1.361 . S
C245 H263 0.931 . S
C246 C244 1.500 . S
C246 C247 1.371 . S
C246 C248 1.365 . S
C247 C246 1.371 . S
C247 C257 1.386 . S
C247 H265 0.931 . S
C248 C246 1.365 . S
C248 C249 1.409 . S
C248 H266 0.929 . S
C249 C248 1.409 . S
C249 C250 1.380 . S
C249 H267 0.930 . S
C250 C249 1.380 . S
C250 C257 1.357 . S
C251 C242 1.511 . S
C251 C252 1.341 . S
C251 C253 1.371 . S
C252 C251 1.341 . S
C252 C256 1.394 . S
C252 H268 0.930 . S
C253 C251 1.371 . S
C253 C254 1.392 . S
C253 H269 0.931 . S
C254 C253 1.392 . S
C254 C255 1.331 . S
C254 H272 0.932 . S
C255 C254 1.331 . S
C255 C256 1.336 . S
C256 C252 1.394 . S
C256 C255 1.336 . S
C256 H271 0.929 . S
C257 C247 1.386 . S
C257 C250 1.357 . S
C257 H270 0.928 . S
H258 C234 0.931 . S
H259 C236 0.930 . S
H260 C238 0.929 . S
H261 C239 0.931 . S
H262 C241 0.930 . S
H263 C245 0.931 . S
H264 C243 0.931 . S
H265 C247 0.931 . S
H266 C248 0.929 . S
H267 C249 0.930 . S
H268 C252 0.930 . S
H269 C253 0.931 . S
H270 C257 0.928 . S
H271 C256 0.929 . S
H272 C254 0.932 . S
C273 C274 1.386 . S
C273 C275 1.397 . S
C273 H297 0.931 . S
C274 C273 1.386 . S
C274 C278 1.397 . S
C275 C273 1.397 . S
C275 C276 1.384 . S
C275 H298 0.930 . S
C276 C275 1.384 . S
C276 C277 1.377 . S
C276 C279 1.481 . S
C277 C276 1.377 . S
C277 C278 1.389 . S
C277 H299 0.929 . S
C278 C274 1.397 . S
C278 C277 1.389 . S
C278 H300 0.931 . S
C279 C276 1.481 . S
C279 C280 1.387 . S
C279 C284 1.390 . S
C280 C279 1.387 . S
C280 C281 1.401 . S
C280 H301 0.930 . S
C281 C280 1.401 . S
C281 C282 1.376 . S
C281 C290 1.511 . S
C282 C281 1.376 . S
C282 C283 1.392 . S
C282 H303 0.931 . S
C283 C282 1.392 . S
C283 C284 1.361 . S
C283 C285 1.500 . S
C284 C279 1.390 . S
C284 C283 1.361 . S
C284 H302 0.931 . S
C285 C283 1.500 . S
C285 C286 1.371 . S
C285 C287 1.365 . S
C286 C285 1.371 . S
C286 C296 1.386 . S
C286 H304 0.931 . S
C287 C285 1.365 . S
C287 C288 1.409 . S
C287 H305 0.929 . S
C288 C287 1.409 . S
C288 C289 1.380 . S
C288 H306 0.930 . S
C289 C288 1.380 . S
C289 C296 1.357 . S
C290 C281 1.511 . S
C290 C291 1.341 . S
C290 C292 1.371 . S
C291 C290 1.341 . S
C291 C295 1.394 . S
C291 H307 0.930 . S
C292 C290 1.371 . S
C292 C293 1.392 . S
C292 H308 0.931 . S
C293 C292 1.392 . S
C293 C294 1.331 . S
C293 H311 0.932 . S
C294 C293 1.331 . S
C294 C295 1.336 . S
C295 C291 1.394 . S
C295 C294 1.336 . S
C295 H310 0.929 . S
C296 C286 1.386 . S
C296 C289 1.357 . S
C296 H309 0.928 . S
H297 C273 0.931 . S
H298 C275 0.930 . S
H299 C277 0.929 . S
H300 C278 0.931 . S
H301 C280 0.930 . S
H302 C284 0.931 . S
H303 C282 0.931 . S
H304 C286 0.931 . S
H305 C287 0.929 . S
H306 C288 0.930 . S
H307 C291 0.930 . S
H308 C292 0.931 . S
H309 C296 0.928 . S
H310 C295 0.929 . S
H311 C293 0.932 . S
C312 O314 1.247 . S
C312 O316 1.258 . S
C313 O320 1.247 . S
C313 O321 1.258 . S
O314 C312 1.247 . S
O314 Zn315 2.028 1_655 S
Zn315 O314 2.028 1_455 S
Zn315 O319 2.035 . S
Zn315 O321 2.035 . S
Zn315 O322 2.028 1_455 S
O316 C312 1.258 . S
O316 Zn317 2.035 1_655 S
Zn317 O316 2.035 1_455 S
Zn317 O318 2.028 . S
Zn317 O320 2.028 . S
Zn317 O323 2.035 1_455 S
O318 Zn317 2.028 . S
O318 C324 1.247 . S
O319 Zn315 2.035 . S
O319 C324 1.258 . S
O320 C313 1.247 . S
O320 Zn317 2.028 . S
O321 C313 1.258 . S
O321 Zn315 2.035 . S
O322 Zn315 2.028 1_655 S
O322 C325 1.247 . S
O323 Zn317 2.035 1_655 S
O323 C325 1.258 . S
C324 O318 1.247 . S
C324 O319 1.258 . S
C325 O322 1.247 . S
C325 O323 1.258 . S
C326 O328 1.247 . S
C326 O330 1.258 . S
C327 O334 1.247 . S
C327 O335 1.258 . S
O328 C326 1.247 . S
O328 Zn329 2.028 1_655 S
Zn329 O328 2.028 1_455 S
Zn329 O333 2.035 . S
Zn329 O335 2.035 . S
Zn329 O336 2.028 1_455 S
O330 C326 1.258 . S
O330 Zn331 2.035 1_655 S
Zn331 O330 2.035 1_455 S
Zn331 O332 2.028 . S
Zn331 O334 2.028 . S
Zn331 O337 2.035 1_455 S
O332 Zn331 2.028 . S
O332 C338 1.247 . S
O333 Zn329 2.035 . S
O333 C338 1.258 . S
O334 C327 1.247 . S
O334 Zn331 2.028 . S
O335 C327 1.258 . S
O335 Zn329 2.035 . S
O336 Zn329 2.028 1_655 S
O336 C339 1.247 . S
O337 Zn331 2.035 1_655 S
O337 C339 1.258 . S
C338 O332 1.247 . S
C338 O333 1.258 . S
C339 O336 1.247 . S
C339 O337 1.258 . S
C340 O342 1.247 . S
C340 O344 1.258 . S
C341 O348 1.247 . S
C341 O349 1.258 . S
O342 C340 1.247 . S
O342 Zn343 2.028 1_565 S
Zn343 O342 2.028 1_545 S
Zn343 O347 2.035 . S
Zn343 O349 2.035 . S
Zn343 O350 2.028 1_545 S
O344 C340 1.258 . S
O344 Zn345 2.035 1_565 S
Zn345 O344 2.035 1_545 S
Zn345 O346 2.028 . S
Zn345 O348 2.028 . S
Zn345 O351 2.035 1_545 S
O346 Zn345 2.028 . S
O346 C352 1.247 . S
O347 Zn343 2.035 . S
O347 C352 1.258 . S
O348 C341 1.247 . S
O348 Zn345 2.028 . S
O349 C341 1.258 . S
O349 Zn343 2.035 . S
O350 Zn343 2.028 1_565 S
O350 C353 1.247 . S
O351 Zn345 2.035 1_565 S
O351 C353 1.258 . S
C352 O346 1.247 . S
C352 O347 1.258 . S
C353 O350 1.247 . S
C353 O351 1.258 . S
C354 O356 1.247 . S
C354 O358 1.258 . S
C355 O362 1.247 . S
C355 O363 1.258 . S
O356 C354 1.247 . S
O356 Zn357 2.028 . S
Zn357 O356 2.028 . S
Zn357 O361 2.035 . S
Zn357 O363 2.035 1_554 S
Zn357 O364 2.028 1_554 S
O358 C354 1.258 . S
O358 Zn359 2.035 . S
Zn359 O358 2.035 . S
Zn359 O360 2.028 . S
Zn359 O362 2.028 1_554 S
Zn359 O365 2.035 1_554 S
O360 Zn359 2.028 . S
O360 C366 1.247 . S
O361 Zn357 2.035 . S
O361 C366 1.258 . S
O362 C355 1.247 . S
O362 Zn359 2.028 1_556 S
O363 C355 1.258 . S
O363 Zn357 2.035 1_556 S
O364 Zn357 2.028 1_556 S
O364 C367 1.247 . S
O365 Zn359 2.035 1_556 S
O365 C367 1.258 . S
C366 O360 1.247 . S
C366 O361 1.258 . S
C367 O364 1.247 . S
C367 O365 1.258 . S
C368 O370 1.247 . S
C368 O372 1.258 . S
C369 O376 1.247 . S
C369 O377 1.258 . S
O370 C368 1.247 . S
O370 Zn371 2.028 1_565 S
Zn371 O370 2.028 1_545 S
Zn371 O375 2.035 . S
Zn371 O377 2.035 . S
Zn371 O378 2.028 1_545 S
O372 C368 1.258 . S
O372 Zn373 2.035 1_565 S
Zn373 O372 2.035 1_545 S
Zn373 O374 2.028 . S
Zn373 O376 2.028 . S
Zn373 O379 2.035 1_545 S
O374 Zn373 2.028 . S
O374 C380 1.247 . S
O375 Zn371 2.035 . S
O375 C380 1.258 . S
O376 C369 1.247 . S
O376 Zn373 2.028 . S
O377 C369 1.258 . S
O377 Zn371 2.035 . S
O378 Zn371 2.028 1_565 S
O378 C381 1.247 . S
O379 Zn373 2.035 1_565 S
O379 C381 1.258 . S
C380 O374 1.247 . S
C380 O375 1.258 . S
C381 O378 1.247 . S
C381 O379 1.258 . S
C382 O384 1.247 . S
C382 O386 1.258 . S
C383 O390 1.247 . S
C383 O391 1.258 . S
O384 C382 1.247 . S
O384 Zn385 2.028 . S
Zn385 O384 2.028 . S
Zn385 O389 2.035 . S
Zn385 O391 2.035 1_554 S
Zn385 O392 2.028 1_554 S
O386 C382 1.258 . S
O386 Zn387 2.035 . S
Zn387 O386 2.035 . S
Zn387 O388 2.028 . S
Zn387 O390 2.028 1_554 S
Zn387 O393 2.035 1_554 S
O388 Zn387 2.028 . S
O388 C394 1.247 . S
O389 Zn385 2.035 . S
O389 C394 1.258 . S
O390 C383 1.247 . S
O390 Zn387 2.028 1_556 S
O391 C383 1.258 . S
O391 Zn385 2.035 1_556 S
O392 Zn385 2.028 1_556 S
O392 C395 1.247 . S
O393 Zn387 2.035 1_556 S
O393 C395 1.258 . S
C394 O388 1.247 . S
C394 O389 1.258 . S
C395 O392 1.247 . S
C395 O393 1.258 . S
C324 C16 1.538 . S
C327 C55 1.526 . S
C325 C99 1.537 . S
C326 C138 1.510 . S
C341 C1 1.532 . S
C355 C40 1.504 . S
C94 C381 1.521 . S
C395 C133 1.503 . S
C340 C60 1.511 . S
C79 C354 1.514 . S
C380 C118 1.509 . S
C394 C21 1.513 . S
C177 C339 1.526 . S
C312 C211 1.526 . S
C255 C338 1.524 . S
C289 C313 1.536 . S
C368 C157 1.513 . S
C382 C196 1.513 . S
C352 C250 1.531 . S
C294 C366 1.504 . S
C369 C216 1.517 . S
C383 C235 1.505 . S
C353 C274 1.527 . S
C172 C367 1.511 . S
