# Generated by pormake.
# Topology zzz, (3,6)-cn, num edge types: 1
# Building blocks:
#     Node 0, Type 0, BuildingBlock: PAMTOO_clean_linker_0, # of connection points: 3
#     Node 1, Type 0, BuildingBlock: PAMTOO_clean_linker_0, # of connection points: 3
#     Node 2, Type 0, BuildingBlock: PAMTOO_clean_linker_0, # of connection points: 3
#     Node 3, Type 0, BuildingBlock: PAMTOO_clean_linker_0, # of connection points: 3
#     Node 4, Type 0, BuildingBlock: PAMTOO_clean_linker_0, # of connection points: 3
#     Node 5, Type 0, BuildingBlock: PAMTOO_clean_linker_0, # of connection points: 3
#     Node 6, Type 0, BuildingBlock: PAMTOO_clean_linker_0, # of connection points: 3
#     Node 7, Type 0, BuildingBlock: PAMTOO_clean_linker_0, # of connection points: 3
#     Node 8, Type 1, BuildingBlock: BETDIP_clean_sbu_0, # of connection points: 6
#     Node 9, Type 1, BuildingBlock: BETDIP_clean_sbu_0, # of connection points: 6
#     Node 10, Type 1, BuildingBlock: BETDIP_clean_sbu_0, # of connection points: 6
#     Node 11, Type 1, BuildingBlock: BETDIP_clean_sbu_0, # of connection points: 6
#     Edge 12, Type (0, 1), BuildingBlock: XUDNAN_clean_linker_2, # of connection points: 2
#     Edge 13, Type (0, 1), BuildingBlock: XUDNAN_clean_linker_2, # of connection points: 2
#     Edge 14, Type (0, 1), BuildingBlock: XUDNAN_clean_linker_2, # of connection points: 2
#     Edge 15, Type (0, 1), BuildingBlock: XUDNAN_clean_linker_2, # of connection points: 2
#     Edge 16, Type (0, 1), BuildingBlock: XUDNAN_clean_linker_2, # of connection points: 2
#     Edge 17, Type (0, 1), BuildingBlock: XUDNAN_clean_linker_2, # of connection points: 2
#     Edge 18, Type (0, 1), BuildingBlock: XUDNAN_clean_linker_2, # of connection points: 2
#     Edge 19, Type (0, 1), BuildingBlock: XUDNAN_clean_linker_2, # of connection points: 2
#     Edge 20, Type (0, 1), BuildingBlock: XUDNAN_clean_linker_2, # of connection points: 2
#     Edge 21, Type (0, 1), BuildingBlock: XUDNAN_clean_linker_2, # of connection points: 2
#     Edge 22, Type (0, 1), BuildingBlock: XUDNAN_clean_linker_2, # of connection points: 2
#     Edge 23, Type (0, 1), BuildingBlock: XUDNAN_clean_linker_2, # of connection points: 2
#     Edge 24, Type (0, 1), BuildingBlock: XUDNAN_clean_linker_2, # of connection points: 2
#     Edge 25, Type (0, 1), BuildingBlock: XUDNAN_clean_linker_2, # of connection points: 2
#     Edge 26, Type (0, 1), BuildingBlock: XUDNAN_clean_linker_2, # of connection points: 2
#     Edge 27, Type (0, 1), BuildingBlock: XUDNAN_clean_linker_2, # of connection points: 2
#     Edge 28, Type (0, 1), BuildingBlock: XUDNAN_clean_linker_2, # of connection points: 2
#     Edge 29, Type (0, 1), BuildingBlock: XUDNAN_clean_linker_2, # of connection points: 2
#     Edge 30, Type (0, 1), BuildingBlock: XUDNAN_clean_linker_2, # of connection points: 2
#     Edge 31, Type (0, 1), BuildingBlock: XUDNAN_clean_linker_2, # of connection points: 2
#     Edge 32, Type (0, 1), BuildingBlock: XUDNAN_clean_linker_2, # of connection points: 2
#     Edge 33, Type (0, 1), BuildingBlock: XUDNAN_clean_linker_2, # of connection points: 2
#     Edge 34, Type (0, 1), BuildingBlock: XUDNAN_clean_linker_2, # of connection points: 2
#     Edge 35, Type (0, 1), BuildingBlock: XUDNAN_clean_linker_2, # of connection points: 2
# Relax obj value: 0.265
# Max RMSD: 0.168
# Mean RMSD: 0.147
data_MOF--net-zzz--node1-BETDIP_clean_sbu_0--node2-PAMTOO_clean_linker_0--edge1-XUDNAN_clean_linker_2
_symmetry_space_group_name_H-M    P1
_symmetry_Int_Tables_number       1
_symmetry_cell_setting            triclinic
loop_
_symmetry_equiv_pos_as_xyz
'x, y, z'
_cell_length_a     51.443336
_cell_length_b     51.48653
_cell_length_c     13.500854
_cell_angle_alpha  89.706648
_cell_angle_beta   89.446972
_cell_angle_gamma 90.222858
loop_
_atom_site_label
_atom_site_type_symbol
_atom_site_fract_x
_atom_site_fract_y
_atom_site_fract_z
_atom_type_partial_charge
H0 H 0.82183 0.46881 0.3515 0.0
H1 H 0.74723 0.47592 0.21303 0.0
H2 H 0.77136 0.5318 0.43029 0.0
H3 H 0.70463 0.5215 0.40108 0.0
C4 C 0.70939 0.51176 0.33001 0.0
O5 O 0.73445 0.51878 0.30078 0.0
H6 H 0.70817 0.4904 0.34276 0.0
C7 C 0.8032 0.4784 0.34514 0.0
C8 C 0.79903 0.50104 0.39991 0.0
C9 C 0.78471 0.46883 0.27848 0.0
C10 C 0.76134 0.4824 0.26669 0.0
C11 C 0.75616 0.50481 0.32199 0.0
C12 C 0.77492 0.51401 0.39003 0.0
H13 H 0.07617 0.81426 0.35794 0.0
H14 H 0.06819 0.74264 0.20001 0.0
H15 H 1.00721 0.76753 0.39767 0.0
H16 H 1.00325 0.70436 0.35871 0.0
C17 C 1.02254 0.70704 0.32237 0.0
O18 O 1.02257 0.73063 0.27213 0.0
H19 H 0.03717 0.70735 0.38271 0.0
C20 C 0.0656 0.79629 0.34638 0.0
C21 C 0.04097 0.79304 0.39038 0.0
C22 C 0.07547 0.77844 0.27757 0.0
C23 C 0.06109 0.75607 0.25553 0.0
C24 C 0.03677 0.7517 0.30021 0.0
C25 C 0.02649 0.77041 0.36658 0.0
H26 H 0.73372 0.03345 0.28777 0.0
H27 H 0.81391 1.01901 0.22058 0.0
H28 H 0.78535 1.00897 0.51988 0.0
H29 H 0.86028 1.01881 0.46298 0.0
C30 C 0.84943 1.02113 0.39284 0.0
O31 O 0.8271 1.00571 0.3985 0.0
H32 H 0.84419 0.04204 0.38641 0.0
C33 C 0.7529 0.02795 0.31316 0.0
C34 C 0.7563 1.02068 0.41242 0.0
C35 C 0.77367 0.02787 0.24506 0.0
C36 C 0.79822 1.02 0.27454 0.0
C37 C 0.80289 1.01396 0.37374 0.0
C38 C 0.78193 1.01451 0.44366 0.0
H39 H 0.47333 0.72726 0.33792 0.0
H40 H 0.48808 0.79844 0.17995 0.0
H41 H 0.53708 0.77646 0.4233 0.0
H42 H 0.53326 0.84383 0.36951 0.0
C43 C 0.52171 0.83735 0.30507 0.0
O44 O 0.5285 0.81195 0.28247 0.0
H45 H 0.50076 0.83848 0.32631 0.0
C46 C 0.48424 0.74526 0.33012 0.0
C47 C 0.50588 0.74946 0.39018 0.0
C48 C 0.4775 0.76291 0.25549 0.0
C49 C 0.49243 0.78537 0.24073 0.0
C50 C 0.5134 0.79084 0.30291 0.0
C51 C 0.52011 0.77289 0.37842 0.0
H52 H 0.22557 0.5631 0.19098 0.0
H53 H 0.3032 0.55889 0.30328 0.0
H54 H 0.27976 0.50829 0.06627 0.0
H55 H 0.33048 0.48512 0.20449 0.0
C56 C 0.32743 0.50316 0.24772 0.0
O57 O 0.31899 0.52255 0.18375 0.0
H58 H 0.31223 0.49881 0.30493 0.0
C59 C 0.24474 0.55436 0.18835 0.0
C60 C 0.24985 0.53442 0.12077 0.0
C61 C 0.2638 0.56327 0.25338 0.0
C62 C 0.28854 0.55222 0.25208 0.0
C63 C 0.29447 0.53237 0.18503 0.0
C64 C 0.27515 0.52354 0.11841 0.0
H65 H 0.96949 0.22252 0.17525 0.0
H66 H 0.98185 0.29644 0.31283 0.0
H67 H 0.03309 0.27135 0.07784 0.0
H68 H 0.9935 0.33447 0.16993 0.0
C69 C 1.01492 0.33398 0.18124 0.0
O70 O 1.02274 0.30913 0.20864 0.0
H71 H 0.02444 0.33924 0.1097 0.0
C72 C 0.98027 0.24065 0.17883 0.0
C73 C 1.00228 0.24415 0.1182 0.0
C74 C 0.97256 0.25951 0.2475 0.0
C75 C 0.98705 0.28237 0.25663 0.0
C76 C 1.0084 0.28721 0.19393 0.0
C77 C 1.01598 0.26811 0.12369 0.0
H78 H 0.31839 0.05042 0.2152 0.0
H79 H 0.23791 0.05107 0.2925 0.0
H80 H 0.26214 1.01776 0.01439 0.0
H81 H 0.22107 0.99619 0.23545 0.0
C82 C 0.208 1.00719 0.18521 0.0
O83 O 0.22163 0.027 0.1363 0.0
H84 H 0.20096 0.99329 0.12875 0.0
C85 C 0.29863 0.04632 0.1931 0.0
C86 C 0.29358 0.03444 0.10156 0.0
C87 C 0.27872 0.05291 0.25973 0.0
C88 C 0.25313 0.04624 0.23982 0.0
C89 C 0.24708 0.03288 0.15311 0.0
C90 C 0.26723 0.02714 0.08307 0.0
H91 H 0.56318 0.3225 0.20786 0.0
H92 H 0.55541 0.24447 0.31906 0.0
H93 H 0.50765 0.27046 0.07766 0.0
H94 H 0.4818 0.21912 0.21762 0.0
C95 C 0.49989 0.22201 0.26045 0.0
O96 O 0.51938 0.23052 0.19595 0.0
H97 H 0.49575 0.23697 0.31783 0.0
C98 C 0.5541 0.30348 0.20421 0.0
C99 C 0.53456 0.2992 0.1346 0.0
C100 C 0.56186 0.28397 0.27044 0.0
C101 C 0.54979 0.25959 0.26749 0.0
C102 C 0.53019 0.25463 0.1986 0.0
C103 C 0.52267 0.27438 0.13127 0.0
Tb104 Tb 0.03713 1.0135 0.81975 0.0
Tb105 Tb 1.00069 0.02397 0.67434 0.0
C106 C 0.06366 0.99434 0.95761 0.0
C107 C 0.08051 0.97154 0.96607 0.0
C108 C 0.08742 0.95695 0.8823 0.0
C109 C 0.10189 0.93416 0.8928 0.0
C110 C 0.10977 0.92577 0.98717 0.0
C111 C 0.10346 0.94101 0.07016 0.0
C112 C 0.08889 0.96364 0.05957 0.0
C113 C 0.05968 0.02988 0.65248 0.0
C114 C 1.01805 0.96727 0.67598 0.0
C115 C 0.97258 0.04359 0.5425 0.0
C116 C 0.96041 0.06936 0.53452 0.0
C117 C 0.97566 0.09199 0.53478 0.0
C118 C 0.96397 0.11629 0.53702 0.0
C119 C 0.93671 0.11863 0.5399 0.0
C120 C 0.92141 0.09596 0.53786 0.0
C121 C 0.93319 0.07153 0.53502 0.0
C122 C 0.97893 1.00717 0.84279 0.0
C123 C 1.01926 0.07053 0.81099 0.0
O124 O 0.03896 0.98942 0.94537 0.0
O125 O 0.07203 1.01272 0.89853 0.0
O126 O 0.04113 1.01373 0.65962 0.0
O127 O 0.06582 0.03721 0.74041 0.0
O128 O 0.02914 0.97367 0.76095 0.0
O129 O 1.00797 0.9854 0.61959 0.0
O130 O 0.99797 0.04274 0.53646 0.0
O131 O 0.96359 0.02905 0.61434 0.0
O132 O 0.99699 0.02379 0.83494 0.0
O133 O 0.97325 0.99913 0.75526 0.0
O134 O 1.01124 0.0636 0.72229 0.0
O135 O 0.02695 0.05237 0.8734 0.0
H136 H 0.0811 0.96285 0.80928 0.0
H137 H 0.10633 0.92276 0.82762 0.0
H138 H 0.10856 0.93471 0.14407 0.0
H139 H 0.0834 0.97455 0.12472 0.0
H140 H 0.99669 0.09104 0.53415 0.0
H141 H 0.97644 0.13329 0.5347 0.0
H142 H 0.9004 0.09709 0.53919 0.0
H143 H 0.92104 0.05429 0.53501 0.0
Tb144 Tb 0.52646 0.03278 0.83199 0.0
Tb145 Tb 0.51758 1.00695 0.64306 0.0
C146 C 0.54578 0.04407 0.99538 0.0
C147 C 0.57342 0.04903 0.01612 0.0
C148 C 0.58847 0.02894 0.0561 0.0
C149 C 0.61541 0.02949 0.04562 0.0
C150 C 0.6277 0.05033 0.99651 0.0
C151 C 0.61298 0.0719 0.96769 0.0
C152 C 0.58597 0.07122 0.97696 0.0
C153 C 0.51554 0.06496 0.68469 0.0
C154 C 0.57569 1.01892 0.68647 0.0
C155 C 0.49758 1.0009 0.47824 0.0
C156 C 0.47389 1.01519 0.45047 0.0
C157 C 0.47382 0.04249 0.45621 0.0
C158 C 0.45067 0.05601 0.46877 0.0
C159 C 0.42686 0.04265 0.47203 0.0
C160 C 0.42677 1.01563 0.4548 0.0
C161 C 0.45008 1.002 0.44517 0.0
C162 C 0.52998 0.97443 0.78553 0.0
C163 C 0.46894 1.02202 0.78728 0.0
O164 O 0.54048 1.02019 0.96898 0.0
O165 O 0.53418 0.06111 0.93893 0.0
O166 O 0.52956 0.045 0.68145 0.0
O167 O 0.50781 0.06825 0.77549 0.0
O168 O 0.5668 0.0274 0.77355 0.0
O169 O 0.55947 1.01028 0.61865 0.0
O170 O 0.51831 1.01529 0.49088 0.0
O171 O 0.49436 0.98399 0.5503 0.0
O172 O 0.51526 0.99399 0.79415 0.0
O173 O 0.5364 0.97154 0.69294 0.0
O174 O 0.47765 1.01734 0.69603 0.0
O175 O 0.48537 0.02619 0.85978 0.0
H176 H 0.57932 1.01181 0.08809 0.0
H177 H 0.62654 1.01306 0.07193 0.0
H178 H 0.62213 0.08837 0.93103 0.0
H179 H 0.57495 0.08721 0.94647 0.0
H180 H 0.49176 0.0534 0.45897 0.0
H181 H 0.45171 0.07675 0.48099 0.0
H182 H 0.40874 1.00476 0.45191 0.0
H183 H 0.44952 0.981 0.44049 0.0
Tb184 Tb 0.50771 0.52867 0.84235 0.0
Tb185 Tb 0.54161 0.52087 0.68419 0.0
C186 C 0.4816 0.54623 0.98508 0.0
C187 C 0.4637 0.56825 0.98585 0.0
C188 C 0.4542 0.57819 0.07532 0.0
C189 C 0.44021 0.6014 0.07578 0.0
C190 C 0.43582 0.615 0.98675 0.0
C191 C 0.44402 0.60408 0.89679 0.0
C192 C 0.45775 0.5808 0.89633 0.0
C193 C 0.48256 0.51582 0.67715 0.0
C194 C 0.52341 0.57709 0.70414 0.0
C195 C 0.56724 0.50248 0.54223 0.0
C196 C 0.58296 0.4788 0.54106 0.0
C197 C 0.58536 0.4644 0.45405 0.0
C198 C 0.59646 0.43971 0.45662 0.0
C199 C 0.60515 0.42898 0.5467 0.0
C200 C 0.60383 0.44407 0.6329 0.0
C201 C 0.59277 0.46876 0.63015 0.0
C202 C 0.56652 0.535 0.84721 0.0
C203 C 0.52593 0.47258 0.82262 0.0
O204 O 0.50594 0.55234 0.96833 0.0
O205 O 0.4742 0.52655 0.93177 0.0
O206 O 0.50147 0.53133 0.68377 0.0
O207 O 0.47735 0.50708 0.76474 0.0
O208 O 0.5167 0.5691 0.79425 0.0
O209 O 0.53035 0.55976 0.63753 0.0
O210 O 0.54231 0.49853 0.55454 0.0
O211 O 0.57582 0.52109 0.5985 0.0
O212 O 0.54822 0.51858 0.84298 0.0
O213 O 0.57089 0.54398 0.75933 0.0
O214 O 0.53259 0.48052 0.73255 0.0
O215 O 0.51917 0.48994 0.8892 0.0
H216 H 0.45862 0.56868 0.1449 0.0
H217 H 0.43445 0.60963 0.14632 0.0
H218 H 0.44094 0.61422 0.82738 0.0
H219 H 0.46476 0.5732 0.82636 0.0
H220 H 0.5774 0.47165 0.38531 0.0
H221 H 0.59662 0.4284 0.38919 0.0
H222 H 0.61033 0.43635 0.70318 0.0
H223 H 0.59077 0.4795 0.69863 0.0
Tb224 Tb 1.02019 0.50034 0.836 0.0
Tb225 Tb 0.02906 0.53504 0.67964 0.0
C226 C 1.00184 0.47468 0.97982 0.0
C227 C 0.97636 0.46192 0.99318 0.0
C228 C 0.95354 0.47508 0.96766 0.0
C229 C 0.92978 0.46213 0.96751 0.0
C230 C 0.92817 0.43576 0.99418 0.0
C231 C 0.9508 0.42273 0.02353 0.0
C232 C 0.97482 0.43569 0.02205 0.0
C233 C 0.03442 0.47616 0.67089 0.0
C234 C 0.97245 0.5178 0.70075 0.0
C235 C 0.04696 0.56155 0.53776 0.0
C236 C 0.06915 0.57944 0.5366 0.0
C237 C 0.07912 0.58913 0.44698 0.0
C238 C 0.1026 0.60289 0.44559 0.0
C239 C 0.11643 0.6068 0.53383 0.0
C240 C 0.10544 0.5985 0.62414 0.0
C241 C 0.08189 0.58501 0.62554 0.0
C242 C 1.0179 0.55934 0.85001 0.0
C243 C 0.07737 0.51723 0.81223 0.0
O244 O 1.00193 0.50008 0.97575 0.0
O245 O 1.01651 0.46464 0.91084 0.0
O246 O 1.01825 0.4946 0.6765 0.0
O247 O 0.04316 0.47137 0.75832 0.0
O248 O 0.98013 0.51099 0.7905 0.0
O249 O 0.99009 0.52421 0.63372 0.0
O250 O 0.05293 0.5372 0.55295 0.0
O251 O 0.0273 0.5688 0.59247 0.0
O252 O 0.03241 0.53997 0.83796 0.0
O253 O 1.00902 0.56562 0.76423 0.0
O254 O 0.06944 0.5253 0.72415 0.0
O255 O 0.05996 0.50959 0.87871 0.0
H256 H 0.95401 0.49537 0.94675 0.0
H257 H 0.91252 0.47294 0.94796 0.0
H258 H 0.94995 0.40253 0.04621 0.0
H259 H 0.99222 0.42517 0.04195 0.0
H260 H 0.06947 0.58496 0.37783 0.0
H261 H 0.11085 0.60875 0.37476 0.0
H262 H 0.11575 0.60122 0.69294 0.0
H263 H 0.07428 0.57781 0.69562 0.0
H264 H 0.16997 0.97791 0.27705 0.0
H265 H 0.19334 0.05823 0.23351 0.0
H266 H 0.15681 0.0723 0.34013 0.0
H267 H 0.09961 0.98964 0.2779 0.0
H268 H 0.09317 0.96515 0.37085 0.0
H269 H 0.12071 0.96186 0.28832 0.0
H270 H 0.15091 0.95798 0.44043 0.0
H271 H 0.12339 0.96175 0.52248 0.0
H272 H 0.15084 0.98344 0.53164 0.0
H273 H 0.11896 0.07758 0.46102 0.0
H274 H 0.08268 0.07361 0.58204 0.0
H275 H 0.08173 0.99022 0.54177 0.0
C276 C 0.16722 0.9985 0.28924 0.0
C277 C 0.18469 1.01687 0.2461 0.0
C278 C 0.18048 0.04363 0.26497 0.0
C279 C 0.15964 0.05185 0.32561 0.0
C280 C 0.1429 0.0332 0.36701 0.0
C281 C 0.14638 1.00705 0.34923 0.0
C282 C 0.12585 0.99094 0.40406 0.0
C283 C 0.10882 0.97598 0.33086 0.0
C284 C 0.13851 0.97244 0.47911 0.0
C285 C 0.11033 1.01205 0.45605 0.0
C286 C 0.12059 0.0363 0.43386 0.0
C287 C 0.11057 0.05872 0.47734 0.0
C288 C 0.08986 0.05631 0.54575 0.0
C289 C 0.07887 0.03176 0.56926 0.0
C290 C 0.08914 1.00935 0.52279 0.0
H291 H 0.47944 0.20192 0.43352 0.0
H292 H 0.53456 0.18362 0.19931 0.0
H293 H 0.54381 0.14159 0.28075 0.0
H294 H 0.51471 0.17357 0.63548 0.0
H295 H 0.48615 0.16102 0.69787 0.0
H296 H 0.48388 0.18963 0.62117 0.0
H297 H 0.44776 0.16751 0.51835 0.0
H298 H 0.45 0.13883 0.59481 0.0
H299 H 0.45395 0.13638 0.46246 0.0
H300 H 0.54743 0.10146 0.38941 0.0
H301 H 0.54516 0.06665 0.51589 0.0
H302 H 0.48716 0.11036 0.67924 0.0
C303 C 0.49365 0.18914 0.39997 0.0
C304 C 0.50678 0.19649 0.3113 0.0
C305 C 0.52469 0.17886 0.26826 0.0
C306 C 0.52997 0.15483 0.31384 0.0
C307 C 0.51691 0.14837 0.40177 0.0
C308 C 0.49902 0.16499 0.44424 0.0
C309 C 0.48746 0.15327 0.53853 0.0
C310 C 0.49341 0.17039 0.62859 0.0
C311 C 0.45805 0.14874 0.52785 0.0
C312 C 0.50196 0.12767 0.54357 0.0
C313 C 0.51873 0.12516 0.46353 0.0
C314 C 0.53431 0.10325 0.45213 0.0
C315 C 0.53288 0.08354 0.52445 0.0
C316 C 0.51594 0.0857 0.60742 0.0
C317 C 0.50025 0.10811 0.61663 0.0
H318 H 0.34374 0.4883 0.43274 0.0
H319 H 0.36941 0.53205 0.17463 0.0
H320 H 0.41194 0.53997 0.25441 0.0
H321 H 0.3757 0.52783 0.61782 0.0
H322 H 0.38385 0.50034 0.69449 0.0
H323 H 0.35541 0.4992 0.61785 0.0
H324 H 0.37247 0.4571 0.53598 0.0
H325 H 0.40106 0.45824 0.61177 0.0
H326 H 0.40429 0.45703 0.47882 0.0
H327 H 0.45246 0.54266 0.36539 0.0
H328 H 0.48626 0.53992 0.49499 0.0
H329 H 0.43407 0.49332 0.67744 0.0
C330 C 0.35816 0.49993 0.39366 0.0
C331 C 0.35287 0.51021 0.29846 0.0
C332 C 0.37266 0.52456 0.24856 0.0
C333 C 0.39696 0.52903 0.29324 0.0
C334 C 0.40143 0.5187 0.38753 0.0
C335 C 0.3825 0.50443 0.43699 0.0
C336 C 0.39221 0.4949 0.53655 0.0
C337 C 0.37582 0.50625 0.6217 0.0
C338 C 0.39253 0.46504 0.54098 0.0
C339 C 0.41959 0.50598 0.53585 0.0
C340 C 0.42462 0.51971 0.44944 0.0
C341 C 0.44864 0.5319 0.43308 0.0
C342 C 0.46778 0.53019 0.50703 0.0
C343 C 0.46294 0.51633 0.59633 0.0
C344 C 0.43851 0.50396 0.60993 0.0
H345 H 0.98665 0.37649 0.24906 0.0
H346 H 0.06082 0.33794 0.28375 0.0
H347 H 0.07421 0.37155 0.40333 0.0
H348 H 1.01165 0.44248 0.26348 0.0
H349 H 0.9842 0.45484 0.33236 0.0
H350 H 0.97999 0.42791 0.24924 0.0
H351 H 0.96041 0.40005 0.39105 0.0
H352 H 0.9641 0.42693 0.47462 0.0
H353 H 0.97833 0.39593 0.50415 0.0
H354 H 0.07921 0.40822 0.52265 0.0
H355 H 0.07546 0.44514 0.63729 0.0
H356 H 0.99849 0.46184 0.5259 0.0
C357 C 1.00563 0.37503 0.2826 0.0
C358 C 1.02248 0.35409 0.2587 0.0
C359 C 0.04738 0.35334 0.30235 0.0
C360 C 0.05519 0.37248 0.36993 0.0
C361 C 0.03809 0.39265 0.3925 0.0
C362 C 1.0138 0.39413 0.35027 0.0
C363 C 0.99917 0.41787 0.38838 0.0
C364 C 0.99343 0.4369 0.30328 0.0
C365 C 0.97402 0.4097 0.4428 0.0
C366 C 1.0189 0.42927 0.45981 0.0
C367 C 0.04124 0.41436 0.46021 0.0
C368 C 0.06191 0.42011 0.52232 0.0
C369 C 0.05961 0.4412 0.58718 0.0
C370 C 0.03687 0.45663 0.59004 0.0
C371 C 1.01635 0.45079 0.52407 0.0
H372 H 0.89168 0.04837 0.31788 0.0
H373 H 0.84877 0.97666 0.27465 0.0
H374 H 0.87846 0.96515 0.13745 0.0
H375 H 0.90514 0.06206 0.06051 0.0
H376 H 0.9375 0.07435 0.08096 0.0
H377 H 0.91313 0.07692 0.17703 0.0
H378 H 0.94332 0.05284 0.2986 0.0
H379 H 0.96775 0.05006 0.20268 0.0
H380 H 0.95591 1.02137 0.26586 0.0
H381 H 0.91159 0.96192 1.00037 0.0
H382 H 0.94587 0.96703 0.8728 0.0
H383 H 0.96935 0.0401 1.0037 0.0
C384 C 0.88851 0.03028 0.27913 0.0
C385 C 0.86743 1.01371 0.30646 0.0
C386 C 0.86433 0.98998 0.25495 0.0
C387 C 0.88124 0.98319 0.1768 0.0
C388 C 0.90158 1.00006 0.15126 0.0
C389 C 0.90541 0.0231 0.20101 0.0
C390 C 0.92881 0.03774 0.15795 0.0
C391 C 0.92065 0.06434 0.11665 0.0
C392 C 0.95021 0.04067 0.23592 0.0
C393 C 0.93728 1.01951 0.07509 0.0
C394 C 0.92125 0.99787 0.07322 0.0
C395 C 0.92434 0.97867 1.00174 0.0
C396 C 0.94394 0.98175 0.92944 0.0
C397 C 0.96053 1.00378 0.92838 0.0
C398 C 0.95732 0.02279 1.00338 0.0
H399 H 0.49617 0.88275 0.25559 0.0
H400 H 0.5606 0.83432 0.16221 0.0
H401 H 0.57019 0.86487 0.02483 0.0
H402 H 0.47485 0.90158 0.01215 0.0
H403 H 0.46706 0.93445 0.04645 0.0
H404 H 0.46521 0.90885 0.13769 0.0
H405 H 0.49667 0.93445 0.24994 0.0
H406 H 0.49872 0.96007 0.15873 0.0
H407 H 0.52791 0.94454 0.20146 0.0
H408 H 0.57204 0.89974 0.89431 0.0
H409 H 0.56647 0.93685 0.78028 0.0
H410 H 0.50188 0.96444 0.95919 0.0
C411 C 0.51216 0.87851 0.20561 0.0
C412 C 0.52716 0.85566 0.21817 0.0
C413 C 0.54839 0.85122 0.15286 0.0
C414 C 0.55409 0.86859 0.07484 0.0
C415 C 0.53871 0.89067 0.06375 0.0
C416 C 0.51825 0.8958 0.12754 0.0
C417 C 0.50489 0.92109 0.09906 0.0
C418 C 0.47631 0.91619 0.07223 0.0
C419 C 0.50719 0.94123 0.18226 0.0
C420 C 0.52083 0.92919 1.00848 0.0
C421 C 0.54026 0.9113 0.98981 0.0
C422 C 0.55701 0.91392 0.90866 0.0
C423 C 0.55368 0.93509 0.8442 0.0
C424 C 0.53386 0.95362 0.86087 0.0
C425 C 0.51741 0.95077 0.9451 0.0
H426 H 0.6671 0.48379 0.25899 0.0
H427 H 0.70574 0.55848 0.23103 0.0
H428 H 0.67231 0.57278 0.11214 0.0
H429 H 0.64786 0.47807 1.00229 0.0
H430 H 0.61689 0.46322 0.03104 0.0
H431 H 0.64387 0.45884 0.11343 0.0
H432 H 0.61613 0.47659 0.25823 0.0
H433 H 0.58907 0.48127 0.17634 0.0
H434 H 0.60131 0.50813 0.24749 0.0
H435 H 0.63552 0.57866 0.99312 0.0
H436 H 0.59813 0.57582 0.88048 0.0
H437 H 0.58151 0.49786 0.98695 0.0
C438 C 0.66863 0.50307 0.22705 0.0
C439 C 0.68947 0.51986 0.2528 0.0
C440 C 0.69036 0.54513 0.21106 0.0
C441 C 0.67134 0.55344 0.14384 0.0
C442 C 0.65121 0.53642 0.11963 0.0
C443 C 0.64967 0.51174 0.15983 0.0
C444 C 0.62594 0.49733 0.12091 0.0
C445 C 0.63414 0.47292 0.0635 0.0
C446 C 0.60698 0.49044 0.20579 0.0
C447 C 0.61445 0.51771 0.05206 0.0
C448 C 0.62943 0.54009 0.05276 0.0
C449 C 0.62357 0.56132 0.99269 0.0
C450 C 0.60222 0.55954 0.92901 0.0
C451 C 0.58665 0.53682 0.92569 0.0
C452 C 0.59268 0.51571 0.98932 0.0
H453 H 0.99962 0.69489 0.14097 0.0
H454 H 0.05503 0.66589 0.35428 0.0
H455 H 0.05936 0.62535 0.25895 0.0
H456 H 0.96735 0.63473 0.09746 0.0
H457 H 0.96311 0.63979 0.96641 0.0
H458 H 0.96508 0.66725 0.04816 0.0
H459 H 1.00333 0.68615 0.94437 0.0
H460 H 1.00127 0.65889 0.86158 0.0
H461 H 0.03158 0.6664 0.92105 0.0
H462 H 0.05605 0.58669 0.1455 0.0
H463 H 0.0479 0.55424 0.01501 0.0
H464 H 0.9953 0.60781 0.87087 0.0
C465 C 1.01307 0.68021 0.16622 0.0
C466 C 0.02742 0.68392 0.25434 0.0
C467 C 0.04424 0.66384 0.28625 0.0
C468 C 0.04671 0.64061 0.2328 0.0
C469 C 0.03218 0.63746 0.147 0.0
C470 C 1.01591 0.65681 0.11305 0.0
C471 C 1.00238 0.64824 0.01873 0.0
C472 C 0.97272 0.64746 0.03363 0.0
C473 C 1.01011 0.66598 0.93125 0.0
C474 C 1.01337 0.62102 1.00575 0.0
C475 C 0.03046 0.6152 0.08092 0.0
C476 C 0.04283 0.59114 0.08597 0.0
C477 C 0.03798 0.57274 0.01159 0.0
C478 C 1.02098 0.57836 0.93242 0.0
C479 C 1.00838 0.60285 0.93033 0.0
H480 H 0.97699 0.25289 0.44398 0.0
H481 H 0.92224 0.24862 0.20458 0.0
H482 H 0.89425 0.21966 0.30402 0.0
H483 H 0.9837 0.19607 0.48403 0.0
H484 H 0.98481 0.19358 0.6173 0.0
H485 H 0.99234 0.22377 0.55858 0.0
H486 H 0.95674 0.2467 0.66172 0.0
H487 H 0.94928 0.21625 0.72246 0.0
H488 H 0.92392 0.23434 0.6624 0.0
H489 H 0.8851 0.17886 0.38174 0.0
H490 H 0.89474 0.13416 0.43137 0.0
H491 H 0.95281 0.16231 0.63479 0.0
C492 C 0.95808 0.2473 0.41663 0.0
C493 C 0.95149 0.25289 0.31792 0.0
C494 C 0.92729 0.24469 0.28092 0.0
C495 C 0.91127 0.22823 0.33732 0.0
C496 C 0.91973 0.22025 0.4306 0.0
C497 C 0.94222 0.23032 0.47205 0.0
C498 C 0.95053 0.21423 0.56067 0.0
C499 C 0.97951 0.20643 0.55442 0.0
C500 C 0.94475 0.22874 0.65754 0.0
C501 C 0.93247 0.19113 0.5501 0.0
C502 C 0.91379 0.19566 0.47885 0.0
C503 C 0.89884 0.17541 0.44047 0.0
C504 C 0.90446 0.1499 0.46914 0.0
C505 C 0.92485 0.14484 0.53582 0.0
C506 C 0.93731 0.16583 0.58281 0.0
H507 H 0.28577 0.03074 0.43712 0.0
H508 H 0.29094 0.10357 0.2799 0.0
H509 H 0.3263 0.11763 0.38723 0.0
H510 H 0.32183 0.06014 0.69235 0.0
H511 H 0.3368 0.0288 0.70576 0.0
H512 H 0.30317 0.03107 0.67011 0.0
H513 H 0.31308 1.00293 0.51725 0.0
H514 H 0.34632 1.00067 0.55155 0.0
H515 H 0.33817 1.0131 0.43059 0.0
H516 H 0.37089 0.11233 0.42475 0.0
H517 H 0.41389 0.09261 0.41782 0.0
H518 H 0.38388 0.02453 0.57145 0.0
C519 C 0.293 0.05048 0.4326 0.0
C520 C 0.28606 0.06611 0.35151 0.0
C521 C 0.296 0.09155 0.34293 0.0
C522 C 0.31625 0.0996 0.40373 0.0
C523 C 0.32599 0.08202 0.47307 0.0
C524 C 0.31363 0.05843 0.4927 0.0
C525 C 0.33113 0.04062 0.55208 0.0
C526 C 0.3227 0.04016 0.66157 0.0
C527 C 0.33226 1.01275 0.51003 0.0
C528 C 0.35669 0.05495 0.54006 0.0
C529 C 0.35309 0.0795 0.50018 0.0
C530 C 0.37392 0.09376 0.46064 0.0
C531 C 0.39848 0.08225 0.45642 0.0
C532 C 0.40224 0.05672 0.49273 0.0
C533 C 0.38143 0.04385 0.54119 0.0
H534 H 0.60838 0.30764 0.24434 0.0
H535 H 0.55612 0.27769 0.47004 0.0
H536 H 0.57687 0.30559 0.59377 0.0
H537 H 0.66531 0.33058 0.42605 0.0
H538 H 0.66956 0.35899 0.34891 0.0
H539 H 0.66166 0.32814 0.29377 0.0
H540 H 0.6222 0.34937 0.20846 0.0
H541 H 0.62949 0.37984 0.26409 0.0
H542 H 0.59786 0.36534 0.28333 0.0
H543 H 0.58811 0.34657 0.669 0.0
H544 H 0.58915 0.3939 0.68719 0.0
H545 H 0.63399 0.40086 0.41528 0.0
C546 C 0.60261 0.30594 0.32144 0.0
C547 C 0.58072 0.29082 0.34809 0.0
C548 C 0.57309 0.28898 0.44855 0.0
C549 C 0.58481 0.3049 0.51932 0.0
C550 C 0.60416 0.32234 0.48824 0.0
C551 C 0.61356 0.32246 0.39157 0.0
C552 C 0.62903 0.34696 0.3692 0.0
C553 C 0.65812 0.34079 0.35894 0.0
C554 C 0.61899 0.36119 0.276 0.0
C555 C 0.62368 0.36215 0.46275 0.0
C556 C 0.61058 0.34712 0.53272 0.0
C557 C 0.59927 0.35821 0.61676 0.0
C558 C 0.59996 0.38526 0.62662 0.0
C559 C 0.61167 0.40099 0.55226 0.0
C560 C 0.62507 0.38912 0.47312 0.0
H561 H 0.25028 0.55419 0.44233 0.0
H562 H 0.25689 0.61476 0.22154 0.0
H563 H 0.22615 0.64174 0.31609 0.0
H564 H 0.19059 0.55195 0.44887 0.0
H565 H 0.18363 0.54628 0.57823 0.0
H566 H 0.21462 0.53756 0.52858 0.0
H567 H 0.23811 0.56618 0.65623 0.0
H568 H 0.20704 0.57464 0.70974 0.0
H569 H 0.22927 0.59983 0.66979 0.0
H570 H 0.18433 0.65285 0.38692 0.0
H571 H 0.13809 0.64824 0.43402 0.0
H572 H 0.15667 0.58124 0.61403 0.0
C573 C 0.24667 0.574 0.41902 0.0
C574 C 0.25616 0.58283 0.32681 0.0
C575 C 0.25023 0.60813 0.29376 0.0
C576 C 0.2327 0.62351 0.34714 0.0
C577 C 0.22136 0.61324 0.43326 0.0
C578 C 0.22869 0.58924 0.47091 0.0
C579 C 0.20949 0.57967 0.54892 0.0
C580 C 0.19897 0.5523 0.52448 0.0
C581 C 0.22171 0.58013 0.6523 0.0
C582 C 0.18869 0.60023 0.53994 0.0
C583 C 0.19632 0.62001 0.47599 0.0
C584 C 0.17852 0.63818 0.44044 0.0
C585 C 0.15225 0.63538 0.46696 0.0
C586 C 0.14407 0.61462 0.52868 0.0
C587 C 0.16271 0.59781 0.56964 0.0
H588 H 0.07437 0.78624 0.08134 0.0
H589 H 0.1241 0.79298 0.33563 0.0
H590 H 0.15048 0.82597 0.24826 0.0
H591 H 0.12746 0.81077 0.88109 0.0
H592 H 0.10238 0.82821 0.81735 0.0
H593 H 0.09533 0.79693 0.87242 0.0
H594 H 0.0574 0.81624 0.97222 0.0
H595 H 0.06336 0.84757 0.9199 0.0
H596 H 0.06317 0.84355 0.05254 0.0
H597 H 0.15895 0.86786 0.17076 0.0
H598 H 0.14988 0.91198 0.10929 0.0
H599 H 0.09382 0.88062 0.90494 0.0
C600 C 0.09207 0.79327 0.11482 0.0
C601 C 0.09746 0.78705 0.21417 0.0
C602 C 0.12001 0.79727 0.25869 0.0
C603 C 0.13505 0.81611 0.20936 0.0
C604 C 0.12738 0.82434 0.11538 0.0
C605 C 0.10678 0.81263 0.06697 0.0
C606 C 0.09836 0.82873 0.97867 0.0
C607 C 0.10635 0.81536 0.88165 0.0
C608 C 0.06888 0.83436 0.98126 0.0
C609 C 0.11444 0.85302 0.99443 0.0
C610 C 0.13215 0.84957 0.06992 0.0
C611 C 0.14588 0.87051 0.10926 0.0
C612 C 0.14044 0.89559 0.07454 0.0
C613 C 0.12116 0.89961 1.0021 0.0
C614 C 0.10918 0.87794 0.95803 0.0
H615 H 0.76018 0.0744 0.17421 0.0
H616 H 0.7733 0.99494 0.08967 0.0
H617 H 0.74399 1.00018 0.94896 0.0
H618 H 0.70458 0.07583 0.18527 0.0
H619 H 0.69427 0.10585 0.1286 0.0
H620 H 0.7266 0.10313 0.17302 0.0
H621 H 0.74532 0.11509 1.00071 0.0
H622 H 0.71261 0.11856 0.95547 0.0
H623 H 0.73516 0.0974 0.89288 0.0
H624 H 0.70042 1.00412 0.89656 0.0
H625 H 0.65325 1.0094 0.91463 0.0
H626 H 0.6645 0.08735 0.02409 0.0
C627 C 0.75818 0.05903 0.12042 0.0
C628 C 0.76844 0.0344 0.14142 0.0
C629 C 0.76558 1.01403 0.07333 0.0
C630 C 0.74889 1.01694 0.99313 0.0
C631 C 0.73545 0.04034 0.98274 0.0
C632 C 0.74099 0.06174 0.04148 0.0
C633 C 0.7198 0.08204 0.03394 0.0
C634 C 0.71078 0.09219 0.13628 0.0
C635 C 0.72876 0.10459 0.9667 0.0
C636 C 0.69906 0.06619 0.98341 0.0
C637 C 0.70901 0.04293 0.94821 0.0
C638 C 0.69268 0.02264 0.91982 0.0
C639 C 0.66589 0.02557 0.93234 0.0
C640 C 0.65556 0.04881 0.97116 0.0
C641 C 0.6722 0.06973 0.99206 0.0
H642 H 0.48576 0.75011 0.06581 0.0
H643 H 0.42608 0.75453 0.29178 0.0
H644 H 0.39921 0.72342 0.19997 0.0
H645 H 0.43946 0.72796 0.84291 0.0
H646 H 0.46501 0.70657 0.80188 0.0
H647 H 0.47298 0.73785 0.85318 0.0
H648 H 0.50278 0.71521 0.97939 0.0
H649 H 0.49454 0.68404 0.93188 0.0
H650 H 0.48932 0.69071 0.0614 0.0
H651 H 0.38861 0.68151 0.13168 0.0
H652 H 0.39416 0.63544 0.08744 0.0
H653 H 0.46014 0.6559 0.90163 0.0
C654 C 0.46614 0.74592 0.09103 0.0
C655 C 0.45763 0.75482 0.18414 0.0
C656 C 0.43253 0.74821 0.2192 0.0
C657 C 0.4172 0.73048 0.16731 0.0
C658 C 0.42729 0.71961 0.08064 0.0
C659 C 0.451 0.72765 0.04086 0.0
C660 C 0.46067 0.7088 0.96296 0.0
C661 C 0.45943 0.72103 0.85907 0.0
C662 C 0.48841 0.69912 0.98548 0.0
C663 C 0.44061 0.68738 0.9747 0.0
C664 C 0.42088 0.69443 0.03959 0.0
C665 C 0.40324 0.67612 0.07754 0.0
C666 C 0.40658 0.64995 0.05265 0.0
C667 C 0.42735 0.64237 0.99023 0.0
C668 C 0.44357 0.66147 0.94671 0.0
H669 H 0.81228 0.42548 0.32538 0.0
H670 H 0.77571 0.46446 0.07902 0.0
H671 H 0.80354 0.44072 0.96333 0.0
H672 H 0.86756 0.44267 0.26567 0.0
H673 H 0.88661 0.4148 0.30061 0.0
H674 H 0.8558 0.42002 0.35834 0.0
H675 H 0.84021 0.37445 0.3041 0.0
H676 H 0.87146 0.3689 0.2464 0.0
H677 H 0.84216 0.3653 0.17557 0.0
H678 H 0.84396 0.43014 0.88345 0.0
H679 H 0.89073 0.4362 0.8527 0.0
H680 H 0.90711 0.40914 0.14912 0.0
C681 C 0.80947 0.42799 0.24659 0.0
C682 C 0.79233 0.44723 0.21147 0.0
C683 C 0.78861 0.4498 0.10832 0.0
C684 C 0.80455 0.43632 0.04165 0.0
C685 C 0.82431 0.42062 0.07917 0.0
C686 C 0.82659 0.41606 0.18005 0.0
C687 C 0.85333 0.40569 0.20503 0.0
C688 C 0.86657 0.42179 0.28696 0.0
C689 C 0.85168 0.37687 0.23446 0.0
C690 C 0.86686 0.40892 0.10563 0.0
C691 C 0.84933 0.41567 0.03255 0.0
C692 C 0.85769 0.42411 0.93914 0.0
C693 C 0.88433 0.42767 0.92236 0.0
C694 C 0.90229 0.42321 0.99912 0.0
C695 C 0.89364 0.41204 0.08903 0.0
H696 H 1.01091 0.19372 0.17551 0.0
H697 H 1.01044 0.24345 0.91578 0.0
H698 H 1.0159 0.20466 0.80885 0.0
H699 H 0.05916 0.14672 0.08237 0.0
H700 H 0.04288 0.11951 0.14064 0.0
H701 H 0.04079 0.1513 0.1953 0.0
H702 H 0.99057 0.14832 0.19194 0.0
H703 H 0.99247 0.11667 0.13627 0.0
H704 H 0.9745 0.14218 0.07627 0.0
H705 H 1.01693 0.15931 0.73012 0.0
H706 H 1.01796 0.11276 0.68696 0.0
H707 H 1.01943 0.09243 0.99896 0.0
C708 C 1.01255 0.19652 0.09613 0.0
C709 C 1.01047 0.22178 0.05407 0.0
C710 C 1.01243 0.22449 0.94986 0.0
C711 C 1.0153 0.20247 0.88861 0.0
C712 C 1.01656 0.1778 0.93257 0.0
C713 C 1.01568 0.17481 0.03427 0.0
C714 C 1.01688 0.14622 0.06341 0.0
C715 C 0.04139 0.14061 0.12401 0.0
C716 C 0.99214 0.13787 0.12033 0.0
C717 C 1.01832 0.13342 0.96229 0.0
C718 C 1.0179 0.15197 0.88772 0.0
C719 C 1.01768 0.14477 0.7882 0.0
C720 C 1.01815 0.11815 0.76435 0.0
C721 C 1.01905 0.09871 0.83922 0.0
C722 C 1.01919 0.10667 0.93967 0.0
H723 H 0.34033 0.06214 0.08573 0.0
H724 H 0.29961 0.99741 0.95083 0.0
H725 H 0.33845 0.9893 0.84559 0.0
H726 H 0.37899 0.08345 0.87972 0.0
H727 H 0.40723 0.08968 0.95409 0.0
H728 H 0.37519 0.09239 1.00798 0.0
H729 H 0.38753 0.05947 0.14534 0.0
H730 H 0.41965 0.0568 0.09243 0.0
H731 H 0.40001 0.02809 0.11096 0.0
H732 H 0.38392 0.98898 0.75225 0.0
H733 H 0.43051 0.99208 0.70289 0.0
H734 H 0.44219 0.05182 0.92283 0.0
C735 C 0.33922 0.04577 0.03623 0.0
C736 C 0.31628 0.03018 0.02974 0.0
C737 C 0.31638 1.00995 0.95842 0.0
C738 C 0.3386 1.00506 0.89832 0.0
C739 C 0.36099 1.02033 0.91016 0.0
C740 C 0.36138 0.04003 0.97893 0.0
C741 C 0.38821 0.05236 0.98523 0.0
C742 C 0.38734 0.08118 0.95494 0.0
C743 C 0.39951 0.04897 0.08965 0.0
C744 C 0.40317 0.03653 0.90945 0.0
C745 C 0.38706 1.01862 0.86442 0.0
C746 C 0.3966 1.00269 0.7887 0.0
C747 C 0.42314 1.00465 0.76069 0.0
C748 C 0.44026 1.0219 0.80983 0.0
C749 C 0.42983 0.03815 0.88461 0.0
H750 H 0.52283 0.34914 0.18667 0.0
H751 H 0.53271 0.2997 0.93051 0.0
H752 H 0.53067 0.33853 0.82085 0.0
H753 H 0.47862 0.39657 0.07368 0.0
H754 H 0.4932 0.42343 0.13817 0.0
H755 H 0.49301 0.39151 0.19345 0.0
H756 H 0.54308 0.3939 0.21091 0.0
H757 H 0.5435 0.42563 0.15432 0.0
H758 H 0.56298 0.39994 0.10258 0.0
H759 H 0.53236 0.38417 0.74113 0.0
H760 H 0.5326 0.43095 0.69788 0.0
H761 H 0.52094 0.45007 1.00769 0.0
C762 C 0.52393 0.34639 0.10725 0.0
C763 C 0.52773 0.32128 0.06709 0.0
C764 C 0.52934 0.3186 0.96288 0.0
C765 C 0.52847 0.34063 0.9002 0.0
C766 C 0.52574 0.36522 0.94277 0.0
C767 C 0.52306 0.36808 0.04405 0.0
C768 C 0.52126 0.39653 0.07236 0.0
C769 C 0.49495 0.40235 0.12235 0.0
C770 C 0.54405 0.40445 0.13896 0.0
C771 C 0.5234 0.4094 0.9713 0.0
C772 C 0.52619 0.39108 0.89737 0.0
C773 C 0.52972 0.39855 0.79852 0.0
C774 C 0.52992 0.42525 0.77465 0.0
C775 C 0.52645 0.44434 0.84901 0.0
C776 C 0.52328 0.43609 0.94866 0.0
H777 H 0.20012 0.52072 0.17444 0.0
H778 H 0.24991 0.5314 0.91675 0.0
H779 H 0.2115 0.52672 0.80796 0.0
H780 H 0.155 0.4732 0.06409 0.0
H781 H 0.12727 0.48658 0.12816 0.0
H782 H 0.159 0.48835 0.18311 0.0
H783 H 0.15431 0.53823 0.19827 0.0
H784 H 0.12274 0.53669 0.14221 0.0
H785 H 0.14768 0.5573 0.08912 0.0
H786 H 0.16603 0.52561 0.72899 0.0
H787 H 0.11933 0.52409 0.68641 0.0
H788 H 0.09965 0.513 0.99692 0.0
C789 C 0.20307 0.52141 0.09491 0.0
C790 C 0.22817 0.52618 0.05411 0.0
C791 C 0.23106 0.52728 0.94973 0.0
C792 C 0.20925 0.52489 0.88749 0.0
C793 C 0.18464 0.52109 0.93057 0.0
C794 C 0.18159 0.51892 0.03208 0.0
C795 C 0.15311 0.51574 0.06078 0.0
C796 C 0.14832 0.4894 0.11205 0.0
C797 C 0.14393 0.53833 0.12646 0.0
C798 C 0.14042 0.51673 0.95979 0.0
C799 C 0.15887 0.51996 0.88549 0.0
C800 C 0.15155 0.5227 0.78663 0.0
C801 C 0.1249 0.52186 0.76314 0.0
C802 C 0.10565 0.51808 0.8379 0.0
C803 C 0.11375 0.51549 0.93753 0.0
H804 H 0.06606 0.82418 0.52665 0.0
H805 H 0.99172 0.81371 0.38288 0.0
H806 H 0.97685 0.85556 0.45182 0.0
H807 H 0.04113 0.858 0.75113 0.0
H808 H 0.06898 0.87933 0.75482 0.0
H809 H 0.07217 0.84703 0.7051 0.0
H810 H 0.09112 0.86668 0.54287 0.0
H811 H 0.08745 0.89894 0.59175 0.0
H812 H 0.07252 0.89051 0.47596 0.0
H813 H 0.97234 0.90139 0.51661 0.0
H814 H 0.97691 0.94564 0.58371 0.0
H815 H 0.05389 0.92686 0.68976 0.0
C816 C 0.04642 0.83038 0.51122 0.0
C817 C 0.03003 0.81533 0.44918 0.0
C818 C 1.00452 0.82439 0.43127 0.0
C819 C 0.99599 0.84836 0.46948 0.0
C820 C 1.01306 0.86313 0.52654 0.0
C821 C 0.03762 0.85429 0.54862 0.0
C822 C 0.05266 0.8745 0.60732 0.0
C823 C 0.05912 0.86409 0.71085 0.0
C824 C 0.0774 0.88316 0.55109 0.0
C825 C 0.03296 0.89637 0.61326 0.0
C826 C 1.01025 0.88935 0.56592 0.0
C827 C 0.98985 0.90683 0.55529 0.0
C828 C 0.99268 0.93201 0.59347 0.0
C829 C 1.01561 0.93971 0.64313 0.0
C830 C 0.03591 0.92143 0.65414 0.0
H831 H 0.70893 0.99765 0.37453 0.0
H832 H 0.74902 0.04219 0.5982 0.0
H833 H 0.70756 0.04624 0.69276 0.0
H834 H 0.65011 0.03334 0.37576 0.0
H835 H 0.62924 1.00552 0.35946 0.0
H836 H 0.66214 1.00498 0.31273 0.0
H837 H 0.67115 0.9631 0.41333 0.0
H838 H 0.6382 0.96337 0.45981 0.0
H839 H 0.66496 0.96265 0.545 0.0
H840 H 0.65993 0.04999 0.75078 0.0
H841 H 0.61298 0.04557 0.78816 0.0
H842 H 0.60376 0.99746 0.52855 0.0
C843 C 0.70912 1.008 0.44417 0.0
C844 C 0.73248 1.01964 0.4787 0.0
C845 C 0.73166 0.03288 0.5704 0.0
C846 C 0.70805 0.03549 0.62409 0.0
C847 C 0.68529 0.02449 0.58599 0.0
C848 C 0.6858 1.01054 0.49898 0.0
C849 C 0.65873 1.00047 0.47397 0.0
C850 C 0.64952 1.01175 0.3746 0.0
C851 C 0.65824 0.97062 0.47299 0.0
C852 C 0.64272 1.01105 0.56013 0.0
C853 C 0.65839 0.0251 0.6232 0.0
C854 C 0.6478 0.03797 0.70465 0.0
C855 C 0.62096 0.03547 0.72501 0.0
C856 C 0.60443 1.02066 0.66336 0.0
C857 C 0.61568 1.00856 0.57879 0.0
H858 H 0.51828 0.7 0.33766 0.0
H859 H 0.50942 0.74948 0.59402 0.0
H860 H 0.51412 0.71093 0.70413 0.0
H861 H 0.4817 0.64746 0.42821 0.0
H862 H 0.5019 0.62264 0.37422 0.0
H863 H 0.50028 0.65425 0.31712 0.0
H864 H 0.55031 0.65899 0.32757 0.0
H865 H 0.55215 0.62722 0.38352 0.0
H866 H 0.56605 0.65486 0.44533 0.0
H867 H 0.51549 0.66544 0.78466 0.0
H868 H 0.51717 0.61876 0.82891 0.0
H869 H 0.52637 0.59948 0.51816 0.0
C870 C 0.51805 0.7028 0.41714 0.0
C871 C 0.51384 0.72782 0.45747 0.0
C872 C 0.51314 0.73063 0.56168 0.0
C873 C 0.51557 0.70877 0.62457 0.0
C874 C 0.51896 0.68424 0.58207 0.0
C875 C 0.52062 0.68129 0.48052 0.0
C876 C 0.52348 0.6529 0.45256 0.0
C877 C 0.50047 0.64379 0.38931 0.0
C878 C 0.54955 0.64822 0.3991 0.0
C879 C 0.52291 0.64013 0.55406 0.0
C880 C 0.52016 0.65846 0.62794 0.0
C881 C 0.51798 0.65105 0.72732 0.0
C882 C 0.51891 0.62441 0.75174 0.0
C883 C 0.52221 0.6053 0.67734 0.0
C884 C 0.5242 0.61349 0.57719 0.0
H885 H 0.8495 0.50899 0.34099 0.0
H886 H 0.79918 0.51284 0.59951 0.0
H887 H 0.83794 0.51909 0.70554 0.0
H888 H 0.89831 0.47184 0.44984 0.0
H889 H 0.92503 0.4876 0.38616 0.0
H890 H 0.89343 0.48659 0.33014 0.0
H891 H 0.89325 0.5367 0.31403 0.0
H892 H 0.92509 0.53794 0.36829 0.0
H893 H 0.8988 0.55632 0.42207 0.0
H894 H 0.88353 0.52009 0.78474 0.0
H895 H 0.93021 0.52002 0.82716 0.0
H896 H 0.95041 0.51544 0.5153 0.0
C897 C 0.84654 0.51183 0.41974 0.0
C898 C 0.82115 0.51065 0.46183 0.0
C899 C 0.81826 0.51413 0.56529 0.0
C900 C 0.84026 0.51742 0.62609 0.0
C901 C 0.86508 0.51737 0.58234 0.0
C902 C 0.86821 0.51506 0.48105 0.0
C903 C 0.89681 0.51444 0.4519 0.0
C904 C 0.90379 0.48859 0.40157 0.0
C905 C 0.9039 0.53774 0.38513 0.0
C906 C 0.90949 0.51664 0.55258 0.0
C907 C 0.89091 0.51817 0.62711 0.0
C908 C 0.89811 0.51919 0.72654 0.0
C909 C 0.92477 0.51893 0.75011 0.0
C910 C 0.94417 0.51776 0.6749 0.0
C911 C 0.9362 0.51665 0.57479 0.0
loop_
_geom_bond_atom_site_label_1
_geom_bond_atom_site_label_2
_geom_bond_distance
_geom_bond_site_symmetry_2
_ccdc_geom_bond_type
H0 C7 0.929 . S
H1 C10 0.930 . S
H2 C12 0.929 . S
H3 C4 0.969 . S
C4 H3 0.969 . S
C4 O5 1.550 . S
C4 H6 0.973 . S
O5 C4 1.550 . S
O5 C11 1.412 . S
H6 C4 0.973 . S
C7 H0 0.929 . S
C7 C8 1.400 . S
C7 C9 1.364 . S
C8 C7 1.400 . S
C8 C12 1.377 . S
C9 C7 1.364 . S
C9 C10 1.374 . S
C10 H1 0.930 . S
C10 C9 1.374 . S
C10 C11 1.383 . S
C11 O5 1.412 . S
C11 C10 1.383 . S
C11 C12 1.394 . S
C12 H2 0.929 . S
C12 C8 1.377 . S
C12 C11 1.394 . S
H13 C20 0.928 1_655 S
H14 C23 0.930 . S
H15 C25 0.928 1_655 S
H16 C17 0.969 . S
C17 H16 0.969 . S
C17 O18 1.550 1_455 S
C17 H19 0.973 1_455 S
O18 C17 1.550 1_655 S
O18 C24 1.405 1_655 S
H19 C17 0.973 1_655 S
C20 H13 0.928 1_455 S
C20 C21 1.399 . S
C20 C22 1.364 . S
C21 C20 1.399 . S
C21 C25 1.377 . S
C22 C20 1.364 . S
C22 C23 1.374 1_455 S
C23 H14 0.930 . S
C23 C22 1.374 1_655 S
C23 C24 1.382 1_655 S
C24 O18 1.405 1_455 S
C24 C23 1.382 1_455 S
C24 C25 1.394 . S
C25 H15 0.928 1_455 S
C25 C21 1.377 . S
C25 C24 1.394 . S
H26 C33 0.928 1_565 S
H27 C36 0.929 . S
H28 C38 0.929 1_565 S
H29 C30 0.969 . S
C30 H29 0.969 . S
C30 O31 1.550 1_545 S
C30 H32 0.973 1_545 S
O31 C30 1.550 1_565 S
O31 C37 1.405 1_565 S
H32 C30 0.973 1_565 S
C33 H26 0.928 1_545 S
C33 C34 1.399 . S
C33 C35 1.364 . S
C34 C33 1.399 . S
C34 C38 1.377 . S
C35 C33 1.364 . S
C35 C36 1.374 1_545 S
C36 H27 0.929 . S
C36 C35 1.374 1_565 S
C36 C37 1.382 1_565 S
C37 O31 1.405 1_545 S
C37 C36 1.382 1_545 S
C37 C38 1.394 . S
C38 H28 0.929 1_545 S
C38 C34 1.377 . S
C38 C37 1.394 . S
H39 C46 0.929 . S
H40 C49 0.930 . S
H41 C51 0.929 . S
H42 C43 0.969 . S
C43 H42 0.969 . S
C43 O44 1.550 . S
C43 H45 0.973 . S
O44 C43 1.550 . S
O44 C50 1.412 . S
H45 C43 0.973 . S
C46 H39 0.929 . S
C46 C47 1.400 . S
C46 C48 1.364 . S
C47 C46 1.400 . S
C47 C51 1.377 . S
C48 C46 1.364 . S
C48 C49 1.374 . S
C49 H40 0.930 . S
C49 C48 1.374 . S
C49 C50 1.383 . S
C50 O44 1.412 . S
C50 C49 1.383 . S
C50 C51 1.394 . S
C51 H41 0.929 . S
C51 C47 1.377 . S
C51 C50 1.394 . S
H52 C59 0.929 . S
H53 C62 0.930 . S
H54 C64 0.929 . S
H55 C56 0.969 . S
C56 H55 0.969 . S
C56 O57 1.550 . S
C56 H58 0.973 . S
O57 C56 1.550 . S
O57 C63 1.412 . S
H58 C56 0.973 . S
C59 H52 0.929 . S
C59 C60 1.400 1_554 S
C59 C61 1.364 . S
C60 C59 1.400 1_556 S
C60 C64 1.377 . S
C61 C59 1.364 . S
C61 C62 1.374 . S
C62 H53 0.930 . S
C62 C61 1.374 . S
C62 C63 1.383 . S
C63 O57 1.412 . S
C63 C62 1.383 . S
C63 C64 1.394 1_554 S
C64 H54 0.929 . S
C64 C60 1.377 . S
C64 C63 1.394 1_556 S
H65 C72 0.928 1_655 S
H66 C75 0.930 . S
H67 C77 0.928 1_655 S
H68 C69 0.969 . S
C69 H68 0.969 . S
C69 O70 1.550 1_455 S
C69 H71 0.973 1_455 S
O70 C69 1.550 1_655 S
O70 C76 1.402 1_655 S
H71 C69 0.973 1_655 S
C72 H65 0.928 1_455 S
C72 C73 1.400 1_554 S
C72 C74 1.364 . S
C73 C72 1.400 1_556 S
C73 C77 1.377 . S
C74 C72 1.364 . S
C74 C75 1.374 1_455 S
C75 H66 0.930 . S
C75 C74 1.374 1_655 S
C75 C76 1.382 1_655 S
C76 O70 1.402 1_455 S
C76 C75 1.382 1_455 S
C76 C77 1.394 1_554 S
C77 H67 0.928 1_455 S
C77 C73 1.377 . S
C77 C76 1.394 1_556 S
H78 C85 0.928 1_565 S
H79 C88 0.930 . S
H80 C90 0.928 1_565 S
H81 C82 0.969 . S
C82 H81 0.969 . S
C82 O83 1.550 1_545 S
C82 H84 0.973 1_545 S
O83 C82 1.550 1_565 S
O83 C89 1.402 1_565 S
H84 C82 0.973 1_565 S
C85 H78 0.928 1_545 S
C85 C86 1.400 1_554 S
C85 C87 1.364 . S
C86 C85 1.400 1_556 S
C86 C90 1.377 . S
C87 C85 1.364 . S
C87 C88 1.374 1_545 S
C88 H79 0.930 . S
C88 C87 1.374 1_565 S
C88 C89 1.382 1_565 S
C89 O83 1.402 1_545 S
C89 C88 1.382 1_545 S
C89 C90 1.394 1_554 S
C90 H80 0.928 1_545 S
C90 C86 1.377 . S
C90 C89 1.394 1_556 S
H91 C98 0.929 . S
H92 C101 0.930 . S
H93 C103 0.929 . S
H94 C95 0.969 . S
C95 H94 0.969 . S
C95 O96 1.550 . S
C95 H97 0.973 . S
O96 C95 1.550 . S
O96 C102 1.412 . S
H97 C95 0.973 . S
C98 H91 0.929 . S
C98 C99 1.400 1_554 S
C98 C100 1.364 . S
C99 C98 1.400 1_556 S
C99 C103 1.377 . S
C100 C98 1.364 . S
C100 C101 1.374 . S
C101 H92 0.930 . S
C101 C100 1.374 . S
C101 C102 1.383 . S
C102 O96 1.412 . S
C102 C101 1.383 . S
C102 C103 1.394 1_554 S
C103 H93 0.929 . S
C103 C99 1.377 . S
C103 C102 1.394 1_556 S
Tb104 C106 2.809 . S
Tb104 O124 2.484 . S
Tb104 O125 2.440 . S
Tb104 O126 2.658 1_565 S
Tb104 O127 2.409 . S
Tb104 O128 2.378 . S
Tb104 O132 2.325 1_455 S
Tb104 O135 2.341 1_565 S
Tb105 C115 2.809 . S
Tb105 O126 2.325 1_655 S
Tb105 O129 2.341 1_545 S
Tb105 O130 2.484 . S
Tb105 O131 2.440 . S
Tb105 O132 2.658 1_545 S
Tb105 O133 2.409 . S
Tb105 O134 2.378 . S
C106 Tb104 2.809 . S
C106 C107 1.514 . S
C106 O124 1.248 . S
C106 O125 1.266 . S
C107 C106 1.514 . S
C107 C108 1.359 1_556 S
C107 C112 1.348 . S
C108 C107 1.359 1_554 S
C108 C109 1.380 . S
C108 H136 0.929 1_455 S
C109 C108 1.380 . S
C109 C110 1.347 . S
C109 H137 0.931 1_455 S
C110 C109 1.347 . S
C110 C111 1.369 . S
C111 C110 1.369 . S
C111 C112 1.408 1_554 S
C111 H138 0.930 . S
C112 C107 1.348 . S
C112 C111 1.408 1_556 S
C112 H139 0.930 . S
C113 O126 1.281 1_565 S
C113 O127 1.254 . S
C114 O128 1.236 1_655 S
C114 O129 1.266 . S
C115 Tb105 2.809 . S
C115 C116 1.514 . S
C115 O130 1.248 . S
C115 O131 1.266 . S
C116 C115 1.514 . S
C116 C117 1.359 . S
C116 C121 1.348 . S
C117 C116 1.359 . S
C117 C118 1.380 . S
C117 H140 0.929 1_655 S
C118 C117 1.380 . S
C118 C119 1.347 . S
C118 H141 0.931 1_655 S
C119 C118 1.347 . S
C119 C120 1.369 . S
C120 C119 1.369 . S
C120 C121 1.408 . S
C120 H142 0.930 . S
C121 C116 1.348 . S
C121 C120 1.408 . S
C121 H143 0.930 . S
C122 O132 1.281 1_545 S
C122 O133 1.254 . S
C123 O134 1.236 1_455 S
C123 O135 1.266 . S
O124 Tb104 2.484 . S
O124 C106 1.248 . S
O125 Tb104 2.440 . S
O125 C106 1.266 . S
O126 Tb104 2.658 1_545 S
O126 Tb105 2.325 1_455 S
O126 C113 1.281 1_545 S
O127 Tb104 2.409 . S
O127 C113 1.254 . S
O128 Tb104 2.378 . S
O128 C114 1.236 1_455 S
O129 Tb105 2.341 1_565 S
O129 C114 1.266 . S
O130 Tb105 2.484 . S
O130 C115 1.248 . S
O131 Tb105 2.440 . S
O131 C115 1.266 . S
O132 Tb104 2.325 1_655 S
O132 Tb105 2.658 1_565 S
O132 C122 1.281 1_565 S
O133 Tb105 2.409 . S
O133 C122 1.254 . S
O134 Tb105 2.378 . S
O134 C123 1.236 1_655 S
O135 Tb104 2.341 1_545 S
O135 C123 1.266 . S
H136 C108 0.929 1_655 S
H137 C109 0.931 1_655 S
H138 C111 0.930 . S
H139 C112 0.930 . S
H140 C117 0.929 1_455 S
H141 C118 0.931 1_455 S
H142 C120 0.930 . S
H143 C121 0.930 . S
Tb144 C146 2.809 . S
Tb144 O164 2.484 . S
Tb144 O165 2.440 . S
Tb144 O166 2.658 . S
Tb144 O167 2.409 . S
Tb144 O168 2.378 . S
Tb144 O172 2.325 1_545 S
Tb144 O175 2.341 . S
Tb145 C155 2.809 . S
Tb145 O166 2.325 1_565 S
Tb145 O169 2.341 . S
Tb145 O170 2.500 . S
Tb145 O171 2.440 . S
Tb145 O172 2.658 . S
Tb145 O173 2.409 . S
Tb145 O174 2.378 . S
C146 Tb144 2.809 . S
C146 C147 1.514 . S
C146 O164 1.248 . S
C146 O165 1.266 . S
C147 C146 1.514 . S
C147 C148 1.359 1_556 S
C147 C152 1.348 . S
C148 C147 1.359 1_554 S
C148 C149 1.380 . S
C148 H176 0.929 1_545 S
C149 C148 1.380 . S
C149 C150 1.347 . S
C149 H177 0.931 1_545 S
C150 C149 1.347 . S
C150 C151 1.369 . S
C151 C150 1.369 . S
C151 C152 1.408 1_554 S
C151 H178 0.930 . S
C152 C147 1.348 . S
C152 C151 1.408 1_556 S
C152 H179 0.930 . S
C153 O166 1.281 . S
C153 O167 1.254 . S
C154 O168 1.236 1_565 S
C154 O169 1.266 . S
C155 Tb145 2.809 . S
C155 C156 1.514 . S
C155 O170 1.283 . S
C155 O171 1.266 . S
C156 C155 1.514 . S
C156 C157 1.359 . S
C156 C161 1.348 . S
C157 C156 1.359 . S
C157 C158 1.380 . S
C157 H180 0.929 1_565 S
C158 C157 1.380 . S
C158 C159 1.347 . S
C158 H181 0.931 1_565 S
C159 C158 1.347 . S
C159 C160 1.369 . S
C160 C159 1.369 . S
C160 C161 1.408 . S
C160 H182 0.930 . S
C161 C156 1.348 . S
C161 C160 1.408 . S
C161 H183 0.930 . S
C162 O172 1.281 . S
C162 O173 1.254 . S
C163 O174 1.236 1_545 S
C163 O175 1.266 . S
O164 Tb144 2.484 . S
O164 C146 1.248 . S
O165 Tb144 2.440 . S
O165 C146 1.266 . S
O166 Tb144 2.658 . S
O166 Tb145 2.325 1_545 S
O166 C153 1.281 . S
O167 Tb144 2.409 . S
O167 C153 1.254 . S
O168 Tb144 2.378 . S
O168 C154 1.236 1_545 S
O169 Tb145 2.341 . S
O169 C154 1.266 . S
O170 Tb145 2.500 . S
O170 C155 1.283 . S
O171 Tb145 2.440 . S
O171 C155 1.266 . S
O172 Tb144 2.325 1_565 S
O172 Tb145 2.658 . S
O172 C162 1.281 . S
O173 Tb145 2.409 . S
O173 C162 1.254 . S
O174 Tb145 2.378 . S
O174 C163 1.236 1_565 S
O175 Tb144 2.341 . S
O175 C163 1.266 . S
H176 C148 0.929 1_565 S
H177 C149 0.931 1_565 S
H178 C151 0.930 . S
H179 C152 0.930 . S
H180 C157 0.929 1_545 S
H181 C158 0.931 1_545 S
H182 C160 0.930 . S
H183 C161 0.930 . S
Tb184 C186 2.809 . S
Tb184 O204 2.484 . S
Tb184 O205 2.440 . S
Tb184 O206 2.658 . S
Tb184 O207 2.409 . S
Tb184 O208 2.378 . S
Tb184 O212 2.325 . S
Tb184 O215 2.341 . S
Tb185 C195 2.809 . S
Tb185 O206 2.325 . S
Tb185 O209 2.341 . S
Tb185 O210 2.484 . S
Tb185 O211 2.440 . S
Tb185 O212 2.658 . S
Tb185 O213 2.409 . S
Tb185 O214 2.378 . S
C186 Tb184 2.809 . S
C186 C187 1.514 . S
C186 O204 1.248 . S
C186 O205 1.266 . S
C187 C186 1.514 . S
C187 C188 1.359 1_556 S
C187 C192 1.348 1_556 S
C188 C187 1.359 1_554 S
C188 C189 1.380 . S
C188 H216 0.929 . S
C189 C188 1.380 . S
C189 C190 1.347 . S
C189 H217 0.931 . S
C190 C189 1.347 . S
C190 C191 1.369 . S
C191 C190 1.369 . S
C191 C192 1.408 . S
C191 H218 0.930 . S
C192 C187 1.348 1_554 S
C192 C191 1.408 . S
C192 H219 0.930 1_554 S
C193 O206 1.281 . S
C193 O207 1.254 . S
C194 O208 1.236 . S
C194 O209 1.266 . S
C195 Tb185 2.809 . S
C195 C196 1.514 . S
C195 O210 1.248 . S
C195 O211 1.266 . S
C196 C195 1.514 . S
C196 C197 1.359 . S
C196 C201 1.348 . S
C197 C196 1.359 . S
C197 C198 1.380 . S
C197 H220 0.929 . S
C198 C197 1.380 . S
C198 C199 1.347 . S
C198 H221 0.931 . S
C199 C198 1.347 . S
C199 C200 1.369 . S
C200 C199 1.369 . S
C200 C201 1.408 . S
C200 H222 0.930 . S
C201 C196 1.348 . S
C201 C200 1.408 . S
C201 H223 0.930 . S
C202 O212 1.281 . S
C202 O213 1.254 . S
C203 O214 1.236 . S
C203 O215 1.266 . S
O204 Tb184 2.484 . S
O204 C186 1.248 . S
O205 Tb184 2.440 . S
O205 C186 1.266 . S
O206 Tb184 2.658 . S
O206 Tb185 2.325 . S
O206 C193 1.281 . S
O207 Tb184 2.409 . S
O207 C193 1.254 . S
O208 Tb184 2.378 . S
O208 C194 1.236 . S
O209 Tb185 2.341 . S
O209 C194 1.266 . S
O210 Tb185 2.484 . S
O210 C195 1.248 . S
O211 Tb185 2.440 . S
O211 C195 1.266 . S
O212 Tb184 2.325 . S
O212 Tb185 2.658 . S
O212 C202 1.281 . S
O213 Tb185 2.409 . S
O213 C202 1.254 . S
O214 Tb185 2.378 . S
O214 C203 1.236 . S
O215 Tb184 2.341 . S
O215 C203 1.266 . S
H216 C188 0.929 . S
H217 C189 0.931 . S
H218 C191 0.930 . S
H219 C192 0.930 1_556 S
H220 C197 0.929 . S
H221 C198 0.931 . S
H222 C200 0.930 . S
H223 C201 0.930 . S
Tb224 C226 2.809 . S
Tb224 O244 2.484 . S
Tb224 O245 2.440 . S
Tb224 O246 2.658 1_655 S
Tb224 O247 2.409 . S
Tb224 O248 2.378 . S
Tb224 O252 2.325 . S
Tb224 O255 2.341 1_655 S
Tb225 C235 2.809 . S
Tb225 O246 2.325 . S
Tb225 O249 2.341 1_455 S
Tb225 O250 2.484 . S
Tb225 O251 2.440 . S
Tb225 O252 2.658 1_455 S
Tb225 O253 2.409 . S
Tb225 O254 2.378 . S
C226 Tb224 2.809 . S
C226 C227 1.514 . S
C226 O244 1.248 . S
C226 O245 1.266 . S
C227 C226 1.514 . S
C227 C228 1.359 1_556 S
C227 C232 1.348 1_556 S
C228 C227 1.359 1_554 S
C228 C229 1.380 . S
C228 H256 0.929 . S
C229 C228 1.380 . S
C229 C230 1.347 . S
C229 H257 0.931 . S
C230 C229 1.347 . S
C230 C231 1.369 . S
C231 C230 1.369 . S
C231 C232 1.408 . S
C231 H258 0.930 . S
C232 C227 1.348 1_554 S
C232 C231 1.408 . S
C232 H259 0.930 1_554 S
C233 O246 1.273 1_655 S
C233 O247 1.264 . S
C234 O248 1.236 . S
C234 O249 1.266 . S
C235 Tb225 2.809 . S
C235 C236 1.514 . S
C235 O250 1.248 . S
C235 O251 1.266 . S
C236 C235 1.514 . S
C236 C237 1.359 . S
C236 C241 1.348 . S
C237 C236 1.359 . S
C237 C238 1.380 . S
C237 H260 0.929 . S
C238 C237 1.380 . S
C238 C239 1.347 . S
C238 H261 0.931 . S
C239 C238 1.347 . S
C239 C240 1.369 . S
C240 C239 1.369 . S
C240 C241 1.408 . S
C240 H262 0.930 . S
C241 C236 1.348 . S
C241 C240 1.408 . S
C241 H263 0.930 . S
C242 O252 1.270 1_455 S
C242 O253 1.269 . S
C243 O254 1.236 . S
C243 O255 1.266 . S
O244 Tb224 2.484 . S
O244 C226 1.248 . S
O245 Tb224 2.440 . S
O245 C226 1.266 . S
O246 Tb224 2.658 1_455 S
O246 Tb225 2.325 . S
O246 C233 1.273 1_455 S
O247 Tb224 2.409 . S
O247 C233 1.264 . S
O248 Tb224 2.378 . S
O248 C234 1.236 . S
O249 Tb225 2.341 1_655 S
O249 C234 1.266 . S
O250 Tb225 2.484 . S
O250 C235 1.248 . S
O251 Tb225 2.440 . S
O251 C235 1.266 . S
O252 Tb224 2.325 . S
O252 Tb225 2.658 1_655 S
O252 C242 1.270 1_655 S
O253 Tb225 2.409 . S
O253 C242 1.269 . S
O254 Tb225 2.378 . S
O254 C243 1.236 . S
O255 Tb224 2.341 1_455 S
O255 C243 1.266 . S
H256 C228 0.929 . S
H257 C229 0.931 . S
H258 C231 0.930 . S
H259 C232 0.930 1_556 S
H260 C237 0.929 . S
H261 C238 0.931 . S
H262 C240 0.930 . S
H263 C241 0.930 . S
H264 C276 0.930 . S
H265 C278 0.930 . S
H266 C279 0.930 . S
H267 C283 0.959 . S
H268 C283 0.959 . S
H269 C283 0.961 . S
H270 C284 0.960 . S
H271 C284 0.961 . S
H272 C284 0.959 . S
H273 C287 0.929 . S
H274 C288 0.931 . S
H275 C290 0.930 . S
C276 H264 0.930 . S
C276 C277 1.399 1_565 S
C276 C281 1.399 . S
C277 C276 1.399 1_545 S
C277 C278 1.376 . S
C278 H265 0.930 . S
C278 C277 1.376 . S
C278 C279 1.388 . S
C279 H266 0.930 . S
C279 C278 1.388 . S
C279 C280 1.390 . S
C280 C279 1.390 . S
C280 C281 1.394 1_545 S
C280 C286 1.465 . S
C281 C276 1.399 . S
C281 C280 1.394 1_565 S
C281 C282 1.516 . S
C282 C281 1.516 . S
C282 C283 1.502 . S
C282 C284 1.561 . S
C282 C285 1.526 . S
C283 H267 0.959 . S
C283 H268 0.959 . S
C283 H269 0.961 . S
C283 C282 1.502 . S
C284 H270 0.960 . S
C284 H271 0.961 . S
C284 H272 0.959 . S
C284 C282 1.561 . S
C285 C282 1.526 . S
C285 C286 1.396 1_565 S
C285 C290 1.390 . S
C286 C280 1.465 . S
C286 C285 1.396 1_545 S
C286 C287 1.399 . S
C287 H273 0.929 . S
C287 C286 1.399 . S
C287 C288 1.385 . S
C288 H274 0.931 . S
C288 C287 1.385 . S
C288 C289 1.389 . S
C289 C288 1.389 . S
C289 C290 1.387 1_545 S
C290 H275 0.930 . S
C290 C285 1.390 . S
C290 C289 1.387 1_565 S
H291 C303 0.930 . S
H292 C305 0.930 . S
H293 C306 0.930 . S
H294 C310 0.959 . S
H295 C310 0.959 . S
H296 C310 0.961 . S
H297 C311 0.960 . S
H298 C311 0.961 . S
H299 C311 0.959 . S
H300 C314 0.929 . S
H301 C315 0.931 . S
H302 C317 0.930 . S
C303 H291 0.930 . S
C303 C304 1.399 . S
C303 C308 1.399 . S
C304 C303 1.399 . S
C304 C305 1.376 . S
C305 H292 0.930 . S
C305 C304 1.376 . S
C305 C306 1.388 . S
C306 H293 0.930 . S
C306 C305 1.388 . S
C306 C307 1.390 . S
C307 C306 1.390 . S
C307 C308 1.394 . S
C307 C313 1.465 . S
C308 C303 1.399 . S
C308 C307 1.394 . S
C308 C309 1.516 . S
C309 C308 1.516 . S
C309 C310 1.502 . S
C309 C311 1.561 . S
C309 C312 1.526 . S
C310 H294 0.959 . S
C310 H295 0.959 . S
C310 H296 0.961 . S
C310 C309 1.502 . S
C311 H297 0.960 . S
C311 H298 0.961 . S
C311 H299 0.959 . S
C311 C309 1.561 . S
C312 C309 1.526 . S
C312 C313 1.396 . S
C312 C317 1.390 . S
C313 C307 1.465 . S
C313 C312 1.396 . S
C313 C314 1.399 . S
C314 H300 0.929 . S
C314 C313 1.399 . S
C314 C315 1.385 . S
C315 H301 0.931 . S
C315 C314 1.385 . S
C315 C316 1.389 . S
C316 C315 1.389 . S
C316 C317 1.387 . S
C317 H302 0.930 . S
C317 C312 1.390 . S
C317 C316 1.387 . S
H318 C330 0.930 . S
H319 C332 0.930 . S
H320 C333 0.930 . S
H321 C337 0.959 . S
H322 C337 0.959 . S
H323 C337 0.961 . S
H324 C338 0.960 . S
H325 C338 0.961 . S
H326 C338 0.959 . S
H327 C341 0.929 . S
H328 C342 0.931 . S
H329 C344 0.930 . S
C330 H318 0.930 . S
C330 C331 1.399 . S
C330 C335 1.399 . S
C331 C330 1.399 . S
C331 C332 1.376 . S
C332 H319 0.930 . S
C332 C331 1.376 . S
C332 C333 1.388 . S
C333 H320 0.930 . S
C333 C332 1.388 . S
C333 C334 1.390 . S
C334 C333 1.390 . S
C334 C335 1.394 . S
C334 C340 1.465 . S
C335 C330 1.399 . S
C335 C334 1.394 . S
C335 C336 1.516 . S
C336 C335 1.516 . S
C336 C337 1.502 . S
C336 C338 1.561 . S
C336 C339 1.526 . S
C337 H321 0.959 . S
C337 H322 0.959 . S
C337 H323 0.961 . S
C337 C336 1.502 . S
C338 H324 0.960 . S
C338 H325 0.961 . S
C338 H326 0.959 . S
C338 C336 1.561 . S
C339 C336 1.526 . S
C339 C340 1.396 . S
C339 C344 1.390 . S
C340 C334 1.465 . S
C340 C339 1.396 . S
C340 C341 1.399 . S
C341 H327 0.929 . S
C341 C340 1.399 . S
C341 C342 1.385 . S
C342 H328 0.931 . S
C342 C341 1.385 . S
C342 C343 1.389 . S
C343 C342 1.389 . S
C343 C344 1.387 . S
C344 H329 0.930 . S
C344 C339 1.390 . S
C344 C343 1.387 . S
H345 C357 0.930 . S
H346 C359 0.930 . S
H347 C360 0.930 . S
H348 C364 0.959 . S
H349 C364 0.959 . S
H350 C364 0.961 . S
H351 C365 0.960 . S
H352 C365 0.961 . S
H353 C365 0.959 . S
H354 C368 0.929 . S
H355 C369 0.931 . S
H356 C371 0.930 . S
C357 H345 0.930 . S
C357 C358 1.399 1_655 S
C357 C362 1.399 . S
C358 C357 1.399 1_455 S
C358 C359 1.376 . S
C359 H346 0.930 . S
C359 C358 1.376 . S
C359 C360 1.388 . S
C360 H347 0.930 . S
C360 C359 1.388 . S
C360 C361 1.390 . S
C361 C360 1.390 . S
C361 C362 1.394 1_455 S
C361 C367 1.465 . S
C362 C357 1.399 . S
C362 C361 1.394 1_655 S
C362 C363 1.516 . S
C363 C362 1.516 . S
C363 C364 1.502 . S
C363 C365 1.561 . S
C363 C366 1.526 . S
C364 H348 0.959 . S
C364 H349 0.959 . S
C364 H350 0.961 . S
C364 C363 1.502 . S
C365 H351 0.960 . S
C365 H352 0.961 . S
C365 H353 0.959 . S
C365 C363 1.561 . S
C366 C363 1.526 . S
C366 C367 1.396 1_655 S
C366 C371 1.390 . S
C367 C361 1.465 . S
C367 C366 1.396 1_455 S
C367 C368 1.399 . S
C368 H354 0.929 . S
C368 C367 1.399 . S
C368 C369 1.385 . S
C369 H355 0.931 . S
C369 C368 1.385 . S
C369 C370 1.389 . S
C370 C369 1.389 . S
C370 C371 1.387 1_455 S
C371 H356 0.930 . S
C371 C366 1.390 . S
C371 C370 1.387 1_655 S
H372 C384 0.930 . S
H373 C386 0.930 . S
H374 C387 0.930 . S
H375 C391 0.959 . S
H376 C391 0.959 . S
H377 C391 0.961 . S
H378 C392 0.960 . S
H379 C392 0.961 . S
H380 C392 0.959 . S
H381 C395 0.929 . S
H382 C396 0.931 . S
H383 C398 0.930 . S
C384 H372 0.930 . S
C384 C385 1.399 1_545 S
C384 C389 1.399 . S
C385 C384 1.399 1_565 S
C385 C386 1.376 . S
C386 H373 0.930 . S
C386 C385 1.376 . S
C386 C387 1.388 . S
C387 H374 0.930 . S
C387 C386 1.388 . S
C387 C388 1.390 . S
C388 C387 1.390 . S
C388 C389 1.394 1_565 S
C388 C394 1.465 . S
C389 C384 1.399 . S
C389 C388 1.394 1_545 S
C389 C390 1.516 . S
C390 C389 1.516 . S
C390 C391 1.502 . S
C390 C392 1.561 . S
C390 C393 1.526 . S
C391 H375 0.959 . S
C391 H376 0.959 . S
C391 H377 0.961 . S
C391 C390 1.502 . S
C392 H378 0.960 . S
C392 H379 0.961 . S
C392 H380 0.959 . S
C392 C390 1.561 . S
C393 C390 1.526 . S
C393 C394 1.396 1_545 S
C393 C398 1.390 1_554 S
C394 C388 1.465 . S
C394 C393 1.396 1_565 S
C394 C395 1.399 . S
C395 H381 0.929 . S
C395 C394 1.399 . S
C395 C396 1.385 1_554 S
C396 H382 0.931 . S
C396 C395 1.385 1_556 S
C396 C397 1.389 . S
C397 C396 1.389 . S
C397 C398 1.387 1_565 S
C398 H383 0.930 . S
C398 C393 1.390 1_556 S
C398 C397 1.387 1_545 S
H399 C411 0.930 . S
H400 C413 0.930 . S
H401 C414 0.930 . S
H402 C418 0.959 . S
H403 C418 0.959 . S
H404 C418 0.961 . S
H405 C419 0.960 . S
H406 C419 0.961 . S
H407 C419 0.959 . S
H408 C422 0.929 . S
H409 C423 0.931 . S
H410 C425 0.930 . S
C411 H399 0.930 . S
C411 C412 1.399 . S
C411 C416 1.399 . S
C412 C411 1.399 . S
C412 C413 1.376 . S
C413 H400 0.930 . S
C413 C412 1.376 . S
C413 C414 1.388 . S
C414 H401 0.930 . S
C414 C413 1.388 . S
C414 C415 1.390 . S
C415 C414 1.390 . S
C415 C416 1.394 . S
C415 C421 1.465 . S
C416 C411 1.399 . S
C416 C415 1.394 . S
C416 C417 1.516 . S
C417 C416 1.516 . S
C417 C418 1.502 . S
C417 C419 1.561 . S
C417 C420 1.526 . S
C418 H402 0.959 . S
C418 H403 0.959 . S
C418 H404 0.961 . S
C418 C417 1.502 . S
C419 H405 0.960 . S
C419 H406 0.961 . S
C419 H407 0.959 . S
C419 C417 1.561 . S
C420 C417 1.526 . S
C420 C421 1.396 . S
C420 C425 1.390 . S
C421 C415 1.465 . S
C421 C420 1.396 . S
C421 C422 1.399 1_554 S
C422 H408 0.929 . S
C422 C421 1.399 1_556 S
C422 C423 1.385 . S
C423 H409 0.931 . S
C423 C422 1.385 . S
C423 C424 1.389 . S
C424 C423 1.389 . S
C424 C425 1.387 1_556 S
C425 H410 0.930 . S
C425 C420 1.390 . S
C425 C424 1.387 1_554 S
H426 C438 0.930 . S
H427 C440 0.930 . S
H428 C441 0.930 . S
H429 C445 0.959 . S
H430 C445 0.959 . S
H431 C445 0.961 . S
H432 C446 0.960 . S
H433 C446 0.961 . S
H434 C446 0.959 . S
H435 C449 0.929 . S
H436 C450 0.931 . S
H437 C452 0.930 . S
C438 H426 0.930 . S
C438 C439 1.399 . S
C438 C443 1.399 . S
C439 C438 1.399 . S
C439 C440 1.376 . S
C440 H427 0.930 . S
C440 C439 1.376 . S
C440 C441 1.388 . S
C441 H428 0.930 . S
C441 C440 1.388 . S
C441 C442 1.390 . S
C442 C441 1.390 . S
C442 C443 1.394 . S
C442 C448 1.465 . S
C443 C438 1.399 . S
C443 C442 1.394 . S
C443 C444 1.516 . S
C444 C443 1.516 . S
C444 C445 1.502 . S
C444 C446 1.561 . S
C444 C447 1.526 . S
C445 H429 0.959 . S
C445 H430 0.959 . S
C445 H431 0.961 . S
C445 C444 1.502 . S
C446 H432 0.960 . S
C446 H433 0.961 . S
C446 H434 0.959 . S
C446 C444 1.561 . S
C447 C444 1.526 . S
C447 C448 1.396 . S
C447 C452 1.382 1_554 S
C448 C442 1.465 . S
C448 C447 1.396 . S
C448 C449 1.399 . S
C449 H435 0.929 . S
C449 C448 1.399 . S
C449 C450 1.385 1_554 S
C450 H436 0.931 . S
C450 C449 1.385 1_556 S
C450 C451 1.389 . S
C451 C450 1.389 . S
C451 C452 1.394 . S
C452 H437 0.930 . S
C452 C447 1.382 1_556 S
C452 C451 1.394 . S
H453 C465 0.930 . S
H454 C467 0.930 . S
H455 C468 0.930 . S
H456 C472 0.959 . S
H457 C472 0.959 1_556 S
H458 C472 0.961 . S
H459 C473 0.960 1_554 S
H460 C473 0.961 . S
H461 C473 0.959 1_554 S
H462 C476 0.929 . S
H463 C477 0.931 . S
H464 C479 0.930 . S
C465 H453 0.930 . S
C465 C466 1.399 1_655 S
C465 C470 1.400 . S
C466 C465 1.399 1_455 S
C466 C467 1.376 . S
C467 H454 0.930 . S
C467 C466 1.376 . S
C467 C468 1.388 . S
C468 H455 0.930 . S
C468 C467 1.388 . S
C468 C469 1.390 . S
C469 C468 1.390 . S
C469 C470 1.392 1_455 S
C469 C475 1.465 . S
C470 C465 1.400 . S
C470 C469 1.392 1_655 S
C470 C471 1.517 . S
C471 C470 1.517 . S
C471 C472 1.502 . S
C471 C473 1.561 1_654 S
C471 C474 1.528 . S
C472 H456 0.959 . S
C472 H457 0.959 1_554 S
C472 H458 0.961 . S
C472 C471 1.502 . S
C473 H459 0.960 1_556 S
C473 H460 0.961 . S
C473 H461 0.959 1_556 S
C473 C471 1.561 1_456 S
C474 C471 1.528 . S
C474 C475 1.392 1_655 S
C474 C479 1.392 1_554 S
C475 C469 1.465 . S
C475 C474 1.392 1_455 S
C475 C476 1.399 . S
C476 H462 0.929 . S
C476 C475 1.399 . S
C476 C477 1.385 . S
C477 H463 0.931 . S
C477 C476 1.385 . S
C477 C478 1.389 1_454 S
C478 C477 1.389 1_656 S
C478 C479 1.387 . S
C479 H464 0.930 . S
C479 C474 1.392 1_556 S
C479 C478 1.387 . S
H480 C492 0.930 1_455 S
H481 C494 0.930 . S
H482 C495 0.930 . S
H483 C499 0.959 . S
H484 C499 0.959 . S
H485 C499 0.961 . S
H486 C500 0.960 . S
H487 C500 0.961 . S
H488 C500 0.959 . S
H489 C503 0.929 . S
H490 C504 0.931 . S
H491 C506 0.930 . S
C492 H480 0.930 1_655 S
C492 C493 1.399 1_655 S
C492 C497 1.399 . S
C493 C492 1.399 1_455 S
C493 C494 1.374 1_455 S
C494 H481 0.930 . S
C494 C493 1.374 1_655 S
C494 C495 1.388 . S
C495 H482 0.930 . S
C495 C494 1.388 . S
C495 C496 1.390 . S
C496 C495 1.390 . S
C496 C497 1.394 . S
C496 C502 1.465 . S
C497 C492 1.399 . S
C497 C496 1.394 . S
C497 C498 1.516 . S
C498 C497 1.516 . S
C498 C499 1.502 1_655 S
C498 C500 1.561 . S
C498 C501 1.526 . S
C499 H483 0.959 . S
C499 H484 0.959 . S
C499 H485 0.961 . S
C499 C498 1.502 1_455 S
C500 H486 0.960 . S
C500 H487 0.961 . S
C500 H488 0.959 . S
C500 C498 1.561 . S
C501 C498 1.526 . S
C501 C502 1.396 . S
C501 C506 1.390 . S
C502 C496 1.465 . S
C502 C501 1.396 . S
C502 C503 1.399 . S
C503 H489 0.929 . S
C503 C502 1.399 . S
C503 C504 1.385 . S
C504 H490 0.931 . S
C504 C503 1.385 . S
C504 C505 1.389 . S
C505 C504 1.389 . S
C505 C506 1.387 . S
C506 H491 0.930 . S
C506 C501 1.390 . S
C506 C505 1.387 . S
H507 C519 0.930 . S
H508 C521 0.930 . S
H509 C522 0.930 . S
H510 C526 0.959 . S
H511 C526 0.959 . S
H512 C526 0.961 . S
H513 C527 0.960 . S
H514 C527 0.961 . S
H515 C527 0.959 . S
H516 C530 0.929 . S
H517 C531 0.931 1_545 S
H518 C533 0.930 . S
C519 H507 0.930 . S
C519 C520 1.399 1_565 S
C519 C524 1.399 . S
C520 C519 1.399 1_545 S
C520 C521 1.376 . S
C521 H508 0.930 . S
C521 C520 1.376 . S
C521 C522 1.388 . S
C522 H509 0.930 . S
C522 C521 1.388 . S
C522 C523 1.386 1_545 S
C523 C522 1.386 1_565 S
C523 C524 1.397 . S
C523 C529 1.466 . S
C524 C519 1.399 . S
C524 C523 1.397 . S
C524 C525 1.516 . S
C525 C524 1.516 . S
C525 C526 1.502 . S
C525 C527 1.561 . S
C525 C528 1.526 . S
C526 H510 0.959 . S
C526 H511 0.959 . S
C526 H512 0.961 . S
C526 C525 1.502 . S
C527 H513 0.960 . S
C527 H514 0.961 . S
C527 H515 0.959 . S
C527 C525 1.561 . S
C528 C525 1.526 . S
C528 C529 1.396 . S
C528 C533 1.390 . S
C529 C523 1.466 . S
C529 C528 1.396 . S
C529 C530 1.399 1_565 S
C530 H516 0.929 . S
C530 C529 1.399 1_545 S
C530 C531 1.385 1_545 S
C531 H517 0.931 1_565 S
C531 C530 1.385 1_565 S
C531 C532 1.389 . S
C532 C531 1.389 . S
C532 C533 1.387 . S
C533 H518 0.930 . S
C533 C528 1.390 . S
C533 C532 1.387 . S
H534 C546 0.930 . S
H535 C548 0.930 . S
H536 C549 0.930 . S
H537 C553 0.959 . S
H538 C553 0.959 . S
H539 C553 0.961 . S
H540 C554 0.960 . S
H541 C554 0.961 . S
H542 C554 0.959 . S
H543 C557 0.929 . S
H544 C558 0.931 . S
H545 C560 0.930 . S
C546 H534 0.930 . S
C546 C547 1.399 . S
C546 C551 1.399 . S
C547 C546 1.399 . S
C547 C548 1.376 . S
C548 H535 0.930 . S
C548 C547 1.376 . S
C548 C549 1.388 . S
C549 H536 0.930 . S
C549 C548 1.388 . S
C549 C550 1.390 . S
C550 C549 1.390 . S
C550 C551 1.394 . S
C550 C556 1.465 . S
C551 C546 1.399 . S
C551 C550 1.394 . S
C551 C552 1.516 . S
C552 C551 1.516 . S
C552 C553 1.502 . S
C552 C554 1.561 . S
C552 C555 1.526 . S
C553 H537 0.959 . S
C553 H538 0.959 . S
C553 H539 0.961 . S
C553 C552 1.502 . S
C554 H540 0.960 . S
C554 H541 0.961 . S
C554 H542 0.959 . S
C554 C552 1.561 . S
C555 C552 1.526 . S
C555 C556 1.396 . S
C555 C560 1.390 . S
C556 C550 1.465 . S
C556 C555 1.396 . S
C556 C557 1.399 . S
C557 H543 0.929 . S
C557 C556 1.399 . S
C557 C558 1.385 . S
C558 H544 0.931 . S
C558 C557 1.385 . S
C558 C559 1.389 . S
C559 C558 1.389 . S
C559 C560 1.387 . S
C560 H545 0.930 . S
C560 C555 1.390 . S
C560 C559 1.387 . S
H561 C573 0.930 . S
H562 C575 0.930 . S
H563 C576 0.930 . S
H564 C580 0.959 . S
H565 C580 0.959 . S
H566 C580 0.961 . S
H567 C581 0.960 . S
H568 C581 0.961 . S
H569 C581 0.959 . S
H570 C584 0.929 . S
H571 C585 0.931 . S
H572 C587 0.930 . S
C573 H561 0.930 . S
C573 C574 1.399 . S
C573 C578 1.399 . S
C574 C573 1.399 . S
C574 C575 1.376 . S
C575 H562 0.930 . S
C575 C574 1.376 . S
C575 C576 1.388 . S
C576 H563 0.930 . S
C576 C575 1.388 . S
C576 C577 1.390 . S
C577 C576 1.390 . S
C577 C578 1.394 . S
C577 C583 1.465 . S
C578 C573 1.399 . S
C578 C577 1.394 . S
C578 C579 1.516 . S
C579 C578 1.516 . S
C579 C580 1.502 . S
C579 C581 1.561 . S
C579 C582 1.526 . S
C580 H564 0.959 . S
C580 H565 0.959 . S
C580 H566 0.961 . S
C580 C579 1.502 . S
C581 H567 0.960 . S
C581 H568 0.961 . S
C581 H569 0.959 . S
C581 C579 1.561 . S
C582 C579 1.526 . S
C582 C583 1.396 . S
C582 C587 1.390 . S
C583 C577 1.465 . S
C583 C582 1.396 . S
C583 C584 1.399 . S
C584 H570 0.929 . S
C584 C583 1.399 . S
C584 C585 1.385 . S
C585 H571 0.931 . S
C585 C584 1.385 . S
C585 C586 1.389 . S
C586 C585 1.389 . S
C586 C587 1.387 . S
C587 H572 0.930 . S
C587 C582 1.390 . S
C587 C586 1.387 . S
H588 C600 0.919 1_655 S
H589 C602 0.930 . S
H590 C603 0.930 . S
H591 C607 0.959 . S
H592 C607 0.959 . S
H593 C607 0.961 . S
H594 C608 0.960 . S
H595 C608 0.961 . S
H596 C608 0.959 . S
H597 C611 0.929 . S
H598 C612 0.931 1_556 S
H599 C614 0.930 . S
C600 H588 0.919 1_455 S
C600 C601 1.398 1_455 S
C600 C605 1.412 . S
C601 C600 1.398 1_655 S
C601 C602 1.375 1_655 S
C602 H589 0.930 . S
C602 C601 1.375 1_455 S
C602 C603 1.388 . S
C603 H590 0.930 . S
C603 C602 1.388 . S
C603 C604 1.390 . S
C604 C603 1.390 . S
C604 C605 1.394 . S
C604 C610 1.465 . S
C605 C600 1.412 . S
C605 C604 1.394 . S
C605 C606 1.516 . S
C606 C605 1.516 . S
C606 C607 1.502 1_455 S
C606 C608 1.561 . S
C606 C609 1.526 . S
C607 H591 0.959 . S
C607 H592 0.959 . S
C607 H593 0.961 . S
C607 C606 1.502 1_655 S
C608 H594 0.960 . S
C608 H595 0.961 . S
C608 H596 0.959 . S
C608 C606 1.561 . S
C609 C606 1.526 . S
C609 C610 1.396 . S
C609 C614 1.390 . S
C610 C604 1.465 . S
C610 C609 1.396 . S
C610 C611 1.399 . S
C611 H597 0.929 . S
C611 C610 1.399 . S
C611 C612 1.385 . S
C612 H598 0.931 1_554 S
C612 C611 1.385 . S
C612 C613 1.389 . S
C613 C612 1.389 . S
C613 C614 1.387 . S
C614 H599 0.930 . S
C614 C609 1.390 . S
C614 C613 1.387 . S
H615 C627 0.930 . S
H616 C629 0.930 . S
H617 C630 0.930 . S
H618 C634 0.959 . S
H619 C634 0.959 . S
H620 C634 0.961 . S
H621 C635 0.960 . S
H622 C635 0.961 . S
H623 C635 0.959 . S
H624 C638 0.929 1_565 S
H625 C639 0.931 1_556 S
H626 C641 0.930 . S
C627 H615 0.930 . S
C627 C628 1.399 1_545 S
C627 C632 1.399 . S
C628 C627 1.399 1_565 S
C628 C629 1.376 . S
C629 H616 0.930 . S
C629 C628 1.376 . S
C629 C630 1.388 . S
C630 H617 0.930 . S
C630 C629 1.388 . S
C630 C631 1.390 1_565 S
C631 C630 1.390 1_545 S
C631 C632 1.394 . S
C631 C637 1.465 . S
C632 C627 1.399 . S
C632 C631 1.394 . S
C632 C633 1.516 . S
C633 C632 1.516 . S
C633 C634 1.502 . S
C633 C635 1.561 . S
C633 C636 1.526 . S
C634 H618 0.959 . S
C634 H619 0.959 . S
C634 H620 0.961 . S
C634 C633 1.502 . S
C635 H621 0.960 . S
C635 H622 0.961 . S
C635 H623 0.959 . S
C635 C633 1.561 . S
C636 C633 1.526 . S
C636 C637 1.396 . S
C636 C641 1.390 . S
C637 C631 1.465 . S
C637 C636 1.396 . S
C637 C638 1.399 . S
C638 H624 0.929 1_545 S
C638 C637 1.399 . S
C638 C639 1.385 . S
C639 H625 0.931 1_554 S
C639 C638 1.385 . S
C639 C640 1.389 . S
C640 C639 1.389 . S
C640 C641 1.387 . S
C641 H626 0.930 . S
C641 C636 1.390 . S
C641 C640 1.387 . S
H642 C654 0.930 . S
H643 C656 0.930 . S
H644 C657 0.930 . S
H645 C661 0.959 . S
H646 C661 0.959 . S
H647 C661 0.961 . S
H648 C662 0.960 . S
H649 C662 0.961 . S
H650 C662 0.959 . S
H651 C665 0.929 . S
H652 C666 0.931 1_556 S
H653 C668 0.930 . S
C654 H642 0.930 . S
C654 C655 1.399 . S
C654 C659 1.399 . S
C655 C654 1.399 . S
C655 C656 1.376 . S
C656 H643 0.930 . S
C656 C655 1.376 . S
C656 C657 1.388 . S
C657 H644 0.930 . S
C657 C656 1.388 . S
C657 C658 1.390 . S
C658 C657 1.390 . S
C658 C659 1.394 . S
C658 C664 1.465 . S
C659 C654 1.399 . S
C659 C658 1.394 . S
C659 C660 1.516 . S
C660 C659 1.516 . S
C660 C661 1.502 . S
C660 C662 1.561 . S
C660 C663 1.526 . S
C661 H645 0.959 . S
C661 H646 0.959 . S
C661 H647 0.961 . S
C661 C660 1.502 . S
C662 H648 0.960 . S
C662 H649 0.961 . S
C662 H650 0.959 . S
C662 C660 1.561 . S
C663 C660 1.526 . S
C663 C664 1.396 . S
C663 C668 1.390 . S
C664 C658 1.465 . S
C664 C663 1.396 . S
C664 C665 1.399 . S
C665 H651 0.929 . S
C665 C664 1.399 . S
C665 C666 1.385 . S
C666 H652 0.931 1_554 S
C666 C665 1.385 . S
C666 C667 1.389 . S
C667 C666 1.389 . S
C667 C668 1.387 . S
C668 H653 0.930 . S
C668 C663 1.390 . S
C668 C667 1.387 . S
H669 C681 0.930 . S
H670 C683 0.930 . S
H671 C684 0.930 . S
H672 C688 0.959 . S
H673 C688 0.959 . S
H674 C688 0.961 . S
H675 C689 0.960 . S
H676 C689 0.961 . S
H677 C689 0.959 . S
H678 C692 0.929 . S
H679 C693 0.931 1_556 S
H680 C695 0.930 . S
C681 H669 0.930 . S
C681 C682 1.399 . S
C681 C686 1.399 . S
C682 C681 1.399 . S
C682 C683 1.376 . S
C683 H670 0.930 . S
C683 C682 1.376 . S
C683 C684 1.388 . S
C684 H671 0.930 . S
C684 C683 1.388 . S
C684 C685 1.390 . S
C685 C684 1.390 . S
C685 C686 1.394 . S
C685 C691 1.465 . S
C686 C681 1.399 . S
C686 C685 1.394 . S
C686 C687 1.516 . S
C687 C686 1.516 . S
C687 C688 1.502 . S
C687 C689 1.561 . S
C687 C690 1.526 . S
C688 H672 0.959 . S
C688 H673 0.959 . S
C688 H674 0.961 . S
C688 C687 1.502 . S
C689 H675 0.960 . S
C689 H676 0.961 . S
C689 H677 0.959 . S
C689 C687 1.561 . S
C690 C687 1.526 . S
C690 C691 1.396 . S
C690 C695 1.390 . S
C691 C685 1.465 . S
C691 C690 1.396 . S
C691 C692 1.399 . S
C692 H678 0.929 . S
C692 C691 1.399 . S
C692 C693 1.385 . S
C693 H679 0.931 1_554 S
C693 C692 1.385 . S
C693 C694 1.389 . S
C694 C693 1.389 . S
C694 C695 1.387 . S
C695 H680 0.930 . S
C695 C690 1.390 . S
C695 C694 1.387 . S
H696 C708 0.930 . S
H697 C710 0.930 . S
H698 C711 0.930 . S
H699 C715 0.959 1_556 S
H700 C715 0.959 . S
H701 C715 0.961 . S
H702 C716 0.960 . S
H703 C716 0.961 . S
H704 C716 0.959 . S
H705 C719 0.929 . S
H706 C720 0.931 . S
H707 C722 0.930 . S
C708 H696 0.930 . S
C708 C709 1.396 1_455 S
C708 C713 1.399 . S
C709 C708 1.396 1_655 S
C709 C710 1.380 . S
C710 H697 0.930 . S
C710 C709 1.380 . S
C710 C711 1.388 . S
C711 H698 0.930 . S
C711 C710 1.388 . S
C711 C712 1.390 . S
C712 C711 1.390 . S
C712 C713 1.394 1_655 S
C712 C718 1.469 . S
C713 C708 1.399 . S
C713 C712 1.394 1_455 S
C713 C714 1.516 . S
C714 C713 1.516 . S
C714 C715 1.502 1_556 S
C714 C716 1.561 1_456 S
C714 C717 1.526 . S
C715 H699 0.959 1_554 S
C715 H700 0.959 . S
C715 H701 0.961 . S
C715 C714 1.502 1_554 S
C716 H702 0.960 . S
C716 H703 0.961 . S
C716 H704 0.959 . S
C716 C714 1.561 1_654 S
C717 C714 1.526 . S
C717 C718 1.380 1_455 S
C717 C722 1.390 . S
C718 C712 1.469 . S
C718 C717 1.380 1_655 S
C718 C719 1.410 . S
C719 H705 0.929 . S
C719 C718 1.410 . S
C719 C720 1.385 . S
C720 H706 0.931 . S
C720 C719 1.385 . S
C720 C721 1.389 1_655 S
C721 C720 1.389 1_455 S
C721 C722 1.387 . S
C722 H707 0.930 . S
C722 C717 1.390 . S
C722 C721 1.387 . S
H723 C735 0.930 . S
H724 C737 0.930 . S
H725 C738 0.930 . S
H726 C742 0.959 . S
H727 C742 0.959 . S
H728 C742 0.961 . S
H729 C743 0.960 . S
H730 C743 0.961 . S
H731 C743 0.959 1_554 S
H732 C746 0.929 . S
H733 C747 0.931 . S
H734 C749 0.930 . S
C735 H723 0.930 . S
C735 C736 1.374 1_545 S
C735 C740 1.399 . S
C736 C735 1.374 1_565 S
C736 C737 1.405 . S
C737 H724 0.930 . S
C737 C736 1.405 . S
C737 C738 1.388 . S
C738 H725 0.930 . S
C738 C737 1.388 . S
C738 C739 1.390 . S
C739 C738 1.390 . S
C739 C740 1.394 1_565 S
C739 C745 1.465 . S
C740 C735 1.399 . S
C740 C739 1.394 1_545 S
C740 C741 1.516 . S
C741 C740 1.516 . S
C741 C742 1.502 . S
C741 C743 1.561 . S
C741 C744 1.526 . S
C742 H726 0.959 . S
C742 H727 0.959 . S
C742 H728 0.961 . S
C742 C741 1.502 . S
C743 H729 0.960 . S
C743 H730 0.961 . S
C743 H731 0.959 1_556 S
C743 C741 1.561 . S
C744 C741 1.526 . S
C744 C745 1.396 1_545 S
C744 C749 1.390 . S
C745 C739 1.465 . S
C745 C744 1.396 1_565 S
C745 C746 1.399 . S
C746 H732 0.929 . S
C746 C745 1.399 . S
C746 C747 1.385 . S
C747 H733 0.931 . S
C747 C746 1.385 . S
C747 C748 1.389 1_565 S
C748 C747 1.389 1_545 S
C748 C749 1.387 . S
C749 H734 0.930 . S
C749 C744 1.390 . S
C749 C748 1.387 . S
H750 C762 0.930 . S
H751 C764 0.930 . S
H752 C765 0.930 1_554 S
H753 C769 0.959 . S
H754 C769 0.959 . S
H755 C769 0.961 . S
H756 C770 0.960 . S
H757 C770 0.961 . S
H758 C770 0.959 . S
H759 C773 0.929 . S
H760 C774 0.931 . S
H761 C776 0.930 . S
C762 H750 0.930 . S
C762 C763 1.399 . S
C762 C767 1.399 . S
C763 C762 1.399 . S
C763 C764 1.376 . S
C764 H751 0.930 . S
C764 C763 1.376 . S
C764 C765 1.388 . S
C765 H752 0.930 1_556 S
C765 C764 1.388 . S
C765 C766 1.390 . S
C766 C765 1.390 . S
C766 C767 1.394 . S
C766 C772 1.465 . S
C767 C762 1.399 . S
C767 C766 1.394 . S
C767 C768 1.516 . S
C768 C767 1.516 . S
C768 C769 1.502 . S
C768 C770 1.561 . S
C768 C771 1.526 . S
C769 H753 0.959 . S
C769 H754 0.959 . S
C769 H755 0.961 . S
C769 C768 1.502 . S
C770 H756 0.960 . S
C770 H757 0.961 . S
C770 H758 0.959 . S
C770 C768 1.561 . S
C771 C768 1.526 . S
C771 C772 1.396 . S
C771 C776 1.390 . S
C772 C766 1.465 . S
C772 C771 1.396 . S
C772 C773 1.399 . S
C773 H759 0.929 . S
C773 C772 1.399 . S
C773 C774 1.385 . S
C774 H760 0.931 . S
C774 C773 1.385 . S
C774 C775 1.389 . S
C775 C774 1.389 . S
C775 C776 1.387 . S
C776 H761 0.930 . S
C776 C771 1.390 . S
C776 C775 1.387 . S
H777 C789 0.930 . S
H778 C791 0.930 . S
H779 C792 0.930 . S
H780 C796 0.959 . S
H781 C796 0.959 . S
H782 C796 0.961 . S
H783 C797 0.960 . S
H784 C797 0.961 . S
H785 C797 0.959 1_554 S
H786 C800 0.929 . S
H787 C801 0.931 . S
H788 C803 0.930 . S
C789 H777 0.930 . S
C789 C790 1.399 . S
C789 C794 1.399 . S
C790 C789 1.399 . S
C790 C791 1.376 . S
C791 H778 0.930 . S
C791 C790 1.376 . S
C791 C792 1.388 . S
C792 H779 0.930 . S
C792 C791 1.388 . S
C792 C793 1.390 . S
C793 C792 1.390 . S
C793 C794 1.394 . S
C793 C799 1.465 . S
C794 C789 1.399 . S
C794 C793 1.394 . S
C794 C795 1.516 . S
C795 C794 1.516 . S
C795 C796 1.502 . S
C795 C797 1.561 . S
C795 C798 1.526 . S
C796 H780 0.959 . S
C796 H781 0.959 . S
C796 H782 0.961 . S
C796 C795 1.502 . S
C797 H783 0.960 . S
C797 H784 0.961 . S
C797 H785 0.959 1_556 S
C797 C795 1.561 . S
C798 C795 1.526 . S
C798 C799 1.396 . S
C798 C803 1.390 . S
C799 C793 1.465 . S
C799 C798 1.396 . S
C799 C800 1.399 . S
C800 H786 0.929 . S
C800 C799 1.399 . S
C800 C801 1.385 . S
C801 H787 0.931 . S
C801 C800 1.385 . S
C801 C802 1.389 . S
C802 C801 1.389 . S
C802 C803 1.387 . S
C803 H788 0.930 . S
C803 C798 1.390 . S
C803 C802 1.387 . S
H804 C816 0.930 . S
H805 C818 0.930 . S
H806 C819 0.930 . S
H807 C823 0.934 1_655 S
H808 C823 0.959 . S
H809 C823 0.961 . S
H810 C824 0.960 . S
H811 C824 0.961 . S
H812 C824 0.959 . S
H813 C827 0.929 . S
H814 C828 0.931 . S
H815 C830 0.930 . S
C816 H804 0.930 . S
C816 C817 1.399 1_455 S
C816 C821 1.399 . S
C817 C816 1.399 1_655 S
C817 C818 1.376 . S
C818 H805 0.930 . S
C818 C817 1.376 . S
C818 C819 1.388 . S
C819 H806 0.930 . S
C819 C818 1.388 . S
C819 C820 1.390 . S
C820 C819 1.390 . S
C820 C821 1.394 1_655 S
C820 C826 1.465 . S
C821 C816 1.399 . S
C821 C820 1.394 1_455 S
C821 C822 1.516 . S
C822 C821 1.516 . S
C822 C823 1.502 . S
C822 C824 1.561 . S
C822 C825 1.526 . S
C823 H807 0.934 1_455 S
C823 H808 0.959 . S
C823 H809 0.961 . S
C823 C822 1.502 . S
C824 H810 0.960 . S
C824 H811 0.961 . S
C824 H812 0.959 . S
C824 C822 1.561 . S
C825 C822 1.526 . S
C825 C826 1.396 1_455 S
C825 C830 1.390 . S
C826 C820 1.465 . S
C826 C825 1.396 1_655 S
C826 C827 1.399 . S
C827 H813 0.929 . S
C827 C826 1.399 . S
C827 C828 1.385 . S
C828 H814 0.931 . S
C828 C827 1.385 . S
C828 C829 1.389 . S
C829 C828 1.389 . S
C829 C830 1.387 1_655 S
C830 H815 0.930 . S
C830 C825 1.390 . S
C830 C829 1.387 1_455 S
H831 C843 0.930 . S
H832 C845 0.930 . S
H833 C846 0.930 . S
H834 C850 0.959 . S
H835 C850 0.959 . S
H836 C850 0.961 . S
H837 C851 0.960 . S
H838 C851 0.961 1_565 S
H839 C851 0.959 . S
H840 C854 0.929 . S
H841 C855 0.931 . S
H842 C857 0.930 . S
C843 H831 0.930 . S
C843 C844 1.390 1_565 S
C843 C848 1.399 . S
C844 C843 1.390 1_545 S
C844 C845 1.387 . S
C845 H832 0.930 . S
C845 C844 1.387 . S
C845 C846 1.388 . S
C846 H833 0.930 . S
C846 C845 1.388 . S
C846 C847 1.390 . S
C847 C846 1.390 . S
C847 C848 1.394 1_545 S
C847 C853 1.465 . S
C848 C843 1.399 . S
C848 C847 1.394 1_565 S
C848 C849 1.516 . S
C849 C848 1.516 . S
C849 C850 1.502 . S
C849 C851 1.561 1_565 S
C849 C852 1.526 . S
C850 H834 0.959 . S
C850 H835 0.959 . S
C850 H836 0.961 . S
C850 C849 1.502 . S
C851 H837 0.960 . S
C851 H838 0.961 1_545 S
C851 H839 0.959 . S
C851 C849 1.561 1_545 S
C852 C849 1.526 . S
C852 C853 1.396 1_565 S
C852 C857 1.390 . S
C853 C847 1.465 . S
C853 C852 1.396 1_545 S
C853 C854 1.399 . S
C854 H840 0.929 . S
C854 C853 1.399 . S
C854 C855 1.385 . S
C855 H841 0.931 . S
C855 C854 1.385 . S
C855 C856 1.389 1_545 S
C856 C855 1.389 1_565 S
C856 C857 1.387 . S
C857 H842 0.930 . S
C857 C852 1.390 . S
C857 C856 1.387 . S
H858 C870 0.930 . S
H859 C872 0.930 . S
H860 C873 0.930 . S
H861 C877 0.959 . S
H862 C877 0.959 . S
H863 C877 0.961 . S
H864 C878 0.960 . S
H865 C878 0.961 . S
H866 C878 0.959 . S
H867 C881 0.929 . S
H868 C882 0.931 . S
H869 C884 0.930 . S
C870 H858 0.930 . S
C870 C871 1.399 . S
C870 C875 1.399 . S
C871 C870 1.399 . S
C871 C872 1.376 . S
C872 H859 0.930 . S
C872 C871 1.376 . S
C872 C873 1.388 . S
C873 H860 0.930 . S
C873 C872 1.388 . S
C873 C874 1.390 . S
C874 C873 1.390 . S
C874 C875 1.394 . S
C874 C880 1.465 . S
C875 C870 1.399 . S
C875 C874 1.394 . S
C875 C876 1.516 . S
C876 C875 1.516 . S
C876 C877 1.502 . S
C876 C878 1.561 . S
C876 C879 1.526 . S
C877 H861 0.959 . S
C877 H862 0.959 . S
C877 H863 0.961 . S
C877 C876 1.502 . S
C878 H864 0.960 . S
C878 H865 0.961 . S
C878 H866 0.959 . S
C878 C876 1.561 . S
C879 C876 1.526 . S
C879 C880 1.396 . S
C879 C884 1.390 . S
C880 C874 1.465 . S
C880 C879 1.396 . S
C880 C881 1.399 . S
C881 H867 0.929 . S
C881 C880 1.399 . S
C881 C882 1.385 . S
C882 H868 0.931 . S
C882 C881 1.385 . S
C882 C883 1.389 . S
C883 C882 1.389 . S
C883 C884 1.387 . S
C884 H869 0.930 . S
C884 C879 1.390 . S
C884 C883 1.387 . S
H885 C897 0.930 . S
H886 C899 0.930 . S
H887 C900 0.930 . S
H888 C904 0.959 . S
H889 C904 0.959 . S
H890 C904 0.961 . S
H891 C905 0.960 . S
H892 C905 0.961 . S
H893 C905 0.959 . S
H894 C908 0.929 . S
H895 C909 0.931 . S
H896 C911 0.930 . S
C897 H885 0.930 . S
C897 C898 1.399 . S
C897 C902 1.399 . S
C898 C897 1.399 . S
C898 C899 1.376 . S
C899 H886 0.930 . S
C899 C898 1.376 . S
C899 C900 1.388 . S
C900 H887 0.930 . S
C900 C899 1.388 . S
C900 C901 1.390 . S
C901 C900 1.390 . S
C901 C902 1.394 . S
C901 C907 1.465 . S
C902 C897 1.399 . S
C902 C901 1.394 . S
C902 C903 1.516 . S
C903 C902 1.516 . S
C903 C904 1.502 . S
C903 C905 1.561 . S
C903 C906 1.526 . S
C904 H888 0.959 . S
C904 H889 0.959 . S
C904 H890 0.961 . S
C904 C903 1.502 . S
C905 H891 0.960 . S
C905 H892 0.961 . S
C905 H893 0.959 . S
C905 C903 1.561 . S
C906 C903 1.526 . S
C906 C907 1.396 . S
C906 C911 1.390 . S
C907 C901 1.465 . S
C907 C906 1.396 . S
C907 C908 1.399 . S
C908 H894 0.929 . S
C908 C907 1.399 . S
C908 C909 1.385 . S
C909 H895 0.931 . S
C909 C908 1.385 . S
C909 C910 1.389 . S
C910 C909 1.389 . S
C910 C911 1.387 . S
C911 H896 0.930 . S
C911 C906 1.390 . S
C911 C910 1.387 . S
C277 C82 1.610 . S
C289 C113 1.940 1_545 S
C316 C153 1.968 . S
C304 C95 1.692 . S
C343 C193 1.957 . S
C331 C56 1.714 . S
C370 C233 1.957 1_455 S
C358 C69 1.662 . S
C397 C122 1.950 1_565 S
C385 C30 1.714 1_565 S
C412 C43 1.681 . S
C424 C162 1.961 . S
C439 C4 1.710 . S
C451 C202 1.970 . S
C466 C17 1.710 . S
C478 C242 1.956 1_655 S
C505 C119 0.523 . S
C493 C74 0.400 . S
C532 C159 0.428 . S
C520 C87 0.519 . S
C559 C199 0.503 . S
C547 C100 0.618 . S
C574 C61 0.441 . S
C586 C239 0.564 . S
C601 C22 0.553 1_655 S
C613 C110 0.529 . S
C640 C150 0.460 . S
C628 C35 0.617 1_565 S
C667 C190 0.537 . S
C655 C48 0.582 . S
C682 C9 0.574 . S
C694 C230 0.525 . S
C709 C73 2.089 1_655 S
C721 C123 2.273 . S
C736 C86 2.000 1_565 S
C748 C163 2.229 . S
C775 C203 2.219 . S
C763 C99 1.954 . S
C802 C243 2.250 . S
C790 C60 2.017 . S
C817 C21 2.014 1_655 S
C829 C114 2.305 . S
C856 C154 2.238 . S
C844 C34 1.991 . S
C883 C194 2.226 . S
C871 C47 2.048 . S
C898 C8 2.076 . S
C910 C234 2.279 . S
