# Generated by pormake.
# Topology ctn, (3,4)-cn, num edge types: 1
# Building blocks:
#     Node 0, Type 0, BuildingBlock: BELTOD_clean_linker_0, # of connection points: 3
#     Node 1, Type 0, BuildingBlock: BELTOD_clean_linker_0, # of connection points: 3
#     Node 2, Type 0, BuildingBlock: BELTOD_clean_linker_0, # of connection points: 3
#     Node 3, Type 0, BuildingBlock: BELTOD_clean_linker_0, # of connection points: 3
#     Node 4, Type 0, BuildingBlock: BELTOD_clean_linker_0, # of connection points: 3
#     Node 5, Type 0, BuildingBlock: BELTOD_clean_linker_0, # of connection points: 3
#     Node 6, Type 0, BuildingBlock: BELTOD_clean_linker_0, # of connection points: 3
#     Node 7, Type 0, BuildingBlock: BELTOD_clean_linker_0, # of connection points: 3
#     Node 8, Type 0, BuildingBlock: BELTOD_clean_linker_0, # of connection points: 3
#     Node 9, Type 0, BuildingBlock: BELTOD_clean_linker_0, # of connection points: 3
#     Node 10, Type 0, BuildingBlock: BELTOD_clean_linker_0, # of connection points: 3
#     Node 11, Type 0, BuildingBlock: BELTOD_clean_linker_0, # of connection points: 3
#     Node 12, Type 0, BuildingBlock: BELTOD_clean_linker_0, # of connection points: 3
#     Node 13, Type 0, BuildingBlock: BELTOD_clean_linker_0, # of connection points: 3
#     Node 14, Type 0, BuildingBlock: BELTOD_clean_linker_0, # of connection points: 3
#     Node 15, Type 0, BuildingBlock: BELTOD_clean_linker_0, # of connection points: 3
#     Node 16, Type 1, BuildingBlock: AZAVOO_clean_sbu_0, # of connection points: 4
#     Node 17, Type 1, BuildingBlock: AZAVOO_clean_sbu_0, # of connection points: 4
#     Node 18, Type 1, BuildingBlock: AZAVOO_clean_sbu_0, # of connection points: 4
#     Node 19, Type 1, BuildingBlock: AZAVOO_clean_sbu_0, # of connection points: 4
#     Node 20, Type 1, BuildingBlock: AZAVOO_clean_sbu_0, # of connection points: 4
#     Node 21, Type 1, BuildingBlock: AZAVOO_clean_sbu_0, # of connection points: 4
#     Node 22, Type 1, BuildingBlock: AZAVOO_clean_sbu_0, # of connection points: 4
#     Node 23, Type 1, BuildingBlock: AZAVOO_clean_sbu_0, # of connection points: 4
#     Node 24, Type 1, BuildingBlock: AZAVOO_clean_sbu_0, # of connection points: 4
#     Node 25, Type 1, BuildingBlock: AZAVOO_clean_sbu_0, # of connection points: 4
#     Node 26, Type 1, BuildingBlock: AZAVOO_clean_sbu_0, # of connection points: 4
#     Node 27, Type 1, BuildingBlock: AZAVOO_clean_sbu_0, # of connection points: 4
#     Edge 28, Type (0, 1), BuildingBlock: KIFKEQ_clean_linker_1, # of connection points: 2
#     Edge 29, Type (0, 1), BuildingBlock: KIFKEQ_clean_linker_1, # of connection points: 2
#     Edge 30, Type (0, 1), BuildingBlock: KIFKEQ_clean_linker_1, # of connection points: 2
#     Edge 31, Type (0, 1), BuildingBlock: KIFKEQ_clean_linker_1, # of connection points: 2
#     Edge 32, Type (0, 1), BuildingBlock: KIFKEQ_clean_linker_1, # of connection points: 2
#     Edge 33, Type (0, 1), BuildingBlock: KIFKEQ_clean_linker_1, # of connection points: 2
#     Edge 34, Type (0, 1), BuildingBlock: KIFKEQ_clean_linker_1, # of connection points: 2
#     Edge 35, Type (0, 1), BuildingBlock: KIFKEQ_clean_linker_1, # of connection points: 2
#     Edge 36, Type (0, 1), BuildingBlock: KIFKEQ_clean_linker_1, # of connection points: 2
#     Edge 37, Type (0, 1), BuildingBlock: KIFKEQ_clean_linker_1, # of connection points: 2
#     Edge 38, Type (0, 1), BuildingBlock: KIFKEQ_clean_linker_1, # of connection points: 2
#     Edge 39, Type (0, 1), BuildingBlock: KIFKEQ_clean_linker_1, # of connection points: 2
#     Edge 40, Type (0, 1), BuildingBlock: KIFKEQ_clean_linker_1, # of connection points: 2
#     Edge 41, Type (0, 1), BuildingBlock: KIFKEQ_clean_linker_1, # of connection points: 2
#     Edge 42, Type (0, 1), BuildingBlock: KIFKEQ_clean_linker_1, # of connection points: 2
#     Edge 43, Type (0, 1), BuildingBlock: KIFKEQ_clean_linker_1, # of connection points: 2
#     Edge 44, Type (0, 1), BuildingBlock: KIFKEQ_clean_linker_1, # of connection points: 2
#     Edge 45, Type (0, 1), BuildingBlock: KIFKEQ_clean_linker_1, # of connection points: 2
#     Edge 46, Type (0, 1), BuildingBlock: KIFKEQ_clean_linker_1, # of connection points: 2
#     Edge 47, Type (0, 1), BuildingBlock: KIFKEQ_clean_linker_1, # of connection points: 2
#     Edge 48, Type (0, 1), BuildingBlock: KIFKEQ_clean_linker_1, # of connection points: 2
#     Edge 49, Type (0, 1), BuildingBlock: KIFKEQ_clean_linker_1, # of connection points: 2
#     Edge 50, Type (0, 1), BuildingBlock: KIFKEQ_clean_linker_1, # of connection points: 2
#     Edge 51, Type (0, 1), BuildingBlock: KIFKEQ_clean_linker_1, # of connection points: 2
#     Edge 52, Type (0, 1), BuildingBlock: KIFKEQ_clean_linker_1, # of connection points: 2
#     Edge 53, Type (0, 1), BuildingBlock: KIFKEQ_clean_linker_1, # of connection points: 2
#     Edge 54, Type (0, 1), BuildingBlock: KIFKEQ_clean_linker_1, # of connection points: 2
#     Edge 55, Type (0, 1), BuildingBlock: KIFKEQ_clean_linker_1, # of connection points: 2
#     Edge 56, Type (0, 1), BuildingBlock: KIFKEQ_clean_linker_1, # of connection points: 2
#     Edge 57, Type (0, 1), BuildingBlock: KIFKEQ_clean_linker_1, # of connection points: 2
#     Edge 58, Type (0, 1), BuildingBlock: KIFKEQ_clean_linker_1, # of connection points: 2
#     Edge 59, Type (0, 1), BuildingBlock: KIFKEQ_clean_linker_1, # of connection points: 2
#     Edge 60, Type (0, 1), BuildingBlock: KIFKEQ_clean_linker_1, # of connection points: 2
#     Edge 61, Type (0, 1), BuildingBlock: KIFKEQ_clean_linker_1, # of connection points: 2
#     Edge 62, Type (0, 1), BuildingBlock: KIFKEQ_clean_linker_1, # of connection points: 2
#     Edge 63, Type (0, 1), BuildingBlock: KIFKEQ_clean_linker_1, # of connection points: 2
#     Edge 64, Type (0, 1), BuildingBlock: KIFKEQ_clean_linker_1, # of connection points: 2
#     Edge 65, Type (0, 1), BuildingBlock: KIFKEQ_clean_linker_1, # of connection points: 2
#     Edge 66, Type (0, 1), BuildingBlock: KIFKEQ_clean_linker_1, # of connection points: 2
#     Edge 67, Type (0, 1), BuildingBlock: KIFKEQ_clean_linker_1, # of connection points: 2
#     Edge 68, Type (0, 1), BuildingBlock: KIFKEQ_clean_linker_1, # of connection points: 2
#     Edge 69, Type (0, 1), BuildingBlock: KIFKEQ_clean_linker_1, # of connection points: 2
#     Edge 70, Type (0, 1), BuildingBlock: KIFKEQ_clean_linker_1, # of connection points: 2
#     Edge 71, Type (0, 1), BuildingBlock: KIFKEQ_clean_linker_1, # of connection points: 2
#     Edge 72, Type (0, 1), BuildingBlock: KIFKEQ_clean_linker_1, # of connection points: 2
#     Edge 73, Type (0, 1), BuildingBlock: KIFKEQ_clean_linker_1, # of connection points: 2
#     Edge 74, Type (0, 1), BuildingBlock: KIFKEQ_clean_linker_1, # of connection points: 2
#     Edge 75, Type (0, 1), BuildingBlock: KIFKEQ_clean_linker_1, # of connection points: 2
# Relax obj value: 0.002
# Max RMSD: 0.043
# Mean RMSD: 0.025
data_MOF--net-ctn--node1-AZAVOO_clean_sbu_0--node2-BELTOD_clean_linker_0--edge1-KIFKEQ_clean_linker_1
_symmetry_space_group_name_H-M    P1
_symmetry_Int_Tables_number       1
_symmetry_cell_setting            triclinic
loop_
_symmetry_equiv_pos_as_xyz
'x, y, z'
_cell_length_a     62.301688
_cell_length_b     63.739258
_cell_length_c     63.160133
_cell_angle_alpha  89.429622
_cell_angle_beta   92.841239
_cell_angle_gamma 93.723889
loop_
_atom_site_label
_atom_site_type_symbol
_atom_site_fract_x
_atom_site_fract_y
_atom_site_fract_z
_atom_type_partial_charge
P0 P 0.07565 0.044 0.05139 0.0
H1 H 0.07759 0.01925 0.09013 0.0
H2 H 0.05063 0.00821 0.11546 0.0
H3 H 0.00123 0.03396 0.07429 0.0
H4 H 0.02806 0.04379 0.04861 0.0
H5 H 0.12092 0.03497 0.0503 0.0
H6 H 0.139 0.00572 0.0366 0.0
H7 H 0.0779 0.97841 0.01106 0.0
H8 H 0.05974 0.00761 0.02573 0.0
H9 H 0.05351 0.08183 0.05728 0.0
H10 H 0.07546 0.04792 0.00458 0.0
O11 O 0.09358 0.05739 0.06744 0.0
H12 H 0.04089 0.10896 0.03305 0.0
H13 H 0.06279 0.07507 0.98015 0.0
C14 C 0.05495 0.03285 0.0678 0.0
C15 C 0.06087 0.02217 0.08643 0.0
C16 C 0.04545 0.01603 0.10097 0.0
C17 C 0.02378 0.02064 0.0972 0.0
C18 C 0.01771 0.03012 0.07778 0.0
C19 C 0.03315 0.03602 0.06313 0.0
C20 C 0.08896 0.02333 0.03922 0.0
C21 C 0.11138 0.02277 0.04167 0.0
C22 C 0.12177 0.00605 0.0336 0.0
C23 C 0.10997 0.9896 0.02267 0.0
C24 C 0.08749 0.99061 0.01964 0.0
C25 C 0.07708 0.00733 0.02791 0.0
C26 C 0.06522 0.06278 0.03273 0.0
C27 C 0.05535 0.08011 0.04043 0.0
C28 C 0.04803 0.09554 0.02655 0.0
C29 C 0.05072 0.09409 0.00467 0.0
C30 C 0.06055 0.07663 0.99695 0.0
C31 C 0.06772 0.06105 0.01089 0.0
P32 P 0.34008 0.69951 0.21489 0.0
H33 H 0.33921 0.69685 0.16897 0.0
H34 H 0.32516 0.71914 0.14068 0.0
H35 H 0.30749 0.76339 0.18715 0.0
H36 H 0.32191 0.74091 0.21559 0.0
H37 H 0.38474 0.71525 0.22104 0.0
H38 H 0.40576 0.72997 0.25169 0.0
H39 H 0.348 0.72914 0.28692 0.0
H40 H 0.32701 0.71451 0.25604 0.0
H41 H 0.29575 0.69116 0.19707 0.0
H42 H 0.33464 0.67141 0.25116 0.0
O43 O 0.35685 0.68325 0.20486 0.0
H44 H 0.26672 0.66592 0.20657 0.0
H45 H 0.3053 0.64667 0.26126 0.0
C46 C 0.33192 0.71743 0.19433 0.0
C47 C 0.33266 0.7115 0.17311 0.0
C48 C 0.32442 0.72417 0.15694 0.0
C49 C 0.31511 0.74296 0.1617 0.0
C50 C 0.31475 0.74909 0.18301 0.0
C51 C 0.32296 0.73629 0.19924 0.0
C52 C 0.35448 0.71325 0.23651 0.0
C53 C 0.37656 0.71847 0.23528 0.0
C54 C 0.38854 0.72699 0.25277 0.0
C55 C 0.37857 0.73046 0.2718 0.0
C56 C 0.35617 0.72628 0.27257 0.0
C57 C 0.34417 0.71794 0.25496 0.0
C58 C 0.3173 0.68343 0.2236 0.0
C59 C 0.29789 0.68179 0.21131 0.0
C60 C 0.28119 0.66737 0.21682 0.0
C61 C 0.28364 0.65421 0.23467 0.0
C62 C 0.30294 0.65635 0.24726 0.0
C63 C 0.31966 0.67066 0.24163 0.0
P64 P 0.99718 0.50874 0.03159 0.0
H65 H 0.02318 0.49058 0.00013 0.0
H66 H 0.02076 0.45665 0.98235 0.0
H67 H 0.96222 0.43909 0.0139 0.0
H68 H 0.9648 0.47323 0.03175 0.0
H69 H 0.97592 0.53606 0.00129 0.0
H70 H 0.94302 0.55484 0.00196 0.0
H71 H 0.9298 0.52695 0.06296 0.0
H72 H 0.96278 0.50798 0.06205 0.0
H73 H 0.00862 0.47079 0.05584 0.0
H74 H 0.01128 0.53784 0.06539 0.0
O75 O 0.01453 0.52514 0.01927 0.0
H76 H 0.02784 0.46624 0.08991 0.0
H77 H 0.03112 0.53348 0.09936 0.0
C78 C 0.99399 0.48452 0.01701 0.0
C79 C 0.00962 0.4796 0.00298 0.0
C80 C 0.0082 0.46019 0.99277 0.0
C81 C 0.99125 0.44521 0.99665 0.0
C82 C 0.97551 0.45027 0.01066 0.0
C83 C 0.97687 0.4698 0.02074 0.0
C84 C 0.97202 0.52106 0.03184 0.0
C85 C 0.96592 0.53394 0.01479 0.0
C86 C 0.94714 0.5447 0.01522 0.0
C87 C 0.93395 0.54262 0.03265 0.0
C88 C 0.9396 0.52887 0.0493 0.0
C89 C 0.95851 0.51814 0.04887 0.0
C90 C 0.00858 0.50472 0.058 0.0
C91 C 0.01311 0.48456 0.06532 0.0
C92 C 0.02428 0.48197 0.08482 0.0
C93 C 0.03126 0.4995 0.09733 0.0
C94 C 0.02584 0.5196 0.09029 0.0
C95 C 0.0146 0.52215 0.0708 0.0
P96 P 0.68736 0.84551 0.19865 0.0
H97 H 0.73384 0.83919 0.19643 0.0
H98 H 0.76598 0.86215 0.20481 0.0
H99 H 0.72593 0.91071 0.22412 0.0
H100 H 0.69378 0.88765 0.21558 0.0
H101 H 0.68193 0.83144 0.15476 0.0
H102 H 0.68944 0.79894 0.13735 0.0
H103 H 0.71291 0.77385 0.1973 0.0
H104 H 0.70535 0.80664 0.21471 0.0
H105 H 0.64151 0.83866 0.20532 0.0
H106 H 0.70106 0.83847 0.2431 0.0
O107 O 0.67195 0.85932 0.18206 0.0
H108 H 0.62125 0.8306 0.23683 0.0
H109 H 0.68096 0.8299 0.27469 0.0
C110 C 0.7114 0.86177 0.20531 0.0
C111 C 0.73192 0.85471 0.20255 0.0
C112 C 0.75032 0.86784 0.20743 0.0
C113 C 0.74849 0.88828 0.21507 0.0
C114 C 0.72787 0.89516 0.218 0.0
C115 C 0.70951 0.88199 0.21322 0.0
C116 C 0.69286 0.82136 0.18606 0.0
C117 C 0.68853 0.81893 0.16423 0.0
C118 C 0.69274 0.80027 0.1543 0.0
C119 C 0.70155 0.78373 0.166 0.0
C120 C 0.70612 0.78631 0.18788 0.0
C121 C 0.70173 0.80498 0.19785 0.0
C122 C 0.67272 0.83957 0.222 0.0
C123 C 0.65021 0.83692 0.22044 0.0
C124 C 0.63866 0.83214 0.23845 0.0
C125 C 0.64947 0.8297 0.25833 0.0
C126 C 0.67212 0.83206 0.25971 0.0
C127 C 0.68364 0.83688 0.24167 0.0
P128 P 0.06255 0.96754 0.46498 0.0
H129 H 0.10319 0.98614 0.45064 0.0
H130 H 0.12844 0.01397 0.46441 0.0
H131 H 0.08828 0.02168 0.51734 0.0
H132 H 0.06255 0.99408 0.50287 0.0
H133 H 0.02546 0.9373 0.46341 0.0
H134 H 0.01419 0.90829 0.48654 0.0
H135 H 0.06687 0.92606 0.53119 0.0
H136 H 0.07827 0.95497 0.50773 0.0
H137 H 0.06095 0.98604 0.42286 0.0
H138 H 0.01816 0.97713 0.47425 0.0
O139 O 0.07554 0.95358 0.44807 0.0
H140 H 0.03191 0.9997 0.40049 0.0
H141 H 0.98875 0.99048 0.45171 0.0
C142 C 0.0813 0.98767 0.47605 0.0
C143 C 0.09989 0.99365 0.46533 0.0
C144 C 0.11441 0.00955 0.47331 0.0
C145 C 0.11064 0.01991 0.4922 0.0
C146 C 0.09171 0.01409 0.50274 0.0
C147 C 0.07707 0.99821 0.49461 0.0
C148 C 0.05222 0.94886 0.48417 0.0
C149 C 0.03418 0.93543 0.4785 0.0
C150 C 0.02775 0.91878 0.49177 0.0
C151 C 0.03951 0.91493 0.51084 0.0
C152 C 0.05746 0.92859 0.51662 0.0
C153 C 0.06385 0.9453 0.50331 0.0
C154 C 0.0415 0.97992 0.44993 0.0
C155 C 0.04531 0.98716 0.42937 0.0
C156 C 0.02873 0.99512 0.41665 0.0
C157 C 0.00799 0.996 0.4243 0.0
C158 C 0.0045 0.98973 0.44533 0.0
C159 C 0.02125 0.98204 0.45817 0.0
P160 P 0.21609 0.7276 0.74418 0.0
H161 H 0.24191 0.7613 0.76617 0.0
H162 H 0.24065 0.77654 0.80136 0.0
H163 H 0.18518 0.73482 0.81391 0.0
H164 H 0.18677 0.71942 0.77868 0.0
H165 H 0.23841 0.7048 0.7132 0.0
H166 H 0.2599 0.67399 0.71564 0.0
H167 H 0.24995 0.66926 0.78271 0.0
H168 H 0.22794 0.69974 0.78013 0.0
H169 H 0.17652 0.74979 0.74398 0.0
H170 H 0.19788 0.69399 0.71555 0.0
O171 O 0.22914 0.74493 0.72865 0.0
H172 H 0.14231 0.74532 0.72326 0.0
H173 H 0.16398 0.68977 0.69458 0.0
C174 C 0.21423 0.73948 0.76973 0.0
C175 C 0.22931 0.75561 0.77639 0.0
C176 C 0.2285 0.7644 0.79648 0.0
C177 C 0.21269 0.75703 0.81038 0.0
C178 C 0.19758 0.74081 0.80361 0.0
C179 C 0.19839 0.73207 0.78346 0.0
C180 C 0.23155 0.70462 0.74644 0.0
C181 C 0.2407 0.69705 0.72841 0.0
C182 C 0.25291 0.67943 0.7298 0.0
C183 C 0.25654 0.66926 0.74937 0.0
C184 C 0.24745 0.67689 0.76746 0.0
C185 C 0.23485 0.6943 0.76596 0.0
C186 C 0.18971 0.72205 0.73166 0.0
C187 C 0.1737 0.73631 0.73369 0.0
C188 C 0.15416 0.73377 0.72182 0.0
C189 C 0.15053 0.71721 0.70731 0.0
C190 C 0.16642 0.70273 0.70559 0.0
C191 C 0.18582 0.70512 0.71767 0.0
P192 P 0.98713 0.48977 0.47824 0.0
H193 H 0.01993 0.51775 0.4596 0.0
H194 H 0.0365 0.51846 0.42543 0.0
H195 H 0.99442 0.46508 0.40521 0.0
H196 H 0.97829 0.46416 0.43971 0.0
H197 H 0.98627 0.50393 0.52172 0.0
H198 H 0.98233 0.53834 0.53748 0.0
H199 H 0.97592 0.5658 0.4749 0.0
H200 H 0.97925 0.53121 0.45919 0.0
H201 H 0.97131 0.4593 0.50929 0.0
H202 H 0.9469 0.48788 0.45163 0.0
O203 O 0.00569 0.47822 0.49342 0.0
H204 H 0.93727 0.43885 0.51239 0.0
H205 H 0.91281 0.46667 0.45407 0.0
C206 C 0.99723 0.49147 0.45195 0.0
C207 C 0.0139 0.5065 0.44764 0.0
C208 C 0.02339 0.50688 0.42805 0.0
C209 C 0.01663 0.49199 0.41241 0.0
C210 C 1.00002 0.47679 0.41686 0.0
C211 C 0.99055 0.47643 0.43653 0.0
C212 C 0.98375 0.51517 0.48932 0.0
C213 C 0.98403 0.51736 0.51139 0.0
C214 C 0.98166 0.53696 0.52037 0.0
C215 C 0.97907 0.55473 0.50739 0.0
C216 C 0.97825 0.55239 0.48525 0.0
C217 C 0.98023 0.53267 0.47627 0.0
C218 C 0.96189 0.47452 0.47982 0.0
C219 C 0.95871 0.46091 0.49707 0.0
C220 C 0.93918 0.44916 0.49879 0.0
C221 C 0.92236 0.45075 0.48326 0.0
C222 C 0.92537 0.46503 0.46633 0.0
C223 C 0.94493 0.47698 0.46476 0.0
P224 P 0.83159 0.80332 0.81362 0.0
H225 H 0.86615 0.82382 0.79004 0.0
H226 H 0.88529 0.81352 0.75945 0.0
H227 H 0.84452 0.75605 0.75475 0.0
H228 H 0.82602 0.76614 0.78581 0.0
H229 H 0.81452 0.8411 0.82996 0.0
H230 H 0.78296 0.86014 0.82026 0.0
H231 H 0.76353 0.81351 0.77256 0.0
H232 H 0.79606 0.79521 0.78164 0.0
H233 H 0.84947 0.79 0.85486 0.0
H234 H 0.79821 0.76842 0.81039 0.0
O235 O 0.84872 0.82 0.82725 0.0
H236 H 0.83823 0.76272 0.87978 0.0
H237 H 0.78776 0.74001 0.83458 0.0
C238 C 0.84493 0.79557 0.79053 0.0
C239 C 0.8614 0.80893 0.78252 0.0
C240 C 0.87223 0.8031 0.76486 0.0
C241 C 0.86658 0.78387 0.75466 0.0
C242 C 0.84964 0.77076 0.76246 0.0
C243 C 0.83892 0.77657 0.78022 0.0
C244 C 0.80785 0.81692 0.80631 0.0
C245 C 0.80357 0.83502 0.81731 0.0
C246 C 0.78523 0.84576 0.81192 0.0
C247 C 0.77047 0.83839 0.79564 0.0
C248 C 0.77462 0.81988 0.78495 0.0
C249 C 0.79319 0.8093 0.7902 0.0
C250 C 0.82461 0.78141 0.83078 0.0
C251 C 0.83602 0.77914 0.85025 0.0
C252 C 0.82968 0.76325 0.86446 0.0
C253 C 0.81199 0.74901 0.85934 0.0
C254 C 0.80118 0.75086 0.83934 0.0
C255 C 0.8073 0.76703 0.82532 0.0
P256 P 0.33041 0.30123 0.3109 0.0
H257 H 0.33415 0.31723 0.26763 0.0
H258 H 0.35488 0.30651 0.23818 0.0
H259 H 0.37469 0.25289 0.27491 0.0
H260 H 0.35449 0.26409 0.30443 0.0
H261 H 0.31709 0.34215 0.32344 0.0
H262 H 0.28547 0.36144 0.31436 0.0
H263 H 0.2594 0.30992 0.27491 0.0
H264 H 0.29173 0.29094 0.28359 0.0
H265 H 0.33774 0.29733 0.3567 0.0
H266 H 0.30616 0.26041 0.30599 0.0
O267 O 0.34908 0.3178 0.32262 0.0
H268 H 0.32656 0.27049 0.38229 0.0
H269 H 0.29506 0.23314 0.33162 0.0
C270 C 0.34231 0.29116 0.28802 0.0
C271 C 0.34258 0.30292 0.26915 0.0
C272 C 0.35447 0.29676 0.25232 0.0
C273 C 0.3665 0.27883 0.25416 0.0
C274 C 0.36583 0.26691 0.27302 0.0
C275 C 0.35401 0.27313 0.28984 0.0
C276 C 0.3069 0.31526 0.30392 0.0
C277 C 0.30465 0.33501 0.31275 0.0
C278 C 0.28636 0.34594 0.30774 0.0
C279 C 0.26974 0.33722 0.29398 0.0
C280 C 0.27195 0.31721 0.28538 0.0
C281 C 0.29038 0.30631 0.29037 0.0
C282 C 0.32301 0.28072 0.32943 0.0
C283 C 0.32864 0.28328 0.35102 0.0
C284 C 0.32232 0.26783 0.36566 0.0
C285 C 0.3101 0.24954 0.35899 0.0
C286 C 0.30441 0.24706 0.33727 0.0
C287 C 0.31079 0.26257 0.32261 0.0
P288 P 0.49632 0.01163 0.53518 0.0
H289 H 0.52622 0.9944 0.5069 0.0
H290 H 0.5262 0.96111 0.48835 0.0
H291 H 0.46478 0.94169 0.5138 0.0
H292 H 0.46455 0.97562 0.53158 0.0
H293 H 0.47653 0.03744 0.50268 0.0
H294 H 0.4429 0.05514 0.50014 0.0
H295 H 0.42567 0.02849 0.56061 0.0
H296 H 0.45953 0.01064 0.563 0.0
H297 H 0.49976 0.97373 0.5622 0.0
H298 H 0.51381 0.04064 0.56782 0.0
O299 O 0.51416 0.02863 0.52429 0.0
H300 H 0.51714 0.96836 0.59709 0.0
H301 H 0.5317 0.03538 0.60259 0.0
C302 C 0.49526 0.98756 0.52039 0.0
C303 C 0.51258 0.98312 0.50823 0.0
C304 C 0.51265 0.96392 0.4978 0.0
C305 C 0.49555 0.94857 0.49965 0.0
C306 C 0.47807 0.95321 0.51174 0.0
C307 C 0.47793 0.97257 0.52199 0.0
C308 C 0.47071 0.02318 0.53325 0.0
C309 C 0.46552 0.03539 0.5154 0.0
C310 C 0.44632 0.04553 0.51399 0.0
C311 C 0.43179 0.04346 0.53033 0.0
C312 C 0.43657 0.03038 0.54779 0.0
C313 C 0.45594 0.0203 0.54924 0.0
C314 C 0.50582 0.00759 0.56223 0.0
C315 C 0.50639 0.98732 0.57098 0.0
C316 C 0.51645 0.98424 0.59096 0.0
C317 C 0.5261 0.0014 0.60256 0.0
C318 C 0.52433 0.02181 0.59421 0.0
C319 C 0.51423 0.02485 0.57425 0.0
P320 P 0.18735 0.34684 0.70068 0.0
H321 H 0.21006 0.37916 0.67572 0.0
H322 H 0.24232 0.40228 0.68311 0.0
H323 H 0.24877 0.37547 0.74608 0.0
H324 H 0.21687 0.35194 0.73825 0.0
H325 H 0.16373 0.31543 0.67379 0.0
H326 H 0.17448 0.28415 0.65582 0.0
H327 H 0.23899 0.29468 0.68352 0.0
H328 H 0.22812 0.32565 0.70176 0.0
H329 H 0.17706 0.37354 0.73553 0.0
H330 H 0.16328 0.30903 0.71652 0.0
O331 O 0.17134 0.3588 0.68308 0.0
H332 H 0.15462 0.36749 0.76602 0.0
H333 H 0.14064 0.30305 0.74671 0.0
C334 C 0.21078 0.36424 0.70663 0.0
C335 C 0.21834 0.37839 0.69117 0.0
C336 C 0.23676 0.39166 0.69546 0.0
C337 C 0.24805 0.39092 0.71528 0.0
C338 C 0.24056 0.37641 0.73062 0.0
C339 C 0.22218 0.36309 0.72626 0.0
C340 C 0.19518 0.32306 0.68883 0.0
C341 C 0.18014 0.31088 0.67615 0.0
C342 C 0.18624 0.29296 0.66602 0.0
C343 C 0.20759 0.28708 0.66824 0.0
C344 C 0.22248 0.29898 0.68143 0.0
C345 C 0.21626 0.31672 0.69182 0.0
C346 C 0.17228 0.34163 0.72398 0.0
C347 C 0.16948 0.358 0.73806 0.0
C348 C 0.15663 0.35456 0.75545 0.0
C349 C 0.14593 0.3348 0.75872 0.0
C350 C 0.14862 0.31847 0.74448 0.0
C351 C 0.1617 0.32186 0.72727 0.0
P352 P 0.83422 0.2014 0.71514 0.0
H353 H 0.83017 0.19794 0.66937 0.0
H354 H 0.8162 0.22073 0.64147 0.0
H355 H 0.8044 0.26705 0.68829 0.0
H356 H 0.81869 0.24402 0.71634 0.0
H357 H 0.87886 0.21742 0.72059 0.0
H358 H 0.9006 0.23103 0.7513 0.0
H359 H 0.84377 0.22868 0.78801 0.0
H360 H 0.82207 0.21517 0.7571 0.0
H361 H 0.78906 0.19437 0.69902 0.0
H362 H 0.82995 0.17193 0.75036 0.0
O363 O 0.85076 0.18524 0.7046 0.0
H364 H 0.76024 0.16893 0.70866 0.0
H365 H 0.80086 0.147 0.76066 0.0
C366 C 0.82581 0.21948 0.69484 0.0
C367 C 0.82489 0.21312 0.67364 0.0
C368 C 0.81669 0.22608 0.65773 0.0
C369 C 0.8091 0.24563 0.66271 0.0
C370 C 0.81031 0.25214 0.68398 0.0
C371 C 0.81846 0.23903 0.69998 0.0
C372 C 0.84902 0.21475 0.73678 0.0
C373 C 0.87104 0.2201 0.73517 0.0
C374 C 0.88342 0.22799 0.7527 0.0
C375 C 0.87393 0.23065 0.77216 0.0
C376 C 0.85157 0.22642 0.77333 0.0
C377 C 0.83917 0.21872 0.75568 0.0
C378 C 0.81164 0.18522 0.72412 0.0
C379 C 0.79171 0.18434 0.71269 0.0
C380 C 0.77513 0.16981 0.7183 0.0
C381 C 0.77822 0.15584 0.73539 0.0
C382 C 0.79801 0.1573 0.74721 0.0
C383 C 0.81461 0.1717 0.74148 0.0
P384 P 0.5754 0.54606 0.55201 0.0
H385 H 0.577 0.51985 0.58986 0.0
H386 H 0.55012 0.50899 0.61534 0.0
H387 H 0.50131 0.53786 0.57598 0.0
H388 H 0.52799 0.54762 0.55017 0.0
H389 H 0.61732 0.54672 0.53388 0.0
H390 H 0.63759 0.51949 0.51862 0.0
H391 H 0.58363 0.47435 0.52616 0.0
H392 H 0.56331 0.50184 0.54103 0.0
H393 H 0.55665 0.58561 0.55892 0.0
H394 H 0.57139 0.54884 0.50518 0.0
O395 O 0.59365 0.55886 0.5682 0.0
H396 H 0.54361 0.61292 0.53506 0.0
H397 H 0.55851 0.57627 0.48115 0.0
C398 C 0.55463 0.53494 0.56839 0.0
C399 C 0.56041 0.52347 0.58657 0.0
C400 C 0.54504 0.51743 0.6012 0.0
C401 C 0.52359 0.52294 0.59799 0.0
C402 C 0.51762 0.53329 0.57901 0.0
C403 C 0.53298 0.53912 0.56429 0.0
C404 C 0.58903 0.52617 0.53895 0.0
C405 C 0.60983 0.53098 0.53211 0.0
C406 C 0.62142 0.51538 0.52347 0.0
C407 C 0.61235 0.49467 0.52142 0.0
C408 C 0.59106 0.49016 0.52743 0.0
C409 C 0.57947 0.50582 0.53609 0.0
C410 C 0.56505 0.56529 0.53383 0.0
C411 C 0.55695 0.58339 0.54196 0.0
C412 C 0.54937 0.5989 0.52831 0.0
C413 C 0.54999 0.59669 0.50625 0.0
C414 C 0.55795 0.57841 0.49811 0.0
C415 C 0.56531 0.56274 0.51182 0.0
P416 P 0.56705 0.46357 0.96262 0.0
H417 H 0.60775 0.48221 0.94833 0.0
H418 H 0.63298 0.51001 0.96222 0.0
H419 H 0.5928 0.51741 0.01521 0.0
H420 H 0.56709 0.48989 0.0006 0.0
H421 H 0.53025 0.43301 0.96123 0.0
H422 H 0.51913 0.4041 0.98457 0.0
H423 H 0.57204 0.42215 0.02887 0.0
H424 H 0.58328 0.45092 0.00518 0.0
H425 H 0.56445 0.48255 0.92072 0.0
H426 H 0.52287 0.47282 0.97299 0.0
O427 O 0.5798 0.44991 0.94527 0.0
H428 H 0.5349 0.4964 0.89918 0.0
H429 H 0.49296 0.48634 0.95128 0.0
C430 C 0.58582 0.48364 0.97373 0.0
C431 C 0.60443 0.48966 0.96305 0.0
C432 C 0.61896 0.50553 0.9711 0.0
C433 C 0.61516 0.51581 0.99004 0.0
C434 C 0.59624 0.50991 0.00056 0.0
C435 C 0.58161 0.49407 0.99235 0.0
C436 C 0.5571 0.44467 0.98179 0.0
C437 C 0.53908 0.43118 0.97626 0.0
C438 C 0.53274 0.41461 0.98965 0.0
C439 C 0.54456 0.41091 0.00872 0.0
C440 C 0.56257 0.42457 0.01431 0.0
C441 C 0.56887 0.4412 0.00088 0.0
C442 C 0.54564 0.47602 0.94816 0.0
C443 C 0.54897 0.48352 0.9276 0.0
C444 C 0.53209 0.49158 0.91536 0.0
C445 C 0.51155 0.49229 0.9235 0.0
C446 C 0.50855 0.48573 0.94453 0.0
C447 C 0.52559 0.47794 0.9569 0.0
P448 P 0.71481 0.22842 0.24623 0.0
H449 H 0.75041 0.24544 0.27303 0.0
H450 H 0.75314 0.26053 0.30858 0.0
H451 H 0.68437 0.2501 0.31311 0.0
H452 H 0.68175 0.23428 0.27775 0.0
H453 H 0.74352 0.21256 0.21592 0.0
H454 H 0.76625 0.18283 0.21663 0.0
H455 H 0.74262 0.16365 0.27753 0.0
H456 H 0.72011 0.19385 0.27682 0.0
H457 H 0.67727 0.25349 0.24198 0.0
H458 H 0.69385 0.19173 0.22381 0.0
O459 O 0.72668 0.24667 0.23082 0.0
H460 H 0.64251 0.24813 0.22226 0.0
H461 H 0.65942 0.18658 0.20369 0.0
C462 C 0.71588 0.23907 0.27259 0.0
C463 C 0.73591 0.24636 0.28167 0.0
C464 C 0.73746 0.25493 0.30196 0.0
C465 C 0.71894 0.25658 0.31346 0.0
C466 C 0.69883 0.24922 0.3044 0.0
C467 C 0.69734 0.24024 0.28418 0.0
C468 C 0.73048 0.20562 0.24649 0.0
C469 C 0.74321 0.20197 0.22942 0.0
C470 C 0.75608 0.18481 0.22978 0.0
C471 C 0.75633 0.17083 0.24718 0.0
C472 C 0.74305 0.17426 0.26404 0.0
C473 C 0.73013 0.19147 0.26363 0.0
C474 C 0.68798 0.22285 0.23481 0.0
C475 C 0.67322 0.23858 0.23422 0.0
C476 C 0.6534 0.23553 0.22293 0.0
C477 C 0.6483 0.21692 0.21152 0.0
C478 C 0.66298 0.20107 0.21237 0.0
C479 C 0.68263 0.20399 0.22397 0.0
P480 P 0.47848 0.98734 0.97737 0.0
H481 H 0.50652 0.0198 0.95756 0.0
H482 H 0.52577 0.02057 0.92482 0.0
H483 H 0.49582 0.95961 0.90814 0.0
H484 H 0.47673 0.95875 0.94117 0.0
H485 H 0.50843 0.01161 0.00614 0.0
H486 H 0.50725 0.04603 0.02257 0.0
H487 H 0.44543 0.05394 0.9904 0.0
H488 H 0.44667 0.01934 0.97413 0.0
H489 H 0.45562 0.96387 0.00976 0.0
H490 H 0.4427 0.98281 0.9449 0.0
O491 O 0.49488 0.97317 0.99255 0.0
H492 H 0.42012 0.94526 0.01013 0.0
H493 H 0.40705 0.96403 0.94509 0.0
C494 C 0.4897 0.98945 0.9516 0.0
C495 C 0.50368 0.00676 0.94672 0.0
C496 C 0.51484 0.00714 0.92805 0.0
C497 C 0.51226 0.99016 0.91392 0.0
C498 C 0.49788 0.97303 0.91859 0.0
C499 C 0.48692 0.97256 0.93743 0.0
C500 C 0.47745 0.01278 0.98926 0.0
C501 C 0.49457 0.0207 0.00271 0.0
C502 C 0.49395 0.04045 0.01196 0.0
C503 C 0.47619 0.05267 0.00787 0.0
C504 C 0.45917 0.04476 0.99413 0.0
C505 C 0.45988 0.02502 0.98478 0.0
C506 C 0.45203 0.97411 0.9771 0.0
C507 C 0.44514 0.96395 0.99555 0.0
C508 C 0.42476 0.9535 0.99582 0.0
C509 C 0.41083 0.95309 0.9776 0.0
C510 C 0.41756 0.96383 0.95927 0.0
C511 C 0.43793 0.97448 0.95911 0.0
Mg512 Mg 0.23313 0.83503 0.00283 0.0
O513 O 0.26515 0.85374 0.99635 0.0
O514 O 0.28992 0.83001 0.99462 0.0
Mg515 Mg 0.27482 0.79715 0.0013 0.0
C516 C 0.28443 0.84897 0.99354 0.0
C517 C 0.19749 0.86394 0.00682 0.0
O518 O 0.1941 0.84851 0.02045 0.0
O519 O 0.23037 0.82334 0.96844 0.0
O520 O 0.25461 0.79892 0.97013 0.0
O521 O 0.24027 0.83729 0.03797 0.0
O522 O 0.24976 0.81151 0.01817 0.0
C523 C 0.23994 0.80859 0.95999 0.0
C524 C 0.25009 0.82012 0.03652 0.0
O525 O 0.21357 0.8635 0.99522 0.0
Mg526 Mg 0.15786 0.49681 0.27037 0.0
O527 O 0.13815 0.49628 0.23834 0.0
O528 O 0.16217 0.49745 0.21316 0.0
Mg529 Mg 0.19629 0.49969 0.22812 0.0
C530 C 0.14274 0.4965 0.21882 0.0
C531 C 0.11202 0.4988 0.28822 0.0
O532 O 0.11219 0.51534 0.27564 0.0
O533 O 0.16622 0.46253 0.26627 0.0
O534 O 0.19106 0.46649 0.24194 0.0
O535 O 0.16029 0.53223 0.27069 0.0
O536 O 0.18382 0.51288 0.25659 0.0
C537 C 0.18019 0.455 0.2548 0.0
C538 C 0.17775 0.53127 0.26053 0.0
O539 O 0.12796 0.48728 0.28866 0.0
Mg540 Mg 0.76959 0.65957 0.03822 0.0
O541 O 0.73918 0.63728 0.03225 0.0
O542 O 0.71199 0.65786 0.02499 0.0
Mg543 Mg 0.72397 0.69236 0.02769 0.0
C544 C 0.71933 0.63968 0.02728 0.0
C545 C 0.81088 0.63718 0.04337 0.0
O546 O 0.81519 0.6557 0.05211 0.0
O547 O 0.7706 0.66716 0.00267 0.0
O548 O 0.74393 0.68889 0.99859 0.0
O549 O 0.76365 0.66173 0.07304 0.0
O550 O 0.75095 0.68301 0.04847 0.0
C551 C 0.7595 0.67958 0.99125 0.0
C552 C 0.75221 0.67747 0.06809 0.0
O553 O 0.79197 0.63279 0.03546 0.0
Mg554 Mg 0.90393 0.03363 0.24883 0.0
O555 O 0.88101 0.00411 0.24401 0.0
O556 O 0.90089 0.97636 0.24177 0.0
Mg557 Mg 0.93633 0.98773 0.24608 0.0
C558 C 0.88264 0.98441 0.24158 0.0
C559 C 0.87313 0.06879 0.24364 0.0
O560 O 0.88718 0.07266 0.22903 0.0
O561 O 0.91063 0.02495 0.28376 0.0
O562 O 0.93088 0.99755 0.2802 0.0
O563 O 0.90682 0.03697 0.21367 0.0
O564 O 0.92855 0.01904 0.23445 0.0
C565 C 0.9218 0.0104 0.29173 0.0
C566 C 0.92295 0.02519 0.21564 0.0
O567 O 0.87541 0.05305 0.2559 0.0
Mg568 Mg 0.26814 0.16053 0.53657 0.0
O569 O 0.23674 0.13949 0.53222 0.0
O570 O 0.21025 0.16092 0.52508 0.0
Mg571 Mg 0.22388 0.1951 0.52637 0.0
C572 C 0.21692 0.1425 0.52774 0.0
C573 C 0.3054 0.13501 0.5228 0.0
O574 O 0.30872 0.15295 0.51269 0.0
O575 O 0.2679 0.16696 0.5008 0.0
O576 O 0.24223 0.18978 0.49641 0.0
O577 O 0.26331 0.16424 0.57144 0.0
O578 O 0.25127 0.18535 0.54636 0.0
C579 C 0.25705 0.17936 0.48911 0.0
C580 C 0.25283 0.18054 0.56614 0.0
O581 O 0.28904 0.13243 0.53405 0.0
Mg582 Mg 0.405 0.53453 0.75124 0.0
O583 O 0.38182 0.50541 0.74518 0.0
O584 O 0.40132 0.47752 0.74216 0.0
Mg585 Mg 0.43688 0.48845 0.74669 0.0
C586 C 0.3832 0.48577 0.74216 0.0
C587 C 0.363 0.55705 0.74392 0.0
O588 O 0.36551 0.54849 0.72544 0.0
O589 O 0.41153 0.5244 0.7858 0.0
O590 O 0.43167 0.49711 0.7812 0.0
O591 O 0.40829 0.53945 0.71629 0.0
O592 O 0.42951 0.52029 0.73634 0.0
C593 C 0.42266 0.50959 0.79321 0.0
C594 C 0.42416 0.52731 0.71779 0.0
O595 O 0.37655 0.55371 0.75913 0.0
Mg596 Mg 0.73647 0.34273 0.50273 0.0
O597 O 0.77032 0.35903 0.49822 0.0
O598 O 0.7931 0.33329 0.49821 0.0
Mg599 Mg 0.77496 0.30158 0.50296 0.0
C600 C 0.78928 0.35271 0.49679 0.0
C601 C 0.69949 0.37106 0.49481 0.0
O602 O 0.69008 0.35237 0.49823 0.0
O603 O 0.73462 0.3315 0.46822 0.0
O604 O 0.75803 0.30625 0.4704 0.0
O605 O 0.74186 0.3442 0.53806 0.0
O606 O 0.75014 0.3177 0.51851 0.0
C607 C 0.74453 0.31698 0.45982 0.0
C608 C 0.75027 0.32623 0.53689 0.0
O609 O 0.71992 0.37283 0.49439 0.0
Mg610 Mg 0.65606 0.99682 0.77288 0.0
O611 O 0.63497 0.9955 0.74168 0.0
O612 O 0.65785 0.9969 0.71546 0.0
Mg613 Mg 0.69249 0.00054 0.72894 0.0
C614 C 0.63872 0.9955 0.72195 0.0
C615 C 0.60972 0.99546 0.79116 0.0
O616 O 0.60701 0.00994 0.77649 0.0
O617 O 0.66534 0.96282 0.76857 0.0
O618 O 0.68914 0.96749 0.74334 0.0
O619 O 0.65734 0.03223 0.77303 0.0
O620 O 0.68076 0.01359 0.75783 0.0
C621 C 0.6792 0.95573 0.75667 0.0
C622 C 0.67432 0.03176 0.76206 0.0
O623 O 0.62743 0.98656 0.79268 0.0
Mg624 Mg 0.03039 0.26656 0.91311 0.0
O625 O 0.9986 0.25915 0.89413 0.0
O626 O 0.97348 0.2482 0.91647 0.0
Mg627 Mg 0.98968 0.24802 0.94986 0.0
C628 C 0.97928 0.25274 0.89778 0.0
C629 C 0.05595 0.29972 0.88427 0.0
O630 O 0.05951 0.31 0.90217 0.0
O631 O 0.01761 0.29672 0.92517 0.0
O632 O 0.99402 0.28428 0.94851 0.0
O633 O 0.03907 0.23359 0.9098 0.0
O634 O 0.02136 0.24482 0.93651 0.0
C635 C 0.00397 0.29962 0.93914 0.0
C636 C 0.02921 0.2294 0.92705 0.0
O637 O 0.04428 0.28261 0.88401 0.0
Mg638 Mg 0.53211 0.76934 0.41531 0.0
O639 O 0.50061 0.7628 0.39552 0.0
O640 O 0.47482 0.75244 0.41737 0.0
Mg641 Mg 0.4902 0.75178 0.45108 0.0
C642 C 0.48109 0.75683 0.39881 0.0
C643 C 0.56767 0.78852 0.38797 0.0
O644 O 0.57846 0.78265 0.40519 0.0
O645 O 0.51998 0.7997 0.42734 0.0
O646 O 0.49552 0.78802 0.45015 0.0
O647 O 0.53998 0.73614 0.4119 0.0
O648 O 0.52198 0.74768 0.43827 0.0
C649 C 0.50619 0.80306 0.44102 0.0
C650 C 0.52964 0.73211 0.4289 0.0
O651 O 0.54726 0.78583 0.38711 0.0
Mg652 Mg 0.97236 0.73338 0.59063 0.0
O653 O 0.0047 0.72685 0.60797 0.0
O654 O 0.02689 0.71716 0.58358 0.0
Mg655 Mg 0.00984 0.71965 0.55086 0.0
C656 C 0.02284 0.72069 0.6028 0.0
C657 C 0.9422 0.7385 0.62641 0.0
O658 O 0.93272 0.72329 0.61478 0.0
O659 O 0.9869 0.76533 0.57982 0.0
O660 O 0.009 0.75543 0.55547 0.0
O661 O 0.96197 0.69918 0.59233 0.0
O662 O 0.97891 0.71396 0.5656 0.0
C663 C 1.00072 0.76974 0.56588 0.0
C664 C 0.9709 0.69717 0.57447 0.0
O665 O 0.96008 0.747 0.62078 0.0
Mg666 Mg 0.47297 0.23214 0.09014 0.0
O667 O 0.50408 0.22472 0.10935 0.0
O668 O 0.52734 0.21409 0.08644 0.0
Mg669 Mg 0.51225 0.21662 0.05291 0.0
C670 C 0.5223 0.21797 0.10529 0.0
C671 C 0.45771 0.23581 0.13597 0.0
O672 O 0.46486 0.21686 0.13656 0.0
O673 O 0.4893 0.26341 0.07977 0.0
O674 O 0.51225 0.25258 0.0567 0.0
O675 O 0.46077 0.19838 0.09149 0.0
O676 O 0.48034 0.21203 0.06601 0.0
C677 C 0.50388 0.26727 0.06647 0.0
C678 C 0.47086 0.19568 0.0744 0.0
O679 O 0.45955 0.24678 0.11916 0.0
H680 H 0.21908 0.79808 0.82314 0.0
H681 H 0.20695 0.73494 0.84714 0.0
H682 H 0.22339 0.81119 0.85948 0.0
H683 H 0.21067 0.7481 0.8833 0.0
H684 H 0.25219 0.77397 0.94012 0.0
H685 H 0.24281 0.76234 0.90429 0.0
H686 H 0.20441 0.8158 0.89364 0.0
H687 H 0.21394 0.82774 0.92993 0.0
C688 C 0.21711 0.78705 0.83616 0.0
C689 C 0.21287 0.76544 0.83226 0.0
C690 C 0.21935 0.79459 0.85694 0.0
C691 C 0.21754 0.78065 0.87422 0.0
C692 C 0.21241 0.75919 0.87029 0.0
C693 C 0.21007 0.75167 0.84956 0.0
C694 C 0.24172 0.78334 0.93026 0.0
C695 C 0.23385 0.80185 0.93797 0.0
C696 C 0.2362 0.77652 0.90972 0.0
C697 C 0.22272 0.78803 0.89621 0.0
C698 C 0.21487 0.80663 0.90374 0.0
C699 C 0.22027 0.81342 0.9245 0.0
H700 H 0.02817 0.45793 0.39035 0.0
H701 H 0.03009 0.52579 0.38824 0.0
H702 H 0.04822 0.45793 0.35816 0.0
H703 H 0.05097 0.52584 0.35669 0.0
H704 H 0.07591 0.52052 0.2917 0.0
H705 H 0.05027 0.51754 0.31968 0.0
H706 H 0.08449 0.46681 0.34832 0.0
H707 H 0.10974 0.46941 0.32008 0.0
C708 C 0.03267 0.47285 0.38291 0.0
C709 C 0.02759 0.49187 0.39197 0.0
C710 C 0.0444 0.47285 0.36458 0.0
C711 C 0.05135 0.49188 0.35485 0.0
C712 C 0.04572 0.51087 0.36358 0.0
C713 C 0.03397 0.51086 0.38187 0.0
C714 C 0.07779 0.50853 0.30381 0.0
C715 C 0.09499 0.49532 0.30373 0.0
C716 C 0.06316 0.50692 0.31994 0.0
C717 C 0.06542 0.49209 0.33642 0.0
C718 C 0.0821 0.47828 0.33581 0.0
C719 C 0.09668 0.47985 0.31964 0.0
H720 H 0.83545 0.72764 0.88974 0.0
H721 H 0.77013 0.73502 0.86568 0.0
H722 H 0.8218 0.70736 0.91953 0.0
H723 H 0.75668 0.71317 0.89429 0.0
H724 H 0.74053 0.70675 0.96375 0.0
H725 H 0.75277 0.71938 0.93006 0.0
H726 H 0.80427 0.67698 0.93442 0.0
H727 H 0.79242 0.66484 0.96905 0.0
C728 C 0.8182 0.72472 0.89057 0.0
C729 C 0.80395 0.73348 0.87544 0.0
C730 C 0.81036 0.71271 0.90752 0.0
C731 C 0.78808 0.70887 0.9096 0.0
C732 C 0.77393 0.71625 0.89357 0.0
C733 C 0.78172 0.72856 0.87686 0.0
C734 C 0.75434 0.69986 0.95754 0.0
C735 C 0.7656 0.68489 0.96931 0.0
C736 C 0.76129 0.70702 0.93796 0.0
C737 C 0.77957 0.69926 0.92937 0.0
C738 C 0.79032 0.68356 0.94068 0.0
C739 C 0.78343 0.67648 0.96047 0.0
H740 H 0.96836 0.97539 0.41867 0.0
H741 H 0.00699 0.02905 0.39639 0.0
H742 H 0.94137 0.98066 0.39001 0.0
H743 H 0.98016 0.03417 0.36763 0.0
H744 H 0.9258 0.04289 0.32002 0.0
H745 H 0.94191 0.04183 0.35621 0.0
H746 H 0.94535 0.9746 0.35135 0.0
H747 H 0.92949 0.97569 0.31541 0.0
C748 C 0.97079 0.98866 0.40801 0.0
C749 C 0.98989 0.00168 0.40962 0.0
C750 C 0.95541 0.99159 0.39154 0.0
C751 C 0.95872 0.00772 0.37648 0.0
C752 C 0.97705 0.0217 0.37906 0.0
C753 C 0.99252 0.01865 0.3954 0.0
C754 C 0.9294 0.02783 0.32697 0.0
C755 C 0.92658 0.00939 0.31486 0.0
C756 C 0.93875 0.02725 0.3476 0.0
C757 C 0.94503 0.00816 0.35656 0.0
C758 C 0.94055 0.98954 0.345 0.0
C759 C 0.93157 0.99017 0.32435 0.0
H760 H 0.24211 0.28775 0.6436 0.0
H761 H 0.18871 0.24717 0.66392 0.0
H762 H 0.25211 0.26027 0.61996 0.0
H763 H 0.19901 0.21944 0.64034 0.0
H764 H 0.24733 0.17237 0.60848 0.0
H765 H 0.23593 0.19687 0.63496 0.0
H766 H 0.22804 0.2439 0.58611 0.0
H767 H 0.23888 0.21963 0.55975 0.0
C768 C 0.23276 0.27281 0.64329 0.0
C769 C 0.21463 0.26957 0.65555 0.0
C770 C 0.23841 0.25717 0.6297 0.0
C771 C 0.22627 0.23785 0.62836 0.0
C772 C 0.20864 0.23422 0.6412 0.0
C773 C 0.20272 0.25006 0.65455 0.0
C774 C 0.24286 0.18784 0.6034 0.0
C775 C 0.24401 0.19407 0.58204 0.0
C776 C 0.23634 0.20179 0.61851 0.0
C777 C 0.23134 0.22225 0.6125 0.0
C778 C 0.232 0.22824 0.59112 0.0
C779 C 0.23809 0.21427 0.57604 0.0
H780 H 0.48008 0.51166 0.59418 0.0
H781 H 0.5318 0.52728 0.64065 0.0
H782 H 0.45445 0.50958 0.62235 0.0
H783 H 0.50639 0.5248 0.66856 0.0
H784 H 0.45966 0.50444 0.71701 0.0
H785 H 0.48235 0.49982 0.68738 0.0
H786 H 0.43959 0.53492 0.6468 0.0
H787 H 0.41655 0.53924 0.67645 0.0
C788 C 0.48603 0.51453 0.61036 0.0
C789 C 0.50807 0.51959 0.61509 0.0
C790 C 0.47134 0.5133 0.62648 0.0
C791 C 0.4784 0.51696 0.64768 0.0
C792 C 0.50046 0.5215 0.65245 0.0
C793 C 0.51508 0.52286 0.63639 0.0
C794 C 0.45482 0.51085 0.7017 0.0
C795 C 0.43634 0.52232 0.69914 0.0
C796 C 0.46793 0.50831 0.68474 0.0
C797 C 0.4629 0.51719 0.66481 0.0
C798 C 0.44384 0.52777 0.66193 0.0
C799 C 0.4307 0.53034 0.67895 0.0
H800 H 0.78023 0.23269 0.63108 0.0
H801 H 0.81605 0.28809 0.65589 0.0
H802 H 0.76618 0.2532 0.60146 0.0
H803 H 0.80206 0.30876 0.62595 0.0
H804 H 0.75524 0.34104 0.57762 0.0
H805 H 0.769 0.32249 0.60908 0.0
H806 H 0.78082 0.26952 0.57012 0.0
H807 H 0.76661 0.28762 0.53907 0.0
C808 C 0.78517 0.24928 0.63013 0.0
C809 C 0.79948 0.25873 0.64564 0.0
C810 C 0.77715 0.26103 0.61314 0.0
C811 C 0.78328 0.28254 0.61115 0.0
C812 C 0.79698 0.29223 0.62707 0.0
C813 C 0.80499 0.28042 0.64419 0.0
C814 C 0.76088 0.32547 0.57581 0.0
C815 C 0.75984 0.31582 0.55582 0.0
C816 C 0.76884 0.31489 0.5938 0.0
C817 C 0.77581 0.29445 0.59213 0.0
C818 C 0.77521 0.28509 0.57204 0.0
C819 C 0.76726 0.29559 0.55415 0.0
H820 H 0.55425 0.97079 0.61016 0.0
H821 H 0.52897 0.02441 0.63935 0.0
H822 H 0.57933 0.96719 0.64052 0.0
H823 H 0.55472 0.0212 0.66953 0.0
H824 H 0.5956 0.9994 0.72769 0.0
H825 H 0.56624 0.99881 0.70035 0.0
H826 H 0.61158 0.98855 0.65254 0.0
H827 H 0.64064 0.98892 0.67955 0.0
C828 C 0.55376 0.98161 0.62321 0.0
C829 C 0.53962 0.99796 0.62224 0.0
C830 C 0.56833 0.97968 0.64053 0.0
C831 C 0.56919 0.99406 0.65732 0.0
C832 C 0.55441 0.00983 0.65687 0.0
C833 C 0.53981 0.01179 0.63948 0.0
C834 C 0.59924 0.99685 0.71136 0.0
C835 C 0.62051 0.99425 0.70584 0.0
C836 C 0.58245 0.99662 0.6957 0.0
C837 C 0.58657 0.99355 0.67429 0.0
C838 C 0.60778 0.99063 0.66891 0.0
C839 C 0.6245 0.99101 0.68443 0.0
H840 H 0.90697 0.26104 0.77634 0.0
H841 H 0.87213 0.21251 0.81134 0.0
H842 H 0.93158 0.26782 0.80714 0.0
H843 H 0.89691 0.21888 0.84196 0.0
H844 H 0.9355 0.24581 0.89925 0.0
H845 H 0.90903 0.24261 0.86956 0.0
H846 H 0.9601 0.2512 0.82579 0.0
H847 H 0.98644 0.25509 0.85541 0.0
C848 C 0.90456 0.25187 0.79065 0.0
C849 C 0.88764 0.23624 0.79142 0.0
C850 C 0.91871 0.25566 0.80828 0.0
C851 C 0.91637 0.24378 0.82702 0.0
C852 C 0.89905 0.22854 0.82793 0.0
C853 C 0.88482 0.22487 0.81037 0.0
C854 C 0.94108 0.24705 0.88329 0.0
C855 C 0.96313 0.25067 0.87975 0.0
C856 C 0.92589 0.24514 0.86624 0.0
C857 C 0.93239 0.24665 0.84523 0.0
C858 C 0.95444 0.25033 0.84173 0.0
C859 C 0.9696 0.25239 0.85875 0.0
H860 H 0.46228 0.924 0.48053 0.0
H861 H 0.53072 0.92542 0.49612 0.0
H862 H 0.46385 0.88928 0.46481 0.0
H863 H 0.53228 0.89113 0.47993 0.0
H864 H 0.53089 0.83869 0.43144 0.0
H865 H 0.52748 0.8743 0.44412 0.0
H866 H 0.47139 0.85276 0.47766 0.0
H867 H 0.47468 0.81714 0.46499 0.0
C868 C 0.47763 0.91695 0.48067 0.0
C869 C 0.49638 0.92761 0.48957 0.0
C870 C 0.47853 0.8971 0.47158 0.0
C871 C 0.49821 0.88757 0.47103 0.0
C872 C 0.51694 0.89825 0.47977 0.0
C873 C 0.51603 0.91796 0.48901 0.0
C874 C 0.5177 0.84155 0.44135 0.0
C875 C 0.50315 0.82499 0.4473 0.0
C876 C 0.51583 0.86193 0.4487 0.0
C877 C 0.49925 0.86627 0.46198 0.0
C878 C 0.48425 0.84991 0.46734 0.0
C879 C 0.48623 0.82948 0.46016 0.0
H880 H 0.15459 0.34531 0.80021 0.0
H881 H 0.10515 0.31647 0.7577 0.0
H882 H 0.13169 0.3382 0.83004 0.0
H883 H 0.08188 0.30997 0.78727 0.0
H884 H 0.05788 0.27818 0.84741 0.0
H885 H 0.07888 0.28779 0.81707 0.0
H886 H 0.10018 0.34682 0.84683 0.0
H887 H 0.07973 0.33673 0.87772 0.0
C888 C 0.13869 0.3377 0.79725 0.0
C889 C 0.1317 0.33127 0.77671 0.0
C890 C 0.12549 0.33371 0.8143 0.0
C891 C 0.10491 0.32342 0.81113 0.0
C892 C 0.09778 0.31751 0.79042 0.0
C893 C 0.11107 0.32127 0.77344 0.0
C894 C 0.0669 0.2933 0.84745 0.0
C895 C 0.0672 0.30665 0.86505 0.0
C896 C 0.07888 0.29889 0.82994 0.0
C897 C 0.0913 0.3181 0.82943 0.0
C898 C 0.09111 0.33174 0.84681 0.0
C899 C 0.07926 0.32604 0.86446 0.0
H900 H 0.51393 0.61881 0.50754 0.0
H901 H 0.57147 0.61388 0.47306 0.0
H902 H 0.50521 0.64977 0.48657 0.0
H903 H 0.56319 0.64507 0.45248 0.0
H904 H 0.53921 0.69567 0.41018 0.0
H905 H 0.54057 0.66094 0.4265 0.0
H906 H 0.51832 0.68549 0.48451 0.0
H907 H 0.51621 0.71994 0.4679 0.0
C908 C 0.52465 0.62432 0.49539 0.0
C909 C 0.54343 0.61402 0.49199 0.0
C910 C 0.51971 0.6421 0.48342 0.0
C911 C 0.53356 0.65008 0.46792 0.0
C912 C 0.55194 0.63924 0.46403 0.0
C913 C 0.55676 0.62136 0.47586 0.0
C914 C 0.53427 0.69354 0.42631 0.0
C915 C 0.52776 0.71057 0.43782 0.0
C916 C 0.53519 0.67366 0.43572 0.0
C917 C 0.52983 0.67041 0.45693 0.0
C918 C 0.52236 0.68728 0.46809 0.0
C919 C 0.52124 0.70711 0.4586 0.0
H920 H 0.88167 0.80864 0.72206 0.0
H921 H 0.8785 0.74453 0.74527 0.0
H922 H 0.90105 0.79794 0.69173 0.0
H923 H 0.89747 0.73386 0.71473 0.0
H924 H 0.90713 0.71988 0.64472 0.0
H925 H 0.88964 0.73109 0.67588 0.0
H926 H 0.93641 0.7839 0.68296 0.0
H927 H 0.95402 0.7727 0.65153 0.0
C928 C 0.88525 0.79231 0.72082 0.0
C929 C 0.87842 0.77744 0.73611 0.0
C930 C 0.89635 0.7862 0.70342 0.0
C931 C 0.90073 0.76506 0.70082 0.0
C932 C 0.89405 0.75022 0.71615 0.0
C933 C 0.8831 0.75634 0.7336 0.0
C934 C 0.91376 0.73387 0.65289 0.0
C935 C 0.93198 0.7454 0.64562 0.0
C936 C 0.90378 0.74022 0.67084 0.0
C937 C 0.91167 0.75834 0.6819 0.0
C938 C 0.92988 0.76994 0.67465 0.0
C939 C 0.94001 0.76347 0.65674 0.0
H940 H 0.99954 0.89795 0.52048 0.0
H941 H 0.06733 0.88801 0.52946 0.0
H942 H 0.99076 0.86371 0.53668 0.0
H943 H 0.05857 0.85419 0.54626 0.0
H944 H 0.0335 0.78466 0.54169 0.0
H945 H 0.04311 0.82082 0.53187 0.0
H946 H 0.99261 0.84186 0.56935 0.0
H947 H 0.98269 0.80537 0.57911 0.0
C948 C 0.01256 0.8886 0.52619 0.0
C949 C 0.03413 0.89565 0.52349 0.0
C950 C 0.00753 0.86907 0.53566 0.0
C951 C 0.02396 0.85614 0.54257 0.0
C952 C 0.04553 0.86366 0.54083 0.0
C953 C 0.05056 0.88317 0.53141 0.0
C954 C 0.02446 0.79694 0.54799 0.0
C955 C 0.00722 0.79204 0.56111 0.0
C956 C 0.03013 0.81774 0.54248 0.0
C957 C 0.01868 0.83424 0.54987 0.0
C958 C 0.00165 0.82946 0.56329 0.0
C959 C 0.99604 0.80857 0.56895 0.0
H960 H 0.10851 0.71946 0.7175 0.0
H961 H 0.1486 0.71256 0.66456 0.0
H962 H 0.07658 0.71834 0.69332 0.0
H963 H 0.11709 0.71238 0.6403 0.0
H964 H 0.0567 0.69584 0.60161 0.0
H965 H 0.08628 0.69302 0.62783 0.0
H966 H 0.05818 0.73791 0.66737 0.0
H967 H 0.02797 0.73979 0.64151 0.0
C968 C 0.11045 0.71777 0.70066 0.0
C969 C 0.13097 0.71593 0.6929 0.0
C970 C 0.09219 0.71725 0.68677 0.0
C971 C 0.09412 0.71521 0.66476 0.0
C972 C 0.11478 0.71343 0.65712 0.0
C973 C 0.13292 0.71362 0.67102 0.0
C974 C 0.05678 0.70498 0.61599 0.0
C975 C 0.04008 0.71814 0.61943 0.0
C976 C 0.07384 0.70349 0.631 0.0
C977 C 0.07491 0.71546 0.64969 0.0
C978 C 0.05787 0.72825 0.65334 0.0
C979 C 0.04057 0.72944 0.63846 0.0
H980 H 0.00225 0.59107 0.49819 0.0
H981 H 0.95283 0.56544 0.5383 0.0
H982 H 0.00105 0.62527 0.51485 0.0
H983 H 0.95073 0.59983 0.55437 0.0
H984 H 0.96601 0.6586 0.59356 0.0
H985 H 0.96851 0.62427 0.57755 0.0
H986 H 0.98078 0.65447 0.51731 0.0
H987 H 0.97938 0.68868 0.53368 0.0
C988 C 0.9909 0.59289 0.51039 0.0
C989 C 0.97763 0.57567 0.51697 0.0
C990 C 0.99012 0.61251 0.51991 0.0
C991 C 0.97576 0.61546 0.53601 0.0
C992 C 0.9623 0.59816 0.54237 0.0
C993 C 0.96337 0.57846 0.53308 0.0
C994 C 0.96934 0.65784 0.57692 0.0
C995 C 0.97257 0.67631 0.56489 0.0
C996 C 0.97061 0.63815 0.56766 0.0
C997 C 0.97479 0.63646 0.54605 0.0
C998 C 0.97795 0.65505 0.53406 0.0
C999 C 0.97703 0.67472 0.54341 0.0
H1000 H 0.75472 0.92986 0.20465 0.0
H1001 H 0.78632 0.87879 0.23572 0.0
H1002 H 0.7869 0.95309 0.21147 0.0
H1003 H 0.81844 0.90207 0.24287 0.0
H1004 H 0.87965 0.94279 0.23092 0.0
H1005 H 0.84726 0.91987 0.22484 0.0
H1006 H 0.80825 0.97105 0.23918 0.0
H1007 H 0.84069 0.99422 0.24466 0.0
C1008 C 0.76848 0.92367 0.21317 0.0
C1009 C 0.76799 0.90249 0.21963 0.0
C1010 C 0.78692 0.93699 0.21712 0.0
C1011 C 0.80531 0.92948 0.22772 0.0
C1012 C 0.80472 0.90831 0.23435 0.0
C1013 C 0.78631 0.89496 0.23029 0.0
C1014 C 0.86419 0.9492 0.23281 0.0
C1015 C 0.86282 0.9704 0.23826 0.0
C1016 C 0.84558 0.93598 0.22945 0.0
C1017 C 0.8251 0.94357 0.23156 0.0
C1018 C 0.82373 0.96474 0.23712 0.0
C1019 C 0.84236 0.97801 0.24038 0.0
H1020 H 0.76508 0.14511 0.21469 0.0
H1021 H 0.78079 0.15671 0.28112 0.0
H1022 H 0.79196 0.119 0.21463 0.0
H1023 H 0.80756 0.13032 0.28107 0.0
H1024 H 0.84325 0.06885 0.27438 0.0
H1025 H 0.81316 0.09169 0.27607 0.0
H1026 H 0.83182 0.12215 0.21782 0.0
H1027 H 0.86157 0.09955 0.21607 0.0
C1028 C 0.77422 0.14205 0.2293 0.0
C1029 C 0.77096 0.15324 0.24783 0.0
C1030 C 0.78959 0.12706 0.22928 0.0
C1031 C 0.80206 0.12278 0.24779 0.0
C1032 C 0.79812 0.13318 0.26659 0.0
C1033 C 0.78276 0.14829 0.2666 0.0
C1034 C 0.84086 0.08041 0.26194 0.0
C1035 C 0.85482 0.08237 0.24509 0.0
C1036 C 0.82369 0.09351 0.26295 0.0
C1037 C 0.82003 0.1086 0.24699 0.0
C1038 C 0.83398 0.11046 0.23018 0.0
C1039 C 0.85116 0.09758 0.22928 0.0
H1040 H 0.39326 0.92612 0.94718 0.0
H1041 H 0.38114 0.95168 0.0082 0.0
H1042 H 0.36079 0.90265 0.94899 0.0
H1043 H 0.34884 0.92797 0.01015 0.0
H1044 H 0.28314 0.89158 0.99916 0.0
H1045 H 0.31187 0.9188 0.99328 0.0
H1046 H 0.35226 0.87148 0.97198 0.0
H1047 H 0.32379 0.84442 0.97777 0.0
C1048 C 0.38346 0.92698 0.96081 0.0
C1049 C 0.38983 0.94063 0.97762 0.0
C1050 C 0.36498 0.91342 0.96192 0.0
C1051 C 0.35237 0.91336 0.97978 0.0
C1052 C 0.35816 0.92773 0.99613 0.0
C1053 C 0.37675 0.94116 0.9951 0.0
C1054 C 0.29809 0.88703 0.99306 0.0
C1055 C 0.30119 0.8658 0.98905 0.0
C1056 C 0.31455 0.9026 0.98978 0.0
C1057 C 0.33429 0.89727 0.98212 0.0
C1058 C 0.33715 0.87613 0.97764 0.0
C1059 C 0.32086 0.86059 0.98114 0.0
H1060 H 0.24836 0.34005 0.25508 0.0
H1061 H 0.24803 0.36229 0.31945 0.0
H1062 H 0.22053 0.36368 0.24447 0.0
H1063 H 0.22127 0.38681 0.30862 0.0
H1064 H 0.1696 0.42761 0.2872 0.0
H1065 H 0.18594 0.39458 0.29594 0.0
H1066 H 0.22163 0.40041 0.23898 0.0
H1067 H 0.20488 0.43269 0.22997 0.0
C1068 C 0.24215 0.34972 0.26706 0.0
C1069 C 0.25077 0.34951 0.28806 0.0
C1070 C 0.22632 0.36347 0.26092 0.0
C1071 C 0.21885 0.37746 0.27558 0.0
C1072 C 0.22648 0.37624 0.29686 0.0
C1073 C 0.24215 0.36239 0.30303 0.0
C1074 C 0.18047 0.4215 0.27627 0.0
C1075 C 0.1862 0.43301 0.25806 0.0
C1076 C 0.19 0.40265 0.28137 0.0
C1077 C 0.20541 0.39494 0.26837 0.0
C1078 C 0.20976 0.40566 0.24935 0.0
C1079 C 0.20025 0.42439 0.24425 0.0
H1080 H 0.15472 0.02157 0.49225 0.0
H1081 H 0.10197 0.05702 0.51077 0.0
H1082 H 0.18003 0.05078 0.50234 0.0
H1083 H 0.12745 0.08579 0.52212 0.0
H1084 H 0.17507 0.14245 0.51255 0.0
H1085 H 0.14964 0.11247 0.50613 0.0
H1086 H 0.19714 0.07083 0.53065 0.0
H1087 H 0.22295 0.10091 0.53642 0.0
C1088 C 0.14851 0.03555 0.49862 0.0
C1089 C 0.12623 0.037 0.50041 0.0
C1090 C 0.1631 0.05222 0.50472 0.0
C1091 C 0.15584 0.07076 0.51296 0.0
C1092 C 0.13362 0.07191 0.5155 0.0
C1093 C 0.119 0.05527 0.50925 0.0
C1094 C 0.18012 0.12693 0.5167 0.0
C1095 C 0.20115 0.12413 0.52493 0.0
C1096 C 0.16542 0.10969 0.51315 0.0
C1097 C 0.17125 0.08915 0.51788 0.0
C1098 C 0.19216 0.08637 0.52651 0.0
C1099 C 0.20695 0.10364 0.52992 0.0
H1100 H 0.78476 0.11514 0.74613 0.0
H1101 H 0.7341 0.15761 0.73433 0.0
H1102 H 0.75807 0.08655 0.7519 0.0
H1103 H 0.70714 0.12848 0.7392 0.0
H1104 H 0.66838 0.07257 0.77283 0.0
H1105 H 0.69242 0.10365 0.76625 0.0
H1106 H 0.73217 0.06573 0.73004 0.0
H1107 H 0.70886 0.03491 0.73712 0.0
C1108 C 0.76792 0.11845 0.74494 0.0
C1109 C 0.76162 0.13873 0.73982 0.0
C1110 C 0.75257 0.10194 0.74792 0.0
C1111 C 0.73046 0.10515 0.74569 0.0
C1112 C 0.72406 0.1255 0.74103 0.0
C1113 C 0.73949 0.14213 0.73807 0.0
C1114 C 0.6821 0.07097 0.76323 0.0
C1115 C 0.68673 0.05118 0.75561 0.0
C1116 C 0.69584 0.08878 0.75943 0.0
C1117 C 0.71442 0.08707 0.74794 0.0
C1118 C 0.7183 0.0675 0.7394 0.0
C1119 C 0.70473 0.04979 0.74328 0.0
H1120 H 0.39027 0.03 0.53885 0.0
H1121 H 0.42936 0.08473 0.51991 0.0
H1122 H 0.35823 0.0504 0.53604 0.0
H1123 H 0.39774 0.10513 0.51754 0.0
H1124 H 0.33678 0.13234 0.49474 0.0
H1125 H 0.36597 0.1088 0.49598 0.0
H1126 H 0.34077 0.07866 0.55196 0.0
H1127 H 0.31098 0.10187 0.55022 0.0
C1128 C 0.39201 0.04642 0.53424 0.0
C1129 C 0.41227 0.05571 0.52936 0.0
C1130 C 0.37369 0.05811 0.53265 0.0
C1131 C 0.37531 0.07937 0.52629 0.0
C1132 C 0.39571 0.08867 0.52189 0.0
C1133 C 0.4139 0.07699 0.52332 0.0
C1134 C 0.33733 0.12056 0.50721 0.0
C1135 C 0.32169 0.11911 0.5225 0.0
C1136 C 0.35418 0.10713 0.50802 0.0
C1137 C 0.35602 0.09206 0.52432 0.0
C1138 C 0.33984 0.09001 0.53913 0.0
C1139 C 0.32279 0.10335 0.53818 0.0
H1140 H 0.65437 0.48844 0.53252 0.0
H1141 H 0.59998 0.4623 0.49419 0.0
H1142 H 0.67541 0.45956 0.52268 0.0
H1143 H 0.62115 0.43335 0.48415 0.0
H1144 H 0.656 0.37213 0.49726 0.0
H1145 H 0.63526 0.40275 0.50093 0.0
H1146 H 0.69289 0.44334 0.49444 0.0
H1147 H 0.71384 0.41254 0.49131 0.0
C1148 C 0.64702 0.47673 0.52165 0.0
C1149 C 0.62547 0.47767 0.51417 0.0
C1150 C 0.65912 0.46016 0.51596 0.0
C1151 C 0.65 0.44409 0.50261 0.0
C1152 C 0.62859 0.4453 0.4947 0.0
C1153 C 0.61645 0.46187 0.50045 0.0
C1154 C 0.66425 0.38757 0.49637 0.0
C1155 C 0.68664 0.38986 0.49421 0.0
C1156 C 0.65229 0.40518 0.49834 0.0
C1157 C 0.6624 0.42555 0.49814 0.0
C1158 C 0.68465 0.42787 0.49503 0.0
C1159 C 0.69664 0.41022 0.49309 0.0
H1160 H 0.69714 0.28863 0.3288 0.0
H1161 H 0.74523 0.2451 0.34641 0.0
H1162 H 0.70294 0.30555 0.36346 0.0
H1163 H 0.75042 0.26113 0.3812 0.0
H1164 H 0.7733 0.30486 0.43252 0.0
H1165 H 0.76629 0.29172 0.39675 0.0
H1166 H 0.6988 0.30257 0.40071 0.0
H1167 H 0.70625 0.31687 0.43638 0.0
C1168 C 0.70871 0.28252 0.34025 0.0
C1169 C 0.72091 0.26573 0.33495 0.0
C1170 C 0.71202 0.29215 0.3601 0.0
C1171 C 0.72742 0.28498 0.37508 0.0
C1172 C 0.73894 0.26759 0.3699 0.0
C1173 C 0.73586 0.25824 0.35003 0.0
C1174 C 0.75701 0.30469 0.42563 0.0
C1175 C 0.74028 0.3117 0.43724 0.0
C1176 C 0.75291 0.29694 0.40518 0.0
C1177 C 0.73185 0.29551 0.39596 0.0
C1178 C 0.71522 0.30345 0.40725 0.0
C1179 C 0.71944 0.31163 0.42768 0.0
H1180 H 0.55549 0.99887 0.91257 0.0
H1181 H 0.49914 0.98044 0.87289 0.0
H1182 H 0.57779 0.99812 0.88194 0.0
H1183 H 0.52158 0.9797 0.84206 0.0
H1184 H 0.56908 0.00948 0.79154 0.0
H1185 H 0.54447 0.00671 0.82059 0.0
H1186 H 0.58957 0.97048 0.85705 0.0
H1187 H 0.61412 0.9731 0.82811 0.0
C1188 C 0.54787 0.99476 0.89725 0.0
C1189 C 0.52557 0.98981 0.89508 0.0
C1190 C 0.56066 0.99413 0.87977 0.0
C1191 C 0.55143 0.98875 0.85964 0.0
C1192 C 0.52909 0.98394 0.85739 0.0
C1193 C 0.5163 0.98428 0.875 0.0
C1194 C 0.57362 0.00068 0.80563 0.0
C1195 C 0.59364 0.99166 0.80755 0.0
C1196 C 0.55948 0.99904 0.82222 0.0
C1197 C 0.56522 0.98856 0.84114 0.0
C1198 C 0.58487 0.97888 0.84274 0.0
C1199 C 0.59886 0.9803 0.8261 0.0
H1200 H 0.27035 0.22867 0.36057 0.0
H1201 H 0.33283 0.23477 0.39355 0.0
H1202 H 0.25679 0.20622 0.3891 0.0
H1203 H 0.31908 0.21311 0.42243 0.0
H1204 H 0.29246 0.16703 0.46935 0.0
H1205 H 0.30498 0.1791 0.43499 0.0
H1206 H 0.24806 0.21389 0.42484 0.0
H1207 H 0.23538 0.20155 0.45872 0.0
C1208 C 0.2813 0.22494 0.37373 0.0
C1209 C 0.3026 0.23374 0.37492 0.0
C1210 C 0.27347 0.21223 0.39018 0.0
C1211 C 0.28676 0.20804 0.40818 0.0
C1212 C 0.30841 0.21586 0.40877 0.0
C1213 C 0.31623 0.22853 0.39232 0.0
C1214 C 0.28241 0.17688 0.45957 0.0
C1215 C 0.26305 0.18356 0.46696 0.0
C1216 C 0.28965 0.18391 0.43994 0.0
C1217 C 0.27765 0.19766 0.42725 0.0
C1218 C 0.25766 0.20318 0.43407 0.0
C1219 C 0.25045 0.19622 0.45365 0.0
H1220 H 0.4719 0.47164 0.91833 0.0
H1221 H 0.50987 0.52584 0.89629 0.0
H1222 H 0.44423 0.47742 0.89044 0.0
H1223 H 0.48234 0.53151 0.86831 0.0
H1224 H 0.427 0.54128 0.82237 0.0
H1225 H 0.44383 0.53934 0.85819 0.0
H1226 H 0.44719 0.4723 0.85144 0.0
H1227 H 0.43062 0.47426 0.81584 0.0
C1228 C 0.47405 0.48513 0.9079 0.0
C1229 C 0.49314 0.49817 0.90933 0.0
C1230 C 0.45827 0.48836 0.89187 0.0
C1231 C 0.46118 0.50483 0.87711 0.0
C1232 C 0.47954 0.51878 0.87954 0.0
C1233 C 0.4954 0.51543 0.89542 0.0
C1234 C 0.43072 0.52607 0.82884 0.0
C1235 C 0.42769 0.50794 0.81627 0.0
C1236 C 0.44049 0.52498 0.84926 0.0
C1237 C 0.44698 0.5057 0.85756 0.0
C1238 C 0.44224 0.48736 0.8456 0.0
C1239 C 0.43284 0.4885 0.82514 0.0
H1240 H 0.67607 0.76146 0.13665 0.0
H1241 H 0.73801 0.76194 0.17058 0.0
H1242 H 0.6858 0.73229 0.11516 0.0
H1243 H 0.74781 0.73277 0.14895 0.0
H1244 H 0.75501 0.67271 0.11143 0.0
H1245 H 0.74051 0.69524 0.1378 0.0
H1246 H 0.71173 0.73188 0.08735 0.0
H1247 H 0.72607 0.70977 0.06137 0.0
C1248 C 0.69171 0.75521 0.13961 0.0
C1249 C 0.70641 0.76421 0.15506 0.0
C1250 C 0.69727 0.73849 0.12733 0.0
C1251 C 0.71768 0.7304 0.13017 0.0
C1252 C 0.73191 0.73854 0.14649 0.0
C1253 C 0.72631 0.75529 0.15884 0.0
C1254 C 0.74528 0.68538 0.10604 0.0
C1255 C 0.74161 0.68933 0.08425 0.0
C1256 C 0.73709 0.69833 0.12112 0.0
C1257 C 0.72489 0.71529 0.11467 0.0
C1258 C 0.7207 0.71873 0.0929 0.0
C1259 C 0.72901 0.706 0.07793 0.0
H1260 H 0.03122 0.02639 0.13979 0.0
H1261 H 0.9806 0.00788 0.0931 0.0
H1262 H 0.00548 0.02368 0.16738 0.0
H1263 H 0.9546 0.00562 0.12096 0.0
H1264 H 0.91517 0.03567 0.17392 0.0
H1265 H 0.93858 0.03115 0.1446 0.0
H1266 H 0.98202 0.99816 0.18644 0.0
H1267 H 0.95894 0.00295 0.21574 0.0
C1268 C 0.01469 0.02129 0.13542 0.0
C1269 C 0.00808 0.01726 0.11415 0.0
C1270 C 0.99988 0.0198 0.1513 0.0
C1271 C 0.97801 0.01438 0.14637 0.0
C1272 C 0.97134 0.01 0.1252 0.0
C1273 C 0.98624 0.01134 0.10926 0.0
C1274 C 0.92954 0.02716 0.17677 0.0
C1275 C 0.93527 0.01982 0.19721 0.0
C1276 C 0.94289 0.02448 0.15995 0.0
C1277 C 0.96226 0.01449 0.16327 0.0
C1278 C 0.96736 0.0062 0.18346 0.0
C1279 C 0.95403 0.00883 0.20023 0.0
H1280 H 0.28863 0.72842 0.12885 0.0
H1281 H 0.31878 0.78575 0.15557 0.0
H1282 H 0.27357 0.74822 0.09925 0.0
H1283 H 0.30379 0.80574 0.12561 0.0
H1284 H 0.25413 0.83457 0.07741 0.0
H1285 H 0.26983 0.81687 0.10849 0.0
H1286 H 0.28691 0.76653 0.06855 0.0
H1287 H 0.27072 0.78369 0.03789 0.0
C1288 C 0.29217 0.74528 0.1283 0.0
C1289 C 0.30514 0.75549 0.14438 0.0
C1290 C 0.28356 0.75664 0.1113 0.0
C1291 C 0.28776 0.77853 0.10987 0.0
C1292 C 0.3002 0.7889 0.12629 0.0
C1293 C 0.30879 0.77747 0.14342 0.0
C1294 C 0.26137 0.81979 0.07529 0.0
C1295 C 0.26115 0.81055 0.05515 0.0
C1296 C 0.27044 0.8097 0.09308 0.0
C1297 C 0.27941 0.79018 0.09103 0.0
C1298 C 0.27976 0.78135 0.07076 0.0
C1299 C 0.27067 0.79134 0.05309 0.0
H1300 H 0.06429 0.47353 0.10301 0.0
H1301 H 0.03087 0.52009 0.13541 0.0
H1302 H 0.08952 0.47123 0.1334 0.0
H1303 H 0.05681 0.51837 0.16563 0.0
H1304 H 0.09893 0.49668 0.22322 0.0
H1305 H 0.07053 0.49589 0.19495 0.0
H1306 H 0.11866 0.49446 0.14816 0.0
H1307 H 0.14679 0.4949 0.17607 0.0
C1308 C 0.06212 0.48309 0.11673 0.0
C1309 C 0.04553 0.49704 0.1167 0.0
C1310 C 0.07679 0.48196 0.13408 0.0
C1311 C 0.07534 0.49479 0.15186 0.0
C1312 C 0.05832 0.50821 0.15221 0.0
C1313 C 0.0436 0.50936 0.1348 0.0
C1314 C 0.10342 0.4961 0.20689 0.0
C1315 C 0.12519 0.4958 0.20198 0.0
C1316 C 0.08715 0.49575 0.19071 0.0
C1317 C 0.09231 0.49497 0.1693 0.0
C1318 C 0.11406 0.49467 0.16447 0.0
C1319 C 0.13024 0.49507 0.18055 0.0
H1320 H 0.3759 0.71405 0.31167 0.0
H1321 H 0.41143 0.76108 0.27541 0.0
H1322 H 0.39995 0.72182 0.34253 0.0
H1323 H 0.4353 0.76928 0.30645 0.0
H1324 H 0.48919 0.7583 0.35661 0.0
H1325 H 0.46348 0.75361 0.32654 0.0
H1326 H 0.41137 0.74669 0.36928 0.0
H1327 H 0.43719 0.75067 0.39943 0.0
C1328 C 0.38859 0.72639 0.31045 0.0
C1329 C 0.39181 0.73692 0.29111 0.0
C1330 C 0.4024 0.73088 0.32816 0.0
C1331 C 0.41969 0.74611 0.327 0.0
C1332 C 0.42243 0.75716 0.30781 0.0
C1333 C 0.40871 0.75255 0.29005 0.0
C1334 C 0.47225 0.75585 0.35963 0.0
C1335 C 0.4653 0.75475 0.38047 0.0
C1336 C 0.45745 0.75331 0.34234 0.0
C1337 C 0.4353 0.74977 0.34543 0.0
C1338 C 0.42832 0.74905 0.36629 0.0
C1339 C 0.44314 0.75142 0.3836 0.0
H1340 H 0.98311 0.40709 0.0157 0.0
H1341 H 0.99847 0.43558 0.95556 0.0
H1342 H 0.98478 0.37234 0.00048 0.0
H1343 H 0.99978 0.40075 0.94012 0.0
H1344 H 0.02678 0.33625 0.92884 0.0
H1345 H 0.02214 0.3715 0.9417 0.0
H1346 H 0.96741 0.34758 0.97614 0.0
H1347 H 0.97243 0.31229 0.96383 0.0
C1348 C 0.98645 0.40591 0.9991 0.0
C1349 C 0.99069 0.42408 0.98685 0.0
C1350 C 0.98739 0.38597 0.99034 0.0
C1351 C 0.99245 0.38369 0.96905 0.0
C1352 C 0.9962 0.4019 0.95666 0.0
C1353 C 0.99539 0.42186 0.96547 0.0
C1354 C 0.01366 0.33853 0.93903 0.0
C1355 C 1.00011 0.32137 0.94543 0.0
C1356 C 0.01092 0.35879 0.94633 0.0
C1357 C 0.99448 0.3624 0.9601 0.0
C1358 C 0.98051 0.34534 0.96591 0.0
C1359 C 0.98333 0.32508 0.95874 0.0
H1360 H 0.61406 0.80233 0.2617 0.0
H1361 H 0.65698 0.84563 0.29832 0.0
H1362 H 0.5939 0.79397 0.29311 0.0
H1363 H 0.63686 0.83714 0.32979 0.0
H1364 H 0.61102 0.79641 0.3851 0.0
H1365 H 0.63043 0.80722 0.35387 0.0
H1366 H 0.57009 0.80983 0.31748 0.0
H1367 H 0.55062 0.79869 0.34868 0.0
C1368 C 0.61907 0.81023 0.2764 0.0
C1369 C 0.63715 0.82465 0.27749 0.0
C1370 C 0.60749 0.80545 0.2944 0.0
C1371 C 0.61375 0.81492 0.31393 0.0
C1372 C 0.63179 0.82938 0.31503 0.0
C1373 C 0.64334 0.83421 0.29701 0.0
C1374 C 0.60186 0.79942 0.37049 0.0
C1375 C 0.57927 0.7966 0.36937 0.0
C1376 C 0.613 0.80572 0.35261 0.0
C1377 C 0.60181 0.80931 0.33318 0.0
C1378 C 0.57918 0.80692 0.33216 0.0
C1379 C 0.56803 0.80067 0.35007 0.0
H1380 H 0.01362 0.1149 0.00405 0.0
H1381 H 0.07368 0.11272 0.97309 0.0
H1382 H 0.00508 0.14593 0.9831 0.0
H1383 H 0.06539 0.14384 0.95242 0.0
H1384 H 0.04081 0.19344 0.90881 0.0
H1385 H 0.04288 0.1588 0.92518 0.0
H1386 H 0.01774 0.18227 0.98231 0.0
H1387 H 0.01511 0.2167 0.96571 0.0
C1388 C 0.02494 0.12101 0.99268 0.0
C1389 C 0.04438 0.11144 0.9903 0.0
C1390 C 0.02008 0.13881 0.98072 0.0
C1391 C 0.0346 0.14751 0.96617 0.0
C1392 C 0.05367 0.13743 0.96323 0.0
C1393 C 0.05846 0.11957 0.97512 0.0
C1394 C 0.03542 0.19111 0.92475 0.0
C1395 C 0.02794 0.20785 0.93602 0.0
C1396 C 0.03673 0.17128 0.93419 0.0
C1397 C 0.03071 0.16777 0.95516 0.0
C1398 C 0.02231 0.18431 0.96607 0.0
C1399 C 0.02089 0.20411 0.95658 0.0
H1400 H 0.40704 0.26459 0.25803 0.0
H1401 H 0.35763 0.28031 0.21117 0.0
H1402 H 0.42991 0.25516 0.2299 0.0
H1403 H 0.38068 0.27106 0.183 0.0
H1404 H 0.43619 0.27185 0.13804 0.0
H1405 H 0.41473 0.28292 0.16676 0.0
H1406 H 0.43073 0.22776 0.20297 0.0
H1407 H 0.45234 0.21681 0.17445 0.0
C1408 C 0.40095 0.26585 0.24173 0.0
C1409 C 0.3804 0.27308 0.23689 0.0
C1410 C 0.41412 0.26051 0.22561 0.0
C1411 C 0.40712 0.26235 0.20422 0.0
C1412 C 0.38666 0.26975 0.19933 0.0
C1413 C 0.37345 0.27502 0.21548 0.0
C1414 C 0.43528 0.26218 0.1522 0.0
C1415 C 0.44595 0.24341 0.15392 0.0
C1416 C 0.42285 0.26845 0.16858 0.0
C1417 C 0.42093 0.25617 0.18709 0.0
C1418 C 0.43202 0.23767 0.189 0.0
C1419 C 0.44435 0.23135 0.1726 0.0
H1420 H 0.50453 0.39442 0.01865 0.0
H1421 H 0.57221 0.38407 0.02779 0.0
H1422 H 0.4955 0.36061 0.03555 0.0
H1423 H 0.56321 0.35068 0.04535 0.0
H1424 H 0.53739 0.28119 0.04266 0.0
H1425 H 0.54761 0.31703 0.03215 0.0
H1426 H 0.49701 0.33962 0.06852 0.0
H1427 H 0.48645 0.30348 0.0789 0.0
C1428 C 0.51748 0.38506 0.02453 0.0
C1429 C 0.53908 0.39186 0.02167 0.0
C1430 C 0.51231 0.36579 0.03442 0.0
C1431 C 0.52864 0.35286 0.04163 0.0
C1432 C 0.55025 0.36014 0.0397 0.0
C1433 C 0.55542 0.37941 0.02984 0.0
C1434 C 0.52847 0.29375 0.04859 0.0
C1435 C 0.51098 0.28938 0.06153 0.0
C1436 C 0.53448 0.31437 0.04268 0.0
C1437 C 0.52315 0.33121 0.04951 0.0
C1438 C 0.50595 0.32696 0.06285 0.0
C1439 C 0.49997 0.30626 0.06887 0.0
H1440 H 0.64569 0.20653 0.16991 0.0
H1441 H 0.60678 0.22312 0.22103 0.0
H1442 H 0.61425 0.20546 0.14558 0.0
H1443 H 0.57476 0.22097 0.19696 0.0
H1444 H 0.52781 0.23983 0.1424 0.0
H1445 H 0.55738 0.23823 0.16902 0.0
H1446 H 0.58243 0.18754 0.13463 0.0
H1447 H 0.55368 0.19019 0.10748 0.0
C1448 C 0.63023 0.20949 0.176 0.0
C1449 C 0.62863 0.21483 0.19733 0.0
C1450 C 0.61209 0.20877 0.16208 0.0
C1451 C 0.59174 0.213 0.1692 0.0
C1452 C 0.59013 0.21795 0.19074 0.0
C1453 C 0.60843 0.21905 0.2046 0.0
C1454 C 0.53959 0.22825 0.14068 0.0
C1455 C 0.53861 0.21531 0.12275 0.0
C1456 C 0.55652 0.22723 0.15601 0.0
C1457 C 0.57261 0.21293 0.15395 0.0
C1458 C 0.57083 0.19922 0.13651 0.0
C1459 C 0.55421 0.20059 0.12099 0.0
H1460 H 0.50876 0.0834 0.01247 0.0
H1461 H 0.44207 0.06919 0.02598 0.0
H1462 H 0.5078 0.11759 0.02932 0.0
H1463 H 0.44096 0.10364 0.04238 0.0
H1464 H 0.45454 0.15794 0.08976 0.0
H1465 H 0.45599 0.12321 0.07405 0.0
H1466 H 0.49095 0.15101 0.02231 0.0
H1467 H 0.48955 0.18559 0.03793 0.0
C1468 C 0.49391 0.08756 0.01909 0.0
C1469 C 0.47549 0.07359 0.0179 0.0
C1470 C 0.49331 0.10722 0.02857 0.0
C1471 C 0.4743 0.11332 0.03717 0.0
C1472 C 0.4559 0.09932 0.03607 0.0
C1473 C 0.45647 0.07969 0.02648 0.0
C1474 C 0.4626 0.15662 0.07507 0.0
C1475 C 0.47209 0.17454 0.0652 0.0
C1476 C 0.46332 0.13675 0.06602 0.0
C1477 C 0.47363 0.13436 0.04696 0.0
C1478 C 0.48318 0.15227 0.03716 0.0
C1479 C 0.48235 0.17212 0.04614 0.0
H1480 H 0.28556 0.38158 0.73683 0.0
H1481 H 0.25499 0.43235 0.70401 0.0
H1482 H 0.31764 0.40473 0.74417 0.0
H1483 H 0.28749 0.4552 0.71042 0.0
H1484 H 0.34135 0.49644 0.74387 0.0
H1485 H 0.30862 0.47369 0.73815 0.0
H1486 H 0.34703 0.42147 0.7259 0.0
H1487 H 0.37968 0.44398 0.73215 0.0
C1488 C 0.28564 0.3977 0.73123 0.0
C1489 C 0.26766 0.40508 0.71982 0.0
C1490 C 0.30417 0.41091 0.7352 0.0
C1491 C 0.30522 0.43183 0.72781 0.0
C1492 C 0.28718 0.43926 0.71653 0.0
C1493 C 0.26863 0.42606 0.71261 0.0
C1494 C 0.34282 0.4801 0.73999 0.0
C1495 C 0.36319 0.47206 0.73852 0.0
C1496 C 0.32404 0.46707 0.73659 0.0
C1497 C 0.32516 0.44572 0.73159 0.0
C1498 C 0.34554 0.43773 0.73007 0.0
C1499 C 0.3643 0.45071 0.73353 0.0
H1500 H 0.25279 0.63407 0.72506 0.0
H1501 H 0.29098 0.66345 0.77675 0.0
H1502 H 0.27656 0.60516 0.72552 0.0
H1503 H 0.31551 0.63509 0.77668 0.0
H1504 H 0.34958 0.57424 0.78039 0.0
H1505 H 0.32204 0.59952 0.78338 0.0
H1506 H 0.3109 0.59897 0.71525 0.0
H1507 H 0.33748 0.5732 0.71247 0.0
C1508 C 0.26635 0.63431 0.7365 0.0
C1509 C 0.27015 0.65102 0.75077 0.0
C1510 C 0.28009 0.61782 0.73671 0.0
C1511 C 0.29823 0.61783 0.75093 0.0
C1512 C 0.30162 0.63433 0.76565 0.0
C1513 C 0.28763 0.65066 0.76565 0.0
C1514 C 0.34105 0.5794 0.76611 0.0
C1515 C 0.34572 0.57168 0.7462 0.0
C1516 C 0.32535 0.59402 0.76779 0.0
C1517 C 0.31413 0.60138 0.74957 0.0
C1518 C 0.31876 0.59342 0.72972 0.0
C1519 C 0.3342 0.57868 0.72809 0.0
H1520 H 0.91821 0.40969 0.49603 0.0
H1521 H 0.88059 0.46072 0.47344 0.0
H1522 H 0.88556 0.38735 0.49913 0.0
H1523 H 0.84773 0.43776 0.47534 0.0
H1524 H 0.7922 0.39544 0.5036 0.0
H1525 H 0.82382 0.41985 0.4998 0.0
H1526 H 0.85906 0.369 0.47724 0.0
H1527 H 0.82802 0.34474 0.48172 0.0
C1528 C 0.90295 0.4162 0.49174 0.0
C1529 C 0.9021 0.4371 0.48459 0.0
C1530 C 0.88418 0.40323 0.49321 0.0
C1531 C 0.86395 0.41065 0.48729 0.0
C1532 C 0.86301 0.43157 0.48016 0.0
C1533 C 0.88188 0.44465 0.47881 0.0
C1534 C 0.80671 0.38956 0.49776 0.0
C1535 C 0.80767 0.36809 0.49326 0.0
C1536 C 0.8248 0.40355 0.49549 0.0
C1537 C 0.84413 0.39635 0.4885 0.0
C1538 C 0.84469 0.37503 0.48324 0.0
C1539 C 0.8268 0.36109 0.48571 0.0
H1540 H 0.75199 0.84395 0.75568 0.0
H1541 H 0.74572 0.86068 0.82115 0.0
H1542 H 0.72412 0.86728 0.74493 0.0
H1543 H 0.71924 0.88537 0.81021 0.0
H1544 H 0.66827 0.92696 0.78787 0.0
H1545 H 0.68524 0.89416 0.79615 0.0
H1546 H 0.72381 0.90354 0.74136 0.0
H1547 H 0.70632 0.93537 0.73267 0.0
C1548 C 0.74453 0.85237 0.76786 0.0
C1549 C 0.75153 0.85065 0.7893 0.0
C1550 C 0.72869 0.86604 0.76163 0.0
C1551 C 0.71967 0.87866 0.7766 0.0
C1552 C 0.72568 0.87594 0.79816 0.0
C1553 C 0.74126 0.86201 0.80443 0.0
C1554 C 0.67997 0.92168 0.77732 0.0
C1555 C 0.68614 0.93401 0.75979 0.0
C1556 C 0.68987 0.90296 0.78217 0.0
C1557 C 0.7062 0.89625 0.76964 0.0
C1558 C 0.71121 0.90792 0.75133 0.0
C1559 C 0.70125 0.92643 0.74643 0.0
H1560 H 0.65929 0.51789 0.98995 0.0
H1561 H 0.6062 0.5527 0.00881 0.0
H1562 H 0.68434 0.54731 0.00015 0.0
H1563 H 0.63139 0.58159 0.02026 0.0
H1564 H 0.67783 0.63882 0.01114 0.0
H1565 H 0.65312 0.60847 0.00408 0.0
H1566 H 0.7013 0.56756 0.02861 0.0
H1567 H 0.72644 0.5981 0.03507 0.0
C1568 C 0.65294 0.53176 0.99641 0.0
C1569 C 0.63064 0.53297 0.99828 0.0
C1570 C 0.66739 0.54855 0.00257 0.0
C1571 C 0.65993 0.56695 0.01091 0.0
C1572 C 0.6377 0.56784 0.01354 0.0
C1573 C 0.62324 0.55111 0.00724 0.0
C1574 C 0.68321 0.62338 0.01513 0.0
C1575 C 0.7042 0.62095 0.02365 0.0
C1576 C 0.66891 0.60592 0.01122 0.0
C1577 C 0.67511 0.5855 0.01587 0.0
C1578 C 0.69605 0.58303 0.0246 0.0
C1579 C 0.71045 0.60055 0.02839 0.0
H1580 H 0.23951 0.65573 0.23137 0.0
H1581 H 0.28986 0.61408 0.24791 0.0
H1582 H 0.21242 0.62677 0.23628 0.0
H1583 H 0.26296 0.58567 0.25374 0.0
H1584 H 0.21432 0.53326 0.23848 0.0
H1585 H 0.23833 0.56371 0.23179 0.0
H1586 H 0.19622 0.60318 0.26335 0.0
H1587 H 0.17153 0.57248 0.26948 0.0
C1588 C 0.2448 0.64047 0.23616 0.0
C1589 C 0.26689 0.63725 0.2392 0.0
C1590 C 0.22928 0.62394 0.23916 0.0
C1591 C 0.23554 0.60386 0.24517 0.0
C1592 C 0.25758 0.60084 0.24872 0.0
C1593 C 0.27304 0.61727 0.24569 0.0
C1594 C 0.20986 0.54841 0.24369 0.0
C1595 C 0.19095 0.55037 0.25454 0.0
C1596 C 0.22382 0.5659 0.24006 0.0
C1597 C 0.21941 0.58583 0.24738 0.0
C1598 C 0.20006 0.58804 0.25748 0.0
C1599 C 0.18595 0.57045 0.26102 0.0
H1600 H 0.93204 0.58421 0.02301 0.0
H1601 H 0.89332 0.53052 0.04518 0.0
H1602 H 0.90164 0.60604 0.0254 0.0
H1603 H 0.86282 0.55263 0.04797 0.0
H1604 H 0.80793 0.59697 0.0275 0.0
H1605 H 0.83713 0.57327 0.02488 0.0
H1606 H 0.88178 0.62009 0.05441 0.0
H1607 H 0.85292 0.64367 0.05691 0.0
C1608 C 0.91696 0.57703 0.02826 0.0
C1609 C 0.91508 0.55561 0.03386 0.0
C1610 C 0.8996 0.5896 0.02983 0.0
C1611 C 0.87986 0.58109 0.03699 0.0
C1612 C 0.8778 0.5596 0.04231 0.0
C1613 C 0.89529 0.547 0.04088 0.0
C1614 C 0.82397 0.60214 0.03348 0.0
C1615 C 0.8281 0.62227 0.0423 0.0
C1616 C 0.84065 0.58854 0.03207 0.0
C1617 C 0.86178 0.59488 0.03929 0.0
C1618 C 0.86576 0.61486 0.04839 0.0
C1619 C 0.84915 0.62835 0.04991 0.0
H1620 H 0.15006 0.98865 0.00647 0.0
H1621 H 0.0951 0.94814 0.02333 0.0
H1622 H 0.17009 0.95795 0.00036 0.0
H1623 H 0.1146 0.91749 0.01582 0.0
H1624 H 0.16496 0.87043 0.03264 0.0
H1625 H 0.14287 0.90027 0.0333 0.0
H1626 H 0.17518 0.92769 0.97966 0.0
H1627 H 0.19801 0.89787 0.9795 0.0
C1628 C 0.14213 0.9732 0.00863 0.0
C1629 C 0.12104 0.97095 0.01577 0.0
C1630 C 0.15355 0.95555 0.00482 0.0
C1631 C 0.14411 0.93517 0.00785 0.0
C1632 C 0.12258 0.93293 0.01376 0.0
C1633 C 0.11124 0.95057 0.01777 0.0
C1634 C 0.16733 0.88273 0.02087 0.0
C1635 C 0.18334 0.88178 0.00606 0.0
C1636 C 0.15447 0.89983 0.02113 0.0
C1637 C 0.15709 0.91642 0.00646 0.0
C1638 C 0.17286 0.91531 0.99134 0.0
C1639 C 0.18588 0.89818 0.99117 0.0
loop_
_geom_bond_atom_site_label_1
_geom_bond_atom_site_label_2
_geom_bond_distance
_geom_bond_site_symmetry_2
_ccdc_geom_bond_type
P0 O11 1.490 . S
P0 C14 1.812 . S
P0 C20 1.803 . S
P0 C26 1.819 . S
H1 C15 0.941 . S
H2 C16 0.939 . S
H3 C18 0.940 . S
H4 C19 0.940 . S
H5 C21 0.939 . S
H6 C22 0.942 . S
H7 C24 0.940 . S
H8 C25 0.939 . S
H9 C27 0.941 . S
H10 C31 0.939 . S
O11 P0 1.490 . S
H12 C28 0.939 . S
H13 C30 0.940 . S
C14 P0 1.812 . S
C14 C15 1.389 . S
C14 C19 1.391 . S
C15 H1 0.941 . S
C15 C14 1.389 . S
C15 C16 1.397 . S
C16 H2 0.939 . S
C16 C15 1.397 . S
C16 C17 1.378 1_455 S
C17 C16 1.378 1_655 S
C17 C18 1.378 . S
C18 H3 0.940 . S
C18 C17 1.378 . S
C18 C19 1.396 1_655 S
C19 H4 0.940 . S
C19 C14 1.391 . S
C19 C18 1.396 1_455 S
C20 P0 1.803 . S
C20 C21 1.378 . S
C20 C25 1.400 . S
C21 H5 0.939 . S
C21 C20 1.378 . S
C21 C22 1.361 . S
C22 H6 0.942 . S
C22 C21 1.361 . S
C22 C23 1.369 1_545 S
C23 C22 1.369 1_565 S
C23 C24 1.404 . S
C24 H7 0.940 . S
C24 C23 1.404 . S
C24 C25 1.389 1_565 S
C25 H8 0.939 . S
C25 C20 1.400 . S
C25 C24 1.389 1_545 S
C26 P0 1.819 . S
C26 C27 1.391 . S
C26 C31 1.391 . S
C27 H9 0.941 . S
C27 C26 1.391 . S
C27 C28 1.396 . S
C28 H12 0.939 . S
C28 C27 1.396 . S
C28 C29 1.397 1_554 S
C29 C28 1.397 1_556 S
C29 C30 1.385 . S
C30 H13 0.940 . S
C30 C29 1.385 . S
C30 C31 1.388 1_556 S
C31 H10 0.939 . S
C31 C26 1.391 . S
C31 C30 1.388 1_554 S
P32 O43 1.490 . S
P32 C46 1.812 . S
P32 C52 1.803 . S
P32 C58 1.819 . S
H33 C47 0.941 . S
H34 C48 0.939 . S
H35 C50 0.940 . S
H36 C51 0.940 . S
H37 C53 0.939 . S
H38 C54 0.942 . S
H39 C56 0.940 . S
H40 C57 0.939 . S
H41 C59 0.941 . S
H42 C63 0.939 . S
O43 P32 1.490 . S
H44 C60 0.939 . S
H45 C62 0.940 . S
C46 P32 1.812 . S
C46 C47 1.389 . S
C46 C51 1.391 . S
C47 H33 0.941 . S
C47 C46 1.389 . S
C47 C48 1.397 . S
C48 H34 0.939 . S
C48 C47 1.397 . S
C48 C49 1.378 . S
C49 C48 1.378 . S
C49 C50 1.378 . S
C50 H35 0.940 . S
C50 C49 1.378 . S
C50 C51 1.396 . S
C51 H36 0.940 . S
C51 C46 1.391 . S
C51 C50 1.396 . S
C52 P32 1.803 . S
C52 C53 1.378 . S
C52 C57 1.400 . S
C53 H37 0.939 . S
C53 C52 1.378 . S
C53 C54 1.361 . S
C54 H38 0.942 . S
C54 C53 1.361 . S
C54 C55 1.369 . S
C55 C54 1.369 . S
C55 C56 1.404 . S
C56 H39 0.940 . S
C56 C55 1.404 . S
C56 C57 1.389 . S
C57 H40 0.939 . S
C57 C52 1.400 . S
C57 C56 1.389 . S
C58 P32 1.819 . S
C58 C59 1.391 . S
C58 C63 1.391 . S
C59 H41 0.941 . S
C59 C58 1.391 . S
C59 C60 1.396 . S
C60 H44 0.939 . S
C60 C59 1.396 . S
C60 C61 1.397 . S
C61 C60 1.397 . S
C61 C62 1.385 . S
C62 H45 0.940 . S
C62 C61 1.385 . S
C62 C63 1.388 . S
C63 H42 0.939 . S
C63 C58 1.391 . S
C63 C62 1.388 . S
P64 O75 1.490 1_655 S
P64 C78 1.812 . S
P64 C84 1.803 . S
P64 C90 1.819 1_655 S
H65 C79 0.933 1_455 S
H66 C80 0.938 1_455 S
H67 C82 0.940 . S
H68 C83 0.940 . S
H69 C85 0.939 . S
H70 C86 0.942 . S
H71 C88 0.940 . S
H72 C89 0.939 . S
H73 C91 0.941 . S
H74 C95 0.939 . S
O75 P64 1.490 1_455 S
H76 C92 0.939 . S
H77 C94 0.940 1_655 S
C78 P64 1.812 . S
C78 C79 1.401 1_554 S
C78 C83 1.391 . S
C79 H65 0.933 1_655 S
C79 C78 1.401 1_556 S
C79 C80 1.396 . S
C80 H66 0.938 1_655 S
C80 C79 1.396 . S
C80 C81 1.378 1_556 S
C81 C80 1.378 1_554 S
C81 C82 1.378 . S
C82 H67 0.940 . S
C82 C81 1.378 . S
C82 C83 1.396 . S
C83 H68 0.940 . S
C83 C78 1.391 . S
C83 C82 1.396 . S
C84 P64 1.803 . S
C84 C85 1.378 . S
C84 C89 1.400 . S
C85 H69 0.939 . S
C85 C84 1.378 . S
C85 C86 1.361 . S
C86 H70 0.942 . S
C86 C85 1.361 . S
C86 C87 1.369 . S
C87 C86 1.369 . S
C87 C88 1.404 . S
C88 H71 0.940 . S
C88 C87 1.404 . S
C88 C89 1.389 . S
C89 H72 0.939 . S
C89 C84 1.400 . S
C89 C88 1.389 . S
C90 P64 1.819 1_455 S
C90 C91 1.391 . S
C90 C95 1.391 1_455 S
C91 H73 0.941 . S
C91 C90 1.391 . S
C91 C92 1.396 . S
C92 H76 0.939 . S
C92 C91 1.396 . S
C92 C93 1.397 . S
C93 C92 1.397 . S
C93 C94 1.385 . S
C94 H77 0.940 1_455 S
C94 C93 1.385 . S
C94 C95 1.388 1_455 S
C95 H74 0.939 . S
C95 C90 1.391 1_655 S
C95 C94 1.388 1_655 S
P96 O107 1.490 . S
P96 C110 1.812 . S
P96 C116 1.803 . S
P96 C122 1.819 . S
H97 C111 0.941 . S
H98 C112 0.939 . S
H99 C114 0.940 . S
H100 C115 0.940 . S
H101 C117 0.939 . S
H102 C118 0.942 . S
H103 C120 0.940 . S
H104 C121 0.939 . S
H105 C123 0.941 . S
H106 C127 0.939 . S
O107 P96 1.490 . S
H108 C124 0.939 . S
H109 C126 0.940 . S
C110 P96 1.812 . S
C110 C111 1.389 . S
C110 C115 1.391 . S
C111 H97 0.941 . S
C111 C110 1.389 . S
C111 C112 1.397 . S
C112 H98 0.939 . S
C112 C111 1.397 . S
C112 C113 1.378 . S
C113 C112 1.378 . S
C113 C114 1.378 . S
C114 H99 0.940 . S
C114 C113 1.378 . S
C114 C115 1.396 . S
C115 H100 0.940 . S
C115 C110 1.391 . S
C115 C114 1.396 . S
C116 P96 1.803 . S
C116 C117 1.378 . S
C116 C121 1.400 . S
C117 H101 0.939 . S
C117 C116 1.378 . S
C117 C118 1.361 . S
C118 H102 0.942 . S
C118 C117 1.361 . S
C118 C119 1.369 . S
C119 C118 1.369 . S
C119 C120 1.404 . S
C120 H103 0.940 . S
C120 C119 1.404 . S
C120 C121 1.389 . S
C121 H104 0.939 . S
C121 C116 1.400 . S
C121 C120 1.389 . S
C122 P96 1.819 . S
C122 C123 1.391 . S
C122 C127 1.391 . S
C123 H105 0.941 . S
C123 C122 1.391 . S
C123 C124 1.396 . S
C124 H108 0.939 . S
C124 C123 1.396 . S
C124 C125 1.397 . S
C125 C124 1.397 . S
C125 C126 1.385 . S
C126 H109 0.940 . S
C126 C125 1.385 . S
C126 C127 1.388 . S
C127 H106 0.939 . S
C127 C122 1.391 . S
C127 C126 1.388 . S
P128 O139 1.490 . S
P128 C142 1.812 . S
P128 C148 1.803 . S
P128 C154 1.819 . S
H129 C143 0.941 . S
H130 C144 0.939 . S
H131 C146 0.940 . S
H132 C147 0.940 . S
H133 C149 0.939 . S
H134 C150 0.942 . S
H135 C152 0.940 . S
H136 C153 0.939 . S
H137 C155 0.941 . S
H138 C159 0.939 . S
O139 P128 1.490 . S
H140 C156 0.939 . S
H141 C158 0.940 1_655 S
C142 P128 1.812 . S
C142 C143 1.389 . S
C142 C147 1.391 . S
C143 H129 0.941 . S
C143 C142 1.389 . S
C143 C144 1.397 . S
C144 H130 0.939 . S
C144 C143 1.397 . S
C144 C145 1.378 1_565 S
C145 C144 1.378 1_545 S
C145 C146 1.378 . S
C146 H131 0.940 . S
C146 C145 1.378 . S
C146 C147 1.396 1_545 S
C147 H132 0.940 . S
C147 C142 1.391 . S
C147 C146 1.396 1_565 S
C148 P128 1.803 . S
C148 C149 1.378 . S
C148 C153 1.400 . S
C149 H133 0.939 . S
C149 C148 1.378 . S
C149 C150 1.361 . S
C150 H134 0.942 . S
C150 C149 1.361 . S
C150 C151 1.369 . S
C151 C150 1.369 . S
C151 C152 1.404 . S
C152 H135 0.940 . S
C152 C151 1.404 . S
C152 C153 1.389 . S
C153 H136 0.939 . S
C153 C148 1.400 . S
C153 C152 1.389 . S
C154 P128 1.819 . S
C154 C155 1.391 . S
C154 C159 1.391 . S
C155 H137 0.941 . S
C155 C154 1.391 . S
C155 C156 1.396 . S
C156 H140 0.939 . S
C156 C155 1.396 . S
C156 C157 1.397 . S
C157 C156 1.397 . S
C157 C158 1.385 . S
C158 H141 0.940 1_455 S
C158 C157 1.385 . S
C158 C159 1.388 . S
C159 H138 0.939 . S
C159 C154 1.391 . S
C159 C158 1.388 . S
P160 O171 1.490 . S
P160 C174 1.812 . S
P160 C180 1.803 . S
P160 C186 1.819 . S
H161 C175 0.941 . S
H162 C176 0.939 . S
H163 C178 0.940 . S
H164 C179 0.940 . S
H165 C181 0.939 . S
H166 C182 0.942 . S
H167 C184 0.940 . S
H168 C185 0.939 . S
H169 C187 0.941 . S
H170 C191 0.939 . S
O171 P160 1.490 . S
H172 C188 0.939 . S
H173 C190 0.940 . S
C174 P160 1.812 . S
C174 C175 1.389 . S
C174 C179 1.391 . S
C175 H161 0.941 . S
C175 C174 1.389 . S
C175 C176 1.397 . S
C176 H162 0.939 . S
C176 C175 1.397 . S
C176 C177 1.378 . S
C177 C176 1.378 . S
C177 C178 1.378 . S
C178 H163 0.940 . S
C178 C177 1.378 . S
C178 C179 1.396 . S
C179 H164 0.940 . S
C179 C174 1.391 . S
C179 C178 1.396 . S
C180 P160 1.803 . S
C180 C181 1.378 . S
C180 C185 1.400 . S
C181 H165 0.939 . S
C181 C180 1.378 . S
C181 C182 1.361 . S
C182 H166 0.942 . S
C182 C181 1.361 . S
C182 C183 1.369 . S
C183 C182 1.369 . S
C183 C184 1.404 . S
C184 H167 0.940 . S
C184 C183 1.404 . S
C184 C185 1.389 . S
C185 H168 0.939 . S
C185 C180 1.400 . S
C185 C184 1.389 . S
C186 P160 1.819 . S
C186 C187 1.391 . S
C186 C191 1.391 . S
C187 H169 0.941 . S
C187 C186 1.391 . S
C187 C188 1.396 . S
C188 H172 0.939 . S
C188 C187 1.396 . S
C188 C189 1.397 . S
C189 C188 1.397 . S
C189 C190 1.385 . S
C190 H173 0.940 . S
C190 C189 1.385 . S
C190 C191 1.388 . S
C191 H170 0.939 . S
C191 C186 1.391 . S
C191 C190 1.388 . S
P192 O203 1.509 . S
P192 C206 1.812 . S
P192 C212 1.803 . S
P192 C218 1.819 . S
H193 C207 0.941 . S
H194 C208 0.939 . S
H195 C210 0.940 . S
H196 C211 0.940 . S
H197 C213 0.939 . S
H198 C214 0.942 . S
H199 C216 0.940 . S
H200 C217 0.939 . S
H201 C219 0.941 . S
H202 C223 0.939 . S
O203 P192 1.509 . S
H204 C220 0.939 . S
H205 C222 0.940 . S
C206 P192 1.812 . S
C206 C207 1.389 1_655 S
C206 C211 1.391 . S
C207 H193 0.941 . S
C207 C206 1.389 1_455 S
C207 C208 1.397 . S
C208 H194 0.939 . S
C208 C207 1.397 . S
C208 C209 1.378 . S
C209 C208 1.378 . S
C209 C210 1.378 1_455 S
C210 H195 0.940 . S
C210 C209 1.378 1_655 S
C210 C211 1.396 . S
C211 H196 0.940 . S
C211 C206 1.391 . S
C211 C210 1.396 . S
C212 P192 1.803 . S
C212 C213 1.378 . S
C212 C217 1.400 . S
C213 H197 0.939 . S
C213 C212 1.378 . S
C213 C214 1.361 . S
C214 H198 0.942 . S
C214 C213 1.361 . S
C214 C215 1.369 . S
C215 C214 1.369 . S
C215 C216 1.404 . S
C216 H199 0.940 . S
C216 C215 1.404 . S
C216 C217 1.389 . S
C217 H200 0.939 . S
C217 C212 1.400 . S
C217 C216 1.389 . S
C218 P192 1.819 . S
C218 C219 1.391 . S
C218 C223 1.391 . S
C219 H201 0.941 . S
C219 C218 1.391 . S
C219 C220 1.396 . S
C220 H204 0.939 . S
C220 C219 1.396 . S
C220 C221 1.397 . S
C221 C220 1.397 . S
C221 C222 1.385 . S
C222 H205 0.940 . S
C222 C221 1.385 . S
C222 C223 1.388 . S
C223 H202 0.939 . S
C223 C218 1.391 . S
C223 C222 1.388 . S
P224 O235 1.490 . S
P224 C238 1.812 . S
P224 C244 1.803 . S
P224 C250 1.819 . S
H225 C239 0.941 . S
H226 C240 0.939 . S
H227 C242 0.940 . S
H228 C243 0.940 . S
H229 C245 0.939 . S
H230 C246 0.942 . S
H231 C248 0.940 . S
H232 C249 0.939 . S
H233 C251 0.941 . S
H234 C255 0.939 . S
O235 P224 1.490 . S
H236 C252 0.939 . S
H237 C254 0.940 . S
C238 P224 1.812 . S
C238 C239 1.389 . S
C238 C243 1.391 . S
C239 H225 0.941 . S
C239 C238 1.389 . S
C239 C240 1.397 . S
C240 H226 0.939 . S
C240 C239 1.397 . S
C240 C241 1.378 . S
C241 C240 1.378 . S
C241 C242 1.378 . S
C242 H227 0.940 . S
C242 C241 1.378 . S
C242 C243 1.396 . S
C243 H228 0.940 . S
C243 C238 1.391 . S
C243 C242 1.396 . S
C244 P224 1.803 . S
C244 C245 1.378 . S
C244 C249 1.400 . S
C245 H229 0.939 . S
C245 C244 1.378 . S
C245 C246 1.361 . S
C246 H230 0.942 . S
C246 C245 1.361 . S
C246 C247 1.369 . S
C247 C246 1.369 . S
C247 C248 1.404 . S
C248 H231 0.940 . S
C248 C247 1.404 . S
C248 C249 1.389 . S
C249 H232 0.939 . S
C249 C244 1.400 . S
C249 C248 1.389 . S
C250 P224 1.819 . S
C250 C251 1.391 . S
C250 C255 1.391 . S
C251 H233 0.941 . S
C251 C250 1.391 . S
C251 C252 1.396 . S
C252 H236 0.939 . S
C252 C251 1.396 . S
C252 C253 1.397 . S
C253 C252 1.397 . S
C253 C254 1.385 . S
C254 H237 0.940 . S
C254 C253 1.385 . S
C254 C255 1.388 . S
C255 H234 0.939 . S
C255 C250 1.391 . S
C255 C254 1.388 . S
P256 O267 1.490 . S
P256 C270 1.812 . S
P256 C276 1.803 . S
P256 C282 1.819 . S
H257 C271 0.941 . S
H258 C272 0.939 . S
H259 C274 0.940 . S
H260 C275 0.940 . S
H261 C277 0.939 . S
H262 C278 0.942 . S
H263 C280 0.940 . S
H264 C281 0.939 . S
H265 C283 0.941 . S
H266 C287 0.939 . S
O267 P256 1.490 . S
H268 C284 0.939 . S
H269 C286 0.940 . S
C270 P256 1.812 . S
C270 C271 1.389 . S
C270 C275 1.391 . S
C271 H257 0.941 . S
C271 C270 1.389 . S
C271 C272 1.397 . S
C272 H258 0.939 . S
C272 C271 1.397 . S
C272 C273 1.378 . S
C273 C272 1.378 . S
C273 C274 1.378 . S
C274 H259 0.940 . S
C274 C273 1.378 . S
C274 C275 1.396 . S
C275 H260 0.940 . S
C275 C270 1.391 . S
C275 C274 1.396 . S
C276 P256 1.803 . S
C276 C277 1.378 . S
C276 C281 1.400 . S
C277 H261 0.939 . S
C277 C276 1.378 . S
C277 C278 1.361 . S
C278 H262 0.942 . S
C278 C277 1.361 . S
C278 C279 1.369 . S
C279 C278 1.369 . S
C279 C280 1.404 . S
C280 H263 0.940 . S
C280 C279 1.404 . S
C280 C281 1.389 . S
C281 H264 0.939 . S
C281 C276 1.400 . S
C281 C280 1.389 . S
C282 P256 1.819 . S
C282 C283 1.391 . S
C282 C287 1.391 . S
C283 H265 0.941 . S
C283 C282 1.391 . S
C283 C284 1.396 . S
C284 H268 0.939 . S
C284 C283 1.396 . S
C284 C285 1.397 . S
C285 C284 1.397 . S
C285 C286 1.385 . S
C286 H269 0.940 . S
C286 C285 1.385 . S
C286 C287 1.388 . S
C287 H266 0.939 . S
C287 C282 1.391 . S
C287 C286 1.388 . S
P288 O299 1.490 1_565 S
P288 C302 1.812 . S
P288 C308 1.803 . S
P288 C314 1.819 . S
H289 C303 0.941 . S
H290 C304 0.939 . S
H291 C306 0.940 . S
H292 C307 0.940 . S
H293 C309 0.939 . S
H294 C310 0.942 . S
H295 C312 0.940 . S
H296 C313 0.939 . S
H297 C315 0.941 . S
H298 C319 0.939 . S
O299 P288 1.490 1_545 S
H300 C316 0.939 . S
H301 C318 0.940 . S
C302 P288 1.812 . S
C302 C303 1.389 . S
C302 C307 1.391 . S
C303 H289 0.941 . S
C303 C302 1.389 . S
C303 C304 1.397 . S
C304 H290 0.939 . S
C304 C303 1.397 . S
C304 C305 1.378 . S
C305 C304 1.378 . S
C305 C306 1.378 . S
C306 H291 0.940 . S
C306 C305 1.378 . S
C306 C307 1.396 . S
C307 H292 0.940 . S
C307 C302 1.391 . S
C307 C306 1.396 . S
C308 P288 1.803 . S
C308 C309 1.378 1_565 S
C308 C313 1.400 . S
C309 H293 0.939 . S
C309 C308 1.378 1_545 S
C309 C310 1.361 . S
C310 H294 0.942 . S
C310 C309 1.361 . S
C310 C311 1.369 . S
C311 C310 1.369 . S
C311 C312 1.404 1_545 S
C312 H295 0.940 . S
C312 C311 1.404 1_565 S
C312 C313 1.389 . S
C313 H296 0.939 . S
C313 C308 1.400 . S
C313 C312 1.389 . S
C314 P288 1.819 . S
C314 C315 1.391 . S
C314 C319 1.391 . S
C315 H297 0.941 . S
C315 C314 1.391 . S
C315 C316 1.396 . S
C316 H300 0.939 . S
C316 C315 1.396 . S
C316 C317 1.397 . S
C317 C316 1.397 . S
C317 C318 1.385 . S
C318 H301 0.940 . S
C318 C317 1.385 . S
C318 C319 1.388 . S
C319 H298 0.939 . S
C319 C314 1.391 . S
C319 C318 1.388 . S
P320 O331 1.490 . S
P320 C334 1.812 . S
P320 C340 1.803 . S
P320 C346 1.819 . S
H321 C335 0.941 . S
H322 C336 0.939 . S
H323 C338 0.940 . S
H324 C339 0.940 . S
H325 C341 0.939 . S
H326 C342 0.942 . S
H327 C344 0.940 . S
H328 C345 0.939 . S
H329 C347 0.941 . S
H330 C351 0.939 . S
O331 P320 1.490 . S
H332 C348 0.939 . S
H333 C350 0.940 . S
C334 P320 1.812 . S
C334 C335 1.389 . S
C334 C339 1.391 . S
C335 H321 0.941 . S
C335 C334 1.389 . S
C335 C336 1.397 . S
C336 H322 0.939 . S
C336 C335 1.397 . S
C336 C337 1.378 . S
C337 C336 1.378 . S
C337 C338 1.378 . S
C338 H323 0.940 . S
C338 C337 1.378 . S
C338 C339 1.396 . S
C339 H324 0.940 . S
C339 C334 1.391 . S
C339 C338 1.396 . S
C340 P320 1.803 . S
C340 C341 1.378 . S
C340 C345 1.400 . S
C341 H325 0.939 . S
C341 C340 1.378 . S
C341 C342 1.361 . S
C342 H326 0.942 . S
C342 C341 1.361 . S
C342 C343 1.369 . S
C343 C342 1.369 . S
C343 C344 1.404 . S
C344 H327 0.940 . S
C344 C343 1.404 . S
C344 C345 1.389 . S
C345 H328 0.939 . S
C345 C340 1.400 . S
C345 C344 1.389 . S
C346 P320 1.819 . S
C346 C347 1.391 . S
C346 C351 1.391 . S
C347 H329 0.941 . S
C347 C346 1.391 . S
C347 C348 1.396 . S
C348 H332 0.939 . S
C348 C347 1.396 . S
C348 C349 1.397 . S
C349 C348 1.397 . S
C349 C350 1.385 . S
C350 H333 0.940 . S
C350 C349 1.385 . S
C350 C351 1.388 . S
C351 H330 0.939 . S
C351 C346 1.391 . S
C351 C350 1.388 . S
P352 O363 1.490 . S
P352 C366 1.812 . S
P352 C372 1.803 . S
P352 C378 1.819 . S
H353 C367 0.941 . S
H354 C368 0.939 . S
H355 C370 0.940 . S
H356 C371 0.940 . S
H357 C373 0.939 . S
H358 C374 0.942 . S
H359 C376 0.940 . S
H360 C377 0.939 . S
H361 C379 0.941 . S
H362 C383 0.939 . S
O363 P352 1.490 . S
H364 C380 0.939 . S
H365 C382 0.940 . S
C366 P352 1.812 . S
C366 C367 1.389 . S
C366 C371 1.391 . S
C367 H353 0.941 . S
C367 C366 1.389 . S
C367 C368 1.397 . S
C368 H354 0.939 . S
C368 C367 1.397 . S
C368 C369 1.378 . S
C369 C368 1.378 . S
C369 C370 1.378 . S
C370 H355 0.940 . S
C370 C369 1.378 . S
C370 C371 1.396 . S
C371 H356 0.940 . S
C371 C366 1.391 . S
C371 C370 1.396 . S
C372 P352 1.803 . S
C372 C373 1.378 . S
C372 C377 1.400 . S
C373 H357 0.939 . S
C373 C372 1.378 . S
C373 C374 1.361 . S
C374 H358 0.942 . S
C374 C373 1.361 . S
C374 C375 1.369 . S
C375 C374 1.369 . S
C375 C376 1.404 . S
C376 H359 0.940 . S
C376 C375 1.404 . S
C376 C377 1.389 . S
C377 H360 0.939 . S
C377 C372 1.400 . S
C377 C376 1.389 . S
C378 P352 1.819 . S
C378 C379 1.391 . S
C378 C383 1.391 . S
C379 H361 0.941 . S
C379 C378 1.391 . S
C379 C380 1.396 . S
C380 H364 0.939 . S
C380 C379 1.396 . S
C380 C381 1.397 . S
C381 C380 1.397 . S
C381 C382 1.385 . S
C382 H365 0.940 . S
C382 C381 1.385 . S
C382 C383 1.388 . S
C383 H362 0.939 . S
C383 C378 1.391 . S
C383 C382 1.388 . S
P384 O395 1.490 . S
P384 C398 1.812 . S
P384 C404 1.803 . S
P384 C410 1.819 . S
H385 C399 0.941 . S
H386 C400 0.939 . S
H387 C402 0.940 . S
H388 C403 0.940 . S
H389 C405 0.939 . S
H390 C406 0.942 . S
H391 C408 0.940 . S
H392 C409 0.939 . S
H393 C411 0.941 . S
H394 C415 0.939 . S
O395 P384 1.490 . S
H396 C412 0.939 . S
H397 C414 0.940 . S
C398 P384 1.812 . S
C398 C399 1.389 . S
C398 C403 1.391 . S
C399 H385 0.941 . S
C399 C398 1.389 . S
C399 C400 1.397 . S
C400 H386 0.939 . S
C400 C399 1.397 . S
C400 C401 1.378 . S
C401 C400 1.378 . S
C401 C402 1.378 . S
C402 H387 0.940 . S
C402 C401 1.378 . S
C402 C403 1.396 . S
C403 H388 0.940 . S
C403 C398 1.391 . S
C403 C402 1.396 . S
C404 P384 1.803 . S
C404 C405 1.378 . S
C404 C409 1.400 . S
C405 H389 0.939 . S
C405 C404 1.378 . S
C405 C406 1.361 . S
C406 H390 0.942 . S
C406 C405 1.361 . S
C406 C407 1.369 . S
C407 C406 1.369 . S
C407 C408 1.404 . S
C408 H391 0.940 . S
C408 C407 1.404 . S
C408 C409 1.389 . S
C409 H392 0.939 . S
C409 C404 1.400 . S
C409 C408 1.389 . S
C410 P384 1.819 . S
C410 C411 1.391 . S
C410 C415 1.391 . S
C411 H393 0.941 . S
C411 C410 1.391 . S
C411 C412 1.396 . S
C412 H396 0.939 . S
C412 C411 1.396 . S
C412 C413 1.397 . S
C413 C412 1.397 . S
C413 C414 1.385 . S
C414 H397 0.940 . S
C414 C413 1.385 . S
C414 C415 1.388 . S
C415 H394 0.939 . S
C415 C410 1.391 . S
C415 C414 1.388 . S
P416 O427 1.490 . S
P416 C430 1.812 . S
P416 C436 1.803 . S
P416 C442 1.819 . S
H417 C431 0.941 . S
H418 C432 0.939 . S
H419 C434 0.940 . S
H420 C435 0.940 . S
H421 C437 0.939 . S
H422 C438 0.942 . S
H423 C440 0.940 . S
H424 C441 0.939 . S
H425 C443 0.941 . S
H426 C447 0.939 . S
O427 P416 1.490 . S
H428 C444 0.939 . S
H429 C446 0.940 . S
C430 P416 1.812 . S
C430 C431 1.389 . S
C430 C435 1.391 . S
C431 H417 0.941 . S
C431 C430 1.389 . S
C431 C432 1.397 . S
C432 H418 0.939 . S
C432 C431 1.397 . S
C432 C433 1.378 . S
C433 C432 1.378 . S
C433 C434 1.378 . S
C434 H419 0.940 . S
C434 C433 1.378 . S
C434 C435 1.396 . S
C435 H420 0.940 . S
C435 C430 1.391 . S
C435 C434 1.396 . S
C436 P416 1.803 . S
C436 C437 1.378 . S
C436 C441 1.400 . S
C437 H421 0.939 . S
C437 C436 1.378 . S
C437 C438 1.361 . S
C438 H422 0.942 . S
C438 C437 1.361 . S
C438 C439 1.369 1_556 S
C439 C438 1.369 1_554 S
C439 C440 1.404 . S
C440 H423 0.940 . S
C440 C439 1.404 . S
C440 C441 1.389 1_554 S
C441 H424 0.939 . S
C441 C436 1.400 . S
C441 C440 1.389 1_556 S
C442 P416 1.819 . S
C442 C443 1.391 . S
C442 C447 1.391 . S
C443 H425 0.941 . S
C443 C442 1.391 . S
C443 C444 1.396 . S
C444 H428 0.939 . S
C444 C443 1.396 . S
C444 C445 1.397 . S
C445 C444 1.397 . S
C445 C446 1.385 . S
C446 H429 0.940 . S
C446 C445 1.385 . S
C446 C447 1.388 . S
C447 H426 0.939 . S
C447 C442 1.391 . S
C447 C446 1.388 . S
P448 O459 1.490 . S
P448 C462 1.812 . S
P448 C468 1.803 . S
P448 C474 1.819 . S
H449 C463 0.941 . S
H450 C464 0.939 . S
H451 C466 0.940 . S
H452 C467 0.940 . S
H453 C469 0.939 . S
H454 C470 0.942 . S
H455 C472 0.940 . S
H456 C473 0.939 . S
H457 C475 0.941 . S
H458 C479 0.939 . S
O459 P448 1.490 . S
H460 C476 0.939 . S
H461 C478 0.940 . S
C462 P448 1.812 . S
C462 C463 1.389 . S
C462 C467 1.391 . S
C463 H449 0.941 . S
C463 C462 1.389 . S
C463 C464 1.397 . S
C464 H450 0.939 . S
C464 C463 1.397 . S
C464 C465 1.378 . S
C465 C464 1.378 . S
C465 C466 1.378 . S
C466 H451 0.940 . S
C466 C465 1.378 . S
C466 C467 1.396 . S
C467 H452 0.940 . S
C467 C462 1.391 . S
C467 C466 1.396 . S
C468 P448 1.803 . S
C468 C469 1.378 . S
C468 C473 1.400 . S
C469 H453 0.939 . S
C469 C468 1.378 . S
C469 C470 1.361 . S
C470 H454 0.942 . S
C470 C469 1.361 . S
C470 C471 1.369 . S
C471 C470 1.369 . S
C471 C472 1.404 . S
C472 H455 0.940 . S
C472 C471 1.404 . S
C472 C473 1.389 . S
C473 H456 0.939 . S
C473 C468 1.400 . S
C473 C472 1.389 . S
C474 P448 1.819 . S
C474 C475 1.391 . S
C474 C479 1.391 . S
C475 H457 0.941 . S
C475 C474 1.391 . S
C475 C476 1.396 . S
C476 H460 0.939 . S
C476 C475 1.396 . S
C476 C477 1.397 . S
C477 C476 1.397 . S
C477 C478 1.385 . S
C478 H461 0.940 . S
C478 C477 1.385 . S
C478 C479 1.388 . S
C479 H458 0.939 . S
C479 C474 1.391 . S
C479 C478 1.388 . S
P480 O491 1.490 1_556 S
P480 C494 1.812 . S
P480 C500 1.803 1_556 S
P480 C506 1.819 . S
H481 C495 0.941 . S
H482 C496 0.939 . S
H483 C498 0.940 . S
H484 C499 0.940 . S
H485 C501 0.939 . S
H486 C502 0.942 . S
H487 C504 0.940 . S
H488 C505 0.939 . S
H489 C507 0.941 . S
H490 C511 0.939 . S
O491 P480 1.490 1_554 S
H492 C508 0.939 . S
H493 C510 0.940 . S
C494 P480 1.812 . S
C494 C495 1.389 . S
C494 C499 1.391 . S
C495 H481 0.941 . S
C495 C494 1.389 . S
C495 C496 1.397 . S
C496 H482 0.939 . S
C496 C495 1.397 . S
C496 C497 1.378 . S
C497 C496 1.378 . S
C497 C498 1.378 . S
C498 H483 0.940 . S
C498 C497 1.378 . S
C498 C499 1.396 . S
C499 H484 0.940 . S
C499 C494 1.391 . S
C499 C498 1.396 . S
C500 P480 1.803 1_554 S
C500 C501 1.378 . S
C500 C505 1.400 1_554 S
C501 H485 0.939 . S
C501 C500 1.378 . S
C501 C502 1.361 . S
C502 H486 0.942 . S
C502 C501 1.361 . S
C502 C503 1.369 . S
C503 C502 1.369 . S
C503 C504 1.404 1_554 S
C504 H487 0.940 . S
C504 C503 1.404 1_556 S
C504 C505 1.389 . S
C505 H488 0.939 . S
C505 C500 1.400 1_556 S
C505 C504 1.389 . S
C506 P480 1.819 . S
C506 C507 1.391 1_545 S
C506 C511 1.391 . S
C507 H489 0.941 . S
C507 C506 1.391 1_565 S
C507 C508 1.396 . S
C508 H492 0.939 . S
C508 C507 1.396 . S
C508 C509 1.397 . S
C509 C508 1.397 . S
C509 C510 1.385 1_565 S
C510 H493 0.940 . S
C510 C509 1.385 1_545 S
C510 C511 1.388 . S
C511 H490 0.939 . S
C511 C506 1.391 . S
C511 C510 1.388 . S
Mg512 O513 2.028 . S
Mg512 O519 1.986 1_554 S
Mg512 O521 2.114 . S
Mg512 O522 2.251 . S
Mg512 O525 2.010 . S
O513 Mg512 2.028 . S
O513 C516 1.243 1_554 S
O514 Mg515 2.028 . S
O514 C516 1.253 . S
Mg515 O514 2.028 . S
Mg515 O520 2.032 . S
Mg515 O522 2.079 1_556 S
C516 O513 1.243 1_556 S
C516 O514 1.253 . S
C517 O518 1.264 . S
C517 O525 1.249 . S
O518 C517 1.264 . S
O519 Mg512 1.986 1_556 S
O519 C523 1.246 . S
O520 Mg515 2.032 . S
O520 C523 1.259 . S
O521 Mg512 2.114 . S
O521 C524 1.252 . S
O522 Mg512 2.251 . S
O522 Mg515 2.079 1_554 S
O522 C524 1.273 . S
C523 O519 1.246 . S
C523 O520 1.259 . S
C524 O521 1.252 . S
C524 O522 1.273 . S
O525 Mg512 2.010 . S
O525 C517 1.249 . S
Mg526 O527 2.028 . S
Mg526 O533 1.986 . S
Mg526 O535 2.114 . S
Mg526 O536 2.251 . S
Mg526 O539 2.010 . S
O527 Mg526 2.028 . S
O527 C530 1.250 . S
O528 Mg529 2.028 . S
O528 C530 1.248 . S
Mg529 O528 2.028 . S
Mg529 O534 2.032 . S
Mg529 O536 2.079 . S
C530 O527 1.250 . S
C530 O528 1.248 . S
C531 O532 1.264 . S
C531 O539 1.249 . S
O532 C531 1.264 . S
O533 Mg526 1.986 . S
O533 C537 1.246 . S
O534 Mg529 2.032 . S
O534 C537 1.259 . S
O535 Mg526 2.114 . S
O535 C538 1.252 . S
O536 Mg526 2.251 . S
O536 Mg529 2.079 . S
O536 C538 1.273 . S
C537 O533 1.246 . S
C537 O534 1.259 . S
C538 O535 1.252 . S
C538 O536 1.273 . S
O539 Mg526 2.010 . S
O539 C531 1.249 . S
Mg540 O541 2.028 . S
Mg540 O547 1.986 1_554 S
Mg540 O549 2.114 . S
Mg540 O550 2.251 . S
Mg540 O553 2.010 . S
O541 Mg540 2.028 . S
O541 C544 1.250 . S
O542 Mg543 2.028 1_554 S
O542 C544 1.249 . S
Mg543 O542 2.028 1_556 S
Mg543 O548 2.032 . S
Mg543 O550 2.079 1_556 S
C544 O541 1.250 . S
C544 O542 1.249 . S
C545 O546 1.264 . S
C545 O553 1.249 . S
O546 C545 1.264 . S
O547 Mg540 1.986 1_556 S
O547 C551 1.246 . S
O548 Mg543 2.032 . S
O548 C551 1.259 . S
O549 Mg540 2.114 . S
O549 C552 1.252 . S
O550 Mg540 2.251 . S
O550 Mg543 2.079 1_554 S
O550 C552 1.273 . S
C551 O547 1.246 . S
C551 O548 1.259 . S
C552 O549 1.252 . S
C552 O550 1.273 . S
O553 Mg540 2.010 . S
O553 C545 1.249 . S
Mg554 O555 2.028 . S
Mg554 O561 1.986 . S
Mg554 O563 2.114 . S
Mg554 O564 2.251 . S
Mg554 O567 2.010 . S
O555 Mg554 2.028 . S
O555 C558 1.250 1_545 S
O556 Mg557 2.028 . S
O556 C558 1.248 . S
Mg557 O556 2.028 . S
Mg557 O562 2.032 . S
Mg557 O564 2.079 1_565 S
C558 O555 1.250 1_565 S
C558 O556 1.248 . S
C559 O560 1.264 . S
C559 O567 1.249 . S
O560 C559 1.264 . S
O561 Mg554 1.986 . S
O561 C565 1.246 . S
O562 Mg557 2.032 . S
O562 C565 1.259 1_565 S
O563 Mg554 2.114 . S
O563 C566 1.252 . S
O564 Mg554 2.251 . S
O564 Mg557 2.079 1_545 S
O564 C566 1.273 . S
C565 O561 1.246 . S
C565 O562 1.259 1_545 S
C566 O563 1.252 . S
C566 O564 1.273 . S
O567 Mg554 2.010 . S
O567 C559 1.249 . S
Mg568 O569 2.028 . S
Mg568 O575 1.986 . S
Mg568 O577 2.114 . S
Mg568 O578 2.251 . S
Mg568 O581 2.010 . S
O569 Mg568 2.028 . S
O569 C572 1.250 . S
O570 Mg571 2.028 . S
O570 C572 1.248 . S
Mg571 O570 2.028 . S
Mg571 O576 2.032 . S
Mg571 O578 2.079 . S
C572 O569 1.250 . S
C572 O570 1.248 . S
C573 O574 1.264 . S
C573 O581 1.249 . S
O574 C573 1.264 . S
O575 Mg568 1.986 . S
O575 C579 1.246 . S
O576 Mg571 2.032 . S
O576 C579 1.259 . S
O577 Mg568 2.114 . S
O577 C580 1.252 . S
O578 Mg568 2.251 . S
O578 Mg571 2.079 . S
O578 C580 1.273 . S
C579 O575 1.246 . S
C579 O576 1.259 . S
C580 O577 1.252 . S
C580 O578 1.273 . S
O581 Mg568 2.010 . S
O581 C573 1.249 . S
Mg582 O583 2.028 . S
Mg582 O589 1.986 . S
Mg582 O591 2.114 . S
Mg582 O592 2.251 . S
Mg582 O595 2.010 . S
O583 Mg582 2.028 . S
O583 C586 1.250 . S
O584 Mg585 2.028 . S
O584 C586 1.248 . S
Mg585 O584 2.028 . S
Mg585 O590 2.032 . S
Mg585 O592 2.079 . S
C586 O583 1.250 . S
C586 O584 1.248 . S
C587 O588 1.264 . S
C587 O595 1.249 . S
O588 C587 1.264 . S
O589 Mg582 1.986 . S
O589 C593 1.246 . S
O590 Mg585 2.032 . S
O590 C593 1.259 . S
O591 Mg582 2.114 . S
O591 C594 1.252 . S
O592 Mg582 2.251 . S
O592 Mg585 2.079 . S
O592 C594 1.273 . S
C593 O589 1.246 . S
C593 O590 1.259 . S
C594 O591 1.252 . S
C594 O592 1.273 . S
O595 Mg582 2.010 . S
O595 C587 1.249 . S
Mg596 O597 2.028 . S
Mg596 O603 1.986 . S
Mg596 O605 2.114 . S
Mg596 O606 2.251 . S
Mg596 O609 2.010 . S
O597 Mg596 2.028 . S
O597 C600 1.250 . S
O598 Mg599 2.028 . S
O598 C600 1.248 . S
Mg599 O598 2.028 . S
Mg599 O604 2.032 . S
Mg599 O606 2.079 . S
C600 O597 1.250 . S
C600 O598 1.248 . S
C601 O602 1.264 . S
C601 O609 1.249 . S
O602 C601 1.264 . S
O603 Mg596 1.986 . S
O603 C607 1.246 . S
O604 Mg599 2.032 . S
O604 C607 1.259 . S
O605 Mg596 2.114 . S
O605 C608 1.252 . S
O606 Mg596 2.251 . S
O606 Mg599 2.079 . S
O606 C608 1.273 . S
C607 O603 1.246 . S
C607 O604 1.259 . S
C608 O605 1.252 . S
C608 O606 1.273 . S
O609 Mg596 2.010 . S
O609 C601 1.249 . S
Mg610 O611 2.028 1_545 S
Mg610 O617 1.986 1_545 S
Mg610 O619 2.114 . S
Mg610 O620 2.251 . S
Mg610 O623 2.010 . S
O611 Mg610 2.028 1_565 S
O611 C614 1.250 . S
O612 Mg613 2.028 . S
O612 C614 1.248 . S
Mg613 O612 2.028 . S
Mg613 O618 2.032 . S
Mg613 O620 2.079 1_565 S
C614 O611 1.250 . S
C614 O612 1.248 . S
C615 O616 1.264 . S
C615 O623 1.249 . S
O616 C615 1.264 . S
O617 Mg610 1.986 1_565 S
O617 C621 1.246 . S
O618 Mg613 2.032 . S
O618 C621 1.259 . S
O619 Mg610 2.114 . S
O619 C622 1.252 . S
O620 Mg610 2.251 . S
O620 Mg613 2.079 1_545 S
O620 C622 1.273 . S
C621 O617 1.246 . S
C621 O618 1.259 . S
C622 O619 1.252 . S
C622 O620 1.273 . S
O623 Mg610 2.010 . S
O623 C615 1.249 . S
Mg624 O625 2.028 . S
Mg624 O631 1.986 . S
Mg624 O633 2.114 . S
Mg624 O634 2.251 . S
Mg624 O637 2.010 . S
O625 Mg624 2.028 . S
O625 C628 1.250 1_455 S
O626 Mg627 2.028 . S
O626 C628 1.248 . S
Mg627 O626 2.028 . S
Mg627 O632 2.032 . S
Mg627 O634 2.079 1_655 S
C628 O625 1.250 1_655 S
C628 O626 1.248 . S
C629 O630 1.264 . S
C629 O637 1.249 . S
O630 C629 1.264 . S
O631 Mg624 1.986 . S
O631 C635 1.246 . S
O632 Mg627 2.032 . S
O632 C635 1.259 1_655 S
O633 Mg624 2.114 . S
O633 C636 1.252 . S
O634 Mg624 2.251 . S
O634 Mg627 2.079 1_455 S
O634 C636 1.273 . S
C635 O631 1.246 . S
C635 O632 1.259 1_455 S
C636 O633 1.252 . S
C636 O634 1.273 . S
O637 Mg624 2.010 . S
O637 C629 1.249 . S
Mg638 O639 2.028 . S
Mg638 O645 1.986 . S
Mg638 O647 2.114 . S
Mg638 O648 2.251 . S
Mg638 O651 2.010 . S
O639 Mg638 2.028 . S
O639 C642 1.250 . S
O640 Mg641 2.028 . S
O640 C642 1.248 . S
Mg641 O640 2.028 . S
Mg641 O646 2.032 . S
Mg641 O648 2.079 . S
C642 O639 1.250 . S
C642 O640 1.248 . S
C643 O644 1.264 . S
C643 O651 1.249 . S
O644 C643 1.264 . S
O645 Mg638 1.986 . S
O645 C649 1.246 . S
O646 Mg641 2.032 . S
O646 C649 1.259 . S
O647 Mg638 2.114 . S
O647 C650 1.252 . S
O648 Mg638 2.251 . S
O648 Mg641 2.079 . S
O648 C650 1.273 . S
C649 O645 1.246 . S
C649 O646 1.259 . S
C650 O647 1.252 . S
C650 O648 1.273 . S
O651 Mg638 2.010 . S
O651 C643 1.249 . S
Mg652 O653 2.028 1_655 S
Mg652 O659 1.995 . S
Mg652 O661 2.114 . S
Mg652 O662 2.251 1_655 S
Mg652 O665 2.010 . S
O653 Mg652 2.028 1_455 S
O653 C656 1.250 . S
O654 Mg655 2.028 . S
O654 C656 1.248 . S
Mg655 O654 2.028 . S
Mg655 O660 2.032 . S
Mg655 O662 2.079 . S
C656 O653 1.250 . S
C656 O654 1.248 . S
C657 O658 1.264 . S
C657 O665 1.249 . S
O658 C657 1.264 . S
O659 Mg652 1.995 . S
O659 C663 1.220 1_655 S
O660 Mg655 2.032 . S
O660 C663 1.259 . S
O661 Mg652 2.114 . S
O661 C664 1.252 . S
O662 Mg652 2.251 1_455 S
O662 Mg655 2.079 . S
O662 C664 1.273 1_455 S
C663 O659 1.220 1_455 S
C663 O660 1.259 . S
C664 O661 1.252 . S
C664 O662 1.273 1_655 S
O665 Mg652 2.010 . S
O665 C657 1.249 . S
Mg666 O667 2.028 . S
Mg666 O673 1.986 . S
Mg666 O675 2.114 . S
Mg666 O676 2.251 . S
Mg666 O679 2.010 . S
O667 Mg666 2.028 . S
O667 C670 1.250 . S
O668 Mg669 2.028 . S
O668 C670 1.248 . S
Mg669 O668 2.028 . S
Mg669 O674 2.032 . S
Mg669 O676 2.079 . S
C670 O667 1.250 . S
C670 O668 1.248 . S
C671 O672 1.264 . S
C671 O679 1.249 . S
O672 C671 1.264 . S
O673 Mg666 1.986 . S
O673 C677 1.246 . S
O674 Mg669 2.032 . S
O674 C677 1.259 . S
O675 Mg666 2.114 . S
O675 C678 1.252 . S
O676 Mg666 2.251 . S
O676 Mg669 2.079 . S
O676 C678 1.273 . S
C677 O673 1.246 . S
C677 O674 1.259 . S
C678 O675 1.252 . S
C678 O676 1.273 . S
O679 Mg666 2.010 . S
O679 C671 1.249 . S
H680 C688 0.950 . S
H681 C693 0.950 . S
H682 C690 0.950 . S
H683 C692 0.950 . S
H684 C694 0.950 . S
H685 C696 0.950 . S
H686 C698 0.950 . S
H687 C699 0.950 . S
C688 H680 0.950 . S
C688 C689 1.386 . S
C688 C690 1.391 . S
C689 C688 1.386 . S
C689 C693 1.393 . S
C690 H682 0.950 . S
C690 C688 1.391 . S
C690 C691 1.400 . S
C691 C690 1.400 . S
C691 C692 1.398 . S
C691 C697 1.491 . S
C692 H683 0.950 . S
C692 C691 1.398 . S
C692 C693 1.391 . S
C693 H681 0.950 . S
C693 C689 1.393 . S
C693 C692 1.391 . S
C694 H684 0.950 . S
C694 C695 1.386 . S
C694 C696 1.391 . S
C695 C694 1.386 . S
C695 C699 1.393 . S
C696 H685 0.950 . S
C696 C694 1.391 . S
C696 C697 1.400 . S
C697 C691 1.491 . S
C697 C696 1.400 . S
C697 C698 1.398 . S
C698 H686 0.950 . S
C698 C697 1.398 . S
C698 C699 1.391 . S
C699 H687 0.950 . S
C699 C695 1.393 . S
C699 C698 1.391 . S
H700 C708 0.950 . S
H701 C713 0.950 . S
H702 C710 0.950 . S
H703 C712 0.950 . S
H704 C714 0.950 . S
H705 C716 0.950 . S
H706 C718 0.950 . S
H707 C719 0.950 . S
C708 H700 0.950 . S
C708 C709 1.386 . S
C708 C710 1.391 . S
C709 C708 1.386 . S
C709 C713 1.393 . S
C710 H702 0.950 . S
C710 C708 1.391 . S
C710 C711 1.400 . S
C711 C710 1.400 . S
C711 C712 1.398 . S
C711 C717 1.491 . S
C712 H703 0.950 . S
C712 C711 1.398 . S
C712 C713 1.391 . S
C713 H701 0.950 . S
C713 C709 1.393 . S
C713 C712 1.391 . S
C714 H704 0.950 . S
C714 C715 1.386 . S
C714 C716 1.391 . S
C715 C714 1.386 . S
C715 C719 1.393 . S
C716 H705 0.950 . S
C716 C714 1.391 . S
C716 C717 1.400 . S
C717 C711 1.491 . S
C717 C716 1.400 . S
C717 C718 1.398 . S
C718 H706 0.950 . S
C718 C717 1.398 . S
C718 C719 1.391 . S
C719 H707 0.950 . S
C719 C715 1.393 . S
C719 C718 1.391 . S
H720 C728 0.950 . S
H721 C733 0.950 . S
H722 C730 0.950 . S
H723 C732 0.950 . S
H724 C734 0.950 . S
H725 C736 0.950 . S
H726 C738 0.950 . S
H727 C739 0.950 . S
C728 H720 0.950 . S
C728 C729 1.386 . S
C728 C730 1.391 . S
C729 C728 1.386 . S
C729 C733 1.393 . S
C730 H722 0.950 . S
C730 C728 1.391 . S
C730 C731 1.400 . S
C731 C730 1.400 . S
C731 C732 1.398 . S
C731 C737 1.491 . S
C732 H723 0.950 . S
C732 C731 1.398 . S
C732 C733 1.391 . S
C733 H721 0.950 . S
C733 C729 1.393 . S
C733 C732 1.391 . S
C734 H724 0.950 . S
C734 C735 1.386 . S
C734 C736 1.391 . S
C735 C734 1.386 . S
C735 C739 1.393 . S
C736 H725 0.950 . S
C736 C734 1.391 . S
C736 C737 1.400 . S
C737 C731 1.491 . S
C737 C736 1.400 . S
C737 C738 1.398 . S
C738 H726 0.950 . S
C738 C737 1.398 . S
C738 C739 1.391 . S
C739 H727 0.950 . S
C739 C735 1.393 . S
C739 C738 1.391 . S
H740 C748 0.950 . S
H741 C753 0.950 . S
H742 C750 0.950 . S
H743 C752 0.950 . S
H744 C754 0.950 . S
H745 C756 0.950 . S
H746 C758 0.950 . S
H747 C759 0.950 . S
C748 H740 0.950 . S
C748 C749 1.386 . S
C748 C750 1.391 . S
C749 C748 1.386 . S
C749 C753 1.393 1_565 S
C750 H742 0.950 . S
C750 C748 1.391 . S
C750 C751 1.400 . S
C751 C750 1.400 . S
C751 C752 1.398 1_565 S
C751 C757 1.491 . S
C752 H743 0.950 . S
C752 C751 1.398 1_545 S
C752 C753 1.391 . S
C753 H741 0.950 . S
C753 C749 1.393 1_545 S
C753 C752 1.391 . S
C754 H744 0.950 . S
C754 C755 1.386 . S
C754 C756 1.391 . S
C755 C754 1.386 . S
C755 C759 1.393 1_545 S
C756 H745 0.950 . S
C756 C754 1.391 . S
C756 C757 1.400 1_545 S
C757 C751 1.491 . S
C757 C756 1.400 1_565 S
C757 C758 1.398 . S
C758 H746 0.950 . S
C758 C757 1.398 . S
C758 C759 1.391 . S
C759 H747 0.950 . S
C759 C755 1.393 1_565 S
C759 C758 1.391 . S
H760 C768 0.950 . S
H761 C773 0.950 . S
H762 C770 0.950 . S
H763 C772 0.950 . S
H764 C774 0.950 . S
H765 C776 0.950 . S
H766 C778 0.950 . S
H767 C779 0.950 . S
C768 H760 0.950 . S
C768 C769 1.386 . S
C768 C770 1.391 . S
C769 C768 1.386 . S
C769 C773 1.393 . S
C770 H762 0.950 . S
C770 C768 1.391 . S
C770 C771 1.400 . S
C771 C770 1.400 . S
C771 C772 1.398 . S
C771 C777 1.491 . S
C772 H763 0.950 . S
C772 C771 1.398 . S
C772 C773 1.391 . S
C773 H761 0.950 . S
C773 C769 1.393 . S
C773 C772 1.391 . S
C774 H764 0.950 . S
C774 C775 1.386 . S
C774 C776 1.391 . S
C775 C774 1.386 . S
C775 C779 1.393 . S
C776 H765 0.950 . S
C776 C774 1.391 . S
C776 C777 1.400 . S
C777 C771 1.491 . S
C777 C776 1.400 . S
C777 C778 1.398 . S
C778 H766 0.950 . S
C778 C777 1.398 . S
C778 C779 1.391 . S
C779 H767 0.950 . S
C779 C775 1.393 . S
C779 C778 1.391 . S
H780 C788 0.950 . S
H781 C793 0.950 . S
H782 C790 0.950 . S
H783 C792 0.950 . S
H784 C794 0.950 . S
H785 C796 0.950 . S
H786 C798 0.950 . S
H787 C799 0.950 . S
C788 H780 0.950 . S
C788 C789 1.386 . S
C788 C790 1.391 . S
C789 C788 1.386 . S
C789 C793 1.393 . S
C790 H782 0.950 . S
C790 C788 1.391 . S
C790 C791 1.400 . S
C791 C790 1.400 . S
C791 C792 1.398 . S
C791 C797 1.491 . S
C792 H783 0.950 . S
C792 C791 1.398 . S
C792 C793 1.391 . S
C793 H781 0.950 . S
C793 C789 1.393 . S
C793 C792 1.391 . S
C794 H784 0.950 . S
C794 C795 1.386 . S
C794 C796 1.391 . S
C795 C794 1.386 . S
C795 C799 1.393 . S
C796 H785 0.950 . S
C796 C794 1.391 . S
C796 C797 1.400 . S
C797 C791 1.491 . S
C797 C796 1.400 . S
C797 C798 1.398 . S
C798 H786 0.950 . S
C798 C797 1.398 . S
C798 C799 1.391 . S
C799 H787 0.950 . S
C799 C795 1.393 . S
C799 C798 1.391 . S
H800 C808 0.950 . S
H801 C813 0.950 . S
H802 C810 0.950 . S
H803 C812 0.950 . S
H804 C814 0.950 . S
H805 C816 0.950 . S
H806 C818 0.950 . S
H807 C819 0.950 . S
C808 H800 0.950 . S
C808 C809 1.386 . S
C808 C810 1.391 . S
C809 C808 1.386 . S
C809 C813 1.393 . S
C810 H802 0.950 . S
C810 C808 1.391 . S
C810 C811 1.400 . S
C811 C810 1.400 . S
C811 C812 1.398 . S
C811 C817 1.491 . S
C812 H803 0.950 . S
C812 C811 1.398 . S
C812 C813 1.391 . S
C813 H801 0.950 . S
C813 C809 1.393 . S
C813 C812 1.391 . S
C814 H804 0.950 . S
C814 C815 1.386 . S
C814 C816 1.391 . S
C815 C814 1.386 . S
C815 C819 1.393 . S
C816 H805 0.950 . S
C816 C814 1.391 . S
C816 C817 1.400 . S
C817 C811 1.491 . S
C817 C816 1.400 . S
C817 C818 1.398 . S
C818 H806 0.950 . S
C818 C817 1.398 . S
C818 C819 1.391 . S
C819 H807 0.950 . S
C819 C815 1.393 . S
C819 C818 1.391 . S
H820 C828 0.937 1_545 S
H821 C833 0.950 . S
H822 C830 0.950 1_545 S
H823 C832 0.950 . S
H824 C834 0.950 . S
H825 C836 0.950 . S
H826 C838 0.960 . S
H827 C839 0.950 . S
C828 H820 0.937 1_565 S
C828 C829 1.386 . S
C828 C830 1.391 . S
C829 C828 1.386 . S
C829 C833 1.393 . S
C830 H822 0.950 1_565 S
C830 C828 1.391 . S
C830 C831 1.400 . S
C831 C830 1.400 . S
C831 C832 1.398 . S
C831 C837 1.491 . S
C832 H823 0.950 . S
C832 C831 1.398 . S
C832 C833 1.391 . S
C833 H821 0.950 . S
C833 C829 1.393 . S
C833 C832 1.391 . S
C834 H824 0.950 . S
C834 C835 1.386 . S
C834 C836 1.391 . S
C835 C834 1.386 . S
C835 C839 1.393 1_565 S
C836 H825 0.950 . S
C836 C834 1.391 . S
C836 C837 1.400 . S
C837 C831 1.491 . S
C837 C836 1.400 . S
C837 C838 1.386 1_565 S
C838 H826 0.960 . S
C838 C837 1.386 1_545 S
C838 C839 1.393 . S
C839 H827 0.950 . S
C839 C835 1.393 1_545 S
C839 C838 1.393 . S
H840 C848 0.950 . S
H841 C853 0.950 . S
H842 C850 0.950 . S
H843 C852 0.950 . S
H844 C854 0.950 . S
H845 C856 0.950 . S
H846 C858 0.950 . S
H847 C859 0.950 . S
C848 H840 0.950 . S
C848 C849 1.386 . S
C848 C850 1.391 . S
C849 C848 1.386 . S
C849 C853 1.393 . S
C850 H842 0.950 . S
C850 C848 1.391 . S
C850 C851 1.400 . S
C851 C850 1.400 . S
C851 C852 1.398 . S
C851 C857 1.491 . S
C852 H843 0.950 . S
C852 C851 1.398 . S
C852 C853 1.391 . S
C853 H841 0.950 . S
C853 C849 1.393 . S
C853 C852 1.391 . S
C854 H844 0.950 . S
C854 C855 1.386 . S
C854 C856 1.391 . S
C855 C854 1.386 . S
C855 C859 1.393 . S
C856 H845 0.950 . S
C856 C854 1.391 . S
C856 C857 1.400 . S
C857 C851 1.491 . S
C857 C856 1.400 . S
C857 C858 1.398 . S
C858 H846 0.950 . S
C858 C857 1.398 . S
C858 C859 1.391 . S
C859 H847 0.950 . S
C859 C855 1.393 . S
C859 C858 1.391 . S
H860 C868 0.950 . S
H861 C873 0.950 . S
H862 C870 0.950 . S
H863 C872 0.950 . S
H864 C874 0.950 . S
H865 C876 0.950 . S
H866 C878 0.950 . S
H867 C879 0.950 . S
C868 H860 0.950 . S
C868 C869 1.386 . S
C868 C870 1.391 . S
C869 C868 1.386 . S
C869 C873 1.393 . S
C870 H862 0.950 . S
C870 C868 1.391 . S
C870 C871 1.400 . S
C871 C870 1.400 . S
C871 C872 1.398 . S
C871 C877 1.491 . S
C872 H863 0.950 . S
C872 C871 1.398 . S
C872 C873 1.391 . S
C873 H861 0.950 . S
C873 C869 1.393 . S
C873 C872 1.391 . S
C874 H864 0.950 . S
C874 C875 1.386 . S
C874 C876 1.391 . S
C875 C874 1.386 . S
C875 C879 1.393 . S
C876 H865 0.950 . S
C876 C874 1.391 . S
C876 C877 1.400 . S
C877 C871 1.491 . S
C877 C876 1.400 . S
C877 C878 1.398 . S
C878 H866 0.950 . S
C878 C877 1.398 . S
C878 C879 1.391 . S
C879 H867 0.950 . S
C879 C875 1.393 . S
C879 C878 1.391 . S
H880 C888 0.950 . S
H881 C893 0.950 . S
H882 C890 0.950 . S
H883 C892 0.950 . S
H884 C894 0.950 . S
H885 C896 0.950 . S
H886 C898 0.950 . S
H887 C899 0.950 . S
C888 H880 0.950 . S
C888 C889 1.386 . S
C888 C890 1.391 . S
C889 C888 1.386 . S
C889 C893 1.393 . S
C890 H882 0.950 . S
C890 C888 1.391 . S
C890 C891 1.400 . S
C891 C890 1.400 . S
C891 C892 1.398 . S
C891 C897 1.491 . S
C892 H883 0.950 . S
C892 C891 1.398 . S
C892 C893 1.391 . S
C893 H881 0.950 . S
C893 C889 1.393 . S
C893 C892 1.391 . S
C894 H884 0.950 . S
C894 C895 1.386 . S
C894 C896 1.391 . S
C895 C894 1.386 . S
C895 C899 1.393 . S
C896 H885 0.950 . S
C896 C894 1.391 . S
C896 C897 1.400 . S
C897 C891 1.491 . S
C897 C896 1.400 . S
C897 C898 1.398 . S
C898 H886 0.950 . S
C898 C897 1.398 . S
C898 C899 1.391 . S
C899 H887 0.950 . S
C899 C895 1.393 . S
C899 C898 1.391 . S
H900 C908 0.950 . S
H901 C913 0.950 . S
H902 C910 0.950 . S
H903 C912 0.950 . S
H904 C914 0.950 . S
H905 C916 0.950 . S
H906 C918 0.950 . S
H907 C919 0.950 . S
C908 H900 0.950 . S
C908 C909 1.386 . S
C908 C910 1.391 . S
C909 C908 1.386 . S
C909 C913 1.393 . S
C910 H902 0.950 . S
C910 C908 1.391 . S
C910 C911 1.400 . S
C911 C910 1.400 . S
C911 C912 1.398 . S
C911 C917 1.491 . S
C912 H903 0.950 . S
C912 C911 1.398 . S
C912 C913 1.391 . S
C913 H901 0.950 . S
C913 C909 1.393 . S
C913 C912 1.391 . S
C914 H904 0.950 . S
C914 C915 1.386 . S
C914 C916 1.391 . S
C915 C914 1.386 . S
C915 C919 1.393 . S
C916 H905 0.950 . S
C916 C914 1.391 . S
C916 C917 1.400 . S
C917 C911 1.491 . S
C917 C916 1.400 . S
C917 C918 1.398 . S
C918 H906 0.950 . S
C918 C917 1.398 . S
C918 C919 1.391 . S
C919 H907 0.950 . S
C919 C915 1.393 . S
C919 C918 1.391 . S
H920 C928 0.950 . S
H921 C933 0.950 . S
H922 C930 0.950 . S
H923 C932 0.950 . S
H924 C934 0.950 . S
H925 C936 0.950 . S
H926 C938 0.950 . S
H927 C939 0.950 . S
C928 H920 0.950 . S
C928 C929 1.386 . S
C928 C930 1.391 . S
C929 C928 1.386 . S
C929 C933 1.393 . S
C930 H922 0.950 . S
C930 C928 1.391 . S
C930 C931 1.400 . S
C931 C930 1.400 . S
C931 C932 1.398 . S
C931 C937 1.491 . S
C932 H923 0.950 . S
C932 C931 1.398 . S
C932 C933 1.391 . S
C933 H921 0.950 . S
C933 C929 1.393 . S
C933 C932 1.391 . S
C934 H924 0.950 . S
C934 C935 1.386 . S
C934 C936 1.391 . S
C935 C934 1.386 . S
C935 C939 1.393 . S
C936 H925 0.950 . S
C936 C934 1.391 . S
C936 C937 1.400 . S
C937 C931 1.491 . S
C937 C936 1.400 . S
C937 C938 1.398 . S
C938 H926 0.950 . S
C938 C937 1.398 . S
C938 C939 1.391 . S
C939 H927 0.950 . S
C939 C935 1.393 . S
C939 C938 1.391 . S
H940 C948 0.950 . S
H941 C953 0.950 . S
H942 C950 0.950 1_655 S
H943 C952 0.950 . S
H944 C954 0.950 . S
H945 C956 0.950 . S
H946 C958 0.950 1_655 S
H947 C959 0.950 . S
C948 H940 0.950 . S
C948 C949 1.386 . S
C948 C950 1.391 . S
C949 C948 1.386 . S
C949 C953 1.393 . S
C950 H942 0.950 1_455 S
C950 C948 1.391 . S
C950 C951 1.400 . S
C951 C950 1.400 . S
C951 C952 1.398 . S
C951 C957 1.491 . S
C952 H943 0.950 . S
C952 C951 1.398 . S
C952 C953 1.391 . S
C953 H941 0.950 . S
C953 C949 1.393 . S
C953 C952 1.391 . S
C954 H944 0.950 . S
C954 C955 1.386 . S
C954 C956 1.391 . S
C955 C954 1.386 . S
C955 C959 1.393 1_455 S
C956 H945 0.950 . S
C956 C954 1.391 . S
C956 C957 1.400 . S
C957 C951 1.491 . S
C957 C956 1.400 . S
C957 C958 1.398 . S
C958 H946 0.950 1_455 S
C958 C957 1.398 . S
C958 C959 1.391 1_455 S
C959 H947 0.950 . S
C959 C955 1.393 1_655 S
C959 C958 1.391 1_655 S
H960 C968 0.950 . S
H961 C973 0.950 . S
H962 C970 0.950 . S
H963 C972 0.950 . S
H964 C974 0.950 . S
H965 C976 0.950 . S
H966 C978 0.950 . S
H967 C979 0.950 . S
C968 H960 0.950 . S
C968 C969 1.386 . S
C968 C970 1.391 . S
C969 C968 1.386 . S
C969 C973 1.393 . S
C970 H962 0.950 . S
C970 C968 1.391 . S
C970 C971 1.400 . S
C971 C970 1.400 . S
C971 C972 1.398 . S
C971 C977 1.491 . S
C972 H963 0.950 . S
C972 C971 1.398 . S
C972 C973 1.391 . S
C973 H961 0.950 . S
C973 C969 1.393 . S
C973 C972 1.391 . S
C974 H964 0.950 . S
C974 C975 1.386 . S
C974 C976 1.391 . S
C975 C974 1.386 . S
C975 C979 1.393 . S
C976 H965 0.950 . S
C976 C974 1.391 . S
C976 C977 1.400 . S
C977 C971 1.491 . S
C977 C976 1.400 . S
C977 C978 1.398 . S
C978 H966 0.950 . S
C978 C977 1.398 . S
C978 C979 1.391 . S
C979 H967 0.950 . S
C979 C975 1.393 . S
C979 C978 1.391 . S
H980 C988 0.972 . S
H981 C993 0.950 . S
H982 C990 0.950 1_455 S
H983 C992 0.950 . S
H984 C994 0.950 . S
H985 C996 0.950 . S
H986 C998 0.950 . S
H987 C999 0.950 . S
C988 H980 0.972 . S
C988 C989 1.386 . S
C988 C990 1.391 . S
C989 C988 1.386 . S
C989 C993 1.393 . S
C990 H982 0.950 1_655 S
C990 C988 1.391 . S
C990 C991 1.400 . S
C991 C990 1.400 . S
C991 C992 1.398 . S
C991 C997 1.491 . S
C992 H983 0.950 . S
C992 C991 1.398 . S
C992 C993 1.391 . S
C993 H981 0.950 . S
C993 C989 1.393 . S
C993 C992 1.391 . S
C994 H984 0.950 . S
C994 C995 1.386 . S
C994 C996 1.391 . S
C995 C994 1.386 . S
C995 C999 1.393 1_655 S
C996 H985 0.950 . S
C996 C994 1.391 . S
C996 C997 1.400 . S
C997 C991 1.491 . S
C997 C996 1.400 . S
C997 C998 1.398 1_655 S
C998 H986 0.950 . S
C998 C997 1.398 1_455 S
C998 C999 1.391 . S
C999 H987 0.950 . S
C999 C995 1.393 1_455 S
C999 C998 1.391 . S
H1000 C1008 0.950 . S
H1001 C1013 0.950 . S
H1002 C1010 0.950 . S
H1003 C1012 0.950 . S
H1004 C1014 0.950 . S
H1005 C1016 0.950 . S
H1006 C1018 0.950 . S
H1007 C1019 0.950 . S
C1008 H1000 0.950 . S
C1008 C1009 1.386 . S
C1008 C1010 1.391 . S
C1009 C1008 1.386 . S
C1009 C1013 1.393 . S
C1010 H1002 0.950 . S
C1010 C1008 1.391 . S
C1010 C1011 1.400 . S
C1011 C1010 1.400 . S
C1011 C1012 1.398 . S
C1011 C1017 1.491 . S
C1012 H1003 0.950 . S
C1012 C1011 1.398 . S
C1012 C1013 1.391 . S
C1013 H1001 0.950 . S
C1013 C1009 1.393 . S
C1013 C1012 1.391 . S
C1014 H1004 0.950 . S
C1014 C1015 1.386 . S
C1014 C1016 1.391 . S
C1015 C1014 1.386 . S
C1015 C1019 1.393 . S
C1016 H1005 0.950 . S
C1016 C1014 1.391 . S
C1016 C1017 1.400 . S
C1017 C1011 1.491 . S
C1017 C1016 1.400 . S
C1017 C1018 1.398 . S
C1018 H1006 0.950 . S
C1018 C1017 1.398 . S
C1018 C1019 1.391 . S
C1019 H1007 0.950 . S
C1019 C1015 1.393 . S
C1019 C1018 1.391 . S
H1020 C1028 0.950 . S
H1021 C1033 0.950 . S
H1022 C1030 0.950 . S
H1023 C1032 0.950 . S
H1024 C1034 0.950 . S
H1025 C1036 0.950 . S
H1026 C1038 0.950 . S
H1027 C1039 0.950 . S
C1028 H1020 0.950 . S
C1028 C1029 1.386 . S
C1028 C1030 1.391 . S
C1029 C1028 1.386 . S
C1029 C1033 1.393 . S
C1030 H1022 0.950 . S
C1030 C1028 1.391 . S
C1030 C1031 1.400 . S
C1031 C1030 1.400 . S
C1031 C1032 1.398 . S
C1031 C1037 1.491 . S
C1032 H1023 0.950 . S
C1032 C1031 1.398 . S
C1032 C1033 1.391 . S
C1033 H1021 0.950 . S
C1033 C1029 1.393 . S
C1033 C1032 1.391 . S
C1034 H1024 0.950 . S
C1034 C1035 1.386 . S
C1034 C1036 1.391 . S
C1035 C1034 1.386 . S
C1035 C1039 1.393 . S
C1036 H1025 0.950 . S
C1036 C1034 1.391 . S
C1036 C1037 1.400 . S
C1037 C1031 1.491 . S
C1037 C1036 1.400 . S
C1037 C1038 1.398 . S
C1038 H1026 0.950 . S
C1038 C1037 1.398 . S
C1038 C1039 1.391 . S
C1039 H1027 0.950 . S
C1039 C1035 1.393 . S
C1039 C1038 1.391 . S
H1040 C1048 0.950 . S
H1041 C1053 0.950 . S
H1042 C1050 0.950 . S
H1043 C1052 0.950 . S
H1044 C1054 0.950 . S
H1045 C1056 0.950 . S
H1046 C1058 0.950 . S
H1047 C1059 0.950 . S
C1048 H1040 0.950 . S
C1048 C1049 1.386 . S
C1048 C1050 1.391 . S
C1049 C1048 1.386 . S
C1049 C1053 1.393 1_556 S
C1050 H1042 0.950 . S
C1050 C1048 1.391 . S
C1050 C1051 1.400 . S
C1051 C1050 1.400 . S
C1051 C1052 1.398 1_556 S
C1051 C1057 1.491 . S
C1052 H1043 0.950 . S
C1052 C1051 1.398 1_554 S
C1052 C1053 1.391 . S
C1053 H1041 0.950 . S
C1053 C1049 1.393 1_554 S
C1053 C1052 1.391 . S
C1054 H1044 0.950 . S
C1054 C1055 1.386 1_554 S
C1054 C1056 1.391 . S
C1055 C1054 1.386 1_556 S
C1055 C1059 1.393 . S
C1056 H1045 0.950 . S
C1056 C1054 1.391 . S
C1056 C1057 1.400 1_554 S
C1057 C1051 1.491 . S
C1057 C1056 1.400 1_556 S
C1057 C1058 1.398 . S
C1058 H1046 0.950 . S
C1058 C1057 1.398 . S
C1058 C1059 1.391 . S
C1059 H1047 0.950 . S
C1059 C1055 1.393 . S
C1059 C1058 1.391 . S
H1060 C1068 0.950 . S
H1061 C1073 0.950 . S
H1062 C1070 0.950 . S
H1063 C1072 0.950 . S
H1064 C1074 0.950 . S
H1065 C1076 0.950 . S
H1066 C1078 0.950 . S
H1067 C1079 0.950 . S
C1068 H1060 0.950 . S
C1068 C1069 1.386 . S
C1068 C1070 1.391 . S
C1069 C1068 1.386 . S
C1069 C1073 1.393 . S
C1070 H1062 0.950 . S
C1070 C1068 1.391 . S
C1070 C1071 1.400 . S
C1071 C1070 1.400 . S
C1071 C1072 1.398 . S
C1071 C1077 1.491 . S
C1072 H1063 0.950 . S
C1072 C1071 1.398 . S
C1072 C1073 1.391 . S
C1073 H1061 0.950 . S
C1073 C1069 1.393 . S
C1073 C1072 1.391 . S
C1074 H1064 0.950 . S
C1074 C1075 1.386 . S
C1074 C1076 1.391 . S
C1075 C1074 1.386 . S
C1075 C1079 1.393 . S
C1076 H1065 0.950 . S
C1076 C1074 1.391 . S
C1076 C1077 1.400 . S
C1077 C1071 1.491 . S
C1077 C1076 1.400 . S
C1077 C1078 1.398 . S
C1078 H1066 0.950 . S
C1078 C1077 1.398 . S
C1078 C1079 1.391 . S
C1079 H1067 0.950 . S
C1079 C1075 1.393 . S
C1079 C1078 1.391 . S
H1080 C1088 0.950 . S
H1081 C1093 0.950 . S
H1082 C1090 0.950 . S
H1083 C1092 0.950 . S
H1084 C1094 0.950 . S
H1085 C1096 0.950 . S
H1086 C1098 0.950 . S
H1087 C1099 0.950 . S
C1088 H1080 0.950 . S
C1088 C1089 1.386 . S
C1088 C1090 1.391 . S
C1089 C1088 1.386 . S
C1089 C1093 1.393 . S
C1090 H1082 0.950 . S
C1090 C1088 1.391 . S
C1090 C1091 1.400 . S
C1091 C1090 1.400 . S
C1091 C1092 1.398 . S
C1091 C1097 1.491 . S
C1092 H1083 0.950 . S
C1092 C1091 1.398 . S
C1092 C1093 1.391 . S
C1093 H1081 0.950 . S
C1093 C1089 1.393 . S
C1093 C1092 1.391 . S
C1094 H1084 0.950 . S
C1094 C1095 1.386 . S
C1094 C1096 1.391 . S
C1095 C1094 1.386 . S
C1095 C1099 1.393 . S
C1096 H1085 0.950 . S
C1096 C1094 1.391 . S
C1096 C1097 1.400 . S
C1097 C1091 1.491 . S
C1097 C1096 1.400 . S
C1097 C1098 1.398 . S
C1098 H1086 0.950 . S
C1098 C1097 1.398 . S
C1098 C1099 1.391 . S
C1099 H1087 0.950 . S
C1099 C1095 1.393 . S
C1099 C1098 1.391 . S
H1100 C1108 0.950 . S
H1101 C1113 0.950 . S
H1102 C1110 0.950 . S
H1103 C1112 0.950 . S
H1104 C1114 0.950 . S
H1105 C1116 0.950 . S
H1106 C1118 0.950 . S
H1107 C1119 0.950 . S
C1108 H1100 0.950 . S
C1108 C1109 1.386 . S
C1108 C1110 1.391 . S
C1109 C1108 1.386 . S
C1109 C1113 1.393 . S
C1110 H1102 0.950 . S
C1110 C1108 1.391 . S
C1110 C1111 1.400 . S
C1111 C1110 1.400 . S
C1111 C1112 1.398 . S
C1111 C1117 1.491 . S
C1112 H1103 0.950 . S
C1112 C1111 1.398 . S
C1112 C1113 1.391 . S
C1113 H1101 0.950 . S
C1113 C1109 1.393 . S
C1113 C1112 1.391 . S
C1114 H1104 0.950 . S
C1114 C1115 1.386 . S
C1114 C1116 1.391 . S
C1115 C1114 1.386 . S
C1115 C1119 1.393 . S
C1116 H1105 0.950 . S
C1116 C1114 1.391 . S
C1116 C1117 1.400 . S
C1117 C1111 1.491 . S
C1117 C1116 1.400 . S
C1117 C1118 1.398 . S
C1118 H1106 0.950 . S
C1118 C1117 1.398 . S
C1118 C1119 1.391 . S
C1119 H1107 0.950 . S
C1119 C1115 1.393 . S
C1119 C1118 1.391 . S
H1120 C1128 0.960 . S
H1121 C1133 0.950 . S
H1122 C1130 0.950 . S
H1123 C1132 0.950 . S
H1124 C1134 0.950 . S
H1125 C1136 0.950 . S
H1126 C1138 0.950 . S
H1127 C1139 0.950 . S
C1128 H1120 0.960 . S
C1128 C1129 1.386 . S
C1128 C1130 1.391 . S
C1129 C1128 1.386 . S
C1129 C1133 1.393 . S
C1130 H1122 0.950 . S
C1130 C1128 1.391 . S
C1130 C1131 1.400 . S
C1131 C1130 1.400 . S
C1131 C1132 1.398 . S
C1131 C1137 1.491 . S
C1132 H1123 0.950 . S
C1132 C1131 1.398 . S
C1132 C1133 1.391 . S
C1133 H1121 0.950 . S
C1133 C1129 1.393 . S
C1133 C1132 1.391 . S
C1134 H1124 0.950 . S
C1134 C1135 1.386 . S
C1134 C1136 1.391 . S
C1135 C1134 1.386 . S
C1135 C1139 1.393 . S
C1136 H1125 0.950 . S
C1136 C1134 1.391 . S
C1136 C1137 1.400 . S
C1137 C1131 1.491 . S
C1137 C1136 1.400 . S
C1137 C1138 1.398 . S
C1138 H1126 0.950 . S
C1138 C1137 1.398 . S
C1138 C1139 1.391 . S
C1139 H1127 0.950 . S
C1139 C1135 1.393 . S
C1139 C1138 1.391 . S
H1140 C1148 0.950 . S
H1141 C1153 0.950 . S
H1142 C1150 0.950 . S
H1143 C1152 0.950 . S
H1144 C1154 0.950 . S
H1145 C1156 0.950 . S
H1146 C1158 0.950 . S
H1147 C1159 0.950 . S
C1148 H1140 0.950 . S
C1148 C1149 1.386 . S
C1148 C1150 1.391 . S
C1149 C1148 1.386 . S
C1149 C1153 1.393 . S
C1150 H1142 0.950 . S
C1150 C1148 1.391 . S
C1150 C1151 1.400 . S
C1151 C1150 1.400 . S
C1151 C1152 1.398 . S
C1151 C1157 1.491 . S
C1152 H1143 0.950 . S
C1152 C1151 1.398 . S
C1152 C1153 1.391 . S
C1153 H1141 0.950 . S
C1153 C1149 1.393 . S
C1153 C1152 1.391 . S
C1154 H1144 0.950 . S
C1154 C1155 1.386 . S
C1154 C1156 1.391 . S
C1155 C1154 1.386 . S
C1155 C1159 1.393 . S
C1156 H1145 0.950 . S
C1156 C1154 1.391 . S
C1156 C1157 1.400 . S
C1157 C1151 1.491 . S
C1157 C1156 1.400 . S
C1157 C1158 1.398 . S
C1158 H1146 0.950 . S
C1158 C1157 1.398 . S
C1158 C1159 1.391 . S
C1159 H1147 0.950 . S
C1159 C1155 1.393 . S
C1159 C1158 1.391 . S
H1160 C1168 0.950 . S
H1161 C1173 0.950 . S
H1162 C1170 0.950 . S
H1163 C1172 0.950 . S
H1164 C1174 0.950 . S
H1165 C1176 0.950 . S
H1166 C1178 0.950 . S
H1167 C1179 0.950 . S
C1168 H1160 0.950 . S
C1168 C1169 1.386 . S
C1168 C1170 1.391 . S
C1169 C1168 1.386 . S
C1169 C1173 1.393 . S
C1170 H1162 0.950 . S
C1170 C1168 1.391 . S
C1170 C1171 1.400 . S
C1171 C1170 1.400 . S
C1171 C1172 1.398 . S
C1171 C1177 1.491 . S
C1172 H1163 0.950 . S
C1172 C1171 1.398 . S
C1172 C1173 1.391 . S
C1173 H1161 0.950 . S
C1173 C1169 1.393 . S
C1173 C1172 1.391 . S
C1174 H1164 0.950 . S
C1174 C1175 1.386 . S
C1174 C1176 1.391 . S
C1175 C1174 1.386 . S
C1175 C1179 1.393 . S
C1176 H1165 0.950 . S
C1176 C1174 1.391 . S
C1176 C1177 1.400 . S
C1177 C1171 1.491 . S
C1177 C1176 1.400 . S
C1177 C1178 1.398 . S
C1178 H1166 0.950 . S
C1178 C1177 1.398 . S
C1178 C1179 1.391 . S
C1179 H1167 0.950 . S
C1179 C1175 1.393 . S
C1179 C1178 1.391 . S
H1180 C1188 0.950 1_565 S
H1181 C1193 0.950 . S
H1182 C1190 0.918 1_565 S
H1183 C1192 0.950 . S
H1184 C1194 0.950 . S
H1185 C1196 0.950 . S
H1186 C1198 0.950 . S
H1187 C1199 0.950 . S
C1188 H1180 0.950 1_545 S
C1188 C1189 1.386 . S
C1188 C1190 1.398 . S
C1189 C1188 1.386 . S
C1189 C1193 1.393 . S
C1190 H1182 0.918 1_545 S
C1190 C1188 1.398 . S
C1190 C1191 1.426 . S
C1191 C1190 1.426 . S
C1191 C1192 1.398 . S
C1191 C1197 1.491 . S
C1192 H1183 0.950 . S
C1192 C1191 1.398 . S
C1192 C1193 1.391 . S
C1193 H1181 0.950 . S
C1193 C1189 1.393 . S
C1193 C1192 1.391 . S
C1194 H1184 0.950 . S
C1194 C1195 1.386 . S
C1194 C1196 1.391 . S
C1195 C1194 1.386 . S
C1195 C1199 1.393 1_545 S
C1196 H1185 0.950 . S
C1196 C1194 1.391 . S
C1196 C1197 1.400 . S
C1197 C1191 1.491 . S
C1197 C1196 1.400 . S
C1197 C1198 1.398 1_545 S
C1198 H1186 0.950 . S
C1198 C1197 1.398 1_565 S
C1198 C1199 1.391 . S
C1199 H1187 0.950 . S
C1199 C1195 1.393 1_565 S
C1199 C1198 1.391 . S
H1200 C1208 0.950 . S
H1201 C1213 0.950 . S
H1202 C1210 0.950 . S
H1203 C1212 0.950 . S
H1204 C1214 0.950 . S
H1205 C1216 0.950 . S
H1206 C1218 0.950 . S
H1207 C1219 0.950 . S
C1208 H1200 0.950 . S
C1208 C1209 1.386 . S
C1208 C1210 1.391 . S
C1209 C1208 1.386 . S
C1209 C1213 1.393 . S
C1210 H1202 0.950 . S
C1210 C1208 1.391 . S
C1210 C1211 1.400 . S
C1211 C1210 1.400 . S
C1211 C1212 1.398 . S
C1211 C1217 1.491 . S
C1212 H1203 0.950 . S
C1212 C1211 1.398 . S
C1212 C1213 1.391 . S
C1213 H1201 0.950 . S
C1213 C1209 1.393 . S
C1213 C1212 1.391 . S
C1214 H1204 0.950 . S
C1214 C1215 1.386 . S
C1214 C1216 1.391 . S
C1215 C1214 1.386 . S
C1215 C1219 1.393 . S
C1216 H1205 0.950 . S
C1216 C1214 1.391 . S
C1216 C1217 1.400 . S
C1217 C1211 1.491 . S
C1217 C1216 1.400 . S
C1217 C1218 1.398 . S
C1218 H1206 0.950 . S
C1218 C1217 1.398 . S
C1218 C1219 1.391 . S
C1219 H1207 0.950 . S
C1219 C1215 1.393 . S
C1219 C1218 1.391 . S
H1220 C1228 0.950 . S
H1221 C1233 0.950 . S
H1222 C1230 0.950 . S
H1223 C1232 0.950 . S
H1224 C1234 0.950 . S
H1225 C1236 0.950 . S
H1226 C1238 0.950 . S
H1227 C1239 0.950 . S
C1228 H1220 0.950 . S
C1228 C1229 1.386 . S
C1228 C1230 1.391 . S
C1229 C1228 1.386 . S
C1229 C1233 1.393 . S
C1230 H1222 0.950 . S
C1230 C1228 1.391 . S
C1230 C1231 1.400 . S
C1231 C1230 1.400 . S
C1231 C1232 1.398 . S
C1231 C1237 1.491 . S
C1232 H1223 0.950 . S
C1232 C1231 1.398 . S
C1232 C1233 1.391 . S
C1233 H1221 0.950 . S
C1233 C1229 1.393 . S
C1233 C1232 1.391 . S
C1234 H1224 0.950 . S
C1234 C1235 1.386 . S
C1234 C1236 1.391 . S
C1235 C1234 1.386 . S
C1235 C1239 1.393 . S
C1236 H1225 0.950 . S
C1236 C1234 1.391 . S
C1236 C1237 1.400 . S
C1237 C1231 1.491 . S
C1237 C1236 1.400 . S
C1237 C1238 1.398 . S
C1238 H1226 0.950 . S
C1238 C1237 1.398 . S
C1238 C1239 1.391 . S
C1239 H1227 0.950 . S
C1239 C1235 1.393 . S
C1239 C1238 1.391 . S
H1240 C1248 0.950 . S
H1241 C1253 0.950 . S
H1242 C1250 0.950 . S
H1243 C1252 0.950 . S
H1244 C1254 0.950 . S
H1245 C1256 0.950 . S
H1246 C1258 0.950 . S
H1247 C1259 0.950 . S
C1248 H1240 0.950 . S
C1248 C1249 1.386 . S
C1248 C1250 1.391 . S
C1249 C1248 1.386 . S
C1249 C1253 1.393 . S
C1250 H1242 0.950 . S
C1250 C1248 1.391 . S
C1250 C1251 1.400 . S
C1251 C1250 1.400 . S
C1251 C1252 1.398 . S
C1251 C1257 1.491 . S
C1252 H1243 0.950 . S
C1252 C1251 1.398 . S
C1252 C1253 1.391 . S
C1253 H1241 0.950 . S
C1253 C1249 1.393 . S
C1253 C1252 1.391 . S
C1254 H1244 0.950 . S
C1254 C1255 1.386 . S
C1254 C1256 1.391 . S
C1255 C1254 1.386 . S
C1255 C1259 1.393 . S
C1256 H1245 0.950 . S
C1256 C1254 1.391 . S
C1256 C1257 1.400 . S
C1257 C1251 1.491 . S
C1257 C1256 1.400 . S
C1257 C1258 1.398 . S
C1258 H1246 0.950 . S
C1258 C1257 1.398 . S
C1258 C1259 1.391 . S
C1259 H1247 0.950 . S
C1259 C1255 1.393 . S
C1259 C1258 1.391 . S
H1260 C1268 0.950 1_455 S
H1261 C1273 0.950 . S
H1262 C1270 0.950 . S
H1263 C1272 0.950 . S
H1264 C1274 0.950 . S
H1265 C1276 0.950 . S
H1266 C1278 0.950 . S
H1267 C1279 0.950 . S
C1268 H1260 0.950 1_655 S
C1268 C1269 1.386 . S
C1268 C1270 1.391 . S
C1269 C1268 1.386 . S
C1269 C1273 1.393 . S
C1270 H1262 0.950 . S
C1270 C1268 1.391 . S
C1270 C1271 1.400 . S
C1271 C1270 1.400 . S
C1271 C1272 1.398 . S
C1271 C1277 1.491 . S
C1272 H1263 0.950 . S
C1272 C1271 1.398 . S
C1272 C1273 1.391 . S
C1273 H1261 0.950 . S
C1273 C1269 1.393 . S
C1273 C1272 1.391 . S
C1274 H1264 0.950 . S
C1274 C1275 1.386 . S
C1274 C1276 1.391 . S
C1275 C1274 1.386 . S
C1275 C1279 1.393 . S
C1276 H1265 0.950 . S
C1276 C1274 1.391 . S
C1276 C1277 1.400 . S
C1277 C1271 1.491 . S
C1277 C1276 1.400 . S
C1277 C1278 1.398 . S
C1278 H1266 0.950 . S
C1278 C1277 1.398 . S
C1278 C1279 1.391 . S
C1279 H1267 0.950 . S
C1279 C1275 1.393 . S
C1279 C1278 1.391 . S
H1280 C1288 0.950 . S
H1281 C1293 0.950 . S
H1282 C1290 0.950 . S
H1283 C1292 0.950 . S
H1284 C1294 0.950 . S
H1285 C1296 0.950 . S
H1286 C1298 0.950 . S
H1287 C1299 0.950 . S
C1288 H1280 0.950 . S
C1288 C1289 1.386 . S
C1288 C1290 1.391 . S
C1289 C1288 1.386 . S
C1289 C1293 1.393 . S
C1290 H1282 0.950 . S
C1290 C1288 1.391 . S
C1290 C1291 1.400 . S
C1291 C1290 1.400 . S
C1291 C1292 1.398 . S
C1291 C1297 1.491 . S
C1292 H1283 0.950 . S
C1292 C1291 1.398 . S
C1292 C1293 1.391 . S
C1293 H1281 0.950 . S
C1293 C1289 1.393 . S
C1293 C1292 1.391 . S
C1294 H1284 0.950 . S
C1294 C1295 1.386 . S
C1294 C1296 1.391 . S
C1295 C1294 1.386 . S
C1295 C1299 1.393 . S
C1296 H1285 0.950 . S
C1296 C1294 1.391 . S
C1296 C1297 1.400 . S
C1297 C1291 1.491 . S
C1297 C1296 1.400 . S
C1297 C1298 1.398 . S
C1298 H1286 0.950 . S
C1298 C1297 1.398 . S
C1298 C1299 1.391 . S
C1299 H1287 0.950 . S
C1299 C1295 1.393 . S
C1299 C1298 1.391 . S
H1300 C1308 0.950 . S
H1301 C1313 0.950 . S
H1302 C1310 0.950 . S
H1303 C1312 0.950 . S
H1304 C1314 0.950 . S
H1305 C1316 0.950 . S
H1306 C1318 0.950 . S
H1307 C1319 0.950 . S
C1308 H1300 0.950 . S
C1308 C1309 1.386 . S
C1308 C1310 1.391 . S
C1309 C1308 1.386 . S
C1309 C1313 1.393 . S
C1310 H1302 0.950 . S
C1310 C1308 1.391 . S
C1310 C1311 1.400 . S
C1311 C1310 1.400 . S
C1311 C1312 1.398 . S
C1311 C1317 1.491 . S
C1312 H1303 0.950 . S
C1312 C1311 1.398 . S
C1312 C1313 1.391 . S
C1313 H1301 0.950 . S
C1313 C1309 1.393 . S
C1313 C1312 1.391 . S
C1314 H1304 0.950 . S
C1314 C1315 1.386 . S
C1314 C1316 1.391 . S
C1315 C1314 1.386 . S
C1315 C1319 1.393 . S
C1316 H1305 0.950 . S
C1316 C1314 1.391 . S
C1316 C1317 1.400 . S
C1317 C1311 1.491 . S
C1317 C1316 1.400 . S
C1317 C1318 1.398 . S
C1318 H1306 0.950 . S
C1318 C1317 1.398 . S
C1318 C1319 1.391 . S
C1319 H1307 0.950 . S
C1319 C1315 1.393 . S
C1319 C1318 1.391 . S
H1320 C1328 0.950 . S
H1321 C1333 0.950 . S
H1322 C1330 0.950 . S
H1323 C1332 0.950 . S
H1324 C1334 0.950 . S
H1325 C1336 0.950 . S
H1326 C1338 0.950 . S
H1327 C1339 0.950 . S
C1328 H1320 0.950 . S
C1328 C1329 1.386 . S
C1328 C1330 1.391 . S
C1329 C1328 1.386 . S
C1329 C1333 1.393 . S
C1330 H1322 0.950 . S
C1330 C1328 1.391 . S
C1330 C1331 1.400 . S
C1331 C1330 1.400 . S
C1331 C1332 1.398 . S
C1331 C1337 1.491 . S
C1332 H1323 0.950 . S
C1332 C1331 1.398 . S
C1332 C1333 1.391 . S
C1333 H1321 0.950 . S
C1333 C1329 1.393 . S
C1333 C1332 1.391 . S
C1334 H1324 0.950 . S
C1334 C1335 1.386 . S
C1334 C1336 1.391 . S
C1335 C1334 1.386 . S
C1335 C1339 1.393 . S
C1336 H1325 0.950 . S
C1336 C1334 1.391 . S
C1336 C1337 1.400 . S
C1337 C1331 1.491 . S
C1337 C1336 1.400 . S
C1337 C1338 1.398 . S
C1338 H1326 0.950 . S
C1338 C1337 1.398 . S
C1338 C1339 1.391 . S
C1339 H1327 0.950 . S
C1339 C1335 1.393 . S
C1339 C1338 1.391 . S
H1340 C1348 0.909 1_554 S
H1341 C1353 0.950 . S
H1342 C1350 0.950 . S
H1343 C1352 0.950 . S
H1344 C1354 0.950 1_655 S
H1345 C1356 0.950 . S
H1346 C1358 0.950 . S
H1347 C1359 0.950 . S
C1348 H1340 0.909 1_556 S
C1348 C1349 1.400 1_455 S
C1348 C1350 1.418 . S
C1349 C1348 1.400 1_655 S
C1349 C1353 1.393 . S
C1350 H1342 0.950 . S
C1350 C1348 1.418 . S
C1350 C1351 1.400 . S
C1351 C1350 1.400 . S
C1351 C1352 1.398 1_455 S
C1351 C1357 1.491 . S
C1352 H1343 0.950 . S
C1352 C1351 1.398 1_655 S
C1352 C1353 1.391 . S
C1353 H1341 0.950 . S
C1353 C1349 1.393 . S
C1353 C1352 1.391 . S
C1354 H1344 0.950 1_455 S
C1354 C1355 1.386 . S
C1354 C1356 1.391 1_455 S
C1355 C1354 1.386 . S
C1355 C1359 1.393 . S
C1356 H1345 0.950 . S
C1356 C1354 1.391 1_655 S
C1356 C1357 1.400 1_655 S
C1357 C1351 1.491 . S
C1357 C1356 1.400 1_455 S
C1357 C1358 1.398 . S
C1358 H1346 0.950 . S
C1358 C1357 1.398 . S
C1358 C1359 1.391 . S
C1359 H1347 0.950 . S
C1359 C1355 1.393 . S
C1359 C1358 1.391 . S
H1360 C1368 0.950 . S
H1361 C1373 0.950 . S
H1362 C1370 0.950 . S
H1363 C1372 0.950 . S
H1364 C1374 0.950 . S
H1365 C1376 0.950 . S
H1366 C1378 0.950 . S
H1367 C1379 0.950 . S
C1368 H1360 0.950 . S
C1368 C1369 1.386 . S
C1368 C1370 1.391 . S
C1369 C1368 1.386 . S
C1369 C1373 1.393 . S
C1370 H1362 0.950 . S
C1370 C1368 1.391 . S
C1370 C1371 1.400 . S
C1371 C1370 1.400 . S
C1371 C1372 1.398 . S
C1371 C1377 1.491 . S
C1372 H1363 0.950 . S
C1372 C1371 1.398 . S
C1372 C1373 1.391 . S
C1373 H1361 0.950 . S
C1373 C1369 1.393 . S
C1373 C1372 1.391 . S
C1374 H1364 0.950 . S
C1374 C1375 1.386 . S
C1374 C1376 1.391 . S
C1375 C1374 1.386 . S
C1375 C1379 1.393 . S
C1376 H1365 0.950 . S
C1376 C1374 1.391 . S
C1376 C1377 1.400 . S
C1377 C1371 1.491 . S
C1377 C1376 1.400 . S
C1377 C1378 1.398 . S
C1378 H1366 0.950 . S
C1378 C1377 1.398 . S
C1378 C1379 1.391 . S
C1379 H1367 0.950 . S
C1379 C1375 1.393 . S
C1379 C1378 1.391 . S
H1380 C1388 0.950 1_554 S
H1381 C1393 0.950 . S
H1382 C1390 0.950 . S
H1383 C1392 0.950 . S
H1384 C1394 0.950 . S
H1385 C1396 0.950 . S
H1386 C1398 0.950 . S
H1387 C1399 0.950 . S
C1388 H1380 0.950 1_556 S
C1388 C1389 1.386 . S
C1388 C1390 1.391 . S
C1389 C1388 1.386 . S
C1389 C1393 1.393 . S
C1390 H1382 0.950 . S
C1390 C1388 1.391 . S
C1390 C1391 1.400 . S
C1391 C1390 1.400 . S
C1391 C1392 1.398 . S
C1391 C1397 1.491 . S
C1392 H1383 0.950 . S
C1392 C1391 1.398 . S
C1392 C1393 1.391 . S
C1393 H1381 0.950 . S
C1393 C1389 1.393 . S
C1393 C1392 1.391 . S
C1394 H1384 0.950 . S
C1394 C1395 1.386 . S
C1394 C1396 1.391 . S
C1395 C1394 1.386 . S
C1395 C1399 1.393 . S
C1396 H1385 0.950 . S
C1396 C1394 1.391 . S
C1396 C1397 1.400 . S
C1397 C1391 1.491 . S
C1397 C1396 1.400 . S
C1397 C1398 1.398 . S
C1398 H1386 0.950 . S
C1398 C1397 1.398 . S
C1398 C1399 1.391 . S
C1399 H1387 0.950 . S
C1399 C1395 1.393 . S
C1399 C1398 1.391 . S
H1400 C1408 0.950 . S
H1401 C1413 0.950 . S
H1402 C1410 0.950 . S
H1403 C1412 0.950 . S
H1404 C1414 0.950 . S
H1405 C1416 0.950 . S
H1406 C1418 0.950 . S
H1407 C1419 0.950 . S
C1408 H1400 0.950 . S
C1408 C1409 1.386 . S
C1408 C1410 1.391 . S
C1409 C1408 1.386 . S
C1409 C1413 1.393 . S
C1410 H1402 0.950 . S
C1410 C1408 1.391 . S
C1410 C1411 1.400 . S
C1411 C1410 1.400 . S
C1411 C1412 1.398 . S
C1411 C1417 1.491 . S
C1412 H1403 0.950 . S
C1412 C1411 1.398 . S
C1412 C1413 1.391 . S
C1413 H1401 0.950 . S
C1413 C1409 1.393 . S
C1413 C1412 1.391 . S
C1414 H1404 0.950 . S
C1414 C1415 1.386 . S
C1414 C1416 1.391 . S
C1415 C1414 1.386 . S
C1415 C1419 1.393 . S
C1416 H1405 0.950 . S
C1416 C1414 1.391 . S
C1416 C1417 1.400 . S
C1417 C1411 1.491 . S
C1417 C1416 1.400 . S
C1417 C1418 1.398 . S
C1418 H1406 0.950 . S
C1418 C1417 1.398 . S
C1418 C1419 1.391 . S
C1419 H1407 0.950 . S
C1419 C1415 1.393 . S
C1419 C1418 1.391 . S
H1420 C1428 0.950 . S
H1421 C1433 0.950 . S
H1422 C1430 0.950 . S
H1423 C1432 0.950 . S
H1424 C1434 0.950 . S
H1425 C1436 0.950 . S
H1426 C1438 0.950 . S
H1427 C1439 0.950 . S
C1428 H1420 0.950 . S
C1428 C1429 1.386 . S
C1428 C1430 1.391 . S
C1429 C1428 1.386 . S
C1429 C1433 1.393 . S
C1430 H1422 0.950 . S
C1430 C1428 1.391 . S
C1430 C1431 1.400 . S
C1431 C1430 1.400 . S
C1431 C1432 1.398 . S
C1431 C1437 1.491 . S
C1432 H1423 0.950 . S
C1432 C1431 1.398 . S
C1432 C1433 1.391 . S
C1433 H1421 0.950 . S
C1433 C1429 1.393 . S
C1433 C1432 1.391 . S
C1434 H1424 0.950 . S
C1434 C1435 1.386 . S
C1434 C1436 1.391 . S
C1435 C1434 1.386 . S
C1435 C1439 1.393 . S
C1436 H1425 0.950 . S
C1436 C1434 1.391 . S
C1436 C1437 1.400 . S
C1437 C1431 1.491 . S
C1437 C1436 1.400 . S
C1437 C1438 1.398 . S
C1438 H1426 0.950 . S
C1438 C1437 1.398 . S
C1438 C1439 1.391 . S
C1439 H1427 0.950 . S
C1439 C1435 1.393 . S
C1439 C1438 1.391 . S
H1440 C1448 0.950 . S
H1441 C1453 0.950 . S
H1442 C1450 0.950 . S
H1443 C1452 0.950 . S
H1444 C1454 0.950 . S
H1445 C1456 0.950 . S
H1446 C1458 0.950 . S
H1447 C1459 0.950 . S
C1448 H1440 0.950 . S
C1448 C1449 1.386 . S
C1448 C1450 1.391 . S
C1449 C1448 1.386 . S
C1449 C1453 1.393 . S
C1450 H1442 0.950 . S
C1450 C1448 1.391 . S
C1450 C1451 1.400 . S
C1451 C1450 1.400 . S
C1451 C1452 1.398 . S
C1451 C1457 1.491 . S
C1452 H1443 0.950 . S
C1452 C1451 1.398 . S
C1452 C1453 1.391 . S
C1453 H1441 0.950 . S
C1453 C1449 1.393 . S
C1453 C1452 1.391 . S
C1454 H1444 0.950 . S
C1454 C1455 1.386 . S
C1454 C1456 1.391 . S
C1455 C1454 1.386 . S
C1455 C1459 1.393 . S
C1456 H1445 0.950 . S
C1456 C1454 1.391 . S
C1456 C1457 1.400 . S
C1457 C1451 1.491 . S
C1457 C1456 1.400 . S
C1457 C1458 1.398 . S
C1458 H1446 0.950 . S
C1458 C1457 1.398 . S
C1458 C1459 1.391 . S
C1459 H1447 0.950 . S
C1459 C1455 1.393 . S
C1459 C1458 1.391 . S
H1460 C1468 0.950 . S
H1461 C1473 0.950 . S
H1462 C1470 0.950 . S
H1463 C1472 0.950 . S
H1464 C1474 0.950 . S
H1465 C1476 0.950 . S
H1466 C1478 0.950 . S
H1467 C1479 0.950 . S
C1468 H1460 0.950 . S
C1468 C1469 1.386 . S
C1468 C1470 1.391 . S
C1469 C1468 1.386 . S
C1469 C1473 1.393 . S
C1470 H1462 0.950 . S
C1470 C1468 1.391 . S
C1470 C1471 1.400 . S
C1471 C1470 1.400 . S
C1471 C1472 1.398 . S
C1471 C1477 1.491 . S
C1472 H1463 0.950 . S
C1472 C1471 1.398 . S
C1472 C1473 1.391 . S
C1473 H1461 0.950 . S
C1473 C1469 1.393 . S
C1473 C1472 1.391 . S
C1474 H1464 0.950 . S
C1474 C1475 1.386 . S
C1474 C1476 1.391 . S
C1475 C1474 1.386 . S
C1475 C1479 1.393 . S
C1476 H1465 0.950 . S
C1476 C1474 1.391 . S
C1476 C1477 1.400 . S
C1477 C1471 1.491 . S
C1477 C1476 1.400 . S
C1477 C1478 1.398 . S
C1478 H1466 0.950 . S
C1478 C1477 1.398 . S
C1478 C1479 1.391 . S
C1479 H1467 0.950 . S
C1479 C1475 1.393 . S
C1479 C1478 1.391 . S
H1480 C1488 0.950 . S
H1481 C1493 0.950 . S
H1482 C1490 0.950 . S
H1483 C1492 0.950 . S
H1484 C1494 0.950 . S
H1485 C1496 0.950 . S
H1486 C1498 0.950 . S
H1487 C1499 0.950 . S
C1488 H1480 0.950 . S
C1488 C1489 1.386 . S
C1488 C1490 1.391 . S
C1489 C1488 1.386 . S
C1489 C1493 1.393 . S
C1490 H1482 0.950 . S
C1490 C1488 1.391 . S
C1490 C1491 1.400 . S
C1491 C1490 1.400 . S
C1491 C1492 1.398 . S
C1491 C1497 1.491 . S
C1492 H1483 0.950 . S
C1492 C1491 1.398 . S
C1492 C1493 1.391 . S
C1493 H1481 0.950 . S
C1493 C1489 1.393 . S
C1493 C1492 1.391 . S
C1494 H1484 0.950 . S
C1494 C1495 1.386 . S
C1494 C1496 1.391 . S
C1495 C1494 1.386 . S
C1495 C1499 1.393 . S
C1496 H1485 0.950 . S
C1496 C1494 1.391 . S
C1496 C1497 1.400 . S
C1497 C1491 1.491 . S
C1497 C1496 1.400 . S
C1497 C1498 1.398 . S
C1498 H1486 0.950 . S
C1498 C1497 1.398 . S
C1498 C1499 1.391 . S
C1499 H1487 0.950 . S
C1499 C1495 1.393 . S
C1499 C1498 1.391 . S
H1500 C1508 0.950 . S
H1501 C1513 0.950 . S
H1502 C1510 0.950 . S
H1503 C1512 0.950 . S
H1504 C1514 0.950 . S
H1505 C1516 0.950 . S
H1506 C1518 0.950 . S
H1507 C1519 0.950 . S
C1508 H1500 0.950 . S
C1508 C1509 1.386 . S
C1508 C1510 1.391 . S
C1509 C1508 1.386 . S
C1509 C1513 1.393 . S
C1510 H1502 0.950 . S
C1510 C1508 1.391 . S
C1510 C1511 1.400 . S
C1511 C1510 1.400 . S
C1511 C1512 1.398 . S
C1511 C1517 1.491 . S
C1512 H1503 0.950 . S
C1512 C1511 1.398 . S
C1512 C1513 1.391 . S
C1513 H1501 0.950 . S
C1513 C1509 1.393 . S
C1513 C1512 1.391 . S
C1514 H1504 0.950 . S
C1514 C1515 1.386 . S
C1514 C1516 1.391 . S
C1515 C1514 1.386 . S
C1515 C1519 1.393 . S
C1516 H1505 0.950 . S
C1516 C1514 1.391 . S
C1516 C1517 1.400 . S
C1517 C1511 1.491 . S
C1517 C1516 1.400 . S
C1517 C1518 1.398 . S
C1518 H1506 0.950 . S
C1518 C1517 1.398 . S
C1518 C1519 1.391 . S
C1519 H1507 0.950 . S
C1519 C1515 1.393 . S
C1519 C1518 1.391 . S
H1520 C1528 0.950 . S
H1521 C1533 0.950 . S
H1522 C1530 0.950 . S
H1523 C1532 0.950 . S
H1524 C1534 0.950 . S
H1525 C1536 0.950 . S
H1526 C1538 0.950 . S
H1527 C1539 0.950 . S
C1528 H1520 0.950 . S
C1528 C1529 1.386 . S
C1528 C1530 1.391 . S
C1529 C1528 1.386 . S
C1529 C1533 1.393 . S
C1530 H1522 0.950 . S
C1530 C1528 1.391 . S
C1530 C1531 1.400 . S
C1531 C1530 1.400 . S
C1531 C1532 1.398 . S
C1531 C1537 1.491 . S
C1532 H1523 0.950 . S
C1532 C1531 1.398 . S
C1532 C1533 1.391 . S
C1533 H1521 0.950 . S
C1533 C1529 1.393 . S
C1533 C1532 1.391 . S
C1534 H1524 0.950 . S
C1534 C1535 1.386 . S
C1534 C1536 1.391 . S
C1535 C1534 1.386 . S
C1535 C1539 1.393 . S
C1536 H1525 0.950 . S
C1536 C1534 1.391 . S
C1536 C1537 1.400 . S
C1537 C1531 1.491 . S
C1537 C1536 1.400 . S
C1537 C1538 1.398 . S
C1538 H1526 0.950 . S
C1538 C1537 1.398 . S
C1538 C1539 1.391 . S
C1539 H1527 0.950 . S
C1539 C1535 1.393 . S
C1539 C1538 1.391 . S
H1540 C1548 0.950 . S
H1541 C1553 0.950 . S
H1542 C1550 0.950 . S
H1543 C1552 0.950 . S
H1544 C1554 0.950 . S
H1545 C1556 0.950 . S
H1546 C1558 0.950 . S
H1547 C1559 0.950 . S
C1548 H1540 0.950 . S
C1548 C1549 1.386 . S
C1548 C1550 1.391 . S
C1549 C1548 1.386 . S
C1549 C1553 1.393 . S
C1550 H1542 0.950 . S
C1550 C1548 1.391 . S
C1550 C1551 1.400 . S
C1551 C1550 1.400 . S
C1551 C1552 1.398 . S
C1551 C1557 1.491 . S
C1552 H1543 0.950 . S
C1552 C1551 1.398 . S
C1552 C1553 1.391 . S
C1553 H1541 0.950 . S
C1553 C1549 1.393 . S
C1553 C1552 1.391 . S
C1554 H1544 0.950 . S
C1554 C1555 1.386 . S
C1554 C1556 1.391 . S
C1555 C1554 1.386 . S
C1555 C1559 1.393 . S
C1556 H1545 0.950 . S
C1556 C1554 1.391 . S
C1556 C1557 1.400 . S
C1557 C1551 1.491 . S
C1557 C1556 1.400 . S
C1557 C1558 1.398 . S
C1558 H1546 0.950 . S
C1558 C1557 1.398 . S
C1558 C1559 1.391 . S
C1559 H1547 0.950 . S
C1559 C1555 1.393 . S
C1559 C1558 1.391 . S
H1560 C1568 0.950 1_554 S
H1561 C1573 0.950 . S
H1562 C1570 0.950 . S
H1563 C1572 0.950 . S
H1564 C1574 0.950 . S
H1565 C1576 0.950 . S
H1566 C1578 0.950 . S
H1567 C1579 0.950 . S
C1568 H1560 0.950 1_556 S
C1568 C1569 1.386 . S
C1568 C1570 1.391 1_556 S
C1569 C1568 1.386 . S
C1569 C1573 1.393 . S
C1570 H1562 0.950 . S
C1570 C1568 1.391 1_554 S
C1570 C1571 1.400 1_554 S
C1571 C1570 1.400 1_556 S
C1571 C1572 1.398 . S
C1571 C1577 1.491 . S
C1572 H1563 0.950 . S
C1572 C1571 1.398 . S
C1572 C1573 1.391 . S
C1573 H1561 0.950 . S
C1573 C1569 1.393 . S
C1573 C1572 1.391 . S
C1574 H1564 0.950 . S
C1574 C1575 1.361 1_556 S
C1574 C1576 1.391 . S
C1575 C1574 1.361 1_554 S
C1575 C1579 1.414 . S
C1576 H1565 0.950 . S
C1576 C1574 1.391 . S
C1576 C1577 1.400 . S
C1577 C1571 1.491 . S
C1577 C1576 1.400 . S
C1577 C1578 1.398 1_556 S
C1578 H1566 0.950 . S
C1578 C1577 1.398 1_554 S
C1578 C1579 1.391 . S
C1579 H1567 0.950 . S
C1579 C1575 1.414 . S
C1579 C1578 1.391 . S
H1580 C1588 0.950 . S
H1581 C1593 0.950 . S
H1582 C1590 0.950 . S
H1583 C1592 0.950 . S
H1584 C1594 0.950 . S
H1585 C1596 0.950 . S
H1586 C1598 0.950 . S
H1587 C1599 0.950 . S
C1588 H1580 0.950 . S
C1588 C1589 1.386 . S
C1588 C1590 1.391 . S
C1589 C1588 1.386 . S
C1589 C1593 1.393 . S
C1590 H1582 0.950 . S
C1590 C1588 1.391 . S
C1590 C1591 1.400 . S
C1591 C1590 1.400 . S
C1591 C1592 1.398 . S
C1591 C1597 1.491 . S
C1592 H1583 0.950 . S
C1592 C1591 1.398 . S
C1592 C1593 1.391 . S
C1593 H1581 0.950 . S
C1593 C1589 1.393 . S
C1593 C1592 1.391 . S
C1594 H1584 0.950 . S
C1594 C1595 1.386 . S
C1594 C1596 1.391 . S
C1595 C1594 1.386 . S
C1595 C1599 1.393 . S
C1596 H1585 0.950 . S
C1596 C1594 1.391 . S
C1596 C1597 1.400 . S
C1597 C1591 1.491 . S
C1597 C1596 1.400 . S
C1597 C1598 1.398 . S
C1598 H1586 0.950 . S
C1598 C1597 1.398 . S
C1598 C1599 1.391 . S
C1599 H1587 0.950 . S
C1599 C1595 1.393 . S
C1599 C1598 1.391 . S
H1600 C1608 0.950 . S
H1601 C1613 0.950 . S
H1602 C1610 0.950 . S
H1603 C1612 0.950 . S
H1604 C1614 0.950 . S
H1605 C1616 0.950 . S
H1606 C1618 0.950 . S
H1607 C1619 0.950 . S
C1608 H1600 0.950 . S
C1608 C1609 1.386 . S
C1608 C1610 1.391 . S
C1609 C1608 1.386 . S
C1609 C1613 1.393 . S
C1610 H1602 0.950 . S
C1610 C1608 1.391 . S
C1610 C1611 1.400 . S
C1611 C1610 1.400 . S
C1611 C1612 1.398 . S
C1611 C1617 1.491 . S
C1612 H1603 0.950 . S
C1612 C1611 1.398 . S
C1612 C1613 1.391 . S
C1613 H1601 0.950 . S
C1613 C1609 1.393 . S
C1613 C1612 1.391 . S
C1614 H1604 0.950 . S
C1614 C1615 1.386 . S
C1614 C1616 1.391 . S
C1615 C1614 1.386 . S
C1615 C1619 1.393 . S
C1616 H1605 0.950 . S
C1616 C1614 1.391 . S
C1616 C1617 1.400 . S
C1617 C1611 1.491 . S
C1617 C1616 1.400 . S
C1617 C1618 1.398 . S
C1618 H1606 0.950 . S
C1618 C1617 1.398 . S
C1618 C1619 1.391 . S
C1619 H1607 0.950 . S
C1619 C1615 1.393 . S
C1619 C1618 1.391 . S
H1620 C1628 0.950 1_556 S
H1621 C1633 0.950 . S
H1622 C1630 0.973 . S
H1623 C1632 0.950 . S
H1624 C1634 0.950 . S
H1625 C1636 0.950 . S
H1626 C1638 0.950 . S
H1627 C1639 0.950 . S
C1628 H1620 0.950 1_554 S
C1628 C1629 1.386 . S
C1628 C1630 1.388 1_554 S
C1629 C1628 1.386 . S
C1629 C1633 1.393 . S
C1630 H1622 0.973 . S
C1630 C1628 1.388 1_556 S
C1630 C1631 1.381 1_556 S
C1631 C1630 1.381 1_554 S
C1631 C1632 1.398 . S
C1631 C1637 1.491 . S
C1632 H1623 0.950 . S
C1632 C1631 1.398 . S
C1632 C1633 1.391 . S
C1633 H1621 0.950 . S
C1633 C1629 1.393 . S
C1633 C1632 1.391 . S
C1634 H1624 0.950 . S
C1634 C1635 1.386 . S
C1634 C1636 1.391 . S
C1635 C1634 1.386 . S
C1635 C1639 1.393 1_554 S
C1636 H1625 0.950 . S
C1636 C1634 1.391 . S
C1636 C1637 1.400 . S
C1637 C1631 1.491 . S
C1637 C1636 1.400 . S
C1637 C1638 1.398 1_554 S
C1638 H1626 0.950 . S
C1638 C1637 1.398 1_556 S
C1638 C1639 1.391 . S
C1639 H1627 0.950 . S
C1639 C1635 1.393 1_556 S
C1639 C1638 1.391 . S
C695 C523 1.409 . S
C689 C177 1.427 . S
C715 C531 1.283 . S
C709 C209 1.548 . S
C729 C253 1.346 . S
C735 C551 1.372 . S
C755 C565 1.508 . S
C749 C157 1.505 1_655 S
C775 C580 1.542 . S
C769 C343 1.521 . S
C795 C594 1.501 . S
C789 C401 1.456 . S
C809 C369 1.550 . S
C815 C608 1.579 . S
C835 C614 1.424 . S
C829 C317 1.451 . S
C849 C375 1.502 . S
C855 C628 1.489 . S
C875 C649 1.561 . S
C869 C305 1.561 . S
C889 C349 1.454 . S
C895 C629 1.250 . S
C915 C650 1.536 . S
C909 C413 1.472 . S
C929 C241 1.418 . S
C935 C657 1.177 . S
C949 C151 1.444 . S
C955 C663 1.472 . S
C969 C189 1.479 . S
C975 C656 1.471 . S
C989 C215 1.467 . S
C995 C664 1.476 . S
C1009 C113 1.471 . S
C1015 C558 1.458 . S
C1029 C471 1.454 . S
C1035 C559 1.270 . S
C1055 C516 1.536 . S
C1049 C509 1.539 . S
C1075 C537 1.438 . S
C1069 C279 1.433 . S
C1089 C145 1.413 . S
C1095 C572 1.405 . S
C1115 C622 1.573 . S
C1109 C381 1.544 . S
C1135 C573 1.228 . S
C1129 C311 1.454 . S
C1155 C601 1.295 . S
C1149 C407 1.488 . S
C1175 C607 1.421 . S
C1169 C465 1.421 . S
C1189 C497 1.548 . S
C1195 C615 1.273 . S
C1209 C285 1.368 . S
C1215 C579 1.385 . S
C1235 C593 1.508 . S
C1229 C445 1.505 . S
C1249 C119 1.503 . S
C1255 C552 1.543 . S
C1275 C566 1.501 . S
C1269 C17 1.459 . S
C1295 C524 1.579 . S
C1289 C49 1.552 . S
C1315 C530 1.426 . S
C1309 C93 1.449 . S
C1329 C55 1.504 . S
C1335 C642 1.503 . S
C1349 C81 1.570 1_556 S
C1355 C635 1.569 . S
C1369 C125 1.458 . S
C1375 C643 1.243 . S
C1389 C29 1.470 . S
C1395 C636 1.536 . S
C1415 C671 1.228 . S
C1409 C273 1.434 . S
C1435 C677 1.473 . S
C1429 C439 1.444 . S
C1455 C670 1.459 . S
C1449 C477 1.496 . S
C1469 C503 1.464 . S
C1475 C678 1.475 . S
C1489 C337 1.453 . S
C1495 C586 1.438 . S
C1515 C587 1.266 . S
C1509 C183 1.453 . S
C1535 C600 1.525 . S
C1529 C221 1.533 . S
C1555 C621 1.440 . S
C1549 C247 1.433 . S
C1569 C433 1.414 . S
C1575 C544 1.410 . S
C1595 C538 1.571 . S
C1589 C61 1.527 . S
C1609 C87 1.442 . S
C1615 C545 1.238 . S
C1635 C517 1.247 . S
C1629 C23 1.482 . S
