# Generated by pormake.
# Topology rtl, (3,6)-cn, num edge types: 1
# Building blocks:
#     Node 0, Type 0, BuildingBlock: VETTIZ_charged_linker_0, # of connection points: 3
#     Node 1, Type 0, BuildingBlock: VETTIZ_charged_linker_0, # of connection points: 3
#     Node 2, Type 0, BuildingBlock: VETTIZ_charged_linker_0, # of connection points: 3
#     Node 3, Type 0, BuildingBlock: VETTIZ_charged_linker_0, # of connection points: 3
#     Node 4, Type 1, BuildingBlock: KUMBUR_clean_sbu_1, # of connection points: 6
#     Node 5, Type 1, BuildingBlock: KUMBUR_clean_sbu_1, # of connection points: 6
#     Edge 6, Type (0, 1), BuildingBlock: MIFKUJ_clean_linker_0, # of connection points: 2
#     Edge 7, Type (0, 1), BuildingBlock: MIFKUJ_clean_linker_0, # of connection points: 2
#     Edge 8, Type (0, 1), BuildingBlock: MIFKUJ_clean_linker_0, # of connection points: 2
#     Edge 9, Type (0, 1), BuildingBlock: MIFKUJ_clean_linker_0, # of connection points: 2
#     Edge 10, Type (0, 1), BuildingBlock: MIFKUJ_clean_linker_0, # of connection points: 2
#     Edge 11, Type (0, 1), BuildingBlock: MIFKUJ_clean_linker_0, # of connection points: 2
#     Edge 12, Type (0, 1), BuildingBlock: MIFKUJ_clean_linker_0, # of connection points: 2
#     Edge 13, Type (0, 1), BuildingBlock: MIFKUJ_clean_linker_0, # of connection points: 2
#     Edge 14, Type (0, 1), BuildingBlock: MIFKUJ_clean_linker_0, # of connection points: 2
#     Edge 15, Type (0, 1), BuildingBlock: MIFKUJ_clean_linker_0, # of connection points: 2
#     Edge 16, Type (0, 1), BuildingBlock: MIFKUJ_clean_linker_0, # of connection points: 2
#     Edge 17, Type (0, 1), BuildingBlock: MIFKUJ_clean_linker_0, # of connection points: 2
# Relax obj value: 0.017
# Max RMSD: 0.085
# Mean RMSD: 0.051
data_MOF--net-rtl--node1-KUMBUR_clean_sbu_1--node2-VETTIZ_charged_linker_0--edge1-MIFKUJ_clean_linker_0
_symmetry_space_group_name_H-M    P1
_symmetry_Int_Tables_number       1
_symmetry_cell_setting            triclinic
loop_
_symmetry_equiv_pos_as_xyz
'x, y, z'
_cell_length_a     48.969441
_cell_length_b     49.590687
_cell_length_c     42.688652
_cell_angle_alpha  81.920576
_cell_angle_beta   99.552945
_cell_angle_gamma 90.235795
loop_
_atom_site_label
_atom_site_type_symbol
_atom_site_fract_x
_atom_site_fract_y
_atom_site_fract_z
_atom_type_partial_charge
C0 C 0.20961 0.90168 0.90871 0.0
C1 C 0.18688 0.92036 0.90065 0.0
C2 C 0.1768 0.93018 0.92632 0.0
C3 C 0.21037 0.90234 0.96566 0.0
C4 C 0.22045 0.89262 0.94102 0.0
C5 C 0.24258 0.87091 0.95331 0.0
H6 H 0.31885 0.7897 0.07791 0.0
C7 C 0.22537 0.88795 0.99642 0.0
C8 C 0.24417 0.86937 0.98936 0.0
H9 H 0.31793 0.79146 0.97606 0.0
H10 H 0.28494 0.82846 0.96443 0.0
H11 H 0.3163 0.85743 0.07543 0.0
H12 H 0.25321 0.79634 0.07283 0.0
H13 H 0.24544 0.81967 0.0976 0.0
H14 H 0.27707 0.79958 0.10883 0.0
H15 H 0.31358 0.8322 0.10929 0.0
H16 H 0.29351 0.86351 0.10162 0.0
C17 C 0.26986 0.88129 0.94241 0.0
C18 C 0.232 0.84405 0.94124 0.0
C19 C 0.20157 0.91009 0.10127 0.0
C20 C 0.21032 0.89923 0.13364 0.0
C21 C 0.23103 0.87847 0.14102 0.0
C22 C 0.24252 0.86864 0.11671 0.0
C23 C 0.23309 0.87938 0.0845 0.0
C24 C 0.21297 0.89979 0.0773 0.0
C25 C 0.20461 0.90818 0.04181 0.0
C26 C 0.22329 0.88973 0.02883 0.0
C27 C 0.23999 0.87283 0.05389 0.0
C28 C 0.21157 0.93861 0.03383 0.0
C29 C 0.17354 0.90159 0.0326 0.0
C30 C 0.31149 0.79806 0.05312 0.0
C31 C 0.32145 0.78762 0.02793 0.0
C32 C 0.31128 0.79931 0.99604 0.0
C33 C 0.29179 0.82074 0.98923 0.0
C34 C 0.28189 0.83077 0.01444 0.0
C35 C 0.29182 0.81966 0.04581 0.0
C36 C 0.27858 0.83312 0.06931 0.0
C37 C 0.25893 0.85375 0.04676 0.0
C38 C 0.26105 0.85221 0.01465 0.0
C39 C 0.30157 0.84723 0.0903 0.0
C40 C 0.26285 0.81117 0.08844 0.0
H41 H 0.17994 0.93022 0.97639 0.0
H42 H 0.21893 0.89372 0.89062 0.0
H43 H 0.20912 0.84265 0.93958 0.0
H44 H 0.24024 0.82565 0.95774 0.0
H45 H 0.23697 0.84274 0.91704 0.0
H46 H 0.27179 0.9036 0.94286 0.0
H47 H 0.2706 0.87747 0.91754 0.0
H48 H 0.28854 0.87216 0.95848 0.0
H49 H 0.18604 0.92627 0.09452 0.0
H50 H 0.23797 0.86931 0.1656 0.0
H51 H 0.25804 0.85277 0.12394 0.0
H52 H 0.23167 0.94329 0.04826 0.0
H53 H 0.19539 0.95203 0.03929 0.0
H54 H 0.21416 0.94442 0.00858 0.0
H55 H 0.16772 0.88351 0.04854 0.0
H56 H 0.16833 0.89595 0.00821 0.0
H57 H 0.16001 0.91894 0.0347 0.0
H58 H 0.15914 0.94393 0.92224 0.0
C59 C 0.18865 0.92171 0.9584 0.0
C60 C 0.62806 0.69733 0.69375 0.0
C61 C 0.60863 0.67651 0.69662 0.0
C62 C 0.59556 0.66626 0.66901 0.0
C63 C 0.62195 0.69641 0.63617 0.0
C64 C 0.63437 0.70704 0.66321 0.0
C65 C 0.65525 0.72839 0.65539 0.0
H66 H 0.72477 0.79652 0.54364 0.0
C67 C 0.63386 0.70965 0.60841 0.0
C68 C 0.65339 0.72858 0.61939 0.0
H69 H 0.73626 0.80296 0.64464 0.0
H70 H 0.69888 0.77134 0.65152 0.0
H71 H 0.72024 0.73284 0.55268 0.0
H72 H 0.65874 0.79717 0.53127 0.0
H73 H 0.64541 0.77169 0.50871 0.0
H74 H 0.6774 0.78778 0.50153 0.0
H75 H 0.71247 0.75335 0.51406 0.0
H76 H 0.69402 0.7226 0.52384 0.0
C77 C 0.68405 0.71844 0.67416 0.0
C78 C 0.64539 0.75586 0.66325 0.0
C79 C 0.60631 0.67804 0.49892 0.0
C80 C 0.615 0.68584 0.46912 0.0
C81 C 0.63333 0.70771 0.46616 0.0
C82 C 0.64366 0.72088 0.4924 0.0
C83 C 0.63569 0.71225 0.52224 0.0
C84 C 0.61693 0.69153 0.52508 0.0
C85 C 0.6107 0.68553 0.55875 0.0
C86 C 0.62935 0.70563 0.57562 0.0
C87 C 0.64393 0.72109 0.55406 0.0
C88 C 0.61947 0.65554 0.57197 0.0
C89 C 0.57962 0.69219 0.55756 0.0
C90 C 0.719 0.79123 0.56714 0.0
C91 C 0.73317 0.80213 0.59362 0.0
C92 C 0.72545 0.79467 0.62396 0.0
C93 C 0.70388 0.77626 0.62787 0.0
C94 C 0.69028 0.76485 0.60121 0.0
C95 C 0.6979 0.77262 0.57148 0.0
C96 C 0.68206 0.75808 0.54592 0.0
C97 C 0.66354 0.7403 0.56494 0.0
C98 C 0.66833 0.74417 0.59739 0.0
C99 C 0.70309 0.74091 0.53311 0.0
C100 C 0.6651 0.77964 0.52028 0.0
H101 H 0.59153 0.6672 0.61883 0.0
H102 H 0.63841 0.70543 0.71478 0.0
H103 H 0.62269 0.75888 0.65502 0.0
H104 H 0.65501 0.77355 0.65093 0.0
H105 H 0.64963 0.75652 0.68951 0.0
H106 H 0.68678 0.69612 0.67457 0.0
H107 H 0.68656 0.72249 0.69941 0.0
H108 H 0.7013 0.7277 0.66312 0.0
H109 H 0.59219 0.66139 0.50206 0.0
H110 H 0.63978 0.71472 0.44336 0.0
H111 H 0.65776 0.7371 0.48842 0.0
H112 H 0.63858 0.64985 0.56331 0.0
H113 H 0.603 0.64134 0.56401 0.0
H114 H 0.62485 0.65173 0.59837 0.0
H115 H 0.5726 0.71001 0.53907 0.0
H116 H 0.57516 0.6982 0.58018 0.0
H117 H 0.56653 0.67471 0.55147 0.0
H118 H 0.58056 0.65023 0.67093 0.0
C119 C 0.60202 0.67613 0.63884 0.0
C120 C 0.80347 0.10153 0.14361 0.0
C121 C 0.82452 0.08139 0.15152 0.0
C122 C 0.83243 0.06844 0.12702 0.0
C123 C 0.7999 0.0971 0.08703 0.0
C124 C 0.79126 0.10879 0.11138 0.0
C125 C 0.76869 0.12992 0.09878 0.0
H126 H 0.69391 0.21125 0.97369 0.0
C127 C 0.78453 0.11082 0.05601 0.0
C128 C 0.76617 0.13002 0.06284 0.0
H129 H 0.69339 0.20978 0.07494 0.0
H130 H 0.72476 0.17094 0.08731 0.0
H131 H 0.75722 0.20352 0.97977 0.0
H132 H 0.6945 0.14229 0.97539 0.0
H133 H 0.71764 0.13654 0.94939 0.0
H134 H 0.69779 0.16796 0.94215 0.0
H135 H 0.73544 0.19907 0.94275 0.0
H136 H 0.76727 0.17966 0.95706 0.0
C137 C 0.77902 0.15747 0.10911 0.0
C138 C 0.74197 0.11951 0.11112 0.0
C139 C 0.80899 0.08918 0.95074 0.0
C140 C 0.80127 0.10106 0.91835 0.0
C141 C 0.78125 0.12256 0.91155 0.0
C142 C 0.7692 0.13162 0.93588 0.0
C143 C 0.77771 0.11992 0.96788 0.0
C144 C 0.79748 0.09924 0.9749 0.0
C145 C 0.80538 0.09042 0.01048 0.0
C146 C 0.78662 0.1088 0.02358 0.0
C147 C 0.77034 0.12602 0.99845 0.0
C148 C 0.83639 0.0968 0.02021 0.0
C149 C 0.7983 0.05999 0.01799 0.0
C150 C 0.70029 0.20211 0.9984 0.0
C151 C 0.6913 0.21337 0.02349 0.0
C152 C 0.70018 0.20132 0.05538 0.0
C153 C 0.71844 0.17884 0.06247 0.0
C154 C 0.72836 0.16846 0.03741 0.0
C155 C 0.71888 0.17967 0.00594 0.0
C156 C 0.73239 0.16623 0.98268 0.0
C157 C 0.75145 0.14522 0.00541 0.0
C158 C 0.74911 0.14685 0.03742 0.0
C159 C 0.74883 0.18811 0.9643 0.0
C160 C 0.70951 0.15261 0.96099 0.0
H161 H 0.82758 0.06596 0.07718 0.0
H162 H 0.79684 0.11156 0.16212 0.0
H163 H 0.74074 0.09696 0.1127 0.0
H164 H 0.72287 0.12729 0.09476 0.0
H165 H 0.74135 0.12485 0.13541 0.0
H166 H 0.80167 0.15946 0.10918 0.0
H167 H 0.77518 0.15925 0.13366 0.0
H168 H 0.76962 0.17532 0.09249 0.0
H169 H 0.82376 0.07241 0.95762 0.0
H170 H 0.77508 0.1331 0.88749 0.0
H171 H 0.75405 0.14784 0.92883 0.0
H172 H 0.84154 0.11662 0.00696 0.0
H173 H 0.84992 0.08083 0.01458 0.0
H174 H 0.84218 0.09905 0.04576 0.0
H175 H 0.77894 0.05517 1.00227 0.0
H176 H 0.79419 0.05435 0.04271 0.0
H177 H 0.81514 0.04659 0.01397 0.0
H178 H 0.84858 0.05281 0.13277 0.0
C179 C 0.82031 0.07623 0.09481 0.0
C180 C 0.38398 0.30805 0.35728 0.0
C181 C 0.40364 0.32896 0.35473 0.0
C182 C 0.41404 0.34075 0.38245 0.0
C183 C 0.38667 0.31089 0.41417 0.0
C184 C 0.37574 0.29944 0.38722 0.0
C185 C 0.35439 0.27831 0.39458 0.0
H186 H 0.28466 0.20945 0.50675 0.0
C187 C 0.37393 0.2981 0.44144 0.0
C188 C 0.35475 0.27892 0.4303 0.0
H189 H 0.27276 0.20288 0.40576 0.0
H190 H 0.30926 0.23552 0.39838 0.0
H191 H 0.3522 0.21273 0.51869 0.0
H192 H 0.28534 0.27168 0.49713 0.0
H193 H 0.31166 0.28623 0.52203 0.0
H194 H 0.29662 0.25471 0.53713 0.0
H195 H 0.3301 0.21859 0.54677 0.0
H196 H 0.36094 0.23799 0.54344 0.0
C197 C 0.36454 0.25048 0.38813 0.0
C198 C 0.32616 0.28805 0.37424 0.0
C199 C 0.40447 0.32671 0.55204 0.0
C200 C 0.39568 0.31927 0.58189 0.0
C201 C 0.37412 0.30034 0.58353 0.0
C202 C 0.36236 0.28843 0.55678 0.0
C203 C 0.37157 0.29578 0.52742 0.0
C204 C 0.39196 0.31493 0.52522 0.0
C205 C 0.39787 0.32129 0.49148 0.0
C206 C 0.37818 0.30221 0.47417 0.0
C207 C 0.36298 0.28728 0.49543 0.0
C208 C 0.42864 0.31372 0.49199 0.0
C209 C 0.38999 0.3517 0.47929 0.0
C210 C 0.29015 0.21483 0.48312 0.0
C211 C 0.27608 0.20346 0.45688 0.0
C212 C 0.28339 0.21142 0.42634 0.0
C213 C 0.30447 0.23044 0.42212 0.0
C214 C 0.31797 0.24216 0.4486 0.0
C215 C 0.31056 0.23421 0.47842 0.0
C216 C 0.3256 0.24959 0.50365 0.0
C217 C 0.34367 0.26781 0.48449 0.0
C218 C 0.33939 0.26351 0.45214 0.0
C219 C 0.34305 0.22881 0.52975 0.0
C220 C 0.30386 0.26633 0.51595 0.0
H221 H 0.41499 0.3416 0.43179 0.0
H222 H 0.37531 0.29854 0.33663 0.0
H223 H 0.32314 0.31036 0.37358 0.0
H224 H 0.30843 0.27863 0.38418 0.0
H225 H 0.32489 0.28393 0.34913 0.0
H226 H 0.38677 0.24689 0.39877 0.0
H227 H 0.36237 0.24973 0.36195 0.0
H228 H 0.35336 0.23324 0.39903 0.0
H229 H 0.42082 0.34119 0.54947 0.0
H230 H 0.36588 0.29482 0.60551 0.0
H231 H 0.34636 0.274 0.56007 0.0
H232 H 0.43488 0.2948 0.50901 0.0
H233 H 0.44251 0.33018 0.49977 0.0
H234 H 0.43285 0.30918 0.46865 0.0
H235 H 0.37286 0.35857 0.49065 0.0
H236 H 0.38186 0.35557 0.45327 0.0
H237 H 0.40786 0.36508 0.48489 0.0
H238 H 0.42824 0.35751 0.38146 0.0
C239 C 0.40595 0.33172 0.41191 0.0
Tb240 Tb 0.02546 0.97311 0.50568 0.0
C241 C 0.9663 0.08667 0.50273 0.0
N242 N 0.9903 0.07546 0.52033 0.0
C243 C 0.01319 0.11787 0.50937 0.0
C244 C 0.96507 0.1137 0.48686 0.0
C245 C 0.0133 0.09109 0.52496 0.0
C246 C 0.98909 0.12912 0.48988 0.0
C247 C 0.91678 0.08303 0.48616 0.0
C248 C 0.9425 0.07145 0.50216 0.0
C249 C 0.91565 0.1095 0.46922 0.0
C250 C 0.93977 0.1248 0.46951 0.0
Tb251 Tb 0.98778 0.03159 0.5451 0.0
N252 N 0.9443 0.04603 0.5192 0.0
C253 C 0.89278 0.0682 0.48902 0.0
C254 C 0.92064 0.03237 0.52369 0.0
C255 C 0.8947 0.04285 0.50812 0.0
H256 H 0.03174 0.08337 0.54118 0.0
H257 H 0.87613 0.03179 0.51178 0.0
H258 H 0.98481 0.91752 0.50655 0.0
H259 H 0.13592 0.97972 0.53739 0.0
H260 H 0.92136 0.01415 0.54078 0.0
H261 H 0.8726 0.07677 0.47803 0.0
H262 H 0.08877 0.99543 0.51039 0.0
H263 H 0.03161 0.12996 0.51283 0.0
H264 H 0.8961 0.11863 0.45661 0.0
H265 H 0.93846 0.14548 0.45707 0.0
H266 H 0.98796 0.87041 0.5335 0.0
H267 H 0.98898 0.14999 0.47819 0.0
H268 H 0.14285 0.93383 0.56937 0.0
N269 N 0.0252 0.9281 0.52869 0.0
C270 C 0.04997 0.91785 0.54525 0.0
C271 C 0.00541 0.88367 0.53762 0.0
C272 C 0.05301 0.8905 0.5601 0.0
C273 C 0.00353 0.9108 0.52301 0.0
C274 C 0.03007 0.87362 0.55685 0.0
N275 N 0.06933 0.96016 0.5297 0.0
C276 C 0.09165 0.97593 0.52538 0.0
C277 C 0.0994 0.92394 0.56008 0.0
C278 C 0.07291 0.93421 0.54508 0.0
C279 C 0.12218 0.94087 0.55801 0.0
C280 C 0.11833 0.96684 0.54014 0.0
H281 H 0.03157 0.85248 0.56779 0.0
H282 H 0.08171 0.85967 0.58829 0.0
H283 H 0.12234 0.88907 0.5885 0.0
O284 O 0.04241 0.98402 0.46193 0.0
O285 O 0.04464 0.98088 0.55381 0.0
O286 O 0.00664 0.99373 0.57355 0.0
O287 O 0.02595 0.94424 0.47544 0.0
O288 O 0.03621 0.01645 0.49679 0.0
O289 O 0.03243 0.03506 0.54283 0.0
O290 O 0.96135 0.03526 0.57896 0.0
O291 O 0.98395 0.03476 0.49221 0.0
O292 O 0.98484 0.99013 0.48231 0.0
O293 O 1.00172 0.05406 0.58311 0.0
O294 O 0.96563 0.9932 0.54628 0.0
O295 O 0.98466 0.96218 0.51862 0.0
C296 C 0.03271 0.98565 0.57798 0.0
C297 C 0.04266 0.94871 0.42563 0.0
C298 C 0.06657 0.94736 0.38003 0.0
C299 C 0.05243 0.92356 0.37354 0.0
C300 C 0.02861 0.92499 0.41815 0.0
C301 C 0.03358 0.91252 0.39244 0.0
C302 C 0.0619 0.96 0.40638 0.0
C303 C 0.04491 0.03277 0.51812 0.0
C304 C 0.03788 0.9595 0.45489 0.0
C305 C 0.07908 0.88052 0.57643 0.0
C306 C 0.10224 0.89721 0.57642 0.0
C307 C 0.9777 0.01593 0.47328 0.0
C308 C 0.97364 0.06094 0.62391 0.0
C309 C 0.94856 0.06177 0.66897 0.0
C310 C 0.96469 0.0837 0.67807 0.0
C311 C 0.98939 0.08287 0.63374 0.0
C312 C 0.95284 0.05042 0.64155 0.0
C313 C 0.98484 0.09419 0.66054 0.0
C314 C 0.96598 0.96989 0.53484 0.0
C315 C 0.97885 0.05008 0.59478 0.0
H316 H 0.05605 0.91344 0.35364 0.0
H317 H 0.01382 0.91571 0.43245 0.0
H318 H 0.02282 0.89415 0.38721 0.0
H319 H 0.07312 0.9781 0.41188 0.0
H320 H 0.96158 0.0928 0.69888 0.0
H321 H 0.00511 0.09155 0.62045 0.0
H322 H 0.94037 0.03356 0.63428 0.0
H323 H 0.99701 0.11121 0.66776 0.0
Tb324 Tb 0.47528 0.48904 0.99395 0.0
C325 C 0.59363 0.53725 0.04051 0.0
N326 N 0.58315 0.51383 0.05372 0.0
C327 C 0.6281 0.49222 0.06259 0.0
C328 C 0.62179 0.53894 0.03721 0.0
C329 C 0.60021 0.49185 0.06604 0.0
C330 C 0.63888 0.51578 0.04768 0.0
C331 C 0.58694 0.58537 0.0209 0.0
C332 C 0.57631 0.55997 0.03185 0.0
C333 C 0.6149 0.58712 0.01711 0.0
C334 C 0.63218 0.56387 0.02481 0.0
Tb335 Tb 0.53706 0.51495 0.05702 0.0
N336 N 0.5494 0.55741 0.03596 0.0
C337 C 0.56947 0.60838 0.01555 0.0
C338 C 0.53286 0.58005 0.03237 0.0
C339 C 0.54237 0.60572 0.02147 0.0
H340 H 0.59243 0.47428 0.07955 0.0
H341 H 0.52907 0.62357 0.01873 0.0
H342 H 0.42559 0.53739 0.98185 0.0
H343 H 0.47795 0.38324 0.04742 0.0
H344 H 0.51299 0.57884 0.03965 0.0
H345 H 0.57702 0.62844 0.00838 0.0
H346 H 0.4984 0.42697 0.0305 0.0
H347 H 0.64136 0.47454 0.07202 0.0
H348 H 0.62362 0.60643 0.00911 0.0
H349 H 0.65377 0.56562 0.02218 0.0
H350 H 0.3764 0.53981 0.98689 0.0
H351 H 0.66061 0.51621 0.04547 0.0
H352 H 0.42732 0.38036 0.04586 0.0
N353 N 0.42991 0.49475 0.9984 0.0
C354 C 0.41679 0.47149 0.00759 0.0
C355 C 0.38756 0.52048 0.99293 0.0
C356 C 0.3884 0.47183 0.00977 0.0
C357 C 0.41567 0.5191 0.99073 0.0
C358 C 0.37384 0.49675 1.00243 0.0
N359 N 0.46008 0.44851 0.01683 0.0
C360 C 0.47643 0.4259 0.02826 0.0
C361 C 0.41961 0.42299 0.0269 0.0
C362 C 0.43224 0.4474 0.01619 0.0
C363 C 0.43622 0.39953 0.03748 0.0
C364 C 0.4648 0.40109 0.03846 0.0
H365 H 0.35203 0.4979 1.00402 0.0
H366 H 0.35374 0.44726 0.02132 0.0
H367 H 0.38104 0.40448 0.03611 0.0
O368 O 0.48005 0.46604 0.95598 0.0
O369 O 0.47109 0.48182 0.04527 0.0
O370 O 0.51604 0.47759 0.07157 0.0
O371 O 0.44689 0.49604 0.95157 0.0
O372 O 0.51617 0.4695 0.99777 0.0
O373 O 0.54286 0.47268 0.04784 0.0
O374 O 0.53159 0.53788 0.095 0.0
O375 O 0.54216 0.52117 0.00587 0.0
O376 O 0.49751 0.52539 0.97765 0.0
O377 O 0.56254 0.50559 0.10115 0.0
O378 O 0.49444 0.5315 0.05259 0.0
O379 O 0.47531 0.53218 0.99945 0.0
C380 C 0.4894 0.47512 0.07158 0.0
C381 C 0.44602 0.47315 0.90515 0.0
C382 C 0.44431 0.45022 0.85766 0.0
C383 C 0.42072 0.46594 0.84288 0.0
C384 C 0.42231 0.48853 0.88948 0.0
C385 C 0.40984 0.48491 0.85869 0.0
C386 C 0.45706 0.45367 0.88907 0.0
C387 C 0.53704 0.46151 0.02103 0.0
C388 C 0.45803 0.478 0.93814 0.0
C389 C 0.37558 0.44743 0.01964 0.0
C390 C 0.39111 0.42304 0.02799 0.0
C391 C 0.52436 0.52854 0.97931 0.0
C392 C 0.56227 0.52723 0.14811 0.0
C393 C 0.56609 0.55115 0.19505 0.0
C394 C 0.58516 0.53112 0.21213 0.0
C395 C 0.58157 0.50763 0.16605 0.0
C396 C 0.55435 0.5492 0.16285 0.0
C397 C 0.59282 0.50958 0.19771 0.0
C398 C 0.47678 0.5416 0.02692 0.0
C399 C 0.55192 0.52418 0.1141 0.0
H400 H 0.41063 0.46347 0.81888 0.0
H401 H 0.41319 0.50351 0.90103 0.0
H402 H 0.39162 0.4969 0.84701 0.0
H403 H 0.47524 0.44152 0.90065 0.0
H404 H 0.5944 0.53234 0.23678 0.0
H405 H 0.58823 0.49063 0.15558 0.0
H406 H 0.53984 0.56476 0.14939 0.0
H407 H 0.60772 0.49439 0.2111 0.0
H408 H 0.22143 0.21094 0.43106 0.0
H409 H 0.18273 0.18145 0.44219 0.0
H410 H 0.24 0.12377 0.50464 0.0
H411 H 0.27867 0.15362 0.49404 0.0
H412 H 0.20002 0.09848 0.46431 0.0
H413 H 0.20298 0.16267 0.53798 0.0
H414 H 0.20432 0.20803 0.55547 0.0
H415 H 0.12599 0.22943 0.49524 0.0
H416 H 0.12437 0.18427 0.47706 0.0
H417 H 0.09788 0.02839 0.55112 0.0
H418 H 0.13795 0.05563 0.53895 0.0
H419 H 0.08485 0.1059 0.46247 0.0
H420 H 0.04525 0.07728 0.47294 0.0
H421 H 0.12331 0.13408 0.51056 0.0
H422 H 0.12078 0.06903 0.4372 0.0
H423 H 0.12085 0.0241 0.41882 0.0
H424 H 0.19955 0.00411 0.47883 0.0
H425 H 0.19969 0.04876 0.49807 0.0
C426 C 0.22573 0.19182 0.44687 0.0
C427 C 0.25302 0.18444 0.4615 0.0
C428 C 0.20361 0.17506 0.45341 0.0
C429 C 0.20835 0.15038 0.47441 0.0
C430 C 0.23575 0.14266 0.48838 0.0
C431 C 0.25782 0.15969 0.48233 0.0
C432 C 0.18465 0.13293 0.48209 0.0
C433 C 0.18347 0.10614 0.47487 0.0
C434 C 0.16271 0.14297 0.49535 0.0
C435 C 0.1637 0.17022 0.50591 0.0
C436 C 0.18617 0.17715 0.52822 0.0
C437 C 0.18696 0.2028 0.53832 0.0
C438 C 0.16529 0.22163 0.52641 0.0
C439 C 0.14278 0.21483 0.5044 0.0
C440 C 0.14191 0.18921 0.49422 0.0
C441 C 0.09488 0.04514 0.53157 0.0
C442 C 0.06859 0.0506 0.51272 0.0
C443 C 0.11775 0.06067 0.52463 0.0
C444 C 0.11449 0.08271 0.49962 0.0
C445 C 0.08794 0.08886 0.48166 0.0
C446 C 0.06534 0.07259 0.4877 0.0
C447 C 0.13862 0.09968 0.49263 0.0
C448 C 0.13991 0.12638 0.50009 0.0
C449 C 0.1607 0.08947 0.47973 0.0
C450 C 0.15999 0.06207 0.46953 0.0
C451 C 0.13784 0.05486 0.44698 0.0
C452 C 0.13791 0.02949 0.43626 0.0
C453 C 0.16013 0.01121 0.44775 0.0
C454 C 0.1823 0.01824 0.47005 0.0
C455 C 0.18229 0.04357 0.48089 0.0
H456 H 0.16023 0.99165 0.43926 0.0
H457 H 0.16591 0.24147 0.53429 0.0
H458 H 0.32359 0.7412 0.0724 0.0
H459 H 0.35253 0.70021 0.07618 0.0
H460 H 0.39314 0.73956 1.00031 0.0
H461 H 0.36507 0.78067 0.99702 0.0
H462 H 0.37166 0.69022 0.98788 0.0
H463 H 0.42855 0.72648 0.07413 0.0
H464 H 0.4386 0.74474 0.12556 0.0
H465 H 0.4114 0.67042 0.17453 0.0
H466 H 0.40083 0.65186 0.12328 0.0
H467 H 0.46984 0.5874 0.98305 0.0
H468 H 0.44614 0.6299 0.98631 0.0
H469 H 0.42202 0.59384 0.07554 0.0
H470 H 0.44802 0.55211 0.07353 0.0
H471 H 0.43432 0.64178 0.08196 0.0
H472 H 0.37699 0.60531 0.99522 0.0
H473 H 0.36591 0.58781 0.94337 0.0
H474 H 0.39206 0.66282 0.89482 0.0
H475 H 0.40374 0.68057 0.94642 0.0
C476 C 0.33915 0.74138 0.05707 0.0
C477 C 0.34159 0.76414 0.03398 0.0
C478 C 0.35563 0.71787 0.05919 0.0
C479 C 0.37483 0.71669 0.03829 0.0
C480 C 0.37826 0.73985 0.01644 0.0
C481 C 0.36205 0.76333 0.01449 0.0
C482 C 0.38981 0.69082 0.0372 0.0
C483 C 0.38562 0.67974 0.00835 0.0
C484 C 0.40741 0.67677 0.06409 0.0
C485 C 0.41359 0.68793 0.09485 0.0
C486 C 0.42445 0.71415 0.09582 0.0
C487 C 0.4303 0.72452 0.12495 0.0
C488 C 0.42555 0.70878 0.15329 0.0
C489 C 0.41501 0.68261 0.15256 0.0
C490 C 0.4091 0.67215 0.12349 0.0
C491 C 0.45926 0.58856 1.0032 0.0
C492 C 0.46053 0.56647 0.02794 0.0
C493 C 0.44554 0.61284 0.00501 0.0
C494 C 0.43148 0.61514 0.03078 0.0
C495 C 0.43258 0.59281 0.05536 0.0
C496 C 0.44728 0.56888 0.05416 0.0
C497 C 0.41617 0.64088 0.03248 0.0
C498 C 0.42026 0.65202 0.06144 0.0
C499 C 0.39826 0.65498 0.00566 0.0
C500 C 0.39145 0.64416 0.97471 0.0
C501 C 0.38057 0.61798 0.97351 0.0
C502 C 0.37417 0.60802 0.94416 0.0
C503 C 0.37832 0.62417 0.91582 0.0
C504 C 0.38889 0.65031 0.91677 0.0
C505 C 0.3954 0.66033 0.94606 0.0
H506 H 0.3733 0.61645 0.89312 0.0
H507 H 0.43011 0.71685 0.17582 0.0
H508 H 0.78773 0.78829 0.60819 0.0
H509 H 0.82713 0.81677 0.59756 0.0
H510 H 0.77113 0.88481 0.55886 0.0
H511 H 0.73165 0.85581 0.56838 0.0
H512 H 0.80818 0.88258 0.52188 0.0
H513 H 0.81328 0.87932 0.6356 0.0
H514 H 0.81521 0.8568 0.69126 0.0
H515 H 0.89083 0.81526 0.68631 0.0
H516 H 0.88913 0.83726 0.63045 0.0
H517 H 0.91156 0.98063 0.5111 0.0
H518 H 0.8721 0.95425 0.52419 0.0
H519 H 0.92761 0.88882 0.57426 0.0
H520 H 0.96722 0.91787 0.56627 0.0
H521 H 0.8899 0.89016 0.60579 0.0
H522 H 0.88438 0.89269 0.49127 0.0
H523 H 0.88278 0.916 0.43598 0.0
H524 H 0.80828 0.95891 0.4421 0.0
H525 H 0.8096 0.93604 0.49757 0.0
C526 C 0.78399 0.80943 0.59777 0.0
C527 C 0.75687 0.8201 0.58955 0.0
C528 C 0.80646 0.82573 0.59175 0.0
C529 C 0.80226 0.85318 0.57791 0.0
C530 C 0.775 0.86378 0.56966 0.0
C531 C 0.75248 0.84733 0.57528 0.0
C532 C 0.82621 0.87058 0.5714 0.0
C533 C 0.82592 0.88447 0.54034 0.0
C534 C 0.84972 0.8727 0.59516 0.0
C535 C 0.85095 0.85975 0.62882 0.0
C536 C 0.83023 0.86526 0.64635 0.0
C537 C 0.83129 0.8526 0.67792 0.0
C538 C 0.85309 0.83456 0.69229 0.0
C539 C 0.87394 0.82921 0.67514 0.0
C540 C 0.87295 0.84179 0.64355 0.0
C541 C 0.91532 0.96117 0.52613 0.0
C542 C 0.94241 0.95178 0.5387 0.0
C543 C 0.89265 0.9455 0.53259 0.0
C544 C 0.89651 0.919 0.5496 0.0
C545 C 0.92381 0.90913 0.56109 0.0
C546 C 0.94653 0.92552 0.55605 0.0
C547 C 0.87221 0.90191 0.55604 0.0
C548 C 0.87233 0.88816 0.58717 0.0
C549 C 0.84858 0.89982 0.53226 0.0
C550 C 0.84715 0.91273 0.49854 0.0
C551 C 0.86765 0.90707 0.48079 0.0
C552 C 0.86682 0.92024 0.44946 0.0
C553 C 0.84545 0.9389 0.43555 0.0
C554 C 0.8248 0.94441 0.45289 0.0
C555 C 0.82554 0.93131 0.48425 0.0
H556 H 0.84489 0.94901 0.41129 0.0
H557 H 0.85386 0.82476 0.71673 0.0
H558 H 0.7093 0.26297 0.03537 0.0
H559 H 0.68169 0.30472 0.03148 0.0
H560 H 0.60812 0.26278 0.99583 0.0
H561 H 0.63615 0.22104 0.99886 0.0
H562 H 0.60794 0.31443 0.96484 0.0
H563 H 0.62278 0.27259 0.07523 0.0
H564 H 0.65112 0.25206 0.12621 0.0
H565 H 0.69604 0.32626 0.1318 0.0
H566 H 0.66816 0.34713 0.08065 0.0
H567 H 0.51851 0.41972 0.98733 0.0
H568 H 0.54138 0.3764 0.98757 0.0
H569 H 0.61553 0.40436 0.04243 0.0
H570 H 0.59135 0.44574 0.04584 0.0
H571 H 0.61293 0.35685 0.0641 0.0
H572 H 0.6006 0.3985 0.95246 0.0
H573 H 0.57239 0.41958 0.90161 0.0
H574 H 0.52441 0.3471 0.89736 0.0
H575 H 0.55214 0.32574 0.94837 0.0
C576 C 0.68729 0.26287 0.02625 0.0
C577 C 0.67475 0.23899 0.01737 0.0
C578 C 0.67149 0.28662 0.02425 0.0
C579 C 0.64269 0.2868 0.01399 0.0
C580 C 0.63027 0.26313 1.00393 0.0
C581 C 0.64621 0.23936 0.00561 0.0
C582 C 0.62564 0.31144 0.01483 0.0
C583 C 0.6088 0.32361 0.9866 0.0
C584 C 0.62701 0.32371 0.04306 0.0
C585 C 0.64349 0.31135 0.07406 0.0
C586 C 0.63878 0.28448 0.08728 0.0
C587 C 0.65475 0.27279 0.1162 0.0
C588 C 0.67538 0.28783 0.13221 0.0
C589 C 0.68004 0.31463 0.11938 0.0
C590 C 0.66413 0.32641 0.09045 0.0
C591 C 0.53951 0.41652 1.00012 0.0
C592 C 0.55253 0.43626 0.01797 0.0
C593 C 0.55291 0.39172 0.9996 0.0
C594 C 0.58062 0.38682 0.01455 0.0
C595 C 0.59406 0.40707 0.03102 0.0
C596 C 0.58008 0.43112 0.03305 0.0
C597 C 0.5957 0.36071 0.0137 0.0
C598 C 0.61209 0.34801 0.04212 0.0
C599 C 0.59417 0.34819 0.9855 0.0
C600 C 0.57832 0.36062 0.95424 0.0
C601 C 0.58405 0.38709 0.94063 0.0
C602 C 0.56811 0.39909 0.91183 0.0
C603 C 0.54659 0.38471 0.89629 0.0
C604 C 0.54107 0.35822 0.90942 0.0
C605 C 0.55691 0.34614 0.93823 0.0
H606 H 0.53421 0.39408 0.87406 0.0
H607 H 0.68774 0.27874 0.15459 0.0
H608 H 0.23514 0.90543 0.19483 0.0
H609 H 0.21351 0.91973 0.23753 0.0
H610 H 0.13514 0.93059 0.17366 0.0
H611 H 0.1562 0.9153 0.13114 0.0
H612 H 0.14651 0.97322 0.20895 0.0
H613 H 0.14537 0.87609 0.22669 0.0
H614 H 0.16548 0.82969 0.23411 0.0
H615 H 0.219 0.84569 0.3196 0.0
H616 H 0.19955 0.89242 0.31234 0.0
H617 H 0.05266 0.97005 0.31854 0.0
H618 H 0.08095 0.96859 0.27716 0.0
H619 H 0.15228 0.94488 0.35 0.0
H620 H 0.1231 0.94474 0.39158 0.0
H621 H 0.14721 0.91064 0.31052 0.0
H622 H 0.14556 0.009 0.29234 0.0
H623 H 0.12358 0.05475 0.28299 0.0
H624 H 0.07273 0.03545 0.19729 0.0
H625 H 0.09428 0.98954 0.20624 0.0
C626 C 0.21324 0.91054 0.18985 0.0
C627 C 0.19748 0.90901 0.15943 0.0
C628 C 0.20096 0.91892 0.21427 0.0
C629 C 0.17271 0.9261 0.20879 0.0
C630 C 0.15701 0.92525 0.17834 0.0
C631 C 0.16919 0.9166 0.15399 0.0
C632 C 0.15937 0.93381 0.2351 0.0
C633 C 0.14652 0.95954 0.23115 0.0
C634 C 0.15971 0.91605 0.26414 0.0
C635 C 0.17124 0.88787 0.26877 0.0
C636 C 0.1616 0.86981 0.24692 0.0
C637 C 0.17286 0.84344 0.25111 0.0
C638 C 0.19357 0.83478 0.27726 0.0
C639 C 0.203 0.85245 0.29932 0.0
C640 C 0.19187 0.87889 0.29518 0.0
C641 C 0.07468 0.96583 0.32573 0.0
C642 C 0.08579 0.9578 0.35815 0.0
C643 C 0.09095 0.96495 0.30199 0.0
C644 C 0.11897 0.95677 0.31022 0.0
C645 C 0.13074 0.95123 0.34295 0.0
C646 C 0.11422 0.95161 0.36677 0.0
C647 C 0.13462 0.95049 0.28487 0.0
C648 C 0.14766 0.92472 0.28874 0.0
C649 C 0.13423 0.96817 0.25563 0.0
C650 C 0.12149 0.99585 0.25003 0.0
C651 C 0.12963 0.0145 0.27157 0.0
C652 C 0.11726 0.04046 0.26632 0.0
C653 C 0.09676 0.04799 0.23957 0.0
C654 C 0.08864 0.02961 0.21796 0.0
C655 C 0.10098 0.00365 0.22306 0.0
H656 H 0.08719 0.06809 0.23558 0.0
H657 H 0.20225 0.81434 0.28047 0.0
H658 H 0.63269 0.63143 0.73393 0.0
H659 H 0.61833 0.60696 0.7824 0.0
H660 H 0.55487 0.66837 0.77716 0.0
H661 H 0.56975 0.69308 0.72897 0.0
H662 H 0.57811 0.65418 0.83707 0.0
H663 H 0.53952 0.60587 0.75245 0.0
H664 H 0.53969 0.58229 0.70536 0.0
H665 H 0.59593 0.52126 0.76238 0.0
H666 H 0.59644 0.54475 0.80974 0.0
H667 H 0.49963 0.57361 0.94164 0.0
H668 H 0.51461 0.59971 0.89455 0.0
H669 H 0.58557 0.54579 0.90638 0.0
H670 H 0.57099 0.52004 0.95428 0.0
H671 H 0.55667 0.55593 0.84212 0.0
H672 H 0.60054 0.60994 0.92282 0.0
H673 H 0.60461 0.63823 0.96636 0.0
H674 H 0.53594 0.68842 0.91496 0.0
H675 H 0.53256 0.66141 0.87008 0.0
C676 C 0.61602 0.63986 0.74359 0.0
C677 C 0.60246 0.66417 0.72815 0.0
C678 C 0.60759 0.62574 0.77099 0.0
C679 C 0.5851 0.63547 0.78315 0.0
C680 C 0.57215 0.66034 0.76822 0.0
C681 C 0.58069 0.67452 0.74084 0.0
C682 C 0.57513 0.61968 0.81134 0.0
C683 C 0.57298 0.63282 0.83783 0.0
C684 C 0.56878 0.59165 0.81278 0.0
C685 C 0.5682 0.57719 0.78456 0.0
C686 C 0.55206 0.58751 0.7549 0.0
C687 C 0.55202 0.57416 0.72817 0.0
C688 C 0.56786 0.55032 0.73086 0.0
C689 C 0.58369 0.53974 0.76033 0.0
C690 C 0.58385 0.55305 0.78714 0.0
C691 C 0.51852 0.56743 0.93431 0.0
C692 C 0.53422 0.54485 0.95165 0.0
C693 C 0.5271 0.5824 0.90744 0.0
C694 C 0.55129 0.57481 0.89693 0.0
C695 C 0.5669 0.5521 0.91409 0.0
C696 C 0.55867 0.53749 0.9415 0.0
C697 C 0.56002 0.59047 0.86787 0.0
C698 C 0.56171 0.57732 0.84116 0.0
C699 C 0.56558 0.6186 0.8659 0.0
C700 C 0.56598 0.63344 0.89354 0.0
C701 C 0.5861 0.6268 0.92104 0.0
C702 C 0.5884 0.64269 0.94581 0.0
C703 C 0.57016 0.66469 0.94383 0.0
C704 C 0.54988 0.6712 0.91665 0.0
C705 C 0.54794 0.65581 0.89138 0.0
H706 H 0.57194 0.67684 0.96321 0.0
H707 H 0.56782 0.54002 0.71012 0.0
H708 H 0.85864 0.11398 0.1857 0.0
H709 H 0.8848 0.10265 0.24028 0.0
H710 H 0.84927 0.02271 0.24723 0.0
H711 H 0.82347 0.03396 0.19231 0.0
H712 H 0.8491 0.0464 0.30192 0.0
H713 H 0.91368 0.02853 0.23555 0.0
H714 H 0.93957 0.0388 0.19063 0.0
H715 H 0.97864 0.10556 0.23342 0.0
H716 H 0.95256 0.09596 0.27838 0.0
H717 H 0.9427 0.984 0.43862 0.0
H718 H 0.91659 0.99564 0.38435 0.0
H719 H 0.94988 0.07646 0.37908 0.0
H720 H 0.97576 0.06505 0.43392 0.0
H721 H 0.95159 0.05193 0.32309 0.0
H722 H 0.88481 0.06976 0.38869 0.0
H723 H 0.85544 0.06077 0.43043 0.0
H724 H 0.81976 0.99276 0.38765 0.0
H725 H 0.84891 0.00128 0.34549 0.0
C726 C 0.85642 0.09405 0.19902 0.0
C727 C 0.83919 0.07478 0.18498 0.0
C728 C 0.87142 0.08754 0.23008 0.0
C729 C 0.86924 0.06171 0.2478 0.0
C730 C 0.8514 0.04269 0.234 0.0
C731 C 0.83674 0.04907 0.2027 0.0
C732 C 0.88563 0.05461 0.28065 0.0
C733 C 0.87154 0.04722 0.30646 0.0
C734 C 0.91488 0.05612 0.28675 0.0
C735 C 0.93099 0.06169 0.26016 0.0
C736 C 0.92765 0.04552 0.23527 0.0
C737 C 0.94237 0.05121 0.20981 0.0
C738 C 0.9607 0.07286 0.20913 0.0
C739 C 0.9644 0.08882 0.23397 0.0
C740 C 0.94967 0.08325 0.25946 0.0
C741 C 0.94444 0.0043 0.42598 0.0
C742 C 0.96127 0.02363 0.44065 0.0
C743 C 0.92943 0.01094 0.39494 0.0
C744 C 0.93114 0.03697 0.37757 0.0
C745 C 0.94817 0.05627 0.392 0.0
C746 C 0.96282 0.04979 0.4234 0.0
C747 C 0.915 0.04387 0.34447 0.0
C748 C 0.92917 0.05111 0.31856 0.0
C749 C 0.88579 0.04195 0.33818 0.0
C750 C 0.86933 0.03589 0.36429 0.0
C751 C 0.87105 0.05258 0.38851 0.0
C752 C 0.85446 0.04758 0.41224 0.0
C753 C 0.83616 0.02589 0.41212 0.0
C754 C 0.83422 0.0093 0.388 0.0
C755 C 0.85071 0.01425 0.36412 0.0
H756 H 0.8233 0.02212 0.43052 0.0
H757 H 0.97207 0.07725 0.18939 0.0
H758 H 0.41768 0.37055 0.58653 0.0
H759 H 0.43484 0.39012 0.63554 0.0
H760 H 0.41818 0.31517 0.69286 0.0
H761 H 0.40303 0.29472 0.64463 0.0
H762 H 0.39253 0.36483 0.7056 0.0
H763 H 0.48001 0.32694 0.69383 0.0
H764 H 0.51905 0.32055 0.6657 0.0
H765 H 0.5359 0.40602 0.65964 0.0
H766 H 0.49659 0.41299 0.68728 0.0
H767 H 0.43343 0.39618 0.85994 0.0
H768 H 0.43303 0.37023 0.81503 0.0
H769 H 0.47355 0.43629 0.76497 0.0
H770 H 0.4748 0.46163 0.81033 0.0
H771 H 0.48796 0.39169 0.747 0.0
H772 H 0.40108 0.43066 0.75742 0.0
H773 H 0.36016 0.43902 0.7817 0.0
H774 H 0.3398 0.35439 0.78615 0.0
H775 H 0.38094 0.34542 0.76255 0.0
C776 C 0.41826 0.3579 0.60947 0.0
C777 C 0.40831 0.33107 0.61129 0.0
C778 C 0.42796 0.36925 0.63749 0.0
C779 C 0.42756 0.35412 0.66779 0.0
C780 C 0.41846 0.32724 0.66971 0.0
C781 C 0.40942 0.31572 0.64191 0.0
C782 C 0.4347 0.36659 0.69766 0.0
C783 C 0.41346 0.37039 0.71494 0.0
C784 C 0.46181 0.37461 0.70916 0.0
C785 C 0.48516 0.37054 0.69222 0.0
C786 C 0.49181 0.34443 0.68613 0.0
C787 C 0.51404 0.34069 0.67036 0.0
C788 C 0.52989 0.36288 0.66078 0.0
C789 C 0.52356 0.38886 0.667 0.0
C790 C 0.50131 0.39272 0.68271 0.0
C791 C 0.44358 0.40443 0.84009 0.0
C792 C 0.45439 0.43076 0.83867 0.0
C793 C 0.44286 0.38986 0.81411 0.0
C794 C 0.45235 0.40169 0.78601 0.0
C795 C 0.46582 0.42676 0.78611 0.0
C796 C 0.4668 0.44116 0.8122 0.0
C797 C 0.44579 0.38953 0.75559 0.0
C798 C 0.46702 0.38603 0.73792 0.0
C799 C 0.41847 0.38206 0.7434 0.0
C800 C 0.39432 0.38731 0.75867 0.0
C801 C 0.38809 0.41378 0.76398 0.0
C802 C 0.36481 0.41863 0.77756 0.0
C803 C 0.34744 0.39724 0.78556 0.0
C804 C 0.35333 0.37093 0.78006 0.0
C805 C 0.37665 0.36594 0.76665 0.0
H806 H 0.32935 0.40106 0.79593 0.0
H807 H 0.54714 0.35993 0.64864 0.0
H808 H 0.64619 0.67115 0.42674 0.0
H809 H 0.63067 0.6516 0.37771 0.0
H810 H 0.54752 0.64731 0.39879 0.0
H811 H 0.56292 0.66735 0.44808 0.0
H812 H 0.56438 0.60075 0.3757 0.0
H813 H 0.56264 0.69847 0.34367 0.0
H814 H 0.58293 0.74419 0.3414 0.0
H815 H 0.64865 0.71678 0.29764 0.0
H816 H 0.62886 0.67085 0.29988 0.0
H817 H 0.52142 0.55924 0.22382 0.0
H818 H 0.52145 0.58649 0.26763 0.0
H819 H 0.60118 0.61815 0.25209 0.0
H820 H 0.60001 0.59256 0.2073 0.0
H821 H 0.57896 0.65405 0.27267 0.0
H822 H 0.587 0.557 0.30849 0.0
H823 H 0.57243 0.50913 0.31448 0.0
H824 H 0.50254 0.53131 0.35498 0.0
H825 H 0.51641 0.57939 0.34867 0.0
C826 C 0.62454 0.66622 0.42094 0.0
C827 C 0.60568 0.67137 0.44103 0.0
C828 C 0.61572 0.65496 0.3929 0.0
C829 C 0.58781 0.64857 0.38418 0.0
C830 C 0.56912 0.65234 0.40493 0.0
C831 C 0.57796 0.6637 0.43313 0.0
C832 C 0.57835 0.63852 0.35302 0.0
C833 C 0.56705 0.61252 0.35302 0.0
C834 C 0.58254 0.65361 0.3236 0.0
C835 C 0.59429 0.68127 0.32198 0.0
C836 C 0.58146 0.7022 0.33366 0.0
C837 C 0.59287 0.72814 0.33237 0.0
C838 C 0.61706 0.73339 0.31938 0.0
C839 C 0.62989 0.71271 0.30764 0.0
C840 C 0.61855 0.68674 0.30884 0.0
C841 C 0.53816 0.57318 0.22881 0.0
C842 C 0.56058 0.57409 0.21201 0.0
C843 C 0.53856 0.58826 0.25439 0.0
C844 C 0.56184 0.60371 0.26424 0.0
C845 C 0.583 0.60637 0.24544 0.0
C846 C 0.58227 0.59187 0.21955 0.0
C847 C 0.56557 0.61564 0.29502 0.0
C848 C 0.57583 0.64216 0.29509 0.0
C849 C 0.56117 0.60062 0.32464 0.0
C850 C 0.55248 0.57184 0.32761 0.0
C851 C 0.56835 0.55171 0.31833 0.0
C852 C 0.56024 0.52454 0.32183 0.0
C853 C 0.5365 0.5172 0.33497 0.0
C854 C 0.52084 0.53703 0.34466 0.0
C855 C 0.52878 0.56424 0.34107 0.0
H856 H 0.53031 0.49614 0.33776 0.0
H857 H 0.62585 0.75349 0.31839 0.0
H858 H 0.78097 0.10637 0.85283 0.0
H859 H 0.80372 0.09475 0.8105 0.0
H860 H 0.87242 0.05905 0.88044 0.0
H861 H 0.85199 0.07431 0.92281 0.0
H862 H 0.89241 0.08365 0.83557 0.0
H863 H 0.81673 0.02098 0.83406 0.0
H864 H 0.76758 0.00888 0.83178 0.0
H865 H 0.7471 0.05854 0.73994 0.0
H866 H 0.79609 0.07112 0.74182 0.0
H867 H 0.9576 0.02843 0.72581 0.0
H868 H 0.92902 0.02687 0.76797 0.0
H869 H 0.86513 0.07415 0.70137 0.0
H870 H 0.8936 0.07521 0.65903 0.0
H871 H 0.84237 0.04077 0.74497 0.0
H872 H 0.91709 0.10412 0.74738 0.0
H873 H 0.96537 0.11929 0.75075 0.0
H874 H 0.98709 0.06985 0.84257 0.0
H875 H 0.93904 0.05397 0.83945 0.0
C876 C 0.80121 0.09669 0.85965 0.0
C877 C 0.81433 0.09168 0.89203 0.0
C878 C 0.81396 0.08927 0.83506 0.0
C879 C 0.83957 0.07521 0.842 0.0
C880 C 0.85257 0.06969 0.87419 0.0
C881 C 0.84041 0.07813 0.89873 0.0
C882 C 0.85348 0.06744 0.81576 0.0
C883 C 0.88152 0.07364 0.81625 0.0
C884 C 0.83929 0.05522 0.78972 0.0
C885 C 0.81002 0.04702 0.78813 0.0
C886 C 0.80172 0.02931 0.8134 0.0
C887 C 0.7739 0.0224 0.81219 0.0
C888 C 0.75423 0.03295 0.78574 0.0
C889 C 0.76236 0.05036 0.76039 0.0
C890 C 0.79015 0.05733 0.76147 0.0
C891 C 0.93689 0.03731 0.71982 0.0
C892 C 0.92772 0.05181 0.68917 0.0
C893 C 0.9207 0.03676 0.74403 0.0
C894 C 0.89525 0.05112 0.73816 0.0
C895 C 0.88478 0.06313 0.70662 0.0
C896 C 0.90095 0.06356 0.68232 0.0
C897 C 0.88133 0.05649 0.76533 0.0
C898 C 0.85329 0.05017 0.76478 0.0
C899 C 0.89553 0.06855 0.79147 0.0
C900 C 0.92457 0.07756 0.79295 0.0
C901 C 0.93224 0.09622 0.7681 0.0
C902 C 0.95955 0.10499 0.76999 0.0
C903 C 0.97931 0.09546 0.79679 0.0
C904 C 0.9718 0.07713 0.82176 0.0
C905 C 0.94454 0.06821 0.81992 0.0
H906 H 1.00042 0.10236 0.79827 0.0
H907 H 0.73269 0.02762 0.78489 0.0
H908 H 0.37426 0.33405 0.29268 0.0
H909 H 0.38912 0.35649 0.24347 0.0
H910 H 0.46884 0.37134 0.29742 0.0
H911 H 0.45515 0.34753 0.34595 0.0
H912 H 0.44087 0.41895 0.26005 0.0
H913 H 0.46848 0.32853 0.25097 0.0
H914 H 0.46307 0.2795 0.24794 0.0
H915 H 0.40202 0.29758 0.16284 0.0
H916 H 0.40671 0.34678 0.16571 0.0
H917 H 0.5182 0.46592 0.13315 0.0
H918 H 0.50293 0.44102 0.18089 0.0
H919 H 0.42426 0.42678 0.12414 0.0
H920 H 0.43844 0.45332 0.07737 0.0
H921 H 0.45086 0.37875 0.16244 0.0
H922 H 0.42409 0.46964 0.17156 0.0
H923 H 0.42909 0.51851 0.17585 0.0
H924 H 0.48899 0.49945 0.26183 0.0
H925 H 0.48468 0.45043 0.25775 0.0
C926 C 0.39518 0.34146 0.29403 0.0
C927 C 0.41318 0.33944 0.32373 0.0
C928 C 0.40357 0.35449 0.26586 0.0
C929 C 0.42994 0.36598 0.26692 0.0
C930 C 0.44826 0.363 0.29612 0.0
C931 C 0.4402 0.34952 0.32399 0.0
C932 C 0.43822 0.3823 0.23813 0.0
C933 C 0.44337 0.4101 0.23883 0.0
C934 C 0.44096 0.37087 0.21026 0.0
C935 C 0.43763 0.34132 0.20885 0.0
C936 C 0.4536 0.32206 0.23188 0.0
C937 C 0.45074 0.29423 0.23013 0.0
C938 C 0.43213 0.28542 0.20529 0.0
C939 C 0.41636 0.30443 0.18213 0.0
C940 C 0.41911 0.33229 0.18381 0.0
C941 C 0.49762 0.45752 0.13082 0.0
C942 C 0.4799 0.46088 0.1009 0.0
C943 C 0.48891 0.44335 0.15816 0.0
C944 C 0.46256 0.43172 0.15599 0.0
C945 C 0.44478 0.4353 0.12633 0.0
C946 C 0.4531 0.45026 0.09937 0.0
C947 C 0.4536 0.41542 0.18439 0.0
C948 C 0.44833 0.38763 0.18364 0.0
C949 C 0.45085 0.42685 0.2123 0.0
C950 C 0.45438 0.45636 0.21405 0.0
C951 C 0.43868 0.47587 0.19108 0.0
C952 C 0.44129 0.5036 0.19356 0.0
C953 C 0.45943 0.51209 0.21902 0.0
C954 C 0.47502 0.49285 0.24205 0.0
C955 C 0.4725 0.46509 0.23966 0.0
H956 H 0.46134 0.53357 0.22097 0.0
H957 H 0.43 0.26387 0.20392 0.0
H958 H 0.15142 0.96488 0.87427 0.0
H959 H 0.12581 0.97498 0.82045 0.0
H960 H 0.16646 0.90782 0.79212 0.0
H961 H 0.19031 0.89534 0.8465 0.0
H962 H 0.16364 0.95813 0.74812 0.0
H963 H 0.10584 0.89759 0.80312 0.0
H964 H 0.08075 0.88096 0.8473 0.0
H965 H 0.03049 0.95411 0.82684 0.0
H966 H 0.05576 0.97145 0.78295 0.0
H967 H 0.07919 0.95366 0.59891 0.0
H968 H 0.10516 0.94285 0.65244 0.0
H969 H 0.05051 0.99562 0.68687 0.0
H970 H 0.023 0.00491 0.63276 0.0
H971 H 0.06116 0.95223 0.7286 0.0
H972 H 0.11989 0.01277 0.67281 0.0
H973 H 0.1468 0.02928 0.6302 0.0
H974 H 0.19638 0.9557 0.65254 0.0
H975 H 0.16945 0.93856 0.6949 0.0
C976 C 0.15478 0.95149 0.85737 0.0
C977 C 0.17305 0.92863 0.8662 0.0
C978 C 0.14018 0.95775 0.82611 0.0
C979 C 0.14402 0.94203 0.80235 0.0
C980 C 0.16311 0.9202 0.81018 0.0
C981 C 0.17706 0.91329 0.84169 0.0
C982 C 0.12754 0.94804 0.76954 0.0
C983 C 0.14125 0.95657 0.7437 0.0
C984 C 0.09834 0.94643 0.76395 0.0
C985 C 0.08292 0.93597 0.79004 0.0
C986 C 0.08964 0.91026 0.80827 0.0
C987 C 0.07537 0.90069 0.83323 0.0
C988 C 0.0541 0.91651 0.83995 0.0
C989 C 0.04702 0.9419 0.82165 0.0
C990 C 0.06132 0.95162 0.79674 0.0
C991 C 0.0724 0.96279 0.61761 0.0
C992 C 0.04874 0.97988 0.61119 0.0
C993 C 0.08762 0.95687 0.64849 0.0
C994 C 0.08035 0.96884 0.6739 0.0
C995 C 0.05669 0.98609 0.66775 0.0
C996 C 0.04096 0.99143 0.63676 0.0
C997 C 0.09714 0.96282 0.7068 0.0
C998 C 0.08351 0.95406 0.73281 0.0
C999 C 0.12651 0.96415 0.71251 0.0
C1000 C 0.14248 0.9743 0.6868 0.0
C1001 C 0.13637 1.00002 0.66843 0.0
C1002 C 0.15165 0.00949 0.64435 0.0
C1003 C 0.17324 0.99352 0.63862 0.0
C1004 C 0.17961 0.96803 0.65696 0.0
C1005 C 0.16435 0.95843 0.681 0.0
H1006 H 0.18508 0.00093 0.62002 0.0
H1007 H 0.04305 0.90906 0.85928 0.0
loop_
_geom_bond_atom_site_label_1
_geom_bond_atom_site_label_2
_geom_bond_distance
_geom_bond_site_symmetry_2
_ccdc_geom_bond_type
C0 C1 1.391 . S
C0 C4 1.391 . S
C0 H42 0.948 . S
C1 C0 1.391 . S
C1 C2 1.391 . S
C2 C1 1.391 . S
C2 H58 0.947 . S
C2 C59 1.392 . S
C3 C4 1.391 . S
C3 C7 1.397 . S
C3 C59 1.419 . S
C4 C0 1.391 . S
C4 C3 1.391 . S
C4 C5 1.399 . S
C5 C4 1.399 . S
C5 C8 1.396 . S
C5 C17 1.453 . S
C5 C18 1.684 . S
H6 C30 0.948 . S
C7 C3 1.397 . S
C7 C8 1.394 . S
C7 C26 1.723 1_556 S
C8 C5 1.396 . S
C8 C7 1.394 . S
C8 C38 1.723 1_556 S
H9 C32 0.947 . S
H10 C33 0.948 . S
H11 C39 0.982 . S
H12 C40 0.979 . S
H13 C40 0.980 . S
H14 C40 0.983 . S
H15 C39 0.979 . S
H16 C39 0.977 . S
C17 C5 1.453 . S
C17 H46 0.982 . S
C17 H47 0.979 . S
C17 H48 0.977 . S
C18 C5 1.684 . S
C18 H43 0.979 . S
C18 H44 0.980 . S
C18 H45 0.983 . S
C19 C20 1.391 . S
C19 C24 1.391 . S
C19 H49 0.948 . S
C20 C19 1.391 . S
C20 C21 1.391 . S
C21 C20 1.391 . S
C21 C22 1.392 . S
C21 H50 0.947 . S
C22 C21 1.392 . S
C22 C23 1.419 . S
C22 H51 0.948 . S
C23 C22 1.419 . S
C23 C24 1.391 . S
C23 C27 1.397 . S
C24 C19 1.391 . S
C24 C23 1.391 . S
C24 C25 1.399 . S
C25 C24 1.399 . S
C25 C26 1.396 . S
C25 C28 1.453 . S
C25 C29 1.684 . S
C26 C7 1.723 1_554 S
C26 C25 1.396 . S
C26 C27 1.394 . S
C27 C23 1.397 . S
C27 C26 1.394 . S
C27 C37 1.723 . S
C28 C25 1.453 . S
C28 H52 0.982 . S
C28 H53 0.979 . S
C28 H54 0.977 . S
C29 C25 1.684 . S
C29 H55 0.979 . S
C29 H56 0.976 1_554 S
C29 H57 0.983 . S
C30 H6 0.948 . S
C30 C31 1.391 . S
C30 C35 1.391 . S
C31 C30 1.391 . S
C31 C32 1.391 1_554 S
C32 H9 0.947 . S
C32 C31 1.391 1_556 S
C32 C33 1.392 . S
C33 H10 0.948 . S
C33 C32 1.392 . S
C33 C34 1.419 1_556 S
C34 C33 1.419 1_554 S
C34 C35 1.391 . S
C34 C38 1.397 . S
C35 C30 1.391 . S
C35 C34 1.391 . S
C35 C36 1.399 . S
C36 C35 1.399 . S
C36 C37 1.396 . S
C36 C39 1.453 . S
C36 C40 1.684 . S
C37 C27 1.723 . S
C37 C36 1.396 . S
C37 C38 1.394 . S
C38 C8 1.723 1_554 S
C38 C34 1.397 . S
C38 C37 1.394 . S
C39 H11 0.982 . S
C39 H15 0.979 . S
C39 H16 0.977 . S
C39 C36 1.453 . S
C40 H12 0.979 . S
C40 H13 0.980 . S
C40 H14 0.983 . S
C40 C36 1.684 . S
H41 C59 0.948 . S
H42 C0 0.948 . S
H43 C18 0.979 . S
H44 C18 0.980 . S
H45 C18 0.983 . S
H46 C17 0.982 . S
H47 C17 0.979 . S
H48 C17 0.977 . S
H49 C19 0.948 . S
H50 C21 0.947 . S
H51 C22 0.948 . S
H52 C28 0.982 . S
H53 C28 0.979 . S
H54 C28 0.977 . S
H55 C29 0.979 . S
H56 C29 0.976 1_556 S
H57 C29 0.983 . S
H58 C2 0.947 . S
C59 C2 1.392 . S
C59 C3 1.419 . S
C59 H41 0.948 . S
C60 C61 1.391 . S
C60 C64 1.391 . S
C60 H102 0.948 . S
C61 C60 1.391 . S
C61 C62 1.391 . S
C62 C61 1.391 . S
C62 H118 0.947 . S
C62 C119 1.392 . S
C63 C64 1.391 . S
C63 C67 1.397 . S
C63 C119 1.419 . S
C64 C60 1.391 . S
C64 C63 1.391 . S
C64 C65 1.399 . S
C65 C64 1.399 . S
C65 C68 1.396 . S
C65 C77 1.453 . S
C65 C78 1.684 . S
H66 C90 0.948 . S
C67 C63 1.397 . S
C67 C68 1.394 . S
C67 C86 1.723 . S
C68 C65 1.396 . S
C68 C67 1.394 . S
C68 C98 1.723 . S
H69 C92 0.947 . S
H70 C93 0.948 . S
H71 C99 0.982 . S
H72 C100 0.979 . S
H73 C100 0.980 . S
H74 C100 0.983 . S
H75 C99 0.979 . S
H76 C99 0.977 . S
C77 C65 1.453 . S
C77 H106 0.982 . S
C77 H107 0.979 . S
C77 H108 0.977 . S
C78 C65 1.684 . S
C78 H103 0.979 . S
C78 H104 0.980 . S
C78 H105 0.983 . S
C79 C80 1.391 . S
C79 C84 1.391 . S
C79 H109 0.948 . S
C80 C79 1.391 . S
C80 C81 1.391 . S
C81 C80 1.391 . S
C81 C82 1.392 . S
C81 H110 0.947 . S
C82 C81 1.392 . S
C82 C83 1.419 . S
C82 H111 0.948 . S
C83 C82 1.419 . S
C83 C84 1.391 . S
C83 C87 1.397 . S
C84 C79 1.391 . S
C84 C83 1.391 . S
C84 C85 1.399 . S
C85 C84 1.399 . S
C85 C86 1.396 . S
C85 C88 1.453 . S
C85 C89 1.684 . S
C86 C67 1.723 . S
C86 C85 1.396 . S
C86 C87 1.394 . S
C87 C83 1.397 . S
C87 C86 1.394 . S
C87 C97 1.723 . S
C88 C85 1.453 . S
C88 H112 0.982 . S
C88 H113 0.979 . S
C88 H114 0.977 . S
C89 C85 1.684 . S
C89 H115 0.979 . S
C89 H116 0.980 . S
C89 H117 0.983 . S
C90 H66 0.948 . S
C90 C91 1.391 . S
C90 C95 1.391 . S
C91 C90 1.391 . S
C91 C92 1.391 . S
C92 H69 0.947 . S
C92 C91 1.391 . S
C92 C93 1.392 . S
C93 H70 0.948 . S
C93 C92 1.392 . S
C93 C94 1.419 . S
C94 C93 1.419 . S
C94 C95 1.391 . S
C94 C98 1.397 . S
C95 C90 1.391 . S
C95 C94 1.391 . S
C95 C96 1.399 . S
C96 C95 1.399 . S
C96 C97 1.396 . S
C96 C99 1.453 . S
C96 C100 1.684 . S
C97 C87 1.723 . S
C97 C96 1.396 . S
C97 C98 1.394 . S
C98 C68 1.723 . S
C98 C94 1.397 . S
C98 C97 1.394 . S
C99 H71 0.982 . S
C99 H75 0.979 . S
C99 H76 0.977 . S
C99 C96 1.453 . S
C100 H72 0.979 . S
C100 H73 0.980 . S
C100 H74 0.983 . S
C100 C96 1.684 . S
H101 C119 0.948 . S
H102 C60 0.948 . S
H103 C78 0.979 . S
H104 C78 0.980 . S
H105 C78 0.983 . S
H106 C77 0.982 . S
H107 C77 0.979 . S
H108 C77 0.977 . S
H109 C79 0.948 . S
H110 C81 0.947 . S
H111 C82 0.948 . S
H112 C88 0.982 . S
H113 C88 0.979 . S
H114 C88 0.977 . S
H115 C89 0.979 . S
H116 C89 0.980 . S
H117 C89 0.983 . S
H118 C62 0.947 . S
C119 C62 1.392 . S
C119 C63 1.419 . S
C119 H101 0.948 . S
C120 C121 1.391 . S
C120 C124 1.391 . S
C120 H162 0.948 . S
C121 C120 1.391 . S
C121 C122 1.391 . S
C122 C121 1.391 . S
C122 H178 0.947 . S
C122 C179 1.392 . S
C123 C124 1.391 . S
C123 C127 1.397 . S
C123 C179 1.419 . S
C124 C120 1.391 . S
C124 C123 1.391 . S
C124 C125 1.399 . S
C125 C124 1.399 . S
C125 C128 1.396 . S
C125 C137 1.453 . S
C125 C138 1.684 . S
H126 C150 0.948 . S
C127 C123 1.397 . S
C127 C128 1.394 . S
C127 C146 1.723 . S
C128 C125 1.396 . S
C128 C127 1.394 . S
C128 C158 1.723 . S
H129 C152 0.947 . S
H130 C153 0.948 . S
H131 C159 0.982 . S
H132 C160 0.979 . S
H133 C160 0.980 . S
H134 C160 0.983 . S
H135 C159 0.979 . S
H136 C159 0.977 . S
C137 C125 1.453 . S
C137 H166 0.982 . S
C137 H167 0.979 . S
C137 H168 0.977 . S
C138 C125 1.684 . S
C138 H163 0.979 . S
C138 H164 0.980 . S
C138 H165 0.983 . S
C139 C140 1.391 . S
C139 C144 1.391 . S
C139 H169 0.948 . S
C140 C139 1.391 . S
C140 C141 1.391 . S
C141 C140 1.391 . S
C141 C142 1.392 . S
C141 H170 0.947 . S
C142 C141 1.392 . S
C142 C143 1.419 . S
C142 H171 0.948 . S
C143 C142 1.419 . S
C143 C144 1.391 . S
C143 C147 1.397 . S
C144 C139 1.391 . S
C144 C143 1.391 . S
C144 C145 1.399 1_556 S
C145 C144 1.399 1_554 S
C145 C146 1.396 . S
C145 C148 1.453 . S
C145 C149 1.684 . S
C146 C127 1.723 . S
C146 C145 1.396 . S
C146 C147 1.394 1_554 S
C147 C143 1.397 . S
C147 C146 1.394 1_556 S
C147 C157 1.723 . S
C148 C145 1.453 . S
C148 H172 0.982 . S
C148 H173 0.979 . S
C148 H174 0.977 . S
C149 C145 1.684 . S
C149 H175 0.979 . S
C149 H176 0.980 . S
C149 H177 0.983 . S
C150 H126 0.948 . S
C150 C151 1.391 1_556 S
C150 C155 1.391 . S
C151 C150 1.391 1_554 S
C151 C152 1.391 . S
C152 H129 0.947 . S
C152 C151 1.391 . S
C152 C153 1.392 . S
C153 H130 0.948 . S
C153 C152 1.392 . S
C153 C154 1.419 . S
C154 C153 1.419 . S
C154 C155 1.391 1_554 S
C154 C158 1.397 . S
C155 C150 1.391 . S
C155 C154 1.391 1_556 S
C155 C156 1.399 . S
C156 C155 1.399 . S
C156 C157 1.396 . S
C156 C159 1.453 . S
C156 C160 1.684 . S
C157 C147 1.723 . S
C157 C156 1.396 . S
C157 C158 1.394 1_556 S
C158 C128 1.723 . S
C158 C154 1.397 . S
C158 C157 1.394 1_554 S
C159 H131 0.982 . S
C159 H135 0.979 . S
C159 H136 0.977 . S
C159 C156 1.453 . S
C160 H132 0.979 . S
C160 H133 0.980 . S
C160 H134 0.983 . S
C160 C156 1.684 . S
H161 C179 0.948 . S
H162 C120 0.948 . S
H163 C138 0.979 . S
H164 C138 0.980 . S
H165 C138 0.983 . S
H166 C137 0.982 . S
H167 C137 0.979 . S
H168 C137 0.977 . S
H169 C139 0.948 . S
H170 C141 0.947 . S
H171 C142 0.948 . S
H172 C148 0.982 . S
H173 C148 0.979 . S
H174 C148 0.977 . S
H175 C149 0.979 . S
H176 C149 0.980 . S
H177 C149 0.983 . S
H178 C122 0.947 . S
C179 C122 1.392 . S
C179 C123 1.419 . S
C179 H161 0.948 . S
C180 C181 1.391 . S
C180 C184 1.391 . S
C180 H222 0.948 . S
C181 C180 1.391 . S
C181 C182 1.391 . S
C182 C181 1.391 . S
C182 H238 0.947 . S
C182 C239 1.392 . S
C183 C184 1.391 . S
C183 C187 1.397 . S
C183 C239 1.419 . S
C184 C180 1.391 . S
C184 C183 1.391 . S
C184 C185 1.399 . S
C185 C184 1.399 . S
C185 C188 1.396 . S
C185 C197 1.453 . S
C185 C198 1.684 . S
H186 C210 0.948 . S
C187 C183 1.397 . S
C187 C188 1.394 . S
C187 C206 1.723 . S
C188 C185 1.396 . S
C188 C187 1.394 . S
C188 C218 1.723 . S
H189 C212 0.947 . S
H190 C213 0.948 . S
H191 C219 0.982 . S
H192 C220 0.979 . S
H193 C220 0.980 . S
H194 C220 0.983 . S
H195 C219 0.979 . S
H196 C219 0.977 . S
C197 C185 1.453 . S
C197 H226 0.982 . S
C197 H227 0.979 . S
C197 H228 0.977 . S
C198 C185 1.684 . S
C198 H223 0.979 . S
C198 H224 0.980 . S
C198 H225 0.983 . S
C199 C200 1.391 . S
C199 C204 1.391 . S
C199 H229 0.948 . S
C200 C199 1.391 . S
C200 C201 1.391 . S
C201 C200 1.391 . S
C201 C202 1.392 . S
C201 H230 0.947 . S
C202 C201 1.392 . S
C202 C203 1.419 . S
C202 H231 0.948 . S
C203 C202 1.419 . S
C203 C204 1.391 . S
C203 C207 1.397 . S
C204 C199 1.391 . S
C204 C203 1.391 . S
C204 C205 1.399 . S
C205 C204 1.399 . S
C205 C206 1.396 . S
C205 C208 1.453 . S
C205 C209 1.684 . S
C206 C187 1.723 . S
C206 C205 1.396 . S
C206 C207 1.394 . S
C207 C203 1.397 . S
C207 C206 1.394 . S
C207 C217 1.723 . S
C208 C205 1.453 . S
C208 H232 0.982 . S
C208 H233 0.979 . S
C208 H234 0.977 . S
C209 C205 1.684 . S
C209 H235 0.979 . S
C209 H236 0.980 . S
C209 H237 0.983 . S
C210 H186 0.948 . S
C210 C211 1.391 . S
C210 C215 1.391 . S
C211 C210 1.391 . S
C211 C212 1.391 . S
C212 H189 0.947 . S
C212 C211 1.391 . S
C212 C213 1.392 . S
C213 H190 0.948 . S
C213 C212 1.392 . S
C213 C214 1.419 . S
C214 C213 1.419 . S
C214 C215 1.391 . S
C214 C218 1.397 . S
C215 C210 1.391 . S
C215 C214 1.391 . S
C215 C216 1.399 . S
C216 C215 1.399 . S
C216 C217 1.396 . S
C216 C219 1.453 . S
C216 C220 1.684 . S
C217 C207 1.723 . S
C217 C216 1.396 . S
C217 C218 1.394 . S
C218 C188 1.723 . S
C218 C214 1.397 . S
C218 C217 1.394 . S
C219 H191 0.982 . S
C219 H195 0.979 . S
C219 H196 0.977 . S
C219 C216 1.453 . S
C220 H192 0.979 . S
C220 H193 0.980 . S
C220 H194 0.983 . S
C220 C216 1.684 . S
H221 C239 0.948 . S
H222 C180 0.948 . S
H223 C198 0.979 . S
H224 C198 0.980 . S
H225 C198 0.983 . S
H226 C197 0.982 . S
H227 C197 0.979 . S
H228 C197 0.977 . S
H229 C199 0.948 . S
H230 C201 0.947 . S
H231 C202 0.948 . S
H232 C208 0.982 . S
H233 C208 0.979 . S
H234 C208 0.977 . S
H235 C209 0.979 . S
H236 C209 0.980 . S
H237 C209 0.983 . S
H238 C182 0.947 . S
C239 C182 1.392 . S
C239 C183 1.419 . S
C239 H221 0.948 . S
Tb240 N269 2.617 . S
Tb240 N275 2.572 . S
Tb240 O284 2.465 . S
Tb240 O285 2.387 . S
Tb240 O287 2.428 . S
Tb240 O288 2.308 1_565 S
Tb240 O292 2.349 1_455 S
Tb240 O295 2.393 1_455 S
Tb240 C304 2.802 . S
C241 N242 1.379 . S
C241 C244 1.416 . S
C241 C248 1.424 . S
N242 C241 1.379 . S
N242 C245 1.334 1_655 S
N242 Tb251 2.617 . S
C243 C245 1.390 1_655 S
C243 C246 1.344 . S
C243 H263 0.926 1_655 S
C244 C241 1.416 . S
C244 C246 1.416 . S
C244 C250 1.448 . S
C245 N242 1.334 1_455 S
C245 C243 1.390 1_455 S
C245 H256 0.930 . S
C246 C243 1.344 . S
C246 C244 1.416 . S
C246 H267 0.930 . S
C247 C248 1.413 . S
C247 C249 1.427 . S
C247 C253 1.416 . S
C248 C241 1.424 . S
C248 C247 1.413 . S
C248 N252 1.361 . S
C249 C247 1.427 . S
C249 C250 1.328 . S
C249 H264 0.929 . S
C250 C244 1.448 . S
C250 C249 1.328 . S
C250 H265 0.930 . S
Tb251 N242 2.617 . S
Tb251 N252 2.572 . S
Tb251 O286 2.349 1_655 S
Tb251 O289 2.393 1_655 S
Tb251 O290 2.465 . S
Tb251 O291 2.387 . S
Tb251 O293 2.428 . S
Tb251 O294 2.308 1_545 S
Tb251 C315 2.802 . S
N252 C248 1.361 . S
N252 Tb251 2.572 . S
N252 C254 1.340 . S
C253 C247 1.416 . S
C253 C255 1.332 . S
C253 H261 0.931 . S
C254 N252 1.340 . S
C254 C255 1.407 . S
C254 H260 0.930 . S
C255 C253 1.332 . S
C255 C254 1.407 . S
C255 H257 0.929 . S
H256 C245 0.930 . S
H257 C255 0.929 . S
H258 C273 0.930 1_655 S
H259 C280 0.929 . S
H260 C254 0.930 . S
H261 C253 0.931 . S
H262 C276 0.930 . S
H263 C243 0.926 1_455 S
H264 C249 0.929 . S
H265 C250 0.930 . S
H266 C271 0.930 1_655 S
H267 C246 0.930 . S
H268 C279 0.931 . S
N269 Tb240 2.617 . S
N269 C270 1.379 . S
N269 C273 1.334 . S
C270 N269 1.379 . S
C270 C272 1.416 . S
C270 C278 1.424 . S
C271 H266 0.930 1_455 S
C271 C273 1.390 . S
C271 C274 1.339 . S
C272 C270 1.416 . S
C272 C274 1.416 . S
C272 C305 1.448 . S
C273 H258 0.930 1_455 S
C273 N269 1.334 . S
C273 C271 1.390 . S
C274 C271 1.339 . S
C274 C272 1.416 . S
C274 H281 0.930 . S
N275 Tb240 2.572 . S
N275 C276 1.340 . S
N275 C278 1.361 . S
C276 H262 0.930 . S
C276 N275 1.340 . S
C276 C280 1.407 . S
C277 C278 1.413 . S
C277 C279 1.416 . S
C277 C306 1.427 . S
C278 C270 1.424 . S
C278 N275 1.361 . S
C278 C277 1.413 . S
C279 H268 0.931 . S
C279 C277 1.416 . S
C279 C280 1.332 . S
C280 H259 0.929 . S
C280 C276 1.407 . S
C280 C279 1.332 . S
H281 C274 0.930 . S
H282 C305 0.930 . S
H283 C306 0.929 . S
O284 Tb240 2.465 . S
O284 C304 1.264 . S
O285 Tb240 2.387 . S
O285 C296 1.264 . S
O286 Tb251 2.349 1_455 S
O286 C296 1.243 1_545 S
O287 Tb240 2.428 . S
O287 C304 1.256 . S
O288 Tb240 2.308 1_545 S
O288 C303 1.266 . S
O289 Tb251 2.393 1_455 S
O289 C303 1.248 . S
O290 Tb251 2.465 . S
O290 C315 1.264 . S
O291 Tb251 2.387 . S
O291 C307 1.264 . S
O292 Tb240 2.349 1_655 S
O292 C307 1.243 1_565 S
O293 Tb251 2.428 . S
O293 C315 1.256 . S
O294 Tb251 2.308 1_565 S
O294 C314 1.266 . S
O295 Tb240 2.393 1_655 S
O295 C314 1.248 . S
C296 O285 1.264 . S
C296 O286 1.243 1_565 S
C297 C300 1.399 . S
C297 C302 1.383 . S
C297 C304 1.496 . S
C298 C299 1.399 . S
C298 C302 1.389 . S
C299 C298 1.399 . S
C299 C301 1.380 . S
C299 H316 0.929 . S
C300 C297 1.399 . S
C300 C301 1.392 . S
C300 H317 0.929 . S
C301 C299 1.380 . S
C301 C300 1.392 . S
C301 H318 0.929 . S
C302 C297 1.383 . S
C302 C298 1.389 . S
C302 H319 0.931 . S
C303 O288 1.266 . S
C303 O289 1.248 . S
C304 Tb240 2.802 . S
C304 O284 1.264 . S
C304 O287 1.256 . S
C304 C297 1.496 . S
C305 C272 1.448 . S
C305 H282 0.930 . S
C305 C306 1.328 . S
C306 C277 1.427 . S
C306 H283 0.929 . S
C306 C305 1.328 . S
C307 O291 1.264 . S
C307 O292 1.243 1_545 S
C308 C311 1.399 . S
C308 C312 1.383 . S
C308 C315 1.496 . S
C309 C310 1.399 . S
C309 C312 1.389 . S
C310 C309 1.399 . S
C310 C313 1.380 . S
C310 H320 0.929 . S
C311 C308 1.399 . S
C311 C313 1.392 . S
C311 H321 0.929 . S
C312 C308 1.383 . S
C312 C309 1.389 . S
C312 H322 0.931 . S
C313 C310 1.380 . S
C313 C311 1.392 . S
C313 H323 0.929 . S
C314 O294 1.266 . S
C314 O295 1.248 . S
C315 Tb251 2.802 . S
C315 O290 1.264 . S
C315 O293 1.256 . S
C315 C308 1.496 . S
H316 C299 0.929 . S
H317 C300 0.929 . S
H318 C301 0.929 . S
H319 C302 0.931 . S
H320 C310 0.929 . S
H321 C311 0.929 . S
H322 C312 0.931 . S
H323 C313 0.929 . S
Tb324 N353 2.617 . S
Tb324 N359 2.572 1_556 S
Tb324 O368 2.465 . S
Tb324 O369 2.387 1_556 S
Tb324 O371 2.428 . S
Tb324 O372 2.308 1_556 S
Tb324 O376 2.349 . S
Tb324 O379 2.393 . S
Tb324 C388 2.802 . S
C325 N326 1.379 . S
C325 C328 1.416 . S
C325 C332 1.424 . S
N326 C325 1.379 . S
N326 C329 1.334 . S
N326 Tb335 2.617 . S
C327 C329 1.390 . S
C327 C330 1.339 . S
C327 H347 0.930 . S
C328 C325 1.416 . S
C328 C330 1.416 . S
C328 C334 1.448 . S
C329 N326 1.334 . S
C329 C327 1.390 . S
C329 H340 0.930 . S
C330 C327 1.339 . S
C330 C328 1.416 . S
C330 H351 0.930 . S
C331 C332 1.413 . S
C331 C333 1.427 . S
C331 C337 1.416 . S
C332 C325 1.424 . S
C332 C331 1.413 . S
C332 N336 1.361 . S
C333 C331 1.427 . S
C333 C334 1.328 . S
C333 H348 0.929 . S
C334 C328 1.448 . S
C334 C333 1.328 . S
C334 H349 0.930 . S
Tb335 N326 2.617 . S
Tb335 N336 2.572 . S
Tb335 O370 2.349 . S
Tb335 O373 2.393 . S
Tb335 O374 2.465 . S
Tb335 O375 2.387 1_554 S
Tb335 O377 2.428 . S
Tb335 O378 2.308 . S
Tb335 C399 2.802 . S
N336 C332 1.361 . S
N336 Tb335 2.572 . S
N336 C338 1.340 . S
C337 C331 1.416 . S
C337 C339 1.332 . S
C337 H345 0.931 . S
C338 N336 1.340 . S
C338 C339 1.407 . S
C338 H344 0.930 . S
C339 C337 1.332 . S
C339 C338 1.407 . S
C339 H341 0.929 . S
H340 C329 0.930 . S
H341 C339 0.929 . S
H342 C357 0.930 . S
H343 C364 0.929 . S
H344 C338 0.930 . S
H345 C337 0.931 . S
H346 C360 0.930 . S
H347 C327 0.930 . S
H348 C333 0.929 . S
H349 C334 0.930 . S
H350 C355 0.930 . S
H351 C330 0.930 . S
H352 C363 0.931 . S
N353 Tb324 2.617 . S
N353 C354 1.379 1_556 S
N353 C357 1.334 . S
C354 N353 1.379 1_554 S
C354 C356 1.416 . S
C354 C362 1.424 . S
C355 H350 0.930 . S
C355 C357 1.390 . S
C355 C358 1.339 1_556 S
C356 C354 1.416 . S
C356 C358 1.416 . S
C356 C389 1.448 . S
C357 H342 0.930 . S
C357 N353 1.334 . S
C357 C355 1.390 . S
C358 C355 1.339 1_554 S
C358 C356 1.416 . S
C358 H365 0.930 . S
N359 Tb324 2.572 1_554 S
N359 C360 1.340 . S
N359 C362 1.361 . S
C360 H346 0.930 . S
C360 N359 1.340 . S
C360 C364 1.407 . S
C361 C362 1.413 . S
C361 C363 1.416 . S
C361 C390 1.427 . S
C362 C354 1.424 . S
C362 N359 1.361 . S
C362 C361 1.413 . S
C363 H352 0.931 . S
C363 C361 1.416 . S
C363 C364 1.332 . S
C364 H343 0.929 . S
C364 C360 1.407 . S
C364 C363 1.332 . S
H365 C358 0.930 . S
H366 C389 0.930 . S
H367 C390 0.929 . S
O368 Tb324 2.465 . S
O368 C388 1.264 . S
O369 Tb324 2.387 1_554 S
O369 C380 1.264 . S
O370 Tb335 2.349 . S
O370 C380 1.243 . S
O371 Tb324 2.428 . S
O371 C388 1.256 . S
O372 Tb324 2.308 1_554 S
O372 C387 1.266 . S
O373 Tb335 2.393 . S
O373 C387 1.248 . S
O374 Tb335 2.465 . S
O374 C399 1.264 . S
O375 Tb335 2.387 1_556 S
O375 C391 1.264 . S
O376 Tb324 2.349 . S
O376 C391 1.243 . S
O377 Tb335 2.428 . S
O377 C399 1.256 . S
O378 Tb335 2.308 . S
O378 C398 1.266 . S
O379 Tb324 2.393 . S
O379 C398 1.248 1_556 S
C380 O369 1.264 . S
C380 O370 1.243 . S
C381 C384 1.399 . S
C381 C386 1.383 . S
C381 C388 1.496 . S
C382 C383 1.399 . S
C382 C386 1.389 . S
C383 C382 1.399 . S
C383 C385 1.380 . S
C383 H400 0.929 . S
C384 C381 1.399 . S
C384 C385 1.392 . S
C384 H401 0.929 . S
C385 C383 1.380 . S
C385 C384 1.392 . S
C385 H402 0.929 . S
C386 C381 1.383 . S
C386 C382 1.389 . S
C386 H403 0.931 . S
C387 O372 1.266 . S
C387 O373 1.248 . S
C388 Tb324 2.802 . S
C388 O368 1.264 . S
C388 O371 1.256 . S
C388 C381 1.496 . S
C389 C356 1.448 . S
C389 H366 0.930 . S
C389 C390 1.328 . S
C390 C361 1.427 . S
C390 H367 0.929 . S
C390 C389 1.328 . S
C391 O375 1.264 . S
C391 O376 1.243 . S
C392 C395 1.399 . S
C392 C396 1.383 . S
C392 C399 1.496 . S
C393 C394 1.399 . S
C393 C396 1.389 . S
C394 C393 1.399 . S
C394 C397 1.380 . S
C394 H404 0.929 . S
C395 C392 1.399 . S
C395 C397 1.392 . S
C395 H405 0.929 . S
C396 C392 1.383 . S
C396 C393 1.389 . S
C396 H406 0.931 . S
C397 C394 1.380 . S
C397 C395 1.392 . S
C397 H407 0.929 . S
C398 O378 1.266 . S
C398 O379 1.248 1_554 S
C399 Tb335 2.802 . S
C399 O374 1.264 . S
C399 O377 1.256 . S
C399 C392 1.496 . S
H400 C383 0.929 . S
H401 C384 0.929 . S
H402 C385 0.929 . S
H403 C386 0.931 . S
H404 C394 0.929 . S
H405 C395 0.929 . S
H406 C396 0.931 . S
H407 C397 0.929 . S
H408 C426 0.951 . S
H409 C428 0.951 . S
H410 C430 0.950 . S
H411 C431 0.950 . S
H412 C433 0.950 . S
H413 C436 0.950 . S
H414 C437 0.950 . S
H415 C439 0.950 . S
H416 C440 0.950 . S
H417 C441 0.951 . S
H418 C443 0.951 . S
H419 C445 0.950 . S
H420 C446 0.950 . S
H421 C448 0.950 . S
H422 C451 0.950 . S
H423 C452 0.950 . S
H424 C454 0.950 . S
H425 C455 0.950 . S
C426 H408 0.951 . S
C426 C427 1.366 . S
C426 C428 1.388 . S
C427 C426 1.366 . S
C427 C431 1.385 . S
C428 H409 0.951 . S
C428 C426 1.388 . S
C428 C429 1.366 . S
C429 C428 1.366 . S
C429 C430 1.414 . S
C429 C432 1.499 . S
C430 H410 0.950 . S
C430 C429 1.414 . S
C430 C431 1.374 . S
C431 H411 0.950 . S
C431 C427 1.385 . S
C431 C430 1.374 . S
C432 C429 1.499 . S
C432 C433 1.373 . S
C432 C434 1.389 . S
C433 H412 0.950 . S
C433 C432 1.373 . S
C433 C449 1.377 . S
C434 C432 1.389 . S
C434 C435 1.524 . S
C434 C448 1.377 . S
C435 C434 1.524 . S
C435 C436 1.397 . S
C435 C440 1.363 . S
C436 H413 0.950 . S
C436 C435 1.397 . S
C436 C437 1.334 . S
C437 H414 0.950 . S
C437 C436 1.334 . S
C437 C438 1.287 . S
C438 C437 1.287 . S
C438 C439 1.524 . S
C438 H457 0.913 . S
C439 H415 0.950 . S
C439 C438 1.524 . S
C439 C440 1.415 . S
C440 H416 0.950 . S
C440 C435 1.363 . S
C440 C439 1.415 . S
C441 H417 0.951 . S
C441 C442 1.366 . S
C441 C443 1.388 . S
C442 C441 1.366 . S
C442 C446 1.385 . S
C443 H418 0.951 . S
C443 C441 1.388 . S
C443 C444 1.366 . S
C444 C443 1.366 . S
C444 C445 1.414 . S
C444 C447 1.499 . S
C445 H419 0.950 . S
C445 C444 1.414 . S
C445 C446 1.374 . S
C446 H420 0.950 . S
C446 C442 1.385 . S
C446 C445 1.374 . S
C447 C444 1.499 . S
C447 C448 1.373 . S
C447 C449 1.389 . S
C448 H421 0.950 . S
C448 C434 1.377 . S
C448 C447 1.373 . S
C449 C433 1.377 . S
C449 C447 1.389 . S
C449 C450 1.524 . S
C450 C449 1.524 . S
C450 C451 1.397 . S
C450 C455 1.363 . S
C451 H422 0.950 . S
C451 C450 1.397 . S
C451 C452 1.334 . S
C452 H423 0.950 . S
C452 C451 1.334 . S
C452 C453 1.287 . S
C453 C452 1.287 . S
C453 C454 1.524 . S
C453 H456 0.999 1_545 S
C454 H424 0.950 . S
C454 C453 1.524 . S
C454 C455 1.415 . S
C455 H425 0.950 . S
C455 C450 1.363 . S
C455 C454 1.415 . S
H456 C453 0.999 1_565 S
H457 C438 0.913 . S
H458 C476 0.951 . S
H459 C478 0.951 . S
H460 C480 0.950 1_556 S
H461 C481 0.950 1_556 S
H462 C483 0.950 1_556 S
H463 C486 0.950 . S
H464 C487 0.950 . S
H465 C489 0.950 . S
H466 C490 0.950 . S
H467 C491 0.951 1_556 S
H468 C493 0.951 1_556 S
H469 C495 0.950 . S
H470 C496 0.950 . S
H471 C498 0.950 . S
H472 C501 0.950 . S
H473 C502 0.950 . S
H474 C504 0.950 . S
H475 C505 0.950 . S
C476 H458 0.951 . S
C476 C477 1.366 . S
C476 C478 1.388 . S
C477 C476 1.366 . S
C477 C481 1.385 . S
C478 H459 0.951 . S
C478 C476 1.388 . S
C478 C479 1.366 . S
C479 C478 1.366 . S
C479 C480 1.414 . S
C479 C482 1.499 . S
C480 H460 0.950 1_554 S
C480 C479 1.414 . S
C480 C481 1.374 . S
C481 H461 0.950 1_554 S
C481 C477 1.385 . S
C481 C480 1.374 . S
C482 C479 1.499 . S
C482 C483 1.373 . S
C482 C484 1.389 . S
C483 H462 0.950 1_554 S
C483 C482 1.373 . S
C483 C499 1.377 . S
C484 C482 1.389 . S
C484 C485 1.524 . S
C484 C498 1.377 . S
C485 C484 1.524 . S
C485 C486 1.397 . S
C485 C490 1.363 . S
C486 H463 0.950 . S
C486 C485 1.397 . S
C486 C487 1.334 . S
C487 H464 0.950 . S
C487 C486 1.334 . S
C487 C488 1.287 . S
C488 C487 1.287 . S
C488 C489 1.524 . S
C488 H507 0.913 . S
C489 H465 0.950 . S
C489 C488 1.524 . S
C489 C490 1.415 . S
C490 H466 0.950 . S
C490 C485 1.363 . S
C490 C489 1.415 . S
C491 H467 0.951 1_554 S
C491 C492 1.366 . S
C491 C493 1.388 . S
C492 C491 1.366 . S
C492 C496 1.385 . S
C493 H468 0.951 1_554 S
C493 C491 1.388 . S
C493 C494 1.366 . S
C494 C493 1.366 . S
C494 C495 1.414 . S
C494 C497 1.499 . S
C495 H469 0.950 . S
C495 C494 1.414 . S
C495 C496 1.374 . S
C496 H470 0.950 . S
C496 C492 1.385 . S
C496 C495 1.374 . S
C497 C494 1.499 . S
C497 C498 1.373 . S
C497 C499 1.389 . S
C498 H471 0.950 . S
C498 C484 1.377 . S
C498 C497 1.373 . S
C499 C483 1.377 . S
C499 C497 1.389 . S
C499 C500 1.524 1_554 S
C500 C499 1.524 1_556 S
C500 C501 1.397 . S
C500 C505 1.363 . S
C501 H472 0.950 . S
C501 C500 1.397 . S
C501 C502 1.334 . S
C502 H473 0.950 . S
C502 C501 1.334 . S
C502 C503 1.287 . S
C503 C502 1.287 . S
C503 C504 1.524 . S
C503 H506 0.999 . S
C504 H474 0.950 . S
C504 C503 1.524 . S
C504 C505 1.415 . S
C505 H475 0.950 . S
C505 C500 1.363 . S
C505 C504 1.415 . S
H506 C503 0.999 . S
H507 C488 0.913 . S
H508 C526 0.951 . S
H509 C528 0.951 . S
H510 C530 0.950 . S
H511 C531 0.950 . S
H512 C533 0.950 . S
H513 C536 0.950 . S
H514 C537 0.950 . S
H515 C539 0.950 . S
H516 C540 0.950 . S
H517 C541 0.951 . S
H518 C543 0.951 . S
H519 C545 0.950 . S
H520 C546 0.950 . S
H521 C548 0.950 . S
H522 C551 0.950 . S
H523 C552 0.950 . S
H524 C554 0.950 . S
H525 C555 0.950 . S
C526 H508 0.951 . S
C526 C527 1.366 . S
C526 C528 1.388 . S
C527 C526 1.366 . S
C527 C531 1.385 . S
C528 H509 0.951 . S
C528 C526 1.388 . S
C528 C529 1.366 . S
C529 C528 1.366 . S
C529 C530 1.414 . S
C529 C532 1.499 . S
C530 H510 0.950 . S
C530 C529 1.414 . S
C530 C531 1.374 . S
C531 H511 0.950 . S
C531 C527 1.385 . S
C531 C530 1.374 . S
C532 C529 1.499 . S
C532 C533 1.373 . S
C532 C534 1.389 . S
C533 H512 0.950 . S
C533 C532 1.373 . S
C533 C549 1.377 . S
C534 C532 1.389 . S
C534 C535 1.524 . S
C534 C548 1.377 . S
C535 C534 1.524 . S
C535 C536 1.397 . S
C535 C540 1.363 . S
C536 H513 0.950 . S
C536 C535 1.397 . S
C536 C537 1.334 . S
C537 H514 0.950 . S
C537 C536 1.334 . S
C537 C538 1.287 . S
C538 C537 1.287 . S
C538 C539 1.524 . S
C538 H557 0.913 . S
C539 H515 0.950 . S
C539 C538 1.524 . S
C539 C540 1.415 . S
C540 H516 0.950 . S
C540 C535 1.363 . S
C540 C539 1.415 . S
C541 H517 0.951 . S
C541 C542 1.366 . S
C541 C543 1.388 . S
C542 C541 1.366 . S
C542 C546 1.385 . S
C543 H518 0.951 . S
C543 C541 1.388 . S
C543 C544 1.366 . S
C544 C543 1.366 . S
C544 C545 1.414 . S
C544 C547 1.499 . S
C545 H519 0.950 . S
C545 C544 1.414 . S
C545 C546 1.374 . S
C546 H520 0.950 . S
C546 C542 1.385 . S
C546 C545 1.374 . S
C547 C544 1.499 . S
C547 C548 1.373 . S
C547 C549 1.389 . S
C548 H521 0.950 . S
C548 C534 1.377 . S
C548 C547 1.373 . S
C549 C533 1.377 . S
C549 C547 1.389 . S
C549 C550 1.524 . S
C550 C549 1.524 . S
C550 C551 1.397 . S
C550 C555 1.363 . S
C551 H522 0.950 . S
C551 C550 1.397 . S
C551 C552 1.334 . S
C552 H523 0.950 . S
C552 C551 1.334 . S
C552 C553 1.287 . S
C553 C552 1.287 . S
C553 C554 1.524 . S
C553 H556 0.999 . S
C554 H524 0.950 . S
C554 C553 1.524 . S
C554 C555 1.415 . S
C555 H525 0.950 . S
C555 C550 1.363 . S
C555 C554 1.415 . S
H556 C553 0.999 . S
H557 C538 0.913 . S
H558 C576 0.951 . S
H559 C578 0.951 . S
H560 C580 0.950 . S
H561 C581 0.950 . S
H562 C583 0.950 . S
H563 C586 0.950 . S
H564 C587 0.950 . S
H565 C589 0.950 . S
H566 C590 0.950 . S
H567 C591 0.951 . S
H568 C593 0.951 1_556 S
H569 C595 0.950 . S
H570 C596 0.950 . S
H571 C598 0.950 . S
H572 C601 0.950 . S
H573 C602 0.950 . S
H574 C604 0.950 . S
H575 C605 0.950 . S
C576 H558 0.951 . S
C576 C577 1.366 . S
C576 C578 1.388 . S
C577 C576 1.366 . S
C577 C581 1.385 1_554 S
C578 H559 0.951 . S
C578 C576 1.388 . S
C578 C579 1.366 . S
C579 C578 1.366 . S
C579 C580 1.414 1_554 S
C579 C582 1.499 . S
C580 H560 0.950 . S
C580 C579 1.414 1_556 S
C580 C581 1.374 . S
C581 H561 0.950 . S
C581 C577 1.385 1_556 S
C581 C580 1.374 . S
C582 C579 1.499 . S
C582 C583 1.373 1_554 S
C582 C584 1.389 . S
C583 H562 0.950 . S
C583 C582 1.373 1_556 S
C583 C599 1.377 . S
C584 C582 1.389 . S
C584 C585 1.524 . S
C584 C598 1.377 . S
C585 C584 1.524 . S
C585 C586 1.397 . S
C585 C590 1.363 . S
C586 H563 0.950 . S
C586 C585 1.397 . S
C586 C587 1.334 . S
C587 H564 0.950 . S
C587 C586 1.334 . S
C587 C588 1.287 . S
C588 C587 1.287 . S
C588 C589 1.524 . S
C588 H607 0.913 . S
C589 H565 0.950 . S
C589 C588 1.524 . S
C589 C590 1.415 . S
C590 H566 0.950 . S
C590 C585 1.363 . S
C590 C589 1.415 . S
C591 H567 0.951 . S
C591 C592 1.366 . S
C591 C593 1.388 . S
C592 C591 1.366 . S
C592 C596 1.385 . S
C593 H568 0.951 1_554 S
C593 C591 1.388 . S
C593 C594 1.366 . S
C594 C593 1.366 . S
C594 C595 1.414 . S
C594 C597 1.499 . S
C595 H569 0.950 . S
C595 C594 1.414 . S
C595 C596 1.374 . S
C596 H570 0.950 . S
C596 C592 1.385 . S
C596 C595 1.374 . S
C597 C594 1.499 . S
C597 C598 1.373 . S
C597 C599 1.389 1_554 S
C598 H571 0.950 . S
C598 C584 1.377 . S
C598 C597 1.373 . S
C599 C583 1.377 . S
C599 C597 1.389 1_556 S
C599 C600 1.524 . S
C600 C599 1.524 . S
C600 C601 1.397 . S
C600 C605 1.363 . S
C601 H572 0.950 . S
C601 C600 1.397 . S
C601 C602 1.334 . S
C602 H573 0.950 . S
C602 C601 1.334 . S
C602 C603 1.287 . S
C603 C602 1.287 . S
C603 C604 1.524 . S
C603 H606 0.999 . S
C604 H574 0.950 . S
C604 C603 1.524 . S
C604 C605 1.415 . S
C605 H575 0.950 . S
C605 C600 1.363 . S
C605 C604 1.415 . S
H606 C603 0.999 . S
H607 C588 0.913 . S
H608 C626 0.951 . S
H609 C628 0.951 . S
H610 C630 0.950 . S
H611 C631 0.950 . S
H612 C633 0.950 . S
H613 C636 0.950 . S
H614 C637 0.950 . S
H615 C639 0.950 . S
H616 C640 0.950 . S
H617 C641 0.951 . S
H618 C643 0.951 . S
H619 C645 0.950 . S
H620 C646 0.950 . S
H621 C648 0.950 . S
H622 C651 0.950 . S
H623 C652 0.950 . S
H624 C654 0.950 . S
H625 C655 0.950 . S
C626 H608 0.951 . S
C626 C627 1.366 . S
C626 C628 1.388 . S
C627 C626 1.366 . S
C627 C631 1.385 . S
C628 H609 0.951 . S
C628 C626 1.388 . S
C628 C629 1.366 . S
C629 C628 1.366 . S
C629 C630 1.414 . S
C629 C632 1.499 . S
C630 H610 0.950 . S
C630 C629 1.414 . S
C630 C631 1.374 . S
C631 H611 0.950 . S
C631 C627 1.385 . S
C631 C630 1.374 . S
C632 C629 1.499 . S
C632 C633 1.373 . S
C632 C634 1.389 . S
C633 H612 0.950 . S
C633 C632 1.373 . S
C633 C649 1.377 . S
C634 C632 1.389 . S
C634 C635 1.524 . S
C634 C648 1.377 . S
C635 C634 1.524 . S
C635 C636 1.397 . S
C635 C640 1.363 . S
C636 H613 0.950 . S
C636 C635 1.397 . S
C636 C637 1.334 . S
C637 H614 0.950 . S
C637 C636 1.334 . S
C637 C638 1.287 . S
C638 C637 1.287 . S
C638 C639 1.524 . S
C638 H657 0.913 . S
C639 H615 0.950 . S
C639 C638 1.524 . S
C639 C640 1.415 . S
C640 H616 0.950 . S
C640 C635 1.363 . S
C640 C639 1.415 . S
C641 H617 0.951 . S
C641 C642 1.366 . S
C641 C643 1.388 . S
C642 C641 1.366 . S
C642 C646 1.385 . S
C643 H618 0.951 . S
C643 C641 1.388 . S
C643 C644 1.366 . S
C644 C643 1.366 . S
C644 C645 1.414 . S
C644 C647 1.499 . S
C645 H619 0.950 . S
C645 C644 1.414 . S
C645 C646 1.374 . S
C646 H620 0.950 . S
C646 C642 1.385 . S
C646 C645 1.374 . S
C647 C644 1.499 . S
C647 C648 1.373 . S
C647 C649 1.389 . S
C648 H621 0.950 . S
C648 C634 1.377 . S
C648 C647 1.373 . S
C649 C633 1.377 . S
C649 C647 1.389 . S
C649 C650 1.524 . S
C650 C649 1.524 . S
C650 C651 1.397 1_565 S
C650 C655 1.363 . S
C651 H622 0.950 . S
C651 C650 1.397 1_545 S
C651 C652 1.334 . S
C652 H623 0.950 . S
C652 C651 1.334 . S
C652 C653 1.287 . S
C653 C652 1.287 . S
C653 C654 1.524 . S
C653 H656 0.999 . S
C654 H624 0.950 . S
C654 C653 1.524 . S
C654 C655 1.415 1_545 S
C655 H625 0.950 . S
C655 C650 1.363 . S
C655 C654 1.415 1_565 S
H656 C653 0.999 . S
H657 C638 0.913 . S
H658 C676 0.951 . S
H659 C678 0.951 . S
H660 C680 0.950 . S
H661 C681 0.950 . S
H662 C683 0.950 . S
H663 C686 0.950 . S
H664 C687 0.950 . S
H665 C689 0.950 . S
H666 C690 0.950 . S
H667 C691 0.951 . S
H668 C693 0.951 . S
H669 C695 0.950 . S
H670 C696 0.950 . S
H671 C698 0.950 . S
H672 C701 0.950 . S
H673 C702 0.950 . S
H674 C704 0.950 . S
H675 C705 0.950 . S
C676 H658 0.951 . S
C676 C677 1.366 . S
C676 C678 1.388 . S
C677 C676 1.366 . S
C677 C681 1.385 . S
C678 H659 0.951 . S
C678 C676 1.388 . S
C678 C679 1.366 . S
C679 C678 1.366 . S
C679 C680 1.414 . S
C679 C682 1.499 . S
C680 H660 0.950 . S
C680 C679 1.414 . S
C680 C681 1.374 . S
C681 H661 0.950 . S
C681 C677 1.385 . S
C681 C680 1.374 . S
C682 C679 1.499 . S
C682 C683 1.373 . S
C682 C684 1.389 . S
C683 H662 0.950 . S
C683 C682 1.373 . S
C683 C699 1.377 . S
C684 C682 1.389 . S
C684 C685 1.524 . S
C684 C698 1.377 . S
C685 C684 1.524 . S
C685 C686 1.397 . S
C685 C690 1.363 . S
C686 H663 0.950 . S
C686 C685 1.397 . S
C686 C687 1.334 . S
C687 H664 0.950 . S
C687 C686 1.334 . S
C687 C688 1.287 . S
C688 C687 1.287 . S
C688 C689 1.524 . S
C688 H707 0.913 . S
C689 H665 0.950 . S
C689 C688 1.524 . S
C689 C690 1.415 . S
C690 H666 0.950 . S
C690 C685 1.363 . S
C690 C689 1.415 . S
C691 H667 0.951 . S
C691 C692 1.366 . S
C691 C693 1.388 . S
C692 C691 1.366 . S
C692 C696 1.385 . S
C693 H668 0.951 . S
C693 C691 1.388 . S
C693 C694 1.366 . S
C694 C693 1.366 . S
C694 C695 1.414 . S
C694 C697 1.499 . S
C695 H669 0.950 . S
C695 C694 1.414 . S
C695 C696 1.374 . S
C696 H670 0.950 . S
C696 C692 1.385 . S
C696 C695 1.374 . S
C697 C694 1.499 . S
C697 C698 1.373 . S
C697 C699 1.389 . S
C698 H671 0.950 . S
C698 C684 1.377 . S
C698 C697 1.373 . S
C699 C683 1.377 . S
C699 C697 1.389 . S
C699 C700 1.524 . S
C700 C699 1.524 . S
C700 C701 1.397 . S
C700 C705 1.363 . S
C701 H672 0.950 . S
C701 C700 1.397 . S
C701 C702 1.334 . S
C702 H673 0.950 . S
C702 C701 1.334 . S
C702 C703 1.287 . S
C703 C702 1.287 . S
C703 C704 1.524 . S
C703 H706 0.999 . S
C704 H674 0.950 . S
C704 C703 1.524 . S
C704 C705 1.415 . S
C705 H675 0.950 . S
C705 C700 1.363 . S
C705 C704 1.415 . S
H706 C703 0.999 . S
H707 C688 0.913 . S
H708 C726 0.951 . S
H709 C728 0.951 . S
H710 C730 0.950 . S
H711 C731 0.950 . S
H712 C733 0.950 . S
H713 C736 0.950 . S
H714 C737 0.950 . S
H715 C739 0.950 . S
H716 C740 0.950 . S
H717 C741 0.951 1_565 S
H718 C743 0.951 . S
H719 C745 0.950 . S
H720 C746 0.950 . S
H721 C748 0.950 . S
H722 C751 0.950 . S
H723 C752 0.950 . S
H724 C754 0.950 1_565 S
H725 C755 0.950 . S
C726 H708 0.951 . S
C726 C727 1.366 . S
C726 C728 1.388 . S
C727 C726 1.366 . S
C727 C731 1.385 . S
C728 H709 0.951 . S
C728 C726 1.388 . S
C728 C729 1.366 . S
C729 C728 1.366 . S
C729 C730 1.414 . S
C729 C732 1.499 . S
C730 H710 0.950 . S
C730 C729 1.414 . S
C730 C731 1.374 . S
C731 H711 0.950 . S
C731 C727 1.385 . S
C731 C730 1.374 . S
C732 C729 1.499 . S
C732 C733 1.373 . S
C732 C734 1.389 . S
C733 H712 0.950 . S
C733 C732 1.373 . S
C733 C749 1.377 . S
C734 C732 1.389 . S
C734 C735 1.524 . S
C734 C748 1.377 . S
C735 C734 1.524 . S
C735 C736 1.397 . S
C735 C740 1.363 . S
C736 H713 0.950 . S
C736 C735 1.397 . S
C736 C737 1.334 . S
C737 H714 0.950 . S
C737 C736 1.334 . S
C737 C738 1.287 . S
C738 C737 1.287 . S
C738 C739 1.524 . S
C738 H757 0.913 . S
C739 H715 0.950 . S
C739 C738 1.524 . S
C739 C740 1.415 . S
C740 H716 0.950 . S
C740 C735 1.363 . S
C740 C739 1.415 . S
C741 H717 0.951 1_545 S
C741 C742 1.366 . S
C741 C743 1.388 . S
C742 C741 1.366 . S
C742 C746 1.385 . S
C743 H718 0.951 . S
C743 C741 1.388 . S
C743 C744 1.366 . S
C744 C743 1.366 . S
C744 C745 1.414 . S
C744 C747 1.499 . S
C745 H719 0.950 . S
C745 C744 1.414 . S
C745 C746 1.374 . S
C746 H720 0.950 . S
C746 C742 1.385 . S
C746 C745 1.374 . S
C747 C744 1.499 . S
C747 C748 1.373 . S
C747 C749 1.389 . S
C748 H721 0.950 . S
C748 C734 1.377 . S
C748 C747 1.373 . S
C749 C733 1.377 . S
C749 C747 1.389 . S
C749 C750 1.524 . S
C750 C749 1.524 . S
C750 C751 1.397 . S
C750 C755 1.363 . S
C751 H722 0.950 . S
C751 C750 1.397 . S
C751 C752 1.334 . S
C752 H723 0.950 . S
C752 C751 1.334 . S
C752 C753 1.287 . S
C753 C752 1.287 . S
C753 C754 1.524 . S
C753 H756 0.999 . S
C754 H724 0.950 1_545 S
C754 C753 1.524 . S
C754 C755 1.415 . S
C755 H725 0.950 . S
C755 C750 1.363 . S
C755 C754 1.415 . S
H756 C753 0.999 . S
H757 C738 0.913 . S
H758 C776 0.951 . S
H759 C778 0.951 . S
H760 C780 0.950 . S
H761 C781 0.950 . S
H762 C783 0.950 . S
H763 C786 0.950 . S
H764 C787 0.950 . S
H765 C789 0.950 . S
H766 C790 0.950 . S
H767 C791 0.951 . S
H768 C793 0.951 . S
H769 C795 0.950 . S
H770 C796 0.950 . S
H771 C798 0.950 . S
H772 C801 0.950 . S
H773 C802 0.950 . S
H774 C804 0.950 . S
H775 C805 0.950 . S
C776 H758 0.951 . S
C776 C777 1.366 . S
C776 C778 1.388 . S
C777 C776 1.366 . S
C777 C781 1.385 . S
C778 H759 0.951 . S
C778 C776 1.388 . S
C778 C779 1.366 . S
C779 C778 1.366 . S
C779 C780 1.414 . S
C779 C782 1.499 . S
C780 H760 0.950 . S
C780 C779 1.414 . S
C780 C781 1.374 . S
C781 H761 0.950 . S
C781 C777 1.385 . S
C781 C780 1.374 . S
C782 C779 1.499 . S
C782 C783 1.373 . S
C782 C784 1.389 . S
C783 H762 0.950 . S
C783 C782 1.373 . S
C783 C799 1.377 . S
C784 C782 1.389 . S
C784 C785 1.524 . S
C784 C798 1.377 . S
C785 C784 1.524 . S
C785 C786 1.397 . S
C785 C790 1.363 . S
C786 H763 0.950 . S
C786 C785 1.397 . S
C786 C787 1.334 . S
C787 H764 0.950 . S
C787 C786 1.334 . S
C787 C788 1.287 . S
C788 C787 1.287 . S
C788 C789 1.524 . S
C788 H807 0.913 . S
C789 H765 0.950 . S
C789 C788 1.524 . S
C789 C790 1.415 . S
C790 H766 0.950 . S
C790 C785 1.363 . S
C790 C789 1.415 . S
C791 H767 0.951 . S
C791 C792 1.366 . S
C791 C793 1.388 . S
C792 C791 1.366 . S
C792 C796 1.385 . S
C793 H768 0.951 . S
C793 C791 1.388 . S
C793 C794 1.366 . S
C794 C793 1.366 . S
C794 C795 1.414 . S
C794 C797 1.499 . S
C795 H769 0.950 . S
C795 C794 1.414 . S
C795 C796 1.374 . S
C796 H770 0.950 . S
C796 C792 1.385 . S
C796 C795 1.374 . S
C797 C794 1.499 . S
C797 C798 1.373 . S
C797 C799 1.389 . S
C798 H771 0.950 . S
C798 C784 1.377 . S
C798 C797 1.373 . S
C799 C783 1.377 . S
C799 C797 1.389 . S
C799 C800 1.524 . S
C800 C799 1.524 . S
C800 C801 1.397 . S
C800 C805 1.363 . S
C801 H772 0.950 . S
C801 C800 1.397 . S
C801 C802 1.334 . S
C802 H773 0.950 . S
C802 C801 1.334 . S
C802 C803 1.287 . S
C803 C802 1.287 . S
C803 C804 1.524 . S
C803 H806 0.999 . S
C804 H774 0.950 . S
C804 C803 1.524 . S
C804 C805 1.415 . S
C805 H775 0.950 . S
C805 C800 1.363 . S
C805 C804 1.415 . S
H806 C803 0.999 . S
H807 C788 0.913 . S
H808 C826 0.951 . S
H809 C828 0.951 . S
H810 C830 0.950 . S
H811 C831 0.950 . S
H812 C833 0.950 . S
H813 C836 0.950 . S
H814 C837 0.950 . S
H815 C839 0.950 . S
H816 C840 0.950 . S
H817 C841 0.951 . S
H818 C843 0.951 . S
H819 C845 0.950 . S
H820 C846 0.950 . S
H821 C848 0.950 . S
H822 C851 0.950 . S
H823 C852 0.950 . S
H824 C854 0.950 . S
H825 C855 0.950 . S
C826 H808 0.951 . S
C826 C827 1.366 . S
C826 C828 1.388 . S
C827 C826 1.366 . S
C827 C831 1.385 . S
C828 H809 0.951 . S
C828 C826 1.388 . S
C828 C829 1.366 . S
C829 C828 1.366 . S
C829 C830 1.414 . S
C829 C832 1.499 . S
C830 H810 0.950 . S
C830 C829 1.414 . S
C830 C831 1.374 . S
C831 H811 0.950 . S
C831 C827 1.385 . S
C831 C830 1.374 . S
C832 C829 1.499 . S
C832 C833 1.373 . S
C832 C834 1.389 . S
C833 H812 0.950 . S
C833 C832 1.373 . S
C833 C849 1.377 . S
C834 C832 1.389 . S
C834 C835 1.524 . S
C834 C848 1.377 . S
C835 C834 1.524 . S
C835 C836 1.397 . S
C835 C840 1.363 . S
C836 H813 0.950 . S
C836 C835 1.397 . S
C836 C837 1.334 . S
C837 H814 0.950 . S
C837 C836 1.334 . S
C837 C838 1.287 . S
C838 C837 1.287 . S
C838 C839 1.524 . S
C838 H857 0.913 . S
C839 H815 0.950 . S
C839 C838 1.524 . S
C839 C840 1.415 . S
C840 H816 0.950 . S
C840 C835 1.363 . S
C840 C839 1.415 . S
C841 H817 0.951 . S
C841 C842 1.366 . S
C841 C843 1.388 . S
C842 C841 1.366 . S
C842 C846 1.385 . S
C843 H818 0.951 . S
C843 C841 1.388 . S
C843 C844 1.366 . S
C844 C843 1.366 . S
C844 C845 1.414 . S
C844 C847 1.499 . S
C845 H819 0.950 . S
C845 C844 1.414 . S
C845 C846 1.374 . S
C846 H820 0.950 . S
C846 C842 1.385 . S
C846 C845 1.374 . S
C847 C844 1.499 . S
C847 C848 1.373 . S
C847 C849 1.389 . S
C848 H821 0.950 . S
C848 C834 1.377 . S
C848 C847 1.373 . S
C849 C833 1.377 . S
C849 C847 1.389 . S
C849 C850 1.524 . S
C850 C849 1.524 . S
C850 C851 1.397 . S
C850 C855 1.363 . S
C851 H822 0.950 . S
C851 C850 1.397 . S
C851 C852 1.334 . S
C852 H823 0.950 . S
C852 C851 1.334 . S
C852 C853 1.287 . S
C853 C852 1.287 . S
C853 C854 1.524 . S
C853 H856 0.999 . S
C854 H824 0.950 . S
C854 C853 1.524 . S
C854 C855 1.415 . S
C855 H825 0.950 . S
C855 C850 1.363 . S
C855 C854 1.415 . S
H856 C853 0.999 . S
H857 C838 0.913 . S
H858 C876 0.951 . S
H859 C878 0.951 . S
H860 C880 0.950 . S
H861 C881 0.950 . S
H862 C883 0.950 . S
H863 C886 0.950 . S
H864 C887 0.950 . S
H865 C889 0.950 . S
H866 C890 0.950 . S
H867 C891 0.951 . S
H868 C893 0.951 . S
H869 C895 0.950 . S
H870 C896 0.950 . S
H871 C898 0.950 . S
H872 C901 0.950 . S
H873 C902 0.950 . S
H874 C904 0.950 . S
H875 C905 0.950 . S
C876 H858 0.951 . S
C876 C877 1.366 . S
C876 C878 1.388 . S
C877 C876 1.366 . S
C877 C881 1.385 . S
C878 H859 0.951 . S
C878 C876 1.388 . S
C878 C879 1.366 . S
C879 C878 1.366 . S
C879 C880 1.414 . S
C879 C882 1.499 . S
C880 H860 0.950 . S
C880 C879 1.414 . S
C880 C881 1.374 . S
C881 H861 0.950 . S
C881 C877 1.385 . S
C881 C880 1.374 . S
C882 C879 1.499 . S
C882 C883 1.373 . S
C882 C884 1.389 . S
C883 H862 0.950 . S
C883 C882 1.373 . S
C883 C899 1.377 . S
C884 C882 1.389 . S
C884 C885 1.524 . S
C884 C898 1.377 . S
C885 C884 1.524 . S
C885 C886 1.397 . S
C885 C890 1.363 . S
C886 H863 0.950 . S
C886 C885 1.397 . S
C886 C887 1.334 . S
C887 H864 0.950 . S
C887 C886 1.334 . S
C887 C888 1.287 . S
C888 C887 1.287 . S
C888 C889 1.524 . S
C888 H907 0.913 . S
C889 H865 0.950 . S
C889 C888 1.524 . S
C889 C890 1.415 . S
C890 H866 0.950 . S
C890 C885 1.363 . S
C890 C889 1.415 . S
C891 H867 0.951 . S
C891 C892 1.366 . S
C891 C893 1.388 . S
C892 C891 1.366 . S
C892 C896 1.385 . S
C893 H868 0.951 . S
C893 C891 1.388 . S
C893 C894 1.366 . S
C894 C893 1.366 . S
C894 C895 1.414 . S
C894 C897 1.499 . S
C895 H869 0.950 . S
C895 C894 1.414 . S
C895 C896 1.374 . S
C896 H870 0.950 . S
C896 C892 1.385 . S
C896 C895 1.374 . S
C897 C894 1.499 . S
C897 C898 1.373 . S
C897 C899 1.389 . S
C898 H871 0.950 . S
C898 C884 1.377 . S
C898 C897 1.373 . S
C899 C883 1.377 . S
C899 C897 1.389 . S
C899 C900 1.524 . S
C900 C899 1.524 . S
C900 C901 1.397 . S
C900 C905 1.363 . S
C901 H872 0.950 . S
C901 C900 1.397 . S
C901 C902 1.334 . S
C902 H873 0.950 . S
C902 C901 1.334 . S
C902 C903 1.287 . S
C903 C902 1.287 . S
C903 C904 1.524 . S
C903 H906 0.999 . S
C904 H874 0.950 . S
C904 C903 1.524 . S
C904 C905 1.415 . S
C905 H875 0.950 . S
C905 C900 1.363 . S
C905 C904 1.415 . S
H906 C903 0.999 . S
H907 C888 0.913 . S
H908 C926 0.951 . S
H909 C928 0.951 . S
H910 C930 0.950 . S
H911 C931 0.950 . S
H912 C933 0.950 . S
H913 C936 0.950 . S
H914 C937 0.950 . S
H915 C939 0.950 . S
H916 C940 0.950 . S
H917 C941 0.951 . S
H918 C943 0.951 . S
H919 C945 0.950 . S
H920 C946 0.950 . S
H921 C948 0.950 . S
H922 C951 0.950 . S
H923 C952 0.950 . S
H924 C954 0.950 . S
H925 C955 0.950 . S
C926 H908 0.951 . S
C926 C927 1.366 . S
C926 C928 1.388 . S
C927 C926 1.366 . S
C927 C931 1.385 . S
C928 H909 0.951 . S
C928 C926 1.388 . S
C928 C929 1.366 . S
C929 C928 1.366 . S
C929 C930 1.414 . S
C929 C932 1.499 . S
C930 H910 0.950 . S
C930 C929 1.414 . S
C930 C931 1.374 . S
C931 H911 0.950 . S
C931 C927 1.385 . S
C931 C930 1.374 . S
C932 C929 1.499 . S
C932 C933 1.373 . S
C932 C934 1.389 . S
C933 H912 0.950 . S
C933 C932 1.373 . S
C933 C949 1.377 . S
C934 C932 1.389 . S
C934 C935 1.524 . S
C934 C948 1.377 . S
C935 C934 1.524 . S
C935 C936 1.397 . S
C935 C940 1.363 . S
C936 H913 0.950 . S
C936 C935 1.397 . S
C936 C937 1.334 . S
C937 H914 0.950 . S
C937 C936 1.334 . S
C937 C938 1.287 . S
C938 C937 1.287 . S
C938 C939 1.524 . S
C938 H957 0.913 . S
C939 H915 0.950 . S
C939 C938 1.524 . S
C939 C940 1.415 . S
C940 H916 0.950 . S
C940 C935 1.363 . S
C940 C939 1.415 . S
C941 H917 0.951 . S
C941 C942 1.366 . S
C941 C943 1.388 . S
C942 C941 1.366 . S
C942 C946 1.385 . S
C943 H918 0.951 . S
C943 C941 1.388 . S
C943 C944 1.366 . S
C944 C943 1.366 . S
C944 C945 1.414 . S
C944 C947 1.499 . S
C945 H919 0.950 . S
C945 C944 1.414 . S
C945 C946 1.374 . S
C946 H920 0.950 . S
C946 C942 1.385 . S
C946 C945 1.374 . S
C947 C944 1.499 . S
C947 C948 1.373 . S
C947 C949 1.389 . S
C948 H921 0.950 . S
C948 C934 1.377 . S
C948 C947 1.373 . S
C949 C933 1.377 . S
C949 C947 1.389 . S
C949 C950 1.524 . S
C950 C949 1.524 . S
C950 C951 1.397 . S
C950 C955 1.363 . S
C951 H922 0.950 . S
C951 C950 1.397 . S
C951 C952 1.334 . S
C952 H923 0.950 . S
C952 C951 1.334 . S
C952 C953 1.287 . S
C953 C952 1.287 . S
C953 C954 1.524 . S
C953 H956 0.999 . S
C954 H924 0.950 . S
C954 C953 1.524 . S
C954 C955 1.415 . S
C955 H925 0.950 . S
C955 C950 1.363 . S
C955 C954 1.415 . S
H956 C953 0.999 . S
H957 C938 0.913 . S
H958 C976 0.951 . S
H959 C978 0.951 . S
H960 C980 0.950 . S
H961 C981 0.950 . S
H962 C983 0.950 . S
H963 C986 0.950 . S
H964 C987 0.950 . S
H965 C989 0.950 . S
H966 C990 0.950 . S
H967 C991 0.951 . S
H968 C993 0.951 . S
H969 C995 0.950 . S
H970 C996 0.950 1_545 S
H971 C998 0.950 . S
H972 C1001 0.950 1_545 S
H973 C1002 0.950 . S
H974 C1004 0.950 . S
H975 C1005 0.950 . S
C976 H958 0.951 . S
C976 C977 1.366 . S
C976 C978 1.388 . S
C977 C976 1.366 . S
C977 C981 1.385 . S
C978 H959 0.951 . S
C978 C976 1.388 . S
C978 C979 1.366 . S
C979 C978 1.366 . S
C979 C980 1.414 . S
C979 C982 1.499 . S
C980 H960 0.950 . S
C980 C979 1.414 . S
C980 C981 1.374 . S
C981 H961 0.950 . S
C981 C977 1.385 . S
C981 C980 1.374 . S
C982 C979 1.499 . S
C982 C983 1.373 . S
C982 C984 1.389 . S
C983 H962 0.950 . S
C983 C982 1.373 . S
C983 C999 1.377 . S
C984 C982 1.389 . S
C984 C985 1.524 . S
C984 C998 1.377 . S
C985 C984 1.524 . S
C985 C986 1.397 . S
C985 C990 1.363 . S
C986 H963 0.950 . S
C986 C985 1.397 . S
C986 C987 1.334 . S
C987 H964 0.950 . S
C987 C986 1.334 . S
C987 C988 1.287 . S
C988 C987 1.287 . S
C988 C989 1.524 . S
C988 H1007 0.913 . S
C989 H965 0.950 . S
C989 C988 1.524 . S
C989 C990 1.415 . S
C990 H966 0.950 . S
C990 C985 1.363 . S
C990 C989 1.415 . S
C991 H967 0.951 . S
C991 C992 1.366 . S
C991 C993 1.388 . S
C992 C991 1.366 . S
C992 C996 1.385 . S
C993 H968 0.951 . S
C993 C991 1.388 . S
C993 C994 1.366 . S
C994 C993 1.366 . S
C994 C995 1.414 . S
C994 C997 1.499 . S
C995 H969 0.950 . S
C995 C994 1.414 . S
C995 C996 1.374 . S
C996 H970 0.950 1_565 S
C996 C992 1.385 . S
C996 C995 1.374 . S
C997 C994 1.499 . S
C997 C998 1.373 . S
C997 C999 1.389 . S
C998 H971 0.950 . S
C998 C984 1.377 . S
C998 C997 1.373 . S
C999 C983 1.377 . S
C999 C997 1.389 . S
C999 C1000 1.524 . S
C1000 C999 1.524 . S
C1000 C1001 1.397 . S
C1000 C1005 1.363 . S
C1001 H972 0.950 1_565 S
C1001 C1000 1.397 . S
C1001 C1002 1.334 1_565 S
C1002 H973 0.950 . S
C1002 C1001 1.334 1_545 S
C1002 C1003 1.287 1_545 S
C1003 C1002 1.287 1_565 S
C1003 C1004 1.524 . S
C1003 H1006 1.003 . S
C1004 H974 0.950 . S
C1004 C1003 1.524 . S
C1004 C1005 1.415 . S
C1005 H975 0.950 . S
C1005 C1000 1.363 . S
C1005 C1004 1.415 . S
H1006 C1003 1.003 . S
H1007 C988 0.913 . S
C442 C303 1.611 . S
C427 C211 1.607 . S
C477 C31 1.546 . S
C492 C398 1.603 . S
C527 C91 1.632 . S
C542 C314 1.611 . S
C577 C151 1.585 . S
C592 C387 1.602 . S
C642 C298 1.413 . S
C627 C20 1.529 . S
C692 C391 1.603 . S
C677 C61 1.567 . S
C727 C121 1.587 . S
C742 C307 1.599 . S
C777 C200 1.498 . S
C792 C382 1.401 . S
C842 C393 1.400 . S
C827 C80 1.515 . S
C892 C309 1.415 . S
C877 C140 1.553 . S
C942 C380 1.604 . S
C927 C181 1.540 . S
C977 C1 1.550 . S
C992 C296 1.599 . S
