# Generated by pormake.
# Topology csq, (4,8)-cn, num edge types: 1
# Building blocks:
#     Node 0, Type 0, BuildingBlock: AZAVOO_clean_linker_0, # of connection points: 4
#     Node 1, Type 0, BuildingBlock: AZAVOO_clean_linker_0, # of connection points: 4
#     Node 2, Type 0, BuildingBlock: AZAVOO_clean_linker_0, # of connection points: 4
#     Node 3, Type 0, BuildingBlock: AZAVOO_clean_linker_0, # of connection points: 4
#     Node 4, Type 0, BuildingBlock: AZAVOO_clean_linker_0, # of connection points: 4
#     Node 5, Type 0, BuildingBlock: AZAVOO_clean_linker_0, # of connection points: 4
#     Node 6, Type 1, BuildingBlock: TAGTUT_clean_sbu_3, # of connection points: 8
#     Node 7, Type 1, BuildingBlock: TAGTUT_clean_sbu_3, # of connection points: 8
#     Node 8, Type 1, BuildingBlock: TAGTUT_clean_sbu_3, # of connection points: 8
#     Edge 9, Type (0, 1), BuildingBlock: XIVTED_clean_linker_0, # of connection points: 2
#     Edge 10, Type (0, 1), BuildingBlock: XIVTED_clean_linker_0, # of connection points: 2
#     Edge 11, Type (0, 1), BuildingBlock: XIVTED_clean_linker_0, # of connection points: 2
#     Edge 12, Type (0, 1), BuildingBlock: XIVTED_clean_linker_0, # of connection points: 2
#     Edge 13, Type (0, 1), BuildingBlock: XIVTED_clean_linker_0, # of connection points: 2
#     Edge 14, Type (0, 1), BuildingBlock: XIVTED_clean_linker_0, # of connection points: 2
#     Edge 15, Type (0, 1), BuildingBlock: XIVTED_clean_linker_0, # of connection points: 2
#     Edge 16, Type (0, 1), BuildingBlock: XIVTED_clean_linker_0, # of connection points: 2
#     Edge 17, Type (0, 1), BuildingBlock: XIVTED_clean_linker_0, # of connection points: 2
#     Edge 18, Type (0, 1), BuildingBlock: XIVTED_clean_linker_0, # of connection points: 2
#     Edge 19, Type (0, 1), BuildingBlock: XIVTED_clean_linker_0, # of connection points: 2
#     Edge 20, Type (0, 1), BuildingBlock: XIVTED_clean_linker_0, # of connection points: 2
#     Edge 21, Type (0, 1), BuildingBlock: XIVTED_clean_linker_0, # of connection points: 2
#     Edge 22, Type (0, 1), BuildingBlock: XIVTED_clean_linker_0, # of connection points: 2
#     Edge 23, Type (0, 1), BuildingBlock: XIVTED_clean_linker_0, # of connection points: 2
#     Edge 24, Type (0, 1), BuildingBlock: XIVTED_clean_linker_0, # of connection points: 2
#     Edge 25, Type (0, 1), BuildingBlock: XIVTED_clean_linker_0, # of connection points: 2
#     Edge 26, Type (0, 1), BuildingBlock: XIVTED_clean_linker_0, # of connection points: 2
#     Edge 27, Type (0, 1), BuildingBlock: XIVTED_clean_linker_0, # of connection points: 2
#     Edge 28, Type (0, 1), BuildingBlock: XIVTED_clean_linker_0, # of connection points: 2
#     Edge 29, Type (0, 1), BuildingBlock: XIVTED_clean_linker_0, # of connection points: 2
#     Edge 30, Type (0, 1), BuildingBlock: XIVTED_clean_linker_0, # of connection points: 2
#     Edge 31, Type (0, 1), BuildingBlock: XIVTED_clean_linker_0, # of connection points: 2
#     Edge 32, Type (0, 1), BuildingBlock: XIVTED_clean_linker_0, # of connection points: 2
# Relax obj value: 0.136
# Max RMSD: 0.242
# Mean RMSD: 0.202
data_MOF--net-csq--node1-TAGTUT_clean_sbu_3--node2-AZAVOO_clean_linker_0--edge1-XIVTED_clean_linker_0
_symmetry_space_group_name_H-M    P1
_symmetry_Int_Tables_number       1
_symmetry_cell_setting            triclinic
loop_
_symmetry_equiv_pos_as_xyz
'x, y, z'
_cell_length_a     57.565658
_cell_length_b     56.91043
_cell_length_c     23.243701
_cell_angle_alpha  92.53279
_cell_angle_beta   92.492461
_cell_angle_gamma 119.97584
loop_
_atom_site_label
_atom_site_type_symbol
_atom_site_fract_x
_atom_site_fract_y
_atom_site_fract_z
_atom_type_partial_charge
H0 H 0.15123 0.49382 0.44359 0.0
H1 H 0.4198 0.52972 0.18791 0.0
H2 H 0.17528 0.44833 0.13831 0.0
H3 H 0.13481 0.44547 0.17379 0.0
H4 H 0.17648 0.53319 0.20202 0.0
H5 H 0.21589 0.53577 0.16208 0.0
H6 H 0.19807 0.46045 0.26174 0.0
H7 H 0.17418 0.46618 0.34072 0.0
H8 H 0.22847 0.55315 0.35002 0.0
H9 H 0.25215 0.54709 0.27074 0.0
H10 H 0.25014 0.463 0.28925 0.0
H11 H 0.27889 0.46208 0.36788 0.0
H12 H 0.33771 0.54606 0.34697 0.0
H13 H 0.30886 0.54639 0.26679 0.0
H14 H 0.28669 0.45904 0.20288 0.0
H15 H 0.33061 0.46219 0.21614 0.0
H16 H 0.36847 0.54318 0.15645 0.0
H17 H 0.32443 0.53985 0.14416 0.0
H18 H 0.25837 0.44146 0.08517 0.0
H19 H 0.29149 0.43553 0.03478 0.0
H20 H 0.3257 0.51734 0.98068 0.0
H21 H 0.2928 0.52326 0.03319 0.0
H22 H 0.20678 0.43411 0.06608 0.0
H23 H 0.17239 0.41387 0.98481 0.0
H24 H 0.19166 0.49425 0.94064 0.0
H25 H 0.22573 0.51431 0.02257 0.0
O26 O 0.16173 0.49194 0.41423 0.0
O27 O 0.19102 0.53637 0.4196 0.0
O28 O 0.38174 0.48627 0.21368 0.0
O29 O 0.40217 0.52789 0.18287 0.0
C30 C 0.22511 0.49357 0.15307 0.0
C31 C 0.23916 0.5 0.20833 0.0
C32 C 0.26439 0.50184 0.21445 0.0
C33 C 0.27581 0.49744 0.16567 0.0
C34 C 0.26124 0.48958 0.11107 0.0
C35 C 0.23563 0.48715 0.10481 0.0
C36 C 0.19868 0.49225 0.14854 0.0
C37 C 0.17507 0.46697 0.14853 0.0
C38 C 0.15211 0.46539 0.17016 0.0
C39 C 0.15275 0.48903 0.19343 0.0
C40 C 0.17513 0.5145 0.18505 0.0
C41 C 0.19781 0.51606 0.162 0.0
C42 C 0.22668 0.50338 0.26034 0.0
C43 C 0.2049 0.48069 0.28125 0.0
C44 C 0.19125 0.48404 0.32624 0.0
C45 C 0.19923 0.51015 0.35129 0.0
C46 C 0.2217 0.53277 0.33147 0.0
C47 C 0.23536 0.52938 0.28645 0.0
C48 C 0.27756 0.50469 0.27234 0.0
C49 C 0.26873 0.48151 0.30325 0.0
C50 C 0.28527 0.48106 0.34821 0.0
C51 C 0.31085 0.50387 0.36302 0.0
C52 C 0.31838 0.52798 0.33569 0.0
C53 C 0.30183 0.52836 0.29046 0.0
C54 C 0.30246 0.49923 0.17263 0.0
C55 C 0.30452 0.47744 0.19281 0.0
C56 C 0.32961 0.47929 0.20026 0.0
C57 C 0.35307 0.50296 0.18738 0.0
C58 C 0.35083 0.52468 0.16683 0.0
C59 C 0.32573 0.52284 0.15966 0.0
C60 C 0.27309 0.48271 0.06249 0.0
C61 C 0.27219 0.45762 0.06011 0.0
C62 C 0.29138 0.4544 0.03166 0.0
C63 C 0.31168 0.47619 0.00464 0.0
C64 C 0.31077 0.50039 0.00226 0.0
C65 C 0.2916 0.50362 0.03106 0.0
C66 C 0.21871 0.47564 0.04994 0.0
C67 C 0.20401 0.44733 0.03791 0.0
C68 C 0.18434 0.43582 0.9918 0.0
C69 C 0.1794 0.4525 0.95655 0.0
C70 C 0.19529 0.48094 0.96674 0.0
C71 C 0.21468 0.49243 0.01345 0.0
C72 C 0.18387 0.51372 0.3972 0.0
C73 C 0.37979 0.50509 0.19548 0.0
H74 H 0.76781 0.22564 0.47609 0.0
H75 H 0.66137 0.05436 0.89418 0.0
H76 H 0.77994 0.27371 0.17903 0.0
H77 H 0.81034 0.3121 0.24721 0.0
H78 H 0.87485 0.29647 0.21373 0.0
H79 H 0.84408 0.25787 0.14545 0.0
H80 H 0.73982 0.21852 0.22841 0.0
H81 H 0.74462 0.22173 0.33409 0.0
H82 H 0.81799 0.21855 0.32742 0.0
H83 H 0.81277 0.21509 0.22181 0.0
H84 H 0.7002 0.1743 0.12441 0.0
H85 H 0.66544 0.13405 0.16421 0.0
H86 H 0.72613 0.11737 0.23509 0.0
H87 H 0.76053 0.15651 0.18951 0.0
H88 H 0.70324 0.17975 0.00991 0.0
H89 H 0.66906 0.13865 0.95318 0.0
H90 H 0.71678 0.10051 0.98413 0.0
H91 H 0.75062 0.14164 0.04168 0.0
H92 H 0.74535 0.23452 0.96723 0.0
H93 H 0.71911 0.2137 0.87542 0.0
H94 H 0.75247 0.16041 0.86513 0.0
H95 H 0.77987 0.18277 0.95402 0.0
H96 H 0.78601 0.28301 0.05953 0.0
H97 H 0.80998 0.32029 0.99744 0.0
H98 H 0.85053 0.27967 0.92938 0.0
H99 H 0.82642 0.24254 0.99142 0.0
O100 O 0.76624 0.22426 0.43429 0.0
O101 O 0.8039 0.22267 0.42846 0.0
O102 O 0.64974 0.09052 0.906 0.0
O103 O 0.67422 0.07056 0.9178 0.0
C104 C 0.79034 0.23767 0.12347 0.0
C105 C 0.77317 0.21491 0.15354 0.0
C106 C 0.75299 0.1909 0.1227 0.0
C107 C 0.75075 0.18915 0.0619 0.0
C108 C 0.76826 0.21169 0.03172 0.0
C109 C 0.78778 0.23617 0.06244 0.0
C110 C 0.80995 0.26328 0.15704 0.0
C111 C 0.80079 0.27897 0.18557 0.0
C112 C 0.81814 0.30078 0.22456 0.0
C113 C 0.84492 0.30716 0.236 0.0
C114 C 0.85422 0.29179 0.20621 0.0
C115 C 0.83685 0.27004 0.16674 0.0
C116 C 0.77593 0.21654 0.21761 0.0
C117 C 0.75683 0.2184 0.24993 0.0
C118 C 0.75967 0.22029 0.31024 0.0
C119 C 0.7817 0.22041 0.33922 0.0
C120 C 0.80079 0.21852 0.3065 0.0
C121 C 0.79789 0.21657 0.24621 0.0
C122 C 0.73278 0.16809 0.15347 0.0
C123 C 0.70592 0.1618 0.1482 0.0
C124 C 0.6861 0.13889 0.17177 0.0
C125 C 0.69281 0.12225 0.20321 0.0
C126 C 0.72003 0.12926 0.21017 0.0
C127 C 0.73982 0.15186 0.18499 0.0
C128 C 0.72945 0.16369 0.02953 0.0
C129 C 0.70621 0.16246 0.00453 0.0
C130 C 0.68676 0.13898 0.97207 0.0
C131 C 0.69033 0.1164 0.96356 0.0
C132 C 0.71347 0.11759 0.98953 0.0
C133 C 0.7328 0.141 0.02253 0.0
C134 C 0.76384 0.20953 0.96793 0.0
C135 C 0.74824 0.21957 0.94311 0.0
C136 C 0.73283 0.2072 0.8911 0.0
C137 C 0.73247 0.18432 0.8643 0.0
C138 C 0.75178 0.17768 0.88441 0.0
C139 C 0.76765 0.19053 0.93557 0.0
C140 C 0.80463 0.26018 0.03022 0.0
C141 C 0.80047 0.28247 0.03201 0.0
C142 C 0.81409 0.30368 0.99638 0.0
C143 C 0.83194 0.30279 0.95806 0.0
C144 C 0.83654 0.28072 0.95763 0.0
C145 C 0.82302 0.25963 0.99341 0.0
C146 C 0.78471 0.22251 0.4033 0.0
C147 C 0.67014 0.09176 0.92743 0.0
H148 H 0.59429 0.85588 0.77166 0.0
H149 H 0.53429 0.58724 0.05216 0.0
H150 H 0.5763 0.82395 0.06955 0.0
H151 H 0.57317 0.85842 0.01662 0.0
H152 H 0.48781 0.80356 0.98005 0.0
H153 H 0.49139 0.76895 0.03204 0.0
H154 H 0.59504 0.80097 0.97817 0.0
H155 H 0.60303 0.82792 0.8943 0.0
H156 H 0.51801 0.78205 0.84137 0.0
H157 H 0.51038 0.75525 0.9253 0.0
H158 H 0.60075 0.75107 0.99033 0.0
H159 H 0.61351 0.73191 0.90915 0.0
H160 H 0.53011 0.68611 0.84277 0.0
H161 H 0.51785 0.7057 0.92317 0.0
H162 H 0.58886 0.72198 0.09263 0.0
H163 H 0.59362 0.68158 0.09415 0.0
H164 H 0.50926 0.63094 0.03825 0.0
H165 H 0.50488 0.67157 0.03674 0.0
H166 H 0.5674 0.73483 0.20135 0.0
H167 H 0.55574 0.70334 0.27766 0.0
H168 H 0.47267 0.66122 0.20897 0.0
H169 H 0.48481 0.6924 0.13193 0.0
H170 H 0.56689 0.79703 0.18596 0.0
H171 H 0.55698 0.81351 0.27515 0.0
H172 H 0.47266 0.75367 0.24068 0.0
H173 H 0.48284 0.73784 0.15043 0.0
O174 O 0.59083 0.84446 0.80353 0.0
O175 O 0.54693 0.82035 0.77844 0.0
O176 O 0.57622 0.63047 0.08085 0.0
O177 O 0.53297 0.60354 0.05208 0.0
C178 C 0.53826 0.77047 0.05954 0.0
C179 C 0.54701 0.76177 0.01139 0.0
C180 C 0.55023 0.73896 0.01372 0.0
C181 C 0.54386 0.72412 0.0632 0.0
C182 C 0.53457 0.7324 0.11087 0.0
C183 C 0.53226 0.75594 0.10955 0.0
C184 C 0.53412 0.79394 0.0542 0.0
C185 C 0.55669 0.81994 0.05283 0.0
C186 C 0.55487 0.83952 0.02196 0.0
C187 C 0.53036 0.83338 0.99265 0.0
C188 C 0.5071 0.80858 0.00085 0.0
C189 C 0.50897 0.78899 0.03164 0.0
C190 C 0.55215 0.7763 0.95774 0.0
C191 C 0.57826 0.79661 0.94798 0.0
C192 C 0.58271 0.81203 0.90022 0.0
C193 C 0.56112 0.80727 0.86135 0.0
C194 C 0.53506 0.78632 0.87056 0.0
C195 C 0.53066 0.77094 0.91831 0.0
C196 C 0.55839 0.72941 0.96258 0.0
C197 C 0.58542 0.73721 0.95758 0.0
C198 C 0.59263 0.72632 0.91127 0.0
C199 C 0.57284 0.70752 0.86948 0.0
C200 C 0.54594 0.7009 0.87349 0.0
C201 C 0.5388 0.71177 0.91972 0.0
C202 C 0.54654 0.69958 0.06464 0.0
C203 C 0.57147 0.70212 0.08077 0.0
C204 C 0.57411 0.67903 0.08159 0.0
C205 C 0.5518 0.65301 0.0663 0.0
C206 C 0.52682 0.65064 0.05026 0.0
C207 C 0.52424 0.67377 0.0494 0.0
C208 C 0.52691 0.71591 0.16152 0.0
C209 C 0.54663 0.71908 0.20358 0.0
C210 C 0.53987 0.70113 0.24722 0.0
C211 C 0.51324 0.67969 0.24938 0.0
C212 C 0.49339 0.67728 0.20817 0.0
C213 C 0.50021 0.6952 0.1645 0.0
C214 C 0.52558 0.76635 0.16189 0.0
C215 C 0.54628 0.78761 0.19763 0.0
C216 C 0.5406 0.79672 0.24891 0.0
C217 C 0.51405 0.78468 0.26545 0.0
C218 C 0.49328 0.76343 0.22912 0.0
C219 C 0.49903 0.75434 0.17768 0.0
C220 C 0.56575 0.82432 0.81185 0.0
C221 C 0.55451 0.62841 0.06693 0.0
H222 H 0.79148 0.63686 0.42148 0.0
H223 H 0.95441 0.58983 0.92914 0.0
H224 H 0.74301 0.5201 0.13292 0.0
H225 H 0.7035 0.51241 0.18211 0.0
H226 H 0.72307 0.59506 0.1589 0.0
H227 H 0.76248 0.60243 0.10826 0.0
H228 H 0.78378 0.56273 0.22954 0.0
H229 H 0.78281 0.58687 0.31827 0.0
H230 H 0.82668 0.66332 0.2403 0.0
H231 H 0.82717 0.63887 0.15147 0.0
H232 H 0.83966 0.57673 0.22019 0.0
H233 H 0.88318 0.59489 0.27404 0.0
H234 H 0.92158 0.64933 0.14119 0.0
H235 H 0.87737 0.63258 0.08912 0.0
H236 H 0.85653 0.54902 0.10957 0.0
H237 H 0.89728 0.55014 0.07931 0.0
H238 H 0.90244 0.6029 0.9461 0.0
H239 H 0.86183 0.60173 0.97703 0.0
H240 H 0.80921 0.51007 0.02314 0.0
H241 H 0.83201 0.49831 0.95117 0.0
H242 H 0.83064 0.55731 0.84234 0.0
H243 H 0.80881 0.5697 0.91592 0.0
H244 H 0.74256 0.50004 0.03437 0.0
H245 H 0.7017 0.47844 0.96737 0.0
H246 H 0.72807 0.55521 0.89304 0.0
H247 H 0.76804 0.57672 0.96092 0.0
O248 O 0.79202 0.62772 0.38589 0.0
O249 O 0.81473 0.66649 0.34395 0.0
O250 O 0.93648 0.56427 0.01509 0.0
O251 O 0.93881 0.58975 0.94327 0.0
C252 C 0.78153 0.56715 0.09537 0.0
C253 C 0.80569 0.58436 0.12973 0.0
C254 C 0.83028 0.5876 0.11246 0.0
C255 C 0.83062 0.57323 0.0617 0.0
C256 C 0.80653 0.55627 0.02717 0.0
C257 C 0.78215 0.55375 0.04326 0.0
C258 C 0.75544 0.5617 0.11639 0.0
C259 C 0.73826 0.53625 0.13655 0.0
C260 C 0.71577 0.53194 0.16496 0.0
C261 C 0.71025 0.55316 0.17446 0.0
C262 C 0.72698 0.57842 0.1525 0.0
C263 C 0.74933 0.5826 0.1233 0.0
C264 C 0.80536 0.59903 0.18393 0.0
C265 C 0.793 0.58467 0.23158 0.0
C266 C 0.79257 0.59853 0.28228 0.0
C267 C 0.80463 0.62703 0.28636 0.0
C268 C 0.81716 0.64136 0.23858 0.0
C269 C 0.81752 0.62746 0.18784 0.0
C270 C 0.85534 0.60325 0.15065 0.0
C271 C 0.85716 0.59357 0.20406 0.0
C272 C 0.88201 0.60383 0.23458 0.0
C273 C 0.90546 0.62338 0.21136 0.0
C274 C 0.9036 0.63435 0.15976 0.0
C275 C 0.8785 0.62475 0.13015 0.0
C276 C 0.85617 0.57514 0.04522 0.0
C277 C 0.86662 0.56093 0.07411 0.0
C278 C 0.88983 0.56155 0.05663 0.0
C279 C 0.90297 0.57641 0.00988 0.0
C280 C 0.89271 0.59108 0.9819 0.0
C281 C 0.86953 0.59046 -0.00054 0.0
C282 C 0.80769 0.54098 0.97506 0.0
C283 C 0.81255 0.51942 0.98242 0.0
C284 C 0.82575 0.51282 0.94123 0.0
C285 C 0.8339 0.52749 0.89182 0.0
C286 C 0.82526 0.54617 0.88075 0.0
C287 C 0.81232 0.55295 0.92227 0.0
C288 C 0.75802 0.53992 0.00244 0.0
C289 C 0.73932 0.51211 0.00374 0.0
C290 C 0.71615 0.49986 0.96569 0.0
C291 C 0.71199 0.51523 0.92517 0.0
C292 C 0.73102 0.54294 0.92363 0.0
C293 C 0.75375 0.55522 0.96227 0.0
C294 C 0.80416 0.64169 0.34033 0.0
C295 C 0.92711 0.57642 0.98984 0.0
H296 H 0.2816 0.85853 0.47915 0.0
H297 H 0.09558 0.6233 0.99282 0.0
H298 H 0.25272 0.86679 0.17436 0.0
H299 H 0.2935 0.89949 0.233 0.0
H300 H 0.33323 0.85639 0.17389 0.0
H301 H 0.29293 0.8249 0.11338 0.0
H302 H 0.21712 0.82318 0.25784 0.0
H303 H 0.23842 0.83978 0.35591 0.0
H304 H 0.29646 0.81517 0.31845 0.0
H305 H 0.27481 0.79847 0.22078 0.0
H306 H 0.1671 0.76231 0.22453 0.0
H307 H 0.1542 0.73411 0.30701 0.0
H308 H 0.21964 0.71863 0.28325 0.0
H309 H 0.23145 0.74581 0.19964 0.0
H310 H 0.14528 0.75069 0.10557 0.0
H311 H 0.10638 0.70617 0.07382 0.0
H312 H 0.15987 0.67569 0.03597 0.0
H313 H 0.19854 0.72025 0.06833 0.0
H314 H 0.16606 0.78138 0.00122 0.0
H315 H 0.13864 0.74863 0.92017 0.0
H316 H 0.20006 0.72687 0.90212 0.0
H317 H 0.22688 0.75909 0.98315 0.0
H318 H 0.23321 0.85713 0.05523 0.0
H319 H 0.26219 0.893 0.99417 0.0
H320 H 0.28976 0.84078 0.92266 0.0
H321 H 0.2619 0.80562 0.98567 0.0
O322 O 0.27316 0.85136 0.44061 0.0
O323 O 0.30198 0.83755 0.41974 0.0
O324 O 0.08376 0.65676 0.0318 0.0
O325 O 0.11052 0.64074 0.00783 0.0
C326 C 0.24378 0.8181 0.12724 0.0
C327 C 0.23221 0.80084 0.17216 0.0
C328 C 0.20958 0.77482 0.15977 0.0
C329 C 0.1981 0.76625 0.10268 0.0
C330 C 0.20959 0.78364 0.05758 0.0
C331 C 0.23238 0.80973 0.06995 0.0
C332 C 0.26988 0.84333 0.14068 0.0
C333 C 0.27077 0.86545 0.17162 0.0
C334 C 0.29396 0.88382 0.20573 0.0
C335 C 0.3162 0.87982 0.20999 0.0
C336 C 0.31647 0.86003 0.17203 0.0
C337 C 0.29342 0.84197 0.13719 0.0
C338 C 0.24451 0.80976 0.23235 0.0
C339 C 0.23433 0.82126 0.27113 0.0
C340 C 0.24657 0.83076 0.32701 0.0
C341 C 0.26917 0.82883 0.34501 0.0
C342 C 0.27909 0.81695 0.30603 0.0
C343 C 0.26679 0.80742 0.25025 0.0
C344 C 0.19999 0.7558 0.20601 0.0
C345 C 0.17828 0.75241 0.23676 0.0
C346 C 0.17126 0.73666 0.28436 0.0
C347 C 0.18603 0.72425 0.30215 0.0
C348 C 0.20762 0.72757 0.2705 0.0
C349 C 0.21442 0.74309 0.22273 0.0
C350 C 0.17462 0.73857 0.08929 0.0
C351 C 0.14848 0.73422 0.09122 0.0
C352 C 0.12634 0.70883 0.0728 0.0
C353 C 0.13003 0.68739 0.05209 0.0
C354 C 0.15631 0.69174 0.05154 0.0
C355 C 0.17842 0.71711 0.07021 0.0
C356 C 0.19859 0.77285 0.99755 0.0
C357 C 0.17414 0.77055 0.97772 0.0
C358 C 0.15841 0.75164 0.93192 0.0
C359 C 0.1671 0.73501 0.90529 0.0
C360 C 0.19295 0.7396 0.92122 0.0
C361 C 0.20848 0.75825 0.96731 0.0
C362 C 0.245 0.8285 0.0241 0.0
C363 C 0.24495 0.85317 0.02521 0.0
C364 C 0.26153 0.87363 0.99064 0.0
C365 C 0.27801 0.8695 0.95366 0.0
C366 C 0.27686 0.84423 0.95014 0.0
C367 C 0.26075 0.82402 0.98569 0.0
C368 C 0.28246 0.83942 0.40399 0.0
C369 C 0.10665 0.66074 0.03019 0.0
H370 H 0.4982 0.29936 0.83283 0.0
H371 H 0.48678 0.07381 0.23907 0.0
H372 H 0.48905 0.28442 0.15389 0.0
H373 H 0.4876 0.31588 0.08917 0.0
H374 H 0.40525 0.25625 0.03185 0.0
H375 H 0.40772 0.22426 0.09506 0.0
H376 H 0.50953 0.26376 0.05938 0.0
H377 H 0.51314 0.28376 0.96673 0.0
H378 H 0.43079 0.2223 0.91525 0.0
H379 H 0.42748 0.20259 0.0082 0.0
H380 H 0.52875 0.22319 0.11101 0.0
H381 H 0.55298 0.21485 0.03578 0.0
H382 H 0.47741 0.16242 0.93681 0.0
H383 H 0.45337 0.17032 0.0127 0.0
H384 H 0.52157 0.20326 0.21033 0.0
H385 H 0.53371 0.16972 0.23928 0.0
H386 H 0.4538 0.10495 0.17999 0.0
H387 H 0.44201 0.13875 0.15097 0.0
H388 H 0.50251 0.22427 0.29486 0.0
H389 H 0.50792 0.19972 0.37309 0.0
H390 H 0.42686 0.1335 0.33099 0.0
H391 H 0.42152 0.15836 0.2529 0.0
H392 H 0.48641 0.25734 0.28551 0.0
H393 H 0.47478 0.27897 0.36288 0.0
H394 H 0.39177 0.23553 0.29401 0.0
H395 H 0.40371 0.21357 0.21647 0.0
O396 O 0.49667 0.29059 0.86834 0.0
O397 O 0.45507 0.2572 0.84185 0.0
O398 O 0.52388 0.12146 0.25439 0.0
O399 O 0.48283 0.08745 0.22605 0.0
C400 C 0.45482 0.23038 0.14216 0.0
C401 C 0.46543 0.2212 0.0985 0.0
C402 C 0.47508 0.20352 0.11108 0.0
C403 C 0.47274 0.19366 0.16617 0.0
C404 C 0.46222 0.20281 0.21003 0.0
C405 C 0.45365 0.22157 0.19838 0.0
C406 C 0.44864 0.25198 0.12869 0.0
C407 C 0.47021 0.27868 0.12972 0.0
C408 C 0.46934 0.29664 0.09194 0.0
C409 C 0.44656 0.28839 0.05339 0.0
C410 C 0.42349 0.26299 0.0592 0.0
C411 C 0.42457 0.24485 0.09648 0.0
C412 C 0.46823 0.23183 0.04038 0.0
C413 C 0.49241 0.25452 0.02774 0.0
C414 C 0.49436 0.26595 0.97491 0.0
C415 C 0.47221 0.2547 0.93367 0.0
C416 C 0.44822 0.23148 0.94605 0.0
C417 C 0.44628 0.22014 -0.00102 0.0
C418 C 0.48933 0.197 0.06745 0.0
C419 C 0.51747 0.20959 0.07341 0.0
C420 C 0.53126 0.20507 0.03035 0.0
C421 C 0.51706 0.18834 0.98033 0.0
C422 C 0.48886 0.17585 0.97451 0.0
C423 C 0.47509 0.18005 0.01793 0.0
C424 C 0.481 0.17337 0.17824 0.0
C425 C 0.50689 0.1818 0.20279 0.0
C426 C 0.5137 0.16261 0.21955 0.0
C427 C 0.49468 0.13463 0.21216 0.0
C428 C 0.46891 0.12631 0.18639 0.0
C429 C 0.46216 0.14554 0.16949 0.0
C430 C 0.46159 0.19313 0.2684 0.0
C431 C 0.48541 0.20516 0.30454 0.0
C432 C 0.48858 0.19098 0.34876 0.0
C433 C 0.46793 0.16459 0.35747 0.0
C434 C 0.44302 0.15389 0.32544 0.0
C435 C 0.4399 0.16809 0.28096 0.0
C436 C 0.44586 0.2337 0.24589 0.0
C437 C 0.46561 0.25201 0.28785 0.0
C438 C 0.45887 0.26423 0.3322 0.0
C439 C 0.43226 0.25864 0.33503 0.0
C440 C 0.4124 0.24011 0.29301 0.0
C441 C 0.41917 0.22765 0.24876 0.0
C442 C 0.47405 0.26743 0.87841 0.0
C443 C 0.50146 0.11421 0.23208 0.0
C444 C 0.04525 0.48409 0.52563 0.0
C445 C 0.03048 0.43848 0.72325 0.0
C446 C 0.95732 0.44216 0.71554 0.0
Mg447 Mg 0.02911 0.52802 0.48607 0.0
Mg448 Mg 0.02182 0.56656 0.58349 0.0
O449 O 0.00897 0.53081 0.55201 0.0
Mg450 Mg 0.0148 0.50725 0.60492 0.0
O451 O 0.02136 0.48316 0.65383 0.0
Mg452 Mg -0.0018 0.44724 0.60863 0.0
Mg453 Mg 0.01644 0.48472 0.73285 0.0
C454 C 0.98417 0.53292 0.67989 0.0
O455 O 0.04804 0.54357 0.66201 0.0
O456 O 0.01431 0.55397 0.43804 0.0
O457 O 0.04047 0.52869 0.75145 0.0
O458 O 0.06823 0.56773 0.51325 0.0
O459 O 0.01029 0.57983 0.50883 0.0
O460 O 0.06497 0.59035 0.58998 0.0
O461 O 0.98169 0.46959 0.55154 0.0
O462 O 0.99017 0.48736 0.46518 0.0
C463 C 0.97649 0.46759 0.49653 0.0
C464 C 0.00918 0.57263 0.45531 0.0
O465 O 0.98572 0.51175 0.66448 0.0
O466 O 0.01959 0.43135 0.67112 0.0
O467 O -0.00187 0.55592 0.65824 0.0
O468 O 0.96333 0.43375 0.66961 0.0
O469 O 0.03123 0.45808 0.75427 0.0
O470 O 0.97445 0.46404 0.74468 0.0
O471 O 0.04271 0.50441 0.54219 0.0
O472 O 0.03204 0.46123 0.54775 0.0
C473 C 0.07881 0.58768 0.55162 0.0
C474 C 0.05222 0.5477 0.71723 0.0
C475 C 0.49856 0.02181 0.51818 0.0
C476 C 0.55735 0.98447 0.43141 0.0
C477 C 0.51203 0.91637 0.53274 0.0
Mg478 Mg 0.471 0.01146 0.63971 0.0
Mg479 Mg 0.49745 -0.00029 0.75418 0.0
O480 O 0.48412 0.98859 0.67711 0.0
Mg481 Mg 0.50758 0.98768 0.61681 0.0
O482 O 0.52879 0.98685 0.55182 0.0
Mg483 Mg 0.49889 0.96533 0.49052 0.0
Mg484 Mg 0.55411 0.97558 0.56278 0.0
C485 C 0.51721 0.95751 0.72542 0.0
O486 O 0.54842 0.01935 0.66423 0.0
O487 O 0.44109 -0.00045 0.71146 0.0
O488 O 0.57639 0.00451 0.63646 0.0
O489 O 0.5018 0.05099 0.69301 0.0
O490 O 0.4597 0.99043 0.78817 0.0
O491 O 0.52427 0.04254 0.76143 0.0
O492 O 0.46949 0.95672 0.562 0.0
O493 O 0.44235 0.97269 0.58452 0.0
C494 C 0.44669 0.9556 0.55628 0.0
C495 C 0.44022 0.99183 0.76286 0.0
O496 O 0.51283 0.95657 0.6702 0.0
O497 O 0.53235 0.97751 0.4272 0.0
O498 O 0.51434 0.97352 0.76132 0.0
O499 O 0.49938 0.92576 0.50419 0.0
O500 O 0.56968 0.98504 0.47919 0.0
O501 O 0.53328 0.93203 0.56515 0.0
O502 O 0.50161 0.0193 0.57197 0.0
O503 O 0.49844 0.00495 0.47967 0.0
C504 C 0.52046 0.05922 0.73355 0.0
C505 C 0.57161 0.02097 0.66651 0.0
C506 C 0.53397 0.53676 0.70088 0.0
C507 C 0.45523 0.46279 0.81716 0.0
C508 C 0.4745 0.40804 0.73548 0.0
Mg509 Mg 0.55036 0.52893 0.57468 0.0
Mg510 Mg 0.50682 0.48247 0.47747 0.0
O511 O 0.5241 0.48947 0.55159 0.0
Mg512 Mg 0.50216 0.48011 0.62061 0.0
O513 O 0.48257 0.47283 0.69194 0.0
Mg514 Mg 0.51124 0.47739 0.75095 0.0
Mg515 Mg 0.44985 0.43978 0.6896 0.0
C516 C 0.47093 0.42552 0.53099 0.0
O517 O 0.4663 0.48107 0.57604 0.0
O518 O 0.57279 0.5282 0.49402 0.0
O519 O 0.43085 0.44654 0.61396 0.0
O520 O 0.52775 0.54515 0.52012 0.0
O521 O 0.54224 0.49447 0.43106 0.0
O522 O 0.49445 0.51174 0.46327 0.0
O523 O 0.53585 0.47829 0.67234 0.0
O524 O 0.57072 0.51151 0.63175 0.0
C525 C 0.56123 0.49289 0.66751 0.0
C526 C 0.56633 0.51375 0.44558 0.0
O527 O 0.4802 0.43536 0.58326 0.0
O528 O 0.48118 0.4755 0.81926 0.0
O529 O 0.47698 0.44024 0.48755 0.0
O530 O 0.49341 0.4315 0.75527 0.0
O531 O 0.44027 0.44832 0.7724 0.0
O532 O 0.45565 0.40548 0.70013 0.0
O533 O 0.52469 0.52492 0.65045 0.0
O534 O 0.52984 0.52317 0.74546 0.0
C535 C 0.5076 0.53655 0.48317 0.0
C536 C 0.44081 0.4654 0.57871 0.0
H537 H 0.13247 0.52347 0.21455 0.0
H538 H 0.05744 0.44602 0.48687 0.0
H539 H 0.12928 0.45066 0.27119 0.0
H540 H 0.06954 0.5251 0.45168 0.0
H541 H 0.08125 0.44651 0.40303 0.0
H542 H 0.10636 0.52313 0.29539 0.0
C543 C 0.1261 0.50726 0.24337 0.0
C544 C 0.13315 0.48702 0.23555 0.0
C545 C 0.07875 0.46382 0.41346 0.0
C546 C 0.10326 0.48657 0.32801 0.0
C547 C 0.06513 0.46358 0.46156 0.0
C548 C 0.06129 0.48551 0.47639 0.0
C549 C 0.08865 0.4861 0.37935 0.0
C550 C 0.07193 0.50772 0.44186 0.0
C551 C 0.11122 0.50714 0.28954 0.0
C552 C 0.12399 0.46641 0.27416 0.0
N553 N 0.08507 0.50742 0.39472 0.0
N554 N 0.10969 0.46682 0.31858 0.0
H555 H 0.69032 0.07321 0.21939 0.0
H556 H 0.54551 0.00659 0.34089 0.0
H557 H 0.64614 0.11541 0.24553 0.0
H558 H 0.60656 0.99062 0.41103 0.0
H559 H 0.57721 0.03645 0.27462 0.0
H560 H 0.65503 0.0341 0.26364 0.0
C561 C 0.67335 0.07439 0.23423 0.0
C562 C 0.67141 0.09789 0.22861 0.0
C563 C 0.58339 0.0259 0.30376 0.0
C564 C 0.63058 0.05273 0.27653 0.0
C565 C 0.5653 0.0087 0.34125 0.0
C566 C 0.57361 0.99649 0.3822 0.0
C567 C 0.60975 0.03056 0.30673 0.0
C568 C 0.59952 2e-05 0.38069 0.0
C569 C 0.65313 0.05192 0.25879 0.0
C570 C 0.64846 0.09774 0.24749 0.0
N571 N 0.61687 0.01702 0.34391 0.0
N572 N 0.62896 0.07552 0.27039 0.0
H573 H 0.53184 0.68712 0.36347 0.0
H574 H 0.47052 0.52794 0.39422 0.0
H575 H 0.48002 0.62447 0.23142 0.0
H576 H 0.53061 0.59089 0.51579 0.0
H577 H 0.46663 0.56272 0.34375 0.0
H578 H 0.52501 0.65186 0.42823 0.0
C579 C 0.51888 0.66597 0.3482 0.0
C580 C 0.50674 0.65879 0.29165 0.0
C581 C 0.48044 0.56888 0.38187 0.0
C582 C 0.49867 0.6183 0.36572 0.0
C583 C 0.48262 0.54901 0.41085 0.0
C584 C 0.50136 0.55653 0.45863 0.0
C585 C 0.49711 0.59646 0.40077 0.0
C586 C 0.51623 0.58415 0.47856 0.0
C587 C 0.51488 0.64585 0.3853 0.0
C588 C 0.48968 0.63104 0.27469 0.0
N589 N 0.51404 0.60312 0.44911 0.0
N590 N 0.48639 0.61183 0.31134 0.0
H591 H 0.93836 0.60802 0.16409 0.0
H592 H 0.00761 0.61927 0.4753 0.0
H593 H 0.92966 0.64756 0.31724 0.0
H594 H 0.99543 0.55945 0.33841 0.0
H595 H 0.99202 0.64087 0.40825 0.0
H596 H 0.97251 0.60217 0.21803 0.0
C597 C 0.94455 0.61649 0.20845 0.0
C598 C 0.9314 0.62825 0.2367 0.0
C599 C 0.993 0.62318 0.3927 0.0
C600 C 0.96962 0.62119 0.2984 0.0
C601 C 0.00173 0.61067 0.43102 0.0
C602 C 0.00208 0.58698 0.41283 0.0
C603 C 0.98437 0.61192 0.33573 0.0
C604 C 0.99499 0.57736 0.35449 0.0
C605 C 0.96373 0.61287 0.23928 0.0
C606 C 0.93952 0.63844 0.29429 0.0
N607 N 0.98599 0.58965 0.31807 0.0
N608 N 0.95793 0.63436 0.32357 0.0
H609 H 0.30649 0.88809 0.32055 0.0
H610 H 0.45352 0.93212 0.45654 0.0
H611 H 0.37061 0.89745 0.21657 0.0
H612 H 0.39375 0.93998 0.5479 0.0
H613 H 0.42164 0.91269 0.37111 0.0
H614 H 0.33713 0.90225 0.40623 0.0
C615 C 0.3272 0.8937 0.3154 0.0
C616 C 0.33602 0.89191 0.26086 0.0
C617 C 0.41553 0.91851 0.41011 0.0
C618 C 0.37118 0.90737 0.35986 0.0
C619 C 0.43366 0.92945 0.45903 0.0
C620 C 0.42653 0.93833 0.50899 0.0
C621 C 0.3901 0.91616 0.41181 0.0
C622 C 0.40029 0.9339 0.50993 0.0
C623 C 0.34463 0.90143 0.36469 0.0
C624 C 0.36291 0.8985 0.25768 0.0
N625 N 0.38314 0.92335 0.46195 0.0
N626 N 0.37958 0.90593 0.3066 0.0
H627 H 0.44942 0.27119 0.45002 0.0
H628 H 0.43101 0.39868 0.4458 0.0
H629 H 0.40215 0.28292 0.31746 0.0
H630 H 0.47291 0.38511 0.5871 0.0
H631 H 0.41084 0.35107 0.41095 0.0
H632 H 0.44903 0.3067 0.51238 0.0
C633 C 0.43848 0.28087 0.43453 0.0
C634 C 0.42636 0.2746 0.37799 0.0
C635 C 0.42403 0.35825 0.45021 0.0
C636 C 0.42598 0.3153 0.4488 0.0
C637 C 0.43557 0.38547 0.47005 0.0
C638 C 0.45414 0.39589 0.51846 0.0
C639 C 0.43165 0.34149 0.47816 0.0
C640 C 0.45895 0.37787 0.54907 0.0
C641 C 0.43819 0.30108 0.47019 0.0
C642 C 0.41194 0.28725 0.36055 0.0
N643 N 0.44829 0.35162 0.52753 0.0
N644 N 0.41264 0.30741 0.39537 0.0
H645 H 0.50359 0.81825 0.88514 0.0
H646 H 0.55623 0.97152 0.81004 0.0
H647 H 0.5567 0.88918 -0.00128 0.0
H648 H 0.49597 0.90251 0.70146 0.0
H649 H 0.56229 0.9409 0.87065 0.0
H650 H 0.50456 0.84795 0.81128 0.0
C651 C 0.51521 0.84007 0.89486 0.0
C652 C 0.52979 0.85125 0.94866 0.0
C653 C 0.54798 0.93233 0.83321 0.0
C654 C 0.53151 0.8853 0.86361 0.0
C655 C 0.54468 0.94982 0.79835 0.0
C656 C 0.52542 0.93941 0.75118 0.0
C657 C 0.5316 0.90412 0.82137 0.0
C658 C 0.51104 0.91123 0.73755 0.0
C659 C 0.51599 0.85698 0.85234 0.0
C660 C 0.54516 0.87965 0.958 0.0
N661 N 0.51409 0.89443 0.77321 0.0
N662 N 0.54552 0.89565 0.91602 0.0
H663 H 0.71046 0.51488 0.80857 0.0
H664 H 0.5547 0.46991 0.77208 0.0
H665 H 0.65911 0.48859 0.94955 0.0
H666 H 0.61173 0.50618 0.64323 0.0
H667 H 0.58967 0.46799 0.83308 0.0
H668 H 0.67135 0.50226 0.74235 0.0
C669 C 0.69076 0.50603 0.82526 0.0
C670 C 0.68788 0.503 0.88436 0.0
C671 C 0.59432 0.47607 0.79114 0.0
C672 C 0.64306 0.48907 0.80936 0.0
C673 C 0.57442 0.47714 0.75639 0.0
C674 C 0.58052 0.48868 0.70306 0.0
C675 C 0.62024 0.48633 0.77184 0.0
C676 C 0.60628 0.49762 0.68454 0.0
C677 C 0.66844 0.49889 0.78761 0.0
C678 C 0.662 0.49124 0.90407 0.0
N679 N 0.62516 0.49639 0.71896 0.0
N680 N 0.64052 0.48508 0.86669 0.0
H681 H 0.11563 0.69844 0.92632 0.0
H682 H 0.09701 0.58864 0.67449 0.0
H683 H 0.17534 0.71383 0.80471 0.0
H684 H 0.04669 0.57053 0.81712 0.0
H685 H 0.12338 0.63611 0.71405 0.0
H686 H 0.08693 0.65337 0.87773 0.0
C687 C 0.12243 0.69259 0.88844 0.0
C688 C 0.1479 0.70994 0.86941 0.0
C689 C 0.10657 0.62174 0.73665 0.0
C690 C 0.11536 0.65804 0.81433 0.0
C691 C 0.09147 0.59475 0.71396 0.0
C692 C 0.06957 0.5758 0.74239 0.0
C693 C 0.09961 0.62977 0.78807 0.0
C694 C 0.06356 0.5845 0.7941 0.0
C695 C 0.10616 0.66669 0.86115 0.0
C696 C 0.15589 0.701 0.82088 0.0
N697 N 0.07844 0.61088 0.81517 0.0
N698 N 0.13971 0.67558 0.79511 0.0
H699 H 0.51118 0.18966 0.86357 0.0
H700 H 0.55953 0.08447 0.82291 0.0
H701 H 0.55465 0.17291 0.99577 0.0
H702 H 0.51481 0.10048 0.69182 0.0
H703 H 0.57219 0.12795 0.87421 0.0
H704 H 0.52608 0.16898 0.79051 0.0
C705 C 0.52433 0.18208 0.87697 0.0
C706 C 0.5311 0.1822 0.93566 0.0
C707 C 0.56013 0.12227 0.83352 0.0
C708 C 0.54785 0.15818 0.85281 0.0
C709 C 0.55287 0.09739 0.80414 0.0
C710 C 0.53501 0.08826 0.75445 0.0
C711 C 0.54913 0.13781 0.81332 0.0
C712 C 0.52779 0.10625 0.73118 0.0
C713 C 0.53292 0.17037 0.83533 0.0
C714 C 0.54869 0.17281 0.9509 0.0
N715 N 0.53426 0.12986 0.76167 0.0
N716 N 0.55593 0.16052 0.90978 0.0
H717 H 0.31096 0.4321 0.94985 0.0
H718 H 0.46382 0.50928 0.87792 0.0
H719 H 0.36518 0.51575 0.01213 0.0
H720 H 0.41274 0.42208 0.86256 0.0
H721 H 0.43004 0.5129 0.9331 0.0
H722 H 0.34917 0.42867 0.91978 0.0
C723 C 0.3309 0.44976 0.95741 0.0
C724 C 0.33473 0.47429 0.98329 0.0
C725 C 0.42659 0.49296 0.91893 0.0
C726 C 0.37883 0.47058 0.94832 0.0
C727 C 0.44601 0.4909 0.88818 0.0
C728 C 0.44088 0.46536 0.86567 0.0
C729 C 0.40202 0.4693 0.9264 0.0
C730 C 0.4173 0.44216 0.87903 0.0
C731 C 0.35279 0.44778 0.94026 0.0
C732 C 0.36114 0.49659 0.99116 0.0
N733 N 0.39858 0.4447 0.90767 0.0
N734 N 0.38218 0.49426 0.9734 0.0
H735 H 0.85498 0.35806 0.98045 0.0
H736 H 0.91846 0.39046 0.67545 0.0
H737 H 0.83942 0.29696 0.84396 0.0
H738 H 0.93814 0.45172 0.81472 0.0
H739 H 0.88288 0.35718 0.72991 0.0
H740 H 0.87952 0.39341 0.91482 0.0
C741 C 0.85647 0.35207 0.93651 0.0
C742 C 0.84547 0.32451 0.91794 0.0
C743 C 0.89473 0.37799 0.74824 0.0
C744 C 0.8736 0.36485 0.84264 0.0
C745 C 0.91499 0.3971 0.71695 0.0
C746 C 0.93179 0.42384 0.74104 0.0
C747 C 0.89128 0.38562 0.80412 0.0
C748 C 0.92605 0.43122 0.79482 0.0
C749 C 0.87054 0.37226 0.89909 0.0
C750 C 0.84812 0.31796 0.86055 0.0
N751 N 0.90658 0.41211 0.82496 0.0
N752 N 0.86206 0.33796 0.82514 0.0
H753 H 0.87764 0.57082 0.85333 0.0
H754 H 0.94071 0.48644 0.71377 0.0
H755 H 0.83954 0.48358 0.85685 0.0
H756 H 0.98074 0.57411 0.7356 0.0
H757 H 0.90381 0.48396 0.76724 0.0
H758 H 0.91498 0.57137 0.80788 0.0
C759 C 0.87685 0.55164 0.8436 0.0
C760 C 0.85515 0.52706 0.85841 0.0
C761 C 0.92082 0.50369 0.76071 0.0
C762 C 0.89855 0.52763 0.80708 0.0
C763 C 0.942 0.50514 0.73058 0.0
C764 C 0.96379 0.53054 0.71965 0.0
C765 C 0.92146 0.52782 0.77968 0.0
C766 C 0.96425 0.55407 0.74222 0.0
C767 C 0.89846 0.55202 0.81824 0.0
C768 C 0.85583 0.50299 0.84614 0.0
N769 N 0.94335 0.55212 0.7706 0.0
N770 N 0.87716 0.50385 0.82098 0.0
H771 H 0.31636 0.91922 0.00171 0.0
H772 H 0.38943 0.96898 0.71075 0.0
H773 H 0.28693 0.8711 0.83885 0.0
H774 H 0.4327 0.98847 0.8784 0.0
H775 H 0.34714 0.94296 0.75634 0.0
H776 H 0.35451 0.95442 0.95486 0.0
C777 C 0.31765 0.9164 0.95579 0.0
C778 C 0.29863 0.8923 0.92392 0.0
C779 C 0.3659 0.95337 0.78308 0.0
C780 C 0.34189 0.93229 0.87043 0.0
C781 C 0.39001 0.96837 0.75728 0.0
C782 C 0.41463 0.9807 0.79087 0.0
C783 C 0.36643 0.95115 0.84291 0.0
C784 C 0.41417 0.97905 0.85091 0.0
C785 C 0.33943 0.93634 0.9293 0.0
C786 C 0.30132 0.88939 0.86478 0.0
N787 N 0.39043 0.96441 0.87505 0.0
N788 N 0.32264 0.90917 0.83985 0.0
H789 H 0.47537 0.34404 0.0479 0.0
H790 H 0.42996 0.35665 0.73573 0.0
H791 H 0.42233 0.26975 0.94284 0.0
H792 H 0.51216 0.4061 0.80704 0.0
H793 H 0.42219 0.32474 0.81047 0.0
H794 H 0.48357 0.36913 0.96179 0.0
C795 C 0.46538 0.3329 0.007 0.0
C796 C 0.44836 0.30454 0.00309 0.0
C797 C 0.44202 0.34233 0.80868 0.0
C798 C 0.4573 0.3335 0.90426 0.0
C799 C 0.44657 0.36041 0.76579 0.0
C800 C 0.47162 0.38443 0.76574 0.0
C801 C 0.4625 0.3487 0.85195 0.0
C802 C 0.49237 0.38819 0.80597 0.0
C803 C 0.47011 0.3473 0.95782 0.0
C804 C 0.43534 0.29159 0.9486 0.0
N805 N 0.48716 0.37094 0.84828 0.0
N806 N 0.44001 0.30618 0.90129 0.0
H807 H 0.12779 0.41432 0.97308 0.0
H808 H 0.06866 0.4321 0.67139 0.0
H809 H 0.17729 0.46396 0.84366 0.0
H810 H 0.02937 0.42049 0.8299 0.0
H811 H 0.10413 0.42702 0.72194 0.0
H812 H 0.08775 0.40034 0.90784 0.0
C813 C 0.13026 0.42171 0.93033 0.0
C814 C 0.15582 0.44051 0.91378 0.0
C815 C 0.08727 0.42475 0.74504 0.0
C816 C 0.11023 0.42457 0.83925 0.0
C817 C 0.06693 0.42732 0.71617 0.0
C818 C 0.04623 0.42676 0.7468 0.0
C819 C 0.08649 0.42116 0.80446 0.0
C820 C 0.0451 0.42108 0.80499 0.0
C821 C 0.10744 0.41382 0.89334 0.0
C822 C 0.15788 0.44969 0.85818 0.0
N823 N 0.06512 0.41874 0.83216 0.0
N824 N 0.13533 0.44178 0.82296 0.0
H825 H 0.67988 0.17187 0.86676 0.0
H826 H 0.6232 0.03089 0.68353 0.0
H827 H 0.73054 0.14962 0.77454 0.0
H828 H 0.57334 0.06551 0.72211 0.0
H829 H 0.66241 0.07259 0.72566 0.0
H830 H 0.6405 0.13265 0.81845 0.0
C831 C 0.68293 0.15929 0.83524 0.0
C832 C 0.70889 0.16419 0.82536 0.0
C833 C 0.64285 0.07101 0.72501 0.0
C834 C 0.66339 0.11834 0.77154 0.0
C835 C 0.62036 0.04709 0.70143 0.0
C836 C 0.59477 0.04457 0.6993 0.0
C837 C 0.63981 0.09256 0.74708 0.0
C838 C 0.59251 0.06636 0.72333 0.0
C839 C 0.66025 0.13658 0.80824 0.0
C840 C 0.71107 0.14645 0.78484 0.0
N841 N 0.61475 0.08946 0.74621 0.0
N842 N 0.68863 0.12411 0.76009 0.0
H843 H 0.55372 0.69165 0.75562 0.0
H844 H 0.5749 0.56712 0.78197 0.0
H845 H 0.60575 0.68646 0.88757 0.0
H846 H 0.5295 0.57404 0.63778 0.0
H847 H 0.59551 0.61573 0.80691 0.0
H848 H 0.55379 0.6547 0.69803 0.0
C849 C 0.56568 0.68319 0.77184 0.0
C850 C 0.5791 0.69159 0.82722 0.0
C851 C 0.5814 0.60685 0.76918 0.0
C852 C 0.57917 0.64933 0.76189 0.0
C853 C 0.56955 0.57905 0.75513 0.0
C854 C 0.54998 0.56658 0.7088 0.0
C855 C 0.57302 0.62215 0.73768 0.0
C856 C 0.54423 0.58294 0.67447 0.0
C857 C 0.56578 0.66215 0.73888 0.0
C858 C 0.59488 0.68049 0.84544 0.0
N859 N 0.5552 0.60988 0.69051 0.0
N860 N 0.59397 0.65951 0.81344 0.0
H861 H 0.4387 0.13048 0.43979 0.0
H862 H 0.51184 0.04544 0.41683 0.0
H863 H 0.51045 0.15687 0.34896 0.0
H864 H 0.4776 0.04953 0.57593 0.0
H865 H 0.5057 0.08221 0.38374 0.0
H866 H 0.44734 0.09686 0.48483 0.0
C867 C 0.4564 0.12943 0.43003 0.0
C868 C 0.47402 0.14656 0.39104 0.0
C869 C 0.49964 0.07513 0.42602 0.0
C870 C 0.4835 0.10805 0.44071 0.0
C871 C 0.50298 0.05406 0.4448 0.0
C872 C 0.49519 0.04442 0.49919 0.0
C873 C 0.48789 0.0863 0.46128 0.0
C874 C 0.48396 0.05646 0.5338 0.0
C875 C 0.46132 0.11037 0.45568 0.0
C876 C 0.49657 0.14432 0.37937 0.0
N877 N 0.48033 0.07666 0.51396 0.0
N878 N 0.50045 0.12517 0.40345 0.0
H879 H 0.30247 0.47595 0.46075 0.0
H880 H 0.45322 0.50775 0.51119 0.0
H881 H 0.36442 0.5247 0.34935 0.0
H882 H 0.38565 0.43643 0.56973 0.0
H883 H 0.42219 0.51856 0.46061 0.0
H884 H 0.3343 0.46632 0.51263 0.0
C885 C 0.32279 0.48482 0.4475 0.0
C886 C 0.33073 0.50114 0.40054 0.0
C887 C 0.41419 0.50041 0.48412 0.0
C888 C 0.36717 0.49032 0.45986 0.0
C889 C 0.43191 0.49404 0.51246 0.0
C890 C 0.42214 0.47088 0.54394 0.0
C891 C 0.38646 0.4838 0.48823 0.0
C892 C 0.39417 0.45442 0.54576 0.0
C893 C 0.34089 0.47927 0.47704 0.0
C894 C 0.35747 0.51241 0.38586 0.0
N895 N 0.37731 0.4613 0.51858 0.0
N896 N 0.37471 0.50674 0.41535 0.0
H897 H 0.87974 0.30776 0.32147 0.0
H898 H 0.94295 0.46552 0.40952 0.0
H899 H 0.85075 0.35773 0.2492 0.0
H900 H 0.95857 0.41388 0.51544 0.0
H901 H 0.90904 0.42561 0.35072 0.0
H902 H 0.90931 0.3457 0.3922 0.0
C903 C 0.87967 0.32673 0.32043 0.0
C904 C 0.86289 0.3297 0.27925 0.0
C905 C 0.91959 0.42281 0.3871 0.0
C906 C 0.89634 0.37289 0.36 0.0
C907 C 0.93898 0.44562 0.42067 0.0
C908 C 0.9536 0.4429 0.4671 0.0
C909 C 0.91502 0.39698 0.3992 0.0
C910 C 0.94759 0.4167 0.48001 0.0
C911 C 0.89631 0.34823 0.3611 0.0
C912 C 0.86323 0.3545 0.28035 0.0
N913 N 0.92894 0.39464 0.44556 0.0
N914 N 0.87979 0.37515 0.31977 0.0
H915 H 0.54293 0.8007 0.37096 0.0
H916 H 0.46564 0.87562 0.4761 0.0
H917 H 0.47173 0.79297 0.28224 0.0
H918 H 0.54262 0.89247 0.55258 0.0
H919 H 0.46076 0.83517 0.42363 0.0
H920 H 0.53675 0.82476 0.45326 0.0
C921 C 0.52585 0.80383 0.36898 0.0
C922 C 0.50816 0.79533 0.31903 0.0
C923 C 0.47847 0.84737 0.45283 0.0
C924 C 0.50082 0.8226 0.41338 0.0
C925 C 0.48121 0.87043 0.48313 0.0
C926 C 0.50495 0.88792 0.51753 0.0
C927 C 0.49969 0.8419 0.45661 0.0
C928 C 0.52419 0.87985 0.52577 0.0
C929 C 0.52223 0.8174 0.41616 0.0
C930 C 0.48594 0.79922 0.31963 0.0
N931 N 0.52144 0.85776 0.49437 0.0
N932 N 0.48314 0.81293 0.36566 0.0
H933 H 0.71162 0.58749 0.26249 0.0
H934 H 0.56184 0.48503 0.34395 0.0
H935 H 0.65897 0.50972 0.16964 0.0
H936 H 0.61837 0.55651 0.45256 0.0
H937 H 0.59605 0.49574 0.27552 0.0
H938 H 0.67628 0.57878 0.32748 0.0
C939 C 0.69247 0.56875 0.2553 0.0
C940 C 0.68819 0.54927 0.21065 0.0
C941 C 0.60099 0.50908 0.31432 0.0
C942 C 0.64785 0.53902 0.28523 0.0
C943 C 0.58145 0.50298 0.35353 0.0
C944 C 0.58721 0.51985 0.40433 0.0
C945 C 0.62652 0.5323 0.32565 0.0
C946 C 0.61302 0.54284 0.41417 0.0
C947 C 0.67241 0.56369 0.29271 0.0
C948 C 0.66317 0.52516 0.20385 0.0
N949 N 0.63171 0.54841 0.37515 0.0
N950 N 0.64397 0.5207 0.24078 0.0
H951 H 0.1866 0.67684 0.31483 0.0
H952 H 0.09991 0.64168 0.58574 0.0
H953 H 0.16856 0.73314 0.40489 0.0
H954 H 0.11814 0.58618 0.49315 0.0
H955 H 0.13477 0.67919 0.53737 0.0
H956 H 0.17084 0.64751 0.39414 0.0
C957 C 0.17972 0.68331 0.35167 0.0
C958 C 0.17854 0.70737 0.35257 0.0
C959 C 0.13164 0.65891 0.52877 0.0
C960 C 0.15988 0.67342 0.44351 0.0
C961 C 0.11191 0.63751 0.5569 0.0
C962 C 0.10559 0.61068 0.54203 0.0
C963 C 0.14498 0.6533 0.48573 0.0
C964 C 0.12192 0.60651 0.50472 0.0
C965 C 0.17062 0.66644 0.39702 0.0
C966 C 0.16915 0.71442 0.40148 0.0
N967 N 0.14043 0.62749 0.47681 0.0
N968 N 0.15983 0.69735 0.4446 0.0
loop_
_geom_bond_atom_site_label_1
_geom_bond_atom_site_label_2
_geom_bond_distance
_geom_bond_site_symmetry_2
_ccdc_geom_bond_type
H0 O26 0.856 . S
H1 O29 0.854 . S
H2 C37 0.930 . S
H3 C38 0.930 . S
H4 C40 0.930 . S
H5 C41 0.930 . S
H6 C43 0.931 . S
H7 C44 0.930 . S
H8 C46 0.930 . S
H9 C47 0.929 . S
H10 C49 0.930 . S
H11 C50 0.931 . S
H12 C52 0.930 . S
H13 C53 0.929 . S
H14 C55 0.931 . S
H15 C56 0.930 . S
H16 C58 0.930 . S
H17 C59 0.932 . S
H18 C61 0.930 . S
H19 C62 0.929 1_556 S
H20 C64 0.931 . S
H21 C65 0.930 . S
H22 C67 0.929 . S
H23 C68 0.931 . S
H24 C70 0.930 . S
H25 C71 0.929 . S
O26 H0 0.856 . S
O26 C72 1.300 . S
O27 C72 1.209 . S
O28 C73 1.199 . S
O29 H1 0.854 . S
O29 C73 1.297 . S
C30 C31 1.404 . S
C30 C35 1.397 . S
C30 C36 1.492 . S
C31 C30 1.404 . S
C31 C32 1.396 . S
C31 C42 1.492 . S
C32 C31 1.396 . S
C32 C33 1.397 . S
C32 C48 1.509 . S
C33 C32 1.397 . S
C33 C34 1.412 . S
C33 C54 1.485 . S
C34 C33 1.412 . S
C34 C35 1.388 . S
C34 C60 1.490 . S
C35 C30 1.397 . S
C35 C34 1.388 . S
C35 C66 1.519 . S
C36 C30 1.492 . S
C36 C37 1.363 . S
C36 C41 1.390 . S
C37 H2 0.930 . S
C37 C36 1.363 . S
C37 C38 1.372 . S
C38 H3 0.930 . S
C38 C37 1.372 . S
C38 C39 1.383 . S
C39 C38 1.383 . S
C39 C40 1.395 . S
C40 H4 0.930 . S
C40 C39 1.395 . S
C40 C41 1.362 . S
C41 H5 0.930 . S
C41 C36 1.390 . S
C41 C40 1.362 . S
C42 C31 1.492 . S
C42 C43 1.377 . S
C42 C47 1.397 . S
C43 H6 0.931 . S
C43 C42 1.377 . S
C43 C44 1.376 . S
C44 H7 0.930 . S
C44 C43 1.376 . S
C44 C45 1.376 . S
C45 C44 1.376 . S
C45 C46 1.378 . S
C45 C72 1.486 . S
C46 H8 0.930 . S
C46 C45 1.378 . S
C46 C47 1.376 . S
C47 H9 0.929 . S
C47 C42 1.397 . S
C47 C46 1.376 . S
C48 C32 1.509 . S
C48 C49 1.391 . S
C48 C53 1.386 . S
C49 H10 0.930 . S
C49 C48 1.391 . S
C49 C50 1.375 . S
C50 H11 0.931 . S
C50 C49 1.375 . S
C50 C51 1.375 . S
C51 C50 1.375 . S
C51 C52 1.361 . S
C52 H12 0.930 . S
C52 C51 1.361 . S
C52 C53 1.399 . S
C53 H13 0.929 . S
C53 C48 1.386 . S
C53 C52 1.399 . S
C54 C33 1.485 . S
C54 C55 1.394 . S
C54 C59 1.360 . S
C55 H14 0.931 . S
C55 C54 1.394 . S
C55 C56 1.372 . S
C56 H15 0.930 . S
C56 C55 1.372 . S
C56 C57 1.397 . S
C57 C56 1.397 . S
C57 C58 1.390 . S
C57 C73 1.476 . S
C58 H16 0.930 . S
C58 C57 1.390 . S
C58 C59 1.366 . S
C59 H17 0.932 . S
C59 C54 1.360 . S
C59 C58 1.366 . S
C60 C34 1.490 . S
C60 C61 1.380 . S
C60 C65 1.386 . S
C61 H18 0.930 . S
C61 C60 1.380 . S
C61 C62 1.381 . S
C62 H19 0.929 1_554 S
C62 C61 1.381 . S
C62 C63 1.371 1_554 S
C63 C62 1.371 1_556 S
C63 C64 1.380 1_556 S
C64 H20 0.931 . S
C64 C63 1.380 1_554 S
C64 C65 1.387 . S
C65 H21 0.930 . S
C65 C60 1.386 . S
C65 C64 1.387 . S
C66 C35 1.519 . S
C66 C67 1.377 . S
C66 C71 1.361 . S
C67 H22 0.929 . S
C67 C66 1.377 . S
C67 C68 1.386 . S
C68 H23 0.931 . S
C68 C67 1.386 . S
C68 C69 1.363 . S
C69 C68 1.363 . S
C69 C70 1.385 . S
C70 H24 0.930 . S
C70 C69 1.385 . S
C70 C71 1.396 . S
C71 H25 0.929 . S
C71 C66 1.361 . S
C71 C70 1.396 . S
C72 O26 1.300 . S
C72 O27 1.209 . S
C72 C45 1.486 . S
C73 O28 1.199 . S
C73 O29 1.297 . S
C73 C57 1.476 . S
H74 O100 0.856 . S
H75 O103 0.854 . S
H76 C111 0.930 . S
H77 C112 0.930 . S
H78 C114 0.930 . S
H79 C115 0.930 . S
H80 C117 0.931 . S
H81 C118 0.930 . S
H82 C120 0.930 . S
H83 C121 0.929 . S
H84 C123 0.930 . S
H85 C124 0.931 . S
H86 C126 0.930 . S
H87 C127 0.929 . S
H88 C129 0.931 . S
H89 C130 0.930 . S
H90 C132 0.930 . S
H91 C133 0.932 . S
H92 C135 0.930 1_554 S
H93 C136 0.929 . S
H94 C138 0.931 . S
H95 C139 0.930 . S
H96 C141 0.929 . S
H97 C142 0.935 . S
H98 C144 0.930 . S
H99 C145 0.929 . S
O100 H74 0.856 . S
O100 C146 1.300 . S
O101 C146 1.209 . S
O102 C147 1.199 . S
O103 H75 0.854 . S
O103 C147 1.297 . S
C104 C105 1.404 . S
C104 C109 1.397 . S
C104 C110 1.492 . S
C105 C104 1.404 . S
C105 C106 1.396 . S
C105 C116 1.492 . S
C106 C105 1.396 . S
C106 C107 1.397 . S
C106 C122 1.509 . S
C107 C106 1.397 . S
C107 C108 1.412 . S
C107 C128 1.485 . S
C108 C107 1.412 . S
C108 C109 1.388 . S
C108 C134 1.490 . S
C109 C104 1.397 . S
C109 C108 1.388 . S
C109 C140 1.519 . S
C110 C104 1.492 . S
C110 C111 1.363 . S
C110 C115 1.390 . S
C111 H76 0.930 . S
C111 C110 1.363 . S
C111 C112 1.372 . S
C112 H77 0.930 . S
C112 C111 1.372 . S
C112 C113 1.383 . S
C113 C112 1.383 . S
C113 C114 1.395 . S
C114 H78 0.930 . S
C114 C113 1.395 . S
C114 C115 1.362 . S
C115 H79 0.930 . S
C115 C110 1.390 . S
C115 C114 1.362 . S
C116 C105 1.492 . S
C116 C117 1.377 . S
C116 C121 1.397 . S
C117 H80 0.931 . S
C117 C116 1.377 . S
C117 C118 1.376 . S
C118 H81 0.930 . S
C118 C117 1.376 . S
C118 C119 1.376 . S
C119 C118 1.376 . S
C119 C120 1.378 . S
C119 C146 1.486 . S
C120 H82 0.930 . S
C120 C119 1.378 . S
C120 C121 1.376 . S
C121 H83 0.929 . S
C121 C116 1.397 . S
C121 C120 1.376 . S
C122 C106 1.509 . S
C122 C123 1.391 . S
C122 C127 1.386 . S
C123 H84 0.930 . S
C123 C122 1.391 . S
C123 C124 1.375 . S
C124 H85 0.931 . S
C124 C123 1.375 . S
C124 C125 1.375 . S
C125 C124 1.375 . S
C125 C126 1.361 . S
C126 H86 0.930 . S
C126 C125 1.361 . S
C126 C127 1.399 . S
C127 H87 0.929 . S
C127 C122 1.386 . S
C127 C126 1.399 . S
C128 C107 1.485 . S
C128 C129 1.394 . S
C128 C133 1.360 . S
C129 H88 0.931 . S
C129 C128 1.394 . S
C129 C130 1.372 . S
C130 H89 0.930 . S
C130 C129 1.372 . S
C130 C131 1.397 . S
C131 C130 1.397 . S
C131 C132 1.390 . S
C131 C147 1.476 . S
C132 H90 0.930 . S
C132 C131 1.390 . S
C132 C133 1.366 . S
C133 H91 0.932 . S
C133 C128 1.360 . S
C133 C132 1.366 . S
C134 C108 1.490 . S
C134 C135 1.380 1_554 S
C134 C139 1.386 1_554 S
C135 H92 0.930 1_556 S
C135 C134 1.380 1_556 S
C135 C136 1.381 . S
C136 H93 0.929 . S
C136 C135 1.381 . S
C136 C137 1.371 . S
C137 C136 1.371 . S
C137 C138 1.380 . S
C138 H94 0.931 . S
C138 C137 1.380 . S
C138 C139 1.387 . S
C139 H95 0.930 . S
C139 C134 1.386 1_556 S
C139 C138 1.387 . S
C140 C109 1.519 . S
C140 C141 1.377 . S
C140 C145 1.361 . S
C141 H96 0.929 . S
C141 C140 1.377 . S
C141 C142 1.375 1_554 S
C142 H97 0.935 . S
C142 C141 1.375 1_556 S
C142 C143 1.371 . S
C143 C142 1.371 . S
C143 C144 1.385 . S
C144 H98 0.930 . S
C144 C143 1.385 . S
C144 C145 1.396 1_556 S
C145 H99 0.929 . S
C145 C140 1.361 . S
C145 C144 1.396 1_554 S
C146 O100 1.300 . S
C146 O101 1.209 . S
C146 C119 1.486 . S
C147 O102 1.199 . S
C147 O103 1.297 . S
C147 C131 1.476 . S
H148 O174 0.856 . S
H149 O177 0.854 . S
H150 C185 0.930 . S
H151 C186 0.930 . S
H152 C188 0.930 . S
H153 C189 0.930 . S
H154 C191 0.931 . S
H155 C192 0.930 . S
H156 C194 0.930 . S
H157 C195 0.929 . S
H158 C197 0.930 . S
H159 C198 0.931 . S
H160 C200 0.930 . S
H161 C201 0.929 . S
H162 C203 0.931 . S
H163 C204 0.930 . S
H164 C206 0.930 . S
H165 C207 0.932 1_556 S
H166 C209 0.930 . S
H167 C210 0.929 . S
H168 C212 0.931 . S
H169 C213 0.930 . S
H170 C215 0.929 . S
H171 C216 0.931 . S
H172 C218 0.930 . S
H173 C219 0.929 . S
O174 H148 0.856 . S
O174 C220 1.300 . S
O175 C220 1.209 . S
O176 C221 1.199 . S
O177 H149 0.854 . S
O177 C221 1.297 . S
C178 C179 1.404 . S
C178 C183 1.397 1_556 S
C178 C184 1.492 . S
C179 C178 1.404 . S
C179 C180 1.396 . S
C179 C190 1.492 . S
C180 C179 1.396 . S
C180 C181 1.397 1_556 S
C180 C196 1.509 . S
C181 C180 1.397 1_554 S
C181 C182 1.412 . S
C181 C202 1.485 . S
C182 C181 1.412 . S
C182 C183 1.388 . S
C182 C208 1.490 . S
C183 C178 1.397 1_554 S
C183 C182 1.388 . S
C183 C214 1.519 . S
C184 C178 1.492 . S
C184 C185 1.363 . S
C184 C189 1.390 . S
C185 H150 0.930 . S
C185 C184 1.363 . S
C185 C186 1.372 . S
C186 H151 0.930 . S
C186 C185 1.372 . S
C186 C187 1.383 . S
C187 C186 1.383 . S
C187 C188 1.395 . S
C188 H152 0.930 . S
C188 C187 1.395 . S
C188 C189 1.362 . S
C189 H153 0.930 . S
C189 C184 1.390 . S
C189 C188 1.362 . S
C190 C179 1.492 . S
C190 C191 1.377 . S
C190 C195 1.397 . S
C191 H154 0.931 . S
C191 C190 1.377 . S
C191 C192 1.376 . S
C192 H155 0.930 . S
C192 C191 1.376 . S
C192 C193 1.376 . S
C193 C192 1.376 . S
C193 C194 1.378 . S
C193 C220 1.486 . S
C194 H156 0.930 . S
C194 C193 1.378 . S
C194 C195 1.376 . S
C195 H157 0.929 . S
C195 C190 1.397 . S
C195 C194 1.376 . S
C196 C180 1.509 . S
C196 C197 1.391 . S
C196 C201 1.386 . S
C197 H158 0.930 . S
C197 C196 1.391 . S
C197 C198 1.375 . S
C198 H159 0.931 . S
C198 C197 1.375 . S
C198 C199 1.375 . S
C199 C198 1.375 . S
C199 C200 1.361 . S
C200 H160 0.930 . S
C200 C199 1.361 . S
C200 C201 1.399 . S
C201 H161 0.929 . S
C201 C196 1.386 . S
C201 C200 1.399 . S
C202 C181 1.485 . S
C202 C203 1.394 . S
C202 C207 1.360 . S
C203 H162 0.931 . S
C203 C202 1.394 . S
C203 C204 1.372 . S
C204 H163 0.930 . S
C204 C203 1.372 . S
C204 C205 1.397 . S
C205 C204 1.397 . S
C205 C206 1.390 . S
C205 C221 1.476 . S
C206 H164 0.930 . S
C206 C205 1.390 . S
C206 C207 1.366 . S
C207 H165 0.932 1_554 S
C207 C202 1.360 . S
C207 C206 1.366 . S
C208 C182 1.490 . S
C208 C209 1.380 . S
C208 C213 1.386 . S
C209 H166 0.930 . S
C209 C208 1.380 . S
C209 C210 1.381 . S
C210 H167 0.929 . S
C210 C209 1.381 . S
C210 C211 1.371 . S
C211 C210 1.371 . S
C211 C212 1.380 . S
C212 H168 0.931 . S
C212 C211 1.380 . S
C212 C213 1.387 . S
C213 H169 0.930 . S
C213 C208 1.386 . S
C213 C212 1.387 . S
C214 C183 1.519 . S
C214 C215 1.377 . S
C214 C219 1.361 . S
C215 H170 0.929 . S
C215 C214 1.377 . S
C215 C216 1.386 . S
C216 H171 0.931 . S
C216 C215 1.386 . S
C216 C217 1.363 . S
C217 C216 1.363 . S
C217 C218 1.385 . S
C218 H172 0.930 . S
C218 C217 1.385 . S
C218 C219 1.396 . S
C219 H173 0.929 . S
C219 C214 1.361 . S
C219 C218 1.396 . S
C220 O174 1.300 . S
C220 O175 1.209 . S
C220 C193 1.486 . S
C221 O176 1.199 . S
C221 O177 1.297 . S
C221 C205 1.476 . S
H222 O248 0.856 . S
H223 O251 0.854 . S
H224 C259 0.930 . S
H225 C260 0.930 . S
H226 C262 0.930 . S
H227 C263 0.930 . S
H228 C265 0.931 . S
H229 C266 0.930 . S
H230 C268 0.930 . S
H231 C269 0.929 . S
H232 C271 0.930 . S
H233 C272 0.931 . S
H234 C274 0.930 . S
H235 C275 0.929 . S
H236 C277 0.931 1_556 S
H237 C278 0.930 . S
H238 C280 0.930 . S
H239 C281 0.932 . S
H240 C283 0.930 . S
H241 C284 0.929 . S
H242 C286 0.931 . S
H243 C287 0.930 . S
H244 C289 0.929 . S
H245 C290 0.931 . S
H246 C292 0.930 . S
H247 C293 0.929 . S
O248 H222 0.856 . S
O248 C294 1.300 . S
O249 C294 1.209 . S
O250 C295 1.199 . S
O251 H223 0.854 . S
O251 C295 1.297 1_554 S
C252 C253 1.404 . S
C252 C257 1.397 . S
C252 C258 1.492 . S
C253 C252 1.404 . S
C253 C254 1.396 . S
C253 C264 1.492 . S
C254 C253 1.396 . S
C254 C255 1.397 . S
C254 C270 1.509 . S
C255 C254 1.397 . S
C255 C256 1.412 . S
C255 C276 1.485 . S
C256 C255 1.412 . S
C256 C257 1.388 . S
C256 C282 1.490 1_554 S
C257 C252 1.397 . S
C257 C256 1.388 . S
C257 C288 1.519 1_554 S
C258 C252 1.492 . S
C258 C259 1.363 . S
C258 C263 1.390 . S
C259 H224 0.930 . S
C259 C258 1.363 . S
C259 C260 1.372 . S
C260 H225 0.930 . S
C260 C259 1.372 . S
C260 C261 1.383 . S
C261 C260 1.383 . S
C261 C262 1.395 . S
C262 H226 0.930 . S
C262 C261 1.395 . S
C262 C263 1.362 . S
C263 H227 0.930 . S
C263 C258 1.390 . S
C263 C262 1.362 . S
C264 C253 1.492 . S
C264 C265 1.377 . S
C264 C269 1.397 . S
C265 H228 0.931 . S
C265 C264 1.377 . S
C265 C266 1.376 . S
C266 H229 0.930 . S
C266 C265 1.376 . S
C266 C267 1.376 . S
C267 C266 1.376 . S
C267 C268 1.378 . S
C267 C294 1.486 . S
C268 H230 0.930 . S
C268 C267 1.378 . S
C268 C269 1.376 . S
C269 H231 0.929 . S
C269 C264 1.397 . S
C269 C268 1.376 . S
C270 C254 1.509 . S
C270 C271 1.391 . S
C270 C275 1.386 . S
C271 H232 0.930 . S
C271 C270 1.391 . S
C271 C272 1.375 . S
C272 H233 0.931 . S
C272 C271 1.375 . S
C272 C273 1.375 . S
C273 C272 1.375 . S
C273 C274 1.361 . S
C274 H234 0.930 . S
C274 C273 1.361 . S
C274 C275 1.399 . S
C275 H235 0.929 . S
C275 C270 1.386 . S
C275 C274 1.399 . S
C276 C255 1.485 . S
C276 C277 1.394 . S
C276 C281 1.360 . S
C277 H236 0.931 1_554 S
C277 C276 1.394 . S
C277 C278 1.372 1_554 S
C278 H237 0.930 . S
C278 C277 1.372 1_556 S
C278 C279 1.397 1_556 S
C279 C278 1.397 1_554 S
C279 C280 1.390 . S
C279 C295 1.476 1_554 S
C280 H238 0.930 . S
C280 C279 1.390 . S
C280 C281 1.366 . S
C281 H239 0.932 . S
C281 C276 1.360 . S
C281 C280 1.366 . S
C282 C256 1.490 1_556 S
C282 C283 1.380 . S
C282 C287 1.386 . S
C283 H240 0.930 . S
C283 C282 1.380 . S
C283 C284 1.381 . S
C284 H241 0.929 . S
C284 C283 1.381 . S
C284 C285 1.371 . S
C285 C284 1.371 . S
C285 C286 1.380 . S
C286 H242 0.931 . S
C286 C285 1.380 . S
C286 C287 1.387 . S
C287 H243 0.930 . S
C287 C282 1.386 . S
C287 C286 1.387 . S
C288 C257 1.519 1_556 S
C288 C289 1.377 . S
C288 C293 1.361 . S
C289 H244 0.929 . S
C289 C288 1.377 . S
C289 C290 1.386 . S
C290 H245 0.931 . S
C290 C289 1.386 . S
C290 C291 1.363 . S
C291 C290 1.363 . S
C291 C292 1.385 . S
C292 H246 0.930 . S
C292 C291 1.385 . S
C292 C293 1.396 . S
C293 H247 0.929 . S
C293 C288 1.361 . S
C293 C292 1.396 . S
C294 O248 1.300 . S
C294 O249 1.209 . S
C294 C267 1.486 . S
C295 O250 1.199 . S
C295 O251 1.297 1_556 S
C295 C279 1.476 1_556 S
H296 O322 0.856 . S
H297 O325 0.854 . S
H298 C333 0.930 . S
H299 C334 0.930 . S
H300 C336 0.930 . S
H301 C337 0.930 . S
H302 C339 0.931 . S
H303 C340 0.930 . S
H304 C342 0.930 . S
H305 C343 0.929 . S
H306 C345 0.930 . S
H307 C346 0.931 . S
H308 C348 0.930 . S
H309 C349 0.929 . S
H310 C351 0.931 . S
H311 C352 0.930 . S
H312 C354 0.930 . S
H313 C355 0.932 . S
H314 C357 0.921 1_554 S
H315 C358 0.929 . S
H316 C360 0.931 . S
H317 C361 0.930 1_554 S
H318 C363 0.929 . S
H319 C364 0.931 . S
H320 C366 0.930 . S
H321 C367 0.929 . S
O322 H296 0.856 . S
O322 C368 1.300 . S
O323 C368 1.209 . S
O324 C369 1.199 . S
O325 H297 0.854 . S
O325 C369 1.297 . S
C326 C327 1.404 . S
C326 C331 1.397 . S
C326 C332 1.492 . S
C327 C326 1.404 . S
C327 C328 1.396 . S
C327 C338 1.492 . S
C328 C327 1.396 . S
C328 C329 1.397 . S
C328 C344 1.509 . S
C329 C328 1.397 . S
C329 C330 1.412 . S
C329 C350 1.485 . S
C330 C329 1.412 . S
C330 C331 1.388 . S
C330 C356 1.490 . S
C331 C326 1.397 . S
C331 C330 1.388 . S
C331 C362 1.519 . S
C332 C326 1.492 . S
C332 C333 1.363 . S
C332 C337 1.390 . S
C333 H298 0.930 . S
C333 C332 1.363 . S
C333 C334 1.372 . S
C334 H299 0.930 . S
C334 C333 1.372 . S
C334 C335 1.383 . S
C335 C334 1.383 . S
C335 C336 1.395 . S
C336 H300 0.930 . S
C336 C335 1.395 . S
C336 C337 1.362 . S
C337 H301 0.930 . S
C337 C332 1.390 . S
C337 C336 1.362 . S
C338 C327 1.492 . S
C338 C339 1.377 . S
C338 C343 1.397 . S
C339 H302 0.931 . S
C339 C338 1.377 . S
C339 C340 1.376 . S
C340 H303 0.930 . S
C340 C339 1.376 . S
C340 C341 1.376 . S
C341 C340 1.376 . S
C341 C342 1.378 . S
C341 C368 1.486 . S
C342 H304 0.930 . S
C342 C341 1.378 . S
C342 C343 1.376 . S
C343 H305 0.929 . S
C343 C338 1.397 . S
C343 C342 1.376 . S
C344 C328 1.509 . S
C344 C345 1.391 . S
C344 C349 1.386 . S
C345 H306 0.930 . S
C345 C344 1.391 . S
C345 C346 1.375 . S
C346 H307 0.931 . S
C346 C345 1.375 . S
C346 C347 1.375 . S
C347 C346 1.375 . S
C347 C348 1.361 . S
C348 H308 0.930 . S
C348 C347 1.361 . S
C348 C349 1.399 . S
C349 H309 0.929 . S
C349 C344 1.386 . S
C349 C348 1.399 . S
C350 C329 1.485 . S
C350 C351 1.394 . S
C350 C355 1.360 . S
C351 H310 0.931 . S
C351 C350 1.394 . S
C351 C352 1.372 . S
C352 H311 0.930 . S
C352 C351 1.372 . S
C352 C353 1.397 . S
C353 C352 1.397 . S
C353 C354 1.390 . S
C353 C369 1.476 . S
C354 H312 0.930 . S
C354 C353 1.390 . S
C354 C355 1.366 . S
C355 H313 0.932 . S
C355 C350 1.360 . S
C355 C354 1.366 . S
C356 C330 1.490 . S
C356 C357 1.370 1_554 S
C356 C361 1.386 1_554 S
C357 H314 0.921 1_556 S
C357 C356 1.370 1_556 S
C357 C358 1.400 . S
C358 H315 0.929 . S
C358 C357 1.400 . S
C358 C359 1.371 . S
C359 C358 1.371 . S
C359 C360 1.380 . S
C360 H316 0.931 . S
C360 C359 1.380 . S
C360 C361 1.387 . S
C361 H317 0.930 1_556 S
C361 C356 1.386 1_556 S
C361 C360 1.387 . S
C362 C331 1.519 . S
C362 C363 1.377 . S
C362 C367 1.361 . S
C363 H318 0.929 . S
C363 C362 1.377 . S
C363 C364 1.386 . S
C364 H319 0.931 . S
C364 C363 1.386 . S
C364 C365 1.363 1_554 S
C365 C364 1.363 1_556 S
C365 C366 1.385 . S
C366 H320 0.930 . S
C366 C365 1.385 . S
C366 C367 1.396 1_556 S
C367 H321 0.929 . S
C367 C362 1.361 . S
C367 C366 1.396 1_554 S
C368 O322 1.300 . S
C368 O323 1.209 . S
C368 C341 1.486 . S
C369 O324 1.199 . S
C369 O325 1.297 . S
C369 C353 1.476 . S
H370 O396 0.856 . S
H371 O399 0.854 . S
H372 C407 0.930 . S
H373 C408 0.930 . S
H374 C410 0.930 . S
H375 C411 0.930 . S
H376 C413 0.931 . S
H377 C414 0.930 . S
H378 C416 0.930 . S
H379 C417 0.929 1_554 S
H380 C419 0.930 . S
H381 C420 0.931 . S
H382 C422 0.930 . S
H383 C423 0.929 . S
H384 C425 0.931 . S
H385 C426 0.930 . S
H386 C428 0.930 . S
H387 C429 0.932 . S
H388 C431 0.930 . S
H389 C432 0.929 . S
H390 C434 0.931 . S
H391 C435 0.930 . S
H392 C437 0.929 . S
H393 C438 0.931 . S
H394 C440 0.930 . S
H395 C441 0.929 . S
O396 H370 0.856 . S
O396 C442 1.300 . S
O397 C442 1.209 . S
O398 C443 1.199 . S
O399 H371 0.854 . S
O399 C443 1.297 . S
C400 C401 1.404 . S
C400 C405 1.397 . S
C400 C406 1.492 . S
C401 C400 1.404 . S
C401 C402 1.396 . S
C401 C412 1.492 . S
C402 C401 1.396 . S
C402 C403 1.397 . S
C402 C418 1.509 . S
C403 C402 1.397 . S
C403 C404 1.412 . S
C403 C424 1.485 . S
C404 C403 1.412 . S
C404 C405 1.388 . S
C404 C430 1.490 . S
C405 C400 1.397 . S
C405 C404 1.388 . S
C405 C436 1.519 . S
C406 C400 1.492 . S
C406 C407 1.363 . S
C406 C411 1.390 . S
C407 H372 0.930 . S
C407 C406 1.363 . S
C407 C408 1.372 . S
C408 H373 0.930 . S
C408 C407 1.372 . S
C408 C409 1.383 . S
C409 C408 1.383 . S
C409 C410 1.395 . S
C410 H374 0.930 . S
C410 C409 1.395 . S
C410 C411 1.362 . S
C411 H375 0.930 . S
C411 C406 1.390 . S
C411 C410 1.362 . S
C412 C401 1.492 . S
C412 C413 1.377 1_554 S
C412 C417 1.397 1_554 S
C413 H376 0.931 . S
C413 C412 1.377 1_556 S
C413 C414 1.376 . S
C414 H377 0.930 . S
C414 C413 1.376 . S
C414 C415 1.376 . S
C415 C414 1.376 . S
C415 C416 1.378 . S
C415 C442 1.486 . S
C416 H378 0.930 . S
C416 C415 1.378 . S
C416 C417 1.376 . S
C417 H379 0.929 1_556 S
C417 C412 1.397 1_556 S
C417 C416 1.376 . S
C418 C402 1.509 . S
C418 C419 1.391 . S
C418 C423 1.386 . S
C419 H380 0.930 . S
C419 C418 1.391 . S
C419 C420 1.375 1_554 S
C420 H381 0.931 . S
C420 C419 1.375 1_556 S
C420 C421 1.375 . S
C421 C420 1.375 . S
C421 C422 1.361 . S
C422 H382 0.930 . S
C422 C421 1.361 . S
C422 C423 1.399 1_556 S
C423 H383 0.929 . S
C423 C418 1.386 . S
C423 C422 1.399 1_554 S
C424 C403 1.485 . S
C424 C425 1.394 . S
C424 C429 1.360 . S
C425 H384 0.931 . S
C425 C424 1.394 . S
C425 C426 1.372 . S
C426 H385 0.930 . S
C426 C425 1.372 . S
C426 C427 1.397 . S
C427 C426 1.397 . S
C427 C428 1.390 . S
C427 C443 1.476 . S
C428 H386 0.930 . S
C428 C427 1.390 . S
C428 C429 1.366 . S
C429 H387 0.932 . S
C429 C424 1.360 . S
C429 C428 1.366 . S
C430 C404 1.490 . S
C430 C431 1.380 . S
C430 C435 1.386 . S
C431 H388 0.930 . S
C431 C430 1.380 . S
C431 C432 1.381 . S
C432 H389 0.929 . S
C432 C431 1.381 . S
C432 C433 1.371 . S
C433 C432 1.371 . S
C433 C434 1.380 . S
C434 H390 0.931 . S
C434 C433 1.380 . S
C434 C435 1.387 . S
C435 H391 0.930 . S
C435 C430 1.386 . S
C435 C434 1.387 . S
C436 C405 1.519 . S
C436 C437 1.377 . S
C436 C441 1.361 . S
C437 H392 0.929 . S
C437 C436 1.377 . S
C437 C438 1.386 . S
C438 H393 0.931 . S
C438 C437 1.386 . S
C438 C439 1.363 . S
C439 C438 1.363 . S
C439 C440 1.385 . S
C440 H394 0.930 . S
C440 C439 1.385 . S
C440 C441 1.396 . S
C441 H395 0.929 . S
C441 C436 1.361 . S
C441 C440 1.396 . S
C442 O396 1.300 . S
C442 O397 1.209 . S
C442 C415 1.486 . S
C443 O398 1.199 . S
C443 O399 1.297 . S
C443 C427 1.476 . S
C444 O471 1.312 . S
C444 O472 1.208 . S
C445 O466 1.331 . S
C445 O469 1.244 . S
C446 O468 1.264 . S
C446 O470 1.273 . S
Mg447 O449 1.936 . S
Mg447 O456 2.081 1_455 S
Mg447 O458 2.023 . S
Mg447 O462 2.031 1_455 S
Mg447 O471 2.291 . S
Mg448 O449 1.963 . S
Mg448 O459 1.942 1_455 S
Mg448 O460 1.955 . S
Mg448 O467 1.986 1_455 S
O449 Mg447 1.936 . S
O449 Mg448 1.963 . S
O449 Mg450 1.915 . S
Mg450 O449 1.915 . S
Mg450 O451 1.915 . S
Mg450 O455 2.013 . S
Mg450 O461 2.114 1_455 S
Mg450 O465 2.013 1_455 S
Mg450 O471 2.114 . S
O451 Mg450 1.915 . S
O451 Mg452 1.936 . S
O451 Mg453 1.963 . S
Mg452 O451 1.936 . S
Mg452 O461 2.291 1_455 S
Mg452 O466 2.081 . S
Mg452 O468 2.023 1_455 S
Mg452 O472 2.031 . S
Mg453 O451 1.963 . S
Mg453 O457 1.986 . S
Mg453 O469 1.942 . S
Mg453 O470 1.955 1_455 S
C454 O465 1.191 . S
C454 O467 1.307 . S
O455 Mg450 2.013 . S
O455 C474 1.191 . S
O456 Mg447 2.081 1_655 S
O456 C464 1.331 . S
O457 Mg453 1.986 . S
O457 C474 1.307 . S
O458 Mg447 2.023 . S
O458 C473 1.264 . S
O459 Mg448 1.942 1_655 S
O459 C464 1.244 . S
O460 Mg448 1.955 . S
O460 C473 1.273 . S
O461 Mg450 2.114 1_655 S
O461 Mg452 2.291 1_655 S
O461 C463 1.312 . S
O462 Mg447 2.031 1_655 S
O462 C463 1.208 . S
C463 O461 1.312 . S
C463 O462 1.208 . S
C464 O456 1.331 . S
C464 O459 1.244 . S
O465 Mg450 2.013 1_655 S
O465 C454 1.191 . S
O466 C445 1.331 . S
O466 Mg452 2.081 . S
O467 Mg448 1.986 1_655 S
O467 C454 1.307 . S
O468 C446 1.264 . S
O468 Mg452 2.023 1_655 S
O469 C445 1.244 . S
O469 Mg453 1.942 . S
O470 C446 1.273 . S
O470 Mg453 1.955 1_655 S
O471 C444 1.312 . S
O471 Mg447 2.291 . S
O471 Mg450 2.114 . S
O472 C444 1.208 . S
O472 Mg452 2.031 . S
C473 O458 1.264 . S
C473 O460 1.273 . S
C474 O455 1.191 . S
C474 O457 1.307 . S
C475 O502 1.312 . S
C475 O503 1.208 . S
C476 O497 1.331 . S
C476 O500 1.244 . S
C477 O499 1.264 . S
C477 O501 1.273 . S
Mg478 O480 1.936 1_545 S
Mg478 O487 2.081 1_545 S
Mg478 O489 2.023 . S
Mg478 O493 2.031 1_545 S
Mg478 O502 2.291 . S
Mg479 O480 1.963 . S
Mg479 O490 1.942 . S
Mg479 O491 1.955 1_565 S
Mg479 O498 1.986 . S
O480 Mg478 1.936 1_565 S
O480 Mg479 1.963 . S
O480 Mg481 1.915 1_565 S
Mg481 O480 1.915 1_545 S
Mg481 O482 1.915 . S
Mg481 O486 2.013 . S
Mg481 O492 2.114 1_545 S
Mg481 O496 2.013 1_545 S
Mg481 O502 2.114 . S
O482 Mg481 1.915 . S
O482 Mg483 1.936 . S
O482 Mg484 1.963 . S
Mg483 O482 1.936 . S
Mg483 O492 2.291 1_545 S
Mg483 O497 2.081 . S
Mg483 O499 2.023 1_545 S
Mg483 O503 2.031 . S
Mg484 O482 1.963 . S
Mg484 O488 1.986 . S
Mg484 O500 1.942 . S
Mg484 O501 1.955 1_545 S
C485 O496 1.191 . S
C485 O498 1.307 . S
O486 Mg481 2.013 . S
O486 C505 1.191 . S
O487 Mg478 2.081 1_565 S
O487 C495 1.331 . S
O488 Mg484 1.986 . S
O488 C505 1.307 . S
O489 Mg478 2.023 . S
O489 C504 1.264 . S
O490 Mg479 1.942 . S
O490 C495 1.244 . S
O491 Mg479 1.955 1_545 S
O491 C504 1.273 . S
O492 Mg481 2.114 1_565 S
O492 Mg483 2.291 1_565 S
O492 C494 1.312 . S
O493 Mg478 2.031 1_565 S
O493 C494 1.208 . S
C494 O492 1.312 . S
C494 O493 1.208 . S
C495 O487 1.331 . S
C495 O490 1.244 . S
O496 Mg481 2.013 1_565 S
O496 C485 1.191 . S
O497 C476 1.331 . S
O497 Mg483 2.081 . S
O498 Mg479 1.986 . S
O498 C485 1.307 . S
O499 C477 1.264 . S
O499 Mg483 2.023 1_565 S
O500 C476 1.244 . S
O500 Mg484 1.942 . S
O501 C477 1.273 . S
O501 Mg484 1.955 1_565 S
O502 C475 1.312 . S
O502 Mg478 2.291 . S
O502 Mg481 2.114 . S
O503 C475 1.208 . S
O503 Mg483 2.031 . S
C504 O489 1.264 . S
C504 O491 1.273 . S
C505 O486 1.191 . S
C505 O488 1.307 . S
C506 O533 1.312 . S
C506 O534 1.208 . S
C507 O528 1.331 . S
C507 O531 1.244 . S
C508 O530 1.264 . S
C508 O532 1.273 . S
Mg509 O511 1.936 . S
Mg509 O518 2.081 . S
Mg509 O520 2.023 . S
Mg509 O524 2.031 . S
Mg509 O533 2.291 . S
Mg510 O511 1.963 . S
Mg510 O521 1.942 . S
Mg510 O522 1.955 . S
Mg510 O529 1.986 . S
O511 Mg509 1.936 . S
O511 Mg510 1.963 . S
O511 Mg512 1.915 . S
Mg512 O511 1.915 . S
Mg512 O513 1.915 . S
Mg512 O517 2.013 . S
Mg512 O523 2.114 . S
Mg512 O527 2.013 . S
Mg512 O533 2.114 . S
O513 Mg512 1.915 . S
O513 Mg514 1.936 . S
O513 Mg515 1.963 . S
Mg514 O513 1.936 . S
Mg514 O523 2.291 . S
Mg514 O528 2.081 . S
Mg514 O530 2.023 . S
Mg514 O534 2.031 . S
Mg515 O513 1.963 . S
Mg515 O519 1.986 . S
Mg515 O531 1.942 . S
Mg515 O532 1.955 . S
C516 O527 1.191 . S
C516 O529 1.307 . S
O517 Mg512 2.013 . S
O517 C536 1.191 . S
O518 Mg509 2.081 . S
O518 C526 1.331 . S
O519 Mg515 1.986 . S
O519 C536 1.307 . S
O520 Mg509 2.023 . S
O520 C535 1.264 . S
O521 Mg510 1.942 . S
O521 C526 1.244 . S
O522 Mg510 1.955 . S
O522 C535 1.273 . S
O523 Mg512 2.114 . S
O523 Mg514 2.291 . S
O523 C525 1.312 . S
O524 Mg509 2.031 . S
O524 C525 1.208 . S
C525 O523 1.312 . S
C525 O524 1.208 . S
C526 O518 1.331 . S
C526 O521 1.244 . S
O527 Mg512 2.013 . S
O527 C516 1.191 . S
O528 C507 1.331 . S
O528 Mg514 2.081 . S
O529 Mg510 1.986 . S
O529 C516 1.307 . S
O530 C508 1.264 . S
O530 Mg514 2.023 . S
O531 C507 1.244 . S
O531 Mg515 1.942 . S
O532 C508 1.273 . S
O532 Mg515 1.955 . S
O533 C506 1.312 . S
O533 Mg509 2.291 . S
O533 Mg512 2.114 . S
O534 C506 1.208 . S
O534 Mg514 2.031 . S
C535 O520 1.264 . S
C535 O522 1.273 . S
C536 O517 1.191 . S
C536 O519 1.307 . S
H537 C543 0.930 . S
H538 C547 0.930 . S
H539 C552 0.929 . S
H540 C550 0.929 . S
H541 C545 0.929 . S
H542 C551 0.929 . S
C543 H537 0.930 . S
C543 C544 1.367 . S
C543 C551 1.378 . S
C544 C543 1.367 . S
C544 C552 1.433 . S
C545 H541 0.929 . S
C545 C547 1.378 . S
C545 C549 1.350 . S
C546 C549 1.463 . S
C546 C551 1.350 . S
C546 N554 1.427 . S
C547 H538 0.930 . S
C547 C545 1.378 . S
C547 C548 1.367 . S
C548 C547 1.367 . S
C548 C550 1.433 . S
C549 C545 1.350 . S
C549 C546 1.463 . S
C549 N553 1.427 . S
C550 H540 0.929 . S
C550 C548 1.433 . S
C550 N553 1.384 . S
C551 H542 0.929 . S
C551 C543 1.378 . S
C551 C546 1.350 . S
C552 H539 0.929 . S
C552 C544 1.433 . S
C552 N554 1.384 . S
N553 C549 1.427 . S
N553 C550 1.384 . S
N554 C546 1.427 . S
N554 C552 1.384 . S
H555 C561 0.930 . S
H556 C565 0.930 . S
H557 C570 0.929 . S
H558 C568 0.929 . S
H559 C563 0.929 . S
H560 C569 0.929 . S
C561 H555 0.930 . S
C561 C562 1.367 . S
C561 C569 1.378 . S
C562 C561 1.367 . S
C562 C570 1.433 . S
C563 H559 0.929 . S
C563 C565 1.378 . S
C563 C567 1.350 . S
C564 C567 1.463 . S
C564 C569 1.350 . S
C564 N572 1.427 . S
C565 H556 0.930 . S
C565 C563 1.378 . S
C565 C566 1.367 . S
C566 C565 1.367 . S
C566 C568 1.433 . S
C567 C563 1.350 . S
C567 C564 1.463 . S
C567 N571 1.427 . S
C568 H558 0.929 . S
C568 C566 1.433 . S
C568 N571 1.384 . S
C569 H560 0.929 . S
C569 C561 1.378 . S
C569 C564 1.350 . S
C570 H557 0.929 . S
C570 C562 1.433 . S
C570 N572 1.384 . S
N571 C567 1.427 . S
N571 C568 1.384 . S
N572 C564 1.427 . S
N572 C570 1.384 . S
H573 C579 0.930 . S
H574 C583 0.930 . S
H575 C588 0.929 . S
H576 C586 0.929 . S
H577 C581 0.929 . S
H578 C587 0.929 . S
C579 H573 0.930 . S
C579 C580 1.367 . S
C579 C587 1.378 . S
C580 C579 1.367 . S
C580 C588 1.433 . S
C581 H577 0.929 . S
C581 C583 1.378 . S
C581 C585 1.350 . S
C582 C585 1.463 . S
C582 C587 1.350 . S
C582 N590 1.427 . S
C583 H574 0.930 . S
C583 C581 1.378 . S
C583 C584 1.367 . S
C584 C583 1.367 . S
C584 C586 1.433 . S
C585 C581 1.350 . S
C585 C582 1.463 . S
C585 N589 1.427 . S
C586 H576 0.929 . S
C586 C584 1.433 . S
C586 N589 1.384 . S
C587 H578 0.929 . S
C587 C579 1.378 . S
C587 C582 1.350 . S
C588 H575 0.929 . S
C588 C580 1.433 . S
C588 N590 1.384 . S
N589 C585 1.427 . S
N589 C586 1.384 . S
N590 C582 1.427 . S
N590 C588 1.384 . S
H591 C597 0.930 . S
H592 C601 0.930 . S
H593 C606 0.929 . S
H594 C604 0.929 . S
H595 C599 0.929 . S
H596 C605 0.929 . S
C597 H591 0.930 . S
C597 C598 1.367 . S
C597 C605 1.378 . S
C598 C597 1.367 . S
C598 C606 1.433 . S
C599 H595 0.929 . S
C599 C601 1.378 . S
C599 C603 1.350 . S
C600 C603 1.463 . S
C600 C605 1.350 . S
C600 N608 1.427 . S
C601 H592 0.930 . S
C601 C599 1.378 . S
C601 C602 1.367 . S
C602 C601 1.367 . S
C602 C604 1.433 . S
C603 C599 1.350 . S
C603 C600 1.463 . S
C603 N607 1.427 . S
C604 H594 0.929 . S
C604 C602 1.433 . S
C604 N607 1.384 . S
C605 H596 0.929 . S
C605 C597 1.378 . S
C605 C600 1.350 . S
C606 H593 0.929 . S
C606 C598 1.433 . S
C606 N608 1.384 . S
N607 C603 1.427 . S
N607 C604 1.384 . S
N608 C600 1.427 . S
N608 C606 1.384 . S
H609 C615 0.930 . S
H610 C619 0.930 . S
H611 C624 0.929 . S
H612 C622 0.929 . S
H613 C617 0.929 . S
H614 C623 0.929 . S
C615 H609 0.930 . S
C615 C616 1.367 . S
C615 C623 1.378 . S
C616 C615 1.367 . S
C616 C624 1.433 . S
C617 H613 0.929 . S
C617 C619 1.378 . S
C617 C621 1.350 . S
C618 C621 1.463 . S
C618 C623 1.350 . S
C618 N626 1.427 . S
C619 H610 0.930 . S
C619 C617 1.378 . S
C619 C620 1.367 . S
C620 C619 1.367 . S
C620 C622 1.433 . S
C621 C617 1.350 . S
C621 C618 1.463 . S
C621 N625 1.427 . S
C622 H612 0.929 . S
C622 C620 1.433 . S
C622 N625 1.384 . S
C623 H614 0.929 . S
C623 C615 1.378 . S
C623 C618 1.350 . S
C624 H611 0.929 . S
C624 C616 1.433 . S
C624 N626 1.384 . S
N625 C621 1.427 . S
N625 C622 1.384 . S
N626 C618 1.427 . S
N626 C624 1.384 . S
H627 C633 0.930 . S
H628 C637 0.930 . S
H629 C642 0.929 . S
H630 C640 0.929 . S
H631 C635 0.929 . S
H632 C641 0.929 . S
C633 H627 0.930 . S
C633 C634 1.367 . S
C633 C641 1.378 . S
C634 C633 1.367 . S
C634 C642 1.433 . S
C635 H631 0.929 . S
C635 C637 1.378 . S
C635 C639 1.350 . S
C636 C639 1.463 . S
C636 C641 1.350 . S
C636 N644 1.427 . S
C637 H628 0.930 . S
C637 C635 1.378 . S
C637 C638 1.367 . S
C638 C637 1.367 . S
C638 C640 1.433 . S
C639 C635 1.350 . S
C639 C636 1.463 . S
C639 N643 1.427 . S
C640 H630 0.929 . S
C640 C638 1.433 . S
C640 N643 1.384 . S
C641 H632 0.929 . S
C641 C633 1.378 . S
C641 C636 1.350 . S
C642 H629 0.929 . S
C642 C634 1.433 . S
C642 N644 1.384 . S
N643 C639 1.427 . S
N643 C640 1.384 . S
N644 C636 1.427 . S
N644 C642 1.384 . S
H645 C651 0.930 . S
H646 C655 0.930 . S
H647 C660 0.929 . S
H648 C658 0.929 . S
H649 C653 0.929 . S
H650 C659 0.929 . S
C651 H645 0.930 . S
C651 C652 1.367 . S
C651 C659 1.378 . S
C652 C651 1.367 . S
C652 C660 1.433 . S
C653 H649 0.929 . S
C653 C655 1.378 . S
C653 C657 1.350 . S
C654 C657 1.463 . S
C654 C659 1.350 . S
C654 N662 1.427 . S
C655 H646 0.930 . S
C655 C653 1.378 . S
C655 C656 1.367 . S
C656 C655 1.367 . S
C656 C658 1.433 . S
C657 C653 1.350 . S
C657 C654 1.463 . S
C657 N661 1.427 . S
C658 H648 0.929 . S
C658 C656 1.433 . S
C658 N661 1.384 . S
C659 H650 0.929 . S
C659 C651 1.378 . S
C659 C654 1.350 . S
C660 H647 0.929 . S
C660 C652 1.433 . S
C660 N662 1.384 . S
N661 C657 1.427 . S
N661 C658 1.384 . S
N662 C654 1.427 . S
N662 C660 1.384 . S
H663 C669 0.930 . S
H664 C673 0.930 . S
H665 C678 0.929 . S
H666 C676 0.929 . S
H667 C671 0.929 . S
H668 C677 0.929 . S
C669 H663 0.930 . S
C669 C670 1.367 . S
C669 C677 1.378 . S
C670 C669 1.367 . S
C670 C678 1.433 . S
C671 H667 0.929 . S
C671 C673 1.378 . S
C671 C675 1.350 . S
C672 C675 1.463 . S
C672 C677 1.350 . S
C672 N680 1.427 . S
C673 H664 0.930 . S
C673 C671 1.378 . S
C673 C674 1.367 . S
C674 C673 1.367 . S
C674 C676 1.433 . S
C675 C671 1.350 . S
C675 C672 1.463 . S
C675 N679 1.427 . S
C676 H666 0.929 . S
C676 C674 1.433 . S
C676 N679 1.384 . S
C677 H668 0.929 . S
C677 C669 1.378 . S
C677 C672 1.350 . S
C678 H665 0.929 . S
C678 C670 1.433 . S
C678 N680 1.384 . S
N679 C675 1.427 . S
N679 C676 1.384 . S
N680 C672 1.427 . S
N680 C678 1.384 . S
H681 C687 0.930 . S
H682 C691 0.930 . S
H683 C696 0.929 . S
H684 C694 0.929 . S
H685 C689 0.929 . S
H686 C695 0.929 . S
C687 H681 0.930 . S
C687 C688 1.367 . S
C687 C695 1.378 . S
C688 C687 1.367 . S
C688 C696 1.433 . S
C689 H685 0.929 . S
C689 C691 1.378 . S
C689 C693 1.350 . S
C690 C693 1.463 . S
C690 C695 1.350 . S
C690 N698 1.427 . S
C691 H682 0.930 . S
C691 C689 1.378 . S
C691 C692 1.367 . S
C692 C691 1.367 . S
C692 C694 1.433 . S
C693 C689 1.350 . S
C693 C690 1.463 . S
C693 N697 1.427 . S
C694 H684 0.929 . S
C694 C692 1.433 . S
C694 N697 1.384 . S
C695 H686 0.929 . S
C695 C687 1.378 . S
C695 C690 1.350 . S
C696 H683 0.929 . S
C696 C688 1.433 . S
C696 N698 1.384 . S
N697 C693 1.427 . S
N697 C694 1.384 . S
N698 C690 1.427 . S
N698 C696 1.384 . S
H699 C705 0.930 . S
H700 C709 0.930 . S
H701 C714 0.929 . S
H702 C712 0.929 . S
H703 C707 0.929 . S
H704 C713 0.929 . S
C705 H699 0.930 . S
C705 C706 1.367 . S
C705 C713 1.378 . S
C706 C705 1.367 . S
C706 C714 1.433 . S
C707 H703 0.929 . S
C707 C709 1.378 . S
C707 C711 1.350 . S
C708 C711 1.463 . S
C708 C713 1.350 . S
C708 N716 1.427 . S
C709 H700 0.930 . S
C709 C707 1.378 . S
C709 C710 1.367 . S
C710 C709 1.367 . S
C710 C712 1.433 . S
C711 C707 1.350 . S
C711 C708 1.463 . S
C711 N715 1.427 . S
C712 H702 0.929 . S
C712 C710 1.433 . S
C712 N715 1.384 . S
C713 H704 0.929 . S
C713 C705 1.378 . S
C713 C708 1.350 . S
C714 H701 0.929 . S
C714 C706 1.433 . S
C714 N716 1.384 . S
N715 C711 1.427 . S
N715 C712 1.384 . S
N716 C708 1.427 . S
N716 C714 1.384 . S
H717 C723 0.930 . S
H718 C727 0.930 . S
H719 C732 0.929 1_554 S
H720 C730 0.929 . S
H721 C725 0.929 . S
H722 C731 0.929 . S
C723 H717 0.930 . S
C723 C724 1.367 . S
C723 C731 1.378 . S
C724 C723 1.367 . S
C724 C732 1.433 . S
C725 H721 0.929 . S
C725 C727 1.378 . S
C725 C729 1.350 . S
C726 C729 1.463 . S
C726 C731 1.350 . S
C726 N734 1.427 . S
C727 H718 0.930 . S
C727 C725 1.378 . S
C727 C728 1.367 . S
C728 C727 1.367 . S
C728 C730 1.433 . S
C729 C725 1.350 . S
C729 C726 1.463 . S
C729 N733 1.427 . S
C730 H720 0.929 . S
C730 C728 1.433 . S
C730 N733 1.384 . S
C731 H722 0.929 . S
C731 C723 1.378 . S
C731 C726 1.350 . S
C732 H719 0.929 1_556 S
C732 C724 1.433 . S
C732 N734 1.384 . S
N733 C729 1.427 . S
N733 C730 1.384 . S
N734 C726 1.427 . S
N734 C732 1.384 . S
H735 C741 0.930 . S
H736 C745 0.930 . S
H737 C750 0.929 . S
H738 C748 0.929 . S
H739 C743 0.929 . S
H740 C749 0.929 . S
C741 H735 0.930 . S
C741 C742 1.367 . S
C741 C749 1.378 . S
C742 C741 1.367 . S
C742 C750 1.433 . S
C743 H739 0.929 . S
C743 C745 1.378 . S
C743 C747 1.350 . S
C744 C747 1.463 . S
C744 C749 1.350 . S
C744 N752 1.427 . S
C745 H736 0.930 . S
C745 C743 1.378 . S
C745 C746 1.367 . S
C746 C745 1.367 . S
C746 C748 1.433 . S
C747 C743 1.350 . S
C747 C744 1.463 . S
C747 N751 1.427 . S
C748 H738 0.929 . S
C748 C746 1.433 . S
C748 N751 1.384 . S
C749 H740 0.929 . S
C749 C741 1.378 . S
C749 C744 1.350 . S
C750 H737 0.929 . S
C750 C742 1.433 . S
C750 N752 1.384 . S
N751 C747 1.427 . S
N751 C748 1.384 . S
N752 C744 1.427 . S
N752 C750 1.384 . S
H753 C759 0.930 . S
H754 C763 0.930 . S
H755 C768 0.929 . S
H756 C766 0.929 . S
H757 C761 0.929 . S
H758 C767 0.929 . S
C759 H753 0.930 . S
C759 C760 1.367 . S
C759 C767 1.378 . S
C760 C759 1.367 . S
C760 C768 1.433 . S
C761 H757 0.929 . S
C761 C763 1.378 . S
C761 C765 1.350 . S
C762 C765 1.463 . S
C762 C767 1.350 . S
C762 N770 1.427 . S
C763 H754 0.930 . S
C763 C761 1.378 . S
C763 C764 1.367 . S
C764 C763 1.367 . S
C764 C766 1.433 . S
C765 C761 1.350 . S
C765 C762 1.463 . S
C765 N769 1.427 . S
C766 H756 0.929 . S
C766 C764 1.433 . S
C766 N769 1.384 . S
C767 H758 0.929 . S
C767 C759 1.378 . S
C767 C762 1.350 . S
C768 H755 0.929 . S
C768 C760 1.433 . S
C768 N770 1.384 . S
N769 C765 1.427 . S
N769 C766 1.384 . S
N770 C762 1.427 . S
N770 C768 1.384 . S
H771 C777 0.930 1_554 S
H772 C781 0.930 . S
H773 C786 0.929 . S
H774 C784 0.929 . S
H775 C779 0.929 . S
H776 C785 0.929 . S
C777 H771 0.930 1_556 S
C777 C778 1.367 . S
C777 C785 1.378 . S
C778 C777 1.367 . S
C778 C786 1.433 . S
C779 H775 0.929 . S
C779 C781 1.378 . S
C779 C783 1.350 . S
C780 C783 1.463 . S
C780 C785 1.350 . S
C780 N788 1.427 . S
C781 H772 0.930 . S
C781 C779 1.378 . S
C781 C782 1.367 . S
C782 C781 1.367 . S
C782 C784 1.433 . S
C783 C779 1.350 . S
C783 C780 1.463 . S
C783 N787 1.427 . S
C784 H774 0.929 . S
C784 C782 1.433 . S
C784 N787 1.384 . S
C785 H776 0.929 . S
C785 C777 1.378 . S
C785 C780 1.350 . S
C786 H773 0.929 . S
C786 C778 1.433 . S
C786 N788 1.384 . S
N787 C783 1.427 . S
N787 C784 1.384 . S
N788 C780 1.427 . S
N788 C786 1.384 . S
H789 C795 0.930 . S
H790 C799 0.930 . S
H791 C804 0.929 . S
H792 C802 0.929 . S
H793 C797 0.929 . S
H794 C803 0.929 . S
C795 H789 0.930 . S
C795 C796 1.367 . S
C795 C803 1.378 1_554 S
C796 C795 1.367 . S
C796 C804 1.433 1_554 S
C797 H793 0.929 . S
C797 C799 1.378 . S
C797 C801 1.350 . S
C798 C801 1.463 . S
C798 C803 1.350 . S
C798 N806 1.427 . S
C799 H790 0.930 . S
C799 C797 1.378 . S
C799 C800 1.367 . S
C800 C799 1.367 . S
C800 C802 1.433 . S
C801 C797 1.350 . S
C801 C798 1.463 . S
C801 N805 1.427 . S
C802 H792 0.929 . S
C802 C800 1.433 . S
C802 N805 1.384 . S
C803 H794 0.929 . S
C803 C795 1.378 1_556 S
C803 C798 1.350 . S
C804 H791 0.929 . S
C804 C796 1.433 1_556 S
C804 N806 1.384 . S
N805 C801 1.427 . S
N805 C802 1.384 . S
N806 C798 1.427 . S
N806 C804 1.384 . S
H807 C813 0.930 . S
H808 C817 0.930 . S
H809 C822 0.929 . S
H810 C820 0.929 . S
H811 C815 0.929 . S
H812 C821 0.929 . S
C813 H807 0.930 . S
C813 C814 1.368 . S
C813 C821 1.378 1_554 S
C814 C813 1.368 . S
C814 C822 1.429 1_554 S
C815 H811 0.929 . S
C815 C817 1.378 . S
C815 C819 1.350 . S
C816 C819 1.463 . S
C816 C821 1.350 . S
C816 N824 1.427 . S
C817 H808 0.930 . S
C817 C815 1.378 . S
C817 C818 1.367 . S
C818 C817 1.367 . S
C818 C820 1.433 . S
C819 C815 1.350 . S
C819 C816 1.463 . S
C819 N823 1.427 . S
C820 H810 0.929 . S
C820 C818 1.433 . S
C820 N823 1.384 . S
C821 H812 0.929 . S
C821 C813 1.378 1_556 S
C821 C816 1.350 . S
C822 H809 0.929 . S
C822 C814 1.429 1_556 S
C822 N824 1.384 . S
N823 C819 1.427 . S
N823 C820 1.384 . S
N824 C816 1.427 . S
N824 C822 1.384 . S
H825 C831 0.930 . S
H826 C835 0.930 . S
H827 C840 0.929 . S
H828 C838 0.929 . S
H829 C833 0.929 . S
H830 C839 0.929 . S
C831 H825 0.930 . S
C831 C832 1.367 . S
C831 C839 1.378 . S
C832 C831 1.367 . S
C832 C840 1.433 . S
C833 H829 0.929 . S
C833 C835 1.378 . S
C833 C837 1.350 . S
C834 C837 1.463 . S
C834 C839 1.350 . S
C834 N842 1.427 . S
C835 H826 0.930 . S
C835 C833 1.378 . S
C835 C836 1.367 . S
C836 C835 1.367 . S
C836 C838 1.433 . S
C837 C833 1.350 . S
C837 C834 1.463 . S
C837 N841 1.427 . S
C838 H828 0.929 . S
C838 C836 1.433 . S
C838 N841 1.384 . S
C839 H830 0.929 . S
C839 C831 1.378 . S
C839 C834 1.350 . S
C840 H827 0.929 . S
C840 C832 1.433 . S
C840 N842 1.384 . S
N841 C837 1.427 . S
N841 C838 1.384 . S
N842 C834 1.427 . S
N842 C840 1.384 . S
H843 C849 0.930 . S
H844 C853 0.930 . S
H845 C858 0.929 . S
H846 C856 0.929 . S
H847 C851 0.929 . S
H848 C857 0.929 . S
C849 H843 0.930 . S
C849 C850 1.367 . S
C849 C857 1.378 . S
C850 C849 1.367 . S
C850 C858 1.433 . S
C851 H847 0.929 . S
C851 C853 1.378 . S
C851 C855 1.350 . S
C852 C855 1.463 . S
C852 C857 1.350 . S
C852 N860 1.427 . S
C853 H844 0.930 . S
C853 C851 1.378 . S
C853 C854 1.367 . S
C854 C853 1.367 . S
C854 C856 1.433 . S
C855 C851 1.350 . S
C855 C852 1.463 . S
C855 N859 1.427 . S
C856 H846 0.929 . S
C856 C854 1.433 . S
C856 N859 1.384 . S
C857 H848 0.929 . S
C857 C849 1.378 . S
C857 C852 1.350 . S
C858 H845 0.929 . S
C858 C850 1.433 . S
C858 N860 1.384 . S
N859 C855 1.427 . S
N859 C856 1.384 . S
N860 C852 1.427 . S
N860 C858 1.384 . S
H861 C867 0.930 . S
H862 C871 0.930 . S
H863 C876 0.929 . S
H864 C874 0.929 . S
H865 C869 0.929 . S
H866 C875 0.929 . S
C867 H861 0.930 . S
C867 C868 1.367 . S
C867 C875 1.378 . S
C868 C867 1.367 . S
C868 C876 1.433 . S
C869 H865 0.929 . S
C869 C871 1.378 . S
C869 C873 1.350 . S
C870 C873 1.463 . S
C870 C875 1.350 . S
C870 N878 1.427 . S
C871 H862 0.930 . S
C871 C869 1.378 . S
C871 C872 1.367 . S
C872 C871 1.367 . S
C872 C874 1.433 . S
C873 C869 1.350 . S
C873 C870 1.463 . S
C873 N877 1.427 . S
C874 H864 0.929 . S
C874 C872 1.433 . S
C874 N877 1.384 . S
C875 H866 0.929 . S
C875 C867 1.378 . S
C875 C870 1.350 . S
C876 H863 0.929 . S
C876 C868 1.433 . S
C876 N878 1.384 . S
N877 C873 1.427 . S
N877 C874 1.384 . S
N878 C870 1.427 . S
N878 C876 1.384 . S
H879 C885 0.930 . S
H880 C889 0.930 . S
H881 C894 0.929 . S
H882 C892 0.929 . S
H883 C887 0.929 . S
H884 C893 0.929 . S
C885 H879 0.930 . S
C885 C886 1.367 . S
C885 C893 1.378 . S
C886 C885 1.367 . S
C886 C894 1.433 . S
C887 H883 0.929 . S
C887 C889 1.378 . S
C887 C891 1.350 . S
C888 C891 1.463 . S
C888 C893 1.350 . S
C888 N896 1.427 . S
C889 H880 0.930 . S
C889 C887 1.378 . S
C889 C890 1.367 . S
C890 C889 1.367 . S
C890 C892 1.433 . S
C891 C887 1.350 . S
C891 C888 1.463 . S
C891 N895 1.427 . S
C892 H882 0.929 . S
C892 C890 1.433 . S
C892 N895 1.384 . S
C893 H884 0.929 . S
C893 C885 1.378 . S
C893 C888 1.350 . S
C894 H881 0.929 . S
C894 C886 1.433 . S
C894 N896 1.384 . S
N895 C891 1.427 . S
N895 C892 1.384 . S
N896 C888 1.427 . S
N896 C894 1.384 . S
H897 C903 0.930 . S
H898 C907 0.930 . S
H899 C912 0.929 . S
H900 C910 0.929 . S
H901 C905 0.929 . S
H902 C911 0.929 . S
C903 H897 0.930 . S
C903 C904 1.367 . S
C903 C911 1.378 . S
C904 C903 1.367 . S
C904 C912 1.433 . S
C905 H901 0.929 . S
C905 C907 1.378 . S
C905 C909 1.350 . S
C906 C909 1.463 . S
C906 C911 1.350 . S
C906 N914 1.427 . S
C907 H898 0.930 . S
C907 C905 1.378 . S
C907 C908 1.367 . S
C908 C907 1.367 . S
C908 C910 1.433 . S
C909 C905 1.350 . S
C909 C906 1.463 . S
C909 N913 1.427 . S
C910 H900 0.929 . S
C910 C908 1.433 . S
C910 N913 1.384 . S
C911 H902 0.929 . S
C911 C903 1.378 . S
C911 C906 1.350 . S
C912 H899 0.929 . S
C912 C904 1.433 . S
C912 N914 1.384 . S
N913 C909 1.427 . S
N913 C910 1.384 . S
N914 C906 1.427 . S
N914 C912 1.384 . S
H915 C921 0.930 . S
H916 C925 0.930 . S
H917 C930 0.929 . S
H918 C928 0.929 . S
H919 C923 0.929 . S
H920 C929 0.929 . S
C921 H915 0.930 . S
C921 C922 1.367 . S
C921 C929 1.378 . S
C922 C921 1.367 . S
C922 C930 1.433 . S
C923 H919 0.929 . S
C923 C925 1.378 . S
C923 C927 1.350 . S
C924 C927 1.463 . S
C924 C929 1.350 . S
C924 N932 1.427 . S
C925 H916 0.930 . S
C925 C923 1.378 . S
C925 C926 1.367 . S
C926 C925 1.367 . S
C926 C928 1.433 . S
C927 C923 1.350 . S
C927 C924 1.463 . S
C927 N931 1.427 . S
C928 H918 0.929 . S
C928 C926 1.433 . S
C928 N931 1.384 . S
C929 H920 0.929 . S
C929 C921 1.378 . S
C929 C924 1.350 . S
C930 H917 0.929 . S
C930 C922 1.433 . S
C930 N932 1.384 . S
N931 C927 1.427 . S
N931 C928 1.384 . S
N932 C924 1.427 . S
N932 C930 1.384 . S
H933 C939 0.930 . S
H934 C943 0.930 . S
H935 C948 0.929 . S
H936 C946 0.929 . S
H937 C941 0.929 . S
H938 C947 0.929 . S
C939 H933 0.930 . S
C939 C940 1.367 . S
C939 C947 1.378 . S
C940 C939 1.367 . S
C940 C948 1.433 . S
C941 H937 0.929 . S
C941 C943 1.378 . S
C941 C945 1.350 . S
C942 C945 1.463 . S
C942 C947 1.350 . S
C942 N950 1.427 . S
C943 H934 0.930 . S
C943 C941 1.378 . S
C943 C944 1.367 . S
C944 C943 1.367 . S
C944 C946 1.433 . S
C945 C941 1.350 . S
C945 C942 1.463 . S
C945 N949 1.427 . S
C946 H936 0.929 . S
C946 C944 1.433 . S
C946 N949 1.384 . S
C947 H938 0.929 . S
C947 C939 1.378 . S
C947 C942 1.350 . S
C948 H935 0.929 . S
C948 C940 1.433 . S
C948 N950 1.384 . S
N949 C945 1.427 . S
N949 C946 1.384 . S
N950 C942 1.427 . S
N950 C948 1.384 . S
H951 C957 0.930 . S
H952 C961 0.930 . S
H953 C966 0.929 . S
H954 C964 0.929 . S
H955 C959 0.929 . S
H956 C965 0.929 . S
C957 H951 0.930 . S
C957 C958 1.367 . S
C957 C965 1.378 . S
C958 C957 1.367 . S
C958 C966 1.433 . S
C959 H955 0.929 . S
C959 C961 1.378 . S
C959 C963 1.350 . S
C960 C963 1.463 . S
C960 C965 1.350 . S
C960 N968 1.427 . S
C961 H952 0.930 . S
C961 C959 1.378 . S
C961 C962 1.367 . S
C962 C961 1.367 . S
C962 C964 1.433 . S
C963 C959 1.350 . S
C963 C960 1.463 . S
C963 N967 1.427 . S
C964 H954 0.929 . S
C964 C962 1.433 . S
C964 N967 1.384 . S
C965 H956 0.929 . S
C965 C957 1.378 . S
C965 C960 1.350 . S
C966 H953 0.929 . S
C966 C958 1.433 . S
C966 N968 1.384 . S
N967 C963 1.427 . S
N967 C964 1.384 . S
N968 C960 1.427 . S
N968 C966 1.384 . S
C544 C39 1.764 . S
C548 C444 1.724 . S
C562 C125 0.891 . S
C566 C476 0.890 . S
C584 C535 2.265 . S
C580 C211 2.153 . S
C602 C464 0.780 . S
C598 C273 0.782 . S
C616 C335 1.846 . S
C620 C494 1.843 . S
C638 C516 1.630 . S
C634 C439 1.638 . S
C656 C485 1.717 . S
C652 C187 1.723 . S
C670 C291 1.736 . S
C674 C525 1.683 . S
C692 C474 2.090 . S
C688 C359 1.891 . S
C706 C421 0.808 . S
C710 C504 0.795 . S
C724 C63 2.085 . S
C728 C507 2.193 . S
C746 C446 2.015 . S
C742 C143 2.027 . S
C764 C454 2.017 . S
C760 C285 1.894 . S
C782 C495 1.880 . S
C778 C365 1.921 . S
C800 C508 2.090 . S
C796 C409 2.087 . S
C818 C445 1.838 . S
C814 C69 1.891 . S
C836 C505 1.843 . S
C832 C137 1.777 . S
C850 C199 0.376 . S
C854 C506 0.399 . S
C872 C475 2.018 . S
C868 C433 1.890 . S
C890 C536 0.485 . S
C886 C51 0.429 . S
C908 C463 1.656 . S
C904 C113 1.738 . S
C926 C477 1.901 . S
C922 C217 1.957 . S
C940 C261 2.024 . S
C944 C526 2.030 . S
C958 C347 0.739 . S
C962 C473 0.741 . S
