# Generated by pormake.
# Topology eea, (3,6)-cn, num edge types: 1
# Building blocks:
#     Node 0, Type 0, BuildingBlock: QEWDON_clean_linker_0, # of connection points: 3
#     Node 1, Type 0, BuildingBlock: QEWDON_clean_linker_0, # of connection points: 3
#     Node 2, Type 0, BuildingBlock: QEWDON_clean_linker_0, # of connection points: 3
#     Node 3, Type 0, BuildingBlock: QEWDON_clean_linker_0, # of connection points: 3
#     Node 4, Type 0, BuildingBlock: QEWDON_clean_linker_0, # of connection points: 3
#     Node 5, Type 0, BuildingBlock: QEWDON_clean_linker_0, # of connection points: 3
#     Node 6, Type 0, BuildingBlock: QEWDON_clean_linker_0, # of connection points: 3
#     Node 7, Type 0, BuildingBlock: QEWDON_clean_linker_0, # of connection points: 3
#     Node 8, Type 0, BuildingBlock: QEWDON_clean_linker_0, # of connection points: 3
#     Node 9, Type 0, BuildingBlock: QEWDON_clean_linker_0, # of connection points: 3
#     Node 10, Type 0, BuildingBlock: QEWDON_clean_linker_0, # of connection points: 3
#     Node 11, Type 0, BuildingBlock: QEWDON_clean_linker_0, # of connection points: 3
#     Node 12, Type 0, BuildingBlock: QEWDON_clean_linker_0, # of connection points: 3
#     Node 13, Type 0, BuildingBlock: QEWDON_clean_linker_0, # of connection points: 3
#     Node 14, Type 0, BuildingBlock: QEWDON_clean_linker_0, # of connection points: 3
#     Node 15, Type 0, BuildingBlock: QEWDON_clean_linker_0, # of connection points: 3
#     Node 16, Type 0, BuildingBlock: QEWDON_clean_linker_0, # of connection points: 3
#     Node 17, Type 0, BuildingBlock: QEWDON_clean_linker_0, # of connection points: 3
#     Node 18, Type 1, BuildingBlock: CUWYAW_clean_sbu_0, # of connection points: 6
#     Node 19, Type 1, BuildingBlock: CUWYAW_clean_sbu_0, # of connection points: 6
#     Node 20, Type 1, BuildingBlock: CUWYAW_clean_sbu_0, # of connection points: 6
#     Node 21, Type 1, BuildingBlock: CUWYAW_clean_sbu_0, # of connection points: 6
#     Node 22, Type 1, BuildingBlock: CUWYAW_clean_sbu_0, # of connection points: 6
#     Node 23, Type 1, BuildingBlock: CUWYAW_clean_sbu_0, # of connection points: 6
#     Node 24, Type 1, BuildingBlock: CUWYAW_clean_sbu_0, # of connection points: 6
#     Node 25, Type 1, BuildingBlock: CUWYAW_clean_sbu_0, # of connection points: 6
#     Node 26, Type 1, BuildingBlock: CUWYAW_clean_sbu_0, # of connection points: 6
#     Edge 27, Type (0, 1), BuildingBlock: UVAHIK_clean_linker_0, # of connection points: 2
#     Edge 28, Type (0, 1), BuildingBlock: UVAHIK_clean_linker_0, # of connection points: 2
#     Edge 29, Type (0, 1), BuildingBlock: UVAHIK_clean_linker_0, # of connection points: 2
#     Edge 30, Type (0, 1), BuildingBlock: UVAHIK_clean_linker_0, # of connection points: 2
#     Edge 31, Type (0, 1), BuildingBlock: UVAHIK_clean_linker_0, # of connection points: 2
#     Edge 32, Type (0, 1), BuildingBlock: UVAHIK_clean_linker_0, # of connection points: 2
#     Edge 33, Type (0, 1), BuildingBlock: UVAHIK_clean_linker_0, # of connection points: 2
#     Edge 34, Type (0, 1), BuildingBlock: UVAHIK_clean_linker_0, # of connection points: 2
#     Edge 35, Type (0, 1), BuildingBlock: UVAHIK_clean_linker_0, # of connection points: 2
#     Edge 36, Type (0, 1), BuildingBlock: UVAHIK_clean_linker_0, # of connection points: 2
#     Edge 37, Type (0, 1), BuildingBlock: UVAHIK_clean_linker_0, # of connection points: 2
#     Edge 38, Type (0, 1), BuildingBlock: UVAHIK_clean_linker_0, # of connection points: 2
#     Edge 39, Type (0, 1), BuildingBlock: UVAHIK_clean_linker_0, # of connection points: 2
#     Edge 40, Type (0, 1), BuildingBlock: UVAHIK_clean_linker_0, # of connection points: 2
#     Edge 41, Type (0, 1), BuildingBlock: UVAHIK_clean_linker_0, # of connection points: 2
#     Edge 42, Type (0, 1), BuildingBlock: UVAHIK_clean_linker_0, # of connection points: 2
#     Edge 43, Type (0, 1), BuildingBlock: UVAHIK_clean_linker_0, # of connection points: 2
#     Edge 44, Type (0, 1), BuildingBlock: UVAHIK_clean_linker_0, # of connection points: 2
#     Edge 45, Type (0, 1), BuildingBlock: UVAHIK_clean_linker_0, # of connection points: 2
#     Edge 46, Type (0, 1), BuildingBlock: UVAHIK_clean_linker_0, # of connection points: 2
#     Edge 47, Type (0, 1), BuildingBlock: UVAHIK_clean_linker_0, # of connection points: 2
#     Edge 48, Type (0, 1), BuildingBlock: UVAHIK_clean_linker_0, # of connection points: 2
#     Edge 49, Type (0, 1), BuildingBlock: UVAHIK_clean_linker_0, # of connection points: 2
#     Edge 50, Type (0, 1), BuildingBlock: UVAHIK_clean_linker_0, # of connection points: 2
#     Edge 51, Type (0, 1), BuildingBlock: UVAHIK_clean_linker_0, # of connection points: 2
#     Edge 52, Type (0, 1), BuildingBlock: UVAHIK_clean_linker_0, # of connection points: 2
#     Edge 53, Type (0, 1), BuildingBlock: UVAHIK_clean_linker_0, # of connection points: 2
#     Edge 54, Type (0, 1), BuildingBlock: UVAHIK_clean_linker_0, # of connection points: 2
#     Edge 55, Type (0, 1), BuildingBlock: UVAHIK_clean_linker_0, # of connection points: 2
#     Edge 56, Type (0, 1), BuildingBlock: UVAHIK_clean_linker_0, # of connection points: 2
#     Edge 57, Type (0, 1), BuildingBlock: UVAHIK_clean_linker_0, # of connection points: 2
#     Edge 58, Type (0, 1), BuildingBlock: UVAHIK_clean_linker_0, # of connection points: 2
#     Edge 59, Type (0, 1), BuildingBlock: UVAHIK_clean_linker_0, # of connection points: 2
#     Edge 60, Type (0, 1), BuildingBlock: UVAHIK_clean_linker_0, # of connection points: 2
#     Edge 61, Type (0, 1), BuildingBlock: UVAHIK_clean_linker_0, # of connection points: 2
#     Edge 62, Type (0, 1), BuildingBlock: UVAHIK_clean_linker_0, # of connection points: 2
#     Edge 63, Type (0, 1), BuildingBlock: UVAHIK_clean_linker_0, # of connection points: 2
#     Edge 64, Type (0, 1), BuildingBlock: UVAHIK_clean_linker_0, # of connection points: 2
#     Edge 65, Type (0, 1), BuildingBlock: UVAHIK_clean_linker_0, # of connection points: 2
#     Edge 66, Type (0, 1), BuildingBlock: UVAHIK_clean_linker_0, # of connection points: 2
#     Edge 67, Type (0, 1), BuildingBlock: UVAHIK_clean_linker_0, # of connection points: 2
#     Edge 68, Type (0, 1), BuildingBlock: UVAHIK_clean_linker_0, # of connection points: 2
#     Edge 69, Type (0, 1), BuildingBlock: UVAHIK_clean_linker_0, # of connection points: 2
#     Edge 70, Type (0, 1), BuildingBlock: UVAHIK_clean_linker_0, # of connection points: 2
#     Edge 71, Type (0, 1), BuildingBlock: UVAHIK_clean_linker_0, # of connection points: 2
#     Edge 72, Type (0, 1), BuildingBlock: UVAHIK_clean_linker_0, # of connection points: 2
#     Edge 73, Type (0, 1), BuildingBlock: UVAHIK_clean_linker_0, # of connection points: 2
#     Edge 74, Type (0, 1), BuildingBlock: UVAHIK_clean_linker_0, # of connection points: 2
#     Edge 75, Type (0, 1), BuildingBlock: UVAHIK_clean_linker_0, # of connection points: 2
#     Edge 76, Type (0, 1), BuildingBlock: UVAHIK_clean_linker_0, # of connection points: 2
#     Edge 77, Type (0, 1), BuildingBlock: UVAHIK_clean_linker_0, # of connection points: 2
#     Edge 78, Type (0, 1), BuildingBlock: UVAHIK_clean_linker_0, # of connection points: 2
#     Edge 79, Type (0, 1), BuildingBlock: UVAHIK_clean_linker_0, # of connection points: 2
#     Edge 80, Type (0, 1), BuildingBlock: UVAHIK_clean_linker_0, # of connection points: 2
# Relax obj value: 0.084
# Max RMSD: 0.253
# Mean RMSD: 0.173
data_MOF--net-eea--node1-CUWYAW_clean_sbu_0--node2-QEWDON_clean_linker_0--edge1-UVAHIK_clean_linker_0
_symmetry_space_group_name_H-M    P1
_symmetry_Int_Tables_number       1
_symmetry_cell_setting            triclinic
loop_
_symmetry_equiv_pos_as_xyz
'x, y, z'
_cell_length_a     74.987455
_cell_length_b     74.759277
_cell_length_c     82.550663
_cell_angle_alpha  93.345505
_cell_angle_beta   93.519928
_cell_angle_gamma 119.82122
loop_
_atom_site_label
_atom_site_type_symbol
_atom_site_fract_x
_atom_site_fract_y
_atom_site_fract_z
_atom_type_partial_charge
H0 H 0.2021 0.11475 0.42003 0.0
C1 C 0.2024 0.10241 0.41268 0.0
C2 C 0.21275 0.09269 0.41919 0.0
C3 C 0.19086 0.09502 0.39731 0.0
H4 H 0.21986 0.06832 0.41501 0.0
C5 C 0.21217 0.07604 0.40986 0.0
C6 C 0.20097 0.06862 0.39436 0.0
C7 C 0.1904 0.0783 0.38817 0.0
C8 C 0.17712 0.10287 0.39171 0.0
H9 H 0.18145 0.07262 0.37632 0.0
C10 C 0.18471 0.12418 0.3908 0.0
C11 C 0.1711 0.13127 0.3861 0.0
C12 C 0.15591 0.08879 0.38779 0.0
H13 H 0.1497 0.07235 0.38853 0.0
C14 C 0.14242 0.0958 0.38324 0.0
H15 H 0.20107 0.13516 0.39373 0.0
C16 C 0.14992 0.11689 0.38245 0.0
H17 H 0.13919 0.12197 0.37868 0.0
H18 H 0.12609 0.08484 0.38031 0.0
H19 H 0.89732 0.0998 0.42148 0.0
C20 C 0.90949 0.11365 0.41716 0.0
C21 C 0.91666 0.13304 0.42602 0.0
C22 C 0.91845 0.11189 0.40315 0.0
H23 H 0.93864 0.16582 0.42746 0.0
C24 C 0.9328 0.15087 0.42055 0.0
C25 C 0.94191 0.14945 0.4065 0.0
C26 C 0.9345 0.12992 0.39782 0.0
C27 C 0.91242 0.0911 0.39503 0.0
H28 H 0.94171 0.12864 0.38716 0.0
C29 C 0.89149 0.07538 0.39189 0.0
C30 C 0.88618 0.05537 0.38524 0.0
C31 C 0.92785 0.08659 0.39112 0.0
H32 H 0.94406 0.09823 0.3936 0.0
C33 C 0.92259 0.06681 0.38443 0.0
H34 H 0.87939 0.0786 0.39477 0.0
C35 C 0.90191 0.05124 0.3816 0.0
H36 H 0.89816 0.03597 0.37642 0.0
H37 H 0.93461 0.06348 0.38157 0.0
H38 H 0.92155 0.80328 0.43938 0.0
C39 C 0.90812 0.80322 0.43364 0.0
C40 C 0.88857 0.79087 0.43905 0.0
C41 C 0.91065 0.81631 0.42136 0.0
H42 H 0.85632 0.78225 0.43578 0.0
C43 C 0.87138 0.79112 0.43146 0.0
C44 C 0.87367 0.80397 0.41909 0.0
C45 C 0.89334 0.81658 0.41417 0.0
C46 C 0.93156 0.83101 0.41699 0.0
H47 H 0.89519 0.82672 0.40474 0.0
C48 C 0.94548 0.82429 0.41319 0.0
C49 C 0.96545 0.83858 0.40943 0.0
C50 C 0.93778 0.85211 0.41693 0.0
H51 H 0.92742 0.8577 0.41995 0.0
C52 C 0.95756 0.86629 0.41327 0.0
H53 H 0.94081 0.80804 0.41316 0.0
C54 C 0.97134 0.85962 0.40958 0.0
H55 H 0.98654 0.87089 0.4066 0.0
H56 H 0.96222 0.88252 0.4133 0.0
H57 H 0.11152 0.20728 0.58215 0.0
C58 C 0.0989 0.20811 0.58717 0.0
C59 C 0.09104 0.21978 0.58005 0.0
C60 C 0.09005 0.19679 0.60031 0.0
H61 H 0.06764 0.22855 0.58076 0.0
C62 C 0.07439 0.22036 0.58657 0.0
C63 C 0.06554 0.20938 0.5999 0.0
C64 C 0.07366 0.19783 0.60676 0.0
C65 C 0.09662 0.1824 0.60639 0.0
H66 H 0.06709 0.18943 0.61711 0.0
C67 C 0.11768 0.18841 0.60921 0.0
C68 C 0.12351 0.17416 0.61416 0.0
C69 C 0.08153 0.16209 0.60879 0.0
H70 H 0.06523 0.15693 0.6065 0.0
C71 C 0.08729 0.14801 0.61377 0.0
H72 H 0.12948 0.20402 0.60744 0.0
C73 C 0.10811 0.15394 0.61638 0.0
H74 H 0.11222 0.14276 0.62032 0.0
H75 H 0.07554 0.1324 0.61552 0.0
H76 H 0.80522 0.91278 0.60578 0.0
C77 C 0.80393 0.89908 0.61064 0.0
C78 C 0.79212 0.87963 0.60146 0.0
C79 C 0.8148 0.90113 0.62574 0.0
H80 H 0.78209 0.84701 0.60076 0.0
C81 C 0.79086 0.86202 0.60782 0.0
C82 C 0.80134 0.86374 0.62306 0.0
C83 C 0.81318 0.88334 0.63195 0.0
C84 C 0.82929 0.92204 0.63429 0.0
H85 H 0.82171 0.88486 0.64352 0.0
C86 C 0.82373 0.93748 0.6357 0.0
C87 C 0.8382 0.95765 0.6427 0.0
C88 C 0.84935 0.92699 0.64032 0.0
H89 H 0.85419 0.91556 0.6392 0.0
C90 C 0.86363 0.94693 0.64739 0.0
H91 H 0.80833 0.93394 0.63118 0.0
C92 C 0.85817 0.96224 0.64848 0.0
H93 H 0.86951 0.97767 0.65396 0.0
H94 H 0.87906 0.9506 0.65189 0.0
H95 H 0.09463 0.89107 0.58532 0.0
C96 C 0.10732 0.90313 0.59354 0.0
C97 C 0.12768 0.91212 0.58924 0.0
C98 C 0.10302 0.91088 0.60778 0.0
H99 H 0.15945 0.93553 0.59651 0.0
C100 C 0.14376 0.92845 0.59978 0.0
C101 C 0.13972 0.93653 0.61398 0.0
C102 C 0.11925 0.92746 0.61793 0.0
C103 C 0.08137 0.90377 0.61091 0.0
H104 H 0.11579 0.93358 0.62876 0.0
C105 C 0.06739 0.88287 0.61287 0.0
C106 C 0.0468 0.87659 0.61562 0.0
C107 C 0.07461 0.91824 0.61173 0.0
H108 H 0.08509 0.93436 0.61018 0.0
C109 C 0.05424 0.91204 0.6143 0.0
H110 H 0.07252 0.87164 0.61231 0.0
C111 C 0.04041 0.89138 0.61622 0.0
H112 H 0.02474 0.88702 0.61848 0.0
H113 H 0.04917 0.9233 0.61488 0.0
H114 H 0.8765 0.45284 0.75413 0.0
C115 C 0.87669 0.44082 0.74627 0.0
C116 C 0.88893 0.43233 0.75128 0.0
C117 C 0.86329 0.43265 0.73178 0.0
H118 H 0.89741 0.40934 0.745 0.0
C119 C 0.88814 0.41605 0.7412 0.0
C120 C 0.87466 0.40754 0.72674 0.0
C121 C 0.8624 0.41611 0.72207 0.0
C122 C 0.84841 0.43968 0.72779 0.0
H123 H 0.85184 0.40972 0.711 0.0
C124 C 0.85515 0.46065 0.72603 0.0
C125 C 0.84067 0.46708 0.72269 0.0
C126 C 0.82713 0.42522 0.72612 0.0
H127 H 0.82163 0.40902 0.72751 0.0
C128 C 0.81277 0.43158 0.72297 0.0
H129 H 0.87155 0.47187 0.72722 0.0
C130 C 0.81945 0.45237 0.7213 0.0
H131 H 0.80802 0.45689 0.7186 0.0
H132 H 0.79641 0.42035 0.72177 0.0
H133 H 0.56337 0.43672 0.75568 0.0
C134 C 0.57591 0.451 0.75227 0.0
C135 C 0.58375 0.46946 0.76271 0.0
C136 C 0.58444 0.45079 0.7376 0.0
H137 H 0.60689 0.50203 0.76641 0.0
C138 C 0.60038 0.48783 0.7583 0.0
C139 C 0.60891 0.48798 0.74361 0.0
C140 C 0.60065 0.46948 0.73327 0.0
C141 C 0.57728 0.43105 0.72707 0.0
H142 H 0.60727 0.46958 0.72195 0.0
C143 C 0.55617 0.41561 0.72439 0.0
C144 C 0.54979 0.3975 0.71387 0.0
C145 C 0.5918 0.42764 0.71948 0.0
H146 H 0.60818 0.43879 0.72164 0.0
C147 C 0.58547 0.4097 0.7091 0.0
H148 H 0.54467 0.41785 0.73005 0.0
C149 C 0.5646 0.39478 0.70621 0.0
H150 H 0.56001 0.38089 0.69815 0.0
H151 H 0.5968 0.40732 0.70332 0.0
H152 H 0.58755 0.13453 0.77066 0.0
C153 C 0.57363 0.13393 0.76543 0.0
C154 C 0.55479 0.12182 0.77193 0.0
C155 C 0.57473 0.14596 0.75262 0.0
H156 H 0.5225 0.11286 0.7705 0.0
C157 C 0.53699 0.1217 0.76533 0.0
C158 C 0.53778 0.13341 0.75244 0.0
C159 C 0.55665 0.14533 0.74605 0.0
C160 C 0.59501 0.16066 0.74714 0.0
H161 H 0.55741 0.15471 0.73629 0.0
C162 C 0.60954 0.15455 0.74378 0.0
C163 C 0.62901 0.169 0.73924 0.0
C164 C 0.60015 0.1813 0.74575 0.0
H165 H 0.58941 0.18651 0.74846 0.0
C166 C 0.61938 0.1956 0.74122 0.0
H167 H 0.60577 0.13868 0.74478 0.0
C168 C 0.63376 0.18956 0.73803 0.0
H169 H 0.64856 0.20091 0.73442 0.0
H170 H 0.6232 0.21147 0.74024 0.0
H171 H 0.77751 0.54311 0.91349 0.0
C172 C 0.76536 0.54373 0.91952 0.0
C173 C 0.75873 0.5575 0.91496 0.0
C174 C 0.75529 0.52959 0.93087 0.0
H175 H 0.73699 0.56795 0.91881 0.0
C176 C 0.74233 0.55753 0.92235 0.0
C177 C 0.7322 0.54357 0.93378 0.0
C178 C 0.73879 0.5297 0.93798 0.0
C179 C 0.76066 0.51343 0.93417 0.0
H180 H 0.73092 0.51883 0.94674 0.0
C181 C 0.7814 0.51841 0.93736 0.0
C182 C 0.78619 0.50272 0.93987 0.0
C183 C 0.74483 0.49263 0.93364 0.0
H184 H 0.72878 0.48832 0.93101 0.0
C185 C 0.74954 0.47711 0.93615 0.0
H186 H 0.79374 0.53438 0.93782 0.0
C187 C 0.77006 0.48206 0.93919 0.0
H188 H 0.77332 0.46974 0.94123 0.0
H189 H 0.73724 0.46114 0.93567 0.0
H190 H 0.47665 0.24867 0.93957 0.0
C191 C 0.47586 0.2354 0.94488 0.0
C192 C 0.46419 0.21556 0.9363 0.0
C193 C 0.48722 0.23837 0.95992 0.0
H194 H 0.45536 0.18335 0.93623 0.0
C195 C 0.46367 0.19851 0.94311 0.0
C196 C 0.47493 0.20117 0.95821 0.0
C197 C 0.48643 0.22116 0.96659 0.0
C198 C 0.5015 0.25963 0.9679 0.0
H199 H 0.49501 0.22345 0.97831 0.0
C200 C 0.49517 0.27446 0.96968 0.0
C201 C 0.50935 0.29489 0.97636 0.0
C202 C 0.52203 0.26544 0.97314 0.0
H203 H 0.52739 0.25444 0.97175 0.0
C204 C 0.53605 0.28566 0.9798 0.0
H205 H 0.47937 0.27021 0.96576 0.0
C206 C 0.52982 0.30035 0.98133 0.0
H207 H 0.54094 0.31597 0.98656 0.0
H208 H 0.55186 0.28999 0.9837 0.0
H209 H 0.75862 0.22284 0.92098 0.0
C210 C 0.77165 0.23626 0.92786 0.0
C211 C 0.7913 0.24518 0.92213 0.0
C212 C 0.76848 0.24522 0.94203 0.0
H213 H 0.82281 0.27049 0.92636 0.0
C214 C 0.80789 0.26293 0.93108 0.0
C215 C 0.80509 0.27189 0.94544 0.0
C216 C 0.78531 0.26278 0.95085 0.0
C217 C 0.74727 0.23788 0.94661 0.0
H218 H 0.78284 0.26952 0.96186 0.0
C219 C 0.73353 0.2168 0.94826 0.0
C220 C 0.71326 0.21029 0.9521 0.0
C221 C 0.74055 0.25227 0.94892 0.0
H222 H 0.75073 0.26852 0.94756 0.0
C223 C 0.72051 0.24585 0.95266 0.0
H224 H 0.73856 0.20557 0.94656 0.0
C225 C 0.70692 0.22502 0.9542 0.0
H226 H 0.69148 0.22043 0.95728 0.0
H227 H 0.71548 0.25706 0.95435 0.0
H228 H 0.54247 0.78408 0.08688 0.0
C229 C 0.54284 0.77213 0.07906 0.0
C230 C 0.555 0.76362 0.08425 0.0
C231 C 0.52972 0.76406 0.06442 0.0
H232 H 0.56358 0.74067 0.07818 0.0
C233 C 0.5544 0.7474 0.07421 0.0
C234 C 0.54123 0.73901 0.05958 0.0
C235 C 0.52906 0.74762 0.05474 0.0
C236 C 0.51476 0.77095 0.06028 0.0
H237 H 0.51873 0.74132 0.04354 0.0
C238 C 0.52136 0.79189 0.05849 0.0
C239 C 0.50675 0.79815 0.05505 0.0
C240 C 0.49352 0.75636 0.05854 0.0
H241 H 0.48812 0.74019 0.05995 0.0
C242 C 0.47904 0.76255 0.05528 0.0
H243 H 0.53773 0.80322 0.05973 0.0
C244 C 0.48557 0.7833 0.0536 0.0
H245 H 0.47405 0.7877 0.05083 0.0
H246 H 0.4627 0.75122 0.05404 0.0
H247 H 0.22675 0.76749 0.08465 0.0
C248 C 0.23943 0.78171 0.08128 0.0
C249 C 0.24735 0.8002 0.09171 0.0
C250 C 0.24808 0.78139 0.06669 0.0
H251 H 0.27072 0.83268 0.09547 0.0
C252 C 0.26416 0.81847 0.08737 0.0
C253 C 0.27283 0.81851 0.07277 0.0
C254 C 0.26449 0.80001 0.06243 0.0
C255 C 0.24086 0.76161 0.0562 0.0
H256 H 0.27121 0.80002 0.05118 0.0
C257 C 0.2197 0.74631 0.05333 0.0
C258 C 0.21333 0.72818 0.04283 0.0
C259 C 0.2554 0.75801 0.04883 0.0
H260 H 0.2718 0.76904 0.05114 0.0
C261 C 0.24906 0.74004 0.03849 0.0
H262 H 0.20819 0.74868 0.05883 0.0
C263 C 0.22816 0.72528 0.03539 0.0
H264 H 0.22356 0.71138 0.02734 0.0
H265 H 0.26041 0.73753 0.03287 0.0
H266 H 0.25375 0.47064 0.10379 0.0
C267 C 0.23995 0.47 0.09822 0.0
C268 C 0.22063 0.45679 0.10366 0.0
C269 C 0.24172 0.48319 0.0862 0.0
H270 H 0.18805 0.44687 0.10083 0.0
C271 C 0.20293 0.45637 0.09641 0.0
C272 C 0.20445 0.46937 0.08435 0.0
C273 C 0.22386 0.48273 0.07931 0.0
C274 C 0.26234 0.49886 0.08191 0.0
H275 H 0.22508 0.49294 0.07011 0.0
C276 C 0.27736 0.4935 0.07837 0.0
C277 C 0.29707 0.50881 0.07488 0.0
C278 C 0.26724 0.51962 0.08179 0.0
H279 H 0.25609 0.52422 0.08466 0.0
C280 C 0.28672 0.53476 0.07832 0.0
H281 H 0.27377 0.47756 0.0784 0.0
C282 C 0.30157 0.52945 0.07493 0.0
H283 H 0.31655 0.54147 0.07215 0.0
H284 H 0.29034 0.5507 0.07831 0.0
H285 H 0.44317 0.87162 0.24912 0.0
C286 C 0.43075 0.87282 0.25413 0.0
C287 C 0.42346 0.88501 0.24709 0.0
C288 C 0.42152 0.86146 0.26716 0.0
H289 H 0.40059 0.8945 0.24771 0.0
C290 C 0.40696 0.88598 0.25353 0.0
C291 C 0.39774 0.87495 0.26673 0.0
C292 C 0.40539 0.86302 0.2736 0.0
C293 C 0.42723 0.84636 0.27301 0.0
H294 H 0.39856 0.8546 0.28388 0.0
C295 C 0.44804 0.85142 0.27565 0.0
C296 C 0.45298 0.83643 0.28028 0.0
C297 C 0.41152 0.82626 0.27531 0.0
H298 H 0.39538 0.8218 0.27312 0.0
C299 C 0.41641 0.81148 0.28001 0.0
H300 H 0.46033 0.86683 0.27396 0.0
C301 C 0.43698 0.81646 0.28241 0.0
H302 H 0.44044 0.80474 0.28607 0.0
H303 H 0.4042 0.79605 0.28167 0.0
H304 H 0.13765 0.57939 0.27235 0.0
C305 C 0.13663 0.56555 0.2767 0.0
C306 C 0.1251 0.54644 0.26702 0.0
C307 C 0.14756 0.56711 0.29166 0.0
H308 H 0.11587 0.51396 0.26518 0.0
C309 C 0.1243 0.52869 0.27267 0.0
C310 C 0.13483 0.52988 0.28773 0.0
C311 C 0.14626 0.54911 0.2972 0.0
C312 C 0.16188 0.58779 0.30069 0.0
H313 H 0.15476 0.55019 0.30866 0.0
C314 C 0.15626 0.60317 0.30249 0.0
C315 C 0.17064 0.62316 0.30989 0.0
C316 C 0.1819 0.59263 0.30676 0.0
H317 H 0.18683 0.5813 0.30534 0.0
C318 C 0.19606 0.61239 0.31426 0.0
H319 H 0.1409 0.59973 0.29795 0.0
C320 C 0.19055 0.62763 0.31571 0.0
H321 H 0.20182 0.64293 0.32148 0.0
H322 H 0.21146 0.61597 0.31877 0.0
H323 H 0.4302 0.56044 0.25535 0.0
C324 C 0.4429 0.57233 0.26366 0.0
C325 C 0.46323 0.58159 0.25925 0.0
C326 C 0.43864 0.57963 0.27815 0.0
H327 H 0.49497 0.60501 0.26654 0.0
C328 C 0.47933 0.59772 0.26991 0.0
C329 C 0.47535 0.60532 0.28439 0.0
C330 C 0.45491 0.596 0.28846 0.0
C331 C 0.41699 0.57239 0.2814 0.0
H332 H 0.45148 0.60174 0.2995 0.0
C333 C 0.40292 0.55136 0.28291 0.0
C334 C 0.38231 0.545 0.28569 0.0
C335 C 0.4103 0.58689 0.28272 0.0
H336 H 0.42083 0.60311 0.28152 0.0
C337 C 0.38993 0.58061 0.28535 0.0
H338 H 0.40798 0.54008 0.28197 0.0
C339 C 0.376 0.55983 0.28679 0.0
H340 H 0.36033 0.55539 0.28908 0.0
H341 H 0.38492 0.5919 0.2863 0.0
C342 C 0.52613 0.00885 0.05755 0.0
Eu343 Eu 0.51257 0.01055 0.02817 0.0
C344 C 0.51715 0.99912 0.07223 0.0
C345 C 0.4984 0.997 0.07652 0.0
C346 C 0.49018 0.98772 0.09054 0.0
C347 C 0.50045 0.98019 0.10039 0.0
C348 C 0.51909 0.98214 0.09592 0.0
C349 C 0.52737 0.99156 0.08199 0.0
C350 C 0.50306 0.039 0.01855 0.0
C351 C 0.46213 0.97971 0.02203 0.0
C352 C 0.47698 0.00164 0.96438 0.0
Eu353 Eu 0.49035 1.00063 0.994 0.0
C354 C 0.48592 0.01111 0.94956 0.0
C355 C 0.4803 0.99847 0.93479 0.0
C356 C 0.48857 0.00691 0.92056 0.0
C357 C 0.50254 0.02829 0.92075 0.0
C358 C 0.50826 0.04093 0.93563 0.0
C359 C 0.50009 0.03243 0.94991 0.0
C360 C 0.50006 0.97228 0.00364 0.0
C361 C 0.54054 0.03217 1.00017 0.0
O362 O 0.52403 0.99621 0.045 0.0
O363 O 0.52307 0.02383 0.05345 0.0
O364 O 0.52001 0.04368 0.0274 0.0
O365 O 0.49146 0.0196 0.01588 0.0
O366 O 0.47959 0.98576 0.03133 0.0
O367 O 0.46205 0.98574 0.00732 0.0
O368 O 0.47824 0.01403 0.97683 0.0
O369 O 0.48058 0.98709 0.9687 0.0
O370 O 0.48303 0.96754 0.99493 0.0
O371 O 0.51158 0.99169 0.00624 0.0
O372 O 0.52298 0.0262 0.99107 0.0
O373 O 0.54082 0.02568 0.01468 0.0
H374 H 0.4901 0.0025 0.06904 0.0
H375 H 0.47567 0.98619 0.09357 0.0
H376 H 0.52742 0.97663 0.10334 0.0
H377 H 0.5418 0.99298 0.07883 0.0
H378 H 0.46952 0.98197 0.93427 0.0
H379 H 0.48411 0.99661 0.90944 0.0
H380 H 0.51878 0.05748 0.93622 0.0
H381 H 0.50481 0.04255 0.96118 0.0
C382 C 0.00958 0.53142 0.05559 0.0
Eu383 Eu 1.00146 0.50959 0.02752 0.0
C384 C 0.01914 0.53236 0.07193 0.0
C385 C 0.02071 0.5155 0.07685 0.0
C386 C 0.02931 0.5164 0.09261 0.0
C387 C 0.03666 0.53426 0.10364 0.0
C388 C 0.03535 0.55123 0.09852 0.0
C389 C 0.02662 0.55026 0.0828 0.0
C390 C 0.97145 0.46939 0.02019 0.0
C391 C 0.0302 0.48803 0.02601 0.0
C392 C 0.99537 0.46702 0.96755 0.0
Eu393 Eu 0.0035 0.48902 0.99549 0.0
C394 C 0.98851 0.46729 0.95049 0.0
C395 C 0.99826 0.48524 0.94235 0.0
C396 C 0.99186 0.48485 0.926 0.0
C397 C 0.97552 0.46656 0.91749 0.0
C398 C 0.96553 0.44878 0.92583 0.0
C399 C 0.97202 0.44914 0.94213 0.0
C400 C 0.03352 0.52921 0.0026 0.0
C401 C 0.97427 0.51024 0.99695 0.0
O402 O 0.02191 0.53736 0.04404 0.0
O403 O 0.99189 0.51464 0.05088 0.0
O404 O 0.9684 0.48341 0.02732 0.0
O405 O 0.99023 0.47689 0.01809 0.0
O406 O 0.02747 0.50268 0.03315 0.0
O407 O 0.01935 0.47734 0.01216 0.0
O408 O 0.98177 0.46289 0.97803 0.0
O409 O 0.01395 0.48168 0.97339 0.0
O410 O 0.03637 0.51517 0.99525 0.0
O411 O 0.01478 0.52183 0.00484 0.0
O412 O 0.97815 0.49661 0.98941 0.0
O413 O 0.98403 0.52016 0.01133 0.0
H414 H 0.01517 0.50161 0.06854 0.0
H415 H 0.03036 0.5032 0.09613 0.0
H416 H 0.0407 0.56512 0.10677 0.0
H417 H 0.02555 0.56342 0.07917 0.0
H418 H 0.01096 0.49951 0.94855 0.0
H419 H 1.00002 0.49877 0.91994 0.0
H420 H 0.95263 0.43455 0.91978 0.0
H421 H 0.9642 0.43518 0.94821 0.0
C422 C 0.48278 0.4765 0.96366 0.0
Eu423 Eu 0.49704 0.49955 0.99153 0.0
C424 C 0.4911 0.47597 0.94809 0.0
C425 C 0.50939 0.49307 0.94429 0.0
C426 C 0.51708 0.49246 0.92937 0.0
C427 C 0.5067 0.47468 0.91807 0.0
C428 C 0.48852 0.45749 0.92207 0.0
C429 C 0.48078 0.45816 0.93695 0.0
C430 C 0.50747 0.53985 0.99645 0.0
C431 C 0.54765 0.52144 0.99619 0.0
C432 C 0.53549 0.54537 0.05203 0.0
Eu433 Eu 0.52128 0.52199 0.02437 0.0
C434 C 0.52812 0.54596 0.06815 0.0
C435 C 0.52084 0.52892 0.07739 0.0
C436 C 0.51441 0.53007 0.09279 0.0
C437 C 0.51502 0.54823 0.09924 0.0
C438 C 0.52196 0.5651 0.08979 0.0
C439 C 0.5285 0.56399 0.07445 0.0
C440 C 0.51065 0.48158 0.01967 0.0
C441 C 0.47062 0.50036 0.01972 0.0
O442 O 0.49069 0.47186 0.97616 0.0
O443 O 0.48054 0.49249 0.96727 0.0
O444 O 0.49022 0.52553 0.98859 0.0
O445 O 0.51889 0.53258 1.00045 0.0
O446 O 0.52987 0.50672 0.98843 0.0
O447 O 0.54829 0.53249 0.00953 0.0
O448 O 0.52639 0.5492 0.03979 0.0
O449 O 0.53915 0.53036 0.04814 0.0
O450 O 0.52777 0.49586 0.02775 0.0
O451 O 0.49936 0.48893 0.01549 0.0
O452 O 0.48851 0.51448 0.02773 0.0
O453 O 0.46972 0.48967 0.00605 0.0
H454 H 0.51768 0.50689 0.95283 0.0
H455 H 0.53126 0.50583 0.92675 0.0
H456 H 0.48008 0.44364 0.91357 0.0
H457 H 0.46668 0.44481 0.93973 0.0
H458 H 0.52026 0.51474 0.07282 0.0
H459 H 0.50939 0.51686 0.09977 0.0
H460 H 0.52228 0.5792 0.09419 0.0
H461 H 0.53392 0.57728 0.06751 0.0
C462 C 0.19225 0.34432 0.39035 0.0
Eu463 Eu 0.17905 0.34503 0.36056 0.0
C464 C 0.1832 0.33432 0.40493 0.0
C465 C 0.16419 0.33167 0.40907 0.0
C466 C 0.15599 0.32225 0.42305 0.0
C467 C 0.16653 0.3151 0.43302 0.0
C468 C 0.18541 0.31756 0.4287 0.0
C469 C 0.19368 0.32713 0.4148 0.0
C470 C 0.16868 0.3725 0.34999 0.0
C471 C 0.12891 0.31273 0.35379 0.0
C472 C 0.14413 0.33442 0.2962 0.0
Eu473 Eu 0.15749 0.33421 0.32604 0.0
C474 C 0.15269 0.34409 0.28135 0.0
C475 C 0.14711 0.33151 0.26655 0.0
C476 C 0.15489 0.34012 0.25225 0.0
C477 C 0.16831 0.3616 0.25238 0.0
C478 C 0.17401 0.37419 0.2673 0.0
C479 C 0.16633 0.36551 0.28166 0.0
C480 C 0.16782 0.30662 0.33647 0.0
C481 C 0.20744 0.36686 0.33281 0.0
O482 O 0.19137 0.33204 0.378 0.0
O483 O 0.18818 0.35852 0.38585 0.0
O484 O 0.18568 0.37785 0.35905 0.0
O485 O 0.15758 0.35305 0.34756 0.0
O486 O 0.14629 0.31947 0.3634 0.0
O487 O 0.12891 0.31848 0.33897 0.0
O488 O 0.1445 0.34648 0.30854 0.0
O489 O 0.14887 0.3207 0.3007 0.0
O490 O 0.15093 0.30145 0.32735 0.0
O491 O 0.17897 0.32608 0.33902 0.0
O492 O 0.18998 0.36036 0.32339 0.0
O493 O 0.20758 0.36064 0.34745 0.0
H494 H 0.15568 0.33688 0.40152 0.0
H495 H 0.14128 0.32032 0.42597 0.0
H496 H 0.19397 0.31236 0.43621 0.0
H497 H 0.20832 0.32897 0.41178 0.0
H498 H 0.13672 0.31493 0.26607 0.0
H499 H 0.15047 0.32987 0.24109 0.0
H500 H 0.18413 0.3908 0.26786 0.0
H501 H 0.17099 0.37558 0.29295 0.0
C502 C 0.68094 0.86722 0.38909 0.0
Eu503 Eu 0.67179 0.84497 0.36108 0.0
C504 C 0.68942 0.86735 0.40564 0.0
C505 C 0.68935 0.84972 0.4107 0.0
C506 C 0.69728 0.85004 0.42657 0.0
C507 C 0.70557 0.86806 0.43757 0.0
C508 C 0.70576 0.88573 0.43233 0.0
C509 C 0.69772 0.88534 0.41651 0.0
C510 C 0.64217 0.80446 0.35482 0.0
C511 C 0.70101 0.8241 0.35833 0.0
C512 C 0.6628 0.80121 0.30088 0.0
Eu513 Eu 0.67235 0.82393 0.32864 0.0
C514 C 0.65545 0.80115 0.28387 0.0
C515 C 0.66517 0.81878 0.27537 0.0
C516 C 0.65839 0.81801 0.25904 0.0
C517 C 0.64169 0.79966 0.25092 0.0
C518 C 0.63172 0.78222 0.25964 0.0
C519 C 0.63859 0.78296 0.27591 0.0
C520 C 0.70183 0.86454 0.3346 0.0
C521 C 0.64295 0.84474 0.33134 0.0
O522 O 0.69365 0.87184 0.37785 0.0
O523 O 0.66254 0.85158 0.38412 0.0
O524 O 0.63934 0.81836 0.3624 0.0
O525 O 0.6607 0.8122 0.35184 0.0
O526 O 0.69827 0.8386 0.36575 0.0
O527 O 0.68964 0.81313 0.34472 0.0
O528 O 0.64968 0.79769 0.31169 0.0
O529 O 0.68164 0.81569 0.30627 0.0
O530 O 0.70453 0.85071 0.32673 0.0
O531 O 0.68339 0.85672 0.33783 0.0
O532 O 0.64629 0.83077 0.32371 0.0
O533 O 0.65374 0.8553 0.34528 0.0
H534 H 0.68315 0.83573 0.40239 0.0
H535 H 0.69716 0.83629 0.43019 0.0
H536 H 0.71184 0.89977 0.44056 0.0
H537 H 0.69791 0.89909 0.41277 0.0
H538 H 0.67817 0.83308 0.28126 0.0
H539 H 0.66655 0.83167 0.25269 0.0
H540 H 0.61856 0.76796 0.2539 0.0
H541 H 0.63079 0.76924 0.28228 0.0
C542 C 0.14754 0.81023 0.2927 0.0
Eu543 Eu 0.16169 0.83233 0.32096 0.0
C544 C 0.15575 0.80979 0.27705 0.0
C545 C 0.17361 0.82713 0.27294 0.0
C546 C 0.18131 0.82642 0.25804 0.0
C547 C 0.17134 0.80831 0.24706 0.0
C548 C 0.15352 0.79094 0.25133 0.0
C549 C 0.14581 0.7917 0.26619 0.0
C550 C 0.17079 0.87199 0.32765 0.0
C551 C 0.21248 0.85557 0.32535 0.0
C552 C 0.19968 0.87552 0.38241 0.0
Eu553 Eu 0.18574 0.85334 0.35421 0.0
C554 C 0.1921 0.87579 0.39848 0.0
C555 C 0.18439 0.85844 0.4074 0.0
C556 C 0.17794 0.85936 0.42282 0.0
C557 C 0.17896 0.87759 0.42962 0.0
C558 C 0.18629 0.89476 0.42047 0.0
C559 C 0.19285 0.89388 0.40512 0.0
C560 C 0.17634 0.8135 0.34782 0.0
C561 C 0.13498 0.83043 0.34981 0.0
O562 O 0.1552 0.80503 0.30501 0.0
O563 O 0.1456 0.82633 0.29665 0.0
O564 O 0.1537 0.85771 0.31952 0.0
O565 O 0.18272 0.86508 0.33098 0.0
O566 O 0.19482 0.84151 0.31698 0.0
O567 O 0.21298 0.86493 0.33958 0.0
O568 O 0.19116 0.88017 0.3703 0.0
O569 O 0.20286 0.86027 0.37818 0.0
O570 O 0.19326 0.82771 0.35618 0.0
O571 O 0.16457 0.82053 0.34426 0.0
O572 O 0.1527 0.84441 0.35812 0.0
O573 O 0.13438 0.82089 0.33561 0.0
H574 H 0.18161 0.84118 0.28126 0.0
H575 H 0.19521 0.83995 0.25521 0.0
H576 H 0.14537 0.77685 0.24307 0.0
H577 H 0.13203 0.77816 0.2692 0.0
H578 H 0.18353 0.84422 0.40256 0.0
H579 H 0.17259 0.84591 0.42956 0.0
H580 H 0.18693 0.90893 0.42515 0.0
H581 H 0.19862 0.90741 0.39843 0.0
C582 C 0.86134 0.67824 0.72483 0.0
Eu583 Eu 0.8469 0.6794 0.6956 0.0
C584 C 0.8531 0.67005 0.74015 0.0
C585 C 0.83501 0.66913 0.74485 0.0
C586 C 0.82756 0.66139 0.75953 0.0
C587 C 0.83798 0.65427 0.76972 0.0
C588 C 0.85593 0.65497 0.76475 0.0
C589 C 0.86342 0.66283 0.75015 0.0
C590 C 0.83635 0.70714 0.68599 0.0
C591 C 0.79644 0.64814 0.6901 0.0
C592 C 0.8099 0.6692 0.63201 0.0
Eu593 Eu 0.82399 0.66879 0.66155 0.0
C594 C 0.81841 0.67934 0.61733 0.0
C595 C 0.81223 0.66735 0.60219 0.0
C596 C 0.82032 0.67644 0.5881 0.0
C597 C 0.83467 0.69775 0.58888 0.0
C598 C 0.84085 0.70978 0.60407 0.0
C599 C 0.83287 0.70064 0.6182 0.0
C600 C 0.83433 0.64093 0.67125 0.0
C601 C 0.87406 0.70076 0.66717 0.0
O602 O 0.85737 0.66444 0.7126 0.0
O603 O 0.85943 0.69378 0.72043 0.0
O604 O 0.8535 0.71232 0.69475 0.0
O605 O 0.82516 0.68771 0.68347 0.0
O606 O 0.81406 0.65483 0.69937 0.0
O607 O 0.79599 0.65352 0.67519 0.0
O608 O 0.81027 0.68094 0.64459 0.0
O609 O 0.81488 0.65551 0.63615 0.0
O610 O 0.81712 0.6359 0.66267 0.0
O611 O 0.8457 0.66037 0.67368 0.0
O612 O 0.8563 0.69485 0.65838 0.0
O613 O 0.87468 0.69416 0.68158 0.0
H614 H 0.82668 0.67446 0.73723 0.0
H615 H 0.81381 0.66127 0.763 0.0
H616 H 0.86412 0.64923 0.77206 0.0
H617 H 0.87729 0.66322 0.74662 0.0
H618 H 0.80112 0.6509 0.60127 0.0
H619 H 0.81512 0.66683 0.57655 0.0
H620 H 0.85204 0.7262 0.60505 0.0
H621 H 0.83807 0.71021 0.62978 0.0
C622 C 0.34141 0.19223 0.72599 0.0
Eu623 Eu 0.33572 0.17482 0.69638 0.0
C624 C 0.35123 0.1926 0.74212 0.0
C625 C 0.34103 0.1918 0.75596 0.0
C626 C 0.34997 0.19222 0.77144 0.0
C627 C 0.36937 0.19354 0.77337 0.0
C628 C 0.37953 0.19422 0.75945 0.0
C629 C 0.3705 0.19366 0.74394 0.0
C630 C 0.30541 0.13603 0.68508 0.0
C631 C 0.36513 0.15409 0.69249 0.0
C632 C 0.33477 0.14276 0.63323 0.0
Eu633 Eu 0.33999 0.15956 0.66298 0.0
C634 C 0.3238 0.14101 0.61719 0.0
C635 C 0.33534 0.15022 0.60425 0.0
C636 C 0.32546 0.14814 0.58878 0.0
C637 C 0.30381 0.13662 0.58586 0.0
C638 C 0.29221 0.12753 0.59885 0.0
C639 C 0.3021 0.12975 0.61439 0.0
C640 C 0.37044 0.19823 0.67451 0.0
C641 C 0.31036 0.17978 0.66678 0.0
O642 O 0.35362 0.20113 0.71474 0.0
O643 O 0.32491 0.17474 0.72033 0.0
O644 O 0.30223 0.1493 0.69332 0.0
O645 O 0.3244 0.1434 0.68374 0.0
O646 O 0.36071 0.16636 0.70147 0.0
O647 O 0.35657 0.14676 0.67738 0.0
O648 O 0.3237 0.13279 0.64475 0.0
O649 O 0.35012 0.16116 0.63867 0.0
O650 O 0.3735 0.1848 0.66638 0.0
O651 O 0.35142 0.19106 0.67564 0.0
O652 O 0.31415 0.16676 0.65822 0.0
O653 O 0.31966 0.18799 0.6816 0.0
H654 H 0.32615 0.19095 0.75481 0.0
H655 H 0.34187 0.1919 0.78194 0.0
H656 H 0.39439 0.19503 0.76054 0.0
H657 H 0.3786 0.19411 0.73341 0.0
H658 H 0.35208 0.15883 0.60605 0.0
H659 H 0.33483 0.15508 0.57897 0.0
H660 H 0.27549 0.11869 0.59698 0.0
H661 H 0.29275 0.12248 0.62412 0.0
C662 C 0.81611 0.14887 0.62548 0.0
Eu663 Eu 0.83007 0.16861 0.65462 0.0
C664 C 0.82469 0.14814 0.60999 0.0
C665 C 0.81464 0.14879 0.59533 0.0
C666 C 0.82253 0.1483 0.5805 0.0
C667 C 0.8406 0.14706 0.58004 0.0
C668 C 0.85067 0.14643 0.59477 0.0
C669 C 0.84283 0.14703 0.60962 0.0
C670 C 0.83927 0.20797 0.66298 0.0
C671 C 0.88071 0.19051 0.65949 0.0
C672 C 0.86744 0.20757 0.7172 0.0
Eu673 Eu 0.85355 0.18744 0.68818 0.0
C674 C 0.85928 0.20814 0.73298 0.0
C675 C 0.86654 0.20254 0.74674 0.0
C676 C 0.85934 0.20321 0.76185 0.0
C677 C 0.84484 0.20973 0.76364 0.0
C678 C 0.8375 0.21526 0.7498 0.0
C679 C 0.8446 0.21444 0.73463 0.0
C680 C 0.84417 0.14791 0.68009 0.0
C681 C 0.80293 0.16558 0.68333 0.0
O682 O 0.82112 0.14133 0.63774 0.0
O683 O 0.81634 0.16606 0.62989 0.0
O684 O 0.82203 0.194 0.65485 0.0
O685 O 0.85121 0.20091 0.6657 0.0
O686 O 0.86305 0.17706 0.65081 0.0
O687 O 0.88118 0.1993 0.67398 0.0
O688 O 0.86173 0.21462 0.70497 0.0
O689 O 0.86801 0.1908 0.71276 0.0
O690 O 0.8612 0.16182 0.68851 0.0
O691 O 0.83234 0.15505 0.67714 0.0
O692 O 0.82061 0.17912 0.69193 0.0
O693 O 0.80245 0.15661 0.6689 0.0
H694 H 0.80064 0.14965 0.59535 0.0
H695 H 0.8143 0.14858 0.56936 0.0
H696 H 0.86475 0.14571 0.59484 0.0
H697 H 0.85098 0.14666 0.62077 0.0
H698 H 0.87784 0.19762 0.7458 0.0
H699 H 0.86509 0.19847 0.77213 0.0
H700 H 0.82654 0.22062 0.75071 0.0
H701 H 0.83869 0.21889 0.72426 0.0
C702 C 0.3083 0.84937 0.08039 0.0
C703 C 0.29132 0.83753 0.06862 0.0
C704 C 0.32636 0.86624 0.07617 0.0
C705 C 0.34738 0.90308 0.045 0.0
H706 H 0.39921 0.9066 0.0598 0.0
C707 C 0.42366 0.9559 0.01781 0.0
C708 C 0.44222 0.96535 0.0282 0.0
C709 C 0.40507 0.94152 0.0234 0.0
C710 C 0.38495 0.90611 0.05576 0.0
H711 H 0.27972 0.83459 0.04332 0.0
H712 H 0.31128 0.86401 0.03593 0.0
H713 H 0.3671 0.87972 0.06852 0.0
H714 H 0.45564 0.96751 0.05279 0.0
H715 H 0.42323 0.94285 0.06261 0.0
H716 H 0.36521 0.92948 0.03223 0.0
C717 C 0.31062 0.86028 0.04844 0.0
C718 C 0.3665 0.89064 0.06076 0.0
C719 C 0.2926 0.84332 0.05264 0.0
C720 C 0.44167 0.96043 0.04441 0.0
C721 C 0.42307 0.94615 0.05003 0.0
C722 C 0.36586 0.91865 0.04007 0.0
C723 C 0.32783 0.87175 0.0601 0.0
C724 C 0.34748 0.88884 0.05534 0.0
C725 C 0.40454 0.93632 0.03955 0.0
C726 C 0.38489 0.92028 0.04529 0.0
H727 H 0.30786 0.84521 0.09277 0.0
H728 H 0.33927 0.8749 0.08547 0.0
H729 H 0.33301 0.90226 0.04077 0.0
H730 H 0.42351 0.95924 0.00523 0.0
H731 H 0.3912 0.93408 0.01491 0.0
C732 C 0.16762 0.45192 0.0719 0.0
C733 C 0.18597 0.47016 0.078 0.0
C734 C 0.15001 0.45271 0.06645 0.0
C735 C 0.12448 0.48273 0.07237 0.0
H736 H 0.09646 0.459 0.02897 0.0
C737 C 0.06233 0.49923 0.0446 0.0
C738 C 0.0463 0.48415 0.03336 0.0
C739 C 0.07851 0.49641 0.05057 0.0
C740 C 0.10378 0.46536 0.04126 0.0
H741 H 0.20028 0.50343 0.08339 0.0
H742 H 0.16934 0.50475 0.07416 0.0
H743 H 0.12622 0.4559 0.03828 0.0
H744 H 0.03418 0.45387 0.02005 0.0
H745 H 0.06186 0.44847 0.031 0.0
H746 H 0.1019 0.49173 0.07567 0.0
C747 C 0.16867 0.48991 0.07345 0.0
C748 C 0.12093 0.46367 0.04652 0.0
C749 C 0.18638 0.48918 0.0786 0.0
C750 C 0.04642 0.46586 0.0286 0.0
C751 C 0.06242 0.46286 0.0348 0.0
C752 C 0.10712 0.48409 0.06725 0.0
C753 C 0.15033 0.4717 0.06734 0.0
C754 C 0.13158 0.47258 0.06203 0.0
C755 C 0.07889 0.47824 0.04568 0.0
C756 C 0.09667 0.47568 0.05152 0.0
H757 H 0.16695 0.43708 0.07133 0.0
H758 H 0.13602 0.43845 0.06183 0.0
H759 H 0.1323 0.4895 0.08449 0.0
H760 H 0.06278 0.51358 0.0484 0.0
H761 H 0.09102 0.5088 0.05867 0.0
C762 C 0.51908 0.704 0.04376 0.0
C763 C 0.53878 0.72003 0.05035 0.0
C764 C 0.51636 0.6853 0.03659 0.0
C765 C 0.54448 0.6596 0.02073 0.0
H766 H 0.49525 0.60987 0.02989 0.0
C767 C 0.53169 0.5763 0.00877 0.0
C768 C 0.51205 0.56112 0.00141 0.0
C769 C 0.53559 0.59621 0.01395 0.0
C770 C 0.50899 0.62362 0.0271 0.0
H771 H 0.57123 0.72916 0.05378 0.0
H772 H 0.56636 0.69626 0.04187 0.0
H773 H 0.50087 0.64366 0.04005 0.0
H774 H 0.48119 0.55481 0.99353 0.0
H775 H 0.48793 0.58945 0.00266 0.0
H776 H 0.55272 0.63927 0.00811 0.0
C777 C 0.55302 0.69824 0.04204 0.0
C778 C 0.51219 0.64303 0.03286 0.0
C779 C 0.55579 0.71706 0.04907 0.0
C780 C 0.49647 0.56622 0.99917 0.0
C781 C 0.50029 0.58601 0.00448 0.0
C782 C 0.54135 0.64011 0.0151 0.0
C783 C 0.5332 0.68196 0.03597 0.0
C784 C 0.5299 0.66132 0.02967 0.0
C785 C 0.51984 0.60119 0.01201 0.0
C786 C 0.5235 0.62193 0.01815 0.0
H787 H 0.50556 0.70555 0.04465 0.0
H788 H 0.50092 0.67331 0.03175 0.0
H789 H 0.55818 0.67331 0.01788 0.0
H790 H 0.54397 0.57275 0.01063 0.0
H791 H 0.55076 0.60756 0.01982 0.0
C792 C 0.81894 0.30726 0.96046 0.0
C793 C 0.82246 0.29154 0.95411 0.0
C794 C 0.83527 0.32603 0.96802 0.0
C795 C 0.88965 0.35123 0.98685 0.0
H796 H 0.88912 0.40163 0.97907 0.0
C797 C 0.95944 0.43386 0.00654 0.0
C798 C 0.9548 0.44847 0.01351 0.0
C799 C 0.94357 0.41437 0.9996 0.0
C800 C 0.88941 0.38768 0.98149 0.0
H801 H 0.84605 0.28325 0.95107 0.0
H802 H 0.87465 0.31622 0.96384 0.0
H803 H 0.8611 0.36839 0.96636 0.0
H804 H 0.93001 0.45412 0.01888 0.0
H805 H 0.90232 0.42016 0.0068 0.0
H806 H 0.91821 0.37074 0.00183 0.0
C807 C 0.85916 0.31391 0.96317 0.0
C808 C 0.8733 0.36858 0.97423 0.0
C809 C 0.84278 0.29506 0.95567 0.0
C810 C 0.93403 0.44317 0.01359 0.0
C811 C 0.91819 0.42378 0.00657 0.0
C812 C 0.90586 0.37039 0.99404 0.0
C813 C 0.85564 0.32971 0.96934 0.0
C814 C 0.8731 0.35007 0.9769 0.0
C815 C 0.92276 0.40919 0.9994 0.0
C816 C 0.90584 0.38882 0.99153 0.0
H817 H 0.80358 0.30528 0.95929 0.0
H818 H 0.83188 0.33767 0.97284 0.0
H819 H 0.88991 0.3373 0.98935 0.0
H820 H 0.97534 0.43757 0.00631 0.0
H821 H 0.9476 0.40354 0.99407 0.0
C822 C 0.6955 0.52333 0.93997 0.0
C823 C 0.71386 0.54247 0.94058 0.0
C824 C 0.67809 0.52206 0.94627 0.0
C825 C 0.65526 0.55417 0.95969 0.0
H826 H 0.61858 0.50444 0.97916 0.0
C827 C 0.58595 0.54353 0.99495 0.0
C828 C 0.56713 0.52527 0.98979 0.0
C829 C 0.60435 0.54667 0.98912 0.0
C830 C 0.62867 0.51839 0.97371 0.0
H831 H 0.72852 0.57529 0.94828 0.0
H832 H 0.69833 0.57306 0.95989 0.0
H833 H 0.65002 0.50811 0.96925 0.0
H834 H 0.55289 0.49605 0.97441 0.0
H835 H 0.58503 0.50139 0.96459 0.0
H836 H 0.63391 0.56455 0.96469 0.0
C837 C 0.69713 0.55905 0.95417 0.0
C838 C 0.64665 0.52047 0.96791 0.0
C839 C 0.71449 0.56036 0.9476 0.0
C840 C 0.5671 0.5103 0.97863 0.0
C841 C 0.5855 0.51328 0.97305 0.0
C842 C 0.6374 0.55221 0.96576 0.0
C843 C 0.67868 0.53985 0.95361 0.0
C844 C 0.66006 0.53825 0.96057 0.0
C845 C 0.60431 0.53144 0.97828 0.0
C846 C 0.6238 0.53416 0.97261 0.0
H847 H 0.6945 0.50935 0.93437 0.0
H848 H 0.66408 0.50708 0.94518 0.0
H849 H 0.665 0.56797 0.95395 0.0
H850 H 0.58647 0.55538 0.00349 0.0
H851 H 0.61868 0.56079 0.99336 0.0
C852 C 0.45831 0.16344 0.96328 0.0
C853 C 0.47585 0.18343 0.96476 0.0
C854 C 0.45948 0.14688 0.96933 0.0
C855 C 0.49052 0.13567 0.999 0.0
H856 H 0.46773 0.08298 0.97258 0.0
C857 C 0.51343 0.07556 0.01467 0.0
C858 C 0.49827 0.05448 0.01247 0.0
C859 C 0.50921 0.09045 0.00905 0.0
C860 C 0.47391 0.09748 0.98022 0.0
H861 H 0.50854 0.20139 0.97335 0.0
H862 H 0.51041 0.17274 0.98412 0.0
H863 H 0.46274 0.11048 0.96253 0.0
H864 H 0.46678 0.03236 0.00267 0.0
H865 H 0.45924 0.05847 0.99294 0.0
H866 H 0.5017 0.12286 0.01669 0.0
C867 C 0.49568 0.16992 0.9785 0.0
C868 C 0.47106 0.11324 0.97445 0.0
C869 C 0.49457 0.18638 0.97236 0.0
C870 C 0.47878 0.04853 0.00446 0.0
C871 C 0.4745 0.06348 0.99885 0.0
C872 C 0.49326 0.11994 0.0048 0.0
C873 C 0.47817 0.14999 0.97709 0.0
C874 C 0.47967 0.13263 0.98366 0.0
C875 C 0.48966 0.08465 0.00115 0.0
C876 C 0.48533 0.10077 0.99537 0.0
H877 H 0.44361 0.16063 0.95762 0.0
H878 H 0.44569 0.13171 0.96817 0.0
H879 H 0.49699 0.1503 0.00652 0.0
H880 H 0.52867 0.08058 0.02067 0.0
H881 H 0.5214 0.10654 0.01073 0.0
C882 C 0.70368 0.17796 0.96568 0.0
C883 C 0.69853 0.18837 0.95433 0.0
C884 C 0.68861 0.15849 0.96962 0.0
C885 C 0.63648 0.11374 0.95595 0.0
H886 H 0.63074 0.10956 0.00214 0.0
C887 C 0.55992 0.05598 0.9795 0.0
C888 C 0.56023 0.04721 0.99405 0.0
C889 C 0.57824 0.07107 0.9741 0.0
C890 C 0.63229 0.1102 0.9892 0.0
H891 H 0.67404 0.1862 0.93753 0.0
H892 H 0.64785 0.15219 0.94418 0.0
H893 H 0.66064 0.1393 0.99328 0.0
H894 H 0.58024 0.04709 0.01411 0.0
H895 H 0.61231 0.07318 0.00452 0.0
H896 H 0.60806 0.08482 0.95181 0.0
C897 C 0.66343 0.15899 0.95011 0.0
C898 C 0.64947 0.1273 0.98412 0.0
C899 C 0.67839 0.17851 0.94635 0.0
C900 C 0.57941 0.05358 0.00288 0.0
C901 C 0.59781 0.06864 0.99743 0.0
C902 C 0.6194 0.09657 0.96101 0.0
C903 C 0.66822 0.14897 0.96208 0.0
C904 C 0.65151 0.1295 0.96743 0.0
C905 C 0.59745 0.07775 0.98305 0.0
C906 C 0.6168 0.09481 0.9777 0.0
H907 H 0.71908 0.1853 0.97207 0.0
H908 H 0.69278 0.15107 0.97881 0.0
H909 H 0.63777 0.11486 0.943 0.0
H910 H 0.54545 0.05155 0.97238 0.0
H911 H 0.57724 0.07793 0.96314 0.0
C912 C 0.81486 0.49576 0.935 0.0
C913 C 0.80786 0.50758 0.94339 0.0
C914 C 0.8344 0.49855 0.93946 0.0
C915 C 0.88493 0.53326 0.96415 0.0
H916 H 0.88664 0.48229 0.96454 0.0
C917 C 0.952 0.52665 0.99733 0.0
C918 C 0.95783 0.51352 0.98931 0.0
C919 C 0.93505 0.52796 0.99078 0.0
C920 C 0.88653 0.49671 0.96431 0.0
H921 H 0.81609 0.53213 0.96264 0.0
H922 H 0.8502 0.53677 0.97074 0.0
H923 H 0.85475 0.48095 0.95484 0.0
H924 H 0.95097 0.49223 0.96771 0.0
H925 H 0.92161 0.49461 0.95637 0.0
H926 H 0.91677 0.54887 0.97408 0.0
C927 C 0.84071 0.52555 0.96052 0.0
C928 C 0.86822 0.49596 0.9587 0.0
C929 C 0.82116 0.52288 0.95592 0.0
C930 C 0.94685 0.50239 0.97431 0.0
C931 C 0.92993 0.50366 0.96782 0.0
C932 C 0.90329 0.53399 0.96989 0.0
C933 C 0.84737 0.51306 0.95258 0.0
C934 C 0.86716 0.51421 0.95845 0.0
C935 C 0.92356 0.51611 0.97613 0.0
C936 C 0.90429 0.5157 0.96996 0.0
H937 H 0.80503 0.48407 0.92512 0.0
H938 H 0.83921 0.48905 0.93277 0.0
H939 H 0.88473 0.54764 0.96402 0.0
H940 H 0.96012 0.53545 0.0089 0.0
H941 H 0.93046 0.53763 0.99751 0.0
C942 C 0.48766 0.30801 0.98842 0.0
C943 C 0.50309 0.31072 0.97839 0.0
C944 C 0.48386 0.32426 0.99215 0.0
C945 C 0.49098 0.37358 0.97948 0.0
H946 H 0.49789 0.39093 0.02575 0.0
C947 C 0.48747 0.44567 0.00575 0.0
C948 C 0.50556 0.45994 0.0157 0.0
C949 C 0.48364 0.42565 0.00112 0.0
C950 C 0.49571 0.38612 0.0128 0.0
H951 H 0.52591 0.3319 0.96372 0.0
H952 H 0.5189 0.3601 0.96986 0.0
H953 H 0.49667 0.35852 0.01674 0.0
H954 H 0.53334 0.4642 0.02923 0.0
H955 H 0.52632 0.42907 0.02158 0.0
H956 H 0.49044 0.40144 0.97557 0.0
C957 C 0.50985 0.34555 0.97493 0.0
C958 C 0.49488 0.36755 0.00765 0.0
C959 C 0.51392 0.32949 0.97148 0.0
C960 C 0.5193 0.45356 0.02149 0.0
C961 C 0.51526 0.43346 0.01717 0.0
C962 C 0.49142 0.39197 0.98464 0.0
C963 C 0.49514 0.34327 0.98562 0.0
C964 C 0.49301 0.36135 0.99094 0.0
C965 C 0.49756 0.4194 0.00676 0.0
C966 C 0.49431 0.39865 0.00134 0.0
H967 H 0.47923 0.2937 0.99396 0.0
H968 H 0.47242 0.32213 1.0004 0.0
H969 H 0.4895 0.36912 0.96653 0.0
H970 H 0.47645 0.45009 0.00134 0.0
H971 H 0.46982 0.41503 0.99316 0.0
C972 C 0.18048 0.70035 0.0519 0.0
C973 C 0.19133 0.71189 0.03946 0.0
C974 C 0.16118 0.68231 0.04808 0.0
C975 C 0.13223 0.64263 0.01311 0.0
H976 H 0.08848 0.62032 0.04157 0.0
C977 C 0.07064 0.55654 0.00537 0.0
C978 C 0.05009 0.55086 0.00729 0.0
C979 C 0.08655 0.57694 0.00952 0.0
C980 C 0.10045 0.62643 0.0334 0.0
H981 H 0.19012 0.71473 0.01355 0.0
H982 H 0.15613 0.68389 0.0069 0.0
H983 H 0.11769 0.65556 0.0482 0.0
H984 H 0.03001 0.56196 0.01528 0.0
H985 H 0.05791 0.59792 0.02236 0.0
H986 H 0.11502 0.6138 0.99819 0.0
C987 C 0.16267 0.68819 0.01954 0.0
C988 C 0.11732 0.64656 0.03729 0.0
C989 C 0.18203 0.70597 0.02333 0.0
C990 C 0.04575 0.56596 0.01366 0.0
C991 C 0.06173 0.5865 0.01778 0.0
C992 C 0.11541 0.62266 0.00921 0.0
C993 C 0.15234 0.67563 0.03176 0.0
C994 C 0.13354 0.65485 0.02726 0.0
C995 C 0.08232 0.59227 0.01561 0.0
C996 C 0.09946 0.61413 0.01941 0.0
H997 H 0.18748 0.70456 0.06442 0.0
H998 H 0.15379 0.67302 0.05781 0.0
H999 H 0.14451 0.64824 0.0052 0.0
H1000 H 0.07448 0.54518 1.00066 0.0
H1001 H 0.10225 0.58067 0.00804 0.0
C1002 C 0.30905 0.48799 0.05865 0.0
C1003 C 0.31314 0.50364 0.07104 0.0
C1004 C 0.32509 0.48518 0.05361 0.0
C1005 C 0.38199 0.51497 0.05382 0.0
H1006 H 0.37647 0.46189 0.03973 0.0
C1007 C 0.45263 0.50848 0.04096 0.0
C1008 C 0.45137 0.49722 0.02626 0.0
C1009 C 0.43494 0.50725 0.04659 0.0
C1010 C 0.37814 0.47681 0.04352 0.0
H1011 H 0.33677 0.52758 0.08867 0.0
H1012 H 0.36456 0.52236 0.08031 0.0
H1013 H 0.34698 0.46318 0.04976 0.0
H1014 H 0.4303 0.47511 0.00631 0.0
H1015 H 0.39921 0.47296 0.01626 0.0
H1016 H 0.41307 0.52862 0.04773 0.0
C1017 C 0.3492 0.5127 0.07403 0.0
C1018 C 0.36128 0.47757 0.04925 0.0
C1019 C 0.33327 0.51562 0.07891 0.0
C1020 C 0.43181 0.48402 0.01766 0.0
C1021 C 0.41401 0.48273 0.02337 0.0
C1022 C 0.39878 0.51419 0.04822 0.0
C1023 C 0.34548 0.49789 0.06098 0.0
C1024 C 0.36308 0.49668 0.05463 0.0
C1025 C 0.41548 0.49471 0.03772 0.0
C1026 C 0.39715 0.49513 0.04315 0.0
H1027 H 0.29366 0.47861 0.05234 0.0
H1028 H 0.32167 0.47369 0.04349 0.0
H1029 H 0.38382 0.53001 0.05737 0.0
H1030 H 0.46736 0.51866 0.04803 0.0
H1031 H 0.43654 0.51637 0.05785 0.0
C1032 C 0.5043 0.83011 0.06031 0.0
C1033 C 0.51321 0.81987 0.05232 0.0
C1034 C 0.50798 0.84939 0.05607 0.0
C1035 C 0.51755 0.87784 0.02062 0.0
H1036 H 0.52539 0.92329 0.0511 0.0
C1037 C 0.49135 0.93564 0.00481 0.0
C1038 C 0.50533 0.95683 0.00906 0.0
C1039 C 0.49585 0.92075 0.01003 0.0
C1040 C 0.52343 0.91082 0.04246 0.0
H1041 H 0.53357 0.82203 0.03408 0.0
H1042 H 0.53979 0.85574 0.02644 0.0
H1043 H 0.528 0.89441 0.06126 0.0
H1044 H 0.53522 0.97914 0.02177 0.0
H1045 H 0.54275 0.95293 0.0315 0.0
H1046 H 0.51207 0.89376 0.00191 0.0
C1047 C 0.53005 0.84885 0.03605 0.0
C1048 C 0.52482 0.89428 0.04826 0.0
C1049 C 0.52662 0.82968 0.04049 0.0
C1050 C 0.52401 0.96289 0.01855 0.0
C1051 C 0.52835 0.94794 0.02406 0.0
C1052 C 0.51585 0.89419 0.01487 0.0
C1053 C 0.52042 0.85869 0.04358 0.0
C1054 C 0.52157 0.87747 0.03742 0.0
C1055 C 0.51431 0.92673 0.0198 0.0
C1056 C 0.51842 0.91066 0.02575 0.0
H1057 H 0.49395 0.82287 0.06951 0.0
H1058 H 0.50022 0.85651 0.06199 0.0
H1059 H 0.51477 0.86501 0.012 0.0
H1060 H 0.47684 0.9305 0.99748 0.0
H1061 H 0.48466 0.90451 0.0067 0.0
C1062 C 0.96154 0.17182 0.38499 0.0
C1063 C 0.96008 0.16806 0.40149 0.0
C1064 C 0.97921 0.18866 0.38021 0.0
C1065 C 0.03462 0.22262 0.39303 0.0
H1066 H 0.03149 0.25754 0.36138 0.0
C1067 C 0.10818 0.29376 0.37615 0.0
C1068 C 0.10904 0.29783 0.35971 0.0
C1069 C 0.08969 0.27898 0.38159 0.0
C1070 C 0.03267 0.2478 0.37009 0.0
H1071 H 0.97604 0.17911 0.4259 0.0
H1072 H 0.00685 0.20849 0.41756 0.0
H1073 H 0.99975 0.22976 0.37008 0.0
H1074 H 0.09099 0.28962 0.33614 0.0
H1075 H 0.05891 0.26353 0.34553 0.0
H1076 H 0.06741 0.24016 0.3928 0.0
C1077 C 0.99433 0.1984 0.40832 0.0
C1078 C 0.01446 0.23191 0.3751 0.0
C1079 C 0.97659 0.18169 0.41312 0.0
C1080 C 0.09087 0.28697 0.34891 0.0
C1081 C 0.07241 0.27205 0.35433 0.0
C1082 C 0.05281 0.23836 0.38792 0.0
C1083 C 0.99593 0.20198 0.3918 0.0
C1084 C 0.01523 0.21914 0.38663 0.0
C1085 C 0.07158 0.26772 0.37072 0.0
C1086 C 0.05212 0.25119 0.37637 0.0
H1087 H 0.94903 0.16165 0.37576 0.0
H1088 H 0.98003 0.19091 0.36738 0.0
H1089 H 0.03574 0.21284 0.40174 0.0
H1090 H 0.12183 0.30193 0.38484 0.0
H1091 H 0.08961 0.27642 0.39437 0.0
C1092 C 0.8569 0.8246 0.41201 0.0
C1093 C 0.85572 0.80528 0.41215 0.0
C1094 C 0.83979 0.82591 0.40605 0.0
C1095 C 0.78265 0.79386 0.39552 0.0
H1096 H 0.79119 0.84207 0.37432 0.0
C1097 C 0.71766 0.80226 0.36055 0.0
C1098 C 0.71756 0.8206 0.36521 0.0
C1099 C 0.73396 0.79954 0.36646 0.0
C1100 C 0.78862 0.82857 0.38029 0.0
H1101 H 0.83597 0.77223 0.40596 0.0
H1102 H 0.80628 0.77446 0.39485 0.0
H1103 H 0.82084 0.83879 0.38344 0.0
H1104 H 0.73437 0.85039 0.3798 0.0
H1105 H 0.76303 0.8458 0.38978 0.0
H1106 H 0.75023 0.78345 0.39174 0.0
C1107 C 0.82016 0.78861 0.3998 0.0
C1108 C 0.8056 0.8267 0.38562 0.0
C1109 C 0.83719 0.78729 0.40605 0.0
C1110 C 0.73396 0.83606 0.37602 0.0
C1111 C 0.75041 0.83351 0.38167 0.0
C1112 C 0.76563 0.79556 0.38989 0.0
C1113 C 0.82117 0.80794 0.39981 0.0
C1114 C 0.80291 0.80944 0.3935 0.0
C1115 C 0.75062 0.81529 0.37687 0.0
C1116 C 0.7685 0.81305 0.3824 0.0
H1117 H 0.87093 0.83867 0.41688 0.0
H1118 H 0.84111 0.84103 0.40666 0.0
H1119 H 0.77989 0.7805 0.40175 0.0
H1120 H 0.70521 0.79005 0.35227 0.0
H1121 H 0.73383 0.78538 0.36257 0.0
C1122 C 0.21584 0.04638 0.38546 0.0
C1123 C 0.19896 0.04973 0.38536 0.0
C1124 C 0.21344 0.0278 0.37823 0.0
C1125 C 0.1729 0.9733 0.3659 0.0
H1126 H 0.21554 0.97096 0.34314 0.0
C1127 C 0.15923 0.89789 0.331 0.0
C1128 C 0.17494 0.89297 0.3332 0.0
C1129 C 0.16268 0.9174 0.33679 0.0
C1130 C 0.20358 0.97137 0.34958 0.0
H1131 H 0.16637 0.03621 0.37719 0.0
H1132 H 0.16237 0.00424 0.36413 0.0
H1133 H 0.22056 0.00452 0.35381 0.0
H1134 H 0.20673 0.90466 0.34284 0.0
H1135 H 0.21281 0.93887 0.35303 0.0
H1136 H 0.15589 0.94021 0.36163 0.0
C1137 C 0.1774 0.0158 0.37009 0.0
C1138 C 0.20645 0.99059 0.35571 0.0
C1139 C 0.17978 0.03431 0.37738 0.0
C1140 C 0.19433 0.90806 0.34103 0.0
C1141 C 0.19784 0.92765 0.34677 0.0
C1142 C 0.17001 0.95414 0.35971 0.0
C1143 C 0.1941 0.01214 0.37067 0.0
C1144 C 0.19111 0.99179 0.36392 0.0
C1145 C 0.18197 0.93247 0.34484 0.0
C1146 C 0.18528 0.95294 0.35146 0.0
H1147 H 0.2309 0.05802 0.39133 0.0
H1148 H 0.22661 0.0255 0.37901 0.0
H1149 H 0.16096 0.97356 0.37247 0.0
H1150 H 0.14414 0.88656 0.32497 0.0
H1151 H 0.15023 0.92071 0.33492 0.0
C1152 C 0.48854 0.63977 0.3008 0.0
C1153 C 0.49226 0.62426 0.29428 0.0
C1154 C 0.50473 0.65847 0.3086 0.0
C1155 C 0.55984 0.68479 0.32649 0.0
H1156 H 0.55807 0.73435 0.31787 0.0
C1157 C 0.62984 0.76853 0.34178 0.0
C1158 C 0.62546 0.78319 0.34903 0.0
C1159 C 0.61377 0.74865 0.33583 0.0
C1160 C 0.55871 0.72064 0.32051 0.0
H1161 H 0.516 0.61606 0.29162 0.0
H1162 H 0.54432 0.64894 0.30465 0.0
H1163 H 0.52973 0.70058 0.3065 0.0
H1164 H 0.60095 0.78857 0.35589 0.0
H1165 H 0.57295 0.75399 0.34544 0.0
H1166 H 0.5892 0.70515 0.34021 0.0
C1167 C 0.52881 0.64655 0.30393 0.0
C1168 C 0.5424 0.70122 0.31405 0.0
C1169 C 0.51256 0.62775 0.29626 0.0
C1170 C 0.60478 0.77758 0.35035 0.0
C1171 C 0.58875 0.75782 0.34429 0.0
C1172 C 0.57629 0.70428 0.33283 0.0
C1173 C 0.52517 0.66233 0.30995 0.0
C1174 C 0.54264 0.68299 0.31701 0.0
C1175 C 0.59304 0.74316 0.33688 0.0
C1176 C 0.57584 0.72241 0.32998 0.0
H1177 H 0.4732 0.63782 0.29938 0.0
H1178 H 0.50122 0.67004 0.31337 0.0
H1179 H 0.5605 0.67112 0.3292 0.0
H1180 H 0.64566 0.77248 0.3406 0.0
H1181 H 0.61754 0.73773 0.33007 0.0
C1182 C 0.36276 0.85611 0.2769 0.0
C1183 C 0.37923 0.87466 0.27266 0.0
C1184 C 0.34519 0.85554 0.28221 0.0
C1185 C 0.30491 0.85497 0.28368 0.0
H1186 H 0.30896 0.90014 0.31227 0.0
C1187 C 0.23187 0.85403 0.30219 0.0
C1188 C 0.23208 0.86063 0.31853 0.0
C1189 C 0.25011 0.85753 0.29596 0.0
C1190 C 0.30756 0.88733 0.30437 0.0
H1191 H 0.39008 0.90723 0.27079 0.0
H1192 H 0.35906 0.90609 0.27962 0.0
H1193 H 0.34025 0.90239 0.30306 0.0
H1194 H 0.25172 0.87652 0.34105 0.0
H1195 H 0.28349 0.88214 0.33032 0.0
H1196 H 0.27244 0.83949 0.28548 0.0
C1197 C 0.35994 0.89205 0.27909 0.0
C1198 C 0.32549 0.88874 0.29891 0.0
C1199 C 0.37763 0.89265 0.27384 0.0
C1200 C 0.25104 0.87129 0.32839 0.0
C1201 C 0.26929 0.87461 0.3222 0.0
C1202 C 0.28705 0.85351 0.28919 0.0
C1203 C 0.34345 0.87344 0.28327 0.0
C1204 C 0.3244 0.87248 0.28861 0.0
C1205 C 0.26902 0.86751 0.30596 0.0
C1206 C 0.28811 0.8696 0.29967 0.0
H1207 H 0.36325 0.84186 0.2759 0.0
H1208 H 0.33298 0.841 0.28557 0.0
H1209 H 0.30341 0.84229 0.27554 0.0
H1210 H 0.21757 0.84597 0.2942 0.0
H1211 H 0.24934 0.85226 0.2833 0.0
C1212 C 0.13238 0.50659 0.30929 0.0
C1213 C 0.13519 0.51142 0.2931 0.0
C1214 C 0.13407 0.49 0.31458 0.0
C1215 C 0.12859 0.44725 0.31972 0.0
H1216 H 0.17696 0.44475 0.30887 0.0
C1217 C 0.14368 0.38078 0.33556 0.0
C1218 C 0.16366 0.38731 0.34285 0.0
C1219 C 0.13911 0.39501 0.32887 0.0
C1220 C 0.16338 0.44525 0.31199 0.0
H1221 H 0.14179 0.50256 0.26974 0.0
H1222 H 0.14481 0.47363 0.27899 0.0
H1223 H 0.17043 0.47103 0.2983 0.0
H1224 H 0.19456 0.41365 0.34874 0.0
H1225 H 0.18666 0.43842 0.33691 0.0
H1226 H 0.12169 0.42155 0.33355 0.0
C1227 C 0.14127 0.48266 0.28757 0.0
C1228 C 0.15955 0.46017 0.30583 0.0
C1229 C 0.13936 0.4991 0.28224 0.0
C1230 C 0.17901 0.40822 0.34323 0.0
C1231 C 0.17452 0.42236 0.33637 0.0
C1232 C 0.1323 0.43214 0.32573 0.0
C1233 C 0.13885 0.47806 0.30384 0.0
C1234 C 0.14223 0.46147 0.30976 0.0
C1235 C 0.15452 0.41593 0.32916 0.0
C1236 C 0.14987 0.43115 0.32207 0.0
H1237 H 0.12904 0.51576 0.3179 0.0
H1238 H 0.13226 0.48691 0.32721 0.0
H1239 H 0.11505 0.44781 0.32287 0.0
H1240 H 0.13157 0.36472 0.33512 0.0
H1241 H 0.1236 0.38961 0.32329 0.0
C1242 C 0.37177 0.51285 0.29983 0.0
C1243 C 0.36724 0.52317 0.28799 0.0
C1244 C 0.35633 0.49356 0.30377 0.0
C1245 C 0.3042 0.44902 0.28951 0.0
H1246 H 0.29737 0.44521 0.33558 0.0
C1247 C 0.22702 0.3909 0.3123 0.0
C1248 C 0.22718 0.3822 0.32692 0.0
C1249 C 0.2454 0.40619 0.30709 0.0
C1250 C 0.29921 0.44576 0.32268 0.0
H1251 H 0.34344 0.52095 0.27036 0.0
H1252 H 0.31662 0.48728 0.27705 0.0
H1253 H 0.3276 0.4748 0.32693 0.0
H1254 H 0.24699 0.38247 0.34732 0.0
H1255 H 0.27913 0.40887 0.33808 0.0
H1256 H 0.27574 0.42013 0.2852 0.0
C1257 C 0.33201 0.49401 0.28335 0.0
C1258 C 0.31658 0.46277 0.31772 0.0
C1259 C 0.34733 0.51335 0.27957 0.0
C1260 C 0.24627 0.38889 0.33604 0.0
C1261 C 0.26471 0.40414 0.33078 0.0
C1262 C 0.28691 0.43194 0.29446 0.0
C1263 C 0.33616 0.48411 0.29578 0.0
C1264 C 0.31906 0.46482 0.30106 0.0
C1265 C 0.26451 0.41314 0.3163 0.0
C1266 C 0.28393 0.43029 0.3111 0.0
H1267 H 0.38696 0.52014 0.30658 0.0
H1268 H 0.36005 0.48622 0.31331 0.0
H1269 H 0.30581 0.45 0.27659 0.0
H1270 H 0.21262 0.38624 0.30497 0.0
H1271 H 0.24452 0.41296 0.29604 0.0
C1272 C 0.48059 0.82808 0.27515 0.0
C1273 C 0.47468 0.84124 0.2829 0.0
C1274 C 0.50027 0.83092 0.27897 0.0
C1275 C 0.55266 0.86728 0.30037 0.0
H1276 H 0.55356 0.81622 0.30388 0.0
C1277 C 0.62129 0.86181 0.33215 0.0
C1278 C 0.62615 0.84782 0.32426 0.0
C1279 C 0.6041 0.86307 0.32614 0.0
C1280 C 0.55364 0.83063 0.30278 0.0
H1281 H 0.48485 0.86815 0.30025 0.0
H1282 H 0.51923 0.87288 0.30733 0.0
H1283 H 0.52132 0.81471 0.29512 0.0
H1284 H 0.61724 0.82486 0.30344 0.0
H1285 H 0.58742 0.82707 0.2931 0.0
H1286 H 0.5851 0.88308 0.30856 0.0
C1287 C 0.5088 0.86057 0.29807 0.0
C1288 C 0.53514 0.82979 0.29769 0.0
C1289 C 0.48912 0.85786 0.29406 0.0
C1290 C 0.61391 0.83571 0.30992 0.0
C1291 C 0.59674 0.83689 0.304 0.0
C1292 C 0.57122 0.86811 0.30562 0.0
C1293 C 0.51443 0.8468 0.29085 0.0
C1294 C 0.53439 0.84807 0.29628 0.0
C1295 C 0.59139 0.85026 0.31222 0.0
C1296 C 0.5719 0.84976 0.30676 0.0
H1297 H 0.4698 0.81532 0.26633 0.0
H1298 H 0.50423 0.82039 0.2728 0.0
H1299 H 0.5527 0.88166 0.29932 0.0
H1300 H 0.63041 0.87139 0.3432 0.0
H1301 H 0.60029 0.87346 0.33276 0.0
C1302 C 0.14985 0.63783 0.32121 0.0
C1303 C 0.16527 0.63966 0.31148 0.0
C1304 C 0.1467 0.65462 0.32436 0.0
C1305 C 0.15547 0.70377 0.31017 0.0
H1306 H 0.16237 0.72311 0.35601 0.0
C1307 C 0.15311 0.77744 0.33417 0.0
C1308 C 0.17126 0.79183 0.344 0.0
C1309 C 0.14907 0.75724 0.32999 0.0
C1310 C 0.1602 0.71775 0.34318 0.0
H1311 H 0.18882 0.65983 0.29683 0.0
H1312 H 0.18293 0.68898 0.30193 0.0
H1313 H 0.16036 0.69001 0.34815 0.0
H1314 H 0.19901 0.79622 0.35767 0.0
H1315 H 0.19162 0.76082 0.35081 0.0
H1316 H 0.15567 0.73174 0.30523 0.0
C1317 C 0.17339 0.6747 0.30721 0.0
C1318 C 0.15892 0.6988 0.33869 0.0
C1319 C 0.17682 0.65811 0.30434 0.0
C1320 C 0.18493 0.78549 0.35002 0.0
C1321 C 0.18068 0.76522 0.34615 0.0
C1322 C 0.15634 0.72255 0.31467 0.0
C1323 C 0.15863 0.67329 0.31753 0.0
C1324 C 0.15704 0.69187 0.32215 0.0
C1325 C 0.16285 0.75099 0.33596 0.0
C1326 C 0.15922 0.72993 0.33121 0.0
H1327 H 0.14086 0.62376 0.3269 0.0
H1328 H 0.13521 0.65316 0.33235 0.0
H1329 H 0.15399 0.69874 0.29734 0.0
H1330 H 0.14214 0.78184 0.32958 0.0
H1331 H 0.13517 0.74648 0.32217 0.0
C1332 C 0.85043 0.0405 0.37111 0.0
C1333 C 0.86435 0.03855 0.38201 0.0
C1334 C 0.8306 0.02353 0.36647 0.0
C1335 C 0.79103 0.97308 0.37786 0.0
H1336 H 0.77763 0.95635 0.33132 0.0
C1337 C 0.71478 0.89992 0.34912 0.0
C1338 C 0.7183 0.88627 0.33923 0.0
C1339 C 0.73096 0.92004 0.35432 0.0
C1340 C 0.78109 0.96095 0.34433 0.0
H1341 H 0.86833 0.0179 0.3972 0.0
H1342 H 0.83351 0.98844 0.38946 0.0
H1343 H 0.80869 0.98929 0.34135 0.0
H1344 H 0.74119 0.88318 0.32646 0.0
H1345 H 0.7692 0.91845 0.33511 0.0
H1346 H 0.76358 0.94453 0.38083 0.0
C1347 C 0.83792 0.00295 0.38441 0.0
C1348 C 0.79876 0.97983 0.35006 0.0
C1349 C 0.85783 0.01974 0.38878 0.0
C1350 C 0.73803 0.89334 0.33413 0.0
C1351 C 0.75405 0.91353 0.33902 0.0
C1352 C 0.77314 0.95437 0.37211 0.0
C1353 C 0.82426 0.00452 0.37293 0.0
C1354 C 0.80415 0.98586 0.36689 0.0
C1355 C 0.75076 0.927 0.34934 0.0
C1356 C 0.76827 0.94791 0.35531 0.0
H1357 H 0.85519 0.05483 0.36566 0.0
H1358 H 0.82033 0.02515 0.35763 0.0
H1359 H 0.79482 0.9774 0.3909 0.0
H1360 H 0.69964 0.89497 0.35304 0.0
H1361 H 0.72801 0.93018 0.3622 0.0
C1362 C 1.00074 0.84274 0.41228 0.0
C1363 C 0.98021 0.83179 0.40507 0.0
C1364 C 0.0153 0.83782 0.4071 0.0
C1365 C 0.02703 0.81681 0.37104 0.0
H1366 H 0.0694 0.81777 0.40107 0.0
C1367 C 0.09611 0.81171 0.34826 0.0
C1368 C 0.11551 0.82579 0.35671 0.0
C1369 C 0.0779 0.80847 0.35453 0.0
C1370 C 0.05775 0.81755 0.39251 0.0
H1371 H 0.95863 0.80675 0.3871 0.0
H1372 H 0.98424 0.7982 0.37788 0.0
H1373 H 0.0404 0.81915 0.41165 0.0
H1374 H 0.13089 0.84717 0.37859 0.0
H1375 H 0.09941 0.84182 0.38926 0.0
H1376 H 0.04477 0.81611 0.35193 0.0
C1377 C 0.98901 0.81059 0.38757 0.0
C1378 C 0.0411 0.81827 0.39858 0.0
C1379 C 0.97435 0.81536 0.39291 0.0
C1380 C 0.11625 0.83618 0.37172 0.0
C1381 C 0.09812 0.83297 0.37795 0.0
C1382 C 0.04377 0.81623 0.36496 0.0
C1383 C 0.0097 0.82196 0.39447 0.0
C1384 C 0.02581 0.81838 0.38794 0.0
C1385 C 0.07871 0.81922 0.36939 0.0
C1386 C 0.0596 0.81712 0.37565 0.0
H1387 H 0.00563 0.8554 0.42174 0.0
H1388 H 0.03115 0.847 0.41255 0.0
H1389 H 0.01558 0.81707 0.36255 0.0
H1390 H 0.09498 0.80341 0.33669 0.0
H1391 H 0.0632 0.79761 0.3477 0.0
C1392 C 0.19363 0.16399 0.37374 0.0
C1393 C 0.17867 0.15344 0.38436 0.0
C1394 C 0.19803 0.18367 0.36985 0.0
C1395 C 0.1919 0.22869 0.38175 0.0
H1396 H 0.18328 0.23032 0.33517 0.0
C1397 C 0.19181 0.29784 0.35215 0.0
C1398 C 0.17344 0.29149 0.34209 0.0
C1399 C 0.19641 0.28311 0.35779 0.0
C1400 C 0.18596 0.23018 0.3482 0.0
H1401 H 0.15761 0.15558 0.4001 0.0
H1402 H 0.16555 0.19009 0.39358 0.0
H1403 H 0.18545 0.20129 0.34523 0.0
H1404 H 0.14581 0.2649 0.32967 0.0
H1405 H 0.15412 0.23935 0.3391 0.0
H1406 H 0.19178 0.25736 0.38466 0.0
C1407 C 0.17381 0.18319 0.38818 0.0
C1408 C 0.18736 0.21367 0.35395 0.0
C1409 C 0.16918 0.16342 0.39185 0.0
C1410 C 0.16007 0.27026 0.33743 0.0
C1411 C 0.16485 0.25563 0.34277 0.0
C1412 C 0.19083 0.24541 0.37597 0.0
C1413 C 0.18779 0.19325 0.37675 0.0
C1414 C 0.18977 0.21245 0.3708 0.0
C1415 C 0.18296 0.26187 0.35309 0.0
C1416 C 0.18725 0.24598 0.35916 0.0
H1417 H 0.20105 0.15655 0.36774 0.0
H1418 H 0.20893 0.19113 0.36105 0.0
H1419 H 0.19383 0.22816 0.3948 0.0
H1420 H 0.20256 0.31413 0.35569 0.0
H1421 H 0.21052 0.28829 0.36568 0.0
C1422 C 0.62815 0.51276 0.72332 0.0
C1423 C 0.62717 0.5071 0.73933 0.0
C1424 C 0.64601 0.52974 0.71895 0.0
C1425 C 0.70199 0.56037 0.73078 0.0
H1426 H 0.70003 0.59842 0.70173 0.0
C1427 C 0.77655 0.62962 0.71297 0.0
C1428 C 0.77674 0.63395 0.69661 0.0
C1429 C 0.75813 0.61556 0.71894 0.0
C1430 C 0.70085 0.58782 0.70972 0.0
H1431 H 0.64404 0.51507 0.76337 0.0
H1432 H 0.67517 0.54482 0.75577 0.0
H1433 H 0.66807 0.57147 0.71081 0.0
H1434 H 0.75756 0.627 0.67376 0.0
H1435 H 0.72557 0.60222 0.68406 0.0
H1436 H 0.73463 0.57631 0.72944 0.0
C1437 C 0.66216 0.53603 0.74658 0.0
C1438 C 0.68253 0.5724 0.71496 0.0
C1439 C 0.64425 0.51913 0.75097 0.0
C1440 C 0.75799 0.62411 0.68644 0.0
C1441 C 0.73959 0.60996 0.69239 0.0
C1442 C 0.72029 0.5757 0.72549 0.0
C1443 C 0.66335 0.54138 0.73046 0.0
C1444 C 0.68287 0.55842 0.72548 0.0
C1445 C 0.73942 0.60536 0.70869 0.0
C1446 C 0.71997 0.58956 0.71481 0.0
H1447 H 0.61518 0.5039 0.71411 0.0
H1448 H 0.64646 0.53334 0.70641 0.0
H1449 H 0.70277 0.54965 0.73867 0.0
H1450 H 0.79067 0.63702 0.72121 0.0
H1451 H 0.75856 0.61269 0.73163 0.0
C1452 C 0.51311 0.13175 0.72959 0.0
C1453 C 0.51915 0.13418 0.7464 0.0
C1454 C 0.4956 0.13265 0.724 0.0
C1455 C 0.46317 0.15411 0.7357 0.0
H1456 H 0.42224 0.11277 0.7025 0.0
C1457 C 0.38806 0.1541 0.71595 0.0
C1458 C 0.38089 0.14935 0.69926 0.0
C1459 C 0.40398 0.15095 0.72208 0.0
C1460 C 0.43363 0.12461 0.71163 0.0
H1461 H 0.51184 0.13976 0.7705 0.0
H1462 H 0.48137 0.14148 0.76074 0.0
H1463 H 0.45226 0.11024 0.71209 0.0
H1464 H 0.3847 0.13734 0.67596 0.0
H1465 H 0.41273 0.13239 0.68652 0.0
H1466 H 0.44503 0.16887 0.735 0.0
C1467 C 0.49009 0.13878 0.7519 0.0
C1468 C 0.4508 0.1231 0.71714 0.0
C1469 C 0.50742 0.13763 0.75749 0.0
C1470 C 0.38973 0.14103 0.68891 0.0
C1471 C 0.40579 0.13809 0.695 0.0
C1472 C 0.44614 0.15576 0.73007 0.0
C1473 C 0.48399 0.1363 0.73511 0.0
C1474 C 0.46574 0.13783 0.72923 0.0
C1475 C 0.41328 0.14319 0.71164 0.0
C1476 C 0.43113 0.14104 0.71795 0.0
H1477 H 0.52185 0.12901 0.72079 0.0
H1478 H 0.49133 0.13084 0.71098 0.0
H1479 H 0.47458 0.16583 0.7449 0.0
H1480 H 0.38148 0.1604 0.72428 0.0
H1481 H 0.40902 0.15466 0.73502 0.0
C1482 C 0.85212 0.37232 0.71139 0.0
C1483 C 0.87197 0.38845 0.71753 0.0
C1484 C 0.84921 0.35349 0.70435 0.0
C1485 C 0.87671 0.3275 0.6879 0.0
H1486 H 0.82831 0.27811 0.69863 0.0
C1487 C 0.8637 0.24421 0.6756 0.0
C1488 C 0.84384 0.22904 0.66865 0.0
C1489 C 0.86774 0.26409 0.68107 0.0
C1490 C 0.84181 0.29176 0.69542 0.0
H1491 H 0.90447 0.39766 0.72029 0.0
H1492 H 0.8993 0.36457 0.70855 0.0
H1493 H 0.83422 0.31208 0.70859 0.0
H1494 H 0.81268 0.22263 0.66192 0.0
H1495 H 0.81966 0.25721 0.67155 0.0
H1496 H 0.88441 0.30691 0.67499 0.0
C1497 C 0.88598 0.36655 0.709 0.0
C1498 C 0.84517 0.31127 0.70105 0.0
C1499 C 0.88892 0.38548 0.71591 0.0
C1500 C 0.82813 0.23405 0.66723 0.0
C1501 C 0.8321 0.2538 0.67282 0.0
C1502 C 0.87342 0.30792 0.68237 0.0
C1503 C 0.86603 0.35016 0.70341 0.0
C1504 C 0.86258 0.32942 0.69728 0.0
C1505 C 0.85192 0.26903 0.67983 0.0
C1506 C 0.85585 0.28986 0.68599 0.0
H1507 H 0.83865 0.37389 0.71256 0.0
H1508 H 0.83367 0.3414 0.69987 0.0
H1509 H 0.89017 0.34111 0.6846 0.0
H1510 H 0.87609 0.24072 0.67682 0.0
H1511 H 0.88312 0.27548 0.68653 0.0
C1512 C 0.17683 0.9591 0.62598 0.0
C1513 C 0.15659 0.9557 0.62361 0.0
C1514 C 0.19307 0.97808 0.63339 0.0
C1515 C 0.20691 0.03303 0.64179 0.0
H1516 H 0.25278 0.03749 0.66967 0.0
C1517 C 0.2681 0.10972 0.67846 0.0
C1518 C 0.28888 0.11514 0.67824 0.0
C1519 C 0.25227 0.09008 0.67194 0.0
C1520 C 0.24015 0.03647 0.66179 0.0
H1521 H 0.13759 0.9696 0.6277 0.0
H1522 H 0.1656 0.00218 0.64122 0.0
H1523 H 0.22424 0.00329 0.65885 0.0
H1524 H 0.3095 0.1043 0.67114 0.0
H1525 H 0.28173 0.06974 0.65981 0.0
H1526 H 0.22269 0.06619 0.64493 0.0
C1527 C 0.16907 0.99038 0.63697 0.0
C1528 C 0.22379 0.01688 0.65557 0.0
C1529 C 0.15289 0.97149 0.62945 0.0
C1530 C 0.29358 0.1005 0.67146 0.0
C1531 C 0.27771 0.08072 0.66506 0.0
C1532 C 0.22314 0.05256 0.64812 0.0
C1533 C 0.18946 0.99412 0.63872 0.0
C1534 C 0.20691 0.0149 0.64552 0.0
C1535 C 0.25688 0.07534 0.66518 0.0
C1536 C 0.23992 0.05451 0.65822 0.0
H1537 H 0.18023 0.9472 0.62185 0.0
H1538 H 0.20855 0.98038 0.63445 0.0
H1539 H 0.19448 0.03221 0.63378 0.0
H1540 H 0.26403 0.12072 0.6836 0.0
H1541 H 0.23638 0.08633 0.67237 0.0
C1542 C 0.04529 0.22681 0.60735 0.0
C1543 C 0.04704 0.20891 0.60605 0.0
C1544 C 0.02768 0.2261 0.61287 0.0
C1545 C 0.99363 0.22263 0.63327 0.0
H1546 H 0.94041 0.1736 0.61981 0.0
C1547 C 0.9192 0.20546 0.66281 0.0
C1548 C 0.90033 0.19534 0.65279 0.0
C1549 C 0.93742 0.20854 0.65669 0.0
C1550 C 0.95508 0.18754 0.62355 0.0
H1551 H 0.03142 0.17615 0.60939 0.0
H1552 H 1.00119 0.17507 0.61946 0.0
H1553 H 0.9713 0.1763 0.60971 0.0
H1554 H 0.88602 0.18139 0.62828 0.0
H1555 H 0.91773 0.18712 0.61757 0.0
H1556 H 0.97724 0.23403 0.64684 0.0
C1557 C 0.01326 0.18963 0.61601 0.0
C1558 C 0.97289 0.18895 0.61794 0.0
C1559 C 0.03078 0.19032 0.61046 0.0
C1560 C 0.90022 0.189 0.6364 0.0
C1561 C 0.91843 0.1922 0.63027 0.0
C1562 C 0.97576 0.22125 0.63885 0.0
C1563 C 0.01139 0.20746 0.6172 0.0
C1564 C 0.99242 0.20642 0.62282 0.0
C1565 C 0.93721 0.20169 0.64039 0.0
C1566 C 0.95626 0.20362 0.63413 0.0
H1567 H 0.05759 0.24142 0.60417 0.0
H1568 H 0.0267 0.24009 0.61349 0.0
H1569 H 0.00842 0.23625 0.63738 0.0
H1570 H 0.91982 0.21048 0.67551 0.0
H1571 H 0.95154 0.21571 0.6649 0.0
C1572 C 0.80424 0.83175 0.61901 0.0
C1573 C 0.80114 0.84539 0.62931 0.0
C1574 C 0.80584 0.81553 0.62521 0.0
C1575 C 0.81903 0.80043 0.66399 0.0
H1576 H 0.79849 0.74733 0.63874 0.0
C1577 C 0.84562 0.74331 0.68145 0.0
C1578 C 0.83093 0.72208 0.67968 0.0
C1579 C 0.84072 0.75758 0.67542 0.0
C1580 C 0.80414 0.76199 0.64603 0.0
H1581 H 0.79633 0.85213 0.65402 0.0
H1582 H 0.79885 0.82368 0.66482 0.0
H1583 H 0.79106 0.77298 0.62812 0.0
H1584 H 0.79952 0.69906 0.67034 0.0
H1585 H 0.79082 0.72404 0.65989 0.0
H1586 H 0.83186 0.78939 0.68199 0.0
C1587 C 0.80052 0.82578 0.65202 0.0
C1588 C 0.80009 0.7768 0.63986 0.0
C1589 C 0.79902 0.84205 0.64584 0.0
C1590 C 0.81119 0.71535 0.67177 0.0
C1591 C 0.80625 0.72965 0.66574 0.0
C1592 C 0.82305 0.78563 0.67017 0.0
C1593 C 0.80431 0.81252 0.64185 0.0
C1594 C 0.80763 0.79627 0.6487 0.0
C1595 C 0.82096 0.75096 0.66753 0.0
C1596 C 0.81585 0.76631 0.6612 0.0
H1597 H 0.80621 0.83408 0.60627 0.0
H1598 H 0.80903 0.80582 0.61706 0.0
H1599 H 0.82531 0.81532 0.67107 0.0
H1600 H 0.86101 0.7489 0.6874 0.0
H1601 H 0.85255 0.77381 0.67676 0.0
C1602 C 0.01178 0.84482 0.61032 0.0
C1603 C 0.03187 0.85491 0.61843 0.0
C1604 C 0.99669 0.82563 0.61452 0.0
C1605 C 0.98252 0.79539 0.64952 0.0
H1606 H 0.94073 0.75211 0.61789 0.0
C1607 C 0.91289 0.72229 0.66949 0.0
C1608 C 0.89358 0.71576 0.66081 0.0
C1609 C 0.93115 0.73724 0.66379 0.0
C1610 C 0.95219 0.7641 0.6269 0.0
H1611 H 0.05215 0.85248 0.63689 0.0
H1612 H 0.02566 0.8188 0.64432 0.0
H1613 H 0.97046 0.78162 0.60854 0.0
H1614 H 0.87842 0.71969 0.63916 0.0
H1615 H 0.91002 0.74585 0.62946 0.0
H1616 H 0.96394 0.77833 0.66787 0.0
C1617 C 0.02161 0.82583 0.63472 0.0
C1618 C 0.96927 0.78097 0.62153 0.0
C1619 C 0.03681 0.84499 0.63037 0.0
C1620 C 0.89299 0.72426 0.64616 0.0
C1621 C 0.9112 0.73921 0.64051 0.0
C1622 C 0.96536 0.77857 0.6549 0.0
C1623 C 1.00127 0.81613 0.62704 0.0
C1624 C 0.98444 0.79701 0.63276 0.0
C1625 C 0.93053 0.74604 0.64929 0.0
C1626 C 0.94976 0.76289 0.64365 0.0
H1627 H 0.00757 0.85209 0.60101 0.0
H1628 H 0.98116 0.8187 0.60846 0.0
H1629 H 0.99379 0.8076 0.65849 0.0
H1630 H 0.91393 0.71602 0.68077 0.0
H1631 H 0.94576 0.74191 0.67076 0.0
C1632 C 0.15943 0.19765 0.62782 0.0
C1633 C 0.14555 0.18011 0.61716 0.0
C1634 C 0.17959 0.20178 0.63206 0.0
C1635 C 0.21926 0.18963 0.61976 0.0
H1636 H 0.23596 0.19665 0.66615 0.0
C1637 C 0.28193 0.17292 0.64541 0.0
C1638 C 0.29447 0.18428 0.65985 0.0
C1639 C 0.26586 0.17589 0.63945 0.0
C1640 C 0.23183 0.19516 0.65314 0.0
H1641 H 0.14207 0.15375 0.60193 0.0
H1642 H 0.17729 0.16107 0.60913 0.0
H1643 H 0.20431 0.19624 0.65674 0.0
H1644 H 0.30043 0.20829 0.67899 0.0
H1645 H 0.27267 0.21384 0.66837 0.0
H1646 H 0.24662 0.18838 0.61609 0.0
C1647 C 0.17264 0.17159 0.61429 0.0
C1648 C 0.21363 0.19489 0.64776 0.0
C1649 C 0.15245 0.16732 0.61025 0.0
C1650 C 0.29097 0.19917 0.6679 0.0
C1651 C 0.27496 0.20227 0.66185 0.0
C1652 C 0.23756 0.19011 0.62512 0.0
C1653 C 0.1863 0.18862 0.62549 0.0
C1654 C 0.20692 0.19163 0.63103 0.0
C1655 C 0.26199 0.19044 0.64767 0.0
C1656 C 0.24383 0.19236 0.6419 0.0
H1657 H 0.15444 0.20769 0.63337 0.0
H1658 H 0.18985 0.21508 0.64066 0.0
H1659 H 0.21459 0.18736 0.60678 0.0
H1660 H 0.2841 0.16124 0.63891 0.0
H1661 H 0.25603 0.16622 0.62866 0.0
C1662 C 0.84468 0.99271 0.63711 0.0
C1663 C 0.83279 0.97415 0.64401 0.0
C1664 C 0.84108 0.00923 0.63969 0.0
C1665 C 0.82523 0.03281 0.67042 0.0
H1666 H 0.82375 0.06644 0.63686 0.0
C1667 C 0.85239 0.11963 0.68186 0.0
C1668 C 0.83892 0.12625 0.67593 0.0
C1669 C 0.84793 0.09933 0.67786 0.0
C1670 C 0.8239 0.05704 0.64631 0.0
H1671 H 0.80756 0.95796 0.65867 0.0
H1672 H 0.8016 0.98722 0.66363 0.0
H1673 H 0.82208 0.0334 0.62909 0.0
H1674 H 0.80996 0.11673 0.66145 0.0
H1675 H 0.80261 0.08128 0.65376 0.0
H1676 H 0.82823 0.05698 0.68767 0.0
C1677 C 0.8135 0.98883 0.65604 0.0
C1678 C 0.82304 0.03825 0.64189 0.0
C1679 C 0.81684 0.97213 0.65317 0.0
C1680 C 0.82077 0.11212 0.66598 0.0
C1681 C 0.81652 0.09187 0.66164 0.0
C1682 C 0.8265 0.05177 0.67484 0.0
C1683 C 0.82578 0.00761 0.64948 0.0
C1684 C 0.82402 0.02612 0.65392 0.0
C1685 C 0.83007 0.08533 0.6676 0.0
C1686 C 0.82618 0.0642 0.66284 0.0
H1687 H 0.85706 0.99458 0.62999 0.0
H1688 H 0.85089 0.0236 0.63463 0.0
H1689 H 0.82621 0.02385 0.67993 0.0
H1690 H 0.86647 0.13016 0.6896 0.0
H1691 H 0.85869 0.09469 0.68249 0.0
C1692 C 0.51837 0.37458 0.69469 0.0
C1693 C 0.52783 0.38104 0.71077 0.0
C1694 C 0.49903 0.35669 0.69122 0.0
C1695 C 0.45398 0.31571 0.70965 0.0
H1696 H 0.45195 0.28175 0.67146 0.0
C1697 C 0.38255 0.23473 0.68621 0.0
C1698 C 0.387 0.2196 0.68012 0.0
C1699 C 0.39853 0.25522 0.69056 0.0
C1700 C 0.45227 0.29095 0.68223 0.0
H1701 H 0.52426 0.37462 0.73594 0.0
H1702 H 0.4906 0.3429 0.7299 0.0
H1703 H 0.48129 0.31638 0.6779 0.0
H1704 H 0.41157 0.21369 0.67451 0.0
H1705 H 0.43932 0.24908 0.68231 0.0
H1706 H 0.42516 0.28964 0.71423 0.0
C1707 C 0.49786 0.35183 0.71997 0.0
C1708 C 0.469 0.31102 0.6858 0.0
C1709 C 0.51715 0.36997 0.72346 0.0
C1710 C 0.40766 0.2251 0.67896 0.0
C1711 C 0.42356 0.24544 0.68335 0.0
C1712 C 0.43718 0.29548 0.70608 0.0
C1713 C 0.48889 0.3446 0.70372 0.0
C1714 C 0.4702 0.32368 0.6996 0.0
C1715 C 0.41921 0.26087 0.68891 0.0
C1716 C 0.4363 0.28277 0.69244 0.0
H1717 H 0.5263 0.38299 0.68473 0.0
H1718 H 0.49237 0.35195 0.67863 0.0
H1719 H 0.4543 0.32507 0.72031 0.0
H1720 H 0.36672 0.23085 0.68726 0.0
H1721 H 0.39464 0.26673 0.69476 0.0
C1722 C 0.63939 0.14606 0.7241 0.0
C1723 C 0.64452 0.16296 0.73557 0.0
C1724 C 0.65475 0.14203 0.71926 0.0
C1725 C 0.70796 0.15309 0.73091 0.0
H1726 H 0.71156 0.14877 0.68433 0.0
C1727 C 0.78384 0.17181 0.70471 0.0
C1728 C 0.78335 0.16095 0.69004 0.0
C1729 C 0.76555 0.1685 0.71072 0.0
C1730 C 0.71062 0.14952 0.69736 0.0
H1731 H 0.66936 0.18822 0.75159 0.0
H1732 H 0.69607 0.18107 0.74333 0.0
H1733 H 0.68161 0.14868 0.69437 0.0
H1734 H 0.76312 0.13763 0.67041 0.0
H1735 H 0.7311 0.13157 0.68108 0.0
H1736 H 0.73702 0.15417 0.73398 0.0
C1737 C 0.68028 0.17097 0.73801 0.0
C1738 C 0.69343 0.14949 0.70311 0.0
C1739 C 0.66503 0.17515 0.74266 0.0
C1740 C 0.76406 0.14633 0.68171 0.0
C1741 C 0.7457 0.14293 0.68779 0.0
C1742 C 0.72505 0.15294 0.72517 0.0
C1743 C 0.6754 0.15462 0.72602 0.0
C1744 C 0.69217 0.15179 0.71995 0.0
C1745 C 0.74622 0.15413 0.7023 0.0
C1746 C 0.72687 0.15171 0.70833 0.0
H1747 H 0.6237 0.1365 0.7184 0.0
H1748 H 0.65054 0.12926 0.71007 0.0
H1749 H 0.70726 0.15458 0.74395 0.0
H1750 H 0.79838 0.18327 0.71145 0.0
H1751 H 0.76663 0.1777 0.72176 0.0
C1752 C 0.861 0.49865 0.70829 0.0
C1753 C 0.84734 0.48884 0.71997 0.0
C1754 C 0.86475 0.51794 0.70391 0.0
C1755 C 0.85972 0.56354 0.71597 0.0
H1756 H 0.84768 0.56324 0.66955 0.0
C1757 C 0.85863 0.63197 0.68616 0.0
C1758 C 0.83989 0.6257 0.67666 0.0
C1759 C 0.86321 0.61718 0.69167 0.0
C1760 C 0.85128 0.56362 0.68252 0.0
H1761 H 0.82794 0.49198 0.73696 0.0
H1762 H 0.8347 0.52579 0.72949 0.0
H1763 H 0.85021 0.53445 0.6797 0.0
H1764 H 0.81158 0.59915 0.66506 0.0
H1765 H 0.81982 0.57346 0.67427 0.0
H1766 H 0.86021 0.59251 0.71876 0.0
C1767 C 0.84245 0.51859 0.72367 0.0
C1768 C 0.85288 0.54724 0.68832 0.0
C1769 C 0.83847 0.4992 0.72787 0.0
C1770 C 0.82612 0.60446 0.67239 0.0
C1771 C 0.83086 0.58975 0.67761 0.0
C1772 C 0.85843 0.58011 0.71013 0.0
C1773 C 0.85516 0.52789 0.71132 0.0
C1774 C 0.8566 0.54676 0.70514 0.0
C1775 C 0.84935 0.59593 0.68739 0.0
C1776 C 0.85364 0.58 0.69339 0.0
H1777 H 0.86795 0.49093 0.70197 0.0
H1778 H 0.8747 0.52482 0.69441 0.0
H1779 H 0.86267 0.56358 0.72899 0.0
H1780 H 0.86967 0.64826 0.68939 0.0
H1781 H 0.87762 0.62232 0.69913 0.0
C1782 C 0.43711 0.88563 0.21992 0.0
C1783 C 0.43205 0.89552 0.23233 0.0
C1784 C 0.44447 0.8951 0.2058 0.0
C1785 C 0.46754 0.94592 0.18871 0.0
H1786 H 0.44971 0.91146 0.1474 0.0
C1787 C 0.48446 0.9796 0.12635 0.0
C1788 C 0.49185 0.97041 0.11533 0.0
C1789 C 0.47688 0.97065 0.14063 0.0
C1790 C 0.45493 0.92126 0.15886 0.0
H1791 H 0.4311 0.92336 0.23964 0.0
H1792 H 0.4433 0.93959 0.21478 0.0
H1793 H 0.43712 0.8957 0.17234 0.0
H1794 H 0.49671 0.94443 0.11044 0.0
H1795 H 0.48343 0.92876 0.13536 0.0
H1796 H 0.48514 0.97153 0.17508 0.0
C1797 C 0.4419 0.92463 0.21608 0.0
C1798 C 0.44779 0.91223 0.17319 0.0
C1799 C 0.43466 0.9152 0.23028 0.0
C1800 C 0.49127 0.95195 0.11878 0.0
C1801 C 0.48351 0.94289 0.13296 0.0
C1802 C 0.47456 0.95498 0.17435 0.0
C1803 C 0.4468 0.91465 0.20362 0.0
C1804 C 0.45412 0.92441 0.18833 0.0
C1805 C 0.47633 0.9522 0.14409 0.0
C1806 C 0.46843 0.94272 0.15929 0.0
H1807 H 0.43501 0.87034 0.22093 0.0
H1808 H 0.44838 0.88707 0.1966 0.0
H1809 H 0.47298 0.95575 0.20016 0.0
H1810 H 0.48485 0.99391 0.12407 0.0
H1811 H 0.47131 0.97808 0.14892 0.0
C1812 C 0.12487 0.561 0.24035 0.0
C1813 C 0.1149 0.54524 0.2506 0.0
C1814 C 0.11563 0.55967 0.22477 0.0
C1815 C 0.07783 0.52221 0.19203 0.0
H1816 H 0.07902 0.57055 0.17614 0.0
C1817 C 0.03556 0.51824 0.12973 0.0
C1818 C 0.04541 0.53513 0.12049 0.0
C1819 C 0.04352 0.51927 0.14574 0.0
C1820 C 0.07878 0.55696 0.18029 0.0
H1821 H 0.08719 0.51586 0.25249 0.0
H1822 H 0.07121 0.51343 0.22515 0.0
H1823 H 0.09367 0.57278 0.20387 0.0
H1824 H 0.07161 0.56613 0.12066 0.0
H1825 H 0.08572 0.56783 0.14847 0.0
H1826 H 0.06329 0.50646 0.16839 0.0
C1827 C 0.08625 0.52675 0.2292 0.0
C1828 C 0.08712 0.55824 0.19621 0.0
C1829 C 0.09542 0.52814 0.24486 0.0
C1830 C 0.06351 0.55298 0.12756 0.0
C1831 C 0.07155 0.55396 0.14352 0.0
C1832 C 0.0696 0.52096 0.17606 0.0
C1833 C 0.09628 0.54249 0.21899 0.0
C1834 C 0.08682 0.54091 0.20224 0.0
C1835 C 0.0616 0.53716 0.15286 0.0
C1836 C 0.07005 0.53835 0.16996 0.0
H1837 H 0.14006 0.57418 0.2442 0.0
H1838 H 0.12389 0.57189 0.21709 0.0
H1839 H 0.07761 0.50866 0.19626 0.0
H1840 H 0.02143 0.50438 0.12469 0.0
H1841 H 0.03526 0.50615 0.15263 0.0
C1842 C 0.48202 0.59144 0.23421 0.0
C1843 C 0.46759 0.57591 0.24293 0.0
C1844 C 0.48658 0.58644 0.21907 0.0
C1845 C 0.46632 0.54832 0.18337 0.0
H1846 H 0.52398 0.5737 0.17552 0.0
C1847 C 0.49223 0.53275 0.12172 0.0
C1848 C 0.50893 0.54981 0.1159 0.0
C1849 C 0.4868 0.5343 0.13746 0.0
C1850 C 0.50779 0.56665 0.17741 0.0
H1851 H 0.44625 0.54286 0.2422 0.0
H1852 H 0.45394 0.53418 0.21538 0.0
H1853 H 0.51498 0.5792 0.20246 0.0
H1854 H 0.53309 0.58182 0.12227 0.0
H1855 H 0.5232 0.58473 0.14931 0.0
H1856 H 0.45909 0.53629 0.15817 0.0
C1857 C 0.46182 0.55024 0.2205 0.0
C1858 C 0.50265 0.56973 0.19289 0.0
C1859 C 0.4574 0.55522 0.23582 0.0
C1860 C 0.51998 0.56843 0.12621 0.0
C1861 C 0.51449 0.57 0.14187 0.0
C1862 C 0.47146 0.54538 0.16779 0.0
C1863 C 0.47664 0.56581 0.21207 0.0
C1864 C 0.48188 0.56088 0.19598 0.0
C1865 C 0.4979 0.55294 0.14776 0.0
C1866 C 0.49228 0.5548 0.16455 0.0
H1867 H 0.48969 0.60762 0.23896 0.0
H1868 H 0.49773 0.59883 0.2127 0.0
H1869 H 0.45018 0.54142 0.18539 0.0
H1870 H 0.48322 0.51823 0.11408 0.0
H1871 H 0.47404 0.52079 0.14161 0.0
C1872 C 0.91106 0.45979 0.77448 0.0
C1873 C 0.90098 0.43897 0.7677 0.0
C1874 C 0.92163 0.46559 0.79018 0.0
C1875 C 0.94663 0.44911 0.82072 0.0
H1876 H 0.93263 0.47857 0.85304 0.0
C1877 C 0.96354 0.44813 0.88919 0.0
C1878 C 0.96916 0.46583 0.89991 0.0
C1879 C 0.95738 0.44721 0.87273 0.0
C1880 C 0.93705 0.47069 0.84412 0.0
H1881 H 0.89377 0.4079 0.77249 0.0
H1882 H 0.91274 0.41816 0.79941 0.0
H1883 H 0.91851 0.47327 0.82457 0.0
H1884 H 0.97271 0.49654 0.9016 0.0
H1885 H 0.96253 0.49517 0.87271 0.0
H1886 H 0.9651 0.4464 0.8401 0.0
C1887 C 0.91263 0.43001 0.79251 0.0
C1888 C 0.92892 0.46764 0.82783 0.0
C1889 C 0.90185 0.42417 0.777 0.0
C1890 C 0.96867 0.48272 0.89367 0.0
C1891 C 0.9626 0.48185 0.87713 0.0
C1892 C 0.95491 0.45232 0.83693 0.0
C1893 C 0.92256 0.45072 0.7993 0.0
C1894 C 0.93324 0.45637 0.81606 0.0
C1895 C 0.95684 0.46405 0.86646 0.0
C1896 C 0.94979 0.46267 0.84893 0.0
H1897 H 0.91085 0.47163 0.76764 0.0
H1898 H 0.92922 0.48169 0.79515 0.0
H1899 H 0.95043 0.44062 0.81182 0.0
H1900 H 0.96402 0.43494 0.89349 0.0
H1901 H 0.95273 0.4331 0.86496 0.0
C1902 C 0.56943 0.45311 0.7882 0.0
C1903 C 0.57501 0.46954 0.77844 0.0
C1904 C 0.5617 0.45347 0.80314 0.0
C1905 C 0.5613 0.4893 0.83545 0.0
H1906 H 0.51426 0.44001 0.84787 0.0
C1907 C 0.52179 0.49118 0.89293 0.0
C1908 C 0.51468 0.4741 0.90212 0.0
C1909 C 0.52902 0.49055 0.87782 0.0
C1910 C 0.52758 0.45385 0.84471 0.0
H1911 H 0.57634 0.49901 0.77663 0.0
H1912 H 0.56312 0.49974 0.80278 0.0
H1913 H 0.52698 0.43892 0.82155 0.0
H1914 H 0.50999 0.44313 0.90279 0.0
H1915 H 0.52289 0.4421 0.87655 0.0
H1916 H 0.56213 0.5042 0.85864 0.0
C1917 C 0.56494 0.48668 0.79893 0.0
C1918 C 0.53483 0.45322 0.82959 0.0
C1919 C 0.57254 0.48627 0.78395 0.0
C1920 C 0.5151 0.45642 0.8959 0.0
C1921 C 0.52245 0.45583 0.88083 0.0
C1922 C 0.55413 0.4899 0.85061 0.0
C1923 C 0.55949 0.47032 0.80872 0.0
C1924 C 0.55175 0.47095 0.82478 0.0
C1925 C 0.52946 0.47287 0.87156 0.0
C1926 C 0.53716 0.47219 0.85543 0.0
H1927 H 0.57144 0.44015 0.78449 0.0
H1928 H 0.55788 0.44075 0.8105 0.0
H1929 H 0.57456 0.50315 0.83221 0.0
H1930 H 0.52139 0.50491 0.89729 0.0
H1931 H 0.53395 0.50382 0.87092 0.0
C1932 C 0.56897 0.11975 0.79974 0.0
C1933 C 0.5537 0.11042 0.78636 0.0
C1934 C 0.56656 0.11007 0.8141 0.0
C1935 C 0.53499 0.05998 0.83161 0.0
H1936 H 0.54778 0.09558 0.87179 0.0
C1937 C 0.49807 0.02976 0.89051 0.0
C1938 C 0.51078 0.0373 0.90541 0.0
C1939 C 0.50565 0.03817 0.8761 0.0
C1940 C 0.5444 0.08546 0.86071 0.0
H1941 H 0.52458 0.08301 0.77725 0.0
H1942 H 0.52006 0.06647 0.80234 0.0
H1943 H 0.55725 0.11093 0.84621 0.0
H1944 H 0.54165 0.05954 0.91667 0.0
H1945 H 0.5547 0.07457 0.89149 0.0
H1946 H 0.5214 0.03449 0.84612 0.0
C1947 C 0.53402 0.08115 0.80177 0.0
C1948 C 0.54989 0.09425 0.84603 0.0
C1949 C 0.53648 0.09076 0.78741 0.0
C1950 C 0.53131 0.05355 0.90549 0.0
C1951 C 0.53883 0.06211 0.89106 0.0
C1952 C 0.52935 0.0512 0.84627 0.0
C1953 C 0.54881 0.09087 0.81543 0.0
C1954 C 0.54494 0.0816 0.83124 0.0
C1955 C 0.52608 0.05447 0.87622 0.0
C1956 C 0.53369 0.06384 0.86093 0.0
H1957 H 0.58237 0.13494 0.79939 0.0
H1958 H 0.57842 0.11785 0.82429 0.0
H1959 H 0.5313 0.04978 0.82053 0.0
H1960 H 0.48207 0.01759 0.88999 0.0
H1961 H 0.49534 0.03222 0.86489 0.0
C1962 C 0.10467 0.22058 0.55284 0.0
C1963 C 0.09929 0.23025 0.5652 0.0
C1964 C 0.1118 0.23003 0.53867 0.0
C1965 C 0.13371 0.28067 0.52134 0.0
H1966 H 0.1168 0.24603 0.48017 0.0
C1967 C 0.15015 0.31409 0.45885 0.0
C1968 C 0.15798 0.30523 0.44794 0.0
C1969 C 0.14265 0.3051 0.47314 0.0
C1970 C 0.12177 0.25589 0.49159 0.0
H1971 H 0.09752 0.25767 0.57232 0.0
H1972 H 0.10931 0.27383 0.54736 0.0
H1973 H 0.10442 0.23025 0.50515 0.0
H1974 H 0.16369 0.27978 0.44329 0.0
H1975 H 0.15053 0.26403 0.4682 0.0
H1976 H 0.15083 0.30634 0.50763 0.0
C1977 C 0.10834 0.25907 0.54875 0.0
C1978 C 0.11474 0.24685 0.50594 0.0
C1979 C 0.10133 0.24968 0.563 0.0
C1980 C 0.1579 0.28705 0.45152 0.0
C1981 C 0.15021 0.27794 0.46571 0.0
C1982 C 0.14059 0.28973 0.50695 0.0
C1983 C 0.11358 0.24932 0.53636 0.0
C1984 C 0.12074 0.25909 0.52103 0.0
C1985 C 0.14261 0.28692 0.47672 0.0
C1986 C 0.13481 0.27741 0.49194 0.0
H1987 H 0.10302 0.20548 0.55395 0.0
H1988 H 0.11599 0.22218 0.52953 0.0
H1989 H 0.13889 0.29057 0.53274 0.0
H1990 H 0.15015 0.32819 0.45647 0.0
H1991 H 0.13673 0.31228 0.48133 0.0
C1992 C 0.79244 0.89313 0.57425 0.0
C1993 C 0.78209 0.87796 0.58486 0.0
C1994 C 0.78325 0.8916 0.55862 0.0
C1995 C 0.74423 0.85434 0.52639 0.0
H1996 H 0.74787 0.90347 0.50995 0.0
C1997 C 0.70322 0.85184 0.46375 0.0
C1998 C 0.71393 0.86849 0.45446 0.0
C1999 C 0.71085 0.85255 0.47982 0.0
C2000 C 0.74693 0.88965 0.51426 0.0
H2001 H 0.75386 0.84927 0.58726 0.0
H2002 H 0.73791 0.84648 0.55979 0.0
H2003 H 0.76226 0.90552 0.53772 0.0
H2004 H 0.74136 0.89865 0.45455 0.0
H2005 H 0.75483 0.8998 0.48244 0.0
H2006 H 0.7292 0.83853 0.50284 0.0
C2007 C 0.7532 0.85952 0.56364 0.0
C2008 C 0.75513 0.89082 0.5302 0.0
C2009 C 0.76235 0.86111 0.57936 0.0
C2010 C 0.73257 0.88573 0.4615 0.0
C2011 C 0.74026 0.8864 0.4775 0.0
C2012 C 0.73612 0.85318 0.51039 0.0
C2013 C 0.76355 0.87479 0.55312 0.0
C2014 C 0.75401 0.87323 0.53641 0.0
C2015 C 0.72943 0.86989 0.48692 0.0
C2016 C 0.73751 0.87087 0.50408 0.0
H2017 H 0.80785 0.90605 0.57791 0.0
H2018 H 0.79178 0.90342 0.5507 0.0
H2019 H 0.74334 0.84057 0.53077 0.0
H2020 H 0.68869 0.83844 0.45873 0.0
H2021 H 0.70197 0.83968 0.48677 0.0
C2022 C 0.12169 0.8852 0.56623 0.0
C2023 C 0.1321 0.90599 0.57311 0.0
C2024 C 0.12606 0.87981 0.55102 0.0
C2025 C 0.16693 0.89805 0.52352 0.0
H2026 H 0.12326 0.86581 0.48858 0.0
C2027 C 0.18437 0.89731 0.4569 0.0
C2028 C 0.17296 0.87895 0.44634 0.0
C2029 C 0.17895 0.89871 0.4726 0.0
C2030 C 0.13565 0.87453 0.49826 0.0
H2031 H 0.1546 0.93746 0.56886 0.0
H2032 H 0.16259 0.92796 0.54284 0.0
H2033 H 0.11444 0.87113 0.5158 0.0
H2034 H 0.14672 0.84764 0.44413 0.0
H2035 H 0.13762 0.8499 0.47175 0.0
H2036 H 0.18818 0.9015 0.50621 0.0
C2037 C 0.15128 0.91581 0.5493 0.0
C2038 C 0.13056 0.87758 0.51384 0.0
C2039 C 0.14675 0.92121 0.5643 0.0
C2040 C 0.156 0.86197 0.45197 0.0
C2041 C 0.15062 0.86334 0.46776 0.0
C2042 C 0.17201 0.89485 0.50805 0.0
C2043 C 0.14107 0.89508 0.54251 0.0
C2044 C 0.14618 0.88977 0.52651 0.0
C2045 C 0.16207 0.88173 0.4783 0.0
C2046 C 0.15646 0.88347 0.4951 0.0
H2047 H 0.11037 0.87306 0.57267 0.0
H2048 H 0.11798 0.86369 0.54604 0.0
H2049 H 0.17928 0.90724 0.53314 0.0
H2050 H 0.19771 0.91062 0.45311 0.0
H2051 H 0.18793 0.91326 0.48023 0.0
C2052 C 0.56739 0.75534 0.11016 0.0
C2053 C 0.56676 0.77019 0.10078 0.0
C2054 C 0.57795 0.76112 0.12577 0.0
C2055 C 0.59437 0.79914 0.161 0.0
H2056 H 0.62982 0.77725 0.17378 0.0
C2057 C 0.63467 0.81529 0.2268 0.0
C2058 C 0.63498 0.79847 0.23334 0.0
C2059 C 0.62836 0.81402 0.21026 0.0
C2060 C 0.61982 0.78334 0.17048 0.0
H2061 H 0.57678 0.80287 0.10069 0.0
H2062 H 0.59479 0.81285 0.12832 0.0
H2063 H 0.61518 0.77119 0.14548 0.0
H2064 H 0.62923 0.76726 0.22744 0.0
H2065 H 0.61755 0.76476 0.1989 0.0
H2066 H 0.59832 0.81061 0.1861 0.0
C2067 C 0.58718 0.79675 0.12336 0.0
C2068 C 0.61154 0.77996 0.15424 0.0
C2069 C 0.57682 0.791 0.10758 0.0
C2070 C 0.6289 0.78041 0.22292 0.0
C2071 C 0.62251 0.7791 0.20644 0.0
C2072 C 0.6025 0.80237 0.17732 0.0
C2073 C 0.5879 0.78184 0.13256 0.0
C2074 C 0.59843 0.78748 0.14939 0.0
C2075 C 0.62218 0.79589 0.19987 0.0
C2076 C 0.615 0.79415 0.18231 0.0
H2077 H 0.55932 0.73908 0.10563 0.0
H2078 H 0.57789 0.74924 0.13271 0.0
H2079 H 0.58418 0.80499 0.1576 0.0
H2080 H 0.63907 0.82938 0.2345 0.0
H2081 H 0.62846 0.82731 0.20559 0.0
C2082 C 0.23609 0.8172 0.11274 0.0
C2083 C 0.23855 0.80042 0.10737 0.0
C2084 C 0.22853 0.8178 0.1277 0.0
C2085 C 0.22169 0.79561 0.16739 0.0
H2086 H 0.18472 0.81741 0.17198 0.0
C2087 C 0.18019 0.78991 0.22532 0.0
C2088 C 0.17938 0.80751 0.23116 0.0
C2089 C 0.18745 0.78902 0.21026 0.0
C2090 C 0.1952 0.81147 0.17094 0.0
H2091 H 0.23486 0.77106 0.11361 0.0
H2092 H 0.22111 0.77181 0.13946 0.0
H2093 H 0.19677 0.81551 0.14551 0.0
H2094 H 0.18546 0.83795 0.22569 0.0
H2095 H 0.19828 0.83646 0.19945 0.0
H2096 H 0.21996 0.79144 0.19281 0.0
C2097 C 0.22535 0.78469 0.13221 0.0
C2098 C 0.20213 0.81039 0.15576 0.0
C2099 C 0.23298 0.78412 0.11726 0.0
C2100 C 0.18605 0.82424 0.22161 0.0
C2101 C 0.19319 0.8233 0.20649 0.0
C2102 C 0.21468 0.79661 0.18255 0.0
C2103 C 0.22314 0.8016 0.13768 0.0
C2104 C 0.2155 0.80248 0.15379 0.0
C2105 C 0.19394 0.80567 0.20063 0.0
C2106 C 0.20139 0.80459 0.18451 0.0
H2107 H 0.24 0.82991 0.10535 0.0
H2108 H 0.22725 0.83118 0.13157 0.0
H2109 H 0.23226 0.78978 0.16642 0.0
H2110 H 0.17534 0.77685 0.23245 0.0
H2111 H 0.18768 0.77516 0.20604 0.0
C2112 C 0.23377 0.4542 0.13169 0.0
C2113 C 0.21901 0.445 0.11798 0.0
C2114 C 0.23088 0.44429 0.14595 0.0
C2115 C 0.19887 0.39392 0.16294 0.0
H2116 H 0.21134 0.42926 0.20322 0.0
C2117 C 0.16306 0.36298 0.2222 0.0
C2118 C 0.17603 0.37077 0.23697 0.0
C2119 C 0.17019 0.37149 0.20771 0.0
C2120 C 0.20802 0.41921 0.19211 0.0
H2121 H 0.19022 0.41757 0.10824 0.0
H2122 H 0.18481 0.40064 0.13322 0.0
H2123 H 0.22071 0.44477 0.17771 0.0
H2124 H 0.20687 0.39355 0.24793 0.0
H2125 H 0.21912 0.40872 0.22263 0.0
H2126 H 0.18549 0.36833 0.17738 0.0
C2127 C 0.19878 0.4154 0.13295 0.0
C2128 C 0.21346 0.42809 0.17746 0.0
C2129 C 0.20175 0.42524 0.11865 0.0
C2130 C 0.19633 0.38736 0.23686 0.0
C2131 C 0.2034 0.39601 0.22236 0.0
C2132 C 0.19327 0.38504 0.17757 0.0
C2133 C 0.21308 0.42501 0.14691 0.0
C2134 C 0.20875 0.41555 0.16264 0.0
C2135 C 0.1904 0.38814 0.20763 0.0
C2136 C 0.19758 0.39758 0.19228 0.0
H2137 H 0.24716 0.46948 0.13171 0.0
H2138 H 0.24241 0.45199 0.15636 0.0
H2139 H 0.19532 0.3838 0.15183 0.0
H2140 H 0.14721 0.35052 0.22184 0.0
H2141 H 0.15969 0.36534 0.19661 0.0
C2142 C 0.75468 0.57097 0.88872 0.0
C2143 C 0.7677 0.57042 0.90143 0.0
C2144 C 0.76287 0.58171 0.87527 0.0
C2145 C 0.80962 0.60214 0.85314 0.0
H2146 H 0.78431 0.62944 0.83075 0.0
C2147 C 0.84414 0.6501 0.79923 0.0
C2148 C 0.83022 0.64613 0.78542 0.0
C2149 C 0.83694 0.64203 0.81385 0.0
C2150 C 0.79146 0.62177 0.83683 0.0
H2151 H 0.79957 0.58127 0.91027 0.0
H2152 H 0.81399 0.60049 0.88697 0.0
H2153 H 0.77139 0.61401 0.85579 0.0
H2154 H 0.79771 0.63049 0.77633 0.0
H2155 H 0.78519 0.61678 0.80197 0.0
H2156 H 0.82979 0.61011 0.83421 0.0
C2157 C 0.79738 0.59219 0.88718 0.0
C2158 C 0.78404 0.61288 0.85117 0.0
C2159 C 0.78915 0.58128 0.90058 0.0
C2160 C 0.80889 0.63415 0.78674 0.0
C2161 C 0.80169 0.62624 0.80143 0.0
C2162 C 0.81715 0.61121 0.8389 0.0
C2163 C 0.78432 0.59231 0.87423 0.0
C2164 C 0.7929 0.60277 0.85944 0.0
C2165 C 0.81565 0.62997 0.8151 0.0
C2166 C 0.80804 0.62096 0.83052 0.0
H2167 H 0.73805 0.56246 0.88889 0.0
H2168 H 0.75228 0.58111 0.86544 0.0
H2169 H 0.8166 0.59418 0.85896 0.0
H2170 H 0.86065 0.6596 0.7988 0.0
H2171 H 0.84806 0.6454 0.82425 0.0
C2172 C 0.46431 0.22668 0.90824 0.0
C2173 C 0.4538 0.21292 0.9197 0.0
C2174 C 0.45484 0.22413 0.89251 0.0
C2175 C 0.41184 0.18536 0.86267 0.0
H2176 H 0.42184 0.23404 0.84152 0.0
C2177 C 0.36734 0.18167 0.80139 0.0
C2178 C 0.37909 0.19467 0.78991 0.0
C2179 C 0.3763 0.18332 0.81718 0.0
C2180 C 0.41906 0.2203 0.84721 0.0
H2181 H 0.42506 0.18575 0.9237 0.0
H2182 H 0.40829 0.18144 0.89627 0.0
H2183 H 0.43726 0.23813 0.8693 0.0
H2184 H 0.40946 0.21954 0.78598 0.0
H2185 H 0.42513 0.22239 0.81353 0.0
H2186 H 0.39338 0.16757 0.84054 0.0
C2187 C 0.42402 0.19402 0.89935 0.0
C2188 C 0.42792 0.22263 0.86314 0.0
C2189 C 0.43358 0.19651 0.91508 0.0
C2190 C 0.40005 0.2092 0.79451 0.0
C2191 C 0.40896 0.21097 0.81033 0.0
C2192 C 0.40286 0.18304 0.84675 0.0
C2193 C 0.43455 0.2078 0.88785 0.0
C2194 C 0.42455 0.2052 0.87105 0.0
C2195 C 0.39715 0.19814 0.82187 0.0
C2196 C 0.40648 0.20049 0.83882 0.0
H2197 H 0.48006 0.23924 0.91132 0.0
H2198 H 0.4636 0.23478 0.88391 0.0
H2199 H 0.40914 0.1716 0.86827 0.0
H2200 H 0.35119 0.1702 0.79816 0.0
H2201 H 0.36678 0.1733 0.82582 0.0
C2202 C 0.77942 0.2309 0.89263 0.0
C2203 C 0.79433 0.23721 0.90616 0.0
C2204 C 0.78314 0.22532 0.87727 0.0
C2205 C 0.81805 0.21168 0.85613 0.0
H2206 H 0.80131 0.23145 0.81903 0.0
C2207 C 0.85151 0.21762 0.7942 0.0
C2208 C 0.8377 0.21105 0.77992 0.0
C2209 C 0.84493 0.21895 0.80948 0.0
C2210 C 0.80587 0.2256 0.82923 0.0
H2211 H 0.82448 0.24165 0.91418 0.0
H2212 H 0.83125 0.23264 0.88737 0.0
H2213 H 0.79202 0.23672 0.84593 0.0
H2214 H 0.80593 0.20045 0.77067 0.0
H2215 H 0.79461 0.20324 0.79734 0.0
H2216 H 0.83244 0.20115 0.8394 0.0
C2217 C 0.81654 0.23171 0.88863 0.0
C2218 C 0.80049 0.22855 0.84468 0.0
C2219 C 0.81276 0.23714 0.90401 0.0
C2220 C 0.81711 0.20589 0.78135 0.0
C2221 C 0.81058 0.20741 0.79663 0.0
C2222 C 0.82357 0.2089 0.8407 0.0
C2223 C 0.80191 0.22603 0.87499 0.0
C2224 C 0.80664 0.22178 0.85838 0.0
C2225 C 0.82442 0.21394 0.81087 0.0
C2226 C 0.81769 0.21598 0.82711 0.0
H2227 H 0.76513 0.23095 0.89375 0.0
H2228 H 0.77135 0.2207 0.86713 0.0
H2229 H 0.82274 0.20591 0.8663 0.0
H2230 H 0.86758 0.22213 0.7936 0.0
H2231 H 0.85605 0.22436 0.82019 0.0
C2232 C 0.21838 0.08292 0.44669 0.0
C2233 C 0.22246 0.09847 0.43631 0.0
C2234 C 0.22732 0.08802 0.46281 0.0
C2235 C 0.25282 0.13126 0.49587 0.0
H2236 H 0.27026 0.09519 0.51432 0.0
C2237 C 0.29988 0.14982 0.55934 0.0
C2238 C 0.29351 0.13334 0.56914 0.0
C2239 C 0.29105 0.1464 0.54323 0.0
C2240 C 0.2653 0.10531 0.50939 0.0
H2241 H 0.23893 0.1316 0.43474 0.0
H2242 H 0.25499 0.14059 0.46297 0.0
H2243 H 0.25594 0.08804 0.4859 0.0
H2244 H 0.27276 0.10041 0.56977 0.0
H2245 H 0.25734 0.09444 0.54166 0.0
H2246 H 0.26257 0.14869 0.51945 0.0
C2247 C 0.24462 0.12443 0.45866 0.0
C2248 C 0.25705 0.1012 0.49309 0.0
C2249 C 0.23551 0.11931 0.44249 0.0
C2250 C 0.27787 0.11345 0.56257 0.0
C2251 C 0.2692 0.10999 0.54643 0.0
C2252 C 0.26125 0.13547 0.51218 0.0
C2253 C 0.24071 0.10881 0.469 0.0
C2254 C 0.25045 0.11396 0.48616 0.0
C2255 C 0.27584 0.12638 0.53654 0.0
C2256 C 0.26735 0.12238 0.51915 0.0
H2257 H 0.20799 0.06675 0.44239 0.0
H2258 H 0.22351 0.0756 0.4705 0.0
H2259 H 0.24771 0.14129 0.491 0.0
H2260 H 0.31179 0.16535 0.56412 0.0
H2261 H 0.29653 0.1593 0.53587 0.0
C2262 C 0.90337 0.15015 0.44509 0.0
C2263 C 0.90815 0.13449 0.44153 0.0
C2264 C 0.89571 0.15164 0.45984 0.0
C2265 C 0.87118 0.12132 0.49427 0.0
H2266 H 0.88959 0.17545 0.51696 0.0
C2267 C 0.85553 0.13204 0.56075 0.0
C2268 C 0.84875 0.14618 0.56422 0.0
C2269 C 0.86267 0.13081 0.5457 0.0
C2270 C 0.88417 0.16023 0.5107 0.0
H2271 H 0.90905 0.10839 0.45082 0.0
H2272 H 0.89599 0.11111 0.47657 0.0
H2273 H 0.90205 0.17287 0.4908 0.0
H2274 H 0.84455 0.17043 0.55473 0.0
H2275 H 0.85698 0.16826 0.52842 0.0
H2276 H 0.85354 0.10871 0.51431 0.0
C2277 C 0.89763 0.12195 0.46784 0.0
C2278 C 0.89126 0.15873 0.49567 0.0
C2279 C 0.90515 0.1204 0.45306 0.0
C2280 C 0.8495 0.15924 0.55237 0.0
C2281 C 0.85679 0.15813 0.53736 0.0
C2282 C 0.86421 0.12282 0.50933 0.0
C2283 C 0.89279 0.13758 0.47143 0.0
C2284 C 0.88491 0.13925 0.48727 0.0
C2285 C 0.86333 0.14381 0.53382 0.0
C2286 C 0.87066 0.14228 0.51774 0.0
H2287 H 0.90535 0.16113 0.43637 0.0
H2288 H 0.89188 0.16369 0.46208 0.0
H2289 H 0.86563 0.10606 0.48803 0.0
H2290 H 0.855 0.12166 0.56957 0.0
H2291 H 0.86779 0.11976 0.5434 0.0
C2292 C 0.86835 0.7601 0.45456 0.0
C2293 C 0.88626 0.77929 0.45361 0.0
C2294 C 0.86495 0.75057 0.46902 0.0
C2295 C 0.88056 0.7638 0.51345 0.0
H2296 H 0.84961 0.70416 0.51407 0.0
C2297 C 0.84376 0.726 0.57054 0.0
C2298 C 0.8429 0.70738 0.57382 0.0
C2299 C 0.85067 0.73462 0.55602 0.0
C2300 C 0.85852 0.72085 0.51418 0.0
H2301 H 0.91507 0.80304 0.46708 0.0
H2302 H 0.9096 0.786 0.49197 0.0
H2303 H 0.85963 0.71877 0.48834 0.0
H2304 H 0.84922 0.68353 0.56473 0.0
H2305 H 0.86173 0.69878 0.53955 0.0
H2306 H 0.87989 0.76591 0.53932 0.0
C2307 C 0.89787 0.77855 0.48166 0.0
C2308 C 0.86403 0.72924 0.49936 0.0
C2309 C 0.90118 0.78818 0.46725 0.0
C2310 C 0.84946 0.69776 0.56242 0.0
C2311 C 0.85656 0.70647 0.54797 0.0
C2312 C 0.87521 0.75541 0.52828 0.0
C2313 C 0.87948 0.75989 0.48288 0.0
C2314 C 0.8749 0.75084 0.49876 0.0
C2315 C 0.8571 0.72493 0.54451 0.0
C2316 C 0.86386 0.73383 0.52883 0.0
H2317 H 0.85667 0.75263 0.44422 0.0
H2318 H 0.85053 0.73629 0.46949 0.0
H2319 H 0.88869 0.7805 0.5135 0.0
H2320 H 0.83856 0.73362 0.579 0.0
H2321 H 0.85049 0.74863 0.55368 0.0
loop_
_geom_bond_atom_site_label_1
_geom_bond_atom_site_label_2
_geom_bond_distance
_geom_bond_site_symmetry_2
_ccdc_geom_bond_type
H0 C1 0.949 . S
C1 H0 0.949 . S
C1 C2 1.395 . S
C1 C3 1.391 . S
C2 C1 1.395 . S
C2 C5 1.390 . S
C3 C1 1.391 . S
C3 C7 1.387 . S
C3 C8 1.491 . S
H4 C5 0.950 . S
C5 C2 1.390 . S
C5 H4 0.950 . S
C5 C6 1.378 . S
C6 C5 1.378 . S
C6 C7 1.409 . S
C7 C3 1.387 . S
C7 C6 1.409 . S
C7 H9 0.951 . S
C8 C3 1.491 . S
C8 C10 1.382 . S
C8 C12 1.404 . S
H9 C7 0.951 . S
C10 C8 1.382 . S
C10 C11 1.390 . S
C10 H15 0.949 . S
C11 C10 1.390 . S
C11 C16 1.399 . S
C12 C8 1.404 . S
C12 H13 0.950 . S
C12 C14 1.375 . S
H13 C12 0.950 . S
C14 C12 1.375 . S
C14 C16 1.382 . S
C14 H18 0.950 . S
H15 C10 0.949 . S
C16 C11 1.399 . S
C16 C14 1.382 . S
C16 H17 0.952 . S
H17 C16 0.952 . S
H18 C14 0.950 . S
H19 C20 0.949 . S
C20 H19 0.949 . S
C20 C21 1.395 . S
C20 C22 1.391 . S
C21 C20 1.395 . S
C21 C24 1.390 . S
C22 C20 1.391 . S
C22 C26 1.387 . S
C22 C27 1.491 . S
H23 C24 0.950 . S
C24 C21 1.390 . S
C24 H23 0.950 . S
C24 C25 1.378 . S
C25 C24 1.378 . S
C25 C26 1.409 . S
C26 C22 1.387 . S
C26 C25 1.409 . S
C26 H28 0.951 . S
C27 C22 1.491 . S
C27 C29 1.382 . S
C27 C31 1.404 . S
H28 C26 0.951 . S
C29 C27 1.382 . S
C29 C30 1.390 . S
C29 H34 0.949 . S
C30 C29 1.390 . S
C30 C35 1.399 . S
C31 C27 1.404 . S
C31 H32 0.950 . S
C31 C33 1.375 . S
H32 C31 0.950 . S
C33 C31 1.375 . S
C33 C35 1.382 . S
C33 H37 0.950 . S
H34 C29 0.949 . S
C35 C30 1.399 . S
C35 C33 1.382 . S
C35 H36 0.952 . S
H36 C35 0.952 . S
H37 C33 0.950 . S
H38 C39 0.949 . S
C39 H38 0.949 . S
C39 C40 1.395 . S
C39 C41 1.391 . S
C40 C39 1.395 . S
C40 C43 1.390 . S
C41 C39 1.391 . S
C41 C45 1.387 . S
C41 C46 1.491 . S
H42 C43 0.950 . S
C43 C40 1.390 . S
C43 H42 0.950 . S
C43 C44 1.378 . S
C44 C43 1.378 . S
C44 C45 1.409 . S
C45 C41 1.387 . S
C45 C44 1.409 . S
C45 H47 0.951 . S
C46 C41 1.491 . S
C46 C48 1.382 . S
C46 C50 1.404 . S
H47 C45 0.951 . S
C48 C46 1.382 . S
C48 C49 1.390 . S
C48 H53 0.949 . S
C49 C48 1.390 . S
C49 C54 1.399 . S
C50 C46 1.404 . S
C50 H51 0.950 . S
C50 C52 1.375 . S
H51 C50 0.950 . S
C52 C50 1.375 . S
C52 C54 1.382 . S
C52 H56 0.950 . S
H53 C48 0.949 . S
C54 C49 1.399 . S
C54 C52 1.382 . S
C54 H55 0.952 . S
H55 C54 0.952 . S
H56 C52 0.950 . S
H57 C58 0.949 . S
C58 H57 0.949 . S
C58 C59 1.395 . S
C58 C60 1.391 . S
C59 C58 1.395 . S
C59 C62 1.390 . S
C60 C58 1.391 . S
C60 C64 1.387 . S
C60 C65 1.491 . S
H61 C62 0.950 . S
C62 C59 1.390 . S
C62 H61 0.950 . S
C62 C63 1.378 . S
C63 C62 1.378 . S
C63 C64 1.409 . S
C64 C60 1.387 . S
C64 C63 1.409 . S
C64 H66 0.951 . S
C65 C60 1.491 . S
C65 C67 1.382 . S
C65 C69 1.404 . S
H66 C64 0.951 . S
C67 C65 1.382 . S
C67 C68 1.390 . S
C67 H72 0.949 . S
C68 C67 1.390 . S
C68 C73 1.399 . S
C69 C65 1.404 . S
C69 H70 0.950 . S
C69 C71 1.375 . S
H70 C69 0.950 . S
C71 C69 1.375 . S
C71 C73 1.382 . S
C71 H75 0.950 . S
H72 C67 0.949 . S
C73 C68 1.399 . S
C73 C71 1.382 . S
C73 H74 0.952 . S
H74 C73 0.952 . S
H75 C71 0.950 . S
H76 C77 0.949 . S
C77 H76 0.949 . S
C77 C78 1.395 . S
C77 C79 1.391 . S
C78 C77 1.395 . S
C78 C81 1.390 . S
C79 C77 1.391 . S
C79 C83 1.387 . S
C79 C84 1.491 . S
H80 C81 0.950 . S
C81 C78 1.390 . S
C81 H80 0.950 . S
C81 C82 1.378 . S
C82 C81 1.378 . S
C82 C83 1.409 . S
C83 C79 1.387 . S
C83 C82 1.409 . S
C83 H85 0.951 . S
C84 C79 1.491 . S
C84 C86 1.382 . S
C84 C88 1.404 . S
H85 C83 0.951 . S
C86 C84 1.382 . S
C86 C87 1.390 . S
C86 H91 0.949 . S
C87 C86 1.390 . S
C87 C92 1.399 . S
C88 C84 1.404 . S
C88 H89 0.950 . S
C88 C90 1.375 . S
H89 C88 0.950 . S
C90 C88 1.375 . S
C90 C92 1.382 . S
C90 H94 0.950 . S
H91 C86 0.949 . S
C92 C87 1.399 . S
C92 C90 1.382 . S
C92 H93 0.952 . S
H93 C92 0.952 . S
H94 C90 0.950 . S
H95 C96 0.949 . S
C96 H95 0.949 . S
C96 C97 1.395 . S
C96 C98 1.391 . S
C97 C96 1.395 . S
C97 C100 1.390 . S
C98 C96 1.391 . S
C98 C102 1.387 . S
C98 C103 1.491 . S
H99 C100 0.950 . S
C100 C97 1.390 . S
C100 H99 0.950 . S
C100 C101 1.378 . S
C101 C100 1.378 . S
C101 C102 1.409 . S
C102 C98 1.387 . S
C102 C101 1.409 . S
C102 H104 0.951 . S
C103 C98 1.491 . S
C103 C105 1.382 . S
C103 C107 1.404 . S
H104 C102 0.951 . S
C105 C103 1.382 . S
C105 C106 1.390 . S
C105 H110 0.949 . S
C106 C105 1.390 . S
C106 C111 1.399 . S
C107 C103 1.404 . S
C107 H108 0.950 . S
C107 C109 1.375 . S
H108 C107 0.950 . S
C109 C107 1.375 . S
C109 C111 1.382 . S
C109 H113 0.950 . S
H110 C105 0.949 . S
C111 C106 1.399 . S
C111 C109 1.382 . S
C111 H112 0.952 . S
H112 C111 0.952 . S
H113 C109 0.950 . S
H114 C115 0.949 . S
C115 H114 0.949 . S
C115 C116 1.395 . S
C115 C117 1.391 . S
C116 C115 1.395 . S
C116 C119 1.390 . S
C117 C115 1.391 . S
C117 C121 1.387 . S
C117 C122 1.491 . S
H118 C119 0.950 . S
C119 C116 1.390 . S
C119 H118 0.950 . S
C119 C120 1.378 . S
C120 C119 1.378 . S
C120 C121 1.409 . S
C121 C117 1.387 . S
C121 C120 1.409 . S
C121 H123 0.951 . S
C122 C117 1.491 . S
C122 C124 1.382 . S
C122 C126 1.404 . S
H123 C121 0.951 . S
C124 C122 1.382 . S
C124 C125 1.390 . S
C124 H129 0.949 . S
C125 C124 1.390 . S
C125 C130 1.399 . S
C126 C122 1.404 . S
C126 H127 0.950 . S
C126 C128 1.375 . S
H127 C126 0.950 . S
C128 C126 1.375 . S
C128 C130 1.382 . S
C128 H132 0.950 . S
H129 C124 0.949 . S
C130 C125 1.399 . S
C130 C128 1.382 . S
C130 H131 0.952 . S
H131 C130 0.952 . S
H132 C128 0.950 . S
H133 C134 0.949 . S
C134 H133 0.949 . S
C134 C135 1.395 . S
C134 C136 1.391 . S
C135 C134 1.395 . S
C135 C138 1.390 . S
C136 C134 1.391 . S
C136 C140 1.387 . S
C136 C141 1.491 . S
H137 C138 0.950 . S
C138 C135 1.390 . S
C138 H137 0.950 . S
C138 C139 1.378 . S
C139 C138 1.378 . S
C139 C140 1.409 . S
C140 C136 1.387 . S
C140 C139 1.409 . S
C140 H142 0.951 . S
C141 C136 1.491 . S
C141 C143 1.382 . S
C141 C145 1.404 . S
H142 C140 0.951 . S
C143 C141 1.382 . S
C143 C144 1.390 . S
C143 H148 0.949 . S
C144 C143 1.390 . S
C144 C149 1.399 . S
C145 C141 1.404 . S
C145 H146 0.950 . S
C145 C147 1.375 . S
H146 C145 0.950 . S
C147 C145 1.375 . S
C147 C149 1.382 . S
C147 H151 0.950 . S
H148 C143 0.949 . S
C149 C144 1.399 . S
C149 C147 1.382 . S
C149 H150 0.952 . S
H150 C149 0.952 . S
H151 C147 0.950 . S
H152 C153 0.949 . S
C153 H152 0.949 . S
C153 C154 1.395 . S
C153 C155 1.391 . S
C154 C153 1.395 . S
C154 C157 1.390 . S
C155 C153 1.391 . S
C155 C159 1.387 . S
C155 C160 1.491 . S
H156 C157 0.950 . S
C157 C154 1.390 . S
C157 H156 0.950 . S
C157 C158 1.378 . S
C158 C157 1.378 . S
C158 C159 1.409 . S
C159 C155 1.387 . S
C159 C158 1.409 . S
C159 H161 0.951 . S
C160 C155 1.491 . S
C160 C162 1.382 . S
C160 C164 1.404 . S
H161 C159 0.951 . S
C162 C160 1.382 . S
C162 C163 1.390 . S
C162 H167 0.949 . S
C163 C162 1.390 . S
C163 C168 1.399 . S
C164 C160 1.404 . S
C164 H165 0.950 . S
C164 C166 1.375 . S
H165 C164 0.950 . S
C166 C164 1.375 . S
C166 C168 1.382 . S
C166 H170 0.950 . S
H167 C162 0.949 . S
C168 C163 1.399 . S
C168 C166 1.382 . S
C168 H169 0.952 . S
H169 C168 0.952 . S
H170 C166 0.950 . S
H171 C172 0.949 . S
C172 H171 0.949 . S
C172 C173 1.395 . S
C172 C174 1.391 . S
C173 C172 1.395 . S
C173 C176 1.390 . S
C174 C172 1.391 . S
C174 C178 1.387 . S
C174 C179 1.491 . S
H175 C176 0.950 . S
C176 C173 1.390 . S
C176 H175 0.950 . S
C176 C177 1.378 . S
C177 C176 1.378 . S
C177 C178 1.409 . S
C178 C174 1.387 . S
C178 C177 1.409 . S
C178 H180 0.951 . S
C179 C174 1.491 . S
C179 C181 1.382 . S
C179 C183 1.404 . S
H180 C178 0.951 . S
C181 C179 1.382 . S
C181 C182 1.390 . S
C181 H186 0.949 . S
C182 C181 1.390 . S
C182 C187 1.399 . S
C183 C179 1.404 . S
C183 H184 0.950 . S
C183 C185 1.375 . S
H184 C183 0.950 . S
C185 C183 1.375 . S
C185 C187 1.382 . S
C185 H189 0.950 . S
H186 C181 0.949 . S
C187 C182 1.399 . S
C187 C185 1.382 . S
C187 H188 0.952 . S
H188 C187 0.952 . S
H189 C185 0.950 . S
H190 C191 0.949 . S
C191 H190 0.949 . S
C191 C192 1.395 . S
C191 C193 1.391 . S
C192 C191 1.395 . S
C192 C195 1.390 . S
C193 C191 1.391 . S
C193 C197 1.387 . S
C193 C198 1.491 . S
H194 C195 0.950 . S
C195 C192 1.390 . S
C195 H194 0.950 . S
C195 C196 1.378 . S
C196 C195 1.378 . S
C196 C197 1.409 . S
C197 C193 1.387 . S
C197 C196 1.409 . S
C197 H199 0.951 1_556 S
C198 C193 1.491 . S
C198 C200 1.382 . S
C198 C202 1.404 1_556 S
H199 C197 0.951 1_554 S
C200 C198 1.382 . S
C200 C201 1.378 1_556 S
C200 H205 0.949 . S
C201 C200 1.378 1_554 S
C201 C206 1.414 . S
C202 C198 1.404 1_554 S
C202 H203 0.950 . S
C202 C204 1.375 . S
H203 C202 0.950 . S
C204 C202 1.375 . S
C204 C206 1.382 . S
C204 H208 0.950 . S
H205 C200 0.949 . S
C206 C201 1.414 . S
C206 C204 1.382 . S
C206 H207 0.952 . S
H207 C206 0.952 . S
H208 C204 0.950 . S
H209 C210 0.949 . S
C210 H209 0.949 . S
C210 C211 1.395 . S
C210 C212 1.391 . S
C211 C210 1.395 . S
C211 C214 1.390 . S
C212 C210 1.391 . S
C212 C216 1.387 . S
C212 C217 1.491 . S
H213 C214 0.950 . S
C214 C211 1.390 . S
C214 H213 0.950 . S
C214 C215 1.378 . S
C215 C214 1.378 . S
C215 C216 1.409 . S
C216 C212 1.387 . S
C216 C215 1.409 . S
C216 H218 0.951 . S
C217 C212 1.491 . S
C217 C219 1.382 . S
C217 C221 1.404 . S
H218 C216 0.951 . S
C219 C217 1.382 . S
C219 C220 1.390 . S
C219 H224 0.949 . S
C220 C219 1.390 . S
C220 C225 1.399 . S
C221 C217 1.404 . S
C221 H222 0.950 . S
C221 C223 1.375 . S
H222 C221 0.950 . S
C223 C221 1.375 . S
C223 C225 1.382 . S
C223 H227 0.950 . S
H224 C219 0.949 . S
C225 C220 1.399 . S
C225 C223 1.382 . S
C225 H226 0.952 . S
H226 C225 0.952 . S
H227 C223 0.950 . S
H228 C229 0.949 . S
C229 H228 0.949 . S
C229 C230 1.395 . S
C229 C231 1.391 . S
C230 C229 1.395 . S
C230 C233 1.390 . S
C231 C229 1.391 . S
C231 C235 1.387 . S
C231 C236 1.491 . S
H232 C233 0.950 . S
C233 C230 1.390 . S
C233 H232 0.950 . S
C233 C234 1.378 . S
C234 C233 1.378 . S
C234 C235 1.409 . S
C235 C231 1.387 . S
C235 C234 1.409 . S
C235 H237 0.951 . S
C236 C231 1.491 . S
C236 C238 1.382 . S
C236 C240 1.404 . S
H237 C235 0.951 . S
C238 C236 1.382 . S
C238 C239 1.390 . S
C238 H243 0.949 . S
C239 C238 1.390 . S
C239 C244 1.399 . S
C240 C236 1.404 . S
C240 H241 0.950 . S
C240 C242 1.375 . S
H241 C240 0.950 . S
C242 C240 1.375 . S
C242 C244 1.382 . S
C242 H246 0.950 . S
H243 C238 0.949 . S
C244 C239 1.399 . S
C244 C242 1.382 . S
C244 H245 0.952 . S
H245 C244 0.952 . S
H246 C242 0.950 . S
H247 C248 0.949 . S
C248 H247 0.949 . S
C248 C249 1.395 . S
C248 C250 1.391 . S
C249 C248 1.395 . S
C249 C252 1.390 . S
C250 C248 1.391 . S
C250 C254 1.387 . S
C250 C255 1.491 . S
H251 C252 0.950 . S
C252 C249 1.390 . S
C252 H251 0.950 . S
C252 C253 1.378 . S
C253 C252 1.378 . S
C253 C254 1.409 . S
C254 C250 1.387 . S
C254 C253 1.409 . S
C254 H256 0.951 . S
C255 C250 1.491 . S
C255 C257 1.382 . S
C255 C259 1.404 . S
H256 C254 0.951 . S
C257 C255 1.382 . S
C257 C258 1.390 . S
C257 H262 0.949 . S
C258 C257 1.390 . S
C258 C263 1.399 . S
C259 C255 1.404 . S
C259 H260 0.950 . S
C259 C261 1.375 . S
H260 C259 0.950 . S
C261 C259 1.375 . S
C261 C263 1.382 . S
C261 H265 0.950 . S
H262 C257 0.949 . S
C263 C258 1.399 . S
C263 C261 1.382 . S
C263 H264 0.952 . S
H264 C263 0.952 . S
H265 C261 0.950 . S
H266 C267 0.949 . S
C267 H266 0.949 . S
C267 C268 1.395 . S
C267 C269 1.391 . S
C268 C267 1.395 . S
C268 C271 1.390 . S
C269 C267 1.391 . S
C269 C273 1.387 . S
C269 C274 1.491 . S
H270 C271 0.950 . S
C271 C268 1.390 . S
C271 H270 0.950 . S
C271 C272 1.378 . S
C272 C271 1.378 . S
C272 C273 1.409 . S
C273 C269 1.387 . S
C273 C272 1.409 . S
C273 H275 0.951 . S
C274 C269 1.491 . S
C274 C276 1.382 . S
C274 C278 1.404 . S
H275 C273 0.951 . S
C276 C274 1.382 . S
C276 C277 1.390 . S
C276 H281 0.949 . S
C277 C276 1.390 . S
C277 C282 1.399 . S
C278 C274 1.404 . S
C278 H279 0.950 . S
C278 C280 1.375 . S
H279 C278 0.950 . S
C280 C278 1.375 . S
C280 C282 1.382 . S
C280 H284 0.950 . S
H281 C276 0.949 . S
C282 C277 1.399 . S
C282 C280 1.382 . S
C282 H283 0.952 . S
H283 C282 0.952 . S
H284 C280 0.950 . S
H285 C286 0.949 . S
C286 H285 0.949 . S
C286 C287 1.395 . S
C286 C288 1.391 . S
C287 C286 1.395 . S
C287 C290 1.390 . S
C288 C286 1.391 . S
C288 C292 1.387 . S
C288 C293 1.491 . S
H289 C290 0.950 . S
C290 C287 1.390 . S
C290 H289 0.950 . S
C290 C291 1.378 . S
C291 C290 1.378 . S
C291 C292 1.409 . S
C292 C288 1.387 . S
C292 C291 1.409 . S
C292 H294 0.951 . S
C293 C288 1.491 . S
C293 C295 1.382 . S
C293 C297 1.404 . S
H294 C292 0.951 . S
C295 C293 1.382 . S
C295 C296 1.390 . S
C295 H300 0.949 . S
C296 C295 1.390 . S
C296 C301 1.399 . S
C297 C293 1.404 . S
C297 H298 0.950 . S
C297 C299 1.375 . S
H298 C297 0.950 . S
C299 C297 1.375 . S
C299 C301 1.382 . S
C299 H303 0.950 . S
H300 C295 0.949 . S
C301 C296 1.399 . S
C301 C299 1.382 . S
C301 H302 0.952 . S
H302 C301 0.952 . S
H303 C299 0.950 . S
H304 C305 0.949 . S
C305 H304 0.949 . S
C305 C306 1.395 . S
C305 C307 1.391 . S
C306 C305 1.395 . S
C306 C309 1.390 . S
C307 C305 1.391 . S
C307 C311 1.387 . S
C307 C312 1.491 . S
H308 C309 0.950 . S
C309 C306 1.390 . S
C309 H308 0.950 . S
C309 C310 1.378 . S
C310 C309 1.378 . S
C310 C311 1.409 . S
C311 C307 1.387 . S
C311 C310 1.409 . S
C311 H313 0.951 . S
C312 C307 1.491 . S
C312 C314 1.382 . S
C312 C316 1.404 . S
H313 C311 0.951 . S
C314 C312 1.382 . S
C314 C315 1.390 . S
C314 H319 0.949 . S
C315 C314 1.390 . S
C315 C320 1.399 . S
C316 C312 1.404 . S
C316 H317 0.950 . S
C316 C318 1.375 . S
H317 C316 0.950 . S
C318 C316 1.375 . S
C318 C320 1.382 . S
C318 H322 0.950 . S
H319 C314 0.949 . S
C320 C315 1.399 . S
C320 C318 1.382 . S
C320 H321 0.952 . S
H321 C320 0.952 . S
H322 C318 0.950 . S
H323 C324 0.949 . S
C324 H323 0.949 . S
C324 C325 1.395 . S
C324 C326 1.391 . S
C325 C324 1.395 . S
C325 C328 1.390 . S
C326 C324 1.391 . S
C326 C330 1.387 . S
C326 C331 1.491 . S
H327 C328 0.950 . S
C328 C325 1.390 . S
C328 H327 0.950 . S
C328 C329 1.378 . S
C329 C328 1.378 . S
C329 C330 1.409 . S
C330 C326 1.387 . S
C330 C329 1.409 . S
C330 H332 0.951 . S
C331 C326 1.491 . S
C331 C333 1.382 . S
C331 C335 1.404 . S
H332 C330 0.951 . S
C333 C331 1.382 . S
C333 C334 1.390 . S
C333 H338 0.949 . S
C334 C333 1.390 . S
C334 C339 1.399 . S
C335 C331 1.404 . S
C335 H336 0.950 . S
C335 C337 1.375 . S
H336 C335 0.950 . S
C337 C335 1.375 . S
C337 C339 1.382 . S
C337 H341 0.950 . S
H338 C333 0.949 . S
C339 C334 1.399 . S
C339 C337 1.382 . S
C339 H340 0.952 . S
H340 C339 0.952 . S
H341 C337 0.950 . S
C342 Eu343 2.835 1_565 S
C342 C344 1.500 . S
C342 O362 1.257 . S
C342 O363 1.260 1_565 S
Eu343 C342 2.835 1_545 S
Eu343 O362 2.473 1_545 S
Eu343 O363 2.480 . S
Eu343 O364 2.430 . S
Eu343 O365 2.717 . S
Eu343 O366 2.394 1_545 S
Eu343 O371 2.355 1_545 S
Eu343 O373 2.374 . S
C344 C342 1.500 . S
C344 C345 1.377 . S
C344 C349 1.377 . S
C345 C344 1.377 . S
C345 C346 1.395 . S
C345 H374 0.931 1_565 S
C346 C345 1.395 . S
C346 C347 1.383 . S
C346 H375 0.943 . S
C347 C346 1.383 . S
C347 C348 1.394 . S
C348 C347 1.394 . S
C348 C349 1.378 . S
C348 H376 0.931 . S
C349 C344 1.377 . S
C349 C348 1.378 . S
C349 H377 0.931 . S
C350 O364 1.259 . S
C350 O365 1.296 . S
C351 O366 1.251 . S
C351 O367 1.251 1_554 S
C352 Eu353 2.835 1_545 S
C352 C354 1.500 . S
C352 O368 1.257 . S
C352 O369 1.260 1_545 S
Eu353 C352 2.835 1_565 S
Eu353 O365 2.324 1_566 S
Eu353 O367 2.374 . S
Eu353 O368 2.473 1_565 S
Eu353 O369 2.480 . S
Eu353 O370 2.430 . S
Eu353 O371 2.670 1_556 S
Eu353 O372 2.394 1_565 S
C354 C352 1.500 . S
C354 C355 1.377 . S
C354 C359 1.377 . S
C355 C354 1.377 . S
C355 C356 1.395 . S
C355 H378 0.931 1_545 S
C356 C355 1.395 . S
C356 C357 1.383 . S
C356 H379 0.931 . S
C357 C356 1.383 . S
C357 C358 1.394 . S
C358 C357 1.394 . S
C358 C359 1.378 . S
C358 H380 0.931 . S
C359 C354 1.377 . S
C359 C358 1.378 . S
C359 H381 0.931 . S
C360 O370 1.259 1_554 S
C360 O371 1.270 . S
C361 O372 1.272 . S
C361 O373 1.218 1_556 S
O362 C342 1.257 . S
O362 Eu343 2.473 1_565 S
O363 C342 1.260 1_545 S
O363 Eu343 2.480 . S
O364 Eu343 2.430 . S
O364 C350 1.259 . S
O365 Eu343 2.717 . S
O365 C350 1.296 . S
O365 Eu353 2.324 1_544 S
O366 Eu343 2.394 1_565 S
O366 C351 1.251 . S
O367 C351 1.251 1_556 S
O367 Eu353 2.374 . S
O368 C352 1.257 . S
O368 Eu353 2.473 1_545 S
O369 C352 1.260 1_565 S
O369 Eu353 2.480 . S
O370 Eu353 2.430 . S
O370 C360 1.259 1_556 S
O371 Eu343 2.355 1_565 S
O371 Eu353 2.670 1_554 S
O371 C360 1.270 . S
O372 Eu353 2.394 1_545 S
O372 C361 1.272 . S
O373 Eu343 2.374 . S
O373 C361 1.218 1_554 S
H374 C345 0.931 1_545 S
H375 C346 0.943 . S
H376 C348 0.931 . S
H377 C349 0.931 . S
H378 C355 0.931 1_565 S
H379 C356 0.931 . S
H380 C358 0.931 . S
H381 C359 0.931 . S
C382 Eu383 2.835 1_455 S
C382 C384 1.500 . S
C382 O402 1.257 . S
C382 O403 1.260 1_455 S
Eu383 C382 2.835 1_655 S
Eu383 O402 2.473 1_655 S
Eu383 O403 2.480 . S
Eu383 O404 2.430 . S
Eu383 O405 2.670 1_554 S
Eu383 O406 2.394 1_655 S
Eu383 O411 2.355 1_655 S
Eu383 O413 2.374 . S
C384 C382 1.500 . S
C384 C385 1.377 . S
C384 C389 1.377 . S
C385 C384 1.377 . S
C385 C386 1.395 . S
C385 H414 0.931 1_455 S
C386 C385 1.395 . S
C386 C387 1.383 . S
C386 H415 0.931 . S
C387 C386 1.383 . S
C387 C388 1.394 . S
C388 C387 1.394 . S
C388 C389 1.378 . S
C388 H416 0.931 . S
C389 C384 1.377 . S
C389 C388 1.378 . S
C389 H417 0.931 . S
C390 O404 1.259 . S
C390 O405 1.270 1_554 S
C391 O406 1.251 . S
C391 O407 1.251 . S
C392 Eu393 2.835 1_655 S
C392 C394 1.500 . S
C392 O408 1.257 . S
C392 O409 1.260 1_655 S
Eu393 C392 2.835 1_455 S
Eu393 O405 2.355 1_455 S
Eu393 O407 2.374 1_556 S
Eu393 O408 2.473 1_455 S
Eu393 O409 2.480 . S
Eu393 O410 2.430 . S
Eu393 O411 2.670 1_556 S
Eu393 O412 2.394 1_455 S
C394 C392 1.500 . S
C394 C395 1.377 . S
C394 C399 1.377 . S
C395 C394 1.377 . S
C395 C396 1.395 . S
C395 H418 0.931 1_655 S
C396 C395 1.395 . S
C396 C397 1.383 . S
C396 H419 0.931 . S
C397 C396 1.383 . S
C397 C398 1.394 . S
C398 C397 1.394 . S
C398 C399 1.378 . S
C398 H420 0.931 . S
C399 C394 1.377 . S
C399 C398 1.378 . S
C399 H421 0.931 . S
C400 O410 1.259 1_554 S
C400 O411 1.270 . S
C401 O412 1.251 . S
C401 O413 1.251 1_556 S
O402 C382 1.257 . S
O402 Eu383 2.473 1_455 S
O403 C382 1.260 1_655 S
O403 Eu383 2.480 . S
O404 Eu383 2.430 . S
O404 C390 1.259 . S
O405 Eu383 2.670 1_556 S
O405 C390 1.270 1_556 S
O405 Eu393 2.355 1_655 S
O406 Eu383 2.394 1_455 S
O406 C391 1.251 . S
O407 C391 1.251 . S
O407 Eu393 2.374 1_554 S
O408 C392 1.257 . S
O408 Eu393 2.473 1_655 S
O409 C392 1.260 1_455 S
O409 Eu393 2.480 . S
O410 Eu393 2.430 . S
O410 C400 1.259 1_556 S
O411 Eu383 2.355 1_455 S
O411 Eu393 2.670 1_554 S
O411 C400 1.270 . S
O412 Eu393 2.394 1_655 S
O412 C401 1.251 . S
O413 Eu383 2.374 . S
O413 C401 1.251 1_554 S
H414 C385 0.931 1_655 S
H415 C386 0.931 . S
H416 C388 0.931 . S
H417 C389 0.931 . S
H418 C395 0.931 1_455 S
H419 C396 0.931 . S
H420 C398 0.931 . S
H421 C399 0.931 . S
C422 Eu423 2.835 . S
C422 C424 1.500 . S
C422 O442 1.257 . S
C422 O443 1.260 . S
Eu423 C422 2.835 . S
Eu423 O442 2.473 . S
Eu423 O443 2.480 . S
Eu423 O444 2.430 . S
Eu423 O445 2.670 1_556 S
Eu423 O446 2.394 . S
Eu423 O451 2.355 1_556 S
Eu423 O453 2.374 1_556 S
C424 C422 1.500 . S
C424 C425 1.377 . S
C424 C429 1.377 . S
C425 C424 1.377 . S
C425 C426 1.395 . S
C425 H454 0.931 . S
C426 C425 1.395 . S
C426 C427 1.383 . S
C426 H455 0.931 . S
C427 C426 1.383 . S
C427 C428 1.394 . S
C428 C427 1.394 . S
C428 C429 1.378 . S
C428 H456 0.931 . S
C429 C424 1.377 . S
C429 C428 1.378 . S
C429 H457 0.931 . S
C430 O444 1.259 1_554 S
C430 O445 1.270 . S
C431 O446 1.251 1_554 S
C431 O447 1.251 . S
C432 Eu433 2.835 . S
C432 C434 1.500 . S
C432 O448 1.257 . S
C432 O449 1.260 . S
Eu433 C432 2.835 . S
Eu433 O445 2.355 . S
Eu433 O447 2.374 . S
Eu433 O448 2.473 . S
Eu433 O449 2.480 . S
Eu433 O450 2.430 . S
Eu433 O451 2.670 . S
Eu433 O452 2.394 . S
C434 C432 1.500 . S
C434 C435 1.377 . S
C434 C439 1.377 . S
C435 C434 1.377 . S
C435 C436 1.395 . S
C435 H458 0.931 . S
C436 C435 1.395 . S
C436 C437 1.383 . S
C436 H459 0.931 . S
C437 C436 1.383 . S
C437 C438 1.394 . S
C438 C437 1.394 . S
C438 C439 1.378 . S
C438 H460 0.931 . S
C439 C434 1.377 . S
C439 C438 1.378 . S
C439 H461 0.931 . S
C440 O450 1.259 . S
C440 O451 1.270 . S
C441 O452 1.251 . S
C441 O453 1.251 . S
O442 C422 1.257 . S
O442 Eu423 2.473 . S
O443 C422 1.260 . S
O443 Eu423 2.480 . S
O444 Eu423 2.430 . S
O444 C430 1.259 1_556 S
O445 Eu423 2.670 1_554 S
O445 C430 1.270 . S
O445 Eu433 2.355 . S
O446 Eu423 2.394 . S
O446 C431 1.251 1_556 S
O447 C431 1.251 . S
O447 Eu433 2.374 . S
O448 C432 1.257 . S
O448 Eu433 2.473 . S
O449 C432 1.260 . S
O449 Eu433 2.480 . S
O450 Eu433 2.430 . S
O450 C440 1.259 . S
O451 Eu423 2.355 1_554 S
O451 Eu433 2.670 . S
O451 C440 1.270 . S
O452 Eu433 2.394 . S
O452 C441 1.251 . S
O453 Eu423 2.374 1_554 S
O453 C441 1.251 . S
H454 C425 0.931 . S
H455 C426 0.931 . S
H456 C428 0.931 . S
H457 C429 0.931 . S
H458 C435 0.931 . S
H459 C436 0.931 . S
H460 C438 0.931 . S
H461 C439 0.931 . S
C462 Eu463 2.835 . S
C462 C464 1.500 . S
C462 O482 1.257 . S
C462 O483 1.260 . S
Eu463 C462 2.835 . S
Eu463 O482 2.473 . S
Eu463 O483 2.480 . S
Eu463 O484 2.430 . S
Eu463 O485 2.670 . S
Eu463 O486 2.394 . S
Eu463 O491 2.355 . S
Eu463 O493 2.374 . S
C464 C462 1.500 . S
C464 C465 1.377 . S
C464 C469 1.377 . S
C465 C464 1.377 . S
C465 C466 1.395 . S
C465 H494 0.931 . S
C466 C465 1.395 . S
C466 C467 1.383 . S
C466 H495 0.931 . S
C467 C466 1.383 . S
C467 C468 1.394 . S
C468 C467 1.394 . S
C468 C469 1.378 . S
C468 H496 0.931 . S
C469 C464 1.377 . S
C469 C468 1.378 . S
C469 H497 0.931 . S
C470 O484 1.259 . S
C470 O485 1.270 . S
C471 O486 1.251 . S
C471 O487 1.251 . S
C472 Eu473 2.835 . S
C472 C474 1.500 . S
C472 O488 1.257 . S
C472 O489 1.260 . S
Eu473 C472 2.835 . S
Eu473 O485 2.355 . S
Eu473 O487 2.374 . S
Eu473 O488 2.473 . S
Eu473 O489 2.480 . S
Eu473 O490 2.430 . S
Eu473 O491 2.670 . S
Eu473 O492 2.394 . S
C474 C472 1.500 . S
C474 C475 1.377 . S
C474 C479 1.377 . S
C475 C474 1.377 . S
C475 C476 1.395 . S
C475 H498 0.931 . S
C476 C475 1.395 . S
C476 C477 1.383 . S
C476 H499 0.931 . S
C477 C476 1.383 . S
C477 C478 1.394 . S
C478 C477 1.394 . S
C478 C479 1.378 . S
C478 H500 0.931 . S
C479 C474 1.377 . S
C479 C478 1.378 . S
C479 H501 0.931 . S
C480 O490 1.259 . S
C480 O491 1.270 . S
C481 O492 1.251 . S
C481 O493 1.251 . S
O482 C462 1.257 . S
O482 Eu463 2.473 . S
O483 C462 1.260 . S
O483 Eu463 2.480 . S
O484 Eu463 2.430 . S
O484 C470 1.259 . S
O485 Eu463 2.670 . S
O485 C470 1.270 . S
O485 Eu473 2.355 . S
O486 Eu463 2.394 . S
O486 C471 1.251 . S
O487 C471 1.251 . S
O487 Eu473 2.374 . S
O488 C472 1.257 . S
O488 Eu473 2.473 . S
O489 C472 1.260 . S
O489 Eu473 2.480 . S
O490 Eu473 2.430 . S
O490 C480 1.259 . S
O491 Eu463 2.355 . S
O491 Eu473 2.670 . S
O491 C480 1.270 . S
O492 Eu473 2.394 . S
O492 C481 1.251 . S
O493 Eu463 2.374 . S
O493 C481 1.251 . S
H494 C465 0.931 . S
H495 C466 0.931 . S
H496 C468 0.931 . S
H497 C469 0.931 . S
H498 C475 0.931 . S
H499 C476 0.931 . S
H500 C478 0.931 . S
H501 C479 0.931 . S
C502 Eu503 2.835 . S
C502 C504 1.500 . S
C502 O522 1.257 . S
C502 O523 1.260 . S
Eu503 C502 2.835 . S
Eu503 O522 2.473 . S
Eu503 O523 2.480 . S
Eu503 O524 2.430 . S
Eu503 O525 2.670 . S
Eu503 O526 2.394 . S
Eu503 O531 2.355 . S
Eu503 O533 2.374 . S
C504 C502 1.500 . S
C504 C505 1.377 . S
C504 C509 1.377 . S
C505 C504 1.377 . S
C505 C506 1.395 . S
C505 H534 0.931 . S
C506 C505 1.395 . S
C506 C507 1.383 . S
C506 H535 0.931 . S
C507 C506 1.383 . S
C507 C508 1.394 . S
C508 C507 1.394 . S
C508 C509 1.378 . S
C508 H536 0.931 . S
C509 C504 1.377 . S
C509 C508 1.378 . S
C509 H537 0.931 . S
C510 O524 1.259 . S
C510 O525 1.270 . S
C511 O526 1.251 . S
C511 O527 1.251 . S
C512 Eu513 2.835 . S
C512 C514 1.500 . S
C512 O528 1.257 . S
C512 O529 1.260 . S
Eu513 C512 2.835 . S
Eu513 O525 2.355 . S
Eu513 O527 2.374 . S
Eu513 O528 2.473 . S
Eu513 O529 2.480 . S
Eu513 O530 2.430 . S
Eu513 O531 2.670 . S
Eu513 O532 2.394 . S
C514 C512 1.500 . S
C514 C515 1.377 . S
C514 C519 1.377 . S
C515 C514 1.377 . S
C515 C516 1.395 . S
C515 H538 0.931 . S
C516 C515 1.395 . S
C516 C517 1.383 . S
C516 H539 0.931 . S
C517 C516 1.383 . S
C517 C518 1.394 . S
C518 C517 1.394 . S
C518 C519 1.378 . S
C518 H540 0.931 . S
C519 C514 1.377 . S
C519 C518 1.378 . S
C519 H541 0.931 . S
C520 O530 1.259 . S
C520 O531 1.270 . S
C521 O532 1.251 . S
C521 O533 1.251 . S
O522 C502 1.257 . S
O522 Eu503 2.473 . S
O523 C502 1.260 . S
O523 Eu503 2.480 . S
O524 Eu503 2.430 . S
O524 C510 1.259 . S
O525 Eu503 2.670 . S
O525 C510 1.270 . S
O525 Eu513 2.355 . S
O526 Eu503 2.394 . S
O526 C511 1.251 . S
O527 C511 1.251 . S
O527 Eu513 2.374 . S
O528 C512 1.257 . S
O528 Eu513 2.473 . S
O529 C512 1.260 . S
O529 Eu513 2.480 . S
O530 Eu513 2.430 . S
O530 C520 1.259 . S
O531 Eu503 2.355 . S
O531 Eu513 2.670 . S
O531 C520 1.270 . S
O532 Eu513 2.394 . S
O532 C521 1.251 . S
O533 Eu503 2.374 . S
O533 C521 1.251 . S
H534 C505 0.931 . S
H535 C506 0.931 . S
H536 C508 0.931 . S
H537 C509 0.931 . S
H538 C515 0.931 . S
H539 C516 0.931 . S
H540 C518 0.931 . S
H541 C519 0.931 . S
C542 Eu543 2.835 . S
C542 C544 1.500 . S
C542 O562 1.257 . S
C542 O563 1.260 . S
Eu543 C542 2.835 . S
Eu543 O562 2.473 . S
Eu543 O563 2.480 . S
Eu543 O564 2.430 . S
Eu543 O565 2.670 . S
Eu543 O566 2.394 . S
Eu543 O571 2.355 . S
Eu543 O573 2.374 . S
C544 C542 1.500 . S
C544 C545 1.377 . S
C544 C549 1.377 . S
C545 C544 1.377 . S
C545 C546 1.395 . S
C545 H574 0.931 . S
C546 C545 1.395 . S
C546 C547 1.383 . S
C546 H575 0.931 . S
C547 C546 1.383 . S
C547 C548 1.394 . S
C548 C547 1.394 . S
C548 C549 1.378 . S
C548 H576 0.931 . S
C549 C544 1.377 . S
C549 C548 1.378 . S
C549 H577 0.931 . S
C550 O564 1.259 . S
C550 O565 1.270 . S
C551 O566 1.251 . S
C551 O567 1.251 . S
C552 Eu553 2.835 . S
C552 C554 1.500 . S
C552 O568 1.257 . S
C552 O569 1.260 . S
Eu553 C552 2.835 . S
Eu553 O565 2.355 . S
Eu553 O567 2.374 . S
Eu553 O568 2.473 . S
Eu553 O569 2.480 . S
Eu553 O570 2.430 . S
Eu553 O571 2.670 . S
Eu553 O572 2.394 . S
C554 C552 1.500 . S
C554 C555 1.377 . S
C554 C559 1.377 . S
C555 C554 1.377 . S
C555 C556 1.395 . S
C555 H578 0.931 . S
C556 C555 1.395 . S
C556 C557 1.383 . S
C556 H579 0.931 . S
C557 C556 1.383 . S
C557 C558 1.394 . S
C558 C557 1.394 . S
C558 C559 1.378 . S
C558 H580 0.931 . S
C559 C554 1.377 . S
C559 C558 1.378 . S
C559 H581 0.931 . S
C560 O570 1.259 . S
C560 O571 1.270 . S
C561 O572 1.251 . S
C561 O573 1.251 . S
O562 C542 1.257 . S
O562 Eu543 2.473 . S
O563 C542 1.260 . S
O563 Eu543 2.480 . S
O564 Eu543 2.430 . S
O564 C550 1.259 . S
O565 Eu543 2.670 . S
O565 C550 1.270 . S
O565 Eu553 2.355 . S
O566 Eu543 2.394 . S
O566 C551 1.251 . S
O567 C551 1.251 . S
O567 Eu553 2.374 . S
O568 C552 1.257 . S
O568 Eu553 2.473 . S
O569 C552 1.260 . S
O569 Eu553 2.480 . S
O570 Eu553 2.430 . S
O570 C560 1.259 . S
O571 Eu543 2.355 . S
O571 Eu553 2.670 . S
O571 C560 1.270 . S
O572 Eu553 2.394 . S
O572 C561 1.251 . S
O573 Eu543 2.374 . S
O573 C561 1.251 . S
H574 C545 0.931 . S
H575 C546 0.931 . S
H576 C548 0.931 . S
H577 C549 0.931 . S
H578 C555 0.931 . S
H579 C556 0.931 . S
H580 C558 0.931 . S
H581 C559 0.931 . S
C582 Eu583 2.835 . S
C582 C584 1.500 . S
C582 O602 1.257 . S
C582 O603 1.260 . S
Eu583 C582 2.835 . S
Eu583 O602 2.473 . S
Eu583 O603 2.480 . S
Eu583 O604 2.430 . S
Eu583 O605 2.670 . S
Eu583 O606 2.394 . S
Eu583 O611 2.355 . S
Eu583 O613 2.374 . S
C584 C582 1.500 . S
C584 C585 1.377 . S
C584 C589 1.377 . S
C585 C584 1.377 . S
C585 C586 1.395 . S
C585 H614 0.931 . S
C586 C585 1.395 . S
C586 C587 1.383 . S
C586 H615 0.931 . S
C587 C586 1.383 . S
C587 C588 1.394 . S
C588 C587 1.394 . S
C588 C589 1.378 . S
C588 H616 0.931 . S
C589 C584 1.377 . S
C589 C588 1.378 . S
C589 H617 0.931 . S
C590 O604 1.259 . S
C590 O605 1.270 . S
C591 O606 1.251 . S
C591 O607 1.251 . S
C592 Eu593 2.835 . S
C592 C594 1.500 . S
C592 O608 1.257 . S
C592 O609 1.260 . S
Eu593 C592 2.835 . S
Eu593 O605 2.355 . S
Eu593 O607 2.374 . S
Eu593 O608 2.473 . S
Eu593 O609 2.480 . S
Eu593 O610 2.430 . S
Eu593 O611 2.670 . S
Eu593 O612 2.394 . S
C594 C592 1.500 . S
C594 C595 1.377 . S
C594 C599 1.377 . S
C595 C594 1.377 . S
C595 C596 1.395 . S
C595 H618 0.931 . S
C596 C595 1.395 . S
C596 C597 1.383 . S
C596 H619 0.931 . S
C597 C596 1.383 . S
C597 C598 1.394 . S
C598 C597 1.394 . S
C598 C599 1.378 . S
C598 H620 0.931 . S
C599 C594 1.377 . S
C599 C598 1.378 . S
C599 H621 0.931 . S
C600 O610 1.259 . S
C600 O611 1.270 . S
C601 O612 1.251 . S
C601 O613 1.251 . S
O602 C582 1.257 . S
O602 Eu583 2.473 . S
O603 C582 1.260 . S
O603 Eu583 2.480 . S
O604 Eu583 2.430 . S
O604 C590 1.259 . S
O605 Eu583 2.670 . S
O605 C590 1.270 . S
O605 Eu593 2.355 . S
O606 Eu583 2.394 . S
O606 C591 1.251 . S
O607 C591 1.251 . S
O607 Eu593 2.374 . S
O608 C592 1.257 . S
O608 Eu593 2.473 . S
O609 C592 1.260 . S
O609 Eu593 2.480 . S
O610 Eu593 2.430 . S
O610 C600 1.259 . S
O611 Eu583 2.355 . S
O611 Eu593 2.670 . S
O611 C600 1.270 . S
O612 Eu593 2.394 . S
O612 C601 1.251 . S
O613 Eu583 2.374 . S
O613 C601 1.251 . S
H614 C585 0.931 . S
H615 C586 0.931 . S
H616 C588 0.931 . S
H617 C589 0.931 . S
H618 C595 0.931 . S
H619 C596 0.931 . S
H620 C598 0.931 . S
H621 C599 0.931 . S
C622 Eu623 2.835 . S
C622 C624 1.500 . S
C622 O642 1.257 . S
C622 O643 1.260 . S
Eu623 C622 2.835 . S
Eu623 O642 2.473 . S
Eu623 O643 2.480 . S
Eu623 O644 2.430 . S
Eu623 O645 2.670 . S
Eu623 O646 2.394 . S
Eu623 O651 2.355 . S
Eu623 O653 2.374 . S
C624 C622 1.500 . S
C624 C625 1.377 . S
C624 C629 1.377 . S
C625 C624 1.377 . S
C625 C626 1.395 . S
C625 H654 0.931 . S
C626 C625 1.395 . S
C626 C627 1.383 . S
C626 H655 0.931 . S
C627 C626 1.383 . S
C627 C628 1.394 . S
C628 C627 1.394 . S
C628 C629 1.378 . S
C628 H656 0.931 . S
C629 C624 1.377 . S
C629 C628 1.378 . S
C629 H657 0.931 . S
C630 O644 1.259 . S
C630 O645 1.270 . S
C631 O646 1.251 . S
C631 O647 1.251 . S
C632 Eu633 2.835 . S
C632 C634 1.500 . S
C632 O648 1.257 . S
C632 O649 1.260 . S
Eu633 C632 2.835 . S
Eu633 O645 2.355 . S
Eu633 O647 2.374 . S
Eu633 O648 2.473 . S
Eu633 O649 2.480 . S
Eu633 O650 2.430 . S
Eu633 O651 2.670 . S
Eu633 O652 2.394 . S
C634 C632 1.500 . S
C634 C635 1.377 . S
C634 C639 1.377 . S
C635 C634 1.377 . S
C635 C636 1.395 . S
C635 H658 0.931 . S
C636 C635 1.395 . S
C636 C637 1.383 . S
C636 H659 0.931 . S
C637 C636 1.383 . S
C637 C638 1.394 . S
C638 C637 1.394 . S
C638 C639 1.378 . S
C638 H660 0.931 . S
C639 C634 1.377 . S
C639 C638 1.378 . S
C639 H661 0.931 . S
C640 O650 1.259 . S
C640 O651 1.270 . S
C641 O652 1.251 . S
C641 O653 1.251 . S
O642 C622 1.257 . S
O642 Eu623 2.473 . S
O643 C622 1.260 . S
O643 Eu623 2.480 . S
O644 Eu623 2.430 . S
O644 C630 1.259 . S
O645 Eu623 2.670 . S
O645 C630 1.270 . S
O645 Eu633 2.355 . S
O646 Eu623 2.394 . S
O646 C631 1.251 . S
O647 C631 1.251 . S
O647 Eu633 2.374 . S
O648 C632 1.257 . S
O648 Eu633 2.473 . S
O649 C632 1.260 . S
O649 Eu633 2.480 . S
O650 Eu633 2.430 . S
O650 C640 1.259 . S
O651 Eu623 2.355 . S
O651 Eu633 2.670 . S
O651 C640 1.270 . S
O652 Eu633 2.394 . S
O652 C641 1.251 . S
O653 Eu623 2.374 . S
O653 C641 1.251 . S
H654 C625 0.931 . S
H655 C626 0.931 . S
H656 C628 0.931 . S
H657 C629 0.931 . S
H658 C635 0.931 . S
H659 C636 0.931 . S
H660 C638 0.931 . S
H661 C639 0.931 . S
C662 Eu663 2.835 . S
C662 C664 1.500 . S
C662 O682 1.257 . S
C662 O683 1.260 . S
Eu663 C662 2.835 . S
Eu663 O682 2.473 . S
Eu663 O683 2.480 . S
Eu663 O684 2.430 . S
Eu663 O685 2.670 . S
Eu663 O686 2.394 . S
Eu663 O691 2.355 . S
Eu663 O693 2.374 . S
C664 C662 1.500 . S
C664 C665 1.377 . S
C664 C669 1.377 . S
C665 C664 1.377 . S
C665 C666 1.395 . S
C665 H694 0.931 . S
C666 C665 1.395 . S
C666 C667 1.383 . S
C666 H695 0.931 . S
C667 C666 1.383 . S
C667 C668 1.394 . S
C668 C667 1.394 . S
C668 C669 1.378 . S
C668 H696 0.931 . S
C669 C664 1.377 . S
C669 C668 1.378 . S
C669 H697 0.931 . S
C670 O684 1.259 . S
C670 O685 1.270 . S
C671 O686 1.251 . S
C671 O687 1.251 . S
C672 Eu673 2.835 . S
C672 C674 1.500 . S
C672 O688 1.257 . S
C672 O689 1.260 . S
Eu673 C672 2.835 . S
Eu673 O685 2.355 . S
Eu673 O687 2.374 . S
Eu673 O688 2.473 . S
Eu673 O689 2.480 . S
Eu673 O690 2.430 . S
Eu673 O691 2.670 . S
Eu673 O692 2.394 . S
C674 C672 1.500 . S
C674 C675 1.377 . S
C674 C679 1.377 . S
C675 C674 1.377 . S
C675 C676 1.395 . S
C675 H698 0.931 . S
C676 C675 1.395 . S
C676 C677 1.383 . S
C676 H699 0.931 . S
C677 C676 1.383 . S
C677 C678 1.394 . S
C678 C677 1.394 . S
C678 C679 1.378 . S
C678 H700 0.931 . S
C679 C674 1.377 . S
C679 C678 1.378 . S
C679 H701 0.931 . S
C680 O690 1.259 . S
C680 O691 1.270 . S
C681 O692 1.251 . S
C681 O693 1.251 . S
O682 C662 1.257 . S
O682 Eu663 2.473 . S
O683 C662 1.260 . S
O683 Eu663 2.480 . S
O684 Eu663 2.430 . S
O684 C670 1.259 . S
O685 Eu663 2.670 . S
O685 C670 1.270 . S
O685 Eu673 2.355 . S
O686 Eu663 2.394 . S
O686 C671 1.251 . S
O687 C671 1.251 . S
O687 Eu673 2.374 . S
O688 C672 1.257 . S
O688 Eu673 2.473 . S
O689 C672 1.260 . S
O689 Eu673 2.480 . S
O690 Eu673 2.430 . S
O690 C680 1.259 . S
O691 Eu663 2.355 . S
O691 Eu673 2.670 . S
O691 C680 1.270 . S
O692 Eu673 2.394 . S
O692 C681 1.251 . S
O693 Eu663 2.374 . S
O693 C681 1.251 . S
H694 C665 0.931 . S
H695 C666 0.931 . S
H696 C668 0.931 . S
H697 C669 0.931 . S
H698 C675 0.931 . S
H699 C676 0.931 . S
H700 C678 0.931 . S
H701 C679 0.931 . S
C702 C703 1.349 . S
C702 C704 1.327 . S
C702 H727 0.950 . S
C703 C702 1.349 . S
C703 C719 1.349 . S
C704 C702 1.327 . S
C704 C723 1.429 . S
C704 H728 0.950 . S
C705 C722 1.574 . S
C705 C724 1.368 . S
C705 H729 0.949 . S
H706 C710 0.949 . S
C707 C708 1.349 . S
C707 C709 1.327 . S
C707 H730 0.950 1_554 S
C708 C707 1.349 . S
C708 C720 1.349 . S
C709 C707 1.327 . S
C709 C725 1.429 . S
C709 H731 0.935 1_554 S
C710 H706 0.949 . S
C710 C718 1.574 . S
C710 C726 1.368 . S
H711 C719 0.950 . S
H712 C717 0.950 . S
H713 C718 0.949 . S
H714 C720 0.950 . S
H715 C721 0.950 . S
H716 C722 0.949 . S
C717 H712 0.950 . S
C717 C719 1.327 . S
C717 C723 1.429 . S
C718 C710 1.574 . S
C718 H713 0.949 . S
C718 C724 1.368 . S
C719 C703 1.349 . S
C719 H711 0.950 . S
C719 C717 1.327 . S
C720 C708 1.349 . S
C720 H714 0.950 . S
C720 C721 1.327 . S
C721 H715 0.950 . S
C721 C720 1.327 . S
C721 C725 1.429 . S
C722 C705 1.574 . S
C722 H716 0.949 . S
C722 C726 1.368 . S
C723 C704 1.429 . S
C723 C717 1.429 . S
C723 C724 1.523 . S
C724 C705 1.368 . S
C724 C718 1.368 . S
C724 C723 1.523 . S
C725 C709 1.429 . S
C725 C721 1.429 . S
C725 C726 1.523 . S
C726 C710 1.368 . S
C726 C722 1.368 . S
C726 C725 1.523 . S
H727 C702 0.950 . S
H728 C704 0.950 . S
H729 C705 0.949 . S
H730 C707 0.950 1_556 S
H731 C709 0.935 1_556 S
C732 C733 1.349 . S
C732 C734 1.327 . S
C732 H757 0.950 . S
C733 C732 1.349 . S
C733 C749 1.349 . S
C734 C732 1.327 . S
C734 C753 1.429 . S
C734 H758 0.950 . S
C735 C752 1.574 . S
C735 C754 1.368 . S
C735 H759 0.949 . S
H736 C740 0.949 . S
C737 C738 1.349 . S
C737 C739 1.327 . S
C737 H760 0.950 . S
C738 C737 1.349 . S
C738 C750 1.349 . S
C739 C737 1.327 . S
C739 C755 1.429 . S
C739 H761 0.950 . S
C740 H736 0.949 . S
C740 C748 1.574 . S
C740 C756 1.368 . S
H741 C749 0.950 . S
H742 C747 0.950 . S
H743 C748 0.949 . S
H744 C750 0.950 . S
H745 C751 0.950 . S
H746 C752 0.949 . S
C747 H742 0.950 . S
C747 C749 1.327 . S
C747 C753 1.429 . S
C748 C740 1.574 . S
C748 H743 0.949 . S
C748 C754 1.368 . S
C749 C733 1.349 . S
C749 H741 0.950 . S
C749 C747 1.327 . S
C750 C738 1.349 . S
C750 H744 0.950 . S
C750 C751 1.327 . S
C751 H745 0.950 . S
C751 C750 1.327 . S
C751 C755 1.429 . S
C752 C735 1.574 . S
C752 H746 0.949 . S
C752 C756 1.368 . S
C753 C734 1.429 . S
C753 C747 1.429 . S
C753 C754 1.523 . S
C754 C735 1.368 . S
C754 C748 1.368 . S
C754 C753 1.523 . S
C755 C739 1.429 . S
C755 C751 1.429 . S
C755 C756 1.523 . S
C756 C740 1.368 . S
C756 C752 1.368 . S
C756 C755 1.523 . S
H757 C732 0.950 . S
H758 C734 0.950 . S
H759 C735 0.949 . S
H760 C737 0.950 . S
H761 C739 0.950 . S
C762 C763 1.349 . S
C762 C764 1.327 . S
C762 H787 0.950 . S
C763 C762 1.349 . S
C763 C779 1.349 . S
C764 C762 1.327 . S
C764 C783 1.429 . S
C764 H788 0.950 . S
C765 C782 1.574 . S
C765 C784 1.368 . S
C765 H789 0.949 . S
H766 C770 0.949 . S
C767 C768 1.349 . S
C767 C769 1.327 . S
C767 H790 0.927 1_554 S
C768 C767 1.349 . S
C768 C780 1.349 . S
C769 C767 1.327 . S
C769 C785 1.429 . S
C769 H791 0.950 . S
C770 H766 0.949 . S
C770 C778 1.574 . S
C770 C786 1.368 . S
H771 C779 0.950 . S
H772 C777 0.950 . S
H773 C778 0.949 . S
H774 C780 0.950 . S
H775 C781 0.950 . S
H776 C782 0.949 . S
C777 H772 0.950 . S
C777 C779 1.327 . S
C777 C783 1.429 . S
C778 C770 1.574 . S
C778 H773 0.949 . S
C778 C784 1.368 . S
C779 C763 1.349 . S
C779 H771 0.950 . S
C779 C777 1.327 . S
C780 C768 1.349 . S
C780 H774 0.950 . S
C780 C781 1.327 . S
C781 H775 0.950 . S
C781 C780 1.327 . S
C781 C785 1.429 . S
C782 C765 1.574 . S
C782 H776 0.949 . S
C782 C786 1.368 . S
C783 C764 1.429 . S
C783 C777 1.429 . S
C783 C784 1.523 . S
C784 C765 1.368 . S
C784 C778 1.368 . S
C784 C783 1.523 . S
C785 C769 1.429 . S
C785 C781 1.429 . S
C785 C786 1.523 . S
C786 C770 1.368 . S
C786 C782 1.368 . S
C786 C785 1.523 . S
H787 C762 0.950 . S
H788 C764 0.950 . S
H789 C765 0.949 . S
H790 C767 0.927 1_556 S
H791 C769 0.950 . S
C792 C793 1.349 . S
C792 C794 1.327 . S
C792 H817 0.950 . S
C793 C792 1.349 . S
C793 C809 1.349 . S
C794 C792 1.327 . S
C794 C813 1.429 . S
C794 H818 0.950 . S
C795 C812 1.574 . S
C795 C814 1.368 . S
C795 H819 0.949 1_556 S
H796 C800 0.949 . S
C797 C798 1.349 1_554 S
C797 C799 1.327 . S
C797 H820 0.950 . S
C798 C797 1.349 1_556 S
C798 C810 1.349 . S
C799 C797 1.327 . S
C799 C815 1.429 1_554 S
C799 H821 0.950 . S
C800 H796 0.949 . S
C800 C808 1.574 . S
C800 C816 1.368 . S
H801 C809 0.950 . S
H802 C807 0.950 . S
H803 C808 0.949 . S
H804 C810 0.950 . S
H805 C811 0.950 . S
H806 C812 0.949 1_554 S
C807 H802 0.950 . S
C807 C809 1.327 . S
C807 C813 1.429 . S
C808 C800 1.574 . S
C808 H803 0.949 . S
C808 C814 1.368 . S
C809 C793 1.349 . S
C809 H801 0.950 . S
C809 C807 1.327 . S
C810 C798 1.349 . S
C810 H804 0.950 . S
C810 C811 1.327 . S
C811 H805 0.950 . S
C811 C810 1.327 . S
C811 C815 1.429 . S
C812 C795 1.574 . S
C812 H806 0.949 1_556 S
C812 C816 1.368 . S
C813 C794 1.429 . S
C813 C807 1.429 . S
C813 C814 1.523 . S
C814 C795 1.368 . S
C814 C808 1.368 . S
C814 C813 1.523 . S
C815 C799 1.429 1_556 S
C815 C811 1.429 . S
C815 C816 1.523 . S
C816 C800 1.368 . S
C816 C812 1.368 . S
C816 C815 1.523 . S
H817 C792 0.950 . S
H818 C794 0.950 . S
H819 C795 0.949 1_554 S
H820 C797 0.950 . S
H821 C799 0.950 . S
C822 C823 1.349 . S
C822 C824 1.327 . S
C822 H847 0.950 . S
C823 C822 1.349 . S
C823 C839 1.349 . S
C824 C822 1.327 . S
C824 C843 1.429 . S
C824 H848 0.950 . S
C825 C842 1.574 . S
C825 C844 1.368 . S
C825 H849 0.949 . S
H826 C830 0.949 . S
C827 C828 1.349 . S
C827 C829 1.327 . S
C827 H850 0.950 . S
C828 C827 1.349 . S
C828 C840 1.351 . S
C829 C827 1.327 . S
C829 C845 1.429 . S
C829 H851 0.950 . S
C830 H826 0.949 . S
C830 C838 1.574 . S
C830 C846 1.368 . S
H831 C839 0.950 . S
H832 C837 0.950 . S
H833 C838 0.949 . S
H834 C840 0.942 1_554 S
H835 C841 0.950 . S
H836 C842 0.949 . S
C837 H832 0.950 . S
C837 C839 1.327 . S
C837 C843 1.429 . S
C838 C830 1.574 . S
C838 H833 0.949 . S
C838 C844 1.368 . S
C839 C823 1.349 . S
C839 H831 0.950 . S
C839 C837 1.327 . S
C840 C828 1.351 . S
C840 H834 0.942 1_556 S
C840 C841 1.332 . S
C841 H835 0.950 . S
C841 C840 1.332 . S
C841 C845 1.429 . S
C842 C825 1.574 . S
C842 H836 0.949 . S
C842 C846 1.368 . S
C843 C824 1.429 . S
C843 C837 1.429 . S
C843 C844 1.523 . S
C844 C825 1.368 . S
C844 C838 1.368 . S
C844 C843 1.523 . S
C845 C829 1.429 . S
C845 C841 1.429 . S
C845 C846 1.523 . S
C846 C830 1.368 . S
C846 C842 1.368 . S
C846 C845 1.523 . S
H847 C822 0.950 . S
H848 C824 0.950 . S
H849 C825 0.949 . S
H850 C827 0.950 . S
H851 C829 0.950 . S
C852 C853 1.349 . S
C852 C854 1.327 . S
C852 H877 0.950 . S
C853 C852 1.349 . S
C853 C869 1.349 . S
C854 C852 1.327 . S
C854 C873 1.429 . S
C854 H878 0.950 . S
C855 C872 1.567 1_556 S
C855 C874 1.368 . S
C855 H879 0.947 1_556 S
H856 C860 0.949 . S
C857 C858 1.349 . S
C857 C859 1.327 . S
C857 H880 0.950 . S
C858 C857 1.349 . S
C858 C870 1.349 1_554 S
C859 C857 1.327 . S
C859 C875 1.412 1_554 S
C859 H881 0.950 . S
C860 H856 0.949 . S
C860 C868 1.574 . S
C860 C876 1.368 . S
H861 C869 0.950 . S
H862 C867 0.950 . S
H863 C868 0.949 . S
H864 C870 0.950 . S
H865 C871 0.950 . S
H866 C872 0.962 . S
C867 H862 0.950 . S
C867 C869 1.327 . S
C867 C873 1.429 . S
C868 C860 1.574 . S
C868 H863 0.949 . S
C868 C874 1.368 . S
C869 C853 1.349 . S
C869 H861 0.950 . S
C869 C867 1.327 . S
C870 C858 1.349 1_556 S
C870 H864 0.950 . S
C870 C871 1.327 . S
C871 H865 0.950 . S
C871 C870 1.327 . S
C871 C875 1.436 . S
C872 C855 1.567 1_554 S
C872 H866 0.962 . S
C872 C876 1.364 1_554 S
C873 C854 1.429 . S
C873 C867 1.429 . S
C873 C874 1.523 . S
C874 C855 1.368 . S
C874 C868 1.368 . S
C874 C873 1.523 . S
C875 C859 1.412 1_556 S
C875 C871 1.436 . S
C875 C876 1.536 . S
C876 C860 1.368 . S
C876 C872 1.364 1_556 S
C876 C875 1.536 . S
H877 C852 0.950 . S
H878 C854 0.950 . S
H879 C855 0.947 1_554 S
H880 C857 0.950 . S
H881 C859 0.950 . S
C882 C883 1.349 . S
C882 C884 1.327 . S
C882 H907 0.950 . S
C883 C882 1.349 . S
C883 C899 1.349 . S
C884 C882 1.327 . S
C884 C903 1.429 . S
C884 H908 0.950 . S
C885 C902 1.574 . S
C885 C904 1.368 . S
C885 H909 0.949 . S
H886 C890 0.949 1_554 S
C887 C888 1.349 . S
C887 C889 1.327 . S
C887 H910 0.950 . S
C888 C887 1.349 . S
C888 C900 1.349 1_556 S
C889 C887 1.327 . S
C889 C905 1.429 . S
C889 H911 0.950 . S
C890 H886 0.949 1_556 S
C890 C898 1.574 . S
C890 C906 1.368 . S
H891 C899 0.950 . S
H892 C897 0.950 . S
H893 C898 0.974 . S
H894 C900 0.950 . S
H895 C901 0.966 . S
H896 C902 0.949 . S
C897 H892 0.950 . S
C897 C899 1.327 . S
C897 C903 1.429 . S
C898 C890 1.574 . S
C898 H893 0.974 . S
C898 C904 1.368 . S
C899 C883 1.349 . S
C899 H891 0.950 . S
C899 C897 1.327 . S
C900 C888 1.349 1_554 S
C900 H894 0.950 . S
C900 C901 1.338 . S
C901 H895 0.966 . S
C901 C900 1.338 . S
C901 C905 1.404 1_554 S
C902 C885 1.574 . S
C902 H896 0.949 . S
C902 C906 1.368 . S
C903 C884 1.429 . S
C903 C897 1.429 . S
C903 C904 1.523 . S
C904 C885 1.368 . S
C904 C898 1.368 . S
C904 C903 1.523 . S
C905 C889 1.429 . S
C905 C901 1.404 1_556 S
C905 C906 1.523 . S
C906 C890 1.368 . S
C906 C902 1.368 . S
C906 C905 1.523 . S
H907 C882 0.950 . S
H908 C884 0.950 . S
H909 C885 0.949 . S
H910 C887 0.950 . S
H911 C889 0.950 . S
C912 C913 1.349 . S
C912 C914 1.327 . S
C912 H937 0.950 . S
C913 C912 1.349 . S
C913 C929 1.349 . S
C914 C912 1.327 . S
C914 C933 1.429 . S
C914 H938 0.950 . S
C915 C932 1.574 . S
C915 C934 1.368 . S
C915 H939 0.949 . S
H916 C920 0.949 . S
C917 C918 1.349 . S
C917 C919 1.327 . S
C917 H940 0.950 1_556 S
C918 C917 1.349 . S
C918 C930 1.349 . S
C919 C917 1.327 . S
C919 C935 1.429 . S
C919 H941 0.950 . S
C920 H916 0.949 . S
C920 C928 1.574 . S
C920 C936 1.368 . S
H921 C929 0.950 . S
H922 C927 0.950 . S
H923 C928 0.949 . S
H924 C930 0.950 . S
H925 C931 0.950 . S
H926 C932 0.949 . S
C927 H922 0.950 . S
C927 C929 1.327 . S
C927 C933 1.429 . S
C928 C920 1.574 . S
C928 H923 0.949 . S
C928 C934 1.368 . S
C929 C913 1.349 . S
C929 H921 0.950 . S
C929 C927 1.327 . S
C930 C918 1.349 . S
C930 H924 0.950 . S
C930 C931 1.327 . S
C931 H925 0.950 . S
C931 C930 1.327 . S
C931 C935 1.429 . S
C932 C915 1.574 . S
C932 H926 0.949 . S
C932 C936 1.368 . S
C933 C914 1.429 . S
C933 C927 1.429 . S
C933 C934 1.523 . S
C934 C915 1.368 . S
C934 C928 1.368 . S
C934 C933 1.523 . S
C935 C919 1.429 . S
C935 C931 1.429 . S
C935 C936 1.523 . S
C936 C920 1.368 . S
C936 C932 1.368 . S
C936 C935 1.523 . S
H937 C912 0.950 . S
H938 C914 0.950 . S
H939 C915 0.949 . S
H940 C917 0.950 1_554 S
H941 C919 0.950 . S
C942 C943 1.383 . S
C942 C944 1.327 . S
C942 H967 0.950 . S
C943 C942 1.383 . S
C943 C959 1.313 1_554 S
C944 C942 1.327 . S
C944 C963 1.429 . S
C944 H968 0.950 . S
C945 C962 1.574 . S
C945 C964 1.368 1_556 S
C945 H969 0.949 . S
H946 C950 0.949 . S
C947 C948 1.349 1_556 S
C947 C949 1.327 . S
C947 H970 0.950 . S
C948 C947 1.349 1_554 S
C948 C960 1.349 . S
C949 C947 1.327 . S
C949 C965 1.429 1_556 S
C949 H971 0.950 . S
C950 H946 0.949 . S
C950 C958 1.574 . S
C950 C966 1.368 . S
H951 C959 0.950 . S
H952 C957 0.950 . S
H953 C958 0.949 . S
H954 C960 0.950 . S
H955 C961 0.950 . S
H956 C962 0.949 . S
C957 H952 0.950 . S
C957 C959 1.327 . S
C957 C963 1.429 1_556 S
C958 C950 1.574 . S
C958 H953 0.949 . S
C958 C964 1.368 . S
C959 C943 1.313 1_556 S
C959 H951 0.950 . S
C959 C957 1.327 . S
C960 C948 1.349 . S
C960 H954 0.950 . S
C960 C961 1.327 . S
C961 H955 0.950 . S
C961 C960 1.327 . S
C961 C965 1.429 . S
C962 C945 1.574 . S
C962 H956 0.949 . S
C962 C966 1.368 1_556 S
C963 C944 1.429 . S
C963 C957 1.429 1_554 S
C963 C964 1.523 . S
C964 C945 1.368 1_554 S
C964 C958 1.368 . S
C964 C963 1.523 . S
C965 C949 1.429 1_554 S
C965 C961 1.429 . S
C965 C966 1.523 . S
C966 C950 1.368 . S
C966 C962 1.368 1_554 S
C966 C965 1.523 . S
H967 C942 0.950 . S
H968 C944 0.950 . S
H969 C945 0.949 . S
H970 C947 0.950 . S
H971 C949 0.950 . S
C972 C973 1.349 . S
C972 C974 1.327 . S
C972 H997 0.950 . S
C973 C972 1.349 . S
C973 C989 1.349 . S
C974 C972 1.327 . S
C974 C993 1.429 . S
C974 H998 0.950 . S
C975 C992 1.574 . S
C975 C994 1.368 . S
C975 H999 0.949 . S
H976 C980 0.949 . S
C977 C978 1.349 . S
C977 C979 1.327 . S
C977 H1000 0.950 1_554 S
C978 C977 1.349 . S
C978 C990 1.349 . S
C979 C977 1.327 . S
C979 C995 1.429 . S
C979 H1001 0.950 1_554 S
C980 H976 0.949 . S
C980 C988 1.574 . S
C980 C996 1.368 . S
H981 C989 0.950 . S
H982 C987 0.950 . S
H983 C988 0.949 . S
H984 C990 0.950 . S
H985 C991 0.950 . S
H986 C992 0.949 1_556 S
C987 H982 0.950 . S
C987 C989 1.327 . S
C987 C993 1.429 . S
C988 C980 1.574 . S
C988 H983 0.949 . S
C988 C994 1.368 . S
C989 C973 1.349 . S
C989 H981 0.950 . S
C989 C987 1.327 . S
C990 C978 1.349 . S
C990 H984 0.950 . S
C990 C991 1.327 . S
C991 H985 0.950 . S
C991 C990 1.327 . S
C991 C995 1.429 . S
C992 C975 1.574 . S
C992 H986 0.949 1_554 S
C992 C996 1.368 . S
C993 C974 1.429 . S
C993 C987 1.429 . S
C993 C994 1.523 . S
C994 C975 1.368 . S
C994 C988 1.368 . S
C994 C993 1.523 . S
C995 C979 1.429 . S
C995 C991 1.429 . S
C995 C996 1.523 . S
C996 C980 1.368 . S
C996 C992 1.368 . S
C996 C995 1.523 . S
H997 C972 0.950 . S
H998 C974 0.950 . S
H999 C975 0.949 . S
H1000 C977 0.950 1_556 S
H1001 C979 0.950 1_556 S
C1002 C1003 1.349 . S
C1002 C1004 1.327 . S
C1002 H1027 0.950 . S
C1003 C1002 1.349 . S
C1003 C1019 1.349 . S
C1004 C1002 1.327 . S
C1004 C1023 1.429 . S
C1004 H1028 0.950 . S
C1005 C1022 1.574 . S
C1005 C1024 1.368 . S
C1005 H1029 0.949 . S
H1006 C1010 0.949 . S
C1007 C1008 1.349 . S
C1007 C1009 1.327 . S
C1007 H1030 0.950 . S
C1008 C1007 1.349 . S
C1008 C1020 1.349 . S
C1009 C1007 1.327 . S
C1009 C1025 1.429 . S
C1009 H1031 0.950 . S
C1010 H1006 0.949 . S
C1010 C1018 1.574 . S
C1010 C1026 1.368 . S
H1011 C1019 0.950 . S
H1012 C1017 0.950 . S
H1013 C1018 0.949 . S
H1014 C1020 0.950 . S
H1015 C1021 0.950 . S
H1016 C1022 0.949 . S
C1017 H1012 0.950 . S
C1017 C1019 1.327 . S
C1017 C1023 1.429 . S
C1018 C1010 1.574 . S
C1018 H1013 0.949 . S
C1018 C1024 1.368 . S
C1019 C1003 1.349 . S
C1019 H1011 0.950 . S
C1019 C1017 1.327 . S
C1020 C1008 1.349 . S
C1020 H1014 0.950 . S
C1020 C1021 1.327 . S
C1021 H1015 0.950 . S
C1021 C1020 1.327 . S
C1021 C1025 1.429 . S
C1022 C1005 1.574 . S
C1022 H1016 0.949 . S
C1022 C1026 1.368 . S
C1023 C1004 1.429 . S
C1023 C1017 1.429 . S
C1023 C1024 1.523 . S
C1024 C1005 1.368 . S
C1024 C1018 1.368 . S
C1024 C1023 1.523 . S
C1025 C1009 1.429 . S
C1025 C1021 1.429 . S
C1025 C1026 1.523 . S
C1026 C1010 1.368 . S
C1026 C1022 1.368 . S
C1026 C1025 1.523 . S
H1027 C1002 0.950 . S
H1028 C1004 0.950 . S
H1029 C1005 0.949 . S
H1030 C1007 0.950 . S
H1031 C1009 0.950 . S
C1032 C1033 1.349 . S
C1032 C1034 1.327 . S
C1032 H1057 0.950 . S
C1033 C1032 1.349 . S
C1033 C1049 1.349 . S
C1034 C1032 1.327 . S
C1034 C1053 1.429 . S
C1034 H1058 0.950 . S
C1035 C1052 1.574 . S
C1035 C1054 1.368 . S
C1035 H1059 0.949 1_554 S
H1036 C1040 0.949 . S
C1037 C1038 1.349 1_556 S
C1037 C1039 1.327 . S
C1037 H1060 0.950 . S
C1038 C1037 1.349 1_554 S
C1038 C1050 1.349 . S
C1039 C1037 1.327 . S
C1039 C1055 1.429 1_556 S
C1039 H1061 0.950 . S
C1040 H1036 0.949 . S
C1040 C1048 1.574 . S
C1040 C1056 1.368 . S
H1041 C1049 0.950 . S
H1042 C1047 0.950 1_556 S
H1043 C1048 0.949 . S
H1044 C1050 0.950 . S
H1045 C1051 0.950 . S
H1046 C1052 0.949 1_556 S
C1047 H1042 0.950 1_554 S
C1047 C1049 1.327 . S
C1047 C1053 1.429 . S
C1048 C1040 1.574 . S
C1048 H1043 0.949 . S
C1048 C1054 1.368 . S
C1049 C1033 1.349 . S
C1049 H1041 0.950 . S
C1049 C1047 1.327 . S
C1050 C1038 1.349 . S
C1050 H1044 0.950 . S
C1050 C1051 1.327 . S
C1051 H1045 0.950 . S
C1051 C1050 1.327 . S
C1051 C1055 1.429 . S
C1052 C1035 1.574 . S
C1052 H1046 0.949 1_554 S
C1052 C1056 1.368 . S
C1053 C1034 1.429 . S
C1053 C1047 1.429 . S
C1053 C1054 1.523 . S
C1054 C1035 1.368 . S
C1054 C1048 1.368 . S
C1054 C1053 1.523 . S
C1055 C1039 1.429 1_554 S
C1055 C1051 1.429 . S
C1055 C1056 1.523 . S
C1056 C1040 1.368 . S
C1056 C1052 1.368 . S
C1056 C1055 1.523 . S
H1057 C1032 0.950 . S
H1058 C1034 0.950 . S
H1059 C1035 0.949 1_556 S
H1060 C1037 0.950 . S
H1061 C1039 0.950 . S
C1062 C1063 1.349 . S
C1062 C1064 1.327 . S
C1062 H1087 0.950 . S
C1063 C1062 1.349 . S
C1063 C1079 1.349 . S
C1064 C1062 1.327 . S
C1064 C1083 1.429 . S
C1064 H1088 0.950 . S
C1065 C1082 1.574 1_655 S
C1065 C1084 1.368 . S
C1065 H1089 0.949 . S
H1066 C1070 0.949 . S
C1067 C1068 1.349 . S
C1067 C1069 1.327 . S
C1067 H1090 0.950 . S
C1068 C1067 1.349 . S
C1068 C1080 1.349 . S
C1069 C1067 1.327 . S
C1069 C1085 1.429 . S
C1069 H1091 0.950 . S
C1070 H1066 0.949 . S
C1070 C1078 1.574 . S
C1070 C1086 1.368 1_655 S
H1071 C1079 0.950 . S
H1072 C1077 0.950 . S
H1073 C1078 0.949 . S
H1074 C1080 0.950 . S
H1075 C1081 0.950 . S
H1076 C1082 0.949 . S
C1077 H1072 0.950 . S
C1077 C1079 1.327 . S
C1077 C1083 1.429 . S
C1078 C1070 1.574 . S
C1078 H1073 0.949 . S
C1078 C1084 1.368 . S
C1079 C1063 1.349 . S
C1079 H1071 0.950 . S
C1079 C1077 1.327 . S
C1080 C1068 1.349 . S
C1080 H1074 0.950 . S
C1080 C1081 1.327 . S
C1081 H1075 0.950 . S
C1081 C1080 1.327 . S
C1081 C1085 1.429 . S
C1082 C1065 1.574 1_455 S
C1082 H1076 0.949 . S
C1082 C1086 1.368 . S
C1083 C1064 1.429 . S
C1083 C1077 1.429 . S
C1083 C1084 1.523 . S
C1084 C1065 1.368 . S
C1084 C1078 1.368 . S
C1084 C1083 1.523 . S
C1085 C1069 1.429 . S
C1085 C1081 1.429 . S
C1085 C1086 1.523 . S
C1086 C1070 1.368 1_455 S
C1086 C1082 1.368 . S
C1086 C1085 1.523 . S
H1087 C1062 0.950 . S
H1088 C1064 0.950 . S
H1089 C1065 0.949 . S
H1090 C1067 0.950 . S
H1091 C1069 0.950 . S
C1092 C1093 1.349 . S
C1092 C1094 1.327 . S
C1092 H1117 0.950 . S
C1093 C1092 1.349 . S
C1093 C1109 1.349 . S
C1094 C1092 1.327 . S
C1094 C1113 1.429 . S
C1094 H1118 0.950 . S
C1095 C1112 1.574 . S
C1095 C1114 1.368 . S
C1095 H1119 0.949 . S
H1096 C1100 0.949 . S
C1097 C1098 1.349 . S
C1097 C1099 1.327 . S
C1097 H1120 0.950 . S
C1098 C1097 1.349 . S
C1098 C1110 1.349 . S
C1099 C1097 1.327 . S
C1099 C1115 1.429 . S
C1099 H1121 0.950 . S
C1100 H1096 0.949 . S
C1100 C1108 1.574 . S
C1100 C1116 1.368 . S
H1101 C1109 0.950 . S
H1102 C1107 0.950 . S
H1103 C1108 0.949 . S
H1104 C1110 0.950 . S
H1105 C1111 0.950 . S
H1106 C1112 0.949 . S
C1107 H1102 0.950 . S
C1107 C1109 1.327 . S
C1107 C1113 1.429 . S
C1108 C1100 1.574 . S
C1108 H1103 0.949 . S
C1108 C1114 1.368 . S
C1109 C1093 1.349 . S
C1109 H1101 0.950 . S
C1109 C1107 1.327 . S
C1110 C1098 1.349 . S
C1110 H1104 0.950 . S
C1110 C1111 1.327 . S
C1111 H1105 0.950 . S
C1111 C1110 1.327 . S
C1111 C1115 1.429 . S
C1112 C1095 1.574 . S
C1112 H1106 0.949 . S
C1112 C1116 1.368 . S
C1113 C1094 1.429 . S
C1113 C1107 1.429 . S
C1113 C1114 1.523 . S
C1114 C1095 1.368 . S
C1114 C1108 1.368 . S
C1114 C1113 1.523 . S
C1115 C1099 1.429 . S
C1115 C1111 1.429 . S
C1115 C1116 1.523 . S
C1116 C1100 1.368 . S
C1116 C1112 1.368 . S
C1116 C1115 1.523 . S
H1117 C1092 0.950 . S
H1118 C1094 0.950 . S
H1119 C1095 0.949 . S
H1120 C1097 0.950 . S
H1121 C1099 0.950 . S
C1122 C1123 1.349 . S
C1122 C1124 1.327 . S
C1122 H1147 0.950 . S
C1123 C1122 1.349 . S
C1123 C1139 1.349 . S
C1124 C1122 1.327 . S
C1124 C1143 1.429 . S
C1124 H1148 0.950 . S
C1125 C1142 1.574 . S
C1125 C1144 1.368 . S
C1125 H1149 0.949 . S
H1126 C1130 0.949 . S
C1127 C1128 1.349 . S
C1127 C1129 1.327 . S
C1127 H1150 0.950 . S
C1128 C1127 1.349 . S
C1128 C1140 1.349 . S
C1129 C1127 1.327 . S
C1129 C1145 1.429 . S
C1129 H1151 0.950 . S
C1130 H1126 0.949 . S
C1130 C1138 1.574 . S
C1130 C1146 1.388 . S
H1131 C1139 0.950 . S
H1132 C1137 0.950 . S
H1133 C1138 0.949 . S
H1134 C1140 0.950 . S
H1135 C1141 0.950 . S
H1136 C1142 0.949 1_565 S
C1137 H1132 0.950 . S
C1137 C1139 1.327 . S
C1137 C1143 1.429 . S
C1138 C1130 1.574 . S
C1138 H1133 0.949 . S
C1138 C1144 1.368 . S
C1139 C1123 1.349 . S
C1139 H1131 0.950 . S
C1139 C1137 1.327 . S
C1140 C1128 1.349 . S
C1140 H1134 0.950 . S
C1140 C1141 1.327 . S
C1141 H1135 0.950 . S
C1141 C1140 1.327 . S
C1141 C1145 1.429 . S
C1142 C1125 1.574 . S
C1142 H1136 0.949 1_545 S
C1142 C1146 1.396 . S
C1143 C1124 1.429 . S
C1143 C1137 1.429 . S
C1143 C1144 1.523 . S
C1144 C1125 1.368 . S
C1144 C1138 1.368 . S
C1144 C1143 1.523 . S
C1145 C1129 1.429 . S
C1145 C1141 1.429 . S
C1145 C1146 1.464 1_565 S
C1146 C1130 1.388 . S
C1146 C1142 1.396 . S
C1146 C1145 1.464 1_545 S
H1147 C1122 0.950 . S
H1148 C1124 0.950 . S
H1149 C1125 0.949 . S
H1150 C1127 0.950 . S
H1151 C1129 0.950 . S
C1152 C1153 1.349 . S
C1152 C1154 1.327 . S
C1152 H1177 0.950 . S
C1153 C1152 1.349 . S
C1153 C1169 1.349 . S
C1154 C1152 1.327 . S
C1154 C1173 1.429 . S
C1154 H1178 0.950 . S
C1155 C1172 1.574 . S
C1155 C1174 1.368 . S
C1155 H1179 0.949 . S
H1156 C1160 0.949 . S
C1157 C1158 1.349 . S
C1157 C1159 1.327 . S
C1157 H1180 0.950 . S
C1158 C1157 1.349 . S
C1158 C1170 1.349 . S
C1159 C1157 1.327 . S
C1159 C1175 1.429 . S
C1159 H1181 0.950 . S
C1160 H1156 0.949 . S
C1160 C1168 1.574 . S
C1160 C1176 1.368 . S
H1161 C1169 0.950 . S
H1162 C1167 0.950 . S
H1163 C1168 0.949 . S
H1164 C1170 0.950 . S
H1165 C1171 0.950 . S
H1166 C1172 0.949 . S
C1167 H1162 0.950 . S
C1167 C1169 1.327 . S
C1167 C1173 1.429 . S
C1168 C1160 1.574 . S
C1168 H1163 0.949 . S
C1168 C1174 1.368 . S
C1169 C1153 1.349 . S
C1169 H1161 0.950 . S
C1169 C1167 1.327 . S
C1170 C1158 1.349 . S
C1170 H1164 0.950 . S
C1170 C1171 1.327 . S
C1171 H1165 0.950 . S
C1171 C1170 1.327 . S
C1171 C1175 1.429 . S
C1172 C1155 1.574 . S
C1172 H1166 0.949 . S
C1172 C1176 1.368 . S
C1173 C1154 1.429 . S
C1173 C1167 1.429 . S
C1173 C1174 1.523 . S
C1174 C1155 1.368 . S
C1174 C1168 1.368 . S
C1174 C1173 1.523 . S
C1175 C1159 1.429 . S
C1175 C1171 1.429 . S
C1175 C1176 1.523 . S
C1176 C1160 1.368 . S
C1176 C1172 1.368 . S
C1176 C1175 1.523 . S
H1177 C1152 0.950 . S
H1178 C1154 0.950 . S
H1179 C1155 0.949 . S
H1180 C1157 0.950 . S
H1181 C1159 0.950 . S
C1182 C1183 1.349 . S
C1182 C1184 1.327 . S
C1182 H1207 0.950 . S
C1183 C1182 1.349 . S
C1183 C1199 1.349 . S
C1184 C1182 1.327 . S
C1184 C1203 1.429 . S
C1184 H1208 0.950 . S
C1185 C1202 1.574 . S
C1185 C1204 1.368 . S
C1185 H1209 0.949 . S
H1186 C1190 0.949 . S
C1187 C1188 1.349 . S
C1187 C1189 1.327 . S
C1187 H1210 0.950 . S
C1188 C1187 1.349 . S
C1188 C1200 1.349 . S
C1189 C1187 1.327 . S
C1189 C1205 1.429 . S
C1189 H1211 0.950 . S
C1190 H1186 0.949 . S
C1190 C1198 1.574 . S
C1190 C1206 1.368 . S
H1191 C1199 0.950 . S
H1192 C1197 0.950 . S
H1193 C1198 0.949 . S
H1194 C1200 0.950 . S
H1195 C1201 0.950 . S
H1196 C1202 0.949 . S
C1197 H1192 0.950 . S
C1197 C1199 1.327 . S
C1197 C1203 1.429 . S
C1198 C1190 1.574 . S
C1198 H1193 0.949 . S
C1198 C1204 1.368 . S
C1199 C1183 1.349 . S
C1199 H1191 0.950 . S
C1199 C1197 1.327 . S
C1200 C1188 1.349 . S
C1200 H1194 0.950 . S
C1200 C1201 1.327 . S
C1201 H1195 0.950 . S
C1201 C1200 1.327 . S
C1201 C1205 1.429 . S
C1202 C1185 1.574 . S
C1202 H1196 0.949 . S
C1202 C1206 1.368 . S
C1203 C1184 1.429 . S
C1203 C1197 1.429 . S
C1203 C1204 1.523 . S
C1204 C1185 1.368 . S
C1204 C1198 1.368 . S
C1204 C1203 1.523 . S
C1205 C1189 1.429 . S
C1205 C1201 1.429 . S
C1205 C1206 1.523 . S
C1206 C1190 1.368 . S
C1206 C1202 1.368 . S
C1206 C1205 1.523 . S
H1207 C1182 0.950 . S
H1208 C1184 0.950 . S
H1209 C1185 0.949 . S
H1210 C1187 0.950 . S
H1211 C1189 0.950 . S
C1212 C1213 1.349 . S
C1212 C1214 1.327 . S
C1212 H1237 0.950 . S
C1213 C1212 1.349 . S
C1213 C1229 1.349 . S
C1214 C1212 1.327 . S
C1214 C1233 1.429 . S
C1214 H1238 0.950 . S
C1215 C1232 1.574 . S
C1215 C1234 1.368 . S
C1215 H1239 0.949 . S
H1216 C1220 0.949 . S
C1217 C1218 1.349 . S
C1217 C1219 1.327 . S
C1217 H1240 0.950 . S
C1218 C1217 1.349 . S
C1218 C1230 1.349 . S
C1219 C1217 1.327 . S
C1219 C1235 1.429 . S
C1219 H1241 0.950 . S
C1220 H1216 0.949 . S
C1220 C1228 1.574 . S
C1220 C1236 1.368 . S
H1221 C1229 0.950 . S
H1222 C1227 0.950 . S
H1223 C1228 0.949 . S
H1224 C1230 0.950 . S
H1225 C1231 0.950 . S
H1226 C1232 0.949 . S
C1227 H1222 0.950 . S
C1227 C1229 1.327 . S
C1227 C1233 1.429 . S
C1228 C1220 1.574 . S
C1228 H1223 0.949 . S
C1228 C1234 1.368 . S
C1229 C1213 1.349 . S
C1229 H1221 0.950 . S
C1229 C1227 1.327 . S
C1230 C1218 1.349 . S
C1230 H1224 0.950 . S
C1230 C1231 1.327 . S
C1231 H1225 0.950 . S
C1231 C1230 1.327 . S
C1231 C1235 1.429 . S
C1232 C1215 1.574 . S
C1232 H1226 0.949 . S
C1232 C1236 1.368 . S
C1233 C1214 1.429 . S
C1233 C1227 1.429 . S
C1233 C1234 1.523 . S
C1234 C1215 1.368 . S
C1234 C1228 1.368 . S
C1234 C1233 1.523 . S
C1235 C1219 1.429 . S
C1235 C1231 1.429 . S
C1235 C1236 1.523 . S
C1236 C1220 1.368 . S
C1236 C1232 1.368 . S
C1236 C1235 1.523 . S
H1237 C1212 0.950 . S
H1238 C1214 0.950 . S
H1239 C1215 0.949 . S
H1240 C1217 0.950 . S
H1241 C1219 0.950 . S
C1242 C1243 1.349 . S
C1242 C1244 1.327 . S
C1242 H1267 0.950 . S
C1243 C1242 1.349 . S
C1243 C1259 1.349 . S
C1244 C1242 1.327 . S
C1244 C1263 1.429 . S
C1244 H1268 0.950 . S
C1245 C1262 1.574 . S
C1245 C1264 1.368 . S
C1245 H1269 0.949 . S
H1246 C1250 0.949 . S
C1247 C1248 1.349 . S
C1247 C1249 1.327 . S
C1247 H1270 0.950 . S
C1248 C1247 1.349 . S
C1248 C1260 1.349 . S
C1249 C1247 1.327 . S
C1249 C1265 1.429 . S
C1249 H1271 0.950 . S
C1250 H1246 0.949 . S
C1250 C1258 1.574 . S
C1250 C1266 1.368 . S
H1251 C1259 0.950 . S
H1252 C1257 0.950 . S
H1253 C1258 0.949 . S
H1254 C1260 0.950 . S
H1255 C1261 0.950 . S
H1256 C1262 0.949 . S
C1257 H1252 0.950 . S
C1257 C1259 1.327 . S
C1257 C1263 1.429 . S
C1258 C1250 1.574 . S
C1258 H1253 0.949 . S
C1258 C1264 1.368 . S
C1259 C1243 1.349 . S
C1259 H1251 0.950 . S
C1259 C1257 1.327 . S
C1260 C1248 1.349 . S
C1260 H1254 0.950 . S
C1260 C1261 1.327 . S
C1261 H1255 0.950 . S
C1261 C1260 1.327 . S
C1261 C1265 1.429 . S
C1262 C1245 1.574 . S
C1262 H1256 0.949 . S
C1262 C1266 1.368 . S
C1263 C1244 1.429 . S
C1263 C1257 1.429 . S
C1263 C1264 1.523 . S
C1264 C1245 1.368 . S
C1264 C1258 1.368 . S
C1264 C1263 1.523 . S
C1265 C1249 1.429 . S
C1265 C1261 1.429 . S
C1265 C1266 1.523 . S
C1266 C1250 1.368 . S
C1266 C1262 1.368 . S
C1266 C1265 1.523 . S
H1267 C1242 0.950 . S
H1268 C1244 0.950 . S
H1269 C1245 0.949 . S
H1270 C1247 0.950 . S
H1271 C1249 0.950 . S
C1272 C1273 1.349 . S
C1272 C1274 1.327 . S
C1272 H1297 0.950 . S
C1273 C1272 1.349 . S
C1273 C1289 1.349 . S
C1274 C1272 1.327 . S
C1274 C1293 1.429 . S
C1274 H1298 0.950 . S
C1275 C1292 1.574 . S
C1275 C1294 1.368 . S
C1275 H1299 0.949 . S
H1276 C1280 0.949 . S
C1277 C1278 1.349 . S
C1277 C1279 1.327 . S
C1277 H1300 0.950 . S
C1278 C1277 1.349 . S
C1278 C1290 1.349 . S
C1279 C1277 1.327 . S
C1279 C1295 1.429 . S
C1279 H1301 0.950 . S
C1280 H1276 0.949 . S
C1280 C1288 1.574 . S
C1280 C1296 1.368 . S
H1281 C1289 0.950 . S
H1282 C1287 0.950 . S
H1283 C1288 0.949 . S
H1284 C1290 0.950 . S
H1285 C1291 0.950 . S
H1286 C1292 0.949 . S
C1287 H1282 0.950 . S
C1287 C1289 1.327 . S
C1287 C1293 1.429 . S
C1288 C1280 1.574 . S
C1288 H1283 0.949 . S
C1288 C1294 1.368 . S
C1289 C1273 1.349 . S
C1289 H1281 0.950 . S
C1289 C1287 1.327 . S
C1290 C1278 1.349 . S
C1290 H1284 0.950 . S
C1290 C1291 1.327 . S
C1291 H1285 0.950 . S
C1291 C1290 1.327 . S
C1291 C1295 1.429 . S
C1292 C1275 1.574 . S
C1292 H1286 0.949 . S
C1292 C1296 1.368 . S
C1293 C1274 1.429 . S
C1293 C1287 1.429 . S
C1293 C1294 1.523 . S
C1294 C1275 1.368 . S
C1294 C1288 1.368 . S
C1294 C1293 1.523 . S
C1295 C1279 1.429 . S
C1295 C1291 1.429 . S
C1295 C1296 1.523 . S
C1296 C1280 1.368 . S
C1296 C1292 1.368 . S
C1296 C1295 1.523 . S
H1297 C1272 0.950 . S
H1298 C1274 0.950 . S
H1299 C1275 0.949 . S
H1300 C1277 0.950 . S
H1301 C1279 0.950 . S
C1302 C1303 1.349 . S
C1302 C1304 1.327 . S
C1302 H1327 0.950 . S
C1303 C1302 1.349 . S
C1303 C1319 1.349 . S
C1304 C1302 1.327 . S
C1304 C1323 1.429 . S
C1304 H1328 0.950 . S
C1305 C1322 1.574 . S
C1305 C1324 1.368 . S
C1305 H1329 0.949 . S
H1306 C1310 0.949 . S
C1307 C1308 1.349 . S
C1307 C1309 1.327 . S
C1307 H1330 0.950 . S
C1308 C1307 1.349 . S
C1308 C1320 1.349 . S
C1309 C1307 1.327 . S
C1309 C1325 1.429 . S
C1309 H1331 0.950 . S
C1310 H1306 0.949 . S
C1310 C1318 1.574 . S
C1310 C1326 1.368 . S
H1311 C1319 0.950 . S
H1312 C1317 0.950 . S
H1313 C1318 0.949 . S
H1314 C1320 0.950 . S
H1315 C1321 0.950 . S
H1316 C1322 0.949 . S
C1317 H1312 0.950 . S
C1317 C1319 1.327 . S
C1317 C1323 1.429 . S
C1318 C1310 1.574 . S
C1318 H1313 0.949 . S
C1318 C1324 1.368 . S
C1319 C1303 1.349 . S
C1319 H1311 0.950 . S
C1319 C1317 1.327 . S
C1320 C1308 1.349 . S
C1320 H1314 0.950 . S
C1320 C1321 1.327 . S
C1321 H1315 0.950 . S
C1321 C1320 1.327 . S
C1321 C1325 1.429 . S
C1322 C1305 1.574 . S
C1322 H1316 0.949 . S
C1322 C1326 1.368 . S
C1323 C1304 1.429 . S
C1323 C1317 1.429 . S
C1323 C1324 1.523 . S
C1324 C1305 1.368 . S
C1324 C1318 1.368 . S
C1324 C1323 1.523 . S
C1325 C1309 1.429 . S
C1325 C1321 1.429 . S
C1325 C1326 1.523 . S
C1326 C1310 1.368 . S
C1326 C1322 1.368 . S
C1326 C1325 1.523 . S
H1327 C1302 0.950 . S
H1328 C1304 0.950 . S
H1329 C1305 0.949 . S
H1330 C1307 0.950 . S
H1331 C1309 0.950 . S
C1332 C1333 1.349 . S
C1332 C1334 1.380 . S
C1332 H1357 0.950 . S
C1333 C1332 1.349 . S
C1333 C1349 1.349 . S
C1334 C1332 1.380 . S
C1334 C1353 1.423 1_545 S
C1334 H1358 0.904 1_545 S
C1335 C1352 1.574 . S
C1335 C1354 1.368 . S
C1335 H1359 0.949 . S
H1336 C1340 0.949 . S
C1337 C1338 1.349 . S
C1337 C1339 1.327 . S
C1337 H1360 0.950 . S
C1338 C1337 1.349 . S
C1338 C1350 1.349 . S
C1339 C1337 1.327 . S
C1339 C1355 1.429 . S
C1339 H1361 0.950 . S
C1340 H1336 0.949 . S
C1340 C1348 1.574 . S
C1340 C1356 1.368 . S
H1341 C1349 0.950 . S
H1342 C1347 0.950 1_565 S
H1343 C1348 0.949 . S
H1344 C1350 0.950 . S
H1345 C1351 0.950 . S
H1346 C1352 0.949 . S
C1347 H1342 0.950 1_545 S
C1347 C1349 1.327 . S
C1347 C1353 1.429 1_545 S
C1348 C1340 1.574 . S
C1348 H1343 0.949 . S
C1348 C1354 1.368 . S
C1349 C1333 1.349 . S
C1349 H1341 0.950 . S
C1349 C1347 1.327 . S
C1350 C1338 1.349 . S
C1350 H1344 0.950 . S
C1350 C1351 1.327 . S
C1351 H1345 0.950 . S
C1351 C1350 1.327 . S
C1351 C1355 1.429 . S
C1352 C1335 1.574 . S
C1352 H1346 0.949 . S
C1352 C1356 1.368 . S
C1353 C1334 1.423 1_565 S
C1353 C1347 1.429 1_565 S
C1353 C1354 1.523 . S
C1354 C1335 1.368 . S
C1354 C1348 1.368 . S
C1354 C1353 1.523 . S
C1355 C1339 1.429 . S
C1355 C1351 1.429 . S
C1355 C1356 1.523 . S
C1356 C1340 1.368 . S
C1356 C1352 1.368 . S
C1356 C1355 1.523 . S
H1357 C1332 0.950 . S
H1358 C1334 0.904 1_565 S
H1359 C1335 0.949 . S
H1360 C1337 0.950 . S
H1361 C1339 0.950 . S
C1362 C1363 1.349 1_455 S
C1362 C1364 1.327 . S
C1362 H1387 0.950 1_455 S
C1363 C1362 1.349 1_655 S
C1363 C1379 1.349 . S
C1364 C1362 1.327 . S
C1364 C1383 1.429 . S
C1364 H1388 0.950 . S
C1365 C1382 1.574 . S
C1365 C1384 1.368 . S
C1365 H1389 0.949 . S
H1366 C1370 0.949 . S
C1367 C1368 1.349 . S
C1367 C1369 1.327 . S
C1367 H1390 0.950 . S
C1368 C1367 1.349 . S
C1368 C1380 1.349 . S
C1369 C1367 1.327 . S
C1369 C1385 1.429 . S
C1369 H1391 0.950 . S
C1370 H1366 0.949 . S
C1370 C1378 1.574 . S
C1370 C1386 1.368 . S
H1371 C1379 0.950 . S
H1372 C1377 0.950 . S
H1373 C1378 0.949 . S
H1374 C1380 0.950 . S
H1375 C1381 0.950 . S
H1376 C1382 0.949 . S
C1377 H1372 0.950 . S
C1377 C1379 1.327 1_455 S
C1377 C1383 1.429 . S
C1378 C1370 1.574 . S
C1378 H1373 0.949 . S
C1378 C1384 1.368 . S
C1379 C1363 1.349 . S
C1379 H1371 0.950 . S
C1379 C1377 1.327 1_655 S
C1380 C1368 1.349 . S
C1380 H1374 0.950 . S
C1380 C1381 1.327 . S
C1381 H1375 0.950 . S
C1381 C1380 1.327 . S
C1381 C1385 1.429 . S
C1382 C1365 1.574 . S
C1382 H1376 0.949 . S
C1382 C1386 1.368 . S
C1383 C1364 1.429 . S
C1383 C1377 1.429 . S
C1383 C1384 1.523 . S
C1384 C1365 1.368 . S
C1384 C1378 1.368 . S
C1384 C1383 1.523 . S
C1385 C1369 1.429 . S
C1385 C1381 1.429 . S
C1385 C1386 1.523 . S
C1386 C1370 1.368 . S
C1386 C1382 1.368 . S
C1386 C1385 1.523 . S
H1387 C1362 0.950 1_655 S
H1388 C1364 0.950 . S
H1389 C1365 0.949 . S
H1390 C1367 0.950 . S
H1391 C1369 0.950 . S
C1392 C1393 1.349 . S
C1392 C1394 1.327 . S
C1392 H1417 0.950 . S
C1393 C1392 1.349 . S
C1393 C1409 1.349 . S
C1394 C1392 1.327 . S
C1394 C1413 1.429 . S
C1394 H1418 0.950 . S
C1395 C1412 1.574 . S
C1395 C1414 1.368 . S
C1395 H1419 0.949 . S
H1396 C1400 0.949 . S
C1397 C1398 1.349 . S
C1397 C1399 1.327 . S
C1397 H1420 0.950 . S
C1398 C1397 1.349 . S
C1398 C1410 1.349 . S
C1399 C1397 1.327 . S
C1399 C1415 1.429 . S
C1399 H1421 0.950 . S
C1400 H1396 0.949 . S
C1400 C1408 1.574 . S
C1400 C1416 1.368 . S
H1401 C1409 0.950 . S
H1402 C1407 0.950 . S
H1403 C1408 0.949 . S
H1404 C1410 0.950 . S
H1405 C1411 0.950 . S
H1406 C1412 0.949 . S
C1407 H1402 0.950 . S
C1407 C1409 1.327 . S
C1407 C1413 1.429 . S
C1408 C1400 1.574 . S
C1408 H1403 0.949 . S
C1408 C1414 1.368 . S
C1409 C1393 1.349 . S
C1409 H1401 0.950 . S
C1409 C1407 1.327 . S
C1410 C1398 1.349 . S
C1410 H1404 0.950 . S
C1410 C1411 1.327 . S
C1411 H1405 0.950 . S
C1411 C1410 1.327 . S
C1411 C1415 1.429 . S
C1412 C1395 1.574 . S
C1412 H1406 0.949 . S
C1412 C1416 1.368 . S
C1413 C1394 1.429 . S
C1413 C1407 1.429 . S
C1413 C1414 1.523 . S
C1414 C1395 1.368 . S
C1414 C1408 1.368 . S
C1414 C1413 1.523 . S
C1415 C1399 1.429 . S
C1415 C1411 1.429 . S
C1415 C1416 1.523 . S
C1416 C1400 1.368 . S
C1416 C1412 1.368 . S
C1416 C1415 1.523 . S
H1417 C1392 0.950 . S
H1418 C1394 0.950 . S
H1419 C1395 0.949 . S
H1420 C1397 0.950 . S
H1421 C1399 0.950 . S
C1422 C1423 1.349 . S
C1422 C1424 1.327 . S
C1422 H1447 0.950 . S
C1423 C1422 1.349 . S
C1423 C1439 1.349 . S
C1424 C1422 1.327 . S
C1424 C1443 1.429 . S
C1424 H1448 0.950 . S
C1425 C1442 1.574 . S
C1425 C1444 1.368 . S
C1425 H1449 0.949 . S
H1426 C1430 0.949 . S
C1427 C1428 1.349 . S
C1427 C1429 1.327 . S
C1427 H1450 0.950 . S
C1428 C1427 1.349 . S
C1428 C1440 1.349 . S
C1429 C1427 1.327 . S
C1429 C1445 1.429 . S
C1429 H1451 0.950 . S
C1430 H1426 0.949 . S
C1430 C1438 1.574 . S
C1430 C1446 1.368 . S
H1431 C1439 0.950 . S
H1432 C1437 0.950 . S
H1433 C1438 0.949 . S
H1434 C1440 0.950 . S
H1435 C1441 0.950 . S
H1436 C1442 0.949 . S
C1437 H1432 0.950 . S
C1437 C1439 1.327 . S
C1437 C1443 1.429 . S
C1438 C1430 1.574 . S
C1438 H1433 0.949 . S
C1438 C1444 1.368 . S
C1439 C1423 1.349 . S
C1439 H1431 0.950 . S
C1439 C1437 1.327 . S
C1440 C1428 1.349 . S
C1440 H1434 0.950 . S
C1440 C1441 1.327 . S
C1441 H1435 0.950 . S
C1441 C1440 1.327 . S
C1441 C1445 1.429 . S
C1442 C1425 1.574 . S
C1442 H1436 0.949 . S
C1442 C1446 1.368 . S
C1443 C1424 1.429 . S
C1443 C1437 1.429 . S
C1443 C1444 1.523 . S
C1444 C1425 1.368 . S
C1444 C1438 1.368 . S
C1444 C1443 1.523 . S
C1445 C1429 1.429 . S
C1445 C1441 1.429 . S
C1445 C1446 1.523 . S
C1446 C1430 1.368 . S
C1446 C1442 1.368 . S
C1446 C1445 1.523 . S
H1447 C1422 0.950 . S
H1448 C1424 0.950 . S
H1449 C1425 0.949 . S
H1450 C1427 0.950 . S
H1451 C1429 0.950 . S
C1452 C1453 1.349 . S
C1452 C1454 1.327 . S
C1452 H1477 0.950 . S
C1453 C1452 1.349 . S
C1453 C1469 1.349 . S
C1454 C1452 1.327 . S
C1454 C1473 1.429 . S
C1454 H1478 0.950 . S
C1455 C1472 1.574 . S
C1455 C1474 1.368 . S
C1455 H1479 0.949 . S
H1456 C1460 0.949 . S
C1457 C1458 1.349 . S
C1457 C1459 1.327 . S
C1457 H1480 0.950 . S
C1458 C1457 1.349 . S
C1458 C1470 1.349 . S
C1459 C1457 1.327 . S
C1459 C1475 1.429 . S
C1459 H1481 0.950 . S
C1460 H1456 0.949 . S
C1460 C1468 1.574 . S
C1460 C1476 1.368 . S
H1461 C1469 0.950 . S
H1462 C1467 0.950 . S
H1463 C1468 0.949 . S
H1464 C1470 0.950 . S
H1465 C1471 0.950 . S
H1466 C1472 0.949 . S
C1467 H1462 0.950 . S
C1467 C1469 1.327 . S
C1467 C1473 1.429 . S
C1468 C1460 1.574 . S
C1468 H1463 0.949 . S
C1468 C1474 1.368 . S
C1469 C1453 1.349 . S
C1469 H1461 0.950 . S
C1469 C1467 1.327 . S
C1470 C1458 1.349 . S
C1470 H1464 0.950 . S
C1470 C1471 1.327 . S
C1471 H1465 0.950 . S
C1471 C1470 1.327 . S
C1471 C1475 1.429 . S
C1472 C1455 1.574 . S
C1472 H1466 0.949 . S
C1472 C1476 1.368 . S
C1473 C1454 1.429 . S
C1473 C1467 1.429 . S
C1473 C1474 1.523 . S
C1474 C1455 1.368 . S
C1474 C1468 1.368 . S
C1474 C1473 1.523 . S
C1475 C1459 1.429 . S
C1475 C1471 1.429 . S
C1475 C1476 1.523 . S
C1476 C1460 1.368 . S
C1476 C1472 1.368 . S
C1476 C1475 1.523 . S
H1477 C1452 0.950 . S
H1478 C1454 0.950 . S
H1479 C1455 0.949 . S
H1480 C1457 0.950 . S
H1481 C1459 0.950 . S
C1482 C1483 1.349 . S
C1482 C1484 1.327 . S
C1482 H1507 0.950 . S
C1483 C1482 1.349 . S
C1483 C1499 1.349 . S
C1484 C1482 1.327 . S
C1484 C1503 1.429 . S
C1484 H1508 0.950 . S
C1485 C1502 1.574 . S
C1485 C1504 1.368 . S
C1485 H1509 0.949 . S
H1486 C1490 0.949 . S
C1487 C1488 1.349 . S
C1487 C1489 1.327 . S
C1487 H1510 0.950 . S
C1488 C1487 1.349 . S
C1488 C1500 1.349 . S
C1489 C1487 1.327 . S
C1489 C1505 1.429 . S
C1489 H1511 0.950 . S
C1490 H1486 0.949 . S
C1490 C1498 1.574 . S
C1490 C1506 1.368 . S
H1491 C1499 0.950 . S
H1492 C1497 0.950 . S
H1493 C1498 0.949 . S
H1494 C1500 0.950 . S
H1495 C1501 0.950 . S
H1496 C1502 0.949 . S
C1497 H1492 0.950 . S
C1497 C1499 1.327 . S
C1497 C1503 1.429 . S
C1498 C1490 1.574 . S
C1498 H1493 0.949 . S
C1498 C1504 1.368 . S
C1499 C1483 1.349 . S
C1499 H1491 0.950 . S
C1499 C1497 1.327 . S
C1500 C1488 1.349 . S
C1500 H1494 0.950 . S
C1500 C1501 1.327 . S
C1501 H1495 0.950 . S
C1501 C1500 1.327 . S
C1501 C1505 1.429 . S
C1502 C1485 1.574 . S
C1502 H1496 0.949 . S
C1502 C1506 1.368 . S
C1503 C1484 1.429 . S
C1503 C1497 1.429 . S
C1503 C1504 1.523 . S
C1504 C1485 1.368 . S
C1504 C1498 1.368 . S
C1504 C1503 1.523 . S
C1505 C1489 1.429 . S
C1505 C1501 1.429 . S
C1505 C1506 1.523 . S
C1506 C1490 1.368 . S
C1506 C1502 1.368 . S
C1506 C1505 1.523 . S
H1507 C1482 0.950 . S
H1508 C1484 0.950 . S
H1509 C1485 0.949 . S
H1510 C1487 0.950 . S
H1511 C1489 0.950 . S
C1512 C1513 1.349 . S
C1512 C1514 1.327 . S
C1512 H1537 0.950 . S
C1513 C1512 1.349 . S
C1513 C1529 1.349 . S
C1514 C1512 1.327 . S
C1514 C1533 1.429 . S
C1514 H1538 0.950 . S
C1515 C1532 1.574 1_565 S
C1515 C1534 1.368 . S
C1515 H1539 0.949 . S
H1516 C1520 0.958 1_545 S
C1517 C1518 1.349 . S
C1517 C1519 1.327 . S
C1517 H1540 0.950 . S
C1518 C1517 1.349 . S
C1518 C1530 1.349 . S
C1519 C1517 1.327 . S
C1519 C1535 1.429 . S
C1519 H1541 0.950 . S
C1520 H1516 0.958 1_565 S
C1520 C1528 1.614 . S
C1520 C1536 1.322 1_565 S
H1521 C1529 0.950 . S
H1522 C1527 0.950 . S
H1523 C1528 0.949 . S
H1524 C1530 0.950 . S
H1525 C1531 0.950 . S
H1526 C1532 0.949 . S
C1527 H1522 0.950 . S
C1527 C1529 1.327 . S
C1527 C1533 1.429 . S
C1528 C1520 1.614 . S
C1528 H1523 0.949 . S
C1528 C1534 1.368 . S
C1529 C1513 1.349 . S
C1529 H1521 0.950 . S
C1529 C1527 1.327 . S
C1530 C1518 1.349 . S
C1530 H1524 0.950 . S
C1530 C1531 1.327 . S
C1531 H1525 0.950 . S
C1531 C1530 1.327 . S
C1531 C1535 1.429 . S
C1532 C1515 1.574 1_545 S
C1532 H1526 0.949 . S
C1532 C1536 1.368 . S
C1533 C1514 1.429 . S
C1533 C1527 1.429 . S
C1533 C1534 1.523 . S
C1534 C1515 1.368 . S
C1534 C1528 1.368 . S
C1534 C1533 1.523 . S
C1535 C1519 1.429 . S
C1535 C1531 1.429 . S
C1535 C1536 1.523 . S
C1536 C1520 1.322 1_545 S
C1536 C1532 1.368 . S
C1536 C1535 1.523 . S
H1537 C1512 0.950 . S
H1538 C1514 0.950 . S
H1539 C1515 0.949 . S
H1540 C1517 0.950 . S
H1541 C1519 0.950 . S
C1542 C1543 1.349 . S
C1542 C1544 1.327 . S
C1542 H1567 0.950 . S
C1543 C1542 1.349 . S
C1543 C1559 1.349 . S
C1544 C1542 1.327 . S
C1544 C1563 1.429 . S
C1544 H1568 0.950 . S
C1545 C1562 1.574 1_455 S
C1545 C1564 1.368 . S
C1545 H1569 0.949 . S
H1546 C1550 0.949 . S
C1547 C1548 1.349 . S
C1547 C1549 1.327 . S
C1547 H1570 0.950 . S
C1548 C1547 1.349 . S
C1548 C1560 1.349 . S
C1549 C1547 1.327 . S
C1549 C1565 1.429 . S
C1549 H1571 0.950 . S
C1550 H1546 0.949 . S
C1550 C1558 1.574 1_655 S
C1550 C1566 1.368 . S
H1551 C1559 0.950 . S
H1552 C1557 0.950 . S
H1553 C1558 0.949 . S
H1554 C1560 0.950 . S
H1555 C1561 0.950 . S
H1556 C1562 0.949 . S
C1557 H1552 0.950 . S
C1557 C1559 1.327 . S
C1557 C1563 1.429 . S
C1558 C1550 1.574 1_455 S
C1558 H1553 0.949 . S
C1558 C1564 1.368 . S
C1559 C1543 1.349 . S
C1559 H1551 0.950 . S
C1559 C1557 1.327 . S
C1560 C1548 1.349 . S
C1560 H1554 0.950 . S
C1560 C1561 1.327 . S
C1561 H1555 0.950 . S
C1561 C1560 1.327 . S
C1561 C1565 1.429 . S
C1562 C1545 1.574 1_655 S
C1562 H1556 0.949 . S
C1562 C1566 1.368 . S
C1563 C1544 1.429 . S
C1563 C1557 1.429 . S
C1563 C1564 1.523 . S
C1564 C1545 1.368 . S
C1564 C1558 1.368 . S
C1564 C1563 1.523 . S
C1565 C1549 1.429 . S
C1565 C1561 1.429 . S
C1565 C1566 1.523 . S
C1566 C1550 1.368 . S
C1566 C1562 1.368 . S
C1566 C1565 1.523 . S
H1567 C1542 0.950 . S
H1568 C1544 0.950 . S
H1569 C1545 0.949 . S
H1570 C1547 0.950 . S
H1571 C1549 0.950 . S
C1572 C1573 1.349 . S
C1572 C1574 1.327 . S
C1572 H1597 0.950 . S
C1573 C1572 1.349 . S
C1573 C1589 1.349 . S
C1574 C1572 1.327 . S
C1574 C1593 1.429 . S
C1574 H1598 0.950 . S
C1575 C1592 1.574 . S
C1575 C1594 1.368 . S
C1575 H1599 0.949 . S
H1576 C1580 0.949 . S
C1577 C1578 1.349 . S
C1577 C1579 1.327 . S
C1577 H1600 0.950 . S
C1578 C1577 1.349 . S
C1578 C1590 1.349 . S
C1579 C1577 1.327 . S
C1579 C1595 1.429 . S
C1579 H1601 0.950 . S
C1580 H1576 0.949 . S
C1580 C1588 1.574 . S
C1580 C1596 1.368 . S
H1581 C1589 0.950 . S
H1582 C1587 0.950 . S
H1583 C1588 0.949 . S
H1584 C1590 0.950 . S
H1585 C1591 0.950 . S
H1586 C1592 0.949 . S
C1587 H1582 0.950 . S
C1587 C1589 1.327 . S
C1587 C1593 1.429 . S
C1588 C1580 1.574 . S
C1588 H1583 0.949 . S
C1588 C1594 1.368 . S
C1589 C1573 1.349 . S
C1589 H1581 0.950 . S
C1589 C1587 1.327 . S
C1590 C1578 1.349 . S
C1590 H1584 0.950 . S
C1590 C1591 1.327 . S
C1591 H1585 0.950 . S
C1591 C1590 1.327 . S
C1591 C1595 1.429 . S
C1592 C1575 1.574 . S
C1592 H1586 0.949 . S
C1592 C1596 1.368 . S
C1593 C1574 1.429 . S
C1593 C1587 1.429 . S
C1593 C1594 1.523 . S
C1594 C1575 1.368 . S
C1594 C1588 1.368 . S
C1594 C1593 1.523 . S
C1595 C1579 1.429 . S
C1595 C1591 1.429 . S
C1595 C1596 1.523 . S
C1596 C1580 1.368 . S
C1596 C1592 1.368 . S
C1596 C1595 1.523 . S
H1597 C1572 0.950 . S
H1598 C1574 0.950 . S
H1599 C1575 0.949 . S
H1600 C1577 0.950 . S
H1601 C1579 0.950 . S
C1602 C1603 1.349 . S
C1602 C1604 1.327 1_455 S
C1602 H1627 0.950 . S
C1603 C1602 1.349 . S
C1603 C1619 1.349 . S
C1604 C1602 1.327 1_655 S
C1604 C1623 1.429 . S
C1604 H1628 0.950 . S
C1605 C1622 1.574 . S
C1605 C1624 1.368 . S
C1605 H1629 0.949 . S
H1606 C1610 0.949 . S
C1607 C1608 1.349 . S
C1607 C1609 1.327 . S
C1607 H1630 0.950 . S
C1608 C1607 1.349 . S
C1608 C1620 1.349 . S
C1609 C1607 1.327 . S
C1609 C1625 1.429 . S
C1609 H1631 0.950 . S
C1610 H1606 0.949 . S
C1610 C1618 1.574 . S
C1610 C1626 1.368 . S
H1611 C1619 0.950 . S
H1612 C1617 0.950 1_655 S
H1613 C1618 0.949 . S
H1614 C1620 0.950 . S
H1615 C1621 0.950 . S
H1616 C1622 0.949 . S
C1617 H1612 0.950 1_455 S
C1617 C1619 1.327 . S
C1617 C1623 1.429 1_455 S
C1618 C1610 1.574 . S
C1618 H1613 0.949 . S
C1618 C1624 1.368 . S
C1619 C1603 1.349 . S
C1619 H1611 0.950 . S
C1619 C1617 1.327 . S
C1620 C1608 1.349 . S
C1620 H1614 0.950 . S
C1620 C1621 1.327 . S
C1621 H1615 0.950 . S
C1621 C1620 1.327 . S
C1621 C1625 1.429 . S
C1622 C1605 1.574 . S
C1622 H1616 0.949 . S
C1622 C1626 1.368 . S
C1623 C1604 1.429 . S
C1623 C1617 1.429 1_655 S
C1623 C1624 1.523 . S
C1624 C1605 1.368 . S
C1624 C1618 1.368 . S
C1624 C1623 1.523 . S
C1625 C1609 1.429 . S
C1625 C1621 1.429 . S
C1625 C1626 1.523 . S
C1626 C1610 1.368 . S
C1626 C1622 1.368 . S
C1626 C1625 1.523 . S
H1627 C1602 0.950 . S
H1628 C1604 0.950 . S
H1629 C1605 0.949 . S
H1630 C1607 0.950 . S
H1631 C1609 0.950 . S
C1632 C1633 1.349 . S
C1632 C1634 1.327 . S
C1632 H1657 0.950 . S
C1633 C1632 1.349 . S
C1633 C1649 1.349 . S
C1634 C1632 1.327 . S
C1634 C1653 1.429 . S
C1634 H1658 0.950 . S
C1635 C1652 1.574 . S
C1635 C1654 1.368 . S
C1635 H1659 0.949 . S
H1636 C1640 0.949 . S
C1637 C1638 1.349 . S
C1637 C1639 1.327 . S
C1637 H1660 0.950 . S
C1638 C1637 1.349 . S
C1638 C1650 1.349 . S
C1639 C1637 1.327 . S
C1639 C1655 1.429 . S
C1639 H1661 0.950 . S
C1640 H1636 0.949 . S
C1640 C1648 1.574 . S
C1640 C1656 1.368 . S
H1641 C1649 0.950 . S
H1642 C1647 0.950 . S
H1643 C1648 0.949 . S
H1644 C1650 0.950 . S
H1645 C1651 0.950 . S
H1646 C1652 0.949 . S
C1647 H1642 0.950 . S
C1647 C1649 1.327 . S
C1647 C1653 1.429 . S
C1648 C1640 1.574 . S
C1648 H1643 0.949 . S
C1648 C1654 1.368 . S
C1649 C1633 1.349 . S
C1649 H1641 0.950 . S
C1649 C1647 1.327 . S
C1650 C1638 1.349 . S
C1650 H1644 0.950 . S
C1650 C1651 1.327 . S
C1651 H1645 0.950 . S
C1651 C1650 1.327 . S
C1651 C1655 1.429 . S
C1652 C1635 1.574 . S
C1652 H1646 0.949 . S
C1652 C1656 1.368 . S
C1653 C1634 1.429 . S
C1653 C1647 1.429 . S
C1653 C1654 1.523 . S
C1654 C1635 1.368 . S
C1654 C1648 1.368 . S
C1654 C1653 1.523 . S
C1655 C1639 1.429 . S
C1655 C1651 1.429 . S
C1655 C1656 1.523 . S
C1656 C1640 1.368 . S
C1656 C1652 1.368 . S
C1656 C1655 1.523 . S
H1657 C1632 0.950 . S
H1658 C1634 0.950 . S
H1659 C1635 0.949 . S
H1660 C1637 0.950 . S
H1661 C1639 0.950 . S
C1662 C1663 1.349 . S
C1662 C1664 1.327 1_565 S
C1662 H1687 0.950 . S
C1663 C1662 1.349 . S
C1663 C1679 1.349 . S
C1664 C1662 1.327 1_545 S
C1664 C1683 1.429 . S
C1664 H1688 0.950 . S
C1665 C1682 1.574 . S
C1665 C1684 1.368 . S
C1665 H1689 0.949 . S
H1666 C1670 0.949 . S
C1667 C1668 1.349 . S
C1667 C1669 1.327 . S
C1667 H1690 0.950 . S
C1668 C1667 1.349 . S
C1668 C1680 1.349 . S
C1669 C1667 1.327 . S
C1669 C1685 1.429 . S
C1669 H1691 0.950 . S
C1670 H1666 0.949 . S
C1670 C1678 1.574 . S
C1670 C1686 1.368 . S
H1671 C1679 0.950 . S
H1672 C1677 0.950 . S
H1673 C1678 0.949 . S
H1674 C1680 0.950 . S
H1675 C1681 0.950 . S
H1676 C1682 0.949 . S
C1677 H1672 0.950 . S
C1677 C1679 1.327 1_545 S
C1677 C1683 1.429 . S
C1678 C1670 1.574 . S
C1678 H1673 0.949 . S
C1678 C1684 1.368 . S
C1679 C1663 1.349 . S
C1679 H1671 0.950 . S
C1679 C1677 1.327 1_565 S
C1680 C1668 1.349 . S
C1680 H1674 0.950 . S
C1680 C1681 1.327 . S
C1681 H1675 0.950 . S
C1681 C1680 1.327 . S
C1681 C1685 1.429 . S
C1682 C1665 1.574 . S
C1682 H1676 0.949 . S
C1682 C1686 1.368 . S
C1683 C1664 1.429 . S
C1683 C1677 1.429 . S
C1683 C1684 1.523 . S
C1684 C1665 1.368 . S
C1684 C1678 1.368 . S
C1684 C1683 1.523 . S
C1685 C1669 1.429 . S
C1685 C1681 1.429 . S
C1685 C1686 1.523 . S
C1686 C1670 1.368 . S
C1686 C1682 1.368 . S
C1686 C1685 1.523 . S
H1687 C1662 0.950 . S
H1688 C1664 0.950 . S
H1689 C1665 0.949 . S
H1690 C1667 0.950 . S
H1691 C1669 0.950 . S
C1692 C1693 1.349 . S
C1692 C1694 1.327 . S
C1692 H1717 0.950 . S
C1693 C1692 1.349 . S
C1693 C1709 1.349 . S
C1694 C1692 1.327 . S
C1694 C1713 1.429 . S
C1694 H1718 0.950 . S
C1695 C1712 1.574 . S
C1695 C1714 1.368 . S
C1695 H1719 0.949 . S
H1696 C1700 0.949 . S
C1697 C1698 1.349 . S
C1697 C1699 1.327 . S
C1697 H1720 0.950 . S
C1698 C1697 1.349 . S
C1698 C1710 1.349 . S
C1699 C1697 1.327 . S
C1699 C1715 1.429 . S
C1699 H1721 0.950 . S
C1700 H1696 0.949 . S
C1700 C1708 1.574 . S
C1700 C1716 1.368 . S
H1701 C1709 0.950 . S
H1702 C1707 0.950 . S
H1703 C1708 0.949 . S
H1704 C1710 0.950 . S
H1705 C1711 0.950 . S
H1706 C1712 0.949 . S
C1707 H1702 0.950 . S
C1707 C1709 1.327 . S
C1707 C1713 1.429 . S
C1708 C1700 1.574 . S
C1708 H1703 0.949 . S
C1708 C1714 1.368 . S
C1709 C1693 1.349 . S
C1709 H1701 0.950 . S
C1709 C1707 1.327 . S
C1710 C1698 1.349 . S
C1710 H1704 0.950 . S
C1710 C1711 1.327 . S
C1711 H1705 0.950 . S
C1711 C1710 1.327 . S
C1711 C1715 1.429 . S
C1712 C1695 1.574 . S
C1712 H1706 0.949 . S
C1712 C1716 1.368 . S
C1713 C1694 1.429 . S
C1713 C1707 1.429 . S
C1713 C1714 1.523 . S
C1714 C1695 1.368 . S
C1714 C1708 1.368 . S
C1714 C1713 1.523 . S
C1715 C1699 1.429 . S
C1715 C1711 1.429 . S
C1715 C1716 1.523 . S
C1716 C1700 1.368 . S
C1716 C1712 1.368 . S
C1716 C1715 1.523 . S
H1717 C1692 0.950 . S
H1718 C1694 0.950 . S
H1719 C1695 0.949 . S
H1720 C1697 0.950 . S
H1721 C1699 0.950 . S
C1722 C1723 1.349 . S
C1722 C1724 1.327 . S
C1722 H1747 0.950 . S
C1723 C1722 1.349 . S
C1723 C1739 1.349 . S
C1724 C1722 1.327 . S
C1724 C1743 1.429 . S
C1724 H1748 0.950 . S
C1725 C1742 1.574 . S
C1725 C1744 1.368 . S
C1725 H1749 0.949 . S
H1726 C1730 0.949 . S
C1727 C1728 1.349 . S
C1727 C1729 1.327 . S
C1727 H1750 0.950 . S
C1728 C1727 1.349 . S
C1728 C1740 1.349 . S
C1729 C1727 1.327 . S
C1729 C1745 1.429 . S
C1729 H1751 0.950 . S
C1730 H1726 0.949 . S
C1730 C1738 1.574 . S
C1730 C1746 1.368 . S
H1731 C1739 0.950 . S
H1732 C1737 0.950 . S
H1733 C1738 0.949 . S
H1734 C1740 0.950 . S
H1735 C1741 0.950 . S
H1736 C1742 0.949 . S
C1737 H1732 0.950 . S
C1737 C1739 1.327 . S
C1737 C1743 1.429 . S
C1738 C1730 1.574 . S
C1738 H1733 0.949 . S
C1738 C1744 1.368 . S
C1739 C1723 1.349 . S
C1739 H1731 0.950 . S
C1739 C1737 1.327 . S
C1740 C1728 1.349 . S
C1740 H1734 0.950 . S
C1740 C1741 1.327 . S
C1741 H1735 0.950 . S
C1741 C1740 1.327 . S
C1741 C1745 1.429 . S
C1742 C1725 1.574 . S
C1742 H1736 0.949 . S
C1742 C1746 1.368 . S
C1743 C1724 1.429 . S
C1743 C1737 1.429 . S
C1743 C1744 1.523 . S
C1744 C1725 1.368 . S
C1744 C1738 1.368 . S
C1744 C1743 1.523 . S
C1745 C1729 1.429 . S
C1745 C1741 1.429 . S
C1745 C1746 1.523 . S
C1746 C1730 1.368 . S
C1746 C1742 1.368 . S
C1746 C1745 1.523 . S
H1747 C1722 0.950 . S
H1748 C1724 0.950 . S
H1749 C1725 0.949 . S
H1750 C1727 0.950 . S
H1751 C1729 0.950 . S
C1752 C1753 1.349 . S
C1752 C1754 1.327 . S
C1752 H1777 0.950 . S
C1753 C1752 1.349 . S
C1753 C1769 1.349 . S
C1754 C1752 1.327 . S
C1754 C1773 1.429 . S
C1754 H1778 0.950 . S
C1755 C1772 1.574 . S
C1755 C1774 1.368 . S
C1755 H1779 0.949 . S
H1756 C1760 0.949 . S
C1757 C1758 1.349 . S
C1757 C1759 1.327 . S
C1757 H1780 0.950 . S
C1758 C1757 1.349 . S
C1758 C1770 1.349 . S
C1759 C1757 1.327 . S
C1759 C1775 1.429 . S
C1759 H1781 0.950 . S
C1760 H1756 0.949 . S
C1760 C1768 1.574 . S
C1760 C1776 1.368 . S
H1761 C1769 0.950 . S
H1762 C1767 0.950 . S
H1763 C1768 0.949 . S
H1764 C1770 0.950 . S
H1765 C1771 0.950 . S
H1766 C1772 0.949 . S
C1767 H1762 0.950 . S
C1767 C1769 1.327 . S
C1767 C1773 1.429 . S
C1768 C1760 1.574 . S
C1768 H1763 0.949 . S
C1768 C1774 1.368 . S
C1769 C1753 1.349 . S
C1769 H1761 0.950 . S
C1769 C1767 1.327 . S
C1770 C1758 1.349 . S
C1770 H1764 0.950 . S
C1770 C1771 1.327 . S
C1771 H1765 0.950 . S
C1771 C1770 1.327 . S
C1771 C1775 1.429 . S
C1772 C1755 1.574 . S
C1772 H1766 0.949 . S
C1772 C1776 1.368 . S
C1773 C1754 1.429 . S
C1773 C1767 1.429 . S
C1773 C1774 1.523 . S
C1774 C1755 1.368 . S
C1774 C1768 1.368 . S
C1774 C1773 1.523 . S
C1775 C1759 1.429 . S
C1775 C1771 1.429 . S
C1775 C1776 1.523 . S
C1776 C1760 1.368 . S
C1776 C1772 1.368 . S
C1776 C1775 1.523 . S
H1777 C1752 0.950 . S
H1778 C1754 0.950 . S
H1779 C1755 0.949 . S
H1780 C1757 0.950 . S
H1781 C1759 0.950 . S
C1782 C1783 1.349 . S
C1782 C1784 1.327 . S
C1782 H1807 0.950 . S
C1783 C1782 1.349 . S
C1783 C1799 1.349 . S
C1784 C1782 1.327 . S
C1784 C1803 1.429 . S
C1784 H1808 0.950 . S
C1785 C1802 1.574 . S
C1785 C1804 1.368 . S
C1785 H1809 0.949 . S
H1786 C1790 0.949 . S
C1787 C1788 1.349 . S
C1787 C1789 1.327 . S
C1787 H1810 0.950 . S
C1788 C1787 1.349 . S
C1788 C1800 1.349 . S
C1789 C1787 1.327 . S
C1789 C1805 1.429 . S
C1789 H1811 0.950 . S
C1790 H1786 0.949 . S
C1790 C1798 1.574 . S
C1790 C1806 1.368 . S
H1791 C1799 0.950 . S
H1792 C1797 0.950 . S
H1793 C1798 0.949 . S
H1794 C1800 0.950 . S
H1795 C1801 0.950 . S
H1796 C1802 0.949 . S
C1797 H1792 0.950 . S
C1797 C1799 1.327 . S
C1797 C1803 1.429 . S
C1798 C1790 1.574 . S
C1798 H1793 0.949 . S
C1798 C1804 1.368 . S
C1799 C1783 1.349 . S
C1799 H1791 0.950 . S
C1799 C1797 1.327 . S
C1800 C1788 1.349 . S
C1800 H1794 0.950 . S
C1800 C1801 1.327 . S
C1801 H1795 0.950 . S
C1801 C1800 1.327 . S
C1801 C1805 1.429 . S
C1802 C1785 1.574 . S
C1802 H1796 0.949 . S
C1802 C1806 1.368 . S
C1803 C1784 1.429 . S
C1803 C1797 1.429 . S
C1803 C1804 1.523 . S
C1804 C1785 1.368 . S
C1804 C1798 1.368 . S
C1804 C1803 1.523 . S
C1805 C1789 1.429 . S
C1805 C1801 1.429 . S
C1805 C1806 1.523 . S
C1806 C1790 1.368 . S
C1806 C1802 1.368 . S
C1806 C1805 1.523 . S
H1807 C1782 0.950 . S
H1808 C1784 0.950 . S
H1809 C1785 0.949 . S
H1810 C1787 0.950 . S
H1811 C1789 0.950 . S
C1812 C1813 1.349 . S
C1812 C1814 1.327 . S
C1812 H1837 0.950 . S
C1813 C1812 1.349 . S
C1813 C1829 1.349 . S
C1814 C1812 1.327 . S
C1814 C1833 1.429 . S
C1814 H1838 0.950 . S
C1815 C1832 1.574 . S
C1815 C1834 1.368 . S
C1815 H1839 0.949 . S
H1816 C1820 0.949 . S
C1817 C1818 1.349 . S
C1817 C1819 1.327 . S
C1817 H1840 0.950 . S
C1818 C1817 1.349 . S
C1818 C1830 1.349 . S
C1819 C1817 1.327 . S
C1819 C1835 1.429 . S
C1819 H1841 0.950 . S
C1820 H1816 0.949 . S
C1820 C1828 1.574 . S
C1820 C1836 1.368 . S
H1821 C1829 0.950 . S
H1822 C1827 0.950 . S
H1823 C1828 0.949 . S
H1824 C1830 0.950 . S
H1825 C1831 0.950 . S
H1826 C1832 0.949 . S
C1827 H1822 0.950 . S
C1827 C1829 1.327 . S
C1827 C1833 1.429 . S
C1828 C1820 1.574 . S
C1828 H1823 0.949 . S
C1828 C1834 1.368 . S
C1829 C1813 1.349 . S
C1829 H1821 0.950 . S
C1829 C1827 1.327 . S
C1830 C1818 1.349 . S
C1830 H1824 0.950 . S
C1830 C1831 1.327 . S
C1831 H1825 0.950 . S
C1831 C1830 1.327 . S
C1831 C1835 1.429 . S
C1832 C1815 1.574 . S
C1832 H1826 0.949 . S
C1832 C1836 1.368 . S
C1833 C1814 1.429 . S
C1833 C1827 1.429 . S
C1833 C1834 1.523 . S
C1834 C1815 1.368 . S
C1834 C1828 1.368 . S
C1834 C1833 1.523 . S
C1835 C1819 1.429 . S
C1835 C1831 1.429 . S
C1835 C1836 1.523 . S
C1836 C1820 1.368 . S
C1836 C1832 1.368 . S
C1836 C1835 1.523 . S
H1837 C1812 0.950 . S
H1838 C1814 0.950 . S
H1839 C1815 0.949 . S
H1840 C1817 0.950 . S
H1841 C1819 0.950 . S
C1842 C1843 1.349 . S
C1842 C1844 1.327 . S
C1842 H1867 0.950 . S
C1843 C1842 1.349 . S
C1843 C1859 1.349 . S
C1844 C1842 1.327 . S
C1844 C1863 1.429 . S
C1844 H1868 0.950 . S
C1845 C1862 1.574 . S
C1845 C1864 1.368 . S
C1845 H1869 0.949 . S
H1846 C1850 0.949 . S
C1847 C1848 1.349 . S
C1847 C1849 1.327 . S
C1847 H1870 0.950 . S
C1848 C1847 1.349 . S
C1848 C1860 1.349 . S
C1849 C1847 1.327 . S
C1849 C1865 1.429 . S
C1849 H1871 0.950 . S
C1850 H1846 0.949 . S
C1850 C1858 1.574 . S
C1850 C1866 1.368 . S
H1851 C1859 0.950 . S
H1852 C1857 0.950 . S
H1853 C1858 0.949 . S
H1854 C1860 0.950 . S
H1855 C1861 0.950 . S
H1856 C1862 0.949 . S
C1857 H1852 0.950 . S
C1857 C1859 1.327 . S
C1857 C1863 1.429 . S
C1858 C1850 1.574 . S
C1858 H1853 0.949 . S
C1858 C1864 1.368 . S
C1859 C1843 1.349 . S
C1859 H1851 0.950 . S
C1859 C1857 1.327 . S
C1860 C1848 1.349 . S
C1860 H1854 0.950 . S
C1860 C1861 1.327 . S
C1861 H1855 0.950 . S
C1861 C1860 1.327 . S
C1861 C1865 1.429 . S
C1862 C1845 1.574 . S
C1862 H1856 0.949 . S
C1862 C1866 1.368 . S
C1863 C1844 1.429 . S
C1863 C1857 1.429 . S
C1863 C1864 1.523 . S
C1864 C1845 1.368 . S
C1864 C1858 1.368 . S
C1864 C1863 1.523 . S
C1865 C1849 1.429 . S
C1865 C1861 1.429 . S
C1865 C1866 1.523 . S
C1866 C1850 1.368 . S
C1866 C1862 1.368 . S
C1866 C1865 1.523 . S
H1867 C1842 0.950 . S
H1868 C1844 0.950 . S
H1869 C1845 0.949 . S
H1870 C1847 0.950 . S
H1871 C1849 0.950 . S
C1872 C1873 1.349 . S
C1872 C1874 1.327 . S
C1872 H1897 0.950 . S
C1873 C1872 1.349 . S
C1873 C1889 1.349 . S
C1874 C1872 1.327 . S
C1874 C1893 1.429 . S
C1874 H1898 0.950 . S
C1875 C1892 1.574 . S
C1875 C1894 1.368 . S
C1875 H1899 0.949 . S
H1876 C1880 0.949 . S
C1877 C1878 1.349 . S
C1877 C1879 1.327 . S
C1877 H1900 0.950 . S
C1878 C1877 1.349 . S
C1878 C1890 1.349 . S
C1879 C1877 1.327 . S
C1879 C1895 1.429 . S
C1879 H1901 0.950 . S
C1880 H1876 0.949 . S
C1880 C1888 1.574 . S
C1880 C1896 1.368 . S
H1881 C1889 0.950 . S
H1882 C1887 0.950 . S
H1883 C1888 0.949 . S
H1884 C1890 0.950 . S
H1885 C1891 0.950 . S
H1886 C1892 0.949 . S
C1887 H1882 0.950 . S
C1887 C1889 1.327 . S
C1887 C1893 1.429 . S
C1888 C1880 1.574 . S
C1888 H1883 0.949 . S
C1888 C1894 1.368 . S
C1889 C1873 1.349 . S
C1889 H1881 0.950 . S
C1889 C1887 1.327 . S
C1890 C1878 1.349 . S
C1890 H1884 0.950 . S
C1890 C1891 1.327 . S
C1891 H1885 0.950 . S
C1891 C1890 1.327 . S
C1891 C1895 1.429 . S
C1892 C1875 1.574 . S
C1892 H1886 0.949 . S
C1892 C1896 1.368 . S
C1893 C1874 1.429 . S
C1893 C1887 1.429 . S
C1893 C1894 1.523 . S
C1894 C1875 1.368 . S
C1894 C1888 1.368 . S
C1894 C1893 1.523 . S
C1895 C1879 1.429 . S
C1895 C1891 1.429 . S
C1895 C1896 1.523 . S
C1896 C1880 1.368 . S
C1896 C1892 1.368 . S
C1896 C1895 1.523 . S
H1897 C1872 0.950 . S
H1898 C1874 0.950 . S
H1899 C1875 0.949 . S
H1900 C1877 0.950 . S
H1901 C1879 0.950 . S
C1902 C1903 1.349 . S
C1902 C1904 1.327 . S
C1902 H1927 0.950 . S
C1903 C1902 1.349 . S
C1903 C1919 1.349 . S
C1904 C1902 1.327 . S
C1904 C1923 1.429 . S
C1904 H1928 0.950 . S
C1905 C1922 1.574 . S
C1905 C1924 1.368 . S
C1905 H1929 0.949 . S
H1906 C1910 0.949 . S
C1907 C1908 1.349 . S
C1907 C1909 1.327 . S
C1907 H1930 0.950 . S
C1908 C1907 1.349 . S
C1908 C1920 1.349 . S
C1909 C1907 1.327 . S
C1909 C1925 1.429 . S
C1909 H1931 0.950 . S
C1910 H1906 0.949 . S
C1910 C1918 1.574 . S
C1910 C1926 1.368 . S
H1911 C1919 0.950 . S
H1912 C1917 0.950 . S
H1913 C1918 0.949 . S
H1914 C1920 0.950 . S
H1915 C1921 0.950 . S
H1916 C1922 0.949 . S
C1917 H1912 0.950 . S
C1917 C1919 1.327 . S
C1917 C1923 1.429 . S
C1918 C1910 1.574 . S
C1918 H1913 0.949 . S
C1918 C1924 1.368 . S
C1919 C1903 1.349 . S
C1919 H1911 0.950 . S
C1919 C1917 1.327 . S
C1920 C1908 1.349 . S
C1920 H1914 0.950 . S
C1920 C1921 1.327 . S
C1921 H1915 0.950 . S
C1921 C1920 1.327 . S
C1921 C1925 1.429 . S
C1922 C1905 1.574 . S
C1922 H1916 0.949 . S
C1922 C1926 1.368 . S
C1923 C1904 1.429 . S
C1923 C1917 1.429 . S
C1923 C1924 1.523 . S
C1924 C1905 1.368 . S
C1924 C1918 1.368 . S
C1924 C1923 1.523 . S
C1925 C1909 1.429 . S
C1925 C1921 1.429 . S
C1925 C1926 1.523 . S
C1926 C1910 1.368 . S
C1926 C1922 1.368 . S
C1926 C1925 1.523 . S
H1927 C1902 0.950 . S
H1928 C1904 0.950 . S
H1929 C1905 0.949 . S
H1930 C1907 0.950 . S
H1931 C1909 0.950 . S
C1932 C1933 1.349 . S
C1932 C1934 1.327 . S
C1932 H1957 0.950 . S
C1933 C1932 1.349 . S
C1933 C1949 1.349 . S
C1934 C1932 1.327 . S
C1934 C1953 1.429 . S
C1934 H1958 0.950 . S
C1935 C1952 1.574 . S
C1935 C1954 1.368 . S
C1935 H1959 0.949 . S
H1936 C1940 0.949 . S
C1937 C1938 1.349 . S
C1937 C1939 1.327 . S
C1937 H1960 0.950 . S
C1938 C1937 1.349 . S
C1938 C1950 1.349 . S
C1939 C1937 1.327 . S
C1939 C1955 1.429 . S
C1939 H1961 0.950 . S
C1940 H1936 0.949 . S
C1940 C1948 1.574 . S
C1940 C1956 1.368 . S
H1941 C1949 0.950 . S
H1942 C1947 0.950 . S
H1943 C1948 0.949 . S
H1944 C1950 0.950 . S
H1945 C1951 0.950 . S
H1946 C1952 0.949 . S
C1947 H1942 0.950 . S
C1947 C1949 1.327 . S
C1947 C1953 1.429 . S
C1948 C1940 1.574 . S
C1948 H1943 0.949 . S
C1948 C1954 1.368 . S
C1949 C1933 1.349 . S
C1949 H1941 0.950 . S
C1949 C1947 1.327 . S
C1950 C1938 1.349 . S
C1950 H1944 0.950 . S
C1950 C1951 1.327 . S
C1951 H1945 0.950 . S
C1951 C1950 1.327 . S
C1951 C1955 1.429 . S
C1952 C1935 1.574 . S
C1952 H1946 0.949 . S
C1952 C1956 1.368 . S
C1953 C1934 1.429 . S
C1953 C1947 1.429 . S
C1953 C1954 1.523 . S
C1954 C1935 1.368 . S
C1954 C1948 1.368 . S
C1954 C1953 1.523 . S
C1955 C1939 1.429 . S
C1955 C1951 1.429 . S
C1955 C1956 1.523 . S
C1956 C1940 1.368 . S
C1956 C1952 1.368 . S
C1956 C1955 1.523 . S
H1957 C1932 0.950 . S
H1958 C1934 0.950 . S
H1959 C1935 0.949 . S
H1960 C1937 0.950 . S
H1961 C1939 0.950 . S
C1962 C1963 1.349 . S
C1962 C1964 1.327 . S
C1962 H1987 0.950 . S
C1963 C1962 1.349 . S
C1963 C1979 1.349 . S
C1964 C1962 1.327 . S
C1964 C1983 1.429 . S
C1964 H1988 0.950 . S
C1965 C1982 1.574 . S
C1965 C1984 1.368 . S
C1965 H1989 0.949 . S
H1966 C1970 0.949 . S
C1967 C1968 1.349 . S
C1967 C1969 1.327 . S
C1967 H1990 0.950 . S
C1968 C1967 1.349 . S
C1968 C1980 1.349 . S
C1969 C1967 1.327 . S
C1969 C1985 1.429 . S
C1969 H1991 0.950 . S
C1970 H1966 0.949 . S
C1970 C1978 1.574 . S
C1970 C1986 1.368 . S
H1971 C1979 0.950 . S
H1972 C1977 0.950 . S
H1973 C1978 0.949 . S
H1974 C1980 0.950 . S
H1975 C1981 0.950 . S
H1976 C1982 0.949 . S
C1977 H1972 0.950 . S
C1977 C1979 1.327 . S
C1977 C1983 1.429 . S
C1978 C1970 1.574 . S
C1978 H1973 0.949 . S
C1978 C1984 1.368 . S
C1979 C1963 1.349 . S
C1979 H1971 0.950 . S
C1979 C1977 1.327 . S
C1980 C1968 1.349 . S
C1980 H1974 0.950 . S
C1980 C1981 1.327 . S
C1981 H1975 0.950 . S
C1981 C1980 1.327 . S
C1981 C1985 1.429 . S
C1982 C1965 1.574 . S
C1982 H1976 0.949 . S
C1982 C1986 1.368 . S
C1983 C1964 1.429 . S
C1983 C1977 1.429 . S
C1983 C1984 1.523 . S
C1984 C1965 1.368 . S
C1984 C1978 1.368 . S
C1984 C1983 1.523 . S
C1985 C1969 1.429 . S
C1985 C1981 1.429 . S
C1985 C1986 1.523 . S
C1986 C1970 1.368 . S
C1986 C1982 1.368 . S
C1986 C1985 1.523 . S
H1987 C1962 0.950 . S
H1988 C1964 0.950 . S
H1989 C1965 0.949 . S
H1990 C1967 0.950 . S
H1991 C1969 0.950 . S
C1992 C1993 1.349 . S
C1992 C1994 1.327 . S
C1992 H2017 0.950 . S
C1993 C1992 1.349 . S
C1993 C2009 1.349 . S
C1994 C1992 1.327 . S
C1994 C2013 1.429 . S
C1994 H2018 0.950 . S
C1995 C2012 1.574 . S
C1995 C2014 1.368 . S
C1995 H2019 0.949 . S
H1996 C2000 0.949 . S
C1997 C1998 1.349 . S
C1997 C1999 1.327 . S
C1997 H2020 0.950 . S
C1998 C1997 1.349 . S
C1998 C2010 1.349 . S
C1999 C1997 1.327 . S
C1999 C2015 1.429 . S
C1999 H2021 0.950 . S
C2000 H1996 0.949 . S
C2000 C2008 1.574 . S
C2000 C2016 1.368 . S
H2001 C2009 0.950 . S
H2002 C2007 0.950 . S
H2003 C2008 0.949 . S
H2004 C2010 0.950 . S
H2005 C2011 0.950 . S
H2006 C2012 0.949 . S
C2007 H2002 0.950 . S
C2007 C2009 1.327 . S
C2007 C2013 1.429 . S
C2008 C2000 1.574 . S
C2008 H2003 0.949 . S
C2008 C2014 1.368 . S
C2009 C1993 1.349 . S
C2009 H2001 0.950 . S
C2009 C2007 1.327 . S
C2010 C1998 1.349 . S
C2010 H2004 0.950 . S
C2010 C2011 1.327 . S
C2011 H2005 0.950 . S
C2011 C2010 1.327 . S
C2011 C2015 1.429 . S
C2012 C1995 1.574 . S
C2012 H2006 0.949 . S
C2012 C2016 1.368 . S
C2013 C1994 1.429 . S
C2013 C2007 1.429 . S
C2013 C2014 1.523 . S
C2014 C1995 1.368 . S
C2014 C2008 1.368 . S
C2014 C2013 1.523 . S
C2015 C1999 1.429 . S
C2015 C2011 1.429 . S
C2015 C2016 1.523 . S
C2016 C2000 1.368 . S
C2016 C2012 1.368 . S
C2016 C2015 1.523 . S
H2017 C1992 0.950 . S
H2018 C1994 0.950 . S
H2019 C1995 0.949 . S
H2020 C1997 0.950 . S
H2021 C1999 0.950 . S
C2022 C2023 1.349 . S
C2022 C2024 1.327 . S
C2022 H2047 0.950 . S
C2023 C2022 1.349 . S
C2023 C2039 1.349 . S
C2024 C2022 1.327 . S
C2024 C2043 1.429 . S
C2024 H2048 0.950 . S
C2025 C2042 1.574 . S
C2025 C2044 1.368 . S
C2025 H2049 0.949 . S
H2026 C2030 0.949 . S
C2027 C2028 1.349 . S
C2027 C2029 1.327 . S
C2027 H2050 0.950 . S
C2028 C2027 1.349 . S
C2028 C2040 1.349 . S
C2029 C2027 1.327 . S
C2029 C2045 1.429 . S
C2029 H2051 0.950 . S
C2030 H2026 0.949 . S
C2030 C2038 1.574 . S
C2030 C2046 1.368 . S
H2031 C2039 0.950 . S
H2032 C2037 0.950 . S
H2033 C2038 0.949 . S
H2034 C2040 0.950 . S
H2035 C2041 0.950 . S
H2036 C2042 0.949 . S
C2037 H2032 0.950 . S
C2037 C2039 1.327 . S
C2037 C2043 1.429 . S
C2038 C2030 1.574 . S
C2038 H2033 0.949 . S
C2038 C2044 1.368 . S
C2039 C2023 1.349 . S
C2039 H2031 0.950 . S
C2039 C2037 1.327 . S
C2040 C2028 1.349 . S
C2040 H2034 0.950 . S
C2040 C2041 1.327 . S
C2041 H2035 0.950 . S
C2041 C2040 1.327 . S
C2041 C2045 1.429 . S
C2042 C2025 1.574 . S
C2042 H2036 0.949 . S
C2042 C2046 1.368 . S
C2043 C2024 1.429 . S
C2043 C2037 1.429 . S
C2043 C2044 1.523 . S
C2044 C2025 1.368 . S
C2044 C2038 1.368 . S
C2044 C2043 1.523 . S
C2045 C2029 1.429 . S
C2045 C2041 1.429 . S
C2045 C2046 1.523 . S
C2046 C2030 1.368 . S
C2046 C2042 1.368 . S
C2046 C2045 1.523 . S
H2047 C2022 0.950 . S
H2048 C2024 0.950 . S
H2049 C2025 0.949 . S
H2050 C2027 0.950 . S
H2051 C2029 0.950 . S
C2052 C2053 1.349 . S
C2052 C2054 1.327 . S
C2052 H2077 0.950 . S
C2053 C2052 1.349 . S
C2053 C2069 1.349 . S
C2054 C2052 1.327 . S
C2054 C2073 1.429 . S
C2054 H2078 0.950 . S
C2055 C2072 1.574 . S
C2055 C2074 1.368 . S
C2055 H2079 0.949 . S
H2056 C2060 0.949 . S
C2057 C2058 1.349 . S
C2057 C2059 1.327 . S
C2057 H2080 0.950 . S
C2058 C2057 1.349 . S
C2058 C2070 1.349 . S
C2059 C2057 1.327 . S
C2059 C2075 1.429 . S
C2059 H2081 0.950 . S
C2060 H2056 0.949 . S
C2060 C2068 1.574 . S
C2060 C2076 1.368 . S
H2061 C2069 0.950 . S
H2062 C2067 0.950 . S
H2063 C2068 0.949 . S
H2064 C2070 0.950 . S
H2065 C2071 0.950 . S
H2066 C2072 0.949 . S
C2067 H2062 0.950 . S
C2067 C2069 1.327 . S
C2067 C2073 1.429 . S
C2068 C2060 1.574 . S
C2068 H2063 0.949 . S
C2068 C2074 1.368 . S
C2069 C2053 1.349 . S
C2069 H2061 0.950 . S
C2069 C2067 1.327 . S
C2070 C2058 1.349 . S
C2070 H2064 0.950 . S
C2070 C2071 1.327 . S
C2071 H2065 0.950 . S
C2071 C2070 1.327 . S
C2071 C2075 1.429 . S
C2072 C2055 1.574 . S
C2072 H2066 0.949 . S
C2072 C2076 1.368 . S
C2073 C2054 1.429 . S
C2073 C2067 1.429 . S
C2073 C2074 1.523 . S
C2074 C2055 1.368 . S
C2074 C2068 1.368 . S
C2074 C2073 1.523 . S
C2075 C2059 1.429 . S
C2075 C2071 1.429 . S
C2075 C2076 1.523 . S
C2076 C2060 1.368 . S
C2076 C2072 1.368 . S
C2076 C2075 1.523 . S
H2077 C2052 0.950 . S
H2078 C2054 0.950 . S
H2079 C2055 0.949 . S
H2080 C2057 0.950 . S
H2081 C2059 0.950 . S
C2082 C2083 1.349 . S
C2082 C2084 1.327 . S
C2082 H2107 0.950 . S
C2083 C2082 1.349 . S
C2083 C2099 1.349 . S
C2084 C2082 1.327 . S
C2084 C2103 1.429 . S
C2084 H2108 0.950 . S
C2085 C2102 1.574 . S
C2085 C2104 1.368 . S
C2085 H2109 0.949 . S
H2086 C2090 0.949 . S
C2087 C2088 1.349 . S
C2087 C2089 1.327 . S
C2087 H2110 0.950 . S
C2088 C2087 1.349 . S
C2088 C2100 1.349 . S
C2089 C2087 1.327 . S
C2089 C2105 1.429 . S
C2089 H2111 0.950 . S
C2090 H2086 0.949 . S
C2090 C2098 1.574 . S
C2090 C2106 1.368 . S
H2091 C2099 0.950 . S
H2092 C2097 0.950 . S
H2093 C2098 0.949 . S
H2094 C2100 0.950 . S
H2095 C2101 0.950 . S
H2096 C2102 0.949 . S
C2097 H2092 0.950 . S
C2097 C2099 1.327 . S
C2097 C2103 1.429 . S
C2098 C2090 1.574 . S
C2098 H2093 0.949 . S
C2098 C2104 1.368 . S
C2099 C2083 1.349 . S
C2099 H2091 0.950 . S
C2099 C2097 1.327 . S
C2100 C2088 1.349 . S
C2100 H2094 0.950 . S
C2100 C2101 1.327 . S
C2101 H2095 0.950 . S
C2101 C2100 1.327 . S
C2101 C2105 1.429 . S
C2102 C2085 1.574 . S
C2102 H2096 0.949 . S
C2102 C2106 1.368 . S
C2103 C2084 1.429 . S
C2103 C2097 1.429 . S
C2103 C2104 1.523 . S
C2104 C2085 1.368 . S
C2104 C2098 1.368 . S
C2104 C2103 1.523 . S
C2105 C2089 1.429 . S
C2105 C2101 1.429 . S
C2105 C2106 1.523 . S
C2106 C2090 1.368 . S
C2106 C2102 1.368 . S
C2106 C2105 1.523 . S
H2107 C2082 0.950 . S
H2108 C2084 0.950 . S
H2109 C2085 0.949 . S
H2110 C2087 0.950 . S
H2111 C2089 0.950 . S
C2112 C2113 1.349 . S
C2112 C2114 1.327 . S
C2112 H2137 0.950 . S
C2113 C2112 1.349 . S
C2113 C2129 1.349 . S
C2114 C2112 1.327 . S
C2114 C2133 1.429 . S
C2114 H2138 0.950 . S
C2115 C2132 1.574 . S
C2115 C2134 1.368 . S
C2115 H2139 0.949 . S
H2116 C2120 0.949 . S
C2117 C2118 1.349 . S
C2117 C2119 1.327 . S
C2117 H2140 0.950 . S
C2118 C2117 1.349 . S
C2118 C2130 1.349 . S
C2119 C2117 1.327 . S
C2119 C2135 1.429 . S
C2119 H2141 0.950 . S
C2120 H2116 0.949 . S
C2120 C2128 1.574 . S
C2120 C2136 1.368 . S
H2121 C2129 0.950 . S
H2122 C2127 0.950 . S
H2123 C2128 0.949 . S
H2124 C2130 0.950 . S
H2125 C2131 0.950 . S
H2126 C2132 0.949 . S
C2127 H2122 0.950 . S
C2127 C2129 1.327 . S
C2127 C2133 1.429 . S
C2128 C2120 1.574 . S
C2128 H2123 0.949 . S
C2128 C2134 1.368 . S
C2129 C2113 1.349 . S
C2129 H2121 0.950 . S
C2129 C2127 1.327 . S
C2130 C2118 1.349 . S
C2130 H2124 0.950 . S
C2130 C2131 1.327 . S
C2131 H2125 0.950 . S
C2131 C2130 1.327 . S
C2131 C2135 1.429 . S
C2132 C2115 1.574 . S
C2132 H2126 0.949 . S
C2132 C2136 1.368 . S
C2133 C2114 1.429 . S
C2133 C2127 1.429 . S
C2133 C2134 1.523 . S
C2134 C2115 1.368 . S
C2134 C2128 1.368 . S
C2134 C2133 1.523 . S
C2135 C2119 1.429 . S
C2135 C2131 1.429 . S
C2135 C2136 1.523 . S
C2136 C2120 1.368 . S
C2136 C2132 1.368 . S
C2136 C2135 1.523 . S
H2137 C2112 0.950 . S
H2138 C2114 0.950 . S
H2139 C2115 0.949 . S
H2140 C2117 0.950 . S
H2141 C2119 0.950 . S
C2142 C2143 1.349 . S
C2142 C2144 1.327 . S
C2142 H2167 0.950 . S
C2143 C2142 1.349 . S
C2143 C2159 1.349 . S
C2144 C2142 1.327 . S
C2144 C2163 1.429 . S
C2144 H2168 0.950 . S
C2145 C2162 1.574 . S
C2145 C2164 1.368 . S
C2145 H2169 0.949 . S
H2146 C2150 0.949 . S
C2147 C2148 1.349 . S
C2147 C2149 1.327 . S
C2147 H2170 0.950 . S
C2148 C2147 1.349 . S
C2148 C2160 1.349 . S
C2149 C2147 1.327 . S
C2149 C2165 1.429 . S
C2149 H2171 0.950 . S
C2150 H2146 0.949 . S
C2150 C2158 1.574 . S
C2150 C2166 1.368 . S
H2151 C2159 0.950 . S
H2152 C2157 0.950 . S
H2153 C2158 0.949 . S
H2154 C2160 0.950 . S
H2155 C2161 0.950 . S
H2156 C2162 0.949 . S
C2157 H2152 0.950 . S
C2157 C2159 1.327 . S
C2157 C2163 1.429 . S
C2158 C2150 1.574 . S
C2158 H2153 0.949 . S
C2158 C2164 1.368 . S
C2159 C2143 1.349 . S
C2159 H2151 0.950 . S
C2159 C2157 1.327 . S
C2160 C2148 1.349 . S
C2160 H2154 0.950 . S
C2160 C2161 1.327 . S
C2161 H2155 0.950 . S
C2161 C2160 1.327 . S
C2161 C2165 1.429 . S
C2162 C2145 1.574 . S
C2162 H2156 0.949 . S
C2162 C2166 1.368 . S
C2163 C2144 1.429 . S
C2163 C2157 1.429 . S
C2163 C2164 1.523 . S
C2164 C2145 1.368 . S
C2164 C2158 1.368 . S
C2164 C2163 1.523 . S
C2165 C2149 1.429 . S
C2165 C2161 1.429 . S
C2165 C2166 1.523 . S
C2166 C2150 1.368 . S
C2166 C2162 1.368 . S
C2166 C2165 1.523 . S
H2167 C2142 0.950 . S
H2168 C2144 0.950 . S
H2169 C2145 0.949 . S
H2170 C2147 0.950 . S
H2171 C2149 0.950 . S
C2172 C2173 1.349 . S
C2172 C2174 1.327 . S
C2172 H2197 0.950 . S
C2173 C2172 1.349 . S
C2173 C2189 1.349 . S
C2174 C2172 1.327 . S
C2174 C2193 1.429 . S
C2174 H2198 0.950 . S
C2175 C2192 1.574 . S
C2175 C2194 1.368 . S
C2175 H2199 0.949 . S
H2176 C2180 0.949 . S
C2177 C2178 1.349 . S
C2177 C2179 1.327 . S
C2177 H2200 0.950 . S
C2178 C2177 1.349 . S
C2178 C2190 1.349 . S
C2179 C2177 1.327 . S
C2179 C2195 1.429 . S
C2179 H2201 0.950 . S
C2180 H2176 0.949 . S
C2180 C2188 1.574 . S
C2180 C2196 1.368 . S
H2181 C2189 0.950 . S
H2182 C2187 0.950 . S
H2183 C2188 0.949 . S
H2184 C2190 0.950 . S
H2185 C2191 0.950 . S
H2186 C2192 0.949 . S
C2187 H2182 0.950 . S
C2187 C2189 1.327 . S
C2187 C2193 1.429 . S
C2188 C2180 1.574 . S
C2188 H2183 0.949 . S
C2188 C2194 1.368 . S
C2189 C2173 1.349 . S
C2189 H2181 0.950 . S
C2189 C2187 1.327 . S
C2190 C2178 1.349 . S
C2190 H2184 0.950 . S
C2190 C2191 1.327 . S
C2191 H2185 0.950 . S
C2191 C2190 1.327 . S
C2191 C2195 1.429 . S
C2192 C2175 1.574 . S
C2192 H2186 0.949 . S
C2192 C2196 1.368 . S
C2193 C2174 1.429 . S
C2193 C2187 1.429 . S
C2193 C2194 1.523 . S
C2194 C2175 1.368 . S
C2194 C2188 1.368 . S
C2194 C2193 1.523 . S
C2195 C2179 1.429 . S
C2195 C2191 1.429 . S
C2195 C2196 1.523 . S
C2196 C2180 1.368 . S
C2196 C2192 1.368 . S
C2196 C2195 1.523 . S
H2197 C2172 0.950 . S
H2198 C2174 0.950 . S
H2199 C2175 0.949 . S
H2200 C2177 0.950 . S
H2201 C2179 0.950 . S
C2202 C2203 1.349 . S
C2202 C2204 1.327 . S
C2202 H2227 0.950 . S
C2203 C2202 1.349 . S
C2203 C2219 1.349 . S
C2204 C2202 1.327 . S
C2204 C2223 1.429 . S
C2204 H2228 0.950 . S
C2205 C2222 1.574 . S
C2205 C2224 1.368 . S
C2205 H2229 0.949 . S
H2206 C2210 0.949 . S
C2207 C2208 1.349 . S
C2207 C2209 1.327 . S
C2207 H2230 0.950 . S
C2208 C2207 1.349 . S
C2208 C2220 1.349 . S
C2209 C2207 1.327 . S
C2209 C2225 1.429 . S
C2209 H2231 0.950 . S
C2210 H2206 0.949 . S
C2210 C2218 1.574 . S
C2210 C2226 1.368 . S
H2211 C2219 0.950 . S
H2212 C2217 0.950 . S
H2213 C2218 0.949 . S
H2214 C2220 0.950 . S
H2215 C2221 0.950 . S
H2216 C2222 0.949 . S
C2217 H2212 0.950 . S
C2217 C2219 1.327 . S
C2217 C2223 1.429 . S
C2218 C2210 1.574 . S
C2218 H2213 0.949 . S
C2218 C2224 1.368 . S
C2219 C2203 1.349 . S
C2219 H2211 0.950 . S
C2219 C2217 1.327 . S
C2220 C2208 1.349 . S
C2220 H2214 0.950 . S
C2220 C2221 1.327 . S
C2221 H2215 0.950 . S
C2221 C2220 1.327 . S
C2221 C2225 1.429 . S
C2222 C2205 1.574 . S
C2222 H2216 0.949 . S
C2222 C2226 1.368 . S
C2223 C2204 1.429 . S
C2223 C2217 1.429 . S
C2223 C2224 1.523 . S
C2224 C2205 1.368 . S
C2224 C2218 1.368 . S
C2224 C2223 1.523 . S
C2225 C2209 1.429 . S
C2225 C2221 1.429 . S
C2225 C2226 1.523 . S
C2226 C2210 1.368 . S
C2226 C2222 1.368 . S
C2226 C2225 1.523 . S
H2227 C2202 0.950 . S
H2228 C2204 0.950 . S
H2229 C2205 0.949 . S
H2230 C2207 0.950 . S
H2231 C2209 0.950 . S
C2232 C2233 1.349 . S
C2232 C2234 1.327 . S
C2232 H2257 0.950 . S
C2233 C2232 1.349 . S
C2233 C2249 1.349 . S
C2234 C2232 1.327 . S
C2234 C2253 1.429 . S
C2234 H2258 0.950 . S
C2235 C2252 1.574 . S
C2235 C2254 1.368 . S
C2235 H2259 0.949 . S
H2236 C2240 0.949 . S
C2237 C2238 1.349 . S
C2237 C2239 1.327 . S
C2237 H2260 0.950 . S
C2238 C2237 1.349 . S
C2238 C2250 1.349 . S
C2239 C2237 1.327 . S
C2239 C2255 1.429 . S
C2239 H2261 0.950 . S
C2240 H2236 0.949 . S
C2240 C2248 1.574 . S
C2240 C2256 1.368 . S
H2241 C2249 0.950 . S
H2242 C2247 0.950 . S
H2243 C2248 0.949 . S
H2244 C2250 0.950 . S
H2245 C2251 0.950 . S
H2246 C2252 0.949 . S
C2247 H2242 0.950 . S
C2247 C2249 1.327 . S
C2247 C2253 1.429 . S
C2248 C2240 1.574 . S
C2248 H2243 0.949 . S
C2248 C2254 1.368 . S
C2249 C2233 1.349 . S
C2249 H2241 0.950 . S
C2249 C2247 1.327 . S
C2250 C2238 1.349 . S
C2250 H2244 0.950 . S
C2250 C2251 1.327 . S
C2251 H2245 0.950 . S
C2251 C2250 1.327 . S
C2251 C2255 1.429 . S
C2252 C2235 1.574 . S
C2252 H2246 0.949 . S
C2252 C2256 1.368 . S
C2253 C2234 1.429 . S
C2253 C2247 1.429 . S
C2253 C2254 1.523 . S
C2254 C2235 1.368 . S
C2254 C2248 1.368 . S
C2254 C2253 1.523 . S
C2255 C2239 1.429 . S
C2255 C2251 1.429 . S
C2255 C2256 1.523 . S
C2256 C2240 1.368 . S
C2256 C2252 1.368 . S
C2256 C2255 1.523 . S
H2257 C2232 0.950 . S
H2258 C2234 0.950 . S
H2259 C2235 0.949 . S
H2260 C2237 0.950 . S
H2261 C2239 0.950 . S
C2262 C2263 1.349 . S
C2262 C2264 1.327 . S
C2262 H2287 0.950 . S
C2263 C2262 1.349 . S
C2263 C2279 1.349 . S
C2264 C2262 1.327 . S
C2264 C2283 1.429 . S
C2264 H2288 0.950 . S
C2265 C2282 1.574 . S
C2265 C2284 1.368 . S
C2265 H2289 0.949 . S
H2266 C2270 0.949 . S
C2267 C2268 1.349 . S
C2267 C2269 1.327 . S
C2267 H2290 0.950 . S
C2268 C2267 1.349 . S
C2268 C2280 1.349 . S
C2269 C2267 1.327 . S
C2269 C2285 1.429 . S
C2269 H2291 0.950 . S
C2270 H2266 0.949 . S
C2270 C2278 1.574 . S
C2270 C2286 1.368 . S
H2271 C2279 0.950 . S
H2272 C2277 0.950 . S
H2273 C2278 0.949 . S
H2274 C2280 0.950 . S
H2275 C2281 0.950 . S
H2276 C2282 0.949 . S
C2277 H2272 0.950 . S
C2277 C2279 1.327 . S
C2277 C2283 1.429 . S
C2278 C2270 1.574 . S
C2278 H2273 0.949 . S
C2278 C2284 1.368 . S
C2279 C2263 1.349 . S
C2279 H2271 0.950 . S
C2279 C2277 1.327 . S
C2280 C2268 1.349 . S
C2280 H2274 0.950 . S
C2280 C2281 1.327 . S
C2281 H2275 0.950 . S
C2281 C2280 1.327 . S
C2281 C2285 1.429 . S
C2282 C2265 1.574 . S
C2282 H2276 0.949 . S
C2282 C2286 1.368 . S
C2283 C2264 1.429 . S
C2283 C2277 1.429 . S
C2283 C2284 1.523 . S
C2284 C2265 1.368 . S
C2284 C2278 1.368 . S
C2284 C2283 1.523 . S
C2285 C2269 1.429 . S
C2285 C2281 1.429 . S
C2285 C2286 1.523 . S
C2286 C2270 1.368 . S
C2286 C2282 1.368 . S
C2286 C2285 1.523 . S
H2287 C2262 0.950 . S
H2288 C2264 0.950 . S
H2289 C2265 0.949 . S
H2290 C2267 0.950 . S
H2291 C2269 0.950 . S
C2292 C2293 1.349 . S
C2292 C2294 1.327 . S
C2292 H2317 0.950 . S
C2293 C2292 1.349 . S
C2293 C2309 1.349 . S
C2294 C2292 1.327 . S
C2294 C2313 1.429 . S
C2294 H2318 0.950 . S
C2295 C2312 1.574 . S
C2295 C2314 1.368 . S
C2295 H2319 0.949 . S
H2296 C2300 0.949 . S
C2297 C2298 1.349 . S
C2297 C2299 1.327 . S
C2297 H2320 0.950 . S
C2298 C2297 1.349 . S
C2298 C2310 1.349 . S
C2299 C2297 1.327 . S
C2299 C2315 1.429 . S
C2299 H2321 0.950 . S
C2300 H2296 0.949 . S
C2300 C2308 1.574 . S
C2300 C2316 1.368 . S
H2301 C2309 0.950 . S
H2302 C2307 0.950 . S
H2303 C2308 0.949 . S
H2304 C2310 0.950 . S
H2305 C2311 0.950 . S
H2306 C2312 0.949 . S
C2307 H2302 0.950 . S
C2307 C2309 1.327 . S
C2307 C2313 1.429 . S
C2308 C2300 1.574 . S
C2308 H2303 0.949 . S
C2308 C2314 1.368 . S
C2309 C2293 1.349 . S
C2309 H2301 0.950 . S
C2309 C2307 1.327 . S
C2310 C2298 1.349 . S
C2310 H2304 0.950 . S
C2310 C2311 1.327 . S
C2311 H2305 0.950 . S
C2311 C2310 1.327 . S
C2311 C2315 1.429 . S
C2312 C2295 1.574 . S
C2312 H2306 0.949 . S
C2312 C2316 1.368 . S
C2313 C2294 1.429 . S
C2313 C2307 1.429 . S
C2313 C2314 1.523 . S
C2314 C2295 1.368 . S
C2314 C2308 1.368 . S
C2314 C2313 1.523 . S
C2315 C2299 1.429 . S
C2315 C2311 1.429 . S
C2315 C2316 1.523 . S
C2316 C2300 1.368 . S
C2316 C2312 1.368 . S
C2316 C2315 1.523 . S
H2317 C2292 0.950 . S
H2318 C2294 0.950 . S
H2319 C2295 0.949 . S
H2320 C2297 0.950 . S
H2321 C2299 0.950 . S
C703 C253 1.744 . S
C708 C351 1.751 . S
C733 C272 1.882 . S
C738 C391 1.881 . S
C763 C234 1.624 . S
C768 C430 1.587 . S
C793 C215 1.469 . S
C798 C390 1.423 1_556 S
C828 C431 1.545 1_556 S
C823 C177 1.546 . S
C853 C196 1.358 . S
C858 C350 1.336 . S
C888 C361 1.697 . S
C883 C220 1.561 . S
C918 C401 1.657 . S
C913 C182 1.572 . S
C943 C201 1.648 . S
C948 C440 1.748 . S
C973 C258 1.434 . S
C978 C400 1.524 . S
C1003 C277 1.319 . S
C1008 C441 1.423 . S
C1038 C360 1.512 . S
C1033 C239 1.390 . S
C1068 C471 1.751 . S
C1063 C25 1.744 . S
C1093 C44 1.882 . S
C1098 C511 1.881 . S
C1123 C6 1.624 . S
C1128 C550 1.587 . S
C1153 C329 1.469 . S
C1158 C510 1.423 . S
C1183 C291 1.546 . S
C1188 C551 1.546 . S
C1213 C310 1.358 . S
C1218 C470 1.336 . S
C1243 C334 1.561 . S
C1248 C481 1.685 . S
C1273 C296 1.571 . S
C1278 C521 1.657 . S
C1308 C560 1.748 . S
C1303 C315 1.647 . S
C1333 C30 1.434 . S
C1338 C520 1.524 . S
C1368 C561 1.423 . S
C1363 C49 1.320 . S
C1393 C11 1.390 . S
C1398 C480 1.512 . S
C1428 C591 1.751 . S
C1423 C139 1.744 . S
C1453 C158 1.882 . S
C1458 C631 1.881 . S
C1488 C670 1.588 . S
C1483 C120 1.624 . S
C1518 C630 1.423 . S
C1513 C101 1.469 . S
C1548 C671 1.545 . S
C1543 C63 1.546 . S
C1573 C82 1.358 . S
C1578 C590 1.336 . S
C1603 C106 1.561 . S
C1608 C601 1.685 . S
C1633 C68 1.571 . S
C1638 C641 1.657 . S
C1668 C680 1.748 . S
C1663 C87 1.647 . S
C1693 C144 1.434 . S
C1698 C640 1.524 . S
C1723 C163 1.320 . S
C1728 C681 1.423 . S
C1753 C125 1.391 . S
C1758 C600 1.512 . S
C1783 C287 1.520 . S
C1788 C347 1.519 . S
C1818 C387 2.133 . S
C1813 C306 2.126 . S
C1843 C325 1.639 . S
C1848 C437 1.667 . S
C1873 C116 1.905 . S
C1878 C397 1.934 . S
C1903 C135 1.823 . S
C1908 C427 1.832 . S
C1938 C357 1.298 . S
C1933 C154 1.279 . S
C1963 C59 1.520 . S
C1968 C467 1.519 . S
C1993 C78 2.126 . S
C1998 C507 2.133 . S
C2023 C97 1.639 . S
C2028 C557 1.667 . S
C2053 C230 1.905 . S
C2058 C517 1.934 . S
C2088 C547 1.832 . S
C2083 C249 1.823 . S
C2113 C268 1.279 . S
C2118 C477 1.298 . S
C2143 C173 1.520 . S
C2148 C587 1.519 . S
C2173 C192 2.126 . S
C2178 C627 2.133 . S
C2208 C677 1.667 . S
C2203 C211 1.639 . S
C2233 C2 1.905 . S
C2238 C637 1.934 . S
C2263 C21 1.823 . S
C2268 C667 1.832 . S
C2293 C40 1.279 . S
C2298 C597 1.298 . S
