# Generated by pormake.
# Topology tsx, (6,3)-cn, num edge types: 1
# Building blocks:
#     Node 0, Type 0, BuildingBlock: FUNLAD_clean_sbu_0, # of connection points: 6
#     Node 1, Type 0, BuildingBlock: FUNLAD_clean_sbu_0, # of connection points: 6
#     Node 2, Type 1, BuildingBlock: CUQRIR_clean_linker_1, # of connection points: 3
#     Node 3, Type 1, BuildingBlock: CUQRIR_clean_linker_1, # of connection points: 3
#     Node 4, Type 1, BuildingBlock: CUQRIR_clean_linker_1, # of connection points: 3
#     Node 5, Type 1, BuildingBlock: CUQRIR_clean_linker_1, # of connection points: 3
#     Edge 6, Type (0, 1), BuildingBlock: FUNLAD_clean_linker_1, # of connection points: 2
#     Edge 7, Type (0, 1), BuildingBlock: FUNLAD_clean_linker_1, # of connection points: 2
#     Edge 8, Type (0, 1), BuildingBlock: FUNLAD_clean_linker_1, # of connection points: 2
#     Edge 9, Type (0, 1), BuildingBlock: FUNLAD_clean_linker_1, # of connection points: 2
#     Edge 10, Type (0, 1), BuildingBlock: FUNLAD_clean_linker_1, # of connection points: 2
#     Edge 11, Type (0, 1), BuildingBlock: FUNLAD_clean_linker_1, # of connection points: 2
#     Edge 12, Type (0, 1), BuildingBlock: FUNLAD_clean_linker_1, # of connection points: 2
#     Edge 13, Type (0, 1), BuildingBlock: FUNLAD_clean_linker_1, # of connection points: 2
#     Edge 14, Type (0, 1), BuildingBlock: FUNLAD_clean_linker_1, # of connection points: 2
#     Edge 15, Type (0, 1), BuildingBlock: FUNLAD_clean_linker_1, # of connection points: 2
#     Edge 16, Type (0, 1), BuildingBlock: FUNLAD_clean_linker_1, # of connection points: 2
#     Edge 17, Type (0, 1), BuildingBlock: FUNLAD_clean_linker_1, # of connection points: 2
# Relax obj value: 0.157
# Max RMSD: 0.157
# Mean RMSD: 0.140
data_MOF--net-tsx--node1-FUNLAD_clean_sbu_0--node2-CUQRIR_clean_linker_1--edge1-FUNLAD_clean_linker_1
_symmetry_space_group_name_H-M    P1
_symmetry_Int_Tables_number       1
_symmetry_cell_setting            triclinic
loop_
_symmetry_equiv_pos_as_xyz
'x, y, z'
_cell_length_a     18.362626
_cell_length_b     20.303758
_cell_length_c     39.559912
_cell_angle_alpha  80.160833
_cell_angle_beta   92.202571
_cell_angle_gamma 89.81677
loop_
_atom_site_label
_atom_site_type_symbol
_atom_site_fract_x
_atom_site_fract_y
_atom_site_fract_z
_atom_type_partial_charge
C0 C 0.8946 0.97035 0.00361 0.0
N1 N 0.02386 0.01576 0.08483 0.0
C2 C 0.96771 0.02234 0.10543 0.0
C3 C 0.97874 1.00922 0.14109 0.0
C4 C 0.04804 0.98926 0.15563 0.0
C5 C 0.10412 0.98022 0.13362 0.0
C6 C 0.09083 0.99428 0.09822 0.0
Zn7 Zn 0.01271 0.04169 0.03286 0.0
C8 C 0.10184 0.95049 -0.00149 0.0
N9 N 1.00227 0.09491 0.92454 0.0
C10 C 0.93641 0.10183 0.9073 0.0
C11 C 0.06548 0.10188 0.90752 0.0
C12 C 0.06417 0.11477 0.87173 0.0
C13 C 0.99689 0.12095 0.85316 0.0
C14 C 0.93255 0.1147 0.87143 0.0
Zn15 Zn 0.00863 0.06979 0.97675 0.0
O16 O 0.91903 0.9845 0.03193 0.0
C17 C 0.91544 0.15878 0.00957 0.0
O18 O 0.92393 0.99612 0.9758 0.0
H19 H 0.11725 0.09569 0.92173 0.0
H20 H 0.91481 0.03915 0.09422 0.0
H21 H 0.88683 0.09596 0.92137 0.0
O22 O 0.94711 0.12791 0.03695 0.0
O23 O 0.92942 0.14247 0.9809 0.0
H24 H 0.13479 0.9893 0.0814 0.0
O25 O 0.09259 0.14309 0.97961 0.0
O26 O 0.10712 0.09931 0.03408 0.0
O27 O 0.0875 0.99546 0.97264 0.0
O28 O 0.0754 0.95544 0.02716 0.0
C29 C 0.12637 0.14088 0.00848 0.0
H30 H 0.93388 0.01629 0.15716 0.0
H31 H 0.15809 0.96333 0.14312 0.0
H32 H 0.11551 0.11698 0.85912 0.0
H33 H 0.87968 0.11843 0.85807 0.0
C34 C 0.45604 0.41704 0.49276 0.0
N35 N 0.53564 0.46585 0.58461 0.0
C36 C 0.46792 0.45357 0.59681 0.0
C37 C 0.45878 0.43681 0.63206 0.0
C38 C 0.51985 0.43233 0.65478 0.0
C39 C 0.58934 0.44343 0.6413 0.0
C40 C 0.59589 0.4601 0.60598 0.0
Zn41 Zn 0.54941 0.49568 0.53388 0.0
C42 C 0.66622 0.41952 0.50879 0.0
N43 N 0.5784 0.55732 0.42764 0.0
C44 C 0.52246 0.56746 0.40377 0.0
C45 C 0.64902 0.56422 0.41845 0.0
C46 C 0.66581 0.57984 0.38401 0.0
C47 C 0.60956 0.58773 0.35874 0.0
C48 C 0.53684 0.58306 0.36892 0.0
Zn49 Zn 0.56021 0.52875 0.47831 0.0
O50 O 0.47971 0.42041 0.52297 0.0
C51 C 0.43959 0.60146 0.50253 0.0
O52 O 0.47925 0.45796 0.46753 0.0
H53 H 0.69271 0.5562 0.43786 0.0
H54 H 0.42083 0.45842 0.57926 0.0
H55 H 0.46676 0.56247 0.41174 0.0
O56 O 0.4576 0.56225 0.53025 0.0
O57 O 0.47666 0.60136 0.47605 0.0
H58 H 0.64915 0.47042 0.59569 0.0
O59 O 0.63959 0.60022 0.49018 0.0
O60 O 0.61924 0.57195 0.54494 0.0
O61 O 0.64221 0.45392 0.48072 0.0
O62 O 0.63963 0.42869 0.53673 0.0
C63 C 0.65183 0.60833 0.52105 0.0
H64 H 0.4043 0.42939 0.64153 0.0
H65 H 0.63813 0.4428 0.65752 0.0
H66 H 0.7224 0.5835 0.37714 0.0
H67 H 0.49149 0.59091 0.35035 0.0
C68 C 0.00954 0.994 0.44531 0.0
N69 N 0.06606 0.97368 0.42839 0.0
N70 N 0.99543 0.05991 0.43454 0.0
C71 C 0.96524 0.94974 0.47085 0.0
C72 C 0.04292 0.0782 0.40944 0.0
N73 N 0.08567 0.02582 0.40574 0.0
C74 C 0.04673 0.14696 0.38818 0.0
H75 H 0.94359 0.9786 0.48969 0.0
H76 H 0.99703 0.90614 0.48429 0.0
H77 H 0.91814 0.93093 0.45701 0.0
H78 H 0.0806 0.17882 0.40255 0.0
H79 H 0.99141 0.16957 0.38337 0.0
H80 H 0.07254 0.14657 0.36338 0.0
C81 C 0.05635 0.01892 0.55541 0.0
N82 N 0.07558 0.06387 0.5756 0.0
N83 N 0.00855 0.97448 0.57124 0.0
C84 C 0.08993 0.01504 0.52179 0.0
C85 C 1.00178 0.99233 0.60248 0.0
N86 N 0.04252 0.04724 0.60507 0.0
C87 C 0.96472 0.94981 0.63179 0.0
H88 H 0.14812 0.02944 0.52252 0.0
H89 H 0.06088 0.05049 0.50134 0.0
H90 H 0.08659 0.9644 0.5154 0.0
H91 H 0.96105 0.89705 0.62802 0.0
H92 H 0.90863 0.96927 0.63331 0.0
H93 H 0.99454 0.95054 0.65657 0.0
C94 C 0.45243 0.52566 0.94539 0.0
N95 N 0.49906 0.50047 0.92526 0.0
N96 N 0.4151 0.57875 0.92733 0.0
C97 C 0.42952 0.48747 0.97889 0.0
C98 C 0.44029 0.58427 0.89529 0.0
N99 N 0.48997 0.53545 0.8939 0.0
C100 C 0.42095 0.64061 0.86636 0.0
H101 H 0.42307 0.43426 0.97641 0.0
H102 H 0.37659 0.50654 0.9858 0.0
H103 H 0.47239 0.48958 -0.00089 0.0
H104 H 0.41404 0.68812 0.87624 0.0
H105 H 0.36835 0.62938 0.85391 0.0
H106 H 0.46343 0.64716 0.8469 0.0
C107 C 0.47895 0.57275 0.06055 0.0
N108 N 0.52406 0.59478 0.084 0.0
N109 N 0.43981 0.51964 0.07544 0.0
C110 C 0.4653 0.60968 0.02472 0.0
C111 C 0.46037 0.51237 0.10911 0.0
N112 N 0.51144 0.55784 0.11419 0.0
C113 C 0.42723 0.46374 0.13732 0.0
H114 H 0.46237 0.6642 0.02481 0.0
H115 H 0.41377 0.59444 0.01357 0.0
H116 H 0.51013 0.59959 0.00828 0.0
H117 H 0.45691 0.41531 0.14021 0.0
H118 H 0.36904 0.45521 0.13094 0.0
H119 H 0.4315 0.48141 0.16232 0.0
H120 H 0.22185 0.17254 0.03626 0.0
C121 C 0.185 0.18757 0.01405 0.0
H122 H 0.14746 0.26861 0.97662 0.0
H123 H 0.25507 0.45714 0.0826 0.0
H124 H 0.12433 0.47186 0.08174 0.0
H125 H 0.04335 0.40865 0.04803 0.0
H126 H 0.09303 0.32983 0.01517 0.0
C127 C 0.1876 0.25059 -0.00297 0.0
C128 C 0.23698 0.29919 0.01053 0.0
C129 C 0.20748 0.34756 0.02826 0.0
C130 C 0.25447 0.38572 0.0468 0.0
C131 C 0.22274 0.4295 0.06654 0.0
C132 C 0.14744 0.43782 0.06667 0.0
C133 C 0.10184 0.40209 0.04778 0.0
C134 C 0.13113 0.35703 0.02899 0.0
H135 H 0.34645 0.51065 0.04058 0.0
C136 C 0.38457 0.48336 0.0595 0.0
H137 H 0.42283 0.38872 0.08344 0.0
H138 H 0.31078 0.21792 0.97511 0.0
H139 H 0.44211 0.20455 0.9743 0.0
H140 H 0.52404 0.26935 0.00664 0.0
H141 H 0.47508 0.34845 0.03964 0.0
C142 C 0.38201 0.4162 0.06594 0.0
C143 C 0.33134 0.37729 0.04643 0.0
C144 C 0.36062 0.33014 0.02772 0.0
C145 C 0.31349 0.29187 0.00944 0.0
C146 C 0.34429 0.24691 0.99012 0.0
C147 C 0.4195 0.23906 0.98926 0.0
C148 C 0.46562 0.27561 0.00746 0.0
C149 C 0.43682 0.32059 0.02646 0.0
H150 H 0.12242 0.84218 0.00934 0.0
C151 C 0.14011 0.88876 -0.00574 0.0
H152 H 0.20804 0.93578 0.95622 0.0
H153 H 0.28712 0.60371 -0.00394 0.0
H154 H 0.29443 0.61584 0.05635 0.0
H155 H 0.27796 0.72641 0.07303 0.0
H156 H 0.24831 0.82403 0.03007 0.0
C157 C 0.19129 0.88838 0.97086 0.0
C158 C 0.21943 0.82512 0.96106 0.0
C159 C 0.24587 0.771 0.98626 0.0
C160 C 0.26512 0.70929 0.97637 0.0
C161 C 0.27906 0.65302 0.00227 0.0
C162 C 0.28258 0.65918 0.03683 0.0
C163 C 0.2727 0.72132 0.04625 0.0
C164 C 0.25468 0.7768 0.02135 0.0
H165 H 0.40392 0.65602 0.95863 0.0
C166 C 0.37529 0.62865 0.94103 0.0
H167 H 0.27891 0.6197 0.91197 0.0
H168 H 0.1648 0.9151 0.90574 0.0
H169 H 0.1681 0.90458 0.84598 0.0
H170 H 0.2207 0.80414 0.82862 0.0
H171 H 0.268 0.7126 0.87118 0.0
C172 C 0.30631 0.64574 0.93056 0.0
C173 C 0.26994 0.70476 0.94113 0.0
C174 C 0.24496 0.75904 0.91581 0.0
C175 C 0.21769 0.8184 0.9258 0.0
C176 C 0.18897 0.86998 0.8999 0.0
C177 C 0.1901 0.86451 0.86532 0.0
C178 C 0.21949 0.8079 0.85556 0.0
C179 C 0.24656 0.75563 0.88036 0.0
H180 H 0.82983 0.89494 0.98166 0.0
C181 C 0.83672 0.92003 0.00372 0.0
H182 H 0.80451 0.92698 0.05353 0.0
H183 H 0.55508 0.72717 -0.00383 0.0
H184 H 0.5255 0.81877 0.94983 0.0
H185 H 0.59621 0.92301 0.94329 0.0
H186 H 0.69744 0.93558 0.98271 0.0
C187 C 0.79682 0.90163 0.03159 0.0
C188 C 0.75015 0.84102 0.03613 0.0
C189 C 0.68953 0.83551 0.01346 0.0
C190 C 0.64673 0.77652 0.01812 0.0
C191 C 0.58812 0.77138 -0.00558 0.0
C192 C 0.5707 0.82359 0.9676 0.0
C193 C 0.61066 0.88215 0.96386 0.0
C194 C 0.6692 0.88844 0.98651 0.0
H195 H 0.57178 0.68566 0.09775 0.0
C196 C 0.57038 0.65273 0.07881 0.0
H197 H 0.61595 0.63089 0.03375 0.0
H198 H 0.86305 0.83444 0.08437 0.0
H199 H 0.88955 0.74393 0.13154 0.0
H200 H 0.8141 0.64255 0.13979 0.0
H201 H 0.71198 0.63141 0.10067 0.0
C202 C 0.61463 0.66474 0.05215 0.0
C203 C 0.66207 0.72473 0.04646 0.0
C204 C 0.72257 0.73023 0.06913 0.0
C205 C 0.76641 0.78846 0.06409 0.0
C206 C 0.82698 0.79203 0.08707 0.0
C207 C 0.84322 0.74015 0.11424 0.0
C208 C 0.80076 0.68313 0.1189 0.0
C209 C 0.74164 0.6777 0.09648 0.0
H210 H 0.86971 0.24385 0.03063 0.0
C211 C 0.86314 0.21374 0.01053 0.0
H212 H 0.80341 0.19588 0.96664 0.0
H213 H 0.58768 0.41268 0.02658 0.0
H214 H 0.59302 0.33825 0.08154 0.0
H215 H 0.67018 0.23661 0.09067 0.0
H216 H 0.74485 0.21049 0.04554 0.0
C217 C 0.80894 0.22709 0.98635 0.0
C218 C 0.76098 0.28772 0.98204 0.0
C219 C 0.7145 0.29997 0.00825 0.0
C220 C 0.66626 0.35627 0.00226 0.0
C221 C 0.62364 0.36964 0.02941 0.0
C222 C 0.62621 0.32734 0.06111 0.0
C223 C 0.66983 0.27025 0.06628 0.0
C224 C 0.71314 0.25621 0.04019 0.0
H225 H 0.55505 0.40835 0.9192 0.0
C226 C 0.55085 0.44649 0.93526 0.0
H227 H 0.59756 0.48758 0.97632 0.0
H228 H 0.84835 0.28404 0.92753 0.0
H229 H 0.8461 0.36187 0.87385 0.0
H230 H 0.76181 0.45872 0.86385 0.0
H231 H 0.6792 0.47778 0.90757 0.0
C232 C 0.60029 0.44785 0.96117 0.0
C233 C 0.66015 0.39686 0.96933 0.0
C234 C 0.71001 0.38743 0.94402 0.0
C235 C 0.75984 0.33252 0.95021 0.0
C236 C 0.80862 0.32431 0.92425 0.0
C237 C 0.80838 0.36898 0.89332 0.0
C238 C 0.76085 0.42338 0.88766 0.0
C239 C 0.71275 0.43311 0.91275 0.0
H240 H 0.70804 0.6647 0.55684 0.0
C241 C 0.70262 0.65942 0.52996 0.0
H242 H 0.73567 0.69617 0.47971 0.0
H243 H 0.82164 0.97863 0.51746 0.0
H244 H 0.72299 1.0086 0.4752 0.0
H245 H 0.65295 0.92154 0.45209 0.0
H246 H 0.68181 0.80406 0.47096 0.0
C247 C 0.74168 0.69922 0.50683 0.0
C248 C 0.78947 0.7518 0.51776 0.0
C249 C 0.77179 0.82023 0.50653 0.0
C250 C 0.81135 0.87038 0.52032 0.0
C251 C 0.79263 0.93838 0.50842 0.0
C252 C 0.73625 0.95633 0.48401 0.0
C253 C 0.69694 0.90734 0.47097 0.0
C254 C 0.71413 0.84004 0.48204 0.0
H255 H 0.00917 0.88889 0.54437 0.0
C256 C 0.97623 0.91859 0.55839 0.0
H257 H 0.87111 0.93768 0.57366 0.0
H258 H 0.84765 0.62672 0.53898 0.0
H259 H 0.94589 0.59605 0.58162 0.0
H260 H 1.00724 0.68163 0.60958 0.0
H261 H 0.97204 0.79814 0.59459 0.0
C262 C 0.90502 0.90513 0.56162 0.0
C263 C 0.86837 0.85209 0.54549 0.0
C264 C 0.88777 0.78363 0.55583 0.0
C265 C 0.84962 0.73372 0.54117 0.0
C266 C 0.87262 0.6662 0.55047 0.0
C267 C 0.92925 0.64797 0.57473 0.0
C268 C 0.964 0.69617 0.59035 0.0
C269 C 0.94357 0.76318 0.58123 0.0
H270 H 0.75833 0.3544 0.53201 0.0
C271 C 0.72418 0.36909 0.50888 0.0
H272 H 0.69982 0.35606 0.45804 0.0
H273 H 0.99977 0.2638 0.41605 0.0
H274 H 0.98898 0.37475 0.38246 0.0
H275 H 0.89135 0.4519 0.39264 0.0
H276 H 0.80397 0.41808 0.43639 0.0
C277 C 0.73436 0.34096 0.48103 0.0
C278 C 0.79726 0.29594 0.47828 0.0
C279 C 0.84875 0.31682 0.45291 0.0
C280 C 0.90535 0.27251 0.44725 0.0
C281 C 0.95539 0.29478 0.42143 0.0
C282 C 0.95002 0.35871 0.40198 0.0
C283 C 0.8951 0.40211 0.40769 0.0
C284 C 0.84504 0.38181 0.43284 0.0
H285 H 0.88669 0.08583 0.44896 0.0
C286 C 0.94318 0.10147 0.44742 0.0
H287 H 0.02104 0.17219 0.45709 0.0
H288 H 0.70741 0.23874 0.52892 0.0
H289 H 0.72645 0.13221 0.56659 0.0
H290 H 0.83225 0.0606 0.5605 0.0
H291 H 0.91775 0.09369 0.51553 0.0
C292 C 0.96398 0.15849 0.45783 0.0
C293 C 0.91033 0.20719 0.46693 0.0
C294 C 0.86277 0.18842 0.49427 0.0
C295 C 0.80467 0.23194 0.49929 0.0
C296 C 0.75466 0.20949 0.52504 0.0
C297 C 0.76466 0.14813 0.54672 0.0
C298 C 0.82397 0.10758 0.54316 0.0
C299 C 0.87236 0.12699 0.51713 0.0
H300 H 0.36104 0.38148 0.46489 0.0
C301 C 0.39582 0.37102 0.48805 0.0
H302 H 0.41367 0.313 0.53711 0.0
H303 H 0.10111 0.24338 0.58037 0.0
H304 H 0.13443 0.32457 0.61657 0.0
H305 H 0.24633 0.39102 0.60679 0.0
H306 H 0.32511 0.37687 0.56077 0.0
C307 C 0.37884 0.32199 0.51389 0.0
C308 C 0.30682 0.28842 0.51592 0.0
C309 C 0.26105 0.2976 0.54292 0.0
C310 C 0.19708 0.25889 0.54885 0.0
C311 C 0.15166 0.26995 0.57553 0.0
C312 C 0.16975 0.31687 0.59627 0.0
C313 C 0.23267 0.3543 0.59074 0.0
C314 C 0.27774 0.34529 0.56434 0.0
H315 H 0.17053 0.12252 0.58638 0.0
C316 C 0.12654 0.11763 0.56783 0.0
H317 H 0.07622 0.15685 0.51985 0.0
H318 H 0.38021 0.26027 0.46086 0.0
H319 H 0.341 0.18581 0.42206 0.0
H320 H 0.22611 0.12347 0.43053 0.0
H321 H 0.15075 0.13444 0.47814 0.0
C322 C 0.12111 0.16091 0.538 0.0
C323 C 0.17925 0.21062 0.528 0.0
C324 C 0.22071 0.20636 0.49887 0.0
C325 C 0.28567 0.24416 0.49326 0.0
C326 C 0.32909 0.23482 0.46562 0.0
C327 C 0.30744 0.19183 0.44325 0.0
C328 C 0.2429 0.15658 0.44807 0.0
C329 C 0.20015 0.1632 0.47563 0.0
H330 H 0.33538 0.63167 0.52161 0.0
C331 C 0.37244 0.64241 0.50064 0.0
H332 H 0.39107 0.69904 0.45209 0.0
H333 H 0.08017 0.78756 0.39613 0.0
H334 H 0.11907 0.7189 0.35532 0.0
H335 H 0.23127 0.65038 0.36674 0.0
H336 H 0.30594 0.65065 0.41858 0.0
C337 C 0.3546 0.68966 0.47335 0.0
C338 C 0.28246 0.72514 0.46899 0.0
C339 C 0.23785 0.72233 0.43905 0.0
C340 C 0.17221 0.76076 0.43269 0.0
C341 C 0.13037 0.7592 0.40206 0.0
C342 C 0.15189 0.71985 0.37855 0.0
C343 C 0.21511 0.68127 0.38498 0.0
C344 C 0.25769 0.68216 0.41482 0.0
H345 H 0.17264 0.92832 0.44104 0.0
C346 C 0.11466 0.91774 0.43959 0.0
H347 H 0.03688 0.84055 0.44227 0.0
H348 H 0.35641 0.74907 0.52772 0.0
H349 H 0.31006 0.80891 0.57041 0.0
H350 H 0.18751 0.86111 0.56275 0.0
H351 H 0.11209 0.85499 0.51143 0.0
C352 C 0.09342 0.85383 0.44618 0.0
C353 C 0.15033 0.80074 0.45653 0.0
C354 C 0.19087 0.79829 0.48792 0.0
C355 C 0.25874 0.76342 0.49351 0.0
C356 C 0.30209 0.77001 0.52315 0.0
C357 C 0.27648 0.80509 0.54774 0.0
C358 C 0.20776 0.83483 0.54336 0.0
C359 C 0.16539 0.83172 0.51376 0.0
H360 H 0.01193 0.98501 0.2085 0.0
C361 C 0.05975 0.98123 0.19349 0.0
H362 H 0.17551 0.97449 0.19641 0.0
H363 H 0.17948 0.11701 0.32724 0.0
H364 H 0.24768 0.19445 0.28686 0.0
H365 H 0.26416 0.17375 0.22793 0.0
H366 H 0.21255 0.07571 0.20902 0.0
C367 C 0.12559 0.97514 0.21004 0.0
C368 C 0.13163 0.97887 0.24721 0.0
C369 C 0.16442 0.03537 0.25798 0.0
C370 C 0.15492 0.04742 0.29188 0.0
C371 C 0.18523 0.10559 0.30175 0.0
C372 C 0.22452 0.15035 0.27885 0.0
C373 C 0.23381 0.13868 0.24567 0.0
C374 C 0.20392 0.08214 0.23515 0.0
H375 H 0.1786 0.99866 0.37768 0.0
C376 C 0.12321 0.01832 0.37542 0.0
H377 H 0.02713 0.03677 0.34481 0.0
H378 H 0.07985 0.85726 0.2372 0.0
H379 H 0.01692 0.777 0.27865 0.0
H380 H 0.99757 0.79945 0.33704 0.0
H381 H 0.04211 0.90166 0.35455 0.0
C382 C 0.08469 0.02365 0.34564 0.0
C383 C 0.11305 1.0028 0.31463 0.0
C384 C 0.08751 0.94266 0.30507 0.0
C385 C 0.09747 0.93029 0.27134 0.0
C386 C 0.07187 0.86968 0.26235 0.0
C387 C 0.03617 0.82313 0.28592 0.0
C388 C 0.02533 0.83575 0.31882 0.0
C389 C 0.05078 0.89467 0.32848 0.0
H390 H 0.94144 0.1111 0.80373 0.0
C391 C 0.9918 0.12702 0.81518 0.0
H392 H 0.09805 0.16386 0.80458 0.0
H393 H 0.09955 0.98761 0.68568 0.0
H394 H 0.18069 0.92348 0.72829 0.0
H395 H 0.20209 0.95608 0.78503 0.0
H396 H 0.14073 0.05272 0.79956 0.0
C397 C 0.04698 0.14689 0.79456 0.0
C398 C 0.04359 0.13578 0.75839 0.0
C399 C 0.08241 0.08104 0.74971 0.0
C400 C 0.07172 0.0636 0.71656 0.0
C401 C 0.10719 1.00539 0.70971 0.0
C402 C 0.1538 0.96746 0.73417 0.0
C403 C 0.16568 0.98567 0.76615 0.0
C404 C 0.13018 0.04141 0.77407 0.0
H405 H 0.11219 0.09464 0.63986 0.0
C406 C 0.05743 0.07735 0.63511 0.0
H407 H 0.95028 0.07054 0.65232 0.0
H408 H 0.96816 0.24813 0.76595 0.0
H409 H 0.8901 0.31648 0.72258 0.0
H410 H 0.87357 0.28844 0.6645 0.0
H411 H 0.93467 0.19191 0.64943 0.0
C412 C 1.00663 0.08185 0.65811 0.0
C413 C 0.02421 0.10295 0.69171 0.0
C414 C 0.98854 0.15987 0.69997 0.0
C415 C 0.99813 0.1762 0.73339 0.0
C416 C 0.96192 0.2332 0.74102 0.0
C417 C 0.91731 0.27297 0.71634 0.0
C418 C 0.908 0.25718 0.68364 0.0
C419 C 0.94314 0.20144 0.67537 0.0
H420 H 0.45513 0.44023 0.69958 0.0
C421 C 0.50836 0.42554 0.692 0.0
H422 H 0.61547 0.39462 0.71022 0.0
H423 H 0.57742 0.6011 0.81297 0.0
H424 H 0.67075 0.65399 0.77638 0.0
H425 H 0.71204 0.60387 0.72776 0.0
H426 H 0.65962 0.50072 0.7154 0.0
C427 C 0.56171 0.41027 0.7163 0.0
C428 C 0.55191 0.42853 0.75046 0.0
C429 C 0.58587 0.48697 0.75826 0.0
C430 C 0.56334 0.51493 0.78672 0.0
C431 C 0.59418 0.57615 0.79248 0.0
C432 C 0.64751 0.60745 0.77146 0.0
C433 C 0.67064 0.57932 0.74405 0.0
C434 C 0.64004 0.52007 0.73725 0.0
H435 H 0.57795 0.49963 0.86601 0.0
C436 C 0.52199 0.51777 0.86414 0.0
H437 H 0.42265 0.52462 0.83553 0.0
H438 H 0.48618 0.31013 0.74524 0.0
H439 H 0.39745 0.25279 0.7837 0.0
H440 H 0.35991 0.29954 0.83406 0.0
H441 H 0.41034 0.40377 0.84618 0.0
C442 C 0.4806 0.51341 0.83607 0.0
C443 C 0.50889 0.48264 0.80787 0.0
C444 C 0.47927 0.42127 0.80157 0.0
C445 C 0.50087 0.3942 0.77272 0.0
C446 C 0.47054 0.33308 0.76668 0.0
C447 C 0.42003 0.29958 0.78862 0.0
C448 C 0.3989 0.3259 0.81698 0.0
C449 C 0.42807 0.38594 0.82355 0.0
H450 H 0.68234 0.6179 0.31545 0.0
C451 C 0.62887 0.59808 0.32223 0.0
H452 H 0.53555 0.55153 0.30465 0.0
H453 H 0.63118 0.69649 0.15283 0.0
H454 H 0.61379 0.80339 0.17179 0.0
H455 H 0.5937 0.80774 0.23275 0.0
H456 H 0.59168 0.7059 0.27503 0.0
C457 C 0.58609 0.57728 0.29801 0.0
C458 C 0.61087 0.57787 0.26279 0.0
C459 C 0.61197 0.63826 0.23878 0.0
C460 C 0.62144 0.63587 0.20357 0.0
C461 C 0.62228 0.69621 0.17973 0.0
C462 C 0.61282 0.75756 0.19033 0.0
C463 C 0.60169 0.75999 0.22468 0.0
C464 C 0.60087 0.70116 0.24873 0.0
H465 H 0.49629 0.58099 0.16506 0.0
C466 C 0.5366 0.57225 0.14682 0.0
H467 H 0.64776 0.55421 0.1398 0.0
H468 H 0.62714 0.45485 0.30346 0.0
H469 H 0.64999 0.34953 0.28412 0.0
H470 H 0.66335 0.34589 0.22259 0.0
H471 H 0.65445 0.44785 0.18005 0.0
C472 C 0.6073 0.56855 0.15652 0.0
C473 C 0.62728 0.57345 0.19258 0.0
C474 C 0.63487 0.51408 0.21697 0.0
C475 C 0.62648 0.51621 0.25225 0.0
C476 C 0.63224 0.45586 0.27621 0.0
C477 C 0.64555 0.39519 0.26546 0.0
C478 C 0.65311 0.39314 0.23082 0.0
C479 C 0.64766 0.45178 0.2067 0.0
loop_
_geom_bond_atom_site_label_1
_geom_bond_atom_site_label_2
_geom_bond_distance
_geom_bond_site_symmetry_2
_ccdc_geom_bond_type
C0 O16 1.251 . S
C0 O18 1.254 1_554 S
N1 C2 1.333 1_445 S
N1 C6 1.307 . S
N1 Zn7 2.020 . S
C2 N1 1.333 1_665 S
C2 C3 1.379 . S
C2 H20 0.952 . S
C3 C2 1.379 . S
C3 C4 1.390 1_655 S
C3 H30 0.949 . S
C4 C3 1.390 1_455 S
C4 C5 1.357 1_565 S
C5 C4 1.357 1_545 S
C5 C6 1.370 . S
C5 H31 0.950 . S
C6 N1 1.307 . S
C6 C5 1.370 . S
C6 H24 0.948 . S
Zn7 N1 2.020 . S
Zn7 O16 2.039 1_445 S
Zn7 O22 2.034 1_455 S
Zn7 O26 2.025 . S
Zn7 O28 2.024 1_545 S
C8 O27 1.246 1_554 S
C8 O28 1.249 . S
N9 C10 1.307 1_455 S
N9 C11 1.333 . S
N9 Zn15 2.020 . S
C10 N9 1.307 1_655 S
C10 C14 1.370 . S
C10 H21 0.948 . S
C11 N9 1.333 . S
C11 C12 1.379 . S
C11 H19 0.952 . S
C12 C11 1.379 . S
C12 C13 1.390 . S
C12 H32 0.949 . S
C13 C12 1.390 . S
C13 C14 1.357 1_455 S
C14 C10 1.370 . S
C14 C13 1.357 1_655 S
C14 H33 0.950 . S
Zn15 N9 2.020 . S
Zn15 O18 2.025 1_445 S
Zn15 O23 2.024 1_455 S
Zn15 O25 2.039 . S
Zn15 O27 2.034 1_545 S
O16 C0 1.251 . S
O16 Zn7 2.039 1_665 S
C17 O22 1.246 . S
C17 O23 1.249 1_554 S
O18 C0 1.254 1_556 S
O18 Zn15 2.025 1_665 S
H19 C11 0.952 . S
H20 C2 0.952 . S
H21 C10 0.948 . S
O22 Zn7 2.034 1_655 S
O22 C17 1.246 . S
O23 Zn15 2.024 1_655 S
O23 C17 1.249 1_556 S
H24 C6 0.948 . S
O25 Zn15 2.039 . S
O25 C29 1.251 1_556 S
O26 Zn7 2.025 . S
O26 C29 1.254 . S
O27 C8 1.246 1_556 S
O27 Zn15 2.034 1_565 S
O28 Zn7 2.024 1_565 S
O28 C8 1.249 . S
C29 O25 1.251 1_554 S
C29 O26 1.254 . S
H30 C3 0.949 . S
H31 C5 0.950 . S
H32 C12 0.949 . S
H33 C14 0.950 . S
C34 O50 1.251 . S
C34 O52 1.254 . S
N35 C36 1.333 . S
N35 C40 1.307 . S
N35 Zn41 2.020 . S
C36 N35 1.333 . S
C36 C37 1.379 . S
C36 H54 0.952 . S
C37 C36 1.379 . S
C37 C38 1.390 . S
C37 H64 0.949 . S
C38 C37 1.390 . S
C38 C39 1.357 . S
C39 C38 1.357 . S
C39 C40 1.370 . S
C39 H65 0.950 . S
C40 N35 1.307 . S
C40 C39 1.370 . S
C40 H58 0.948 . S
Zn41 N35 2.020 . S
Zn41 O50 2.039 . S
Zn41 O56 2.034 . S
Zn41 O60 2.025 . S
Zn41 O62 2.024 . S
C42 O61 1.246 . S
C42 O62 1.249 . S
N43 C44 1.307 . S
N43 C45 1.333 . S
N43 Zn49 2.020 . S
C44 N43 1.307 . S
C44 C48 1.370 . S
C44 H55 0.948 . S
C45 N43 1.333 . S
C45 C46 1.379 . S
C45 H53 0.952 . S
C46 C45 1.379 . S
C46 C47 1.390 . S
C46 H66 0.949 . S
C47 C46 1.390 . S
C47 C48 1.357 . S
C48 C44 1.370 . S
C48 C47 1.357 . S
C48 H67 0.950 . S
Zn49 N43 2.020 . S
Zn49 O52 2.025 . S
Zn49 O57 2.024 . S
Zn49 O59 2.039 . S
Zn49 O61 2.034 . S
O50 C34 1.251 . S
O50 Zn41 2.039 . S
C51 O56 1.246 . S
C51 O57 1.249 . S
O52 C34 1.254 . S
O52 Zn49 2.025 . S
H53 C45 0.952 . S
H54 C36 0.952 . S
H55 C44 0.948 . S
O56 Zn41 2.034 . S
O56 C51 1.246 . S
O57 Zn49 2.024 . S
O57 C51 1.249 . S
H58 C40 0.948 . S
O59 Zn49 2.039 . S
O59 C63 1.251 . S
O60 Zn41 2.025 . S
O60 C63 1.254 . S
O61 C42 1.246 . S
O61 Zn49 2.034 . S
O62 Zn41 2.024 . S
O62 C42 1.249 . S
C63 O59 1.251 . S
C63 O60 1.254 . S
H64 C37 0.949 . S
H65 C39 0.950 . S
H66 C46 0.949 . S
H67 C48 0.950 . S
C68 N69 1.317 1_545 S
C68 N70 1.348 1_455 S
C68 C71 1.485 1_545 S
N69 C68 1.317 1_565 S
N69 N73 1.368 1_565 S
N70 C68 1.348 1_655 S
N70 C72 1.346 . S
C71 C68 1.485 1_565 S
C71 H75 0.960 1_455 S
C71 H76 0.961 1_565 S
C71 H77 0.960 . S
C72 N70 1.346 . S
C72 N73 1.313 1_655 S
C72 C74 1.486 . S
N73 N69 1.368 1_545 S
N73 C72 1.313 1_455 S
C74 C72 1.486 . S
C74 H78 0.960 . S
C74 H79 0.960 . S
C74 H80 0.959 . S
H75 C71 0.960 1_655 S
H76 C71 0.961 1_545 S
H77 C71 0.960 . S
H78 C74 0.960 . S
H79 C74 0.960 . S
H80 C74 0.959 . S
C81 N82 1.317 . S
C81 N83 1.348 1_445 S
C81 C84 1.485 . S
N82 C81 1.317 . S
N82 N86 1.370 . S
N83 C81 1.348 1_665 S
N83 C85 1.346 1_565 S
C84 C81 1.485 . S
C84 H88 0.960 . S
C84 H89 0.961 . S
C84 H90 0.960 . S
C85 N83 1.346 1_545 S
C85 N86 1.307 1_655 S
C85 C87 1.486 1_545 S
N86 N82 1.370 . S
N86 C85 1.307 1_455 S
C87 C85 1.486 1_565 S
C87 H91 0.960 . S
C87 H92 0.960 . S
C87 H93 0.959 . S
H88 C84 0.960 . S
H89 C84 0.961 . S
H90 C84 0.960 . S
H91 C87 0.960 . S
H92 C87 0.960 . S
H93 C87 0.959 . S
C94 N95 1.317 . S
C94 N96 1.348 . S
C94 C97 1.485 1_556 S
N95 C94 1.317 . S
N95 N99 1.370 . S
N96 C94 1.348 . S
N96 C98 1.346 . S
C97 C94 1.485 1_554 S
C97 H101 0.960 . S
C97 H102 0.961 . S
C97 H103 0.960 . S
C98 N96 1.346 . S
C98 N99 1.307 . S
C98 C100 1.486 . S
N99 N95 1.370 . S
N99 C98 1.307 . S
C100 C98 1.486 . S
C100 H104 0.960 . S
C100 H105 0.960 . S
C100 H106 0.959 . S
H101 C97 0.960 . S
H102 C97 0.961 . S
H103 C97 0.960 . S
H104 C100 0.960 . S
H105 C100 0.960 . S
H106 C100 0.959 . S
C107 N108 1.317 . S
C107 N109 1.348 . S
C107 C110 1.485 1_554 S
N108 C107 1.317 . S
N108 N112 1.370 . S
N109 C107 1.348 . S
N109 C111 1.346 . S
C110 C107 1.485 1_556 S
C110 H114 0.960 . S
C110 H115 0.961 . S
C110 H116 0.960 . S
C111 N109 1.346 . S
C111 N112 1.307 . S
C111 C113 1.486 . S
N112 N108 1.370 . S
N112 C111 1.307 . S
C113 C111 1.486 . S
C113 H117 0.960 . S
C113 H118 0.960 . S
C113 H119 0.959 . S
H114 C110 0.960 . S
H115 C110 0.961 . S
H116 C110 0.960 . S
H117 C113 0.960 . S
H118 C113 0.960 . S
H119 C113 0.959 . S
H120 C121 0.951 . S
C121 H120 0.951 . S
C121 C127 1.265 . S
H122 C127 0.950 . S
H123 C131 0.949 . S
H124 C132 0.950 . S
H125 C133 0.951 . S
H126 C134 0.951 . S
C127 C121 1.265 . S
C127 H122 0.950 . S
C127 C128 1.478 . S
C128 C127 1.478 . S
C128 C129 1.397 . S
C128 C145 1.394 1_554 S
C129 C128 1.397 . S
C129 C130 1.438 . S
C129 C134 1.429 . S
C130 C129 1.438 . S
C130 C131 1.428 . S
C130 C143 1.394 . S
C131 H123 0.949 . S
C131 C130 1.428 . S
C131 C132 1.345 . S
C132 H124 0.950 . S
C132 C131 1.345 . S
C132 C133 1.424 . S
C133 H125 0.951 . S
C133 C132 1.424 . S
C133 C134 1.347 . S
C134 H126 0.951 . S
C134 C129 1.429 . S
C134 C133 1.347 . S
H135 C136 0.951 . S
C136 H135 0.951 . S
C136 C142 1.265 . S
H137 C142 0.950 . S
H138 C146 0.949 . S
H139 C147 0.950 . S
H140 C148 0.951 . S
H141 C149 0.951 . S
C142 C136 1.265 . S
C142 H137 0.950 . S
C142 C143 1.478 . S
C143 C130 1.394 . S
C143 C142 1.478 . S
C143 C144 1.397 1_554 S
C144 C143 1.397 1_556 S
C144 C145 1.438 . S
C144 C149 1.429 . S
C145 C128 1.394 1_556 S
C145 C144 1.438 . S
C145 C146 1.428 . S
C146 H138 0.949 . S
C146 C145 1.428 . S
C146 C147 1.345 . S
C147 H139 0.950 . S
C147 C146 1.345 . S
C147 C148 1.424 . S
C148 H140 0.951 . S
C148 C147 1.424 . S
C148 C149 1.347 . S
C149 H141 0.951 . S
C149 C144 1.429 . S
C149 C148 1.347 . S
H150 C151 0.951 . S
C151 H150 0.951 . S
C151 C157 1.265 . S
H152 C157 0.950 . S
H153 C161 0.949 . S
H154 C162 0.950 . S
H155 C163 0.951 . S
H156 C164 0.951 . S
C157 C151 1.265 . S
C157 H152 0.950 . S
C157 C158 1.478 . S
C158 C157 1.478 . S
C158 C159 1.397 . S
C158 C175 1.394 1_554 S
C159 C158 1.397 . S
C159 C160 1.438 . S
C159 C164 1.429 . S
C160 C159 1.438 . S
C160 C161 1.428 . S
C160 C173 1.372 1_554 S
C161 H153 0.949 . S
C161 C160 1.428 . S
C161 C162 1.345 . S
C162 H154 0.950 . S
C162 C161 1.345 . S
C162 C163 1.424 . S
C163 H155 0.951 . S
C163 C162 1.424 . S
C163 C164 1.347 . S
C164 H156 0.951 . S
C164 C159 1.429 . S
C164 C163 1.347 . S
H165 C166 0.951 . S
C166 H165 0.951 . S
C166 C172 1.265 . S
H167 C172 0.950 . S
H168 C176 0.949 . S
H169 C177 0.950 . S
H170 C178 0.951 . S
H171 C179 0.951 . S
C172 C166 1.265 . S
C172 H167 0.950 . S
C172 C173 1.486 . S
C173 C160 1.372 1_556 S
C173 C172 1.486 . S
C173 C174 1.412 . S
C174 C173 1.412 . S
C174 C175 1.438 . S
C174 C179 1.429 . S
C175 C158 1.394 1_556 S
C175 C174 1.438 . S
C175 C176 1.428 . S
C176 H168 0.949 . S
C176 C175 1.428 . S
C176 C177 1.345 . S
C177 H169 0.950 . S
C177 C176 1.345 . S
C177 C178 1.424 . S
C178 H170 0.951 . S
C178 C177 1.424 . S
C178 C179 1.347 . S
C179 H171 0.951 . S
C179 C174 1.429 . S
C179 C178 1.347 . S
H180 C181 0.951 . S
C181 H180 0.951 . S
C181 C187 1.265 . S
H182 C187 0.950 . S
H183 C191 0.949 . S
H184 C192 0.950 . S
H185 C193 0.951 . S
H186 C194 0.951 . S
C187 C181 1.265 . S
C187 H182 0.950 . S
C187 C188 1.478 . S
C188 C187 1.478 . S
C188 C189 1.397 1_554 S
C188 C205 1.394 . S
C189 C188 1.397 1_556 S
C189 C190 1.438 1_556 S
C189 C194 1.429 . S
C190 C189 1.438 1_554 S
C190 C191 1.428 1_554 S
C190 C203 1.394 . S
C191 H183 0.949 . S
C191 C190 1.428 1_556 S
C191 C192 1.345 . S
C192 H184 0.950 . S
C192 C191 1.345 . S
C192 C193 1.424 . S
C193 H185 0.951 . S
C193 C192 1.424 . S
C193 C194 1.347 . S
C194 H186 0.951 . S
C194 C189 1.429 . S
C194 C193 1.347 . S
H195 C196 0.951 . S
C196 H195 0.951 . S
C196 C202 1.265 . S
H197 C202 0.950 . S
H198 C206 0.949 . S
H199 C207 0.950 . S
H200 C208 0.951 . S
H201 C209 0.951 . S
C202 C196 1.265 . S
C202 H197 0.950 . S
C202 C203 1.478 . S
C203 C190 1.394 . S
C203 C202 1.478 . S
C203 C204 1.397 . S
C204 C203 1.397 . S
C204 C205 1.438 . S
C204 C209 1.429 . S
C205 C188 1.394 . S
C205 C204 1.438 . S
C205 C206 1.428 . S
C206 H198 0.949 . S
C206 C205 1.428 . S
C206 C207 1.345 . S
C207 H199 0.950 . S
C207 C206 1.345 . S
C207 C208 1.424 . S
C208 H200 0.951 . S
C208 C207 1.424 . S
C208 C209 1.347 . S
C209 H201 0.951 . S
C209 C204 1.429 . S
C209 C208 1.347 . S
H210 C211 0.951 1_556 S
C211 H210 0.951 1_554 S
C211 C217 1.265 . S
H212 C217 0.950 . S
H213 C221 0.949 . S
H214 C222 0.950 . S
H215 C223 0.951 . S
H216 C224 0.951 . S
C217 C211 1.265 . S
C217 H212 0.950 . S
C217 C218 1.478 1_554 S
C218 C217 1.478 1_556 S
C218 C219 1.397 1_556 S
C218 C235 1.394 . S
C219 C218 1.397 1_554 S
C219 C220 1.438 . S
C219 C224 1.429 . S
C220 C219 1.438 . S
C220 C221 1.428 . S
C220 C233 1.394 1_554 S
C221 H213 0.949 . S
C221 C220 1.428 . S
C221 C222 1.345 . S
C222 H214 0.950 . S
C222 C221 1.345 . S
C222 C223 1.424 . S
C223 H215 0.951 . S
C223 C222 1.424 . S
C223 C224 1.347 . S
C224 H216 0.951 . S
C224 C219 1.429 . S
C224 C223 1.347 . S
H225 C226 0.951 . S
C226 H225 0.951 . S
C226 C232 1.265 . S
H227 C232 0.950 . S
H228 C236 0.949 . S
H229 C237 0.950 . S
H230 C238 0.951 . S
H231 C239 0.951 . S
C232 C226 1.265 . S
C232 H227 0.950 . S
C232 C233 1.478 . S
C233 C220 1.394 1_556 S
C233 C232 1.478 . S
C233 C234 1.397 . S
C234 C233 1.397 . S
C234 C235 1.438 . S
C234 C239 1.429 . S
C235 C218 1.394 . S
C235 C234 1.438 . S
C235 C236 1.428 . S
C236 H228 0.949 . S
C236 C235 1.428 . S
C236 C237 1.345 . S
C237 H229 0.950 . S
C237 C236 1.345 . S
C237 C238 1.424 . S
C238 H230 0.951 . S
C238 C237 1.424 . S
C238 C239 1.347 . S
C239 H231 0.951 . S
C239 C234 1.429 . S
C239 C238 1.347 . S
H240 C241 0.951 . S
C241 H240 0.951 . S
C241 C247 1.265 . S
H242 C247 0.950 . S
H243 C251 0.949 . S
H244 C252 0.950 . S
H245 C253 0.951 . S
H246 C254 0.951 . S
C247 C241 1.265 . S
C247 H242 0.950 . S
C247 C248 1.478 . S
C248 C247 1.478 . S
C248 C249 1.397 . S
C248 C265 1.394 . S
C249 C248 1.397 . S
C249 C250 1.438 . S
C249 C254 1.429 . S
C250 C249 1.438 . S
C250 C251 1.428 . S
C250 C263 1.394 . S
C251 H243 0.949 . S
C251 C250 1.428 . S
C251 C252 1.345 . S
C252 H244 0.950 . S
C252 C251 1.345 . S
C252 C253 1.424 . S
C253 H245 0.951 . S
C253 C252 1.424 . S
C253 C254 1.347 . S
C254 H246 0.951 . S
C254 C249 1.429 . S
C254 C253 1.347 . S
H255 C256 0.951 . S
C256 H255 0.951 . S
C256 C262 1.265 . S
H257 C262 0.950 . S
H258 C266 0.949 . S
H259 C267 0.950 . S
H260 C268 0.951 . S
H261 C269 0.951 . S
C262 C256 1.265 . S
C262 H257 0.950 . S
C262 C263 1.478 . S
C263 C250 1.394 . S
C263 C262 1.478 . S
C263 C264 1.397 . S
C264 C263 1.397 . S
C264 C265 1.438 . S
C264 C269 1.429 . S
C265 C248 1.394 . S
C265 C264 1.438 . S
C265 C266 1.428 . S
C266 H258 0.949 . S
C266 C265 1.428 . S
C266 C267 1.345 . S
C267 H259 0.950 . S
C267 C266 1.345 . S
C267 C268 1.424 . S
C268 H260 0.951 . S
C268 C267 1.424 . S
C268 C269 1.347 . S
C269 H261 0.951 . S
C269 C264 1.429 . S
C269 C268 1.347 . S
H270 C271 0.951 . S
C271 H270 0.951 . S
C271 C277 1.265 . S
H272 C277 0.950 . S
H273 C281 0.949 . S
H274 C282 0.950 . S
H275 C283 0.951 . S
H276 C284 0.951 . S
C277 C271 1.265 . S
C277 H272 0.950 . S
C277 C278 1.478 . S
C278 C277 1.478 . S
C278 C279 1.397 . S
C278 C295 1.394 . S
C279 C278 1.397 . S
C279 C280 1.438 . S
C279 C284 1.429 . S
C280 C279 1.438 . S
C280 C281 1.428 . S
C280 C293 1.394 . S
C281 H273 0.949 . S
C281 C280 1.428 . S
C281 C282 1.345 . S
C282 H274 0.950 . S
C282 C281 1.345 . S
C282 C283 1.424 . S
C283 H275 0.951 . S
C283 C282 1.424 . S
C283 C284 1.347 . S
C284 H276 0.951 . S
C284 C279 1.429 . S
C284 C283 1.347 . S
H285 C286 0.951 . S
C286 H285 0.951 . S
C286 C292 1.265 . S
H287 C292 0.950 . S
H288 C296 0.949 . S
H289 C297 0.950 . S
H290 C298 0.951 . S
H291 C299 0.951 . S
C292 C286 1.265 . S
C292 H287 0.950 . S
C292 C293 1.478 . S
C293 C280 1.394 . S
C293 C292 1.478 . S
C293 C294 1.397 . S
C294 C293 1.397 . S
C294 C295 1.438 . S
C294 C299 1.429 . S
C295 C278 1.394 . S
C295 C294 1.438 . S
C295 C296 1.428 . S
C296 H288 0.949 . S
C296 C295 1.428 . S
C296 C297 1.345 . S
C297 H289 0.950 . S
C297 C296 1.345 . S
C297 C298 1.424 . S
C298 H290 0.951 . S
C298 C297 1.424 . S
C298 C299 1.347 . S
C299 H291 0.951 . S
C299 C294 1.429 . S
C299 C298 1.347 . S
H300 C301 0.951 . S
C301 H300 0.951 . S
C301 C307 1.265 . S
H302 C307 0.950 . S
H303 C311 0.949 . S
H304 C312 0.950 . S
H305 C313 0.951 . S
H306 C314 0.951 . S
C307 C301 1.265 . S
C307 H302 0.950 . S
C307 C308 1.478 . S
C308 C307 1.478 . S
C308 C309 1.397 . S
C308 C325 1.394 . S
C309 C308 1.397 . S
C309 C310 1.438 . S
C309 C314 1.429 . S
C310 C309 1.438 . S
C310 C311 1.428 . S
C310 C323 1.394 . S
C311 H303 0.949 . S
C311 C310 1.428 . S
C311 C312 1.345 . S
C312 H304 0.950 . S
C312 C311 1.345 . S
C312 C313 1.424 . S
C313 H305 0.951 . S
C313 C312 1.424 . S
C313 C314 1.347 . S
C314 H306 0.951 . S
C314 C309 1.429 . S
C314 C313 1.347 . S
H315 C316 0.951 . S
C316 H315 0.951 . S
C316 C322 1.265 . S
H317 C322 0.950 . S
H318 C326 0.949 . S
H319 C327 0.950 . S
H320 C328 0.951 . S
H321 C329 0.951 . S
C322 C316 1.265 . S
C322 H317 0.950 . S
C322 C323 1.478 . S
C323 C310 1.394 . S
C323 C322 1.478 . S
C323 C324 1.397 . S
C324 C323 1.397 . S
C324 C325 1.438 . S
C324 C329 1.429 . S
C325 C308 1.394 . S
C325 C324 1.438 . S
C325 C326 1.428 . S
C326 H318 0.949 . S
C326 C325 1.428 . S
C326 C327 1.345 . S
C327 H319 0.950 . S
C327 C326 1.345 . S
C327 C328 1.424 . S
C328 H320 0.951 . S
C328 C327 1.424 . S
C328 C329 1.347 . S
C329 H321 0.951 . S
C329 C324 1.429 . S
C329 C328 1.347 . S
H330 C331 0.951 . S
C331 H330 0.951 . S
C331 C337 1.265 . S
H332 C337 0.950 . S
H333 C341 0.949 . S
H334 C342 0.950 . S
H335 C343 0.951 . S
H336 C344 0.951 . S
C337 C331 1.265 . S
C337 H332 0.950 . S
C337 C338 1.478 . S
C338 C337 1.478 . S
C338 C339 1.397 . S
C338 C355 1.394 . S
C339 C338 1.397 . S
C339 C340 1.438 . S
C339 C344 1.429 . S
C340 C339 1.438 . S
C340 C341 1.428 . S
C340 C353 1.394 . S
C341 H333 0.949 . S
C341 C340 1.428 . S
C341 C342 1.345 . S
C342 H334 0.950 . S
C342 C341 1.345 . S
C342 C343 1.424 . S
C343 H335 0.951 . S
C343 C342 1.424 . S
C343 C344 1.347 . S
C344 H336 0.951 . S
C344 C339 1.429 . S
C344 C343 1.347 . S
H345 C346 0.951 . S
C346 H345 0.951 . S
C346 C352 1.265 . S
H347 C352 0.950 . S
H348 C356 0.949 . S
H349 C357 0.950 . S
H350 C358 0.951 . S
H351 C359 0.951 . S
C352 C346 1.265 . S
C352 H347 0.950 . S
C352 C353 1.478 . S
C353 C340 1.394 . S
C353 C352 1.478 . S
C353 C354 1.397 . S
C354 C353 1.397 . S
C354 C355 1.438 . S
C354 C359 1.429 . S
C355 C338 1.394 . S
C355 C354 1.438 . S
C355 C356 1.428 . S
C356 H348 0.949 . S
C356 C355 1.428 . S
C356 C357 1.345 . S
C357 H349 0.950 . S
C357 C356 1.345 . S
C357 C358 1.424 . S
C358 H350 0.951 . S
C358 C357 1.424 . S
C358 C359 1.347 . S
C359 H351 0.951 . S
C359 C354 1.429 . S
C359 C358 1.347 . S
H360 C361 0.951 1_655 S
C361 H360 0.951 1_455 S
C361 C367 1.265 . S
H362 C367 0.950 1_545 S
H363 C371 0.949 . S
H364 C372 0.950 . S
H365 C373 0.951 . S
H366 C374 0.951 . S
C367 C361 1.265 . S
C367 H362 0.950 1_565 S
C367 C368 1.478 . S
C368 C367 1.478 . S
C368 C369 1.397 1_565 S
C368 C385 1.394 . S
C369 C368 1.397 1_545 S
C369 C370 1.438 . S
C369 C374 1.429 . S
C370 C369 1.438 . S
C370 C371 1.428 . S
C370 C383 1.394 1_545 S
C371 H363 0.949 . S
C371 C370 1.428 . S
C371 C372 1.345 . S
C372 H364 0.950 . S
C372 C371 1.345 . S
C372 C373 1.424 . S
C373 H365 0.951 . S
C373 C372 1.424 . S
C373 C374 1.347 . S
C374 H366 0.951 . S
C374 C369 1.429 . S
C374 C373 1.347 . S
H375 C376 0.951 . S
C376 H375 0.951 . S
C376 C382 1.265 1_455 S
H377 C382 0.950 . S
H378 C386 0.949 1_455 S
H379 C387 0.950 . S
H380 C388 0.951 . S
H381 C389 0.951 . S
C382 C376 1.265 1_655 S
C382 H377 0.950 . S
C382 C383 1.478 1_655 S
C383 C370 1.394 1_565 S
C383 C382 1.478 1_455 S
C383 C384 1.397 1_455 S
C384 C383 1.397 1_655 S
C384 C385 1.438 1_655 S
C384 C389 1.429 . S
C385 C368 1.394 . S
C385 C384 1.438 1_455 S
C385 C386 1.428 1_455 S
C386 H378 0.949 1_655 S
C386 C385 1.428 1_655 S
C386 C387 1.345 . S
C387 H379 0.950 . S
C387 C386 1.345 . S
C387 C388 1.424 . S
C388 H380 0.951 . S
C388 C387 1.424 . S
C388 C389 1.347 . S
C389 H381 0.951 . S
C389 C384 1.429 . S
C389 C388 1.347 . S
H390 C391 0.951 1_655 S
C391 H390 0.951 1_455 S
C391 C397 1.265 . S
H392 C397 0.950 . S
H393 C401 0.949 . S
H394 C402 0.950 . S
H395 C403 0.951 . S
H396 C404 0.951 . S
C397 C391 1.265 . S
C397 H392 0.950 . S
C397 C398 1.478 . S
C398 C397 1.478 . S
C398 C399 1.397 . S
C398 C415 1.394 . S
C399 C398 1.397 . S
C399 C400 1.438 . S
C399 C404 1.429 1_545 S
C400 C399 1.438 . S
C400 C401 1.428 1_545 S
C400 C413 1.394 . S
C401 H393 0.949 . S
C401 C400 1.428 1_565 S
C401 C402 1.345 . S
C402 H394 0.950 . S
C402 C401 1.345 . S
C402 C403 1.424 . S
C403 H395 0.951 . S
C403 C402 1.424 . S
C403 C404 1.347 . S
C404 H396 0.951 . S
C404 C399 1.429 1_565 S
C404 C403 1.347 . S
H405 C406 0.951 . S
C406 H405 0.951 . S
C406 C412 1.265 1_455 S
H407 C412 0.950 . S
H408 C416 0.949 . S
H409 C417 0.950 . S
H410 C418 0.951 . S
H411 C419 0.951 . S
C412 C406 1.265 1_655 S
C412 H407 0.950 . S
C412 C413 1.478 1_655 S
C413 C400 1.394 . S
C413 C412 1.478 1_455 S
C413 C414 1.397 . S
C414 C413 1.397 . S
C414 C415 1.438 . S
C414 C419 1.429 1_455 S
C415 C398 1.394 . S
C415 C414 1.438 . S
C415 C416 1.428 . S
C416 H408 0.949 . S
C416 C415 1.428 . S
C416 C417 1.345 1_455 S
C417 H409 0.950 . S
C417 C416 1.345 1_655 S
C417 C418 1.424 . S
C418 H410 0.951 . S
C418 C417 1.424 . S
C418 C419 1.347 . S
C419 H411 0.951 . S
C419 C414 1.429 1_655 S
C419 C418 1.347 . S
H420 C421 0.951 . S
C421 H420 0.951 . S
C421 C427 1.265 . S
H422 C427 0.950 . S
H423 C431 0.949 . S
H424 C432 0.950 . S
H425 C433 0.951 . S
H426 C434 0.951 . S
C427 C421 1.265 . S
C427 H422 0.950 . S
C427 C428 1.478 . S
C428 C427 1.478 . S
C428 C429 1.397 . S
C428 C445 1.394 . S
C429 C428 1.397 . S
C429 C430 1.438 . S
C429 C434 1.429 . S
C430 C429 1.438 . S
C430 C431 1.428 . S
C430 C443 1.394 . S
C431 H423 0.949 . S
C431 C430 1.428 . S
C431 C432 1.345 . S
C432 H424 0.950 . S
C432 C431 1.345 . S
C432 C433 1.424 . S
C433 H425 0.951 . S
C433 C432 1.424 . S
C433 C434 1.347 . S
C434 H426 0.951 . S
C434 C429 1.429 . S
C434 C433 1.347 . S
H435 C436 0.951 . S
C436 H435 0.951 . S
C436 C442 1.265 . S
H437 C442 0.950 . S
H438 C446 0.949 . S
H439 C447 0.950 . S
H440 C448 0.951 . S
H441 C449 0.951 . S
C442 C436 1.265 . S
C442 H437 0.950 . S
C442 C443 1.478 . S
C443 C430 1.394 . S
C443 C442 1.478 . S
C443 C444 1.397 . S
C444 C443 1.397 . S
C444 C445 1.438 . S
C444 C449 1.429 . S
C445 C428 1.394 . S
C445 C444 1.438 . S
C445 C446 1.428 . S
C446 H438 0.949 . S
C446 C445 1.428 . S
C446 C447 1.345 . S
C447 H439 0.950 . S
C447 C446 1.345 . S
C447 C448 1.424 . S
C448 H440 0.951 . S
C448 C447 1.424 . S
C448 C449 1.347 . S
C449 H441 0.951 . S
C449 C444 1.429 . S
C449 C448 1.347 . S
H450 C451 0.951 . S
C451 H450 0.951 . S
C451 C457 1.265 . S
H452 C457 0.950 . S
H453 C461 0.949 . S
H454 C462 0.950 . S
H455 C463 0.951 . S
H456 C464 0.951 . S
C457 C451 1.265 . S
C457 H452 0.950 . S
C457 C458 1.478 . S
C458 C457 1.478 . S
C458 C459 1.397 . S
C458 C475 1.394 . S
C459 C458 1.397 . S
C459 C460 1.438 . S
C459 C464 1.429 . S
C460 C459 1.438 . S
C460 C461 1.428 . S
C460 C473 1.394 . S
C461 H453 0.949 . S
C461 C460 1.428 . S
C461 C462 1.345 . S
C462 H454 0.950 . S
C462 C461 1.345 . S
C462 C463 1.424 . S
C463 H455 0.951 . S
C463 C462 1.424 . S
C463 C464 1.347 . S
C464 H456 0.951 . S
C464 C459 1.429 . S
C464 C463 1.347 . S
H465 C466 0.951 . S
C466 H465 0.951 . S
C466 C472 1.265 . S
H467 C472 0.950 . S
H468 C476 0.949 . S
H469 C477 0.950 . S
H470 C478 0.951 . S
H471 C479 0.951 . S
C472 C466 1.265 . S
C472 H467 0.950 . S
C472 C473 1.478 . S
C473 C460 1.394 . S
C473 C472 1.478 . S
C473 C474 1.397 . S
C474 C473 1.397 . S
C474 C475 1.438 . S
C474 C479 1.429 . S
C475 C458 1.394 . S
C475 C474 1.438 . S
C475 C476 1.428 . S
C476 H468 0.949 . S
C476 C475 1.428 . S
C476 C477 1.345 . S
C477 H469 0.950 . S
C477 C476 1.345 . S
C477 C478 1.424 . S
C478 H470 0.951 . S
C478 C477 1.424 . S
C478 C479 1.347 . S
C479 H471 0.951 . S
C479 C474 1.429 . S
C479 C478 1.347 . S
C136 N109 1.350 . S
C121 C29 1.358 . S
C151 C8 1.373 . S
C166 N96 1.343 . S
C181 C0 1.492 . S
C196 N108 1.496 . S
C211 C17 1.491 . S
C226 N95 1.493 . S
C241 C63 1.343 . S
C256 N83 1.342 . S
C271 C42 1.378 . S
C286 N70 1.350 . S
C316 N82 1.466 . S
C301 C34 1.477 . S
C346 N69 1.459 . S
C331 C51 1.451 . S
C361 C4 1.514 . S
C376 N73 1.510 1_565 S
C391 C13 1.509 . S
C406 N86 1.526 . S
C436 N99 1.511 . S
C421 C38 1.515 . S
C451 C47 1.528 . S
C466 N112 1.493 . S
