# Generated by pormake.
# Topology pyr, (3,6)-cn, num edge types: 1
# Building blocks:
#     Node 0, Type 0, BuildingBlock: PAMTOO_clean_linker_0, # of connection points: 3
#     Node 1, Type 0, BuildingBlock: PAMTOO_clean_linker_0, # of connection points: 3
#     Node 2, Type 0, BuildingBlock: PAMTOO_clean_linker_0, # of connection points: 3
#     Node 3, Type 0, BuildingBlock: PAMTOO_clean_linker_0, # of connection points: 3
#     Node 4, Type 0, BuildingBlock: PAMTOO_clean_linker_0, # of connection points: 3
#     Node 5, Type 0, BuildingBlock: PAMTOO_clean_linker_0, # of connection points: 3
#     Node 6, Type 0, BuildingBlock: PAMTOO_clean_linker_0, # of connection points: 3
#     Node 7, Type 0, BuildingBlock: PAMTOO_clean_linker_0, # of connection points: 3
#     Node 8, Type 1, BuildingBlock: LEVNOQ01_clean_sbu_1, # of connection points: 6
#     Node 9, Type 1, BuildingBlock: LEVNOQ01_clean_sbu_1, # of connection points: 6
#     Node 10, Type 1, BuildingBlock: LEVNOQ01_clean_sbu_1, # of connection points: 6
#     Node 11, Type 1, BuildingBlock: LEVNOQ01_clean_sbu_1, # of connection points: 6
#     Edge 12, Type (0, 1), BuildingBlock: KIFKEQ_clean_linker_1, # of connection points: 2
#     Edge 13, Type (0, 1), BuildingBlock: KIFKEQ_clean_linker_1, # of connection points: 2
#     Edge 14, Type (0, 1), BuildingBlock: KIFKEQ_clean_linker_1, # of connection points: 2
#     Edge 15, Type (0, 1), BuildingBlock: KIFKEQ_clean_linker_1, # of connection points: 2
#     Edge 16, Type (0, 1), BuildingBlock: KIFKEQ_clean_linker_1, # of connection points: 2
#     Edge 17, Type (0, 1), BuildingBlock: KIFKEQ_clean_linker_1, # of connection points: 2
#     Edge 18, Type (0, 1), BuildingBlock: KIFKEQ_clean_linker_1, # of connection points: 2
#     Edge 19, Type (0, 1), BuildingBlock: KIFKEQ_clean_linker_1, # of connection points: 2
#     Edge 20, Type (0, 1), BuildingBlock: KIFKEQ_clean_linker_1, # of connection points: 2
#     Edge 21, Type (0, 1), BuildingBlock: KIFKEQ_clean_linker_1, # of connection points: 2
#     Edge 22, Type (0, 1), BuildingBlock: KIFKEQ_clean_linker_1, # of connection points: 2
#     Edge 23, Type (0, 1), BuildingBlock: KIFKEQ_clean_linker_1, # of connection points: 2
#     Edge 24, Type (0, 1), BuildingBlock: KIFKEQ_clean_linker_1, # of connection points: 2
#     Edge 25, Type (0, 1), BuildingBlock: KIFKEQ_clean_linker_1, # of connection points: 2
#     Edge 26, Type (0, 1), BuildingBlock: KIFKEQ_clean_linker_1, # of connection points: 2
#     Edge 27, Type (0, 1), BuildingBlock: KIFKEQ_clean_linker_1, # of connection points: 2
#     Edge 28, Type (0, 1), BuildingBlock: KIFKEQ_clean_linker_1, # of connection points: 2
#     Edge 29, Type (0, 1), BuildingBlock: KIFKEQ_clean_linker_1, # of connection points: 2
#     Edge 30, Type (0, 1), BuildingBlock: KIFKEQ_clean_linker_1, # of connection points: 2
#     Edge 31, Type (0, 1), BuildingBlock: KIFKEQ_clean_linker_1, # of connection points: 2
#     Edge 32, Type (0, 1), BuildingBlock: KIFKEQ_clean_linker_1, # of connection points: 2
#     Edge 33, Type (0, 1), BuildingBlock: KIFKEQ_clean_linker_1, # of connection points: 2
#     Edge 34, Type (0, 1), BuildingBlock: KIFKEQ_clean_linker_1, # of connection points: 2
#     Edge 35, Type (0, 1), BuildingBlock: KIFKEQ_clean_linker_1, # of connection points: 2
# Relax obj value: 0.092
# Max RMSD: 0.205
# Mean RMSD: 0.143
data_MOF--net-pry--node1-LEVNOQ01_clean_sbu_1--node2-PAMTOO_clean_linker_0--edge1-KIFKEQ_clean_linker_1
_symmetry_space_group_name_H-M    P1
_symmetry_Int_Tables_number       1
_symmetry_cell_setting            triclinic
loop_
_symmetry_equiv_pos_as_xyz
'x, y, z'
_cell_length_a     36.892352
_cell_length_b     36.606109
_cell_length_c     36.090319
_cell_angle_alpha  92.196117
_cell_angle_beta   92.329637
_cell_angle_gamma 98.475696
loop_
_atom_site_label
_atom_site_type_symbol
_atom_site_fract_x
_atom_site_fract_y
_atom_site_fract_z
_atom_type_partial_charge
H0 H 0.11811 0.18397 0.19923 0.0
H1 H 0.19467 0.10618 0.20674 0.0
H2 H 0.1925 0.17215 0.1117 0.0
H3 H 0.20703 0.09633 0.097 0.0
C4 C 0.22404 0.09299 0.12246 0.0
O5 O 0.22677 0.12454 0.14547 0.0
H6 H 0.21036 0.06904 0.1373 0.0
C7 C 0.13917 0.17042 0.18698 0.0
C8 C 0.15241 0.18146 0.15227 0.0
C9 C 0.15353 0.14286 0.20688 0.0
C10 C 0.18289 0.12726 0.19216 0.0
C11 C 0.19708 0.13828 0.15818 0.0
C12 C 0.18156 0.16481 0.13822 0.0
H13 H 0.35317 0.95736 0.67547 0.0
H14 H 0.34171 0.88059 0.5803 0.0
H15 H 0.43091 0.88181 0.65955 0.0
H16 H 0.44887 0.8768 0.58351 0.0
C17 C 0.42656 0.85416 0.57383 0.0
O18 O 0.39886 0.85041 0.59863 0.0
H19 H 0.41505 0.86099 0.54644 0.0
C20 C 0.36299 0.93579 0.65904 0.0
C21 C 0.39436 0.9215 0.6719 0.0
C22 C 0.34342 0.92131 0.62595 0.0
C23 C 0.35666 0.89319 0.60513 0.0
C24 C 0.38815 0.87935 0.6173 0.0
C25 C 0.4068 0.89333 0.65048 0.0
H26 H 0.70853 0.3191 0.93608 0.0
H27 H 0.65418 0.32478 0.82935 0.0
H28 H 0.7122 0.42335 0.88353 0.0
H29 H 0.64601 0.43388 0.83719 0.0
C30 C 0.64628 0.41035 0.81678 0.0
O31 O 0.67751 0.39477 0.82301 0.0
H32 H 0.62144 0.38966 0.82015 0.0
C33 C 0.70012 0.33551 0.91386 0.0
C34 C 0.71274 0.37375 0.91453 0.0
C35 C 0.67833 0.31756 0.88374 0.0
C36 C 0.67038 0.33799 0.85322 0.0
C37 C 0.68305 0.37587 0.85341 0.0
C38 C 0.70321 0.39387 0.88415 0.0
H39 H 0.89697 0.65917 0.4933 0.0
H40 H 0.8731 0.56468 0.41657 0.0
H41 H 0.96167 0.64999 0.39768 0.0
H42 H 0.89435 0.62683 0.34097 0.0
C43 C 0.89808 0.59714 0.34015 0.0
O44 O 0.92087 0.59028 0.36965 0.0
H45 H 0.87058 0.58043 0.34235 0.0
C46 C 0.90407 0.64309 0.46959 0.0
C47 C 0.93349 0.65783 0.44836 0.0
C48 C 0.88163 0.60966 0.45839 0.0
C49 C 0.88988 0.59039 0.42608 0.0
C50 C 0.91782 0.60564 0.40383 0.0
C51 C 0.94006 0.63875 0.41529 0.0
H52 H 0.85304 0.92076 0.8476 0.0
H53 H 0.85529 0.85044 0.94035 0.0
H54 H 0.92406 0.83721 0.84916 0.0
H55 H 0.89163 0.76889 0.87761 0.0
C56 C 0.89015 0.77657 0.90758 0.0
O57 O 0.90537 0.81327 0.91425 0.0
H58 H 0.86058 0.77311 0.91389 0.0
C59 C 0.86321 0.898 0.86089 0.0
C60 C 0.88962 0.88004 0.84336 0.0
C61 C 0.85025 0.88767 0.89571 0.0
C62 C 0.86499 0.85919 0.9137 0.0
C63 C 0.8917 0.84112 0.89696 0.0
C64 C 0.90397 0.85175 0.86201 0.0
H65 H 0.7096 0.08683 0.36144 0.0
H66 H 0.63268 0.16445 0.35523 0.0
H67 H 0.70395 0.1662 0.45183 0.0
H68 H 0.63193 0.18564 0.46804 0.0
C69 C 0.62517 0.1978 0.44131 0.0
O70 O 0.65453 0.19863 0.4187 0.0
H71 H 0.60061 0.18056 0.4275 0.0
C72 C 0.69689 0.1087 0.37423 0.0
C73 C 0.71009 0.12413 0.40953 0.0
C74 C 0.66893 0.12291 0.35424 0.0
C75 C 0.65392 0.15266 0.37018 0.0
C76 C 0.66671 0.16802 0.40519 0.0
C77 C 0.69445 0.15374 0.42481 0.0
H78 H 0.35563 0.71242 0.09702 0.0
H79 H 0.34397 0.62233 0.17094 0.0
H80 H 0.42076 0.71965 0.19977 0.0
H81 H 0.44539 0.65036 0.22459 0.0
C82 C 0.41793 0.63359 0.22682 0.0
O83 O 0.39104 0.65534 0.22123 0.0
H84 H 0.41444 0.61042 0.20544 0.0
C85 C 0.36416 0.70003 0.12212 0.0
C86 C 0.39073 0.72014 0.14706 0.0
C87 C 0.34727 0.66466 0.13053 0.0
C88 C 0.35746 0.64925 0.1636 0.0
C89 C 0.38402 0.66903 0.18815 0.0
C90 C 0.40095 0.7042 0.17985 0.0
H91 H 0.08542 0.3556 0.67576 0.0
H92 H 0.15663 0.46025 0.68012 0.0
H93 H 0.15127 0.388 0.58319 0.0
H94 H 0.22408 0.43057 0.64285 0.0
C95 C 0.21848 0.45449 0.62639 0.0
O96 O 0.18206 0.4511 0.61465 0.0
H97 H 0.22519 0.47949 0.6453 0.0
C98 C 0.10474 0.37581 0.66272 0.0
C99 C 0.11575 0.36812 0.62671 0.0
C100 C 0.11998 0.40864 0.68261 0.0
C101 C 0.14504 0.43449 0.6655 0.0
C102 C 0.15625 0.42692 0.62982 0.0
C103 C 0.14203 0.39368 0.61065 0.0
O104 O 1.0004 0.02935 0.62475 0.0
Mg105 Mg 0.04429 0.04591 0.59221 0.0
O106 O 0.99404 0.98615 0.58034 0.0
Mg107 Mg 0.01971 0.01472 0.52523 0.0
O108 O 0.03535 0.07759 0.54779 0.0
O109 O 0.06064 0.09958 0.60374 0.0
O110 O 0.04325 0.03903 0.46847 0.0
O111 O 0.96116 0.03392 0.51424 0.0
Mg112 Mg 0.97602 0.97773 0.46531 0.0
O113 O 0.00663 0.9525 0.50213 0.0
O114 O 0.00358 0.01046 0.42583 0.0
O115 O 0.92572 0.98908 0.48247 0.0
O116 O 0.97419 0.92387 0.45219 0.0
C117 C 0.09829 0.0004 0.56699 0.0
C118 C 0.98665 0.9974 0.61288 0.0
C119 C 0.04828 0.1052 0.57087 0.0
C120 C 0.03195 0.03357 0.43434 0.0
C121 C 0.92943 0.01934 0.501 0.0
C122 C 0.99473 0.92264 0.48173 0.0
O123 O 0.0893 0.0169 0.59577 0.0
O124 O 0.07825 0.99835 0.53717 0.0
O125 O 0.49263 0.08984 0.035 0.0
Mg126 Mg 0.55002 0.10132 0.03343 0.0
O127 O 0.48925 0.02909 0.02475 0.0
Mg128 Mg 0.54869 0.01577 0.00795 0.0
O129 O 0.56651 0.07374 0.98899 0.0
O130 O 0.57359 0.13511 0.99412 0.0
O131 O 0.60948 0.00331 0.992 0.0
O132 O 0.52455 0.00254 0.94635 0.0
Mg133 Mg 0.55354 0.93337 0.98438 0.0
O134 O 0.52806 0.95748 0.02539 0.0
O135 O 0.60991 0.94289 0.99378 0.0
O136 O 0.53231 0.9448 0.93176 0.0
O137 O 0.52447 0.89629 0.01668 0.0
C138 C 0.58527 0.05827 0.09042 0.0
C139 C 0.47407 0.05775 0.0324 0.0
C140 C 0.57763 0.10535 0.97543 0.0
C141 C 0.62684 0.97526 0.99153 0.0
C142 C 0.522 0.975 0.92295 0.0
C143 C 0.51628 0.92446 0.03539 0.0
O144 O 0.5813 0.09026 0.08026 0.0
O145 O 0.57349 0.0292 0.06991 0.0
O146 O 0.50846 0.59257 0.59446 0.0
Mg147 Mg 0.50021 0.53496 0.60212 0.0
O148 O 0.52438 0.58897 0.53568 0.0
Mg149 Mg 0.53787 0.52978 0.52008 0.0
O150 O 0.54294 0.51584 0.57923 0.0
O151 O 0.53344 0.51003 0.63869 0.0
O152 O 0.55171 0.47117 0.50252 0.0
O153 O 0.60063 0.55315 0.52575 0.0
Mg154 Mg 0.57899 0.53356 0.43883 0.0
O155 O 0.533 0.54419 0.46156 0.0
O156 O 0.57605 0.47617 0.44687 0.0
O157 O 0.6213 0.56771 0.47019 0.0
O158 O 0.54144 0.55425 0.40277 0.0
C159 C 0.44989 0.49689 0.53786 0.0
C160 C 0.51586 0.60754 0.56395 0.0
C161 C 0.55281 0.50448 0.61069 0.0
C162 C 0.565 0.45694 0.47402 0.0
C163 C 0.62579 0.56781 0.50528 0.0
C164 C 0.52078 0.55452 0.43064 0.0
O165 O 0.45451 0.5041 0.57261 0.0
O166 O 0.47525 0.5056 0.51525 0.0
O167 O 0.05887 0.42143 0.09954 0.0
Mg168 Mg 0.07052 0.47844 0.0991 0.0
O169 O 0.04872 0.42631 0.03952 0.0
Mg170 Mg 0.03172 0.4872 0.02894 0.0
O171 O 0.02649 0.50574 0.0912 0.0
O172 O 0.05759 0.5041 0.14599 0.0
O173 O 0.01517 0.54568 0.01543 0.0
O174 O 0.96924 0.46263 0.03923 0.0
Mg175 Mg 0.98775 0.47168 0.97811 0.0
O176 O 0.04084 0.4724 0.96389 0.0
O177 O 0.96437 0.52166 0.98488 0.0
O178 O 0.95941 0.42095 0.99441 0.0
O179 O 0.99208 0.46705 0.92343 0.0
C180 C 0.12155 0.51556 0.04618 0.0
C181 C 0.05477 0.40668 0.06727 0.0
C182 C 0.03037 0.51338 0.12682 0.0
C183 C 0.98484 0.54994 0.99907 0.0
C184 C 0.94929 0.43418 0.02423 0.0
C185 C 0.02681 0.4685 0.92992 0.0
O186 O 0.1203 0.50106 0.07741 0.0
O187 O 0.0926 0.51506 0.02555 0.0
H188 H 0.1885 0.12204 0.27044 0.0
H189 H 0.08121 0.1343 0.22447 0.0
H190 H 0.16068 0.09825 0.32676 0.0
H191 H 0.05399 0.11279 0.28114 0.0
H192 H 0.01034 0.02803 0.36128 0.0
H193 H 0.04087 0.0557 0.30931 0.0
H194 H 0.12847 0.11139 0.38321 0.0
H195 H 0.09776 0.08232 0.43631 0.0
C196 C 0.15905 0.11987 0.27227 0.0
C197 C 0.13723 0.13005 0.24249 0.0
C198 C 0.14315 0.10669 0.3049 0.0
C199 C 0.10497 0.10327 0.30865 0.0
C200 C 0.08339 0.11437 0.27924 0.0
C201 C 0.09917 0.12727 0.24671 0.0
C202 C 0.03606 0.04623 0.36691 0.0
C203 C 0.0514 0.05287 0.40337 0.0
C204 C 0.05355 0.06246 0.33679 0.0
C205 C 0.08705 0.08627 0.34178 0.0
C206 C 0.10274 0.09308 0.37821 0.0
C207 C 0.08504 0.07663 0.40872 0.0
H208 H 0.42052 0.87876 0.72387 0.0
H209 H 0.40917 0.99228 0.70394 0.0
H210 H 0.45276 0.89811 0.78282 0.0
H211 H 0.44125 0.01167 0.76406 0.0
H212 H 0.46601 0.01149 0.89757 0.0
H213 H 0.43492 0.00305 0.8354 0.0
H214 H 0.51409 0.9346 0.80017 0.0
H215 H 0.5443 0.94237 0.86158 0.0
C216 C 0.42521 0.90795 0.73185 0.0
C217 C 0.41286 0.934 0.70868 0.0
C218 C 0.4436 0.91904 0.7658 0.0
C219 C 0.45009 0.9565 0.77781 0.0
C220 C 0.43668 0.98262 0.75546 0.0
C221 C 0.41832 0.97148 0.7211 0.0
C222 C 0.47707 0.99535 0.87618 0.0
C223 C 0.50709 0.97698 0.88452 0.0
C224 C 0.45933 0.9905 0.84069 0.0
C225 C 0.4716 0.96741 0.81325 0.0
C226 C 0.5034 0.95171 0.821 0.0
C227 C 0.52077 0.95628 0.85617 0.0
H228 H 0.64667 0.36807 0.75312 0.0
H229 H 0.64525 0.48038 0.79317 0.0
H230 H 0.64263 0.38722 0.68901 0.0
H231 H 0.63991 0.49948 0.72971 0.0
H232 H 0.62299 0.536 0.62559 0.0
H233 H 0.66318 0.50908 0.66879 0.0
H234 H 0.59128 0.40445 0.6551 0.0
H235 H 0.55234 0.43127 0.61142 0.0
C236 C 0.64582 0.39692 0.74801 0.0
C237 C 0.64576 0.42276 0.77776 0.0
C238 C 0.64374 0.4079 0.71147 0.0
C239 C 0.64113 0.44487 0.70413 0.0
C240 C 0.64276 0.47093 0.73415 0.0
C241 C 0.64513 0.45997 0.7706 0.0
C242 C 0.61743 0.50661 0.62997 0.0
C243 C 0.58454 0.48563 0.61606 0.0
C244 C 0.64007 0.49129 0.65506 0.0
C245 C 0.62942 0.45518 0.66667 0.0
C246 C 0.60016 0.43247 0.6472 0.0
C247 C 0.57777 0.44775 0.62196 0.0
H248 H 0.92638 0.64316 0.28682 0.0
H249 H 0.9045 0.5281 0.31245 0.0
H250 H 0.95165 0.62625 0.22808 0.0
H251 H 0.93046 0.511 0.25399 0.0
H252 H 0.95868 0.4876 0.13655 0.0
H253 H 0.92139 0.50985 0.18501 0.0
H254 H 0.00752 0.60158 0.21224 0.0
H255 H 0.04437 0.5791 0.16426 0.0
C256 C 0.92696 0.61423 0.27975 0.0
C257 C 0.9136 0.58685 0.30401 0.0
C258 C 0.94136 0.60455 0.24618 0.0
C259 C 0.94282 0.5673 0.23629 0.0
C260 C 0.92903 0.53988 0.26046 0.0
C261 C 0.9146 0.5496 0.29404 0.0
C262 C 0.96877 0.5133 0.15202 0.0
C263 C 0.00402 0.53204 0.14669 0.0
C264 C 0.94777 0.52574 0.18002 0.0
C265 C 0.96169 0.55728 0.20266 0.0
C266 C 0.99586 0.57741 0.19514 0.0
C267 C 0.01695 0.56468 0.16763 0.0
H268 H 0.24872 0.02616 0.11284 0.0
H269 H 0.28302 0.14306 0.10337 0.0
H270 H 0.30671 0.01343 0.08845 0.0
H271 H 0.34147 0.13079 0.08046 0.0
H272 H 0.42729 0.10194 0.00662 0.0
H273 H 0.3667 0.1081 0.02764 0.0
H274 H 0.37152 0.01651 0.09888 0.0
H275 H 0.43211 0.0095 0.0762 0.0
C276 C 0.26901 0.0492 0.10618 0.0
C277 C 0.26153 0.08568 0.11075 0.0
C278 C 0.30234 0.04191 0.09223 0.0
C279 C 0.32904 0.07095 0.08212 0.0
C280 C 0.32152 0.1075 0.08713 0.0
C281 C 0.28814 0.11471 0.10082 0.0
C282 C 0.41503 0.08254 0.02615 0.0
C283 C 0.43445 0.05519 0.03967 0.0
C284 C 0.38042 0.08644 0.03872 0.0
C285 C 0.36429 0.06355 0.06588 0.0
C286 C 0.38288 0.03472 0.07797 0.0
C287 C 0.41757 0.03049 0.06486 0.0
H288 H 0.31489 0.92887 0.55529 0.0
H289 H 0.29042 0.94017 0.67097 0.0
H290 H 0.25434 0.9431 0.53736 0.0
H291 H 0.23174 0.95757 0.6532 0.0
H292 H 0.11561 0.95385 0.61835 0.0
H293 H 0.17408 0.93215 0.62944 0.0
H294 H 0.21646 0.98961 0.53411 0.0
H295 H 0.15652 0.00917 0.52183 0.0
C296 C 0.29679 0.93462 0.57695 0.0
C297 C 0.30776 0.93322 0.61466 0.0
C298 C 0.26216 0.94325 0.56661 0.0
C299 C 0.23776 0.95114 0.59373 0.0
C300 C 0.24922 0.95074 0.63138 0.0
C301 C 0.28347 0.94154 0.64167 0.0
C302 C 0.13728 0.96112 0.59937 0.0
C303 C 0.1318 0.98312 0.56934 0.0
C304 C 0.171 0.94915 0.60595 0.0
C305 C 0.20054 0.95994 0.58333 0.0
C306 C 0.19441 0.98062 0.55209 0.0
C307 C 0.16015 0.99187 0.54498 0.0
H308 H 0.76988 0.43042 0.90949 0.0
H309 H 0.71633 0.35678 0.98845 0.0
H310 H 0.82025 0.44933 0.95438 0.0
H311 H 0.76903 0.37383 0.03216 0.0
H312 H 0.90563 0.36747 0.0185 0.0
H313 H 0.83919 0.3585 0.0066 0.0
H314 H 0.83833 0.47477 0.03001 0.0
H315 H 0.90459 0.48359 0.04353 0.0
C316 C 0.76802 0.41902 0.93668 0.0
C317 C 0.73915 0.39124 0.94475 0.0
C318 C 0.79713 0.42992 0.96245 0.0
C319 C 0.79842 0.41279 0.99646 0.0
C320 C 0.76848 0.3873 0.00598 0.0
C321 C 0.73869 0.37719 0.98062 0.0
C322 C 0.89093 0.39062 0.0233 0.0
C323 C 0.91012 0.42615 0.03183 0.0
C324 C 0.85297 0.38552 0.01651 0.0
C325 C 0.83396 0.41604 0.01733 0.0
C326 C 0.85251 0.45087 0.02961 0.0
C327 C 0.89037 0.4558 0.03744 0.0
H328 H 0.86721 0.61581 0.53288 0.0
H329 H 0.81562 0.579 0.42531 0.0
H330 H 0.80654 0.6078 0.55978 0.0
H331 H 0.75636 0.5695 0.45271 0.0
H332 H 0.66772 0.52701 0.54504 0.0
H333 H 0.735 0.53514 0.54516 0.0
H334 H 0.73572 0.64139 0.49744 0.0
H335 H 0.66876 0.63286 0.49622 0.0
C336 C 0.84328 0.60534 0.51514 0.0
C337 C 0.84651 0.59831 0.47677 0.0
C338 C 0.80875 0.6005 0.53068 0.0
C339 C 0.77721 0.58813 0.50812 0.0
C340 C 0.78056 0.5789 0.47054 0.0
C341 C 0.81471 0.58408 0.45497 0.0
C342 C 0.68243 0.553 0.53665 0.0
C343 C 0.66334 0.57939 0.5206 0.0
C344 C 0.72081 0.55754 0.53663 0.0
C345 C 0.74014 0.58887 0.52133 0.0
C346 C 0.7212 0.61723 0.5097 0.0
C347 C 0.683 0.61242 0.50909 0.0
H348 H 0.186 0.23179 0.10405 0.0
H349 H 0.08153 0.19831 0.15223 0.0
H350 H 0.16063 0.2798 0.07238 0.0
H351 H 0.05761 0.24925 0.12438 0.0
H352 H 0.01273 0.33805 0.06485 0.0
H353 H 0.03498 0.27982 0.07757 0.0
H354 H 0.14663 0.33686 0.08025 0.0
H355 H 0.12403 0.39339 0.06481 0.0
C356 C 0.15759 0.23441 0.10808 0.0
C357 C 0.1363 0.21082 0.1315 0.0
C358 C 0.14306 0.26283 0.09027 0.0
C359 C 0.10695 0.26957 0.09598 0.0
C360 C 0.08535 0.24533 0.1186 0.0
C361 C 0.09956 0.21627 0.13556 0.0
C362 C 0.04201 0.33739 0.06636 0.0
C363 C 0.06668 0.36997 0.06284 0.0
C364 C 0.05496 0.30418 0.07462 0.0
C365 C 0.09291 0.30305 0.08081 0.0
C366 C 0.11737 0.33561 0.07523 0.0
C367 C 0.10442 0.36837 0.0662 0.0
H368 H 0.67311 0.26411 0.8268 0.0
H369 H 0.65118 0.28054 0.94263 0.0
H370 H 0.65168 0.19739 0.83062 0.0
H371 H 0.63145 0.21457 0.94637 0.0
H372 H 0.64876 0.10596 0.96122 0.0
H373 H 0.67857 0.15188 0.9208 0.0
H374 H 0.57333 0.16419 0.87063 0.0
H375 H 0.54355 0.11824 0.91104 0.0
C376 C 0.66375 0.25359 0.85293 0.0
C377 C 0.66435 0.27751 0.88462 0.0
C378 C 0.65188 0.21555 0.85506 0.0
C379 C 0.64088 0.20125 0.88893 0.0
C380 C 0.64066 0.22517 0.92017 0.0
C381 C 0.65206 0.26285 0.91802 0.0
C382 C 0.63235 0.1161 0.93938 0.0
C383 C 0.59398 0.10923 0.93942 0.0
C384 C 0.64941 0.14247 0.91628 0.0
C385 C 0.62802 0.16181 0.89325 0.0
C386 C 0.5903 0.14941 0.88806 0.0
C387 C 0.57326 0.12304 0.91118 0.0
H388 H 0.95669 0.68761 0.51793 0.0
H389 H 0.95627 0.71311 0.40196 0.0
H390 H 0.98357 0.75156 0.5347 0.0
H391 H 0.98354 0.77614 0.4186 0.0
H392 H 0.04157 0.88437 0.44759 0.0
H393 H 0.03737 0.81713 0.44529 0.0
H394 H 0.95902 0.81124 0.53146 0.0
H395 H 0.96424 0.87867 0.53424 0.0
C396 C 0.96274 0.70665 0.496 0.0
C397 C 0.95422 0.69514 0.45857 0.0
C398 C 0.97826 0.74319 0.50564 0.0
C399 C 0.98592 0.76886 0.47801 0.0
C400 C 0.97882 0.7569 0.44058 0.0
C401 C 0.96311 0.7206 0.43099 0.0
C402 C 0.02505 0.8687 0.46738 0.0
C403 C 0.00352 0.88639 0.49133 0.0
C404 C 0.02221 0.83023 0.46574 0.0
C405 C 0.99726 0.80885 0.4876 0.0
C406 C 0.97864 0.82691 0.51439 0.0
C407 C 0.98173 0.86551 0.51618 0.0
H408 H 0.43734 0.80611 0.62843 0.0
H409 H 0.45414 0.82363 0.51244 0.0
H410 H 0.46275 0.74878 0.62322 0.0
H411 H 0.48182 0.76697 0.50742 0.0
H412 H 0.4872 0.64053 0.5052 0.0
H413 H 0.46818 0.70175 0.50604 0.0
H414 H 0.51667 0.72409 0.61728 0.0
H415 H 0.5335 0.66233 0.61694 0.0
C416 C 0.44654 0.79763 0.60175 0.0
C417 C 0.44275 0.81873 0.57054 0.0
C418 C 0.46171 0.76497 0.59882 0.0
C419 C 0.4746 0.75309 0.56487 0.0
C420 C 0.47168 0.77483 0.53384 0.0
C421 C 0.45597 0.80734 0.5367 0.0
C422 C 0.49433 0.65894 0.52946 0.0
C423 C 0.51146 0.64672 0.56113 0.0
C424 C 0.48346 0.69405 0.53002 0.0
C425 C 0.49013 0.71775 0.56207 0.0
C426 C 0.50987 0.70626 0.59259 0.0
C427 C 0.51995 0.67102 0.59229 0.0
H428 H 0.9587 0.88444 0.81519 0.0
H429 H 0.84771 0.90048 0.78521 0.0
H430 H 0.97834 0.90673 0.75505 0.0
H431 H 0.8677 0.92378 0.72598 0.0
H432 H 0.93367 0.01507 0.65673 0.0
H433 H 0.90841 0.98192 0.70945 0.0
H434 H 0.96986 0.89328 0.68383 0.0
H435 H 0.99472 0.92652 0.63017 0.0
C436 C 0.93835 0.8922 0.79574 0.0
C437 C 0.90163 0.89107 0.80559 0.0
C438 C 0.94966 0.90499 0.76121 0.0
C439 C 0.92462 0.91725 0.73577 0.0
C440 C 0.88778 0.91501 0.7451 0.0
C441 C 0.87641 0.90187 0.77931 0.0
C442 C 0.94091 0.98797 0.66167 0.0
C443 C 0.96571 0.97314 0.63903 0.0
C444 C 0.92653 0.969 0.69197 0.0
C445 C 0.93722 0.935 0.701 0.0
C446 C 0.96123 0.9195 0.67768 0.0
C447 C 0.97505 0.93824 0.6467 0.0
H448 H 0.65794 0.16309 0.29391 0.0
H449 H 0.65408 0.0506 0.32729 0.0
H450 H 0.64052 0.1408 0.23049 0.0
H451 H 0.63714 0.02809 0.26299 0.0
H452 H 0.56262 0.01482 0.14816 0.0
H453 H 0.58455 0.02641 0.21352 0.0
H454 H 0.67047 0.11043 0.18043 0.0
H455 H 0.64825 0.09939 0.11601 0.0
C456 C 0.65313 0.13353 0.28775 0.0
C457 C 0.65735 0.10865 0.31571 0.0
C458 C 0.64357 0.12073 0.25125 0.0
C459 C 0.63793 0.08266 0.24158 0.0
C460 C 0.64138 0.05757 0.26958 0.0
C461 C 0.65129 0.07047 0.30628 0.0
C462 C 0.58694 0.03478 0.15493 0.0
C463 C 0.6037 0.05637 0.12721 0.0
C464 C 0.59937 0.04159 0.19228 0.0
C465 C 0.62868 0.07 0.20217 0.0
C466 C 0.64726 0.08904 0.17385 0.0
C467 C 0.63479 0.08246 0.1369 0.0
H468 H 0.43033 0.56582 0.24845 0.0
H469 H 0.40157 0.66902 0.29109 0.0
H470 H 0.43483 0.54481 0.31125 0.0
H471 H 0.40447 0.64748 0.3541 0.0
H472 H 0.5047 0.62364 0.43255 0.0
H473 H 0.45939 0.64187 0.38947 0.0
H474 H 0.41084 0.52737 0.37079 0.0
H475 H 0.4572 0.5094 0.41376 0.0
C476 C 0.42377 0.58345 0.27126 0.0
C477 C 0.41543 0.61884 0.26497 0.0
C478 C 0.42576 0.57126 0.30728 0.0
C479 C 0.41968 0.59441 0.33781 0.0
C480 C 0.40926 0.62904 0.33122 0.0
C481 C 0.40767 0.64137 0.29519 0.0
C482 C 0.48281 0.60273 0.42112 0.0
C483 C 0.48458 0.56526 0.42551 0.0
C484 C 0.45674 0.61307 0.39624 0.0
C485 C 0.43258 0.58579 0.37543 0.0
C486 C 0.42991 0.54883 0.38563 0.0
C487 C 0.45614 0.53854 0.41052 0.0
H488 H 0.05159 0.40164 0.7096 0.0
H489 H 0.16619 0.43205 0.74283 0.0
H490 H 0.0349 0.41776 0.77228 0.0
H491 H 0.14933 0.44828 0.80584 0.0
H492 H 0.08637 0.43161 0.92257 0.0
H493 H 0.11329 0.41632 0.86348 0.0
H494 H 0.04389 0.483 0.8059 0.0
H495 H 0.01731 0.498 0.86403 0.0
C496 C 0.07319 0.41136 0.73043 0.0
C497 C 0.11011 0.41598 0.7213 0.0
C498 C 0.06368 0.42075 0.76619 0.0
C499 C 0.09088 0.43459 0.79366 0.0
C500 C 0.12792 0.43771 0.78511 0.0
C501 C 0.13745 0.42873 0.74908 0.0
C502 C 0.07776 0.44368 0.89735 0.0
C503 C 0.04945 0.46548 0.89759 0.0
C504 C 0.09295 0.43484 0.86366 0.0
C505 C 0.07987 0.4478 0.83017 0.0
C506 C 0.05374 0.47193 0.83119 0.0
C507 C 0.0387 0.48063 0.86448 0.0
H508 H 0.78925 0.90741 0.86048 0.0
H509 H 0.84425 0.91057 0.96867 0.0
H510 H 0.74133 0.93792 0.88669 0.0
H511 H 0.7963 0.94162 0.99506 0.0
H512 H 0.67674 0.94447 0.03136 0.0
H513 H 0.73411 0.92834 0.0099 0.0
H514 H 0.7235 0.99299 0.9134 0.0
H515 H 0.66513 0.00842 0.93499 0.0
C516 C 0.79146 0.9151 0.88985 0.0
C517 C 0.82082 0.90642 0.91239 0.0
C518 C 0.76394 0.93291 0.90492 0.0
C519 C 0.76479 0.9427 0.94308 0.0
C520 C 0.79435 0.93429 0.96562 0.0
C521 C 0.82188 0.91632 0.95052 0.0
C522 C 0.68743 0.95647 0.0063 0.0
C523 C 0.66656 0.97796 0.98505 0.0
C524 C 0.7204 0.94708 0.99382 0.0
C525 C 0.73345 0.95873 0.95947 0.0
C526 C 0.71403 0.98285 0.93963 0.0
C527 C 0.68092 0.99239 0.95232 0.0
H528 H 0.72352 0.05274 0.41338 0.0
H529 H 0.76737 0.16457 0.45121 0.0
H530 H 0.77593 0.03075 0.44279 0.0
H531 H 0.81857 0.14218 0.48314 0.0
H532 H 0.92787 0.09194 0.4879 0.0
H533 H 0.87337 0.11926 0.47081 0.0
H534 H 0.80469 0.01869 0.49858 0.0
H535 H 0.8593 0.99099 0.51333 0.0
C536 C 0.74419 0.07265 0.42823 0.0
C537 C 0.74115 0.11046 0.42966 0.0
C538 C 0.77406 0.05994 0.44578 0.0
C539 C 0.80157 0.08459 0.46576 0.0
C540 C 0.79817 0.12237 0.46782 0.0
C541 C 0.76845 0.13515 0.44987 0.0
C542 C 0.90104 0.07623 0.49136 0.0
C543 C 0.89765 0.03937 0.5017 0.0
C544 C 0.8697 0.09179 0.48149 0.0
C545 C 0.83446 0.07088 0.48239 0.0
C546 C 0.83131 0.03521 0.49626 0.0
C547 C 0.86255 0.01947 0.50529 0.0
H548 H 0.27909 0.64374 0.15298 0.0
H549 H 0.34494 0.64257 0.05686 0.0
H550 H 0.22655 0.60974 0.11696 0.0
H551 H 0.2919 0.60738 0.02069 0.0
H552 H 0.18774 0.49244 0.04626 0.0
H553 H 0.24687 0.53271 0.05449 0.0
H554 H 0.19275 0.62798 0.03872 0.0
H555 H 0.13362 0.58759 0.02925 0.0
C556 C 0.28212 0.6363 0.12404 0.0
C557 C 0.3158 0.64554 0.10755 0.0
C558 C 0.25215 0.61717 0.10347 0.0
C559 C 0.25541 0.6066 0.06618 0.0
C560 C 0.28895 0.61584 0.04936 0.0
C561 C 0.31903 0.63574 0.06992 0.0
C562 C 0.18887 0.52179 0.04238 0.0
C563 C 0.15644 0.5371 0.03698 0.0
C564 C 0.22259 0.54473 0.04699 0.0
C565 C 0.22404 0.58318 0.04695 0.0
C566 C 0.19212 0.59828 0.03807 0.0
C567 C 0.15843 0.57523 0.03264 0.0
H568 H 0.23545 0.39819 0.58152 0.0
H569 H 0.25524 0.51683 0.59807 0.0
H570 H 0.28508 0.40139 0.53811 0.0
H571 H 0.30505 0.52032 0.55558 0.0
H572 H 0.40125 0.52688 0.49429 0.0
H573 H 0.33453 0.51149 0.49733 0.0
H574 H 0.34926 0.41492 0.55827 0.0
H575 H 0.41518 0.43041 0.55496 0.0
C576 C 0.24993 0.42498 0.57506 0.0
C577 C 0.24267 0.45717 0.59388 0.0
C578 C 0.2782 0.42686 0.55024 0.0
C579 C 0.29954 0.46102 0.5439 0.0
C580 C 0.2892 0.49354 0.55959 0.0
C581 C 0.26095 0.4916 0.58434 0.0
C582 C 0.3899 0.50127 0.50636 0.0
C583 C 0.413 0.47984 0.52459 0.0
C584 C 0.35179 0.49264 0.50849 0.0
C585 C 0.33659 0.46248 0.52881 0.0
C586 C 0.35981 0.43828 0.5423 0.0
C587 C 0.39772 0.44708 0.54043 0.0
H588 H 0.86528 0.73654 0.96682 0.0
H589 H 0.95868 0.75673 0.89854 0.0
H590 H 0.89097 0.68585 0.99507 0.0
H591 H 0.98457 0.70562 0.92668 0.0
H592 H 0.02856 0.61831 0.99961 0.0
H593 H 0.00958 0.67765 0.98347 0.0
H594 H 0.89717 0.62427 0.96965 0.0
H595 H 0.91595 0.56571 0.98547 0.0
C596 C 0.89171 0.73059 0.95836 0.0
C597 C 0.90975 0.75042 0.93014 0.0
C598 C 0.90636 0.70131 0.97437 0.0
C599 C 0.9396 0.69106 0.96276 0.0
C600 C 0.95898 0.71266 0.9364 0.0
C601 C 0.94416 0.74194 0.92022 0.0
C602 C 0.99974 0.6195 0.99373 0.0
C603 C 0.9738 0.58716 0.99392 0.0
C604 C 0.98889 0.65344 0.98417 0.0
C605 C 0.95176 0.65594 0.97532 0.0
C606 C 0.92589 0.62374 0.97677 0.0
C607 C 0.93673 0.58996 0.9857 0.0
H608 H 0.46257 0.75071 0.14901 0.0
H609 H 0.3529 0.77625 0.13095 0.0
H610 H 0.48781 0.81348 0.1346 0.0
H611 H 0.3779 0.83977 0.11789 0.0
H612 H 0.44327 0.90848 0.02761 0.0
H613 H 0.40761 0.86538 0.06619 0.0
H614 H 0.4978 0.8785 0.1484 0.0
H615 H 0.53392 0.92075 0.10839 0.0
C616 C 0.44393 0.77012 0.14261 0.0
C617 C 0.40593 0.7587 0.14032 0.0
C618 C 0.45829 0.80627 0.13489 0.0
C619 C 0.43484 0.83185 0.12523 0.0
C620 C 0.3967 0.82071 0.12484 0.0
C621 C 0.38239 0.78437 0.13204 0.0
C622 C 0.45453 0.90379 0.05494 0.0
C623 C 0.49115 0.91742 0.06517 0.0
C624 C 0.43419 0.87889 0.07712 0.0
C625 C 0.45037 0.86749 0.10985 0.0
C626 C 0.48503 0.88594 0.12277 0.0
C627 C 0.5055 0.91061 0.10029 0.0
H628 H 0.15456 0.31894 0.59422 0.0
H629 H 0.04413 0.33731 0.61455 0.0
H630 H 0.13138 0.25721 0.56823 0.0
H631 H 0.02039 0.27614 0.58684 0.0
H632 H 0.00742 0.14987 0.60409 0.0
H633 H 0.01923 0.21674 0.60774 0.0
H634 H 0.09888 0.21496 0.52314 0.0
H635 H 0.0875 0.14712 0.52079 0.0
C636 C 0.12519 0.31002 0.59216 0.0
C637 C 0.10114 0.33257 0.6068 0.0
C638 C 0.11177 0.27472 0.57692 0.0
C639 C 0.07391 0.26137 0.57554 0.0
C640 C 0.04974 0.28509 0.5881 0.0
C641 C 0.06325 0.32014 0.60394 0.0
C642 C 0.02636 0.16391 0.58522 0.0
C643 C 0.0465 0.14366 0.56213 0.0
C644 C 0.03319 0.20238 0.58722 0.0
C645 C 0.06052 0.22151 0.56617 0.0
C646 C 0.07818 0.20112 0.54031 0.0
C647 C 0.07132 0.16235 0.53843 0.0
H648 H 0.6562 0.26445 0.41289 0.0
H649 H 0.57406 0.2183 0.48702 0.0
H650 H 0.6394 0.32517 0.42425 0.0
H651 H 0.55657 0.2799 0.49787 0.0
H652 H 0.56627 0.4083 0.53062 0.0
H653 H 0.5801 0.34465 0.52524 0.0
H654 H 0.58528 0.35297 0.40647 0.0
H655 H 0.57213 0.4157 0.41168 0.0
C656 C 0.63456 0.26713 0.43173 0.0
C657 C 0.61633 0.23632 0.44907 0.0
C658 C 0.62479 0.30208 0.43809 0.0
C659 C 0.59636 0.30724 0.46162 0.0
C660 C 0.57868 0.27676 0.47973 0.0
C661 C 0.58853 0.24159 0.47338 0.0
C662 C 0.56996 0.39623 0.50341 0.0
C663 C 0.56872 0.41723 0.47167 0.0
C664 C 0.57786 0.35989 0.50033 0.0
C665 C 0.58455 0.34417 0.4655 0.0
C666 C 0.58129 0.36463 0.43378 0.0
C667 C 0.57358 0.40062 0.43682 0.0
loop_
_geom_bond_atom_site_label_1
_geom_bond_atom_site_label_2
_geom_bond_distance
_geom_bond_site_symmetry_2
_ccdc_geom_bond_type
H0 C7 0.929 . S
H1 C10 0.930 . S
H2 C12 0.929 . S
H3 C4 0.969 . S
C4 H3 0.969 . S
C4 O5 1.550 . S
C4 H6 0.973 . S
O5 C4 1.550 . S
O5 C11 1.412 . S
H6 C4 0.973 . S
C7 H0 0.929 . S
C7 C8 1.400 . S
C7 C9 1.364 . S
C8 C7 1.400 . S
C8 C12 1.377 . S
C9 C7 1.364 . S
C9 C10 1.374 . S
C10 H1 0.930 . S
C10 C9 1.374 . S
C10 C11 1.383 . S
C11 O5 1.412 . S
C11 C10 1.383 . S
C11 C12 1.394 . S
C12 H2 0.929 . S
C12 C8 1.377 . S
C12 C11 1.394 . S
H13 C20 0.929 . S
H14 C23 0.930 . S
H15 C25 0.929 . S
H16 C17 0.969 . S
C17 H16 0.969 . S
C17 O18 1.550 . S
C17 H19 0.973 . S
O18 C17 1.550 . S
O18 C24 1.412 . S
H19 C17 0.973 . S
C20 H13 0.929 . S
C20 C21 1.400 . S
C20 C22 1.364 . S
C21 C20 1.400 . S
C21 C25 1.377 . S
C22 C20 1.364 . S
C22 C23 1.374 . S
C23 H14 0.930 . S
C23 C22 1.374 . S
C23 C24 1.383 . S
C24 O18 1.412 . S
C24 C23 1.383 . S
C24 C25 1.394 . S
C25 H15 0.929 . S
C25 C21 1.377 . S
C25 C24 1.394 . S
H26 C33 0.929 . S
H27 C36 0.930 . S
H28 C38 0.929 . S
H29 C30 0.969 . S
C30 H29 0.969 . S
C30 O31 1.550 . S
C30 H32 0.973 . S
O31 C30 1.550 . S
O31 C37 1.412 . S
H32 C30 0.973 . S
C33 H26 0.929 . S
C33 C34 1.400 . S
C33 C35 1.364 . S
C34 C33 1.400 . S
C34 C38 1.377 . S
C35 C33 1.364 . S
C35 C36 1.374 . S
C36 H27 0.930 . S
C36 C35 1.374 . S
C36 C37 1.383 . S
C37 O31 1.412 . S
C37 C36 1.383 . S
C37 C38 1.394 . S
C38 H28 0.929 . S
C38 C34 1.377 . S
C38 C37 1.394 . S
H39 C46 0.929 . S
H40 C49 0.930 . S
H41 C51 0.929 . S
H42 C43 0.969 . S
C43 H42 0.969 . S
C43 O44 1.550 . S
C43 H45 0.973 . S
O44 C43 1.550 . S
O44 C50 1.412 . S
H45 C43 0.973 . S
C46 H39 0.929 . S
C46 C47 1.400 . S
C46 C48 1.364 . S
C47 C46 1.400 . S
C47 C51 1.377 . S
C48 C46 1.364 . S
C48 C49 1.374 . S
C49 H40 0.930 . S
C49 C48 1.374 . S
C49 C50 1.383 . S
C50 O44 1.412 . S
C50 C49 1.383 . S
C50 C51 1.394 . S
C51 H41 0.929 . S
C51 C47 1.377 . S
C51 C50 1.394 . S
H52 C59 0.929 . S
H53 C62 0.930 . S
H54 C64 0.929 . S
H55 C56 0.969 . S
C56 H55 0.969 . S
C56 O57 1.550 . S
C56 H58 0.973 . S
O57 C56 1.550 . S
O57 C63 1.412 . S
H58 C56 0.973 . S
C59 H52 0.929 . S
C59 C60 1.400 . S
C59 C61 1.364 . S
C60 C59 1.400 . S
C60 C64 1.377 . S
C61 C59 1.364 . S
C61 C62 1.374 . S
C62 H53 0.930 . S
C62 C61 1.374 . S
C62 C63 1.383 . S
C63 O57 1.412 . S
C63 C62 1.383 . S
C63 C64 1.394 . S
C64 H54 0.929 . S
C64 C60 1.377 . S
C64 C63 1.394 . S
H65 C72 0.929 . S
H66 C75 0.930 . S
H67 C77 0.929 . S
H68 C69 0.969 . S
C69 H68 0.969 . S
C69 O70 1.550 . S
C69 H71 0.973 . S
O70 C69 1.550 . S
O70 C76 1.412 . S
H71 C69 0.973 . S
C72 H65 0.929 . S
C72 C73 1.400 . S
C72 C74 1.364 . S
C73 C72 1.400 . S
C73 C77 1.377 . S
C74 C72 1.364 . S
C74 C75 1.374 . S
C75 H66 0.930 . S
C75 C74 1.374 . S
C75 C76 1.383 . S
C76 O70 1.412 . S
C76 C75 1.383 . S
C76 C77 1.394 . S
C77 H67 0.929 . S
C77 C73 1.377 . S
C77 C76 1.394 . S
H78 C85 0.929 . S
H79 C88 0.930 . S
H80 C90 0.929 . S
H81 C82 0.969 . S
C82 H81 0.969 . S
C82 O83 1.550 . S
C82 H84 0.973 . S
O83 C82 1.550 . S
O83 C89 1.412 . S
H84 C82 0.973 . S
C85 H78 0.929 . S
C85 C86 1.400 . S
C85 C87 1.364 . S
C86 C85 1.400 . S
C86 C90 1.377 . S
C87 C85 1.364 . S
C87 C88 1.374 . S
C88 H79 0.930 . S
C88 C87 1.374 . S
C88 C89 1.383 . S
C89 O83 1.412 . S
C89 C88 1.383 . S
C89 C90 1.394 . S
C90 H80 0.929 . S
C90 C86 1.377 . S
C90 C89 1.394 . S
H91 C98 0.929 . S
H92 C101 0.930 . S
H93 C103 0.929 . S
H94 C95 0.969 . S
C95 H94 0.969 . S
C95 O96 1.550 . S
C95 H97 0.973 . S
O96 C95 1.550 . S
O96 C102 1.412 . S
H97 C95 0.973 . S
C98 H91 0.929 . S
C98 C99 1.400 . S
C98 C100 1.364 . S
C99 C98 1.400 . S
C99 C103 1.377 . S
C100 C98 1.364 . S
C100 C101 1.374 . S
C101 H92 0.930 . S
C101 C100 1.374 . S
C101 C102 1.383 . S
C102 O96 1.412 . S
C102 C101 1.383 . S
C102 C103 1.394 . S
C103 H93 0.929 . S
C103 C99 1.377 . S
C103 C102 1.394 . S
O104 Mg105 1.990 . S
O104 C118 1.253 1_445 S
Mg105 O104 1.990 . S
Mg105 O108 2.180 . S
Mg105 O109 2.117 . S
Mg105 O123 2.030 . S
O106 Mg107 2.072 1_665 S
O106 C118 1.260 . S
Mg107 O106 2.072 1_445 S
Mg107 O108 2.099 . S
Mg107 O110 2.079 . S
Mg107 O111 2.072 1_455 S
Mg107 O113 2.099 1_445 S
Mg107 O124 2.079 1_545 S
O108 Mg105 2.180 . S
O108 Mg107 2.099 . S
O108 C119 1.279 . S
O109 Mg105 2.117 . S
O109 C119 1.250 . S
O110 Mg107 2.079 . S
O110 C120 1.264 . S
O111 Mg107 2.072 1_655 S
O111 C121 1.260 . S
Mg112 O113 2.180 . S
Mg112 O114 2.030 1_565 S
Mg112 O115 1.990 1_565 S
Mg112 O116 2.117 . S
O113 Mg107 2.099 1_665 S
O113 Mg112 2.180 . S
O113 C122 1.279 . S
O114 Mg112 2.030 1_545 S
O114 C120 1.248 1_655 S
O115 Mg112 1.990 1_545 S
O115 C121 1.253 . S
O116 Mg112 2.117 . S
O116 C122 1.250 . S
C117 O123 1.248 1_565 S
C117 O124 1.264 . S
C118 O104 1.253 1_665 S
C118 O106 1.260 . S
C119 O108 1.279 . S
C119 O109 1.250 . S
C120 O110 1.264 . S
C120 O114 1.248 1_455 S
C121 O111 1.260 . S
C121 O115 1.253 . S
C122 O113 1.279 . S
C122 O116 1.250 . S
O123 Mg105 2.030 . S
O123 C117 1.248 1_545 S
O124 Mg107 2.079 1_565 S
O124 C117 1.264 . S
O125 Mg126 1.990 . S
O125 C139 1.253 . S
Mg126 O125 1.990 . S
Mg126 O129 2.181 . S
Mg126 O130 2.117 1_554 S
Mg126 O144 2.030 . S
O127 Mg128 2.072 . S
O127 C139 1.260 . S
Mg128 O127 2.072 . S
Mg128 O129 2.099 . S
Mg128 O131 2.079 1_554 S
Mg128 O132 2.072 1_554 S
Mg128 O134 2.099 1_545 S
Mg128 O145 2.079 . S
O129 Mg126 2.181 . S
O129 Mg128 2.099 . S
O129 C140 1.278 1_554 S
O130 Mg126 2.117 1_556 S
O130 C140 1.250 . S
O131 Mg128 2.079 1_556 S
O131 C141 1.264 1_545 S
O132 Mg128 2.072 1_556 S
O132 C142 1.260 1_545 S
Mg133 O134 2.180 1_556 S
Mg133 O135 2.030 . S
Mg133 O136 1.990 . S
Mg133 O137 2.117 1_556 S
O134 Mg128 2.099 1_565 S
O134 Mg133 2.180 1_554 S
O134 C143 1.279 . S
O135 Mg133 2.030 . S
O135 C141 1.248 . S
O136 Mg133 1.990 . S
O136 C142 1.253 . S
O137 Mg133 2.117 1_554 S
O137 C143 1.250 . S
C138 O144 1.248 . S
C138 O145 1.264 . S
C139 O125 1.253 . S
C139 O127 1.260 . S
C140 O129 1.278 1_556 S
C140 O130 1.250 . S
C141 O131 1.264 1_565 S
C141 O135 1.248 . S
C142 O132 1.260 1_565 S
C142 O136 1.253 . S
C143 O134 1.279 . S
C143 O137 1.250 . S
O144 Mg126 2.030 . S
O144 C138 1.248 . S
O145 Mg128 2.079 . S
O145 C138 1.264 . S
O146 Mg147 1.990 . S
O146 C160 1.253 . S
Mg147 O146 1.990 . S
Mg147 O150 2.180 . S
Mg147 O151 2.117 . S
Mg147 O165 2.030 . S
O148 Mg149 2.072 . S
O148 C160 1.260 . S
Mg149 O148 2.072 . S
Mg149 O150 2.099 . S
Mg149 O152 2.079 . S
Mg149 O153 2.072 . S
Mg149 O155 2.099 . S
Mg149 O166 2.079 . S
O150 Mg147 2.180 . S
O150 Mg149 2.099 . S
O150 C161 1.279 . S
O151 Mg147 2.117 . S
O151 C161 1.250 . S
O152 Mg149 2.079 . S
O152 C162 1.264 . S
O153 Mg149 2.072 . S
O153 C163 1.260 . S
Mg154 O155 2.180 . S
Mg154 O156 2.030 . S
Mg154 O157 1.990 . S
Mg154 O158 2.117 . S
O155 Mg149 2.099 . S
O155 Mg154 2.180 . S
O155 C164 1.279 . S
O156 Mg154 2.030 . S
O156 C162 1.248 . S
O157 Mg154 1.990 . S
O157 C163 1.253 . S
O158 Mg154 2.117 . S
O158 C164 1.250 . S
C159 O165 1.248 . S
C159 O166 1.264 . S
C160 O146 1.253 . S
C160 O148 1.260 . S
C161 O150 1.279 . S
C161 O151 1.250 . S
C162 O152 1.264 . S
C162 O156 1.248 . S
C163 O153 1.260 . S
C163 O157 1.253 . S
C164 O155 1.279 . S
C164 O158 1.250 . S
O165 Mg147 2.030 . S
O165 C159 1.248 . S
O166 Mg149 2.079 . S
O166 C159 1.264 . S
O167 Mg168 1.990 . S
O167 C181 1.253 . S
Mg168 O167 1.990 . S
Mg168 O171 2.180 . S
Mg168 O172 2.117 . S
Mg168 O186 2.030 . S
O169 Mg170 2.072 . S
O169 C181 1.260 . S
Mg170 O169 2.072 . S
Mg170 O171 2.099 . S
Mg170 O173 2.079 . S
Mg170 O174 2.072 1_455 S
Mg170 O176 2.099 1_554 S
Mg170 O187 2.079 . S
O171 Mg168 2.180 . S
O171 Mg170 2.099 . S
O171 C182 1.279 . S
O172 Mg168 2.117 . S
O172 C182 1.250 . S
O173 Mg170 2.079 . S
O173 C183 1.265 1_454 S
O174 Mg170 2.072 1_655 S
O174 C184 1.260 1_554 S
Mg175 O176 2.180 1_655 S
Mg175 O177 2.030 . S
Mg175 O178 1.990 . S
Mg175 O179 2.117 1_655 S
O176 Mg170 2.099 1_556 S
O176 Mg175 2.180 1_455 S
O176 C185 1.279 . S
O177 Mg175 2.030 . S
O177 C183 1.247 . S
O178 Mg175 1.990 . S
O178 C184 1.253 . S
O179 Mg175 2.117 1_455 S
O179 C185 1.250 . S
C180 O186 1.248 . S
C180 O187 1.264 . S
C181 O167 1.253 . S
C181 O169 1.260 . S
C182 O171 1.279 . S
C182 O172 1.250 . S
C183 O173 1.265 1_656 S
C183 O177 1.247 . S
C184 O174 1.260 1_556 S
C184 O178 1.253 . S
C185 O176 1.279 . S
C185 O179 1.250 . S
O186 Mg168 2.030 . S
O186 C180 1.248 . S
O187 Mg170 2.079 . S
O187 C180 1.264 . S
H188 C196 0.950 . S
H189 C201 0.950 . S
H190 C198 0.950 . S
H191 C200 0.950 . S
H192 C202 0.950 . S
H193 C204 0.950 . S
H194 C206 0.950 . S
H195 C207 0.950 . S
C196 H188 0.950 . S
C196 C197 1.386 . S
C196 C198 1.391 . S
C197 C196 1.386 . S
C197 C201 1.393 . S
C198 H190 0.950 . S
C198 C196 1.391 . S
C198 C199 1.400 . S
C199 C198 1.400 . S
C199 C200 1.398 . S
C199 C205 1.491 . S
C200 H191 0.950 . S
C200 C199 1.398 . S
C200 C201 1.391 . S
C201 H189 0.950 . S
C201 C197 1.393 . S
C201 C200 1.391 . S
C202 H192 0.950 . S
C202 C203 1.386 . S
C202 C204 1.391 . S
C203 C202 1.386 . S
C203 C207 1.393 . S
C204 H193 0.950 . S
C204 C202 1.391 . S
C204 C205 1.400 . S
C205 C199 1.491 . S
C205 C204 1.400 . S
C205 C206 1.398 . S
C206 H194 0.950 . S
C206 C205 1.398 . S
C206 C207 1.391 . S
C207 H195 0.950 . S
C207 C203 1.393 . S
C207 C206 1.391 . S
H208 C216 0.950 . S
H209 C221 0.950 . S
H210 C218 0.950 . S
H211 C220 0.950 . S
H212 C222 0.950 . S
H213 C224 0.950 1_545 S
H214 C226 0.950 . S
H215 C227 0.950 . S
C216 H208 0.950 . S
C216 C217 1.386 . S
C216 C218 1.391 . S
C217 C216 1.386 . S
C217 C221 1.393 . S
C218 H210 0.950 . S
C218 C216 1.391 . S
C218 C219 1.400 . S
C219 C218 1.400 . S
C219 C220 1.398 . S
C219 C225 1.491 . S
C220 H211 0.950 . S
C220 C219 1.398 . S
C220 C221 1.391 . S
C221 H209 0.950 . S
C221 C217 1.393 . S
C221 C220 1.391 . S
C222 H212 0.950 . S
C222 C223 1.386 1_545 S
C222 C224 1.391 1_545 S
C223 C222 1.386 1_565 S
C223 C227 1.393 . S
C224 H213 0.950 1_565 S
C224 C222 1.391 1_565 S
C224 C225 1.400 . S
C225 C219 1.491 . S
C225 C224 1.400 . S
C225 C226 1.398 . S
C226 H214 0.950 . S
C226 C225 1.398 . S
C226 C227 1.391 . S
C227 H215 0.950 . S
C227 C223 1.393 . S
C227 C226 1.391 . S
H228 C236 0.950 . S
H229 C241 0.950 . S
H230 C238 0.950 . S
H231 C240 0.950 . S
H232 C242 0.950 . S
H233 C244 0.950 . S
H234 C246 0.950 . S
H235 C247 0.950 . S
C236 H228 0.950 . S
C236 C237 1.386 . S
C236 C238 1.391 . S
C237 C236 1.386 . S
C237 C241 1.393 . S
C238 H230 0.950 . S
C238 C236 1.391 . S
C238 C239 1.400 . S
C239 C238 1.400 . S
C239 C240 1.398 . S
C239 C245 1.491 . S
C240 H231 0.950 . S
C240 C239 1.398 . S
C240 C241 1.391 . S
C241 H229 0.950 . S
C241 C237 1.393 . S
C241 C240 1.391 . S
C242 H232 0.950 . S
C242 C243 1.386 . S
C242 C244 1.391 . S
C243 C242 1.386 . S
C243 C247 1.393 . S
C244 H233 0.950 . S
C244 C242 1.391 . S
C244 C245 1.400 . S
C245 C239 1.491 . S
C245 C244 1.400 . S
C245 C246 1.398 . S
C246 H234 0.950 . S
C246 C245 1.398 . S
C246 C247 1.391 . S
C247 H235 0.950 . S
C247 C243 1.393 . S
C247 C246 1.391 . S
H248 C256 0.950 . S
H249 C261 0.950 . S
H250 C258 0.950 . S
H251 C260 0.950 . S
H252 C262 0.950 . S
H253 C264 0.950 . S
H254 C266 0.950 . S
H255 C267 0.950 . S
C256 H248 0.950 . S
C256 C257 1.386 . S
C256 C258 1.391 . S
C257 C256 1.386 . S
C257 C261 1.393 . S
C258 H250 0.950 . S
C258 C256 1.391 . S
C258 C259 1.400 . S
C259 C258 1.400 . S
C259 C260 1.398 . S
C259 C265 1.491 . S
C260 H251 0.950 . S
C260 C259 1.398 . S
C260 C261 1.391 . S
C261 H249 0.950 . S
C261 C257 1.393 . S
C261 C260 1.391 . S
C262 H252 0.950 . S
C262 C263 1.386 . S
C262 C264 1.391 . S
C263 C262 1.386 . S
C263 C267 1.393 . S
C264 H253 0.950 . S
C264 C262 1.391 . S
C264 C265 1.400 . S
C265 C259 1.491 . S
C265 C264 1.400 . S
C265 C266 1.398 . S
C266 H254 0.950 . S
C266 C265 1.398 . S
C266 C267 1.391 . S
C267 H255 0.950 . S
C267 C263 1.393 . S
C267 C266 1.391 . S
H268 C276 0.950 . S
H269 C281 0.950 . S
H270 C278 0.950 . S
H271 C280 0.950 . S
H272 C282 0.950 . S
H273 C284 0.950 . S
H274 C286 0.950 . S
H275 C287 0.950 1_565 S
C276 H268 0.950 . S
C276 C277 1.386 . S
C276 C278 1.391 . S
C277 C276 1.386 . S
C277 C281 1.393 . S
C278 H270 0.950 . S
C278 C276 1.391 . S
C278 C279 1.400 . S
C279 C278 1.400 . S
C279 C280 1.398 . S
C279 C285 1.491 . S
C280 H271 0.950 . S
C280 C279 1.398 . S
C280 C281 1.391 . S
C281 H269 0.950 . S
C281 C277 1.393 . S
C281 C280 1.391 . S
C282 H272 0.950 . S
C282 C283 1.386 . S
C282 C284 1.391 . S
C283 C282 1.386 . S
C283 C287 1.393 . S
C284 H273 0.950 . S
C284 C282 1.391 . S
C284 C285 1.400 . S
C285 C279 1.491 . S
C285 C284 1.400 . S
C285 C286 1.398 . S
C286 H274 0.950 . S
C286 C285 1.398 . S
C286 C287 1.391 . S
C287 H275 0.950 1_545 S
C287 C283 1.393 . S
C287 C286 1.391 . S
H288 C296 0.950 . S
H289 C301 0.950 . S
H290 C298 0.950 . S
H291 C300 0.950 . S
H292 C302 0.950 . S
H293 C304 0.950 . S
H294 C306 0.950 . S
H295 C307 0.950 . S
C296 H288 0.950 . S
C296 C297 1.386 . S
C296 C298 1.391 . S
C297 C296 1.386 . S
C297 C301 1.393 . S
C298 H290 0.950 . S
C298 C296 1.391 . S
C298 C299 1.400 . S
C299 C298 1.400 . S
C299 C300 1.398 . S
C299 C305 1.491 . S
C300 H291 0.950 . S
C300 C299 1.398 . S
C300 C301 1.391 . S
C301 H289 0.950 . S
C301 C297 1.393 . S
C301 C300 1.391 . S
C302 H292 0.950 . S
C302 C303 1.386 . S
C302 C304 1.391 . S
C303 C302 1.386 . S
C303 C307 1.393 . S
C304 H293 0.950 . S
C304 C302 1.391 . S
C304 C305 1.400 . S
C305 C299 1.491 . S
C305 C304 1.400 . S
C305 C306 1.398 . S
C306 H294 0.950 . S
C306 C305 1.398 . S
C306 C307 1.391 . S
C307 H295 0.950 . S
C307 C303 1.393 . S
C307 C306 1.391 . S
H308 C316 0.950 . S
H309 C321 0.950 . S
H310 C318 0.950 . S
H311 C320 0.950 . S
H312 C322 0.950 . S
H313 C324 0.950 1_554 S
H314 C326 0.950 . S
H315 C327 0.950 . S
C316 H308 0.950 . S
C316 C317 1.386 . S
C316 C318 1.391 . S
C317 C316 1.386 . S
C317 C321 1.393 . S
C318 H310 0.950 . S
C318 C316 1.391 . S
C318 C319 1.400 . S
C319 C318 1.400 . S
C319 C320 1.398 . S
C319 C325 1.491 . S
C320 H311 0.950 . S
C320 C319 1.398 . S
C320 C321 1.391 . S
C321 H309 0.950 . S
C321 C317 1.393 . S
C321 C320 1.391 . S
C322 H312 0.950 . S
C322 C323 1.386 1_554 S
C322 C324 1.391 1_554 S
C323 C322 1.386 1_556 S
C323 C327 1.393 . S
C324 H313 0.950 1_556 S
C324 C322 1.391 1_556 S
C324 C325 1.400 . S
C325 C319 1.491 . S
C325 C324 1.400 . S
C325 C326 1.398 . S
C326 H314 0.950 . S
C326 C325 1.398 . S
C326 C327 1.391 . S
C327 H315 0.950 . S
C327 C323 1.393 . S
C327 C326 1.391 . S
H328 C336 0.950 . S
H329 C341 0.950 . S
H330 C338 0.950 . S
H331 C340 0.950 . S
H332 C342 0.950 . S
H333 C344 0.950 . S
H334 C346 0.950 . S
H335 C347 0.950 . S
C336 H328 0.950 . S
C336 C337 1.386 . S
C336 C338 1.391 . S
C337 C336 1.386 . S
C337 C341 1.393 . S
C338 H330 0.950 . S
C338 C336 1.391 . S
C338 C339 1.400 . S
C339 C338 1.400 . S
C339 C340 1.398 . S
C339 C345 1.491 . S
C340 H331 0.950 . S
C340 C339 1.398 . S
C340 C341 1.391 . S
C341 H329 0.950 . S
C341 C337 1.393 . S
C341 C340 1.391 . S
C342 H332 0.950 . S
C342 C343 1.386 . S
C342 C344 1.391 . S
C343 C342 1.386 . S
C343 C347 1.393 . S
C344 H333 0.950 . S
C344 C342 1.391 . S
C344 C345 1.400 . S
C345 C339 1.491 . S
C345 C344 1.400 . S
C345 C346 1.398 . S
C346 H334 0.950 . S
C346 C345 1.398 . S
C346 C347 1.391 . S
C347 H335 0.950 . S
C347 C343 1.393 . S
C347 C346 1.391 . S
H348 C356 0.950 . S
H349 C361 0.950 . S
H350 C358 0.950 . S
H351 C360 0.950 . S
H352 C362 0.950 . S
H353 C364 0.950 . S
H354 C366 0.950 . S
H355 C367 0.950 . S
C356 H348 0.950 . S
C356 C357 1.386 . S
C356 C358 1.391 . S
C357 C356 1.386 . S
C357 C361 1.393 . S
C358 H350 0.950 . S
C358 C356 1.391 . S
C358 C359 1.400 . S
C359 C358 1.400 . S
C359 C360 1.398 . S
C359 C365 1.491 . S
C360 H351 0.950 . S
C360 C359 1.398 . S
C360 C361 1.391 . S
C361 H349 0.950 . S
C361 C357 1.393 . S
C361 C360 1.391 . S
C362 H352 0.950 . S
C362 C363 1.386 . S
C362 C364 1.391 . S
C363 C362 1.386 . S
C363 C367 1.393 . S
C364 H353 0.950 . S
C364 C362 1.391 . S
C364 C365 1.400 . S
C365 C359 1.491 . S
C365 C364 1.400 . S
C365 C366 1.398 . S
C366 H354 0.950 . S
C366 C365 1.398 . S
C366 C367 1.391 . S
C367 H355 0.950 . S
C367 C363 1.393 . S
C367 C366 1.391 . S
H368 C376 0.950 . S
H369 C381 0.950 . S
H370 C378 0.950 . S
H371 C380 0.950 . S
H372 C382 0.972 . S
H373 C384 0.950 . S
H374 C386 0.950 . S
H375 C387 0.950 . S
C376 H368 0.950 . S
C376 C377 1.386 . S
C376 C378 1.391 . S
C377 C376 1.386 . S
C377 C381 1.393 . S
C378 H370 0.950 . S
C378 C376 1.391 . S
C378 C379 1.400 . S
C379 C378 1.400 . S
C379 C380 1.398 . S
C379 C385 1.491 . S
C380 H371 0.950 . S
C380 C379 1.398 . S
C380 C381 1.391 . S
C381 H369 0.950 . S
C381 C377 1.393 . S
C381 C380 1.391 . S
C382 H372 0.972 . S
C382 C383 1.386 . S
C382 C384 1.391 . S
C383 C382 1.386 . S
C383 C387 1.393 . S
C384 H373 0.950 . S
C384 C382 1.391 . S
C384 C385 1.400 . S
C385 C379 1.491 . S
C385 C384 1.400 . S
C385 C386 1.398 . S
C386 H374 0.950 . S
C386 C385 1.398 . S
C386 C387 1.391 . S
C387 H375 0.950 . S
C387 C383 1.393 . S
C387 C386 1.391 . S
H388 C396 0.950 . S
H389 C401 0.950 . S
H390 C398 0.950 . S
H391 C400 0.950 . S
H392 C402 0.950 . S
H393 C404 0.950 . S
H394 C406 0.950 . S
H395 C407 0.950 . S
C396 H388 0.950 . S
C396 C397 1.386 . S
C396 C398 1.391 . S
C397 C396 1.386 . S
C397 C401 1.393 . S
C398 H390 0.950 . S
C398 C396 1.391 . S
C398 C399 1.400 . S
C399 C398 1.400 . S
C399 C400 1.398 . S
C399 C405 1.491 . S
C400 H391 0.950 . S
C400 C399 1.398 . S
C400 C401 1.391 . S
C401 H389 0.950 . S
C401 C397 1.393 . S
C401 C400 1.391 . S
C402 H392 0.950 . S
C402 C403 1.386 . S
C402 C404 1.391 . S
C403 C402 1.386 . S
C403 C407 1.393 . S
C404 H393 0.950 . S
C404 C402 1.391 . S
C404 C405 1.400 . S
C405 C399 1.491 . S
C405 C404 1.400 . S
C405 C406 1.398 . S
C406 H394 0.950 . S
C406 C405 1.398 . S
C406 C407 1.391 . S
C407 H395 0.950 . S
C407 C403 1.393 . S
C407 C406 1.391 . S
H408 C416 0.950 . S
H409 C421 0.950 . S
H410 C418 0.950 . S
H411 C420 0.950 . S
H412 C422 0.950 . S
H413 C424 0.950 . S
H414 C426 0.950 . S
H415 C427 0.950 . S
C416 H408 0.950 . S
C416 C417 1.386 . S
C416 C418 1.391 . S
C417 C416 1.386 . S
C417 C421 1.393 . S
C418 H410 0.950 . S
C418 C416 1.391 . S
C418 C419 1.400 . S
C419 C418 1.400 . S
C419 C420 1.398 . S
C419 C425 1.491 . S
C420 H411 0.950 . S
C420 C419 1.398 . S
C420 C421 1.391 . S
C421 H409 0.950 . S
C421 C417 1.393 . S
C421 C420 1.391 . S
C422 H412 0.950 . S
C422 C423 1.386 . S
C422 C424 1.391 . S
C423 C422 1.386 . S
C423 C427 1.393 . S
C424 H413 0.950 . S
C424 C422 1.391 . S
C424 C425 1.400 . S
C425 C419 1.491 . S
C425 C424 1.400 . S
C425 C426 1.398 . S
C426 H414 0.950 . S
C426 C425 1.398 . S
C426 C427 1.391 . S
C427 H415 0.950 . S
C427 C423 1.393 . S
C427 C426 1.391 . S
H428 C436 0.950 . S
H429 C441 0.950 . S
H430 C438 0.950 . S
H431 C440 0.950 . S
H432 C442 0.950 . S
H433 C444 0.950 . S
H434 C446 0.950 1_455 S
H435 C447 0.950 . S
C436 H428 0.950 . S
C436 C437 1.386 . S
C436 C438 1.391 . S
C437 C436 1.386 . S
C437 C441 1.393 . S
C438 H430 0.950 . S
C438 C436 1.391 . S
C438 C439 1.400 . S
C439 C438 1.400 . S
C439 C440 1.398 . S
C439 C445 1.491 . S
C440 H431 0.950 . S
C440 C439 1.398 . S
C440 C441 1.391 . S
C441 H429 0.950 . S
C441 C437 1.393 . S
C441 C440 1.391 . S
C442 H432 0.950 . S
C442 C443 1.386 . S
C442 C444 1.391 . S
C443 C442 1.386 . S
C443 C447 1.393 1_655 S
C444 H433 0.950 . S
C444 C442 1.391 . S
C444 C445 1.400 . S
C445 C439 1.491 . S
C445 C444 1.400 . S
C445 C446 1.398 . S
C446 H434 0.950 1_655 S
C446 C445 1.398 . S
C446 C447 1.391 1_655 S
C447 H435 0.950 . S
C447 C443 1.393 1_455 S
C447 C446 1.391 1_455 S
H448 C456 0.950 . S
H449 C461 0.950 . S
H450 C458 0.950 . S
H451 C460 0.950 . S
H452 C462 0.950 . S
H453 C464 0.950 . S
H454 C466 0.950 . S
H455 C467 0.950 . S
C456 H448 0.950 . S
C456 C457 1.386 . S
C456 C458 1.391 . S
C457 C456 1.386 . S
C457 C461 1.393 . S
C458 H450 0.950 . S
C458 C456 1.391 . S
C458 C459 1.400 . S
C459 C458 1.400 . S
C459 C460 1.398 . S
C459 C465 1.491 . S
C460 H451 0.950 . S
C460 C459 1.398 . S
C460 C461 1.391 . S
C461 H449 0.950 . S
C461 C457 1.393 . S
C461 C460 1.391 . S
C462 H452 0.950 . S
C462 C463 1.386 . S
C462 C464 1.391 . S
C463 C462 1.386 . S
C463 C467 1.393 . S
C464 H453 0.950 . S
C464 C462 1.391 . S
C464 C465 1.400 . S
C465 C459 1.491 . S
C465 C464 1.400 . S
C465 C466 1.398 . S
C466 H454 0.950 . S
C466 C465 1.398 . S
C466 C467 1.391 . S
C467 H455 0.950 . S
C467 C463 1.393 . S
C467 C466 1.391 . S
H468 C476 0.950 . S
H469 C481 0.950 . S
H470 C478 0.950 . S
H471 C480 0.950 . S
H472 C482 0.950 . S
H473 C484 0.950 . S
H474 C486 0.950 . S
H475 C487 0.950 . S
C476 H468 0.950 . S
C476 C477 1.386 . S
C476 C478 1.391 . S
C477 C476 1.386 . S
C477 C481 1.393 . S
C478 H470 0.950 . S
C478 C476 1.391 . S
C478 C479 1.400 . S
C479 C478 1.400 . S
C479 C480 1.398 . S
C479 C485 1.491 . S
C480 H471 0.950 . S
C480 C479 1.398 . S
C480 C481 1.391 . S
C481 H469 0.950 . S
C481 C477 1.393 . S
C481 C480 1.391 . S
C482 H472 0.950 . S
C482 C483 1.386 . S
C482 C484 1.391 . S
C483 C482 1.386 . S
C483 C487 1.393 . S
C484 H473 0.950 . S
C484 C482 1.391 . S
C484 C485 1.400 . S
C485 C479 1.491 . S
C485 C484 1.400 . S
C485 C486 1.398 . S
C486 H474 0.950 . S
C486 C485 1.398 . S
C486 C487 1.391 . S
C487 H475 0.950 . S
C487 C483 1.393 . S
C487 C486 1.391 . S
H488 C496 0.950 . S
H489 C501 0.950 . S
H490 C498 0.950 . S
H491 C500 0.950 . S
H492 C502 0.950 . S
H493 C504 0.950 . S
H494 C506 0.950 . S
H495 C507 0.950 . S
C496 H488 0.950 . S
C496 C497 1.386 . S
C496 C498 1.391 . S
C497 C496 1.386 . S
C497 C501 1.393 . S
C498 H490 0.950 . S
C498 C496 1.391 . S
C498 C499 1.400 . S
C499 C498 1.400 . S
C499 C500 1.398 . S
C499 C505 1.491 . S
C500 H491 0.950 . S
C500 C499 1.398 . S
C500 C501 1.391 . S
C501 H489 0.950 . S
C501 C497 1.393 . S
C501 C500 1.391 . S
C502 H492 0.950 . S
C502 C503 1.386 . S
C502 C504 1.391 . S
C503 C502 1.386 . S
C503 C507 1.393 . S
C504 H493 0.950 . S
C504 C502 1.391 . S
C504 C505 1.400 . S
C505 C499 1.491 . S
C505 C504 1.400 . S
C505 C506 1.398 . S
C506 H494 0.950 . S
C506 C505 1.398 . S
C506 C507 1.391 . S
C507 H495 0.950 . S
C507 C503 1.393 . S
C507 C506 1.391 . S
H508 C516 0.950 . S
H509 C521 0.950 . S
H510 C518 0.950 . S
H511 C520 0.950 . S
H512 C522 0.950 1_544 S
H513 C524 0.950 . S
H514 C526 0.950 . S
H515 C527 0.950 . S
C516 H508 0.950 . S
C516 C517 1.386 . S
C516 C518 1.391 . S
C517 C516 1.386 . S
C517 C521 1.393 . S
C518 H510 0.950 . S
C518 C516 1.391 . S
C518 C519 1.400 . S
C519 C518 1.400 . S
C519 C520 1.398 . S
C519 C525 1.491 . S
C520 H511 0.950 . S
C520 C519 1.398 . S
C520 C521 1.391 . S
C521 H509 0.950 . S
C521 C517 1.393 . S
C521 C520 1.391 . S
C522 H512 0.950 1_566 S
C522 C523 1.386 . S
C522 C524 1.391 . S
C523 C522 1.386 . S
C523 C527 1.393 . S
C524 H513 0.950 . S
C524 C522 1.391 . S
C524 C525 1.400 . S
C525 C519 1.491 . S
C525 C524 1.400 . S
C525 C526 1.398 . S
C526 H514 0.950 . S
C526 C525 1.398 . S
C526 C527 1.391 . S
C527 H515 0.950 . S
C527 C523 1.393 . S
C527 C526 1.391 . S
H528 C536 0.950 . S
H529 C541 0.950 . S
H530 C538 0.950 . S
H531 C540 0.950 . S
H532 C542 0.950 . S
H533 C544 0.950 . S
H534 C546 0.950 . S
H535 C547 0.950 . S
C536 H528 0.950 . S
C536 C537 1.386 . S
C536 C538 1.391 . S
C537 C536 1.386 . S
C537 C541 1.393 . S
C538 H530 0.950 . S
C538 C536 1.391 . S
C538 C539 1.400 . S
C539 C538 1.400 . S
C539 C540 1.398 . S
C539 C545 1.491 . S
C540 H531 0.950 . S
C540 C539 1.398 . S
C540 C541 1.391 . S
C541 H529 0.950 . S
C541 C537 1.393 . S
C541 C540 1.391 . S
C542 H532 0.950 . S
C542 C543 1.386 . S
C542 C544 1.391 . S
C543 C542 1.386 . S
C543 C547 1.393 . S
C544 H533 0.950 . S
C544 C542 1.391 . S
C544 C545 1.400 . S
C545 C539 1.491 . S
C545 C544 1.400 . S
C545 C546 1.398 . S
C546 H534 0.950 . S
C546 C545 1.398 . S
C546 C547 1.391 . S
C547 H535 0.950 . S
C547 C543 1.393 . S
C547 C546 1.391 . S
H548 C556 0.950 . S
H549 C561 0.950 . S
H550 C558 0.950 . S
H551 C560 0.950 . S
H552 C562 0.950 . S
H553 C564 0.950 . S
H554 C566 0.950 . S
H555 C567 0.950 . S
C556 H548 0.950 . S
C556 C557 1.386 . S
C556 C558 1.391 . S
C557 C556 1.386 . S
C557 C561 1.393 . S
C558 H550 0.950 . S
C558 C556 1.391 . S
C558 C559 1.400 . S
C559 C558 1.400 . S
C559 C560 1.398 . S
C559 C565 1.491 . S
C560 H551 0.950 . S
C560 C559 1.398 . S
C560 C561 1.391 . S
C561 H549 0.950 . S
C561 C557 1.393 . S
C561 C560 1.391 . S
C562 H552 0.950 . S
C562 C563 1.386 . S
C562 C564 1.391 . S
C563 C562 1.386 . S
C563 C567 1.393 . S
C564 H553 0.950 . S
C564 C562 1.391 . S
C564 C565 1.400 . S
C565 C559 1.491 . S
C565 C564 1.400 . S
C565 C566 1.398 . S
C566 H554 0.950 . S
C566 C565 1.398 . S
C566 C567 1.391 . S
C567 H555 0.950 . S
C567 C563 1.393 . S
C567 C566 1.391 . S
H568 C576 0.950 . S
H569 C581 0.950 . S
H570 C578 0.950 . S
H571 C580 0.950 . S
H572 C582 0.950 . S
H573 C584 0.950 . S
H574 C586 0.950 . S
H575 C587 0.950 . S
C576 H568 0.950 . S
C576 C577 1.386 . S
C576 C578 1.391 . S
C577 C576 1.386 . S
C577 C581 1.393 . S
C578 H570 0.950 . S
C578 C576 1.391 . S
C578 C579 1.400 . S
C579 C578 1.400 . S
C579 C580 1.398 . S
C579 C585 1.491 . S
C580 H571 0.950 . S
C580 C579 1.398 . S
C580 C581 1.391 . S
C581 H569 0.950 . S
C581 C577 1.393 . S
C581 C580 1.391 . S
C582 H572 0.950 . S
C582 C583 1.386 . S
C582 C584 1.391 . S
C583 C582 1.386 . S
C583 C587 1.393 . S
C584 H573 0.950 . S
C584 C582 1.391 . S
C584 C585 1.400 . S
C585 C579 1.491 . S
C585 C584 1.400 . S
C585 C586 1.398 . S
C586 H574 0.950 . S
C586 C585 1.398 . S
C586 C587 1.391 . S
C587 H575 0.950 . S
C587 C583 1.393 . S
C587 C586 1.391 . S
H588 C596 0.950 . S
H589 C601 0.950 . S
H590 C598 0.950 . S
H591 C600 0.950 1_455 S
H592 C602 0.950 . S
H593 C604 0.950 . S
H594 C606 0.950 . S
H595 C607 0.955 . S
C596 H588 0.950 . S
C596 C597 1.386 . S
C596 C598 1.391 . S
C597 C596 1.386 . S
C597 C601 1.393 . S
C598 H590 0.950 . S
C598 C596 1.391 . S
C598 C599 1.400 . S
C599 C598 1.400 . S
C599 C600 1.398 . S
C599 C605 1.491 . S
C600 H591 0.950 1_655 S
C600 C599 1.398 . S
C600 C601 1.391 . S
C601 H589 0.950 . S
C601 C597 1.393 . S
C601 C600 1.391 . S
C602 H592 0.950 . S
C602 C603 1.386 1_455 S
C602 C604 1.391 . S
C603 C602 1.386 1_655 S
C603 C607 1.393 . S
C604 H593 0.950 . S
C604 C602 1.391 . S
C604 C605 1.400 1_455 S
C605 C599 1.491 . S
C605 C604 1.400 1_655 S
C605 C606 1.398 . S
C606 H594 0.950 . S
C606 C605 1.398 . S
C606 C607 1.391 . S
C607 H595 0.955 . S
C607 C603 1.393 . S
C607 C606 1.391 . S
H608 C616 0.950 . S
H609 C621 0.950 . S
H610 C618 0.950 . S
H611 C620 0.950 . S
H612 C622 0.950 . S
H613 C624 0.950 . S
H614 C626 0.950 . S
H615 C627 0.950 . S
C616 H608 0.950 . S
C616 C617 1.386 . S
C616 C618 1.391 . S
C617 C616 1.386 . S
C617 C621 1.393 . S
C618 H610 0.950 . S
C618 C616 1.391 . S
C618 C619 1.400 . S
C619 C618 1.400 . S
C619 C620 1.398 . S
C619 C625 1.491 . S
C620 H611 0.950 . S
C620 C619 1.398 . S
C620 C621 1.391 . S
C621 H609 0.950 . S
C621 C617 1.393 . S
C621 C620 1.391 . S
C622 H612 0.950 . S
C622 C623 1.386 . S
C622 C624 1.391 . S
C623 C622 1.386 . S
C623 C627 1.393 . S
C624 H613 0.950 . S
C624 C622 1.391 . S
C624 C625 1.400 . S
C625 C619 1.491 . S
C625 C624 1.400 . S
C625 C626 1.398 . S
C626 H614 0.950 . S
C626 C625 1.398 . S
C626 C627 1.391 . S
C627 H615 0.950 . S
C627 C623 1.393 . S
C627 C626 1.391 . S
H628 C636 0.950 . S
H629 C641 0.950 . S
H630 C638 0.950 . S
H631 C640 0.950 . S
H632 C642 0.950 1_655 S
H633 C644 0.950 . S
H634 C646 0.950 . S
H635 C647 0.950 . S
C636 H628 0.950 . S
C636 C637 1.386 . S
C636 C638 1.391 . S
C637 C636 1.386 . S
C637 C641 1.393 . S
C638 H630 0.950 . S
C638 C636 1.391 . S
C638 C639 1.400 . S
C639 C638 1.400 . S
C639 C640 1.398 . S
C639 C645 1.491 . S
C640 H631 0.950 . S
C640 C639 1.398 . S
C640 C641 1.391 . S
C641 H629 0.950 . S
C641 C637 1.393 . S
C641 C640 1.391 . S
C642 H632 0.950 1_455 S
C642 C643 1.386 . S
C642 C644 1.391 . S
C643 C642 1.386 . S
C643 C647 1.393 . S
C644 H633 0.950 . S
C644 C642 1.391 . S
C644 C645 1.400 . S
C645 C639 1.491 . S
C645 C644 1.400 . S
C645 C646 1.398 . S
C646 H634 0.950 . S
C646 C645 1.398 . S
C646 C647 1.391 . S
C647 H635 0.950 . S
C647 C643 1.393 . S
C647 C646 1.391 . S
H648 C656 0.950 . S
H649 C661 0.950 . S
H650 C658 0.950 . S
H651 C660 0.950 . S
H652 C662 0.950 . S
H653 C664 0.950 . S
H654 C666 0.950 . S
H655 C667 0.950 . S
C656 H648 0.950 . S
C656 C657 1.386 . S
C656 C658 1.391 . S
C657 C656 1.386 . S
C657 C661 1.393 . S
C658 H650 0.950 . S
C658 C656 1.391 . S
C658 C659 1.400 . S
C659 C658 1.400 . S
C659 C660 1.398 . S
C659 C665 1.491 . S
C660 H651 0.950 . S
C660 C659 1.398 . S
C660 C661 1.391 . S
C661 H649 0.950 . S
C661 C657 1.393 . S
C661 C660 1.391 . S
C662 H652 0.950 . S
C662 C663 1.386 . S
C662 C664 1.391 . S
C663 C662 1.386 . S
C663 C667 1.393 . S
C664 H653 0.950 . S
C664 C662 1.391 . S
C664 C665 1.400 . S
C665 C659 1.491 . S
C665 C664 1.400 . S
C665 C666 1.398 . S
C666 H654 0.950 . S
C666 C665 1.398 . S
C666 C667 1.391 . S
C667 H655 0.950 . S
C667 C663 1.393 . S
C667 C666 1.391 . S
C197 C9 1.958 . S
C203 C120 1.910 . S
C217 C21 1.505 . S
C223 C142 1.450 . S
C243 C161 1.056 . S
C237 C30 1.194 . S
C257 C43 1.466 . S
C263 C182 1.304 1_655 S
C283 C139 1.629 . S
C277 C4 1.647 . S
C303 C117 2.092 . S
C297 C22 2.137 . S
C323 C184 1.016 . S
C317 C34 1.082 . S
C343 C163 1.237 . S
C337 C48 1.256 . S
C357 C8 1.780 . S
C363 C181 1.696 . S
C383 C140 1.312 . S
C377 C35 1.617 . S
C397 C47 1.699 . S
C403 C122 1.507 . S
C417 C17 1.366 . S
C423 C160 1.351 . S
C443 C118 1.558 . S
C437 C60 1.624 . S
C457 C74 1.595 . S
C463 C138 1.540 . S
C477 C82 1.040 . S
C483 C164 0.937 . S
C497 C100 1.895 . S
C503 C185 1.558 . S
C517 C61 2.019 . S
C523 C141 1.964 . S
C543 C121 1.698 . S
C537 C73 1.766 . S
C563 C180 1.330 . S
C557 C87 1.382 . S
C583 C159 1.108 . S
C577 C95 1.152 . S
C597 C56 1.542 . S
C603 C183 1.575 . S
C623 C143 1.342 . S
C617 C86 1.574 . S
C643 C119 1.285 . S
C637 C99 1.439 . S
C657 C69 1.294 . S
C663 C162 1.319 . S
