# Generated by pormake.
# Topology wbl, (4,4)-cn, num edge types: 1
# Building blocks:
#     Node 0, Type 0, BuildingBlock: MUDLON_clean_linker_0, # of connection points: 4
#     Node 1, Type 0, BuildingBlock: MUDLON_clean_linker_0, # of connection points: 4
#     Node 2, Type 0, BuildingBlock: MUDLON_clean_linker_0, # of connection points: 4
#     Node 3, Type 0, BuildingBlock: MUDLON_clean_linker_0, # of connection points: 4
#     Node 4, Type 0, BuildingBlock: MUDLON_clean_linker_0, # of connection points: 4
#     Node 5, Type 0, BuildingBlock: MUDLON_clean_linker_0, # of connection points: 4
#     Node 6, Type 0, BuildingBlock: MUDLON_clean_linker_0, # of connection points: 4
#     Node 7, Type 0, BuildingBlock: MUDLON_clean_linker_0, # of connection points: 4
#     Node 8, Type 1, BuildingBlock: KUFVIS_clean_sbu_0, # of connection points: 4
#     Node 9, Type 1, BuildingBlock: KUFVIS_clean_sbu_0, # of connection points: 4
#     Node 10, Type 1, BuildingBlock: KUFVIS_clean_sbu_0, # of connection points: 4
#     Node 11, Type 1, BuildingBlock: KUFVIS_clean_sbu_0, # of connection points: 4
#     Node 12, Type 1, BuildingBlock: KUFVIS_clean_sbu_0, # of connection points: 4
#     Node 13, Type 1, BuildingBlock: KUFVIS_clean_sbu_0, # of connection points: 4
#     Node 14, Type 1, BuildingBlock: KUFVIS_clean_sbu_0, # of connection points: 4
#     Node 15, Type 1, BuildingBlock: KUFVIS_clean_sbu_0, # of connection points: 4
#     Edge 16, Type (0, 1), BuildingBlock: KIFKEQ_clean_linker_1, # of connection points: 2
#     Edge 17, Type (0, 1), BuildingBlock: KIFKEQ_clean_linker_1, # of connection points: 2
#     Edge 18, Type (0, 1), BuildingBlock: KIFKEQ_clean_linker_1, # of connection points: 2
#     Edge 19, Type (0, 1), BuildingBlock: KIFKEQ_clean_linker_1, # of connection points: 2
#     Edge 20, Type (0, 1), BuildingBlock: KIFKEQ_clean_linker_1, # of connection points: 2
#     Edge 21, Type (0, 1), BuildingBlock: KIFKEQ_clean_linker_1, # of connection points: 2
#     Edge 22, Type (0, 1), BuildingBlock: KIFKEQ_clean_linker_1, # of connection points: 2
#     Edge 23, Type (0, 1), BuildingBlock: KIFKEQ_clean_linker_1, # of connection points: 2
#     Edge 24, Type (0, 1), BuildingBlock: KIFKEQ_clean_linker_1, # of connection points: 2
#     Edge 25, Type (0, 1), BuildingBlock: KIFKEQ_clean_linker_1, # of connection points: 2
#     Edge 26, Type (0, 1), BuildingBlock: KIFKEQ_clean_linker_1, # of connection points: 2
#     Edge 27, Type (0, 1), BuildingBlock: KIFKEQ_clean_linker_1, # of connection points: 2
#     Edge 28, Type (0, 1), BuildingBlock: KIFKEQ_clean_linker_1, # of connection points: 2
#     Edge 29, Type (0, 1), BuildingBlock: KIFKEQ_clean_linker_1, # of connection points: 2
#     Edge 30, Type (0, 1), BuildingBlock: KIFKEQ_clean_linker_1, # of connection points: 2
#     Edge 31, Type (0, 1), BuildingBlock: KIFKEQ_clean_linker_1, # of connection points: 2
#     Edge 32, Type (0, 1), BuildingBlock: KIFKEQ_clean_linker_1, # of connection points: 2
#     Edge 33, Type (0, 1), BuildingBlock: KIFKEQ_clean_linker_1, # of connection points: 2
#     Edge 34, Type (0, 1), BuildingBlock: KIFKEQ_clean_linker_1, # of connection points: 2
#     Edge 35, Type (0, 1), BuildingBlock: KIFKEQ_clean_linker_1, # of connection points: 2
#     Edge 36, Type (0, 1), BuildingBlock: KIFKEQ_clean_linker_1, # of connection points: 2
#     Edge 37, Type (0, 1), BuildingBlock: KIFKEQ_clean_linker_1, # of connection points: 2
#     Edge 38, Type (0, 1), BuildingBlock: KIFKEQ_clean_linker_1, # of connection points: 2
#     Edge 39, Type (0, 1), BuildingBlock: KIFKEQ_clean_linker_1, # of connection points: 2
#     Edge 40, Type (0, 1), BuildingBlock: KIFKEQ_clean_linker_1, # of connection points: 2
#     Edge 41, Type (0, 1), BuildingBlock: KIFKEQ_clean_linker_1, # of connection points: 2
#     Edge 42, Type (0, 1), BuildingBlock: KIFKEQ_clean_linker_1, # of connection points: 2
#     Edge 43, Type (0, 1), BuildingBlock: KIFKEQ_clean_linker_1, # of connection points: 2
#     Edge 44, Type (0, 1), BuildingBlock: KIFKEQ_clean_linker_1, # of connection points: 2
#     Edge 45, Type (0, 1), BuildingBlock: KIFKEQ_clean_linker_1, # of connection points: 2
#     Edge 46, Type (0, 1), BuildingBlock: KIFKEQ_clean_linker_1, # of connection points: 2
#     Edge 47, Type (0, 1), BuildingBlock: KIFKEQ_clean_linker_1, # of connection points: 2
# Relax obj value: 0.113
# Max RMSD: 0.125
# Mean RMSD: 0.122
data_MOF--net-wbl--node1-KUFVIS_clean_sbu_0--node2-MUDLON_clean_linker_0--edge1-KIFKEQ_clean_linker_1
_symmetry_space_group_name_H-M    P1
_symmetry_Int_Tables_number       1
_symmetry_cell_setting            triclinic
loop_
_symmetry_equiv_pos_as_xyz
'x, y, z'
_cell_length_a     54.341601
_cell_length_b     54.39229
_cell_length_c     76.896203
_cell_angle_alpha  90.016678
_cell_angle_beta   90.520126
_cell_angle_gamma 89.923188
loop_
_atom_site_label
_atom_site_type_symbol
_atom_site_fract_x
_atom_site_fract_y
_atom_site_fract_z
_atom_type_partial_charge
H0 H 0.0919 0.97338 0.32917 0.0
N1 N 0.08513 0.94795 0.29854 0.0
H2 H 0.09921 0.9558 0.35777 0.0
H3 H 0.08422 0.90065 0.30741 0.0
H4 H 0.09173 0.88279 0.3363 0.0
H5 H 0.09262 0.93018 0.26675 0.0
H6 H 0.13212 0.92295 0.25268 0.0
H7 H 0.12984 0.96601 0.30944 0.0
H8 H 0.16927 0.95715 0.29644 0.0
H9 H 0.09668 0.99702 0.30119 0.0
H10 H 0.03719 0.94629 0.29181 0.0
H11 H 0.06738 0.03122 0.30152 0.0
H12 H 0.00773 0.98044 0.29204 0.0
H13 H 0.97105 0.12982 0.32218 0.0
H14 H 0.95747 0.14162 0.35146 0.0
H15 H 0.92936 0.06836 0.35935 0.0
H16 H 0.94395 0.05635 0.33052 0.0
H17 H 0.92906 0.05076 0.30226 0.0
H18 H 0.88798 0.05616 0.28988 0.0
H19 H 0.9063 0.13087 0.27589 0.0
H20 H 0.9477 0.12489 0.28776 0.0
H21 H 0.00448 0.07686 0.3257 0.0
H22 H 0.03446 0.04422 0.32186 0.0
H23 H 0.99517 0.01914 0.27624 0.0
N24 N 0.9641 0.08687 0.30617 0.0
H25 H 0.96524 0.05189 0.27979 0.0
C26 C 0.08713 0.93829 0.31602 0.0
C27 C 0.09124 0.95363 0.33052 0.0
C28 C 0.09549 0.94352 0.34696 0.0
C29 C 0.09602 0.91791 0.34929 0.0
C30 C 0.09159 0.9026 0.33487 0.0
C31 C 0.08712 0.91274 0.31843 0.0
C32 C 0.10815 0.94825 0.28924 0.0
C33 C 0.10932 0.93673 0.27298 0.0
C34 C 0.13203 0.93226 0.26511 0.0
C35 C 0.15424 0.93881 0.27353 0.0
C36 C 0.15282 0.95186 0.28935 0.0
C37 C 0.13008 0.95682 0.29698 0.0
C38 C 0.06908 0.96898 0.29649 0.0
C39 C 0.07739 0.99325 0.29891 0.0
C40 C 0.06057 0.01279 0.29922 0.0
C41 C 0.03519 0.00852 0.29693 0.0
C42 C 0.02714 0.98439 0.29372 0.0
C43 C 0.04391 0.96487 0.2936 0.0
C44 C 0.9583 0.09238 0.32408 0.0
C45 C 0.96235 0.11625 0.33037 0.0
C46 C 0.95455 0.12295 0.347 0.0
C47 C 0.94214 0.10594 0.35746 0.0
C48 C 0.93861 0.08185 0.35138 0.0
C49 C 0.9469 0.07501 0.33492 0.0
C50 C 0.94167 0.08745 0.29584 0.0
C51 C 0.92446 0.06811 0.29617 0.0
C52 C 0.90081 0.07134 0.28922 0.0
C53 C 0.89356 0.0941 0.28208 0.0
C54 C 0.91117 0.11299 0.28106 0.0
C55 C 0.93492 0.10963 0.28783 0.0
C56 C 0.9811 0.06629 0.30389 0.0
C57 C 1.00176 0.06411 0.31505 0.0
C58 C 0.01928 0.0456 0.31269 0.0
C59 C 0.01703 0.02886 0.29888 0.0
C60 C 0.99707 0.03141 0.28727 0.0
C61 C 0.97964 0.05014 0.2895 0.0
H62 H 0.97225 0.43312 0.58106 0.0
N63 N 0.93926 0.44508 0.55531 0.0
H64 H 0.96251 0.42096 0.61076 0.0
H65 H 0.89513 0.44394 0.56996 0.0
H66 H 0.88503 0.43099 0.59953 0.0
H67 H 0.9071 0.43859 0.52944 0.0
H68 H 0.89758 0.40004 0.51424 0.0
H69 H 0.96616 0.40246 0.55717 0.0
H70 H 0.95675 0.36406 0.5422 0.0
H71 H 0.98549 0.4362 0.54126 0.0
H72 H 0.93916 0.49252 0.56325 0.0
H73 H 0.01867 0.46553 0.53857 0.0
H74 H 0.97296 0.52176 0.56154 0.0
H75 H 0.1273 0.56624 0.56236 0.0
H76 H 0.14352 0.57817 0.59093 0.0
H77 H 0.06938 0.58097 0.61074 0.0
H78 H 0.05338 0.56983 0.58209 0.0
H79 H 0.05591 0.60637 0.56157 0.0
H80 H 0.06261 0.64715 0.54936 0.0
H81 H 0.10985 0.61585 0.51033 0.0
H82 H 0.1035 0.57481 0.5229 0.0
H83 H 0.08212 0.51562 0.55518 0.0
H84 H 0.04806 0.48652 0.55482 0.0
H85 H 0.99746 0.54618 0.54411 0.0
N86 N 0.08033 0.56418 0.55238 0.0
H87 H 0.03122 0.57515 0.54556 0.0
C88 C 0.93434 0.43962 0.57332 0.0
C89 C 0.95321 0.43303 0.58506 0.0
C90 C 0.94756 0.42583 0.60201 0.0
C91 C 0.92295 0.42483 0.60754 0.0
C92 C 0.90419 0.43184 0.59582 0.0
C93 C 0.90988 0.43917 0.57891 0.0
C94 C 0.93737 0.42356 0.54434 0.0
C95 C 0.9184 0.42252 0.5319 0.0
C96 C 0.91286 0.40046 0.52337 0.0
C97 C 0.92632 0.37896 0.52709 0.0
C98 C 0.94619 0.38032 0.53889 0.0
C99 C 0.95157 0.40232 0.54751 0.0
C100 C 0.95944 0.46203 0.55253 0.0
C101 C 0.98226 0.45479 0.5456 0.0
C102 C 1.00154 0.47171 0.54418 0.0
C103 C 0.99876 0.49615 0.54992 0.0
C104 C 0.97585 0.50333 0.55665 0.0
C105 C 0.95648 0.48655 0.55778 0.0
C106 C 0.08923 0.56706 0.57004 0.0
C107 C 0.11465 0.56895 0.57299 0.0
C108 C 0.12385 0.57576 0.58933 0.0
C109 C 0.10773 0.58079 0.60308 0.0
C110 C 0.08228 0.57769 0.60034 0.0
C111 C 0.0731 0.57101 0.58399 0.0
C112 C 0.07941 0.5874 0.5432 0.0
C113 C 0.06737 0.60807 0.55021 0.0
C114 C 0.07128 0.63144 0.54327 0.0
C115 C 0.087 0.63464 0.52907 0.0
C116 C 0.09761 0.61385 0.52128 0.0
C117 C 0.09394 0.59044 0.52839 0.0
C118 C 0.05958 0.54764 0.55041 0.0
C119 C 0.06366 0.52237 0.55266 0.0
C120 C 0.0441 0.50571 0.55232 0.0
C121 C 0.0198 0.51385 0.54944 0.0
C122 C 0.01578 0.53916 0.54672 0.0
C123 C 0.03533 0.55589 0.54737 0.0
H124 H 0.61972 0.45594 0.81573 0.0
N125 N 0.57791 0.44193 0.79824 0.0
H126 H 0.63214 0.4435 0.84485 0.0
H127 H 0.55144 0.41655 0.82104 0.0
H128 H 0.56303 0.40511 0.85079 0.0
H129 H 0.59297 0.39779 0.78866 0.0
H130 H 0.63133 0.38714 0.77474 0.0
H131 H 0.60803 0.47477 0.78089 0.0
H132 H 0.64552 0.46436 0.76561 0.0
H133 H 0.58913 0.48892 0.80853 0.0
H134 H 0.53334 0.44451 0.78378 0.0
H135 H 0.56079 0.52373 0.80923 0.0
H136 H 0.50463 0.47931 0.78457 0.0
H137 H 0.47031 0.62404 0.82591 0.0
H138 H 0.45666 0.63462 0.85541 0.0
H139 H 0.42078 0.56416 0.85937 0.0
H140 H 0.43534 0.55324 0.83033 0.0
H141 H 0.42561 0.54782 0.80083 0.0
H142 H 0.38503 0.55509 0.78787 0.0
H143 H 0.40486 0.63065 0.77801 0.0
H144 H 0.44535 0.62329 0.79127 0.0
H145 H 0.49494 0.56537 0.83069 0.0
H146 H 0.52405 0.53249 0.8261 0.0
H147 H 0.49553 0.5218 0.77411 0.0
N148 N 0.46037 0.58321 0.80799 0.0
H149 H 0.46598 0.55481 0.77859 0.0
C150 C 0.58472 0.43681 0.81609 0.0
C151 C 0.60721 0.44486 0.82328 0.0
C152 C 0.61421 0.43788 0.84007 0.0
C153 C 0.5987 0.4231 0.85024 0.0
C154 C 0.57574 0.41598 0.84324 0.0
C155 C 0.56893 0.42268 0.82632 0.0
C156 C 0.59747 0.43698 0.78605 0.0
C157 C 0.60413 0.41239 0.7833 0.0
C158 C 0.62622 0.40635 0.7752 0.0
C159 C 0.64212 0.42483 0.76913 0.0
C160 C 0.63435 0.44952 0.77057 0.0
C161 C 0.6125 0.45557 0.77914 0.0
C162 C 0.56333 0.46398 0.79608 0.0
C163 C 0.57092 0.48675 0.80296 0.0
C164 C 0.55458 0.50662 0.80349 0.0
C165 C 0.53029 0.50421 0.79719 0.0
C166 C 0.52321 0.48185 0.78946 0.0
C167 C 0.53957 0.46195 0.78897 0.0
C168 C 0.45364 0.58806 0.82584 0.0
C169 C 0.45978 0.61081 0.83326 0.0
C170 C 0.45197 0.61681 0.85002 0.0
C171 C 0.43747 0.60028 0.85947 0.0
C172 C 0.43166 0.57731 0.85219 0.0
C173 C 0.43992 0.57111 0.8356 0.0
C174 C 0.43862 0.58511 0.79704 0.0
C175 C 0.42145 0.56581 0.79558 0.0
C176 C 0.39823 0.56998 0.7881 0.0
C177 C 0.39162 0.59354 0.7821 0.0
C178 C 0.40927 0.61239 0.78274 0.0
C179 C 0.4325 0.60817 0.7901 0.0
C180 C 0.47651 0.56199 0.80552 0.0
C181 C 0.49414 0.55571 0.8184 0.0
C182 C 0.51133 0.53704 0.81566 0.0
C183 C 0.51204 0.52433 0.79978 0.0
C184 C 0.49511 0.53087 0.78665 0.0
C185 C 0.47793 0.54973 0.78934 0.0
H186 H 0.49082 0.88702 0.07845 0.0
N187 N 0.47363 0.92219 0.05758 0.0
H188 H 0.47692 0.87673 0.10776 0.0
H189 H 0.43934 0.9473 0.07656 0.0
H190 H 0.4261 0.93792 0.10593 0.0
H191 H 0.42406 0.91403 0.05453 0.0
H192 H 0.40526 0.88114 0.03789 0.0
H193 H 0.49393 0.89912 0.03071 0.0
H194 H 0.47476 0.86779 0.01242 0.0
H195 H 0.52112 0.93221 0.05436 0.0
H196 H 0.44923 0.96503 0.05058 0.0
H197 H 0.54015 0.97245 0.05089 0.0
H198 H 0.46771 0.00577 0.04913 0.0
H199 H 0.59149 0.08754 0.06887 0.0
H200 H 0.61484 0.09738 0.09525 0.0
H201 H 0.5467 0.10766 0.12293 0.0
H202 H 0.52355 0.0987 0.09622 0.0
H203 H 0.52109 0.13426 0.06324 0.0
H204 H 0.53511 0.16966 0.04679 0.0
H205 H 0.58917 0.12395 0.02136 0.0
H206 H 0.57521 0.08859 0.03851 0.0
H207 H 0.56491 0.04633 0.07232 0.0
H208 H 0.54877 0.00587 0.06709 0.0
H209 H 0.48893 0.03714 0.03681 0.0
N210 N 0.54152 0.09025 0.06474 0.0
H211 H 0.50421 0.07821 0.04358 0.0
C212 C 0.46648 0.91807 0.07537 0.0
C213 C 0.47687 0.8983 0.0845 0.0
C214 C 0.46891 0.89251 0.10125 0.0
C215 C 0.45035 0.9065 0.10924 0.0
C216 C 0.44018 0.92654 0.10012 0.0
C217 C 0.44807 0.93221 0.08334 0.0
C218 C 0.4607 0.90846 0.04432 0.0
C219 C 0.43524 0.90421 0.04526 0.0
C220 C 0.42437 0.88536 0.03548 0.0
C221 C 0.43856 0.87092 0.02409 0.0
C222 C 0.46337 0.87756 0.0216 0.0
C223 C 0.47436 0.89583 0.03182 0.0
C224 C 0.48387 0.94577 0.05328 0.0
C225 C 0.50947 0.94826 0.05283 0.0
C226 C 0.52028 0.97141 0.0511 0.0
C227 C 0.50566 0.99282 0.0503 0.0
C228 C 0.47982 0.98998 0.04969 0.0
C229 C 0.46907 0.96664 0.05085 0.0
C230 C 0.55572 0.09269 0.0806 0.0
C231 C 0.5816 0.09183 0.08063 0.0
C232 C 0.59494 0.09727 0.09578 0.0
C233 C 0.58265 0.10362 0.11116 0.0
C234 C 0.55674 0.10337 0.11122 0.0
C235 C 0.54346 0.09802 0.09606 0.0
C236 C 0.547 0.1089 0.05207 0.0
C237 C 0.53551 0.13179 0.05377 0.0
C238 C 0.54361 0.15201 0.04429 0.0
C239 C 0.5634 0.14979 0.03271 0.0
C240 C 0.57414 0.12643 0.03033 0.0
C241 C 0.56602 0.10613 0.03996 0.0
C242 C 0.53561 0.06575 0.05857 0.0
C243 C 0.54844 0.04477 0.06442 0.0
C244 C 0.53918 0.02124 0.0612 0.0
C245 C 0.51717 0.01782 0.05164 0.0
C246 C 0.50546 0.03879 0.04467 0.0
C247 C 0.51441 0.0624 0.04828 0.0
H248 H 0.06991 0.54225 0.91916 0.0
N249 N 0.06523 0.57433 0.94647 0.0
H250 H 0.08129 0.55283 0.88952 0.0
H251 H 0.06825 0.61914 0.93274 0.0
H252 H 0.08039 0.62992 0.90311 0.0
H253 H 0.07598 0.60091 0.97469 0.0
H254 H 0.11654 0.60704 0.98815 0.0
H255 H 0.10741 0.54882 0.93894 0.0
H256 H 0.14787 0.55588 0.95136 0.0
H257 H 0.07587 0.52673 0.9573 0.0
H258 H 0.01655 0.57599 0.94344 0.0
H259 H 0.04665 0.49388 0.9618 0.0
H260 H 0.98713 0.54255 0.94683 0.0
H261 H 0.94478 0.38853 0.94451 0.0
H262 H 0.93301 0.37346 0.91555 0.0
H263 H 0.92016 0.44821 0.89876 0.0
H264 H 0.93196 0.46307 0.9277 0.0
H265 H 0.90252 0.4616 0.95247 0.0
H266 H 0.86409 0.45379 0.96766 0.0
H267 H 0.90012 0.39757 0.99831 0.0
H268 H 0.93877 0.40572 0.98309 0.0
H269 H 0.99247 0.43287 0.94818 0.0
H270 H 0.02187 0.4665 0.94688 0.0
H271 H 0.96602 0.51655 0.96541 0.0
N272 N 0.94504 0.43478 0.95572 0.0
H273 H 0.93649 0.48323 0.96568 0.0
C274 C 0.06811 0.58 0.92822 0.0
C275 C 0.07153 0.56146 0.9157 0.0
C276 C 0.07835 0.56754 0.89877 0.0
C277 C 0.0821 0.59222 0.894 0.0
C278 C 0.0775 0.61076 0.9063 0.0
C279 C 0.07058 0.60466 0.92323 0.0
C280 C 0.08853 0.57459 0.95577 0.0
C281 C 0.09157 0.5906 0.96989 0.0
C282 C 0.11486 0.59432 0.97738 0.0
C283 C 0.13573 0.58224 0.97074 0.0
C284 C 0.13237 0.56535 0.95704 0.0
C285 C 0.1091 0.56143 0.94975 0.0
C286 C 0.0485 0.55424 0.95007 0.0
C287 C 0.0566 0.53067 0.95518 0.0
C288 C 0.03971 0.51159 0.9576 0.0
C289 C 0.01435 0.5153 0.95461 0.0
C290 C 0.00635 0.53892 0.94961 0.0
C291 C 0.02319 0.5581 0.94752 0.0
C292 C 0.93945 0.42682 0.93822 0.0
C293 C 0.9396 0.4016 0.9345 0.0
C294 C 0.93271 0.39306 0.91803 0.0
C295 C 0.92564 0.40967 0.90491 0.0
C296 C 0.92578 0.43501 0.90857 0.0
C297 C 0.93247 0.44352 0.9251 0.0
C298 C 0.92373 0.43442 0.96682 0.0
C299 C 0.90245 0.4482 0.96286 0.0
C300 C 0.88042 0.44367 0.97155 0.0
C301 C 0.87906 0.42498 0.98413 0.0
C302 C 0.90059 0.41199 0.98861 0.0
C303 C 0.9227 0.41677 0.98006 0.0
C304 C 0.96214 0.45517 0.95693 0.0
C305 C 0.98662 0.4511 0.95206 0.0
C306 C 0.0035 0.47042 0.95145 0.0
C307 C 0.99649 0.49447 0.95603 0.0
C308 C 0.97208 0.49846 0.96142 0.0
C309 C 0.95505 0.47914 0.96173 0.0
H310 H 0.56458 0.40434 0.18428 0.0
N311 N 0.5817 0.44514 0.20135 0.0
H312 H 0.57277 0.39299 0.15409 0.0
H313 H 0.60576 0.47132 0.17771 0.0
H314 H 0.614 0.46011 0.1474 0.0
H315 H 0.6264 0.42727 0.20704 0.0
H316 H 0.63771 0.38953 0.22187 0.0
H317 H 0.55091 0.41741 0.22243 0.0
H318 H 0.56232 0.38077 0.23843 0.0
H319 H 0.5334 0.4334 0.19495 0.0
H320 H 0.5812 0.49043 0.21437 0.0
H321 H 0.49813 0.46078 0.19749 0.0
H322 H 0.54609 0.51853 0.21628 0.0
H323 H 0.39148 0.55899 0.19132 0.0
H324 H 0.37663 0.573 0.16276 0.0
H325 H 0.45091 0.5926 0.14891 0.0
H326 H 0.46556 0.57865 0.17741 0.0
H327 H 0.47181 0.59749 0.20549 0.0
H328 H 0.46599 0.63785 0.21898 0.0
H329 H 0.39626 0.61385 0.23935 0.0
H330 H 0.40225 0.5735 0.22583 0.0
H331 H 0.44751 0.52313 0.18192 0.0
H332 H 0.48184 0.49491 0.18284 0.0
H333 H 0.50822 0.52907 0.23015 0.0
N334 N 0.43735 0.56068 0.20384 0.0
H335 H 0.47429 0.55813 0.22892 0.0
C336 C 0.58474 0.4387 0.18327 0.0
C337 C 0.57523 0.4167 0.1763 0.0
C338 C 0.58006 0.41015 0.15908 0.0
C339 C 0.59417 0.42558 0.14843 0.0
C340 C 0.60297 0.44791 0.15527 0.0
C341 C 0.59835 0.45433 0.17254 0.0
C342 C 0.58783 0.42531 0.21325 0.0
C343 C 0.61237 0.41735 0.21407 0.0
C344 C 0.61883 0.3957 0.22273 0.0
C345 C 0.60095 0.38159 0.23132 0.0
C346 C 0.57657 0.39054 0.23156 0.0
C347 C 0.57 0.41191 0.22246 0.0
C348 C 0.56003 0.45983 0.20461 0.0
C349 C 0.53629 0.45178 0.19993 0.0
C350 C 0.51611 0.46763 0.20122 0.0
C351 C 0.51919 0.49209 0.20689 0.0
C352 C 0.54287 0.49981 0.21205 0.0
C353 C 0.56301 0.48381 0.21093 0.0
C354 C 0.42956 0.56756 0.18646 0.0
C355 C 0.40452 0.56613 0.18204 0.0
C356 C 0.39608 0.57429 0.16581 0.0
C357 C 0.41263 0.58388 0.15363 0.0
C358 C 0.43778 0.58508 0.15798 0.0
C359 C 0.44616 0.57719 0.17428 0.0
C360 C 0.43744 0.58236 0.21475 0.0
C361 C 0.45561 0.60068 0.21325 0.0
C362 C 0.45225 0.62375 0.22097 0.0
C363 C 0.43054 0.62906 0.23007 0.0
C364 C 0.41305 0.61035 0.23227 0.0
C365 C 0.41655 0.58724 0.22474 0.0
C366 C 0.45873 0.54436 0.20458 0.0
C367 C 0.46094 0.52523 0.19229 0.0
C368 C 0.48048 0.50858 0.19302 0.0
C369 C 0.49809 0.50974 0.20648 0.0
C370 C 0.49543 0.52802 0.2193 0.0
C371 C 0.4759 0.54489 0.2185 0.0
H372 H 0.40203 0.96256 0.43612 0.0
N373 N 0.4405 0.94773 0.45704 0.0
H374 H 0.392 0.94725 0.40743 0.0
H375 H 0.46723 0.91735 0.43767 0.0
H376 H 0.4583 0.90308 0.40808 0.0
H377 H 0.4324 0.90729 0.47523 0.0
H378 H 0.39442 0.89572 0.48983 0.0
H379 H 0.40293 0.97947 0.46519 0.0
H380 H 0.36428 0.96771 0.47879 0.0
H381 H 0.43346 0.99396 0.44352 0.0
H382 H 0.48209 0.94988 0.47526 0.0
H383 H 0.46353 0.02721 0.4436 0.0
H384 H 0.51201 0.98344 0.47603 0.0
H385 H 0.56689 0.12609 0.43467 0.0
H386 H 0.5804 0.13697 0.40538 0.0
H387 H 0.58524 0.05981 0.39244 0.0
H388 H 0.57236 0.04917 0.4217 0.0
H389 H 0.60581 0.05213 0.44415 0.0
H390 H 0.64624 0.05841 0.45711 0.0
H391 H 0.61796 0.11934 0.48686 0.0
H392 H 0.57693 0.11247 0.47412 0.0
H393 H 0.51762 0.08907 0.4544 0.0
H394 H 0.48545 0.05837 0.45931 0.0
H395 H 0.54002 1.00074 0.45588 0.0
N396 N 0.56513 0.08149 0.44866 0.0
H397 H 0.57176 0.03123 0.45158 0.0
C398 C 0.43527 0.94073 0.43928 0.0
C399 C 0.4144 0.94948 0.43025 0.0
C400 C 0.40882 0.94088 0.41359 0.0
C401 C 0.42425 0.92378 0.4053 0.0
C402 C 0.44564 0.91579 0.41413 0.0
C403 C 0.45096 0.92409 0.43097 0.0
C404 C 0.42042 0.94402 0.46891 0.0
C405 C 0.41786 0.9208 0.47651 0.0
C406 C 0.39598 0.91413 0.48461 0.0
C407 C 0.37591 0.9305 0.48506 0.0
C408 C 0.37925 0.95456 0.47871 0.0
C409 C 0.40139 0.96133 0.47083 0.0
C410 C 0.45568 0.96926 0.45928 0.0
C411 C 0.45037 0.99162 0.45086 0.0
C412 C 0.46763 0.01073 0.45098 0.0
C413 C 0.49044 0.00795 0.45962 0.0
C414 C 0.49494 0.98607 0.4689 0.0
C415 C 0.47776 0.96696 0.46866 0.0
C416 C 0.56853 0.08691 0.43046 0.0
C417 C 0.57034 0.11159 0.42535 0.0
C418 C 0.57807 0.11775 0.40862 0.0
C419 C 0.58421 0.09925 0.39664 0.0
C420 C 0.58112 0.07451 0.40148 0.0
C421 C 0.57345 0.06838 0.41821 0.0
C422 C 0.58795 0.08153 0.45845 0.0
C423 C 0.60781 0.06613 0.45402 0.0
C424 C 0.63112 0.06988 0.46135 0.0
C425 C 0.63527 0.0894 0.47296 0.0
C426 C 0.61528 0.10421 0.47789 0.0
C427 C 0.59184 0.10017 0.47076 0.0
C428 C 0.54719 0.06273 0.45265 0.0
C429 C 0.52261 0.0698 0.45494 0.0
C430 C 0.50423 0.05221 0.45762 0.0
C431 C 0.51006 0.027 0.458 0.0
C432 C 0.53482 0.01997 0.456 0.0
C433 C 0.55316 0.03757 0.4534 0.0
H434 H 0.05239 0.90149 0.68057 0.0
N435 N 0.07428 0.93745 0.70013 0.0
H436 H 0.06184 0.89068 0.65069 0.0
H437 H 0.1068 0.95894 0.67949 0.0
H438 H 0.11798 0.94702 0.64994 0.0
H439 H 0.11863 0.92119 0.70862 0.0
H440 H 0.12938 0.88277 0.72275 0.0
H441 H 0.04176 0.90716 0.71778 0.0
H442 H 0.05234 0.86969 0.73314 0.0
H443 H 0.02535 0.9278 0.69347 0.0
H444 H 0.07551 0.98288 0.71285 0.0
H445 H 0.99146 0.95667 0.69555 0.0
H446 H 0.0416 0.01254 0.71429 0.0
H447 H 0.8887 0.05748 0.68776 0.0
H448 H 0.87438 0.07155 0.65908 0.0
H449 H 0.94918 0.08951 0.64548 0.0
H450 H 0.9633 0.0754 0.67405 0.0
H451 H 0.97081 0.09354 0.70217 0.0
H452 H 0.96681 0.13451 0.71481 0.0
H453 H 0.89459 0.11532 0.73363 0.0
H454 H 0.89933 0.07414 0.72156 0.0
H455 H 0.94402 0.02058 0.67876 0.0
H456 H 0.97732 0.99124 0.68024 0.0
H457 H 0.00361 0.02479 0.72778 0.0
N458 N 0.93447 0.05857 0.70051 0.0
H459 H 0.97066 0.05497 0.72604 0.0
C460 C 0.07854 0.93148 0.68213 0.0
C461 C 0.06616 0.91204 0.6738 0.0
C462 C 0.07203 0.90551 0.65676 0.0
C463 C 0.09087 0.9178 0.64779 0.0
C464 C 0.10309 0.93736 0.6562 0.0
C465 C 0.09684 0.94417 0.67314 0.0
C466 C 0.07946 0.91725 0.71188 0.0
C467 C 0.1041 0.9102 0.71421 0.0
C468 C 0.1102 0.88813 0.72245 0.0
C469 C 0.09178 0.87262 0.72906 0.0
C470 C 0.0671 0.88059 0.7278 0.0
C471 C 0.06097 0.90243 0.71911 0.0
C472 C 0.05317 0.95306 0.70315 0.0
C473 C 0.02915 0.94603 0.69836 0.0
C474 C 0.00968 0.96277 0.69937 0.0
C475 C 0.01374 0.98715 0.70486 0.0
C476 C 0.03765 0.99391 0.71016 0.0
C477 C 0.05709 0.97701 0.70932 0.0
C478 C 0.92699 0.06521 0.68302 0.0
C479 C 0.90197 0.06424 0.67849 0.0
C480 C 0.89383 0.07244 0.6622 0.0
C481 C 0.91067 0.08164 0.65007 0.0
C482 C 0.93582 0.08229 0.6545 0.0
C483 C 0.9439 0.07432 0.67085 0.0
C484 C 0.93535 0.08064 0.71102 0.0
C485 C 0.95444 0.09794 0.70945 0.0
C486 C 0.95196 0.12152 0.71652 0.0
C487 C 0.93017 0.1285 0.72503 0.0
C488 C 0.91174 0.11068 0.72737 0.0
C489 C 0.91439 0.08705 0.72049 0.0
C490 C 0.95533 0.0416 0.70152 0.0
C491 C 0.95724 0.02233 0.68931 0.0
C492 C 0.97617 0.00504 0.69035 0.0
C493 C 0.99342 0.00567 0.70406 0.0
C494 C 0.99107 0.02412 0.71677 0.0
C495 C 0.97213 0.04163 0.71567 0.0
Mn496 Mn 0.35258 0.66199 0.00849 0.0
Mn497 Mn 0.3617 0.60088 0.0127 0.0
C498 C 0.35572 0.6444 0.03587 0.0
C499 C 0.3691 0.7014 0.00552 0.0
C500 C 0.31226 0.62356 0.00297 0.0
O501 O 0.36383 0.65176 0.98433 0.0
O502 O 0.37258 0.6118 0.98929 0.0
C503 C 0.41618 0.60057 0.01203 0.0
N504 N 0.39479 0.59472 0.02014 0.0
C505 C 0.41679 0.57534 0.04373 0.0
C506 C 0.43904 0.58088 0.03552 0.0
C507 C 0.43873 0.59366 0.01965 0.0
C508 C 0.39489 0.58272 0.03553 0.0
H509 H 0.41602 0.61051 -0.00012 0.0
C510 C 0.37211 0.63088 0.97951 0.0
O511 O 0.34666 0.69664 0.00061 0.0
O512 O 0.38191 0.68319 0.01163 0.0
N513 N 0.35238 0.58784 0.0348 0.0
C514 C 0.32942 0.58524 0.04155 0.0
C515 C 0.32657 0.57347 0.05766 0.0
C516 C 0.34729 0.56436 0.06661 0.0
C517 C 0.37071 0.56713 0.05936 0.0
C518 C 0.37241 0.57891 0.04323 0.0
H519 H 0.31343 0.59226 0.03478 0.0
O520 O 0.34519 0.66565 0.03389 0.0
O521 O 0.36412 0.63428 0.02184 0.0
O522 O 0.31893 0.64604 0.00392 0.0
O523 O 0.32693 0.60548 0.00554 0.0
C524 C 0.39246 0.55894 0.06763 0.0
C525 C 0.41549 0.56312 0.05985 0.0
H526 H 0.45648 0.57563 0.04138 0.0
H527 H 0.45583 0.59819 0.01331 0.0
H528 H 0.30843 0.57149 0.06319 0.0
H529 H 0.34504 0.55546 0.07909 0.0
H530 H 0.39171 0.54976 0.08011 0.0
H531 H 0.43211 0.55713 0.06648 0.0
Mn532 Mn 0.3613 0.85088 0.25925 0.0
Mn533 Mn 0.42229 0.85638 0.26713 0.0
C534 C 0.37571 0.85666 0.28737 0.0
C535 C 0.32311 0.86872 0.25279 0.0
C536 C 0.3974 0.80777 0.25857 0.0
O537 O 0.3753 0.85835 0.2352 0.0
O538 O 0.41497 0.86549 0.24264 0.0
C539 C 0.4277 0.91028 0.26358 0.0
N540 N 0.43037 0.88946 0.27325 0.0
C541 C 0.44832 0.91218 0.29704 0.0
C542 C 0.44592 0.93384 0.28728 0.0
C543 C 0.43551 0.93289 0.2705 0.0
C544 C 0.44035 0.89017 0.28942 0.0
H545 H 0.41962 0.90963 0.25071 0.0
C546 C 0.39727 0.86491 0.2315 0.0
O547 O 0.32733 0.84559 0.24982 0.0
O548 O 0.34135 0.88165 0.25875 0.0
N549 N 0.43162 0.84833 0.29051 0.0
C550 C 0.43095 0.8261 0.29866 0.0
C551 C 0.43976 0.82407 0.31583 0.0
C552 C 0.44927 0.84484 0.32439 0.0
C553 C 0.44994 0.86748 0.31569 0.0
C554 C 0.44106 0.86836 0.29855 0.0
H555 H 0.42363 0.81008 0.29215 0.0
O556 O 0.35415 0.84715 0.28463 0.0
O557 O 0.38809 0.86244 0.27361 0.0
O558 O 0.37534 0.81585 0.25818 0.0
O559 O 0.41608 0.82153 0.26127 0.0
C560 C 0.45854 0.88932 0.3235 0.0
C561 C 0.45772 0.91165 0.31418 0.0
H562 H 0.45176 0.95134 0.29262 0.0
H563 H 0.43347 0.94955 0.26294 0.0
H564 H 0.43912 0.80655 0.32247 0.0
H565 H 0.4558 0.84326 0.3377 0.0
H566 H 0.4654 0.88923 0.33677 0.0
H567 H 0.46399 0.92839 0.32042 0.0
Mn568 Mn 0.16365 0.85275 0.49584 0.0
Mn569 Mn 0.10215 0.85864 0.49024 0.0
C570 C 0.147 0.85702 0.46823 0.0
C571 C 0.20271 0.86959 0.5006 0.0
C572 C 0.12688 0.80986 0.49756 0.0
O573 O 0.15222 0.86215 0.52007 0.0
O574 O 0.11143 0.86546 0.51488 0.0
C575 C 0.09899 0.91234 0.49613 0.0
N576 N 0.09474 0.89242 0.4858 0.0
C577 C 0.07564 0.9176 0.46376 0.0
C578 C 0.07967 0.93837 0.47421 0.0
C579 C 0.09148 0.93573 0.49044 0.0
C580 C 0.08359 0.89478 0.4701 0.0
H581 H 0.10806 0.91039 0.50861 0.0
C582 C 0.13026 0.8664 0.52502 0.0
O583 O 0.19791 0.84684 0.50438 0.0
O584 O 0.18463 0.88272 0.49451 0.0
N585 N 0.09034 0.85275 0.46708 0.0
C586 C 0.08861 0.83103 0.45833 0.0
C587 C 0.0776 0.83054 0.44174 0.0
C588 C 0.06825 0.85232 0.43441 0.0
C589 C 0.06992 0.87439 0.44377 0.0
C590 C 0.08102 0.87373 0.46027 0.0
H591 H 0.09575 0.81423 0.4639 0.0
O592 O 0.16852 0.84707 0.47041 0.0
O593 O 0.13587 0.8642 0.48224 0.0
O594 O 0.14877 0.81826 0.49874 0.0
O595 O 0.10813 0.8233 0.49426 0.0
C596 C 0.06125 0.89705 0.43731 0.0
C597 C 0.06425 0.91867 0.44724 0.0
H598 H 0.07391 0.95644 0.46986 0.0
H599 H 0.09475 0.95168 0.49854 0.0
H600 H 0.07638 0.81343 0.4346 0.0
H601 H 0.05993 0.85191 0.42156 0.0
H602 H 0.05252 0.89811 0.42461 0.0
H603 H 0.05784 0.93605 0.44201 0.0
Mn604 Mn 0.16956 0.66065 0.74663 0.0
Mn605 Mn 0.16471 0.59916 0.74157 0.0
C606 C 0.16797 0.64355 0.71906 0.0
C607 C 0.15117 0.69925 0.74973 0.0
C608 C 0.21232 0.62455 0.75204 0.0
O609 O 0.15801 0.64917 0.77049 0.0
O610 O 0.15317 0.60872 0.76504 0.0
C611 C 0.11041 0.59498 0.74219 0.0
N612 N 0.13213 0.59112 0.73392 0.0
C613 C 0.11148 0.57194 0.70966 0.0
C614 C 0.08889 0.57559 0.71796 0.0
C615 C 0.08836 0.5872 0.73428 0.0
C616 C 0.13285 0.58004 0.7182 0.0
H617 H 0.10991 0.60396 0.75471 0.0
C618 C 0.15164 0.62751 0.77505 0.0
O619 O 0.17359 0.69524 0.75503 0.0
O620 O 0.13927 0.6807 0.74324 0.0
N621 N 0.17499 0.5875 0.71929 0.0
C622 C 0.19815 0.5864 0.71268 0.0
C623 C 0.20183 0.5757 0.69628 0.0
C624 C 0.18171 0.56612 0.68691 0.0
C625 C 0.15808 0.56728 0.69403 0.0
C626 C 0.15557 0.57797 0.7105 0.0
H627 H 0.2137 0.59368 0.71984 0.0
O628 O 0.17735 0.66525 0.72137 0.0
O629 O 0.16 0.63264 0.7329 0.0
O630 O 0.20404 0.64653 0.75139 0.0
O631 O 0.199 0.60565 0.749 0.0
C632 C 0.13688 0.5586 0.68534 0.0
C633 C 0.11358 0.561 0.69312 0.0
H634 H 0.07184 0.56971 0.71187 0.0
H635 H 0.07099 0.59018 0.74072 0.0
H636 H 0.22012 0.57489 0.69086 0.0
H637 H 0.1846 0.55804 0.67421 0.0
H638 H 0.13823 0.55037 0.67256 0.0
H639 H 0.09737 0.55459 0.6862 0.0
Mn640 Mn 0.85395 0.16646 0.50607 0.0
Mn641 Mn 0.86309 0.10522 0.50863 0.0
C642 C 0.85731 0.14765 0.533 0.0
C643 C 0.86986 0.20615 0.50354 0.0
C644 C 0.81379 0.12851 0.49933 0.0
O645 O 0.86481 0.1571 0.48155 0.0
O646 O 0.87529 0.1174 0.48594 0.0
C647 C 0.91757 0.10442 0.50947 0.0
N648 N 0.89569 0.09832 0.51679 0.0
C649 C 0.91617 0.07738 0.54039 0.0
C650 C 0.93893 0.08314 0.53297 0.0
C651 C 0.93962 0.09683 0.51749 0.0
C652 C 0.89481 0.08546 0.53181 0.0
H653 H 0.91817 0.11509 0.49765 0.0
C654 C 0.87419 0.13678 0.47649 0.0
O655 O 0.8474 0.20111 0.49886 0.0
O656 O 0.88321 0.18801 0.50921 0.0
N657 N 0.85241 0.09111 0.53008 0.0
C658 C 0.82905 0.08827 0.53606 0.0
C659 C 0.82519 0.07572 0.55175 0.0
C660 C 0.84533 0.06599 0.56104 0.0
C661 C 0.86917 0.06889 0.55453 0.0
C662 C 0.87188 0.08152 0.5388 0.0
H663 H 0.81346 0.09558 0.52895 0.0
O664 O 0.84704 0.16911 0.53159 0.0
O665 O 0.86556 0.13815 0.51871 0.0
O666 O 0.82026 0.15079 0.50177 0.0
O667 O 0.82869 0.11036 0.50058 0.0
C668 C 0.89037 0.06001 0.56315 0.0
C669 C 0.91386 0.06431 0.5561 0.0
H670 H 0.95598 0.07738 0.53914 0.0
H671 H 0.95711 0.10155 0.51177 0.0
H672 H 0.80673 0.07355 0.55668 0.0
H673 H 0.8423 0.05644 0.57319 0.0
H674 H 0.88885 0.05019 0.57534 0.0
H675 H 0.93005 0.05776 0.56301 0.0
Mn676 Mn 0.8557 0.34802 0.75814 0.0
Mn677 Mn 0.91699 0.3551 0.76371 0.0
C678 C 0.87244 0.35087 0.78586 0.0
C679 C 0.81664 0.36534 0.75417 0.0
C680 C 0.89332 0.30642 0.75394 0.0
O681 O 0.86707 0.35904 0.73415 0.0
O682 O 0.90733 0.36545 0.73984 0.0
C683 C 0.91932 0.4094 0.76192 0.0
N684 N 0.92382 0.38811 0.77071 0.0
C685 C 0.9424 0.4101 0.79459 0.0
C686 C 0.93809 0.43226 0.78575 0.0
C687 C 0.92643 0.4319 0.76937 0.0
C688 C 0.93488 0.38825 0.78652 0.0
H689 H 0.91035 0.40919 0.74933 0.0
C690 C 0.88859 0.36581 0.7296 0.0
O691 O 0.82124 0.34288 0.74942 0.0
O692 O 0.83484 0.37782 0.76063 0.0
N693 N 0.92882 0.34591 0.78631 0.0
C694 C 0.9307 0.32304 0.79342 0.0
C695 C 0.94147 0.32023 0.80998 0.0
C696 C 0.95038 0.34092 0.81897 0.0
C697 C 0.94851 0.36423 0.81129 0.0
C698 C 0.93769 0.36588 0.79474 0.0
H699 H 0.92397 0.30706 0.78655 0.0
O700 O 0.85102 0.34084 0.78347 0.0
O701 O 0.88328 0.35885 0.772 0.0
O702 O 0.87099 0.31383 0.75426 0.0
O703 O 0.91169 0.32048 0.75694 0.0
C704 C 0.95671 0.38592 0.81949 0.0
C705 C 0.95358 0.40885 0.81117 0.0
H706 H 0.9435 0.44966 0.79146 0.0
H707 H 0.92294 0.44894 0.7625 0.0
H708 H 0.94286 0.30217 0.81581 0.0
H709 H 0.95852 0.3387 0.83178 0.0
H710 H 0.96513 0.38522 0.8323 0.0
H711 H 0.95962 0.42544 0.81773 0.0
Mn712 Mn 0.66524 0.35691 0.99722 0.0
Mn713 Mn 0.60483 0.36754 0.98948 0.0
C714 C 0.65106 0.36281 0.96908 0.0
C715 C 0.7048 0.37182 0.00311 0.0
C716 C 0.62553 0.31693 0.99773 0.0
O717 O 0.65261 0.36656 0.02111 0.0
O718 O 0.61302 0.37486 0.01426 0.0
C719 C 0.60472 0.42153 0.99438 0.0
N720 N 0.59982 0.40154 0.98427 0.0
C721 C 0.58347 0.42702 0.96132 0.0
C722 C 0.58817 0.44787 0.97155 0.0
C723 C 0.59891 0.44511 0.98813 0.0
C724 C 0.58956 0.40399 0.96828 0.0
H725 H 0.61303 0.4195 0.00711 0.0
C726 C 0.63102 0.37374 0.02515 0.0
O727 O 0.69881 0.34929 0.00675 0.0
O728 O 0.6876 0.38575 0.99674 0.0
N729 N 0.59433 0.3616 0.96601 0.0
C730 C 0.5927 0.33984 0.95729 0.0
C731 C 0.58301 0.33947 0.9403 0.0
C732 C 0.57503 0.36143 0.93247 0.0
C733 C 0.57686 0.38359 0.9417 0.0
C734 C 0.58646 0.3828 0.95866 0.0
H735 H 0.59904 0.32296 0.96316 0.0
O736 O 0.67164 0.35135 0.97194 0.0
O737 O 0.63937 0.37039 0.98274 0.0
O738 O 0.64807 0.32334 -0.00072 0.0
O739 O 0.60813 0.33201 0.99423 0.0
C740 C 0.57011 0.40652 0.93458 0.0
C741 C 0.57345 0.42822 0.94437 0.0
H742 H 0.58384 0.4661 0.96674 0.0
H743 H 0.60272 0.46113 0.99605 0.0
H744 H 0.58184 0.32231 0.93322 0.0
H745 H 0.56782 0.36111 0.91929 0.0
H746 H 0.56276 0.40772 0.92146 0.0
H747 H 0.56858 0.44578 0.93865 0.0
Mn748 Mn 0.67326 0.16846 0.25 0.0
Mn749 Mn 0.66562 0.10742 0.2443 0.0
C750 C 0.66867 0.15217 0.22233 0.0
C751 C 0.65646 0.20763 0.25395 0.0
C752 C 0.71487 0.13064 0.25346 0.0
O753 O 0.66293 0.1568 0.27411 0.0
O754 O 0.6563 0.11664 0.26834 0.0
C755 C 0.61137 0.1051 0.24703 0.0
N756 N 0.63223 0.1009 0.2378 0.0
C757 C 0.60894 0.08397 0.21388 0.0
C758 C 0.58722 0.088 0.22317 0.0
C759 C 0.58845 0.09865 0.2398 0.0
C760 C 0.63126 0.09069 0.22177 0.0
H761 H 0.61221 0.11338 0.25979 0.0
C762 C 0.65616 0.13522 0.27862 0.0
O763 O 0.67906 0.20282 0.25847 0.0
O764 O 0.64351 0.18952 0.24789 0.0
N765 N 0.67369 0.09636 0.2214 0.0
C766 C 0.69619 0.09495 0.21378 0.0
C767 C 0.6981 0.08528 0.19691 0.0
C768 C 0.6769 0.07708 0.18808 0.0
C769 C 0.65397 0.07856 0.19624 0.0
C770 C 0.65323 0.08818 0.21312 0.0
H771 H 0.71254 0.10125 0.22049 0.0
O772 O 0.67926 0.17333 0.22449 0.0
O773 O 0.66157 0.14126 0.23639 0.0
O774 O 0.70747 0.15295 0.25339 0.0
O775 O 0.70063 0.11238 0.25054 0.0
C776 C 0.63177 0.07127 0.18816 0.0
C777 C 0.60927 0.07403 0.19695 0.0
H778 H 0.56949 0.08318 0.2176 0.0
H779 H 0.57175 0.10193 0.24702 0.0
H780 H 0.71585 0.08424 0.19069 0.0
H781 H 0.67841 0.06985 0.17501 0.0
H782 H 0.63177 0.06384 0.17509 0.0
H783 H 0.59229 0.06871 0.1905 0.0
H784 H 0.16478 0.89665 0.25506 0.0
H785 H 0.19958 0.96153 0.2765 0.0
H786 H 0.20447 0.88132 0.24616 0.0
H787 H 0.23949 0.94487 0.26937 0.0
H788 H 0.31042 0.91694 0.24857 0.0
H789 H 0.26942 0.93497 0.24996 0.0
H790 H 0.23858 0.86239 0.25722 0.0
H791 H 0.27934 0.84455 0.25453 0.0
C792 C 0.18078 0.90786 0.2578 0.0
C793 C 0.17863 0.9304 0.2667 0.0
C794 C 0.20382 0.89871 0.25298 0.0
C795 C 0.22557 0.91147 0.25725 0.0
C796 C 0.22337 0.93441 0.26563 0.0
C797 C 0.20028 0.94384 0.27008 0.0
C798 C 0.29474 0.90489 0.25011 0.0
C799 C 0.29807 0.87935 0.25143 0.0
C800 C 0.27118 0.91522 0.25112 0.0
C801 C 0.25038 0.90033 0.25398 0.0
C802 C 0.25383 0.87463 0.25473 0.0
C803 C 0.27732 0.86429 0.25327 0.0
H804 H 0.08622 0.65368 0.49606 0.0
H805 H 0.10352 0.67206 0.54939 0.0
H806 H 0.09736 0.69557 0.48716 0.0
H807 H 0.11487 0.71363 0.54052 0.0
H808 H 0.15679 0.77723 0.51483 0.0
H809 H 0.1483 0.73408 0.52145 0.0
H810 H 0.07916 0.73914 0.49363 0.0
H811 H 0.08734 0.78228 0.4872 0.0
C812 C 0.09249 0.66665 0.50582 0.0
C813 C 0.09382 0.65976 0.52341 0.0
C814 C 0.09879 0.69056 0.50076 0.0
C815 C 0.10704 0.70776 0.51316 0.0
C816 C 0.10877 0.70067 0.53068 0.0
C817 C 0.10206 0.67699 0.53577 0.0
C818 C 0.13989 0.76909 0.50998 0.0
C819 C 0.12271 0.78325 0.50055 0.0
C820 C 0.135 0.74444 0.51384 0.0
C821 C 0.11307 0.73333 0.50806 0.0
C822 C 0.09629 0.74721 0.49813 0.0
C823 C 0.10095 0.77195 0.49455 0.0
H824 H 0.36332 0.63306 0.79085 0.0
H825 H 0.3616 0.56592 0.76091 0.0
H826 H 0.32045 0.64087 0.78326 0.0
H827 H 0.31874 0.57393 0.75296 0.0
H828 H 0.23562 0.58093 0.75891 0.0
H829 H 0.27888 0.57404 0.76547 0.0
H830 H 0.29274 0.65192 0.76044 0.0
H831 H 0.24919 0.65895 0.75441 0.0
C832 C 0.35389 0.62018 0.78237 0.0
C833 C 0.3659 0.59888 0.77645 0.0
C834 C 0.32926 0.62467 0.778 0.0
C835 C 0.316 0.60804 0.76751 0.0
C836 C 0.32819 0.58694 0.76133 0.0
C837 C 0.3528 0.58236 0.76581 0.0
C838 C 0.24784 0.59665 0.75922 0.0
C839 C 0.2388 0.62054 0.75617 0.0
C840 C 0.27277 0.59265 0.76285 0.0
C841 C 0.28945 0.61239 0.76342 0.0
C842 C 0.28043 0.63629 0.76034 0.0
C843 C 0.25542 0.64032 0.75682 0.0
H844 H 0.39041 0.85932 0.0149 0.0
H845 H 0.4638 0.82835 0.01668 0.0
H846 H 0.37379 0.8188 0.00859 0.0
H847 H 0.44748 0.78884 0.00856 0.0
H848 H 0.41089 0.71692 0.02152 0.0
H849 H 0.42722 0.75813 0.02322 0.0
H850 H 0.3678 0.78441 0.99032 0.0
H851 H 0.35064 0.7428 0.9894 0.0
C852 C 0.40312 0.8441 0.01371 0.0
C853 C 0.42854 0.8474 0.01672 0.0
C854 C 0.39355 0.82081 0.00977 0.0
C855 C 0.40918 0.80025 0.00842 0.0
C856 C 0.4347 0.80398 0.01004 0.0
C857 C 0.44419 0.82703 0.01435 0.0
C858 C 0.40135 0.73141 0.01451 0.0
C859 C 0.37948 0.72655 0.0053 0.0
C860 C 0.41087 0.75516 0.01536 0.0
C861 C 0.39908 0.7748 0.00674 0.0
C862 C 0.37731 0.76988 0.99726 0.0
C863 C 0.36753 0.746 0.99663 0.0
H864 H 0.15375 0.62679 0.98205 0.0
H865 H 0.17544 0.55114 0.97413 0.0
H866 H 0.19545 0.63677 0.99115 0.0
H867 H 0.21749 0.56157 0.98163 0.0
H868 H 0.28764 0.58084 0.00946 0.0
H869 H 0.24482 0.57139 0.00356 0.0
H870 H 0.23489 0.64337 0.98062 0.0
H871 H 0.27755 0.65334 0.98761 0.0
C872 C 0.16731 0.6122 0.98232 0.0
C873 C 0.16102 0.58811 0.97728 0.0
C874 C 0.19146 0.61806 0.98724 0.0
C875 C 0.21012 0.6001 0.98702 0.0
C876 C 0.20373 0.57594 0.98223 0.0
C877 C 0.17953 0.56999 0.97761 0.0
C878 C 0.27632 0.59474 0.00324 0.0
C879 C 0.28608 0.61789 -0.00096 0.0
C880 C 0.25169 0.58923 -0.0003 0.0
C881 C 0.23618 0.6065 0.99148 0.0
C882 C 0.24601 0.62969 0.98724 0.0
C883 C 0.27058 0.63539 0.99112 0.0
H884 H 0.46085 0.6606 0.24795 0.0
H885 H 0.38827 0.65516 0.22509 0.0
H886 H 0.45244 0.70308 0.2563 0.0
H887 H 0.38006 0.69777 0.23274 0.0
H888 H 0.36432 0.76969 0.26007 0.0
H889 H 0.37209 0.72614 0.25494 0.0
H890 H 0.44834 0.74239 0.24428 0.0
H891 H 0.44079 0.78555 0.25015 0.0
C892 C 0.44312 0.66855 0.24469 0.0
C893 C 0.4252 0.65454 0.23594 0.0
C894 C 0.43829 0.69295 0.24937 0.0
C895 C 0.41556 0.70407 0.24515 0.0
C896 C 0.39759 0.68985 0.23654 0.0
C897 C 0.40231 0.66538 0.23208 0.0
C898 C 0.38275 0.76392 0.25669 0.0
C899 C 0.4019 0.78117 0.25553 0.0
C900 C 0.38722 0.73892 0.25365 0.0
C901 C 0.41089 0.73056 0.24915 0.0
C902 C 0.43 0.7479 0.24804 0.0
C903 C 0.42561 0.77279 0.25129 0.0
H904 H 0.35528 0.88551 0.4788 0.0
H905 H 0.3398 0.95558 0.50293 0.0
H906 H 0.3141 0.87158 0.48546 0.0
H907 H 0.29806 0.94159 0.50931 0.0
H908 H 0.24468 0.84539 0.51048 0.0
H909 H 0.28688 0.86058 0.50951 0.0
H910 H 0.26029 0.93146 0.49233 0.0
H911 H 0.21805 0.91637 0.49349 0.0
C912 C 0.34332 0.89782 0.48588 0.0
C913 C 0.35109 0.92168 0.49042 0.0
C914 C 0.31958 0.88979 0.48966 0.0
C915 C 0.30278 0.90542 0.49797 0.0
C916 C 0.31052 0.92917 0.50275 0.0
C917 C 0.33443 0.93719 0.49907 0.0
C918 C 0.2478 0.86432 0.50672 0.0
C919 C 0.22801 0.87961 0.50192 0.0
C920 C 0.272 0.87298 0.50609 0.0
C921 C 0.27698 0.89717 0.50069 0.0
C922 C 0.2571 0.9128 0.49666 0.0
C923 C 0.23289 0.9041 0.49724 0.0
H924 H 0.1344 0.8575 0.74587 0.0
H925 H 0.06394 0.83026 0.72777 0.0
H926 H 0.14735 0.81591 0.75223 0.0
H927 H 0.07577 0.78914 0.73615 0.0
H928 H 0.11422 0.71592 0.72894 0.0
H929 H 0.0988 0.7575 0.72619 0.0
H930 H 0.14711 0.78056 0.76819 0.0
H931 H 0.16381 0.73893 0.76991 0.0
C932 C 0.12147 0.84277 0.74341 0.0
C933 C 0.09823 0.84756 0.73586 0.0
C934 C 0.12879 0.81874 0.74743 0.0
C935 C 0.11285 0.79874 0.7445 0.0
C936 C 0.08899 0.80376 0.73811 0.0
C937 C 0.08193 0.82768 0.73363 0.0
C938 C 0.1214 0.72985 0.73769 0.0
C939 C 0.14027 0.72419 0.7496 0.0
C940 C 0.11238 0.75382 0.73623 0.0
C941 C 0.12153 0.77278 0.74698 0.0
C942 C 0.13987 0.76678 0.75939 0.0
C943 C 0.14935 0.74284 0.76052 0.0
H944 H 0.68463 0.45242 0.7715 0.0
H945 H 0.65778 0.38238 0.75263 0.0
H946 H 0.72606 0.44036 0.76449 0.0
H947 H 0.69961 0.36915 0.74774 0.0
H948 H 0.77779 0.3521 0.73311 0.0
H949 H 0.73604 0.36875 0.73335 0.0
H950 H 0.75697 0.41732 0.77558 0.0
H951 H 0.79869 0.40201 0.77425 0.0
C952 C 0.68734 0.43448 0.76575 0.0
C953 C 0.66744 0.41836 0.76294 0.0
C954 C 0.71146 0.42726 0.76209 0.0
C955 C 0.71666 0.4034 0.75599 0.0
C956 C 0.69668 0.38769 0.75239 0.0
C957 C 0.67247 0.39518 0.75556 0.0
C958 C 0.77338 0.36658 0.74224 0.0
C959 C 0.7915 0.37582 0.7536 0.0
C960 C 0.74936 0.37605 0.74253 0.0
C961 C 0.74272 0.39452 0.75451 0.0
C962 C 0.76114 0.40369 0.76579 0.0
C963 C 0.7852 0.39471 0.76517 0.0
H964 H 0.61186 0.1611 0.02632 0.0
H965 H 0.53807 0.18964 0.02004 0.0
H966 H 0.62845 0.19961 0.01533 0.0
H967 H 0.55453 0.22858 0.01054 0.0
H968 H 0.58617 0.29273 0.98383 0.0
H969 H 0.57317 0.25086 0.9891 0.0
H970 H 0.63541 0.24036 0.0238 0.0
H971 H 0.64934 0.28201 0.01743 0.0
C972 C 0.59913 0.17545 0.02244 0.0
C973 C 0.57358 0.17222 0.02422 0.0
C974 C 0.60869 0.19777 0.01641 0.0
C975 C 0.59296 0.21751 0.01215 0.0
C976 C 0.56738 0.21388 0.01341 0.0
C977 C 0.55786 0.19153 0.01917 0.0
C978 C 0.59731 0.2814 0.99239 0.0
C979 C 0.61876 0.29078 0.00026 0.0
C980 C 0.5897 0.25735 0.99558 0.0
C981 C 0.6029 0.24212 0.00715 0.0
C982 C 0.62482 0.2513 0.01466 0.0
C983 C 0.63278 0.27529 0.01111 0.0
H984 H 0.85188 0.07715 0.29789 0.0
H985 H 0.87569 0.12195 0.25478 0.0
H986 H 0.8092 0.08583 0.29035 0.0
H987 H 0.83277 0.13118 0.2476 0.0
H988 H 0.75357 0.16317 0.25486 0.0
H989 H 0.79687 0.15402 0.26101 0.0
H990 H 0.77925 0.07704 0.26628 0.0
H991 H 0.73614 0.08601 0.26019 0.0
C992 C 0.84809 0.08856 0.28664 0.0
C993 C 0.8674 0.09869 0.27689 0.0
C994 C 0.82355 0.09365 0.2824 0.0
C995 C 0.81761 0.10921 0.2684 0.0
C996 C 0.8368 0.11935 0.25859 0.0
C997 C 0.8614 0.11406 0.26273 0.0
C998 C 0.75891 0.14429 0.25733 0.0
C999 C 0.74128 0.12536 0.25708 0.0
C1000 C 0.78375 0.13905 0.26073 0.0
C1001 C 0.79144 0.11482 0.26416 0.0
C1002 C 0.77385 0.09592 0.26386 0.0
C1003 C 0.74913 0.1011 0.26029 0.0
H1004 H 0.87959 0.36094 0.52469 0.0
H1005 H 0.95511 0.34205 0.5139 0.0
H1006 H 0.86675 0.31972 0.51642 0.0
H1007 H 0.94225 0.30078 0.50525 0.0
H1008 H 0.91404 0.22231 0.51614 0.0
H1009 H 0.92798 0.26455 0.51923 0.0
H1010 H 0.8614 0.29012 0.49388 0.0
H1011 H 0.84709 0.24773 0.49132 0.0
C1012 C 0.89339 0.34814 0.52013 0.0
C1013 C 0.91839 0.35476 0.52001 0.0
C1014 C 0.88602 0.32445 0.51536 0.0
C1015 C 0.90345 0.30678 0.51023 0.0
C1016 C 0.92836 0.31374 0.50944 0.0
C1017 C 0.93575 0.33741 0.51434 0.0
C1018 C 0.90247 0.23692 0.51105 0.0
C1019 C 0.87937 0.23167 0.5036 0.0
C1020 C 0.91055 0.2612 0.51272 0.0
C1021 C 0.8958 0.28086 0.50688 0.0
C1022 C 0.87307 0.2755 0.4988 0.0
C1023 C 0.86492 0.25118 0.49722 0.0
H1024 H 0.67055 0.05837 0.48596 0.0
H1025 H 0.65758 0.13417 0.47212 0.0
H1026 H 0.71332 0.06803 0.49305 0.0
H1027 H 0.70047 0.1438 0.47847 0.0
H1028 H 0.77401 0.15835 0.50484 0.0
H1029 H 0.73074 0.14893 0.49997 0.0
H1030 H 0.75082 0.0775 0.47982 0.0
H1031 H 0.79397 0.08656 0.48546 0.0
C1032 C 0.67691 0.07711 0.48445 0.0
C1033 C 0.66074 0.09553 0.47857 0.0
C1034 C 0.70147 0.08266 0.48837 0.0
C1035 C 0.71057 0.10671 0.48623 0.0
C1036 C 0.69417 0.12517 0.48058 0.0
C1037 C 0.66954 0.11968 0.4769 0.0
C1038 C 0.76919 0.14066 0.49931 0.0
C1039 C 0.7875 0.12323 0.49552 0.0
C1040 C 0.74431 0.13526 0.49645 0.0
C1041 C 0.7371 0.1124 0.48951 0.0
C1042 C 0.75551 0.0951 0.48553 0.0
C1043 C 0.78035 0.10037 0.48862 0.0
H1044 H 0.94441 0.17028 0.70789 0.0
H1045 H 0.90551 0.14621 0.75364 0.0
H1046 H 0.93558 0.21283 0.71531 0.0
H1047 H 0.896 0.18897 0.76066 0.0
H1048 H 0.86125 0.2673 0.75389 0.0
H1049 H 0.87058 0.22416 0.74759 0.0
H1050 H 0.94656 0.24314 0.73885 0.0
H1051 H 0.93743 0.28602 0.74513 0.0
C1052 C 0.9343 0.17398 0.71968 0.0
C1053 C 0.92583 0.15463 0.7302 0.0
C1054 C 0.92908 0.19843 0.72384 0.0
C1055 C 0.91503 0.20423 0.73853 0.0
C1056 C 0.90661 0.18502 0.74913 0.0
C1057 C 0.91206 0.16052 0.74507 0.0
C1058 C 0.87993 0.26227 0.75059 0.0
C1059 C 0.89855 0.28019 0.74998 0.0
C1060 C 0.88529 0.23755 0.74711 0.0
C1061 C 0.9093 0.23029 0.74271 0.0
C1062 C 0.92785 0.2482 0.74205 0.0
C1063 C 0.92259 0.27278 0.74573 0.0
H1064 H 0.84249 0.45451 0.99683 0.0
H1065 H 0.86067 0.37858 0.9869 0.0
H1066 H 0.801 0.44239 0.00519 0.0
H1067 H 0.81912 0.36644 0.99461 0.0
H1068 H 0.74527 0.34781 0.01646 0.0
H1069 H 0.78812 0.36131 0.0156 0.0
H1070 H 0.76507 0.4291 0.99097 0.0
H1071 H 0.72253 0.41606 0.99252 0.0
C1072 C 0.83762 0.43521 0.99654 0.0
C1073 C 0.85481 0.41752 0.99118 0.0
C1074 C 0.81381 0.42823 0.00123 0.0
C1075 C 0.80648 0.40341 0.00042 0.0
C1076 C 0.82406 0.38565 0.99568 0.0
C1077 C 0.84794 0.39262 0.9912 0.0
C1078 C 0.74939 0.36576 0.01115 0.0
C1079 C 0.73049 0.3808 0.0045 0.0
C1080 C 0.77398 0.37345 0.01052 0.0
C1081 C 0.78023 0.39627 0.00309 0.0
C1082 C 0.76112 0.4116 0.99704 0.0
C1083 C 0.73661 0.40402 0.99782 0.0
H1084 H 0.6452 0.36591 0.24558 0.0
H1085 H 0.57146 0.34053 0.23392 0.0
H1086 H 0.65736 0.32432 0.25278 0.0
H1087 H 0.58285 0.29965 0.24313 0.0
H1088 H 0.61736 0.22465 0.23543 0.0
H1089 H 0.6032 0.26658 0.23247 0.0
H1090 H 0.65793 0.29007 0.27018 0.0
H1091 H 0.67321 0.24788 0.2721 0.0
C1092 C 0.63141 0.35162 0.24472 0.0
C1093 C 0.6074 0.35685 0.2387 0.0
C1094 C 0.63833 0.32763 0.24923 0.0
C1095 C 0.62128 0.30819 0.24831 0.0
C1096 C 0.59683 0.31379 0.24351 0.0
C1097 C 0.59009 0.33761 0.23854 0.0
C1098 C 0.62623 0.23872 0.24323 0.0
C1099 C 0.64645 0.23296 0.25397 0.0
C1100 C 0.61795 0.26292 0.24165 0.0
C1101 C 0.62925 0.28209 0.2511 0.0
C1102 C 0.64898 0.27607 0.26239 0.0
C1103 C 0.65765 0.25182 0.26365 0.0
H1104 H 0.07842 0.93199 0.38092 0.0
H1105 H 0.12781 0.88028 0.35676 0.0
H1106 H 0.09048 0.91668 0.40944 0.0
H1107 H 0.14024 0.86505 0.38532 0.0
H1108 H 0.14229 0.82903 0.43903 0.0
H1109 H 0.12882 0.84262 0.41012 0.0
H1110 H 0.12326 0.91722 0.42929 0.0
H1111 H 0.13556 0.90317 0.45817 0.0
C1112 C 0.09188 0.91732 0.38174 0.0
C1113 C 0.10218 0.90737 0.3666 0.0
C1114 C 0.09886 0.90852 0.39811 0.0
C1115 C 0.11642 0.88959 0.39979 0.0
C1116 C 0.12638 0.87935 0.38459 0.0
C1117 C 0.11929 0.88809 0.36819 0.0
C1118 C 0.13798 0.84826 0.43694 0.0
C1119 C 0.13906 0.86496 0.4508 0.0
C1120 C 0.13046 0.85614 0.4204 0.0
C1121 C 0.12463 0.88103 0.41733 0.0
C1122 C 0.12685 0.89782 0.43119 0.0
C1123 C 0.13397 0.88985 0.44774 0.0
H1124 H 0.14938 0.56702 0.62119 0.0
H1125 H 0.08785 0.61738 0.62282 0.0
H1126 H 0.16495 0.58401 0.64859 0.0
H1127 H 0.10323 0.63401 0.6502 0.0
H1128 H 0.12174 0.63349 0.7087 0.0
H1129 H 0.10773 0.61923 0.68024 0.0
H1130 H 0.18231 0.62303 0.66138 0.0
H1131 H 0.19628 0.6373 0.69018 0.0
C1132 C 0.13925 0.58177 0.62733 0.0
C1133 C 0.11723 0.59066 0.61988 0.0
C1134 C 0.14821 0.59153 0.64299 0.0
C1135 C 0.13528 0.6103 0.65155 0.0
C1136 C 0.11341 0.6193 0.64404 0.0
C1137 C 0.10453 0.60966 0.62839 0.0
C1138 C 0.1351 0.63123 0.69844 0.0
C1139 C 0.16012 0.6357 0.70162 0.0
C1140 C 0.12708 0.62332 0.68212 0.0
C1141 C 0.14395 0.61986 0.6686 0.0
C1142 C 0.16896 0.6252 0.67164 0.0
C1143 C 0.17695 0.63342 0.68801 0.0
H1144 H 0.46403 0.61463 0.88792 0.0
H1145 H 0.38983 0.60101 0.86997 0.0
H1146 H 0.44848 0.62394 0.91708 0.0
H1147 H 0.37423 0.61094 0.899 0.0
H1148 H 0.35974 0.65717 0.95027 0.0
H1149 H 0.37577 0.65153 0.92077 0.0
H1150 H 0.42362 0.59377 0.93945 0.0
H1151 H 0.40726 0.59876 0.96868 0.0
C1152 C 0.44441 0.61392 0.89021 0.0
C1153 C 0.42809 0.60701 0.87682 0.0
C1154 C 0.43555 0.61918 0.90682 0.0
C1155 C 0.4102 0.6182 0.91017 0.0
C1156 C 0.39383 0.61198 0.89665 0.0
C1157 C 0.40273 0.60617 0.88015 0.0
C1158 C 0.37374 0.64335 0.94807 0.0
C1159 C 0.38219 0.62838 0.96178 0.0
C1160 C 0.38281 0.6401 0.93123 0.0
C1161 C 0.40094 0.6223 0.92796 0.0
C1162 C 0.40977 0.60773 0.94171 0.0
C1163 C 0.4003 0.61054 0.9584 0.0
H1164 H 0.40306 0.90772 0.12157 0.0
H1165 H 0.4778 0.89083 0.13714 0.0
H1166 H 0.3891 0.89857 0.15093 0.0
H1167 H 0.4637 0.88044 0.1661 0.0
H1168 H 0.43713 0.89075 0.22068 0.0
H1169 H 0.44873 0.90099 0.19123 0.0
H1170 H 0.38306 0.86544 0.17159 0.0
H1171 H 0.37096 0.85569 0.20139 0.0
C1172 C 0.41653 0.90206 0.13124 0.0
C1173 C 0.44161 0.90018 0.12699 0.0
C1174 C 0.40845 0.8965 0.14801 0.0
C1175 C 0.42527 0.88889 0.16093 0.0
C1176 C 0.45027 0.88664 0.15658 0.0
C1177 C 0.45834 0.8923 0.13987 0.0
C1178 C 0.42505 0.8851 0.21013 0.0
C1179 C 0.40319 0.87216 0.21342 0.0
C1180 C 0.43182 0.89087 0.19318 0.0
C1181 C 0.41706 0.88371 0.17898 0.0
C1182 C 0.39481 0.87134 0.18224 0.0
C1183 C 0.3879 0.86568 0.1993 0.0
H1184 H 0.06926 0.63046 0.8723 0.0
H1185 H 0.11852 0.56829 0.87663 0.0
H1186 H 0.0865 0.64025 0.84384 0.0
H1187 H 0.13551 0.57796 0.84832 0.0
H1188 H 0.13804 0.58389 0.78957 0.0
H1189 H 0.12118 0.57661 0.81814 0.0
H1190 H 0.12534 0.65423 0.82956 0.0
H1191 H 0.14209 0.66179 0.80059 0.0
C1192 C 0.08382 0.61897 0.86723 0.0
C1193 C 0.09227 0.59839 0.87664 0.0
C1194 C 0.09372 0.62462 0.85096 0.0
C1195 C 0.11224 0.60978 0.84377 0.0
C1196 C 0.12093 0.58948 0.85333 0.0
C1197 C 0.1111 0.58388 0.86954 0.0
C1198 C 0.13547 0.59952 0.79809 0.0
C1199 C 0.1416 0.62346 0.79272 0.0
C1200 C 0.12587 0.59527 0.81456 0.0
C1201 C 0.12208 0.6148 0.82617 0.0
C1202 C 0.12793 0.63882 0.82084 0.0
C1203 C 0.13767 0.64311 0.80429 0.0
H1204 H 0.43201 0.57431 0.12177 0.0
H1205 H 0.37321 0.61374 0.14686 0.0
H1206 H 0.41795 0.58936 0.09367 0.0
H1207 H 0.35931 0.62945 0.11876 0.0
H1208 H 0.3267 0.63513 0.06384 0.0
H1209 H 0.33996 0.62024 0.09245 0.0
H1210 H 0.4158 0.62329 0.07581 0.0
H1211 H 0.40212 0.6366 0.0471 0.0
C1212 C 0.41613 0.58637 0.12124 0.0
C1213 C 0.4037 0.59284 0.13649 0.0
C1214 C 0.40803 0.59509 0.10511 0.0
C1215 C 0.38738 0.61069 0.10379 0.0
C1216 C 0.37495 0.61712 0.11912 0.0
C1217 C 0.38295 0.60819 0.13527 0.0
C1218 C 0.34615 0.63241 0.06643 0.0
C1219 C 0.36338 0.63612 0.05326 0.0
C1220 C 0.35384 0.62412 0.08283 0.0
C1221 C 0.37902 0.62021 0.08651 0.0
C1222 C 0.39624 0.62527 0.07342 0.0
C1223 C 0.38847 0.63303 0.05697 0.0
H1224 H 0.40126 0.94805 0.37834 0.0
H1225 H 0.43215 0.87732 0.39222 0.0
H1226 H 0.38763 0.93147 0.35071 0.0
H1227 H 0.42063 0.86142 0.36377 0.0
H1228 H 0.37583 0.83192 0.3182 0.0
H1229 H 0.38686 0.84827 0.3469 0.0
H1230 H 0.40075 0.91933 0.32366 0.0
H1231 H 0.38842 0.90312 0.29545 0.0
C1232 C 0.40526 0.92896 0.37553 0.0
C1233 C 0.41765 0.91404 0.38773 0.0
C1234 C 0.39778 0.91952 0.35946 0.0
C1235 C 0.40294 0.89502 0.35491 0.0
C1236 C 0.41585 0.88022 0.36691 0.0
C1237 C 0.42293 0.88954 0.38316 0.0
C1238 C 0.38122 0.85102 0.3194 0.0
C1239 C 0.38228 0.86611 0.30468 0.0
C1240 C 0.38773 0.86038 0.33576 0.0
C1241 C 0.3951 0.88509 0.33766 0.0
C1242 C 0.39503 0.90031 0.32286 0.0
C1243 C 0.38838 0.89097 0.30661 0.0
H1244 H 0.10718 0.94648 0.62067 0.0
H1245 H 0.09122 0.87098 0.63426 0.0
H1246 H 0.11886 0.93321 0.59156 0.0
H1247 H 0.10155 0.85824 0.60484 0.0
H1248 H 0.08913 0.8577 0.54391 0.0
H1249 H 0.08107 0.86964 0.57394 0.0
H1250 H 0.15315 0.90248 0.57766 0.0
H1251 H 0.16158 0.89002 0.54759 0.0
C1252 C 0.10629 0.92708 0.61759 0.0
C1253 C 0.09806 0.90988 0.62994 0.0
C1254 C 0.11292 0.91955 0.60087 0.0
C1255 C 0.11103 0.89475 0.59603 0.0
C1256 C 0.10295 0.87752 0.60826 0.0
C1257 C 0.0968 0.88493 0.62507 0.0
C1258 C 0.10333 0.86736 0.55114 0.0
C1259 C 0.12599 0.87294 0.54341 0.0
C1260 C 0.09873 0.87408 0.56833 0.0
C1261 C 0.11649 0.88697 0.57803 0.0
C1262 C 0.13916 0.89261 0.57037 0.0
C1263 C 0.144 0.88538 0.55325 0.0
H1264 H 0.62621 0.44814 0.87462 0.0
H1265 H 0.58977 0.37857 0.86578 0.0
H1266 H 0.64143 0.4333 0.90246 0.0
H1267 H 0.60328 0.36451 0.89426 0.0
H1268 H 0.64904 0.33608 0.93918 0.0
H1269 H 0.63804 0.3509 0.91007 0.0
H1270 H 0.62933 0.4244 0.9307 0.0
H1271 H 0.64144 0.40955 0.9594 0.0
C1272 C 0.62136 0.42969 0.87859 0.0
C1273 C 0.6068 0.41457 0.86781 0.0
C1274 C 0.62982 0.42128 0.89473 0.0
C1275 C 0.62367 0.39763 0.90067 0.0
C1276 C 0.6088 0.38265 0.89002 0.0
C1277 C 0.60063 0.39093 0.87377 0.0
C1278 C 0.64482 0.35538 0.93733 0.0
C1279 C 0.64496 0.37156 0.9515 0.0
C1280 C 0.63836 0.36389 0.92074 0.0
C1281 C 0.63228 0.38881 0.91803 0.0
C1282 C 0.63393 0.40514 0.93218 0.0
C1283 C 0.64045 0.39661 0.9487 0.0
H1284 H 0.57156 0.14132 0.13314 0.0
H1285 H 0.6257 0.08442 0.12455 0.0
H1286 H 0.59368 0.15421 0.15923 0.0
H1287 H 0.6481 0.0977 0.15067 0.0
H1288 H 0.69165 0.14553 0.19108 0.0
H1289 H 0.67188 0.1345 0.16318 0.0
H1290 H 0.60095 0.13508 0.18813 0.0
H1291 H 0.62062 0.146 0.21563 0.0
C1292 C 0.58809 0.13143 0.13688 0.0
C1293 C 0.59666 0.11161 0.12687 0.0
C1294 C 0.60083 0.13892 0.15177 0.0
C1295 C 0.62254 0.12689 0.157 0.0
C1296 C 0.63154 0.10746 0.14682 0.0
C1297 C 0.61868 0.09984 0.13191 0.0
C1298 C 0.67186 0.14327 0.19043 0.0
C1299 C 0.65761 0.14591 0.20543 0.0
C1300 C 0.66059 0.13691 0.17459 0.0
C1301 C 0.63489 0.1339 0.17352 0.0
C1302 C 0.62073 0.13747 0.1885 0.0
C1303 C 0.63199 0.14348 0.20426 0.0
H1304 H 0.89469 0.10359 0.36818 0.0
H1305 H 0.96751 0.12501 0.38504 0.0
H1306 H 0.87845 0.11452 0.39685 0.0
H1307 H 0.95138 0.13528 0.4139 0.0
H1308 H 0.91218 0.10787 0.46618 0.0
H1309 H 0.92912 0.10361 0.43708 0.0
H1310 H 0.87692 0.15693 0.4176 0.0
H1311 H 0.86029 0.16194 0.44704 0.0
C1312 C 0.90714 0.11071 0.37804 0.0
C1313 C 0.93232 0.11339 0.37453 0.0
C1314 C 0.89786 0.1171 0.39433 0.0
C1315 C 0.9137 0.12578 0.40747 0.0
C1316 C 0.93884 0.12868 0.40391 0.0
C1317 C 0.94804 0.12282 0.38749 0.0
C1318 C 0.90443 0.11891 0.45577 0.0
C1319 C 0.88489 0.13525 0.45889 0.0
C1320 C 0.91422 0.11652 0.43915 0.0
C1321 C 0.90431 0.12997 0.4252 0.0
C1322 C 0.88483 0.1464 0.42823 0.0
C1323 C 0.87541 0.14929 0.44502 0.0
H1324 H 0.8875 0.44213 0.62972 0.0
H1325 H 0.94438 0.38688 0.62547 0.0
H1326 H 0.87793 0.42731 0.65888 0.0
H1327 H 0.93509 0.37248 0.65465 0.0
H1328 H 0.93244 0.37528 0.71397 0.0
H1329 H 0.93959 0.38927 0.6845 0.0
H1330 H 0.8613 0.38993 0.67444 0.0
H1331 H 0.85392 0.37594 0.70421 0.0
C1332 C 0.89784 0.42673 0.63492 0.0
C1333 C 0.91687 0.41585 0.62527 0.0
C1334 C 0.89234 0.41826 0.65163 0.0
C1335 C 0.90584 0.39883 0.65908 0.0
C1336 C 0.92462 0.38776 0.64936 0.0
C1337 C 0.93002 0.3961 0.63266 0.0
C1338 C 0.91665 0.37838 0.70556 0.0
C1339 C 0.89256 0.3744 0.71152 0.0
C1340 C 0.92081 0.38627 0.68859 0.0
C1341 C 0.90103 0.39057 0.67713 0.0
C1342 C 0.8769 0.38688 0.68304 0.0
C1343 C 0.8727 0.37875 0.70005 0.0
H1344 H 0.62282 0.07672 0.38075 0.0
H1345 H 0.57115 0.13654 0.37421 0.0
H1346 H 0.6412 0.08667 0.35291 0.0
H1347 H 0.58974 0.14658 0.34623 0.0
H1348 H 0.64537 0.16959 0.30381 0.0
H1349 H 0.62856 0.16196 0.33277 0.0
H1350 H 0.62866 0.08392 0.32243 0.0
H1351 H 0.6456 0.0913 0.29389 0.0
C1352 C 0.61519 0.09185 0.37328 0.0
C1353 C 0.59527 0.10561 0.3796 0.0
C1354 C 0.62582 0.09762 0.35735 0.0
C1355 C 0.61683 0.11732 0.34731 0.0
C1356 C 0.59723 0.13144 0.35375 0.0
C1357 C 0.58654 0.12563 0.36974 0.0
C1358 C 0.64197 0.1508 0.30779 0.0
C1359 C 0.64692 0.13109 0.29649 0.0
C1360 C 0.63217 0.14646 0.32432 0.0
C1361 C 0.62734 0.12233 0.3299 0.0
C1362 C 0.63248 0.1027 0.31864 0.0
C1363 C 0.6421 0.107 0.30219 0.0
H1364 H 0.87168 0.11206 0.6433 0.0
H1365 H 0.93035 0.07241 0.61822 0.0
H1366 H 0.85852 0.12868 0.61529 0.0
H1367 H 0.91708 0.0885 0.5902 0.0
H1368 H 0.90333 0.13869 0.54464 0.0
H1369 H 0.91601 0.12359 0.57315 0.0
H1370 H 0.83966 0.12021 0.58852 0.0
H1371 H 0.82738 0.13674 0.56014 0.0
C1372 C 0.88154 0.10664 0.63173 0.0
C1373 C 0.90206 0.09097 0.63293 0.0
C1374 C 0.87397 0.11611 0.61564 0.0
C1375 C 0.88664 0.10996 0.60035 0.0
C1376 C 0.90701 0.094 0.60163 0.0
C1377 C 0.91465 0.0847 0.61771 0.0
C1378 C 0.88935 0.13463 0.55418 0.0
C1379 C 0.8644 0.13813 0.55018 0.0
C1380 C 0.89655 0.12587 0.5705 0.0
C1381 C 0.87888 0.12026 0.58318 0.0
C1382 C 0.85384 0.1245 0.57922 0.0
C1383 C 0.84672 0.13373 0.56294 0.0
H1384 H 0.89454 0.37157 0.89744 0.0
H1385 H 0.93906 0.42728 0.87314 0.0
H1386 H 0.88104 0.35715 0.86891 0.0
H1387 H 0.92605 0.41271 0.84464 0.0
H1388 H 0.88105 0.39729 0.79638 0.0
H1389 H 0.89297 0.41145 0.82529 0.0
H1390 H 0.89267 0.33622 0.84362 0.0
H1391 H 0.8794 0.32247 0.81471 0.0
C1392 C 0.90167 0.38053 0.88596 0.0
C1393 C 0.91784 0.40056 0.88752 0.0
C1394 C 0.894 0.37222 0.86958 0.0
C1395 C 0.90248 0.38364 0.85435 0.0
C1396 C 0.91882 0.4036 0.85599 0.0
C1397 C 0.92634 0.41199 0.87236 0.0
C1398 C 0.88364 0.38386 0.80665 0.0
C1399 C 0.88007 0.35878 0.80335 0.0
C1400 C 0.89057 0.39191 0.82321 0.0
C1401 C 0.89419 0.375 0.83685 0.0
C1402 C 0.88989 0.34985 0.83354 0.0
C1403 C 0.88251 0.34188 0.81699 0.0
H1404 H 0.5916 0.45368 0.119 0.0
H1405 H 0.61027 0.38081 0.1371 0.0
H1406 H 0.60145 0.44145 0.08926 0.0
H1407 H 0.61988 0.3685 0.10734 0.0
H1408 H 0.65948 0.36529 0.05425 0.0
H1409 H 0.65113 0.3781 0.08412 0.0
H1410 H 0.58362 0.41268 0.06695 0.0
H1411 H 0.59183 0.40001 0.0372 0.0
C1412 C 0.59789 0.43509 0.11662 0.0
C1413 C 0.60009 0.41818 0.13036 0.0
C1414 C 0.60336 0.42804 0.0996 0.0
C1415 C 0.61142 0.40401 0.09598 0.0
C1416 C 0.61389 0.38719 0.10975 0.0
C1417 C 0.60816 0.39416 0.12674 0.0
C1418 C 0.64288 0.37567 0.05684 0.0
C1419 C 0.62631 0.38155 0.04331 0.0
C1420 C 0.63806 0.38288 0.07395 0.0
C1421 C 0.61674 0.39641 0.07785 0.0
C1422 C 0.60031 0.40248 0.06432 0.0
C1423 C 0.60497 0.39505 0.04728 0.0
loop_
_geom_bond_atom_site_label_1
_geom_bond_atom_site_label_2
_geom_bond_distance
_geom_bond_site_symmetry_2
_ccdc_geom_bond_type
H0 C27 0.929 . S
N1 C26 1.433 . S
N1 C32 1.435 . S
N1 C38 1.423 . S
H2 C28 0.930 . S
H3 C31 0.931 . S
H4 C30 0.929 . S
H5 C33 0.930 . S
H6 C34 0.932 . S
H7 C37 0.929 . S
H8 C36 0.931 . S
H9 C39 0.929 . S
H10 C43 0.932 . S
H11 C40 0.931 . S
H12 C42 0.929 . S
H13 C45 0.929 . S
H14 C46 0.930 . S
H15 C48 0.929 . S
H16 C49 0.931 . S
H17 C51 0.930 . S
H18 C52 0.932 . S
H19 C54 0.931 . S
H20 C55 0.929 . S
H21 C57 0.929 . S
H22 C58 0.931 . S
H23 C60 0.929 . S
N24 C44 1.433 . S
N24 C50 1.435 . S
N24 C56 1.423 . S
H25 C61 0.932 . S
C26 N1 1.433 . S
C26 C27 1.363 . S
C26 C31 1.370 . S
C27 H0 0.929 . S
C27 C26 1.363 . S
C27 C28 1.385 . S
C28 H2 0.930 . S
C28 C27 1.385 . S
C28 C29 1.357 . S
C29 C28 1.357 . S
C29 C30 1.406 . S
C30 H4 0.929 . S
C30 C29 1.406 . S
C30 C31 1.391 . S
C31 H3 0.931 . S
C31 C26 1.370 . S
C31 C30 1.391 . S
C32 N1 1.435 . S
C32 C33 1.358 . S
C32 C37 1.371 . S
C33 H5 0.930 . S
C33 C32 1.358 . S
C33 C34 1.405 . S
C34 H6 0.932 . S
C34 C33 1.405 . S
C34 C35 1.383 . S
C35 C34 1.383 . S
C35 C36 1.393 . S
C36 H8 0.931 . S
C36 C35 1.393 . S
C36 C37 1.382 . S
C37 H7 0.929 . S
C37 C32 1.371 . S
C37 C36 1.382 . S
C38 N1 1.423 . S
C38 C39 1.362 . S
C38 C43 1.388 . S
C39 H9 0.929 . S
C39 C38 1.362 . S
C39 C40 1.376 1_565 S
C40 H11 0.931 . S
C40 C39 1.376 1_545 S
C40 C41 1.396 . S
C41 C40 1.396 . S
C41 C42 1.348 1_545 S
C41 C59 1.472 . S
C42 H12 0.929 . S
C42 C41 1.348 1_565 S
C42 C43 1.443 . S
C43 H10 0.932 . S
C43 C38 1.388 . S
C43 C42 1.443 . S
C44 N24 1.433 . S
C44 C45 1.363 . S
C44 C49 1.370 . S
C45 H13 0.929 . S
C45 C44 1.363 . S
C45 C46 1.385 . S
C46 H14 0.930 . S
C46 C45 1.385 . S
C46 C47 1.357 . S
C47 C46 1.357 . S
C47 C48 1.406 . S
C48 H15 0.929 . S
C48 C47 1.406 . S
C48 C49 1.391 . S
C49 H16 0.931 . S
C49 C44 1.370 . S
C49 C48 1.391 . S
C50 N24 1.435 . S
C50 C51 1.358 . S
C50 C55 1.371 . S
C51 H17 0.930 . S
C51 C50 1.358 . S
C51 C52 1.405 . S
C52 H18 0.932 . S
C52 C51 1.405 . S
C52 C53 1.383 . S
C53 C52 1.383 . S
C53 C54 1.393 . S
C54 H19 0.931 . S
C54 C53 1.393 . S
C54 C55 1.382 . S
C55 H20 0.929 . S
C55 C50 1.371 . S
C55 C54 1.382 . S
C56 N24 1.423 . S
C56 C57 1.362 . S
C56 C61 1.388 . S
C57 H21 0.929 . S
C57 C56 1.362 . S
C57 C58 1.376 1_655 S
C58 H22 0.931 . S
C58 C57 1.376 1_455 S
C58 C59 1.396 . S
C59 C41 1.472 . S
C59 C58 1.396 . S
C59 C60 1.348 1_455 S
C60 H23 0.929 . S
C60 C59 1.348 1_655 S
C60 C61 1.443 . S
C61 H25 0.932 . S
C61 C56 1.388 . S
C61 C60 1.443 . S
H62 C89 0.929 . S
N63 C88 1.433 . S
N63 C94 1.435 . S
N63 C100 1.423 . S
H64 C90 0.930 . S
H65 C93 0.931 . S
H66 C92 0.929 . S
H67 C95 0.930 . S
H68 C96 0.932 . S
H69 C99 0.929 . S
H70 C98 0.931 . S
H71 C101 0.925 1_455 S
H72 C105 0.932 . S
H73 C102 0.931 . S
H74 C104 0.929 . S
H75 C107 0.929 . S
H76 C108 0.930 . S
H77 C110 0.929 . S
H78 C111 0.931 . S
H79 C113 0.930 . S
H80 C114 0.932 . S
H81 C116 0.931 . S
H82 C117 0.929 . S
H83 C119 0.929 . S
H84 C120 0.931 . S
H85 C122 0.929 . S
N86 C106 1.433 . S
N86 C112 1.435 . S
N86 C118 1.423 . S
H87 C123 0.932 . S
C88 N63 1.433 . S
C88 C89 1.363 . S
C88 C93 1.370 . S
C89 H62 0.929 . S
C89 C88 1.363 . S
C89 C90 1.385 . S
C90 H64 0.930 . S
C90 C89 1.385 . S
C90 C91 1.357 . S
C91 C90 1.357 . S
C91 C92 1.406 . S
C92 H66 0.929 . S
C92 C91 1.406 . S
C92 C93 1.391 . S
C93 H65 0.931 . S
C93 C88 1.370 . S
C93 C92 1.391 . S
C94 N63 1.435 . S
C94 C95 1.358 . S
C94 C99 1.371 . S
C95 H67 0.930 . S
C95 C94 1.358 . S
C95 C96 1.405 . S
C96 H68 0.932 . S
C96 C95 1.405 . S
C96 C97 1.383 . S
C97 C96 1.383 . S
C97 C98 1.393 . S
C98 H70 0.931 . S
C98 C97 1.393 . S
C98 C99 1.382 . S
C99 H69 0.929 . S
C99 C94 1.371 . S
C99 C98 1.382 . S
C100 N63 1.423 . S
C100 C101 1.362 . S
C100 C105 1.388 . S
C101 H71 0.925 1_655 S
C101 C100 1.362 . S
C101 C102 1.376 1_655 S
C102 H73 0.931 . S
C102 C101 1.376 1_455 S
C102 C103 1.396 . S
C103 C102 1.396 . S
C103 C104 1.348 1_455 S
C103 C121 1.472 . S
C104 H74 0.929 . S
C104 C103 1.348 1_655 S
C104 C105 1.443 . S
C105 H72 0.932 . S
C105 C100 1.388 . S
C105 C104 1.443 . S
C106 N86 1.433 . S
C106 C107 1.363 . S
C106 C111 1.370 . S
C107 H75 0.929 . S
C107 C106 1.363 . S
C107 C108 1.385 . S
C108 H76 0.930 . S
C108 C107 1.385 . S
C108 C109 1.357 . S
C109 C108 1.357 . S
C109 C110 1.406 . S
C110 H77 0.929 . S
C110 C109 1.406 . S
C110 C111 1.391 . S
C111 H78 0.931 . S
C111 C106 1.370 . S
C111 C110 1.391 . S
C112 N86 1.435 . S
C112 C113 1.358 . S
C112 C117 1.371 . S
C113 H79 0.930 . S
C113 C112 1.358 . S
C113 C114 1.405 . S
C114 H80 0.932 . S
C114 C113 1.405 . S
C114 C115 1.383 . S
C115 C114 1.383 . S
C115 C116 1.393 . S
C116 H81 0.931 . S
C116 C115 1.393 . S
C116 C117 1.382 . S
C117 H82 0.929 . S
C117 C112 1.371 . S
C117 C116 1.382 . S
C118 N86 1.423 . S
C118 C119 1.362 . S
C118 C123 1.388 . S
C119 H83 0.929 . S
C119 C118 1.362 . S
C119 C120 1.376 . S
C120 H84 0.931 . S
C120 C119 1.376 . S
C120 C121 1.396 . S
C121 C103 1.472 . S
C121 C120 1.396 . S
C121 C122 1.348 . S
C122 H85 0.929 . S
C122 C121 1.348 . S
C122 C123 1.443 . S
C123 H87 0.932 . S
C123 C118 1.388 . S
C123 C122 1.443 . S
H124 C151 0.929 . S
N125 C150 1.433 . S
N125 C156 1.435 . S
N125 C162 1.423 . S
H126 C152 0.930 . S
H127 C155 0.931 . S
H128 C154 0.929 . S
H129 C157 0.930 . S
H130 C158 0.932 . S
H131 C161 0.929 . S
H132 C160 0.931 . S
H133 C163 0.929 . S
H134 C167 0.932 . S
H135 C164 0.931 . S
H136 C166 0.929 . S
H137 C169 0.929 . S
H138 C170 0.930 . S
H139 C172 0.929 . S
H140 C173 0.931 . S
H141 C175 0.930 . S
H142 C176 0.932 . S
H143 C178 0.931 . S
H144 C179 0.929 . S
H145 C181 0.929 . S
H146 C182 0.931 . S
H147 C184 0.929 . S
N148 C168 1.433 . S
N148 C174 1.435 . S
N148 C180 1.423 . S
H149 C185 0.932 . S
C150 N125 1.433 . S
C150 C151 1.363 . S
C150 C155 1.370 . S
C151 H124 0.929 . S
C151 C150 1.363 . S
C151 C152 1.385 . S
C152 H126 0.930 . S
C152 C151 1.385 . S
C152 C153 1.357 . S
C153 C152 1.357 . S
C153 C154 1.406 . S
C154 H128 0.929 . S
C154 C153 1.406 . S
C154 C155 1.391 . S
C155 H127 0.931 . S
C155 C150 1.370 . S
C155 C154 1.391 . S
C156 N125 1.435 . S
C156 C157 1.358 . S
C156 C161 1.371 . S
C157 H129 0.930 . S
C157 C156 1.358 . S
C157 C158 1.405 . S
C158 H130 0.932 . S
C158 C157 1.405 . S
C158 C159 1.383 . S
C159 C158 1.383 . S
C159 C160 1.393 . S
C160 H132 0.931 . S
C160 C159 1.393 . S
C160 C161 1.382 . S
C161 H131 0.929 . S
C161 C156 1.371 . S
C161 C160 1.382 . S
C162 N125 1.423 . S
C162 C163 1.362 . S
C162 C167 1.388 . S
C163 H133 0.929 . S
C163 C162 1.362 . S
C163 C164 1.376 . S
C164 H135 0.931 . S
C164 C163 1.376 . S
C164 C165 1.396 . S
C165 C164 1.396 . S
C165 C166 1.348 . S
C165 C183 1.472 . S
C166 H136 0.929 . S
C166 C165 1.348 . S
C166 C167 1.443 . S
C167 H134 0.932 . S
C167 C162 1.388 . S
C167 C166 1.443 . S
C168 N148 1.433 . S
C168 C169 1.363 . S
C168 C173 1.370 . S
C169 H137 0.929 . S
C169 C168 1.363 . S
C169 C170 1.385 . S
C170 H138 0.930 . S
C170 C169 1.385 . S
C170 C171 1.357 . S
C171 C170 1.357 . S
C171 C172 1.406 . S
C172 H139 0.929 . S
C172 C171 1.406 . S
C172 C173 1.391 . S
C173 H140 0.931 . S
C173 C168 1.370 . S
C173 C172 1.391 . S
C174 N148 1.435 . S
C174 C175 1.358 . S
C174 C179 1.371 . S
C175 H141 0.930 . S
C175 C174 1.358 . S
C175 C176 1.405 . S
C176 H142 0.932 . S
C176 C175 1.405 . S
C176 C177 1.383 . S
C177 C176 1.383 . S
C177 C178 1.393 . S
C178 H143 0.931 . S
C178 C177 1.393 . S
C178 C179 1.382 . S
C179 H144 0.929 . S
C179 C174 1.371 . S
C179 C178 1.382 . S
C180 N148 1.423 . S
C180 C181 1.362 . S
C180 C185 1.388 . S
C181 H145 0.929 . S
C181 C180 1.362 . S
C181 C182 1.376 . S
C182 H146 0.931 . S
C182 C181 1.376 . S
C182 C183 1.396 . S
C183 C165 1.472 . S
C183 C182 1.396 . S
C183 C184 1.348 . S
C184 H147 0.929 . S
C184 C183 1.348 . S
C184 C185 1.443 . S
C185 H149 0.932 . S
C185 C180 1.388 . S
C185 C184 1.443 . S
H186 C213 0.929 . S
N187 C212 1.433 . S
N187 C218 1.435 . S
N187 C224 1.423 . S
H188 C214 0.930 . S
H189 C217 0.931 . S
H190 C216 0.929 . S
H191 C219 0.930 . S
H192 C220 0.932 . S
H193 C223 0.929 . S
H194 C222 0.931 . S
H195 C225 0.929 . S
H196 C229 0.932 . S
H197 C226 0.931 . S
H198 C228 0.929 . S
H199 C231 0.929 . S
H200 C232 0.930 . S
H201 C234 0.929 . S
H202 C235 0.931 . S
H203 C237 0.930 . S
H204 C238 0.932 . S
H205 C240 0.931 . S
H206 C241 0.929 . S
H207 C243 0.929 . S
H208 C244 0.931 1_565 S
H209 C246 0.929 . S
N210 C230 1.433 . S
N210 C236 1.435 . S
N210 C242 1.423 . S
H211 C247 0.932 . S
C212 N187 1.433 . S
C212 C213 1.363 . S
C212 C217 1.370 . S
C213 H186 0.929 . S
C213 C212 1.363 . S
C213 C214 1.385 . S
C214 H188 0.930 . S
C214 C213 1.385 . S
C214 C215 1.357 . S
C215 C214 1.357 . S
C215 C216 1.406 . S
C216 H190 0.929 . S
C216 C215 1.406 . S
C216 C217 1.391 . S
C217 H189 0.931 . S
C217 C212 1.370 . S
C217 C216 1.391 . S
C218 N187 1.435 . S
C218 C219 1.358 . S
C218 C223 1.371 . S
C219 H191 0.930 . S
C219 C218 1.358 . S
C219 C220 1.405 . S
C220 H192 0.932 . S
C220 C219 1.405 . S
C220 C221 1.383 . S
C221 C220 1.383 . S
C221 C222 1.393 . S
C222 H194 0.931 . S
C222 C221 1.393 . S
C222 C223 1.382 . S
C223 H193 0.929 . S
C223 C218 1.371 . S
C223 C222 1.382 . S
C224 N187 1.423 . S
C224 C225 1.362 . S
C224 C229 1.388 . S
C225 H195 0.929 . S
C225 C224 1.362 . S
C225 C226 1.376 . S
C226 H197 0.931 . S
C226 C225 1.376 . S
C226 C227 1.396 . S
C227 C226 1.396 . S
C227 C228 1.348 . S
C227 C245 1.472 1_565 S
C228 H198 0.929 . S
C228 C227 1.348 . S
C228 C229 1.443 . S
C229 H196 0.932 . S
C229 C224 1.388 . S
C229 C228 1.443 . S
C230 N210 1.433 . S
C230 C231 1.363 . S
C230 C235 1.370 . S
C231 H199 0.929 . S
C231 C230 1.363 . S
C231 C232 1.385 . S
C232 H200 0.930 . S
C232 C231 1.385 . S
C232 C233 1.357 . S
C233 C232 1.357 . S
C233 C234 1.406 . S
C234 H201 0.929 . S
C234 C233 1.406 . S
C234 C235 1.391 . S
C235 H202 0.931 . S
C235 C230 1.370 . S
C235 C234 1.391 . S
C236 N210 1.435 . S
C236 C237 1.358 . S
C236 C241 1.371 . S
C237 H203 0.930 . S
C237 C236 1.358 . S
C237 C238 1.405 . S
C238 H204 0.932 . S
C238 C237 1.405 . S
C238 C239 1.383 . S
C239 C238 1.383 . S
C239 C240 1.393 . S
C240 H205 0.931 . S
C240 C239 1.393 . S
C240 C241 1.382 . S
C241 H206 0.929 . S
C241 C236 1.371 . S
C241 C240 1.382 . S
C242 N210 1.423 . S
C242 C243 1.362 . S
C242 C247 1.388 . S
C243 H207 0.929 . S
C243 C242 1.362 . S
C243 C244 1.376 . S
C244 H208 0.931 1_545 S
C244 C243 1.376 . S
C244 C245 1.396 . S
C245 C227 1.472 1_545 S
C245 C244 1.396 . S
C245 C246 1.348 . S
C246 H209 0.929 . S
C246 C245 1.348 . S
C246 C247 1.443 . S
C247 H211 0.932 . S
C247 C242 1.388 . S
C247 C246 1.443 . S
H248 C275 0.929 . S
N249 C274 1.433 . S
N249 C280 1.435 . S
N249 C286 1.423 . S
H250 C276 0.930 . S
H251 C279 0.931 . S
H252 C278 0.929 . S
H253 C281 0.930 . S
H254 C282 0.932 . S
H255 C285 0.929 . S
H256 C284 0.931 . S
H257 C287 0.929 . S
H258 C291 0.932 . S
H259 C288 0.931 . S
H260 C290 0.929 . S
H261 C293 0.929 . S
H262 C294 0.930 . S
H263 C296 0.929 . S
H264 C297 0.931 . S
H265 C299 0.930 . S
H266 C300 0.932 . S
H267 C302 0.931 . S
H268 C303 0.929 . S
H269 C305 0.929 . S
H270 C306 0.931 . S
H271 C308 0.929 . S
N272 C292 1.433 . S
N272 C298 1.435 . S
N272 C304 1.423 . S
H273 C309 0.932 . S
C274 N249 1.433 . S
C274 C275 1.363 . S
C274 C279 1.370 . S
C275 H248 0.929 . S
C275 C274 1.363 . S
C275 C276 1.385 . S
C276 H250 0.930 . S
C276 C275 1.385 . S
C276 C277 1.357 . S
C277 C276 1.357 . S
C277 C278 1.406 . S
C278 H252 0.929 . S
C278 C277 1.406 . S
C278 C279 1.391 . S
C279 H251 0.931 . S
C279 C274 1.370 . S
C279 C278 1.391 . S
C280 N249 1.435 . S
C280 C281 1.358 . S
C280 C285 1.371 . S
C281 H253 0.930 . S
C281 C280 1.358 . S
C281 C282 1.405 . S
C282 H254 0.932 . S
C282 C281 1.405 . S
C282 C283 1.383 . S
C283 C282 1.383 . S
C283 C284 1.393 . S
C284 H256 0.931 . S
C284 C283 1.393 . S
C284 C285 1.382 . S
C285 H255 0.929 . S
C285 C280 1.371 . S
C285 C284 1.382 . S
C286 N249 1.423 . S
C286 C287 1.362 . S
C286 C291 1.388 . S
C287 H257 0.929 . S
C287 C286 1.362 . S
C287 C288 1.376 . S
C288 H259 0.931 . S
C288 C287 1.376 . S
C288 C289 1.396 . S
C289 C288 1.396 . S
C289 C290 1.348 . S
C289 C307 1.472 . S
C290 H260 0.929 . S
C290 C289 1.348 . S
C290 C291 1.443 . S
C291 H258 0.932 . S
C291 C286 1.388 . S
C291 C290 1.443 . S
C292 N272 1.433 . S
C292 C293 1.363 . S
C292 C297 1.370 . S
C293 H261 0.929 . S
C293 C292 1.363 . S
C293 C294 1.385 . S
C294 H262 0.930 . S
C294 C293 1.385 . S
C294 C295 1.357 . S
C295 C294 1.357 . S
C295 C296 1.406 . S
C296 H263 0.929 . S
C296 C295 1.406 . S
C296 C297 1.391 . S
C297 H264 0.931 . S
C297 C292 1.370 . S
C297 C296 1.391 . S
C298 N272 1.435 . S
C298 C299 1.358 . S
C298 C303 1.371 . S
C299 H265 0.930 . S
C299 C298 1.358 . S
C299 C300 1.405 . S
C300 H266 0.932 . S
C300 C299 1.405 . S
C300 C301 1.383 . S
C301 C300 1.383 . S
C301 C302 1.393 . S
C302 H267 0.931 . S
C302 C301 1.393 . S
C302 C303 1.382 . S
C303 H268 0.929 . S
C303 C298 1.371 . S
C303 C302 1.382 . S
C304 N272 1.423 . S
C304 C305 1.362 . S
C304 C309 1.388 . S
C305 H269 0.929 . S
C305 C304 1.362 . S
C305 C306 1.376 1_655 S
C306 H270 0.931 . S
C306 C305 1.376 1_455 S
C306 C307 1.396 . S
C307 C289 1.472 . S
C307 C306 1.396 . S
C307 C308 1.348 1_455 S
C308 H271 0.929 . S
C308 C307 1.348 1_655 S
C308 C309 1.443 . S
C309 H273 0.932 . S
C309 C304 1.388 . S
C309 C308 1.443 . S
H310 C337 0.929 . S
N311 C336 1.433 . S
N311 C342 1.435 . S
N311 C348 1.423 . S
H312 C338 0.930 . S
H313 C341 0.931 . S
H314 C340 0.929 . S
H315 C343 0.930 . S
H316 C344 0.932 . S
H317 C347 0.929 . S
H318 C346 0.931 . S
H319 C349 0.929 . S
H320 C353 0.932 . S
H321 C350 0.931 . S
H322 C352 0.929 . S
H323 C355 0.929 . S
H324 C356 0.930 . S
H325 C358 0.929 . S
H326 C359 0.931 . S
H327 C361 0.930 . S
H328 C362 0.932 . S
H329 C364 0.931 . S
H330 C365 0.929 . S
H331 C367 0.929 . S
H332 C368 0.931 . S
H333 C370 0.929 . S
N334 C354 1.433 . S
N334 C360 1.435 . S
N334 C366 1.423 . S
H335 C371 0.932 . S
C336 N311 1.433 . S
C336 C337 1.363 . S
C336 C341 1.370 . S
C337 H310 0.929 . S
C337 C336 1.363 . S
C337 C338 1.385 . S
C338 H312 0.930 . S
C338 C337 1.385 . S
C338 C339 1.357 . S
C339 C338 1.357 . S
C339 C340 1.406 . S
C340 H314 0.929 . S
C340 C339 1.406 . S
C340 C341 1.391 . S
C341 H313 0.931 . S
C341 C336 1.370 . S
C341 C340 1.391 . S
C342 N311 1.435 . S
C342 C343 1.358 . S
C342 C347 1.371 . S
C343 H315 0.930 . S
C343 C342 1.358 . S
C343 C344 1.405 . S
C344 H316 0.932 . S
C344 C343 1.405 . S
C344 C345 1.383 . S
C345 C344 1.383 . S
C345 C346 1.393 . S
C346 H318 0.931 . S
C346 C345 1.393 . S
C346 C347 1.382 . S
C347 H317 0.929 . S
C347 C342 1.371 . S
C347 C346 1.382 . S
C348 N311 1.423 . S
C348 C349 1.362 . S
C348 C353 1.388 . S
C349 H319 0.929 . S
C349 C348 1.362 . S
C349 C350 1.376 . S
C350 H321 0.931 . S
C350 C349 1.376 . S
C350 C351 1.396 . S
C351 C350 1.396 . S
C351 C352 1.348 . S
C351 C369 1.472 . S
C352 H322 0.929 . S
C352 C351 1.348 . S
C352 C353 1.443 . S
C353 H320 0.932 . S
C353 C348 1.388 . S
C353 C352 1.443 . S
C354 N334 1.433 . S
C354 C355 1.363 . S
C354 C359 1.370 . S
C355 H323 0.929 . S
C355 C354 1.363 . S
C355 C356 1.385 . S
C356 H324 0.930 . S
C356 C355 1.385 . S
C356 C357 1.357 . S
C357 C356 1.357 . S
C357 C358 1.406 . S
C358 H325 0.929 . S
C358 C357 1.406 . S
C358 C359 1.391 . S
C359 H326 0.931 . S
C359 C354 1.370 . S
C359 C358 1.391 . S
C360 N334 1.435 . S
C360 C361 1.358 . S
C360 C365 1.371 . S
C361 H327 0.930 . S
C361 C360 1.358 . S
C361 C362 1.405 . S
C362 H328 0.932 . S
C362 C361 1.405 . S
C362 C363 1.383 . S
C363 C362 1.383 . S
C363 C364 1.393 . S
C364 H329 0.931 . S
C364 C363 1.393 . S
C364 C365 1.382 . S
C365 H330 0.929 . S
C365 C360 1.371 . S
C365 C364 1.382 . S
C366 N334 1.423 . S
C366 C367 1.362 . S
C366 C371 1.388 . S
C367 H331 0.929 . S
C367 C366 1.362 . S
C367 C368 1.376 . S
C368 H332 0.931 . S
C368 C367 1.376 . S
C368 C369 1.396 . S
C369 C351 1.472 . S
C369 C368 1.396 . S
C369 C370 1.348 . S
C370 H333 0.929 . S
C370 C369 1.348 . S
C370 C371 1.443 . S
C371 H335 0.932 . S
C371 C366 1.388 . S
C371 C370 1.443 . S
H372 C399 0.929 . S
N373 C398 1.433 . S
N373 C404 1.435 . S
N373 C410 1.423 . S
H374 C400 0.930 . S
H375 C403 0.931 . S
H376 C402 0.929 . S
H377 C405 0.930 . S
H378 C406 0.932 . S
H379 C409 0.929 . S
H380 C408 0.931 . S
H381 C411 0.929 . S
H382 C415 0.932 . S
H383 C412 0.931 . S
H384 C414 0.929 . S
H385 C417 0.929 . S
H386 C418 0.930 . S
H387 C420 0.929 . S
H388 C421 0.931 . S
H389 C423 0.930 . S
H390 C424 0.932 . S
H391 C426 0.931 . S
H392 C427 0.929 . S
H393 C429 0.929 . S
H394 C430 0.931 . S
H395 C432 0.929 . S
N396 C416 1.433 . S
N396 C422 1.435 . S
N396 C428 1.423 . S
H397 C433 0.932 . S
C398 N373 1.433 . S
C398 C399 1.363 . S
C398 C403 1.370 . S
C399 H372 0.929 . S
C399 C398 1.363 . S
C399 C400 1.385 . S
C400 H374 0.930 . S
C400 C399 1.385 . S
C400 C401 1.357 . S
C401 C400 1.357 . S
C401 C402 1.406 . S
C402 H376 0.929 . S
C402 C401 1.406 . S
C402 C403 1.391 . S
C403 H375 0.931 . S
C403 C398 1.370 . S
C403 C402 1.391 . S
C404 N373 1.435 . S
C404 C405 1.358 . S
C404 C409 1.371 . S
C405 H377 0.930 . S
C405 C404 1.358 . S
C405 C406 1.405 . S
C406 H378 0.932 . S
C406 C405 1.405 . S
C406 C407 1.383 . S
C407 C406 1.383 . S
C407 C408 1.393 . S
C408 H380 0.931 . S
C408 C407 1.393 . S
C408 C409 1.382 . S
C409 H379 0.929 . S
C409 C404 1.371 . S
C409 C408 1.382 . S
C410 N373 1.423 . S
C410 C411 1.362 . S
C410 C415 1.388 . S
C411 H381 0.929 . S
C411 C410 1.362 . S
C411 C412 1.376 1_565 S
C412 H383 0.931 . S
C412 C411 1.376 1_545 S
C412 C413 1.396 . S
C413 C412 1.396 . S
C413 C414 1.348 1_545 S
C413 C431 1.472 . S
C414 H384 0.929 . S
C414 C413 1.348 1_565 S
C414 C415 1.443 . S
C415 H382 0.932 . S
C415 C410 1.388 . S
C415 C414 1.443 . S
C416 N396 1.433 . S
C416 C417 1.363 . S
C416 C421 1.370 . S
C417 H385 0.929 . S
C417 C416 1.363 . S
C417 C418 1.385 . S
C418 H386 0.930 . S
C418 C417 1.385 . S
C418 C419 1.357 . S
C419 C418 1.357 . S
C419 C420 1.406 . S
C420 H387 0.929 . S
C420 C419 1.406 . S
C420 C421 1.391 . S
C421 H388 0.931 . S
C421 C416 1.370 . S
C421 C420 1.391 . S
C422 N396 1.435 . S
C422 C423 1.358 . S
C422 C427 1.371 . S
C423 H389 0.930 . S
C423 C422 1.358 . S
C423 C424 1.405 . S
C424 H390 0.932 . S
C424 C423 1.405 . S
C424 C425 1.383 . S
C425 C424 1.383 . S
C425 C426 1.393 . S
C426 H391 0.931 . S
C426 C425 1.393 . S
C426 C427 1.382 . S
C427 H392 0.929 . S
C427 C422 1.371 . S
C427 C426 1.382 . S
C428 N396 1.423 . S
C428 C429 1.362 . S
C428 C433 1.388 . S
C429 H393 0.929 . S
C429 C428 1.362 . S
C429 C430 1.376 . S
C430 H394 0.931 . S
C430 C429 1.376 . S
C430 C431 1.396 . S
C431 C413 1.472 . S
C431 C430 1.396 . S
C431 C432 1.348 . S
C432 H395 0.929 . S
C432 C431 1.348 . S
C432 C433 1.443 . S
C433 H397 0.932 . S
C433 C428 1.388 . S
C433 C432 1.443 . S
H434 C461 0.929 . S
N435 C460 1.433 . S
N435 C466 1.435 . S
N435 C472 1.423 . S
H436 C462 0.930 . S
H437 C465 0.931 . S
H438 C464 0.929 . S
H439 C467 0.930 . S
H440 C468 0.932 . S
H441 C471 0.929 . S
H442 C470 0.931 . S
H443 C473 0.929 . S
H444 C477 0.932 . S
H445 C474 0.934 . S
H446 C476 0.929 . S
H447 C479 0.929 . S
H448 C480 0.930 . S
H449 C482 0.929 . S
H450 C483 0.931 . S
H451 C485 0.930 . S
H452 C486 0.932 . S
H453 C488 0.931 . S
H454 C489 0.929 . S
H455 C491 0.929 . S
H456 C492 0.931 1_565 S
H457 C494 0.912 1_455 S
N458 C478 1.433 . S
N458 C484 1.435 . S
N458 C490 1.423 . S
H459 C495 0.932 . S
C460 N435 1.433 . S
C460 C461 1.363 . S
C460 C465 1.370 . S
C461 H434 0.929 . S
C461 C460 1.363 . S
C461 C462 1.385 . S
C462 H436 0.930 . S
C462 C461 1.385 . S
C462 C463 1.357 . S
C463 C462 1.357 . S
C463 C464 1.406 . S
C464 H438 0.929 . S
C464 C463 1.406 . S
C464 C465 1.391 . S
C465 H437 0.931 . S
C465 C460 1.370 . S
C465 C464 1.391 . S
C466 N435 1.435 . S
C466 C467 1.358 . S
C466 C471 1.371 . S
C467 H439 0.930 . S
C467 C466 1.358 . S
C467 C468 1.405 . S
C468 H440 0.932 . S
C468 C467 1.405 . S
C468 C469 1.383 . S
C469 C468 1.383 . S
C469 C470 1.393 . S
C470 H442 0.931 . S
C470 C469 1.393 . S
C470 C471 1.382 . S
C471 H441 0.929 . S
C471 C466 1.371 . S
C471 C470 1.382 . S
C472 N435 1.423 . S
C472 C473 1.362 . S
C472 C477 1.388 . S
C473 H443 0.929 . S
C473 C472 1.362 . S
C473 C474 1.374 1_455 S
C474 H445 0.934 . S
C474 C473 1.374 1_655 S
C474 C475 1.395 1_655 S
C475 C474 1.395 1_455 S
C475 C476 1.348 . S
C475 C493 1.472 1_465 S
C476 H446 0.929 . S
C476 C475 1.348 . S
C476 C477 1.443 . S
C477 H444 0.932 . S
C477 C472 1.388 . S
C477 C476 1.443 . S
C478 N458 1.433 . S
C478 C479 1.363 . S
C478 C483 1.370 . S
C479 H447 0.929 . S
C479 C478 1.363 . S
C479 C480 1.385 . S
C480 H448 0.930 . S
C480 C479 1.385 . S
C480 C481 1.357 . S
C481 C480 1.357 . S
C481 C482 1.406 . S
C482 H449 0.929 . S
C482 C481 1.406 . S
C482 C483 1.391 . S
C483 H450 0.931 . S
C483 C478 1.370 . S
C483 C482 1.391 . S
C484 N458 1.435 . S
C484 C485 1.358 . S
C484 C489 1.371 . S
C485 H451 0.930 . S
C485 C484 1.358 . S
C485 C486 1.405 . S
C486 H452 0.932 . S
C486 C485 1.405 . S
C486 C487 1.383 . S
C487 C486 1.383 . S
C487 C488 1.393 . S
C488 H453 0.931 . S
C488 C487 1.393 . S
C488 C489 1.382 . S
C489 H454 0.929 . S
C489 C484 1.371 . S
C489 C488 1.382 . S
C490 N458 1.423 . S
C490 C491 1.362 . S
C490 C495 1.388 . S
C491 H455 0.929 . S
C491 C490 1.362 . S
C491 C492 1.376 . S
C492 H456 0.931 1_545 S
C492 C491 1.376 . S
C492 C493 1.396 . S
C493 C475 1.472 1_645 S
C493 C492 1.396 . S
C493 C494 1.348 . S
C494 H457 0.912 1_655 S
C494 C493 1.348 . S
C494 C495 1.443 . S
C495 H459 0.932 . S
C495 C490 1.388 . S
C495 C494 1.443 . S
Mn496 O501 2.095 1_554 S
Mn496 O511 2.162 . S
Mn496 O512 2.297 . S
Mn496 O520 2.385 . S
Mn496 O521 2.209 . S
Mn496 O522 2.096 . S
Mn497 O502 2.093 1_554 S
Mn497 N504 2.267 . S
Mn497 N513 2.313 . S
Mn497 O521 2.234 . S
Mn497 O523 2.116 1_554 S
C498 O520 1.234 . S
C498 O521 1.283 . S
C499 O511 1.281 . S
C499 O512 1.236 . S
C500 O522 1.238 1_556 S
C500 O523 1.264 . S
O501 Mn496 2.095 1_556 S
O501 C510 1.250 . S
O502 Mn497 2.093 1_556 S
O502 C510 1.258 . S
C503 N504 1.313 1_556 S
C503 C507 1.453 1_556 S
C503 H509 0.949 . S
N504 Mn497 2.267 . S
N504 C503 1.313 1_554 S
N504 C508 1.362 . S
C505 C506 1.258 . S
C505 C508 1.431 . S
C505 C525 1.449 . S
C506 C505 1.258 . S
C506 C507 1.477 . S
C506 H526 0.931 . S
C507 C503 1.453 1_554 S
C507 C506 1.477 . S
C507 H527 0.901 1_554 S
C508 N504 1.362 . S
C508 C505 1.431 . S
C508 C518 1.476 . S
H509 C503 0.949 . S
C510 O501 1.250 . S
C510 O502 1.258 . S
O511 Mn496 2.162 . S
O511 C499 1.281 . S
O512 Mn496 2.297 . S
O512 C499 1.236 . S
N513 Mn497 2.313 . S
N513 C514 1.328 . S
N513 C518 1.318 . S
C514 N513 1.328 . S
C514 C515 1.457 . S
C514 H519 0.929 . S
C515 C514 1.457 . S
C515 C516 1.291 . S
C515 H528 0.931 . S
C516 C515 1.291 . S
C516 C517 1.373 . S
C516 H529 0.929 . S
C517 C516 1.373 . S
C517 C518 1.396 . S
C517 C524 1.403 . S
C518 C508 1.476 . S
C518 N513 1.318 . S
C518 C517 1.396 . S
H519 C514 0.929 . S
O520 Mn496 2.385 . S
O520 C498 1.234 . S
O521 Mn496 2.209 . S
O521 Mn497 2.234 . S
O521 C498 1.283 . S
O522 Mn496 2.096 . S
O522 C500 1.238 1_554 S
O523 Mn497 2.116 1_556 S
O523 C500 1.264 . S
C524 C517 1.403 . S
C524 C525 1.399 . S
C524 H530 0.929 . S
C525 C505 1.449 . S
C525 C524 1.399 . S
C525 H531 0.930 . S
H526 C506 0.931 . S
H527 C507 0.901 1_556 S
H528 C515 0.931 . S
H529 C516 0.929 . S
H530 C524 0.929 . S
H531 C525 0.930 . S
Mn532 O537 2.095 . S
Mn532 O547 2.162 . S
Mn532 O548 2.297 . S
Mn532 O556 2.385 . S
Mn532 O557 2.209 . S
Mn532 O558 2.094 . S
Mn533 O538 2.121 . S
Mn533 N540 2.257 . S
Mn533 N549 2.282 . S
Mn533 O557 2.215 . S
Mn533 O559 2.117 . S
C534 O556 1.234 . S
C534 O557 1.283 . S
C535 O547 1.281 . S
C535 O548 1.236 . S
C536 O558 1.240 . S
C536 O559 1.264 . S
O537 Mn532 2.095 . S
O537 C546 1.250 . S
O538 Mn533 2.121 . S
O538 C546 1.258 . S
C539 N540 1.326 . S
C539 C543 1.460 . S
C539 H545 0.929 . S
N540 Mn533 2.257 . S
N540 C539 1.326 . S
N540 C544 1.362 . S
C541 C542 1.258 . S
C541 C544 1.431 . S
C541 C561 1.449 . S
C542 C541 1.258 . S
C542 C543 1.477 . S
C542 H562 0.931 . S
C543 C539 1.460 . S
C543 C542 1.477 . S
C543 H563 0.930 . S
C544 N540 1.362 . S
C544 C541 1.431 . S
C544 C554 1.476 . S
H545 C539 0.929 . S
C546 O537 1.250 . S
C546 O538 1.258 . S
O547 Mn532 2.162 . S
O547 C535 1.281 . S
O548 Mn532 2.297 . S
O548 C535 1.236 . S
N549 Mn533 2.282 . S
N549 C550 1.328 . S
N549 C554 1.318 . S
C550 N549 1.328 . S
C550 C551 1.457 . S
C550 H555 0.929 . S
C551 C550 1.457 . S
C551 C552 1.291 . S
C551 H564 0.931 . S
C552 C551 1.291 . S
C552 C553 1.373 . S
C552 H565 0.929 . S
C553 C552 1.373 . S
C553 C554 1.396 . S
C553 C560 1.403 . S
C554 C544 1.476 . S
C554 N549 1.318 . S
C554 C553 1.396 . S
H555 C550 0.929 . S
O556 Mn532 2.385 . S
O556 C534 1.234 . S
O557 Mn532 2.209 . S
O557 Mn533 2.215 . S
O557 C534 1.283 . S
O558 Mn532 2.094 . S
O558 C536 1.240 . S
O559 Mn533 2.117 . S
O559 C536 1.264 . S
C560 C553 1.403 . S
C560 C561 1.399 . S
C560 H566 0.929 . S
C561 C541 1.449 . S
C561 C560 1.399 . S
C561 H567 0.930 . S
H562 C542 0.931 . S
H563 C543 0.930 . S
H564 C551 0.931 . S
H565 C552 0.929 . S
H566 C560 0.929 . S
H567 C561 0.930 . S
Mn568 O573 2.095 . S
Mn568 O583 2.162 . S
Mn568 O584 2.297 . S
Mn568 O592 2.385 . S
Mn568 O593 2.209 . S
Mn568 O594 2.094 . S
Mn569 O574 2.121 . S
Mn569 N576 2.257 . S
Mn569 N585 2.282 . S
Mn569 O593 2.215 . S
Mn569 O595 2.117 . S
C570 O592 1.234 . S
C570 O593 1.283 . S
C571 O583 1.281 . S
C571 O584 1.236 . S
C572 O594 1.240 . S
C572 O595 1.264 . S
O573 Mn568 2.095 . S
O573 C582 1.250 . S
O574 Mn569 2.121 . S
O574 C582 1.258 . S
C575 N576 1.326 . S
C575 C579 1.460 . S
C575 H581 0.929 . S
N576 Mn569 2.257 . S
N576 C575 1.326 . S
N576 C580 1.362 . S
C577 C578 1.258 . S
C577 C580 1.431 . S
C577 C597 1.449 . S
C578 C577 1.258 . S
C578 C579 1.477 . S
C578 H598 0.931 . S
C579 C575 1.460 . S
C579 C578 1.477 . S
C579 H599 0.930 . S
C580 N576 1.362 . S
C580 C577 1.431 . S
C580 C590 1.476 . S
H581 C575 0.929 . S
C582 O573 1.250 . S
C582 O574 1.258 . S
O583 Mn568 2.162 . S
O583 C571 1.281 . S
O584 Mn568 2.297 . S
O584 C571 1.236 . S
N585 Mn569 2.282 . S
N585 C586 1.328 . S
N585 C590 1.318 . S
C586 N585 1.328 . S
C586 C587 1.457 . S
C586 H591 0.929 . S
C587 C586 1.457 . S
C587 C588 1.291 . S
C587 H600 0.931 . S
C588 C587 1.291 . S
C588 C589 1.373 . S
C588 H601 0.929 . S
C589 C588 1.373 . S
C589 C590 1.396 . S
C589 C596 1.403 . S
C590 C580 1.476 . S
C590 N585 1.318 . S
C590 C589 1.396 . S
H591 C586 0.929 . S
O592 Mn568 2.385 . S
O592 C570 1.234 . S
O593 Mn568 2.209 . S
O593 Mn569 2.215 . S
O593 C570 1.283 . S
O594 Mn568 2.094 . S
O594 C572 1.240 . S
O595 Mn569 2.117 . S
O595 C572 1.264 . S
C596 C589 1.403 . S
C596 C597 1.399 . S
C596 H602 0.929 . S
C597 C577 1.449 . S
C597 C596 1.399 . S
C597 H603 0.930 . S
H598 C578 0.931 . S
H599 C579 0.930 . S
H600 C587 0.931 . S
H601 C588 0.929 . S
H602 C596 0.929 . S
H603 C597 0.930 . S
Mn604 O609 2.095 . S
Mn604 O619 2.162 . S
Mn604 O620 2.297 . S
Mn604 O628 2.385 . S
Mn604 O629 2.209 . S
Mn604 O630 2.094 . S
Mn605 O610 2.121 . S
Mn605 N612 2.257 . S
Mn605 N621 2.282 . S
Mn605 O629 2.215 . S
Mn605 O631 2.117 . S
C606 O628 1.234 . S
C606 O629 1.283 . S
C607 O619 1.281 . S
C607 O620 1.236 . S
C608 O630 1.240 . S
C608 O631 1.264 . S
O609 Mn604 2.095 . S
O609 C618 1.250 . S
O610 Mn605 2.121 . S
O610 C618 1.258 . S
C611 N612 1.326 . S
C611 C615 1.460 . S
C611 H617 0.929 . S
N612 Mn605 2.257 . S
N612 C611 1.326 . S
N612 C616 1.362 . S
C613 C614 1.258 . S
C613 C616 1.431 . S
C613 C633 1.449 . S
C614 C613 1.258 . S
C614 C615 1.477 . S
C614 H634 0.931 . S
C615 C611 1.460 . S
C615 C614 1.477 . S
C615 H635 0.930 . S
C616 N612 1.362 . S
C616 C613 1.431 . S
C616 C626 1.476 . S
H617 C611 0.929 . S
C618 O609 1.250 . S
C618 O610 1.258 . S
O619 Mn604 2.162 . S
O619 C607 1.281 . S
O620 Mn604 2.297 . S
O620 C607 1.236 . S
N621 Mn605 2.282 . S
N621 C622 1.328 . S
N621 C626 1.318 . S
C622 N621 1.328 . S
C622 C623 1.457 . S
C622 H627 0.929 . S
C623 C622 1.457 . S
C623 C624 1.291 . S
C623 H636 0.931 . S
C624 C623 1.291 . S
C624 C625 1.373 . S
C624 H637 0.929 . S
C625 C624 1.373 . S
C625 C626 1.396 . S
C625 C632 1.403 . S
C626 C616 1.476 . S
C626 N621 1.318 . S
C626 C625 1.396 . S
H627 C622 0.929 . S
O628 Mn604 2.385 . S
O628 C606 1.234 . S
O629 Mn604 2.209 . S
O629 Mn605 2.215 . S
O629 C606 1.283 . S
O630 Mn604 2.094 . S
O630 C608 1.240 . S
O631 Mn605 2.117 . S
O631 C608 1.264 . S
C632 C625 1.403 . S
C632 C633 1.399 . S
C632 H638 0.929 . S
C633 C613 1.449 . S
C633 C632 1.399 . S
C633 H639 0.930 . S
H634 C614 0.931 . S
H635 C615 0.930 . S
H636 C623 0.931 . S
H637 C624 0.929 . S
H638 C632 0.929 . S
H639 C633 0.930 . S
Mn640 O645 2.095 . S
Mn640 O655 2.162 . S
Mn640 O656 2.297 . S
Mn640 O664 2.385 . S
Mn640 O665 2.209 . S
Mn640 O666 2.094 . S
Mn641 O646 2.121 . S
Mn641 N648 2.257 . S
Mn641 N657 2.282 . S
Mn641 O665 2.215 . S
Mn641 O667 2.117 . S
C642 O664 1.234 . S
C642 O665 1.283 . S
C643 O655 1.281 . S
C643 O656 1.236 . S
C644 O666 1.240 . S
C644 O667 1.264 . S
O645 Mn640 2.095 . S
O645 C654 1.250 . S
O646 Mn641 2.121 . S
O646 C654 1.258 . S
C647 N648 1.326 . S
C647 C651 1.460 . S
C647 H653 0.929 . S
N648 Mn641 2.257 . S
N648 C647 1.326 . S
N648 C652 1.362 . S
C649 C650 1.258 . S
C649 C652 1.431 . S
C649 C669 1.449 . S
C650 C649 1.258 . S
C650 C651 1.477 . S
C650 H670 0.931 . S
C651 C647 1.460 . S
C651 C650 1.477 . S
C651 H671 0.930 . S
C652 N648 1.362 . S
C652 C649 1.431 . S
C652 C662 1.476 . S
H653 C647 0.929 . S
C654 O645 1.250 . S
C654 O646 1.258 . S
O655 Mn640 2.162 . S
O655 C643 1.281 . S
O656 Mn640 2.297 . S
O656 C643 1.236 . S
N657 Mn641 2.282 . S
N657 C658 1.328 . S
N657 C662 1.318 . S
C658 N657 1.328 . S
C658 C659 1.457 . S
C658 H663 0.929 . S
C659 C658 1.457 . S
C659 C660 1.291 . S
C659 H672 0.931 . S
C660 C659 1.291 . S
C660 C661 1.373 . S
C660 H673 0.929 . S
C661 C660 1.373 . S
C661 C662 1.396 . S
C661 C668 1.403 . S
C662 C652 1.476 . S
C662 N657 1.318 . S
C662 C661 1.396 . S
H663 C658 0.929 . S
O664 Mn640 2.385 . S
O664 C642 1.234 . S
O665 Mn640 2.209 . S
O665 Mn641 2.215 . S
O665 C642 1.283 . S
O666 Mn640 2.094 . S
O666 C644 1.240 . S
O667 Mn641 2.117 . S
O667 C644 1.264 . S
C668 C661 1.403 . S
C668 C669 1.399 . S
C668 H674 0.929 . S
C669 C649 1.449 . S
C669 C668 1.399 . S
C669 H675 0.930 . S
H670 C650 0.931 . S
H671 C651 0.930 . S
H672 C659 0.931 . S
H673 C660 0.929 . S
H674 C668 0.929 . S
H675 C669 0.930 . S
Mn676 O681 2.095 . S
Mn676 O691 2.162 . S
Mn676 O692 2.297 . S
Mn676 O700 2.385 . S
Mn676 O701 2.209 . S
Mn676 O702 2.094 . S
Mn677 O682 2.121 . S
Mn677 N684 2.257 . S
Mn677 N693 2.282 . S
Mn677 O701 2.215 . S
Mn677 O703 2.117 . S
C678 O700 1.234 . S
C678 O701 1.283 . S
C679 O691 1.281 . S
C679 O692 1.236 . S
C680 O702 1.240 . S
C680 O703 1.264 . S
O681 Mn676 2.095 . S
O681 C690 1.250 . S
O682 Mn677 2.121 . S
O682 C690 1.258 . S
C683 N684 1.326 . S
C683 C687 1.460 . S
C683 H689 0.929 . S
N684 Mn677 2.257 . S
N684 C683 1.326 . S
N684 C688 1.362 . S
C685 C686 1.258 . S
C685 C688 1.431 . S
C685 C705 1.449 . S
C686 C685 1.258 . S
C686 C687 1.477 . S
C686 H706 0.931 . S
C687 C683 1.460 . S
C687 C686 1.477 . S
C687 H707 0.930 . S
C688 N684 1.362 . S
C688 C685 1.431 . S
C688 C698 1.476 . S
H689 C683 0.929 . S
C690 O681 1.250 . S
C690 O682 1.258 . S
O691 Mn676 2.162 . S
O691 C679 1.281 . S
O692 Mn676 2.297 . S
O692 C679 1.236 . S
N693 Mn677 2.282 . S
N693 C694 1.328 . S
N693 C698 1.318 . S
C694 N693 1.328 . S
C694 C695 1.457 . S
C694 H699 0.929 . S
C695 C694 1.457 . S
C695 C696 1.291 . S
C695 H708 0.931 . S
C696 C695 1.291 . S
C696 C697 1.373 . S
C696 H709 0.929 . S
C697 C696 1.373 . S
C697 C698 1.396 . S
C697 C704 1.403 . S
C698 C688 1.476 . S
C698 N693 1.318 . S
C698 C697 1.396 . S
H699 C694 0.929 . S
O700 Mn676 2.385 . S
O700 C678 1.234 . S
O701 Mn676 2.209 . S
O701 Mn677 2.215 . S
O701 C678 1.283 . S
O702 Mn676 2.094 . S
O702 C680 1.240 . S
O703 Mn677 2.117 . S
O703 C680 1.264 . S
C704 C697 1.403 . S
C704 C705 1.399 . S
C704 H710 0.929 . S
C705 C685 1.449 . S
C705 C704 1.399 . S
C705 H711 0.930 . S
H706 C686 0.931 . S
H707 C687 0.930 . S
H708 C695 0.931 . S
H709 C696 0.929 . S
H710 C704 0.929 . S
H711 C705 0.930 . S
Mn712 O717 2.095 . S
Mn712 O727 2.162 . S
Mn712 O728 2.297 1_554 S
Mn712 O736 2.385 1_554 S
Mn712 O737 2.209 1_554 S
Mn712 O738 2.094 . S
Mn713 O718 2.121 . S
Mn713 N720 2.257 1_554 S
Mn713 N729 2.282 1_554 S
Mn713 O737 2.215 1_554 S
Mn713 O739 2.117 . S
C714 O736 1.234 . S
C714 O737 1.283 . S
C715 O727 1.283 . S
C715 O728 1.235 1_554 S
C716 O738 1.240 . S
C716 O739 1.264 . S
O717 Mn712 2.095 . S
O717 C726 1.250 . S
O718 Mn713 2.121 . S
O718 C726 1.258 . S
C719 N720 1.326 1_554 S
C719 C723 1.460 . S
C719 H725 0.929 . S
N720 Mn713 2.257 1_556 S
N720 C719 1.326 1_556 S
N720 C724 1.362 . S
C721 C722 1.258 . S
C721 C724 1.431 . S
C721 C741 1.449 . S
C722 C721 1.258 . S
C722 C723 1.477 1_556 S
C722 H742 0.931 . S
C723 C719 1.460 . S
C723 C722 1.477 1_554 S
C723 H743 0.930 . S
C724 N720 1.362 . S
C724 C721 1.431 . S
C724 C734 1.476 . S
H725 C719 0.929 . S
C726 O717 1.250 . S
C726 O718 1.258 . S
O727 Mn712 2.162 . S
O727 C715 1.283 . S
O728 Mn712 2.297 1_556 S
O728 C715 1.235 1_556 S
N729 Mn713 2.282 1_556 S
N729 C730 1.328 . S
N729 C734 1.318 . S
C730 N729 1.328 . S
C730 C731 1.457 . S
C730 H735 0.929 . S
C731 C730 1.457 . S
C731 C732 1.291 . S
C731 H744 0.931 . S
C732 C731 1.291 . S
C732 C733 1.373 . S
C732 H745 0.929 . S
C733 C732 1.373 . S
C733 C734 1.396 . S
C733 C740 1.403 . S
C734 C724 1.476 . S
C734 N729 1.318 . S
C734 C733 1.396 . S
H735 C730 0.929 . S
O736 Mn712 2.385 1_556 S
O736 C714 1.234 . S
O737 Mn712 2.209 1_556 S
O737 Mn713 2.215 1_556 S
O737 C714 1.283 . S
O738 Mn712 2.094 . S
O738 C716 1.240 . S
O739 Mn713 2.117 . S
O739 C716 1.264 . S
C740 C733 1.403 . S
C740 C741 1.399 . S
C740 H746 0.929 . S
C741 C721 1.449 . S
C741 C740 1.399 . S
C741 H747 0.930 . S
H742 C722 0.931 . S
H743 C723 0.930 . S
H744 C731 0.931 . S
H745 C732 0.929 . S
H746 C740 0.929 . S
H747 C741 0.930 . S
Mn748 O753 2.095 . S
Mn748 O763 2.162 . S
Mn748 O764 2.297 . S
Mn748 O772 2.385 . S
Mn748 O773 2.209 . S
Mn748 O774 2.094 . S
Mn749 O754 2.121 . S
Mn749 N756 2.257 . S
Mn749 N765 2.282 . S
Mn749 O773 2.215 . S
Mn749 O775 2.117 . S
C750 O772 1.234 . S
C750 O773 1.283 . S
C751 O763 1.281 . S
C751 O764 1.236 . S
C752 O774 1.240 . S
C752 O775 1.264 . S
O753 Mn748 2.095 . S
O753 C762 1.250 . S
O754 Mn749 2.121 . S
O754 C762 1.258 . S
C755 N756 1.326 . S
C755 C759 1.460 . S
C755 H761 0.929 . S
N756 Mn749 2.257 . S
N756 C755 1.326 . S
N756 C760 1.362 . S
C757 C758 1.258 . S
C757 C760 1.431 . S
C757 C777 1.449 . S
C758 C757 1.258 . S
C758 C759 1.477 . S
C758 H778 0.931 . S
C759 C755 1.460 . S
C759 C758 1.477 . S
C759 H779 0.930 . S
C760 N756 1.362 . S
C760 C757 1.431 . S
C760 C770 1.476 . S
H761 C755 0.929 . S
C762 O753 1.250 . S
C762 O754 1.258 . S
O763 Mn748 2.162 . S
O763 C751 1.281 . S
O764 Mn748 2.297 . S
O764 C751 1.236 . S
N765 Mn749 2.282 . S
N765 C766 1.328 . S
N765 C770 1.318 . S
C766 N765 1.328 . S
C766 C767 1.457 . S
C766 H771 0.929 . S
C767 C766 1.457 . S
C767 C768 1.291 . S
C767 H780 0.931 . S
C768 C767 1.291 . S
C768 C769 1.373 . S
C768 H781 0.929 . S
C769 C768 1.373 . S
C769 C770 1.396 . S
C769 C776 1.403 . S
C770 C760 1.476 . S
C770 N765 1.318 . S
C770 C769 1.396 . S
H771 C766 0.929 . S
O772 Mn748 2.385 . S
O772 C750 1.234 . S
O773 Mn748 2.209 . S
O773 Mn749 2.215 . S
O773 C750 1.283 . S
O774 Mn748 2.094 . S
O774 C752 1.240 . S
O775 Mn749 2.117 . S
O775 C752 1.264 . S
C776 C769 1.403 . S
C776 C777 1.399 . S
C776 H782 0.929 . S
C777 C757 1.449 . S
C777 C776 1.399 . S
C777 H783 0.930 . S
H778 C758 0.931 . S
H779 C759 0.930 . S
H780 C767 0.931 . S
H781 C768 0.929 . S
H782 C776 0.929 . S
H783 C777 0.930 . S
H784 C792 0.950 . S
H785 C797 0.950 . S
H786 C794 0.950 . S
H787 C796 0.950 . S
H788 C798 0.950 . S
H789 C800 0.950 . S
H790 C802 0.950 . S
H791 C803 0.950 . S
C792 H784 0.950 . S
C792 C793 1.386 . S
C792 C794 1.391 . S
C793 C792 1.386 . S
C793 C797 1.393 . S
C794 H786 0.950 . S
C794 C792 1.391 . S
C794 C795 1.400 . S
C795 C794 1.400 . S
C795 C796 1.398 . S
C795 C801 1.491 . S
C796 H787 0.950 . S
C796 C795 1.398 . S
C796 C797 1.391 . S
C797 H785 0.950 . S
C797 C793 1.393 . S
C797 C796 1.391 . S
C798 H788 0.950 . S
C798 C799 1.386 . S
C798 C800 1.391 . S
C799 C798 1.386 . S
C799 C803 1.393 . S
C800 H789 0.950 . S
C800 C798 1.391 . S
C800 C801 1.400 . S
C801 C795 1.491 . S
C801 C800 1.400 . S
C801 C802 1.398 . S
C802 H790 0.950 . S
C802 C801 1.398 . S
C802 C803 1.391 . S
C803 H791 0.950 . S
C803 C799 1.393 . S
C803 C802 1.391 . S
H804 C812 0.950 . S
H805 C817 0.950 . S
H806 C814 0.950 . S
H807 C816 0.950 . S
H808 C818 0.950 . S
H809 C820 0.950 . S
H810 C822 0.950 . S
H811 C823 0.950 . S
C812 H804 0.950 . S
C812 C813 1.386 . S
C812 C814 1.391 . S
C813 C812 1.386 . S
C813 C817 1.393 . S
C814 H806 0.950 . S
C814 C812 1.391 . S
C814 C815 1.400 . S
C815 C814 1.400 . S
C815 C816 1.398 . S
C815 C821 1.491 . S
C816 H807 0.950 . S
C816 C815 1.398 . S
C816 C817 1.391 . S
C817 H805 0.950 . S
C817 C813 1.393 . S
C817 C816 1.391 . S
C818 H808 0.950 . S
C818 C819 1.386 . S
C818 C820 1.391 . S
C819 C818 1.386 . S
C819 C823 1.393 . S
C820 H809 0.950 . S
C820 C818 1.391 . S
C820 C821 1.400 . S
C821 C815 1.491 . S
C821 C820 1.400 . S
C821 C822 1.398 . S
C822 H810 0.950 . S
C822 C821 1.398 . S
C822 C823 1.391 . S
C823 H811 0.950 . S
C823 C819 1.393 . S
C823 C822 1.391 . S
H824 C832 0.950 . S
H825 C837 0.950 . S
H826 C834 0.950 . S
H827 C836 0.950 . S
H828 C838 0.950 . S
H829 C840 0.950 . S
H830 C842 0.950 . S
H831 C843 0.950 . S
C832 H824 0.950 . S
C832 C833 1.386 . S
C832 C834 1.391 . S
C833 C832 1.386 . S
C833 C837 1.393 . S
C834 H826 0.950 . S
C834 C832 1.391 . S
C834 C835 1.400 . S
C835 C834 1.400 . S
C835 C836 1.398 . S
C835 C841 1.491 . S
C836 H827 0.950 . S
C836 C835 1.398 . S
C836 C837 1.391 . S
C837 H825 0.950 . S
C837 C833 1.393 . S
C837 C836 1.391 . S
C838 H828 0.950 . S
C838 C839 1.386 . S
C838 C840 1.391 . S
C839 C838 1.386 . S
C839 C843 1.393 . S
C840 H829 0.950 . S
C840 C838 1.391 . S
C840 C841 1.400 . S
C841 C835 1.491 . S
C841 C840 1.400 . S
C841 C842 1.398 . S
C842 H830 0.950 . S
C842 C841 1.398 . S
C842 C843 1.391 . S
C843 H831 0.950 . S
C843 C839 1.393 . S
C843 C842 1.391 . S
H844 C852 0.950 . S
H845 C857 0.950 . S
H846 C854 0.950 . S
H847 C856 0.950 . S
H848 C858 0.950 . S
H849 C860 0.950 . S
H850 C862 0.950 . S
H851 C863 0.950 . S
C852 H844 0.950 . S
C852 C853 1.386 . S
C852 C854 1.391 . S
C853 C852 1.386 . S
C853 C857 1.393 . S
C854 H846 0.950 . S
C854 C852 1.391 . S
C854 C855 1.400 . S
C855 C854 1.400 . S
C855 C856 1.398 . S
C855 C861 1.491 . S
C856 H847 0.950 . S
C856 C855 1.398 . S
C856 C857 1.391 . S
C857 H845 0.950 . S
C857 C853 1.393 . S
C857 C856 1.391 . S
C858 H848 0.950 . S
C858 C859 1.386 . S
C858 C860 1.391 . S
C859 C858 1.386 . S
C859 C863 1.393 . S
C860 H849 0.950 . S
C860 C858 1.391 . S
C860 C861 1.400 . S
C861 C855 1.491 . S
C861 C860 1.400 . S
C861 C862 1.398 . S
C862 H850 0.950 . S
C862 C861 1.398 . S
C862 C863 1.391 . S
C863 H851 0.950 . S
C863 C859 1.393 . S
C863 C862 1.391 . S
H864 C872 0.950 . S
H865 C877 0.950 . S
H866 C874 0.950 . S
H867 C876 0.950 . S
H868 C878 0.950 . S
H869 C880 0.950 . S
H870 C882 0.950 . S
H871 C883 0.950 . S
C872 H864 0.950 . S
C872 C873 1.386 . S
C872 C874 1.391 . S
C873 C872 1.386 . S
C873 C877 1.393 1_556 S
C874 H866 0.950 . S
C874 C872 1.391 . S
C874 C875 1.400 . S
C875 C874 1.400 . S
C875 C876 1.398 1_556 S
C875 C881 1.491 . S
C876 H867 0.950 . S
C876 C875 1.398 1_554 S
C876 C877 1.391 . S
C877 H865 0.950 . S
C877 C873 1.393 1_554 S
C877 C876 1.391 . S
C878 H868 0.950 . S
C878 C879 1.386 1_554 S
C878 C880 1.391 . S
C879 C878 1.386 1_556 S
C879 C883 1.393 . S
C880 H869 0.950 . S
C880 C878 1.391 . S
C880 C881 1.400 1_554 S
C881 C875 1.491 . S
C881 C880 1.400 1_556 S
C881 C882 1.398 . S
C882 H870 0.950 . S
C882 C881 1.398 . S
C882 C883 1.391 . S
C883 H871 0.950 . S
C883 C879 1.393 . S
C883 C882 1.391 . S
H884 C892 0.950 . S
H885 C897 0.950 . S
H886 C894 0.950 . S
H887 C896 0.950 . S
H888 C898 0.950 . S
H889 C900 0.950 . S
H890 C902 0.950 . S
H891 C903 0.950 . S
C892 H884 0.950 . S
C892 C893 1.386 . S
C892 C894 1.391 . S
C893 C892 1.386 . S
C893 C897 1.393 . S
C894 H886 0.950 . S
C894 C892 1.391 . S
C894 C895 1.400 . S
C895 C894 1.400 . S
C895 C896 1.398 . S
C895 C901 1.491 . S
C896 H887 0.950 . S
C896 C895 1.398 . S
C896 C897 1.391 . S
C897 H885 0.950 . S
C897 C893 1.393 . S
C897 C896 1.391 . S
C898 H888 0.950 . S
C898 C899 1.386 . S
C898 C900 1.391 . S
C899 C898 1.386 . S
C899 C903 1.393 . S
C900 H889 0.950 . S
C900 C898 1.391 . S
C900 C901 1.400 . S
C901 C895 1.491 . S
C901 C900 1.400 . S
C901 C902 1.398 . S
C902 H890 0.950 . S
C902 C901 1.398 . S
C902 C903 1.391 . S
C903 H891 0.950 . S
C903 C899 1.393 . S
C903 C902 1.391 . S
H904 C912 0.950 . S
H905 C917 0.950 . S
H906 C914 0.950 . S
H907 C916 0.950 . S
H908 C918 0.950 . S
H909 C920 0.950 . S
H910 C922 0.950 . S
H911 C923 0.950 . S
C912 H904 0.950 . S
C912 C913 1.386 . S
C912 C914 1.391 . S
C913 C912 1.386 . S
C913 C917 1.393 . S
C914 H906 0.950 . S
C914 C912 1.391 . S
C914 C915 1.400 . S
C915 C914 1.400 . S
C915 C916 1.398 . S
C915 C921 1.491 . S
C916 H907 0.950 . S
C916 C915 1.398 . S
C916 C917 1.391 . S
C917 H905 0.950 . S
C917 C913 1.393 . S
C917 C916 1.391 . S
C918 H908 0.950 . S
C918 C919 1.386 . S
C918 C920 1.391 . S
C919 C918 1.386 . S
C919 C923 1.393 . S
C920 H909 0.950 . S
C920 C918 1.391 . S
C920 C921 1.400 . S
C921 C915 1.491 . S
C921 C920 1.400 . S
C921 C922 1.398 . S
C922 H910 0.950 . S
C922 C921 1.398 . S
C922 C923 1.391 . S
C923 H911 0.950 . S
C923 C919 1.393 . S
C923 C922 1.391 . S
H924 C932 0.950 . S
H925 C937 0.950 . S
H926 C934 0.950 . S
H927 C936 0.950 . S
H928 C938 0.950 . S
H929 C940 0.950 . S
H930 C942 0.950 . S
H931 C943 0.950 . S
C932 H924 0.950 . S
C932 C933 1.386 . S
C932 C934 1.391 . S
C933 C932 1.386 . S
C933 C937 1.393 . S
C934 H926 0.950 . S
C934 C932 1.391 . S
C934 C935 1.400 . S
C935 C934 1.400 . S
C935 C936 1.398 . S
C935 C941 1.491 . S
C936 H927 0.950 . S
C936 C935 1.398 . S
C936 C937 1.391 . S
C937 H925 0.950 . S
C937 C933 1.393 . S
C937 C936 1.391 . S
C938 H928 0.950 . S
C938 C939 1.386 . S
C938 C940 1.391 . S
C939 C938 1.386 . S
C939 C943 1.393 . S
C940 H929 0.950 . S
C940 C938 1.391 . S
C940 C941 1.400 . S
C941 C935 1.491 . S
C941 C940 1.400 . S
C941 C942 1.398 . S
C942 H930 0.950 . S
C942 C941 1.398 . S
C942 C943 1.391 . S
C943 H931 0.950 . S
C943 C939 1.393 . S
C943 C942 1.391 . S
H944 C952 0.950 . S
H945 C957 0.950 . S
H946 C954 0.950 . S
H947 C956 0.950 . S
H948 C958 0.950 . S
H949 C960 0.950 . S
H950 C962 0.950 . S
H951 C963 0.950 . S
C952 H944 0.950 . S
C952 C953 1.386 . S
C952 C954 1.391 . S
C953 C952 1.386 . S
C953 C957 1.393 . S
C954 H946 0.950 . S
C954 C952 1.391 . S
C954 C955 1.400 . S
C955 C954 1.400 . S
C955 C956 1.398 . S
C955 C961 1.491 . S
C956 H947 0.950 . S
C956 C955 1.398 . S
C956 C957 1.391 . S
C957 H945 0.950 . S
C957 C953 1.393 . S
C957 C956 1.391 . S
C958 H948 0.950 . S
C958 C959 1.386 . S
C958 C960 1.391 . S
C959 C958 1.386 . S
C959 C963 1.393 . S
C960 H949 0.950 . S
C960 C958 1.391 . S
C960 C961 1.400 . S
C961 C955 1.491 . S
C961 C960 1.400 . S
C961 C962 1.398 . S
C962 H950 0.950 . S
C962 C961 1.398 . S
C962 C963 1.391 . S
C963 H951 0.950 . S
C963 C959 1.393 . S
C963 C962 1.391 . S
H964 C972 0.950 . S
H965 C977 0.950 . S
H966 C974 0.950 . S
H967 C976 0.950 . S
H968 C978 0.950 . S
H969 C980 0.950 . S
H970 C982 0.950 . S
H971 C983 0.950 . S
C972 H964 0.950 . S
C972 C973 1.386 . S
C972 C974 1.391 . S
C973 C972 1.386 . S
C973 C977 1.393 1_554 S
C974 H966 0.950 . S
C974 C972 1.391 . S
C974 C975 1.400 . S
C975 C974 1.400 . S
C975 C976 1.398 1_554 S
C975 C981 1.491 . S
C976 H967 0.950 . S
C976 C975 1.398 1_556 S
C976 C977 1.391 . S
C977 H965 0.950 . S
C977 C973 1.393 1_556 S
C977 C976 1.391 . S
C978 H968 0.950 . S
C978 C979 1.386 1_556 S
C978 C980 1.391 . S
C979 C978 1.386 1_554 S
C979 C983 1.393 . S
C980 H969 0.950 . S
C980 C978 1.391 . S
C980 C981 1.400 1_556 S
C981 C975 1.491 . S
C981 C980 1.400 1_554 S
C981 C982 1.398 . S
C982 H970 0.950 . S
C982 C981 1.398 . S
C982 C983 1.391 . S
C983 H971 0.950 . S
C983 C979 1.393 . S
C983 C982 1.391 . S
H984 C992 0.950 . S
H985 C997 0.950 . S
H986 C994 0.950 . S
H987 C996 0.950 . S
H988 C998 0.950 . S
H989 C1000 0.950 . S
H990 C1002 0.950 . S
H991 C1003 0.950 . S
C992 H984 0.950 . S
C992 C993 1.386 . S
C992 C994 1.391 . S
C993 C992 1.386 . S
C993 C997 1.393 . S
C994 H986 0.950 . S
C994 C992 1.391 . S
C994 C995 1.400 . S
C995 C994 1.400 . S
C995 C996 1.398 . S
C995 C1001 1.491 . S
C996 H987 0.950 . S
C996 C995 1.398 . S
C996 C997 1.391 . S
C997 H985 0.950 . S
C997 C993 1.393 . S
C997 C996 1.391 . S
C998 H988 0.950 . S
C998 C999 1.386 . S
C998 C1000 1.391 . S
C999 C998 1.386 . S
C999 C1003 1.393 . S
C1000 H989 0.950 . S
C1000 C998 1.391 . S
C1000 C1001 1.400 . S
C1001 C995 1.491 . S
C1001 C1000 1.400 . S
C1001 C1002 1.398 . S
C1002 H990 0.950 . S
C1002 C1001 1.398 . S
C1002 C1003 1.391 . S
C1003 H991 0.950 . S
C1003 C999 1.393 . S
C1003 C1002 1.391 . S
H1004 C1012 0.950 . S
H1005 C1017 0.950 . S
H1006 C1014 0.950 . S
H1007 C1016 0.950 . S
H1008 C1018 0.950 . S
H1009 C1020 0.950 . S
H1010 C1022 0.950 . S
H1011 C1023 0.950 . S
C1012 H1004 0.950 . S
C1012 C1013 1.386 . S
C1012 C1014 1.391 . S
C1013 C1012 1.386 . S
C1013 C1017 1.393 . S
C1014 H1006 0.950 . S
C1014 C1012 1.391 . S
C1014 C1015 1.400 . S
C1015 C1014 1.400 . S
C1015 C1016 1.398 . S
C1015 C1021 1.491 . S
C1016 H1007 0.950 . S
C1016 C1015 1.398 . S
C1016 C1017 1.391 . S
C1017 H1005 0.950 . S
C1017 C1013 1.393 . S
C1017 C1016 1.391 . S
C1018 H1008 0.950 . S
C1018 C1019 1.386 . S
C1018 C1020 1.391 . S
C1019 C1018 1.386 . S
C1019 C1023 1.393 . S
C1020 H1009 0.950 . S
C1020 C1018 1.391 . S
C1020 C1021 1.400 . S
C1021 C1015 1.491 . S
C1021 C1020 1.400 . S
C1021 C1022 1.398 . S
C1022 H1010 0.950 . S
C1022 C1021 1.398 . S
C1022 C1023 1.391 . S
C1023 H1011 0.950 . S
C1023 C1019 1.393 . S
C1023 C1022 1.391 . S
H1024 C1032 0.950 . S
H1025 C1037 0.950 . S
H1026 C1034 0.950 . S
H1027 C1036 0.950 . S
H1028 C1038 0.950 . S
H1029 C1040 0.950 . S
H1030 C1042 0.950 . S
H1031 C1043 0.950 . S
C1032 H1024 0.950 . S
C1032 C1033 1.386 . S
C1032 C1034 1.391 . S
C1033 C1032 1.386 . S
C1033 C1037 1.393 . S
C1034 H1026 0.950 . S
C1034 C1032 1.391 . S
C1034 C1035 1.400 . S
C1035 C1034 1.400 . S
C1035 C1036 1.398 . S
C1035 C1041 1.491 . S
C1036 H1027 0.950 . S
C1036 C1035 1.398 . S
C1036 C1037 1.391 . S
C1037 H1025 0.950 . S
C1037 C1033 1.393 . S
C1037 C1036 1.391 . S
C1038 H1028 0.950 . S
C1038 C1039 1.386 . S
C1038 C1040 1.391 . S
C1039 C1038 1.386 . S
C1039 C1043 1.393 . S
C1040 H1029 0.950 . S
C1040 C1038 1.391 . S
C1040 C1041 1.400 . S
C1041 C1035 1.491 . S
C1041 C1040 1.400 . S
C1041 C1042 1.398 . S
C1042 H1030 0.950 . S
C1042 C1041 1.398 . S
C1042 C1043 1.391 . S
C1043 H1031 0.950 . S
C1043 C1039 1.393 . S
C1043 C1042 1.391 . S
H1044 C1052 0.950 . S
H1045 C1057 0.950 . S
H1046 C1054 0.950 . S
H1047 C1056 0.950 . S
H1048 C1058 0.950 . S
H1049 C1060 0.950 . S
H1050 C1062 0.950 . S
H1051 C1063 0.950 . S
C1052 H1044 0.950 . S
C1052 C1053 1.386 . S
C1052 C1054 1.391 . S
C1053 C1052 1.386 . S
C1053 C1057 1.393 . S
C1054 H1046 0.950 . S
C1054 C1052 1.391 . S
C1054 C1055 1.400 . S
C1055 C1054 1.400 . S
C1055 C1056 1.398 . S
C1055 C1061 1.491 . S
C1056 H1047 0.950 . S
C1056 C1055 1.398 . S
C1056 C1057 1.391 . S
C1057 H1045 0.950 . S
C1057 C1053 1.393 . S
C1057 C1056 1.391 . S
C1058 H1048 0.950 . S
C1058 C1059 1.386 . S
C1058 C1060 1.391 . S
C1059 C1058 1.386 . S
C1059 C1063 1.393 . S
C1060 H1049 0.950 . S
C1060 C1058 1.391 . S
C1060 C1061 1.400 . S
C1061 C1055 1.491 . S
C1061 C1060 1.400 . S
C1061 C1062 1.398 . S
C1062 H1050 0.950 . S
C1062 C1061 1.398 . S
C1062 C1063 1.391 . S
C1063 H1051 0.950 . S
C1063 C1059 1.393 . S
C1063 C1062 1.391 . S
H1064 C1072 0.950 . S
H1065 C1077 0.962 . S
H1066 C1074 0.950 . S
H1067 C1076 0.950 . S
H1068 C1078 0.950 . S
H1069 C1080 0.950 . S
H1070 C1082 0.950 . S
H1071 C1083 0.950 . S
C1072 H1064 0.950 . S
C1072 C1073 1.386 . S
C1072 C1074 1.391 . S
C1073 C1072 1.386 . S
C1073 C1077 1.380 1_556 S
C1074 H1066 0.950 . S
C1074 C1072 1.391 . S
C1074 C1075 1.400 . S
C1075 C1074 1.400 . S
C1075 C1076 1.398 1_556 S
C1075 C1081 1.491 . S
C1076 H1067 0.950 . S
C1076 C1075 1.398 1_554 S
C1076 C1077 1.393 . S
C1077 H1065 0.962 . S
C1077 C1073 1.380 1_554 S
C1077 C1076 1.393 . S
C1078 H1068 0.950 . S
C1078 C1079 1.386 1_554 S
C1078 C1080 1.391 . S
C1079 C1078 1.386 1_556 S
C1079 C1083 1.393 . S
C1080 H1069 0.950 . S
C1080 C1078 1.391 . S
C1080 C1081 1.400 1_554 S
C1081 C1075 1.491 . S
C1081 C1080 1.400 1_556 S
C1081 C1082 1.398 . S
C1082 H1070 0.950 . S
C1082 C1081 1.398 . S
C1082 C1083 1.391 . S
C1083 H1071 0.950 . S
C1083 C1079 1.393 . S
C1083 C1082 1.391 . S
H1084 C1092 0.950 . S
H1085 C1097 0.950 . S
H1086 C1094 0.950 . S
H1087 C1096 0.950 . S
H1088 C1098 0.950 . S
H1089 C1100 0.950 . S
H1090 C1102 0.950 . S
H1091 C1103 0.950 . S
C1092 H1084 0.950 . S
C1092 C1093 1.386 . S
C1092 C1094 1.391 . S
C1093 C1092 1.386 . S
C1093 C1097 1.393 . S
C1094 H1086 0.950 . S
C1094 C1092 1.391 . S
C1094 C1095 1.400 . S
C1095 C1094 1.400 . S
C1095 C1096 1.398 . S
C1095 C1101 1.491 . S
C1096 H1087 0.950 . S
C1096 C1095 1.398 . S
C1096 C1097 1.391 . S
C1097 H1085 0.950 . S
C1097 C1093 1.393 . S
C1097 C1096 1.391 . S
C1098 H1088 0.950 . S
C1098 C1099 1.386 . S
C1098 C1100 1.391 . S
C1099 C1098 1.386 . S
C1099 C1103 1.393 . S
C1100 H1089 0.950 . S
C1100 C1098 1.391 . S
C1100 C1101 1.400 . S
C1101 C1095 1.491 . S
C1101 C1100 1.400 . S
C1101 C1102 1.398 . S
C1102 H1090 0.950 . S
C1102 C1101 1.398 . S
C1102 C1103 1.391 . S
C1103 H1091 0.950 . S
C1103 C1099 1.393 . S
C1103 C1102 1.391 . S
H1104 C1112 0.950 . S
H1105 C1117 0.950 . S
H1106 C1114 0.950 . S
H1107 C1116 0.950 . S
H1108 C1118 0.950 . S
H1109 C1120 0.950 . S
H1110 C1122 0.950 . S
H1111 C1123 0.950 . S
C1112 H1104 0.950 . S
C1112 C1113 1.386 . S
C1112 C1114 1.391 . S
C1113 C1112 1.386 . S
C1113 C1117 1.393 . S
C1114 H1106 0.950 . S
C1114 C1112 1.391 . S
C1114 C1115 1.400 . S
C1115 C1114 1.400 . S
C1115 C1116 1.398 . S
C1115 C1121 1.491 . S
C1116 H1107 0.950 . S
C1116 C1115 1.398 . S
C1116 C1117 1.391 . S
C1117 H1105 0.950 . S
C1117 C1113 1.393 . S
C1117 C1116 1.391 . S
C1118 H1108 0.950 . S
C1118 C1119 1.386 . S
C1118 C1120 1.391 . S
C1119 C1118 1.386 . S
C1119 C1123 1.393 . S
C1120 H1109 0.950 . S
C1120 C1118 1.391 . S
C1120 C1121 1.400 . S
C1121 C1115 1.491 . S
C1121 C1120 1.400 . S
C1121 C1122 1.398 . S
C1122 H1110 0.950 . S
C1122 C1121 1.398 . S
C1122 C1123 1.391 . S
C1123 H1111 0.950 . S
C1123 C1119 1.393 . S
C1123 C1122 1.391 . S
H1124 C1132 0.950 . S
H1125 C1137 0.950 . S
H1126 C1134 0.950 . S
H1127 C1136 0.950 . S
H1128 C1138 0.950 . S
H1129 C1140 0.950 . S
H1130 C1142 0.950 . S
H1131 C1143 0.950 . S
C1132 H1124 0.950 . S
C1132 C1133 1.386 . S
C1132 C1134 1.391 . S
C1133 C1132 1.386 . S
C1133 C1137 1.393 . S
C1134 H1126 0.950 . S
C1134 C1132 1.391 . S
C1134 C1135 1.400 . S
C1135 C1134 1.400 . S
C1135 C1136 1.398 . S
C1135 C1141 1.491 . S
C1136 H1127 0.950 . S
C1136 C1135 1.398 . S
C1136 C1137 1.391 . S
C1137 H1125 0.950 . S
C1137 C1133 1.393 . S
C1137 C1136 1.391 . S
C1138 H1128 0.950 . S
C1138 C1139 1.386 . S
C1138 C1140 1.391 . S
C1139 C1138 1.386 . S
C1139 C1143 1.393 . S
C1140 H1129 0.950 . S
C1140 C1138 1.391 . S
C1140 C1141 1.400 . S
C1141 C1135 1.491 . S
C1141 C1140 1.400 . S
C1141 C1142 1.398 . S
C1142 H1130 0.950 . S
C1142 C1141 1.398 . S
C1142 C1143 1.391 . S
C1143 H1131 0.950 . S
C1143 C1139 1.393 . S
C1143 C1142 1.391 . S
H1144 C1152 0.950 . S
H1145 C1157 0.950 . S
H1146 C1154 0.950 . S
H1147 C1156 0.950 . S
H1148 C1158 0.950 . S
H1149 C1160 0.950 . S
H1150 C1162 0.950 . S
H1151 C1163 0.950 . S
C1152 H1144 0.950 . S
C1152 C1153 1.386 . S
C1152 C1154 1.391 . S
C1153 C1152 1.386 . S
C1153 C1157 1.393 . S
C1154 H1146 0.950 . S
C1154 C1152 1.391 . S
C1154 C1155 1.400 . S
C1155 C1154 1.400 . S
C1155 C1156 1.398 . S
C1155 C1161 1.491 . S
C1156 H1147 0.950 . S
C1156 C1155 1.398 . S
C1156 C1157 1.391 . S
C1157 H1145 0.950 . S
C1157 C1153 1.393 . S
C1157 C1156 1.391 . S
C1158 H1148 0.950 . S
C1158 C1159 1.386 . S
C1158 C1160 1.391 . S
C1159 C1158 1.386 . S
C1159 C1163 1.393 . S
C1160 H1149 0.950 . S
C1160 C1158 1.391 . S
C1160 C1161 1.400 . S
C1161 C1155 1.491 . S
C1161 C1160 1.400 . S
C1161 C1162 1.398 . S
C1162 H1150 0.950 . S
C1162 C1161 1.398 . S
C1162 C1163 1.391 . S
C1163 H1151 0.950 . S
C1163 C1159 1.393 . S
C1163 C1162 1.391 . S
H1164 C1172 0.950 . S
H1165 C1177 0.950 . S
H1166 C1174 0.950 . S
H1167 C1176 0.950 . S
H1168 C1178 0.950 . S
H1169 C1180 0.950 . S
H1170 C1182 0.950 . S
H1171 C1183 0.950 . S
C1172 H1164 0.950 . S
C1172 C1173 1.386 . S
C1172 C1174 1.391 . S
C1173 C1172 1.386 . S
C1173 C1177 1.393 . S
C1174 H1166 0.950 . S
C1174 C1172 1.391 . S
C1174 C1175 1.400 . S
C1175 C1174 1.400 . S
C1175 C1176 1.398 . S
C1175 C1181 1.491 . S
C1176 H1167 0.950 . S
C1176 C1175 1.398 . S
C1176 C1177 1.391 . S
C1177 H1165 0.950 . S
C1177 C1173 1.393 . S
C1177 C1176 1.391 . S
C1178 H1168 0.950 . S
C1178 C1179 1.386 . S
C1178 C1180 1.391 . S
C1179 C1178 1.386 . S
C1179 C1183 1.393 . S
C1180 H1169 0.950 . S
C1180 C1178 1.391 . S
C1180 C1181 1.400 . S
C1181 C1175 1.491 . S
C1181 C1180 1.400 . S
C1181 C1182 1.398 . S
C1182 H1170 0.950 . S
C1182 C1181 1.398 . S
C1182 C1183 1.391 . S
C1183 H1171 0.950 . S
C1183 C1179 1.393 . S
C1183 C1182 1.391 . S
H1184 C1192 0.950 . S
H1185 C1197 0.950 . S
H1186 C1194 0.950 . S
H1187 C1196 0.950 . S
H1188 C1198 0.950 . S
H1189 C1200 0.950 . S
H1190 C1202 0.950 . S
H1191 C1203 0.950 . S
C1192 H1184 0.950 . S
C1192 C1193 1.386 . S
C1192 C1194 1.391 . S
C1193 C1192 1.386 . S
C1193 C1197 1.393 . S
C1194 H1186 0.950 . S
C1194 C1192 1.391 . S
C1194 C1195 1.400 . S
C1195 C1194 1.400 . S
C1195 C1196 1.398 . S
C1195 C1201 1.491 . S
C1196 H1187 0.950 . S
C1196 C1195 1.398 . S
C1196 C1197 1.391 . S
C1197 H1185 0.950 . S
C1197 C1193 1.393 . S
C1197 C1196 1.391 . S
C1198 H1188 0.950 . S
C1198 C1199 1.386 . S
C1198 C1200 1.391 . S
C1199 C1198 1.386 . S
C1199 C1203 1.393 . S
C1200 H1189 0.950 . S
C1200 C1198 1.391 . S
C1200 C1201 1.400 . S
C1201 C1195 1.491 . S
C1201 C1200 1.400 . S
C1201 C1202 1.398 . S
C1202 H1190 0.950 . S
C1202 C1201 1.398 . S
C1202 C1203 1.391 . S
C1203 H1191 0.950 . S
C1203 C1199 1.393 . S
C1203 C1202 1.391 . S
H1204 C1212 0.950 . S
H1205 C1217 0.950 . S
H1206 C1214 0.950 . S
H1207 C1216 0.950 . S
H1208 C1218 0.950 . S
H1209 C1220 0.950 . S
H1210 C1222 0.950 . S
H1211 C1223 0.950 . S
C1212 H1204 0.950 . S
C1212 C1213 1.386 . S
C1212 C1214 1.391 . S
C1213 C1212 1.386 . S
C1213 C1217 1.393 . S
C1214 H1206 0.950 . S
C1214 C1212 1.391 . S
C1214 C1215 1.400 . S
C1215 C1214 1.400 . S
C1215 C1216 1.398 . S
C1215 C1221 1.491 . S
C1216 H1207 0.950 . S
C1216 C1215 1.398 . S
C1216 C1217 1.391 . S
C1217 H1205 0.950 . S
C1217 C1213 1.393 . S
C1217 C1216 1.391 . S
C1218 H1208 0.950 . S
C1218 C1219 1.386 . S
C1218 C1220 1.391 . S
C1219 C1218 1.386 . S
C1219 C1223 1.393 . S
C1220 H1209 0.950 . S
C1220 C1218 1.391 . S
C1220 C1221 1.400 . S
C1221 C1215 1.491 . S
C1221 C1220 1.400 . S
C1221 C1222 1.398 . S
C1222 H1210 0.950 . S
C1222 C1221 1.398 . S
C1222 C1223 1.391 . S
C1223 H1211 0.950 . S
C1223 C1219 1.393 . S
C1223 C1222 1.391 . S
H1224 C1232 0.950 . S
H1225 C1237 0.950 . S
H1226 C1234 0.950 . S
H1227 C1236 0.950 . S
H1228 C1238 0.950 . S
H1229 C1240 0.950 . S
H1230 C1242 0.950 . S
H1231 C1243 0.950 . S
C1232 H1224 0.950 . S
C1232 C1233 1.386 . S
C1232 C1234 1.391 . S
C1233 C1232 1.386 . S
C1233 C1237 1.393 . S
C1234 H1226 0.950 . S
C1234 C1232 1.391 . S
C1234 C1235 1.400 . S
C1235 C1234 1.400 . S
C1235 C1236 1.398 . S
C1235 C1241 1.491 . S
C1236 H1227 0.950 . S
C1236 C1235 1.398 . S
C1236 C1237 1.391 . S
C1237 H1225 0.950 . S
C1237 C1233 1.393 . S
C1237 C1236 1.391 . S
C1238 H1228 0.950 . S
C1238 C1239 1.386 . S
C1238 C1240 1.391 . S
C1239 C1238 1.386 . S
C1239 C1243 1.393 . S
C1240 H1229 0.950 . S
C1240 C1238 1.391 . S
C1240 C1241 1.400 . S
C1241 C1235 1.491 . S
C1241 C1240 1.400 . S
C1241 C1242 1.398 . S
C1242 H1230 0.950 . S
C1242 C1241 1.398 . S
C1242 C1243 1.391 . S
C1243 H1231 0.950 . S
C1243 C1239 1.393 . S
C1243 C1242 1.391 . S
H1244 C1252 0.950 . S
H1245 C1257 0.950 . S
H1246 C1254 0.950 . S
H1247 C1256 0.950 . S
H1248 C1258 0.950 . S
H1249 C1260 0.950 . S
H1250 C1262 0.950 . S
H1251 C1263 0.950 . S
C1252 H1244 0.950 . S
C1252 C1253 1.386 . S
C1252 C1254 1.391 . S
C1253 C1252 1.386 . S
C1253 C1257 1.393 . S
C1254 H1246 0.950 . S
C1254 C1252 1.391 . S
C1254 C1255 1.400 . S
C1255 C1254 1.400 . S
C1255 C1256 1.398 . S
C1255 C1261 1.491 . S
C1256 H1247 0.950 . S
C1256 C1255 1.398 . S
C1256 C1257 1.391 . S
C1257 H1245 0.950 . S
C1257 C1253 1.393 . S
C1257 C1256 1.391 . S
C1258 H1248 0.950 . S
C1258 C1259 1.386 . S
C1258 C1260 1.391 . S
C1259 C1258 1.386 . S
C1259 C1263 1.393 . S
C1260 H1249 0.950 . S
C1260 C1258 1.391 . S
C1260 C1261 1.400 . S
C1261 C1255 1.491 . S
C1261 C1260 1.400 . S
C1261 C1262 1.398 . S
C1262 H1250 0.950 . S
C1262 C1261 1.398 . S
C1262 C1263 1.391 . S
C1263 H1251 0.950 . S
C1263 C1259 1.393 . S
C1263 C1262 1.391 . S
H1264 C1272 0.950 . S
H1265 C1277 0.950 . S
H1266 C1274 0.950 . S
H1267 C1276 0.950 . S
H1268 C1278 0.950 . S
H1269 C1280 0.950 . S
H1270 C1282 0.950 . S
H1271 C1283 0.950 . S
C1272 H1264 0.950 . S
C1272 C1273 1.386 . S
C1272 C1274 1.391 . S
C1273 C1272 1.386 . S
C1273 C1277 1.393 . S
C1274 H1266 0.950 . S
C1274 C1272 1.391 . S
C1274 C1275 1.400 . S
C1275 C1274 1.400 . S
C1275 C1276 1.398 . S
C1275 C1281 1.491 . S
C1276 H1267 0.950 . S
C1276 C1275 1.398 . S
C1276 C1277 1.391 . S
C1277 H1265 0.950 . S
C1277 C1273 1.393 . S
C1277 C1276 1.391 . S
C1278 H1268 0.950 . S
C1278 C1279 1.386 . S
C1278 C1280 1.391 . S
C1279 C1278 1.386 . S
C1279 C1283 1.393 . S
C1280 H1269 0.950 . S
C1280 C1278 1.391 . S
C1280 C1281 1.400 . S
C1281 C1275 1.491 . S
C1281 C1280 1.400 . S
C1281 C1282 1.398 . S
C1282 H1270 0.950 . S
C1282 C1281 1.398 . S
C1282 C1283 1.391 . S
C1283 H1271 0.950 . S
C1283 C1279 1.393 . S
C1283 C1282 1.391 . S
H1284 C1292 0.950 . S
H1285 C1297 0.950 . S
H1286 C1294 0.950 . S
H1287 C1296 0.950 . S
H1288 C1298 0.950 . S
H1289 C1300 0.950 . S
H1290 C1302 0.950 . S
H1291 C1303 0.950 . S
C1292 H1284 0.950 . S
C1292 C1293 1.386 . S
C1292 C1294 1.391 . S
C1293 C1292 1.386 . S
C1293 C1297 1.393 . S
C1294 H1286 0.950 . S
C1294 C1292 1.391 . S
C1294 C1295 1.400 . S
C1295 C1294 1.400 . S
C1295 C1296 1.398 . S
C1295 C1301 1.491 . S
C1296 H1287 0.950 . S
C1296 C1295 1.398 . S
C1296 C1297 1.391 . S
C1297 H1285 0.950 . S
C1297 C1293 1.393 . S
C1297 C1296 1.391 . S
C1298 H1288 0.950 . S
C1298 C1299 1.386 . S
C1298 C1300 1.391 . S
C1299 C1298 1.386 . S
C1299 C1303 1.393 . S
C1300 H1289 0.950 . S
C1300 C1298 1.391 . S
C1300 C1301 1.400 . S
C1301 C1295 1.491 . S
C1301 C1300 1.400 . S
C1301 C1302 1.398 . S
C1302 H1290 0.950 . S
C1302 C1301 1.398 . S
C1302 C1303 1.391 . S
C1303 H1291 0.950 . S
C1303 C1299 1.393 . S
C1303 C1302 1.391 . S
H1304 C1312 0.950 . S
H1305 C1317 0.950 . S
H1306 C1314 0.950 . S
H1307 C1316 0.950 . S
H1308 C1318 0.950 . S
H1309 C1320 0.950 . S
H1310 C1322 0.950 . S
H1311 C1323 0.950 . S
C1312 H1304 0.950 . S
C1312 C1313 1.386 . S
C1312 C1314 1.391 . S
C1313 C1312 1.386 . S
C1313 C1317 1.393 . S
C1314 H1306 0.950 . S
C1314 C1312 1.391 . S
C1314 C1315 1.400 . S
C1315 C1314 1.400 . S
C1315 C1316 1.398 . S
C1315 C1321 1.491 . S
C1316 H1307 0.950 . S
C1316 C1315 1.398 . S
C1316 C1317 1.391 . S
C1317 H1305 0.950 . S
C1317 C1313 1.393 . S
C1317 C1316 1.391 . S
C1318 H1308 0.950 . S
C1318 C1319 1.386 . S
C1318 C1320 1.391 . S
C1319 C1318 1.386 . S
C1319 C1323 1.393 . S
C1320 H1309 0.950 . S
C1320 C1318 1.391 . S
C1320 C1321 1.400 . S
C1321 C1315 1.491 . S
C1321 C1320 1.400 . S
C1321 C1322 1.398 . S
C1322 H1310 0.950 . S
C1322 C1321 1.398 . S
C1322 C1323 1.391 . S
C1323 H1311 0.950 . S
C1323 C1319 1.393 . S
C1323 C1322 1.391 . S
H1324 C1332 0.950 . S
H1325 C1337 0.950 . S
H1326 C1334 0.950 . S
H1327 C1336 0.950 . S
H1328 C1338 0.950 . S
H1329 C1340 0.950 . S
H1330 C1342 0.950 . S
H1331 C1343 0.950 . S
C1332 H1324 0.950 . S
C1332 C1333 1.386 . S
C1332 C1334 1.391 . S
C1333 C1332 1.386 . S
C1333 C1337 1.393 . S
C1334 H1326 0.950 . S
C1334 C1332 1.391 . S
C1334 C1335 1.400 . S
C1335 C1334 1.400 . S
C1335 C1336 1.398 . S
C1335 C1341 1.491 . S
C1336 H1327 0.950 . S
C1336 C1335 1.398 . S
C1336 C1337 1.391 . S
C1337 H1325 0.950 . S
C1337 C1333 1.393 . S
C1337 C1336 1.391 . S
C1338 H1328 0.950 . S
C1338 C1339 1.386 . S
C1338 C1340 1.391 . S
C1339 C1338 1.386 . S
C1339 C1343 1.393 . S
C1340 H1329 0.950 . S
C1340 C1338 1.391 . S
C1340 C1341 1.400 . S
C1341 C1335 1.491 . S
C1341 C1340 1.400 . S
C1341 C1342 1.398 . S
C1342 H1330 0.950 . S
C1342 C1341 1.398 . S
C1342 C1343 1.391 . S
C1343 H1331 0.950 . S
C1343 C1339 1.393 . S
C1343 C1342 1.391 . S
H1344 C1352 0.950 . S
H1345 C1357 0.950 . S
H1346 C1354 0.950 . S
H1347 C1356 0.950 . S
H1348 C1358 0.950 . S
H1349 C1360 0.950 . S
H1350 C1362 0.950 . S
H1351 C1363 0.950 . S
C1352 H1344 0.950 . S
C1352 C1353 1.386 . S
C1352 C1354 1.391 . S
C1353 C1352 1.386 . S
C1353 C1357 1.393 . S
C1354 H1346 0.950 . S
C1354 C1352 1.391 . S
C1354 C1355 1.400 . S
C1355 C1354 1.400 . S
C1355 C1356 1.398 . S
C1355 C1361 1.491 . S
C1356 H1347 0.950 . S
C1356 C1355 1.398 . S
C1356 C1357 1.391 . S
C1357 H1345 0.950 . S
C1357 C1353 1.393 . S
C1357 C1356 1.391 . S
C1358 H1348 0.950 . S
C1358 C1359 1.386 . S
C1358 C1360 1.391 . S
C1359 C1358 1.386 . S
C1359 C1363 1.393 . S
C1360 H1349 0.950 . S
C1360 C1358 1.391 . S
C1360 C1361 1.400 . S
C1361 C1355 1.491 . S
C1361 C1360 1.400 . S
C1361 C1362 1.398 . S
C1362 H1350 0.950 . S
C1362 C1361 1.398 . S
C1362 C1363 1.391 . S
C1363 H1351 0.950 . S
C1363 C1359 1.393 . S
C1363 C1362 1.391 . S
H1364 C1372 0.950 . S
H1365 C1377 0.950 . S
H1366 C1374 0.950 . S
H1367 C1376 0.950 . S
H1368 C1378 0.950 . S
H1369 C1380 0.950 . S
H1370 C1382 0.950 . S
H1371 C1383 0.950 . S
C1372 H1364 0.950 . S
C1372 C1373 1.386 . S
C1372 C1374 1.391 . S
C1373 C1372 1.386 . S
C1373 C1377 1.393 . S
C1374 H1366 0.950 . S
C1374 C1372 1.391 . S
C1374 C1375 1.400 . S
C1375 C1374 1.400 . S
C1375 C1376 1.398 . S
C1375 C1381 1.491 . S
C1376 H1367 0.950 . S
C1376 C1375 1.398 . S
C1376 C1377 1.391 . S
C1377 H1365 0.950 . S
C1377 C1373 1.393 . S
C1377 C1376 1.391 . S
C1378 H1368 0.950 . S
C1378 C1379 1.386 . S
C1378 C1380 1.391 . S
C1379 C1378 1.386 . S
C1379 C1383 1.393 . S
C1380 H1369 0.950 . S
C1380 C1378 1.391 . S
C1380 C1381 1.400 . S
C1381 C1375 1.491 . S
C1381 C1380 1.400 . S
C1381 C1382 1.398 . S
C1382 H1370 0.950 . S
C1382 C1381 1.398 . S
C1382 C1383 1.391 . S
C1383 H1371 0.950 . S
C1383 C1379 1.393 . S
C1383 C1382 1.391 . S
H1384 C1392 0.950 . S
H1385 C1397 0.950 . S
H1386 C1394 0.950 . S
H1387 C1396 0.950 . S
H1388 C1398 0.950 . S
H1389 C1400 0.950 . S
H1390 C1402 0.950 . S
H1391 C1403 0.950 . S
C1392 H1384 0.950 . S
C1392 C1393 1.386 . S
C1392 C1394 1.391 . S
C1393 C1392 1.386 . S
C1393 C1397 1.393 . S
C1394 H1386 0.950 . S
C1394 C1392 1.391 . S
C1394 C1395 1.400 . S
C1395 C1394 1.400 . S
C1395 C1396 1.398 . S
C1395 C1401 1.491 . S
C1396 H1387 0.950 . S
C1396 C1395 1.398 . S
C1396 C1397 1.391 . S
C1397 H1385 0.950 . S
C1397 C1393 1.393 . S
C1397 C1396 1.391 . S
C1398 H1388 0.950 . S
C1398 C1399 1.386 . S
C1398 C1400 1.391 . S
C1399 C1398 1.386 . S
C1399 C1403 1.393 . S
C1400 H1389 0.950 . S
C1400 C1398 1.391 . S
C1400 C1401 1.400 . S
C1401 C1395 1.491 . S
C1401 C1400 1.400 . S
C1401 C1402 1.398 . S
C1402 H1390 0.950 . S
C1402 C1401 1.398 . S
C1402 C1403 1.391 . S
C1403 H1391 0.950 . S
C1403 C1399 1.393 . S
C1403 C1402 1.391 . S
H1404 C1412 0.950 . S
H1405 C1417 0.950 . S
H1406 C1414 0.950 . S
H1407 C1416 0.950 . S
H1408 C1418 0.950 . S
H1409 C1420 0.950 . S
H1410 C1422 0.950 . S
H1411 C1423 0.950 . S
C1412 H1404 0.950 . S
C1412 C1413 1.386 . S
C1412 C1414 1.391 . S
C1413 C1412 1.386 . S
C1413 C1417 1.393 . S
C1414 H1406 0.950 . S
C1414 C1412 1.391 . S
C1414 C1415 1.400 . S
C1415 C1414 1.400 . S
C1415 C1416 1.398 . S
C1415 C1421 1.491 . S
C1416 H1407 0.950 . S
C1416 C1415 1.398 . S
C1416 C1417 1.391 . S
C1417 H1405 0.950 . S
C1417 C1413 1.393 . S
C1417 C1416 1.391 . S
C1418 H1408 0.950 . S
C1418 C1419 1.386 . S
C1418 C1420 1.391 . S
C1419 C1418 1.386 . S
C1419 C1423 1.393 . S
C1420 H1409 0.950 . S
C1420 C1418 1.391 . S
C1420 C1421 1.400 . S
C1421 C1415 1.491 . S
C1421 C1420 1.400 . S
C1421 C1422 1.398 . S
C1422 H1410 0.950 . S
C1422 C1421 1.398 . S
C1422 C1423 1.391 . S
C1423 H1411 0.950 . S
C1423 C1419 1.393 . S
C1423 C1422 1.391 . S
C799 C535 1.455 . S
C793 C35 1.326 . S
C819 C572 1.444 . S
C813 C115 1.324 . S
C839 C608 1.472 . S
C833 C177 1.354 . S
C853 C221 1.346 . S
C859 C499 1.488 . S
C873 C283 1.336 . S
C879 C500 1.458 . S
C893 C363 1.302 . S
C899 C536 1.426 . S
C919 C571 1.454 . S
C913 C407 1.322 . S
C939 C607 1.488 . S
C933 C469 1.343 . S
C953 C159 1.305 . S
C959 C679 1.450 . S
C979 C716 1.427 . S
C973 C239 1.319 . S
C993 C53 1.330 . S
C999 C752 1.456 . S
C1019 C643 1.482 . S
C1013 C97 1.334 . S
C1033 C425 1.314 . S
C1039 C644 1.460 . S
C1053 C487 1.306 . S
C1059 C680 1.426 . S
C1079 C715 1.448 1_556 S
C1073 C301 1.300 . S
C1093 C345 1.336 . S
C1099 C751 1.488 . S
C1119 C570 1.860 . S
C1113 C29 1.839 . S
C1139 C606 1.847 . S
C1133 C109 1.780 . S
C1153 C171 1.729 . S
C1159 C510 1.655 . S
C1173 C215 1.789 . S
C1179 C546 1.688 . S
C1193 C277 1.773 . S
C1199 C618 1.646 . S
C1219 C498 1.842 . S
C1213 C357 1.781 . S
C1239 C534 1.861 . S
C1233 C401 1.851 . S
C1259 C582 1.663 . S
C1253 C463 1.791 . S
C1279 C714 1.862 . S
C1273 C153 1.851 . S
C1299 C750 1.846 . S
C1293 C233 1.796 . S
C1313 C47 1.742 . S
C1319 C654 1.662 . S
C1339 C690 1.660 . S
C1333 C91 1.788 . S
C1359 C762 1.651 . S
C1353 C419 1.735 . S
C1373 C481 1.796 . S
C1379 C642 1.851 . S
C1399 C678 1.867 . S
C1393 C295 1.812 . S
C1419 C726 1.665 . S
C1413 C339 1.793 . S
