# Generated by pormake.
# Topology ssa, (4,4)-cn, num edge types: 1
# Building blocks:
#     Node 0, Type 0, BuildingBlock: IZENUY_clean_linker_0, # of connection points: 4
#     Node 1, Type 0, BuildingBlock: IZENUY_clean_linker_0, # of connection points: 4
#     Node 2, Type 0, BuildingBlock: IZENUY_clean_linker_0, # of connection points: 4
#     Node 3, Type 0, BuildingBlock: IZENUY_clean_linker_0, # of connection points: 4
#     Node 4, Type 0, BuildingBlock: IZENUY_clean_linker_0, # of connection points: 4
#     Node 5, Type 0, BuildingBlock: IZENUY_clean_linker_0, # of connection points: 4
#     Node 6, Type 1, BuildingBlock: MUDLON_clean_sbu_0, # of connection points: 4
#     Node 7, Type 1, BuildingBlock: MUDLON_clean_sbu_0, # of connection points: 4
#     Node 8, Type 1, BuildingBlock: MUDLON_clean_sbu_0, # of connection points: 4
#     Node 9, Type 1, BuildingBlock: MUDLON_clean_sbu_0, # of connection points: 4
#     Node 10, Type 1, BuildingBlock: MUDLON_clean_sbu_0, # of connection points: 4
#     Node 11, Type 1, BuildingBlock: MUDLON_clean_sbu_0, # of connection points: 4
#     Edge 12, Type (0, 1), BuildingBlock: AJUNOK_clean_linker_0, # of connection points: 2
#     Edge 13, Type (0, 1), BuildingBlock: AJUNOK_clean_linker_0, # of connection points: 2
#     Edge 14, Type (0, 1), BuildingBlock: AJUNOK_clean_linker_0, # of connection points: 2
#     Edge 15, Type (0, 1), BuildingBlock: AJUNOK_clean_linker_0, # of connection points: 2
#     Edge 16, Type (0, 1), BuildingBlock: AJUNOK_clean_linker_0, # of connection points: 2
#     Edge 17, Type (0, 1), BuildingBlock: AJUNOK_clean_linker_0, # of connection points: 2
#     Edge 18, Type (0, 1), BuildingBlock: AJUNOK_clean_linker_0, # of connection points: 2
#     Edge 19, Type (0, 1), BuildingBlock: AJUNOK_clean_linker_0, # of connection points: 2
#     Edge 20, Type (0, 1), BuildingBlock: AJUNOK_clean_linker_0, # of connection points: 2
#     Edge 21, Type (0, 1), BuildingBlock: AJUNOK_clean_linker_0, # of connection points: 2
#     Edge 22, Type (0, 1), BuildingBlock: AJUNOK_clean_linker_0, # of connection points: 2
#     Edge 23, Type (0, 1), BuildingBlock: AJUNOK_clean_linker_0, # of connection points: 2
#     Edge 24, Type (0, 1), BuildingBlock: AJUNOK_clean_linker_0, # of connection points: 2
#     Edge 25, Type (0, 1), BuildingBlock: AJUNOK_clean_linker_0, # of connection points: 2
#     Edge 26, Type (0, 1), BuildingBlock: AJUNOK_clean_linker_0, # of connection points: 2
#     Edge 27, Type (0, 1), BuildingBlock: AJUNOK_clean_linker_0, # of connection points: 2
#     Edge 28, Type (0, 1), BuildingBlock: AJUNOK_clean_linker_0, # of connection points: 2
#     Edge 29, Type (0, 1), BuildingBlock: AJUNOK_clean_linker_0, # of connection points: 2
#     Edge 30, Type (0, 1), BuildingBlock: AJUNOK_clean_linker_0, # of connection points: 2
#     Edge 31, Type (0, 1), BuildingBlock: AJUNOK_clean_linker_0, # of connection points: 2
#     Edge 32, Type (0, 1), BuildingBlock: AJUNOK_clean_linker_0, # of connection points: 2
#     Edge 33, Type (0, 1), BuildingBlock: AJUNOK_clean_linker_0, # of connection points: 2
#     Edge 34, Type (0, 1), BuildingBlock: AJUNOK_clean_linker_0, # of connection points: 2
#     Edge 35, Type (0, 1), BuildingBlock: AJUNOK_clean_linker_0, # of connection points: 2
# Relax obj value: 0.000
# Max RMSD: 0.033
# Mean RMSD: 0.019
data_MOF--net-ssa--node1-MUDLON_clean_sbu_0--node2-IZENUY_clean_linker_0--edge1-AJUNOK_clean_linker_0
_symmetry_space_group_name_H-M    P1
_symmetry_Int_Tables_number       1
_symmetry_cell_setting            triclinic
loop_
_symmetry_equiv_pos_as_xyz
'x, y, z'
_cell_length_a     35.734795
_cell_length_b     36.135121
_cell_length_c     31.335855
_cell_angle_alpha  89.767525
_cell_angle_beta   91.977036
_cell_angle_gamma 119.86503
loop_
_atom_site_label
_atom_site_type_symbol
_atom_site_fract_x
_atom_site_fract_y
_atom_site_fract_z
_atom_type_partial_charge
H0 H 0.99498 0.41376 1.03399 0.0
H1 H 0.97414 0.52155 1.03556 0.0
H2 H 0.9036 0.41798 0.94507 0.0
H3 H 0.06428 0.5461 0.13549 0.0
H4 H 0.06311 0.42644 0.13794 0.0
H5 H 0.14556 0.52609 0.22666 0.0
N6 N 0.01632 0.48795 0.0763 0.0
N7 N 0.03262 0.46843 0.095 0.0
C8 C 0.97847 0.43012 1.02183 0.0
C9 C 0.94862 0.41202 0.98732 0.0
C10 C 0.98698 0.46937 1.0403 0.0
C11 C 0.96618 0.49067 1.02254 0.0
C12 C 0.93599 0.47255 0.98778 0.0
C13 C 0.92709 0.43282 0.97133 0.0
C14 C 0.07634 0.52621 0.1489 0.0
C15 C 0.10562 0.54099 0.18471 0.0
C16 C 0.06197 0.48514 0.1311 0.0
C17 C 0.07598 0.4587 0.15016 0.0
C18 C 0.10503 0.47292 0.18558 0.0
C19 C 0.12112 0.5146 0.20104 0.0
H20 H 0.57903 0.01255 0.64171 0.0
H21 H 0.47199 0.03512 0.65139 0.0
H22 H 0.59134 0.11386 0.72248 0.0
H23 H 0.42537 0.93295 0.56852 0.0
H24 H 0.54316 0.93301 0.5427 0.0
H25 H 0.42538 0.84696 0.47407 0.0
N26 N 0.49676 0.98753 0.61165 0.0
N27 N 0.51175 0.96848 0.59148 0.0
C28 C 0.56514 0.03065 0.65445 0.0
C29 C 0.58955 0.064 0.68398 0.0
C30 C 0.52261 0.02065 0.64198 0.0
C31 C 0.50506 0.04395 0.65991 0.0
C32 C 0.52962 0.07792 0.6889 0.0
C33 C 0.57187 0.08768 0.70034 0.0
C34 C 0.44234 0.91989 0.55182 0.0
C35 C 0.41983 0.8871 0.52093 0.0
C36 C 0.48698 0.93564 0.56063 0.0
C37 C 0.50866 0.91951 0.53726 0.0
C38 C 0.48665 0.88783 0.50571 0.0
C39 C 0.44232 0.87129 0.49868 0.0
H40 H 0.47573 0.45342 1.00355 0.0
H41 H 0.59356 0.57459 1.01992 0.0
H42 H 0.58463 0.48263 0.92756 0.0
H43 H 0.51983 0.58078 0.10582 0.0
H44 H 0.39535 0.46721 0.08681 0.0
H45 H 0.41318 0.56324 0.17885 0.0
N46 N 0.51407 0.52955 1.04748 0.0
N47 N 0.47591 0.50776 1.05882 0.0
C48 C 0.50855 0.47552 0.99493 0.0
C49 C 0.52778 0.4636 0.96341 0.0
C50 C 0.53208 0.51596 1.0153 0.0
C51 C 0.57498 0.54384 1.00389 0.0
C52 C 0.59382 0.53212 0.97185 0.0
C53 C 0.56993 0.4921 0.95181 0.0
C54 C 0.48604 0.5618 0.1131 0.0
C55 C 0.46959 0.57598 0.14526 0.0
C56 C 0.45932 0.5227 0.0913 0.0
C57 C 0.41579 0.49775 0.10263 0.0
C58 C 0.39886 0.51229 0.13444 0.0
C59 C 0.42593 0.55179 0.15447 0.0
H60 H 0.0522 0.50809 0.51689 0.0
H61 H 0.05232 0.62724 0.50583 0.0
H62 H 0.11985 0.59469 0.41614 0.0
H63 H 0.98373 0.57494 0.61121 0.0
H64 H 0.96585 0.44771 0.60889 0.0
H65 H 0.90835 0.48493 0.70608 0.0
N66 N 0.02221 0.5572 0.55194 0.0
N67 N 0.00584 0.52203 0.57027 0.0
C68 C 0.06197 0.53795 0.5008 0.0
C69 C 0.08756 0.54796 0.46459 0.0
C70 C 0.04886 0.56648 0.51585 0.0
C71 C 0.06223 0.60525 0.4945 0.0
C72 C 0.08721 0.6152 0.45798 0.0
C73 C 0.09967 0.58647 0.44355 0.0
C74 C 0.97076 0.54348 0.62479 0.0
C75 C 0.94538 0.53333 0.66103 0.0
C76 C 0.97927 0.5128 0.60641 0.0
C77 C 0.96062 0.4716 0.62394 0.0
C78 C 0.93449 0.46094 0.65981 0.0
C79 C 0.92803 0.49247 0.67828 0.0
H80 H 0.46574 0.04549 1.03034 0.0
H81 H 0.59553 0.06867 1.01708 0.0
H82 H 0.54353 0.12568 0.93039 0.0
H83 H 0.55213 0.9885 0.11884 0.0
H84 H 0.42129 0.96385 0.12605 0.0
H85 H 0.46999 0.907 0.21628 0.0
N86 N 0.52628 0.02676 0.06334 0.0
N87 N 0.49215 0.00705 0.08315 0.0
C88 C 0.49576 0.05988 1.01371 0.0
C89 C 0.50045 0.08548 0.97805 0.0
C90 C 0.52997 0.05312 1.02772 0.0
C91 C 0.56905 0.07326 1.00614 0.0
C92 C 0.57402 0.09904 0.97049 0.0
C93 C 0.53947 0.10466 0.95683 0.0
C94 C 0.52152 0.97386 0.13442 0.0
C95 C 0.51551 0.9478 0.1702 0.0
C96 C 0.48769 0.98056 0.11882 0.0
C97 C 0.44767 0.95981 0.13856 0.0
C98 C 0.44133 0.93362 0.17396 0.0
C99 C 0.47547 0.92838 0.18982 0.0
H100 H 0.44581 0.49149 0.52386 0.0
H101 H 0.57587 0.59836 0.52073 0.0
H102 H 0.48061 0.58279 0.42373 0.0
H103 H 0.57305 0.52973 0.63102 0.0
H104 H 0.44918 0.416 0.61016 0.0
H105 H 0.53525 0.42009 0.71076 0.0
N106 N 0.52512 0.52743 0.56367 0.0
N107 N 0.49951 0.49238 0.57968 0.0
C108 C 0.47009 0.52012 0.50887 0.0
C109 C 0.45858 0.53429 0.47155 0.0
C110 C 0.51269 0.5426 0.52662 0.0
C111 C 0.54335 0.58042 0.507 0.0
C112 C 0.53202 0.59473 0.46939 0.0
C113 C 0.48977 0.57123 0.45197 0.0
C114 C 0.54958 0.4976 0.63992 0.0
C115 C 0.55865 0.47842 0.67526 0.0
C116 C 0.50996 0.47506 0.61616 0.0
C117 C 0.47949 0.43352 0.62829 0.0
C118 C 0.48828 0.41431 0.66315 0.0
C119 C 0.52791 0.43652 0.68569 0.0
Mg120 Mg 0.21484 0.43666 0.32484 0.0
C121 C 0.1404 0.35629 0.28409 0.0
O122 O 0.11622 0.3152 0.27622 0.0
C123 C 0.28532 0.46968 0.39787 0.0
O124 O 0.26416 0.48766 0.41263 0.0
C125 C 0.16697 0.45729 0.39065 0.0
O126 O 0.17133 0.42773 0.41101 0.0
O127 O 0.18242 0.46825 0.35363 0.0
O128 O 0.16874 0.36921 0.31457 0.0
O129 O 0.24382 0.45881 0.26266 0.0
C130 C 0.25529 0.43422 0.24545 0.0
O131 O 0.24542 0.39821 0.26448 0.0
O132 O 0.27071 0.44606 0.36449 0.0
Mg133 Mg 0.79954 0.23274 0.81337 0.0
C134 C 0.7493 0.14266 0.7796 0.0
O135 O 0.74362 0.13519 0.82061 0.0
C136 C 0.88721 0.28006 0.86204 0.0
O137 O 0.90112 0.29584 0.82432 0.0
C138 C 0.73736 0.19919 0.88603 0.0
O139 O 0.7724 0.20398 0.90605 0.0
O140 O 0.73972 0.21198 0.84765 0.0
O141 O 0.77859 0.17945 0.76847 0.0
O142 O 0.82181 0.29 0.77382 0.0
C143 C 0.84942 0.29633 0.74578 0.0
O144 O 0.86091 0.26738 0.74035 0.0
O145 O 0.84891 0.24883 0.86448 0.0
Mg146 Mg 0.58728 0.79896 0.30936 0.0
C147 C 0.59814 0.85675 0.23468 0.0
O148 O 0.57923 0.81981 0.21441 0.0
C149 C 0.58707 0.73954 0.36859 0.0
O150 O 0.5473 0.73073 0.35957 0.0
C151 C 0.569 0.8279 0.38987 0.0
O152 O 0.60837 0.83498 0.39783 0.0
O153 O 0.55006 0.81112 0.35421 0.0
O154 O 0.61256 0.85852 0.27293 0.0
O155 O 0.54802 0.74496 0.26753 0.0
C156 C 0.5672 0.73497 0.24032 0.0
O157 O 0.60889 0.75961 0.23582 0.0
O158 O 0.61803 0.77161 0.35089 0.0
Mg159 Mg 0.79619 0.56732 0.8303 0.0
C160 C 0.72484 0.55247 0.76857 0.0
O161 O 0.75101 0.59379 0.76592 0.0
C162 C 0.84496 0.55004 0.9012 0.0
O163 O 0.85415 0.58884 0.91194 0.0
C164 C 0.75599 0.5787 0.90587 0.0
O165 O 0.75943 0.54497 0.91476 0.0
O166 O 0.77421 0.60003 0.87288 0.0
O167 O 0.73589 0.53055 0.79243 0.0
O168 O 0.85004 0.60008 0.78705 0.0
C169 C 0.84468 0.58726 0.74827 0.0
O170 O 0.80523 0.56203 0.73313 0.0
O171 O 0.81948 0.53147 0.86901 0.0
Mg172 Mg 0.22091 0.78128 0.33213 0.0
C173 C 0.17413 0.70939 0.26604 0.0
O174 O 0.17156 0.73989 0.24555 0.0
C175 C 0.26843 0.82648 0.4125 0.0
O176 O 0.25777 0.85334 0.39532 0.0
C177 C 0.13589 0.77224 0.36648 0.0
O178 O 0.10767 0.78509 0.37033 0.0
O179 O 0.16853 0.7938 0.34364 0.0
O180 O 0.19319 0.71761 0.30285 0.0
O181 O 0.26966 0.82925 0.29052 0.0
C182 C 0.28282 0.81896 0.25773 0.0
O183 O 0.26579 0.77844 0.24736 0.0
O184 O 0.25576 0.79082 0.39347 0.0
Mg185 Mg 0.44002 0.22441 0.82734 0.0
C186 C 0.4585 0.1722 0.77083 0.0
O187 O 0.41699 0.15795 0.76436 0.0
C188 C 0.45309 0.30276 0.87016 0.0
O189 O 0.41527 0.28772 0.85028 0.0
C190 C 0.41773 0.17294 0.90673 0.0
O191 O 0.43708 0.21146 0.92387 0.0
O192 O 0.40532 0.16876 0.86756 0.0
O193 O 0.48011 0.20347 0.79666 0.0
O194 O 0.40995 0.24395 0.77618 0.0
C195 C 0.42904 0.25507 0.74085 0.0
O196 O 0.45998 0.24653 0.73404 0.0
O197 O 0.47316 0.28197 0.86768 0.0
C198 C 0.1109 0.44021 0.25413 0.0
C199 C 0.11566 0.44348 0.20957 0.0
C200 C 0.11959 0.41229 0.27798 0.0
C201 C 0.13368 0.38685 0.25833 0.0
H202 H 0.09942 0.45873 0.27061 0.0
H203 H 0.114 0.40962 0.31188 0.0
S204 S 0.15319 0.38437 0.14333 0.0
N205 N 0.13668 0.41957 0.14706 0.0
N206 N 0.15275 0.36679 0.19218 0.0
C207 C 0.13875 0.38971 0.21399 0.0
C208 C 0.12989 0.41818 0.18956 0.0
C209 C 0.63751 0.05868 0.73991 0.0
C210 C 0.6332 0.07457 0.70021 0.0
C211 C 0.67688 0.07836 0.76357 0.0
C212 C 0.71331 0.1151 0.74866 0.0
H213 H 0.60937 0.03303 0.75434 0.0
H214 H 0.6776 0.06663 0.79528 0.0
S215 S 0.71975 0.16483 0.64308 0.0
N216 N 0.66921 0.1256 0.64455 0.0
N217 N 0.74351 0.16266 0.68843 0.0
C218 C 0.7103 0.12863 0.70698 0.0
C219 C 0.67009 0.10847 0.68299 0.0
C220 C 0.52467 0.65403 0.14939 0.0
C221 C 0.49752 0.61577 0.17025 0.0
C222 C 0.54778 0.69269 0.17236 0.0
C223 C 0.54371 0.69429 0.21665 0.0
H224 H 0.5271 0.65431 0.11501 0.0
H225 H 0.56797 0.72167 0.15525 0.0
S226 S 0.48237 0.60256 0.2872 0.0
N227 N 0.47255 0.58137 0.23866 0.0
N228 N 0.51423 0.65437 0.28118 0.0
C229 C 0.51806 0.65623 0.23809 0.0
C230 C 0.49543 0.61685 0.21503 0.0
C231 C 0.90134 0.56929 0.65798 0.0
C232 C 0.93242 0.56271 0.67994 0.0
C233 C 0.8759 0.58205 0.67993 0.0
C234 C 0.88086 0.58897 0.72454 0.0
H235 H 0.89366 0.56044 0.6245 0.0
H236 H 0.8498 0.5831 0.66236 0.0
S237 S 0.96296 0.58273 0.79526 0.0
N238 N 0.97066 0.56919 0.74745 0.0
N239 N 0.92347 0.59372 0.78871 0.0
C240 C 0.91517 0.5871 0.74593 0.0
C241 C 0.94075 0.57374 0.7236 0.0
C242 C 0.39242 0.91501 0.2357 0.0
C243 C 0.39827 0.90844 0.19277 0.0
C244 C 0.35387 0.88736 0.2559 0.0
C245 C 0.32031 0.85147 0.23419 0.0
H246 H 0.41833 0.94101 0.2541 0.0
H247 H 0.35129 0.89291 0.28934 0.0
S248 S 0.31922 0.82145 0.1208 0.0
N249 N 0.36672 0.86491 0.12868 0.0
N250 N 0.29484 0.81232 0.16666 0.0
C251 C 0.3254 0.8454 0.19087 0.0
C252 C 0.36423 0.87403 0.17016 0.0
C253 C 0.44058 0.36197 0.71621 0.0
C254 C 0.45838 0.3698 0.67557 0.0
C255 C 0.42512 0.32201 0.73537 0.0
C256 C 0.4281 0.28901 0.7149 0.0
H257 H 0.44198 0.38793 0.73472 0.0
H258 H 0.41512 0.31856 0.76804 0.0
S259 S 0.46533 0.29154 0.60534 0.0
N260 N 0.47243 0.33984 0.61316 0.0
N261 N 0.44421 0.26493 0.64929 0.0
C262 C 0.44164 0.29522 0.67252 0.0
C263 C 0.45673 0.33568 0.65284 0.0
C264 C 0.50067 0.87105 0.43289 0.0
C265 C 0.50961 0.87371 0.47727 0.0
C266 C 0.51952 0.85553 0.40504 0.0
C267 C 0.54866 0.84277 0.42036 0.0
H268 H 0.47885 0.88108 0.41948 0.0
H269 H 0.51171 0.85422 0.37115 0.0
S270 S 0.58271 0.84289 0.53359 0.0
N271 N 0.54891 0.8615 0.5353 0.0
N272 N 0.5857 0.83363 0.4826 0.0
C273 C 0.5585 0.84582 0.46452 0.0
C274 C 0.53874 0.86108 0.49306 0.0
C275 C 0.67174 0.55741 0.98578 0.0
C276 C 0.63947 0.55905 0.96041 0.0
C277 C 0.71202 0.56884 0.96918 0.0
C278 C 0.72151 0.58263 0.92679 0.0
H279 H 0.66442 0.54338 1.01717 0.0
H280 H 0.73454 0.56345 0.98852 0.0
S281 S 0.64985 0.59868 0.84979 0.0
N282 N 0.62099 0.57994 0.89278 0.0
N283 N 0.697 0.60236 0.86174 0.0
C284 C 0.69107 0.58869 0.90271 0.0
C285 C 0.64985 0.57649 0.91947 0.0
C286 C 0.12636 0.69544 0.45395 0.0
C287 C 0.10033 0.6553 0.43404 0.0
C288 C 0.13992 0.73346 0.43116 0.0
C289 C 0.12796 0.73255 0.38776 0.0
H290 H 0.13629 0.69743 0.48731 0.0
H291 H 0.15905 0.76377 0.44782 0.0
S292 S 0.05808 0.63602 0.3217 0.0
N293 N 0.06216 0.6172 0.36872 0.0
N294 N 0.08728 0.68853 0.32633 0.0
C295 C 0.10195 0.69275 0.3676 0.0
C296 C 0.0883 0.65414 0.39061 0.0
C297 C 0.45914 0.12349 0.98885 0.0
C298 C 0.46682 0.09602 0.96375 0.0
C299 C 0.43891 0.14512 0.97105 0.0
C300 C 0.42551 0.14 0.92752 0.0
H301 H 0.47214 0.13114 1.0214 0.0
H302 H 0.43669 0.16845 0.9908 0.0
S303 S 0.43154 0.06529 0.85058 0.0
N304 N 0.45463 0.06032 0.89511 0.0
N305 N 0.41602 0.10016 0.8616 0.0
C306 C 0.42898 0.10903 0.9034 0.0
C307 C 0.44994 0.08737 0.92151 0.0
C308 C 0.37984 0.50891 0.47849 0.0
C309 C 0.41345 0.51227 0.45375 0.0
C310 C 0.33812 0.49391 0.46047 0.0
C311 C 0.32828 0.48092 0.41726 0.0
H312 H 0.3863 0.51974 0.51151 0.0
H313 H 0.31358 0.49324 0.48034 0.0
S314 S 0.4047 0.48136 0.33959 0.0
N315 N 0.43399 0.50002 0.38443 0.0
N316 N 0.35558 0.471 0.35069 0.0
C317 C 0.36129 0.48245 0.3927 0.0
C318 C 0.40387 0.49839 0.41089 0.0
C319 C 0.90026 0.3354 0.96813 0.0
C320 C 0.94054 0.37263 0.96486 0.0
C321 C 0.88508 0.30282 0.93697 0.0
C322 C 0.90928 0.30685 0.90083 0.0
H323 H 0.8789 0.33303 0.99303 0.0
H324 H 0.85254 0.27628 0.93936 0.0
S325 S 0.01995 0.39536 0.88163 0.0
N326 N 0.00672 0.40936 0.9263 0.0
N327 N 0.97837 0.3485 0.86738 0.0
C328 C 0.95143 0.34211 0.89965 0.0
C329 C 0.96697 0.375 0.93169 0.0
C330 C 0.90811 0.49262 0.92196 0.0
C331 C 0.91407 0.49449 0.9669 0.0
C332 C 0.88467 0.50951 0.90116 0.0
C333 C 0.86716 0.5301 0.92422 0.0
H334 H 0.92171 0.47792 0.90244 0.0
H335 H 0.88113 0.50731 0.86662 0.0
S336 S 0.87276 0.5439 1.0419 0.0
N337 N 0.89909 0.51795 1.03363 0.0
N338 N 0.85721 0.55187 0.99415 0.0
C339 C 0.87346 0.53318 0.96891 0.0
C340 C 0.89647 0.515 0.99031 0.0
C341 C 0.36389 0.9001 0.48565 0.0
C342 C 0.37435 0.87173 0.50636 0.0
C343 C 0.32754 0.88495 0.4576 0.0
C344 C 0.30065 0.84089 0.44892 0.0
H345 H 0.38593 0.93419 0.48811 0.0
H346 H 0.32247 0.90817 0.44027 0.0
S347 S 0.30941 0.75352 0.50212 0.0
N348 N 0.35124 0.79764 0.52182 0.0
N349 N 0.28338 0.76914 0.46875 0.0
C350 C 0.30845 0.81222 0.47273 0.0
C351 C 0.3451 0.82766 0.50163 0.0
C352 C 0.51004 0.38764 0.9572 0.0
C353 C 0.50483 0.42146 0.94175 0.0
C354 C 0.49377 0.3493 0.93367 0.0
C355 C 0.47159 0.34364 0.89413 0.0
H356 H 0.52765 0.39127 0.98719 0.0
H357 H 0.4983 0.32389 0.94659 0.0
S358 S 0.45288 0.42418 0.83847 0.0
N359 N 0.47855 0.44802 0.88374 0.0
N360 N 0.44714 0.37592 0.83982 0.0
C361 C 0.46646 0.37745 0.8784 0.0
C362 C 0.48337 0.41645 0.90212 0.0
C363 C 0.09725 0.50844 0.40433 0.0
C364 C 0.10298 0.51942 0.44809 0.0
C365 C 0.1181 0.48851 0.38591 0.0
C366 C 0.14443 0.47749 0.41087 0.0
H367 H 0.07714 0.51628 0.384 0.0
H368 H 0.11353 0.48166 0.3519 0.0
S369 S 0.16754 0.49629 0.52761 0.0
N370 N 0.13578 0.51633 0.51616 0.0
N371 N 0.17325 0.47694 0.48216 0.0
C372 C 0.14855 0.48613 0.45512 0.0
C373 C 0.12809 0.50736 0.47364 0.0
C374 C 0.65439 0.14845 0.97197 0.0
C375 C 0.61575 0.12238 0.94843 0.0
C376 C 0.69336 0.17372 0.95145 0.0
C377 C 0.69516 0.17425 0.90658 0.0
H378 H 0.65436 0.15001 1.00649 0.0
H379 H 0.72229 0.1933 0.97094 0.0
S380 S 0.6042 0.10767 0.83062 0.0
N381 N 0.58251 0.09586 0.87795 0.0
N382 N 0.6555 0.1437 0.8395 0.0
C383 C 0.65695 0.14761 0.88272 0.0
C384 C 0.61738 0.12161 0.9036 0.0
C385 C 0.57059 0.63449 0.40487 0.0
C386 C 0.56218 0.63537 0.44835 0.0
C387 C 0.58565 0.67119 0.37977 0.0
C388 C 0.59276 0.71004 0.39722 0.0
H389 H 0.56172 0.60436 0.38927 0.0
H390 H 0.58732 0.66797 0.34562 0.0
S391 S 0.57994 0.73032 0.51007 0.0
N392 N 0.56606 0.67934 0.50852 0.0
N393 N 0.59384 0.7481 0.46121 0.0
C394 C 0.58818 0.71222 0.44135 0.0
C395 C 0.57308 0.67493 0.467 0.0
C396 C 0.51953 0.11365 0.75251 0.0
C397 C 0.51145 0.10279 0.70864 0.0
C398 C 0.50407 0.13794 0.77207 0.0
C399 C 0.4787 0.15111 0.74878 0.0
H400 H 0.53735 0.10262 0.77214 0.0
H401 H 0.51064 0.14504 0.80597 0.0
S402 S 0.44989 0.1338 0.63302 0.0
N403 N 0.47863 0.11004 0.64208 0.0
N404 N 0.44714 0.15328 0.67964 0.0
C405 C 0.47028 0.14076 0.70505 0.0
C406 C 0.48708 0.11706 0.6848 0.0
C407 C 0.3298 0.50513 0.16002 0.0
C408 C 0.35485 0.48589 0.1515 0.0
C409 C 0.29581 0.48696 0.18841 0.0
C410 C 0.28511 0.44852 0.20911 0.0
H411 H 0.3386 0.53612 0.14699 0.0
H412 H 0.27937 0.50437 0.19583 0.0
S413 S 0.33603 0.38179 0.19218 0.0
N414 N 0.36335 0.42395 0.16226 0.0
N415 N 0.29874 0.38884 0.21431 0.0
C416 C 0.30709 0.42682 0.19748 0.0
C417 C 0.34203 0.44566 0.1689 0.0
C418 C 0.86957 0.39876 0.69133 0.0
C419 C 0.91264 0.41711 0.67838 0.0
C420 C 0.84935 0.35982 0.71294 0.0
C421 C 0.87094 0.33696 0.72179 0.0
H422 H 0.85131 0.41491 0.68514 0.0
H423 H 0.81648 0.34749 0.72267 0.0
S424 S 0.98397 0.37062 0.69535 0.0
N425 N 0.97627 0.40927 0.67689 0.0
N426 N 0.93789 0.33544 0.71595 0.0
C427 C 0.9136 0.35427 0.70818 0.0
C428 C 0.93447 0.39435 0.68677 0.0
C429 C 0.56055 0.91375 0.15769 0.0
C430 C 0.54834 0.93616 0.18525 0.0
C431 C 0.58072 0.89133 0.17367 0.0
C432 C 0.58987 0.89079 0.21777 0.0
H433 H 0.55124 0.91053 0.12405 0.0
H434 H 0.58649 0.87188 0.15159 0.0
S435 S 0.57029 0.95016 0.30237 0.0
N436 N 0.5514 0.96076 0.25795 0.0
N437 N 0.58957 0.91916 0.28799 0.0
C438 C 0.58157 0.91655 0.24507 0.0
C439 C 0.56065 0.939 0.22881 0.0
C440 C 0.63997 0.52297 0.67909 0.0
C441 C 0.60083 0.50011 0.70022 0.0
C442 C 0.68003 0.53958 0.70143 0.0
C443 C 0.68247 0.5329 0.74543 0.0
H444 H 0.63978 0.52723 0.64487 0.0
H445 H 0.70936 0.55714 0.68399 0.0
S446 S 0.5905 0.48033 0.81711 0.0
N447 N 0.56783 0.47655 0.7693 0.0
N448 N 0.64303 0.50493 0.81009 0.0
C449 C 0.64395 0.51104 0.76722 0.0
C450 C 0.6032 0.49542 0.74493 0.0
C451 C 0.13033 0.61995 0.18185 0.0
C452 C 0.12011 0.58339 0.20606 0.0
C453 C 0.14725 0.66044 0.20146 0.0
C454 C 0.15545 0.66621 0.24599 0.0
H455 H 0.12629 0.61756 0.14738 0.0
H456 H 0.15494 0.68759 0.18136 0.0
S457 S 0.1312 0.58096 0.32432 0.0
N458 N 0.11539 0.55557 0.27789 0.0
N459 N 0.15057 0.63183 0.31376 0.0
C460 C 0.14485 0.63001 0.27057 0.0
C461 C 0.12629 0.58867 0.25092 0.0
loop_
_geom_bond_atom_site_label_1
_geom_bond_atom_site_label_2
_geom_bond_distance
_geom_bond_site_symmetry_2
_ccdc_geom_bond_type
H0 C8 0.940 . S
H1 C11 0.940 . S
H2 C13 0.940 . S
H3 C14 0.940 . S
H4 C17 0.940 . S
H5 C19 0.940 . S
N6 N7 1.190 1_655 S
N6 C10 1.477 1_554 S
N7 N6 1.190 1_455 S
N7 C16 1.477 . S
C8 H0 0.940 . S
C8 C9 1.390 . S
C8 C10 1.322 . S
C9 C8 1.390 . S
C9 C13 1.370 . S
C10 N6 1.477 1_556 S
C10 C8 1.322 . S
C10 C11 1.447 . S
C11 H1 0.940 . S
C11 C10 1.447 . S
C11 C12 1.373 . S
C12 C11 1.373 . S
C12 C13 1.417 . S
C13 H2 0.940 . S
C13 C9 1.370 . S
C13 C12 1.417 . S
C14 H3 0.940 . S
C14 C15 1.390 . S
C14 C16 1.322 . S
C15 C14 1.390 . S
C15 C19 1.370 . S
C16 N7 1.477 . S
C16 C14 1.322 . S
C16 C17 1.447 . S
C17 H4 0.940 . S
C17 C16 1.447 . S
C17 C18 1.373 . S
C18 C17 1.373 . S
C18 C19 1.417 . S
C19 H5 0.940 . S
C19 C15 1.370 . S
C19 C18 1.417 . S
H20 C28 0.940 . S
H21 C31 0.940 . S
H22 C33 0.940 . S
H23 C34 0.940 . S
H24 C37 0.940 . S
H25 C39 0.940 . S
N26 N27 1.190 . S
N26 C30 1.477 . S
N27 N26 1.190 . S
N27 C36 1.477 1_545 S
C28 H20 0.940 . S
C28 C29 1.390 . S
C28 C30 1.322 . S
C29 C28 1.390 . S
C29 C33 1.370 . S
C30 N26 1.477 . S
C30 C28 1.322 . S
C30 C31 1.447 . S
C31 H21 0.940 . S
C31 C30 1.447 . S
C31 C32 1.373 . S
C32 C31 1.373 . S
C32 C33 1.417 . S
C33 H22 0.940 . S
C33 C29 1.370 . S
C33 C32 1.417 . S
C34 H23 0.940 . S
C34 C35 1.390 . S
C34 C36 1.322 . S
C35 C34 1.390 . S
C35 C39 1.370 . S
C36 N27 1.477 1_565 S
C36 C34 1.322 . S
C36 C37 1.447 . S
C37 H24 0.940 . S
C37 C36 1.447 . S
C37 C38 1.373 . S
C38 C37 1.373 . S
C38 C39 1.417 . S
C39 H25 0.940 . S
C39 C35 1.370 . S
C39 C38 1.417 . S
H40 C48 0.940 . S
H41 C51 0.940 . S
H42 C53 0.940 . S
H43 C54 0.940 . S
H44 C57 0.940 . S
H45 C59 0.940 . S
N46 N47 1.190 1_556 S
N46 C50 1.477 . S
N47 N46 1.190 1_554 S
N47 C56 1.477 . S
C48 H40 0.940 . S
C48 C49 1.390 . S
C48 C50 1.322 . S
C49 C48 1.390 . S
C49 C53 1.370 . S
C50 N46 1.477 . S
C50 C48 1.322 . S
C50 C51 1.447 . S
C51 H41 0.940 . S
C51 C50 1.447 . S
C51 C52 1.373 . S
C52 C51 1.373 . S
C52 C53 1.417 . S
C53 H42 0.940 . S
C53 C49 1.370 . S
C53 C52 1.417 . S
C54 H43 0.940 . S
C54 C55 1.390 . S
C54 C56 1.322 . S
C55 C54 1.390 . S
C55 C59 1.370 . S
C56 N47 1.477 . S
C56 C54 1.322 . S
C56 C57 1.447 . S
C57 H44 0.940 . S
C57 C56 1.447 . S
C57 C58 1.373 . S
C58 C57 1.373 . S
C58 C59 1.417 . S
C59 H45 0.940 . S
C59 C55 1.370 . S
C59 C58 1.417 . S
H60 C68 0.940 . S
H61 C71 0.940 . S
H62 C73 0.940 . S
H63 C74 0.940 . S
H64 C77 0.940 . S
H65 C79 0.940 . S
N66 N67 1.190 . S
N66 C70 1.477 1_655 S
N67 N66 1.190 . S
N67 C76 1.477 . S
C68 H60 0.940 . S
C68 C69 1.390 . S
C68 C70 1.322 . S
C69 C68 1.390 . S
C69 C73 1.370 . S
C70 N66 1.477 1_455 S
C70 C68 1.322 . S
C70 C71 1.447 . S
C71 H61 0.940 . S
C71 C70 1.447 . S
C71 C72 1.373 . S
C72 C71 1.373 . S
C72 C73 1.417 . S
C73 H62 0.940 . S
C73 C69 1.370 . S
C73 C72 1.417 . S
C74 H63 0.940 . S
C74 C75 1.390 . S
C74 C76 1.322 . S
C75 C74 1.390 . S
C75 C79 1.370 . S
C76 N67 1.477 . S
C76 C74 1.322 . S
C76 C77 1.447 . S
C77 H64 0.940 . S
C77 C76 1.447 . S
C77 C78 1.373 . S
C78 C77 1.373 . S
C78 C79 1.417 . S
C79 H65 0.940 . S
C79 C75 1.370 . S
C79 C78 1.417 . S
H80 C88 0.940 . S
H81 C91 0.940 . S
H82 C93 0.940 . S
H83 C94 0.940 . S
H84 C97 0.940 . S
H85 C99 0.940 . S
N86 N87 1.190 . S
N86 C90 1.477 1_554 S
N87 N86 1.190 . S
N87 C96 1.477 1_545 S
C88 H80 0.940 . S
C88 C89 1.390 . S
C88 C90 1.322 . S
C89 C88 1.390 . S
C89 C93 1.370 . S
C90 N86 1.477 1_556 S
C90 C88 1.322 . S
C90 C91 1.447 . S
C91 H81 0.940 . S
C91 C90 1.447 . S
C91 C92 1.373 . S
C92 C91 1.373 . S
C92 C93 1.417 . S
C93 H82 0.940 . S
C93 C89 1.370 . S
C93 C92 1.417 . S
C94 H83 0.940 . S
C94 C95 1.390 . S
C94 C96 1.322 . S
C95 C94 1.390 . S
C95 C99 1.370 . S
C96 N87 1.477 1_565 S
C96 C94 1.322 . S
C96 C97 1.447 . S
C97 H84 0.940 . S
C97 C96 1.447 . S
C97 C98 1.373 . S
C98 C97 1.373 . S
C98 C99 1.417 . S
C99 H85 0.940 . S
C99 C95 1.370 . S
C99 C98 1.417 . S
H100 C108 0.940 . S
H101 C111 0.940 . S
H102 C113 0.940 . S
H103 C114 0.940 . S
H104 C117 0.940 . S
H105 C119 0.940 . S
N106 N107 1.190 . S
N106 C110 1.477 . S
N107 N106 1.190 . S
N107 C116 1.477 . S
C108 H100 0.940 . S
C108 C109 1.390 . S
C108 C110 1.322 . S
C109 C108 1.390 . S
C109 C113 1.370 . S
C110 N106 1.477 . S
C110 C108 1.322 . S
C110 C111 1.447 . S
C111 H101 0.940 . S
C111 C110 1.447 . S
C111 C112 1.373 . S
C112 C111 1.373 . S
C112 C113 1.417 . S
C113 H102 0.940 . S
C113 C109 1.370 . S
C113 C112 1.417 . S
C114 H103 0.940 . S
C114 C115 1.390 . S
C114 C116 1.322 . S
C115 C114 1.390 . S
C115 C119 1.370 . S
C116 N107 1.477 . S
C116 C114 1.322 . S
C116 C117 1.447 . S
C117 H104 0.940 . S
C117 C116 1.447 . S
C117 C118 1.373 . S
C118 C117 1.373 . S
C118 C119 1.417 . S
C119 H105 0.940 . S
C119 C115 1.370 . S
C119 C118 1.417 . S
Mg120 O127 2.141 . S
Mg120 O128 2.048 . S
Mg120 O129 2.048 . S
Mg120 O132 2.141 . S
C121 O122 1.313 . S
C121 O128 1.195 . S
O122 C121 1.313 . S
C123 O124 1.245 . S
C123 O132 1.289 . S
O124 C123 1.245 . S
C125 O126 1.245 . S
C125 O127 1.289 . S
O126 C125 1.245 . S
O127 Mg120 2.141 . S
O127 C125 1.289 . S
O128 Mg120 2.048 . S
O128 C121 1.195 . S
O129 Mg120 2.048 . S
O129 C130 1.195 . S
C130 O129 1.195 . S
C130 O131 1.313 . S
O131 C130 1.313 . S
O132 Mg120 2.141 . S
O132 C123 1.289 . S
Mg133 O140 2.141 . S
Mg133 O141 2.048 . S
Mg133 O142 2.048 . S
Mg133 O145 2.141 . S
C134 O135 1.313 . S
C134 O141 1.195 . S
O135 C134 1.313 . S
C136 O137 1.245 . S
C136 O145 1.289 . S
O137 C136 1.245 . S
C138 O139 1.245 . S
C138 O140 1.289 . S
O139 C138 1.245 . S
O140 Mg133 2.141 . S
O140 C138 1.289 . S
O141 Mg133 2.048 . S
O141 C134 1.195 . S
O142 Mg133 2.048 . S
O142 C143 1.195 . S
C143 O142 1.195 . S
C143 O144 1.313 . S
O144 C143 1.313 . S
O145 Mg133 2.141 . S
O145 C136 1.289 . S
Mg146 O153 2.141 . S
Mg146 O154 2.048 . S
Mg146 O155 2.048 . S
Mg146 O158 2.141 . S
C147 O148 1.313 . S
C147 O154 1.195 . S
O148 C147 1.313 . S
C149 O150 1.245 . S
C149 O158 1.289 . S
O150 C149 1.245 . S
C151 O152 1.245 . S
C151 O153 1.289 . S
O152 C151 1.245 . S
O153 Mg146 2.141 . S
O153 C151 1.289 . S
O154 Mg146 2.048 . S
O154 C147 1.195 . S
O155 Mg146 2.048 . S
O155 C156 1.195 . S
C156 O155 1.195 . S
C156 O157 1.313 . S
O157 C156 1.313 . S
O158 Mg146 2.141 . S
O158 C149 1.289 . S
Mg159 O166 2.141 . S
Mg159 O167 2.048 . S
Mg159 O168 2.048 . S
Mg159 O171 2.141 . S
C160 O161 1.313 . S
C160 O167 1.195 . S
O161 C160 1.313 . S
C162 O163 1.245 . S
C162 O171 1.289 . S
O163 C162 1.245 . S
C164 O165 1.245 . S
C164 O166 1.289 . S
O165 C164 1.245 . S
O166 Mg159 2.141 . S
O166 C164 1.289 . S
O167 Mg159 2.048 . S
O167 C160 1.195 . S
O168 Mg159 2.048 . S
O168 C169 1.195 . S
C169 O168 1.195 . S
C169 O170 1.313 . S
O170 C169 1.313 . S
O171 Mg159 2.141 . S
O171 C162 1.289 . S
Mg172 O179 2.141 . S
Mg172 O180 2.048 . S
Mg172 O181 2.048 . S
Mg172 O184 2.141 . S
C173 O174 1.313 . S
C173 O180 1.195 . S
O174 C173 1.313 . S
C175 O176 1.245 . S
C175 O184 1.289 . S
O176 C175 1.245 . S
C177 O178 1.245 . S
C177 O179 1.289 . S
O178 C177 1.245 . S
O179 Mg172 2.141 . S
O179 C177 1.289 . S
O180 Mg172 2.048 . S
O180 C173 1.195 . S
O181 Mg172 2.048 . S
O181 C182 1.195 . S
C182 O181 1.195 . S
C182 O183 1.313 . S
O183 C182 1.313 . S
O184 Mg172 2.141 . S
O184 C175 1.289 . S
Mg185 O192 2.141 . S
Mg185 O193 2.048 . S
Mg185 O194 2.048 . S
Mg185 O197 2.141 . S
C186 O187 1.313 . S
C186 O193 1.195 . S
O187 C186 1.313 . S
C188 O189 1.245 . S
C188 O197 1.289 . S
O189 C188 1.245 . S
C190 O191 1.245 . S
C190 O192 1.289 . S
O191 C190 1.245 . S
O192 Mg185 2.141 . S
O192 C190 1.289 . S
O193 Mg185 2.048 . S
O193 C186 1.195 . S
O194 Mg185 2.048 . S
O194 C195 1.195 . S
C195 O194 1.195 . S
C195 O196 1.313 . S
O196 C195 1.313 . S
O197 Mg185 2.141 . S
O197 C188 1.289 . S
C198 C199 1.369 . S
C198 C200 1.419 . S
C198 H202 0.930 . S
C199 C198 1.369 . S
C199 C208 1.429 . S
C200 C198 1.419 . S
C200 C201 1.363 . S
C200 H203 0.929 . S
C201 C200 1.363 . S
C201 C207 1.428 . S
H202 C198 0.930 . S
H203 C200 0.929 . S
S204 N205 1.613 . S
S204 N206 1.610 . S
N205 S204 1.613 . S
N205 C208 1.350 . S
N206 S204 1.610 . S
N206 C207 1.351 . S
C207 C201 1.428 . S
C207 N206 1.351 . S
C207 C208 1.434 . S
C208 C199 1.429 . S
C208 N205 1.350 . S
C208 C207 1.434 . S
C209 C210 1.369 . S
C209 C211 1.419 . S
C209 H213 0.930 . S
C210 C209 1.369 . S
C210 C219 1.429 . S
C211 C209 1.419 . S
C211 C212 1.363 . S
C211 H214 0.929 . S
C212 C211 1.363 . S
C212 C218 1.428 . S
H213 C209 0.930 . S
H214 C211 0.929 . S
S215 N216 1.613 . S
S215 N217 1.610 . S
N216 S215 1.613 . S
N216 C219 1.350 . S
N217 S215 1.610 . S
N217 C218 1.351 . S
C218 C212 1.428 . S
C218 N217 1.351 . S
C218 C219 1.434 . S
C219 C210 1.429 . S
C219 N216 1.350 . S
C219 C218 1.434 . S
C220 C221 1.369 . S
C220 C222 1.419 . S
C220 H224 0.930 . S
C221 C220 1.369 . S
C221 C230 1.429 . S
C222 C220 1.419 . S
C222 C223 1.363 . S
C222 H225 0.929 . S
C223 C222 1.363 . S
C223 C229 1.428 . S
H224 C220 0.930 . S
H225 C222 0.929 . S
S226 N227 1.613 . S
S226 N228 1.610 . S
N227 S226 1.613 . S
N227 C230 1.350 . S
N228 S226 1.610 . S
N228 C229 1.351 . S
C229 C223 1.428 . S
C229 N228 1.351 . S
C229 C230 1.434 . S
C230 C221 1.429 . S
C230 N227 1.350 . S
C230 C229 1.434 . S
C231 C232 1.369 . S
C231 C233 1.419 . S
C231 H235 0.930 . S
C232 C231 1.369 . S
C232 C241 1.429 . S
C233 C231 1.419 . S
C233 C234 1.363 . S
C233 H236 0.929 . S
C234 C233 1.363 . S
C234 C240 1.428 . S
H235 C231 0.930 . S
H236 C233 0.929 . S
S237 N238 1.613 . S
S237 N239 1.610 . S
N238 S237 1.613 . S
N238 C241 1.350 . S
N239 S237 1.610 . S
N239 C240 1.351 . S
C240 C234 1.428 . S
C240 N239 1.351 . S
C240 C241 1.434 . S
C241 C232 1.429 . S
C241 N238 1.350 . S
C241 C240 1.434 . S
C242 C243 1.369 . S
C242 C244 1.419 . S
C242 H246 0.930 . S
C243 C242 1.369 . S
C243 C252 1.429 . S
C244 C242 1.419 . S
C244 C245 1.363 . S
C244 H247 0.929 . S
C245 C244 1.363 . S
C245 C251 1.428 . S
H246 C242 0.930 . S
H247 C244 0.929 . S
S248 N249 1.613 . S
S248 N250 1.610 . S
N249 S248 1.613 . S
N249 C252 1.350 . S
N250 S248 1.610 . S
N250 C251 1.351 . S
C251 C245 1.428 . S
C251 N250 1.351 . S
C251 C252 1.434 . S
C252 C243 1.429 . S
C252 N249 1.350 . S
C252 C251 1.434 . S
C253 C254 1.369 . S
C253 C255 1.419 . S
C253 H257 0.930 . S
C254 C253 1.369 . S
C254 C263 1.429 . S
C255 C253 1.419 . S
C255 C256 1.363 . S
C255 H258 0.929 . S
C256 C255 1.363 . S
C256 C262 1.428 . S
H257 C253 0.930 . S
H258 C255 0.929 . S
S259 N260 1.613 . S
S259 N261 1.610 . S
N260 S259 1.613 . S
N260 C263 1.350 . S
N261 S259 1.610 . S
N261 C262 1.351 . S
C262 C256 1.428 . S
C262 N261 1.351 . S
C262 C263 1.434 . S
C263 C254 1.429 . S
C263 N260 1.350 . S
C263 C262 1.434 . S
C264 C265 1.369 . S
C264 C266 1.419 . S
C264 H268 0.930 . S
C265 C264 1.369 . S
C265 C274 1.429 . S
C266 C264 1.419 . S
C266 C267 1.363 . S
C266 H269 0.929 . S
C267 C266 1.363 . S
C267 C273 1.428 . S
H268 C264 0.930 . S
H269 C266 0.929 . S
S270 N271 1.613 . S
S270 N272 1.610 . S
N271 S270 1.613 . S
N271 C274 1.350 . S
N272 S270 1.610 . S
N272 C273 1.351 . S
C273 C267 1.428 . S
C273 N272 1.351 . S
C273 C274 1.434 . S
C274 C265 1.429 . S
C274 N271 1.350 . S
C274 C273 1.434 . S
C275 C276 1.369 . S
C275 C277 1.419 . S
C275 H279 0.930 . S
C276 C275 1.369 . S
C276 C285 1.429 . S
C277 C275 1.419 . S
C277 C278 1.363 . S
C277 H280 0.929 . S
C278 C277 1.363 . S
C278 C284 1.428 . S
H279 C275 0.930 . S
H280 C277 0.929 . S
S281 N282 1.613 . S
S281 N283 1.610 . S
N282 S281 1.613 . S
N282 C285 1.350 . S
N283 S281 1.610 . S
N283 C284 1.351 . S
C284 C278 1.428 . S
C284 N283 1.351 . S
C284 C285 1.434 . S
C285 C276 1.429 . S
C285 N282 1.350 . S
C285 C284 1.434 . S
C286 C287 1.369 . S
C286 C288 1.419 . S
C286 H290 0.930 . S
C287 C286 1.369 . S
C287 C296 1.429 . S
C288 C286 1.419 . S
C288 C289 1.363 . S
C288 H291 0.929 . S
C289 C288 1.363 . S
C289 C295 1.428 . S
H290 C286 0.930 . S
H291 C288 0.929 . S
S292 N293 1.613 . S
S292 N294 1.610 . S
N293 S292 1.613 . S
N293 C296 1.350 . S
N294 S292 1.610 . S
N294 C295 1.351 . S
C295 C289 1.428 . S
C295 N294 1.351 . S
C295 C296 1.434 . S
C296 C287 1.429 . S
C296 N293 1.350 . S
C296 C295 1.434 . S
C297 C298 1.369 . S
C297 C299 1.419 . S
C297 H301 0.930 . S
C298 C297 1.369 . S
C298 C307 1.429 . S
C299 C297 1.419 . S
C299 C300 1.363 . S
C299 H302 0.929 . S
C300 C299 1.363 . S
C300 C306 1.428 . S
H301 C297 0.930 . S
H302 C299 0.929 . S
S303 N304 1.613 . S
S303 N305 1.610 . S
N304 S303 1.613 . S
N304 C307 1.350 . S
N305 S303 1.610 . S
N305 C306 1.351 . S
C306 C300 1.428 . S
C306 N305 1.351 . S
C306 C307 1.434 . S
C307 C298 1.429 . S
C307 N304 1.350 . S
C307 C306 1.434 . S
C308 C309 1.369 . S
C308 C310 1.419 . S
C308 H312 0.930 . S
C309 C308 1.369 . S
C309 C318 1.429 . S
C310 C308 1.419 . S
C310 C311 1.363 . S
C310 H313 0.929 . S
C311 C310 1.363 . S
C311 C317 1.428 . S
H312 C308 0.930 . S
H313 C310 0.929 . S
S314 N315 1.613 . S
S314 N316 1.610 . S
N315 S314 1.613 . S
N315 C318 1.350 . S
N316 S314 1.610 . S
N316 C317 1.351 . S
C317 C311 1.428 . S
C317 N316 1.351 . S
C317 C318 1.434 . S
C318 C309 1.429 . S
C318 N315 1.350 . S
C318 C317 1.434 . S
C319 C320 1.369 . S
C319 C321 1.419 . S
C319 H323 0.930 . S
C320 C319 1.369 . S
C320 C329 1.429 . S
C321 C319 1.419 . S
C321 C322 1.363 . S
C321 H324 0.929 . S
C322 C321 1.363 . S
C322 C328 1.428 . S
H323 C319 0.930 . S
H324 C321 0.929 . S
S325 N326 1.613 . S
S325 N327 1.610 . S
N326 S325 1.613 . S
N326 C329 1.350 . S
N327 S325 1.610 . S
N327 C328 1.351 . S
C328 C322 1.428 . S
C328 N327 1.351 . S
C328 C329 1.434 . S
C329 C320 1.429 . S
C329 N326 1.350 . S
C329 C328 1.434 . S
C330 C331 1.369 . S
C330 C332 1.419 . S
C330 H334 0.930 . S
C331 C330 1.369 . S
C331 C340 1.429 . S
C332 C330 1.419 . S
C332 C333 1.363 . S
C332 H335 0.929 . S
C333 C332 1.363 . S
C333 C339 1.428 . S
H334 C330 0.930 . S
H335 C332 0.929 . S
S336 N337 1.613 . S
S336 N338 1.610 . S
N337 S336 1.613 . S
N337 C340 1.350 . S
N338 S336 1.610 . S
N338 C339 1.351 . S
C339 C333 1.428 . S
C339 N338 1.351 . S
C339 C340 1.434 . S
C340 C331 1.429 . S
C340 N337 1.350 . S
C340 C339 1.434 . S
C341 C342 1.369 . S
C341 C343 1.419 . S
C341 H345 0.930 . S
C342 C341 1.369 . S
C342 C351 1.429 . S
C343 C341 1.419 . S
C343 C344 1.363 . S
C343 H346 0.929 . S
C344 C343 1.363 . S
C344 C350 1.428 . S
H345 C341 0.930 . S
H346 C343 0.929 . S
S347 N348 1.613 . S
S347 N349 1.610 . S
N348 S347 1.613 . S
N348 C351 1.350 . S
N349 S347 1.610 . S
N349 C350 1.351 . S
C350 C344 1.428 . S
C350 N349 1.351 . S
C350 C351 1.434 . S
C351 C342 1.429 . S
C351 N348 1.350 . S
C351 C350 1.434 . S
C352 C353 1.369 . S
C352 C354 1.419 . S
C352 H356 0.930 . S
C353 C352 1.369 . S
C353 C362 1.429 . S
C354 C352 1.419 . S
C354 C355 1.363 . S
C354 H357 0.929 . S
C355 C354 1.363 . S
C355 C361 1.428 . S
H356 C352 0.930 . S
H357 C354 0.929 . S
S358 N359 1.613 . S
S358 N360 1.610 . S
N359 S358 1.613 . S
N359 C362 1.350 . S
N360 S358 1.610 . S
N360 C361 1.351 . S
C361 C355 1.428 . S
C361 N360 1.351 . S
C361 C362 1.434 . S
C362 C353 1.429 . S
C362 N359 1.350 . S
C362 C361 1.434 . S
C363 C364 1.369 . S
C363 C365 1.419 . S
C363 H367 0.930 . S
C364 C363 1.369 . S
C364 C373 1.429 . S
C365 C363 1.419 . S
C365 C366 1.363 . S
C365 H368 0.929 . S
C366 C365 1.363 . S
C366 C372 1.428 . S
H367 C363 0.930 . S
H368 C365 0.929 . S
S369 N370 1.613 . S
S369 N371 1.610 . S
N370 S369 1.613 . S
N370 C373 1.350 . S
N371 S369 1.610 . S
N371 C372 1.351 . S
C372 C366 1.428 . S
C372 N371 1.351 . S
C372 C373 1.434 . S
C373 C364 1.429 . S
C373 N370 1.350 . S
C373 C372 1.434 . S
C374 C375 1.369 . S
C374 C376 1.419 . S
C374 H378 0.930 . S
C375 C374 1.369 . S
C375 C384 1.429 . S
C376 C374 1.419 . S
C376 C377 1.363 . S
C376 H379 0.929 . S
C377 C376 1.363 . S
C377 C383 1.428 . S
H378 C374 0.930 . S
H379 C376 0.929 . S
S380 N381 1.613 . S
S380 N382 1.610 . S
N381 S380 1.613 . S
N381 C384 1.350 . S
N382 S380 1.610 . S
N382 C383 1.351 . S
C383 C377 1.428 . S
C383 N382 1.351 . S
C383 C384 1.434 . S
C384 C375 1.429 . S
C384 N381 1.350 . S
C384 C383 1.434 . S
C385 C386 1.369 . S
C385 C387 1.419 . S
C385 H389 0.930 . S
C386 C385 1.369 . S
C386 C395 1.429 . S
C387 C385 1.419 . S
C387 C388 1.363 . S
C387 H390 0.929 . S
C388 C387 1.363 . S
C388 C394 1.428 . S
H389 C385 0.930 . S
H390 C387 0.929 . S
S391 N392 1.613 . S
S391 N393 1.610 . S
N392 S391 1.613 . S
N392 C395 1.350 . S
N393 S391 1.610 . S
N393 C394 1.351 . S
C394 C388 1.428 . S
C394 N393 1.351 . S
C394 C395 1.434 . S
C395 C386 1.429 . S
C395 N392 1.350 . S
C395 C394 1.434 . S
C396 C397 1.369 . S
C396 C398 1.419 . S
C396 H400 0.930 . S
C397 C396 1.369 . S
C397 C406 1.429 . S
C398 C396 1.419 . S
C398 C399 1.363 . S
C398 H401 0.929 . S
C399 C398 1.363 . S
C399 C405 1.428 . S
H400 C396 0.930 . S
H401 C398 0.929 . S
S402 N403 1.613 . S
S402 N404 1.610 . S
N403 S402 1.613 . S
N403 C406 1.350 . S
N404 S402 1.610 . S
N404 C405 1.351 . S
C405 C399 1.428 . S
C405 N404 1.351 . S
C405 C406 1.434 . S
C406 C397 1.429 . S
C406 N403 1.350 . S
C406 C405 1.434 . S
C407 C408 1.369 . S
C407 C409 1.419 . S
C407 H411 0.930 . S
C408 C407 1.369 . S
C408 C417 1.429 . S
C409 C407 1.419 . S
C409 C410 1.363 . S
C409 H412 0.929 . S
C410 C409 1.363 . S
C410 C416 1.428 . S
H411 C407 0.930 . S
H412 C409 0.929 . S
S413 N414 1.613 . S
S413 N415 1.610 . S
N414 S413 1.613 . S
N414 C417 1.350 . S
N415 S413 1.610 . S
N415 C416 1.351 . S
C416 C410 1.428 . S
C416 N415 1.351 . S
C416 C417 1.434 . S
C417 C408 1.429 . S
C417 N414 1.350 . S
C417 C416 1.434 . S
C418 C419 1.369 . S
C418 C420 1.419 . S
C418 H422 0.930 . S
C419 C418 1.369 . S
C419 C428 1.429 . S
C420 C418 1.419 . S
C420 C421 1.363 . S
C420 H423 0.929 . S
C421 C420 1.363 . S
C421 C427 1.428 . S
H422 C418 0.930 . S
H423 C420 0.929 . S
S424 N425 1.613 . S
S424 N426 1.610 . S
N425 S424 1.613 . S
N425 C428 1.350 . S
N426 S424 1.610 . S
N426 C427 1.351 . S
C427 C421 1.428 . S
C427 N426 1.351 . S
C427 C428 1.434 . S
C428 C419 1.429 . S
C428 N425 1.350 . S
C428 C427 1.434 . S
C429 C430 1.369 . S
C429 C431 1.419 . S
C429 H433 0.930 . S
C430 C429 1.369 . S
C430 C439 1.429 . S
C431 C429 1.419 . S
C431 C432 1.363 . S
C431 H434 0.929 . S
C432 C431 1.363 . S
C432 C438 1.428 . S
H433 C429 0.930 . S
H434 C431 0.929 . S
S435 N436 1.613 . S
S435 N437 1.610 . S
N436 S435 1.613 . S
N436 C439 1.350 . S
N437 S435 1.610 . S
N437 C438 1.351 . S
C438 C432 1.428 . S
C438 N437 1.351 . S
C438 C439 1.434 . S
C439 C430 1.429 . S
C439 N436 1.350 . S
C439 C438 1.434 . S
C440 C441 1.369 . S
C440 C442 1.419 . S
C440 H444 0.930 . S
C441 C440 1.369 . S
C441 C450 1.429 . S
C442 C440 1.419 . S
C442 C443 1.363 . S
C442 H445 0.929 . S
C443 C442 1.363 . S
C443 C449 1.428 . S
H444 C440 0.930 . S
H445 C442 0.929 . S
S446 N447 1.613 . S
S446 N448 1.610 . S
N447 S446 1.613 . S
N447 C450 1.350 . S
N448 S446 1.610 . S
N448 C449 1.351 . S
C449 C443 1.428 . S
C449 N448 1.351 . S
C449 C450 1.434 . S
C450 C441 1.429 . S
C450 N447 1.350 . S
C450 C449 1.434 . S
C451 C452 1.369 . S
C451 C453 1.419 . S
C451 H455 0.930 . S
C452 C451 1.369 . S
C452 C461 1.429 . S
C453 C451 1.419 . S
C453 C454 1.363 . S
C453 H456 0.929 . S
C454 C453 1.363 . S
C454 C460 1.428 . S
H455 C451 0.930 . S
H456 C453 0.929 . S
S457 N458 1.613 . S
S457 N459 1.610 . S
N458 S457 1.613 . S
N458 C461 1.350 . S
N459 S457 1.610 . S
N459 C460 1.351 . S
C460 C454 1.428 . S
C460 N459 1.351 . S
C460 C461 1.434 . S
C461 C452 1.429 . S
C461 N458 1.350 . S
C461 C460 1.434 . S
C199 C18 1.415 . S
C201 C121 1.463 . S
C210 C29 1.448 . S
C212 C134 1.547 . S
C223 C156 1.481 . S
C221 C55 1.401 . S
C234 C169 1.543 . S
C232 C75 1.460 . S
C245 C182 1.459 . S
C243 C98 1.427 . S
C256 C195 1.509 . S
C254 C118 1.475 . S
C265 C38 1.408 . S
C267 C151 1.442 . S
C276 C52 1.467 . S
C278 C164 1.504 . S
C289 C177 1.456 . S
C287 C72 1.422 . S
C300 C190 1.539 . S
C298 C89 1.456 . S
C309 C109 1.390 . S
C311 C123 1.494 . S
C322 C136 1.543 . S
C320 C9 1.440 . S
C333 C162 1.436 . S
C331 C12 1.408 . S
C342 C35 1.442 . S
C344 C175 1.517 . S
C355 C188 1.468 . S
C353 C49 1.391 . S
C364 C69 1.458 . S
C366 C125 1.551 . S
C375 C92 1.421 . S
C377 C138 1.473 . S
C386 C112 1.473 . S
C388 C149 1.500 . S
C397 C32 1.423 . S
C399 C186 1.451 . S
C410 C130 1.533 . S
C408 C58 1.484 . S
C419 C78 1.437 . S
C421 C143 1.484 . S
C430 C95 1.457 . S
C432 C147 1.545 . S
C441 C115 1.398 . S
C443 C160 1.482 . S
C452 C15 1.456 . S
C454 C173 1.536 . S
