# Generated by pormake.
# Topology zzz, (3,6)-cn, num edge types: 1
# Building blocks:
#     Node 0, Type 0, BuildingBlock: ESEHIV_clean_linker_0, # of connection points: 3
#     Node 1, Type 0, BuildingBlock: ESEHIV_clean_linker_0, # of connection points: 3
#     Node 2, Type 0, BuildingBlock: ESEHIV_clean_linker_0, # of connection points: 3
#     Node 3, Type 0, BuildingBlock: ESEHIV_clean_linker_0, # of connection points: 3
#     Node 4, Type 0, BuildingBlock: ESEHIV_clean_linker_0, # of connection points: 3
#     Node 5, Type 0, BuildingBlock: ESEHIV_clean_linker_0, # of connection points: 3
#     Node 6, Type 0, BuildingBlock: ESEHIV_clean_linker_0, # of connection points: 3
#     Node 7, Type 0, BuildingBlock: ESEHIV_clean_linker_0, # of connection points: 3
#     Node 8, Type 1, BuildingBlock: KUMBOL_clean_sbu_1, # of connection points: 6
#     Node 9, Type 1, BuildingBlock: KUMBOL_clean_sbu_1, # of connection points: 6
#     Node 10, Type 1, BuildingBlock: KUMBOL_clean_sbu_1, # of connection points: 6
#     Node 11, Type 1, BuildingBlock: KUMBOL_clean_sbu_1, # of connection points: 6
#     Edge 12, Type (0, 1), BuildingBlock: CIFDUS_clean_linker_0, # of connection points: 2
#     Edge 13, Type (0, 1), BuildingBlock: CIFDUS_clean_linker_0, # of connection points: 2
#     Edge 14, Type (0, 1), BuildingBlock: CIFDUS_clean_linker_0, # of connection points: 2
#     Edge 15, Type (0, 1), BuildingBlock: CIFDUS_clean_linker_0, # of connection points: 2
#     Edge 16, Type (0, 1), BuildingBlock: CIFDUS_clean_linker_0, # of connection points: 2
#     Edge 17, Type (0, 1), BuildingBlock: CIFDUS_clean_linker_0, # of connection points: 2
#     Edge 18, Type (0, 1), BuildingBlock: CIFDUS_clean_linker_0, # of connection points: 2
#     Edge 19, Type (0, 1), BuildingBlock: CIFDUS_clean_linker_0, # of connection points: 2
#     Edge 20, Type (0, 1), BuildingBlock: CIFDUS_clean_linker_0, # of connection points: 2
#     Edge 21, Type (0, 1), BuildingBlock: CIFDUS_clean_linker_0, # of connection points: 2
#     Edge 22, Type (0, 1), BuildingBlock: CIFDUS_clean_linker_0, # of connection points: 2
#     Edge 23, Type (0, 1), BuildingBlock: CIFDUS_clean_linker_0, # of connection points: 2
#     Edge 24, Type (0, 1), BuildingBlock: CIFDUS_clean_linker_0, # of connection points: 2
#     Edge 25, Type (0, 1), BuildingBlock: CIFDUS_clean_linker_0, # of connection points: 2
#     Edge 26, Type (0, 1), BuildingBlock: CIFDUS_clean_linker_0, # of connection points: 2
#     Edge 27, Type (0, 1), BuildingBlock: CIFDUS_clean_linker_0, # of connection points: 2
#     Edge 28, Type (0, 1), BuildingBlock: CIFDUS_clean_linker_0, # of connection points: 2
#     Edge 29, Type (0, 1), BuildingBlock: CIFDUS_clean_linker_0, # of connection points: 2
#     Edge 30, Type (0, 1), BuildingBlock: CIFDUS_clean_linker_0, # of connection points: 2
#     Edge 31, Type (0, 1), BuildingBlock: CIFDUS_clean_linker_0, # of connection points: 2
#     Edge 32, Type (0, 1), BuildingBlock: CIFDUS_clean_linker_0, # of connection points: 2
#     Edge 33, Type (0, 1), BuildingBlock: CIFDUS_clean_linker_0, # of connection points: 2
#     Edge 34, Type (0, 1), BuildingBlock: CIFDUS_clean_linker_0, # of connection points: 2
#     Edge 35, Type (0, 1), BuildingBlock: CIFDUS_clean_linker_0, # of connection points: 2
# Relax obj value: 0.389
# Max RMSD: 0.202
# Mean RMSD: 0.186
data_MOF--net-zzz--node1-KUMBOL_clean_sbu_1--node2-ESEHIV_clean_linker_0--edge1-CIFDUS_clean_linker_0
_symmetry_space_group_name_H-M    P1
_symmetry_Int_Tables_number       1
_symmetry_cell_setting            triclinic
loop_
_symmetry_equiv_pos_as_xyz
'x, y, z'
_cell_length_a     36.955841
_cell_length_b     37.549189
_cell_length_c     14.097876
_cell_angle_alpha  89.928352
_cell_angle_beta   90.432173
_cell_angle_gamma 90.318744
loop_
_atom_site_label
_atom_site_type_symbol
_atom_site_fract_x
_atom_site_fract_y
_atom_site_fract_z
_atom_type_partial_charge
H0 H 0.81445 0.61666 0.33401 0.0
H1 H 0.72324 0.61491 0.14354 0.0
H2 H 0.72567 0.54413 0.38277 0.0
C3 C 0.78804 0.60641 0.31386 0.0
C4 C 0.7731 0.57877 0.36837 0.0
C5 C 0.77249 0.61683 0.22687 0.0
C6 C 0.73665 0.60627 0.20801 0.0
C7 C 0.71877 0.58083 0.26357 0.0
C8 C 0.73777 0.56574 0.34295 0.0
H9 H 0.98533 0.8273 0.18002 0.0
H10 H 0.9701 0.72459 0.05689 0.0
H11 H 0.98677 0.73315 0.35914 0.0
C12 C 0.98273 0.79878 0.18999 0.0
C13 C 0.98526 0.78388 0.28204 0.0
C14 C 0.97818 0.7772 0.10966 0.0
C15 C 0.974 0.74076 0.12014 0.0
C16 C 0.97818 0.72411 0.20765 0.0
C17 C 0.98343 0.7457 0.29047 0.0
H18 H 0.72455 0.94255 0.30563 0.0
H19 H 0.81204 0.92651 0.11174 0.0
H20 H 0.82025 1.00726 0.32915 0.0
C21 C 0.7519 0.94822 0.28265 0.0
C22 C 0.77062 0.97554 0.32951 0.0
C23 C 0.7657 0.93132 0.20176 0.0
C24 C 0.80102 0.93966 0.17348 0.0
C25 C 0.82124 0.96693 0.21768 0.0
C26 C 0.80563 0.9855 0.29587 0.0
H27 H 0.48376 0.7296 0.2288 0.0
H28 H 0.54795 0.81642 0.34425 0.0
H29 H 0.48878 0.82806 0.08098 0.0
C30 C 0.49253 0.75713 0.22879 0.0
C31 C 0.48288 0.77784 0.15044 0.0
C32 C 0.51395 0.77064 0.30404 0.0
C33 C 0.52974 0.80549 0.2912 0.0
C34 C 0.52162 0.82584 0.20736 0.0
C35 C 0.49664 0.81211 0.14197 0.0
H36 H 0.23797 0.41283 0.09214 0.0
H37 H 0.31833 0.41468 0.31005 0.0
H38 H 0.29561 0.51025 0.15162 0.0
C39 C 0.25873 0.42724 0.13019 0.0
C40 C 0.26309 0.46375 0.1115 0.0
C41 C 0.27356 0.41149 0.21224 0.0
C42 C 0.30436 0.42783 0.25211 0.0
C43 C 0.31392 0.46315 0.22936 0.0
C44 C 0.29123 0.48206 0.16316 0.0
H45 H 0.11712 0.21348 0.14818 0.0
H46 H 0.12854 0.30269 0.33416 0.0
H47 H 0.03247 0.29151 0.15851 0.0
C48 C 0.1069 0.23836 0.17557 0.0
C49 C 0.07245 0.24916 0.14516 0.0
C50 C 0.12685 0.25676 0.24539 0.0
C51 C 0.11322 0.28878 0.27964 0.0
C52 C 0.07973 0.30253 0.24849 0.0
C53 C 0.05876 0.28211 0.18141 0.0
H54 H 0.32834 0.10679 0.10501 0.0
H55 H 0.24757 0.12183 0.31616 0.0
H56 H 0.26084 0.01894 0.17967 0.0
C57 C 0.30565 0.09695 0.1457 0.0
C58 C 0.29573 0.06152 0.13157 0.0
C59 C 0.2908 0.11772 0.21836 0.0
C60 C 0.26063 0.10422 0.26678 0.0
C61 C 0.24894 0.06838 0.25614 0.0
C62 C 0.26741 0.04687 0.18769 0.0
H63 H 0.58752 0.32587 0.14373 0.0
H64 H 0.49483 0.25615 0.12007 0.0
H65 H 0.58437 0.22883 0.30386 0.0
C66 C 0.5743 0.30083 0.16048 0.0
C67 C 0.58989 0.27828 0.22865 0.0
C68 C 0.54051 0.29335 0.11857 0.0
C69 C 0.52139 0.26213 0.14898 0.0
C70 C 0.53755 0.23859 0.21679 0.0
C71 C 0.57196 0.24679 0.25296 0.0
C72 C 0.08792 0.99201 0.9985 0.0
C73 C 0.05534 0.94855 0.09225 0.0
C74 C 0.06245 0.96518 1.0046 0.0
C75 C 0.07315 0.96063 0.17428 0.0
C76 C 0.10755 1.00281 0.07933 0.0
C77 C 0.09917 0.98767 0.16753 0.0
N78 N 0.09471 1.00633 0.91235 0.0
C79 C 0.12246 0.03004 0.90045 0.0
C80 C 0.13522 0.02811 0.06865 0.0
C81 C 0.14293 0.04154 0.97857 0.0
Gd82 Gd 0.99564 0.04411 0.61565 0.0
Gd83 Gd 0.05707 0.98821 0.78686 0.0
N84 N 0.0459 0.95421 0.92375 0.0
C85 C 0.03096 0.92001 0.09443 0.0
C86 C 0.02359 0.92513 0.92431 0.0
C87 C 1.01538 0.90801 1.00989 0.0
H88 H 1.01096 0.916 0.85933 0.0
H89 H 0.99655 0.88607 1.01147 0.0
H90 H 0.99278 0.99234 0.41823 0.0
H91 H 0.12846 0.0405 0.8309 0.0
H92 H 0.94942 0.9526 0.33636 0.0
H93 H 0.02448 0.9067 0.16049 0.0
H94 H 0.0674 0.94901 0.24289 0.0
H95 H 0.94583 0.10556 0.71982 0.0
H96 H 0.15119 0.03692 0.12895 0.0
H97 H 0.16458 0.06073 0.96932 0.0
H98 H 0.83732 0.97313 0.49509 0.0
H99 H 0.11226 0.99694 0.23103 0.0
H100 H 0.83444 0.07294 0.70683 0.0
H101 H 0.88143 0.11604 0.75929 0.0
N102 N 0.93498 0.05683 0.64876 0.0
C103 C 0.90948 0.03422 0.61415 0.0
C104 C 0.92528 0.08685 0.69646 0.0
C105 C 0.86255 0.06825 0.68974 0.0
C106 C 0.88897 0.09275 0.71898 0.0
C107 C 0.87253 0.03901 0.6344 0.0
H108 H 0.81823 0.01859 0.61012 0.0
N109 N 0.95541 1.00822 0.52447 0.0
C110 C 0.92012 1.0088 0.54985 0.0
C111 C 0.90517 0.96572 0.42831 0.0
C112 C 0.89407 0.98734 0.5033 0.0
C113 C 0.96547 0.99015 0.44465 0.0
C114 C 0.94089 0.96783 0.39731 0.0
O115 O 0.05093 0.04519 0.84163 0.0
O116 O 1.01355 0.07913 0.74249 0.0
O117 O 0.02309 0.09276 0.57211 0.0
O118 O 0.97642 0.07413 0.4935 0.0
O119 O 0.99695 0.98325 0.81939 0.0
O120 O 0.97355 0.03648 0.76632 0.0
O121 O 1.01903 0.99 0.57642 0.0
O122 O 1.01333 0.95661 0.70758 0.0
O123 O 0.09961 0.94851 0.7979 0.0
O124 O 0.08477 0.96964 0.66095 0.0
O125 O 0.05101 0.02618 0.56729 0.0
O126 O 0.08019 0.03572 0.70532 0.0
C127 C 0.03407 0.07532 0.81982 0.0
C128 C 0.97344 1.0094 0.82656 0.0
C129 C 0.02894 0.08901 0.40672 0.0
C130 C 0.08937 0.09584 0.33683 0.0
C131 C 0.04577 0.05336 0.27095 0.0
C132 C 1.02021 0.06348 0.3374 0.0
C133 C 0.08021 0.06867 0.2721 0.0
C134 C 0.06292 0.10586 0.4038 0.0
C135 C 1.00583 0.09333 0.49122 0.0
C136 C 0.85754 0.98986 0.52898 0.0
C137 C 0.84672 1.01573 0.5944 0.0
H138 H 0.88598 0.94886 0.39076 0.0
C139 C 1.01092 0.95907 0.61493 0.0
C140 C 0.08013 0.03715 0.61225 0.0
C141 C 0.10012 0.90997 0.66497 0.0
C142 C 0.07002 0.85216 0.66283 0.0
C143 C 0.11144 0.86836 0.537 0.0
C144 C 0.1175 0.90152 0.57986 0.0
C145 C 0.08785 0.84361 0.5784 0.0
C146 C 0.07659 0.88526 0.70562 0.0
C147 C 0.10322 0.94575 0.70606 0.0
H148 H 0.03892 0.03325 0.21882 0.0
H149 H 0.99407 0.05036 0.33624 0.0
H150 H 0.09916 0.05953 0.22039 0.0
H151 H 0.0681 0.12667 0.455 0.0
H152 H 0.12482 0.86194 0.47123 0.0
H153 H 0.13519 0.92072 0.54598 0.0
H154 H 0.08343 0.81805 0.54462 0.0
H155 H 0.06347 0.89179 0.7717 0.0
C156 C 0.53462 0.91897 0.58948 0.0
C157 C 0.50109 0.88148 0.69892 0.0
C158 C 0.50895 0.9154 0.66068 0.0
C159 C 0.51916 0.85137 0.66463 0.0
C160 C 0.55242 0.88865 0.55404 0.0
C161 C 0.54465 0.85493 0.5922 0.0
N162 N 0.54164 0.95192 0.55353 0.0
C163 C 0.56514 0.95618 0.47997 0.0
C164 C 0.57741 0.89307 0.48082 0.0
C165 C 0.58375 0.92697 0.4437 0.0
Gd166 Gd 0.55454 0.06788 0.7969 0.0
Gd167 Gd 0.51014 0.99928 0.62288 0.0
N168 N 0.49193 0.94507 0.69302 0.0
C169 C 0.47515 0.87874 0.77034 0.0
C170 C 0.46561 0.94224 0.76019 0.0
C171 C 0.45719 0.90922 0.80057 0.0
H172 H 0.45082 0.96513 0.78336 0.0
H173 H 0.43667 0.90728 0.85473 0.0
H174 H 0.63382 0.08083 0.67952 0.0
H175 H 0.56926 0.98201 0.44795 0.0
H176 H 0.66162 0.12638 0.57858 0.0
H177 H 0.46849 0.8532 0.80177 0.0
H178 H 0.51343 0.82516 0.69322 0.0
H179 H 0.4822 0.10604 0.89485 0.0
H180 H 0.59169 0.87046 0.45188 0.0
H181 H 0.60295 0.9306 0.38706 0.0
H182 H 0.58286 0.22656 0.60647 0.0
H183 H 0.5581 0.83138 0.56587 0.0
H184 H 0.47983 0.21535 0.8087 0.0
H185 H 0.45334 0.16515 0.89889 0.0
N186 N 0.52433 0.12256 0.80243 0.0
C187 C 0.53982 0.14994 0.7539 0.0
C188 C 0.49379 0.12768 0.85453 0.0
C189 C 0.49267 0.18949 0.8068 0.0
C190 C 0.47752 0.16118 0.85746 0.0
C191 C 0.52411 0.1841 0.75398 0.0
H192 H 0.52789 0.23785 0.6986 0.0
N193 N 0.5857 0.11025 0.70388 0.0
C194 C 0.57083 0.14339 0.70149 0.0
C195 C 0.61915 0.1644 0.60078 0.0
C196 C 0.58693 0.17118 0.64869 0.0
C197 C 0.61901 0.10482 0.66541 0.0
C198 C 0.63563 0.13127 0.61081 0.0
O199 O 0.54252 0.97447 0.74514 0.0
O200 O 0.54216 1.01476 0.86806 0.0
O201 O 0.6056 0.07295 0.87295 0.0
O202 O 0.5567 0.09308 0.93538 0.0
O203 O 0.46958 0.02269 0.73066 0.0
O204 O 0.50367 0.04388 0.85768 0.0
O205 O 0.51369 0.08627 0.68365 0.0
O206 O 0.52987 0.0516 0.561 0.0
O207 O 0.48854 0.97426 0.49567 0.0
O208 O 0.46041 0.01875 0.55745 0.0
O209 O 0.59439 0.0317 0.71614 0.0
O210 O 0.56327 0.02396 0.57723 0.0
C211 C 0.54478 0.98196 0.83639 0.0
C212 C 0.4726 0.03328 0.82026 0.0
C213 C 0.59607 0.06271 0.03581 0.0
C214 C 0.60715 1.00494 0.11023 0.0
C215 C 0.59604 0.05756 0.20684 0.0
C216 C 0.59312 0.07841 0.1252 0.0
C217 C 0.60312 0.02113 0.19975 0.0
C218 C 0.60228 0.02597 0.02874 0.0
C219 C 0.59008 0.08411 0.95003 0.0
C220 C 0.57097 0.20505 0.64723 0.0
C221 C 0.53976 0.21153 0.70007 0.0
H222 H 0.6323 0.18499 0.55934 0.0
C223 C 0.51795 0.0822 0.59183 0.0
C224 C 0.59405 0.02423 0.62453 0.0
C225 C 0.47013 0.02008 0.39107 0.0
C226 C 0.45887 0.07468 0.29878 0.0
C227 C 0.50416 0.0319 0.24758 0.0
C228 C 0.49649 1.01011 0.32491 0.0
C229 C 0.48624 0.06418 0.23553 0.0
C230 C 0.45078 0.05169 0.37572 0.0
C231 C 0.46563 0.99985 0.48096 0.0
H232 H 0.5935 0.06978 0.27591 0.0
H233 H 0.58832 0.10672 0.1314 0.0
H234 H 0.60707 1.00621 0.26468 0.0
H235 H 0.60417 1.0139 0.95934 0.0
H236 H 0.52442 0.02389 0.19703 0.0
H237 H 0.51179 0.98581 0.33362 0.0
H238 H 0.49412 0.08052 0.17601 0.0
H239 H 0.42938 0.05783 0.42473 0.0
C240 C 0.45306 0.53283 0.99976 0.0
C241 C 0.46966 0.58235 0.10135 0.0
C242 C 0.4696 0.56556 1.0119 0.0
C243 C 0.45401 0.56484 0.17919 0.0
C244 C 0.43545 0.51602 0.07614 0.0
C245 C 0.43679 0.53179 0.16649 0.0
N246 N 0.45192 0.51871 0.91139 0.0
C247 C 0.43118 0.48935 0.89242 0.0
C248 C 0.41595 0.48461 0.05844 0.0
C249 C 0.41333 0.47153 0.96586 0.0
Gd250 Gd 0.56725 0.52536 0.62996 0.0
Gd251 Gd 0.48452 0.5487 0.79327 0.0
N252 N 0.48356 0.58198 0.93462 0.0
C253 C 0.48435 0.61668 0.10899 0.0
C254 C 0.49632 0.61613 0.9406 0.0
C255 C 0.49725 0.63384 0.02791 0.0
H256 H 0.50632 0.62966 0.87843 0.0
H257 H 0.50787 0.66071 0.03257 0.0
H258 H 0.5396 0.53163 0.40376 0.0
H259 H 0.42915 0.47926 0.82074 0.0
H260 H 0.54004 0.57662 0.27552 0.0
H261 H 0.48496 0.6305 0.17644 0.0
H262 H 0.45408 0.5771 0.24875 0.0
H263 H 0.63557 0.55047 0.78361 0.0
H264 H 0.40197 0.47087 0.11492 0.0
H265 H 0.39761 0.44775 0.95105 0.0
H266 H 0.61627 0.67004 0.39626 0.0
H267 H 0.42375 0.5192 0.2263 0.0
H268 H 0.67307 0.65293 0.69869 0.0
H269 H 0.67364 0.60281 0.81239 0.0
N270 N 0.60809 0.57265 0.66385 0.0
C271 C 0.61035 0.59816 0.59507 0.0
C272 C 0.63237 0.57307 0.73759 0.0
C273 C 0.65503 0.63044 0.68761 0.0
C274 C 0.65522 0.60236 0.75232 0.0
C275 C 0.63331 0.62809 0.60624 0.0
H276 H 0.65199 0.67743 0.54275 0.0
N277 N 0.57114 0.56337 0.49849 0.0
C278 C 0.59141 0.59336 0.51026 0.0
C279 C 0.57346 0.61359 0.35411 0.0
C280 C 0.59325 0.61923 0.43781 0.0
C281 C 0.55424 0.55632 0.41399 0.0
C282 C 0.55452 0.58165 0.34125 0.0
O283 O 0.50039 0.49065 0.81917 0.0
O284 O 0.55221 0.47969 0.73055 0.0
O285 O 0.57933 0.47583 0.55609 0.0
O286 O 0.62054 0.51622 0.57273 0.0
O287 O 0.53961 0.56189 0.86174 0.0
O288 O 0.57831 0.52281 0.78873 0.0
O289 O 0.52597 0.568 0.59533 0.0
O290 O 0.51894 0.59449 0.7355 0.0
O291 O 0.43077 0.57159 0.80507 0.0
O292 O 0.45585 0.56631 0.66767 0.0
O293 O 0.51396 0.51154 0.55738 0.0
O294 O 0.4737 0.50513 0.68171 0.0
C295 C 0.52713 0.46969 0.79239 0.0
C296 C 0.56893 0.54192 0.86301 0.0
C297 C 0.63828 0.45739 0.5982 0.0
C298 C 0.66712 0.39934 0.59765 0.0
C299 C 0.67374 0.43778 0.73462 0.0
C300 C 0.65233 0.46348 0.68989 0.0
C301 C 0.68082 0.40554 0.68919 0.0
C302 C 0.64613 0.42553 0.55225 0.0
C303 C 0.61379 0.48317 0.55275 0.0
C304 C 0.61468 0.64981 0.45099 0.0
C305 C 0.63486 0.65411 0.53465 0.0
H306 H 0.5732 0.63345 0.29837 0.0
C307 C 0.52438 0.59761 0.64417 0.0
C308 C 0.48155 0.50351 0.59006 0.0
C309 C 0.4144 0.61257 0.68387 0.0
C310 C 0.41103 0.67647 0.70587 0.0
C311 C 0.3839 0.64953 0.5666 0.0
C312 C 0.39475 0.61591 0.59869 0.0
C313 C 0.39217 0.67993 0.61988 0.0
C314 C 0.42252 0.64292 0.73681 0.0
C315 C 0.42799 0.57772 0.71404 0.0
H316 H 0.68415 0.44254 0.80548 0.0
H317 H 0.64632 0.48783 0.72748 0.0
H318 H 0.69632 0.38528 0.72581 0.0
H319 H 0.63431 0.42037 0.48289 0.0
H320 H 0.36914 0.652 0.50034 0.0
H321 H 0.3884 0.59269 0.55622 0.0
H322 H 0.38348 0.70584 0.59506 0.0
H323 H 0.43799 0.64055 0.8022 0.0
C324 C 0.03658 0.44199 0.97054 0.0
C325 C 0.02679 0.47178 0.12045 0.0
C326 C 1.02007 0.46859 1.02215 0.0
C327 C 0.05233 0.44948 0.16409 0.0
C328 C 0.06058 0.41817 1.01513 0.0
C329 C 0.06929 0.42285 0.1112 0.0
N330 N 0.02745 0.4381 0.87782 0.0
C331 C 0.0384 0.40889 0.82802 0.0
C332 C 0.07415 0.38964 0.96262 0.0
C333 C 0.06241 0.38458 0.86917 0.0
Gd334 Gd 0.04396 0.55045 0.65267 0.0
Gd335 Gd 0.99045 0.48249 0.81193 0.0
N336 N 0.99521 0.48937 0.97784 0.0
C337 C 1.00654 0.49622 0.17251 0.0
C338 C 0.97356 0.51119 0.02962 0.0
C339 C 0.97918 0.51539 0.12705 0.0
H340 H 0.95208 0.52579 0.99594 0.0
H341 H 0.96211 0.5332 0.16669 0.0
H342 H 1.02089 0.53512 0.42815 0.0
H343 H 0.02955 0.40497 0.7556 0.0
H344 H 0.98259 0.56227 0.30265 0.0
H345 H 1.01078 0.49936 0.2482 0.0
H346 H 0.05845 0.45205 0.23904 0.0
H347 H 0.07126 0.61998 0.78821 0.0
H348 H 0.09269 0.37076 0.99451 0.0
H349 H 0.07191 0.36205 0.82876 0.0
H350 H 0.94311 0.67223 0.43913 0.0
H351 H 0.0885 0.40545 0.14527 0.0
H352 H 1.00291 0.70878 0.7259 0.0
H353 H 0.05165 0.68137 0.8222 0.0
N354 N 0.03085 0.61104 0.68237 0.0
C355 C 1.00614 0.62652 0.62411 0.0
C356 C 0.04887 0.63112 0.74858 0.0
C357 C 1.01063 0.68144 0.71276 0.0
C358 C 0.03821 0.66611 0.76706 0.0
C359 C 0.99517 0.66208 0.63781 0.0
H360 H 0.96196 0.70494 0.58268 0.0
N361 N 1.00986 0.57566 0.52861 0.0
C362 C 0.99544 0.60821 0.54384 0.0
C363 C 0.96776 0.60721 0.3882 0.0
C364 C 0.97359 0.62479 0.47449 0.0
C365 C 1.00724 0.56002 0.44138 0.0
C366 C 0.98557 0.57521 0.37056 0.0
O367 O 0.05255 0.47872 0.79258 0.0
O368 O 0.07244 0.53586 0.7907 0.0
O369 O 0.09623 0.5307 0.61032 0.0
O370 O 0.08102 0.58438 0.5737 0.0
O371 O 0.9831 0.54107 0.85179 0.0
O372 O 0.03817 0.56391 0.81055 0.0
O373 O 0.98893 0.52819 0.6058 0.0
O374 O 0.95812 0.52744 0.74301 0.0
O375 O 0.94992 0.45079 0.88486 0.0
O376 O 0.94911 0.4537 0.73205 0.0
O377 O 0.04282 0.49441 0.58573 0.0
O378 O 1.00367 0.45792 0.6708 0.0
C379 C 0.0769 0.50283 0.81851 0.0
C380 C 1.00955 0.56408 0.86594 0.0
C381 C 0.11264 0.55096 0.45819 0.0
C382 C 0.13601 0.50947 0.34002 0.0
C383 C 0.11341 0.56756 0.29162 0.0
C384 C 0.10564 0.57582 0.38583 0.0
C385 C 0.12855 0.5347 0.26866 0.0
C386 C 0.12762 0.5179 0.4344 0.0
C387 C 0.10333 0.55842 0.55806 0.0
C388 C 0.96025 0.65917 0.49114 0.0
C389 C 0.971 0.67779 0.57287 0.0
H390 H 0.95093 0.61883 0.33336 0.0
C391 C 0.958 0.53121 0.65047 0.0
C392 C 0.02489 0.46403 0.59804 0.0
C393 C 0.89428 0.46064 0.80938 0.0
C394 C 0.85586 0.50924 0.86105 0.0
C395 C 0.83005 0.45921 0.77387 0.0
C396 C 0.86423 0.44322 0.76958 0.0
C397 C 0.82569 0.49189 0.82061 0.0
C398 C 0.89001 0.4942 0.84984 0.0
C399 C 0.93088 0.44577 0.80768 0.0
H400 H 0.10786 0.58679 0.23618 0.0
H401 H 0.09391 0.60148 0.40175 0.0
H402 H 0.13497 0.52945 0.19531 0.0
H403 H 0.13228 0.49842 0.4898 0.0
H404 H 0.80673 0.44576 0.74346 0.0
H405 H 0.86717 0.41756 0.73557 0.0
H406 H 0.79877 0.50271 0.82825 0.0
H407 H 0.91355 0.50822 0.87659 0.0
H408 H 0.22659 0.09291 0.43405 0.0
H409 H 0.20395 1.00884 0.23238 0.0
H410 H 0.15463 0.9884 0.33307 0.0
H411 H 0.10759 1.00305 0.45459 0.0
H412 H 0.13157 0.08648 0.65554 0.0
H413 H 0.1868 0.10151 0.5692 0.0
C414 C 0.20996 0.07141 0.40694 0.0
C415 C 0.21879 0.05425 0.32005 0.0
C416 C 0.17933 0.06132 0.46055 0.0
C417 C 0.19804 0.02393 0.29558 0.0
C418 C 0.16861 1.01279 0.35146 0.0
C419 C 0.12492 0.02455 0.47942 0.0
C420 C 0.11476 0.04429 0.56047 0.0
C421 C 0.15742 0.03265 0.43031 0.0
C422 C 0.13829 0.0712 0.59303 0.0
C423 C 0.17001 0.07975 0.5436 0.0
H424 H 0.49641 0.22984 0.37628 0.0
H425 H 0.54709 0.17146 0.15132 0.0
H426 H 0.54518 0.11727 0.24781 0.0
H427 H 0.53768 0.08827 0.404 0.0
H428 H 0.48129 0.14445 0.62367 0.0
H429 H 0.47754 0.19729 0.52256 0.0
C430 C 0.50535 0.20484 0.34632 0.0
C431 C 0.52117 0.20487 0.25511 0.0
C432 C 0.50476 0.17352 0.40304 0.0
C433 C 0.53383 0.17228 0.21957 0.0
C434 C 0.53356 0.14134 0.27571 0.0
C435 C 0.52416 0.11189 0.42966 0.0
C436 C 0.51145 0.11269 0.52404 0.0
C437 C 0.5205 0.1419 0.36894 0.0
C438 C 0.49314 0.14344 0.55384 0.0
C439 C 0.49044 0.17363 0.49514 0.0
H440 H 0.38176 0.43637 0.26356 0.0
H441 H 0.3141 0.52542 0.33393 0.0
H442 H 0.35826 0.54434 0.45507 0.0
H443 H 0.41513 0.53367 0.54769 0.0
H444 H 0.48483 0.44751 0.46719 0.0
H445 H 0.4409 0.42908 0.34523 0.0
C446 C 0.37689 0.46037 0.3041 0.0
C447 C 0.34435 0.47953 0.28808 0.0
C448 C 0.40257 0.47107 0.37403 0.0
C449 C 0.33887 0.51043 0.34237 0.0
C450 C 0.36405 0.52098 0.41297 0.0
C451 C 0.42068 0.51073 0.50418 0.0
C452 C 0.45316 0.49145 0.51925 0.0
C453 C 0.39573 0.50115 0.43086 0.0
C454 C 0.45998 0.46242 0.45921 0.0
C455 C 0.43485 0.45201 0.38883 0.0
H456 H 1.01614 0.32324 0.34115 0.0
H457 H 0.1217 0.36143 0.26039 0.0
H458 H 0.11457 0.41332 0.361 0.0
H459 H 0.07991 0.44928 0.47232 0.0
H460 H 0.97537 0.41108 0.56118 0.0
H461 H 0.97991 0.36035 0.45364 0.0
C462 C 0.03695 0.34369 0.34204 0.0
C463 C 0.06929 0.33812 0.2909 0.0
C464 C 0.0328 0.37453 0.40033 0.0
C465 C 0.09632 0.36472 0.29727 0.0
C466 C 0.09235 0.39481 0.35448 0.0
C467 C 0.05789 0.43015 0.46756 0.0
C468 C 0.02739 0.43448 0.5257 0.0
C469 C 0.06091 0.40019 0.40664 0.0
C470 C 0.99942 0.40876 0.51824 0.0
C471 C 1.00192 0.37951 0.4562 0.0
H472 H 0.84131 0.02635 0.11468 0.0
H473 H 0.88062 0.9248 0.2115 0.0
H474 H 0.93103 0.92844 0.10043 0.0
H475 H 0.96008 0.95727 0.96229 0.0
H476 H 0.92409 0.06094 0.87367 0.0
H477 H 0.87624 0.05928 0.99128 0.0
C478 C 0.86168 1.00569 0.11406 0.0
C479 C 0.85724 0.97558 0.17327 0.0
C480 C 0.89059 1.00766 0.04804 0.0
C481 C 0.88355 0.9486 0.16863 0.0
C482 C 0.91219 0.95042 0.10379 0.0
C483 C 0.94224 0.97975 0.969 0.0
C484 C 0.94546 1.00864 0.9049 0.0
C485 C 0.9154 0.97928 0.04078 0.0
C486 C 0.9217 0.0375 0.91734 0.0
C487 C 0.89445 0.03685 0.98643 0.0
H488 H 0.56669 0.83685 0.06082 0.0
H489 H 0.50862 0.89333 0.27633 0.0
H490 H 0.51222 0.94816 0.18123 0.0
H491 H 0.52432 0.97789 0.02532 0.0
H492 H 0.57639 0.9177 0.80493 0.0
H493 H 0.58228 0.86693 0.91189 0.0
C494 C 0.55635 0.8616 0.08922 0.0
C495 C 0.53812 0.86081 0.17729 0.0
C496 C 0.5562 0.89229 0.03088 0.0
C497 C 0.52369 0.89302 0.21073 0.0
C498 C 0.52495 0.92427 0.15486 0.0
C499 C 0.53728 0.95377 1.00097 0.0
C500 C 0.54981 0.95189 0.90613 0.0
C501 C 0.53982 0.92389 0.06293 0.0
C502 C 0.56629 0.92015 0.87655 0.0
C503 C 0.56984 0.89101 0.93815 0.0
H504 H 0.70077 0.52276 0.15384 0.0
H505 H 0.65595 0.61782 0.27409 0.0
H506 H 0.60501 0.61475 0.16213 0.0
H507 H 0.57535 0.5882 1.01915 0.0
H508 H 0.62105 0.49269 0.9007 0.0
H509 H 0.66774 0.4924 1.02284 0.0
C510 C 0.67881 0.54165 0.15944 0.0
C511 C 0.68196 0.56977 0.2258 0.0
C512 C 0.64945 0.54004 0.09338 0.0
C513 C 0.65383 0.59503 0.22729 0.0
C514 C 0.62476 0.59359 0.162 0.0
C515 C 0.59515 0.56701 1.0207 0.0
C516 C 0.59451 0.54093 0.94805 0.0
C517 C 0.62257 0.56672 0.09287 0.0
C518 C 0.62071 0.51368 0.95331 0.0
C519 C 0.64767 0.51331 0.02402 0.0
H520 H 0.03749 0.68352 0.17752 0.0
H521 H 0.92173 0.67717 0.20112 0.0
H522 H 0.92054 0.62545 0.09594 0.0
H523 H 0.95145 0.58896 0.97288 0.0
H524 H 0.0677 0.59584 0.95143 0.0
H525 H 0.06942 0.64026 0.07696 0.0
C526 C 1.01221 0.66946 0.16461 0.0
C527 C 0.97981 0.68427 0.1996 0.0
C528 C 1.01158 0.64061 0.0996 0.0
C529 C 0.94723 0.66614 0.17817 0.0
C530 C 0.94646 0.63695 0.11545 0.0
C531 C 0.97727 0.59953 0.99688 0.0
C532 C 1.00937 0.58914 0.95002 0.0
C533 C 0.97828 0.62506 0.07164 0.0
C534 C 0.04237 0.60368 0.98315 0.0
C535 C 0.04348 0.629 0.05622 0.0
H536 H 0.18027 0.2132 0.1744 0.0
H537 H 0.14393 0.25674 0.43811 0.0
H538 H 0.14432 0.19809 0.50959 0.0
H539 H 0.12456 0.13773 0.47124 0.0
H540 H 0.13733 0.09975 0.18349 0.0
H541 H 0.1764 0.1491 0.14925 0.0
C542 C 0.17383 0.2098 0.24887 0.0
C543 C 0.15683 0.23794 0.29654 0.0
C544 C 0.16751 0.17533 0.28345 0.0
C545 C 0.15349 0.23475 0.39572 0.0
C546 C 0.15286 0.20081 0.43653 0.0
C547 C 0.13538 0.14003 0.40044 0.0
C548 C 0.12429 0.11634 0.32811 0.0
C549 C 0.15433 0.17107 0.37661 0.0
C550 C 0.1429 0.11797 0.24085 0.0
C551 C 0.1656 0.1467 0.22027 0.0
H552 H 0.33741 0.16587 0.13023 0.0
H553 H 0.29761 0.14019 0.40708 0.0
H554 H 0.35907 0.13692 0.46809 0.0
H555 H 0.41897 0.1142 0.42653 0.0
H556 H 0.44936 0.113 0.13029 0.0
H557 H 0.40019 0.15235 0.09287 0.0
C558 C 0.34236 0.16025 0.20471 0.0
C559 C 0.31351 0.14729 0.25995 0.0
C560 C 0.37745 0.15088 0.23377 0.0
C561 C 0.31949 0.14614 0.35888 0.0
C562 C 0.35494 0.14329 0.39379 0.0
C563 C 0.41484 0.12181 0.35321 0.0
C564 C 0.43677 0.10761 0.28099 0.0
C565 C 0.38345 0.14062 0.32896 0.0
C566 C 0.43279 0.1217 0.18848 0.0
C567 C 0.40416 0.14442 0.16617 0.0
H568 H 0.60165 0.26865 0.41766 0.0
H569 H 0.64951 0.31633 0.16888 0.0
H570 H 0.68755 0.35398 0.26978 0.0
H571 H 0.69348 0.38365 0.42473 0.0
H572 H 0.64339 0.33686 0.67044 0.0
H573 H 0.62155 0.28695 0.57485 0.0
C574 C 0.6215 0.28595 0.3847 0.0
C575 C 0.6215 0.29079 0.2856 0.0
C576 C 0.64281 0.30783 0.44296 0.0
C577 C 0.6478 0.31325 0.24511 0.0
C578 C 0.66967 0.3347 0.30274 0.0
C579 C 0.67924 0.36157 0.45769 0.0
C580 C 0.66919 0.36402 0.55326 0.0
C581 C 0.66536 0.33396 0.40139 0.0
C582 C 0.65117 0.33542 0.59658 0.0
C583 C 0.63824 0.30719 0.54163 0.0
H584 H 0.20831 0.37191 0.17216 0.0
H585 H 0.2771 0.38972 0.40942 0.0
H586 H 0.2313 0.42718 0.4835 0.0
H587 H 0.18531 0.47301 0.44716 0.0
H588 H 0.12727 0.46844 0.17996 0.0
H589 H 0.15819 0.41331 0.14 0.0
C590 C 0.21338 0.38479 0.2398 0.0
C591 C 0.24936 0.3881 0.2729 0.0
C592 C 0.18973 0.41159 0.26996 0.0
C593 C 0.25199 0.3943 0.37148 0.0
C594 C 0.22616 0.41644 0.41335 0.0
C595 C 0.17823 0.45947 0.38172 0.0
C596 C 0.15338 0.47484 0.3174 0.0
C597 C 0.19707 0.42865 0.3574 0.0
C598 C 0.14616 0.4574 0.23082 0.0
C599 C 0.16346 0.42554 0.20836 0.0
H600 H 0.02359 0.75081 0.98037 0.0
H601 H 0.94484 0.83362 1.02208 0.0
H602 H 0.95999 0.85907 0.8667 0.0
H603 H 1.00458 0.86424 0.74026 0.0
H604 H 0.08514 0.78294 0.70375 0.0
H605 H 0.05943 0.74934 0.83573 0.0
C606 C 1.00918 0.77405 0.95462 0.0
C607 C 0.98375 0.791 1.01289 0.0
C608 C 1.01845 0.78863 0.86706 0.0
C609 C 0.96509 0.82081 0.97893 0.0
C610 C 0.97357 0.83507 0.89016 0.0
C611 C 1.01545 0.83841 0.75824 0.0
C612 C 0.04699 0.82633 0.7136 0.0
C613 C 1.00153 0.82022 0.83638 0.0
C614 C 0.06094 0.79282 0.73745 0.0
C615 C 0.04658 0.77391 0.81374 0.0
H616 H 0.70623 0.88842 0.24041 0.0
H617 H 0.76489 0.93275 1.00519 0.0
H618 H 0.70894 0.95108 0.93101 0.0
H619 H 0.65299 0.97992 0.97495 0.0
H620 H 0.59617 0.94663 0.2264 0.0
H621 H 0.64105 0.90017 0.25399 0.0
C622 C 0.70654 0.9009 0.17096 0.0
C623 C 0.73968 0.91357 0.13475 0.0
C624 C 0.67446 0.91577 0.13516 0.0
C625 C 0.7399 0.92547 0.03992 0.0
C626 C 0.70769 0.93677 0.99777 0.0
C627 C 0.64905 0.96165 0.0335 0.0
C628 C 0.62264 0.96845 0.10263 0.0
C629 C 0.67592 0.93642 0.05143 0.0
C630 C 0.61777 0.94344 0.17586 0.0
C631 C 0.64329 0.91669 0.19118 0.0
H632 H 0.49282 0.7843 0.96052 0.0
H633 H 0.42181 0.73746 0.16886 0.0
H634 H 0.38827 0.7067 0.04335 0.0
H635 H 0.38453 0.68731 0.87824 0.0
H636 H 0.45698 0.73162 0.67084 0.0
H637 H 0.48361 0.771 0.79176 0.0
C638 C 0.46942 0.76812 0.9783 0.0
C639 C 0.46004 0.76271 0.07381 0.0
C640 C 0.45043 0.75049 0.906 0.0
C641 C 0.42994 0.74135 0.0959 0.0
C642 C 0.41065 0.72401 0.02429 0.0
C643 C 0.40533 0.70654 0.8594 0.0
C644 C 0.41892 0.70702 0.76696 0.0
C645 C 0.42136 0.72759 0.92966 0.0
C646 C 0.44602 0.73144 0.74193 0.0
C647 C 0.4615 0.75343 0.81117 0.0
H648 H 0.8465 0.6083 0.20991 0.0
H649 H 0.75623 0.65005 0.05088 0.0
H650 H 0.7782 0.62064 0.90818 0.0
H651 H 0.81113 0.56766 0.84621 0.0
H652 H 0.89148 0.51848 0.02722 0.0
H653 H 0.88478 0.56476 0.14322 0.0
C654 C 0.83133 0.61166 0.14465 0.0
C655 C 0.79648 0.62654 0.14493 0.0
C656 C 0.84201 0.59173 0.06647 0.0
C657 C 0.78096 0.63483 0.05573 0.0
C658 C 0.79328 0.61769 0.97392 0.0
C659 C 0.82746 0.5675 0.91034 0.0
C660 C 0.85239 0.53992 0.92642 0.0
C661 C 0.82154 0.59303 0.98143 0.0
C662 C 0.87331 0.54009 1.01036 0.0
C663 C 0.86917 0.56642 0.0779 0.0
H664 H 0.0615 0.17819 0.17269 0.0
H665 H 0.04201 0.2603 0.96548 0.0
H666 H 0.02637 0.2144 0.84673 0.0
H667 H 0.02449 0.14948 0.79695 0.0
H668 H 0.05072 0.06971 1.00735 0.0
H669 H 0.05817 0.11574 0.12661 0.0
C670 C 0.05312 0.18631 0.10198 0.0
C671 C 0.05282 0.22317 0.07933 0.0
C672 C 0.04629 0.15972 0.03283 0.0
C673 C 0.04199 0.23256 0.98659 0.0
C674 C 0.03364 0.20607 0.91791 0.0
C675 C 0.03163 0.14212 0.86901 0.0
C676 C 0.03722 0.1055 0.89141 0.0
C677 C 0.03671 0.16934 0.93921 0.0
C678 C 0.04658 0.09712 0.98599 0.0
C679 C 0.05069 0.12359 0.05526 0.0
H680 H 0.36387 0.03932 0.1671 0.0
H681 H 0.28413 0.04406 0.94399 0.0
H682 H 0.33137 0.03362 0.82536 0.0
H683 H 0.39754 0.03098 0.78357 0.0
H684 H 0.47589 0.03034 1.01262 0.0
H685 H 0.42764 0.03115 0.12792 0.0
C686 C 0.35652 0.03635 0.09283 0.0
C687 C 0.32 0.04124 0.06548 0.0
C688 C 0.38417 0.03225 0.02476 0.0
C689 C 0.31155 0.03908 0.96804 0.0
C690 C 0.33886 0.03387 0.8998 0.0
C691 C 0.40406 0.03066 0.85863 0.0
C692 C 0.44093 0.03107 0.88784 0.0
C693 C 0.37563 0.03169 0.92686 0.0
C694 C 0.44828 0.03062 0.98631 0.0
C695 C 0.42053 0.03097 0.05325 0.0
H696 H 0.57408 0.31897 0.96096 0.0
H697 H 0.47708 0.33205 0.12414 0.0
H698 H 0.46345 0.38719 0.03666 0.0
H699 H 0.48267 0.43513 0.92388 0.0
H700 H 0.58074 0.42085 0.7639 0.0
H701 H 0.59034 0.36357 0.84018 0.0
C702 C 0.54938 0.33335 0.9758 0.0
C703 C 0.52647 0.32082 0.04897 0.0
C704 C 0.5423 0.36557 0.92686 0.0
C705 C 0.49488 0.34031 0.06743 0.0
C706 C 0.4874 0.37229 1.01815 0.0
C707 C 0.50594 0.41945 0.90471 0.0
C708 C 0.53091 0.43316 0.83744 0.0
C709 C 0.51145 0.38579 0.94933 0.0
C710 C 0.56091 0.41178 0.81483 0.0
C711 C 0.56651 0.37868 0.85866 0.0
H712 H 0.22727 0.43668 0.9527 0.0
H713 H 0.2299 0.52983 0.13162 0.0
H714 H 0.174 0.55092 0.05515 0.0
H715 H 0.12051 0.54016 0.94639 0.0
H716 H 0.11482 0.44163 0.79012 0.0
H717 H 0.1739 0.42442 0.85372 0.0
C718 C 0.21569 0.46145 0.97703 0.0
C719 C 0.23353 0.48114 0.05028 0.0
C720 C 0.18184 0.47199 0.93833 0.0
C721 C 0.21788 0.51395 0.07548 0.0
C722 C 0.18524 0.52575 0.03269 0.0
C723 C 0.13222 0.5149 0.92626 0.0
C724 C 0.11277 0.49225 0.86266 0.0
C725 C 0.16635 0.50457 0.96565 0.0
C726 C 0.12855 0.45952 0.83884 0.0
C727 C 0.16267 0.44978 0.87486 0.0
H728 H 0.03109 0.8416 0.29427 0.0
H729 H 0.9508 0.78526 0.45682 0.0
H730 H 0.95186 0.83323 0.57585 0.0
H731 H 0.97161 0.89508 0.62608 0.0
H732 H 0.05243 0.94918 0.45951 0.0
H733 H 0.054 0.89929 0.34961 0.0
C734 C 1.01382 0.83949 0.35589 0.0
C735 C 0.99054 0.80952 0.36487 0.0
C736 C 1.01406 0.86756 0.42309 0.0
C737 C 0.96912 0.80755 0.44709 0.0
C738 C 0.96944 0.83537 0.51495 0.0
C739 C 0.99023 0.89551 0.56713 0.0
C740 C 1.01225 0.92615 0.5529 0.0
C741 C 0.99122 0.86606 0.50283 0.0
C742 C 0.03509 0.92643 0.4733 0.0
C743 C 0.03607 0.89772 0.4099 0.0
H744 H 0.71564 0.02238 0.30792 0.0
H745 H 0.77405 0.96439 0.52227 0.0
H746 H 0.72602 0.9763 0.63692 0.0
H747 H 0.66254 0.99672 0.67048 0.0
H748 H 0.60364 0.0505 0.44776 0.0
H749 H 0.65613 0.04723 0.34479 0.0
C750 C 0.7187 1.01378 0.38103 0.0
C751 C 0.7496 0.9938 0.40675 0.0
C752 C 0.68983 0.01903 0.44518 0.0
C753 C 0.75181 0.98129 0.50091 0.0
C754 C 0.72369 0.9874 0.56619 0.0
C755 C 0.66131 1.00796 0.59971 0.0
C756 C 0.62853 0.02346 0.56725 0.0
C757 C 0.69182 1.0052 0.53838 0.0
C758 C 0.62788 0.03782 0.47485 0.0
C759 C 0.65803 0.03604 0.41545 0.0
H760 H 0.46719 0.71945 0.3735 0.0
H761 H 0.57176 0.76607 0.4355 0.0
H762 H 0.58161 0.72015 0.55779 0.0
H763 H 0.56293 0.66179 0.63514 0.0
H764 H 0.46714 0.60903 0.52863 0.0
H765 H 0.45205 0.66109 0.43419 0.0
C766 C 0.49301 0.71945 0.41033 0.0
C767 C 0.51928 0.7462 0.39016 0.0
C768 C 0.49999 0.69117 0.47364 0.0
C769 C 0.55092 0.7462 0.44687 0.0
C770 C 0.55674 0.71949 0.51665 0.0
C771 C 0.53864 0.66191 0.59174 0.0
C772 C 0.51529 0.63167 0.59282 0.0
C773 C 0.53189 0.69108 0.5289 0.0
C774 C 0.48462 0.63214 0.53358 0.0
C775 C 0.47626 0.66189 0.47804 0.0
H776 H 0.83421 0.54141 0.33383 0.0
H777 H 0.77211 0.58295 0.56506 0.0
H778 H 0.82279 0.57099 0.67491 0.0
H779 H 0.88817 0.55396 0.70242 0.0
H780 H 0.94824 0.51242 0.46607 0.0
H781 H 0.89596 0.51968 0.36283 0.0
C782 C 0.83119 0.54672 0.40898 0.0
C783 C 0.79859 0.56224 0.4408 0.0
C784 C 0.86092 0.5407 0.47122 0.0
C785 C 0.79608 0.57003 0.53827 0.0
C786 C 0.82548 0.56365 0.6011 0.0
C787 C 0.88968 0.54599 0.62874 0.0
C788 C 0.92312 0.53332 0.59271 0.0
C789 C 0.85858 0.54978 0.56819 0.0
C790 C 0.92385 0.52326 0.49642 0.0
C791 C 0.89357 0.52705 0.43683 0.0
loop_
_geom_bond_atom_site_label_1
_geom_bond_atom_site_label_2
_geom_bond_distance
_geom_bond_site_symmetry_2
_ccdc_geom_bond_type
H0 C3 0.931 . S
H1 C6 0.928 . S
H2 C8 0.930 . S
C3 H0 0.931 . S
C3 C4 1.413 . S
C3 C5 1.360 . S
C4 C3 1.413 . S
C4 C8 1.429 . S
C5 C3 1.360 . S
C5 C6 1.372 . S
C6 H1 0.928 . S
C6 C5 1.372 . S
C6 C7 1.404 . S
C7 C6 1.404 . S
C7 C8 1.391 . S
C8 H2 0.930 . S
C8 C4 1.429 . S
C8 C7 1.391 . S
H9 C12 0.931 . S
H10 C15 0.928 . S
H11 C17 0.930 . S
C12 H9 0.931 . S
C12 C13 1.413 . S
C12 C14 1.360 . S
C13 C12 1.413 . S
C13 C17 1.429 . S
C14 C12 1.360 . S
C14 C15 1.372 . S
C15 H10 0.928 . S
C15 C14 1.372 . S
C15 C16 1.404 . S
C16 C15 1.404 . S
C16 C17 1.391 . S
C17 H11 0.930 . S
C17 C13 1.429 . S
C17 C16 1.391 . S
H18 C21 0.931 . S
H19 C24 0.928 . S
H20 C26 0.930 . S
C21 H18 0.931 . S
C21 C22 1.413 . S
C21 C23 1.360 . S
C22 C21 1.413 . S
C22 C26 1.429 . S
C23 C21 1.360 . S
C23 C24 1.372 . S
C24 H19 0.928 . S
C24 C23 1.372 . S
C24 C25 1.404 . S
C25 C24 1.404 . S
C25 C26 1.391 . S
C26 H20 0.930 . S
C26 C22 1.429 . S
C26 C25 1.391 . S
H27 C30 0.931 . S
H28 C33 0.928 . S
H29 C35 0.930 . S
C30 H27 0.931 . S
C30 C31 1.413 . S
C30 C32 1.360 . S
C31 C30 1.413 . S
C31 C35 1.429 . S
C32 C30 1.360 . S
C32 C33 1.372 . S
C33 H28 0.928 . S
C33 C32 1.372 . S
C33 C34 1.404 . S
C34 C33 1.404 . S
C34 C35 1.391 . S
C35 H29 0.930 . S
C35 C31 1.429 . S
C35 C34 1.391 . S
H36 C39 0.930 . S
H37 C42 0.928 . S
H38 C44 0.930 . S
C39 H36 0.930 . S
C39 C40 1.413 1_554 S
C39 C41 1.360 . S
C40 C39 1.413 1_556 S
C40 C44 1.429 . S
C41 C39 1.360 . S
C41 C42 1.372 . S
C42 H37 0.928 . S
C42 C41 1.372 . S
C42 C43 1.404 . S
C43 C42 1.404 . S
C43 C44 1.391 1_554 S
C44 H38 0.930 . S
C44 C40 1.429 . S
C44 C43 1.391 1_556 S
H45 C48 0.931 . S
H46 C51 0.928 . S
H47 C53 0.930 . S
C48 H45 0.931 . S
C48 C49 1.413 1_554 S
C48 C50 1.360 . S
C49 C48 1.413 1_556 S
C49 C53 1.429 . S
C50 C48 1.360 . S
C50 C51 1.372 . S
C51 H46 0.928 . S
C51 C50 1.372 . S
C51 C52 1.404 . S
C52 C51 1.404 . S
C52 C53 1.391 1_554 S
C53 H47 0.930 . S
C53 C49 1.429 . S
C53 C52 1.391 1_556 S
H54 C57 0.933 . S
H55 C60 0.928 . S
H56 C62 0.930 . S
C57 H54 0.933 . S
C57 C58 1.413 1_554 S
C57 C59 1.360 . S
C58 C57 1.413 1_556 S
C58 C62 1.429 . S
C59 C57 1.360 . S
C59 C60 1.372 . S
C60 H55 0.928 . S
C60 C59 1.372 . S
C60 C61 1.404 . S
C61 C60 1.404 . S
C61 C62 1.391 1_554 S
C62 H56 0.930 . S
C62 C58 1.429 . S
C62 C61 1.391 1_556 S
H63 C66 0.931 1_556 S
H64 C69 0.928 . S
H65 C71 0.930 . S
C66 H63 0.931 1_554 S
C66 C67 1.413 . S
C66 C68 1.360 1_554 S
C67 C66 1.413 . S
C67 C71 1.429 . S
C68 C66 1.360 1_556 S
C68 C69 1.372 . S
C69 H64 0.928 . S
C69 C68 1.372 . S
C69 C70 1.404 1_556 S
C70 C69 1.404 1_554 S
C70 C71 1.391 . S
C71 H65 0.930 . S
C71 C67 1.429 . S
C71 C70 1.391 . S
C72 C74 1.422 . S
C72 C76 1.415 . S
C72 N78 1.369 . S
C73 C74 1.421 1_554 S
C73 C75 1.417 . S
C73 C85 1.422 . S
C74 C72 1.422 . S
C74 C73 1.421 1_556 S
C74 N84 1.359 . S
C75 C73 1.417 . S
C75 C77 1.333 . S
C75 H94 0.930 . S
C76 C72 1.415 . S
C76 C77 1.431 1_556 S
C76 C80 1.413 . S
C77 C75 1.333 . S
C77 C76 1.431 1_554 S
C77 H99 0.931 . S
N78 C72 1.369 . S
N78 C79 1.335 1_545 S
N78 Gd83 2.622 1_545 S
C79 N78 1.335 1_565 S
C79 C81 1.366 1_565 S
C79 H91 0.946 . S
C80 C76 1.413 . S
C80 C81 1.348 . S
C80 H96 0.931 . S
C81 C79 1.366 1_545 S
C81 C80 1.348 . S
C81 H97 0.930 . S
Gd82 N102 2.622 . S
Gd82 N109 2.570 . S
Gd82 O116 2.348 1_655 S
Gd82 O117 2.468 . S
Gd82 O118 2.427 . S
Gd82 O120 2.388 . S
Gd82 O121 2.386 1_545 S
Gd82 O125 2.307 1_655 S
Gd82 C135 2.805 . S
Gd83 N78 2.622 1_565 S
Gd83 N84 2.570 1_565 S
Gd83 O115 2.386 1_565 S
Gd83 O119 2.307 1_455 S
Gd83 O122 2.353 . S
Gd83 O123 2.468 . S
Gd83 O124 2.427 . S
Gd83 O126 2.388 . S
Gd83 C147 2.805 . S
N84 C74 1.359 . S
N84 Gd83 2.570 1_545 S
N84 C86 1.343 . S
C85 C73 1.422 . S
C85 C87 1.321 . S
C85 H93 0.931 . S
C86 N84 1.343 . S
C86 C87 1.390 1_556 S
C86 H88 0.931 . S
C87 C85 1.321 . S
C87 C86 1.390 1_554 S
C87 H89 0.930 . S
H88 C86 0.931 . S
H89 C87 0.930 . S
H90 C113 0.931 1_455 S
H91 C79 0.946 . S
H92 C114 0.932 . S
H93 C85 0.931 . S
H94 C75 0.930 . S
H95 C104 0.929 . S
H96 C80 0.931 . S
H97 C81 0.930 . S
H98 C136 0.930 . S
H99 C77 0.931 . S
H100 C105 0.931 . S
H101 C106 0.930 . S
N102 Gd82 2.622 . S
N102 C103 1.369 1_545 S
N102 C104 1.338 . S
C103 N102 1.369 1_565 S
C103 C107 1.415 . S
C103 C110 1.422 . S
C104 H95 0.929 . S
C104 N102 1.338 . S
C104 C106 1.378 . S
C105 H100 0.931 . S
C105 C106 1.348 1_565 S
C105 C107 1.413 . S
C106 H101 0.930 . S
C106 C104 1.378 . S
C106 C105 1.348 1_545 S
C107 C103 1.415 . S
C107 C105 1.413 . S
C107 C137 1.437 . S
H108 C137 0.929 . S
N109 Gd82 2.570 . S
N109 C110 1.359 1_545 S
N109 C113 1.343 . S
C110 C103 1.422 . S
C110 N109 1.359 1_565 S
C110 C112 1.421 . S
C111 C112 1.422 . S
C111 C114 1.321 . S
C111 H138 0.931 . S
C112 C110 1.421 . S
C112 C111 1.422 . S
C112 C136 1.417 . S
C113 H90 0.931 1_655 S
C113 N109 1.343 . S
C113 C114 1.390 1_545 S
C114 H92 0.932 . S
C114 C111 1.321 . S
C114 C113 1.390 1_565 S
O115 Gd83 2.386 1_545 S
O115 C127 1.265 . S
O116 Gd82 2.348 1_455 S
O116 C127 1.248 . S
O117 Gd82 2.468 . S
O117 C135 1.263 . S
O118 Gd82 2.427 . S
O118 C135 1.252 . S
O119 Gd83 2.307 1_655 S
O119 C128 1.261 1_565 S
O120 Gd82 2.388 . S
O120 C128 1.252 . S
O121 Gd82 2.386 1_565 S
O121 C139 1.265 . S
O122 Gd83 2.353 . S
O122 C139 1.242 1_455 S
O123 Gd83 2.468 . S
O123 C147 1.263 . S
O124 Gd83 2.427 . S
O124 C147 1.252 . S
O125 Gd82 2.307 1_455 S
O125 C140 1.261 . S
O126 Gd83 2.388 . S
O126 C140 1.252 1_565 S
C127 O115 1.265 . S
C127 O116 1.248 . S
C128 O119 1.261 1_545 S
C128 O120 1.252 . S
C129 C132 1.394 . S
C129 C134 1.370 . S
C129 C135 1.500 . S
C130 C133 1.383 . S
C130 C134 1.395 . S
C131 C132 1.396 . S
C131 C133 1.365 . S
C131 H148 0.929 . S
C132 C129 1.394 . S
C132 C131 1.396 . S
C132 H149 0.930 . S
C133 C130 1.383 . S
C133 C131 1.365 . S
C133 H150 0.931 . S
C134 C129 1.370 . S
C134 C130 1.395 . S
C134 H151 0.940 . S
C135 Gd82 2.805 . S
C135 O117 1.263 . S
C135 O118 1.252 . S
C135 C129 1.500 . S
C136 H98 0.930 . S
C136 C112 1.417 . S
C136 C137 1.329 . S
C137 C107 1.437 . S
C137 H108 0.929 . S
C137 C136 1.329 . S
H138 C111 0.931 . S
C139 O121 1.265 . S
C139 O122 1.242 1_655 S
C140 O125 1.261 . S
C140 O126 1.252 1_545 S
C141 C144 1.394 . S
C141 C146 1.370 . S
C141 C147 1.500 . S
C142 C145 1.383 . S
C142 C146 1.395 1_554 S
C143 C144 1.396 . S
C143 C145 1.365 1_556 S
C143 H152 0.929 . S
C144 C141 1.394 . S
C144 C143 1.396 . S
C144 H153 0.930 . S
C145 C142 1.383 . S
C145 C143 1.365 1_554 S
C145 H154 0.931 . S
C146 C141 1.370 . S
C146 C142 1.395 1_556 S
C146 H155 0.930 . S
C147 Gd83 2.805 . S
C147 O123 1.263 . S
C147 O124 1.252 . S
C147 C141 1.500 . S
H148 C131 0.929 . S
H149 C132 0.930 . S
H150 C133 0.931 . S
H151 C134 0.940 . S
H152 C143 0.929 . S
H153 C144 0.930 . S
H154 C145 0.931 . S
H155 C146 0.930 . S
C156 C158 1.422 . S
C156 C160 1.415 . S
C156 N162 1.369 . S
C157 C158 1.421 . S
C157 C159 1.417 . S
C157 C169 1.422 . S
C158 C156 1.422 . S
C158 C157 1.421 . S
C158 N168 1.359 . S
C159 C157 1.417 . S
C159 C161 1.329 . S
C159 H178 0.930 . S
C160 C156 1.415 . S
C160 C161 1.437 . S
C160 C164 1.413 . S
C161 C159 1.329 . S
C161 C160 1.437 . S
C161 H183 0.929 . S
N162 C156 1.369 . S
N162 C163 1.338 . S
N162 Gd167 2.622 . S
C163 N162 1.338 . S
C163 C165 1.378 . S
C163 H175 0.929 . S
C164 C160 1.413 . S
C164 C165 1.348 . S
C164 H180 0.931 . S
C165 C163 1.378 . S
C165 C164 1.348 . S
C165 H181 0.930 . S
Gd166 N186 2.622 . S
Gd166 N193 2.570 . S
Gd166 O200 2.353 1_545 S
Gd166 O201 2.468 . S
Gd166 O202 2.427 . S
Gd166 O204 2.388 . S
Gd166 O205 2.386 . S
Gd166 O209 2.307 . S
Gd166 C219 2.805 . S
Gd167 N162 2.622 . S
Gd167 N168 2.570 . S
Gd167 O199 2.386 . S
Gd167 O203 2.303 1_565 S
Gd167 O206 2.353 1_565 S
Gd167 O207 2.468 . S
Gd167 O208 2.427 . S
Gd167 O210 2.388 . S
Gd167 C231 2.805 . S
N168 C158 1.359 . S
N168 Gd167 2.570 . S
N168 C170 1.343 . S
C169 C157 1.422 . S
C169 C171 1.321 . S
C169 H177 0.931 . S
C170 N168 1.343 . S
C170 C171 1.390 . S
C170 H172 0.931 . S
C171 C169 1.321 . S
C171 C170 1.390 . S
C171 H173 0.930 . S
H172 C170 0.931 . S
H173 C171 0.930 . S
H174 C197 0.931 . S
H175 C163 0.929 . S
H176 C198 0.930 . S
H177 C169 0.931 . S
H178 C159 0.930 . S
H179 C188 0.929 . S
H180 C164 0.931 . S
H181 C165 0.930 . S
H182 C220 0.930 . S
H183 C161 0.929 . S
H184 C189 0.931 . S
H185 C190 0.930 . S
N186 Gd166 2.622 . S
N186 C187 1.369 . S
N186 C188 1.338 . S
C187 N186 1.369 . S
C187 C191 1.415 . S
C187 C194 1.422 . S
C188 H179 0.929 . S
C188 N186 1.338 . S
C188 C190 1.378 . S
C189 H184 0.931 . S
C189 C190 1.348 . S
C189 C191 1.413 . S
C190 H185 0.930 . S
C190 C188 1.378 . S
C190 C189 1.348 . S
C191 C187 1.415 . S
C191 C189 1.413 . S
C191 C221 1.437 . S
H192 C221 0.929 . S
N193 Gd166 2.570 . S
N193 C194 1.359 . S
N193 C197 1.343 . S
C194 C187 1.422 . S
C194 N193 1.359 . S
C194 C196 1.421 . S
C195 C196 1.422 . S
C195 C198 1.321 . S
C195 H222 0.931 . S
C196 C194 1.421 . S
C196 C195 1.422 . S
C196 C220 1.417 . S
C197 H174 0.931 . S
C197 N193 1.343 . S
C197 C198 1.390 . S
C198 H176 0.930 . S
C198 C195 1.321 . S
C198 C197 1.390 . S
O199 Gd167 2.386 . S
O199 C211 1.265 . S
O200 Gd166 2.353 1_565 S
O200 C211 1.242 . S
O201 Gd166 2.468 . S
O201 C219 1.263 . S
O202 Gd166 2.427 . S
O202 C219 1.252 . S
O203 Gd167 2.303 1_545 S
O203 C212 1.267 . S
O204 Gd166 2.388 . S
O204 C212 1.252 . S
O205 Gd166 2.386 . S
O205 C223 1.265 . S
O206 Gd167 2.353 1_545 S
O206 C223 1.242 . S
O207 Gd167 2.468 . S
O207 C231 1.263 . S
O208 Gd167 2.427 . S
O208 C231 1.252 . S
O209 Gd166 2.307 . S
O209 C224 1.261 1_545 S
O210 Gd167 2.388 . S
O210 C224 1.252 . S
C211 O199 1.265 . S
C211 O200 1.242 . S
C212 O203 1.267 . S
C212 O204 1.252 . S
C213 C216 1.394 . S
C213 C218 1.370 1_554 S
C213 C219 1.500 1_554 S
C214 C217 1.383 . S
C214 C218 1.395 1_554 S
C215 C216 1.396 . S
C215 C217 1.365 . S
C215 H232 0.929 . S
C216 C213 1.394 . S
C216 C215 1.396 . S
C216 H233 0.930 . S
C217 C214 1.383 . S
C217 C215 1.365 . S
C217 H234 0.931 . S
C218 C213 1.370 1_556 S
C218 C214 1.395 1_556 S
C218 H235 0.930 . S
C219 Gd166 2.805 . S
C219 O201 1.263 . S
C219 O202 1.252 . S
C219 C213 1.500 1_556 S
C220 H182 0.930 . S
C220 C196 1.417 . S
C220 C221 1.329 . S
C221 C191 1.437 . S
C221 H192 0.929 . S
C221 C220 1.329 . S
H222 C195 0.931 . S
C223 O205 1.265 . S
C223 O206 1.242 . S
C224 O209 1.261 1_565 S
C224 O210 1.252 . S
C225 C228 1.394 . S
C225 C230 1.370 . S
C225 C231 1.500 . S
C226 C229 1.383 . S
C226 C230 1.395 . S
C227 C228 1.396 . S
C227 C229 1.365 . S
C227 H236 0.929 . S
C228 C225 1.394 . S
C228 C227 1.396 . S
C228 H237 0.930 . S
C229 C226 1.383 . S
C229 C227 1.365 . S
C229 H238 0.931 . S
C230 C225 1.370 . S
C230 C226 1.395 . S
C230 H239 0.930 . S
C231 Gd167 2.805 . S
C231 O207 1.263 . S
C231 O208 1.252 . S
C231 C225 1.500 . S
H232 C215 0.929 . S
H233 C216 0.930 . S
H234 C217 0.931 . S
H235 C218 0.930 . S
H236 C227 0.929 . S
H237 C228 0.930 . S
H238 C229 0.931 . S
H239 C230 0.930 . S
C240 C242 1.422 . S
C240 C244 1.415 . S
C240 N246 1.369 . S
C241 C242 1.421 1_554 S
C241 C243 1.417 . S
C241 C253 1.422 . S
C242 C240 1.422 . S
C242 C241 1.421 1_556 S
C242 N252 1.359 . S
C243 C241 1.417 . S
C243 C245 1.331 . S
C243 H262 0.930 . S
C244 C240 1.415 . S
C244 C245 1.435 1_556 S
C244 C248 1.413 . S
C245 C243 1.331 . S
C245 C244 1.435 1_554 S
C245 H267 0.930 . S
N246 C240 1.369 . S
N246 C247 1.338 . S
N246 Gd251 2.622 . S
C247 N246 1.338 . S
C247 C249 1.378 . S
C247 H259 0.929 . S
C248 C244 1.413 . S
C248 C249 1.348 . S
C248 H264 0.931 . S
C249 C247 1.378 . S
C249 C248 1.348 . S
C249 H265 0.930 . S
Gd250 N270 2.622 . S
Gd250 N277 2.570 . S
Gd250 O284 2.353 . S
Gd250 O285 2.468 . S
Gd250 O286 2.427 . S
Gd250 O288 2.388 . S
Gd250 O289 2.386 . S
Gd250 O293 2.307 . S
Gd250 C303 2.805 . S
Gd251 N246 2.622 . S
Gd251 N252 2.570 . S
Gd251 O283 2.386 . S
Gd251 O287 2.307 . S
Gd251 O290 2.353 . S
Gd251 O291 2.468 . S
Gd251 O292 2.427 . S
Gd251 O294 2.388 . S
Gd251 C315 2.805 . S
N252 C242 1.359 . S
N252 Gd251 2.570 . S
N252 C254 1.343 . S
C253 C241 1.422 . S
C253 C255 1.321 . S
C253 H261 0.931 . S
C254 N252 1.343 . S
C254 C255 1.390 1_556 S
C254 H256 0.931 . S
C255 C253 1.321 . S
C255 C254 1.390 1_554 S
C255 H257 0.930 . S
H256 C254 0.931 . S
H257 C255 0.930 . S
H258 C281 0.931 . S
H259 C247 0.929 . S
H260 C282 0.930 . S
H261 C253 0.931 . S
H262 C243 0.930 . S
H263 C272 0.929 . S
H264 C248 0.931 . S
H265 C249 0.930 . S
H266 C304 0.930 . S
H267 C245 0.930 . S
H268 C273 0.931 . S
H269 C274 0.930 . S
N270 Gd250 2.622 . S
N270 C271 1.369 . S
N270 C272 1.338 . S
C271 N270 1.369 . S
C271 C275 1.415 . S
C271 C278 1.422 . S
C272 H263 0.929 . S
C272 N270 1.338 . S
C272 C274 1.378 . S
C273 H268 0.931 . S
C273 C274 1.348 . S
C273 C275 1.413 . S
C274 H269 0.930 . S
C274 C272 1.378 . S
C274 C273 1.348 . S
C275 C271 1.415 . S
C275 C273 1.413 . S
C275 C305 1.437 . S
H276 C305 0.929 . S
N277 Gd250 2.570 . S
N277 C278 1.359 . S
N277 C281 1.343 . S
C278 C271 1.422 . S
C278 N277 1.359 . S
C278 C280 1.421 . S
C279 C280 1.422 . S
C279 C282 1.321 . S
C279 H306 0.931 . S
C280 C278 1.421 . S
C280 C279 1.422 . S
C280 C304 1.417 . S
C281 H258 0.931 . S
C281 N277 1.343 . S
C281 C282 1.390 . S
C282 H260 0.930 . S
C282 C279 1.321 . S
C282 C281 1.390 . S
O283 Gd251 2.386 . S
O283 C295 1.265 . S
O284 Gd250 2.353 . S
O284 C295 1.242 . S
O285 Gd250 2.468 . S
O285 C303 1.263 . S
O286 Gd250 2.427 . S
O286 C303 1.252 . S
O287 Gd251 2.307 . S
O287 C296 1.261 . S
O288 Gd250 2.388 . S
O288 C296 1.252 . S
O289 Gd250 2.386 . S
O289 C307 1.265 . S
O290 Gd251 2.353 . S
O290 C307 1.242 . S
O291 Gd251 2.468 . S
O291 C315 1.263 . S
O292 Gd251 2.427 . S
O292 C315 1.252 . S
O293 Gd250 2.307 . S
O293 C308 1.261 . S
O294 Gd251 2.388 . S
O294 C308 1.252 . S
C295 O283 1.265 . S
C295 O284 1.242 . S
C296 O287 1.261 . S
C296 O288 1.252 . S
C297 C300 1.394 . S
C297 C302 1.370 . S
C297 C303 1.500 . S
C298 C301 1.383 . S
C298 C302 1.395 . S
C299 C300 1.396 . S
C299 C301 1.365 . S
C299 H316 0.929 . S
C300 C297 1.394 . S
C300 C299 1.396 . S
C300 H317 0.930 . S
C301 C298 1.383 . S
C301 C299 1.365 . S
C301 H318 0.931 . S
C302 C297 1.370 . S
C302 C298 1.395 . S
C302 H319 0.930 . S
C303 Gd250 2.805 . S
C303 O285 1.263 . S
C303 O286 1.252 . S
C303 C297 1.500 . S
C304 H266 0.930 . S
C304 C280 1.417 . S
C304 C305 1.329 . S
C305 C275 1.437 . S
C305 H276 0.929 . S
C305 C304 1.329 . S
H306 C279 0.931 . S
C307 O289 1.265 . S
C307 O290 1.242 . S
C308 O293 1.261 . S
C308 O294 1.252 . S
C309 C312 1.394 . S
C309 C314 1.370 . S
C309 C315 1.500 . S
C310 C313 1.383 . S
C310 C314 1.395 1_554 S
C311 C312 1.396 . S
C311 C313 1.365 1_556 S
C311 H320 0.929 . S
C312 C309 1.394 . S
C312 C311 1.396 . S
C312 H321 0.930 . S
C313 C310 1.383 . S
C313 C311 1.365 1_554 S
C313 H322 0.931 . S
C314 C309 1.370 . S
C314 C310 1.395 1_556 S
C314 H323 0.930 . S
C315 Gd251 2.805 . S
C315 O291 1.263 . S
C315 O292 1.252 . S
C315 C309 1.500 . S
H316 C299 0.929 . S
H317 C300 0.930 . S
H318 C301 0.931 . S
H319 C302 0.930 . S
H320 C311 0.929 . S
H321 C312 0.930 . S
H322 C313 0.931 . S
H323 C314 0.930 . S
C324 C326 1.422 . S
C324 C328 1.415 . S
C324 N330 1.369 1_455 S
C325 C326 1.421 1_554 S
C325 C327 1.417 . S
C325 C337 1.422 . S
C326 C324 1.422 . S
C326 C325 1.421 1_556 S
C326 N336 1.359 . S
C327 C325 1.417 . S
C327 C329 1.329 . S
C327 H346 0.930 . S
C328 C324 1.415 . S
C328 C329 1.437 1_556 S
C328 C332 1.413 . S
C329 C327 1.329 . S
C329 C328 1.437 1_554 S
C329 H351 0.929 . S
N330 C324 1.369 1_655 S
N330 C331 1.338 . S
N330 Gd335 2.622 . S
C331 N330 1.338 . S
C331 C333 1.378 1_655 S
C331 H343 0.929 . S
C332 C328 1.413 . S
C332 C333 1.348 . S
C332 H348 0.931 . S
C333 C331 1.378 1_455 S
C333 C332 1.348 . S
C333 H349 0.930 . S
Gd334 N354 2.622 . S
Gd334 N361 2.570 . S
Gd334 O368 2.353 . S
Gd334 O369 2.468 . S
Gd334 O370 2.427 . S
Gd334 O372 2.388 . S
Gd334 O373 2.386 1_455 S
Gd334 O377 2.307 . S
Gd334 C387 2.805 . S
Gd335 N330 2.622 . S
Gd335 N336 2.570 1_655 S
Gd335 O367 2.386 1_655 S
Gd335 O371 2.307 . S
Gd335 O374 2.353 . S
Gd335 O375 2.468 . S
Gd335 O376 2.427 . S
Gd335 O378 2.388 . S
Gd335 C399 2.805 . S
N336 C326 1.359 . S
N336 Gd335 2.570 1_455 S
N336 C338 1.343 . S
C337 C325 1.422 . S
C337 C339 1.321 . S
C337 H345 0.931 . S
C338 N336 1.343 . S
C338 C339 1.390 1_556 S
C338 H340 0.931 . S
C339 C337 1.321 . S
C339 C338 1.390 1_554 S
C339 H341 0.930 . S
H340 C338 0.931 . S
H341 C339 0.930 . S
H342 C365 0.944 . S
H343 C331 0.929 . S
H344 C366 0.930 . S
H345 C337 0.931 . S
H346 C327 0.930 . S
H347 C356 0.929 . S
H348 C332 0.931 . S
H349 C333 0.930 . S
H350 C388 0.930 . S
H351 C329 0.929 . S
H352 C357 0.931 . S
H353 C358 0.930 . S
N354 Gd334 2.622 . S
N354 C355 1.369 1_455 S
N354 C356 1.338 . S
C355 N354 1.369 1_655 S
C355 C359 1.415 . S
C355 C362 1.422 . S
C356 H347 0.929 . S
C356 N354 1.338 . S
C356 C358 1.378 . S
C357 H352 0.931 . S
C357 C358 1.348 1_655 S
C357 C359 1.413 . S
C358 H353 0.930 . S
C358 C356 1.378 . S
C358 C357 1.348 1_455 S
C359 C355 1.415 . S
C359 C357 1.413 . S
C359 C389 1.437 . S
H360 C389 0.929 . S
N361 Gd334 2.570 . S
N361 C362 1.359 1_455 S
N361 C365 1.348 . S
C362 C355 1.422 . S
C362 N361 1.359 1_655 S
C362 C364 1.421 . S
C363 C364 1.422 . S
C363 C366 1.321 . S
C363 H390 0.931 . S
C364 C362 1.421 . S
C364 C363 1.422 . S
C364 C388 1.417 . S
C365 H342 0.944 . S
C365 N361 1.348 . S
C365 C366 1.374 1_455 S
C366 H344 0.930 . S
C366 C363 1.321 . S
C366 C365 1.374 1_655 S
O367 Gd335 2.386 1_455 S
O367 C379 1.265 . S
O368 Gd334 2.353 . S
O368 C379 1.242 . S
O369 Gd334 2.468 . S
O369 C387 1.263 . S
O370 Gd334 2.427 . S
O370 C387 1.252 . S
O371 Gd335 2.307 . S
O371 C380 1.261 1_655 S
O372 Gd334 2.388 . S
O372 C380 1.252 . S
O373 Gd334 2.386 1_655 S
O373 C391 1.265 . S
O374 Gd335 2.353 . S
O374 C391 1.242 . S
O375 Gd335 2.468 . S
O375 C399 1.263 . S
O376 Gd335 2.427 . S
O376 C399 1.252 . S
O377 Gd334 2.307 . S
O377 C392 1.261 . S
O378 Gd335 2.388 . S
O378 C392 1.252 1_655 S
C379 O367 1.265 . S
C379 O368 1.242 . S
C380 O371 1.261 1_455 S
C380 O372 1.252 . S
C381 C384 1.394 . S
C381 C386 1.370 . S
C381 C387 1.500 . S
C382 C385 1.383 . S
C382 C386 1.395 . S
C383 C384 1.396 . S
C383 C385 1.365 . S
C383 H400 0.929 . S
C384 C381 1.394 . S
C384 C383 1.396 . S
C384 H401 0.930 . S
C385 C382 1.383 . S
C385 C383 1.365 . S
C385 H402 0.931 . S
C386 C381 1.370 . S
C386 C382 1.395 . S
C386 H403 0.930 . S
C387 Gd334 2.805 . S
C387 O369 1.263 . S
C387 O370 1.252 . S
C387 C381 1.500 . S
C388 H350 0.930 . S
C388 C364 1.417 . S
C388 C389 1.329 . S
C389 C359 1.437 . S
C389 H360 0.929 . S
C389 C388 1.329 . S
H390 C363 0.931 . S
C391 O373 1.265 . S
C391 O374 1.242 . S
C392 O377 1.261 . S
C392 O378 1.252 1_455 S
C393 C396 1.394 . S
C393 C398 1.370 . S
C393 C399 1.500 . S
C394 C397 1.383 . S
C394 C398 1.395 1_554 S
C395 C396 1.396 . S
C395 C397 1.365 1_556 S
C395 H404 0.929 . S
C396 C393 1.394 . S
C396 C395 1.396 . S
C396 H405 0.930 . S
C397 C394 1.383 . S
C397 C395 1.365 1_554 S
C397 H406 0.931 . S
C398 C393 1.370 . S
C398 C394 1.395 1_556 S
C398 H407 0.930 . S
C399 Gd335 2.805 . S
C399 O375 1.263 . S
C399 O376 1.252 . S
C399 C393 1.500 . S
H400 C383 0.929 . S
H401 C384 0.930 . S
H402 C385 0.931 . S
H403 C386 0.930 . S
H404 C395 0.929 . S
H405 C396 0.930 . S
H406 C397 0.931 . S
H407 C398 0.930 . S
H408 C414 0.930 . S
H409 C417 0.930 . S
H410 C418 0.937 . S
H411 C419 0.930 . S
H412 C422 0.930 . S
H413 C423 0.930 . S
C414 H408 0.930 . S
C414 C415 1.355 . S
C414 C416 1.415 . S
C415 C414 1.355 . S
C415 C417 1.419 . S
C416 C414 1.415 . S
C416 C421 1.425 . S
C416 C423 1.409 . S
C417 H409 0.930 . S
C417 C415 1.419 . S
C417 C418 1.362 . S
C418 H410 0.937 . S
C418 C417 1.362 . S
C418 C421 1.409 . S
C419 H411 0.930 . S
C419 C420 1.355 . S
C419 C421 1.415 . S
C420 C419 1.355 . S
C420 C422 1.419 . S
C421 C416 1.425 . S
C421 C418 1.409 . S
C421 C419 1.415 . S
C422 H412 0.930 . S
C422 C420 1.419 . S
C422 C423 1.362 . S
C423 H413 0.930 . S
C423 C416 1.409 . S
C423 C422 1.362 . S
H424 C430 0.930 . S
H425 C433 0.930 . S
H426 C434 0.930 . S
H427 C435 0.930 . S
H428 C438 0.930 . S
H429 C439 0.930 . S
C430 H424 0.930 . S
C430 C431 1.355 . S
C430 C432 1.415 . S
C431 C430 1.355 . S
C431 C433 1.419 . S
C432 C430 1.415 . S
C432 C437 1.425 . S
C432 C439 1.409 . S
C433 H425 0.930 . S
C433 C431 1.419 . S
C433 C434 1.362 . S
C434 H426 0.930 . S
C434 C433 1.362 . S
C434 C437 1.409 . S
C435 H427 0.930 . S
C435 C436 1.355 . S
C435 C437 1.415 . S
C436 C435 1.355 . S
C436 C438 1.419 . S
C437 C432 1.425 . S
C437 C434 1.409 . S
C437 C435 1.415 . S
C438 H428 0.930 . S
C438 C436 1.419 . S
C438 C439 1.362 . S
C439 H429 0.930 . S
C439 C432 1.409 . S
C439 C438 1.362 . S
H440 C446 0.930 . S
H441 C449 0.930 . S
H442 C450 0.930 . S
H443 C451 0.930 . S
H444 C454 0.930 . S
H445 C455 0.930 . S
C446 H440 0.930 . S
C446 C447 1.355 . S
C446 C448 1.415 . S
C447 C446 1.355 . S
C447 C449 1.419 . S
C448 C446 1.415 . S
C448 C453 1.425 . S
C448 C455 1.409 . S
C449 H441 0.930 . S
C449 C447 1.419 . S
C449 C450 1.362 . S
C450 H442 0.930 . S
C450 C449 1.362 . S
C450 C453 1.409 . S
C451 H443 0.930 . S
C451 C452 1.355 . S
C451 C453 1.415 . S
C452 C451 1.355 . S
C452 C454 1.419 . S
C453 C448 1.425 . S
C453 C450 1.409 . S
C453 C451 1.415 . S
C454 H444 0.930 . S
C454 C452 1.419 . S
C454 C455 1.362 . S
C455 H445 0.930 . S
C455 C448 1.409 . S
C455 C454 1.362 . S
H456 C462 0.942 . S
H457 C465 0.930 . S
H458 C466 0.930 . S
H459 C467 0.930 . S
H460 C470 0.930 . S
H461 C471 0.930 . S
C462 H456 0.942 . S
C462 C463 1.355 . S
C462 C464 1.415 . S
C463 C462 1.355 . S
C463 C465 1.419 . S
C464 C462 1.415 . S
C464 C469 1.425 . S
C464 C471 1.409 1_455 S
C465 H457 0.930 . S
C465 C463 1.419 . S
C465 C466 1.362 . S
C466 H458 0.930 . S
C466 C465 1.362 . S
C466 C469 1.409 . S
C467 H459 0.930 . S
C467 C468 1.355 . S
C467 C469 1.415 . S
C468 C467 1.355 . S
C468 C470 1.419 1_455 S
C469 C464 1.425 . S
C469 C466 1.409 . S
C469 C467 1.415 . S
C470 H460 0.930 . S
C470 C468 1.419 1_655 S
C470 C471 1.362 . S
C471 H461 0.930 . S
C471 C464 1.409 1_655 S
C471 C470 1.362 . S
H472 C478 0.930 . S
H473 C481 0.930 . S
H474 C482 0.930 . S
H475 C483 0.930 . S
H476 C486 0.930 . S
H477 C487 0.930 . S
C478 H472 0.930 . S
C478 C479 1.355 1_545 S
C478 C480 1.415 . S
C479 C478 1.355 1_565 S
C479 C481 1.419 . S
C480 C478 1.415 . S
C480 C485 1.425 1_545 S
C480 C487 1.409 . S
C481 H473 0.930 . S
C481 C479 1.419 . S
C481 C482 1.362 . S
C482 H474 0.930 . S
C482 C481 1.362 . S
C482 C485 1.409 . S
C483 H475 0.930 . S
C483 C484 1.355 . S
C483 C485 1.415 1_556 S
C484 C483 1.355 . S
C484 C486 1.419 1_565 S
C485 C480 1.425 1_565 S
C485 C482 1.409 . S
C485 C483 1.415 1_554 S
C486 H476 0.930 . S
C486 C484 1.419 1_545 S
C486 C487 1.362 1_556 S
C487 H477 0.930 . S
C487 C480 1.409 . S
C487 C486 1.362 1_554 S
H488 C494 0.930 . S
H489 C497 0.930 . S
H490 C498 0.930 . S
H491 C499 0.930 . S
H492 C502 0.930 . S
H493 C503 0.930 . S
C494 H488 0.930 . S
C494 C495 1.355 . S
C494 C496 1.415 . S
C495 C494 1.355 . S
C495 C497 1.419 . S
C496 C494 1.415 . S
C496 C501 1.425 . S
C496 C503 1.409 . S
C497 H489 0.930 . S
C497 C495 1.419 . S
C497 C498 1.362 . S
C498 H490 0.930 . S
C498 C497 1.362 . S
C498 C501 1.409 . S
C499 H491 0.930 . S
C499 C500 1.355 . S
C499 C501 1.415 1_556 S
C500 C499 1.355 . S
C500 C502 1.419 . S
C501 C496 1.425 . S
C501 C498 1.409 . S
C501 C499 1.415 1_554 S
C502 H492 0.930 . S
C502 C500 1.419 . S
C502 C503 1.362 1_556 S
C503 H493 0.930 . S
C503 C496 1.409 . S
C503 C502 1.362 1_554 S
H504 C510 0.930 . S
H505 C513 0.930 . S
H506 C514 0.930 . S
H507 C515 0.930 . S
H508 C518 0.930 . S
H509 C519 0.930 . S
C510 H504 0.930 . S
C510 C511 1.355 . S
C510 C512 1.415 . S
C511 C510 1.355 . S
C511 C513 1.419 . S
C512 C510 1.415 . S
C512 C517 1.425 . S
C512 C519 1.409 1_554 S
C513 H505 0.930 . S
C513 C511 1.419 . S
C513 C514 1.362 . S
C514 H506 0.930 . S
C514 C513 1.362 . S
C514 C517 1.409 . S
C515 H507 0.930 . S
C515 C516 1.355 . S
C515 C517 1.415 1_556 S
C516 C515 1.355 . S
C516 C518 1.419 . S
C517 C512 1.425 . S
C517 C514 1.409 . S
C517 C515 1.415 1_554 S
C518 H508 0.930 . S
C518 C516 1.419 . S
C518 C519 1.362 . S
C519 H509 0.930 . S
C519 C512 1.409 1_556 S
C519 C518 1.362 . S
H520 C526 0.930 . S
H521 C529 0.930 . S
H522 C530 0.930 . S
H523 C531 0.930 . S
H524 C534 0.930 . S
H525 C535 0.930 . S
C526 H520 0.930 . S
C526 C527 1.355 1_455 S
C526 C528 1.415 . S
C527 C526 1.355 1_655 S
C527 C529 1.419 . S
C528 C526 1.415 . S
C528 C533 1.425 1_455 S
C528 C535 1.409 . S
C529 H521 0.930 . S
C529 C527 1.419 . S
C529 C530 1.362 . S
C530 H522 0.930 . S
C530 C529 1.362 . S
C530 C533 1.409 . S
C531 H523 0.930 . S
C531 C532 1.355 . S
C531 C533 1.415 1_556 S
C532 C531 1.355 . S
C532 C534 1.419 1_655 S
C533 C528 1.425 1_655 S
C533 C530 1.409 . S
C533 C531 1.415 1_554 S
C534 H524 0.930 . S
C534 C532 1.419 1_455 S
C534 C535 1.362 1_556 S
C535 H525 0.930 . S
C535 C528 1.409 . S
C535 C534 1.362 1_554 S
H536 C542 0.930 . S
H537 C545 0.930 . S
H538 C546 0.930 1_655 S
H539 C547 0.930 . S
H540 C550 0.930 . S
H541 C551 0.930 . S
C542 H536 0.930 . S
C542 C543 1.355 . S
C542 C544 1.415 . S
C543 C542 1.355 . S
C543 C545 1.419 . S
C544 C542 1.415 . S
C544 C549 1.425 . S
C544 C551 1.409 . S
C545 H537 0.930 . S
C545 C543 1.419 . S
C545 C546 1.362 . S
C546 H538 0.930 1_455 S
C546 C545 1.362 . S
C546 C549 1.409 . S
C547 H539 0.930 . S
C547 C548 1.355 . S
C547 C549 1.415 1_655 S
C548 C547 1.355 . S
C548 C550 1.419 . S
C549 C544 1.425 . S
C549 C546 1.409 . S
C549 C547 1.415 1_455 S
C550 H540 0.930 . S
C550 C548 1.419 . S
C550 C551 1.362 1_655 S
C551 H541 0.930 . S
C551 C544 1.409 . S
C551 C550 1.362 1_455 S
H552 C558 0.930 . S
H553 C561 0.921 1_565 S
H554 C562 0.930 . S
H555 C563 0.930 . S
H556 C566 0.930 . S
H557 C567 0.930 . S
C558 H552 0.930 . S
C558 C559 1.355 . S
C558 C560 1.415 . S
C559 C558 1.355 . S
C559 C561 1.419 . S
C560 C558 1.415 . S
C560 C565 1.425 1_545 S
C560 C567 1.409 . S
C561 H553 0.921 1_545 S
C561 C559 1.419 . S
C561 C562 1.362 1_545 S
C562 H554 0.930 . S
C562 C561 1.362 1_565 S
C562 C565 1.409 . S
C563 H555 0.930 . S
C563 C564 1.355 . S
C563 C565 1.415 . S
C564 C563 1.355 . S
C564 C566 1.419 1_565 S
C565 C560 1.425 1_565 S
C565 C562 1.409 . S
C565 C563 1.415 . S
C566 H556 0.930 . S
C566 C564 1.419 1_545 S
C566 C567 1.362 . S
C567 H557 0.930 . S
C567 C560 1.409 . S
C567 C566 1.362 . S
H568 C574 0.930 . S
H569 C577 0.930 . S
H570 C578 0.930 . S
H571 C579 0.930 . S
H572 C582 0.930 . S
H573 C583 0.930 . S
C574 H568 0.930 . S
C574 C575 1.355 . S
C574 C576 1.415 . S
C575 C574 1.355 . S
C575 C577 1.419 . S
C576 C574 1.415 . S
C576 C581 1.425 . S
C576 C583 1.409 . S
C577 H569 0.930 . S
C577 C575 1.419 . S
C577 C578 1.362 . S
C578 H570 0.930 . S
C578 C577 1.362 . S
C578 C581 1.409 . S
C579 H571 0.930 . S
C579 C580 1.355 . S
C579 C581 1.415 . S
C580 C579 1.355 . S
C580 C582 1.419 . S
C581 C576 1.425 . S
C581 C578 1.409 . S
C581 C579 1.415 . S
C582 H572 0.930 . S
C582 C580 1.419 . S
C582 C583 1.362 . S
C583 H573 0.930 . S
C583 C576 1.409 . S
C583 C582 1.362 . S
H584 C590 0.930 . S
H585 C593 0.930 . S
H586 C594 0.930 . S
H587 C595 0.930 . S
H588 C598 0.930 . S
H589 C599 0.930 . S
C590 H584 0.930 . S
C590 C591 1.355 . S
C590 C592 1.415 . S
C591 C590 1.355 . S
C591 C593 1.419 . S
C592 C590 1.415 . S
C592 C597 1.425 . S
C592 C599 1.409 . S
C593 H585 0.930 . S
C593 C591 1.419 . S
C593 C594 1.362 . S
C594 H586 0.930 . S
C594 C593 1.362 . S
C594 C597 1.409 . S
C595 H587 0.930 . S
C595 C596 1.355 . S
C595 C597 1.415 . S
C596 C595 1.355 . S
C596 C598 1.419 . S
C597 C592 1.425 . S
C597 C594 1.409 . S
C597 C595 1.415 . S
C598 H588 0.930 . S
C598 C596 1.419 . S
C598 C599 1.362 . S
C599 H589 0.930 . S
C599 C592 1.409 . S
C599 C598 1.362 . S
H600 C606 0.930 . S
H601 C609 0.930 . S
H602 C610 0.930 . S
H603 C611 0.930 . S
H604 C614 0.930 . S
H605 C615 0.930 . S
C606 H600 0.930 . S
C606 C607 1.355 1_455 S
C606 C608 1.415 . S
C607 C606 1.355 1_655 S
C607 C609 1.419 . S
C608 C606 1.415 . S
C608 C613 1.425 1_455 S
C608 C615 1.409 . S
C609 H601 0.930 . S
C609 C607 1.419 . S
C609 C610 1.362 . S
C610 H602 0.930 . S
C610 C609 1.362 . S
C610 C613 1.409 . S
C611 H603 0.930 . S
C611 C612 1.355 1_655 S
C611 C613 1.415 . S
C612 C611 1.355 1_455 S
C612 C614 1.419 . S
C613 C608 1.425 1_655 S
C613 C610 1.409 . S
C613 C611 1.415 . S
C614 H604 0.930 . S
C614 C612 1.419 . S
C614 C615 1.362 . S
C615 H605 0.930 . S
C615 C608 1.409 . S
C615 C614 1.362 . S
H616 C622 0.930 . S
H617 C625 0.930 . S
H618 C626 0.930 . S
H619 C627 0.930 . S
H620 C630 0.930 . S
H621 C631 0.930 . S
C622 H616 0.930 . S
C622 C623 1.355 . S
C622 C624 1.415 . S
C623 C622 1.355 . S
C623 C625 1.419 1_565 S
C624 C622 1.415 . S
C624 C629 1.425 1_565 S
C624 C631 1.409 . S
C625 H617 0.930 . S
C625 C623 1.419 1_545 S
C625 C626 1.362 . S
C626 H618 0.930 . S
C626 C625 1.362 . S
C626 C629 1.409 . S
C627 H619 0.930 . S
C627 C628 1.355 . S
C627 C629 1.415 . S
C628 C627 1.355 . S
C628 C630 1.419 1_545 S
C629 C624 1.425 1_545 S
C629 C626 1.409 . S
C629 C627 1.415 . S
C630 H620 0.930 . S
C630 C628 1.419 1_565 S
C630 C631 1.362 . S
C631 H621 0.930 . S
C631 C624 1.409 . S
C631 C630 1.362 . S
H632 C638 0.930 . S
H633 C641 0.930 . S
H634 C642 0.930 . S
H635 C643 0.930 . S
H636 C646 0.930 . S
H637 C647 0.930 . S
C638 H632 0.930 . S
C638 C639 1.355 . S
C638 C640 1.415 . S
C639 C638 1.355 . S
C639 C641 1.419 . S
C640 C638 1.415 . S
C640 C645 1.425 . S
C640 C647 1.409 . S
C641 H633 0.930 . S
C641 C639 1.419 . S
C641 C642 1.362 . S
C642 H634 0.930 . S
C642 C641 1.362 . S
C642 C645 1.409 . S
C643 H635 0.930 . S
C643 C644 1.355 . S
C643 C645 1.415 . S
C644 C643 1.355 . S
C644 C646 1.419 1_554 S
C645 C640 1.425 . S
C645 C642 1.409 . S
C645 C643 1.415 . S
C646 H636 0.930 . S
C646 C644 1.419 1_556 S
C646 C647 1.362 1_556 S
C647 H637 0.930 . S
C647 C640 1.409 . S
C647 C646 1.362 1_554 S
H648 C654 0.930 . S
H649 C657 0.930 . S
H650 C658 0.930 . S
H651 C659 0.930 1_556 S
H652 C662 0.930 . S
H653 C663 0.930 . S
C654 H648 0.930 . S
C654 C655 1.355 . S
C654 C656 1.415 . S
C655 C654 1.355 . S
C655 C657 1.419 . S
C656 C654 1.415 . S
C656 C661 1.425 . S
C656 C663 1.409 . S
C657 H649 0.930 . S
C657 C655 1.419 . S
C657 C658 1.362 . S
C658 H650 0.930 . S
C658 C657 1.362 . S
C658 C661 1.409 . S
C659 H651 0.930 1_554 S
C659 C660 1.355 . S
C659 C661 1.415 . S
C660 C659 1.355 . S
C660 C662 1.419 . S
C661 C656 1.425 . S
C661 C658 1.409 . S
C661 C659 1.415 . S
C662 H652 0.930 . S
C662 C660 1.419 . S
C662 C663 1.362 . S
C663 H653 0.930 . S
C663 C656 1.409 . S
C663 C662 1.362 . S
H664 C670 0.930 1_655 S
H665 C673 0.930 . S
H666 C674 0.930 . S
H667 C675 0.930 . S
H668 C678 0.930 . S
H669 C679 0.930 . S
C670 H664 0.930 1_455 S
C670 C671 1.355 . S
C670 C672 1.415 . S
C671 C670 1.355 . S
C671 C673 1.419 . S
C672 C670 1.415 . S
C672 C677 1.425 . S
C672 C679 1.409 1_455 S
C673 H665 0.930 . S
C673 C671 1.419 . S
C673 C674 1.362 . S
C674 H666 0.930 . S
C674 C673 1.362 . S
C674 C677 1.409 . S
C675 H667 0.930 . S
C675 C676 1.355 . S
C675 C677 1.415 . S
C676 C675 1.355 . S
C676 C678 1.419 1_455 S
C677 C672 1.425 . S
C677 C674 1.409 . S
C677 C675 1.415 . S
C678 H668 0.930 . S
C678 C676 1.419 1_655 S
C678 C679 1.362 . S
C679 H669 0.930 . S
C679 C672 1.409 1_655 S
C679 C678 1.362 . S
H680 C686 0.930 . S
H681 C689 0.930 1_554 S
H682 C690 0.930 1_554 S
H683 C691 0.930 . S
H684 C694 0.930 . S
H685 C695 0.930 . S
C686 H680 0.930 . S
C686 C687 1.355 . S
C686 C688 1.415 . S
C687 C686 1.355 . S
C687 C689 1.419 . S
C688 C686 1.415 . S
C688 C693 1.425 . S
C688 C695 1.409 . S
C689 H681 0.930 1_556 S
C689 C687 1.419 . S
C689 C690 1.362 . S
C690 H682 0.930 1_556 S
C690 C689 1.362 . S
C690 C693 1.409 . S
C691 H683 0.930 . S
C691 C692 1.355 . S
C691 C693 1.415 . S
C692 C691 1.355 . S
C692 C694 1.419 . S
C693 C688 1.425 . S
C693 C690 1.409 . S
C693 C691 1.415 . S
C694 H684 0.930 . S
C694 C692 1.419 . S
C694 C695 1.362 . S
C695 H685 0.930 . S
C695 C688 1.409 . S
C695 C694 1.362 . S
H696 C702 0.930 . S
H697 C705 0.930 . S
H698 C706 0.930 . S
H699 C707 0.930 . S
H700 C710 0.930 . S
H701 C711 0.930 . S
C702 H696 0.930 . S
C702 C703 1.355 . S
C702 C704 1.415 . S
C703 C702 1.355 . S
C703 C705 1.419 . S
C704 C702 1.415 . S
C704 C709 1.425 . S
C704 C711 1.409 . S
C705 H697 0.930 . S
C705 C703 1.419 . S
C705 C706 1.362 . S
C706 H698 0.930 . S
C706 C705 1.362 . S
C706 C709 1.409 . S
C707 H699 0.930 . S
C707 C708 1.355 . S
C707 C709 1.415 . S
C708 C707 1.355 . S
C708 C710 1.419 . S
C709 C704 1.425 . S
C709 C706 1.409 . S
C709 C707 1.415 . S
C710 H700 0.930 . S
C710 C708 1.419 . S
C710 C711 1.362 . S
C711 H701 0.930 . S
C711 C704 1.409 . S
C711 C710 1.362 . S
H712 C718 0.930 . S
H713 C721 0.930 . S
H714 C722 0.930 . S
H715 C723 0.930 . S
H716 C726 0.930 . S
H717 C727 0.930 . S
C718 H712 0.930 . S
C718 C719 1.355 . S
C718 C720 1.415 . S
C719 C718 1.355 . S
C719 C721 1.419 . S
C720 C718 1.415 . S
C720 C725 1.425 . S
C720 C727 1.409 . S
C721 H713 0.930 . S
C721 C719 1.419 . S
C721 C722 1.362 . S
C722 H714 0.930 . S
C722 C721 1.362 . S
C722 C725 1.409 . S
C723 H715 0.930 . S
C723 C724 1.355 . S
C723 C725 1.415 . S
C724 C723 1.355 . S
C724 C726 1.419 . S
C725 C720 1.425 . S
C725 C722 1.409 . S
C725 C723 1.415 . S
C726 H716 0.930 . S
C726 C724 1.419 . S
C726 C727 1.362 . S
C727 H717 0.930 . S
C727 C720 1.409 . S
C727 C726 1.362 . S
H728 C734 0.930 . S
H729 C737 0.930 . S
H730 C738 0.930 . S
H731 C739 0.930 . S
H732 C742 0.930 1_455 S
H733 C743 0.930 1_455 S
C734 H728 0.930 . S
C734 C735 1.355 . S
C734 C736 1.415 . S
C735 C734 1.355 . S
C735 C737 1.419 . S
C736 C734 1.415 . S
C736 C741 1.425 . S
C736 C743 1.409 . S
C737 H729 0.930 . S
C737 C735 1.419 . S
C737 C738 1.362 . S
C738 H730 0.930 . S
C738 C737 1.362 . S
C738 C741 1.409 . S
C739 H731 0.930 . S
C739 C740 1.355 . S
C739 C741 1.415 . S
C740 C739 1.355 . S
C740 C742 1.419 . S
C741 C736 1.425 . S
C741 C738 1.409 . S
C741 C739 1.415 . S
C742 H732 0.930 1_655 S
C742 C740 1.419 . S
C742 C743 1.362 . S
C743 H733 0.930 1_655 S
C743 C736 1.409 . S
C743 C742 1.362 . S
H744 C750 0.930 1_545 S
H745 C753 0.930 . S
H746 C754 0.930 . S
H747 C755 0.930 . S
H748 C758 0.930 . S
H749 C759 0.930 . S
C750 H744 0.930 1_565 S
C750 C751 1.355 . S
C750 C752 1.415 . S
C751 C750 1.355 . S
C751 C753 1.419 . S
C752 C750 1.415 . S
C752 C757 1.425 . S
C752 C759 1.409 1_565 S
C753 H745 0.930 . S
C753 C751 1.419 . S
C753 C754 1.362 . S
C754 H746 0.930 . S
C754 C753 1.362 . S
C754 C757 1.409 . S
C755 H747 0.930 . S
C755 C756 1.355 . S
C755 C757 1.415 . S
C756 C755 1.355 . S
C756 C758 1.419 1_565 S
C757 C752 1.425 . S
C757 C754 1.409 . S
C757 C755 1.415 . S
C758 H748 0.930 . S
C758 C756 1.419 1_545 S
C758 C759 1.362 . S
C759 H749 0.930 . S
C759 C752 1.409 1_545 S
C759 C758 1.362 . S
H760 C766 0.930 . S
H761 C769 0.930 . S
H762 C770 0.930 . S
H763 C771 0.930 . S
H764 C774 0.930 . S
H765 C775 0.930 . S
C766 H760 0.930 . S
C766 C767 1.355 . S
C766 C768 1.415 . S
C767 C766 1.355 . S
C767 C769 1.419 . S
C768 C766 1.415 . S
C768 C773 1.425 . S
C768 C775 1.409 . S
C769 H761 0.930 . S
C769 C767 1.419 . S
C769 C770 1.362 . S
C770 H762 0.930 . S
C770 C769 1.362 . S
C770 C773 1.409 . S
C771 H763 0.930 . S
C771 C772 1.355 . S
C771 C773 1.415 . S
C772 C771 1.355 . S
C772 C774 1.419 . S
C773 C768 1.425 . S
C773 C770 1.409 . S
C773 C771 1.415 . S
C774 H764 0.930 . S
C774 C772 1.419 . S
C774 C775 1.362 . S
C775 H765 0.930 . S
C775 C768 1.409 . S
C775 C774 1.362 . S
H776 C782 0.930 . S
H777 C785 0.930 . S
H778 C786 0.930 . S
H779 C787 0.930 . S
H780 C790 0.930 . S
H781 C791 0.930 . S
C782 H776 0.930 . S
C782 C783 1.355 . S
C782 C784 1.415 . S
C783 C782 1.355 . S
C783 C785 1.419 . S
C784 C782 1.415 . S
C784 C789 1.425 . S
C784 C791 1.409 . S
C785 H777 0.930 . S
C785 C783 1.419 . S
C785 C786 1.362 . S
C786 H778 0.930 . S
C786 C785 1.362 . S
C786 C789 1.409 . S
C787 H779 0.930 . S
C787 C788 1.355 . S
C787 C789 1.415 . S
C788 C787 1.355 . S
C788 C790 1.419 . S
C789 C784 1.425 . S
C789 C786 1.409 . S
C789 C787 1.415 . S
C790 H780 0.930 . S
C790 C788 1.419 . S
C790 C791 1.362 . S
C791 H781 0.930 . S
C791 C784 1.409 . S
C791 C790 1.362 . S
C415 C61 1.939 . S
C420 C140 2.082 . S
C436 C223 2.085 . S
C431 C70 1.959 . S
C452 C308 2.076 . S
C447 C43 1.906 . S
C468 C392 2.058 . S
C463 C52 1.939 . S
C484 C128 2.044 1_565 S
C479 C25 1.902 . S
C495 C34 1.907 . S
C500 C211 2.064 . S
C511 C7 1.945 . S
C516 C296 2.063 . S
C527 C16 1.893 . S
C532 C380 2.031 1_655 S
C548 C130 0.671 . S
C543 C50 0.586 . S
C564 C226 0.588 . S
C559 C59 0.520 . S
C580 C298 0.663 . S
C575 C67 0.541 . S
C591 C41 0.528 . S
C596 C382 0.657 . S
C607 C14 0.659 . S
C612 C142 0.541 . S
C628 C214 0.548 . S
C623 C23 0.545 . S
C644 C310 0.646 . S
C639 C31 0.537 . S
C655 C5 0.630 . S
C660 C394 0.621 . S
C671 C49 1.931 . S
C676 C127 2.183 . S
C687 C58 1.910 . S
C692 C212 2.201 . S
C708 C295 2.198 . S
C703 C68 1.943 . S
C724 C379 2.219 . S
C719 C40 1.986 . S
C735 C13 2.003 . S
C740 C139 2.205 . S
C756 C224 2.189 . S
C751 C22 1.930 . S
C772 C307 2.220 . S
C767 C32 2.007 . S
C783 C4 2.021 . S
C788 C391 2.224 . S
