# Generated by pormake.
# Topology rtl, (3,6)-cn, num edge types: 1
# Building blocks:
#     Node 0, Type 0, BuildingBlock: VETTIZ_charged_linker_0, # of connection points: 3
#     Node 1, Type 0, BuildingBlock: VETTIZ_charged_linker_0, # of connection points: 3
#     Node 2, Type 0, BuildingBlock: VETTIZ_charged_linker_0, # of connection points: 3
#     Node 3, Type 0, BuildingBlock: VETTIZ_charged_linker_0, # of connection points: 3
#     Node 4, Type 1, BuildingBlock: KUMJIN_clean_sbu_1, # of connection points: 6
#     Node 5, Type 1, BuildingBlock: KUMJIN_clean_sbu_1, # of connection points: 6
#     Edge 6, Type (0, 1), BuildingBlock: XIVTED_clean_linker_0, # of connection points: 2
#     Edge 7, Type (0, 1), BuildingBlock: XIVTED_clean_linker_0, # of connection points: 2
#     Edge 8, Type (0, 1), BuildingBlock: XIVTED_clean_linker_0, # of connection points: 2
#     Edge 9, Type (0, 1), BuildingBlock: XIVTED_clean_linker_0, # of connection points: 2
#     Edge 10, Type (0, 1), BuildingBlock: XIVTED_clean_linker_0, # of connection points: 2
#     Edge 11, Type (0, 1), BuildingBlock: XIVTED_clean_linker_0, # of connection points: 2
#     Edge 12, Type (0, 1), BuildingBlock: XIVTED_clean_linker_0, # of connection points: 2
#     Edge 13, Type (0, 1), BuildingBlock: XIVTED_clean_linker_0, # of connection points: 2
#     Edge 14, Type (0, 1), BuildingBlock: XIVTED_clean_linker_0, # of connection points: 2
#     Edge 15, Type (0, 1), BuildingBlock: XIVTED_clean_linker_0, # of connection points: 2
#     Edge 16, Type (0, 1), BuildingBlock: XIVTED_clean_linker_0, # of connection points: 2
#     Edge 17, Type (0, 1), BuildingBlock: XIVTED_clean_linker_0, # of connection points: 2
# Relax obj value: 0.018
# Max RMSD: 0.097
# Mean RMSD: 0.057
data_MOF--net-rtl--node1-KUMJIN_clean_sbu_1--node2-VETTIZ_charged_linker_0--edge1-XIVTED_clean_linker_0
_symmetry_space_group_name_H-M    P1
_symmetry_Int_Tables_number       1
_symmetry_cell_setting            triclinic
loop_
_symmetry_equiv_pos_as_xyz
'x, y, z'
_cell_length_a     39.564427
_cell_length_b     40.20887
_cell_length_c     35.267167
_cell_angle_alpha  80.155877
_cell_angle_beta   99.66386
_cell_angle_gamma 90.435536
loop_
_atom_site_label
_atom_site_type_symbol
_atom_site_fract_x
_atom_site_fract_y
_atom_site_fract_z
_atom_type_partial_charge
C0 C 0.16921 0.89263 0.8898 0.0
C1 C 0.14271 0.91712 0.88178 0.0
C2 C 0.13325 0.93078 0.91282 0.0
C3 C 0.17495 0.89386 0.95913 0.0
C4 C 0.18496 0.88156 0.92839 0.0
C5 C 0.21329 0.85545 0.94158 0.0
H6 H 0.31769 0.75594 0.08711 0.0
C7 C 0.19555 0.87574 0.99569 0.0
C8 C 0.21825 0.8535 0.98549 0.0
H9 H 0.31038 0.7627 0.96212 0.0
H10 H 0.26769 0.80661 0.95098 0.0
H11 H 0.31265 0.83719 0.08664 0.0
H12 H 0.23531 0.76097 0.08494 0.0
H13 H 0.22754 0.78733 0.11761 0.0
H14 H 0.26699 0.76289 0.12737 0.0
H15 H 0.31001 0.80522 0.12829 0.0
H16 H 0.28498 0.84395 0.11892 0.0
C17 C 0.24532 0.86935 0.92451 0.0
C18 C 0.19985 0.82194 0.92902 0.0
C19 C 0.16782 0.89287 0.12636 0.0
C20 C 0.17989 0.87738 0.1651 0.0
C21 C 0.20793 0.85435 0.17259 0.0
C22 C 0.22268 0.84587 0.14185 0.0
C23 C 0.20918 0.86042 0.10315 0.0
C24 C 0.18258 0.88394 0.09604 0.0
C25 C 0.17103 0.89654 0.0532 0.0
C26 C 0.19465 0.87629 0.03564 0.0
C27 C 0.21697 0.85507 0.06498 0.0
C28 C 0.17783 0.93487 0.04475 0.0
C29 C 0.13294 0.88718 0.04255 0.0
C30 C 0.30678 0.76688 0.05738 0.0
C31 C 0.31788 0.75593 0.02548 0.0
C32 C 0.30306 0.77104 0.98727 0.0
C33 C 0.27791 0.79647 0.98078 0.0
C34 C 0.26693 0.80698 0.01273 0.0
C35 C 0.28136 0.79246 0.05029 0.0
C36 C 0.26597 0.80703 0.08042 0.0
C37 C 0.24026 0.83277 0.05456 0.0
C38 C 0.24091 0.83227 0.01501 0.0
C39 C 0.29477 0.82412 0.10522 0.0
C40 C 0.24814 0.77821 0.10418 0.0
H41 H 0.14054 0.93017 0.97396 0.0
H42 H 0.17751 0.88218 0.86644 0.0
H43 H 0.17231 0.81878 0.93159 0.0
H44 H 0.21291 0.79928 0.94767 0.0
H45 H 0.20217 0.82146 0.89817 0.0
H46 H 0.24565 0.89742 0.92028 0.0
H47 H 0.24585 0.86192 0.8957 0.0
H48 H 0.26966 0.86115 0.94429 0.0
H49 H 0.14672 0.91109 0.11958 0.0
H50 H 0.21766 0.84188 0.2021 0.0
H51 H 0.2435 0.82772 0.14935 0.0
H52 H 0.20117 0.94139 0.06423 0.0
H53 H 0.15598 0.94992 0.04953 0.0
H54 H 0.18305 0.94347 0.01485 0.0
H55 H 0.12815 0.86163 0.05834 0.0
H56 H 0.12509 0.88579 0.01137 0.0
H57 H 0.11563 0.90542 0.05066 0.0
H58 H 0.11289 0.94974 0.90725 0.0
C59 C 0.14921 0.91925 0.95148 0.0
C60 C 0.63904 0.66884 0.72914 0.0
C61 C 0.61356 0.6444 0.73253 0.0
C62 C 0.59878 0.63114 0.69922 0.0
C63 C 0.63501 0.6659 0.6602 0.0
C64 C 0.64904 0.67951 0.69266 0.0
C65 C 0.6744 0.70655 0.68316 0.0
H66 H 0.76141 0.79401 0.54938 0.0
C67 C 0.65096 0.68211 0.62685 0.0
C68 C 0.67386 0.70627 0.63999 0.0
H69 H 0.76502 0.80736 0.66913 0.0
H70 H 0.72428 0.76267 0.67813 0.0
H71 H 0.76154 0.71436 0.56517 0.0
H72 H 0.68079 0.78969 0.52993 0.0
H73 H 0.66884 0.75724 0.50318 0.0
H74 H 0.70776 0.77974 0.4971 0.0
H75 H 0.75267 0.73862 0.51681 0.0
H76 H 0.73143 0.69949 0.52982 0.0
C77 C 0.70979 0.69527 0.70792 0.0
C78 C 0.66047 0.74045 0.69026 0.0
C79 C 0.62389 0.641 0.49621 0.0
C80 C 0.63595 0.65034 0.46054 0.0
C81 C 0.65888 0.67727 0.45688 0.0
C82 C 0.67012 0.69412 0.48816 0.0
C83 C 0.65848 0.68403 0.52381 0.0
C84 C 0.63546 0.65814 0.52731 0.0
C85 C 0.62583 0.65109 0.56746 0.0
C86 C 0.64745 0.67657 0.5876 0.0
C87 C 0.66651 0.69567 0.56183 0.0
C88 C 0.63699 0.61426 0.58603 0.0
C89 C 0.58689 0.65864 0.56344 0.0
C90 C 0.75317 0.78786 0.57747 0.0
C91 C 0.76645 0.80467 0.60843 0.0
C92 C 0.75551 0.7948 0.64477 0.0
C93 C 0.73162 0.76897 0.64987 0.0
C94 C 0.71837 0.7528 0.61832 0.0
C95 C 0.72922 0.76251 0.5829 0.0
C96 C 0.71242 0.74316 0.55227 0.0
C97 C 0.68937 0.7203 0.57491 0.0
C98 C 0.69302 0.72576 0.6137 0.0
C99 C 0.74078 0.72294 0.53996 0.0
C100 C 0.69149 0.76857 0.51859 0.0
H101 H 0.59731 0.6304 0.63907 0.0
H102 H 0.6504 0.67986 0.75414 0.0
H103 H 0.63198 0.74194 0.68297 0.0
H104 H 0.66916 0.76256 0.67145 0.0
H105 H 0.66781 0.74336 0.72132 0.0
H106 H 0.71486 0.66803 0.70827 0.0
H107 H 0.71087 0.69893 0.73862 0.0
H108 H 0.73126 0.70868 0.69624 0.0
H109 H 0.60595 0.62071 0.49993 0.0
H110 H 0.66904 0.68475 0.4301 0.0
H111 H 0.68789 0.71405 0.48347 0.0
H112 H 0.66276 0.60834 0.57988 0.0
H113 H 0.61869 0.59608 0.57398 0.0
H114 H 0.63952 0.60937 0.61812 0.0
H115 H 0.57785 0.67868 0.53786 0.0
H116 H 0.58034 0.66862 0.58869 0.0
H117 H 0.57166 0.6358 0.5594 0.0
H118 H 0.57918 0.61225 0.70121 0.0
C119 C 0.60943 0.64163 0.66321 0.0
C120 C 0.83401 0.10517 0.17561 0.0
C121 C 0.86111 0.08136 0.18333 0.0
C122 C 0.87086 0.06823 0.1521 0.0
C123 C 0.82868 0.10492 0.10611 0.0
C124 C 0.81823 0.11646 0.13708 0.0
C125 C 0.78987 0.14257 0.12419 0.0
H126 H 0.69679 0.25358 0.98102 0.0
C127 C 0.80851 0.12376 0.06967 0.0
C128 C 0.78558 0.1456 0.08017 0.0
H129 H 0.69473 0.2368 0.10514 0.0
H130 H 0.73348 0.18948 0.11491 0.0
H131 H 0.778 0.23982 0.98658 0.0
H132 H 0.69291 0.17244 0.97493 0.0
H133 H 0.72187 0.16254 0.94559 0.0
H134 H 0.70108 0.2037 0.93485 0.0
H135 H 0.74576 0.24389 0.94352 0.0
H136 H 0.78231 0.21591 0.95014 0.0
C137 C 0.80305 0.17558 0.13824 0.0
C138 C 0.75753 0.12817 0.14021 0.0
C139 C 0.83844 0.10994 0.93877 0.0
C140 C 0.82702 0.12629 0.90021 0.0
C141 C 0.79962 0.15005 0.89299 0.0
C142 C 0.78479 0.15825 0.92381 0.0
C143 C 0.79753 0.14266 0.96234 0.0
C144 C 0.82353 0.11852 0.96917 0.0
C145 C 0.83422 0.10475 0.01188 0.0
C146 C 0.81038 0.12457 0.02966 0.0
C147 C 0.78905 0.14698 1.00057 0.0
C148 C 0.87235 0.11346 0.02377 0.0
C149 C 0.82689 0.06649 0.01875 0.0
C150 C 0.70454 0.23947 0.01021 0.0
C151 C 0.6934 0.24962 0.04253 0.0
C152 C 0.70376 0.23028 0.07994 0.0
C153 C 0.72619 0.2026 0.08558 0.0
C154 C 0.73872 0.19395 0.05357 0.0
C155 C 0.72715 0.21149 0.01645 0.0
C156 C 0.74257 0.19739 0.98601 0.0
C157 C 0.7659 0.16924 0.01131 0.0
C158 C 0.76379 0.16791 0.05085 0.0
C159 C 0.76315 0.22561 0.96511 0.0
C160 C 0.71324 0.18343 0.95857 0.0
H161 H 0.86376 0.06949 0.09083 0.0
H162 H 0.82548 0.11515 0.19915 0.0
H163 H 0.75811 0.10007 0.14588 0.0
H164 H 0.7336 0.13514 0.11905 0.0
H165 H 0.75533 0.13662 0.16809 0.0
H166 H 0.83011 0.17988 0.1341 0.0
H167 H 0.80215 0.17429 0.16977 0.0
H168 H 0.7888 0.19844 0.12185 0.0
H169 H 0.85906 0.0912 0.94534 0.0
H170 H 0.79043 0.16322 0.86365 0.0
H171 H 0.76451 0.17698 0.91654 0.0
H172 H 0.8779 0.13894 0.00837 0.0
H173 H 0.8897 0.09497 0.01616 0.0
H174 H 0.87951 0.11474 0.05506 0.0
H175 H 0.80321 0.0609 0.99914 0.0
H176 H 0.82199 0.05698 0.04858 0.0
H177 H 0.84835 0.05156 0.01287 0.0
H178 H 0.89164 0.04974 0.15745 0.0
C179 C 0.85478 0.07989 0.11349 0.0
C180 C 0.36853 0.33193 0.32958 0.0
C181 C 0.39275 0.35774 0.32593 0.0
C182 C 0.40409 0.37382 0.35815 0.0
C183 C 0.36798 0.33866 0.39667 0.0
C184 C 0.35663 0.32271 0.36529 0.0
C185 C 0.3313 0.29555 0.37499 0.0
H186 H 0.24042 0.21303 0.50876 0.0
C187 C 0.35092 0.32358 0.42945 0.0
C188 C 0.32935 0.29815 0.41718 0.0
H189 H 0.24061 0.19413 0.39168 0.0
H190 H 0.281 0.23904 0.38144 0.0
H191 H 0.32018 0.21834 0.53034 0.0
H192 H 0.24005 0.29385 0.48826 0.0
H193 H 0.26855 0.30832 0.52549 0.0
H194 H 0.24626 0.26956 0.53667 0.0
H195 H 0.29285 0.23057 0.56157 0.0
H196 H 0.33189 0.25247 0.55441 0.0
C197 C 0.34678 0.26119 0.37158 0.0
C198 C 0.2967 0.30509 0.34761 0.0
C199 C 0.37619 0.36891 0.55695 0.0
C200 C 0.36486 0.3602 0.59303 0.0
C201 C 0.3416 0.33361 0.59764 0.0
C202 C 0.32971 0.31626 0.56689 0.0
C203 C 0.34123 0.3254 0.53101 0.0
C204 C 0.36423 0.35119 0.52664 0.0
C205 C 0.3741 0.35719 0.48675 0.0
C206 C 0.3531 0.33081 0.46778 0.0
C207 C 0.33381 0.3124 0.49373 0.0
C208 C 0.41322 0.34999 0.49161 0.0
C209 C 0.36236 0.39361 0.46668 0.0
C210 C 0.24936 0.21807 0.48099 0.0
C211 C 0.23733 0.19959 0.45118 0.0
C212 C 0.24918 0.20799 0.41517 0.0
C213 C 0.27283 0.23397 0.40934 0.0
C214 C 0.28487 0.25179 0.43982 0.0
C215 C 0.27303 0.24357 0.47488 0.0
C216 C 0.2887 0.26443 0.50448 0.0
C217 C 0.31191 0.28674 0.48154 0.0
C218 C 0.30962 0.27949 0.44353 0.0
C219 C 0.30934 0.24043 0.53978 0.0
C220 C 0.25955 0.28506 0.51467 0.0
H221 H 0.40162 0.37788 0.41645 0.0
H222 H 0.35939 0.31898 0.30543 0.0
H223 H 0.29095 0.33257 0.34439 0.0
H224 H 0.27477 0.29228 0.3589 0.0
H225 H 0.29735 0.29927 0.31806 0.0
H226 H 0.37482 0.25979 0.38294 0.0
H227 H 0.34306 0.25748 0.34066 0.0
H228 H 0.33601 0.23959 0.3891 0.0
H229 H 0.39369 0.38943 0.55204 0.0
H230 H 0.3328 0.3259 0.62523 0.0
H231 H 0.31203 0.29635 0.57232 0.0
H232 H 0.4221 0.33018 0.51749 0.0
H233 H 0.42812 0.373 0.49569 0.0
H234 H 0.42048 0.33983 0.46682 0.0
H235 H 0.33785 0.40069 0.47509 0.0
H236 H 0.3568 0.39665 0.43451 0.0
H237 H 0.38175 0.41227 0.47524 0.0
H238 H 0.4221 0.39421 0.35601 0.0
C239 C 0.39193 0.36445 0.3933 0.0
Eu240 Eu 0.02283 0.95956 0.51732 0.0
C241 C 0.94113 0.09587 0.47831 0.0
N242 N 0.9741 0.08975 0.49675 0.0
C243 C 0.99261 0.13858 0.45701 0.0
C244 C 0.93282 0.12347 0.44757 0.0
C245 C 0.99973 0.11076 0.48709 0.0
C246 C 0.95905 0.1449 0.43706 0.0
C247 C 0.88147 0.07973 0.47073 0.0
C248 C 0.91584 0.07388 0.48959 0.0
C249 C 0.87324 0.10686 0.43966 0.0
C250 C 0.89882 0.12866 0.42813 0.0
Eu251 Eu 0.98368 0.04273 0.54748 0.0
N252 N 0.92451 0.04763 0.51975 0.0
C253 C 0.85617 0.05872 0.48433 0.0
C254 C 0.89938 0.02927 0.5353 0.0
C255 C 0.8651 0.03381 0.51722 0.0
H256 H 0.02562 0.10598 0.50269 0.0
H257 H 0.84547 0.01859 0.52923 0.0
H258 H 0.98098 0.89626 0.56214 0.0
H259 H 0.16095 0.98424 0.53602 0.0
H260 H 0.90515 0.01181 0.56239 0.0
H261 H 0.82951 0.0624 0.47065 0.0
H262 H 0.10132 0.99078 0.50266 0.0
H263 H 0.013 0.1551 0.44921 0.0
H264 H 0.84702 0.11152 0.42473 0.0
H265 H 0.89199 0.1496 0.40429 0.0
H266 H 0.99367 0.84718 0.61568 0.0
H267 H 0.95367 0.16637 0.41362 0.0
H268 H 0.17691 0.94052 0.5947 0.0
N269 N 0.03246 0.91263 0.56817 0.0
C270 C 0.06541 0.90665 0.58673 0.0
C271 C 0.01402 0.86376 0.60791 0.0
C272 C 0.07374 0.87911 0.61753 0.0
C273 C 0.00688 0.89154 0.57779 0.0
C274 C 0.04756 0.85758 0.62798 0.0
N275 N 0.08196 0.9549 0.54525 0.0
C276 C 0.10707 0.97336 0.52979 0.0
C277 C 0.125 0.92301 0.59447 0.0
C278 C 0.09066 0.92872 0.57549 0.0
C279 C 0.15027 0.9441 0.58093 0.0
C280 C 0.14133 0.96895 0.54798 0.0
H281 H 0.05297 0.83615 0.65147 0.0
H282 H 0.11457 0.85316 0.66098 0.0
H283 H 0.15946 0.89139 0.64064 0.0
O284 O 0.04421 0.948 0.46664 0.0
O285 O 0.02352 0.96061 0.58181 0.0
O286 O 0.03128 0.01652 0.58475 0.0
O287 O 0.00977 0.91323 0.49504 0.0
O288 O 0.04406 0.01091 0.49453 0.0
O289 O 0.04016 0.04164 0.54341 0.0
O290 O 0.96238 0.05408 0.59832 0.0
O291 O 0.98255 0.04166 0.48282 0.0
O292 O 0.97518 0.98565 0.48016 0.0
O293 O 0.9967 0.089 0.56992 0.0
O294 O 0.96226 0.9914 0.57001 0.0
O295 O 0.96631 0.96062 0.52118 0.0
C296 C 0.03336 0.98481 0.60157 0.0
C297 C 0.03018 0.89547 0.44064 0.0
C298 C 0.04896 0.87991 0.38336 0.0
C299 C 0.03033 0.85004 0.38844 0.0
C300 C 0.01192 0.86529 0.44515 0.0
C301 C 0.01211 0.84276 0.41927 0.0
C302 C 0.04912 0.90252 0.40983 0.0
C303 C 0.05351 0.03613 0.51324 0.0
C304 C 0.02829 0.91944 0.4677 0.0
C305 C 0.10772 0.87406 0.63709 0.0
C306 C 0.13326 0.89594 0.62561 0.0
C307 C 0.97293 0.01731 0.46318 0.0
C308 C 0.97638 0.10653 0.62454 0.0
C309 C 0.95758 0.12201 0.68189 0.0
C310 C 0.97636 0.15179 0.67698 0.0
C311 C 0.99477 0.13664 0.62022 0.0
C312 C 0.95735 0.09948 0.65529 0.0
C313 C 0.99465 0.15908 0.64622 0.0
C314 C 0.95274 0.9663 0.55113 0.0
C315 C 0.97824 0.08267 0.59733 0.0
H316 H 0.03008 0.83215 0.36865 0.0
H317 H 0.99723 0.85909 0.46862 0.0
H318 H 0.99792 0.81964 0.42299 0.0
H319 H 0.0632 0.92573 0.40586 0.0
H320 H 0.97667 0.1696 0.69687 0.0
H321 H 0.00953 0.14286 0.59681 0.0
H322 H 0.94314 0.07634 0.65911 0.0
H323 H 0.00894 0.18214 0.64264 0.0
Eu324 Eu 0.46744 0.48963 0.99017 0.0
C325 C 0.59833 0.56585 0.0316 0.0
N326 N 0.59284 0.53267 0.04373 0.0
C327 C 0.64601 0.51744 0.02663 0.0
C328 C 0.62736 0.57606 0.01462 0.0
C329 C 0.61664 0.50852 0.04292 0.0
C330 C 0.65117 0.55131 0.01192 0.0
C331 C 0.58037 0.62429 0.02525 0.0
C332 C 0.57506 0.58957 0.03687 0.0
C333 C 0.60842 0.63457 0.00668 0.0
C334 C 0.6319 0.61051 1.00146 0.0
Eu335 Eu 0.54264 0.5194 0.07034 0.0
N336 N 0.54842 0.57881 0.05536 0.0
C337 C 0.55801 0.64767 0.03383 0.0
C338 C 0.52851 0.60157 0.06679 0.0
C339 C 0.53237 0.63625 0.05535 0.0
H340 H 0.61246 0.48237 0.0542 0.0
H341 H 0.51591 0.65414 0.06367 0.0
H342 H 0.40764 0.55297 0.96957 0.0
H343 H 0.45073 0.35447 0.03117 0.0
H344 H 0.50991 0.59321 0.0853 0.0
H345 H 0.56118 0.67456 0.02536 0.0
H346 H 0.48144 0.40636 0.0095 0.0
H347 H 0.66455 0.49821 0.02526 0.0
H348 H 0.61269 0.66112 0.9972 0.0
H349 H 0.65383 0.61886 0.98789 0.0
H350 H 0.34856 0.56209 0.97952 0.0
H351 H 0.67385 0.55814 0.99911 0.0
H352 H 0.39152 0.3588 0.04426 0.0
N353 N 0.41018 0.50117 0.99625 0.0
C354 C 0.39207 0.47409 0.00969 0.0
C355 C 0.36064 0.5373 0.98868 0.0
C356 C 0.35766 0.47789 0.01439 0.0
C357 C 0.39447 0.53218 0.98391 0.0
C358 C 0.34228 0.51013 0.0045 0.0
N359 N 0.44049 0.43928 0.01212 0.0
C360 C 0.45571 0.40829 0.01553 0.0
C361 C 0.38886 0.41335 0.02918 0.0
C362 C 0.40742 0.44219 0.01704 0.0
C363 C 0.40491 0.38154 0.03489 0.0
C364 C 0.43836 0.37898 0.02762 0.0
H365 H 0.31593 0.51409 0.00773 0.0
H366 H 0.31305 0.45184 0.03171 0.0
H367 H 0.34037 0.39536 0.04464 0.0
O368 O 0.48181 0.4691 0.94155 0.0
O369 O 0.47375 0.46145 0.05316 0.0
O370 O 0.49332 0.50159 0.09057 0.0
O371 O 0.43163 0.49203 0.93531 0.0
O372 O 0.51905 0.46251 0.99959 0.0
O373 O 0.54465 0.4645 0.06335 0.0
O374 O 0.56536 0.53826 0.12404 0.0
O375 O 0.54904 0.52062 0.00688 0.0
O376 O 0.49589 0.53758 0.97385 0.0
O377 O 0.57332 0.48563 0.11855 0.0
O378 O 0.48883 0.54137 0.06557 0.0
O379 O 0.46667 0.54409 1.00027 0.0
C380 C 0.47838 0.47289 0.08642 0.0
C381 C 0.45562 0.49385 0.87821 0.0
C382 C 0.44803 0.49019 0.80901 0.0
C383 C 0.46208 0.52243 0.80159 0.0
C384 C 0.46892 0.52618 0.87029 0.0
C385 C 0.47235 0.54032 0.83212 0.0
C386 C 0.44507 0.47602 0.84761 0.0
C387 C 0.54083 0.45077 0.03159 0.0
C388 C 0.45302 0.47803 0.91823 0.0
C389 C 0.33942 0.44936 0.02771 0.0
C390 C 0.35495 0.41717 0.03499 0.0
C391 C 0.52931 0.53824 0.97662 0.0
C392 C 0.60054 0.50202 0.17934 0.0
C393 C 0.61695 0.51429 0.2455 0.0
C394 C 0.64019 0.48663 0.25415 0.0
C395 C 0.62376 0.47443 0.18889 0.0
C396 C 0.59742 0.52213 0.20766 0.0
C397 C 0.64355 0.46696 0.226 0.0
C398 C 0.46759 0.55463 0.03377 0.0
C399 C 0.57926 0.50891 0.14015 0.0
H400 H 0.46453 0.53403 0.77214 0.0
H401 H 0.47653 0.5403 0.89362 0.0
H402 H 0.48282 0.56526 0.82617 0.0
H403 H 0.43493 0.45093 0.85396 0.0
H404 H 0.65607 0.48035 0.28266 0.0
H405 H 0.62672 0.45866 0.16758 0.0
H406 H 0.57918 0.54316 0.20063 0.0
H407 H 0.66154 0.44577 0.23302 0.0
H408 H 0.23597 0.15445 0.51863 0.0
H409 H 0.07166 0.05379 0.44068 0.0
H410 H 0.18248 0.18079 0.39998 0.0
H411 H 0.0996 0.06788 0.56037 0.0
H412 H 0.1181 0.09159 0.42333 0.0
H413 H 0.19234 0.11321 0.5323 0.0
C414 C 0.21503 0.15171 0.49538 0.0
C415 C 0.21264 0.17184 0.45825 0.0
C416 C 0.114 0.08625 0.45335 0.0
C417 C 0.16285 0.12371 0.4737 0.0
C418 C 0.0877 0.06464 0.46328 0.0
C419 C 0.08179 0.05784 0.50198 0.0
C420 C 0.13487 0.10041 0.48254 0.0
C421 C 0.10312 0.07266 0.53014 0.0
C422 C 0.1902 0.12797 0.50324 0.0
C423 C 0.18546 0.16595 0.42902 0.0
N424 N 0.12879 0.09305 0.51991 0.0
N425 N 0.16151 0.1425 0.43741 0.0
H426 H 0.36972 0.7514 0.98386 0.0
H427 H 0.43956 0.56898 0.09496 0.0
H428 H 0.32564 0.69732 0.07989 0.0
H429 H 0.4487 0.60823 0.97551 0.0
H430 H 0.40541 0.61944 0.09634 0.0
H431 H 0.4074 0.70287 0.98756 0.0
C432 C 0.36795 0.72934 0.0058 0.0
C433 C 0.34394 0.72827 0.03113 0.0
C434 C 0.4149 0.61691 0.06988 0.0
C435 C 0.38756 0.67273 0.03586 0.0
C436 C 0.43436 0.58826 0.06908 0.0
C437 C 0.44666 0.58447 0.03498 0.0
C438 C 0.40835 0.64212 0.03655 0.0
C439 C 0.43933 0.61007 0.00223 0.0
C440 C 0.38955 0.70168 0.00791 0.0
C441 C 0.34372 0.69933 0.05978 0.0
N442 N 0.42078 0.6379 0.00388 0.0
N443 N 0.36509 0.67258 0.06125 0.0
H444 H 0.76749 0.85222 0.54282 0.0
H445 H 0.93474 0.94733 0.62356 0.0
H446 H 0.82262 0.8205 0.65995 0.0
H447 H 0.90566 0.93673 0.50284 0.0
H448 H 0.88766 0.90997 0.63993 0.0
H449 H 0.81172 0.89314 0.53042 0.0
C450 C 0.78891 0.8537 0.56599 0.0
C451 C 0.79157 0.83216 0.60229 0.0
C452 C 0.89165 0.91599 0.60991 0.0
C453 C 0.84199 0.87994 0.58836 0.0
C454 C 0.9183 0.93734 0.60055 0.0
C455 C 0.92407 0.94495 0.56185 0.0
C456 C 0.8703 0.90297 0.58014 0.0
C457 C 0.90225 0.93127 0.5331 0.0
C458 C 0.81406 0.87727 0.55887 0.0
C459 C 0.81938 0.83646 0.63154 0.0
N460 N 0.87624 0.91114 0.54278 0.0
N461 N 0.84362 0.85978 0.6239 0.0
H462 H 0.70066 0.29712 0.08978 0.0
H463 H 0.53936 0.41199 0.97419 0.0
H464 H 0.63807 0.27342 0.98568 0.0
H465 H 0.5929 0.42199 0.08884 0.0
H466 H 0.57709 0.36388 0.97471 0.0
H467 H 0.66376 0.34601 0.08618 0.0
C468 C 0.679 0.30212 0.06619 0.0
C469 C 0.67213 0.28076 0.03835 0.0
C470 C 0.5805 0.37664 0.9997 0.0
C471 C 0.62979 0.33726 0.03377 0.0
C472 C 0.55899 0.40413 0.99948 0.0
C473 C 0.5629 0.42117 0.03154 0.0
C474 C 0.60627 0.36627 0.03209 0.0
C475 C 0.58879 0.40974 0.06345 0.0
C476 C 0.65797 0.33018 0.06408 0.0
C477 C 0.64429 0.28919 0.00777 0.0
N478 N 0.60947 0.38313 0.06283 0.0
N479 N 0.62398 0.31673 0.0064 0.0
H480 H 0.20704 0.88512 0.2404 0.0
H481 H 0.02356 0.87969 0.30694 0.0
H482 H 0.11073 0.88254 0.16263 0.0
H483 H 0.11676 0.8954 0.38404 0.0
H484 H 0.05557 0.88391 0.25301 0.0
H485 H 0.1753 0.89124 0.293 0.0
C486 C 0.17928 0.88598 0.23433 0.0
C487 C 0.16156 0.8833 0.19698 0.0
C488 C 0.06912 0.88677 0.28156 0.0
C489 C 0.12515 0.8904 0.25692 0.0
C490 C 0.05081 0.88435 0.31233 0.0
C491 C 0.06765 0.88697 0.34993 0.0
C492 C 0.10472 0.8914 0.28844 0.0
C493 C 0.10291 0.8933 0.35538 0.0
C494 C 0.16119 0.88968 0.26429 0.0
C495 C 0.12557 0.88495 0.19071 0.0
N496 N 0.12043 0.89488 0.32502 0.0
N497 N 0.10865 0.88817 0.22035 0.0
H498 H 0.54806 0.64175 0.74748 0.0
H499 H 0.59177 0.52765 0.9561 0.0
H500 H 0.65288 0.6197 0.80334 0.0
H501 H 0.50084 0.59139 0.92194 0.0
H502 H 0.61423 0.55706 0.89897 0.0
H503 H 0.52899 0.61876 0.80915 0.0
C504 C 0.56704 0.63218 0.77285 0.0
C505 C 0.60206 0.63258 0.77042 0.0
C506 C 0.58949 0.56475 0.90421 0.0
C507 C 0.58047 0.60591 0.84084 0.0
C508 C 0.57674 0.5481 0.93689 0.0
C509 C 0.54434 0.55699 0.94371 0.0
C510 C 0.56933 0.58994 0.87774 0.0
C511 C 0.52574 0.58338 0.91749 0.0
C512 C 0.55618 0.61922 0.80803 0.0
C513 C 0.62565 0.62 0.80416 0.0
N514 N 0.53826 0.59859 0.88539 0.0
N515 N 0.61442 0.60676 0.83792 0.0
H516 H 0.88538 0.123 0.23446 0.0
H517 H 0.93996 0.97536 0.41604 0.0
H518 H 0.87929 0.01772 0.22396 0.0
H519 H 0.97294 0.07807 0.41438 0.0
H520 H 0.91452 0.99022 0.34703 0.0
H521 H 0.914 0.10703 0.30207 0.0
C522 C 0.89008 0.09648 0.24649 0.0
C523 C 0.8798 0.0716 0.22375 0.0
C524 C 0.9273 0.00949 0.36184 0.0
C525 C 0.91257 0.05313 0.30108 0.0
C526 C 0.94179 1.00108 0.40125 0.0
C527 C 0.958 0.02574 0.42129 0.0
C528 C 0.92886 0.04283 0.34242 0.0
C529 C 0.9598 0.05853 0.40051 0.0
C530 C 0.90658 0.08739 0.28498 0.0
C531 C 0.88693 0.03764 0.24054 0.0
N532 N 0.9452 0.06618 0.3623 0.0
N533 N 0.90266 0.02935 0.27838 0.0
H534 H 0.32835 0.37856 0.64624 0.0
H535 H 0.48061 0.48184 0.74839 0.0
H536 H 0.4291 0.38484 0.61399 0.0
H537 H 0.38852 0.4557 0.79617 0.0
H538 H 0.46059 0.45009 0.69579 0.0
H539 H 0.34867 0.4098 0.69889 0.0
C540 C 0.35481 0.38623 0.65035 0.0
C541 C 0.37701 0.37894 0.62552 0.0
C542 C 0.4448 0.45126 0.71783 0.0
C543 C 0.40027 0.4154 0.68546 0.0
C544 C 0.45611 0.46955 0.74768 0.0
C545 C 0.43622 0.47135 0.77671 0.0
C546 C 0.41321 0.43494 0.71677 0.0
C547 C 0.40484 0.45464 0.77463 0.0
C548 C 0.36634 0.40428 0.68032 0.0
C549 C 0.41086 0.39027 0.63192 0.0
N550 N 0.39426 0.43724 0.74513 0.0
N551 N 0.42142 0.40798 0.66117 0.0
H552 H 0.62119 0.67497 0.3817 0.0
H553 H 0.61392 0.49124 0.32245 0.0
H554 H 0.62925 0.58189 0.46467 0.0
H555 H 0.61184 0.58339 0.23885 0.0
H556 H 0.61342 0.5245 0.37407 0.0
H557 H 0.61171 0.6424 0.32845 0.0
C558 C 0.62084 0.64769 0.38877 0.0
C559 C 0.62638 0.63117 0.42785 0.0
C560 C 0.61288 0.53752 0.34443 0.0
C561 C 0.6153 0.5937 0.36686 0.0
C562 C 0.61332 0.51853 0.31493 0.0
C563 C 0.6134 0.53453 0.27629 0.0
C564 C 0.6126 0.57292 0.33544 0.0
C565 C 0.61177 0.56998 0.26818 0.0
C566 C 0.61529 0.62912 0.3583 0.0
C567 C 0.6249 0.59579 0.43511 0.0
N568 N 0.61175 0.58799 0.29757 0.0
N569 N 0.61979 0.57828 0.40496 0.0
H570 H 0.79965 0.12012 0.82448 0.0
H571 H 0.98314 0.12122 0.75846 0.0
H572 H 0.89607 0.11921 0.90293 0.0
H573 H 0.88946 0.10778 0.68096 0.0
H574 H 0.95113 0.11751 0.81236 0.0
H575 H 0.83118 0.11352 0.77185 0.0
C576 C 0.8274 0.11842 0.83069 0.0
C577 C 0.8452 0.12026 0.86824 0.0
C578 C 0.93747 0.11501 0.78373 0.0
C579 C 0.88138 0.11259 0.80825 0.0
C580 C 0.95578 0.11712 0.75298 0.0
C581 C 0.93883 0.11499 0.71528 0.0
C582 C 0.90175 0.11122 0.77673 0.0
C583 C 0.90341 0.10945 0.70971 0.0
C584 C 0.84535 0.11443 0.80071 0.0
C585 C 0.88115 0.11751 0.87467 0.0
N586 N 0.8859 0.10818 0.74005 0.0
N587 N 0.89797 0.11405 0.845 0.0
H588 H 0.35695 0.36846 0.25081 0.0
H589 H 0.51478 0.45606 0.1597 0.0
H590 H 0.45872 0.37296 0.31655 0.0
H591 H 0.41534 0.44596 0.09201 0.0
H592 H 0.49515 0.42383 0.21719 0.0
H593 H 0.37846 0.39351 0.1913 0.0
C594 C 0.3839 0.37426 0.25265 0.0
C595 C 0.40596 0.36897 0.28882 0.0
C596 C 0.4777 0.42822 0.1896 0.0
C597 C 0.43066 0.39812 0.22099 0.0
C598 C 0.48889 0.44669 0.15688 0.0
C599 C 0.46685 0.45281 0.12081 0.0
C600 C 0.44401 0.41624 0.18632 0.0
C601 C 0.43351 0.44046 0.11869 0.0
C602 C 0.39613 0.38879 0.21872 0.0
C603 C 0.44061 0.37723 0.28946 0.0
N604 N 0.42302 0.42288 0.15099 0.0
N605 N 0.45179 0.3916 0.2562 0.0
H606 H 0.11776 0.87633 0.82987 0.0
H607 H 0.06751 0.02583 0.6492 0.0
H608 H 0.12658 0.98123 0.84156 0.0
H609 H 0.03166 0.92414 0.64989 0.0
H610 H 0.09264 0.01012 0.71828 0.0
H611 H 0.08996 0.8933 0.76208 0.0
C612 C 0.11383 0.90298 0.81807 0.0
C613 C 0.12459 0.92745 0.84121 0.0
C614 C 0.0793 0.99127 0.70322 0.0
C615 C 0.09277 0.94708 0.76369 0.0
C616 C 0.06499 1.00018 0.66379 0.0
C617 C 0.04806 0.97602 0.64348 0.0
C618 C 0.07682 0.95795 0.72234 0.0
C619 C 0.04537 0.94327 0.66398 0.0
C620 C 0.09781 0.91264 0.77947 0.0
C621 C 0.11849 0.96161 0.82468 0.0
N622 N 0.0598 0.93513 0.70218 0.0
N623 N 0.1032 0.97046 0.78675 0.0
loop_
_geom_bond_atom_site_label_1
_geom_bond_atom_site_label_2
_geom_bond_distance
_geom_bond_site_symmetry_2
_ccdc_geom_bond_type
C0 C1 1.391 . S
C0 C4 1.391 . S
C0 H42 0.948 . S
C1 C0 1.391 . S
C1 C2 1.391 . S
C2 C1 1.391 . S
C2 H58 0.947 . S
C2 C59 1.392 . S
C3 C4 1.391 . S
C3 C7 1.397 . S
C3 C59 1.419 . S
C4 C0 1.391 . S
C4 C3 1.391 . S
C4 C5 1.399 . S
C5 C4 1.399 . S
C5 C8 1.396 . S
C5 C17 1.453 . S
C5 C18 1.684 . S
H6 C30 0.948 . S
C7 C3 1.397 . S
C7 C8 1.394 . S
C7 C26 1.723 1_556 S
C8 C5 1.396 . S
C8 C7 1.394 . S
C8 C38 1.723 1_556 S
H9 C32 0.947 . S
H10 C33 0.948 . S
H11 C39 0.982 . S
H12 C40 0.979 . S
H13 C40 0.980 . S
H14 C40 0.983 . S
H15 C39 0.979 . S
H16 C39 0.977 . S
C17 C5 1.453 . S
C17 H46 0.982 . S
C17 H47 0.979 . S
C17 H48 0.977 . S
C18 C5 1.684 . S
C18 H43 0.979 . S
C18 H44 0.980 . S
C18 H45 0.983 . S
C19 C20 1.391 . S
C19 C24 1.391 . S
C19 H49 0.948 . S
C20 C19 1.391 . S
C20 C21 1.391 . S
C21 C20 1.391 . S
C21 C22 1.392 . S
C21 H50 0.947 . S
C22 C21 1.392 . S
C22 C23 1.419 . S
C22 H51 0.948 . S
C23 C22 1.419 . S
C23 C24 1.391 . S
C23 C27 1.397 . S
C24 C19 1.391 . S
C24 C23 1.391 . S
C24 C25 1.399 . S
C25 C24 1.399 . S
C25 C26 1.396 . S
C25 C28 1.453 . S
C25 C29 1.684 . S
C26 C7 1.723 1_554 S
C26 C25 1.396 . S
C26 C27 1.394 . S
C27 C23 1.397 . S
C27 C26 1.394 . S
C27 C37 1.723 . S
C28 C25 1.453 . S
C28 H52 0.982 . S
C28 H53 0.979 . S
C28 H54 0.977 1_554 S
C29 C25 1.684 . S
C29 H55 0.979 . S
C29 H56 0.980 1_554 S
C29 H57 0.983 . S
C30 H6 0.948 . S
C30 C31 1.391 . S
C30 C35 1.391 . S
C31 C30 1.391 . S
C31 C32 1.391 1_554 S
C32 H9 0.947 . S
C32 C31 1.391 1_556 S
C32 C33 1.392 . S
C33 H10 0.948 . S
C33 C32 1.392 . S
C33 C34 1.419 1_556 S
C34 C33 1.419 1_554 S
C34 C35 1.391 . S
C34 C38 1.397 . S
C35 C30 1.391 . S
C35 C34 1.391 . S
C35 C36 1.399 . S
C36 C35 1.399 . S
C36 C37 1.396 . S
C36 C39 1.453 . S
C36 C40 1.684 . S
C37 C27 1.723 . S
C37 C36 1.396 . S
C37 C38 1.394 . S
C38 C8 1.723 1_554 S
C38 C34 1.397 . S
C38 C37 1.394 . S
C39 H11 0.982 . S
C39 H15 0.979 . S
C39 H16 0.977 . S
C39 C36 1.453 . S
C40 H12 0.979 . S
C40 H13 0.980 . S
C40 H14 0.983 . S
C40 C36 1.684 . S
H41 C59 0.948 . S
H42 C0 0.948 . S
H43 C18 0.979 . S
H44 C18 0.980 . S
H45 C18 0.983 . S
H46 C17 0.982 . S
H47 C17 0.979 . S
H48 C17 0.977 . S
H49 C19 0.948 . S
H50 C21 0.947 . S
H51 C22 0.948 . S
H52 C28 0.982 . S
H53 C28 0.979 . S
H54 C28 0.977 1_556 S
H55 C29 0.979 . S
H56 C29 0.980 1_556 S
H57 C29 0.983 . S
H58 C2 0.947 . S
C59 C2 1.392 . S
C59 C3 1.419 . S
C59 H41 0.948 . S
C60 C61 1.391 . S
C60 C64 1.391 . S
C60 H102 0.948 . S
C61 C60 1.391 . S
C61 C62 1.391 . S
C62 C61 1.391 . S
C62 H118 0.947 . S
C62 C119 1.392 . S
C63 C64 1.391 . S
C63 C67 1.397 . S
C63 C119 1.419 . S
C64 C60 1.391 . S
C64 C63 1.391 . S
C64 C65 1.399 . S
C65 C64 1.399 . S
C65 C68 1.396 . S
C65 C77 1.453 . S
C65 C78 1.684 . S
H66 C90 0.948 . S
C67 C63 1.397 . S
C67 C68 1.394 . S
C67 C86 1.723 . S
C68 C65 1.396 . S
C68 C67 1.394 . S
C68 C98 1.723 . S
H69 C92 0.947 . S
H70 C93 0.948 . S
H71 C99 0.982 . S
H72 C100 0.979 . S
H73 C100 0.980 . S
H74 C100 0.983 . S
H75 C99 0.979 . S
H76 C99 0.977 . S
C77 C65 1.453 . S
C77 H106 0.982 . S
C77 H107 0.979 . S
C77 H108 0.977 . S
C78 C65 1.684 . S
C78 H103 0.979 . S
C78 H104 0.980 . S
C78 H105 0.983 . S
C79 C80 1.391 . S
C79 C84 1.391 . S
C79 H109 0.948 . S
C80 C79 1.391 . S
C80 C81 1.391 . S
C81 C80 1.391 . S
C81 C82 1.392 . S
C81 H110 0.947 . S
C82 C81 1.392 . S
C82 C83 1.419 . S
C82 H111 0.948 . S
C83 C82 1.419 . S
C83 C84 1.391 . S
C83 C87 1.397 . S
C84 C79 1.391 . S
C84 C83 1.391 . S
C84 C85 1.399 . S
C85 C84 1.399 . S
C85 C86 1.396 . S
C85 C88 1.453 . S
C85 C89 1.684 . S
C86 C67 1.723 . S
C86 C85 1.396 . S
C86 C87 1.394 . S
C87 C83 1.397 . S
C87 C86 1.394 . S
C87 C97 1.723 . S
C88 C85 1.453 . S
C88 H112 0.982 . S
C88 H113 0.979 . S
C88 H114 0.977 . S
C89 C85 1.684 . S
C89 H115 0.979 . S
C89 H116 0.980 . S
C89 H117 0.983 . S
C90 H66 0.948 . S
C90 C91 1.391 . S
C90 C95 1.391 . S
C91 C90 1.391 . S
C91 C92 1.391 . S
C92 H69 0.947 . S
C92 C91 1.391 . S
C92 C93 1.392 . S
C93 H70 0.948 . S
C93 C92 1.392 . S
C93 C94 1.419 . S
C94 C93 1.419 . S
C94 C95 1.391 . S
C94 C98 1.397 . S
C95 C90 1.391 . S
C95 C94 1.391 . S
C95 C96 1.399 . S
C96 C95 1.399 . S
C96 C97 1.396 . S
C96 C99 1.453 . S
C96 C100 1.684 . S
C97 C87 1.723 . S
C97 C96 1.396 . S
C97 C98 1.394 . S
C98 C68 1.723 . S
C98 C94 1.397 . S
C98 C97 1.394 . S
C99 H71 0.982 . S
C99 H75 0.979 . S
C99 H76 0.977 . S
C99 C96 1.453 . S
C100 H72 0.979 . S
C100 H73 0.980 . S
C100 H74 0.983 . S
C100 C96 1.684 . S
H101 C119 0.948 . S
H102 C60 0.948 . S
H103 C78 0.979 . S
H104 C78 0.980 . S
H105 C78 0.983 . S
H106 C77 0.982 . S
H107 C77 0.979 . S
H108 C77 0.977 . S
H109 C79 0.948 . S
H110 C81 0.947 . S
H111 C82 0.948 . S
H112 C88 0.982 . S
H113 C88 0.979 . S
H114 C88 0.977 . S
H115 C89 0.979 . S
H116 C89 0.980 . S
H117 C89 0.983 . S
H118 C62 0.947 . S
C119 C62 1.392 . S
C119 C63 1.419 . S
C119 H101 0.948 . S
C120 C121 1.391 . S
C120 C124 1.391 . S
C120 H162 0.948 . S
C121 C120 1.391 . S
C121 C122 1.391 . S
C122 C121 1.391 . S
C122 H178 0.947 . S
C122 C179 1.392 . S
C123 C124 1.391 . S
C123 C127 1.397 . S
C123 C179 1.419 . S
C124 C120 1.391 . S
C124 C123 1.391 . S
C124 C125 1.399 . S
C125 C124 1.399 . S
C125 C128 1.396 . S
C125 C137 1.453 . S
C125 C138 1.684 . S
H126 C150 0.948 . S
C127 C123 1.397 . S
C127 C128 1.394 . S
C127 C146 1.723 . S
C128 C125 1.396 . S
C128 C127 1.394 . S
C128 C158 1.723 . S
H129 C152 0.947 . S
H130 C153 0.948 . S
H131 C159 0.982 . S
H132 C160 0.979 . S
H133 C160 0.980 . S
H134 C160 0.983 . S
H135 C159 0.979 . S
H136 C159 0.977 . S
C137 C125 1.453 . S
C137 H166 0.982 . S
C137 H167 0.979 . S
C137 H168 0.977 . S
C138 C125 1.684 . S
C138 H163 0.979 . S
C138 H164 0.980 . S
C138 H165 0.983 . S
C139 C140 1.391 . S
C139 C144 1.391 . S
C139 H169 0.948 . S
C140 C139 1.391 . S
C140 C141 1.391 . S
C141 C140 1.391 . S
C141 C142 1.392 . S
C141 H170 0.947 . S
C142 C141 1.392 . S
C142 C143 1.419 . S
C142 H171 0.948 . S
C143 C142 1.419 . S
C143 C144 1.391 . S
C143 C147 1.397 1_556 S
C144 C139 1.391 . S
C144 C143 1.391 . S
C144 C145 1.399 1_556 S
C145 C144 1.399 1_554 S
C145 C146 1.396 . S
C145 C148 1.453 . S
C145 C149 1.684 . S
C146 C127 1.723 . S
C146 C145 1.396 . S
C146 C147 1.394 . S
C147 C143 1.397 1_554 S
C147 C146 1.394 . S
C147 C157 1.723 . S
C148 C145 1.453 . S
C148 H172 0.982 . S
C148 H173 0.979 . S
C148 H174 0.977 . S
C149 C145 1.684 . S
C149 H175 0.979 . S
C149 H176 0.980 . S
C149 H177 0.983 . S
C150 H126 0.948 . S
C150 C151 1.391 1_556 S
C150 C155 1.391 1_556 S
C151 C150 1.391 1_554 S
C151 C152 1.391 . S
C152 H129 0.947 . S
C152 C151 1.391 . S
C152 C153 1.392 . S
C153 H130 0.948 . S
C153 C152 1.392 . S
C153 C154 1.419 . S
C154 C153 1.419 . S
C154 C155 1.391 . S
C154 C158 1.397 . S
C155 C150 1.391 1_554 S
C155 C154 1.391 . S
C155 C156 1.399 1_554 S
C156 C155 1.399 1_556 S
C156 C157 1.396 1_556 S
C156 C159 1.453 . S
C156 C160 1.684 . S
C157 C147 1.723 . S
C157 C156 1.396 1_554 S
C157 C158 1.394 . S
C158 C128 1.723 . S
C158 C154 1.397 . S
C158 C157 1.394 . S
C159 H131 0.982 . S
C159 H135 0.979 . S
C159 H136 0.977 . S
C159 C156 1.453 . S
C160 H132 0.979 . S
C160 H133 0.980 . S
C160 H134 0.983 . S
C160 C156 1.684 . S
H161 C179 0.948 . S
H162 C120 0.948 . S
H163 C138 0.979 . S
H164 C138 0.980 . S
H165 C138 0.983 . S
H166 C137 0.982 . S
H167 C137 0.979 . S
H168 C137 0.977 . S
H169 C139 0.948 . S
H170 C141 0.947 . S
H171 C142 0.948 . S
H172 C148 0.982 . S
H173 C148 0.979 . S
H174 C148 0.977 . S
H175 C149 0.979 . S
H176 C149 0.980 . S
H177 C149 0.983 . S
H178 C122 0.947 . S
C179 C122 1.392 . S
C179 C123 1.419 . S
C179 H161 0.948 . S
C180 C181 1.391 . S
C180 C184 1.391 . S
C180 H222 0.948 . S
C181 C180 1.391 . S
C181 C182 1.391 . S
C182 C181 1.391 . S
C182 H238 0.947 . S
C182 C239 1.392 . S
C183 C184 1.391 . S
C183 C187 1.397 . S
C183 C239 1.419 . S
C184 C180 1.391 . S
C184 C183 1.391 . S
C184 C185 1.399 . S
C185 C184 1.399 . S
C185 C188 1.396 . S
C185 C197 1.453 . S
C185 C198 1.684 . S
H186 C210 0.948 . S
C187 C183 1.397 . S
C187 C188 1.394 . S
C187 C206 1.723 . S
C188 C185 1.396 . S
C188 C187 1.394 . S
C188 C218 1.723 . S
H189 C212 0.947 . S
H190 C213 0.948 . S
H191 C219 0.982 . S
H192 C220 0.979 . S
H193 C220 0.980 . S
H194 C220 0.983 . S
H195 C219 0.979 . S
H196 C219 0.977 . S
C197 C185 1.453 . S
C197 H226 0.982 . S
C197 H227 0.979 . S
C197 H228 0.977 . S
C198 C185 1.684 . S
C198 H223 0.979 . S
C198 H224 0.980 . S
C198 H225 0.983 . S
C199 C200 1.391 . S
C199 C204 1.391 . S
C199 H229 0.948 . S
C200 C199 1.391 . S
C200 C201 1.391 . S
C201 C200 1.391 . S
C201 C202 1.392 . S
C201 H230 0.947 . S
C202 C201 1.392 . S
C202 C203 1.419 . S
C202 H231 0.948 . S
C203 C202 1.419 . S
C203 C204 1.391 . S
C203 C207 1.397 . S
C204 C199 1.391 . S
C204 C203 1.391 . S
C204 C205 1.399 . S
C205 C204 1.399 . S
C205 C206 1.396 . S
C205 C208 1.453 . S
C205 C209 1.684 . S
C206 C187 1.723 . S
C206 C205 1.396 . S
C206 C207 1.394 . S
C207 C203 1.397 . S
C207 C206 1.394 . S
C207 C217 1.723 . S
C208 C205 1.453 . S
C208 H232 0.982 . S
C208 H233 0.979 . S
C208 H234 0.977 . S
C209 C205 1.684 . S
C209 H235 0.979 . S
C209 H236 0.980 . S
C209 H237 0.983 . S
C210 H186 0.948 . S
C210 C211 1.391 . S
C210 C215 1.391 . S
C211 C210 1.391 . S
C211 C212 1.391 . S
C212 H189 0.947 . S
C212 C211 1.391 . S
C212 C213 1.392 . S
C213 H190 0.948 . S
C213 C212 1.392 . S
C213 C214 1.419 . S
C214 C213 1.419 . S
C214 C215 1.391 . S
C214 C218 1.397 . S
C215 C210 1.391 . S
C215 C214 1.391 . S
C215 C216 1.399 . S
C216 C215 1.399 . S
C216 C217 1.396 . S
C216 C219 1.453 . S
C216 C220 1.684 . S
C217 C207 1.723 . S
C217 C216 1.396 . S
C217 C218 1.394 . S
C218 C188 1.723 . S
C218 C214 1.397 . S
C218 C217 1.394 . S
C219 H191 0.982 . S
C219 H195 0.979 . S
C219 H196 0.977 . S
C219 C216 1.453 . S
C220 H192 0.979 . S
C220 H193 0.980 . S
C220 H194 0.983 . S
C220 C216 1.684 . S
H221 C239 0.948 . S
H222 C180 0.948 . S
H223 C198 0.979 . S
H224 C198 0.980 . S
H225 C198 0.983 . S
H226 C197 0.982 . S
H227 C197 0.979 . S
H228 C197 0.977 . S
H229 C199 0.948 . S
H230 C201 0.947 . S
H231 C202 0.948 . S
H232 C208 0.982 . S
H233 C208 0.979 . S
H234 C208 0.977 . S
H235 C209 0.979 . S
H236 C209 0.980 . S
H237 C209 0.983 . S
H238 C182 0.947 . S
C239 C182 1.392 . S
C239 C183 1.419 . S
C239 H221 0.948 . S
Eu240 N269 2.600 . S
Eu240 N275 2.562 . S
Eu240 O284 2.462 . S
Eu240 O285 2.373 . S
Eu240 O287 2.432 . S
Eu240 O288 2.291 1_565 S
Eu240 O292 2.335 1_455 S
Eu240 O295 2.372 1_455 S
Eu240 C304 2.787 . S
C241 N242 1.365 . S
C241 C244 1.405 . S
C241 C248 1.448 . S
N242 C241 1.365 . S
N242 C245 1.315 1_655 S
N242 Eu251 2.600 . S
C243 C245 1.397 1_655 S
C243 C246 1.367 . S
C243 H263 0.931 1_655 S
C244 C241 1.405 . S
C244 C246 1.403 . S
C244 C250 1.439 . S
C245 N242 1.315 1_455 S
C245 C243 1.397 1_455 S
C245 H256 0.934 . S
C246 C243 1.367 . S
C246 C244 1.403 . S
C246 H267 0.929 . S
C247 C248 1.430 . S
C247 C249 1.387 . S
C247 C253 1.404 . S
C248 C241 1.448 . S
C248 C247 1.430 . S
C248 N252 1.351 . S
C249 C247 1.387 . S
C249 C250 1.374 . S
C249 H264 0.931 . S
C250 C244 1.439 . S
C250 C249 1.374 . S
C250 H265 0.931 . S
Eu251 N242 2.600 . S
Eu251 N252 2.562 . S
Eu251 O286 2.335 1_655 S
Eu251 O289 2.372 1_655 S
Eu251 O290 2.462 . S
Eu251 O291 2.373 . S
Eu251 O293 2.432 . S
Eu251 O294 2.291 1_545 S
Eu251 C315 2.787 . S
N252 C248 1.351 . S
N252 Eu251 2.562 . S
N252 C254 1.325 . S
C253 C247 1.404 . S
C253 C255 1.366 . S
C253 H261 0.930 . S
C254 N252 1.325 . S
C254 C255 1.416 . S
C254 H260 0.929 . S
C255 C253 1.366 . S
C255 C254 1.416 . S
C255 H257 0.930 . S
H256 C245 0.934 . S
H257 C255 0.930 . S
H258 C273 0.930 1_655 S
H259 C280 0.930 . S
H260 C254 0.929 . S
H261 C253 0.930 . S
H262 C276 0.929 . S
H263 C243 0.931 1_455 S
H264 C249 0.931 . S
H265 C250 0.931 . S
H266 C271 0.931 1_655 S
H267 C246 0.929 . S
H268 C279 0.930 . S
N269 Eu240 2.600 . S
N269 C270 1.365 . S
N269 C273 1.319 . S
C270 N269 1.365 . S
C270 C272 1.405 . S
C270 C278 1.448 . S
C271 H266 0.931 1_455 S
C271 C273 1.397 . S
C271 C274 1.367 . S
C272 C270 1.405 . S
C272 C274 1.403 . S
C272 C305 1.439 . S
C273 H258 0.930 1_455 S
C273 N269 1.319 . S
C273 C271 1.397 . S
C274 C271 1.367 . S
C274 C272 1.403 . S
C274 H281 0.929 . S
N275 Eu240 2.562 . S
N275 C276 1.325 . S
N275 C278 1.351 . S
C276 H262 0.929 . S
C276 N275 1.325 . S
C276 C280 1.416 . S
C277 C278 1.430 . S
C277 C279 1.404 . S
C277 C306 1.387 . S
C278 C270 1.448 . S
C278 N275 1.351 . S
C278 C277 1.430 . S
C279 H268 0.930 . S
C279 C277 1.404 . S
C279 C280 1.366 . S
C280 H259 0.930 . S
C280 C276 1.416 . S
C280 C279 1.366 . S
H281 C274 0.929 . S
H282 C305 0.931 . S
H283 C306 0.931 . S
O284 Eu240 2.462 . S
O284 C304 1.252 . S
O285 Eu240 2.373 . S
O285 C296 1.249 . S
O286 Eu251 2.335 1_455 S
O286 C296 1.264 1_545 S
O287 Eu240 2.432 . S
O287 C304 1.268 . S
O288 Eu240 2.291 1_545 S
O288 C303 1.255 . S
O289 Eu251 2.372 1_455 S
O289 C303 1.257 . S
O290 Eu251 2.462 . S
O290 C315 1.252 . S
O291 Eu251 2.373 . S
O291 C307 1.249 . S
O292 Eu240 2.335 1_655 S
O292 C307 1.264 1_565 S
O293 Eu251 2.432 . S
O293 C315 1.268 . S
O294 Eu251 2.291 1_565 S
O294 C314 1.255 . S
O295 Eu240 2.372 1_655 S
O295 C314 1.257 . S
C296 O285 1.249 . S
C296 O286 1.264 1_565 S
C297 C300 1.382 . S
C297 C302 1.390 . S
C297 C304 1.506 . S
C298 C299 1.398 . S
C298 C302 1.392 . S
C299 C298 1.398 . S
C299 C301 1.372 . S
C299 H316 0.931 . S
C300 C297 1.382 . S
C300 C301 1.390 . S
C300 H317 0.931 . S
C301 C299 1.372 . S
C301 C300 1.390 . S
C301 H318 0.929 . S
C302 C297 1.390 . S
C302 C298 1.392 . S
C302 H319 0.930 . S
C303 O288 1.255 . S
C303 O289 1.257 . S
C304 Eu240 2.787 . S
C304 O284 1.252 . S
C304 O287 1.268 . S
C304 C297 1.506 . S
C305 C272 1.439 . S
C305 H282 0.931 . S
C305 C306 1.374 . S
C306 C277 1.387 . S
C306 H283 0.931 . S
C306 C305 1.374 . S
C307 O291 1.249 . S
C307 O292 1.264 1_545 S
C308 C311 1.382 . S
C308 C312 1.390 . S
C308 C315 1.506 . S
C309 C310 1.398 . S
C309 C312 1.392 . S
C310 C309 1.398 . S
C310 C313 1.372 . S
C310 H320 0.931 . S
C311 C308 1.382 . S
C311 C313 1.390 . S
C311 H321 0.931 . S
C312 C308 1.390 . S
C312 C309 1.392 . S
C312 H322 0.930 . S
C313 C310 1.372 . S
C313 C311 1.390 . S
C313 H323 0.929 . S
C314 O294 1.255 . S
C314 O295 1.257 . S
C315 Eu251 2.787 . S
C315 O290 1.252 . S
C315 O293 1.268 . S
C315 C308 1.506 . S
H316 C299 0.931 . S
H317 C300 0.931 . S
H318 C301 0.929 . S
H319 C302 0.930 . S
H320 C310 0.931 . S
H321 C311 0.931 . S
H322 C312 0.930 . S
H323 C313 0.929 . S
Eu324 N353 2.600 . S
Eu324 N359 2.562 1_556 S
Eu324 O368 2.462 . S
Eu324 O369 2.373 1_556 S
Eu324 O371 2.432 . S
Eu324 O372 2.291 1_556 S
Eu324 O376 2.335 . S
Eu324 O379 2.381 . S
Eu324 C388 2.787 . S
C325 N326 1.365 . S
C325 C328 1.405 . S
C325 C332 1.448 . S
N326 C325 1.365 . S
N326 C329 1.319 . S
N326 Eu335 2.600 . S
C327 C329 1.397 . S
C327 C330 1.367 . S
C327 H347 0.931 . S
C328 C325 1.405 . S
C328 C330 1.403 . S
C328 C334 1.439 . S
C329 N326 1.319 . S
C329 C327 1.397 . S
C329 H340 0.930 . S
C330 C327 1.367 . S
C330 C328 1.403 . S
C330 H351 0.929 . S
C331 C332 1.430 . S
C331 C333 1.387 . S
C331 C337 1.404 . S
C332 C325 1.448 . S
C332 C331 1.430 . S
C332 N336 1.351 . S
C333 C331 1.387 . S
C333 C334 1.374 . S
C333 H348 0.931 . S
C334 C328 1.439 . S
C334 C333 1.374 . S
C334 H349 0.931 . S
Eu335 N326 2.600 . S
Eu335 N336 2.562 . S
Eu335 O370 2.335 . S
Eu335 O373 2.372 . S
Eu335 O374 2.462 . S
Eu335 O375 2.373 1_554 S
Eu335 O377 2.432 . S
Eu335 O378 2.291 . S
Eu335 C399 2.787 . S
N336 C332 1.351 . S
N336 Eu335 2.562 . S
N336 C338 1.325 . S
C337 C331 1.404 . S
C337 C339 1.366 . S
C337 H345 0.930 . S
C338 N336 1.325 . S
C338 C339 1.416 . S
C338 H344 0.929 . S
C339 C337 1.366 . S
C339 C338 1.416 . S
C339 H341 0.930 . S
H340 C329 0.930 . S
H341 C339 0.930 . S
H342 C357 0.930 . S
H343 C364 0.930 . S
H344 C338 0.929 . S
H345 C337 0.930 . S
H346 C360 0.929 . S
H347 C327 0.931 . S
H348 C333 0.931 . S
H349 C334 0.931 . S
H350 C355 0.931 . S
H351 C330 0.929 . S
H352 C363 0.930 . S
N353 Eu324 2.600 . S
N353 C354 1.365 1_556 S
N353 C357 1.319 . S
C354 N353 1.365 1_554 S
C354 C356 1.405 . S
C354 C362 1.448 . S
C355 H350 0.931 . S
C355 C357 1.397 . S
C355 C358 1.367 1_556 S
C356 C354 1.405 . S
C356 C358 1.403 . S
C356 C389 1.439 . S
C357 H342 0.930 . S
C357 N353 1.319 . S
C357 C355 1.397 . S
C358 C355 1.367 1_554 S
C358 C356 1.403 . S
C358 H365 0.929 . S
N359 Eu324 2.562 1_554 S
N359 C360 1.325 . S
N359 C362 1.351 . S
C360 H346 0.929 . S
C360 N359 1.325 . S
C360 C364 1.416 . S
C361 C362 1.430 . S
C361 C363 1.404 . S
C361 C390 1.387 . S
C362 C354 1.448 . S
C362 N359 1.351 . S
C362 C361 1.430 . S
C363 H352 0.930 . S
C363 C361 1.404 . S
C363 C364 1.366 . S
C364 H343 0.930 . S
C364 C360 1.416 . S
C364 C363 1.366 . S
H365 C358 0.929 . S
H366 C389 0.931 . S
H367 C390 0.931 . S
O368 Eu324 2.462 . S
O368 C388 1.252 . S
O369 Eu324 2.373 1_554 S
O369 C380 1.249 . S
O370 Eu335 2.335 . S
O370 C380 1.264 . S
O371 Eu324 2.432 . S
O371 C388 1.268 . S
O372 Eu324 2.291 1_554 S
O372 C387 1.255 . S
O373 Eu335 2.372 . S
O373 C387 1.257 . S
O374 Eu335 2.462 . S
O374 C399 1.252 . S
O375 Eu335 2.373 1_556 S
O375 C391 1.249 . S
O376 Eu324 2.335 . S
O376 C391 1.264 . S
O377 Eu335 2.432 . S
O377 C399 1.268 . S
O378 Eu335 2.291 . S
O378 C398 1.255 . S
O379 Eu324 2.381 . S
O379 C398 1.237 1_556 S
C380 O369 1.249 . S
C380 O370 1.264 . S
C381 C384 1.382 . S
C381 C386 1.390 . S
C381 C388 1.506 . S
C382 C383 1.398 . S
C382 C386 1.392 . S
C383 C382 1.398 . S
C383 C385 1.372 . S
C383 H400 0.931 . S
C384 C381 1.382 . S
C384 C385 1.390 . S
C384 H401 0.931 . S
C385 C383 1.372 . S
C385 C384 1.390 . S
C385 H402 0.929 . S
C386 C381 1.390 . S
C386 C382 1.392 . S
C386 H403 0.930 . S
C387 O372 1.255 . S
C387 O373 1.257 . S
C388 Eu324 2.787 . S
C388 O368 1.252 . S
C388 O371 1.268 . S
C388 C381 1.506 . S
C389 C356 1.439 . S
C389 H366 0.931 . S
C389 C390 1.374 . S
C390 C361 1.387 . S
C390 H367 0.931 . S
C390 C389 1.374 . S
C391 O375 1.249 . S
C391 O376 1.264 . S
C392 C395 1.382 . S
C392 C396 1.390 . S
C392 C399 1.506 . S
C393 C394 1.398 . S
C393 C396 1.392 . S
C394 C393 1.398 . S
C394 C397 1.372 . S
C394 H404 0.931 . S
C395 C392 1.382 . S
C395 C397 1.390 . S
C395 H405 0.931 . S
C396 C392 1.390 . S
C396 C393 1.392 . S
C396 H406 0.930 . S
C397 C394 1.372 . S
C397 C395 1.390 . S
C397 H407 0.929 . S
C398 O378 1.255 . S
C398 O379 1.237 1_554 S
C399 Eu335 2.787 . S
C399 O374 1.252 . S
C399 O377 1.268 . S
C399 C392 1.506 . S
H400 C383 0.931 . S
H401 C384 0.931 . S
H402 C385 0.929 . S
H403 C386 0.930 . S
H404 C394 0.931 . S
H405 C395 0.931 . S
H406 C396 0.930 . S
H407 C397 0.929 . S
H408 C414 0.930 . S
H409 C418 0.930 . S
H410 C423 0.929 . S
H411 C421 0.929 . S
H412 C416 0.929 . S
H413 C422 0.929 . S
C414 H408 0.930 . S
C414 C415 1.367 . S
C414 C422 1.378 . S
C415 C414 1.367 . S
C415 C423 1.433 . S
C416 H412 0.929 . S
C416 C418 1.378 . S
C416 C420 1.350 . S
C417 C420 1.463 . S
C417 C422 1.350 . S
C417 N425 1.427 . S
C418 H409 0.930 . S
C418 C416 1.378 . S
C418 C419 1.367 . S
C419 C418 1.367 . S
C419 C421 1.433 . S
C420 C416 1.350 . S
C420 C417 1.463 . S
C420 N424 1.427 . S
C421 H411 0.929 . S
C421 C419 1.433 . S
C421 N424 1.384 . S
C422 H413 0.929 . S
C422 C414 1.378 . S
C422 C417 1.350 . S
C423 H410 0.929 . S
C423 C415 1.433 . S
C423 N425 1.384 . S
N424 C420 1.427 . S
N424 C421 1.384 . S
N425 C417 1.427 . S
N425 C423 1.384 . S
H426 C432 0.930 . S
H427 C436 0.930 . S
H428 C441 0.929 . S
H429 C439 0.929 1_556 S
H430 C434 0.929 . S
H431 C440 0.936 . S
C432 H426 0.930 . S
C432 C433 1.367 . S
C432 C440 1.378 . S
C433 C432 1.367 . S
C433 C441 1.433 . S
C434 H430 0.929 . S
C434 C436 1.378 . S
C434 C438 1.350 . S
C435 C438 1.463 . S
C435 C440 1.350 . S
C435 N443 1.427 . S
C436 H427 0.930 . S
C436 C434 1.378 . S
C436 C437 1.367 . S
C437 C436 1.367 . S
C437 C439 1.433 . S
C438 C434 1.350 . S
C438 C435 1.463 . S
C438 N442 1.427 . S
C439 H429 0.929 1_554 S
C439 C437 1.433 . S
C439 N442 1.384 . S
C440 H431 0.936 . S
C440 C432 1.378 . S
C440 C435 1.350 . S
C441 H428 0.929 . S
C441 C433 1.433 . S
C441 N443 1.384 . S
N442 C438 1.427 . S
N442 C439 1.384 . S
N443 C435 1.427 . S
N443 C441 1.384 . S
H444 C450 0.930 . S
H445 C454 0.930 . S
H446 C459 0.929 . S
H447 C457 0.929 . S
H448 C452 0.929 . S
H449 C458 0.929 . S
C450 H444 0.930 . S
C450 C451 1.367 . S
C450 C458 1.378 . S
C451 C450 1.367 . S
C451 C459 1.433 . S
C452 H448 0.929 . S
C452 C454 1.378 . S
C452 C456 1.350 . S
C453 C456 1.463 . S
C453 C458 1.350 . S
C453 N461 1.427 . S
C454 H445 0.930 . S
C454 C452 1.378 . S
C454 C455 1.367 . S
C455 C454 1.367 . S
C455 C457 1.433 . S
C456 C452 1.350 . S
C456 C453 1.463 . S
C456 N460 1.427 . S
C457 H447 0.929 . S
C457 C455 1.433 . S
C457 N460 1.384 . S
C458 H449 0.929 . S
C458 C450 1.378 . S
C458 C453 1.350 . S
C459 H446 0.929 . S
C459 C451 1.433 . S
C459 N461 1.384 . S
N460 C456 1.427 . S
N460 C457 1.384 . S
N461 C453 1.427 . S
N461 C459 1.384 . S
H462 C468 0.930 . S
H463 C472 0.930 . S
H464 C477 0.929 . S
H465 C475 0.929 . S
H466 C470 0.929 . S
H467 C476 0.929 . S
C468 H462 0.930 . S
C468 C469 1.367 . S
C468 C476 1.378 . S
C469 C468 1.367 . S
C469 C477 1.433 1_554 S
C470 H466 0.929 . S
C470 C472 1.378 . S
C470 C474 1.350 1_556 S
C471 C474 1.463 . S
C471 C476 1.350 . S
C471 N479 1.427 1_554 S
C472 H463 0.930 . S
C472 C470 1.378 . S
C472 C473 1.367 1_556 S
C473 C472 1.367 1_554 S
C473 C475 1.433 . S
C474 C470 1.350 1_554 S
C474 C471 1.463 . S
C474 N478 1.427 . S
C475 H465 0.929 . S
C475 C473 1.433 . S
C475 N478 1.384 . S
C476 H467 0.929 . S
C476 C468 1.378 . S
C476 C471 1.350 . S
C477 H464 0.929 . S
C477 C469 1.433 1_556 S
C477 N479 1.384 . S
N478 C474 1.427 . S
N478 C475 1.384 . S
N479 C471 1.427 1_556 S
N479 C477 1.384 . S
H480 C486 0.930 . S
H481 C490 0.930 . S
H482 C495 0.929 . S
H483 C493 0.929 . S
H484 C488 0.929 . S
H485 C494 0.929 . S
C486 H480 0.930 . S
C486 C487 1.367 . S
C486 C494 1.378 . S
C487 C486 1.367 . S
C487 C495 1.433 . S
C488 H484 0.929 . S
C488 C490 1.378 . S
C488 C492 1.350 . S
C489 C492 1.463 . S
C489 C494 1.350 . S
C489 N497 1.427 . S
C490 H481 0.930 . S
C490 C488 1.378 . S
C490 C491 1.367 . S
C491 C490 1.367 . S
C491 C493 1.433 . S
C492 C488 1.350 . S
C492 C489 1.463 . S
C492 N496 1.427 . S
C493 H483 0.929 . S
C493 C491 1.433 . S
C493 N496 1.384 . S
C494 H485 0.929 . S
C494 C486 1.378 . S
C494 C489 1.350 . S
C495 H482 0.929 . S
C495 C487 1.433 . S
C495 N497 1.384 . S
N496 C492 1.427 . S
N496 C493 1.384 . S
N497 C489 1.427 . S
N497 C495 1.384 . S
H498 C504 0.930 . S
H499 C508 0.930 . S
H500 C513 0.929 . S
H501 C511 0.929 . S
H502 C506 0.929 . S
H503 C512 0.929 . S
C504 H498 0.930 . S
C504 C505 1.367 . S
C504 C512 1.378 . S
C505 C504 1.367 . S
C505 C513 1.433 . S
C506 H502 0.929 . S
C506 C508 1.378 . S
C506 C510 1.350 . S
C507 C510 1.463 . S
C507 C512 1.350 . S
C507 N515 1.427 . S
C508 H499 0.930 . S
C508 C506 1.378 . S
C508 C509 1.367 . S
C509 C508 1.367 . S
C509 C511 1.433 . S
C510 C506 1.350 . S
C510 C507 1.463 . S
C510 N514 1.427 . S
C511 H501 0.929 . S
C511 C509 1.433 . S
C511 N514 1.384 . S
C512 H503 0.929 . S
C512 C504 1.378 . S
C512 C507 1.350 . S
C513 H500 0.929 . S
C513 C505 1.433 . S
C513 N515 1.384 . S
N514 C510 1.427 . S
N514 C511 1.384 . S
N515 C507 1.427 . S
N515 C513 1.384 . S
H516 C522 0.930 . S
H517 C526 0.930 1_565 S
H518 C531 0.929 . S
H519 C529 0.929 . S
H520 C524 0.929 1_565 S
H521 C530 0.929 . S
C522 H516 0.930 . S
C522 C523 1.367 . S
C522 C530 1.378 . S
C523 C522 1.367 . S
C523 C531 1.433 . S
C524 H520 0.929 1_545 S
C524 C526 1.378 . S
C524 C528 1.350 . S
C525 C528 1.463 . S
C525 C530 1.350 . S
C525 N533 1.427 . S
C526 H517 0.930 1_545 S
C526 C524 1.378 . S
C526 C527 1.367 . S
C527 C526 1.367 . S
C527 C529 1.433 . S
C528 C524 1.350 . S
C528 C525 1.463 . S
C528 N532 1.427 . S
C529 H519 0.929 . S
C529 C527 1.433 . S
C529 N532 1.384 . S
C530 H521 0.929 . S
C530 C522 1.378 . S
C530 C525 1.350 . S
C531 H518 0.929 . S
C531 C523 1.433 . S
C531 N533 1.384 . S
N532 C528 1.427 . S
N532 C529 1.384 . S
N533 C525 1.427 . S
N533 C531 1.384 . S
H534 C540 0.930 . S
H535 C544 0.930 . S
H536 C549 0.929 . S
H537 C547 0.929 . S
H538 C542 0.929 . S
H539 C548 0.929 . S
C540 H534 0.930 . S
C540 C541 1.367 . S
C540 C548 1.378 . S
C541 C540 1.367 . S
C541 C549 1.433 . S
C542 H538 0.929 . S
C542 C544 1.378 . S
C542 C546 1.350 . S
C543 C546 1.463 . S
C543 C548 1.350 . S
C543 N551 1.427 . S
C544 H535 0.930 . S
C544 C542 1.378 . S
C544 C545 1.367 . S
C545 C544 1.367 . S
C545 C547 1.433 . S
C546 C542 1.350 . S
C546 C543 1.463 . S
C546 N550 1.427 . S
C547 H537 0.929 . S
C547 C545 1.433 . S
C547 N550 1.384 . S
C548 H539 0.929 . S
C548 C540 1.378 . S
C548 C543 1.350 . S
C549 H536 0.929 . S
C549 C541 1.433 . S
C549 N551 1.384 . S
N550 C546 1.427 . S
N550 C547 1.384 . S
N551 C543 1.427 . S
N551 C549 1.384 . S
H552 C558 0.930 . S
H553 C562 0.930 . S
H554 C567 0.929 . S
H555 C565 0.929 . S
H556 C560 0.929 . S
H557 C566 0.929 . S
C558 H552 0.930 . S
C558 C559 1.367 . S
C558 C566 1.378 . S
C559 C558 1.367 . S
C559 C567 1.433 . S
C560 H556 0.929 . S
C560 C562 1.378 . S
C560 C564 1.350 . S
C561 C564 1.463 . S
C561 C566 1.350 . S
C561 N569 1.427 . S
C562 H553 0.930 . S
C562 C560 1.378 . S
C562 C563 1.367 . S
C563 C562 1.367 . S
C563 C565 1.433 . S
C564 C560 1.350 . S
C564 C561 1.463 . S
C564 N568 1.427 . S
C565 H555 0.929 . S
C565 C563 1.433 . S
C565 N568 1.384 . S
C566 H557 0.929 . S
C566 C558 1.378 . S
C566 C561 1.350 . S
C567 H554 0.929 . S
C567 C559 1.433 . S
C567 N569 1.384 . S
N568 C564 1.427 . S
N568 C565 1.384 . S
N569 C561 1.427 . S
N569 C567 1.384 . S
H570 C576 0.930 . S
H571 C580 0.930 . S
H572 C585 0.929 . S
H573 C583 0.929 . S
H574 C578 0.929 . S
H575 C584 0.929 . S
C576 H570 0.930 . S
C576 C577 1.367 . S
C576 C584 1.378 . S
C577 C576 1.367 . S
C577 C585 1.433 . S
C578 H574 0.929 . S
C578 C580 1.378 . S
C578 C582 1.350 . S
C579 C582 1.463 . S
C579 C584 1.350 . S
C579 N587 1.427 . S
C580 H571 0.930 . S
C580 C578 1.378 . S
C580 C581 1.367 . S
C581 C580 1.367 . S
C581 C583 1.433 . S
C582 C578 1.350 . S
C582 C579 1.463 . S
C582 N586 1.427 . S
C583 H573 0.929 . S
C583 C581 1.433 . S
C583 N586 1.384 . S
C584 H575 0.929 . S
C584 C576 1.378 . S
C584 C579 1.350 . S
C585 H572 0.929 . S
C585 C577 1.433 . S
C585 N587 1.384 . S
N586 C582 1.427 . S
N586 C583 1.384 . S
N587 C579 1.427 . S
N587 C585 1.384 . S
H588 C594 0.930 . S
H589 C598 0.930 . S
H590 C603 0.929 . S
H591 C601 0.929 . S
H592 C596 0.929 . S
H593 C602 0.929 . S
C594 H588 0.930 . S
C594 C595 1.367 . S
C594 C602 1.378 . S
C595 C594 1.367 . S
C595 C603 1.433 . S
C596 H592 0.929 . S
C596 C598 1.378 . S
C596 C600 1.350 . S
C597 C600 1.463 . S
C597 C602 1.350 . S
C597 N605 1.427 . S
C598 H589 0.930 . S
C598 C596 1.378 . S
C598 C599 1.367 . S
C599 C598 1.367 . S
C599 C601 1.433 . S
C600 C596 1.350 . S
C600 C597 1.463 . S
C600 N604 1.427 . S
C601 H591 0.929 . S
C601 C599 1.433 . S
C601 N604 1.384 . S
C602 H593 0.929 . S
C602 C594 1.378 . S
C602 C597 1.350 . S
C603 H590 0.929 . S
C603 C595 1.433 . S
C603 N605 1.384 . S
N604 C600 1.427 . S
N604 C601 1.384 . S
N605 C597 1.427 . S
N605 C603 1.384 . S
H606 C612 0.930 . S
H607 C616 0.903 1_545 S
H608 C621 0.929 . S
H609 C619 0.929 . S
H610 C614 0.929 1_545 S
H611 C620 0.929 . S
C612 H606 0.930 . S
C612 C613 1.367 . S
C612 C620 1.378 . S
C613 C612 1.367 . S
C613 C621 1.433 . S
C614 H610 0.929 1_565 S
C614 C616 1.378 . S
C614 C618 1.350 . S
C615 C618 1.463 . S
C615 C620 1.350 . S
C615 N623 1.427 . S
C616 H607 0.903 1_565 S
C616 C614 1.378 . S
C616 C617 1.395 . S
C617 C616 1.395 . S
C617 C619 1.433 . S
C618 C614 1.350 . S
C618 C615 1.463 . S
C618 N622 1.427 . S
C619 H609 0.929 . S
C619 C617 1.433 . S
C619 N622 1.384 . S
C620 H611 0.929 . S
C620 C612 1.378 . S
C620 C615 1.350 . S
C621 H608 0.929 . S
C621 C613 1.433 . S
C621 N623 1.384 . S
N622 C618 1.427 . S
N622 C619 1.384 . S
N623 C615 1.427 . S
N623 C621 1.384 . S
C419 C303 1.633 . S
C415 C211 1.622 . S
C433 C31 1.551 . S
C437 C398 1.625 . S
C451 C91 1.649 . S
C455 C314 1.633 . S
C469 C151 1.590 . S
C473 C387 1.625 . S
C491 C298 1.407 . S
C487 C20 1.529 . S
C509 C391 1.610 . S
C505 C61 1.569 . S
C523 C121 1.608 . S
C527 C307 1.619 . S
C541 C200 1.486 . S
C545 C382 1.413 . S
C563 C393 1.396 . S
C559 C80 1.505 . S
C581 C309 1.407 . S
C577 C140 1.551 . S
C599 C380 1.612 . S
C595 C181 1.537 . S
C613 C1 1.556 . S
C617 C296 1.619 . S
