# Generated by pormake.
# Topology ftw, (4,12)-cn, num edge types: 1
# Building blocks:
#     Node 0, Type 0, BuildingBlock: GIZVER_clean_linker_0, # of connection points: 4
#     Node 1, Type 0, BuildingBlock: GIZVER_clean_linker_0, # of connection points: 4
#     Node 2, Type 0, BuildingBlock: GIZVER_clean_linker_0, # of connection points: 4
#     Node 3, Type 1, BuildingBlock: QEWDON_clean_sbu_0, # of connection points: 12
#     Edge 4, Type (0, 1), BuildingBlock: XUDNAN_clean_linker_2, # of connection points: 2
#     Edge 5, Type (0, 1), BuildingBlock: XUDNAN_clean_linker_2, # of connection points: 2
#     Edge 6, Type (0, 1), BuildingBlock: XUDNAN_clean_linker_2, # of connection points: 2
#     Edge 7, Type (0, 1), BuildingBlock: XUDNAN_clean_linker_2, # of connection points: 2
#     Edge 8, Type (0, 1), BuildingBlock: XUDNAN_clean_linker_2, # of connection points: 2
#     Edge 9, Type (0, 1), BuildingBlock: XUDNAN_clean_linker_2, # of connection points: 2
#     Edge 10, Type (0, 1), BuildingBlock: XUDNAN_clean_linker_2, # of connection points: 2
#     Edge 11, Type (0, 1), BuildingBlock: XUDNAN_clean_linker_2, # of connection points: 2
#     Edge 12, Type (0, 1), BuildingBlock: XUDNAN_clean_linker_2, # of connection points: 2
#     Edge 13, Type (0, 1), BuildingBlock: XUDNAN_clean_linker_2, # of connection points: 2
#     Edge 14, Type (0, 1), BuildingBlock: XUDNAN_clean_linker_2, # of connection points: 2
#     Edge 15, Type (0, 1), BuildingBlock: XUDNAN_clean_linker_2, # of connection points: 2
# Relax obj value: 0.120
# Max RMSD: 0.265
# Mean RMSD: 0.215
data_MOF--net-ftw--node1-QEWDON_clean_sbu_0--node2-GIZVER_clean_linker_0--edge1-XUDNAN_clean_linker_2
_symmetry_space_group_name_H-M    P1
_symmetry_Int_Tables_number       1
_symmetry_cell_setting            triclinic
loop_
_symmetry_equiv_pos_as_xyz
'x, y, z'
_cell_length_a     26.453727
_cell_length_b     24.430993
_cell_length_c     23.73772
_cell_angle_alpha  89.604609
_cell_angle_beta   89.807002
_cell_angle_gamma 90.188307
loop_
_atom_site_label
_atom_site_type_symbol
_atom_site_fract_x
_atom_site_fract_y
_atom_site_fract_z
_atom_type_partial_charge
H0 H 0.95339 0.43402 0.41131 0.0
H1 H 0.94288 0.43377 0.59218 0.0
H2 H 0.04165 0.32055 0.50936 0.0
H3 H 0.87972 0.4737 0.4598 0.0
H4 H 0.87721 0.47675 0.5348 0.0
H5 H 0.92214 0.54435 0.40577 0.0
H6 H 0.97019 0.6905 0.49223 0.0
H7 H 0.92539 0.5471 0.58593 0.0
C8 C 0.96655 0.41916 0.45181 0.0
C9 C 0.00097 0.37546 0.45423 0.0
C10 C 0.94552 0.44064 0.50138 0.0
C11 C 0.96032 0.419 0.5538 0.0
C12 C 0.99555 0.37628 0.55667 0.0
C13 C 0.01606 0.35508 0.50698 0.0
C14 C 0.90296 0.48158 0.49791 0.0
C15 C 0.92281 0.53954 0.49587 0.0
C16 C 0.93087 0.5662 0.44407 0.0
C17 C 0.94816 0.62088 0.44162 0.0
C18 C 0.95694 0.64854 0.49272 0.0
C19 C 0.94776 0.62262 0.54491 0.0
C20 C 0.93174 0.56779 0.54595 0.0
H21 H 0.43239 0.03206 0.39446 0.0
H22 H 0.44187 0.03377 0.57515 0.0
H23 H 0.31962 0.94901 0.49396 0.0
H24 H 0.48637 0.09723 0.43911 0.0
H25 H 0.48025 0.10838 0.51287 0.0
H26 H 0.55118 0.03421 0.40227 0.0
H27 H 0.67342 0.99564 0.51326 0.0
H28 H 0.53408 0.05932 0.58063 0.0
C29 C 0.41861 0.01824 0.43522 0.0
C30 C 0.37416 0.9867 0.43844 0.0
C31 C 0.44354 0.03496 0.48438 0.0
C32 C 0.42383 0.01925 0.53713 0.0
C33 C 0.37931 0.98776 0.54107 0.0
C34 C 0.35541 0.97066 0.49141 0.0
C35 C 0.48628 0.07605 0.48077 0.0
C36 C 0.53718 0.04999 0.49053 0.0
C37 C 0.56626 0.03187 0.44463 0.0
C38 C 0.61497 0.01125 0.45338 0.0
C39 C 0.63479 0.00927 0.50791 0.0
C40 C 0.60624 0.02634 0.55461 0.0
C41 C 0.55698 0.04609 0.5454 0.0
H42 H 0.5467 0.39401 0.12179 0.0
H43 H 0.58218 0.56613 0.12106 0.0
H44 H 0.66122 0.45806 0.00981 0.0
H45 H 0.51454 0.45252 0.19656 0.0
H46 H 0.5364 0.52169 0.2022 0.0
H47 H 0.43679 0.43201 0.14716 0.0
H48 H 0.34646 0.56432 0.08425 0.0
H49 H 0.49727 0.59625 0.14288 0.0
C50 C 0.56807 0.42841 0.105 0.0
C51 C 0.60438 0.41985 0.06267 0.0
C52 C 0.55962 0.48129 0.12597 0.0
C53 C 0.58781 0.52544 0.10432 0.0
C54 C 0.62429 0.51719 0.06237 0.0
C55 C 0.63238 0.46447 0.04165 0.0
C56 C 0.52154 0.49087 0.17214 0.0
C57 C 0.4728 0.51164 0.1474 0.0
C58 C 0.43292 0.47506 0.13669 0.0
C59 C 0.38739 0.49433 0.11432 0.0
C60 C 0.38223 0.54968 0.10066 0.0
C61 C 0.42189 0.58662 0.11026 0.0
C62 C 0.46695 0.5676 0.13432 0.0
Zn63 Zn 0.12302 0.12205 0.94868 0.0
Zn64 Zn 0.07716 0.11729 0.07451 0.0
O65 O 0.0854 0.07352 0.00413 0.0
H66 H 0.06756 0.04025 0.99491 0.0
C67 C 0.98839 0.1405 0.89182 0.0
O68 O 0.01005 0.14691 0.94105 0.0
Zn69 Zn 0.92139 0.89046 0.06665 0.0
Zn70 Zn 0.90387 0.91485 0.93486 0.0
O71 O 0.91084 0.95085 0.01123 0.0
H72 H 0.9084 0.93856 0.97278 0.0
Zn73 Zn 0.91333 0.06892 0.95329 0.0
O74 O 0.94938 0.05002 0.02651 0.0
Zn75 Zn 0.90014 0.06606 0.08896 0.0
H76 H 0.97994 0.02874 0.03003 0.0
Zn77 Zn 0.11786 0.89522 0.94198 0.0
O78 O 0.06933 0.92478 1.0003 0.0
H79 H 0.03669 0.94084 0.99277 0.0
Zn80 Zn 0.10522 0.92399 0.07405 0.0
C81 C 0.04374 0.83062 0.88163 0.0
O82 O 0.02001 0.8371 0.92983 0.0
O83 O 0.145 0.19587 0.98211 0.0
O84 O 0.1051 0.19432 0.06488 0.0
O85 O 0.87457 0.83855 0.94693 0.0
O86 O 0.89087 0.81906 0.03681 0.0
O87 O 0.84263 0.10136 0.96548 0.0
O88 O 0.83725 0.10349 0.05888 0.0
C89 C 0.12743 0.03174 0.13646 0.0
O90 O 0.18694 0.8729 0.97491 0.0
O91 O 0.17726 0.8968 0.06472 0.0
O92 O 0.86167 0.95377 0.87315 0.0
C93 C 0.13312 0.21855 0.02848 0.0
O94 O 0.16856 0.08734 0.88711 0.0
C95 C 0.86526 0.95209 0.15411 0.0
O96 O 0.95063 0.10849 0.88753 0.0
C97 C 0.8717 0.80652 0.98924 0.0
O98 O 0.08745 0.85158 0.87526 0.0
C99 C 0.97882 0.13239 0.13755 0.0
O100 O 0.11902 0.08286 0.13539 0.0
O101 O 0.1048 0.00208 0.10057 0.0
C102 C 0.81894 0.11384 0.0103 0.0
O103 O 0.88122 0.90644 0.13598 0.0
O104 O 0.87836 0.99638 0.12943 0.0
C105 C 0.02066 0.86348 0.12244 0.0
O106 O 0.93306 0.11763 0.14416 0.0
O107 O 0.00377 0.11328 0.09642 0.0
C108 C 0.20413 0.8774 0.02482 0.0
O109 O 0.06789 0.87213 0.12665 0.0
O110 O 0.99572 0.88939 0.08527 0.0
C111 C 0.82192 0.97952 0.88702 0.0
O112 O 0.811 0.98561 0.94063 0.0
C113 C 0.16763 0.03676 0.87484 0.0
O114 O 0.13624 0.00398 0.90179 0.0
H115 H 0.99631 0.26562 0.43712 0.0
H116 H 0.0335 0.41869 0.35313 0.0
H117 H 0.04523 0.36905 0.26337 0.0
H118 H 0.08148 0.17493 0.35194 0.0
H119 H 0.03521 0.12062 0.35227 0.0
H120 H 0.0394 0.16646 0.41129 0.0
H121 H 0.94437 0.18984 0.40026 0.0
H122 H 0.93999 0.14441 0.34131 0.0
H123 H 0.92169 0.21504 0.33342 0.0
H124 H 0.04142 0.30465 0.1812 0.0
H125 H 0.02003 0.23175 0.11308 0.0
H126 H 0.98275 0.12213 0.25112 0.0
C127 C 0.00884 0.28841 0.40033 0.0
C128 C 0.01487 0.34583 0.40213 0.0
C129 C 0.0291 0.3746 0.35258 0.0
C130 C 0.0361 0.3467 0.30161 0.0
C131 C 0.0287 0.2901 0.30103 0.0
C132 C 0.0155 0.2613 0.34925 0.0
C133 C 0.00372 0.202 0.33647 0.0
C134 C 0.04226 0.16376 0.36467 0.0
C135 C 0.94922 0.187 0.35387 0.0
C136 C 0.01015 0.20236 0.27318 0.0
C137 C 0.02582 0.25314 0.25359 0.0
C138 C 0.03071 0.26429 0.19612 0.0
C139 C 0.01879 0.22269 0.15779 0.0
C140 C 0.00123 0.17124 0.17726 0.0
C141 C 0.99742 0.16084 0.23553 0.0
H142 H 0.65614 0.07111 0.36631 0.0
H143 H 0.64679 0.90759 0.43759 0.0
H144 H 0.70904 0.87504 0.36764 0.0
H145 H 0.67391 0.0303 0.21784 0.0
H146 H 0.7186 0.08448 0.20331 0.0
H147 H 0.6698 0.09401 0.25543 0.0
H148 H 0.73789 0.11789 0.32942 0.0
H149 H 0.78693 0.10791 0.27774 0.0
H150 H 0.78825 0.07014 0.34322 0.0
H151 H 0.77459 0.86118 0.29492 0.0
H152 H 0.8384 0.86496 0.21963 0.0
H153 H 0.80898 0.03847 0.19566 0.0
C154 C 0.66638 0.02823 0.36591 0.0
C155 C 0.64635 0.99137 0.40636 0.0
C156 C 0.66145 0.93594 0.40621 0.0
C157 C 0.6968 0.91726 0.36689 0.0
C158 C 0.71687 0.95472 0.32833 0.0
C159 C 0.70215 0.00897 0.32711 0.0
C160 C 0.73178 0.04099 0.28287 0.0
C161 C 0.6964 0.06377 0.23715 0.0
C162 C 0.76307 0.08694 0.30995 0.0
C163 C 0.76555 0.99624 0.25982 0.0
C164 C 0.75604 0.9469 0.2867 0.0
C165 C 0.78226 0.89949 0.27333 0.0
C166 C 0.81868 0.9022 0.2306 0.0
C167 C 0.82903 0.95207 0.20185 0.0
C168 C 0.80226 -0.00016 0.21709 0.0
H169 H 0.93698 0.73129 0.41462 0.0
H170 H 0.97855 0.57496 0.34127 0.0
H171 H 0.98817 0.61957 0.249 0.0
H172 H 0.87288 0.79124 0.29346 0.0
H173 H 0.89989 0.85811 0.30503 0.0
H174 H 0.88909 0.81244 0.36373 0.0
H175 H 0.98367 0.82189 0.39117 0.0
H176 H 0.99395 0.86715 0.33208 0.0
H177 H 0.03176 0.80633 0.33976 0.0
H178 H 0.99722 0.68054 0.16529 0.0
H179 H 0.01683 0.75619 0.0989 0.0
H180 H 0.97729 0.87434 0.22672 0.0
C181 C 0.94833 0.70613 0.3795 0.0
C182 C 0.95578 0.6489 0.38584 0.0
C183 C 0.97058 0.61826 0.33792 0.0
C184 C 0.97647 0.64334 0.28504 0.0
C185 C 0.96833 0.69943 0.28042 0.0
C186 C 0.95556 0.73071 0.3265 0.0
C187 C 0.95421 0.79113 0.31112 0.0
C188 C 0.90081 0.81457 0.31877 0.0
C189 C 0.99323 0.82351 0.34556 0.0
C190 C 0.96888 0.78885 0.24931 0.0
C191 C 0.97577 0.73533 0.23231 0.0
C192 C 0.99151 0.72256 0.1779 0.0
C193 C 0.00224 0.76562 0.14041 0.0
C194 C 0.99747 0.82057 0.15763 0.0
C195 C 0.9798 0.83245 0.21236 0.0
H196 H 0.34275 0.06486 0.36507 0.0
H197 H 0.33156 0.89103 0.40035 0.0
H198 H 0.27064 0.88096 0.32166 0.0
H199 H 0.21401 0.08382 0.34029 0.0
H200 H 0.22266 0.13496 0.286 0.0
H201 H 0.26963 0.12667 0.33996 0.0
H202 H 0.33866 0.11178 0.26381 0.0
H203 H 0.2919 0.12052 0.20952 0.0
H204 H 0.32987 0.0594 0.21158 0.0
H205 H 0.2063 0.89233 0.24146 0.0
H206 H 0.14375 0.92452 0.17117 0.0
H207 H 0.1972 0.09097 0.19319 0.0
C208 C 0.32866 0.02439 0.35512 0.0
C209 C 0.34256 0.97848 0.38776 0.0
C210 C 0.32174 0.92652 0.37512 0.0
C211 C 0.28722 0.92049 0.33061 0.0
C212 C 0.27364 0.96696 0.2997 0.0
C213 C 0.29379 0.0179 0.31167 0.0
C214 C 0.27023 0.06229 0.27593 0.0
C215 C 0.24249 0.10438 0.31275 0.0
C216 C 0.31004 0.09011 0.23795 0.0
C217 C 0.23351 0.02859 0.24198 0.0
C218 C 0.23606 0.97364 0.25564 0.0
C219 C 0.20431 0.93528 0.23026 0.0
C220 C 0.16896 0.95383 0.19023 0.0
C221 C 0.16553 0.01015 0.17643 0.0
C222 C 0.19863 0.04757 0.20267 0.0
H223 H 0.0249 0.69124 0.57829 0.0
H224 H 0.88103 0.6229 0.63273 0.0
H225 H 0.88908 0.67044 0.72359 0.0
H226 H 0.08684 0.68019 0.71061 0.0
H227 H 0.12112 0.74378 0.70364 0.0
H228 H 0.10324 0.70635 0.64171 0.0
H229 H 0.05698 0.79194 0.6028 0.0
H230 H 0.07489 0.82968 0.6646 0.0
H231 H 0.00923 0.82444 0.64525 0.0
H232 H 0.9133 0.72317 0.80917 0.0
H233 H 0.95268 0.77742 0.88454 0.0
H234 H 0.08102 0.81191 0.77514 0.0
C235 C 0.99487 0.68685 0.60911 0.0
C236 C 0.95246 0.65312 0.59858 0.0
C237 C 0.91419 0.64789 0.64023 0.0
C238 C 0.91825 0.675 0.69181 0.0
C239 C 0.96074 0.70737 0.70115 0.0
C240 C 0.99837 0.71356 0.66103 0.0
C241 C 0.04076 0.74963 0.68254 0.0
C242 C 0.09095 0.71809 0.68476 0.0
C243 C 0.04574 0.80203 0.64665 0.0
C244 C 0.02127 0.76217 0.74114 0.0
C245 C 0.9749 0.73766 0.75084 0.0
C246 C 0.94954 0.74275 0.80205 0.0
C247 C 0.97225 0.77365 0.84462 0.0
C248 C 0.01995 0.79892 0.83583 0.0
C249 C 0.04455 0.79312 0.78321 0.0
H250 H 0.36441 0.06407 0.62284 0.0
H251 H 0.33309 0.89458 0.58201 0.0
H252 H 0.27984 0.88613 0.66765 0.0
H253 H 0.36662 0.04664 0.77825 0.0
H254 H 0.33651 0.11182 0.78908 0.0
H255 H 0.37687 0.10188 0.72872 0.0
H256 H 0.30387 0.13224 0.66311 0.0
H257 H 0.26318 0.14163 0.72307 0.0
H258 H 0.244 0.09689 0.66693 0.0
H259 H 0.22395 0.89921 0.75359 0.0
H260 H 0.17091 0.93247 0.83219 0.0
H261 H 0.23924 0.09355 0.81482 0.0
C262 C 0.34781 0.02459 0.63286 0.0
C263 C 0.35341 0.97975 0.59615 0.0
C264 C 0.32942 0.92939 0.60972 0.0
C265 C 0.29926 0.92419 0.65831 0.0
C266 C 0.2936 0.9697 0.69288 0.0
C267 C 0.31754 0.01882 0.68088 0.0
C268 C 0.30251 0.06278 0.7222 0.0
C269 C 0.34836 0.08189 0.75661 0.0
C270 C 0.27686 0.11121 0.692 0.0
C271 C 0.26537 0.0312 0.75854 0.0
C272 C 0.26107 0.97742 0.7415 0.0
C273 C 0.22745 0.9411 0.76762 0.0
C274 C 0.19739 0.9604 0.81214 0.0
C275 C 0.20087 0.01563 0.82968 0.0
C276 C 0.2357 0.05108 0.80262 0.0
H277 H 0.93357 0.30317 0.60753 0.0
H278 H 0.07898 0.38302 0.62428 0.0
H279 H 0.09529 0.3295 0.71189 0.0
H280 H 0.90191 0.29541 0.75466 0.0
H281 H 0.87276 0.22888 0.74908 0.0
H282 H 0.87307 0.27477 0.68942 0.0
H283 H 0.91612 0.19998 0.62896 0.0
H284 H 0.91636 0.15409 0.68865 0.0
H285 H 0.97466 0.17015 0.65257 0.0
H286 H 0.09352 0.26755 0.79955 0.0
H287 H 0.07475 0.20242 0.87753 0.0
H288 H 0.93249 0.16068 0.7978 0.0
C289 C 0.96856 0.30964 0.63017 0.0
C290 C 0.00478 0.3475 0.61035 0.0
C291 C 0.05068 0.35447 0.63978 0.0
C292 C 0.06021 0.32419 0.68922 0.0
C293 C 0.02367 0.28673 0.70774 0.0
C294 C 0.97887 0.2793 0.67882 0.0
C295 C 0.9461 0.23594 0.70638 0.0
C296 C 0.89548 0.26021 0.72606 0.0
C297 C 0.93785 0.18716 0.66677 0.0
C298 C 0.97908 0.22032 0.75573 0.0
C299 C 0.02361 0.25004 0.75617 0.0
C300 C 0.05892 0.24379 0.7993 0.0
C301 C 0.04799 0.20673 0.84336 0.0
C302 C 0.0024 0.17613 0.84351 0.0
C303 C 0.96805 0.18277 0.7986 0.0
H304 H 0.67519 0.95273 0.59749 0.0
H305 H 0.59076 0.09862 0.6422 0.0
H306 H 0.63419 0.10056 0.73387 0.0
H307 H 0.6845 0.89172 0.73567 0.0
H308 H 0.74858 0.86927 0.72459 0.0
H309 H 0.70623 0.8756 0.66567 0.0
H310 H 0.77018 0.94032 0.61557 0.0
H311 H 0.81256 0.93449 0.67446 0.0
H312 H 0.79174 0.00103 0.65107 0.0
H313 H 0.68823 0.08658 0.82122 0.0
H314 H 0.75135 0.06064 0.89348 0.0
H315 H 0.80794 0.93337 0.78402 0.0
C316 C 0.66575 0.98549 0.62606 0.0
C317 C 0.62923 0.0255 0.612 0.0
C318 C 0.61766 0.06667 0.65191 0.0
C319 C 0.64252 0.06848 0.70407 0.0
C320 C 0.67935 0.02934 0.71548 0.0
C321 C 0.69112 0.98887 0.67735 0.0
C322 C 0.73445 0.95381 0.69777 0.0
C323 C 0.7174 0.89407 0.70645 0.0
C324 C 0.77992 0.95768 0.65731 0.0
C325 C 0.7456 0.98114 0.75329 0.0
C326 C 0.71284 0.02398 0.76338 0.0
C327 C 0.7145 0.05362 0.81335 0.0
C328 C 0.75057 0.03893 0.85396 0.0
C329 C 0.78529 0.99622 0.84355 0.0
C330 C 0.78271 0.96719 0.79248 0.0
H331 H 0.365 0.42566 0.02772 0.0
H332 H 0.3109 0.48324 0.18912 0.0
H333 H 0.23411 0.42564 0.17997 0.0
H334 H 0.24092 0.41942 0.95978 0.0
H335 H 0.25573 0.3583 0.92104 0.0
H336 H 0.30526 0.40584 0.93901 0.0
H337 H 0.35488 0.32807 0.98884 0.0
H338 H 0.3059 0.28031 0.97026 0.0
H339 H 0.324 0.28787 0.04294 0.0
H340 H 0.1665 0.35828 0.15582 0.0
H341 H 0.11453 0.28196 0.12081 0.0
H342 H 0.211 0.27042 0.97318 0.0
C343 C 0.33681 0.42583 0.06092 0.0
C344 C 0.34335 0.45807 0.10929 0.0
C345 C 0.30608 0.45817 0.15203 0.0
C346 C 0.26243 0.42603 0.14697 0.0
C347 C 0.25668 0.39472 0.09856 0.0
C348 C 0.29283 0.39426 0.0563 0.0
C349 C 0.27823 0.35543 0.00966 0.0
C350 C 0.26952 0.38663 0.95408 0.0
C351 C 0.31811 0.31024 0.00255 0.0
C352 C 0.2291 0.33282 0.03318 0.0
C353 C 0.21703 0.35655 0.08412 0.0
C354 C 0.17516 0.33987 0.1156 0.0
C355 C 0.14572 0.29657 0.0953 0.0
C356 C 0.1583 0.27041 0.04409 0.0
C357 C 0.19977 0.29002 0.01202 0.0
H358 H 0.3891 0.63176 0.01248 0.0
H359 H 0.43213 0.672 0.18299 0.0
H360 H 0.39542 0.76429 0.17099 0.0
H361 H 0.40001 0.77843 0.95066 0.0
H362 H 0.34539 0.76609 0.90731 0.0
H363 H 0.38829 0.71094 0.9233 0.0
H364 H 0.31335 0.65349 0.9623 0.0
H365 H 0.27049 0.70829 0.94736 0.0
H366 H 0.27469 0.68104 0.01797 0.0
H367 H 0.33502 0.8396 0.14997 0.0
H368 H 0.26089 0.89329 0.11994 0.0
H369 H 0.25821 0.80529 0.96188 0.0
C370 C 0.39283 0.66113 0.0462 0.0
C371 C 0.41354 0.64533 0.09843 0.0
C372 C 0.41709 0.68391 0.14234 0.0
C373 C 0.39626 0.73633 0.13585 0.0
C374 C 0.37306 0.74961 0.08483 0.0
C375 C 0.37233 0.71344 0.0402 0.0
C376 C 0.33862 0.73368 0.99316 0.0
C377 C 0.36996 0.74816 0.94049 0.0
C378 C 0.29684 0.69166 0.97949 0.0
C379 C 0.31722 0.78455 0.02005 0.0
C380 C 0.33839 0.79389 0.07235 0.0
C381 C 0.31939 0.83383 0.10835 0.0
C382 C 0.27704 0.86392 0.09107 0.0
C383 C 0.25402 0.85371 0.03837 0.0
C384 C 0.27569 0.81495 0.0018 0.0
H385 H 0.62998 0.33192 0.12713 0.0
H386 H 0.61009 0.38459 0.95409 0.0
H387 H 0.64885 0.29873 0.92104 0.0
H388 H 0.74703 0.28662 0.1122 0.0
H389 H 0.7432 0.22802 0.15863 0.0
H390 H 0.7014 0.28479 0.16881 0.0
H391 H 0.6238 0.22019 0.16152 0.0
H392 H 0.66564 0.16286 0.15184 0.0
H393 H 0.61699 0.17686 0.10082 0.0
H394 H 0.7055 0.21995 0.90755 0.0
H395 H 0.7751 0.15395 0.9142 0.0
H396 H 0.75864 0.15034 0.09626 0.0
C397 C 0.63155 0.32391 0.08234 0.0
C398 C 0.61661 0.36419 0.04303 0.0
C399 C 0.62103 0.35377 0.98469 0.0
C400 C 0.64273 0.30506 0.96562 0.0
C401 C 0.65947 0.26713 0.00548 0.0
C402 C 0.65357 0.27562 0.06272 0.0
C403 C 0.68183 0.23297 0.09678 0.0
C404 C 0.72066 0.25972 0.13637 0.0
C405 C 0.64485 0.19602 0.12968 0.0
C406 C 0.70742 0.2017 0.0499 0.0
C407 C 0.69291 0.22106 0.99755 0.0
C408 C 0.71595 0.20319 0.94817 0.0
C409 C 0.75556 0.16554 0.95243 0.0
C410 C 0.77193 0.1462 0.00574 0.0
C411 C 0.74643 0.1635 0.05484 0.0
H412 H 0.7273 0.52619 0.0607 0.0
H413 H 0.58962 0.61297 0.01866 0.0
H414 H 0.64023 0.69271 0.98686 0.0
H415 H 0.79083 0.6379 0.11924 0.0
H416 H 0.85262 0.62048 0.0927 0.0
H417 H 0.80641 0.5675 0.10512 0.0
H418 H 0.81547 0.53556 0.00173 0.0
H419 H 0.86193 0.58843 0.98895 0.0
H420 H 0.80654 0.58414 0.94519 0.0
H421 H 0.70403 0.76235 0.96195 0.0
H422 H 0.77717 0.8243 0.95537 0.0
H423 H 0.87467 0.69698 0.02189 0.0
C424 C 0.7081 0.56174 0.04378 0.0
C425 C 0.65479 0.56363 0.04128 0.0
C426 C 0.63049 0.611 0.02043 0.0
C427 C 0.65889 0.65615 0.00204 0.0
C428 C 0.7114 0.65322 0.00531 0.0
C429 C 0.7359 0.60758 0.02613 0.0
C430 C 0.79255 0.61714 0.02952 0.0
C431 C 0.8117 0.61038 0.09027 0.0
C432 C 0.82079 0.57905 0.98894 0.0
C433 C 0.79575 0.67616 0.00966 0.0
C434 C 0.74854 0.69518 0.99408 0.0
C435 C 0.74118 0.74795 0.97375 0.0
C436 C 0.78301 0.78266 0.96996 0.0
C437 C 0.83141 0.76506 0.98772 0.0
C438 C 0.83804 0.71108 0.00779 0.0
loop_
_geom_bond_atom_site_label_1
_geom_bond_atom_site_label_2
_geom_bond_distance
_geom_bond_site_symmetry_2
_ccdc_geom_bond_type
H0 C8 0.930 . S
H1 C11 0.930 . S
H2 C13 0.930 . S
H3 C14 0.970 . S
H4 C14 0.970 . S
H5 C16 0.930 . S
H6 C18 0.930 . S
H7 C20 0.930 . S
C8 H0 0.930 . S
C8 C9 1.382 . S
C8 C10 1.426 . S
C9 C8 1.382 . S
C9 C13 1.389 1_655 S
C10 C8 1.426 . S
C10 C11 1.375 . S
C10 C14 1.532 . S
C11 H1 0.930 . S
C11 C10 1.375 . S
C11 C12 1.416 . S
C12 C11 1.416 . S
C12 C13 1.371 1_655 S
C13 H2 0.930 . S
C13 C9 1.389 1_455 S
C13 C12 1.371 1_455 S
C14 H3 0.970 . S
C14 H4 0.970 . S
C14 C10 1.532 . S
C14 C15 1.499 . S
C15 C14 1.499 . S
C15 C16 1.370 . S
C15 C20 1.415 . S
C16 H5 0.930 . S
C16 C15 1.370 . S
C16 C17 1.407 . S
C17 C16 1.407 . S
C17 C18 1.365 1_655 S
C18 H6 0.930 . S
C18 C17 1.365 1_455 S
C18 C19 1.393 1_455 S
C19 C18 1.393 1_655 S
C19 C20 1.387 . S
C20 H7 0.930 . S
C20 C15 1.415 . S
C20 C19 1.387 . S
H21 C29 0.930 . S
H22 C32 0.930 . S
H23 C34 0.930 . S
H24 C35 0.970 . S
H25 C35 0.970 . S
H26 C37 0.930 . S
H27 C39 0.930 . S
H28 C41 0.930 . S
C29 H21 0.930 . S
C29 C30 1.382 . S
C29 C31 1.426 . S
C30 C29 1.382 . S
C30 C34 1.389 1_545 S
C31 C29 1.426 . S
C31 C32 1.375 . S
C31 C35 1.532 . S
C32 H22 0.930 . S
C32 C31 1.375 . S
C32 C33 1.416 . S
C33 C32 1.416 . S
C33 C34 1.371 1_545 S
C34 H23 0.930 . S
C34 C30 1.389 1_565 S
C34 C33 1.371 1_565 S
C35 H24 0.970 . S
C35 H25 0.970 . S
C35 C31 1.532 . S
C35 C36 1.499 . S
C36 C35 1.499 . S
C36 C37 1.370 . S
C36 C41 1.415 . S
C37 H26 0.930 . S
C37 C36 1.370 . S
C37 C38 1.407 . S
C38 C37 1.407 . S
C38 C39 1.365 1_545 S
C39 H27 0.930 . S
C39 C38 1.365 1_565 S
C39 C40 1.393 1_565 S
C40 C39 1.393 1_545 S
C40 C41 1.387 . S
C41 H28 0.930 . S
C41 C36 1.415 . S
C41 C40 1.387 . S
H42 C50 0.930 . S
H43 C53 0.930 . S
H44 C55 0.930 1_556 S
H45 C56 0.970 . S
H46 C56 0.970 . S
H47 C58 0.930 . S
H48 C60 0.930 1_556 S
H49 C62 0.930 . S
C50 H42 0.930 . S
C50 C51 1.382 . S
C50 C52 1.426 . S
C51 C50 1.382 . S
C51 C55 1.389 . S
C52 C50 1.426 . S
C52 C53 1.375 . S
C52 C56 1.532 . S
C53 H43 0.930 . S
C53 C52 1.375 . S
C53 C54 1.416 . S
C54 C53 1.416 . S
C54 C55 1.371 . S
C55 H44 0.930 1_554 S
C55 C51 1.389 . S
C55 C54 1.371 . S
C56 H45 0.970 . S
C56 H46 0.970 . S
C56 C52 1.532 . S
C56 C57 1.499 . S
C57 C56 1.499 . S
C57 C58 1.370 . S
C57 C62 1.415 . S
C58 H47 0.930 . S
C58 C57 1.370 . S
C58 C59 1.407 . S
C59 C58 1.407 . S
C59 C60 1.365 . S
C60 H48 0.930 1_554 S
C60 C59 1.365 . S
C60 C61 1.393 . S
C61 C60 1.393 . S
C61 C62 1.387 . S
C62 H49 0.930 . S
C62 C57 1.415 . S
C62 C61 1.387 . S
Zn63 O65 1.933 1_556 S
Zn63 O83 1.985 . S
Zn63 O94 1.955 . S
Zn64 O65 1.911 . S
Zn64 O84 1.970 . S
Zn64 O100 1.945 . S
Zn64 O107 1.981 . S
O65 Zn63 1.933 1_554 S
O65 Zn64 1.911 . S
O65 H66 0.841 . S
H66 O65 0.841 . S
C67 O68 1.246 . S
C67 O96 1.276 1_455 S
O68 C67 1.246 . S
Zn69 O71 1.911 . S
Zn69 O86 1.970 . S
Zn69 O103 1.945 . S
Zn69 O110 1.981 . S
Zn70 O71 1.933 1_556 S
Zn70 O85 1.985 . S
Zn70 O92 1.955 . S
O71 Zn69 1.911 . S
O71 Zn70 1.933 1_554 S
O71 H72 0.841 . S
H72 O71 0.841 . S
Zn73 O74 1.933 1_556 S
Zn73 O87 1.985 . S
Zn73 O96 1.955 . S
O74 Zn73 1.933 1_554 S
O74 Zn75 1.911 . S
O74 H76 0.841 . S
Zn75 O74 1.911 . S
Zn75 O88 1.970 . S
Zn75 O104 1.981 . S
Zn75 O106 1.945 . S
H76 O74 0.841 . S
Zn77 O78 1.933 1_556 S
Zn77 O90 1.985 . S
Zn77 O98 1.955 . S
O78 Zn77 1.933 1_554 S
O78 H79 0.841 . S
O78 Zn80 1.911 . S
H79 O78 0.841 . S
Zn80 O78 1.911 . S
Zn80 O91 1.970 . S
Zn80 O101 1.981 . S
Zn80 O109 1.945 . S
C81 O82 1.246 . S
C81 O98 1.276 1_655 S
O82 C81 1.246 . S
O83 Zn63 1.985 . S
O83 C93 1.245 1_556 S
O84 Zn64 1.970 . S
O84 C93 1.263 . S
O85 Zn70 1.985 . S
O85 C97 1.245 1_556 S
O86 Zn69 1.970 . S
O86 C97 1.263 . S
O87 Zn73 1.985 . S
O87 C102 1.245 1_556 S
O88 Zn75 1.970 . S
O88 C102 1.263 . S
C89 O100 1.262 . S
C89 O101 1.245 1_545 S
O90 Zn77 1.985 . S
O90 C108 1.245 1_556 S
O91 Zn80 1.970 . S
O91 C108 1.263 . S
O92 Zn70 1.955 . S
O92 C111 1.276 1_565 S
C93 O83 1.245 1_554 S
C93 O84 1.263 . S
O94 Zn63 1.955 . S
O94 C113 1.276 1_545 S
C95 O103 1.269 . S
C95 O104 1.241 1_565 S
O96 C67 1.276 1_655 S
O96 Zn73 1.955 . S
C97 O85 1.245 1_554 S
C97 O86 1.263 . S
O98 Zn77 1.955 . S
O98 C81 1.276 1_455 S
C99 O106 1.260 . S
C99 O107 1.246 1_655 S
O100 Zn64 1.945 . S
O100 C89 1.262 . S
O101 Zn80 1.981 . S
O101 C89 1.245 1_565 S
C102 O87 1.245 1_554 S
C102 O88 1.263 . S
O103 Zn69 1.945 . S
O103 C95 1.269 . S
O104 Zn75 1.981 . S
O104 C95 1.241 1_545 S
C105 O109 1.264 . S
C105 O110 1.244 1_455 S
O106 Zn75 1.945 . S
O106 C99 1.260 . S
O107 Zn64 1.981 . S
O107 C99 1.246 1_455 S
C108 O90 1.245 1_554 S
C108 O91 1.263 . S
O109 Zn80 1.945 . S
O109 C105 1.264 . S
O110 Zn69 1.981 . S
O110 C105 1.244 1_655 S
C111 O92 1.276 1_545 S
C111 O112 1.246 . S
O112 C111 1.246 . S
C113 O94 1.276 1_565 S
C113 O114 1.246 . S
O114 C113 1.246 . S
H115 C127 0.930 . S
H116 C129 0.930 . S
H117 C130 0.930 . S
H118 C134 0.959 . S
H119 C134 0.959 . S
H120 C134 0.961 . S
H121 C135 0.960 . S
H122 C135 0.961 . S
H123 C135 0.959 . S
H124 C138 0.929 . S
H125 C139 0.931 . S
H126 C141 0.930 . S
C127 H115 0.930 . S
C127 C128 1.399 1_455 S
C127 C132 1.399 . S
C128 C127 1.399 1_655 S
C128 C129 1.376 . S
C129 H116 0.930 . S
C129 C128 1.376 . S
C129 C130 1.388 . S
C130 H117 0.930 . S
C130 C129 1.388 . S
C130 C131 1.390 . S
C131 C130 1.390 . S
C131 C132 1.394 1_655 S
C131 C137 1.465 . S
C132 C127 1.399 . S
C132 C131 1.394 1_455 S
C132 C133 1.516 . S
C133 C132 1.516 . S
C133 C134 1.502 . S
C133 C135 1.561 1_455 S
C133 C136 1.526 . S
C134 H118 0.959 . S
C134 H119 0.959 . S
C134 H120 0.961 . S
C134 C133 1.502 . S
C135 H121 0.960 . S
C135 H122 0.961 . S
C135 H123 0.959 . S
C135 C133 1.561 1_655 S
C136 C133 1.526 . S
C136 C137 1.396 1_455 S
C136 C141 1.390 . S
C137 C131 1.465 . S
C137 C136 1.396 1_655 S
C137 C138 1.399 . S
C138 H124 0.929 . S
C138 C137 1.399 . S
C138 C139 1.385 . S
C139 H125 0.931 . S
C139 C138 1.385 . S
C139 C140 1.389 1_655 S
C140 C139 1.389 1_455 S
C140 C141 1.387 . S
C141 H126 0.930 . S
C141 C136 1.390 . S
C141 C140 1.387 . S
H142 C154 0.930 . S
H143 C156 0.930 . S
H144 C157 0.930 . S
H145 C161 0.959 . S
H146 C161 0.959 . S
H147 C161 0.961 . S
H148 C162 0.960 . S
H149 C162 0.961 . S
H150 C162 0.959 . S
H151 C165 0.929 . S
H152 C166 0.931 . S
H153 C168 0.930 . S
C154 H142 0.930 . S
C154 C155 1.399 1_545 S
C154 C159 1.399 . S
C155 C154 1.399 1_565 S
C155 C156 1.376 . S
C156 H143 0.930 . S
C156 C155 1.376 . S
C156 C157 1.388 . S
C157 H144 0.930 . S
C157 C156 1.388 . S
C157 C158 1.390 . S
C158 C157 1.390 . S
C158 C159 1.394 1_565 S
C158 C164 1.465 . S
C159 C154 1.399 . S
C159 C158 1.394 1_545 S
C159 C160 1.516 . S
C160 C159 1.516 . S
C160 C161 1.502 . S
C160 C162 1.561 . S
C160 C163 1.526 . S
C161 H145 0.959 . S
C161 H146 0.959 . S
C161 H147 0.961 . S
C161 C160 1.502 . S
C162 H148 0.960 . S
C162 H149 0.961 . S
C162 H150 0.959 . S
C162 C160 1.561 . S
C163 C160 1.526 . S
C163 C164 1.396 1_545 S
C163 C168 1.390 . S
C164 C158 1.465 . S
C164 C163 1.396 1_565 S
C164 C165 1.399 . S
C165 H151 0.929 . S
C165 C164 1.399 . S
C165 C166 1.385 . S
C166 H152 0.931 . S
C166 C165 1.385 . S
C166 C167 1.389 1_565 S
C167 C166 1.389 1_545 S
C167 C168 1.387 . S
C168 H153 0.930 . S
C168 C163 1.390 . S
C168 C167 1.387 . S
H169 C181 0.930 . S
H170 C183 0.930 . S
H171 C184 0.930 . S
H172 C188 0.959 . S
H173 C188 0.959 . S
H174 C188 0.961 . S
H175 C189 0.960 . S
H176 C189 0.961 . S
H177 C189 0.959 1_455 S
H178 C192 0.929 . S
H179 C193 0.931 . S
H180 C195 0.930 . S
C181 H169 0.930 . S
C181 C182 1.399 1_655 S
C181 C186 1.399 . S
C182 C181 1.399 1_455 S
C182 C183 1.376 . S
C183 H170 0.930 . S
C183 C182 1.376 . S
C183 C184 1.388 . S
C184 H171 0.930 . S
C184 C183 1.388 . S
C184 C185 1.390 . S
C185 C184 1.390 . S
C185 C186 1.394 1_455 S
C185 C191 1.465 . S
C186 C181 1.399 . S
C186 C185 1.394 1_655 S
C186 C187 1.516 . S
C187 C186 1.516 . S
C187 C188 1.502 . S
C187 C189 1.561 . S
C187 C190 1.526 . S
C188 H172 0.959 . S
C188 H173 0.959 . S
C188 H174 0.961 . S
C188 C187 1.502 . S
C189 H175 0.960 . S
C189 H176 0.961 . S
C189 H177 0.959 1_655 S
C189 C187 1.561 . S
C190 C187 1.526 . S
C190 C191 1.396 1_655 S
C190 C195 1.390 . S
C191 C185 1.465 . S
C191 C190 1.396 1_455 S
C191 C192 1.399 . S
C192 H178 0.929 . S
C192 C191 1.399 . S
C192 C193 1.385 . S
C193 H179 0.931 . S
C193 C192 1.385 . S
C193 C194 1.389 1_455 S
C194 C193 1.389 1_655 S
C194 C195 1.387 . S
C195 H180 0.930 . S
C195 C190 1.390 . S
C195 C194 1.387 . S
H196 C208 0.930 . S
H197 C210 0.930 . S
H198 C211 0.930 . S
H199 C215 0.959 . S
H200 C215 0.959 . S
H201 C215 0.961 . S
H202 C216 0.960 . S
H203 C216 0.961 . S
H204 C216 0.959 . S
H205 C219 0.929 . S
H206 C220 0.931 . S
H207 C222 0.930 . S
C208 H196 0.930 . S
C208 C209 1.399 1_545 S
C208 C213 1.399 . S
C209 C208 1.399 1_565 S
C209 C210 1.376 . S
C210 H197 0.930 . S
C210 C209 1.376 . S
C210 C211 1.388 . S
C211 H198 0.930 . S
C211 C210 1.388 . S
C211 C212 1.390 . S
C212 C211 1.390 . S
C212 C213 1.394 1_565 S
C212 C218 1.465 . S
C213 C208 1.399 . S
C213 C212 1.394 1_545 S
C213 C214 1.516 . S
C214 C213 1.516 . S
C214 C215 1.502 . S
C214 C216 1.561 . S
C214 C217 1.526 . S
C215 H199 0.959 . S
C215 H200 0.959 . S
C215 H201 0.961 . S
C215 C214 1.502 . S
C216 H202 0.960 . S
C216 H203 0.961 . S
C216 H204 0.959 . S
C216 C214 1.561 . S
C217 C214 1.526 . S
C217 C218 1.396 1_545 S
C217 C222 1.390 . S
C218 C212 1.465 . S
C218 C217 1.396 1_565 S
C218 C219 1.399 . S
C219 H205 0.929 . S
C219 C218 1.399 . S
C219 C220 1.385 . S
C220 H206 0.931 . S
C220 C219 1.385 . S
C220 C221 1.389 . S
C221 C220 1.389 . S
C221 C222 1.387 1_565 S
C222 H207 0.930 . S
C222 C217 1.390 . S
C222 C221 1.387 1_545 S
H223 C235 0.930 . S
H224 C237 0.930 . S
H225 C238 0.930 . S
H226 C242 0.959 . S
H227 C242 0.959 . S
H228 C242 0.961 . S
H229 C243 0.960 . S
H230 C243 0.961 . S
H231 C243 0.940 1_655 S
H232 C246 0.929 . S
H233 C247 0.931 . S
H234 C249 0.930 . S
C235 H223 0.930 . S
C235 C236 1.399 1_455 S
C235 C240 1.399 . S
C236 C235 1.399 1_655 S
C236 C237 1.376 . S
C237 H224 0.930 . S
C237 C236 1.376 . S
C237 C238 1.388 . S
C238 H225 0.930 . S
C238 C237 1.388 . S
C238 C239 1.390 . S
C239 C238 1.390 . S
C239 C240 1.394 1_655 S
C239 C245 1.465 . S
C240 C235 1.399 . S
C240 C239 1.394 1_455 S
C240 C241 1.516 . S
C241 C240 1.516 . S
C241 C242 1.502 . S
C241 C243 1.561 . S
C241 C244 1.526 . S
C242 H226 0.959 . S
C242 H227 0.959 . S
C242 H228 0.961 . S
C242 C241 1.502 . S
C243 H229 0.960 . S
C243 H230 0.961 . S
C243 H231 0.940 1_455 S
C243 C241 1.561 . S
C244 C241 1.526 . S
C244 C245 1.396 1_455 S
C244 C249 1.390 . S
C245 C239 1.465 . S
C245 C244 1.396 1_655 S
C245 C246 1.399 . S
C246 H232 0.929 . S
C246 C245 1.399 . S
C246 C247 1.385 . S
C247 H233 0.931 . S
C247 C246 1.385 . S
C247 C248 1.389 . S
C248 C247 1.389 . S
C248 C249 1.387 1_655 S
C249 H234 0.930 . S
C249 C244 1.390 . S
C249 C248 1.387 1_455 S
H250 C262 0.930 . S
H251 C264 0.930 . S
H252 C265 0.930 . S
H253 C269 0.959 . S
H254 C269 0.959 . S
H255 C269 0.961 . S
H256 C270 0.960 . S
H257 C270 0.961 . S
H258 C270 0.959 . S
H259 C273 0.929 . S
H260 C274 0.931 . S
H261 C276 0.930 . S
C262 H250 0.930 . S
C262 C263 1.399 1_545 S
C262 C267 1.399 . S
C263 C262 1.399 1_565 S
C263 C264 1.376 . S
C264 H251 0.930 . S
C264 C263 1.376 . S
C264 C265 1.388 . S
C265 H252 0.930 . S
C265 C264 1.388 . S
C265 C266 1.390 . S
C266 C265 1.390 . S
C266 C267 1.394 1_565 S
C266 C272 1.465 . S
C267 C262 1.399 . S
C267 C266 1.394 1_545 S
C267 C268 1.516 . S
C268 C267 1.516 . S
C268 C269 1.502 . S
C268 C270 1.561 . S
C268 C271 1.526 . S
C269 H253 0.959 . S
C269 H254 0.959 . S
C269 H255 0.961 . S
C269 C268 1.502 . S
C270 H256 0.960 . S
C270 H257 0.961 . S
C270 H258 0.959 . S
C270 C268 1.561 . S
C271 C268 1.526 . S
C271 C272 1.396 1_545 S
C271 C276 1.390 . S
C272 C266 1.465 . S
C272 C271 1.396 1_565 S
C272 C273 1.399 . S
C273 H259 0.929 . S
C273 C272 1.399 . S
C273 C274 1.385 . S
C274 H260 0.931 . S
C274 C273 1.385 . S
C274 C275 1.389 . S
C275 C274 1.389 . S
C275 C276 1.387 1_565 S
C276 H261 0.930 . S
C276 C271 1.390 . S
C276 C275 1.387 1_545 S
H277 C289 0.930 . S
H278 C291 0.930 . S
H279 C292 0.930 . S
H280 C296 0.959 . S
H281 C296 0.959 . S
H282 C296 0.961 . S
H283 C297 0.960 . S
H284 C297 0.961 . S
H285 C297 0.959 . S
H286 C300 0.929 . S
H287 C301 0.931 . S
H288 C303 0.930 . S
C289 H277 0.930 . S
C289 C290 1.399 1_655 S
C289 C294 1.399 . S
C290 C289 1.399 1_455 S
C290 C291 1.376 . S
C291 H278 0.930 . S
C291 C290 1.376 . S
C291 C292 1.388 . S
C292 H279 0.930 . S
C292 C291 1.388 . S
C292 C293 1.390 . S
C293 C292 1.390 . S
C293 C294 1.394 1_455 S
C293 C299 1.465 . S
C294 C289 1.399 . S
C294 C293 1.394 1_655 S
C294 C295 1.516 . S
C295 C294 1.516 . S
C295 C296 1.502 . S
C295 C297 1.561 . S
C295 C298 1.526 . S
C296 H280 0.959 . S
C296 H281 0.959 . S
C296 H282 0.961 . S
C296 C295 1.502 . S
C297 H283 0.960 . S
C297 H284 0.961 . S
C297 H285 0.959 . S
C297 C295 1.561 . S
C298 C295 1.526 . S
C298 C299 1.396 1_655 S
C298 C303 1.390 . S
C299 C293 1.465 . S
C299 C298 1.396 1_455 S
C299 C300 1.399 . S
C300 H286 0.929 . S
C300 C299 1.399 . S
C300 C301 1.385 . S
C301 H287 0.931 . S
C301 C300 1.385 . S
C301 C302 1.389 . S
C302 C301 1.389 . S
C302 C303 1.387 1_455 S
C303 H288 0.930 . S
C303 C298 1.390 . S
C303 C302 1.387 1_655 S
H304 C316 0.930 . S
H305 C318 0.930 . S
H306 C319 0.930 . S
H307 C323 0.959 . S
H308 C323 0.959 . S
H309 C323 0.961 . S
H310 C324 0.960 . S
H311 C324 0.961 . S
H312 C324 0.959 . S
H313 C327 0.929 . S
H314 C328 0.931 . S
H315 C330 0.930 . S
C316 H304 0.930 . S
C316 C317 1.399 1_565 S
C316 C321 1.399 . S
C317 C316 1.399 1_545 S
C317 C318 1.376 . S
C318 H305 0.930 . S
C318 C317 1.376 . S
C318 C319 1.388 . S
C319 H306 0.930 . S
C319 C318 1.388 . S
C319 C320 1.390 . S
C320 C319 1.390 . S
C320 C321 1.394 1_545 S
C320 C326 1.465 . S
C321 C316 1.399 . S
C321 C320 1.394 1_565 S
C321 C322 1.516 . S
C322 C321 1.516 . S
C322 C323 1.502 . S
C322 C324 1.561 . S
C322 C325 1.526 . S
C323 H307 0.959 . S
C323 H308 0.959 . S
C323 H309 0.961 . S
C323 C322 1.502 . S
C324 H310 0.960 . S
C324 H311 0.961 . S
C324 H312 0.959 . S
C324 C322 1.561 . S
C325 C322 1.526 . S
C325 C326 1.396 1_565 S
C325 C330 1.390 . S
C326 C320 1.465 . S
C326 C325 1.396 1_545 S
C326 C327 1.399 . S
C327 H313 0.929 . S
C327 C326 1.399 . S
C327 C328 1.385 . S
C328 H314 0.931 . S
C328 C327 1.385 . S
C328 C329 1.389 . S
C329 C328 1.389 . S
C329 C330 1.387 1_545 S
C330 H315 0.930 . S
C330 C325 1.390 . S
C330 C329 1.387 1_565 S
H331 C343 0.930 . S
H332 C345 0.930 . S
H333 C346 0.930 . S
H334 C350 0.959 . S
H335 C350 0.959 . S
H336 C350 0.961 . S
H337 C351 0.960 . S
H338 C351 0.961 . S
H339 C351 0.959 . S
H340 C354 0.929 . S
H341 C355 0.931 . S
H342 C357 0.930 . S
C343 H331 0.930 . S
C343 C344 1.399 1_556 S
C343 C348 1.399 . S
C344 C343 1.399 1_554 S
C344 C345 1.376 . S
C345 H332 0.930 . S
C345 C344 1.376 . S
C345 C346 1.388 . S
C346 H333 0.930 . S
C346 C345 1.388 . S
C346 C347 1.390 . S
C347 C346 1.390 . S
C347 C348 1.394 1_554 S
C347 C353 1.465 . S
C348 C343 1.399 . S
C348 C347 1.394 1_556 S
C348 C349 1.516 . S
C349 C348 1.516 . S
C349 C350 1.502 . S
C349 C351 1.561 . S
C349 C352 1.526 . S
C350 H334 0.959 . S
C350 H335 0.959 . S
C350 H336 0.961 . S
C350 C349 1.502 . S
C351 H337 0.960 . S
C351 H338 0.961 . S
C351 H339 0.959 . S
C351 C349 1.561 . S
C352 C349 1.526 . S
C352 C353 1.396 1_556 S
C352 C357 1.390 . S
C353 C347 1.465 . S
C353 C352 1.396 1_554 S
C353 C354 1.399 . S
C354 H340 0.929 . S
C354 C353 1.399 . S
C354 C355 1.385 . S
C355 H341 0.931 . S
C355 C354 1.385 . S
C355 C356 1.389 . S
C356 C355 1.389 . S
C356 C357 1.387 1_554 S
C357 H342 0.930 . S
C357 C352 1.390 . S
C357 C356 1.387 1_556 S
H358 C370 0.930 . S
H359 C372 0.930 . S
H360 C373 0.930 . S
H361 C377 0.959 . S
H362 C377 0.959 . S
H363 C377 0.961 . S
H364 C378 0.960 . S
H365 C378 0.961 . S
H366 C378 0.959 . S
H367 C381 0.929 . S
H368 C382 0.931 . S
H369 C384 0.930 . S
C370 H358 0.930 . S
C370 C371 1.399 1_556 S
C370 C375 1.399 . S
C371 C370 1.399 1_554 S
C371 C372 1.376 . S
C372 H359 0.930 . S
C372 C371 1.376 . S
C372 C373 1.388 . S
C373 H360 0.930 . S
C373 C372 1.388 . S
C373 C374 1.390 . S
C374 C373 1.390 . S
C374 C375 1.394 1_554 S
C374 C380 1.465 . S
C375 C370 1.399 . S
C375 C374 1.394 1_556 S
C375 C376 1.516 . S
C376 C375 1.516 . S
C376 C377 1.502 . S
C376 C378 1.561 . S
C376 C379 1.526 . S
C377 H361 0.959 . S
C377 H362 0.959 . S
C377 H363 0.961 . S
C377 C376 1.502 . S
C378 H364 0.960 . S
C378 H365 0.961 . S
C378 H366 0.959 . S
C378 C376 1.561 . S
C379 C376 1.526 . S
C379 C380 1.396 1_556 S
C379 C384 1.390 . S
C380 C374 1.465 . S
C380 C379 1.396 1_554 S
C380 C381 1.399 . S
C381 H367 0.929 . S
C381 C380 1.399 . S
C381 C382 1.385 . S
C382 H368 0.931 . S
C382 C381 1.385 . S
C382 C383 1.389 . S
C383 C382 1.389 . S
C383 C384 1.387 1_554 S
C384 H369 0.930 . S
C384 C379 1.390 . S
C384 C383 1.387 1_556 S
H385 C397 0.930 . S
H386 C399 0.930 . S
H387 C400 0.930 . S
H388 C404 0.959 . S
H389 C404 0.959 . S
H390 C404 0.961 . S
H391 C405 0.960 . S
H392 C405 0.961 . S
H393 C405 0.959 . S
H394 C408 0.929 . S
H395 C409 0.931 . S
H396 C411 0.930 . S
C397 H385 0.930 . S
C397 C398 1.399 . S
C397 C402 1.399 . S
C398 C397 1.399 . S
C398 C399 1.376 1_554 S
C399 H386 0.930 . S
C399 C398 1.376 1_556 S
C399 C400 1.388 . S
C400 H387 0.930 . S
C400 C399 1.388 . S
C400 C401 1.390 . S
C401 C400 1.390 . S
C401 C402 1.394 1_556 S
C401 C407 1.465 . S
C402 C397 1.399 . S
C402 C401 1.394 1_554 S
C402 C403 1.516 . S
C403 C402 1.516 . S
C403 C404 1.502 . S
C403 C405 1.561 . S
C403 C406 1.526 . S
C404 H388 0.959 . S
C404 H389 0.959 . S
C404 H390 0.961 . S
C404 C403 1.502 . S
C405 H391 0.960 . S
C405 H392 0.961 . S
C405 H393 0.959 . S
C405 C403 1.561 . S
C406 C403 1.526 . S
C406 C407 1.396 1_554 S
C406 C411 1.390 . S
C407 C401 1.465 . S
C407 C406 1.396 1_556 S
C407 C408 1.399 . S
C408 H394 0.929 . S
C408 C407 1.399 . S
C408 C409 1.385 . S
C409 H395 0.931 . S
C409 C408 1.385 . S
C409 C410 1.389 1_556 S
C410 C409 1.389 1_554 S
C410 C411 1.387 . S
C411 H396 0.930 . S
C411 C406 1.390 . S
C411 C410 1.387 . S
H412 C424 0.930 . S
H413 C426 0.930 . S
H414 C427 0.930 . S
H415 C431 0.959 1_554 S
H416 C431 0.959 . S
H417 C431 0.961 . S
H418 C432 0.960 . S
H419 C432 0.961 . S
H420 C432 0.959 . S
H421 C435 0.929 . S
H422 C436 0.931 . S
H423 C438 0.930 . S
C424 H412 0.930 . S
C424 C425 1.399 1_556 S
C424 C429 1.399 . S
C425 C424 1.399 1_554 S
C425 C426 1.376 . S
C426 H413 0.930 . S
C426 C425 1.376 . S
C426 C427 1.388 . S
C427 H414 0.930 . S
C427 C426 1.388 . S
C427 C428 1.390 . S
C428 C427 1.390 . S
C428 C429 1.394 1_554 S
C428 C434 1.465 . S
C429 C424 1.399 . S
C429 C428 1.394 1_556 S
C429 C430 1.516 . S
C430 C429 1.516 . S
C430 C431 1.502 . S
C430 C432 1.561 . S
C430 C433 1.530 . S
C431 H415 0.959 1_556 S
C431 H416 0.959 . S
C431 H417 0.961 . S
C431 C430 1.502 . S
C432 H418 0.960 . S
C432 H419 0.961 . S
C432 H420 0.959 . S
C432 C430 1.561 . S
C433 C430 1.530 . S
C433 C434 1.391 1_556 S
C433 C438 1.390 . S
C434 C428 1.465 . S
C434 C433 1.391 1_554 S
C434 C435 1.399 . S
C435 H421 0.929 . S
C435 C434 1.399 . S
C435 C436 1.385 . S
C436 H422 0.931 . S
C436 C435 1.385 . S
C436 C437 1.389 . S
C437 C436 1.389 . S
C437 C438 1.387 1_554 S
C438 H423 0.930 . S
C438 C433 1.390 . S
C438 C437 1.387 1_556 S
C140 C99 1.265 1_455 S
C128 C9 1.355 . S
C167 C95 1.641 1_545 S
C155 C38 1.701 1_565 S
C194 C105 1.273 1_655 S
C182 C17 1.388 1_455 S
C221 C89 1.660 1_565 S
C209 C30 1.731 1_565 S
C236 C19 1.431 . S
C248 C81 1.415 . S
C275 C113 1.796 . S
C263 C33 1.793 1_565 S
C290 C12 1.478 1_455 S
C302 C67 1.449 . S
C317 C40 1.783 . S
C329 C111 1.763 . S
C344 C59 1.368 . S
C356 C93 1.405 . S
C371 C61 1.393 . S
C383 C108 1.365 . S
C410 C102 1.409 . S
C398 C51 1.444 . S
C437 C97 1.370 . S
C425 C54 1.398 . S
