# Generated by pormake.
# Topology pth, (4,4)-cn, num edge types: 1
# Building blocks:
#     Node 0, Type 0, BuildingBlock: TATPOV_clean_sbu_0, # of connection points: 4
#     Node 1, Type 0, BuildingBlock: TATPOV_clean_sbu_0, # of connection points: 4
#     Node 2, Type 0, BuildingBlock: TATPOV_clean_sbu_0, # of connection points: 4
#     Node 3, Type 1, BuildingBlock: MUDLON_clean_linker_0, # of connection points: 4
#     Node 4, Type 1, BuildingBlock: MUDLON_clean_linker_0, # of connection points: 4
#     Node 5, Type 1, BuildingBlock: MUDLON_clean_linker_0, # of connection points: 4
#     Edge 6, Type (0, 1), BuildingBlock: KIFKEQ_clean_linker_1, # of connection points: 2
#     Edge 7, Type (0, 1), BuildingBlock: KIFKEQ_clean_linker_1, # of connection points: 2
#     Edge 8, Type (0, 1), BuildingBlock: KIFKEQ_clean_linker_1, # of connection points: 2
#     Edge 9, Type (0, 1), BuildingBlock: KIFKEQ_clean_linker_1, # of connection points: 2
#     Edge 10, Type (0, 1), BuildingBlock: KIFKEQ_clean_linker_1, # of connection points: 2
#     Edge 11, Type (0, 1), BuildingBlock: KIFKEQ_clean_linker_1, # of connection points: 2
#     Edge 12, Type (0, 1), BuildingBlock: KIFKEQ_clean_linker_1, # of connection points: 2
#     Edge 13, Type (0, 1), BuildingBlock: KIFKEQ_clean_linker_1, # of connection points: 2
#     Edge 14, Type (0, 1), BuildingBlock: KIFKEQ_clean_linker_1, # of connection points: 2
#     Edge 15, Type (0, 1), BuildingBlock: KIFKEQ_clean_linker_1, # of connection points: 2
#     Edge 16, Type (0, 1), BuildingBlock: KIFKEQ_clean_linker_1, # of connection points: 2
#     Edge 17, Type (0, 1), BuildingBlock: KIFKEQ_clean_linker_1, # of connection points: 2
# Relax obj value: 0.054
# Max RMSD: 0.166
# Mean RMSD: 0.112
data_MOF--net-pth--node1-TATPOV_clean_sbu_0--node2-MUDLON_clean_linker_0--edge1-KIFKEQ_clean_linker_1
_symmetry_space_group_name_H-M    P1
_symmetry_Int_Tables_number       1
_symmetry_cell_setting            triclinic
loop_
_symmetry_equiv_pos_as_xyz
'x, y, z'
_cell_length_a     34.084234
_cell_length_b     33.832886
_cell_length_c     67.611639
_cell_angle_alpha  92.555432
_cell_angle_beta   92.233147
_cell_angle_gamma 120.7606
loop_
_atom_site_label
_atom_site_type_symbol
_atom_site_fract_x
_atom_site_fract_y
_atom_site_fract_z
_atom_type_partial_charge
Zn0 Zn 0.12557 0.01853 0.02956 0.0
Zn1 Zn 0.07532 0.05134 0.04503 0.0
O2 O 0.08508 0.01694 0.06727 0.0
O3 O 0.12587 0.98942 0.05495 0.0
O4 O 0.04552 0.08247 0.05874 0.0
O5 O 0.17648 0.08233 0.02435 0.0
O6 O 0.13097 0.10648 0.03404 0.0
C7 C 0.10468 0.99362 0.0691 0.0
C8 C 0.03389 0.98175 0.00967 0.0
O9 O 0.02891 0.00619 0.02309 0.0
O10 O 0.07145 0.98252 0.0091 0.0
C11 C 0.07195 0.11634 0.07105 0.0
O12 O 0.11484 0.12743 0.07396 0.0
C13 C 0.16815 0.11455 0.02686 0.0
Zn14 Zn 0.14361 0.12885 0.34317 0.0
Zn15 Zn 0.07383 0.10174 0.3669 0.0
O16 O 0.12923 0.11785 0.38607 0.0
O17 O 0.18745 0.14402 0.36722 0.0
O18 O 0.0232 0.0878 0.3849 0.0
O19 O 0.13199 0.17662 0.3321 0.0
O20 O 0.07519 0.15362 0.35156 0.0
C21 C 0.17178 0.13427 0.38414 0.0
C22 C 0.07066 0.03233 0.33579 0.0
O23 O 0.05191 0.04164 0.34975 0.0
O24 O 0.10902 0.06332 0.33043 0.0
C25 C 0.9997 0.04992 0.39281 0.0
O26 O 0.00833 0.01665 0.38945 0.0
C27 C 0.09907 0.17965 0.33839 0.0
Zn28 Zn 0.08582 0.95451 0.72143 0.0
Zn29 Zn 0.0444 0.99302 0.70233 0.0
O30 O 0.08281 0.98483 0.68128 0.0
O31 O 0.11444 0.95072 0.69659 0.0
O32 O 0.00523 0.01137 0.68683 0.0
O33 O 0.02597 0.89984 0.72785 0.0
O34 O 0.99395 0.93587 0.71472 0.0
C35 C 0.10827 0.96735 0.6812 0.0
C36 C 0.11053 0.04771 0.73741 0.0
O37 O 0.08368 0.04581 0.72325 0.0
O38 O 0.11628 0.01389 0.73961 0.0
C39 C 0.01657 0.0495 0.67957 0.0
O40 O 0.05934 0.08358 0.68195 0.0
C41 C 0.99075 0.90216 0.7237 0.0
H42 H 0.86761 0.68413 0.21511 0.0
N43 N 0.91298 0.64299 0.20487 0.0
H44 H 0.88475 0.73729 0.24406 0.0
H45 H 0.96643 0.65157 0.23855 0.0
H46 H 0.98197 0.70256 0.26791 0.0
H47 H 0.00361 0.7111 0.20885 0.0
H48 H 0.04273 0.77285 0.18686 0.0
H49 H 0.88116 0.65008 0.16954 0.0
H50 H 0.92052 0.71124 0.14704 0.0
H51 H 0.84121 0.55798 0.19963 0.0
H52 H 0.98854 0.63368 0.2072 0.0
H53 H 0.84084 0.48551 0.19655 0.0
H54 H 0.98862 0.56179 0.20523 0.0
H55 H 0.88024 0.26935 0.21627 0.0
H56 H 0.91172 0.25252 0.24551 0.0
H57 H 0.02049 0.39559 0.25333 0.0
H58 H 0.99 0.41134 0.22346 0.0
H59 H 0.00554 0.37838 0.19132 0.0
H60 H 0.03169 0.34437 0.16649 0.0
H61 H 0.8915 0.24958 0.14453 0.0
H62 H 0.86557 0.28473 0.16931 0.0
H63 H 0.85377 0.36317 0.21313 0.0
H64 H 0.85291 0.43492 0.21486 0.0
H65 H 0.97659 0.49987 0.18359 0.0
N66 N 0.91636 0.34788 0.19872 0.0
H67 H 0.97851 0.42921 0.1829 0.0
C68 C 0.91581 0.66406 0.22436 0.0
C69 C 0.89169 0.68708 0.22686 0.0
C70 C 0.90149 0.71741 0.24352 0.0
C71 C 0.93543 0.72497 0.25824 0.0
C72 C 0.95652 0.69856 0.25662 0.0
C73 C 0.94722 0.66878 0.23978 0.0
C74 C 0.93917 0.67596 0.19084 0.0
C75 C 0.98541 0.71036 0.19524 0.0
C76 C 0.00784 0.74573 0.18261 0.0
C77 C 0.98461 0.74736 0.1653 0.0
C78 C 0.93912 0.71158 0.16047 0.0
C79 C 0.91669 0.67635 0.17315 0.0
C80 C 0.91462 0.60118 0.20379 0.0
C81 C 0.87342 0.55885 0.20085 0.0
C82 C 0.87336 0.51749 0.19922 0.0
C83 C 0.91472 0.51757 0.2007 0.0
C84 C 0.95611 0.56023 0.20367 0.0
C85 C 0.95612 0.60158 0.20502 0.0
C86 C 0.93243 0.34139 0.21769 0.0
C87 C 0.91043 0.29714 0.22453 0.0
C88 C 0.92843 0.28774 0.24135 0.0
C89 C 0.96882 0.32269 0.25186 0.0
C90 C 0.98977 0.36765 0.24546 0.0
C91 C 0.97203 0.37686 0.22846 0.0
C92 C 0.93336 0.33409 0.18216 0.0
C93 C 0.98041 0.35106 0.1809 0.0
C94 C 0.99532 0.33123 0.16679 0.0
C95 C 0.96364 0.2938 0.15372 0.0
C96 C 0.91682 0.27853 0.15429 0.0
C97 C 0.90191 0.29852 0.16842 0.0
C98 C 0.91575 0.3902 0.19781 0.0
C99 C 0.8805 0.39289 0.20655 0.0
C100 C 0.87999 0.43395 0.20742 0.0
C101 C 0.91469 0.47343 0.19935 0.0
C102 C 0.9497 0.47051 0.19028 0.0
C103 C 0.95051 0.42957 0.18966 0.0
H104 H 0.75273 0.08736 0.5475 0.0
N105 N 0.68273 0.99973 0.53617 0.0
H106 H 0.80785 0.10976 0.57619 0.0
H107 H 0.67679 0.94891 0.56588 0.0
H108 H 0.73149 0.9709 0.59465 0.0
H109 H 0.69766 0.93585 0.52043 0.0
H110 H 0.74586 0.94308 0.49331 0.0
H111 H 0.72236 0.07224 0.51266 0.0
H112 H 0.76992 0.07961 0.48531 0.0
H113 H 0.67758 0.07806 0.53779 0.0
H114 H 0.59754 0.9297 0.53121 0.0
H115 H 0.60756 0.08138 0.53381 0.0
H116 H 0.52733 0.93229 0.52808 0.0
H117 H 0.39536 0.07349 0.54529 0.0
H118 H 0.34994 0.06965 0.57309 0.0
H119 H 0.29428 0.9228 0.5725 0.0
H120 H 0.33852 0.92648 0.54408 0.0
H121 H 0.31368 0.95942 0.49988 0.0
H122 H 0.28761 0.99658 0.47674 0.0
H123 H 0.41387 0.12595 0.49037 0.0
H124 H 0.43983 0.08875 0.51371 0.0
H125 H 0.46636 0.06359 0.54665 0.0
H126 H 0.53939 0.06594 0.54958 0.0
H127 H 0.48615 0.95104 0.50528 0.0
N128 N 0.38915 0.99952 0.5239 0.0
H129 H 0.41288 0.9478 0.5032 0.0
C130 C 0.71079 0.01624 0.55454 0.0
C131 C 0.74736 0.06202 0.55792 0.0
C132 C 0.77898 0.07473 0.57428 0.0
C133 C 0.77422 0.04204 0.58762 0.0
C134 C 0.73594 0.99705 0.58479 0.0
C135 C 0.70468 0.98435 0.56837 0.0
C136 C 0.70637 0.0033 0.51855 0.0
C137 C 0.71277 0.96696 0.51256 0.0
C138 C 0.74021 0.97116 0.49703 0.0
C139 C 0.76194 0.01204 0.48718 0.0
C140 C 0.75419 0.04792 0.49278 0.0
C141 C 0.72667 0.04363 0.50833 0.0
C142 C 0.64257 0.00346 0.53454 0.0
C143 C 0.64492 0.04621 0.5355 0.0
C144 C 0.60476 0.048 0.5334 0.0
C145 C 0.56166 0.00711 0.53041 0.0
C146 C 0.5598 0.96453 0.52985 0.0
C147 C 0.59981 0.96286 0.5318 0.0
C148 C 0.36969 -6e-05 0.54241 0.0
C149 C 0.37376 0.04051 0.5512 0.0
C150 C 0.34778 0.03834 0.56705 0.0
C151 C 0.3184 0.99588 0.57471 0.0
C152 C 0.31676 0.95592 0.56682 0.0
C153 C 0.34198 0.95796 0.55069 0.0
C154 C 0.37863 0.02111 0.50835 0.0
C155 C 0.3361 0.99553 0.49755 0.0
C156 C 0.32122 0.01672 0.4845 0.0
C157 C 0.34886 0.06388 0.48197 0.0
C158 C 0.39223 0.08943 0.49216 0.0
C159 C 0.40708 0.06819 0.50535 0.0
C160 C 0.43391 0.00482 0.52492 0.0
C161 C 0.47049 0.03894 0.5376 0.0
C162 C 0.51239 0.04045 0.53914 0.0
C163 C 0.51856 0.00821 0.52789 0.0
C164 C 0.48237 0.97561 0.51458 0.0
C165 C 0.44057 0.97389 0.51322 0.0
H166 H 0.71678 0.73412 0.87184 0.0
N167 N 0.69487 0.64433 0.86692 0.0
H168 H 0.76779 0.79086 0.89841 0.0
H169 H 0.72816 0.62806 0.89972 0.0
H170 H 0.77743 0.68393 0.92696 0.0
H171 H 0.77075 0.65195 0.85421 0.0
H172 H 0.80875 0.68666 0.82473 0.0
H173 H 0.66181 0.67619 0.8379 0.0
H174 H 0.6971 0.70708 0.8072 0.0
H175 H 0.63676 0.66348 0.88721 0.0
H176 H 0.64074 0.56371 0.84656 0.0
H177 H 0.55555 0.61179 0.88947 0.0
H178 H 0.55831 0.51344 0.84721 0.0
H179 H 0.29279 0.41526 0.90434 0.0
H180 H 0.27156 0.37652 0.93527 0.0
H181 H 0.39502 0.3703 0.93746 0.0
H182 H 0.41565 0.40782 0.90682 0.0
H183 H 0.35447 0.34431 0.87922 0.0
H184 H 0.30873 0.28247 0.85384 0.0
H185 H 0.26338 0.367 0.82683 0.0
H186 H 0.31033 0.42974 0.8524 0.0
H187 H 0.40218 0.5204 0.88314 0.0
H188 H 0.48117 0.57581 0.87638 0.0
H189 H 0.50602 0.46323 0.86706 0.0
N190 N 0.36191 0.42913 0.8829 0.0
H191 H 0.42702 0.40886 0.87213 0.0
C192 C 0.71955 0.67707 0.88369 0.0
C193 C 0.72975 0.72298 0.88389 0.0
C194 C 0.75859 0.75527 0.89921 0.0
C195 C 0.77731 0.74215 0.91472 0.0
C196 C 0.76458 0.6955 0.91502 0.0
C197 C 0.73617 0.66342 0.8996 0.0
C198 C 0.71341 0.661 0.84818 0.0
C199 C 0.75446 0.66369 0.84388 0.0
C200 C 0.77585 0.68319 0.82681 0.0
C201 C 0.75602 0.69952 0.81321 0.0
C202 C 0.714 0.69567 0.81733 0.0
C203 C 0.69329 0.67734 0.8348 0.0
C204 C 0.6455 0.61717 0.86694 0.0
C205 C 0.62025 0.63079 0.87846 0.0
C206 C 0.57319 0.60116 0.87956 0.0
C207 C 0.54992 0.5578 0.86875 0.0
C208 C 0.57493 0.54569 0.85632 0.0
C209 C 0.62212 0.57467 0.8557 0.0
C210 C 0.35553 0.41447 0.90294 0.0
C211 C 0.31578 0.40654 0.91177 0.0
C212 C 0.30378 0.38452 0.92945 0.0
C213 C 0.33141 0.3699 0.93864 0.0
C214 C 0.37271 0.38055 0.93054 0.0
C215 C 0.38466 0.40246 0.9129 0.0
C216 C 0.33567 0.39189 0.86782 0.0
C217 C 0.33486 0.34986 0.86791 0.0
C218 C 0.30835 0.31424 0.8534 0.0
C219 C 0.28203 0.31963 0.83843 0.0
C220 C 0.28345 0.36188 0.83812 0.0
C221 C 0.31002 0.39761 0.85272 0.0
C222 C 0.40857 0.46057 0.87841 0.0
C223 C 0.42478 0.50794 0.87942 0.0
C224 C 0.47012 0.53953 0.8757 0.0
C225 C 0.50057 0.52435 0.87126 0.0
C226 C 0.48382 0.47661 0.86999 0.0
C227 C 0.43832 0.44514 0.87317 0.0
H228 H 0.98409 0.0996 0.07124 0.0
H229 H 0.12237 0.19402 0.0957 0.0
H230 H 0.95734 0.14305 0.09054 0.0
H231 H 0.09597 0.23776 0.11448 0.0
H232 H 0.02689 0.27014 0.16336 0.0
H233 H 0.05195 0.22778 0.14273 0.0
H234 H 0.96031 0.21704 0.09402 0.0
H235 H 0.93489 0.25955 0.11486 0.0
C236 C 0.00879 0.12975 0.08062 0.0
C237 C 0.05529 0.1431 0.08206 0.0
C238 C 0.99352 0.1548 0.09157 0.0
C239 C 0.02446 0.19371 0.10417 0.0
C240 C 0.07105 0.20747 0.10524 0.0
C241 C 0.08624 0.18245 0.09438 0.0
C242 C 0.01251 0.25937 0.14816 0.0
C243 C 0.97925 0.26871 0.14069 0.0
C244 C 0.02685 0.23498 0.13632 0.0
C245 C 0.00842 0.21928 0.11666 0.0
C246 C 0.97489 0.22829 0.10917 0.0
C247 C 0.96042 0.25272 0.12107 0.0
H248 H 0.94354 0.97425 0.41264 0.0
H249 H 0.97301 0.11165 0.40226 0.0
H250 H 0.88466 0.96517 0.43454 0.0
H251 H 0.91368 0.1022 0.42382 0.0
H252 H 0.84491 0.08865 0.48235 0.0
H253 H 0.90071 0.09731 0.4589 0.0
H254 H 0.80932 0.9575 0.43432 0.0
H255 H 0.75331 0.94883 0.45782 0.0
C256 C 0.93731 0.00241 0.41493 0.0
C257 C 0.96316 0.04374 0.40576 0.0
C258 C 0.90335 0.99709 0.42739 0.0
C259 C 0.8945 0.033 0.43096 0.0
C260 C 0.92004 0.07412 0.42161 0.0
C261 C 0.95394 0.07943 0.40917 0.0
C262 C 0.83633 0.05999 0.47173 0.0
C263 C 0.79458 0.01806 0.47197 0.0
C264 C 0.8684 0.06493 0.4583 0.0
C265 C 0.85955 0.02806 0.44475 0.0
C266 C 0.8175 0.98634 0.44476 0.0
C267 C 0.78539 0.9814 0.45821 0.0
H268 H 0.93519 0.92073 0.74443 0.0
H269 H 0.94942 0.80865 0.72084 0.0
H270 H 0.87184 0.86784 0.76285 0.0
H271 H 0.88275 0.75414 0.7375 0.0
H272 H 0.8131 0.68202 0.79164 0.0
H273 H 0.86343 0.72809 0.7674 0.0
H274 H 0.80065 0.81162 0.76766 0.0
H275 H 0.75487 0.7695 0.7941 0.0
C276 C 0.92343 0.88426 0.74267 0.0
C277 C 0.94716 0.86862 0.73144 0.0
C278 C 0.88671 0.85358 0.75313 0.0
C279 C 0.87191 0.80617 0.75208 0.0
C280 C 0.89382 0.79035 0.73944 0.0
C281 C 0.9317 0.82141 0.72961 0.0
C282 C 0.81046 0.71074 0.78687 0.0
C283 C 0.78065 0.72263 0.79552 0.0
C284 C 0.83883 0.73677 0.77241 0.0
C285 C 0.83716 0.77459 0.76551 0.0
C286 C 0.80448 0.78398 0.77295 0.0
C287 C 0.77721 0.75892 0.78795 0.0
H288 H 0.13171 0.9315 0.07537 0.0
H289 H 0.06003 0.99263 0.10207 0.0
H290 H 0.10688 0.87582 0.10045 0.0
H291 H 0.03628 0.93763 0.12755 0.0
H292 H 0.94614 0.79212 0.14798 0.0
H293 H 0.98136 0.85655 0.12719 0.0
H294 H 0.10956 0.85991 0.13467 0.0
H295 H 0.07353 0.7937 0.15479 0.0
C296 C 0.11158 0.93382 0.08687 0.0
C297 C 0.09731 0.96615 0.08652 0.0
C298 C 0.09746 0.90191 0.10133 0.0
C299 C 0.06895 0.90174 0.11584 0.0
C300 C 0.05733 0.93612 0.1163 0.0
C301 C 0.07127 0.96792 0.10178 0.0
C302 C 0.98171 0.80621 0.14503 0.0
C303 C 0.00683 0.78734 0.15287 0.0
C304 C 1.00218 0.84377 0.13339 0.0
C305 C 0.04842 0.86367 0.12933 0.0
C306 C 0.07379 0.84523 0.13739 0.0
C307 C 0.05323 0.8075 0.14904 0.0
H308 H 0.14698 0.09705 0.41986 0.0
H309 H 0.26509 0.17608 0.38652 0.0
H310 H 0.1949 0.08878 0.44491 0.0
H311 H 0.31341 0.16909 0.41194 0.0
H312 H 0.36285 0.08108 0.44328 0.0
H313 H 0.32373 0.10747 0.42124 0.0
H314 H 0.25476 0.12286 0.47076 0.0
H315 H 0.29305 0.09491 0.49248 0.0
C316 C 0.18339 0.1137 0.41813 0.0
C317 C 0.20208 0.13672 0.40106 0.0
C318 C 0.211 0.10912 0.43256 0.0
C319 C 0.25803 0.1278 0.43035 0.0
C320 C 0.27718 0.1534 0.4139 0.0
C321 C 0.2495 0.15768 0.3994 0.0
C322 C 0.33993 0.09098 0.44939 0.0
C323 C 0.33081 0.08625 0.46943 0.0
C324 C 0.31764 0.10629 0.43686 0.0
C325 C 0.28588 0.11718 0.4442 0.0
C326 C 0.27844 0.11416 0.46454 0.0
C327 C 0.30054 0.09858 0.47701 0.0
H328 H 0.1668 0.06047 0.76988 0.0
H329 H 0.10933 0.12835 0.73724 0.0
H330 H 0.20587 0.12701 0.79376 0.0
H331 H 0.14837 0.19517 0.7615 0.0
H332 H 0.22787 0.22856 0.84458 0.0
H333 H 0.18488 0.16403 0.81984 0.0
H334 H 0.2274 0.25833 0.7734 0.0
H335 H 0.27074 0.32323 0.79826 0.0
C336 C 0.16239 0.08956 0.76779 0.0
C337 C 0.13476 0.08895 0.75165 0.0
C338 C 0.18461 0.12763 0.78158 0.0
C339 C 0.17986 0.16616 0.77962 0.0
C340 C 0.15281 0.16602 0.76335 0.0
C341 C 0.13033 0.12769 0.74952 0.0
C342 C 0.2282 0.23557 0.82909 0.0
C343 C 0.2532 0.28095 0.82335 0.0
C344 C 0.20354 0.1986 0.81492 0.0
C345 C 0.20321 0.20605 0.79465 0.0
C346 C 0.22681 0.25154 0.78892 0.0
C347 C 0.2516 0.28867 0.80315 0.0
H348 H 0.02791 0.12389 0.66006 0.0
H349 H 0.9257 0.98563 0.67278 0.0
H350 H 0.96997 0.12937 0.63987 0.0
H351 H 0.86854 0.99072 0.65242 0.0
H352 H 0.76466 0.01929 0.62621 0.0
H353 H 0.82398 0.02729 0.65029 0.0
H354 H 0.92583 0.09627 0.6082 0.0
H355 H 0.86661 0.08877 0.58429 0.0
C356 C 0.99314 0.09477 0.65863 0.0
C357 C 0.98155 0.05427 0.66798 0.0
C358 C 0.95997 0.09784 0.64699 0.0
C359 C 0.91452 0.06053 0.64454 0.0
C360 C 0.90293 0.02046 0.65423 0.0
C361 C 0.93594 0.01739 0.6658 0.0
C362 C 0.79982 0.03664 0.62222 0.0
C363 C 0.81088 0.05306 0.6033 0.0
C364 C 0.8338 0.04112 0.63597 0.0
C365 C 0.87963 0.06186 0.63109 0.0
C366 C 0.89102 0.08049 0.61255 0.0
C367 C 0.85703 0.07619 0.59882 0.0
H368 H 0.94294 0.95378 0.01098 0.0
H369 H 0.03793 0.93879 0.97549 0.0
H370 H 0.87924 0.89617 0.98846 0.0
H371 H 0.97484 0.88264 0.95281 0.0
H372 H 0.85428 0.74583 0.93032 0.0
H373 H 0.91402 0.80456 0.95341 0.0
H374 H 0.84243 0.87931 0.95506 0.0
H375 H 0.78088 0.81878 0.93265 0.0
C376 C 0.95027 0.93871 -0.00177 0.0
C377 C 0.99543 0.95048 -0.00486 0.0
C378 C 0.9138 0.90579 0.9853 0.0
C379 C 0.92187 0.88426 0.96899 0.0
C380 C 0.96725 0.89759 0.96551 0.0
C381 C 0.00351 0.93008 0.97846 0.0
C382 C 0.85062 0.77421 0.93588 0.0
C383 C 0.81257 0.77739 0.92962 0.0
C384 C 0.88538 0.80839 0.9489 0.0
C385 C 0.88339 0.84704 0.95589 0.0
C386 C 0.84496 0.84992 0.95 0.0
C387 C 0.80991 0.81546 0.937 0.0
H388 H 0.99318 0.95379 0.34547 0.0
H389 H 0.09819 0.00415 0.30365 0.0
H390 H 0.95921 0.8758 0.32944 0.0
H391 H 0.06394 0.92722 0.28754 0.0
H392 H 0.02407 0.78315 0.27268 0.0
H393 H 0.05479 0.85384 0.29371 0.0
H394 H 0.91844 0.83006 0.29837 0.0
H395 H 0.88703 0.75727 0.27819 0.0
C396 C 0.00887 0.94831 0.33283 0.0
C397 C 0.04855 0.98518 0.32591 0.0
C398 C 0.98936 0.90369 0.32364 0.0
C399 C 0.0092 0.89515 0.30738 0.0
C400 C 0.04841 0.93226 0.30034 0.0
C401 C 0.06788 0.97658 0.3095 0.0
C402 C 1.00026 0.79193 0.27865 0.0
C403 C 0.95295 0.76439 0.27355 0.0
C404 C 0.01807 0.83306 0.29048 0.0
C405 C 0.9892 0.84817 0.29735 0.0
C406 C 0.94165 0.81948 0.29328 0.0
C407 C 0.9237 0.77797 0.28153 0.0
H408 H 0.14091 0.03224 0.65399 0.0
H409 H 0.13307 0.90606 0.66929 0.0
H410 H 0.1919 0.0401 0.62815 0.0
H411 H 0.18143 0.91193 0.64275 0.0
H412 H 0.30967 0.9596 0.61054 0.0
H413 H 0.25711 0.95255 0.63546 0.0
H414 H 0.20223 0.01498 0.59738 0.0
H415 H 0.25698 0.02437 0.57314 0.0
C416 C 0.14923 0.00561 0.65146 0.0
C417 C 0.13336 0.96874 0.66369 0.0
C418 C 0.17842 0.00996 0.63661 0.0
C419 C 0.19155 0.97699 0.63343 0.0
C420 C 0.17347 0.93885 0.64509 0.0
C421 C 0.14524 0.93512 0.66018 0.0
C422 C 0.28647 0.972 0.60766 0.0
C423 C 0.28739 0.99269 0.59006 0.0
C424 C 0.25594 0.96758 0.62182 0.0
C425 C 0.22481 0.98276 0.61846 0.0
C426 C 0.22598 0.00353 0.60073 0.0
C427 C 0.25722 0.00879 0.58677 0.0
H428 H 0.25696 0.15011 0.0179 0.0
H429 H 0.14894 0.18133 0.01845 0.0
H430 H 0.30334 0.21883 0.00044 0.0
H431 H 0.19425 0.24876 0.00017 0.0
H432 H 0.29121 0.37834 0.97178 0.0
H433 H 0.25851 0.32343 -0.00269 0.0
H434 H 0.29984 0.23629 0.96741 0.0
H435 H 0.33314 0.2913 0.94249 0.0
C436 C 0.24331 0.17192 0.01446 0.0
C437 C 0.19906 0.15996 0.01931 0.0
C438 C 0.26975 0.21117 0.00432 0.0
C439 C 0.25223 0.23892 -0.00152 0.0
C440 C 0.2091 0.2285 0.00449 0.0
C441 C 0.18294 0.18961 0.01491 0.0
C442 C 0.29365 0.34764 0.97088 0.0
C443 C 0.31491 0.33923 0.9552 0.0
C444 C 0.27486 0.31612 0.98545 0.0
C445 C 0.27654 0.27534 0.9845 0.0
C446 C 0.29878 0.26771 0.969 0.0
C447 C 0.31782 0.29927 0.9546 0.0
H448 H 0.03591 0.20154 0.35011 0.0
H449 H 0.13165 0.22658 0.3054 0.0
H450 H 0.00815 0.24482 0.33244 0.0
H451 H 0.10279 0.26786 0.28738 0.0
H452 H 0.06047 0.35808 0.261 0.0
H453 H 0.09586 0.33299 0.28527 0.0
H454 H 0.96221 0.23321 0.30323 0.0
H455 H 0.92706 0.26085 0.28005 0.0
C456 C 0.05126 0.21656 0.3366 0.0
C457 C 0.08578 0.21033 0.3291 0.0
C458 C 0.03514 0.24112 0.32639 0.0
C459 C 0.05286 0.2596 0.30835 0.0
C460 C 0.08869 0.25486 0.30134 0.0
C461 C 0.10511 0.2308 0.31164 0.0
C462 C 0.03861 0.33179 0.27053 0.0
C463 C 0.99072 0.31118 0.26834 0.0
C464 C 0.05895 0.31685 0.28428 0.0
C465 C 0.03195 0.28045 0.29602 0.0
C466 C 0.98425 0.26148 0.29456 0.0
C467 C 0.96395 0.27686 0.281 0.0
loop_
_geom_bond_atom_site_label_1
_geom_bond_atom_site_label_2
_geom_bond_distance
_geom_bond_site_symmetry_2
_ccdc_geom_bond_type
Zn0 O3 2.034 . S
Zn0 O5 2.042 1_565 S
Zn0 O10 2.063 . S
Zn1 O2 1.962 . S
Zn1 O4 1.986 . S
Zn1 O6 1.996 . S
Zn1 O9 1.943 . S
O2 Zn1 1.962 . S
O2 C7 1.254 1_545 S
O3 Zn0 2.034 . S
O3 C7 1.269 . S
O4 Zn1 1.986 . S
O4 C11 1.262 . S
O5 Zn0 2.042 1_545 S
O5 C13 1.260 . S
O6 Zn1 1.996 . S
O6 C13 1.257 . S
C7 O2 1.254 1_565 S
C7 O3 1.269 . S
C8 O9 1.249 1_665 S
C8 O10 1.270 1_655 S
O9 Zn1 1.943 . S
O9 C8 1.249 1_445 S
O10 Zn0 2.063 . S
O10 C8 1.270 1_455 S
C11 O4 1.262 . S
C11 O12 1.232 . S
O12 C11 1.232 . S
C13 O5 1.260 . S
C13 O6 1.257 . S
Zn14 O17 2.031 . S
Zn14 O19 2.049 . S
Zn14 O24 2.067 . S
Zn15 O16 1.962 . S
Zn15 O18 1.986 1_455 S
Zn15 O20 1.996 . S
Zn15 O23 1.943 1_455 S
O16 Zn15 1.962 . S
O16 C21 1.254 . S
O17 Zn14 2.031 . S
O17 C21 1.269 . S
O18 Zn15 1.986 1_655 S
O18 C25 1.262 . S
O19 Zn14 2.049 . S
O19 C27 1.260 . S
O20 Zn15 1.996 . S
O20 C27 1.257 . S
C21 O16 1.254 . S
C21 O17 1.269 . S
C22 O23 1.249 1_465 S
C22 O24 1.270 1_565 S
O23 Zn15 1.943 1_655 S
O23 C22 1.249 1_645 S
O24 Zn14 2.067 . S
O24 C22 1.270 1_545 S
C25 O18 1.262 . S
C25 O26 1.232 . S
O26 C25 1.232 . S
C27 O19 1.260 . S
C27 O20 1.257 . S
Zn28 O31 2.031 1_565 S
Zn28 O33 2.049 . S
Zn28 O38 2.067 1_565 S
Zn29 O30 1.962 1_545 S
Zn29 O32 1.986 1_445 S
Zn29 O34 1.996 1_445 S
Zn29 O37 1.943 . S
O30 Zn29 1.962 1_565 S
O30 C35 1.254 . S
O31 Zn28 2.031 1_545 S
O31 C35 1.269 1_545 S
O32 Zn29 1.986 1_665 S
O32 C39 1.262 1_565 S
O33 Zn28 2.049 . S
O33 C41 1.260 1_455 S
O34 Zn29 1.996 1_665 S
O34 C41 1.257 . S
C35 O30 1.254 . S
C35 O31 1.269 1_565 S
C36 O37 1.249 . S
C36 O38 1.270 . S
O37 Zn29 1.943 . S
O37 C36 1.249 . S
O38 Zn28 2.067 1_545 S
O38 C36 1.270 . S
C39 O32 1.262 1_545 S
C39 O40 1.232 . S
O40 C39 1.232 . S
C41 O33 1.260 1_655 S
C41 O34 1.257 . S
H42 C69 0.929 . S
N43 C68 1.433 . S
N43 C74 1.435 . S
N43 C80 1.423 . S
H44 C70 0.952 . S
H45 C73 0.931 . S
H46 C72 0.929 . S
H47 C75 0.930 . S
H48 C76 0.932 . S
H49 C79 0.929 . S
H50 C78 0.931 1_655 S
H51 C81 0.929 . S
H52 C85 0.932 . S
H53 C82 0.931 . S
H54 C84 0.929 . S
H55 C87 0.929 . S
H56 C88 0.928 . S
H57 C90 0.929 . S
H58 C91 0.931 . S
H59 C93 0.930 . S
H60 C94 0.932 . S
H61 C96 0.931 1_655 S
H62 C97 0.929 . S
H63 C99 0.929 . S
H64 C100 0.931 . S
H65 C102 0.929 . S
N66 C86 1.433 . S
N66 C92 1.435 . S
N66 C98 1.423 . S
H67 C103 0.932 . S
C68 N43 1.433 . S
C68 C69 1.363 1_455 S
C68 C73 1.370 . S
C69 H42 0.929 . S
C69 C68 1.363 1_655 S
C69 C70 1.381 . S
C70 H44 0.952 . S
C70 C69 1.381 . S
C70 C71 1.340 1_655 S
C71 C70 1.340 1_455 S
C71 C72 1.406 . S
C72 H46 0.929 . S
C72 C71 1.406 . S
C72 C73 1.391 . S
C73 H45 0.931 . S
C73 C68 1.370 . S
C73 C72 1.391 . S
C74 N43 1.435 . S
C74 C75 1.358 . S
C74 C79 1.371 1_455 S
C75 H47 0.930 . S
C75 C74 1.358 . S
C75 C76 1.405 . S
C76 H48 0.932 . S
C76 C75 1.405 . S
C76 C77 1.383 . S
C77 C76 1.383 . S
C77 C78 1.393 . S
C78 H50 0.931 1_455 S
C78 C77 1.393 . S
C78 C79 1.382 1_455 S
C79 H49 0.929 . S
C79 C74 1.371 1_655 S
C79 C78 1.382 1_655 S
C80 N43 1.423 . S
C80 C81 1.362 1_455 S
C80 C85 1.388 . S
C81 H51 0.929 . S
C81 C80 1.362 1_655 S
C81 C82 1.376 . S
C82 H53 0.931 . S
C82 C81 1.376 . S
C82 C83 1.395 . S
C83 C82 1.395 . S
C83 C84 1.348 1_655 S
C83 C101 1.472 . S
C84 H54 0.929 . S
C84 C83 1.348 1_455 S
C84 C85 1.443 . S
C85 H52 0.932 . S
C85 C80 1.388 . S
C85 C84 1.443 . S
C86 N66 1.433 . S
C86 C87 1.363 1_455 S
C86 C91 1.370 . S
C87 H55 0.929 . S
C87 C86 1.363 1_655 S
C87 C88 1.390 . S
C88 H56 0.928 . S
C88 C87 1.390 . S
C88 C89 1.354 1_655 S
C89 C88 1.354 1_455 S
C89 C90 1.406 . S
C90 H57 0.929 . S
C90 C89 1.406 . S
C90 C91 1.391 . S
C91 H58 0.931 . S
C91 C86 1.370 . S
C91 C90 1.391 . S
C92 N66 1.435 . S
C92 C93 1.358 . S
C92 C97 1.371 1_455 S
C93 H59 0.930 . S
C93 C92 1.358 . S
C93 C94 1.405 . S
C94 H60 0.932 . S
C94 C93 1.405 . S
C94 C95 1.383 . S
C95 C94 1.383 . S
C95 C96 1.393 . S
C96 H61 0.931 1_455 S
C96 C95 1.393 . S
C96 C97 1.382 1_455 S
C97 H62 0.929 . S
C97 C92 1.371 1_655 S
C97 C96 1.382 1_655 S
C98 N66 1.423 . S
C98 C99 1.362 1_455 S
C98 C103 1.388 . S
C99 H63 0.929 . S
C99 C98 1.362 1_655 S
C99 C100 1.376 . S
C100 H64 0.931 . S
C100 C99 1.376 . S
C100 C101 1.395 . S
C101 C83 1.472 . S
C101 C100 1.395 . S
C101 C102 1.349 1_655 S
C102 H65 0.929 . S
C102 C101 1.349 1_455 S
C102 C103 1.443 . S
C103 H67 0.932 . S
C103 C98 1.388 . S
C103 C102 1.443 . S
H104 C131 0.929 . S
N105 C130 1.433 . S
N105 C136 1.435 . S
N105 C142 1.423 . S
H106 C132 0.930 . S
H107 C135 0.931 . S
H108 C134 0.929 1_565 S
H109 C137 0.930 1_565 S
H110 C138 0.932 1_565 S
H111 C141 0.929 . S
H112 C140 0.931 . S
H113 C143 0.929 . S
H114 C147 0.932 . S
H115 C144 0.931 . S
H116 C146 0.929 . S
H117 C149 0.929 . S
H118 C150 0.930 . S
H119 C152 0.929 1_565 S
H120 C153 0.931 . S
H121 C155 0.930 1_565 S
H122 C156 0.932 1_565 S
H123 C158 0.931 . S
H124 C159 0.929 . S
H125 C161 0.929 . S
H126 C162 0.931 . S
H127 C164 0.929 . S
N128 C148 1.433 . S
N128 C154 1.435 . S
N128 C160 1.423 . S
H129 C165 0.932 . S
C130 N105 1.433 . S
C130 C131 1.363 . S
C130 C135 1.370 . S
C131 H104 0.929 . S
C131 C130 1.363 . S
C131 C132 1.385 . S
C132 H106 0.930 . S
C132 C131 1.385 . S
C132 C133 1.357 . S
C133 C132 1.357 . S
C133 C134 1.406 . S
C134 H108 0.929 1_545 S
C134 C133 1.406 . S
C134 C135 1.391 . S
C135 H107 0.931 . S
C135 C130 1.370 . S
C135 C134 1.391 . S
C136 N105 1.435 . S
C136 C137 1.358 . S
C136 C141 1.371 . S
C137 H109 0.930 1_545 S
C137 C136 1.358 . S
C137 C138 1.405 . S
C138 H110 0.932 1_545 S
C138 C137 1.405 . S
C138 C139 1.383 . S
C139 C138 1.383 . S
C139 C140 1.393 . S
C140 H112 0.931 . S
C140 C139 1.393 . S
C140 C141 1.382 . S
C141 H111 0.929 . S
C141 C136 1.371 . S
C141 C140 1.382 . S
C142 N105 1.423 . S
C142 C143 1.362 . S
C142 C147 1.388 . S
C143 H113 0.929 . S
C143 C142 1.362 . S
C143 C144 1.376 . S
C144 H115 0.931 . S
C144 C143 1.376 . S
C144 C145 1.396 . S
C145 C144 1.396 . S
C145 C146 1.348 . S
C145 C163 1.472 . S
C146 H116 0.929 . S
C146 C145 1.348 . S
C146 C147 1.443 . S
C147 H114 0.932 . S
C147 C142 1.388 . S
C147 C146 1.443 . S
C148 N128 1.433 . S
C148 C149 1.363 . S
C148 C153 1.370 . S
C149 H117 0.929 . S
C149 C148 1.363 . S
C149 C150 1.385 . S
C150 H118 0.930 . S
C150 C149 1.385 . S
C150 C151 1.357 . S
C151 C150 1.357 . S
C151 C152 1.406 . S
C152 H119 0.929 1_545 S
C152 C151 1.406 . S
C152 C153 1.391 . S
C153 H120 0.931 . S
C153 C148 1.370 . S
C153 C152 1.391 . S
C154 N128 1.435 . S
C154 C155 1.358 . S
C154 C159 1.371 . S
C155 H121 0.930 1_545 S
C155 C154 1.358 . S
C155 C156 1.405 . S
C156 H122 0.932 1_545 S
C156 C155 1.405 . S
C156 C157 1.383 . S
C157 C156 1.383 . S
C157 C158 1.393 . S
C158 H123 0.931 . S
C158 C157 1.393 . S
C158 C159 1.382 . S
C159 H124 0.929 . S
C159 C154 1.371 . S
C159 C158 1.382 . S
C160 N128 1.423 . S
C160 C161 1.362 . S
C160 C165 1.388 . S
C161 H125 0.929 . S
C161 C160 1.362 . S
C161 C162 1.376 . S
C162 H126 0.931 . S
C162 C161 1.376 . S
C162 C163 1.396 . S
C163 C145 1.472 . S
C163 C162 1.396 . S
C163 C164 1.348 . S
C164 H127 0.929 . S
C164 C163 1.348 . S
C164 C165 1.443 . S
C165 H129 0.932 . S
C165 C160 1.388 . S
C165 C164 1.443 . S
H166 C193 0.929 . S
N167 C192 1.433 . S
N167 C198 1.435 . S
N167 C204 1.423 . S
H168 C194 0.930 . S
H169 C197 0.931 . S
H170 C196 0.929 . S
H171 C199 0.930 . S
H172 C200 0.932 . S
H173 C203 0.929 . S
H174 C202 0.931 . S
H175 C205 0.929 . S
H176 C209 0.932 . S
H177 C206 0.931 . S
H178 C208 0.929 . S
H179 C211 0.929 . S
H180 C212 0.930 . S
H181 C214 0.929 . S
H182 C215 0.931 . S
H183 C217 0.930 . S
H184 C218 0.932 . S
H185 C220 0.931 . S
H186 C221 0.929 . S
H187 C223 0.929 . S
H188 C224 0.931 . S
H189 C226 0.929 . S
N190 C210 1.433 . S
N190 C216 1.435 . S
N190 C222 1.423 . S
H191 C227 0.932 . S
C192 N167 1.433 . S
C192 C193 1.363 . S
C192 C197 1.370 . S
C193 H166 0.929 . S
C193 C192 1.363 . S
C193 C194 1.385 . S
C194 H168 0.930 . S
C194 C193 1.385 . S
C194 C195 1.357 . S
C195 C194 1.357 . S
C195 C196 1.406 . S
C196 H170 0.929 . S
C196 C195 1.406 . S
C196 C197 1.391 . S
C197 H169 0.931 . S
C197 C192 1.370 . S
C197 C196 1.391 . S
C198 N167 1.435 . S
C198 C199 1.358 . S
C198 C203 1.371 . S
C199 H171 0.930 . S
C199 C198 1.358 . S
C199 C200 1.405 . S
C200 H172 0.932 . S
C200 C199 1.405 . S
C200 C201 1.383 . S
C201 C200 1.383 . S
C201 C202 1.393 . S
C202 H174 0.931 . S
C202 C201 1.393 . S
C202 C203 1.382 . S
C203 H173 0.929 . S
C203 C198 1.371 . S
C203 C202 1.382 . S
C204 N167 1.423 . S
C204 C205 1.362 . S
C204 C209 1.388 . S
C205 H175 0.929 . S
C205 C204 1.362 . S
C205 C206 1.376 . S
C206 H177 0.931 . S
C206 C205 1.376 . S
C206 C207 1.396 . S
C207 C206 1.396 . S
C207 C208 1.348 . S
C207 C225 1.472 . S
C208 H178 0.929 . S
C208 C207 1.348 . S
C208 C209 1.443 . S
C209 H176 0.932 . S
C209 C204 1.388 . S
C209 C208 1.443 . S
C210 N190 1.433 . S
C210 C211 1.363 . S
C210 C215 1.370 . S
C211 H179 0.929 . S
C211 C210 1.363 . S
C211 C212 1.385 . S
C212 H180 0.930 . S
C212 C211 1.385 . S
C212 C213 1.357 . S
C213 C212 1.357 . S
C213 C214 1.406 . S
C214 H181 0.929 . S
C214 C213 1.406 . S
C214 C215 1.391 . S
C215 H182 0.931 . S
C215 C210 1.370 . S
C215 C214 1.391 . S
C216 N190 1.435 . S
C216 C217 1.358 . S
C216 C221 1.371 . S
C217 H183 0.930 . S
C217 C216 1.358 . S
C217 C218 1.405 . S
C218 H184 0.932 . S
C218 C217 1.405 . S
C218 C219 1.383 . S
C219 C218 1.383 . S
C219 C220 1.393 . S
C220 H185 0.931 . S
C220 C219 1.393 . S
C220 C221 1.382 . S
C221 H186 0.929 . S
C221 C216 1.371 . S
C221 C220 1.382 . S
C222 N190 1.423 . S
C222 C223 1.362 . S
C222 C227 1.388 . S
C223 H187 0.929 . S
C223 C222 1.362 . S
C223 C224 1.376 . S
C224 H188 0.931 . S
C224 C223 1.376 . S
C224 C225 1.396 . S
C225 C207 1.472 . S
C225 C224 1.396 . S
C225 C226 1.348 . S
C226 H189 0.929 . S
C226 C225 1.348 . S
C226 C227 1.443 . S
C227 H191 0.932 . S
C227 C222 1.388 . S
C227 C226 1.443 . S
H228 C236 0.950 1_655 S
H229 C241 0.950 . S
H230 C238 0.950 1_655 S
H231 C240 0.950 . S
H232 C242 0.950 . S
H233 C244 0.950 . S
H234 C246 0.950 1_655 S
H235 C247 0.950 1_655 S
C236 H228 0.950 1_455 S
C236 C237 1.386 . S
C236 C238 1.391 . S
C237 C236 1.386 . S
C237 C241 1.393 . S
C238 H230 0.950 1_455 S
C238 C236 1.391 . S
C238 C239 1.400 . S
C239 C238 1.400 . S
C239 C240 1.398 . S
C239 C245 1.491 . S
C240 H231 0.950 . S
C240 C239 1.398 . S
C240 C241 1.391 . S
C241 H229 0.950 . S
C241 C237 1.393 . S
C241 C240 1.391 . S
C242 H232 0.950 . S
C242 C243 1.386 . S
C242 C244 1.391 . S
C243 C242 1.386 . S
C243 C247 1.393 . S
C244 H233 0.950 . S
C244 C242 1.391 . S
C244 C245 1.400 . S
C245 C239 1.491 . S
C245 C244 1.400 . S
C245 C246 1.398 . S
C246 H234 0.950 1_455 S
C246 C245 1.398 . S
C246 C247 1.391 . S
C247 H235 0.950 1_455 S
C247 C243 1.393 . S
C247 C246 1.391 . S
H248 C256 0.950 . S
H249 C261 0.950 . S
H250 C258 0.950 . S
H251 C260 0.950 . S
H252 C262 0.950 . S
H253 C264 0.950 . S
H254 C266 0.950 . S
H255 C267 0.950 . S
C256 H248 0.950 . S
C256 C257 1.386 1_565 S
C256 C258 1.391 . S
C257 C256 1.386 1_545 S
C257 C261 1.393 . S
C258 H250 0.950 . S
C258 C256 1.391 . S
C258 C259 1.400 1_565 S
C259 C258 1.400 1_545 S
C259 C260 1.398 . S
C259 C265 1.491 . S
C260 H251 0.950 . S
C260 C259 1.398 . S
C260 C261 1.391 . S
C261 H249 0.950 . S
C261 C257 1.393 . S
C261 C260 1.391 . S
C262 H252 0.950 . S
C262 C263 1.386 . S
C262 C264 1.391 . S
C263 C262 1.386 . S
C263 C267 1.393 1_545 S
C264 H253 0.950 . S
C264 C262 1.391 . S
C264 C265 1.400 . S
C265 C259 1.491 . S
C265 C264 1.400 . S
C265 C266 1.398 1_545 S
C266 H254 0.950 . S
C266 C265 1.398 1_565 S
C266 C267 1.391 . S
C267 H255 0.950 . S
C267 C263 1.393 1_565 S
C267 C266 1.391 . S
H268 C276 0.950 . S
H269 C281 0.950 . S
H270 C278 0.950 . S
H271 C280 0.950 . S
H272 C282 0.950 . S
H273 C284 0.950 . S
H274 C286 0.950 . S
H275 C287 0.950 . S
C276 H268 0.950 . S
C276 C277 1.386 . S
C276 C278 1.391 . S
C277 C276 1.386 . S
C277 C281 1.393 . S
C278 H270 0.950 . S
C278 C276 1.391 . S
C278 C279 1.400 . S
C279 C278 1.400 . S
C279 C280 1.398 . S
C279 C285 1.491 . S
C280 H271 0.950 . S
C280 C279 1.398 . S
C280 C281 1.391 . S
C281 H269 0.950 . S
C281 C277 1.393 . S
C281 C280 1.391 . S
C282 H272 0.950 . S
C282 C283 1.386 . S
C282 C284 1.391 . S
C283 C282 1.386 . S
C283 C287 1.393 . S
C284 H273 0.950 . S
C284 C282 1.391 . S
C284 C285 1.400 . S
C285 C279 1.491 . S
C285 C284 1.400 . S
C285 C286 1.398 . S
C286 H274 0.950 . S
C286 C285 1.398 . S
C286 C287 1.391 . S
C287 H275 0.950 . S
C287 C283 1.393 . S
C287 C286 1.391 . S
H288 C296 0.950 . S
H289 C301 0.950 1_545 S
H290 C298 0.950 . S
H291 C300 0.950 . S
H292 C302 0.950 . S
H293 C304 0.950 . S
H294 C306 0.942 1_655 S
H295 C307 0.950 1_655 S
C296 H288 0.950 . S
C296 C297 1.386 . S
C296 C298 1.391 . S
C297 C296 1.386 . S
C297 C301 1.393 . S
C298 H290 0.950 . S
C298 C296 1.391 . S
C298 C299 1.400 . S
C299 C298 1.400 . S
C299 C300 1.398 . S
C299 C305 1.491 . S
C300 H291 0.950 . S
C300 C299 1.398 . S
C300 C301 1.391 . S
C301 H289 0.950 1_565 S
C301 C297 1.393 . S
C301 C300 1.391 . S
C302 H292 0.950 . S
C302 C303 1.386 . S
C302 C304 1.391 . S
C303 C302 1.386 . S
C303 C307 1.393 . S
C304 H293 0.950 . S
C304 C302 1.391 . S
C304 C305 1.400 . S
C305 C299 1.491 . S
C305 C304 1.400 . S
C305 C306 1.398 . S
C306 H294 0.942 1_455 S
C306 C305 1.398 . S
C306 C307 1.391 . S
C307 H295 0.950 1_455 S
C307 C303 1.393 . S
C307 C306 1.391 . S
H308 C316 0.950 . S
H309 C321 0.950 . S
H310 C318 0.950 . S
H311 C320 0.950 . S
H312 C322 0.950 . S
H313 C324 0.950 . S
H314 C326 0.950 . S
H315 C327 0.950 1_565 S
C316 H308 0.950 . S
C316 C317 1.386 . S
C316 C318 1.391 . S
C317 C316 1.386 . S
C317 C321 1.393 . S
C318 H310 0.950 . S
C318 C316 1.391 . S
C318 C319 1.400 . S
C319 C318 1.400 . S
C319 C320 1.398 . S
C319 C325 1.491 . S
C320 H311 0.950 . S
C320 C319 1.398 . S
C320 C321 1.391 . S
C321 H309 0.950 . S
C321 C317 1.393 . S
C321 C320 1.391 . S
C322 H312 0.950 . S
C322 C323 1.386 . S
C322 C324 1.391 . S
C323 C322 1.386 . S
C323 C327 1.393 . S
C324 H313 0.950 . S
C324 C322 1.391 . S
C324 C325 1.400 . S
C325 C319 1.491 . S
C325 C324 1.400 . S
C325 C326 1.398 . S
C326 H314 0.950 . S
C326 C325 1.398 . S
C326 C327 1.391 . S
C327 H315 0.950 1_545 S
C327 C323 1.393 . S
C327 C326 1.391 . S
H328 C336 0.950 . S
H329 C341 0.950 . S
H330 C338 0.950 . S
H331 C340 0.950 . S
H332 C342 0.950 . S
H333 C344 0.950 . S
H334 C346 0.950 . S
H335 C347 0.950 . S
C336 H328 0.950 . S
C336 C337 1.386 . S
C336 C338 1.391 . S
C337 C336 1.386 . S
C337 C341 1.393 . S
C338 H330 0.950 . S
C338 C336 1.391 . S
C338 C339 1.400 . S
C339 C338 1.400 . S
C339 C340 1.398 . S
C339 C345 1.491 . S
C340 H331 0.950 . S
C340 C339 1.398 . S
C340 C341 1.391 . S
C341 H329 0.950 . S
C341 C337 1.393 . S
C341 C340 1.391 . S
C342 H332 0.950 . S
C342 C343 1.386 . S
C342 C344 1.391 . S
C343 C342 1.386 . S
C343 C347 1.393 . S
C344 H333 0.950 . S
C344 C342 1.391 . S
C344 C345 1.400 . S
C345 C339 1.491 . S
C345 C344 1.400 . S
C345 C346 1.398 . S
C346 H334 0.950 . S
C346 C345 1.398 . S
C346 C347 1.391 . S
C347 H335 0.950 . S
C347 C343 1.393 . S
C347 C346 1.391 . S
H348 C356 0.950 . S
H349 C361 0.950 . S
H350 C358 0.950 . S
H351 C360 0.950 . S
H352 C362 0.950 . S
H353 C364 0.950 . S
H354 C366 0.950 . S
H355 C367 0.950 . S
C356 H348 0.950 . S
C356 C357 1.386 . S
C356 C358 1.391 . S
C357 C356 1.386 . S
C357 C361 1.393 . S
C358 H350 0.950 . S
C358 C356 1.391 . S
C358 C359 1.400 . S
C359 C358 1.400 . S
C359 C360 1.398 . S
C359 C365 1.491 . S
C360 H351 0.950 . S
C360 C359 1.398 . S
C360 C361 1.391 . S
C361 H349 0.950 . S
C361 C357 1.393 . S
C361 C360 1.391 . S
C362 H352 0.950 . S
C362 C363 1.386 . S
C362 C364 1.391 . S
C363 C362 1.386 . S
C363 C367 1.393 . S
C364 H353 0.950 . S
C364 C362 1.391 . S
C364 C365 1.400 . S
C365 C359 1.491 . S
C365 C364 1.400 . S
C365 C366 1.398 . S
C366 H354 0.950 . S
C366 C365 1.398 . S
C366 C367 1.391 . S
C367 H355 0.950 . S
C367 C363 1.393 . S
C367 C366 1.391 . S
H368 C376 0.950 . S
H369 C381 0.950 . S
H370 C378 0.950 . S
H371 C380 0.950 . S
H372 C382 0.950 . S
H373 C384 0.950 . S
H374 C386 0.950 . S
H375 C387 0.950 . S
C376 H368 0.950 . S
C376 C377 1.386 . S
C376 C378 1.391 . S
C377 C376 1.386 . S
C377 C381 1.393 1_554 S
C378 H370 0.950 . S
C378 C376 1.391 . S
C378 C379 1.400 1_554 S
C379 C378 1.400 1_556 S
C379 C380 1.398 . S
C379 C385 1.491 . S
C380 H371 0.950 . S
C380 C379 1.398 . S
C380 C381 1.391 . S
C381 H369 0.950 . S
C381 C377 1.393 1_556 S
C381 C380 1.391 . S
C382 H372 0.950 . S
C382 C383 1.386 . S
C382 C384 1.391 . S
C383 C382 1.386 . S
C383 C387 1.393 . S
C384 H373 0.950 . S
C384 C382 1.391 . S
C384 C385 1.400 . S
C385 C379 1.491 . S
C385 C384 1.400 . S
C385 C386 1.398 . S
C386 H374 0.950 . S
C386 C385 1.398 . S
C386 C387 1.391 . S
C387 H375 0.950 . S
C387 C383 1.393 . S
C387 C386 1.391 . S
H388 C396 0.950 . S
H389 C401 0.950 . S
H390 C398 0.950 . S
H391 C400 0.950 . S
H392 C402 0.950 . S
H393 C404 0.950 . S
H394 C406 0.950 1_655 S
H395 C407 0.950 1_655 S
C396 H388 0.950 . S
C396 C397 1.387 1_655 S
C396 C398 1.391 . S
C397 C396 1.387 1_455 S
C397 C401 1.395 . S
C398 H390 0.950 . S
C398 C396 1.391 . S
C398 C399 1.400 1_655 S
C399 C398 1.400 1_455 S
C399 C400 1.398 . S
C399 C405 1.491 . S
C400 H391 0.950 . S
C400 C399 1.398 . S
C400 C401 1.391 . S
C401 H389 0.950 . S
C401 C397 1.395 . S
C401 C400 1.391 . S
C402 H392 0.950 . S
C402 C403 1.386 . S
C402 C404 1.391 . S
C403 C402 1.386 . S
C403 C407 1.393 . S
C404 H393 0.950 . S
C404 C402 1.391 . S
C404 C405 1.400 . S
C405 C399 1.491 . S
C405 C404 1.400 . S
C405 C406 1.398 . S
C406 H394 0.950 1_455 S
C406 C405 1.398 . S
C406 C407 1.391 . S
C407 H395 0.950 1_455 S
C407 C403 1.393 . S
C407 C406 1.391 . S
H408 C416 0.950 . S
H409 C421 0.950 . S
H410 C418 0.950 . S
H411 C420 0.950 . S
H412 C422 0.950 . S
H413 C424 0.950 . S
H414 C426 0.950 . S
H415 C427 0.950 . S
C416 H408 0.950 . S
C416 C417 1.382 1_545 S
C416 C418 1.391 . S
C417 C416 1.382 1_565 S
C417 C421 1.399 . S
C418 H410 0.950 . S
C418 C416 1.391 . S
C418 C419 1.400 . S
C419 C418 1.400 . S
C419 C420 1.398 1_545 S
C419 C425 1.491 . S
C420 H411 0.950 . S
C420 C419 1.398 1_565 S
C420 C421 1.391 . S
C421 H409 0.950 . S
C421 C417 1.399 . S
C421 C420 1.391 . S
C422 H412 0.950 . S
C422 C423 1.386 1_565 S
C422 C424 1.391 . S
C423 C422 1.386 1_545 S
C423 C427 1.393 . S
C424 H413 0.950 . S
C424 C422 1.391 . S
C424 C425 1.400 1_565 S
C425 C419 1.491 . S
C425 C424 1.400 1_545 S
C425 C426 1.398 . S
C426 H414 0.950 . S
C426 C425 1.398 . S
C426 C427 1.391 . S
C427 H415 0.950 . S
C427 C423 1.393 . S
C427 C426 1.391 . S
H428 C436 0.950 . S
H429 C441 0.950 . S
H430 C438 0.950 . S
H431 C440 0.950 . S
H432 C442 0.950 . S
H433 C444 0.950 . S
H434 C446 0.950 . S
H435 C447 0.950 . S
C436 H428 0.950 . S
C436 C437 1.386 . S
C436 C438 1.391 1_554 S
C437 C436 1.386 . S
C437 C441 1.393 1_554 S
C438 H430 0.950 . S
C438 C436 1.391 1_556 S
C438 C439 1.400 . S
C439 C438 1.400 . S
C439 C440 1.398 . S
C439 C445 1.491 . S
C440 H431 0.950 . S
C440 C439 1.398 . S
C440 C441 1.391 . S
C441 H429 0.950 . S
C441 C437 1.393 1_556 S
C441 C440 1.391 . S
C442 H432 0.950 . S
C442 C443 1.386 . S
C442 C444 1.391 . S
C443 C442 1.386 . S
C443 C447 1.393 . S
C444 H433 0.950 . S
C444 C442 1.391 . S
C444 C445 1.400 . S
C445 C439 1.491 . S
C445 C444 1.400 . S
C445 C446 1.398 . S
C446 H434 0.950 . S
C446 C445 1.398 . S
C446 C447 1.391 . S
C447 H435 0.950 . S
C447 C443 1.393 . S
C447 C446 1.391 . S
H448 C456 0.950 . S
H449 C461 0.950 . S
H450 C458 0.950 . S
H451 C460 0.950 . S
H452 C462 0.950 . S
H453 C464 0.950 . S
H454 C466 0.950 . S
H455 C467 0.950 . S
C456 H448 0.950 . S
C456 C457 1.386 1_655 S
C456 C458 1.391 . S
C457 C456 1.386 1_455 S
C457 C461 1.393 . S
C458 H450 0.950 . S
C458 C456 1.391 . S
C458 C459 1.400 1_655 S
C459 C458 1.400 1_455 S
C459 C460 1.398 . S
C459 C465 1.491 . S
C460 H451 0.950 . S
C460 C459 1.398 . S
C460 C461 1.391 . S
C461 H449 0.950 . S
C461 C457 1.393 . S
C461 C460 1.391 . S
C462 H452 0.950 . S
C462 C463 1.386 . S
C462 C464 1.391 . S
C463 C462 1.386 . S
C463 C467 1.393 1_455 S
C464 H453 0.950 . S
C464 C462 1.391 . S
C464 C465 1.400 . S
C465 C459 1.491 . S
C465 C464 1.400 . S
C465 C466 1.398 1_455 S
C466 H454 0.950 . S
C466 C465 1.398 1_655 S
C466 C467 1.391 . S
C467 H455 0.950 . S
C467 C463 1.393 1_655 S
C467 C466 1.391 . S
C243 C95 1.214 . S
C237 C11 1.196 . S
C257 C25 1.253 . S
C263 C139 1.274 . S
C277 C41 1.289 . S
C283 C201 1.330 . S
C297 C7 1.227 . S
C303 C77 1.217 . S
C323 C157 1.271 . S
C317 C21 1.284 . S
C337 C36 1.309 . S
C343 C219 1.348 . S
C363 C133 1.495 . S
C357 C39 1.602 . S
C377 C8 1.625 . S
C383 C195 1.563 . S
C403 C71 1.616 . S
C397 C22 1.666 . S
C423 C151 1.510 . S
C417 C35 1.599 . S
C443 C213 1.566 . S
C437 C13 1.594 . S
C457 C27 1.663 . S
C463 C89 1.583 . S
