# Generated by pormake.
# Topology zzz, (3,6)-cn, num edge types: 1
# Building blocks:
#     Node 0, Type 0, BuildingBlock: BETDAH_clean_linker_0, # of connection points: 3
#     Node 1, Type 0, BuildingBlock: BETDAH_clean_linker_0, # of connection points: 3
#     Node 2, Type 0, BuildingBlock: BETDAH_clean_linker_0, # of connection points: 3
#     Node 3, Type 0, BuildingBlock: BETDAH_clean_linker_0, # of connection points: 3
#     Node 4, Type 0, BuildingBlock: BETDAH_clean_linker_0, # of connection points: 3
#     Node 5, Type 0, BuildingBlock: BETDAH_clean_linker_0, # of connection points: 3
#     Node 6, Type 0, BuildingBlock: BETDAH_clean_linker_0, # of connection points: 3
#     Node 7, Type 0, BuildingBlock: BETDAH_clean_linker_0, # of connection points: 3
#     Node 8, Type 1, BuildingBlock: BETDIP_clean_sbu_0, # of connection points: 6
#     Node 9, Type 1, BuildingBlock: BETDIP_clean_sbu_0, # of connection points: 6
#     Node 10, Type 1, BuildingBlock: BETDIP_clean_sbu_0, # of connection points: 6
#     Node 11, Type 1, BuildingBlock: BETDIP_clean_sbu_0, # of connection points: 6
#     Edge 12, Type (0, 1), BuildingBlock: MIFKUJ_clean_linker_0, # of connection points: 2
#     Edge 13, Type (0, 1), BuildingBlock: MIFKUJ_clean_linker_0, # of connection points: 2
#     Edge 14, Type (0, 1), BuildingBlock: MIFKUJ_clean_linker_0, # of connection points: 2
#     Edge 15, Type (0, 1), BuildingBlock: MIFKUJ_clean_linker_0, # of connection points: 2
#     Edge 16, Type (0, 1), BuildingBlock: MIFKUJ_clean_linker_0, # of connection points: 2
#     Edge 17, Type (0, 1), BuildingBlock: MIFKUJ_clean_linker_0, # of connection points: 2
#     Edge 18, Type (0, 1), BuildingBlock: MIFKUJ_clean_linker_0, # of connection points: 2
#     Edge 19, Type (0, 1), BuildingBlock: MIFKUJ_clean_linker_0, # of connection points: 2
#     Edge 20, Type (0, 1), BuildingBlock: MIFKUJ_clean_linker_0, # of connection points: 2
#     Edge 21, Type (0, 1), BuildingBlock: MIFKUJ_clean_linker_0, # of connection points: 2
#     Edge 22, Type (0, 1), BuildingBlock: MIFKUJ_clean_linker_0, # of connection points: 2
#     Edge 23, Type (0, 1), BuildingBlock: MIFKUJ_clean_linker_0, # of connection points: 2
#     Edge 24, Type (0, 1), BuildingBlock: MIFKUJ_clean_linker_0, # of connection points: 2
#     Edge 25, Type (0, 1), BuildingBlock: MIFKUJ_clean_linker_0, # of connection points: 2
#     Edge 26, Type (0, 1), BuildingBlock: MIFKUJ_clean_linker_0, # of connection points: 2
#     Edge 27, Type (0, 1), BuildingBlock: MIFKUJ_clean_linker_0, # of connection points: 2
#     Edge 28, Type (0, 1), BuildingBlock: MIFKUJ_clean_linker_0, # of connection points: 2
#     Edge 29, Type (0, 1), BuildingBlock: MIFKUJ_clean_linker_0, # of connection points: 2
#     Edge 30, Type (0, 1), BuildingBlock: MIFKUJ_clean_linker_0, # of connection points: 2
#     Edge 31, Type (0, 1), BuildingBlock: MIFKUJ_clean_linker_0, # of connection points: 2
#     Edge 32, Type (0, 1), BuildingBlock: MIFKUJ_clean_linker_0, # of connection points: 2
#     Edge 33, Type (0, 1), BuildingBlock: MIFKUJ_clean_linker_0, # of connection points: 2
#     Edge 34, Type (0, 1), BuildingBlock: MIFKUJ_clean_linker_0, # of connection points: 2
#     Edge 35, Type (0, 1), BuildingBlock: MIFKUJ_clean_linker_0, # of connection points: 2
# Relax obj value: 0.221
# Max RMSD: 0.153
# Mean RMSD: 0.146
data_MOF--net-zzz--node1-BETDIP_clean_sbu_0--node2-BETDAH_clean_linker_0--edge1-MIFKUJ_clean_linker_0
_symmetry_space_group_name_H-M    P1
_symmetry_Int_Tables_number       1
_symmetry_cell_setting            triclinic
loop_
_symmetry_equiv_pos_as_xyz
'x, y, z'
_cell_length_a     67.799232
_cell_length_b     67.768599
_cell_length_c     17.701697
_cell_angle_alpha  89.709115
_cell_angle_beta   89.892246
_cell_angle_gamma 90.146679
loop_
_atom_site_label
_atom_site_type_symbol
_atom_site_fract_x
_atom_site_fract_y
_atom_site_fract_z
_atom_type_partial_charge
H0 H 0.80084 0.52381 0.28084 0.0
H1 H 0.73924 0.52406 0.22609 0.0
H2 H 0.7581 0.51187 0.45477 0.0
C3 C 0.78556 0.52246 0.29862 0.0
C4 C 0.7814 0.51769 0.3739 0.0
C5 C 0.77045 0.52492 0.24549 0.0
C6 C 0.75078 0.52239 0.26783 0.0
C7 C 0.7461 0.51779 0.34349 0.0
C8 C 0.76154 0.51562 0.39665 0.0
N9 N 0.72612 0.51501 0.3669 0.0
C10 C 0.71003 0.51553 0.31757 0.0
H11 H 0.9898 0.79424 0.24336 0.0
H12 H 0.99703 0.73297 0.19443 0.0
H13 H 0.015 0.75565 0.41111 0.0
C14 C 0.9942 0.77963 0.2618 0.0
C15 C 1.00282 0.77724 0.33338 0.0
C16 C 0.9924 0.76386 0.21129 0.0
C17 C 0.99822 0.74498 0.23416 0.0
C18 C 1.00599 0.74174 0.3068 0.0
C19 C 1.0083 0.75797 0.35629 0.0
N20 N 0.01227 0.72253 0.32984 0.0
C21 C 1.01177 0.7059 0.28313 0.0
H22 H 0.7358 0.01818 0.28636 0.0
H23 H 0.79531 1.01007 0.21228 0.0
H24 H 0.77959 0.99861 0.44556 0.0
C25 C 0.7509 0.0142 0.29962 0.0
C26 C 0.75584 1.00873 0.37355 0.0
C27 C 0.76503 0.01462 0.24209 0.0
C28 C 0.78456 1.00953 0.25757 0.0
C29 C 0.79001 1.00357 0.33098 0.0
C30 C 0.77549 1.00305 0.38886 0.0
N31 N 0.80987 0.99818 0.34786 0.0
C32 C 0.82535 0.99861 0.29533 0.0
H33 H 0.49004 0.73045 0.33593 0.0
H34 H 0.50257 0.78831 0.24788 0.0
H35 H 0.53051 0.76822 0.45318 0.0
C36 C 0.49709 0.74475 0.34185 0.0
C37 C 0.51005 0.74768 0.40226 0.0
C38 C 0.49461 0.75917 0.28535 0.0
C39 C 0.5045 0.77727 0.29168 0.0
C40 C 0.51727 0.78085 0.35269 0.0
C41 C 0.52024 0.76582 0.4073 0.0
N42 N 0.52768 0.79912 0.35899 0.0
C43 C 0.52635 0.81467 0.30683 0.0
H44 H 0.23435 0.52861 0.1757 0.0
H45 H 0.2948 0.51999 0.23764 0.0
H46 H 0.27117 0.49101 0.04078 0.0
C47 C 0.2486 0.52208 0.16399 0.0
C48 C 0.25056 0.50932 0.10223 0.0
C49 C 0.26439 0.52593 0.21294 0.0
C50 C 0.28273 0.51716 0.19918 0.0
C51 C 0.2854 0.50471 0.13653 0.0
C52 C 0.26926 0.50094 0.08796 0.0
N53 N 0.30392 0.49545 0.12233 0.0
C54 C 0.32036 0.49694 0.16971 0.0
H55 H 0.98964 0.23245 0.1129 0.0
H56 H 1.00292 0.29069 0.19099 0.0
H57 H 0.03163 0.26813 0.9913 0.0
C58 C 0.99705 0.24649 0.10422 0.0
C59 C 1.01035 0.24849 0.04395 0.0
C60 C 0.99432 0.26157 0.15713 0.0
C61 C 1.00491 0.27922 0.1493 0.0
C62 C 0.01832 0.28183 0.08921 0.0
C63 C 0.02111 0.26631 0.03696 0.0
N64 N 0.02943 0.29965 0.0813 0.0
C65 C 0.02835 0.3155 0.13159 0.0
H66 H 0.29538 0.99422 0.12545 0.0
H67 H 0.23597 1.008 0.18725 0.0
H68 H 0.25713 0.02154 0.96236 0.0
C69 C 0.28094 0.99964 0.10955 0.0
C70 C 0.27824 1.00751 0.03694 0.0
C71 C 0.26589 1.0001 0.16394 0.0
C72 C 0.24743 1.00766 0.14458 0.0
C73 C 0.24391 0.0151 0.0715 0.0
C74 C 0.25956 0.01538 0.01814 0.0
N75 N 0.22496 0.02263 0.05147 0.0
C76 C 0.20876 0.02263 0.10076 0.0
H77 H 0.48837 0.28625 0.09713 0.0
H78 H 0.5017 0.22864 0.18268 0.0
H79 H 0.51922 0.24512 0.95593 0.0
C80 C 0.49405 0.27151 0.08739 0.0
C81 C 0.50341 0.26741 0.01886 0.0
C82 C 0.49354 0.25765 0.14626 0.0
C83 C 0.5018 0.23899 0.13595 0.0
C84 C 0.51062 0.23403 0.06653 0.0
C85 C 0.51181 0.24853 0.00851 0.0
N86 N 0.5188 0.21488 0.05469 0.0
C87 C 0.51791 0.19941 0.10744 0.0
Tb88 Tb 0.0285 1.00538 0.76728 0.0
Tb89 Tb 1.00631 0.01709 0.63412 0.0
C90 C 0.03818 0.98591 0.88136 0.0
C91 C 0.03199 0.96551 0.89891 0.0
C92 C 1.01193 0.96019 0.89507 0.0
C93 C 1.00636 0.94038 0.89368 0.0
C94 C 0.02068 0.92547 0.89585 0.0
C95 C 0.04063 0.93079 0.90423 0.0
C96 C 0.04623 0.95065 0.9057 0.0
C97 C 0.05102 0.01681 0.65285 0.0
C98 C 0.01435 0.97289 0.64896 0.0
C99 C 0.99401 0.03466 0.51839 0.0
C100 C 0.98512 0.05422 0.50967 0.0
C101 C 0.98515 0.06363 0.43911 0.0
C102 C 0.97887 0.0832 0.43277 0.0
C103 C 0.97275 0.09361 0.49719 0.0
C104 C 0.97212 0.0839 0.56733 0.0
C105 C 0.97814 0.0643 0.57342 0.0
C106 C 0.98382 1.00563 0.749 0.0
C107 C 0.02041 0.05013 0.75508 0.0
O108 O 0.02424 0.99925 0.88241 0.0
O109 O 0.04954 0.98769 0.82188 0.0
O110 O 0.03558 1.00641 0.6489 0.0
O111 O 0.05477 0.02039 0.72333 0.0
O112 O 0.01702 0.97732 0.72097 0.0
O113 O 0.01285 0.98716 0.59843 0.0
O114 O 0.01249 0.03483 0.53959 0.0
O115 O 0.98351 0.02179 0.55638 0.0
O116 O 0.99922 0.01604 0.7522 0.0
O117 O 0.98001 1.00215 0.67872 0.0
O118 O 0.01284 0.04587 0.6879 0.0
O119 O 0.02688 0.03608 0.80053 0.0
H120 H 1.00056 0.97126 0.88852 0.0
H121 H 0.99092 0.9368 0.88605 0.0
H122 H 0.05197 0.91959 0.90777 0.0
H123 H 0.06177 0.95438 0.90821 0.0
H124 H 0.9906 0.05607 0.38952 0.0
H125 H 0.97968 0.09047 0.3782 0.0
H126 H 0.96739 0.09162 0.61765 0.0
H127 H 0.97795 0.0572 0.62839 0.0
Tb128 Tb 0.52297 0.01966 0.77861 0.0
Tb129 Tb 0.51356 0.99652 0.64626 0.0
C130 C 0.54041 0.03269 0.89224 0.0
C131 C 0.56116 0.03929 0.89816 0.0
C132 C 0.57498 0.02704 0.93395 0.0
C133 C 0.59508 0.03124 0.92894 0.0
C134 C 0.60178 0.0479 0.8888 0.0
C135 C 0.58799 0.06069 0.85593 0.0
C136 C 0.56784 0.05639 0.86021 0.0
C137 C 0.51334 0.04129 0.65939 0.0
C138 C 0.55801 1.00485 0.66794 0.0
C139 C 0.49765 0.98563 0.52594 0.0
C140 C 0.4775 0.98966 0.50071 0.0
C141 C 0.46815 1.00701 0.52427 0.0
C142 C 0.44793 1.00923 0.51575 0.0
C143 C 0.43662 0.99438 0.48132 0.0
C144 C 0.44634 0.97763 0.45252 0.0
C145 C 0.46661 0.97518 0.46313 0.0
C146 C 0.52356 0.97481 0.76456 0.0
C147 C 0.47885 1.01104 0.75789 0.0
O148 O 0.53798 0.01381 0.87969 0.0
O149 O 0.52878 0.04353 0.85031 0.0
O150 O 0.52389 0.02598 0.6598 0.0
O151 O 0.50844 0.04534 0.72829 0.0
O152 O 0.55262 0.01266 0.73333 0.0
O153 O 0.54472 0.99834 0.61983 0.0
O154 O 0.50917 1.00109 0.53043 0.0
O155 O 0.49881 0.97437 0.58597 0.0
O156 O 0.51284 0.99004 0.76519 0.0
O157 O 0.52835 0.97089 0.69525 0.0
O158 O 0.48424 1.00625 0.68824 0.0
O159 O 0.49235 0.01459 0.80973 0.0
H160 H 0.57028 0.0138 0.96355 0.0
H161 H 0.60544 0.02136 0.95617 0.0
H162 H 0.59284 0.07367 0.82499 0.0
H163 H 0.55761 0.06612 0.83165 0.0
H164 H 0.47629 0.0185 0.55311 0.0
H165 H 0.44116 0.02219 0.53989 0.0
H166 H 0.43829 0.96616 0.42338 0.0
H167 H 0.47363 0.9617 0.44448 0.0
Tb168 Tb 0.50726 0.51403 0.80701 0.0
Tb169 Tb 0.52954 0.50334 0.65109 0.0
C170 C 0.50073 0.52847 0.93392 0.0
C171 C 0.49692 0.54931 0.95141 0.0
C172 C 0.50816 0.56423 0.91638 0.0
C173 C 0.50252 0.58391 0.92191 0.0
C174 C 0.4856 0.5891 0.96291 0.0
C175 C 0.4747 0.57425 6e-05 0.0
C176 C 0.48029 0.55447 0.99403 0.0
C177 C 0.48222 0.50624 0.6943 0.0
C178 C 0.51936 0.54821 0.68654 0.0
C179 C 0.535 0.49125 0.51981 0.0
C180 C 0.52654 0.474 0.48243 0.0
C181 C 0.50847 0.46624 0.50778 0.0
C182 C 0.50224 0.44767 0.48413 0.0
C183 C 0.51417 0.43646 0.4359 0.0
C184 C 0.53188 0.44457 0.40817 0.0
C185 C 0.538 0.46328 0.43122 0.0
C186 C 0.55456 0.51041 0.7642 0.0
C187 C 0.51601 0.4695 0.76987 0.0
O188 O 0.51849 0.52428 0.90969 0.0
O189 O 0.48699 0.51997 0.8936 0.0
O190 O 0.50078 0.50669 0.6941 0.0
O191 O 0.47698 0.51007 0.76317 0.0
O192 O 0.51134 0.54309 0.75268 0.0
O193 O 0.52715 0.53534 0.63839 0.0
O194 O 0.52274 0.50559 0.53596 0.0
O195 O 0.54661 0.48677 0.57642 0.0
O196 O 0.53604 0.51124 0.7629 0.0
O197 O 0.55988 0.50572 0.69622 0.0
O198 O 0.52007 0.47462 0.69856 0.0
O199 O 0.51266 0.48264 0.82396 0.0
H200 H 0.52104 0.56071 0.8828 0.0
H201 H 0.51144 0.59507 0.89407 0.0
H202 H 0.46159 0.57788 0.0321 0.0
H203 H 0.47126 0.54317 0.02052 0.0
H204 H 0.4997 0.47402 0.54915 0.0
H205 H 0.48867 0.44161 0.50702 0.0
H206 H 0.54125 0.43618 0.37057 0.0
H207 H 0.55214 0.46893 0.41221 0.0
Tb208 Tb 0.01219 0.49788 0.78225 0.0
Tb209 Tb 0.02439 0.51992 0.64899 0.0
C210 C 0.99281 0.48796 0.8965 0.0
C211 C 0.97201 0.49269 0.91254 0.0
C212 C 0.96555 0.51241 0.91131 0.0
C213 C 0.94547 0.51675 0.91079 0.0
C214 C 0.93142 0.50149 0.91116 0.0
C215 C 0.93786 0.48182 0.91592 0.0
C216 C 0.95799 0.47746 0.91674 0.0
C217 C 0.02327 0.47509 0.6693 0.0
C218 C 0.97985 0.51277 0.66301 0.0
C219 C 0.04324 0.53255 0.53682 0.0
C220 C 0.0644 0.53772 0.531 0.0
C221 C 0.0789 0.52301 0.53686 0.0
C222 C 0.09872 0.52811 0.54418 0.0
C223 C 0.10454 0.54801 0.54556 0.0
C224 C 0.09021 0.56273 0.53579 0.0
C225 C 0.0703 0.55762 0.52866 0.0
C226 C 0.01327 0.54235 0.7635 0.0
C227 C 0.05704 0.50448 0.76869 0.0
O228 O 1.00513 0.50288 0.89588 0.0
O229 O 0.99555 0.47624 0.83899 0.0
O230 O 0.01323 0.49073 0.66401 0.0
O231 O 0.02664 0.4714 0.7401 0.0
O232 O 0.98418 0.50901 0.73457 0.0
O233 O 0.99411 0.51514 0.61286 0.0
O234 O 0.03903 0.51386 0.54729 0.0
O235 O 0.03281 0.54393 0.58079 0.0
O236 O 0.02361 0.52694 0.76697 0.0
O237 O 1.00931 0.54599 0.69332 0.0
O238 O 0.05297 0.51118 0.69988 0.0
O239 O 0.04281 0.49962 0.81621 0.0
H240 H 0.97593 0.52454 0.90693 0.0
H241 H 0.94099 0.53204 0.90648 0.0
H242 H 0.92734 0.46977 0.91776 0.0
H243 H 0.96261 0.46217 0.91722 0.0
H244 H 0.07495 0.50752 0.53848 0.0
H245 H 0.10951 0.51642 0.54948 0.0
H246 H 0.09433 0.57819 0.53602 0.0
H247 H 0.05943 0.56926 0.5241 0.0
H248 H 0.17591 0.99982 0.0952 0.0
H249 H 0.14844 0.99913 0.18596 0.0
H250 H 0.17712 0.04449 0.31647 0.0
H251 H 0.20471 0.04485 0.22623 0.0
H252 H 0.1632 0.01674 0.40784 0.0
H253 H 0.13611 0.05378 0.19929 0.0
H254 H 0.12677 0.05952 0.0664 0.0
H255 H 0.089 1.00858 0.0729 0.0
H256 H 0.09832 1.00238 0.20558 0.0
H257 H 0.08405 0.03987 0.6515 0.0
H258 H 0.10985 0.04164 0.5549 0.0
H259 H 0.07815 0.99923 0.42026 0.0
H260 H 0.05187 0.99812 0.51561 0.0
H261 H 0.09347 0.0249 0.32971 0.0
H262 H 0.12014 0.98716 0.53463 0.0
H263 H 0.12939 0.98019 0.66677 0.0
H264 H 0.16799 0.03053 0.66617 0.0
H265 H 0.15878 0.03794 0.53428 0.0
C266 C 0.17624 1.00967 0.14318 0.0
C267 C 0.19229 0.02248 0.15369 0.0
C268 C 0.1605 1.00936 0.19492 0.0
C269 C 0.16044 0.02196 0.25797 0.0
C270 C 0.17668 0.03465 0.26846 0.0
C271 C 0.19242 0.03492 0.21678 0.0
C272 C 0.14373 0.0217 0.31378 0.0
C273 C 0.14799 0.01881 0.39072 0.0
C274 C 0.12372 0.02375 0.29181 0.0
C275 C 0.11806 0.02752 0.21215 0.0
C276 C 0.12592 0.04372 0.17221 0.0
C277 C 0.12061 0.04707 0.09696 0.0
C278 C 0.10734 0.0344 0.06117 0.0
C279 C 0.0993 0.01837 0.10065 0.0
C280 C 0.10458 0.01495 0.1759 0.0
C281 C 0.08252 0.03102 0.60104 0.0
C282 C 0.06598 0.01875 0.59154 0.0
C283 C 0.09739 0.03191 0.54591 0.0
C284 C 0.09637 0.02018 0.48058 0.0
C285 C 0.07949 1.00836 0.47003 0.0
C286 C 0.06444 1.00771 0.52471 0.0
C287 C 0.11294 0.02008 0.424 0.0
C288 C 0.10868 0.02285 0.34692 0.0
C289 C 0.13295 0.01771 0.4457 0.0
C290 C 0.13863 0.0132 0.52482 0.0
C291 C 0.13051 0.99681 0.56284 0.0
C292 C 0.13576 0.99277 0.63767 0.0
C293 C 0.14923 1.00494 0.6749 0.0
C294 C 0.15754 0.02113 0.63729 0.0
C295 C 0.15232 0.02525 0.56248 0.0
H296 H 0.15327 1.00179 0.73284 0.0
H297 H 0.10325 0.03701 0.00291 0.0
H298 H 0.53965 0.166 0.10311 0.0
H299 H 0.53878 0.13825 0.19303 0.0
H300 H 0.49377 0.16798 0.32173 0.0
H301 H 0.49474 0.19571 0.23197 0.0
H302 H 0.52146 0.15287 0.41386 0.0
H303 H 0.48306 0.12838 0.20506 0.0
H304 H 0.47692 0.11978 0.07194 0.0
H305 H 0.52562 0.0794 0.07633 0.0
H306 H 0.53221 0.08795 0.20927 0.0
H307 H 0.49169 0.07504 0.65347 0.0
H308 H 0.49216 0.10078 0.55622 0.0
H309 H 0.53424 0.06711 0.42739 0.0
H310 H 0.53333 0.04097 0.52402 0.0
H311 H 0.50925 0.08388 0.33377 0.0
H312 H 0.54817 0.10746 0.53862 0.0
H313 H 0.55575 0.11577 0.6709 0.0
H314 H 0.50842 0.15775 0.6728 0.0
H315 H 0.50037 0.14948 0.54079 0.0
C316 C 0.52956 0.16654 0.15061 0.0
C317 C 0.51728 0.18296 0.16077 0.0
C318 C 0.529 0.15064 0.20183 0.0
C319 C 0.51606 0.15083 0.26415 0.0
C320 C 0.50388 0.1674 0.27433 0.0
C321 C 0.50442 0.18326 0.22298 0.0
C322 C 0.51539 0.13397 0.31935 0.0
C323 C 0.51851 0.13784 0.39633 0.0
C324 C 0.51223 0.11415 0.29672 0.0
C325 C 0.50825 0.10896 0.21689 0.0
C326 C 0.49255 0.11778 0.17747 0.0
C327 C 0.48898 0.11289 0.10208 0.0
C328 C 0.5009 0.09909 0.06564 0.0
C329 C 0.51641 0.09011 0.1046 0.0
C330 C 0.52006 0.09496 0.17998 0.0
C331 C 0.50094 0.07304 0.60415 0.0
C332 C 0.51259 0.05603 0.59682 0.0
C333 C 0.5013 0.08786 0.54864 0.0
C334 C 0.5136 0.08625 0.48483 0.0
C335 C 0.52471 0.06887 0.47606 0.0
C336 C 0.5242 0.05392 0.53141 0.0
C337 C 0.51508 0.10283 0.42848 0.0
C338 C 0.51219 0.09891 0.35134 0.0
C339 C 0.51869 0.1226 0.45078 0.0
C340 C 0.52356 0.12771 0.53002 0.0
C341 C 0.53929 0.11836 0.56741 0.0
C342 C 0.54368 0.12308 0.64232 0.0
C343 C 0.53254 0.13725 0.68028 0.0
C344 C 0.51702 0.14676 0.64334 0.0
C345 C 0.51255 0.14208 0.56845 0.0
H346 H 0.53596 0.14088 0.73828 0.0
H347 H 0.49811 0.09533 0.00728 0.0
H348 H 0.35851 0.50036 0.12617 0.0
H349 H 0.38772 0.50163 0.208 0.0
H350 H 0.35021 0.49665 0.40448 0.0
H351 H 0.32104 0.49575 0.3224 0.0
H352 H 0.3774 0.5235 0.42887 0.0
H353 H 0.37828 0.4572 0.33436 0.0
H354 H 0.37864 0.43118 0.2375 0.0
H355 H 0.43313 0.45404 0.14878 0.0
H356 H 0.43295 0.48038 0.24451 0.0
H357 H 0.44451 0.49427 0.70857 0.0
H358 H 0.41898 0.49255 0.61182 0.0
H359 H 0.46152 0.50929 0.44185 0.0
H360 H 0.48709 0.51171 0.5398 0.0
H361 H 0.43388 0.47783 0.39716 0.0
H362 H 0.43342 0.54331 0.49686 0.0
H363 H 0.43324 0.56833 0.59745 0.0
H364 H 0.37771 0.54609 0.67868 0.0
H365 H 0.37772 0.52071 0.57925 0.0
C366 C 0.35659 0.49956 0.18688 0.0
C367 C 0.33762 0.49793 0.21823 0.0
C368 C 0.37328 0.50016 0.23367 0.0
C369 C 0.37133 0.49897 0.31278 0.0
C370 C 0.35223 0.49756 0.34384 0.0
C371 C 0.33555 0.497 0.29701 0.0
C372 C 0.38905 0.49948 0.36336 0.0
C373 C 0.38961 0.51334 0.42214 0.0
C374 C 0.4054 0.48665 0.35391 0.0
C375 C 0.40547 0.4709 0.29603 0.0
C376 C 0.39024 0.45679 0.29375 0.0
C377 C 0.39043 0.44196 0.23914 0.0
C378 C 0.40586 0.44099 0.18687 0.0
C379 C 0.42116 0.45483 0.1892 0.0
C380 C 0.42102 0.46971 0.24364 0.0
C381 C 0.44857 0.49733 0.65043 0.0
C382 C 0.46802 0.50277 0.63176 0.0
C383 C 0.4339 0.49636 0.59514 0.0
C384 C 0.43825 0.50086 0.51946 0.0
C385 C 0.45782 0.50561 0.49979 0.0
C386 C 0.47254 0.50677 0.55567 0.0
C387 C 0.42196 0.50162 0.46276 0.0
C388 C 0.42169 0.48804 0.40315 0.0
C389 C 0.40581 0.51465 0.47145 0.0
C390 C 0.40566 0.52999 0.53099 0.0
C391 C 0.42125 0.54365 0.53655 0.0
C392 C 0.42116 0.55791 0.5933 0.0
C393 C 0.40549 0.55878 0.64453 0.0
C394 C 0.38985 0.5454 0.639 0.0
C395 C 0.38988 0.53107 0.58241 0.0
H396 H 0.40545 0.56984 0.68843 0.0
H397 H 0.40599 0.42949 0.14467 0.0
H398 H 0.02397 0.35412 0.09594 0.0
H399 H 0.02301 0.38215 0.18332 0.0
H400 H 0.03037 0.34216 0.37163 0.0
H401 H 0.03094 0.31414 0.284 0.0
H402 H 1.00378 0.36847 0.40682 0.0
H403 H 0.06867 0.37185 0.30217 0.0
H404 H 0.09419 0.37366 0.20302 0.0
H405 H 0.07029 0.42861 0.12398 0.0
H406 H 0.0444 0.42697 0.22205 0.0
H407 H 0.03476 0.43679 0.6855 0.0
H408 H 0.03516 0.41085 0.58996 0.0
H409 H 0.01576 0.45262 0.42156 0.0
H410 H 0.01494 0.47871 0.5178 0.0
H411 H 0.04755 0.42666 0.37337 0.0
H412 H 0.98309 0.42299 0.48493 0.0
H413 H 0.95933 0.42102 0.59032 0.0
H414 H 0.9845 0.36594 0.66169 0.0
H415 H 1.00864 0.36773 0.55735 0.0
C416 C 0.02537 0.35139 0.15605 0.0
C417 C 0.02759 0.33206 0.18348 0.0
C418 C 0.02494 0.36741 0.20601 0.0
C419 C 0.02689 0.36443 0.28445 0.0
C420 C 0.02886 0.34496 0.31162 0.0
C421 C 0.02925 0.32895 0.26161 0.0
C422 C 0.02669 0.38149 0.33817 0.0
C423 C 0.01354 0.38105 0.39971 0.0
C424 C 0.03909 0.39825 0.32868 0.0
C425 C 0.05444 0.39916 0.26891 0.0
C426 C 0.06872 0.38421 0.26315 0.0
C427 C 0.08328 0.38523 0.20725 0.0
C428 C 0.08383 0.40121 0.15711 0.0
C429 C 0.06982 0.41622 0.16277 0.0
C430 C 0.05519 0.41525 0.21852 0.0
C431 C 0.03066 0.44053 0.6281 0.0
C432 C 0.02475 0.45983 0.60936 0.0
C433 C 0.03085 0.42564 0.5735 0.0
C434 C 0.02536 0.4297 0.49857 0.0
C435 C 0.02005 0.44911 0.47899 0.0
C436 C 0.01957 0.464 0.53402 0.0
C437 C 0.02477 0.41348 0.44169 0.0
C438 C 0.03775 0.41409 0.37984 0.0
C439 C 0.01238 0.39679 0.45122 0.0
C440 C 0.9978 0.39559 0.51372 0.0
C441 C 0.98367 0.41053 0.52346 0.0
C442 C 0.97011 0.40944 0.58294 0.0
C443 C 0.97043 0.39339 0.63277 0.0
C444 C 0.98429 0.37838 0.62309 0.0
C445 C 0.9979 0.37941 0.56375 0.0
H446 H 0.95992 0.39257 0.67878 0.0
H447 H 0.09516 0.40197 0.11408 0.0
H448 H 0.86096 0.01583 0.31544 0.0
H449 H 0.88894 0.01625 0.22705 0.0
H450 H 0.85476 0.98264 0.06727 0.0
H451 H 0.82686 0.98208 0.15638 0.0
H452 H 0.89186 0.96858 0.07498 0.0
H453 H 0.86266 0.03282 0.04475 0.0
H454 H 0.8502 0.06506 0.08741 0.0
H455 H 0.90743 0.07969 0.17453 0.0
H456 H 0.92018 0.04742 0.13323 0.0
H457 H 0.9488 0.98591 0.74407 0.0
H458 H 0.92328 0.98391 0.84158 0.0
H459 H 0.95976 0.01813 0.99158 0.0
H460 H 0.98535 0.02035 0.89331 0.0
H461 H 0.92262 0.03167 0.99308 0.0
H462 H 0.95215 0.96834 0.02608 0.0
H463 H 0.96548 0.93629 0.98564 0.0
H464 H 0.90903 0.92024 0.89477 0.0
H465 H 0.89529 0.9522 0.93537 0.0
C466 C 0.85947 1.00858 0.26133 0.0
C467 C 0.84181 0.99899 0.24238 0.0
C468 C 0.87543 1.00886 0.21068 0.0
C469 C 0.87401 0.99964 0.13975 0.0
C470 C 0.85632 0.98987 0.12138 0.0
C471 C 0.84035 0.9896 0.17212 0.0
C472 C 0.89089 1.00024 0.08485 0.0
C473 C 0.8984 0.98241 0.05646 0.0
C474 C 0.89994 0.01819 0.06191 0.0
C475 C 0.89232 0.03762 0.08658 0.0
C476 C 0.87255 0.04285 0.07352 0.0
C477 C 0.86544 0.06114 0.09736 0.0
C478 C 0.878 0.07439 0.13384 0.0
C479 C 0.89771 0.0694 0.14636 0.0
C480 C 0.90489 0.05112 0.1227 0.0
C481 C 0.95148 0.99288 0.79804 0.0
C482 C 0.9691 1.00331 0.81088 0.0
C483 C 0.93688 0.99165 0.85403 0.0
C484 C 0.93955 1.00073 0.92457 0.0
C485 C 0.95728 1.01099 0.93781 0.0
C486 C 0.97195 1.01218 0.88172 0.0
C487 C 0.92352 1.00004 0.98301 0.0
C488 C 0.91615 0.01784 0.01192 0.0
C489 C 0.91469 0.98207 0.00681 0.0
C490 C 0.92274 0.96272 0.98321 0.0
C491 C 0.9426 0.95801 0.99718 0.0
C492 C 0.95023 0.93985 0.97428 0.0
C493 C 0.93816 0.92628 0.93709 0.0
C494 C 0.91837 0.93078 0.92345 0.0
C495 C 0.91063 0.94888 0.94672 0.0
H496 H 0.94413 0.91226 0.9191 0.0
H497 H 0.87247 0.08855 0.15225 0.0
H498 H 0.50412 0.84768 0.31814 0.0
H499 H 0.50348 0.87593 0.23059 0.0
H500 H 0.54617 0.84697 0.08836 0.0
H501 H 0.54694 0.81886 0.17665 0.0
H502 H 0.55585 0.88476 0.10411 0.0
H503 H 0.49637 0.84986 0.04156 0.0
H504 H 0.46418 0.83409 0.06651 0.0
H505 H 0.4411 0.88919 0.14588 0.0
H506 H 0.47326 0.90524 0.12239 0.0
H507 H 0.54504 0.94093 0.7671 0.0
H508 H 0.54543 0.91514 0.86419 0.0
H509 H 0.50482 0.94887 -0.00065 0.0
H510 H 0.50437 0.97483 0.90175 0.0
H511 H 0.49375 0.91011 0.99255 0.0
H512 H 0.55275 0.94536 0.05007 0.0
H513 H 0.58478 0.96126 0.02348 0.0
H514 H 0.60867 0.90566 0.95318 0.0
H515 H 0.57667 0.88947 0.97823 0.0
C516 C 0.51327 0.84737 0.26793 0.0
C517 C 0.52552 0.83114 0.25378 0.0
C518 C 0.51287 0.86349 0.21772 0.0
C519 C 0.52464 0.86363 0.15205 0.0
C520 C 0.53694 0.84732 0.13836 0.0
C521 C 0.53733 0.83122 0.18861 0.0
C522 C 0.52436 0.88081 0.0982 0.0
C523 C 0.54227 0.89011 0.07909 0.0
C524 C 0.50664 0.88831 0.06682 0.0
C525 C 0.48729 0.8787 0.08101 0.0
C526 C 0.48449 0.85858 0.06495 0.0
C527 C 0.46624 0.8496 0.07871 0.0
C528 C 0.45062 0.86062 0.10797 0.0
C529 C 0.45322 0.88066 0.12335 0.0
C530 C 0.47145 0.88971 0.10978 0.0
C531 C 0.53631 0.94296 0.81777 0.0
C532 C 0.5247 0.95996 0.82669 0.0
C533 C 0.53658 0.92819 0.87346 0.0
C534 C 0.52525 0.93001 0.93968 0.0
C535 C 0.5137 0.94706 0.94894 0.0
C536 C 0.51353 0.96195 0.89329 0.0
C537 C 0.52525 0.91389 0.99799 0.0
C538 C 0.50731 0.9048 0.0179 0.0
C539 C 0.54293 0.90658 0.03014 0.0
C540 C 0.56225 0.91623 0.01541 0.0
C541 C 0.56478 0.93654 0.02838 0.0
C542 C 0.58294 0.94561 0.01367 0.0
C543 C 0.59874 0.93449 0.9865 0.0
C544 C 0.59642 0.91426 0.97416 0.0
C545 C 0.57827 0.90513 0.98867 0.0
H546 H 0.61279 0.94153 0.97515 0.0
H547 H 0.4365 0.85364 0.11856 0.0
H548 H 0.67482 0.53362 0.3373 0.0
H549 H 0.64686 0.53415 0.2491 0.0
H550 H 0.67996 0.49827 0.09326 0.0
H551 H 0.70797 0.49811 0.181 0.0
H552 H 0.66249 0.52662 0.01858 0.0
H553 H 0.64136 0.47972 0.20626 0.0
H554 H 0.63315 0.46749 0.33394 0.0
H555 H 0.58872 0.51215 0.35573 0.0
H556 H 0.59687 0.52485 0.22852 0.0
H557 H 0.58828 0.49009 0.78067 0.0
H558 H 0.61303 0.49269 0.88011 0.0
H559 H 0.57757 0.53626 0.99319 0.0
H560 H 0.553 0.53423 0.89128 0.0
H561 H 0.59467 0.50676 0.09307 0.0
H562 H 0.61506 0.55223 0.90044 0.0
H563 H 0.62276 0.56288 0.7703 0.0
H564 H 0.66852 0.51935 0.75686 0.0
H565 H 0.66089 0.50822 0.88659 0.0
C566 C 0.67603 0.52585 0.28416 0.0
C567 C 0.69343 0.51579 0.26572 0.0
C568 C 0.66002 0.52605 0.23392 0.0
C569 C 0.66109 0.51604 0.1645 0.0
C570 C 0.67866 0.50609 0.14624 0.0
C571 C 0.69465 0.50594 0.1964 0.0
C572 C 0.64417 0.51622 0.1101 0.0
C573 C 0.64773 0.52207 0.035 0.0
C574 C 0.62466 0.51085 0.13137 0.0
C575 C 0.61991 0.50339 0.20822 0.0
C576 C 0.62998 0.48707 0.23857 0.0
C577 C 0.62531 0.48002 0.3108 0.0
C578 C 0.61047 0.48908 0.35302 0.0
C579 C 0.60025 0.50518 0.32304 0.0
C580 C 0.60489 0.51231 0.25087 0.0
C581 C 0.58562 0.50012 0.82704 0.0
C582 C 0.56833 0.51152 0.82926 0.0
C583 C 0.59982 0.5016 0.88388 0.0
C584 C 0.59722 0.51465 0.94435 0.0
C585 C 0.5798 0.52589 0.94762 0.0
C586 C 0.56557 0.5245 0.89003 0.0
C587 C 0.61317 0.51686 0.00187 0.0
C588 C 0.60942 0.51147 0.07723 0.0
C589 C 0.63255 0.52254 0.98093 0.0
C590 C 0.63729 0.52928 0.90306 0.0
C591 C 0.62666 0.54482 0.86954 0.0
C592 C 0.63103 0.55096 0.79587 0.0
C593 C 0.64609 0.54177 0.75528 0.0
C594 C 0.65685 0.52645 0.78836 0.0
C595 C 0.65252 0.52023 0.86199 0.0
H596 H 0.64946 0.54655 0.69825 0.0
H597 H 0.60685 0.48358 0.40888 0.0
H598 H 0.98768 0.69908 0.16395 0.0
H599 H 0.98754 0.67019 0.08115 0.0
H600 H 0.03481 0.6445 0.2113 0.0
H601 H 0.03527 0.67375 0.29284 0.0
H602 H 0.04196 0.63876 0.06819 0.0
H603 H 0.9857 0.62806 0.22525 0.0
H604 H 0.95418 0.63598 0.28768 0.0
H605 H 0.92636 0.64277 0.07142 0.0
H606 H 0.9578 0.63515 0.00763 0.0
H607 H 0.03202 0.54313 0.90096 0.0
H608 H 0.03126 0.56965 0.99513 0.0
H609 H 0.98999 0.60195 0.85712 0.0
H610 H 0.99084 0.57561 0.76282 0.0
H611 H 0.98001 0.60292 0.00941 0.0
H612 H 0.03749 0.61442 0.8542 0.0
H613 H 0.06908 0.6053 0.79473 0.0
H614 H 0.09466 0.59559 0.01348 0.0
H615 H 0.0631 0.60438 0.07425 0.0
C616 C 0.99805 0.68727 0.17471 0.0
C617 C 1.01148 0.68859 0.23468 0.0
C618 C 0.99788 0.67065 0.12767 0.0
C619 C 1.01098 0.65487 0.14021 0.0
C620 C 0.02452 0.65636 0.20017 0.0
C621 C 0.02474 0.67304 0.24696 0.0
C622 C 1.01073 0.63702 0.0903 0.0
C623 C 0.02843 0.63078 0.05649 0.0
C624 C 0.9931 0.6266 0.07358 0.0
C625 C 0.97416 0.63122 0.11167 0.0
C626 C 0.9729 0.63139 0.19099 0.0
C627 C 0.95505 0.6358 0.22663 0.0
C628 C 0.93829 0.63992 0.18355 0.0
C629 C 0.93936 0.6396 0.10472 0.0
C630 C 0.95719 0.63522 0.06879 0.0
C631 C 0.02266 0.55581 0.8911 0.0
C632 C 1.01158 0.55735 0.82422 0.0
C633 C 0.02229 0.57101 0.9448 0.0
C634 C 1.01072 0.58797 0.93302 0.0
C635 C 0.99906 0.58909 0.86759 0.0
C636 C 0.9996 0.57404 0.8136 0.0
C637 C 1.01117 0.60483 0.9873 0.0
C638 C 0.99352 0.61088 0.02171 0.0
C639 C 0.02886 0.61495 0.00513 0.0
C640 C 0.04788 0.60984 0.96873 0.0
C641 C 0.04981 0.61018 0.8896 0.0
C642 C 0.06771 0.6051 0.85566 0.0
C643 C 0.08385 0.59981 0.9003 0.0
C644 C 0.08213 0.59966 0.97898 0.0
C645 C 0.06425 0.6047 0.0132 0.0
H646 H 0.0977 0.59587 0.87392 0.0
H647 H 0.92448 0.64333 0.21124 0.0
H648 H 0.95763 0.24507 0.16595 0.0
H649 H 0.94627 0.22476 0.27109 0.0
H650 H 0.99338 0.24741 0.40962 0.0
H651 H 1.00523 0.26723 0.30345 0.0
H652 H 0.99898 0.21022 0.37114 0.0
H653 H 0.94553 0.24554 0.47752 0.0
H654 H 0.915 0.2652 0.47855 0.0
H655 H 0.88352 0.21748 0.37467 0.0
H656 H 0.91391 0.19762 0.37191 0.0
H657 H 0.98809 0.12271 0.5846 0.0
H658 H 0.98538 0.1584 0.56399 0.0
H659 H 0.94588 0.14826 0.37747 0.0
H660 H 0.94864 0.11254 0.39735 0.0
H661 H 0.9364 0.18236 0.47051 0.0
H662 H 0.98954 0.15033 0.3413 0.0
H663 H 0.02014 0.13168 0.32141 0.0
H664 H 0.05253 0.17462 0.44884 0.0
H665 H 0.02191 0.1932 0.47211 0.0
C666 C 0.96498 0.24643 0.21998 0.0
C667 C 0.98269 0.25713 0.22598 0.0
C668 C 0.95835 0.23494 0.28049 0.0
C669 C 0.96923 0.23427 0.34781 0.0
C670 C 0.98487 0.24763 0.35787 0.0
C671 C 0.99163 0.259 0.29708 0.0
C672 C 0.96834 0.21608 0.39439 0.0
C673 C 0.98545 0.20448 0.39577 0.0
C674 C 0.95045 0.20822 0.42279 0.0
C675 C 0.93207 0.22009 0.42434 0.0
C676 C 0.93214 0.23927 0.45439 0.0
C677 C 0.91484 0.25045 0.45537 0.0
C678 C 0.89734 0.2426 0.42666 0.0
C679 C 0.89709 0.22354 0.39698 0.0
C680 C 0.91435 0.2123 0.39585 0.0
C681 C 0.97845 0.12813 0.54042 0.0
C682 C 0.96869 0.11496 0.49201 0.0
C683 C 0.97695 0.14845 0.52875 0.0
C684 C 0.96556 0.15583 0.46902 0.0
C685 C 0.95468 0.14277 0.42404 0.0
C686 C 0.9564 0.12244 0.43494 0.0
C687 C 0.96703 0.17679 0.44692 0.0
C688 C 0.95006 0.1886 0.44907 0.0
C689 C 0.98502 0.18485 0.4202 0.0
C690 C 1.00323 0.17292 0.4103 0.0
C691 C 1.00303 0.15556 0.36699 0.0
C692 C 0.02044 0.14504 0.35464 0.0
C693 C 0.03826 0.1519 0.38415 0.0
C694 C 0.0387 0.1693 0.4261 0.0
C695 C 0.02129 0.17976 0.4393 0.0
H696 H 0.05173 0.14377 0.37432 0.0
H697 H 0.88396 0.25128 0.42746 0.0
H698 H 0.259 0.02269 0.28782 0.0
H699 H 0.27927 0.02218 0.4016 0.0
H700 H 0.30516 0.96726 0.33109 0.0
H701 H 0.28468 0.96746 0.21805 0.0
H702 H 0.30701 0.98082 0.50687 0.0
H703 H 0.33705 0.99947 0.23304 0.0
H704 H 0.33001 0.01603 0.1114 0.0
H705 H 0.29931 0.06211 0.22823 0.0
H706 H 0.30669 0.04605 0.3506 0.0
H707 H 0.40904 0.96455 0.48752 0.0
H708 H 0.37346 0.96743 0.47791 0.0
H709 H 0.37872 0.03091 0.47036 0.0
H710 H 0.41432 0.02814 0.46982 0.0
H711 H 0.3568 0.02042 0.36658 0.0
H712 H 0.36088 1.00171 0.62339 0.0
H713 H 0.37078 0.98167 0.73331 0.0
H714 H 0.33593 0.93325 0.65334 0.0
H715 H 0.32657 0.95246 0.54085 0.0
C716 C 0.26806 1.00987 0.29896 0.0
C717 C 0.27083 0.99541 0.24326 0.0
C718 C 0.2796 1.00957 0.36424 0.0
C719 C 0.29399 0.99495 0.37337 0.0
C720 C 0.29415 0.97871 0.32468 0.0
C721 C 0.28261 0.97894 0.25966 0.0
C722 C 0.31259 0.99982 0.41177 0.0
C723 C 0.31799 0.98973 0.47784 0.0
C724 C 0.32661 1.01165 0.37347 0.0
C725 C 0.32218 0.02148 0.30053 0.0
C726 C 0.32885 0.01317 0.23259 0.0
C727 C 0.32489 0.0225 0.16365 0.0
C728 C 0.31413 0.04005 0.16208 0.0
C729 C 0.30756 0.04846 0.22952 0.0
C730 C 0.31171 0.03931 0.29868 0.0
C731 C 0.40274 0.97914 0.48236 0.0
C732 C 0.41477 0.99608 0.47868 0.0
C733 C 0.38227 0.98078 0.47906 0.0
C734 C 0.37334 0.99942 0.4752 0.0
C735 C 0.38525 0.01636 0.47403 0.0
C736 C 0.40571 0.01472 0.47442 0.0
C737 C 0.35185 1.00118 0.46239 0.0
C738 C 0.34594 0.0123 0.39948 0.0
C739 C 0.33759 0.99025 0.50423 0.0
C740 C 0.34295 0.97867 0.57307 0.0
C741 C 0.35545 0.98673 0.62851 0.0
C742 C 0.361 0.97549 0.69142 0.0
C743 C 0.35389 0.95629 0.70054 0.0
C744 C 0.34135 0.94818 0.64641 0.0
C745 C 0.33594 0.95924 0.58289 0.0
H746 H 0.35814 0.94767 0.74948 0.0
H747 H 0.31093 0.04717 0.10863 0.0
H748 H 0.51659 0.26142 0.26935 0.0
H749 H 0.51255 0.28805 0.35971 0.0
H750 H 0.45319 0.29751 0.28012 0.0
H751 H 0.45746 0.2711 0.18828 0.0
H752 H 0.47848 0.32571 0.23501 0.0
H753 H 0.46276 0.2945 0.46906 0.0
H754 H 0.46563 0.27076 0.57433 0.0
H755 H 0.5237 0.2925 0.62379 0.0
H756 H 0.52136 0.31613 0.51798 0.0
H757 H 0.47872 0.42217 0.38813 0.0
H758 H 0.46994 0.3876 0.36491 0.0
H759 H 0.52879 0.36975 0.42697 0.0
H760 H 0.53764 0.40426 0.45003 0.0
H761 H 0.49994 0.34581 0.49068 0.0
H762 H 0.51872 0.37221 0.25387 0.0
H763 H 0.51985 0.39373 0.14148 0.0
H764 H 0.45969 0.3791 0.09088 0.0
H765 H 0.45806 0.35772 0.20396 0.0
C766 C 0.50224 0.26828 0.27475 0.0
C767 C 0.48745 0.26461 0.22129 0.0
C768 C 0.49992 0.28356 0.32651 0.0
C769 C 0.48271 0.29504 0.32536 0.0
C770 C 0.46663 0.2889 0.28137 0.0
C771 C 0.46903 0.27377 0.22914 0.0
C772 C 0.48397 0.31587 0.34916 0.0
C773 C 0.48238 0.33021 0.29183 0.0
C774 C 0.49029 0.3215 0.42197 0.0
C775 C 0.49192 0.30704 0.48502 0.0
C776 C 0.47624 0.29409 0.50178 0.0
C777 C 0.47776 0.28067 0.56172 0.0
C778 C 0.49485 0.2801 0.60564 0.0
C779 C 0.51047 0.29295 0.58971 0.0
C780 C 0.50904 0.30638 0.52977 0.0
C781 C 0.48974 0.41083 0.39662 0.0
C782 C 0.50891 0.41579 0.41976 0.0
C783 C 0.48474 0.39117 0.38342 0.0
C784 C 0.49878 0.37624 0.39397 0.0
C785 C 0.5178 0.38112 0.41857 0.0
C786 C 0.52288 0.40079 0.43084 0.0
C787 C 0.49377 0.35555 0.37715 0.0
C788 C 0.49511 0.34135 0.43498 0.0
C789 C 0.48758 0.34988 0.3043 0.0
C790 C 0.48813 0.36364 0.23853 0.0
C791 C 0.50556 0.37393 0.21996 0.0
C792 C 0.50633 0.38602 0.15578 0.0
C793 C 0.48981 0.38788 0.10932 0.0
C794 C 0.47246 0.3777 0.12709 0.0
C795 C 0.4716 0.3656 0.19126 0.0
H796 H 0.49049 0.39712 0.05932 0.0
H797 H 0.49597 0.26972 0.6521 0.0
H798 H 0.27486 0.5164 0.35779 0.0
H799 H 0.25825 0.52816 0.47162 0.0
H800 H 0.22765 0.57194 0.33882 0.0
H801 H 0.24487 0.5609 0.22599 0.0
H802 H 0.22833 0.58266 0.48673 0.0
H803 H 0.21226 0.52308 0.33726 0.0
H804 H 0.22072 0.4903 0.28657 0.0
H805 H 0.23205 0.46901 0.51119 0.0
H806 H 0.22393 0.50179 0.56304 0.0
H807 H 0.12643 0.57493 0.46603 0.0
H808 H 0.16226 0.57846 0.46682 0.0
H809 H 0.16608 0.53581 0.64788 0.0
H810 H 0.13023 0.53241 0.64786 0.0
H811 H 0.18567 0.52405 0.52924 0.0
H812 H 0.18603 0.58181 0.67268 0.0
H813 H 0.17565 0.61463 0.71647 0.0
H814 H 0.19168 0.63985 0.50193 0.0
H815 H 0.20193 0.60714 0.45634 0.0
C816 C 0.26543 0.52924 0.35362 0.0
C817 C 0.26057 0.53731 0.28275 0.0
C818 C 0.25589 0.53592 0.41877 0.0
C819 C 0.24116 0.5504 0.41312 0.0
C820 C 0.23875 0.56055 0.34448 0.0
C821 C 0.24844 0.55408 0.27972 0.0
C822 C 0.22499 0.55141 0.46946 0.0
C823 C 0.21906 0.56986 0.49717 0.0
C824 C 0.21316 0.53459 0.48482 0.0
C825 C 0.21776 0.51487 0.45384 0.0
C826 C 0.21662 0.51141 0.37571 0.0
C827 C 0.22137 0.49286 0.34679 0.0
C828 C 0.22697 0.4776 0.3956 0.0
C829 C 0.22778 0.48086 0.47346 0.0
C830 C 0.22314 0.49941 0.50264 0.0
C831 C 0.13487 0.56684 0.50779 0.0
C832 C 0.12562 0.55308 0.55576 0.0
C833 C 0.15536 0.56896 0.50862 0.0
C834 C 0.16691 0.55744 0.55773 0.0
C835 C 0.15751 0.54489 0.60984 0.0
C836 C 0.13705 0.54278 0.60908 0.0
C837 C 0.18835 0.55552 0.54319 0.0
C838 C 0.19525 0.53681 0.52284 0.0
C839 C 0.20082 0.57214 0.53417 0.0
C840 C 0.19477 0.59195 0.56107 0.0
C841 C 0.18727 0.59432 0.63464 0.0
C842 C 0.18141 0.61292 0.65982 0.0
C843 C 0.18301 0.62932 0.61202 0.0
C844 C 0.19049 0.62714 0.53895 0.0
C845 C 0.19638 0.60857 0.51347 0.0
H846 H 0.17845 0.64371 0.6316 0.0
H847 H 0.23063 0.46325 0.3731 0.0
H848 H 0.96229 0.78654 0.15713 0.0
H849 H 0.96314 0.80441 0.03804 0.0
H850 H 0.01224 0.76889 0.96427 0.0
H851 H 1.01197 0.75156 0.08532 0.0
H852 H 0.02368 0.80436 0.98181 0.0
H853 H 0.97128 0.77779 0.84478 0.0
H854 H 0.93851 0.76369 0.8181 0.0
H855 H 0.91113 0.81825 0.88114 0.0
H856 H 0.94366 0.83262 0.90946 0.0
H857 H 0.03919 0.89713 0.81217 0.0
H858 H 0.03089 0.86204 0.80482 0.0
H859 H 0.98058 0.87153 0.94953 0.0
H860 H 0.98873 0.90652 0.95716 0.0
H861 H 0.97346 0.84249 0.84035 0.0
H862 H 0.02407 0.86027 0.02804 0.0
H863 H 0.05621 0.87454 0.06406 0.0
H864 H 0.08568 0.83562 0.91019 0.0
H865 H 0.05364 0.82128 0.87276 0.0
C866 C 0.97272 0.78198 0.11424 0.0
C867 C 0.98748 0.76818 0.13137 0.0
C868 C 0.97306 0.79206 0.0454 0.0
C869 C 0.98802 0.78827 0.99235 0.0
C870 C 1.00069 0.7722 0.0046 0.0
C871 C 1.00048 0.76224 0.07391 0.0
C872 C 0.99382 0.80429 0.93923 0.0
C873 C 0.01285 0.81221 0.94813 0.0
C874 C 0.97976 0.8148 0.89599 0.0
C875 C 0.96001 0.8063 0.87924 0.0
C876 C 0.95828 0.78677 0.85344 0.0
C877 C 0.93972 0.77872 0.83795 0.0
C878 C 0.92275 0.79007 0.84788 0.0
C879 C 0.9243 0.80949 0.8733 0.0
C880 C 0.94281 0.81761 0.8889 0.0
C881 C 0.02633 0.89173 0.84227 0.0
C882 C 0.01486 0.90451 0.88668 0.0
C883 C 0.02146 0.87176 0.83705 0.0
C884 C 1.00523 0.8642 0.8771 0.0
C885 C 0.9931 0.87711 0.91775 0.0
C886 C 0.99786 0.89709 0.92252 0.0
C887 C 1.00263 0.8427 0.88775 0.0
C888 C 0.98439 0.83397 0.87077 0.0
C889 C 0.01729 0.83138 0.92431 0.0
C890 C 0.03651 0.83991 0.94694 0.0
C891 C 0.03741 0.85486 0.00161 0.0
C892 C 0.05559 0.86295 0.0223 0.0
C893 C 0.07297 0.85604 0.98923 0.0
C894 C 0.0722 0.84099 0.93558 0.0
C895 C 0.05405 0.83289 0.9146 0.0
H896 H 0.08704 0.86231 0.00533 0.0
H897 H 0.9084 0.78381 0.83587 0.0
H898 H 0.76977 0.05053 0.17645 0.0
H899 H 0.74897 0.06381 0.07481 0.0
H900 H 0.72384 1.00604 0.04098 0.0
H901 H 0.74448 0.99282 0.1425 0.0
H902 H 0.73234 0.04622 0.9036 0.0
H903 H 0.6791 0.01673 0.1097 0.0
H904 H 0.67365 1.00861 0.24411 0.0
H905 H 0.71025 0.05747 0.30891 0.0
H906 H 0.7159 0.06586 0.17454 0.0
H907 H 0.63041 0.02224 0.84669 0.0
H908 H 0.66598 0.0265 0.86043 0.0
H909 H 0.65698 0.08612 0.93666 0.0
H910 H 0.62127 0.08218 0.9199 0.0
H911 H 0.6695 0.05456 0.04395 0.0
H912 H 0.68886 0.08605 0.81495 0.0
H913 H 0.69173 0.09188 0.67776 0.0
H914 H 0.71955 0.03551 0.65066 0.0
H915 H 0.71668 0.02924 0.7876 0.0
C916 C 0.76059 0.04054 0.14425 0.0
C917 C 0.75867 0.02071 0.1663 0.0
C918 C 0.74876 0.0481 0.0864 0.0
C919 C 0.73498 0.03584 0.0507 0.0
C920 C 0.73461 0.0156 0.06742 0.0
C921 C 0.74635 1.00808 0.12524 0.0
C922 C 0.71792 0.04456 0.01184 0.0
C923 C 0.71859 0.04829 0.93389 0.0
C924 C 0.70013 0.04728 0.05187 0.0
C925 C 0.69798 0.04183 0.13247 0.0
C926 C 0.68608 0.02564 0.15275 0.0
C927 C 0.68295 0.021 0.22875 0.0
C928 C 0.69156 0.03254 0.28489 0.0
C929 C 0.70361 0.04854 0.26522 0.0
C930 C 0.70685 0.05321 0.18914 0.0
C931 C 0.63609 0.03653 0.86314 0.0
C932 C 0.62317 0.05184 0.88275 0.0
C933 C 0.65641 0.03902 0.87019 0.0
C934 C 0.66409 0.05671 0.89845 0.0
C935 C 0.65132 0.07252 0.91301 0.0
C936 C 0.63096 0.07019 0.90419 0.0
C937 C 0.68357 0.05608 0.93494 0.0
C938 C 0.68334 0.05338 0.01327 0.0
C939 C 0.70143 0.05387 0.89443 0.0
C940 C 0.70247 0.05716 0.81162 0.0
C941 C 0.69545 0.07482 0.77969 0.0
C942 C 0.69717 0.07825 0.70199 0.0
C943 C 0.70591 0.06412 0.65559 0.0
C944 C 0.71288 0.04649 0.68675 0.0
C945 C 0.71121 0.043 0.76441 0.0
H946 H 0.70718 0.06677 0.59543 0.0
H947 H 0.68868 0.02914 0.3435 0.0
H948 H 0.45924 0.74008 0.27013 0.0
H949 H 0.45069 0.71913 0.16349 0.0
H950 H 0.49827 0.7446 0.0336 0.0
H951 H 0.50732 0.76513 0.14073 0.0
H952 H 0.44698 0.71416 0.99752 0.0
H953 H 0.52802 0.71202 0.01684 0.0
H954 H 0.55573 0.72213 0.09877 0.0
H955 H 0.52122 0.7083 0.29583 0.0
H956 H 0.49329 0.69843 0.215 0.0
H957 H 0.48425 0.61689 0.85005 0.0
H958 H 0.47935 0.65256 0.86472 0.0
H959 H 0.46952 0.64413 0.10338 0.0
H960 H 0.47448 0.60867 0.0896 0.0
H961 H 0.50358 0.66966 0.04805 0.0
H962 H 0.43295 0.6559 0.02256 0.0
H963 H 0.40401 0.64424 0.95125 0.0
H964 H 0.41582 0.68701 0.77703 0.0
H965 H 0.445 0.69875 0.84697 0.0
C966 C 0.46731 0.74188 0.21763 0.0
C967 C 0.48438 0.75366 0.21459 0.0
C968 C 0.46224 0.73007 0.15629 0.0
C969 C 0.47419 0.73 0.09157 0.0
C970 C 0.48897 0.74439 0.08346 0.0
C971 C 0.49416 0.7561 0.14502 0.0
C972 C 0.47565 0.7114 0.04886 0.0
C973 C 0.45954 0.70456 0.00663 0.0
C974 C 0.49193 0.69881 0.0616 0.0
C975 C 0.50866 0.70461 0.11015 0.0
C976 C 0.52641 0.71117 0.07768 0.0
C977 C 0.5421 0.71693 0.12389 0.0
C978 C 0.5402 0.71597 0.20251 0.0
C979 C 0.52263 0.70919 0.23504 0.0
C980 C 0.50687 0.70355 0.18912 0.0
C981 C 0.48076 0.62267 0.90542 0.0
C982 C 0.47991 0.61008 0.96895 0.0
C983 C 0.47781 0.64295 0.91342 0.0
C984 C 0.47405 0.65081 0.98495 0.0
C985 C 0.47226 0.63819 0.04763 0.0
C986 C 0.47506 0.61796 0.03968 0.0
C987 C 0.4748 0.67222 0.99783 0.0
C988 C 0.49141 0.67951 0.0352 0.0
C989 C 0.45893 0.68496 0.98088 0.0
C990 C 0.44133 0.67798 0.93937 0.0
C991 C 0.42952 0.66266 0.96863 0.0
C992 C 0.41303 0.65608 0.92859 0.0
C993 C 0.40813 0.66482 0.85948 0.0
C994 C 0.41966 0.68022 0.83045 0.0
C995 C 0.43617 0.68684 0.87029 0.0
H996 H 0.39536 0.65971 0.82857 0.0
H997 H 0.55235 0.72041 0.23821 0.0
H998 H 0.79541 0.55296 0.19158 0.0
H999 H 0.81254 0.55213 0.07142 0.0
H1000 H 0.77488 0.50444 0.99804 0.0
H1001 H 0.7581 0.50483 0.1207 0.0
H1002 H 0.81011 0.49245 -0.00063 0.0
H1003 H 0.78253 0.54723 0.88208 0.0
H1004 H 0.76804 0.58029 0.86616 0.0
H1005 H 0.82311 0.60698 0.92845 0.0
H1006 H 0.83789 0.57414 0.946 0.0
H1007 H 0.9036 0.48268 0.82588 0.0
H1008 H 0.86809 0.48928 0.82213 0.0
H1009 H 0.87596 0.53751 0.97701 0.0
H1010 H 0.91127 0.53098 0.98164 0.0
H1011 H 0.84742 0.54584 0.86999 0.0
H1012 H 0.86507 0.48994 0.0426 0.0
H1013 H 0.87975 0.45697 0.06158 0.0
H1014 H 0.84195 0.43317 0.89002 0.0
H1015 H 0.82715 0.46606 0.86989 0.0
C1016 C 0.79031 0.54279 0.14873 0.0
C1017 C 0.77581 0.52866 0.16577 0.0
C1018 C 0.79994 0.54248 0.07929 0.0
C1019 C 0.7951 0.52814 0.02524 0.0
C1020 C 0.7789 0.5156 0.03883 0.0
C1021 C 0.7693 0.51585 0.10883 0.0
C1022 C 0.80998 0.52323 0.96673 0.0
C1023 C 0.81774 0.50403 0.96834 0.0
C1024 C 0.82005 0.53816 0.92567 0.0
C1025 C 0.81136 0.55811 0.91508 0.0
C1026 C 0.79155 0.56013 0.89272 0.0
C1027 C 0.78328 0.57886 0.88339 0.0
C1028 C 0.79466 0.59572 0.89618 0.0
C1029 C 0.81433 0.5939 0.91831 0.0
C1030 C 0.82269 0.57521 0.92772 0.0
C1031 C 0.89773 0.49473 0.85884 0.0
C1032 C 0.91016 0.50614 0.90491 0.0
C1033 C 0.87754 0.49865 0.85564 0.0
C1034 C 0.86944 0.51387 0.89902 0.0
C1035 C 0.88195 0.52583 0.9423 0.0
C1036 C 0.90212 0.522 0.94531 0.0
C1037 C 0.84787 0.51575 0.90903 0.0
C1038 C 0.83903 0.53422 0.89764 0.0
C1039 C 0.83667 0.50018 0.94084 0.0
C1040 C 0.84513 0.48038 0.95447 0.0
C1041 C 0.85991 0.47764 0.00905 0.0
C1042 C 0.86826 0.459 0.01992 0.0
C1043 C 0.86181 0.443 0.97694 0.0
C1044 C 0.84694 0.44558 0.92322 0.0
C1045 C 0.83855 0.4642 0.91211 0.0
H1046 H 0.86831 0.42858 0.98533 0.0
H1047 H 0.78822 0.61021 0.88898 0.0
H1048 H 0.98204 0.22525 0.98017 0.0
H1049 H 0.98617 0.19258 0.92487 0.0
H1050 H 0.0493 0.19894 0.93795 0.0
H1051 H 0.04526 0.23167 0.99583 0.0
H1052 H 0.03202 0.17909 0.79598 0.0
H1053 H 0.03267 0.17515 0.0705 0.0
H1054 H 0.01895 0.1834 0.19565 0.0
H1055 H 0.96426 0.15539 0.137 0.0
H1056 H 0.97757 0.14719 0.01115 0.0
H1057 H 0.03748 0.06546 0.88313 0.0
H1058 H 0.03767 0.09982 0.92549 0.0
H1059 H 1.00328 0.11652 0.73085 0.0
H1060 H 1.0038 0.08251 0.6867 0.0
H1061 H 1.00934 0.12514 0.96641 0.0
H1062 H 1.0111 0.15795 0.67505 0.0
H1063 H 0.02181 0.14808 0.54765 0.0
H1064 H 0.07196 0.11834 0.64177 0.0
H1065 H 0.06104 0.12735 0.77027 0.0
C1066 C 0.99685 0.2199 0.97019 0.0
C1067 C 0.01332 0.23106 0.9934 0.0
C1068 C 0.99917 0.20118 0.93845 0.0
C1069 C 0.01802 0.19317 0.92805 0.0
C1070 C 0.0346 0.20482 0.94549 0.0
C1071 C 0.03227 0.22359 0.97816 0.0
C1072 C 0.02009 0.17204 0.90571 0.0
C1073 C 0.02721 0.16732 0.83351 0.0
C1074 C 0.01377 0.15656 0.95431 0.0
C1075 C 1.00606 0.1607 0.03116 0.0
C1076 C 0.01769 0.17082 0.0842 0.0
C1077 C 1.00999 0.17549 0.15525 0.0
C1078 C 0.99071 0.17003 0.17406 0.0
C1079 C 0.97917 0.15966 0.12225 0.0
C1080 C 0.9868 0.15496 0.05111 0.0
C1081 C 0.03008 0.07647 0.84894 0.0
C1082 C 0.02073 0.07111 0.781 0.0
C1083 C 0.03013 0.09615 0.87352 0.0
C1084 C 0.02079 0.11101 0.83098 0.0
C1085 C 1.0111 0.10559 0.76395 0.0
C1086 C 1.01127 0.08599 0.73888 0.0
C1087 C 0.02122 0.13211 0.85642 0.0
C1088 C 0.01444 0.13686 0.9292 0.0
C1089 C 0.02786 0.14761 0.80854 0.0
C1090 C 0.03539 0.14349 0.73183 0.0
C1091 C 0.02456 0.14956 0.66835 0.0
C1092 C 0.03059 0.144 0.59604 0.0
C1093 C 0.0477 0.13284 0.58638 0.0
C1094 C 0.05875 0.12706 0.64924 0.0
C1095 C 0.05259 0.13227 0.72187 0.0
H1096 H 0.05233 0.12857 0.53025 0.0
H1097 H 0.98469 0.17385 0.22871 0.0
H1098 H 0.29474 0.03934 0.96186 0.0
H1099 H 0.32751 0.04081 0.90172 0.0
H1100 H 0.3345 0.97829 0.93873 0.0
H1101 H 0.30206 0.97685 -0.00134 0.0
H1102 H 0.36547 0.99643 0.98957 0.0
H1103 H 0.32752 0.99884 0.76714 0.0
H1104 H 0.30408 1.00963 0.66957 0.0
H1105 H 0.33638 0.0637 0.64032 0.0
H1106 H 0.35993 0.05339 0.73868 0.0
H1107 H 0.44684 0.99848 0.67501 0.0
H1108 H 0.41191 0.99895 0.71063 0.0
H1109 H 0.42706 0.0264 0.92204 0.0
H1110 H 0.46195 0.02569 0.88717 0.0
H1111 H 0.38471 0.02526 0.74222 0.0
H1112 H 0.39695 1.01087 0.062 0.0
H1113 H 0.42097 0.99439 0.14562 0.0
H1114 H 0.43841 0.95637 0.96417 0.0
H1115 H 0.41431 0.97242 0.87983 0.0
C1116 C 0.30303 0.02583 0.95491 0.0
C1117 C 0.29572 1.00797 0.98491 0.0
C1118 C 0.32186 0.02669 0.92099 0.0
C1119 C 0.33373 1.00968 0.91602 0.0
C1120 C 0.32589 0.99169 0.94237 0.0
C1121 C 0.30721 0.99085 0.97617 0.0
C1122 C 0.35473 1.01058 0.88854 0.0
C1123 C 0.36958 1.00287 0.93553 0.0
C1124 C 0.3603 0.01862 0.81737 0.0
C1125 C 0.34542 0.02543 0.76144 0.0
C1126 C 0.32943 0.01324 0.74133 0.0
C1127 C 0.31618 0.01921 0.68536 0.0
C1128 C 0.31869 0.03737 0.64896 0.0
C1129 C 0.33444 0.04963 0.66863 0.0
C1130 C 0.34777 0.04371 0.72447 0.0
C1131 C 0.44276 1.00477 0.72884 0.0
C1132 C 0.45737 1.01198 0.77818 0.0
C1133 C 0.42268 1.00505 0.74922 0.0
C1134 C 0.41663 0.01248 0.81969 0.0
C1135 C 0.43118 0.02021 0.868 0.0
C1136 C 0.45124 0.01984 0.84784 0.0
C1137 C 0.39533 1.01147 0.84401 0.0
C1138 C 0.3805 0.01915 0.79666 0.0
C1139 C 0.38958 1.0029 0.91394 0.0
C1140 C 0.40399 0.99302 0.96442 0.0
C1141 C 0.40588 0.99896 0.04004 0.0
C1142 C 0.4195 0.98969 0.08755 0.0
C1143 C 0.43126 0.9744 0.06014 0.0
C1144 C 0.42935 0.96827 0.98524 0.0
C1145 C 0.41572 0.97746 0.93755 0.0
H1146 H 0.44181 0.96726 0.09698 0.0
H1147 H 0.30848 0.04191 0.60533 0.0
H1148 H 0.53725 0.28552 0.96947 0.0
H1149 H 0.53972 0.31875 0.91397 0.0
H1150 H 0.47637 0.32119 0.89568 0.0
H1151 H 0.47395 0.28804 0.95054 0.0
H1152 H 0.49234 0.34154 0.78132 0.0
H1153 H 0.49905 0.33792 0.04622 0.0
H1154 H 0.51282 0.3264 0.16718 0.0
H1155 H 0.56827 0.3538 0.11329 0.0
H1156 H 0.55516 0.36463 0.99003 0.0
H1157 H 0.50508 0.45243 0.9052 0.0
H1158 H 0.50285 0.41737 0.93701 0.0
H1159 H 0.5228 0.40253 0.71293 0.0
H1160 H 0.52451 0.43754 0.68001 0.0
H1161 H 0.52667 0.38846 0.95097 0.0
H1162 H 0.50288 0.36022 0.65272 0.0
H1163 H 0.4837 0.37292 0.54448 0.0
H1164 H 0.45226 0.41207 0.69065 0.0
H1165 H 0.47089 0.39949 0.8001 0.0
C1166 C 0.52394 0.29281 0.95049 0.0
C1167 C 0.50542 0.28407 0.96377 0.0
C1168 C 0.52532 0.31194 0.91962 0.0
C1169 C 0.5082 0.32276 0.90168 0.0
C1170 C 0.48981 0.31331 0.9089 0.0
C1171 C 0.48844 0.29427 0.94001 0.0
C1172 C 0.5092 0.34443 0.8837 0.0
C1173 C 0.50007 0.35173 0.81796 0.0
C1174 C 0.51833 0.35806 0.93339 0.0
C1175 C 0.52621 0.3518 0.00806 0.0
C1176 C 0.51429 0.34121 0.05944 0.0
C1177 C 0.52198 0.33477 0.12844 0.0
C1178 C 0.54141 0.33933 0.14787 0.0
C1179 C 0.55323 0.35024 0.09808 0.0
C1180 C 0.54571 0.35644 0.0284 0.0
C1181 C 0.50896 0.44175 0.86243 0.0
C1182 C 0.51488 0.448 0.78973 0.0
C1183 C 0.50777 0.4216 0.88095 0.0
C1184 C 0.51245 0.40706 0.82741 0.0
C1185 C 0.51871 0.41328 0.75517 0.0
C1186 C 0.51977 0.43342 0.73641 0.0
C1187 C 0.51061 0.38548 0.84674 0.0
C1188 C 0.5193 0.37823 0.91343 0.0
C1189 C 0.50026 0.37204 0.79988 0.0
C1190 C 0.48848 0.37906 0.7345 0.0
C1191 C 0.4918 0.37145 0.66188 0.0
C1192 C 0.48106 0.37865 0.60028 0.0
C1193 C 0.46691 0.39334 0.61052 0.0
C1194 C 0.4633 0.40076 0.68265 0.0
C1195 C 0.47394 0.39361 0.7445 0.0
H1196 H 0.45872 0.39892 0.56256 0.0
H1197 H 0.54728 0.33449 0.20165 0.0
H1198 H 0.24659 0.50627 0.94661 0.0
H1199 H 0.21592 0.50181 0.87456 0.0
H1200 H 0.18308 0.49805 0.08317 0.0
H1201 H 0.21343 0.50134 0.15431 0.0
H1202 H 0.16824 0.47307 0.99294 0.0
H1203 H 0.18615 0.54356 0.95889 0.0
H1204 H 0.20803 0.57052 0.91523 0.0
H1205 H 0.20948 0.54547 0.69291 0.0
H1206 H 0.18781 0.51826 0.73571 0.0
H1207 H 0.07107 0.50127 0.91315 0.0
H1208 H 0.10529 0.49923 0.95487 0.0
H1209 H 0.12498 0.5016 0.72319 0.0
H1210 H 0.09063 0.50431 0.68125 0.0
H1211 H 0.14852 0.52355 0.80406 0.0
H1212 H 0.12564 0.45781 0.82817 0.0
H1213 H 0.10286 0.43105 0.86527 0.0
H1214 H 0.11156 0.44493 0.09923 0.0
H1215 H 0.13422 0.472 0.06352 0.0
C1216 C 0.23285 0.50416 0.97693 0.0
C1217 C 0.23255 0.50452 0.05647 0.0
C1218 C 0.21523 0.50189 0.93565 0.0
C1219 C 0.1969 0.50007 0.97303 0.0
C1220 C 0.19683 0.49956 0.05235 0.0
C1221 C 0.21431 0.50162 0.09325 0.0
C1222 C 0.17761 0.49898 0.93145 0.0
C1223 C 0.16393 0.48424 0.95212 0.0
C1224 C 0.17204 0.5129 0.87531 0.0
C1225 C 0.1854 0.52895 0.85039 0.0
C1226 C 0.19122 0.54379 0.90083 0.0
C1227 C 0.20358 0.5591 0.87624 0.0
C1228 C 0.21012 0.55972 0.80131 0.0
C1229 C 0.20438 0.54499 0.75087 0.0
C1230 C 0.19205 0.52966 0.77522 0.0
C1231 C 0.08264 0.50131 0.87089 0.0
C1232 C 0.07801 0.50293 0.79367 0.0
C1233 C 0.10229 0.50006 0.89487 0.0
C1234 C 0.1179 0.49996 0.84231 0.0
C1235 C 0.11332 0.5017 0.76509 0.0
C1236 C 0.09363 0.50322 0.74109 0.0
C1237 C 0.13888 0.49824 0.86856 0.0
C1238 C 0.15287 0.5123 0.84451 0.0
C1239 C 0.14484 0.48354 0.92101 0.0
C1240 C 0.13153 0.46704 0.94309 0.0
C1241 C 0.12263 0.45523 0.88753 0.0
C1242 C 0.10975 0.44 0.90831 0.0
C1243 C 0.10573 0.43633 0.98453 0.0
C1244 C 0.11468 0.44781 0.0402 0.0
C1245 C 0.12758 0.46308 0.01972 0.0
H1246 H 0.09569 0.42458 0.00037 0.0
H1247 H 0.21962 0.57161 0.78231 0.0
H1248 H 0.01618 0.81298 0.28235 0.0
H1249 H 0.01888 0.84375 0.34953 0.0
H1250 H 1.00376 0.81417 0.5582 0.0
H1251 H 0.99921 0.78308 0.4886 0.0
H1252 H 0.9864 0.84773 0.56017 0.0
H1253 H 0.05293 0.83189 0.51341 0.0
H1254 H 0.08228 0.82105 0.44257 0.0
H1255 H 0.0767 0.87076 0.29281 0.0
H1256 H 0.04717 0.88178 0.36214 0.0
H1257 H 0.0131 0.93979 0.73864 0.0
H1258 H 0.01278 0.90518 0.69972 0.0
H1259 H 0.01442 0.92335 0.46625 0.0
H1260 H 0.01453 0.95801 0.50481 0.0
H1261 H 0.04134 0.8936 0.49846 0.0
H1262 H 0.97131 0.90588 0.54725 0.0
H1263 H 0.94471 0.91724 0.63168 0.0
H1264 H 0.96102 0.87369 0.79662 0.0
H1265 H 0.98784 0.86205 0.71319 0.0
C1266 C 0.01316 0.81286 0.34245 0.0
C1267 C 1.00705 0.7954 0.37939 0.0
C1268 C 0.01512 0.8306 0.38145 0.0
C1269 C 1.01195 0.83152 0.45979 0.0
C1270 C 1.00638 0.81401 0.49784 0.0
C1271 C 1.00398 0.79613 0.45811 0.0
C1272 C 0.01392 0.851 0.49975 0.0
C1273 C 0.99866 0.85753 0.5476 0.0
C1274 C 0.02989 0.86408 0.48459 0.0
C1275 C 0.04775 0.85761 0.44283 0.0
C1276 C 0.05789 0.84046 0.46513 0.0
C1277 C 0.07457 0.83429 0.42526 0.0
C1278 C 0.08133 0.8452 0.36318 0.0
C1279 C 0.07145 0.86233 0.34094 0.0
C1280 C 0.05476 0.86857 0.3806 0.0
C1281 C 0.01329 0.93645 0.67907 0.0
C1282 C 0.01373 0.95178 0.62506 0.0
C1283 C 0.01311 0.91661 0.65686 0.0
C1284 C 0.01352 0.91154 0.58001 0.0
C1285 C 0.0141 0.92681 0.52592 0.0
C1286 C 0.01407 0.94667 0.54809 0.0
C1287 C 0.01352 0.89041 0.55557 0.0
C1288 C 0.02924 0.88361 0.51121 0.0
C1289 C 0.99833 0.87698 0.57584 0.0
C1290 C 0.9816 0.88316 0.62417 0.0
C1291 C 0.9692 0.89869 0.60149 0.0
C1292 C 0.95411 0.90518 0.64916 0.0
C1293 C 0.95122 0.89618 0.71952 0.0
C1294 C 0.96332 0.88058 0.74207 0.0
C1295 C 0.97842 0.874 0.69455 0.0
H1296 H 0.93961 0.90129 0.75655 0.0
H1297 H 0.09424 0.84038 0.33236 0.0
H1298 H 0.74304 0.97902 0.46947 0.0
H1299 H 0.71164 0.97808 0.53887 0.0
H1300 H 0.70039 0.03838 0.4719 0.0
H1301 H 0.732 0.03955 0.40748 0.0
H1302 H 0.68175 0.03545 0.58223 0.0
H1303 H 0.68271 0.99227 0.37283 0.0
H1304 H 0.69395 0.96506 0.29157 0.0
H1305 H 0.68196 0.92344 0.46973 0.0
H1306 H 0.67084 0.9505 0.55229 0.0
H1307 H 0.57444 0.9938 0.53278 0.0
H1308 H 0.6092 0.99414 0.49629 0.0
H1309 H 0.62501 0.01416 0.71877 0.0
H1310 H 0.59017 0.01444 0.75528 0.0
H1311 H 0.64072 0.97642 0.53178 0.0
H1312 H 0.66587 0.04541 0.70856 0.0
H1313 H 0.65188 0.07698 0.75208 0.0
H1314 H 0.60649 0.0732 0.5844 0.0
H1315 H 0.6208 0.04226 0.53705 0.0
C1316 C 0.73409 0.99222 0.47185 0.0
C1317 C 0.73983 1.00924 0.43174 0.0
C1318 C 0.71588 0.9916 0.51032 0.0
C1319 C 0.7028 1.0078 0.50768 0.0
C1320 C 0.70966 0.02541 0.47422 0.0
C1321 C 0.72785 0.0261 0.43688 0.0
C1322 C 0.68166 1.00627 0.53445 0.0
C1323 C 0.67299 0.02239 0.57183 0.0
C1324 C 0.66946 0.98974 0.51805 0.0
C1325 C 0.67619 0.97342 0.46895 0.0
C1326 C 0.68259 0.97733 0.39475 0.0
C1327 C 0.68893 0.96194 0.34848 0.0
C1328 C 0.68873 0.94253 0.37556 0.0
C1329 C 0.68215 0.93849 0.44891 0.0
C1330 C 0.67582 0.95384 0.49546 0.0
C1331 C 0.58527 0.99825 0.57424 0.0
C1332 C 0.57936 1.0042 0.64697 0.0
C1333 C 0.60525 0.99834 0.5533 0.0
C1334 C 0.61991 1.00435 0.60446 0.0
C1335 C 0.61406 1.00978 0.67779 0.0
C1336 C 0.59407 1.00986 0.69866 0.0
C1337 C 0.64116 1.00546 0.58052 0.0
C1338 C 0.64973 0.9893 0.54343 0.0
C1339 C 0.65288 0.02252 0.59241 0.0
C1340 C 0.64423 0.04125 0.62035 0.0
C1341 C 0.65297 0.05136 0.68078 0.0
C1342 C 0.645 0.06917 0.70603 0.0
C1343 C 0.62815 0.07692 0.67189 0.0
C1344 C 0.61944 0.06709 0.61136 0.0
C1345 C 0.62753 0.04945 0.58506 0.0
H1346 H 0.62194 0.09063 0.692 0.0
H1347 H 0.69363 0.93063 0.33966 0.0
H1348 H 0.4839 0.72978 0.49812 0.0
H1349 H 0.4874 0.69753 0.56052 0.0
H1350 H 0.54719 0.69365 0.47891 0.0
H1351 H 0.54384 0.72618 0.41806 0.0
H1352 H 0.52246 0.66131 0.43879 0.0
H1353 H 0.53948 0.69817 0.66192 0.0
H1354 H 0.53497 0.72216 0.76474 0.0
H1355 H 0.48232 0.69203 0.83602 0.0
H1356 H 0.48624 0.66811 0.73262 0.0
H1357 H 0.54462 0.56743 0.58973 0.0
H1358 H 0.54487 0.60227 0.5542 0.0
H1359 H 0.49411 0.61226 0.69639 0.0
H1360 H 0.49469 0.57762 0.73587 0.0
H1361 H 0.51456 0.64236 0.70802 0.0
H1362 H 0.49342 0.60821 0.48821 0.0
H1363 H 0.49436 0.58379 0.38548 0.0
H1364 H 0.54883 0.60858 0.3046 0.0
H1365 H 0.54836 0.63301 0.40748 0.0
C1366 C 0.49802 0.72236 0.49597 0.0
C1367 C 0.51372 0.73068 0.45439 0.0
C1368 C 0.49999 0.70387 0.53137 0.0
C1369 C 0.51758 0.69308 0.52476 0.0
C1370 C 0.53351 0.7017 0.48537 0.0
C1371 C 0.53167 0.72038 0.45122 0.0
C1372 C 0.51864 0.67211 0.55184 0.0
C1373 C 0.52107 0.65718 0.49788 0.0
C1374 C 0.51584 0.66657 0.62847 0.0
C1375 C 0.51307 0.68144 0.68889 0.0
C1376 C 0.52677 0.69682 0.69876 0.0
C1377 C 0.52434 0.71038 0.75734 0.0
C1378 C 0.50833 0.70865 0.8068 0.0
C1379 C 0.49468 0.69339 0.79761 0.0
C1380 C 0.497 0.67983 0.73899 0.0
C1381 C 0.53349 0.57703 0.61346 0.0
C1382 C 0.51951 0.56958 0.66513 0.0
C1383 C 0.53353 0.59705 0.59257 0.0
C1384 C 0.51914 0.61011 0.6205 0.0
C1385 C 0.50537 0.60271 0.67328 0.0
C1386 C 0.50565 0.58278 0.69574 0.0
C1387 C 0.51849 0.63138 0.59491 0.0
C1388 C 0.51601 0.64638 0.64889 0.0
C1389 C 0.52057 0.63702 0.51785 0.0
C1390 C 0.52096 0.6223 0.45606 0.0
C1391 C 0.50568 0.60836 0.44886 0.0
C1392 C 0.50611 0.59453 0.39055 0.0
C1393 C 0.52167 0.5946 0.33867 0.0
C1394 C 0.53681 0.60853 0.3449 0.0
C1395 C 0.53646 0.62237 0.40317 0.0
H1396 H 0.52198 0.58389 0.29354 0.0
H1397 H 0.50653 0.71909 0.85238 0.0
H1398 H 0.7945 0.54115 0.48919 0.0
H1399 H 0.82708 0.53969 0.55014 0.0
H1400 H 0.84003 0.48612 0.42946 0.0
H1401 H 0.80757 0.48756 0.36928 0.0
H1402 H 0.85574 0.48426 0.56755 0.0
H1403 H 0.85515 0.53034 0.36188 0.0
H1404 H 0.84323 0.55916 0.28983 0.0
H1405 H 0.85747 0.59708 0.47567 0.0
H1406 H 0.86918 0.5684 0.54935 0.0
H1407 H 0.96474 0.52084 0.52198 0.0
H1408 H 0.9301 0.52095 0.48295 0.0
H1409 H 0.91228 0.50716 0.71104 0.0
H1410 H 0.94684 0.5066 0.7501 0.0
H1411 H 0.89879 0.54231 0.51973 0.0
H1412 H 0.86864 0.47623 0.69944 0.0
H1413 H 0.88134 0.44625 0.76172 0.0
H1414 H 0.93002 0.44491 0.60634 0.0
H1415 H 0.91752 0.47476 0.54285 0.0
C1416 C 0.80407 0.52873 0.47793 0.0
C1417 C 0.79843 0.51433 0.42532 0.0
C1418 C 0.82278 0.528 0.51199 0.0
C1419 C 0.83624 0.51293 0.4937 0.0
C1420 C 0.83003 0.49789 0.44476 0.0
C1421 C 0.81142 0.49867 0.41058 0.0
C1422 C 0.85721 0.51352 0.52035 0.0
C1423 C 0.86511 0.49703 0.55787 0.0
C1424 C 0.86969 0.52992 0.50577 0.0
C1425 C 0.86284 0.54721 0.46141 0.0
C1426 C 0.85561 0.54481 0.38758 0.0
C1427 C 0.8489 0.56111 0.34643 0.0
C1428 C 0.84955 0.57993 0.37823 0.0
C1429 C 0.85695 0.58248 0.45118 0.0
C1430 C 0.86362 0.56621 0.49266 0.0
C1431 C 0.95347 0.51786 0.564 0.0
C1432 C 0.95871 0.51369 0.63932 0.0
C1433 C 0.93361 0.51799 0.5416 0.0
C1434 C 0.91844 0.51385 0.59376 0.0
C1435 C 0.92362 0.5101 0.66934 0.0
C1436 C 0.94346 0.50992 0.69173 0.0
C1437 C 0.89732 0.51318 0.56875 0.0
C1438 C 0.88941 0.52963 0.53083 0.0
C1439 C 0.88496 0.49652 0.58168 0.0
C1440 C 0.89242 0.47816 0.61788 0.0
C1441 C 0.88212 0.46962 0.67887 0.0
C1442 C 0.88924 0.45258 0.7142 0.0
C1443 C 0.90658 0.44377 0.68843 0.0
C1444 C 0.9167 0.45185 0.62675 0.0
C1445 C 0.90961 0.46888 0.59119 0.0
H1446 H 0.91211 0.4306 0.71593 0.0
H1447 H 0.84436 0.59254 0.34628 0.0
loop_
_geom_bond_atom_site_label_1
_geom_bond_atom_site_label_2
_geom_bond_distance
_geom_bond_site_symmetry_2
_ccdc_geom_bond_type
H0 C3 0.929 . S
H1 C6 0.929 . S
H2 C8 0.930 . S
C3 H0 0.929 . S
C3 C4 1.398 . S
C3 C5 1.396 . S
C4 C3 1.398 . S
C4 C8 1.407 . S
C5 C3 1.396 . S
C5 C6 1.394 . S
C6 H1 0.929 . S
C6 C5 1.394 . S
C6 C7 1.382 . S
C7 C6 1.382 . S
C7 C8 1.392 . S
C7 N9 1.420 . S
C8 H2 0.930 . S
C8 C4 1.407 . S
C8 C7 1.392 . S
N9 C7 1.420 . S
N9 C10 1.244 . S
C10 N9 1.244 . S
H11 C14 0.929 . S
H12 C17 0.929 . S
H13 C19 0.930 . S
C14 H11 0.929 . S
C14 C15 1.395 1_655 S
C14 C16 1.395 1_655 S
C15 C14 1.395 1_455 S
C15 C19 1.413 . S
C16 C14 1.395 1_455 S
C16 C17 1.396 . S
C17 H12 0.929 . S
C17 C16 1.396 . S
C17 C18 1.382 . S
C18 C17 1.382 . S
C18 C19 1.392 . S
C18 N20 1.420 . S
C19 H13 0.930 . S
C19 C15 1.413 . S
C19 C18 1.392 . S
N20 C18 1.420 . S
N20 C21 1.232 1_455 S
C21 N20 1.232 1_655 S
H22 C25 0.929 . S
H23 C28 0.929 . S
H24 C30 0.930 . S
C25 H22 0.929 . S
C25 C26 1.395 1_565 S
C25 C27 1.395 1_565 S
C26 C25 1.395 1_545 S
C26 C30 1.413 . S
C27 C25 1.395 1_545 S
C27 C28 1.396 . S
C28 H23 0.929 . S
C28 C27 1.396 . S
C28 C29 1.382 . S
C29 C28 1.382 . S
C29 C30 1.392 . S
C29 N31 1.420 . S
C30 H24 0.930 . S
C30 C26 1.413 . S
C30 C29 1.392 . S
N31 C29 1.420 . S
N31 C32 1.232 1_545 S
C32 N31 1.232 1_565 S
H33 C36 0.929 . S
H34 C39 0.929 . S
H35 C41 0.930 . S
C36 H33 0.929 . S
C36 C37 1.398 . S
C36 C38 1.396 . S
C37 C36 1.398 . S
C37 C41 1.407 . S
C38 C36 1.396 . S
C38 C39 1.394 . S
C39 H34 0.929 . S
C39 C38 1.394 . S
C39 C40 1.382 . S
C40 C39 1.382 . S
C40 C41 1.392 . S
C40 N42 1.420 . S
C41 H35 0.930 . S
C41 C37 1.407 . S
C41 C40 1.392 . S
N42 C40 1.420 . S
N42 C43 1.244 . S
C43 N42 1.244 . S
H44 C47 0.929 . S
H45 C50 0.929 . S
H46 C52 0.930 . S
C47 H44 0.929 . S
C47 C48 1.398 1_554 S
C47 C49 1.396 . S
C48 C47 1.398 1_556 S
C48 C52 1.407 . S
C49 C47 1.396 . S
C49 C50 1.394 . S
C50 H45 0.929 . S
C50 C49 1.394 . S
C50 C51 1.382 . S
C51 C50 1.382 . S
C51 C52 1.392 1_554 S
C51 N53 1.420 . S
C52 H46 0.930 . S
C52 C48 1.407 . S
C52 C51 1.392 1_556 S
N53 C51 1.420 . S
N53 C54 1.244 . S
C54 N53 1.244 . S
H55 C58 0.929 . S
H56 C61 0.929 . S
H57 C63 0.930 . S
C58 H55 0.929 . S
C58 C59 1.394 1_654 S
C58 C60 1.394 1_655 S
C59 C58 1.394 1_456 S
C59 C63 1.416 . S
C60 C58 1.394 1_455 S
C60 C61 1.398 . S
C61 H56 0.929 . S
C61 C60 1.398 . S
C61 C62 1.382 . S
C62 C61 1.382 . S
C62 C63 1.392 1_554 S
C62 N64 1.420 . S
C63 H57 0.930 . S
C63 C59 1.416 . S
C63 C62 1.392 1_556 S
N64 C62 1.420 . S
N64 C65 1.238 1_455 S
C65 N64 1.238 1_655 S
H66 C69 0.929 . S
H67 C72 0.929 . S
H68 C74 0.930 . S
C69 H66 0.929 . S
C69 C70 1.395 1_564 S
C69 C71 1.394 1_565 S
C70 C69 1.395 1_546 S
C70 C74 1.416 . S
C71 C69 1.394 1_545 S
C71 C72 1.398 . S
C72 H67 0.929 . S
C72 C71 1.398 . S
C72 C73 1.382 . S
C73 C72 1.382 . S
C73 C74 1.392 1_554 S
C73 N75 1.420 . S
C74 H68 0.930 . S
C74 C70 1.416 . S
C74 C73 1.392 1_556 S
N75 C73 1.420 . S
N75 C76 1.238 1_545 S
C76 N75 1.238 1_565 S
H77 C80 0.929 . S
H78 C83 0.929 . S
H79 C85 0.930 . S
C80 H77 0.929 . S
C80 C81 1.398 1_554 S
C80 C82 1.396 . S
C81 C80 1.398 1_556 S
C81 C85 1.407 . S
C82 C80 1.396 . S
C82 C83 1.394 . S
C83 H78 0.929 . S
C83 C82 1.394 . S
C83 C84 1.382 . S
C84 C83 1.382 . S
C84 C85 1.392 1_554 S
C84 N86 1.420 . S
C85 H79 0.930 . S
C85 C81 1.407 . S
C85 C84 1.392 1_556 S
N86 C84 1.420 . S
N86 C87 1.244 . S
C87 N86 1.244 . S
Tb88 C90 2.809 . S
Tb88 O108 2.480 1_455 S
Tb88 O109 2.440 . S
Tb88 O110 2.658 1_565 S
Tb88 O111 2.409 . S
Tb88 O112 2.378 . S
Tb88 O116 2.325 1_455 S
Tb88 O119 2.341 1_565 S
Tb89 C99 2.809 . S
Tb89 O110 2.325 1_655 S
Tb89 O113 2.341 1_545 S
Tb89 O114 2.474 1_655 S
Tb89 O115 2.440 . S
Tb89 O116 2.658 1_545 S
Tb89 O117 2.409 . S
Tb89 O118 2.378 . S
C90 Tb88 2.809 . S
C90 C91 1.514 . S
C90 O108 1.238 1_455 S
C90 O109 1.266 . S
C91 C90 1.514 . S
C91 C92 1.359 . S
C91 C96 1.348 . S
C92 C91 1.359 . S
C92 C93 1.380 . S
C92 H120 0.929 1_455 S
C93 C92 1.380 . S
C93 C94 1.347 . S
C93 H121 0.931 1_455 S
C94 C93 1.347 . S
C94 C95 1.369 . S
C95 C94 1.369 . S
C95 C96 1.408 . S
C95 H122 0.930 . S
C96 C91 1.348 . S
C96 C95 1.408 . S
C96 H123 0.930 . S
C97 O110 1.263 1_565 S
C97 O111 1.281 . S
C98 O112 1.236 1_655 S
C98 O113 1.266 . S
C99 Tb89 2.809 . S
C99 C100 1.514 . S
C99 O114 1.226 1_655 S
C99 O115 1.266 . S
C100 C99 1.514 . S
C100 C101 1.359 . S
C100 C105 1.348 . S
C101 C100 1.359 . S
C101 C102 1.380 . S
C101 H124 0.929 1_655 S
C102 C101 1.380 . S
C102 C103 1.347 . S
C102 H125 0.931 1_655 S
C103 C102 1.347 . S
C103 C104 1.369 . S
C104 C103 1.369 . S
C104 C105 1.408 . S
C104 H126 0.930 . S
C105 C100 1.348 . S
C105 C104 1.408 . S
C105 H127 0.930 . S
C106 O116 1.281 1_545 S
C106 O117 1.254 . S
C107 O118 1.236 1_455 S
C107 O119 1.266 . S
O108 Tb88 2.480 1_655 S
O108 C90 1.238 1_655 S
O109 Tb88 2.440 . S
O109 C90 1.266 . S
O110 Tb88 2.658 1_545 S
O110 Tb89 2.325 1_455 S
O110 C97 1.263 1_545 S
O111 Tb88 2.409 . S
O111 C97 1.281 . S
O112 Tb88 2.378 . S
O112 C98 1.236 1_455 S
O113 Tb89 2.341 1_565 S
O113 C98 1.266 . S
O114 Tb89 2.474 1_455 S
O114 C99 1.226 1_455 S
O115 Tb89 2.440 . S
O115 C99 1.266 . S
O116 Tb88 2.325 1_655 S
O116 Tb89 2.658 1_565 S
O116 C106 1.281 1_565 S
O117 Tb89 2.409 . S
O117 C106 1.254 . S
O118 Tb89 2.378 . S
O118 C107 1.236 1_655 S
O119 Tb88 2.341 1_545 S
O119 C107 1.266 . S
H120 C92 0.929 1_655 S
H121 C93 0.931 1_655 S
H122 C95 0.930 . S
H123 C96 0.930 . S
H124 C101 0.929 1_455 S
H125 C102 0.931 1_455 S
H126 C104 0.930 . S
H127 C105 0.930 . S
Tb128 C130 2.809 . S
Tb128 O148 2.476 1_545 S
Tb128 O149 2.440 . S
Tb128 O150 2.658 . S
Tb128 O151 2.409 . S
Tb128 O152 2.378 . S
Tb128 O156 2.325 1_545 S
Tb128 O159 2.341 . S
Tb129 C139 2.809 . S
Tb129 O150 2.325 1_565 S
Tb129 O153 2.341 . S
Tb129 O154 2.471 1_565 S
Tb129 O155 2.440 . S
Tb129 O156 2.658 . S
Tb129 O157 2.409 . S
Tb129 O158 2.378 . S
C130 Tb128 2.809 . S
C130 C131 1.514 . S
C130 O148 1.230 1_545 S
C130 O149 1.266 . S
C131 C130 1.514 . S
C131 C132 1.359 . S
C131 C136 1.348 . S
C132 C131 1.359 . S
C132 C133 1.380 . S
C132 H160 0.929 1_545 S
C133 C132 1.380 . S
C133 C134 1.347 . S
C133 H161 0.931 1_545 S
C134 C133 1.347 . S
C134 C135 1.369 . S
C135 C134 1.369 . S
C135 C136 1.408 . S
C135 H162 0.930 . S
C136 C131 1.348 . S
C136 C135 1.408 . S
C136 H163 0.930 . S
C137 O150 1.281 . S
C137 O151 1.254 . S
C138 O152 1.236 1_565 S
C138 O153 1.266 . S
C139 Tb129 2.809 . S
C139 C140 1.514 . S
C139 O154 1.218 1_565 S
C139 O155 1.266 . S
C140 C139 1.514 . S
C140 C141 1.359 . S
C140 C145 1.348 . S
C141 C140 1.359 . S
C141 C142 1.380 . S
C141 H164 0.929 1_565 S
C142 C141 1.380 . S
C142 C143 1.347 . S
C142 H165 0.931 1_565 S
C143 C142 1.347 . S
C143 C144 1.369 . S
C144 C143 1.369 . S
C144 C145 1.408 . S
C144 H166 0.930 . S
C145 C140 1.348 . S
C145 C144 1.408 . S
C145 H167 0.930 . S
C146 O156 1.281 . S
C146 O157 1.254 . S
C147 O158 1.236 1_545 S
C147 O159 1.266 . S
O148 Tb128 2.476 1_565 S
O148 C130 1.230 1_565 S
O149 Tb128 2.440 . S
O149 C130 1.266 . S
O150 Tb128 2.658 . S
O150 Tb129 2.325 1_545 S
O150 C137 1.281 . S
O151 Tb128 2.409 . S
O151 C137 1.254 . S
O152 Tb128 2.378 . S
O152 C138 1.236 1_545 S
O153 Tb129 2.341 . S
O153 C138 1.266 . S
O154 Tb129 2.471 1_545 S
O154 C139 1.218 1_545 S
O155 Tb129 2.440 . S
O155 C139 1.266 . S
O156 Tb128 2.325 1_565 S
O156 Tb129 2.658 . S
O156 C146 1.281 . S
O157 Tb129 2.409 . S
O157 C146 1.254 . S
O158 Tb129 2.378 . S
O158 C147 1.236 1_565 S
O159 Tb128 2.341 . S
O159 C147 1.266 . S
H160 C132 0.929 1_565 S
H161 C133 0.931 1_565 S
H162 C135 0.930 . S
H163 C136 0.930 . S
H164 C141 0.929 1_545 S
H165 C142 0.931 1_545 S
H166 C144 0.930 . S
H167 C145 0.930 . S
Tb168 C170 2.809 . S
Tb168 O188 2.484 . S
Tb168 O189 2.440 . S
Tb168 O190 2.658 . S
Tb168 O191 2.409 . S
Tb168 O192 2.378 . S
Tb168 O196 2.325 . S
Tb168 O199 2.341 . S
Tb169 C179 2.809 . S
Tb169 O190 2.325 . S
Tb169 O193 2.341 . S
Tb169 O194 2.484 . S
Tb169 O195 2.440 . S
Tb169 O196 2.658 . S
Tb169 O197 2.409 . S
Tb169 O198 2.378 . S
C170 Tb168 2.809 . S
C170 C171 1.514 . S
C170 O188 1.248 . S
C170 O189 1.266 . S
C171 C170 1.514 . S
C171 C172 1.359 . S
C171 C176 1.348 . S
C172 C171 1.359 . S
C172 C173 1.380 . S
C172 H200 0.929 . S
C173 C172 1.380 . S
C173 C174 1.347 . S
C173 H201 0.931 . S
C174 C173 1.347 . S
C174 C175 1.369 . S
C175 C174 1.369 . S
C175 C176 1.408 . S
C175 H202 0.930 . S
C176 C171 1.348 . S
C176 C175 1.408 . S
C176 H203 0.930 . S
C177 O190 1.281 . S
C177 O191 1.254 . S
C178 O192 1.236 . S
C178 O193 1.266 . S
C179 Tb169 2.809 . S
C179 C180 1.514 . S
C179 O194 1.248 . S
C179 O195 1.266 . S
C180 C179 1.514 . S
C180 C181 1.359 . S
C180 C185 1.348 . S
C181 C180 1.359 . S
C181 C182 1.380 . S
C181 H204 0.929 . S
C182 C181 1.380 . S
C182 C183 1.347 . S
C182 H205 0.931 . S
C183 C182 1.347 . S
C183 C184 1.369 . S
C184 C183 1.369 . S
C184 C185 1.408 . S
C184 H206 0.930 . S
C185 C180 1.348 . S
C185 C184 1.408 . S
C185 H207 0.930 . S
C186 O196 1.281 . S
C186 O197 1.254 . S
C187 O198 1.236 . S
C187 O199 1.266 . S
O188 Tb168 2.484 . S
O188 C170 1.248 . S
O189 Tb168 2.440 . S
O189 C170 1.266 . S
O190 Tb168 2.658 . S
O190 Tb169 2.325 . S
O190 C177 1.281 . S
O191 Tb168 2.409 . S
O191 C177 1.254 . S
O192 Tb168 2.378 . S
O192 C178 1.236 . S
O193 Tb169 2.341 . S
O193 C178 1.266 . S
O194 Tb169 2.484 . S
O194 C179 1.248 . S
O195 Tb169 2.440 . S
O195 C179 1.266 . S
O196 Tb168 2.325 . S
O196 Tb169 2.658 . S
O196 C186 1.281 . S
O197 Tb169 2.409 . S
O197 C186 1.254 . S
O198 Tb169 2.378 . S
O198 C187 1.236 . S
O199 Tb168 2.341 . S
O199 C187 1.266 . S
H200 C172 0.929 . S
H201 C173 0.931 . S
H202 C175 0.930 . S
H203 C176 0.930 . S
H204 C181 0.929 . S
H205 C182 0.931 . S
H206 C184 0.930 . S
H207 C185 0.930 . S
Tb208 C210 2.809 . S
Tb208 O228 2.484 . S
Tb208 O229 2.440 . S
Tb208 O230 2.658 1_655 S
Tb208 O231 2.409 . S
Tb208 O232 2.378 . S
Tb208 O236 2.325 . S
Tb208 O239 2.341 1_655 S
Tb209 C219 2.809 . S
Tb209 O230 2.325 . S
Tb209 O233 2.341 1_455 S
Tb209 O234 2.484 . S
Tb209 O235 2.440 . S
Tb209 O236 2.658 1_455 S
Tb209 O237 2.409 . S
Tb209 O238 2.378 . S
C210 Tb208 2.809 . S
C210 C211 1.514 . S
C210 O228 1.248 . S
C210 O229 1.266 . S
C211 C210 1.514 . S
C211 C212 1.359 . S
C211 C216 1.348 . S
C212 C211 1.359 . S
C212 C213 1.380 . S
C212 H240 0.929 . S
C213 C212 1.380 . S
C213 C214 1.347 . S
C213 H241 0.931 . S
C214 C213 1.347 . S
C214 C215 1.369 . S
C215 C214 1.369 . S
C215 C216 1.408 . S
C215 H242 0.930 . S
C216 C211 1.348 . S
C216 C215 1.408 . S
C216 H243 0.930 . S
C217 O230 1.269 1_655 S
C217 O231 1.271 . S
C218 O232 1.236 . S
C218 O233 1.266 . S
C219 Tb209 2.809 . S
C219 C220 1.514 . S
C219 O234 1.248 . S
C219 O235 1.266 . S
C220 C219 1.514 . S
C220 C221 1.359 . S
C220 C225 1.348 . S
C221 C220 1.359 . S
C221 C222 1.380 . S
C221 H244 0.929 . S
C222 C221 1.380 . S
C222 C223 1.347 . S
C222 H245 0.931 . S
C223 C222 1.347 . S
C223 C224 1.369 . S
C224 C223 1.369 . S
C224 C225 1.408 . S
C224 H246 0.930 . S
C225 C220 1.348 . S
C225 C224 1.408 . S
C225 H247 0.930 . S
C226 O236 1.265 1_455 S
C226 O237 1.277 . S
C227 O238 1.236 . S
C227 O239 1.266 . S
O228 Tb208 2.484 . S
O228 C210 1.248 . S
O229 Tb208 2.440 . S
O229 C210 1.266 . S
O230 Tb208 2.658 1_455 S
O230 Tb209 2.325 . S
O230 C217 1.269 1_455 S
O231 Tb208 2.409 . S
O231 C217 1.271 . S
O232 Tb208 2.378 . S
O232 C218 1.236 . S
O233 Tb209 2.341 1_655 S
O233 C218 1.266 . S
O234 Tb209 2.484 . S
O234 C219 1.248 . S
O235 Tb209 2.440 . S
O235 C219 1.266 . S
O236 Tb208 2.325 . S
O236 Tb209 2.658 1_655 S
O236 C226 1.265 1_655 S
O237 Tb209 2.409 . S
O237 C226 1.277 . S
O238 Tb209 2.378 . S
O238 C227 1.236 . S
O239 Tb208 2.341 1_455 S
O239 C227 1.266 . S
H240 C212 0.929 . S
H241 C213 0.931 . S
H242 C215 0.930 . S
H243 C216 0.930 . S
H244 C221 0.929 . S
H245 C222 0.931 . S
H246 C224 0.930 . S
H247 C225 0.930 . S
H248 C266 0.951 . S
H249 C268 0.951 . S
H250 C270 0.950 . S
H251 C271 0.950 . S
H252 C273 0.950 . S
H253 C276 0.950 1_545 S
H254 C277 0.950 . S
H255 C279 0.950 . S
H256 C280 0.950 . S
H257 C281 0.951 . S
H258 C283 0.951 . S
H259 C285 0.950 . S
H260 C286 0.950 . S
H261 C288 0.950 . S
H262 C291 0.950 1_565 S
H263 C292 0.950 . S
H264 C294 0.950 . S
H265 C295 0.950 . S
C266 H248 0.951 . S
C266 C267 1.364 1_565 S
C266 C268 1.388 . S
C267 C266 1.364 1_545 S
C267 C271 1.387 . S
C268 H249 0.951 . S
C268 C266 1.388 . S
C268 C269 1.348 1_565 S
C269 C268 1.348 1_545 S
C269 C270 1.431 . S
C269 C272 1.499 . S
C270 H250 0.950 . S
C270 C269 1.431 . S
C270 C271 1.374 . S
C271 H251 0.950 . S
C271 C267 1.387 . S
C271 C270 1.374 . S
C272 C269 1.499 . S
C272 C273 1.373 . S
C272 C274 1.389 1_545 S
C273 H252 0.950 . S
C273 C272 1.373 . S
C273 C289 1.377 . S
C274 C272 1.389 1_565 S
C274 C275 1.524 . S
C274 C288 1.377 . S
C275 C274 1.524 . S
C275 C276 1.397 . S
C275 C280 1.363 . S
C276 H253 0.950 1_565 S
C276 C275 1.397 . S
C276 C277 1.334 . S
C277 H254 0.950 . S
C277 C276 1.334 . S
C277 C278 1.287 . S
C278 C277 1.287 . S
C278 C279 1.524 . S
C278 H297 0.913 . S
C279 H255 0.950 . S
C279 C278 1.524 . S
C279 C280 1.415 . S
C280 H256 0.950 . S
C280 C275 1.363 . S
C280 C279 1.415 . S
C281 H257 0.951 . S
C281 C282 1.388 . S
C281 C283 1.388 . S
C282 C281 1.388 . S
C282 C286 1.362 1_545 S
C283 H258 0.951 . S
C283 C281 1.388 . S
C283 C284 1.373 . S
C284 C283 1.373 . S
C284 C285 1.407 1_545 S
C284 C287 1.498 1_545 S
C285 H259 0.950 . S
C285 C284 1.407 1_565 S
C285 C286 1.374 . S
C286 H260 0.950 . S
C286 C282 1.362 1_565 S
C286 C285 1.374 . S
C287 C284 1.498 1_565 S
C287 C288 1.384 . S
C287 C289 1.378 1_565 S
C288 H261 0.950 . S
C288 C274 1.377 . S
C288 C287 1.384 . S
C289 C273 1.377 . S
C289 C287 1.378 1_545 S
C289 C290 1.524 . S
C290 C289 1.524 . S
C290 C291 1.397 . S
C290 C295 1.363 . S
C291 H262 0.950 1_545 S
C291 C290 1.397 . S
C291 C292 1.334 . S
C292 H263 0.950 . S
C292 C291 1.334 . S
C292 C293 1.287 . S
C293 C292 1.287 . S
C293 C294 1.524 . S
C293 H296 0.999 . S
C294 H264 0.950 . S
C294 C293 1.524 . S
C294 C295 1.415 . S
C295 H265 0.950 . S
C295 C290 1.363 . S
C295 C294 1.415 . S
H296 C293 0.999 . S
H297 C278 0.913 . S
H298 C316 0.951 . S
H299 C318 0.951 . S
H300 C320 0.950 . S
H301 C321 0.950 . S
H302 C323 0.950 . S
H303 C326 0.950 . S
H304 C327 0.950 . S
H305 C329 0.950 . S
H306 C330 0.950 . S
H307 C331 0.951 . S
H308 C333 0.951 . S
H309 C335 0.950 . S
H310 C336 0.950 . S
H311 C338 0.950 . S
H312 C341 0.950 . S
H313 C342 0.950 . S
H314 C344 0.950 . S
H315 C345 0.950 . S
C316 H298 0.951 . S
C316 C317 1.366 . S
C316 C318 1.388 . S
C317 C316 1.366 . S
C317 C321 1.385 . S
C318 H299 0.951 . S
C318 C316 1.388 . S
C318 C319 1.366 . S
C319 C318 1.366 . S
C319 C320 1.414 . S
C319 C322 1.499 . S
C320 H300 0.950 . S
C320 C319 1.414 . S
C320 C321 1.374 . S
C321 H301 0.950 . S
C321 C317 1.385 . S
C321 C320 1.374 . S
C322 C319 1.499 . S
C322 C323 1.373 . S
C322 C324 1.389 . S
C323 H302 0.950 . S
C323 C322 1.373 . S
C323 C339 1.377 . S
C324 C322 1.389 . S
C324 C325 1.524 . S
C324 C338 1.377 . S
C325 C324 1.524 . S
C325 C326 1.397 . S
C325 C330 1.363 . S
C326 H303 0.950 . S
C326 C325 1.397 . S
C326 C327 1.334 . S
C327 H304 0.950 . S
C327 C326 1.334 . S
C327 C328 1.287 . S
C328 C327 1.287 . S
C328 C329 1.524 . S
C328 H347 0.913 . S
C329 H305 0.950 . S
C329 C328 1.524 . S
C329 C330 1.415 . S
C330 H306 0.950 . S
C330 C325 1.363 . S
C330 C329 1.415 . S
C331 H307 0.951 . S
C331 C332 1.366 . S
C331 C333 1.388 . S
C332 C331 1.366 . S
C332 C336 1.385 . S
C333 H308 0.951 . S
C333 C331 1.388 . S
C333 C334 1.366 . S
C334 C333 1.366 . S
C334 C335 1.414 . S
C334 C337 1.499 . S
C335 H309 0.950 . S
C335 C334 1.414 . S
C335 C336 1.374 . S
C336 H310 0.950 . S
C336 C332 1.385 . S
C336 C335 1.374 . S
C337 C334 1.499 . S
C337 C338 1.373 . S
C337 C339 1.389 . S
C338 H311 0.950 . S
C338 C324 1.377 . S
C338 C337 1.373 . S
C339 C323 1.377 . S
C339 C337 1.389 . S
C339 C340 1.524 . S
C340 C339 1.524 . S
C340 C341 1.397 . S
C340 C345 1.363 . S
C341 H312 0.950 . S
C341 C340 1.397 . S
C341 C342 1.334 . S
C342 H313 0.950 . S
C342 C341 1.334 . S
C342 C343 1.287 . S
C343 C342 1.287 . S
C343 C344 1.524 . S
C343 H346 0.999 . S
C344 H314 0.950 . S
C344 C343 1.524 . S
C344 C345 1.415 . S
C345 H315 0.950 . S
C345 C340 1.363 . S
C345 C344 1.415 . S
H346 C343 0.999 . S
H347 C328 0.913 . S
H348 C366 0.951 . S
H349 C368 0.951 . S
H350 C370 0.950 . S
H351 C371 0.950 . S
H352 C373 0.950 . S
H353 C376 0.950 . S
H354 C377 0.950 . S
H355 C379 0.950 . S
H356 C380 0.950 . S
H357 C381 0.951 . S
H358 C383 0.951 . S
H359 C385 0.950 . S
H360 C386 0.950 . S
H361 C388 0.950 . S
H362 C391 0.950 . S
H363 C392 0.950 . S
H364 C394 0.950 . S
H365 C395 0.950 . S
C366 H348 0.951 . S
C366 C367 1.366 . S
C366 C368 1.388 . S
C367 C366 1.366 . S
C367 C371 1.385 . S
C368 H349 0.951 . S
C368 C366 1.388 . S
C368 C369 1.366 . S
C369 C368 1.366 . S
C369 C370 1.414 . S
C369 C372 1.499 . S
C370 H350 0.950 . S
C370 C369 1.414 . S
C370 C371 1.374 . S
C371 H351 0.950 . S
C371 C367 1.385 . S
C371 C370 1.374 . S
C372 C369 1.499 . S
C372 C373 1.373 . S
C372 C374 1.389 . S
C373 H352 0.950 . S
C373 C372 1.373 . S
C373 C389 1.377 . S
C374 C372 1.389 . S
C374 C375 1.524 . S
C374 C388 1.377 . S
C375 C374 1.524 . S
C375 C376 1.397 . S
C375 C380 1.363 . S
C376 H353 0.950 . S
C376 C375 1.397 . S
C376 C377 1.334 . S
C377 H354 0.950 . S
C377 C376 1.334 . S
C377 C378 1.287 . S
C378 C377 1.287 . S
C378 C379 1.524 . S
C378 H397 0.913 . S
C379 H355 0.950 . S
C379 C378 1.524 . S
C379 C380 1.415 . S
C380 H356 0.950 . S
C380 C375 1.363 . S
C380 C379 1.415 . S
C381 H357 0.951 . S
C381 C382 1.366 . S
C381 C383 1.388 . S
C382 C381 1.366 . S
C382 C386 1.385 . S
C383 H358 0.951 . S
C383 C381 1.388 . S
C383 C384 1.366 . S
C384 C383 1.366 . S
C384 C385 1.414 . S
C384 C387 1.499 . S
C385 H359 0.950 . S
C385 C384 1.414 . S
C385 C386 1.374 . S
C386 H360 0.950 . S
C386 C382 1.385 . S
C386 C385 1.374 . S
C387 C384 1.499 . S
C387 C388 1.373 . S
C387 C389 1.389 . S
C388 H361 0.950 . S
C388 C374 1.377 . S
C388 C387 1.373 . S
C389 C373 1.377 . S
C389 C387 1.389 . S
C389 C390 1.524 . S
C390 C389 1.524 . S
C390 C391 1.397 . S
C390 C395 1.363 . S
C391 H362 0.950 . S
C391 C390 1.397 . S
C391 C392 1.334 . S
C392 H363 0.950 . S
C392 C391 1.334 . S
C392 C393 1.287 . S
C393 C392 1.287 . S
C393 C394 1.524 . S
C393 H396 0.999 . S
C394 H364 0.950 . S
C394 C393 1.524 . S
C394 C395 1.415 . S
C395 H365 0.950 . S
C395 C390 1.363 . S
C395 C394 1.415 . S
H396 C393 0.999 . S
H397 C378 0.913 . S
H398 C416 0.951 . S
H399 C418 0.951 . S
H400 C420 0.950 . S
H401 C421 0.950 . S
H402 C423 0.950 . S
H403 C426 0.950 . S
H404 C427 0.950 . S
H405 C429 0.950 . S
H406 C430 0.950 . S
H407 C431 0.951 . S
H408 C433 0.951 . S
H409 C435 0.950 . S
H410 C436 0.950 . S
H411 C438 0.950 . S
H412 C441 0.950 . S
H413 C442 0.950 . S
H414 C444 0.950 . S
H415 C445 0.950 . S
C416 H398 0.951 . S
C416 C417 1.366 . S
C416 C418 1.388 . S
C417 C416 1.366 . S
C417 C421 1.384 1_455 S
C418 H399 0.951 . S
C418 C416 1.388 . S
C418 C419 1.366 . S
C419 C418 1.366 . S
C419 C420 1.414 1_455 S
C419 C422 1.499 . S
C420 H400 0.950 . S
C420 C419 1.414 1_655 S
C420 C421 1.374 . S
C421 H401 0.950 . S
C421 C417 1.384 1_655 S
C421 C420 1.374 . S
C422 C419 1.499 . S
C422 C423 1.373 1_455 S
C422 C424 1.389 . S
C423 H402 0.950 . S
C423 C422 1.373 1_655 S
C423 C439 1.377 . S
C424 C422 1.389 . S
C424 C425 1.524 . S
C424 C438 1.377 . S
C425 C424 1.524 . S
C425 C426 1.397 . S
C425 C430 1.363 . S
C426 H403 0.950 . S
C426 C425 1.397 . S
C426 C427 1.334 . S
C427 H404 0.950 . S
C427 C426 1.334 . S
C427 C428 1.287 . S
C428 C427 1.287 . S
C428 C429 1.524 . S
C428 H447 0.913 . S
C429 H405 0.950 . S
C429 C428 1.524 . S
C429 C430 1.415 . S
C430 H406 0.950 . S
C430 C425 1.363 . S
C430 C429 1.415 . S
C431 H407 0.951 . S
C431 C432 1.355 1_655 S
C431 C433 1.388 . S
C432 C431 1.355 1_455 S
C432 C436 1.396 . S
C433 H408 0.951 . S
C433 C431 1.388 . S
C433 C434 1.370 . S
C434 C433 1.370 . S
C434 C435 1.409 1_655 S
C434 C437 1.499 . S
C435 H409 0.950 . S
C435 C434 1.409 1_455 S
C435 C436 1.374 . S
C436 H410 0.950 . S
C436 C432 1.396 . S
C436 C435 1.374 . S
C437 C434 1.499 . S
C437 C438 1.358 1_655 S
C437 C439 1.404 . S
C438 H411 0.950 . S
C438 C424 1.377 . S
C438 C437 1.358 1_455 S
C439 C423 1.377 . S
C439 C437 1.404 . S
C439 C440 1.524 . S
C440 C439 1.524 . S
C440 C441 1.397 . S
C440 C445 1.363 . S
C441 H412 0.950 . S
C441 C440 1.397 . S
C441 C442 1.334 . S
C442 H413 0.950 . S
C442 C441 1.334 . S
C442 C443 1.287 . S
C443 C442 1.287 . S
C443 C444 1.524 . S
C443 H446 0.999 . S
C444 H414 0.950 . S
C444 C443 1.524 . S
C444 C445 1.415 . S
C445 H415 0.950 . S
C445 C440 1.363 . S
C445 C444 1.415 . S
H446 C443 0.999 . S
H447 C428 0.913 . S
H448 C466 0.951 . S
H449 C468 0.951 . S
H450 C470 0.950 . S
H451 C471 0.950 . S
H452 C473 0.950 . S
H453 C476 0.950 . S
H454 C477 0.950 . S
H455 C479 0.950 . S
H456 C480 0.950 . S
H457 C481 0.951 . S
H458 C483 0.951 . S
H459 C485 0.950 1_554 S
H460 C486 0.950 . S
H461 C488 0.950 . S
H462 C491 0.950 . S
H463 C492 0.950 . S
H464 C494 0.950 . S
H465 C495 0.950 . S
C466 H448 0.951 . S
C466 C467 1.365 . S
C466 C468 1.388 . S
C467 C466 1.365 . S
C467 C471 1.385 1_545 S
C468 H449 0.951 . S
C468 C466 1.388 . S
C468 C469 1.377 . S
C469 C468 1.377 . S
C469 C470 1.403 1_545 S
C469 C472 1.499 . S
C470 H450 0.950 . S
C470 C469 1.403 1_565 S
C470 C471 1.374 . S
C471 H451 0.950 . S
C471 C467 1.385 1_565 S
C471 C470 1.374 . S
C472 C469 1.499 . S
C472 C473 1.330 1_545 S
C472 C474 1.430 . S
C473 H452 0.950 . S
C473 C472 1.330 1_565 S
C473 C489 1.377 . S
C474 C472 1.430 . S
C474 C475 1.524 . S
C474 C488 1.377 . S
C475 C474 1.524 . S
C475 C476 1.397 . S
C475 C480 1.363 . S
C476 H453 0.950 . S
C476 C475 1.397 . S
C476 C477 1.334 . S
C477 H454 0.950 . S
C477 C476 1.334 . S
C477 C478 1.287 . S
C478 C477 1.287 . S
C478 C479 1.524 . S
C478 H497 0.913 . S
C479 H455 0.950 . S
C479 C478 1.524 . S
C479 C480 1.415 . S
C480 H456 0.950 . S
C480 C475 1.363 . S
C480 C479 1.415 . S
C481 H457 0.951 . S
C481 C482 1.368 . S
C481 C483 1.388 . S
C482 C481 1.368 . S
C482 C486 1.383 1_565 S
C483 H458 0.951 . S
C483 C481 1.388 . S
C483 C484 1.366 . S
C484 C483 1.366 . S
C484 C485 1.414 1_565 S
C484 C487 1.499 1_556 S
C485 H459 0.950 1_556 S
C485 C484 1.414 1_545 S
C485 C486 1.374 . S
C486 H460 0.950 . S
C486 C482 1.383 1_545 S
C486 C485 1.374 . S
C487 C484 1.499 1_554 S
C487 C488 1.373 1_565 S
C487 C489 1.389 . S
C488 H461 0.950 . S
C488 C474 1.377 . S
C488 C487 1.373 1_545 S
C489 C473 1.377 . S
C489 C487 1.389 . S
C489 C490 1.524 1_554 S
C490 C489 1.524 1_556 S
C490 C491 1.397 . S
C490 C495 1.363 . S
C491 H462 0.950 . S
C491 C490 1.397 . S
C491 C492 1.334 . S
C492 H463 0.950 . S
C492 C491 1.334 . S
C492 C493 1.287 . S
C493 C492 1.287 . S
C493 C494 1.524 . S
C493 H496 0.999 . S
C494 H464 0.950 . S
C494 C493 1.524 . S
C494 C495 1.415 . S
C495 H465 0.950 . S
C495 C490 1.363 . S
C495 C494 1.415 . S
H496 C493 0.999 . S
H497 C478 0.913 . S
H498 C516 0.951 . S
H499 C518 0.951 . S
H500 C520 0.950 . S
H501 C521 0.950 . S
H502 C523 0.950 . S
H503 C526 0.950 . S
H504 C527 0.950 . S
H505 C529 0.950 . S
H506 C530 0.950 . S
H507 C531 0.951 . S
H508 C533 0.951 . S
H509 C535 0.950 . S
H510 C536 0.950 . S
H511 C538 0.950 . S
H512 C541 0.950 . S
H513 C542 0.950 . S
H514 C544 0.950 1_556 S
H515 C545 0.950 . S
C516 H498 0.951 . S
C516 C517 1.366 . S
C516 C518 1.388 . S
C517 C516 1.366 . S
C517 C521 1.385 . S
C518 H499 0.951 . S
C518 C516 1.388 . S
C518 C519 1.366 . S
C519 C518 1.366 . S
C519 C520 1.414 . S
C519 C522 1.499 . S
C520 H500 0.950 . S
C520 C519 1.414 . S
C520 C521 1.374 . S
C521 H501 0.950 . S
C521 C517 1.385 . S
C521 C520 1.374 . S
C522 C519 1.499 . S
C522 C523 1.373 . S
C522 C524 1.389 . S
C523 H502 0.950 . S
C523 C522 1.373 . S
C523 C539 1.377 . S
C524 C522 1.389 . S
C524 C525 1.524 . S
C524 C538 1.377 . S
C525 C524 1.524 . S
C525 C526 1.397 . S
C525 C530 1.363 . S
C526 H503 0.950 . S
C526 C525 1.397 . S
C526 C527 1.334 . S
C527 H504 0.950 . S
C527 C526 1.334 . S
C527 C528 1.287 . S
C528 C527 1.287 . S
C528 C529 1.524 . S
C528 H547 0.913 . S
C529 H505 0.950 . S
C529 C528 1.524 . S
C529 C530 1.415 . S
C530 H506 0.950 . S
C530 C525 1.363 . S
C530 C529 1.415 . S
C531 H507 0.951 . S
C531 C532 1.366 . S
C531 C533 1.388 . S
C532 C531 1.366 . S
C532 C536 1.385 . S
C533 H508 0.951 . S
C533 C531 1.388 . S
C533 C534 1.366 . S
C534 C533 1.366 . S
C534 C535 1.414 . S
C534 C537 1.499 1_556 S
C535 H509 0.950 . S
C535 C534 1.414 . S
C535 C536 1.374 . S
C536 H510 0.950 . S
C536 C532 1.385 . S
C536 C535 1.374 . S
C537 C534 1.499 1_554 S
C537 C538 1.373 . S
C537 C539 1.389 . S
C538 H511 0.950 . S
C538 C524 1.377 . S
C538 C537 1.373 . S
C539 C523 1.377 . S
C539 C537 1.389 . S
C539 C540 1.524 . S
C540 C539 1.524 . S
C540 C541 1.397 . S
C540 C545 1.363 . S
C541 H512 0.950 . S
C541 C540 1.397 . S
C541 C542 1.334 . S
C542 H513 0.950 . S
C542 C541 1.334 . S
C542 C543 1.287 . S
C543 C542 1.287 . S
C543 C544 1.524 . S
C543 H546 0.999 . S
C544 H514 0.950 1_554 S
C544 C543 1.524 . S
C544 C545 1.415 . S
C545 H515 0.950 . S
C545 C540 1.363 . S
C545 C544 1.415 . S
H546 C543 0.999 . S
H547 C528 0.913 . S
H548 C566 0.951 . S
H549 C568 0.951 . S
H550 C570 0.950 . S
H551 C571 0.950 . S
H552 C573 0.950 . S
H553 C576 0.950 . S
H554 C577 0.950 . S
H555 C579 0.950 . S
H556 C580 0.950 . S
H557 C581 0.951 . S
H558 C583 0.951 . S
H559 C585 0.950 1_554 S
H560 C586 0.950 . S
H561 C588 0.950 . S
H562 C591 0.950 . S
H563 C592 0.950 . S
H564 C594 0.950 . S
H565 C595 0.950 . S
C566 H548 0.951 . S
C566 C567 1.366 . S
C566 C568 1.388 . S
C567 C566 1.366 . S
C567 C571 1.385 . S
C568 H549 0.951 . S
C568 C566 1.388 . S
C568 C569 1.366 . S
C569 C568 1.366 . S
C569 C570 1.414 . S
C569 C572 1.499 . S
C570 H550 0.950 . S
C570 C569 1.414 . S
C570 C571 1.374 . S
C571 H551 0.950 . S
C571 C567 1.385 . S
C571 C570 1.374 . S
C572 C569 1.499 . S
C572 C573 1.373 . S
C572 C574 1.389 . S
C573 H552 0.950 . S
C573 C572 1.373 . S
C573 C589 1.377 1_554 S
C574 C572 1.389 . S
C574 C575 1.524 . S
C574 C588 1.377 . S
C575 C574 1.524 . S
C575 C576 1.397 . S
C575 C580 1.363 . S
C576 H553 0.950 . S
C576 C575 1.397 . S
C576 C577 1.334 . S
C577 H554 0.950 . S
C577 C576 1.334 . S
C577 C578 1.287 . S
C578 C577 1.287 . S
C578 C579 1.524 . S
C578 H597 0.913 . S
C579 H555 0.950 . S
C579 C578 1.524 . S
C579 C580 1.415 . S
C580 H556 0.950 . S
C580 C575 1.363 . S
C580 C579 1.415 . S
C581 H557 0.951 . S
C581 C582 1.366 . S
C581 C583 1.388 . S
C582 C581 1.366 . S
C582 C586 1.385 . S
C583 H558 0.951 . S
C583 C581 1.388 . S
C583 C584 1.366 . S
C584 C583 1.366 . S
C584 C585 1.414 . S
C584 C587 1.499 1_556 S
C585 H559 0.950 1_556 S
C585 C584 1.414 . S
C585 C586 1.374 . S
C586 H560 0.950 . S
C586 C582 1.385 . S
C586 C585 1.374 . S
C587 C584 1.499 1_554 S
C587 C588 1.373 . S
C587 C589 1.389 1_554 S
C588 H561 0.950 . S
C588 C574 1.377 . S
C588 C587 1.373 . S
C589 C573 1.377 1_556 S
C589 C587 1.389 1_556 S
C589 C590 1.524 . S
C590 C589 1.524 . S
C590 C591 1.397 . S
C590 C595 1.363 . S
C591 H562 0.950 . S
C591 C590 1.397 . S
C591 C592 1.334 . S
C592 H563 0.950 . S
C592 C591 1.334 . S
C592 C593 1.287 . S
C593 C592 1.287 . S
C593 C594 1.524 . S
C593 H596 0.999 . S
C594 H564 0.950 . S
C594 C593 1.524 . S
C594 C595 1.415 . S
C595 H565 0.950 . S
C595 C590 1.363 . S
C595 C594 1.415 . S
H596 C593 0.999 . S
H597 C578 0.913 . S
H598 C616 0.951 . S
H599 C618 0.951 . S
H600 C620 0.950 . S
H601 C621 0.950 . S
H602 C623 0.950 . S
H603 C626 0.950 . S
H604 C627 0.950 . S
H605 C629 0.950 . S
H606 C630 0.950 . S
H607 C631 0.951 . S
H608 C633 0.951 . S
H609 C635 0.950 . S
H610 C636 0.950 . S
H611 C638 0.950 . S
H612 C641 0.950 . S
H613 C642 0.950 . S
H614 C644 0.950 . S
H615 C645 0.950 1_554 S
C616 H598 0.951 . S
C616 C617 1.368 . S
C616 C618 1.388 . S
C617 C616 1.368 . S
C617 C621 1.382 1_655 S
C618 H599 0.951 . S
C618 C616 1.388 . S
C618 C619 1.390 . S
C619 C618 1.390 . S
C619 C620 1.389 1_655 S
C619 C622 1.498 . S
C620 H600 0.950 . S
C620 C619 1.389 1_455 S
C620 C621 1.374 . S
C621 H601 0.950 . S
C621 C617 1.382 1_455 S
C621 C620 1.374 . S
C622 C619 1.498 . S
C622 C623 1.375 1_655 S
C622 C624 1.388 . S
C623 H602 0.950 . S
C623 C622 1.375 1_455 S
C623 C639 1.377 . S
C624 C622 1.388 . S
C624 C625 1.524 . S
C624 C638 1.377 . S
C625 C624 1.524 . S
C625 C626 1.397 . S
C625 C630 1.363 . S
C626 H603 0.950 . S
C626 C625 1.397 . S
C626 C627 1.334 . S
C627 H604 0.950 . S
C627 C626 1.334 . S
C627 C628 1.287 . S
C628 C627 1.287 . S
C628 C629 1.524 . S
C628 H647 0.913 . S
C629 H605 0.950 . S
C629 C628 1.524 . S
C629 C630 1.415 . S
C630 H606 0.950 . S
C630 C625 1.363 . S
C630 C629 1.415 . S
C631 H607 0.951 . S
C631 C632 1.328 1_455 S
C631 C633 1.388 . S
C632 C631 1.328 1_655 S
C632 C636 1.423 . S
C633 H608 0.951 . S
C633 C631 1.388 . S
C633 C634 1.351 1_455 S
C634 C633 1.351 1_655 S
C634 C635 1.429 . S
C634 C637 1.498 . S
C635 H609 0.950 . S
C635 C634 1.429 . S
C635 C636 1.374 . S
C636 H610 0.950 . S
C636 C632 1.423 . S
C636 C635 1.374 . S
C637 C634 1.498 . S
C637 C638 1.410 1_556 S
C637 C639 1.353 1_656 S
C638 H611 0.950 . S
C638 C624 1.377 . S
C638 C637 1.410 1_554 S
C639 C623 1.377 . S
C639 C637 1.353 1_454 S
C639 C640 1.524 1_554 S
C640 C639 1.524 1_556 S
C640 C641 1.397 . S
C640 C645 1.363 . S
C641 H612 0.950 . S
C641 C640 1.397 . S
C641 C642 1.334 . S
C642 H613 0.950 . S
C642 C641 1.334 . S
C642 C643 1.287 . S
C643 C642 1.287 . S
C643 C644 1.524 . S
C643 H646 0.999 . S
C644 H614 0.950 . S
C644 C643 1.524 . S
C644 C645 1.415 . S
C645 H615 0.950 1_556 S
C645 C640 1.363 . S
C645 C644 1.415 . S
H646 C643 0.999 . S
H647 C628 0.913 . S
H648 C666 0.951 . S
H649 C668 0.951 . S
H650 C670 0.963 . S
H651 C671 0.950 . S
H652 C673 0.950 . S
H653 C676 0.950 . S
H654 C677 0.950 . S
H655 C679 0.950 . S
H656 C680 0.950 . S
H657 C681 0.951 . S
H658 C683 0.951 . S
H659 C685 0.950 . S
H660 C686 0.950 . S
H661 C688 0.950 . S
H662 C691 0.950 . S
H663 C692 0.950 . S
H664 C694 0.950 . S
H665 C695 0.950 . S
C666 H648 0.951 . S
C666 C667 1.366 1_655 S
C666 C668 1.388 . S
C667 C666 1.366 1_455 S
C667 C671 1.385 . S
C668 H649 0.951 . S
C668 C666 1.388 . S
C668 C669 1.366 . S
C669 C668 1.366 . S
C669 C670 1.395 1_655 S
C669 C672 1.499 . S
C670 H650 0.963 . S
C670 C669 1.395 1_455 S
C670 C671 1.384 . S
C671 H651 0.950 . S
C671 C667 1.385 . S
C671 C670 1.384 . S
C672 C669 1.499 . S
C672 C673 1.373 1_655 S
C672 C674 1.389 . S
C673 H652 0.950 . S
C673 C672 1.373 1_455 S
C673 C689 1.377 . S
C674 C672 1.389 . S
C674 C675 1.524 . S
C674 C688 1.377 . S
C675 C674 1.524 . S
C675 C676 1.397 . S
C675 C680 1.363 . S
C676 H653 0.950 . S
C676 C675 1.397 . S
C676 C677 1.334 . S
C677 H654 0.950 . S
C677 C676 1.334 . S
C677 C678 1.287 . S
C678 C677 1.287 . S
C678 C679 1.524 . S
C678 H697 0.913 . S
C679 H655 0.950 . S
C679 C678 1.524 . S
C679 C680 1.415 . S
C680 H656 0.950 . S
C680 C675 1.363 . S
C680 C679 1.415 . S
C681 H657 0.951 . S
C681 C682 1.366 . S
C681 C683 1.388 . S
C682 C681 1.366 . S
C682 C686 1.385 . S
C683 H658 0.951 . S
C683 C681 1.388 . S
C683 C684 1.366 . S
C684 C683 1.366 . S
C684 C685 1.414 . S
C684 C687 1.499 . S
C685 H659 0.950 . S
C685 C684 1.414 . S
C685 C686 1.374 . S
C686 H660 0.950 . S
C686 C682 1.385 . S
C686 C685 1.374 . S
C687 C684 1.499 . S
C687 C688 1.373 . S
C687 C689 1.389 1_655 S
C688 H661 0.950 . S
C688 C674 1.377 . S
C688 C687 1.373 . S
C689 C673 1.377 . S
C689 C687 1.389 1_455 S
C689 C690 1.524 . S
C690 C689 1.524 . S
C690 C691 1.397 . S
C690 C695 1.363 . S
C691 H662 0.950 . S
C691 C690 1.397 . S
C691 C692 1.334 . S
C692 H663 0.950 . S
C692 C691 1.334 . S
C692 C693 1.287 . S
C693 C692 1.287 . S
C693 C694 1.524 . S
C693 H696 0.999 . S
C694 H664 0.950 . S
C694 C693 1.524 . S
C694 C695 1.415 . S
C695 H665 0.950 . S
C695 C690 1.363 . S
C695 C694 1.415 . S
H696 C693 0.999 . S
H697 C678 0.913 . S
H698 C716 0.951 . S
H699 C718 0.951 . S
H700 C720 0.950 . S
H701 C721 0.950 . S
H702 C723 0.950 . S
H703 C726 0.950 . S
H704 C727 0.950 1_556 S
H705 C729 0.950 1_556 S
H706 C730 0.950 . S
H707 C731 0.951 . S
H708 C733 0.951 . S
H709 C735 0.950 1_545 S
H710 C736 0.950 1_545 S
H711 C738 0.950 . S
H712 C741 0.950 1_545 S
H713 C742 0.950 1_545 S
H714 C744 0.950 . S
H715 C745 0.950 . S
C716 H698 0.951 . S
C716 C717 1.366 . S
C716 C718 1.388 . S
C717 C716 1.366 . S
C717 C721 1.385 1_545 S
C718 H699 0.951 . S
C718 C716 1.388 . S
C718 C719 1.366 1_545 S
C719 C718 1.366 1_565 S
C719 C720 1.414 . S
C719 C722 1.499 . S
C720 H700 0.950 . S
C720 C719 1.414 . S
C720 C721 1.374 . S
C721 H701 0.950 . S
C721 C717 1.385 1_565 S
C721 C720 1.374 . S
C722 C719 1.499 . S
C722 C723 1.373 . S
C722 C724 1.389 . S
C723 H702 0.950 . S
C723 C722 1.373 . S
C723 C739 1.377 . S
C724 C722 1.389 . S
C724 C725 1.524 . S
C724 C738 1.377 . S
C725 C724 1.524 . S
C725 C726 1.397 . S
C725 C730 1.363 1_565 S
C726 H703 0.950 . S
C726 C725 1.397 . S
C726 C727 1.334 . S
C727 H704 0.950 1_554 S
C727 C726 1.334 . S
C727 C728 1.287 1_554 S
C728 C727 1.287 1_556 S
C728 C729 1.524 1_566 S
C728 H747 0.913 . S
C729 H705 0.950 1_554 S
C729 C728 1.524 1_544 S
C729 C730 1.415 . S
C730 H706 0.950 . S
C730 C725 1.363 1_545 S
C730 C729 1.415 . S
C731 H707 0.951 . S
C731 C732 1.366 . S
C731 C733 1.388 . S
C732 C731 1.366 . S
C732 C736 1.385 . S
C733 H708 0.951 . S
C733 C731 1.388 . S
C733 C734 1.366 . S
C734 C733 1.366 . S
C734 C735 1.414 . S
C734 C737 1.499 . S
C735 H709 0.950 1_565 S
C735 C734 1.414 . S
C735 C736 1.374 . S
C736 H710 0.950 1_565 S
C736 C732 1.385 . S
C736 C735 1.374 . S
C737 C734 1.499 . S
C737 C738 1.373 . S
C737 C739 1.389 . S
C738 H711 0.950 . S
C738 C724 1.377 . S
C738 C737 1.373 . S
C739 C723 1.377 . S
C739 C737 1.389 . S
C739 C740 1.524 . S
C740 C739 1.524 . S
C740 C741 1.397 . S
C740 C745 1.363 . S
C741 H712 0.950 1_565 S
C741 C740 1.397 . S
C741 C742 1.334 . S
C742 H713 0.950 1_565 S
C742 C741 1.334 . S
C742 C743 1.287 . S
C743 C742 1.287 . S
C743 C744 1.524 . S
C743 H746 0.999 . S
C744 H714 0.950 . S
C744 C743 1.524 . S
C744 C745 1.415 . S
C745 H715 0.950 . S
C745 C740 1.363 . S
C745 C744 1.415 . S
H746 C743 0.999 . S
H747 C728 0.913 . S
H748 C766 0.951 . S
H749 C768 0.951 . S
H750 C770 0.950 . S
H751 C771 0.950 . S
H752 C773 0.950 . S
H753 C776 0.950 . S
H754 C777 0.950 . S
H755 C779 0.950 . S
H756 C780 0.950 . S
H757 C781 0.951 . S
H758 C783 0.951 . S
H759 C785 0.950 . S
H760 C786 0.950 . S
H761 C788 0.950 . S
H762 C791 0.950 . S
H763 C792 0.950 . S
H764 C794 0.950 . S
H765 C795 0.950 . S
C766 H748 0.951 . S
C766 C767 1.366 . S
C766 C768 1.388 . S
C767 C766 1.366 . S
C767 C771 1.385 . S
C768 H749 0.951 . S
C768 C766 1.388 . S
C768 C769 1.366 . S
C769 C768 1.366 . S
C769 C770 1.414 . S
C769 C772 1.499 . S
C770 H750 0.950 . S
C770 C769 1.414 . S
C770 C771 1.374 . S
C771 H751 0.950 . S
C771 C767 1.385 . S
C771 C770 1.374 . S
C772 C769 1.499 . S
C772 C773 1.373 . S
C772 C774 1.389 . S
C773 H752 0.950 . S
C773 C772 1.373 . S
C773 C789 1.377 . S
C774 C772 1.389 . S
C774 C775 1.524 . S
C774 C788 1.377 . S
C775 C774 1.524 . S
C775 C776 1.397 . S
C775 C780 1.363 . S
C776 H753 0.950 . S
C776 C775 1.397 . S
C776 C777 1.334 . S
C777 H754 0.950 . S
C777 C776 1.334 . S
C777 C778 1.287 . S
C778 C777 1.287 . S
C778 C779 1.524 . S
C778 H797 0.913 . S
C779 H755 0.950 . S
C779 C778 1.524 . S
C779 C780 1.415 . S
C780 H756 0.950 . S
C780 C775 1.363 . S
C780 C779 1.415 . S
C781 H757 0.951 . S
C781 C782 1.366 . S
C781 C783 1.388 . S
C782 C781 1.366 . S
C782 C786 1.385 . S
C783 H758 0.951 . S
C783 C781 1.388 . S
C783 C784 1.366 . S
C784 C783 1.366 . S
C784 C785 1.414 . S
C784 C787 1.499 . S
C785 H759 0.950 . S
C785 C784 1.414 . S
C785 C786 1.374 . S
C786 H760 0.950 . S
C786 C782 1.385 . S
C786 C785 1.374 . S
C787 C784 1.499 . S
C787 C788 1.373 . S
C787 C789 1.389 . S
C788 H761 0.950 . S
C788 C774 1.377 . S
C788 C787 1.373 . S
C789 C773 1.377 . S
C789 C787 1.389 . S
C789 C790 1.524 . S
C790 C789 1.524 . S
C790 C791 1.397 . S
C790 C795 1.363 . S
C791 H762 0.950 . S
C791 C790 1.397 . S
C791 C792 1.334 . S
C792 H763 0.950 . S
C792 C791 1.334 . S
C792 C793 1.287 . S
C793 C792 1.287 . S
C793 C794 1.524 . S
C793 H796 0.999 . S
C794 H764 0.950 . S
C794 C793 1.524 . S
C794 C795 1.415 . S
C795 H765 0.950 . S
C795 C790 1.363 . S
C795 C794 1.415 . S
H796 C793 0.999 . S
H797 C778 0.913 . S
H798 C816 0.951 . S
H799 C818 0.951 . S
H800 C820 0.950 . S
H801 C821 0.950 . S
H802 C823 0.950 . S
H803 C826 0.950 . S
H804 C827 0.950 . S
H805 C829 0.950 . S
H806 C830 0.950 . S
H807 C831 0.951 . S
H808 C833 0.951 . S
H809 C835 0.950 . S
H810 C836 0.950 . S
H811 C838 0.950 . S
H812 C841 0.950 . S
H813 C842 0.950 . S
H814 C844 0.950 . S
H815 C845 0.950 . S
C816 H798 0.951 . S
C816 C817 1.366 . S
C816 C818 1.388 . S
C817 C816 1.366 . S
C817 C821 1.385 . S
C818 H799 0.951 . S
C818 C816 1.388 . S
C818 C819 1.366 . S
C819 C818 1.366 . S
C819 C820 1.414 . S
C819 C822 1.499 . S
C820 H800 0.950 . S
C820 C819 1.414 . S
C820 C821 1.374 . S
C821 H801 0.950 . S
C821 C817 1.385 . S
C821 C820 1.374 . S
C822 C819 1.499 . S
C822 C823 1.373 . S
C822 C824 1.389 . S
C823 H802 0.950 . S
C823 C822 1.373 . S
C823 C839 1.377 . S
C824 C822 1.389 . S
C824 C825 1.524 . S
C824 C838 1.377 . S
C825 C824 1.524 . S
C825 C826 1.397 . S
C825 C830 1.363 . S
C826 H803 0.950 . S
C826 C825 1.397 . S
C826 C827 1.334 . S
C827 H804 0.950 . S
C827 C826 1.334 . S
C827 C828 1.287 . S
C828 C827 1.287 . S
C828 C829 1.524 . S
C828 H847 0.913 . S
C829 H805 0.950 . S
C829 C828 1.524 . S
C829 C830 1.415 . S
C830 H806 0.950 . S
C830 C825 1.363 . S
C830 C829 1.415 . S
C831 H807 0.951 . S
C831 C832 1.366 . S
C831 C833 1.388 . S
C832 C831 1.366 . S
C832 C836 1.385 . S
C833 H808 0.951 . S
C833 C831 1.388 . S
C833 C834 1.366 . S
C834 C833 1.366 . S
C834 C835 1.414 . S
C834 C837 1.499 . S
C835 H809 0.950 . S
C835 C834 1.414 . S
C835 C836 1.374 . S
C836 H810 0.950 . S
C836 C832 1.385 . S
C836 C835 1.374 . S
C837 C834 1.499 . S
C837 C838 1.373 . S
C837 C839 1.389 . S
C838 H811 0.950 . S
C838 C824 1.377 . S
C838 C837 1.373 . S
C839 C823 1.377 . S
C839 C837 1.389 . S
C839 C840 1.524 . S
C840 C839 1.524 . S
C840 C841 1.397 . S
C840 C845 1.363 . S
C841 H812 0.950 . S
C841 C840 1.397 . S
C841 C842 1.334 . S
C842 H813 0.950 . S
C842 C841 1.334 . S
C842 C843 1.287 . S
C843 C842 1.287 . S
C843 C844 1.524 . S
C843 H846 0.999 . S
C844 H814 0.950 . S
C844 C843 1.524 . S
C844 C845 1.415 . S
C845 H815 0.950 . S
C845 C840 1.363 . S
C845 C844 1.415 . S
H846 C843 0.999 . S
H847 C828 0.913 . S
H848 C866 0.951 . S
H849 C868 0.951 . S
H850 C870 0.950 . S
H851 C871 0.950 . S
H852 C873 0.950 . S
H853 C876 0.950 . S
H854 C877 0.950 . S
H855 C879 0.950 . S
H856 C880 0.950 . S
H857 C881 0.951 . S
H858 C883 0.951 1_556 S
H859 C885 0.950 1_655 S
H860 C886 0.954 1_655 S
H861 C888 0.950 . S
H862 C891 0.950 . S
H863 C892 0.950 . S
H864 C894 0.950 . S
H865 C895 0.950 . S
C866 H848 0.951 . S
C866 C867 1.366 . S
C866 C868 1.388 . S
C867 C866 1.366 . S
C867 C871 1.385 1_655 S
C868 H849 0.951 . S
C868 C866 1.388 . S
C868 C869 1.366 1_655 S
C869 C868 1.366 1_455 S
C869 C870 1.414 . S
C869 C872 1.499 . S
C870 H850 0.950 . S
C870 C869 1.414 . S
C870 C871 1.374 . S
C871 H851 0.950 . S
C871 C867 1.385 1_455 S
C871 C870 1.374 . S
C872 C869 1.499 . S
C872 C873 1.373 . S
C872 C874 1.389 1_455 S
C873 H852 0.950 . S
C873 C872 1.373 . S
C873 C889 1.377 . S
C874 C872 1.389 1_655 S
C874 C875 1.524 . S
C874 C888 1.377 . S
C875 C874 1.524 . S
C875 C876 1.397 . S
C875 C880 1.363 . S
C876 H853 0.950 . S
C876 C875 1.397 . S
C876 C877 1.334 . S
C877 H854 0.950 . S
C877 C876 1.334 . S
C877 C878 1.287 . S
C878 C877 1.287 . S
C878 C879 1.524 . S
C878 H897 0.913 . S
C879 H855 0.950 . S
C879 C878 1.524 . S
C879 C880 1.415 . S
C880 H856 0.950 . S
C880 C875 1.363 . S
C880 C879 1.415 . S
C881 H857 0.951 . S
C881 C882 1.366 . S
C881 C883 1.388 1_556 S
C882 C881 1.366 . S
C882 C886 1.385 1_556 S
C883 H858 0.951 1_554 S
C883 C881 1.388 1_554 S
C883 C884 1.366 . S
C884 C883 1.366 . S
C884 C885 1.414 . S
C884 C887 1.499 . S
C885 H859 0.950 1_455 S
C885 C884 1.414 . S
C885 C886 1.374 . S
C886 H860 0.954 1_455 S
C886 C882 1.385 1_554 S
C886 C885 1.374 . S
C887 C884 1.499 . S
C887 C888 1.373 1_455 S
C887 C889 1.389 . S
C888 H861 0.950 . S
C888 C874 1.377 . S
C888 C887 1.373 1_655 S
C889 C873 1.377 . S
C889 C887 1.389 . S
C889 C890 1.524 . S
C890 C889 1.524 . S
C890 C891 1.397 . S
C890 C895 1.363 . S
C891 H862 0.950 . S
C891 C890 1.397 . S
C891 C892 1.334 . S
C892 H863 0.950 . S
C892 C891 1.334 . S
C892 C893 1.287 . S
C893 C892 1.287 . S
C893 C894 1.524 . S
C893 H896 0.999 . S
C894 H864 0.950 . S
C894 C893 1.524 . S
C894 C895 1.415 . S
C895 H865 0.950 . S
C895 C890 1.363 . S
C895 C894 1.415 . S
H896 C893 0.999 . S
H897 C878 0.913 . S
H898 C916 0.951 . S
H899 C918 0.951 . S
H900 C920 0.950 . S
H901 C921 0.950 . S
H902 C923 0.950 . S
H903 C926 0.950 . S
H904 C927 0.950 . S
H905 C929 0.950 . S
H906 C930 0.952 1_545 S
H907 C931 0.951 . S
H908 C933 0.951 . S
H909 C935 0.950 . S
H910 C936 0.950 . S
H911 C938 0.950 . S
H912 C941 0.950 1_554 S
H913 C942 0.950 . S
H914 C944 0.950 . S
H915 C945 0.950 . S
C916 H898 0.951 . S
C916 C917 1.342 1_545 S
C916 C918 1.388 . S
C917 C916 1.342 1_565 S
C917 C921 1.404 . S
C918 H899 0.951 . S
C918 C916 1.388 . S
C918 C919 1.366 . S
C919 C918 1.366 . S
C919 C920 1.414 1_545 S
C919 C922 1.499 . S
C920 H900 0.950 . S
C920 C919 1.414 1_565 S
C920 C921 1.374 . S
C921 H901 0.950 . S
C921 C917 1.404 . S
C921 C920 1.374 . S
C922 C919 1.499 . S
C922 C923 1.373 . S
C922 C924 1.389 . S
C923 H902 0.950 . S
C923 C922 1.373 . S
C923 C939 1.377 . S
C924 C922 1.389 . S
C924 C925 1.524 1_545 S
C924 C938 1.377 . S
C925 C924 1.524 1_565 S
C925 C926 1.397 . S
C925 C930 1.362 . S
C926 H903 0.950 . S
C926 C925 1.397 . S
C926 C927 1.334 . S
C927 H904 0.950 . S
C927 C926 1.334 . S
C927 C928 1.287 . S
C928 C927 1.287 . S
C928 C929 1.524 . S
C928 H947 0.913 . S
C929 H905 0.950 . S
C929 C928 1.524 . S
C929 C930 1.414 . S
C930 H906 0.952 1_565 S
C930 C925 1.362 . S
C930 C929 1.414 . S
C931 H907 0.951 . S
C931 C932 1.366 . S
C931 C933 1.388 . S
C932 C931 1.366 . S
C932 C936 1.385 1_556 S
C933 H908 0.951 . S
C933 C931 1.388 . S
C933 C934 1.366 1_556 S
C934 C933 1.366 1_554 S
C934 C935 1.414 . S
C934 C937 1.499 . S
C935 H909 0.950 . S
C935 C934 1.414 . S
C935 C936 1.374 . S
C936 H910 0.950 . S
C936 C932 1.385 1_554 S
C936 C935 1.374 . S
C937 C934 1.499 . S
C937 C938 1.373 . S
C937 C939 1.389 . S
C938 H911 0.950 . S
C938 C924 1.377 . S
C938 C937 1.373 . S
C939 C923 1.377 . S
C939 C937 1.389 . S
C939 C940 1.524 1_554 S
C940 C939 1.524 1_556 S
C940 C941 1.397 . S
C940 C945 1.363 . S
C941 H912 0.950 1_556 S
C941 C940 1.397 . S
C941 C942 1.334 . S
C942 H913 0.950 . S
C942 C941 1.334 . S
C942 C943 1.287 . S
C943 C942 1.287 . S
C943 C944 1.524 . S
C943 H946 0.999 . S
C944 H914 0.950 . S
C944 C943 1.524 . S
C944 C945 1.415 . S
C945 H915 0.950 . S
C945 C940 1.363 . S
C945 C944 1.415 . S
H946 C943 0.999 . S
H947 C928 0.913 . S
H948 C966 0.951 . S
H949 C968 0.951 . S
H950 C970 0.950 . S
H951 C971 0.950 . S
H952 C973 0.950 . S
H953 C976 0.950 . S
H954 C977 0.950 . S
H955 C979 0.950 . S
H956 C980 0.950 . S
H957 C981 0.951 . S
H958 C983 0.951 . S
H959 C985 0.950 . S
H960 C986 0.950 . S
H961 C988 0.950 . S
H962 C991 0.950 1_554 S
H963 C992 0.950 . S
H964 C994 0.950 . S
H965 C995 0.950 . S
C966 H948 0.951 . S
C966 C967 1.366 . S
C966 C968 1.388 . S
C967 C966 1.366 . S
C967 C971 1.385 . S
C968 H949 0.951 . S
C968 C966 1.388 . S
C968 C969 1.366 . S
C969 C968 1.366 . S
C969 C970 1.414 . S
C969 C972 1.499 . S
C970 H950 0.950 . S
C970 C969 1.414 . S
C970 C971 1.374 . S
C971 H951 0.950 . S
C971 C967 1.385 . S
C971 C970 1.374 . S
C972 C969 1.499 . S
C972 C973 1.373 . S
C972 C974 1.389 . S
C973 H952 0.950 . S
C973 C972 1.373 . S
C973 C989 1.377 . S
C974 C972 1.389 . S
C974 C975 1.524 . S
C974 C988 1.377 . S
C975 C974 1.524 . S
C975 C976 1.397 . S
C975 C980 1.363 . S
C976 H953 0.950 . S
C976 C975 1.397 . S
C976 C977 1.334 . S
C977 H954 0.950 . S
C977 C976 1.334 . S
C977 C978 1.287 . S
C978 C977 1.287 . S
C978 C979 1.524 . S
C978 H997 0.913 . S
C979 H955 0.950 . S
C979 C978 1.524 . S
C979 C980 1.415 . S
C980 H956 0.950 . S
C980 C975 1.363 . S
C980 C979 1.415 . S
C981 H957 0.951 . S
C981 C982 1.366 . S
C981 C983 1.388 . S
C982 C981 1.366 . S
C982 C986 1.385 1_556 S
C983 H958 0.951 . S
C983 C981 1.388 . S
C983 C984 1.366 1_556 S
C984 C983 1.366 1_554 S
C984 C985 1.414 . S
C984 C987 1.499 . S
C985 H959 0.950 . S
C985 C984 1.414 . S
C985 C986 1.374 . S
C986 H960 0.950 . S
C986 C982 1.385 1_554 S
C986 C985 1.374 . S
C987 C984 1.499 . S
C987 C988 1.373 . S
C987 C989 1.389 . S
C988 H961 0.950 . S
C988 C974 1.377 . S
C988 C987 1.373 . S
C989 C973 1.377 . S
C989 C987 1.389 . S
C989 C990 1.524 1_554 S
C990 C989 1.524 1_556 S
C990 C991 1.397 . S
C990 C995 1.363 . S
C991 H962 0.950 1_556 S
C991 C990 1.397 . S
C991 C992 1.334 . S
C992 H963 0.950 . S
C992 C991 1.334 . S
C992 C993 1.287 . S
C993 C992 1.287 . S
C993 C994 1.524 . S
C993 H996 0.999 . S
C994 H964 0.950 . S
C994 C993 1.524 . S
C994 C995 1.415 . S
C995 H965 0.950 . S
C995 C990 1.363 . S
C995 C994 1.415 . S
H996 C993 0.999 . S
H997 C978 0.913 . S
H998 C1016 0.951 . S
H999 C1018 0.951 . S
H1000 C1020 0.950 . S
H1001 C1021 0.950 . S
H1002 C1023 0.950 . S
H1003 C1026 0.950 . S
H1004 C1027 0.950 . S
H1005 C1029 0.950 . S
H1006 C1030 0.950 . S
H1007 C1031 0.951 . S
H1008 C1033 0.951 . S
H1009 C1035 0.950 . S
H1010 C1036 0.950 . S
H1011 C1038 0.950 . S
H1012 C1041 0.950 . S
H1013 C1042 0.950 . S
H1014 C1044 0.950 . S
H1015 C1045 0.950 . S
C1016 H998 0.951 . S
C1016 C1017 1.366 . S
C1016 C1018 1.388 . S
C1017 C1016 1.366 . S
C1017 C1021 1.385 . S
C1018 H999 0.951 . S
C1018 C1016 1.388 . S
C1018 C1019 1.366 . S
C1019 C1018 1.366 . S
C1019 C1020 1.414 . S
C1019 C1022 1.499 . S
C1020 H1000 0.950 . S
C1020 C1019 1.414 . S
C1020 C1021 1.374 . S
C1021 H1001 0.950 . S
C1021 C1017 1.385 . S
C1021 C1020 1.374 . S
C1022 C1019 1.499 . S
C1022 C1023 1.373 . S
C1022 C1024 1.389 . S
C1023 H1002 0.950 . S
C1023 C1022 1.373 . S
C1023 C1039 1.377 . S
C1024 C1022 1.389 . S
C1024 C1025 1.524 . S
C1024 C1038 1.377 . S
C1025 C1024 1.524 . S
C1025 C1026 1.397 . S
C1025 C1030 1.363 . S
C1026 H1003 0.950 . S
C1026 C1025 1.397 . S
C1026 C1027 1.334 . S
C1027 H1004 0.950 . S
C1027 C1026 1.334 . S
C1027 C1028 1.287 . S
C1028 C1027 1.287 . S
C1028 C1029 1.524 . S
C1028 H1047 0.913 . S
C1029 H1005 0.950 . S
C1029 C1028 1.524 . S
C1029 C1030 1.415 . S
C1030 H1006 0.950 . S
C1030 C1025 1.363 . S
C1030 C1029 1.415 . S
C1031 H1007 0.951 . S
C1031 C1032 1.366 . S
C1031 C1033 1.388 . S
C1032 C1031 1.366 . S
C1032 C1036 1.385 1_556 S
C1033 H1008 0.951 . S
C1033 C1031 1.388 . S
C1033 C1034 1.366 1_556 S
C1034 C1033 1.366 1_554 S
C1034 C1035 1.414 . S
C1034 C1037 1.499 . S
C1035 H1009 0.950 . S
C1035 C1034 1.414 . S
C1035 C1036 1.374 . S
C1036 H1010 0.950 . S
C1036 C1032 1.385 1_554 S
C1036 C1035 1.374 . S
C1037 C1034 1.499 . S
C1037 C1038 1.373 . S
C1037 C1039 1.389 . S
C1038 H1011 0.950 . S
C1038 C1024 1.377 . S
C1038 C1037 1.373 . S
C1039 C1023 1.377 . S
C1039 C1037 1.389 . S
C1039 C1040 1.524 . S
C1040 C1039 1.524 . S
C1040 C1041 1.397 . S
C1040 C1045 1.363 . S
C1041 H1012 0.950 . S
C1041 C1040 1.397 . S
C1041 C1042 1.334 . S
C1042 H1013 0.950 . S
C1042 C1041 1.334 . S
C1042 C1043 1.287 . S
C1043 C1042 1.287 . S
C1043 C1044 1.524 1_554 S
C1043 H1046 0.999 1_554 S
C1044 H1014 0.950 . S
C1044 C1043 1.524 1_556 S
C1044 C1045 1.415 1_556 S
C1045 H1015 0.950 . S
C1045 C1040 1.363 . S
C1045 C1044 1.415 1_554 S
H1046 C1043 0.999 1_556 S
H1047 C1028 0.913 . S
H1048 C1066 0.951 . S
H1049 C1068 0.951 . S
H1050 C1070 0.950 . S
H1051 C1071 0.950 . S
H1052 C1073 0.950 . S
H1053 C1076 0.950 . S
H1054 C1077 0.950 1_455 S
H1055 C1079 0.950 . S
H1056 C1080 0.950 1_556 S
H1057 C1081 0.951 . S
H1058 C1083 0.951 . S
H1059 C1085 0.950 . S
H1060 C1086 0.950 . S
H1061 C1088 0.950 . S
H1062 C1091 0.950 1_655 S
H1063 C1092 0.972 . S
H1064 C1094 0.950 . S
H1065 C1095 0.950 . S
C1066 H1048 0.951 . S
C1066 C1067 1.325 1_655 S
C1066 C1068 1.388 . S
C1067 C1066 1.325 1_455 S
C1067 C1071 1.429 . S
C1068 H1049 0.951 . S
C1068 C1066 1.388 . S
C1068 C1069 1.366 1_655 S
C1069 C1068 1.366 1_455 S
C1069 C1070 1.414 . S
C1069 C1072 1.499 . S
C1070 H1050 0.950 . S
C1070 C1069 1.414 . S
C1070 C1071 1.374 . S
C1071 H1051 0.950 . S
C1071 C1067 1.429 . S
C1071 C1070 1.374 . S
C1072 C1069 1.499 . S
C1072 C1073 1.373 . S
C1072 C1074 1.389 1_455 S
C1073 H1052 0.950 . S
C1073 C1072 1.373 . S
C1073 C1089 1.377 . S
C1074 C1072 1.389 1_655 S
C1074 C1075 1.524 . S
C1074 C1088 1.377 . S
C1075 C1074 1.524 . S
C1075 C1076 1.397 1_656 S
C1075 C1080 1.363 1_556 S
C1076 H1053 0.950 . S
C1076 C1075 1.397 1_454 S
C1076 C1077 1.334 1_455 S
C1077 H1054 0.950 1_655 S
C1077 C1076 1.334 1_655 S
C1077 C1078 1.287 . S
C1078 C1077 1.287 . S
C1078 C1079 1.524 . S
C1078 H1097 0.913 . S
C1079 H1055 0.950 . S
C1079 C1078 1.524 . S
C1079 C1080 1.415 . S
C1080 H1056 0.950 1_554 S
C1080 C1075 1.363 1_554 S
C1080 C1079 1.415 . S
C1081 H1057 0.951 . S
C1081 C1082 1.366 . S
C1081 C1083 1.388 . S
C1082 C1081 1.366 . S
C1082 C1086 1.385 1_455 S
C1083 H1058 0.951 . S
C1083 C1081 1.388 . S
C1083 C1084 1.366 . S
C1084 C1083 1.366 . S
C1084 C1085 1.414 1_455 S
C1084 C1087 1.499 . S
C1085 H1059 0.950 . S
C1085 C1084 1.414 1_655 S
C1085 C1086 1.374 . S
C1086 H1060 0.950 . S
C1086 C1082 1.385 1_655 S
C1086 C1085 1.374 . S
C1087 C1084 1.499 . S
C1087 C1088 1.373 1_455 S
C1087 C1089 1.389 . S
C1088 H1061 0.950 . S
C1088 C1074 1.377 . S
C1088 C1087 1.373 1_655 S
C1089 C1073 1.377 . S
C1089 C1087 1.389 . S
C1089 C1090 1.524 . S
C1090 C1089 1.524 . S
C1090 C1091 1.397 . S
C1090 C1095 1.363 . S
C1091 H1062 0.950 1_455 S
C1091 C1090 1.397 . S
C1091 C1092 1.334 . S
C1092 H1063 0.972 . S
C1092 C1091 1.334 . S
C1092 C1093 1.287 . S
C1093 C1092 1.287 . S
C1093 C1094 1.524 . S
C1093 H1096 0.999 . S
C1094 H1064 0.950 . S
C1094 C1093 1.524 . S
C1094 C1095 1.415 . S
C1095 H1065 0.950 . S
C1095 C1090 1.363 . S
C1095 C1094 1.415 . S
H1096 C1093 0.999 . S
H1097 C1078 0.913 . S
H1098 C1116 0.951 . S
H1099 C1118 0.951 . S
H1100 C1120 0.950 . S
H1101 C1121 0.950 . S
H1102 C1123 0.950 . S
H1103 C1126 0.950 1_565 S
H1104 C1127 0.950 . S
H1105 C1129 0.950 . S
H1106 C1130 0.950 . S
H1107 C1131 0.951 . S
H1108 C1133 0.951 . S
H1109 C1135 0.950 . S
H1110 C1136 0.950 . S
H1111 C1138 0.950 . S
H1112 C1141 0.950 . S
H1113 C1142 0.950 1_545 S
H1114 C1144 0.950 . S
H1115 C1145 0.950 . S
C1116 H1098 0.951 . S
C1116 C1117 1.410 . S
C1116 C1118 1.388 . S
C1117 C1116 1.410 . S
C1117 C1121 1.342 1_545 S
C1118 H1099 0.951 . S
C1118 C1116 1.388 . S
C1118 C1119 1.366 . S
C1119 C1118 1.366 . S
C1119 C1120 1.414 1_545 S
C1119 C1122 1.499 . S
C1120 H1100 0.950 . S
C1120 C1119 1.414 1_565 S
C1120 C1121 1.374 . S
C1121 H1101 0.950 . S
C1121 C1117 1.342 1_565 S
C1121 C1120 1.374 . S
C1122 C1119 1.499 . S
C1122 C1123 1.373 1_545 S
C1122 C1124 1.389 . S
C1123 H1102 0.950 . S
C1123 C1122 1.373 1_565 S
C1123 C1139 1.377 . S
C1124 C1122 1.389 . S
C1124 C1125 1.524 . S
C1124 C1138 1.377 . S
C1125 C1124 1.524 . S
C1125 C1126 1.397 . S
C1125 C1130 1.363 . S
C1126 H1103 0.950 1_545 S
C1126 C1125 1.397 . S
C1126 C1127 1.334 . S
C1127 H1104 0.950 . S
C1127 C1126 1.334 . S
C1127 C1128 1.287 . S
C1128 C1127 1.287 . S
C1128 C1129 1.524 . S
C1128 H1147 0.913 . S
C1129 H1105 0.950 . S
C1129 C1128 1.524 . S
C1129 C1130 1.415 . S
C1130 H1106 0.950 . S
C1130 C1125 1.363 . S
C1130 C1129 1.415 . S
C1131 H1107 0.951 . S
C1131 C1132 1.366 1_565 S
C1131 C1133 1.388 . S
C1132 C1131 1.366 1_545 S
C1132 C1136 1.385 . S
C1133 H1108 0.951 . S
C1133 C1131 1.388 . S
C1133 C1134 1.366 1_565 S
C1134 C1133 1.366 1_545 S
C1134 C1135 1.414 . S
C1134 C1137 1.499 . S
C1135 H1109 0.950 . S
C1135 C1134 1.414 . S
C1135 C1136 1.374 . S
C1136 H1110 0.950 . S
C1136 C1132 1.385 . S
C1136 C1135 1.374 . S
C1137 C1134 1.499 . S
C1137 C1138 1.373 . S
C1137 C1139 1.389 1_545 S
C1138 H1111 0.950 . S
C1138 C1124 1.377 . S
C1138 C1137 1.373 . S
C1139 C1123 1.377 . S
C1139 C1137 1.389 1_565 S
C1139 C1140 1.524 . S
C1140 C1139 1.524 . S
C1140 C1141 1.397 1_565 S
C1140 C1145 1.363 . S
C1141 H1112 0.950 . S
C1141 C1140 1.397 1_545 S
C1141 C1142 1.334 1_546 S
C1142 H1113 0.950 1_565 S
C1142 C1141 1.334 1_564 S
C1142 C1143 1.287 . S
C1143 C1142 1.287 . S
C1143 C1144 1.524 . S
C1143 H1146 0.999 . S
C1144 H1114 0.950 . S
C1144 C1143 1.524 . S
C1144 C1145 1.415 1_554 S
C1145 H1115 0.950 . S
C1145 C1140 1.363 . S
C1145 C1144 1.415 1_556 S
H1146 C1143 0.999 . S
H1147 C1128 0.913 . S
H1148 C1166 0.951 . S
H1149 C1168 0.951 . S
H1150 C1170 0.950 . S
H1151 C1171 0.950 . S
H1152 C1173 0.950 . S
H1153 C1176 0.950 . S
H1154 C1177 0.950 . S
H1155 C1179 0.950 . S
H1156 C1180 0.950 . S
H1157 C1181 0.951 . S
H1158 C1183 0.951 . S
H1159 C1185 0.950 . S
H1160 C1186 0.950 . S
H1161 C1188 0.950 . S
H1162 C1191 0.950 . S
H1163 C1192 0.950 . S
H1164 C1194 0.950 . S
H1165 C1195 0.950 . S
C1166 H1148 0.951 . S
C1166 C1167 1.366 . S
C1166 C1168 1.388 . S
C1167 C1166 1.366 . S
C1167 C1171 1.385 . S
C1168 H1149 0.951 . S
C1168 C1166 1.388 . S
C1168 C1169 1.366 . S
C1169 C1168 1.366 . S
C1169 C1170 1.414 . S
C1169 C1172 1.499 . S
C1170 H1150 0.950 . S
C1170 C1169 1.414 . S
C1170 C1171 1.374 . S
C1171 H1151 0.950 . S
C1171 C1167 1.385 . S
C1171 C1170 1.374 . S
C1172 C1169 1.499 . S
C1172 C1173 1.373 . S
C1172 C1174 1.389 . S
C1173 H1152 0.950 . S
C1173 C1172 1.373 . S
C1173 C1189 1.377 . S
C1174 C1172 1.389 . S
C1174 C1175 1.524 . S
C1174 C1188 1.377 . S
C1175 C1174 1.524 . S
C1175 C1176 1.397 1_556 S
C1175 C1180 1.363 . S
C1176 H1153 0.950 . S
C1176 C1175 1.397 1_554 S
C1176 C1177 1.334 . S
C1177 H1154 0.950 . S
C1177 C1176 1.334 . S
C1177 C1178 1.287 . S
C1178 C1177 1.287 . S
C1178 C1179 1.524 1_554 S
C1178 H1197 0.913 . S
C1179 H1155 0.950 . S
C1179 C1178 1.524 1_556 S
C1179 C1180 1.415 . S
C1180 H1156 0.950 . S
C1180 C1175 1.363 . S
C1180 C1179 1.415 . S
C1181 H1157 0.951 . S
C1181 C1182 1.366 . S
C1181 C1183 1.388 . S
C1182 C1181 1.366 . S
C1182 C1186 1.385 . S
C1183 H1158 0.951 . S
C1183 C1181 1.388 . S
C1183 C1184 1.366 . S
C1184 C1183 1.366 . S
C1184 C1185 1.414 . S
C1184 C1187 1.499 . S
C1185 H1159 0.950 . S
C1185 C1184 1.414 . S
C1185 C1186 1.374 . S
C1186 H1160 0.950 . S
C1186 C1182 1.385 . S
C1186 C1185 1.374 . S
C1187 C1184 1.499 . S
C1187 C1188 1.373 . S
C1187 C1189 1.389 . S
C1188 H1161 0.950 . S
C1188 C1174 1.377 . S
C1188 C1187 1.373 . S
C1189 C1173 1.377 . S
C1189 C1187 1.389 . S
C1189 C1190 1.524 . S
C1190 C1189 1.524 . S
C1190 C1191 1.397 . S
C1190 C1195 1.363 . S
C1191 H1162 0.950 . S
C1191 C1190 1.397 . S
C1191 C1192 1.334 . S
C1192 H1163 0.950 . S
C1192 C1191 1.334 . S
C1192 C1193 1.287 . S
C1193 C1192 1.287 . S
C1193 C1194 1.524 . S
C1193 H1196 0.999 . S
C1194 H1164 0.950 . S
C1194 C1193 1.524 . S
C1194 C1195 1.415 . S
C1195 H1165 0.950 . S
C1195 C1190 1.363 . S
C1195 C1194 1.415 . S
H1196 C1193 0.999 . S
H1197 C1178 0.913 . S
H1198 C1216 0.951 . S
H1199 C1218 0.951 . S
H1200 C1220 0.950 . S
H1201 C1221 0.950 1_554 S
H1202 C1223 0.950 . S
H1203 C1226 0.950 . S
H1204 C1227 0.950 . S
H1205 C1229 0.950 . S
H1206 C1230 0.950 . S
H1207 C1231 0.951 . S
H1208 C1233 0.951 . S
H1209 C1235 0.950 . S
H1210 C1236 0.950 . S
H1211 C1238 0.950 . S
H1212 C1241 0.950 . S
H1213 C1242 0.950 . S
H1214 C1244 0.950 . S
H1215 C1245 0.950 . S
C1216 H1198 0.951 . S
C1216 C1217 1.366 . S
C1216 C1218 1.388 . S
C1217 C1216 1.366 . S
C1217 C1221 1.385 . S
C1218 H1199 0.951 . S
C1218 C1216 1.388 . S
C1218 C1219 1.366 . S
C1219 C1218 1.366 . S
C1219 C1220 1.414 . S
C1219 C1222 1.499 . S
C1220 H1200 0.950 . S
C1220 C1219 1.414 . S
C1220 C1221 1.374 . S
C1221 H1201 0.950 1_556 S
C1221 C1217 1.385 . S
C1221 C1220 1.374 . S
C1222 C1219 1.499 . S
C1222 C1223 1.373 . S
C1222 C1224 1.389 . S
C1223 H1202 0.950 . S
C1223 C1222 1.373 . S
C1223 C1239 1.377 . S
C1224 C1222 1.389 . S
C1224 C1225 1.524 . S
C1224 C1238 1.377 . S
C1225 C1224 1.524 . S
C1225 C1226 1.397 . S
C1225 C1230 1.363 . S
C1226 H1203 0.950 . S
C1226 C1225 1.397 . S
C1226 C1227 1.334 . S
C1227 H1204 0.950 . S
C1227 C1226 1.334 . S
C1227 C1228 1.287 . S
C1228 C1227 1.287 . S
C1228 C1229 1.524 . S
C1228 H1247 0.913 . S
C1229 H1205 0.950 . S
C1229 C1228 1.524 . S
C1229 C1230 1.415 . S
C1230 H1206 0.950 . S
C1230 C1225 1.363 . S
C1230 C1229 1.415 . S
C1231 H1207 0.951 . S
C1231 C1232 1.366 . S
C1231 C1233 1.388 . S
C1232 C1231 1.366 . S
C1232 C1236 1.385 . S
C1233 H1208 0.951 . S
C1233 C1231 1.388 . S
C1233 C1234 1.366 . S
C1234 C1233 1.366 . S
C1234 C1235 1.414 . S
C1234 C1237 1.499 . S
C1235 H1209 0.950 . S
C1235 C1234 1.414 . S
C1235 C1236 1.374 . S
C1236 H1210 0.950 . S
C1236 C1232 1.385 . S
C1236 C1235 1.374 . S
C1237 C1234 1.499 . S
C1237 C1238 1.373 . S
C1237 C1239 1.389 . S
C1238 H1211 0.950 . S
C1238 C1224 1.377 . S
C1238 C1237 1.373 . S
C1239 C1223 1.377 . S
C1239 C1237 1.389 . S
C1239 C1240 1.524 . S
C1240 C1239 1.524 . S
C1240 C1241 1.397 . S
C1240 C1245 1.363 1_556 S
C1241 H1212 0.950 . S
C1241 C1240 1.397 . S
C1241 C1242 1.334 . S
C1242 H1213 0.950 . S
C1242 C1241 1.334 . S
C1242 C1243 1.287 . S
C1243 C1242 1.287 . S
C1243 C1244 1.524 1_556 S
C1243 H1246 0.999 1_556 S
C1244 H1214 0.950 . S
C1244 C1243 1.524 1_554 S
C1244 C1245 1.415 . S
C1245 H1215 0.950 . S
C1245 C1240 1.363 1_554 S
C1245 C1244 1.415 . S
H1246 C1243 0.999 1_554 S
H1247 C1228 0.913 . S
H1248 C1266 0.951 . S
H1249 C1268 0.951 . S
H1250 C1270 0.950 . S
H1251 C1271 0.950 . S
H1252 C1273 0.950 . S
H1253 C1276 0.950 . S
H1254 C1277 0.950 . S
H1255 C1279 0.950 . S
H1256 C1280 0.950 . S
H1257 C1281 0.951 . S
H1258 C1283 0.951 . S
H1259 C1285 0.944 1_455 S
H1260 C1286 0.935 1_455 S
H1261 C1288 0.950 . S
H1262 C1291 0.950 . S
H1263 C1292 0.950 . S
H1264 C1294 0.950 . S
H1265 C1295 0.950 . S
C1266 H1248 0.951 . S
C1266 C1267 1.352 1_455 S
C1266 C1268 1.388 . S
C1267 C1266 1.352 1_655 S
C1267 C1271 1.401 . S
C1268 H1249 0.951 . S
C1268 C1266 1.388 . S
C1268 C1269 1.366 1_455 S
C1269 C1268 1.366 1_655 S
C1269 C1270 1.414 . S
C1269 C1272 1.499 . S
C1270 H1250 0.950 . S
C1270 C1269 1.414 . S
C1270 C1271 1.374 . S
C1271 H1251 0.950 . S
C1271 C1267 1.401 . S
C1271 C1270 1.374 . S
C1272 C1269 1.499 . S
C1272 C1273 1.373 . S
C1272 C1274 1.389 1_655 S
C1273 H1252 0.950 . S
C1273 C1272 1.373 . S
C1273 C1289 1.377 . S
C1274 C1272 1.389 1_455 S
C1274 C1275 1.524 . S
C1274 C1288 1.377 . S
C1275 C1274 1.524 . S
C1275 C1276 1.397 . S
C1275 C1280 1.363 . S
C1276 H1253 0.950 . S
C1276 C1275 1.397 . S
C1276 C1277 1.334 . S
C1277 H1254 0.950 . S
C1277 C1276 1.334 . S
C1277 C1278 1.287 . S
C1278 C1277 1.287 . S
C1278 C1279 1.524 . S
C1278 H1297 0.913 . S
C1279 H1255 0.950 . S
C1279 C1278 1.524 . S
C1279 C1280 1.415 . S
C1280 H1256 0.950 . S
C1280 C1275 1.363 . S
C1280 C1279 1.415 . S
C1281 H1257 0.951 . S
C1281 C1282 1.366 . S
C1281 C1283 1.388 . S
C1282 C1281 1.366 . S
C1282 C1286 1.404 . S
C1283 H1258 0.951 . S
C1283 C1281 1.388 . S
C1283 C1284 1.366 . S
C1284 C1283 1.366 . S
C1284 C1285 1.421 . S
C1284 C1287 1.499 . S
C1285 H1259 0.944 1_655 S
C1285 C1284 1.421 . S
C1285 C1286 1.373 . S
C1286 H1260 0.935 1_655 S
C1286 C1282 1.404 . S
C1286 C1285 1.373 . S
C1287 C1284 1.499 . S
C1287 C1288 1.373 1_655 S
C1287 C1289 1.389 . S
C1288 H1261 0.950 . S
C1288 C1274 1.377 . S
C1288 C1287 1.373 1_455 S
C1289 C1273 1.377 . S
C1289 C1287 1.389 . S
C1289 C1290 1.524 . S
C1290 C1289 1.524 . S
C1290 C1291 1.397 . S
C1290 C1295 1.363 . S
C1291 H1262 0.950 . S
C1291 C1290 1.397 . S
C1291 C1292 1.334 . S
C1292 H1263 0.950 . S
C1292 C1291 1.334 . S
C1292 C1293 1.287 . S
C1293 C1292 1.287 . S
C1293 C1294 1.524 . S
C1293 H1296 0.999 . S
C1294 H1264 0.950 . S
C1294 C1293 1.524 . S
C1294 C1295 1.415 . S
C1295 H1265 0.950 . S
C1295 C1290 1.363 . S
C1295 C1294 1.415 . S
H1296 C1293 0.999 . S
H1297 C1278 0.913 . S
H1298 C1316 0.951 . S
H1299 C1318 0.951 . S
H1300 C1320 0.950 . S
H1301 C1321 0.950 . S
H1302 C1323 0.950 . S
H1303 C1326 0.950 . S
H1304 C1327 0.950 . S
H1305 C1329 0.950 . S
H1306 C1330 0.950 . S
H1307 C1331 0.951 . S
H1308 C1333 0.951 . S
H1309 C1335 0.950 . S
H1310 C1336 0.950 . S
H1311 C1338 0.950 . S
H1312 C1341 0.950 . S
H1313 C1342 0.950 . S
H1314 C1344 0.950 . S
H1315 C1345 0.950 . S
C1316 H1298 0.951 . S
C1316 C1317 1.397 . S
C1316 C1318 1.388 . S
C1317 C1316 1.397 . S
C1317 C1321 1.355 1_565 S
C1318 H1299 0.951 . S
C1318 C1316 1.388 . S
C1318 C1319 1.366 . S
C1319 C1318 1.366 . S
C1319 C1320 1.414 1_565 S
C1319 C1322 1.499 . S
C1320 H1300 0.950 . S
C1320 C1319 1.414 1_545 S
C1320 C1321 1.374 . S
C1321 H1301 0.950 . S
C1321 C1317 1.355 1_545 S
C1321 C1320 1.374 . S
C1322 C1319 1.499 . S
C1322 C1323 1.373 1_565 S
C1322 C1324 1.389 . S
C1323 H1302 0.950 . S
C1323 C1322 1.373 1_545 S
C1323 C1339 1.377 . S
C1324 C1322 1.389 . S
C1324 C1325 1.524 . S
C1324 C1338 1.377 . S
C1325 C1324 1.524 . S
C1325 C1326 1.397 . S
C1325 C1330 1.363 . S
C1326 H1303 0.950 . S
C1326 C1325 1.397 . S
C1326 C1327 1.334 . S
C1327 H1304 0.950 . S
C1327 C1326 1.334 . S
C1327 C1328 1.287 . S
C1328 C1327 1.287 . S
C1328 C1329 1.524 . S
C1328 H1347 0.913 . S
C1329 H1305 0.950 . S
C1329 C1328 1.524 . S
C1329 C1330 1.415 . S
C1330 H1306 0.950 . S
C1330 C1325 1.363 . S
C1330 C1329 1.415 . S
C1331 H1307 0.951 . S
C1331 C1332 1.366 1_545 S
C1331 C1333 1.388 . S
C1332 C1331 1.366 1_565 S
C1332 C1336 1.385 . S
C1333 H1308 0.951 . S
C1333 C1331 1.388 . S
C1333 C1334 1.366 1_545 S
C1334 C1333 1.366 1_565 S
C1334 C1335 1.414 . S
C1334 C1337 1.499 . S
C1335 H1309 0.950 . S
C1335 C1334 1.414 . S
C1335 C1336 1.374 . S
C1336 H1310 0.950 . S
C1336 C1332 1.385 . S
C1336 C1335 1.374 . S
C1337 C1334 1.499 . S
C1337 C1338 1.373 . S
C1337 C1339 1.389 1_565 S
C1338 H1311 0.950 . S
C1338 C1324 1.377 . S
C1338 C1337 1.373 . S
C1339 C1323 1.377 . S
C1339 C1337 1.389 1_545 S
C1339 C1340 1.524 . S
C1340 C1339 1.524 . S
C1340 C1341 1.397 . S
C1340 C1345 1.363 . S
C1341 H1312 0.950 . S
C1341 C1340 1.397 . S
C1341 C1342 1.334 . S
C1342 H1313 0.950 . S
C1342 C1341 1.334 . S
C1342 C1343 1.287 . S
C1343 C1342 1.287 . S
C1343 C1344 1.524 . S
C1343 H1346 0.999 . S
C1344 H1314 0.950 . S
C1344 C1343 1.524 . S
C1344 C1345 1.415 . S
C1345 H1315 0.950 . S
C1345 C1340 1.363 . S
C1345 C1344 1.415 . S
H1346 C1343 0.999 . S
H1347 C1328 0.913 . S
H1348 C1366 0.951 . S
H1349 C1368 0.951 . S
H1350 C1370 0.950 . S
H1351 C1371 0.950 . S
H1352 C1373 0.950 . S
H1353 C1376 0.950 . S
H1354 C1377 0.950 . S
H1355 C1379 0.950 . S
H1356 C1380 0.950 . S
H1357 C1381 0.951 . S
H1358 C1383 0.951 . S
H1359 C1385 0.950 . S
H1360 C1386 0.950 . S
H1361 C1388 0.950 . S
H1362 C1391 0.950 . S
H1363 C1392 0.950 . S
H1364 C1394 0.950 . S
H1365 C1395 0.950 . S
C1366 H1348 0.951 . S
C1366 C1367 1.366 . S
C1366 C1368 1.388 . S
C1367 C1366 1.366 . S
C1367 C1371 1.385 . S
C1368 H1349 0.951 . S
C1368 C1366 1.388 . S
C1368 C1369 1.366 . S
C1369 C1368 1.366 . S
C1369 C1370 1.414 . S
C1369 C1372 1.499 . S
C1370 H1350 0.950 . S
C1370 C1369 1.414 . S
C1370 C1371 1.374 . S
C1371 H1351 0.950 . S
C1371 C1367 1.385 . S
C1371 C1370 1.374 . S
C1372 C1369 1.499 . S
C1372 C1373 1.373 . S
C1372 C1374 1.389 . S
C1373 H1352 0.950 . S
C1373 C1372 1.373 . S
C1373 C1389 1.377 . S
C1374 C1372 1.389 . S
C1374 C1375 1.524 . S
C1374 C1388 1.377 . S
C1375 C1374 1.524 . S
C1375 C1376 1.397 . S
C1375 C1380 1.363 . S
C1376 H1353 0.950 . S
C1376 C1375 1.397 . S
C1376 C1377 1.334 . S
C1377 H1354 0.950 . S
C1377 C1376 1.334 . S
C1377 C1378 1.287 . S
C1378 C1377 1.287 . S
C1378 C1379 1.524 . S
C1378 H1397 0.913 . S
C1379 H1355 0.950 . S
C1379 C1378 1.524 . S
C1379 C1380 1.415 . S
C1380 H1356 0.950 . S
C1380 C1375 1.363 . S
C1380 C1379 1.415 . S
C1381 H1357 0.951 . S
C1381 C1382 1.366 . S
C1381 C1383 1.388 . S
C1382 C1381 1.366 . S
C1382 C1386 1.385 . S
C1383 H1358 0.951 . S
C1383 C1381 1.388 . S
C1383 C1384 1.366 . S
C1384 C1383 1.366 . S
C1384 C1385 1.414 . S
C1384 C1387 1.499 . S
C1385 H1359 0.950 . S
C1385 C1384 1.414 . S
C1385 C1386 1.374 . S
C1386 H1360 0.950 . S
C1386 C1382 1.385 . S
C1386 C1385 1.374 . S
C1387 C1384 1.499 . S
C1387 C1388 1.373 . S
C1387 C1389 1.389 . S
C1388 H1361 0.950 . S
C1388 C1374 1.377 . S
C1388 C1387 1.373 . S
C1389 C1373 1.377 . S
C1389 C1387 1.389 . S
C1389 C1390 1.524 . S
C1390 C1389 1.524 . S
C1390 C1391 1.397 . S
C1390 C1395 1.363 . S
C1391 H1362 0.950 . S
C1391 C1390 1.397 . S
C1391 C1392 1.334 . S
C1392 H1363 0.950 . S
C1392 C1391 1.334 . S
C1392 C1393 1.287 . S
C1393 C1392 1.287 . S
C1393 C1394 1.524 . S
C1393 H1396 0.999 . S
C1394 H1364 0.950 . S
C1394 C1393 1.524 . S
C1394 C1395 1.415 . S
C1395 H1365 0.950 . S
C1395 C1390 1.363 . S
C1395 C1394 1.415 . S
H1396 C1393 0.999 . S
H1397 C1378 0.913 . S
H1398 C1416 0.951 . S
H1399 C1418 0.951 . S
H1400 C1420 0.950 . S
H1401 C1421 0.950 . S
H1402 C1423 0.950 . S
H1403 C1426 0.950 . S
H1404 C1427 0.950 . S
H1405 C1429 0.950 . S
H1406 C1430 0.950 . S
H1407 C1431 0.951 . S
H1408 C1433 0.951 . S
H1409 C1435 0.950 . S
H1410 C1436 0.950 . S
H1411 C1438 0.950 . S
H1412 C1441 0.950 . S
H1413 C1442 0.950 . S
H1414 C1444 0.950 . S
H1415 C1445 0.950 . S
C1416 H1398 0.951 . S
C1416 C1417 1.366 . S
C1416 C1418 1.388 . S
C1417 C1416 1.366 . S
C1417 C1421 1.385 . S
C1418 H1399 0.951 . S
C1418 C1416 1.388 . S
C1418 C1419 1.366 . S
C1419 C1418 1.366 . S
C1419 C1420 1.414 . S
C1419 C1422 1.499 . S
C1420 H1400 0.950 . S
C1420 C1419 1.414 . S
C1420 C1421 1.374 . S
C1421 H1401 0.950 . S
C1421 C1417 1.385 . S
C1421 C1420 1.374 . S
C1422 C1419 1.499 . S
C1422 C1423 1.373 . S
C1422 C1424 1.389 . S
C1423 H1402 0.950 . S
C1423 C1422 1.373 . S
C1423 C1439 1.377 . S
C1424 C1422 1.389 . S
C1424 C1425 1.524 . S
C1424 C1438 1.377 . S
C1425 C1424 1.524 . S
C1425 C1426 1.397 . S
C1425 C1430 1.363 . S
C1426 H1403 0.950 . S
C1426 C1425 1.397 . S
C1426 C1427 1.334 . S
C1427 H1404 0.950 . S
C1427 C1426 1.334 . S
C1427 C1428 1.287 . S
C1428 C1427 1.287 . S
C1428 C1429 1.524 . S
C1428 H1447 0.913 . S
C1429 H1405 0.950 . S
C1429 C1428 1.524 . S
C1429 C1430 1.415 . S
C1430 H1406 0.950 . S
C1430 C1425 1.363 . S
C1430 C1429 1.415 . S
C1431 H1407 0.951 . S
C1431 C1432 1.366 . S
C1431 C1433 1.388 . S
C1432 C1431 1.366 . S
C1432 C1436 1.385 . S
C1433 H1408 0.951 . S
C1433 C1431 1.388 . S
C1433 C1434 1.366 . S
C1434 C1433 1.366 . S
C1434 C1435 1.414 . S
C1434 C1437 1.499 . S
C1435 H1409 0.950 . S
C1435 C1434 1.414 . S
C1435 C1436 1.374 . S
C1436 H1410 0.950 . S
C1436 C1432 1.385 . S
C1436 C1435 1.374 . S
C1437 C1434 1.499 . S
C1437 C1438 1.373 . S
C1437 C1439 1.389 . S
C1438 H1411 0.950 . S
C1438 C1424 1.377 . S
C1438 C1437 1.373 . S
C1439 C1423 1.377 . S
C1439 C1437 1.389 . S
C1439 C1440 1.524 . S
C1440 C1439 1.524 . S
C1440 C1441 1.397 . S
C1440 C1445 1.363 . S
C1441 H1412 0.950 . S
C1441 C1440 1.397 . S
C1441 C1442 1.334 . S
C1442 H1413 0.950 . S
C1442 C1441 1.334 . S
C1442 C1443 1.287 . S
C1443 C1442 1.287 . S
C1443 C1444 1.524 . S
C1443 H1446 0.999 . S
C1444 H1414 0.950 . S
C1444 C1443 1.524 . S
C1444 C1445 1.415 . S
C1445 H1415 0.950 . S
C1445 C1440 1.363 . S
C1445 C1444 1.415 . S
H1446 C1443 0.999 . S
H1447 C1428 0.913 . S
C267 C76 1.733 1_545 S
C282 C97 1.810 1_545 S
C332 C137 1.824 . S
C317 C87 1.734 . S
C382 C177 1.827 . S
C367 C54 1.745 . S
C432 C217 1.817 1_455 S
C417 C65 1.737 1_455 S
C482 C106 1.816 1_565 S
C467 C32 1.739 1_545 S
C517 C43 1.740 . S
C532 C146 1.827 . S
C567 C10 1.743 . S
C582 C186 1.827 . S
C617 C21 1.737 . S
C632 C226 1.818 1_655 S
C682 C103 0.319 . S
C667 C60 0.383 . S
C732 C143 0.326 . S
C717 C71 0.391 . S
C782 C183 0.333 . S
C767 C82 0.389 . S
C817 C49 0.384 . S
C832 C223 0.319 . S
C867 C16 0.384 1_655 S
C882 C94 0.315 . S
C932 C134 0.325 . S
C917 C27 0.385 1_565 S
C982 C174 0.332 . S
C967 C38 0.399 . S
C1017 C5 0.391 . S
C1032 C214 0.328 . S
C1067 C59 1.893 . S
C1082 C107 2.074 . S
C1117 C70 1.873 . S
C1132 C147 2.062 . S
C1182 C187 2.050 . S
C1167 C81 1.862 . S
C1232 C227 2.069 . S
C1217 C48 1.875 . S
C1267 C15 1.892 1_655 S
C1282 C98 2.089 . S
C1332 C138 2.061 . S
C1317 C26 1.874 1_565 S
C1382 C178 2.049 . S
C1367 C37 1.864 . S
C1417 C4 1.884 . S
C1432 C218 2.075 . S
