# Generated by pormake.
# Topology pth, (4,4)-cn, num edge types: 1
# Building blocks:
#     Node 0, Type 0, BuildingBlock: AZAVOO_clean_sbu_0, # of connection points: 4
#     Node 1, Type 0, BuildingBlock: AZAVOO_clean_sbu_0, # of connection points: 4
#     Node 2, Type 0, BuildingBlock: AZAVOO_clean_sbu_0, # of connection points: 4
#     Node 3, Type 1, BuildingBlock: MUDLON_clean_linker_0, # of connection points: 4
#     Node 4, Type 1, BuildingBlock: MUDLON_clean_linker_0, # of connection points: 4
#     Node 5, Type 1, BuildingBlock: MUDLON_clean_linker_0, # of connection points: 4
#     Edge 6, Type (0, 1), BuildingBlock: KIFKEQ_clean_linker_1, # of connection points: 2
#     Edge 7, Type (0, 1), BuildingBlock: KIFKEQ_clean_linker_1, # of connection points: 2
#     Edge 8, Type (0, 1), BuildingBlock: KIFKEQ_clean_linker_1, # of connection points: 2
#     Edge 9, Type (0, 1), BuildingBlock: KIFKEQ_clean_linker_1, # of connection points: 2
#     Edge 10, Type (0, 1), BuildingBlock: KIFKEQ_clean_linker_1, # of connection points: 2
#     Edge 11, Type (0, 1), BuildingBlock: KIFKEQ_clean_linker_1, # of connection points: 2
#     Edge 12, Type (0, 1), BuildingBlock: KIFKEQ_clean_linker_1, # of connection points: 2
#     Edge 13, Type (0, 1), BuildingBlock: KIFKEQ_clean_linker_1, # of connection points: 2
#     Edge 14, Type (0, 1), BuildingBlock: KIFKEQ_clean_linker_1, # of connection points: 2
#     Edge 15, Type (0, 1), BuildingBlock: KIFKEQ_clean_linker_1, # of connection points: 2
#     Edge 16, Type (0, 1), BuildingBlock: KIFKEQ_clean_linker_1, # of connection points: 2
#     Edge 17, Type (0, 1), BuildingBlock: KIFKEQ_clean_linker_1, # of connection points: 2
# Relax obj value: 0.077
# Max RMSD: 0.215
# Mean RMSD: 0.136
data_MOF--net-pth--node1-AZAVOO_clean_sbu_0--node2-MUDLON_clean_linker_0--edge1-KIFKEQ_clean_linker_1
_symmetry_space_group_name_H-M    P1
_symmetry_Int_Tables_number       1
_symmetry_cell_setting            triclinic
loop_
_symmetry_equiv_pos_as_xyz
'x, y, z'
_cell_length_a     33.700016
_cell_length_b     34.268175
_cell_length_c     68.300555
_cell_angle_alpha  90.766887
_cell_angle_beta   92.589952
_cell_angle_gamma 121.76426
loop_
_atom_site_label
_atom_site_type_symbol
_atom_site_fract_x
_atom_site_fract_y
_atom_site_fract_z
_atom_type_partial_charge
Mg0 Mg 0.07069 0.06638 0.02833 0.0
O1 O 0.0129 0.01254 0.007 0.0
O2 O 0.99148 0.04715 0.98533 0.0
Mg3 Mg 0.03685 0.12455 -0.00716 0.0
C4 C 0.98761 0.0109 0.99218 0.0
C5 C 0.06542 0.97719 0.04139 0.0
O6 O 0.07638 0.97797 0.02313 0.0
O7 O 0.01802 0.07631 0.04405 0.0
O8 O 0.00205 0.11463 0.02199 0.0
O9 O 0.12476 0.0757 0.00768 0.0
O10 O 0.09118 0.11636 0.00772 0.0
C11 C 0.99728 0.09712 0.03878 0.0
C12 C 0.11976 0.10737 6e-05 0.0
O13 O 0.0603 0.009 0.04806 0.0
Mg14 Mg 0.95844 0.99143 0.35095 0.0
O15 O 0.02451 0.01885 0.37151 0.0
O16 O 0.03125 0.07646 0.39016 0.0
Mg17 Mg 0.96791 0.08267 0.38346 0.0
C18 C 0.04637 0.05107 0.38472 0.0
C19 C 0.97801 0.91667 0.33632 0.0
O20 O 0.95889 0.89898 0.35282 0.0
O21 O 0.99462 0.05602 0.33313 0.0
O22 O 0.99488 0.10831 0.35323 0.0
O23 O 0.91331 0.94041 0.37286 0.0
O24 O 0.92917 0.01161 0.37158 0.0
C25 C 0.00349 0.0966 0.33688 0.0
C26 C 0.90969 0.97334 0.38019 0.0
O27 O 0.98296 0.95462 0.33149 0.0
Mg28 Mg 0.98727 0.94455 0.67942 0.0
O29 O 0.03583 0.00454 0.70112 0.0
O30 O 0.99181 0.01251 0.72235 0.0
Mg31 Mg 0.91538 0.95673 0.7147 0.0
C32 C 0.03162 0.02503 0.71589 0.0
C33 C 0.04263 0.9661 0.64115 0.0
O34 O 1.0008 0.95027 0.63272 0.0
O35 O 0.96365 0.98834 0.66426 0.0
O36 O 0.91722 0.99143 0.68581 0.0
O37 O 0.99124 0.89475 0.69878 0.0
O38 O 0.93872 0.91464 0.7006 0.0
C39 C 0.93583 1.0009 0.66927 0.0
C40 C 0.95675 0.89223 0.70755 0.0
O41 O 0.04773 0.96802 0.65974 0.0
H42 H 0.98915 0.68694 0.19292 0.0
N43 N 0.06689 0.68326 0.18627 0.0
H44 H 0.97776 0.72277 0.2213 0.0
H45 H 0.12436 0.72243 0.21809 0.0
H46 H 0.11313 0.75888 0.24678 0.0
H47 H 0.13674 0.7572 0.17127 0.0
H48 H 0.13272 0.79879 0.14318 0.0
H49 H 0.99022 0.65481 0.1609 0.0
H50 H 0.98584 0.69604 0.13272 0.0
H51 H 0.97867 0.613 0.19473 0.0
H52 H 0.11121 0.64255 0.17509 0.0
H53 H 0.95087 0.5319 0.19464 0.0
H54 H 0.08246 0.56048 0.17367 0.0
H55 H 0.90919 0.31667 0.2232 0.0
H56 H 0.93436 0.28433 0.24909 0.0
H57 H 0.0539 0.31413 0.21673 0.0
H58 H 0.02772 0.34492 0.19077 0.0
H59 H 0.00637 0.37025 0.1593 0.0
H60 H 0.998 0.32025 0.1316 0.0
H61 H 0.86412 0.21402 0.15068 0.0
H62 H 0.87299 0.26442 0.17854 0.0
H63 H 0.89779 0.38363 0.17852 0.0
H64 H 0.92545 0.46496 0.17565 0.0
H65 H 0.06543 0.50015 0.19399 0.0
N66 N 0.94697 0.34646 0.18909 0.0
H67 H 0.03823 0.41945 0.19554 0.0
C68 C 0.05772 0.70172 0.20341 0.0
C69 C 0.01625 0.70194 0.20464 0.0
C70 C 0.00965 0.72236 0.22095 0.0
C71 C 0.04449 0.7435 0.23628 0.0
C72 C 0.08578 0.74302 0.23512 0.0
C73 C 0.09215 0.72209 0.21885 0.0
C74 C 0.06399 0.70315 0.16821 0.0
C75 C 0.10395 0.74332 0.16267 0.0
C76 C 0.10156 0.76689 0.1466 0.0
C77 C 0.05889 0.75077 0.13577 0.0
C78 C 0.01908 0.70955 0.14092 0.0
C79 C 0.0216 0.68583 0.15696 0.0
C80 C 0.04775 0.63434 0.18531 0.0
C81 C 0.0019 0.60223 0.19028 0.0
C82 C 0.98566 0.55536 0.18996 0.0
C83 C 0.0144 0.53929 0.18427 0.0
C84 C 0.05962 0.57145 0.17861 0.0
C85 C 0.07607 0.61838 0.17924 0.0
C86 C 0.96635 0.33326 0.2051 0.0
C87 C 0.94117 0.31681 0.2219 0.0
C88 C 0.95577 0.29852 0.23668 0.0
C89 C 0.99612 0.29648 0.23495 0.0
C90 C 0.0223 0.31452 0.21839 0.0
C91 C 0.00751 0.33254 0.20358 0.0
C92 C 0.94003 0.32103 0.17096 0.0
C93 C 0.97472 0.33668 0.15729 0.0
C94 C 0.96986 0.30801 0.14144 0.0
C95 C 0.93046 0.26311 0.13903 0.0
C96 C 0.89506 0.24825 0.15228 0.0
C97 C 0.89983 0.27704 0.16806 0.0
C98 C 0.96536 0.39502 0.18753 0.0
C99 C 0.93447 0.40903 0.18181 0.0
C100 C 0.95037 0.45561 0.18033 0.0
C101 C 0.99772 0.48946 0.18477 0.0
C102 C 0.02886 0.47527 0.1902 0.0
C103 C 0.01304 0.42867 0.19137 0.0
H104 H 0.79937 0.16702 0.53208 0.0
N105 N 0.71175 0.10938 0.5182 0.0
H106 H 0.83964 0.15734 0.56069 0.0
H107 H 0.66986 0.04646 0.54639 0.0
H108 H 0.7101 0.03596 0.57468 0.0
H109 H 0.67753 0.01667 0.51614 0.0
H110 H 0.69945 0.97689 0.49313 0.0
H111 H 0.75945 0.14271 0.48634 0.0
H112 H 0.77941 0.10213 0.46258 0.0
H113 H 0.68866 0.15582 0.54215 0.0
H114 H 0.63143 0.05406 0.49403 0.0
H115 H 0.61563 0.15417 0.54198 0.0
H116 H 0.55999 0.05439 0.49324 0.0
H117 H 0.40193 0.16524 0.53823 0.0
H118 H 0.34291 0.13915 0.56256 0.0
H119 H 0.30491 0.99908 0.55049 0.0
H120 H 0.3628 0.02534 0.52592 0.0
H121 H 0.35768 0.03528 0.49129 0.0
H122 H 0.30432 0.02834 0.46418 0.0
H123 H 0.36465 0.1751 0.46811 0.0
H124 H 0.41803 0.18173 0.49534 0.0
H125 H 0.50314 0.18211 0.52169 0.0
H126 H 0.57423 0.17946 0.52307 0.0
H127 H 0.49103 0.03327 0.50906 0.0
N128 N 0.41611 0.11354 0.5139 0.0
H129 H 0.42089 0.03699 0.50666 0.0
C130 C 0.73192 0.10734 0.53699 0.0
C131 C 0.77951 0.13911 0.54166 0.0
C132 C 0.80238 0.13353 0.55795 0.0
C133 C 0.77799 0.09562 0.5697 0.0
C134 C 0.72973 0.06518 0.56568 0.0
C135 C 0.70674 0.07118 0.54956 0.0
C136 C 0.71787 0.08317 0.5032 0.0
C137 C 0.69991 0.03576 0.50459 0.0
C138 C 0.71209 0.0129 0.49138 0.0
C139 C 0.74115 0.03665 0.47625 0.0
C140 C 0.75675 0.08319 0.47414 0.0
C141 C 0.74546 0.10632 0.48763 0.0
C142 C 0.66615 0.10433 0.51858 0.0
C143 C 0.66039 0.13268 0.53172 0.0
C144 C 0.61869 0.13222 0.5314 0.0
C145 C 0.58178 0.10424 0.51754 0.0
C146 C 0.58723 0.07573 0.50438 0.0
C147 C 0.62874 0.07572 0.50485 0.0
C148 C 0.38702 0.09751 0.53032 0.0
C149 C 0.38149 0.12906 0.5412 0.0
C150 C 0.34781 0.11404 0.5551 0.0
C151 C 0.31892 0.06694 0.55837 0.0
C152 C 0.32608 0.03552 0.54809 0.0
C153 C 0.35967 0.05061 0.53414 0.0
C154 C 0.39197 0.10923 0.49534 0.0
C155 C 0.36064 0.06616 0.48594 0.0
C156 C 0.33003 0.0622 0.47041 0.0
C157 C 0.33001 0.10112 0.4642 0.0
C158 C 0.36357 0.14447 0.47276 0.0
C159 C 0.39427 0.14839 0.48816 0.0
C160 C 0.45676 0.10994 0.51425 0.0
C161 C 0.50048 0.14961 0.51886 0.0
C162 C 0.54096 0.14784 0.51983 0.0
C163 C 0.53848 0.106 0.5164 0.0
C164 C 0.49443 0.06617 0.51164 0.0
C165 C 0.45398 0.06816 0.51045 0.0
H166 H 0.71495 0.68343 0.87047 0.0
N167 N 0.725 0.6093 0.86793 0.0
H168 H 0.75137 0.74521 0.89565 0.0
H169 H 0.76843 0.61058 0.90173 0.0
H170 H 0.80375 0.67171 0.92758 0.0
H171 H 0.81192 0.63783 0.85886 0.0
H172 H 0.85379 0.68483 0.83168 0.0
H173 H 0.68733 0.63377 0.83756 0.0
H174 H 0.72741 0.67729 0.80958 0.0
H175 H 0.64919 0.60508 0.88504 0.0
H176 H 0.68735 0.53339 0.84484 0.0
H177 H 0.56777 0.54779 0.87812 0.0
H178 H 0.60484 0.47698 0.83692 0.0
H179 H 0.29543 0.35185 0.84864 0.0
H180 H 0.24912 0.30347 0.87455 0.0
H181 H 0.36997 0.30327 0.89873 0.0
H182 H 0.41439 0.34793 0.87198 0.0
H183 H 0.37118 0.2941 0.83405 0.0
H184 H 0.32339 0.24035 0.80687 0.0
H185 H 0.30765 0.34576 0.78041 0.0
H186 H 0.35394 0.39863 0.80821 0.0
H187 H 0.42406 0.46783 0.84808 0.0
H188 H 0.50747 0.52389 0.85425 0.0
H189 H 0.53577 0.41522 0.84731 0.0
N190 N 0.3824 0.3781 0.84119 0.0
H191 H 0.45257 0.36029 0.8399 0.0
C192 C 0.73936 0.64243 0.88416 0.0
C193 C 0.73384 0.68034 0.88298 0.0
C194 C 0.75441 0.71554 0.89753 0.0
C195 C 0.78086 0.71367 0.91361 0.0
C196 C 0.78429 0.67462 0.91523 0.0
C197 C 0.7638 0.63945 0.90061 0.0
C198 C 0.74651 0.63181 0.85024 0.0
C199 C 0.79331 0.64604 0.848 0.0
C200 C 0.81707 0.67275 0.83236 0.0
C201 C 0.79419 0.68524 0.81836 0.0
C202 C 0.74665 0.66941 0.82025 0.0
C203 C 0.72329 0.64369 0.83614 0.0
C204 C 0.67544 0.57453 0.86516 0.0
C205 C 0.6406 0.57754 0.87452 0.0
C206 C 0.59333 0.54454 0.87041 0.0
C207 C 0.57929 0.50797 0.85666 0.0
C208 C 0.61404 0.50431 0.84771 0.0
C209 C 0.66137 0.5368 0.85212 0.0
C210 C 0.35852 0.35416 0.85825 0.0
C211 C 0.31191 0.34155 0.85965 0.0
C212 C 0.28556 0.314 0.87459 0.0
C213 C 0.30558 0.29919 0.88891 0.0
C214 C 0.35281 0.31296 0.8878 0.0
C215 C 0.37876 0.33946 0.87252 0.0
C216 C 0.3654 0.35017 0.82324 0.0
C217 C 0.35854 0.30599 0.82212 0.0
C218 C 0.33121 0.27529 0.8065 0.0
C219 C 0.31078 0.28841 0.79163 0.0
C220 C 0.3218 0.33415 0.79187 0.0
C221 C 0.34866 0.3646 0.8076 0.0
C222 C 0.43214 0.41008 0.84368 0.0
C223 C 0.44851 0.45642 0.8477 0.0
C224 C 0.49618 0.48824 0.85146 0.0
C225 C 0.52865 0.47418 0.85163 0.0
C226 C 0.51212 0.42761 0.84714 0.0
C227 C 0.4644 0.39596 0.84298 0.0
H228 H 0.93871 0.1285 0.03169 0.0
H229 H 0.99943 0.08937 0.07867 0.0
H230 H 0.91146 0.16098 0.05564 0.0
H231 H 0.97277 0.12262 0.1026 0.0
H232 H 0.9047 0.17349 0.14242 0.0
H233 H 0.90831 0.12319 0.11783 0.0
H234 H 0.95649 0.23105 0.07642 0.0
H235 H 0.95161 0.28068 0.10078 0.0
C236 C 0.94556 0.12608 0.04714 0.0
C237 C 0.97202 0.10708 0.05326 0.0
C238 C 0.9301 0.14491 0.06085 0.0
C239 C 0.9408 0.14523 0.08098 0.0
C240 C 0.96386 0.12284 0.08719 0.0
C241 C 0.97924 0.10383 0.07345 0.0
C242 C 0.91502 0.18602 0.12791 0.0
C243 C 0.92805 0.2311 0.12353 0.0
C244 C 0.91748 0.15736 0.1139 0.0
C245 C 0.93274 0.17312 0.0952 0.0
C246 C 0.94401 0.2176 0.09061 0.0
C247 C 0.94175 0.24627 0.10462 0.0
H248 H 0.81824 0.91099 0.38487 0.0
H249 H 0.9423 0.02597 0.41376 0.0
H250 H 0.7707 0.91557 0.41002 0.0
H251 H 0.89526 0.0295 0.43922 0.0
H252 H 0.79277 1.00044 0.48761 0.0
H253 H 0.83097 0.97319 0.46637 0.0
H254 H 0.7662 0.99525 0.41531 0.0
H255 H 0.72925 0.02389 0.43652 0.0
C256 C 0.83542 0.93592 0.39705 0.0
C257 C 0.88368 0.96805 0.39757 0.0
C258 C 0.80833 0.9387 0.41129 0.0
C259 C 0.82954 0.97284 0.42645 0.0
C260 C 0.87831 0.00265 0.42774 0.0
C261 C 0.90512 1.00068 0.41324 0.0
C262 C 0.78606 0.99852 0.47186 0.0
C263 C 0.7583 0.01418 0.46358 0.0
C264 C 0.80781 0.983 0.45979 0.0
C265 C 0.80106 0.98188 0.43932 0.0
C266 C 0.7713 0.99527 0.43109 0.0
C267 C 0.75047 0.01183 0.44314 0.0
H268 H 0.92693 0.91297 0.74022 0.0
H269 H 0.94581 0.80924 0.71387 0.0
H270 H 0.89151 0.86469 0.76777 0.0
H271 H 0.90772 0.75926 0.74077 0.0
H272 H 0.86593 0.69016 0.79845 0.0
H273 H 0.91012 0.74297 0.77342 0.0
H274 H 0.8227 0.8004 0.77568 0.0
H275 H 0.78198 0.75117 0.802 0.0
C276 C 0.923 0.87954 0.74027 0.0
C277 C 0.93852 0.86452 0.72488 0.0
C278 C 0.90244 0.85163 0.75601 0.0
C279 C 0.89583 0.8075 0.75645 0.0
C280 C 0.91259 0.79311 0.74117 0.0
C281 C 0.93423 0.8216 0.72567 0.0
C282 C 0.85667 0.71463 0.79389 0.0
C283 C 0.82016 0.71612 0.80236 0.0
C284 C 0.88163 0.74456 0.77924 0.0
C285 C 0.87021 0.77622 0.77241 0.0
C286 C 0.83336 0.77729 0.78074 0.0
C287 C 0.80912 0.74812 0.79564 0.0
H288 H 0.03935 0.96331 0.07925 0.0
H289 H 0.08057 0.9082 0.03252 0.0
H290 H 0.03455 0.90493 0.10073 0.0
H291 H 0.07524 0.84949 0.054 0.0
H292 H 0.12 0.79484 0.10722 0.0
H293 H 0.11859 0.84695 0.08357 0.0
H294 H 0.98867 0.82139 0.10503 0.0
H295 H 0.99073 0.77024 0.12901 0.0
C296 C 0.04708 0.93857 0.07351 0.0
C297 C 0.06055 0.94056 0.05419 0.0
C298 C 0.04402 0.90491 0.08579 0.0
C299 C 0.05452 0.87259 0.07906 0.0
C300 C 0.06739 0.8742 0.05967 0.0
C301 C 0.07024 0.90774 0.04735 0.0
C302 C 0.09107 0.80024 0.10682 0.0
C303 C 0.05559 0.77858 0.12003 0.0
C304 C 0.09004 0.82976 0.09317 0.0
C305 C 0.05363 0.83845 0.0925 0.0
C306 C 0.01746 0.81578 0.10534 0.0
C307 C 0.01837 0.78608 0.11892 0.0
H308 H 0.11721 0.13094 0.40217 0.0
H309 H 0.07587 0.99059 0.38851 0.0
H310 H 0.18873 0.14491 0.4191 0.0
H311 H 0.14659 0.00377 0.4064 0.0
H312 H 0.29523 0.05096 0.42923 0.0
H313 H 0.22927 0.04033 0.40811 0.0
H314 H 0.211 0.12681 0.44872 0.0
H315 H 0.27738 0.1385 0.46915 0.0
C316 C 0.12332 0.10294 0.40291 0.0
C317 C 0.0907 0.05954 0.39419 0.0
C318 C 0.16428 0.11086 0.41272 0.0
C319 C 0.17329 0.07531 0.41443 0.0
C320 C 0.14115 0.03213 0.40524 0.0
C321 C 0.10044 0.02443 0.39509 0.0
C322 C 0.2772 0.06793 0.43344 0.0
C323 C 0.29176 0.09602 0.45067 0.0
C324 C 0.23928 0.06167 0.42144 0.0
C325 C 0.21481 0.0829 0.4266 0.0
C326 C 0.22958 0.11087 0.44391 0.0
C327 C 0.26768 0.11755 0.4557 0.0
H328 H 0.03695 0.07615 0.7481 0.0
H329 H 0.12282 0.06387 0.70629 0.0
H330 H 0.10633 0.14108 0.76453 0.0
H331 H 0.19241 0.12973 0.72264 0.0
H332 H 0.30701 0.21466 0.77293 0.0
H333 H 0.24056 0.15171 0.75365 0.0
H334 H 0.16441 0.22031 0.75898 0.0
H335 H 0.22943 0.28176 0.77889 0.0
C336 C 0.07057 0.08739 0.74232 0.0
C337 C 0.07417 0.06471 0.72583 0.0
C338 C 0.1104 0.1249 0.75169 0.0
C339 C 0.1549 0.14084 0.7448 0.0
C340 C 0.15867 0.11809 0.72838 0.0
C341 C 0.11873 0.08046 0.71897 0.0
C342 C 0.27613 0.21634 0.76991 0.0
C343 C 0.27362 0.25328 0.77755 0.0
C344 C 0.23821 0.18047 0.75873 0.0
C345 C 0.19699 0.18076 0.75498 0.0
C346 C 0.19533 0.21863 0.76189 0.0
C347 C 0.23304 0.25432 0.77306 0.0
H348 H 0.89533 0.05059 0.67636 0.0
H349 H 0.94198 1.00119 0.6295 0.0
H350 H 0.861 0.07813 0.65217 0.0
H351 H 0.9071 0.0283 0.60542 0.0
H352 H 0.7743 0.01528 0.57397 0.0
H353 H 0.81864 0.99835 0.59793 0.0
H354 H 0.88436 0.13603 0.62346 0.0
H355 H 0.84014 0.15325 0.59921 0.0
C356 C 0.89882 0.04617 0.66093 0.0
C357 C 0.92105 0.02337 0.65484 0.0
C358 C 0.87934 0.0621 0.64712 0.0
C359 C 0.8811 0.05489 0.62699 0.0
C360 C 0.90497 0.03386 0.62089 0.0
C361 C 0.92513 0.01861 0.63468 0.0
C362 C 0.79799 0.04182 0.58478 0.0
C363 C 0.80362 0.08544 0.58488 0.0
C364 C 0.82369 0.03231 0.59832 0.0
C365 C 0.85508 0.06602 0.61241 0.0
C366 C 0.86035 0.10952 0.61271 0.0
C367 C 0.83518 0.11934 0.59889 0.0
H368 H 0.97525 0.92736 0.0004 0.0
H369 H 0.92318 0.99161 0.96173 0.0
H370 H 0.92211 0.85342 0.98338 0.0
H371 H 0.87039 0.91758 0.94463 0.0
H372 H 0.86946 0.74928 0.92997 0.0
H373 H 0.91619 0.81907 0.95053 0.0
H374 H 0.80063 0.84024 0.94923 0.0
H375 H 0.75334 0.76979 0.92884 0.0
C376 C 0.95237 0.92577 0.98833 0.0
C377 C 0.95371 0.96559 0.98238 0.0
C378 C 0.92205 0.88337 0.97854 0.0
C379 C 0.89217 0.87969 0.96264 0.0
C380 C 0.89266 0.91922 0.95697 0.0
C381 C 0.92317 0.96172 0.96669 0.0
C382 C 0.85352 0.76813 0.93441 0.0
C383 C 0.80759 0.75386 0.9277 0.0
C384 C 0.88043 0.80827 0.94616 0.0
C385 C 0.86217 0.83528 0.95142 0.0
C386 C 0.81587 0.82048 0.94517 0.0
C387 C 0.78882 0.78014 0.93349 0.0
H388 H 0.02589 0.9471 0.30305 0.0
H389 H 0.96127 0.82991 0.33969 0.0
H390 H 0.04506 0.90461 0.28041 0.0
H391 H 0.98073 0.78757 0.31704 0.0
H392 H 0.96712 0.71265 0.25729 0.0
H393 H 0.95423 0.75482 0.28274 0.0
H394 H 0.09483 0.8707 0.2784 0.0
H395 H 0.10747 0.8287 0.2527 0.0
C396 C 0.01606 0.9124 0.30635 0.0
C397 C 0.99183 0.8918 0.32312 0.0
C398 C 0.02733 0.88819 0.29344 0.0
C399 C 0.01433 0.84275 0.29695 0.0
C400 C 0.9908 0.8224 0.31388 0.0
C401 C 0.97985 0.84674 0.32688 0.0
C402 C 0.99531 0.74705 0.26185 0.0
C403 C 0.03822 0.76748 0.25296 0.0
C404 C 0.98808 0.77104 0.27653 0.0
C405 C 0.02348 0.81611 0.28251 0.0
C406 C 0.06679 0.83615 0.27396 0.0
C407 C 0.07416 0.81198 0.25939 0.0
H408 H 0.13271 0.99722 0.65418 0.0
H409 H 0.04496 0.96838 0.60117 0.0
H410 H 0.19969 0.0202 0.63463 0.0
H411 H 0.11229 0.99241 0.58164 0.0
H412 H 0.2302 0.99233 0.55208 0.0
H413 H 0.16416 0.96726 0.57243 0.0
H414 H 0.25116 0.08089 0.61378 0.0
H415 H 0.31789 0.10481 0.59384 0.0
C416 C 0.12773 0.99599 0.63835 0.0
C417 C 0.08343 0.98087 0.62923 0.0
C418 C 0.16623 0.00941 0.62715 0.0
C419 C 0.16136 0.00809 0.60657 0.0
C420 C 0.11709 0.99317 0.59746 0.0
C421 C 0.07855 0.97968 0.60866 0.0
C422 C 0.23553 0.0115 0.5657 0.0
C423 C 0.27942 0.05051 0.57136 0.0
C424 C 0.19745 0.99751 0.57721 0.0
C425 C 0.20227 0.02225 0.59465 0.0
C426 C 0.24633 0.06085 0.6005 0.0
C427 C 0.28448 0.07482 0.58898 0.0
H428 H 0.14297 0.19306 0.9912 0.0
H429 H 0.156 0.08041 0.97141 0.0
H430 H 0.18809 0.2383 0.96464 0.0
H431 H 0.19865 0.1245 0.94365 0.0
H432 H 0.3124 0.23136 0.90704 0.0
H433 H 0.26846 0.18521 0.93372 0.0
H434 H 0.18646 0.24878 0.93184 0.0
H435 H 0.23382 0.2985 0.90687 0.0
C436 C 0.15489 0.17769 0.98087 0.0
C437 C 0.14592 0.13322 0.98329 0.0
C438 C 0.18052 0.20353 0.96547 0.0
C439 C 0.19682 0.18513 0.95169 0.0
C440 C 0.18741 0.14025 0.95407 0.0
C441 C 0.16267 0.11475 0.96987 0.0
C442 C 0.28574 0.23635 0.91259 0.0
C443 C 0.27725 0.26929 0.90477 0.0
C444 C 0.25973 0.20901 0.92771 0.0
C445 C 0.22377 0.2131 0.93514 0.0
C446 C 0.21449 0.24516 0.92693 0.0
C447 C 0.24123 0.27326 0.9122 0.0
H448 H 0.98994 0.07868 0.29722 0.0
H449 H 0.05025 0.18985 0.34119 0.0
H450 H 0.99811 0.13194 0.27217 0.0
H451 H 0.06011 0.2435 0.31607 0.0
H452 H 0.02902 0.23955 0.22873 0.0
H453 H 0.04436 0.19663 0.25286 0.0
H454 H 0.00513 0.25572 0.29873 0.0
H455 H 0.99242 0.30045 0.27483 0.0
C456 C 0.00639 0.11477 0.30142 0.0
C457 C 0.01872 0.12997 0.3212 0.0
C458 C 0.01117 0.14541 0.28705 0.0
C459 C 0.0289 0.19192 0.29217 0.0
C460 C 0.04508 0.2077 0.31171 0.0
C461 C 0.03976 0.17702 0.32608 0.0
C462 C 0.02482 0.24428 0.24404 0.0
C463 C 0.00922 0.2733 0.24983 0.0
C464 C 0.03311 0.21922 0.25784 0.0
C465 C 0.0258 0.22247 0.27774 0.0
C466 C 0.01177 0.25274 0.28359 0.0
C467 C 0.00375 0.27793 0.26982 0.0
loop_
_geom_bond_atom_site_label_1
_geom_bond_atom_site_label_2
_geom_bond_distance
_geom_bond_site_symmetry_2
_ccdc_geom_bond_type
Mg0 O1 2.028 1_545 S
Mg0 O7 1.986 . S
Mg0 O9 2.114 . S
Mg0 O10 2.251 . S
Mg0 O13 2.010 1_545 S
O1 Mg0 2.028 1_565 S
O1 C4 1.250 1_455 S
O2 Mg3 2.028 1_656 S
O2 C4 1.248 1_546 S
Mg3 O2 2.028 1_454 S
Mg3 O8 2.032 . S
Mg3 O10 2.079 . S
C4 O1 1.250 1_655 S
C4 O2 1.248 1_564 S
C5 O6 1.264 . S
C5 O13 1.249 . S
O6 C5 1.264 . S
O7 Mg0 1.986 . S
O7 C11 1.246 . S
O8 Mg3 2.032 . S
O8 C11 1.259 . S
O9 Mg0 2.114 . S
O9 C12 1.252 . S
O10 Mg0 2.251 . S
O10 Mg3 2.079 . S
O10 C12 1.273 . S
C11 O7 1.246 . S
C11 O8 1.259 . S
C12 O9 1.252 . S
C12 O10 1.273 . S
O13 Mg0 2.010 1_565 S
O13 C5 1.249 . S
Mg14 O15 2.028 1_665 S
Mg14 O21 1.986 1_665 S
Mg14 O23 2.114 . S
Mg14 O24 2.251 1_565 S
Mg14 O27 2.010 . S
O15 Mg14 2.028 1_445 S
O15 C18 1.250 . S
O16 Mg17 2.028 . S
O16 C18 1.248 . S
Mg17 O16 2.028 . S
Mg17 O22 2.032 . S
Mg17 O24 2.079 1_455 S
C18 O15 1.250 . S
C18 O16 1.248 . S
C19 O20 1.264 . S
C19 O27 1.249 . S
O20 C19 1.264 . S
O21 Mg14 1.986 1_445 S
O21 C25 1.246 . S
O22 Mg17 2.032 . S
O22 C25 1.259 . S
O23 Mg14 2.114 . S
O23 C26 1.252 . S
O24 Mg14 2.251 1_545 S
O24 Mg17 2.079 1_655 S
O24 C26 1.273 1_545 S
C25 O21 1.246 . S
C25 O22 1.259 . S
C26 O23 1.252 . S
C26 O24 1.273 1_565 S
O27 Mg14 2.010 . S
O27 C19 1.249 . S
Mg28 O29 2.028 1_565 S
Mg28 O35 1.986 1_465 S
Mg28 O37 2.114 . S
Mg28 O38 2.251 1_455 S
Mg28 O41 2.010 . S
O29 Mg28 2.028 1_545 S
O29 C32 1.250 . S
O30 Mg31 2.028 1_455 S
O30 C32 1.248 . S
Mg31 O30 2.028 1_655 S
Mg31 O36 2.032 . S
Mg31 O38 2.079 1_545 S
C32 O29 1.250 . S
C32 O30 1.248 . S
C33 O34 1.264 . S
C33 O41 1.249 . S
O34 C33 1.264 . S
O35 Mg28 1.986 1_645 S
O35 C39 1.246 . S
O36 Mg31 2.032 . S
O36 C39 1.259 . S
O37 Mg28 2.114 . S
O37 C40 1.252 1_455 S
O38 Mg28 2.251 1_655 S
O38 Mg31 2.079 1_565 S
O38 C40 1.273 . S
C39 O35 1.246 . S
C39 O36 1.259 . S
C40 O37 1.252 1_655 S
C40 O38 1.273 . S
O41 Mg28 2.010 . S
O41 C33 1.249 . S
H42 C69 0.929 . S
N43 C68 1.433 . S
N43 C74 1.435 . S
N43 C80 1.434 1_455 S
H44 C70 0.930 . S
H45 C73 0.931 . S
H46 C72 0.929 . S
H47 C75 0.930 . S
H48 C76 0.932 . S
H49 C79 0.929 . S
H50 C78 0.931 . S
H51 C81 0.929 . S
H52 C85 0.932 . S
H53 C82 0.931 . S
H54 C84 0.929 . S
H55 C87 0.929 . S
H56 C88 0.930 . S
H57 C90 0.929 . S
H58 C91 0.931 . S
H59 C93 0.930 . S
H60 C94 0.932 . S
H61 C96 0.931 . S
H62 C97 0.929 . S
H63 C99 0.929 . S
H64 C100 0.931 . S
H65 C102 0.929 . S
N66 C86 1.433 . S
N66 C92 1.435 . S
N66 C98 1.407 1_455 S
H67 C103 0.932 . S
C68 N43 1.433 . S
C68 C69 1.363 1_455 S
C68 C73 1.370 . S
C69 H42 0.929 . S
C69 C68 1.363 1_655 S
C69 C70 1.385 . S
C70 H44 0.930 . S
C70 C69 1.385 . S
C70 C71 1.357 1_655 S
C71 C70 1.357 1_455 S
C71 C72 1.406 . S
C72 H46 0.929 . S
C72 C71 1.406 . S
C72 C73 1.391 . S
C73 H45 0.931 . S
C73 C68 1.370 . S
C73 C72 1.391 . S
C74 N43 1.435 . S
C74 C75 1.358 . S
C74 C79 1.371 1_455 S
C75 H47 0.930 . S
C75 C74 1.358 . S
C75 C76 1.405 . S
C76 H48 0.932 . S
C76 C75 1.405 . S
C76 C77 1.383 . S
C77 C76 1.383 . S
C77 C78 1.393 1_455 S
C78 H50 0.931 . S
C78 C77 1.393 1_655 S
C78 C79 1.382 . S
C79 H49 0.929 . S
C79 C74 1.371 1_655 S
C79 C78 1.382 . S
C80 N43 1.434 1_655 S
C80 C81 1.370 . S
C80 C85 1.369 1_655 S
C81 H51 0.929 . S
C81 C80 1.370 . S
C81 C82 1.376 . S
C82 H53 0.931 . S
C82 C81 1.376 . S
C82 C83 1.396 . S
C83 C82 1.396 . S
C83 C84 1.348 1_655 S
C83 C101 1.472 . S
C84 H54 0.929 . S
C84 C83 1.348 1_455 S
C84 C85 1.443 . S
C85 H52 0.932 . S
C85 C80 1.369 1_455 S
C85 C84 1.443 . S
C86 N66 1.433 . S
C86 C87 1.363 1_455 S
C86 C91 1.370 . S
C87 H55 0.929 . S
C87 C86 1.363 1_655 S
C87 C88 1.385 . S
C88 H56 0.930 . S
C88 C87 1.385 . S
C88 C89 1.357 1_655 S
C89 C88 1.357 1_455 S
C89 C90 1.406 . S
C90 H57 0.929 . S
C90 C89 1.406 . S
C90 C91 1.391 . S
C91 H58 0.931 . S
C91 C86 1.370 . S
C91 C90 1.391 . S
C92 N66 1.435 . S
C92 C93 1.358 . S
C92 C97 1.371 1_455 S
C93 H59 0.930 . S
C93 C92 1.358 . S
C93 C94 1.405 . S
C94 H60 0.932 . S
C94 C93 1.405 . S
C94 C95 1.383 . S
C95 C94 1.383 . S
C95 C96 1.393 1_455 S
C96 H61 0.931 . S
C96 C95 1.393 1_655 S
C96 C97 1.382 . S
C97 H62 0.929 . S
C97 C92 1.371 1_655 S
C97 C96 1.382 . S
C98 N66 1.407 1_655 S
C98 C99 1.384 . S
C98 C103 1.382 1_655 S
C99 H63 0.929 . S
C99 C98 1.384 . S
C99 C100 1.376 . S
C100 H64 0.931 . S
C100 C99 1.376 . S
C100 C101 1.396 . S
C101 C83 1.472 . S
C101 C100 1.396 . S
C101 C102 1.348 1_655 S
C102 H65 0.929 . S
C102 C101 1.348 1_455 S
C102 C103 1.443 . S
C103 H67 0.932 . S
C103 C98 1.382 1_455 S
C103 C102 1.443 . S
H104 C131 0.929 . S
N105 C130 1.433 . S
N105 C136 1.435 . S
N105 C142 1.423 . S
H106 C132 0.930 . S
H107 C135 0.931 . S
H108 C134 0.929 . S
H109 C137 0.939 . S
H110 C138 0.932 1_565 S
H111 C141 0.929 . S
H112 C140 0.931 . S
H113 C143 0.929 . S
H114 C147 0.932 . S
H115 C144 0.931 . S
H116 C146 0.929 . S
H117 C149 0.929 . S
H118 C150 0.930 . S
H119 C152 0.929 . S
H120 C153 0.931 . S
H121 C155 0.939 . S
H122 C156 0.932 1_565 S
H123 C158 0.931 . S
H124 C159 0.929 . S
H125 C161 0.929 . S
H126 C162 0.931 . S
H127 C164 0.929 . S
N128 C148 1.433 . S
N128 C154 1.435 . S
N128 C160 1.423 . S
H129 C165 0.932 . S
C130 N105 1.433 . S
C130 C131 1.363 . S
C130 C135 1.370 . S
C131 H104 0.929 . S
C131 C130 1.363 . S
C131 C132 1.385 . S
C132 H106 0.930 . S
C132 C131 1.385 . S
C132 C133 1.357 . S
C133 C132 1.357 . S
C133 C134 1.406 . S
C134 H108 0.929 . S
C134 C133 1.406 . S
C134 C135 1.391 . S
C135 H107 0.931 . S
C135 C130 1.370 . S
C135 C134 1.391 . S
C136 N105 1.435 . S
C136 C137 1.358 . S
C136 C141 1.371 . S
C137 H109 0.939 . S
C137 C136 1.358 . S
C137 C138 1.405 . S
C138 H110 0.932 1_545 S
C138 C137 1.405 . S
C138 C139 1.383 . S
C139 C138 1.383 . S
C139 C140 1.393 . S
C140 H112 0.931 . S
C140 C139 1.393 . S
C140 C141 1.382 . S
C141 H111 0.929 . S
C141 C136 1.371 . S
C141 C140 1.382 . S
C142 N105 1.423 . S
C142 C143 1.362 . S
C142 C147 1.388 . S
C143 H113 0.929 . S
C143 C142 1.362 . S
C143 C144 1.376 . S
C144 H115 0.931 . S
C144 C143 1.376 . S
C144 C145 1.396 . S
C145 C144 1.396 . S
C145 C146 1.348 . S
C145 C163 1.472 . S
C146 H116 0.929 . S
C146 C145 1.348 . S
C146 C147 1.443 . S
C147 H114 0.932 . S
C147 C142 1.388 . S
C147 C146 1.443 . S
C148 N128 1.433 . S
C148 C149 1.363 . S
C148 C153 1.370 . S
C149 H117 0.929 . S
C149 C148 1.363 . S
C149 C150 1.385 . S
C150 H118 0.930 . S
C150 C149 1.385 . S
C150 C151 1.357 . S
C151 C150 1.357 . S
C151 C152 1.406 . S
C152 H119 0.929 . S
C152 C151 1.406 . S
C152 C153 1.391 . S
C153 H120 0.931 . S
C153 C148 1.370 . S
C153 C152 1.391 . S
C154 N128 1.435 . S
C154 C155 1.358 . S
C154 C159 1.371 . S
C155 H121 0.939 . S
C155 C154 1.358 . S
C155 C156 1.405 . S
C156 H122 0.932 1_545 S
C156 C155 1.405 . S
C156 C157 1.383 . S
C157 C156 1.383 . S
C157 C158 1.393 . S
C158 H123 0.931 . S
C158 C157 1.393 . S
C158 C159 1.382 . S
C159 H124 0.929 . S
C159 C154 1.371 . S
C159 C158 1.382 . S
C160 N128 1.423 . S
C160 C161 1.362 . S
C160 C165 1.388 . S
C161 H125 0.929 . S
C161 C160 1.362 . S
C161 C162 1.376 . S
C162 H126 0.931 . S
C162 C161 1.376 . S
C162 C163 1.396 . S
C163 C145 1.472 . S
C163 C162 1.396 . S
C163 C164 1.348 . S
C164 H127 0.929 . S
C164 C163 1.348 . S
C164 C165 1.443 . S
C165 H129 0.932 . S
C165 C160 1.388 . S
C165 C164 1.443 . S
H166 C193 0.929 . S
N167 C192 1.433 . S
N167 C198 1.435 . S
N167 C204 1.423 . S
H168 C194 0.930 . S
H169 C197 0.931 . S
H170 C196 0.929 . S
H171 C199 0.930 . S
H172 C200 0.932 . S
H173 C203 0.929 . S
H174 C202 0.931 . S
H175 C205 0.929 . S
H176 C209 0.932 . S
H177 C206 0.931 . S
H178 C208 0.929 . S
H179 C211 0.929 . S
H180 C212 0.930 . S
H181 C214 0.929 . S
H182 C215 0.931 . S
H183 C217 0.930 . S
H184 C218 0.932 . S
H185 C220 0.931 . S
H186 C221 0.929 . S
H187 C223 0.929 . S
H188 C224 0.931 . S
H189 C226 0.929 . S
N190 C210 1.433 . S
N190 C216 1.435 . S
N190 C222 1.423 . S
H191 C227 0.932 . S
C192 N167 1.433 . S
C192 C193 1.363 . S
C192 C197 1.370 . S
C193 H166 0.929 . S
C193 C192 1.363 . S
C193 C194 1.385 . S
C194 H168 0.930 . S
C194 C193 1.385 . S
C194 C195 1.357 . S
C195 C194 1.357 . S
C195 C196 1.406 . S
C196 H170 0.929 . S
C196 C195 1.406 . S
C196 C197 1.391 . S
C197 H169 0.931 . S
C197 C192 1.370 . S
C197 C196 1.391 . S
C198 N167 1.435 . S
C198 C199 1.358 . S
C198 C203 1.371 . S
C199 H171 0.930 . S
C199 C198 1.358 . S
C199 C200 1.405 . S
C200 H172 0.932 . S
C200 C199 1.405 . S
C200 C201 1.383 . S
C201 C200 1.383 . S
C201 C202 1.393 . S
C202 H174 0.931 . S
C202 C201 1.393 . S
C202 C203 1.382 . S
C203 H173 0.929 . S
C203 C198 1.371 . S
C203 C202 1.382 . S
C204 N167 1.423 . S
C204 C205 1.362 . S
C204 C209 1.388 . S
C205 H175 0.929 . S
C205 C204 1.362 . S
C205 C206 1.376 . S
C206 H177 0.931 . S
C206 C205 1.376 . S
C206 C207 1.396 . S
C207 C206 1.396 . S
C207 C208 1.348 . S
C207 C225 1.472 . S
C208 H178 0.929 . S
C208 C207 1.348 . S
C208 C209 1.443 . S
C209 H176 0.932 . S
C209 C204 1.388 . S
C209 C208 1.443 . S
C210 N190 1.433 . S
C210 C211 1.363 . S
C210 C215 1.370 . S
C211 H179 0.929 . S
C211 C210 1.363 . S
C211 C212 1.385 . S
C212 H180 0.930 . S
C212 C211 1.385 . S
C212 C213 1.357 . S
C213 C212 1.357 . S
C213 C214 1.406 . S
C214 H181 0.929 . S
C214 C213 1.406 . S
C214 C215 1.391 . S
C215 H182 0.931 . S
C215 C210 1.370 . S
C215 C214 1.391 . S
C216 N190 1.435 . S
C216 C217 1.358 . S
C216 C221 1.371 . S
C217 H183 0.930 . S
C217 C216 1.358 . S
C217 C218 1.405 . S
C218 H184 0.932 . S
C218 C217 1.405 . S
C218 C219 1.383 . S
C219 C218 1.383 . S
C219 C220 1.393 . S
C220 H185 0.931 . S
C220 C219 1.393 . S
C220 C221 1.382 . S
C221 H186 0.929 . S
C221 C216 1.371 . S
C221 C220 1.382 . S
C222 N190 1.423 . S
C222 C223 1.362 . S
C222 C227 1.388 . S
C223 H187 0.929 . S
C223 C222 1.362 . S
C223 C224 1.376 . S
C224 H188 0.931 . S
C224 C223 1.376 . S
C224 C225 1.396 . S
C225 C207 1.472 . S
C225 C224 1.396 . S
C225 C226 1.348 . S
C226 H189 0.929 . S
C226 C225 1.348 . S
C226 C227 1.443 . S
C227 H191 0.932 . S
C227 C222 1.388 . S
C227 C226 1.443 . S
H228 C236 0.950 . S
H229 C241 0.950 1_655 S
H230 C238 0.950 . S
H231 C240 0.950 1_655 S
H232 C242 0.950 . S
H233 C244 0.950 . S
H234 C246 0.950 . S
H235 C247 0.950 . S
C236 H228 0.950 . S
C236 C237 1.386 . S
C236 C238 1.391 . S
C237 C236 1.386 . S
C237 C241 1.393 . S
C238 H230 0.950 . S
C238 C236 1.391 . S
C238 C239 1.400 . S
C239 C238 1.400 . S
C239 C240 1.398 . S
C239 C245 1.491 . S
C240 H231 0.950 1_455 S
C240 C239 1.398 . S
C240 C241 1.391 . S
C241 H229 0.950 1_455 S
C241 C237 1.393 . S
C241 C240 1.391 . S
C242 H232 0.950 . S
C242 C243 1.386 . S
C242 C244 1.391 . S
C243 C242 1.386 . S
C243 C247 1.393 . S
C244 H233 0.950 . S
C244 C242 1.391 . S
C244 C245 1.400 . S
C245 C239 1.491 . S
C245 C244 1.400 . S
C245 C246 1.398 . S
C246 H234 0.950 . S
C246 C245 1.398 . S
C246 C247 1.391 . S
C247 H235 0.950 . S
C247 C243 1.393 . S
C247 C246 1.391 . S
H248 C256 0.950 . S
H249 C261 0.950 . S
H250 C258 0.950 . S
H251 C260 0.950 . S
H252 C262 0.950 . S
H253 C264 0.950 . S
H254 C266 0.950 1_565 S
H255 C267 0.950 . S
C256 H248 0.950 . S
C256 C257 1.386 . S
C256 C258 1.391 . S
C257 C256 1.386 . S
C257 C261 1.393 1_565 S
C258 H250 0.950 . S
C258 C256 1.391 . S
C258 C259 1.400 1_565 S
C259 C258 1.400 1_545 S
C259 C260 1.398 . S
C259 C265 1.491 . S
C260 H251 0.950 . S
C260 C259 1.398 . S
C260 C261 1.391 . S
C261 H249 0.950 . S
C261 C257 1.393 1_545 S
C261 C260 1.391 . S
C262 H252 0.950 . S
C262 C263 1.386 . S
C262 C264 1.391 . S
C263 C262 1.386 . S
C263 C267 1.393 . S
C264 H253 0.950 . S
C264 C262 1.391 . S
C264 C265 1.400 . S
C265 C259 1.491 . S
C265 C264 1.400 . S
C265 C266 1.398 . S
C266 H254 0.950 1_545 S
C266 C265 1.398 . S
C266 C267 1.391 . S
C267 H255 0.950 . S
C267 C263 1.393 . S
C267 C266 1.391 . S
H268 C276 0.950 . S
H269 C281 0.950 . S
H270 C278 0.950 . S
H271 C280 0.950 . S
H272 C282 0.950 . S
H273 C284 0.950 . S
H274 C286 0.950 . S
H275 C287 0.950 . S
C276 H268 0.950 . S
C276 C277 1.386 . S
C276 C278 1.391 . S
C277 C276 1.386 . S
C277 C281 1.393 . S
C278 H270 0.950 . S
C278 C276 1.391 . S
C278 C279 1.400 . S
C279 C278 1.400 . S
C279 C280 1.398 . S
C279 C285 1.491 . S
C280 H271 0.950 . S
C280 C279 1.398 . S
C280 C281 1.391 . S
C281 H269 0.950 . S
C281 C277 1.393 . S
C281 C280 1.391 . S
C282 H272 0.950 . S
C282 C283 1.386 . S
C282 C284 1.391 . S
C283 C282 1.386 . S
C283 C287 1.393 . S
C284 H273 0.950 . S
C284 C282 1.391 . S
C284 C285 1.400 . S
C285 C279 1.491 . S
C285 C284 1.400 . S
C285 C286 1.398 . S
C286 H274 0.950 . S
C286 C285 1.398 . S
C286 C287 1.391 . S
C287 H275 0.950 . S
C287 C283 1.393 . S
C287 C286 1.391 . S
H288 C296 0.927 1_655 S
H289 C301 0.950 . S
H290 C298 0.950 1_655 S
H291 C300 0.950 . S
H292 C302 0.950 . S
H293 C304 0.950 . S
H294 C306 0.950 1_655 S
H295 C307 0.950 1_655 S
C296 H288 0.927 1_455 S
C296 C297 1.386 . S
C296 C298 1.391 . S
C297 C296 1.386 . S
C297 C301 1.393 . S
C298 H290 0.950 1_455 S
C298 C296 1.391 . S
C298 C299 1.400 . S
C299 C298 1.400 . S
C299 C300 1.398 . S
C299 C305 1.491 . S
C300 H291 0.950 . S
C300 C299 1.398 . S
C300 C301 1.391 . S
C301 H289 0.950 . S
C301 C297 1.393 . S
C301 C300 1.391 . S
C302 H292 0.950 . S
C302 C303 1.386 . S
C302 C304 1.391 . S
C303 C302 1.386 . S
C303 C307 1.393 . S
C304 H293 0.950 . S
C304 C302 1.391 . S
C304 C305 1.400 . S
C305 C299 1.491 . S
C305 C304 1.400 . S
C305 C306 1.398 . S
C306 H294 0.950 1_455 S
C306 C305 1.398 . S
C306 C307 1.391 . S
C307 H295 0.950 1_455 S
C307 C303 1.393 . S
C307 C306 1.391 . S
H308 C316 0.950 . S
H309 C321 0.950 . S
H310 C318 0.950 . S
H311 C320 0.972 . S
H312 C322 0.949 1_565 S
H313 C324 0.956 . S
H314 C326 0.950 . S
H315 C327 0.950 . S
C316 H308 0.950 . S
C316 C317 1.386 . S
C316 C318 1.391 . S
C317 C316 1.386 . S
C317 C321 1.393 1_545 S
C318 H310 0.950 . S
C318 C316 1.391 . S
C318 C319 1.400 . S
C319 C318 1.400 . S
C319 C320 1.390 1_545 S
C319 C325 1.491 . S
C320 H311 0.972 . S
C320 C319 1.390 1_565 S
C320 C321 1.379 . S
C321 H309 0.950 . S
C321 C317 1.393 1_565 S
C321 C320 1.379 . S
C322 H312 0.949 1_545 S
C322 C323 1.386 . S
C322 C324 1.399 1_545 S
C323 C322 1.386 . S
C323 C327 1.393 . S
C324 H313 0.956 . S
C324 C322 1.399 1_565 S
C324 C325 1.387 1_565 S
C325 C319 1.491 . S
C325 C324 1.387 1_545 S
C325 C326 1.398 . S
C326 H314 0.950 . S
C326 C325 1.398 . S
C326 C327 1.391 . S
C327 H315 0.950 . S
C327 C323 1.393 . S
C327 C326 1.391 . S
H328 C336 0.950 . S
H329 C341 0.950 . S
H330 C338 0.950 . S
H331 C340 0.950 . S
H332 C342 0.950 . S
H333 C344 0.950 . S
H334 C346 0.950 . S
H335 C347 0.950 . S
C336 H328 0.950 . S
C336 C337 1.386 . S
C336 C338 1.391 . S
C337 C336 1.386 . S
C337 C341 1.393 . S
C338 H330 0.950 . S
C338 C336 1.391 . S
C338 C339 1.400 . S
C339 C338 1.400 . S
C339 C340 1.398 . S
C339 C345 1.491 . S
C340 H331 0.950 . S
C340 C339 1.398 . S
C340 C341 1.391 . S
C341 H329 0.950 . S
C341 C337 1.393 . S
C341 C340 1.391 . S
C342 H332 0.950 . S
C342 C343 1.386 . S
C342 C344 1.391 . S
C343 C342 1.386 . S
C343 C347 1.393 . S
C344 H333 0.950 . S
C344 C342 1.391 . S
C344 C345 1.400 . S
C345 C339 1.491 . S
C345 C344 1.400 . S
C345 C346 1.398 . S
C346 H334 0.950 . S
C346 C345 1.398 . S
C346 C347 1.391 . S
C347 H335 0.950 . S
C347 C343 1.393 . S
C347 C346 1.391 . S
H348 C356 0.950 . S
H349 C361 0.950 1_565 S
H350 C358 0.950 . S
H351 C360 0.950 1_565 S
H352 C362 0.950 1_565 S
H353 C364 0.950 1_565 S
H354 C366 0.950 . S
H355 C367 0.950 . S
C356 H348 0.950 . S
C356 C357 1.386 . S
C356 C358 1.391 . S
C357 C356 1.386 . S
C357 C361 1.393 . S
C358 H350 0.950 . S
C358 C356 1.391 . S
C358 C359 1.400 . S
C359 C358 1.400 . S
C359 C360 1.398 . S
C359 C365 1.491 . S
C360 H351 0.950 1_545 S
C360 C359 1.398 . S
C360 C361 1.391 . S
C361 H349 0.950 1_545 S
C361 C357 1.393 . S
C361 C360 1.391 . S
C362 H352 0.950 1_545 S
C362 C363 1.386 . S
C362 C364 1.391 . S
C363 C362 1.386 . S
C363 C367 1.393 . S
C364 H353 0.950 1_545 S
C364 C362 1.391 . S
C364 C365 1.400 . S
C365 C359 1.491 . S
C365 C364 1.400 . S
C365 C366 1.398 . S
C366 H354 0.950 . S
C366 C365 1.398 . S
C366 C367 1.391 . S
C367 H355 0.950 . S
C367 C363 1.393 . S
C367 C366 1.391 . S
H368 C376 0.950 . S
H369 C381 0.950 . S
H370 C378 0.950 . S
H371 C380 0.950 . S
H372 C382 0.950 . S
H373 C384 0.950 . S
H374 C386 0.950 . S
H375 C387 0.950 . S
C376 H368 0.950 . S
C376 C377 1.386 1_554 S
C376 C378 1.391 1_554 S
C377 C376 1.386 1_556 S
C377 C381 1.393 . S
C378 H370 0.950 . S
C378 C376 1.391 1_556 S
C378 C379 1.400 . S
C379 C378 1.400 . S
C379 C380 1.398 . S
C379 C385 1.491 . S
C380 H371 0.950 . S
C380 C379 1.398 . S
C380 C381 1.391 . S
C381 H369 0.950 . S
C381 C377 1.393 . S
C381 C380 1.391 . S
C382 H372 0.950 . S
C382 C383 1.386 . S
C382 C384 1.391 . S
C383 C382 1.386 . S
C383 C387 1.393 . S
C384 H373 0.950 . S
C384 C382 1.391 . S
C384 C385 1.400 . S
C385 C379 1.491 . S
C385 C384 1.400 . S
C385 C386 1.398 . S
C386 H374 0.950 . S
C386 C385 1.398 . S
C386 C387 1.391 . S
C387 H375 0.950 . S
C387 C383 1.393 . S
C387 C386 1.391 . S
H388 C396 0.950 . S
H389 C401 0.950 1_455 S
H390 C398 0.950 . S
H391 C400 0.950 . S
H392 C402 0.950 . S
H393 C404 0.950 . S
H394 C406 0.950 . S
H395 C407 0.949 1_655 S
C396 H388 0.950 . S
C396 C397 1.386 . S
C396 C398 1.391 . S
C397 C396 1.386 . S
C397 C401 1.393 . S
C398 H390 0.950 . S
C398 C396 1.391 . S
C398 C399 1.400 . S
C399 C398 1.400 . S
C399 C400 1.398 1_655 S
C399 C405 1.491 1_655 S
C400 H391 0.950 . S
C400 C399 1.398 1_455 S
C400 C401 1.391 1_455 S
C401 H389 0.950 1_655 S
C401 C397 1.393 . S
C401 C400 1.391 1_655 S
C402 H392 0.950 . S
C402 C403 1.386 . S
C402 C404 1.391 . S
C403 C402 1.386 . S
C403 C407 1.393 . S
C404 H393 0.950 . S
C404 C402 1.391 . S
C404 C405 1.400 . S
C405 C399 1.491 1_455 S
C405 C404 1.400 . S
C405 C406 1.398 1_455 S
C406 H394 0.950 . S
C406 C405 1.398 1_655 S
C406 C407 1.391 1_655 S
C407 H395 0.949 1_455 S
C407 C403 1.393 . S
C407 C406 1.391 1_455 S
H408 C416 0.950 . S
H409 C421 0.950 . S
H410 C418 0.950 . S
H411 C420 0.950 . S
H412 C422 0.950 1_565 S
H413 C424 0.950 . S
H414 C426 0.950 . S
H415 C427 0.950 . S
C416 H408 0.950 . S
C416 C417 1.386 1_545 S
C416 C418 1.391 . S
C417 C416 1.386 1_565 S
C417 C421 1.393 . S
C418 H410 0.950 . S
C418 C416 1.391 . S
C418 C419 1.400 . S
C419 C418 1.400 . S
C419 C420 1.398 1_545 S
C419 C425 1.491 . S
C420 H411 0.950 . S
C420 C419 1.398 1_565 S
C420 C421 1.391 . S
C421 H409 0.950 . S
C421 C417 1.393 . S
C421 C420 1.391 . S
C422 H412 0.950 1_545 S
C422 C423 1.386 . S
C422 C424 1.391 1_545 S
C423 C422 1.386 . S
C423 C427 1.393 . S
C424 H413 0.950 . S
C424 C422 1.391 1_565 S
C424 C425 1.400 1_565 S
C425 C419 1.491 . S
C425 C424 1.400 1_545 S
C425 C426 1.398 . S
C426 H414 0.950 . S
C426 C425 1.398 . S
C426 C427 1.391 . S
C427 H415 0.950 . S
C427 C423 1.393 . S
C427 C426 1.391 . S
H428 C436 0.931 1_554 S
H429 C441 0.950 . S
H430 C438 0.950 . S
H431 C440 0.950 . S
H432 C442 0.950 . S
H433 C444 0.950 . S
H434 C446 0.950 . S
H435 C447 0.950 . S
C436 H428 0.931 1_556 S
C436 C437 1.393 . S
C436 C438 1.402 . S
C437 C436 1.393 . S
C437 C441 1.393 . S
C438 H430 0.950 . S
C438 C436 1.402 . S
C438 C439 1.400 . S
C439 C438 1.400 . S
C439 C440 1.398 . S
C439 C445 1.491 . S
C440 H431 0.950 . S
C440 C439 1.398 . S
C440 C441 1.391 . S
C441 H429 0.950 . S
C441 C437 1.393 . S
C441 C440 1.391 . S
C442 H432 0.950 . S
C442 C443 1.386 . S
C442 C444 1.391 . S
C443 C442 1.386 . S
C443 C447 1.393 . S
C444 H433 0.950 . S
C444 C442 1.391 . S
C444 C445 1.400 . S
C445 C439 1.491 . S
C445 C444 1.400 . S
C445 C446 1.398 . S
C446 H434 0.950 . S
C446 C445 1.398 . S
C446 C447 1.391 . S
C447 H435 0.950 . S
C447 C443 1.393 . S
C447 C446 1.391 . S
H448 C456 0.944 1_655 S
H449 C461 0.950 . S
H450 C458 0.950 . S
H451 C460 0.950 . S
H452 C462 0.950 . S
H453 C464 0.950 . S
H454 C466 0.950 . S
H455 C467 0.950 . S
C456 H448 0.944 1_455 S
C456 C457 1.396 . S
C456 C458 1.386 1_455 S
C457 C456 1.396 . S
C457 C461 1.393 . S
C458 H450 0.950 . S
C458 C456 1.386 1_655 S
C458 C459 1.400 1_655 S
C459 C458 1.400 1_455 S
C459 C460 1.398 . S
C459 C465 1.491 . S
C460 H451 0.950 . S
C460 C459 1.398 . S
C460 C461 1.391 . S
C461 H449 0.950 . S
C461 C457 1.393 . S
C461 C460 1.391 . S
C462 H452 0.950 . S
C462 C463 1.386 . S
C462 C464 1.391 . S
C463 C462 1.386 . S
C463 C467 1.393 1_455 S
C464 H453 0.950 . S
C464 C462 1.391 . S
C464 C465 1.400 . S
C465 C459 1.491 . S
C465 C464 1.400 . S
C465 C466 1.398 1_455 S
C466 H454 0.950 . S
C466 C465 1.398 1_655 S
C466 C467 1.391 . S
C467 H455 0.950 . S
C467 C463 1.393 1_655 S
C467 C466 1.391 . S
C243 C95 1.236 . S
C237 C11 1.234 . S
C257 C26 1.434 . S
C263 C139 1.437 . S
C277 C40 1.315 . S
C283 C201 1.315 . S
C297 C5 1.131 . S
C303 C77 1.237 . S
C323 C157 1.411 . S
C317 C18 1.385 . S
C337 C32 1.278 . S
C343 C219 1.288 . S
C363 C133 1.382 . S
C357 C39 1.440 . S
C377 C4 1.606 1_556 S
C383 C195 1.522 . S
C403 C71 1.486 . S
C397 C19 1.466 . S
C423 C151 1.403 . S
C417 C33 1.350 . S
C443 C213 1.541 . S
C437 C12 1.632 1_556 S
C457 C25 1.552 . S
C463 C89 1.480 . S
