# Generated by pormake.
# Topology anh, (6,3)-cn, num edge types: 1
# Building blocks:
#     Node 0, Type 0, BuildingBlock: BETFAJ_clean_sbu_0, # of connection points: 6
#     Node 1, Type 0, BuildingBlock: BETFAJ_clean_sbu_0, # of connection points: 6
#     Node 2, Type 0, BuildingBlock: BETFAJ_clean_sbu_0, # of connection points: 6
#     Node 3, Type 1, BuildingBlock: BELTOD_clean_linker_0, # of connection points: 3
#     Node 4, Type 1, BuildingBlock: BELTOD_clean_linker_0, # of connection points: 3
#     Node 5, Type 1, BuildingBlock: BELTOD_clean_linker_0, # of connection points: 3
#     Node 6, Type 1, BuildingBlock: BELTOD_clean_linker_0, # of connection points: 3
#     Node 7, Type 1, BuildingBlock: BELTOD_clean_linker_0, # of connection points: 3
#     Node 8, Type 1, BuildingBlock: BELTOD_clean_linker_0, # of connection points: 3
#     Edge 9, Type (0, 1), BuildingBlock: TEMPAE_clean_linker_10, # of connection points: 2
#     Edge 10, Type (0, 1), BuildingBlock: TEMPAE_clean_linker_10, # of connection points: 2
#     Edge 11, Type (0, 1), BuildingBlock: TEMPAE_clean_linker_10, # of connection points: 2
#     Edge 12, Type (0, 1), BuildingBlock: TEMPAE_clean_linker_10, # of connection points: 2
#     Edge 13, Type (0, 1), BuildingBlock: TEMPAE_clean_linker_10, # of connection points: 2
#     Edge 14, Type (0, 1), BuildingBlock: TEMPAE_clean_linker_10, # of connection points: 2
#     Edge 15, Type (0, 1), BuildingBlock: TEMPAE_clean_linker_10, # of connection points: 2
#     Edge 16, Type (0, 1), BuildingBlock: TEMPAE_clean_linker_10, # of connection points: 2
#     Edge 17, Type (0, 1), BuildingBlock: TEMPAE_clean_linker_10, # of connection points: 2
#     Edge 18, Type (0, 1), BuildingBlock: TEMPAE_clean_linker_10, # of connection points: 2
#     Edge 19, Type (0, 1), BuildingBlock: TEMPAE_clean_linker_10, # of connection points: 2
#     Edge 20, Type (0, 1), BuildingBlock: TEMPAE_clean_linker_10, # of connection points: 2
#     Edge 21, Type (0, 1), BuildingBlock: TEMPAE_clean_linker_10, # of connection points: 2
#     Edge 22, Type (0, 1), BuildingBlock: TEMPAE_clean_linker_10, # of connection points: 2
#     Edge 23, Type (0, 1), BuildingBlock: TEMPAE_clean_linker_10, # of connection points: 2
#     Edge 24, Type (0, 1), BuildingBlock: TEMPAE_clean_linker_10, # of connection points: 2
#     Edge 25, Type (0, 1), BuildingBlock: TEMPAE_clean_linker_10, # of connection points: 2
#     Edge 26, Type (0, 1), BuildingBlock: TEMPAE_clean_linker_10, # of connection points: 2
# Relax obj value: 0.179
# Max RMSD: 0.207
# Mean RMSD: 0.148
data_MOF--net-anh--node1-BETFAJ_clean_sbu_0--node2-BELTOD_clean_linker_0--edge1-TEMPAE_clean_linker_10
_symmetry_space_group_name_H-M    P1
_symmetry_Int_Tables_number       1
_symmetry_cell_setting            triclinic
loop_
_symmetry_equiv_pos_as_xyz
'x, y, z'
_cell_length_a     37.207707
_cell_length_b     42.02077
_cell_length_c     61.652196
_cell_angle_alpha  92.386865
_cell_angle_beta   89.723634
_cell_angle_gamma 129.16319
loop_
_atom_site_label
_atom_site_type_symbol
_atom_site_fract_x
_atom_site_fract_y
_atom_site_fract_z
_atom_type_partial_charge
Sm0 Sm 0.10772 0.54997 0.1361 0.0
Sm1 Sm 0.04766 0.57689 0.15347 0.0
C2 C 0.14592 0.52725 0.11075 0.0
C3 C 0.1518 0.49596 0.11107 0.0
C4 C 0.17561 0.49331 0.09443 0.0
C5 C 0.18476 0.46588 0.09552 0.0
C6 C 0.17027 0.44076 0.11332 0.0
C7 C 0.1453 0.44284 0.12971 0.0
C8 C 0.13609 0.47023 0.12857 0.0
C9 C 0.09762 0.54363 0.18058 0.0
C10 C 0.16132 0.6483 0.14812 0.0
C11 C 1.00373 0.59804 0.17514 0.0
C12 C 0.95455 0.5728 0.18057 0.0
C13 C 0.93312 0.59048 0.18373 0.0
C14 C 0.88494 0.56538 0.18576 0.0
C15 C 0.8575 0.5222 0.1843 0.0
C16 C 0.87974 0.50493 0.18219 0.0
C17 C 0.92768 0.52996 0.18048 0.0
C18 C 0.04766 0.564 0.10923 0.0
C19 C 0.99548 0.4788 0.14613 0.0
O20 O 0.16911 0.55658 0.12605 0.0
O21 O 0.10338 0.51371 0.10753 0.0
O22 O 0.08239 0.55479 0.16746 0.0
O23 O 0.12184 0.53591 0.16998 0.0
O24 O 0.16279 0.62088 0.13768 0.0
O25 O 0.12283 0.63842 0.1567 0.0
O26 O 0.02715 0.58869 0.18467 0.0
O27 O 1.0122 0.60404 0.15441 0.0
O28 O 0.08189 0.58103 0.12221 0.0
O29 O 1.01178 0.55519 0.11932 0.0
O30 O 0.99529 0.50709 0.15621 0.0
O31 O 0.03195 0.48801 0.13549 0.0
H32 H 0.18813 0.51315 0.08088 0.0
H33 H 0.20461 0.46541 0.08279 0.0
H34 H 0.13335 0.42362 0.1435 0.0
H35 H 0.11757 0.47198 0.14156 0.0
H36 H 0.95337 0.62353 0.18389 0.0
H37 H 0.86909 0.57977 0.18774 0.0
H38 H 0.86007 0.47197 0.18061 0.0
H39 H 0.94349 0.51563 0.17816 0.0
Sm40 Sm 0.58468 0.02333 0.47587 0.0
Sm41 Sm 0.52919 0.05065 0.46799 0.0
C42 C 0.62091 0.98984 0.48989 0.0
C43 C 0.60787 0.95066 0.49655 0.0
C44 C 0.56318 0.91323 0.4924 0.0
C45 C 0.55247 0.87629 0.49834 0.0
C46 C 0.5863 0.87633 0.50855 0.0
C47 C 0.63085 0.9141 0.51274 0.0
C48 C 0.64144 0.95083 0.50683 0.0
C49 C 0.58052 0.03662 0.43299 0.0
C50 C 0.47203 0.9536 0.46733 0.0
C51 C 0.49487 0.087 0.45653 0.0
C52 C 0.50078 0.12354 0.46485 0.0
C53 C 0.50304 0.14951 0.45032 0.0
C54 C 0.51001 0.18492 0.45803 0.0
C55 C 0.51472 0.19498 0.48048 0.0
C56 C 0.51213 0.16861 0.49497 0.0
C57 C 0.50553 0.13345 0.48725 0.0
C58 C 0.53734 0.04094 0.51123 0.0
C59 C 0.64423 0.121 0.47254 0.0
O60 O 0.60995 0.0078 0.50282 0.0
O61 O 0.61471 0.99218 0.46936 0.0
O62 O 0.54647 0.01871 0.44548 0.0
O63 O 0.61743 0.04665 0.44277 0.0
O64 O 0.50843 0.96354 0.47843 0.0
O65 O 0.47413 0.98222 0.45772 0.0
O66 O 0.53096 0.094 0.44746 0.0
O67 O 0.47344 0.0558 0.46906 0.0
O68 O 0.56954 0.05739 0.49786 0.0
O69 O 0.49988 0.03092 0.50224 0.0
O70 O 0.6046 0.11163 0.46606 0.0
O71 O 0.64576 0.09259 0.47954 0.0
H72 H 0.5368 0.91258 0.48447 0.0
H73 H 0.51775 0.84779 0.49503 0.0
H74 H 0.65798 0.91526 0.5202 0.0
H75 H 0.67617 0.97943 0.51005 0.0
H76 H 0.49987 0.14262 0.43297 0.0
H77 H 0.51254 0.20478 0.44636 0.0
H78 H 0.51492 0.17496 0.51235 0.0
H79 H 0.50427 0.11408 0.49882 0.0
Sm80 Sm 0.57069 0.55734 0.85029 0.0
Sm81 Sm 0.50459 0.46589 0.84713 0.0
C82 C 0.61612 0.63618 0.84343 0.0
C83 C 0.60665 0.66463 0.83885 0.0
C84 C 0.57289 0.65426 0.82326 0.0
C85 C 0.56702 0.68289 0.81802 0.0
C86 C 0.59459 0.72248 0.82832 0.0
C87 C 0.62728 0.73214 0.84443 0.0
C88 C 0.63331 0.7036 0.84956 0.0
C89 C 0.54966 0.52111 0.88922 0.0
C90 C 0.45383 0.50902 0.85049 0.0
C91 C 0.46051 0.38656 0.85168 0.0
C92 C 0.46983 0.35755 0.84705 0.0
C93 C 0.51337 0.36844 0.85175 0.0
C94 C 0.5221 0.34122 0.84629 0.0
C95 C 0.48745 0.30247 0.83604 0.0
C96 C 0.44371 0.29153 0.83163 0.0
C97 C 0.43506 0.31879 0.83706 0.0
C98 C 0.52592 0.50095 0.80765 0.0
C99 C 0.62208 0.51478 0.84976 0.0
O100 O 0.60509 0.60867 0.82808 0.0
O101 O 0.60718 0.62188 0.86287 0.0
O102 O 0.5211 0.51058 0.87402 0.0
O103 O 0.59146 0.55307 0.8846 0.0
O104 O 0.49716 0.54348 0.8475 0.0
O105 O 0.44755 0.47432 0.85288 0.0
O106 O 0.48519 0.41475 0.86731 0.0
O107 O 0.45451 0.40066 0.83477 0.0
O108 O 0.55466 0.51245 0.82301 0.0
O109 O 0.48456 0.46912 0.81262 0.0
O110 O 0.57817 0.47978 0.85029 0.0
O111 O 0.62904 0.54997 0.84846 0.0
H112 H 0.55165 0.62432 0.81478 0.0
H113 H 0.54181 0.67435 0.8054 0.0
H114 H 0.64851 0.76193 0.85304 0.0
H115 H 0.6594 0.71223 0.8617 0.0
H116 H 0.54077 0.39807 0.85952 0.0
H117 H 0.55597 0.35049 0.85018 0.0
H118 H 0.4164 0.26222 0.82351 0.0
H119 H 0.40128 0.30979 0.8332 0.0
P120 P 0.61442 0.04902 0.19672 0.0
H121 H 0.58355 0.9771 0.16919 0.0
H122 H 0.50666 0.91418 0.15867 0.0
H123 H 0.44616 0.96837 0.18262 0.0
H124 H 0.52396 0.03186 0.1936 0.0
H125 H 0.6981 0.12083 0.21696 0.0
H126 H 0.75583 0.19101 0.20682 0.0
H127 H 0.67062 0.16663 0.15084 0.0
H128 H 0.6135 0.09459 0.16076 0.0
H129 H 0.61686 0.00514 0.23144 0.0
H130 H 0.58278 0.08507 0.2245 0.0
O131 O 0.64833 0.03602 0.19353 0.0
H132 H 0.6018 1.00179 0.27006 0.0
H133 H 0.56554 0.08053 0.26321 0.0
C134 C 0.55994 0.00957 0.18227 0.0
C135 C 0.55417 0.97624 0.17175 0.0
C136 C 0.50995 0.93991 0.16586 0.0
C137 C 0.47024 0.93601 0.17012 0.0
C138 C 0.47612 0.97045 0.17914 0.0
C139 C 0.52063 0.00686 0.1853 0.0
C140 C 0.65097 0.1025 0.18988 0.0
C141 C 0.69129 0.13064 0.20267 0.0
C142 C 0.72446 0.17122 0.19684 0.0
C143 C 0.71828 0.18541 0.17805 0.0
C144 C 0.67715 0.15712 0.16533 0.0
C145 C 0.644 0.11593 0.1711 0.0
C146 C 0.60174 0.04594 0.22518 0.0
C147 C 0.60591 0.02188 0.23823 0.0
C148 C 0.59669 0.0196 0.26035 0.0
C149 C 0.58231 0.04083 0.26987 0.0
C150 C 0.57718 0.06425 0.25655 0.0
C151 C 0.58679 0.06674 0.2344 0.0
P152 P 0.62836 0.5763 0.57626 0.0
H153 H 0.67923 0.54738 0.56345 0.0
H154 H 0.65603 0.48399 0.54524 0.0
H155 H 0.51481 0.43854 0.5401 0.0
H156 H 0.53853 0.50271 0.55822 0.0
H157 H 0.57843 0.60382 0.59508 0.0
H158 H 0.55715 0.64288 0.58028 0.0
H159 H 0.60023 0.63292 0.51689 0.0
H160 H 0.62253 0.59445 0.53199 0.0
H161 H 0.67206 0.63257 0.61434 0.0
H162 H 0.55943 0.5035 0.60109 0.0
O163 O 0.68551 0.6122 0.57373 0.0
H164 H 0.65777 0.62356 0.65323 0.0
H165 H 0.54482 0.49433 0.63991 0.0
C166 C 0.61072 0.52999 0.56188 0.0
C167 C 0.64338 0.52409 0.55817 0.0
C168 C 0.6301 0.48783 0.54772 0.0
C169 C 0.58367 0.45642 0.54111 0.0
C170 C 0.55082 0.46223 0.54504 0.0
C171 C 0.56433 0.49886 0.55527 0.0
C172 C 0.60214 0.59617 0.56463 0.0
C173 C 0.5825 0.60921 0.57791 0.0
C174 C 0.57006 0.63148 0.56938 0.0
C175 C 0.5773 0.64134 0.54742 0.0
C176 C 0.59477 0.62633 0.53393 0.0
C177 C 0.60717 0.60404 0.54249 0.0
C178 C 0.61742 0.5686 0.60484 0.0
C179 C 0.64442 0.60224 0.61981 0.0
C180 C 0.63599 0.59713 0.64201 0.0
C181 C 0.60033 0.55818 0.64965 0.0
C182 C 0.57301 0.52458 0.63455 0.0
C183 C 0.58129 0.52982 0.61232 0.0
P184 P 0.05466 0.53436 0.87015 0.0
H185 H 0.12178 0.55344 0.83427 0.0
H186 H 0.18357 0.54814 0.83028 0.0
H187 H 0.13746 0.47729 0.88724 0.0
H188 H 0.07548 0.48192 0.89089 0.0
H189 H 1.00414 0.55643 0.89553 0.0
H190 H 0.93615 0.55094 0.89132 0.0
H191 H 0.90428 0.48513 0.82966 0.0
H192 H 0.97445 0.49095 0.83413 0.0
H193 H 0.12318 0.59793 0.90289 0.0
H194 H 0.99402 0.47407 0.90227 0.0
O195 O 0.09016 0.58318 0.86316 0.0
H196 H 0.12497 0.60125 0.9426 0.0
H197 H 0.99522 0.47729 0.94204 0.0
C198 C 0.09124 0.51768 0.86276 0.0
C199 C 0.1234 0.53542 0.84565 0.0
C200 C 0.16001 0.53269 0.84348 0.0
C201 C 0.16792 0.51267 0.85853 0.0
C202 C 0.1348 0.49383 0.87525 0.0
C203 C 0.09785 0.49604 0.8772 0.0
C204 C 0.99561 0.52226 0.8659 0.0
C205 C 0.98236 0.53924 0.88124 0.0
C206 C 0.94216 0.53625 0.87871 0.0
C207 C 0.91166 0.51673 0.86026 0.0
C208 C 0.92523 0.50039 0.84439 0.0
C209 C 0.96599 0.50327 0.84705 0.0
C210 C 0.05807 0.53596 0.89958 0.0
C211 C 0.09516 0.57142 0.91128 0.0
C212 C 0.09604 0.57334 0.93403 0.0
C213 C 0.06001 0.53968 0.94557 0.0
C214 C 1.02369 0.50369 0.93374 0.0
C215 C 1.02281 0.50186 0.91099 0.0
P216 P 0.0784 0.51581 0.41607 0.0
H217 H 0.10114 0.56146 0.45882 0.0
H218 H 0.1642 0.6337 0.47047 0.0
H219 H 0.20616 0.66081 0.40389 0.0
H220 H 0.14626 0.58963 0.39285 0.0
H221 H 0.05538 0.4725 0.4564 0.0
H222 H 0.982 0.41099 0.46931 0.0
H223 H 0.90798 0.41719 0.41824 0.0
H224 H 0.981 0.47846 0.40551 0.0
H225 H 0.07898 0.46913 0.37947 0.0
H226 H 0.04987 0.55298 0.38934 0.0
O227 O 0.10888 0.49956 0.41932 0.0
H228 H 0.07107 0.46975 0.3402 0.0
H229 H 0.04171 0.55363 0.34997 0.0
C230 C 0.11746 0.56997 0.4248 0.0
C231 C 0.12341 0.58325 0.44674 0.0
C232 C 0.15962 0.62463 0.45337 0.0
C233 C 0.19087 0.65335 0.43817 0.0
C234 C 0.18371 0.63981 0.41621 0.0
C235 C 0.14829 0.59879 0.40974 0.0
C236 C 1.02415 0.48011 0.42979 0.0
C237 C 1.02327 0.46141 0.44837 0.0
C238 C 0.98119 0.42604 0.45571 0.0
C239 C 0.93907 0.40853 0.44453 0.0
C240 C 0.93982 0.42926 0.42695 0.0
C241 C 0.9818 0.46472 0.41974 0.0
C242 C 0.06608 0.51177 0.38729 0.0
C243 C 0.07043 0.48737 0.37321 0.0
C244 C 0.0656 0.48754 0.35074 0.0
C245 C 0.05627 0.51211 0.34197 0.0
C246 C 0.04963 0.53492 0.35622 0.0
C247 C 0.05412 0.53446 0.3787 0.0
P248 P 0.61513 0.05807 0.74716 0.0
H249 H 0.6548 0.12263 0.78163 0.0
H250 H 0.62728 0.15642 0.79927 0.0
H251 H 0.49417 0.06919 0.7662 0.0
H252 H 0.5223 0.03555 0.74841 0.0
H253 H 0.66526 0.02645 0.7429 0.0
H254 H 0.65349 0.96699 0.7567 0.0
H255 H 0.53106 0.93212 0.78921 0.0
H256 H 0.54277 0.99188 0.775 0.0
H257 H 0.58877 0.09618 0.71982 0.0
H258 H 0.60386 0.00273 0.71178 0.0
O259 O 0.67247 0.09548 0.7474 0.0
H260 H 0.57117 0.08957 0.68118 0.0
H261 H 0.5897 0.99806 0.6729 0.0
C262 C 0.59095 0.07711 0.76333 0.0
C263 C 0.61947 0.11033 0.77838 0.0
C264 C 0.60357 0.12958 0.78856 0.0
C265 C 0.55868 0.11591 0.78394 0.0
C266 C 0.52922 0.08098 0.76981 0.0
C267 C 0.54512 0.06155 0.75973 0.0
C268 C 0.60507 0.01378 0.75799 0.0
C269 C 0.6358 0.00605 0.75297 0.0
C270 C 0.6289 0.97188 0.76077 0.0
C271 C 0.59125 0.94474 0.77398 0.0
C272 C 0.5605 0.95261 0.77914 0.0
C273 C 0.56712 0.98669 0.77102 0.0
C274 C 0.59619 0.04902 0.719 0.0
C275 C 0.58756 0.07369 0.70985 0.0
C276 C 0.57836 0.07043 0.68755 0.0
C277 C 0.57917 0.04339 0.67368 0.0
C278 C 0.5878 0.01865 0.68297 0.0
C279 C 0.59615 0.02143 0.70536 0.0
P280 P 0.40424 0.27454 0.08127 0.0
H281 H 0.421 0.25287 0.12222 0.0
H282 H 0.49119 0.28587 0.14531 0.0
H283 H 0.57149 0.37854 0.0984 0.0
H284 H 0.50199 0.34704 0.07603 0.0
H285 H 0.30461 0.23096 0.08004 0.0
H286 H 0.25954 0.2518 0.09282 0.0
H287 H 0.38134 0.35808 0.12701 0.0
H288 H 0.4263 0.33782 0.1137 0.0
H289 H 0.45674 0.27932 0.04424 0.0
H290 H 0.38257 0.32394 0.06178 0.0
O291 O 0.37577 0.22434 0.07674 0.0
H292 H 0.48451 0.31985 0.01183 0.0
H293 H 0.40776 0.36217 0.02925 0.0
C294 C 0.45636 0.29671 0.0971 0.0
C295 C 0.45386 0.28004 0.11685 0.0
C296 C 0.49371 0.2989 0.13003 0.0
C297 C 0.53654 0.33429 0.12339 0.0
C298 C 0.5389 0.3508 0.10362 0.0
C299 C 0.49907 0.33253 0.09074 0.0
C300 C 0.36859 0.2825 0.09613 0.0
C301 C 0.32113 0.25794 0.09091 0.0
C302 C 0.29544 0.26992 0.09822 0.0
C303 C 0.31704 0.30681 0.11076 0.0
C304 C 0.36389 0.32978 0.11715 0.0
C305 C 0.38953 0.31793 0.10974 0.0
C306 C 0.41792 0.29873 0.05562 0.0
C307 C 0.44563 0.29707 0.0409 0.0
C308 C 0.46139 0.32022 0.02236 0.0
C309 C 0.44905 0.34491 0.01809 0.0
C310 C 0.41918 0.34457 0.03233 0.0
C311 C 0.40418 0.32209 0.05096 0.0
C312 C 0.18152 0.3921 0.09706 0.0
C313 C 0.18373 0.41442 0.11528 0.0
C314 C 0.19921 0.371 0.09804 0.0
C315 C 0.21957 0.37226 0.11774 0.0
C316 C 0.21974 0.39295 0.1365 0.0
C317 C 0.20184 0.41385 0.13504 0.0
C318 C 0.19824 0.34914 0.0777 0.0
C319 C 0.24114 0.39496 0.15778 0.0
C320 C 0.24611 0.29873 0.12067 0.0
C321 C 0.2927 0.32391 0.11474 0.0
C322 C 0.22204 0.3143 0.12243 0.0
C323 C 0.24509 0.35584 0.11798 0.0
C324 C 0.29243 0.38161 0.11256 0.0
C325 C 0.31559 0.36533 0.11099 0.0
C326 C 0.1717 0.2861 0.12847 0.0
C327 C 0.31825 0.42606 0.1076 0.0
H328 H 0.16686 0.39191 0.08185 0.0
H329 H 0.20402 0.43134 0.14914 0.0
H330 H 0.23415 0.36527 0.07218 0.0
H331 H 0.18355 0.31729 0.08106 0.0
H332 H 0.17754 0.34793 0.06427 0.0
H333 H 0.2333 0.4077 0.17141 0.0
H334 H 0.22855 0.36397 0.16178 0.0
H335 H 0.27934 0.41477 0.15639 0.0
H336 H 0.22839 0.26677 0.12371 0.0
H337 H 0.35132 0.38477 0.10599 0.0
H338 H 0.14984 0.28158 0.11456 0.0
H339 H 0.16598 0.30014 0.14225 0.0
H340 H 0.15984 0.25555 0.13301 0.0
H341 H 0.30247 0.42781 0.09295 0.0
H342 H 0.35556 0.44245 0.10469 0.0
H343 H 0.31547 0.44241 0.12124 0.0
C344 C 0.68626 0.19617 0.46795 0.0
C345 C 0.68794 0.16416 0.47097 0.0
C346 C 0.72689 0.23664 0.46505 0.0
C347 C 0.77051 0.24551 0.46479 0.0
C348 C 0.77254 0.21349 0.46821 0.0
C349 C 0.73138 0.17338 0.47141 0.0
C350 C 0.72298 0.26977 0.4618 0.0
C351 C 0.81809 0.22131 0.46781 0.0
C352 C 0.86688 0.33739 0.43333 0.0
C353 C 0.89528 0.3673 0.44997 0.0
C354 C 0.82652 0.29784 0.43795 0.0
C355 C 0.81358 0.28769 0.45979 0.0
C356 C 0.84184 0.31782 0.47669 0.0
C357 C 0.88246 0.35707 0.4716 0.0
C358 C 0.79796 0.26669 0.4194 0.0
C359 C 0.82908 0.3086 0.50016 0.0
H360 H 0.653 0.18957 0.4677 0.0
H361 H 0.73318 0.14895 0.47361 0.0
H362 H 0.7466 0.29631 0.47342 0.0
H363 H 0.73377 0.28112 0.4452 0.0
H364 H 0.68709 0.25863 0.46398 0.0
H365 H 0.81417 0.19366 0.47159 0.0
H366 H 0.83319 0.23105 0.45151 0.0
H367 H 0.84321 0.24669 0.47969 0.0
H368 H 0.87682 0.34464 0.4166 0.0
H369 H 0.90398 0.37996 0.48457 0.0
H370 H 0.76215 0.25626 0.41952 0.0
H371 H 0.79549 0.23924 0.42138 0.0
H372 H 0.81287 0.27921 0.40335 0.0
H373 H 0.79404 0.29919 0.50261 0.0
H374 H 0.85416 0.33546 0.51139 0.0
H375 H 0.8277 0.28253 0.50457 0.0
C376 C 0.63053 0.79529 0.82034 0.0
C377 C 0.59063 0.75406 0.82171 0.0
C378 C 0.62783 0.82519 0.81343 0.0
C379 C 0.58422 0.81376 0.80746 0.0
C380 C 0.54371 0.77237 0.80902 0.0
C381 C 0.54737 0.74311 0.81618 0.0
C382 C 0.67192 0.86897 0.81209 0.0
C383 C 0.49657 0.75886 0.80275 0.0
C384 C 0.57764 0.90054 0.80447 0.0
C385 C 0.58496 0.90879 0.78236 0.0
C386 C 0.57616 0.86905 0.81283 0.0
C387 C 0.58157 0.84491 0.79869 0.0
C388 C 0.58711 0.85211 0.77622 0.0
C389 C 0.58898 0.88404 0.76838 0.0
C390 C 0.57059 0.86265 0.8369 0.0
C391 C 0.59234 0.8268 0.76052 0.0
H392 H 0.66424 0.80414 0.82418 0.0
H393 H 0.51621 0.71156 0.81746 0.0
H394 H 0.67783 0.87784 0.79495 0.0
H395 H 0.66875 0.8902 0.82143 0.0
H396 H 0.70275 0.87335 0.81843 0.0
H397 H 0.46827 0.72587 0.80553 0.0
H398 H 0.48972 0.7775 0.81218 0.0
H399 H 0.4957 0.76404 0.78532 0.0
H400 H 0.57485 0.91976 0.81538 0.0
H401 H 0.59405 0.88994 0.75123 0.0
H402 H 0.60262 0.87021 0.84406 0.0
H403 H 0.54171 0.82995 0.83987 0.0
H404 H 0.56374 0.88205 0.84547 0.0
H405 H 0.62487 0.8321 0.76443 0.0
H406 H 0.59328 0.83446 0.74338 0.0
H407 H 0.56324 0.79359 0.76208 0.0
C408 C 0.77824 0.45541 0.19026 0.0
C409 C 0.806 0.49507 0.18227 0.0
C410 C 0.73102 0.42647 0.18435 0.0
C411 C 0.71093 0.43775 0.1705 0.0
C412 C 0.73765 0.47875 0.16407 0.0
C413 C 0.78492 0.5068 0.16986 0.0
C414 C 0.70372 0.38307 0.19154 0.0
C415 C 0.71726 0.49222 0.14961 0.0
C416 C 0.61837 0.36285 0.12824 0.0
C417 C 0.579 0.35519 0.13705 0.0
C418 C 0.66099 0.38771 0.13967 0.0
C419 C 0.66437 0.40593 0.16022 0.0
C420 C 0.62412 0.39664 0.16966 0.0
C421 C 0.58165 0.37105 0.15796 0.0
C422 C 0.70291 0.39619 0.12921 0.0
C423 C 0.62644 0.41565 0.19146 0.0
H424 H 0.79388 0.44631 0.20033 0.0
H425 H 0.80583 0.53711 0.16341 0.0
H426 H 0.6687 0.3709 0.19673 0.0
H427 H 0.69908 0.36295 0.17768 0.0
H428 H 0.72163 0.381 0.2051 0.0
H429 H 0.74056 0.52615 0.14855 0.0
H430 H 0.71114 0.47818 0.13299 0.0
H431 H 0.68333 0.48162 0.15567 0.0
H432 H 0.61601 0.35026 0.1121 0.0
H433 H 0.55107 0.36521 0.16465 0.0
H434 H 0.72132 0.39091 0.14071 0.0
H435 H 0.72751 0.42886 0.12497 0.0
H436 H 0.69353 0.37658 0.11419 0.0
H437 H 0.64658 0.41321 0.20348 0.0
H438 H 0.5914 0.401 0.19783 0.0
H439 H 0.6446 0.44884 0.18988 0.0
C440 C 0.4244 0.87971 0.47721 0.0
C441 C 0.42917 0.90969 0.46505 0.0
C442 C 0.38492 0.83794 0.47467 0.0
C443 C 0.34927 0.82549 0.45943 0.0
C444 C 0.35355 0.85569 0.44736 0.0
C445 C 0.39321 0.8973 0.45038 0.0
C446 C 0.38178 0.80699 0.48802 0.0
C447 C 0.3168 0.84389 0.43075 0.0
C448 C 0.27433 0.71614 0.43436 0.0
C449 C 0.23193 0.69684 0.44482 0.0
C450 C 0.31254 0.75763 0.43908 0.0
C451 C 0.30908 0.78075 0.45502 0.0
C452 C 0.26704 0.76125 0.46624 0.0
C453 C 0.22898 0.71966 0.46097 0.0
C454 C 0.35649 0.77692 0.42666 0.0
C455 C 0.26202 0.78455 0.48356 0.0
H456 H 0.45171 0.88883 0.48871 0.0
H457 H 0.39642 0.92006 0.44086 0.0
H458 H 0.34868 0.78861 0.49678 0.0
H459 H 0.3819 0.78531 0.4772 0.0
H460 H 0.411 0.8218 0.50006 0.0
H461 H 0.32423 0.87109 0.42335 0.0
H462 H 0.31437 0.82365 0.41764 0.0
H463 H 0.28243 0.82626 0.43835 0.0
H464 H 0.27777 0.69876 0.42231 0.0
H465 H 0.19657 0.70534 0.46915 0.0
H466 H 0.38606 0.78935 0.43808 0.0
H467 H 0.36466 0.80308 0.41771 0.0
H468 H 0.35374 0.75475 0.41483 0.0
H469 H 0.29026 0.79869 0.49605 0.0
H470 H 0.22815 0.76455 0.49165 0.0
H471 H 0.26522 0.80991 0.47627 0.0
C472 C 0.53938 0.2889 0.82024 0.0
C473 C 0.49708 0.2739 0.82954 0.0
C474 C 0.54842 0.26225 0.81343 0.0
C475 C 0.5144 0.21945 0.81597 0.0
C476 C 0.47184 0.20413 0.82556 0.0
C477 C 0.4637 0.23147 0.8322 0.0
C478 C 0.59418 0.2799 0.80321 0.0
C479 C 0.43478 0.15878 0.8287 0.0
C480 C 0.52121 0.14831 0.7792 0.0
C481 C 0.54408 0.13973 0.79275 0.0
C482 C 0.51068 0.1736 0.78665 0.0
C483 C 0.52314 0.19073 0.80823 0.0
C484 C 0.54516 0.18136 0.82216 0.0
C485 C 0.55544 0.15609 0.81425 0.0
C486 C 0.48733 0.1829 0.77123 0.0
C487 C 0.55868 0.19867 0.84532 0.0
H488 H 0.56517 0.3215 0.81784 0.0
H489 H 0.43118 0.21962 0.83964 0.0
H490 H 0.61229 0.27127 0.81234 0.0
H491 H 0.58808 0.26685 0.78635 0.0
H492 H 0.61737 0.31393 0.80282 0.0
H493 H 0.40394 0.15184 0.83679 0.0
H494 H 0.4235 0.1415 0.81274 0.0
H495 H 0.44893 0.14733 0.83863 0.0
H496 H 0.51289 0.13635 0.76248 0.0
H497 H 0.57266 0.14928 0.82491 0.0
H498 H 0.51058 0.21633 0.76857 0.0
H499 H 0.45519 0.17475 0.77836 0.0
H500 H 0.4783 0.16596 0.75523 0.0
H501 H 0.58448 0.2327 0.84551 0.0
H502 H 0.57378 0.18708 0.85435 0.0
H503 H 0.52797 0.19068 0.85402 0.0
C504 C 0.55147 0.80273 0.49987 0.0
C505 C 0.57616 0.83735 0.51437 0.0
C506 C 0.54589 0.76729 0.50434 0.0
C507 C 0.56562 0.76655 0.52371 0.0
C508 C 0.58887 0.80075 0.53879 0.0
C509 C 0.59369 0.83559 0.53398 0.0
C510 C 0.52055 0.73134 0.48793 0.0
C511 C 0.61028 0.80121 0.55968 0.0
C512 C 0.53316 0.66824 0.54558 0.0
C513 C 0.57094 0.67042 0.53925 0.0
C514 C 0.5298 0.69835 0.53985 0.0
C515 C 0.56519 0.73154 0.52762 0.0
C516 C 0.60243 0.73301 0.52049 0.0
C517 C 0.60483 0.70249 0.52638 0.0
C518 C 0.48929 0.69545 0.54755 0.0
C519 C 0.64099 0.76792 0.50749 0.0
H520 H 0.53805 0.80388 0.48462 0.0
H521 H 0.61196 0.86186 0.54548 0.0
H522 H 0.54548 0.72835 0.48037 0.0
H523 H 0.49425 0.70232 0.496 0.0
H524 H 0.50304 0.73491 0.47487 0.0
H525 H 0.62498 0.82923 0.57022 0.0
H526 H 0.58402 0.77384 0.56891 0.0
H527 H 0.63843 0.79976 0.55595 0.0
H528 H 0.50655 0.6433 0.55531 0.0
H529 H 0.63449 0.70481 0.52168 0.0
H530 H 0.47301 0.69889 0.53382 0.0
H531 H 0.50168 0.72084 0.55973 0.0
H532 H 0.46249 0.66581 0.55505 0.0
H533 H 0.62647 0.77168 0.49308 0.0
H534 H 0.66572 0.76306 0.50192 0.0
H535 H 0.66046 0.79708 0.51756 0.0
C536 C 0.65847 0.47775 0.8519 0.0
C537 C 0.66422 0.51442 0.85066 0.0
C538 C 0.69679 0.47704 0.85294 0.0
C539 C 0.74413 0.51387 0.85275 0.0
C540 C 0.75016 0.55095 0.85138 0.0
C541 C 0.71121 0.55079 0.85039 0.0
C542 C 0.68628 0.4362 0.85434 0.0
C543 C 0.79846 0.59152 0.85103 0.0
C544 C 0.84636 0.51775 0.87635 0.0
C545 C 0.86768 0.5147 0.858 0.0
C546 C 0.80737 0.51737 0.87487 0.0
C547 C 0.78666 0.51375 0.85445 0.0
C548 C 0.80743 0.51021 0.83584 0.0
C549 C 0.84652 0.51061 0.83777 0.0
C550 C 0.78811 0.5209 0.89555 0.0
C551 C 0.78839 0.50628 0.8135 0.0
H552 H 0.62347 0.44897 0.85211 0.0
H553 H 0.71789 0.57979 0.84945 0.0
H554 H 0.70212 0.43148 0.84062 0.0
H555 H 0.70187 0.43593 0.86955 0.0
H556 H 0.64843 0.41009 0.854 0.0
H557 H 0.79843 0.61775 0.8495 0.0
H558 H 0.81786 0.59665 0.86616 0.0
H559 H 0.81742 0.59101 0.83725 0.0
H560 H 0.85978 0.52001 0.89236 0.0
H561 H 0.86104 0.50839 0.82309 0.0
H562 H 0.751 0.49363 0.89664 0.0
H563 H 0.78998 0.54831 0.89546 0.0
H564 H 0.80708 0.52344 0.91025 0.0
H565 H 0.75107 0.47903 0.81222 0.0
H566 H 0.80699 0.50328 0.8005 0.0
H567 H 0.79109 0.53364 0.81073 0.0
C568 C 0.21044 0.71851 0.1672 0.0
C569 C 0.20482 0.69191 0.15043 0.0
C570 C 0.25229 0.75906 0.1703 0.0
C571 C 0.28931 0.77392 0.15601 0.0
C572 C 0.28326 0.7476 0.13863 0.0
C573 C 0.24144 0.70691 0.13621 0.0
C574 C 0.25739 0.78559 0.18931 0.0
C575 C 0.3213 0.76224 0.12274 0.0
C576 C 0.388 0.89016 0.15478 0.0
C577 C 0.42326 0.89504 0.16678 0.0
C578 C 0.34431 0.85101 0.15104 0.0
C579 C 0.33523 0.81602 0.15996 0.0
C580 C 0.37048 0.82112 0.17255 0.0
C581 C 0.414 0.86033 0.1756 0.0
C582 C 0.30815 0.84696 0.1372 0.0
C583 C 0.36227 0.78509 0.18281 0.0
H584 H 0.18255 0.70725 0.17837 0.0
H585 H 0.23741 0.68683 0.12307 0.0
H586 H 0.2855 0.79352 0.20054 0.0
H587 H 0.26742 0.81486 0.18363 0.0
H588 H 0.22495 0.77009 0.19852 0.0
H589 H 0.31001 0.73921 0.10918 0.0
H590 H 0.33294 0.79129 0.11586 0.0
H591 H 0.35169 0.7688 0.13125 0.0
H592 H 0.395 0.91682 0.14786 0.0
H593 H 0.44089 0.86396 0.18514 0.0
H594 H 0.27622 0.83325 0.14652 0.0
H595 H 0.29855 0.8259 0.12286 0.0
H596 H 0.32044 0.877 0.13147 0.0
H597 H 0.33149 0.7696 0.1932 0.0
H598 H 0.39252 0.79443 0.19288 0.0
H599 H 0.3549 0.76218 0.17001 0.0
C600 C 0.55358 0.25662 0.50651 0.0
C601 C 0.52292 0.23303 0.48878 0.0
C602 C 0.56155 0.29236 0.51464 0.0
C603 C 0.53878 0.30529 0.50467 0.0
C604 C 0.50796 0.28183 0.48673 0.0
C605 C 0.50023 0.24591 0.47907 0.0
C606 C 0.59459 0.31643 0.53386 0.0
C607 C 0.48326 0.29474 0.47558 0.0
C608 C 0.53162 0.37942 0.53797 0.0
C609 C 0.56984 0.41749 0.53064 0.0
C610 C 0.52052 0.34255 0.52938 0.0
C611 C 0.54799 0.34379 0.51289 0.0
C612 C 0.58567 0.38209 0.50494 0.0
C613 C 0.59629 0.41845 0.51399 0.0
C614 C 0.48036 0.30239 0.53846 0.0
C615 C 0.61541 0.38473 0.48717 0.0
H616 H 0.57196 0.24746 0.51391 0.0
H617 H 0.476 0.22768 0.46557 0.0
H618 H 0.62419 0.34783 0.52916 0.0
H619 H 0.57681 0.31975 0.54716 0.0
H620 H 0.60841 0.30157 0.54018 0.0
H621 H 0.46058 0.27327 0.46175 0.0
H622 H 0.46174 0.29634 0.48735 0.0
H623 H 0.50898 0.32595 0.46944 0.0
H624 H 0.51134 0.37856 0.55098 0.0
H625 H 0.62555 0.44781 0.50811 0.0
H626 H 0.49333 0.28807 0.54645 0.0
H627 H 0.4559 0.28062 0.52516 0.0
H628 H 0.46109 0.30647 0.5505 0.0
H629 H 0.63365 0.3735 0.49294 0.0
H630 H 0.6417 0.41661 0.48192 0.0
H631 H 0.5934 0.36471 0.47286 0.0
C632 C 0.41783 0.54655 0.85245 0.0
C633 C 0.41184 0.50959 0.85145 0.0
C634 C 0.3797 0.54753 0.85362 0.0
C635 C 0.3323 0.51072 0.85349 0.0
C636 C 0.32603 0.47333 0.85225 0.0
C637 C 0.36482 0.47322 0.85147 0.0
C638 C 0.39049 0.58868 0.85523 0.0
C639 C 0.27764 0.43273 0.85159 0.0
C640 C 0.23104 0.51019 0.87577 0.0
C641 C 0.21008 0.51203 0.85714 0.0
C642 C 0.26988 0.51017 0.87485 0.0
C643 C 0.28999 0.51127 0.85473 0.0
C644 C 0.26888 0.5128 0.83585 0.0
C645 C 0.23058 0.51355 0.83725 0.0
C646 C 0.28993 0.50942 0.89581 0.0
C647 C 0.28665 0.51325 0.81376 0.0
H648 H 0.45294 0.57534 0.85254 0.0
H649 H 0.35799 0.44403 0.85066 0.0
H650 H 0.37448 0.59163 0.84116 0.0
H651 H 0.37526 0.59107 0.87011 0.0
H652 H 0.42837 0.61468 0.85569 0.0
H653 H 0.27743 0.4062 0.84979 0.0
H654 H 0.25979 0.42998 0.86672 0.0
H655 H 0.25729 0.43112 0.83785 0.0
H656 H 0.21764 0.50959 0.8915 0.0
H657 H 0.21606 0.51459 0.82238 0.0
H658 H 0.32738 0.53637 0.89732 0.0
H659 H 0.28705 0.48148 0.89577 0.0
H660 H 0.27221 0.50979 0.91025 0.0
H661 H 0.32356 0.54092 0.81278 0.0
H662 H 0.26656 0.51316 0.80045 0.0
H663 H 0.28496 0.48602 0.81118 0.0
C664 C 0.90962 0.42506 0.15031 0.0
C665 C 0.95318 0.43503 0.14761 0.0
C666 C 0.86959 0.38442 0.15342 0.0
C667 C 0.87313 0.35285 0.15452 0.0
C668 C 0.91694 0.36265 0.15147 0.0
C669 C 0.95624 0.40344 0.14776 0.0
C670 C 0.82365 0.37551 0.156 0.0
C671 C 0.92272 0.33035 0.15307 0.0
C672 C 0.78359 0.2607 0.18777 0.0
C673 C 0.75565 0.229 0.17172 0.0
C674 C 0.82175 0.30073 0.18238 0.0
C675 C 0.83181 0.31032 0.1603 0.0
C676 C 0.80266 0.27919 0.14395 0.0
C677 C 0.76542 0.23895 0.14982 0.0
C678 C 0.85195 0.33262 0.20043 0.0
C679 C 0.81119 0.28827 0.12021 0.0
H680 H 0.90681 0.4492 0.15006 0.0
H681 H 0.98977 0.41091 0.1459 0.0
H682 H 0.79679 0.34898 0.14508 0.0
H683 H 0.81197 0.36711 0.17289 0.0
H684 H 0.82575 0.40233 0.1524 0.0
H685 H 0.95859 0.34246 0.14959 0.0
H686 H 0.91422 0.31858 0.16966 0.0
H687 H 0.89832 0.3039 0.14155 0.0
H688 H 0.77598 0.25426 0.20474 0.0
H689 H 0.74474 0.21511 0.13715 0.0
H690 H 0.85178 0.35881 0.19942 0.0
H691 H 0.88836 0.34494 0.19866 0.0
H692 H 0.84033 0.32004 0.21678 0.0
H693 H 0.81314 0.3151 0.11696 0.0
H694 H 0.7836 0.2617 0.1095 0.0
H695 H 0.84497 0.29642 0.11586 0.0
C696 C 0.09031 0.57 0.07603 0.0
C697 C 0.04934 0.55816 0.08547 0.0
C698 C 0.09285 0.56594 0.05342 0.0
C699 C 0.05357 0.54994 0.03988 0.0
C700 C 1.01192 0.53741 0.0494 0.0
C701 C 1.01029 0.54158 0.07206 0.0
C702 C 0.13782 0.57939 0.04401 0.0
C703 C 0.96926 0.52022 0.03559 0.0
C704 C 0.07174 0.57831 0.98066 0.0
C705 C 0.0596 0.54256 0.9698 0.0
C706 C 0.07028 0.5812 0.00341 0.0
C707 C 0.05641 0.54754 0.01573 0.0
C708 C 0.04454 0.51149 0.00492 0.0
C709 C 0.04619 0.5094 0.98212 0.0
C710 C 0.08301 0.62013 0.01424 0.0
C711 C 0.02988 0.47503 0.01743 0.0
H712 H 0.12063 0.58283 0.08632 0.0
H713 H 0.97852 0.53233 0.07927 0.0
H714 H 0.13169 0.55398 0.03374 0.0
H715 H 0.15188 0.60544 0.03342 0.0
H716 H 0.16436 0.58914 0.0568 0.0
H717 H 0.93924 0.51086 0.04551 0.0
H718 H 0.97679 0.54359 0.02434 0.0
H719 H 0.95937 0.49316 0.02549 0.0
H720 H 0.08149 0.60387 0.97132 0.0
H721 H 0.03727 0.48183 0.97393 0.0
H722 H 0.11171 0.6332 0.02633 0.0
H723 H 0.05294 0.61313 0.02314 0.0
H724 H 0.09385 0.64379 0.00241 0.0
H725 H 0.05741 0.48447 0.02952 0.0
H726 H 1.02265 0.44959 0.00668 0.0
H727 H 0.99822 0.46329 0.02656 0.0
C728 C 0.61463 0.05037 0.3964 0.0
C729 C 0.57717 0.0385 0.40925 0.0
C730 C 0.61203 0.05081 0.37375 0.0
C731 C 0.57118 0.03971 0.36365 0.0
C732 C 0.53357 0.02867 0.3766 0.0
C733 C 0.53689 0.02791 0.39929 0.0
C734 C 0.65278 0.06238 0.36058 0.0
C735 C 0.48977 0.01732 0.36646 0.0
C736 C 0.58871 0.07477 0.30595 0.0
C737 C 0.57427 0.03936 0.2937 0.0
C738 C 0.58541 0.0747 0.32868 0.0
C739 C 0.56785 0.03855 0.33949 0.0
C740 C 0.55137 0.00227 0.32718 0.0
C741 C 0.55444 0.00304 0.30447 0.0
C742 C 0.60277 0.11389 0.34119 0.0
C743 C 0.53259 0.96311 0.33805 0.0
H744 H 0.64589 0.05866 0.40402 0.0
H745 H 0.50797 0.01898 0.40922 0.0
H746 H 0.64185 0.0364 0.34916 0.0
H747 H 0.66531 0.08895 0.35071 0.0
H748 H 0.68212 0.0705 0.37094 0.0
H749 H 0.46471 0.01159 0.37884 0.0
H750 H 0.49822 0.04227 0.35625 0.0
H751 H 0.47278 0.98926 0.35567 0.0
H752 H 0.60438 0.10311 0.29789 0.0
H753 H 0.54207 0.97522 0.29517 0.0
H754 H 0.63535 0.12653 0.35022 0.0
H755 H 0.57715 0.1077 0.35331 0.0
H756 H 0.60974 0.13762 0.33036 0.0
H757 H 0.56079 0.9677 0.34769 0.0
H758 H 0.51803 0.9368 0.32615 0.0
H759 H 0.50515 0.95506 0.34948 0.0
C760 C 0.58545 0.54068 0.77936 0.0
C761 C 0.53885 0.51438 0.78519 0.0
C762 C 0.59755 0.5505 0.75761 0.0
C763 C 0.56218 0.53391 0.74143 0.0
C764 C 0.51517 0.50859 0.74743 0.0
C765 C 0.50409 0.49903 0.76923 0.0
C766 C 0.64805 0.57753 0.75184 0.0
C767 C 0.47645 0.49065 0.73074 0.0
C768 C 0.59099 0.58058 0.68616 0.0
C769 C 0.59167 0.55263 0.67329 0.0
C770 C 0.58209 0.57525 0.70844 0.0
C771 C 0.57394 0.54129 0.71809 0.0
C772 C 0.57527 0.51333 0.70523 0.0
C773 C 0.58395 0.51926 0.68299 0.0
C774 C 0.58055 0.6055 0.72156 0.0
C775 C 0.56709 0.4769 0.71495 0.0
H776 H 0.61242 0.55265 0.79169 0.0
H777 H 0.46802 0.47892 0.77373 0.0
H778 H 0.65446 0.55974 0.74117 0.0
H779 H 0.65719 0.60377 0.74263 0.0
H780 H 0.67141 0.58972 0.76643 0.0
H781 H 0.44196 0.47357 0.73823 0.0
H782 H 0.48248 0.5154 0.72122 0.0
H783 H 0.47575 0.46933 0.71915 0.0
H784 H 0.5965 0.60621 0.6787 0.0
H785 H 0.58509 0.49791 0.67318 0.0
H786 H 0.60515 0.61862 0.73569 0.0
H787 H 0.54537 0.58948 0.72805 0.0
H788 H 0.58929 0.63109 0.7118 0.0
H789 H 0.59188 0.4874 0.72874 0.0
H790 H 0.57093 0.45886 0.70291 0.0
H791 H 0.53165 0.4563 0.72145 0.0
C792 C 0.58404 0.04917 0.54334 0.0
C793 C 0.54345 0.04008 0.53484 0.0
C794 C 0.58996 0.04832 0.56576 0.0
C795 C 0.55499 0.03933 0.58006 0.0
C796 C 0.51406 0.0304 0.57153 0.0
C797 C 0.50858 0.03042 0.54901 0.0
C798 C 0.63367 0.05717 0.57414 0.0
C799 C 0.47639 0.02152 0.58623 0.0
C800 C 0.55005 0.00518 0.63704 0.0
C801 C 0.57275 0.04213 0.64963 0.0
C802 C 0.54476 0.00393 0.61437 0.0
C803 C 0.56163 0.0403 0.604 0.0
C804 C 0.58422 0.0776 0.61655 0.0
C805 C 0.58998 0.07816 0.6391 0.0
C806 C 0.52106 0.96365 0.60152 0.0
C807 C 0.60216 0.11697 0.60617 0.0
H808 H 0.61118 0.05687 0.53245 0.0
H809 H 0.47719 0.02353 0.54253 0.0
H810 H 0.65363 0.08546 0.58492 0.0
H811 H 0.62477 0.03165 0.58398 0.0
H812 H 0.65626 0.06129 0.5608 0.0
H813 H 0.44675 0.01527 0.57704 0.0
H814 H 0.46326 0.99458 0.59589 0.0
H815 H 0.49072 0.04809 0.59788 0.0
H816 H 0.53595 0.97699 0.6449 0.0
H817 H 0.60854 0.10712 0.64843 0.0
H818 H 0.54399 0.96718 0.58856 0.0
H819 H 0.48897 0.95445 0.59343 0.0
H820 H 0.51178 0.93853 0.61187 0.0
H821 H 0.62856 0.12491 0.59409 0.0
H822 H 0.61796 0.14321 0.61826 0.0
H823 H 0.57343 0.1128 0.59733 0.0
C824 C 0.49083 0.46625 0.91322 0.0
C825 C 0.53753 0.4968 0.90848 0.0
C826 C 0.47822 0.44177 0.93103 0.0
C827 C 0.5132 0.44765 0.94423 0.0
C828 C 0.56048 0.47829 0.9394 0.0
C829 C 0.57212 0.50278 0.92163 0.0
C830 C 0.42745 0.40983 0.93582 0.0
C831 C 0.59866 0.48501 0.95293 0.0
C832 C 0.48013 0.4111 0.00149 0.0
C833 C 0.46799 0.37194 -0.0007 0.0
C834 C 0.49559 0.43627 0.98378 0.0
C835 C 0.50004 0.42242 0.96343 0.0
C836 C 0.4896 0.38366 0.96124 0.0
C837 C 0.47338 0.35873 0.97916 0.0
C838 C 0.50601 0.47728 0.98674 0.0
C839 C 0.49457 0.36815 0.93982 0.0
H840 H 0.46404 0.46157 0.90302 0.0
H841 H 0.60825 0.52615 0.91782 0.0
H842 H 0.41789 0.3789 0.9355 0.0
H843 H 0.42065 0.41608 0.95235 0.0
H844 H 0.4046 0.40923 0.92397 0.0
H845 H 0.63361 0.50931 0.94665 0.0
H846 H 0.59743 0.49388 0.96995 0.0
H847 H 0.59356 0.45601 0.95323 0.0
H848 H 0.47734 0.42213 0.0171 0.0
H849 H 0.46389 0.3285 0.97724 0.0
H850 H 0.48243 0.4777 0.97603 0.0
H851 H 0.54198 0.50232 0.98193 0.0
H852 H 0.50183 0.48395 0.00377 0.0
H853 H 0.46946 0.36326 0.92764 0.0
H854 H 0.48842 0.33879 0.9412 0.0
H855 H 0.5298 0.39136 0.93354 0.0
C856 C 0.05151 0.5349 0.21275 0.0
C857 C 0.0892 0.53929 0.20407 0.0
C858 C 0.04274 0.52982 0.23505 0.0
C859 C 0.07256 0.52927 0.24894 0.0
C860 C 0.11064 0.53362 0.24017 0.0
C861 C 0.11829 0.53828 0.2178 0.0
C862 C 1.00142 0.52471 0.2437 0.0
C863 C 0.14344 0.53348 0.25442 0.0
C864 C 0.08132 0.55485 0.30949 0.0
C865 C 0.05655 0.51593 0.31809 0.0
C866 C 0.08562 0.55952 0.28698 0.0
C867 C 0.06439 0.5244 0.27269 0.0
C868 C 0.0379 0.48488 0.28123 0.0
C869 C 0.0345 0.48114 0.30384 0.0
C870 C 0.11442 0.60219 0.27854 0.0
C871 C 1.01427 0.44664 0.26652 0.0
H872 H 0.02827 0.53449 0.20202 0.0
H873 H 0.14733 0.54148 0.21106 0.0
H874 H 0.97766 0.49477 0.25141 0.0
H875 H 1.01293 0.54909 0.25642 0.0
H876 H 0.98181 0.52607 0.23076 0.0
H877 H 0.17163 0.5376 0.24509 0.0
H878 H 0.15931 0.5585 0.26726 0.0
H879 H 0.1241 0.50406 0.26268 0.0
H880 H 0.09892 0.5819 0.32042 0.0
H881 H 1.01489 0.45096 0.3104 0.0
H882 H 0.09422 0.60394 0.26619 0.0
H883 H 0.14533 0.60933 0.27047 0.0
H884 H 0.1263 0.62608 0.29168 0.0
H885 H 0.99252 0.44593 0.25393 0.0
H886 H 0.99208 0.4181 0.27559 0.0
H887 H 0.04074 0.4469 0.25796 0.0
loop_
_geom_bond_atom_site_label_1
_geom_bond_atom_site_label_2
_geom_bond_distance
_geom_bond_site_symmetry_2
_ccdc_geom_bond_type
Sm0 C2 2.846 . S
Sm0 O20 2.543 . S
Sm0 O21 2.450 . S
Sm0 O22 2.681 . S
Sm0 O23 2.464 . S
Sm0 O24 2.396 . S
Sm0 O28 2.386 . S
Sm0 O31 2.408 1_455 S
Sm1 C11 2.846 . S
Sm1 O22 2.386 1_655 S
Sm1 O25 2.408 1_655 S
Sm1 O26 2.543 . S
Sm1 O27 2.450 . S
Sm1 O28 2.681 1_655 S
Sm1 O29 2.469 . S
Sm1 O30 2.396 . S
C2 Sm0 2.846 . S
C2 C3 1.506 . S
C2 O20 1.261 . S
C2 O21 1.242 . S
C3 C2 1.506 . S
C3 C4 1.358 . S
C3 C8 1.382 . S
C4 C3 1.358 . S
C4 C5 1.385 . S
C4 H32 0.930 . S
C5 C4 1.385 . S
C5 C6 1.395 . S
C5 H33 0.929 . S
C6 C5 1.395 . S
C6 C7 1.335 . S
C7 C6 1.335 . S
C7 C8 1.398 . S
C7 H34 0.930 . S
C8 C3 1.382 . S
C8 C7 1.398 . S
C8 H35 0.929 . S
C9 O22 1.271 . S
C9 O23 1.251 . S
C10 O24 1.252 . S
C10 O25 1.272 . S
C11 Sm1 2.846 . S
C11 C12 1.506 . S
C11 O26 1.261 . S
C11 O27 1.242 . S
C12 C11 1.506 . S
C12 C13 1.358 . S
C12 C17 1.382 . S
C13 C12 1.358 . S
C13 C14 1.385 . S
C13 H36 0.930 . S
C14 C13 1.385 . S
C14 C15 1.395 . S
C14 H37 0.929 . S
C15 C14 1.395 . S
C15 C16 1.335 . S
C16 C15 1.335 . S
C16 C17 1.398 . S
C16 H38 0.930 . S
C17 C12 1.382 . S
C17 C16 1.398 . S
C17 H39 0.929 . S
C18 O28 1.271 . S
C18 O29 1.220 1_455 S
C19 O30 1.252 . S
C19 O31 1.272 . S
O20 Sm0 2.543 . S
O20 C2 1.261 . S
O21 Sm0 2.450 . S
O21 C2 1.242 . S
O22 Sm0 2.681 . S
O22 Sm1 2.386 1_455 S
O22 C9 1.271 . S
O23 Sm0 2.464 . S
O23 C9 1.251 . S
O24 Sm0 2.396 . S
O24 C10 1.252 . S
O25 Sm1 2.408 1_455 S
O25 C10 1.272 . S
O26 Sm1 2.543 . S
O26 C11 1.261 . S
O27 Sm1 2.450 . S
O27 C11 1.242 . S
O28 Sm0 2.386 . S
O28 Sm1 2.681 1_455 S
O28 C18 1.271 . S
O29 Sm1 2.469 . S
O29 C18 1.220 1_655 S
O30 Sm1 2.396 . S
O30 C19 1.252 . S
O31 Sm0 2.408 1_655 S
O31 C19 1.272 . S
H32 C4 0.930 . S
H33 C5 0.929 . S
H34 C7 0.930 . S
H35 C8 0.929 . S
H36 C13 0.930 . S
H37 C14 0.929 . S
H38 C16 0.930 . S
H39 C17 0.929 . S
Sm40 C42 2.846 . S
Sm40 O60 2.543 . S
Sm40 O61 2.450 . S
Sm40 O62 2.681 1_565 S
Sm40 O63 2.464 . S
Sm40 O64 2.396 . S
Sm40 O68 2.394 . S
Sm40 O71 2.408 1_565 S
Sm41 C51 2.846 . S
Sm41 O62 2.386 . S
Sm41 O65 2.408 1_545 S
Sm41 O66 2.543 . S
Sm41 O67 2.450 . S
Sm41 O68 2.669 1_545 S
Sm41 O69 2.464 . S
Sm41 O70 2.396 . S
C42 Sm40 2.846 . S
C42 C43 1.506 . S
C42 O60 1.261 . S
C42 O61 1.242 . S
C43 C42 1.506 . S
C43 C44 1.358 . S
C43 C48 1.382 . S
C44 C43 1.358 . S
C44 C45 1.385 . S
C44 H72 0.930 . S
C45 C44 1.385 . S
C45 C46 1.395 . S
C45 H73 0.929 . S
C46 C45 1.395 . S
C46 C47 1.335 . S
C47 C46 1.335 . S
C47 C48 1.398 . S
C47 H74 0.930 . S
C48 C43 1.382 . S
C48 C47 1.398 . S
C48 H75 0.929 . S
C49 O62 1.271 . S
C49 O63 1.251 1_545 S
C50 O64 1.252 . S
C50 O65 1.272 . S
C51 Sm41 2.846 . S
C51 C52 1.506 . S
C51 O66 1.261 . S
C51 O67 1.242 . S
C52 C51 1.506 . S
C52 C53 1.358 . S
C52 C57 1.382 . S
C53 C52 1.358 . S
C53 C54 1.385 . S
C53 H76 0.930 . S
C54 C53 1.385 . S
C54 C55 1.395 . S
C54 H77 0.929 . S
C55 C54 1.395 . S
C55 C56 1.335 . S
C56 C55 1.335 . S
C56 C57 1.398 . S
C56 H78 0.930 . S
C57 C52 1.382 . S
C57 C56 1.398 . S
C57 H79 0.929 . S
C58 O68 1.265 1_545 S
C58 O69 1.251 . S
C59 O70 1.252 . S
C59 O71 1.272 . S
O60 Sm40 2.543 . S
O60 C42 1.261 . S
O61 Sm40 2.450 . S
O61 C42 1.242 . S
O62 Sm40 2.681 1_545 S
O62 Sm41 2.386 . S
O62 C49 1.271 . S
O63 Sm40 2.464 . S
O63 C49 1.251 1_565 S
O64 Sm40 2.396 . S
O64 C50 1.252 . S
O65 Sm41 2.408 1_565 S
O65 C50 1.272 . S
O66 Sm41 2.543 . S
O66 C51 1.261 . S
O67 Sm41 2.450 . S
O67 C51 1.242 . S
O68 Sm40 2.394 . S
O68 Sm41 2.669 1_565 S
O68 C58 1.265 1_565 S
O69 Sm41 2.464 . S
O69 C58 1.251 . S
O70 Sm41 2.396 . S
O70 C59 1.252 . S
O71 Sm40 2.408 1_545 S
O71 C59 1.272 . S
H72 C44 0.930 . S
H73 C45 0.929 . S
H74 C47 0.930 . S
H75 C48 0.929 . S
H76 C53 0.930 . S
H77 C54 0.929 . S
H78 C56 0.930 . S
H79 C57 0.929 . S
Sm80 C82 2.846 . S
Sm80 O100 2.543 . S
Sm80 O101 2.450 . S
Sm80 O102 2.681 . S
Sm80 O103 2.464 . S
Sm80 O104 2.396 . S
Sm80 O108 2.386 . S
Sm80 O111 2.408 . S
Sm81 C91 2.846 . S
Sm81 O102 2.386 . S
Sm81 O105 2.408 . S
Sm81 O106 2.543 . S
Sm81 O107 2.450 . S
Sm81 O108 2.681 . S
Sm81 O109 2.464 . S
Sm81 O110 2.396 . S
C82 Sm80 2.846 . S
C82 C83 1.506 . S
C82 O100 1.261 . S
C82 O101 1.242 . S
C83 C82 1.506 . S
C83 C84 1.358 . S
C83 C88 1.382 . S
C84 C83 1.358 . S
C84 C85 1.385 . S
C84 H112 0.930 . S
C85 C84 1.385 . S
C85 C86 1.395 . S
C85 H113 0.929 . S
C86 C85 1.395 . S
C86 C87 1.335 . S
C87 C86 1.335 . S
C87 C88 1.398 . S
C87 H114 0.930 . S
C88 C83 1.382 . S
C88 C87 1.398 . S
C88 H115 0.929 . S
C89 O102 1.271 . S
C89 O103 1.251 . S
C90 O104 1.252 . S
C90 O105 1.272 . S
C91 Sm81 2.846 . S
C91 C92 1.506 . S
C91 O106 1.261 . S
C91 O107 1.242 . S
C92 C91 1.506 . S
C92 C93 1.358 . S
C92 C97 1.382 . S
C93 C92 1.358 . S
C93 C94 1.385 . S
C93 H116 0.930 . S
C94 C93 1.385 . S
C94 C95 1.395 . S
C94 H117 0.929 . S
C95 C94 1.395 . S
C95 C96 1.335 . S
C96 C95 1.335 . S
C96 C97 1.398 . S
C96 H118 0.930 . S
C97 C92 1.382 . S
C97 C96 1.398 . S
C97 H119 0.929 . S
C98 O108 1.271 . S
C98 O109 1.251 . S
C99 O110 1.252 . S
C99 O111 1.272 . S
O100 Sm80 2.543 . S
O100 C82 1.261 . S
O101 Sm80 2.450 . S
O101 C82 1.242 . S
O102 Sm80 2.681 . S
O102 Sm81 2.386 . S
O102 C89 1.271 . S
O103 Sm80 2.464 . S
O103 C89 1.251 . S
O104 Sm80 2.396 . S
O104 C90 1.252 . S
O105 Sm81 2.408 . S
O105 C90 1.272 . S
O106 Sm81 2.543 . S
O106 C91 1.261 . S
O107 Sm81 2.450 . S
O107 C91 1.242 . S
O108 Sm80 2.386 . S
O108 Sm81 2.681 . S
O108 C98 1.271 . S
O109 Sm81 2.464 . S
O109 C98 1.251 . S
O110 Sm81 2.396 . S
O110 C99 1.252 . S
O111 Sm80 2.408 . S
O111 C99 1.272 . S
H112 C84 0.930 . S
H113 C85 0.929 . S
H114 C87 0.930 . S
H115 C88 0.929 . S
H116 C93 0.930 . S
H117 C94 0.929 . S
H118 C96 0.930 . S
H119 C97 0.929 . S
P120 O131 1.506 . S
P120 C134 1.813 . S
P120 C140 1.790 1_565 S
P120 C146 1.813 1_565 S
H121 C135 0.941 . S
H122 C136 0.939 . S
H123 C138 0.940 . S
H124 C139 0.940 . S
H125 C141 0.939 . S
H126 C142 0.942 . S
H127 C144 0.940 . S
H128 C145 0.939 . S
H129 C147 0.941 . S
H130 C151 0.939 . S
O131 P120 1.506 . S
H132 C148 0.939 . S
H133 C150 0.940 . S
C134 P120 1.813 . S
C134 C135 1.389 . S
C134 C139 1.391 . S
C135 H121 0.941 . S
C135 C134 1.389 . S
C135 C136 1.397 . S
C136 H122 0.939 . S
C136 C135 1.397 . S
C136 C137 1.378 . S
C137 C136 1.378 . S
C137 C138 1.378 . S
C138 H123 0.940 . S
C138 C137 1.378 . S
C138 C139 1.396 . S
C139 H124 0.940 . S
C139 C134 1.391 . S
C139 C138 1.396 . S
C140 P120 1.790 1_545 S
C140 C141 1.378 . S
C140 C145 1.400 . S
C141 H125 0.939 . S
C141 C140 1.378 . S
C141 C142 1.361 . S
C142 H126 0.942 . S
C142 C141 1.361 . S
C142 C143 1.369 . S
C143 C142 1.369 . S
C143 C144 1.404 . S
C144 H127 0.940 . S
C144 C143 1.404 . S
C144 C145 1.389 . S
C145 H128 0.939 . S
C145 C140 1.400 . S
C145 C144 1.389 . S
C146 P120 1.813 1_545 S
C146 C147 1.391 1_545 S
C146 C151 1.391 . S
C147 H129 0.941 . S
C147 C146 1.391 1_565 S
C147 C148 1.396 . S
C148 H132 0.939 . S
C148 C147 1.396 . S
C148 C149 1.397 1_565 S
C149 C148 1.397 1_545 S
C149 C150 1.385 . S
C150 H133 0.940 . S
C150 C149 1.385 . S
C150 C151 1.388 . S
C151 H130 0.939 . S
C151 C146 1.391 . S
C151 C150 1.388 . S
P152 O163 1.490 . S
P152 C166 1.812 . S
P152 C172 1.803 . S
P152 C178 1.819 . S
H153 C167 0.941 . S
H154 C168 0.939 . S
H155 C170 0.940 . S
H156 C171 0.940 . S
H157 C173 0.939 . S
H158 C174 0.942 . S
H159 C176 0.940 . S
H160 C177 0.939 . S
H161 C179 0.941 . S
H162 C183 0.939 . S
O163 P152 1.490 . S
H164 C180 0.939 . S
H165 C182 0.940 . S
C166 P152 1.812 . S
C166 C167 1.389 . S
C166 C171 1.391 . S
C167 H153 0.941 . S
C167 C166 1.389 . S
C167 C168 1.397 . S
C168 H154 0.939 . S
C168 C167 1.397 . S
C168 C169 1.378 . S
C169 C168 1.378 . S
C169 C170 1.378 . S
C170 H155 0.940 . S
C170 C169 1.378 . S
C170 C171 1.396 . S
C171 H156 0.940 . S
C171 C166 1.391 . S
C171 C170 1.396 . S
C172 P152 1.803 . S
C172 C173 1.378 . S
C172 C177 1.400 . S
C173 H157 0.939 . S
C173 C172 1.378 . S
C173 C174 1.361 . S
C174 H158 0.942 . S
C174 C173 1.361 . S
C174 C175 1.369 . S
C175 C174 1.369 . S
C175 C176 1.404 . S
C176 H159 0.940 . S
C176 C175 1.404 . S
C176 C177 1.389 . S
C177 H160 0.939 . S
C177 C172 1.400 . S
C177 C176 1.389 . S
C178 P152 1.819 . S
C178 C179 1.391 . S
C178 C183 1.391 . S
C179 H161 0.941 . S
C179 C178 1.391 . S
C179 C180 1.396 . S
C180 H164 0.939 . S
C180 C179 1.396 . S
C180 C181 1.397 . S
C181 C180 1.397 . S
C181 C182 1.385 . S
C182 H165 0.940 . S
C182 C181 1.385 . S
C182 C183 1.388 . S
C183 H162 0.939 . S
C183 C178 1.391 . S
C183 C182 1.388 . S
P184 O195 1.490 . S
P184 C198 1.812 . S
P184 C204 1.803 . S
P184 C210 1.819 . S
H185 C199 0.941 . S
H186 C200 0.939 . S
H187 C202 0.940 . S
H188 C203 0.940 . S
H189 C205 0.939 . S
H190 C206 0.942 . S
H191 C208 0.940 . S
H192 C209 0.939 . S
H193 C211 0.941 . S
H194 C215 0.932 1_655 S
O195 P184 1.490 . S
H196 C212 0.939 . S
H197 C214 0.940 1_655 S
C198 P184 1.812 . S
C198 C199 1.389 . S
C198 C203 1.391 . S
C199 H185 0.941 . S
C199 C198 1.389 . S
C199 C200 1.397 . S
C200 H186 0.939 . S
C200 C199 1.397 . S
C200 C201 1.378 . S
C201 C200 1.378 . S
C201 C202 1.378 . S
C202 H187 0.940 . S
C202 C201 1.378 . S
C202 C203 1.396 . S
C203 H188 0.940 . S
C203 C198 1.391 . S
C203 C202 1.396 . S
C204 P184 1.803 . S
C204 C205 1.378 . S
C204 C209 1.400 . S
C205 H189 0.939 . S
C205 C204 1.378 . S
C205 C206 1.361 1_455 S
C206 H190 0.942 . S
C206 C205 1.361 1_655 S
C206 C207 1.369 . S
C207 C206 1.369 . S
C207 C208 1.404 . S
C208 H191 0.940 . S
C208 C207 1.404 . S
C208 C209 1.389 1_655 S
C209 H192 0.939 . S
C209 C204 1.400 . S
C209 C208 1.389 1_455 S
C210 P184 1.819 . S
C210 C211 1.391 . S
C210 C215 1.391 . S
C211 H193 0.941 . S
C211 C210 1.391 . S
C211 C212 1.396 . S
C212 H196 0.939 . S
C212 C211 1.396 . S
C212 C213 1.397 . S
C213 C212 1.397 . S
C213 C214 1.385 . S
C214 H197 0.940 1_455 S
C214 C213 1.385 . S
C214 C215 1.388 . S
C215 H194 0.932 1_455 S
C215 C210 1.391 . S
C215 C214 1.388 . S
P216 O227 1.490 . S
P216 C230 1.812 . S
P216 C236 1.803 1_455 S
P216 C242 1.819 . S
H217 C231 0.941 . S
H218 C232 0.939 . S
H219 C234 0.940 . S
H220 C235 0.940 . S
H221 C237 0.939 . S
H222 C238 0.942 . S
H223 C240 0.940 . S
H224 C241 0.939 . S
H225 C243 0.941 . S
H226 C247 0.939 . S
O227 P216 1.490 . S
H228 C244 0.939 . S
H229 C246 0.940 . S
C230 P216 1.812 . S
C230 C231 1.389 . S
C230 C235 1.391 . S
C231 H217 0.941 . S
C231 C230 1.389 . S
C231 C232 1.397 . S
C232 H218 0.939 . S
C232 C231 1.397 . S
C232 C233 1.378 . S
C233 C232 1.378 . S
C233 C234 1.378 . S
C234 H219 0.940 . S
C234 C233 1.378 . S
C234 C235 1.396 . S
C235 H220 0.940 . S
C235 C230 1.391 . S
C235 C234 1.396 . S
C236 P216 1.803 1_655 S
C236 C237 1.378 . S
C236 C241 1.400 . S
C237 H221 0.939 . S
C237 C236 1.378 . S
C237 C238 1.361 . S
C238 H222 0.942 . S
C238 C237 1.361 . S
C238 C239 1.369 . S
C239 C238 1.369 . S
C239 C240 1.404 . S
C240 H223 0.940 . S
C240 C239 1.404 . S
C240 C241 1.389 . S
C241 H224 0.939 . S
C241 C236 1.400 . S
C241 C240 1.389 . S
C242 P216 1.819 . S
C242 C243 1.391 . S
C242 C247 1.391 1_455 S
C243 H225 0.941 . S
C243 C242 1.391 . S
C243 C244 1.396 . S
C244 H228 0.939 . S
C244 C243 1.396 . S
C244 C245 1.397 . S
C245 C244 1.397 . S
C245 C246 1.385 1_455 S
C246 H229 0.940 . S
C246 C245 1.385 1_655 S
C246 C247 1.388 . S
C247 H226 0.939 . S
C247 C242 1.391 1_655 S
C247 C246 1.388 . S
P248 O259 1.490 . S
P248 C262 1.812 . S
P248 C268 1.803 1_545 S
P248 C274 1.819 . S
H249 C263 0.941 . S
H250 C264 0.939 . S
H251 C266 0.940 . S
H252 C267 0.940 . S
H253 C269 0.939 . S
H254 C270 0.942 . S
H255 C272 0.940 . S
H256 C273 0.939 . S
H257 C275 0.941 . S
H258 C279 0.939 . S
O259 P248 1.490 . S
H260 C276 0.939 . S
H261 C278 0.940 . S
C262 P248 1.812 . S
C262 C263 1.389 . S
C262 C267 1.391 . S
C263 H249 0.941 . S
C263 C262 1.389 . S
C263 C264 1.397 . S
C264 H250 0.939 . S
C264 C263 1.397 . S
C264 C265 1.378 . S
C265 C264 1.378 . S
C265 C266 1.378 . S
C266 H251 0.940 . S
C266 C265 1.378 . S
C266 C267 1.396 . S
C267 H252 0.940 . S
C267 C262 1.391 . S
C267 C266 1.396 . S
C268 P248 1.803 1_565 S
C268 C269 1.378 . S
C268 C273 1.400 . S
C269 H253 0.939 . S
C269 C268 1.378 . S
C269 C270 1.361 . S
C270 H254 0.942 . S
C270 C269 1.361 . S
C270 C271 1.369 . S
C271 C270 1.369 . S
C271 C272 1.404 . S
C272 H255 0.940 . S
C272 C271 1.404 . S
C272 C273 1.389 . S
C273 H256 0.939 . S
C273 C268 1.400 . S
C273 C272 1.389 . S
C274 P248 1.819 . S
C274 C275 1.391 . S
C274 C279 1.391 1_545 S
C275 H257 0.941 . S
C275 C274 1.391 . S
C275 C276 1.396 . S
C276 H260 0.939 . S
C276 C275 1.396 . S
C276 C277 1.397 . S
C277 C276 1.397 . S
C277 C278 1.385 1_545 S
C278 H261 0.940 . S
C278 C277 1.385 1_565 S
C278 C279 1.388 . S
C279 H258 0.939 . S
C279 C274 1.391 1_565 S
C279 C278 1.388 . S
P280 O291 1.490 . S
P280 C294 1.812 . S
P280 C300 1.803 . S
P280 C306 1.819 . S
H281 C295 0.941 . S
H282 C296 0.939 . S
H283 C298 0.940 . S
H284 C299 0.940 . S
H285 C301 0.939 . S
H286 C302 0.942 . S
H287 C304 0.940 . S
H288 C305 0.939 . S
H289 C307 0.941 . S
H290 C311 0.939 . S
O291 P280 1.490 . S
H292 C308 0.939 . S
H293 C310 0.940 . S
C294 P280 1.812 . S
C294 C295 1.389 . S
C294 C299 1.391 . S
C295 H281 0.941 . S
C295 C294 1.389 . S
C295 C296 1.397 . S
C296 H282 0.939 . S
C296 C295 1.397 . S
C296 C297 1.378 . S
C297 C296 1.378 . S
C297 C298 1.378 . S
C298 H283 0.940 . S
C298 C297 1.378 . S
C298 C299 1.396 . S
C299 H284 0.940 . S
C299 C294 1.391 . S
C299 C298 1.396 . S
C300 P280 1.803 . S
C300 C301 1.378 . S
C300 C305 1.400 . S
C301 H285 0.939 . S
C301 C300 1.378 . S
C301 C302 1.361 . S
C302 H286 0.942 . S
C302 C301 1.361 . S
C302 C303 1.369 . S
C303 C302 1.369 . S
C303 C304 1.404 . S
C304 H287 0.940 . S
C304 C303 1.404 . S
C304 C305 1.389 . S
C305 H288 0.939 . S
C305 C300 1.400 . S
C305 C304 1.389 . S
C306 P280 1.819 . S
C306 C307 1.391 . S
C306 C311 1.391 . S
C307 H289 0.941 . S
C307 C306 1.391 . S
C307 C308 1.396 . S
C308 H292 0.939 . S
C308 C307 1.396 . S
C308 C309 1.397 . S
C309 C308 1.397 . S
C309 C310 1.385 . S
C310 H293 0.940 . S
C310 C309 1.385 . S
C310 C311 1.388 . S
C311 H290 0.939 . S
C311 C306 1.391 . S
C311 C310 1.388 . S
C312 C313 1.391 . S
C312 C314 1.394 . S
C312 H328 0.931 . S
C313 C312 1.391 . S
C313 C317 1.376 . S
C314 C312 1.394 . S
C314 C315 1.369 . S
C314 C318 1.531 . S
C315 C314 1.369 . S
C315 C316 1.410 . S
C315 C323 1.503 . S
C316 C315 1.410 . S
C316 C317 1.392 . S
C316 C319 1.511 . S
C317 C313 1.376 . S
C317 C316 1.392 . S
C317 H329 0.929 . S
C318 C314 1.531 . S
C318 H330 0.960 . S
C318 H331 0.962 . S
C318 H332 0.960 . S
C319 C316 1.511 . S
C319 H333 0.961 . S
C319 H334 0.961 . S
C319 H335 0.961 . S
C320 C321 1.370 . S
C320 C322 1.363 . S
C320 H336 0.931 . S
C321 C320 1.370 . S
C321 C325 1.408 . S
C322 C320 1.363 . S
C322 C323 1.370 . S
C322 C326 1.524 . S
C323 C315 1.503 . S
C323 C322 1.370 . S
C323 C324 1.403 . S
C324 C323 1.403 . S
C324 C325 1.404 . S
C324 C327 1.539 . S
C325 C321 1.408 . S
C325 C324 1.404 . S
C325 H337 0.930 . S
C326 C322 1.524 . S
C326 H338 0.956 . S
C326 H339 0.961 . S
C326 H340 0.961 . S
C327 C324 1.539 . S
C327 H341 0.958 . S
C327 H342 0.961 . S
C327 H343 0.960 . S
H328 C312 0.931 . S
H329 C317 0.929 . S
H330 C318 0.960 . S
H331 C318 0.962 . S
H332 C318 0.960 . S
H333 C319 0.961 . S
H334 C319 0.961 . S
H335 C319 0.961 . S
H336 C320 0.931 . S
H337 C325 0.930 . S
H338 C326 0.956 . S
H339 C326 0.961 . S
H340 C326 0.961 . S
H341 C327 0.958 . S
H342 C327 0.961 . S
H343 C327 0.960 . S
C344 C345 1.391 . S
C344 C346 1.394 . S
C344 H360 0.931 . S
C345 C344 1.391 . S
C345 C349 1.376 . S
C346 C344 1.394 . S
C346 C347 1.369 . S
C346 C350 1.531 . S
C347 C346 1.369 . S
C347 C348 1.410 . S
C347 C355 1.503 . S
C348 C347 1.410 . S
C348 C349 1.392 . S
C348 C351 1.511 . S
C349 C345 1.376 . S
C349 C348 1.392 . S
C349 H361 0.929 . S
C350 C346 1.531 . S
C350 H362 0.960 . S
C350 H363 0.962 . S
C350 H364 0.960 . S
C351 C348 1.511 . S
C351 H365 0.961 . S
C351 H366 0.961 . S
C351 H367 0.961 . S
C352 C353 1.370 . S
C352 C354 1.363 . S
C352 H368 0.931 . S
C353 C352 1.370 . S
C353 C357 1.408 . S
C354 C352 1.363 . S
C354 C355 1.370 . S
C354 C358 1.524 . S
C355 C347 1.503 . S
C355 C354 1.370 . S
C355 C356 1.403 . S
C356 C355 1.403 . S
C356 C357 1.404 . S
C356 C359 1.539 . S
C357 C353 1.408 . S
C357 C356 1.404 . S
C357 H369 0.930 . S
C358 C354 1.524 . S
C358 H370 0.956 . S
C358 H371 0.961 . S
C358 H372 0.961 . S
C359 C356 1.539 . S
C359 H373 0.958 . S
C359 H374 0.961 . S
C359 H375 0.960 . S
H360 C344 0.931 . S
H361 C349 0.929 . S
H362 C350 0.960 . S
H363 C350 0.962 . S
H364 C350 0.960 . S
H365 C351 0.961 . S
H366 C351 0.961 . S
H367 C351 0.961 . S
H368 C352 0.931 . S
H369 C357 0.930 . S
H370 C358 0.956 . S
H371 C358 0.961 . S
H372 C358 0.961 . S
H373 C359 0.958 . S
H374 C359 0.961 . S
H375 C359 0.960 . S
C376 C377 1.391 . S
C376 C378 1.394 . S
C376 H392 0.931 . S
C377 C376 1.391 . S
C377 C381 1.376 . S
C378 C376 1.394 . S
C378 C379 1.369 . S
C378 C382 1.531 . S
C379 C378 1.369 . S
C379 C380 1.410 . S
C379 C387 1.503 . S
C380 C379 1.410 . S
C380 C381 1.392 . S
C380 C383 1.511 . S
C381 C377 1.376 . S
C381 C380 1.392 . S
C381 H393 0.929 . S
C382 C378 1.531 . S
C382 H394 0.960 . S
C382 H395 0.962 . S
C382 H396 0.960 . S
C383 C380 1.511 . S
C383 H397 0.961 . S
C383 H398 0.961 . S
C383 H399 0.961 . S
C384 C385 1.370 . S
C384 C386 1.363 . S
C384 H400 0.931 . S
C385 C384 1.370 . S
C385 C389 1.408 . S
C386 C384 1.363 . S
C386 C387 1.370 . S
C386 C390 1.524 . S
C387 C379 1.503 . S
C387 C386 1.370 . S
C387 C388 1.403 . S
C388 C387 1.403 . S
C388 C389 1.404 . S
C388 C391 1.539 . S
C389 C385 1.408 . S
C389 C388 1.404 . S
C389 H401 0.930 . S
C390 C386 1.524 . S
C390 H402 0.956 . S
C390 H403 0.961 . S
C390 H404 0.961 . S
C391 C388 1.539 . S
C391 H405 0.958 . S
C391 H406 0.961 . S
C391 H407 0.960 . S
H392 C376 0.931 . S
H393 C381 0.929 . S
H394 C382 0.960 . S
H395 C382 0.962 . S
H396 C382 0.960 . S
H397 C383 0.961 . S
H398 C383 0.961 . S
H399 C383 0.961 . S
H400 C384 0.931 . S
H401 C389 0.930 . S
H402 C390 0.956 . S
H403 C390 0.961 . S
H404 C390 0.961 . S
H405 C391 0.958 . S
H406 C391 0.961 . S
H407 C391 0.960 . S
C408 C409 1.391 . S
C408 C410 1.394 . S
C408 H424 0.931 . S
C409 C408 1.391 . S
C409 C413 1.376 . S
C410 C408 1.394 . S
C410 C411 1.369 . S
C410 C414 1.531 . S
C411 C410 1.369 . S
C411 C412 1.410 . S
C411 C419 1.503 . S
C412 C411 1.410 . S
C412 C413 1.392 . S
C412 C415 1.511 . S
C413 C409 1.376 . S
C413 C412 1.392 . S
C413 H425 0.929 . S
C414 C410 1.531 . S
C414 H426 0.960 . S
C414 H427 0.962 . S
C414 H428 0.960 . S
C415 C412 1.511 . S
C415 H429 0.961 . S
C415 H430 0.961 . S
C415 H431 0.961 . S
C416 C417 1.370 . S
C416 C418 1.363 . S
C416 H432 0.931 . S
C417 C416 1.370 . S
C417 C421 1.408 . S
C418 C416 1.363 . S
C418 C419 1.370 . S
C418 C422 1.524 . S
C419 C411 1.503 . S
C419 C418 1.370 . S
C419 C420 1.403 . S
C420 C419 1.403 . S
C420 C421 1.404 . S
C420 C423 1.539 . S
C421 C417 1.408 . S
C421 C420 1.404 . S
C421 H433 0.930 . S
C422 C418 1.524 . S
C422 H434 0.956 . S
C422 H435 0.961 . S
C422 H436 0.961 . S
C423 C420 1.539 . S
C423 H437 0.958 . S
C423 H438 0.961 . S
C423 H439 0.960 . S
H424 C408 0.931 . S
H425 C413 0.929 . S
H426 C414 0.960 . S
H427 C414 0.962 . S
H428 C414 0.960 . S
H429 C415 0.961 . S
H430 C415 0.961 . S
H431 C415 0.961 . S
H432 C416 0.931 . S
H433 C421 0.930 . S
H434 C422 0.956 . S
H435 C422 0.961 . S
H436 C422 0.961 . S
H437 C423 0.958 . S
H438 C423 0.961 . S
H439 C423 0.960 . S
C440 C441 1.391 . S
C440 C442 1.394 . S
C440 H456 0.931 . S
C441 C440 1.391 . S
C441 C445 1.376 . S
C442 C440 1.394 . S
C442 C443 1.369 . S
C442 C446 1.531 . S
C443 C442 1.369 . S
C443 C444 1.410 . S
C443 C451 1.503 . S
C444 C443 1.410 . S
C444 C445 1.392 . S
C444 C447 1.511 . S
C445 C441 1.376 . S
C445 C444 1.392 . S
C445 H457 0.929 . S
C446 C442 1.531 . S
C446 H458 0.960 . S
C446 H459 0.962 . S
C446 H460 0.960 . S
C447 C444 1.511 . S
C447 H461 0.961 . S
C447 H462 0.961 . S
C447 H463 0.961 . S
C448 C449 1.370 . S
C448 C450 1.363 . S
C448 H464 0.931 . S
C449 C448 1.370 . S
C449 C453 1.408 . S
C450 C448 1.363 . S
C450 C451 1.370 . S
C450 C454 1.524 . S
C451 C443 1.503 . S
C451 C450 1.370 . S
C451 C452 1.403 . S
C452 C451 1.403 . S
C452 C453 1.404 . S
C452 C455 1.539 . S
C453 C449 1.408 . S
C453 C452 1.404 . S
C453 H465 0.930 . S
C454 C450 1.524 . S
C454 H466 0.956 . S
C454 H467 0.961 . S
C454 H468 0.961 . S
C455 C452 1.539 . S
C455 H469 0.958 . S
C455 H470 0.961 . S
C455 H471 0.960 . S
H456 C440 0.931 . S
H457 C445 0.929 . S
H458 C446 0.960 . S
H459 C446 0.962 . S
H460 C446 0.960 . S
H461 C447 0.961 . S
H462 C447 0.961 . S
H463 C447 0.961 . S
H464 C448 0.931 . S
H465 C453 0.930 . S
H466 C454 0.956 . S
H467 C454 0.961 . S
H468 C454 0.961 . S
H469 C455 0.958 . S
H470 C455 0.961 . S
H471 C455 0.960 . S
C472 C473 1.391 . S
C472 C474 1.394 . S
C472 H488 0.931 . S
C473 C472 1.391 . S
C473 C477 1.376 . S
C474 C472 1.394 . S
C474 C475 1.369 . S
C474 C478 1.531 . S
C475 C474 1.369 . S
C475 C476 1.410 . S
C475 C483 1.503 . S
C476 C475 1.410 . S
C476 C477 1.392 . S
C476 C479 1.511 . S
C477 C473 1.376 . S
C477 C476 1.392 . S
C477 H489 0.929 . S
C478 C474 1.531 . S
C478 H490 0.960 . S
C478 H491 0.962 . S
C478 H492 0.960 . S
C479 C476 1.511 . S
C479 H493 0.961 . S
C479 H494 0.961 . S
C479 H495 0.961 . S
C480 C481 1.370 . S
C480 C482 1.363 . S
C480 H496 0.931 . S
C481 C480 1.370 . S
C481 C485 1.408 . S
C482 C480 1.363 . S
C482 C483 1.370 . S
C482 C486 1.524 . S
C483 C475 1.503 . S
C483 C482 1.370 . S
C483 C484 1.403 . S
C484 C483 1.403 . S
C484 C485 1.404 . S
C484 C487 1.539 . S
C485 C481 1.408 . S
C485 C484 1.404 . S
C485 H497 0.930 . S
C486 C482 1.524 . S
C486 H498 0.956 . S
C486 H499 0.961 . S
C486 H500 0.961 . S
C487 C484 1.539 . S
C487 H501 0.958 . S
C487 H502 0.961 . S
C487 H503 0.960 . S
H488 C472 0.931 . S
H489 C477 0.929 . S
H490 C478 0.960 . S
H491 C478 0.962 . S
H492 C478 0.960 . S
H493 C479 0.961 . S
H494 C479 0.961 . S
H495 C479 0.961 . S
H496 C480 0.931 . S
H497 C485 0.930 . S
H498 C486 0.956 . S
H499 C486 0.961 . S
H500 C486 0.961 . S
H501 C487 0.958 . S
H502 C487 0.961 . S
H503 C487 0.960 . S
C504 C505 1.391 . S
C504 C506 1.394 . S
C504 H520 0.931 . S
C505 C504 1.391 . S
C505 C509 1.376 . S
C506 C504 1.394 . S
C506 C507 1.369 . S
C506 C510 1.531 . S
C507 C506 1.369 . S
C507 C508 1.410 . S
C507 C515 1.503 . S
C508 C507 1.410 . S
C508 C509 1.392 . S
C508 C511 1.511 . S
C509 C505 1.376 . S
C509 C508 1.392 . S
C509 H521 0.929 . S
C510 C506 1.531 . S
C510 H522 0.960 . S
C510 H523 0.962 . S
C510 H524 0.960 . S
C511 C508 1.511 . S
C511 H525 0.961 . S
C511 H526 0.961 . S
C511 H527 0.961 . S
C512 C513 1.370 . S
C512 C514 1.363 . S
C512 H528 0.931 . S
C513 C512 1.370 . S
C513 C517 1.408 . S
C514 C512 1.363 . S
C514 C515 1.370 . S
C514 C518 1.524 . S
C515 C507 1.503 . S
C515 C514 1.370 . S
C515 C516 1.403 . S
C516 C515 1.403 . S
C516 C517 1.404 . S
C516 C519 1.539 . S
C517 C513 1.408 . S
C517 C516 1.404 . S
C517 H529 0.930 . S
C518 C514 1.524 . S
C518 H530 0.956 . S
C518 H531 0.961 . S
C518 H532 0.961 . S
C519 C516 1.539 . S
C519 H533 0.958 . S
C519 H534 0.961 . S
C519 H535 0.960 . S
H520 C504 0.931 . S
H521 C509 0.929 . S
H522 C510 0.960 . S
H523 C510 0.962 . S
H524 C510 0.960 . S
H525 C511 0.961 . S
H526 C511 0.961 . S
H527 C511 0.961 . S
H528 C512 0.931 . S
H529 C517 0.930 . S
H530 C518 0.956 . S
H531 C518 0.961 . S
H532 C518 0.961 . S
H533 C519 0.958 . S
H534 C519 0.961 . S
H535 C519 0.960 . S
C536 C537 1.391 . S
C536 C538 1.394 . S
C536 H552 0.931 . S
C537 C536 1.391 . S
C537 C541 1.376 . S
C538 C536 1.394 . S
C538 C539 1.369 . S
C538 C542 1.531 . S
C539 C538 1.369 . S
C539 C540 1.410 . S
C539 C547 1.503 . S
C540 C539 1.410 . S
C540 C541 1.392 . S
C540 C543 1.511 . S
C541 C537 1.376 . S
C541 C540 1.392 . S
C541 H553 0.929 . S
C542 C538 1.531 . S
C542 H554 0.960 . S
C542 H555 0.962 . S
C542 H556 0.960 . S
C543 C540 1.511 . S
C543 H557 0.961 . S
C543 H558 0.961 . S
C543 H559 0.961 . S
C544 C545 1.370 . S
C544 C546 1.363 . S
C544 H560 0.931 . S
C545 C544 1.370 . S
C545 C549 1.408 . S
C546 C544 1.363 . S
C546 C547 1.370 . S
C546 C550 1.524 . S
C547 C539 1.503 . S
C547 C546 1.370 . S
C547 C548 1.403 . S
C548 C547 1.403 . S
C548 C549 1.404 . S
C548 C551 1.539 . S
C549 C545 1.408 . S
C549 C548 1.404 . S
C549 H561 0.930 . S
C550 C546 1.524 . S
C550 H562 0.956 . S
C550 H563 0.961 . S
C550 H564 0.961 . S
C551 C548 1.539 . S
C551 H565 0.958 . S
C551 H566 0.961 . S
C551 H567 0.960 . S
H552 C536 0.931 . S
H553 C541 0.929 . S
H554 C542 0.960 . S
H555 C542 0.962 . S
H556 C542 0.960 . S
H557 C543 0.961 . S
H558 C543 0.961 . S
H559 C543 0.961 . S
H560 C544 0.931 . S
H561 C549 0.930 . S
H562 C550 0.956 . S
H563 C550 0.961 . S
H564 C550 0.961 . S
H565 C551 0.958 . S
H566 C551 0.961 . S
H567 C551 0.960 . S
C568 C569 1.391 . S
C568 C570 1.394 . S
C568 H584 0.931 . S
C569 C568 1.391 . S
C569 C573 1.376 . S
C570 C568 1.394 . S
C570 C571 1.369 . S
C570 C574 1.531 . S
C571 C570 1.369 . S
C571 C572 1.410 . S
C571 C579 1.503 . S
C572 C571 1.410 . S
C572 C573 1.392 . S
C572 C575 1.511 . S
C573 C569 1.376 . S
C573 C572 1.392 . S
C573 H585 0.929 . S
C574 C570 1.531 . S
C574 H586 0.960 . S
C574 H587 0.962 . S
C574 H588 0.960 . S
C575 C572 1.511 . S
C575 H589 0.961 . S
C575 H590 0.961 . S
C575 H591 0.961 . S
C576 C577 1.370 . S
C576 C578 1.363 . S
C576 H592 0.931 . S
C577 C576 1.370 . S
C577 C581 1.408 . S
C578 C576 1.363 . S
C578 C579 1.370 . S
C578 C582 1.524 . S
C579 C571 1.503 . S
C579 C578 1.370 . S
C579 C580 1.403 . S
C580 C579 1.403 . S
C580 C581 1.404 . S
C580 C583 1.539 . S
C581 C577 1.408 . S
C581 C580 1.404 . S
C581 H593 0.930 . S
C582 C578 1.524 . S
C582 H594 0.956 . S
C582 H595 0.961 . S
C582 H596 0.961 . S
C583 C580 1.539 . S
C583 H597 0.958 . S
C583 H598 0.961 . S
C583 H599 0.960 . S
H584 C568 0.931 . S
H585 C573 0.929 . S
H586 C574 0.960 . S
H587 C574 0.962 . S
H588 C574 0.960 . S
H589 C575 0.961 . S
H590 C575 0.961 . S
H591 C575 0.961 . S
H592 C576 0.931 . S
H593 C581 0.930 . S
H594 C582 0.956 . S
H595 C582 0.961 . S
H596 C582 0.961 . S
H597 C583 0.958 . S
H598 C583 0.961 . S
H599 C583 0.960 . S
C600 C601 1.391 . S
C600 C602 1.394 . S
C600 H616 0.931 . S
C601 C600 1.391 . S
C601 C605 1.376 . S
C602 C600 1.394 . S
C602 C603 1.369 . S
C602 C606 1.531 . S
C603 C602 1.369 . S
C603 C604 1.410 . S
C603 C611 1.503 . S
C604 C603 1.410 . S
C604 C605 1.392 . S
C604 C607 1.511 . S
C605 C601 1.376 . S
C605 C604 1.392 . S
C605 H617 0.929 . S
C606 C602 1.531 . S
C606 H618 0.960 . S
C606 H619 0.962 . S
C606 H620 0.960 . S
C607 C604 1.511 . S
C607 H621 0.961 . S
C607 H622 0.961 . S
C607 H623 0.961 . S
C608 C609 1.370 . S
C608 C610 1.363 . S
C608 H624 0.931 . S
C609 C608 1.370 . S
C609 C613 1.408 . S
C610 C608 1.363 . S
C610 C611 1.370 . S
C610 C614 1.524 . S
C611 C603 1.503 . S
C611 C610 1.370 . S
C611 C612 1.403 . S
C612 C611 1.403 . S
C612 C613 1.404 . S
C612 C615 1.539 . S
C613 C609 1.408 . S
C613 C612 1.404 . S
C613 H625 0.930 . S
C614 C610 1.524 . S
C614 H626 0.956 . S
C614 H627 0.961 . S
C614 H628 0.961 . S
C615 C612 1.539 . S
C615 H629 0.958 . S
C615 H630 0.961 . S
C615 H631 0.960 . S
H616 C600 0.931 . S
H617 C605 0.929 . S
H618 C606 0.960 . S
H619 C606 0.962 . S
H620 C606 0.960 . S
H621 C607 0.961 . S
H622 C607 0.961 . S
H623 C607 0.961 . S
H624 C608 0.931 . S
H625 C613 0.930 . S
H626 C614 0.956 . S
H627 C614 0.961 . S
H628 C614 0.961 . S
H629 C615 0.958 . S
H630 C615 0.961 . S
H631 C615 0.960 . S
C632 C633 1.391 . S
C632 C634 1.394 . S
C632 H648 0.931 . S
C633 C632 1.391 . S
C633 C637 1.376 . S
C634 C632 1.394 . S
C634 C635 1.369 . S
C634 C638 1.531 . S
C635 C634 1.369 . S
C635 C636 1.410 . S
C635 C643 1.503 . S
C636 C635 1.410 . S
C636 C637 1.392 . S
C636 C639 1.511 . S
C637 C633 1.376 . S
C637 C636 1.392 . S
C637 H649 0.929 . S
C638 C634 1.531 . S
C638 H650 0.960 . S
C638 H651 0.962 . S
C638 H652 0.960 . S
C639 C636 1.511 . S
C639 H653 0.961 . S
C639 H654 0.961 . S
C639 H655 0.961 . S
C640 C641 1.370 . S
C640 C642 1.363 . S
C640 H656 0.931 . S
C641 C640 1.370 . S
C641 C645 1.408 . S
C642 C640 1.363 . S
C642 C643 1.370 . S
C642 C646 1.524 . S
C643 C635 1.503 . S
C643 C642 1.370 . S
C643 C644 1.403 . S
C644 C643 1.403 . S
C644 C645 1.404 . S
C644 C647 1.539 . S
C645 C641 1.408 . S
C645 C644 1.404 . S
C645 H657 0.930 . S
C646 C642 1.524 . S
C646 H658 0.956 . S
C646 H659 0.961 . S
C646 H660 0.961 . S
C647 C644 1.539 . S
C647 H661 0.958 . S
C647 H662 0.961 . S
C647 H663 0.960 . S
H648 C632 0.931 . S
H649 C637 0.929 . S
H650 C638 0.960 . S
H651 C638 0.962 . S
H652 C638 0.960 . S
H653 C639 0.961 . S
H654 C639 0.961 . S
H655 C639 0.961 . S
H656 C640 0.931 . S
H657 C645 0.930 . S
H658 C646 0.956 . S
H659 C646 0.961 . S
H660 C646 0.961 . S
H661 C647 0.958 . S
H662 C647 0.961 . S
H663 C647 0.960 . S
C664 C665 1.391 . S
C664 C666 1.394 . S
C664 H680 0.931 . S
C665 C664 1.391 . S
C665 C669 1.376 . S
C666 C664 1.394 . S
C666 C667 1.369 . S
C666 C670 1.531 . S
C667 C666 1.369 . S
C667 C668 1.410 . S
C667 C675 1.503 . S
C668 C667 1.410 . S
C668 C669 1.392 . S
C668 C671 1.511 . S
C669 C665 1.376 . S
C669 C668 1.392 . S
C669 H681 0.929 . S
C670 C666 1.531 . S
C670 H682 0.960 . S
C670 H683 0.962 . S
C670 H684 0.960 . S
C671 C668 1.511 . S
C671 H685 0.961 . S
C671 H686 0.961 . S
C671 H687 0.961 . S
C672 C673 1.370 . S
C672 C674 1.363 . S
C672 H688 0.931 . S
C673 C672 1.370 . S
C673 C677 1.408 . S
C674 C672 1.363 . S
C674 C675 1.370 . S
C674 C678 1.524 . S
C675 C667 1.503 . S
C675 C674 1.370 . S
C675 C676 1.403 . S
C676 C675 1.403 . S
C676 C677 1.404 . S
C676 C679 1.539 . S
C677 C673 1.408 . S
C677 C676 1.404 . S
C677 H689 0.930 . S
C678 C674 1.524 . S
C678 H690 0.956 . S
C678 H691 0.961 . S
C678 H692 0.961 . S
C679 C676 1.539 . S
C679 H693 0.958 . S
C679 H694 0.961 . S
C679 H695 0.960 . S
H680 C664 0.931 . S
H681 C669 0.929 . S
H682 C670 0.960 . S
H683 C670 0.962 . S
H684 C670 0.960 . S
H685 C671 0.961 . S
H686 C671 0.961 . S
H687 C671 0.961 . S
H688 C672 0.931 . S
H689 C677 0.930 . S
H690 C678 0.956 . S
H691 C678 0.961 . S
H692 C678 0.961 . S
H693 C679 0.958 . S
H694 C679 0.961 . S
H695 C679 0.960 . S
C696 C697 1.391 . S
C696 C698 1.394 . S
C696 H712 0.931 . S
C697 C696 1.391 . S
C697 C701 1.376 1_455 S
C698 C696 1.394 . S
C698 C699 1.369 . S
C698 C702 1.531 . S
C699 C698 1.369 . S
C699 C700 1.410 1_455 S
C699 C707 1.503 . S
C700 C699 1.410 1_655 S
C700 C701 1.392 . S
C700 C703 1.511 . S
C701 C697 1.376 1_655 S
C701 C700 1.392 . S
C701 H713 0.929 . S
C702 C698 1.531 . S
C702 H714 0.960 . S
C702 H715 0.962 . S
C702 H716 0.960 . S
C703 C700 1.511 . S
C703 H717 0.961 . S
C703 H718 0.961 . S
C703 H719 0.961 . S
C704 C705 1.370 . S
C704 C706 1.363 1_556 S
C704 H720 0.931 . S
C705 C704 1.370 . S
C705 C709 1.408 . S
C706 C704 1.363 1_554 S
C706 C707 1.370 . S
C706 C710 1.524 . S
C707 C699 1.503 . S
C707 C706 1.370 . S
C707 C708 1.403 . S
C708 C707 1.403 . S
C708 C709 1.404 1_554 S
C708 C711 1.539 1_455 S
C709 C705 1.408 . S
C709 C708 1.404 1_556 S
C709 H721 0.930 1_455 S
C710 C706 1.524 . S
C710 H722 0.956 . S
C710 H723 0.961 . S
C710 H724 0.961 . S
C711 C708 1.539 1_655 S
C711 H725 0.958 . S
C711 H726 0.961 . S
C711 H727 0.960 . S
H712 C696 0.931 . S
H713 C701 0.929 . S
H714 C702 0.960 . S
H715 C702 0.962 . S
H716 C702 0.960 . S
H717 C703 0.961 . S
H718 C703 0.961 . S
H719 C703 0.961 . S
H720 C704 0.931 . S
H721 C709 0.930 1_655 S
H722 C710 0.956 . S
H723 C710 0.961 . S
H724 C710 0.961 . S
H725 C711 0.958 . S
H726 C711 0.961 . S
H727 C711 0.960 . S
C728 C729 1.391 1_565 S
C728 C730 1.394 . S
C728 H744 0.931 . S
C729 C728 1.391 1_545 S
C729 C733 1.376 . S
C730 C728 1.394 . S
C730 C731 1.369 1_565 S
C730 C734 1.531 . S
C731 C730 1.369 1_545 S
C731 C732 1.410 . S
C731 C739 1.503 . S
C732 C731 1.410 . S
C732 C733 1.392 . S
C732 C735 1.511 . S
C733 C729 1.376 . S
C733 C732 1.392 . S
C733 H745 0.929 . S
C734 C730 1.531 . S
C734 H746 0.960 . S
C734 H747 0.962 . S
C734 H748 0.960 . S
C735 C732 1.511 . S
C735 H749 0.961 . S
C735 H750 0.961 . S
C735 H751 0.961 . S
C736 C737 1.370 . S
C736 C738 1.363 . S
C736 H752 0.931 . S
C737 C736 1.370 . S
C737 C741 1.408 1_545 S
C738 C736 1.363 . S
C738 C739 1.370 . S
C738 C742 1.524 . S
C739 C731 1.503 . S
C739 C738 1.370 . S
C739 C740 1.403 1_545 S
C740 C739 1.403 1_565 S
C740 C741 1.404 . S
C740 C743 1.539 . S
C741 C737 1.408 1_565 S
C741 C740 1.404 . S
C741 H753 0.930 . S
C742 C738 1.524 . S
C742 H754 0.956 . S
C742 H755 0.961 . S
C742 H756 0.961 . S
C743 C740 1.539 . S
C743 H757 0.958 . S
C743 H758 0.961 . S
C743 H759 0.960 . S
H744 C728 0.931 . S
H745 C733 0.929 . S
H746 C734 0.960 . S
H747 C734 0.962 . S
H748 C734 0.960 . S
H749 C735 0.961 . S
H750 C735 0.961 . S
H751 C735 0.961 . S
H752 C736 0.931 . S
H753 C741 0.930 . S
H754 C742 0.956 . S
H755 C742 0.961 . S
H756 C742 0.961 . S
H757 C743 0.958 . S
H758 C743 0.961 . S
H759 C743 0.960 . S
C760 C761 1.391 . S
C760 C762 1.394 . S
C760 H776 0.931 . S
C761 C760 1.391 . S
C761 C765 1.376 . S
C762 C760 1.394 . S
C762 C763 1.369 . S
C762 C766 1.531 . S
C763 C762 1.369 . S
C763 C764 1.410 . S
C763 C771 1.503 . S
C764 C763 1.410 . S
C764 C765 1.392 . S
C764 C767 1.511 . S
C765 C761 1.376 . S
C765 C764 1.392 . S
C765 H777 0.929 . S
C766 C762 1.531 . S
C766 H778 0.960 . S
C766 H779 0.962 . S
C766 H780 0.960 . S
C767 C764 1.511 . S
C767 H781 0.961 . S
C767 H782 0.961 . S
C767 H783 0.961 . S
C768 C769 1.370 . S
C768 C770 1.363 . S
C768 H784 0.931 . S
C769 C768 1.370 . S
C769 C773 1.408 . S
C770 C768 1.363 . S
C770 C771 1.370 . S
C770 C774 1.524 . S
C771 C763 1.503 . S
C771 C770 1.370 . S
C771 C772 1.403 . S
C772 C771 1.403 . S
C772 C773 1.404 . S
C772 C775 1.539 . S
C773 C769 1.408 . S
C773 C772 1.404 . S
C773 H785 0.930 . S
C774 C770 1.524 . S
C774 H786 0.956 . S
C774 H787 0.961 . S
C774 H788 0.961 . S
C775 C772 1.539 . S
C775 H789 0.958 . S
C775 H790 0.961 . S
C775 H791 0.960 . S
H776 C760 0.931 . S
H777 C765 0.929 . S
H778 C766 0.960 . S
H779 C766 0.962 . S
H780 C766 0.960 . S
H781 C767 0.961 . S
H782 C767 0.961 . S
H783 C767 0.961 . S
H784 C768 0.931 . S
H785 C773 0.930 . S
H786 C774 0.956 . S
H787 C774 0.961 . S
H788 C774 0.961 . S
H789 C775 0.958 . S
H790 C775 0.961 . S
H791 C775 0.960 . S
C792 C793 1.391 1_565 S
C792 C794 1.394 . S
C792 H808 0.931 . S
C793 C792 1.391 1_545 S
C793 C797 1.376 . S
C794 C792 1.394 . S
C794 C795 1.369 1_565 S
C794 C798 1.531 . S
C795 C794 1.369 1_545 S
C795 C796 1.410 . S
C795 C803 1.503 . S
C796 C795 1.410 . S
C796 C797 1.392 . S
C796 C799 1.511 . S
C797 C793 1.376 . S
C797 C796 1.392 . S
C797 H809 0.929 . S
C798 C794 1.531 . S
C798 H810 0.960 . S
C798 H811 0.962 . S
C798 H812 0.960 . S
C799 C796 1.511 . S
C799 H813 0.961 . S
C799 H814 0.961 . S
C799 H815 0.961 . S
C800 C801 1.377 1_565 S
C800 C802 1.363 . S
C800 H816 0.931 . S
C801 C800 1.377 1_545 S
C801 C805 1.403 . S
C802 C800 1.363 . S
C802 C803 1.370 1_565 S
C802 C806 1.524 . S
C803 C795 1.503 . S
C803 C802 1.370 1_545 S
C803 C804 1.403 . S
C804 C803 1.403 . S
C804 C805 1.404 . S
C804 C807 1.539 . S
C805 C801 1.403 . S
C805 C804 1.404 . S
C805 H817 0.930 . S
C806 C802 1.524 . S
C806 H818 0.956 . S
C806 H819 0.961 . S
C806 H820 0.961 . S
C807 C804 1.539 . S
C807 H821 0.958 . S
C807 H822 0.961 . S
C807 H823 0.960 . S
H808 C792 0.931 . S
H809 C797 0.929 . S
H810 C798 0.960 . S
H811 C798 0.962 . S
H812 C798 0.960 . S
H813 C799 0.961 . S
H814 C799 0.961 . S
H815 C799 0.961 . S
H816 C800 0.931 . S
H817 C805 0.930 . S
H818 C806 0.956 . S
H819 C806 0.961 . S
H820 C806 0.961 . S
H821 C807 0.958 . S
H822 C807 0.961 . S
H823 C807 0.960 . S
C824 C825 1.391 . S
C824 C826 1.394 . S
C824 H840 0.931 . S
C825 C824 1.391 . S
C825 C829 1.376 . S
C826 C824 1.394 . S
C826 C827 1.369 . S
C826 C830 1.531 . S
C827 C826 1.369 . S
C827 C828 1.410 . S
C827 C835 1.503 . S
C828 C827 1.410 . S
C828 C829 1.392 . S
C828 C831 1.511 . S
C829 C825 1.376 . S
C829 C828 1.392 . S
C829 H841 0.929 . S
C830 C826 1.531 . S
C830 H842 0.960 . S
C830 H843 0.962 . S
C830 H844 0.960 . S
C831 C828 1.511 . S
C831 H845 0.961 . S
C831 H846 0.961 . S
C831 H847 0.961 . S
C832 C833 1.370 1_556 S
C832 C834 1.363 . S
C832 H848 0.931 1_556 S
C833 C832 1.370 1_554 S
C833 C837 1.408 1_554 S
C834 C832 1.363 . S
C834 C835 1.370 . S
C834 C838 1.524 . S
C835 C827 1.503 . S
C835 C834 1.370 . S
C835 C836 1.403 . S
C836 C835 1.403 . S
C836 C837 1.404 . S
C836 C839 1.539 . S
C837 C833 1.408 1_556 S
C837 C836 1.404 . S
C837 H849 0.930 . S
C838 C834 1.524 . S
C838 H850 0.956 . S
C838 H851 0.961 . S
C838 H852 0.961 . S
C839 C836 1.539 . S
C839 H853 0.958 . S
C839 H854 0.961 . S
C839 H855 0.960 . S
H840 C824 0.931 . S
H841 C829 0.929 . S
H842 C830 0.960 . S
H843 C830 0.962 . S
H844 C830 0.960 . S
H845 C831 0.961 . S
H846 C831 0.961 . S
H847 C831 0.961 . S
H848 C832 0.931 1_554 S
H849 C837 0.930 . S
H850 C838 0.956 . S
H851 C838 0.961 . S
H852 C838 0.961 . S
H853 C839 0.958 . S
H854 C839 0.961 . S
H855 C839 0.960 . S
C856 C857 1.391 1_655 S
C856 C858 1.394 . S
C856 H872 0.931 . S
C857 C856 1.391 1_455 S
C857 C861 1.376 . S
C858 C856 1.394 . S
C858 C859 1.369 1_655 S
C858 C862 1.531 . S
C859 C858 1.369 1_455 S
C859 C860 1.410 . S
C859 C867 1.503 . S
C860 C859 1.410 . S
C860 C861 1.392 . S
C860 C863 1.511 . S
C861 C857 1.376 . S
C861 C860 1.392 . S
C861 H873 0.929 . S
C862 C858 1.531 . S
C862 H874 0.960 . S
C862 H875 0.962 . S
C862 H876 0.960 . S
C863 C860 1.511 . S
C863 H877 0.961 . S
C863 H878 0.961 . S
C863 H879 0.961 . S
C864 C865 1.370 1_655 S
C864 C866 1.367 . S
C864 H880 0.931 . S
C865 C864 1.370 1_455 S
C865 C869 1.408 . S
C866 C864 1.367 . S
C866 C867 1.349 1_655 S
C866 C870 1.543 . S
C867 C859 1.503 . S
C867 C866 1.349 1_455 S
C867 C868 1.403 . S
C868 C867 1.403 . S
C868 C869 1.404 . S
C868 C871 1.539 . S
C869 C865 1.408 . S
C869 C868 1.404 . S
C869 H881 0.930 . S
C870 C866 1.543 . S
C870 H882 0.956 . S
C870 H883 0.961 1_655 S
C870 H884 0.961 . S
C871 C868 1.539 . S
C871 H885 0.958 . S
C871 H886 0.961 . S
C871 H887 0.960 . S
H872 C856 0.931 . S
H873 C861 0.929 . S
H874 C862 0.960 . S
H875 C862 0.962 . S
H876 C862 0.960 . S
H877 C863 0.961 . S
H878 C863 0.961 . S
H879 C863 0.961 . S
H880 C864 0.931 . S
H881 C869 0.930 . S
H882 C870 0.956 . S
H883 C870 0.961 1_455 S
H884 C870 0.961 . S
H885 C871 0.958 . S
H886 C871 0.961 . S
H887 C871 0.960 . S
C313 C6 0.634 . S
C321 C303 0.531 . S
C345 C59 1.885 . S
C353 C239 1.843 . S
C377 C86 1.216 . S
C385 C271 1.228 . S
C409 C15 0.579 . S
C417 C297 0.427 . S
C449 C233 1.915 . S
C441 C50 1.951 . S
C481 C265 1.286 . S
C473 C95 1.298 . S
C505 C46 1.239 . S
C513 C175 1.227 . S
C537 C99 3.043 . S
C545 C207 2.988 . S
C569 C10 1.978 . S
C577 C137 1.926 . S
C609 C169 1.270 . S
C601 C55 1.293 . S
C641 C201 2.964 . S
C633 C90 2.989 . S
C665 C19 1.881 . S
C673 C143 1.859 . S
C705 C213 1.746 . S
C697 C18 1.717 . S
C729 C49 1.348 . S
C737 C149 1.359 . S
C761 C98 1.425 . S
C769 C181 1.490 . S
C801 C277 1.438 . S
C793 C58 1.462 . S
C833 C309 1.082 . S
C825 C89 1.107 . S
C857 C9 1.295 . S
C865 C245 1.327 . S
