# Generated by pormake.
# Topology pyr, (3,6)-cn, num edge types: 1
# Building blocks:
#     Node 0, Type 0, BuildingBlock: PAMTOO_clean_linker_0, # of connection points: 3
#     Node 1, Type 0, BuildingBlock: PAMTOO_clean_linker_0, # of connection points: 3
#     Node 2, Type 0, BuildingBlock: PAMTOO_clean_linker_0, # of connection points: 3
#     Node 3, Type 0, BuildingBlock: PAMTOO_clean_linker_0, # of connection points: 3
#     Node 4, Type 0, BuildingBlock: PAMTOO_clean_linker_0, # of connection points: 3
#     Node 5, Type 0, BuildingBlock: PAMTOO_clean_linker_0, # of connection points: 3
#     Node 6, Type 0, BuildingBlock: PAMTOO_clean_linker_0, # of connection points: 3
#     Node 7, Type 0, BuildingBlock: PAMTOO_clean_linker_0, # of connection points: 3
#     Node 8, Type 1, BuildingBlock: BETFAJ_clean_sbu_0, # of connection points: 6
#     Node 9, Type 1, BuildingBlock: BETFAJ_clean_sbu_0, # of connection points: 6
#     Node 10, Type 1, BuildingBlock: BETFAJ_clean_sbu_0, # of connection points: 6
#     Node 11, Type 1, BuildingBlock: BETFAJ_clean_sbu_0, # of connection points: 6
#     Edge 12, Type (0, 1), BuildingBlock: EZIPEK_clean_linker_0, # of connection points: 2
#     Edge 13, Type (0, 1), BuildingBlock: EZIPEK_clean_linker_0, # of connection points: 2
#     Edge 14, Type (0, 1), BuildingBlock: EZIPEK_clean_linker_0, # of connection points: 2
#     Edge 15, Type (0, 1), BuildingBlock: EZIPEK_clean_linker_0, # of connection points: 2
#     Edge 16, Type (0, 1), BuildingBlock: EZIPEK_clean_linker_0, # of connection points: 2
#     Edge 17, Type (0, 1), BuildingBlock: EZIPEK_clean_linker_0, # of connection points: 2
#     Edge 18, Type (0, 1), BuildingBlock: EZIPEK_clean_linker_0, # of connection points: 2
#     Edge 19, Type (0, 1), BuildingBlock: EZIPEK_clean_linker_0, # of connection points: 2
#     Edge 20, Type (0, 1), BuildingBlock: EZIPEK_clean_linker_0, # of connection points: 2
#     Edge 21, Type (0, 1), BuildingBlock: EZIPEK_clean_linker_0, # of connection points: 2
#     Edge 22, Type (0, 1), BuildingBlock: EZIPEK_clean_linker_0, # of connection points: 2
#     Edge 23, Type (0, 1), BuildingBlock: EZIPEK_clean_linker_0, # of connection points: 2
#     Edge 24, Type (0, 1), BuildingBlock: EZIPEK_clean_linker_0, # of connection points: 2
#     Edge 25, Type (0, 1), BuildingBlock: EZIPEK_clean_linker_0, # of connection points: 2
#     Edge 26, Type (0, 1), BuildingBlock: EZIPEK_clean_linker_0, # of connection points: 2
#     Edge 27, Type (0, 1), BuildingBlock: EZIPEK_clean_linker_0, # of connection points: 2
#     Edge 28, Type (0, 1), BuildingBlock: EZIPEK_clean_linker_0, # of connection points: 2
#     Edge 29, Type (0, 1), BuildingBlock: EZIPEK_clean_linker_0, # of connection points: 2
#     Edge 30, Type (0, 1), BuildingBlock: EZIPEK_clean_linker_0, # of connection points: 2
#     Edge 31, Type (0, 1), BuildingBlock: EZIPEK_clean_linker_0, # of connection points: 2
#     Edge 32, Type (0, 1), BuildingBlock: EZIPEK_clean_linker_0, # of connection points: 2
#     Edge 33, Type (0, 1), BuildingBlock: EZIPEK_clean_linker_0, # of connection points: 2
#     Edge 34, Type (0, 1), BuildingBlock: EZIPEK_clean_linker_0, # of connection points: 2
#     Edge 35, Type (0, 1), BuildingBlock: EZIPEK_clean_linker_0, # of connection points: 2
# Relax obj value: 0.260
# Max RMSD: 0.243
# Mean RMSD: 0.154
data_MOF--net-pyr--node1-BETFAJ_clean_sbu_0--node2-PAMTOO_clean_linker_0--edge1-EZIPEK_clean_linker_0
_symmetry_space_group_name_H-M    P1
_symmetry_Int_Tables_number       1
_symmetry_cell_setting            triclinic
loop_
_symmetry_equiv_pos_as_xyz
'x, y, z'
_cell_length_a     27.36896
_cell_length_b     30.401751
_cell_length_c     27.032136
_cell_angle_alpha  91.950318
_cell_angle_beta   89.685671
_cell_angle_gamma 108.32973
loop_
_atom_site_label
_atom_site_type_symbol
_atom_site_fract_x
_atom_site_fract_y
_atom_site_fract_z
_atom_type_partial_charge
H0 H 0.34999 0.37764 0.29907 0.0
H1 H 0.44739 0.29253 0.31447 0.0
H2 H 0.46996 0.38513 0.19369 0.0
H3 H 0.47744 0.30073 0.15704 0.0
C4 C 0.47365 0.28325 0.19297 0.0
O5 O 0.49421 0.31603 0.23035 0.0
H6 H 0.43129 0.26725 0.19701 0.0
C7 C 0.38407 0.36883 0.28801 0.0
C8 C 0.40997 0.38706 0.24499 0.0
C9 C 0.3973 0.33486 0.31318 0.0
C10 C 0.43888 0.32075 0.29679 0.0
C11 C 0.46465 0.33851 0.25335 0.0
C12 C 0.45184 0.37333 0.22866 0.0
H13 H 0.31377 0.9826 0.67268 0.0
H14 H 0.2549 0.91025 0.53501 0.0
H15 H 0.3431 0.85535 0.63277 0.0
H16 H 0.35101 0.87941 0.49594 0.0
C17 C 0.33532 0.84499 0.51252 0.0
O18 O 0.297 0.84441 0.54627 0.0
H19 H 0.31777 0.82289 0.47967 0.0
C20 C 0.30972 0.95381 0.64649 0.0
C21 C 0.33121 0.91926 0.65774 0.0
C22 C 0.28099 0.95044 0.60294 0.0
C23 C 0.27666 0.91325 0.56901 0.0
C24 C 0.30038 0.87973 0.57914 0.0
C25 C 0.32649 0.88216 0.62409 0.0
H26 H 0.77102 0.34577 0.97939 0.0
H27 H 0.65892 0.32823 0.8625 0.0
H28 H 0.78598 0.45517 0.87757 0.0
H29 H 0.68009 0.46441 0.85216 0.0
C30 C 0.67157 0.43852 0.82081 0.0
O31 O 0.70472 0.41152 0.82275 0.0
H32 H 0.63182 0.41598 0.82851 0.0
C33 C 0.75622 0.35927 0.9482 0.0
C34 C 0.78349 0.40398 0.93206 0.0
C35 C 0.71124 0.33112 0.92379 0.0
C36 C 0.69285 0.34951 0.88232 0.0
C37 C 0.71925 0.39492 0.86552 0.0
C38 C 0.76462 0.42131 0.8908 0.0
H39 H 0.89401 0.78717 0.48615 0.0
H40 H 0.88979 0.67323 0.38521 0.0
H41 H 1.01349 0.80267 0.37704 0.0
H42 H 0.95876 0.73621 0.27255 0.0
C43 C 0.95998 0.70414 0.29012 0.0
O44 O 0.97736 0.71497 0.33934 0.0
H45 H 0.91894 0.68222 0.29051 0.0
C46 C 0.91082 0.77304 0.45555 0.0
C47 C 0.9568 0.80122 0.43432 0.0
C48 C 0.88576 0.72715 0.43806 0.0
C49 C 0.90819 0.70863 0.39833 0.0
C50 C 0.9542 0.73534 0.37536 0.0
C51 C 0.97801 0.78192 0.39366 0.0
H52 H 0.76938 0.90919 0.90835 0.0
H53 H 0.6747 0.8302 1.02272 0.0
H54 H 0.80619 0.79528 0.96895 0.0
H55 H 0.68742 0.71567 0.99215 0.0
C56 C 0.71689 0.72676 1.0217 0.0
O57 O 0.72938 0.77388 1.03195 0.0
H58 H 0.6962 0.70776 1.05381 0.0
C59 C 0.75883 0.87928 0.9316 0.0
C60 C 0.78985 0.85045 0.93239 0.0
C61 C 0.7179 0.8728 0.96479 0.0
C62 C 0.70527 0.83464 0.99586 0.0
C63 C 0.73649 0.80586 0.99679 0.0
C64 C 0.77961 0.8149 0.96602 0.0
H65 H 0.83456 0.14507 0.50241 0.0
H66 H 0.74792 0.23612 0.54529 0.0
H67 H 0.81657 0.17676 0.65666 0.0
H68 H 0.72065 0.23565 0.69819 0.0
C69 C 0.71987 0.23266 0.65714 0.0
O70 O 0.7687 0.23631 0.64037 0.0
H71 H 0.69336 0.19782 0.6459 0.0
C72 C 0.81857 0.16212 0.53117 0.0
C73 C 0.82926 0.15751 0.58109 0.0
C74 C 0.7877 0.1891 0.51829 0.0
C75 C 0.76969 0.21346 0.55524 0.0
C76 C 0.77986 0.20856 0.60511 0.0
C77 C 0.80776 0.17927 0.61801 0.0
H78 H 0.39452 0.79509 0.14305 0.0
H79 H 0.37885 0.68659 0.24647 0.0
H80 H 0.50349 0.81495 0.26316 0.0
H81 H 0.53373 0.73524 0.29758 0.0
C82 C 0.49565 0.71023 0.30668 0.0
O83 O 0.45826 0.73262 0.30313 0.0
H84 H 0.48941 0.68281 0.27704 0.0
C85 C 0.40834 0.78219 0.17524 0.0
C86 C 0.4528 0.81084 0.20044 0.0
C87 C 0.38121 0.73724 0.1913 0.0
C88 C 0.39972 0.72062 0.23336 0.0
C89 C 0.44392 0.74813 0.25974 0.0
C90 C 0.46998 0.79336 0.24298 0.0
H91 H 0.12811 0.3513 0.82087 0.0
H92 H 0.24481 0.48344 0.79951 0.0
H93 H 0.23886 0.36696 0.70282 0.0
H94 H 0.34381 0.42874 0.74096 0.0
C95 C 0.33817 0.46179 0.73015 0.0
O96 O 0.28628 0.45503 0.72097 0.0
H97 H 0.35065 0.48495 0.76348 0.0
C98 C 0.16133 0.37248 0.80127 0.0
C99 C 0.18099 0.35238 0.75982 0.0
C100 C 0.18427 0.42036 0.81663 0.0
C101 C 0.22714 0.44709 0.78945 0.0
C102 C 0.24709 0.42786 0.74883 0.0
C103 C 0.22388 0.38102 0.73469 0.0
Sm104 Sm 0.07746 0.09919 0.5515 0.0
Sm105 Sm 0.07222 1.05048 0.64467 0.0
C106 C 0.08043 0.15683 0.48038 0.0
C107 C 0.12625 0.19411 0.46622 0.0
C108 C 0.12863 0.21475 0.42044 0.0
C109 C 0.1761 0.24198 0.40248 0.0
C110 C 0.22138 0.24822 0.43002 0.0
C111 C 0.21844 0.2298 0.47708 0.0
C112 C 0.17107 0.20303 0.49516 0.0
C113 C 0.16558 0.07618 0.57098 0.0
C114 C 0.11132 0.16514 0.65615 0.0
C115 C 0.08044 0.99433 0.71461 0.0
C116 C 0.04112 0.95998 0.74177 0.0
C117 C 0.0543 0.94028 0.78372 0.0
C118 C 1.01558 0.91393 0.81438 0.0
C119 C 0.96374 0.90787 0.80335 0.0
C120 C 0.9507 0.92504 0.75961 0.0
C121 C 0.98924 0.95097 0.72891 0.0
C122 C 0.98454 0.07316 0.6294 0.0
C123 C 0.03379 0.98704 0.53865 0.0
O124 O 0.06202 0.16179 0.52424 0.0
O125 O 0.08438 0.11553 0.47207 0.0
O126 O 0.14036 0.09201 0.60192 0.0
O127 O 0.14506 0.07352 0.52758 0.0
O128 O 0.10103 0.16281 0.60811 0.0
O129 O 0.10788 0.12613 0.67882 0.0
O130 O 0.08347 0.98479 0.66749 0.0
O131 O 0.08156 1.03706 0.72358 0.0
O132 O 1.00882 1.05927 0.59567 0.0
O133 O 1.00083 0.06742 0.67273 0.0
O134 O 0.05198 0.98882 0.58447 0.0
O135 O 0.03216 1.02587 0.51892 0.0
H136 H 0.09454 0.20758 0.39745 0.0
H137 H 0.17804 0.25571 0.3658 0.0
H138 H 0.25307 0.23383 0.4984 0.0
H139 H 0.16996 0.18658 0.53027 0.0
H140 H 0.09428 0.94717 0.79399 0.0
H141 H 0.02599 0.90086 0.8482 0.0
H142 H 0.91084 0.92064 0.75078 0.0
H143 H 0.97864 0.96613 0.69657 0.0
Sm144 Sm 0.63353 0.08543 0.10391 0.0
Sm145 Sm 0.54905 0.0657 1.04183 0.0
C146 C 0.7161 0.11633 0.16223 0.0
C147 C 0.73102 0.13991 0.21064 0.0
C148 C 0.70868 0.17267 0.22971 0.0
C149 C 0.71815 0.18916 0.27889 0.0
C150 C 0.74915 0.17227 0.30939 0.0
C151 C 0.77305 0.14113 0.28957 0.0
C152 C 0.76416 0.12518 0.24049 0.0
C153 C 0.56561 0.99573 0.12051 0.0
C154 C 0.5495 0.13319 0.13779 0.0
C155 C 0.46014 1.03418 0.99366 0.0
C156 C 0.44378 1.01075 0.94531 0.0
C157 C 0.46173 0.97445 0.92796 0.0
C158 C 0.44671 0.95344 0.88133 0.0
C159 C 0.41445 0.9691 0.8513 0.0
C160 C 0.39658 1.00527 0.86856 0.0
C161 C 0.41105 1.02588 0.91535 0.0
C162 C 0.62569 0.14298 1.00669 0.0
C163 C 0.64027 1.02611 1.011 0.0
O164 O 0.70668 0.14005 0.1262 0.0
O165 O 0.68317 0.0749 0.16379 0.0
O166 O 0.55269 1.03221 0.11569 0.0
O167 O 0.61469 1.00614 0.11408 0.0
O168 O 0.59082 0.12409 0.15217 0.0
O169 O 0.5248 0.11414 0.09695 0.0
O170 O 0.47504 1.01055 1.0265 0.0
O171 O 0.48951 0.07721 0.99269 0.0
O172 O 0.61291 0.13551 1.05177 0.0
O173 O 0.60087 0.1068 0.97951 0.0
O174 O 0.58989 1.01394 1.01392 0.0
O175 O 0.66699 0.06565 1.03195 0.0
H176 H 0.68259 0.18412 0.2073 0.0
H177 H 0.69946 0.21323 0.29382 0.0
H178 H 0.79714 0.12791 0.31267 0.0
H179 H 0.78143 0.09973 0.22642 0.0
H180 H 0.48751 0.96249 0.95024 0.0
H181 H 0.46061 0.92544 0.86842 0.0
H182 H 0.37141 1.01748 0.84573 0.0
H183 H 0.39703 1.0539 0.92803 0.0
Sm184 Sm 0.59133 0.54698 0.53253 0.0
Sm185 Sm 0.60434 0.62564 0.59692 0.0
C186 C 0.61017 0.4765 0.48523 0.0
C187 C 0.62911 0.44038 0.5054 0.0
C188 C 0.66502 0.45189 0.54447 0.0
C189 C 0.67761 0.41749 0.56903 0.0
C190 C 0.65683 0.37089 0.55339 0.0
C191 C 0.62289 0.35929 0.51263 0.0
C192 C 0.60842 0.39383 0.48927 0.0
C193 C 0.50207 0.53918 0.58585 0.0
C194 C 0.63474 0.54275 0.64859 0.0
C195 C 0.58872 0.69742 0.64486 0.0
C196 C 0.55818 0.72764 0.63101 0.0
C197 C 0.51304 0.72552 0.6572 0.0
C198 C 0.47919 0.74775 0.6399 0.0
C199 C 0.49 0.77254 0.59619 0.0
C200 C 0.53611 0.77657 0.57113 0.0
C201 C 0.57005 0.75442 0.58847 0.0
C202 C 0.69422 0.63242 0.54452 0.0
C203 C 0.55262 0.62529 0.48359 0.0
O204 O 0.64279 0.5185 0.48708 0.0
O205 O 0.56395 0.47532 0.499 0.0
O206 O 0.54758 0.55357 0.60295 0.0
O207 O 0.50277 0.52821 0.53896 0.0
O208 O 0.62865 0.52549 0.60253 0.0
O209 O 0.62566 0.58241 0.6584 0.0
O210 O 0.562 0.6545 0.65295 0.0
O211 O 0.6304 0.70058 0.61951 0.0
O212 O 0.64879 0.61941 0.52672 0.0
O213 O 0.69265 0.64138 0.59177 0.0
O214 O 0.55648 0.64112 0.53036 0.0
O215 O 0.56788 0.58911 0.47224 0.0
H216 H 0.68296 0.4875 0.55681 0.0
H217 H 0.70396 0.42731 0.60024 0.0
H218 H 0.60669 0.32349 0.49985 0.0
H219 H 0.58063 0.38419 0.45925 0.0
H220 H 0.50289 0.70505 0.68995 0.0
H221 H 0.44371 0.74435 0.65965 0.0
H222 H 0.54498 0.79558 0.53731 0.0
H223 H 0.6046 0.75696 0.56755 0.0
Sm224 Sm 0.08382 0.53192 0.09154 0.0
Sm225 Sm 0.08464 0.59841 1.02643 0.0
C226 C 0.10984 0.47027 0.14387 0.0
C227 C 0.16032 0.46588 0.15594 0.0
C228 C 0.2045 0.49176 0.13067 0.0
C229 C 0.25221 0.4863 0.14018 0.0
C230 C 0.25628 0.45471 0.17507 0.0
C231 C 0.21244 0.42931 0.20104 0.0
C232 C 0.16463 0.43498 0.1916 0.0
C233 C 0.03693 0.59234 0.13847 0.0
C234 C 0.18817 0.62495 0.09066 0.0
C235 C 0.05437 0.65856 0.97553 0.0
C236 C 1.00607 0.66991 0.98105 0.0
C237 C 0.97174 0.64972 1.01886 0.0
C238 C 0.92456 0.65785 1.02346 0.0
C239 C 0.91128 0.68737 0.99112 0.0
C240 C 0.94586 0.70827 0.95363 0.0
C241 C 0.99288 0.69925 0.94837 0.0
C242 C 0.12891 0.53527 0.97927 0.0
C243 C 0.9795 0.50875 1.0302 0.0
O244 O 0.09706 0.46391 0.09723 0.0
O245 O 0.09963 0.50591 0.16394 0.0
O246 O 0.07739 0.60414 0.11174 0.0
O247 O 1.01776 0.54733 0.13627 0.0
O248 O 0.1688 0.58087 0.1014 0.0
O249 O 0.16164 0.64314 0.06184 0.0
O250 O 0.08615 0.67077 1.01291 0.0
O251 O 0.04889 0.61643 0.95945 0.0
O252 O 0.08943 0.52533 1.00697 0.0
O253 O 0.14645 0.58018 0.97672 0.0
O254 O 0.99795 0.55368 1.02403 0.0
O255 O 1.00772 0.48832 1.05383 0.0
H256 H 0.20209 0.51535 0.10266 0.0
H257 H 0.28561 0.50573 0.11951 0.0
H258 H 0.21513 0.40449 0.22787 0.0
H259 H 0.131 0.41469 0.21139 0.0
H260 H 0.98135 0.62767 1.0451 0.0
H261 H 0.89865 0.64163 1.05277 0.0
H262 H 0.93634 0.73141 0.9285 0.0
H263 H 1.01883 0.71511 0.91896 0.0
C264 C 0.32557 0.26388 0.33477 0.0
C265 C 0.35994 0.30806 0.34936 0.0
C266 C 0.3056 0.31199 0.42055 0.0
C267 C 0.27202 0.26752 0.40617 0.0
N268 N 0.25915 0.19523 0.36031 0.0
N269 N 0.38987 0.36918 0.41148 0.0
C270 C 0.2852 0.24146 0.36688 0.0
C271 C 0.35239 0.33036 0.39434 0.0
N272 N 0.32871 0.24477 0.28878 0.0
N273 N 0.29167 0.33743 0.45745 0.0
H274 H 0.42449 0.38306 0.39274 0.0
H275 H 0.38874 0.38497 0.44608 0.0
H276 H 0.2577 0.32487 0.47745 0.0
H277 H 0.31196 0.37198 0.46605 0.0
H278 H 0.30075 0.21525 0.27461 0.0
H279 H 0.35637 0.26036 0.26277 0.0
H280 H 0.27059 0.17371 0.33511 0.0
H281 H 0.22948 0.17742 0.38358 0.0
C282 C 0.32874 0.90062 0.74711 0.0
C283 C 0.35757 0.92244 0.70597 0.0
C284 C 0.42992 0.96374 0.76032 0.0
C285 C 0.39809 0.94751 0.80172 0.0
N286 N 0.31908 0.89905 0.83649 0.0
N287 N 0.43551 0.97276 0.67131 0.0
C288 C 0.34827 0.91484 0.79566 0.0
C289 C 0.4086 0.95281 0.71192 0.0
N290 N 0.28253 0.86675 0.73949 0.0
N291 N 0.48022 0.98995 0.76755 0.0
H292 H 0.42158 0.96396 0.63528 0.0
H293 H 0.47055 0.99922 0.67295 0.0
H294 H 0.4965 0.99966 0.80262 0.0
H295 H 0.507 0.9995 0.73926 0.0
H296 H 0.26138 0.84646 0.76726 0.0
H297 H 0.26663 0.85644 0.70437 0.0
H298 H 0.28032 0.87957 0.8352 0.0
H299 H 0.33338 0.9069 0.87253 0.0
C300 C 0.7008 0.51067 0.76423 0.0
C301 C 0.67138 0.46315 0.77047 0.0
C302 C 0.62036 0.46729 0.69585 0.0
C303 C 0.64883 0.5151 0.6899 0.0
N304 N 0.72436 0.57848 0.71241 0.0
N305 N 0.6162 0.39342 0.73084 0.0
C306 C 0.69135 0.53567 0.72256 0.0
C307 C 0.63549 0.44068 0.73248 0.0
N308 N 0.73795 0.53216 0.79838 0.0
N309 N 0.57647 0.4476 0.66872 0.0
H310 H 0.62743 0.3731 0.75601 0.0
H311 H 0.59411 0.37439 0.70145 0.0
H312 H 0.5623 0.46577 0.64349 0.0
H313 H 0.55113 0.41466 0.67489 0.0
H314 H 0.7557 0.56787 0.80104 0.0
H315 H 0.75055 0.51401 0.82494 0.0
H316 H 0.75889 0.59406 0.73118 0.0
H317 H 0.71946 0.59702 0.6821 0.0
C318 C 0.98302 0.62941 0.26253 0.0
C319 C 0.99021 0.67755 0.25709 0.0
C320 C 0.03014 0.67104 0.17495 0.0
C321 C 1.02408 0.62299 0.18067 0.0
N322 N 1.01289 0.564 0.24146 0.0
N323 N 0.03908 0.74605 0.21517 0.0
C324 C 1.00555 0.60429 0.22775 0.0
C325 C 1.01953 0.69886 0.21549 0.0
N326 N 0.95428 0.60706 0.30096 0.0
N327 N 0.04419 0.69036 0.13019 0.0
H328 H 0.03581 0.76721 0.24537 0.0
H329 H 0.06429 0.76363 0.18811 0.0
H330 H 0.05213 0.67195 0.09983 0.0
H331 H 0.04332 0.72337 0.12206 0.0
H332 H 0.94191 0.57108 0.30334 0.0
H333 H 0.94038 0.62425 0.329 0.0
H334 H 1.00417 0.55076 0.27662 0.0
H335 H 0.03457 0.54745 0.22077 0.0
C336 C 0.47542 0.20166 0.20834 0.0
C337 C 0.50051 0.24651 0.19042 0.0
C338 C 0.56768 0.21828 0.15384 0.0
C339 C 0.53623 0.17206 0.16225 0.0
N340 N 0.46089 0.11891 0.19812 0.0
N341 N 0.5739 0.29951 0.15106 0.0
C342 C 0.49046 0.1635 0.19006 0.0
C343 C 0.54824 0.25556 0.16543 0.0
N344 N 0.43832 0.19585 0.24373 0.0
N345 N 0.61593 0.22657 0.1345 0.0
H346 H 0.5636 0.32842 0.16268 0.0
H347 H 0.60444 0.30742 0.1263 0.0
H348 H 0.63117 0.20049 0.12348 0.0
H349 H 0.64275 0.25945 0.13253 0.0
H350 H 0.42139 0.16464 0.26099 0.0
H351 H 0.42886 0.22361 0.26007 0.0
H352 H 0.42403 0.11023 0.21299 0.0
H353 H 0.4723 0.09031 0.18742 0.0
C354 C 0.22092 0.99367 0.63155 0.0
C355 C 0.25441 0.98554 0.5946 0.0
C356 C 0.23855 1.04602 0.5451 0.0
C357 C 0.20542 1.05384 0.58281 0.0
N358 N 0.19113 1.05249 0.6711 0.0
N359 N 0.30642 1.01338 0.52282 0.0
C360 C 0.20453 1.03319 0.62903 0.0
C361 C 0.26652 1.01437 0.55303 0.0
N362 N 0.20331 0.96305 0.6684 0.0
N363 N 0.24455 0.06988 0.50241 0.0
H364 H 0.32902 0.99207 0.52862 0.0
H365 H 0.32029 1.03661 0.49475 0.0
H366 H 0.232 0.09864 0.49872 0.0
H367 H 0.26177 1.06104 0.47078 0.0
H368 H 0.176 0.96638 0.69406 0.0
H369 H 0.21161 0.93191 0.67005 0.0
H370 H 0.1939 1.03997 0.70608 0.0
H371 H 0.18534 0.08474 0.67197 0.0
C372 C 0.87928 0.41951 0.94703 0.0
C373 C 0.83381 0.43144 0.95704 0.0
C374 C 0.88274 0.49132 1.01847 0.0
C375 C 0.9288 0.48111 1.00633 0.0
N376 N 0.97248 0.44163 0.95155 0.0
N377 N 0.79332 0.4822 0.99828 0.0
C378 C 0.92738 0.44663 0.96881 0.0
C379 C 0.83599 0.46852 0.99152 0.0
N380 N 0.87659 0.38195 0.9166 0.0
N381 N 0.88322 0.52155 0.05724 0.0
H382 H 0.75804 0.46504 0.98127 0.0
H383 H 0.79348 0.51218 1.01811 0.0
H384 H 0.91628 0.53835 0.07793 0.0
H385 H 0.85036 0.52738 0.0716 0.0
H386 H 0.90628 0.36748 0.91304 0.0
H387 H 0.84342 0.36323 0.89704 0.0
H388 H 0.97484 0.4214 0.92034 0.0
H389 H 1.0085 0.46097 0.96552 0.0
C390 C 0.83112 0.65968 0.48975 0.0
C391 C 0.83514 0.69953 0.46159 0.0
C392 C 0.74821 0.69672 0.49024 0.0
C393 C 0.74213 0.65456 0.51452 0.0
N394 N 0.77573 0.59243 0.53162 0.0
N395 N 0.79169 0.749 0.42649 0.0
C396 C 0.78302 0.63499 0.51239 0.0
C397 C 0.79179 0.71578 0.45924 0.0
N398 N 0.87391 0.64669 0.49713 0.0
N399 N 0.71397 0.72037 0.4992 0.0
H400 H 0.82218 0.76308 0.4025 0.0
H401 H 0.75934 0.75899 0.41957 0.0
H402 H 0.68376 0.70915 0.52409 0.0
H403 H 0.71895 0.75347 0.48652 0.0
H404 H 0.87513 0.6213 0.52155 0.0
H405 H 0.90962 0.66397 0.48196 0.0
H406 H 0.80156 0.57378 0.52674 0.0
H407 H 0.74174 0.5741 0.5492 0.0
C408 C 0.38497 0.457 0.22879 0.0
C409 C 0.38454 0.41201 0.21306 0.0
C410 C 0.31175 0.40513 0.15793 0.0
C411 C 0.30542 0.44505 0.18189 0.0
N412 N 0.33675 0.51161 0.23747 0.0
N413 N 0.34773 0.34229 0.16248 0.0
C414 C 0.34291 0.47241 0.21586 0.0
C415 C 0.34891 0.38627 0.17647 0.0
N416 N 0.42514 0.48411 0.25697 0.0
N417 N 0.28169 0.38503 0.11791 0.0
H418 H 0.3748 0.32722 0.17415 0.0
H419 H 0.31817 0.31958 0.14137 0.0
H420 H 0.25364 0.3979 0.10388 0.0
H421 H 0.28778 0.35849 0.09587 0.0
H422 H 0.43015 0.51862 0.26695 0.0
H423 H 0.45606 0.47287 0.26659 0.0
H424 H 0.3596 0.5305 0.26643 0.0
H425 H 0.30699 0.52429 0.22767 0.0
C426 C 0.6461 0.27269 0.97791 0.0
C427 C 0.68583 0.28185 0.9418 0.0
C428 C 0.68862 0.20133 0.95093 0.0
C429 C 0.64673 0.19127 0.98487 0.0
N430 N 0.57779 0.21547 1.02042 0.0
N431 N 0.73987 0.25219 0.88884 0.0
C432 C 0.62348 0.22655 0.99566 0.0
C433 C 0.70546 0.24522 0.92686 0.0
N434 N 0.63043 0.30845 0.99624 0.0
N435 N 0.71381 0.16941 0.94296 0.0
H436 H 0.7534 0.28365 0.87107 0.0
H437 H 0.75184 0.226 0.87215 0.0
H438 H 0.70265 0.13721 0.95936 0.0
H439 H 0.74804 0.176 0.92334 0.0
H440 H 0.60656 0.30573 1.02689 0.0
H441 H 0.64436 0.34193 0.983 0.0
H442 H 0.55626 0.23807 1.02529 0.0
H443 H 0.55848 0.18211 1.0317 0.0
C444 C 0.95394 0.88398 0.45161 0.0
C445 C 0.98075 0.85094 0.45577 0.0
C446 C 0.04651 0.91 0.50717 0.0
C447 C 1.01594 0.94055 0.50873 0.0
N448 N 0.93538 0.95164 0.48645 0.0
N449 N 0.05008 0.83138 0.49398 0.0
C450 C 0.96846 0.92625 0.48164 0.0
C451 C 0.02646 0.86381 0.48524 0.0
N452 N 0.91477 0.87538 0.41788 0.0
N453 N 0.09602 0.92575 0.52449 0.0
H454 H 0.03734 0.79786 0.47834 0.0
H455 H 0.0797 0.83657 0.51974 0.0
H456 H 0.11312 0.9595 0.53839 0.0
H457 H 0.12194 0.90713 0.52005 0.0
H458 H 0.89712 0.89982 0.40885 0.0
H459 H 0.90344 0.8454 0.3952 0.0
H460 H 0.89782 0.94034 0.47277 0.0
H461 H 0.94348 0.98202 0.50808 0.0
C462 C 0.42213 0.85807 0.55697 0.0
C463 C 0.37581 0.82702 0.53583 0.0
C464 C 0.40685 0.76122 0.55147 0.0
C465 C 0.4513 0.79172 0.57503 0.0
N466 N 0.49728 0.86767 0.60875 0.0
N467 N 0.31847 0.74804 0.5275 0.0
C468 C 0.45793 0.83978 0.58005 0.0
C469 C 0.36648 0.77828 0.53743 0.0
N470 N 0.43235 0.90499 0.55524 0.0
N471 N 0.40363 0.716 0.54134 0.0
H472 H 0.28681 0.75847 0.51891 0.0
H473 H 0.30858 0.71259 0.53318 0.0
H474 H 0.43236 0.70201 0.55108 0.0
H475 H 0.37475 0.69357 0.51922 0.0
H476 H 0.46853 0.92865 0.56286 0.0
H477 H 0.40567 0.92094 0.54488 0.0
H478 H 0.50056 0.90177 0.61922 0.0
H479 H 0.52453 0.85559 0.62569 0.0
C480 C 0.83978 0.83362 0.85996 0.0
C481 C 0.83722 0.86144 0.90248 0.0
C482 C 0.91952 0.91789 0.88194 0.0
C483 C 0.92317 0.88944 0.84028 0.0
N484 N 0.89323 0.81625 0.79502 0.0
N485 N 0.88074 0.922 0.96175 0.0
C486 C 0.88529 0.84586 0.83107 0.0
C487 C 0.87911 0.90104 0.91598 0.0
N488 N 0.79807 0.79675 0.84621 0.0
N489 N 0.95282 0.962 0.88768 0.0
H490 H 0.85225 0.90979 0.98816 0.0
H491 H 0.9128 0.94827 0.97534 0.0
H492 H 0.98293 0.97632 0.86343 0.0
H493 H 0.94788 0.9859 0.91419 0.0
H494 H 0.79559 0.77808 0.81281 0.0
H495 H 0.76422 0.78665 0.86676 0.0
H496 H 0.86938 0.78224 0.78949 0.0
H497 H 0.92637 0.8245 0.77337 0.0
C498 C 0.72756 0.15824 0.44696 0.0
C499 C 0.77357 0.19078 0.46576 0.0
C500 C 0.79963 0.21703 0.38213 0.0
C501 C 0.75413 0.1838 0.36322 0.0
N502 N 0.66992 0.12944 0.377 0.0
N503 N 0.84822 0.25724 0.45429 0.0
C504 C 0.71635 0.15676 0.39557 0.0
C505 C 0.80795 0.22228 0.43421 0.0
N506 N 0.69591 0.12726 0.47798 0.0
N507 N 0.83552 0.24232 0.35002 0.0
H508 H 0.87219 0.28401 0.43405 0.0
H509 H 0.85549 0.26151 0.4923 0.0
H510 H 0.82927 0.24095 0.31187 0.0
H511 H 0.87221 0.26314 0.36063 0.0
H512 H 0.66526 0.0989 0.46591 0.0
H513 H 0.70192 0.12821 0.51613 0.0
H514 H 0.63866 0.11278 0.39894 0.0
H515 H 0.66099 0.12605 0.33934 0.0
C516 C 0.47622 0.64198 0.3679 0.0
C517 C 0.49961 0.69004 0.35868 0.0
C518 C 0.55215 0.69718 0.43502 0.0
C519 C 0.53117 0.64857 0.443 0.0
N520 N 0.46324 0.57771 0.42366 0.0
N521 N 0.54549 0.7652 0.39392 0.0
C522 C 0.49031 0.62188 0.41116 0.0
C523 C 0.53287 0.7181 0.39575 0.0
N524 N 0.44039 0.61536 0.33508 0.0
N525 N 0.5929 0.72336 0.46304 0.0
H526 H 0.53125 0.78138 0.36658 0.0
H527 H 0.56505 0.78787 0.42225 0.0
H528 H 0.60811 0.71006 0.49191 0.0
H529 H 0.61422 0.75731 0.45532 0.0
H530 H 0.42694 0.57932 0.33476 0.0
H531 H 0.42421 0.6296 0.30745 0.0
H532 H 0.43021 0.55719 0.40532 0.0
H533 H 0.47117 0.56273 0.45551 0.0
C534 C 0.18179 0.4444 0.90941 0.0
C535 C 0.16403 0.44448 0.85984 0.0
C536 C 0.12131 0.50247 0.88862 0.0
C537 C 0.13866 0.50205 0.9384 0.0
N538 N 0.17786 0.46572 0.99699 0.0
N539 N 0.10973 0.4684 0.80443 0.0
C540 C 0.16648 0.47075 0.94884 0.0
C541 C 0.1317 0.47211 0.8503 0.0
N542 N 0.21508 0.42025 0.91862 0.0
N543 N 0.09508 0.53247 0.87768 0.0
H544 H 0.11657 0.44703 0.776 0.0
H545 H 0.08177 0.48337 0.79534 0.0
H546 H 0.08334 0.55223 0.90469 0.0
H547 H 0.08676 0.53949 0.84187 0.0
H548 H 0.23472 0.42264 0.95195 0.0
H549 H 0.22545 0.39955 0.8916 0.0
H550 H 0.19305 0.44046 1.00875 0.0
H551 H 0.16828 0.48492 1.02591 0.0
C552 C 0.72208 0.94459 1.01412 0.0
C553 C 0.69821 0.91232 0.97567 0.0
C554 C 0.64623 0.96138 0.95338 0.0
C555 C 0.66521 0.9906 0.99589 0.0
N556 N 0.71641 1.00414 0.07201 0.0
N557 N 0.63464 0.8869 0.91101 0.0
C558 C 0.70221 0.98105 1.02743 0.0
C559 C 0.65942 0.91985 0.94586 0.0
N560 N 0.76473 0.94105 1.03777 0.0
N561 N 0.617 0.97424 0.91932 0.0
H562 H 0.64415 0.85658 0.9043 0.0
H563 H 0.60228 0.88782 0.89154 0.0
H564 H 0.60841 1.00531 0.92267 0.0
H565 H 0.60559 0.95667 0.88551 0.0
H566 H 0.78837 0.96751 0.06049 0.0
H567 H 0.77906 0.91337 1.03202 0.0
H568 H 0.73598 0.9927 0.09917 0.0
H569 H 0.70615 1.03247 0.08466 0.0
C570 C 0.91254 0.16018 0.6209 0.0
C571 C 0.86739 0.13423 0.59471 0.0
C572 C 0.89785 0.06633 0.59251 0.0
C573 C 0.94153 0.09202 0.6211 0.0
N574 N 0.97957 0.15801 0.67696 0.0
N575 N 0.81158 1.05998 0.56452 0.0
C576 C 0.9453 0.13705 0.64016 0.0
C577 C 0.85846 0.08646 0.58282 0.0
N578 N 0.92599 0.20747 0.62504 0.0
N579 N 0.89329 1.02226 0.576 0.0
H580 H 0.78148 0.07335 0.55841 0.0
H581 H 0.80082 1.02411 0.5594 0.0
H582 H 0.91803 1.00453 0.58743 0.0
H583 H 0.86599 1.0038 0.54995 0.0
H584 H 0.96084 0.22818 0.64029 0.0
H585 H 0.90521 0.22651 0.60843 0.0
H586 H 0.97871 0.18826 0.69581 0.0
H587 H 1.00614 0.14395 0.69162 0.0
C588 C 0.28456 0.71693 0.17566 0.0
C589 C 0.33184 0.70837 0.16506 0.0
C590 C 0.28509 0.64438 0.10646 0.0
C591 C 0.23828 0.65469 0.11488 0.0
N592 N 0.19429 0.70323 0.15557 0.0
N593 N 0.37842 0.66738 0.11638 0.0
C594 C 0.23847 0.69188 0.14873 0.0
C595 C 0.3323 0.67284 0.12949 0.0
N596 N 0.28329 0.74785 0.21323 0.0
N597 N 0.28444 0.60714 0.07636 0.0
H598 H 0.41323 0.68687 0.13285 0.0
H599 H 0.38301 0.64594 0.08711 0.0
H600 H 0.25218 0.58806 0.05576 0.0
H601 H 0.31489 0.59362 0.07344 0.0
H602 H 0.24962 0.75223 0.22735 0.0
H603 H 0.31596 0.76713 0.23318 0.0
H604 H 0.19291 0.73337 0.1741 0.0
H605 H 0.1588 0.68368 0.14064 0.0
C606 C 0.38988 0.45214 0.653 0.0
C607 C 0.37292 0.48202 0.68557 0.0
C608 C 0.43214 0.54919 0.64333 0.0
C609 C 0.4556 0.51934 0.61802 0.0
N610 N 0.45876 0.44168 0.60196 0.0
N611 N 0.37436 0.55981 0.70818 0.0
C612 C 0.43468 0.47058 0.62339 0.0
C613 C 0.3928 0.53086 0.67934 0.0
N614 N 0.36222 0.40612 0.64916 0.0
N615 N 0.44628 0.59485 0.63155 0.0
H616 H 0.34213 0.54781 0.73067 0.0
H617 H 0.39153 0.5956 0.71079 0.0
H618 H 0.47395 0.60883 0.60482 0.0
H619 H 0.42793 0.61803 0.64488 0.0
H620 H 0.36979 0.3833 0.62287 0.0
H621 H 0.32785 0.39198 0.6681 0.0
H622 H 0.44901 0.40659 0.60944 0.0
H623 H 0.49144 0.45334 0.58004 0.0
C624 C 0.7784 0.69791 0.96586 0.0
C625 C 0.76634 0.71434 1.01306 0.0
C626 C 0.8531 0.71995 1.04235 0.0
C627 C 0.86171 0.69732 0.99803 0.0
N628 N 0.82756 0.65542 0.92198 0.0
N629 N 0.79112 0.73438 0.0991 0.0
C630 C 0.82283 0.68342 0.96112 0.0
C631 C 0.80326 0.72304 1.05224 0.0
N632 N 0.7499 0.69854 0.92467 0.0
N633 N 0.89314 0.74045 0.07412 0.0
H634 H 0.75614 0.73906 0.10865 0.0
H635 H 0.81455 0.73551 0.12969 0.0
H636 H 0.93066 0.74027 0.06754 0.0
H637 H 0.89031 0.76177 0.10428 0.0
H638 H 0.76093 0.69119 0.88917 0.0
H639 H 0.71929 0.71184 0.92412 0.0
H640 H 0.79773 0.64032 0.89687 0.0
H641 H 0.85918 0.64352 0.91743 0.0
C642 C 0.51786 0.86325 0.14213 0.0
C643 C 0.48154 0.85875 0.18093 0.0
C644 C 0.4998 0.94447 0.18164 0.0
C645 C 0.53305 0.94855 0.13986 0.0
N646 N 0.56446 0.90836 0.07465 0.0
N647 N 0.43198 0.89477 0.23236 0.0
C648 C 0.53952 0.90689 0.11877 0.0
C649 C 0.47074 0.89933 0.19896 0.0
N650 N 0.53263 0.82576 0.12793 0.0
N651 N 0.49802 0.98358 0.20699 0.0
H652 H 0.41127 0.86297 0.24688 0.0
H653 H 0.41777 0.92172 0.24272 0.0
H654 H 0.51917 1.0169 0.19698 0.0
H655 H 0.47929 0.983 0.2407 0.0
H656 H 0.56341 0.82777 0.10433 0.0
H657 H 0.51701 0.79323 0.14309 0.0
H658 H 0.56586 0.87897 1.05452 0.0
H659 H 0.57907 0.9386 0.05529 0.0
C660 C 0.18056 0.26766 0.74983 0.0
C661 C 0.15743 0.30223 0.73929 0.0
C662 C 0.10306 0.24761 0.67535 0.0
C663 C 0.1271 0.21278 0.68493 0.0
N664 N 0.19864 0.19693 0.724 0.0
N665 N 0.09087 0.32218 0.69739 0.0
C666 C 0.16801 0.22462 0.72083 0.0
C667 C 0.11727 0.29125 0.70336 0.0
N668 N 0.21427 0.27571 0.78871 0.0
N669 N 0.06778 0.2403 0.6379 0.0
H670 H 0.10065 0.35431 0.71621 0.0
H671 H 0.05679 0.31491 0.67727 0.0
H672 H 0.0504 0.2084 0.62024 0.0
H673 H 0.05668 0.2666 0.62249 0.0
H674 H 0.22825 0.25055 0.80286 0.0
H675 H 0.22445 0.30654 0.81004 0.0
H676 H 0.23218 0.20555 0.74515 0.0
H677 H 0.19437 0.16776 0.70104 0.0
C678 C 0.73856 0.31297 0.62165 0.0
C679 C 0.7019 0.27121 0.63662 0.0
C680 C 0.63353 0.29991 0.60584 0.0
C681 C 0.67127 0.33496 0.58044 0.0
N682 N 0.76052 0.36857 0.55743 0.0
N683 N 0.61238 0.22728 0.64816 0.0
C684 C 0.72406 0.33955 0.58624 0.0
C685 C 0.6486 0.26529 0.63023 0.0
N686 N 0.78623 0.32874 0.64306 0.0
N687 N 0.58417 0.30127 0.60932 0.0
H688 H 0.62125 0.20457 0.67194 0.0
H689 H 0.57356 0.21783 0.63854 0.0
H690 H 0.57214 0.32709 0.59382 0.0
H691 H 0.55636 0.27955 0.63161 0.0
H692 H 0.8128 0.36069 0.635 0.0
H693 H 0.79604 0.31322 0.67369 0.0
H694 H 0.79909 0.36999 0.55832 0.0
H695 H 0.75133 0.38717 0.52913 0.0
loop_
_geom_bond_atom_site_label_1
_geom_bond_atom_site_label_2
_geom_bond_distance
_geom_bond_site_symmetry_2
_ccdc_geom_bond_type
H0 C7 0.929 . S
H1 C10 0.930 . S
H2 C12 0.929 . S
H3 C4 0.969 . S
C4 H3 0.969 . S
C4 O5 1.550 . S
C4 H6 0.973 . S
O5 C4 1.550 . S
O5 C11 1.412 . S
H6 C4 0.973 . S
C7 H0 0.929 . S
C7 C8 1.400 . S
C7 C9 1.364 . S
C8 C7 1.400 . S
C8 C12 1.377 . S
C9 C7 1.364 . S
C9 C10 1.374 . S
C10 H1 0.930 . S
C10 C9 1.374 . S
C10 C11 1.383 . S
C11 O5 1.412 . S
C11 C10 1.383 . S
C11 C12 1.394 . S
C12 H2 0.929 . S
C12 C8 1.377 . S
C12 C11 1.394 . S
H13 C20 0.929 . S
H14 C23 0.930 . S
H15 C25 0.929 . S
H16 C17 0.969 . S
C17 H16 0.969 . S
C17 O18 1.550 . S
C17 H19 0.973 . S
O18 C17 1.550 . S
O18 C24 1.412 . S
H19 C17 0.973 . S
C20 H13 0.929 . S
C20 C21 1.400 . S
C20 C22 1.364 . S
C21 C20 1.400 . S
C21 C25 1.377 . S
C22 C20 1.364 . S
C22 C23 1.374 . S
C23 H14 0.930 . S
C23 C22 1.374 . S
C23 C24 1.383 . S
C24 O18 1.412 . S
C24 C23 1.383 . S
C24 C25 1.394 . S
C25 H15 0.929 . S
C25 C21 1.377 . S
C25 C24 1.394 . S
H26 C33 0.929 . S
H27 C36 0.930 . S
H28 C38 0.929 . S
H29 C30 0.969 . S
C30 H29 0.969 . S
C30 O31 1.550 . S
C30 H32 0.973 . S
O31 C30 1.550 . S
O31 C37 1.412 . S
H32 C30 0.973 . S
C33 H26 0.929 . S
C33 C34 1.400 . S
C33 C35 1.364 . S
C34 C33 1.400 . S
C34 C38 1.377 . S
C35 C33 1.364 . S
C35 C36 1.374 . S
C36 H27 0.930 . S
C36 C35 1.374 . S
C36 C37 1.383 . S
C37 O31 1.412 . S
C37 C36 1.383 . S
C37 C38 1.394 . S
C38 H28 0.929 . S
C38 C34 1.377 . S
C38 C37 1.394 . S
H39 C46 0.929 . S
H40 C49 0.930 . S
H41 C51 0.929 . S
H42 C43 0.969 . S
C43 H42 0.969 . S
C43 O44 1.550 . S
C43 H45 0.973 . S
O44 C43 1.550 . S
O44 C50 1.412 . S
H45 C43 0.973 . S
C46 H39 0.929 . S
C46 C47 1.400 . S
C46 C48 1.364 . S
C47 C46 1.400 . S
C47 C51 1.377 . S
C48 C46 1.364 . S
C48 C49 1.374 . S
C49 H40 0.930 . S
C49 C48 1.374 . S
C49 C50 1.383 . S
C50 O44 1.412 . S
C50 C49 1.383 . S
C50 C51 1.394 . S
C51 H41 0.929 . S
C51 C47 1.377 . S
C51 C50 1.394 . S
H52 C59 0.929 . S
H53 C62 0.930 . S
H54 C64 0.929 . S
H55 C56 0.969 . S
C56 H55 0.969 . S
C56 O57 1.550 . S
C56 H58 0.973 . S
O57 C56 1.550 . S
O57 C63 1.412 . S
H58 C56 0.973 . S
C59 H52 0.929 . S
C59 C60 1.400 . S
C59 C61 1.364 . S
C60 C59 1.400 . S
C60 C64 1.377 . S
C61 C59 1.364 . S
C61 C62 1.374 . S
C62 H53 0.930 . S
C62 C61 1.374 . S
C62 C63 1.383 . S
C63 O57 1.412 . S
C63 C62 1.383 . S
C63 C64 1.394 . S
C64 H54 0.929 . S
C64 C60 1.377 . S
C64 C63 1.394 . S
H65 C72 0.929 . S
H66 C75 0.930 . S
H67 C77 0.929 . S
H68 C69 0.969 . S
C69 H68 0.969 . S
C69 O70 1.550 . S
C69 H71 0.973 . S
O70 C69 1.550 . S
O70 C76 1.412 . S
H71 C69 0.973 . S
C72 H65 0.929 . S
C72 C73 1.400 . S
C72 C74 1.364 . S
C73 C72 1.400 . S
C73 C77 1.377 . S
C74 C72 1.364 . S
C74 C75 1.374 . S
C75 H66 0.930 . S
C75 C74 1.374 . S
C75 C76 1.383 . S
C76 O70 1.412 . S
C76 C75 1.383 . S
C76 C77 1.394 . S
C77 H67 0.929 . S
C77 C73 1.377 . S
C77 C76 1.394 . S
H78 C85 0.929 . S
H79 C88 0.930 . S
H80 C90 0.929 . S
H81 C82 0.969 . S
C82 H81 0.969 . S
C82 O83 1.550 . S
C82 H84 0.973 . S
O83 C82 1.550 . S
O83 C89 1.412 . S
H84 C82 0.973 . S
C85 H78 0.929 . S
C85 C86 1.400 . S
C85 C87 1.364 . S
C86 C85 1.400 . S
C86 C90 1.377 . S
C87 C85 1.364 . S
C87 C88 1.374 . S
C88 H79 0.930 . S
C88 C87 1.374 . S
C88 C89 1.383 . S
C89 O83 1.412 . S
C89 C88 1.383 . S
C89 C90 1.394 . S
C90 H80 0.929 . S
C90 C86 1.377 . S
C90 C89 1.394 . S
H91 C98 0.929 . S
H92 C101 0.930 . S
H93 C103 0.929 . S
H94 C95 0.969 . S
C95 H94 0.969 . S
C95 O96 1.550 . S
C95 H97 0.973 . S
O96 C95 1.550 . S
O96 C102 1.412 . S
H97 C95 0.973 . S
C98 H91 0.929 . S
C98 C99 1.400 . S
C98 C100 1.364 . S
C99 C98 1.400 . S
C99 C103 1.377 . S
C100 C98 1.364 . S
C100 C101 1.374 . S
C101 H92 0.930 . S
C101 C100 1.374 . S
C101 C102 1.383 . S
C102 O96 1.412 . S
C102 C101 1.383 . S
C102 C103 1.394 . S
C103 H93 0.929 . S
C103 C99 1.377 . S
C103 C102 1.394 . S
Sm104 C106 2.846 . S
Sm104 O124 2.543 . S
Sm104 O125 2.450 . S
Sm104 O126 2.681 1_545 S
Sm104 O127 2.477 . S
Sm104 O128 2.396 . S
Sm104 O132 2.386 . S
Sm104 O135 2.408 1_545 S
Sm105 C115 2.846 1_545 S
Sm105 O126 2.386 1_645 S
Sm105 O129 2.408 1_655 S
Sm105 O130 2.543 1_545 S
Sm105 O131 2.450 1_545 S
Sm105 O132 2.681 1_655 S
Sm105 O133 2.464 . S
Sm105 O134 2.396 1_545 S
C106 Sm104 2.846 . S
C106 C107 1.506 . S
C106 O124 1.261 . S
C106 O125 1.242 . S
C107 C106 1.506 . S
C107 C108 1.358 . S
C107 C112 1.382 . S
C108 C107 1.358 . S
C108 C109 1.385 . S
C108 H136 0.930 . S
C109 C108 1.385 . S
C109 C110 1.395 . S
C109 H137 0.929 . S
C110 C109 1.395 . S
C110 C111 1.335 . S
C111 C110 1.335 . S
C111 C112 1.398 . S
C111 H138 0.930 . S
C112 C107 1.382 . S
C112 C111 1.398 . S
C112 H139 0.929 . S
C113 O126 1.271 . S
C113 O127 1.247 1_565 S
C114 O128 1.252 . S
C114 O129 1.272 . S
C115 Sm105 2.846 1_565 S
C115 C116 1.506 . S
C115 O130 1.261 . S
C115 O131 1.242 . S
C116 C115 1.506 . S
C116 C117 1.358 . S
C116 C121 1.382 . S
C117 C116 1.358 . S
C117 C118 1.385 . S
C117 H140 0.930 . S
C118 C117 1.385 . S
C118 C119 1.395 . S
C118 H141 0.929 . S
C119 C118 1.395 . S
C119 C120 1.335 . S
C120 C119 1.335 . S
C120 C121 1.398 . S
C120 H142 0.930 . S
C121 C116 1.382 . S
C121 C120 1.398 . S
C121 H143 0.929 . S
C122 O132 1.271 1_655 S
C122 O133 1.251 . S
C123 O134 1.252 . S
C123 O135 1.272 1_655 S
O124 Sm104 2.543 . S
O124 C106 1.261 . S
O125 Sm104 2.450 . S
O125 C106 1.242 . S
O126 Sm104 2.681 1_565 S
O126 Sm105 2.386 1_465 S
O126 C113 1.271 . S
O127 Sm104 2.477 . S
O127 C113 1.247 1_545 S
O128 Sm104 2.396 . S
O128 C114 1.252 . S
O129 Sm105 2.408 1_455 S
O129 C114 1.272 . S
O130 Sm105 2.543 1_565 S
O130 C115 1.261 . S
O131 Sm105 2.450 1_565 S
O131 C115 1.242 . S
O132 Sm104 2.386 . S
O132 Sm105 2.681 1_455 S
O132 C122 1.271 1_455 S
O133 Sm105 2.464 . S
O133 C122 1.251 . S
O134 Sm105 2.396 1_565 S
O134 C123 1.252 . S
O135 Sm104 2.408 1_565 S
O135 C123 1.272 1_455 S
H136 C108 0.930 . S
H137 C109 0.929 . S
H138 C111 0.930 . S
H139 C112 0.929 . S
H140 C117 0.930 . S
H141 C118 0.929 . S
H142 C120 0.930 . S
H143 C121 0.929 . S
Sm144 C146 2.846 . S
Sm144 O164 2.543 . S
Sm144 O165 2.450 . S
Sm144 O166 2.681 1_545 S
Sm144 O167 2.464 1_545 S
Sm144 O168 2.396 . S
Sm144 O172 2.386 1_554 S
Sm144 O175 2.408 1_544 S
Sm145 C155 2.846 1_545 S
Sm145 O166 2.386 1_546 S
Sm145 O169 2.408 1_556 S
Sm145 O170 2.543 1_545 S
Sm145 O171 2.449 1_545 S
Sm145 O172 2.681 . S
Sm145 O173 2.464 . S
Sm145 O174 2.396 1_545 S
C146 Sm144 2.846 . S
C146 C147 1.506 . S
C146 O164 1.261 . S
C146 O165 1.242 . S
C147 C146 1.506 . S
C147 C148 1.358 . S
C147 C152 1.382 . S
C148 C147 1.358 . S
C148 C149 1.385 . S
C148 H176 0.930 . S
C149 C148 1.385 . S
C149 C150 1.395 . S
C149 H177 0.929 . S
C150 C149 1.395 . S
C150 C151 1.335 . S
C151 C150 1.335 . S
C151 C152 1.398 . S
C151 H178 0.930 . S
C152 C147 1.382 . S
C152 C151 1.398 . S
C152 H179 0.929 . S
C153 O166 1.271 . S
C153 O167 1.251 . S
C154 O168 1.252 . S
C154 O169 1.272 . S
C155 Sm145 2.846 1_565 S
C155 C156 1.506 . S
C155 O170 1.261 . S
C155 O171 1.264 . S
C156 C155 1.506 . S
C156 C157 1.358 . S
C156 C161 1.382 . S
C157 C156 1.358 . S
C157 C158 1.385 . S
C157 H180 0.930 . S
C158 C157 1.385 . S
C158 C159 1.395 . S
C158 H181 0.929 . S
C159 C158 1.395 . S
C159 C160 1.335 . S
C160 C159 1.335 . S
C160 C161 1.398 . S
C160 H182 0.930 . S
C161 C156 1.382 . S
C161 C160 1.398 . S
C161 H183 0.929 . S
C162 O172 1.271 . S
C162 O173 1.251 . S
C163 O174 1.252 . S
C163 O175 1.272 . S
O164 Sm144 2.543 . S
O164 C146 1.261 . S
O165 Sm144 2.450 . S
O165 C146 1.242 . S
O166 Sm144 2.681 1_565 S
O166 Sm145 2.386 1_564 S
O166 C153 1.271 . S
O167 Sm144 2.464 1_565 S
O167 C153 1.251 . S
O168 Sm144 2.396 . S
O168 C154 1.252 . S
O169 Sm145 2.408 1_554 S
O169 C154 1.272 . S
O170 Sm145 2.543 1_565 S
O170 C155 1.261 . S
O171 Sm145 2.449 1_565 S
O171 C155 1.264 . S
O172 Sm144 2.386 1_556 S
O172 Sm145 2.681 . S
O172 C162 1.271 . S
O173 Sm145 2.464 . S
O173 C162 1.251 . S
O174 Sm145 2.396 1_565 S
O174 C163 1.252 . S
O175 Sm144 2.408 1_566 S
O175 C163 1.272 . S
H176 C148 0.930 . S
H177 C149 0.929 . S
H178 C151 0.930 . S
H179 C152 0.929 . S
H180 C157 0.930 . S
H181 C158 0.929 . S
H182 C160 0.930 . S
H183 C161 0.929 . S
Sm184 C186 2.846 . S
Sm184 O204 2.543 . S
Sm184 O205 2.450 . S
Sm184 O206 2.681 . S
Sm184 O207 2.464 . S
Sm184 O208 2.396 . S
Sm184 O212 2.386 . S
Sm184 O215 2.408 . S
Sm185 C195 2.846 . S
Sm185 O206 2.386 . S
Sm185 O209 2.408 . S
Sm185 O210 2.543 . S
Sm185 O211 2.450 . S
Sm185 O212 2.681 . S
Sm185 O213 2.464 . S
Sm185 O214 2.396 . S
C186 Sm184 2.846 . S
C186 C187 1.506 . S
C186 O204 1.261 . S
C186 O205 1.242 . S
C187 C186 1.506 . S
C187 C188 1.358 . S
C187 C192 1.382 . S
C188 C187 1.358 . S
C188 C189 1.385 . S
C188 H216 0.930 . S
C189 C188 1.385 . S
C189 C190 1.395 . S
C189 H217 0.929 . S
C190 C189 1.395 . S
C190 C191 1.335 . S
C191 C190 1.335 . S
C191 C192 1.398 . S
C191 H218 0.930 . S
C192 C187 1.382 . S
C192 C191 1.398 . S
C192 H219 0.929 . S
C193 O206 1.271 . S
C193 O207 1.251 . S
C194 O208 1.252 . S
C194 O209 1.272 . S
C195 Sm185 2.846 . S
C195 C196 1.506 . S
C195 O210 1.261 . S
C195 O211 1.242 . S
C196 C195 1.506 . S
C196 C197 1.358 . S
C196 C201 1.382 . S
C197 C196 1.358 . S
C197 C198 1.385 . S
C197 H220 0.930 . S
C198 C197 1.385 . S
C198 C199 1.395 . S
C198 H221 0.929 . S
C199 C198 1.395 . S
C199 C200 1.335 . S
C200 C199 1.335 . S
C200 C201 1.398 . S
C200 H222 0.930 . S
C201 C196 1.382 . S
C201 C200 1.398 . S
C201 H223 0.929 . S
C202 O212 1.271 . S
C202 O213 1.251 . S
C203 O214 1.252 . S
C203 O215 1.272 . S
O204 Sm184 2.543 . S
O204 C186 1.261 . S
O205 Sm184 2.450 . S
O205 C186 1.242 . S
O206 Sm184 2.681 . S
O206 Sm185 2.386 . S
O206 C193 1.271 . S
O207 Sm184 2.464 . S
O207 C193 1.251 . S
O208 Sm184 2.396 . S
O208 C194 1.252 . S
O209 Sm185 2.408 . S
O209 C194 1.272 . S
O210 Sm185 2.543 . S
O210 C195 1.261 . S
O211 Sm185 2.450 . S
O211 C195 1.242 . S
O212 Sm184 2.386 . S
O212 Sm185 2.681 . S
O212 C202 1.271 . S
O213 Sm185 2.464 . S
O213 C202 1.251 . S
O214 Sm185 2.396 . S
O214 C203 1.252 . S
O215 Sm184 2.408 . S
O215 C203 1.272 . S
H216 C188 0.930 . S
H217 C189 0.929 . S
H218 C191 0.930 . S
H219 C192 0.929 . S
H220 C197 0.930 . S
H221 C198 0.929 . S
H222 C200 0.930 . S
H223 C201 0.929 . S
Sm224 C226 2.846 . S
Sm224 O244 2.543 . S
Sm224 O245 2.450 . S
Sm224 O246 2.681 . S
Sm224 O247 2.464 . S
Sm224 O248 2.396 . S
Sm224 O252 2.386 . S
Sm224 O255 2.408 1_455 S
Sm225 C235 2.846 1_454 S
Sm225 O246 2.386 . S
Sm225 O249 2.408 . S
Sm225 O250 2.543 1_455 S
Sm225 O251 2.450 1_454 S
Sm225 O252 2.681 . S
Sm225 O253 2.464 1_554 S
Sm225 O254 2.396 1_454 S
C226 Sm224 2.846 . S
C226 C227 1.506 . S
C226 O244 1.261 . S
C226 O245 1.242 . S
C227 C226 1.506 . S
C227 C228 1.358 . S
C227 C232 1.382 . S
C228 C227 1.358 . S
C228 C229 1.385 . S
C228 H256 0.930 . S
C229 C228 1.385 . S
C229 C230 1.395 . S
C229 H257 0.929 . S
C230 C229 1.395 . S
C230 C231 1.335 . S
C231 C230 1.335 . S
C231 C232 1.398 . S
C231 H258 0.930 . S
C232 C227 1.382 . S
C232 C231 1.398 . S
C232 H259 0.929 . S
C233 O246 1.271 . S
C233 O247 1.251 . S
C234 O248 1.252 . S
C234 O249 1.272 . S
C235 Sm225 2.846 1_656 S
C235 C236 1.506 . S
C235 O250 1.261 1_556 S
C235 O251 1.242 . S
C236 C235 1.506 . S
C236 C237 1.358 . S
C236 C241 1.382 . S
C237 C236 1.358 . S
C237 C238 1.385 . S
C237 H260 0.912 1_556 S
C238 C237 1.385 . S
C238 C239 1.395 . S
C238 H261 0.929 . S
C239 C238 1.395 . S
C239 C240 1.335 . S
C240 C239 1.335 . S
C240 C241 1.398 . S
C240 H262 0.930 . S
C241 C236 1.382 . S
C241 C240 1.398 . S
C241 H263 0.929 . S
C242 O252 1.271 1_556 S
C242 O253 1.251 . S
C243 O254 1.252 1_554 S
C243 O255 1.272 . S
O244 Sm224 2.543 . S
O244 C226 1.261 . S
O245 Sm224 2.450 . S
O245 C226 1.242 . S
O246 Sm224 2.681 . S
O246 Sm225 2.386 . S
O246 C233 1.271 . S
O247 Sm224 2.464 . S
O247 C233 1.251 . S
O248 Sm224 2.396 . S
O248 C234 1.252 . S
O249 Sm225 2.408 . S
O249 C234 1.272 . S
O250 Sm225 2.543 1_655 S
O250 C235 1.261 1_554 S
O251 Sm225 2.450 1_656 S
O251 C235 1.242 . S
O252 Sm224 2.386 . S
O252 Sm225 2.681 . S
O252 C242 1.271 1_554 S
O253 Sm225 2.464 1_556 S
O253 C242 1.251 . S
O254 Sm225 2.396 1_656 S
O254 C243 1.252 1_556 S
O255 Sm224 2.408 1_655 S
O255 C243 1.272 . S
H256 C228 0.930 . S
H257 C229 0.929 . S
H258 C231 0.930 . S
H259 C232 0.929 . S
H260 C237 0.912 1_554 S
H261 C238 0.929 . S
H262 C240 0.930 . S
H263 C241 0.929 . S
C264 C265 1.363 . S
C264 C270 1.379 . S
C264 N272 1.356 . S
C265 C264 1.363 . S
C265 C271 1.363 . S
C266 C267 1.363 . S
C266 C271 1.379 . S
C266 N273 1.356 . S
C267 C266 1.363 . S
C267 C270 1.363 . S
N268 C270 1.356 . S
N268 H280 0.984 . S
N268 H281 0.985 . S
N269 C271 1.356 . S
N269 H274 0.984 . S
N269 H275 0.985 . S
C270 C264 1.379 . S
C270 C267 1.363 . S
C270 N268 1.356 . S
C271 C265 1.363 . S
C271 C266 1.379 . S
C271 N269 1.356 . S
N272 C264 1.356 . S
N272 H278 0.984 . S
N272 H279 0.984 . S
N273 C266 1.356 . S
N273 H276 0.984 . S
N273 H277 0.985 . S
H274 N269 0.984 . S
H275 N269 0.985 . S
H276 N273 0.984 . S
H277 N273 0.985 . S
H278 N272 0.984 . S
H279 N272 0.984 . S
H280 N268 0.984 . S
H281 N268 0.985 . S
C282 C283 1.363 . S
C282 C288 1.379 . S
C282 N290 1.356 . S
C283 C282 1.363 . S
C283 C289 1.363 . S
C284 C285 1.363 . S
C284 C289 1.379 . S
C284 N291 1.356 . S
C285 C284 1.363 . S
C285 C288 1.363 . S
N286 C288 1.356 . S
N286 H298 0.984 . S
N286 H299 0.985 . S
N287 C289 1.356 . S
N287 H292 0.984 . S
N287 H293 0.985 . S
C288 C282 1.379 . S
C288 C285 1.363 . S
C288 N286 1.356 . S
C289 C283 1.363 . S
C289 C284 1.379 . S
C289 N287 1.356 . S
N290 C282 1.356 . S
N290 H296 0.984 . S
N290 H297 0.984 . S
N291 C284 1.356 . S
N291 H294 0.984 . S
N291 H295 0.985 . S
H292 N287 0.984 . S
H293 N287 0.985 . S
H294 N291 0.984 . S
H295 N291 0.985 . S
H296 N290 0.984 . S
H297 N290 0.984 . S
H298 N286 0.984 . S
H299 N286 0.985 . S
C300 C301 1.363 . S
C300 C306 1.379 . S
C300 N308 1.356 . S
C301 C300 1.363 . S
C301 C307 1.363 . S
C302 C303 1.363 . S
C302 C307 1.379 . S
C302 N309 1.356 . S
C303 C302 1.363 . S
C303 C306 1.363 . S
N304 C306 1.356 . S
N304 H316 0.984 . S
N304 H317 0.985 . S
N305 C307 1.356 . S
N305 H310 0.984 . S
N305 H311 0.985 . S
C306 C300 1.379 . S
C306 C303 1.363 . S
C306 N304 1.356 . S
C307 C301 1.363 . S
C307 C302 1.379 . S
C307 N305 1.356 . S
N308 C300 1.356 . S
N308 H314 0.984 . S
N308 H315 0.984 . S
N309 C302 1.356 . S
N309 H312 0.984 . S
N309 H313 0.985 . S
H310 N305 0.984 . S
H311 N305 0.985 . S
H312 N309 0.984 . S
H313 N309 0.985 . S
H314 N308 0.984 . S
H315 N308 0.984 . S
H316 N304 0.984 . S
H317 N304 0.985 . S
C318 C319 1.363 . S
C318 C324 1.379 . S
C318 N326 1.356 . S
C319 C318 1.363 . S
C319 C325 1.363 . S
C320 C321 1.363 . S
C320 C325 1.379 . S
C320 N327 1.356 . S
C321 C320 1.363 . S
C321 C324 1.363 . S
N322 C324 1.356 1_455 S
N322 H334 0.984 . S
N322 H335 0.985 . S
N323 C325 1.356 . S
N323 H328 0.984 . S
N323 H329 0.985 . S
C324 C318 1.379 . S
C324 C321 1.363 . S
C324 N322 1.356 1_655 S
C325 C319 1.363 . S
C325 C320 1.379 . S
C325 N323 1.356 . S
N326 C318 1.356 . S
N326 H332 0.974 1_655 S
N326 H333 0.984 . S
N327 C320 1.356 . S
N327 H330 0.984 . S
N327 H331 0.985 . S
H328 N323 0.984 . S
H329 N323 0.985 . S
H330 N327 0.984 . S
H331 N327 0.985 . S
H332 N326 0.974 1_455 S
H333 N326 0.984 . S
H334 N322 0.984 . S
H335 N322 0.985 . S
C336 C337 1.363 . S
C336 C342 1.379 . S
C336 N344 1.356 . S
C337 C336 1.363 . S
C337 C343 1.363 . S
C338 C339 1.363 . S
C338 C343 1.379 . S
C338 N345 1.356 . S
C339 C338 1.363 . S
C339 C342 1.363 . S
N340 C342 1.356 . S
N340 H352 0.984 . S
N340 H353 0.985 . S
N341 C343 1.356 . S
N341 H346 0.984 . S
N341 H347 0.985 . S
C342 C336 1.379 . S
C342 C339 1.363 . S
C342 N340 1.356 . S
C343 C337 1.363 . S
C343 C338 1.379 . S
C343 N341 1.356 . S
N344 C336 1.356 . S
N344 H350 0.984 . S
N344 H351 0.984 . S
N345 C338 1.356 . S
N345 H348 0.984 . S
N345 H349 0.985 . S
H346 N341 0.984 . S
H347 N341 0.985 . S
H348 N345 0.984 . S
H349 N345 0.985 . S
H350 N344 0.984 . S
H351 N344 0.984 . S
H352 N340 0.984 . S
H353 N340 0.985 . S
C354 C355 1.363 . S
C354 C360 1.379 . S
C354 N362 1.356 . S
C355 C354 1.363 . S
C355 C361 1.363 . S
C356 C357 1.363 . S
C356 C361 1.379 . S
C356 N363 1.356 . S
C357 C356 1.363 . S
C357 C360 1.363 . S
N358 C360 1.356 . S
N358 H370 0.984 . S
N358 H371 0.985 . S
N359 C361 1.356 . S
N359 H364 0.984 . S
N359 H365 0.985 . S
C360 C354 1.379 . S
C360 C357 1.363 . S
C360 N358 1.356 . S
C361 C355 1.363 . S
C361 C356 1.379 . S
C361 N359 1.356 . S
N362 C354 1.356 . S
N362 H368 0.984 . S
N362 H369 0.984 . S
N363 C356 1.356 . S
N363 H366 0.984 1_565 S
N363 H367 0.985 . S
H364 N359 0.984 . S
H365 N359 0.985 . S
H366 N363 0.984 1_545 S
H367 N363 0.985 . S
H368 N362 0.984 . S
H369 N362 0.984 . S
H370 N358 0.984 . S
H371 N358 0.985 . S
C372 C373 1.363 . S
C372 C378 1.379 . S
C372 N380 1.356 . S
C373 C372 1.363 . S
C373 C379 1.363 . S
C374 C375 1.363 . S
C374 C379 1.379 . S
C374 N381 1.356 1_556 S
C375 C374 1.363 . S
C375 C378 1.363 . S
N376 C378 1.356 . S
N376 H388 0.984 . S
N376 H389 0.985 . S
N377 C379 1.356 . S
N377 H382 0.984 . S
N377 H383 0.985 . S
C378 C372 1.379 . S
C378 C375 1.363 . S
C378 N376 1.356 . S
C379 C373 1.363 . S
C379 C374 1.379 . S
C379 N377 1.356 . S
N380 C372 1.356 . S
N380 H386 0.984 . S
N380 H387 0.984 . S
N381 C374 1.356 1_554 S
N381 H384 0.984 . S
N381 H385 0.985 . S
H382 N377 0.984 . S
H383 N377 0.985 . S
H384 N381 0.984 . S
H385 N381 0.985 . S
H386 N380 0.984 . S
H387 N380 0.984 . S
H388 N376 0.984 . S
H389 N376 0.985 . S
C390 C391 1.363 . S
C390 C396 1.379 . S
C390 N398 1.356 . S
C391 C390 1.363 . S
C391 C397 1.363 . S
C392 C393 1.363 . S
C392 C397 1.379 . S
C392 N399 1.356 . S
C393 C392 1.363 . S
C393 C396 1.363 . S
N394 C396 1.356 . S
N394 H406 0.984 . S
N394 H407 0.985 . S
N395 C397 1.356 . S
N395 H400 0.984 . S
N395 H401 0.985 . S
C396 C390 1.379 . S
C396 C393 1.363 . S
C396 N394 1.356 . S
C397 C391 1.363 . S
C397 C392 1.379 . S
C397 N395 1.356 . S
N398 C390 1.356 . S
N398 H404 0.984 . S
N398 H405 0.984 . S
N399 C392 1.356 . S
N399 H402 0.984 . S
N399 H403 0.985 . S
H400 N395 0.984 . S
H401 N395 0.985 . S
H402 N399 0.984 . S
H403 N399 0.985 . S
H404 N398 0.984 . S
H405 N398 0.984 . S
H406 N394 0.984 . S
H407 N394 0.985 . S
C408 C409 1.363 . S
C408 C414 1.379 . S
C408 N416 1.356 . S
C409 C408 1.363 . S
C409 C415 1.363 . S
C410 C411 1.363 . S
C410 C415 1.379 . S
C410 N417 1.356 . S
C411 C410 1.363 . S
C411 C414 1.363 . S
N412 C414 1.356 . S
N412 H424 0.984 . S
N412 H425 0.985 . S
N413 C415 1.356 . S
N413 H418 0.984 . S
N413 H419 0.985 . S
C414 C408 1.379 . S
C414 C411 1.363 . S
C414 N412 1.356 . S
C415 C409 1.363 . S
C415 C410 1.379 . S
C415 N413 1.356 . S
N416 C408 1.356 . S
N416 H422 0.984 . S
N416 H423 0.984 . S
N417 C410 1.356 . S
N417 H420 0.984 . S
N417 H421 0.985 . S
H418 N413 0.984 . S
H419 N413 0.985 . S
H420 N417 0.984 . S
H421 N417 0.985 . S
H422 N416 0.984 . S
H423 N416 0.984 . S
H424 N412 0.984 . S
H425 N412 0.985 . S
C426 C427 1.363 . S
C426 C432 1.379 . S
C426 N434 1.356 . S
C427 C426 1.363 . S
C427 C433 1.363 . S
C428 C429 1.363 . S
C428 C433 1.379 . S
C428 N435 1.356 . S
C429 C428 1.363 . S
C429 C432 1.363 . S
N430 C432 1.356 . S
N430 H442 0.984 . S
N430 H443 0.985 . S
N431 C433 1.356 . S
N431 H436 0.984 . S
N431 H437 0.985 . S
C432 C426 1.379 . S
C432 C429 1.363 . S
C432 N430 1.356 . S
C433 C427 1.363 . S
C433 C428 1.379 . S
C433 N431 1.356 . S
N434 C426 1.356 . S
N434 H440 0.984 . S
N434 H441 0.984 . S
N435 C428 1.356 . S
N435 H438 0.984 . S
N435 H439 0.985 . S
H436 N431 0.984 . S
H437 N431 0.985 . S
H438 N435 0.984 . S
H439 N435 0.985 . S
H440 N434 0.984 . S
H441 N434 0.984 . S
H442 N430 0.984 . S
H443 N430 0.985 . S
C444 C445 1.363 . S
C444 C450 1.379 . S
C444 N452 1.356 . S
C445 C444 1.363 . S
C445 C451 1.363 . S
C446 C447 1.363 . S
C446 C451 1.379 . S
C446 N453 1.356 1_655 S
C447 C446 1.363 . S
C447 C450 1.363 . S
N448 C450 1.356 . S
N448 H460 0.984 . S
N448 H461 0.985 . S
N449 C451 1.356 1_455 S
N449 H454 0.984 1_455 S
N449 H455 0.985 . S
C450 C444 1.379 . S
C450 C447 1.363 . S
C450 N448 1.356 . S
C451 C445 1.363 . S
C451 C446 1.379 . S
C451 N449 1.356 1_655 S
N452 C444 1.356 . S
N452 H458 0.984 . S
N452 H459 0.984 . S
N453 C446 1.356 1_455 S
N453 H456 0.984 . S
N453 H457 0.985 . S
H454 N449 0.984 1_655 S
H455 N449 0.985 . S
H456 N453 0.984 . S
H457 N453 0.985 . S
H458 N452 0.984 . S
H459 N452 0.984 . S
H460 N448 0.984 . S
H461 N448 0.985 . S
C462 C463 1.363 . S
C462 C468 1.379 . S
C462 N470 1.356 . S
C463 C462 1.363 . S
C463 C469 1.363 . S
C464 C465 1.363 . S
C464 C469 1.379 . S
C464 N471 1.356 . S
C465 C464 1.363 . S
C465 C468 1.363 . S
N466 C468 1.356 . S
N466 H478 0.984 . S
N466 H479 0.985 . S
N467 C469 1.356 . S
N467 H472 0.984 . S
N467 H473 0.985 . S
C468 C462 1.379 . S
C468 C465 1.363 . S
C468 N466 1.356 . S
C469 C463 1.363 . S
C469 C464 1.379 . S
C469 N467 1.356 . S
N470 C462 1.356 . S
N470 H476 0.984 . S
N470 H477 0.984 . S
N471 C464 1.356 . S
N471 H474 0.984 . S
N471 H475 0.985 . S
H472 N467 0.984 . S
H473 N467 0.985 . S
H474 N471 0.984 . S
H475 N471 0.985 . S
H476 N470 0.984 . S
H477 N470 0.984 . S
H478 N466 0.984 . S
H479 N466 0.985 . S
C480 C481 1.363 . S
C480 C486 1.379 . S
C480 N488 1.356 . S
C481 C480 1.363 . S
C481 C487 1.363 . S
C482 C483 1.363 . S
C482 C487 1.379 . S
C482 N489 1.356 . S
C483 C482 1.363 . S
C483 C486 1.363 . S
N484 C486 1.356 . S
N484 H496 0.984 . S
N484 H497 0.985 . S
N485 C487 1.356 . S
N485 H490 0.984 . S
N485 H491 0.985 . S
C486 C480 1.379 . S
C486 C483 1.363 . S
C486 N484 1.356 . S
C487 C481 1.363 . S
C487 C482 1.379 . S
C487 N485 1.356 . S
N488 C480 1.356 . S
N488 H494 0.984 . S
N488 H495 0.984 . S
N489 C482 1.356 . S
N489 H492 0.984 . S
N489 H493 0.985 . S
H490 N485 0.984 . S
H491 N485 0.985 . S
H492 N489 0.984 . S
H493 N489 0.985 . S
H494 N488 0.984 . S
H495 N488 0.984 . S
H496 N484 0.984 . S
H497 N484 0.985 . S
C498 C499 1.363 . S
C498 C504 1.379 . S
C498 N506 1.356 . S
C499 C498 1.363 . S
C499 C505 1.363 . S
C500 C501 1.363 . S
C500 C505 1.379 . S
C500 N507 1.356 . S
C501 C500 1.363 . S
C501 C504 1.363 . S
N502 C504 1.356 . S
N502 H514 0.984 . S
N502 H515 0.985 . S
N503 C505 1.356 . S
N503 H508 0.984 . S
N503 H509 0.985 . S
C504 C498 1.379 . S
C504 C501 1.363 . S
C504 N502 1.356 . S
C505 C499 1.363 . S
C505 C500 1.379 . S
C505 N503 1.356 . S
N506 C498 1.356 . S
N506 H512 0.984 . S
N506 H513 0.984 . S
N507 C500 1.356 . S
N507 H510 0.984 . S
N507 H511 0.985 . S
H508 N503 0.984 . S
H509 N503 0.985 . S
H510 N507 0.984 . S
H511 N507 0.985 . S
H512 N506 0.984 . S
H513 N506 0.984 . S
H514 N502 0.984 . S
H515 N502 0.985 . S
C516 C517 1.363 . S
C516 C522 1.379 . S
C516 N524 1.356 . S
C517 C516 1.363 . S
C517 C523 1.363 . S
C518 C519 1.363 . S
C518 C523 1.379 . S
C518 N525 1.356 . S
C519 C518 1.363 . S
C519 C522 1.363 . S
N520 C522 1.356 . S
N520 H532 0.984 . S
N520 H533 0.985 . S
N521 C523 1.356 . S
N521 H526 0.984 . S
N521 H527 0.985 . S
C522 C516 1.379 . S
C522 C519 1.363 . S
C522 N520 1.356 . S
C523 C517 1.363 . S
C523 C518 1.379 . S
C523 N521 1.356 . S
N524 C516 1.356 . S
N524 H530 0.984 . S
N524 H531 0.984 . S
N525 C518 1.356 . S
N525 H528 0.984 . S
N525 H529 0.985 . S
H526 N521 0.984 . S
H527 N521 0.985 . S
H528 N525 0.984 . S
H529 N525 0.985 . S
H530 N524 0.984 . S
H531 N524 0.984 . S
H532 N520 0.984 . S
H533 N520 0.985 . S
C534 C535 1.363 . S
C534 C540 1.379 . S
C534 N542 1.356 . S
C535 C534 1.363 . S
C535 C541 1.363 . S
C536 C537 1.363 . S
C536 C541 1.379 . S
C536 N543 1.356 . S
C537 C536 1.363 . S
C537 C540 1.363 . S
N538 C540 1.356 . S
N538 H550 0.984 . S
N538 H551 0.985 . S
N539 C541 1.356 . S
N539 H544 0.984 . S
N539 H545 0.985 . S
C540 C534 1.379 . S
C540 C537 1.363 . S
C540 N538 1.356 . S
C541 C535 1.363 . S
C541 C536 1.379 . S
C541 N539 1.356 . S
N542 C534 1.356 . S
N542 H548 0.984 . S
N542 H549 0.984 . S
N543 C536 1.356 . S
N543 H546 0.984 . S
N543 H547 0.985 . S
H544 N539 0.984 . S
H545 N539 0.985 . S
H546 N543 0.984 . S
H547 N543 0.985 . S
H548 N542 0.984 . S
H549 N542 0.984 . S
H550 N538 0.984 . S
H551 N538 0.985 . S
C552 C553 1.363 . S
C552 C558 1.379 . S
C552 N560 1.356 . S
C553 C552 1.363 . S
C553 C559 1.363 . S
C554 C555 1.363 . S
C554 C559 1.379 . S
C554 N561 1.356 . S
C555 C554 1.363 . S
C555 C558 1.363 . S
N556 C558 1.356 . S
N556 H568 0.984 1_556 S
N556 H569 0.985 . S
N557 C559 1.356 . S
N557 H562 0.984 . S
N557 H563 0.985 . S
C558 C552 1.379 . S
C558 C555 1.363 . S
C558 N556 1.356 . S
C559 C553 1.363 . S
C559 C554 1.379 . S
C559 N557 1.356 . S
N560 C552 1.356 . S
N560 H566 0.984 . S
N560 H567 0.984 . S
N561 C554 1.356 . S
N561 H564 0.984 . S
N561 H565 0.985 . S
H562 N557 0.984 . S
H563 N557 0.985 . S
H564 N561 0.984 . S
H565 N561 0.985 . S
H566 N560 0.984 . S
H567 N560 0.984 . S
H568 N556 0.984 1_554 S
H569 N556 0.985 . S
C570 C571 1.363 . S
C570 C576 1.379 . S
C570 N578 1.356 . S
C571 C570 1.363 . S
C571 C577 1.363 . S
C572 C573 1.363 . S
C572 C577 1.379 . S
C572 N579 1.356 . S
C573 C572 1.363 . S
C573 C576 1.363 . S
N574 C576 1.356 . S
N574 H586 0.984 . S
N574 H587 0.984 . S
N575 C577 1.356 . S
N575 H580 0.984 . S
N575 H581 0.985 . S
C576 C570 1.379 . S
C576 C573 1.363 . S
C576 N574 1.356 . S
C577 C571 1.363 . S
C577 C572 1.379 . S
C577 N575 1.356 . S
N578 C570 1.356 . S
N578 H584 0.984 . S
N578 H585 0.984 . S
N579 C572 1.356 . S
N579 H582 0.984 . S
N579 H583 0.985 . S
H580 N575 0.984 . S
H581 N575 0.985 . S
H582 N579 0.984 . S
H583 N579 0.985 . S
H584 N578 0.984 . S
H585 N578 0.984 . S
H586 N574 0.984 . S
H587 N574 0.984 . S
C588 C589 1.363 . S
C588 C594 1.379 . S
C588 N596 1.356 . S
C589 C588 1.363 . S
C589 C595 1.363 . S
C590 C591 1.363 . S
C590 C595 1.379 . S
C590 N597 1.356 . S
C591 C590 1.363 . S
C591 C594 1.363 . S
N592 C594 1.356 . S
N592 H604 0.984 . S
N592 H605 0.985 . S
N593 C595 1.356 . S
N593 H598 0.984 . S
N593 H599 0.985 . S
C594 C588 1.379 . S
C594 C591 1.363 . S
C594 N592 1.356 . S
C595 C589 1.363 . S
C595 C590 1.379 . S
C595 N593 1.356 . S
N596 C588 1.356 . S
N596 H602 0.984 . S
N596 H603 0.984 . S
N597 C590 1.356 . S
N597 H600 0.984 . S
N597 H601 0.985 . S
H598 N593 0.984 . S
H599 N593 0.985 . S
H600 N597 0.984 . S
H601 N597 0.985 . S
H602 N596 0.984 . S
H603 N596 0.984 . S
H604 N592 0.984 . S
H605 N592 0.985 . S
C606 C607 1.363 . S
C606 C612 1.379 . S
C606 N614 1.356 . S
C607 C606 1.363 . S
C607 C613 1.363 . S
C608 C609 1.363 . S
C608 C613 1.379 . S
C608 N615 1.356 . S
C609 C608 1.363 . S
C609 C612 1.363 . S
N610 C612 1.356 . S
N610 H622 0.984 . S
N610 H623 0.985 . S
N611 C613 1.356 . S
N611 H616 0.984 . S
N611 H617 0.985 . S
C612 C606 1.379 . S
C612 C609 1.363 . S
C612 N610 1.356 . S
C613 C607 1.363 . S
C613 C608 1.379 . S
C613 N611 1.356 . S
N614 C606 1.356 . S
N614 H620 0.984 . S
N614 H621 0.984 . S
N615 C608 1.356 . S
N615 H618 0.984 . S
N615 H619 0.985 . S
H616 N611 0.984 . S
H617 N611 0.985 . S
H618 N615 0.984 . S
H619 N615 0.985 . S
H620 N614 0.984 . S
H621 N614 0.984 . S
H622 N610 0.984 . S
H623 N610 0.985 . S
C624 C625 1.363 . S
C624 C630 1.379 . S
C624 N632 1.356 . S
C625 C624 1.363 . S
C625 C631 1.363 . S
C626 C627 1.363 . S
C626 C631 1.379 . S
C626 N633 1.356 . S
C627 C626 1.363 . S
C627 C630 1.363 . S
N628 C630 1.356 . S
N628 H640 0.984 . S
N628 H641 0.985 . S
N629 C631 1.356 . S
N629 H634 0.984 . S
N629 H635 0.985 . S
C630 C624 1.379 . S
C630 C627 1.363 . S
C630 N628 1.356 . S
C631 C625 1.363 . S
C631 C626 1.379 . S
C631 N629 1.356 . S
N632 C624 1.356 . S
N632 H638 0.984 . S
N632 H639 0.984 . S
N633 C626 1.356 . S
N633 H636 0.984 . S
N633 H637 0.985 . S
H634 N629 0.984 . S
H635 N629 0.985 . S
H636 N633 0.984 . S
H637 N633 0.985 . S
H638 N632 0.984 . S
H639 N632 0.984 . S
H640 N628 0.984 . S
H641 N628 0.985 . S
C642 C643 1.363 . S
C642 C648 1.379 . S
C642 N650 1.356 . S
C643 C642 1.363 . S
C643 C649 1.363 . S
C644 C645 1.363 . S
C644 C649 1.379 . S
C644 N651 1.356 . S
C645 C644 1.363 . S
C645 C648 1.363 . S
N646 C648 1.356 . S
N646 H658 0.984 . S
N646 H659 0.985 . S
N647 C649 1.356 . S
N647 H652 0.984 . S
N647 H653 0.985 . S
C648 C642 1.379 . S
C648 C645 1.363 . S
C648 N646 1.356 . S
C649 C643 1.363 . S
C649 C644 1.379 . S
C649 N647 1.356 . S
N650 C642 1.356 . S
N650 H656 0.984 . S
N650 H657 0.984 . S
N651 C644 1.356 . S
N651 H654 0.984 . S
N651 H655 0.985 . S
H652 N647 0.984 . S
H653 N647 0.985 . S
H654 N651 0.984 . S
H655 N651 0.985 . S
H656 N650 0.984 . S
H657 N650 0.984 . S
H658 N646 0.984 . S
H659 N646 0.985 . S
C660 C661 1.363 . S
C660 C666 1.379 . S
C660 N668 1.356 . S
C661 C660 1.363 . S
C661 C667 1.363 . S
C662 C663 1.363 . S
C662 C667 1.379 . S
C662 N669 1.356 . S
C663 C662 1.363 . S
C663 C666 1.363 . S
N664 C666 1.356 . S
N664 H676 0.984 . S
N664 H677 0.985 . S
N665 C667 1.356 . S
N665 H670 0.984 . S
N665 H671 0.985 . S
C666 C660 1.379 . S
C666 C663 1.363 . S
C666 N664 1.356 . S
C667 C661 1.363 . S
C667 C662 1.379 . S
C667 N665 1.356 . S
N668 C660 1.356 . S
N668 H674 0.984 . S
N668 H675 0.984 . S
N669 C662 1.356 . S
N669 H672 0.984 . S
N669 H673 0.985 . S
H670 N665 0.984 . S
H671 N665 0.985 . S
H672 N669 0.984 . S
H673 N669 0.985 . S
H674 N668 0.984 . S
H675 N668 0.984 . S
H676 N664 0.984 . S
H677 N664 0.985 . S
C678 C679 1.363 . S
C678 C684 1.379 . S
C678 N686 1.356 . S
C679 C678 1.363 . S
C679 C685 1.363 . S
C680 C681 1.363 . S
C680 C685 1.379 . S
C680 N687 1.356 . S
C681 C680 1.363 . S
C681 C684 1.363 . S
N682 C684 1.356 . S
N682 H694 0.984 . S
N682 H695 0.985 . S
N683 C685 1.356 . S
N683 H688 0.984 . S
N683 H689 0.985 . S
C684 C678 1.379 . S
C684 C681 1.363 . S
C684 N682 1.356 . S
C685 C679 1.363 . S
C685 C680 1.379 . S
C685 N683 1.356 . S
N686 C678 1.356 . S
N686 H692 0.984 . S
N686 H693 0.984 . S
N687 C680 1.356 . S
N687 H690 0.984 . S
N687 H691 0.985 . S
H688 N683 0.984 . S
H689 N683 0.985 . S
H690 N687 0.984 . S
H691 N687 0.985 . S
H692 N686 0.984 . S
H693 N686 0.984 . S
H694 N682 0.984 . S
H695 N682 0.985 . S
C265 C9 1.420 . S
C267 C110 1.472 . S
C283 C21 1.266 . S
C285 C159 1.283 . S
C303 C194 2.290 . S
C301 C30 2.348 . S
C319 C43 2.272 . S
C321 C233 2.377 1_655 S
C339 C154 2.152 . S
C337 C4 1.764 . S
C357 C113 1.390 . S
C355 C22 1.433 . S
C375 C243 1.697 1_556 S
C373 C34 1.770 . S
C393 C202 1.709 . S
C391 C48 1.731 . S
C409 C8 1.550 . S
C411 C230 1.630 . S
C429 C162 2.299 . S
C427 C35 2.397 . S
C445 C47 2.593 . S
C447 C123 2.592 . S
C463 C17 1.189 . S
C465 C199 1.208 . S
C483 C119 1.077 . S
C481 C60 1.062 . S
C499 C74 1.220 . S
C501 C150 1.195 . S
C517 C82 2.046 . S
C519 C203 2.093 . S
C535 C100 2.833 . S
C537 C242 2.763 . S
C553 C61 2.282 . S
C555 C163 2.457 . S
C573 C122 0.641 . S
C571 C73 0.622 . S
C591 C234 2.159 . S
C589 C87 2.235 . S
C609 C193 1.529 . S
C607 C95 1.520 . S
C625 C56 1.511 . S
C627 C239 1.493 . S
C645 C153 2.487 . S
C643 C86 2.558 . S
C663 C114 2.462 . S
C661 C99 2.464 . S
C679 C69 0.880 . S
C681 C190 0.983 . S
