# Generated by pormake.
# Topology zzz, (3,6)-cn, num edge types: 1
# Building blocks:
#     Node 0, Type 0, BuildingBlock: MIDCAF_clean_linker_0, # of connection points: 3
#     Node 1, Type 0, BuildingBlock: MIDCAF_clean_linker_0, # of connection points: 3
#     Node 2, Type 0, BuildingBlock: MIDCAF_clean_linker_0, # of connection points: 3
#     Node 3, Type 0, BuildingBlock: MIDCAF_clean_linker_0, # of connection points: 3
#     Node 4, Type 0, BuildingBlock: MIDCAF_clean_linker_0, # of connection points: 3
#     Node 5, Type 0, BuildingBlock: MIDCAF_clean_linker_0, # of connection points: 3
#     Node 6, Type 0, BuildingBlock: MIDCAF_clean_linker_0, # of connection points: 3
#     Node 7, Type 0, BuildingBlock: MIDCAF_clean_linker_0, # of connection points: 3
#     Node 8, Type 1, BuildingBlock: JUFBIX_clean_sbu_0, # of connection points: 6
#     Node 9, Type 1, BuildingBlock: JUFBIX_clean_sbu_0, # of connection points: 6
#     Node 10, Type 1, BuildingBlock: JUFBIX_clean_sbu_0, # of connection points: 6
#     Node 11, Type 1, BuildingBlock: JUFBIX_clean_sbu_0, # of connection points: 6
#     Edge 12, Type (0, 1), BuildingBlock: UVAHIK_clean_linker_0, # of connection points: 2
#     Edge 13, Type (0, 1), BuildingBlock: UVAHIK_clean_linker_0, # of connection points: 2
#     Edge 14, Type (0, 1), BuildingBlock: UVAHIK_clean_linker_0, # of connection points: 2
#     Edge 15, Type (0, 1), BuildingBlock: UVAHIK_clean_linker_0, # of connection points: 2
#     Edge 16, Type (0, 1), BuildingBlock: UVAHIK_clean_linker_0, # of connection points: 2
#     Edge 17, Type (0, 1), BuildingBlock: UVAHIK_clean_linker_0, # of connection points: 2
#     Edge 18, Type (0, 1), BuildingBlock: UVAHIK_clean_linker_0, # of connection points: 2
#     Edge 19, Type (0, 1), BuildingBlock: UVAHIK_clean_linker_0, # of connection points: 2
#     Edge 20, Type (0, 1), BuildingBlock: UVAHIK_clean_linker_0, # of connection points: 2
#     Edge 21, Type (0, 1), BuildingBlock: UVAHIK_clean_linker_0, # of connection points: 2
#     Edge 22, Type (0, 1), BuildingBlock: UVAHIK_clean_linker_0, # of connection points: 2
#     Edge 23, Type (0, 1), BuildingBlock: UVAHIK_clean_linker_0, # of connection points: 2
#     Edge 24, Type (0, 1), BuildingBlock: UVAHIK_clean_linker_0, # of connection points: 2
#     Edge 25, Type (0, 1), BuildingBlock: UVAHIK_clean_linker_0, # of connection points: 2
#     Edge 26, Type (0, 1), BuildingBlock: UVAHIK_clean_linker_0, # of connection points: 2
#     Edge 27, Type (0, 1), BuildingBlock: UVAHIK_clean_linker_0, # of connection points: 2
#     Edge 28, Type (0, 1), BuildingBlock: UVAHIK_clean_linker_0, # of connection points: 2
#     Edge 29, Type (0, 1), BuildingBlock: UVAHIK_clean_linker_0, # of connection points: 2
#     Edge 30, Type (0, 1), BuildingBlock: UVAHIK_clean_linker_0, # of connection points: 2
#     Edge 31, Type (0, 1), BuildingBlock: UVAHIK_clean_linker_0, # of connection points: 2
#     Edge 32, Type (0, 1), BuildingBlock: UVAHIK_clean_linker_0, # of connection points: 2
#     Edge 33, Type (0, 1), BuildingBlock: UVAHIK_clean_linker_0, # of connection points: 2
#     Edge 34, Type (0, 1), BuildingBlock: UVAHIK_clean_linker_0, # of connection points: 2
#     Edge 35, Type (0, 1), BuildingBlock: UVAHIK_clean_linker_0, # of connection points: 2
# Relax obj value: 0.299
# Max RMSD: 0.222
# Mean RMSD: 0.190
data_MOF--net-zzz--node1-JUFBIX_clean_sbu_0--node2-MIDCAF_clean_linker_0--edge1-UVAHIK_clean_linker_0
_symmetry_space_group_name_H-M    P1
_symmetry_Int_Tables_number       1
_symmetry_cell_setting            triclinic
loop_
_symmetry_equiv_pos_as_xyz
'x, y, z'
_cell_length_a     70.249381
_cell_length_b     72.546846
_cell_length_c     27.950056
_cell_angle_alpha  83.800379
_cell_angle_beta   90.194737
_cell_angle_gamma 86.793826
loop_
_atom_site_label
_atom_site_type_symbol
_atom_site_fract_x
_atom_site_fract_y
_atom_site_fract_z
_atom_type_partial_charge
C0 C 0.80374 0.58931 0.41043 0.0
C1 C 0.79873 0.57587 0.44757 0.0
C2 C 0.78296 0.56524 0.44048 0.0
C3 C 0.77338 0.56707 0.3959 0.0
H4 H 0.72094 0.55943 0.29247 0.0
H5 H 0.68997 0.55452 0.25603 0.0
H6 H 0.70709 0.58479 0.12303 0.0
H7 H 0.73776 0.58949 0.15898 0.0
H8 H 0.78206 0.56247 0.13824 0.0
H9 H 0.80819 0.55182 0.08904 0.0
H10 H 0.84864 0.56287 0.19769 0.0
H11 H 0.82273 0.57385 0.24635 0.0
H12 H 0.79949 0.6005 0.337 0.0
H13 H 0.81589 0.59761 0.41427 0.0
H14 H 0.77864 0.55488 0.46857 0.0
H15 H 0.76218 0.55785 0.39017 0.0
N16 N 0.75559 0.57696 0.29332 0.0
N17 N 0.76604 0.5731 0.21481 0.0
N18 N 0.78829 0.57564 0.2755 0.0
C19 C 0.75155 0.57513 0.24629 0.0
C20 C 0.78445 0.57318 0.22924 0.0
C21 C 0.7741 0.57759 0.30761 0.0
C22 C 0.73176 0.57472 0.22841 0.0
C23 C 0.71784 0.56536 0.25586 0.0
C24 C 0.7002 0.56247 0.23493 0.0
C25 C 0.69612 0.56925 0.18663 0.0
C26 C 0.70968 0.57956 0.1604 0.0
C27 C 0.72732 0.58214 0.18092 0.0
C28 C 0.80025 0.56888 0.19652 0.0
C29 C 0.79653 0.5629 0.15136 0.0
C30 C 0.81149 0.55665 0.12329 0.0
C31 C 0.83046 0.55633 0.13969 0.0
C32 C 0.8342 0.56306 0.18384 0.0
C33 C 0.81929 0.56927 0.21189 0.0
C34 C 0.77962 0.57938 0.35775 0.0
C35 C 0.79437 0.59096 0.36601 0.0
C36 C 0.9781 0.79611 0.38933 0.0
C37 C 0.99085 0.79533 0.42849 0.0
C38 C 0.00699 0.78287 0.42997 0.0
C39 C 0.01103 0.77249 0.39142 0.0
H40 H 0.98367 0.72349 0.26308 0.0
H41 H 0.97956 0.69547 0.22277 0.0
H42 H 0.03496 0.70117 0.1582 0.0
H43 H 0.03894 0.72901 0.19775 0.0
H44 H 0.04036 0.77423 0.14702 0.0
H45 H 0.04922 0.79908 0.08655 0.0
H46 H 0.02917 0.8399 0.17889 0.0
H47 H 0.02028 0.81528 0.23932 0.0
H48 H 0.97307 0.78791 0.31905 0.0
H49 H 0.96566 0.8057 0.38681 0.0
H50 H 0.01702 0.78188 0.45979 0.0
H51 H 0.02427 0.76407 0.39176 0.0
N52 N 0.00546 0.75133 0.29259 0.0
N53 N 0.02111 0.76038 0.22017 0.0
N54 N 0.01443 0.78207 0.2746 0.0
C55 C 0.01296 0.74703 0.2499 0.0
C56 C 0.02184 0.77793 0.23213 0.0
C57 C 0.00641 0.76893 0.305 0.0
C58 C 0.0116 0.72843 0.23343 0.0
C59 C 0.99511 0.71845 0.24118 0.0
C60 C 0.9927 0.70254 0.21781 0.0
C61 C 0.00692 0.69616 0.18721 0.0
C62 C 0.02382 0.70561 0.18183 0.0
C63 C 0.02606 0.72161 0.20435 0.0
C64 C 0.02935 0.79274 0.19782 0.0
C65 C 0.03805 0.78849 0.15475 0.0
C66 C 0.04325 0.80269 0.12021 0.0
C67 C 0.0397 0.82137 0.12797 0.0
C68 C 0.03185 0.8256 0.17185 0.0
C69 C 0.0268 0.81145 0.2065 0.0
C70 C 0.99902 0.77441 0.35082 0.0
C71 C 0.98226 0.78587 0.35062 0.0
C72 C 0.72969 0.94035 0.41366 0.0
C73 C 0.72296 0.95879 0.41672 0.0
C74 C 0.73042 0.97306 0.38551 0.0
C75 C 0.74296 0.96882 0.34898 0.0
H76 H 0.80778 0.95687 0.26998 0.0
H77 H 0.83881 0.9604 0.23103 0.0
H78 H 0.81796 0.9355 0.1088 0.0
H79 H 0.78769 0.93148 0.14763 0.0
H80 H 0.74425 0.94247 0.11965 0.0
H81 H 0.71736 0.94675 0.0635 0.0
H82 H 0.67832 0.94068 0.18242 0.0
H83 H 0.7051 0.93626 0.23875 0.0
H84 H 0.74536 0.92167 0.37176 0.0
H85 H 0.72402 0.92907 0.43692 0.0
H86 H 0.72549 0.98739 0.3872 0.0
H87 H 0.74709 0.97991 0.3226 0.0
N88 N 0.77182 0.94628 0.27857 0.0
N89 N 0.76102 0.94029 0.20232 0.0
N90 N 0.73925 0.94274 0.26435 0.0
C91 C 0.77563 0.9432 0.2321 0.0
C92 C 0.74282 0.94005 0.21804 0.0
C93 C 0.75354 0.94573 0.29475 0.0
C94 C 0.79515 0.94401 0.21192 0.0
C95 C 0.80999 0.95189 0.23516 0.0
C96 C 0.82771 0.95403 0.21267 0.0
C97 C 0.83094 0.94821 0.16673 0.0
C98 C 0.81622 0.93986 0.14445 0.0
C99 C 0.79867 0.93773 0.16671 0.0
C100 C 0.72684 0.93932 0.18381 0.0
C101 C 0.72996 0.94168 0.1339 0.0
C102 C 0.71458 0.94423 0.10168 0.0
C103 C 0.69579 0.9443 0.11868 0.0
C104 C 0.69267 0.94064 0.1683 0.0
C105 C 0.70804 0.93822 0.20057 0.0
C106 C 0.7481 0.95026 0.34293 0.0
C107 C 0.74201 0.9361 0.37664 0.0
C108 C 0.45056 0.67061 0.14994 0.0
C109 C 0.44854 0.67404 0.09968 0.0
C110 C 0.44754 0.69254 0.07829 0.0
C111 C 0.44944 0.7072 0.10629 0.0
H112 H 0.45689 0.76199 0.09663 0.0
H113 H 0.45955 0.79276 0.05542 0.0
H114 H 0.47731 0.81249 0.18798 0.0
H115 H 0.47492 0.78125 0.22988 0.0
H116 H 0.49425 0.73748 0.31704 0.0
H117 H 0.50382 0.72185 0.39666 0.0
H118 H 0.4535 0.6901 0.39829 0.0
H119 H 0.44407 0.70571 0.32018 0.0
H120 H 0.45445 0.68192 0.21634 0.0
H121 H 0.45165 0.65656 0.16766 0.0
H122 H 0.44567 0.69568 0.03974 0.0
H123 H 0.44914 0.72124 0.08848 0.0
N124 N 0.45858 0.73633 0.16488 0.0
N125 N 0.46711 0.7458 0.23962 0.0
N126 N 0.45948 0.715 0.23363 0.0
C127 C 0.46376 0.74995 0.19135 0.0
C128 C 0.46475 0.72826 0.26084 0.0
C129 C 0.45647 0.71882 0.1857 0.0
C130 C 0.46564 0.76902 0.16686 0.0
C131 C 0.46137 0.77277 0.1174 0.0
C132 C 0.46276 0.79054 0.09361 0.0
C133 C 0.46845 0.80516 0.11842 0.0
C134 C 0.47295 0.80149 0.16779 0.0
C135 C 0.4715 0.7836 0.19182 0.0
C136 C 0.46846 0.72274 0.31255 0.0
C137 C 0.48499 0.72761 0.33542 0.0
C138 C 0.49055 0.71851 0.38066 0.0
C139 C 0.4795 0.70461 0.40383 0.0
C140 C 0.46228 0.70084 0.38207 0.0
C141 C 0.45689 0.70974 0.33705 0.0
C142 C 0.4523 0.70367 0.15632 0.0
C143 C 0.45234 0.68523 0.1779 0.0
C144 C 0.19682 0.43017 0.11017 0.0
C145 C 0.20094 0.44367 0.07225 0.0
C146 C 0.21622 0.45508 0.07804 0.0
C147 C 0.22597 0.45408 0.12224 0.0
H148 H 0.28077 0.45765 0.23817 0.0
H149 H 0.31052 0.45943 0.28384 0.0
H150 H 0.28549 0.42981 0.40829 0.0
H151 H 0.25599 0.42853 0.36349 0.0
H152 H 0.21519 0.45911 0.38055 0.0
H153 H 0.18906 0.47028 0.42885 0.0
H154 H 0.15042 0.47042 0.30827 0.0
H155 H 0.17647 0.45953 0.25963 0.0
H156 H 0.20181 0.41983 0.184 0.0
H157 H 0.18506 0.42129 0.10741 0.0
H158 H 0.2199 0.46549 0.04934 0.0
H159 H 0.2366 0.46399 0.12712 0.0
N160 N 0.24359 0.4431 0.22838 0.0
N161 N 0.23198 0.45018 0.30363 0.0
N162 N 0.21077 0.44944 0.23969 0.0
C163 C 0.24683 0.44553 0.27545 0.0
C164 C 0.21394 0.45236 0.28593 0.0
C165 C 0.22535 0.4448 0.21084 0.0
C166 C 0.26606 0.44319 0.29758 0.0
C167 C 0.28191 0.45116 0.2749 0.0
C168 C 0.29888 0.45219 0.30106 0.0
C169 C 0.30018 0.44516 0.35005 0.0
C170 C 0.28478 0.43583 0.37108 0.0
C171 C 0.26792 0.43499 0.34532 0.0
C172 C 0.19798 0.45843 0.31611 0.0
C173 C 0.20113 0.46148 0.36428 0.0
C174 C 0.18615 0.46783 0.39206 0.0
C175 C 0.16772 0.47132 0.37226 0.0
C176 C 0.16453 0.46814 0.32428 0.0
C177 C 0.17947 0.46175 0.29654 0.0
C178 C 0.22052 0.44172 0.16118 0.0
C179 C 0.20642 0.4293 0.15418 0.0
C180 C 0.9888 0.22288 0.11484 0.0
C181 C 0.00656 0.22326 0.09185 0.0
C182 C 0.02046 0.23442 0.10841 0.0
C183 C 0.01703 0.244 0.14891 0.0
H184 H 0.99383 0.30324 0.24081 0.0
H185 H 0.99714 0.33195 0.2788 0.0
H186 H 0.02575 0.3002 0.40043 0.0
H187 H 0.02222 0.27179 0.36297 0.0
H188 H 0.97663 0.24329 0.39454 0.0
H189 H 0.96743 0.2191 0.4567 0.0
H190 H 0.97636 0.17796 0.35727 0.0
H191 H 0.98535 0.20195 0.29501 0.0
H192 H 0.97206 0.23068 0.17386 0.0
H193 H 0.97782 0.21431 0.10373 0.0
H194 H 0.03424 0.23514 0.09126 0.0
H195 H 0.02835 0.25155 0.16274 0.0
N196 N 0.00356 0.26411 0.236 0.0
N197 N 0.9948 0.25499 0.31603 0.0
N198 N 0.9904 0.23525 0.25684 0.0
C199 C 0.00203 0.26775 0.28283 0.0
C200 C 0.98891 0.23874 0.30329 0.0
C201 C 0.99766 0.24772 0.22305 0.0
C202 C 0.00775 0.28536 0.29905 0.0
C203 C 0.00133 0.30257 0.27494 0.0
C204 C 0.00308 0.31893 0.29685 0.0
C205 C 0.01164 0.31832 0.34271 0.0
C206 C 0.01926 0.3012 0.36496 0.0
C207 C 0.01718 0.28491 0.34359 0.0
C208 C 0.98188 0.22453 0.33994 0.0
C209 C 0.97645 0.22912 0.38579 0.0
C210 C 0.97106 0.21534 0.42124 0.0
C211 C 0.97129 0.19674 0.41162 0.0
C212 C 0.97617 0.19223 0.36551 0.0
C213 C 0.98128 0.20599 0.32991 0.0
C214 C 0.99976 0.24235 0.17374 0.0
C215 C 0.98549 0.23224 0.15529 0.0
C216 C 0.28335 0.09269 0.14309 0.0
C217 C 0.28011 0.0777 0.11675 0.0
C218 C 0.26474 0.06657 0.12998 0.0
C219 C 0.25394 0.06947 0.171 0.0
H220 H 0.19756 0.06866 0.26471 0.0
H221 H 0.1657 0.06433 0.29879 0.0
H222 H 0.18374 0.08625 0.42831 0.0
H223 H 0.2148 0.09095 0.39442 0.0
H224 H 0.25793 0.07237 0.42815 0.0
H225 H 0.28368 0.06551 0.48716 0.0
H226 H 0.32481 0.08046 0.37729 0.0
H227 H 0.29918 0.08749 0.31826 0.0
H228 H 0.27654 0.1063 0.20543 0.0
H229 H 0.29513 0.10146 0.13463 0.0
H230 H 0.26168 0.05505 0.11011 0.0
H231 H 0.24317 0.05988 0.18256 0.0
N232 N 0.23349 0.08162 0.26271 0.0
N233 N 0.24276 0.08104 0.3439 0.0
N234 N 0.26575 0.08322 0.28407 0.0
C235 C 0.22876 0.081 0.31024 0.0
C236 C 0.26125 0.08207 0.33121 0.0
C237 C 0.25212 0.08303 0.2497 0.0
C238 C 0.20879 0.07999 0.32695 0.0
C239 C 0.19451 0.07284 0.30007 0.0
C240 C 0.17634 0.07024 0.31974 0.0
C241 C 0.17211 0.07496 0.36632 0.0
C242 C 0.18626 0.08273 0.3921 0.0
C243 C 0.20426 0.08523 0.37273 0.0
C244 C 0.2765 0.08028 0.36831 0.0
C245 C 0.27243 0.07448 0.41665 0.0
C246 C 0.28716 0.07044 0.45044 0.0
C247 C 0.30622 0.07229 0.43666 0.0
C248 C 0.31023 0.07901 0.38897 0.0
C249 C 0.29553 0.08292 0.3551 0.0
C250 C 0.25848 0.08344 0.19941 0.0
C251 C 0.27271 0.09548 0.18391 0.0
C252 C 0.55651 0.33669 0.37527 0.0
C253 C 0.55403 0.33454 0.42531 0.0
C254 C 0.54928 0.31721 0.44813 0.0
C255 C 0.54619 0.30251 0.42104 0.0
H256 H 0.55964 0.24111 0.39634 0.0
H257 H 0.55718 0.21031 0.43997 0.0
H258 H 0.50467 0.204 0.36442 0.0
H259 H 0.50733 0.23478 0.31971 0.0
H260 H 0.49858 0.3104 0.25194 0.0
H261 H 0.48957 0.32711 0.17409 0.0
H262 H 0.52746 0.28988 0.10352 0.0
H263 H 0.53625 0.27287 0.18219 0.0
H264 H 0.55431 0.32445 0.30935 0.0
H265 H 0.56003 0.34995 0.35679 0.0
H266 H 0.54735 0.31523 0.48675 0.0
H267 H 0.54181 0.28952 0.43935 0.0
N268 N 0.54121 0.27267 0.35914 0.0
N269 N 0.52664 0.26531 0.28808 0.0
N270 N 0.53352 0.2961 0.29685 0.0
C271 C 0.53414 0.25983 0.33282 0.0
C272 C 0.5264 0.28353 0.2701 0.0
C273 C 0.54103 0.29081 0.34118 0.0
C274 C 0.53366 0.24035 0.35466 0.0
C275 C 0.54772 0.23304 0.38847 0.0
C276 C 0.54636 0.2154 0.41331 0.0
C277 C 0.53071 0.20484 0.40563 0.0
C278 C 0.51685 0.21192 0.37104 0.0
C279 C 0.51843 0.22944 0.34531 0.0
C280 C 0.51799 0.29035 0.22277 0.0
C281 C 0.50447 0.30542 0.2196 0.0
C282 C 0.4993 0.31495 0.17503 0.0
C283 C 0.50786 0.30985 0.1327 0.0
C284 C 0.52068 0.29412 0.13563 0.0
C285 C 0.52559 0.28432 0.18042 0.0
C286 C 0.54742 0.30506 0.37062 0.0
C287 C 0.5531 0.32213 0.34814 0.0
Co288 Co 0.00967 0.01655 0.79265 0.0
C289 C 0.97741 0.99838 0.82641 0.0
Co290 Co 0.9963 1.00026 0.74006 0.0
C291 C 0.02048 0.04882 0.83807 0.0
C292 C 0.02556 0.02333 0.88355 0.0
N293 N 0.01985 0.03017 0.83868 0.0
N294 N 0.02599 0.05383 0.88099 0.0
C295 C 0.02931 0.03778 0.90954 0.0
H296 H 0.0158 0.05861 0.80779 0.0
H297 H 0.02596 0.00881 0.89745 0.0
C298 C 0.02851 0.01846 0.70618 0.0
N299 N 0.98613 0.98668 0.69415 0.0
C300 C 0.98418 0.96816 0.69621 0.0
C301 C 0.98132 0.99331 0.64857 0.0
N302 N 0.97854 0.96292 0.65352 0.0
C303 C 0.97666 0.97884 0.62366 0.0
C304 C 0.98207 0.0368 0.73469 0.0
O305 O 0.02879 0.02422 0.74763 0.0
O306 O 0.01563 0.00781 0.69614 0.0
O307 O 0.98061 0.02165 0.71635 0.0
O308 O 0.99383 0.03738 0.76895 0.0
O309 O 0.9771 0.99276 0.78482 0.0
H310 H 0.98204 0.00764 0.63366 0.0
H311 H 0.9874 0.95868 0.72814 0.0
O312 O 0.99039 0.00887 0.83679 0.0
O313 O 0.02545 0.99522 0.81598 0.0
O314 O 0.01203 0.97931 0.76406 0.0
C315 C 0.02389 0.97999 0.79809 0.0
H316 H 0.03348 0.03658 0.94712 0.0
H317 H 0.97316 0.97998 0.58571 0.0
Co318 Co 0.4947 0.01633 0.80473 0.0
C319 C 0.49226 0.97802 0.82318 0.0
Co320 Co 0.50766 1.00054 0.7485 0.0
C321 C 0.46434 0.0271 0.86612 0.0
C322 C 0.48795 0.04432 0.86984 0.0
N323 N 0.48227 0.02936 0.85012 0.0
N324 N 0.45844 0.04021 0.89438 0.0
C325 C 0.47329 0.05107 0.89692 0.0
H326 H 0.4554 0.0166 0.85508 0.0
H327 H 0.50157 0.05034 0.86344 0.0
C328 C 0.51012 0.0388 0.72993 0.0
N329 N 0.52005 0.98767 0.70254 0.0
C330 C 0.53859 0.98852 0.69026 0.0
C331 C 0.51283 0.97611 0.67331 0.0
N332 N 0.54323 0.97802 0.65462 0.0
C333 C 0.52704 0.97025 0.64355 0.0
C334 C 0.47016 0.0108 0.72925 0.0
O335 O 0.50115 0.03907 0.76932 0.0
O336 O 0.51478 0.02328 0.71487 0.0
O337 O 0.48456 0.00246 0.71217 0.0
O338 O 0.47174 0.01742 0.76916 0.0
O339 O 0.5005 0.97782 0.78271 0.0
H340 H 0.49817 0.97228 0.6734 0.0
H341 H 0.54847 0.99704 0.70636 0.0
O342 O 0.48833 0.99352 0.8393 0.0
O343 O 0.51794 0.01508 0.8403 0.0
O344 O 0.53037 0.9988 0.78531 0.0
C345 C 0.53211 0.00598 0.82442 0.0
H346 H 0.47343 0.06323 0.91618 0.0
H347 H 0.52565 0.96088 0.61626 0.0
Co348 Co 0.51898 0.50618 0.76885 0.0
C349 C 0.50057 0.47398 0.80303 0.0
Co350 Co 0.48929 0.50502 0.74257 0.0
C351 C 0.55078 0.51667 0.82557 0.0
C352 C 0.55742 0.49239 0.79024 0.0
N353 N 0.54363 0.50585 0.79407 0.0
N354 N 0.56829 0.51025 0.84205 0.0
C355 C 0.57253 0.49505 0.81956 0.0
H356 H 0.54285 0.52832 0.83853 0.0
H357 H 0.5562 0.48076 0.7695 0.0
C358 C 0.50758 0.5373 0.70878 0.0
N359 N 0.46465 0.5051 0.7177 0.0
C360 C 0.45731 0.49323 0.68933 0.0
C361 C 0.45044 0.5181 0.72194 0.0
N362 N 0.43912 0.49833 0.67586 0.0
C363 C 0.43474 0.51393 0.69656 0.0
C364 C 0.49155 0.52193 0.82606 0.0
O365 O 0.52181 0.52986 0.73352 0.0
O366 O 0.49239 0.52858 0.70751 0.0
O367 O 0.48001 0.5171 0.79532 0.0
O368 O 0.50928 0.51811 0.8217 0.0
O369 O 0.48641 0.48149 0.77827 0.0
H370 H 0.45155 0.53017 0.74116 0.0
H371 H 0.46518 0.48115 0.67844 0.0
O372 O 0.51587 0.48253 0.80377 0.0
O373 O 0.52828 0.49426 0.71556 0.0
O374 O 0.49891 0.49294 0.69013 0.0
C375 C 0.51664 0.48927 0.68523 0.0
H376 H 0.58539 0.48612 0.82513 0.0
H377 H 0.42136 0.52212 0.69222 0.0
Co378 Co 0.0019 0.52213 0.77034 0.0
C379 C 0.02977 0.49448 0.80298 0.0
Co380 Co 0.99509 0.49359 0.75693 0.0
C381 C 0.99927 0.55546 0.81931 0.0
C382 C 0.02306 0.55518 0.77184 0.0
N383 N 0.00784 0.54554 0.78629 0.0
N384 N 0.00864 0.5707 0.82651 0.0
C385 C 0.02354 0.57065 0.7963 0.0
H386 H 0.98664 0.55135 0.83879 0.0
H387 H 0.03369 0.55082 0.74688 0.0
C388 C 0.96725 0.5213 0.72423 0.0
N389 N 0.98895 0.47029 0.74093 0.0
C390 C 0.99751 0.45997 0.70869 0.0
C391 C 0.97281 0.46173 0.7529 0.0
N392 N 0.98715 0.4456 0.69938 0.0
C393 C 0.97166 0.44661 0.7275 0.0
C394 C 0.98133 0.50268 0.84325 0.0
O395 O 0.97856 0.53229 0.74055 0.0
O396 O 0.97195 0.50402 0.72763 0.0
O397 O 0.98234 0.48952 0.8167 0.0
O398 O 0.98917 0.51766 0.82959 0.0
O399 O 0.01851 0.48344 0.78656 0.0
H400 H 0.96196 0.46677 0.77639 0.0
H401 H 0.01042 0.46362 0.68984 0.0
O402 O 0.025 0.51175 0.79977 0.0
O403 O 0.01474 0.52614 0.71058 0.0
O404 O 0.00771 0.49805 0.69763 0.0
C405 C 0.01558 0.513 0.68395 0.0
H406 H 0.03461 0.58049 0.794 0.0
H407 H 0.95996 0.4375 0.72826 0.0
C408 C 0.14543 0.05376 0.38674 0.0
C409 C 0.15366 0.07079 0.39015 0.0
C410 C 0.12997 0.04857 0.4157 0.0
C411 C 0.09389 0.06646 0.5008 0.0
H412 H 0.09602 0.01494 0.55559 0.0
C413 C 0.0531 0.04004 0.67262 0.0
C414 C 0.04263 0.02428 0.66917 0.0
C415 C 0.06572 0.04591 0.63613 0.0
C416 C 0.09517 0.02934 0.54032 0.0
H417 H 0.15103 0.09637 0.42387 0.0
H418 H 0.1248 0.08712 0.47545 0.0
H419 H 0.11875 0.02506 0.49397 0.0
H420 H 0.03742 0.00214 0.62522 0.0
H421 H 0.05976 0.01217 0.56228 0.0
H422 H 0.07072 0.07073 0.54892 0.0
C423 C 0.13003 0.07773 0.45025 0.0
C424 C 0.1081 0.03515 0.50465 0.0
C425 C 0.1453 0.08298 0.42098 0.0
C426 C 0.04527 0.01435 0.62894 0.0
C427 C 0.0581 0.02004 0.59295 0.0
C428 C 0.08115 0.06068 0.53701 0.0
C429 C 0.12246 0.06025 0.44902 0.0
C430 C 0.10773 0.05383 0.48452 0.0
C431 C 0.06834 0.03595 0.59597 0.0
C432 C 0.08173 0.04208 0.55727 0.0
H433 H 0.15151 0.044 0.36348 0.0
H434 H 0.12424 0.03519 0.41282 0.0
H435 H 0.09287 0.08086 0.48565 0.0
H436 H 0.0513 0.04801 0.70307 0.0
H437 H 0.07356 0.05815 0.6395 0.0
C438 C 0.51155 0.18415 0.46187 0.0
C439 C 0.5284 0.18704 0.43589 0.0
C440 C 0.50995 0.1681 0.49382 0.0
C441 C 0.52738 0.11993 0.52052 0.0
H442 H 0.51362 0.12571 0.6525 0.0
C443 C 0.52786 0.05649 0.66411 0.0
C444 C 0.51391 0.05629 0.69998 0.0
C445 C 0.53043 0.07263 0.63319 0.0
C446 C 0.51717 0.12374 0.61568 0.0
H447 H 0.55657 0.17525 0.42178 0.0
H448 H 0.55353 0.14682 0.47663 0.0
H449 H 0.5156 0.1531 0.59438 0.0
H450 H 0.49174 0.07287 0.7318 0.0
H451 H 0.49559 0.10075 0.67684 0.0
H452 H 0.52824 0.09065 0.54071 0.0
C453 C 0.54168 0.1571 0.47263 0.0
C454 C 0.51839 0.13949 0.58246 0.0
C455 C 0.54343 0.17334 0.44142 0.0
C456 C 0.50276 0.07265 0.7048 0.0
C457 C 0.50505 0.0887 0.67328 0.0
C458 C 0.5258 0.10415 0.55345 0.0
C459 C 0.52503 0.15447 0.49966 0.0
C460 C 0.52355 0.13773 0.53463 0.0
C461 C 0.51882 0.0889 0.63667 0.0
C462 C 0.52072 0.10579 0.60163 0.0
H463 H 0.49983 0.19459 0.45858 0.0
H464 H 0.49693 0.16633 0.51406 0.0
H465 H 0.53124 0.1182 0.4837 0.0
H466 H 0.53677 0.04411 0.65975 0.0
H467 H 0.54151 0.07227 0.60646 0.0
C468 C 0.33553 0.44695 0.36562 0.0
C469 C 0.31654 0.44887 0.38093 0.0
C470 C 0.35063 0.45011 0.39624 0.0
C471 C 0.36123 0.45289 0.52571 0.0
H472 H 0.40388 0.48121 0.4791 0.0
C473 C 0.40726 0.49051 0.64988 0.0
C474 C 0.4271 0.48979 0.64371 0.0
C475 C 0.39538 0.4832 0.61741 0.0
C476 C 0.3922 0.47304 0.49252 0.0
H477 H 0.29854 0.45665 0.43925 0.0
H478 H 0.32456 0.4622 0.49193 0.0
H479 H 0.38015 0.47293 0.42191 0.0
H480 H 0.45009 0.48077 0.59868 0.0
H481 H 0.42922 0.46805 0.54137 0.0
H482 H 0.37288 0.45351 0.59633 0.0
C483 C 0.32796 0.45766 0.45713 0.0
C484 C 0.37862 0.46828 0.45977 0.0
C485 C 0.31299 0.4545 0.4268 0.0
C486 C 0.43486 0.48137 0.60455 0.0
C487 C 0.42292 0.47425 0.57157 0.0
C488 C 0.37469 0.45774 0.55832 0.0
C489 C 0.34699 0.4553 0.44262 0.0
C490 C 0.3627 0.45855 0.47615 0.0
C491 C 0.40304 0.47514 0.57764 0.0
C492 C 0.39008 0.46822 0.54225 0.0
H493 H 0.33871 0.44265 0.33046 0.0
H494 H 0.36514 0.44816 0.38396 0.0
H495 H 0.34944 0.44497 0.5395 0.0
H496 H 0.4009 0.49678 0.67987 0.0
H497 H 0.38011 0.48426 0.62283 0.0
C498 C 0.99334 0.34504 0.37411 0.0
C499 C 0.01074 0.3348 0.37016 0.0
C500 C 0.99148 0.35846 0.40641 0.0
C501 C 0.01756 0.38815 0.48002 0.0
H502 H 0.97447 0.3823 0.56553 0.0
C503 C 0.00895 0.42801 0.64895 0.0
C504 C 0.99037 0.43359 0.66192 0.0
C505 C 0.01194 0.4165 0.61215 0.0
C506 C 0.98642 0.38441 0.54157 0.0
H507 H 0.04013 0.33139 0.39486 0.0
H508 H 0.03693 0.35509 0.45087 0.0
H509 H 0.97866 0.36253 0.50105 0.0
H510 H 0.96041 0.43205 0.64514 0.0
H511 H 0.96552 0.41251 0.58063 0.0
H512 H 0.02517 0.41026 0.52 0.0
C513 C 0.02472 0.35262 0.42917 0.0
C514 C 0.98882 0.373 0.5046 0.0
C515 C 0.02652 0.33902 0.39727 0.0
C516 C 0.97488 0.42764 0.63685 0.0
C517 C 0.97785 0.41637 0.59977 0.0
C518 C 0.01502 0.39977 0.51671 0.0
C519 C 0.00702 0.3621 0.4351 0.0
C520 C 0.0044 0.37473 0.47338 0.0
C521 C 0.99641 0.41049 0.58705 0.0
C522 C 0.99938 0.39807 0.54803 0.0
H523 H 0.98087 0.342 0.35412 0.0
H524 H 0.97771 0.36569 0.40985 0.0
H525 H 0.02967 0.38983 0.45638 0.0
H526 H 0.02115 0.43232 0.66779 0.0
H527 H 0.02643 0.4121 0.60396 0.0
C528 C 0.8578 0.96859 0.14075 0.0
C529 C 0.849 0.95165 0.14021 0.0
C530 C 0.87311 0.97281 0.11025 0.0
C531 C 0.89127 0.96313 0.99338 0.0
H532 H 0.93802 0.9836 0.03186 0.0
C533 C 0.95217 0.97732 0.85837 0.0
C534 C 0.96301 0.99274 0.86284 0.0
C535 C 0.93896 0.97177 0.89369 0.0
C536 C 0.92493 0.97817 0.02024 0.0
H537 H 0.85049 0.9253 0.10981 0.0
H538 H 0.87678 0.93292 0.05592 0.0
H539 H 0.91415 0.975 0.09229 0.0
H540 H 0.96828 0.01463 0.9074 0.0
H541 H 0.94477 0.00551 0.96775 0.0
H542 H 0.90148 0.96685 0.92131 0.0
C543 C 0.87166 0.94299 0.07951 0.0
C544 C 0.91132 0.97315 0.05503 0.0
C545 C 0.85657 0.93867 0.11033 0.0
C546 C 0.96023 0.0026 0.90307 0.0
C547 C 0.94683 0.99725 0.93796 0.0
C548 C 0.9047 0.96841 0.95851 0.0
C549 C 0.87979 0.96026 0.07835 0.0
C550 C 0.8944 0.96551 0.04193 0.0
C551 C 0.93605 0.9817 0.93397 0.0
C552 C 0.92176 0.97597 0.97139 0.0
H553 H 0.85228 0.97898 0.16293 0.0
H554 H 0.87911 0.98626 0.10997 0.0
H555 H 0.8782 0.95753 0.98217 0.0
H556 H 0.95412 0.96933 0.828 0.0
H557 H 0.93124 0.95953 0.88964 0.0
C558 C 0.48535 0.83478 0.09923 0.0
C559 C 0.46974 0.82403 0.09217 0.0
C560 C 0.4872 0.85185 0.07144 0.0
C561 C 0.47158 0.87732 0.95495 0.0
H562 H 0.48993 0.9201 0.00902 0.0
C563 C 0.49342 0.94316 0.83668 0.0
C564 C 0.48825 0.96045 0.8527 0.0
C565 C 0.49068 0.92665 0.86601 0.0
C566 C 0.48466 0.90832 0.99341 0.0
H567 H 0.44332 0.82329 0.0522 0.0
H568 H 0.44652 0.85295 0.004 0.0
H569 H 0.48579 0.89142 0.06128 0.0
H570 H 0.47578 0.97387 0.91186 0.0
H571 H 0.47087 0.9451 0.96266 0.0
H572 H 0.47022 0.89424 0.88723 0.0
C573 C 0.45758 0.84803 0.03015 0.0
C574 C 0.48248 0.89182 0.02329 0.0
C575 C 0.45573 0.83103 0.05786 0.0
C576 C 0.47999 0.96081 0.89839 0.0
C577 C 0.47729 0.94431 0.92772 0.0
C578 C 0.47382 0.89378 0.92507 0.0
C579 C 0.47347 0.85853 0.03603 0.0
C580 C 0.47587 0.87613 0.00445 0.0
C581 C 0.48275 0.92703 0.91208 0.0
C582 C 0.48035 0.9095 0.94392 0.0
H583 H 0.49647 0.82973 0.12505 0.0
H584 H 0.49969 0.85953 0.07666 0.0
H585 H 0.46668 0.86543 0.93911 0.0
H586 H 0.49988 0.94238 0.80177 0.0
H587 H 0.4952 0.91358 0.85301 0.0
C588 C 0.66844 0.57728 0.12949 0.0
C589 C 0.67881 0.56411 0.16155 0.0
C590 C 0.65423 0.57179 0.09971 0.0
C591 C 0.64297 0.5315 0.03997 0.0
H592 H 0.59411 0.55781 0.00988 0.0
C593 C 0.58989 0.50386 0.91235 0.0
C594 C 0.57913 0.51665 0.8803 0.0
C595 C 0.60064 0.50987 0.94916 0.0
C596 C 0.6078 0.55044 0.0174 0.0
H597 H 0.68181 0.53498 0.18898 0.0
H598 H 0.657 0.52539 0.13704 0.0
H599 H 0.61482 0.56795 0.07139 0.0
H600 H 0.57098 0.54577 0.86206 0.0
H601 H 0.59028 0.55647 0.92563 0.0
H602 H 0.63652 0.5144 0.98526 0.0
C603 C 0.65992 0.53996 0.13485 0.0
C604 C 0.6196 0.5562 0.05285 0.0
C605 C 0.67399 0.54548 0.16496 0.0
C606 C 0.57912 0.53562 0.88635 0.0
C607 C 0.59012 0.5417 0.92294 0.0
C608 C 0.63133 0.52588 0.00428 0.0
C609 C 0.65025 0.55297 0.10102 0.0
C610 C 0.63727 0.54671 0.06465 0.0
C611 C 0.60116 0.52889 0.95463 0.0
C612 C 0.61353 0.53519 0.99258 0.0
H613 H 0.67178 0.59176 0.12629 0.0
H614 H 0.64706 0.58212 0.07394 0.0
H615 H 0.6567 0.52416 0.04745 0.0
H616 H 0.58981 0.48911 0.90938 0.0
H617 H 0.60848 0.49952 0.97355 0.0
C618 C 0.9869 0.68057 0.13065 0.0
C619 C 0.00378 0.6807 0.15772 0.0
C620 C 0.98505 0.6676 0.09751 0.0
C621 C 0.00509 0.62288 0.06163 0.0
H622 H 0.98792 0.64293 0.93347 0.0
C623 C 0.99696 0.57652 0.90738 0.0
C624 C 0.00509 0.583 0.86322 0.0
C625 C 0.99483 0.58805 0.94429 0.0
C626 C 0.99273 0.63712 0.96908 0.0
H627 H 0.03155 0.66674 0.1731 0.0
H628 H 0.02828 0.64401 0.11561 0.0
H629 H 0.9877 0.66309 0.99808 0.0
H630 H 0.01674 0.60687 0.82276 0.0
H631 H 0.01298 0.62704 0.88709 0.0
H632 H 0.01047 0.597 0.03238 0.0
C633 C 0.01648 0.65395 0.11985 0.0
C634 C 0.99243 0.64862 0.00621 0.0
C635 C 0.01841 0.66703 0.15258 0.0
C636 C 0.01056 0.60143 0.85644 0.0
C637 C 0.00826 0.61302 0.89316 0.0
C638 C 0.00521 0.61133 0.0246 0.0
C639 C 0.99996 0.65435 0.09112 0.0
C640 C 0.99884 0.6417 0.05278 0.0
C641 C 1.0006 0.60639 0.93774 0.0
C642 C 0.99928 0.61838 0.97774 0.0
H643 H 0.97545 0.69102 0.13349 0.0
H644 H 0.97207 0.66814 0.07624 0.0
H645 H 0.01001 0.61711 0.09717 0.0
H646 H 0.99278 0.56234 0.91405 0.0
H647 H 0.98874 0.58257 0.97808 0.0
C648 C 0.98163 0.16698 0.45952 0.0
C649 C 0.96797 0.18183 0.45045 0.0
C650 C 0.97908 0.15303 0.49682 0.0
C651 C 0.97523 0.13434 0.59894 0.0
H652 H 0.93237 0.10285 0.5989 0.0
C653 C 0.97348 0.07061 0.73495 0.0
C654 C 0.97215 0.0542 0.71292 0.0
C655 C 0.96786 0.08777 0.71011 0.0
C656 C 0.94428 0.11167 0.59963 0.0
H657 H 0.94086 0.19373 0.47251 0.0
H658 H 0.93612 0.16876 0.53768 0.0
H659 H 0.93324 0.13057 0.54022 0.0
H660 H 0.96221 0.04272 0.64944 0.0
H661 H 0.95257 0.07278 0.60579 0.0
H662 H 0.98674 0.11532 0.6567 0.0
C663 C 0.94884 0.16816 0.51597 0.0
C664 C 0.94472 0.12752 0.56635 0.0
C665 C 0.95157 0.18239 0.47903 0.0
C666 C 0.96348 0.05514 0.66727 0.0
C667 C 0.95788 0.07236 0.64235 0.0
C668 C 0.97469 0.11872 0.63244 0.0
C669 C 0.9627 0.1535 0.52537 0.0
C670 C 0.9605 0.13861 0.56493 0.0
C671 C 0.96083 0.08887 0.66274 0.0
C672 C 0.95947 0.10694 0.63235 0.0
H673 H 0.99446 0.16634 0.4382 0.0
H674 H 0.98989 0.14176 0.50326 0.0
H675 H 0.98751 0.14276 0.59851 0.0
H676 H 0.97983 0.07033 0.77042 0.0
H677 H 0.96998 0.10027 0.72698 0.0
C678 C 0.32158 0.04877 0.49893 0.0
C679 C 0.32198 0.06602 0.47086 0.0
C680 C 0.33705 0.04209 0.52849 0.0
C681 C 0.37877 0.05678 0.59032 0.0
H682 H 0.39807 0.00574 0.58706 0.0
C683 C 0.43646 0.02346 0.72219 0.0
C684 C 0.45203 0.01413 0.70202 0.0
C685 C 0.41996 0.02861 0.69514 0.0
C686 C 0.39285 0.02002 0.58817 0.0
H687 H 0.33858 0.09004 0.45261 0.0
H688 H 0.36567 0.07838 0.50445 0.0
H689 H 0.37038 0.01772 0.53753 0.0
H690 H 0.4622 0.00212 0.6384 0.0
H691 H 0.43317 0.01115 0.59094 0.0
H692 H 0.4013 0.05919 0.64046 0.0
C693 C 0.35338 0.07004 0.50355 0.0
C694 C 0.37694 0.02682 0.56023 0.0
C695 C 0.33796 0.07666 0.47371 0.0
C696 C 0.45043 0.00931 0.65488 0.0
C697 C 0.43383 0.01444 0.62778 0.0
C698 C 0.39456 0.04995 0.61847 0.0
C699 C 0.35315 0.0526 0.53078 0.0
C700 C 0.36979 0.04528 0.56097 0.0
C701 C 0.41863 0.0245 0.64738 0.0
C702 C 0.40176 0.03152 0.61765 0.0
H703 H 0.30953 0.04018 0.49702 0.0
H704 H 0.33644 0.02869 0.5495 0.0
H705 H 0.37348 0.07102 0.59179 0.0
H706 H 0.43714 0.02725 0.75858 0.0
H707 H 0.40832 0.03606 0.71142 0.0
C708 C 0.53842 0.35531 0.48072 0.0
C709 C 0.55418 0.35095 0.45242 0.0
C710 C 0.53717 0.37194 0.50157 0.0
C711 C 0.5604 0.40586 0.55456 0.0
H712 H 0.52048 0.44159 0.50234 0.0
C713 C 0.54288 0.47303 0.64245 0.0
C714 C 0.52334 0.47749 0.64801 0.0
C715 C 0.54896 0.45982 0.61199 0.0
C716 C 0.53162 0.43176 0.51757 0.0
H717 H 0.58129 0.36014 0.42508 0.0
H718 H 0.5793 0.38921 0.46325 0.0
H719 H 0.52698 0.41304 0.46487 0.0
H720 H 0.4949 0.47218 0.62435 0.0
H721 H 0.50534 0.44894 0.57276 0.0
H722 H 0.5643 0.42379 0.60924 0.0
C723 C 0.56791 0.37975 0.46851 0.0
C724 C 0.5354 0.41553 0.49585 0.0
C725 C 0.56902 0.36322 0.44682 0.0
C726 C 0.51007 0.46912 0.62086 0.0
C727 C 0.51611 0.45582 0.59089 0.0
C728 C 0.55642 0.42198 0.57688 0.0
C729 C 0.55178 0.38434 0.49515 0.0
C730 C 0.54956 0.40235 0.51474 0.0
C731 C 0.5356 0.4507 0.58679 0.0
C732 C 0.54166 0.43493 0.55931 0.0
H733 H 0.52668 0.34622 0.48503 0.0
H734 H 0.52463 0.3753 0.5221 0.0
H735 H 0.57132 0.39575 0.5697 0.0
H736 H 0.55348 0.47933 0.6627 0.0
H737 H 0.56409 0.45649 0.60903 0.0
C738 C 0.1385 0.49205 0.3819 0.0
C739 C 0.15178 0.47803 0.40162 0.0
C740 C 0.12306 0.49786 0.40902 0.0
C741 C 0.09361 0.48117 0.51079 0.0
H742 H 0.07691 0.53302 0.5119 0.0
C743 C 0.04254 0.52585 0.63497 0.0
C744 C 0.02754 0.5138 0.64061 0.0
C745 C 0.05634 0.52364 0.59976 0.0
C746 C 0.08143 0.5185 0.51187 0.0
H747 H 0.15942 0.45927 0.46535 0.0
H748 H 0.1326 0.46955 0.51287 0.0
H749 H 0.1048 0.52465 0.46471 0.0
H750 H 0.01414 0.49124 0.61103 0.0
H751 H 0.03792 0.48768 0.54917 0.0
H752 H 0.07068 0.47494 0.5586 0.0
C753 C 0.13404 0.47594 0.4763 0.0
C754 C 0.09729 0.51371 0.48468 0.0
C755 C 0.1495 0.47018 0.44927 0.0
C756 C 0.02569 0.50057 0.60794 0.0
C757 C 0.03937 0.49846 0.5727 0.0
C758 C 0.07779 0.48594 0.53769 0.0
C759 C 0.12056 0.4897 0.45629 0.0
C760 C 0.10361 0.49499 0.48423 0.0
C761 C 0.05528 0.50941 0.56959 0.0
C762 C 0.07154 0.50464 0.53868 0.0
H763 H 0.14003 0.49852 0.34544 0.0
H764 H 0.11284 0.50842 0.39259 0.0
H765 H 0.09798 0.46662 0.51067 0.0
H766 H 0.04433 0.53614 0.65973 0.0
H767 H 0.06846 0.53227 0.59827 0.0
C768 C 0.02767 0.84991 0.07697 0.0
C769 C 0.0425 0.8364 0.08891 0.0
C770 C 0.02965 0.86376 0.03906 0.0
C771 C 0.06347 0.89091 0.96956 0.0
H772 H 0.02104 0.90089 0.87962 0.0
C773 C 0.03225 0.94603 0.79948 0.0
C774 C 0.03388 0.96268 0.82024 0.0
C775 C 0.03824 0.92906 0.82484 0.0
C776 C 0.03322 0.89813 0.9037 0.0
H777 H 0.07112 0.82685 0.07111 0.0
H778 H 0.07473 0.85154 0.00468 0.0
H779 H 0.02139 0.8738 0.939 0.0
H780 H 0.04462 0.97475 0.88198 0.0
H781 H 0.0548 0.94509 0.92658 0.0
H782 H 0.07492 0.91574 0.93523 0.0
C783 C 0.06157 0.85121 0.02476 0.0
C784 C 0.0333 0.88271 0.93802 0.0
C785 C 0.05948 0.83712 0.06246 0.0
C786 C 0.04309 0.96215 0.86511 0.0
C787 C 0.04903 0.94514 0.89058 0.0
C788 C 0.06332 0.90651 0.93532 0.0
C789 C 0.04655 0.8645 0.01246 0.0
C790 C 0.04814 0.87924 0.97206 0.0
C791 C 0.04591 0.92839 0.87153 0.0
C792 C 0.04795 0.9105 0.90277 0.0
H793 H 0.01435 0.84956 0.0964 0.0
H794 H 0.01793 0.87397 0.03061 0.0
H795 H 0.07506 0.88851 0.99555 0.0
H796 H 0.02544 0.94599 0.76465 0.0
H797 H 0.03598 0.91639 0.80886 0.0
C798 C 0.68043 0.96578 0.0521 0.0
C799 C 0.67955 0.94991 0.08545 0.0
C800 C 0.66461 0.97221 0.02354 0.0
C801 C 0.62035 0.95796 0.97354 0.0
H802 H 0.60513 0.01053 0.96331 0.0
C803 C 0.55193 0.00833 0.89823 0.0
C804 C 0.54999 0.00218 0.85257 0.0
C805 C 0.56813 0.00281 0.92657 0.0
C806 C 0.60919 0.99582 0.96605 0.0
H807 H 0.66168 0.92805 0.11426 0.0
H808 H 0.63397 0.93923 0.0638 0.0
H809 H 0.63272 0.99854 0.01327 0.0
H810 H 0.5639 0.98613 0.79996 0.0
H811 H 0.59198 0.97658 0.84938 0.0
H812 H 0.59689 0.95522 0.92632 0.0
C813 C 0.64691 0.94668 0.05996 0.0
C814 C 0.62502 0.98899 0.99424 0.0
C815 C 0.66269 0.94034 0.08891 0.0
C816 C 0.56485 0.99102 0.83512 0.0
C817 C 0.58091 0.98543 0.86349 0.0
C818 C 0.60466 0.96481 0.945 0.0
C819 C 0.64766 0.96282 0.0275 0.0
C820 C 0.63076 0.97001 0.99812 0.0
C821 C 0.58254 0.99097 0.90979 0.0
C822 C 0.59898 0.98381 0.94085 0.0
H823 H 0.69316 0.97357 0.04911 0.0
H824 H 0.66563 0.98457 0.99841 0.0
H825 H 0.62453 0.94329 0.97576 0.0
H826 H 0.54071 0.01693 0.91262 0.0
H827 H 0.56907 0.00725 0.96224 0.0
C828 C 0.45975 0.65919 0.0271 0.0
C829 C 0.44918 0.65826 0.0698 0.0
C830 C 0.46246 0.64363 0.00208 0.0
C831 C 0.4457 0.59673 0.99 0.0
H832 H 0.49687 0.58851 0.94213 0.0
C833 C 0.4973 0.53848 0.89827 0.0
C834 C 0.48472 0.5338 0.86293 0.0
C835 C 0.49178 0.55198 0.92824 0.0
C836 C 0.48258 0.5904 0.95586 0.0
H837 H 0.43216 0.64051 0.118 0.0
H838 H 0.43738 0.61318 0.07506 0.0
H839 H 0.48906 0.61576 0.98293 0.0
H840 H 0.45611 0.53886 0.83308 0.0
H841 H 0.44664 0.56268 0.88459 0.0
H842 H 0.43941 0.57105 0.96371 0.0
C843 C 0.44347 0.626 0.06075 0.0
C844 C 0.478 0.60624 0.97852 0.0
C845 C 0.44065 0.64162 0.08565 0.0
C846 C 0.46615 0.54214 0.85999 0.0
C847 C 0.46068 0.55577 0.8897 0.0
C848 C 0.45032 0.58079 0.96743 0.0
C849 C 0.45479 0.62671 0.01931 0.0
C850 C 0.45947 0.60971 0.99547 0.0
C851 C 0.47363 0.56124 0.9232 0.0
C852 C 0.46881 0.57749 0.94988 0.0
H853 H 0.46667 0.6717 0.01398 0.0
H854 H 0.47092 0.64477 0.96969 0.0
H855 H 0.43127 0.59902 0.00248 0.0
H856 H 0.51166 0.53216 0.90175 0.0
H857 H 0.50195 0.55555 0.95447 0.0
C858 C 0.84415 0.53159 0.09157 0.0
C859 C 0.84626 0.54821 0.11221 0.0
C860 C 0.85938 0.52336 0.06803 0.0
C861 C 0.91185 0.52249 0.05855 0.0
H862 H 0.90322 0.50486 0.93463 0.0
C863 C 0.97002 0.51565 0.91769 0.0
C864 C 0.96916 0.50185 0.88626 0.0
C865 C 0.95611 0.51743 0.95258 0.0
C866 C 0.90584 0.50931 0.9697 0.0
H867 H 0.86585 0.56946 0.1232 0.0
H868 H 0.89239 0.55516 0.08195 0.0
H869 H 0.87621 0.51621 0.97972 0.0
H870 H 0.9539 0.47821 0.86904 0.0
H871 H 0.92956 0.48126 0.93049 0.0
H872 H 0.94154 0.51609 0.04785 0.0
C873 C 0.87908 0.54829 0.08483 0.0
C874 C 0.89036 0.51589 0.99545 0.0
C875 C 0.86386 0.55653 0.10829 0.0
C876 C 0.95491 0.489 0.89272 0.0
C877 C 0.9409 0.49084 0.92759 0.0
C878 C 0.92733 0.5159 0.03284 0.0
C879 C 0.87704 0.53156 0.06472 0.0
C880 C 0.89325 0.52296 0.0396 0.0
C881 C 0.94102 0.50546 0.95677 0.0
C882 C 0.92453 0.50964 0.98761 0.0
H883 H 0.83087 0.52468 0.09466 0.0
H884 H 0.85743 0.5104 0.05321 0.0
H885 H 0.91447 0.5275 0.09297 0.0
H886 H 0.9809 0.5257 0.91378 0.0
H887 H 0.95657 0.52892 0.97419 0.0
C888 C 0.0284 0.19968 0.0564 0.0
C889 C 0.01096 0.2103 0.05486 0.0
C890 C 0.03105 0.18486 0.0284 0.0
C891 C 0.00254 0.15072 0.98001 0.0
H892 H 0.04899 0.13553 0.91672 0.0
C893 C 0.01978 0.07535 0.94254 0.0
C894 C 0.02542 0.07232 0.89569 0.0
C895 C 0.01843 0.09326 0.95661 0.0
C896 C 0.03589 0.13969 0.93395 0.0
H897 H 0.98336 0.21468 0.01917 0.0
H898 H 0.98792 0.18871 0.97096 0.0
H899 H 0.04626 0.1659 0.94823 0.0
H900 H 0.03441 0.0857 0.82714 0.0
H901 H 0.0324 0.11722 0.85221 0.0
H902 H 0.99236 0.12439 0.96722 0.0
C903 C 0.99941 0.19168 0.99439 0.0
C904 C 0.03437 0.15699 0.95218 0.0
C905 C 0.99681 0.20656 0.02204 0.0
C906 C 0.02996 0.08765 0.86338 0.0
C907 C 0.02891 0.10562 0.87778 0.0
C908 C 0.00417 0.13339 0.96252 0.0
C909 C 0.0163 0.18027 0.99847 0.0
C910 C 0.0177 0.16263 0.97568 0.0
C911 C 0.02291 0.1086 0.92441 0.0
C912 C 0.02092 0.12759 0.93977 0.0
H913 H 0.03955 0.20202 0.08153 0.0
H914 H 0.0442 0.17627 0.03251 0.0
H915 H 0.9896 0.15453 0.99843 0.0
H916 H 0.01595 0.06389 0.96809 0.0
H917 H 0.0139 0.09512 0.99287 0.0
C918 C 0.30069 0.05379 0.07911 0.0
C919 C 0.29437 0.07248 0.08039 0.0
C920 C 0.3167 0.04912 0.05231 0.0
C921 C 0.35143 0.06853 0.9612 0.0
H922 H 0.38606 0.03048 0.02706 0.0
C923 C 0.43175 0.06102 0.91762 0.0
C924 C 0.43957 0.04301 0.91346 0.0
C925 C 0.41316 0.06377 0.93427 0.0
C926 C 0.37646 0.041 0.00794 0.0
H927 H 0.29907 0.10075 0.05096 0.0
H928 H 0.32726 0.09274 0.00589 0.0
H929 H 0.35462 0.03656 0.06022 0.0
H930 H 0.43415 0.01376 0.92428 0.0
H931 H 0.40171 0.01855 0.95406 0.0
H932 H 0.37375 0.07337 0.90998 0.0
C933 C 0.31983 0.08159 0.02517 0.0
C934 C 0.35835 0.04444 0.02677 0.0
C935 C 0.30371 0.08624 0.05155 0.0
C936 C 0.42846 0.0278 0.92684 0.0
C937 C 0.40995 0.03053 0.94411 0.0
C938 C 0.36965 0.06522 0.94271 0.0
C939 C 0.32692 0.06301 0.02641 0.0
C940 C 0.34561 0.05837 0.00393 0.0
C941 C 0.40206 0.04856 0.94773 0.0
C942 C 0.38242 0.05153 0.96612 0.0
H943 H 0.29398 0.04279 0.101 0.0
H944 H 0.32142 0.03462 0.05322 0.0
H945 H 0.34196 0.07913 0.94207 0.0
H946 H 0.43986 0.07303 0.90709 0.0
H947 H 0.40753 0.07782 0.93711 0.0
C948 C 0.48687 0.33007 0.07314 0.0
C949 C 0.50508 0.32237 0.08725 0.0
C950 C 0.48468 0.34429 0.03519 0.0
C951 C 0.51093 0.37032 0.93525 0.0
H952 H 0.47483 0.41068 0.95892 0.0
C953 C 0.51639 0.44552 0.84806 0.0
C954 C 0.49958 0.45537 0.83026 0.0
C955 C 0.51568 0.42801 0.87399 0.0
C956 C 0.48478 0.39943 0.95142 0.0
H957 H 0.53523 0.3231 0.07161 0.0
H958 H 0.53154 0.34806 0.00625 0.0
H959 H 0.47602 0.38196 0.01291 0.0
H960 H 0.46883 0.4545 0.82559 0.0
H961 H 0.46759 0.42393 0.87194 0.0
H962 H 0.52023 0.38829 0.87494 0.0
C963 C 0.51882 0.34292 0.02355 0.0
C964 C 0.48544 0.38288 0.98227 0.0
C965 C 0.52098 0.32856 0.06112 0.0
C966 C 0.48203 0.44727 0.83886 0.0
C967 C 0.4813 0.42981 0.86547 0.0
C968 C 0.51041 0.38695 0.90476 0.0
C969 C 0.50069 0.35132 0.01084 0.0
C970 C 0.49873 0.36818 0.97507 0.0
C971 C 0.49814 0.42 0.88327 0.0
C972 C 0.49752 0.40178 0.91295 0.0
H973 H 0.47434 0.32545 0.09242 0.0
H974 H 0.47045 0.35008 0.02576 0.0
H975 H 0.52108 0.35921 0.9279 0.0
H976 H 0.53016 0.45133 0.84192 0.0
H977 H 0.52887 0.42089 0.88773 0.0
C978 C 0.18131 0.46587 0.01425 0.0
C979 C 0.18751 0.44748 0.03049 0.0
C980 C 0.16608 0.46956 0.98165 0.0
C981 C 0.12296 0.44816 0.94432 0.0
H982 H 0.11881 0.49135 0.8495 0.0
C983 C 0.05432 0.46864 0.82932 0.0
C984 C 0.04852 0.48763 0.82464 0.0
C985 C 0.07221 0.4625 0.84927 0.0
C986 C 0.11971 0.47928 0.876 0.0
H987 H 0.18339 0.41858 0.02228 0.0
H988 H 0.15683 0.42504 0.96518 0.0
H989 H 0.1491 0.48281 0.89117 0.0
H990 H 0.05703 0.51502 0.83735 0.0
H991 H 0.08791 0.50433 0.87228 0.0
H992 H 0.09344 0.44488 0.92986 0.0
C993 C 0.16354 0.4366 0.97848 0.0
C994 C 0.13709 0.47437 0.89985 0.0
C995 C 0.1788 0.4329 0.01106 0.0
C996 C 0.061 0.50029 0.84029 0.0
C997 C 0.07883 0.49418 0.85999 0.0
C998 C 0.10557 0.45307 0.92041 0.0
C999 C 0.15664 0.45497 0.96441 0.0
C1000 C 0.13884 0.45896 0.935 0.0
C1001 C 0.0847 0.47523 0.86468 0.0
C1002 C 0.10363 0.46891 0.88668 0.0
H1003 H 0.18741 0.47745 0.02896 0.0
H1004 H 0.16105 0.48387 0.97208 0.0
H1005 H 0.1237 0.43635 0.97162 0.0
H1006 H 0.04508 0.45853 0.81749 0.0
H1007 H 0.07634 0.44781 0.85213 0.0
C1008 C 0.9707 0.81374 0.48312 0.0
C1009 C 0.98861 0.80919 0.46396 0.0
C1010 C 0.9684 0.82831 0.51208 0.0
C1011 C 0.99584 0.86082 0.57823 0.0
H1012 H 0.94958 0.89241 0.55785 0.0
C1013 C 0.98558 0.92875 0.66869 0.0
C1014 C 0.97698 0.94425 0.64043 0.0
C1015 C 0.98533 0.91094 0.65369 0.0
C1016 C 0.96267 0.88385 0.56378 0.0
H1017 H 0.01816 0.81633 0.46046 0.0
H1018 H 0.01415 0.84184 0.50959 0.0
H1019 H 0.95294 0.86392 0.5197 0.0
H1020 H 0.96047 0.95269 0.57511 0.0
H1021 H 0.96082 0.92213 0.54813 0.0
H1022 H 0.00608 0.88135 0.61972 0.0
C1023 C 0.00191 0.83391 0.50376 0.0
C1024 C 0.96448 0.86726 0.54246 0.0
C1025 C 0.00424 0.81923 0.47539 0.0
C1026 C 0.96759 0.94128 0.59758 0.0
C1027 C 0.96752 0.92356 0.58237 0.0
C1028 C 0.99413 0.87754 0.59904 0.0
C1029 C 0.9839 0.83887 0.52201 0.0
C1030 C 0.98123 0.85563 0.54866 0.0
C1031 C 0.97658 0.90813 0.60984 0.0
C1032 C 0.97766 0.88947 0.59145 0.0
H1033 H 0.95841 0.80618 0.4752 0.0
H1034 H 0.95439 0.83142 0.52617 0.0
H1035 H 0.00881 0.85211 0.58478 0.0
H1036 H 0.99301 0.93032 0.70182 0.0
H1037 H 0.99217 0.8994 0.67637 0.0
C1038 C 0.70484 0.95527 0.49458 0.0
C1039 C 0.70595 0.96268 0.44613 0.0
C1040 C 0.68784 0.95741 0.52008 0.0
C1041 C 0.6372 0.95976 0.50306 0.0
H1042 H 0.63198 0.98541 0.61733 0.0
C1043 C 0.56319 0.97515 0.58305 0.0
C1044 C 0.56164 0.97584 0.63283 0.0
C1045 C 0.58111 0.97353 0.56173 0.0
C1046 C 0.63318 0.97786 0.58603 0.0
H1047 H 0.69018 0.97801 0.38639 0.0
H1048 H 0.66044 0.98132 0.43059 0.0
H1049 H 0.66307 0.98243 0.57915 0.0
H1050 H 0.57745 0.97491 0.69964 0.0
H1051 H 0.60871 0.97112 0.66318 0.0
H1052 H 0.60773 0.95443 0.5103 0.0
C1053 C 0.6728 0.97419 0.44898 0.0
C1054 C 0.65101 0.97629 0.56408 0.0
C1055 C 0.68984 0.97242 0.42391 0.0
C1056 C 0.57832 0.97461 0.66105 0.0
C1057 C 0.59624 0.97256 0.63996 0.0
C1058 C 0.6195 0.96094 0.52551 0.0
C1059 C 0.67159 0.96655 0.49708 0.0
C1060 C 0.65308 0.96744 0.52209 0.0
C1061 C 0.59795 0.97211 0.58987 0.0
C1062 C 0.61711 0.97023 0.56702 0.0
H1063 H 0.71702 0.94761 0.51241 0.0
H1064 H 0.68717 0.95136 0.55716 0.0
H1065 H 0.63854 0.9527 0.4709 0.0
H1066 H 0.55054 0.97633 0.56047 0.0
H1067 H 0.58169 0.97371 0.523 0.0
C1068 C 0.50558 0.68532 0.45078 0.0
C1069 C 0.48654 0.69251 0.44751 0.0
C1070 C 0.51124 0.67105 0.48666 0.0
C1071 C 0.49439 0.64343 0.59856 0.0
H1072 H 0.52605 0.6037 0.55216 0.0
C1073 C 0.49086 0.56665 0.6717 0.0
C1074 C 0.50806 0.55629 0.68352 0.0
C1075 C 0.49094 0.58469 0.64866 0.0
C1076 C 0.51744 0.61479 0.56589 0.0
H1077 H 0.45899 0.69144 0.4821 0.0
H1078 H 0.46854 0.66629 0.54313 0.0
H1079 H 0.52154 0.63345 0.5027 0.0
H1080 H 0.53886 0.55671 0.68025 0.0
H1081 H 0.53895 0.58826 0.63813 0.0
H1082 H 0.48937 0.62419 0.66039 0.0
C1083 C 0.47927 0.67167 0.51854 0.0
C1084 C 0.51489 0.63192 0.53768 0.0
C1085 C 0.47369 0.68601 0.48304 0.0
C1086 C 0.52539 0.56437 0.67156 0.0
C1087 C 0.52545 0.58237 0.64749 0.0
C1088 C 0.49669 0.62622 0.62633 0.0
C1089 C 0.49797 0.66355 0.51997 0.0
C1090 C 0.50294 0.64635 0.55308 0.0
C1091 C 0.5082 0.59272 0.63611 0.0
C1092 C 0.50789 0.61161 0.60977 0.0
H1093 H 0.51587 0.68993 0.42396 0.0
H1094 H 0.52586 0.66547 0.4872 0.0
H1095 H 0.48548 0.6543 0.61229 0.0
H1096 H 0.47727 0.56088 0.68068 0.0
H1097 H 0.47744 0.59228 0.63983 0.0
C1098 C 0.82046 0.5856 0.51098 0.0
C1099 C 0.81164 0.57142 0.49014 0.0
C1100 C 0.83537 0.58134 0.54436 0.0
C1101 C 0.86066 0.54262 0.62233 0.0
H1102 H 0.90491 0.57161 0.59596 0.0
C1103 C 0.93613 0.51572 0.68597 0.0
C1104 C 0.94861 0.52825 0.70223 0.0
C1105 C 0.91846 0.522 0.66556 0.0
C1106 C 0.89261 0.56355 0.60442 0.0
H1107 H 0.81102 0.54157 0.49005 0.0
H1108 H 0.83685 0.53414 0.54829 0.0
H1109 H 0.87509 0.58077 0.55289 0.0
H1110 H 0.95218 0.55729 0.70993 0.0
H1111 H 0.92122 0.56829 0.6742 0.0
H1112 H 0.87833 0.52515 0.67307 0.0
C1113 C 0.83218 0.54858 0.53919 0.0
C1114 C 0.87547 0.56882 0.57975 0.0
C1115 C 0.81728 0.55284 0.50582 0.0
C1116 C 0.94295 0.54727 0.69762 0.0
C1117 C 0.92522 0.55357 0.67702 0.0
C1118 C 0.8778 0.53735 0.64698 0.0
C1119 C 0.8418 0.56278 0.55777 0.0
C1120 C 0.85936 0.55825 0.5878 0.0
C1121 C 0.91276 0.54099 0.66079 0.0
C1122 C 0.89409 0.54755 0.6377 0.0
H1123 H 0.81627 0.60006 0.5002 0.0
H1124 H 0.8422 0.5926 0.55872 0.0
H1125 H 0.84846 0.53433 0.62998 0.0
H1126 H 0.94 0.50097 0.68887 0.0
H1127 H 0.90939 0.51195 0.65271 0.0
loop_
_geom_bond_atom_site_label_1
_geom_bond_atom_site_label_2
_geom_bond_distance
_geom_bond_site_symmetry_2
_ccdc_geom_bond_type
C0 C1 1.384 . S
C0 H13 0.947 . S
C0 C35 1.382 . S
C1 C0 1.384 . S
C1 C2 1.378 . S
C2 C1 1.378 . S
C2 C3 1.378 . S
C2 H14 0.952 . S
C3 C2 1.378 . S
C3 H15 0.950 . S
C3 C34 1.383 . S
H4 C23 0.947 . S
H5 C24 0.946 . S
H6 C26 0.953 . S
H7 C27 0.945 . S
H8 C29 0.952 . S
H9 C30 0.949 . S
H10 C32 0.950 . S
H11 C33 0.948 . S
H12 C35 0.951 . S
H13 C0 0.947 . S
H14 C2 0.952 . S
H15 C3 0.950 . S
N16 C19 1.382 . S
N16 C21 1.363 . S
N17 C19 1.371 . S
N17 C20 1.372 . S
N18 C20 1.361 . S
N18 C21 1.377 . S
C19 N16 1.382 . S
C19 N17 1.371 . S
C19 C22 1.480 . S
C20 N17 1.372 . S
C20 N18 1.361 . S
C20 C28 1.457 . S
C21 N16 1.363 . S
C21 N18 1.377 . S
C21 C34 1.479 . S
C22 C19 1.480 . S
C22 C23 1.383 . S
C22 C27 1.385 . S
C23 H4 0.947 . S
C23 C22 1.383 . S
C23 C24 1.388 . S
C24 H5 0.946 . S
C24 C23 1.388 . S
C24 C25 1.384 . S
C25 C24 1.384 . S
C25 C26 1.377 . S
C26 H6 0.953 . S
C26 C25 1.377 . S
C26 C27 1.369 . S
C27 H7 0.945 . S
C27 C22 1.385 . S
C27 C26 1.369 . S
C28 C20 1.457 . S
C28 C29 1.372 . S
C28 C33 1.364 . S
C29 H8 0.952 . S
C29 C28 1.372 . S
C29 C30 1.389 1_554 S
C30 H9 0.949 . S
C30 C29 1.389 1_556 S
C30 C31 1.387 . S
C31 C30 1.387 . S
C31 C32 1.372 1_556 S
C32 H10 0.950 . S
C32 C31 1.372 1_554 S
C32 C33 1.379 . S
C33 H11 0.948 . S
C33 C28 1.364 . S
C33 C32 1.379 . S
C34 C3 1.383 . S
C34 C21 1.479 . S
C34 C35 1.398 . S
C35 C0 1.382 . S
C35 H12 0.951 . S
C35 C34 1.398 . S
C36 C37 1.384 1_655 S
C36 H49 0.947 . S
C36 C71 1.382 1_655 S
C37 C36 1.384 1_455 S
C37 C38 1.378 . S
C38 C37 1.378 . S
C38 C39 1.378 . S
C38 H50 0.952 . S
C39 C38 1.378 . S
C39 H51 0.950 . S
C39 C70 1.383 . S
H40 C59 0.947 . S
H41 C60 0.953 . S
H42 C62 0.953 . S
H43 C63 0.945 . S
H44 C65 0.948 1_655 S
H45 C66 0.957 . S
H46 C68 0.950 . S
H47 C69 0.948 . S
H48 C71 0.951 1_655 S
H49 C36 0.947 . S
H50 C38 0.952 . S
H51 C39 0.950 . S
N52 C55 1.382 . S
N52 C57 1.363 . S
N53 C55 1.371 . S
N53 C56 1.372 . S
N54 C56 1.361 . S
N54 C57 1.377 . S
C55 N52 1.382 . S
C55 N53 1.371 . S
C55 C58 1.480 . S
C56 N53 1.372 . S
C56 N54 1.361 . S
C56 C64 1.457 . S
C57 N52 1.363 . S
C57 N54 1.377 . S
C57 C70 1.479 . S
C58 C55 1.480 . S
C58 C59 1.383 . S
C58 C63 1.385 . S
C59 H40 0.947 . S
C59 C58 1.383 . S
C59 C60 1.384 1_455 S
C60 H41 0.953 . S
C60 C59 1.384 1_655 S
C60 C61 1.382 1_655 S
C61 C60 1.382 1_455 S
C61 C62 1.377 . S
C62 H42 0.953 . S
C62 C61 1.377 . S
C62 C63 1.369 . S
C63 H43 0.945 . S
C63 C58 1.385 . S
C63 C62 1.369 . S
C64 C56 1.457 . S
C64 C65 1.376 . S
C64 C69 1.364 . S
C65 H44 0.948 1_455 S
C65 C64 1.376 . S
C65 C66 1.389 1_454 S
C66 H45 0.957 . S
C66 C65 1.389 1_656 S
C66 C67 1.380 1_655 S
C67 C66 1.380 1_455 S
C67 C68 1.372 1_556 S
C68 H46 0.950 . S
C68 C67 1.372 1_554 S
C68 C69 1.379 . S
C69 H47 0.948 . S
C69 C64 1.364 . S
C69 C68 1.379 . S
C70 C39 1.383 . S
C70 C57 1.479 . S
C70 C71 1.398 . S
C71 C36 1.382 1_455 S
C71 H48 0.951 1_455 S
C71 C70 1.398 . S
C72 C73 1.384 . S
C72 H85 0.947 . S
C72 C107 1.382 . S
C73 C72 1.384 . S
C73 C74 1.378 . S
C74 C73 1.378 . S
C74 C75 1.378 . S
C74 H86 0.952 . S
C75 C74 1.378 . S
C75 H87 0.950 . S
C75 C106 1.383 . S
H76 C95 0.947 . S
H77 C96 0.946 . S
H78 C98 0.953 1_556 S
H79 C99 0.945 . S
H80 C101 0.952 . S
H81 C102 0.949 . S
H82 C104 0.950 . S
H83 C105 0.948 . S
H84 C107 0.951 . S
H85 C72 0.947 . S
H86 C74 0.952 . S
H87 C75 0.950 . S
N88 C91 1.382 . S
N88 C93 1.363 . S
N89 C91 1.371 . S
N89 C92 1.372 . S
N90 C92 1.361 . S
N90 C93 1.377 . S
C91 N88 1.382 . S
C91 N89 1.371 . S
C91 C94 1.480 . S
C92 N89 1.372 . S
C92 N90 1.361 . S
C92 C100 1.457 . S
C93 N88 1.363 . S
C93 N90 1.377 . S
C93 C106 1.479 . S
C94 C91 1.480 . S
C94 C95 1.383 . S
C94 C99 1.385 . S
C95 H76 0.947 . S
C95 C94 1.383 . S
C95 C96 1.388 . S
C96 H77 0.946 . S
C96 C95 1.388 . S
C96 C97 1.384 . S
C97 C96 1.384 . S
C97 C98 1.377 . S
C98 H78 0.953 1_554 S
C98 C97 1.377 . S
C98 C99 1.369 . S
C99 H79 0.945 . S
C99 C94 1.385 . S
C99 C98 1.369 . S
C100 C92 1.457 . S
C100 C101 1.372 1_554 S
C100 C105 1.364 . S
C101 H80 0.952 . S
C101 C100 1.372 1_556 S
C101 C102 1.389 . S
C102 H81 0.949 . S
C102 C101 1.389 . S
C102 C103 1.387 . S
C103 C102 1.387 . S
C103 C104 1.372 1_556 S
C104 H82 0.950 . S
C104 C103 1.372 1_554 S
C104 C105 1.379 . S
C105 H83 0.948 . S
C105 C100 1.364 . S
C105 C104 1.379 . S
C106 C75 1.383 . S
C106 C93 1.479 . S
C106 C107 1.398 . S
C107 C72 1.382 . S
C107 H84 0.951 . S
C107 C106 1.398 . S
C108 C109 1.384 1_554 S
C108 H121 0.947 . S
C108 C143 1.382 . S
C109 C108 1.384 1_556 S
C109 C110 1.378 . S
C110 C109 1.378 . S
C110 C111 1.378 1_556 S
C110 H122 0.952 . S
C111 C110 1.378 1_554 S
C111 H123 0.946 1_554 S
C111 C142 1.383 . S
H112 C131 0.947 . S
H113 C132 0.946 . S
H114 C134 0.953 . S
H115 C135 0.945 . S
H116 C137 0.952 . S
H117 C138 0.949 . S
H118 C140 0.950 . S
H119 C141 0.948 . S
H120 C143 0.951 . S
H121 C108 0.947 . S
H122 C110 0.952 . S
H123 C111 0.946 1_556 S
N124 C127 1.382 . S
N124 C129 1.363 . S
N125 C127 1.371 . S
N125 C128 1.372 . S
N126 C128 1.361 . S
N126 C129 1.377 . S
C127 N124 1.382 . S
C127 N125 1.371 . S
C127 C130 1.480 . S
C128 N125 1.372 . S
C128 N126 1.361 . S
C128 C136 1.457 . S
C129 N124 1.363 . S
C129 N126 1.377 . S
C129 C142 1.479 . S
C130 C127 1.480 . S
C130 C131 1.383 . S
C130 C135 1.385 . S
C131 H112 0.947 . S
C131 C130 1.383 . S
C131 C132 1.388 . S
C132 H113 0.946 . S
C132 C131 1.388 . S
C132 C133 1.384 . S
C133 C132 1.384 . S
C133 C134 1.377 . S
C134 H114 0.953 . S
C134 C133 1.377 . S
C134 C135 1.369 . S
C135 H115 0.945 . S
C135 C130 1.385 . S
C135 C134 1.369 . S
C136 C128 1.457 . S
C136 C137 1.372 . S
C136 C141 1.364 . S
C137 H116 0.952 . S
C137 C136 1.372 . S
C137 C138 1.389 . S
C138 H117 0.949 . S
C138 C137 1.389 . S
C138 C139 1.387 . S
C139 C138 1.387 . S
C139 C140 1.372 . S
C140 H118 0.950 . S
C140 C139 1.372 . S
C140 C141 1.379 . S
C141 H119 0.948 . S
C141 C136 1.364 . S
C141 C140 1.379 . S
C142 C111 1.383 . S
C142 C129 1.479 . S
C142 C143 1.398 . S
C143 C108 1.382 . S
C143 H120 0.951 . S
C143 C142 1.398 . S
C144 C145 1.384 . S
C144 H157 0.947 . S
C144 C179 1.382 . S
C145 C144 1.384 . S
C145 C146 1.378 . S
C146 C145 1.378 . S
C146 C147 1.378 . S
C146 H158 0.952 . S
C147 C146 1.378 . S
C147 H159 0.950 . S
C147 C178 1.383 . S
H148 C167 0.947 . S
H149 C168 0.946 . S
H150 C170 0.953 . S
H151 C171 0.945 . S
H152 C173 0.952 . S
H153 C174 0.949 . S
H154 C176 0.950 . S
H155 C177 0.948 . S
H156 C179 0.951 . S
H157 C144 0.947 . S
H158 C146 0.952 . S
H159 C147 0.950 . S
N160 C163 1.382 . S
N160 C165 1.363 . S
N161 C163 1.371 . S
N161 C164 1.372 . S
N162 C164 1.361 . S
N162 C165 1.377 . S
C163 N160 1.382 . S
C163 N161 1.371 . S
C163 C166 1.480 . S
C164 N161 1.372 . S
C164 N162 1.361 . S
C164 C172 1.457 . S
C165 N160 1.363 . S
C165 N162 1.377 . S
C165 C178 1.479 . S
C166 C163 1.480 . S
C166 C167 1.383 . S
C166 C171 1.385 . S
C167 H148 0.947 . S
C167 C166 1.383 . S
C167 C168 1.388 . S
C168 H149 0.946 . S
C168 C167 1.388 . S
C168 C169 1.384 . S
C169 C168 1.384 . S
C169 C170 1.377 . S
C170 H150 0.953 . S
C170 C169 1.377 . S
C170 C171 1.369 . S
C171 H151 0.945 . S
C171 C166 1.385 . S
C171 C170 1.369 . S
C172 C164 1.457 . S
C172 C173 1.372 . S
C172 C177 1.364 . S
C173 H152 0.952 . S
C173 C172 1.372 . S
C173 C174 1.389 . S
C174 H153 0.949 . S
C174 C173 1.389 . S
C174 C175 1.387 . S
C175 C174 1.387 . S
C175 C176 1.372 . S
C176 H154 0.950 . S
C176 C175 1.372 . S
C176 C177 1.379 . S
C177 H155 0.948 . S
C177 C172 1.364 . S
C177 C176 1.379 . S
C178 C147 1.383 . S
C178 C165 1.479 . S
C178 C179 1.398 . S
C179 C144 1.382 . S
C179 H156 0.951 . S
C179 C178 1.398 . S
C180 C181 1.383 . S
C180 H193 0.948 1_455 S
C180 C215 1.382 . S
C181 C180 1.383 . S
C181 C182 1.378 . S
C182 C181 1.378 . S
C182 C183 1.378 . S
C182 H194 0.952 . S
C183 C182 1.378 . S
C183 H195 0.950 . S
C183 C214 1.383 . S
H184 C203 0.947 . S
H185 C204 0.948 . S
H186 C206 0.953 . S
H187 C207 0.945 . S
H188 C209 0.949 1_655 S
H189 C210 0.953 . S
H190 C212 0.950 . S
H191 C213 0.948 . S
H192 C215 0.950 1_655 S
H193 C180 0.948 1_655 S
H194 C182 0.952 . S
H195 C183 0.950 . S
N196 C199 1.382 . S
N196 C201 1.363 . S
N197 C199 1.371 . S
N197 C200 1.372 . S
N198 C200 1.361 . S
N198 C201 1.377 . S
C199 N196 1.382 . S
C199 N197 1.371 . S
C199 C202 1.480 . S
C200 N197 1.372 . S
C200 N198 1.361 . S
C200 C208 1.457 . S
C201 N196 1.363 . S
C201 N198 1.377 . S
C201 C214 1.479 . S
C202 C199 1.480 . S
C202 C203 1.383 . S
C202 C207 1.385 . S
C203 H184 0.947 . S
C203 C202 1.383 . S
C203 C204 1.388 1_455 S
C204 H185 0.948 . S
C204 C203 1.388 1_655 S
C204 C205 1.382 1_655 S
C205 C204 1.382 1_455 S
C205 C206 1.377 . S
C206 H186 0.953 . S
C206 C205 1.377 . S
C206 C207 1.369 . S
C207 H187 0.945 . S
C207 C202 1.385 . S
C207 C206 1.369 . S
C208 C200 1.457 . S
C208 C209 1.379 . S
C208 C213 1.364 . S
C209 H188 0.949 1_455 S
C209 C208 1.379 . S
C209 C210 1.384 1_455 S
C210 H189 0.953 . S
C210 C209 1.384 1_655 S
C210 C211 1.385 1_655 S
C211 C210 1.385 1_455 S
C211 C212 1.372 . S
C212 H190 0.950 . S
C212 C211 1.372 . S
C212 C213 1.379 . S
C213 H191 0.948 . S
C213 C208 1.364 . S
C213 C212 1.379 . S
C214 C183 1.383 . S
C214 C201 1.479 . S
C214 C215 1.400 . S
C215 C180 1.382 . S
C215 H192 0.950 1_455 S
C215 C214 1.400 . S
C216 C217 1.384 . S
C216 H229 0.947 . S
C216 C251 1.382 . S
C217 C216 1.384 . S
C217 C218 1.378 . S
C218 C217 1.378 . S
C218 C219 1.378 . S
C218 H230 0.952 . S
C219 C218 1.378 . S
C219 H231 0.950 . S
C219 C250 1.383 . S
H220 C239 0.947 . S
H221 C240 0.946 . S
H222 C242 0.953 . S
H223 C243 0.945 . S
H224 C245 0.952 . S
H225 C246 0.949 . S
H226 C248 0.950 . S
H227 C249 0.948 . S
H228 C251 0.951 . S
H229 C216 0.947 . S
H230 C218 0.952 . S
H231 C219 0.950 . S
N232 C235 1.382 . S
N232 C237 1.363 . S
N233 C235 1.371 . S
N233 C236 1.372 . S
N234 C236 1.361 . S
N234 C237 1.377 . S
C235 N232 1.382 . S
C235 N233 1.371 . S
C235 C238 1.480 . S
C236 N233 1.372 . S
C236 N234 1.361 . S
C236 C244 1.457 . S
C237 N232 1.363 . S
C237 N234 1.377 . S
C237 C250 1.479 . S
C238 C235 1.480 . S
C238 C239 1.383 . S
C238 C243 1.385 . S
C239 H220 0.947 . S
C239 C238 1.383 . S
C239 C240 1.388 . S
C240 H221 0.946 . S
C240 C239 1.388 . S
C240 C241 1.384 . S
C241 C240 1.384 . S
C241 C242 1.377 . S
C242 H222 0.953 . S
C242 C241 1.377 . S
C242 C243 1.369 . S
C243 H223 0.945 . S
C243 C238 1.385 . S
C243 C242 1.369 . S
C244 C236 1.457 . S
C244 C245 1.372 . S
C244 C249 1.364 . S
C245 H224 0.952 . S
C245 C244 1.372 . S
C245 C246 1.389 . S
C246 H225 0.949 . S
C246 C245 1.389 . S
C246 C247 1.387 . S
C247 C246 1.387 . S
C247 C248 1.372 . S
C248 H226 0.950 . S
C248 C247 1.372 . S
C248 C249 1.379 . S
C249 H227 0.948 . S
C249 C244 1.364 . S
C249 C248 1.379 . S
C250 C219 1.383 . S
C250 C237 1.479 . S
C250 C251 1.398 . S
C251 C216 1.382 . S
C251 H228 0.951 . S
C251 C250 1.398 . S
C252 C253 1.384 . S
C252 H265 0.947 . S
C252 C287 1.382 . S
C253 C252 1.384 . S
C253 C254 1.378 . S
C254 C253 1.378 . S
C254 C255 1.378 . S
C254 H266 0.952 . S
C255 C254 1.378 . S
C255 H267 0.950 . S
C255 C286 1.383 . S
H256 C275 0.947 . S
H257 C276 0.946 . S
H258 C278 0.953 . S
H259 C279 0.945 . S
H260 C281 0.952 . S
H261 C282 0.949 . S
H262 C284 0.950 . S
H263 C285 0.948 . S
H264 C287 0.951 . S
H265 C252 0.947 . S
H266 C254 0.952 . S
H267 C255 0.950 . S
N268 C271 1.382 . S
N268 C273 1.363 . S
N269 C271 1.371 . S
N269 C272 1.372 . S
N270 C272 1.361 . S
N270 C273 1.377 . S
C271 N268 1.382 . S
C271 N269 1.371 . S
C271 C274 1.480 . S
C272 N269 1.372 . S
C272 N270 1.361 . S
C272 C280 1.457 . S
C273 N268 1.363 . S
C273 N270 1.377 . S
C273 C286 1.479 . S
C274 C271 1.480 . S
C274 C275 1.383 . S
C274 C279 1.385 . S
C275 H256 0.947 . S
C275 C274 1.383 . S
C275 C276 1.388 . S
C276 H257 0.946 . S
C276 C275 1.388 . S
C276 C277 1.384 . S
C277 C276 1.384 . S
C277 C278 1.377 . S
C278 H258 0.953 . S
C278 C277 1.377 . S
C278 C279 1.369 . S
C279 H259 0.945 . S
C279 C274 1.385 . S
C279 C278 1.369 . S
C280 C272 1.457 . S
C280 C281 1.372 . S
C280 C285 1.364 . S
C281 H260 0.952 . S
C281 C280 1.372 . S
C281 C282 1.389 . S
C282 H261 0.949 . S
C282 C281 1.389 . S
C282 C283 1.387 . S
C283 C282 1.387 . S
C283 C284 1.372 . S
C284 H262 0.950 . S
C284 C283 1.372 . S
C284 C285 1.379 . S
C285 H263 0.948 . S
C285 C280 1.364 . S
C285 C284 1.379 . S
C286 C255 1.383 . S
C286 C273 1.479 . S
C286 C287 1.398 . S
C287 C252 1.382 . S
C287 H264 0.951 . S
C287 C286 1.398 . S
Co288 N293 2.057 . S
Co288 O305 2.021 . S
Co288 O308 2.062 1_455 S
Co288 O312 2.117 1_455 S
Co288 O313 2.020 1_545 S
C289 O309 1.259 1_545 S
C289 O312 1.258 . S
Co290 N299 2.057 . S
Co290 O306 2.117 1_665 S
Co290 O307 2.020 1_565 S
Co290 O309 2.021 . S
Co290 O314 2.062 1_655 S
C291 N293 1.316 . S
C291 N294 1.347 . S
C291 H296 0.931 . S
C292 N293 1.375 1_655 S
C292 C295 1.350 . S
C292 H297 0.930 . S
N293 Co288 2.057 . S
N293 C291 1.316 . S
N293 C292 1.375 1_455 S
N294 C291 1.347 . S
N294 C295 1.373 1_455 S
C295 C292 1.350 . S
C295 N294 1.373 1_655 S
C295 H316 0.931 . S
H296 C291 0.931 . S
H297 C292 0.930 . S
C298 O305 1.259 . S
C298 O306 1.258 . S
N299 Co290 2.057 . S
N299 C300 1.316 . S
N299 C301 1.375 1_655 S
C300 N299 1.316 . S
C300 N302 1.347 . S
C300 H311 0.931 . S
C301 N299 1.375 1_455 S
C301 C303 1.350 . S
C301 H310 0.930 . S
N302 C300 1.347 . S
N302 C303 1.373 1_655 S
C303 C301 1.350 . S
C303 N302 1.373 1_455 S
C303 H317 0.931 . S
C304 O307 1.256 . S
C304 O308 1.255 . S
O305 Co288 2.021 . S
O305 C298 1.259 . S
O306 Co290 2.117 1_445 S
O306 C298 1.258 . S
O307 Co290 2.020 1_545 S
O307 C304 1.256 . S
O308 Co288 2.062 1_655 S
O308 C304 1.255 . S
O309 C289 1.259 1_565 S
O309 Co290 2.021 . S
H310 C301 0.930 . S
H311 C300 0.931 . S
O312 Co288 2.117 1_655 S
O312 C289 1.258 . S
O313 Co288 2.020 1_565 S
O313 C315 1.256 . S
O314 Co290 2.062 1_455 S
O314 C315 1.255 . S
C315 O313 1.256 . S
C315 O314 1.255 . S
H316 C295 0.931 . S
H317 C303 0.931 . S
Co318 N323 2.057 . S
Co318 O335 2.021 . S
Co318 O338 2.062 . S
Co318 O342 2.117 1_545 S
Co318 O343 2.020 . S
C319 O339 1.259 . S
C319 O342 1.258 . S
Co320 N329 2.055 1_545 S
Co320 O336 2.130 . S
Co320 O337 2.021 . S
Co320 O339 2.009 1_545 S
Co320 O344 2.062 1_545 S
C321 N323 1.316 . S
C321 N324 1.347 . S
C321 H326 0.931 . S
C322 N323 1.375 . S
C322 C325 1.350 . S
C322 H327 0.930 1_545 S
N323 Co318 2.057 . S
N323 C321 1.316 . S
N323 C322 1.375 . S
N324 C321 1.347 . S
N324 C325 1.373 . S
C325 C322 1.350 . S
C325 N324 1.373 . S
C325 H346 0.931 . S
H326 C321 0.931 . S
H327 C322 0.930 1_565 S
C328 O335 1.259 . S
C328 O336 1.258 . S
N329 Co320 2.055 1_565 S
N329 C330 1.316 . S
N329 C331 1.375 1_565 S
C330 N329 1.316 . S
C330 N332 1.347 . S
C330 H341 0.931 . S
C331 N329 1.375 1_545 S
C331 C333 1.350 . S
C331 H340 0.930 . S
N332 C330 1.347 . S
N332 C333 1.373 1_565 S
C333 C331 1.350 . S
C333 N332 1.373 1_545 S
C333 H347 0.931 . S
C334 O337 1.256 . S
C334 O338 1.255 . S
O335 Co318 2.021 . S
O335 C328 1.259 . S
O336 Co320 2.130 . S
O336 C328 1.258 . S
O337 Co320 2.021 . S
O337 C334 1.256 . S
O338 Co318 2.062 . S
O338 C334 1.255 . S
O339 C319 1.259 . S
O339 Co320 2.009 1_565 S
H340 C331 0.930 . S
H341 C330 0.931 . S
O342 Co318 2.117 1_565 S
O342 C319 1.258 . S
O343 Co318 2.020 . S
O343 C345 1.256 . S
O344 Co320 2.062 1_565 S
O344 C345 1.255 1_565 S
C345 O343 1.256 . S
C345 O344 1.255 1_545 S
H346 C325 0.931 . S
H347 C333 0.931 . S
Co348 N353 2.057 . S
Co348 O365 2.021 . S
Co348 O368 2.062 . S
Co348 O372 2.117 . S
Co348 O373 2.020 . S
C349 O369 1.259 . S
C349 O372 1.258 . S
Co350 N359 2.057 . S
Co350 O366 2.117 . S
Co350 O367 2.020 . S
Co350 O369 2.021 . S
Co350 O374 2.062 . S
C351 N353 1.316 . S
C351 N354 1.347 . S
C351 H356 0.931 . S
C352 N353 1.375 . S
C352 C355 1.350 . S
C352 H357 0.930 . S
N353 Co348 2.057 . S
N353 C351 1.316 . S
N353 C352 1.375 . S
N354 C351 1.347 . S
N354 C355 1.373 . S
C355 C352 1.350 . S
C355 N354 1.373 . S
C355 H376 0.931 . S
H356 C351 0.931 . S
H357 C352 0.930 . S
C358 O365 1.259 . S
C358 O366 1.258 . S
N359 Co350 2.057 . S
N359 C360 1.316 . S
N359 C361 1.375 . S
C360 N359 1.316 . S
C360 N362 1.347 . S
C360 H371 0.931 . S
C361 N359 1.375 . S
C361 C363 1.350 . S
C361 H370 0.930 . S
N362 C360 1.347 . S
N362 C363 1.373 . S
C363 C361 1.350 . S
C363 N362 1.373 . S
C363 H377 0.931 . S
C364 O367 1.256 . S
C364 O368 1.255 . S
O365 Co348 2.021 . S
O365 C358 1.259 . S
O366 Co350 2.117 . S
O366 C358 1.258 . S
O367 Co350 2.020 . S
O367 C364 1.256 . S
O368 Co348 2.062 . S
O368 C364 1.255 . S
O369 C349 1.259 . S
O369 Co350 2.021 . S
H370 C361 0.930 . S
H371 C360 0.931 . S
O372 Co348 2.117 . S
O372 C349 1.258 . S
O373 Co348 2.020 . S
O373 C375 1.256 . S
O374 Co350 2.062 . S
O374 C375 1.255 . S
C375 O373 1.256 . S
C375 O374 1.255 . S
H376 C355 0.931 . S
H377 C363 0.931 . S
Co378 N383 2.057 . S
Co378 O395 2.021 1_455 S
Co378 O398 2.062 1_455 S
Co378 O402 2.117 . S
Co378 O403 2.020 . S
C379 O399 1.259 . S
C379 O402 1.258 . S
Co380 N389 2.057 . S
Co380 O396 2.117 . S
Co380 O397 2.020 . S
Co380 O399 2.021 1_655 S
Co380 O404 2.062 1_655 S
C381 N383 1.316 . S
C381 N384 1.347 . S
C381 H386 0.931 1_455 S
C382 N383 1.375 . S
C382 C385 1.350 . S
C382 H387 0.930 . S
N383 Co378 2.057 . S
N383 C381 1.316 . S
N383 C382 1.375 . S
N384 C381 1.347 . S
N384 C385 1.373 . S
C385 C382 1.350 . S
C385 N384 1.373 . S
C385 H406 0.931 . S
H386 C381 0.931 1_655 S
H387 C382 0.930 . S
C388 O395 1.259 . S
C388 O396 1.258 . S
N389 Co380 2.057 . S
N389 C390 1.316 . S
N389 C391 1.375 . S
C390 N389 1.316 . S
C390 N392 1.347 . S
C390 H401 0.931 1_655 S
C391 N389 1.375 . S
C391 C393 1.350 . S
C391 H400 0.930 . S
N392 C390 1.347 . S
N392 C393 1.373 . S
C393 C391 1.350 . S
C393 N392 1.373 . S
C393 H407 0.931 . S
C394 O397 1.256 . S
C394 O398 1.255 . S
O395 Co378 2.021 1_655 S
O395 C388 1.259 . S
O396 Co380 2.117 . S
O396 C388 1.258 . S
O397 Co380 2.020 . S
O397 C394 1.256 . S
O398 Co378 2.062 1_655 S
O398 C394 1.255 . S
O399 C379 1.259 . S
O399 Co380 2.021 1_455 S
H400 C391 0.930 . S
H401 C390 0.931 1_455 S
O402 Co378 2.117 . S
O402 C379 1.258 . S
O403 Co378 2.020 . S
O403 C405 1.256 . S
O404 Co380 2.062 1_455 S
O404 C405 1.255 . S
C405 O403 1.256 . S
C405 O404 1.255 . S
H406 C385 0.931 . S
H407 C393 0.931 . S
C408 C409 1.349 . S
C408 C410 1.327 . S
C408 H433 0.950 . S
C409 C408 1.349 . S
C409 C425 1.349 . S
C410 C408 1.327 . S
C410 C429 1.429 . S
C410 H434 0.950 . S
C411 C428 1.574 . S
C411 C430 1.368 . S
C411 H435 0.949 . S
H412 C416 0.949 . S
C413 C414 1.349 . S
C413 C415 1.327 . S
C413 H436 0.950 . S
C414 C413 1.349 . S
C414 C426 1.349 . S
C415 C413 1.327 . S
C415 C431 1.429 . S
C415 H437 0.950 . S
C416 H412 0.949 . S
C416 C424 1.574 . S
C416 C432 1.368 . S
H417 C425 0.950 . S
H418 C423 0.950 . S
H419 C424 0.949 . S
H420 C426 0.950 1_565 S
H421 C427 0.950 . S
H422 C428 0.949 . S
C423 H418 0.950 . S
C423 C425 1.327 . S
C423 C429 1.429 . S
C424 C416 1.574 . S
C424 H419 0.949 . S
C424 C430 1.368 . S
C425 C409 1.349 . S
C425 H417 0.950 . S
C425 C423 1.327 . S
C426 C414 1.349 . S
C426 H420 0.950 1_545 S
C426 C427 1.327 . S
C427 H421 0.950 . S
C427 C426 1.327 . S
C427 C431 1.429 . S
C428 C411 1.574 . S
C428 H422 0.949 . S
C428 C432 1.368 . S
C429 C410 1.429 . S
C429 C423 1.429 . S
C429 C430 1.523 . S
C430 C411 1.368 . S
C430 C424 1.368 . S
C430 C429 1.523 . S
C431 C415 1.429 . S
C431 C427 1.429 . S
C431 C432 1.523 . S
C432 C416 1.368 . S
C432 C428 1.368 . S
C432 C431 1.523 . S
H433 C408 0.950 . S
H434 C410 0.950 . S
H435 C411 0.949 . S
H436 C413 0.950 . S
H437 C415 0.950 . S
C438 C439 1.349 . S
C438 C440 1.327 . S
C438 H463 0.950 . S
C439 C438 1.349 . S
C439 C455 1.349 . S
C440 C438 1.327 . S
C440 C459 1.429 . S
C440 H464 0.950 . S
C441 C458 1.574 . S
C441 C460 1.368 . S
C441 H465 0.949 . S
H442 C446 0.949 . S
C443 C444 1.349 . S
C443 C445 1.327 . S
C443 H466 0.950 . S
C444 C443 1.349 . S
C444 C456 1.349 . S
C445 C443 1.327 . S
C445 C461 1.429 . S
C445 H467 0.950 . S
C446 H442 0.949 . S
C446 C454 1.574 . S
C446 C462 1.368 . S
H447 C455 0.950 . S
H448 C453 0.950 . S
H449 C454 0.949 . S
H450 C456 0.950 . S
H451 C457 0.950 . S
H452 C458 0.949 . S
C453 H448 0.950 . S
C453 C455 1.327 . S
C453 C459 1.429 . S
C454 C446 1.574 . S
C454 H449 0.949 . S
C454 C460 1.368 . S
C455 C439 1.349 . S
C455 H447 0.950 . S
C455 C453 1.327 . S
C456 C444 1.349 . S
C456 H450 0.950 . S
C456 C457 1.327 . S
C457 H451 0.950 . S
C457 C456 1.327 . S
C457 C461 1.429 . S
C458 C441 1.574 . S
C458 H452 0.949 . S
C458 C462 1.368 . S
C459 C440 1.429 . S
C459 C453 1.429 . S
C459 C460 1.523 . S
C460 C441 1.368 . S
C460 C454 1.368 . S
C460 C459 1.523 . S
C461 C445 1.429 . S
C461 C457 1.429 . S
C461 C462 1.523 . S
C462 C446 1.368 . S
C462 C458 1.368 . S
C462 C461 1.523 . S
H463 C438 0.950 . S
H464 C440 0.950 . S
H465 C441 0.949 . S
H466 C443 0.950 . S
H467 C445 0.950 . S
C468 C469 1.349 . S
C468 C470 1.327 . S
C468 H493 0.950 . S
C469 C468 1.349 . S
C469 C485 1.349 . S
C470 C468 1.327 . S
C470 C489 1.429 . S
C470 H494 0.950 . S
C471 C488 1.574 . S
C471 C490 1.368 . S
C471 H495 0.949 . S
H472 C476 0.949 . S
C473 C474 1.349 . S
C473 C475 1.327 . S
C473 H496 0.950 . S
C474 C473 1.349 . S
C474 C486 1.349 . S
C475 C473 1.327 . S
C475 C491 1.429 . S
C475 H497 0.950 . S
C476 H472 0.949 . S
C476 C484 1.574 . S
C476 C492 1.368 . S
H477 C485 0.950 . S
H478 C483 0.950 . S
H479 C484 0.949 . S
H480 C486 0.950 . S
H481 C487 0.950 . S
H482 C488 0.949 . S
C483 H478 0.950 . S
C483 C485 1.327 . S
C483 C489 1.429 . S
C484 C476 1.574 . S
C484 H479 0.949 . S
C484 C490 1.368 . S
C485 C469 1.349 . S
C485 H477 0.950 . S
C485 C483 1.327 . S
C486 C474 1.349 . S
C486 H480 0.950 . S
C486 C487 1.327 . S
C487 H481 0.950 . S
C487 C486 1.327 . S
C487 C491 1.429 . S
C488 C471 1.574 . S
C488 H482 0.949 . S
C488 C492 1.368 . S
C489 C470 1.429 . S
C489 C483 1.429 . S
C489 C490 1.523 . S
C490 C471 1.368 . S
C490 C484 1.368 . S
C490 C489 1.523 . S
C491 C475 1.429 . S
C491 C487 1.429 . S
C491 C492 1.523 . S
C492 C476 1.368 . S
C492 C488 1.368 . S
C492 C491 1.523 . S
H493 C468 0.950 . S
H494 C470 0.950 . S
H495 C471 0.949 . S
H496 C473 0.950 . S
H497 C475 0.950 . S
C498 C499 1.357 . S
C498 C500 1.327 . S
C498 H523 0.950 . S
C499 C498 1.357 . S
C499 C515 1.341 1_655 S
C500 C498 1.327 . S
C500 C519 1.429 . S
C500 H524 0.950 . S
C501 C518 1.576 . S
C501 C520 1.368 1_455 S
C501 H525 0.949 . S
H502 C506 0.949 . S
C503 C504 1.349 . S
C503 C505 1.327 . S
C503 H526 0.931 1_655 S
C504 C503 1.349 . S
C504 C516 1.349 . S
C505 C503 1.327 . S
C505 C521 1.429 . S
C505 H527 0.950 1_655 S
C506 H502 0.949 . S
C506 C514 1.574 . S
C506 C522 1.368 . S
H507 C515 0.950 . S
H508 C513 0.950 . S
H509 C514 0.949 . S
H510 C516 0.950 . S
H511 C517 0.950 . S
H512 C518 0.971 . S
C513 H508 0.950 . S
C513 C515 1.327 . S
C513 C519 1.429 1_455 S
C514 C506 1.574 . S
C514 H509 0.949 . S
C514 C520 1.368 . S
C515 C499 1.341 1_455 S
C515 H507 0.950 . S
C515 C513 1.327 . S
C516 C504 1.349 . S
C516 H510 0.950 . S
C516 C517 1.327 . S
C517 H511 0.950 . S
C517 C516 1.327 . S
C517 C521 1.429 . S
C518 C501 1.576 . S
C518 H512 0.971 . S
C518 C522 1.345 1_455 S
C519 C500 1.429 . S
C519 C513 1.429 1_655 S
C519 C520 1.523 . S
C520 C501 1.368 1_655 S
C520 C514 1.368 . S
C520 C519 1.523 . S
C521 C505 1.429 . S
C521 C517 1.429 . S
C521 C522 1.523 . S
C522 C506 1.368 . S
C522 C518 1.345 1_655 S
C522 C521 1.523 . S
H523 C498 0.950 . S
H524 C500 0.950 . S
H525 C501 0.949 . S
H526 C503 0.931 1_455 S
H527 C505 0.950 1_455 S
C528 C529 1.349 . S
C528 C530 1.327 . S
C528 H553 0.950 . S
C529 C528 1.349 . S
C529 C545 1.349 1_554 S
C530 C528 1.327 . S
C530 C549 1.429 1_554 S
C530 H554 0.950 . S
C531 C548 1.574 . S
C531 C550 1.368 . S
C531 H555 0.949 . S
H532 C536 0.949 . S
C533 C534 1.349 . S
C533 C535 1.327 . S
C533 H556 0.950 . S
C534 C533 1.349 . S
C534 C546 1.349 1_565 S
C535 C533 1.327 . S
C535 C551 1.429 . S
C535 H557 0.950 . S
C536 H532 0.949 . S
C536 C544 1.574 . S
C536 C552 1.368 . S
H537 C545 0.950 . S
H538 C543 0.950 . S
H539 C544 0.949 . S
H540 C546 0.950 . S
H541 C547 0.950 1_545 S
H542 C548 0.949 . S
C543 H538 0.950 . S
C543 C545 1.327 . S
C543 C549 1.429 . S
C544 C536 1.574 . S
C544 H539 0.949 . S
C544 C550 1.368 . S
C545 C529 1.349 1_556 S
C545 H537 0.950 . S
C545 C543 1.327 . S
C546 C534 1.349 1_545 S
C546 H540 0.950 . S
C546 C547 1.327 1_545 S
C547 H541 0.950 1_565 S
C547 C546 1.327 1_565 S
C547 C551 1.429 . S
C548 C531 1.574 . S
C548 H542 0.949 . S
C548 C552 1.368 . S
C549 C530 1.429 1_556 S
C549 C543 1.429 . S
C549 C550 1.523 . S
C550 C531 1.368 . S
C550 C544 1.368 . S
C550 C549 1.523 . S
C551 C535 1.429 . S
C551 C547 1.429 . S
C551 C552 1.523 . S
C552 C536 1.368 . S
C552 C548 1.368 . S
C552 C551 1.523 . S
H553 C528 0.950 . S
H554 C530 0.950 . S
H555 C531 0.949 . S
H556 C533 0.950 . S
H557 C535 0.950 . S
C558 C559 1.349 . S
C558 C560 1.327 . S
C558 H583 0.950 . S
C559 C558 1.349 . S
C559 C575 1.349 . S
C560 C558 1.327 . S
C560 C579 1.429 1_554 S
C560 H584 0.950 . S
C561 C578 1.574 . S
C561 C580 1.368 . S
C561 H585 0.949 . S
H562 C566 0.949 . S
C563 C564 1.349 . S
C563 C565 1.327 . S
C563 H586 0.950 . S
C564 C563 1.349 . S
C564 C576 1.349 . S
C565 C563 1.327 . S
C565 C581 1.429 . S
C565 H587 0.950 . S
C566 H562 0.949 . S
C566 C574 1.574 . S
C566 C582 1.368 . S
H567 C575 0.950 1_556 S
H568 C573 0.950 . S
H569 C574 0.949 1_554 S
H570 C576 0.950 . S
H571 C577 0.950 . S
H572 C578 0.949 . S
C573 H568 0.950 . S
C573 C575 1.327 1_556 S
C573 C579 1.429 . S
C574 C566 1.574 . S
C574 H569 0.949 1_556 S
C574 C580 1.368 . S
C575 C559 1.349 . S
C575 H567 0.950 1_554 S
C575 C573 1.327 1_554 S
C576 C564 1.349 . S
C576 H570 0.950 . S
C576 C577 1.327 . S
C577 H571 0.950 . S
C577 C576 1.327 . S
C577 C581 1.429 . S
C578 C561 1.574 . S
C578 H572 0.949 . S
C578 C582 1.368 . S
C579 C560 1.429 1_556 S
C579 C573 1.429 . S
C579 C580 1.523 . S
C580 C561 1.368 . S
C580 C574 1.368 . S
C580 C579 1.523 . S
C581 C565 1.429 . S
C581 C577 1.429 . S
C581 C582 1.523 . S
C582 C566 1.368 . S
C582 C578 1.368 . S
C582 C581 1.523 . S
H583 C558 0.950 . S
H584 C560 0.950 . S
H585 C561 0.949 . S
H586 C563 0.950 . S
H587 C565 0.950 . S
C588 C589 1.349 . S
C588 C590 1.327 1_554 S
C588 H613 0.950 . S
C589 C588 1.349 . S
C589 C605 1.349 . S
C590 C588 1.327 1_556 S
C590 C609 1.429 1_556 S
C590 H614 0.950 . S
C591 C608 1.574 . S
C591 C610 1.368 . S
C591 H615 0.949 1_556 S
H592 C596 0.949 . S
C593 C594 1.349 . S
C593 C595 1.327 . S
C593 H616 0.950 . S
C594 C593 1.349 . S
C594 C606 1.349 . S
C595 C593 1.327 . S
C595 C611 1.429 . S
C595 H617 0.950 . S
C596 H592 0.949 . S
C596 C604 1.574 . S
C596 C612 1.368 . S
H597 C605 0.950 . S
H598 C603 0.950 . S
H599 C604 0.949 . S
H600 C606 0.950 . S
H601 C607 0.950 . S
H602 C608 0.949 . S
C603 H598 0.950 . S
C603 C605 1.327 . S
C603 C609 1.429 . S
C604 C596 1.574 . S
C604 H599 0.949 . S
C604 C610 1.368 . S
C605 C589 1.349 . S
C605 H597 0.950 . S
C605 C603 1.327 . S
C606 C594 1.349 . S
C606 H600 0.950 . S
C606 C607 1.327 . S
C607 H601 0.950 . S
C607 C606 1.327 . S
C607 C611 1.429 . S
C608 C591 1.574 . S
C608 H602 0.949 . S
C608 C612 1.368 . S
C609 C590 1.429 1_554 S
C609 C603 1.429 . S
C609 C610 1.523 1_554 S
C610 C591 1.368 . S
C610 C604 1.368 . S
C610 C609 1.523 1_556 S
C611 C595 1.429 . S
C611 C607 1.429 . S
C611 C612 1.523 . S
C612 C596 1.368 . S
C612 C608 1.368 . S
C612 C611 1.523 . S
H613 C588 0.950 . S
H614 C590 0.950 . S
H615 C591 0.949 1_554 S
H616 C593 0.950 . S
H617 C595 0.950 . S
C618 C619 1.347 1_655 S
C618 C620 1.318 1_554 S
C618 H643 0.950 . S
C619 C618 1.347 1_455 S
C619 C635 1.351 . S
C620 C618 1.318 1_556 S
C620 C639 1.425 1_656 S
C620 H644 0.963 . S
C621 C638 1.574 1_554 S
C621 C640 1.368 1_554 S
C621 H645 0.949 . S
H622 C626 0.949 . S
C623 C624 1.349 . S
C623 C625 1.327 . S
C623 H646 0.950 . S
C624 C623 1.349 . S
C624 C636 1.349 . S
C625 C623 1.327 . S
C625 C641 1.429 . S
C625 H647 0.950 . S
C626 H622 0.949 . S
C626 C634 1.574 . S
C626 C642 1.368 . S
H627 C635 0.950 . S
H628 C633 0.950 . S
H629 C634 0.949 . S
H630 C636 0.950 . S
H631 C637 0.950 . S
H632 C638 0.949 . S
C633 H628 0.950 . S
C633 C635 1.327 . S
C633 C639 1.429 . S
C634 C626 1.574 . S
C634 H629 0.949 . S
C634 C640 1.368 . S
C635 C619 1.351 . S
C635 H627 0.950 . S
C635 C633 1.327 . S
C636 C624 1.349 . S
C636 H630 0.950 . S
C636 C637 1.327 . S
C637 H631 0.950 . S
C637 C636 1.327 . S
C637 C641 1.429 . S
C638 C621 1.574 1_556 S
C638 H632 0.949 . S
C638 C642 1.368 . S
C639 C620 1.425 1_454 S
C639 C633 1.429 . S
C639 C640 1.523 1_554 S
C640 C621 1.368 1_556 S
C640 C634 1.368 . S
C640 C639 1.523 1_556 S
C641 C625 1.429 . S
C641 C637 1.429 . S
C641 C642 1.523 . S
C642 C626 1.368 . S
C642 C638 1.368 . S
C642 C641 1.523 . S
H643 C618 0.950 . S
H644 C620 0.963 . S
H645 C621 0.949 . S
H646 C623 0.950 . S
H647 C625 0.950 . S
C648 C649 1.349 . S
C648 C650 1.327 . S
C648 H673 0.950 . S
C649 C648 1.349 . S
C649 C665 1.349 1_455 S
C650 C648 1.327 . S
C650 C669 1.429 1_455 S
C650 H674 0.950 . S
C651 C668 1.574 . S
C651 C670 1.368 . S
C651 H675 0.949 . S
H652 C656 0.949 . S
C653 C654 1.349 . S
C653 C655 1.327 . S
C653 H676 0.950 . S
C654 C653 1.349 . S
C654 C666 1.349 . S
C655 C653 1.327 . S
C655 C671 1.429 . S
C655 H677 0.950 . S
C656 H652 0.949 . S
C656 C664 1.574 . S
C656 C672 1.368 1_455 S
H657 C665 0.950 . S
H658 C663 0.950 . S
H659 C664 0.949 . S
H660 C666 0.950 1_455 S
H661 C667 0.982 . S
H662 C668 0.949 . S
C663 H658 0.950 . S
C663 C665 1.327 . S
C663 C669 1.429 . S
C664 C656 1.574 . S
C664 H659 0.949 . S
C664 C670 1.368 1_455 S
C665 C649 1.349 1_655 S
C665 H657 0.950 . S
C665 C663 1.327 . S
C666 C654 1.349 . S
C666 H660 0.950 1_655 S
C666 C667 1.320 1_655 S
C667 H661 0.982 . S
C667 C666 1.320 1_455 S
C667 C671 1.407 1_455 S
C668 C651 1.574 . S
C668 H662 0.949 . S
C668 C672 1.368 . S
C669 C650 1.429 1_655 S
C669 C663 1.429 . S
C669 C670 1.523 . S
C670 C651 1.368 . S
C670 C664 1.368 1_655 S
C670 C669 1.523 . S
C671 C655 1.429 . S
C671 C667 1.407 1_655 S
C671 C672 1.523 . S
C672 C656 1.368 1_655 S
C672 C668 1.368 . S
C672 C671 1.523 . S
H673 C648 0.950 . S
H674 C650 0.950 . S
H675 C651 0.949 . S
H676 C653 0.950 . S
H677 C655 0.950 . S
C678 C679 1.349 . S
C678 C680 1.327 . S
C678 H703 0.950 . S
C679 C678 1.349 . S
C679 C695 1.349 . S
C680 C678 1.327 . S
C680 C699 1.429 . S
C680 H704 0.950 . S
C681 C698 1.574 . S
C681 C700 1.368 . S
C681 H705 0.949 . S
H682 C686 0.949 . S
C683 C684 1.349 . S
C683 C685 1.327 . S
C683 H706 0.950 . S
C684 C683 1.349 . S
C684 C696 1.349 . S
C685 C683 1.327 . S
C685 C701 1.429 . S
C685 H707 0.950 . S
C686 H682 0.949 . S
C686 C694 1.574 . S
C686 C702 1.368 . S
H687 C695 0.950 . S
H688 C693 0.950 . S
H689 C694 0.949 . S
H690 C696 0.950 . S
H691 C697 0.950 . S
H692 C698 0.949 . S
C693 H688 0.950 . S
C693 C695 1.327 . S
C693 C699 1.429 . S
C694 C686 1.574 . S
C694 H689 0.949 . S
C694 C700 1.368 . S
C695 C679 1.349 . S
C695 H687 0.950 . S
C695 C693 1.327 . S
C696 C684 1.349 . S
C696 H690 0.950 . S
C696 C697 1.327 . S
C697 H691 0.950 . S
C697 C696 1.327 . S
C697 C701 1.429 . S
C698 C681 1.574 . S
C698 H692 0.949 . S
C698 C702 1.368 . S
C699 C680 1.429 . S
C699 C693 1.429 . S
C699 C700 1.523 . S
C700 C681 1.368 . S
C700 C694 1.368 . S
C700 C699 1.523 . S
C701 C685 1.429 . S
C701 C697 1.429 . S
C701 C702 1.523 . S
C702 C686 1.368 . S
C702 C698 1.368 . S
C702 C701 1.523 . S
H703 C678 0.950 . S
H704 C680 0.950 . S
H705 C681 0.949 . S
H706 C683 0.950 . S
H707 C685 0.950 . S
C708 C709 1.349 . S
C708 C710 1.327 . S
C708 H733 0.950 . S
C709 C708 1.349 . S
C709 C725 1.349 . S
C710 C708 1.327 . S
C710 C729 1.429 . S
C710 H734 0.950 . S
C711 C728 1.574 . S
C711 C730 1.368 . S
C711 H735 0.949 . S
H712 C716 0.949 . S
C713 C714 1.349 . S
C713 C715 1.327 . S
C713 H736 0.950 . S
C714 C713 1.349 . S
C714 C726 1.349 . S
C715 C713 1.327 . S
C715 C731 1.429 . S
C715 H737 0.950 . S
C716 H712 0.949 . S
C716 C724 1.574 . S
C716 C732 1.368 . S
H717 C725 0.950 . S
H718 C723 0.950 . S
H719 C724 0.949 . S
H720 C726 0.950 . S
H721 C727 0.950 . S
H722 C728 0.949 . S
C723 H718 0.950 . S
C723 C725 1.327 . S
C723 C729 1.429 . S
C724 C716 1.574 . S
C724 H719 0.949 . S
C724 C730 1.368 . S
C725 C709 1.349 . S
C725 H717 0.950 . S
C725 C723 1.327 . S
C726 C714 1.349 . S
C726 H720 0.950 . S
C726 C727 1.327 . S
C727 H721 0.950 . S
C727 C726 1.327 . S
C727 C731 1.429 . S
C728 C711 1.574 . S
C728 H722 0.949 . S
C728 C732 1.368 . S
C729 C710 1.429 . S
C729 C723 1.429 . S
C729 C730 1.523 . S
C730 C711 1.368 . S
C730 C724 1.368 . S
C730 C729 1.523 . S
C731 C715 1.429 . S
C731 C727 1.429 . S
C731 C732 1.523 . S
C732 C716 1.368 . S
C732 C728 1.368 . S
C732 C731 1.523 . S
H733 C708 0.950 . S
H734 C710 0.950 . S
H735 C711 0.949 . S
H736 C713 0.950 . S
H737 C715 0.950 . S
C738 C739 1.349 . S
C738 C740 1.327 . S
C738 H763 0.950 . S
C739 C738 1.349 . S
C739 C755 1.349 . S
C740 C738 1.327 . S
C740 C759 1.429 . S
C740 H764 0.950 . S
C741 C758 1.574 . S
C741 C760 1.368 . S
C741 H765 0.949 . S
H742 C746 0.949 . S
C743 C744 1.349 . S
C743 C745 1.327 . S
C743 H766 0.950 . S
C744 C743 1.349 . S
C744 C756 1.349 . S
C745 C743 1.327 . S
C745 C761 1.429 . S
C745 H767 0.950 . S
C746 H742 0.949 . S
C746 C754 1.574 . S
C746 C762 1.368 . S
H747 C755 0.950 . S
H748 C753 0.950 . S
H749 C754 0.949 . S
H750 C756 0.950 . S
H751 C757 0.950 . S
H752 C758 0.949 . S
C753 H748 0.950 . S
C753 C755 1.327 . S
C753 C759 1.429 . S
C754 C746 1.574 . S
C754 H749 0.949 . S
C754 C760 1.368 . S
C755 C739 1.349 . S
C755 H747 0.950 . S
C755 C753 1.327 . S
C756 C744 1.349 . S
C756 H750 0.950 . S
C756 C757 1.327 . S
C757 H751 0.950 . S
C757 C756 1.327 . S
C757 C761 1.429 . S
C758 C741 1.574 . S
C758 H752 0.949 . S
C758 C762 1.368 . S
C759 C740 1.429 . S
C759 C753 1.429 . S
C759 C760 1.523 . S
C760 C741 1.368 . S
C760 C754 1.368 . S
C760 C759 1.523 . S
C761 C745 1.429 . S
C761 C757 1.429 . S
C761 C762 1.523 . S
C762 C746 1.368 . S
C762 C758 1.368 . S
C762 C761 1.523 . S
H763 C738 0.950 . S
H764 C740 0.950 . S
H765 C741 0.949 . S
H766 C743 0.950 . S
H767 C745 0.950 . S
C768 C769 1.349 . S
C768 C770 1.327 . S
C768 H793 0.950 . S
C769 C768 1.349 . S
C769 C785 1.349 1_656 S
C770 C768 1.327 . S
C770 C789 1.429 1_655 S
C770 H794 0.950 . S
C771 C788 1.574 . S
C771 C790 1.368 . S
C771 H795 0.949 . S
H772 C776 0.949 . S
C773 C774 1.349 . S
C773 C775 1.327 . S
C773 H796 0.950 . S
C774 C773 1.349 . S
C774 C786 1.307 1_455 S
C775 C773 1.327 . S
C775 C791 1.429 . S
C775 H797 0.950 . S
C776 H772 0.949 . S
C776 C784 1.574 . S
C776 C792 1.368 1_655 S
H777 C785 0.950 . S
H778 C783 0.950 . S
H779 C784 0.949 . S
H780 C786 0.985 . S
H781 C787 0.950 . S
H782 C788 0.949 . S
C783 H778 0.950 . S
C783 C785 1.327 1_556 S
C783 C789 1.429 . S
C784 C776 1.574 . S
C784 H779 0.949 . S
C784 C790 1.368 1_655 S
C785 C769 1.349 1_454 S
C785 H777 0.950 . S
C785 C783 1.327 1_554 S
C786 C774 1.307 1_655 S
C786 H780 0.985 . S
C786 C787 1.338 . S
C787 H781 0.950 . S
C787 C786 1.338 . S
C787 C791 1.429 1_655 S
C788 C771 1.574 . S
C788 H782 0.949 . S
C788 C792 1.368 . S
C789 C770 1.429 1_455 S
C789 C783 1.429 . S
C789 C790 1.523 . S
C790 C771 1.368 . S
C790 C784 1.368 1_455 S
C790 C789 1.523 . S
C791 C775 1.429 . S
C791 C787 1.429 1_455 S
C791 C792 1.523 . S
C792 C776 1.368 1_455 S
C792 C788 1.368 . S
C792 C791 1.523 . S
H793 C768 0.950 . S
H794 C770 0.950 . S
H795 C771 0.949 . S
H796 C773 0.950 . S
H797 C775 0.950 . S
C798 C799 1.349 . S
C798 C800 1.327 . S
C798 H823 0.950 . S
C799 C798 1.349 . S
C799 C815 1.349 . S
C800 C798 1.327 . S
C800 C819 1.429 . S
C800 H824 0.950 . S
C801 C818 1.574 . S
C801 C820 1.368 . S
C801 H825 0.949 . S
H802 C806 0.949 . S
C803 C804 1.349 1_565 S
C803 C805 1.327 . S
C803 H826 0.950 . S
C804 C803 1.349 1_545 S
C804 C816 1.349 . S
C805 C803 1.327 . S
C805 C821 1.429 . S
C805 H827 0.950 . S
C806 H802 0.949 . S
C806 C814 1.574 . S
C806 C822 1.368 . S
H807 C815 0.950 . S
H808 C813 0.950 . S
H809 C814 0.949 . S
H810 C816 0.950 . S
H811 C817 0.950 . S
H812 C818 0.949 . S
C813 H808 0.950 . S
C813 C815 1.327 . S
C813 C819 1.429 . S
C814 C806 1.574 . S
C814 H809 0.949 . S
C814 C820 1.368 . S
C815 C799 1.349 . S
C815 H807 0.950 . S
C815 C813 1.327 . S
C816 C804 1.349 . S
C816 H810 0.950 . S
C816 C817 1.327 . S
C817 H811 0.950 . S
C817 C816 1.327 . S
C817 C821 1.429 1_545 S
C818 C801 1.574 . S
C818 H812 0.949 . S
C818 C822 1.368 . S
C819 C800 1.429 . S
C819 C813 1.429 . S
C819 C820 1.523 . S
C820 C801 1.368 . S
C820 C814 1.368 . S
C820 C819 1.523 . S
C821 C805 1.429 . S
C821 C817 1.429 1_565 S
C821 C822 1.523 . S
C822 C806 1.368 . S
C822 C818 1.368 . S
C822 C821 1.523 . S
H823 C798 0.950 . S
H824 C800 0.950 . S
H825 C801 0.949 . S
H826 C803 0.950 . S
H827 C805 0.950 . S
C828 C829 1.349 . S
C828 C830 1.327 . S
C828 H853 0.950 . S
C829 C828 1.349 . S
C829 C845 1.349 . S
C830 C828 1.327 . S
C830 C849 1.429 . S
C830 H854 0.950 . S
C831 C848 1.574 . S
C831 C850 1.368 . S
C831 H855 0.949 . S
H832 C836 0.949 . S
C833 C834 1.349 . S
C833 C835 1.327 . S
C833 H856 0.950 . S
C834 C833 1.349 . S
C834 C846 1.349 . S
C835 C833 1.327 . S
C835 C851 1.429 . S
C835 H857 0.950 . S
C836 H832 0.949 . S
C836 C844 1.574 . S
C836 C852 1.368 . S
H837 C845 0.950 1_554 S
H838 C843 0.950 . S
H839 C844 0.949 . S
H840 C846 0.950 . S
H841 C847 0.950 . S
H842 C848 0.949 . S
C843 H838 0.950 . S
C843 C845 1.327 . S
C843 C849 1.429 . S
C844 C836 1.574 . S
C844 H839 0.949 . S
C844 C850 1.368 . S
C845 C829 1.349 . S
C845 H837 0.950 1_556 S
C845 C843 1.327 . S
C846 C834 1.349 . S
C846 H840 0.950 . S
C846 C847 1.327 . S
C847 H841 0.950 . S
C847 C846 1.327 . S
C847 C851 1.429 . S
C848 C831 1.574 . S
C848 H842 0.949 . S
C848 C852 1.368 . S
C849 C830 1.429 . S
C849 C843 1.429 . S
C849 C850 1.523 . S
C850 C831 1.368 . S
C850 C844 1.368 . S
C850 C849 1.523 . S
C851 C835 1.429 . S
C851 C847 1.429 . S
C851 C852 1.523 . S
C852 C836 1.368 . S
C852 C848 1.368 . S
C852 C851 1.523 . S
H853 C828 0.950 . S
H854 C830 0.950 . S
H855 C831 0.949 . S
H856 C833 0.950 . S
H857 C835 0.950 . S
C858 C859 1.349 . S
C858 C860 1.327 . S
C858 H883 0.950 . S
C859 C858 1.349 . S
C859 C875 1.348 1_556 S
C860 C858 1.327 . S
C860 C879 1.429 . S
C860 H884 0.950 . S
C861 C878 1.574 . S
C861 C880 1.368 . S
C861 H885 0.949 . S
H862 C866 0.949 . S
C863 C864 1.349 . S
C863 C865 1.327 . S
C863 H886 0.950 . S
C864 C863 1.349 . S
C864 C876 1.349 . S
C865 C863 1.327 . S
C865 C881 1.429 . S
C865 H887 0.950 . S
C866 H862 0.949 . S
C866 C874 1.574 . S
C866 C882 1.368 . S
H867 C875 0.953 . S
H868 C873 0.950 . S
H869 C874 0.949 . S
H870 C876 0.950 . S
H871 C877 0.950 . S
H872 C878 0.949 . S
C873 H868 0.950 . S
C873 C875 1.326 1_556 S
C873 C879 1.429 . S
C874 C866 1.574 . S
C874 H869 0.949 . S
C874 C880 1.368 . S
C875 C859 1.348 1_554 S
C875 H867 0.953 . S
C875 C873 1.326 1_554 S
C876 C864 1.349 . S
C876 H870 0.950 . S
C876 C877 1.327 . S
C877 H871 0.950 . S
C877 C876 1.327 . S
C877 C881 1.429 . S
C878 C861 1.574 . S
C878 H872 0.949 . S
C878 C882 1.368 . S
C879 C860 1.429 . S
C879 C873 1.429 . S
C879 C880 1.523 . S
C880 C861 1.368 . S
C880 C874 1.368 . S
C880 C879 1.523 . S
C881 C865 1.429 . S
C881 C877 1.429 . S
C881 C882 1.523 . S
C882 C866 1.368 . S
C882 C878 1.368 . S
C882 C881 1.523 . S
H883 C858 0.950 . S
H884 C860 0.950 . S
H885 C861 0.949 . S
H886 C863 0.950 . S
H887 C865 0.950 . S
C888 C889 1.382 . S
C888 C890 1.327 . S
C888 H913 0.950 . S
C889 C888 1.382 . S
C889 C905 1.317 1_455 S
C890 C888 1.327 . S
C890 C909 1.429 . S
C890 H914 0.950 . S
C891 C908 1.574 . S
C891 C910 1.368 1_655 S
C891 H915 0.949 . S
H892 C896 0.949 1_556 S
C893 C894 1.349 1_655 S
C893 C895 1.327 1_556 S
C893 H916 0.950 . S
C894 C893 1.349 1_455 S
C894 C906 1.349 . S
C895 C893 1.327 1_554 S
C895 C911 1.429 1_654 S
C895 H917 0.950 . S
C896 H892 0.949 1_554 S
C896 C904 1.574 . S
C896 C912 1.368 . S
H897 C905 0.950 . S
H898 C903 0.950 . S
H899 C904 0.949 . S
H900 C906 0.950 . S
H901 C907 0.950 . S
H902 C908 0.949 . S
C903 H898 0.950 . S
C903 C905 1.327 . S
C903 C909 1.429 1_655 S
C904 C896 1.574 . S
C904 H899 0.949 . S
C904 C910 1.368 . S
C905 C889 1.317 1_655 S
C905 H897 0.950 . S
C905 C903 1.327 . S
C906 C894 1.349 . S
C906 H900 0.950 . S
C906 C907 1.327 . S
C907 H901 0.950 . S
C907 C906 1.327 . S
C907 C911 1.429 . S
C908 C891 1.574 . S
C908 H902 0.949 . S
C908 C912 1.368 1_655 S
C909 C890 1.429 . S
C909 C903 1.429 1_455 S
C909 C910 1.523 . S
C910 C891 1.368 1_455 S
C910 C904 1.368 . S
C910 C909 1.523 . S
C911 C895 1.429 1_456 S
C911 C907 1.429 . S
C911 C912 1.523 1_556 S
C912 C896 1.368 . S
C912 C908 1.368 1_455 S
C912 C911 1.523 1_554 S
H913 C888 0.950 . S
H914 C890 0.950 . S
H915 C891 0.949 . S
H916 C893 0.950 . S
H917 C895 0.950 . S
C918 C919 1.349 . S
C918 C920 1.327 . S
C918 H943 0.950 . S
C919 C918 1.349 . S
C919 C935 1.349 . S
C920 C918 1.327 . S
C920 C939 1.429 . S
C920 H944 0.950 . S
C921 C938 1.574 . S
C921 C940 1.368 . S
C921 H945 0.949 . S
H922 C926 0.949 . S
C923 C924 1.349 . S
C923 C925 1.327 . S
C923 H946 0.950 . S
C924 C923 1.349 . S
C924 C936 1.349 . S
C925 C923 1.327 . S
C925 C941 1.429 1_556 S
C925 H947 0.950 1_556 S
C926 H922 0.949 . S
C926 C934 1.574 . S
C926 C942 1.368 . S
H927 C935 0.950 . S
H928 C933 0.950 . S
H929 C934 0.949 . S
H930 C936 0.950 . S
H931 C937 0.950 . S
H932 C938 0.949 . S
C933 H928 0.950 . S
C933 C935 1.327 . S
C933 C939 1.429 . S
C934 C926 1.574 . S
C934 H929 0.949 . S
C934 C940 1.368 . S
C935 C919 1.349 . S
C935 H927 0.950 . S
C935 C933 1.327 . S
C936 C924 1.349 . S
C936 H930 0.950 . S
C936 C937 1.327 . S
C937 H931 0.950 . S
C937 C936 1.327 . S
C937 C941 1.429 1_556 S
C938 C921 1.574 . S
C938 H932 0.949 . S
C938 C942 1.368 . S
C939 C920 1.429 . S
C939 C933 1.429 . S
C939 C940 1.523 . S
C940 C921 1.368 . S
C940 C934 1.368 . S
C940 C939 1.523 . S
C941 C925 1.429 1_554 S
C941 C937 1.429 1_554 S
C941 C942 1.523 . S
C942 C926 1.368 . S
C942 C938 1.368 . S
C942 C941 1.523 . S
H943 C918 0.950 . S
H944 C920 0.950 . S
H945 C921 0.949 . S
H946 C923 0.950 . S
H947 C925 0.950 1_554 S
C948 C949 1.349 . S
C948 C950 1.327 . S
C948 H973 0.950 . S
C949 C948 1.349 . S
C949 C965 1.349 . S
C950 C948 1.327 . S
C950 C969 1.429 . S
C950 H974 0.950 . S
C951 C968 1.574 . S
C951 C970 1.368 . S
C951 H975 0.949 . S
H952 C956 0.949 . S
C953 C954 1.349 . S
C953 C955 1.327 . S
C953 H976 0.950 . S
C954 C953 1.349 . S
C954 C966 1.349 . S
C955 C953 1.327 . S
C955 C971 1.429 . S
C955 H977 0.950 . S
C956 H952 0.949 . S
C956 C964 1.574 1_556 S
C956 C972 1.368 . S
H957 C965 0.950 . S
H958 C963 0.950 . S
H959 C964 0.943 1_556 S
H960 C966 0.950 . S
H961 C967 0.950 . S
H962 C968 0.949 . S
C963 H958 0.950 . S
C963 C965 1.327 . S
C963 C969 1.429 . S
C964 C956 1.574 1_554 S
C964 H959 0.943 1_554 S
C964 C970 1.368 . S
C965 C949 1.349 . S
C965 H957 0.950 . S
C965 C963 1.327 . S
C966 C954 1.349 . S
C966 H960 0.950 . S
C966 C967 1.327 . S
C967 H961 0.950 . S
C967 C966 1.327 . S
C967 C971 1.429 . S
C968 C951 1.574 . S
C968 H962 0.949 . S
C968 C972 1.368 1_554 S
C969 C950 1.429 . S
C969 C963 1.429 . S
C969 C970 1.523 . S
C970 C951 1.368 . S
C970 C964 1.368 . S
C970 C969 1.523 . S
C971 C955 1.429 . S
C971 C967 1.429 . S
C971 C972 1.523 . S
C972 C956 1.368 . S
C972 C968 1.368 1_556 S
C972 C971 1.523 . S
H973 C948 0.950 . S
H974 C950 0.950 . S
H975 C951 0.949 . S
H976 C953 0.950 . S
H977 C955 0.950 . S
C978 C979 1.349 . S
C978 C980 1.327 . S
C978 H1003 0.950 . S
C979 C978 1.349 . S
C979 C995 1.349 . S
C980 C978 1.327 . S
C980 C999 1.429 . S
C980 H1004 0.950 . S
C981 C998 1.574 . S
C981 C1000 1.368 . S
C981 H1005 0.949 . S
H982 C986 0.949 . S
C983 C984 1.349 . S
C983 C985 1.327 . S
C983 H1006 0.950 . S
C984 C983 1.349 . S
C984 C996 1.349 . S
C985 C983 1.327 . S
C985 C1001 1.429 . S
C985 H1007 0.950 . S
C986 H982 0.949 . S
C986 C994 1.574 1_556 S
C986 C1002 1.368 . S
H987 C995 0.950 . S
H988 C993 0.950 . S
H989 C994 0.949 . S
H990 C996 0.950 . S
H991 C997 0.950 . S
H992 C998 0.949 . S
C993 H988 0.950 . S
C993 C995 1.327 . S
C993 C999 1.429 . S
C994 C986 1.574 1_554 S
C994 H989 0.949 . S
C994 C1000 1.368 . S
C995 C979 1.349 . S
C995 H987 0.950 . S
C995 C993 1.327 . S
C996 C984 1.349 . S
C996 H990 0.950 . S
C996 C997 1.327 . S
C997 H991 0.950 . S
C997 C996 1.327 . S
C997 C1001 1.429 . S
C998 C981 1.574 . S
C998 H992 0.949 . S
C998 C1002 1.368 1_554 S
C999 C980 1.429 . S
C999 C993 1.429 . S
C999 C1000 1.523 . S
C1000 C981 1.368 . S
C1000 C994 1.368 . S
C1000 C999 1.523 . S
C1001 C985 1.429 . S
C1001 C997 1.429 . S
C1001 C1002 1.523 . S
C1002 C986 1.368 . S
C1002 C998 1.368 1_556 S
C1002 C1001 1.523 . S
H1003 C978 0.950 . S
H1004 C980 0.950 . S
H1005 C981 0.949 . S
H1006 C983 0.950 . S
H1007 C985 0.950 . S
C1008 C1009 1.369 . S
C1008 C1010 1.327 . S
C1008 H1033 0.950 . S
C1009 C1008 1.369 . S
C1009 C1025 1.331 1_655 S
C1010 C1008 1.327 . S
C1010 C1029 1.429 . S
C1010 H1034 0.950 . S
C1011 C1028 1.574 . S
C1011 C1030 1.368 1_455 S
C1011 H1035 0.949 . S
H1012 C1016 0.949 . S
C1013 C1014 1.349 . S
C1013 C1015 1.327 . S
C1013 H1036 0.950 1_655 S
C1014 C1013 1.349 . S
C1014 C1026 1.349 . S
C1015 C1013 1.327 . S
C1015 C1031 1.430 . S
C1015 H1037 0.948 1_655 S
C1016 H1012 0.949 . S
C1016 C1024 1.574 . S
C1016 C1032 1.368 . S
H1017 C1025 0.950 . S
H1018 C1023 0.950 . S
H1019 C1024 0.949 . S
H1020 C1026 0.950 . S
H1021 C1027 0.950 . S
H1022 C1028 0.949 . S
C1023 H1018 0.950 . S
C1023 C1025 1.327 . S
C1023 C1029 1.429 1_455 S
C1024 C1016 1.574 . S
C1024 H1019 0.949 . S
C1024 C1030 1.368 . S
C1025 C1009 1.331 1_455 S
C1025 H1017 0.950 . S
C1025 C1023 1.327 . S
C1026 C1014 1.349 . S
C1026 H1020 0.950 . S
C1026 C1027 1.327 . S
C1027 H1021 0.950 . S
C1027 C1026 1.327 . S
C1027 C1031 1.429 . S
C1028 C1011 1.574 . S
C1028 H1022 0.949 . S
C1028 C1032 1.368 1_455 S
C1029 C1010 1.429 . S
C1029 C1023 1.429 1_655 S
C1029 C1030 1.523 . S
C1030 C1011 1.368 1_655 S
C1030 C1024 1.368 . S
C1030 C1029 1.523 . S
C1031 C1015 1.430 . S
C1031 C1027 1.429 . S
C1031 C1032 1.523 . S
C1032 C1016 1.368 . S
C1032 C1028 1.368 1_655 S
C1032 C1031 1.523 . S
H1033 C1008 0.950 . S
H1034 C1010 0.950 . S
H1035 C1011 0.949 . S
H1036 C1013 0.950 1_455 S
H1037 C1015 0.948 1_455 S
C1038 C1039 1.349 . S
C1038 C1040 1.327 . S
C1038 H1063 0.950 . S
C1039 C1038 1.349 . S
C1039 C1055 1.349 . S
C1040 C1038 1.327 . S
C1040 C1059 1.429 . S
C1040 H1064 0.950 . S
C1041 C1058 1.574 . S
C1041 C1060 1.368 . S
C1041 H1065 0.949 . S
H1042 C1046 0.949 . S
C1043 C1044 1.349 . S
C1043 C1045 1.327 . S
C1043 H1066 0.950 1_565 S
C1044 C1043 1.349 . S
C1044 C1056 1.349 . S
C1045 C1043 1.327 . S
C1045 C1061 1.429 . S
C1045 H1067 0.950 . S
C1046 H1042 0.949 . S
C1046 C1054 1.574 . S
C1046 C1062 1.368 . S
H1047 C1055 0.950 . S
H1048 C1053 0.950 . S
H1049 C1054 0.949 . S
H1050 C1056 0.950 . S
H1051 C1057 0.950 . S
H1052 C1058 0.949 . S
C1053 H1048 0.950 . S
C1053 C1055 1.327 . S
C1053 C1059 1.429 . S
C1054 C1046 1.574 . S
C1054 H1049 0.949 . S
C1054 C1060 1.368 . S
C1055 C1039 1.349 . S
C1055 H1047 0.950 . S
C1055 C1053 1.327 . S
C1056 C1044 1.349 . S
C1056 H1050 0.950 . S
C1056 C1057 1.327 . S
C1057 H1051 0.950 . S
C1057 C1056 1.327 . S
C1057 C1061 1.429 . S
C1058 C1041 1.574 . S
C1058 H1052 0.949 . S
C1058 C1062 1.368 . S
C1059 C1040 1.429 . S
C1059 C1053 1.429 . S
C1059 C1060 1.523 . S
C1060 C1041 1.368 . S
C1060 C1054 1.368 . S
C1060 C1059 1.523 . S
C1061 C1045 1.429 . S
C1061 C1057 1.429 . S
C1061 C1062 1.523 . S
C1062 C1046 1.368 . S
C1062 C1058 1.368 . S
C1062 C1061 1.523 . S
H1063 C1038 0.950 . S
H1064 C1040 0.950 . S
H1065 C1041 0.949 . S
H1066 C1043 0.950 1_545 S
H1067 C1045 0.950 . S
C1068 C1069 1.349 . S
C1068 C1070 1.327 . S
C1068 H1093 0.950 . S
C1069 C1068 1.349 . S
C1069 C1085 1.349 . S
C1070 C1068 1.327 . S
C1070 C1089 1.429 . S
C1070 H1094 0.950 . S
C1071 C1088 1.574 . S
C1071 C1090 1.368 . S
C1071 H1095 0.949 . S
H1072 C1076 0.949 . S
C1073 C1074 1.349 . S
C1073 C1075 1.327 . S
C1073 H1096 0.950 . S
C1074 C1073 1.349 . S
C1074 C1086 1.349 . S
C1075 C1073 1.327 . S
C1075 C1091 1.429 . S
C1075 H1097 0.950 . S
C1076 H1072 0.949 . S
C1076 C1084 1.574 . S
C1076 C1092 1.368 . S
H1077 C1085 0.950 . S
H1078 C1083 0.950 . S
H1079 C1084 0.949 . S
H1080 C1086 0.950 . S
H1081 C1087 0.950 . S
H1082 C1088 0.949 . S
C1083 H1078 0.950 . S
C1083 C1085 1.327 . S
C1083 C1089 1.429 . S
C1084 C1076 1.574 . S
C1084 H1079 0.949 . S
C1084 C1090 1.368 . S
C1085 C1069 1.349 . S
C1085 H1077 0.950 . S
C1085 C1083 1.327 . S
C1086 C1074 1.349 . S
C1086 H1080 0.950 . S
C1086 C1087 1.327 . S
C1087 H1081 0.950 . S
C1087 C1086 1.327 . S
C1087 C1091 1.429 . S
C1088 C1071 1.574 . S
C1088 H1082 0.949 . S
C1088 C1092 1.368 . S
C1089 C1070 1.429 . S
C1089 C1083 1.429 . S
C1089 C1090 1.523 . S
C1090 C1071 1.368 . S
C1090 C1084 1.368 . S
C1090 C1089 1.523 . S
C1091 C1075 1.429 . S
C1091 C1087 1.429 . S
C1091 C1092 1.523 . S
C1092 C1076 1.368 . S
C1092 C1088 1.368 . S
C1092 C1091 1.523 . S
H1093 C1068 0.950 . S
H1094 C1070 0.950 . S
H1095 C1071 0.949 . S
H1096 C1073 0.950 . S
H1097 C1075 0.950 . S
C1098 C1099 1.349 . S
C1098 C1100 1.327 . S
C1098 H1123 0.950 . S
C1099 C1098 1.349 . S
C1099 C1115 1.349 . S
C1100 C1098 1.327 . S
C1100 C1119 1.429 . S
C1100 H1124 0.950 . S
C1101 C1118 1.574 . S
C1101 C1120 1.368 . S
C1101 H1125 0.949 . S
H1102 C1106 0.949 . S
C1103 C1104 1.349 . S
C1103 C1105 1.327 . S
C1103 H1126 0.950 . S
C1104 C1103 1.349 . S
C1104 C1116 1.349 . S
C1105 C1103 1.327 . S
C1105 C1121 1.429 . S
C1105 H1127 0.950 . S
C1106 H1102 0.949 . S
C1106 C1114 1.574 . S
C1106 C1122 1.368 . S
H1107 C1115 0.950 . S
H1108 C1113 0.950 . S
H1109 C1114 0.949 . S
H1110 C1116 0.950 . S
H1111 C1117 0.950 . S
H1112 C1118 0.949 . S
C1113 H1108 0.950 . S
C1113 C1115 1.327 . S
C1113 C1119 1.429 . S
C1114 C1106 1.574 . S
C1114 H1109 0.949 . S
C1114 C1120 1.368 . S
C1115 C1099 1.349 . S
C1115 H1107 0.950 . S
C1115 C1113 1.327 . S
C1116 C1104 1.349 . S
C1116 H1110 0.950 . S
C1116 C1117 1.327 . S
C1117 H1111 0.950 . S
C1117 C1116 1.327 . S
C1117 C1121 1.429 . S
C1118 C1101 1.574 . S
C1118 H1112 0.949 . S
C1118 C1122 1.368 . S
C1119 C1100 1.429 . S
C1119 C1113 1.429 . S
C1119 C1120 1.523 . S
C1120 C1101 1.368 . S
C1120 C1114 1.368 . S
C1120 C1119 1.523 . S
C1121 C1105 1.429 . S
C1121 C1117 1.429 . S
C1121 C1122 1.523 . S
C1122 C1106 1.368 . S
C1122 C1118 1.368 . S
C1122 C1121 1.523 . S
H1123 C1098 0.950 . S
H1124 C1100 0.950 . S
H1125 C1101 0.949 . S
H1126 C1103 0.950 . S
H1127 C1105 0.950 . S
C409 C241 1.764 . S
C414 C298 1.779 . S
C444 C328 1.682 . S
C439 C277 1.673 . S
C474 N362 1.694 . S
C469 C169 1.697 . S
C504 N392 1.266 . S
C499 C205 1.289 1_655 S
C534 C289 1.785 1_565 S
C529 C97 1.724 . S
C559 C133 1.660 . S
C564 C319 1.681 . S
C589 C25 1.650 . S
C594 N354 1.694 . S
C619 C61 1.287 . S
C624 N384 1.268 . S
C654 C304 0.715 . S
C649 C211 0.761 . S
C684 C334 0.320 . S
C679 C247 0.430 . S
C714 C375 0.208 . S
C709 C253 0.228 . S
C739 C175 0.396 . S
C744 C405 0.376 . S
C769 C67 0.791 1_655 S
C774 C315 0.708 . S
C804 C345 0.320 . S
C799 C103 0.553 . S
C834 C364 0.208 . S
C829 C109 0.270 . S
C859 C31 0.565 . S
C864 C394 0.381 . S
C889 C181 1.613 . S
C894 N294 1.637 . S
C919 C217 1.761 . S
C924 N324 1.782 . S
C954 C349 1.810 . S
C949 C283 1.732 . S
C984 C379 2.100 . S
C979 C145 2.031 . S
C1009 C37 1.614 1_655 S
C1014 N302 1.640 . S
C1044 N332 1.783 . S
C1039 C73 1.738 . S
C1074 C358 1.811 . S
C1069 C139 1.713 . S
C1099 C1 1.997 . S
C1104 C388 2.105 . S
