# Generated by pormake.
# Topology ctn, (3,4)-cn, num edge types: 1
# Building blocks:
#     Node 0, Type 0, BuildingBlock: BETDAH_clean_linker_0, # of connection points: 3
#     Node 1, Type 0, BuildingBlock: BETDAH_clean_linker_0, # of connection points: 3
#     Node 2, Type 0, BuildingBlock: BETDAH_clean_linker_0, # of connection points: 3
#     Node 3, Type 0, BuildingBlock: BETDAH_clean_linker_0, # of connection points: 3
#     Node 4, Type 0, BuildingBlock: BETDAH_clean_linker_0, # of connection points: 3
#     Node 5, Type 0, BuildingBlock: BETDAH_clean_linker_0, # of connection points: 3
#     Node 6, Type 0, BuildingBlock: BETDAH_clean_linker_0, # of connection points: 3
#     Node 7, Type 0, BuildingBlock: BETDAH_clean_linker_0, # of connection points: 3
#     Node 8, Type 0, BuildingBlock: BETDAH_clean_linker_0, # of connection points: 3
#     Node 9, Type 0, BuildingBlock: BETDAH_clean_linker_0, # of connection points: 3
#     Node 10, Type 0, BuildingBlock: BETDAH_clean_linker_0, # of connection points: 3
#     Node 11, Type 0, BuildingBlock: BETDAH_clean_linker_0, # of connection points: 3
#     Node 12, Type 0, BuildingBlock: BETDAH_clean_linker_0, # of connection points: 3
#     Node 13, Type 0, BuildingBlock: BETDAH_clean_linker_0, # of connection points: 3
#     Node 14, Type 0, BuildingBlock: BETDAH_clean_linker_0, # of connection points: 3
#     Node 15, Type 0, BuildingBlock: BETDAH_clean_linker_0, # of connection points: 3
#     Node 16, Type 1, BuildingBlock: NAHDIM_clean_sbu_0, # of connection points: 4
#     Node 17, Type 1, BuildingBlock: NAHDIM_clean_sbu_0, # of connection points: 4
#     Node 18, Type 1, BuildingBlock: NAHDIM_clean_sbu_0, # of connection points: 4
#     Node 19, Type 1, BuildingBlock: NAHDIM_clean_sbu_0, # of connection points: 4
#     Node 20, Type 1, BuildingBlock: NAHDIM_clean_sbu_0, # of connection points: 4
#     Node 21, Type 1, BuildingBlock: NAHDIM_clean_sbu_0, # of connection points: 4
#     Node 22, Type 1, BuildingBlock: NAHDIM_clean_sbu_0, # of connection points: 4
#     Node 23, Type 1, BuildingBlock: NAHDIM_clean_sbu_0, # of connection points: 4
#     Node 24, Type 1, BuildingBlock: NAHDIM_clean_sbu_0, # of connection points: 4
#     Node 25, Type 1, BuildingBlock: NAHDIM_clean_sbu_0, # of connection points: 4
#     Node 26, Type 1, BuildingBlock: NAHDIM_clean_sbu_0, # of connection points: 4
#     Node 27, Type 1, BuildingBlock: NAHDIM_clean_sbu_0, # of connection points: 4
#     Edge 28, Type (0, 1), None
#     Edge 29, Type (0, 1), None
#     Edge 30, Type (0, 1), None
#     Edge 31, Type (0, 1), None
#     Edge 32, Type (0, 1), None
#     Edge 33, Type (0, 1), None
#     Edge 34, Type (0, 1), None
#     Edge 35, Type (0, 1), None
#     Edge 36, Type (0, 1), None
#     Edge 37, Type (0, 1), None
#     Edge 38, Type (0, 1), None
#     Edge 39, Type (0, 1), None
#     Edge 40, Type (0, 1), None
#     Edge 41, Type (0, 1), None
#     Edge 42, Type (0, 1), None
#     Edge 43, Type (0, 1), None
#     Edge 44, Type (0, 1), None
#     Edge 45, Type (0, 1), None
#     Edge 46, Type (0, 1), None
#     Edge 47, Type (0, 1), None
#     Edge 48, Type (0, 1), None
#     Edge 49, Type (0, 1), None
#     Edge 50, Type (0, 1), None
#     Edge 51, Type (0, 1), None
#     Edge 52, Type (0, 1), None
#     Edge 53, Type (0, 1), None
#     Edge 54, Type (0, 1), None
#     Edge 55, Type (0, 1), None
#     Edge 56, Type (0, 1), None
#     Edge 57, Type (0, 1), None
#     Edge 58, Type (0, 1), None
#     Edge 59, Type (0, 1), None
#     Edge 60, Type (0, 1), None
#     Edge 61, Type (0, 1), None
#     Edge 62, Type (0, 1), None
#     Edge 63, Type (0, 1), None
#     Edge 64, Type (0, 1), None
#     Edge 65, Type (0, 1), None
#     Edge 66, Type (0, 1), None
#     Edge 67, Type (0, 1), None
#     Edge 68, Type (0, 1), None
#     Edge 69, Type (0, 1), None
#     Edge 70, Type (0, 1), None
#     Edge 71, Type (0, 1), None
#     Edge 72, Type (0, 1), None
#     Edge 73, Type (0, 1), None
#     Edge 74, Type (0, 1), None
#     Edge 75, Type (0, 1), None
# Relax obj value: 0.054
# Max RMSD: 0.152
# Mean RMSD: 0.093
data_MOF--net-ctn--node1-NAHDIM_clean_sbu_0--node2-BETDAH_clean_linker_0--edge1-none
_symmetry_space_group_name_H-M    P1
_symmetry_Int_Tables_number       1
_symmetry_cell_setting            triclinic
loop_
_symmetry_equiv_pos_as_xyz
'x, y, z'
_cell_length_a     23.130092
_cell_length_b     23.941058
_cell_length_c     23.500839
_cell_angle_alpha  104.56523
_cell_angle_beta   89.666174
_cell_angle_gamma 99.279732
loop_
_atom_site_label
_atom_site_type_symbol
_atom_site_fract_x
_atom_site_fract_y
_atom_site_fract_z
_atom_type_partial_charge
H0 H 0.13187 0.99156 0.17179 0.0
H1 H 0.10222 0.00016 0.99344 0.0
H2 H 0.98086 0.05731 0.12444 0.0
C3 C 0.10643 0.00364 0.13954 0.0
C4 C 0.05519 0.02751 0.15628 0.0
C5 C 0.1243 -0.00575 0.08093 0.0
C6 C 0.0905 0.00912 0.03919 0.0
C7 C 0.03907 0.03182 0.05517 0.0
C8 C 0.02187 0.04143 0.11345 0.0
N9 N 0.99972 0.03577 0.01117 0.0
C10 C 1.0037 0.08476 0.98917 0.0
H11 H 0.33073 0.64068 0.33058 0.0
H12 H 0.40825 0.76249 0.23245 0.0
H13 H 0.24705 0.64826 0.17004 0.0
C14 C 0.32963 0.65978 0.29347 0.0
C15 C 0.28184 0.641 0.25232 0.0
C16 C 0.37487 0.70507 0.2874 0.0
C17 C 0.37276 0.72937 0.23894 0.0
C18 C 0.32721 0.70769 0.1963 0.0
C19 C 0.28184 0.66466 0.20371 0.0
N20 N 0.32977 0.72236 0.14176 0.0
C21 C 0.33533 0.77899 0.1357 0.0
H22 H 0.06921 0.3742 0.07121 0.0
H23 H 0.03709 0.55185 0.10567 0.0
H24 H 1.00263 0.43794 0.93282 0.0
C25 C 0.05315 0.40853 0.0565 0.0
C26 C 0.03352 0.39832 0.99759 0.0
C27 C 0.05436 0.46399 0.0958 0.0
C28 C 0.03469 0.50856 0.07628 0.0
C29 C 0.01624 0.49899 0.01762 0.0
C30 C 0.01564 0.44418 0.97853 0.0
N31 N 0.00718 0.54686 0.99598 0.0
C32 C 0.95198 0.56106 0.99147 0.0
H33 H 0.85468 0.85686 0.12717 0.0
H34 H 0.71473 0.74511 0.18567 0.0
H35 H 0.80078 0.90221 0.30632 0.0
C36 C 0.82583 0.84813 0.16158 0.0
C37 C 0.83273 0.88619 0.21802 0.0
C38 C 0.78386 0.7971 0.14981 0.0
C39 C 0.74672 0.78493 0.1944 0.0
C40 C 0.75255 0.82373 0.25077 0.0
C41 C 0.79597 0.87342 0.2623 0.0
N42 N 0.71863 0.81291 0.29842 0.0
C43 C 0.6623 0.78121 0.2944 0.0
H44 H 0.1 0.07568 0.41564 0.0
H45 H 0.14313 0.03078 0.57396 0.0
H46 H 0.98071 0.94836 0.47927 0.0
C47 C 0.08916 0.04955 0.44701 0.0
C48 C 0.0359 0.01052 0.4407 0.0
C49 C 0.12853 0.05543 0.49388 0.0
C50 C 0.11416 0.02354 0.53576 0.0
C51 C 0.06129 0.98461 0.53072 0.0
C52 C 0.02256 0.97696 0.48224 0.0
N53 N 0.04409 0.96291 0.58026 0.0
C54 C 0.02541 0.90451 0.57961 0.0
H55 H 0.35309 0.73536 0.94519 0.0
H56 H 0.20676 0.77759 0.86197 0.0
H57 H 0.28489 0.62808 0.77615 0.0
C58 C 0.32133 0.72509 0.90873 0.0
C59 C 0.32355 0.67655 0.8614 0.0
C60 C 0.27964 0.76172 0.90864 0.0
C61 C 0.23838 0.74874 0.86186 0.0
C62 C 0.2406 0.70059 0.81357 0.0
C63 C 0.28346 0.66513 0.81348 0.0
N64 N 0.20176 0.68747 0.76366 0.0
C65 C 0.15414 0.71539 0.75981 0.0
H66 H 0.92622 0.57921 0.61943 0.0
H67 H 0.04989 0.59462 0.48426 0.0
H68 H 0.92744 0.43543 0.46733 0.0
C69 C 0.94339 0.56102 0.57694 0.0
C70 C 0.92125 0.50367 0.54578 0.0
C71 C 0.9895 0.59399 0.5545 0.0
C72 C 0.01334 0.56947 0.50064 0.0
C73 C 0.99005 0.51231 0.46864 0.0
C74 C 0.94417 0.47994 0.49148 0.0
N75 N 0.01191 0.48496 0.41404 0.0
C76 C 0.05861 0.50934 0.38593 0.0
H77 H 0.90289 0.68586 0.84562 0.0
H78 H 0.8448 0.78531 0.73338 0.0
H79 H 0.72593 0.72095 0.85146 0.0
C80 C 0.86943 0.70666 0.83116 0.0
C81 C 0.81358 0.70185 0.85546 0.0
C82 C 0.88103 0.73623 0.78632 0.0
C83 C 0.83712 0.76313 0.76833 0.0
C84 C 0.78133 0.75706 0.79176 0.0
C85 C 0.76957 0.7258 0.83426 0.0
N86 N 0.73494 0.77809 0.76971 0.0
C87 C 0.73692 0.83696 0.77346 0.0
H88 H 0.40298 0.18612 0.34453 0.0
H89 H 0.34242 0.28429 0.23239 0.0
H90 H 0.22519 0.21887 0.35115 0.0
C91 C 0.36904 0.20649 0.33028 0.0
C92 C 0.31335 0.20105 0.35484 0.0
C93 C 0.37985 0.23611 0.28538 0.0
C94 C 0.33532 0.26222 0.26747 0.0
C95 C 0.27965 0.25527 0.29105 0.0
C96 C 0.26871 0.22422 0.33375 0.0
N97 N 0.23264 0.27551 0.26926 0.0
C98 C 0.23422 0.33419 0.27269 0.0
H99 H 0.56989 0.87386 0.57002 0.0
H100 H 0.53799 0.05174 0.60717 0.0
H101 H 0.50042 0.93901 0.43409 0.0
C102 C 0.55358 0.90848 0.55608 0.0
C103 C 0.53294 0.89889 0.49759 0.0
C104 C 0.55532 0.96373 0.5959 0.0
C105 C 0.53549 0.00869 0.57728 0.0
C106 C 0.51584 -0.00041 0.51911 0.0
C107 C 0.51451 0.94498 0.47946 0.0
N108 N 0.5042 0.04746 0.49892 0.0
C109 C 0.44746 0.05677 0.49195 0.0
H110 H 0.35465 0.35624 0.62639 0.0
H111 H 0.21486 0.24517 0.68605 0.0
H112 H 0.30185 0.40233 0.80583 0.0
C113 C 0.326 0.34768 0.661 0.0
C114 C 0.33328 0.38586 0.71735 0.0
C115 C 0.28385 0.29677 0.64958 0.0
C116 C 0.247 0.28486 0.69449 0.0
C117 C 0.2533 0.32386 0.75076 0.0
C118 C 0.29678 0.37341 0.76187 0.0
N119 N 0.21987 0.31354 0.79883 0.0
C120 C 0.16401 0.28115 0.79563 0.0
H121 H 0.82248 0.1383 0.83314 0.0
H122 H 0.92313 0.26192 0.75077 0.0
H123 H 0.76213 0.16093 0.66803 0.0
C124 C 0.82764 0.16002 0.79771 0.0
C125 C 0.78487 0.14542 0.75137 0.0
C126 C 0.87657 0.20377 0.79852 0.0
C127 C 0.88402 0.23045 0.75194 0.0
C128 C 0.843 0.215 0.70522 0.0
C129 C 0.79281 0.17373 0.70553 0.0
N130 N 0.85846 0.23246 0.65351 0.0
C131 C 0.83523 0.27546 0.63592 0.0
H132 H 0.62967 0.49025 0.67095 0.0
H133 H 0.60204 0.49899 0.49246 0.0
H134 H 0.48136 0.55964 0.62298 0.0
C135 C 0.60482 0.50279 0.63858 0.0
C136 C 0.55427 0.52786 0.65508 0.0
C137 C 0.62287 0.49281 0.58009 0.0
C138 C 0.59003 0.5083 0.53812 0.0
C139 C 0.53933 0.53246 0.5538 0.0
C140 C 0.52184 0.54269 0.6121 0.0
N141 N 0.50117 0.53756 0.50933 0.0
C142 C 0.50353 0.58889 0.49158 0.0
H143 H 0.59949 0.57748 0.91518 0.0
H144 H 0.64636 0.52999 0.07092 0.0
H145 H 0.48228 0.44876 0.97892 0.0
C146 C 0.58938 0.55094 0.94629 0.0
C147 C 0.53633 0.51163 0.94031 0.0
C148 C 0.62982 0.55611 0.99208 0.0
C149 C 0.61655 0.52339 0.03348 0.0
C150 C 0.56363 0.48458 0.02911 0.0
C151 C 0.52398 0.47752 0.9815 0.0
N152 N 0.54741 0.46231 0.07856 0.0
C153 C 0.52908 0.40375 0.07753 0.0
H154 H 0.85547 0.2415 0.44224 0.0
H155 H 0.70616 0.27781 0.35868 0.0
H156 H 0.78426 0.12693 0.27733 0.0
C157 C 0.82307 0.22951 0.40624 0.0
C158 C 0.82471 0.17921 0.36058 0.0
C159 C 0.78057 0.26517 0.40513 0.0
C160 C 0.73852 0.24982 0.35904 0.0
C161 C 0.74021 0.20014 0.31238 0.0
C162 C 0.78347 0.16536 0.31328 0.0
N163 N 0.69982 0.18459 0.26351 0.0
C164 C 0.65378 0.21431 0.25901 0.0
H165 H 0.43069 0.0857 0.11922 0.0
H166 H 0.553 0.09456 0.98172 0.0
H167 H 0.42371 0.94033 0.9672 0.0
C168 C 0.44703 0.06605 0.07675 0.0
C169 C 0.422 0.00941 0.0462 0.0
C170 C 0.49375 0.09702 0.05315 0.0
C171 C 0.51615 0.0708 0.99912 0.0
C172 C 0.49023 0.01427 0.96762 0.0
C173 C 0.44301 0.9842 0.99122 0.0
N174 N 0.51036 0.98573 0.91252 0.0
C175 C 0.55695 0.00892 0.88333 0.0
C176 C 0.17598 0.96589 0.06205 0.0
O177 O 0.20095 0.97035 0.01266 0.0
O178 O 0.24178 0.82852 0.98768 0.0
Zn179 Zn 0.26344 0.89384 0.06187 0.0
O180 O 0.32864 0.95109 0.04108 0.0
C181 C 0.33401 0.82963 0.11429 0.0
O182 O 0.36974 0.83823 0.07276 0.0
O183 O 0.19499 0.93446 0.09157 0.0
C184 C 0.37481 0.97592 0.07187 0.0
O185 O 0.38234 0.96746 0.1242 0.0
C186 C 0.28432 0.81639 0.95482 0.0
O187 O 0.33593 0.84935 0.96707 0.0
O188 O 0.28799 0.8529 0.121 0.0
C189 C 0.22735 0.39309 0.27663 0.0
O190 O 0.23397 0.43192 0.32766 0.0
O191 O 0.11398 0.48101 0.30463 0.0
Zn192 Zn 0.1731 0.47805 0.24146 0.0
O193 O 0.2413 0.54551 0.26003 0.0
C194 C 0.08071 0.4773 0.15556 0.0
O195 O 0.0533 0.50369 0.20103 0.0
O196 O 0.20356 0.40399 0.23328 0.0
C197 C 0.23215 0.59533 0.25653 0.0
O198 O 0.1789 0.60121 0.24264 0.0
C199 C 0.1048 0.52204 0.34796 0.0
O200 O 0.13656 0.57432 0.35753 0.0
O201 O 0.13178 0.46639 0.16265 0.0
C202 C 0.89491 0.57566 0.98665 0.0
O203 O 0.86749 0.56171 0.93506 0.0
O204 O 0.82791 0.68428 0.94937 0.0
Zn205 Zn 0.80575 0.64494 0.01581 0.0
O206 O 0.73349 0.58315 0.99718 0.0
C207 C 0.78352 0.75471 0.09249 0.0
O208 O 0.78626 0.77262 0.04396 0.0
O209 O 0.87521 0.60957 0.03012 0.0
C210 C 0.68366 0.59935 0.99975 0.0
O211 O 0.68033 0.65532 0.01212 0.0
C212 C 0.79894 0.66956 0.90069 0.0
O213 O 0.75134 0.63005 0.89355 0.0
O214 O 0.79127 0.70305 0.09076 0.0
C215 C 0.86904 0.14116 0.36221 0.0
O216 O 0.88765 0.13502 0.41264 0.0
O217 O 0.99285 0.05149 0.3714 0.0
Zn218 Zn 0.93951 0.04956 0.30176 0.0
O219 O 0.88342 0.97379 0.28181 0.0
C220 C 0.03308 0.03283 0.21648 0.0
O221 O 0.05611 0.00834 0.25305 0.0
O222 O 0.88708 0.11205 0.31439 0.0
C223 C 0.87836 0.93881 0.23087 0.0
O224 O 0.91288 0.95065 0.18943 0.0
C225 C 0.99377 0.00723 0.39227 0.0
O226 O 0.95777 0.9583 0.36986 0.0
O227 O 0.98679 0.05478 0.23019 0.0
C228 C 0.39147 0.07304 0.48588 0.0
O229 O 0.36514 0.06013 0.43382 0.0
O230 O 0.32769 0.18448 0.44912 0.0
Zn231 Zn 0.30421 0.14471 0.51478 0.0
O232 O 0.23182 0.08325 0.49435 0.0
C233 C 0.28296 0.25437 0.59218 0.0
O234 O 0.28578 0.27239 0.54372 0.0
O235 O 0.37227 0.10783 0.52897 0.0
C236 C 0.18197 0.09911 0.50258 0.0
O237 O 0.17845 0.15473 0.52284 0.0
C238 C 0.29932 0.16876 0.4001 0.0
O239 O 0.25217 0.12868 0.39293 0.0
O240 O 0.29016 0.20251 0.59023 0.0
C241 C 0.36781 0.63825 0.86184 0.0
O242 O 0.38608 0.63037 0.91163 0.0
O243 O 0.49332 0.55179 0.87021 0.0
Zn244 Zn 0.43953 0.54939 0.80067 0.0
O245 O 0.38405 0.47346 0.78083 0.0
C246 C 0.53204 0.53337 0.71522 0.0
O247 O 0.55484 0.50878 0.75186 0.0
O248 O 0.38668 0.61111 0.8136 0.0
C249 C 0.37892 0.43842 0.72993 0.0
O250 O 0.4132 0.45023 0.68832 0.0
C251 C 0.49363 0.50818 0.89225 0.0
O252 O 0.45671 0.45958 0.87111 0.0
O253 O 0.48586 0.55542 0.72887 0.0
C254 C 0.67403 0.46361 0.56181 0.0
O255 O 0.70133 0.46989 0.51406 0.0
O256 O 0.74224 0.32815 0.48636 0.0
Zn257 Zn 0.76062 0.3916 0.56277 0.0
O258 O 0.825 0.45329 0.54706 0.0
C259 C 0.82147 0.31569 0.60431 0.0
O260 O 0.84651 0.3151 0.55423 0.0
O261 O 0.69088 0.43045 0.59065 0.0
C262 C 0.87624 0.46707 0.57055 0.0
O263 O 0.89135 0.44101 0.6097 0.0
C264 C 0.78326 0.32036 0.4503 0.0
O265 O 0.83295 0.35693 0.46005 0.0
O266 O 0.78425 0.34937 0.6219 0.0
C267 C 0.72972 0.89601 0.77796 0.0
O268 O 0.73243 0.93335 0.82977 0.0
O269 O 0.6144 0.9808 0.80341 0.0
Zn270 Zn 0.67463 0.98059 0.74134 0.0
O271 O 0.7397 0.05146 0.76132 0.0
C272 C 0.5818 0.97644 0.65546 0.0
O273 O 0.55385 0.00129 0.70125 0.0
O274 O 0.70844 0.90788 0.73381 0.0
C275 C 0.73387 0.09836 0.74763 0.0
O276 O 0.68434 0.10124 0.7223 0.0
C277 C 0.60374 0.02186 0.84596 0.0
O278 O 0.63402 0.07476 0.85476 0.0
O279 O 0.63372 0.96751 0.66214 0.0
C280 C 1.0025 0.13586 0.96815 0.0
O281 O 0.95497 0.15986 0.97354 0.0
O282 O 0.96064 0.19134 0.84831 0.0
Zn283 Zn 0.03295 0.21997 0.90351 0.0
O284 O 0.02592 0.29356 0.96799 0.0
C285 C 0.10993 0.24887 0.80854 0.0
O286 O 0.06355 0.23856 0.77322 0.0
O287 O 0.04479 0.15478 0.93979 0.0
C288 C 0.03633 0.34224 0.95415 0.0
O289 O 0.04843 0.3424 0.8995 0.0
C290 C 0.92125 0.22231 0.84664 0.0
O291 O 0.92824 0.27634 0.87914 0.0
O292 O 0.1052 0.24166 0.86019 0.0
C293 C 0.50037 0.63909 0.46956 0.0
O294 O 0.45346 0.66402 0.47814 0.0
O295 O 0.45284 0.69238 0.34713 0.0
Zn296 Zn 0.52726 0.72066 0.40028 0.0
O297 O 0.52094 0.79405 0.46522 0.0
C298 C 0.6071 0.74944 0.30565 0.0
O299 O 0.56204 0.73949 0.26875 0.0
O300 O 0.53982 0.65577 0.43693 0.0
C301 C 0.53557 0.8434 0.45342 0.0
O302 O 0.5521 0.845 0.40024 0.0
C303 C 0.42502 0.72735 0.33019 0.0
O304 O 0.44497 0.78371 0.34607 0.0
O305 O 0.6002 0.74211 0.3571 0.0
C306 C 0.01295 0.84727 0.59083 0.0
O307 O 0.97702 0.80493 0.55549 0.0
O308 O 0.95555 0.7741 0.72874 0.0
Zn309 Zn 0.01939 0.7661 0.66891 0.0
O310 O 0.98847 0.69317 0.60496 0.0
C311 C 0.10579 0.74419 0.75236 0.0
O312 O 0.06737 0.75266 0.79357 0.0
O313 O 0.03427 0.83947 0.6376 0.0
C314 C 0.01717 0.6509 0.591 0.0
O315 O 0.06853 0.65501 0.6164 0.0
C316 C 0.93576 0.73372 0.75358 0.0
O317 O 0.95925 0.68585 0.74282 0.0
O318 O 0.09539 0.75151 0.70193 0.0
C319 C 0.51422 0.34726 0.09017 0.0
O320 O 0.47599 0.30597 0.0564 0.0
O321 O 0.45572 0.27583 0.23018 0.0
Zn322 Zn 0.51957 0.26722 0.17011 0.0
O323 O 0.48896 0.19367 0.10796 0.0
C324 C 0.60376 0.24064 0.25145 0.0
O325 O 0.56256 0.24247 0.29006 0.0
O326 O 0.53567 0.33941 0.13686 0.0
C327 C 0.52091 0.15532 0.0871 0.0
O328 O 0.57665 0.16476 0.10293 0.0
C329 C 0.43414 0.2337 0.25204 0.0
O330 O 0.45522 0.18446 0.23743 0.0
O331 O 0.59539 0.25256 0.20278 0.0
loop_
_geom_bond_atom_site_label_1
_geom_bond_atom_site_label_2
_geom_bond_distance
_geom_bond_site_symmetry_2
_ccdc_geom_bond_type
H0 C3 0.929 1_565 S
H1 C6 0.929 . S
H2 C8 0.930 1_655 S
C3 H0 0.929 1_545 S
C3 C4 1.398 . S
C3 C5 1.396 . S
C4 C3 1.398 . S
C4 C8 1.407 . S
C5 C3 1.396 . S
C5 C6 1.394 . S
C6 H1 0.929 . S
C6 C5 1.394 . S
C6 C7 1.382 . S
C7 C6 1.382 . S
C7 C8 1.392 . S
C7 N9 1.420 . S
C8 H2 0.930 1_455 S
C8 C4 1.407 . S
C8 C7 1.392 . S
N9 C7 1.420 . S
N9 C10 1.244 1_554 S
C10 N9 1.244 1_556 S
H11 C14 0.929 . S
H12 C17 0.929 . S
H13 C19 0.930 . S
C14 H11 0.929 . S
C14 C15 1.398 . S
C14 C16 1.396 . S
C15 C14 1.398 . S
C15 C19 1.407 . S
C16 C14 1.396 . S
C16 C17 1.394 . S
C17 H12 0.929 . S
C17 C16 1.394 . S
C17 C18 1.382 . S
C18 C17 1.382 . S
C18 C19 1.392 . S
C18 N20 1.420 . S
C19 H13 0.930 . S
C19 C15 1.407 . S
C19 C18 1.392 . S
N20 C18 1.420 . S
N20 C21 1.244 . S
C21 N20 1.244 . S
H22 C25 0.929 . S
H23 C28 0.929 . S
H24 C30 0.930 . S
C25 H22 0.929 . S
C25 C26 1.391 1_554 S
C25 C27 1.396 . S
C26 C25 1.391 1_556 S
C26 C30 1.411 1_455 S
C27 C25 1.396 . S
C27 C28 1.394 . S
C28 H23 0.929 . S
C28 C27 1.394 . S
C28 C29 1.382 1_455 S
C29 C28 1.382 1_655 S
C29 C30 1.392 1_554 S
C29 N31 1.422 . S
C30 H24 0.930 . S
C30 C26 1.411 1_655 S
C30 C29 1.392 1_556 S
N31 C29 1.422 . S
N31 C32 1.246 . S
C32 N31 1.246 . S
H33 C36 0.929 . S
H34 C39 0.929 . S
H35 C41 0.930 . S
C36 H33 0.929 . S
C36 C37 1.398 . S
C36 C38 1.396 . S
C37 C36 1.398 . S
C37 C41 1.407 . S
C38 C36 1.396 . S
C38 C39 1.394 . S
C39 H34 0.929 . S
C39 C38 1.394 . S
C39 C40 1.382 . S
C40 C39 1.382 . S
C40 C41 1.392 . S
C40 N42 1.420 . S
C41 H35 0.930 . S
C41 C37 1.407 . S
C41 C40 1.392 . S
N42 C40 1.420 . S
N42 C43 1.244 . S
C43 N42 1.244 . S
H44 C47 0.929 . S
H45 C50 0.929 . S
H46 C52 0.930 1_655 S
C47 H44 0.929 . S
C47 C48 1.398 . S
C47 C49 1.396 . S
C48 C47 1.398 . S
C48 C52 1.407 1_545 S
C49 C47 1.396 . S
C49 C50 1.394 . S
C50 H45 0.929 . S
C50 C49 1.394 . S
C50 C51 1.382 1_545 S
C51 C50 1.382 1_565 S
C51 C52 1.392 . S
C51 N53 1.420 . S
C52 H46 0.930 1_455 S
C52 C48 1.407 1_565 S
C52 C51 1.392 . S
N53 C51 1.420 . S
N53 C54 1.244 . S
C54 N53 1.244 . S
H55 C58 0.929 . S
H56 C61 0.929 . S
H57 C63 0.930 . S
C58 H55 0.929 . S
C58 C59 1.398 . S
C58 C60 1.396 . S
C59 C58 1.398 . S
C59 C63 1.407 . S
C60 C58 1.396 . S
C60 C61 1.394 . S
C61 H56 0.929 . S
C61 C60 1.394 . S
C61 C62 1.382 . S
C62 C61 1.382 . S
C62 C63 1.392 . S
C62 N64 1.420 . S
C63 H57 0.930 . S
C63 C59 1.407 . S
C63 C62 1.392 . S
N64 C62 1.420 . S
N64 C65 1.244 . S
C65 N64 1.244 . S
H66 C69 0.929 . S
H67 C72 0.929 . S
H68 C74 0.930 . S
C69 H66 0.929 . S
C69 C70 1.398 . S
C69 C71 1.396 . S
C70 C69 1.398 . S
C70 C74 1.407 . S
C71 C69 1.396 . S
C71 C72 1.394 1_655 S
C72 H67 0.929 . S
C72 C71 1.394 1_455 S
C72 C73 1.382 . S
C73 C72 1.382 . S
C73 C74 1.392 1_455 S
C73 N75 1.420 . S
C74 H68 0.930 . S
C74 C70 1.407 . S
C74 C73 1.392 1_655 S
N75 C73 1.420 . S
N75 C76 1.244 . S
C76 N75 1.244 . S
H77 C80 0.929 . S
H78 C83 0.929 . S
H79 C85 0.930 . S
C80 H77 0.929 . S
C80 C81 1.398 . S
C80 C82 1.396 . S
C81 C80 1.398 . S
C81 C85 1.407 . S
C82 C80 1.396 . S
C82 C83 1.394 . S
C83 H78 0.929 . S
C83 C82 1.394 . S
C83 C84 1.382 . S
C84 C83 1.382 . S
C84 C85 1.392 . S
C84 N86 1.420 . S
C85 H79 0.930 . S
C85 C81 1.407 . S
C85 C84 1.392 . S
N86 C84 1.420 . S
N86 C87 1.244 . S
C87 N86 1.244 . S
H88 C91 0.929 . S
H89 C94 0.929 . S
H90 C96 0.930 . S
C91 H88 0.929 . S
C91 C92 1.398 . S
C91 C93 1.396 . S
C92 C91 1.398 . S
C92 C96 1.407 . S
C93 C91 1.396 . S
C93 C94 1.394 . S
C94 H89 0.929 . S
C94 C93 1.394 . S
C94 C95 1.382 . S
C95 C94 1.382 . S
C95 C96 1.392 . S
C95 N97 1.420 . S
C96 H90 0.930 . S
C96 C92 1.407 . S
C96 C95 1.392 . S
N97 C95 1.420 . S
N97 C98 1.244 . S
C98 N97 1.244 . S
H99 C102 0.929 . S
H100 C105 0.929 . S
H101 C107 0.930 . S
C102 H99 0.929 . S
C102 C103 1.398 . S
C102 C104 1.396 . S
C103 C102 1.398 . S
C103 C107 1.407 . S
C104 C102 1.396 . S
C104 C105 1.394 1_565 S
C105 H100 0.929 . S
C105 C104 1.394 1_545 S
C105 C106 1.382 1_545 S
C106 C105 1.382 1_565 S
C106 C107 1.392 . S
C106 N108 1.420 1_565 S
C107 H101 0.930 . S
C107 C103 1.407 . S
C107 C106 1.392 . S
N108 C106 1.420 1_545 S
N108 C109 1.244 . S
C109 N108 1.244 . S
H110 C113 0.929 . S
H111 C116 0.929 . S
H112 C118 0.930 . S
C113 H110 0.929 . S
C113 C114 1.398 . S
C113 C115 1.396 . S
C114 C113 1.398 . S
C114 C118 1.407 . S
C115 C113 1.396 . S
C115 C116 1.394 . S
C116 H111 0.929 . S
C116 C115 1.394 . S
C116 C117 1.382 . S
C117 C116 1.382 . S
C117 C118 1.392 . S
C117 N119 1.420 . S
C118 H112 0.930 . S
C118 C114 1.407 . S
C118 C117 1.392 . S
N119 C117 1.420 . S
N119 C120 1.244 . S
C120 N119 1.244 . S
H121 C124 0.929 . S
H122 C127 0.929 . S
H123 C129 0.930 . S
C124 H121 0.929 . S
C124 C125 1.398 . S
C124 C126 1.396 . S
C125 C124 1.398 . S
C125 C129 1.407 . S
C126 C124 1.396 . S
C126 C127 1.394 . S
C127 H122 0.929 . S
C127 C126 1.394 . S
C127 C128 1.382 . S
C128 C127 1.382 . S
C128 C129 1.392 . S
C128 N130 1.420 . S
C129 H123 0.930 . S
C129 C125 1.407 . S
C129 C128 1.392 . S
N130 C128 1.420 . S
N130 C131 1.244 . S
C131 N130 1.244 . S
H132 C135 0.929 . S
H133 C138 0.929 . S
H134 C140 0.930 . S
C135 H132 0.929 . S
C135 C136 1.398 . S
C135 C137 1.396 . S
C136 C135 1.398 . S
C136 C140 1.407 . S
C137 C135 1.396 . S
C137 C138 1.394 . S
C138 H133 0.929 . S
C138 C137 1.394 . S
C138 C139 1.382 . S
C139 C138 1.382 . S
C139 C140 1.392 . S
C139 N141 1.420 . S
C140 H134 0.930 . S
C140 C136 1.407 . S
C140 C139 1.392 . S
N141 C139 1.420 . S
N141 C142 1.244 . S
C142 N141 1.244 . S
H143 C146 0.929 . S
H144 C149 0.929 . S
H145 C151 0.930 . S
C146 H143 0.929 . S
C146 C147 1.398 . S
C146 C148 1.396 . S
C147 C146 1.398 . S
C147 C151 1.407 . S
C148 C146 1.396 . S
C148 C149 1.394 1_556 S
C149 H144 0.929 . S
C149 C148 1.394 1_554 S
C149 C150 1.382 . S
C150 C149 1.382 . S
C150 C151 1.392 1_554 S
C150 N152 1.420 . S
C151 H145 0.930 . S
C151 C147 1.407 . S
C151 C150 1.392 1_556 S
N152 C150 1.420 . S
N152 C153 1.244 . S
C153 N152 1.244 . S
H154 C157 0.929 . S
H155 C160 0.929 . S
H156 C162 0.930 . S
C157 H154 0.929 . S
C157 C158 1.398 . S
C157 C159 1.396 . S
C158 C157 1.398 . S
C158 C162 1.407 . S
C159 C157 1.396 . S
C159 C160 1.394 . S
C160 H155 0.929 . S
C160 C159 1.394 . S
C160 C161 1.382 . S
C161 C160 1.382 . S
C161 C162 1.392 . S
C161 N163 1.420 . S
C162 H156 0.930 . S
C162 C158 1.407 . S
C162 C161 1.392 . S
N163 C161 1.420 . S
N163 C164 1.244 . S
C164 N163 1.244 . S
H165 C168 0.929 . S
H166 C171 0.929 . S
H167 C173 0.930 . S
C168 H165 0.929 . S
C168 C169 1.398 . S
C168 C170 1.396 . S
C169 C168 1.398 . S
C169 C173 1.407 1_544 S
C170 C168 1.396 . S
C170 C171 1.394 1_554 S
C171 H166 0.929 . S
C171 C170 1.394 1_556 S
C171 C172 1.382 . S
C172 C171 1.382 . S
C172 C173 1.392 1_545 S
C172 N174 1.424 . S
C173 H167 0.930 . S
C173 C169 1.407 1_566 S
C173 C172 1.392 1_565 S
N174 C172 1.424 . S
N174 C175 1.252 . S
C175 N174 1.252 . S
C176 O177 1.160 . S
C176 O183 1.185 . S
O177 C176 1.160 . S
O178 Zn179 1.899 . S
O178 C186 1.284 1_554 S
Zn179 O178 1.899 . S
Zn179 O180 2.032 . S
Zn179 O183 2.086 . S
Zn179 O188 1.977 . S
O180 Zn179 2.032 . S
O180 C184 1.278 . S
C181 O182 1.203 . S
C181 O188 1.267 . S
O182 C181 1.203 . S
O183 C176 1.185 . S
O183 Zn179 2.086 . S
C184 O180 1.278 . S
C184 O185 1.211 . S
O185 C184 1.211 . S
C186 O178 1.284 1_556 S
C186 O187 1.273 . S
O187 C186 1.273 . S
O188 Zn179 1.977 . S
O188 C181 1.267 . S
C189 O190 1.160 . S
C189 O196 1.185 . S
O190 C189 1.160 . S
O191 Zn192 1.899 . S
O191 C199 1.284 . S
Zn192 O191 1.899 . S
Zn192 O193 2.032 . S
Zn192 O196 2.086 . S
Zn192 O201 1.977 . S
O193 Zn192 2.032 . S
O193 C197 1.278 . S
C194 O195 1.203 . S
C194 O201 1.267 . S
O195 C194 1.203 . S
O196 C189 1.185 . S
O196 Zn192 2.086 . S
C197 O193 1.278 . S
C197 O198 1.211 . S
O198 C197 1.211 . S
C199 O191 1.284 . S
C199 O200 1.273 . S
O200 C199 1.273 . S
O201 Zn192 1.977 . S
O201 C194 1.267 . S
C202 O203 1.179 . S
C202 O209 1.173 1_556 S
O203 C202 1.179 . S
O204 Zn205 1.899 1_556 S
O204 C212 1.284 . S
Zn205 O204 1.899 1_554 S
Zn205 O206 2.032 1_554 S
Zn205 O209 2.086 . S
Zn205 O214 1.977 . S
O206 Zn205 2.032 1_556 S
O206 C210 1.278 . S
C207 O208 1.203 . S
C207 O214 1.267 . S
O208 C207 1.203 . S
O209 C202 1.173 1_554 S
O209 Zn205 2.086 . S
C210 O206 1.278 . S
C210 O211 1.211 1_556 S
O211 C210 1.211 1_554 S
C212 O204 1.284 . S
C212 O213 1.273 . S
O213 C212 1.273 . S
O214 Zn205 1.977 . S
O214 C207 1.267 . S
C215 O216 1.160 . S
C215 O222 1.185 . S
O216 C215 1.160 . S
O217 Zn218 1.899 . S
O217 C225 1.285 . S
Zn218 O217 1.899 . S
Zn218 O219 2.032 1_545 S
Zn218 O222 2.086 . S
Zn218 O227 1.977 . S
O219 Zn218 2.032 1_565 S
O219 C223 1.278 . S
C220 O221 1.203 . S
C220 O227 1.267 1_455 S
O221 C220 1.203 . S
O222 C215 1.185 . S
O222 Zn218 2.086 . S
C223 O219 1.278 . S
C223 O224 1.211 . S
O224 C223 1.211 . S
C225 O217 1.285 . S
C225 O226 1.273 1_545 S
O226 C225 1.273 1_565 S
O227 Zn218 1.977 . S
O227 C220 1.267 1_655 S
C228 O229 1.160 . S
C228 O235 1.185 . S
O229 C228 1.160 . S
O230 Zn231 1.899 . S
O230 C238 1.284 . S
Zn231 O230 1.899 . S
Zn231 O232 2.032 . S
Zn231 O235 2.086 . S
Zn231 O240 1.977 . S
O232 Zn231 2.032 . S
O232 C236 1.278 . S
C233 O234 1.203 . S
C233 O240 1.267 . S
O234 C233 1.203 . S
O235 C228 1.185 . S
O235 Zn231 2.086 . S
C236 O232 1.278 . S
C236 O237 1.211 . S
O237 C236 1.211 . S
C238 O230 1.284 . S
C238 O239 1.273 . S
O239 C238 1.273 . S
O240 Zn231 1.977 . S
O240 C233 1.267 . S
C241 O242 1.160 . S
C241 O248 1.185 . S
O242 C241 1.160 . S
O243 Zn244 1.899 . S
O243 C251 1.284 . S
Zn244 O243 1.899 . S
Zn244 O245 2.032 . S
Zn244 O248 2.086 . S
Zn244 O253 1.977 . S
O245 Zn244 2.032 . S
O245 C249 1.278 . S
C246 O247 1.203 . S
C246 O253 1.267 . S
O247 C246 1.203 . S
O248 C241 1.185 . S
O248 Zn244 2.086 . S
C249 O245 1.278 . S
C249 O250 1.211 . S
O250 C249 1.211 . S
C251 O243 1.284 . S
C251 O252 1.273 . S
O252 C251 1.273 . S
O253 Zn244 1.977 . S
O253 C246 1.267 . S
C254 O255 1.160 . S
C254 O261 1.185 . S
O255 C254 1.160 . S
O256 Zn257 1.899 . S
O256 C264 1.284 . S
Zn257 O256 1.899 . S
Zn257 O258 2.032 . S
Zn257 O261 2.086 . S
Zn257 O266 1.977 . S
O258 Zn257 2.032 . S
O258 C262 1.278 . S
C259 O260 1.203 . S
C259 O266 1.267 . S
O260 C259 1.203 . S
O261 C254 1.185 . S
O261 Zn257 2.086 . S
C262 O258 1.278 . S
C262 O263 1.211 . S
O263 C262 1.211 . S
C264 O256 1.284 . S
C264 O265 1.273 . S
O265 C264 1.273 . S
O266 Zn257 1.977 . S
O266 C259 1.267 . S
C267 O268 1.160 . S
C267 O274 1.185 . S
O268 C267 1.160 . S
O269 Zn270 1.899 . S
O269 C277 1.284 1_565 S
Zn270 O269 1.899 . S
Zn270 O271 2.032 1_565 S
Zn270 O274 2.086 . S
Zn270 O279 1.977 . S
O271 Zn270 2.032 1_545 S
O271 C275 1.278 . S
C272 O273 1.203 1_565 S
C272 O279 1.267 . S
O273 C272 1.203 1_545 S
O274 C267 1.185 . S
O274 Zn270 2.086 . S
C275 O271 1.278 . S
C275 O276 1.211 . S
O276 C275 1.211 . S
C277 O269 1.284 1_545 S
C277 O278 1.273 . S
O278 C277 1.273 . S
O279 Zn270 1.977 . S
O279 C272 1.267 . S
C280 O281 1.160 1_455 S
C280 O287 1.185 . S
O281 C280 1.160 1_655 S
O282 Zn283 1.899 1_655 S
O282 C290 1.284 . S
Zn283 O282 1.899 1_455 S
Zn283 O284 2.032 . S
Zn283 O287 2.086 . S
Zn283 O292 1.977 . S
O284 Zn283 2.032 . S
O284 C288 1.278 . S
C285 O286 1.203 . S
C285 O292 1.267 . S
O286 C285 1.203 . S
O287 C280 1.185 . S
O287 Zn283 2.086 . S
C288 O284 1.278 . S
C288 O289 1.211 . S
O289 C288 1.211 . S
C290 O282 1.284 . S
C290 O291 1.273 . S
O291 C290 1.273 . S
O292 Zn283 1.977 . S
O292 C285 1.267 . S
C293 O294 1.160 . S
C293 O300 1.185 . S
O294 C293 1.160 . S
O295 Zn296 1.899 . S
O295 C303 1.284 . S
Zn296 O295 1.899 . S
Zn296 O297 2.032 . S
Zn296 O300 2.086 . S
Zn296 O305 1.977 . S
O297 Zn296 2.032 . S
O297 C301 1.278 . S
C298 O299 1.203 . S
C298 O305 1.267 . S
O299 C298 1.203 . S
O300 C293 1.185 . S
O300 Zn296 2.086 . S
C301 O297 1.278 . S
C301 O302 1.211 . S
O302 C301 1.211 . S
C303 O295 1.284 . S
C303 O304 1.273 . S
O304 C303 1.273 . S
O305 Zn296 1.977 . S
O305 C298 1.267 . S
C306 O307 1.160 1_455 S
C306 O313 1.185 . S
O307 C306 1.160 1_655 S
O308 Zn309 1.899 1_655 S
O308 C316 1.284 . S
Zn309 O308 1.899 1_455 S
Zn309 O310 2.030 1_455 S
Zn309 O313 2.086 . S
Zn309 O318 1.977 . S
O310 Zn309 2.030 1_655 S
O310 C314 1.272 1_655 S
C311 O312 1.203 . S
C311 O318 1.267 . S
O312 C311 1.203 . S
O313 C306 1.185 . S
O313 Zn309 2.086 . S
C314 O310 1.272 1_455 S
C314 O315 1.217 . S
O315 C314 1.217 . S
C316 O308 1.284 . S
C316 O317 1.273 . S
O317 C316 1.273 . S
O318 Zn309 1.977 . S
O318 C311 1.267 . S
C319 O320 1.160 . S
C319 O326 1.185 . S
O320 C319 1.160 . S
O321 Zn322 1.899 . S
O321 C329 1.284 . S
Zn322 O321 1.899 . S
Zn322 O323 2.032 . S
Zn322 O326 2.086 . S
Zn322 O331 1.977 . S
O323 Zn322 2.032 . S
O323 C327 1.278 . S
C324 O325 1.203 . S
C324 O331 1.267 . S
O325 C324 1.203 . S
O326 C319 1.185 . S
O326 Zn322 2.086 . S
C327 O323 1.278 . S
C327 O328 1.211 . S
O328 C327 1.211 . S
C329 O321 1.284 . S
C329 O330 1.273 . S
O330 C329 1.273 . S
O331 Zn322 1.977 . S
O331 C324 1.267 . S
C186 C60 1.637 . S
C199 C76 1.415 . S
C81 C212 1.764 . S
C225 C48 1.565 1_655 S
C233 C115 1.516 . S
C246 C136 1.600 . S
C131 C259 1.363 . S
C272 C104 1.567 . S
C126 C290 1.444 . S
C301 C103 1.414 . S
C120 C285 1.301 . S
C293 C142 1.594 . S
C82 C316 1.614 . S
C54 C306 1.741 . S
C65 C311 1.402 . S
C71 C314 1.302 1_655 S
C37 C223 1.559 . S
C158 C215 1.936 . S
C184 C169 1.522 1_565 S
C189 C98 1.276 . S
C49 C236 1.733 . S
C275 C125 1.600 . S
C228 C109 1.568 . S
C254 C137 1.709 . S
C264 C159 1.637 . S
C175 C277 1.415 . S
C92 C238 1.764 . S
C251 C147 1.566 . S
C38 C207 1.516 . S
C220 C4 1.600 . S
C181 C21 1.363 . S
C194 C27 1.568 . S
C16 C303 1.444 . S
C26 C288 1.419 . S
C43 C298 1.301 . S
C10 C280 1.594 . S
C329 C93 1.614 . S
C319 C153 1.741 . S
C324 C164 1.402 . S
C170 C327 1.306 . S
C114 C249 1.559 . S
C241 C59 1.936 . S
C262 C70 1.522 . S
C267 C87 1.276 . S
C148 C210 1.732 . S
C197 C15 1.600 . S
C32 C202 1.554 1_554 S
C176 C5 1.709 1_565 S
