# Generated by pormake.
# Topology zzz, (3,6)-cn, num edge types: 1
# Building blocks:
#     Node 0, Type 0, BuildingBlock: QEWDON_clean_linker_0, # of connection points: 3
#     Node 1, Type 0, BuildingBlock: QEWDON_clean_linker_0, # of connection points: 3
#     Node 2, Type 0, BuildingBlock: QEWDON_clean_linker_0, # of connection points: 3
#     Node 3, Type 0, BuildingBlock: QEWDON_clean_linker_0, # of connection points: 3
#     Node 4, Type 0, BuildingBlock: QEWDON_clean_linker_0, # of connection points: 3
#     Node 5, Type 0, BuildingBlock: QEWDON_clean_linker_0, # of connection points: 3
#     Node 6, Type 0, BuildingBlock: QEWDON_clean_linker_0, # of connection points: 3
#     Node 7, Type 0, BuildingBlock: QEWDON_clean_linker_0, # of connection points: 3
#     Node 8, Type 1, BuildingBlock: VOLQOD_clean_sbu_1, # of connection points: 6
#     Node 9, Type 1, BuildingBlock: VOLQOD_clean_sbu_1, # of connection points: 6
#     Node 10, Type 1, BuildingBlock: VOLQOD_clean_sbu_1, # of connection points: 6
#     Node 11, Type 1, BuildingBlock: VOLQOD_clean_sbu_1, # of connection points: 6
#     Edge 12, Type (0, 1), BuildingBlock: CIFDUS_clean_linker_0, # of connection points: 2
#     Edge 13, Type (0, 1), BuildingBlock: CIFDUS_clean_linker_0, # of connection points: 2
#     Edge 14, Type (0, 1), BuildingBlock: CIFDUS_clean_linker_0, # of connection points: 2
#     Edge 15, Type (0, 1), BuildingBlock: CIFDUS_clean_linker_0, # of connection points: 2
#     Edge 16, Type (0, 1), BuildingBlock: CIFDUS_clean_linker_0, # of connection points: 2
#     Edge 17, Type (0, 1), BuildingBlock: CIFDUS_clean_linker_0, # of connection points: 2
#     Edge 18, Type (0, 1), BuildingBlock: CIFDUS_clean_linker_0, # of connection points: 2
#     Edge 19, Type (0, 1), BuildingBlock: CIFDUS_clean_linker_0, # of connection points: 2
#     Edge 20, Type (0, 1), BuildingBlock: CIFDUS_clean_linker_0, # of connection points: 2
#     Edge 21, Type (0, 1), BuildingBlock: CIFDUS_clean_linker_0, # of connection points: 2
#     Edge 22, Type (0, 1), BuildingBlock: CIFDUS_clean_linker_0, # of connection points: 2
#     Edge 23, Type (0, 1), BuildingBlock: CIFDUS_clean_linker_0, # of connection points: 2
#     Edge 24, Type (0, 1), BuildingBlock: CIFDUS_clean_linker_0, # of connection points: 2
#     Edge 25, Type (0, 1), BuildingBlock: CIFDUS_clean_linker_0, # of connection points: 2
#     Edge 26, Type (0, 1), BuildingBlock: CIFDUS_clean_linker_0, # of connection points: 2
#     Edge 27, Type (0, 1), BuildingBlock: CIFDUS_clean_linker_0, # of connection points: 2
#     Edge 28, Type (0, 1), BuildingBlock: CIFDUS_clean_linker_0, # of connection points: 2
#     Edge 29, Type (0, 1), BuildingBlock: CIFDUS_clean_linker_0, # of connection points: 2
#     Edge 30, Type (0, 1), BuildingBlock: CIFDUS_clean_linker_0, # of connection points: 2
#     Edge 31, Type (0, 1), BuildingBlock: CIFDUS_clean_linker_0, # of connection points: 2
#     Edge 32, Type (0, 1), BuildingBlock: CIFDUS_clean_linker_0, # of connection points: 2
#     Edge 33, Type (0, 1), BuildingBlock: CIFDUS_clean_linker_0, # of connection points: 2
#     Edge 34, Type (0, 1), BuildingBlock: CIFDUS_clean_linker_0, # of connection points: 2
#     Edge 35, Type (0, 1), BuildingBlock: CIFDUS_clean_linker_0, # of connection points: 2
# Relax obj value: 0.142
# Max RMSD: 0.234
# Mean RMSD: 0.097
data_MOF--net-zzz--node1-VOLQOD_clean_sbu_1--node2-QEWDON_clean_linker_0--edge1-CIFDUS_clean_linker_0
_symmetry_space_group_name_H-M    P1
_symmetry_Int_Tables_number       1
_symmetry_cell_setting            triclinic
loop_
_symmetry_equiv_pos_as_xyz
'x, y, z'
_cell_length_a     48.149452
_cell_length_b     48.235627
_cell_length_c     15.215398
_cell_angle_alpha  90.55915
_cell_angle_beta   89.878912
_cell_angle_gamma 90.728019
loop_
_atom_site_label
_atom_site_type_symbol
_atom_site_fract_x
_atom_site_fract_y
_atom_site_fract_z
_atom_type_partial_charge
H0 H 0.79351 0.52758 -0.00255 0.0
C1 C 0.80456 0.53166 0.05814 0.0
C2 C 0.83042 0.519 0.07167 0.0
C3 C 0.79365 0.55045 0.12104 0.0
H4 H 0.86613 0.51765 0.15743 0.0
C5 C 0.84545 0.52575 0.14789 0.0
C6 C 0.83508 0.54387 0.21122 0.0
C7 C 0.80905 0.55581 0.19898 0.0
C8 C 0.76761 0.56619 0.10272 0.0
H9 H 0.80113 0.56944 0.24985 0.0
C10 C 0.74573 0.55502 0.05019 0.0
C11 C 0.7224 0.57121 0.02953 0.0
C12 C 0.76516 0.59358 0.13483 0.0
H13 H 0.78165 0.60351 0.17224 0.0
C14 C 0.74172 0.60913 0.11719 0.0
H15 H 0.74697 0.53412 0.02401 0.0
C16 C 0.72055 0.59813 0.06508 0.0
H17 H 0.70268 0.61086 0.05187 0.0
H18 H 0.74018 0.63007 0.14285 0.0
H19 H 0.04031 0.77848 0.02909 0.0
C20 C 0.02816 0.79315 0.06676 0.0
C21 C 0.03402 0.82166 0.05927 0.0
C22 C 1.00715 0.78383 0.12509 0.0
H23 H 0.02318 0.86268 0.1015 0.0
C24 C 0.0185 0.84072 0.10787 0.0
C25 C 0.99687 0.83231 0.16294 0.0
C26 C 0.99132 0.80382 0.17176 0.0
C27 C 1.00238 0.75355 0.14163 0.0
H28 H 0.9745 0.79733 0.21458 0.0
C29 C 1.00488 0.73306 0.07454 0.0
C30 C 1.00025 0.70464 0.0933 0.0
C31 C 0.99551 0.74497 0.22727 0.0
H32 H 0.99435 0.75972 0.28119 0.0
C33 C 0.9903 0.7172 0.2454 0.0
H34 H 0.01046 0.73912 0.00843 0.0
C35 C 0.99241 0.69726 0.17924 0.0
H36 H 0.98776 0.6759 0.19571 0.0
H37 H 0.98467 0.71106 0.31139 0.0
H38 H 0.73846 0.02835 0.01956 0.0
C39 C 0.7246 0.02193 0.07197 0.0
C40 C 0.70182 0.03872 0.09472 0.0
C41 C 0.72753 0.99537 0.10892 0.0
H42 H 0.66524 0.04136 0.17668 0.0
C43 C 0.68334 0.02929 0.15968 0.0
C44 C 0.68489 1.00255 0.19338 0.0
C45 C 0.70756 0.98602 0.17075 0.0
C46 C 0.748 0.97547 0.07126 0.0
H47 H 0.70859 0.96521 0.19668 0.0
C48 C 0.7758 0.9833 0.05184 0.0
C49 C 0.79437 0.96377 0.0153 0.0
C50 C 0.73902 0.94827 0.05103 0.0
H51 H 0.7177 0.94177 0.06212 0.0
C52 C 0.75713 0.92918 0.01399 0.0
H53 H 0.78307 1.00416 0.06681 0.0
C54 C 0.78451 0.93678 -0.00368 0.0
H55 H 0.79795 0.9215 0.96642 0.0
H56 H 0.74983 0.90841 -0.00172 0.0
H57 H 0.51164 0.7423 0.05439 0.0
C58 C 0.51126 0.72918 0.11168 0.0
C59 C 0.50257 0.70146 0.10173 0.0
C60 C 0.52066 0.73925 0.19439 0.0
H61 H 0.50136 0.6616 0.16114 0.0
C62 C 0.50487 0.68357 0.17267 0.0
C63 C 0.5136 0.69275 0.25542 0.0
C64 C 0.52078 0.72085 0.2666 0.0
C65 C 0.53239 0.76804 0.20426 0.0
H66 H 0.52692 0.72812 0.33127 0.0
C67 C 0.52345 0.79002 0.15066 0.0
C68 C 0.53622 0.81643 0.15658 0.0
C69 C 0.55391 0.77344 0.26512 0.0
H70 H 0.56232 0.75719 0.30526 0.0
C71 C 0.56569 0.79983 0.27364 0.0
H72 H 0.5071 0.78657 0.10293 0.0
C73 C 0.557 0.82117 0.21983 0.0
H74 H 0.56681 0.84141 0.22703 0.0
H75 H 0.58208 0.80362 0.32102 0.0
H76 H 0.23965 0.53953 0.33543 0.0
C77 C 0.22828 0.52979 0.28179 0.0
C78 C 0.19911 0.52999 0.28213 0.0
C79 C 0.24271 0.51802 0.21022 0.0
H80 H 0.16208 0.51725 0.21366 0.0
C81 C 0.18459 0.51733 0.21261 0.0
C82 C 0.19835 0.50457 0.14234 0.0
C83 C 0.22755 0.50541 0.1406 0.0
C84 C 0.27347 0.52052 0.20461 0.0
H85 H 0.23848 0.49609 0.08569 0.0
C86 C 0.29093 0.51298 0.27501 0.0
C87 C 0.32008 0.51466 0.2656 0.0
C88 C 0.28551 0.53062 0.12682 0.0
H89 H 0.27262 0.53693 0.07247 0.0
C90 C 0.31424 0.53298 0.11847 0.0
H91 H 0.28196 0.50485 0.335 0.0
C92 C 0.33141 0.52494 0.18696 0.0
H93 H 0.35371 0.52662 0.17835 0.0
H94 H 0.32326 0.54086 0.05832 0.0
H95 H 1.00873 0.23175 0.30332 0.0
C96 C 0.02138 0.21911 0.26015 0.0
C97 C 0.02672 0.19182 0.2836 0.0
C98 C 0.03072 0.22934 0.17862 0.0
H99 H 0.04797 0.15476 0.25168 0.0
C100 C 0.04252 0.17507 0.22815 0.0
C101 C 0.04741 0.18244 0.14054 0.0
C102 C 0.04275 0.21041 0.11748 0.0
C103 C 0.02502 0.25886 0.15524 0.0
H104 H 0.04767 0.21724 0.05186 0.0
C105 C 0.02495 0.28005 0.22058 0.0
C106 C 0.01686 0.30721 0.20009 0.0
C107 C 0.01796 0.26587 0.06855 0.0
H108 H 0.01703 0.25034 0.01683 0.0
C109 C 0.01081 0.29297 0.04773 0.0
H110 H 0.03035 0.27537 0.28786 0.0
C111 C 0.00997 0.31343 0.113 0.0
H112 H 1.00369 0.33416 0.09563 0.0
H113 H 1.00524 0.29799 0.98091 0.0
H114 H 0.28482 0.99638 0.35039 0.0
C115 C 0.29835 0.00706 0.30445 0.0
C116 C 0.32528 0.01419 0.33052 0.0
C117 C 0.28914 0.01319 0.21903 0.0
H118 H 0.36348 0.03386 0.29464 0.0
C119 C 0.34315 0.02743 0.27143 0.0
C120 C 0.33637 0.03008 0.18243 0.0
C121 C 0.30867 0.02383 0.15713 0.0
C122 C 0.25961 0.00682 0.19468 0.0
H123 H 0.30243 0.02677 0.08969 0.0
C124 C 0.23788 0.01024 0.25672 0.0
C125 C 0.21017 1.00275 0.23611 0.0
C126 C 0.25298 0.99628 0.11077 0.0
H127 H 0.269 0.99279 0.06203 0.0
C128 C 0.22562 0.98919 0.08946 0.0
H129 H 0.24249 0.01899 0.32094 0.0
C130 C 0.20442 0.99222 0.15142 0.0
H131 H 0.1836 0.98568 0.13333 0.0
H132 H 0.22086 0.98082 0.02489 0.0
H133 H 0.5352 0.27033 0.32621 0.0
C134 C 0.52618 0.28301 0.27551 0.0
C135 C 0.52194 0.31122 0.29193 0.0
C136 C 0.51946 0.27148 0.19264 0.0
H137 H 0.50955 0.35006 0.23867 0.0
C138 C 0.51127 0.32798 0.22595 0.0
C139 C 0.50444 0.3172 0.14314 0.0
C140 C 0.50845 0.28874 0.12693 0.0
C141 C 0.52556 0.24193 0.17277 0.0
H142 H 0.50326 0.28009 0.06298 0.0
C143 C 0.51953 0.22088 0.23403 0.0
C144 C 0.52565 0.19297 0.21453 0.0
C145 C 0.53807 0.23474 0.09229 0.0
H146 H 0.54343 0.25047 0.04463 0.0
C147 C 0.5444 0.20724 0.07309 0.0
H148 H 0.50949 0.22612 0.29568 0.0
C149 C 0.53831 0.18651 0.13353 0.0
H150 H 0.54384 0.16538 0.11714 0.0
H151 H 0.55425 0.20199 0.01121 0.0
O152 O 0.07288 0.0058 0.6029 0.0
Zn153 Zn 0.04542 1.00041 0.70499 0.0
O154 O 1.00641 1.00296 0.66229 0.0
Zn155 Zn 0.98782 0.03499 0.71279 0.0
Zn156 Zn 1.00555 0.00519 0.53386 0.0
Zn157 Zn 0.98468 0.97089 0.6979 0.0
O158 O 0.95073 0.02567 0.77107 0.0
O159 O 0.9516 0.97975 0.77507 0.0
O160 O 0.05284 0.03075 0.79916 0.0
O161 O 0.01261 0.05324 0.80109 0.0
O162 O 0.98163 0.06345 0.62144 0.0
O163 O 0.98741 0.04072 0.49504 0.0
O164 O 0.98764 0.97079 0.47782 0.0
O165 O 0.05242 0.96123 0.7532 0.0
O166 O 0.97158 0.94857 0.59456 0.0
O167 O 0.0093 0.94402 0.75409 0.0
C168 C 0.06922 0.00787 0.52009 0.0
C169 C 0.93997 1.0026 0.79444 0.0
C170 C 0.98106 0.06259 0.538 0.0
C171 C 0.03741 0.0503 0.82764 0.0
C172 C 0.97511 0.95005 0.51197 0.0
C173 C 0.03517 0.94144 0.76764 0.0
O174 O 0.04486 0.00753 0.48732 0.0
O175 O 0.51628 0.08073 0.6743 0.0
Zn176 Zn 0.52167 0.05153 0.76907 0.0
O177 O 0.52016 0.01361 0.71512 0.0
Zn178 Zn 0.49064 0.99058 0.76579 0.0
Zn179 Zn 0.51526 0.01566 0.58846 0.0
Zn180 Zn 0.55397 0.99433 0.73553 0.0
O181 O 0.504 0.95476 0.82119 0.0
O182 O 0.54948 0.96208 0.81563 0.0
O183 O 0.49076 0.05511 0.8635 0.0
O184 O 0.4724 0.01239 0.86013 0.0
O185 O 0.4594 0.98446 0.68055 0.0
O186 O 0.47602 1.0045 0.56005 0.0
O187 O 0.54515 0.99524 0.51772 0.0
O188 O 0.56101 0.06037 0.81741 0.0
O189 O 0.57174 0.98077 0.62596 0.0
O190 O 0.58152 0.02078 0.78214 0.0
C191 C 0.51629 0.07882 0.59055 0.0
C192 C 0.52866 0.94765 0.84042 0.0
C193 C 0.45628 0.99284 0.60231 0.0
C194 C 0.47309 0.03702 0.89041 0.0
C195 C 0.56684 0.98292 0.54444 0.0
C196 C 0.58274 0.04556 0.81077 0.0
O197 O 0.51722 0.05537 0.55165 0.0
O198 O 0.44177 0.50663 0.70324 0.0
Zn199 Zn 0.47705 0.50807 0.78013 0.0
O200 O 0.51164 0.50566 0.70779 0.0
Zn201 Zn 0.53608 0.47594 0.74482 0.0
Zn202 Zn 0.50116 0.4992 0.58664 0.0
Zn203 Zn 0.534 0.53929 0.71437 0.0
O204 O 0.57342 0.48913 0.7942 0.0
O205 O 0.57238 0.53399 0.76451 0.0
O206 O 0.47516 0.47464 0.86447 0.0
O207 O 0.51584 0.45497 0.83556 0.0
O208 O 0.54091 0.4464 0.65135 0.0
O209 O 0.51286 0.46172 0.54728 0.0
O210 O 0.51344 0.53039 0.50877 0.0
O211 O 0.47597 0.54602 0.84214 0.0
O212 O 0.53611 0.55882 0.59967 0.0
O213 O 0.51426 0.56613 0.78952 0.0
C214 C 0.43899 0.50201 0.62099 0.0
C215 C 0.58489 0.51311 0.79531 0.0
C216 C 0.52829 0.44305 0.57862 0.0
C217 C 0.49262 0.45517 0.87537 0.0
C218 C 0.52613 0.55325 0.52425 0.0
C219 C 0.49207 0.56717 0.83464 0.0
O220 O 0.46006 0.4984 0.57212 0.0
O221 O 0.9726 0.53684 0.56659 0.0
Zn222 Zn 1.00909 0.53446 0.63849 0.0
O223 O 0.01372 0.49655 0.68898 0.0
Zn224 Zn 0.01224 0.49825 0.81704 0.0
Zn225 Zn 0.98453 0.47178 0.64606 0.0
Zn226 Zn 0.04886 0.47987 0.65577 0.0
O227 O 0.04606 0.48153 0.87412 0.0
O228 O 0.07321 0.47227 0.75988 0.0
O229 O 1.00791 0.5639 0.73694 0.0
O230 O 0.01224 0.53828 0.85651 0.0
O231 O 0.97679 0.48048 0.86151 0.0
O232 O 0.95886 0.46002 0.74263 0.0
O233 O 0.99861 0.43888 0.57609 0.0
O234 O 0.04349 0.54439 0.5645 0.0
O235 O 0.04433 0.44467 0.58125 0.0
O236 O 0.07009 0.50777 0.58862 0.0
C237 C 0.95516 0.51754 0.54702 0.0
C238 C 0.06916 0.47349 0.84242 0.0
C239 C 0.95783 0.46598 0.8241 0.0
C240 C 0.01023 0.56188 0.82021 0.0
C241 C 0.02295 0.43102 0.55531 0.0
C242 C 0.06654 0.53173 0.5568 0.0
O243 O 0.95901 0.49273 0.57098 0.0
H244 H 0.15637 0.01826 0.21001 0.0
H245 H 0.21233 0.9921 0.41339 0.0
H246 H 0.17437 0.99293 0.52021 0.0
H247 H 0.12443 0.99859 0.55455 0.0
H248 H 0.06864 0.02264 0.34769 0.0
H249 H 0.10719 0.02464 0.24419 0.0
C250 C 0.16034 0.01254 0.27752 0.0
C251 C 0.18734 0.00499 0.30291 0.0
C252 C 0.13828 0.01248 0.33836 0.0
C253 C 0.19196 0.99832 0.39158 0.0
C254 C 0.17015 0.99855 0.4528 0.0
C255 C 0.12073 1.00445 0.487 0.0
C256 C 0.09348 0.01032 0.45935 0.0
C257 C 0.1431 0.00528 0.4268 0.0
C258 C 0.08922 0.0178 0.3712 0.0
C259 C 0.11132 0.019 0.31166 0.0
H260 H 0.5326 0.19287 0.39355 0.0
H261 H 0.50345 0.14204 0.17667 0.0
H262 H 0.4969 0.1029 0.27469 0.0
H263 H 0.50197 0.08219 0.4192 0.0
H264 H 0.53014 0.13233 0.63859 0.0
H265 H 0.53398 0.17277 0.54277 0.0
C266 C 0.5244 0.17336 0.36807 0.0
C267 C 0.51899 0.17032 0.27741 0.0
C268 C 0.52056 0.15078 0.42514 0.0
C269 C 0.50843 0.14482 0.24561 0.0
C270 C 0.50453 0.12242 0.30171 0.0
C271 C 0.50883 0.10198 0.44641 0.0
C272 C 0.51606 0.10412 0.5358 0.0
C273 C 0.51104 0.12501 0.39112 0.0
C274 C 0.52448 0.13007 0.57002 0.0
C275 C 0.52679 0.15318 0.51514 0.0
H276 H 0.32564 0.53192 0.43764 0.0
H277 H 0.3585 0.47503 0.24462 0.0
H278 H 0.39658 0.46371 0.34275 0.0
H279 H 0.42361 0.47407 0.47449 0.0
H280 H 0.39249 0.53128 0.66926 0.0
H281 H 0.35055 0.53807 0.58069 0.0
C282 C 0.34081 0.51658 0.41835 0.0
C283 C 0.33943 0.50447 0.33372 0.0
C284 C 0.36313 0.51047 0.47501 0.0
C285 C 0.35928 0.48474 0.30912 0.0
C286 C 0.3811 0.47832 0.36509 0.0
C287 C 0.40746 0.48774 0.49835 0.0
C288 C 0.41133 0.50241 0.57784 0.0
C289 C 0.38374 0.49172 0.44679 0.0
C290 C 0.39003 0.51972 0.60835 0.0
C291 C 0.36613 0.52374 0.55731 0.0
H292 H 0.0564 0.32904 0.31081 0.0
H293 H 0.96977 0.33409 0.24322 0.0
H294 H 0.96365 0.37174 0.34994 0.0
H295 H 0.98316 0.40452 0.45784 0.0
H296 H 0.07041 0.4018 0.52079 0.0
H297 H 0.07607 0.36216 0.42105 0.0
C298 C 0.03619 0.33829 0.32037 0.0
C299 C 0.01353 0.32882 0.26952 0.0
C300 C 0.03297 0.36048 0.38064 0.0
C301 C 0.98749 0.34112 0.28157 0.0
C302 C 0.98399 0.36264 0.34251 0.0
C303 C 1.00341 0.39517 0.45041 0.0
C304 C 0.0263 0.40621 0.49718 0.0
C305 C 1.00663 0.3727 0.39173 0.0
C306 C 0.05241 0.39386 0.48569 0.0
C307 C 0.05567 0.37113 0.4286 0.0
H308 H 0.81603 0.00973 0.93269 0.0
H309 H 0.83956 0.93289 0.05296 0.0
H310 H 0.88682 0.93866 -0.00167 0.0
H311 H 0.92049 0.96311 0.90528 0.0
H312 H 0.89847 0.04091 0.78881 0.0
H313 H 0.85194 0.03736 0.85353 0.0
C314 C 0.83167 0.9946 0.94848 0.0
C315 C 0.82404 0.97062 -0.00458 0.0
C316 C 0.85908 0.99803 0.91662 0.0
C317 C 0.84465 0.95123 0.01535 0.0
C318 C 0.87175 0.95449 0.98416 0.0
C319 C 0.90558 0.97941 0.8946 0.0
C320 C 0.91285 1.00204 0.8413 0.0
C321 C 0.87899 0.97736 0.9326 0.0
C322 C 0.89342 0.02321 0.8294 0.0
C323 C 0.86675 0.02115 0.8662 0.0
H324 H 0.57234 0.84895 0.06806 0.0
H325 H 0.48465 0.83391 0.10428 0.0
H326 H 0.47421 0.87268 0.00686 0.0
H327 H 0.49044 0.91226 0.91624 0.0
H328 H 0.57871 0.92643 0.88434 0.0
H329 H 0.58836 0.88683 0.97583 0.0
C330 C 0.55091 0.85425 0.05512 0.0
C331 C 0.52932 0.83884 0.09421 0.0
C332 C 0.54516 0.87652 0.0 0.0
C333 C 0.50166 0.84548 0.07491 0.0
C334 C 0.49571 0.86771 0.01959 0.0
C335 C 0.51176 0.9066 0.92901 0.0
C336 C 0.53376 0.92255 0.89355 0.0
C337 C 0.51733 0.8836 0.98242 0.0
C338 C 0.56128 0.91477 0.9108 0.0
C339 C 0.56691 0.89205 0.96324 0.0
H340 H 0.69335 0.52164 0.03084 0.0
H341 H 0.70124 0.59874 0.89109 0.0
H342 H 0.66045 0.58691 0.80349 0.0
H343 H 0.62036 0.55674 0.77436 0.0
H344 H 0.61174 0.47914 0.91078 0.0
H345 H 0.65495 0.48888 0.9907 0.0
C346 C 0.68638 0.53555 0.9801 0.0
C347 C 0.7001 0.56125 0.9686 0.0
C348 C 0.66259 0.52866 0.92976 0.0
C349 C 0.69079 0.57907 0.90248 0.0
C350 C 0.66745 0.57232 0.8522 0.0
C351 C 0.62798 0.54181 0.82109 0.0
C352 C 0.61258 0.51739 0.8371 0.0
C353 C 0.65278 0.54754 0.86674 0.0
C354 C 0.62309 0.49814 0.89711 0.0
C355 C 0.64779 0.50375 0.94315 0.0
H356 H 0.02293 0.65394 0.11522 0.0
H357 H 0.98474 0.70453 0.91826 0.0
H358 H 0.98567 0.66542 0.81398 0.0
H359 H 0.99452 0.61542 0.78249 0.0
H360 H 0.02977 0.56534 0.987 0.0
H361 H 0.03207 0.6054 0.08462 0.0
C362 C 0.01456 0.65649 0.04971 0.0
C363 C 1.00339 0.68216 0.02546 0.0
C364 C 0.01432 0.63376 0.99144 0.0
C365 C 0.99356 0.68513 0.93903 0.0
C366 C 0.99385 0.66264 0.87955 0.0
C367 C 1.00278 0.61334 0.8483 0.0
C368 C 0.01175 0.58718 0.87718 0.0
C369 C 1.00373 0.63664 0.90553 0.0
C370 C 0.02239 0.58498 0.96287 0.0
C371 C 0.02386 0.60796 0.01895 0.0
H372 H 0.98586 0.15538 0.25804 0.0
H373 H 0.03393 0.19531 0.46232 0.0
H374 H 0.01802 0.16017 0.56767 0.0
H375 H 0.99877 0.1133 0.5908 0.0
H376 H 0.95778 0.07004 0.37704 0.0
H377 H 0.9623 0.11127 0.28553 0.0
C378 C 0.99199 0.15682 0.3266 0.0
C379 C 0.01092 0.17765 0.35321 0.0
C380 C 0.98447 0.13558 0.38397 0.0
C381 C 0.01917 0.17949 0.44126 0.0
C382 C 0.01036 0.15921 0.50077 0.0
C383 C 0.99008 0.11323 0.52506 0.0
C384 C 0.97803 0.08874 0.4902 0.0
C385 C 0.99425 0.1364 0.47145 0.0
C386 C 0.96722 0.08866 0.40472 0.0
C387 C 0.96988 0.11216 0.35254 0.0
H388 H 0.34859 0.04542 0.45766 0.0
H389 H 0.33136 0.9608 0.38208 0.0
H390 H 0.37007 0.94507 0.47231 0.0
H391 H 0.41516 0.95703 0.54442 0.0
H392 H 0.43437 0.04289 0.60086 0.0
H393 H 0.38918 0.05667 0.54594 0.0
C394 C 0.35262 0.02344 0.46447 0.0
C395 C 0.33755 1.00432 0.41309 0.0
C396 C 0.37616 0.01495 0.51004 0.0
C397 C 0.34274 0.97587 0.42165 0.0
C398 C 0.36528 0.96696 0.47157 0.0
C399 C 0.40911 0.97861 0.54527 0.0
C400 C 0.42802 0.99908 0.57412 0.0
C401 C 0.38324 0.98652 0.51116 0.0
C402 C 0.42014 0.02699 0.57662 0.0
C403 C 0.3943 0.03485 0.54599 0.0
H404 H 0.48636 0.33269 0.4062 0.0
H405 H 0.57364 0.32254 0.35743 0.0
H406 H 0.58444 0.36213 0.45477 0.0
H407 H 0.56782 0.40531 0.52856 0.0
H408 H 0.47959 0.41755 0.55478 0.0
H409 H 0.47019 0.37197 0.49127 0.0
C410 C 0.50777 0.33848 0.42034 0.0
C411 C 0.52918 0.32494 0.37566 0.0
C412 C 0.51349 0.36244 0.46958 0.0
C413 C 0.5569 0.33261 0.39253 0.0
C414 C 0.56298 0.35559 0.44654 0.0
C415 C 0.54667 0.39771 0.52074 0.0
C416 C 0.52438 0.41482 0.54378 0.0
C417 C 0.54132 0.37166 0.4811 0.0
C418 C 0.49699 0.40488 0.53488 0.0
C419 C 0.49159 0.37876 0.49945 0.0
H420 H 0.15456 0.56386 0.27547 0.0
H421 H 0.20626 0.51958 0.45618 0.0
H422 H 0.16983 0.52191 0.56784 0.0
H423 H 0.12018 0.52599 0.59853 0.0
H424 H 0.06652 0.5654 0.41214 0.0
H425 H 0.1067 0.57561 0.31777 0.0
C426 C 0.15809 0.55547 0.34036 0.0
C427 C 0.1827 0.54089 0.35706 0.0
C428 C 0.13638 0.55532 0.4019 0.0
C429 C 0.18745 0.53072 0.44167 0.0
C430 C 0.16644 0.53168 0.50498 0.0
C431 C 0.11738 0.53733 0.53799 0.0
C432 C 0.09046 0.54429 0.51068 0.0
C433 C 0.14029 0.54222 0.48341 0.0
C434 C 0.08705 0.55961 0.43372 0.0
C435 C 0.10999 0.56528 0.37975 0.0
H436 H 0.02835 0.82012 0.88429 0.0
H437 H 0.08128 0.85205 0.0897 0.0
H438 H 0.09151 0.89346 0.00373 0.0
H439 H 0.07312 0.92592 0.89253 0.0
H440 H 0.01759 0.89389 0.69297 0.0
H441 H 0.02081 0.84751 0.75275 0.0
C442 C 0.04352 0.83532 0.90758 0.0
C443 C 0.0534 0.83354 -0.00621 0.0
C444 C 0.04779 0.85983 0.86015 0.0
C445 C 0.07323 0.8532 0.0234 0.0
C446 C 0.07852 0.87725 0.97511 0.0
C447 C 0.06261 0.90855 0.86061 0.0
C448 C 0.04445 0.91337 0.79048 0.0
C449 C 0.06399 0.88178 0.89687 0.0
C450 C 0.03109 0.89071 0.7488 0.0
C451 C 0.03295 0.86413 0.78275 0.0
H452 H 0.70379 0.03905 0.91595 0.0
H453 H 0.67518 0.08799 0.1355 0.0
H454 H 0.63326 0.09969 0.05466 0.0
H455 H 0.59906 0.08183 0.94331 0.0
H456 H 0.62974 0.03368 0.72403 0.0
H457 H 0.67654 0.03638 0.78224 0.0
C458 C 0.68931 0.05357 0.94489 0.0
C459 C 0.69129 0.06051 0.03452 0.0
C460 C 0.66492 0.05948 0.89894 0.0
C461 C 0.67317 0.08084 0.06805 0.0
C462 C 0.64888 0.0872 0.02237 0.0
C463 C 0.61619 0.07294 0.90677 0.0
C464 C 0.6108 0.05639 0.83207 0.0
C465 C 0.64339 0.0743 0.94118 0.0
C466 C 0.63327 0.04557 0.7839 0.0
C467 C 0.66013 0.04715 0.81687 0.0
H468 H 0.45761 0.66938 0.06679 0.0
H469 H 0.53198 0.70286 0.94833 0.0
H470 H 0.53258 0.66423 0.84321 0.0
H471 H 0.51892 0.61627 0.81172 0.0
H472 H 0.44871 0.57934 0.94615 0.0
H473 H 0.44 0.62358 0.02081 0.0
C474 C 0.47325 0.66872 0.01535 0.0
C475 C 0.49508 0.6885 0.01628 0.0
C476 C 0.47505 0.64507 0.96159 0.0
C477 C 0.51505 0.68785 0.94913 0.0
C478 C 0.51576 0.66537 0.89052 0.0
C479 C 0.50154 0.61779 0.85691 0.0
C480 C 0.48496 0.59421 0.87533 0.0
C481 C 0.4971 0.64299 0.90079 0.0
C482 C 0.46215 0.59694 0.93225 0.0
C483 C 0.45707 0.62228 0.97446 0.0
H484 H 0.86253 0.47373 0.09782 0.0
H485 H 0.82974 0.52474 0.89176 0.0
H486 H 0.8635 0.50569 0.78872 0.0
H487 H 0.90893 0.48403 0.76778 0.0
H488 H 0.94781 0.44284 0.98437 0.0
H489 H 0.90577 0.44887 0.07348 0.0
C490 C 0.8626 0.48057 0.03011 0.0
C491 C 0.84417 0.5014 0.00363 0.0
C492 C 0.88378 0.47167 0.97372 0.0
C493 C 0.84369 0.50895 0.91464 0.0
C494 C 0.86334 0.49836 0.85584 0.0
C495 C 0.90773 0.47556 0.83355 0.0
C496 C 0.93112 0.4628 0.86978 0.0
C497 C 0.88448 0.4811 0.88617 0.0
C498 C 0.92986 0.45252 0.9555 0.0
C499 C 0.90594 0.45614 0.0063 0.0
H500 H 0.0346 0.12674 0.15249 0.0
H501 H 0.07163 0.18587 0.97314 0.0
H502 H 0.07455 0.14927 0.86151 0.0
H503 H 0.06263 0.10094 0.81161 0.0
H504 H 0.03026 0.04276 0.00021 0.0
H505 H 0.03159 0.07857 0.11457 0.0
C506 C 0.04485 0.13206 0.09158 0.0
C507 C 0.05312 0.15976 0.07372 0.0
C508 C 0.04764 0.11078 0.02917 0.0
C509 C 0.06457 0.16524 0.99013 0.0
C510 C 0.06652 0.14413 0.926 0.0
C511 C 0.05697 0.09598 0.87872 0.0
C512 C 0.04677 0.06919 0.89833 0.0
C513 C 0.05763 0.11689 0.94434 0.0
C514 C 0.03871 0.06305 0.98448 0.0
C515 C 0.03913 0.08363 0.0494 0.0
H516 H 0.39186 0.01871 0.19724 0.0
H517 H 0.33353 0.05573 0.01866 0.0
H518 H 0.37156 0.06432 0.91486 0.0
H519 H 0.42146 0.05863 0.87228 0.0
H520 H 0.47857 0.02596 0.06148 0.0
H521 H 0.44089 0.02058 0.16769 0.0
C522 C 0.38706 0.02999 0.13818 0.0
C523 C 0.35932 0.03697 0.1181 0.0
C524 C 0.40909 0.03622 0.08121 0.0
C525 C 0.35431 0.04977 0.03688 0.0
C526 C 0.3762 0.05503 0.9776 0.0
C527 C 0.42572 0.05151 0.93823 0.0
C528 C 0.45285 0.04329 0.96017 0.0
C529 C 0.4037 0.04815 -0.0011 0.0
C530 C 0.45804 0.0331 0.04433 0.0
C531 C 0.43641 0.0296 0.10437 0.0
H532 H 0.47046 0.36228 0.15578 0.0
H533 H 0.52163 0.31692 0.97196 0.0
H534 H 0.51898 0.35494 0.86834 0.0
H535 H 0.50877 0.40334 0.84022 0.0
H536 H 0.4607 0.45091 0.02609 0.0
H537 H 0.45577 0.40979 0.11961 0.0
C538 C 0.4808 0.36059 0.09261 0.0
C539 C 0.4967 0.33688 0.07258 0.0
C540 C 0.48028 0.38314 0.03481 0.0
C541 C 0.50921 0.33472 0.98935 0.0
C542 C 0.50802 0.35667 0.93043 0.0
C543 C 0.49705 0.40475 0.90108 0.0
C544 C 0.48571 0.43029 0.9276 0.0
C545 C 0.49472 0.38134 0.95427 0.0
C546 C 0.46985 0.43156 0.00494 0.0
C547 C 0.46713 0.40808 0.05828 0.0
H548 H 0.15202 0.47233 0.15902 0.0
H549 H 0.20593 0.50879 0.9638 0.0
H550 H 0.1718 0.49754 0.84936 0.0
H551 H 0.12356 0.4848 0.81004 0.0
H552 H 0.06774 0.4546 0.01065 0.0
H553 H 0.10546 0.45625 0.11802 0.0
C554 C 0.15644 0.47763 0.09124 0.0
C555 C 0.18128 0.49194 0.07036 0.0
C556 C 0.13609 0.47262 0.02705 0.0
C557 C 0.18703 0.49783 0.98187 0.0
C558 C 0.16734 0.49169 0.91657 0.0
C559 C 0.11985 0.47793 0.87677 0.0
C560 C 0.09289 0.4696 0.90256 0.0
C561 C 0.14133 0.48018 0.93909 0.0
C562 C 0.08827 0.46116 0.98944 0.0
C563 C 0.10982 0.46216 0.0508 0.0
H564 H 0.98374 0.83266 0.33761 0.0
H565 H 0.9767 0.88116 0.1023 0.0
H566 H 0.96606 0.92227 0.18996 0.0
H567 H 0.96706 0.94597 0.3343 0.0
H568 H 0.97173 0.89691 0.56939 0.0
H569 H 0.97436 0.85467 0.48125 0.0
C570 C 0.97889 0.85196 0.3054 0.0
C571 C 0.98189 0.85403 0.21382 0.0
C572 C 0.9728 0.87565 0.35631 0.0
C573 C 0.97531 0.87921 0.17306 0.0
C574 C 0.96928 0.90279 0.22311 0.0
C575 C 0.96795 0.92598 0.36615 0.0
C576 C 0.9697 0.92475 0.45818 0.0
C577 C 0.96937 0.90156 0.315 0.0
C578 C 0.97046 0.8986 0.49857 0.0
C579 C 0.97215 0.87432 0.44818 0.0
H580 H 0.68218 0.97762 0.35445 0.0
H581 H 0.63177 1.00239 0.13572 0.0
H582 H 0.58963 0.9945 0.22129 0.0
H583 H 0.56767 0.98797 0.36538 0.0
H584 H 0.61782 0.96216 0.58408 0.0
H585 H 0.659 0.96237 0.49135 0.0
C586 C 0.66194 0.98055 0.32512 0.0
C587 C 0.6601 0.99134 0.24005 0.0
C588 C 0.63761 0.97609 0.37502 0.0
C589 C 0.6337 0.99476 0.20217 0.0
C590 C 0.60956 0.99026 0.25097 0.0
C591 C 0.58744 0.9817 0.39229 0.0
C592 C 0.58958 0.97576 0.48221 0.0
C593 C 0.6113 0.98209 0.33874 0.0
C594 C 0.61544 0.96729 0.51538 0.0
C595 C 0.63918 0.96751 0.46246 0.0
H596 H 0.48142 0.6473 0.28641 0.0
H597 H 0.55494 0.69015 0.38086 0.0
H598 H 0.56605 0.6502 0.47198 0.0
H599 H 0.5564 0.60155 0.51585 0.0
H600 H 0.48732 0.55729 0.39657 0.0
H601 H 0.47445 0.59867 0.3176 0.0
C602 C 0.5002 0.64792 0.32569 0.0
C603 C 0.51758 0.67161 0.32499 0.0
C604 C 0.50789 0.62415 0.37064 0.0
C605 C 0.54101 0.67235 0.38011 0.0
C606 C 0.5477 0.64927 0.43089 0.0
C607 C 0.53889 0.60086 0.47115 0.0
C608 C 0.52293 0.57628 0.46205 0.0
C609 C 0.5317 0.62475 0.42458 0.0
C610 C 0.50024 0.57572 0.40408 0.0
C611 C 0.49254 0.59952 0.3599 0.0
H612 H 0.83991 0.51257 0.3542 0.0
H613 H 0.87193 0.58664 0.23374 0.0
H614 H 0.91195 0.58695 0.33363 0.0
H615 H 0.94118 0.56169 0.44099 0.0
H616 H 0.90847 0.48609 0.55354 0.0
H617 H 0.86575 0.49085 0.472 0.0
C618 C 0.8551 0.52938 0.35258 0.0
C619 C 0.85284 0.54982 0.28839 0.0
C620 C 0.87848 0.52868 0.40735 0.0
C621 C 0.87301 0.57108 0.28445 0.0
C622 C 0.89611 0.57096 0.34055 0.0
C623 C 0.92455 0.54651 0.44831 0.0
C624 C 0.9285 0.52321 0.50178 0.0
C625 C 0.89967 0.54917 0.39999 0.0
C626 C 0.90651 0.50387 0.51115 0.0
C627 C 0.88183 0.50661 0.46493 0.0
loop_
_geom_bond_atom_site_label_1
_geom_bond_atom_site_label_2
_geom_bond_distance
_geom_bond_site_symmetry_2
_ccdc_geom_bond_type
H0 C1 0.949 . S
C1 H0 0.949 . S
C1 C2 1.395 . S
C1 C3 1.391 1_556 S
C2 C1 1.395 . S
C2 C5 1.390 1_556 S
C3 C1 1.391 1_554 S
C3 C7 1.387 . S
C3 C8 1.491 . S
H4 C5 0.950 . S
C5 C2 1.390 1_554 S
C5 H4 0.950 . S
C5 C6 1.378 . S
C6 C5 1.378 . S
C6 C7 1.409 . S
C7 C3 1.387 . S
C7 C6 1.409 . S
C7 H9 0.951 . S
C8 C3 1.491 . S
C8 C10 1.382 1_554 S
C8 C12 1.404 . S
H9 C7 0.951 . S
C10 C8 1.382 1_556 S
C10 C11 1.390 . S
C10 H15 0.949 . S
C11 C10 1.390 . S
C11 C16 1.399 1_556 S
C12 C8 1.404 . S
C12 H13 0.950 . S
C12 C14 1.375 . S
H13 C12 0.950 . S
C14 C12 1.375 . S
C14 C16 1.382 . S
C14 H18 0.950 . S
H15 C10 0.949 . S
C16 C11 1.399 1_554 S
C16 C14 1.382 . S
C16 H17 0.952 . S
H17 C16 0.952 . S
H18 C14 0.950 . S
H19 C20 0.949 . S
C20 H19 0.949 . S
C20 C21 1.389 1_655 S
C20 C22 1.391 . S
C21 C20 1.389 1_455 S
C21 C24 1.393 . S
C22 C20 1.391 . S
C22 C26 1.387 . S
C22 C27 1.491 . S
H23 C24 0.950 . S
C24 C21 1.393 . S
C24 H23 0.950 . S
C24 C25 1.379 . S
C25 C24 1.379 . S
C25 C26 1.406 1_455 S
C26 C22 1.387 . S
C26 C25 1.406 1_655 S
C26 H28 0.951 . S
C27 C22 1.491 . S
C27 C29 1.382 . S
C27 C31 1.404 . S
H28 C26 0.951 . S
C29 C27 1.382 . S
C29 C30 1.390 . S
C29 H34 0.949 1_655 S
C30 C29 1.390 . S
C30 C35 1.399 . S
C31 C27 1.404 . S
C31 H32 0.950 . S
C31 C33 1.375 . S
H32 C31 0.950 . S
C33 C31 1.375 . S
C33 C35 1.382 . S
C33 H37 0.950 . S
H34 C29 0.949 1_455 S
C35 C30 1.399 . S
C35 C33 1.382 . S
C35 H36 0.952 . S
H36 C35 0.952 . S
H37 C33 0.950 . S
H38 C39 0.949 1_556 S
C39 H38 0.949 1_554 S
C39 C40 1.393 1_565 S
C39 C41 1.391 . S
C40 C39 1.393 1_545 S
C40 C43 1.391 . S
C41 C39 1.391 . S
C41 C45 1.387 . S
C41 C46 1.491 . S
H42 C43 0.950 . S
C43 C40 1.391 . S
C43 H42 0.950 . S
C43 C44 1.378 . S
C44 C43 1.378 . S
C44 C45 1.410 1_545 S
C45 C41 1.387 . S
C45 C44 1.410 1_565 S
C45 H47 0.951 . S
C46 C41 1.491 . S
C46 C48 1.382 . S
C46 C50 1.404 . S
H47 C45 0.951 . S
C48 C46 1.382 . S
C48 C49 1.390 . S
C48 H53 0.949 1_564 S
C49 C48 1.390 . S
C49 C54 1.399 . S
C50 C46 1.404 . S
C50 H51 0.950 . S
C50 C52 1.375 . S
H51 C50 0.950 . S
C52 C50 1.375 . S
C52 C54 1.382 . S
C52 H56 0.950 . S
H53 C48 0.949 1_546 S
C54 C49 1.399 . S
C54 C52 1.382 . S
C54 H55 0.952 . S
H55 C54 0.952 . S
H56 C52 0.950 . S
H57 C58 0.949 . S
C58 H57 0.949 . S
C58 C59 1.395 . S
C58 C60 1.391 1_556 S
C59 C58 1.395 . S
C59 C62 1.390 1_556 S
C60 C58 1.391 1_554 S
C60 C64 1.387 . S
C60 C65 1.491 . S
H61 C62 0.950 . S
C62 C59 1.390 1_554 S
C62 H61 0.950 . S
C62 C63 1.378 . S
C63 C62 1.378 . S
C63 C64 1.409 . S
C64 C60 1.387 . S
C64 C63 1.409 . S
C64 H66 0.951 . S
C65 C60 1.491 . S
C65 C67 1.382 1_554 S
C65 C69 1.404 . S
H66 C64 0.951 . S
C67 C65 1.382 1_556 S
C67 C68 1.390 . S
C67 H72 0.949 . S
C68 C67 1.390 . S
C68 C73 1.399 1_556 S
C69 C65 1.404 . S
C69 H70 0.950 . S
C69 C71 1.375 . S
H70 C69 0.950 . S
C71 C69 1.375 . S
C71 C73 1.382 . S
C71 H75 0.950 . S
H72 C67 0.949 . S
C73 C68 1.399 1_554 S
C73 C71 1.382 . S
C73 H74 0.952 . S
H74 C73 0.952 . S
H75 C71 0.950 . S
H76 C77 0.949 . S
C77 H76 0.949 . S
C77 C78 1.395 . S
C77 C79 1.391 . S
C78 C77 1.395 . S
C78 C81 1.390 . S
C79 C77 1.391 . S
C79 C83 1.387 . S
C79 C84 1.491 . S
H80 C81 0.950 . S
C81 C78 1.390 . S
C81 H80 0.950 . S
C81 C82 1.378 . S
C82 C81 1.378 . S
C82 C83 1.409 . S
C83 C79 1.387 . S
C83 C82 1.409 . S
C83 H85 0.951 . S
C84 C79 1.491 . S
C84 C86 1.382 . S
C84 C88 1.404 . S
H85 C83 0.951 . S
C86 C84 1.382 . S
C86 C87 1.390 . S
C86 H91 0.949 . S
C87 C86 1.390 . S
C87 C92 1.399 . S
C88 C84 1.404 . S
C88 H89 0.950 . S
C88 C90 1.375 . S
H89 C88 0.950 . S
C90 C88 1.375 . S
C90 C92 1.382 . S
C90 H94 0.950 . S
H91 C86 0.949 . S
C92 C87 1.399 . S
C92 C90 1.382 . S
C92 H93 0.952 . S
H93 C92 0.952 . S
H94 C90 0.950 . S
H95 C96 0.949 . S
C96 H95 0.949 . S
C96 C97 1.395 . S
C96 C98 1.391 . S
C97 C96 1.395 . S
C97 C100 1.390 . S
C98 C96 1.391 . S
C98 C102 1.387 . S
C98 C103 1.491 . S
H99 C100 0.950 . S
C100 C97 1.390 . S
C100 H99 0.950 . S
C100 C101 1.378 . S
C101 C100 1.378 . S
C101 C102 1.409 . S
C102 C98 1.387 . S
C102 C101 1.409 . S
C102 H104 0.951 . S
C103 C98 1.491 . S
C103 C105 1.382 . S
C103 C107 1.404 . S
H104 C102 0.951 . S
C105 C103 1.382 . S
C105 C106 1.390 . S
C105 H110 0.949 . S
C106 C105 1.390 . S
C106 C111 1.399 . S
C107 C103 1.404 . S
C107 H108 0.950 1_455 S
C107 C109 1.375 1_455 S
H108 C107 0.950 1_655 S
C109 C107 1.375 1_655 S
C109 C111 1.382 1_655 S
C109 H113 0.950 . S
H110 C105 0.949 . S
C111 C106 1.399 . S
C111 C109 1.382 1_455 S
C111 H112 0.952 . S
H112 C111 0.952 . S
H113 C109 0.950 . S
H114 C115 0.949 . S
C115 H114 0.949 . S
C115 C116 1.395 . S
C115 C117 1.391 . S
C116 C115 1.395 . S
C116 C119 1.390 . S
C117 C115 1.391 . S
C117 C121 1.387 . S
C117 C122 1.491 1_545 S
H118 C119 0.950 . S
C119 C116 1.390 . S
C119 H118 0.950 . S
C119 C120 1.378 . S
C120 C119 1.378 . S
C120 C121 1.409 . S
C121 C117 1.387 . S
C121 C120 1.409 . S
C121 H123 0.951 . S
C122 C117 1.491 1_565 S
C122 C124 1.382 1_565 S
C122 C126 1.404 . S
H123 C121 0.951 . S
C124 C122 1.382 1_545 S
C124 C125 1.390 . S
C124 H129 0.949 . S
C125 C124 1.390 . S
C125 C130 1.399 1_545 S
C126 C122 1.404 . S
C126 H127 0.950 . S
C126 C128 1.375 . S
H127 C126 0.950 . S
C128 C126 1.375 . S
C128 C130 1.382 . S
C128 H132 0.950 . S
H129 C124 0.949 . S
C130 C125 1.399 1_565 S
C130 C128 1.382 . S
C130 H131 0.952 . S
H131 C130 0.952 . S
H132 C128 0.950 . S
H133 C134 0.949 . S
C134 H133 0.949 . S
C134 C135 1.395 . S
C134 C136 1.391 . S
C135 C134 1.395 . S
C135 C138 1.390 . S
C136 C134 1.391 . S
C136 C140 1.387 . S
C136 C141 1.491 . S
H137 C138 0.950 . S
C138 C135 1.390 . S
C138 H137 0.950 . S
C138 C139 1.378 . S
C139 C138 1.378 . S
C139 C140 1.409 . S
C140 C136 1.387 . S
C140 C139 1.409 . S
C140 H142 0.951 . S
C141 C136 1.491 . S
C141 C143 1.382 . S
C141 C145 1.404 . S
H142 C140 0.951 . S
C143 C141 1.382 . S
C143 C144 1.390 . S
C143 H148 0.949 . S
C144 C143 1.390 . S
C144 C149 1.399 . S
C145 C141 1.404 . S
C145 H146 0.950 . S
C145 C147 1.375 . S
H146 C145 0.950 . S
C147 C145 1.375 . S
C147 C149 1.382 . S
C147 H151 0.950 . S
H148 C143 0.949 . S
C149 C144 1.399 . S
C149 C147 1.382 . S
C149 H150 0.952 . S
H150 C149 0.952 . S
H151 C147 0.950 . S
O152 Zn153 1.956 . S
O152 C168 1.225 1_545 S
Zn153 O152 1.956 . S
Zn153 O154 1.948 1_545 S
Zn153 O160 1.943 . S
Zn153 O165 1.895 1_545 S
O154 Zn153 1.948 1_565 S
O154 Zn155 1.901 1_465 S
O154 Zn156 1.952 . S
O154 Zn157 1.966 1_455 S
Zn155 O154 1.901 1_645 S
Zn155 O158 1.933 . S
Zn155 O161 1.941 1_655 S
Zn155 O162 1.965 . S
Zn156 O154 1.952 . S
Zn156 O163 1.938 1_565 S
Zn156 O164 1.906 . S
Zn156 O174 1.953 . S
Zn157 O154 1.966 1_655 S
Zn157 O159 1.932 . S
Zn157 O166 1.977 . S
Zn157 O167 1.910 1_655 S
O158 Zn155 1.933 . S
O158 C169 1.226 . S
O159 Zn157 1.932 . S
O159 C169 1.307 1_565 S
O160 Zn153 1.943 . S
O160 C171 1.253 . S
O161 Zn155 1.941 1_455 S
O161 C171 1.283 . S
O162 Zn155 1.965 . S
O162 C170 1.303 1_655 S
O163 Zn156 1.938 1_545 S
O163 C170 1.247 . S
O164 Zn156 1.906 . S
O164 C172 1.304 1_455 S
O165 Zn153 1.895 1_565 S
O165 C173 1.311 . S
O166 Zn157 1.977 . S
O166 C172 1.272 . S
O167 Zn157 1.910 1_455 S
O167 C173 1.231 . S
C168 O152 1.225 1_565 S
C168 O174 1.298 . S
C169 O158 1.226 . S
C169 O159 1.307 1_545 S
C170 O162 1.303 1_455 S
C170 O163 1.247 . S
C171 O160 1.253 . S
C171 O161 1.283 . S
C172 O164 1.304 1_655 S
C172 O166 1.272 . S
C173 O165 1.311 . S
C173 O167 1.231 . S
O174 Zn156 1.953 . S
O174 C168 1.298 . S
O175 Zn176 1.953 . S
O175 C191 1.225 . S
Zn176 O175 1.953 . S
Zn176 O177 1.949 . S
Zn176 O183 1.919 . S
Zn176 O188 1.924 . S
O177 Zn176 1.949 . S
O177 Zn178 1.923 1_545 S
O177 Zn179 1.950 . S
O177 Zn180 1.945 1_545 S
Zn178 O177 1.923 1_565 S
Zn178 O181 1.933 . S
Zn178 O184 1.941 . S
Zn178 O185 1.965 . S
Zn179 O177 1.950 . S
Zn179 O186 1.938 . S
Zn179 O187 1.906 . S
Zn179 O197 1.953 . S
Zn180 O177 1.945 1_565 S
Zn180 O182 1.932 . S
Zn180 O189 1.977 . S
Zn180 O190 1.910 1_565 S
O181 Zn178 1.933 . S
O181 C192 1.226 . S
O182 Zn180 1.932 . S
O182 C192 1.307 . S
O183 Zn176 1.919 . S
O183 C194 1.253 . S
O184 Zn178 1.941 . S
O184 C194 1.283 1_565 S
O185 Zn178 1.965 . S
O185 C193 1.303 1_565 S
O186 Zn179 1.938 . S
O186 C193 1.247 . S
O187 Zn179 1.906 . S
O187 C195 1.304 1_545 S
O188 Zn176 1.924 . S
O188 C196 1.311 . S
O189 Zn180 1.977 . S
O189 C195 1.272 . S
O190 Zn180 1.910 1_545 S
O190 C196 1.231 . S
C191 O175 1.225 . S
C191 O197 1.298 . S
C192 O181 1.226 . S
C192 O182 1.307 . S
C193 O185 1.303 1_545 S
C193 O186 1.247 . S
C194 O183 1.253 . S
C194 O184 1.283 1_545 S
C195 O187 1.304 1_565 S
C195 O189 1.272 . S
C196 O188 1.311 . S
C196 O190 1.231 . S
O197 Zn179 1.953 . S
O197 C191 1.298 . S
O198 Zn199 1.953 . S
O198 C214 1.225 . S
Zn199 O198 1.953 . S
Zn199 O200 1.949 . S
Zn199 O206 1.919 . S
Zn199 O211 1.924 . S
O200 Zn199 1.949 . S
O200 Zn201 1.923 . S
O200 Zn202 1.950 . S
O200 Zn203 1.945 . S
Zn201 O200 1.923 . S
Zn201 O204 1.933 . S
Zn201 O207 1.941 . S
Zn201 O208 1.965 . S
Zn202 O200 1.950 . S
Zn202 O209 1.938 . S
Zn202 O210 1.906 . S
Zn202 O220 1.953 . S
Zn203 O200 1.945 . S
Zn203 O205 1.932 . S
Zn203 O212 1.977 . S
Zn203 O213 1.910 . S
O204 Zn201 1.933 . S
O204 C215 1.226 . S
O205 Zn203 1.932 . S
O205 C215 1.307 . S
O206 Zn199 1.919 . S
O206 C217 1.253 . S
O207 Zn201 1.941 . S
O207 C217 1.283 . S
O208 Zn201 1.965 . S
O208 C216 1.303 . S
O209 Zn202 1.938 . S
O209 C216 1.247 . S
O210 Zn202 1.906 . S
O210 C218 1.304 . S
O211 Zn199 1.924 . S
O211 C219 1.311 . S
O212 Zn203 1.977 . S
O212 C218 1.272 . S
O213 Zn203 1.910 . S
O213 C219 1.231 . S
C214 O198 1.225 . S
C214 O220 1.298 . S
C215 O204 1.226 . S
C215 O205 1.307 . S
C216 O208 1.303 . S
C216 O209 1.247 . S
C217 O206 1.253 . S
C217 O207 1.283 . S
C218 O210 1.304 . S
C218 O212 1.272 . S
C219 O211 1.311 . S
C219 O213 1.231 . S
O220 Zn202 1.953 . S
O220 C214 1.298 . S
O221 Zn222 1.953 1_655 S
O221 C237 1.225 . S
Zn222 O221 1.953 1_455 S
Zn222 O223 1.949 . S
Zn222 O229 1.919 . S
Zn222 O234 1.924 . S
O223 Zn222 1.949 . S
O223 Zn224 1.917 1_455 S
O223 Zn225 1.929 1_455 S
O223 Zn226 1.973 . S
Zn224 O223 1.917 1_655 S
Zn224 O227 1.933 1_655 S
Zn224 O230 1.941 . S
Zn224 O231 1.965 . S
Zn225 O223 1.929 1_655 S
Zn225 O232 1.938 . S
Zn225 O233 1.906 . S
Zn225 O243 1.953 . S
Zn226 O223 1.973 . S
Zn226 O228 1.932 . S
Zn226 O235 1.977 . S
Zn226 O236 1.910 . S
O227 Zn224 1.933 1_455 S
O227 C238 1.226 . S
O228 Zn226 1.932 . S
O228 C238 1.307 . S
O229 Zn222 1.919 . S
O229 C240 1.254 . S
O230 Zn224 1.941 . S
O230 C240 1.278 1_655 S
O231 Zn224 1.965 . S
O231 C239 1.303 . S
O232 Zn225 1.938 . S
O232 C239 1.247 . S
O233 Zn225 1.906 . S
O233 C241 1.304 1_655 S
O234 Zn222 1.924 . S
O234 C242 1.311 . S
O235 Zn226 1.977 . S
O235 C241 1.272 . S
O236 Zn226 1.910 . S
O236 C242 1.231 . S
C237 O221 1.225 . S
C237 O243 1.298 . S
C238 O227 1.226 . S
C238 O228 1.307 . S
C239 O231 1.303 . S
C239 O232 1.247 . S
C240 O229 1.254 . S
C240 O230 1.278 1_455 S
C241 O233 1.304 1_455 S
C241 O235 1.272 . S
C242 O234 1.311 . S
C242 O236 1.231 . S
O243 Zn225 1.953 . S
O243 C237 1.298 . S
H244 C250 0.930 . S
H245 C253 0.930 . S
H246 C254 0.926 1_565 S
H247 C255 0.930 . S
H248 C258 0.930 . S
H249 C259 0.930 . S
C250 H244 0.930 . S
C250 C251 1.355 . S
C250 C252 1.415 . S
C251 C250 1.355 . S
C251 C253 1.419 . S
C252 C250 1.415 . S
C252 C257 1.425 . S
C252 C259 1.409 . S
C253 H245 0.930 . S
C253 C251 1.419 . S
C253 C254 1.362 . S
C254 H246 0.926 1_545 S
C254 C253 1.362 . S
C254 C257 1.409 . S
C255 H247 0.930 . S
C255 C256 1.355 . S
C255 C257 1.415 1_565 S
C256 C255 1.355 . S
C256 C258 1.419 1_565 S
C257 C252 1.425 . S
C257 C254 1.409 . S
C257 C255 1.415 1_545 S
C258 H248 0.930 . S
C258 C256 1.419 1_545 S
C258 C259 1.362 . S
C259 H249 0.930 . S
C259 C252 1.409 . S
C259 C258 1.362 . S
H260 C266 0.930 . S
H261 C269 0.930 . S
H262 C270 0.930 . S
H263 C271 0.930 . S
H264 C274 0.930 . S
H265 C275 0.930 . S
C266 H260 0.930 . S
C266 C267 1.355 . S
C266 C268 1.415 . S
C267 C266 1.355 . S
C267 C269 1.419 . S
C268 C266 1.415 . S
C268 C273 1.425 . S
C268 C275 1.409 . S
C269 H261 0.930 . S
C269 C267 1.419 . S
C269 C270 1.362 . S
C270 H262 0.930 . S
C270 C269 1.362 . S
C270 C273 1.409 . S
C271 H263 0.930 . S
C271 C272 1.355 . S
C271 C273 1.415 . S
C272 C271 1.355 . S
C272 C274 1.419 . S
C273 C268 1.425 . S
C273 C270 1.409 . S
C273 C271 1.415 . S
C274 H264 0.930 . S
C274 C272 1.419 . S
C274 C275 1.362 . S
C275 H265 0.930 . S
C275 C268 1.409 . S
C275 C274 1.362 . S
H276 C282 0.930 . S
H277 C285 0.930 . S
H278 C286 0.930 . S
H279 C287 0.930 . S
H280 C290 0.930 . S
H281 C291 0.930 . S
C282 H276 0.930 . S
C282 C283 1.355 . S
C282 C284 1.415 . S
C283 C282 1.355 . S
C283 C285 1.419 . S
C284 C282 1.415 . S
C284 C289 1.425 . S
C284 C291 1.409 . S
C285 H277 0.930 . S
C285 C283 1.419 . S
C285 C286 1.362 . S
C286 H278 0.930 . S
C286 C285 1.362 . S
C286 C289 1.409 . S
C287 H279 0.930 . S
C287 C288 1.355 . S
C287 C289 1.415 . S
C288 C287 1.355 . S
C288 C290 1.419 . S
C289 C284 1.425 . S
C289 C286 1.409 . S
C289 C287 1.415 . S
C290 H280 0.930 . S
C290 C288 1.419 . S
C290 C291 1.362 . S
C291 H281 0.930 . S
C291 C284 1.409 . S
C291 C290 1.362 . S
H292 C298 0.930 . S
H293 C301 0.930 1_655 S
H294 C302 0.930 . S
H295 C303 0.930 1_655 S
H296 C306 0.930 . S
H297 C307 0.930 . S
C298 H292 0.930 . S
C298 C299 1.355 . S
C298 C300 1.415 . S
C299 C298 1.355 . S
C299 C301 1.419 . S
C300 C298 1.415 . S
C300 C305 1.425 . S
C300 C307 1.409 . S
C301 H293 0.930 1_455 S
C301 C299 1.419 . S
C301 C302 1.362 1_455 S
C302 H294 0.930 . S
C302 C301 1.362 1_655 S
C302 C305 1.409 1_655 S
C303 H295 0.930 1_455 S
C303 C304 1.355 . S
C303 C305 1.415 . S
C304 C303 1.355 . S
C304 C306 1.419 . S
C305 C300 1.425 . S
C305 C302 1.409 1_455 S
C305 C303 1.415 . S
C306 H296 0.930 . S
C306 C304 1.419 . S
C306 C307 1.362 . S
C307 H297 0.930 . S
C307 C300 1.409 . S
C307 C306 1.362 . S
H308 C314 0.930 . S
H309 C317 0.930 . S
H310 C318 0.930 1_554 S
H311 C319 0.930 . S
H312 C322 0.930 . S
H313 C323 0.930 . S
C314 H308 0.930 . S
C314 C315 1.355 1_545 S
C314 C316 1.415 . S
C315 C314 1.355 1_565 S
C315 C317 1.419 1_556 S
C316 C314 1.415 . S
C316 C321 1.425 1_545 S
C316 C323 1.409 . S
C317 H309 0.930 . S
C317 C315 1.419 1_554 S
C317 C318 1.362 1_554 S
C318 H310 0.930 1_556 S
C318 C317 1.362 1_556 S
C318 C321 1.409 . S
C319 H311 0.930 . S
C319 C320 1.355 1_565 S
C319 C321 1.415 . S
C320 C319 1.355 1_545 S
C320 C322 1.419 . S
C321 C316 1.425 1_565 S
C321 C318 1.409 . S
C321 C319 1.415 . S
C322 H312 0.930 . S
C322 C320 1.419 . S
C322 C323 1.362 . S
C323 H313 0.930 . S
C323 C316 1.409 . S
C323 C322 1.362 . S
H324 C330 0.930 . S
H325 C333 0.930 1_554 S
H326 C334 0.930 . S
H327 C335 0.930 . S
H328 C338 0.930 . S
H329 C339 0.930 . S
C330 H324 0.930 . S
C330 C331 1.355 . S
C330 C332 1.415 . S
C331 C330 1.355 . S
C331 C333 1.419 . S
C332 C330 1.415 . S
C332 C337 1.425 . S
C332 C339 1.409 . S
C333 H325 0.930 1_556 S
C333 C331 1.419 . S
C333 C334 1.362 . S
C334 H326 0.930 . S
C334 C333 1.362 . S
C334 C337 1.409 . S
C335 H327 0.930 . S
C335 C336 1.355 . S
C335 C337 1.415 . S
C336 C335 1.355 . S
C336 C338 1.419 . S
C337 C332 1.425 . S
C337 C334 1.409 . S
C337 C335 1.415 . S
C338 H328 0.930 . S
C338 C336 1.419 . S
C338 C339 1.362 . S
C339 H329 0.930 . S
C339 C332 1.409 . S
C339 C338 1.362 . S
H340 C346 0.930 . S
H341 C349 0.930 . S
H342 C350 0.930 . S
H343 C351 0.930 . S
H344 C354 0.930 . S
H345 C355 0.930 . S
C346 H340 0.930 . S
C346 C347 1.355 . S
C346 C348 1.415 . S
C347 C346 1.355 . S
C347 C349 1.419 . S
C348 C346 1.415 . S
C348 C353 1.425 . S
C348 C355 1.409 . S
C349 H341 0.930 . S
C349 C347 1.419 . S
C349 C350 1.362 . S
C350 H342 0.930 . S
C350 C349 1.362 . S
C350 C353 1.409 . S
C351 H343 0.930 . S
C351 C352 1.355 . S
C351 C353 1.415 . S
C352 C351 1.355 . S
C352 C354 1.419 . S
C353 C348 1.425 . S
C353 C350 1.409 . S
C353 C351 1.415 . S
C354 H344 0.930 . S
C354 C352 1.419 . S
C354 C355 1.362 . S
C355 H345 0.930 . S
C355 C348 1.409 . S
C355 C354 1.362 . S
H356 C362 0.930 1_554 S
H357 C365 0.930 . S
H358 C366 0.930 . S
H359 C367 0.930 . S
H360 C370 0.930 . S
H361 C371 0.930 . S
C362 H356 0.930 1_556 S
C362 C363 1.355 1_455 S
C362 C364 1.415 . S
C363 C362 1.355 1_655 S
C363 C365 1.419 . S
C364 C362 1.415 . S
C364 C369 1.425 1_455 S
C364 C371 1.409 . S
C365 H357 0.930 . S
C365 C363 1.419 . S
C365 C366 1.362 . S
C366 H358 0.930 . S
C366 C365 1.362 . S
C366 C369 1.409 . S
C367 H359 0.930 . S
C367 C368 1.355 1_655 S
C367 C369 1.415 . S
C368 C367 1.355 1_455 S
C368 C370 1.419 . S
C369 C364 1.425 1_655 S
C369 C366 1.409 . S
C369 C367 1.415 . S
C370 H360 0.930 . S
C370 C368 1.419 . S
C370 C371 1.362 . S
C371 H361 0.930 . S
C371 C364 1.409 . S
C371 C370 1.362 . S
H372 C378 0.930 . S
H373 C381 0.930 . S
H374 C382 0.930 . S
H375 C383 0.930 . S
H376 C386 0.950 . S
H377 C387 0.953 . S
C378 H372 0.930 . S
C378 C379 1.355 . S
C378 C380 1.415 . S
C379 C378 1.355 . S
C379 C381 1.419 . S
C380 C378 1.415 . S
C380 C385 1.425 . S
C380 C387 1.388 1_455 S
C381 H373 0.930 . S
C381 C379 1.419 . S
C381 C382 1.362 . S
C382 H374 0.930 . S
C382 C381 1.362 . S
C382 C385 1.409 . S
C383 H375 0.930 . S
C383 C384 1.355 . S
C383 C385 1.415 . S
C384 C383 1.355 . S
C384 C386 1.399 1_455 S
C385 C380 1.425 . S
C385 C382 1.409 . S
C385 C383 1.415 . S
C386 H376 0.950 . S
C386 C384 1.399 1_655 S
C386 C387 1.362 . S
C387 H377 0.953 . S
C387 C380 1.388 1_655 S
C387 C386 1.362 . S
H388 C394 0.930 . S
H389 C397 0.930 . S
H390 C398 0.930 . S
H391 C399 0.930 . S
H392 C402 0.930 . S
H393 C403 0.930 . S
C394 H388 0.930 . S
C394 C395 1.355 . S
C394 C396 1.415 . S
C395 C394 1.355 . S
C395 C397 1.419 1_545 S
C396 C394 1.415 . S
C396 C401 1.429 . S
C396 C403 1.409 . S
C397 H389 0.930 . S
C397 C395 1.419 1_565 S
C397 C398 1.362 . S
C398 H390 0.930 . S
C398 C397 1.362 . S
C398 C401 1.406 1_565 S
C399 H391 0.930 . S
C399 C400 1.355 1_565 S
C399 C401 1.414 1_565 S
C400 C399 1.355 1_545 S
C400 C402 1.419 . S
C401 C396 1.429 . S
C401 C398 1.406 1_545 S
C401 C399 1.414 1_545 S
C402 H392 0.930 . S
C402 C400 1.419 . S
C402 C403 1.362 . S
C403 H393 0.930 . S
C403 C396 1.409 . S
C403 C402 1.362 . S
H404 C410 0.930 . S
H405 C413 0.930 . S
H406 C414 0.930 . S
H407 C415 0.930 . S
H408 C418 0.930 . S
H409 C419 0.930 . S
C410 H404 0.930 . S
C410 C411 1.355 . S
C410 C412 1.415 . S
C411 C410 1.355 . S
C411 C413 1.419 . S
C412 C410 1.415 . S
C412 C417 1.425 . S
C412 C419 1.409 . S
C413 H405 0.930 . S
C413 C411 1.419 . S
C413 C414 1.362 . S
C414 H406 0.930 . S
C414 C413 1.362 . S
C414 C417 1.409 . S
C415 H407 0.930 . S
C415 C416 1.355 . S
C415 C417 1.415 . S
C416 C415 1.355 . S
C416 C418 1.419 . S
C417 C412 1.425 . S
C417 C414 1.409 . S
C417 C415 1.415 . S
C418 H408 0.930 . S
C418 C416 1.419 . S
C418 C419 1.362 . S
C419 H409 0.930 . S
C419 C412 1.409 . S
C419 C418 1.362 . S
H420 C426 0.930 . S
H421 C429 0.930 . S
H422 C430 0.930 . S
H423 C431 0.930 . S
H424 C434 0.930 . S
H425 C435 0.930 . S
C426 H420 0.930 . S
C426 C427 1.355 . S
C426 C428 1.415 . S
C427 C426 1.355 . S
C427 C429 1.419 . S
C428 C426 1.415 . S
C428 C433 1.425 . S
C428 C435 1.409 . S
C429 H421 0.930 . S
C429 C427 1.419 . S
C429 C430 1.362 . S
C430 H422 0.930 . S
C430 C429 1.362 . S
C430 C433 1.409 . S
C431 H423 0.930 . S
C431 C432 1.355 . S
C431 C433 1.415 . S
C432 C431 1.355 . S
C432 C434 1.419 . S
C433 C428 1.425 . S
C433 C430 1.409 . S
C433 C431 1.415 . S
C434 H424 0.930 . S
C434 C432 1.419 . S
C434 C435 1.362 . S
C435 H425 0.930 . S
C435 C428 1.409 . S
C435 C434 1.362 . S
H436 C442 0.930 1_655 S
H437 C445 0.930 . S
H438 C446 0.930 . S
H439 C447 0.930 1_554 S
H440 C450 0.930 . S
H441 C451 0.930 . S
C442 H436 0.930 1_455 S
C442 C443 1.355 1_556 S
C442 C444 1.415 . S
C443 C442 1.355 1_554 S
C443 C445 1.419 . S
C444 C442 1.415 . S
C444 C449 1.425 . S
C444 C451 1.409 . S
C445 H437 0.930 . S
C445 C443 1.419 . S
C445 C446 1.362 . S
C446 H438 0.930 . S
C446 C445 1.362 . S
C446 C449 1.409 1_554 S
C447 H439 0.930 1_556 S
C447 C448 1.355 . S
C447 C449 1.415 . S
C448 C447 1.355 . S
C448 C450 1.419 . S
C449 C444 1.425 . S
C449 C446 1.409 1_556 S
C449 C447 1.415 . S
C450 H440 0.930 . S
C450 C448 1.419 . S
C450 C451 1.362 . S
C451 H441 0.930 . S
C451 C444 1.409 . S
C451 C450 1.362 . S
H452 C458 0.930 . S
H453 C461 0.930 . S
H454 C462 0.932 . S
H455 C463 0.930 . S
H456 C466 0.927 1_565 S
H457 C467 0.930 . S
C458 H452 0.930 . S
C458 C459 1.355 1_565 S
C458 C460 1.415 1_565 S
C459 C458 1.355 1_545 S
C459 C461 1.419 1_556 S
C460 C458 1.415 1_545 S
C460 C465 1.425 . S
C460 C467 1.409 1_545 S
C461 H453 0.930 . S
C461 C459 1.419 1_554 S
C461 C462 1.363 . S
C462 H454 0.932 . S
C462 C461 1.363 . S
C462 C465 1.407 1_554 S
C463 H455 0.930 . S
C463 C464 1.355 . S
C463 C465 1.415 . S
C464 C463 1.355 . S
C464 C466 1.419 . S
C465 C460 1.425 . S
C465 C462 1.407 1_556 S
C465 C463 1.415 . S
C466 H456 0.927 1_545 S
C466 C464 1.419 . S
C466 C467 1.362 1_545 S
C467 H457 0.930 . S
C467 C460 1.409 1_565 S
C467 C466 1.362 1_565 S
H468 C474 0.930 . S
H469 C477 0.930 . S
H470 C478 0.930 . S
H471 C479 0.930 . S
H472 C482 0.930 . S
H473 C483 0.930 . S
C474 H468 0.930 . S
C474 C475 1.355 . S
C474 C476 1.415 . S
C475 C474 1.355 . S
C475 C477 1.419 . S
C476 C474 1.415 . S
C476 C481 1.425 . S
C476 C483 1.409 . S
C477 H469 0.930 . S
C477 C475 1.419 . S
C477 C478 1.362 . S
C478 H470 0.930 . S
C478 C477 1.362 . S
C478 C481 1.409 . S
C479 H471 0.930 . S
C479 C480 1.355 . S
C479 C481 1.415 . S
C480 C479 1.355 . S
C480 C482 1.419 . S
C481 C476 1.425 . S
C481 C478 1.409 . S
C481 C479 1.415 . S
C482 H472 0.930 . S
C482 C480 1.419 . S
C482 C483 1.362 . S
C483 H473 0.930 . S
C483 C476 1.409 . S
C483 C482 1.362 . S
H484 C490 0.930 . S
H485 C493 0.930 . S
H486 C494 0.930 . S
H487 C495 0.930 . S
H488 C498 0.930 . S
H489 C499 0.930 . S
C490 H484 0.930 . S
C490 C491 1.355 . S
C490 C492 1.415 . S
C491 C490 1.355 . S
C491 C493 1.419 . S
C492 C490 1.415 . S
C492 C497 1.425 . S
C492 C499 1.409 . S
C493 H485 0.930 . S
C493 C491 1.419 . S
C493 C494 1.362 . S
C494 H486 0.930 . S
C494 C493 1.362 . S
C494 C497 1.409 . S
C495 H487 0.930 . S
C495 C496 1.355 . S
C495 C497 1.415 . S
C496 C495 1.355 . S
C496 C498 1.419 . S
C497 C492 1.425 . S
C497 C494 1.409 . S
C497 C495 1.415 . S
C498 H488 0.930 . S
C498 C496 1.419 . S
C498 C499 1.362 . S
C499 H489 0.930 . S
C499 C492 1.409 . S
C499 C498 1.362 . S
H500 C506 0.930 1_655 S
H501 C509 0.930 . S
H502 C510 0.930 . S
H503 C511 0.930 . S
H504 C514 0.930 . S
H505 C515 0.930 . S
C506 H500 0.930 1_455 S
C506 C507 1.355 . S
C506 C508 1.415 . S
C507 C506 1.355 . S
C507 C509 1.419 . S
C508 C506 1.415 . S
C508 C513 1.425 . S
C508 C515 1.409 1_455 S
C509 H501 0.930 . S
C509 C507 1.419 . S
C509 C510 1.362 . S
C510 H502 0.930 . S
C510 C509 1.362 . S
C510 C513 1.409 . S
C511 H503 0.930 . S
C511 C512 1.355 1_554 S
C511 C513 1.415 . S
C512 C511 1.355 1_556 S
C512 C514 1.419 1_455 S
C513 C508 1.425 . S
C513 C510 1.409 . S
C513 C511 1.415 . S
C514 H504 0.930 . S
C514 C512 1.419 1_655 S
C514 C515 1.362 1_556 S
C515 H505 0.930 . S
C515 C508 1.409 1_655 S
C515 C514 1.362 1_554 S
H516 C522 0.930 . S
H517 C525 0.930 . S
H518 C526 0.930 . S
H519 C527 0.930 . S
H520 C530 0.930 1_565 S
H521 C531 0.933 . S
C522 H516 0.930 . S
C522 C523 1.355 . S
C522 C524 1.415 . S
C523 C522 1.355 . S
C523 C525 1.419 . S
C524 C522 1.415 . S
C524 C529 1.425 1_554 S
C524 C531 1.409 . S
C525 H517 0.930 . S
C525 C523 1.419 . S
C525 C526 1.362 1_554 S
C526 H518 0.930 . S
C526 C525 1.362 1_556 S
C526 C529 1.409 . S
C527 H519 0.930 . S
C527 C528 1.355 . S
C527 C529 1.415 . S
C528 C527 1.355 . S
C528 C530 1.419 1_556 S
C529 C524 1.425 1_556 S
C529 C526 1.409 . S
C529 C527 1.415 . S
C530 H520 0.930 1_545 S
C530 C528 1.419 1_554 S
C530 C531 1.362 . S
C531 H521 0.933 . S
C531 C524 1.409 . S
C531 C530 1.362 . S
H532 C538 0.930 . S
H533 C541 0.930 . S
H534 C542 0.930 . S
H535 C543 0.930 . S
H536 C546 0.930 . S
H537 C547 0.930 . S
C538 H532 0.930 . S
C538 C539 1.355 . S
C538 C540 1.415 1_554 S
C539 C538 1.355 . S
C539 C541 1.419 . S
C540 C538 1.415 1_556 S
C540 C545 1.425 1_556 S
C540 C547 1.409 . S
C541 H533 0.930 . S
C541 C539 1.419 . S
C541 C542 1.362 . S
C542 H534 0.930 . S
C542 C541 1.362 . S
C542 C545 1.409 . S
C543 H535 0.930 . S
C543 C544 1.355 . S
C543 C545 1.415 1_556 S
C544 C543 1.355 . S
C544 C546 1.419 . S
C545 C540 1.425 1_554 S
C545 C542 1.409 . S
C545 C543 1.415 1_554 S
C546 H536 0.930 . S
C546 C544 1.419 . S
C546 C547 1.362 . S
C547 H537 0.930 . S
C547 C540 1.409 . S
C547 C546 1.362 . S
H548 C554 0.930 1_556 S
H549 C557 0.930 . S
H550 C558 0.930 . S
H551 C559 0.930 1_554 S
H552 C562 0.930 . S
H553 C563 0.930 . S
C554 H548 0.930 1_554 S
C554 C555 1.355 . S
C554 C556 1.415 1_554 S
C555 C554 1.355 . S
C555 C557 1.419 . S
C556 C554 1.415 1_556 S
C556 C561 1.425 1_556 S
C556 C563 1.409 . S
C557 H549 0.930 . S
C557 C555 1.419 . S
C557 C558 1.362 . S
C558 H550 0.930 . S
C558 C557 1.362 . S
C558 C561 1.409 . S
C559 H551 0.930 1_556 S
C559 C560 1.355 . S
C559 C561 1.415 1_556 S
C560 C559 1.355 . S
C560 C562 1.419 . S
C561 C556 1.425 1_554 S
C561 C558 1.409 . S
C561 C559 1.415 1_554 S
C562 H552 0.930 . S
C562 C560 1.419 . S
C562 C563 1.362 . S
C563 H553 0.930 . S
C563 C556 1.409 . S
C563 C562 1.362 . S
H564 C570 0.930 . S
H565 C573 0.930 . S
H566 C574 0.930 . S
H567 C575 0.930 . S
H568 C578 0.930 . S
H569 C579 0.930 . S
C570 H564 0.930 . S
C570 C571 1.355 1_455 S
C570 C572 1.415 . S
C571 C570 1.355 1_655 S
C571 C573 1.419 . S
C572 C570 1.415 . S
C572 C577 1.425 1_455 S
C572 C579 1.409 . S
C573 H565 0.930 . S
C573 C571 1.419 . S
C573 C574 1.362 . S
C574 H566 0.930 . S
C574 C573 1.362 . S
C574 C577 1.409 . S
C575 H567 0.930 . S
C575 C576 1.355 . S
C575 C577 1.415 . S
C576 C575 1.355 . S
C576 C578 1.419 1_655 S
C577 C572 1.425 1_655 S
C577 C574 1.409 . S
C577 C575 1.415 . S
C578 H568 0.930 . S
C578 C576 1.419 1_455 S
C578 C579 1.362 . S
C579 H569 0.930 . S
C579 C572 1.409 . S
C579 C578 1.362 . S
H580 C586 0.930 . S
H581 C589 0.930 . S
H582 C590 0.930 . S
H583 C591 0.930 . S
H584 C594 0.930 . S
H585 C595 0.930 . S
C586 H580 0.930 . S
C586 C587 1.355 1_545 S
C586 C588 1.415 1_545 S
C587 C586 1.355 1_565 S
C587 C589 1.419 . S
C588 C586 1.415 1_565 S
C588 C593 1.425 . S
C588 C595 1.409 1_565 S
C589 H581 0.930 . S
C589 C587 1.419 . S
C589 C590 1.362 . S
C590 H582 0.930 . S
C590 C589 1.362 . S
C590 C593 1.409 . S
C591 H583 0.930 . S
C591 C592 1.355 . S
C591 C593 1.415 . S
C592 C591 1.355 . S
C592 C594 1.419 1_565 S
C593 C588 1.425 . S
C593 C590 1.409 . S
C593 C591 1.415 . S
C594 H584 0.930 . S
C594 C592 1.419 1_545 S
C594 C595 1.362 . S
C595 H585 0.930 . S
C595 C588 1.409 1_545 S
C595 C594 1.362 . S
H596 C602 0.930 . S
H597 C605 0.930 . S
H598 C606 0.930 . S
H599 C607 0.930 . S
H600 C610 0.930 . S
H601 C611 0.930 . S
C602 H596 0.930 . S
C602 C603 1.355 . S
C602 C604 1.415 . S
C603 C602 1.355 . S
C603 C605 1.419 . S
C604 C602 1.415 . S
C604 C609 1.425 . S
C604 C611 1.409 . S
C605 H597 0.930 . S
C605 C603 1.419 . S
C605 C606 1.362 . S
C606 H598 0.930 . S
C606 C605 1.362 . S
C606 C609 1.409 . S
C607 H599 0.930 . S
C607 C608 1.355 . S
C607 C609 1.415 . S
C608 C607 1.355 . S
C608 C610 1.419 . S
C609 C604 1.425 . S
C609 C606 1.409 . S
C609 C607 1.415 . S
C610 H600 0.930 . S
C610 C608 1.419 . S
C610 C611 1.362 . S
C611 H601 0.930 . S
C611 C604 1.409 . S
C611 C610 1.362 . S
H612 C618 0.930 . S
H613 C621 0.930 . S
H614 C622 0.930 . S
H615 C623 0.930 . S
H616 C626 0.930 . S
H617 C627 0.930 . S
C618 H612 0.930 . S
C618 C619 1.355 . S
C618 C620 1.415 . S
C619 C618 1.355 . S
C619 C621 1.419 . S
C620 C618 1.415 . S
C620 C625 1.425 . S
C620 C627 1.409 . S
C621 H613 0.930 . S
C621 C619 1.419 . S
C621 C622 1.362 . S
C622 H614 0.930 . S
C622 C621 1.362 . S
C622 C625 1.409 . S
C623 H615 0.930 . S
C623 C624 1.355 . S
C623 C625 1.415 . S
C624 C623 1.355 . S
C624 C626 1.419 . S
C625 C620 1.425 . S
C625 C622 1.409 . S
C625 C623 1.415 . S
C626 H616 0.930 . S
C626 C624 1.419 . S
C626 C627 1.362 . S
C627 H617 0.930 . S
C627 C620 1.409 . S
C627 C626 1.362 . S
C251 C125 1.578 . S
C256 C168 1.582 . S
C272 C191 1.641 . S
C267 C144 1.531 . S
C288 C214 1.657 . S
C283 C87 1.568 . S
C304 C241 1.534 . S
C299 C106 1.451 . S
C320 C169 1.580 . S
C315 C49 1.469 1_556 S
C331 C68 1.473 . S
C336 C192 1.531 . S
C347 C11 1.478 . S
C352 C215 1.509 . S
C363 C30 1.587 1_556 S
C368 C240 1.603 . S
C384 C170 0.656 . S
C379 C97 0.774 . S
C400 C193 0.670 . S
C395 C116 0.589 . S
C416 C216 0.703 . S
C411 C135 0.627 . S
C427 C78 0.731 . S
C432 C242 0.717 . S
C443 C21 0.847 . S
C448 C173 0.843 . S
C464 C196 0.787 . S
C459 C40 0.844 1_556 S
C480 C219 0.916 . S
C475 C59 0.851 . S
C491 C2 0.605 . S
C496 C239 0.639 . S
C507 C101 1.576 . S
C512 C171 1.552 . S
C523 C120 1.576 . S
C528 C194 1.566 . S
C544 C217 1.515 . S
C539 C139 1.547 . S
C560 C238 1.416 . S
C555 C82 1.364 . S
C571 C25 1.591 1_655 S
C576 C172 1.494 . S
C592 C195 1.448 . S
C587 C44 1.551 1_565 S
C608 C218 1.498 . S
C603 C63 1.584 . S
C619 C6 1.713 . S
C624 C237 1.732 . S
