# Generated by pormake.
# Topology rtl, (3,6)-cn, num edge types: 1
# Building blocks:
#     Node 0, Type 0, BuildingBlock: ESEHIV_clean_linker_0, # of connection points: 3
#     Node 1, Type 0, BuildingBlock: ESEHIV_clean_linker_0, # of connection points: 3
#     Node 2, Type 0, BuildingBlock: ESEHIV_clean_linker_0, # of connection points: 3
#     Node 3, Type 0, BuildingBlock: ESEHIV_clean_linker_0, # of connection points: 3
#     Node 4, Type 1, BuildingBlock: LEVNOQ01_clean_sbu_1, # of connection points: 6
#     Node 5, Type 1, BuildingBlock: LEVNOQ01_clean_sbu_1, # of connection points: 6
#     Edge 6, Type (0, 1), BuildingBlock: XIVTED_clean_linker_0, # of connection points: 2
#     Edge 7, Type (0, 1), BuildingBlock: XIVTED_clean_linker_0, # of connection points: 2
#     Edge 8, Type (0, 1), BuildingBlock: XIVTED_clean_linker_0, # of connection points: 2
#     Edge 9, Type (0, 1), BuildingBlock: XIVTED_clean_linker_0, # of connection points: 2
#     Edge 10, Type (0, 1), BuildingBlock: XIVTED_clean_linker_0, # of connection points: 2
#     Edge 11, Type (0, 1), BuildingBlock: XIVTED_clean_linker_0, # of connection points: 2
#     Edge 12, Type (0, 1), BuildingBlock: XIVTED_clean_linker_0, # of connection points: 2
#     Edge 13, Type (0, 1), BuildingBlock: XIVTED_clean_linker_0, # of connection points: 2
#     Edge 14, Type (0, 1), BuildingBlock: XIVTED_clean_linker_0, # of connection points: 2
#     Edge 15, Type (0, 1), BuildingBlock: XIVTED_clean_linker_0, # of connection points: 2
#     Edge 16, Type (0, 1), BuildingBlock: XIVTED_clean_linker_0, # of connection points: 2
#     Edge 17, Type (0, 1), BuildingBlock: XIVTED_clean_linker_0, # of connection points: 2
# Relax obj value: 0.026
# Max RMSD: 0.059
# Mean RMSD: 0.045
data_MOF--net-rtl--node1-LEVNOQ01_clean_sbu_1--node2-ESEHIV_clean_linker_0--edge1-XIVTED_clean_linker_0
_symmetry_space_group_name_H-M    P1
_symmetry_Int_Tables_number       1
_symmetry_cell_setting            triclinic
loop_
_symmetry_equiv_pos_as_xyz
'x, y, z'
_cell_length_a     29.164638
_cell_length_b     33.222728
_cell_length_c     23.39568
_cell_angle_alpha  89.942092
_cell_angle_beta   97.978593
_cell_angle_gamma 90.519023
loop_
_atom_site_label
_atom_site_type_symbol
_atom_site_fract_x
_atom_site_fract_y
_atom_site_fract_z
_atom_type_partial_charge
H0 H 0.20019 0.93499 0.09395 0.0
H1 H 0.29631 0.84994 0.18179 0.0
H2 H 0.26917 0.85103 -0.00337 0.0
C3 C 0.2252 0.91121 0.09289 0.0
C4 C 0.23319 0.89588 0.03911 0.0
C5 C 0.2473 0.89473 0.14504 0.0
C6 C 0.27811 0.86245 0.14238 0.0
C7 C 0.28597 0.84622 0.08912 0.0
C8 C 0.26348 0.86337 0.03787 0.0
H9 H 0.63886 0.63124 0.51866 0.0
H10 H 0.71983 0.73357 0.47853 0.0
H11 H 0.71397 0.70193 0.6555 0.0
C12 C 0.66107 0.65667 0.53287 0.0
C13 C 0.67434 0.6634 0.59224 0.0
C14 C 0.67718 0.68188 0.49153 0.0
C15 C 0.70704 0.71409 0.51012 0.0
C16 C 0.72068 0.72116 0.5693 0.0
C17 C 0.70431 0.69572 0.60993 0.0
H18 H 0.7997 0.0623 0.9836 0.0
H19 H 0.73632 0.15111 0.07967 0.0
H20 H 0.71211 0.15301 0.89462 0.0
C21 C 0.77642 0.08742 0.98438 0.0
C22 C 0.75592 0.10473 0.93198 0.0
C23 C 0.7696 0.10387 0.03799 0.0
C24 C 0.74199 0.13826 0.03871 0.0
C25 C 0.72184 0.1566 0.9872 0.0
C26 C 0.72789 0.13898 0.9342 0.0
H27 H 0.36285 0.38041 0.5302 0.0
H28 H 0.26045 0.29601 0.57372 0.0
H29 H 0.27436 0.31731 0.39599 0.0
C30 C 0.33552 0.35867 0.51695 0.0
C31 C 0.32135 0.35153 0.45782 0.0
C32 C 0.31402 0.33868 0.55924 0.0
C33 C 0.27731 0.31185 0.54172 0.0
C34 C 0.26311 0.30434 0.48291 0.0
C35 C 0.28515 0.32397 0.44123 0.0
O36 O 0.93728 0.07883 0.61053 0.0
Mg37 Mg 0.00757 0.07567 0.60671 0.0
O38 O 0.93642 0.01483 0.58684 0.0
Mg39 Mg 0.0025 0.00264 0.53827 0.0
O40 O 0.02722 0.06955 0.52681 0.0
O41 O 0.03109 0.12739 0.57746 0.0
O42 O 0.06763 0.98909 0.48913 0.0
O43 O 0.95535 0.01141 0.44944 0.0
Mg44 Mg -0.00246 0.92199 0.46988 0.0
O45 O 0.978 0.93716 0.5467 0.0
O46 O 0.06904 0.92384 0.4717 0.0
O47 O 0.95511 0.95325 0.40269 0.0
O48 O 0.9714 0.87471 0.51135 0.0
C49 C 0.06375 0.01254 0.67233 0.0
C50 C 0.91679 0.04524 0.60624 0.0
C51 C 0.03759 0.10776 0.53176 0.0
C52 C 0.08816 0.95813 0.4726 0.0
C53 C 0.94252 0.98972 0.40475 0.0
C54 C 0.96446 0.90013 0.55085 0.0
O55 O 0.0512 0.04878 0.67545 0.0
O56 O 0.05034 -0.00819 0.62695 0.0
O57 O 0.61297 0.53891 0.09537 0.0
Mg58 Mg 0.57137 0.48653 0.09493 0.0
O59 O 0.5404 0.55334 0.0922 0.0
Mg60 Mg 0.50406 0.5042 0.02583 0.0
O61 O 0.55817 0.4485 0.02567 0.0
O62 O 0.61553 0.44064 0.09943 0.0
O63 O 0.46544 0.45562 0.95952 0.0
O64 O 0.54064 0.53223 0.95366 0.0
Mg65 Mg 0.43705 0.52287 0.9578 0.0
O66 O 0.45187 0.56082 0.0265 0.0
O67 O 0.39382 0.47211 0.96166 0.0
O68 O 0.47859 0.52581 0.88975 0.0
O69 O 0.39871 0.57291 0.94922 0.0
C70 C 0.4869 0.47169 0.14979 0.0
C71 C 0.58269 0.56303 0.1073 0.0
C72 C 0.59366 0.42839 0.05091 0.0
C73 C 0.42241 0.44723 0.94708 0.0
C74 C 0.52147 0.53345 0.90142 0.0
C75 C 0.42034 0.58387 -0.00143 0.0
O76 O 0.53 0.47816 0.16235 0.0
O77 O 0.46774 0.47599 0.0979 0.0
H78 H 0.17093 0.31741 0.47464 0.0
H79 H 0.11457 0.08628 0.48489 0.0
H80 H 0.27058 0.22603 0.45196 0.0
H81 H 0.01329 0.17985 0.48482 0.0
H82 H 0.16736 0.13486 0.44837 0.0
H83 H 0.10893 0.26703 0.45703 0.0
C84 C 0.17942 0.28667 0.46509 0.0
C85 C 0.22546 0.27538 0.46532 0.0
C86 C 0.13299 0.14447 0.45444 0.0
C87 C 0.15537 0.21744 0.4461 0.0
C88 C 0.10272 0.11659 0.47459 0.0
C89 C 0.0601 0.12953 0.48861 0.0
C90 C 0.12023 0.18523 0.44899 0.0
C91 C 0.04631 0.16906 0.47516 0.0
C92 C 0.14419 0.25791 0.45482 0.0
C93 C 0.23521 0.23547 0.45253 0.0
N94 N 0.07667 0.19578 0.45729 0.0
N95 N 0.20045 0.20763 0.44441 0.0
H96 H 0.29224 0.77851 0.15811 0.0
H97 H 0.40987 0.65156 0.93534 0.0
H98 H 0.34799 0.83149 0.01361 0.0
H99 H 0.40871 0.60824 0.10886 0.0
H100 H 0.38616 0.71756 0.96463 0.0
H101 H 0.33407 0.71635 0.14401 0.0
C102 C 0.31385 0.77742 0.12408 0.0
C103 C 0.31586 0.81021 0.08634 0.0
C104 C 0.3915 0.69392 -0.0033 0.0
C105 C 0.36311 0.73889 0.06954 0.0
C106 C 0.40486 0.65615 0.97991 0.0
C107 C 0.41088 0.62442 0.01968 0.0
C108 C 0.38284 0.70004 0.05353 0.0
C109 C 0.40437 0.63204 0.07698 0.0
C110 C 0.33759 0.74183 0.116 0.0
C111 C 0.34424 0.80675 0.04279 0.0
N112 N 0.38981 0.66903 0.0921 0.0
N113 N 0.36613 0.77166 0.03516 0.0
H114 H 0.71539 0.79978 0.53465 0.0
H115 H 0.9755 0.83594 0.62245 0.0
H116 H 0.79882 0.71855 0.6484 0.0
H117 H 0.88289 0.93317 0.56827 0.0
H118 H 0.91087 0.79746 0.65109 0.0
H119 H 0.77352 0.85276 0.55939 0.0
C120 C 0.7458 0.79331 0.56529 0.0
C121 C 0.75286 0.75466 0.58871 0.0
C122 C 0.90473 0.82779 0.63502 0.0
C123 C 0.81946 0.81491 0.61728 0.0
C124 C 0.94181 0.84992 0.61932 0.0
C125 C 0.93414 0.88741 0.59249 0.0
C126 C 0.85967 0.84287 0.62171 0.0
C127 C 0.88996 0.90419 0.58871 0.0
C128 C 0.77872 0.82363 0.57996 0.0
C129 C 0.79232 0.74794 0.62907 0.0
N130 N 0.85386 0.88118 0.60116 0.0
N131 N 0.82463 0.77754 0.6412 0.0
H132 H 0.64101 0.18332 0.92231 0.0
H133 H 0.54388 0.3726 0.9781 0.0
H134 H 0.75043 0.22093 0.05535 0.0
H135 H 0.6797 0.39744 0.07047 0.0
H136 H 0.57034 0.3053 0.95435 0.0
H137 H 0.60595 0.25001 0.92585 0.0
C138 C 0.6575 0.20552 0.95245 0.0
C139 C 0.69846 0.19624 0.98915 0.0
C140 C 0.59463 0.32571 0.97881 0.0
C141 C 0.65845 0.27262 -0.00619 0.0
C142 C 0.57947 0.36422 -0.00776 0.0
C143 C 0.60949 0.39052 0.02676 0.0
C144 C 0.64017 0.31384 -1e-05 0.0
C145 C 0.65509 0.37806 0.0444 0.0
C146 C 0.63726 0.24358 0.95475 0.0
C147 C 0.71837 0.22621 0.02715 0.0
N148 N 0.66874 0.34073 0.0313 0.0
N149 N 0.69829 0.2628 0.02829 0.0
H150 H 0.24242 0.85124 0.24431 0.0
H151 H 0.10841 0.01611 0.39586 0.0
H152 H 0.22572 0.97208 0.17655 0.0
H153 H 0.15917 0.90572 0.47726 0.0
H154 H 0.15866 0.00578 0.32114 0.0
H155 H 0.21871 0.87421 0.33389 0.0
C156 C 0.23462 0.88281 0.24829 0.0
C157 C 0.23605 0.90954 0.20195 0.0
C158 C 0.15981 0.98444 0.35632 0.0
C159 C 0.20707 0.93604 0.30524 0.0
C160 C 0.13158 -0.00936 0.39942 0.0
C161 C 0.12935 0.96149 0.44244 0.0
C162 C 0.18555 0.94878 0.35643 0.0
C163 C 0.15956 0.92873 0.4445 0.0
C164 C 0.22071 0.89593 0.29977 0.0
C165 C 0.2242 0.94998 0.21024 0.0
N166 N 0.18565 0.92286 0.40156 0.0
N167 N 0.20962 0.96184 0.26045 0.0
H168 H 0.71915 0.63619 0.69632 0.0
H169 H 0.49053 0.53411 0.78613 0.0
H170 H 0.58661 0.63233 0.58796 0.0
H171 H 0.61176 0.56033 0.90901 0.0
H172 H 0.53065 0.55973 0.70909 0.0
H173 H 0.68511 0.59911 0.77076 0.0
C174 C 0.68295 0.62751 0.68806 0.0
C175 C 0.6556 0.6378 0.63587 0.0
C176 C 0.54863 0.55975 0.75282 0.0
C177 C 0.61679 0.59484 0.72053 0.0
C178 C 0.52575 0.54508 0.79696 0.0
C179 C 0.5476 0.54559 0.85433 0.0
C180 C 0.59379 0.57517 0.76589 0.0
C181 C 0.59349 0.5597 0.86546 0.0
C182 C 0.66367 0.60618 0.73048 0.0
C183 C 0.60922 0.62486 0.62713 0.0
N184 N 0.61501 0.57426 0.82161 0.0
N185 N 0.59129 0.60427 0.6691 0.0
H186 H 0.78331 0.02408 0.06675 0.0
H187 H 0.91709 0.06878 0.38437 0.0
H188 H 0.81008 0.14386 0.13546 0.0
H189 H 0.90292 0.95058 0.30702 0.0
H190 H 0.87335 0.09664 0.29638 0.0
H191 H 0.82321 -0.00355 0.15685 0.0
C192 C 0.79765 0.04462 0.10063 0.0
C193 C 0.79316 0.08643 0.0932 0.0
C194 C 0.87973 0.06459 0.29881 0.0
C195 C 0.83864 0.05486 0.19717 0.0
C196 C 0.9046 0.04863 0.34915 0.0
C197 C 0.91393 0.00724 0.35325 0.0
C198 C 0.86388 0.03899 0.25222 0.0
C199 C 0.89684 0.98268 0.30597 0.0
C200 C 0.82026 0.02879 0.15229 0.0
C201 C 0.81195 0.11144 0.13928 0.0
N202 N 0.8728 -0.00109 0.2576 0.0
N203 N 0.83384 0.0953 0.18911 0.0
H204 H 0.40331 0.34239 0.61336 0.0
H205 H 0.33332 0.42313 0.90904 0.0
H206 H 0.26195 0.35082 0.64686 0.0
H207 H 0.47454 0.40389 0.88042 0.0
H208 H 0.30642 0.38826 0.81864 0.0
H209 H 0.42991 0.35816 0.71454 0.0
C210 C 0.37786 0.34752 0.6421 0.0
C211 C 0.33034 0.34577 0.62148 0.0
C212 C 0.3433 0.39101 0.83258 0.0
C213 C 0.36055 0.36359 0.73769 0.0
C214 C 0.35873 0.41074 0.88445 0.0
C215 C 0.4063 0.41706 0.90196 0.0
C216 C 0.37564 0.37778 0.79766 0.0
C217 C 0.43755 0.40008 0.86845 0.0
C218 C 0.39306 0.35621 0.70001 0.0
C219 C 0.2989 0.35184 0.66093 0.0
N220 N 0.42166 0.38188 0.81742 0.0
N221 N 0.31456 0.36093 0.71698 0.0
H222 H 0.73222 0.67957 0.40562 0.0
H223 H 0.52516 0.60661 0.16629 0.0
H224 H 0.59023 0.66615 0.43546 0.0
H225 H 0.66964 0.58986 0.15136 0.0
H226 H 0.54778 0.64443 0.25542 0.0
H227 H 0.70883 0.6613 0.30413 0.0
C228 C 0.69604 0.6733 0.39059 0.0
C229 C 0.66315 0.67398 0.42906 0.0
C230 C 0.57452 0.63302 0.23211 0.0
C231 C 0.63619 0.65322 0.31323 0.0
C232 C 0.56164 0.61169 0.1809 0.0
C233 C 0.59557 0.59441 0.15175 0.0
C234 C 0.62161 0.6373 0.25418 0.0
C235 C 0.64231 0.60219 0.17279 0.0
C236 C 0.68276 0.66277 0.33279 0.0
C237 C 0.61679 0.66537 0.40742 0.0
N238 N 0.65396 0.62261 0.22313 0.0
N239 N 0.60472 0.6552 0.35105 0.0
H240 H 0.77281 0.02632 0.90013 0.0
H241 H 0.84539 0.09713 0.59862 0.0
H242 H 0.76592 0.14791 0.83379 0.0
H243 H 0.89534 0.98727 0.68222 0.0
H244 H 0.79402 0.10609 0.67138 0.0
H245 H 0.79944 0.00391 0.81054 0.0
C246 C 0.77648 0.04834 0.86691 0.0
C247 C 0.76723 0.08932 0.87538 0.0
C248 C 0.81534 0.07947 0.67321 0.0
C249 C 0.79638 0.06336 0.77188 0.0
C250 C 0.84421 0.07407 0.63119 0.0
C251 C 0.87481 0.04157 0.63467 0.0
C252 C 0.81744 0.05246 0.71966 0.0
C253 C 0.87212 0.01268 0.67796 0.0
C254 C 0.79133 0.03535 0.81556 0.0
C255 C 0.77168 0.116 0.8297 0.0
N256 N 0.84468 0.01925 0.71971 0.0
N257 N 0.78605 0.10259 0.78039 0.0
H258 H 0.41397 0.36756 0.46164 0.0
H259 H 0.39375 0.45412 0.14052 0.0
H260 H 0.28291 0.38211 0.35284 0.0
H261 H 0.51909 0.45719 0.26287 0.0
H262 H 0.3519 0.42739 0.21643 0.0
H263 H 0.45268 0.4001 0.38807 0.0
C264 C 0.39321 0.37795 0.42252 0.0
C265 C 0.34505 0.37208 0.41355 0.0
C266 C 0.38851 0.43415 0.22658 0.0
C267 C 0.38943 0.40882 0.32833 0.0
C268 C 0.4124 0.44938 0.18331 0.0
C269 C 0.46005 0.45768 0.19525 0.0
C270 C 0.41257 0.42701 0.28193 0.0
C271 C 0.48244 0.45107 0.25151 0.0
C272 C 0.41541 0.39637 0.38029 0.0
C273 C 0.32018 0.38548 0.3613 0.0
N274 N 0.45858 0.43594 0.29255 0.0
N275 N 0.34268 0.40311 0.32055 0.0
H276 H 0.21726 0.97544 0.01212 0.0
H277 H 0.08748 0.9329 0.69178 0.0
H278 H 0.19471 0.85609 0.94041 0.0
H279 H 0.10478 0.05075 0.76979 0.0
H280 H 0.13012 0.90407 0.77999 0.0
H281 H 0.1785 0.00344 0.92176 0.0
C282 C 0.20396 0.95507 0.97752 0.0
C283 C 0.20933 0.9133 0.98414 0.0
C284 C 0.12469 0.93626 0.7776 0.0
C285 C 0.16518 0.94528 0.8798 0.0
C286 C 0.1005 0.95275 0.72715 0.0
C287 C 0.09229 -0.00567 0.72327 0.0
C288 C 0.1409 0.96153 0.82446 0.0
C289 C 0.10994 0.01852 0.77069 0.0
C290 C 0.18205 0.97111 0.92568 0.0
C291 C 0.19197 0.8885 0.93719 0.0
N292 N 0.1332 0.0018 0.81913 0.0
N293 N 0.17066 0.90484 0.88715 0.0
loop_
_geom_bond_atom_site_label_1
_geom_bond_atom_site_label_2
_geom_bond_distance
_geom_bond_site_symmetry_2
_ccdc_geom_bond_type
H0 C3 0.931 . S
H1 C6 0.928 . S
H2 C8 0.925 1_556 S
C3 H0 0.931 . S
C3 C4 1.413 . S
C3 C5 1.360 . S
C4 C3 1.413 . S
C4 C8 1.429 . S
C5 C3 1.360 . S
C5 C6 1.372 . S
C6 H1 0.928 . S
C6 C5 1.372 . S
C6 C7 1.404 . S
C7 C6 1.404 . S
C7 C8 1.391 . S
C8 H2 0.925 1_554 S
C8 C4 1.429 . S
C8 C7 1.391 . S
H9 C12 0.931 . S
H10 C15 0.928 . S
H11 C17 0.930 . S
C12 H9 0.931 . S
C12 C13 1.413 . S
C12 C14 1.360 . S
C13 C12 1.413 . S
C13 C17 1.429 . S
C14 C12 1.360 . S
C14 C15 1.372 . S
C15 H10 0.928 . S
C15 C14 1.372 . S
C15 C16 1.404 . S
C16 C15 1.404 . S
C16 C17 1.391 . S
C17 H11 0.930 . S
C17 C13 1.429 . S
C17 C16 1.391 . S
H18 C21 0.931 . S
H19 C24 0.928 . S
H20 C26 0.930 . S
C21 H18 0.931 . S
C21 C22 1.413 1_554 S
C21 C23 1.360 . S
C22 C21 1.413 1_556 S
C22 C26 1.429 . S
C23 C21 1.360 . S
C23 C24 1.372 . S
C24 H19 0.928 . S
C24 C23 1.372 . S
C24 C25 1.404 1_554 S
C25 C24 1.404 1_556 S
C25 C26 1.391 . S
C26 H20 0.930 . S
C26 C22 1.429 . S
C26 C25 1.391 . S
H27 C30 0.931 . S
H28 C33 0.928 . S
H29 C35 0.930 . S
C30 H27 0.931 . S
C30 C31 1.413 . S
C30 C32 1.360 . S
C31 C30 1.413 . S
C31 C35 1.429 . S
C32 C30 1.360 . S
C32 C33 1.372 . S
C33 H28 0.928 . S
C33 C32 1.372 . S
C33 C34 1.404 . S
C34 C33 1.404 . S
C34 C35 1.391 . S
C35 H29 0.930 . S
C35 C31 1.429 . S
C35 C34 1.391 . S
O36 Mg37 1.990 1_655 S
O36 C50 1.253 . S
Mg37 O36 1.990 1_455 S
Mg37 O40 2.180 . S
Mg37 O41 2.117 . S
Mg37 O55 2.030 . S
O38 Mg39 2.072 1_655 S
O38 C50 1.260 . S
Mg39 O38 2.072 1_455 S
Mg39 O40 2.099 . S
Mg39 O42 2.079 1_545 S
Mg39 O43 2.072 1_455 S
Mg39 O45 2.099 1_445 S
Mg39 O56 2.079 1_545 S
O40 Mg37 2.180 . S
O40 Mg39 2.099 . S
O40 C51 1.279 . S
O41 Mg37 2.117 . S
O41 C51 1.250 . S
O42 Mg39 2.079 1_565 S
O42 C52 1.264 . S
O43 Mg39 2.072 1_655 S
O43 C53 1.260 . S
Mg44 O45 2.180 . S
Mg44 O46 2.030 1_655 S
Mg44 O47 1.990 . S
Mg44 O48 2.117 . S
O45 Mg39 2.099 1_665 S
O45 Mg44 2.180 . S
O45 C54 1.279 . S
O46 Mg44 2.030 1_455 S
O46 C52 1.248 . S
O47 Mg44 1.990 . S
O47 C53 1.253 1_565 S
O48 Mg44 2.117 . S
O48 C54 1.250 . S
C49 O55 1.248 1_565 S
C49 O56 1.264 . S
C50 O36 1.253 . S
C50 O38 1.260 . S
C51 O40 1.279 . S
C51 O41 1.250 . S
C52 O42 1.264 . S
C52 O46 1.248 . S
C53 O43 1.260 . S
C53 O47 1.253 1_545 S
C54 O45 1.279 . S
C54 O48 1.250 . S
O55 Mg37 2.030 . S
O55 C49 1.248 1_545 S
O56 Mg39 2.079 1_565 S
O56 C49 1.264 . S
O57 Mg58 1.990 . S
O57 C71 1.253 . S
Mg58 O57 1.990 . S
Mg58 O61 2.180 . S
Mg58 O62 2.117 . S
Mg58 O76 2.030 . S
O59 Mg60 2.072 . S
O59 C71 1.260 . S
Mg60 O59 2.072 . S
Mg60 O61 2.099 . S
Mg60 O63 2.079 1_554 S
Mg60 O64 2.072 1_554 S
Mg60 O66 2.099 . S
Mg60 O77 2.079 . S
O61 Mg58 2.180 . S
O61 Mg60 2.099 . S
O61 C72 1.279 . S
O62 Mg58 2.117 . S
O62 C72 1.250 . S
O63 Mg60 2.079 1_556 S
O63 C73 1.264 . S
O64 Mg60 2.072 1_556 S
O64 C74 1.260 . S
Mg65 O66 2.180 1_556 S
Mg65 O67 2.030 . S
Mg65 O68 1.990 . S
Mg65 O69 2.117 . S
O66 Mg60 2.099 . S
O66 Mg65 2.180 1_554 S
O66 C75 1.279 . S
O67 Mg65 2.030 . S
O67 C73 1.248 . S
O68 Mg65 1.990 . S
O68 C74 1.253 . S
O69 Mg65 2.117 . S
O69 C75 1.250 1_556 S
C70 O76 1.248 . S
C70 O77 1.264 . S
C71 O57 1.253 . S
C71 O59 1.260 . S
C72 O61 1.279 . S
C72 O62 1.250 . S
C73 O63 1.264 . S
C73 O67 1.248 . S
C74 O64 1.260 . S
C74 O68 1.253 . S
C75 O66 1.279 . S
C75 O69 1.250 1_554 S
O76 Mg58 2.030 . S
O76 C70 1.248 . S
O77 Mg60 2.079 . S
O77 C70 1.264 . S
H78 C84 0.930 . S
H79 C88 0.930 . S
H80 C93 0.929 . S
H81 C91 0.929 . S
H82 C86 0.929 . S
H83 C92 0.929 . S
C84 H78 0.930 . S
C84 C85 1.367 . S
C84 C92 1.378 . S
C85 C84 1.367 . S
C85 C93 1.433 . S
C86 H82 0.929 . S
C86 C88 1.378 . S
C86 C90 1.350 . S
C87 C90 1.463 . S
C87 C92 1.350 . S
C87 N95 1.427 . S
C88 H79 0.930 . S
C88 C86 1.378 . S
C88 C89 1.367 . S
C89 C88 1.367 . S
C89 C91 1.433 . S
C90 C86 1.350 . S
C90 C87 1.463 . S
C90 N94 1.427 . S
C91 H81 0.929 . S
C91 C89 1.433 . S
C91 N94 1.384 . S
C92 H83 0.929 . S
C92 C84 1.378 . S
C92 C87 1.350 . S
C93 H80 0.929 . S
C93 C85 1.433 . S
C93 N95 1.384 . S
N94 C90 1.427 . S
N94 C91 1.384 . S
N95 C87 1.427 . S
N95 C93 1.384 . S
H96 C102 0.930 . S
H97 C106 0.930 . S
H98 C111 0.929 . S
H99 C109 0.929 . S
H100 C104 0.929 . S
H101 C110 0.929 . S
C102 H96 0.930 . S
C102 C103 1.367 . S
C102 C110 1.378 . S
C103 C102 1.367 . S
C103 C111 1.433 . S
C104 H100 0.929 . S
C104 C106 1.378 . S
C104 C108 1.350 . S
C105 C108 1.463 . S
C105 C110 1.350 . S
C105 N113 1.427 . S
C106 H97 0.930 . S
C106 C104 1.378 . S
C106 C107 1.367 . S
C107 C106 1.367 . S
C107 C109 1.433 . S
C108 C104 1.350 . S
C108 C105 1.463 . S
C108 N112 1.427 . S
C109 H99 0.929 . S
C109 C107 1.433 . S
C109 N112 1.384 . S
C110 H101 0.929 . S
C110 C102 1.378 . S
C110 C105 1.350 . S
C111 H98 0.929 . S
C111 C103 1.433 . S
C111 N113 1.384 . S
N112 C108 1.427 . S
N112 C109 1.384 . S
N113 C105 1.427 . S
N113 C111 1.384 . S
H114 C120 0.930 . S
H115 C124 0.930 . S
H116 C129 0.929 . S
H117 C127 0.929 . S
H118 C122 0.929 . S
H119 C128 0.929 . S
C120 H114 0.930 . S
C120 C121 1.367 . S
C120 C128 1.378 . S
C121 C120 1.367 . S
C121 C129 1.433 . S
C122 H118 0.929 . S
C122 C124 1.378 . S
C122 C126 1.350 . S
C123 C126 1.463 . S
C123 C128 1.350 . S
C123 N131 1.427 . S
C124 H115 0.930 . S
C124 C122 1.378 . S
C124 C125 1.367 . S
C125 C124 1.367 . S
C125 C127 1.433 . S
C126 C122 1.350 . S
C126 C123 1.463 . S
C126 N130 1.427 . S
C127 H117 0.929 . S
C127 C125 1.433 . S
C127 N130 1.384 . S
C128 H119 0.929 . S
C128 C120 1.378 . S
C128 C123 1.350 . S
C129 H116 0.929 . S
C129 C121 1.433 . S
C129 N131 1.384 . S
N130 C126 1.427 . S
N130 C127 1.384 . S
N131 C123 1.427 . S
N131 C129 1.384 . S
H132 C138 0.930 . S
H133 C142 0.930 . S
H134 C147 0.929 . S
H135 C145 0.929 . S
H136 C140 0.929 . S
H137 C146 0.929 . S
C138 H132 0.930 . S
C138 C139 1.367 . S
C138 C146 1.378 . S
C139 C138 1.367 . S
C139 C147 1.433 1_556 S
C140 H136 0.929 . S
C140 C142 1.378 . S
C140 C144 1.350 . S
C141 C144 1.463 . S
C141 C146 1.350 1_554 S
C141 N149 1.427 . S
C142 H133 0.930 . S
C142 C140 1.378 . S
C142 C143 1.367 . S
C143 C142 1.367 . S
C143 C145 1.433 1_554 S
C144 C140 1.350 . S
C144 C141 1.463 . S
C144 N148 1.427 1_554 S
C145 H135 0.929 . S
C145 C143 1.433 1_556 S
C145 N148 1.384 . S
C146 H137 0.929 . S
C146 C138 1.378 . S
C146 C141 1.350 1_556 S
C147 H134 0.929 . S
C147 C139 1.433 1_554 S
C147 N149 1.384 . S
N148 C144 1.427 1_556 S
N148 C145 1.384 . S
N149 C141 1.427 . S
N149 C147 1.384 . S
H150 C156 0.930 . S
H151 C160 0.930 1_545 S
H152 C165 0.929 . S
H153 C163 0.929 . S
H154 C158 0.929 1_545 S
H155 C164 0.929 . S
C156 H150 0.930 . S
C156 C157 1.367 . S
C156 C164 1.378 . S
C157 C156 1.367 . S
C157 C165 1.433 . S
C158 H154 0.929 1_565 S
C158 C160 1.378 . S
C158 C162 1.350 . S
C159 C162 1.463 . S
C159 C164 1.350 . S
C159 N167 1.427 . S
C160 H151 0.930 1_565 S
C160 C158 1.378 . S
C160 C161 1.367 . S
C161 C160 1.367 . S
C161 C163 1.433 . S
C162 C158 1.350 . S
C162 C159 1.463 . S
C162 N166 1.427 . S
C163 H153 0.929 . S
C163 C161 1.433 . S
C163 N166 1.384 . S
C164 H155 0.929 . S
C164 C156 1.378 . S
C164 C159 1.350 . S
C165 H152 0.929 . S
C165 C157 1.433 . S
C165 N167 1.384 . S
N166 C162 1.427 . S
N166 C163 1.384 . S
N167 C159 1.427 . S
N167 C165 1.384 . S
H168 C174 0.930 . S
H169 C178 0.930 . S
H170 C183 0.929 . S
H171 C181 0.929 . S
H172 C176 0.929 . S
H173 C182 0.929 . S
C174 H168 0.930 . S
C174 C175 1.367 . S
C174 C182 1.378 . S
C175 C174 1.367 . S
C175 C183 1.433 . S
C176 H172 0.929 . S
C176 C178 1.378 . S
C176 C180 1.350 . S
C177 C180 1.463 . S
C177 C182 1.350 . S
C177 N185 1.427 . S
C178 H169 0.930 . S
C178 C176 1.378 . S
C178 C179 1.367 . S
C179 C178 1.367 . S
C179 C181 1.433 . S
C180 C176 1.350 . S
C180 C177 1.463 . S
C180 N184 1.427 . S
C181 H171 0.929 . S
C181 C179 1.433 . S
C181 N184 1.384 . S
C182 H173 0.929 . S
C182 C174 1.378 . S
C182 C177 1.350 . S
C183 H170 0.929 . S
C183 C175 1.433 . S
C183 N185 1.384 . S
N184 C180 1.427 . S
N184 C181 1.384 . S
N185 C177 1.427 . S
N185 C183 1.384 . S
H186 C192 0.930 . S
H187 C196 0.930 . S
H188 C201 0.929 . S
H189 C199 0.929 . S
H190 C194 0.929 . S
H191 C200 0.929 . S
C192 H186 0.930 . S
C192 C193 1.367 . S
C192 C200 1.378 . S
C193 C192 1.367 . S
C193 C201 1.433 . S
C194 H190 0.929 . S
C194 C196 1.378 . S
C194 C198 1.350 . S
C195 C198 1.463 . S
C195 C200 1.350 . S
C195 N203 1.427 . S
C196 H187 0.930 . S
C196 C194 1.378 . S
C196 C197 1.367 . S
C197 C196 1.367 . S
C197 C199 1.433 . S
C198 C194 1.350 . S
C198 C195 1.463 . S
C198 N202 1.427 . S
C199 H189 0.929 . S
C199 C197 1.433 . S
C199 N202 1.384 . S
C200 H191 0.929 . S
C200 C192 1.378 . S
C200 C195 1.350 . S
C201 H188 0.929 . S
C201 C193 1.433 . S
C201 N203 1.384 . S
N202 C198 1.427 . S
N202 C199 1.384 . S
N203 C195 1.427 . S
N203 C201 1.384 . S
H204 C210 0.930 . S
H205 C214 0.930 . S
H206 C219 0.929 . S
H207 C217 0.929 . S
H208 C212 0.929 . S
H209 C218 0.929 . S
C210 H204 0.930 . S
C210 C211 1.367 . S
C210 C218 1.378 . S
C211 C210 1.367 . S
C211 C219 1.433 . S
C212 H208 0.929 . S
C212 C214 1.378 . S
C212 C216 1.350 . S
C213 C216 1.463 . S
C213 C218 1.350 . S
C213 N221 1.427 . S
C214 H205 0.930 . S
C214 C212 1.378 . S
C214 C215 1.367 . S
C215 C214 1.367 . S
C215 C217 1.433 . S
C216 C212 1.350 . S
C216 C213 1.463 . S
C216 N220 1.427 . S
C217 H207 0.929 . S
C217 C215 1.433 . S
C217 N220 1.384 . S
C218 H209 0.929 . S
C218 C210 1.378 . S
C218 C213 1.350 . S
C219 H206 0.929 . S
C219 C211 1.433 . S
C219 N221 1.384 . S
N220 C216 1.427 . S
N220 C217 1.384 . S
N221 C213 1.427 . S
N221 C219 1.384 . S
H222 C228 0.930 . S
H223 C232 0.930 . S
H224 C237 0.929 . S
H225 C235 0.929 . S
H226 C230 0.929 . S
H227 C236 0.929 . S
C228 H222 0.930 . S
C228 C229 1.367 . S
C228 C236 1.378 . S
C229 C228 1.367 . S
C229 C237 1.433 . S
C230 H226 0.929 . S
C230 C232 1.378 . S
C230 C234 1.350 . S
C231 C234 1.463 . S
C231 C236 1.350 . S
C231 N239 1.427 . S
C232 H223 0.930 . S
C232 C230 1.378 . S
C232 C233 1.367 . S
C233 C232 1.367 . S
C233 C235 1.433 . S
C234 C230 1.350 . S
C234 C231 1.463 . S
C234 N238 1.427 . S
C235 H225 0.929 . S
C235 C233 1.433 . S
C235 N238 1.384 . S
C236 H227 0.929 . S
C236 C228 1.378 . S
C236 C231 1.350 . S
C237 H224 0.929 . S
C237 C229 1.433 . S
C237 N239 1.384 . S
N238 C234 1.427 . S
N238 C235 1.384 . S
N239 C231 1.427 . S
N239 C237 1.384 . S
H240 C246 0.930 . S
H241 C250 0.930 . S
H242 C255 0.929 . S
H243 C253 0.929 1_565 S
H244 C248 0.929 . S
H245 C254 0.929 . S
C246 H240 0.930 . S
C246 C247 1.367 . S
C246 C254 1.378 . S
C247 C246 1.367 . S
C247 C255 1.433 . S
C248 H244 0.929 . S
C248 C250 1.378 . S
C248 C252 1.350 . S
C249 C252 1.463 . S
C249 C254 1.350 . S
C249 N257 1.427 . S
C250 H241 0.930 . S
C250 C248 1.378 . S
C250 C251 1.367 . S
C251 C250 1.367 . S
C251 C253 1.433 . S
C252 C248 1.350 . S
C252 C249 1.463 . S
C252 N256 1.427 . S
C253 H243 0.929 1_545 S
C253 C251 1.433 . S
C253 N256 1.384 . S
C254 H245 0.929 . S
C254 C246 1.378 . S
C254 C249 1.350 . S
C255 H242 0.929 . S
C255 C247 1.433 . S
C255 N257 1.384 . S
N256 C252 1.427 . S
N256 C253 1.384 . S
N257 C249 1.427 . S
N257 C255 1.384 . S
H258 C264 0.930 . S
H259 C268 0.930 . S
H260 C273 0.929 . S
H261 C271 0.929 . S
H262 C266 0.929 . S
H263 C272 0.929 . S
C264 H258 0.930 . S
C264 C265 1.367 . S
C264 C272 1.378 . S
C265 C264 1.367 . S
C265 C273 1.433 . S
C266 H262 0.929 . S
C266 C268 1.378 . S
C266 C270 1.350 . S
C267 C270 1.463 . S
C267 C272 1.350 . S
C267 N275 1.427 . S
C268 H259 0.930 . S
C268 C266 1.378 . S
C268 C269 1.367 . S
C269 C268 1.367 . S
C269 C271 1.433 . S
C270 C266 1.350 . S
C270 C267 1.463 . S
C270 N274 1.427 . S
C271 H261 0.929 . S
C271 C269 1.433 . S
C271 N274 1.384 . S
C272 H263 0.929 . S
C272 C264 1.378 . S
C272 C267 1.350 . S
C273 H260 0.929 . S
C273 C265 1.433 . S
C273 N275 1.384 . S
N274 C270 1.427 . S
N274 C271 1.384 . S
N275 C267 1.427 . S
N275 C273 1.384 . S
H276 C282 0.930 . S
H277 C286 0.930 . S
H278 C291 0.929 . S
H279 C289 0.927 . S
H280 C284 0.929 . S
H281 C290 0.929 . S
C282 H276 0.930 . S
C282 C283 1.367 . S
C282 C290 1.378 . S
C283 C282 1.367 . S
C283 C291 1.433 . S
C284 H280 0.929 . S
C284 C286 1.378 . S
C284 C288 1.350 . S
C285 C288 1.463 . S
C285 C290 1.350 . S
C285 N293 1.427 . S
C286 H277 0.930 . S
C286 C284 1.378 . S
C286 C287 1.367 . S
C287 C286 1.367 . S
C287 C289 1.435 1_565 S
C288 C284 1.350 . S
C288 C285 1.463 . S
C288 N292 1.427 . S
C289 H279 0.927 . S
C289 C287 1.435 1_545 S
C289 N292 1.384 1_545 S
C290 H281 0.929 . S
C290 C282 1.378 . S
C290 C285 1.350 . S
C291 H278 0.929 . S
C291 C283 1.433 . S
C291 N293 1.384 . S
N292 C288 1.427 . S
N292 C289 1.384 1_565 S
N293 C285 1.427 . S
N293 C291 1.384 . S
C89 C51 1.266 . S
C85 C34 1.448 . S
C103 C7 1.447 . S
C107 C75 1.257 . S
C121 C16 1.578 . S
C125 C54 1.373 . S
C139 C25 1.583 . S
C143 C72 1.356 . S
C161 C52 1.479 . S
C157 C5 1.503 . S
C179 C74 1.484 . S
C175 C13 1.551 . S
C193 C23 1.541 . S
C197 C53 1.484 . S
C211 C32 1.498 . S
C215 C73 1.448 . S
C233 C71 1.472 . S
C229 C14 1.539 . S
C251 C50 1.483 . S
C247 C22 1.548 . S
C269 C70 1.479 . S
C265 C31 1.496 . S
C283 C4 1.506 1_556 S
C287 C49 1.452 . S
