# Generated by pormake.
# Topology llk, (3,12)-cn, num edge types: 1
# Building blocks:
#     Node 0, Type 0, BuildingBlock: KAKCAD_clean_linker_0, # of connection points: 3
#     Node 1, Type 0, BuildingBlock: KAKCAD_clean_linker_0, # of connection points: 3
#     Node 2, Type 0, BuildingBlock: KAKCAD_clean_linker_0, # of connection points: 3
#     Node 3, Type 0, BuildingBlock: KAKCAD_clean_linker_0, # of connection points: 3
#     Node 4, Type 0, BuildingBlock: KAKCAD_clean_linker_0, # of connection points: 3
#     Node 5, Type 0, BuildingBlock: KAKCAD_clean_linker_0, # of connection points: 3
#     Node 6, Type 0, BuildingBlock: KAKCAD_clean_linker_0, # of connection points: 3
#     Node 7, Type 0, BuildingBlock: KAKCAD_clean_linker_0, # of connection points: 3
#     Node 8, Type 0, BuildingBlock: KAKCAD_clean_linker_0, # of connection points: 3
#     Node 9, Type 0, BuildingBlock: KAKCAD_clean_linker_0, # of connection points: 3
#     Node 10, Type 0, BuildingBlock: KAKCAD_clean_linker_0, # of connection points: 3
#     Node 11, Type 0, BuildingBlock: KAKCAD_clean_linker_0, # of connection points: 3
#     Node 12, Type 0, BuildingBlock: KAKCAD_clean_linker_0, # of connection points: 3
#     Node 13, Type 0, BuildingBlock: KAKCAD_clean_linker_0, # of connection points: 3
#     Node 14, Type 0, BuildingBlock: KAKCAD_clean_linker_0, # of connection points: 3
#     Node 15, Type 0, BuildingBlock: KAKCAD_clean_linker_0, # of connection points: 3
#     Node 16, Type 0, BuildingBlock: KAKCAD_clean_linker_0, # of connection points: 3
#     Node 17, Type 0, BuildingBlock: KAKCAD_clean_linker_0, # of connection points: 3
#     Node 18, Type 0, BuildingBlock: KAKCAD_clean_linker_0, # of connection points: 3
#     Node 19, Type 0, BuildingBlock: KAKCAD_clean_linker_0, # of connection points: 3
#     Node 20, Type 0, BuildingBlock: KAKCAD_clean_linker_0, # of connection points: 3
#     Node 21, Type 0, BuildingBlock: KAKCAD_clean_linker_0, # of connection points: 3
#     Node 22, Type 0, BuildingBlock: KAKCAD_clean_linker_0, # of connection points: 3
#     Node 23, Type 0, BuildingBlock: KAKCAD_clean_linker_0, # of connection points: 3
#     Node 24, Type 1, BuildingBlock: EZIPEK_clean_sbu_0, # of connection points: 12
#     Node 25, Type 1, BuildingBlock: EZIPEK_clean_sbu_0, # of connection points: 12
#     Node 26, Type 1, BuildingBlock: EZIPEK_clean_sbu_0, # of connection points: 12
#     Node 27, Type 1, BuildingBlock: EZIPEK_clean_sbu_0, # of connection points: 12
#     Node 28, Type 1, BuildingBlock: EZIPEK_clean_sbu_0, # of connection points: 12
#     Node 29, Type 1, BuildingBlock: EZIPEK_clean_sbu_0, # of connection points: 12
#     Edge 30, Type (0, 1), BuildingBlock: CIFDUS_clean_linker_0, # of connection points: 2
#     Edge 31, Type (0, 1), BuildingBlock: CIFDUS_clean_linker_0, # of connection points: 2
#     Edge 32, Type (0, 1), BuildingBlock: CIFDUS_clean_linker_0, # of connection points: 2
#     Edge 33, Type (0, 1), BuildingBlock: CIFDUS_clean_linker_0, # of connection points: 2
#     Edge 34, Type (0, 1), BuildingBlock: CIFDUS_clean_linker_0, # of connection points: 2
#     Edge 35, Type (0, 1), BuildingBlock: CIFDUS_clean_linker_0, # of connection points: 2
#     Edge 36, Type (0, 1), BuildingBlock: CIFDUS_clean_linker_0, # of connection points: 2
#     Edge 37, Type (0, 1), BuildingBlock: CIFDUS_clean_linker_0, # of connection points: 2
#     Edge 38, Type (0, 1), BuildingBlock: CIFDUS_clean_linker_0, # of connection points: 2
#     Edge 39, Type (0, 1), BuildingBlock: CIFDUS_clean_linker_0, # of connection points: 2
#     Edge 40, Type (0, 1), BuildingBlock: CIFDUS_clean_linker_0, # of connection points: 2
#     Edge 41, Type (0, 1), BuildingBlock: CIFDUS_clean_linker_0, # of connection points: 2
#     Edge 42, Type (0, 1), BuildingBlock: CIFDUS_clean_linker_0, # of connection points: 2
#     Edge 43, Type (0, 1), BuildingBlock: CIFDUS_clean_linker_0, # of connection points: 2
#     Edge 44, Type (0, 1), BuildingBlock: CIFDUS_clean_linker_0, # of connection points: 2
#     Edge 45, Type (0, 1), BuildingBlock: CIFDUS_clean_linker_0, # of connection points: 2
#     Edge 46, Type (0, 1), BuildingBlock: CIFDUS_clean_linker_0, # of connection points: 2
#     Edge 47, Type (0, 1), BuildingBlock: CIFDUS_clean_linker_0, # of connection points: 2
#     Edge 48, Type (0, 1), BuildingBlock: CIFDUS_clean_linker_0, # of connection points: 2
#     Edge 49, Type (0, 1), BuildingBlock: CIFDUS_clean_linker_0, # of connection points: 2
#     Edge 50, Type (0, 1), BuildingBlock: CIFDUS_clean_linker_0, # of connection points: 2
#     Edge 51, Type (0, 1), BuildingBlock: CIFDUS_clean_linker_0, # of connection points: 2
#     Edge 52, Type (0, 1), BuildingBlock: CIFDUS_clean_linker_0, # of connection points: 2
#     Edge 53, Type (0, 1), BuildingBlock: CIFDUS_clean_linker_0, # of connection points: 2
#     Edge 54, Type (0, 1), BuildingBlock: CIFDUS_clean_linker_0, # of connection points: 2
#     Edge 55, Type (0, 1), BuildingBlock: CIFDUS_clean_linker_0, # of connection points: 2
#     Edge 56, Type (0, 1), BuildingBlock: CIFDUS_clean_linker_0, # of connection points: 2
#     Edge 57, Type (0, 1), BuildingBlock: CIFDUS_clean_linker_0, # of connection points: 2
#     Edge 58, Type (0, 1), BuildingBlock: CIFDUS_clean_linker_0, # of connection points: 2
#     Edge 59, Type (0, 1), BuildingBlock: CIFDUS_clean_linker_0, # of connection points: 2
#     Edge 60, Type (0, 1), BuildingBlock: CIFDUS_clean_linker_0, # of connection points: 2
#     Edge 61, Type (0, 1), BuildingBlock: CIFDUS_clean_linker_0, # of connection points: 2
#     Edge 62, Type (0, 1), BuildingBlock: CIFDUS_clean_linker_0, # of connection points: 2
#     Edge 63, Type (0, 1), BuildingBlock: CIFDUS_clean_linker_0, # of connection points: 2
#     Edge 64, Type (0, 1), BuildingBlock: CIFDUS_clean_linker_0, # of connection points: 2
#     Edge 65, Type (0, 1), BuildingBlock: CIFDUS_clean_linker_0, # of connection points: 2
#     Edge 66, Type (0, 1), BuildingBlock: CIFDUS_clean_linker_0, # of connection points: 2
#     Edge 67, Type (0, 1), BuildingBlock: CIFDUS_clean_linker_0, # of connection points: 2
#     Edge 68, Type (0, 1), BuildingBlock: CIFDUS_clean_linker_0, # of connection points: 2
#     Edge 69, Type (0, 1), BuildingBlock: CIFDUS_clean_linker_0, # of connection points: 2
#     Edge 70, Type (0, 1), BuildingBlock: CIFDUS_clean_linker_0, # of connection points: 2
#     Edge 71, Type (0, 1), BuildingBlock: CIFDUS_clean_linker_0, # of connection points: 2
#     Edge 72, Type (0, 1), BuildingBlock: CIFDUS_clean_linker_0, # of connection points: 2
#     Edge 73, Type (0, 1), BuildingBlock: CIFDUS_clean_linker_0, # of connection points: 2
#     Edge 74, Type (0, 1), BuildingBlock: CIFDUS_clean_linker_0, # of connection points: 2
#     Edge 75, Type (0, 1), BuildingBlock: CIFDUS_clean_linker_0, # of connection points: 2
#     Edge 76, Type (0, 1), BuildingBlock: CIFDUS_clean_linker_0, # of connection points: 2
#     Edge 77, Type (0, 1), BuildingBlock: CIFDUS_clean_linker_0, # of connection points: 2
#     Edge 78, Type (0, 1), BuildingBlock: CIFDUS_clean_linker_0, # of connection points: 2
#     Edge 79, Type (0, 1), BuildingBlock: CIFDUS_clean_linker_0, # of connection points: 2
#     Edge 80, Type (0, 1), BuildingBlock: CIFDUS_clean_linker_0, # of connection points: 2
#     Edge 81, Type (0, 1), BuildingBlock: CIFDUS_clean_linker_0, # of connection points: 2
#     Edge 82, Type (0, 1), BuildingBlock: CIFDUS_clean_linker_0, # of connection points: 2
#     Edge 83, Type (0, 1), BuildingBlock: CIFDUS_clean_linker_0, # of connection points: 2
#     Edge 84, Type (0, 1), BuildingBlock: CIFDUS_clean_linker_0, # of connection points: 2
#     Edge 85, Type (0, 1), BuildingBlock: CIFDUS_clean_linker_0, # of connection points: 2
#     Edge 86, Type (0, 1), BuildingBlock: CIFDUS_clean_linker_0, # of connection points: 2
#     Edge 87, Type (0, 1), BuildingBlock: CIFDUS_clean_linker_0, # of connection points: 2
#     Edge 88, Type (0, 1), BuildingBlock: CIFDUS_clean_linker_0, # of connection points: 2
#     Edge 89, Type (0, 1), BuildingBlock: CIFDUS_clean_linker_0, # of connection points: 2
#     Edge 90, Type (0, 1), BuildingBlock: CIFDUS_clean_linker_0, # of connection points: 2
#     Edge 91, Type (0, 1), BuildingBlock: CIFDUS_clean_linker_0, # of connection points: 2
#     Edge 92, Type (0, 1), BuildingBlock: CIFDUS_clean_linker_0, # of connection points: 2
#     Edge 93, Type (0, 1), BuildingBlock: CIFDUS_clean_linker_0, # of connection points: 2
#     Edge 94, Type (0, 1), BuildingBlock: CIFDUS_clean_linker_0, # of connection points: 2
#     Edge 95, Type (0, 1), BuildingBlock: CIFDUS_clean_linker_0, # of connection points: 2
#     Edge 96, Type (0, 1), BuildingBlock: CIFDUS_clean_linker_0, # of connection points: 2
#     Edge 97, Type (0, 1), BuildingBlock: CIFDUS_clean_linker_0, # of connection points: 2
#     Edge 98, Type (0, 1), BuildingBlock: CIFDUS_clean_linker_0, # of connection points: 2
#     Edge 99, Type (0, 1), BuildingBlock: CIFDUS_clean_linker_0, # of connection points: 2
#     Edge 100, Type (0, 1), BuildingBlock: CIFDUS_clean_linker_0, # of connection points: 2
#     Edge 101, Type (0, 1), BuildingBlock: CIFDUS_clean_linker_0, # of connection points: 2
# Relax obj value: 0.106
# Max RMSD: 0.160
# Mean RMSD: 0.134
data_MOF--net-llk--node1-EZIPEK_clean_sbu_0--node2-KAKCAD_clean_linker_0--edge1-CIFDUS_clean_linker_0
_symmetry_space_group_name_H-M    P1
_symmetry_Int_Tables_number       1
_symmetry_cell_setting            triclinic
loop_
_symmetry_equiv_pos_as_xyz
'x, y, z'
_cell_length_a     50.74073
_cell_length_b     50.702859
_cell_length_c     50.664984
_cell_angle_alpha  90.024502
_cell_angle_beta   90.039425
_cell_angle_gamma 89.945802
loop_
_atom_site_label
_atom_site_type_symbol
_atom_site_fract_x
_atom_site_fract_y
_atom_site_fract_z
_atom_type_partial_charge
C0 C 0.99955 0.33963 0.32844 0.0
C1 C 0.01748 0.33609 0.34928 0.0
C2 C 0.9987 0.32177 0.30759 0.0
C3 C 0.01571 0.29993 0.30716 0.0
C4 C 0.03362 0.29628 0.32801 0.0
C5 C 0.03451 0.31423 0.3489 0.0
C6 C 0.01396 0.28058 0.28541 0.0
C7 C 0.0114 0.2891 0.25931 0.0
C8 C 1.00762 0.2711 0.23862 0.0
C9 C 1.00685 0.24373 0.24432 0.0
C10 C 0.00932 0.23504 0.27081 0.0
C11 C 0.01314 0.25363 0.29093 0.0
C12 C 1.00635 0.20717 0.27937 0.0
C13 C 0.98453 0.20059 0.29513 0.0
C14 C 0.02808 0.18998 0.27895 0.0
C15 C 0.02863 0.16756 0.2953 0.0
C16 C 1.00764 0.16225 0.31271 0.0
C17 C 1.0035 0.28247 0.21183 0.0
C18 C 0.98284 0.30062 0.2081 0.0
C19 C 0.0231 0.28054 0.19236 0.0
C20 C 0.02284 0.29758 0.17042 0.0
C21 C 1.00311 0.31703 0.1677 0.0
C22 C 0.98265 0.31766 0.18638 0.0
C23 C 0.9852 0.17848 0.31166 0.0
H24 H 0.98583 0.35602 0.32845 0.0
H25 H 0.98433 0.32476 0.29205 0.0
H26 H 0.04706 0.27966 0.32804 0.0
H27 H 0.04872 0.31118 0.36458 0.0
H28 H 0.01218 0.31005 0.25502 0.0
H29 H 0.01449 0.24703 0.31126 0.0
H30 H 1.00347 0.22959 0.22865 0.0
H31 H 0.96777 0.2138 0.29627 0.0
H32 H 0.04545 0.19498 0.26758 0.0
H33 H 0.04622 0.15546 0.2957 0.0
H34 H 0.96762 0.30273 0.22295 0.0
H35 H 0.03954 0.26716 0.19501 0.0
H36 H 0.96859 0.17477 0.32455 0.0
H37 H 0.96687 0.33196 0.18469 0.0
H38 H 0.03893 0.29654 0.15643 0.0
C39 C 0.69308 0.02946 0.33019 0.0
C40 C 0.67063 0.01387 0.32588 0.0
C41 C 0.71401 0.02878 0.31244 0.0
C42 C 0.71292 0.01236 0.29015 0.0
C43 C 0.69034 0.99688 0.28579 0.0
C44 C 0.6693 0.99775 0.30345 0.0
C45 C 0.73499 0.01188 0.27113 0.0
C46 C 0.76115 0.01213 0.27982 0.0
C47 C 0.7822 0.01241 0.26186 0.0
C48 C 0.77672 0.01189 0.23436 0.0
C49 C 0.75016 0.01193 0.22555 0.0
C50 C 0.72978 0.01185 0.24412 0.0
C51 C 0.74166 0.01271 0.19747 0.0
C52 C 0.72755 0.03499 0.18877 0.0
C53 C 0.73898 0.98902 0.18332 0.0
C54 C 0.72104 0.98716 0.16221 0.0
C55 C 0.7051 1.00884 0.15522 0.0
C56 C 0.80921 0.014 0.27338 0.0
C57 C 0.81529 0.03532 0.29009 0.0
C58 C 0.82608 0.992 0.27338 0.0
C59 C 0.84763 0.99075 0.29091 0.0
C60 C 0.85253 0.01136 0.30899 0.0
C61 C 0.83659 0.03402 0.30763 0.0
C62 C 0.70936 0.03303 0.16805 0.0
H63 H 0.69438 0.04224 0.34729 0.0
H64 H 0.73091 0.04133 0.31603 0.0
H65 H 0.68907 0.9838 0.26893 0.0
H66 H 0.6523 0.98531 0.29995 0.0
H67 H 0.76524 0.01195 0.30084 0.0
H68 H 0.70949 0.01227 0.23733 0.0
H69 H 0.79269 0.0122 0.2202 0.0
H70 H 0.72872 0.05332 0.1997 0.0
H71 H 0.74893 0.97135 0.19007 0.0
H72 H 0.71823 0.96824 0.1527 0.0
H73 H 0.80246 0.05241 0.29078 0.0
H74 H 0.82155 0.97504 0.26119 0.0
H75 H 0.69768 0.05017 0.16289 0.0
H76 H 0.84002 0.05047 0.32084 0.0
H77 H 0.85945 0.97296 0.29141 0.0
C78 C 0.05879 0.71049 0.34936 0.0
C79 C 0.06559 0.68425 0.34374 0.0
C80 C 0.05395 0.72826 0.32905 0.0
C81 C 0.05705 0.72069 0.30245 0.0
C82 C 0.06786 0.69561 0.29717 0.0
C83 C 0.07158 0.67739 0.31754 0.0
C84 C 0.04542 0.73718 0.2809 0.0
C85 C 0.0409 0.76422 0.28475 0.0
C86 C 0.02374 0.77839 0.26838 0.0
C87 C 0.01308 0.76609 0.24571 0.0
C88 C 0.01964 0.73956 0.24009 0.0
C89 C 0.03509 0.7253 0.25806 0.0
C90 C 0.01021 0.72511 0.21639 0.0
C91 C 0.9884 0.70819 0.21842 0.0
C92 C 0.02708 0.72242 0.1946 0.0
C93 C 0.02299 0.70242 0.17589 0.0
C94 C 1.00199 0.68442 0.1786 0.0
C95 C 0.01519 0.8046 0.2783 0.0
C96 C 0.99336 0.80588 0.29531 0.0
C97 C 0.03299 0.8258 0.278 0.0
C98 C 0.02976 0.8472 0.29528 0.0
C99 C 0.00895 0.84761 0.31367 0.0
C100 C 0.9903 0.82709 0.31286 0.0
C101 C 0.98425 0.68819 0.19969 0.0
H102 H 0.05525 0.71687 0.36946 0.0
H103 H 0.0458 0.74716 0.33458 0.0
H104 H 0.07197 0.68931 0.27719 0.0
H105 H 0.07734 0.65748 0.3124 0.0
H106 H 0.04935 0.77422 0.30164 0.0
H107 H 0.0379 0.70444 0.25449 0.0
H108 H 0.9998 0.77683 0.23288 0.0
H109 H 0.97552 0.70937 0.23542 0.0
H110 H 0.04453 0.73462 0.19306 0.0
H111 H 0.03732 0.7001 0.16024 0.0
H112 H 0.9798 0.78943 0.29654 0.0
H113 H 0.05047 0.82488 0.26576 0.0
H114 H 0.96762 0.67508 0.20228 0.0
H115 H 0.9739 0.82691 0.32652 0.0
H116 H 0.0446 0.86253 0.29546 0.0
C117 C 0.35446 0.96493 0.32305 0.0
C118 C 0.34716 0.95605 0.34824 0.0
C119 C 0.33626 0.96527 0.30257 0.0
C120 C 0.31051 0.95574 0.30642 0.0
C121 C 0.3044 0.94361 0.33068 0.0
C122 C 0.32243 0.94411 0.35154 0.0
C123 C 0.28954 0.96205 0.28679 0.0
C124 C 0.29583 0.96583 0.26014 0.0
C125 C 0.27818 0.97816 0.24278 0.0
C126 C 0.25261 0.98487 0.25174 0.0
C127 C 0.24525 0.97889 0.27799 0.0
C128 C 0.26398 0.96816 0.29527 0.0
C129 C 0.21868 0.98382 0.28923 0.0
C130 C 0.21305 1.00815 0.30129 0.0
C131 C 0.20291 0.96194 0.29548 0.0
C132 C 0.18332 0.96378 0.31484 0.0
C133 C 0.17896 0.98758 0.32843 0.0
C134 C 0.289 0.98586 0.21666 0.0
C135 C 0.29855 0.01161 0.21311 0.0
C136 C 0.29747 0.96603 0.19922 0.0
C137 C 0.31646 0.97139 0.17987 0.0
C138 C 0.32767 0.99669 0.17762 0.0
C139 C 0.31768 0.01698 0.19382 0.0
C140 C 0.1932 0.01008 0.32056 0.0
H141 H 0.37379 0.9733 0.31956 0.0
H142 H 0.34209 0.97488 0.28444 0.0
H143 H 0.28518 0.93505 0.33414 0.0
H144 H 0.31631 0.93671 0.37062 0.0
H145 H 0.31527 0.96059 0.25299 0.0
H146 H 0.25863 0.96575 0.31582 0.0
H147 H 0.23875 0.99441 0.23856 0.0
H148 H 0.22544 0.02511 0.29745 0.0
H149 H 0.20726 0.94281 0.28698 0.0
H150 H 0.17247 0.94617 0.32016 0.0
H151 H 0.29291 0.02711 0.22671 0.0
H152 H 0.29102 0.94586 0.20201 0.0
H153 H 0.19039 0.02869 0.33069 0.0
H154 H 0.3255 0.03679 0.1924 0.0
H155 H 0.3237 0.95518 0.16799 0.0
C156 C 0.93266 0.6746 0.70637 0.0
C157 C 0.94181 0.67908 0.68063 0.0
C158 C 0.93247 0.69519 0.72473 0.0
C159 C 0.94254 0.72021 0.7179 0.0
C160 C 0.94775 0.72527 0.69104 0.0
C161 C 0.9468 0.70504 0.67259 0.0
C162 C 0.95254 0.73879 0.73856 0.0
C163 C 0.96173 0.72907 0.7628 0.0
C164 C 0.97686 0.74464 0.77999 0.0
C165 C 0.9847 0.77015 0.77173 0.0
C166 C 0.97477 0.78055 0.74774 0.0
C167 C 0.95755 0.76524 0.73243 0.0
C168 C 0.98393 0.80562 0.73551 0.0
C169 C 0.96505 0.82428 0.72747 0.0
C170 C 0.00923 0.80684 0.72432 0.0
C171 C 0.01477 0.82481 0.70393 0.0
C172 C 0.99508 0.84189 0.69414 0.0
C173 C 0.98463 0.7323 0.8056 0.0
C174 C 0.96492 0.72003 0.82081 0.0
C175 C 0.01117 0.72753 0.81207 0.0
C176 C 0.01772 0.70943 0.83217 0.0
C177 C 0.99782 0.6956 0.84575 0.0
C178 C 0.97141 0.70176 0.8404 0.0
C179 C 0.97048 0.84207 0.70706 0.0
H180 H 0.92792 0.65487 0.71302 0.0
H181 H 0.92651 0.69076 0.74474 0.0
H182 H 0.95519 0.74401 0.68423 0.0
H183 H 0.95269 0.70929 0.65248 0.0
H184 H 0.95855 0.70863 0.76803 0.0
H185 H 0.94973 0.7736 0.7144 0.0
H186 H 0.99792 0.78177 0.78383 0.0
H187 H 0.9452 0.82343 0.73531 0.0
H188 H 0.02402 0.79239 0.72971 0.0
H189 H 0.03416 0.82442 0.69503 0.0
H190 H 0.94429 0.72329 0.8163 0.0
H191 H 0.02677 0.73636 0.80049 0.0
H192 H 0.95461 0.85458 0.70019 0.0
H193 H 0.9557 0.69174 0.85081 0.0
H194 H 0.03827 0.70511 0.83603 0.0
C195 C 0.33984 0.02561 0.70294 0.0
C196 C 0.33496 0.04324 0.68214 0.0
C197 C 0.32125 0.02188 0.72265 0.0
C198 C 0.29726 0.03564 0.72202 0.0
C199 C 0.29264 0.05401 0.70176 0.0
C200 C 0.31138 0.05778 0.68191 0.0
C201 C 0.27634 0.02834 0.74088 0.0
C202 C 0.28269 0.02279 0.76711 0.0
C203 C 0.26455 0.01056 0.7839 0.0
C204 C 0.239 1.00452 0.7744 0.0
C205 C 0.2321 0.01128 0.74815 0.0
C206 C 0.25091 0.02314 0.73177 0.0
C207 C 0.20644 1.00495 0.73565 0.0
C208 C 0.20248 0.97987 0.72456 0.0
C209 C 0.1903 0.02585 0.72731 0.0
C210 C 0.17193 0.02228 0.70699 0.0
C211 C 0.16924 0.99766 0.69437 0.0
C212 C 0.27461 1.00314 0.81036 0.0
C213 C 0.29279 0.98227 0.81213 0.0
C214 C 0.2735 0.02158 0.831 0.0
C215 C 0.2914 0.02019 0.85211 0.0
C216 C 0.31105 1.00052 0.85277 0.0
C217 C 0.31082 0.98099 0.83305 0.0
C218 C 0.18402 0.97623 0.7042 0.0
H219 H 0.35751 0.01361 0.70336 0.0
H220 H 0.32513 1.00711 0.7376 0.0
H221 H 0.27431 0.06495 0.70093 0.0
H222 H 0.30723 0.07163 0.66617 0.0
H223 H 0.3024 0.027 0.77429 0.0
H224 H 0.24608 0.02685 0.71123 0.0
H225 H 0.22493 0.99458 0.78701 0.0
H226 H 0.21516 0.96358 0.73012 0.0
H227 H 0.19351 0.04556 0.73495 0.0
H228 H 0.16127 0.03939 0.69994 0.0
H229 H 0.29456 0.96822 0.7961 0.0
H230 H 0.26031 0.03835 0.82968 0.0
H231 H 0.1822 0.95686 0.69538 0.0
H232 H 0.32539 0.96536 0.83314 0.0
H233 H 0.29106 0.03564 0.86686 0.0
C234 C 0.02976 0.31345 0.67323 0.0
C235 C 0.04246 0.33702 0.68038 0.0
C236 C 0.02733 0.29289 0.69122 0.0
C237 C 0.03842 0.29489 0.71659 0.0
C238 C 0.05307 0.31759 0.72295 0.0
C239 C 0.05477 0.33856 0.70519 0.0
C240 C 0.03271 0.27441 0.73684 0.0
C241 C 0.02845 0.24816 0.72948 0.0
C242 C 0.01906 0.22953 0.74758 0.0
C243 C 0.01541 0.2369 0.77429 0.0
C244 C 0.0211 0.26305 0.78229 0.0
C245 C 0.02912 0.28152 0.7633 0.0
C246 C 0.01823 0.27293 0.80981 0.0
C247 C 0.99321 0.27584 0.82136 0.0
C248 C 0.03982 0.28577 0.82157 0.0
C249 C 0.03622 0.30293 0.84286 0.0
C250 C 0.01096 0.3075 0.85319 0.0
C251 C 0.01211 0.20328 0.73663 0.0
C252 C 0.99092 0.20167 0.7188 0.0
C253 C 0.03048 0.18257 0.73735 0.0
C254 C 0.02852 0.16143 0.7195 0.0
C255 C 1.00838 0.16084 0.70031 0.0
C256 C 0.98909 0.18076 0.70085 0.0
C257 C 0.98963 0.29288 0.84302 0.0
H258 H 0.02083 0.31112 0.65395 0.0
H259 H 0.01566 0.27599 0.68545 0.0
H260 H 0.0626 0.31958 0.74197 0.0
H261 H 0.06479 0.35635 0.71142 0.0
H262 H 0.03177 0.24209 0.70923 0.0
H263 H 0.03156 0.30191 0.76924 0.0
H264 H 1.00825 0.22264 0.78849 0.0
H265 H 0.97616 0.26661 0.81241 0.0
H266 H 0.05929 0.28407 0.81293 0.0
H267 H 0.05308 0.31357 0.85051 0.0
H268 H 0.97684 0.2177 0.71742 0.0
H269 H 0.04743 0.18373 0.75031 0.0
H270 H 0.96992 0.29601 0.85061 0.0
H271 H 0.97311 0.18072 0.68666 0.0
H272 H 0.04376 0.14647 0.71958 0.0
C273 C 0.7034 0.03892 0.68265 0.0
C274 C 0.68152 0.05399 0.69045 0.0
C275 C 0.72423 0.03473 0.69986 0.0
C276 C 0.72381 0.04553 0.72537 0.0
C277 C 0.70257 0.06177 0.73281 0.0
C278 C 0.68149 0.06589 0.71548 0.0
C279 C 0.74367 0.03658 0.7448 0.0
C280 C 0.7696 0.03179 0.73681 0.0
C281 C 0.78686 0.01697 0.75247 0.0
C282 C 0.77845 1.00813 0.77761 0.0
C283 C 0.75265 0.01423 0.7864 0.0
C284 C 0.73563 0.0284 0.76985 0.0
C285 C 0.74119 1.0047 0.81158 0.0
C286 C 0.72186 0.98487 0.81064 0.0
C287 C 0.74296 0.02048 0.83429 0.0
C288 C 0.72473 0.01755 0.85493 0.0
C289 C 0.70411 0.99901 0.85311 0.0
C290 C 0.81201 1.00908 0.73978 0.0
C291 C 0.81132 0.98948 0.72014 0.0
C292 C 0.83379 0.0261 0.74078 0.0
C293 C 0.85382 0.02437 0.72173 0.0
C294 C 0.85225 1.00589 0.70098 0.0
C295 C 0.83115 0.98793 0.70094 0.0
C296 C 0.70354 0.98205 0.83113 0.0
H297 H 0.70378 0.02891 0.66376 0.0
H298 H 0.73984 0.02153 0.69365 0.0
H299 H 0.70183 0.0705 0.75231 0.0
H300 H 0.6649 0.07772 0.72189 0.0
H301 H 0.77598 0.03818 0.7174 0.0
H302 H 0.7154 0.03155 0.77601 0.0
H303 H 0.79138 0.99615 0.78969 0.0
H304 H 0.71963 0.9729 0.79306 0.0
H305 H 0.75709 0.03646 0.83514 0.0
H306 H 0.72572 0.03106 0.87146 0.0
H307 H 0.79434 0.97664 0.71843 0.0
H308 H 0.83435 0.04196 0.75509 0.0
H309 H 0.68823 0.96731 0.82924 0.0
H310 H 0.82948 0.97324 0.68551 0.0
H311 H 0.86969 0.03864 0.72231 0.0
C312 C 0.33323 0.33092 0.98383 0.0
C313 C 0.33065 0.35178 1.00193 0.0
C314 C 0.31656 0.30914 0.98525 0.0
C315 C 0.29699 0.30792 1.00476 0.0
C316 C 0.29426 0.32888 0.0227 0.0
C317 C 0.31093 0.35063 0.02129 0.0
C318 C 0.2789 0.28521 1.00603 0.0
C319 C 0.28832 0.25939 1.00408 0.0
C320 C 0.27111 0.23771 1.00539 0.0
C321 C 0.24371 0.24234 1.00893 0.0
C322 C 0.23421 0.26861 0.01053 0.0
C323 C 0.252 0.28957 1.00909 0.0
C324 C 0.20614 0.27638 0.01309 0.0
C325 C 0.19305 0.28539 0.99035 0.0
C326 C 0.19726 0.28525 0.03782 0.0
C327 C 0.1777 0.30475 0.03962 0.0
C328 C 0.16661 0.31595 0.01669 0.0
C329 C 0.28317 0.21093 1.00308 0.0
C330 C 0.30072 0.20586 0.98216 0.0
C331 C 0.28184 0.19267 0.0239 0.0
C332 C 0.29896 0.17078 0.02457 0.0
C333 C 0.31786 0.16688 1.00452 0.0
C334 C 0.31784 0.18423 0.9829 0.0
C335 C 0.17353 0.30494 0.99211 0.0
H336 H 0.34816 0.33148 0.96855 0.0
H337 H 0.31876 0.29342 0.97094 0.0
H338 H 0.27947 0.32826 0.0381 0.0
H339 H 0.30883 0.36622 0.03577 0.0
H340 H 0.30936 0.25612 1.00207 0.0
H341 H 0.24465 0.30968 0.00998 0.0
H342 H 0.23009 0.22594 0.00996 0.0
H343 H 0.20003 0.27956 0.971 0.0
H344 H 0.20743 0.2792 0.05563 0.0
H345 H 0.17247 0.31221 0.05895 0.0
H346 H 0.30221 0.21956 0.96582 0.0
H347 H 0.26884 0.19624 0.04047 0.0
H348 H 0.1656 0.31298 0.97397 0.0
H349 H 0.33167 0.18154 0.96684 0.0
H350 H 0.2984 0.15777 0.0415 0.0
C351 C 0.33168 0.691 0.07038 0.0
C352 C 0.32828 0.66543 0.0603 0.0
C353 C 0.31309 0.7106 0.06497 0.0
C354 C 0.29114 0.70503 0.04893 0.0
C355 C 0.28685 0.67884 0.04076 0.0
C356 C 0.30512 0.65923 0.04659 0.0
C357 C 0.27489 0.72658 0.0375 0.0
C358 C 0.28681 0.75006 0.02912 0.0
C359 C 0.27303 0.76848 0.01376 0.0
C360 C 0.24674 0.76297 1.00608 0.0
C361 C 0.23443 0.73952 0.01495 0.0
C362 C 0.24839 0.72219 0.03129 0.0
C363 C 0.20828 0.7301 1.00575 0.0
C364 C 0.18637 0.73224 0.02256 0.0
C365 C 0.20742 0.71157 0.98511 0.0
C366 C 0.18594 0.69437 0.98241 0.0
C367 C 0.16471 0.69534 1.00024 0.0
C368 C 0.28798 0.7922 1.00519 0.0
C369 C 0.28995 0.81395 0.02225 0.0
C370 C 0.30605 0.79005 0.98429 0.0
C371 C 0.3264 0.80855 0.98125 0.0
C372 C 0.32936 0.82961 0.99918 0.0
C373 C 0.31027 0.83251 0.01921 0.0
C374 C 0.16471 0.71524 0.01968 0.0
H375 H 0.34938 0.69611 0.08118 0.0
H376 H 0.31667 0.7304 0.07214 0.0
H377 H 0.2705 0.6737 0.02803 0.0
H378 H 0.30222 0.63973 0.03831 0.0
H379 H 0.30746 0.75359 0.03333 0.0
H380 H 0.23883 0.70426 0.03796 0.0
H381 H 0.23627 0.77638 0.99315 0.0
H382 H 0.1869 0.74566 0.0392 0.0
H383 H 0.22438 0.70892 0.9724 0.0
H384 H 0.18648 0.67954 0.96702 0.0
H385 H 0.27687 0.8156 0.03906 0.0
H386 H 0.30545 0.77307 0.97132 0.0
H387 H 0.1488 0.71649 0.03387 0.0
H388 H 0.31194 0.8482 0.03361 0.0
H389 H 0.34038 0.80581 0.96534 0.0
C390 C 0.69441 0.33169 1.00943 0.0
C391 C 0.674 0.32734 0.0276 0.0
C392 C 0.7147 0.3135 1.00673 0.0
C393 C 0.71502 0.29051 0.02212 0.0
C394 C 0.69453 0.28596 0.04021 0.0
C395 C 0.67412 0.30428 0.04293 0.0
C396 C 0.73621 0.27097 0.01817 0.0
C397 C 0.76224 0.2793 0.01503 0.0
C398 C 0.78218 0.26156 1.00795 0.0
C399 C 0.77594 0.23453 1.00461 0.0
C400 C 0.74959 0.22597 1.00813 0.0
C401 C 0.73013 0.24433 0.01509 0.0
C402 C 0.74034 0.19868 1.00319 0.0
C403 C 0.7243 0.19406 0.98104 0.0
C404 C 0.74 0.18034 0.02396 0.0
C405 C 0.72264 0.15878 0.02333 0.0
C406 C 0.70498 0.15544 1.00211 0.0
C407 C 0.80858 0.27316 1.00299 0.0
C408 C 0.81138 0.29104 0.98197 0.0
C409 C 0.82783 0.2729 0.02291 0.0
C410 C 0.84859 0.29123 0.02258 0.0
C411 C 0.85028 0.31043 1.0025 0.0
C412 C 0.83192 0.30946 0.98173 0.0
C413 C 0.70678 0.17275 0.98052 0.0
H414 H 0.69447 0.34901 0.99691 0.0
H415 H 0.72985 0.31717 0.99214 0.0
H416 H 0.6944 0.26836 0.05232 0.0
H417 H 0.65862 0.30056 0.05713 0.0
H418 H 0.767 0.30002 0.01756 0.0
H419 H 0.70981 0.23791 0.01696 0.0
H420 H 0.79104 0.22064 0.99866 0.0
H421 H 0.7237 0.20827 0.96507 0.0
H422 H 0.75154 0.18389 0.0416 0.0
H423 H 0.7217 0.14586 0.04032 0.0
H424 H 0.79647 0.29206 0.96668 0.0
H425 H 0.8257 0.2599 0.03973 0.0
H426 H 0.69374 0.17054 0.96374 0.0
H427 H 0.83286 0.32361 0.96575 0.0
H428 H 0.86232 0.29145 0.03895 0.0
C429 C 0.70325 0.68436 0.98825 0.0
C430 C 0.68088 0.69004 0.97292 0.0
C431 C 0.72449 0.70152 0.98871 0.0
C432 C 0.72388 0.72491 0.97397 0.0
C433 C 0.70194 0.73027 0.95784 0.0
C434 C 0.68053 0.71294 0.95735 0.0
C435 C 0.7444 0.74496 0.97876 0.0
C436 C 0.77063 0.73736 0.98236 0.0
C437 C 0.78908 0.75465 0.99347 0.0
C438 C 0.78124 0.78067 1.00009 0.0
C439 C 0.75489 0.78873 0.9954 0.0
C440 C 0.73694 0.77079 0.98456 0.0
C441 C 0.74377 0.81463 1.00328 0.0
C442 C 0.72576 0.81532 0.02437 0.0
C443 C 0.74367 0.83548 0.98507 0.0
C444 C 0.7248 0.85568 0.98691 0.0
C445 C 0.70536 0.85518 1.00678 0.0
C446 C 0.81512 0.74302 1.00011 0.0
C447 C 0.81658 0.72512 0.02127 0.0
C448 C 0.83536 0.74286 0.98122 0.0
C449 C 0.85586 0.72425 0.9827 0.0
C450 C 0.85627 0.70507 1.00284 0.0
C451 C 0.83685 0.70636 0.0226 0.0
C452 C 0.70672 0.83529 0.02606 0.0
H453 H 0.70389 0.66723 1.00101 0.0
H454 H 0.74072 0.69717 1.00192 0.0
H455 H 0.70103 0.74821 0.94628 0.0
H456 H 0.66357 0.71766 0.94524 0.0
H457 H 0.77644 0.71723 0.97793 0.0
H458 H 0.71645 0.77659 0.98237 0.0
H459 H 0.79506 0.79403 1.0094 0.0
H460 H 0.72493 0.7991 0.03826 0.0
H461 H 0.75671 0.83498 0.96815 0.0
H462 H 0.72429 0.87064 0.97167 0.0
H463 H 0.80084 0.7243 0.03568 0.0
H464 H 0.83424 0.7558 0.96424 0.0
H465 H 0.69235 0.83453 0.04183 0.0
H466 H 0.83674 0.69217 0.03858 0.0
H467 H 0.8704 0.72378 0.96706 0.0
C468 C 0.44163 0.84533 0.80817 0.0
C469 C 0.44684 0.84055 0.83495 0.0
C470 C 0.44389 0.8249 0.78977 0.0
C471 C 0.45244 0.79964 0.79776 0.0
C472 C 0.45397 0.79437 0.82503 0.0
C473 C 0.45061 0.81447 0.84336 0.0
C474 C 0.46431 0.78072 0.77846 0.0
C475 C 0.47723 0.79016 0.7559 0.0
C476 C 0.49351 0.77383 0.74065 0.0
C477 C 0.49805 0.74753 0.74885 0.0
C478 C 0.48477 0.73758 0.77132 0.0
C479 C 0.46694 0.75393 0.78478 0.0
C480 C 0.49117 0.71193 0.78421 0.0
C481 C 0.47051 0.69463 0.79069 0.0
C482 C 0.51554 0.70873 0.7971 0.0
C483 C 0.51836 0.69032 0.8177 0.0
C484 C 0.49678 0.67491 0.82593 0.0
C485 C 0.50578 0.78603 0.71696 0.0
C486 C 0.49435 0.78214 0.69203 0.0
C487 C 0.52338 0.80719 0.72031 0.0
C488 C 0.5281 0.82506 0.69974 0.0
C489 C 0.51522 0.82234 0.67527 0.0
C490 C 0.49906 0.80003 0.67139 0.0
C491 C 0.47325 0.67642 0.8113 0.0
H492 H 0.43803 0.86516 0.80108 0.0
H493 H 0.44093 0.82954 0.76914 0.0
H494 H 0.46021 0.77545 0.8326 0.0
H495 H 0.45352 0.80997 0.86407 0.0
H496 H 0.47577 0.81077 0.75049 0.0
H497 H 0.45657 0.746 0.80167 0.0
H498 H 0.51187 0.7352 0.73821 0.0
H499 H 0.45142 0.69682 0.78134 0.0
H500 H 0.53163 0.72213 0.79297 0.0
H501 H 0.53677 0.68966 0.8285 0.0
H502 H 0.48012 0.76649 0.68912 0.0
H503 H 0.53204 0.81097 0.7395 0.0
H504 H 0.45641 0.66449 0.81672 0.0
H505 H 0.48862 0.79728 0.65295 0.0
H506 H 0.54107 0.84162 0.70338 0.0
C507 C 0.21777 0.50657 0.85418 0.0
C508 C 0.19722 0.48819 0.85226 0.0
C509 C 0.23581 0.50927 0.83367 0.0
C510 C 0.23374 0.4935 0.81095 0.0
C511 C 0.21375 0.47441 0.80948 0.0
C512 C 0.19558 0.47183 0.82996 0.0
C513 C 0.25165 0.49798 0.78839 0.0
C514 C 0.27828 0.50309 0.79277 0.0
C515 C 0.29517 0.50964 0.77196 0.0
C516 C 0.28515 0.5105 0.74582 0.0
C517 C 0.2582 0.50456 0.74109 0.0
C518 C 0.24184 0.4986 0.76263 0.0
C519 C 0.24546 0.50507 0.7145 0.0
C520 C 0.24436 0.52836 0.69949 0.0
C521 C 0.22936 0.48375 0.70694 0.0
C522 C 0.21114 0.48628 0.68636 0.0
C523 C 0.20867 0.51011 0.67246 0.0
C524 C 0.32279 0.51566 0.77957 0.0
C525 C 0.32747 0.53838 0.7948 0.0
C526 C 0.34147 0.49519 0.78025 0.0
C527 C 0.36325 0.49656 0.79737 0.0
C528 C 0.36654 0.51827 0.81444 0.0
C529 C 0.34901 0.53964 0.81208 0.0
C530 C 0.22622 0.53081 0.67856 0.0
H531 H 0.2192 0.51968 0.87101 0.0
H532 H 0.25076 0.52443 0.8352 0.0
H533 H 0.21195 0.46172 0.79237 0.0
H534 H 0.18001 0.45733 0.82819 0.0
H535 H 0.28603 0.50217 0.81272 0.0
H536 H 0.22097 0.49533 0.75936 0.0
H537 H 0.29802 0.51558 0.72955 0.0
H538 H 0.25619 0.54525 0.70506 0.0
H539 H 0.22973 0.46553 0.71811 0.0
H540 H 0.19838 0.46976 0.68183 0.0
H541 H 0.31305 0.55415 0.7952 0.0
H542 H 0.33793 0.47712 0.76941 0.0
H543 H 0.22488 0.54942 0.66816 0.0
H544 H 0.35116 0.55681 0.82463 0.0
H545 H 0.37633 0.47972 0.79871 0.0
C546 C 0.53088 0.2161 0.85496 0.0
C547 C 0.54459 0.19246 0.85084 0.0
C548 C 0.52869 0.23452 0.83473 0.0
C549 C 0.54051 0.22986 0.81004 0.0
C550 C 0.55533 0.20671 0.80638 0.0
C551 C 0.55721 0.18807 0.82658 0.0
C552 C 0.53556 0.24828 0.78785 0.0
C553 C 0.53364 0.27535 0.7926 0.0
C554 C 0.52476 0.29272 0.77309 0.0
C555 C 0.51914 0.28299 0.74749 0.0
C556 C 0.52197 0.25568 0.74216 0.0
C557 C 0.53003 0.23869 0.76253 0.0
C558 C 0.51561 0.24338 0.71623 0.0
C559 C 0.49639 0.22345 0.71517 0.0
C560 C 0.53225 0.24687 0.69436 0.0
C561 C 0.53075 0.22965 0.6726 0.0
C562 C 0.51269 0.20851 0.6724 0.0
C563 C 0.51935 0.32006 0.78199 0.0
C564 C 0.49684 0.32446 0.79758 0.0
C565 C 0.54006 0.33837 0.7832 0.0
C566 C 0.53899 0.35971 0.80087 0.0
C567 C 0.5174 0.36281 0.81808 0.0
C568 C 0.49592 0.34551 0.81549 0.0
C569 C 0.49491 0.20629 0.69358 0.0
H570 H 0.5206 0.21972 0.87335 0.0
H571 H 0.51663 0.25182 0.83812 0.0
H572 H 0.565 0.20273 0.78774 0.0
H573 H 0.56801 0.16996 0.82307 0.0
H574 H 0.53806 0.283 0.81212 0.0
H575 H 0.5311 0.21766 0.75875 0.0
H576 H 0.51196 0.29621 0.73232 0.0
H577 H 0.48345 0.22016 0.73186 0.0
H578 H 0.54758 0.26171 0.69487 0.0
H579 H 0.54479 0.23195 0.65669 0.0
H580 H 0.48094 0.31021 0.79762 0.0
H581 H 0.558 0.33494 0.77212 0.0
H582 H 0.48038 0.19066 0.69391 0.0
H583 H 0.47887 0.34753 0.82819 0.0
H584 H 0.55591 0.37262 0.80242 0.0
C585 C 0.85378 0.46506 0.79926 0.0
C586 C 0.84878 0.45217 0.82316 0.0
C587 C 0.83312 0.4712 0.7823 0.0
C588 C 0.80704 0.46407 0.78861 0.0
C589 C 0.80257 0.44859 0.81122 0.0
C590 C 0.82327 0.44295 0.82853 0.0
C591 C 0.78477 0.47613 0.77377 0.0
C592 C 0.78779 0.48238 0.74708 0.0
C593 C 0.77063 0.4999 0.73444 0.0
C594 C 0.74816 0.50932 0.74805 0.0
C595 C 0.74367 0.50145 0.77451 0.0
C596 C 0.76233 0.48528 0.78713 0.0
C597 C 0.72059 0.51043 0.79039 0.0
C598 C 0.72479 0.52349 0.81454 0.0
C599 C 0.69505 0.50167 0.78438 0.0
C600 C 0.67449 0.50463 0.80276 0.0
C601 C 0.67897 0.51652 0.82759 0.0
C602 C 0.77997 0.51033 0.70874 0.0
C603 C 0.79741 0.53186 0.70899 0.0
C604 C 0.77966 0.49378 0.68649 0.0
C605 C 0.79761 0.49762 0.66578 0.0
C606 C 0.81662 0.51781 0.66709 0.0
C607 C 0.81562 0.5355 0.68847 0.0
C608 C 0.70429 0.52659 0.8328 0.0
H609 H 0.87323 0.4727 0.79488 0.0
H610 H 0.83755 0.48351 0.76543 0.0
H611 H 0.78289 0.44217 0.81636 0.0
H612 H 0.81907 0.43284 0.84689 0.0
H613 H 0.80486 0.47517 0.73641 0.0
H614 H 0.75975 0.48078 0.80787 0.0
H615 H 0.73486 0.52306 0.73852 0.0
H616 H 0.74434 0.53032 0.81977 0.0
H617 H 0.69135 0.49108 0.76618 0.0
H618 H 0.65539 0.49641 0.79797 0.0
H619 H 0.79866 0.54442 0.72625 0.0
H620 H 0.76711 0.47651 0.68619 0.0
H621 H 0.7085 0.53643 0.8513 0.0
H622 H 0.82974 0.55144 0.68996 0.0
H623 H 0.79788 0.48353 0.64971 0.0
C624 C 0.49863 0.18459 0.19179 0.0
C625 C 0.51622 0.18819 0.17068 0.0
C626 C 0.49876 0.20184 0.21316 0.0
C627 C 0.51636 0.22314 0.21381 0.0
C628 C 0.53384 0.22693 0.19265 0.0
C629 C 0.53379 0.20957 0.17125 0.0
C630 C 0.51549 0.24197 0.23602 0.0
C631 C 0.51356 0.23295 0.262 0.0
C632 C 0.51053 0.25057 0.28315 0.0
C633 C 0.50973 0.27808 0.27795 0.0
C634 C 0.51152 0.28723 0.25154 0.0
C635 C 0.51472 0.26899 0.23103 0.0
C636 C 0.50851 0.31522 0.24335 0.0
C637 C 0.486 0.32222 0.22872 0.0
C638 C 0.53071 0.33173 0.24216 0.0
C639 C 0.53094 0.35379 0.22533 0.0
C640 C 0.50916 0.35942 0.20899 0.0
C641 C 0.50728 0.2387 0.30989 0.0
C642 C 0.48695 0.22027 0.3139 0.0
C643 C 0.5273 0.24062 0.32897 0.0
C644 C 0.52774 0.22336 0.35076 0.0
C645 C 0.5083 0.20369 0.35376 0.0
C646 C 0.48745 0.20303 0.33547 0.0
C647 C 0.48635 0.34395 0.21167 0.0
H648 H 0.48451 0.16858 0.19166 0.0
H649 H 0.48468 0.19882 0.22894 0.0
H650 H 0.54767 0.24319 0.19277 0.0
H651 H 0.54773 0.21263 0.15536 0.0
H652 H 0.51429 0.2119 0.26582 0.0
H653 H 0.51556 0.27595 0.21079 0.0
H654 H 0.5069 0.29196 0.29395 0.0
H655 H 0.46886 0.30948 0.22875 0.0
H656 H 0.54859 0.32635 0.25254 0.0
H657 H 0.54884 0.36528 0.22369 0.0
H658 H 0.4714 0.21815 0.29938 0.0
H659 H 0.5435 0.2542 0.32611 0.0
H660 H 0.46914 0.34794 0.19964 0.0
H661 H 0.47185 0.18859 0.33738 0.0
H662 H 0.54414 0.22446 0.36441 0.0
C663 C 0.84198 0.47178 0.21066 0.0
C664 C 0.84189 0.48649 0.18718 0.0
C665 C 0.82227 0.47574 0.2295 0.0
C666 C 0.80229 0.49442 0.225 0.0
C667 C 0.80199 0.50864 0.20128 0.0
C668 C 0.82159 0.50477 0.18263 0.0
C669 C 0.783 0.50115 0.24564 0.0
C670 C 0.79149 0.5063 0.27128 0.0
C671 C 0.77436 0.51719 0.29004 0.0
C672 C 0.74803 0.52317 0.28281 0.0
C673 C 0.73919 0.51701 0.257 0.0
C674 C 0.75677 0.50582 0.23891 0.0
C675 C 0.71256 0.52302 0.24658 0.0
C676 C 0.69615 0.50178 0.23979 0.0
C677 C 0.70817 0.54754 0.23447 0.0
C678 C 0.6894 0.55012 0.21425 0.0
C679 C 0.67475 0.52814 0.20557 0.0
C680 C 0.78605 0.52275 0.31627 0.0
C681 C 0.79531 0.50132 0.33115 0.0
C682 C 0.79598 0.548 0.32175 0.0
C683 C 0.81632 0.55137 0.34029 0.0
C684 C 0.8274 0.52947 0.35347 0.0
C685 C 0.81576 0.50456 0.34936 0.0
C686 C 0.67751 0.50427 0.21954 0.0
H687 H 0.85739 0.4575 0.21455 0.0
H688 H 0.82283 0.46454 0.24769 0.0
H689 H 0.78723 0.52365 0.19759 0.0
H690 H 0.82136 0.51694 0.16506 0.0
H691 H 0.81202 0.5031 0.2764 0.0
H692 H 0.75017 0.50167 0.21894 0.0
H693 H 0.73478 0.53223 0.29689 0.0
H694 H 0.69966 0.48246 0.24823 0.0
H695 H 0.72099 0.56406 0.23882 0.0
H696 H 0.68745 0.569 0.20447 0.0
H697 H 0.78852 0.48153 0.32677 0.0
H698 H 0.78964 0.56477 0.31011 0.0
H699 H 0.66689 0.48678 0.21347 0.0
H700 H 0.82369 0.48704 0.35863 0.0
H701 H 0.82419 0.57098 0.3433 0.0
C702 C 0.50053 0.82427 0.1902 0.0
C703 C 0.51838 0.84529 0.19258 0.0
C704 C 0.50042 0.80404 0.20869 0.0
C705 C 0.51805 0.80449 0.23001 0.0
C706 C 0.53575 0.8256 0.23265 0.0
C707 C 0.53594 0.84587 0.21401 0.0
C708 C 0.51713 0.78326 0.24982 0.0
C709 C 0.51539 0.757 0.24179 0.0
C710 C 0.51171 0.73665 0.2601 0.0
C711 C 0.51029 0.74292 0.2874 0.0
C712 C 0.5122 0.76967 0.29559 0.0
C713 C 0.51589 0.78939 0.2766 0.0
C714 C 0.50894 0.77905 0.32322 0.0
C715 C 0.48648 0.79414 0.32937 0.0
C716 C 0.531 0.78084 0.3399 0.0
C717 C 0.53116 0.79859 0.36126 0.0
C718 C 0.50944 0.81528 0.36605 0.0
C719 C 0.50834 0.70973 0.2488 0.0
C720 C 0.48722 0.70535 0.23129 0.0
C721 C 0.52943 0.69175 0.24874 0.0
C722 C 0.53011 0.67085 0.23042 0.0
C723 C 0.50991 0.6678 0.21152 0.0
C724 C 0.48804 0.68478 0.21285 0.0
C725 C 0.48675 0.81208 0.35042 0.0
H726 H 0.48638 0.82362 0.17419 0.0
H727 H 0.48618 0.78827 0.20657 0.0
H728 H 0.54956 0.82627 0.24895 0.0
H729 H 0.55002 0.86176 0.21617 0.0
H730 H 0.51652 0.75235 0.22091 0.0
H731 H 0.51674 0.8099 0.28272 0.0
H732 H 0.50698 0.7275 0.30181 0.0
H733 H 0.46946 0.79369 0.31645 0.0
H734 H 0.54887 0.77013 0.33516 0.0
H735 H 0.54899 0.80058 0.37285 0.0
H736 H 0.47095 0.71919 0.23051 0.0
H737 H 0.54631 0.69504 0.26142 0.0
H738 H 0.46955 0.82431 0.35376 0.0
H739 H 0.47196 0.68277 0.19893 0.0
H740 H 0.54727 0.65814 0.22995 0.0
C741 C 0.21015 0.53061 0.16093 0.0
C742 C 0.1867 0.54493 0.16373 0.0
C743 C 0.22754 0.52834 0.18202 0.0
C744 C 0.22206 0.54071 0.20629 0.0
C745 C 0.1992 0.55622 0.20861 0.0
C746 C 0.18155 0.55816 0.18753 0.0
C747 C 0.23924 0.53552 0.2294 0.0
C748 C 0.26635 0.53233 0.22586 0.0
C749 C 0.28241 0.52264 0.24609 0.0
C750 C 0.27135 0.51757 0.27122 0.0
C751 C 0.24412 0.52214 0.27543 0.0
C752 C 0.22837 0.53083 0.25437 0.0
C753 C 0.2305 0.51681 0.30081 0.0
C754 C 0.21619 0.49331 0.30381 0.0
C755 C 0.22574 0.53763 0.31848 0.0
C756 C 0.20622 0.53543 0.338 0.0
C757 C 0.19074 0.51245 0.34007 0.0
C758 C 0.30986 0.51615 0.23842 0.0
C759 C 0.31398 0.49389 0.22236 0.0
C760 C 0.3291 0.53604 0.23872 0.0
C761 C 0.35111 0.53451 0.22198 0.0
C762 C 0.35402 0.5133 0.20424 0.0
C763 C 0.33573 0.49253 0.20539 0.0
C764 C 0.19662 0.49111 0.32324 0.0
H765 H 0.2143 0.51984 0.14292 0.0
H766 H 0.2446 0.51572 0.17963 0.0
H767 H 0.19462 0.5663 0.22689 0.0
H768 H 0.16355 0.5694 0.19002 0.0
H769 H 0.27504 0.53633 0.20671 0.0
H770 H 0.2073 0.53282 0.25731 0.0
H771 H 0.28353 0.5098 0.28697 0.0
H772 H 0.21898 0.47722 0.29001 0.0
H773 H 0.23589 0.55626 0.31604 0.0
H774 H 0.20216 0.55238 0.35036 0.0
H775 H 0.29906 0.47866 0.22116 0.0
H776 H 0.32597 0.5538 0.25019 0.0
H777 H 0.18545 0.47296 0.32446 0.0
H778 H 0.33757 0.47576 0.19225 0.0
H779 H 0.36478 0.5509 0.22155 0.0
C780 C 0.82444 0.83075 0.4442 0.0
C781 C 0.81976 0.85524 0.45625 0.0
C782 C 0.80756 0.80954 0.44893 0.0
C783 C 0.78609 0.81242 0.46625 0.0
C784 C 0.78046 0.8376 0.47658 0.0
C785 C 0.79698 0.85883 0.4714 0.0
C786 C 0.77148 0.78908 0.47623 0.0
C787 C 0.78472 0.76548 0.48194 0.0
C788 C 0.77221 0.74467 0.49542 0.0
C789 C 0.74608 0.7486 0.50477 0.0
C790 C 0.73257 0.77232 0.49867 0.0
C791 C 0.74509 0.79156 0.48347 0.0
C792 C 0.70649 0.78008 0.50942 0.0
C793 C 0.68444 0.77949 0.49262 0.0
C794 C 0.70608 0.79732 0.53118 0.0
C795 C 0.6853 0.81527 0.53463 0.0
C796 C 0.66428 0.81622 0.51655 0.0
C797 C 0.7879 0.71998 0.50009 0.0
C798 C 0.80439 0.71035 0.47985 0.0
C799 C 0.78937 0.70784 0.52504 0.0
C800 C 0.8079 0.68765 0.52988 0.0
C801 C 0.82551 0.6794 0.50996 0.0
C802 C 0.82303 0.69062 0.48477 0.0
C803 C 0.66347 0.79721 0.49626 0.0
H804 H 0.84196 0.82766 0.43238 0.0
H805 H 0.81212 0.79061 0.44014 0.0
H806 H 0.76446 0.84068 0.49037 0.0
H807 H 0.79322 0.87744 0.48124 0.0
H808 H 0.80543 0.76372 0.47706 0.0
H809 H 0.73446 0.80951 0.47864 0.0
H810 H 0.73643 0.73355 0.51643 0.0
H811 H 0.68462 0.76713 0.47517 0.0
H812 H 0.72314 0.7988 0.54396 0.0
H813 H 0.68638 0.82934 0.55069 0.0
H814 H 0.8035 0.71878 0.46023 0.0
H815 H 0.77713 0.71478 0.54111 0.0
H816 H 0.64765 0.7974 0.4819 0.0
H817 H 0.83577 0.68431 0.46881 0.0
H818 H 0.80921 0.67926 0.54949 0.0
C819 C 0.84917 0.20021 0.46996 0.0
C820 C 0.84029 0.17855 0.45511 0.0
C821 C 0.83279 0.22162 0.47458 0.0
C822 C 0.80704 0.22202 0.46446 0.0
C823 C 0.79882 0.20136 0.44779 0.0
C824 C 0.81528 0.17968 0.44328 0.0
C825 C 0.78797 0.24133 0.47532 0.0
C826 C 0.7961 0.26683 0.48203 0.0
C827 C 0.78103 0.2827 0.49892 0.0
C828 C 0.75645 0.27326 0.50826 0.0
C829 C 0.74722 0.24828 0.49983 0.0
C830 C 0.7632 0.23265 0.4836 0.0
C831 C 0.72203 0.23613 0.50842 0.0
C832 C 0.72076 0.2228 0.53267 0.0
C833 C 0.70306 0.23035 0.48907 0.0
C834 C 0.68455 0.21029 0.493 0.0
C835 C 0.68436 0.19544 0.51651 0.0
C836 C 0.79363 0.30753 0.50803 0.0
C837 C 0.8088 0.30725 0.53123 0.0
C838 C 0.79748 0.32813 0.48989 0.0
C839 C 0.8171 0.34715 0.4941 0.0
C840 C 0.83367 0.34582 0.51639 0.0
C841 C 0.8286 0.32616 0.53537 0.0
C842 C 0.70204 0.20277 0.53674 0.0
H843 H 0.8681 0.19983 0.47985 0.0
H844 H 0.83971 0.23679 0.48795 0.0
H845 H 0.77919 0.20131 0.43939 0.0
H846 H 0.80807 0.16338 0.4315 0.0
H847 H 0.81523 0.2738 0.47549 0.0
H848 H 0.75689 0.21274 0.47897 0.0
H849 H 0.74483 0.28506 0.52176 0.0
H850 H 0.73557 0.22635 0.54766 0.0
H851 H 0.70409 0.23976 0.4699 0.0
H852 H 0.67169 0.20527 0.47671 0.0
H853 H 0.80679 0.29117 0.54517 0.0
H854 H 0.78667 0.32832 0.47145 0.0
H855 H 0.70224 0.19227 0.55534 0.0
H856 H 0.84068 0.3247 0.55294 0.0
H857 H 0.82049 0.36179 0.47892 0.0
C858 C 0.20392 0.8387 0.46561 0.0
C859 C 0.17896 0.8337 0.47657 0.0
C860 C 0.22416 0.82016 0.46789 0.0
C861 C 0.22019 0.79654 0.48192 0.0
C862 C 0.19479 0.79105 0.49162 0.0
C863 C 0.17438 0.8091 0.48847 0.0
C864 C 0.24264 0.7787 0.4884 0.0
C865 C 0.26792 0.78891 0.49283 0.0
C866 C 0.28874 0.77285 0.50162 0.0
C867 C 0.28359 0.74607 0.50769 0.0
C868 C 0.25815 0.73558 0.5031 0.0
C869 C 0.23843 0.75176 0.49256 0.0
C870 C 0.24983 0.70855 0.51054 0.0
C871 C 0.24838 0.68893 0.491 0.0
C872 C 0.23493 0.70539 0.5337 0.0
C873 C 0.21739 0.68422 0.53638 0.0
C874 C 0.21445 0.6656 0.516 0.0
C875 C 0.31507 0.78562 0.50464 0.0
C876 C 0.32469 0.8013 0.48385 0.0
C877 C 0.32808 0.7866 0.52914 0.0
C878 C 0.34912 0.80429 0.53315 0.0
C879 C 0.35726 0.82142 0.51281 0.0
C880 C 0.34534 0.81904 0.48791 0.0
C881 C 0.23105 0.66754 0.49381 0.0
H882 H 0.2083 0.85738 0.45626 0.0
H883 H 0.24313 0.82482 0.45934 0.0
H884 H 0.19069 0.77336 0.5028 0.0
H885 H 0.1552 0.80404 0.49629 0.0
H886 H 0.27142 0.80984 0.49041 0.0
H887 H 0.21926 0.74323 0.48852 0.0
H888 H 0.29904 0.73363 0.51564 0.0
H889 H 0.25894 0.69135 0.47258 0.0
H890 H 0.23507 0.72063 0.5487 0.0
H891 H 0.20516 0.68315 0.55386 0.0
H892 H 0.31516 0.8009 0.46471 0.0
H893 H 0.32094 0.77501 0.54559 0.0
H894 H 0.22922 0.65364 0.47767 0.0
H895 H 0.35149 0.83153 0.47171 0.0
H896 H 0.35802 0.8056 0.55254 0.0
C897 C 0.18931 0.18259 0.56103 0.0
C898 C 0.16507 0.18681 0.54836 0.0
C899 C 0.20971 0.20085 0.55829 0.0
C900 C 0.20629 0.22338 0.54244 0.0
C901 C 0.18155 0.22799 0.53075 0.0
C902 C 0.16112 0.21 0.53386 0.0
C903 C 0.22881 0.24084 0.53597 0.0
C904 C 0.25378 0.2302 0.53091 0.0
C905 C 0.27428 0.24594 0.52114 0.0
C906 C 0.26953 0.27296 0.51587 0.0
C907 C 0.24444 0.28386 0.52134 0.0
C908 C 0.22471 0.26781 0.53197 0.0
C909 C 0.23646 0.3112 0.51466 0.0
C910 C 0.23759 0.33089 0.53412 0.0
C911 C 0.21988 0.31506 0.49275 0.0
C912 C 0.20332 0.33714 0.4913 0.0
C913 C 0.20302 0.35597 0.51168 0.0
C914 C 0.29968 0.23246 0.51569 0.0
C915 C 0.31637 0.22607 0.53687 0.0
C916 C 0.30338 0.21954 0.49145 0.0
C917 C 0.32252 0.1997 0.48882 0.0
C918 C 0.33832 0.19219 0.51045 0.0
C919 C 0.33556 0.20631 0.53425 0.0
C920 C 0.2212 0.35318 0.53254 0.0
H921 H 0.19268 0.16482 0.57242 0.0
H922 H 0.22836 0.19695 0.56793 0.0
H923 H 0.17827 0.24476 0.51794 0.0
H924 H 0.14272 0.21346 0.52354 0.0
H925 H 0.25715 0.20923 0.53345 0.0
H926 H 0.20557 0.27637 0.53623 0.0
H927 H 0.2849 0.28513 0.50742 0.0
H928 H 0.24951 0.32799 0.55163 0.0
H929 H 0.21808 0.29982 0.47786 0.0
H930 H 0.18985 0.33884 0.47479 0.0
H931 H 0.31334 0.23511 0.55601 0.0
H932 H 0.29027 0.22356 0.47505 0.0
H933 H 0.22142 0.36723 0.54865 0.0
H934 H 0.34707 0.20099 0.55145 0.0
H935 H 0.32429 0.18959 0.47007 0.0
C936 C 0.99876 0.94386 0.57215 0.0
C937 C 1.00596 0.94065 0.44264 0.0
C938 C 1.00562 0.07039 0.56969 0.0
C939 C 0.01067 0.06869 0.44094 0.0
C940 C 0.9468 0.07234 0.49482 0.0
C941 C 0.9402 0.94465 0.49924 0.0
C942 C 0.07276 0.06579 0.5131 0.0
C943 C 0.06674 0.93863 0.50739 0.0
C944 C 0.07215 1.00498 0.44381 0.0
C945 C 0.9444 1.00781 0.43904 0.0
C946 C 0.06664 1.00453 0.57326 0.0
C947 C 0.93983 1.0087 0.56835 0.0
Eu948 Eu 1.00389 0.9555 0.50716 0.0
O949 O 0.9828 0.98325 0.48265 0.0
O950 O 0.02783 0.9813 0.53094 0.0
Eu951 Eu 0.95574 1.00811 0.50411 0.0
Eu952 Eu 0.05641 1.0029 0.50792 0.0
O953 O 0.98025 0.98354 0.52873 0.0
O954 O 0.02931 0.98054 0.48389 0.0
Eu955 Eu 1.00382 1.00665 0.55525 0.0
Eu956 Eu 1.00792 1.00486 0.45618 0.0
O957 O 0.9821 0.0313 0.52832 0.0
O958 O 0.98506 0.02927 0.482 0.0
O959 O 0.03191 0.02757 0.48313 0.0
O960 O 0.0296 0.02774 0.52945 0.0
Eu961 Eu 1.00869 0.0554 0.50548 0.0
O962 O 0.99993 0.93434 0.54742 0.0
O963 O 1.00454 0.93291 0.46792 0.0
O964 O 1.00619 0.07831 0.54445 0.0
O965 O 0.01186 0.07692 0.46604 0.0
O966 O 0.93661 0.04814 0.49722 0.0
O967 O 0.93291 0.96998 0.49954 0.0
O968 O 0.07995 0.04051 0.51181 0.0
O969 O 0.0762 0.96309 0.50622 0.0
O970 O 0.04727 1.00561 0.43535 0.0
O971 O 0.96979 1.00588 0.43219 0.0
O972 O 0.04115 1.00657 0.57918 0.0
O973 O 0.96482 1.00828 0.57645 0.0
O974 O 0.04826 0.07506 0.5106 0.0
O975 O 0.97192 0.07885 0.49864 0.0
O976 O 0.04148 0.93165 0.50905 0.0
O977 O 0.96459 0.93552 0.50276 0.0
O978 O 1.00761 0.96567 0.43457 0.0
O979 O 0.0089 0.04351 0.43333 0.0
O980 O 1.00033 0.96923 0.57867 0.0
O981 O 1.005 0.0453 0.57751 0.0
O982 O 0.93213 1.00889 0.54296 0.0
O983 O 0.93546 1.00891 0.46389 0.0
O984 O 0.07652 1.00182 0.5488 0.0
O985 O 0.07985 1.00356 0.4691 0.0
C986 C 0.50844 0.94023 0.0681 0.0
C987 C 0.50889 0.06777 0.06989 0.0
C988 C 0.50215 0.94172 0.9407 0.0
C989 C 0.51292 0.06885 0.9416 0.0
C990 C 0.57206 1.00201 0.94123 0.0
C991 C 0.57209 1.00458 0.0687 0.0
C992 C 0.44293 1.00608 0.94103 0.0
C993 C 0.44269 1.00216 0.06827 0.0
C994 C 0.44443 0.07059 1.0052 0.0
C995 C 0.57326 0.06731 1.00465 0.0
C996 C 0.44135 0.94287 1.00414 0.0
C997 C 0.57118 0.94006 1.00503 0.0
Eu998 Eu 0.50733 1.00428 0.05515 0.0
O999 O 0.53109 0.02759 0.02872 0.0
O1000 O 0.48379 0.98172 0.02794 0.0
Eu1001 Eu 0.55694 1.00381 1.00499 0.0
Eu1002 Eu 0.45807 1.00639 1.00479 0.0
O1003 O 0.53019 0.98057 0.02825 0.0
O1004 O 0.48455 0.02902 0.02896 0.0
Eu1005 Eu 0.50653 0.95448 1.00447 0.0
Eu1006 Eu 0.50854 0.05513 1.00551 0.0
O1007 O 0.53046 0.9807 0.98095 0.0
O1008 O 0.53091 0.02783 0.98186 0.0
O1009 O 0.48468 0.02952 0.9812 0.0
O1010 O 0.4841 0.98236 0.98157 0.0
Eu1011 Eu 0.50749 1.00514 0.95467 0.0
O1012 O 0.50887 0.9652 0.07646 0.0
O1013 O 0.50743 0.04262 0.07737 0.0
O1014 O 0.50242 0.96674 0.93265 0.0
O1015 O 0.51101 0.04397 0.93321 0.0
O1016 O 0.57948 1.003 0.96648 0.0
O1017 O 0.57955 1.00352 0.04348 0.0
O1018 O 0.43548 1.00637 0.96627 0.0
O1019 O 0.43555 1.00379 0.04302 0.0
O1020 O 0.46974 0.07812 1.00458 0.0
O1021 O 0.54838 0.07618 1.00513 0.0
O1022 O 0.46613 0.93347 1.00447 0.0
O1023 O 0.546 0.93187 1.00451 0.0
O1024 O 0.468 1.0062 0.93265 0.0
O1025 O 0.54698 1.00211 0.93281 0.0
O1026 O 0.46761 1.0026 0.07718 0.0
O1027 O 0.54701 1.00533 0.07708 0.0
O1028 O 0.50964 0.07643 0.04497 0.0
O1029 O 0.51191 0.07687 0.96669 0.0
O1030 O 0.50701 0.93237 0.04303 0.0
O1031 O 0.50467 0.93317 0.96545 0.0
O1032 O 0.57879 0.96518 1.00535 0.0
O1033 O 0.5803 0.04194 1.00465 0.0
O1034 O 0.43493 0.96839 1.00388 0.0
O1035 O 0.4362 0.04557 1.00585 0.0
C1036 C 1.00336 0.4431 0.07082 0.0
C1037 C 1.00559 0.43814 0.94295 0.0
C1038 C 1.00436 0.57233 0.06527 0.0
C1039 C 1.00534 0.56699 0.93766 0.0
C1040 C 0.94226 0.57127 1.00208 0.0
C1041 C 0.93941 0.44178 1.00469 0.0
C1042 C 0.06995 0.56774 1.00178 0.0
C1043 C 0.06635 0.43853 1.00575 0.0
C1044 C 0.06914 0.49972 0.94175 0.0
C1045 C 0.94152 0.49843 0.93992 0.0
C1046 C 0.06661 0.51055 0.06945 0.0
C1047 C 0.93929 0.50378 0.06646 0.0
Eu1048 Eu 1.00329 0.45535 1.00632 0.0
O1049 O 0.98109 0.4815 0.98144 0.0
O1050 O 0.02718 0.48176 0.02971 0.0
Eu1051 Eu 0.95442 0.50623 1.00318 0.0
Eu1052 Eu 0.05458 0.50352 1.00545 0.0
O1053 O 0.98008 0.48337 0.02807 0.0
O1054 O 0.02747 0.48048 0.9824 0.0
Eu1055 Eu 1.00332 0.50713 0.05444 0.0
Eu1056 Eu 1.00519 0.50306 0.95412 0.0
O1057 O 0.98101 0.53003 0.02633 0.0
O1058 O 0.98157 0.52827 0.97891 0.0
O1059 O 0.02903 0.52663 0.98027 0.0
O1060 O 0.02767 0.52838 0.02694 0.0
Eu1061 Eu 1.00566 0.55465 1.00197 0.0
O1062 O 1.00328 0.43441 0.04593 0.0
O1063 O 1.00303 0.43136 0.96831 0.0
O1064 O 1.00625 0.57839 0.03971 0.0
O1065 O 1.0068 0.57566 0.96249 0.0
O1066 O 0.93337 0.54635 1.00283 0.0
O1067 O 0.93163 0.46705 1.00306 0.0
O1068 O 0.0775 0.54238 1.00274 0.0
O1069 O 0.07573 0.46324 1.00729 0.0
O1070 O 0.04436 0.50141 0.93306 0.0
O1071 O 0.96666 0.49763 0.93216 0.0
O1072 O 0.04146 0.51011 0.07701 0.0
O1073 O 0.96403 0.50509 0.07532 0.0
O1074 O 0.04496 0.57605 1.00164 0.0
O1075 O 0.96764 0.57816 1.00133 0.0
O1076 O 0.04098 0.43196 1.00499 0.0
O1077 O 0.96438 0.43379 1.0065 0.0
O1078 O 1.00732 0.4629 0.93393 0.0
O1079 O 1.00393 0.54158 0.93045 0.0
O1080 O 1.00354 0.46856 0.07801 0.0
O1081 O 1.00224 0.54774 0.07488 0.0
O1082 O 0.93185 0.50473 0.04127 0.0
O1083 O 0.93309 0.50311 0.96438 0.0
O1084 O 0.07539 0.50795 0.04473 0.0
O1085 O 0.07673 0.50007 0.96698 0.0
C1086 C 0.51092 0.45138 0.07944 0.0
C1087 C 0.5137 0.57911 0.0794 0.0
C1088 C 0.517 0.45115 0.95013 0.0
C1089 C 0.51737 0.57848 0.94989 0.0
C1090 C 0.58177 0.51431 0.95375 0.0
C1091 C 0.57472 0.51473 0.08301 0.0
C1092 C 0.45402 0.5175 0.94725 0.0
C1093 C 0.44798 0.51386 0.07628 0.0
C1094 C 0.45133 0.57876 0.01931 0.0
C1095 C 0.57908 0.57771 0.0103 0.0
C1096 C 0.45162 0.45102 1.00891 0.0
C1097 C 0.57845 0.45118 0.02086 0.0
Eu1098 Eu 0.51227 0.51522 0.06438 0.0
O1099 O 0.53734 0.53909 0.03958 0.0
O1100 O 0.49015 0.49146 0.03698 0.0
Eu1101 Eu 0.56465 0.51481 0.01772 0.0
Eu1102 Eu 0.46476 0.51506 0.01239 0.0
O1103 O 0.53689 0.49148 0.03943 0.0
O1104 O 0.49061 0.53847 0.03646 0.0
Eu1105 Eu 0.5149 0.46485 0.01485 0.0
Eu1106 Eu 0.51495 0.5655 0.01457 0.0
O1107 O 0.53957 0.49127 0.99257 0.0
O1108 O 0.53892 0.53791 0.99313 0.0
O1109 O 0.49228 0.53883 0.9901 0.0
O1110 O 0.4926 0.49159 0.9905 0.0
Eu1111 Eu 0.51716 0.51489 0.96511 0.0
O1112 O 0.51125 0.4766 0.08705 0.0
O1113 O 0.51211 0.55391 0.08688 0.0
O1114 O 0.51751 0.47634 0.94259 0.0
O1115 O 0.52009 0.55333 0.94275 0.0
O1116 O 0.58863 0.51361 0.97933 0.0
O1117 O 0.58476 0.51636 0.05855 0.0
O1118 O 0.44472 0.51812 0.97202 0.0
O1119 O 0.44089 0.51262 0.05079 0.0
O1120 O 0.47617 0.58719 0.01764 0.0
O1121 O 0.55425 0.58656 0.01018 0.0
O1122 O 0.47653 0.44313 0.0115 0.0
O1123 O 0.55358 0.44293 0.01847 0.0
O1124 O 0.47949 0.51581 0.94076 0.0
O1125 O 0.55701 0.51491 0.94479 0.0
O1126 O 0.47273 0.51559 0.08496 0.0
O1127 O 0.54917 0.51372 0.0888 0.0
O1128 O 0.51542 0.58744 0.05429 0.0
O1129 O 0.51372 0.58716 0.97465 0.0
O1130 O 0.5116 0.44306 0.05432 0.0
O1131 O 0.51632 0.44283 0.97526 0.0
O1132 O 0.58636 0.47623 0.02084 0.0
O1133 O 0.58657 0.55291 0.01453 0.0
O1134 O 0.44324 0.47602 1.00875 0.0
O1135 O 0.44324 0.55379 0.01722 0.0
C1136 C 0.01281 0.45134 0.57752 0.0
C1137 C 0.01355 0.45691 0.44989 0.0
C1138 C 0.01067 0.57874 0.58298 0.0
C1139 C 0.02153 0.58412 0.45586 0.0
C1140 C 0.9527 0.58457 0.51705 0.0
C1141 C 0.94704 0.4573 0.51423 0.0
C1142 C 0.08163 0.57902 0.52049 0.0
C1143 C 0.07627 0.45159 0.51405 0.0
C1144 C 0.07987 0.51899 0.45383 0.0
C1145 C 0.9505 0.52071 0.45289 0.0
C1146 C 0.07855 0.51426 0.58146 0.0
C1147 C 0.94943 0.51819 0.58012 0.0
Eu1148 Eu 0.01222 0.46784 0.51446 0.0
O1149 O 0.99056 0.49664 0.49199 0.0
O1150 O 0.03647 0.4924 0.53945 0.0
Eu1151 Eu 0.96522 0.52023 0.51655 0.0
Eu1152 Eu 0.06407 0.51594 0.5175 0.0
O1153 O 0.99002 0.49436 0.53928 0.0
O1154 O 0.03697 0.49465 0.49257 0.0
Eu1155 Eu 0.01411 0.51567 0.56711 0.0
Eu1156 Eu 0.01509 0.52009 0.46639 0.0
O1157 O 0.9925 0.5412 0.54096 0.0
O1158 O 0.99238 0.5437 0.49374 0.0
O1159 O 0.03877 0.54117 0.4947 0.0
O1160 O 0.03866 0.53972 0.54194 0.0
Eu1161 Eu 0.01664 0.56804 0.51887 0.0
O1162 O 0.01104 0.44435 0.55223 0.0
O1163 O 0.0122 0.44771 0.47455 0.0
O1164 O 0.01381 0.58804 0.55857 0.0
O1165 O 0.02008 0.59139 0.48111 0.0
O1166 O 0.94405 0.55971 0.5173 0.0
O1167 O 0.94106 0.48288 0.51549 0.0
O1168 O 0.08818 0.55357 0.51876 0.0
O1169 O 0.08488 0.47641 0.51573 0.0
O1170 O 0.05499 0.5191 0.44484 0.0
O1171 O 0.97544 0.52178 0.4441 0.0
O1172 O 0.05338 0.51485 0.58954 0.0
O1173 O 0.97433 0.51562 0.58869 0.0
O1174 O 0.05689 0.58828 0.5214 0.0
O1175 O 0.97814 0.59173 0.51707 0.0
O1176 O 0.05085 0.44438 0.51333 0.0
O1177 O 0.97162 0.44749 0.51365 0.0
O1178 O 0.01468 0.48227 0.44299 0.0
O1179 O 0.01995 0.55961 0.44644 0.0
O1180 O 0.01462 0.4758 0.58704 0.0
O1181 O 0.01042 0.55349 0.59029 0.0
O1182 O 0.94232 0.52037 0.55486 0.0
O1183 O 0.9432 0.52016 0.47811 0.0
O1184 O 0.08634 0.51435 0.5563 0.0
O1185 O 0.08685 0.51799 0.47921 0.0
C1186 C 0.51633 0.95117 0.58188 0.0
C1187 C 0.51085 0.94769 0.45423 0.0
C1188 C 0.51464 0.08011 0.57838 0.0
C1189 C 0.51107 0.07708 0.45023 0.0
C1190 C 0.44988 0.07918 0.51706 0.0
C1191 C 0.44938 0.95013 0.51935 0.0
C1192 C 0.57695 0.07869 0.51089 0.0
C1193 C 0.57702 0.94916 0.51711 0.0
C1194 C 0.57543 0.01105 0.45039 0.0
C1195 C 0.44792 0.00992 0.45462 0.0
C1196 C 0.57957 0.02316 0.57679 0.0
C1197 C 0.45272 0.02035 0.5821 0.0
Eu1198 Eu 0.51336 0.96442 0.5177 0.0
O1199 O 0.4896 0.99072 0.49439 0.0
O1200 O 0.53833 0.99097 0.53974 0.0
Eu1201 Eu 0.46337 0.01457 0.51775 0.0
Eu1202 Eu 0.5636 0.014 0.51439 0.0
O1203 O 0.49047 0.99144 0.54133 0.0
O1204 O 0.53602 0.99015 0.49259 0.0
Eu1205 Eu 0.51561 0.0153 0.56608 0.0
Eu1206 Eu 0.51194 0.01286 0.46592 0.0
O1207 O 0.49141 0.03781 0.53937 0.0
O1208 O 0.48897 0.03725 0.49234 0.0
O1209 O 0.5363 0.03688 0.49107 0.0
O1210 O 0.53752 0.03787 0.53773 0.0
Eu1211 Eu 0.51346 0.06393 0.51455 0.0
O1212 O 0.51468 0.94292 0.55691 0.0
O1213 O 0.51226 0.94077 0.47963 0.0
O1214 O 0.51475 0.08738 0.55299 0.0
O1215 O 0.51191 0.08547 0.47522 0.0
O1216 O 0.44116 0.05421 0.51632 0.0
O1217 O 0.44133 0.97531 0.51949 0.0
O1218 O 0.58571 0.05369 0.51151 0.0
O1219 O 0.58546 0.97427 0.51672 0.0
O1220 O 0.55021 0.01162 0.44282 0.0
O1221 O 0.47248 0.01162 0.44551 0.0
O1222 O 0.55508 0.02121 0.58622 0.0
O1223 O 0.47793 0.01826 0.58917 0.0
O1224 O 0.55176 0.086 0.51204 0.0
O1225 O 0.47514 0.08636 0.51684 0.0
O1226 O 0.55179 0.94179 0.51708 0.0
O1227 O 0.47449 0.94218 0.51898 0.0
O1228 O 0.5103 0.9726 0.44528 0.0
O1229 O 0.51089 0.05168 0.4428 0.0
O1230 O 0.51715 0.97654 0.58938 0.0
O1231 O 0.51474 0.05513 0.58696 0.0
O1232 O 0.44339 0.01898 0.55748 0.0
O1233 O 0.44038 0.01027 0.4798 0.0
O1234 O 0.58666 0.01986 0.55171 0.0
O1235 O 0.58407 0.01159 0.47521 0.0
H1236 H 0.17275 0.13604 0.53482 0.0
H1237 H 0.11251 0.19132 0.55825 0.0
H1238 H 0.07843 0.15834 0.54943 0.0
H1239 H 0.06592 0.11497 0.53272 0.0
H1240 H 0.12614 0.05981 0.50834 0.0
H1241 H 0.16025 0.09174 0.51989 0.0
C1242 C 0.15219 0.1406 0.53854 0.0
C1243 C 0.145 0.16588 0.54725 0.0
C1244 C 0.1328 0.12182 0.53284 0.0
C1245 C 0.11834 0.17188 0.55154 0.0
C1246 C 0.09893 0.15313 0.54638 0.0
C1247 C 0.08649 0.10994 0.52971 0.0
C1248 C 0.09347 0.08519 0.51932 0.0
C1249 C 0.10593 0.12827 0.53647 0.0
C1250 C 0.12024 0.07881 0.51614 0.0
C1251 C 0.13975 0.09701 0.5228 0.0
H1252 H 0.89297 0.17425 0.44967 0.0
H1253 H 0.82288 0.12782 0.4619 0.0
H1254 H 0.84989 0.08968 0.47391 0.0
H1255 H 0.89332 0.0716 0.48671 0.0
H1256 H 0.96225 0.12122 0.47921 0.0
H1257 H 0.93573 0.15613 0.46063 0.0
C1258 C 0.8836 0.15571 0.45477 0.0
C1259 C 0.85605 0.15399 0.45534 0.0
C1260 C 0.89903 0.1346 0.46335 0.0
C1261 C 0.84413 0.12965 0.46121 0.0
C1262 C 0.85954 0.10796 0.46853 0.0
C1263 C 0.90249 0.09007 0.48112 0.0
C1264 C 0.92973 0.09374 0.48481 0.0
C1265 C 0.88698 0.11058 0.47075 0.0
C1266 C 0.94131 0.11777 0.47707 0.0
C1267 C 0.9262 0.13782 0.46618 0.0
H1268 H 0.86902 0.84682 0.47277 0.0
H1269 H 0.81667 0.90805 0.44561 0.0
H1270 H 0.84957 0.94163 0.45699 0.0
H1271 H 0.89217 0.95327 0.47691 0.0
H1272 H 0.94326 0.89139 0.50584 0.0
H1273 H 0.91163 0.85826 0.49172 0.0
C1274 C 0.86514 0.86748 0.46871 0.0
C1275 C 0.84081 0.87509 0.45802 0.0
C1276 C 0.8836 0.8865 0.47616 0.0
C1277 C 0.83552 0.9019 0.45356 0.0
C1278 C 0.85417 0.92101 0.46028 0.0
C1279 C 0.89629 0.93257 0.48038 0.0
C1280 C 0.91998 0.92488 0.49259 0.0
C1281 C 0.87804 0.91353 0.47214 0.0
C1282 C 0.92516 0.89791 0.49654 0.0
C1283 C 0.90715 0.8789 0.48838 0.0
H1284 H 0.14345 0.8425 0.51579 0.0
H1285 H 0.16847 0.87256 0.43998 0.0
H1286 H 0.13685 0.90863 0.44378 0.0
H1287 H 0.10199 0.93154 0.4687 0.0
H1288 H 0.07363 0.8982 0.54155 0.0
H1289 H 0.10638 0.86275 0.5385 0.0
C1290 C 0.14165 0.8564 0.49965 0.0
C1291 C 0.15847 0.85464 0.47761 0.0
C1292 C 0.12286 0.87647 0.50148 0.0
C1293 C 0.15619 0.87356 0.45741 0.0
C1294 C 0.13798 0.89412 0.45946 0.0
C1295 C 0.10315 0.91644 0.48385 0.0
C1296 C 0.08596 0.91733 0.50547 0.0
C1297 C 0.12134 0.89581 0.48147 0.0
C1298 C 0.08695 0.89768 0.52485 0.0
C1299 C 0.10559 0.87754 0.52308 0.0
H1300 H 0.51359 0.13523 0.17392 0.0
H1301 H 0.51934 0.19884 0.11773 0.0
H1302 H 0.51789 0.16714 0.08128 0.0
H1303 H 0.51379 0.12134 0.06563 0.0
H1304 H 0.50697 0.05837 0.12285 0.0
H1305 H 0.50954 0.09002 0.15857 0.0
C1306 C 0.51428 0.14219 0.15369 0.0
C1307 C 0.51634 0.16927 0.14849 0.0
C1308 C 0.51308 0.12402 0.13301 0.0
C1309 C 0.5179 0.17801 0.12221 0.0
C1310 C 0.51689 0.15993 0.10139 0.0
C1311 C 0.51281 0.11452 0.08589 0.0
C1312 C 0.51011 0.08745 0.09138 0.0
C1313 C 0.51429 0.13287 0.10658 0.0
C1314 C 0.50899 0.07904 0.11784 0.0
C1315 C 0.51049 0.09712 0.13841 0.0
H1316 H 0.83748 0.48515 0.1342 0.0
H1317 H 0.89483 0.48368 0.1971 0.0
H1318 H 0.93048 0.48804 0.16492 0.0
H1319 H 0.94474 0.49625 0.11943 0.0
H1320 H 0.88637 0.50089 0.05728 0.0
H1321 H 0.85163 0.49219 0.08896 0.0
C1322 C 0.8578 0.48576 0.14086 0.0
C1323 C 0.86356 0.48444 0.1679 0.0
C1324 C 0.87793 0.48943 0.12251 0.0
C1325 C 0.88995 0.48451 0.1763 0.0
C1326 C 0.91028 0.48735 0.15797 0.0
C1327 C 0.92443 0.49549 0.11278 0.0
C1328 C 0.91825 0.49952 0.08602 0.0
C1329 C 0.90441 0.49058 0.13111 0.0
C1330 C 0.8918 0.49811 0.07776 0.0
C1331 C 0.87185 0.49299 0.09583 0.0
H1332 H 0.5155 0.83926 0.13976 0.0
H1333 H 0.52157 0.89851 0.20063 0.0
H1334 H 0.51939 0.93329 0.16726 0.0
H1335 H 0.51428 0.94658 0.12113 0.0
H1336 H 0.50699 0.88687 0.06056 0.0
H1337 H 0.51061 0.85247 0.09377 0.0
C1338 C 0.51615 0.8598 0.14574 0.0
C1339 C 0.5185 0.86638 0.17254 0.0
C1340 C 0.51446 0.87955 0.12661 0.0
C1341 C 0.51996 0.89301 0.18003 0.0
C1342 C 0.51852 0.91286 0.16102 0.0
C1343 C 0.51341 0.92608 0.11512 0.0
C1344 C 0.51024 0.91941 0.08835 0.0
C1345 C 0.51551 0.90632 0.13428 0.0
C1346 C 0.50933 0.89267 0.081 0.0
C1347 C 0.51145 0.87292 0.09996 0.0
H1348 H 0.13595 0.53137 0.1703 0.0
H1349 H 0.19267 0.5531 0.11085 0.0
H1350 H 0.16037 0.5439 0.0761 0.0
H1351 H 0.1167 0.52809 0.0629 0.0
H1352 H 0.06035 0.50558 0.1227 0.0
H1353 H 0.09198 0.51663 0.15716 0.0
C1354 C 0.141 0.5346 0.14975 0.0
C1355 C 0.16643 0.54306 0.14301 0.0
C1356 C 0.12262 0.52875 0.13002 0.0
C1357 C 0.17308 0.54663 0.11635 0.0
C1358 C 0.15472 0.54127 0.09656 0.0
C1359 C 0.11139 0.52536 0.08345 0.0
C1360 C 0.08628 0.51583 0.09019 0.0
C1361 C 0.12959 0.53188 0.10319 0.0
C1362 C 0.07958 0.51284 0.11695 0.0
C1363 C 0.09761 0.51921 0.13669 0.0
H1364 H 0.48653 0.84201 0.87015 0.0
H1365 H 0.42228 0.88892 0.8397 0.0
H1366 H 0.43553 0.92563 0.8683 0.0
H1367 H 0.46485 0.9436 0.90289 0.0
H1368 H 0.52647 0.89461 0.93519 0.0
H1369 H 0.51459 0.85906 0.90483 0.0
C1370 C 0.47492 0.85998 0.87012 0.0
C1371 C 0.45311 0.86253 0.85317 0.0
C1372 C 0.48238 0.8806 0.88672 0.0
C1373 C 0.43908 0.88643 0.85266 0.0
C1374 C 0.44665 0.90738 0.86897 0.0
C1375 C 0.47583 0.92523 0.9029 0.0
C1376 C 0.49666 0.92159 0.92081 0.0
C1377 C 0.46828 0.90463 0.88607 0.0
C1378 C 0.51048 0.89767 0.92133 0.0
C1379 C 0.50363 0.87741 0.90412 0.0
H1380 H 0.14476 0.4885 0.84387 0.0
H1381 H 0.20317 0.4877 0.90577 0.0
H1382 H 0.16845 0.49105 0.93908 0.0
H1383 H 0.1219 0.49562 0.95023 0.0
H1384 H 0.06343 0.49684 0.88808 0.0
H1385 H 0.09799 0.49178 0.85514 0.0
C1386 C 0.14982 0.48859 0.86468 0.0
C1387 C 0.17635 0.48775 0.87247 0.0
C1388 C 0.12986 0.49083 0.88358 0.0
C1389 C 0.18279 0.48843 0.89942 0.0
C1390 C 0.163 0.49035 0.9184 0.0
C1391 C 0.11659 0.49478 0.92951 0.0
C1392 C 0.09006 0.49678 0.92172 0.0
C1393 C 0.13651 0.49188 0.91065 0.0
C1394 C 0.08369 0.49553 0.89472 0.0
C1395 C 0.10342 0.49256 0.87582 0.0
H1396 H 0.53052 0.14195 0.84276 0.0
H1397 H 0.55421 0.19643 0.90366 0.0
H1398 H 0.54629 0.16277 0.93737 0.0
H1399 H 0.53104 0.11861 0.94936 0.0
H1400 H 0.50652 0.06442 0.88823 0.0
H1401 H 0.51635 0.09738 0.85466 0.0
C1402 C 0.53441 0.14623 0.86338 0.0
C1403 C 0.54306 0.17143 0.87083 0.0
C1404 C 0.52931 0.12705 0.88255 0.0
C1405 C 0.54754 0.17706 0.8976 0.0
C1406 C 0.54292 0.15791 0.91681 0.0
C1407 C 0.52763 0.11403 0.92872 0.0
C1408 C 0.51783 0.08915 0.92136 0.0
C1409 C 0.5334 0.13299 0.90951 0.0
C1410 C 0.51398 0.08344 0.89448 0.0
C1411 C 0.51964 0.10224 0.87524 0.0
H1412 H 0.84167 0.47292 0.87114 0.0
H1413 H 0.90054 0.43713 0.82136 0.0
H1414 H 0.93496 0.44883 0.85329 0.0
H1415 H 0.94822 0.47164 0.89397 0.0
H1416 H 0.88891 0.50885 0.94257 0.0
H1417 H 0.85463 0.49441 0.9122 0.0
C1418 C 0.86195 0.46704 0.86767 0.0
C1419 C 0.86866 0.45388 0.84427 0.0
C1420 C 0.88152 0.47466 0.88552 0.0
C1421 C 0.89504 0.44702 0.83949 0.0
C1422 C 0.91466 0.45394 0.85756 0.0
C1423 C 0.92784 0.47685 0.89777 0.0
C1424 C 0.92117 0.49154 0.92035 0.0
C1425 C 0.90816 0.46833 0.88032 0.0
C1426 C 0.8946 0.49767 0.92527 0.0
C1427 C 0.87495 0.48932 0.908 0.0
H1428 H 0.68095 0.63704 0.97347 0.0
H1429 H 0.62884 0.70417 0.97744 0.0
H1430 H 0.592 0.67515 0.98889 0.0
H1431 H 0.57581 0.63097 1.00153 0.0
H1432 H 0.63037 0.56526 1.00094 0.0
H1433 H 0.66517 0.59374 0.98549 0.0
C1434 C 0.66152 0.64535 0.97684 0.0
C1435 C 0.65766 0.67264 0.97498 0.0
C1436 C 0.64099 0.62891 0.9847 0.0
C1437 C 0.63225 0.68311 0.97863 0.0
C1438 C 0.6113 0.6666 0.98554 0.0
C1439 C 0.59534 0.62294 0.99819 0.0
C1440 C 0.60036 0.59603 1.00276 0.0
C1441 C 0.61564 0.63952 0.98936 0.0
C1442 C 0.6258 0.58593 0.99804 0.0
C1443 C 0.64581 0.60214 0.98893 0.0
H1444 H 0.37739 0.67544 0.04338 0.0
H1445 H 0.32803 0.61331 0.0738 0.0
H1446 H 0.36221 0.58073 0.06359 0.0
H1447 H 0.40455 0.56989 0.04322 0.0
H1448 H 0.45352 0.63207 0.01187 0.0
H1449 H 0.42081 0.66485 0.02516 0.0
C1450 C 0.37445 0.65486 0.04843 0.0
C1451 C 0.35045 0.64668 0.05948 0.0
C1452 C 0.39376 0.6363 0.04179 0.0
C1453 C 0.3465 0.61993 0.06538 0.0
C1454 C 0.36589 0.60136 0.05936 0.0
C1455 C 0.40798 0.59059 0.03904 0.0
C1456 C 0.43119 0.59852 0.02616 0.0
C1457 C 0.38927 0.60928 0.04691 0.0
C1458 C 0.43567 0.62546 0.02155 0.0
C1459 C 0.41706 0.64421 0.02923 0.0
H1460 H 0.38335 0.34842 0.99705 0.0
H1461 H 0.32013 0.40448 1.00695 0.0
H1462 H 0.35208 0.44055 1.00952 0.0
H1463 H 0.39806 0.45567 0.01025 0.0
H1464 H 0.46085 0.39877 1.00022 0.0
H1465 H 0.42881 0.36354 0.99612 0.0
C1466 C 0.37654 0.36859 0.99931 0.0
C1467 C 0.34953 0.37387 1.00173 0.0
C1468 C 0.39489 0.38903 1.00089 0.0
C1469 C 0.34094 0.4 1.00523 0.0
C1470 C 0.35915 0.42057 1.00664 0.0
C1471 C 0.40475 0.4356 1.00704 0.0
C1472 C 0.43184 0.42995 1.00577 0.0
C1473 C 0.38621 0.41526 1.00474 0.0
C1474 C 0.44013 0.40377 1.00159 0.0
C1475 C 0.42184 0.38353 0.99915 0.0
H1476 H 0.67944 0.38004 0.03067 0.0
H1477 H 0.62088 0.31845 0.02981 0.0
H1478 H 0.58574 0.35159 0.02876 0.0
H1479 H 0.57213 0.39792 0.02499 0.0
H1480 H 0.63156 0.45906 0.02416 0.0
H1481 H 0.66594 0.42605 0.02853 0.0
C1482 C 0.65896 0.37389 0.03024 0.0
C1483 C 0.65267 0.34697 0.03 0.0
C1484 C 0.63909 0.39289 0.02902 0.0
C1485 C 0.62612 0.33915 0.0301 0.0
C1486 C 0.60609 0.35805 0.02927 0.0
C1487 C 0.59258 0.40407 0.02577 0.0
C1488 C 0.59915 0.43097 0.02399 0.0
C1489 C 0.6124 0.38497 0.02819 0.0
C1490 C 0.6258 0.43853 0.02531 0.0
C1491 C 0.64556 0.41967 0.02787 0.0
H1492 H 0.98669 0.67728 0.65251 0.0
H1493 H 0.9183 0.63072 0.6724 0.0
H1494 H 0.93569 0.59395 0.64617 0.0
H1495 H 0.96945 0.57622 0.61592 0.0
H1496 H 0.03523 0.62497 0.59323 0.0
H1497 H 0.01964 0.66015 0.62243 0.0
C1498 C 0.97518 0.65934 0.65071 0.0
C1499 C 0.95092 0.65694 0.66391 0.0
C1500 C 0.98502 0.63873 0.63541 0.0
C1501 C 0.93693 0.6331 0.66227 0.0
C1502 C 0.94687 0.61213 0.64732 0.0
C1503 C 0.98055 0.5944 0.61788 0.0
C1504 C 1.0036 0.59814 0.60301 0.0
C1505 C 0.97084 0.61483 0.63373 0.0
C1506 C 0.0176 0.62184 0.60487 0.0
C1507 C 1.00861 0.64189 0.62135 0.0
H1508 H 0.38807 0.04436 0.68507 0.0
H1509 H 0.32374 0.04414 0.62933 0.0
H1510 H 0.35481 0.03793 0.593 0.0
H1511 H 0.39973 0.02845 0.5778 0.0
H1512 H 0.46338 0.02582 0.63464 0.0
H1513 H 0.43283 0.0364 0.66989 0.0
C1514 C 0.38086 0.04303 0.66495 0.0
C1515 C 0.35371 0.0444 0.65989 0.0
C1516 C 0.39859 0.03833 0.64443 0.0
C1517 C 0.34462 0.04333 0.6337 0.0
C1518 C 0.36232 0.03942 0.61297 0.0
C1519 C 0.40696 0.03009 0.59788 0.0
C1520 C 0.4338 0.02598 0.60348 0.0
C1521 C 0.38927 0.03613 0.61823 0.0
C1522 C 0.44279 0.02855 0.62965 0.0
C1523 C 0.42538 0.03477 0.64989 0.0
H1524 H 1.00161 0.35162 0.64901 0.0
H1525 H 0.08003 0.37537 0.67232 0.0
H1526 H 0.07659 0.41436 0.64426 0.0
H1527 H 0.05176 0.4409 0.61185 0.0
H1528 H 0.97601 0.41369 0.58471 0.0
H1529 H 0.97811 0.3763 0.61525 0.0
C1530 C 0.01828 0.36489 0.64761 0.0
C1531 C 0.04112 0.36035 0.66271 0.0
C1532 C 0.01658 0.38664 0.63078 0.0
C1533 C 0.06207 0.37845 0.6612 0.0
C1534 C 0.0602 0.40069 0.64503 0.0
C1535 C 0.03571 0.42679 0.61292 0.0
C1536 C 0.01363 0.42986 0.59659 0.0
C1537 C 0.03758 0.40491 0.6297 0.0
C1538 C 0.99306 0.41149 0.59742 0.0
C1539 C 0.99431 0.39021 0.61476 0.0
H1540 H 0.68055 0.06077 0.63768 0.0
H1541 H 0.62994 0.04747 0.70472 0.0
H1542 H 0.59302 0.03792 0.67518 0.0
H1543 H 0.57684 0.02818 0.63042 0.0
H1544 H 0.62946 0.03819 0.56401 0.0
H1545 H 0.66405 0.05325 0.59332 0.0
C1546 C 0.66136 0.05599 0.64581 0.0
C1547 C 0.65803 0.05446 0.67324 0.0
C1548 C 0.64078 0.04916 0.62887 0.0
C1549 C 0.63295 0.04891 0.68361 0.0
C1550 C 0.61195 0.04304 0.66675 0.0
C1551 C 0.59587 0.03361 0.62235 0.0
C1552 C 0.60058 0.03153 0.59508 0.0
C1553 C 0.61594 0.04216 0.63936 0.0
C1554 C 0.62531 0.039 0.58496 0.0
C1555 C 0.64513 0.04789 0.60166 0.0
H1556 H 0.01555 0.38925 0.34568 0.0
H1557 H 0.02122 0.32583 0.40216 0.0
H1558 H 0.0208 0.3577 0.43841 0.0
H1559 H 0.01769 0.40343 0.45388 0.0
H1560 H 0.01108 0.46658 0.39689 0.0
H1561 H 0.01259 0.43477 0.36103 0.0
C1562 C 0.01648 0.38239 0.36594 0.0
C1563 C 0.01825 0.35527 0.37127 0.0
C1564 C 0.01591 0.4007 0.38657 0.0
C1565 C 0.02005 0.34666 0.39757 0.0
C1566 C 0.01963 0.36484 0.41829 0.0
C1567 C 0.01647 0.41029 0.43365 0.0
C1568 C 0.01417 0.43741 0.42821 0.0
C1569 C 0.01737 0.3919 0.413 0.0
C1570 C 0.01285 0.44586 0.40178 0.0
C1571 C 0.01372 0.42769 0.38118 0.0
H1572 H 0.676 1.00736 0.37813 0.0
H1573 H 0.61769 0.01904 0.31733 0.0
H1574 H 0.58259 0.01862 0.35058 0.0
H1575 H 0.56895 0.01579 0.39708 0.0
H1576 H 0.6282 1.00373 0.45735 0.0
H1577 H 0.66247 1.00355 0.42404 0.0
C1578 C 0.6556 0.01001 0.37223 0.0
C1579 C 0.6493 0.01347 0.34555 0.0
C1580 C 0.63574 0.00966 0.39129 0.0
C1581 C 0.62285 0.01631 0.3379 0.0
C1582 C 0.60286 0.01613 0.35686 0.0
C1583 C 0.58933 0.01301 0.40294 0.0
C1584 C 0.59589 0.00997 0.42974 0.0
C1585 C 0.60913 0.0129 0.38364 0.0
C1586 C 0.62246 1.00636 0.43692 0.0
C1587 C 0.64217 1.00621 0.41789 0.0
H1588 H 0.0288 0.68278 0.38244 0.0
H1589 H 0.09472 0.63879 0.35103 0.0
H1590 H 0.08579 0.60312 0.38222 0.0
H1591 H 0.05874 0.58437 0.41809 0.0
H1592 H 0.9959 0.63071 0.45178 0.0
H1593 H 1.00455 0.66612 0.42011 0.0
C1594 C 0.04185 0.66585 0.38276 0.0
C1595 C 0.06254 0.66366 0.36438 0.0
C1596 C 0.03699 0.64581 0.40101 0.0
C1597 C 0.07849 0.64095 0.36472 0.0
C1598 C 0.07345 0.62058 0.38259 0.0
C1599 C 0.04694 0.60223 0.41828 0.0
C1600 C 0.0265 0.60505 0.43672 0.0
C1601 C 0.05258 0.62272 0.40062 0.0
C1602 C 0.01161 0.6283 0.43748 0.0
C1603 C 0.01657 0.64844 0.41948 0.0
H1604 H 0.37441 1.00098 0.35637 0.0
H1605 H 0.35709 0.92574 0.3923 0.0
H1606 H 0.38461 0.93743 0.43027 0.0
H1607 H 0.41561 0.96821 0.45184 0.0
H1608 H 0.43623 0.04089 0.41295 0.0
H1609 H 0.40544 0.03093 0.37706 0.0
C1610 C 0.377 0.98681 0.37219 0.0
C1611 C 0.36408 0.9623 0.37125 0.0
C1612 C 0.39329 0.99332 0.39339 0.0
C1613 C 0.36684 0.94472 0.39252 0.0
C1614 C 0.38261 0.95136 0.41416 0.0
C1615 C 0.41289 0.98195 0.43564 0.0
C1616 C 0.42756 1.00536 0.43488 0.0
C1617 C 0.39608 0.97552 0.41467 0.0
C1618 C 0.42474 0.0229 0.41374 0.0
C1619 C 0.40732 0.01714 0.3933 0.0
H1620 H 0.99819 0.16743 0.36521 0.0
H1621 H 0.02278 0.11053 0.307 0.0
H1622 H 0.02613 0.07657 0.34135 0.0
H1623 H 0.02141 0.06295 0.38807 0.0
H1624 H 0.99877 0.12099 0.4462 0.0
H1625 H 0.99532 0.15443 0.41185 0.0
C1626 C 1.00411 0.14754 0.36 0.0
C1627 C 0.0099 0.14145 0.33348 0.0
C1628 C 1.0064 0.12829 0.37992 0.0
C1629 C 0.01815 0.11573 0.32721 0.0
C1630 C 0.02003 0.09631 0.34686 0.0
C1631 C 0.01575 0.08292 0.39326 0.0
C1632 C 0.0102 0.08926 0.41984 0.0
C1633 C 0.01412 0.10233 0.37332 0.0
C1634 C 1.0032 0.11539 0.42607 0.0
C1635 C 1.00114 0.1346 0.40636 0.0
H1636 H 0.8477 0.02395 0.36112 0.0
H1637 H 0.90326 0.99249 0.30497 0.0
H1638 H 0.9365 0.98857 0.3399 0.0
H1639 H 0.94998 0.99452 0.38658 0.0
H1640 H 0.89348 0.02512 0.44251 0.0
H1641 H 0.8607 0.02902 0.40757 0.0
C1642 C 0.86716 0.01645 0.35642 0.0
C1643 C 0.87296 1.00878 0.33027 0.0
C1644 C 0.8861 0.01405 0.37667 0.0
C1645 C 0.89815 0.9985 0.32483 0.0
C1646 C 0.91722 0.99634 0.34483 0.0
C1647 C 0.93052 1.00207 0.39116 0.0
C1648 C 0.9244 0.0095 0.41736 0.0
C1649 C 0.91146 1.0041 0.37086 0.0
C1650 C 0.89889 0.01904 0.42274 0.0
C1651 C 0.88006 0.02139 0.40268 0.0
H1652 H 0.99965 0.84108 0.36648 0.0
H1653 H 0.01635 0.90083 0.30829 0.0
H1654 H 0.0169 0.93456 0.3428 0.0
H1655 H 0.01329 0.94709 0.38945 0.0
H1656 H 0.99726 0.88734 0.44802 0.0
H1657 H 0.99579 0.85377 0.41344 0.0
C1658 C 1.00308 0.86154 0.36129 0.0
C1659 C 1.00783 0.86836 0.33469 0.0
C1660 C 1.00367 0.88086 0.38136 0.0
C1661 C 0.01276 0.89494 0.32851 0.0
C1662 C 0.01304 0.91426 0.34827 0.0
C1663 C 0.00943 0.92676 0.39481 0.0
C1664 C 1.00542 0.91995 0.42155 0.0
C1665 C 1.00868 0.90745 0.37478 0.0
C1666 C 1.00055 0.89334 0.42778 0.0
C1667 C 0.99963 0.87406 0.40794 0.0
H1668 H 0.14068 0.02355 0.34132 0.0
H1669 H 0.17857 0.95279 0.36943 0.0
H1670 H 0.1507 0.95295 0.40874 0.0
H1671 H 0.11425 0.97245 0.43481 0.0
H1672 H 0.07439 0.04135 0.40501 0.0
H1673 H 0.10433 0.04297 0.36724 0.0
C1674 C 0.14289 1.00826 0.35612 0.0
C1675 C 0.1616 0.98811 0.35227 0.0
C1676 C 0.12647 1.00824 0.3786 0.0
C1677 C 0.16407 0.96833 0.37163 0.0
C1678 C 0.14824 0.96849 0.39426 0.0
C1679 C 0.11249 0.98801 0.42023 0.0
C1680 C 0.0924 1.00695 0.42283 0.0
C1681 C 0.12923 0.98826 0.39795 0.0
C1682 C 0.08986 0.02666 0.40348 0.0
C1683 C 0.1069 0.02754 0.38182 0.0
H1684 H 0.97538 0.89088 0.68224 0.0
H1685 H 0.02384 0.8289 0.64972 0.0
H1686 H 0.02853 0.85378 0.60872 0.0
H1687 H 0.01862 0.89367 0.58149 0.0
H1688 H 0.96882 0.95421 0.61472 0.0
H1689 H 0.96424 0.92902 0.65521 0.0
C1690 C 0.98677 0.88253 0.66618 0.0
C1691 C 0.99924 0.8579 0.66946 0.0
C1692 C 0.98892 0.89666 0.64234 0.0
C1693 C 0.01436 0.84797 0.64828 0.0
C1694 C 0.01681 0.86209 0.62456 0.0
C1695 C 1.00648 0.90107 0.59747 0.0
C1696 C 0.99416 0.92589 0.59496 0.0
C1697 C 1.00408 0.88648 0.62123 0.0
C1698 C 0.97872 0.9353 0.61607 0.0
C1699 C 0.9761 0.92093 0.63936 0.0
H1700 H 0.12205 0.02143 0.68348 0.0
H1701 H 0.17936 0.96842 0.64963 0.0
H1702 H 0.15375 0.96634 0.60881 0.0
H1703 H 0.11471 0.98004 0.58214 0.0
H1704 H 0.05866 0.03394 0.61686 0.0
H1705 H 0.08445 0.03575 0.65718 0.0
C1706 C 0.12916 0.00955 0.66717 0.0
C1707 C 0.1527 0.99509 0.66992 0.0
C1708 C 0.11459 1.0088 0.64353 0.0
C1709 C 0.16112 0.97944 0.64849 0.0
C1710 C 0.14659 0.97846 0.62491 0.0
C1711 C 0.10837 0.99236 0.59844 0.0
C1712 C 0.08465 1.0067 0.59639 0.0
C1713 C 0.1233 0.99317 0.62209 0.0
C1714 C 0.07664 0.02243 0.61787 0.0
C1715 C 0.09139 0.02352 0.64106 0.0
H1716 H 1.00056 0.16858 0.64751 0.0
H1717 H 0.01675 0.10762 0.70464 0.0
H1718 H 0.01745 0.07458 0.66943 0.0
H1719 H 0.01329 0.06294 0.62258 0.0
H1720 H 0.99806 0.12395 0.56507 0.0
H1721 H 0.99713 0.15694 0.60028 0.0
C1722 C 1.00398 0.14802 0.6523 0.0
C1723 C 1.00838 0.14061 0.67881 0.0
C1724 C 1.00459 0.12912 0.63186 0.0
C1725 C 0.01337 0.11393 0.6845 0.0
C1726 C 0.01371 0.09501 0.66434 0.0
C1727 C 0.00969 0.08343 0.61761 0.0
C1728 C 1.00558 0.09078 0.59101 0.0
C1729 C 0.00934 0.10237 0.63796 0.0
C1730 C 1.00127 0.11757 0.58522 0.0
C1731 C 1.00068 0.1365 0.6054 0.0
H1732 H 0.84278 1.00208 0.64774 0.0
H1733 H 0.90578 0.01097 0.7043 0.0
H1734 H 0.93784 0.01309 0.66845 0.0
H1735 H 0.94814 0.01248 0.62144 0.0
H1736 H 0.8857 1.00388 0.56409 0.0
H1737 H 0.85333 1.00163 0.5999 0.0
C1738 C 0.86356 1.00421 0.65224 0.0
C1739 C 0.8718 1.00627 0.67884 0.0
C1740 C 0.88199 1.00562 0.63139 0.0
C1741 C 0.89879 0.00951 0.68415 0.0
C1742 C 0.91717 0.01067 0.66362 0.0
C1743 C 0.92747 0.01012 0.61653 0.0
C1744 C 0.91954 1.00834 0.58982 0.0
C1745 C 0.909 1.00882 0.63719 0.0
C1746 C 0.89253 1.00541 0.58429 0.0
C1747 C 0.87398 1.00403 0.60483 0.0
H1748 H 0.33632 0.97722 0.12801 0.0
H1749 H 0.37211 0.02599 0.18784 0.0
H1750 H 0.41133 0.03134 0.16034 0.0
H1751 H 0.436 0.02182 0.11885 0.0
H1752 H 0.3991 0.97318 0.05955 0.0
H1753 H 0.36047 0.9677 0.08735 0.0
C1754 C 0.35271 0.98894 0.13515 0.0
C1755 C 0.35102 1.0012 0.16003 0.0
C1756 C 0.37534 0.99179 0.11931 0.0
C1757 C 0.37249 0.01662 0.16863 0.0
C1758 C 0.39513 0.0195 0.15299 0.0
C1759 C 0.41958 0.00986 0.1122 0.0
C1760 C 0.42052 0.99799 0.08706 0.0
C1761 C 0.3969 1.00708 0.12827 0.0
C1762 C 0.3989 0.98275 0.07867 0.0
C1763 C 0.3767 0.97957 0.09457 0.0
H1764 H 0.99449 0.37005 0.17224 0.0
H1765 H 0.01518 0.31026 0.1153 0.0
H1766 H 0.01729 0.34378 0.0806 0.0
H1767 H 0.01282 0.39002 0.06627 0.0
H1768 H 0.99273 0.44989 0.12351 0.0
H1769 H 0.99074 0.4164 0.15807 0.0
C1770 C 0.99924 0.36428 0.15219 0.0
C1771 C 1.00446 0.33752 0.14643 0.0
C1772 C 1.00057 0.38372 0.13233 0.0
C1773 C 0.01117 0.33062 0.12039 0.0
C1774 C 0.01229 0.34981 0.1005 0.0
C1775 C 1.00798 0.39584 0.08628 0.0
C1776 C 1.00289 0.42264 0.09209 0.0
C1777 C 1.00698 0.37643 0.10621 0.0
C1778 C 0.99687 0.42958 0.11831 0.0
C1779 C 0.99564 0.41037 0.13814 0.0
H1780 H 0.65378 0.02345 0.16189 0.0
H1781 H 0.70625 0.98685 0.10587 0.0
H1782 H 0.66977 0.98188 0.07454 0.0
H1783 H 0.62314 0.98853 0.0628 0.0
H1784 H 0.5701 0.02349 0.11947 0.0
H1785 H 0.60651 0.0283 0.15083 0.0
C1786 C 0.65724 0.01453 0.14274 0.0
C1787 C 0.68284 1.00582 0.1361 0.0
C1788 C 0.63602 0.01132 0.125 0.0
C1789 C 0.68683 0.99377 0.11145 0.0
C1790 C 0.66596 0.99095 0.09353 0.0
C1791 C 0.61945 0.99718 0.08203 0.0
C1792 C 0.59378 1.00576 0.08862 0.0
C1793 C 0.64049 0.99972 0.10006 0.0
C1794 C 0.5895 0.01659 0.11382 0.0
C1795 C 0.61039 0.01948 0.13174 0.0
H1796 H 0.01193 0.68174 0.12548 0.0
H1797 H 0.98743 0.63366 0.19126 0.0
H1798 H 0.98584 0.59492 0.16264 0.0
H1799 H 0.99239 0.5741 0.11868 0.0
H1800 H 0.01792 0.62304 0.05371 0.0
H1801 H 0.01853 0.66134 0.08226 0.0
C1802 C 1.00639 0.6628 0.1337 0.0
C1803 C 0.99977 0.66092 0.16064 0.0
C1804 C 1.00583 0.64041 0.11718 0.0
C1805 C 0.99222 0.63606 0.17058 0.0
C1806 C 0.99154 0.61372 0.15422 0.0
C1807 C 0.99815 0.59311 0.11078 0.0
C1808 C 1.00498 0.59533 0.08386 0.0
C1809 C 0.99845 0.61556 0.12745 0.0
C1810 C 0.01231 0.62037 0.07416 0.0
C1811 C 0.01273 0.64251 0.09053 0.0
H1812 H 0.36386 0.99346 0.84456 0.0
H1813 H 0.30731 0.01061 0.90577 0.0
H1814 H 0.34296 0.01431 0.93805 0.0
H1815 H 0.39005 0.01284 0.94894 0.0
H1816 H 0.44692 0.99596 0.88781 0.0
H1817 H 0.41128 0.99197 0.85556 0.0
C1818 C 0.35929 0.99768 0.86504 0.0
C1819 C 0.33281 1.00159 0.8727 0.0
C1820 C 0.37998 1.0 0.88351 0.0
C1821 C 0.32741 1.00762 0.89925 0.0
C1822 C 0.34782 0.00969 0.91774 0.0
C1823 C 0.3948 1.00831 0.92858 0.0
C1824 C 0.42136 1.00478 0.92096 0.0
C1825 C 0.37418 1.00603 0.91009 0.0
C1826 C 0.42683 0.99901 0.89435 0.0
C1827 C 0.40639 0.99659 0.87586 0.0
H1828 H 0.02747 0.35815 0.84943 0.0
H1829 H 0.98483 0.30551 0.90064 0.0
H1830 H 0.97936 0.34112 0.93306 0.0
H1831 H 0.98749 0.38728 0.94709 0.0
H1832 H 0.02844 0.44002 0.8943 0.0
H1833 H 0.03374 0.40442 0.86237 0.0
C1834 C 0.01707 0.35445 0.86776 0.0
C1835 C 1.00686 0.32912 0.87278 0.0
C1836 C 0.01367 0.3751 0.88603 0.0
C1837 C 0.99292 0.32479 0.89634 0.0
C1838 C 0.98986 0.34515 0.91488 0.0
C1839 C 0.99756 0.39099 0.92859 0.0
C1840 C 1.00762 0.4164 0.92324 0.0
C1841 C 1.00027 0.37039 0.91 0.0
C1842 C 0.02035 0.42082 0.89899 0.0
C1843 C 0.0235 0.4004 0.88069 0.0
H1844 H 0.65106 0.99521 0.84411 0.0
H1845 H 0.70801 1.00262 0.90695 0.0
H1846 H 0.6724 1.00414 0.9394 0.0
H1847 H 0.62527 1.00389 0.94997 0.0
H1848 H 0.56798 0.99695 0.88724 0.0
H1849 H 0.60358 0.99457 0.85484 0.0
C1850 C 0.65572 0.99681 0.86494 0.0
C1851 C 0.68232 0.99868 0.87302 0.0
C1852 C 0.63507 0.99787 0.88354 0.0
C1853 C 0.68783 1.0013 0.9001 0.0
C1854 C 0.66744 1.00211 0.91869 0.0
C1855 C 0.62039 1.00182 0.92923 0.0
C1856 C 0.59372 1.00061 0.92124 0.0
C1857 C 0.64099 1.00055 0.91064 0.0
C1858 C 0.58815 0.99798 0.89415 0.0
C1859 C 0.60857 0.99659 0.87554 0.0
H1860 H 0.98185 0.64468 0.84252 0.0
H1861 H 0.02768 0.69752 0.89074 0.0
H1862 H 0.03464 0.66226 0.92324 0.0
H1863 H 0.02582 0.61687 0.93884 0.0
H1864 H 0.98187 0.56348 0.8892 0.0
H1865 H 0.97623 0.59832 0.85631 0.0
C1866 C 0.9935 0.64838 0.8601 0.0
C1867 C 1.00407 0.67372 0.86438 0.0
C1868 C 0.99769 0.6279 0.87844 0.0
C1869 C 0.01938 0.6782 0.88703 0.0
C1870 C 0.02325 0.65806 0.90563 0.0
C1871 C 0.01512 0.6128 0.92075 0.0
C1872 C 1.0041 0.58755 0.91664 0.0
C1873 C 0.01222 0.6329 0.9017 0.0
C1874 C 0.99063 0.58261 0.8929 0.0
C1875 C 0.98728 0.6026 0.87411 0.0
H1876 H 0.1235 0.32951 0.98685 0.0
H1877 H 0.17325 0.35858 0.04951 0.0
H1878 H 0.14818 0.39966 0.05081 0.0
H1879 H 0.11143 0.42774 0.03431 0.0
H1880 H 0.06186 0.39784 0.97198 0.0
H1881 H 0.08784 0.35744 0.96993 0.0
C1882 C 0.12901 0.34484 1.00072 0.0
C1883 C 0.15022 0.34059 0.01818 0.0
C1884 C 0.11463 0.36865 1.00124 0.0
C1885 C 0.15672 0.36081 0.03617 0.0
C1886 C 0.14254 0.38457 0.03676 0.0
C1887 C 0.10666 0.41252 0.02005 0.0
C1888 C 0.08481 0.41589 1.00325 0.0
C1889 C 0.12142 0.3888 0.01936 0.0
C1890 C 0.07858 0.39575 0.98516 0.0
C1891 C 0.09337 0.37255 0.98402 0.0
H1892 H 0.1707 0.64196 0.99484 0.0
H1893 H 0.11131 0.70196 1.00534 0.0
H1894 H 0.07706 0.66806 1.00665 0.0
H1895 H 0.06392 0.6214 1.00533 0.0
H1896 H 0.12343 0.56119 0.99571 0.0
H1897 H 0.1575 0.59511 0.9935 0.0
C1898 C 0.15023 0.64767 0.99709 0.0
C1899 C 0.14366 0.67462 0.99982 0.0
C1900 C 0.13059 0.62798 0.99812 0.0
C1901 C 0.11702 0.68147 1.00329 0.0
C1902 C 0.09739 0.66206 1.004 0.0
C1903 C 0.08431 0.61556 1.00268 0.0
C1904 C 0.09088 0.58853 1.00064 0.0
C1905 C 0.10394 0.63523 1.00156 0.0
C1906 C 0.11758 0.58167 0.99739 0.0
C1907 C 0.13716 0.60113 0.99607 0.0
H1908 H 0.37058 0.17125 0.9949 0.0
H1909 H 0.31163 0.11503 0.01905 0.0
H1910 H 0.34534 0.08046 0.02154 0.0
H1911 H 0.39157 0.06602 0.01617 0.0
H1912 H 0.45048 0.12289 0.99297 0.0
H1913 H 0.41681 0.15718 0.99074 0.0
C1914 C 0.36503 0.15138 1.00054 0.0
C1915 C 0.33846 0.14576 1.00654 0.0
C1916 C 0.38458 0.13165 1.00212 0.0
C1917 C 0.33185 0.11999 0.01438 0.0
C1918 C 0.35115 0.10018 0.01572 0.0
C1919 C 0.39712 0.08589 0.01061 0.0
C1920 C 0.42373 0.09165 1.00465 0.0
C1921 C 0.37758 0.10574 1.00953 0.0
C1922 C 0.43034 0.1177 0.99774 0.0
C1923 C 0.41102 0.1374 0.99638 0.0
H1924 H 0.84259 0.36308 0.99319 0.0
H1925 H 0.90256 0.30697 0.01552 0.0
H1926 H 0.9349 0.34254 0.01865 0.0
H1927 H 0.94632 0.3893 0.01477 0.0
H1928 H 0.88655 0.4459 0.99277 0.0
H1929 H 0.85403 0.41039 0.98983 0.0
C1930 C 0.8628 0.35858 0.9985 0.0
C1931 C 0.87011 0.33223 1.00395 0.0
C1932 C 0.88133 0.37925 1.00043 0.0
C1933 C 0.8963 0.32697 0.01134 0.0
C1934 C 0.91484 0.34733 0.01306 0.0
C1935 C 0.9262 0.39405 1.00931 0.0
C1936 C 0.91906 0.42046 1.00394 0.0
C1937 C 0.90759 0.37352 1.00765 0.0
C1938 C 0.89273 0.42592 0.99712 0.0
C1939 C 0.8741 0.40555 0.99533 0.0
H1940 H 0.65277 0.84503 0.01387 0.0
H1941 H 0.70732 0.90837 0.9983 0.0
H1942 H 0.67074 0.93964 0.99593 0.0
H1943 H 0.62365 0.94907 0.99812 0.0
H1944 H 0.56829 0.88625 0.01332 0.0
H1945 H 0.60485 0.85469 0.01588 0.0
C1946 C 0.65667 0.86573 0.01024 0.0
C1947 C 0.6829 0.87432 1.00639 0.0
C1948 C 0.6354 0.88366 1.00867 0.0
C1949 C 0.68745 0.90116 1.0012 0.0
C1950 C 0.66651 0.91906 0.99989 0.0
C1951 C 0.61936 0.9285 1.00206 0.0
C1952 C 0.593 0.9202 1.00561 0.0
C1953 C 0.64043 0.91053 1.00352 0.0
C1954 C 0.58821 0.89331 0.01041 0.0
C1955 C 0.60918 0.87525 0.01198 0.0
H1956 H 0.84711 0.65253 0.01107 0.0
H1957 H 0.90929 0.70752 0.99284 0.0
H1958 H 0.94101 0.67121 0.99072 0.0
H1959 H 0.95118 0.62395 0.99403 0.0
H1960 H 0.88892 0.56863 0.01155 0.0
H1961 H 0.85728 0.60494 0.01394 0.0
C1962 C 0.86766 0.65662 1.00691 0.0
C1963 C 0.87577 0.68287 1.0023 0.0
C1964 C 0.8858 0.63554 1.00546 0.0
C1965 C 0.90242 0.68761 0.99637 0.0
C1966 C 0.9206 0.66682 0.99521 0.0
C1967 C 0.93071 0.61968 0.99839 0.0
C1968 C 0.92263 0.59334 1.00265 0.0
C1969 C 0.91252 0.6407 0.99967 0.0
C1970 C 0.89587 0.58852 1.00809 0.0
C1971 C 0.8777 0.60935 1.00955 0.0
H1972 H 0.33173 0.88287 1.00822 0.0
H1973 H 0.38082 0.81637 0.98809 0.0
H1974 H 0.41971 0.84478 0.98796 0.0
H1975 H 0.44028 0.88893 0.99425 0.0
H1976 H 0.39002 0.95478 0.01441 0.0
H1977 H 0.35181 0.92628 0.01429 0.0
C1978 C 0.35092 0.87447 1.00394 0.0
C1979 C 0.35306 0.84738 0.99812 0.0
C1980 C 0.37335 0.8909 1.00408 0.0
C1981 C 0.37826 0.83716 0.99224 0.0
C1982 C 0.40067 0.85341 0.99239 0.0
C1983 C 0.42101 0.89702 0.99872 0.0
C1984 C 0.41844 0.92418 1.00439 0.0
C1985 C 0.39854 0.88038 0.99838 0.0
C1986 C 0.39303 0.93412 0.00993 0.0
C1987 C 0.37092 0.91778 0.00986 0.0
H1988 H 0.65291 0.16276 0.99117 0.0
H1989 H 0.70829 0.10347 0.01671 0.0
H1990 H 0.67257 0.07116 0.0199 0.0
H1991 H 0.6256 0.05976 0.0154 0.0
H1992 H 0.57004 0.11954 0.99096 0.0
H1993 H 0.60579 0.15156 0.9874 0.0
C1994 C 0.65721 0.14268 0.99717 0.0
C1995 C 0.68335 0.1355 1.00344 0.0
C1996 C 0.63649 0.12432 0.99929 0.0
C1997 C 0.68842 0.10955 0.01178 0.0
C1998 C 0.66798 0.09106 0.01357 0.0
C1999 C 0.62123 0.07978 1.00927 0.0
C2000 C 0.595 0.0871 1.00344 0.0
C2001 C 0.64193 0.09822 1.0074 0.0
C2002 C 0.58989 0.11327 0.99575 0.0
C2003 C 0.61039 0.13162 0.99359 0.0
H2004 H 0.53564 0.64152 0.84377 0.0
H2005 H 0.46001 0.67392 0.86513 0.0
H2006 H 0.46063 0.64918 0.90645 0.0
H2007 H 0.48187 0.61674 0.9362 0.0
H2008 H 0.55603 0.58218 0.91346 0.0
H2009 H 0.55707 0.60946 0.87364 0.0
C2010 C 0.51938 0.64324 0.85753 0.0
C2011 C 0.49771 0.65943 0.8511 0.0
C2012 C 0.51969 0.62864 0.88129 0.0
C2013 C 0.47674 0.66128 0.86923 0.0
C2014 C 0.47715 0.64726 0.89303 0.0
C2015 C 0.49844 0.61563 0.92273 0.0
C2016 C 0.51904 0.59779 0.92795 0.0
C2017 C 0.49842 0.63072 0.89926 0.0
C2018 C 0.54008 0.59599 0.90998 0.0
C2019 C 0.54061 0.61147 0.88712 0.0
H2020 H 0.35933 0.53085 0.86627 0.0
H2021 H 0.41854 0.50345 0.81174 0.0
H2022 H 0.45073 0.50096 0.84773 0.0
H2023 H 0.46198 0.50626 0.89485 0.0
H2024 H 0.40208 0.53233 0.9495 0.0
H2025 H 0.37041 0.53566 0.91337 0.0
C2026 C 0.37937 0.52463 0.86218 0.0
C2027 C 0.38653 0.51761 0.83619 0.0
C2028 C 0.39767 0.52288 0.88308 0.0
C2029 C 0.41245 0.50898 0.83147 0.0
C2030 C 0.43088 0.50758 0.85208 0.0
C2031 C 0.44203 0.51275 0.89893 0.0
C2032 C 0.4346 0.5191 0.92507 0.0
C2033 C 0.42371 0.51442 0.878 0.0
C2034 C 0.40849 0.52721 0.92976 0.0
C2035 C 0.39031 0.5292 0.90904 0.0
H2036 H 0.50564 0.35526 0.87012 0.0
H2037 H 0.53154 0.41482 0.81525 0.0
H2038 H 0.53402 0.44706 0.85114 0.0
H2039 H 0.52881 0.45837 0.898 0.0
H2040 H 0.50397 0.3986 0.95332 0.0
H2041 H 0.50124 0.36645 0.91742 0.0
C2042 C 0.51158 0.37537 0.86598 0.0
C2043 C 0.51817 0.38265 0.83991 0.0
C2044 C 0.51332 0.39374 0.88684 0.0
C2045 C 0.52638 0.40867 0.83505 0.0
C2046 C 0.52777 0.42711 0.85559 0.0
C2047 C 0.52278 0.43832 0.90233 0.0
C2048 C 0.51656 0.43107 0.92852 0.0
C2049 C 0.52133 0.41987 0.88157 0.0
C2050 C 0.50903 0.40484 0.93352 0.0
C2051 C 0.50734 0.38643 0.91292 0.0
H2052 H 0.68396 0.51037 0.88132 0.0
H2053 H 0.6258 0.52479 0.82075 0.0
H2054 H 0.59107 0.52504 0.85405 0.0
H2055 H 0.57697 0.52119 0.90027 0.0
H2056 H 0.63515 0.50797 0.96114 0.0
H2057 H 0.66996 0.50776 0.92784 0.0
C2058 C 0.66377 0.51395 0.87533 0.0
C2059 C 0.65774 0.51752 0.84829 0.0
C2060 C 0.64377 0.51431 0.8947 0.0
C2061 C 0.63121 0.52159 0.84118 0.0
C2062 C 0.61127 0.52189 0.8603 0.0
C2063 C 0.59723 0.5182 0.9064 0.0
C2064 C 0.6032 0.51446 0.93342 0.0
C2065 C 0.61728 0.51818 0.88711 0.0
C2066 C 0.62975 0.51087 0.94066 0.0
C2067 C 0.64975 0.51072 0.92156 0.0
H2068 H 0.49598 0.35425 0.1571 0.0
H2069 H 0.52677 0.41039 0.21308 0.0
H2070 H 0.52989 0.4437 0.17816 0.0
H2071 H 0.52369 0.45693 0.13169 0.0
H2072 H 0.49478 0.39996 0.07536 0.0
H2073 H 0.49111 0.36704 0.11037 0.0
C2074 C 0.50317 0.37386 0.1617 0.0
C2075 C 0.51085 0.37988 0.18779 0.0
C2076 C 0.50532 0.39276 0.14141 0.0
C2077 C 0.5207 0.40522 0.19324 0.0
C2078 C 0.52244 0.42428 0.17326 0.0
C2079 C 0.51654 0.43733 0.12701 0.0
C2080 C 0.50941 0.43109 0.10078 0.0
C2081 C 0.51479 0.4183 0.14726 0.0
C2082 C 0.5005 0.40541 0.09522 0.0
C2083 C 0.49831 0.38654 0.1153 0.0
H2084 H 0.62813 0.5031 0.19481 0.0
H2085 H 0.68539 0.55522 0.15967 0.0
H2086 H 0.6607 0.55496 0.11831 0.0
H2087 H 0.62244 0.53963 0.09156 0.0
H2088 H 0.56639 0.48666 0.12738 0.0
H2089 H 0.59138 0.4869 0.1683 0.0
C2090 C 0.63543 0.51427 0.17812 0.0
C2091 C 0.65865 0.52924 0.18071 0.0
C2092 C 0.62143 0.51363 0.15412 0.0
C2093 C 0.66733 0.5439 0.15871 0.0
C2094 C 0.65336 0.54352 0.1348 0.0
C2095 C 0.61598 0.52789 0.10822 0.0
C2096 C 0.5925 0.51321 0.10632 0.0
C2097 C 0.63038 0.52836 0.13217 0.0
C2098 C 0.58425 0.49832 0.12827 0.0
C2099 C 0.59852 0.49846 0.1518 0.0
H2100 H 0.50093 0.67543 0.15882 0.0
H2101 H 0.52447 0.61581 0.21477 0.0
H2102 H 0.52802 0.58346 0.17903 0.0
H2103 H 0.5239 0.57189 0.13198 0.0
H2104 H 0.50167 0.63184 0.07571 0.0
H2105 H 0.49824 0.66417 0.1114 0.0
C2106 C 0.50668 0.65531 0.16323 0.0
C2107 C 0.51219 0.64806 0.1896 0.0
C2108 C 0.509 0.63685 0.14247 0.0
C2109 C 0.52015 0.622 0.19476 0.0
C2110 C 0.52212 0.60346 0.1743 0.0
C2111 C 0.51831 0.59203 0.12742 0.0
C2112 C 0.51296 0.59926 0.101 0.0
C2113 C 0.51654 0.61063 0.14808 0.0
C2114 C 0.50604 0.6256 0.09568 0.0
C2115 C 0.50395 0.64413 0.11617 0.0
H2116 H 0.3484 0.50298 0.15159 0.0
H2117 H 0.40627 0.52544 0.20978 0.0
H2118 H 0.44007 0.52776 0.17544 0.0
H2119 H 0.4532 0.52356 0.12908 0.0
H2120 H 0.3953 0.50213 0.07036 0.0
H2121 H 0.36155 0.49936 0.10471 0.0
C2122 C 0.36848 0.50811 0.1568 0.0
C2123 C 0.37481 0.51382 0.18334 0.0
C2124 C 0.38779 0.50974 0.13683 0.0
C2125 C 0.40082 0.521 0.18959 0.0
C2126 C 0.42017 0.52229 0.16994 0.0
C2127 C 0.43324 0.51822 0.12364 0.0
C2128 C 0.42699 0.51294 0.09697 0.0
C2129 C 0.41388 0.51676 0.1435 0.0
C2130 C 0.40083 0.50634 0.09058 0.0
C2131 C 0.38148 0.50467 0.11028 0.0
H2132 H 0.86934 0.52462 0.67645 0.0
H2133 H 0.81338 0.51302 0.61337 0.0
H2134 H 0.84931 0.51214 0.58126 0.0
H2135 H 0.89651 0.51378 0.57107 0.0
H2136 H 0.95293 0.52464 0.63399 0.0
H2137 H 0.91695 0.52672 0.66606 0.0
C2138 C 0.86497 0.52226 0.65563 0.0
C2139 C 0.83856 0.51901 0.64738 0.0
C2140 C 0.88585 0.52143 0.63723 0.0
C2141 C 0.83342 0.51544 0.62034 0.0
C2142 C 0.85399 0.51496 0.60194 0.0
C2143 C 0.90109 0.51666 0.59178 0.0
C2144 C 0.92762 0.51897 0.59996 0.0
C2145 C 0.88029 0.51774 0.61017 0.0
C2146 C 0.93286 0.52256 0.627 0.0
C2147 C 0.91223 0.52387 0.6454 0.0
H2148 H 0.51588 0.87602 0.6823 0.0
H2149 H 0.5186 0.81646 0.62145 0.0
H2150 H 0.51924 0.85076 0.58763 0.0
H2151 H 0.51835 0.89754 0.57514 0.0
H2152 H 0.51605 0.95731 0.63588 0.0
H2153 H 0.51633 0.92303 0.66976 0.0
C2154 C 0.51703 0.87046 0.66167 0.0
C2155 C 0.51719 0.84348 0.65461 0.0
C2156 C 0.51741 0.89038 0.6422 0.0
C2157 C 0.51815 0.83691 0.62763 0.0
C2158 C 0.51862 0.85657 0.60821 0.0
C2159 C 0.51793 0.90324 0.59576 0.0
C2160 C 0.5171 0.93024 0.60274 0.0
C2161 C 0.51807 0.88337 0.61524 0.0
C2162 C 0.51669 0.93687 0.62972 0.0
C2163 C 0.51683 0.91721 0.64919 0.0
H2164 H 0.15676 0.49721 0.67785 0.0
H2165 H 0.2118 0.53094 0.6226 0.0
H2166 H 0.17655 0.53541 0.58981 0.0
H2167 H 0.13019 0.52892 0.57652 0.0
H2168 H 0.07484 0.49653 0.63242 0.0
H2169 H 0.11003 0.49238 0.66518 0.0
C2170 C 0.16107 0.50543 0.65858 0.0
C2171 C 0.18703 0.5135 0.65264 0.0
C2172 C 0.1406 0.50821 0.63993 0.0
C2173 C 0.19208 0.52462 0.62774 0.0
C2174 C 0.17191 0.52709 0.60895 0.0
C2175 C 0.12577 0.52095 0.59587 0.0
C2176 C 0.09978 0.51295 0.60186 0.0
C2177 C 0.14611 0.51884 0.61477 0.0
C2178 C 0.09451 0.50298 0.62721 0.0
C2179 C 0.11469 0.50049 0.64596 0.0
H2180 H 0.50887 0.15519 0.6784 0.0
H2181 H 0.51861 0.21505 0.61877 0.0
H2182 H 0.52019 0.18094 0.58453 0.0
H2183 H 0.51857 0.13391 0.57147 0.0
H2184 H 0.50909 0.07448 0.63183 0.0
H2185 H 0.50743 0.10859 0.66555 0.0
C2186 C 0.51104 0.16088 0.65789 0.0
C2187 C 0.51339 0.1878 0.65126 0.0
C2188 C 0.51202 0.14115 0.63832 0.0
C2189 C 0.51685 0.19457 0.62455 0.0
C2190 C 0.51766 0.17503 0.60492 0.0
C2191 C 0.51614 0.12835 0.59198 0.0
C2192 C 0.514 0.10141 0.59885 0.0
C2193 C 0.51527 0.14821 0.61155 0.0
C2194 C 0.51092 0.09485 0.62569 0.0
C2195 C 0.50991 0.11442 0.64512 0.0
H2196 H 0.84168 0.50117 0.39728 0.0
H2197 H 0.86959 0.56309 0.34596 0.0
H2198 H 0.91077 0.56526 0.37081 0.0
H2199 H 0.93938 0.54937 0.40771 0.0
H2200 H 0.91125 0.48577 0.45658 0.0
H2201 H 0.87045 0.48374 0.43144 0.0
C2202 C 0.85679 0.51495 0.39113 0.0
C2203 C 0.85213 0.53194 0.36963 0.0
C2204 C 0.88083 0.51554 0.40494 0.0
C2205 C 0.87207 0.55005 0.36269 0.0
C2206 C 0.89592 0.5511 0.37671 0.0
C2207 C 0.92448 0.5348 0.41242 0.0
C2208 C 0.92831 0.51779 0.43406 0.0
C2209 C 0.90065 0.53385 0.39787 0.0
C2210 C 0.90868 0.49921 0.44016 0.0
C2211 C 0.88527 0.49807 0.42585 0.0
H2212 H 0.49513 0.86683 0.35963 0.0
H2213 H 0.52797 0.81317 0.41689 0.0
H2214 H 0.53132 0.84914 0.44901 0.0
H2215 H 0.52486 0.89589 0.46092 0.0
H2216 H 0.4934 0.94987 0.40301 0.0
H2217 H 0.4896 0.91381 0.3712 0.0
C2218 C 0.50279 0.86294 0.37923 0.0
C2219 C 0.51105 0.83717 0.38587 0.0
C2220 C 0.50501 0.88385 0.3975 0.0
C2221 C 0.52149 0.83271 0.4112 0.0
C2222 C 0.52336 0.85331 0.4296 0.0
C2223 C 0.51713 0.89984 0.44136 0.0
C2224 C 0.50937 0.92575 0.43453 0.0
C2225 C 0.5152 0.87898 0.42299 0.0
C2226 C 0.49967 0.93031 0.40891 0.0
C2227 C 0.49738 0.90962 0.39068 0.0
H2228 H 0.18689 0.53128 0.39068 0.0
H2229 H 0.14174 0.49166 0.33041 0.0
H2230 H 0.1033 0.49086 0.35939 0.0
H2231 H 0.08213 0.50136 0.40232 0.0
H2232 H 0.12808 0.54046 0.46241 0.0
H2233 H 0.16598 0.54189 0.43306 0.0
C2234 C 0.16863 0.52258 0.38378 0.0
C2235 C 0.16746 0.51144 0.35833 0.0
C2236 C 0.14646 0.5222 0.40058 0.0
C2237 C 0.14354 0.5 0.35 0.0
C2238 C 0.12137 0.49973 0.36653 0.0
C2239 C 0.10038 0.51035 0.40888 0.0
C2240 C 0.10212 0.52069 0.43465 0.0
C2241 C 0.12254 0.51077 0.39191 0.0
C2242 C 0.1261 0.53208 0.44283 0.0
C2243 C 0.14789 0.53296 0.42601 0.0
H2244 H 0.49945 0.15065 0.34938 0.0
H2245 H 0.52202 0.21016 0.40587 0.0
H2246 H 0.52508 0.17651 0.4404 0.0
H2247 H 0.52082 0.13019 0.45476 0.0
H2248 H 0.4988 0.07069 0.39786 0.0
H2249 H 0.49594 0.10431 0.36351 0.0
C2250 C 0.5048 0.15636 0.3693 0.0
C2251 C 0.51028 0.18309 0.37495 0.0
C2252 C 0.50664 0.13684 0.38907 0.0
C2253 C 0.51779 0.18984 0.40082 0.0
C2254 C 0.51944 0.17057 0.42063 0.0
C2255 C 0.51534 0.12449 0.43487 0.0
C2256 C 0.50995 0.09773 0.42912 0.0
C2257 C 0.51385 0.144 0.41502 0.0
C2258 C 0.50315 0.09095 0.40305 0.0
C2259 C 0.50143 0.11024 0.38332 0.0
H2260 H 0.67338 0.86896 0.5237 0.0
H2261 H 0.61071 0.81303 0.5106 0.0
H2262 H 0.57859 0.849 0.50955 0.0
H2263 H 0.56827 0.89618 0.5118 0.0
H2264 H 0.63082 0.95261 0.52406 0.0
H2265 H 0.66291 0.9166 0.52599 0.0
C2266 C 0.65264 0.8646 0.52097 0.0
C2267 C 0.64451 0.83818 0.51742 0.0
C2268 C 0.63424 0.8855 0.52007 0.0
C2269 C 0.61759 0.83306 0.51332 0.0
C2270 C 0.59919 0.85366 0.51274 0.0
C2271 C 0.58889 0.90078 0.51497 0.0
C2272 C 0.59693 0.92733 0.51785 0.0
C2273 C 0.60729 0.87996 0.51596 0.0
C2274 C 0.62389 0.93254 0.52173 0.0
C2275 C 0.64231 0.91189 0.5229 0.0
H2276 H 0.63486 0.1876 0.4963 0.0
H2277 H 0.69526 0.14832 0.54167 0.0
H2278 H 0.66841 0.10839 0.54327 0.0
H2279 H 0.62731 0.08408 0.53137 0.0
H2280 H 0.56856 0.124 0.48437 0.0
H2281 H 0.59559 0.16346 0.48305 0.0
C2282 C 0.64245 0.1703 0.50631 0.0
C2283 C 0.66722 0.17134 0.51885 0.0
C2284 C 0.62723 0.14711 0.50659 0.0
C2285 C 0.67613 0.14859 0.53221 0.0
C2286 C 0.66088 0.12549 0.53287 0.0
C2287 C 0.62069 0.10129 0.52054 0.0
C2288 C 0.59584 0.10097 0.50807 0.0
C2289 C 0.63639 0.12441 0.52 0.0
C2290 C 0.58745 0.12365 0.49436 0.0
C2291 C 0.60289 0.14635 0.4936 0.0
H2292 H 0.87765 0.68289 0.49732 0.0
H2293 H 0.82123 0.63129 0.5343 0.0
H2294 H 0.85549 0.59766 0.54018 0.0
H2295 H 0.90124 0.58224 0.53328 0.0
H2296 H 0.95799 0.63475 0.49784 0.0
H2297 H 0.92397 0.66858 0.49297 0.0
C2298 C 0.87286 0.66427 0.50669 0.0
C2299 C 0.84678 0.65956 0.51515 0.0
C2300 C 0.89277 0.64513 0.51024 0.0
C2301 C 0.84107 0.6355 0.52767 0.0
C2302 C 0.86067 0.61621 0.53092 0.0
C2303 C 0.90622 0.60111 0.52455 0.0
C2304 C 0.93225 0.60577 0.51578 0.0
C2305 C 0.88654 0.62069 0.52206 0.0
C2306 C 0.93827 0.63054 0.50485 0.0
C2307 C 0.91875 0.64991 0.50195 0.0
H2308 H 0.35274 0.87335 0.50044 0.0
H2309 H 0.40602 0.81744 0.53599 0.0
H2310 H 0.4391 0.85228 0.54162 0.0
H2311 H 0.45336 0.89851 0.53505 0.0
H2312 H 0.39897 0.95449 0.50096 0.0
H2313 H 0.36596 0.91984 0.49615 0.0
C2314 C 0.37163 0.86879 0.50939 0.0
C2315 C 0.37701 0.84274 0.51753 0.0
C2316 C 0.39037 0.88898 0.51281 0.0
C2317 C 0.40137 0.83728 0.52957 0.0
C2318 C 0.42031 0.8572 0.5327 0.0
C2319 C 0.43424 0.90317 0.52667 0.0
C2320 C 0.42877 0.92919 0.51832 0.0
C2321 C 0.41512 0.8831 0.5242 0.0
C2322 C 0.40376 0.9348 0.50773 0.0
C2323 C 0.38486 0.91492 0.50484 0.0
H2324 H 0.15032 0.35122 0.50176 0.0
H2325 H 0.20942 0.4083 0.52359 0.0
H2326 H 0.1756 0.44263 0.52631 0.0
H2327 H 0.12929 0.4564 0.52284 0.0
H2328 H 0.06989 0.39915 0.50178 0.0
H2329 H 0.10378 0.36503 0.49842 0.0
C2330 C 0.15586 0.37125 0.5068 0.0
C2331 C 0.1825 0.37717 0.51227 0.0
C2332 C 0.13621 0.39086 0.50863 0.0
C2333 C 0.18915 0.40314 0.51935 0.0
C2334 C 0.16979 0.42279 0.52088 0.0
C2335 C 0.12363 0.43649 0.51746 0.0
C2336 C 0.09687 0.43053 0.51255 0.0
C2337 C 0.14324 0.41687 0.51565 0.0
C2338 C 0.09017 0.40446 0.5058 0.0
C2339 C 0.10961 0.38489 0.50378 0.0
H2340 H 0.3876 0.1863 0.53169 0.0
H2341 H 0.32924 0.14468 0.4859 0.0
H2342 H 0.3576 0.10571 0.48461 0.0
H2343 H 0.3995 0.08306 0.49656 0.0
H2344 H 0.4574 0.12565 0.54215 0.0
H2345 H 0.42863 0.16398 0.54387 0.0
C2346 C 0.38095 0.16868 0.52154 0.0
C2347 C 0.35625 0.16868 0.50885 0.0
C2348 C 0.39731 0.14621 0.52098 0.0
C2349 C 0.34829 0.1456 0.4955 0.0
C2350 C 0.36443 0.12312 0.49495 0.0
C2351 C 0.40565 0.10065 0.50705 0.0
C2352 C 0.43068 0.10136 0.51912 0.0
C2353 C 0.38904 0.12311 0.50766 0.0
C2354 C 0.43839 0.1245 0.53244 0.0
C2355 C 0.42193 0.14654 0.53347 0.0
H2356 H 0.83717 0.39849 0.50514 0.0
H2357 H 0.88376 0.33269 0.53225 0.0
H2358 H 0.92301 0.36061 0.53353 0.0
H2359 H 0.9446 0.40404 0.52625 0.0
H2360 H 0.89681 0.46953 0.5 0.0
H2361 H 0.85819 0.44147 0.49867 0.0
C2362 C 0.8559 0.39019 0.51127 0.0
C2363 C 0.8573 0.36345 0.51863 0.0
C2364 C 0.8785 0.40636 0.51191 0.0
C2365 C 0.88184 0.35326 0.52684 0.0
C2366 C 0.90444 0.3692 0.52736 0.0
C2367 C 0.92578 0.41211 0.52009 0.0
C2368 C 0.92395 0.43898 0.51306 0.0
C2369 C 0.9031 0.39582 0.51981 0.0
C2370 C 0.89914 0.44903 0.50548 0.0
C2371 C 0.87683 0.43296 0.50474 0.0
H2372 H 0.16301 0.67371 0.52944 0.0
H2373 H 0.2167 0.61299 0.50362 0.0
H2374 H 0.18059 0.581 0.50296 0.0
H2375 H 0.13369 0.57038 0.50915 0.0
H2376 H 0.0797 0.63149 0.53381 0.0
H2377 H 0.11598 0.66309 0.53553 0.0
C2378 C 0.16689 0.65338 0.524 0.0
C2379 C 0.19267 0.64575 0.5168 0.0
C2380 C 0.14592 0.63516 0.52333 0.0
C2381 C 0.19713 0.61945 0.50921 0.0
C2382 C 0.17647 0.60113 0.50886 0.0
C2383 C 0.12977 0.59057 0.51502 0.0
C2384 C 0.1038 0.59839 0.52142 0.0
C2385 C 0.15075 0.60878 0.51577 0.0
C2386 C 0.09932 0.62479 0.5287 0.0
C2387 C 0.12013 0.64292 0.52976 0.0
loop_
_geom_bond_atom_site_label_1
_geom_bond_atom_site_label_2
_geom_bond_distance
_geom_bond_site_symmetry_2
_ccdc_geom_bond_type
C0 C1 1.386 1_655 S
C0 C2 1.397 . S
C0 H24 0.931 . S
C1 C0 1.386 1_455 S
C1 C5 1.397 . S
C2 C0 1.397 . S
C2 C3 1.384 1_655 S
C2 H25 0.930 . S
C3 C2 1.384 1_455 S
C3 C4 1.377 . S
C3 C6 1.481 . S
C4 C3 1.377 . S
C4 C5 1.389 . S
C4 H26 0.929 . S
C5 C1 1.397 . S
C5 C4 1.389 . S
C5 H27 0.931 . S
C6 C3 1.481 . S
C6 C7 1.387 . S
C6 C11 1.390 . S
C7 C6 1.387 . S
C7 C8 1.401 . S
C7 H28 0.929 1_455 S
C8 C7 1.401 . S
C8 C9 1.377 . S
C8 C17 1.511 1_455 S
C9 C8 1.377 . S
C9 C10 1.394 . S
C9 H30 0.930 . S
C10 C9 1.394 . S
C10 C11 1.361 . S
C10 C12 1.500 . S
C11 C6 1.390 . S
C11 C10 1.361 . S
C11 H29 0.931 . S
C12 C10 1.500 . S
C12 C13 1.371 1_455 S
C12 C14 1.365 . S
C13 C12 1.371 1_655 S
C13 C23 1.386 . S
C13 H31 0.931 . S
C14 C12 1.365 . S
C14 C15 1.409 . S
C14 H32 0.929 . S
C15 C14 1.409 . S
C15 C16 1.380 . S
C15 H33 0.930 . S
C16 C15 1.380 . S
C16 C23 1.357 1_455 S
C17 C8 1.511 1_655 S
C17 C18 1.341 . S
C17 C19 1.371 1_655 S
C18 C17 1.341 . S
C18 C22 1.394 . S
C18 H34 0.930 . S
C19 C17 1.371 1_455 S
C19 C20 1.392 . S
C19 H35 0.931 . S
C20 C19 1.392 . S
C20 C21 1.331 . S
C20 H38 0.932 . S
C21 C20 1.331 . S
C21 C22 1.336 1_455 S
C22 C18 1.394 . S
C22 C21 1.336 1_655 S
C22 H37 0.929 . S
C23 C13 1.386 . S
C23 C16 1.357 1_655 S
C23 H36 0.928 . S
H24 C0 0.931 . S
H25 C2 0.930 . S
H26 C4 0.929 . S
H27 C5 0.931 . S
H28 C7 0.929 1_655 S
H29 C11 0.931 . S
H30 C9 0.930 . S
H31 C13 0.931 . S
H32 C14 0.929 . S
H33 C15 0.930 . S
H34 C18 0.930 . S
H35 C19 0.931 . S
H36 C23 0.928 . S
H37 C22 0.929 . S
H38 C20 0.932 . S
C39 C40 1.395 . S
C39 C41 1.397 . S
C39 H63 0.931 . S
C40 C39 1.395 . S
C40 C44 1.388 1_545 S
C41 C39 1.397 . S
C41 C42 1.390 . S
C41 H64 0.930 . S
C42 C41 1.390 . S
C42 C43 1.372 1_545 S
C42 C45 1.480 . S
C43 C42 1.372 1_565 S
C43 C44 1.389 . S
C43 H65 0.929 . S
C44 C40 1.388 1_565 S
C44 C43 1.389 . S
C44 H66 0.931 . S
C45 C42 1.480 . S
C45 C46 1.389 . S
C45 C50 1.390 . S
C46 C45 1.389 . S
C46 C47 1.402 . S
C46 H67 0.930 . S
C47 C46 1.402 . S
C47 C48 1.377 . S
C47 C56 1.513 . S
C48 C47 1.377 . S
C48 C49 1.392 . S
C48 H69 0.931 . S
C49 C48 1.392 . S
C49 C50 1.361 . S
C49 C51 1.499 1_545 S
C50 C45 1.390 . S
C50 C49 1.361 . S
C50 H68 0.931 . S
C51 C49 1.499 1_565 S
C51 C52 1.362 1_565 S
C51 C53 1.375 . S
C52 C51 1.362 1_545 S
C52 C62 1.386 . S
C52 H70 0.931 . S
C53 C51 1.375 . S
C53 C54 1.409 . S
C53 H71 0.929 . S
C54 C53 1.409 . S
C54 C55 1.379 . S
C54 H72 0.930 . S
C55 C54 1.379 . S
C55 C62 1.358 1_565 S
C56 C47 1.513 . S
C56 C57 1.341 . S
C56 C58 1.371 1_545 S
C57 C56 1.341 . S
C57 C61 1.394 . S
C57 H73 0.930 . S
C58 C56 1.371 1_565 S
C58 C59 1.392 . S
C58 H74 0.931 . S
C59 C58 1.392 . S
C59 C60 1.322 1_565 S
C59 H77 0.932 . S
C60 C59 1.322 1_545 S
C60 C61 1.346 . S
C61 C57 1.394 . S
C61 C60 1.346 . S
C61 H76 0.929 . S
C62 C52 1.386 . S
C62 C55 1.358 1_545 S
C62 H75 0.928 . S
H63 C39 0.931 . S
H64 C41 0.930 . S
H65 C43 0.929 . S
H66 C44 0.931 . S
H67 C46 0.930 . S
H68 C50 0.931 . S
H69 C48 0.931 . S
H70 C52 0.931 . S
H71 C53 0.929 . S
H72 C54 0.930 . S
H73 C57 0.930 . S
H74 C58 0.931 . S
H75 C62 0.928 . S
H76 C61 0.929 . S
H77 C59 0.932 . S
C78 C79 1.386 1_655 S
C78 C80 1.397 . S
C78 H102 0.931 . S
C79 C78 1.386 1_455 S
C79 C83 1.397 . S
C80 C78 1.397 . S
C80 C81 1.384 1_655 S
C80 H103 0.930 . S
C81 C80 1.384 1_455 S
C81 C82 1.377 . S
C81 C84 1.481 . S
C82 C81 1.377 . S
C82 C83 1.389 . S
C82 H104 0.929 . S
C83 C79 1.397 . S
C83 C82 1.389 . S
C83 H105 0.931 . S
C84 C81 1.481 . S
C84 C85 1.387 . S
C84 C89 1.390 . S
C85 C84 1.387 . S
C85 C86 1.401 . S
C85 H106 0.929 1_455 S
C86 C85 1.401 . S
C86 C87 1.377 . S
C86 C95 1.511 1_455 S
C87 C86 1.377 . S
C87 C88 1.394 . S
C87 H108 0.930 . S
C88 C87 1.394 . S
C88 C89 1.361 . S
C88 C90 1.500 . S
C89 C84 1.390 . S
C89 C88 1.361 . S
C89 H107 0.931 . S
C90 C88 1.500 . S
C90 C91 1.371 1_455 S
C90 C92 1.365 . S
C91 C90 1.371 1_655 S
C91 C101 1.386 . S
C91 H109 0.931 . S
C92 C90 1.365 . S
C92 C93 1.409 . S
C92 H110 0.929 . S
C93 C92 1.409 . S
C93 C94 1.380 . S
C93 H111 0.930 . S
C94 C93 1.380 . S
C94 C101 1.357 1_455 S
C95 C86 1.511 1_655 S
C95 C96 1.341 . S
C95 C97 1.371 1_655 S
C96 C95 1.341 . S
C96 C100 1.394 . S
C96 H112 0.930 . S
C97 C95 1.371 1_455 S
C97 C98 1.392 . S
C97 H113 0.931 . S
C98 C97 1.392 . S
C98 C99 1.331 . S
C98 H116 0.932 . S
C99 C98 1.331 . S
C99 C100 1.336 1_455 S
C100 C96 1.394 . S
C100 C99 1.336 1_655 S
C100 H115 0.929 . S
C101 C91 1.386 . S
C101 C94 1.357 1_655 S
C101 H114 0.928 . S
H102 C78 0.931 . S
H103 C80 0.930 . S
H104 C82 0.929 . S
H105 C83 0.931 . S
H106 C85 0.929 1_655 S
H107 C89 0.931 . S
H108 C87 0.930 . S
H109 C91 0.931 . S
H110 C92 0.929 . S
H111 C93 0.930 . S
H112 C96 0.930 . S
H113 C97 0.931 . S
H114 C101 0.928 . S
H115 C100 0.929 . S
H116 C98 0.932 . S
C117 C118 1.395 . S
C117 C119 1.397 . S
C117 H141 0.931 . S
C118 C117 1.395 . S
C118 C122 1.388 1_545 S
C119 C117 1.397 . S
C119 C120 1.390 . S
C119 H142 0.930 . S
C120 C119 1.390 . S
C120 C121 1.372 1_545 S
C120 C123 1.480 . S
C121 C120 1.372 1_565 S
C121 C122 1.389 . S
C121 H143 0.929 . S
C122 C118 1.388 1_565 S
C122 C121 1.389 . S
C122 H144 0.931 . S
C123 C120 1.480 . S
C123 C124 1.389 . S
C123 C128 1.390 . S
C124 C123 1.389 . S
C124 C125 1.402 . S
C124 H145 0.930 . S
C125 C124 1.402 . S
C125 C126 1.377 . S
C125 C134 1.513 . S
C126 C125 1.377 . S
C126 C127 1.392 . S
C126 H147 0.931 . S
C127 C126 1.392 . S
C127 C128 1.361 . S
C127 C129 1.499 1_545 S
C128 C123 1.390 . S
C128 C127 1.361 . S
C128 H146 0.931 . S
C129 C127 1.499 1_565 S
C129 C130 1.362 1_565 S
C129 C131 1.375 . S
C130 C129 1.362 1_545 S
C130 C140 1.386 . S
C130 H148 0.931 . S
C131 C129 1.375 . S
C131 C132 1.409 . S
C131 H149 0.929 . S
C132 C131 1.409 . S
C132 C133 1.379 . S
C132 H150 0.930 . S
C133 C132 1.379 . S
C133 C140 1.358 1_565 S
C134 C125 1.513 . S
C134 C135 1.341 . S
C134 C136 1.371 1_545 S
C135 C134 1.341 . S
C135 C139 1.394 . S
C135 H151 0.930 . S
C136 C134 1.371 1_565 S
C136 C137 1.392 . S
C136 H152 0.931 . S
C137 C136 1.392 . S
C137 C138 1.322 1_565 S
C137 H155 0.932 . S
C138 C137 1.322 1_545 S
C138 C139 1.346 . S
C139 C135 1.394 . S
C139 C138 1.346 . S
C139 H154 0.929 . S
C140 C130 1.386 . S
C140 C133 1.358 1_545 S
C140 H153 0.928 . S
H141 C117 0.931 . S
H142 C119 0.930 . S
H143 C121 0.929 . S
H144 C122 0.931 . S
H145 C124 0.930 . S
H146 C128 0.931 . S
H147 C126 0.931 . S
H148 C130 0.931 . S
H149 C131 0.929 . S
H150 C132 0.930 . S
H151 C135 0.930 . S
H152 C136 0.931 . S
H153 C140 0.928 . S
H154 C139 0.929 . S
H155 C137 0.932 . S
C156 C157 1.386 1_655 S
C156 C158 1.397 . S
C156 H180 0.931 . S
C157 C156 1.386 1_455 S
C157 C161 1.397 . S
C158 C156 1.397 . S
C158 C159 1.384 1_655 S
C158 H181 0.930 . S
C159 C158 1.384 1_455 S
C159 C160 1.377 . S
C159 C162 1.481 . S
C160 C159 1.377 . S
C160 C161 1.389 . S
C160 H182 0.929 . S
C161 C157 1.397 . S
C161 C160 1.389 . S
C161 H183 0.931 . S
C162 C159 1.481 . S
C162 C163 1.387 . S
C162 C167 1.390 . S
C163 C162 1.387 . S
C163 C164 1.401 . S
C163 H184 0.929 1_455 S
C164 C163 1.401 . S
C164 C165 1.377 . S
C164 C173 1.511 1_455 S
C165 C164 1.377 . S
C165 C166 1.394 . S
C165 H186 0.930 . S
C166 C165 1.394 . S
C166 C167 1.361 . S
C166 C168 1.500 . S
C167 C162 1.390 . S
C167 C166 1.361 . S
C167 H185 0.931 . S
C168 C166 1.500 . S
C168 C169 1.371 1_455 S
C168 C170 1.365 . S
C169 C168 1.371 1_655 S
C169 C179 1.386 . S
C169 H187 0.931 . S
C170 C168 1.365 . S
C170 C171 1.409 . S
C170 H188 0.929 . S
C171 C170 1.409 . S
C171 C172 1.380 . S
C171 H189 0.930 . S
C172 C171 1.380 . S
C172 C179 1.357 1_455 S
C173 C164 1.511 1_655 S
C173 C174 1.341 . S
C173 C175 1.371 1_655 S
C174 C173 1.341 . S
C174 C178 1.394 . S
C174 H190 0.930 . S
C175 C173 1.371 1_455 S
C175 C176 1.392 . S
C175 H191 0.931 . S
C176 C175 1.392 . S
C176 C177 1.331 . S
C176 H194 0.932 . S
C177 C176 1.331 . S
C177 C178 1.336 1_455 S
C178 C174 1.394 . S
C178 C177 1.336 1_655 S
C178 H193 0.929 . S
C179 C169 1.386 . S
C179 C172 1.357 1_655 S
C179 H192 0.928 . S
H180 C156 0.931 . S
H181 C158 0.930 . S
H182 C160 0.929 . S
H183 C161 0.931 . S
H184 C163 0.929 1_655 S
H185 C167 0.931 . S
H186 C165 0.930 . S
H187 C169 0.931 . S
H188 C170 0.929 . S
H189 C171 0.930 . S
H190 C174 0.930 . S
H191 C175 0.931 . S
H192 C179 0.928 . S
H193 C178 0.929 . S
H194 C176 0.932 . S
C195 C196 1.388 . S
C195 C197 1.397 . S
C195 H219 0.931 . S
C196 C195 1.388 . S
C196 C200 1.395 1_565 S
C197 C195 1.397 . S
C197 C198 1.383 . S
C197 H220 0.930 . S
C198 C197 1.383 . S
C198 C199 1.379 1_565 S
C198 C201 1.480 . S
C199 C198 1.379 1_545 S
C199 C200 1.389 . S
C199 H221 0.929 . S
C200 C196 1.395 1_545 S
C200 C199 1.389 . S
C200 H222 0.931 . S
C201 C198 1.480 . S
C201 C202 1.388 . S
C201 C206 1.390 . S
C202 C201 1.388 . S
C202 C203 1.402 . S
C202 H223 0.930 . S
C203 C202 1.402 . S
C203 C204 1.376 . S
C203 C212 1.512 . S
C204 C203 1.376 . S
C204 C205 1.392 1_565 S
C204 H225 0.933 . S
C205 C204 1.392 1_545 S
C205 C206 1.361 1_545 S
C205 C207 1.499 . S
C206 C201 1.390 . S
C206 C205 1.361 1_565 S
C206 H224 0.931 . S
C207 C205 1.499 . S
C207 C208 1.357 1_545 S
C207 C209 1.380 . S
C208 C207 1.357 1_565 S
C208 C218 1.386 . S
C208 H226 0.931 . S
C209 C207 1.380 . S
C209 C210 1.409 . S
C209 H227 0.929 . S
C210 C209 1.409 . S
C210 C211 1.384 . S
C210 H228 0.930 . S
C211 C210 1.384 . S
C211 C218 1.353 1_545 S
C212 C203 1.512 . S
C212 C213 1.341 . S
C212 C214 1.371 1_565 S
C213 C212 1.341 . S
C213 C217 1.394 . S
C213 H229 0.930 . S
C214 C212 1.371 1_545 S
C214 C215 1.392 . S
C214 H230 0.931 . S
C215 C214 1.392 . S
C215 C216 1.325 1_545 S
C215 H233 0.932 . S
C216 C215 1.325 1_565 S
C216 C217 1.342 . S
C217 C213 1.394 . S
C217 C216 1.342 . S
C217 H232 0.929 . S
C218 C208 1.386 . S
C218 C211 1.353 1_565 S
C218 H231 0.928 . S
H219 C195 0.931 . S
H220 C197 0.930 . S
H221 C199 0.929 . S
H222 C200 0.931 . S
H223 C202 0.930 . S
H224 C206 0.931 . S
H225 C204 0.933 . S
H226 C208 0.931 . S
H227 C209 0.929 . S
H228 C210 0.930 . S
H229 C213 0.930 . S
H230 C214 0.931 . S
H231 C218 0.928 . S
H232 C217 0.929 . S
H233 C215 0.932 . S
C234 C235 1.386 1_655 S
C234 C236 1.397 . S
C234 H258 0.931 . S
C235 C234 1.386 1_455 S
C235 C239 1.397 . S
C236 C234 1.397 . S
C236 C237 1.384 1_655 S
C236 H259 0.930 . S
C237 C236 1.384 1_455 S
C237 C238 1.377 . S
C237 C240 1.481 . S
C238 C237 1.377 . S
C238 C239 1.389 . S
C238 H260 0.929 . S
C239 C235 1.397 . S
C239 C238 1.389 . S
C239 H261 0.931 . S
C240 C237 1.481 . S
C240 C241 1.387 . S
C240 C245 1.390 . S
C241 C240 1.387 . S
C241 C242 1.401 . S
C241 H262 0.929 1_455 S
C242 C241 1.401 . S
C242 C243 1.377 . S
C242 C251 1.511 1_455 S
C243 C242 1.377 . S
C243 C244 1.394 . S
C243 H264 0.930 . S
C244 C243 1.394 . S
C244 C245 1.361 . S
C244 C246 1.500 . S
C245 C240 1.390 . S
C245 C244 1.361 . S
C245 H263 0.931 . S
C246 C244 1.500 . S
C246 C247 1.371 1_455 S
C246 C248 1.365 . S
C247 C246 1.371 1_655 S
C247 C257 1.386 . S
C247 H265 0.931 . S
C248 C246 1.365 . S
C248 C249 1.409 . S
C248 H266 0.929 . S
C249 C248 1.409 . S
C249 C250 1.380 . S
C249 H267 0.930 . S
C250 C249 1.380 . S
C250 C257 1.357 1_455 S
C251 C242 1.511 1_655 S
C251 C252 1.341 . S
C251 C253 1.371 1_655 S
C252 C251 1.341 . S
C252 C256 1.394 . S
C252 H268 0.930 . S
C253 C251 1.371 1_455 S
C253 C254 1.392 . S
C253 H269 0.931 . S
C254 C253 1.392 . S
C254 C255 1.331 . S
C254 H272 0.932 . S
C255 C254 1.331 . S
C255 C256 1.336 1_455 S
C256 C252 1.394 . S
C256 C255 1.336 1_655 S
C256 H271 0.929 . S
C257 C247 1.386 . S
C257 C250 1.357 1_655 S
C257 H270 0.928 . S
H258 C234 0.931 . S
H259 C236 0.930 . S
H260 C238 0.929 . S
H261 C239 0.931 . S
H262 C241 0.929 1_655 S
H263 C245 0.931 . S
H264 C243 0.930 . S
H265 C247 0.931 . S
H266 C248 0.929 . S
H267 C249 0.930 . S
H268 C252 0.930 . S
H269 C253 0.931 . S
H270 C257 0.928 . S
H271 C256 0.929 . S
H272 C254 0.932 . S
C273 C274 1.388 . S
C273 C275 1.397 . S
C273 H297 0.931 . S
C274 C273 1.388 . S
C274 C278 1.395 1_565 S
C275 C273 1.397 . S
C275 C276 1.383 . S
C275 H298 0.930 . S
C276 C275 1.383 . S
C276 C277 1.379 1_565 S
C276 C279 1.480 . S
C277 C276 1.379 1_545 S
C277 C278 1.389 . S
C277 H299 0.929 . S
C278 C274 1.395 1_545 S
C278 C277 1.389 . S
C278 H300 0.931 . S
C279 C276 1.480 . S
C279 C280 1.388 . S
C279 C284 1.390 . S
C280 C279 1.388 . S
C280 C281 1.402 . S
C280 H301 0.930 . S
C281 C280 1.402 . S
C281 C282 1.376 . S
C281 C290 1.512 . S
C282 C281 1.376 . S
C282 C283 1.392 1_565 S
C282 H303 0.933 . S
C283 C282 1.392 1_545 S
C283 C284 1.361 1_545 S
C283 C285 1.499 . S
C284 C279 1.390 . S
C284 C283 1.361 1_565 S
C284 H302 0.931 . S
C285 C283 1.499 . S
C285 C286 1.357 1_545 S
C285 C287 1.380 . S
C286 C285 1.357 1_565 S
C286 C296 1.386 . S
C286 H304 0.931 . S
C287 C285 1.380 . S
C287 C288 1.409 . S
C287 H305 0.929 . S
C288 C287 1.409 . S
C288 C289 1.384 . S
C288 H306 0.930 . S
C289 C288 1.384 . S
C289 C296 1.353 1_545 S
C290 C281 1.512 . S
C290 C291 1.341 . S
C290 C292 1.371 1_565 S
C291 C290 1.341 . S
C291 C295 1.394 . S
C291 H307 0.930 . S
C292 C290 1.371 1_545 S
C292 C293 1.392 . S
C292 H308 0.931 . S
C293 C292 1.392 . S
C293 C294 1.325 1_545 S
C293 H311 0.932 . S
C294 C293 1.325 1_565 S
C294 C295 1.342 . S
C295 C291 1.394 . S
C295 C294 1.342 . S
C295 H310 0.929 . S
C296 C286 1.386 . S
C296 C289 1.353 1_565 S
C296 H309 0.928 . S
H297 C273 0.931 . S
H298 C275 0.930 . S
H299 C277 0.929 . S
H300 C278 0.931 . S
H301 C280 0.930 . S
H302 C284 0.931 . S
H303 C282 0.933 . S
H304 C286 0.931 . S
H305 C287 0.929 . S
H306 C288 0.930 . S
H307 C291 0.930 . S
H308 C292 0.931 . S
H309 C296 0.928 . S
H310 C295 0.929 . S
H311 C293 0.932 . S
C312 C313 1.388 . S
C312 C314 1.397 . S
C312 H336 0.931 . S
C313 C312 1.388 . S
C313 C317 1.395 1_556 S
C314 C312 1.397 . S
C314 C315 1.383 . S
C314 H337 0.930 . S
C315 C314 1.383 . S
C315 C316 1.379 1_556 S
C315 C318 1.480 . S
C316 C315 1.379 1_554 S
C316 C317 1.389 . S
C316 H338 0.929 . S
C317 C313 1.395 1_554 S
C317 C316 1.389 . S
C317 H339 0.931 . S
C318 C315 1.480 . S
C318 C319 1.388 . S
C318 C323 1.390 . S
C319 C318 1.388 . S
C319 C320 1.402 . S
C319 H340 0.930 . S
C320 C319 1.402 . S
C320 C321 1.376 . S
C320 C329 1.512 . S
C321 C320 1.376 . S
C321 C322 1.392 1_556 S
C321 H342 0.933 . S
C322 C321 1.392 1_554 S
C322 C323 1.361 1_554 S
C322 C324 1.499 . S
C323 C318 1.390 . S
C323 C322 1.361 1_556 S
C323 H341 0.931 . S
C324 C322 1.499 . S
C324 C325 1.357 1_554 S
C324 C326 1.380 . S
C325 C324 1.357 1_556 S
C325 C335 1.386 . S
C325 H343 0.931 . S
C326 C324 1.380 . S
C326 C327 1.409 . S
C326 H344 0.929 . S
C327 C326 1.409 . S
C327 C328 1.384 . S
C327 H345 0.930 . S
C328 C327 1.384 . S
C328 C335 1.353 1_554 S
C329 C320 1.512 . S
C329 C330 1.341 . S
C329 C331 1.371 1_556 S
C330 C329 1.341 . S
C330 C334 1.394 . S
C330 H346 0.930 . S
C331 C329 1.371 1_554 S
C331 C332 1.392 . S
C331 H347 0.931 . S
C332 C331 1.392 . S
C332 C333 1.325 1_554 S
C332 H350 0.932 . S
C333 C332 1.325 1_556 S
C333 C334 1.342 . S
C334 C330 1.394 . S
C334 C333 1.342 . S
C334 H349 0.929 . S
C335 C325 1.386 . S
C335 C328 1.353 1_556 S
C335 H348 0.928 . S
H336 C312 0.931 . S
H337 C314 0.930 . S
H338 C316 0.929 . S
H339 C317 0.931 . S
H340 C319 0.930 . S
H341 C323 0.931 . S
H342 C321 0.933 . S
H343 C325 0.931 . S
H344 C326 0.929 . S
H345 C327 0.930 . S
H346 C330 0.930 . S
H347 C331 0.931 . S
H348 C335 0.928 . S
H349 C334 0.929 . S
H350 C332 0.932 . S
C351 C352 1.395 . S
C351 C353 1.397 . S
C351 H375 0.931 . S
C352 C351 1.395 . S
C352 C356 1.388 1_554 S
C353 C351 1.397 . S
C353 C354 1.390 . S
C353 H376 0.930 . S
C354 C353 1.390 . S
C354 C355 1.372 1_554 S
C354 C357 1.480 . S
C355 C354 1.372 1_556 S
C355 C356 1.389 . S
C355 H377 0.929 . S
C356 C352 1.388 1_556 S
C356 C355 1.389 . S
C356 H378 0.931 . S
C357 C354 1.480 . S
C357 C358 1.389 . S
C357 C362 1.390 . S
C358 C357 1.389 . S
C358 C359 1.402 . S
C358 H379 0.930 . S
C359 C358 1.402 . S
C359 C360 1.377 . S
C359 C368 1.513 . S
C360 C359 1.377 . S
C360 C361 1.392 . S
C360 H381 0.931 . S
C361 C360 1.392 . S
C361 C362 1.361 . S
C361 C363 1.499 1_554 S
C362 C357 1.390 . S
C362 C361 1.361 . S
C362 H380 0.931 . S
C363 C361 1.499 1_556 S
C363 C364 1.362 1_556 S
C363 C365 1.375 . S
C364 C363 1.362 1_554 S
C364 C374 1.386 . S
C364 H382 0.931 . S
C365 C363 1.375 . S
C365 C366 1.409 . S
C365 H383 0.929 . S
C366 C365 1.409 . S
C366 C367 1.379 . S
C366 H384 0.930 . S
C367 C366 1.379 . S
C367 C374 1.358 1_556 S
C368 C359 1.513 . S
C368 C369 1.341 . S
C368 C370 1.371 1_554 S
C369 C368 1.341 . S
C369 C373 1.394 . S
C369 H385 0.930 . S
C370 C368 1.371 1_556 S
C370 C371 1.392 . S
C370 H386 0.931 . S
C371 C370 1.392 . S
C371 C372 1.322 1_556 S
C371 H389 0.932 . S
C372 C371 1.322 1_554 S
C372 C373 1.346 . S
C373 C369 1.394 . S
C373 C372 1.346 . S
C373 H388 0.929 . S
C374 C364 1.386 . S
C374 C367 1.358 1_554 S
C374 H387 0.928 . S
H375 C351 0.931 . S
H376 C353 0.930 . S
H377 C355 0.929 . S
H378 C356 0.931 . S
H379 C358 0.930 . S
H380 C362 0.931 . S
H381 C360 0.931 . S
H382 C364 0.931 . S
H383 C365 0.929 . S
H384 C366 0.930 . S
H385 C369 0.930 . S
H386 C370 0.931 . S
H387 C374 0.928 . S
H388 C373 0.929 . S
H389 C371 0.932 . S
C390 C391 1.388 . S
C390 C392 1.397 . S
C390 H414 0.931 . S
C391 C390 1.388 . S
C391 C395 1.395 1_556 S
C392 C390 1.397 . S
C392 C393 1.383 . S
C392 H415 0.930 . S
C393 C392 1.383 . S
C393 C394 1.379 1_556 S
C393 C396 1.480 . S
C394 C393 1.379 1_554 S
C394 C395 1.389 . S
C394 H416 0.929 . S
C395 C391 1.395 1_554 S
C395 C394 1.389 . S
C395 H417 0.931 . S
C396 C393 1.480 . S
C396 C397 1.388 . S
C396 C401 1.390 . S
C397 C396 1.388 . S
C397 C398 1.402 . S
C397 H418 0.930 . S
C398 C397 1.402 . S
C398 C399 1.376 . S
C398 C407 1.512 . S
C399 C398 1.376 . S
C399 C400 1.392 1_556 S
C399 H420 0.933 . S
C400 C399 1.392 1_554 S
C400 C401 1.361 1_554 S
C400 C402 1.499 . S
C401 C396 1.390 . S
C401 C400 1.361 1_556 S
C401 H419 0.931 . S
C402 C400 1.499 . S
C402 C403 1.357 1_554 S
C402 C404 1.380 . S
C403 C402 1.357 1_556 S
C403 C413 1.386 . S
C403 H421 0.931 . S
C404 C402 1.380 . S
C404 C405 1.409 . S
C404 H422 0.929 . S
C405 C404 1.409 . S
C405 C406 1.384 . S
C405 H423 0.930 . S
C406 C405 1.384 . S
C406 C413 1.353 1_554 S
C407 C398 1.512 . S
C407 C408 1.341 . S
C407 C409 1.371 1_556 S
C408 C407 1.341 . S
C408 C412 1.394 . S
C408 H424 0.930 . S
C409 C407 1.371 1_554 S
C409 C410 1.392 . S
C409 H425 0.931 . S
C410 C409 1.392 . S
C410 C411 1.325 1_554 S
C410 H428 0.932 . S
C411 C410 1.325 1_556 S
C411 C412 1.342 . S
C412 C408 1.394 . S
C412 C411 1.342 . S
C412 H427 0.929 . S
C413 C403 1.386 . S
C413 C406 1.353 1_556 S
C413 H426 0.928 . S
H414 C390 0.931 . S
H415 C392 0.930 . S
H416 C394 0.929 . S
H417 C395 0.931 . S
H418 C397 0.930 . S
H419 C401 0.931 . S
H420 C399 0.933 . S
H421 C403 0.931 . S
H422 C404 0.929 . S
H423 C405 0.930 . S
H424 C408 0.930 . S
H425 C409 0.931 . S
H426 C413 0.928 . S
H427 C412 0.929 . S
H428 C410 0.932 . S
C429 C430 1.395 . S
C429 C431 1.397 . S
C429 H453 0.931 . S
C430 C429 1.395 . S
C430 C434 1.388 1_554 S
C431 C429 1.397 . S
C431 C432 1.390 . S
C431 H454 0.930 . S
C432 C431 1.390 . S
C432 C433 1.372 1_554 S
C432 C435 1.480 . S
C433 C432 1.372 1_556 S
C433 C434 1.389 . S
C433 H455 0.929 . S
C434 C430 1.388 1_556 S
C434 C433 1.389 . S
C434 H456 0.931 . S
C435 C432 1.480 . S
C435 C436 1.389 . S
C435 C440 1.390 . S
C436 C435 1.389 . S
C436 C437 1.402 . S
C436 H457 0.930 . S
C437 C436 1.402 . S
C437 C438 1.377 . S
C437 C446 1.513 . S
C438 C437 1.377 . S
C438 C439 1.392 . S
C438 H459 0.931 . S
C439 C438 1.392 . S
C439 C440 1.361 . S
C439 C441 1.499 1_554 S
C440 C435 1.390 . S
C440 C439 1.361 . S
C440 H458 0.931 . S
C441 C439 1.499 1_556 S
C441 C442 1.362 1_556 S
C441 C443 1.375 . S
C442 C441 1.362 1_554 S
C442 C452 1.386 . S
C442 H460 0.931 . S
C443 C441 1.375 . S
C443 C444 1.409 . S
C443 H461 0.929 . S
C444 C443 1.409 . S
C444 C445 1.379 . S
C444 H462 0.930 . S
C445 C444 1.379 . S
C445 C452 1.358 1_556 S
C446 C437 1.513 . S
C446 C447 1.341 . S
C446 C448 1.371 1_554 S
C447 C446 1.341 . S
C447 C451 1.394 . S
C447 H463 0.930 . S
C448 C446 1.371 1_556 S
C448 C449 1.392 . S
C448 H464 0.931 . S
C449 C448 1.392 . S
C449 C450 1.322 1_556 S
C449 H467 0.932 . S
C450 C449 1.322 1_554 S
C450 C451 1.346 . S
C451 C447 1.394 . S
C451 C450 1.346 . S
C451 H466 0.929 . S
C452 C442 1.386 . S
C452 C445 1.358 1_554 S
C452 H465 0.928 . S
H453 C429 0.931 . S
H454 C431 0.930 . S
H455 C433 0.929 . S
H456 C434 0.931 . S
H457 C436 0.930 . S
H458 C440 0.931 . S
H459 C438 0.931 . S
H460 C442 0.931 . S
H461 C443 0.929 . S
H462 C444 0.930 . S
H463 C447 0.930 . S
H464 C448 0.931 . S
H465 C452 0.928 . S
H466 C451 0.929 . S
H467 C449 0.932 . S
C468 C469 1.386 . S
C468 C470 1.397 . S
C468 H492 0.931 . S
C469 C468 1.386 . S
C469 C473 1.397 . S
C470 C468 1.397 . S
C470 C471 1.384 . S
C470 H493 0.930 . S
C471 C470 1.384 . S
C471 C472 1.377 . S
C471 C474 1.481 . S
C472 C471 1.377 . S
C472 C473 1.389 . S
C472 H494 0.929 . S
C473 C469 1.397 . S
C473 C472 1.389 . S
C473 H495 0.931 . S
C474 C471 1.481 . S
C474 C475 1.387 . S
C474 C479 1.390 . S
C475 C474 1.387 . S
C475 C476 1.401 . S
C475 H496 0.930 . S
C476 C475 1.401 . S
C476 C477 1.376 . S
C476 C485 1.511 . S
C477 C476 1.376 . S
C477 C478 1.392 . S
C477 H498 0.931 . S
C478 C477 1.392 . S
C478 C479 1.361 . S
C478 C480 1.500 . S
C479 C474 1.390 . S
C479 C478 1.361 . S
C479 H497 0.931 . S
C480 C478 1.500 . S
C480 C481 1.371 . S
C480 C482 1.365 . S
C481 C480 1.371 . S
C481 C491 1.386 . S
C481 H499 0.931 . S
C482 C480 1.365 . S
C482 C483 1.409 . S
C482 H500 0.929 . S
C483 C482 1.409 . S
C483 C484 1.380 . S
C483 H501 0.930 . S
C484 C483 1.380 . S
C484 C491 1.357 . S
C485 C476 1.511 . S
C485 C486 1.341 . S
C485 C487 1.371 . S
C486 C485 1.341 . S
C486 C490 1.394 . S
C486 H502 0.930 . S
C487 C485 1.371 . S
C487 C488 1.392 . S
C487 H503 0.931 . S
C488 C487 1.392 . S
C488 C489 1.331 . S
C488 H506 0.932 . S
C489 C488 1.331 . S
C489 C490 1.336 . S
C490 C486 1.394 . S
C490 C489 1.336 . S
C490 H505 0.929 . S
C491 C481 1.386 . S
C491 C484 1.357 . S
C491 H504 0.928 . S
H492 C468 0.931 . S
H493 C470 0.930 . S
H494 C472 0.929 . S
H495 C473 0.931 . S
H496 C475 0.930 . S
H497 C479 0.931 . S
H498 C477 0.931 . S
H499 C481 0.931 . S
H500 C482 0.929 . S
H501 C483 0.930 . S
H502 C486 0.930 . S
H503 C487 0.931 . S
H504 C491 0.928 . S
H505 C490 0.929 . S
H506 C488 0.932 . S
C507 C508 1.386 . S
C507 C509 1.397 . S
C507 H531 0.931 . S
C508 C507 1.386 . S
C508 C512 1.397 . S
C509 C507 1.397 . S
C509 C510 1.384 . S
C509 H532 0.930 . S
C510 C509 1.384 . S
C510 C511 1.377 . S
C510 C513 1.481 . S
C511 C510 1.377 . S
C511 C512 1.389 . S
C511 H533 0.929 . S
C512 C508 1.397 . S
C512 C511 1.389 . S
C512 H534 0.931 . S
C513 C510 1.481 . S
C513 C514 1.387 . S
C513 C518 1.390 . S
C514 C513 1.387 . S
C514 C515 1.401 . S
C514 H535 0.930 . S
C515 C514 1.401 . S
C515 C516 1.376 . S
C515 C524 1.511 . S
C516 C515 1.376 . S
C516 C517 1.392 . S
C516 H537 0.931 . S
C517 C516 1.392 . S
C517 C518 1.361 . S
C517 C519 1.500 . S
C518 C513 1.390 . S
C518 C517 1.361 . S
C518 H536 0.931 . S
C519 C517 1.500 . S
C519 C520 1.371 . S
C519 C521 1.365 . S
C520 C519 1.371 . S
C520 C530 1.386 . S
C520 H538 0.931 . S
C521 C519 1.365 . S
C521 C522 1.409 . S
C521 H539 0.929 . S
C522 C521 1.409 . S
C522 C523 1.380 . S
C522 H540 0.930 . S
C523 C522 1.380 . S
C523 C530 1.357 . S
C524 C515 1.511 . S
C524 C525 1.341 . S
C524 C526 1.371 . S
C525 C524 1.341 . S
C525 C529 1.394 . S
C525 H541 0.930 . S
C526 C524 1.371 . S
C526 C527 1.392 . S
C526 H542 0.931 . S
C527 C526 1.392 . S
C527 C528 1.331 . S
C527 H545 0.932 . S
C528 C527 1.331 . S
C528 C529 1.336 . S
C529 C525 1.394 . S
C529 C528 1.336 . S
C529 H544 0.929 . S
C530 C520 1.386 . S
C530 C523 1.357 . S
C530 H543 0.928 . S
H531 C507 0.931 . S
H532 C509 0.930 . S
H533 C511 0.929 . S
H534 C512 0.931 . S
H535 C514 0.930 . S
H536 C518 0.931 . S
H537 C516 0.931 . S
H538 C520 0.931 . S
H539 C521 0.929 . S
H540 C522 0.930 . S
H541 C525 0.930 . S
H542 C526 0.931 . S
H543 C530 0.928 . S
H544 C529 0.929 . S
H545 C527 0.932 . S
C546 C547 1.386 . S
C546 C548 1.397 . S
C546 H570 0.931 . S
C547 C546 1.386 . S
C547 C551 1.397 . S
C548 C546 1.397 . S
C548 C549 1.384 . S
C548 H571 0.930 . S
C549 C548 1.384 . S
C549 C550 1.377 . S
C549 C552 1.481 . S
C550 C549 1.377 . S
C550 C551 1.389 . S
C550 H572 0.929 . S
C551 C547 1.397 . S
C551 C550 1.389 . S
C551 H573 0.931 . S
C552 C549 1.481 . S
C552 C553 1.387 . S
C552 C557 1.390 . S
C553 C552 1.387 . S
C553 C554 1.401 . S
C553 H574 0.930 . S
C554 C553 1.401 . S
C554 C555 1.376 . S
C554 C563 1.511 . S
C555 C554 1.376 . S
C555 C556 1.392 . S
C555 H576 0.931 . S
C556 C555 1.392 . S
C556 C557 1.361 . S
C556 C558 1.500 . S
C557 C552 1.390 . S
C557 C556 1.361 . S
C557 H575 0.931 . S
C558 C556 1.500 . S
C558 C559 1.371 . S
C558 C560 1.365 . S
C559 C558 1.371 . S
C559 C569 1.386 . S
C559 H577 0.931 . S
C560 C558 1.365 . S
C560 C561 1.409 . S
C560 H578 0.929 . S
C561 C560 1.409 . S
C561 C562 1.380 . S
C561 H579 0.930 . S
C562 C561 1.380 . S
C562 C569 1.357 . S
C563 C554 1.511 . S
C563 C564 1.341 . S
C563 C565 1.371 . S
C564 C563 1.341 . S
C564 C568 1.394 . S
C564 H580 0.930 . S
C565 C563 1.371 . S
C565 C566 1.392 . S
C565 H581 0.931 . S
C566 C565 1.392 . S
C566 C567 1.331 . S
C566 H584 0.932 . S
C567 C566 1.331 . S
C567 C568 1.336 . S
C568 C564 1.394 . S
C568 C567 1.336 . S
C568 H583 0.929 . S
C569 C559 1.386 . S
C569 C562 1.357 . S
C569 H582 0.928 . S
H570 C546 0.931 . S
H571 C548 0.930 . S
H572 C550 0.929 . S
H573 C551 0.931 . S
H574 C553 0.930 . S
H575 C557 0.931 . S
H576 C555 0.931 . S
H577 C559 0.931 . S
H578 C560 0.929 . S
H579 C561 0.930 . S
H580 C564 0.930 . S
H581 C565 0.931 . S
H582 C569 0.928 . S
H583 C568 0.929 . S
H584 C566 0.932 . S
C585 C586 1.386 . S
C585 C587 1.397 . S
C585 H609 0.931 . S
C586 C585 1.386 . S
C586 C590 1.397 . S
C587 C585 1.397 . S
C587 C588 1.384 . S
C587 H610 0.930 . S
C588 C587 1.384 . S
C588 C589 1.377 . S
C588 C591 1.481 . S
C589 C588 1.377 . S
C589 C590 1.389 . S
C589 H611 0.929 . S
C590 C586 1.397 . S
C590 C589 1.389 . S
C590 H612 0.931 . S
C591 C588 1.481 . S
C591 C592 1.387 . S
C591 C596 1.390 . S
C592 C591 1.387 . S
C592 C593 1.401 . S
C592 H613 0.930 . S
C593 C592 1.401 . S
C593 C594 1.376 . S
C593 C602 1.511 . S
C594 C593 1.376 . S
C594 C595 1.392 . S
C594 H615 0.931 . S
C595 C594 1.392 . S
C595 C596 1.361 . S
C595 C597 1.500 . S
C596 C591 1.390 . S
C596 C595 1.361 . S
C596 H614 0.931 . S
C597 C595 1.500 . S
C597 C598 1.371 . S
C597 C599 1.365 . S
C598 C597 1.371 . S
C598 C608 1.386 . S
C598 H616 0.931 . S
C599 C597 1.365 . S
C599 C600 1.409 . S
C599 H617 0.929 . S
C600 C599 1.409 . S
C600 C601 1.380 . S
C600 H618 0.930 . S
C601 C600 1.380 . S
C601 C608 1.357 . S
C602 C593 1.511 . S
C602 C603 1.341 . S
C602 C604 1.371 . S
C603 C602 1.341 . S
C603 C607 1.394 . S
C603 H619 0.930 . S
C604 C602 1.371 . S
C604 C605 1.392 . S
C604 H620 0.931 . S
C605 C604 1.392 . S
C605 C606 1.331 . S
C605 H623 0.932 . S
C606 C605 1.331 . S
C606 C607 1.336 . S
C607 C603 1.394 . S
C607 C606 1.336 . S
C607 H622 0.929 . S
C608 C598 1.386 . S
C608 C601 1.357 . S
C608 H621 0.928 . S
H609 C585 0.931 . S
H610 C587 0.930 . S
H611 C589 0.929 . S
H612 C590 0.931 . S
H613 C592 0.930 . S
H614 C596 0.931 . S
H615 C594 0.931 . S
H616 C598 0.931 . S
H617 C599 0.929 . S
H618 C600 0.930 . S
H619 C603 0.930 . S
H620 C604 0.931 . S
H621 C608 0.928 . S
H622 C607 0.929 . S
H623 C605 0.932 . S
C624 C625 1.386 . S
C624 C626 1.397 . S
C624 H648 0.931 . S
C625 C624 1.386 . S
C625 C629 1.397 . S
C626 C624 1.397 . S
C626 C627 1.384 . S
C626 H649 0.930 . S
C627 C626 1.384 . S
C627 C628 1.377 . S
C627 C630 1.481 . S
C628 C627 1.377 . S
C628 C629 1.389 . S
C628 H650 0.929 . S
C629 C625 1.397 . S
C629 C628 1.389 . S
C629 H651 0.931 . S
C630 C627 1.481 . S
C630 C631 1.387 . S
C630 C635 1.390 . S
C631 C630 1.387 . S
C631 C632 1.401 . S
C631 H652 0.930 . S
C632 C631 1.401 . S
C632 C633 1.376 . S
C632 C641 1.511 . S
C633 C632 1.376 . S
C633 C634 1.392 . S
C633 H654 0.931 . S
C634 C633 1.392 . S
C634 C635 1.361 . S
C634 C636 1.500 . S
C635 C630 1.390 . S
C635 C634 1.361 . S
C635 H653 0.931 . S
C636 C634 1.500 . S
C636 C637 1.371 . S
C636 C638 1.365 . S
C637 C636 1.371 . S
C637 C647 1.386 . S
C637 H655 0.931 . S
C638 C636 1.365 . S
C638 C639 1.409 . S
C638 H656 0.929 . S
C639 C638 1.409 . S
C639 C640 1.380 . S
C639 H657 0.930 . S
C640 C639 1.380 . S
C640 C647 1.357 . S
C641 C632 1.511 . S
C641 C642 1.341 . S
C641 C643 1.371 . S
C642 C641 1.341 . S
C642 C646 1.394 . S
C642 H658 0.930 . S
C643 C641 1.371 . S
C643 C644 1.392 . S
C643 H659 0.931 . S
C644 C643 1.392 . S
C644 C645 1.331 . S
C644 H662 0.932 . S
C645 C644 1.331 . S
C645 C646 1.336 . S
C646 C642 1.394 . S
C646 C645 1.336 . S
C646 H661 0.929 . S
C647 C637 1.386 . S
C647 C640 1.357 . S
C647 H660 0.928 . S
H648 C624 0.931 . S
H649 C626 0.930 . S
H650 C628 0.929 . S
H651 C629 0.931 . S
H652 C631 0.930 . S
H653 C635 0.931 . S
H654 C633 0.931 . S
H655 C637 0.931 . S
H656 C638 0.929 . S
H657 C639 0.930 . S
H658 C642 0.930 . S
H659 C643 0.931 . S
H660 C647 0.928 . S
H661 C646 0.929 . S
H662 C644 0.932 . S
C663 C664 1.386 . S
C663 C665 1.397 . S
C663 H687 0.931 . S
C664 C663 1.386 . S
C664 C668 1.397 . S
C665 C663 1.397 . S
C665 C666 1.384 . S
C665 H688 0.930 . S
C666 C665 1.384 . S
C666 C667 1.377 . S
C666 C669 1.481 . S
C667 C666 1.377 . S
C667 C668 1.389 . S
C667 H689 0.929 . S
C668 C664 1.397 . S
C668 C667 1.389 . S
C668 H690 0.931 . S
C669 C666 1.481 . S
C669 C670 1.387 . S
C669 C674 1.390 . S
C670 C669 1.387 . S
C670 C671 1.401 . S
C670 H691 0.930 . S
C671 C670 1.401 . S
C671 C672 1.376 . S
C671 C680 1.511 . S
C672 C671 1.376 . S
C672 C673 1.392 . S
C672 H693 0.931 . S
C673 C672 1.392 . S
C673 C674 1.361 . S
C673 C675 1.500 . S
C674 C669 1.390 . S
C674 C673 1.361 . S
C674 H692 0.931 . S
C675 C673 1.500 . S
C675 C676 1.371 . S
C675 C677 1.365 . S
C676 C675 1.371 . S
C676 C686 1.386 . S
C676 H694 0.931 . S
C677 C675 1.365 . S
C677 C678 1.409 . S
C677 H695 0.929 . S
C678 C677 1.409 . S
C678 C679 1.380 . S
C678 H696 0.930 . S
C679 C678 1.380 . S
C679 C686 1.357 . S
C680 C671 1.511 . S
C680 C681 1.341 . S
C680 C682 1.371 . S
C681 C680 1.341 . S
C681 C685 1.394 . S
C681 H697 0.930 . S
C682 C680 1.371 . S
C682 C683 1.392 . S
C682 H698 0.931 . S
C683 C682 1.392 . S
C683 C684 1.331 . S
C683 H701 0.932 . S
C684 C683 1.331 . S
C684 C685 1.336 . S
C685 C681 1.394 . S
C685 C684 1.336 . S
C685 H700 0.929 . S
C686 C676 1.386 . S
C686 C679 1.357 . S
C686 H699 0.928 . S
H687 C663 0.931 . S
H688 C665 0.930 . S
H689 C667 0.929 . S
H690 C668 0.931 . S
H691 C670 0.930 . S
H692 C674 0.931 . S
H693 C672 0.931 . S
H694 C676 0.931 . S
H695 C677 0.929 . S
H696 C678 0.930 . S
H697 C681 0.930 . S
H698 C682 0.931 . S
H699 C686 0.928 . S
H700 C685 0.929 . S
H701 C683 0.932 . S
C702 C703 1.386 . S
C702 C704 1.397 . S
C702 H726 0.931 . S
C703 C702 1.386 . S
C703 C707 1.397 . S
C704 C702 1.397 . S
C704 C705 1.384 . S
C704 H727 0.930 . S
C705 C704 1.384 . S
C705 C706 1.377 . S
C705 C708 1.481 . S
C706 C705 1.377 . S
C706 C707 1.389 . S
C706 H728 0.929 . S
C707 C703 1.397 . S
C707 C706 1.389 . S
C707 H729 0.931 . S
C708 C705 1.481 . S
C708 C709 1.387 . S
C708 C713 1.390 . S
C709 C708 1.387 . S
C709 C710 1.401 . S
C709 H730 0.930 . S
C710 C709 1.401 . S
C710 C711 1.376 . S
C710 C719 1.511 . S
C711 C710 1.376 . S
C711 C712 1.392 . S
C711 H732 0.931 . S
C712 C711 1.392 . S
C712 C713 1.361 . S
C712 C714 1.500 . S
C713 C708 1.390 . S
C713 C712 1.361 . S
C713 H731 0.931 . S
C714 C712 1.500 . S
C714 C715 1.371 . S
C714 C716 1.365 . S
C715 C714 1.371 . S
C715 C725 1.386 . S
C715 H733 0.931 . S
C716 C714 1.365 . S
C716 C717 1.409 . S
C716 H734 0.929 . S
C717 C716 1.409 . S
C717 C718 1.380 . S
C717 H735 0.930 . S
C718 C717 1.380 . S
C718 C725 1.357 . S
C719 C710 1.511 . S
C719 C720 1.341 . S
C719 C721 1.371 . S
C720 C719 1.341 . S
C720 C724 1.394 . S
C720 H736 0.930 . S
C721 C719 1.371 . S
C721 C722 1.392 . S
C721 H737 0.931 . S
C722 C721 1.392 . S
C722 C723 1.331 . S
C722 H740 0.932 . S
C723 C722 1.331 . S
C723 C724 1.336 . S
C724 C720 1.394 . S
C724 C723 1.336 . S
C724 H739 0.929 . S
C725 C715 1.386 . S
C725 C718 1.357 . S
C725 H738 0.928 . S
H726 C702 0.931 . S
H727 C704 0.930 . S
H728 C706 0.929 . S
H729 C707 0.931 . S
H730 C709 0.930 . S
H731 C713 0.931 . S
H732 C711 0.931 . S
H733 C715 0.931 . S
H734 C716 0.929 . S
H735 C717 0.930 . S
H736 C720 0.930 . S
H737 C721 0.931 . S
H738 C725 0.928 . S
H739 C724 0.929 . S
H740 C722 0.932 . S
C741 C742 1.386 . S
C741 C743 1.397 . S
C741 H765 0.931 . S
C742 C741 1.386 . S
C742 C746 1.397 . S
C743 C741 1.397 . S
C743 C744 1.384 . S
C743 H766 0.930 . S
C744 C743 1.384 . S
C744 C745 1.377 . S
C744 C747 1.481 . S
C745 C744 1.377 . S
C745 C746 1.389 . S
C745 H767 0.929 . S
C746 C742 1.397 . S
C746 C745 1.389 . S
C746 H768 0.931 . S
C747 C744 1.481 . S
C747 C748 1.387 . S
C747 C752 1.390 . S
C748 C747 1.387 . S
C748 C749 1.401 . S
C748 H769 0.930 . S
C749 C748 1.401 . S
C749 C750 1.376 . S
C749 C758 1.511 . S
C750 C749 1.376 . S
C750 C751 1.392 . S
C750 H771 0.931 . S
C751 C750 1.392 . S
C751 C752 1.361 . S
C751 C753 1.500 . S
C752 C747 1.390 . S
C752 C751 1.361 . S
C752 H770 0.931 . S
C753 C751 1.500 . S
C753 C754 1.371 . S
C753 C755 1.365 . S
C754 C753 1.371 . S
C754 C764 1.386 . S
C754 H772 0.931 . S
C755 C753 1.365 . S
C755 C756 1.409 . S
C755 H773 0.929 . S
C756 C755 1.409 . S
C756 C757 1.380 . S
C756 H774 0.930 . S
C757 C756 1.380 . S
C757 C764 1.357 . S
C758 C749 1.511 . S
C758 C759 1.341 . S
C758 C760 1.371 . S
C759 C758 1.341 . S
C759 C763 1.394 . S
C759 H775 0.930 . S
C760 C758 1.371 . S
C760 C761 1.392 . S
C760 H776 0.931 . S
C761 C760 1.392 . S
C761 C762 1.331 . S
C761 H779 0.932 . S
C762 C761 1.331 . S
C762 C763 1.336 . S
C763 C759 1.394 . S
C763 C762 1.336 . S
C763 H778 0.929 . S
C764 C754 1.386 . S
C764 C757 1.357 . S
C764 H777 0.928 . S
H765 C741 0.931 . S
H766 C743 0.930 . S
H767 C745 0.929 . S
H768 C746 0.931 . S
H769 C748 0.930 . S
H770 C752 0.931 . S
H771 C750 0.931 . S
H772 C754 0.931 . S
H773 C755 0.929 . S
H774 C756 0.930 . S
H775 C759 0.930 . S
H776 C760 0.931 . S
H777 C764 0.928 . S
H778 C763 0.929 . S
H779 C761 0.932 . S
C780 C781 1.386 . S
C780 C782 1.397 . S
C780 H804 0.931 . S
C781 C780 1.386 . S
C781 C785 1.397 . S
C782 C780 1.397 . S
C782 C783 1.384 . S
C782 H805 0.930 . S
C783 C782 1.384 . S
C783 C784 1.377 . S
C783 C786 1.481 . S
C784 C783 1.377 . S
C784 C785 1.389 . S
C784 H806 0.929 . S
C785 C781 1.397 . S
C785 C784 1.389 . S
C785 H807 0.931 . S
C786 C783 1.481 . S
C786 C787 1.387 . S
C786 C791 1.390 . S
C787 C786 1.387 . S
C787 C788 1.401 . S
C787 H808 0.930 . S
C788 C787 1.401 . S
C788 C789 1.376 . S
C788 C797 1.511 . S
C789 C788 1.376 . S
C789 C790 1.392 . S
C789 H810 0.931 . S
C790 C789 1.392 . S
C790 C791 1.361 . S
C790 C792 1.500 . S
C791 C786 1.390 . S
C791 C790 1.361 . S
C791 H809 0.931 . S
C792 C790 1.500 . S
C792 C793 1.371 . S
C792 C794 1.365 . S
C793 C792 1.371 . S
C793 C803 1.386 . S
C793 H811 0.931 . S
C794 C792 1.365 . S
C794 C795 1.409 . S
C794 H812 0.929 . S
C795 C794 1.409 . S
C795 C796 1.380 . S
C795 H813 0.930 . S
C796 C795 1.380 . S
C796 C803 1.357 . S
C797 C788 1.511 . S
C797 C798 1.341 . S
C797 C799 1.371 . S
C798 C797 1.341 . S
C798 C802 1.394 . S
C798 H814 0.930 . S
C799 C797 1.371 . S
C799 C800 1.392 . S
C799 H815 0.931 . S
C800 C799 1.392 . S
C800 C801 1.331 . S
C800 H818 0.932 . S
C801 C800 1.331 . S
C801 C802 1.336 . S
C802 C798 1.394 . S
C802 C801 1.336 . S
C802 H817 0.929 . S
C803 C793 1.386 . S
C803 C796 1.357 . S
C803 H816 0.928 . S
H804 C780 0.931 . S
H805 C782 0.930 . S
H806 C784 0.929 . S
H807 C785 0.931 . S
H808 C787 0.930 . S
H809 C791 0.931 . S
H810 C789 0.931 . S
H811 C793 0.931 . S
H812 C794 0.929 . S
H813 C795 0.930 . S
H814 C798 0.930 . S
H815 C799 0.931 . S
H816 C803 0.928 . S
H817 C802 0.929 . S
H818 C800 0.932 . S
C819 C820 1.386 . S
C819 C821 1.397 . S
C819 H843 0.931 . S
C820 C819 1.386 . S
C820 C824 1.397 . S
C821 C819 1.397 . S
C821 C822 1.384 . S
C821 H844 0.930 . S
C822 C821 1.384 . S
C822 C823 1.377 . S
C822 C825 1.481 . S
C823 C822 1.377 . S
C823 C824 1.389 . S
C823 H845 0.929 . S
C824 C820 1.397 . S
C824 C823 1.389 . S
C824 H846 0.931 . S
C825 C822 1.481 . S
C825 C826 1.387 . S
C825 C830 1.390 . S
C826 C825 1.387 . S
C826 C827 1.401 . S
C826 H847 0.930 . S
C827 C826 1.401 . S
C827 C828 1.376 . S
C827 C836 1.511 . S
C828 C827 1.376 . S
C828 C829 1.392 . S
C828 H849 0.931 . S
C829 C828 1.392 . S
C829 C830 1.361 . S
C829 C831 1.500 . S
C830 C825 1.390 . S
C830 C829 1.361 . S
C830 H848 0.931 . S
C831 C829 1.500 . S
C831 C832 1.371 . S
C831 C833 1.365 . S
C832 C831 1.371 . S
C832 C842 1.386 . S
C832 H850 0.931 . S
C833 C831 1.365 . S
C833 C834 1.409 . S
C833 H851 0.929 . S
C834 C833 1.409 . S
C834 C835 1.380 . S
C834 H852 0.930 . S
C835 C834 1.380 . S
C835 C842 1.357 . S
C836 C827 1.511 . S
C836 C837 1.341 . S
C836 C838 1.371 . S
C837 C836 1.341 . S
C837 C841 1.394 . S
C837 H853 0.930 . S
C838 C836 1.371 . S
C838 C839 1.392 . S
C838 H854 0.931 . S
C839 C838 1.392 . S
C839 C840 1.331 . S
C839 H857 0.932 . S
C840 C839 1.331 . S
C840 C841 1.336 . S
C841 C837 1.394 . S
C841 C840 1.336 . S
C841 H856 0.929 . S
C842 C832 1.386 . S
C842 C835 1.357 . S
C842 H855 0.928 . S
H843 C819 0.931 . S
H844 C821 0.930 . S
H845 C823 0.929 . S
H846 C824 0.931 . S
H847 C826 0.930 . S
H848 C830 0.931 . S
H849 C828 0.931 . S
H850 C832 0.931 . S
H851 C833 0.929 . S
H852 C834 0.930 . S
H853 C837 0.930 . S
H854 C838 0.931 . S
H855 C842 0.928 . S
H856 C841 0.929 . S
H857 C839 0.932 . S
C858 C859 1.386 . S
C858 C860 1.397 . S
C858 H882 0.931 . S
C859 C858 1.386 . S
C859 C863 1.397 . S
C860 C858 1.397 . S
C860 C861 1.384 . S
C860 H883 0.930 . S
C861 C860 1.384 . S
C861 C862 1.377 . S
C861 C864 1.481 . S
C862 C861 1.377 . S
C862 C863 1.389 . S
C862 H884 0.929 . S
C863 C859 1.397 . S
C863 C862 1.389 . S
C863 H885 0.931 . S
C864 C861 1.481 . S
C864 C865 1.387 . S
C864 C869 1.390 . S
C865 C864 1.387 . S
C865 C866 1.401 . S
C865 H886 0.930 . S
C866 C865 1.401 . S
C866 C867 1.376 . S
C866 C875 1.511 . S
C867 C866 1.376 . S
C867 C868 1.392 . S
C867 H888 0.931 . S
C868 C867 1.392 . S
C868 C869 1.361 . S
C868 C870 1.500 . S
C869 C864 1.390 . S
C869 C868 1.361 . S
C869 H887 0.931 . S
C870 C868 1.500 . S
C870 C871 1.371 . S
C870 C872 1.365 . S
C871 C870 1.371 . S
C871 C881 1.386 . S
C871 H889 0.931 . S
C872 C870 1.365 . S
C872 C873 1.409 . S
C872 H890 0.929 . S
C873 C872 1.409 . S
C873 C874 1.380 . S
C873 H891 0.930 . S
C874 C873 1.380 . S
C874 C881 1.357 . S
C875 C866 1.511 . S
C875 C876 1.341 . S
C875 C877 1.371 . S
C876 C875 1.341 . S
C876 C880 1.394 . S
C876 H892 0.930 . S
C877 C875 1.371 . S
C877 C878 1.392 . S
C877 H893 0.931 . S
C878 C877 1.392 . S
C878 C879 1.331 . S
C878 H896 0.932 . S
C879 C878 1.331 . S
C879 C880 1.336 . S
C880 C876 1.394 . S
C880 C879 1.336 . S
C880 H895 0.929 . S
C881 C871 1.386 . S
C881 C874 1.357 . S
C881 H894 0.928 . S
H882 C858 0.931 . S
H883 C860 0.930 . S
H884 C862 0.929 . S
H885 C863 0.931 . S
H886 C865 0.930 . S
H887 C869 0.931 . S
H888 C867 0.931 . S
H889 C871 0.931 . S
H890 C872 0.929 . S
H891 C873 0.930 . S
H892 C876 0.930 . S
H893 C877 0.931 . S
H894 C881 0.928 . S
H895 C880 0.929 . S
H896 C878 0.932 . S
C897 C898 1.386 . S
C897 C899 1.397 . S
C897 H921 0.931 . S
C898 C897 1.386 . S
C898 C902 1.397 . S
C899 C897 1.397 . S
C899 C900 1.384 . S
C899 H922 0.930 . S
C900 C899 1.384 . S
C900 C901 1.377 . S
C900 C903 1.481 . S
C901 C900 1.377 . S
C901 C902 1.389 . S
C901 H923 0.929 . S
C902 C898 1.397 . S
C902 C901 1.389 . S
C902 H924 0.931 . S
C903 C900 1.481 . S
C903 C904 1.387 . S
C903 C908 1.390 . S
C904 C903 1.387 . S
C904 C905 1.401 . S
C904 H925 0.930 . S
C905 C904 1.401 . S
C905 C906 1.376 . S
C905 C914 1.511 . S
C906 C905 1.376 . S
C906 C907 1.392 . S
C906 H927 0.931 . S
C907 C906 1.392 . S
C907 C908 1.361 . S
C907 C909 1.500 . S
C908 C903 1.390 . S
C908 C907 1.361 . S
C908 H926 0.931 . S
C909 C907 1.500 . S
C909 C910 1.371 . S
C909 C911 1.365 . S
C910 C909 1.371 . S
C910 C920 1.386 . S
C910 H928 0.931 . S
C911 C909 1.365 . S
C911 C912 1.409 . S
C911 H929 0.929 . S
C912 C911 1.409 . S
C912 C913 1.380 . S
C912 H930 0.930 . S
C913 C912 1.380 . S
C913 C920 1.357 . S
C914 C905 1.511 . S
C914 C915 1.341 . S
C914 C916 1.371 . S
C915 C914 1.341 . S
C915 C919 1.394 . S
C915 H931 0.930 . S
C916 C914 1.371 . S
C916 C917 1.392 . S
C916 H932 0.931 . S
C917 C916 1.392 . S
C917 C918 1.331 . S
C917 H935 0.932 . S
C918 C917 1.331 . S
C918 C919 1.336 . S
C919 C915 1.394 . S
C919 C918 1.336 . S
C919 H934 0.929 . S
C920 C910 1.386 . S
C920 C913 1.357 . S
C920 H933 0.928 . S
H921 C897 0.931 . S
H922 C899 0.930 . S
H923 C901 0.929 . S
H924 C902 0.931 . S
H925 C904 0.930 . S
H926 C908 0.931 . S
H927 C906 0.931 . S
H928 C910 0.931 . S
H929 C911 0.929 . S
H930 C912 0.930 . S
H931 C915 0.930 . S
H932 C916 0.931 . S
H933 C920 0.928 . S
H934 C919 0.929 . S
H935 C917 0.932 . S
C936 O962 1.283 . S
C936 O980 1.283 . S
C937 O963 1.283 . S
C937 O978 1.283 . S
C938 O964 1.283 . S
C938 O981 1.283 . S
C939 O965 1.283 . S
C939 O979 1.283 . S
C940 O966 1.283 . S
C940 O975 1.283 . S
C941 O967 1.283 . S
C941 O977 1.283 . S
C942 O968 1.283 . S
C942 O974 1.283 . S
C943 O969 1.283 . S
C943 O976 1.283 . S
C944 O970 1.283 . S
C944 O985 1.283 . S
C945 O971 1.283 . S
C945 O983 1.283 . S
C946 O972 1.283 . S
C946 O984 1.283 . S
C947 O973 1.283 . S
C947 O982 1.283 . S
Eu948 O949 2.370 1_455 S
Eu948 O950 2.370 . S
Eu948 O953 2.370 1_455 S
Eu948 O954 2.370 . S
Eu948 O962 2.363 . S
Eu948 O963 2.363 . S
Eu948 O976 2.363 . S
Eu948 O977 2.363 1_455 S
O949 Eu948 2.370 1_655 S
O949 Eu951 2.370 1_565 S
O949 Eu956 2.370 1_665 S
O950 Eu948 2.370 . S
O950 Eu952 2.370 1_565 S
O950 Eu955 2.370 1_565 S
Eu951 O949 2.370 1_545 S
Eu951 O953 2.370 1_545 S
Eu951 O957 2.370 . S
Eu951 O958 2.370 . S
Eu951 O966 2.363 . S
Eu951 O967 2.363 1_545 S
Eu951 O982 2.363 . S
Eu951 O983 2.363 . S
Eu952 O950 2.370 1_545 S
Eu952 O954 2.370 1_545 S
Eu952 O959 2.370 . S
Eu952 O960 2.370 . S
Eu952 O968 2.363 . S
Eu952 O969 2.363 1_545 S
Eu952 O984 2.363 . S
Eu952 O985 2.363 . S
O953 Eu948 2.370 1_655 S
O953 Eu951 2.370 1_565 S
O953 Eu955 2.370 1_665 S
O954 Eu948 2.370 . S
O954 Eu952 2.370 1_565 S
O954 Eu956 2.370 1_565 S
Eu955 O950 2.370 1_545 S
Eu955 O953 2.370 1_445 S
Eu955 O957 2.370 1_455 S
Eu955 O960 2.370 . S
Eu955 O972 2.363 . S
Eu955 O973 2.363 1_455 S
Eu955 O980 2.363 1_545 S
Eu955 O981 2.363 . S
Eu956 O949 2.370 1_445 S
Eu956 O954 2.370 1_545 S
Eu956 O958 2.370 1_455 S
Eu956 O959 2.370 . S
Eu956 O970 2.363 . S
Eu956 O971 2.363 1_455 S
Eu956 O978 2.363 1_545 S
Eu956 O979 2.363 . S
O957 Eu951 2.370 . S
O957 Eu955 2.370 1_655 S
O957 Eu961 2.370 1_655 S
O958 Eu951 2.370 . S
O958 Eu956 2.370 1_655 S
O958 Eu961 2.370 1_655 S
O959 Eu952 2.370 . S
O959 Eu956 2.370 . S
O959 Eu961 2.370 . S
O960 Eu952 2.370 . S
O960 Eu955 2.370 . S
O960 Eu961 2.370 . S
Eu961 O957 2.370 1_455 S
Eu961 O958 2.370 1_455 S
Eu961 O959 2.370 . S
Eu961 O960 2.370 . S
Eu961 O964 2.363 . S
Eu961 O965 2.363 . S
Eu961 O974 2.363 . S
Eu961 O975 2.363 1_455 S
O962 C936 1.283 . S
O962 Eu948 2.363 . S
O963 C937 1.283 . S
O963 Eu948 2.363 . S
O964 C938 1.283 . S
O964 Eu961 2.363 . S
O965 C939 1.283 . S
O965 Eu961 2.363 . S
O966 C940 1.283 . S
O966 Eu951 2.363 . S
O967 C941 1.283 . S
O967 Eu951 2.363 1_565 S
O968 C942 1.283 . S
O968 Eu952 2.363 . S
O969 C943 1.283 . S
O969 Eu952 2.363 1_565 S
O970 C944 1.283 . S
O970 Eu956 2.363 . S
O971 C945 1.283 . S
O971 Eu956 2.363 1_655 S
O972 C946 1.283 . S
O972 Eu955 2.363 . S
O973 C947 1.283 . S
O973 Eu955 2.363 1_655 S
O974 C942 1.283 . S
O974 Eu961 2.363 . S
O975 C940 1.283 . S
O975 Eu961 2.363 1_655 S
O976 C943 1.283 . S
O976 Eu948 2.363 . S
O977 C941 1.283 . S
O977 Eu948 2.363 1_655 S
O978 C937 1.283 . S
O978 Eu956 2.363 1_565 S
O979 C939 1.283 . S
O979 Eu956 2.363 . S
O980 C936 1.283 . S
O980 Eu955 2.363 1_565 S
O981 C938 1.283 . S
O981 Eu955 2.363 . S
O982 C947 1.283 . S
O982 Eu951 2.363 . S
O983 C945 1.283 . S
O983 Eu951 2.363 . S
O984 C946 1.283 . S
O984 Eu952 2.363 . S
O985 C944 1.283 . S
O985 Eu952 2.363 . S
C986 O1012 1.283 . S
C986 O1030 1.283 . S
C987 O1013 1.283 . S
C987 O1028 1.283 . S
C988 O1014 1.283 . S
C988 O1031 1.283 . S
C989 O1015 1.283 . S
C989 O1029 1.283 . S
C990 O1016 1.283 . S
C990 O1025 1.283 . S
C991 O1017 1.283 . S
C991 O1027 1.283 . S
C992 O1018 1.283 . S
C992 O1024 1.283 . S
C993 O1019 1.283 . S
C993 O1026 1.283 . S
C994 O1020 1.283 . S
C994 O1035 1.283 . S
C995 O1021 1.283 . S
C995 O1033 1.283 . S
C996 O1022 1.283 . S
C996 O1034 1.283 . S
C997 O1023 1.283 . S
C997 O1032 1.283 . S
Eu998 O999 2.371 . S
Eu998 O1000 2.369 1_545 S
Eu998 O1003 2.369 1_545 S
Eu998 O1004 2.371 . S
Eu998 O1012 2.361 1_545 S
Eu998 O1013 2.365 . S
Eu998 O1026 2.363 . S
Eu998 O1027 2.363 . S
O999 Eu998 2.371 . S
O999 Eu1001 2.370 . S
O999 Eu1006 2.369 . S
O1000 Eu998 2.369 1_565 S
O1000 Eu1002 2.370 1_565 S
O1000 Eu1005 2.371 . S
Eu1001 O999 2.370 . S
Eu1001 O1003 2.370 1_545 S
Eu1001 O1007 2.370 1_544 S
Eu1001 O1008 2.370 1_554 S
Eu1001 O1016 2.363 1_554 S
Eu1001 O1017 2.363 . S
Eu1001 O1032 2.363 1_545 S
Eu1001 O1033 2.363 . S
Eu1002 O1000 2.370 1_545 S
Eu1002 O1004 2.370 . S
Eu1002 O1009 2.370 1_554 S
Eu1002 O1010 2.370 1_544 S
Eu1002 O1018 2.363 1_554 S
Eu1002 O1019 2.363 . S
Eu1002 O1034 2.363 1_545 S
Eu1002 O1035 2.363 . S
O1003 Eu998 2.369 1_565 S
O1003 Eu1001 2.370 1_565 S
O1003 Eu1005 2.371 . S
O1004 Eu998 2.371 . S
O1004 Eu1002 2.370 . S
O1004 Eu1006 2.369 . S
Eu1005 O1000 2.371 . S
Eu1005 O1003 2.371 . S
Eu1005 O1007 2.369 1_554 S
Eu1005 O1010 2.369 1_554 S
Eu1005 O1022 2.363 . S
Eu1005 O1023 2.363 . S
Eu1005 O1030 2.365 . S
Eu1005 O1031 2.361 1_554 S
Eu1006 O999 2.369 . S
Eu1006 O1004 2.369 . S
Eu1006 O1008 2.371 1_554 S
Eu1006 O1009 2.371 1_554 S
Eu1006 O1020 2.363 . S
Eu1006 O1021 2.363 . S
Eu1006 O1028 2.361 . S
Eu1006 O1029 2.365 1_554 S
O1007 Eu1001 2.370 1_566 S
O1007 Eu1005 2.369 1_556 S
O1007 Eu1011 2.371 1_565 S
O1008 Eu1001 2.370 1_556 S
O1008 Eu1006 2.371 1_556 S
O1008 Eu1011 2.369 . S
O1009 Eu1002 2.370 1_556 S
O1009 Eu1006 2.371 1_556 S
O1009 Eu1011 2.369 . S
O1010 Eu1002 2.370 1_566 S
O1010 Eu1005 2.369 1_556 S
O1010 Eu1011 2.371 1_565 S
Eu1011 O1007 2.371 1_545 S
Eu1011 O1008 2.369 . S
Eu1011 O1009 2.369 . S
Eu1011 O1010 2.371 1_545 S
Eu1011 O1014 2.365 1_545 S
Eu1011 O1015 2.361 . S
Eu1011 O1024 2.363 . S
Eu1011 O1025 2.363 . S
O1012 C986 1.283 . S
O1012 Eu998 2.361 1_565 S
O1013 C987 1.283 . S
O1013 Eu998 2.365 . S
O1014 C988 1.283 . S
O1014 Eu1011 2.365 1_565 S
O1015 C989 1.283 . S
O1015 Eu1011 2.361 . S
O1016 C990 1.283 . S
O1016 Eu1001 2.363 1_556 S
O1017 C991 1.283 . S
O1017 Eu1001 2.363 . S
O1018 C992 1.283 . S
O1018 Eu1002 2.363 1_556 S
O1019 C993 1.283 . S
O1019 Eu1002 2.363 . S
O1020 C994 1.283 . S
O1020 Eu1006 2.363 . S
O1021 C995 1.283 . S
O1021 Eu1006 2.363 . S
O1022 C996 1.283 . S
O1022 Eu1005 2.363 . S
O1023 C997 1.283 . S
O1023 Eu1005 2.363 . S
O1024 C992 1.283 . S
O1024 Eu1011 2.363 . S
O1025 C990 1.283 . S
O1025 Eu1011 2.363 . S
O1026 C993 1.283 . S
O1026 Eu998 2.363 . S
O1027 C991 1.283 . S
O1027 Eu998 2.363 . S
O1028 C987 1.283 . S
O1028 Eu1006 2.361 . S
O1029 C989 1.283 . S
O1029 Eu1006 2.365 1_556 S
O1030 C986 1.283 . S
O1030 Eu1005 2.365 . S
O1031 C988 1.283 . S
O1031 Eu1005 2.361 1_556 S
O1032 C997 1.283 . S
O1032 Eu1001 2.363 1_565 S
O1033 C995 1.283 . S
O1033 Eu1001 2.363 . S
O1034 C996 1.283 . S
O1034 Eu1002 2.363 1_565 S
O1035 C994 1.283 . S
O1035 Eu1002 2.363 . S
C1036 O1062 1.283 . S
C1036 O1080 1.283 . S
C1037 O1063 1.283 . S
C1037 O1078 1.283 . S
C1038 O1064 1.283 . S
C1038 O1081 1.283 . S
C1039 O1065 1.283 . S
C1039 O1079 1.283 . S
C1040 O1066 1.283 . S
C1040 O1075 1.283 . S
C1041 O1067 1.283 . S
C1041 O1077 1.283 . S
C1042 O1068 1.283 . S
C1042 O1074 1.283 . S
C1043 O1069 1.283 . S
C1043 O1076 1.283 . S
C1044 O1070 1.283 . S
C1044 O1085 1.283 . S
C1045 O1071 1.283 . S
C1045 O1083 1.283 . S
C1046 O1072 1.283 . S
C1046 O1084 1.283 . S
C1047 O1073 1.283 . S
C1047 O1082 1.283 . S
Eu1048 O1049 2.370 1_454 S
Eu1048 O1050 2.370 . S
Eu1048 O1053 2.370 1_455 S
Eu1048 O1054 2.370 1_554 S
Eu1048 O1062 2.363 . S
Eu1048 O1063 2.363 1_554 S
Eu1048 O1076 2.363 . S
Eu1048 O1077 2.363 1_455 S
O1049 Eu1048 2.370 1_656 S
O1049 Eu1051 2.370 1_556 S
O1049 Eu1056 2.370 1_655 S
O1050 Eu1048 2.370 . S
O1050 Eu1052 2.370 . S
O1050 Eu1055 2.370 . S
Eu1051 O1049 2.370 1_554 S
Eu1051 O1053 2.370 . S
Eu1051 O1057 2.370 . S
Eu1051 O1058 2.370 1_554 S
Eu1051 O1066 2.363 . S
Eu1051 O1067 2.363 . S
Eu1051 O1082 2.363 . S
Eu1051 O1083 2.363 1_554 S
Eu1052 O1050 2.370 . S
Eu1052 O1054 2.370 1_554 S
Eu1052 O1059 2.370 1_554 S
Eu1052 O1060 2.370 . S
Eu1052 O1068 2.363 . S
Eu1052 O1069 2.363 . S
Eu1052 O1084 2.363 . S
Eu1052 O1085 2.363 1_554 S
O1053 Eu1048 2.370 1_655 S
O1053 Eu1051 2.370 . S
O1053 Eu1055 2.370 1_655 S
O1054 Eu1048 2.370 1_556 S
O1054 Eu1052 2.370 1_556 S
O1054 Eu1056 2.370 . S
Eu1055 O1050 2.370 . S
Eu1055 O1053 2.370 1_455 S
Eu1055 O1057 2.370 1_455 S
Eu1055 O1060 2.370 . S
Eu1055 O1072 2.363 . S
Eu1055 O1073 2.363 1_455 S
Eu1055 O1080 2.363 . S
Eu1055 O1081 2.363 . S
Eu1056 O1049 2.370 1_455 S
Eu1056 O1054 2.370 . S
Eu1056 O1058 2.370 1_455 S
Eu1056 O1059 2.370 . S
Eu1056 O1070 2.363 . S
Eu1056 O1071 2.363 1_455 S
Eu1056 O1078 2.363 . S
Eu1056 O1079 2.363 . S
O1057 Eu1051 2.370 . S
O1057 Eu1055 2.370 1_655 S
O1057 Eu1061 2.370 1_655 S
O1058 Eu1051 2.370 1_556 S
O1058 Eu1056 2.370 1_655 S
O1058 Eu1061 2.370 1_656 S
O1059 Eu1052 2.370 1_556 S
O1059 Eu1056 2.370 . S
O1059 Eu1061 2.370 1_556 S
O1060 Eu1052 2.370 . S
O1060 Eu1055 2.370 . S
O1060 Eu1061 2.370 . S
Eu1061 O1057 2.370 1_455 S
Eu1061 O1058 2.370 1_454 S
Eu1061 O1059 2.370 1_554 S
Eu1061 O1060 2.370 . S
Eu1061 O1064 2.363 . S
Eu1061 O1065 2.363 1_554 S
Eu1061 O1074 2.363 . S
Eu1061 O1075 2.363 1_455 S
O1062 C1036 1.283 . S
O1062 Eu1048 2.363 . S
O1063 C1037 1.283 . S
O1063 Eu1048 2.363 1_556 S
O1064 C1038 1.283 . S
O1064 Eu1061 2.363 . S
O1065 C1039 1.283 . S
O1065 Eu1061 2.363 1_556 S
O1066 C1040 1.283 . S
O1066 Eu1051 2.363 . S
O1067 C1041 1.283 . S
O1067 Eu1051 2.363 . S
O1068 C1042 1.283 . S
O1068 Eu1052 2.363 . S
O1069 C1043 1.283 . S
O1069 Eu1052 2.363 . S
O1070 C1044 1.283 . S
O1070 Eu1056 2.363 . S
O1071 C1045 1.283 . S
O1071 Eu1056 2.363 1_655 S
O1072 C1046 1.283 . S
O1072 Eu1055 2.363 . S
O1073 C1047 1.283 . S
O1073 Eu1055 2.363 1_655 S
O1074 C1042 1.283 . S
O1074 Eu1061 2.363 . S
O1075 C1040 1.283 . S
O1075 Eu1061 2.363 1_655 S
O1076 C1043 1.283 . S
O1076 Eu1048 2.363 . S
O1077 C1041 1.283 . S
O1077 Eu1048 2.363 1_655 S
O1078 C1037 1.283 . S
O1078 Eu1056 2.363 . S
O1079 C1039 1.283 . S
O1079 Eu1056 2.363 . S
O1080 C1036 1.283 . S
O1080 Eu1055 2.363 . S
O1081 C1038 1.283 . S
O1081 Eu1055 2.363 . S
O1082 C1047 1.283 . S
O1082 Eu1051 2.363 . S
O1083 C1045 1.283 . S
O1083 Eu1051 2.363 1_556 S
O1084 C1046 1.283 . S
O1084 Eu1052 2.363 . S
O1085 C1044 1.283 . S
O1085 Eu1052 2.363 1_556 S
C1086 O1112 1.283 . S
C1086 O1130 1.283 . S
C1087 O1113 1.283 . S
C1087 O1128 1.283 . S
C1088 O1114 1.283 . S
C1088 O1131 1.283 . S
C1089 O1115 1.283 . S
C1089 O1129 1.283 . S
C1090 O1116 1.283 . S
C1090 O1125 1.283 . S
C1091 O1117 1.283 . S
C1091 O1127 1.283 . S
C1092 O1118 1.283 . S
C1092 O1124 1.283 . S
C1093 O1119 1.283 . S
C1093 O1126 1.283 . S
C1094 O1120 1.283 . S
C1094 O1135 1.283 . S
C1095 O1121 1.283 . S
C1095 O1133 1.283 . S
C1096 O1122 1.283 . S
C1096 O1134 1.283 . S
C1097 O1123 1.283 . S
C1097 O1132 1.283 . S
Eu1098 O1099 2.370 . S
Eu1098 O1100 2.370 . S
Eu1098 O1103 2.370 . S
Eu1098 O1104 2.370 . S
Eu1098 O1112 2.363 . S
Eu1098 O1113 2.363 . S
Eu1098 O1126 2.363 . S
Eu1098 O1127 2.363 . S
O1099 Eu1098 2.370 . S
O1099 Eu1101 2.370 . S
O1099 Eu1106 2.370 . S
O1100 Eu1098 2.370 . S
O1100 Eu1102 2.370 . S
O1100 Eu1105 2.370 . S
Eu1101 O1099 2.370 . S
Eu1101 O1103 2.370 . S
Eu1101 O1107 2.370 1_554 S
Eu1101 O1108 2.370 1_554 S
Eu1101 O1116 2.363 1_554 S
Eu1101 O1117 2.363 . S
Eu1101 O1132 2.363 . S
Eu1101 O1133 2.363 . S
Eu1102 O1100 2.370 . S
Eu1102 O1104 2.370 . S
Eu1102 O1109 2.370 1_554 S
Eu1102 O1110 2.370 1_554 S
Eu1102 O1118 2.363 1_554 S
Eu1102 O1119 2.363 . S
Eu1102 O1134 2.363 . S
Eu1102 O1135 2.363 . S
O1103 Eu1098 2.370 . S
O1103 Eu1101 2.370 . S
O1103 Eu1105 2.370 . S
O1104 Eu1098 2.370 . S
O1104 Eu1102 2.370 . S
O1104 Eu1106 2.370 . S
Eu1105 O1100 2.370 . S
Eu1105 O1103 2.370 . S
Eu1105 O1107 2.370 1_554 S
Eu1105 O1110 2.370 1_554 S
Eu1105 O1122 2.363 . S
Eu1105 O1123 2.363 . S
Eu1105 O1130 2.363 . S
Eu1105 O1131 2.363 1_554 S
Eu1106 O1099 2.370 . S
Eu1106 O1104 2.370 . S
Eu1106 O1108 2.370 1_554 S
Eu1106 O1109 2.370 1_554 S
Eu1106 O1120 2.363 . S
Eu1106 O1121 2.363 . S
Eu1106 O1128 2.363 . S
Eu1106 O1129 2.363 1_554 S
O1107 Eu1101 2.370 1_556 S
O1107 Eu1105 2.370 1_556 S
O1107 Eu1111 2.370 . S
O1108 Eu1101 2.370 1_556 S
O1108 Eu1106 2.370 1_556 S
O1108 Eu1111 2.370 . S
O1109 Eu1102 2.370 1_556 S
O1109 Eu1106 2.370 1_556 S
O1109 Eu1111 2.370 . S
O1110 Eu1102 2.370 1_556 S
O1110 Eu1105 2.370 1_556 S
O1110 Eu1111 2.370 . S
Eu1111 O1107 2.370 . S
Eu1111 O1108 2.370 . S
Eu1111 O1109 2.370 . S
Eu1111 O1110 2.370 . S
Eu1111 O1114 2.363 . S
Eu1111 O1115 2.363 . S
Eu1111 O1124 2.363 . S
Eu1111 O1125 2.363 . S
O1112 C1086 1.283 . S
O1112 Eu1098 2.363 . S
O1113 C1087 1.283 . S
O1113 Eu1098 2.363 . S
O1114 C1088 1.283 . S
O1114 Eu1111 2.363 . S
O1115 C1089 1.283 . S
O1115 Eu1111 2.363 . S
O1116 C1090 1.283 . S
O1116 Eu1101 2.363 1_556 S
O1117 C1091 1.283 . S
O1117 Eu1101 2.363 . S
O1118 C1092 1.283 . S
O1118 Eu1102 2.363 1_556 S
O1119 C1093 1.283 . S
O1119 Eu1102 2.363 . S
O1120 C1094 1.283 . S
O1120 Eu1106 2.363 . S
O1121 C1095 1.283 . S
O1121 Eu1106 2.363 . S
O1122 C1096 1.283 . S
O1122 Eu1105 2.363 . S
O1123 C1097 1.283 . S
O1123 Eu1105 2.363 . S
O1124 C1092 1.283 . S
O1124 Eu1111 2.363 . S
O1125 C1090 1.283 . S
O1125 Eu1111 2.363 . S
O1126 C1093 1.283 . S
O1126 Eu1098 2.363 . S
O1127 C1091 1.283 . S
O1127 Eu1098 2.363 . S
O1128 C1087 1.283 . S
O1128 Eu1106 2.363 . S
O1129 C1089 1.283 . S
O1129 Eu1106 2.363 1_556 S
O1130 C1086 1.283 . S
O1130 Eu1105 2.363 . S
O1131 C1088 1.283 . S
O1131 Eu1105 2.363 1_556 S
O1132 C1097 1.283 . S
O1132 Eu1101 2.363 . S
O1133 C1095 1.283 . S
O1133 Eu1101 2.363 . S
O1134 C1096 1.283 . S
O1134 Eu1102 2.363 . S
O1135 C1094 1.283 . S
O1135 Eu1102 2.363 . S
C1136 O1162 1.283 . S
C1136 O1180 1.283 . S
C1137 O1163 1.283 . S
C1137 O1178 1.283 . S
C1138 O1164 1.283 . S
C1138 O1181 1.283 . S
C1139 O1165 1.283 . S
C1139 O1179 1.283 . S
C1140 O1166 1.283 . S
C1140 O1175 1.283 . S
C1141 O1167 1.283 . S
C1141 O1177 1.283 . S
C1142 O1168 1.283 . S
C1142 O1174 1.283 . S
C1143 O1169 1.283 . S
C1143 O1176 1.283 . S
C1144 O1170 1.283 . S
C1144 O1185 1.283 . S
C1145 O1171 1.283 . S
C1145 O1183 1.283 . S
C1146 O1172 1.283 . S
C1146 O1184 1.283 . S
C1147 O1173 1.283 . S
C1147 O1182 1.283 . S
Eu1148 O1149 2.370 1_455 S
Eu1148 O1150 2.370 . S
Eu1148 O1153 2.370 1_455 S
Eu1148 O1154 2.370 . S
Eu1148 O1162 2.363 . S
Eu1148 O1163 2.363 . S
Eu1148 O1176 2.363 . S
Eu1148 O1177 2.363 1_455 S
O1149 Eu1148 2.370 1_655 S
O1149 Eu1151 2.370 . S
O1149 Eu1156 2.370 1_655 S
O1150 Eu1148 2.370 . S
O1150 Eu1152 2.370 . S
O1150 Eu1155 2.370 . S
Eu1151 O1149 2.370 . S
Eu1151 O1153 2.370 . S
Eu1151 O1157 2.370 . S
Eu1151 O1158 2.370 . S
Eu1151 O1166 2.363 . S
Eu1151 O1167 2.363 . S
Eu1151 O1182 2.363 . S
Eu1151 O1183 2.363 . S
Eu1152 O1150 2.370 . S
Eu1152 O1154 2.370 . S
Eu1152 O1159 2.370 . S
Eu1152 O1160 2.370 . S
Eu1152 O1168 2.363 . S
Eu1152 O1169 2.363 . S
Eu1152 O1184 2.363 . S
Eu1152 O1185 2.363 . S
O1153 Eu1148 2.370 1_655 S
O1153 Eu1151 2.370 . S
O1153 Eu1155 2.370 1_655 S
O1154 Eu1148 2.370 . S
O1154 Eu1152 2.370 . S
O1154 Eu1156 2.370 . S
Eu1155 O1150 2.370 . S
Eu1155 O1153 2.370 1_455 S
Eu1155 O1157 2.370 1_455 S
Eu1155 O1160 2.370 . S
Eu1155 O1172 2.363 . S
Eu1155 O1173 2.363 1_455 S
Eu1155 O1180 2.363 . S
Eu1155 O1181 2.363 . S
Eu1156 O1149 2.370 1_455 S
Eu1156 O1154 2.370 . S
Eu1156 O1158 2.370 1_455 S
Eu1156 O1159 2.370 . S
Eu1156 O1170 2.363 . S
Eu1156 O1171 2.363 1_455 S
Eu1156 O1178 2.363 . S
Eu1156 O1179 2.363 . S
O1157 Eu1151 2.370 . S
O1157 Eu1155 2.370 1_655 S
O1157 Eu1161 2.370 1_655 S
O1158 Eu1151 2.370 . S
O1158 Eu1156 2.370 1_655 S
O1158 Eu1161 2.370 1_655 S
O1159 Eu1152 2.370 . S
O1159 Eu1156 2.370 . S
O1159 Eu1161 2.370 . S
O1160 Eu1152 2.370 . S
O1160 Eu1155 2.370 . S
O1160 Eu1161 2.370 . S
Eu1161 O1157 2.370 1_455 S
Eu1161 O1158 2.370 1_455 S
Eu1161 O1159 2.370 . S
Eu1161 O1160 2.370 . S
Eu1161 O1164 2.363 . S
Eu1161 O1165 2.363 . S
Eu1161 O1174 2.363 . S
Eu1161 O1175 2.363 1_455 S
O1162 C1136 1.283 . S
O1162 Eu1148 2.363 . S
O1163 C1137 1.283 . S
O1163 Eu1148 2.363 . S
O1164 C1138 1.283 . S
O1164 Eu1161 2.363 . S
O1165 C1139 1.283 . S
O1165 Eu1161 2.363 . S
O1166 C1140 1.283 . S
O1166 Eu1151 2.363 . S
O1167 C1141 1.283 . S
O1167 Eu1151 2.363 . S
O1168 C1142 1.283 . S
O1168 Eu1152 2.363 . S
O1169 C1143 1.283 . S
O1169 Eu1152 2.363 . S
O1170 C1144 1.283 . S
O1170 Eu1156 2.363 . S
O1171 C1145 1.283 . S
O1171 Eu1156 2.363 1_655 S
O1172 C1146 1.283 . S
O1172 Eu1155 2.363 . S
O1173 C1147 1.283 . S
O1173 Eu1155 2.363 1_655 S
O1174 C1142 1.283 . S
O1174 Eu1161 2.363 . S
O1175 C1140 1.283 . S
O1175 Eu1161 2.363 1_655 S
O1176 C1143 1.283 . S
O1176 Eu1148 2.363 . S
O1177 C1141 1.283 . S
O1177 Eu1148 2.363 1_655 S
O1178 C1137 1.283 . S
O1178 Eu1156 2.363 . S
O1179 C1139 1.283 . S
O1179 Eu1156 2.363 . S
O1180 C1136 1.283 . S
O1180 Eu1155 2.363 . S
O1181 C1138 1.283 . S
O1181 Eu1155 2.363 . S
O1182 C1147 1.283 . S
O1182 Eu1151 2.363 . S
O1183 C1145 1.283 . S
O1183 Eu1151 2.363 . S
O1184 C1146 1.283 . S
O1184 Eu1152 2.363 . S
O1185 C1144 1.283 . S
O1185 Eu1152 2.363 . S
C1186 O1212 1.283 . S
C1186 O1230 1.283 . S
C1187 O1213 1.283 . S
C1187 O1228 1.283 . S
C1188 O1214 1.283 . S
C1188 O1231 1.283 . S
C1189 O1215 1.283 . S
C1189 O1229 1.283 . S
C1190 O1216 1.283 . S
C1190 O1225 1.283 . S
C1191 O1217 1.283 . S
C1191 O1227 1.283 . S
C1192 O1218 1.283 . S
C1192 O1224 1.283 . S
C1193 O1219 1.283 . S
C1193 O1226 1.283 . S
C1194 O1220 1.283 . S
C1194 O1235 1.283 . S
C1195 O1221 1.283 . S
C1195 O1233 1.283 . S
C1196 O1222 1.283 . S
C1196 O1234 1.283 . S
C1197 O1223 1.283 . S
C1197 O1232 1.283 . S
Eu1198 O1199 2.370 . S
Eu1198 O1200 2.370 . S
Eu1198 O1203 2.370 . S
Eu1198 O1204 2.370 . S
Eu1198 O1212 2.363 . S
Eu1198 O1213 2.363 . S
Eu1198 O1226 2.363 . S
Eu1198 O1227 2.363 . S
O1199 Eu1198 2.370 . S
O1199 Eu1201 2.370 1_565 S
O1199 Eu1206 2.370 1_565 S
O1200 Eu1198 2.370 . S
O1200 Eu1202 2.370 1_565 S
O1200 Eu1205 2.370 1_565 S
Eu1201 O1199 2.370 1_545 S
Eu1201 O1203 2.370 1_545 S
Eu1201 O1207 2.370 . S
Eu1201 O1208 2.370 . S
Eu1201 O1216 2.363 . S
Eu1201 O1217 2.363 1_545 S
Eu1201 O1232 2.363 . S
Eu1201 O1233 2.363 . S
Eu1202 O1200 2.370 1_545 S
Eu1202 O1204 2.370 1_545 S
Eu1202 O1209 2.370 . S
Eu1202 O1210 2.370 . S
Eu1202 O1218 2.363 . S
Eu1202 O1219 2.363 1_545 S
Eu1202 O1234 2.363 . S
Eu1202 O1235 2.363 . S
O1203 Eu1198 2.370 . S
O1203 Eu1201 2.370 1_565 S
O1203 Eu1205 2.370 1_565 S
O1204 Eu1198 2.370 . S
O1204 Eu1202 2.370 1_565 S
O1204 Eu1206 2.370 1_565 S
Eu1205 O1200 2.370 1_545 S
Eu1205 O1203 2.370 1_545 S
Eu1205 O1207 2.370 . S
Eu1205 O1210 2.370 . S
Eu1205 O1222 2.363 . S
Eu1205 O1223 2.363 . S
Eu1205 O1230 2.363 1_545 S
Eu1205 O1231 2.363 . S
Eu1206 O1199 2.370 1_545 S
Eu1206 O1204 2.370 1_545 S
Eu1206 O1208 2.370 . S
Eu1206 O1209 2.370 . S
Eu1206 O1220 2.363 . S
Eu1206 O1221 2.363 . S
Eu1206 O1228 2.363 1_545 S
Eu1206 O1229 2.363 . S
O1207 Eu1201 2.370 . S
O1207 Eu1205 2.370 . S
O1207 Eu1211 2.370 . S
O1208 Eu1201 2.370 . S
O1208 Eu1206 2.370 . S
O1208 Eu1211 2.370 . S
O1209 Eu1202 2.370 . S
O1209 Eu1206 2.370 . S
O1209 Eu1211 2.370 . S
O1210 Eu1202 2.370 . S
O1210 Eu1205 2.370 . S
O1210 Eu1211 2.370 . S
Eu1211 O1207 2.370 . S
Eu1211 O1208 2.370 . S
Eu1211 O1209 2.370 . S
Eu1211 O1210 2.370 . S
Eu1211 O1214 2.363 . S
Eu1211 O1215 2.363 . S
Eu1211 O1224 2.363 . S
Eu1211 O1225 2.363 . S
O1212 C1186 1.283 . S
O1212 Eu1198 2.363 . S
O1213 C1187 1.283 . S
O1213 Eu1198 2.363 . S
O1214 C1188 1.283 . S
O1214 Eu1211 2.363 . S
O1215 C1189 1.283 . S
O1215 Eu1211 2.363 . S
O1216 C1190 1.283 . S
O1216 Eu1201 2.363 . S
O1217 C1191 1.283 . S
O1217 Eu1201 2.363 1_565 S
O1218 C1192 1.283 . S
O1218 Eu1202 2.363 . S
O1219 C1193 1.283 . S
O1219 Eu1202 2.363 1_565 S
O1220 C1194 1.283 . S
O1220 Eu1206 2.363 . S
O1221 C1195 1.283 . S
O1221 Eu1206 2.363 . S
O1222 C1196 1.283 . S
O1222 Eu1205 2.363 . S
O1223 C1197 1.283 . S
O1223 Eu1205 2.363 . S
O1224 C1192 1.283 . S
O1224 Eu1211 2.363 . S
O1225 C1190 1.283 . S
O1225 Eu1211 2.363 . S
O1226 C1193 1.283 . S
O1226 Eu1198 2.363 . S
O1227 C1191 1.283 . S
O1227 Eu1198 2.363 . S
O1228 C1187 1.283 . S
O1228 Eu1206 2.363 1_565 S
O1229 C1189 1.283 . S
O1229 Eu1206 2.363 . S
O1230 C1186 1.283 . S
O1230 Eu1205 2.363 1_565 S
O1231 C1188 1.283 . S
O1231 Eu1205 2.363 . S
O1232 C1197 1.283 . S
O1232 Eu1201 2.363 . S
O1233 C1195 1.283 . S
O1233 Eu1201 2.363 . S
O1234 C1196 1.283 . S
O1234 Eu1202 2.363 . S
O1235 C1194 1.283 . S
O1235 Eu1202 2.363 . S
H1236 C1242 0.930 . S
H1237 C1245 0.930 . S
H1238 C1246 0.930 . S
H1239 C1247 0.930 . S
H1240 C1250 0.930 . S
H1241 C1251 0.930 . S
C1242 H1236 0.930 . S
C1242 C1243 1.355 . S
C1242 C1244 1.415 . S
C1243 C1242 1.355 . S
C1243 C1245 1.419 . S
C1244 C1242 1.415 . S
C1244 C1249 1.425 . S
C1244 C1251 1.409 . S
C1245 H1237 0.930 . S
C1245 C1243 1.419 . S
C1245 C1246 1.362 . S
C1246 H1238 0.930 . S
C1246 C1245 1.362 . S
C1246 C1249 1.409 . S
C1247 H1239 0.930 . S
C1247 C1248 1.355 . S
C1247 C1249 1.415 . S
C1248 C1247 1.355 . S
C1248 C1250 1.419 . S
C1249 C1244 1.425 . S
C1249 C1246 1.409 . S
C1249 C1247 1.415 . S
C1250 H1240 0.930 . S
C1250 C1248 1.419 . S
C1250 C1251 1.362 . S
C1251 H1241 0.930 . S
C1251 C1244 1.409 . S
C1251 C1250 1.362 . S
H1252 C1258 0.930 . S
H1253 C1261 0.930 . S
H1254 C1262 0.930 . S
H1255 C1263 0.930 . S
H1256 C1266 0.930 . S
H1257 C1267 0.930 . S
C1258 H1252 0.930 . S
C1258 C1259 1.355 . S
C1258 C1260 1.415 . S
C1259 C1258 1.355 . S
C1259 C1261 1.419 . S
C1260 C1258 1.415 . S
C1260 C1265 1.425 . S
C1260 C1267 1.409 . S
C1261 H1253 0.930 . S
C1261 C1259 1.419 . S
C1261 C1262 1.362 . S
C1262 H1254 0.930 . S
C1262 C1261 1.362 . S
C1262 C1265 1.409 . S
C1263 H1255 0.930 . S
C1263 C1264 1.355 . S
C1263 C1265 1.415 . S
C1264 C1263 1.355 . S
C1264 C1266 1.419 . S
C1265 C1260 1.425 . S
C1265 C1262 1.409 . S
C1265 C1263 1.415 . S
C1266 H1256 0.930 . S
C1266 C1264 1.419 . S
C1266 C1267 1.362 . S
C1267 H1257 0.930 . S
C1267 C1260 1.409 . S
C1267 C1266 1.362 . S
H1268 C1274 0.930 . S
H1269 C1277 0.930 . S
H1270 C1278 0.930 . S
H1271 C1279 0.930 . S
H1272 C1282 0.930 . S
H1273 C1283 0.930 . S
C1274 H1268 0.930 . S
C1274 C1275 1.355 . S
C1274 C1276 1.415 . S
C1275 C1274 1.355 . S
C1275 C1277 1.419 . S
C1276 C1274 1.415 . S
C1276 C1281 1.425 . S
C1276 C1283 1.409 . S
C1277 H1269 0.930 . S
C1277 C1275 1.419 . S
C1277 C1278 1.362 . S
C1278 H1270 0.930 . S
C1278 C1277 1.362 . S
C1278 C1281 1.409 . S
C1279 H1271 0.930 . S
C1279 C1280 1.355 . S
C1279 C1281 1.415 . S
C1280 C1279 1.355 . S
C1280 C1282 1.419 . S
C1281 C1276 1.425 . S
C1281 C1278 1.409 . S
C1281 C1279 1.415 . S
C1282 H1272 0.930 . S
C1282 C1280 1.419 . S
C1282 C1283 1.362 . S
C1283 H1273 0.930 . S
C1283 C1276 1.409 . S
C1283 C1282 1.362 . S
H1284 C1290 0.930 . S
H1285 C1293 0.930 . S
H1286 C1294 0.930 . S
H1287 C1295 0.930 . S
H1288 C1298 0.930 . S
H1289 C1299 0.930 . S
C1290 H1284 0.930 . S
C1290 C1291 1.355 . S
C1290 C1292 1.415 . S
C1291 C1290 1.355 . S
C1291 C1293 1.419 . S
C1292 C1290 1.415 . S
C1292 C1297 1.425 . S
C1292 C1299 1.409 . S
C1293 H1285 0.930 . S
C1293 C1291 1.419 . S
C1293 C1294 1.362 . S
C1294 H1286 0.930 . S
C1294 C1293 1.362 . S
C1294 C1297 1.409 . S
C1295 H1287 0.930 . S
C1295 C1296 1.355 . S
C1295 C1297 1.415 . S
C1296 C1295 1.355 . S
C1296 C1298 1.419 . S
C1297 C1292 1.425 . S
C1297 C1294 1.409 . S
C1297 C1295 1.415 . S
C1298 H1288 0.930 . S
C1298 C1296 1.419 . S
C1298 C1299 1.362 . S
C1299 H1289 0.930 . S
C1299 C1292 1.409 . S
C1299 C1298 1.362 . S
H1300 C1306 0.930 . S
H1301 C1309 0.930 . S
H1302 C1310 0.930 . S
H1303 C1311 0.930 . S
H1304 C1314 0.930 . S
H1305 C1315 0.930 . S
C1306 H1300 0.930 . S
C1306 C1307 1.355 . S
C1306 C1308 1.415 . S
C1307 C1306 1.355 . S
C1307 C1309 1.419 . S
C1308 C1306 1.415 . S
C1308 C1313 1.425 . S
C1308 C1315 1.409 . S
C1309 H1301 0.930 . S
C1309 C1307 1.419 . S
C1309 C1310 1.362 . S
C1310 H1302 0.930 . S
C1310 C1309 1.362 . S
C1310 C1313 1.409 . S
C1311 H1303 0.930 . S
C1311 C1312 1.355 . S
C1311 C1313 1.415 . S
C1312 C1311 1.355 . S
C1312 C1314 1.419 . S
C1313 C1308 1.425 . S
C1313 C1310 1.409 . S
C1313 C1311 1.415 . S
C1314 H1304 0.930 . S
C1314 C1312 1.419 . S
C1314 C1315 1.362 . S
C1315 H1305 0.930 . S
C1315 C1308 1.409 . S
C1315 C1314 1.362 . S
H1316 C1322 0.930 . S
H1317 C1325 0.930 . S
H1318 C1326 0.930 . S
H1319 C1327 0.930 . S
H1320 C1330 0.930 . S
H1321 C1331 0.930 . S
C1322 H1316 0.930 . S
C1322 C1323 1.355 . S
C1322 C1324 1.415 . S
C1323 C1322 1.355 . S
C1323 C1325 1.419 . S
C1324 C1322 1.415 . S
C1324 C1329 1.425 . S
C1324 C1331 1.409 . S
C1325 H1317 0.930 . S
C1325 C1323 1.419 . S
C1325 C1326 1.362 . S
C1326 H1318 0.930 . S
C1326 C1325 1.362 . S
C1326 C1329 1.409 . S
C1327 H1319 0.930 . S
C1327 C1328 1.355 . S
C1327 C1329 1.415 . S
C1328 C1327 1.355 . S
C1328 C1330 1.419 . S
C1329 C1324 1.425 . S
C1329 C1326 1.409 . S
C1329 C1327 1.415 . S
C1330 H1320 0.930 . S
C1330 C1328 1.419 . S
C1330 C1331 1.362 . S
C1331 H1321 0.930 . S
C1331 C1324 1.409 . S
C1331 C1330 1.362 . S
H1332 C1338 0.930 . S
H1333 C1341 0.930 . S
H1334 C1342 0.930 . S
H1335 C1343 0.930 . S
H1336 C1346 0.930 . S
H1337 C1347 0.930 . S
C1338 H1332 0.930 . S
C1338 C1339 1.355 . S
C1338 C1340 1.415 . S
C1339 C1338 1.355 . S
C1339 C1341 1.419 . S
C1340 C1338 1.415 . S
C1340 C1345 1.425 . S
C1340 C1347 1.409 . S
C1341 H1333 0.930 . S
C1341 C1339 1.419 . S
C1341 C1342 1.362 . S
C1342 H1334 0.930 . S
C1342 C1341 1.362 . S
C1342 C1345 1.409 . S
C1343 H1335 0.930 . S
C1343 C1344 1.355 . S
C1343 C1345 1.415 . S
C1344 C1343 1.355 . S
C1344 C1346 1.419 . S
C1345 C1340 1.425 . S
C1345 C1342 1.409 . S
C1345 C1343 1.415 . S
C1346 H1336 0.930 . S
C1346 C1344 1.419 . S
C1346 C1347 1.362 . S
C1347 H1337 0.930 . S
C1347 C1340 1.409 . S
C1347 C1346 1.362 . S
H1348 C1354 0.930 . S
H1349 C1357 0.930 . S
H1350 C1358 0.930 . S
H1351 C1359 0.930 . S
H1352 C1362 0.930 . S
H1353 C1363 0.930 . S
C1354 H1348 0.930 . S
C1354 C1355 1.355 . S
C1354 C1356 1.415 . S
C1355 C1354 1.355 . S
C1355 C1357 1.419 . S
C1356 C1354 1.415 . S
C1356 C1361 1.425 . S
C1356 C1363 1.409 . S
C1357 H1349 0.930 . S
C1357 C1355 1.419 . S
C1357 C1358 1.362 . S
C1358 H1350 0.930 . S
C1358 C1357 1.362 . S
C1358 C1361 1.409 . S
C1359 H1351 0.930 . S
C1359 C1360 1.355 . S
C1359 C1361 1.415 . S
C1360 C1359 1.355 . S
C1360 C1362 1.419 . S
C1361 C1356 1.425 . S
C1361 C1358 1.409 . S
C1361 C1359 1.415 . S
C1362 H1352 0.930 . S
C1362 C1360 1.419 . S
C1362 C1363 1.362 . S
C1363 H1353 0.930 . S
C1363 C1356 1.409 . S
C1363 C1362 1.362 . S
H1364 C1370 0.930 . S
H1365 C1373 0.930 . S
H1366 C1374 0.930 . S
H1367 C1375 0.930 . S
H1368 C1378 0.930 . S
H1369 C1379 0.930 . S
C1370 H1364 0.930 . S
C1370 C1371 1.355 . S
C1370 C1372 1.415 . S
C1371 C1370 1.355 . S
C1371 C1373 1.419 . S
C1372 C1370 1.415 . S
C1372 C1377 1.425 . S
C1372 C1379 1.409 . S
C1373 H1365 0.930 . S
C1373 C1371 1.419 . S
C1373 C1374 1.362 . S
C1374 H1366 0.930 . S
C1374 C1373 1.362 . S
C1374 C1377 1.409 . S
C1375 H1367 0.930 . S
C1375 C1376 1.355 . S
C1375 C1377 1.415 . S
C1376 C1375 1.355 . S
C1376 C1378 1.419 . S
C1377 C1372 1.425 . S
C1377 C1374 1.409 . S
C1377 C1375 1.415 . S
C1378 H1368 0.930 . S
C1378 C1376 1.419 . S
C1378 C1379 1.362 . S
C1379 H1369 0.930 . S
C1379 C1372 1.409 . S
C1379 C1378 1.362 . S
H1380 C1386 0.930 . S
H1381 C1389 0.930 . S
H1382 C1390 0.930 . S
H1383 C1391 0.930 . S
H1384 C1394 0.930 . S
H1385 C1395 0.930 . S
C1386 H1380 0.930 . S
C1386 C1387 1.355 . S
C1386 C1388 1.415 . S
C1387 C1386 1.355 . S
C1387 C1389 1.419 . S
C1388 C1386 1.415 . S
C1388 C1393 1.425 . S
C1388 C1395 1.409 . S
C1389 H1381 0.930 . S
C1389 C1387 1.419 . S
C1389 C1390 1.362 . S
C1390 H1382 0.930 . S
C1390 C1389 1.362 . S
C1390 C1393 1.409 . S
C1391 H1383 0.930 . S
C1391 C1392 1.355 . S
C1391 C1393 1.415 . S
C1392 C1391 1.355 . S
C1392 C1394 1.419 . S
C1393 C1388 1.425 . S
C1393 C1390 1.409 . S
C1393 C1391 1.415 . S
C1394 H1384 0.930 . S
C1394 C1392 1.419 . S
C1394 C1395 1.362 . S
C1395 H1385 0.930 . S
C1395 C1388 1.409 . S
C1395 C1394 1.362 . S
H1396 C1402 0.930 . S
H1397 C1405 0.930 . S
H1398 C1406 0.930 . S
H1399 C1407 0.930 . S
H1400 C1410 0.930 . S
H1401 C1411 0.930 . S
C1402 H1396 0.930 . S
C1402 C1403 1.355 . S
C1402 C1404 1.415 . S
C1403 C1402 1.355 . S
C1403 C1405 1.419 . S
C1404 C1402 1.415 . S
C1404 C1409 1.425 . S
C1404 C1411 1.409 . S
C1405 H1397 0.930 . S
C1405 C1403 1.419 . S
C1405 C1406 1.362 . S
C1406 H1398 0.930 . S
C1406 C1405 1.362 . S
C1406 C1409 1.409 . S
C1407 H1399 0.930 . S
C1407 C1408 1.355 . S
C1407 C1409 1.415 . S
C1408 C1407 1.355 . S
C1408 C1410 1.419 . S
C1409 C1404 1.425 . S
C1409 C1406 1.409 . S
C1409 C1407 1.415 . S
C1410 H1400 0.930 . S
C1410 C1408 1.419 . S
C1410 C1411 1.362 . S
C1411 H1401 0.930 . S
C1411 C1404 1.409 . S
C1411 C1410 1.362 . S
H1412 C1418 0.930 . S
H1413 C1421 0.930 . S
H1414 C1422 0.930 . S
H1415 C1423 0.930 . S
H1416 C1426 0.930 . S
H1417 C1427 0.930 . S
C1418 H1412 0.930 . S
C1418 C1419 1.355 . S
C1418 C1420 1.415 . S
C1419 C1418 1.355 . S
C1419 C1421 1.419 . S
C1420 C1418 1.415 . S
C1420 C1425 1.425 . S
C1420 C1427 1.409 . S
C1421 H1413 0.930 . S
C1421 C1419 1.419 . S
C1421 C1422 1.362 . S
C1422 H1414 0.930 . S
C1422 C1421 1.362 . S
C1422 C1425 1.409 . S
C1423 H1415 0.930 . S
C1423 C1424 1.355 . S
C1423 C1425 1.415 . S
C1424 C1423 1.355 . S
C1424 C1426 1.419 . S
C1425 C1420 1.425 . S
C1425 C1422 1.409 . S
C1425 C1423 1.415 . S
C1426 H1416 0.930 . S
C1426 C1424 1.419 . S
C1426 C1427 1.362 . S
C1427 H1417 0.930 . S
C1427 C1420 1.409 . S
C1427 C1426 1.362 . S
H1428 C1434 0.930 . S
H1429 C1437 0.930 . S
H1430 C1438 0.930 . S
H1431 C1439 0.930 . S
H1432 C1442 0.930 . S
H1433 C1443 0.930 . S
C1434 H1428 0.930 . S
C1434 C1435 1.356 . S
C1434 C1436 1.415 . S
C1435 C1434 1.356 . S
C1435 C1437 1.417 1_556 S
C1436 C1434 1.415 . S
C1436 C1441 1.425 1_556 S
C1436 C1443 1.409 . S
C1437 H1429 0.930 . S
C1437 C1435 1.417 1_554 S
C1437 C1438 1.362 . S
C1438 H1430 0.930 . S
C1438 C1437 1.362 . S
C1438 C1441 1.409 . S
C1439 H1431 0.930 . S
C1439 C1440 1.358 . S
C1439 C1441 1.415 . S
C1440 C1439 1.358 . S
C1440 C1442 1.416 1_554 S
C1441 C1436 1.425 1_554 S
C1441 C1438 1.409 . S
C1441 C1439 1.415 . S
C1442 H1432 0.930 . S
C1442 C1440 1.416 1_556 S
C1442 C1443 1.362 . S
C1443 H1433 0.930 . S
C1443 C1436 1.409 . S
C1443 C1442 1.362 . S
H1444 C1450 0.930 . S
H1445 C1453 0.930 . S
H1446 C1454 0.930 . S
H1447 C1455 0.930 . S
H1448 C1458 0.930 . S
H1449 C1459 0.930 . S
C1450 H1444 0.930 . S
C1450 C1451 1.355 1_554 S
C1450 C1452 1.415 . S
C1451 C1450 1.355 1_556 S
C1451 C1453 1.419 . S
C1452 C1450 1.415 . S
C1452 C1457 1.425 1_554 S
C1452 C1459 1.409 . S
C1453 H1445 0.930 . S
C1453 C1451 1.419 . S
C1453 C1454 1.362 . S
C1454 H1446 0.930 . S
C1454 C1453 1.362 . S
C1454 C1457 1.409 . S
C1455 H1447 0.930 . S
C1455 C1456 1.355 1_556 S
C1455 C1457 1.415 . S
C1456 C1455 1.355 1_554 S
C1456 C1458 1.419 . S
C1457 C1452 1.425 1_556 S
C1457 C1454 1.409 . S
C1457 C1455 1.415 . S
C1458 H1448 0.930 . S
C1458 C1456 1.419 . S
C1458 C1459 1.362 . S
C1459 H1449 0.930 . S
C1459 C1452 1.409 . S
C1459 C1458 1.362 . S
H1460 C1466 0.930 . S
H1461 C1469 0.930 . S
H1462 C1470 0.930 . S
H1463 C1471 0.930 . S
H1464 C1474 0.930 . S
H1465 C1475 0.930 . S
C1466 H1460 0.930 . S
C1466 C1467 1.355 1_556 S
C1466 C1468 1.415 . S
C1467 C1466 1.355 1_554 S
C1467 C1469 1.419 . S
C1468 C1466 1.415 . S
C1468 C1473 1.425 1_556 S
C1468 C1475 1.409 . S
C1469 H1461 0.930 . S
C1469 C1467 1.419 . S
C1469 C1470 1.362 . S
C1470 H1462 0.930 . S
C1470 C1469 1.362 . S
C1470 C1473 1.409 . S
C1471 H1463 0.930 . S
C1471 C1472 1.355 1_554 S
C1471 C1473 1.415 . S
C1472 C1471 1.355 1_556 S
C1472 C1474 1.419 . S
C1473 C1468 1.425 1_554 S
C1473 C1470 1.409 . S
C1473 C1471 1.415 . S
C1474 H1464 0.930 . S
C1474 C1472 1.419 . S
C1474 C1475 1.362 . S
C1475 H1465 0.930 . S
C1475 C1468 1.409 . S
C1475 C1474 1.362 . S
H1476 C1482 0.930 . S
H1477 C1485 0.933 . S
H1478 C1486 0.930 . S
H1479 C1487 0.930 . S
H1480 C1490 0.930 . S
H1481 C1491 0.930 . S
C1482 H1476 0.930 . S
C1482 C1483 1.357 . S
C1482 C1484 1.417 . S
C1483 C1482 1.357 . S
C1483 C1485 1.417 1_554 S
C1484 C1482 1.417 . S
C1484 C1489 1.423 1_554 S
C1484 C1491 1.410 . S
C1485 H1477 0.933 . S
C1485 C1483 1.417 1_556 S
C1485 C1486 1.363 . S
C1486 H1478 0.930 . S
C1486 C1485 1.363 . S
C1486 C1489 1.410 . S
C1487 H1479 0.930 . S
C1487 C1488 1.356 . S
C1487 C1489 1.417 . S
C1488 C1487 1.356 . S
C1488 C1490 1.418 1_556 S
C1489 C1484 1.423 1_556 S
C1489 C1486 1.410 . S
C1489 C1487 1.417 . S
C1490 H1480 0.930 . S
C1490 C1488 1.418 1_554 S
C1490 C1491 1.362 . S
C1491 H1481 0.930 . S
C1491 C1484 1.410 . S
C1491 C1490 1.362 . S
H1492 C1498 0.930 . S
H1493 C1501 0.930 . S
H1494 C1502 0.930 . S
H1495 C1503 0.930 . S
H1496 C1506 0.930 . S
H1497 C1507 0.930 . S
C1498 H1492 0.930 . S
C1498 C1499 1.325 1_455 S
C1498 C1500 1.415 . S
C1499 C1498 1.325 1_655 S
C1499 C1501 1.457 . S
C1500 C1498 1.415 . S
C1500 C1505 1.425 1_455 S
C1500 C1507 1.409 . S
C1501 H1493 0.930 . S
C1501 C1499 1.457 . S
C1501 C1502 1.362 . S
C1502 H1494 0.930 . S
C1502 C1501 1.362 . S
C1502 C1505 1.409 . S
C1503 H1495 0.930 . S
C1503 C1504 1.355 1_655 S
C1503 C1505 1.415 . S
C1504 C1503 1.355 1_455 S
C1504 C1506 1.419 . S
C1505 C1500 1.425 1_655 S
C1505 C1502 1.409 . S
C1505 C1503 1.415 . S
C1506 H1496 0.930 . S
C1506 C1504 1.419 . S
C1506 C1507 1.362 . S
C1507 H1497 0.930 . S
C1507 C1500 1.409 . S
C1507 C1506 1.362 . S
H1508 C1514 0.930 . S
H1509 C1517 0.930 . S
H1510 C1518 0.930 . S
H1511 C1519 0.930 . S
H1512 C1522 0.930 . S
H1513 C1523 0.930 . S
C1514 H1508 0.930 . S
C1514 C1515 1.355 1_565 S
C1514 C1516 1.415 . S
C1515 C1514 1.355 1_545 S
C1515 C1517 1.419 . S
C1516 C1514 1.415 . S
C1516 C1521 1.425 1_565 S
C1516 C1523 1.409 . S
C1517 H1509 0.930 . S
C1517 C1515 1.419 . S
C1517 C1518 1.362 . S
C1518 H1510 0.930 . S
C1518 C1517 1.362 . S
C1518 C1521 1.409 . S
C1519 H1511 0.930 . S
C1519 C1520 1.355 1_545 S
C1519 C1521 1.415 . S
C1520 C1519 1.355 1_565 S
C1520 C1522 1.419 . S
C1521 C1516 1.425 1_545 S
C1521 C1518 1.409 . S
C1521 C1519 1.415 . S
C1522 H1512 0.930 . S
C1522 C1520 1.419 . S
C1522 C1523 1.362 . S
C1523 H1513 0.930 . S
C1523 C1516 1.409 . S
C1523 C1522 1.362 . S
H1524 C1530 0.930 . S
H1525 C1533 0.930 . S
H1526 C1534 0.930 . S
H1527 C1535 0.930 . S
H1528 C1538 0.930 . S
H1529 C1539 0.930 . S
C1530 H1524 0.930 . S
C1530 C1531 1.355 1_655 S
C1530 C1532 1.415 . S
C1531 C1530 1.355 1_455 S
C1531 C1533 1.419 . S
C1532 C1530 1.415 . S
C1532 C1537 1.425 1_655 S
C1532 C1539 1.409 . S
C1533 H1525 0.930 . S
C1533 C1531 1.419 . S
C1533 C1534 1.362 . S
C1534 H1526 0.930 . S
C1534 C1533 1.362 . S
C1534 C1537 1.409 . S
C1535 H1527 0.930 . S
C1535 C1536 1.326 1_455 S
C1535 C1537 1.415 . S
C1536 C1535 1.326 1_655 S
C1536 C1538 1.456 . S
C1537 C1532 1.425 1_455 S
C1537 C1534 1.409 . S
C1537 C1535 1.415 . S
C1538 H1528 0.930 . S
C1538 C1536 1.456 . S
C1538 C1539 1.362 . S
C1539 H1529 0.930 . S
C1539 C1532 1.409 . S
C1539 C1538 1.362 . S
H1540 C1546 0.930 . S
H1541 C1549 0.930 . S
H1542 C1550 0.930 . S
H1543 C1551 0.930 . S
H1544 C1554 0.930 . S
H1545 C1555 0.930 . S
C1546 H1540 0.930 . S
C1546 C1547 1.355 1_565 S
C1546 C1548 1.415 . S
C1547 C1546 1.355 1_545 S
C1547 C1549 1.419 . S
C1548 C1546 1.415 . S
C1548 C1553 1.425 1_565 S
C1548 C1555 1.409 . S
C1549 H1541 0.930 . S
C1549 C1547 1.419 . S
C1549 C1550 1.362 . S
C1550 H1542 0.930 . S
C1550 C1549 1.362 . S
C1550 C1553 1.409 . S
C1551 H1543 0.930 . S
C1551 C1552 1.355 1_545 S
C1551 C1553 1.415 . S
C1552 C1551 1.355 1_565 S
C1552 C1554 1.419 . S
C1553 C1548 1.425 1_545 S
C1553 C1550 1.409 . S
C1553 C1551 1.415 . S
C1554 H1544 0.930 . S
C1554 C1552 1.419 . S
C1554 C1555 1.362 . S
C1555 H1545 0.930 . S
C1555 C1548 1.409 . S
C1555 C1554 1.362 . S
H1556 C1562 0.930 . S
H1557 C1565 0.930 . S
H1558 C1566 0.930 . S
H1559 C1567 0.930 . S
H1560 C1570 0.930 . S
H1561 C1571 0.930 . S
C1562 H1556 0.930 . S
C1562 C1563 1.355 1_655 S
C1562 C1564 1.415 . S
C1563 C1562 1.355 1_455 S
C1563 C1565 1.419 . S
C1564 C1562 1.415 . S
C1564 C1569 1.425 1_655 S
C1564 C1571 1.409 . S
C1565 H1557 0.930 . S
C1565 C1563 1.419 . S
C1565 C1566 1.362 . S
C1566 H1558 0.930 . S
C1566 C1565 1.362 . S
C1566 C1569 1.409 . S
C1567 H1559 0.930 . S
C1567 C1568 1.347 1_455 S
C1567 C1569 1.415 . S
C1568 C1567 1.347 1_655 S
C1568 C1570 1.429 . S
C1569 C1564 1.425 1_455 S
C1569 C1566 1.409 . S
C1569 C1567 1.415 . S
C1570 H1560 0.930 . S
C1570 C1568 1.429 . S
C1570 C1571 1.362 . S
C1571 H1561 0.930 . S
C1571 C1564 1.409 . S
C1571 C1570 1.362 . S
H1572 C1578 0.930 . S
H1573 C1581 0.930 . S
H1574 C1582 0.930 . S
H1575 C1583 0.930 . S
H1576 C1586 0.930 . S
H1577 C1587 0.930 . S
C1578 H1572 0.930 . S
C1578 C1579 1.355 1_565 S
C1578 C1580 1.415 . S
C1579 C1578 1.355 1_545 S
C1579 C1581 1.419 . S
C1580 C1578 1.415 . S
C1580 C1585 1.425 1_565 S
C1580 C1587 1.409 . S
C1581 H1573 0.930 . S
C1581 C1579 1.419 . S
C1581 C1582 1.362 . S
C1582 H1574 0.930 . S
C1582 C1581 1.362 . S
C1582 C1585 1.409 . S
C1583 H1575 0.930 . S
C1583 C1584 1.355 1_545 S
C1583 C1585 1.415 . S
C1584 C1583 1.355 1_565 S
C1584 C1586 1.419 . S
C1585 C1580 1.425 1_545 S
C1585 C1582 1.409 . S
C1585 C1583 1.415 . S
C1586 H1576 0.930 . S
C1586 C1584 1.419 . S
C1586 C1587 1.362 . S
C1587 H1577 0.930 . S
C1587 C1580 1.409 . S
C1587 C1586 1.362 . S
H1588 C1594 0.930 . S
H1589 C1597 0.930 . S
H1590 C1598 0.930 . S
H1591 C1599 0.930 . S
H1592 C1602 0.930 . S
H1593 C1603 0.930 . S
C1594 H1588 0.930 . S
C1594 C1595 1.355 1_655 S
C1594 C1596 1.415 . S
C1595 C1594 1.355 1_455 S
C1595 C1597 1.419 . S
C1596 C1594 1.415 . S
C1596 C1601 1.425 1_655 S
C1596 C1603 1.409 . S
C1597 H1589 0.930 . S
C1597 C1595 1.419 . S
C1597 C1598 1.362 . S
C1598 H1590 0.930 . S
C1598 C1597 1.362 . S
C1598 C1601 1.409 . S
C1599 H1591 0.930 . S
C1599 C1600 1.327 1_455 S
C1599 C1601 1.415 . S
C1600 C1599 1.327 1_655 S
C1600 C1602 1.454 . S
C1601 C1596 1.425 1_455 S
C1601 C1598 1.409 . S
C1601 C1599 1.415 . S
C1602 H1592 0.930 . S
C1602 C1600 1.454 . S
C1602 C1603 1.362 . S
C1603 H1593 0.930 . S
C1603 C1596 1.409 . S
C1603 C1602 1.362 . S
H1604 C1610 0.930 . S
H1605 C1613 0.930 . S
H1606 C1614 0.930 . S
H1607 C1615 0.930 . S
H1608 C1618 0.930 . S
H1609 C1619 0.930 . S
C1610 H1604 0.930 . S
C1610 C1611 1.355 1_545 S
C1610 C1612 1.415 . S
C1611 C1610 1.355 1_565 S
C1611 C1613 1.419 . S
C1612 C1610 1.415 . S
C1612 C1617 1.425 1_545 S
C1612 C1619 1.409 . S
C1613 H1605 0.930 . S
C1613 C1611 1.419 . S
C1613 C1614 1.362 . S
C1614 H1606 0.930 . S
C1614 C1613 1.362 . S
C1614 C1617 1.409 . S
C1615 H1607 0.930 . S
C1615 C1616 1.355 1_565 S
C1615 C1617 1.415 . S
C1616 C1615 1.355 1_545 S
C1616 C1618 1.419 . S
C1617 C1612 1.425 1_565 S
C1617 C1614 1.409 . S
C1617 C1615 1.415 . S
C1618 H1608 0.930 . S
C1618 C1616 1.419 . S
C1618 C1619 1.362 . S
C1619 H1609 0.930 . S
C1619 C1612 1.409 . S
C1619 C1618 1.362 . S
H1620 C1626 0.930 . S
H1621 C1629 0.930 . S
H1622 C1630 0.930 . S
H1623 C1631 0.930 . S
H1624 C1634 0.930 . S
H1625 C1635 0.930 . S
C1626 H1620 0.930 . S
C1626 C1627 1.355 1_655 S
C1626 C1628 1.415 . S
C1627 C1626 1.355 1_455 S
C1627 C1629 1.419 . S
C1628 C1626 1.415 . S
C1628 C1633 1.425 1_655 S
C1628 C1635 1.409 . S
C1629 H1621 0.930 . S
C1629 C1627 1.419 . S
C1629 C1630 1.362 . S
C1630 H1622 0.930 . S
C1630 C1629 1.362 . S
C1630 C1633 1.409 . S
C1631 H1623 0.930 . S
C1631 C1632 1.328 1_455 S
C1631 C1633 1.415 . S
C1632 C1631 1.328 1_655 S
C1632 C1634 1.452 . S
C1633 C1628 1.425 1_455 S
C1633 C1630 1.409 . S
C1633 C1631 1.415 . S
C1634 H1624 0.930 . S
C1634 C1632 1.452 . S
C1634 C1635 1.362 . S
C1635 H1625 0.930 . S
C1635 C1628 1.409 . S
C1635 C1634 1.362 . S
H1636 C1642 0.930 . S
H1637 C1645 0.930 . S
H1638 C1646 0.930 . S
H1639 C1647 0.930 . S
H1640 C1650 0.930 . S
H1641 C1651 0.930 . S
C1642 H1636 0.930 . S
C1642 C1643 1.355 1_545 S
C1642 C1644 1.415 . S
C1643 C1642 1.355 1_565 S
C1643 C1645 1.419 . S
C1644 C1642 1.415 . S
C1644 C1649 1.425 1_545 S
C1644 C1651 1.409 . S
C1645 H1637 0.930 . S
C1645 C1643 1.419 . S
C1645 C1646 1.362 . S
C1646 H1638 0.930 . S
C1646 C1645 1.362 . S
C1646 C1649 1.409 . S
C1647 H1639 0.930 . S
C1647 C1648 1.355 1_565 S
C1647 C1649 1.415 . S
C1648 C1647 1.355 1_545 S
C1648 C1650 1.419 . S
C1649 C1644 1.425 1_565 S
C1649 C1646 1.409 . S
C1649 C1647 1.415 . S
C1650 H1640 0.930 . S
C1650 C1648 1.419 . S
C1650 C1651 1.362 . S
C1651 H1641 0.930 . S
C1651 C1644 1.409 . S
C1651 C1650 1.362 . S
H1652 C1658 0.930 . S
H1653 C1661 0.930 . S
H1654 C1662 0.930 . S
H1655 C1663 0.930 . S
H1656 C1666 0.930 . S
H1657 C1667 0.930 . S
C1658 H1652 0.930 . S
C1658 C1659 1.355 1_655 S
C1658 C1660 1.415 . S
C1659 C1658 1.355 1_455 S
C1659 C1661 1.419 . S
C1660 C1658 1.415 . S
C1660 C1665 1.425 1_655 S
C1660 C1667 1.409 . S
C1661 H1653 0.930 . S
C1661 C1659 1.419 . S
C1661 C1662 1.362 . S
C1662 H1654 0.930 . S
C1662 C1661 1.362 . S
C1662 C1665 1.409 . S
C1663 H1655 0.930 . S
C1663 C1664 1.322 1_455 S
C1663 C1665 1.415 . S
C1664 C1663 1.322 1_655 S
C1664 C1666 1.460 . S
C1665 C1660 1.425 1_455 S
C1665 C1662 1.409 . S
C1665 C1663 1.415 . S
C1666 H1656 0.930 . S
C1666 C1664 1.460 . S
C1666 C1667 1.362 . S
C1667 H1657 0.930 . S
C1667 C1660 1.409 . S
C1667 C1666 1.362 . S
H1668 C1674 0.930 . S
H1669 C1677 0.930 . S
H1670 C1678 0.930 . S
H1671 C1679 0.930 . S
H1672 C1682 0.930 . S
H1673 C1683 0.930 . S
C1674 H1668 0.930 . S
C1674 C1675 1.351 1_545 S
C1674 C1676 1.415 . S
C1675 C1674 1.351 1_565 S
C1675 C1677 1.423 . S
C1676 C1674 1.415 . S
C1676 C1681 1.425 1_545 S
C1676 C1683 1.409 . S
C1677 H1669 0.930 . S
C1677 C1675 1.423 . S
C1677 C1678 1.362 . S
C1678 H1670 0.930 . S
C1678 C1677 1.362 . S
C1678 C1681 1.409 . S
C1679 H1671 0.930 . S
C1679 C1680 1.348 1_565 S
C1679 C1681 1.415 . S
C1680 C1679 1.348 1_545 S
C1680 C1682 1.428 . S
C1681 C1676 1.425 1_565 S
C1681 C1678 1.409 . S
C1681 C1679 1.415 . S
C1682 H1672 0.930 . S
C1682 C1680 1.428 . S
C1682 C1683 1.362 . S
C1683 H1673 0.930 . S
C1683 C1676 1.409 . S
C1683 C1682 1.362 . S
H1684 C1690 0.930 . S
H1685 C1693 0.930 . S
H1686 C1694 0.930 . S
H1687 C1695 0.930 . S
H1688 C1698 0.930 . S
H1689 C1699 0.930 . S
C1690 H1684 0.930 . S
C1690 C1691 1.355 1_655 S
C1690 C1692 1.415 . S
C1691 C1690 1.355 1_455 S
C1691 C1693 1.419 . S
C1692 C1690 1.415 . S
C1692 C1697 1.425 1_655 S
C1692 C1699 1.409 . S
C1693 H1685 0.930 . S
C1693 C1691 1.419 . S
C1693 C1694 1.362 . S
C1694 H1686 0.930 . S
C1694 C1693 1.362 . S
C1694 C1697 1.409 . S
C1695 H1687 0.930 . S
C1695 C1696 1.355 . S
C1695 C1697 1.415 . S
C1696 C1695 1.355 . S
C1696 C1698 1.419 1_455 S
C1697 C1692 1.425 1_455 S
C1697 C1694 1.409 . S
C1697 C1695 1.415 . S
C1698 H1688 0.930 . S
C1698 C1696 1.419 1_655 S
C1698 C1699 1.362 . S
C1699 H1689 0.930 . S
C1699 C1692 1.409 . S
C1699 C1698 1.362 . S
H1700 C1706 0.930 . S
H1701 C1709 0.930 . S
H1702 C1710 0.930 . S
H1703 C1711 0.930 . S
H1704 C1714 0.930 . S
H1705 C1715 0.930 . S
C1706 H1700 0.930 . S
C1706 C1707 1.355 1_545 S
C1706 C1708 1.415 . S
C1707 C1706 1.355 1_565 S
C1707 C1709 1.419 . S
C1708 C1706 1.415 . S
C1708 C1713 1.425 1_545 S
C1708 C1715 1.409 . S
C1709 H1701 0.930 . S
C1709 C1707 1.419 . S
C1709 C1710 1.362 . S
C1710 H1702 0.930 . S
C1710 C1709 1.362 . S
C1710 C1713 1.409 . S
C1711 H1703 0.930 . S
C1711 C1712 1.355 1_565 S
C1711 C1713 1.415 . S
C1712 C1711 1.355 1_545 S
C1712 C1714 1.419 . S
C1713 C1708 1.425 1_565 S
C1713 C1710 1.409 . S
C1713 C1711 1.415 . S
C1714 H1704 0.930 . S
C1714 C1712 1.419 . S
C1714 C1715 1.362 . S
C1715 H1705 0.930 . S
C1715 C1708 1.409 . S
C1715 C1714 1.362 . S
H1716 C1722 0.930 . S
H1717 C1725 0.930 . S
H1718 C1726 0.930 . S
H1719 C1727 0.930 . S
H1720 C1730 0.930 . S
H1721 C1731 0.930 . S
C1722 H1716 0.930 . S
C1722 C1723 1.338 1_455 S
C1722 C1724 1.415 . S
C1723 C1722 1.338 1_655 S
C1723 C1725 1.440 . S
C1724 C1722 1.415 . S
C1724 C1729 1.425 1_455 S
C1724 C1731 1.409 . S
C1725 H1717 0.930 . S
C1725 C1723 1.440 . S
C1725 C1726 1.362 . S
C1726 H1718 0.930 . S
C1726 C1725 1.362 . S
C1726 C1729 1.409 . S
C1727 H1719 0.930 . S
C1727 C1728 1.355 1_655 S
C1727 C1729 1.415 . S
C1728 C1727 1.355 1_455 S
C1728 C1730 1.419 . S
C1729 C1724 1.425 1_655 S
C1729 C1726 1.409 . S
C1729 C1727 1.415 . S
C1730 H1720 0.930 . S
C1730 C1728 1.419 . S
C1730 C1731 1.362 . S
C1731 H1721 0.930 . S
C1731 C1724 1.409 . S
C1731 C1730 1.362 . S
H1732 C1738 0.930 . S
H1733 C1741 0.930 . S
H1734 C1742 0.930 . S
H1735 C1743 0.930 . S
H1736 C1746 0.930 . S
H1737 C1747 0.930 . S
C1738 H1732 0.930 . S
C1738 C1739 1.355 1_545 S
C1738 C1740 1.415 . S
C1739 C1738 1.355 1_565 S
C1739 C1741 1.419 . S
C1740 C1738 1.415 . S
C1740 C1745 1.425 1_545 S
C1740 C1747 1.409 . S
C1741 H1733 0.930 . S
C1741 C1739 1.419 . S
C1741 C1742 1.362 . S
C1742 H1734 0.930 . S
C1742 C1741 1.362 . S
C1742 C1745 1.409 . S
C1743 H1735 0.930 . S
C1743 C1744 1.355 1_565 S
C1743 C1745 1.415 . S
C1744 C1743 1.355 1_545 S
C1744 C1746 1.419 . S
C1745 C1740 1.425 1_565 S
C1745 C1742 1.409 . S
C1745 C1743 1.415 . S
C1746 H1736 0.930 . S
C1746 C1744 1.419 . S
C1746 C1747 1.362 . S
C1747 H1737 0.930 . S
C1747 C1740 1.409 . S
C1747 C1746 1.362 . S
H1748 C1754 0.930 . S
H1749 C1757 0.930 . S
H1750 C1758 0.930 . S
H1751 C1759 0.930 . S
H1752 C1762 0.930 . S
H1753 C1763 0.930 . S
C1754 H1748 0.930 . S
C1754 C1755 1.356 . S
C1754 C1756 1.415 . S
C1755 C1754 1.356 . S
C1755 C1757 1.418 1_565 S
C1756 C1754 1.415 . S
C1756 C1761 1.425 1_565 S
C1756 C1763 1.409 . S
C1757 H1749 0.930 . S
C1757 C1755 1.418 1_545 S
C1757 C1758 1.362 . S
C1758 H1750 0.930 . S
C1758 C1757 1.362 . S
C1758 C1761 1.409 . S
C1759 H1751 0.930 . S
C1759 C1760 1.358 . S
C1759 C1761 1.415 . S
C1760 C1759 1.358 . S
C1760 C1762 1.415 1_545 S
C1761 C1756 1.425 1_545 S
C1761 C1758 1.409 . S
C1761 C1759 1.415 . S
C1762 H1752 0.930 . S
C1762 C1760 1.415 1_565 S
C1762 C1763 1.362 . S
C1763 H1753 0.930 . S
C1763 C1756 1.409 . S
C1763 C1762 1.362 . S
H1764 C1770 0.930 . S
H1765 C1773 0.930 . S
H1766 C1774 0.930 . S
H1767 C1775 0.930 . S
H1768 C1778 0.930 . S
H1769 C1779 0.930 . S
C1770 H1764 0.930 . S
C1770 C1771 1.356 . S
C1770 C1772 1.415 . S
C1771 C1770 1.356 . S
C1771 C1773 1.418 1_455 S
C1772 C1770 1.415 . S
C1772 C1777 1.425 1_455 S
C1772 C1779 1.409 . S
C1773 H1765 0.930 . S
C1773 C1771 1.418 1_655 S
C1773 C1774 1.362 . S
C1774 H1766 0.930 . S
C1774 C1773 1.362 . S
C1774 C1777 1.409 . S
C1775 H1767 0.930 . S
C1775 C1776 1.355 1_655 S
C1775 C1777 1.415 . S
C1776 C1775 1.355 1_455 S
C1776 C1778 1.419 . S
C1777 C1772 1.425 1_655 S
C1777 C1774 1.409 . S
C1777 C1775 1.415 . S
C1778 H1768 0.930 . S
C1778 C1776 1.419 . S
C1778 C1779 1.362 . S
C1779 H1769 0.930 . S
C1779 C1772 1.409 . S
C1779 C1778 1.362 . S
H1780 C1786 0.930 . S
H1781 C1789 0.930 . S
H1782 C1790 0.930 . S
H1783 C1791 0.930 . S
H1784 C1794 0.930 . S
H1785 C1795 0.930 . S
C1786 H1780 0.930 . S
C1786 C1787 1.355 1_545 S
C1786 C1788 1.415 . S
C1787 C1786 1.355 1_565 S
C1787 C1789 1.419 . S
C1788 C1786 1.415 . S
C1788 C1793 1.425 1_545 S
C1788 C1795 1.409 . S
C1789 H1781 0.930 . S
C1789 C1787 1.419 . S
C1789 C1790 1.362 . S
C1790 H1782 0.930 . S
C1790 C1789 1.362 . S
C1790 C1793 1.409 . S
C1791 H1783 0.930 . S
C1791 C1792 1.355 1_565 S
C1791 C1793 1.415 . S
C1792 C1791 1.355 1_545 S
C1792 C1794 1.419 . S
C1793 C1788 1.425 1_565 S
C1793 C1790 1.409 . S
C1793 C1791 1.415 . S
C1794 H1784 0.930 . S
C1794 C1792 1.419 . S
C1794 C1795 1.362 . S
C1795 H1785 0.930 . S
C1795 C1788 1.409 . S
C1795 C1794 1.362 . S
H1796 C1802 0.930 . S
H1797 C1805 0.930 . S
H1798 C1806 0.930 . S
H1799 C1807 0.930 . S
H1800 C1810 0.930 . S
H1801 C1811 0.930 . S
C1802 H1796 0.930 . S
C1802 C1803 1.333 1_455 S
C1802 C1804 1.415 . S
C1803 C1802 1.333 1_655 S
C1803 C1805 1.446 . S
C1804 C1802 1.415 . S
C1804 C1809 1.425 1_455 S
C1804 C1811 1.409 . S
C1805 H1797 0.930 . S
C1805 C1803 1.446 . S
C1805 C1806 1.362 . S
C1806 H1798 0.930 . S
C1806 C1805 1.362 . S
C1806 C1809 1.409 . S
C1807 H1799 0.930 . S
C1807 C1808 1.355 1_655 S
C1807 C1809 1.415 . S
C1808 C1807 1.355 1_455 S
C1808 C1810 1.419 . S
C1809 C1804 1.425 1_655 S
C1809 C1806 1.409 . S
C1809 C1807 1.415 . S
C1810 H1800 0.930 . S
C1810 C1808 1.419 . S
C1810 C1811 1.362 . S
C1811 H1801 0.930 . S
C1811 C1804 1.409 . S
C1811 C1810 1.362 . S
H1812 C1818 0.930 . S
H1813 C1821 0.930 . S
H1814 C1822 0.930 . S
H1815 C1823 0.930 . S
H1816 C1826 0.930 . S
H1817 C1827 0.930 . S
C1818 H1812 0.930 . S
C1818 C1819 1.355 1_545 S
C1818 C1820 1.415 . S
C1819 C1818 1.355 1_565 S
C1819 C1821 1.419 . S
C1820 C1818 1.415 . S
C1820 C1825 1.425 1_545 S
C1820 C1827 1.409 . S
C1821 H1813 0.930 . S
C1821 C1819 1.419 . S
C1821 C1822 1.362 . S
C1822 H1814 0.930 . S
C1822 C1821 1.362 . S
C1822 C1825 1.409 . S
C1823 H1815 0.930 . S
C1823 C1824 1.355 1_565 S
C1823 C1825 1.415 . S
C1824 C1823 1.355 1_545 S
C1824 C1826 1.419 . S
C1825 C1820 1.425 1_565 S
C1825 C1822 1.409 . S
C1825 C1823 1.415 . S
C1826 H1816 0.930 . S
C1826 C1824 1.419 . S
C1826 C1827 1.362 . S
C1827 H1817 0.930 . S
C1827 C1820 1.409 . S
C1827 C1826 1.362 . S
H1828 C1834 0.930 . S
H1829 C1837 0.930 . S
H1830 C1838 0.930 . S
H1831 C1839 0.930 . S
H1832 C1842 0.930 . S
H1833 C1843 0.930 . S
C1834 H1828 0.930 . S
C1834 C1835 1.355 . S
C1834 C1836 1.415 . S
C1835 C1834 1.355 . S
C1835 C1837 1.419 1_455 S
C1836 C1834 1.415 . S
C1836 C1841 1.425 1_455 S
C1836 C1843 1.409 . S
C1837 H1829 0.930 . S
C1837 C1835 1.419 1_655 S
C1837 C1838 1.362 . S
C1838 H1830 0.930 . S
C1838 C1837 1.362 . S
C1838 C1841 1.409 . S
C1839 H1831 0.930 . S
C1839 C1840 1.355 1_655 S
C1839 C1841 1.415 . S
C1840 C1839 1.355 1_455 S
C1840 C1842 1.419 . S
C1841 C1836 1.425 1_655 S
C1841 C1838 1.409 . S
C1841 C1839 1.415 . S
C1842 H1832 0.930 . S
C1842 C1840 1.419 . S
C1842 C1843 1.362 . S
C1843 H1833 0.930 . S
C1843 C1836 1.409 . S
C1843 C1842 1.362 . S
H1844 C1850 0.930 . S
H1845 C1853 0.930 . S
H1846 C1854 0.930 . S
H1847 C1855 0.930 . S
H1848 C1858 0.930 . S
H1849 C1859 0.930 . S
C1850 H1844 0.930 . S
C1850 C1851 1.355 1_565 S
C1850 C1852 1.415 . S
C1851 C1850 1.355 1_545 S
C1851 C1853 1.419 . S
C1852 C1850 1.415 . S
C1852 C1857 1.425 1_565 S
C1852 C1859 1.409 . S
C1853 H1845 0.930 . S
C1853 C1851 1.419 . S
C1853 C1854 1.362 . S
C1854 H1846 0.930 . S
C1854 C1853 1.362 . S
C1854 C1857 1.409 . S
C1855 H1847 0.930 . S
C1855 C1856 1.355 1_545 S
C1855 C1857 1.415 . S
C1856 C1855 1.355 1_565 S
C1856 C1858 1.419 . S
C1857 C1852 1.425 1_545 S
C1857 C1854 1.409 . S
C1857 C1855 1.415 . S
C1858 H1848 0.930 . S
C1858 C1856 1.419 . S
C1858 C1859 1.362 . S
C1859 H1849 0.930 . S
C1859 C1852 1.409 . S
C1859 C1858 1.362 . S
H1860 C1866 0.930 . S
H1861 C1869 0.930 . S
H1862 C1870 0.930 . S
H1863 C1871 0.930 . S
H1864 C1874 0.930 . S
H1865 C1875 0.930 . S
C1866 H1860 0.930 . S
C1866 C1867 1.355 1_655 S
C1866 C1868 1.415 . S
C1867 C1866 1.355 1_455 S
C1867 C1869 1.419 . S
C1868 C1866 1.415 . S
C1868 C1873 1.425 1_655 S
C1868 C1875 1.409 . S
C1869 H1861 0.930 . S
C1869 C1867 1.419 . S
C1869 C1870 1.362 . S
C1870 H1862 0.930 . S
C1870 C1869 1.362 . S
C1870 C1873 1.409 . S
C1871 H1863 0.930 . S
C1871 C1872 1.354 . S
C1871 C1873 1.415 . S
C1872 C1871 1.354 . S
C1872 C1874 1.420 1_455 S
C1873 C1868 1.425 1_455 S
C1873 C1870 1.409 . S
C1873 C1871 1.415 . S
C1874 H1864 0.930 . S
C1874 C1872 1.420 1_655 S
C1874 C1875 1.362 . S
C1875 H1865 0.930 . S
C1875 C1868 1.409 . S
C1875 C1874 1.362 . S
H1876 C1882 0.930 . S
H1877 C1885 0.930 . S
H1878 C1886 0.930 . S
H1879 C1887 0.930 . S
H1880 C1890 0.930 . S
H1881 C1891 0.930 . S
C1882 H1876 0.930 . S
C1882 C1883 1.357 . S
C1882 C1884 1.415 . S
C1883 C1882 1.357 . S
C1883 C1885 1.417 1_556 S
C1884 C1882 1.415 . S
C1884 C1889 1.425 1_556 S
C1884 C1891 1.409 . S
C1885 H1877 0.930 . S
C1885 C1883 1.417 1_554 S
C1885 C1886 1.362 . S
C1886 H1878 0.930 . S
C1886 C1885 1.362 . S
C1886 C1889 1.409 . S
C1887 H1879 0.930 . S
C1887 C1888 1.358 . S
C1887 C1889 1.415 . S
C1888 C1887 1.358 . S
C1888 C1890 1.416 1_554 S
C1889 C1884 1.425 1_554 S
C1889 C1886 1.409 . S
C1889 C1887 1.415 . S
C1890 H1880 0.930 . S
C1890 C1888 1.416 1_556 S
C1890 C1891 1.362 . S
C1891 H1881 0.930 . S
C1891 C1884 1.409 . S
C1891 C1890 1.362 . S
H1892 C1898 0.930 . S
H1893 C1901 0.930 . S
H1894 C1902 0.930 . S
H1895 C1903 0.930 . S
H1896 C1906 0.930 . S
H1897 C1907 0.930 . S
C1898 H1892 0.930 . S
C1898 C1899 1.355 1_554 S
C1898 C1900 1.415 . S
C1899 C1898 1.355 1_556 S
C1899 C1901 1.419 . S
C1900 C1898 1.415 . S
C1900 C1905 1.425 1_554 S
C1900 C1907 1.409 . S
C1901 H1893 0.930 . S
C1901 C1899 1.419 . S
C1901 C1902 1.362 . S
C1902 H1894 0.930 . S
C1902 C1901 1.362 . S
C1902 C1905 1.409 . S
C1903 H1895 0.930 . S
C1903 C1904 1.355 1_556 S
C1903 C1905 1.415 . S
C1904 C1903 1.355 1_554 S
C1904 C1906 1.419 . S
C1905 C1900 1.425 1_556 S
C1905 C1902 1.409 . S
C1905 C1903 1.415 . S
C1906 H1896 0.930 . S
C1906 C1904 1.419 . S
C1906 C1907 1.362 . S
C1907 H1897 0.930 . S
C1907 C1900 1.409 . S
C1907 C1906 1.362 . S
H1908 C1914 0.930 . S
H1909 C1917 0.930 . S
H1910 C1918 0.930 . S
H1911 C1919 0.930 . S
H1912 C1922 0.930 . S
H1913 C1923 0.930 . S
C1914 H1908 0.930 . S
C1914 C1915 1.355 1_556 S
C1914 C1916 1.415 . S
C1915 C1914 1.355 1_554 S
C1915 C1917 1.419 . S
C1916 C1914 1.415 . S
C1916 C1921 1.425 1_556 S
C1916 C1923 1.409 . S
C1917 H1909 0.930 . S
C1917 C1915 1.419 . S
C1917 C1918 1.362 . S
C1918 H1910 0.930 . S
C1918 C1917 1.362 . S
C1918 C1921 1.409 . S
C1919 H1911 0.930 . S
C1919 C1920 1.355 1_554 S
C1919 C1921 1.415 . S
C1920 C1919 1.355 1_556 S
C1920 C1922 1.419 . S
C1921 C1916 1.425 1_554 S
C1921 C1918 1.409 . S
C1921 C1919 1.415 . S
C1922 H1912 0.930 . S
C1922 C1920 1.419 . S
C1922 C1923 1.362 . S
C1923 H1913 0.930 . S
C1923 C1916 1.409 . S
C1923 C1922 1.362 . S
H1924 C1930 0.930 . S
H1925 C1933 0.930 . S
H1926 C1934 0.930 . S
H1927 C1935 0.930 . S
H1928 C1938 0.930 . S
H1929 C1939 0.930 . S
C1930 H1924 0.930 . S
C1930 C1931 1.355 1_554 S
C1930 C1932 1.415 . S
C1931 C1930 1.355 1_556 S
C1931 C1933 1.419 . S
C1932 C1930 1.415 . S
C1932 C1937 1.425 1_554 S
C1932 C1939 1.409 . S
C1933 H1925 0.930 . S
C1933 C1931 1.419 . S
C1933 C1934 1.362 . S
C1934 H1926 0.930 . S
C1934 C1933 1.362 . S
C1934 C1937 1.409 . S
C1935 H1927 0.930 . S
C1935 C1936 1.355 1_556 S
C1935 C1937 1.415 . S
C1936 C1935 1.355 1_554 S
C1936 C1938 1.419 . S
C1937 C1932 1.425 1_556 S
C1937 C1934 1.409 . S
C1937 C1935 1.415 . S
C1938 H1928 0.930 . S
C1938 C1936 1.419 . S
C1938 C1939 1.362 . S
C1939 H1929 0.930 . S
C1939 C1932 1.409 . S
C1939 C1938 1.362 . S
H1940 C1946 0.930 . S
H1941 C1949 0.930 . S
H1942 C1950 0.930 . S
H1943 C1951 0.930 . S
H1944 C1954 0.930 . S
H1945 C1955 0.930 . S
C1946 H1940 0.930 . S
C1946 C1947 1.355 1_554 S
C1946 C1948 1.415 . S
C1947 C1946 1.355 1_556 S
C1947 C1949 1.419 . S
C1948 C1946 1.415 . S
C1948 C1953 1.425 1_554 S
C1948 C1955 1.409 . S
C1949 H1941 0.930 . S
C1949 C1947 1.419 . S
C1949 C1950 1.362 . S
C1950 H1942 0.930 . S
C1950 C1949 1.362 . S
C1950 C1953 1.409 . S
C1951 H1943 0.930 . S
C1951 C1952 1.355 1_556 S
C1951 C1953 1.415 . S
C1952 C1951 1.355 1_554 S
C1952 C1954 1.419 . S
C1953 C1948 1.425 1_556 S
C1953 C1950 1.409 . S
C1953 C1951 1.415 . S
C1954 H1944 0.930 . S
C1954 C1952 1.419 . S
C1954 C1955 1.362 . S
C1955 H1945 0.930 . S
C1955 C1948 1.409 . S
C1955 C1954 1.362 . S
H1956 C1962 0.930 . S
H1957 C1965 0.930 . S
H1958 C1966 0.930 . S
H1959 C1967 0.930 . S
H1960 C1970 0.930 . S
H1961 C1971 0.930 . S
C1962 H1956 0.930 . S
C1962 C1963 1.357 . S
C1962 C1964 1.415 . S
C1963 C1962 1.357 . S
C1963 C1965 1.416 1_554 S
C1964 C1962 1.415 . S
C1964 C1969 1.425 1_554 S
C1964 C1971 1.409 . S
C1965 H1957 0.930 . S
C1965 C1963 1.416 1_556 S
C1965 C1966 1.362 . S
C1966 H1958 0.930 . S
C1966 C1965 1.362 . S
C1966 C1969 1.409 . S
C1967 H1959 0.930 . S
C1967 C1968 1.355 . S
C1967 C1969 1.415 . S
C1968 C1967 1.355 . S
C1968 C1970 1.419 1_556 S
C1969 C1964 1.425 1_556 S
C1969 C1966 1.409 . S
C1969 C1967 1.415 . S
C1970 H1960 0.930 . S
C1970 C1968 1.419 1_554 S
C1970 C1971 1.362 . S
C1971 H1961 0.930 . S
C1971 C1964 1.409 . S
C1971 C1970 1.362 . S
H1972 C1978 0.930 1_554 S
H1973 C1981 0.930 . S
H1974 C1982 0.930 . S
H1975 C1983 0.929 . S
H1976 C1986 0.930 . S
H1977 C1987 0.930 . S
C1978 H1972 0.930 1_556 S
C1978 C1979 1.354 . S
C1978 C1980 1.414 1_556 S
C1979 C1978 1.354 . S
C1979 C1981 1.421 . S
C1980 C1978 1.414 1_554 S
C1980 C1985 1.424 1_554 S
C1980 C1987 1.411 . S
C1981 H1973 0.930 . S
C1981 C1979 1.421 . S
C1981 C1982 1.362 . S
C1982 H1974 0.930 . S
C1982 C1981 1.362 . S
C1982 C1985 1.410 . S
C1983 H1975 0.929 . S
C1983 C1984 1.355 . S
C1983 C1985 1.414 1_554 S
C1984 C1983 1.355 . S
C1984 C1986 1.419 . S
C1985 C1980 1.424 1_556 S
C1985 C1982 1.410 . S
C1985 C1983 1.414 1_556 S
C1986 H1976 0.930 . S
C1986 C1984 1.419 . S
C1986 C1987 1.362 . S
C1987 H1977 0.930 . S
C1987 C1980 1.411 . S
C1987 C1986 1.362 . S
H1988 C1994 0.930 . S
H1989 C1997 0.930 . S
H1990 C1998 0.930 . S
H1991 C1999 0.930 . S
H1992 C2002 0.930 . S
H1993 C2003 0.930 . S
C1994 H1988 0.930 . S
C1994 C1995 1.355 1_556 S
C1994 C1996 1.415 . S
C1995 C1994 1.355 1_554 S
C1995 C1997 1.419 . S
C1996 C1994 1.415 . S
C1996 C2001 1.425 1_556 S
C1996 C2003 1.409 . S
C1997 H1989 0.930 . S
C1997 C1995 1.419 . S
C1997 C1998 1.362 . S
C1998 H1990 0.930 . S
C1998 C1997 1.362 . S
C1998 C2001 1.409 . S
C1999 H1991 0.930 . S
C1999 C2000 1.355 1_554 S
C1999 C2001 1.415 . S
C2000 C1999 1.355 1_556 S
C2000 C2002 1.419 . S
C2001 C1996 1.425 1_554 S
C2001 C1998 1.409 . S
C2001 C1999 1.415 . S
C2002 H1992 0.930 . S
C2002 C2000 1.419 . S
C2002 C2003 1.362 . S
C2003 H1993 0.930 . S
C2003 C1996 1.409 . S
C2003 C2002 1.362 . S
H2004 C2010 0.930 . S
H2005 C2013 0.930 . S
H2006 C2014 0.930 . S
H2007 C2015 0.930 . S
H2008 C2018 0.930 . S
H2009 C2019 0.930 . S
C2010 H2004 0.930 . S
C2010 C2011 1.355 . S
C2010 C2012 1.415 . S
C2011 C2010 1.355 . S
C2011 C2013 1.419 . S
C2012 C2010 1.415 . S
C2012 C2017 1.425 . S
C2012 C2019 1.409 . S
C2013 H2005 0.930 . S
C2013 C2011 1.419 . S
C2013 C2014 1.362 . S
C2014 H2006 0.930 . S
C2014 C2013 1.362 . S
C2014 C2017 1.409 . S
C2015 H2007 0.930 . S
C2015 C2016 1.355 . S
C2015 C2017 1.415 . S
C2016 C2015 1.355 . S
C2016 C2018 1.419 . S
C2017 C2012 1.425 . S
C2017 C2014 1.409 . S
C2017 C2015 1.415 . S
C2018 H2008 0.930 . S
C2018 C2016 1.419 . S
C2018 C2019 1.362 . S
C2019 H2009 0.930 . S
C2019 C2012 1.409 . S
C2019 C2018 1.362 . S
H2020 C2026 0.930 . S
H2021 C2029 0.930 . S
H2022 C2030 0.930 . S
H2023 C2031 0.930 . S
H2024 C2034 0.930 . S
H2025 C2035 0.930 . S
C2026 H2020 0.930 . S
C2026 C2027 1.355 . S
C2026 C2028 1.415 . S
C2027 C2026 1.355 . S
C2027 C2029 1.419 . S
C2028 C2026 1.415 . S
C2028 C2033 1.425 . S
C2028 C2035 1.409 . S
C2029 H2021 0.930 . S
C2029 C2027 1.419 . S
C2029 C2030 1.362 . S
C2030 H2022 0.930 . S
C2030 C2029 1.362 . S
C2030 C2033 1.409 . S
C2031 H2023 0.930 . S
C2031 C2032 1.355 . S
C2031 C2033 1.415 . S
C2032 C2031 1.355 . S
C2032 C2034 1.419 . S
C2033 C2028 1.425 . S
C2033 C2030 1.409 . S
C2033 C2031 1.415 . S
C2034 H2024 0.930 . S
C2034 C2032 1.419 . S
C2034 C2035 1.362 . S
C2035 H2025 0.930 . S
C2035 C2028 1.409 . S
C2035 C2034 1.362 . S
H2036 C2042 0.930 . S
H2037 C2045 0.930 . S
H2038 C2046 0.930 . S
H2039 C2047 0.930 . S
H2040 C2050 0.930 . S
H2041 C2051 0.930 . S
C2042 H2036 0.930 . S
C2042 C2043 1.355 . S
C2042 C2044 1.415 . S
C2043 C2042 1.355 . S
C2043 C2045 1.419 . S
C2044 C2042 1.415 . S
C2044 C2049 1.425 . S
C2044 C2051 1.409 . S
C2045 H2037 0.930 . S
C2045 C2043 1.419 . S
C2045 C2046 1.362 . S
C2046 H2038 0.930 . S
C2046 C2045 1.362 . S
C2046 C2049 1.409 . S
C2047 H2039 0.930 . S
C2047 C2048 1.355 . S
C2047 C2049 1.415 . S
C2048 C2047 1.355 . S
C2048 C2050 1.419 . S
C2049 C2044 1.425 . S
C2049 C2046 1.409 . S
C2049 C2047 1.415 . S
C2050 H2040 0.930 . S
C2050 C2048 1.419 . S
C2050 C2051 1.362 . S
C2051 H2041 0.930 . S
C2051 C2044 1.409 . S
C2051 C2050 1.362 . S
H2052 C2058 0.930 . S
H2053 C2061 0.930 . S
H2054 C2062 0.930 . S
H2055 C2063 0.930 . S
H2056 C2066 0.930 . S
H2057 C2067 0.930 . S
C2058 H2052 0.930 . S
C2058 C2059 1.355 . S
C2058 C2060 1.415 . S
C2059 C2058 1.355 . S
C2059 C2061 1.419 . S
C2060 C2058 1.415 . S
C2060 C2065 1.425 . S
C2060 C2067 1.409 . S
C2061 H2053 0.930 . S
C2061 C2059 1.419 . S
C2061 C2062 1.362 . S
C2062 H2054 0.930 . S
C2062 C2061 1.362 . S
C2062 C2065 1.409 . S
C2063 H2055 0.930 . S
C2063 C2064 1.355 . S
C2063 C2065 1.415 . S
C2064 C2063 1.355 . S
C2064 C2066 1.419 . S
C2065 C2060 1.425 . S
C2065 C2062 1.409 . S
C2065 C2063 1.415 . S
C2066 H2056 0.930 . S
C2066 C2064 1.419 . S
C2066 C2067 1.362 . S
C2067 H2057 0.930 . S
C2067 C2060 1.409 . S
C2067 C2066 1.362 . S
H2068 C2074 0.930 . S
H2069 C2077 0.930 . S
H2070 C2078 0.930 . S
H2071 C2079 0.930 . S
H2072 C2082 0.930 . S
H2073 C2083 0.930 . S
C2074 H2068 0.930 . S
C2074 C2075 1.355 . S
C2074 C2076 1.415 . S
C2075 C2074 1.355 . S
C2075 C2077 1.419 . S
C2076 C2074 1.415 . S
C2076 C2081 1.425 . S
C2076 C2083 1.409 . S
C2077 H2069 0.930 . S
C2077 C2075 1.419 . S
C2077 C2078 1.362 . S
C2078 H2070 0.930 . S
C2078 C2077 1.362 . S
C2078 C2081 1.409 . S
C2079 H2071 0.930 . S
C2079 C2080 1.355 . S
C2079 C2081 1.415 . S
C2080 C2079 1.355 . S
C2080 C2082 1.419 . S
C2081 C2076 1.425 . S
C2081 C2078 1.409 . S
C2081 C2079 1.415 . S
C2082 H2072 0.930 . S
C2082 C2080 1.419 . S
C2082 C2083 1.362 . S
C2083 H2073 0.930 . S
C2083 C2076 1.409 . S
C2083 C2082 1.362 . S
H2084 C2090 0.930 . S
H2085 C2093 0.930 . S
H2086 C2094 0.930 . S
H2087 C2095 0.930 . S
H2088 C2098 0.930 . S
H2089 C2099 0.930 . S
C2090 H2084 0.930 . S
C2090 C2091 1.355 . S
C2090 C2092 1.415 . S
C2091 C2090 1.355 . S
C2091 C2093 1.419 . S
C2092 C2090 1.415 . S
C2092 C2097 1.425 . S
C2092 C2099 1.409 . S
C2093 H2085 0.930 . S
C2093 C2091 1.419 . S
C2093 C2094 1.362 . S
C2094 H2086 0.930 . S
C2094 C2093 1.362 . S
C2094 C2097 1.409 . S
C2095 H2087 0.930 . S
C2095 C2096 1.355 . S
C2095 C2097 1.415 . S
C2096 C2095 1.355 . S
C2096 C2098 1.419 . S
C2097 C2092 1.425 . S
C2097 C2094 1.409 . S
C2097 C2095 1.415 . S
C2098 H2088 0.930 . S
C2098 C2096 1.419 . S
C2098 C2099 1.362 . S
C2099 H2089 0.930 . S
C2099 C2092 1.409 . S
C2099 C2098 1.362 . S
H2100 C2106 0.930 . S
H2101 C2109 0.930 . S
H2102 C2110 0.930 . S
H2103 C2111 0.930 . S
H2104 C2114 0.930 . S
H2105 C2115 0.930 . S
C2106 H2100 0.930 . S
C2106 C2107 1.355 . S
C2106 C2108 1.415 . S
C2107 C2106 1.355 . S
C2107 C2109 1.419 . S
C2108 C2106 1.415 . S
C2108 C2113 1.425 . S
C2108 C2115 1.409 . S
C2109 H2101 0.930 . S
C2109 C2107 1.419 . S
C2109 C2110 1.362 . S
C2110 H2102 0.930 . S
C2110 C2109 1.362 . S
C2110 C2113 1.409 . S
C2111 H2103 0.930 . S
C2111 C2112 1.355 . S
C2111 C2113 1.415 . S
C2112 C2111 1.355 . S
C2112 C2114 1.419 . S
C2113 C2108 1.425 . S
C2113 C2110 1.409 . S
C2113 C2111 1.415 . S
C2114 H2104 0.930 . S
C2114 C2112 1.419 . S
C2114 C2115 1.362 . S
C2115 H2105 0.930 . S
C2115 C2108 1.409 . S
C2115 C2114 1.362 . S
H2116 C2122 0.930 . S
H2117 C2125 0.930 . S
H2118 C2126 0.930 . S
H2119 C2127 0.930 . S
H2120 C2130 0.930 . S
H2121 C2131 0.930 . S
C2122 H2116 0.930 . S
C2122 C2123 1.355 . S
C2122 C2124 1.415 . S
C2123 C2122 1.355 . S
C2123 C2125 1.419 . S
C2124 C2122 1.415 . S
C2124 C2129 1.425 . S
C2124 C2131 1.409 . S
C2125 H2117 0.930 . S
C2125 C2123 1.419 . S
C2125 C2126 1.362 . S
C2126 H2118 0.930 . S
C2126 C2125 1.362 . S
C2126 C2129 1.409 . S
C2127 H2119 0.930 . S
C2127 C2128 1.355 . S
C2127 C2129 1.415 . S
C2128 C2127 1.355 . S
C2128 C2130 1.419 . S
C2129 C2124 1.425 . S
C2129 C2126 1.409 . S
C2129 C2127 1.415 . S
C2130 H2120 0.930 . S
C2130 C2128 1.419 . S
C2130 C2131 1.362 . S
C2131 H2121 0.930 . S
C2131 C2124 1.409 . S
C2131 C2130 1.362 . S
H2132 C2138 0.930 . S
H2133 C2141 0.930 . S
H2134 C2142 0.930 . S
H2135 C2143 0.930 . S
H2136 C2146 0.930 . S
H2137 C2147 0.930 . S
C2138 H2132 0.930 . S
C2138 C2139 1.355 . S
C2138 C2140 1.415 . S
C2139 C2138 1.355 . S
C2139 C2141 1.419 . S
C2140 C2138 1.415 . S
C2140 C2145 1.425 . S
C2140 C2147 1.409 . S
C2141 H2133 0.930 . S
C2141 C2139 1.419 . S
C2141 C2142 1.362 . S
C2142 H2134 0.930 . S
C2142 C2141 1.362 . S
C2142 C2145 1.409 . S
C2143 H2135 0.930 . S
C2143 C2144 1.355 . S
C2143 C2145 1.415 . S
C2144 C2143 1.355 . S
C2144 C2146 1.419 . S
C2145 C2140 1.425 . S
C2145 C2142 1.409 . S
C2145 C2143 1.415 . S
C2146 H2136 0.930 . S
C2146 C2144 1.419 . S
C2146 C2147 1.362 . S
C2147 H2137 0.930 . S
C2147 C2140 1.409 . S
C2147 C2146 1.362 . S
H2148 C2154 0.930 . S
H2149 C2157 0.930 . S
H2150 C2158 0.930 . S
H2151 C2159 0.930 . S
H2152 C2162 0.930 . S
H2153 C2163 0.930 . S
C2154 H2148 0.930 . S
C2154 C2155 1.355 . S
C2154 C2156 1.415 . S
C2155 C2154 1.355 . S
C2155 C2157 1.419 . S
C2156 C2154 1.415 . S
C2156 C2161 1.425 . S
C2156 C2163 1.409 . S
C2157 H2149 0.930 . S
C2157 C2155 1.419 . S
C2157 C2158 1.362 . S
C2158 H2150 0.930 . S
C2158 C2157 1.362 . S
C2158 C2161 1.409 . S
C2159 H2151 0.930 . S
C2159 C2160 1.355 . S
C2159 C2161 1.415 . S
C2160 C2159 1.355 . S
C2160 C2162 1.419 . S
C2161 C2156 1.425 . S
C2161 C2158 1.409 . S
C2161 C2159 1.415 . S
C2162 H2152 0.930 . S
C2162 C2160 1.419 . S
C2162 C2163 1.362 . S
C2163 H2153 0.930 . S
C2163 C2156 1.409 . S
C2163 C2162 1.362 . S
H2164 C2170 0.930 . S
H2165 C2173 0.930 . S
H2166 C2174 0.930 . S
H2167 C2175 0.930 . S
H2168 C2178 0.930 . S
H2169 C2179 0.930 . S
C2170 H2164 0.930 . S
C2170 C2171 1.355 . S
C2170 C2172 1.415 . S
C2171 C2170 1.355 . S
C2171 C2173 1.419 . S
C2172 C2170 1.415 . S
C2172 C2177 1.425 . S
C2172 C2179 1.409 . S
C2173 H2165 0.930 . S
C2173 C2171 1.419 . S
C2173 C2174 1.362 . S
C2174 H2166 0.930 . S
C2174 C2173 1.362 . S
C2174 C2177 1.409 . S
C2175 H2167 0.930 . S
C2175 C2176 1.355 . S
C2175 C2177 1.415 . S
C2176 C2175 1.355 . S
C2176 C2178 1.419 . S
C2177 C2172 1.425 . S
C2177 C2174 1.409 . S
C2177 C2175 1.415 . S
C2178 H2168 0.930 . S
C2178 C2176 1.419 . S
C2178 C2179 1.362 . S
C2179 H2169 0.930 . S
C2179 C2172 1.409 . S
C2179 C2178 1.362 . S
H2180 C2186 0.930 . S
H2181 C2189 0.930 . S
H2182 C2190 0.930 . S
H2183 C2191 0.930 . S
H2184 C2194 0.930 . S
H2185 C2195 0.930 . S
C2186 H2180 0.930 . S
C2186 C2187 1.355 . S
C2186 C2188 1.415 . S
C2187 C2186 1.355 . S
C2187 C2189 1.419 . S
C2188 C2186 1.415 . S
C2188 C2193 1.425 . S
C2188 C2195 1.409 . S
C2189 H2181 0.930 . S
C2189 C2187 1.419 . S
C2189 C2190 1.362 . S
C2190 H2182 0.930 . S
C2190 C2189 1.362 . S
C2190 C2193 1.409 . S
C2191 H2183 0.930 . S
C2191 C2192 1.355 . S
C2191 C2193 1.415 . S
C2192 C2191 1.355 . S
C2192 C2194 1.419 . S
C2193 C2188 1.425 . S
C2193 C2190 1.409 . S
C2193 C2191 1.415 . S
C2194 H2184 0.930 . S
C2194 C2192 1.419 . S
C2194 C2195 1.362 . S
C2195 H2185 0.930 . S
C2195 C2188 1.409 . S
C2195 C2194 1.362 . S
H2196 C2202 0.930 . S
H2197 C2205 0.930 . S
H2198 C2206 0.930 . S
H2199 C2207 0.930 . S
H2200 C2210 0.930 . S
H2201 C2211 0.930 . S
C2202 H2196 0.930 . S
C2202 C2203 1.355 . S
C2202 C2204 1.415 . S
C2203 C2202 1.355 . S
C2203 C2205 1.419 . S
C2204 C2202 1.415 . S
C2204 C2209 1.425 . S
C2204 C2211 1.409 . S
C2205 H2197 0.930 . S
C2205 C2203 1.419 . S
C2205 C2206 1.362 . S
C2206 H2198 0.930 . S
C2206 C2205 1.362 . S
C2206 C2209 1.409 . S
C2207 H2199 0.930 . S
C2207 C2208 1.355 . S
C2207 C2209 1.415 . S
C2208 C2207 1.355 . S
C2208 C2210 1.419 . S
C2209 C2204 1.425 . S
C2209 C2206 1.409 . S
C2209 C2207 1.415 . S
C2210 H2200 0.930 . S
C2210 C2208 1.419 . S
C2210 C2211 1.362 . S
C2211 H2201 0.930 . S
C2211 C2204 1.409 . S
C2211 C2210 1.362 . S
H2212 C2218 0.930 . S
H2213 C2221 0.930 . S
H2214 C2222 0.930 . S
H2215 C2223 0.930 . S
H2216 C2226 0.930 . S
H2217 C2227 0.930 . S
C2218 H2212 0.930 . S
C2218 C2219 1.355 . S
C2218 C2220 1.415 . S
C2219 C2218 1.355 . S
C2219 C2221 1.419 . S
C2220 C2218 1.415 . S
C2220 C2225 1.425 . S
C2220 C2227 1.409 . S
C2221 H2213 0.930 . S
C2221 C2219 1.419 . S
C2221 C2222 1.362 . S
C2222 H2214 0.930 . S
C2222 C2221 1.362 . S
C2222 C2225 1.409 . S
C2223 H2215 0.930 . S
C2223 C2224 1.355 . S
C2223 C2225 1.415 . S
C2224 C2223 1.355 . S
C2224 C2226 1.419 . S
C2225 C2220 1.425 . S
C2225 C2222 1.409 . S
C2225 C2223 1.415 . S
C2226 H2216 0.930 . S
C2226 C2224 1.419 . S
C2226 C2227 1.362 . S
C2227 H2217 0.930 . S
C2227 C2220 1.409 . S
C2227 C2226 1.362 . S
H2228 C2234 0.930 . S
H2229 C2237 0.930 . S
H2230 C2238 0.930 . S
H2231 C2239 0.930 . S
H2232 C2242 0.930 . S
H2233 C2243 0.930 . S
C2234 H2228 0.930 . S
C2234 C2235 1.355 . S
C2234 C2236 1.415 . S
C2235 C2234 1.355 . S
C2235 C2237 1.419 . S
C2236 C2234 1.415 . S
C2236 C2241 1.425 . S
C2236 C2243 1.409 . S
C2237 H2229 0.930 . S
C2237 C2235 1.419 . S
C2237 C2238 1.362 . S
C2238 H2230 0.930 . S
C2238 C2237 1.362 . S
C2238 C2241 1.409 . S
C2239 H2231 0.930 . S
C2239 C2240 1.355 . S
C2239 C2241 1.415 . S
C2240 C2239 1.355 . S
C2240 C2242 1.419 . S
C2241 C2236 1.425 . S
C2241 C2238 1.409 . S
C2241 C2239 1.415 . S
C2242 H2232 0.930 . S
C2242 C2240 1.419 . S
C2242 C2243 1.362 . S
C2243 H2233 0.930 . S
C2243 C2236 1.409 . S
C2243 C2242 1.362 . S
H2244 C2250 0.930 . S
H2245 C2253 0.930 . S
H2246 C2254 0.930 . S
H2247 C2255 0.930 . S
H2248 C2258 0.930 . S
H2249 C2259 0.930 . S
C2250 H2244 0.930 . S
C2250 C2251 1.355 . S
C2250 C2252 1.415 . S
C2251 C2250 1.355 . S
C2251 C2253 1.419 . S
C2252 C2250 1.415 . S
C2252 C2257 1.425 . S
C2252 C2259 1.409 . S
C2253 H2245 0.930 . S
C2253 C2251 1.419 . S
C2253 C2254 1.362 . S
C2254 H2246 0.930 . S
C2254 C2253 1.362 . S
C2254 C2257 1.409 . S
C2255 H2247 0.930 . S
C2255 C2256 1.355 . S
C2255 C2257 1.415 . S
C2256 C2255 1.355 . S
C2256 C2258 1.419 . S
C2257 C2252 1.425 . S
C2257 C2254 1.409 . S
C2257 C2255 1.415 . S
C2258 H2248 0.930 . S
C2258 C2256 1.419 . S
C2258 C2259 1.362 . S
C2259 H2249 0.930 . S
C2259 C2252 1.409 . S
C2259 C2258 1.362 . S
H2260 C2266 0.930 . S
H2261 C2269 0.930 . S
H2262 C2270 0.930 . S
H2263 C2271 0.930 . S
H2264 C2274 0.930 . S
H2265 C2275 0.930 . S
C2266 H2260 0.930 . S
C2266 C2267 1.355 . S
C2266 C2268 1.415 . S
C2267 C2266 1.355 . S
C2267 C2269 1.419 . S
C2268 C2266 1.415 . S
C2268 C2273 1.425 . S
C2268 C2275 1.409 . S
C2269 H2261 0.930 . S
C2269 C2267 1.419 . S
C2269 C2270 1.362 . S
C2270 H2262 0.930 . S
C2270 C2269 1.362 . S
C2270 C2273 1.409 . S
C2271 H2263 0.930 . S
C2271 C2272 1.355 . S
C2271 C2273 1.415 . S
C2272 C2271 1.355 . S
C2272 C2274 1.419 . S
C2273 C2268 1.425 . S
C2273 C2270 1.409 . S
C2273 C2271 1.415 . S
C2274 H2264 0.930 . S
C2274 C2272 1.419 . S
C2274 C2275 1.362 . S
C2275 H2265 0.930 . S
C2275 C2268 1.409 . S
C2275 C2274 1.362 . S
H2276 C2282 0.930 . S
H2277 C2285 0.930 . S
H2278 C2286 0.930 . S
H2279 C2287 0.930 . S
H2280 C2290 0.930 . S
H2281 C2291 0.930 . S
C2282 H2276 0.930 . S
C2282 C2283 1.355 . S
C2282 C2284 1.415 . S
C2283 C2282 1.355 . S
C2283 C2285 1.419 . S
C2284 C2282 1.415 . S
C2284 C2289 1.425 . S
C2284 C2291 1.409 . S
C2285 H2277 0.930 . S
C2285 C2283 1.419 . S
C2285 C2286 1.362 . S
C2286 H2278 0.930 . S
C2286 C2285 1.362 . S
C2286 C2289 1.409 . S
C2287 H2279 0.930 . S
C2287 C2288 1.355 . S
C2287 C2289 1.415 . S
C2288 C2287 1.355 . S
C2288 C2290 1.419 . S
C2289 C2284 1.425 . S
C2289 C2286 1.409 . S
C2289 C2287 1.415 . S
C2290 H2280 0.930 . S
C2290 C2288 1.419 . S
C2290 C2291 1.362 . S
C2291 H2281 0.930 . S
C2291 C2284 1.409 . S
C2291 C2290 1.362 . S
H2292 C2298 0.930 . S
H2293 C2301 0.930 . S
H2294 C2302 0.930 . S
H2295 C2303 0.930 . S
H2296 C2306 0.930 . S
H2297 C2307 0.930 . S
C2298 H2292 0.930 . S
C2298 C2299 1.355 . S
C2298 C2300 1.415 . S
C2299 C2298 1.355 . S
C2299 C2301 1.419 . S
C2300 C2298 1.415 . S
C2300 C2305 1.425 . S
C2300 C2307 1.409 . S
C2301 H2293 0.930 . S
C2301 C2299 1.419 . S
C2301 C2302 1.362 . S
C2302 H2294 0.930 . S
C2302 C2301 1.362 . S
C2302 C2305 1.409 . S
C2303 H2295 0.930 . S
C2303 C2304 1.355 . S
C2303 C2305 1.415 . S
C2304 C2303 1.355 . S
C2304 C2306 1.419 . S
C2305 C2300 1.425 . S
C2305 C2302 1.409 . S
C2305 C2303 1.415 . S
C2306 H2296 0.930 . S
C2306 C2304 1.419 . S
C2306 C2307 1.362 . S
C2307 H2297 0.930 . S
C2307 C2300 1.409 . S
C2307 C2306 1.362 . S
H2308 C2314 0.930 . S
H2309 C2317 0.930 . S
H2310 C2318 0.930 . S
H2311 C2319 0.930 . S
H2312 C2322 0.930 . S
H2313 C2323 0.930 . S
C2314 H2308 0.930 . S
C2314 C2315 1.355 . S
C2314 C2316 1.415 . S
C2315 C2314 1.355 . S
C2315 C2317 1.419 . S
C2316 C2314 1.415 . S
C2316 C2321 1.425 . S
C2316 C2323 1.409 . S
C2317 H2309 0.930 . S
C2317 C2315 1.419 . S
C2317 C2318 1.362 . S
C2318 H2310 0.930 . S
C2318 C2317 1.362 . S
C2318 C2321 1.409 . S
C2319 H2311 0.930 . S
C2319 C2320 1.355 . S
C2319 C2321 1.415 . S
C2320 C2319 1.355 . S
C2320 C2322 1.419 . S
C2321 C2316 1.425 . S
C2321 C2318 1.409 . S
C2321 C2319 1.415 . S
C2322 H2312 0.930 . S
C2322 C2320 1.419 . S
C2322 C2323 1.362 . S
C2323 H2313 0.930 . S
C2323 C2316 1.409 . S
C2323 C2322 1.362 . S
H2324 C2330 0.930 . S
H2325 C2333 0.930 . S
H2326 C2334 0.930 . S
H2327 C2335 0.930 . S
H2328 C2338 0.930 . S
H2329 C2339 0.930 . S
C2330 H2324 0.930 . S
C2330 C2331 1.355 . S
C2330 C2332 1.415 . S
C2331 C2330 1.355 . S
C2331 C2333 1.419 . S
C2332 C2330 1.415 . S
C2332 C2337 1.425 . S
C2332 C2339 1.409 . S
C2333 H2325 0.930 . S
C2333 C2331 1.419 . S
C2333 C2334 1.362 . S
C2334 H2326 0.930 . S
C2334 C2333 1.362 . S
C2334 C2337 1.409 . S
C2335 H2327 0.930 . S
C2335 C2336 1.355 . S
C2335 C2337 1.415 . S
C2336 C2335 1.355 . S
C2336 C2338 1.419 . S
C2337 C2332 1.425 . S
C2337 C2334 1.409 . S
C2337 C2335 1.415 . S
C2338 H2328 0.930 . S
C2338 C2336 1.419 . S
C2338 C2339 1.362 . S
C2339 H2329 0.930 . S
C2339 C2332 1.409 . S
C2339 C2338 1.362 . S
H2340 C2346 0.930 . S
H2341 C2349 0.930 . S
H2342 C2350 0.930 . S
H2343 C2351 0.930 . S
H2344 C2354 0.930 . S
H2345 C2355 0.930 . S
C2346 H2340 0.930 . S
C2346 C2347 1.355 . S
C2346 C2348 1.415 . S
C2347 C2346 1.355 . S
C2347 C2349 1.419 . S
C2348 C2346 1.415 . S
C2348 C2353 1.425 . S
C2348 C2355 1.409 . S
C2349 H2341 0.930 . S
C2349 C2347 1.419 . S
C2349 C2350 1.362 . S
C2350 H2342 0.930 . S
C2350 C2349 1.362 . S
C2350 C2353 1.409 . S
C2351 H2343 0.930 . S
C2351 C2352 1.355 . S
C2351 C2353 1.415 . S
C2352 C2351 1.355 . S
C2352 C2354 1.419 . S
C2353 C2348 1.425 . S
C2353 C2350 1.409 . S
C2353 C2351 1.415 . S
C2354 H2344 0.930 . S
C2354 C2352 1.419 . S
C2354 C2355 1.362 . S
C2355 H2345 0.930 . S
C2355 C2348 1.409 . S
C2355 C2354 1.362 . S
H2356 C2362 0.930 . S
H2357 C2365 0.930 . S
H2358 C2366 0.930 . S
H2359 C2367 0.930 . S
H2360 C2370 0.930 . S
H2361 C2371 0.930 . S
C2362 H2356 0.930 . S
C2362 C2363 1.355 . S
C2362 C2364 1.415 . S
C2363 C2362 1.355 . S
C2363 C2365 1.419 . S
C2364 C2362 1.415 . S
C2364 C2369 1.425 . S
C2364 C2371 1.409 . S
C2365 H2357 0.930 . S
C2365 C2363 1.419 . S
C2365 C2366 1.362 . S
C2366 H2358 0.930 . S
C2366 C2365 1.362 . S
C2366 C2369 1.409 . S
C2367 H2359 0.930 . S
C2367 C2368 1.355 . S
C2367 C2369 1.415 . S
C2368 C2367 1.355 . S
C2368 C2370 1.419 . S
C2369 C2364 1.425 . S
C2369 C2366 1.409 . S
C2369 C2367 1.415 . S
C2370 H2360 0.930 . S
C2370 C2368 1.419 . S
C2370 C2371 1.362 . S
C2371 H2361 0.930 . S
C2371 C2364 1.409 . S
C2371 C2370 1.362 . S
H2372 C2378 0.930 . S
H2373 C2381 0.930 . S
H2374 C2382 0.930 . S
H2375 C2383 0.930 . S
H2376 C2386 0.930 . S
H2377 C2387 0.930 . S
C2378 H2372 0.930 . S
C2378 C2379 1.355 . S
C2378 C2380 1.415 . S
C2379 C2378 1.355 . S
C2379 C2381 1.419 . S
C2380 C2378 1.415 . S
C2380 C2385 1.425 . S
C2380 C2387 1.409 . S
C2381 H2373 0.930 . S
C2381 C2379 1.419 . S
C2381 C2382 1.362 . S
C2382 H2374 0.930 . S
C2382 C2381 1.362 . S
C2382 C2385 1.409 . S
C2383 H2375 0.930 . S
C2383 C2384 1.355 . S
C2383 C2385 1.415 . S
C2384 C2383 1.355 . S
C2384 C2386 1.419 . S
C2385 C2380 1.425 . S
C2385 C2382 1.409 . S
C2385 C2383 1.415 . S
C2386 H2376 0.930 . S
C2386 C2384 1.419 . S
C2386 C2387 1.362 . S
C2387 H2377 0.930 . S
C2387 C2380 1.409 . S
C2387 C2386 1.362 . S
C1248 C942 1.086 . S
C1243 C898 1.087 . S
C1259 C820 1.087 . S
C1264 C940 1.084 . S
C1280 C941 1.085 . S
C1275 C781 1.086 . S
C1291 C859 1.082 . S
C1296 C943 1.086 . S
C1312 C987 1.085 . S
C1307 C625 1.086 . S
C1328 C1047 1.083 . S
C1323 C664 1.078 . S
C1339 C703 1.086 . S
C1344 C986 1.086 . S
C1360 C1046 1.084 . S
C1355 C742 1.079 . S
C1371 C469 1.083 . S
C1376 C988 1.087 . S
C1392 C1044 1.084 . S
C1387 C508 1.082 . S
C1403 C547 1.080 . S
C1408 C989 1.084 . S
C1419 C586 1.080 . S
C1424 C1045 1.084 . S
C1440 C1095 1.085 . S
C1435 C430 1.088 1_556 S
C1451 C352 1.086 1_556 S
C1456 C1094 1.085 . S
C1467 C313 1.088 1_554 S
C1472 C1096 1.085 1_556 S
C1488 C1097 1.085 1_556 S
C1483 C391 1.088 1_554 S
C1499 C157 1.079 1_655 S
C1504 C1138 1.085 . S
C1515 C196 1.088 1_545 S
C1520 C1197 1.085 1_565 S
C1531 C235 1.086 . S
C1536 C1136 1.080 1_655 S
C1547 C274 1.088 1_545 S
C1552 C1196 1.085 1_565 S
C1568 C1137 1.083 1_655 S
C1563 C1 1.088 . S
C1584 C1194 1.085 1_565 S
C1579 C40 1.086 . S
C1595 C79 1.086 . S
C1600 C1139 1.080 1_655 S
C1616 C1195 1.084 . S
C1611 C118 1.085 1_565 S
C1632 C939 1.992 1_655 S
C1627 C16 1.862 . S
C1643 C60 1.888 1_565 S
C1648 C945 2.008 . S
C1659 C99 1.869 . S
C1664 C937 1.999 1_655 S
C1675 C133 1.816 . S
C1680 C944 1.977 . S
C1691 C172 1.813 . S
C1696 C936 1.975 . S
C1712 C946 1.994 . S
C1707 C211 1.859 1_565 S
C1723 C255 1.880 1_655 S
C1728 C938 2.006 . S
C1744 C947 2.009 . S
C1739 C294 1.890 . S
C1760 C993 1.982 . S
C1755 C138 1.822 1_565 S
C1771 C21 1.898 . S
C1776 C1036 2.013 . S
C1792 C991 2.000 . S
C1787 C55 1.873 . S
C1808 C1038 1.985 . S
C1803 C94 1.838 1_655 S
C1819 C216 1.893 . S
C1824 C992 2.012 . S
C1840 C1037 2.007 . S
C1835 C250 1.896 . S
C1856 C990 2.001 1_565 S
C1851 C289 1.879 . S
C1872 C1039 2.014 . S
C1867 C177 1.900 . S
C1888 C1043 1.977 . S
C1883 C328 1.817 1_556 S
C1899 C367 1.883 . S
C1904 C1042 2.004 . S
C1920 C994 2.004 1_556 S
C1915 C333 1.875 1_554 S
C1936 C1041 2.007 . S
C1931 C411 1.884 . S
C1947 C445 1.875 . S
C1952 C997 2.001 . S
C1963 C450 1.902 . S
C1968 C1040 2.014 1_556 S
C1984 C996 1.983 . S
C1979 C372 1.826 1_556 S
C2000 C995 1.986 1_556 S
C1995 C406 1.839 . S
C2016 C1089 1.975 . S
C2011 C484 1.818 . S
C2032 C1092 2.013 . S
C2027 C528 1.901 . S
C2043 C567 1.905 . S
C2048 C1088 2.019 . S
C2064 C1090 1.992 . S
C2059 C601 1.854 . S
C2080 C1086 1.980 . S
C2075 C640 1.828 . S
C2091 C679 1.817 . S
C2096 C1091 1.975 . S
C2107 C723 1.905 . S
C2112 C1087 2.015 . S
C2128 C1093 2.014 . S
C2123 C762 1.901 . S
C2144 C1147 2.015 . S
C2139 C606 1.901 . S
C2155 C489 1.864 . S
C2160 C1186 2.002 . S
C2176 C1146 2.007 . S
C2171 C523 1.892 . S
C2192 C1188 1.987 . S
C2187 C562 1.845 . S
C2208 C1145 1.996 . S
C2203 C684 1.860 . S
C2219 C718 1.851 . S
C2224 C1187 1.991 . S
C2240 C1144 1.982 . S
C2235 C757 1.834 . S
C2256 C1189 2.008 . S
C2251 C645 1.884 . S
C2272 C1193 2.008 . S
C2267 C796 1.894 . S
C2283 C835 1.828 . S
C2288 C1192 1.980 . S
C2304 C1140 2.013 . S
C2299 C801 1.897 . S
C2315 C879 1.894 . S
C2320 C1191 2.012 . S
C2336 C1143 2.006 . S
C2331 C913 1.890 . S
C2352 C1190 1.981 . S
C2347 C918 1.823 . S
C2368 C1141 1.981 . S
C2363 C840 1.823 . S
C2379 C874 1.892 . S
C2384 C1142 2.007 . S
