# Generated by pormake.
# Topology rtl, (3,6)-cn, num edge types: 1
# Building blocks:
#     Node 0, Type 0, BuildingBlock: CUQRIR_clean_linker_1, # of connection points: 3
#     Node 1, Type 0, BuildingBlock: CUQRIR_clean_linker_1, # of connection points: 3
#     Node 2, Type 0, BuildingBlock: CUQRIR_clean_linker_1, # of connection points: 3
#     Node 3, Type 0, BuildingBlock: CUQRIR_clean_linker_1, # of connection points: 3
#     Node 4, Type 1, BuildingBlock: VOLQOD_clean_sbu_1, # of connection points: 6
#     Node 5, Type 1, BuildingBlock: VOLQOD_clean_sbu_1, # of connection points: 6
#     Edge 6, Type (0, 1), BuildingBlock: EZIPEK_clean_linker_0, # of connection points: 2
#     Edge 7, Type (0, 1), BuildingBlock: EZIPEK_clean_linker_0, # of connection points: 2
#     Edge 8, Type (0, 1), BuildingBlock: EZIPEK_clean_linker_0, # of connection points: 2
#     Edge 9, Type (0, 1), BuildingBlock: EZIPEK_clean_linker_0, # of connection points: 2
#     Edge 10, Type (0, 1), BuildingBlock: EZIPEK_clean_linker_0, # of connection points: 2
#     Edge 11, Type (0, 1), BuildingBlock: EZIPEK_clean_linker_0, # of connection points: 2
#     Edge 12, Type (0, 1), BuildingBlock: EZIPEK_clean_linker_0, # of connection points: 2
#     Edge 13, Type (0, 1), BuildingBlock: EZIPEK_clean_linker_0, # of connection points: 2
#     Edge 14, Type (0, 1), BuildingBlock: EZIPEK_clean_linker_0, # of connection points: 2
#     Edge 15, Type (0, 1), BuildingBlock: EZIPEK_clean_linker_0, # of connection points: 2
#     Edge 16, Type (0, 1), BuildingBlock: EZIPEK_clean_linker_0, # of connection points: 2
#     Edge 17, Type (0, 1), BuildingBlock: EZIPEK_clean_linker_0, # of connection points: 2
# Relax obj value: 0.040
# Max RMSD: 0.143
# Mean RMSD: 0.100
data_MOF--net-rtl--node1-VOLQOD_clean_sbu_1--node2-CUQRIR_clean_linker_1--edge1-EZIPEK_clean_linker_0
_symmetry_space_group_name_H-M    P1
_symmetry_Int_Tables_number       1
_symmetry_cell_setting            triclinic
loop_
_symmetry_equiv_pos_as_xyz
'x, y, z'
_cell_length_a     26.096084
_cell_length_b     26.14541
_cell_length_c     13.957844
_cell_angle_alpha  90.000791
_cell_angle_beta   90.126993
_cell_angle_gamma 90.00476
loop_
_atom_site_label
_atom_site_type_symbol
_atom_site_fract_x
_atom_site_fract_y
_atom_site_fract_z
_atom_type_partial_charge
C0 C 0.21774 0.77459 0.96887 0.0
N1 N 0.17976 0.80541 1.00144 0.0
N2 N 0.23649 0.74532 0.04039 0.0
C3 C 0.23684 0.77276 0.86735 0.0
C4 C 0.20956 0.7596 0.11832 0.0
N5 N 0.17553 0.79679 0.09534 0.0
C6 C 0.21713 0.73757 0.21674 0.0
H7 H 0.21949 0.7394 0.83041 0.0
H8 H 0.27903 0.76751 0.8665 0.0
H9 H 0.22679 0.80816 0.82773 0.0
H10 H 0.25034 0.75672 0.25117 0.0
H11 H 0.22588 0.69611 0.21209 0.0
H12 H 0.18273 0.74346 0.26199 0.0
C13 C 0.70451 0.73369 0.57574 0.0
N14 N 0.6697 0.69905 0.54518 0.0
N15 N 0.72133 0.76251 0.50163 0.0
C16 C 0.72196 0.73929 0.67786 0.0
C17 C 0.69542 0.74412 0.42479 0.0
N18 N 0.66425 0.70531 0.45116 0.0
C19 C 0.70163 0.76281 0.32373 0.0
H20 H 0.69524 0.76532 0.71577 0.0
H21 H 0.76108 0.75579 0.68162 0.0
H22 H 0.72135 0.70177 0.71498 0.0
H23 H 0.72717 0.73615 0.28455 0.0
H24 H 0.71862 0.8017 0.32197 0.0
H25 H 0.66402 0.76311 0.28648 0.0
C26 C 0.79464 0.24375 0.11089 0.0
N27 N 0.826 0.20506 0.08468 0.0
N28 N 0.76898 0.26221 0.03384 0.0
C29 C 0.78804 0.26227 0.21197 0.0
C30 C 0.78613 0.23357 0.95977 0.0
N31 N 0.82094 0.19898 0.99055 0.0
C32 C 0.769 0.23926 0.85749 0.0
H33 H 0.76214 0.23568 0.2505 0.0
H34 H 0.77125 0.30124 0.21368 0.0
H35 H 0.82545 0.2623 0.2499 0.0
H36 H 0.79579 0.26539 0.81998 0.0
H37 H 0.72986 0.25569 0.85336 0.0
H38 H 0.76979 0.20178 0.82022 0.0
C39 C 0.28091 0.25971 0.41735 0.0
N40 N 0.31483 0.29698 0.44047 0.0
N41 N 0.25382 0.24546 0.49511 0.0
C42 C 0.2736 0.23757 0.31894 0.0
C43 C 0.27236 0.27485 0.56667 0.0
N44 N 0.31037 0.30569 0.5343 0.0
C45 C 0.25302 0.27309 0.66803 0.0
H46 H 0.24046 0.25667 0.28415 0.0
H47 H 0.26486 0.19611 0.32365 0.0
H48 H 0.30811 0.24345 0.27398 0.0
H49 H 0.27024 0.23972 0.70517 0.0
H50 H 0.21082 0.26788 0.66855 0.0
H51 H 0.26303 0.3085 0.70769 0.0
O52 O 0.87461 0.95969 0.5257 0.0
Zn53 Zn 0.92301 0.01956 0.53857 0.0
O54 O -0.00571 -0.0026 0.53967 0.0
Zn55 Zn 0.03095 0.02568 0.65001 0.0
Zn56 Zn -0.00341 0.92318 0.5499 0.0
Zn57 Zn 0.02672 0.02037 0.42127 0.0
O58 O 0.08351 0.07731 0.60837 0.0
O59 O 0.08262 0.071 0.44929 0.0
O60 O 0.90695 0.05786 0.65965 0.0
O61 O 0.98132 0.06177 0.73828 0.0
O62 O 0.06769 0.97047 0.72525 0.0
O63 O 0.02797 0.90061 0.67543 0.0
O64 O 0.03795 0.89333 0.43998 0.0
O65 O 0.90857 0.06566 0.42643 0.0
O66 O 0.05727 0.96125 0.35049 0.0
O67 O 0.9773 0.057 0.33405 0.0
C68 C 0.88188 0.9116 0.53036 0.0
C69 C 0.10011 0.09036 0.5263 0.0
C70 C 0.05899 0.92268 0.73255 0.0
C71 C 0.93364 0.07178 0.73159 0.0
C72 C 0.05859 0.91335 0.36621 0.0
C73 C 0.93268 0.07482 0.34914 0.0
O74 O 0.92645 0.8929 0.54198 0.0
O75 O 0.61579 0.4594 1.01033 0.0
Zn76 Zn 0.56757 0.51943 0.99748 0.0
O77 O 0.49621 0.49745 0.9961 0.0
Zn78 Zn 0.45973 0.52584 0.88566 0.0
Zn79 Zn 0.49373 0.42323 0.98581 0.0
Zn80 Zn 0.46371 0.52049 0.11439 0.0
O81 O 0.40725 0.57758 0.92713 0.0
O82 O 0.40781 0.57109 0.08618 0.0
O83 O 0.58383 0.55777 0.87651 0.0
O84 O 0.50954 0.5618 0.79759 0.0
O85 O 0.42283 0.47077 0.81032 0.0
O86 O 0.46212 0.40074 0.86044 0.0
O87 O 0.45245 0.39344 0.09589 0.0
O88 O 0.58202 0.56548 0.10972 0.0
O89 O 0.43315 0.46141 0.18527 0.0
O90 O 0.51306 0.55719 0.20164 0.0
C91 C 0.60841 0.41134 1.00526 0.0
C92 C 0.39049 0.59054 1.00913 0.0
C93 C 0.43125 0.42293 0.8032 0.0
C94 C 0.55724 0.57174 0.80447 0.0
C95 C 0.43183 0.4135 0.16964 0.0
C96 C 0.55778 0.57482 0.1868 0.0
O97 O 0.56381 0.39277 0.99334 0.0
C98 C 0.16323 0.21972 0.48872 0.0
C99 C 0.21526 0.20639 0.50166 0.0
C100 C 0.19176 0.1177 0.53688 0.0
C101 C 0.13969 0.13046 0.51973 0.0
N102 N 0.07469 0.19175 0.47578 0.0
N103 N 0.28105 0.14408 0.52903 0.0
C104 C 0.12506 0.18104 0.49445 0.0
C105 C 0.23007 0.15567 0.52346 0.0
N106 N 0.15075 0.26982 0.4733 0.0
N107 N 0.20425 0.06947 0.567 0.0
H108 H 0.30962 0.17163 0.5209 0.0
H109 H 0.29544 0.10718 0.53598 0.0
H110 H 0.17728 0.04028 0.57434 0.0
H111 H 0.24066 0.05869 0.58967 0.0
H112 H 0.11348 0.28384 0.47149 0.0
H113 H 0.17842 0.29842 0.46678 0.0
H114 H 0.0617 0.22621 0.44755 0.0
H115 H 0.04539 0.16513 0.48542 0.0
C116 C 0.26042 0.65559 1.012 0.0
C117 C 0.27514 0.70635 0.03369 0.0
C118 C 0.3654 0.68121 0.04071 0.0
C119 C 0.35086 0.63058 0.01556 0.0
N120 N 0.2864 0.56945 0.96837 0.0
N121 N 0.33954 0.76995 0.06158 0.0
C122 C 0.2988 0.6177 0.99851 0.0
C123 C 0.32715 0.71981 0.04641 0.0
N124 N 0.20946 0.64386 1.00664 0.0
N125 N 0.41574 0.69203 0.05933 0.0
H126 H 0.31183 0.7985 0.06806 0.0
H127 H 0.37679 0.78404 0.06316 0.0
H128 H 0.44509 0.66545 0.04976 0.0
H129 H 0.42867 0.72653 0.0875 0.0
H130 H 0.19516 0.60692 0.99981 0.0
H131 H 0.18083 0.67135 0.01483 0.0
H132 H 0.24999 0.5586 0.94575 0.0
H133 H 0.31343 0.54033 0.96092 0.0
C134 C 0.75103 0.84759 0.55471 0.0
C135 C 0.7601 0.8017 0.50393 0.0
C136 C 0.8437 0.83372 0.45425 0.0
C137 C 0.83823 0.8759 0.5176 0.0
N138 N 0.78902 0.91811 0.64152 0.0
N139 N 0.8189 0.74648 0.42099 0.0
C140 C 0.79233 0.8819 0.5712 0.0
C141 C 0.80754 0.79344 0.4579 0.0
N142 N 0.70276 0.85849 0.58607 0.0
N143 N 0.88221 0.83294 0.38803 0.0
H144 H 0.79384 0.71556 0.42581 0.0
H145 H 0.855 0.73703 0.39456 0.0
H146 H 0.90773 0.86323 0.37886 0.0
H147 H 0.885 0.80501 0.33502 0.0
H148 H 0.69271 0.89357 0.61604 0.0
H149 H 0.67181 0.8341 0.57353 0.0
H150 H 0.75815 0.9205 0.68851 0.0
H151 H 0.81912 0.94249 0.65954 0.0
C152 C 0.73929 0.34737 0.98114 0.0
C153 C 0.73012 0.30131 0.03133 0.0
C154 C 0.64634 0.33308 0.08051 0.0
C155 C 0.65198 0.37552 0.01779 0.0
N156 N 0.70148 0.41811 0.89473 0.0
N157 N 0.6711 0.24572 0.11284 0.0
C158 C 0.69801 0.38169 0.96465 0.0
C159 C 0.68253 0.29284 0.07669 0.0
N160 N 0.78764 0.35842 0.95039 0.0
N161 N 0.60766 0.33202 0.14637 0.0
H162 H 0.6962 0.21485 0.10786 0.0
H163 H 0.63492 0.23614 0.13873 0.0
H164 H 0.58212 0.36226 0.15577 0.0
H165 H 0.60473 0.30387 0.19895 0.0
H166 H 0.79774 0.39361 0.92093 0.0
H167 H 0.81858 0.33402 0.96294 0.0
H168 H 0.73248 0.42066 0.84806 0.0
H169 H 0.67139 0.44248 0.87662 0.0
C170 C 0.09173 0.81992 0.16627 0.0
C171 C 0.14554 0.82607 0.16283 0.0
C172 C 0.14233 0.88268 0.30292 0.0
C173 C 0.08811 0.88092 0.29951 0.0
N174 N 0.01019 0.85244 0.22325 0.0
N175 N 0.22246 0.86666 0.22103 0.0
C176 C 0.06242 0.85072 0.2299 0.0
C177 C 0.17097 0.85829 0.22964 0.0
N178 N 0.06914 0.7829 0.11177 0.0
N179 N 0.16639 0.90659 0.37774 0.0
H180 H 0.24464 0.84969 0.16777 0.0
H181 H 0.2425 0.89382 0.26069 0.0
H182 H 0.14657 0.92509 0.43257 0.0
H183 H 0.20568 0.90453 0.39022 0.0
H184 H 0.03063 0.77296 0.11694 0.0
H185 H 0.0903 0.75886 0.06733 0.0
H186 H -0.01044 0.83561 0.16765 0.0
H187 H -0.01244 0.87376 0.27008 0.0
C188 C 0.59512 0.68587 0.6507 0.0
C189 C 0.63932 0.66603 0.60527 0.0
C190 C 0.62438 0.58239 0.67852 0.0
C191 C 0.58237 0.60307 0.72983 0.0
N192 N 0.5312 0.67612 0.77528 0.0
N193 N 0.70327 0.60045 0.59407 0.0
C194 C 0.56812 0.65516 0.7179 0.0
C195 C 0.65584 0.61551 0.62364 0.0
N196 N 0.57997 0.73475 0.6312 0.0
N197 N 0.63377 0.53098 0.68134 0.0
H198 H 0.72849 0.62551 0.56035 0.0
H199 H 0.7197 0.56549 0.61236 0.0
H200 H 0.61117 0.50555 0.72045 0.0
H201 H 0.66085 0.51304 0.63813 0.0
H202 H 0.54473 0.74985 0.65155 0.0
H203 H 0.60211 0.75984 0.59069 0.0
H204 H 0.52291 0.71502 0.77769 0.0
H205 H 0.51089 0.65525 0.82625 0.0
C206 C 0.83028 0.12707 0.18368 0.0
C207 C 0.85406 0.17184 0.14845 0.0
C208 C 0.92991 0.15427 0.24714 0.0
C209 C 0.90767 0.10691 0.27518 0.0
N210 N 0.84146 0.04339 0.25438 0.0
N211 N 0.92589 0.2289 0.14363 0.0
C212 C 0.85922 0.09187 0.23871 0.0
C213 C 0.904 0.18541 0.17875 0.0
N214 N 0.7791 0.11971 0.1691 0.0
N215 N 0.97403 0.17087 0.29011 0.0
H216 H 0.9054 0.25507 0.10237 0.0
H217 H 0.96438 0.23822 0.15251 0.0
H218 H -0.00621 0.14955 0.34125 0.0
H219 H -0.01058 0.20721 0.28045 0.0
H220 H 0.75833 0.09034 0.20119 0.0
H221 H 0.75638 0.14617 0.13286 0.0
H222 H 0.80872 0.02883 0.22135 0.0
H223 H 0.86214 0.01601 0.2927 0.0
C224 C 0.35027 0.3883 0.58402 0.0
C225 C 0.34529 0.33476 0.59411 0.0
C226 C 0.39143 0.33959 0.74604 0.0
C227 C 0.40324 0.39207 0.72921 0.0
N228 N 0.40649 0.46006 0.61052 0.0
N229 N 0.37582 0.25795 0.67095 0.0
C230 C 0.38663 0.41471 0.64148 0.0
C231 C 0.37129 0.3099 0.67004 0.0
N232 N 0.31845 0.4145 0.52429 0.0
N233 N 0.39473 0.31867 0.83555 0.0
H234 H 0.36198 0.23502 0.61551 0.0
H235 H 0.3978 0.23864 0.72189 0.0
H236 H 0.4015 0.34006 0.8972 0.0
H237 H 0.38293 0.28137 0.85019 0.0
H238 H 0.3185 0.45431 0.51964 0.0
H239 H 0.28805 0.3966 0.48948 0.0
H240 H 0.39718 0.47562 0.5439 0.0
H241 H 0.43704 0.47827 0.64456 0.0
C242 C 0.58635 0.68562 0.35681 0.0
C243 C 0.6362 0.67201 0.38751 0.0
C244 C 0.63105 0.5919 0.29767 0.0
C245 C 0.58272 0.60698 0.26074 0.0
N246 N 0.51658 0.6711 0.24487 0.0
N247 N 0.71112 0.61975 0.36752 0.0
C248 C 0.56053 0.65444 0.28834 0.0
C249 C 0.65997 0.62715 0.35267 0.0
N250 N 0.56443 0.72915 0.39165 0.0
N251 N 0.64874 0.54336 0.28243 0.0
H252 H 0.73383 0.6463 0.40355 0.0
H253 H 0.73188 0.59027 0.33577 0.0
H254 H 0.62807 0.51595 0.24414 0.0
H255 H 0.68138 0.52879 0.31578 0.0
H256 H 0.52598 0.73851 0.38244 0.0
H257 H 0.58484 0.75532 0.43306 0.0
H258 H 0.50128 0.7075 0.2542 0.0
H259 H 0.4969 0.64977 0.19363 0.0
C260 C 0.83522 0.11533 0.91282 0.0
C261 C 0.85147 0.16599 0.9307 0.0
C262 C 0.92265 0.15523 0.81797 0.0
C263 C 0.90861 0.10306 0.80639 0.0
N264 N 0.85767 0.0308 0.85563 0.0
N265 N 0.91051 0.23493 0.9042 0.0
C266 C 0.86678 0.08226 0.85805 0.0
C267 C 0.89555 0.18595 0.88503 0.0
N268 N 0.78789 0.10008 0.94267 0.0
N269 N 0.95948 0.17623 0.76044 0.0
H270 H 0.88831 0.25997 0.9447 0.0
H271 H 0.94564 0.25016 0.8836 0.0
H272 H 0.97991 0.15531 0.70971 0.0
H273 H 0.96761 0.21515 0.75774 0.0
H274 H 0.77165 0.06498 0.92475 0.0
H275 H 0.76257 0.12508 0.97624 0.0
H276 H 0.83075 0.01281 0.89911 0.0
H277 H 0.88035 0.00542 0.81658 0.0
C278 C 0.39869 0.32034 0.37 0.0
C279 C 0.34485 0.32629 0.37309 0.0
C280 C 0.34809 0.38271 0.23273 0.0
C281 C 0.40232 0.38112 0.23641 0.0
N282 N 0.4802 0.35304 0.31328 0.0
N283 N 0.26791 0.36664 0.31439 0.0
C284 C 0.42799 0.35114 0.30636 0.0
C285 C 0.31942 0.35836 0.30601 0.0
N286 N 0.42131 0.2835 0.42488 0.0
N287 N 0.32407 0.40643 0.15766 0.0
H288 H 0.24572 0.34973 0.36769 0.0
H289 H 0.24787 0.39369 0.27449 0.0
H290 H 0.34391 0.4249 0.10283 0.0
H291 H 0.28481 0.40421 0.145 0.0
H292 H 0.45987 0.27369 0.42 0.0
H293 H 0.40016 0.25946 0.46936 0.0
H294 H 0.50081 0.33639 0.3691 0.0
H295 H 0.50284 0.37436 0.26643 0.0
C296 C 0.11859 0.80956 0.86611 0.0
C297 C 0.14475 0.83446 0.9418 0.0
C298 C 0.10356 0.91444 0.89426 0.0
C299 C 0.08683 0.89175 0.80666 0.0
N300 N 0.09489 0.81815 0.70069 0.0
N301 N 0.17185 0.91423 1.01119 0.0
C302 C 0.09841 0.83921 0.79006 0.0
C303 C 0.1399 0.88802 0.9517 0.0
N304 N 0.11398 0.75761 0.86543 0.0
N305 N 0.08385 0.95989 0.92508 0.0
H306 H 0.20226 0.8963 0.04591 0.0
H307 H 0.17191 0.95404 0.01568 0.0
H308 H 0.05333 0.97812 0.89102 0.0
H309 H 0.09325 0.97552 0.99159 0.0
H310 H 0.09185 0.73828 0.81473 0.0
H311 H 0.12792 0.73472 0.92083 0.0
H312 H 0.10656 0.78079 0.68618 0.0
H313 H 0.08809 0.83944 0.63893 0.0
loop_
_geom_bond_atom_site_label_1
_geom_bond_atom_site_label_2
_geom_bond_distance
_geom_bond_site_symmetry_2
_ccdc_geom_bond_type
C0 N1 1.317 . S
C0 N2 1.348 1_556 S
C0 C3 1.485 . S
N1 C0 1.317 . S
N1 N5 1.370 1_556 S
N2 C0 1.348 1_554 S
N2 C4 1.346 . S
C3 C0 1.485 . S
C3 H7 0.960 . S
C3 H8 0.961 . S
C3 H9 0.960 . S
C4 N2 1.346 . S
C4 N5 1.307 . S
C4 C6 1.486 . S
N5 N1 1.370 1_554 S
N5 C4 1.307 . S
C6 C4 1.486 . S
C6 H10 0.960 . S
C6 H11 0.960 . S
C6 H12 0.959 . S
H7 C3 0.960 . S
H8 C3 0.961 . S
H9 C3 0.960 . S
H10 C6 0.960 . S
H11 C6 0.960 . S
H12 C6 0.959 . S
C13 N14 1.317 . S
C13 N15 1.348 . S
C13 C16 1.485 . S
N14 C13 1.317 . S
N14 N18 1.370 . S
N15 C13 1.348 . S
N15 C17 1.346 . S
C16 C13 1.485 . S
C16 H20 0.960 . S
C16 H21 0.961 . S
C16 H22 0.960 . S
C17 N15 1.346 . S
C17 N18 1.307 . S
C17 C19 1.486 . S
N18 N14 1.370 . S
N18 C17 1.307 . S
C19 C17 1.486 . S
C19 H23 0.960 . S
C19 H24 0.960 . S
C19 H25 0.959 . S
H20 C16 0.960 . S
H21 C16 0.961 . S
H22 C16 0.960 . S
H23 C19 0.960 . S
H24 C19 0.960 . S
H25 C19 0.959 . S
C26 N27 1.317 . S
C26 N28 1.348 . S
C26 C29 1.485 . S
N27 C26 1.317 . S
N27 N31 1.370 1_554 S
N28 C26 1.348 . S
N28 C30 1.346 1_554 S
C29 C26 1.485 . S
C29 H33 0.960 . S
C29 H34 0.961 . S
C29 H35 0.960 . S
C30 N28 1.346 1_556 S
C30 N31 1.307 . S
C30 C32 1.486 . S
N31 N27 1.370 1_556 S
N31 C30 1.307 . S
C32 C30 1.486 . S
C32 H36 0.960 . S
C32 H37 0.960 . S
C32 H38 0.959 . S
H33 C29 0.960 . S
H34 C29 0.961 . S
H35 C29 0.960 . S
H36 C32 0.960 . S
H37 C32 0.960 . S
H38 C32 0.959 . S
C39 N40 1.317 . S
C39 N41 1.348 . S
C39 C42 1.485 . S
N40 C39 1.317 . S
N40 N44 1.370 . S
N41 C39 1.348 . S
N41 C43 1.346 . S
C42 C39 1.485 . S
C42 H46 0.960 . S
C42 H47 0.961 . S
C42 H48 0.960 . S
C43 N41 1.346 . S
C43 N44 1.307 . S
C43 C45 1.486 . S
N44 N40 1.370 . S
N44 C43 1.307 . S
C45 C43 1.486 . S
C45 H49 0.960 . S
C45 H50 0.960 . S
C45 H51 0.959 . S
H46 C42 0.960 . S
H47 C42 0.961 . S
H48 C42 0.960 . S
H49 C45 0.960 . S
H50 C45 0.960 . S
H51 C45 0.959 . S
O52 Zn53 1.953 1_565 S
O52 C68 1.225 . S
Zn53 O52 1.953 1_545 S
Zn53 O54 1.949 1_655 S
Zn53 O60 1.919 . S
Zn53 O65 1.924 . S
O54 Zn53 1.949 1_455 S
O54 Zn55 1.923 . S
O54 Zn56 1.950 1_545 S
O54 Zn57 1.945 . S
Zn55 O54 1.923 . S
Zn55 O58 1.933 . S
Zn55 O61 1.941 . S
Zn55 O62 1.965 1_545 S
Zn56 O54 1.950 1_565 S
Zn56 O63 1.938 . S
Zn56 O64 1.906 . S
Zn56 O74 1.953 1_455 S
Zn57 O54 1.945 . S
Zn57 O59 1.932 . S
Zn57 O66 1.986 . S
Zn57 O67 1.910 1_455 S
O58 Zn55 1.933 . S
O58 C69 1.226 . S
O59 Zn57 1.932 . S
O59 C69 1.307 . S
O60 Zn53 1.919 . S
O60 C71 1.253 . S
O61 Zn55 1.941 . S
O61 C71 1.283 1_455 S
O62 Zn55 1.965 1_565 S
O62 C70 1.303 . S
O63 Zn56 1.938 . S
O63 C70 1.247 . S
O64 Zn56 1.906 . S
O64 C72 1.304 . S
O65 Zn53 1.924 . S
O65 C73 1.311 . S
O66 Zn57 1.986 . S
O66 C72 1.258 1_545 S
O67 Zn57 1.910 1_655 S
O67 C73 1.231 . S
C68 O52 1.225 . S
C68 O74 1.298 . S
C69 O58 1.226 . S
C69 O59 1.307 . S
C70 O62 1.303 . S
C70 O63 1.247 . S
C71 O60 1.253 . S
C71 O61 1.283 1_655 S
C72 O64 1.304 . S
C72 O66 1.258 1_565 S
C73 O65 1.311 . S
C73 O67 1.231 . S
O74 Zn56 1.953 1_655 S
O74 C68 1.298 . S
O75 Zn76 1.953 . S
O75 C91 1.223 1_556 S
Zn76 O75 1.953 . S
Zn76 O77 1.949 1_556 S
Zn76 O83 1.919 . S
Zn76 O88 1.924 1_556 S
O77 Zn76 1.949 1_554 S
O77 Zn78 1.923 1_554 S
O77 Zn79 1.950 . S
O77 Zn80 1.945 . S
Zn78 O77 1.923 1_556 S
Zn78 O81 1.933 . S
Zn78 O84 1.941 . S
Zn78 O85 1.965 . S
Zn79 O77 1.950 . S
Zn79 O86 1.938 1_554 S
Zn79 O87 1.906 . S
Zn79 O97 1.953 . S
Zn80 O77 1.945 . S
Zn80 O82 1.932 . S
Zn80 O89 1.977 . S
Zn80 O90 1.910 . S
O81 Zn78 1.933 . S
O81 C92 1.226 1_556 S
O82 Zn80 1.932 . S
O82 C92 1.307 . S
O83 Zn76 1.919 . S
O83 C94 1.253 . S
O84 Zn78 1.941 . S
O84 C94 1.283 . S
O85 Zn78 1.965 . S
O85 C93 1.303 . S
O86 Zn79 1.938 1_556 S
O86 C93 1.247 . S
O87 Zn79 1.906 . S
O87 C95 1.304 . S
O88 Zn76 1.924 1_554 S
O88 C96 1.311 . S
O89 Zn80 1.977 . S
O89 C95 1.272 . S
O90 Zn80 1.910 . S
O90 C96 1.231 . S
C91 O75 1.223 1_554 S
C91 O97 1.300 . S
C92 O81 1.226 1_554 S
C92 O82 1.307 . S
C93 O85 1.303 . S
C93 O86 1.247 . S
C94 O83 1.253 . S
C94 O84 1.283 . S
C95 O87 1.304 . S
C95 O89 1.272 . S
C96 O88 1.311 . S
C96 O90 1.231 . S
O97 Zn79 1.953 . S
O97 C91 1.300 . S
C98 C99 1.363 . S
C98 C104 1.379 . S
C98 N106 1.356 . S
C99 C98 1.363 . S
C99 C105 1.363 . S
C100 C101 1.363 . S
C100 C105 1.379 . S
C100 N107 1.356 . S
C101 C100 1.363 . S
C101 C104 1.363 . S
N102 C104 1.356 . S
N102 H114 0.984 . S
N102 H115 0.985 . S
N103 C105 1.356 . S
N103 H108 0.984 . S
N103 H109 0.985 . S
C104 C98 1.379 . S
C104 C101 1.363 . S
C104 N102 1.356 . S
C105 C99 1.363 . S
C105 C100 1.379 . S
C105 N103 1.356 . S
N106 C98 1.356 . S
N106 H112 0.984 . S
N106 H113 0.984 . S
N107 C100 1.356 . S
N107 H110 0.984 . S
N107 H111 0.985 . S
H108 N103 0.984 . S
H109 N103 0.985 . S
H110 N107 0.984 . S
H111 N107 0.985 . S
H112 N106 0.984 . S
H113 N106 0.984 . S
H114 N102 0.984 . S
H115 N102 0.985 . S
C116 C117 1.363 1_556 S
C116 C122 1.379 . S
C116 N124 1.356 . S
C117 C116 1.363 1_554 S
C117 C123 1.363 . S
C118 C119 1.363 . S
C118 C123 1.379 . S
C118 N125 1.356 . S
C119 C118 1.363 . S
C119 C122 1.363 1_554 S
N120 C122 1.356 . S
N120 H132 0.984 . S
N120 H133 0.985 . S
N121 C123 1.356 . S
N121 H126 0.984 . S
N121 H127 0.985 . S
C122 C116 1.379 . S
C122 C119 1.363 1_556 S
C122 N120 1.356 . S
C123 C117 1.363 . S
C123 C118 1.379 . S
C123 N121 1.356 . S
N124 C116 1.356 . S
N124 H130 0.984 . S
N124 H131 0.984 . S
N125 C118 1.356 . S
N125 H128 0.984 . S
N125 H129 0.985 . S
H126 N121 0.984 . S
H127 N121 0.985 . S
H128 N125 0.984 . S
H129 N125 0.985 . S
H130 N124 0.984 . S
H131 N124 0.984 . S
H132 N120 0.984 . S
H133 N120 0.985 . S
C134 C135 1.363 . S
C134 C140 1.379 . S
C134 N142 1.356 . S
C135 C134 1.363 . S
C135 C141 1.363 . S
C136 C137 1.363 . S
C136 C141 1.379 . S
C136 N143 1.356 . S
C137 C136 1.363 . S
C137 C140 1.363 . S
N138 C140 1.356 . S
N138 H150 0.984 . S
N138 H151 0.985 . S
N139 C141 1.356 . S
N139 H144 0.984 . S
N139 H145 0.985 . S
C140 C134 1.379 . S
C140 C137 1.363 . S
C140 N138 1.356 . S
C141 C135 1.363 . S
C141 C136 1.379 . S
C141 N139 1.356 . S
N142 C134 1.356 . S
N142 H148 0.984 . S
N142 H149 0.984 . S
N143 C136 1.356 . S
N143 H146 0.984 . S
N143 H147 0.985 . S
H144 N139 0.984 . S
H145 N139 0.985 . S
H146 N143 0.984 . S
H147 N143 0.985 . S
H148 N142 0.984 . S
H149 N142 0.984 . S
H150 N138 0.984 . S
H151 N138 0.985 . S
C152 C153 1.363 1_556 S
C152 C158 1.379 . S
C152 N160 1.356 . S
C153 C152 1.363 1_554 S
C153 C159 1.363 . S
C154 C155 1.363 . S
C154 C159 1.379 . S
C154 N161 1.356 . S
C155 C154 1.363 . S
C155 C158 1.363 1_554 S
N156 C158 1.356 . S
N156 H168 0.984 . S
N156 H169 0.985 . S
N157 C159 1.356 . S
N157 H162 0.984 . S
N157 H163 0.985 . S
C158 C152 1.379 . S
C158 C155 1.363 1_556 S
C158 N156 1.356 . S
C159 C153 1.363 . S
C159 C154 1.379 . S
C159 N157 1.356 . S
N160 C152 1.356 . S
N160 H166 0.984 . S
N160 H167 0.984 . S
N161 C154 1.356 . S
N161 H164 0.984 . S
N161 H165 0.985 . S
H162 N157 0.984 . S
H163 N157 0.985 . S
H164 N161 0.984 . S
H165 N161 0.985 . S
H166 N160 0.984 . S
H167 N160 0.984 . S
H168 N156 0.984 . S
H169 N156 0.985 . S
C170 C171 1.363 . S
C170 C176 1.379 . S
C170 N178 1.356 . S
C171 C170 1.363 . S
C171 C177 1.363 . S
C172 C173 1.363 . S
C172 C177 1.379 . S
C172 N179 1.355 1_565 S
C173 C172 1.363 . S
C173 C176 1.363 . S
N174 C176 1.356 . S
N174 H186 0.984 . S
N174 H187 0.985 . S
N175 C177 1.356 . S
N175 H180 0.984 1_554 S
N175 H181 0.985 . S
C176 C170 1.379 . S
C176 C173 1.363 . S
C176 N174 1.356 . S
C177 C171 1.363 . S
C177 C172 1.379 . S
C177 N175 1.356 . S
N178 C170 1.356 . S
N178 H184 0.984 . S
N178 H185 0.984 . S
N179 C172 1.355 1_545 S
N179 H182 0.985 . S
N179 H183 0.986 . S
H180 N175 0.984 1_556 S
H181 N175 0.985 . S
H182 N179 0.985 . S
H183 N179 0.986 . S
H184 N178 0.984 . S
H185 N178 0.984 . S
H186 N174 0.984 . S
H187 N174 0.985 . S
C188 C189 1.363 . S
C188 C194 1.379 . S
C188 N196 1.356 . S
C189 C188 1.363 . S
C189 C195 1.363 . S
C190 C191 1.363 . S
C190 C195 1.379 . S
C190 N197 1.356 . S
C191 C190 1.363 . S
C191 C194 1.363 . S
N192 C194 1.356 . S
N192 H204 0.984 . S
N192 H205 0.985 . S
N193 C195 1.356 . S
N193 H198 0.984 . S
N193 H199 0.985 . S
C194 C188 1.379 . S
C194 C191 1.363 . S
C194 N192 1.356 . S
C195 C189 1.363 . S
C195 C190 1.379 . S
C195 N193 1.356 . S
N196 C188 1.356 . S
N196 H202 0.984 . S
N196 H203 0.984 . S
N197 C190 1.356 . S
N197 H200 0.984 . S
N197 H201 0.985 . S
H198 N193 0.984 . S
H199 N193 0.985 . S
H200 N197 0.984 . S
H201 N197 0.985 . S
H202 N196 0.984 . S
H203 N196 0.984 . S
H204 N192 0.984 . S
H205 N192 0.985 . S
C206 C207 1.363 . S
C206 C212 1.379 . S
C206 N214 1.356 . S
C207 C206 1.363 . S
C207 C213 1.363 . S
C208 C209 1.363 . S
C208 C213 1.379 . S
C208 N215 1.356 . S
C209 C208 1.363 . S
C209 C212 1.363 . S
N210 C212 1.356 . S
N210 H222 0.984 . S
N210 H223 0.985 . S
N211 C213 1.356 . S
N211 H216 0.984 . S
N211 H217 0.985 . S
C212 C206 1.379 . S
C212 C209 1.363 . S
C212 N210 1.356 . S
C213 C207 1.363 . S
C213 C208 1.379 . S
C213 N211 1.356 . S
N214 C206 1.356 . S
N214 H220 0.984 . S
N214 H221 0.984 . S
N215 C208 1.356 . S
N215 H218 0.984 . S
N215 H219 0.985 . S
H216 N211 0.984 . S
H217 N211 0.985 . S
H218 N215 0.984 . S
H219 N215 0.985 . S
H220 N214 0.984 . S
H221 N214 0.984 . S
H222 N210 0.984 . S
H223 N210 0.985 . S
C224 C225 1.363 . S
C224 C230 1.379 . S
C224 N232 1.356 . S
C225 C224 1.363 . S
C225 C231 1.363 . S
C226 C227 1.363 . S
C226 C231 1.379 . S
C226 N233 1.356 . S
C227 C226 1.363 . S
C227 C230 1.363 . S
N228 C230 1.356 . S
N228 H240 0.984 . S
N228 H241 0.985 . S
N229 C231 1.356 . S
N229 H234 0.984 . S
N229 H235 0.985 . S
C230 C224 1.379 . S
C230 C227 1.363 . S
C230 N228 1.356 . S
C231 C225 1.363 . S
C231 C226 1.379 . S
C231 N229 1.356 . S
N232 C224 1.356 . S
N232 H238 0.984 . S
N232 H239 0.984 . S
N233 C226 1.356 . S
N233 H236 0.984 . S
N233 H237 0.985 . S
H234 N229 0.984 . S
H235 N229 0.985 . S
H236 N233 0.984 . S
H237 N233 0.985 . S
H238 N232 0.984 . S
H239 N232 0.984 . S
H240 N228 0.984 . S
H241 N228 0.985 . S
C242 C243 1.363 . S
C242 C248 1.379 . S
C242 N250 1.356 . S
C243 C242 1.363 . S
C243 C249 1.363 . S
C244 C245 1.363 . S
C244 C249 1.379 . S
C244 N251 1.356 . S
C245 C244 1.363 . S
C245 C248 1.363 . S
N246 C248 1.356 . S
N246 H258 0.984 . S
N246 H259 0.985 . S
N247 C249 1.356 . S
N247 H252 0.984 . S
N247 H253 0.985 . S
C248 C242 1.379 . S
C248 C245 1.363 . S
C248 N246 1.356 . S
C249 C243 1.363 . S
C249 C244 1.379 . S
C249 N247 1.356 . S
N250 C242 1.356 . S
N250 H256 0.984 . S
N250 H257 0.984 . S
N251 C244 1.356 . S
N251 H254 0.984 . S
N251 H255 0.985 . S
H252 N247 0.984 . S
H253 N247 0.985 . S
H254 N251 0.984 . S
H255 N251 0.985 . S
H256 N250 0.984 . S
H257 N250 0.984 . S
H258 N246 0.984 . S
H259 N246 0.985 . S
C260 C261 1.363 . S
C260 C266 1.379 . S
C260 N268 1.356 . S
C261 C260 1.363 . S
C261 C267 1.363 . S
C262 C263 1.363 . S
C262 C267 1.379 . S
C262 N269 1.356 . S
C263 C262 1.363 . S
C263 C266 1.363 . S
N264 C266 1.356 . S
N264 H276 0.984 . S
N264 H277 0.985 . S
N265 C267 1.356 . S
N265 H270 0.984 . S
N265 H271 0.985 . S
C266 C260 1.379 . S
C266 C263 1.363 . S
C266 N264 1.356 . S
C267 C261 1.363 . S
C267 C262 1.379 . S
C267 N265 1.356 . S
N268 C260 1.356 . S
N268 H274 0.984 . S
N268 H275 0.984 . S
N269 C262 1.356 . S
N269 H272 0.984 . S
N269 H273 0.985 . S
H270 N265 0.984 . S
H271 N265 0.985 . S
H272 N269 0.984 . S
H273 N269 0.985 . S
H274 N268 0.984 . S
H275 N268 0.984 . S
H276 N264 0.984 . S
H277 N264 0.985 . S
C278 C279 1.363 . S
C278 C284 1.379 . S
C278 N286 1.356 . S
C279 C278 1.363 . S
C279 C285 1.363 . S
C280 C281 1.363 . S
C280 C285 1.379 . S
C280 N287 1.356 . S
C281 C280 1.363 . S
C281 C284 1.363 . S
N282 C284 1.356 . S
N282 H294 0.984 . S
N282 H295 0.985 . S
N283 C285 1.356 . S
N283 H288 0.984 . S
N283 H289 0.985 . S
C284 C278 1.379 . S
C284 C281 1.363 . S
C284 N282 1.356 . S
C285 C279 1.363 . S
C285 C280 1.379 . S
C285 N283 1.356 . S
N286 C278 1.356 . S
N286 H292 0.984 . S
N286 H293 0.984 . S
N287 C280 1.356 . S
N287 H290 0.984 . S
N287 H291 0.985 . S
H288 N283 0.984 . S
H289 N283 0.985 . S
H290 N287 0.984 . S
H291 N287 0.985 . S
H292 N286 0.984 . S
H293 N286 0.984 . S
H294 N282 0.984 . S
H295 N282 0.985 . S
C296 C297 1.363 . S
C296 C302 1.379 . S
C296 N304 1.356 . S
C297 C296 1.363 . S
C297 C303 1.363 . S
C298 C299 1.363 . S
C298 C303 1.379 . S
C298 N305 1.356 . S
C299 C298 1.363 . S
C299 C302 1.363 . S
N300 C302 1.356 . S
N300 H312 0.984 . S
N300 H313 0.985 . S
N301 C303 1.356 1_554 S
N301 H306 0.984 . S
N301 H307 0.985 . S
C302 C296 1.379 . S
C302 C299 1.363 . S
C302 N300 1.356 . S
C303 C297 1.363 . S
C303 C298 1.379 . S
C303 N301 1.356 1_556 S
N304 C296 1.356 . S
N304 H310 0.984 . S
N304 H311 0.984 . S
N305 C298 1.356 . S
N305 H308 0.984 . S
N305 H309 0.985 . S
H306 N301 0.984 . S
H307 N301 0.985 . S
H308 N305 0.984 . S
H309 N305 0.985 . S
H310 N304 0.984 . S
H311 N304 0.984 . S
H312 N300 0.984 . S
H313 N300 0.985 . S
C101 C69 1.495 . S
C99 N41 1.496 . S
C117 N2 1.496 . S
C119 C92 1.495 . S
C135 N15 1.520 . S
C137 C68 1.520 . S
C153 N28 1.519 . S
C155 C91 1.520 . S
C173 C72 1.456 . S
C171 N5 1.505 . S
C191 C94 1.480 . S
C189 N14 1.550 . S
C207 N27 1.524 . S
C209 C73 1.457 . S
C225 N44 1.540 . S
C227 C93 1.472 . S
C245 C96 1.457 . S
C243 N18 1.518 . S
C263 C71 1.480 . S
C261 N31 1.545 . S
C281 C95 1.456 . S
C279 N40 1.511 . S
C297 N1 1.546 . S
C299 C70 1.471 . S
