# Generated by pormake.
# Topology pts, (4,4)-cn, num edge types: 1
# Building blocks:
#     Node 0, Type 0, BuildingBlock: KUFVIS_clean_linker_0, # of connection points: 4
#     Node 1, Type 0, BuildingBlock: KUFVIS_clean_linker_0, # of connection points: 4
#     Node 2, Type 1, BuildingBlock: UXUYUI_clean_sbu_0, # of connection points: 4
#     Node 3, Type 1, BuildingBlock: UXUYUI_clean_sbu_0, # of connection points: 4
#     Edge 4, Type (0, 1), BuildingBlock: ZUJKAS_clean_linker_0, # of connection points: 2
#     Edge 5, Type (0, 1), BuildingBlock: ZUJKAS_clean_linker_0, # of connection points: 2
#     Edge 6, Type (0, 1), BuildingBlock: ZUJKAS_clean_linker_0, # of connection points: 2
#     Edge 7, Type (0, 1), BuildingBlock: ZUJKAS_clean_linker_0, # of connection points: 2
#     Edge 8, Type (0, 1), BuildingBlock: ZUJKAS_clean_linker_0, # of connection points: 2
#     Edge 9, Type (0, 1), BuildingBlock: ZUJKAS_clean_linker_0, # of connection points: 2
#     Edge 10, Type (0, 1), BuildingBlock: ZUJKAS_clean_linker_0, # of connection points: 2
#     Edge 11, Type (0, 1), BuildingBlock: ZUJKAS_clean_linker_0, # of connection points: 2
# Relax obj value: 0.008
# Max RMSD: 0.067
# Mean RMSD: 0.060
data_MOF--net-pts--node1-UXUYUI_clean_sbu_0--node2-KUFVIS_clean_linker_0--edge1-ZUJKAS_clean_linker_0
_symmetry_space_group_name_H-M    P1
_symmetry_Int_Tables_number       1
_symmetry_cell_setting            triclinic
loop_
_symmetry_equiv_pos_as_xyz
'x, y, z'
_cell_length_a     39.134044
_cell_length_b     39.08465
_cell_length_c     51.122381
_cell_angle_alpha  90.021911
_cell_angle_beta   90.016365
_cell_angle_gamma 89.901149
loop_
_atom_site_label
_atom_site_type_symbol
_atom_site_fract_x
_atom_site_fract_y
_atom_site_fract_z
_atom_type_partial_charge
H0 H 0.40549 0.99505 0.00043 0.0
H1 H 0.49972 1.0029 0.95851 0.0
H2 H 0.49484 0.02838 0.04111 0.0
H3 H 0.54819 1.01045 0.04152 0.0
H4 H 0.63884 0.04173 0.00176 0.0
H5 H 0.54519 0.03557 0.95883 0.0
C6 C 0.43273 1.00025 0.00038 0.0
C7 C 0.44863 1.01057 0.02351 0.0
C8 C 0.45087 0.99856 0.97689 0.0
C9 C 0.48604 1.00571 0.97675 0.0
C10 C 0.5031 1.01572 1e-05 0.0
C11 C 0.48345 0.01911 0.02318 0.0
C12 C 0.54097 0.02272 0.00026 0.0
C13 C 0.56009 0.01935 0.02369 0.0
C14 C 0.59501 0.02741 0.02442 0.0
C15 C 0.61151 0.03715 0.00139 0.0
C16 C 0.59384 0.03921 0.97768 0.0
C17 C 0.55856 0.03254 0.9772 0.0
H18 H 0.02235 0.63772 0.49955 0.0
H19 H 1.00225 0.54413 0.53988 0.0
H20 H 0.03203 0.54303 0.45809 0.0
H21 H 1.00188 0.49525 0.45722 0.0
H22 H 1.00237 0.4004 0.49908 0.0
H23 H 0.02609 0.49264 0.54006 0.0
C24 C 0.02106 0.60998 0.4994 0.0
C25 C 0.02781 0.59221 0.47625 0.0
C26 C 1.01231 0.5927 0.52232 0.0
C27 C 1.01021 0.55685 0.52212 0.0
C28 C 0.01701 0.53798 0.49899 0.0
C29 C 0.02593 0.55631 0.47606 0.0
C30 C 1.01399 0.49957 0.49875 0.0
C31 C 1.0059 0.48169 0.47541 0.0
C32 C 1.00194 0.44595 0.47541 0.0
C33 C 1.00509 0.42803 0.49895 0.0
C34 C 1.01326 0.44486 0.5222 0.0
C35 C 0.01859 0.48035 0.52199 0.0
Li36 Li 0.0197 0.05022 0.26692 0.0
Li37 Li 0.02286 0.98913 0.26763 0.0
Li38 Li 0.05376 0.02166 0.23453 0.0
Li39 Li 0.99032 0.01811 0.23391 0.0
C40 C 0.07047 0.02169 0.29861 0.0
N41 N 0.08953 0.02104 0.35065 0.0
C42 C 0.04566 0.02383 0.31823 0.0
C43 C 0.10494 0.01923 0.30546 0.0
C44 C 0.05582 0.02345 0.34442 0.0
C45 C 0.11407 0.01894 0.33189 0.0
C46 C 0.95354 0.99797 0.27703 0.0
C47 C 0.92133 0.94625 0.26986 0.0
N48 N 0.89711 0.95759 0.28688 0.0
C49 C 0.92834 1.00912 0.29442 0.0
C50 C 0.95004 0.96628 0.26462 0.0
C51 C 0.9 0.98833 0.29916 0.0
C52 C 0.98516 0.10602 0.28993 0.0
N53 N 0.01652 0.09162 0.28677 0.0
C54 C 0.04311 0.13928 0.30784 0.0
C55 C 0.04525 0.1074 0.29558 0.0
C56 C 1.01109 0.15511 0.31106 0.0
C57 C 0.98182 0.13786 0.30212 0.0
H58 H 0.96281 0.0931 0.28235 0.0
H59 H 0.06995 0.09563 0.2925 0.0
C60 C 0.04631 0.92309 0.27818 0.0
N61 N 0.02593 0.94822 0.28791 0.0
C62 C 0.04877 0.89159 0.29092 0.0
C63 C 1.00963 0.91259 0.3238 0.0
C64 C 1.00801 0.94375 0.31043 0.0
C65 C 0.03003 0.88583 0.31396 0.0
H66 H 0.06049 0.92749 0.26034 0.0
H67 H 0.99203 0.96417 0.31783 0.0
C68 C 0.02632 0.09282 0.22719 0.0
N69 N 0.03877 0.16239 0.22671 0.0
C70 C 0.99984 0.1158 0.22184 0.0
C71 C 0.05918 0.10521 0.23219 0.0
C72 C 1.00664 0.15088 0.22172 0.0
C73 C 0.06494 0.14047 0.23187 0.0
C74 C 0.027 0.96915 0.20423 0.0
C75 C 0.02493 0.99249 0.18356 0.0
C76 C 0.03167 0.93439 0.19892 0.0
C77 C 0.02757 0.98058 0.15787 0.0
C78 C 0.03416 0.9235 0.17296 0.0
N79 N 0.03209 0.94662 0.15315 0.0
C80 C 0.12087 1.00221 0.22315 0.0
C81 C 0.09835 0.04279 0.19327 0.0
C82 C 0.15226 1.00232 0.21017 0.0
N83 N 0.09484 0.02239 0.21464 0.0
C84 C 0.12942 0.04389 0.1798 0.0
C85 C 0.15695 0.02357 0.1883 0.0
H86 H 0.11728 0.98629 0.24024 0.0
H87 H 0.07714 0.05843 0.18684 0.0
C88 C 0.92701 0.04278 0.21693 0.0
N89 N 0.94894 0.01608 0.21391 0.0
C90 C 0.89509 0.0425 0.20469 0.0
C91 C 0.90855 0.98688 0.18679 0.0
C92 C 0.94022 0.98824 0.1994 0.0
C93 C 0.88543 1.01425 0.18938 0.0
H94 H 0.93398 0.06394 0.22945 0.0
H95 H 0.95741 0.96669 0.19801 0.0
O96 O 0.06132 0.02193 0.27278 0.0
O97 O 0.98124 0.01832 0.27217 0.0
O98 O 0.02003 0.05841 0.22811 0.0
O99 O 0.02469 0.98008 0.2296 0.0
H100 H 0.01886 0.02584 0.31337 0.0
H101 H 0.12444 0.01755 0.29049 0.0
H102 H 0.0369 0.02509 0.35979 0.0
H103 H 0.14068 0.01706 0.33747 0.0
H104 H 0.9183 0.92168 0.2604 0.0
H105 H 0.93067 0.03362 0.30415 0.0
H106 H 0.96922 0.95715 0.25111 0.0
H107 H 0.8803 0.99664 0.31258 0.0
H108 H 0.06631 0.15141 0.31468 0.0
H109 H 0.95668 0.14926 0.30388 0.0
H110 H 0.06531 0.87202 0.28285 0.0
H111 H 0.99447 0.90927 0.34132 0.0
H112 H 0.9743 0.1067 0.21788 0.0
H113 H 0.07986 0.08784 0.2368 0.0
H114 H 0.98635 0.16897 0.21769 0.0
H115 H 0.09018 0.15042 0.23589 0.0
H116 H 0.02116 0.01946 0.18723 0.0
H117 H 0.03327 0.916 0.21471 0.0
H118 H 0.02599 0.99834 0.14169 0.0
H119 H 0.03775 0.89665 0.16856 0.0
H120 H 0.17288 0.98648 0.21751 0.0
H121 H 0.1318 0.06028 0.16283 0.0
H122 H 0.87784 0.06382 0.20775 0.0
H123 H 0.90228 0.96462 0.17514 0.0
Li124 Li 0.98998 0.02162 0.76772 0.0
Li125 Li 0.05302 1.01532 0.76921 0.0
Li126 Li 0.02349 0.05063 0.73498 0.0
Li127 Li 0.02112 0.98743 0.73311 0.0
C128 C 1.01289 0.07519 0.79459 0.0
N129 N 0.98728 0.10978 0.83747 0.0
C130 C 0.02842 0.0715 0.81905 0.0
C131 C 0.98449 0.09665 0.79188 0.0
C132 C 1.01506 0.08919 0.8405 0.0
C133 C 0.97187 0.11385 0.81382 0.0
C134 C 0.02567 0.95158 0.78669 0.0
C135 C 0.05496 0.89782 0.79289 0.0
N136 N 0.04197 0.89579 0.81751 0.0
C137 C 1.01229 0.94874 0.81194 0.0
C138 C 0.0469 0.92574 0.77697 0.0
C139 C 0.02096 0.92043 0.82726 0.0
C140 C 0.91847 0.02302 0.77361 0.0
N141 N 0.94819 0.02346 0.7874 0.0
C142 C 0.91728 0.02815 0.82763 0.0
C143 C 0.94811 0.02548 0.81397 0.0
C144 C 0.88619 0.02821 0.81385 0.0
C145 C 0.88706 0.02532 0.78648 0.0
H146 H 0.9191 0.02105 0.75254 0.0
H147 H 0.97198 0.02537 0.82458 0.0
C148 C 0.12198 0.02801 0.77979 0.0
N149 N 0.09391 1.01228 0.7898 0.0
C150 C 0.15347 0.02566 0.79252 0.0
C151 C 0.12648 0.99199 0.82627 0.0
C152 C 0.09549 0.99492 0.81282 0.0
C153 C 0.15615 1.00719 0.81601 0.0
H154 H 0.12 0.04199 0.76159 0.0
H155 H 0.07278 0.98338 0.82083 0.0
C156 C 0.96804 0.03662 0.70826 0.0
N157 N 0.9395 0.06972 0.66581 0.0
C158 C 0.97204 0.02316 0.68312 0.0
C159 C 0.94931 0.06673 0.71188 0.0
C160 C 0.95743 0.04031 0.6619 0.0
C161 C 0.93517 0.08315 0.69014 0.0
C162 C 0.089 1.00339 0.71801 0.0
C163 C 0.09963 0.01647 0.69391 0.0
C164 C 0.10656 0.97581 0.7291 0.0
C165 C 0.12737 1.00138 0.68112 0.0
C166 C 0.13419 0.96144 0.71571 0.0
N167 N 0.14391 0.97439 0.69218 0.0
C168 C 0.02582 0.1221 0.72817 0.0
C169 C 0.03054 0.09115 0.6885 0.0
C170 C 0.02749 0.15313 0.71473 0.0
N171 N 0.02705 0.09194 0.71496 0.0
C172 C 0.0324 0.12163 0.67425 0.0
C173 C 0.03076 0.15326 0.68736 0.0
H174 H 0.02344 0.12214 0.74919 0.0
H175 H 0.0317 0.06685 0.67843 0.0
C176 C 0.99702 0.92201 0.72151 0.0
N177 N 0.01837 0.9467 0.71244 0.0
C178 C 0.99468 0.89051 0.70873 0.0
C179 C 0.0357 0.91065 0.677 0.0
C180 C 0.03713 0.94184 0.69036 0.0
C181 C 1.01448 0.88428 0.68629 0.0
H182 H 0.98209 0.92668 0.73896 0.0
H183 H 0.05344 0.96198 0.68317 0.0
O184 O 0.02554 0.05797 0.77339 0.0
O185 O 0.01732 0.97912 0.77142 0.0
O186 O 0.9826 0.02051 0.72922 0.0
O187 O 0.06177 0.0178 0.7307 0.0
H188 H 0.05047 0.05508 0.82147 0.0
H189 H 0.97209 0.09967 0.7731 0.0
H190 H 0.02674 0.0865 0.85957 0.0
H191 H 0.94977 0.13034 0.81205 0.0
H192 H 0.07143 0.8777 0.78562 0.0
H193 H 0.99559 0.9683 0.81972 0.0
H194 H 0.05681 0.92697 0.75728 0.0
H195 H 1.01097 0.91805 0.84691 0.0
H196 H 0.91777 0.02984 0.84877 0.0
H197 H 0.86373 0.02546 0.77508 0.0
H198 H 0.17561 0.0376 0.78372 0.0
H199 H 0.1271 0.97817 0.84462 0.0
H200 H 0.98649 0.99989 0.68002 0.0
H201 H 0.94603 0.07747 0.73123 0.0
H202 H 0.96044 0.03029 0.6423 0.0
H203 H 0.92081 0.1066 0.69261 0.0
H204 H 0.08654 0.03797 0.68513 0.0
H205 H 0.09919 0.96583 0.74795 0.0
H206 H 0.13576 1.01115 0.6624 0.0
H207 H 0.14796 0.94006 0.72408 0.0
H208 H 0.02568 0.17676 0.72571 0.0
H209 H 0.0354 0.12039 0.65321 0.0
H210 H 0.97743 0.87132 0.71634 0.0
H211 H 0.05161 0.90706 0.6599 0.0
H212 H 0.41103 0.9606 0.04625 0.0
H213 H 0.36721 0.96748 0.08006 0.0
H214 H 0.39341 0.07414 0.08759 0.0
H215 H 0.43765 0.06725 0.05374 0.0
H216 H 0.36976 0.99909 0.13528 0.0
H217 H 0.28934 0.06635 0.06131 0.0
H218 H 0.32451 0.039 0.05196 0.0
H219 H 0.33279 0.08031 0.0658 0.0
C220 C 0.408 0.98528 0.05563 0.0
C221 C 0.42759 1.01342 0.04747 0.0
C222 C 0.38302 0.98919 0.07489 0.0
C223 C 0.37695 0.02135 0.08609 0.0
C224 C 0.39774 0.04913 0.07906 0.0
H225 H 0.19138 0.07992 0.17064 0.0
H226 H 0.24659 0.08162 0.14815 0.0
C227 C 0.42306 0.04515 0.05991 0.0
C228 C 0.34675 0.02613 0.10313 0.0
H229 H 0.26434 0.0548 0.10199 0.0
C230 C 0.34679 1.01159 0.1282 0.0
C231 C 0.31692 0.04244 0.09374 0.0
C232 C 0.31551 0.05785 0.0667 0.0
C233 C 0.31751 1.01265 0.1441 0.0
C234 C 0.28716 0.02778 0.1343 0.0
C235 C 0.28754 0.04314 0.10948 0.0
C236 C 0.25435 0.02679 0.14892 0.0
C237 C 0.31947 0.99769 0.17126 0.0
C238 C 0.24007 0.99538 0.15653 0.0
C239 C 0.20858 0.99435 0.16942 0.0
C240 C 0.19044 0.02469 0.17462 0.0
C241 C 0.20459 0.05609 0.16672 0.0
C242 C 0.23622 0.05711 0.154 0.0
H243 H 0.34613 0.99767 0.17874 0.0
H244 H 0.30311 1.01211 0.18518 0.0
H245 H 0.31058 0.97075 0.1707 0.0
H246 H 0.25299 0.97156 0.1521 0.0
H247 H 0.1981 0.96973 0.17485 0.0
H248 H 0.07005 0.43506 0.55245 0.0
H249 H 0.07775 0.39064 0.58612 0.0
H250 H 0.97162 0.36275 0.57861 0.0
H251 H 0.96398 0.40679 0.54505 0.0
H252 H 0.99995 0.3632 0.63255 0.0
H253 H 0.07483 0.28802 0.5597 0.0
H254 H 0.08819 0.33129 0.56601 0.0
H255 H 0.04795 0.32353 0.55031 0.0
C256 C 0.04824 0.42009 0.55865 0.0
C257 C 0.01644 0.4242 0.5463 0.0
C258 C 0.05268 0.39463 0.57766 0.0
C259 C 0.02531 0.37324 0.58459 0.0
C260 C 0.99303 0.37899 0.57353 0.0
H261 H 1.0014 0.16849 0.64002 0.0
H262 H 1.00276 0.22291 0.61647 0.0
C263 C 0.98868 0.40412 0.55443 0.0
C264 C 0.03059 0.34273 0.6013 0.0
H265 H 0.06321 0.26161 0.59997 0.0
C266 C 1.01419 0.34113 0.62567 0.0
C267 C 0.0487 0.31384 0.59196 0.0
C268 C 0.06582 0.3139 0.56551 0.0
C269 C 1.01511 0.31117 0.64086 0.0
C270 C 0.03293 0.28219 0.63137 0.0
C271 C 0.04972 0.28396 0.60718 0.0
C272 C 0.03294 0.24919 0.64564 0.0
C273 C 0.996 0.31021 0.66647 0.0
C274 C 0.04992 0.24585 0.66965 0.0
C275 C 0.04954 0.21465 0.68305 0.0
C276 C 0.0321 0.18618 0.6727 0.0
C277 C 0.01545 0.18964 0.64844 0.0
C278 C 0.016 0.2208 0.63501 0.0
H279 H 0.979 0.33277 0.66898 0.0
H280 H 0.98036 0.2866 0.66783 0.0
H281 H 1.0146 0.30989 0.68285 0.0
H282 H 0.06361 0.26733 0.67796 0.0
H283 H 0.06318 0.21279 0.70142 0.0
H284 H 0.63572 0.07628 0.04543 0.0
H285 H 0.67824 0.06919 0.08004 0.0
H286 H 0.64389 0.96571 0.09266 0.0
H287 H 0.60132 0.97264 0.0576 0.0
H288 H 0.67555 0.04952 0.13374 0.0
H289 H 0.74562 0.95565 0.07157 0.0
H290 H 0.71196 0.98244 0.05877 0.0
H291 H 0.70167 0.94613 0.07875 0.0
C292 C 0.63683 0.05222 0.05593 0.0
C293 C 0.6155 0.0249 0.04875 0.0
C294 C 0.66107 0.04822 0.0757 0.0
C295 C 0.66461 0.01676 0.08859 0.0
C296 C 0.64187 0.99005 0.08266 0.0
H297 H 0.84198 0.9595 0.18454 0.0
H298 H 0.78624 0.95796 0.1628 0.0
C299 C 0.61739 0.99411 0.06286 0.0
C300 C 0.69391 1.01163 0.10658 0.0
H301 H 0.77167 0.97217 0.11088 0.0
C302 C 0.69639 0.0323 0.12895 0.0
C303 C 0.7211 0.98919 0.10023 0.0
C304 C 0.72029 0.96719 0.07596 0.0
C305 C 0.72567 0.03166 0.14486 0.0
C306 C 0.75342 1.01026 0.1379 0.0
C307 C 0.75038 0.9886 0.11613 0.0
C308 C 0.78661 1.01144 0.15194 0.0
C309 C 0.72672 0.0541 0.16886 0.0
C310 C 0.80554 0.04189 0.15271 0.0
C311 C 0.83749 0.04282 0.16492 0.0
C312 C 0.85131 1.01321 0.17649 0.0
C313 C 0.83231 0.98268 0.17557 0.0
C314 C 0.80033 0.98179 0.16333 0.0
H315 H 0.70058 0.06054 0.17581 0.0
H316 H 0.74093 0.04152 0.18502 0.0
H317 H 0.73987 0.07841 0.16399 0.0
H318 H 0.79589 0.06486 0.14342 0.0
H319 H 0.85166 0.06659 0.16483 0.0
H320 H 0.04626 0.58953 0.56888 0.0
H321 H 0.04432 0.63229 0.60418 0.0
H322 H 0.96346 0.68564 0.56378 0.0
H323 H 0.96539 0.64315 0.52868 0.0
H324 H 0.0582 0.70155 0.59337 0.0
H325 H 0.93143 0.68796 0.64036 0.0
H326 H 0.95085 0.65417 0.62131 0.0
H327 H 0.92935 0.68905 0.60528 0.0
C328 C 0.0273 0.60973 0.5681 0.0
C329 C 1.00588 0.6131 0.54622 0.0
C330 C 0.02634 0.63422 0.58813 0.0
C331 C 1.00356 0.662 0.5867 0.0
C332 C 0.98078 0.66413 0.56556 0.0
H333 H 0.01641 0.87123 0.63352 0.0
H334 H 0.01541 0.81562 0.61164 0.0
C335 C 0.98196 0.63992 0.54549 0.0
C336 C 1.0064 0.69116 0.60515 0.0
H337 H 0.95974 0.74201 0.64618 0.0
C338 C 0.03687 0.71008 0.60526 0.0
C339 C 0.9786 0.70221 0.62069 0.0
C340 C 0.9458 0.68211 0.62215 0.0
C341 C 0.03972 0.7406 0.61956 0.0
C342 C 1.01129 0.75264 0.63395 0.0
C343 C 0.98137 0.73291 0.63487 0.0
C344 C 1.01184 0.78624 0.64738 0.0
C345 C 0.07298 0.76004 0.61888 0.0
C346 C 1.00962 0.78816 0.67471 0.0
C347 C 1.01049 0.81992 0.68733 0.0
C348 C 1.01323 0.85045 0.67283 0.0
C349 C 1.01495 0.84832 0.64537 0.0
C350 C 1.01427 0.81655 0.63281 0.0
H351 H 0.09455 0.74357 0.6124 0.0
H352 H 0.07065 0.78164 0.6049 0.0
H353 H 0.07912 0.77078 0.63843 0.0
H354 H 1.0077 0.76503 0.68629 0.0
H355 H 1.00958 0.82047 0.7085 0.0
H356 H 0.41243 0.94273 0.96534 0.0
H357 H 0.36773 0.9392 0.93196 0.0
H358 H 0.39799 0.03786 0.90213 0.0
H359 H 0.44336 0.04087 0.93509 0.0
H360 H 0.31612 0.98408 0.93287 0.0
H361 H 0.37639 0.9883 0.83487 0.0
H362 H 0.4002 0.97812 0.86413 0.0
H363 H 0.39062 0.02193 0.85612 0.0
C364 C 0.4104 0.96293 0.95091 0.0
C365 C 0.4314 0.99195 0.95259 0.0
C366 C 0.38475 0.96103 0.93197 0.0
C367 C 0.37946 0.98822 0.91446 0.0
C368 C 0.40195 0.01622 0.915 0.0
H369 H 0.20632 0.05568 0.82187 0.0
H370 H 0.2611 0.04978 0.84456 0.0
C371 C 0.42792 0.01795 0.93383 0.0
C372 C 0.34764 0.98946 0.89856 0.0
H373 H 0.31636 1.00032 0.83667 0.0
C374 C 0.31625 0.98719 0.91179 0.0
C375 C 0.34774 0.99399 0.8711 0.0
C376 C 0.38055 0.99541 0.85567 0.0
C377 C 0.28505 0.98979 0.89844 0.0
C378 C 0.28513 0.99441 0.87102 0.0
C379 C 0.31643 0.99673 0.85771 0.0
C380 C 0.2528 0.99722 0.85603 0.0
C381 C 0.2522 0.98845 0.91387 0.0
C382 C 0.2302 0.96944 0.85468 0.0
C383 C 0.19894 0.97264 0.84165 0.0
C384 C 0.18966 1.0037 0.82963 0.0
C385 C 0.21272 0.03129 0.83066 0.0
C386 C 0.24402 0.02802 0.84367 0.0
H387 H 0.2566 0.99242 0.93513 0.0
H388 H 0.23388 1.00814 0.90683 0.0
H389 H 0.2402 0.96298 0.91123 0.0
H390 H 0.23673 0.94528 0.86379 0.0
H391 H 0.18217 0.95066 0.8408 0.0
H392 H 0.95387 0.39703 0.46631 0.0
H393 H 0.95403 0.3547 0.43109 0.0
H394 H 0.03825 0.40698 0.39434 0.0
H395 H 0.03858 0.44921 0.42995 0.0
H396 H 0.95033 0.35568 0.37555 0.0
H397 H 0.07695 0.31153 0.41219 0.0
H398 H 0.05031 0.34067 0.43048 0.0
H399 H 0.07418 0.35575 0.4028 0.0
C400 C 0.97192 0.39993 0.4504 0.0
C401 C 0.99648 0.42614 0.45099 0.0
C402 C 0.97197 0.37576 0.43029 0.0
C403 C 0.99662 0.37728 0.41042 0.0
C404 C 0.01938 0.40504 0.40976 0.0
H405 H 0.05295 0.21054 0.30407 0.0
H406 H 0.04911 0.26658 0.32526 0.0
C407 C 0.01931 0.42935 0.42992 0.0
C408 C 1.0003 0.34797 0.39216 0.0
H409 H 0.05241 0.28029 0.37787 0.0
C410 C 0.97278 0.33937 0.37583 0.0
C411 C 0.02957 0.32663 0.39266 0.0
C412 C 0.05939 0.33381 0.41058 0.0
C413 C 0.97359 0.30978 0.36019 0.0
C414 C 1.00241 0.28791 0.36132 0.0
C415 C 0.03034 0.29708 0.37704 0.0
C416 C 1.0036 0.25455 0.34741 0.0
C417 C 0.94355 0.30221 0.34264 0.0
C418 C 0.97949 0.22902 0.35301 0.0
C419 C 0.98172 0.19689 0.34106 0.0
C420 C 1.00831 0.18951 0.32341 0.0
C421 C 0.0324 0.2152 0.31782 0.0
C422 C 0.03012 0.24733 0.32976 0.0
H423 H 0.92887 0.32579 0.338 0.0
H424 H 0.95196 0.29014 0.32405 0.0
H425 H 0.92606 0.28425 0.35277 0.0
H426 H 0.95935 0.23366 0.3671 0.0
H427 H 0.96307 0.17756 0.34613 0.0
H428 H 0.63846 0.09125 0.96885 0.0
H429 H 0.68315 0.09277 0.93543 0.0
H430 H 0.64068 1.00259 0.89942 0.0
H431 H 0.59583 1.0009 0.933 0.0
H432 H 0.72686 0.03197 0.93279 0.0
H433 H 0.66976 0.06663 0.8366 0.0
H434 H 0.6507 0.07943 0.86731 0.0
H435 H 0.64734 0.03594 0.85647 0.0
C436 C 0.63798 0.07245 0.95328 0.0
C437 C 0.61382 0.04586 0.95355 0.0
C438 C 0.66353 0.0733 0.93425 0.0
C439 C 0.66524 0.04778 0.91501 0.0
C440 C 0.63954 0.02277 0.91393 0.0
H441 H 0.82713 0.99224 0.8054 0.0
H442 H 0.77306 0.9969 0.82932 0.0
C443 C 0.61387 0.02189 0.93304 0.0
C444 C 0.69659 0.04445 0.89894 0.0
H445 H 0.72804 0.05042 0.83681 0.0
C446 C 0.72717 0.03611 0.9118 0.0
C447 C 0.69672 0.04933 0.87158 0.0
C448 C 0.66449 0.05852 0.85703 0.0
C449 C 0.75797 0.03253 0.89806 0.0
C450 C 0.75844 0.03839 0.87075 0.0
C451 C 0.7277 0.0462 0.85777 0.0
C452 C 0.7907 0.03666 0.85548 0.0
C453 C 0.78956 0.02178 0.91293 0.0
C454 C 0.81838 0.05788 0.86191 0.0
C455 C 0.84933 0.05512 0.84842 0.0
C456 C 0.85309 0.03141 0.82793 0.0
C457 C 0.825 1.01086 0.82101 0.0
C458 C 0.79411 1.01346 0.83467 0.0
H459 H 0.78296 1.00865 0.93153 0.0
H460 H 0.80579 1.00438 0.90105 0.0
H461 H 0.80476 0.04482 0.91789 0.0
H462 H 0.81609 0.07658 0.87746 0.0
H463 H 0.87024 0.07179 0.85386 0.0
H464 H 0.07715 0.64023 0.46969 0.0
H465 H 0.07947 0.68383 0.43541 0.0
H466 H 0.99614 0.63451 0.39517 0.0
H467 H 0.99359 0.5908 0.4297 0.0
H468 H 0.08473 0.68466 0.37903 0.0
H469 H 0.95927 0.7306 0.41673 0.0
H470 H 0.98532 0.7003 0.43442 0.0
H471 H 0.96125 0.68665 0.40641 0.0
C472 C 0.06 0.63815 0.45311 0.0
C473 C 0.03506 0.61235 0.45235 0.0
C474 C 0.06133 0.66305 0.43358 0.0
C475 C 0.03759 0.66272 0.41303 0.0
C476 C 1.01442 0.6354 0.41107 0.0
H477 H 0.03176 0.8219 0.29174 0.0
H478 H 0.03395 0.7665 0.31395 0.0
C479 C 1.01319 0.6103 0.43061 0.0
C480 C 0.03491 0.69298 0.39566 0.0
H481 H 0.9849 0.76291 0.38341 0.0
C482 C 0.06275 0.70158 0.37967 0.0
C483 C 1.00643 0.7153 0.39698 0.0
C484 C 0.9764 0.70806 0.41466 0.0
C485 C 0.063 0.73212 0.36514 0.0
C486 C 0.03457 0.75446 0.36658 0.0
C487 C 1.00657 0.74563 0.38229 0.0
C488 C 0.03397 0.78795 0.35295 0.0
C489 C 0.09415 0.74092 0.34913 0.0
C490 C 0.03279 0.81836 0.36752 0.0
C491 C 0.03169 0.85009 0.35491 0.0
C492 C 0.03152 0.85205 0.32743 0.0
C493 C 0.03252 0.82142 0.31291 0.0
C494 C 0.0337 0.78969 0.32555 0.0
H495 H 0.11632 0.72434 0.35404 0.0
H496 H 0.0882 0.7375 0.32807 0.0
H497 H 0.1015 0.76806 0.35221 0.0
H498 H 0.03294 0.81754 0.3887 0.0
H499 H 0.03137 0.87308 0.36673 0.0
loop_
_geom_bond_atom_site_label_1
_geom_bond_atom_site_label_2
_geom_bond_distance
_geom_bond_site_symmetry_2
_ccdc_geom_bond_type
H0 C6 0.930 . S
H1 C9 0.931 . S
H2 C11 0.928 1_565 S
H3 C13 0.930 . S
H4 C15 0.930 . S
H5 C17 0.931 1_565 S
C6 H0 0.930 . S
C6 C7 1.380 1_545 S
C6 C8 1.394 1_554 S
C7 C6 1.380 1_565 S
C7 C11 1.381 1_565 S
C8 C6 1.394 1_556 S
C8 C9 1.400 . S
C9 H1 0.931 . S
C9 C8 1.400 . S
C9 C10 1.375 1_556 S
C10 C9 1.375 1_554 S
C10 C11 1.419 . S
C10 C12 1.501 . S
C11 H2 0.928 1_545 S
C11 C7 1.381 1_545 S
C11 C10 1.419 . S
C12 C10 1.501 . S
C12 C13 1.384 . S
C12 C17 1.408 1_554 S
C13 H3 0.930 . S
C13 C12 1.384 . S
C13 C14 1.389 . S
C14 C13 1.389 . S
C14 C15 1.405 . S
C15 H4 0.930 . S
C15 C14 1.405 . S
C15 C16 1.368 1_554 S
C16 C15 1.368 1_556 S
C16 C17 1.401 . S
C17 H5 0.931 1_545 S
C17 C12 1.408 1_556 S
C17 C16 1.401 . S
H18 C24 0.930 . S
H19 C27 0.931 . S
H20 C29 0.931 . S
H21 C31 0.931 . S
H22 C33 0.930 . S
H23 C35 0.931 . S
C24 H18 0.930 . S
C24 C25 1.380 . S
C24 C26 1.399 . S
C25 C24 1.380 . S
C25 C29 1.382 . S
C26 C24 1.399 . S
C26 C27 1.398 1_455 S
C27 H19 0.931 . S
C27 C26 1.398 1_655 S
C27 C28 1.375 1_655 S
C28 C27 1.375 1_455 S
C28 C29 1.415 . S
C28 C30 1.501 . S
C29 H20 0.931 . S
C29 C25 1.382 . S
C29 C28 1.415 . S
C30 C28 1.501 . S
C30 C31 1.384 1_455 S
C30 C35 1.408 . S
C31 H21 0.931 . S
C31 C30 1.384 1_655 S
C31 C32 1.389 1_655 S
C32 C31 1.389 1_455 S
C32 C33 1.406 . S
C33 H22 0.930 . S
C33 C32 1.406 . S
C33 C34 1.364 . S
C34 C33 1.364 . S
C34 C35 1.400 . S
C35 H23 0.931 . S
C35 C30 1.408 . S
C35 C34 1.400 . S
Li36 N53 1.990 . S
Li36 O96 1.956 . S
Li36 O97 1.970 1_455 S
Li36 O98 1.961 . S
Li37 N61 1.990 . S
Li37 O96 1.970 1_565 S
Li37 O97 1.956 1_465 S
Li37 O99 1.961 . S
Li38 N83 1.990 . S
Li38 O96 1.961 . S
Li38 O98 1.956 . S
Li38 O99 1.970 1_545 S
Li39 N89 1.990 1_545 S
Li39 O97 1.961 . S
Li39 O98 1.970 1_655 S
Li39 O99 1.956 1_645 S
C40 C42 1.348 1_545 S
C40 C43 1.356 . S
C40 O96 1.325 . S
N41 C44 1.314 1_545 S
N41 C45 1.279 . S
C42 C40 1.348 1_565 S
C42 C44 1.353 . S
C42 H100 0.929 . S
C43 C40 1.356 . S
C43 C45 1.358 . S
C43 H101 0.930 . S
C44 N41 1.314 1_565 S
C44 C42 1.353 . S
C44 H102 0.930 . S
C45 N41 1.279 . S
C45 C43 1.358 . S
C45 H103 0.930 . S
C46 C49 1.348 . S
C46 C50 1.356 1_545 S
C46 O97 1.325 . S
C47 N48 1.279 . S
C47 C50 1.358 . S
C47 H104 0.930 . S
N48 C47 1.279 . S
N48 C51 1.314 1_565 S
C49 C46 1.348 . S
C49 C51 1.353 . S
C49 H105 0.929 . S
C50 C46 1.356 1_565 S
C50 C47 1.358 . S
C50 H106 0.930 . S
C51 N48 1.314 1_545 S
C51 C49 1.353 . S
C51 H107 0.930 . S
C52 N53 1.314 1_655 S
C52 C57 1.353 . S
C52 H58 0.930 . S
N53 Li36 1.990 . S
N53 C52 1.314 1_455 S
N53 C55 1.279 . S
C54 C55 1.358 . S
C54 C56 1.356 . S
C54 H108 0.930 . S
C55 N53 1.279 . S
C55 C54 1.358 . S
C55 H59 0.930 . S
C56 C54 1.356 . S
C56 C57 1.348 1_455 S
C57 C52 1.353 . S
C57 C56 1.348 1_655 S
C57 H109 0.929 . S
H58 C52 0.930 . S
H59 C55 0.930 . S
C60 N61 1.314 . S
C60 C62 1.353 . S
C60 H66 0.930 . S
N61 Li37 1.990 . S
N61 C60 1.314 . S
N61 C64 1.279 1_455 S
C62 C60 1.353 . S
C62 C65 1.348 . S
C62 H110 0.929 . S
C63 C64 1.358 . S
C63 C65 1.356 1_655 S
C63 H111 0.930 . S
C64 N61 1.279 1_655 S
C64 C63 1.358 . S
C64 H67 0.930 . S
C65 C62 1.348 . S
C65 C63 1.356 1_455 S
H66 C60 0.930 . S
H67 C64 0.930 . S
C68 C70 1.348 1_455 S
C68 C71 1.356 . S
C68 O98 1.325 . S
N69 C72 1.314 1_455 S
N69 C73 1.279 . S
C70 C68 1.348 1_655 S
C70 C72 1.353 . S
C70 H112 0.929 . S
C71 C68 1.356 . S
C71 C73 1.358 . S
C71 H113 0.930 . S
C72 N69 1.314 1_655 S
C72 C70 1.353 . S
C72 H114 0.930 . S
C73 N69 1.279 . S
C73 C71 1.358 . S
C73 H115 0.930 . S
C74 C75 1.348 . S
C74 C76 1.356 1_455 S
C74 O99 1.325 . S
C75 C74 1.348 . S
C75 C77 1.353 . S
C75 H116 0.929 . S
C76 C74 1.356 1_655 S
C76 C78 1.358 . S
C76 H117 0.930 . S
C77 C75 1.353 . S
C77 N79 1.314 . S
C77 H118 0.930 . S
C78 C76 1.358 . S
C78 N79 1.279 1_655 S
C78 H119 0.930 . S
N79 C77 1.314 . S
N79 C78 1.279 1_455 S
C80 C82 1.353 . S
C80 N83 1.314 1_565 S
C80 H86 0.930 . S
C81 N83 1.279 . S
C81 C84 1.358 . S
C81 H87 0.930 . S
C82 C80 1.353 . S
C82 C85 1.348 1_565 S
C82 H120 0.929 . S
N83 Li38 1.990 . S
N83 C80 1.314 1_545 S
N83 C81 1.279 . S
C84 C81 1.358 . S
C84 C85 1.356 . S
C84 H121 0.930 . S
C85 C82 1.348 1_545 S
C85 C84 1.356 . S
H86 C80 0.930 . S
H87 C81 0.930 . S
C88 N89 1.314 1_545 S
C88 C90 1.353 . S
C88 H94 0.930 . S
N89 Li39 1.990 1_565 S
N89 C88 1.314 1_565 S
N89 C92 1.279 . S
C90 C88 1.353 . S
C90 C93 1.348 . S
C90 H122 0.929 . S
C91 C92 1.358 . S
C91 C93 1.356 1_565 S
C91 H123 0.930 . S
C92 N89 1.279 . S
C92 C91 1.358 . S
C92 H95 0.930 . S
C93 C90 1.348 . S
C93 C91 1.356 1_545 S
H94 C88 0.930 . S
H95 C92 0.930 . S
O96 Li36 1.956 . S
O96 Li37 1.970 1_545 S
O96 Li38 1.961 . S
O96 C40 1.325 . S
O97 Li36 1.970 1_655 S
O97 Li37 1.956 1_645 S
O97 Li39 1.961 . S
O97 C46 1.325 . S
O98 Li36 1.961 . S
O98 Li38 1.956 . S
O98 Li39 1.970 1_455 S
O98 C68 1.325 . S
O99 Li37 1.961 . S
O99 Li38 1.970 1_565 S
O99 Li39 1.956 1_465 S
O99 C74 1.325 . S
H100 C42 0.929 . S
H101 C43 0.930 . S
H102 C44 0.930 . S
H103 C45 0.930 . S
H104 C47 0.930 . S
H105 C49 0.929 . S
H106 C50 0.930 . S
H107 C51 0.930 . S
H108 C54 0.930 . S
H109 C57 0.929 . S
H110 C62 0.929 . S
H111 C63 0.930 . S
H112 C70 0.929 . S
H113 C71 0.930 . S
H114 C72 0.930 . S
H115 C73 0.930 . S
H116 C75 0.929 . S
H117 C76 0.930 . S
H118 C77 0.930 . S
H119 C78 0.930 . S
H120 C82 0.929 . S
H121 C84 0.930 . S
H122 C90 0.929 . S
H123 C91 0.930 . S
Li124 N141 1.990 . S
Li124 O184 1.956 1_655 S
Li124 O185 1.970 1_645 S
Li124 O186 1.961 . S
Li125 N149 1.990 1_545 S
Li125 O184 1.970 . S
Li125 O185 1.956 1_545 S
Li125 O187 1.961 . S
Li126 N171 1.992 . S
Li126 O184 1.961 . S
Li126 O186 1.956 1_455 S
Li126 O187 1.970 . S
Li127 N177 1.990 . S
Li127 O185 1.961 . S
Li127 O186 1.970 1_465 S
Li127 O187 1.956 1_565 S
C128 C130 1.348 . S
C128 C131 1.356 1_455 S
C128 O184 1.325 . S
N129 C132 1.333 . S
N129 C133 1.263 1_455 S
C130 C128 1.348 . S
C130 C132 1.353 . S
C130 H188 0.929 . S
C131 C128 1.356 1_655 S
C131 C133 1.358 . S
C131 H189 0.930 . S
C132 N129 1.333 . S
C132 C130 1.353 . S
C132 H190 0.930 . S
C133 N129 1.263 1_655 S
C133 C131 1.358 . S
C133 H191 0.930 . S
C134 C137 1.348 1_455 S
C134 C138 1.356 . S
C134 O185 1.325 . S
C135 N136 1.279 . S
C135 C138 1.358 . S
C135 H192 0.930 . S
N136 C135 1.279 . S
N136 C139 1.314 1_455 S
C137 C134 1.348 1_655 S
C137 C139 1.353 . S
C137 H193 0.929 . S
C138 C134 1.356 . S
C138 C135 1.358 . S
C138 H194 0.930 . S
C139 N136 1.314 1_655 S
C139 C137 1.353 . S
C139 H195 0.930 . S
C140 N141 1.314 1_565 S
C140 C145 1.353 . S
C140 H146 0.930 . S
N141 Li124 1.990 . S
N141 C140 1.314 1_545 S
N141 C143 1.279 . S
C142 C143 1.358 . S
C142 C144 1.356 . S
C142 H196 0.930 . S
C143 N141 1.279 . S
C143 C142 1.358 . S
C143 H147 0.930 . S
C144 C142 1.356 . S
C144 C145 1.348 1_545 S
C145 C140 1.353 . S
C145 C144 1.348 1_565 S
C145 H197 0.929 . S
H146 C140 0.930 . S
H147 C143 0.930 . S
C148 N149 1.314 1_545 S
C148 C150 1.353 . S
C148 H154 0.930 . S
N149 Li125 1.990 1_565 S
N149 C148 1.314 1_565 S
N149 C152 1.279 . S
C150 C148 1.353 . S
C150 C153 1.348 . S
C150 H198 0.929 . S
C151 C152 1.358 . S
C151 C153 1.356 1_565 S
C151 H199 0.930 . S
C152 N149 1.279 . S
C152 C151 1.358 . S
C152 H155 0.930 . S
C153 C150 1.348 . S
C153 C151 1.356 1_545 S
H154 C148 0.930 . S
H155 C152 0.930 . S
C156 C158 1.348 1_545 S
C156 C159 1.356 . S
C156 O186 1.325 . S
N157 C160 1.314 1_545 S
N157 C161 1.279 . S
C158 C156 1.348 1_565 S
C158 C160 1.353 . S
C158 H200 0.929 . S
C159 C156 1.356 . S
C159 C161 1.358 . S
C159 H201 0.930 . S
C160 N157 1.314 1_565 S
C160 C158 1.353 . S
C160 H202 0.930 . S
C161 N157 1.279 . S
C161 C159 1.358 . S
C161 H203 0.930 . S
C162 C163 1.348 . S
C162 C164 1.356 1_545 S
C162 O187 1.325 . S
C163 C162 1.348 . S
C163 C165 1.353 . S
C163 H204 0.929 . S
C164 C162 1.356 1_565 S
C164 C166 1.358 . S
C164 H205 0.930 . S
C165 C163 1.353 . S
C165 N167 1.314 1_545 S
C165 H206 0.930 . S
C166 C164 1.358 . S
C166 N167 1.279 . S
C166 H207 0.930 . S
N167 C165 1.314 1_565 S
N167 C166 1.279 . S
C168 C170 1.353 . S
C168 N171 1.334 . S
C168 H174 0.930 . S
C169 N171 1.262 1_655 S
C169 C172 1.358 . S
C169 H175 0.930 . S
C170 C168 1.353 . S
C170 C173 1.348 . S
C170 H208 0.929 . S
N171 Li126 1.992 . S
N171 C168 1.334 . S
N171 C169 1.262 1_455 S
C172 C169 1.358 . S
C172 C173 1.356 1_655 S
C172 H209 0.930 . S
C173 C170 1.348 . S
C173 C172 1.356 1_455 S
H174 C168 0.930 . S
H175 C169 0.930 . S
C176 N177 1.314 1_655 S
C176 C178 1.353 . S
C176 H182 0.930 . S
N177 Li127 1.990 . S
N177 C176 1.314 1_455 S
N177 C180 1.279 . S
C178 C176 1.353 . S
C178 C181 1.348 1_655 S
C178 H210 0.929 . S
C179 C180 1.358 . S
C179 C181 1.356 . S
C179 H211 0.930 . S
C180 N177 1.279 . S
C180 C179 1.358 . S
C180 H183 0.930 . S
C181 C178 1.348 1_455 S
C181 C179 1.356 . S
H182 C176 0.930 . S
H183 C180 0.930 . S
O184 Li124 1.956 1_455 S
O184 Li125 1.970 . S
O184 Li126 1.961 . S
O184 C128 1.325 . S
O185 Li124 1.970 1_465 S
O185 Li125 1.956 1_565 S
O185 Li127 1.961 . S
O185 C134 1.325 . S
O186 Li124 1.961 . S
O186 Li126 1.956 1_655 S
O186 Li127 1.970 1_645 S
O186 C156 1.325 . S
O187 Li125 1.961 . S
O187 Li126 1.970 . S
O187 Li127 1.956 1_545 S
O187 C162 1.325 . S
H188 C130 0.929 . S
H189 C131 0.930 . S
H190 C132 0.930 . S
H191 C133 0.930 . S
H192 C135 0.930 . S
H193 C137 0.929 . S
H194 C138 0.930 . S
H195 C139 0.930 . S
H196 C142 0.930 . S
H197 C145 0.929 . S
H198 C150 0.929 . S
H199 C151 0.930 . S
H200 C158 0.929 . S
H201 C159 0.930 . S
H202 C160 0.930 . S
H203 C161 0.930 . S
H204 C163 0.929 . S
H205 C164 0.930 . S
H206 C165 0.930 . S
H207 C166 0.930 . S
H208 C170 0.929 . S
H209 C172 0.930 . S
H210 C178 0.929 . S
H211 C179 0.930 . S
H212 C220 0.929 . S
H213 C222 0.930 . S
H214 C224 0.930 . S
H215 C227 0.929 . S
H216 C230 0.930 . S
H217 C232 0.960 . S
H218 C232 0.960 . S
H219 C232 0.960 . S
C220 H212 0.929 . S
C220 C221 1.377 . S
C220 C222 1.384 . S
C221 C220 1.377 . S
C221 C227 1.390 1_565 S
C222 H213 0.930 . S
C222 C220 1.384 . S
C222 C223 1.372 . S
C223 C222 1.372 . S
C223 C224 1.400 1_565 S
C223 C228 1.490 . S
C224 H214 0.930 . S
C224 C223 1.400 1_545 S
C224 C227 1.386 . S
H225 C241 0.930 . S
H226 C242 0.931 . S
C227 H215 0.929 . S
C227 C221 1.390 1_545 S
C227 C224 1.386 . S
C228 C223 1.490 . S
C228 C230 1.395 . S
C228 C231 1.403 1_565 S
H229 C235 0.930 . S
C230 H216 0.930 . S
C230 C228 1.395 . S
C230 C233 1.403 . S
C231 C228 1.403 1_545 S
C231 C232 1.524 . S
C231 C235 1.400 . S
C232 H217 0.960 . S
C232 H218 0.960 . S
C232 H219 0.960 . S
C232 C231 1.524 . S
C233 C230 1.403 . S
C233 C234 1.392 . S
C233 C237 1.495 . S
C234 C233 1.392 . S
C234 C235 1.385 1_565 S
C234 C236 1.478 . S
C235 H229 0.930 . S
C235 C231 1.400 . S
C235 C234 1.385 1_545 S
C236 C234 1.478 . S
C236 C238 1.381 . S
C236 C242 1.383 1_565 S
C237 C233 1.495 . S
C237 H243 0.959 . S
C237 H244 0.961 . S
C237 H245 0.960 . S
C238 C236 1.381 . S
C238 C239 1.394 . S
C238 H246 0.930 . S
C239 C238 1.394 . S
C239 C240 1.367 1_565 S
C239 H247 0.929 . S
C240 C239 1.367 1_545 S
C240 C241 1.392 . S
C241 H225 0.930 . S
C241 C240 1.392 . S
C241 C242 1.379 . S
C242 H226 0.931 . S
C242 C236 1.383 1_545 S
C242 C241 1.379 . S
H243 C237 0.959 . S
H244 C237 0.961 . S
H245 C237 0.960 . S
H246 C238 0.930 . S
H247 C239 0.929 . S
H248 C256 0.929 . S
H249 C258 0.930 . S
H250 C260 0.930 . S
H251 C263 0.929 . S
H252 C266 0.931 . S
H253 C268 0.960 . S
H254 C268 0.960 . S
H255 C268 0.960 . S
C256 H248 0.929 . S
C256 C257 1.377 . S
C256 C258 1.384 . S
C257 C256 1.377 . S
C257 C263 1.390 1_455 S
C258 H249 0.930 . S
C258 C256 1.384 . S
C258 C259 1.372 . S
C259 C258 1.372 . S
C259 C260 1.400 1_455 S
C259 C264 1.490 . S
C260 H250 0.930 . S
C260 C259 1.400 1_655 S
C260 C263 1.386 . S
H261 C277 0.930 . S
H262 C278 0.931 . S
C263 H251 0.929 . S
C263 C257 1.390 1_655 S
C263 C260 1.386 . S
C264 C259 1.490 . S
C264 C266 1.393 1_455 S
C264 C267 1.403 . S
H265 C271 0.930 . S
C266 H252 0.931 . S
C266 C264 1.393 1_655 S
C266 C269 1.404 . S
C267 C264 1.403 . S
C267 C268 1.524 . S
C267 C271 1.400 . S
C268 H253 0.960 . S
C268 H254 0.960 . S
C268 H255 0.960 . S
C268 C267 1.524 . S
C269 C266 1.404 . S
C269 C270 1.392 1_655 S
C269 C273 1.495 . S
C270 C269 1.392 1_455 S
C270 C271 1.385 . S
C270 C272 1.478 . S
C271 H265 0.930 . S
C271 C267 1.400 . S
C271 C270 1.385 . S
C272 C270 1.478 . S
C272 C274 1.381 . S
C272 C278 1.383 1_455 S
C273 C269 1.495 . S
C273 H279 0.959 . S
C273 H280 0.961 . S
C273 H281 0.960 1_655 S
C274 C272 1.381 . S
C274 C275 1.394 . S
C274 H282 0.930 . S
C275 C274 1.394 . S
C275 C276 1.383 . S
C275 H283 0.929 . S
C276 C275 1.383 . S
C276 C277 1.377 1_455 S
C277 H261 0.930 . S
C277 C276 1.377 1_655 S
C277 C278 1.379 . S
C278 H262 0.931 . S
C278 C272 1.383 1_655 S
C278 C277 1.379 . S
H279 C273 0.959 . S
H280 C273 0.961 . S
H281 C273 0.960 1_455 S
H282 C274 0.930 . S
H283 C275 0.929 . S
H284 C292 0.929 . S
H285 C294 0.930 . S
H286 C296 0.930 . S
H287 C299 0.929 . S
H288 C302 0.930 . S
H289 C304 0.960 . S
H290 C304 0.960 . S
H291 C304 0.960 . S
C292 H284 0.929 . S
C292 C293 1.377 . S
C292 C294 1.384 . S
C293 C292 1.377 . S
C293 C299 1.390 1_545 S
C294 H285 0.930 . S
C294 C292 1.384 . S
C294 C295 1.372 . S
C295 C294 1.372 . S
C295 C296 1.400 1_545 S
C295 C300 1.490 . S
C296 H286 0.930 . S
C296 C295 1.400 1_565 S
C296 C299 1.386 . S
H297 C313 0.930 . S
H298 C314 0.931 . S
C299 H287 0.929 . S
C299 C293 1.390 1_565 S
C299 C296 1.386 . S
C300 C295 1.490 . S
C300 C302 1.395 . S
C300 C303 1.403 1_545 S
H301 C307 0.930 . S
C302 H288 0.930 . S
C302 C300 1.395 . S
C302 C305 1.403 . S
C303 C300 1.403 1_565 S
C303 C304 1.524 . S
C303 C307 1.400 . S
C304 H289 0.960 . S
C304 H290 0.960 . S
C304 H291 0.960 . S
C304 C303 1.524 . S
C305 C302 1.403 . S
C305 C306 1.392 . S
C305 C309 1.495 . S
C306 C305 1.392 . S
C306 C307 1.385 1_545 S
C306 C308 1.478 . S
C307 H301 0.930 . S
C307 C303 1.400 . S
C307 C306 1.385 1_565 S
C308 C306 1.478 . S
C308 C310 1.381 . S
C308 C314 1.383 1_545 S
C309 C305 1.495 . S
C309 H315 0.959 . S
C309 H316 0.961 . S
C309 H317 0.960 . S
C310 C308 1.381 . S
C310 C311 1.394 . S
C310 H318 0.930 . S
C311 C310 1.394 . S
C311 C312 1.383 . S
C311 H319 0.929 . S
C312 C311 1.383 . S
C312 C313 1.377 1_545 S
C313 H297 0.930 . S
C313 C312 1.377 1_565 S
C313 C314 1.379 . S
C314 H298 0.931 . S
C314 C308 1.383 1_565 S
C314 C313 1.379 . S
H315 C309 0.959 . S
H316 C309 0.961 . S
H317 C309 0.960 . S
H318 C310 0.930 . S
H319 C311 0.929 . S
H320 C328 0.929 . S
H321 C330 0.930 . S
H322 C332 0.930 . S
H323 C335 0.929 . S
H324 C338 0.930 . S
H325 C340 0.960 . S
H326 C340 0.960 . S
H327 C340 0.960 . S
C328 H320 0.929 . S
C328 C329 1.385 . S
C328 C330 1.384 . S
C329 C328 1.385 . S
C329 C335 1.382 1_455 S
C330 H321 0.930 . S
C330 C328 1.384 . S
C330 C331 1.372 . S
C331 C330 1.372 . S
C331 C332 1.400 1_455 S
C331 C336 1.490 . S
C332 H322 0.930 . S
C332 C331 1.400 1_655 S
C332 C335 1.386 . S
H333 C349 0.930 . S
H334 C350 0.931 . S
C335 H323 0.929 . S
C335 C329 1.382 1_655 S
C335 C332 1.386 . S
C336 C331 1.490 . S
C336 C338 1.395 . S
C336 C339 1.403 1_455 S
H337 C343 0.930 . S
C338 H324 0.930 . S
C338 C336 1.395 . S
C338 C341 1.403 . S
C339 C336 1.403 1_655 S
C339 C340 1.524 . S
C339 C343 1.400 . S
C340 H325 0.960 . S
C340 H326 0.960 . S
C340 H327 0.960 . S
C340 C339 1.524 . S
C341 C338 1.403 . S
C341 C342 1.392 . S
C341 C345 1.495 . S
C342 C341 1.392 . S
C342 C343 1.385 1_455 S
C342 C344 1.478 . S
C343 H337 0.930 . S
C343 C339 1.400 . S
C343 C342 1.385 1_655 S
C344 C342 1.478 . S
C344 C346 1.381 . S
C344 C350 1.383 1_455 S
C345 C341 1.495 . S
C345 H351 0.959 . S
C345 H352 0.961 . S
C345 H353 0.960 . S
C346 C344 1.381 . S
C346 C347 1.394 . S
C346 H354 0.930 . S
C347 C346 1.394 . S
C347 C348 1.383 . S
C347 H355 0.929 . S
C348 C347 1.383 . S
C348 C349 1.377 1_455 S
C349 H333 0.930 . S
C349 C348 1.377 1_655 S
C349 C350 1.379 . S
C350 H334 0.931 . S
C350 C344 1.383 1_655 S
C350 C349 1.379 . S
H351 C345 0.959 . S
H352 C345 0.961 . S
H353 C345 0.960 . S
H354 C346 0.930 . S
H355 C347 0.929 . S
H356 C364 0.929 . S
H357 C366 0.930 . S
H358 C368 0.930 . S
H359 C371 0.929 . S
H360 C374 0.930 . S
H361 C376 0.960 . S
H362 C376 0.960 . S
H363 C376 0.960 . S
C364 H356 0.929 . S
C364 C365 1.377 1_565 S
C364 C366 1.384 . S
C365 C364 1.377 1_545 S
C365 C371 1.390 . S
C366 H357 0.930 . S
C366 C364 1.384 . S
C366 C367 1.372 1_565 S
C367 C366 1.372 1_545 S
C367 C368 1.400 . S
C367 C372 1.490 . S
C368 H358 0.930 . S
C368 C367 1.400 . S
C368 C371 1.386 . S
H369 C385 0.930 . S
H370 C386 0.931 . S
C371 H359 0.929 . S
C371 C365 1.390 . S
C371 C368 1.386 . S
C372 C367 1.490 . S
C372 C374 1.395 1_545 S
C372 C375 1.403 . S
H373 C379 0.930 . S
C374 H360 0.930 . S
C374 C372 1.395 1_565 S
C374 C377 1.403 . S
C375 C372 1.403 . S
C375 C376 1.524 . S
C375 C379 1.400 . S
C376 H361 0.960 . S
C376 H362 0.960 . S
C376 H363 0.960 . S
C376 C375 1.524 . S
C377 C374 1.403 . S
C377 C378 1.392 1_565 S
C377 C381 1.495 . S
C378 C377 1.392 1_545 S
C378 C379 1.385 . S
C378 C380 1.478 . S
C379 H373 0.930 . S
C379 C375 1.400 . S
C379 C378 1.385 . S
C380 C378 1.478 . S
C380 C382 1.381 1_545 S
C380 C386 1.383 . S
C381 C377 1.495 . S
C381 H387 0.959 . S
C381 H388 0.961 . S
C381 H389 0.960 . S
C382 C380 1.381 1_565 S
C382 C383 1.394 . S
C382 H390 0.930 . S
C383 C382 1.394 . S
C383 C384 1.383 1_565 S
C383 H391 0.929 . S
C384 C383 1.383 1_545 S
C384 C385 1.377 . S
C385 H369 0.930 . S
C385 C384 1.377 . S
C385 C386 1.379 . S
C386 H370 0.931 . S
C386 C380 1.383 . S
C386 C385 1.379 . S
H387 C381 0.959 . S
H388 C381 0.961 . S
H389 C381 0.960 . S
H390 C382 0.930 . S
H391 C383 0.929 . S
H392 C400 0.929 . S
H393 C402 0.930 . S
H394 C404 0.930 . S
H395 C407 0.929 . S
H396 C410 0.930 . S
H397 C412 0.960 . S
H398 C412 0.960 . S
H399 C412 0.960 . S
C400 H392 0.929 . S
C400 C401 1.367 1_655 S
C400 C402 1.384 . S
C401 C400 1.367 1_455 S
C401 C407 1.400 . S
C402 H393 0.930 . S
C402 C400 1.384 . S
C402 C403 1.374 . S
C403 C402 1.374 . S
C403 C404 1.397 1_655 S
C403 C408 1.490 . S
C404 H394 0.930 . S
C404 C403 1.397 1_455 S
C404 C407 1.386 . S
H405 C421 0.930 . S
H406 C422 0.931 . S
C407 H395 0.929 . S
C407 C401 1.400 . S
C407 C404 1.386 . S
C408 C403 1.490 . S
C408 C410 1.411 . S
C408 C411 1.387 1_655 S
H409 C415 0.930 . S
C410 H396 0.930 . S
C410 C408 1.411 . S
C410 C413 1.403 . S
C411 C408 1.387 1_455 S
C411 C412 1.524 . S
C411 C415 1.400 . S
C412 H397 0.960 . S
C412 H398 0.960 . S
C412 H399 0.960 . S
C412 C411 1.524 . S
C413 C410 1.403 . S
C413 C414 1.392 . S
C413 C417 1.495 . S
C414 C413 1.392 . S
C414 C415 1.385 1_655 S
C414 C416 1.478 . S
C415 H409 0.930 . S
C415 C411 1.400 . S
C415 C414 1.385 1_455 S
C416 C414 1.478 . S
C416 C418 1.381 . S
C416 C422 1.383 1_655 S
C417 C413 1.495 . S
C417 H423 0.959 . S
C417 H424 0.961 . S
C417 H425 0.960 . S
C418 C416 1.381 . S
C418 C419 1.394 . S
C418 H426 0.930 . S
C419 C418 1.394 . S
C419 C420 1.383 1_655 S
C419 H427 0.929 . S
C420 C419 1.383 1_455 S
C420 C421 1.377 . S
C421 H405 0.930 . S
C421 C420 1.377 . S
C421 C422 1.379 . S
C422 H406 0.931 . S
C422 C416 1.383 1_455 S
C422 C421 1.379 . S
H423 C417 0.959 . S
H424 C417 0.961 . S
H425 C417 0.960 . S
H426 C418 0.930 . S
H427 C419 0.929 . S
H428 C436 0.929 . S
H429 C438 0.930 . S
H430 C440 0.930 . S
H431 C443 0.929 . S
H432 C446 0.930 . S
H433 C448 0.960 . S
H434 C448 0.960 . S
H435 C448 0.960 1_565 S
C436 H428 0.929 . S
C436 C437 1.377 1_545 S
C436 C438 1.384 . S
C437 C436 1.377 1_565 S
C437 C443 1.390 . S
C438 H429 0.930 . S
C438 C436 1.384 . S
C438 C439 1.387 . S
C439 C438 1.387 . S
C439 C440 1.384 1_545 S
C439 C444 1.490 . S
C440 H430 0.930 . S
C440 C439 1.384 1_565 S
C440 C443 1.386 . S
H441 C457 0.930 . S
H442 C458 0.931 . S
C443 H431 0.929 . S
C443 C437 1.390 . S
C443 C440 1.386 . S
C444 C439 1.490 . S
C444 C446 1.389 1_545 S
C444 C447 1.409 . S
H445 C451 0.930 . S
C446 H432 0.930 . S
C446 C444 1.389 1_565 S
C446 C449 1.403 . S
C447 C444 1.409 . S
C447 C448 1.524 . S
C447 C451 1.400 . S
C448 H433 0.960 . S
C448 H434 0.960 . S
C448 H435 0.960 1_545 S
C448 C447 1.524 . S
C449 C446 1.403 . S
C449 C450 1.392 . S
C449 C453 1.495 . S
C450 C449 1.392 . S
C450 C451 1.386 1_565 S
C450 C452 1.477 . S
C451 H445 0.930 . S
C451 C447 1.400 . S
C451 C450 1.386 1_545 S
C452 C450 1.477 . S
C452 C454 1.370 1_565 S
C452 C458 1.393 . S
C453 C449 1.495 . S
C453 H459 0.959 . S
C453 H460 0.961 . S
C453 H461 0.960 1_565 S
C454 C452 1.370 1_545 S
C454 C455 1.394 . S
C454 H462 0.930 . S
C455 C454 1.394 . S
C455 C456 1.406 . S
C455 H463 0.929 . S
C456 C455 1.406 . S
C456 C457 1.354 1_545 S
C457 H441 0.930 . S
C457 C456 1.354 1_565 S
C457 C458 1.379 . S
C458 H442 0.931 . S
C458 C452 1.393 . S
C458 C457 1.379 . S
H459 C453 0.959 . S
H460 C453 0.961 . S
H461 C453 0.960 1_545 S
H462 C454 0.930 . S
H463 C455 0.929 . S
H464 C472 0.929 . S
H465 C474 0.930 . S
H466 C476 0.930 . S
H467 C479 0.929 . S
H468 C482 0.930 . S
H469 C484 0.960 . S
H470 C484 0.960 . S
H471 C484 0.960 . S
C472 H464 0.929 . S
C472 C473 1.377 . S
C472 C474 1.384 . S
C473 C472 1.377 . S
C473 C479 1.390 1_455 S
C474 H465 0.930 . S
C474 C472 1.384 . S
C474 C475 1.372 . S
C475 C474 1.372 . S
C475 C476 1.400 1_455 S
C475 C480 1.490 . S
C476 H466 0.930 . S
C476 C475 1.400 1_655 S
C476 C479 1.386 . S
H477 C493 0.930 . S
H478 C494 0.931 . S
C479 H467 0.929 . S
C479 C473 1.390 1_655 S
C479 C476 1.386 . S
C480 C475 1.490 . S
C480 C482 1.395 . S
C480 C483 1.403 1_455 S
H481 C487 0.930 . S
C482 H468 0.930 . S
C482 C480 1.395 . S
C482 C485 1.403 . S
C483 C480 1.403 1_655 S
C483 C484 1.524 . S
C483 C487 1.400 . S
C484 H469 0.960 . S
C484 H470 0.960 . S
C484 H471 0.960 . S
C484 C483 1.524 . S
C485 C482 1.403 . S
C485 C486 1.392 . S
C485 C489 1.495 . S
C486 C485 1.392 . S
C486 C487 1.385 1_455 S
C486 C488 1.478 . S
C487 H481 0.930 . S
C487 C483 1.400 . S
C487 C486 1.385 1_655 S
C488 C486 1.478 . S
C488 C490 1.381 . S
C488 C494 1.383 1_455 S
C489 C485 1.495 . S
C489 H495 0.959 . S
C489 H496 0.961 . S
C489 H497 0.960 . S
C490 C488 1.381 . S
C490 C491 1.394 . S
C490 H498 0.930 . S
C491 C490 1.394 . S
C491 C492 1.383 . S
C491 H499 0.929 . S
C492 C491 1.383 . S
C492 C493 1.377 1_455 S
C493 H477 0.930 . S
C493 C492 1.377 1_655 S
C493 C494 1.379 . S
C494 H478 0.931 . S
C494 C488 1.383 1_655 S
C494 C493 1.379 . S
H495 C489 0.959 . S
H496 C489 0.961 . S
H497 C489 0.960 . S
H498 C490 0.930 . S
H499 C491 0.929 . S
C240 C85 1.556 . S
C221 C7 1.504 . S
C276 C173 1.550 . S
C257 C34 1.505 . S
C312 C93 1.558 . S
C293 C14 1.511 . S
C348 C181 1.550 . S
C329 C26 1.511 . S
C384 C153 1.553 . S
C365 C8 1.509 . S
C420 C56 1.559 . S
C401 C32 1.510 . S
C456 C144 1.559 . S
C437 C16 1.502 1_565 S
C473 C25 1.502 . S
C492 C65 1.558 . S
