# Generated by pormake.
# Topology zzz, (3,6)-cn, num edge types: 1
# Building blocks:
#     Node 0, Type 0, BuildingBlock: ESEHIV_clean_linker_0, # of connection points: 3
#     Node 1, Type 0, BuildingBlock: ESEHIV_clean_linker_0, # of connection points: 3
#     Node 2, Type 0, BuildingBlock: ESEHIV_clean_linker_0, # of connection points: 3
#     Node 3, Type 0, BuildingBlock: ESEHIV_clean_linker_0, # of connection points: 3
#     Node 4, Type 0, BuildingBlock: ESEHIV_clean_linker_0, # of connection points: 3
#     Node 5, Type 0, BuildingBlock: ESEHIV_clean_linker_0, # of connection points: 3
#     Node 6, Type 0, BuildingBlock: ESEHIV_clean_linker_0, # of connection points: 3
#     Node 7, Type 0, BuildingBlock: ESEHIV_clean_linker_0, # of connection points: 3
#     Node 8, Type 1, BuildingBlock: FUNLAD_clean_sbu_0, # of connection points: 6
#     Node 9, Type 1, BuildingBlock: FUNLAD_clean_sbu_0, # of connection points: 6
#     Node 10, Type 1, BuildingBlock: FUNLAD_clean_sbu_0, # of connection points: 6
#     Node 11, Type 1, BuildingBlock: FUNLAD_clean_sbu_0, # of connection points: 6
#     Edge 12, Type (0, 1), BuildingBlock: KIFKEQ_clean_linker_1, # of connection points: 2
#     Edge 13, Type (0, 1), BuildingBlock: KIFKEQ_clean_linker_1, # of connection points: 2
#     Edge 14, Type (0, 1), BuildingBlock: KIFKEQ_clean_linker_1, # of connection points: 2
#     Edge 15, Type (0, 1), BuildingBlock: KIFKEQ_clean_linker_1, # of connection points: 2
#     Edge 16, Type (0, 1), BuildingBlock: KIFKEQ_clean_linker_1, # of connection points: 2
#     Edge 17, Type (0, 1), BuildingBlock: KIFKEQ_clean_linker_1, # of connection points: 2
#     Edge 18, Type (0, 1), BuildingBlock: KIFKEQ_clean_linker_1, # of connection points: 2
#     Edge 19, Type (0, 1), BuildingBlock: KIFKEQ_clean_linker_1, # of connection points: 2
#     Edge 20, Type (0, 1), BuildingBlock: KIFKEQ_clean_linker_1, # of connection points: 2
#     Edge 21, Type (0, 1), BuildingBlock: KIFKEQ_clean_linker_1, # of connection points: 2
#     Edge 22, Type (0, 1), BuildingBlock: KIFKEQ_clean_linker_1, # of connection points: 2
#     Edge 23, Type (0, 1), BuildingBlock: KIFKEQ_clean_linker_1, # of connection points: 2
#     Edge 24, Type (0, 1), BuildingBlock: KIFKEQ_clean_linker_1, # of connection points: 2
#     Edge 25, Type (0, 1), BuildingBlock: KIFKEQ_clean_linker_1, # of connection points: 2
#     Edge 26, Type (0, 1), BuildingBlock: KIFKEQ_clean_linker_1, # of connection points: 2
#     Edge 27, Type (0, 1), BuildingBlock: KIFKEQ_clean_linker_1, # of connection points: 2
#     Edge 28, Type (0, 1), BuildingBlock: KIFKEQ_clean_linker_1, # of connection points: 2
#     Edge 29, Type (0, 1), BuildingBlock: KIFKEQ_clean_linker_1, # of connection points: 2
#     Edge 30, Type (0, 1), BuildingBlock: KIFKEQ_clean_linker_1, # of connection points: 2
#     Edge 31, Type (0, 1), BuildingBlock: KIFKEQ_clean_linker_1, # of connection points: 2
#     Edge 32, Type (0, 1), BuildingBlock: KIFKEQ_clean_linker_1, # of connection points: 2
#     Edge 33, Type (0, 1), BuildingBlock: KIFKEQ_clean_linker_1, # of connection points: 2
#     Edge 34, Type (0, 1), BuildingBlock: KIFKEQ_clean_linker_1, # of connection points: 2
#     Edge 35, Type (0, 1), BuildingBlock: KIFKEQ_clean_linker_1, # of connection points: 2
# Relax obj value: 0.268
# Max RMSD: 0.235
# Mean RMSD: 0.193
data_MOF--net-zzz--node1-FUNLAD_clean_sbu_0--node2-ESEHIV_clean_linker_0--edge1-KIFKEQ_clean_linker_1
_symmetry_space_group_name_H-M    P1
_symmetry_Int_Tables_number       1
_symmetry_cell_setting            triclinic
loop_
_symmetry_equiv_pos_as_xyz
'x, y, z'
_cell_length_a     45.521471
_cell_length_b     50.927629
_cell_length_c     17.905131
_cell_angle_alpha  85.84617
_cell_angle_beta   85.454948
_cell_angle_gamma 92.342957
loop_
_atom_site_label
_atom_site_type_symbol
_atom_site_fract_x
_atom_site_fract_y
_atom_site_fract_z
_atom_type_partial_charge
H0 H 0.85242 0.41461 0.33652 0.0
H1 H 0.81217 0.42475 0.12747 0.0
H2 H 0.77431 0.45844 0.32383 0.0
C3 C 0.83497 0.42177 0.30389 0.0
C4 C 0.81354 0.43694 0.33852 0.0
C5 C 0.83589 0.41829 0.22664 0.0
C6 C 0.81232 0.4273 0.18684 0.0
C7 C 0.78941 0.44094 0.22185 0.0
C8 C 0.79058 0.44631 0.29758 0.0
H9 H 0.9602 0.82346 0.24055 0.0
H10 H 0.98389 0.77375 0.0637 0.0
H11 H 0.93239 0.74161 0.26482 0.0
C12 C 0.95912 0.80448 0.21681 0.0
C13 C 0.94382 0.78323 0.25872 0.0
C14 C 0.97385 0.80135 0.14667 0.0
C15 C 0.97316 0.77631 0.11874 0.0
C16 C 0.95832 0.75457 0.16077 0.0
C17 C 0.94347 0.75818 0.2311 0.0
H18 H 0.69704 0.02955 0.19652 0.0
H19 H 0.76906 0.03224 0.02618 0.0
H20 H 0.78177 0.00346 0.25373 0.0
C21 C 0.72014 0.0268 0.18039 0.0
C22 C 0.738 0.01642 0.23441 0.0
C23 C 0.73099 0.03234 0.10547 0.0
C24 C 0.76057 0.02801 0.08433 0.0
C25 C 0.77919 0.01782 0.13724 0.0
C26 C 0.76769 0.0115 0.21258 0.0
H27 H 0.55426 0.64403 0.23603 0.0
H28 H 0.56935 0.72585 0.27299 0.0
H29 H 0.52741 0.70357 0.07746 0.0
C30 C 0.55321 0.6647 0.2174 0.0
C31 C 0.5399 0.67154 0.15146 0.0
C32 C 0.56397 0.684 0.26156 0.0
C33 C 0.56139 0.71079 0.23884 0.0
C34 C 0.54809 0.71797 0.17223 0.0
C35 C 0.53722 0.6982 0.12934 0.0
H36 H 0.16856 0.56029 0.16432 0.0
H37 H 0.23073 0.57586 0.32626 0.0
H38 H 0.25783 0.53777 0.12655 0.0
C39 C 0.1908 0.56042 0.18191 0.0
C40 C 0.21274 0.54937 0.13648 0.0
C41 C 0.19679 0.56984 0.25112 0.0
C42 C 0.22571 0.56871 0.27301 0.0
C43 C 0.24782 0.55683 0.22943 0.0
C44 C 0.24117 0.54714 0.16065 0.0
H45 H 0.08107 0.17374 0.21334 0.0
H46 H 0.05413 0.22343 0.38762 0.0
H47 H 0.105 0.25644 0.18662 0.0
C48 C 0.08117 0.19285 0.23642 0.0
C49 C 0.09565 0.21443 0.19404 0.0
C50 C 0.0659 0.19581 0.30601 0.0
C51 C 0.06527 0.22096 0.33299 0.0
C52 C 0.07921 0.24301 0.29049 0.0
C53 C 0.09461 0.23962 0.22068 0.0
H54 H 0.34646 0.98025 0.2375 0.0
H55 H 0.27654 0.96433 0.41245 0.0
H56 H 0.25852 0.00194 0.19785 0.0
C57 C 0.32333 0.98055 0.25725 0.0
C58 C 0.30376 0.99163 0.20895 0.0
C59 C 0.31387 0.97053 0.33042 0.0
C60 C 0.28402 0.97182 0.35563 0.0
C61 C 0.26379 0.98325 0.30877 0.0
C62 C 0.2738 0.99323 0.23477 0.0
H63 H 0.50291 0.3507 0.18686 0.0
H64 H 0.48937 0.26831 0.1556 0.0
H65 H 0.52382 0.29297 0.35873 0.0
C66 C 0.50371 0.33023 0.20792 0.0
C67 C 0.51428 0.32415 0.27797 0.0
C68 C 0.49487 0.31033 0.16352 0.0
C69 C 0.49614 0.28377 0.18998 0.0
C70 C 0.50678 0.27736 0.26066 0.0
C71 C 0.51609 0.29771 0.30381 0.0
C72 C 0.04028 0.95903 0.82334 0.0
N73 N 0.98811 0.95531 0.64375 0.0
C74 C 1.00248 0.93275 0.63414 0.0
C75 C 0.98783 0.91077 0.61008 0.0
C76 C 0.95818 0.91205 0.59468 0.0
C77 C 0.94406 0.93582 0.6024 0.0
C78 C 0.95948 0.95731 0.62787 0.0
Zn79 Zn 0.00963 0.98446 0.69347 0.0
C80 C 0.9714 0.00183 0.82581 0.0
N81 N 0.05506 0.04121 0.81068 0.0
C82 C 0.08376 0.03957 0.82625 0.0
C83 C 0.04032 0.06356 0.82063 0.0
C84 C 0.05466 0.0857 0.84465 0.0
C85 C 0.08437 0.08481 0.85968 0.0
C86 C 0.09887 0.06125 0.85173 0.0
Zn87 Zn 0.03371 0.01194 0.76085 0.0
O88 O 0.0247 0.95548 0.76894 0.0
C89 C 0.07194 0.9946 0.62848 0.0
O90 O 0.04846 0.98229 0.8364 0.0
H91 H 0.01751 0.06448 0.8082 0.0
H92 H 0.02524 0.93155 0.64684 0.0
H93 H 0.0951 0.02167 0.81732 0.0
O94 O 0.04832 0.98149 0.61872 0.0
O95 O 0.07217 0.00891 0.68394 0.0
H96 H 0.94842 0.97537 0.63655 0.0
O97 O 0.01836 0.04095 0.68571 0.0
O98 O 0.99513 0.01402 0.61755 0.0
O99 O 0.99514 0.01465 0.8361 0.0
O100 O 0.97105 0.98777 0.76984 0.0
C101 C 1.003 0.03732 0.63093 0.0
H102 H 0.99966 0.89296 0.60311 0.0
H103 H 0.92123 0.93754 0.59051 0.0
H104 H 0.04254 0.10335 0.85181 0.0
H105 H 0.12176 0.05983 0.86339 0.0
C106 C 0.48532 0.97479 0.62608 0.0
N107 N 0.51398 0.05372 0.63879 0.0
C108 C 0.51943 0.05423 0.56282 0.0
C109 C 0.51776 0.07757 0.51797 0.0
C110 C 0.51015 0.10072 0.55124 0.0
C111 C 0.50405 0.09962 0.62968 0.0
C112 C 0.50625 0.07578 0.67271 0.0
Zn113 Zn 0.51825 0.01835 0.6987 0.0
C114 C 0.46937 0.00416 0.81582 0.0
N115 N 0.5276 0.942 0.80722 0.0
C116 C 0.53508 0.92002 0.77254 0.0
C117 C 0.52334 0.94147 0.88344 0.0
C118 C 0.52625 0.91823 0.92787 0.0
C119 C 0.53385 0.89522 0.89384 0.0
C120 C 0.53845 0.89631 0.81505 0.0
Zn121 Zn 0.52282 0.97729 0.74757 0.0
O122 O 0.49224 -0.00066 0.62266 0.0
C123 C 0.57189 0.99186 0.63142 0.0
O124 O 0.49549 0.95933 0.67548 0.0
H125 H 0.51772 0.95918 0.91011 0.0
H126 H 0.52525 0.03646 0.53672 0.0
H127 H 0.53839 0.92087 0.71191 0.0
O128 O 0.55799 0.01299 0.63132 0.0
O129 O 0.56168 0.97181 0.67358 0.0
H130 H 0.502 0.07495 0.73315 0.0
O131 O 0.54996 0.99581 0.81955 0.0
O132 O 0.54459 0.03645 0.7748 0.0
O133 O 0.48406 0.98342 0.81912 0.0
O134 O 0.47863 0.02335 0.76917 0.0
C135 C 0.55613 0.02034 0.82021 0.0
H136 H 0.52222 0.07746 0.45766 0.0
H137 H 0.49828 0.11709 0.65755 0.0
H138 H 0.5229 0.91837 0.98841 0.0
H139 H 0.54411 0.87894 0.78656 0.0
C140 C 0.54331 0.47074 0.60269 0.0
N141 N 0.46348 0.50815 0.63219 0.0
C142 C 0.46953 0.51483 0.55738 0.0
C143 C 0.44682 0.51932 0.51096 0.0
C144 C 0.41742 0.51709 0.5415 0.0
C145 C 0.41168 0.51032 0.61903 0.0
C146 C 0.43518 0.50582 0.6636 0.0
Zn147 Zn 0.49907 0.50205 0.69369 0.0
C148 C 0.49579 0.45205 0.7855 0.0
N149 N 0.5782 0.48981 0.80189 0.0
C150 C 0.60645 0.49418 0.7712 0.0
C151 C 0.57233 0.48162 0.87582 0.0
C152 C 0.59519 0.47737 0.92191 0.0
C153 C 0.62458 0.48162 0.89205 0.0
C154 C 0.63012 0.49025 0.8156 0.0
Zn155 Zn 0.54249 0.49574 0.74078 0.0
O156 O 0.5179 0.48025 0.60714 0.0
C157 C 0.54542 0.54593 0.6487 0.0
O158 O 0.56064 0.47436 0.65356 0.0
H159 H 0.54976 0.47848 0.89949 0.0
H160 H 0.49213 0.51682 0.53339 0.0
H161 H 0.61063 0.50072 0.71234 0.0
O162 O 0.51925 0.53732 0.64217 0.0
O163 O 0.56222 0.53207 0.68737 0.0
H164 H 0.43086 0.50049 0.72315 0.0
O165 O 0.52348 0.51687 0.82822 0.0
O166 O 0.48126 0.52402 0.78044 0.0
O167 O 0.52233 0.45985 0.79109 0.0
O168 O 0.47904 0.46636 0.7481 0.0
C169 C 0.49837 0.52692 0.83222 0.0
H170 H 0.45231 0.52494 0.45184 0.0
H171 H 0.38928 0.50826 0.64476 0.0
H172 H 0.58986 0.47116 0.98073 0.0
H173 H 0.65248 0.49358 0.7902 0.0
C174 C 0.03354 0.53216 0.6143 0.0
N175 N 0.03691 0.44994 0.64257 0.0
C176 C 0.03194 0.45182 0.56848 0.0
C177 C 0.04012 0.43195 0.52271 0.0
C178 C 0.05321 0.40959 0.55338 0.0
C179 C 0.05879 0.40841 0.6297 0.0
C180 C 0.05045 0.42896 0.67351 0.0
Zn181 Zn 0.02175 0.4793 0.70527 0.0
C182 C 0.06584 0.50309 0.79319 0.0
N183 N 0.98818 0.54359 0.81973 0.0
C184 C 0.97504 0.56468 0.7881 0.0
C185 C 0.99338 0.54201 0.89368 0.0
C186 C 0.98607 0.56241 0.93839 0.0
C187 C 0.97365 0.58497 0.90674 0.0
C188 C 0.96758 0.58574 0.83081 0.0
Zn189 Zn 1.00322 0.51412 0.75729 0.0
O190 O 0.03724 0.50753 0.61616 0.0
C191 C 0.95907 0.48996 0.67015 0.0
O192 O 0.01916 0.5417 0.66875 0.0
H193 H 1.00396 0.52517 0.91785 0.0
H194 H 0.02107 0.46858 0.54484 0.0
H195 H 0.97114 0.56553 0.72918 0.0
O196 O 0.98066 0.47523 0.65977 0.0
O197 O 0.96185 0.50955 0.7097 0.0
H198 H 0.05418 0.42787 0.73255 0.0
O199 O 0.98804 0.48623 0.84576 0.0
O200 O 1.00577 0.4516 0.795 0.0
O201 O 0.0445 0.51815 0.80313 0.0
O202 O 0.06289 0.48364 0.75324 0.0
C203 C 0.99168 0.4616 0.8492 0.0
H204 H 0.03585 0.43397 0.46397 0.0
H205 H 0.06855 0.39142 0.65594 0.0
H206 H 0.99066 0.56072 0.99693 0.0
H207 H 0.95828 0.60285 0.80385 0.0
H208 H 0.23184 0.02747 0.32074 0.0
H209 H 0.2262 0.94328 0.37158 0.0
H210 H 0.18412 0.03098 0.39282 0.0
H211 H 0.17866 0.94664 0.443 0.0
H212 H 0.08223 0.96029 0.519 0.0
H213 H 0.12633 0.95823 0.43268 0.0
H214 H 0.16645 0.02446 0.53031 0.0
H215 H 0.12243 0.02649 0.61688 0.0
C216 C 0.22005 0.00967 0.34577 0.0
C217 C 0.23267 0.98509 0.34024 0.0
C218 C 0.1929 0.01169 0.38779 0.0
C219 C 0.17759 0.9891 0.42421 0.0
C220 C 0.18966 0.96441 0.41541 0.0
C221 C 0.21692 0.96247 0.3745 0.0
C222 C 0.10041 0.97446 0.52203 0.0
C223 C 0.09875 0.99348 0.57532 0.0
C224 C 0.12574 0.97324 0.47257 0.0
C225 C 0.14997 0.99122 0.47428 0.0
C226 C 0.14811 0.0105 0.52674 0.0
C227 C 0.12293 0.01152 0.57687 0.0
H228 H 0.46217 0.23928 0.27625 0.0
H229 H 0.55343 0.2534 0.31697 0.0
H230 H 0.46236 0.19541 0.34272 0.0
H231 H 0.5537 0.20978 0.38312 0.0
H232 H 0.55042 0.1207 0.43844 0.0
H233 H 0.54919 0.16186 0.36015 0.0
H234 H 0.46674 0.17886 0.47915 0.0
H235 H 0.46782 0.13743 0.55724 0.0
C236 C 0.48237 0.23278 0.29823 0.0
C237 C 0.50778 0.24965 0.29159 0.0
C238 C 0.48241 0.20785 0.33687 0.0
C239 C 0.508 0.19924 0.36844 0.0
C240 C 0.53371 0.21578 0.35903 0.0
C241 C 0.53354 0.24076 0.32141 0.0
C242 C 0.5319 0.13312 0.4475 0.0
C243 C 0.50921 0.12585 0.50404 0.0
C244 C 0.53129 0.15674 0.40295 0.0
C245 C 0.50784 0.17355 0.41341 0.0
C246 C 0.48494 0.16616 0.46931 0.0
C247 C 0.48571 0.14262 0.51452 0.0
H248 H 0.27807 0.51151 0.23459 0.0
H249 H 0.28201 0.59174 0.2978 0.0
H250 H 0.32021 0.50183 0.3067 0.0
H251 H 0.32402 0.58206 0.37006 0.0
H252 H 0.36851 0.5453 0.57091 0.0
H253 H 0.32975 0.55541 0.48808 0.0
H254 H 0.37324 0.5116 0.31713 0.0
H255 H 0.41161 0.50091 0.40074 0.0
C256 C 0.28841 0.52725 0.26227 0.0
C257 C 0.27658 0.55233 0.26099 0.0
C258 C 0.31245 0.52168 0.30391 0.0
C259 C 0.32511 0.54106 0.34517 0.0
C260 C 0.3143 0.56653 0.34035 0.0
C261 C 0.29036 0.57211 0.29864 0.0
C262 C 0.36962 0.53759 0.51599 0.0
C263 C 0.39314 0.52234 0.4924 0.0
C264 C 0.34763 0.54367 0.46813 0.0
C265 C 0.34858 0.53452 0.39571 0.0
C266 C 0.37184 0.51889 0.37258 0.0
C267 C 0.39392 0.51293 0.4203 0.0
H268 H 0.02956 0.26409 0.34945 0.0
H269 H 0.12285 0.28143 0.29673 0.0
H270 H 0.02515 0.30553 0.40753 0.0
H271 H 0.11831 0.32368 0.35344 0.0
H272 H 0.10071 0.37784 0.55223 0.0
H273 H 0.1083 0.3391 0.48115 0.0
H274 H 0.02742 0.3525 0.37636 0.0
H275 H 0.0191 0.39018 0.44946 0.0
C276 C 0.04911 0.27692 0.34987 0.0
C277 C 0.07659 0.26946 0.31917 0.0
C278 C 0.04655 0.30081 0.38249 0.0
C279 C 0.07138 0.31792 0.38506 0.0
C280 C 0.09884 0.31078 0.35285 0.0
C281 C 0.10139 0.28678 0.31979 0.0
C282 C 0.08453 0.37244 0.51416 0.0
C283 C 0.05924 0.38708 0.50687 0.0
C284 C 0.08908 0.35047 0.47273 0.0
C285 C 0.06838 0.34268 0.4234 0.0
C286 C 0.04359 0.35779 0.41457 0.0
C287 C 0.03901 0.37962 0.45595 0.0
H288 H 0.80597 0.97162 0.11438 0.0
H289 H 0.82172 0.05591 0.09451 0.0
H290 H 0.85392 0.9665 0.04502 0.0
H291 H 0.86943 0.05105 0.0254 0.0
H292 H 0.96332 0.03271 0.94455 0.0
H293 H 0.91927 0.03506 0.03055 0.0
H294 H 0.87444 0.97616 0.91355 0.0
H295 H 0.91856 0.97365 0.82785 0.0
C296 C 0.82013 0.98897 0.09707 0.0
C297 C 0.81042 0.01413 0.11078 0.0
C298 C 0.84738 0.98612 0.05644 0.0
C299 C 0.86557 0.00838 0.02906 0.0
C300 C 0.85628 0.03345 0.04611 0.0
C301 C 0.82897 0.03627 0.08591 0.0
C302 C 0.94412 0.02019 0.93719 0.0
C303 C 0.94455 0.00308 0.87883 0.0
C304 C 0.91878 0.02159 0.98651 0.0
C305 C 0.89321 0.00578 0.97929 0.0
C306 C 0.89381 0.98837 0.92161 0.0
C307 C 0.91907 0.9871 0.87194 0.0
H308 H 0.49913 0.74199 0.13013 0.0
H309 H 0.59205 0.75662 0.15099 0.0
H310 H 0.49639 0.78599 0.06812 0.0
H311 H 0.58936 0.80093 0.08896 0.0
H312 H 0.57695 0.85946 0.88038 0.0
H313 H 0.58085 0.81812 0.9568 0.0
H314 H 0.50107 0.8336 0.09016 0.0
H315 H 0.49691 0.87463 0.01322 0.0
C316 C 0.51887 0.75485 0.12238 0.0
C317 C 0.54581 0.74595 0.14514 0.0
C318 C 0.51729 0.78006 0.08717 0.0
C319 C 0.5427 0.79686 0.07325 0.0
C320 C 0.56949 0.78829 0.0983 0.0
C321 C 0.57098 0.7631 0.13444 0.0
C322 C 0.56022 0.85396 0.92589 0.0
C323 C 0.53658 0.87025 0.94061 0.0
C324 C 0.56264 0.83048 0.97018 0.0
C325 C 0.5413 0.82266 0.02961 0.0
C326 C 0.51778 0.83904 0.04456 0.0
C327 C 0.5155 0.86261 0.00077 0.0
H328 H 0.79389 0.46508 0.07947 0.0
H329 H 0.7302 0.43846 0.26378 0.0
H330 H 0.75408 0.47587 0.00126 0.0
H331 H 0.69019 0.45033 0.18638 0.0
H332 H 0.62914 0.44066 0.9971 0.0
H333 H 0.66844 0.43339 0.07975 0.0
H334 H 0.71463 0.50496 0.98125 0.0
H335 H 0.67528 0.51211 0.8979 0.0
C336 C 0.77134 0.4617 0.10347 0.0
C337 C 0.76518 0.45049 0.17748 0.0
C338 C 0.74849 0.46819 0.05885 0.0
C339 C 0.71889 0.46376 0.08721 0.0
C340 C 0.71274 0.45357 0.16231 0.0
C341 C 0.73564 0.44704 0.20699 0.0
C342 C 0.64757 0.45497 0.99344 0.0
C343 C 0.64906 0.477 0.94097 0.0
C344 C 0.67007 0.45085 0.04109 0.0
C345 C 0.69463 0.46868 0.03762 0.0
C346 C 0.69618 0.49069 0.98492 0.0
C347 C 0.67367 0.49477 0.93702 0.0
H348 H 1.00621 0.73191 0.09725 0.0
H349 H 0.91285 0.71769 0.1573 0.0
H350 H 0.00804 0.69005 0.04048 0.0
H351 H 0.91483 0.67505 0.10203 0.0
H352 H 0.92763 0.61838 0.90777 0.0
H353 H 0.92267 0.65827 0.97522 0.0
H354 H 1.00408 0.64321 0.07584 0.0
H355 H 0.00975 0.60431 0.0064 0.0
C356 C 0.98607 0.71973 0.09855 0.0
C357 C 0.95934 0.72815 0.1312 0.0
C358 C 0.98717 0.6956 0.06671 0.0
C359 C 0.96158 0.67919 0.0669 0.0
C360 C 0.93485 0.68738 0.10055 0.0
C361 C 0.93377 0.71161 0.13278 0.0
C362 C 0.94447 0.62365 0.9442 0.0
C363 C 0.96912 0.60817 0.95144 0.0
C364 C 0.94144 0.64631 0.9835 0.0
C365 C 0.96307 0.65395 0.03054 0.0
C366 C 0.98723 0.63804 0.03932 0.0
C367 C 0.99027 0.61552 1.00011 0.0
H368 H 0.08419 0.14533 0.31983 0.0
H369 H 0.01249 0.19351 0.39034 0.0
H370 H 0.05885 0.10706 0.38865 0.0
H371 H 0.98779 0.15505 0.46248 0.0
H372 H 0.99591 0.08767 0.66538 0.0
H373 H 1.00405 0.12688 0.57849 0.0
H374 H 0.01033 0.07781 0.39162 0.0
H375 H 1.00179 0.03842 0.47883 0.0
C376 C 0.06283 0.14775 0.34905 0.0
C377 C 0.05038 0.17257 0.34924 0.0
C378 C 0.04829 0.12575 0.38833 0.0
C379 C 0.02118 0.12809 0.4298 0.0
C380 C 0.00861 0.15279 0.43041 0.0
C381 C 0.02295 0.17481 0.38994 0.0
C382 C 0.99787 0.08533 0.60552 0.0
C383 C 0.99853 0.06011 0.5786 0.0
C384 C 1.00245 0.10776 0.55587 0.0
C385 C 0.00821 0.10526 0.47867 0.0
C386 C 1.00613 0.08014 0.45113 0.0
C387 C 1.00104 0.05767 0.50085 0.0
H388 H 0.36103 0.94057 0.2958 0.0
H389 H 0.31748 0.97878 0.47916 0.0
H390 H 0.40394 0.93466 0.368 0.0
H391 H 0.35983 0.97135 0.55244 0.0
H392 H 0.47662 0.99244 0.48326 0.0
H393 H 0.43355 0.98265 0.41466 0.0
H394 H 0.39823 0.92788 0.59794 0.0
H395 H 0.44197 0.93686 0.66572 0.0
C396 C 0.36027 0.94712 0.3521 0.0
C397 C 0.3361 0.96076 0.38098 0.0
C398 C 0.38471 0.94349 0.39342 0.0
C399 C 0.38499 0.95265 0.46519 0.0
C400 C 0.35984 0.96395 0.49719 0.0
C401 C 0.33559 0.96811 0.45527 0.0
C402 C 0.4601 0.97771 0.50778 0.0
C403 C 0.46257 0.9653 0.57937 0.0
C404 C 0.43557 0.97212 0.46868 0.0
C405 C 0.41283 0.95454 0.50142 0.0
C406 C 0.4157 0.94136 0.57176 0.0
C407 C 0.4407 0.94641 0.61007 0.0
H408 H 0.5652 0.33106 0.3478 0.0
H409 H 0.48212 0.36584 0.31163 0.0
H410 H 0.57962 0.36863 0.4175 0.0
H411 H 0.49587 0.40269 0.38217 0.0
H412 H 0.52964 0.47571 0.45836 0.0
H413 H 0.52815 0.44074 0.37273 0.0
H414 H 0.56769 0.38867 0.53387 0.0
H415 H 0.57056 0.42432 0.61769 0.0
C416 C 0.54999 0.34665 0.35541 0.0
C417 C 0.52268 0.34576 0.32403 0.0
C418 C 0.55822 0.36814 0.39502 0.0
C419 C 0.53916 0.38894 0.40417 0.0
C420 C 0.51156 0.38753 0.3741 0.0
C421 C 0.50351 0.36629 0.33425 0.0
C422 C 0.53896 0.45705 0.47409 0.0
C423 C 0.55006 0.45255 0.54444 0.0
C424 C 0.53778 0.43692 0.42562 0.0
C425 C 0.54693 0.41165 0.44752 0.0
C426 C 0.56045 0.40787 0.51525 0.0
C427 C 0.56217 0.42828 0.56322 0.0
H428 H 0.14541 0.59388 0.21843 0.0
H429 H 0.19128 0.56207 0.40524 0.0
H430 H 0.10044 0.59458 0.30229 0.0
H431 H 0.14728 0.5651 0.48842 0.0
H432 H 0.03991 0.52399 0.46632 0.0
H433 H 0.07724 0.5454 0.37359 0.0
H434 H 0.10277 0.59878 0.53594 0.0
H435 H 0.06445 0.57803 0.62806 0.0
C436 C 0.1463 0.5877 0.27731 0.0
C437 C 0.17204 0.57726 0.30417 0.0
C438 C 0.12062 0.58853 0.32529 0.0
C439 C 0.1206 0.57996 0.40143 0.0
C440 C 0.14696 0.5722 0.42995 0.0
C441 C 0.17231 0.57057 0.38184 0.0
C442 C 0.05259 0.54108 0.4809 0.0
C443 C 0.0495 0.5494 0.55395 0.0
C444 C 0.07379 0.55339 0.42791 0.0
C445 C 0.09272 0.57368 0.448 0.0
C446 C 0.08815 0.58334 0.51925 0.0
C447 C 0.06629 0.57151 0.57167 0.0
H448 H 0.02692 0.80243 0.06111 0.0
H449 H 0.9574 0.8524 0.13473 0.0
H450 H 0.05277 0.84053 0.98976 0.0
H451 H 0.98379 0.89023 0.0665 0.0
H452 H 0.04163 0.95782 0.97548 0.0
H453 H 0.03242 0.91844 0.06248 0.0
H454 H 0.038 0.86946 0.87534 0.0
H455 H 0.04691 0.90865 0.78874 0.0
C456 C 0.01718 0.82146 0.06235 0.0
C457 C 0.99004 0.82431 0.10373 0.0
C458 C 0.03217 0.84326 0.02231 0.0
C459 C 0.02052 0.86834 0.02391 0.0
C460 C 0.99369 0.87125 0.06604 0.0
C461 C 0.97852 0.8495 0.10496 0.0
C462 C 0.04212 0.93858 0.95339 0.0
C463 C 0.04462 0.93618 0.87562 0.0
C464 C 0.03662 0.91611 0.00298 0.0
C465 C 0.03409 0.89103 0.97532 0.0
C466 C 0.03993 0.88853 0.89813 0.0
C467 C 0.04495 0.91096 0.84861 0.0
H468 H 0.72373 0.00997 0.97471 0.0
H469 H 0.69025 0.07036 0.11142 0.0
H470 H 0.68089 0.0132 0.90112 0.0
H471 H 0.64728 0.0735 0.03724 0.0
H472 H 0.57892 0.99132 0.93252 0.0
H473 H 0.62422 0.00089 0.99053 0.0
H474 H 0.63289 0.07785 0.87142 0.0
H475 H 0.5873 0.06818 0.81097 0.0
C476 C 0.70788 0.02469 0.987 0.0
C477 C 0.71009 0.03972 0.04913 0.0
C478 C 0.68336 0.02644 0.94516 0.0
C479 C 0.66095 0.04349 0.96421 0.0
C480 C 0.66446 0.06036 0.02156 0.0
C481 C 0.6889 0.05845 0.06397 0.0
C482 C 0.5901 0.01048 0.9192 0.0
C483 C 0.57969 0.02889 0.86646 0.0
C484 C 0.61609 0.01584 0.95221 0.0
C485 C 0.63207 0.03983 0.93398 0.0
C486 C 0.62084 0.05913 0.88551 0.0
C487 C 0.59476 0.05365 0.85157 0.0
H488 H 0.48667 0.66676 0.09024 0.0
H489 H 0.56911 0.62888 0.11057 0.0
H490 H 0.46848 0.63 0.02235 0.0
H491 H 0.55134 0.59266 0.04295 0.0
H492 H 0.51149 0.52088 0.97673 0.0
H493 H 0.51568 0.55586 0.06162 0.0
H494 H 0.47804 0.60974 0.90179 0.0
H495 H 0.47272 0.57421 0.8182 0.0
C496 C 0.50092 0.65069 0.07967 0.0
C497 C 0.52917 0.65048 0.10619 0.0
C498 C 0.49049 0.62965 0.04122 0.0
C499 C 0.5082 0.60814 0.02882 0.0
C500 C 0.53671 0.60845 0.05379 0.0
C501 C 0.54703 0.6293 0.09206 0.0
C502 C 0.50306 0.53995 0.96121 0.0
C503 C 0.49202 0.54502 0.89099 0.0
C504 C 0.50576 0.56005 0.00929 0.0
C505 C 0.49808 0.58576 0.98723 0.0
C506 C 0.48422 0.59016 0.92025 0.0
C507 C 0.48107 0.56982 0.8725 0.0
H508 H 0.84263 0.39411 0.09209 0.0
H509 H 0.89333 0.42324 0.26636 0.0
H510 H 0.88731 0.39595 0.00822 0.0
H511 H 0.93775 0.42148 0.18617 0.0
H512 H 0.98222 0.47649 0.98968 0.0
H513 H 0.94999 0.45496 0.09092 0.0
H514 H 0.9369 0.38804 0.95944 0.0
H515 H 0.96934 0.41042 0.85594 0.0
C516 C 0.86315 0.40024 0.11368 0.0
C517 C 0.86356 0.40997 0.18538 0.0
C518 C 0.88903 0.40065 0.06576 0.0
C519 C 0.91599 0.40996 0.08954 0.0
C520 C 0.91713 0.41523 0.16511 0.0
C521 C 0.89128 0.4158 0.21193 0.0
C522 C 0.97307 0.4569 0.98297 0.0
C523 C 0.97788 0.44527 0.9148 0.0
C524 C 0.95475 0.4443 0.04154 0.0
C525 C 0.94062 0.41968 0.03353 0.0
C526 C 0.94722 0.40709 0.96714 0.0
C527 C 0.96591 0.41976 0.90819 0.0
H528 H 0.14813 0.19297 0.16053 0.0
H529 H 0.07143 0.22239 0.06241 0.0
H530 H 0.15758 0.16587 0.05494 0.0
H531 H 0.07969 0.1947 0.95886 0.0
H532 H 0.0863 0.13544 0.79781 0.0
H533 H 0.1022 0.17506 0.85552 0.0
H534 H 0.13045 0.12626 0.04199 0.0
H535 H 0.11563 0.08699 0.9826 0.0
C536 C 0.13426 0.19467 0.11412 0.0
C537 C 0.10907 0.20962 0.11915 0.0
C538 C 0.13929 0.17881 0.05433 0.0
C539 C 0.11882 0.17731 0.99967 0.0
C540 C 0.096 0.1952 0.99963 0.0
C541 C 0.09124 0.21129 0.05892 0.0
C542 C 0.09664 0.13334 0.85024 0.0
C543 C 0.09932 0.10826 0.88656 0.0
C544 C 0.10571 0.15599 0.88336 0.0
C545 C 0.11717 0.15401 0.95412 0.0
C546 C 0.12208 0.12874 0.98712 0.0
C547 C 0.11338 0.10611 0.95343 0.0
H548 H 0.33585 0.03694 0.16417 0.0
H549 H 0.30339 0.96435 0.08449 0.0
H550 H 0.37334 0.04234 0.05789 0.0
H551 H 0.34068 0.96965 0.97765 0.0
H552 H 0.4397 0.96359 0.90162 0.0
H553 H 0.39405 0.96435 0.98131 0.0
H554 H 0.38896 0.04751 0.92021 0.0
H555 H 0.43509 0.04677 0.83957 0.0
C556 C 0.3357 0.02292 0.12147 0.0
C557 C 0.31636 0.00047 0.13184 0.0
C558 C 0.3574 0.02584 0.06089 0.0
C559 C 0.36045 0.00617 0.00989 0.0
C560 C 0.33928 0.98497 0.01655 0.0
C561 C 0.31751 0.98215 0.0769 0.0
C562 C 0.42891 0.98209 0.90472 0.0
C563 C 0.44127 0.00515 0.86422 0.0
C564 C 0.40244 0.98245 0.94995 0.0
C565 C 0.38753 0.00593 0.95672 0.0
C566 C 0.39983 0.02908 0.91628 0.0
C567 C 0.42627 0.02865 0.87008 0.0
H568 H 0.53024 0.31541 0.0351 0.0
H569 H 0.4416 0.32673 0.12574 0.0
H570 H 0.52349 0.34572 0.92761 0.0
H571 H 0.43383 0.35627 0.01595 0.0
H572 H 0.45723 0.4417 0.90862 0.0
H573 H 0.4502 0.40006 0.98551 0.0
H574 H 0.50442 0.36235 0.81883 0.0
H575 H 0.51271 0.40461 0.74499 0.0
C576 C 0.50867 0.32324 0.02947 0.0
C577 C 0.48637 0.31864 0.088 0.0
C578 C 0.50471 0.3408 0.96783 0.0
C579 C 0.47822 0.35404 0.96335 0.0
C580 C 0.45477 0.34703 0.01825 0.0
C581 C 0.45894 0.3297 0.08047 0.0
C582 C 0.46687 0.42425 0.88784 0.0
C583 C 0.48547 0.42615 0.82141 0.0
C584 C 0.4628 0.40027 0.93159 0.0
C585 C 0.47705 0.37767 0.90915 0.0
C586 C 0.49366 0.37934 0.83903 0.0
C587 C 0.49819 0.40344 0.79624 0.0
H588 H 0.19371 0.49946 0.11631 0.0
H589 H 0.20989 0.57675 0.00242 0.0
H590 H 0.16333 0.48656 0.017 0.0
H591 H 0.18004 0.56392 0.90215 0.0
H592 H 0.0827 0.54851 0.85134 0.0
H593 H 0.12602 0.55747 0.9174 0.0
H594 H 0.15549 0.47944 0.88203 0.0
H595 H 0.11155 0.47031 0.81515 0.0
C596 C 0.19194 0.51319 0.06792 0.0
C597 C 0.20421 0.53897 0.06623 0.0
C598 C 0.17449 0.50588 0.01118 0.0
C599 C 0.16891 0.52437 0.95236 0.0
C600 C 0.18361 0.54937 0.94733 0.0
C601 C 0.20097 0.55665 0.00407 0.0
C602 C 0.09849 0.53328 0.85683 0.0
C603 C 0.09356 0.50862 0.82844 0.0
C604 C 0.12357 0.53854 0.89406 0.0
C605 C 0.14437 0.51925 0.90447 0.0
C606 C 0.13984 0.49469 0.8748 0.0
C607 C 0.11475 0.4895 0.8365 0.0
H608 H 0.96841 0.77482 0.38962 0.0
H609 H 0.89182 0.80533 0.29345 0.0
H610 H 0.96087 0.80235 0.49377 0.0
H611 H 0.8831 0.83229 0.39966 0.0
H612 H 0.95562 0.8613 0.65587 0.0
H613 H 0.9389 0.82199 0.59791 0.0
H614 H 0.911 0.87154 0.41249 0.0
H615 H 0.92667 0.91049 0.47207 0.0
C616 C 0.94878 0.78614 0.39367 0.0
C617 C 0.93077 0.78814 0.33386 0.0
C618 C 0.94443 0.80213 0.45332 0.0
C619 C 0.92186 0.82027 0.45401 0.0
C620 C 0.9012 0.81914 0.39971 0.0
C621 C 0.90582 0.80337 0.33956 0.0
C622 C 0.94521 0.86364 0.6036 0.0
C623 C 0.94287 0.88883 0.56761 0.0
C624 C 0.93565 0.84117 0.57036 0.0
C625 C 0.92402 0.84345 0.49983 0.0
C626 C 0.91948 0.86884 0.46719 0.0
C627 C 0.92867 0.89129 0.50099 0.0
H628 H 0.72593 0.96874 0.31553 0.0
H629 H 0.7157 0.05216 0.32432 0.0
H630 H 0.68958 0.96016 0.42421 0.0
H631 H 0.67865 0.04406 0.42858 0.0
H632 H 0.61611 0.02891 0.62702 0.0
H633 H 0.66247 0.03232 0.54922 0.0
H634 H 0.63872 0.95951 0.45369 0.0
H635 H 0.59316 0.95529 0.53717 0.0
C636 C 0.71665 0.98525 0.34245 0.0
C637 C 0.72394 0.01114 0.3122 0.0
C638 C 0.69528 0.98038 0.40376 0.0
C639 C 0.68053 0.00132 0.43558 0.0
C640 C 0.6895 0.02725 0.40763 0.0
C641 C 0.71094 0.03203 0.34741 0.0
C642 C 0.62104 0.01347 0.58998 0.0
C643 C 0.60091 0.99201 0.58742 0.0
C644 C 0.64761 0.01549 0.54462 0.0
C645 C 0.65445 0.99658 0.49296 0.0
C646 C 0.63465 0.97446 0.49273 0.0
C647 C 0.60834 0.97205 0.54017 0.0
H648 H 0.60677 0.64936 0.28534 0.0
H649 H 0.54455 0.69698 0.4015 0.0
H650 H 0.60928 0.62097 0.39957 0.0
H651 H 0.54778 0.66913 0.51731 0.0
H652 H 0.51047 0.58519 0.60826 0.0
H653 H 0.52406 0.62582 0.53333 0.0
H654 H 0.61601 0.60747 0.5303 0.0
H655 H 0.60204 0.56597 0.60598 0.0
C656 C 0.5948 0.65452 0.33655 0.0
C657 C 0.57494 0.67495 0.33435 0.0
C658 C 0.59628 0.63826 0.40228 0.0
C659 C 0.57799 0.64225 0.46708 0.0
C660 C 0.56155 0.66512 0.46766 0.0
C661 C 0.55995 0.68131 0.40162 0.0
C662 C 0.53368 0.5899 0.59266 0.0
C663 C 0.55515 0.57213 0.61181 0.0
C664 C 0.54156 0.61352 0.55047 0.0
C665 C 0.57119 0.62007 0.52566 0.0
C666 C 0.59297 0.60296 0.54827 0.0
C667 C 0.58502 0.57924 0.59154 0.0
H668 H 0.82396 0.48774 0.3681 0.0
H669 H 0.81908 0.40828 0.47072 0.0
H670 H 0.85337 0.50209 0.46711 0.0
H671 H 0.84769 0.42265 0.57135 0.0
H672 H 0.91018 0.51993 0.65818 0.0
H673 H 0.86507 0.50838 0.59847 0.0
H674 H 0.90029 0.43343 0.54947 0.0
H675 H 0.9445 0.44468 0.60854 0.0
C676 C 0.82778 0.47366 0.41426 0.0
C677 C 0.81954 0.44688 0.41165 0.0
C678 C 0.84475 0.48186 0.47092 0.0
C679 C 0.85356 0.46335 0.52591 0.0
C680 C 0.84186 0.43725 0.52865 0.0
C681 C 0.82519 0.42904 0.47166 0.0
C682 C 0.90801 0.50091 0.63522 0.0
C683 C 0.93103 0.48333 0.63757 0.0
C684 C 0.88223 0.4943 0.60117 0.0
C685 C 0.87889 0.46985 0.57003 0.0
C686 C 0.90169 0.45216 0.57437 0.0
C687 C 0.92734 0.4588 0.60747 0.0
loop_
_geom_bond_atom_site_label_1
_geom_bond_atom_site_label_2
_geom_bond_distance
_geom_bond_site_symmetry_2
_ccdc_geom_bond_type
H0 C3 0.931 . S
H1 C6 0.928 . S
H2 C8 0.930 . S
C3 H0 0.931 . S
C3 C4 1.413 . S
C3 C5 1.360 . S
C4 C3 1.413 . S
C4 C8 1.429 . S
C5 C3 1.360 . S
C5 C6 1.372 . S
C6 H1 0.928 . S
C6 C5 1.372 . S
C6 C7 1.404 . S
C7 C6 1.404 . S
C7 C8 1.391 . S
C8 H2 0.930 . S
C8 C4 1.429 . S
C8 C7 1.391 . S
H9 C12 0.931 . S
H10 C15 0.928 . S
H11 C17 0.930 . S
C12 H9 0.931 . S
C12 C13 1.413 . S
C12 C14 1.360 1_554 S
C13 C12 1.413 . S
C13 C17 1.429 . S
C14 C12 1.360 1_556 S
C14 C15 1.372 . S
C15 H10 0.928 . S
C15 C14 1.372 . S
C15 C16 1.404 . S
C16 C15 1.404 . S
C16 C17 1.391 1_556 S
C17 H11 0.930 . S
C17 C13 1.429 . S
C17 C16 1.391 1_554 S
H18 C21 0.931 . S
H19 C24 0.928 1_556 S
H20 C26 0.929 . S
C21 H18 0.931 . S
C21 C22 1.413 . S
C21 C23 1.360 . S
C22 C21 1.413 . S
C22 C26 1.430 1_565 S
C23 C21 1.360 . S
C23 C24 1.374 . S
C24 H19 0.928 1_554 S
C24 C23 1.374 . S
C24 C25 1.405 . S
C25 C24 1.405 . S
C25 C26 1.389 1_565 S
C26 H20 0.929 . S
C26 C22 1.430 1_545 S
C26 C25 1.389 1_545 S
H27 C30 0.931 . S
H28 C33 0.928 . S
H29 C35 0.930 1_556 S
C30 H27 0.931 . S
C30 C31 1.413 . S
C30 C32 1.360 . S
C31 C30 1.413 . S
C31 C35 1.429 . S
C32 C30 1.360 . S
C32 C33 1.372 . S
C33 H28 0.928 . S
C33 C32 1.372 . S
C33 C34 1.404 . S
C34 C33 1.404 . S
C34 C35 1.391 . S
C35 H29 0.930 1_554 S
C35 C31 1.429 . S
C35 C34 1.391 . S
H36 C39 0.931 . S
H37 C42 0.928 . S
H38 C44 0.930 . S
C39 H36 0.931 . S
C39 C40 1.413 . S
C39 C41 1.360 . S
C40 C39 1.413 . S
C40 C44 1.429 . S
C41 C39 1.360 . S
C41 C42 1.372 . S
C42 H37 0.928 . S
C42 C41 1.372 . S
C42 C43 1.404 . S
C43 C42 1.404 . S
C43 C44 1.391 . S
C44 H38 0.930 . S
C44 C40 1.429 . S
C44 C43 1.391 . S
H45 C48 0.931 . S
H46 C51 0.928 . S
H47 C53 0.930 . S
C48 H45 0.931 . S
C48 C49 1.413 . S
C48 C50 1.360 . S
C49 C48 1.413 . S
C49 C53 1.429 . S
C50 C48 1.360 . S
C50 C51 1.372 . S
C51 H46 0.928 . S
C51 C50 1.372 . S
C51 C52 1.404 . S
C52 C51 1.404 . S
C52 C53 1.391 . S
C53 H47 0.930 . S
C53 C49 1.429 . S
C53 C52 1.391 . S
H54 C57 0.930 . S
H55 C60 0.928 . S
H56 C62 0.930 . S
C57 H54 0.930 . S
C57 C58 1.413 . S
C57 C59 1.360 . S
C58 C57 1.413 . S
C58 C62 1.429 1_565 S
C59 C57 1.360 . S
C59 C60 1.371 . S
C60 H55 0.928 . S
C60 C59 1.371 . S
C60 C61 1.404 . S
C61 C60 1.404 . S
C61 C62 1.392 1_565 S
C62 H56 0.930 . S
C62 C58 1.429 1_545 S
C62 C61 1.392 1_545 S
H63 C66 0.931 . S
H64 C69 0.928 . S
H65 C71 0.930 . S
C66 H63 0.931 . S
C66 C67 1.413 . S
C66 C68 1.360 . S
C67 C66 1.413 . S
C67 C71 1.429 . S
C68 C66 1.360 . S
C68 C69 1.372 . S
C69 H64 0.928 . S
C69 C68 1.372 . S
C69 C70 1.404 . S
C70 C69 1.404 . S
C70 C71 1.391 . S
C71 H65 0.930 . S
C71 C67 1.429 . S
C71 C70 1.391 . S
C72 O88 1.251 1_455 S
C72 O90 1.254 . S
N73 C74 1.333 . S
N73 C78 1.307 . S
N73 Zn79 2.020 1_655 S
C74 N73 1.333 . S
C74 C75 1.379 . S
C74 H92 0.966 . S
C75 C74 1.379 . S
C75 C76 1.390 . S
C75 H102 0.949 . S
C76 C75 1.390 . S
C76 C77 1.357 . S
C77 C76 1.357 . S
C77 C78 1.370 . S
C77 H103 0.950 . S
C78 N73 1.307 . S
C78 C77 1.370 . S
C78 H96 0.948 1_565 S
Zn79 N73 2.020 1_455 S
Zn79 O88 2.039 1_455 S
Zn79 O94 2.034 . S
Zn79 O98 2.025 1_565 S
Zn79 O100 2.024 1_465 S
C80 O99 1.246 . S
C80 O100 1.250 . S
N81 C82 1.307 . S
N81 C83 1.333 . S
N81 Zn87 2.020 . S
C82 N81 1.307 . S
C82 C86 1.370 . S
C82 H93 0.948 1_545 S
C83 N81 1.333 . S
C83 C84 1.379 . S
C83 H91 0.952 . S
C84 C83 1.379 . S
C84 C85 1.390 1_556 S
C84 H104 0.949 . S
C85 C84 1.390 1_554 S
C85 C86 1.357 1_554 S
C86 C82 1.370 . S
C86 C85 1.357 1_556 S
C86 H105 0.950 1_556 S
Zn87 N81 2.020 . S
Zn87 O90 2.025 1_545 S
Zn87 O95 2.024 . S
Zn87 O97 2.039 . S
Zn87 O99 2.034 1_455 S
O88 C72 1.251 1_655 S
O88 Zn79 2.039 1_655 S
C89 O94 1.246 . S
C89 O95 1.250 1_565 S
O90 C72 1.254 . S
O90 Zn87 2.025 1_565 S
H91 C83 0.952 . S
H92 C74 0.966 . S
H93 C82 0.948 1_565 S
O94 Zn79 2.034 . S
O94 C89 1.246 . S
O95 Zn87 2.024 . S
O95 C89 1.250 1_545 S
H96 C78 0.948 1_545 S
O97 Zn87 2.039 . S
O97 C101 1.251 . S
O98 Zn79 2.025 1_545 S
O98 C101 1.254 . S
O99 C80 1.246 . S
O99 Zn87 2.034 1_655 S
O100 Zn79 2.024 1_645 S
O100 C80 1.250 . S
C101 O97 1.251 . S
C101 O98 1.254 . S
H102 C75 0.949 . S
H103 C77 0.950 . S
H104 C84 0.949 . S
H105 C86 0.950 1_554 S
C106 O122 1.251 1_565 S
C106 O124 1.254 . S
N107 C108 1.333 . S
N107 C112 1.307 . S
N107 Zn113 2.020 . S
C108 N107 1.333 . S
C108 C109 1.379 . S
C108 H126 0.952 . S
C109 C108 1.379 . S
C109 C110 1.390 . S
C109 H136 0.949 . S
C110 C109 1.390 . S
C110 C111 1.357 . S
C111 C110 1.357 . S
C111 C112 1.370 . S
C111 H137 0.950 . S
C112 N107 1.307 . S
C112 C111 1.370 . S
C112 H130 0.948 . S
Zn113 N107 2.020 . S
Zn113 O122 2.039 . S
Zn113 O128 2.034 . S
Zn113 O132 2.025 . S
Zn113 O134 2.024 . S
C114 O133 1.246 1_545 S
C114 O134 1.249 . S
N115 C116 1.307 . S
N115 C117 1.333 . S
N115 Zn121 2.020 . S
C116 N115 1.307 . S
C116 C120 1.370 . S
C116 H127 0.948 . S
C117 N115 1.333 . S
C117 C118 1.379 . S
C117 H125 0.952 . S
C118 C117 1.379 . S
C118 C119 1.390 . S
C118 H138 0.949 . S
C119 C118 1.390 . S
C119 C120 1.357 . S
C120 C116 1.370 . S
C120 C119 1.357 . S
C120 H139 0.950 . S
Zn121 N115 2.020 . S
Zn121 O124 2.025 . S
Zn121 O129 2.024 . S
Zn121 O131 2.039 . S
Zn121 O133 2.034 . S
O122 C106 1.251 1_545 S
O122 Zn113 2.039 . S
C123 O128 1.246 1_565 S
C123 O129 1.249 . S
O124 C106 1.254 . S
O124 Zn121 2.025 . S
H125 C117 0.952 . S
H126 C108 0.952 . S
H127 C116 0.948 . S
O128 Zn113 2.034 . S
O128 C123 1.246 1_545 S
O129 Zn121 2.024 . S
O129 C123 1.249 . S
H130 C112 0.948 . S
O131 Zn121 2.039 . S
O131 C135 1.251 1_565 S
O132 Zn113 2.025 . S
O132 C135 1.254 . S
O133 C114 1.246 1_565 S
O133 Zn121 2.034 . S
O134 Zn113 2.024 . S
O134 C114 1.249 . S
C135 O131 1.251 1_545 S
C135 O132 1.254 . S
H136 C109 0.949 . S
H137 C111 0.950 . S
H138 C118 0.949 . S
H139 C120 0.950 . S
C140 O156 1.251 . S
C140 O158 1.254 . S
N141 C142 1.333 . S
N141 C146 1.307 . S
N141 Zn147 2.020 . S
C142 N141 1.333 . S
C142 C143 1.379 . S
C142 H160 0.952 . S
C143 C142 1.379 . S
C143 C144 1.390 . S
C143 H170 0.949 . S
C144 C143 1.390 . S
C144 C145 1.357 . S
C145 C144 1.357 . S
C145 C146 1.370 . S
C145 H171 0.950 . S
C146 N141 1.307 . S
C146 C145 1.370 . S
C146 H164 0.948 . S
Zn147 N141 2.020 . S
Zn147 O156 2.039 . S
Zn147 O162 2.034 . S
Zn147 O166 2.025 . S
Zn147 O168 2.024 . S
C148 O167 1.246 . S
C148 O168 1.249 . S
N149 C150 1.307 . S
N149 C151 1.333 . S
N149 Zn155 2.020 . S
C150 N149 1.307 . S
C150 C154 1.370 . S
C150 H161 0.948 . S
C151 N149 1.333 . S
C151 C152 1.379 . S
C151 H159 0.952 . S
C152 C151 1.379 . S
C152 C153 1.390 . S
C152 H172 0.949 . S
C153 C152 1.390 . S
C153 C154 1.357 . S
C154 C150 1.370 . S
C154 C153 1.357 . S
C154 H173 0.950 . S
Zn155 N149 2.020 . S
Zn155 O158 2.025 . S
Zn155 O163 2.024 . S
Zn155 O165 2.039 . S
Zn155 O167 2.034 . S
O156 C140 1.251 . S
O156 Zn147 2.039 . S
C157 O162 1.246 . S
C157 O163 1.249 . S
O158 C140 1.254 . S
O158 Zn155 2.025 . S
H159 C151 0.952 . S
H160 C142 0.952 . S
H161 C150 0.948 . S
O162 Zn147 2.034 . S
O162 C157 1.246 . S
O163 Zn155 2.024 . S
O163 C157 1.249 . S
H164 C146 0.948 . S
O165 Zn155 2.039 . S
O165 C169 1.251 . S
O166 Zn147 2.025 . S
O166 C169 1.254 . S
O167 C148 1.246 . S
O167 Zn155 2.034 . S
O168 Zn147 2.024 . S
O168 C148 1.249 . S
C169 O165 1.251 . S
C169 O166 1.254 . S
H170 C143 0.949 . S
H171 C145 0.950 . S
H172 C152 0.949 . S
H173 C154 0.950 . S
C174 O190 1.251 . S
C174 O192 1.254 . S
N175 C176 1.333 . S
N175 C180 1.307 . S
N175 Zn181 2.020 . S
C176 N175 1.333 . S
C176 C177 1.379 . S
C176 H194 0.952 . S
C177 C176 1.379 . S
C177 C178 1.390 . S
C177 H204 0.949 . S
C178 C177 1.390 . S
C178 C179 1.357 . S
C179 C178 1.357 . S
C179 C180 1.370 . S
C179 H205 0.950 . S
C180 N175 1.307 . S
C180 C179 1.370 . S
C180 H198 0.948 . S
Zn181 N175 2.020 . S
Zn181 O190 2.039 . S
Zn181 O196 2.034 1_455 S
Zn181 O200 2.025 1_455 S
Zn181 O202 2.024 . S
C182 O201 1.246 . S
C182 O202 1.249 . S
N183 C184 1.307 . S
N183 C185 1.333 . S
N183 Zn189 2.020 1_655 S
C184 N183 1.307 . S
C184 C188 1.370 . S
C184 H195 0.948 1_655 S
C185 N183 1.333 . S
C185 C186 1.379 . S
C185 H193 0.952 . S
C186 C185 1.379 . S
C186 C187 1.390 . S
C186 H206 0.949 . S
C187 C186 1.390 . S
C187 C188 1.357 . S
C188 C184 1.370 . S
C188 C187 1.357 . S
C188 H207 0.950 . S
Zn189 N183 2.020 1_455 S
Zn189 O192 2.025 . S
Zn189 O197 2.024 1_455 S
Zn189 O199 2.039 1_455 S
Zn189 O201 2.034 . S
O190 C174 1.251 . S
O190 Zn181 2.039 . S
C191 O196 1.246 . S
C191 O197 1.249 . S
O192 C174 1.254 . S
O192 Zn189 2.025 . S
H193 C185 0.952 . S
H194 C176 0.952 . S
H195 C184 0.948 1_455 S
O196 Zn181 2.034 1_655 S
O196 C191 1.246 . S
O197 Zn189 2.024 1_655 S
O197 C191 1.249 . S
H198 C180 0.948 . S
O199 Zn189 2.039 1_655 S
O199 C203 1.251 . S
O200 Zn181 2.025 1_655 S
O200 C203 1.254 . S
O201 C182 1.246 . S
O201 Zn189 2.034 . S
O202 Zn181 2.024 . S
O202 C182 1.249 . S
C203 O199 1.251 . S
C203 O200 1.254 . S
H204 C177 0.949 . S
H205 C179 0.950 . S
H206 C186 0.949 . S
H207 C188 0.950 . S
H208 C216 0.950 . S
H209 C221 0.950 . S
H210 C218 0.950 . S
H211 C220 0.950 . S
H212 C222 0.950 . S
H213 C224 0.950 . S
H214 C226 0.950 . S
H215 C227 0.950 . S
C216 H208 0.950 . S
C216 C217 1.365 1_545 S
C216 C218 1.391 . S
C217 C216 1.365 1_565 S
C217 C221 1.413 . S
C218 H210 0.950 . S
C218 C216 1.391 . S
C218 C219 1.400 1_545 S
C219 C218 1.400 1_565 S
C219 C220 1.398 . S
C219 C225 1.491 . S
C220 H211 0.950 . S
C220 C219 1.398 . S
C220 C221 1.391 . S
C221 H209 0.950 . S
C221 C217 1.413 . S
C221 C220 1.391 . S
C222 H212 0.950 . S
C222 C223 1.386 . S
C222 C224 1.391 . S
C223 C222 1.386 . S
C223 C227 1.393 1_565 S
C224 H213 0.950 . S
C224 C222 1.391 . S
C224 C225 1.400 . S
C225 C219 1.491 . S
C225 C224 1.400 . S
C225 C226 1.398 1_565 S
C226 H214 0.950 . S
C226 C225 1.398 1_545 S
C226 C227 1.391 . S
C227 H215 0.950 . S
C227 C223 1.393 1_545 S
C227 C226 1.391 . S
H228 C236 0.950 . S
H229 C241 0.950 . S
H230 C238 0.950 . S
H231 C240 0.950 . S
H232 C242 0.950 . S
H233 C244 0.950 . S
H234 C246 0.950 . S
H235 C247 0.950 . S
C236 H228 0.950 . S
C236 C237 1.386 . S
C236 C238 1.391 . S
C237 C236 1.386 . S
C237 C241 1.393 . S
C238 H230 0.950 . S
C238 C236 1.391 . S
C238 C239 1.400 . S
C239 C238 1.400 . S
C239 C240 1.398 . S
C239 C245 1.491 . S
C240 H231 0.950 . S
C240 C239 1.398 . S
C240 C241 1.391 . S
C241 H229 0.950 . S
C241 C237 1.393 . S
C241 C240 1.391 . S
C242 H232 0.950 . S
C242 C243 1.386 . S
C242 C244 1.391 . S
C243 C242 1.386 . S
C243 C247 1.393 . S
C244 H233 0.950 . S
C244 C242 1.391 . S
C244 C245 1.400 . S
C245 C239 1.491 . S
C245 C244 1.400 . S
C245 C246 1.398 . S
C246 H234 0.950 . S
C246 C245 1.398 . S
C246 C247 1.391 . S
C247 H235 0.950 . S
C247 C243 1.393 . S
C247 C246 1.391 . S
H248 C256 0.950 . S
H249 C261 0.950 . S
H250 C258 0.950 . S
H251 C260 0.950 . S
H252 C262 0.950 . S
H253 C264 0.950 . S
H254 C266 0.950 . S
H255 C267 0.950 . S
C256 H248 0.950 . S
C256 C257 1.386 . S
C256 C258 1.391 . S
C257 C256 1.386 . S
C257 C261 1.393 . S
C258 H250 0.950 . S
C258 C256 1.391 . S
C258 C259 1.400 . S
C259 C258 1.400 . S
C259 C260 1.398 . S
C259 C265 1.491 . S
C260 H251 0.950 . S
C260 C259 1.398 . S
C260 C261 1.391 . S
C261 H249 0.950 . S
C261 C257 1.393 . S
C261 C260 1.391 . S
C262 H252 0.950 . S
C262 C263 1.386 . S
C262 C264 1.391 . S
C263 C262 1.386 . S
C263 C267 1.393 . S
C264 H253 0.950 . S
C264 C262 1.391 . S
C264 C265 1.400 . S
C265 C259 1.491 . S
C265 C264 1.400 . S
C265 C266 1.398 . S
C266 H254 0.950 . S
C266 C265 1.398 . S
C266 C267 1.391 . S
C267 H255 0.950 . S
C267 C263 1.393 . S
C267 C266 1.391 . S
H268 C276 0.950 . S
H269 C281 0.950 . S
H270 C278 0.950 . S
H271 C280 0.950 . S
H272 C282 0.950 . S
H273 C284 0.950 . S
H274 C286 0.950 . S
H275 C287 0.950 . S
C276 H268 0.950 . S
C276 C277 1.386 . S
C276 C278 1.391 . S
C277 C276 1.386 . S
C277 C281 1.393 . S
C278 H270 0.950 . S
C278 C276 1.391 . S
C278 C279 1.400 . S
C279 C278 1.400 . S
C279 C280 1.398 . S
C279 C285 1.491 . S
C280 H271 0.950 . S
C280 C279 1.398 . S
C280 C281 1.391 . S
C281 H269 0.950 . S
C281 C277 1.393 . S
C281 C280 1.391 . S
C282 H272 0.950 . S
C282 C283 1.386 . S
C282 C284 1.391 . S
C283 C282 1.386 . S
C283 C287 1.393 . S
C284 H273 0.950 . S
C284 C282 1.391 . S
C284 C285 1.400 . S
C285 C279 1.491 . S
C285 C284 1.400 . S
C285 C286 1.398 . S
C286 H274 0.950 . S
C286 C285 1.398 . S
C286 C287 1.391 . S
C287 H275 0.950 . S
C287 C283 1.393 . S
C287 C286 1.391 . S
H288 C296 0.950 . S
H289 C301 0.950 . S
H290 C298 0.950 . S
H291 C300 0.950 . S
H292 C302 0.950 . S
H293 C304 0.950 . S
H294 C306 0.950 . S
H295 C307 0.950 . S
C296 H288 0.950 . S
C296 C297 1.386 1_565 S
C296 C298 1.391 1_554 S
C297 C296 1.386 1_545 S
C297 C301 1.393 . S
C298 H290 0.950 . S
C298 C296 1.391 1_556 S
C298 C299 1.400 1_565 S
C299 C298 1.400 1_545 S
C299 C300 1.398 . S
C299 C305 1.491 . S
C300 H291 0.950 . S
C300 C299 1.398 . S
C300 C301 1.391 1_556 S
C301 H289 0.950 . S
C301 C297 1.393 . S
C301 C300 1.391 1_554 S
C302 H292 0.950 . S
C302 C303 1.386 . S
C302 C304 1.391 . S
C303 C302 1.386 . S
C303 C307 1.393 1_545 S
C304 H293 0.950 . S
C304 C302 1.391 . S
C304 C305 1.400 . S
C305 C299 1.491 . S
C305 C304 1.400 . S
C305 C306 1.398 1_545 S
C306 H294 0.950 . S
C306 C305 1.398 1_565 S
C306 C307 1.391 . S
C307 H295 0.950 . S
C307 C303 1.393 1_565 S
C307 C306 1.391 . S
H308 C316 0.952 . S
H309 C321 0.950 . S
H310 C318 0.950 . S
H311 C320 0.950 . S
H312 C322 0.950 . S
H313 C324 0.950 . S
H314 C326 0.950 . S
H315 C327 0.950 . S
C316 H308 0.952 . S
C316 C317 1.386 . S
C316 C318 1.391 1_554 S
C317 C316 1.386 . S
C317 C321 1.393 . S
C318 H310 0.950 . S
C318 C316 1.391 1_556 S
C318 C319 1.400 . S
C319 C318 1.400 . S
C319 C320 1.398 1_556 S
C319 C325 1.491 . S
C320 H311 0.950 . S
C320 C319 1.398 1_554 S
C320 C321 1.391 . S
C321 H309 0.950 . S
C321 C317 1.393 . S
C321 C320 1.391 . S
C322 H312 0.950 . S
C322 C323 1.386 . S
C322 C324 1.391 . S
C323 C322 1.386 . S
C323 C327 1.393 . S
C324 H313 0.950 . S
C324 C322 1.391 . S
C324 C325 1.400 . S
C325 C319 1.491 . S
C325 C324 1.400 . S
C325 C326 1.398 . S
C326 H314 0.950 . S
C326 C325 1.398 . S
C326 C327 1.391 . S
C327 H315 0.950 . S
C327 C323 1.393 . S
C327 C326 1.391 . S
H328 C336 0.950 . S
H329 C341 0.950 . S
H330 C338 0.950 . S
H331 C340 0.950 . S
H332 C342 0.950 . S
H333 C344 0.950 1_554 S
H334 C346 0.950 . S
H335 C347 0.950 . S
C336 H328 0.950 . S
C336 C337 1.386 . S
C336 C338 1.391 1_554 S
C337 C336 1.386 . S
C337 C341 1.393 . S
C338 H330 0.950 . S
C338 C336 1.391 1_556 S
C338 C339 1.400 1_556 S
C339 C338 1.400 1_554 S
C339 C340 1.398 . S
C339 C345 1.491 1_554 S
C340 H331 0.950 . S
C340 C339 1.398 . S
C340 C341 1.391 . S
C341 H329 0.950 . S
C341 C337 1.393 . S
C341 C340 1.391 . S
C342 H332 0.950 . S
C342 C343 1.386 . S
C342 C344 1.391 . S
C343 C342 1.386 . S
C343 C347 1.393 . S
C344 H333 0.950 1_556 S
C344 C342 1.391 . S
C344 C345 1.400 . S
C345 C339 1.491 1_556 S
C345 C344 1.400 . S
C345 C346 1.398 . S
C346 H334 0.950 . S
C346 C345 1.398 . S
C346 C347 1.391 . S
C347 H335 0.950 . S
C347 C343 1.393 . S
C347 C346 1.391 . S
H348 C356 0.950 . S
H349 C361 0.950 . S
H350 C358 0.950 . S
H351 C360 0.950 . S
H352 C362 0.950 . S
H353 C364 0.950 . S
H354 C366 0.950 . S
H355 C367 0.950 1_455 S
C356 H348 0.950 . S
C356 C357 1.386 . S
C356 C358 1.391 . S
C357 C356 1.386 . S
C357 C361 1.393 . S
C358 H350 0.950 . S
C358 C356 1.391 . S
C358 C359 1.400 . S
C359 C358 1.400 . S
C359 C360 1.398 . S
C359 C365 1.491 . S
C360 H351 0.950 . S
C360 C359 1.398 . S
C360 C361 1.391 . S
C361 H349 0.950 . S
C361 C357 1.393 . S
C361 C360 1.391 . S
C362 H352 0.950 . S
C362 C363 1.386 . S
C362 C364 1.391 . S
C363 C362 1.386 . S
C363 C367 1.393 . S
C364 H353 0.950 . S
C364 C362 1.391 . S
C364 C365 1.400 . S
C365 C359 1.491 . S
C365 C364 1.400 . S
C365 C366 1.398 . S
C366 H354 0.950 . S
C366 C365 1.398 . S
C366 C367 1.391 . S
C367 H355 0.950 1_655 S
C367 C363 1.393 . S
C367 C366 1.391 . S
H368 C376 0.950 . S
H369 C381 0.950 . S
H370 C378 0.950 . S
H371 C380 0.950 . S
H372 C382 0.950 1_655 S
H373 C384 0.950 . S
H374 C386 0.950 . S
H375 C387 0.950 . S
C376 H368 0.950 . S
C376 C377 1.386 . S
C376 C378 1.391 . S
C377 C376 1.386 . S
C377 C381 1.393 . S
C378 H370 0.950 . S
C378 C376 1.391 . S
C378 C379 1.400 . S
C379 C378 1.400 . S
C379 C380 1.398 . S
C379 C385 1.491 . S
C380 H371 0.950 . S
C380 C379 1.398 . S
C380 C381 1.391 . S
C381 H369 0.950 . S
C381 C377 1.393 . S
C381 C380 1.391 . S
C382 H372 0.950 1_455 S
C382 C383 1.386 . S
C382 C384 1.391 . S
C383 C382 1.386 . S
C383 C387 1.393 . S
C384 H373 0.950 . S
C384 C382 1.391 . S
C384 C385 1.400 . S
C385 C379 1.491 . S
C385 C384 1.400 . S
C385 C386 1.398 . S
C386 H374 0.950 . S
C386 C385 1.398 . S
C386 C387 1.391 . S
C387 H375 0.950 . S
C387 C383 1.393 . S
C387 C386 1.391 . S
H388 C396 0.950 . S
H389 C401 0.950 . S
H390 C398 0.950 . S
H391 C400 0.950 . S
H392 C402 0.950 . S
H393 C404 0.950 . S
H394 C406 0.950 . S
H395 C407 0.950 . S
C396 H388 0.950 . S
C396 C397 1.391 . S
C396 C398 1.391 . S
C397 C396 1.391 . S
C397 C401 1.388 1_565 S
C398 H390 0.950 . S
C398 C396 1.391 . S
C398 C399 1.400 . S
C399 C398 1.400 . S
C399 C400 1.398 1_565 S
C399 C405 1.491 . S
C400 H391 0.950 . S
C400 C399 1.398 1_545 S
C400 C401 1.391 . S
C401 H389 0.950 . S
C401 C397 1.388 1_545 S
C401 C400 1.391 . S
C402 H392 0.950 . S
C402 C403 1.386 1_545 S
C402 C404 1.391 . S
C403 C402 1.386 1_565 S
C403 C407 1.393 . S
C404 H393 0.950 . S
C404 C402 1.391 . S
C404 C405 1.400 1_545 S
C405 C399 1.491 . S
C405 C404 1.400 1_565 S
C405 C406 1.398 . S
C406 H394 0.950 . S
C406 C405 1.398 . S
C406 C407 1.391 . S
C407 H395 0.950 . S
C407 C403 1.393 . S
C407 C406 1.391 . S
H408 C416 0.950 . S
H409 C421 0.950 . S
H410 C418 0.950 . S
H411 C420 0.950 . S
H412 C422 0.950 . S
H413 C424 0.950 . S
H414 C426 0.950 . S
H415 C427 0.950 . S
C416 H408 0.950 . S
C416 C417 1.386 . S
C416 C418 1.391 . S
C417 C416 1.386 . S
C417 C421 1.393 . S
C418 H410 0.950 . S
C418 C416 1.391 . S
C418 C419 1.400 . S
C419 C418 1.400 . S
C419 C420 1.398 . S
C419 C425 1.491 . S
C420 H411 0.950 . S
C420 C419 1.398 . S
C420 C421 1.391 . S
C421 H409 0.950 . S
C421 C417 1.393 . S
C421 C420 1.391 . S
C422 H412 0.950 . S
C422 C423 1.386 . S
C422 C424 1.391 . S
C423 C422 1.386 . S
C423 C427 1.393 . S
C424 H413 0.950 . S
C424 C422 1.391 . S
C424 C425 1.400 . S
C425 C419 1.491 . S
C425 C424 1.400 . S
C425 C426 1.398 . S
C426 H414 0.950 . S
C426 C425 1.398 . S
C426 C427 1.391 . S
C427 H415 0.950 . S
C427 C423 1.393 . S
C427 C426 1.391 . S
H428 C436 0.950 . S
H429 C441 0.950 . S
H430 C438 0.950 . S
H431 C440 0.950 . S
H432 C442 0.950 . S
H433 C444 0.950 . S
H434 C446 0.950 . S
H435 C447 0.950 . S
C436 H428 0.950 . S
C436 C437 1.386 . S
C436 C438 1.391 . S
C437 C436 1.386 . S
C437 C441 1.393 . S
C438 H430 0.950 . S
C438 C436 1.391 . S
C438 C439 1.400 . S
C439 C438 1.400 . S
C439 C440 1.398 . S
C439 C445 1.491 . S
C440 H431 0.950 . S
C440 C439 1.398 . S
C440 C441 1.391 . S
C441 H429 0.950 . S
C441 C437 1.393 . S
C441 C440 1.391 . S
C442 H432 0.950 . S
C442 C443 1.386 . S
C442 C444 1.391 . S
C443 C442 1.386 . S
C443 C447 1.393 . S
C444 H433 0.950 . S
C444 C442 1.391 . S
C444 C445 1.400 . S
C445 C439 1.491 . S
C445 C444 1.400 . S
C445 C446 1.398 . S
C446 H434 0.950 . S
C446 C445 1.398 . S
C446 C447 1.391 . S
C447 H435 0.950 . S
C447 C443 1.393 . S
C447 C446 1.391 . S
H448 C456 0.950 . S
H449 C461 0.950 . S
H450 C458 0.950 . S
H451 C460 0.950 . S
H452 C462 0.950 . S
H453 C464 0.950 . S
H454 C466 0.950 1_455 S
H455 C467 0.950 . S
C456 H448 0.950 . S
C456 C457 1.386 . S
C456 C458 1.391 . S
C457 C456 1.386 . S
C457 C461 1.393 . S
C458 H450 0.950 . S
C458 C456 1.391 . S
C458 C459 1.400 . S
C459 C458 1.400 . S
C459 C460 1.398 . S
C459 C465 1.491 . S
C460 H451 0.950 . S
C460 C459 1.398 . S
C460 C461 1.391 . S
C461 H449 0.950 . S
C461 C457 1.393 . S
C461 C460 1.391 . S
C462 H452 0.950 . S
C462 C463 1.386 1_655 S
C462 C464 1.391 . S
C463 C462 1.386 1_455 S
C463 C467 1.393 . S
C464 H453 0.950 . S
C464 C462 1.391 . S
C464 C465 1.400 . S
C465 C459 1.491 . S
C465 C464 1.400 . S
C465 C466 1.398 . S
C466 H454 0.950 1_655 S
C466 C465 1.398 . S
C466 C467 1.391 1_655 S
C467 H455 0.950 . S
C467 C463 1.393 . S
C467 C466 1.391 1_455 S
H468 C476 0.950 . S
H469 C481 0.950 . S
H470 C478 0.950 . S
H471 C480 0.950 . S
H472 C482 0.950 . S
H473 C484 0.950 . S
H474 C486 0.950 . S
H475 C487 0.950 . S
C476 H468 0.950 . S
C476 C477 1.403 1_556 S
C476 C478 1.391 . S
C477 C476 1.403 1_554 S
C477 C481 1.374 1_565 S
C478 H470 0.950 . S
C478 C476 1.391 . S
C478 C479 1.400 1_565 S
C479 C478 1.400 1_545 S
C479 C480 1.398 1_556 S
C479 C485 1.491 . S
C480 H471 0.950 . S
C480 C479 1.398 1_554 S
C480 C481 1.391 . S
C481 H469 0.950 . S
C481 C477 1.374 1_545 S
C481 C480 1.391 . S
C482 H472 0.950 . S
C482 C483 1.386 . S
C482 C484 1.391 . S
C483 C482 1.386 . S
C483 C487 1.393 1_545 S
C484 H473 0.950 . S
C484 C482 1.391 . S
C484 C485 1.400 . S
C485 C479 1.491 . S
C485 C484 1.400 . S
C485 C486 1.398 1_545 S
C486 H474 0.950 . S
C486 C485 1.398 1_565 S
C486 C487 1.391 . S
C487 H475 0.950 . S
C487 C483 1.393 1_565 S
C487 C486 1.391 . S
H488 C496 0.950 . S
H489 C501 0.950 . S
H490 C498 0.950 . S
H491 C500 0.950 . S
H492 C502 0.950 . S
H493 C504 0.950 . S
H494 C506 0.950 . S
H495 C507 0.950 . S
C496 H488 0.950 . S
C496 C497 1.386 1_556 S
C496 C498 1.391 . S
C497 C496 1.386 1_554 S
C497 C501 1.393 . S
C498 H490 0.950 . S
C498 C496 1.391 . S
C498 C499 1.400 . S
C499 C498 1.400 . S
C499 C500 1.398 1_556 S
C499 C505 1.491 . S
C500 H491 0.950 . S
C500 C499 1.398 1_554 S
C500 C501 1.391 . S
C501 H489 0.950 . S
C501 C497 1.393 . S
C501 C500 1.391 . S
C502 H492 0.950 . S
C502 C503 1.386 . S
C502 C504 1.391 . S
C503 C502 1.386 . S
C503 C507 1.393 . S
C504 H493 0.950 . S
C504 C502 1.391 . S
C504 C505 1.400 . S
C505 C499 1.491 . S
C505 C504 1.400 . S
C505 C506 1.398 . S
C506 H494 0.950 . S
C506 C505 1.398 . S
C506 C507 1.391 . S
C507 H495 0.950 . S
C507 C503 1.393 . S
C507 C506 1.391 . S
H508 C516 0.950 . S
H509 C521 0.950 . S
H510 C518 0.950 . S
H511 C520 0.950 . S
H512 C522 0.950 . S
H513 C524 0.950 . S
H514 C526 0.950 . S
H515 C527 0.950 . S
C516 H508 0.950 . S
C516 C517 1.386 . S
C516 C518 1.391 . S
C517 C516 1.386 . S
C517 C521 1.393 . S
C518 H510 0.950 . S
C518 C516 1.391 . S
C518 C519 1.400 1_554 S
C519 C518 1.400 1_556 S
C519 C520 1.398 . S
C519 C525 1.491 . S
C520 H511 0.950 . S
C520 C519 1.398 . S
C520 C521 1.391 1_556 S
C521 H509 0.950 . S
C521 C517 1.393 . S
C521 C520 1.391 1_554 S
C522 H512 0.950 . S
C522 C523 1.386 . S
C522 C524 1.391 . S
C523 C522 1.386 . S
C523 C527 1.393 . S
C524 H513 0.950 . S
C524 C522 1.391 . S
C524 C525 1.400 . S
C525 C519 1.491 . S
C525 C524 1.400 . S
C525 C526 1.398 . S
C526 H514 0.950 . S
C526 C525 1.398 . S
C526 C527 1.391 . S
C527 H515 0.950 . S
C527 C523 1.393 . S
C527 C526 1.391 . S
H528 C536 0.950 . S
H529 C541 0.950 . S
H530 C538 0.950 . S
H531 C540 0.950 . S
H532 C542 0.950 . S
H533 C544 0.950 . S
H534 C546 0.950 . S
H535 C547 0.950 . S
C536 H528 0.950 . S
C536 C537 1.386 . S
C536 C538 1.391 . S
C537 C536 1.386 . S
C537 C541 1.393 . S
C538 H530 0.950 . S
C538 C536 1.391 . S
C538 C539 1.400 . S
C539 C538 1.400 . S
C539 C540 1.398 . S
C539 C545 1.491 . S
C540 H531 0.950 . S
C540 C539 1.398 . S
C540 C541 1.391 . S
C541 H529 0.950 . S
C541 C537 1.393 . S
C541 C540 1.391 . S
C542 H532 0.950 . S
C542 C543 1.386 . S
C542 C544 1.391 . S
C543 C542 1.386 . S
C543 C547 1.393 . S
C544 H533 0.950 . S
C544 C542 1.391 . S
C544 C545 1.400 . S
C545 C539 1.491 . S
C545 C544 1.400 . S
C545 C546 1.398 . S
C546 H534 0.950 . S
C546 C545 1.398 . S
C546 C547 1.391 . S
C547 H535 0.950 . S
C547 C543 1.393 . S
C547 C546 1.391 . S
H548 C556 0.950 . S
H549 C561 0.950 . S
H550 C558 0.950 . S
H551 C560 0.950 . S
H552 C562 0.950 . S
H553 C564 0.950 . S
H554 C566 0.950 . S
H555 C567 0.950 . S
C556 H548 0.950 . S
C556 C557 1.386 . S
C556 C558 1.391 . S
C557 C556 1.386 . S
C557 C561 1.393 1_545 S
C558 H550 0.950 . S
C558 C556 1.391 . S
C558 C559 1.400 . S
C559 C558 1.400 . S
C559 C560 1.398 1_545 S
C559 C565 1.491 . S
C560 H551 0.950 . S
C560 C559 1.398 1_565 S
C560 C561 1.391 . S
C561 H549 0.950 . S
C561 C557 1.393 1_565 S
C561 C560 1.391 . S
C562 H552 0.950 . S
C562 C563 1.386 1_565 S
C562 C564 1.391 1_556 S
C563 C562 1.386 1_545 S
C563 C567 1.393 . S
C564 H553 0.950 . S
C564 C562 1.391 1_554 S
C564 C565 1.400 1_565 S
C565 C559 1.491 . S
C565 C564 1.400 1_545 S
C565 C566 1.398 1_554 S
C566 H554 0.950 . S
C566 C565 1.398 1_556 S
C566 C567 1.391 . S
C567 H555 0.950 . S
C567 C563 1.393 . S
C567 C566 1.391 . S
H568 C576 0.950 . S
H569 C581 0.950 . S
H570 C578 0.950 . S
H571 C580 0.950 . S
H572 C582 0.950 . S
H573 C584 0.951 . S
H574 C586 0.950 . S
H575 C587 0.950 . S
C576 H568 0.950 . S
C576 C577 1.386 . S
C576 C578 1.391 . S
C577 C576 1.386 . S
C577 C581 1.393 . S
C578 H570 0.950 . S
C578 C576 1.391 . S
C578 C579 1.400 . S
C579 C578 1.400 . S
C579 C580 1.398 . S
C579 C585 1.491 . S
C580 H571 0.950 . S
C580 C579 1.398 . S
C580 C581 1.391 . S
C581 H569 0.950 . S
C581 C577 1.393 . S
C581 C580 1.391 . S
C582 H572 0.950 . S
C582 C583 1.386 . S
C582 C584 1.389 1_556 S
C583 C582 1.386 . S
C583 C587 1.393 . S
C584 H573 0.951 . S
C584 C582 1.389 1_554 S
C584 C585 1.401 . S
C585 C579 1.491 . S
C585 C584 1.401 . S
C585 C586 1.398 1_554 S
C586 H574 0.950 . S
C586 C585 1.398 1_556 S
C586 C587 1.391 . S
C587 H575 0.950 . S
C587 C583 1.393 . S
C587 C586 1.391 . S
H588 C596 0.950 . S
H589 C601 0.950 . S
H590 C598 0.950 . S
H591 C600 0.950 . S
H592 C602 0.950 . S
H593 C604 0.950 . S
H594 C606 0.950 . S
H595 C607 0.950 . S
C596 H588 0.950 . S
C596 C597 1.386 . S
C596 C598 1.391 . S
C597 C596 1.386 . S
C597 C601 1.393 . S
C598 H590 0.950 . S
C598 C596 1.391 . S
C598 C599 1.400 . S
C599 C598 1.400 . S
C599 C600 1.398 . S
C599 C605 1.491 1_554 S
C600 H591 0.950 . S
C600 C599 1.398 . S
C600 C601 1.391 . S
C601 H589 0.950 . S
C601 C597 1.393 . S
C601 C600 1.391 . S
C602 H592 0.950 . S
C602 C603 1.386 . S
C602 C604 1.391 . S
C603 C602 1.386 . S
C603 C607 1.393 . S
C604 H593 0.950 . S
C604 C602 1.391 . S
C604 C605 1.400 . S
C605 C599 1.491 1_556 S
C605 C604 1.400 . S
C605 C606 1.398 . S
C606 H594 0.950 . S
C606 C605 1.398 . S
C606 C607 1.391 . S
C607 H595 0.950 . S
C607 C603 1.393 . S
C607 C606 1.391 . S
H608 C616 0.950 . S
H609 C621 0.950 . S
H610 C618 0.950 . S
H611 C620 0.950 . S
H612 C622 0.950 . S
H613 C624 0.950 . S
H614 C626 0.950 . S
H615 C627 0.950 . S
C616 H608 0.950 . S
C616 C617 1.386 . S
C616 C618 1.391 . S
C617 C616 1.386 . S
C617 C621 1.393 . S
C618 H610 0.950 . S
C618 C616 1.391 . S
C618 C619 1.400 . S
C619 C618 1.400 . S
C619 C620 1.398 . S
C619 C625 1.491 . S
C620 H611 0.950 . S
C620 C619 1.398 . S
C620 C621 1.391 . S
C621 H609 0.950 . S
C621 C617 1.393 . S
C621 C620 1.391 . S
C622 H612 0.950 . S
C622 C623 1.386 . S
C622 C624 1.391 . S
C623 C622 1.386 . S
C623 C627 1.393 . S
C624 H613 0.950 . S
C624 C622 1.391 . S
C624 C625 1.400 . S
C625 C619 1.491 . S
C625 C624 1.400 . S
C625 C626 1.398 . S
C626 H614 0.950 . S
C626 C625 1.398 . S
C626 C627 1.391 . S
C627 H615 0.950 . S
C627 C623 1.393 . S
C627 C626 1.391 . S
H628 C636 0.950 . S
H629 C641 0.950 . S
H630 C638 0.950 . S
H631 C640 0.950 . S
H632 C642 0.950 . S
H633 C644 0.950 . S
H634 C646 0.950 . S
H635 C647 0.950 . S
C636 H628 0.950 . S
C636 C637 1.386 . S
C636 C638 1.391 . S
C637 C636 1.386 . S
C637 C641 1.393 1_565 S
C638 H630 0.950 . S
C638 C636 1.391 . S
C638 C639 1.400 . S
C639 C638 1.400 . S
C639 C640 1.398 1_565 S
C639 C645 1.491 . S
C640 H631 0.950 . S
C640 C639 1.398 1_545 S
C640 C641 1.391 . S
C641 H629 0.950 . S
C641 C637 1.393 1_545 S
C641 C640 1.391 . S
C642 H632 0.950 . S
C642 C643 1.386 1_545 S
C642 C644 1.391 . S
C643 C642 1.386 1_565 S
C643 C647 1.393 . S
C644 H633 0.950 . S
C644 C642 1.391 . S
C644 C645 1.400 1_545 S
C645 C639 1.491 . S
C645 C644 1.400 1_565 S
C645 C646 1.398 . S
C646 H634 0.950 . S
C646 C645 1.398 . S
C646 C647 1.391 . S
C647 H635 0.950 . S
C647 C643 1.393 . S
C647 C646 1.391 . S
H648 C656 0.950 . S
H649 C661 0.950 . S
H650 C658 0.950 . S
H651 C660 0.950 . S
H652 C662 0.950 . S
H653 C664 0.950 . S
H654 C666 0.950 . S
H655 C667 0.950 . S
C656 H648 0.950 . S
C656 C657 1.386 . S
C656 C658 1.391 . S
C657 C656 1.386 . S
C657 C661 1.393 . S
C658 H650 0.950 . S
C658 C656 1.391 . S
C658 C659 1.400 . S
C659 C658 1.400 . S
C659 C660 1.398 . S
C659 C665 1.491 . S
C660 H651 0.950 . S
C660 C659 1.398 . S
C660 C661 1.391 . S
C661 H649 0.950 . S
C661 C657 1.393 . S
C661 C660 1.391 . S
C662 H652 0.950 . S
C662 C663 1.386 . S
C662 C664 1.391 . S
C663 C662 1.386 . S
C663 C667 1.393 . S
C664 H653 0.950 . S
C664 C662 1.391 . S
C664 C665 1.400 . S
C665 C659 1.491 . S
C665 C664 1.400 . S
C665 C666 1.398 . S
C666 H654 0.950 . S
C666 C665 1.398 . S
C666 C667 1.391 . S
C667 H655 0.950 . S
C667 C663 1.393 . S
C667 C666 1.391 . S
H668 C676 0.950 . S
H669 C681 0.950 . S
H670 C678 0.950 . S
H671 C680 0.950 . S
H672 C682 0.950 . S
H673 C684 0.950 . S
H674 C686 0.950 . S
H675 C687 0.950 . S
C676 H668 0.950 . S
C676 C677 1.386 . S
C676 C678 1.391 . S
C677 C676 1.386 . S
C677 C681 1.393 . S
C678 H670 0.950 . S
C678 C676 1.391 . S
C678 C679 1.400 . S
C679 C678 1.400 . S
C679 C680 1.398 . S
C679 C685 1.491 . S
C680 H671 0.950 . S
C680 C679 1.398 . S
C680 C681 1.391 . S
C681 H669 0.950 . S
C681 C677 1.393 . S
C681 C680 1.391 . S
C682 H672 0.950 . S
C682 C683 1.386 . S
C682 C684 1.391 . S
C683 C682 1.386 . S
C683 C687 1.393 . S
C684 H673 0.950 . S
C684 C682 1.391 . S
C684 C685 1.400 . S
C685 C679 1.491 . S
C685 C684 1.400 . S
C685 C686 1.398 . S
C686 H674 0.950 . S
C686 C685 1.398 . S
C686 C687 1.391 . S
C687 H675 0.950 . S
C687 C683 1.393 . S
C687 C686 1.391 . S
C217 C61 1.799 . S
C223 C89 1.813 . S
C243 C110 1.555 . S
C237 C70 1.536 . S
C263 C144 1.370 . S
C257 C43 1.349 . S
C283 C178 1.552 . S
C277 C52 1.527 . S
C303 C80 1.805 . S
C297 C25 1.785 1_545 S
C317 C34 1.530 . S
C323 C119 1.557 . S
C337 C7 1.343 . S
C343 C153 1.363 . S
C357 C16 1.547 . S
C363 C187 1.559 . S
C383 C101 0.433 . S
C377 C50 0.602 . S
C403 C106 0.659 . S
C397 C59 0.653 . S
C423 C140 0.670 . S
C417 C67 0.661 . S
C437 C41 0.338 . S
C443 C174 0.303 . S
C457 C14 0.567 . S
C463 C72 0.417 . S
C483 C135 0.675 . S
C477 C23 0.660 . S
C503 C169 0.688 . S
C497 C31 0.697 . S
C517 C5 0.369 . S
C523 C203 0.295 . S
C537 C49 1.329 . S
C543 C85 1.380 . S
C557 C58 1.738 1_545 S
C563 C114 1.801 . S
C583 C148 1.535 . S
C577 C68 1.507 . S
C603 C182 1.552 . S
C597 C40 1.485 . S
C617 C13 1.350 . S
C623 C76 1.389 . S
C643 C123 1.801 . S
C637 C22 1.750 . S
C663 C157 1.540 . S
C657 C32 1.492 . S
C677 C4 1.493 . S
C683 C191 1.549 . S
