# Generated by pormake.
# Topology pth, (4,4)-cn, num edge types: 1
# Building blocks:
#     Node 0, Type 0, BuildingBlock: QUQFOY_clean_sbu_3, # of connection points: 4
#     Node 1, Type 0, BuildingBlock: QUQFOY_clean_sbu_3, # of connection points: 4
#     Node 2, Type 0, BuildingBlock: QUQFOY_clean_sbu_3, # of connection points: 4
#     Node 3, Type 1, BuildingBlock: NAWXER_clean_linker_0, # of connection points: 4
#     Node 4, Type 1, BuildingBlock: NAWXER_clean_linker_0, # of connection points: 4
#     Node 5, Type 1, BuildingBlock: NAWXER_clean_linker_0, # of connection points: 4
#     Edge 6, Type (0, 1), BuildingBlock: KIFKEQ_clean_linker_1, # of connection points: 2
#     Edge 7, Type (0, 1), BuildingBlock: KIFKEQ_clean_linker_1, # of connection points: 2
#     Edge 8, Type (0, 1), BuildingBlock: KIFKEQ_clean_linker_1, # of connection points: 2
#     Edge 9, Type (0, 1), BuildingBlock: KIFKEQ_clean_linker_1, # of connection points: 2
#     Edge 10, Type (0, 1), BuildingBlock: KIFKEQ_clean_linker_1, # of connection points: 2
#     Edge 11, Type (0, 1), BuildingBlock: KIFKEQ_clean_linker_1, # of connection points: 2
#     Edge 12, Type (0, 1), BuildingBlock: KIFKEQ_clean_linker_1, # of connection points: 2
#     Edge 13, Type (0, 1), BuildingBlock: KIFKEQ_clean_linker_1, # of connection points: 2
#     Edge 14, Type (0, 1), BuildingBlock: KIFKEQ_clean_linker_1, # of connection points: 2
#     Edge 15, Type (0, 1), BuildingBlock: KIFKEQ_clean_linker_1, # of connection points: 2
#     Edge 16, Type (0, 1), BuildingBlock: KIFKEQ_clean_linker_1, # of connection points: 2
#     Edge 17, Type (0, 1), BuildingBlock: KIFKEQ_clean_linker_1, # of connection points: 2
# Relax obj value: 0.008
# Max RMSD: 0.059
# Mean RMSD: 0.041
data_MOF--net-pth--node1-QUQFOY_clean_sbu_3--node2-NAWXER_clean_linker_0--edge1-KIFKEQ_clean_linker_1
_symmetry_space_group_name_H-M    P1
_symmetry_Int_Tables_number       1
_symmetry_cell_setting            triclinic
loop_
_symmetry_equiv_pos_as_xyz
'x, y, z'
_cell_length_a     29.823593
_cell_length_b     29.571465
_cell_length_c     68.970255
_cell_angle_alpha  89.86857
_cell_angle_beta   90.806914
_cell_angle_gamma 120.7551
loop_
_atom_site_label
_atom_site_type_symbol
_atom_site_fract_x
_atom_site_fract_y
_atom_site_fract_z
_atom_type_partial_charge
C0 C 0.97791 0.14294 0.06782 0.0
O1 O 0.95536 0.14139 0.05187 0.0
Cd2 Cd 0.95104 0.08976 0.02423 0.0
O3 O -0.00058 0.11553 0.07017 0.0
Cd4 Cd 0.01359 0.05223 0.0515 0.0
C5 C 0.08277 0.14301 0.0171 0.0
O6 O 0.92938 0.00372 0.03426 0.0
O7 O -0.01002 0.98877 0.02539 0.0
O8 O 0.98624 -0.00557 0.07918 0.0
C9 C 0.94304 0.97771 0.02375 0.0
O10 O 0.03859 0.13578 0.01166 0.0
C11 C 0.02821 -0.00611 0.08152 0.0
O12 O 0.08683 0.11982 0.03209 0.0
O13 O 0.06536 0.02241 0.07015 0.0
C14 C 0.13401 0.09675 0.40404 0.0
O15 O 0.15793 0.12816 0.39026 0.0
Cd16 Cd 0.11492 0.13853 0.36244 0.0
O17 O 0.08429 0.07129 0.40438 0.0
Cd18 Cd 0.00906 0.06306 0.38525 0.0
C19 C 0.04046 0.00696 0.34941 0.0
O20 O 0.04726 0.15263 0.3728 0.0
O21 O 0.97606 0.09336 0.35878 0.0
O22 O 0.97595 0.07614 0.41531 0.0
C23 C 0.01131 0.14145 0.36033 0.0
O24 O 0.07724 0.05373 0.34606 0.0
C25 C 0.93046 0.03602 0.41374 0.0
O26 O 0.0102 -0.00282 0.36373 0.0
O27 O 0.92134 0.00667 0.39897 0.0
C28 C 0.94113 0.08881 0.6932 0.0
O29 O 0.94826 0.11929 0.70734 0.0
Cd30 Cd -0.00371 0.12344 0.73599 0.0
O31 O 0.96411 0.06243 0.69291 0.0
Cd32 Cd 0.03005 0.05298 0.71235 0.0
C33 C 0.93746 0.99025 0.74598 0.0
O34 O 0.08051 0.14121 0.7266 0.0
O35 O 0.09243 0.08136 0.73936 0.0
O36 O 0.07752 0.069 0.68241 0.0
C37 C 0.10503 0.12929 0.73879 0.0
O38 O 0.94449 0.03561 0.74975 0.0
C39 C 0.08289 0.02918 0.68342 0.0
O40 O 0.96254 0.98374 0.73252 0.0
O41 O 0.06256 -0.00099 0.69788 0.0
C42 C -0.00946 0.39338 0.2499 0.0
C43 C 0.02995 0.40855 0.26416 0.0
C44 C -0.00954 0.43071 0.23744 0.0
C45 C 0.03008 0.48383 0.23887 0.0
C46 C 0.06996 0.46163 0.26533 0.0
C47 C 0.06983 0.49888 0.25289 0.0
C48 C 0.02793 0.52478 0.22723 0.0
C49 C 0.0526 0.42894 0.18177 0.0
C50 C 0.00723 0.39795 0.17058 0.0
C51 C 0.0559 0.468 0.19414 0.0
C52 C 0.01423 0.47716 0.19518 0.0
C53 C 0.96516 0.40642 0.17198 0.0
C54 C 0.96893 0.44624 0.184 0.0
C55 C 0.01884 0.52091 0.207 0.0
C56 C 0.07406 0.7383 0.18527 0.0
C57 C 0.03224 0.72939 0.17307 0.0
C58 C 0.07075 0.69754 0.19666 0.0
C59 C 0.02592 0.64713 0.19573 0.0
C60 C 0.98733 0.67903 0.17223 0.0
C61 C 0.98452 0.63798 0.18328 0.0
C62 C 0.02307 0.60362 0.20726 0.0
C63 C -0.00614 0.70119 0.24919 0.0
C64 C 0.03077 0.72427 0.26438 0.0
C65 C -0.00588 0.66365 0.23701 0.0
C66 C 0.03167 0.64882 0.23961 0.0
C67 C 0.06807 0.70906 0.26704 0.0
C68 C 0.06832 0.67152 0.25484 0.0
C69 C 0.03022 0.60662 0.22759 0.0
H70 H 0.95867 0.35299 0.24883 0.0
H71 H 0.95836 0.41829 0.22721 0.0
H72 H 0.10126 0.47451 0.27597 0.0
H73 H 0.10062 0.53969 0.25435 0.0
H74 H 0.08552 0.42308 0.18086 0.0
H75 H 0.09141 0.49192 0.20251 0.0
H76 H 0.93001 0.38328 0.16333 0.0
H77 H 0.93655 0.45303 0.18454 0.0
H78 H 0.10902 0.77687 0.18612 0.0
H79 H 0.10341 0.70517 0.20601 0.0
H80 H 0.95478 0.67131 0.1628 0.0
H81 H 0.9498 0.59925 0.18228 0.0
H82 H 0.9648 0.71223 0.24668 0.0
H83 H 0.9642 0.64545 0.22583 0.0
H84 H 0.09655 0.72549 0.27877 0.0
H85 H 0.09711 0.66008 0.25734 0.0
N86 N 0.03303 0.5674 0.23675 0.0
N87 N 0.01699 0.56059 0.19774 0.0
C88 C 0.66313 0.04387 0.5171 0.0
C89 C 0.65015 0.00477 0.5029 0.0
C90 C 0.62459 0.04296 0.52867 0.0
C91 C 0.57232 0.00241 0.52657 0.0
C92 C 0.59765 0.96449 0.50071 0.0
C93 C 0.55915 0.96351 0.51236 0.0
C94 C 0.53073 0.00195 0.53823 0.0
C95 C 0.63898 0.98828 0.58165 0.0
C96 C 0.66018 0.0288 0.59564 0.0
C97 C 0.59807 0.98138 0.56938 0.0
C98 C 0.57837 0.01544 0.57072 0.0
C99 C 0.6404 0.06279 0.59684 0.0
C100 C 0.59986 0.05604 0.58458 0.0
C101 C 0.5338 0.00828 0.55861 0.0
C102 C 0.31948 0.96861 0.57801 0.0
C103 C 0.33366 0.00524 0.59324 0.0
C104 C 0.35771 0.96843 0.56652 0.0
C105 C 0.41084 0.00518 0.56993 0.0
C106 C 0.38692 0.0413 0.5968 0.0
C107 C 0.42502 0.04111 0.58533 0.0
C108 C 0.45215 0.00518 0.55821 0.0
C109 C 0.36587 0.05171 0.51674 0.0
C110 C 0.34305 0.01868 0.50051 0.0
C111 C 0.39991 0.04551 0.52905 0.0
C112 C 0.41104 0.00543 0.52562 0.0
C113 C 0.35429 0.97866 0.49706 0.0
C114 C 0.38809 0.97223 0.50947 0.0
C115 C 0.45015 0.00123 0.53776 0.0
H116 H 0.70316 0.07528 0.51929 0.0
H117 H 0.63565 0.07438 0.53911 0.0
H118 H 0.58609 0.93429 0.48971 0.0
H119 H 0.51895 0.93231 0.51026 0.0
H120 H 0.65305 0.96112 0.58055 0.0
H121 H 0.5813 0.94895 0.55912 0.0
H122 H 0.65638 0.09483 0.60727 0.0
H123 H 0.5853 0.08277 0.58591 0.0
H124 H 0.27883 0.94041 0.57484 0.0
H125 H 0.34573 0.93933 0.55507 0.0
H126 H 0.39927 0.06938 0.60864 0.0
H127 H 0.46573 0.0694 0.58843 0.0
H128 H 0.3589 0.08361 0.51955 0.0
H129 H 0.41867 0.07311 0.54091 0.0
H130 H 0.33711 0.95246 0.48471 0.0
H131 H 0.39661 0.9415 0.50638 0.0
N132 N 0.48905 -0.00117 0.52862 0.0
N133 N 0.49425 0.0093 0.56773 0.0
C134 C 0.38786 0.37508 0.84963 0.0
C135 C 0.36433 0.3915 0.83568 0.0
C136 C 0.42726 0.41169 0.862 0.0
C137 C 0.44355 0.46533 0.86076 0.0
C138 C 0.38013 0.44512 0.83476 0.0
C139 C 0.41953 0.48163 0.84708 0.0
C140 C 0.48854 0.50537 0.87233 0.0
C141 C 0.3652 0.41435 0.91658 0.0
C142 C 0.37876 0.38978 0.93109 0.0
C143 C 0.40252 0.44941 0.90368 0.0
C144 C 0.45412 0.46017 0.90482 0.0
C145 C 0.43027 0.40006 0.93208 0.0
C146 C 0.46766 0.43524 0.91915 0.0
C147 C 0.49504 0.50118 0.8925 0.0
C148 C 0.66377 0.71339 0.91587 0.0
C149 C 0.69608 0.70297 0.92784 0.0
C150 C 0.62645 0.67449 0.90358 0.0
C151 C 0.62014 0.62415 0.90315 0.0
C152 C 0.69042 0.65268 0.92689 0.0
C153 C 0.6523 0.61347 0.91487 0.0
C154 C 0.57696 0.58168 0.89178 0.0
C155 C 0.69703 0.67525 0.84627 0.0
C156 C 0.68321 0.70528 0.83443 0.0
C157 C 0.66092 0.63766 0.85893 0.0
C158 C 0.61011 0.62883 0.85983 0.0
C159 C 0.63246 0.69703 0.83585 0.0
C160 C 0.59613 0.6587 0.8482 0.0
C161 C 0.57036 0.58585 0.87174 0.0
H162 H 0.37717 0.3342 0.85052 0.0
H163 H 0.44612 0.39827 0.87208 0.0
H164 H 0.36229 0.45899 0.8244 0.0
H165 H 0.43158 0.52284 0.84582 0.0
H166 H 0.32574 0.4069 0.91531 0.0
H167 H 0.39128 0.46923 0.89318 0.0
H168 H 0.44206 0.3822 0.94321 0.0
H169 H 0.50741 0.44352 0.92049 0.0
H170 H 0.66593 0.75103 0.91642 0.0
H171 H 0.60118 0.68315 0.89493 0.0
H172 H 0.71517 0.64333 0.93553 0.0
H173 H 0.64779 0.57471 0.91476 0.0
H174 H 0.73525 0.6796 0.84541 0.0
H175 H 0.67216 0.61428 0.86755 0.0
H176 H 0.62055 0.72011 0.82741 0.0
H177 H 0.55704 0.65239 0.84871 0.0
N178 N 0.52643 0.54766 0.86278 0.0
N179 N 0.53918 0.53951 0.90142 0.0
H180 H -0.01059 0.13379 0.1068 0.0
H181 H 0.97397 0.23262 0.06423 0.0
H182 H -0.00334 0.19433 0.1326 0.0
H183 H 0.98279 0.29359 0.08997 0.0
H184 H 0.07332 0.41494 0.14108 0.0
H185 H 0.06567 0.35154 0.11644 0.0
H186 H 0.92796 0.22932 0.14422 0.0
H187 H 0.93471 0.29316 0.16859 0.0
C188 C 0.98764 0.16839 0.10296 0.0
C189 C 0.98101 0.17846 0.08351 0.0
C190 C -0.00834 0.20281 0.1177 0.0
C191 C -0.00955 0.24846 0.11315 0.0
C192 C 0.98402 0.25865 0.09375 0.0
C193 C 0.97873 0.22367 0.07909 0.0
C194 C 0.04172 0.37442 0.14197 0.0
C195 C 0.00459 0.35871 0.15666 0.0
C196 C 0.03724 0.33838 0.12789 0.0
C197 C -0.00375 0.28582 0.12853 0.0
C198 C 0.95997 0.26968 0.14353 0.0
C199 C 0.96374 0.30604 0.15737 0.0
H200 H 0.82718 0.95781 0.41321 0.0
H201 H 0.94139 0.09286 0.44629 0.0
H202 H 0.75896 0.94796 0.43516 0.0
H203 H 0.8737 0.08264 0.46822 0.0
H204 H 0.73184 0.0916 0.48645 0.0
H205 H 0.79913 0.09572 0.46573 0.0
H206 H 0.72817 0.92695 0.46916 0.0
H207 H 0.66081 0.92276 0.49017 0.0
C208 C 0.83783 0.98495 0.42528 0.0
C209 C 0.88964 0.02633 0.42792 0.0
C210 C 0.79881 0.97923 0.43788 0.0
C211 C 0.81084 0.01489 0.45331 0.0
C212 C 0.86296 0.05512 0.45627 0.0
C213 C 0.90184 0.06075 0.44375 0.0
C214 C 0.73084 0.05537 0.48303 0.0
C215 C 0.69103 0.00689 0.49012 0.0
C216 C 0.76944 0.05774 0.47111 0.0
C217 C 0.76922 0.01169 0.46589 0.0
C218 C 0.72916 0.96308 0.47278 0.0
C219 C 0.69056 0.96071 0.4848 0.0
H220 H 0.93907 0.9011 0.75554 0.0
H221 H 0.84996 0.97786 0.76257 0.0
H222 H 0.8777 0.82915 0.77652 0.0
H223 H 0.78825 0.90549 0.78293 0.0
H224 H 0.66264 0.73146 0.79846 0.0
H225 H 0.72386 0.79822 0.77634 0.0
H226 H 0.8513 0.83214 0.81552 0.0
H227 H 0.79011 0.76781 0.83842 0.0
C228 C 0.90612 0.90224 0.76136 0.0
C229 C 0.89927 0.94503 0.7575 0.0
C230 C 0.87132 0.86136 0.77339 0.0
C231 C 0.82849 0.86208 0.78124 0.0
C232 C 0.82093 0.90411 0.77695 0.0
C233 C 0.8563 0.94548 0.76538 0.0
C234 C 0.70351 0.75353 0.80262 0.0
C235 C 0.72106 0.74434 0.82045 0.0
C236 C 0.73855 0.79132 0.7898 0.0
C237 C 0.79206 0.8199 0.79427 0.0
C238 C 0.81014 0.81 0.81171 0.0
C239 C 0.77498 0.77298 0.82477 0.0
H240 H 0.11613 -0.00213 0.0964 0.0
H241 H 0.948 0.91068 0.09936 0.0
H242 H 0.12017 0.93833 0.12008 0.0
H243 H 0.95149 0.84973 0.1219 0.0
H244 H 0.96723 0.76823 0.17358 0.0
H245 H 0.96999 0.837 0.1532 0.0
H246 H 0.10555 0.85355 0.12436 0.0
H247 H 0.10422 0.78697 0.14577 0.0
C248 C 0.08009 0.96588 0.10207 0.0
C249 C 0.03181 0.95914 0.09612 0.0
C250 C 0.08228 0.93145 0.11554 0.0
C251 C 0.03615 0.88901 0.12307 0.0
C252 C 0.98799 0.88252 0.11695 0.0
C253 C 0.9859 0.91737 0.10384 0.0
C254 C -0.00226 0.78705 0.16295 0.0
C255 C 0.03533 0.77238 0.16111 0.0
C256 C -0.00077 0.82619 0.15113 0.0
C257 C 0.0376 0.85066 0.13683 0.0
C258 C 0.07582 0.83635 0.13531 0.0
C259 C 0.07494 0.79794 0.14746 0.0
H260 H 0.09704 0.03616 0.43667 0.0
H261 H 0.23921 0.13588 0.40563 0.0
H262 H 0.14625 0.0163 0.46031 0.0
H263 H 0.28813 0.11627 0.42932 0.0
H264 H 0.34574 0.0193 0.46097 0.0
H265 H 0.29416 0.03832 0.43827 0.0
H266 H 0.21489 0.05959 0.48618 0.0
H267 H 0.26584 0.03943 0.50893 0.0
C268 C 0.13878 0.05417 0.43496 0.0
C269 C 0.16412 0.08748 0.4192 0.0
C270 C 0.16696 0.04291 0.44854 0.0
C271 C 0.22097 0.06439 0.44658 0.0
C272 C 0.24641 0.09846 0.43105 0.0
C273 C 0.21837 0.10999 0.41755 0.0
C274 C 0.31684 0.02735 0.46665 0.0
C275 C 0.30983 0.02783 0.48674 0.0
C276 C 0.28773 0.03885 0.45366 0.0
C277 C 0.25074 0.05082 0.46045 0.0
C278 C 0.24294 0.05029 0.48052 0.0
C279 C 0.27236 0.03914 0.49353 0.0
H280 H 0.15823 0.11246 0.76766 0.0
H281 H 0.13762 0.23391 0.74173 0.0
H282 H 0.22001 0.17602 0.79115 0.0
H283 H 0.19897 0.29738 0.76544 0.0
H284 H 0.35558 0.40551 0.79691 0.0
H285 H 0.29245 0.34267 0.77362 0.0
H286 H 0.22138 0.22789 0.81916 0.0
H287 H 0.28445 0.29096 0.84255 0.0
C288 C 0.16683 0.15272 0.76699 0.0
C289 C 0.14308 0.16819 0.75282 0.0
C290 C 0.20196 0.18904 0.78054 0.0
C291 C 0.21426 0.24169 0.7802 0.0
C292 C 0.19068 0.25722 0.76596 0.0
C293 C 0.1554 0.22083 0.75243 0.0
C294 C 0.32606 0.36713 0.80203 0.0
C295 C 0.325 0.35332 0.82162 0.0
C296 C 0.28992 0.3311 0.78866 0.0
C297 C 0.25193 0.28031 0.79453 0.0
C298 C 0.25066 0.2665 0.81413 0.0
C299 C 0.28677 0.30261 0.82753 0.0
H300 H 0.8915 0.14407 0.68789 0.0
H301 H 0.90608 0.01836 0.66288 0.0
H302 H 0.8256 0.12938 0.66356 0.0
H303 H 0.839 0.0029 0.63871 0.0
H304 H 0.74813 0.02483 0.58784 0.0
H305 H 0.81868 0.04041 0.61048 0.0
H306 H 0.73596 0.06218 0.65705 0.0
H307 H 0.66615 0.04706 0.63452 0.0
C308 C 0.88074 0.11333 0.67718 0.0
C309 C 0.90385 0.08214 0.67745 0.0
C310 C 0.84267 0.10468 0.66329 0.0
C311 C 0.8265 0.06449 0.64935 0.0
C312 C 0.85076 0.03435 0.64919 0.0
C313 C 0.88907 0.04311 0.66309 0.0
C314 C 0.74497 0.03252 0.60296 0.0
C315 C 0.7019 0.03531 0.60937 0.0
C316 C 0.78533 0.04146 0.61591 0.0
C317 C 0.78327 0.05323 0.63552 0.0
C318 C 0.73946 0.05457 0.64195 0.0
C319 C 0.69936 0.04578 0.62905 0.0
H320 H 0.94953 0.89635 0.00871 0.0
H321 H 0.85471 0.96824 0.00736 0.0
H322 H 0.88973 0.82954 0.98544 0.0
H323 H 0.79566 0.90199 0.98365 0.0
H324 H 0.75276 0.81058 0.92324 0.0
H325 H 0.81089 0.87694 0.94681 0.0
H326 H 0.78602 0.75478 0.98707 0.0
H327 H 0.72529 0.68814 0.9642 0.0
C328 C 0.91601 0.89794 0.00339 0.0
C329 C 0.90662 0.93735 0.00983 0.0
C330 C 0.88185 0.85969 0.99015 0.0
C331 C 0.83839 0.86093 0.98281 0.0
C332 C 0.82915 0.90054 0.98909 0.0
C333 C 0.86269 0.93813 0.00268 0.0
C334 C 0.75884 0.79761 0.9372 0.0
C335 C 0.73394 0.74367 0.94173 0.0
C336 C 0.79238 0.83572 0.95062 0.0
C337 C 0.80268 0.82073 0.96867 0.0
C338 C 0.77885 0.76713 0.97315 0.0
C339 C 0.74443 0.72902 0.95992 0.0
H340 H 0.97497 0.90002 0.35355 0.0
H341 H 0.0937 0.01651 0.31644 0.0
H342 H 0.97118 0.8301 0.33337 0.0
H343 H 0.08922 0.94718 0.29632 0.0
H344 H 0.11455 0.81538 0.27813 0.0
H345 H 0.11437 0.88128 0.29914 0.0
H346 H 0.94598 0.79037 0.30058 0.0
H347 H 0.94624 0.72323 0.28007 0.0
C348 C -0.00012 0.91074 0.34104 0.0
C349 C 0.03491 0.9639 0.33673 0.0
C350 C -0.00239 0.87071 0.32946 0.0
C351 C 0.03036 0.88313 0.31337 0.0
C352 C 0.0643 0.93625 0.30884 0.0
C353 C 0.06659 0.97605 0.32035 0.0
C354 C 0.0775 0.80908 0.2831 0.0
C355 C 0.03042 0.76411 0.27737 0.0
C356 C 0.07734 0.84715 0.29498 0.0
C357 C 0.03011 0.84127 0.30141 0.0
C358 C 0.98301 0.79592 0.29595 0.0
C359 C 0.98316 0.75779 0.28402 0.0
H360 H 0.11312 0.95577 0.684 0.0
H361 H 0.12272 0.08311 0.64992 0.0
H362 H 0.17094 0.94758 0.66136 0.0
H363 H 0.17924 0.07416 0.62714 0.0
H364 H 0.33151 0.09123 0.6063 0.0
H365 H 0.268 0.09346 0.62736 0.0
H366 H 0.17965 0.92349 0.62835 0.0
H367 H 0.24465 0.92131 0.60781 0.0
C368 C 0.12696 0.98148 0.67154 0.0
C369 C 0.1137 0.02037 0.66885 0.0
C370 C 0.15992 0.97667 0.65852 0.0
C371 C 0.18018 0.01058 0.64253 0.0
C372 C 0.16525 0.04812 0.63951 0.0
C373 C 0.13255 0.05304 0.65252 0.0
C374 C 0.29877 0.05429 0.6111 0.0
C375 C 0.29335 0.0061 0.60543 0.0
C376 C 0.26193 0.05554 0.623 0.0
C377 C 0.21855 0.00863 0.62951 0.0
C378 C 0.21282 0.96034 0.62372 0.0
C379 C 0.24976 0.95909 0.61178 0.0
H380 H 0.08614 0.20316 0.98667 0.0
H381 H 0.18445 0.1655 0.0214 0.0
H382 H 0.16034 0.26279 0.96745 0.0
H383 H 0.25979 0.22656 0.00195 0.0
H384 H 0.36084 0.29508 0.94528 0.0
H385 H 0.29255 0.23627 0.96762 0.0
H386 H 0.2407 0.34805 0.97191 0.0
H387 H 0.30854 0.40651 0.94974 0.0
C388 C 0.12368 0.20767 0.9903 0.0
C389 C 0.12924 0.1795 0.00568 0.0
C390 C 0.1664 0.24228 0.97929 0.0
C391 C 0.21604 0.24983 0.98329 0.0
C392 C 0.22189 0.2214 -0.00148 0.0
C393 C 0.17887 0.18668 0.00969 0.0
C394 C 0.3352 0.30727 0.9512 0.0
C395 C 0.33952 0.35505 0.94549 0.0
C396 C 0.29622 0.27367 0.96402 0.0
C397 C 0.26089 0.28727 0.97134 0.0
C398 C 0.26663 0.33595 0.96619 0.0
C399 C 0.3054 0.36938 0.95343 0.0
H400 H 0.08553 0.24598 0.35863 0.0
H401 H 0.94241 0.12668 0.3311 0.0
H402 H 0.09088 0.3106 0.33525 0.0
H403 H 0.94733 0.19141 0.30795 0.0
H404 H 0.0048 0.30695 0.25717 0.0
H405 H 0.0003 0.24278 0.28057 0.0
H406 H 0.04632 0.35799 0.32648 0.0
H407 H 0.05068 0.42201 0.30314 0.0
C408 C 0.05505 0.23364 0.34767 0.0
C409 C 0.0136 0.18122 0.3467 0.0
C410 C 0.05801 0.27069 0.33432 0.0
C411 C 0.01961 0.25609 0.3197 0.0
C412 C 0.97794 0.20374 0.31885 0.0
C413 C 0.97494 0.16674 0.33221 0.0
C414 C 0.01367 0.31846 0.27227 0.0
C415 C 0.02822 0.36964 0.27827 0.0
C416 C 0.01105 0.2817 0.28569 0.0
C417 C 0.02293 0.29529 0.3054 0.0
C418 C 0.0377 0.34652 0.31137 0.0
C419 C 0.04027 0.38324 0.29797 0.0
loop_
_geom_bond_atom_site_label_1
_geom_bond_atom_site_label_2
_geom_bond_distance
_geom_bond_site_symmetry_2
_ccdc_geom_bond_type
C0 O1 1.306 1_455 S
C0 O3 1.160 . S
O1 C0 1.306 1_655 S
O1 Cd2 2.228 . S
Cd2 O1 2.228 . S
Cd2 O6 2.273 . S
Cd2 O10 2.277 1_655 S
O3 C0 1.160 . S
O3 Cd4 2.203 . S
Cd4 O3 2.203 . S
Cd4 O6 2.411 1_455 S
Cd4 O7 2.333 1_545 S
Cd4 O8 2.352 1_545 S
Cd4 O12 2.277 . S
Cd4 O13 2.347 1_545 S
C5 O10 1.209 . S
C5 O12 1.226 . S
O6 Cd2 2.273 . S
O6 Cd4 2.411 1_655 S
O6 C9 1.320 1_545 S
O7 Cd4 2.333 1_565 S
O7 C9 1.214 1_455 S
O8 Cd4 2.352 1_565 S
O8 C11 1.258 . S
C9 O6 1.320 1_565 S
C9 O7 1.214 1_655 S
O10 Cd2 2.277 1_455 S
O10 C5 1.209 . S
C11 O8 1.258 . S
C11 O13 1.283 . S
O12 Cd4 2.277 . S
O12 C5 1.226 . S
O13 Cd4 2.347 1_565 S
O13 C11 1.283 . S
C14 O15 1.306 . S
C14 O17 1.160 . S
O15 C14 1.306 . S
O15 Cd16 2.228 . S
Cd16 O15 2.228 . S
Cd16 O20 2.273 . S
Cd16 O24 2.277 . S
O17 C14 1.160 . S
O17 Cd18 2.203 . S
Cd18 O17 2.203 . S
Cd18 O20 2.411 . S
Cd18 O21 2.333 1_455 S
Cd18 O22 2.352 1_455 S
Cd18 O26 2.277 1_445 S
Cd18 O27 2.354 1_455 S
C19 O24 1.209 1_565 S
C19 O26 1.226 1_455 S
O20 Cd16 2.273 . S
O20 Cd18 2.411 . S
O20 C23 1.320 . S
O21 Cd18 2.333 1_655 S
O21 C23 1.214 1_655 S
O22 Cd18 2.352 1_655 S
O22 C25 1.258 . S
C23 O20 1.320 . S
C23 O21 1.214 1_455 S
O24 Cd16 2.277 . S
O24 C19 1.209 1_545 S
C25 O22 1.258 . S
C25 O27 1.298 . S
O26 Cd18 2.277 1_665 S
O26 C19 1.226 1_655 S
O27 Cd18 2.354 1_655 S
O27 C25 1.298 . S
C28 O29 1.306 . S
C28 O31 1.160 . S
O29 C28 1.306 . S
O29 Cd30 2.228 . S
Cd30 O29 2.228 . S
Cd30 O34 2.273 1_655 S
Cd30 O38 2.277 . S
O31 C28 1.160 . S
O31 Cd32 2.203 1_655 S
Cd32 O31 2.203 1_455 S
Cd32 O34 2.411 . S
Cd32 O35 2.333 . S
Cd32 O36 2.352 . S
Cd32 O40 2.277 1_445 S
Cd32 O41 2.356 . S
C33 O38 1.209 1_565 S
C33 O40 1.226 . S
O34 Cd30 2.273 1_455 S
O34 Cd32 2.411 . S
O34 C37 1.320 . S
O35 Cd32 2.333 . S
O35 C37 1.214 . S
O36 Cd32 2.352 . S
O36 C39 1.258 . S
C37 O34 1.320 . S
C37 O35 1.214 . S
O38 Cd30 2.277 . S
O38 C33 1.209 1_545 S
C39 O36 1.258 . S
C39 O41 1.282 . S
O40 Cd32 2.277 1_665 S
O40 C33 1.226 . S
O41 Cd32 2.356 . S
O41 C39 1.282 . S
C42 C43 1.384 . S
C42 C44 1.384 . S
C42 H70 0.931 1_455 S
C43 C42 1.384 . S
C43 C46 1.382 . S
C44 C42 1.384 . S
C44 C45 1.381 . S
C44 H71 0.930 1_455 S
C45 C44 1.381 . S
C45 C47 1.381 . S
C45 C48 1.487 . S
C46 C43 1.382 . S
C46 C47 1.387 . S
C46 H72 0.930 . S
C47 C45 1.381 . S
C47 C46 1.387 . S
C47 H73 0.931 . S
C48 C45 1.487 . S
C48 C55 1.399 . S
C48 N86 1.343 . S
C49 C50 1.384 . S
C49 C51 1.384 . S
C49 H74 0.931 . S
C50 C49 1.384 . S
C50 C53 1.382 . S
C51 C49 1.384 . S
C51 C52 1.381 . S
C51 H75 0.930 . S
C52 C51 1.381 . S
C52 C54 1.381 . S
C52 C55 1.487 . S
C53 C50 1.382 . S
C53 C54 1.387 . S
C53 H76 0.930 1_455 S
C54 C52 1.381 . S
C54 C53 1.387 . S
C54 H77 0.931 1_455 S
C55 C48 1.399 . S
C55 C52 1.487 . S
C55 N87 1.343 . S
C56 C57 1.384 . S
C56 C58 1.384 . S
C56 H78 0.931 . S
C57 C56 1.384 . S
C57 C60 1.382 . S
C58 C56 1.384 . S
C58 C59 1.381 . S
C58 H79 0.930 . S
C59 C58 1.381 . S
C59 C61 1.381 . S
C59 C62 1.487 . S
C60 C57 1.382 . S
C60 C61 1.387 . S
C60 H80 0.930 1_455 S
C61 C59 1.381 . S
C61 C60 1.387 . S
C61 H81 0.931 1_455 S
C62 C59 1.487 . S
C62 C69 1.399 . S
C62 N87 1.343 . S
C63 C64 1.384 . S
C63 C65 1.384 . S
C63 H82 0.931 1_455 S
C64 C63 1.384 . S
C64 C67 1.382 . S
C65 C63 1.384 . S
C65 C66 1.381 . S
C65 H83 0.930 1_455 S
C66 C65 1.381 . S
C66 C68 1.381 . S
C66 C69 1.487 . S
C67 C64 1.382 . S
C67 C68 1.387 . S
C67 H84 0.930 . S
C68 C66 1.381 . S
C68 C67 1.387 . S
C68 H85 0.931 . S
C69 C62 1.399 . S
C69 C66 1.487 . S
C69 N86 1.343 . S
H70 C42 0.931 1_655 S
H71 C44 0.930 1_655 S
H72 C46 0.930 . S
H73 C47 0.931 . S
H74 C49 0.931 . S
H75 C51 0.930 . S
H76 C53 0.930 1_655 S
H77 C54 0.931 1_655 S
H78 C56 0.931 . S
H79 C58 0.930 . S
H80 C60 0.930 1_655 S
H81 C61 0.931 1_655 S
H82 C63 0.931 1_655 S
H83 C65 0.930 1_655 S
H84 C67 0.930 . S
H85 C68 0.931 . S
N86 C48 1.343 . S
N86 C69 1.343 . S
N87 C55 1.343 . S
N87 C62 1.343 . S
C88 C89 1.384 . S
C88 C90 1.384 . S
C88 H116 0.931 . S
C89 C88 1.384 . S
C89 C92 1.382 . S
C90 C88 1.384 . S
C90 C91 1.381 . S
C90 H117 0.930 . S
C91 C90 1.381 . S
C91 C93 1.381 . S
C91 C94 1.487 . S
C92 C89 1.382 . S
C92 C93 1.387 . S
C92 H118 0.930 1_545 S
C93 C91 1.381 . S
C93 C92 1.387 . S
C93 H119 0.931 1_545 S
C94 C91 1.487 . S
C94 C101 1.399 . S
C94 N132 1.343 . S
C95 C96 1.384 . S
C95 C97 1.384 . S
C95 H120 0.931 1_545 S
C96 C95 1.384 . S
C96 C99 1.382 . S
C97 C95 1.384 . S
C97 C98 1.381 . S
C97 H121 0.930 1_545 S
C98 C97 1.381 . S
C98 C100 1.381 . S
C98 C101 1.487 . S
C99 C96 1.382 . S
C99 C100 1.387 . S
C99 H122 0.930 . S
C100 C98 1.381 . S
C100 C99 1.387 . S
C100 H123 0.931 . S
C101 C94 1.399 . S
C101 C98 1.487 . S
C101 N133 1.343 . S
C102 C103 1.384 . S
C102 C104 1.384 . S
C102 H124 0.931 1_545 S
C103 C102 1.384 . S
C103 C106 1.382 . S
C104 C102 1.384 . S
C104 C105 1.381 . S
C104 H125 0.930 1_545 S
C105 C104 1.381 . S
C105 C107 1.381 . S
C105 C108 1.487 . S
C106 C103 1.382 . S
C106 C107 1.387 . S
C106 H126 0.930 . S
C107 C105 1.381 . S
C107 C106 1.387 . S
C107 H127 0.931 . S
C108 C105 1.487 . S
C108 C115 1.399 . S
C108 N133 1.343 . S
C109 C110 1.384 . S
C109 C111 1.384 . S
C109 H128 0.931 . S
C110 C109 1.384 . S
C110 C113 1.382 . S
C111 C109 1.384 . S
C111 C112 1.381 . S
C111 H129 0.930 . S
C112 C111 1.381 . S
C112 C114 1.381 . S
C112 C115 1.487 . S
C113 C110 1.382 . S
C113 C114 1.387 . S
C113 H130 0.930 1_545 S
C114 C112 1.381 . S
C114 C113 1.387 . S
C114 H131 0.931 1_545 S
C115 C108 1.399 . S
C115 C112 1.487 . S
C115 N132 1.343 . S
H116 C88 0.931 . S
H117 C90 0.930 . S
H118 C92 0.930 1_565 S
H119 C93 0.931 1_565 S
H120 C95 0.931 1_565 S
H121 C97 0.930 1_565 S
H122 C99 0.930 . S
H123 C100 0.931 . S
H124 C102 0.931 1_565 S
H125 C104 0.930 1_565 S
H126 C106 0.930 . S
H127 C107 0.931 . S
H128 C109 0.931 . S
H129 C111 0.930 . S
H130 C113 0.930 1_565 S
H131 C114 0.931 1_565 S
N132 C94 1.343 . S
N132 C115 1.343 . S
N133 C101 1.343 . S
N133 C108 1.343 . S
C134 C135 1.384 . S
C134 C136 1.384 . S
C134 H162 0.931 . S
C135 C134 1.384 . S
C135 C138 1.382 . S
C136 C134 1.384 . S
C136 C137 1.381 . S
C136 H163 0.930 . S
C137 C136 1.381 . S
C137 C139 1.381 . S
C137 C140 1.487 . S
C138 C135 1.382 . S
C138 C139 1.387 . S
C138 H164 0.930 . S
C139 C137 1.381 . S
C139 C138 1.387 . S
C139 H165 0.931 . S
C140 C137 1.487 . S
C140 C147 1.399 . S
C140 N178 1.343 . S
C141 C142 1.384 . S
C141 C143 1.384 . S
C141 H166 0.931 . S
C142 C141 1.384 . S
C142 C145 1.382 . S
C143 C141 1.384 . S
C143 C144 1.381 . S
C143 H167 0.930 . S
C144 C143 1.381 . S
C144 C146 1.381 . S
C144 C147 1.487 . S
C145 C142 1.382 . S
C145 C146 1.387 . S
C145 H168 0.930 . S
C146 C144 1.381 . S
C146 C145 1.387 . S
C146 H169 0.931 . S
C147 C140 1.399 . S
C147 C144 1.487 . S
C147 N179 1.343 . S
C148 C149 1.384 . S
C148 C150 1.384 . S
C148 H170 0.931 . S
C149 C148 1.384 . S
C149 C152 1.382 . S
C150 C148 1.384 . S
C150 C151 1.381 . S
C150 H171 0.930 . S
C151 C150 1.381 . S
C151 C153 1.381 . S
C151 C154 1.487 . S
C152 C149 1.382 . S
C152 C153 1.387 . S
C152 H172 0.930 . S
C153 C151 1.381 . S
C153 C152 1.387 . S
C153 H173 0.931 . S
C154 C151 1.487 . S
C154 C161 1.399 . S
C154 N179 1.343 . S
C155 C156 1.384 . S
C155 C157 1.384 . S
C155 H174 0.931 . S
C156 C155 1.384 . S
C156 C159 1.382 . S
C157 C155 1.384 . S
C157 C158 1.381 . S
C157 H175 0.930 . S
C158 C157 1.381 . S
C158 C160 1.381 . S
C158 C161 1.487 . S
C159 C156 1.382 . S
C159 C160 1.387 . S
C159 H176 0.930 . S
C160 C158 1.381 . S
C160 C159 1.387 . S
C160 H177 0.931 . S
C161 C154 1.399 . S
C161 C158 1.487 . S
C161 N178 1.343 . S
H162 C134 0.931 . S
H163 C136 0.930 . S
H164 C138 0.930 . S
H165 C139 0.931 . S
H166 C141 0.931 . S
H167 C143 0.930 . S
H168 C145 0.930 . S
H169 C146 0.931 . S
H170 C148 0.931 . S
H171 C150 0.930 . S
H172 C152 0.930 . S
H173 C153 0.931 . S
H174 C155 0.931 . S
H175 C157 0.930 . S
H176 C159 0.930 . S
H177 C160 0.931 . S
N178 C140 1.343 . S
N178 C161 1.343 . S
N179 C147 1.343 . S
N179 C154 1.343 . S
H180 C188 0.950 . S
H181 C193 0.950 . S
H182 C190 0.954 . S
H183 C192 0.950 . S
H184 C194 0.950 . S
H185 C196 0.950 . S
H186 C198 0.950 1_655 S
H187 C199 0.950 1_655 S
C188 H180 0.950 . S
C188 C189 1.386 1_655 S
C188 C190 1.389 . S
C189 C188 1.386 1_455 S
C189 C193 1.393 . S
C190 H182 0.954 . S
C190 C188 1.389 . S
C190 C191 1.399 1_655 S
C191 C190 1.399 1_455 S
C191 C192 1.398 . S
C191 C197 1.491 . S
C192 H183 0.950 . S
C192 C191 1.398 . S
C192 C193 1.391 . S
C193 H181 0.950 . S
C193 C189 1.393 . S
C193 C192 1.391 . S
C194 H184 0.950 . S
C194 C195 1.386 . S
C194 C196 1.391 . S
C195 C194 1.386 . S
C195 C199 1.393 . S
C196 H185 0.950 . S
C196 C194 1.391 . S
C196 C197 1.400 . S
C197 C191 1.491 . S
C197 C196 1.400 . S
C197 C198 1.398 . S
C198 H186 0.950 1_455 S
C198 C197 1.398 . S
C198 C199 1.391 . S
C199 H187 0.950 1_455 S
C199 C195 1.393 . S
C199 C198 1.391 . S
H200 C208 0.950 . S
H201 C213 0.950 . S
H202 C210 0.950 . S
H203 C212 0.950 . S
H204 C214 0.950 . S
H205 C216 0.950 . S
H206 C218 0.954 . S
H207 C219 0.942 1_565 S
C208 H200 0.950 . S
C208 C209 1.386 1_565 S
C208 C210 1.391 . S
C209 C208 1.386 1_545 S
C209 C213 1.393 . S
C210 H202 0.950 . S
C210 C208 1.391 . S
C210 C211 1.400 1_565 S
C211 C210 1.400 1_545 S
C211 C212 1.398 . S
C211 C217 1.491 . S
C212 H203 0.950 . S
C212 C211 1.398 . S
C212 C213 1.391 . S
C213 H201 0.950 . S
C213 C209 1.393 . S
C213 C212 1.391 . S
C214 H204 0.950 . S
C214 C215 1.386 . S
C214 C216 1.391 . S
C215 C214 1.386 . S
C215 C219 1.408 . S
C216 H205 0.950 . S
C216 C214 1.391 . S
C216 C217 1.400 . S
C217 C211 1.491 . S
C217 C216 1.400 . S
C217 C218 1.396 1_545 S
C218 H206 0.954 . S
C218 C217 1.396 1_565 S
C218 C219 1.382 1_565 S
C219 H207 0.942 1_545 S
C219 C215 1.408 . S
C219 C218 1.382 1_545 S
H220 C228 0.950 . S
H221 C233 0.950 . S
H222 C230 0.950 . S
H223 C232 0.950 . S
H224 C234 0.950 . S
H225 C236 0.950 . S
H226 C238 0.950 . S
H227 C239 0.950 . S
C228 H220 0.950 . S
C228 C229 1.386 . S
C228 C230 1.391 . S
C229 C228 1.386 . S
C229 C233 1.393 . S
C230 H222 0.950 . S
C230 C228 1.391 . S
C230 C231 1.400 . S
C231 C230 1.400 . S
C231 C232 1.398 . S
C231 C237 1.491 . S
C232 H223 0.950 . S
C232 C231 1.398 . S
C232 C233 1.391 . S
C233 H221 0.950 . S
C233 C229 1.393 . S
C233 C232 1.391 . S
C234 H224 0.950 . S
C234 C235 1.386 . S
C234 C236 1.391 . S
C235 C234 1.386 . S
C235 C239 1.393 . S
C236 H225 0.950 . S
C236 C234 1.391 . S
C236 C237 1.400 . S
C237 C231 1.491 . S
C237 C236 1.400 . S
C237 C238 1.398 . S
C238 H226 0.950 . S
C238 C237 1.398 . S
C238 C239 1.391 . S
C239 H227 0.950 . S
C239 C235 1.393 . S
C239 C238 1.391 . S
H240 C248 0.950 . S
H241 C253 0.950 . S
H242 C250 0.950 . S
H243 C252 0.950 . S
H244 C254 0.950 1_655 S
H245 C256 0.950 1_655 S
H246 C258 0.950 . S
H247 C259 0.950 . S
C248 H240 0.950 . S
C248 C249 1.386 . S
C248 C250 1.391 . S
C249 C248 1.386 . S
C249 C253 1.393 1_455 S
C250 H242 0.950 . S
C250 C248 1.391 . S
C250 C251 1.400 . S
C251 C250 1.400 . S
C251 C252 1.398 1_455 S
C251 C257 1.491 . S
C252 H243 0.950 . S
C252 C251 1.398 1_655 S
C252 C253 1.391 . S
C253 H241 0.950 . S
C253 C249 1.393 1_655 S
C253 C252 1.391 . S
C254 H244 0.950 1_455 S
C254 C255 1.386 . S
C254 C256 1.391 . S
C255 C254 1.386 . S
C255 C259 1.393 . S
C256 H245 0.950 1_455 S
C256 C254 1.391 . S
C256 C257 1.400 . S
C257 C251 1.491 . S
C257 C256 1.400 . S
C257 C258 1.398 . S
C258 H246 0.950 . S
C258 C257 1.398 . S
C258 C259 1.391 . S
C259 H247 0.950 . S
C259 C255 1.393 . S
C259 C258 1.391 . S
H260 C268 0.950 1_565 S
H261 C273 0.950 . S
H262 C270 0.950 1_565 S
H263 C272 0.950 . S
H264 C274 0.950 . S
H265 C276 0.950 . S
H266 C278 0.950 1_565 S
H267 C279 0.950 1_565 S
C268 H260 0.950 1_545 S
C268 C269 1.386 . S
C268 C270 1.391 . S
C269 C268 1.386 . S
C269 C273 1.393 . S
C270 H262 0.950 1_545 S
C270 C268 1.391 . S
C270 C271 1.400 . S
C271 C270 1.400 . S
C271 C272 1.398 . S
C271 C277 1.491 . S
C272 H263 0.950 . S
C272 C271 1.398 . S
C272 C273 1.391 . S
C273 H261 0.950 . S
C273 C269 1.393 . S
C273 C272 1.391 . S
C274 H264 0.950 . S
C274 C275 1.386 . S
C274 C276 1.391 . S
C275 C274 1.386 . S
C275 C279 1.393 . S
C276 H265 0.950 . S
C276 C274 1.391 . S
C276 C277 1.400 . S
C277 C271 1.491 . S
C277 C276 1.400 . S
C277 C278 1.398 . S
C278 H266 0.950 1_545 S
C278 C277 1.398 . S
C278 C279 1.391 . S
C279 H267 0.950 1_545 S
C279 C275 1.393 . S
C279 C278 1.391 . S
H280 C288 0.950 . S
H281 C293 0.950 . S
H282 C290 0.950 . S
H283 C292 0.950 . S
H284 C294 0.950 . S
H285 C296 0.950 . S
H286 C298 0.950 . S
H287 C299 0.950 . S
C288 H280 0.950 . S
C288 C289 1.386 . S
C288 C290 1.391 . S
C289 C288 1.386 . S
C289 C293 1.393 . S
C290 H282 0.950 . S
C290 C288 1.391 . S
C290 C291 1.400 . S
C291 C290 1.400 . S
C291 C292 1.398 . S
C291 C297 1.491 . S
C292 H283 0.950 . S
C292 C291 1.398 . S
C292 C293 1.391 . S
C293 H281 0.950 . S
C293 C289 1.393 . S
C293 C292 1.391 . S
C294 H284 0.950 . S
C294 C295 1.386 . S
C294 C296 1.391 . S
C295 C294 1.386 . S
C295 C299 1.393 . S
C296 H285 0.950 . S
C296 C294 1.391 . S
C296 C297 1.400 . S
C297 C291 1.491 . S
C297 C296 1.400 . S
C297 C298 1.398 . S
C298 H286 0.950 . S
C298 C297 1.398 . S
C298 C299 1.391 . S
C299 H287 0.950 . S
C299 C295 1.393 . S
C299 C298 1.391 . S
H300 C308 0.950 . S
H301 C313 0.950 . S
H302 C310 0.950 . S
H303 C312 0.950 . S
H304 C314 0.950 . S
H305 C316 0.950 . S
H306 C318 0.950 . S
H307 C319 0.950 . S
C308 H300 0.950 . S
C308 C309 1.386 . S
C308 C310 1.391 . S
C309 C308 1.386 . S
C309 C313 1.393 . S
C310 H302 0.950 . S
C310 C308 1.391 . S
C310 C311 1.400 . S
C311 C310 1.400 . S
C311 C312 1.398 . S
C311 C317 1.491 . S
C312 H303 0.950 . S
C312 C311 1.398 . S
C312 C313 1.391 . S
C313 H301 0.950 . S
C313 C309 1.393 . S
C313 C312 1.391 . S
C314 H304 0.950 . S
C314 C315 1.386 . S
C314 C316 1.391 . S
C315 C314 1.386 . S
C315 C319 1.393 . S
C316 H305 0.950 . S
C316 C314 1.391 . S
C316 C317 1.400 . S
C317 C311 1.491 . S
C317 C316 1.400 . S
C317 C318 1.398 . S
C318 H306 0.950 . S
C318 C317 1.398 . S
C318 C319 1.391 . S
C319 H307 0.950 . S
C319 C315 1.393 . S
C319 C318 1.391 . S
H320 C328 0.950 . S
H321 C333 0.950 1_545 S
H322 C330 0.950 . S
H323 C332 0.950 . S
H324 C334 0.950 . S
H325 C336 0.950 . S
H326 C338 0.950 . S
H327 C339 0.950 . S
C328 H320 0.950 . S
C328 C329 1.386 . S
C328 C330 1.391 . S
C329 C328 1.386 . S
C329 C333 1.393 1_554 S
C330 H322 0.950 . S
C330 C328 1.391 . S
C330 C331 1.400 1_554 S
C331 C330 1.400 1_556 S
C331 C332 1.398 . S
C331 C337 1.491 . S
C332 H323 0.950 . S
C332 C331 1.398 . S
C332 C333 1.391 . S
C333 H321 0.950 1_565 S
C333 C329 1.393 1_556 S
C333 C332 1.391 . S
C334 H324 0.950 . S
C334 C335 1.386 . S
C334 C336 1.391 . S
C335 C334 1.386 . S
C335 C339 1.393 . S
C336 H325 0.950 . S
C336 C334 1.391 . S
C336 C337 1.400 . S
C337 C331 1.491 . S
C337 C336 1.400 . S
C337 C338 1.398 . S
C338 H326 0.950 . S
C338 C337 1.398 . S
C338 C339 1.391 . S
C339 H327 0.950 . S
C339 C335 1.393 . S
C339 C338 1.391 . S
H340 C348 0.950 . S
H341 C353 0.950 . S
H342 C350 0.950 . S
H343 C352 0.950 . S
H344 C354 0.950 . S
H345 C356 0.950 . S
H346 C358 0.950 . S
H347 C359 0.950 1_655 S
C348 H340 0.950 . S
C348 C349 1.386 1_655 S
C348 C350 1.391 . S
C349 C348 1.386 1_455 S
C349 C353 1.393 . S
C350 H342 0.950 . S
C350 C348 1.391 . S
C350 C351 1.400 1_655 S
C351 C350 1.400 1_455 S
C351 C352 1.398 . S
C351 C357 1.491 . S
C352 H343 0.950 . S
C352 C351 1.398 . S
C352 C353 1.391 . S
C353 H341 0.950 . S
C353 C349 1.393 . S
C353 C352 1.391 . S
C354 H344 0.950 . S
C354 C355 1.386 . S
C354 C356 1.391 . S
C355 C354 1.386 . S
C355 C359 1.393 . S
C356 H345 0.950 . S
C356 C354 1.391 . S
C356 C357 1.400 . S
C357 C351 1.491 . S
C357 C356 1.400 . S
C357 C358 1.398 1_455 S
C358 H346 0.950 . S
C358 C357 1.398 1_655 S
C358 C359 1.391 1_655 S
C359 H347 0.950 1_455 S
C359 C355 1.393 . S
C359 C358 1.391 1_455 S
H360 C368 0.950 1_565 S
H361 C373 0.950 . S
H362 C370 0.950 1_565 S
H363 C372 0.950 . S
H364 C374 0.950 . S
H365 C376 0.950 . S
H366 C378 0.950 1_565 S
H367 C379 0.950 1_565 S
C368 H360 0.950 1_545 S
C368 C369 1.386 . S
C368 C370 1.391 . S
C369 C368 1.386 . S
C369 C373 1.393 . S
C370 H362 0.950 1_545 S
C370 C368 1.391 . S
C370 C371 1.400 . S
C371 C370 1.400 . S
C371 C372 1.398 . S
C371 C377 1.491 . S
C372 H363 0.950 . S
C372 C371 1.398 . S
C372 C373 1.391 . S
C373 H361 0.950 . S
C373 C369 1.393 . S
C373 C372 1.391 . S
C374 H364 0.950 . S
C374 C375 1.386 . S
C374 C376 1.391 . S
C375 C374 1.386 . S
C375 C379 1.393 . S
C376 H365 0.950 . S
C376 C374 1.391 . S
C376 C377 1.400 . S
C377 C371 1.491 . S
C377 C376 1.400 . S
C377 C378 1.398 . S
C378 H366 0.950 1_545 S
C378 C377 1.398 . S
C378 C379 1.391 . S
C379 H367 0.950 1_545 S
C379 C375 1.393 . S
C379 C378 1.391 . S
H380 C388 0.950 . S
H381 C393 0.950 . S
H382 C390 0.950 . S
H383 C392 0.950 . S
H384 C394 0.950 . S
H385 C396 0.950 . S
H386 C398 0.950 . S
H387 C399 0.950 . S
C388 H380 0.950 . S
C388 C389 1.386 . S
C388 C390 1.391 1_554 S
C389 C388 1.386 . S
C389 C393 1.393 . S
C390 H382 0.950 . S
C390 C388 1.391 1_556 S
C390 C391 1.400 . S
C391 C390 1.400 . S
C391 C392 1.398 1_556 S
C391 C397 1.491 . S
C392 H383 0.950 . S
C392 C391 1.398 1_554 S
C392 C393 1.391 . S
C393 H381 0.950 . S
C393 C389 1.393 . S
C393 C392 1.391 . S
C394 H384 0.950 . S
C394 C395 1.386 . S
C394 C396 1.391 . S
C395 C394 1.386 . S
C395 C399 1.393 . S
C396 H385 0.950 . S
C396 C394 1.391 . S
C396 C397 1.400 . S
C397 C391 1.491 . S
C397 C396 1.400 . S
C397 C398 1.398 . S
C398 H386 0.950 . S
C398 C397 1.398 . S
C398 C399 1.391 . S
C399 H387 0.950 . S
C399 C395 1.393 . S
C399 C398 1.391 . S
H400 C408 0.950 1_655 S
H401 C413 0.950 . S
H402 C410 0.950 1_655 S
H403 C412 0.950 . S
H404 C414 0.950 . S
H405 C416 0.950 . S
H406 C418 0.950 1_655 S
H407 C419 0.936 1_655 S
C408 H400 0.950 1_455 S
C408 C409 1.386 . S
C408 C410 1.391 . S
C409 C408 1.386 . S
C409 C413 1.393 . S
C410 H402 0.950 1_455 S
C410 C408 1.391 . S
C410 C411 1.400 . S
C411 C410 1.400 . S
C411 C412 1.398 . S
C411 C417 1.491 . S
C412 H403 0.950 . S
C412 C411 1.398 . S
C412 C413 1.391 . S
C413 H401 0.950 . S
C413 C409 1.393 . S
C413 C412 1.391 . S
C414 H404 0.950 . S
C414 C415 1.386 . S
C414 C416 1.391 . S
C415 C414 1.386 . S
C415 C419 1.393 . S
C416 H405 0.950 . S
C416 C414 1.391 . S
C416 C417 1.400 . S
C417 C411 1.491 . S
C417 C416 1.400 . S
C417 C418 1.398 . S
C418 H406 0.950 1_455 S
C418 C417 1.398 . S
C418 C419 1.391 . S
C419 H407 0.936 1_455 S
C419 C415 1.393 . S
C419 C418 1.391 . S
C195 C50 1.450 . S
C189 C0 1.451 . S
C209 C25 1.491 . S
C215 C89 1.490 . S
C229 C33 1.510 . S
C235 C156 1.514 . S
C249 C11 1.445 . S
C255 C57 1.445 . S
C275 C110 1.484 . S
C269 C14 1.474 . S
C289 C37 1.505 . S
C295 C135 1.515 . S
C315 C96 1.484 . S
C309 C28 1.479 . S
C329 C9 1.511 . S
C335 C149 1.509 . S
C355 C64 1.543 . S
C349 C19 1.541 . S
C375 C103 1.489 . S
C369 C39 1.489 . S
C395 C142 1.508 . S
C389 C5 1.509 . S
C409 C23 1.550 . S
C415 C43 1.555 . S
