# Generated by pormake.
# Topology zzz, (3,6)-cn, num edge types: 1
# Building blocks:
#     Node 0, Type 0, BuildingBlock: BELTOD_clean_linker_0, # of connection points: 3
#     Node 1, Type 0, BuildingBlock: BELTOD_clean_linker_0, # of connection points: 3
#     Node 2, Type 0, BuildingBlock: BELTOD_clean_linker_0, # of connection points: 3
#     Node 3, Type 0, BuildingBlock: BELTOD_clean_linker_0, # of connection points: 3
#     Node 4, Type 0, BuildingBlock: BELTOD_clean_linker_0, # of connection points: 3
#     Node 5, Type 0, BuildingBlock: BELTOD_clean_linker_0, # of connection points: 3
#     Node 6, Type 0, BuildingBlock: BELTOD_clean_linker_0, # of connection points: 3
#     Node 7, Type 0, BuildingBlock: BELTOD_clean_linker_0, # of connection points: 3
#     Node 8, Type 1, BuildingBlock: BETDIP_clean_sbu_0, # of connection points: 6
#     Node 9, Type 1, BuildingBlock: BETDIP_clean_sbu_0, # of connection points: 6
#     Node 10, Type 1, BuildingBlock: BETDIP_clean_sbu_0, # of connection points: 6
#     Node 11, Type 1, BuildingBlock: BETDIP_clean_sbu_0, # of connection points: 6
#     Edge 12, Type (0, 1), BuildingBlock: ZUJKAS_clean_linker_0, # of connection points: 2
#     Edge 13, Type (0, 1), BuildingBlock: ZUJKAS_clean_linker_0, # of connection points: 2
#     Edge 14, Type (0, 1), BuildingBlock: ZUJKAS_clean_linker_0, # of connection points: 2
#     Edge 15, Type (0, 1), BuildingBlock: ZUJKAS_clean_linker_0, # of connection points: 2
#     Edge 16, Type (0, 1), BuildingBlock: ZUJKAS_clean_linker_0, # of connection points: 2
#     Edge 17, Type (0, 1), BuildingBlock: ZUJKAS_clean_linker_0, # of connection points: 2
#     Edge 18, Type (0, 1), BuildingBlock: ZUJKAS_clean_linker_0, # of connection points: 2
#     Edge 19, Type (0, 1), BuildingBlock: ZUJKAS_clean_linker_0, # of connection points: 2
#     Edge 20, Type (0, 1), BuildingBlock: ZUJKAS_clean_linker_0, # of connection points: 2
#     Edge 21, Type (0, 1), BuildingBlock: ZUJKAS_clean_linker_0, # of connection points: 2
#     Edge 22, Type (0, 1), BuildingBlock: ZUJKAS_clean_linker_0, # of connection points: 2
#     Edge 23, Type (0, 1), BuildingBlock: ZUJKAS_clean_linker_0, # of connection points: 2
#     Edge 24, Type (0, 1), BuildingBlock: ZUJKAS_clean_linker_0, # of connection points: 2
#     Edge 25, Type (0, 1), BuildingBlock: ZUJKAS_clean_linker_0, # of connection points: 2
#     Edge 26, Type (0, 1), BuildingBlock: ZUJKAS_clean_linker_0, # of connection points: 2
#     Edge 27, Type (0, 1), BuildingBlock: ZUJKAS_clean_linker_0, # of connection points: 2
#     Edge 28, Type (0, 1), BuildingBlock: ZUJKAS_clean_linker_0, # of connection points: 2
#     Edge 29, Type (0, 1), BuildingBlock: ZUJKAS_clean_linker_0, # of connection points: 2
#     Edge 30, Type (0, 1), BuildingBlock: ZUJKAS_clean_linker_0, # of connection points: 2
#     Edge 31, Type (0, 1), BuildingBlock: ZUJKAS_clean_linker_0, # of connection points: 2
#     Edge 32, Type (0, 1), BuildingBlock: ZUJKAS_clean_linker_0, # of connection points: 2
#     Edge 33, Type (0, 1), BuildingBlock: ZUJKAS_clean_linker_0, # of connection points: 2
#     Edge 34, Type (0, 1), BuildingBlock: ZUJKAS_clean_linker_0, # of connection points: 2
#     Edge 35, Type (0, 1), BuildingBlock: ZUJKAS_clean_linker_0, # of connection points: 2
# Relax obj value: 0.390
# Max RMSD: 0.254
# Mean RMSD: 0.231
data_MOF--net-zzz--node1-BETDIP_clean_sbu_0--node2-BELTOD_clean_linker_0--edge1-ZUJKAS_clean_linker_0
_symmetry_space_group_name_H-M    P1
_symmetry_Int_Tables_number       1
_symmetry_cell_setting            triclinic
loop_
_symmetry_equiv_pos_as_xyz
'x, y, z'
_cell_length_a     70.615118
_cell_length_b     70.594173
_cell_length_c     21.651905
_cell_angle_alpha  89.878878
_cell_angle_beta   90.010639
_cell_angle_gamma 90.015372
loop_
_atom_site_label
_atom_site_type_symbol
_atom_site_fract_x
_atom_site_fract_y
_atom_site_fract_z
_atom_type_partial_charge
P0 P 0.72311 0.47582 0.33384 0.0
H1 H 0.73238 0.48789 0.45985 0.0
H2 H 0.76195 0.49933 0.50462 0.0
H3 H 0.78511 0.50654 0.32135 0.0
H4 H 0.75526 0.49566 0.27702 0.0
H5 H 0.68441 0.46433 0.31249 0.0
H6 H 0.66002 0.47514 0.24183 0.0
H7 H 0.69553 0.52226 0.18788 0.0
H8 H 0.72028 0.5109 0.25861 0.0
H9 H 0.74927 0.44504 0.35885 0.0
H10 H 0.72459 0.47166 0.19833 0.0
O11 O 0.71367 0.46331 0.39165 0.0
H12 H 0.7714 0.42792 0.29231 0.0
H13 H 0.74663 0.45482 0.13214 0.0
C14 C 0.7416 0.49075 0.36502 0.0
C15 C 0.74357 0.49254 0.42918 0.0
C16 C 0.76064 0.49885 0.45481 0.0
C17 C 0.77618 0.50342 0.41677 0.0
C18 C 0.77353 0.50319 0.35227 0.0
C19 C 0.75638 0.49699 0.32671 0.0
C20 C 0.70402 0.48702 0.29194 0.0
C21 C 0.68679 0.47731 0.28686 0.0
C22 C 0.67277 0.48356 0.2462 0.0
C23 C 0.67566 0.49967 0.20904 0.0
C24 C 0.69282 0.50973 0.21542 0.0
C25 C 0.70692 0.5034 0.25641 0.0
C26 C 0.7352 0.45954 0.28369 0.0
C27 C 0.74818 0.44673 0.30923 0.0
C28 C 0.76089 0.43705 0.27124 0.0
C29 C 0.7608 0.44011 0.20706 0.0
C30 C 0.74689 0.45196 0.18131 0.0
C31 C 0.73428 0.4617 0.21936 0.0
P32 P 0.03538 0.72371 0.33121 0.0
H33 H 0.02608 0.73357 0.45896 0.0
H34 H 0.01401 0.76292 0.50312 0.0
H35 H 0.99909 0.78267 0.3206 0.0
H36 H 0.01098 0.75305 0.27667 0.0
H37 H 0.05266 0.68901 0.29163 0.0
H38 H 0.04316 0.66419 0.21995 0.0
H39 H 0.98815 0.69016 0.20106 0.0
H40 H 0.99794 0.71547 0.27298 0.0
H41 H 0.0659 0.75046 0.35445 0.0
H42 H 0.03684 0.72751 0.19604 0.0
O43 O 0.04896 0.71487 0.38743 0.0
H44 H 0.08242 0.773 0.28723 0.0
H45 H 0.05318 0.74986 0.12917 0.0
C46 C 0.01954 0.74107 0.36435 0.0
C47 C 0.0196 0.74387 0.42847 0.0
C48 C 0.01289 0.76083 0.45371 0.0
C49 C 0.00599 0.77538 0.41533 0.0
C50 C 0.0043 0.7718 0.35159 0.0
C51 C 0.01102 0.75478 0.32636 0.0
C52 C 0.02591 0.70391 0.2885 0.0
C53 C 0.03838 0.68921 0.27329 0.0
C54 C 0.03302 0.67511 0.23186 0.0
C55 C 0.01497 0.67531 0.20474 0.0
C56 C 1.00212 0.68965 0.22165 0.0
C57 C 0.00765 0.70404 0.26281 0.0
C58 C 0.05039 0.73711 0.28023 0.0
C59 C 0.06351 0.74989 0.30507 0.0
C60 C 0.07285 0.76281 0.26673 0.0
C61 C 0.06914 0.76314 0.20293 0.0
C62 C 0.05662 0.74971 0.17792 0.0
C63 C 0.04721 0.73692 0.21631 0.0
P64 P 0.78176 0.03452 0.3218 0.0
H65 H 0.77174 0.02428 0.44887 0.0
H66 H 0.74215 0.0126 0.49276 0.0
H67 H 0.72132 1.00074 0.30931 0.0
H68 H 0.75115 0.01219 0.26568 0.0
H69 H 0.81947 0.04774 0.29447 0.0
H70 H 0.84408 0.03709 0.22444 0.0
H71 H 0.81044 0.9879 0.17876 0.0
H72 H 0.78548 0.99903 0.24898 0.0
H73 H 0.75827 0.06718 0.34986 0.0
H74 H 0.77585 0.03653 0.18758 0.0
O75 O 0.79147 0.04694 0.3792 0.0
H76 H 0.73525 0.08481 0.28791 0.0
H77 H 0.7528 0.0538 0.12585 0.0
C78 C 0.76371 0.01921 0.35385 0.0
C79 C 0.76111 0.01857 0.41804 0.0
C80 C 0.74404 0.01208 0.44315 0.0
C81 C 0.72915 0.00613 0.40455 0.0
C82 C 0.73245 0.00519 0.34049 0.0
C83 C 0.74958 0.01168 0.3154 0.0
C84 C 0.8008 0.02399 0.27805 0.0
C85 C 0.81753 0.03441 0.27062 0.0
C86 C 0.83168 0.02825 0.23041 0.0
C87 C 0.8294 0.01152 0.19603 0.0
C88 C 0.81266 1.00089 0.20425 0.0
C89 C 0.79844 0.00712 0.24485 0.0
C90 C 0.76895 0.05075 0.27325 0.0
C91 C 0.75761 0.06469 0.30057 0.0
C92 C 0.74437 0.07463 0.26523 0.0
C93 C 0.74216 0.07065 0.20203 0.0
C94 C 0.75434 0.05744 0.17416 0.0
C95 C 0.76755 0.04749 0.20958 0.0
P96 P 0.474 0.78053 0.31662 0.0
H97 H 0.4847 0.76945 0.44265 0.0
H98 H 0.49622 0.73939 0.48394 0.0
H99 H 0.50689 0.7197 0.29845 0.0
H100 H 0.49518 0.7498 0.25739 0.0
H101 H 0.46302 0.81966 0.29976 0.0
H102 H 0.47427 0.84473 0.23212 0.0
H103 H 0.52092 0.80921 0.17505 0.0
H104 H 0.50919 0.78386 0.24272 0.0
H105 H 0.44485 0.75224 0.33647 0.0
H106 H 0.46904 0.78198 0.18104 0.0
O107 O 0.46109 0.78933 0.3744 0.0
H108 H 0.42878 0.73063 0.26599 0.0
H109 H 0.45265 0.76079 0.11051 0.0
C110 C 0.48897 0.7619 0.34684 0.0
C111 C 0.49011 0.75895 0.41084 0.0
C112 C 0.4967 0.74168 0.43449 0.0
C113 C 0.50217 0.72697 0.39449 0.0
C114 C 0.50246 0.73059 0.33052 0.0
C115 C 0.49599 0.74792 0.30698 0.0
C116 C 0.48546 0.80001 0.2774 0.0
C117 C 0.47599 0.81741 0.27413 0.0
C118 C 0.48248 0.83181 0.23522 0.0
C119 C 0.49858 0.82911 0.19803 0.0
C120 C 0.5084 0.81177 0.20267 0.0
C121 C 0.50186 0.79731 0.24191 0.0
C122 C 0.45815 0.76871 0.26423 0.0
C123 C 0.44614 0.75455 0.28717 0.0
C124 C 0.43691 0.74223 0.24674 0.0
C125 C 0.43958 0.74388 0.18258 0.0
C126 C 0.45053 0.75899 0.15972 0.0
C127 C 0.45985 0.77122 0.2002 0.0
P128 P 0.28803 0.46156 0.04568 0.0
H129 H 0.2768 0.45918 0.91562 0.0
H130 H 0.24771 0.46859 0.86312 0.0
H131 H 0.23089 0.50068 0.02346 0.0
H132 H 0.26013 0.49115 0.07605 0.0
H133 H 0.32689 0.44906 0.0605 0.0
H134 H 0.35301 0.46101 0.12189 0.0
H135 H 0.32152 0.51221 0.15834 0.0
H136 H 0.29516 0.50006 0.09566 0.0
H137 H 0.25718 0.43454 0.05619 0.0
H138 H 0.28963 0.46978 0.17984 0.0
O139 O 0.29499 0.44275 0.00495 0.0
H140 H 0.23509 0.42737 0.14 0.0
H141 H 0.26744 0.46342 0.26202 0.0
C142 C 0.27075 0.47443 0.99997 0.0
C143 C 0.26721 0.46873 0.93899 0.0
C144 C 0.2504 0.47395 0.90912 0.0
C145 C 0.23676 0.48509 0.93944 0.0
C146 C 0.24108 0.49212 0.99865 0.0
C147 C 0.2579 0.48678 0.02869 0.0
C148 C 0.30906 0.47372 0.07264 0.0
C149 C 0.32579 0.4632 0.07948 0.0
C150 C 0.3408 0.47006 0.11499 0.0
C151 C 0.33938 0.48754 0.14555 0.0
C152 C 0.32302 0.49862 0.13582 0.0
C153 C 0.30803 0.49181 0.09929 0.0
C154 C 0.275 0.45281 0.11127 0.0
C155 C 0.25981 0.44039 0.1016 0.0
C156 C 0.24713 0.43643 0.14942 0.0
C157 C 0.24934 0.44501 0.20757 0.0
C158 C 0.26535 0.45639 0.21813 0.0
C159 C 0.27805 0.46025 0.17045 0.0
P160 P 0.04951 0.2864 0.02879 0.0
H161 H 0.04677 0.27446 0.89936 0.0
H162 H 0.03533 0.24515 0.85361 0.0
H163 H 0.00887 0.23004 0.02675 0.0
H164 H 0.02083 0.25932 0.07271 0.0
H165 H 0.06248 0.32541 0.03357 0.0
H166 H 0.05337 0.35205 0.09768 0.0
H167 H 0.00476 0.32066 0.1628 0.0
H168 H 0.01366 0.2941 0.09588 0.0
H169 H 0.07434 0.25366 0.02979 0.0
H170 H 0.04794 0.28976 0.16547 0.0
O171 O 0.06683 0.29281 0.98062 0.0
H172 H 0.08206 0.23081 0.11088 0.0
H173 H 0.05472 0.26681 0.24531 0.0
C174 C 0.03469 0.26921 0.98964 0.0
C175 C 0.03797 0.2652 0.92707 0.0
C176 C 0.03141 0.24829 0.90083 0.0
C177 C 0.02143 0.23493 0.93663 0.0
C178 C 0.01685 0.23975 0.99802 0.0
C179 C 0.0234 0.25671 0.02417 0.0
C180 C 0.03873 0.3077 0.05941 0.0
C181 C 0.04946 0.32442 0.05977 0.0
C182 C 0.04439 0.33962 0.09748 0.0
C183 C 0.0286 0.3384 0.1369 0.0
C184 C 0.01701 0.32216 0.1331 0.0
C185 C 0.02202 0.30695 0.09451 0.0
C186 C 0.06022 0.27326 0.09103 0.0
C187 C 0.07063 0.25692 0.07714 0.0
C188 C 0.0749 0.24381 0.12347 0.0
C189 C 0.06863 0.24678 0.18437 0.0
C190 C 0.05982 0.26404 0.19902 0.0
C191 C 0.05567 0.27717 0.15276 0.0
P192 P 0.2241 0.05502 0.0586 0.0
H193 H 0.23466 0.05888 0.92842 0.0
H194 H 0.26252 0.04828 0.87151 0.0
H195 H 0.27857 0.01283 0.02559 0.0
H196 H 0.2505 0.02343 0.08231 0.0
H197 H 0.18723 0.07154 0.0803 0.0
H198 H 0.1595 0.06023 0.13503 0.0
H199 H 0.18376 0.00412 0.1433 0.0
H200 H 0.2118 0.0157 0.08728 0.0
H201 H 0.2524 0.08351 0.09058 0.0
H202 H 0.22397 0.03712 0.18171 0.0
O203 O 0.21959 0.07568 0.02395 0.0
H204 H 0.27196 0.08831 0.1827 0.0
H205 H 0.24342 0.04156 0.27222 0.0
C206 C 0.24049 0.0421 0.00999 0.0
C207 C 0.24384 0.04842 0.94948 0.0
C208 C 0.25994 0.04249 0.91711 0.0
C209 C 0.27305 0.03001 0.9444 0.0
C210 C 0.26881 0.02246 0.00309 0.0
C211 C 0.25269 0.02847 0.0356 0.0
C212 C 0.20157 0.04445 0.07885 0.0
C213 C 0.18636 0.05661 0.09146 0.0
C214 C 0.17042 0.0501 0.12318 0.0
C215 C 0.16937 0.03126 0.14407 0.0
C216 C 0.18417 0.01875 0.12829 0.0
C217 C 0.20009 0.02528 0.09552 0.0
C218 C 0.23648 0.06017 0.12932 0.0
C219 C 0.25008 0.07462 0.13069 0.0
C220 C 0.26129 0.07729 0.18322 0.0
C221 C 0.25916 0.0654 0.235 0.0
C222 C 0.24514 0.05128 0.23386 0.0
C223 C 0.234 0.04864 0.1815 0.0
P224 P 0.45779 0.21802 0.0397 0.0
H225 H 0.45492 0.23043 0.91088 0.0
H226 H 0.46458 0.25978 0.86026 0.0
H227 H 0.4976 0.27486 0.02055 0.0
H228 H 0.48775 0.24541 0.07143 0.0
H229 H 0.4452 0.17932 0.05734 0.0
H230 H 0.45762 0.15321 0.11808 0.0
H231 H 0.50928 0.18454 0.14901 0.0
H232 H 0.49667 0.21086 0.08694 0.0
H233 H 0.42875 0.24696 0.05133 0.0
H234 H 0.46772 0.21792 0.17239 0.0
O235 O 0.43919 0.21094 0.9981 0.0
H236 H 0.42103 0.26902 0.13458 0.0
H237 H 0.46069 0.24003 0.25402 0.0
C238 C 0.47063 0.23558 0.99508 0.0
C239 C 0.46471 0.2397 0.93464 0.0
C240 C 0.47008 0.25664 0.90585 0.0
C241 C 0.4816 0.26984 0.93672 0.0
C242 C 0.48876 0.265 0.99538 0.0
C243 C 0.48324 0.24805 0.02439 0.0
C244 C 0.47005 0.19704 0.06674 0.0
C245 C 0.45951 0.18039 0.07498 0.0
C246 C 0.46664 0.16538 0.1101 0.0
C247 C 0.48442 0.16676 0.13886 0.0
C248 C 0.49546 0.18307 0.12785 0.0
C249 C 0.48837 0.19805 0.09172 0.0
C250 C 0.4488 0.23076 0.10533 0.0
C251 C 0.43527 0.24501 0.09617 0.0
C252 C 0.43099 0.25768 0.14365 0.0
C253 C 0.44036 0.25641 0.20086 0.0
C254 C 0.45298 0.24132 0.21097 0.0
C255 C 0.45718 0.22866 0.16364 0.0
Tb256 Tb 0.0117 0.99943 0.73002 0.0
Tb257 Tb 0.99015 0.01163 0.61973 0.0
C258 C 0.02256 0.98347 0.82755 0.0
C259 C 0.03013 0.96467 0.84382 0.0
C260 C 0.02039 0.94799 0.82831 0.0
C261 C 0.02785 0.93033 0.84422 0.0
C262 C 0.04517 0.92901 0.87596 0.0
C263 C 0.05498 0.94571 0.89087 0.0
C264 C 0.04749 0.96338 0.87504 0.0
C265 C 0.03299 0.00888 0.63421 0.0
C266 C 0.99627 0.96824 0.6329 0.0
C267 C 0.98133 0.02984 0.52511 0.0
C268 C 0.98982 0.04775 0.50371 0.0
C269 C 0.00961 0.04995 0.50374 0.0
C270 C 0.01774 0.06754 0.49175 0.0
C271 C 0.00627 0.08336 0.47999 0.0
C272 C 0.98647 0.08118 0.47936 0.0
C273 C 0.97831 0.06347 0.49103 0.0
C274 C 0.96888 1.00165 0.71423 0.0
C275 C 0.0063 0.04224 0.71382 0.0
O276 O 0.0048 0.98424 0.81007 0.0
O277 O 0.03355 0.99409 0.79336 0.0
O278 O 0.01757 1.0 0.63312 0.0
O279 O 0.0377 0.01174 0.69122 0.0
O280 O 0.00386 0.97201 0.68771 0.0
O281 O 0.99073 0.9819 0.59512 0.0
O282 O 0.99246 0.015 0.52391 0.0
O283 O 0.97182 0.03105 0.57683 0.0
O284 O 0.98415 0.01088 0.71654 0.0
O285 O 0.96432 0.99895 0.65686 0.0
O286 O 1.00322 0.03789 0.65523 0.0
O287 O 0.00716 0.02875 0.75597 0.0
H288 H 0.00698 0.94855 0.80415 0.0
H289 H 0.02007 0.91769 0.83161 0.0
H290 H 0.06823 0.94515 0.91603 0.0
H291 H 0.05522 0.97607 0.88751 0.0
H292 H 0.01888 0.03824 0.51488 0.0
H293 H 0.03302 0.06886 0.49332 0.0
H294 H 0.97733 0.09315 0.46986 0.0
H295 H 0.96302 0.06214 0.49177 0.0
Tb296 Tb 0.50819 0.01073 0.73794 0.0
Tb297 Tb 0.49392 0.98908 0.62129 0.0
C298 C 0.52232 0.0173 0.84159 0.0
C299 C 0.53882 0.02808 0.86312 0.0
C300 C 0.55475 0.03047 0.82515 0.0
C301 C 0.57053 0.04038 0.84666 0.0
C302 C 0.5706 0.04825 0.90632 0.0
C303 C 0.55436 0.04623 0.94348 0.0
C304 C 0.53863 0.03618 0.92207 0.0
C305 C 0.50416 0.03428 0.64213 0.0
C306 C 0.53718 0.99753 0.63169 0.0
C307 C 0.47419 0.97894 0.5318 0.0
C308 C 0.45533 0.98619 0.51536 0.0
C309 C 0.45113 0.00546 0.5241 0.0
C310 C 0.43254 0.0119 0.52034 0.0
C311 C 0.41771 0.99922 0.50806 0.0
C312 C 0.42196 0.98003 0.49723 0.0
C313 C 0.44065 0.97356 0.5011 0.0
C314 C 0.5058 0.96829 0.715 0.0
C315 C 0.46447 0.00686 0.71778 0.0
O316 O 0.52606 1.00198 0.80942 0.0
O317 O 0.50855 0.02744 0.81777 0.0
O318 O 0.50091 0.01686 0.64597 0.0
O319 O 0.51011 0.03941 0.69624 0.0
O320 O 0.53442 1.00214 0.69063 0.0
O321 O 0.52305 0.99373 0.59322 0.0
O322 O 0.48831 0.99092 0.52636 0.0
O323 O 0.47466 0.96961 0.58413 0.0
O324 O 0.49655 0.98352 0.71802 0.0
O325 O 0.50778 0.96363 0.6574 0.0
O326 O 0.4681 1.00162 0.66025 0.0
O327 O 0.47809 0.00921 0.75907 0.0
H328 H 0.55509 0.02446 0.77916 0.0
H329 H 0.58285 0.04142 0.81708 0.0
H330 H 0.5538 0.05238 0.98923 0.0
H331 H 0.52635 0.03465 0.95166 0.0
H332 H 0.4621 0.01548 0.53639 0.0
H333 H 0.42976 0.02681 0.52774 0.0
H334 H 0.41078 0.96994 0.48781 0.0
H335 H 0.44355 0.9586 0.49543 0.0
Tb336 Tb 0.49589 0.50727 0.74441 0.0
Tb337 Tb 0.51737 0.49357 0.62652 0.0
C338 C 0.48958 0.52059 0.84936 0.0
C339 C 0.47868 0.53671 0.87257 0.0
C340 C 0.47602 0.53889 0.93619 0.0
C341 C 0.46621 0.55457 0.95891 0.0
C342 C 0.45894 0.56835 0.91825 0.0
C343 C 0.46131 0.56585 0.85427 0.0
C344 C 0.4711 0.55014 0.8316 0.0
C345 C 0.47218 0.50358 0.64896 0.0
C346 C 0.50895 0.53688 0.63976 0.0
C347 C 0.52703 0.47509 0.53355 0.0
C348 C 0.51903 0.45715 0.51147 0.0
C349 C 0.50013 0.45261 0.52509 0.0
C350 C 0.49296 0.43474 0.5114 0.0
C351 C 0.50458 0.42097 0.48413 0.0
C352 C 0.52345 0.42562 0.46953 0.0
C353 C 0.53064 0.4436 0.48333 0.0
C354 C 0.53838 0.50506 0.72009 0.0
C355 C 0.50003 0.46361 0.72236 0.0
O356 O 0.50455 0.52499 0.81626 0.0
O357 O 0.47956 0.50683 0.82505 0.0
O358 O 0.48962 0.50036 0.65227 0.0
O359 O 0.46714 0.50926 0.70346 0.0
O360 O 0.50419 0.53383 0.69845 0.0
O361 O 0.51285 0.52294 0.60075 0.0
O362 O 0.51569 0.48979 0.53075 0.0
O363 O 0.53585 0.47384 0.58663 0.0
O364 O 0.52311 0.49588 0.72312 0.0
O365 O 0.54307 0.507 0.66247 0.0
O366 O 0.50501 0.46749 0.66468 0.0
O367 O 0.49775 0.47707 0.76417 0.0
H368 H 0.4817 0.52855 0.96831 0.0
H369 H 0.4644 0.55596 0.00837 0.0
H370 H 0.45609 0.57631 0.8218 0.0
H371 H 0.47303 0.54861 0.78221 0.0
H372 H 0.49097 0.46273 0.54777 0.0
H373 H 0.4783 0.43172 0.52228 0.0
H374 H 0.53278 0.41523 0.44891 0.0
H375 H 0.54535 0.44675 0.47352 0.0
Tb376 Tb 1.00048 0.49207 0.73498 0.0
Tb377 Tb 0.0119 0.51589 0.62887 0.0
C378 C 0.98462 0.47919 0.83001 0.0
C379 C 0.96551 0.47231 0.84547 0.0
C380 C 0.94928 0.48282 0.83006 0.0
C381 C 0.93134 0.4762 0.84637 0.0
C382 C 0.92929 0.45892 0.87806 0.0
C383 C 0.94551 0.44823 0.89213 0.0
C384 C 0.96347 0.45491 0.87612 0.0
C385 C 0.01063 0.47277 0.63594 0.0
C386 C 0.96876 0.5086 0.64133 0.0
C387 C 0.02971 0.52682 0.53582 0.0
C388 C 0.04841 0.52007 0.5157 0.0
C389 C 0.05313 0.50085 0.52291 0.0
C390 C 0.07158 0.49469 0.51289 0.0
C391 C 0.08575 0.50758 0.49556 0.0
C392 C 0.08095 0.52675 0.48685 0.0
C393 C 0.0624 0.53297 0.49715 0.0
C394 C 1.00155 0.53524 0.72705 0.0
C395 C 0.04319 0.49892 0.72035 0.0
O396 O 0.98633 0.49731 0.81812 0.0
O397 O 0.99427 0.4687 0.79156 0.0
O398 O 1.00116 0.48787 0.63712 0.0
O399 O 0.0138 0.46733 0.69217 0.0
O400 O 0.97288 0.49985 0.69405 0.0
O401 O 0.98213 0.5154 0.6048 0.0
O402 O 0.01601 0.51434 0.5332 0.0
O403 O 0.02977 0.53612 0.58803 0.0
O404 O 0.01115 0.52016 0.72666 0.0
O405 O 0.99863 0.54067 0.67054 0.0
O406 O 0.03875 0.50375 0.66305 0.0
O407 O 0.0298 0.49611 0.76186 0.0
H408 H 0.95043 0.49622 0.80591 0.0
H409 H 0.91905 0.48462 0.83441 0.0
H410 H 0.94435 0.43496 0.91709 0.0
H411 H 0.97582 0.44658 0.88826 0.0
H412 H 0.04269 0.4906 0.53805 0.0
H413 H 0.07476 0.47978 0.51881 0.0
H414 H 0.09164 0.537 0.47366 0.0
H415 H 0.05911 0.54789 0.4924 0.0
H416 H 0.13153 0.04006 0.1371 0.0
H417 H 0.10726 0.03501 0.21614 0.0
H418 H 0.14773 0.00497 0.32868 0.0
H419 H 0.17211 0.00999 0.24989 0.0
H420 H 0.11183 0.98816 0.32929 0.0
H421 H 0.107 0.06522 0.37727 0.0
H422 H 0.10281 0.05896 0.2981 0.0
H423 H 0.1258 0.05511 0.33154 0.0
C424 C 0.13525 0.03226 0.17848 0.0
C425 C 0.15386 0.02558 0.18725 0.0
C426 C 0.12137 0.02944 0.22375 0.0
C427 C 0.12577 0.02 0.27907 0.0
C428 C 0.14402 0.01241 0.28657 0.0
H429 H 0.06729 0.02662 0.63138 0.0
H430 H 0.08935 0.029 0.54427 0.0
C431 C 0.15792 0.01518 0.24121 0.0
C432 C 0.1116 0.01864 0.32998 0.0
H433 H 0.08509 0.04542 0.4291 0.0
C434 C 0.10596 1.00067 0.35106 0.0
C435 C 0.10413 0.03497 0.35909 0.0
C436 C 0.11034 0.05467 0.34087 0.0
C437 C 0.09294 0.9986 0.39989 0.0
C438 C 0.08514 0.01495 0.42798 0.0
C439 C 0.09092 0.0329 0.40725 0.0
C440 C 0.07144 0.01375 0.48027 0.0
C441 C 0.08801 0.97892 0.42196 0.0
C442 C 0.05385 0.00471 0.47313 0.0
C443 C 0.04124 1.00331 0.52293 0.0
C444 C 0.04592 0.01106 0.58074 0.0
C445 C 0.06333 0.02046 0.58746 0.0
C446 C 0.07593 0.02184 0.53768 0.0
H447 H 0.09859 0.9683 0.4065 0.0
H448 H 0.08707 0.97841 0.47313 0.0
H449 H 0.07403 0.9748 0.40282 0.0
H450 H 0.04985 0.99871 0.42901 0.0
H451 H 0.0279 0.99602 0.51629 0.0
H452 H 0.50018 0.17223 0.25303 0.0
H453 H 0.50548 0.14859 0.33411 0.0
H454 H 0.4862 0.10455 0.21167 0.0
H455 H 0.48118 0.12806 0.12996 0.0
H456 H 0.47624 0.12551 0.38309 0.0
H457 H 0.5346 0.08164 0.28793 0.0
H458 H 0.5294 0.10516 0.25961 0.0
H459 H 0.51493 0.08547 0.23669 0.0
C460 C 0.49757 0.15745 0.24269 0.0
C461 C 0.49028 0.15207 0.18482 0.0
C462 C 0.50046 0.14396 0.28932 0.0
C463 C 0.49636 0.12475 0.27897 0.0
C464 C 0.48973 0.11922 0.22058 0.0
H465 H 0.49571 0.02503 0.52166 0.0
H466 H 0.49313 0.04657 0.43289 0.0
C467 C 0.48674 0.13271 0.17401 0.0
C468 C 0.49754 0.11083 0.33067 0.0
H469 H 0.51962 0.07027 0.37876 0.0
C470 C 0.4858 0.11348 0.38225 0.0
C471 C 0.50981 0.09499 0.32924 0.0
C472 C 0.52304 0.09164 0.27568 0.0
C473 C 0.48589 0.10072 0.43219 0.0
C474 C 0.49842 0.08505 0.43143 0.0
C475 C 0.51003 0.08226 0.37949 0.0
C476 C 0.50004 0.07179 0.48493 0.0
C477 C 0.47223 0.10395 0.48473 0.0
C478 C 0.50506 0.07865 0.54353 0.0
C479 C 0.50629 0.06637 0.59415 0.0
C480 C 0.50272 0.04689 0.58739 0.0
C481 C 0.49815 0.03994 0.52854 0.0
C482 C 0.49683 0.05226 0.47772 0.0
H483 H 0.45997 0.11274 0.47006 0.0
H484 H 0.46681 0.09033 0.50343 0.0
H485 H 0.47962 0.11158 0.52245 0.0
H486 H 0.5081 0.09354 0.55015 0.0
H487 H 0.51007 0.07217 0.63877 0.0
H488 H 0.33393 0.50225 0.26119 0.0
H489 H 0.35757 0.50688 0.34252 0.0
H490 H 0.40159 0.48873 0.21815 0.0
H491 H 0.37809 0.48442 0.1362 0.0
H492 H 0.3806 0.47751 0.38947 0.0
H493 H 0.42458 0.53639 0.29765 0.0
H494 H 0.40111 0.53134 0.26883 0.0
H495 H 0.42086 0.51706 0.24519 0.0
C496 C 0.3487 0.49975 0.25052 0.0
C497 C 0.35408 0.493 0.19197 0.0
C498 C 0.36219 0.50225 0.2973 0.0
C499 C 0.3814 0.49828 0.28648 0.0
C500 C 0.38692 0.49216 0.22748 0.0
H501 H 0.48125 0.4957 0.52788 0.0
H502 H 0.45963 0.49372 0.43935 0.0
C503 C 0.37343 0.48957 0.18076 0.0
C504 C 0.39535 0.49908 0.33815 0.0
H505 H 0.43603 0.52069 0.38716 0.0
C506 C 0.39267 0.48702 0.38907 0.0
C507 C 0.41124 0.51131 0.33734 0.0
C508 C 0.41462 0.52489 0.28462 0.0
C509 C 0.40545 0.48675 0.43888 0.0
C510 C 0.42118 0.49922 0.43872 0.0
C511 C 0.42399 0.51115 0.38745 0.0
C512 C 0.43449 0.50043 0.49214 0.0
C513 C 0.40218 0.47277 0.49065 0.0
C514 C 0.42771 0.50512 0.55114 0.0
C515 C 0.44005 0.50602 0.60163 0.0
C516 C 0.45951 0.50243 0.59436 0.0
C517 C 0.46637 0.49816 0.53515 0.0
C518 C 0.45399 0.49717 0.48447 0.0
H519 H 0.3933 0.46066 0.47538 0.0
H520 H 0.41578 0.46716 0.50881 0.0
H521 H 0.39463 0.47997 0.52892 0.0
H522 H 0.41284 0.50818 0.55818 0.0
H523 H 0.43431 0.50958 0.64653 0.0
H524 H 0.05531 0.35679 0.20604 0.0
H525 H 0.05065 0.38061 0.28578 0.0
H526 H 0.99024 0.37744 0.25924 0.0
H527 H 0.99478 0.35354 0.17833 0.0
H528 H 0.03381 0.41611 0.28047 0.0
H529 H 0.99614 0.36897 0.44563 0.0
H530 H 0.00871 0.35998 0.37932 0.0
H531 H 0.98574 0.37054 0.37004 0.0
C532 C 0.04099 0.36129 0.21627 0.0
C533 C 0.02542 0.35326 0.18509 0.0
C534 C 0.03836 0.37488 0.26234 0.0
C535 C 0.0201 0.38075 0.27906 0.0
C536 C 0.00447 0.37292 0.24793 0.0
H537 H 0.998 0.47909 0.51798 0.0
H538 H 0.99998 0.45754 0.42943 0.0
C539 C 0.00709 0.35926 0.2016 0.0
C540 C 0.01769 0.39498 0.32934 0.0
H541 H 0.99989 0.40094 0.47491 0.0
C542 C 0.0263 0.41283 0.32285 0.0
C543 C 0.0081 0.39063 0.38503 0.0
C544 C 0.99927 0.37146 0.39598 0.0
C545 C 0.02565 0.42638 0.37043 0.0
C546 C 0.01593 0.42209 0.42588 0.0
C547 C 0.00725 0.40428 0.43228 0.0
C548 C 0.01517 0.43558 0.47875 0.0
C549 C 0.03589 0.44496 0.3617 0.0
C550 C 0.0229 0.43041 0.53615 0.0
C551 C 0.02178 0.4427 0.58672 0.0
C552 C 0.01277 0.46037 0.58114 0.0
C553 C 0.00517 0.46563 0.52357 0.0
C554 C 0.00632 0.45333 0.47289 0.0
H555 H 0.04624 0.44433 0.32311 0.0
H556 H 0.02542 0.45621 0.35088 0.0
H557 H 0.0435 0.4491 0.40451 0.0
H558 H 0.02978 0.41681 0.54188 0.0
H559 H 0.02776 0.43824 0.63047 0.0
H560 H 0.86809 0.01419 0.20594 0.0
H561 H 0.89166 0.00963 0.12479 0.0
H562 H 0.84782 0.99118 1.00005 0.0
H563 H 0.82399 0.9966 0.08004 0.0
H564 H 0.90329 0.97969 0.05569 0.0
H565 H 0.87116 0.03439 0.90396 0.0
H566 H 0.864 0.03114 0.98321 0.0
H567 H 0.85522 0.01556 0.92408 0.0
C568 C 0.8634 0.00923 0.16118 0.0
C569 C 0.84403 0.00609 0.1494 0.0
C570 C 0.87696 0.00649 0.11491 0.0
C571 C 0.8715 1.00051 0.05575 0.0
C572 C 0.85234 0.99628 0.04482 0.0
H573 H 0.93327 0.98692 0.71059 0.0
H574 H 0.91014 0.9852 0.79468 0.0
C575 C 0.83873 0.99914 0.091 0.0
C576 C 0.8858 0.99936 0.00526 0.0
H577 H 0.8968 0.01703 0.86253 0.0
C578 C 0.90187 0.98786 0.01347 0.0
C579 C 0.88406 0.01013 0.95025 0.0
C580 C 0.86779 0.02365 0.9399 0.0
C581 C 0.91604 0.98665 0.96793 0.0
C582 C 0.91421 0.99736 0.91296 0.0
C583 C 0.89813 0.00877 0.9046 0.0
C584 C 0.92883 0.99714 0.86353 0.0
C585 C 0.93276 0.97376 0.97856 0.0
C586 C 0.94708 0.00438 0.87429 0.0
C587 C 0.96032 0.00546 0.82615 0.0
C588 C 0.95552 0.99934 0.76642 0.0
C589 C 0.93739 0.99175 0.75611 0.0
C590 C 0.92415 0.99076 0.8041 0.0
H591 H 0.92999 0.96333 0.016 0.0
H592 H 0.93643 0.96597 0.93568 0.0
H593 H 0.94521 0.9824 0.99206 0.0
H594 H 0.95091 0.00967 0.91951 0.0
H595 H 0.97415 0.01145 0.83538 0.0
H596 H 0.51116 0.82391 0.07922 0.0
H597 H 0.51668 0.84804 1.00012 0.0
H598 H 0.50256 0.89178 0.13097 0.0
H599 H 0.49791 0.86784 0.21103 0.0
H600 H 0.49054 0.87173 0.95443 0.0
H601 H 0.54895 0.91445 0.05275 0.0
H602 H 0.54262 0.89144 0.08291 0.0
H603 H 0.52931 0.91212 0.10474 0.0
C604 C 0.50978 0.83868 0.09181 0.0
C605 C 0.50407 0.84386 0.15173 0.0
C606 C 0.51278 0.85248 0.04627 0.0
C607 C 0.51023 0.87179 0.05953 0.0
C608 C 0.50502 0.87704 0.11969 0.0
H609 H 0.4969 0.97362 0.83686 0.0
H610 H 0.49923 0.95032 0.92099 0.0
C611 C 0.50211 0.86327 0.16533 0.0
C612 C 0.51142 0.88624 0.00933 0.0
H613 H 0.53198 0.92833 0.96824 0.0
C614 C 0.49977 0.88399 0.95725 0.0
C615 C 0.52337 0.90234 0.013 0.0
C616 C 0.5369 0.90517 0.06608 0.0
C617 C 0.49944 0.8975 0.90954 0.0
C618 C 0.51121 0.91367 0.91353 0.0
C619 C 0.52293 0.91595 0.96537 0.0
C620 C 0.51141 0.92831 0.8641 0.0
C621 C 0.48614 0.89462 0.8558 0.0
C622 C 0.51797 0.92384 0.80471 0.0
C623 C 0.51673 0.93711 0.75679 0.0
C624 C 0.50889 0.95511 0.76734 0.0
C625 C 0.50299 0.95984 0.82738 0.0
C626 C 0.50431 0.94656 0.87543 0.0
H627 H 0.47524 0.88368 0.86586 0.0
H628 H 0.47889 0.90807 0.84353 0.0
H629 H 0.49437 0.88992 0.81497 0.0
H630 H 0.52373 0.90993 0.79517 0.0
H631 H 0.52148 0.93309 0.71109 0.0
H632 H 0.63683 0.49821 0.21785 0.0
H633 H 0.61368 0.50219 0.13505 0.0
H634 H 0.6584 0.51785 0.00942 0.0
H635 H 0.6818 0.5129 0.09106 0.0
H636 H 0.60283 0.53112 0.06094 0.0
H637 H 0.63464 0.47412 0.9187 0.0
H638 H 0.64164 0.47829 0.99759 0.0
H639 H 0.65083 0.49292 0.93638 0.0
C640 C 0.64181 0.50241 0.17255 0.0
C641 C 0.6613 0.50489 0.16111 0.0
C642 C 0.62849 0.50483 0.1253 0.0
C643 C 0.6343 0.50985 0.06546 0.0
C644 C 0.6536 0.51347 0.05474 0.0
H645 H 0.57383 0.52019 0.71601 0.0
H646 H 0.59665 0.52295 0.80075 0.0
C647 C 0.66696 0.51091 0.10188 0.0
C648 C 0.62022 0.51061 0.01416 0.0
H649 H 0.60954 0.49144 0.87344 0.0
C650 C 0.6043 0.52244 0.01997 0.0
C651 C 0.62202 0.49917 0.96075 0.0
C652 C 0.63809 0.48527 0.95306 0.0
C653 C 0.59032 0.52329 0.97366 0.0
C654 C 0.59223 0.51194 0.9203 0.0
C655 C 0.60816 0.50021 0.91426 0.0
C656 C 0.57776 0.5117 0.87037 0.0
C657 C 0.57372 0.5365 0.98173 0.0
C658 C 0.5595 0.50452 0.88137 0.0
C659 C 0.54645 0.50283 0.83288 0.0
C660 C 0.55144 0.5083 0.77256 0.0
C661 C 0.56956 0.51589 0.762 0.0
C662 C 0.58262 0.51746 0.81035 0.0
H663 H 0.57641 0.54724 0.01813 0.0
H664 H 0.57042 0.54391 0.93774 0.0
H665 H 0.56107 0.52815 0.99536 0.0
H666 H 0.55553 0.49969 0.92708 0.0
H667 H 0.53264 0.49679 0.84231 0.0
H668 H 0.98484 0.65068 0.20021 0.0
H669 H 0.97975 0.62495 0.12536 0.0
H670 H 0.02942 0.64283 0.02492 0.0
H671 H 0.03486 0.6679 0.10047 0.0
H672 H 0.97352 0.62281 0.00427 0.0
H673 H 0.0421 0.5884 0.05287 0.0
H674 H 0.03295 0.60731 0.10011 0.0
H675 H 0.04553 0.61252 0.02962 0.0
C676 C 0.99456 0.6491 0.16188 0.0
C677 C 0.01038 0.66108 0.15652 0.0
C678 C 0.9917 0.6344 0.11925 0.0
C679 C 0.00454 0.63153 0.07042 0.0
C680 C 0.01971 0.64423 0.06334 0.0
H681 H 0.98937 0.57181 0.72738 0.0
H682 H 0.98851 0.59378 0.81413 0.0
C683 C 0.02272 0.65866 0.10625 0.0
C684 C 1.00229 0.61536 0.02671 0.0
H685 H 0.02689 0.57942 0.95817 0.0
C686 C 0.98512 0.61318 0.9947 0.0
C687 C 0.01719 0.60239 0.0152 0.0
C688 C 0.03538 0.60263 0.05183 0.0
C689 C 0.98278 0.59902 0.94962 0.0
C690 C 0.99824 0.58705 0.93457 0.0
C691 C 0.01509 0.5887 0.96865 0.0
C692 C 0.99762 0.57323 0.88238 0.0
C693 C 0.96367 0.59697 0.91919 0.0
C694 C 0.00357 0.55437 0.89085 0.0
C695 C 0.00455 0.54186 0.84071 0.0
C696 C 0.99947 0.54792 0.78112 0.0
C697 C 0.99321 0.56665 0.77284 0.0
C698 C 0.99252 0.57921 0.82269 0.0
H699 H 0.95214 0.60177 0.95037 0.0
H700 H 0.9632 0.606 0.87721 0.0
H701 H 0.96083 0.58208 0.90564 0.0
H702 H 0.00772 0.54937 0.93621 0.0
H703 H 0.00957 0.52756 0.84844 0.0
H704 H 0.06041 0.20983 0.16118 0.0
H705 H 0.05347 0.18508 0.23603 0.0
H706 H 0.06744 0.22295 0.38509 0.0
H707 H 0.07503 0.24796 0.30997 0.0
H708 H 0.08003 0.1796 0.38971 0.0
H709 H 0.00395 0.19545 0.35024 0.0
H710 H 0.01806 0.19378 0.28129 0.0
H711 H 0.02255 0.21248 0.33552 0.0
C712 C 0.06273 0.2128 0.20964 0.0
C713 C 0.06825 0.23094 0.22953 0.0
C714 C 0.05856 0.19866 0.25238 0.0
C715 C 0.05974 0.20236 0.31575 0.0
C716 C 0.06639 0.21996 0.33616 0.0
H717 H 0.99624 0.11775 0.52812 0.0
H718 H 0.01053 0.14868 0.50526 0.0
C719 C 0.07063 0.2342 0.29325 0.0
C720 C 0.05229 0.1882 0.35947 0.0
H721 H 0.01122 0.16525 0.39408 0.0
C722 C 0.06497 0.17664 0.392 0.0
C723 C 0.03263 0.18472 0.36322 0.0
C724 C 0.01844 0.19735 0.33118 0.0
C725 C 0.05849 0.16068 0.42452 0.0
C726 C 0.03897 0.15613 0.42304 0.0
C727 C 0.0262 0.16864 0.39472 0.0
C728 C 0.03174 0.13744 0.44312 0.0
C729 C 0.07267 0.14856 0.4585 0.0
C730 C 0.03883 0.12096 0.41537 0.0
C731 C 0.03067 0.10341 0.42801 0.0
C732 C 0.0151 0.10202 0.46812 0.0
C733 C 0.00809 0.11849 0.49643 0.0
C734 C 0.01634 0.13609 0.48392 0.0
H735 H 0.08485 0.15717 0.4748 0.0
H736 H 0.06612 0.14133 0.49881 0.0
H737 H 0.07828 0.13762 0.42664 0.0
H738 H 0.05026 0.12174 0.38211 0.0
H739 H 0.03619 0.09099 0.40492 0.0
H740 H 0.25195 0.06142 0.35898 0.0
H741 H 0.27526 0.05545 0.44053 0.0
H742 H 0.32043 0.06411 0.30937 0.0
H743 H 0.29741 0.06986 0.22809 0.0
H744 H 0.29867 0.02542 0.43435 0.0
H745 H 0.3419 0.08984 0.46018 0.0
H746 H 0.31869 0.09024 0.42494 0.0
H747 H 0.33932 0.08425 0.37993 0.0
C748 C 0.26687 0.06247 0.34796 0.0
C749 C 0.27284 0.06599 0.28696 0.0
C750 C 0.28015 0.05916 0.39465 0.0
C751 C 0.29957 0.05954 0.38121 0.0
C752 C 0.30553 0.06425 0.32127 0.0
H753 H 0.39053 0.99058 0.42329 0.0
H754 H 0.35924 0.00484 0.41277 0.0
C755 C 0.29231 0.06751 0.27465 0.0
C756 C 0.31357 0.05199 0.42574 0.0
H757 H 0.35866 0.05966 0.47573 0.0
C758 C 0.31156 0.0331 0.44512 0.0
C759 C 0.33021 0.06207 0.441 0.0
C760 C 0.33254 0.0828 0.42594 0.0
C761 C 0.32658 0.02346 0.47346 0.0
C762 C 0.34404 0.03289 0.48155 0.0
C763 C 0.34535 0.05232 0.46837 0.0
C764 C 0.36172 0.02239 0.49431 0.0
C765 C 0.32394 1.00299 0.49158 0.0
C766 C 0.37348 0.02754 0.54367 0.0
C767 C 0.39143 0.01943 0.54963 0.0
C768 C 0.39795 0.00619 0.50593 0.0
C769 C 0.38583 1.00056 0.45799 0.0
C770 C 0.36791 0.00866 0.4521 0.0
H771 H 0.30892 1.00002 0.50354 0.0
H772 H 0.32778 0.99381 0.45196 0.0
H773 H 0.33303 0.99912 0.53152 0.0
H774 H 0.36896 0.03816 0.57656 0.0
H775 H 0.40038 0.02381 0.58766 0.0
H776 H 0.43965 0.29427 0.17621 0.0
H777 H 0.44545 0.31996 0.24838 0.0
H778 H 0.44601 0.28025 0.39989 0.0
H779 H 0.43973 0.25425 0.3278 0.0
H780 H 0.42834 0.33327 0.36411 0.0
H781 H 0.50092 0.30287 0.388 0.0
H782 H 0.48503 0.29557 0.32727 0.0
H783 H 0.48103 0.28781 0.40512 0.0
C784 C 0.44025 0.29098 0.22505 0.0
C785 C 0.43943 0.27214 0.24612 0.0
C786 C 0.44367 0.30572 0.26625 0.0
C787 C 0.44644 0.30191 0.32912 0.0
C788 C 0.44414 0.28338 0.35127 0.0
H789 H 0.4817 0.39916 0.55753 0.0
H790 H 0.46683 0.36885 0.53122 0.0
C791 C 0.44061 0.26858 0.31003 0.0
C792 C 0.45407 0.31703 0.36889 0.0
H793 H 0.49587 0.33326 0.42768 0.0
C794 C 0.44296 0.33316 0.37946 0.0
C795 C 0.47323 0.31679 0.38802 0.0
C796 C 0.48587 0.29992 0.37646 0.0
C797 C 0.45079 0.34945 0.40626 0.0
C798 C 0.47015 0.34948 0.42277 0.0
C799 C 0.48101 0.33306 0.41498 0.0
C800 C 0.47989 0.36706 0.44111 0.0
C801 C 0.43867 0.36692 0.41333 0.0
C802 C 0.49244 0.37573 0.39959 0.0
C803 C 0.50083 0.39304 0.41415 0.0
C804 C 0.49683 0.40192 0.47063 0.0
C805 C 0.48474 0.39283 0.51309 0.0
C806 C 0.4763 0.37552 0.49836 0.0
H807 H 0.42437 0.36508 0.39284 0.0
H808 H 0.43701 0.37023 0.46312 0.0
H809 H 0.44566 0.37926 0.39101 0.0
H810 H 0.49534 0.36933 0.35513 0.0
H811 H 0.50995 0.39974 0.38035 0.0
H812 H 0.21141 0.44698 0.18553 0.0
H813 H 0.18639 0.45277 0.26022 0.0
H814 H 0.2268 0.44904 0.40902 0.0
H815 H 0.25211 0.44276 0.33427 0.0
H816 H 0.17312 0.43367 0.37184 0.0
H817 H 0.20574 0.50458 0.41192 0.0
H818 H 0.21239 0.48999 0.34714 0.0
H819 H 0.22018 0.48387 0.42346 0.0
C820 C 0.21497 0.44667 0.23417 0.0
C821 C 0.23383 0.44455 0.25383 0.0
C822 C 0.20063 0.45011 0.27683 0.0
C823 C 0.20485 0.4516 0.33985 0.0
C824 C 0.22337 0.44818 0.36035 0.0
H825 H 0.10615 0.48311 0.56761 0.0
H826 H 0.13698 0.46894 0.54377 0.0
C827 C 0.23778 0.44464 0.3176 0.0
C828 C 0.19011 0.45876 0.38206 0.0
H829 H 0.17512 0.49967 0.45002 0.0
C830 C 0.17367 0.44792 0.39043 0.0
C831 C 0.19093 0.47743 0.4055 0.0
C832 C 0.20818 0.48978 0.39655 0.0
C833 C 0.15758 0.45564 0.41879 0.0
C834 C 0.15811 0.47462 0.43948 0.0
C835 C 0.17489 0.48511 0.43421 0.0
C836 C 0.1407 0.48455 0.45857 0.0
C837 C 0.13974 0.44392 0.42264 0.0
C838 C 0.13302 0.49848 0.41962 0.0
C839 C 0.11546 0.50653 0.43289 0.0
C840 C 0.10532 0.50077 0.48542 0.0
C841 C 0.11351 0.4875 0.52608 0.0
C842 C 0.1311 0.47945 0.51273 0.0
H843 H 0.1411 0.43021 0.39792 0.0
H844 H 0.13646 0.44089 0.4718 0.0
H845 H 0.12759 0.45186 0.40282 0.0
H846 H 0.14029 0.50256 0.37757 0.0
H847 H 0.10947 0.51662 0.40062 0.0
H848 H 0.08398 0.76123 0.08604 0.0
H849 H 0.08975 0.78783 0.01554 0.0
H850 H 0.0746 0.82697 0.16018 0.0
H851 H 0.06918 0.80065 0.2305 0.0
H852 H 0.06309 0.81054 0.97774 0.0
H853 H 0.11776 0.85508 0.08522 0.0
H854 H 0.11379 0.83088 0.10914 0.0
H855 H 0.09989 0.84988 0.14141 0.0
C856 C 0.08239 0.77556 0.10307 0.0
C857 C 0.07616 0.77888 0.16376 0.0
C858 C 0.08574 0.79072 0.06288 0.0
C859 C 0.08288 0.80944 0.08273 0.0
C860 C 0.07752 0.81274 0.1442 0.0
H861 H 0.02537 0.90009 0.92847 0.0
H862 H 0.03753 0.86995 0.96649 0.0
C863 C 0.07433 0.79763 0.18444 0.0
C864 C 0.0825 0.8253 0.03776 0.0
H865 H 0.09376 0.87209 0.02409 0.0
C866 C 0.07022 0.82385 0.98695 0.0
C867 C 0.09207 0.84258 0.04864 0.0
C868 C 0.10677 0.84459 0.09873 0.0
C869 C 0.06596 0.83966 0.95028 0.0
C870 C 0.07379 0.85745 0.96588 0.0
C871 C 0.08741 0.85853 0.01299 0.0
C872 C 0.06652 0.87529 0.93873 0.0
C873 C 0.05262 0.83724 0.89644 0.0
C874 C 0.07885 0.88854 0.91186 0.0
C875 C 0.07192 0.90592 0.89049 0.0
C876 C 0.05256 0.91031 0.89585 0.0
C877 C 0.04027 0.89696 0.9225 0.0
C878 C 0.04721 0.87969 0.94407 0.0
H879 H 0.05367 0.82273 0.87689 0.0
H880 H 0.03784 0.83925 0.91257 0.0
H881 H 0.05556 0.84768 0.85922 0.0
H882 H 0.09383 0.88548 0.90783 0.0
H883 H 0.08169 0.91592 0.86984 0.0
H884 H 0.74098 0.08401 0.08282 0.0
H885 H 0.71256 0.09042 0.02114 0.0
H886 H 0.67766 0.07923 0.18064 0.0
H887 H 0.70576 0.07304 0.24211 0.0
H888 H 0.68709 0.06406 0.99755 0.0
H889 H 0.64988 0.12339 0.10906 0.0
H890 H 0.67447 0.11822 0.12458 0.0
H891 H 0.65596 0.10591 0.16573 0.0
C892 C 0.72724 0.0834 0.10495 0.0
C893 C 0.72561 0.07805 0.16734 0.0
C894 C 0.71104 0.08713 0.06978 0.0
C895 C 0.69297 0.08559 0.09643 0.0
C896 C 0.69142 0.08112 0.15941 0.0
H897 H 0.5852 0.04583 0.02301 0.0
H898 H 0.61484 0.05915 0.06116 0.0
C899 C 0.70756 0.07751 0.19458 0.0
C900 C 0.67573 0.08562 0.05734 0.0
H901 H 0.62966 0.1003 0.05591 0.0
C902 C 0.6747 0.07242 0.00903 0.0
C903 C 0.65956 0.09654 0.07223 0.0
C904 C 0.66011 0.11194 0.12034 0.0
C905 C 0.65755 0.06875 0.97868 0.0
C906 C 0.6411 0.0786 0.99703 0.0
C907 C 0.64234 0.09268 0.04241 0.0
C908 C 0.62222 0.07274 0.9749 0.0
C909 C 0.65682 0.05345 0.93012 0.0
C910 C 0.61646 0.07636 0.91409 0.0
C911 C 0.59939 0.06891 0.89216 0.0
C912 C 0.58788 0.05766 0.93072 0.0
C913 C 0.59352 0.05463 0.99227 0.0
C914 C 0.6105 0.06217 0.01415 0.0
H915 H 0.67066 0.04619 0.92427 0.0
H916 H 0.64596 0.04273 0.94256 0.0
H917 H 0.65268 0.05977 0.88513 0.0
H918 H 0.62535 0.08458 0.88332 0.0
H919 H 0.59531 0.07177 0.84483 0.0
H920 H 0.45964 0.72792 0.08906 0.0
H921 H 0.45224 0.69923 0.03257 0.0
H922 H 0.39847 0.69528 0.12629 0.0
H923 H 0.40588 0.72427 0.18377 0.0
H924 H 0.41783 0.66353 0.13794 0.0
H925 H 0.4193 0.68315 0.89208 0.0
H926 H 0.4401 0.69223 0.92894 0.0
H927 H 0.41708 0.70066 0.95238 0.0
C928 C 0.44591 0.72142 0.09614 0.0
C929 C 0.43332 0.72843 0.14087 0.0
C930 C 0.44166 0.70497 0.06353 0.0
C931 C 0.42465 0.69524 0.0743 0.0
C932 C 0.41162 0.70265 0.11688 0.0
H933 H 0.42719 0.58655 0.875 0.0
H934 H 0.41357 0.61635 0.9127 0.0
C935 C 0.4159 0.71914 0.14984 0.0
C936 C 0.42212 0.67603 0.04802 0.0
H937 H 0.43033 0.65088 0.91643 0.0
C938 C 0.42001 0.66078 0.08918 0.0
C939 C 0.42454 0.67234 0.9843 0.0
C940 C 0.42515 0.68803 0.93695 0.0
C941 C 0.42211 0.64203 0.06922 0.0
C942 C 0.42688 0.63851 0.00686 0.0
C943 C 0.4271 0.6536 0.96458 0.0
C944 C 0.43396 0.6198 0.98645 0.0
C945 C 0.41996 0.62622 0.11569 0.0
C946 C 0.45001 0.612 0.015 0.0
C947 C 0.45782 0.59513 0.99358 0.0
C948 C 0.44984 0.58574 0.94267 0.0
C949 C 0.4337 0.59352 0.91413 0.0
C950 C 0.42586 0.61046 0.93576 0.0
H951 H 0.40979 0.63018 0.15263 0.0
H952 H 0.41502 0.61294 0.09351 0.0
H953 H 0.43385 0.62348 0.13799 0.0
H954 H 0.45688 0.61929 0.05288 0.0
H955 H 0.4705 0.58977 0.01569 0.0
H956 H 0.79826 0.44185 0.23459 0.0
H957 H 0.82479 0.43707 0.16471 0.0
H958 H 0.78636 0.41903 0.02149 0.0
H959 H 0.75949 0.42417 0.09142 0.0
H960 H 0.83963 0.40839 0.09645 0.0
H961 H 0.81078 0.46526 0.9445 0.0
H962 H 0.80084 0.46012 0.01932 0.0
H963 H 0.79598 0.44482 0.95499 0.0
C964 C 0.79544 0.43636 0.18882 0.0
C965 C 0.77678 0.43351 0.16832 0.0
C966 C 0.81064 0.43369 0.14878 0.0
C967 C 0.80752 0.42807 0.08752 0.0
C968 C 0.78903 0.42381 0.06817 0.0
H969 H 0.91358 0.4235 0.86959 0.0
H970 H 0.88287 0.41306 0.91049 0.0
C971 C 0.77373 0.42668 0.10815 0.0
C972 C 0.82357 0.42859 0.04348 0.0
H973 H 0.84117 0.45417 0.92247 0.0
C974 C 0.83992 0.41815 0.05767 0.0
C975 C 0.82387 0.44147 0.99325 0.0
C976 C 0.80702 0.45369 0.97713 0.0
C977 C 0.85691 0.42103 0.02539 0.0
C978 C 0.85737 0.43437 0.97655 0.0
C979 C 0.84071 0.44394 0.95991 0.0
C980 C 0.87537 0.4405 0.94762 0.0
C981 C 0.87449 0.41074 0.04662 0.0
C982 C 0.88099 0.45949 0.95303 0.0
C983 C 0.89831 0.4655 0.92914 0.0
C984 C 0.9104 0.45261 0.89955 0.0
C985 C 0.90461 0.43366 0.89291 0.0
C986 C 0.88713 0.42768 0.91635 0.0
H987 H 0.87246 0.40375 0.09218 0.0
H988 H 0.87817 0.39963 0.01249 0.0
H989 H 0.88666 0.42064 0.05011 0.0
H990 H 0.87215 0.46961 0.97711 0.0
H991 H 0.90249 0.48014 0.93552 0.0
H992 H 0.01047 0.22471 0.81881 0.0
H993 H 0.00651 0.19268 0.77724 0.0
H994 H 0.01981 0.16908 0.95577 0.0
H995 H 0.02394 0.20088 0.99749 0.0
H996 H 0.03278 0.16369 0.7703 0.0
H997 H 0.97164 0.14072 0.9119 0.0
H998 H 0.97875 0.16521 0.90588 0.0
H999 H 0.99101 0.14939 0.95744 0.0
C1000 C 0.01248 0.21272 0.84939 0.0
C1001 C 0.01739 0.21552 0.91182 0.0
C1002 C 0.01016 0.19438 0.8255 0.0
C1003 C 0.01258 0.17839 0.86346 0.0
C1004 C 0.01738 0.18113 0.92578 0.0
H1005 H 0.01384 0.05637 0.82899 0.0
H1006 H 0.01547 0.08951 0.86089 0.0
C1007 C 0.01969 0.19942 0.94968 0.0
C1008 C 0.01088 0.15884 0.83763 0.0
H1009 H 0.98821 0.11645 0.85787 0.0
C1010 C 0.02291 0.15341 0.78904 0.0
C1011 C 0.99799 0.14537 0.86189 0.0
C1012 C 0.98398 0.15048 0.91173 0.0
C1013 C 0.0229 0.13477 0.76573 0.0
C1014 C 0.01028 0.12118 0.79096 0.0
C1015 C 0.99799 0.12675 0.83869 0.0
C1016 C 0.00987 0.10101 0.76998 0.0
C1017 C 0.0369 0.12966 0.71582 0.0
C1018 C 0.00614 0.09626 0.70808 0.0
C1019 C 0.00533 0.07723 0.68951 0.0
C1020 C 0.00802 0.06248 0.73259 0.0
C1021 C 0.01174 0.06729 0.79446 0.0
C1022 C 0.01263 0.08629 0.81287 0.0
H1023 H 0.04876 0.13998 0.71335 0.0
H1024 H 0.04286 0.1153 0.72357 0.0
H1025 H 0.02959 0.12973 0.67044 0.0
H1026 H 0.00353 0.10726 0.6742 0.0
H1027 H 1.00229 0.0741 0.64156 0.0
H1028 H 0.29635 0.05554 0.8873 0.0
H1029 H 0.32765 0.05022 0.84309 0.0
H1030 H 0.32376 0.99088 0.88903 0.0
H1031 H 0.29243 0.99623 0.93472 0.0
H1032 H 0.35704 0.00371 0.92069 0.0
H1033 H 0.34384 0.02822 0.68226 0.0
H1034 H 0.3379 0.04628 0.737 0.0
H1035 H 0.32488 0.02431 0.73665 0.0
C1036 C 0.30196 0.04126 0.887 0.0
C1037 C 0.29172 0.02627 0.91409 0.0
C1038 C 0.31991 0.03822 0.8614 0.0
C1039 C 0.32804 0.02006 0.86121 0.0
C1040 C 0.31782 0.00502 0.8881 0.0
H1041 H 0.43244 0.99591 0.65547 0.0
H1042 H 0.39954 0.9983 0.68949 0.0
C1043 C 0.2999 0.0081 0.91434 0.0
C1044 C 0.34762 0.01705 0.83658 0.0
H1045 H 0.37646 0.02615 0.71294 0.0
C1046 C 0.3612 0.00847 0.87501 0.0
C1047 C 0.35315 0.0229 0.77648 0.0
C1048 C 0.33911 0.03074 0.73052 0.0
C1049 C 0.38011 0.0061 0.85598 0.0
C1050 C 0.38592 0.0131 0.79752 0.0
C1051 C 0.37222 0.02111 0.75824 0.0
C1052 C 0.40606 0.0121 0.77616 0.0
C1053 C 0.39353 0.99575 0.89855 0.0
C1054 C 0.42083 0.01947 0.81253 0.0
C1055 C 0.43974 0.01791 0.79348 0.0
C1056 C 0.44434 0.00932 0.73688 0.0
C1057 C 0.42949 1.00261 0.69938 0.0
C1058 C 0.4106 0.00395 0.71884 0.0
H1059 H 0.38579 0.98605 0.93019 0.0
H1060 H 0.40406 0.98734 0.87221 0.0
H1061 H 0.4012 0.0062 0.92745 0.0
H1062 H 0.41776 0.02643 0.85587 0.0
H1063 H 0.45075 0.02347 0.82319 0.0
H1064 H 0.45517 0.29322 0.88519 0.0
H1065 H 0.45936 0.32531 0.84549 0.0
H1066 H 0.51896 0.32258 0.88822 0.0
H1067 H 0.51466 0.29051 0.93003 0.0
H1068 H 0.50581 0.35536 0.92199 0.0
H1069 H 0.47985 0.34306 0.68498 0.0
H1070 H 0.46227 0.3365 0.74068 0.0
H1071 H 0.48444 0.32386 0.73795 0.0
C1072 C 0.46924 0.29932 0.8853 0.0
C1073 C 0.48463 0.28916 0.9101 0.0
C1074 C 0.47165 0.31771 0.86225 0.0
C1075 C 0.48958 0.32635 0.86212 0.0
C1076 C 0.50499 0.31626 0.88721 0.0
H1077 H 0.51045 0.43182 0.65793 0.0
H1078 H 0.50875 0.39881 0.69168 0.0
C1079 C 0.50253 0.29791 0.91114 0.0
C1080 C 0.49201 0.34617 0.83856 0.0
H1081 H 0.48156 0.3755 0.71719 0.0
C1082 C 0.50065 0.35968 0.87694 0.0
C1083 C 0.48565 0.35192 0.77926 0.0
C1084 C 0.47774 0.33801 0.73314 0.0
C1085 C 0.50263 0.37873 0.85859 0.0
C1086 C 0.49515 0.38474 0.80097 0.0
C1087 C 0.487 0.37111 0.76184 0.0
C1088 C 0.49582 0.40497 0.78009 0.0
C1089 C 0.51312 0.39208 0.90087 0.0
C1090 C 0.48871 0.41959 0.81756 0.0
C1091 C 0.4899 0.43857 0.79869 0.0
C1092 C 0.49785 0.4434 0.74118 0.0
C1093 C 0.50429 0.42869 0.70262 0.0
C1094 C 0.50332 0.40974 0.72192 0.0
H1095 H 0.52314 0.38432 0.93137 0.0
H1096 H 0.52122 0.40285 0.87432 0.0
H1097 H 0.5028 0.39949 0.93097 0.0
H1098 H 0.48221 0.41636 0.8616 0.0
H1099 H 0.48458 0.44945 0.82926 0.0
H1100 H 0.2152 0.51762 0.93367 0.0
H1101 H 0.18314 0.52123 0.89161 0.0
H1102 H 0.18247 0.462 0.8431 0.0
H1103 H 0.21458 0.45849 0.88331 0.0
H1104 H 0.16717 0.48177 0.75331 0.0
H1105 H 0.13503 0.50554 0.97329 0.0
H1106 H 0.1537 0.52081 0.9473 0.0
H1107 H 0.15894 0.49674 0.969 0.0
C1108 C 0.20821 0.50539 0.91399 0.0
C1109 C 0.21752 0.48778 0.91185 0.0
C1110 C 0.1898 0.50743 0.89024 0.0
C1111 C 0.18009 0.4918 0.86513 0.0
C1112 C 0.18953 0.47431 0.86213 0.0
H1113 H 0.05797 0.48278 0.82495 0.0
H1114 H 0.09119 0.48085 0.85598 0.0
C1115 C 0.20798 0.47233 0.88504 0.0
C1116 C 0.16014 0.49346 0.84217 0.0
H1117 H 0.11537 0.50652 0.8848 0.0
C1118 C 0.15584 0.48716 0.78216 0.0
C1119 C 0.14519 0.50023 0.87986 0.0
C1120 C 0.14837 0.50603 0.94612 0.0
C1121 C 0.13718 0.48737 0.75898 0.0
C1122 C 0.12232 0.49465 0.79609 0.0
C1123 C 0.12666 0.50102 0.85598 0.0
C1124 C 0.1021 0.49525 0.77501 0.0
C1125 C 0.13362 0.47919 0.69566 0.0
C1126 C 0.09692 0.50395 0.71895 0.0
C1127 C 0.07788 0.50474 0.70051 0.0
C1128 C 0.06348 0.49727 0.73842 0.0
C1129 C 0.06865 0.48871 0.79464 0.0
C1130 C 0.0877 0.48764 0.81253 0.0
H1131 H 0.14488 0.469 0.68224 0.0
H1132 H 0.11975 0.47182 0.69344 0.0
H1133 H 0.13364 0.49081 0.66109 0.0
H1134 H 0.10754 0.51046 0.68977 0.0
H1135 H 0.07442 0.51161 0.65716 0.0
H1136 H 0.02786 0.79469 0.49802 0.0
H1137 H 0.02383 0.82704 0.53556 0.0
H1138 H 0.97311 0.83289 0.42651 0.0
H1139 H 0.97695 0.80029 0.38881 0.0
H1140 H 0.02147 0.8607 0.45506 0.0
H1141 H 0.95868 0.85095 0.60729 0.0
H1142 H 0.97388 0.83149 0.58551 0.0
H1143 H 0.95745 0.84113 0.53068 0.0
C1144 C 0.01562 0.80267 0.4828 0.0
C1145 C 1.00262 0.79476 0.44076 0.0
C1146 C 0.01343 0.82124 0.50401 0.0
C1147 C 0.99811 0.83234 0.48426 0.0
C1148 C 0.98494 0.8245 0.44286 0.0
H1149 H 0.98652 0.95512 0.518 0.0
H1150 H 0.98625 0.92231 0.48168 0.0
C1151 C 0.98721 0.80591 0.42111 0.0
C1152 C 0.99651 0.85235 0.5052 0.0
H1153 H 0.97068 0.88206 0.59711 0.0
C1154 C 0.01032 0.86539 0.48587 0.0
C1155 C 0.98205 0.8584 0.54582 0.0
C1156 C 0.96718 0.84481 0.56909 0.0
C1157 C 0.00999 0.88434 0.50585 0.0
C1158 C 0.99549 0.89042 0.54625 0.0
C1159 C 0.98172 0.87737 0.56588 0.0
C1160 C 0.99471 0.91025 0.56928 0.0
C1161 C 0.02535 0.89769 0.48455 0.0
C1162 C 0.99929 0.91435 0.6309 0.0
C1163 C 0.99958 0.93313 0.65183 0.0
C1164 C 0.99509 0.9482 0.61171 0.0
C1165 C 0.99006 0.94394 0.55032 0.0
C1166 C 0.98993 0.92518 0.52934 0.0
H1167 H 0.03713 0.89013 0.46117 0.0
H1168 H 0.01926 0.90809 0.45157 0.0
H1169 H 0.03118 0.90571 0.52433 0.0
H1170 H 1.00302 0.90303 0.6625 0.0
H1171 H 0.0035 0.93581 0.69931 0.0
H1172 H 0.71084 0.02721 0.49165 0.0
H1173 H 0.6785 0.02358 0.52977 0.0
H1174 H 0.67069 0.97495 0.41249 0.0
H1175 H 0.7033 0.97832 0.37444 0.0
H1176 H 0.64488 0.02422 0.45335 0.0
H1177 H 0.65232 0.9574 0.58798 0.0
H1178 H 0.67241 0.97194 0.56724 0.0
H1179 H 0.66133 0.95724 0.51022 0.0
C1180 C 0.70243 0.01548 0.47476 0.0
C1181 C 0.70979 1.00294 0.43033 0.0
C1182 C 0.68386 0.01354 0.49628 0.0
C1183 C 0.67221 0.99892 0.47439 0.0
C1184 C 0.6795 0.98621 0.43057 0.0
H1185 H 0.54898 0.99342 0.51164 0.0
H1186 H 0.58149 0.99316 0.47247 0.0
C1187 C 0.6981 0.98822 0.40859 0.0
C1188 C 0.65223 0.99762 0.49578 0.0
H1189 H 0.62164 0.97064 0.58121 0.0
C1190 C 0.63977 0.01247 0.48108 0.0
C1191 C 0.64564 0.98237 0.53241 0.0
C1192 C 0.65858 0.96635 0.55096 0.0
C1193 C 0.62091 0.01244 0.50185 0.0
C1194 C 0.61427 0.99713 0.53812 0.0
C1195 C 0.62673 0.98231 0.55308 0.0
C1196 C 0.59454 0.99657 0.56212 0.0
C1197 C 0.60829 0.029 0.48598 0.0
C1198 C 0.59106 0.99825 0.62569 0.0
C1199 C 0.57248 0.99847 0.64833 0.0
C1200 C 0.55695 0.99681 0.60786 0.0
C1201 C 0.56053 0.99475 0.54424 0.0
C1202 C 0.57913 0.99466 0.52165 0.0
H1203 H 0.61648 0.04125 0.46782 0.0
H1204 H 0.59797 0.02461 0.45012 0.0
H1205 H 0.60018 0.03365 0.52719 0.0
H1206 H 0.60275 0.99971 0.65775 0.0
H1207 H 0.57032 1.0 0.69758 0.0
H1208 H 0.4894 0.69348 0.347 0.0
H1209 H 0.49236 0.66173 0.39133 0.0
H1210 H 0.52488 0.68434 0.54261 0.0
H1211 H 0.52213 0.71628 0.49822 0.0
H1212 H 0.53913 0.64834 0.48238 0.0
H1213 H 0.46378 0.64628 0.55647 0.0
H1214 H 0.46805 0.65355 0.47799 0.0
H1215 H 0.47611 0.66817 0.54042 0.0
C1216 C 0.49749 0.69171 0.38911 0.0
C1217 C 0.50557 0.70747 0.41895 0.0
C1218 C 0.49901 0.67355 0.41468 0.0
C1219 C 0.50867 0.67071 0.47054 0.0
C1220 C 0.51728 0.68625 0.49958 0.0
H1221 H 0.50057 0.56959 0.70269 0.0
H1222 H 0.50155 0.60216 0.66391 0.0
C1223 C 0.51565 0.70449 0.47426 0.0
C1224 C 0.50929 0.65156 0.49919 0.0
H1225 H 0.48122 0.6178 0.56597 0.0
C1226 C 0.52651 0.64167 0.50091 0.0
C1227 C 0.49285 0.64298 0.52396 0.0
C1228 C 0.47413 0.65328 0.52525 0.0
C1229 C 0.52762 0.6232 0.5254 0.0
C1230 C 0.51102 0.61436 0.54833 0.0
C1231 C 0.49391 0.6245 0.54802 0.0
C1232 C 0.51103 0.59456 0.57225 0.0
C1233 C 0.54658 0.61338 0.52699 0.0
C1234 C 0.51585 0.57938 0.53352 0.0
C1235 C 0.51529 0.56071 0.55549 0.0
C1236 C 0.50981 0.55677 0.61674 0.0
C1237 C 0.50493 0.57203 0.65538 0.0
C1238 C 0.50546 0.5907 0.63327 0.0
H1239 H 0.55847 0.62363 0.5234 0.0
H1240 H 0.54829 0.60502 0.57013 0.0
H1241 H 0.54757 0.60351 0.48729 0.0
H1242 H 0.51979 0.58194 0.48589 0.0
H1243 H 0.51904 0.54937 0.5242 0.0
H1244 H 0.79236 0.48483 0.51463 0.0
H1245 H 0.82442 0.48802 0.55506 0.0
H1246 H 0.83644 0.53101 0.41892 0.0
H1247 H 0.80403 0.52844 0.37948 0.0
H1248 H 0.85729 0.48106 0.49355 0.0
H1249 H 0.8567 0.55549 0.57531 0.0
H1250 H 0.83529 0.54278 0.55646 0.0
H1251 H 0.84971 0.55272 0.49611 0.0
C1252 C 0.80159 0.49535 0.49415 0.0
C1253 C 0.79542 0.5065 0.44398 0.0
C1254 C 0.82004 0.49702 0.51704 0.0
C1255 C 0.83285 0.5099 0.49063 0.0
C1256 C 0.82675 0.52121 0.44095 0.0
H1257 H 0.95401 0.52852 0.54348 0.0
H1258 H 0.92111 0.52918 0.50767 0.0
C1259 C 0.80824 0.51957 0.41797 0.0
C1260 C 0.85282 0.51062 0.51305 0.0
H1261 H 0.88652 0.53986 0.57475 0.0
C1262 C 0.86362 0.49391 0.51157 0.0
C1263 C 0.86117 0.52739 0.53643 0.0
C1264 C 0.8501 0.54559 0.54181 0.0
C1265 C 0.8825 0.49354 0.53217 0.0
C1266 C 0.89082 0.51027 0.55564 0.0
C1267 C 0.88012 0.52704 0.55677 0.0
C1268 C 0.91061 0.51054 0.57927 0.0
C1269 C 0.89355 0.4753 0.52772 0.0
C1270 C 0.9156 0.50012 0.63213 0.0
C1271 C 0.93439 0.49976 0.65292 0.0
C1272 C 0.94863 0.5098 0.62119 0.0
C1273 C 0.94348 0.52054 0.56893 0.0
C1274 C 0.92465 0.52098 0.54842 0.0
H1275 H 0.88658 0.46492 0.49662 0.0
H1276 H 0.90813 0.47801 0.5106 0.0
H1277 H 0.89467 0.46881 0.57431 0.0
H1278 H 0.90496 0.49214 0.65712 0.0
H1279 H 0.93777 0.49132 0.69325 0.0
loop_
_geom_bond_atom_site_label_1
_geom_bond_atom_site_label_2
_geom_bond_distance
_geom_bond_site_symmetry_2
_ccdc_geom_bond_type
P0 O11 1.490 . S
P0 C14 1.812 . S
P0 C20 1.803 . S
P0 C26 1.819 . S
H1 C15 0.941 . S
H2 C16 0.939 . S
H3 C18 0.940 . S
H4 C19 0.940 . S
H5 C21 0.939 . S
H6 C22 0.942 . S
H7 C24 0.940 . S
H8 C25 0.939 . S
H9 C27 0.941 . S
H10 C31 0.939 . S
O11 P0 1.490 . S
H12 C28 0.939 . S
H13 C30 0.940 . S
C14 P0 1.812 . S
C14 C15 1.389 . S
C14 C19 1.391 . S
C15 H1 0.941 . S
C15 C14 1.389 . S
C15 C16 1.397 . S
C16 H2 0.939 . S
C16 C15 1.397 . S
C16 C17 1.378 . S
C17 C16 1.378 . S
C17 C18 1.378 . S
C18 H3 0.940 . S
C18 C17 1.378 . S
C18 C19 1.396 . S
C19 H4 0.940 . S
C19 C14 1.391 . S
C19 C18 1.396 . S
C20 P0 1.803 . S
C20 C21 1.378 . S
C20 C25 1.400 . S
C21 H5 0.939 . S
C21 C20 1.378 . S
C21 C22 1.361 . S
C22 H6 0.942 . S
C22 C21 1.361 . S
C22 C23 1.369 . S
C23 C22 1.369 . S
C23 C24 1.404 . S
C24 H7 0.940 . S
C24 C23 1.404 . S
C24 C25 1.389 . S
C25 H8 0.939 . S
C25 C20 1.400 . S
C25 C24 1.389 . S
C26 P0 1.819 . S
C26 C27 1.391 . S
C26 C31 1.391 . S
C27 H9 0.941 . S
C27 C26 1.391 . S
C27 C28 1.396 . S
C28 H12 0.939 . S
C28 C27 1.396 . S
C28 C29 1.397 . S
C29 C28 1.397 . S
C29 C30 1.385 . S
C30 H13 0.940 . S
C30 C29 1.385 . S
C30 C31 1.388 . S
C31 H10 0.939 . S
C31 C26 1.391 . S
C31 C30 1.388 . S
P32 O43 1.490 . S
P32 C46 1.812 . S
P32 C52 1.803 . S
P32 C58 1.819 . S
H33 C47 0.941 . S
H34 C48 0.939 . S
H35 C50 0.940 . S
H36 C51 0.950 . S
H37 C53 0.939 . S
H38 C54 0.942 . S
H39 C56 0.940 . S
H40 C57 0.959 . S
H41 C59 0.941 . S
H42 C63 0.929 1_655 S
O43 P32 1.490 . S
H44 C60 0.939 . S
H45 C62 0.940 . S
C46 P32 1.812 . S
C46 C47 1.389 . S
C46 C51 1.375 1_455 S
C47 H33 0.941 . S
C47 C46 1.389 . S
C47 C48 1.397 . S
C48 H34 0.939 . S
C48 C47 1.397 . S
C48 C49 1.378 . S
C49 C48 1.378 . S
C49 C50 1.378 1_455 S
C50 H35 0.940 . S
C50 C49 1.378 1_655 S
C50 C51 1.403 . S
C51 H36 0.950 . S
C51 C46 1.375 1_655 S
C51 C50 1.403 . S
C52 P32 1.803 . S
C52 C53 1.378 . S
C52 C57 1.368 1_455 S
C53 H37 0.939 . S
C53 C52 1.378 . S
C53 C54 1.361 . S
C54 H38 0.942 . S
C54 C53 1.361 . S
C54 C55 1.369 . S
C55 C54 1.369 . S
C55 C56 1.404 1_455 S
C56 H39 0.940 . S
C56 C55 1.404 1_655 S
C56 C57 1.402 . S
C57 H40 0.959 . S
C57 C52 1.368 1_655 S
C57 C56 1.402 . S
C58 P32 1.819 . S
C58 C59 1.391 . S
C58 C63 1.391 . S
C59 H41 0.941 . S
C59 C58 1.391 . S
C59 C60 1.396 . S
C60 H44 0.939 . S
C60 C59 1.396 . S
C60 C61 1.397 . S
C61 C60 1.397 . S
C61 C62 1.385 1_455 S
C62 H45 0.940 . S
C62 C61 1.385 1_655 S
C62 C63 1.388 1_655 S
C63 H42 0.929 1_455 S
C63 C58 1.391 . S
C63 C62 1.388 1_455 S
P64 O75 1.490 . S
P64 C78 1.812 . S
P64 C84 1.803 . S
P64 C90 1.819 . S
H65 C79 0.941 . S
H66 C80 0.939 . S
H67 C82 0.940 . S
H68 C83 0.950 . S
H69 C85 0.939 . S
H70 C86 0.942 . S
H71 C88 0.940 . S
H72 C89 0.959 . S
H73 C91 0.941 . S
H74 C95 0.929 1_565 S
O75 P64 1.490 . S
H76 C92 0.939 . S
H77 C94 0.940 . S
C78 P64 1.812 . S
C78 C79 1.389 . S
C78 C83 1.375 1_545 S
C79 H65 0.941 . S
C79 C78 1.389 . S
C79 C80 1.397 . S
C80 H66 0.939 . S
C80 C79 1.397 . S
C80 C81 1.378 . S
C81 C80 1.378 . S
C81 C82 1.378 1_545 S
C82 H67 0.940 . S
C82 C81 1.378 1_565 S
C82 C83 1.403 . S
C83 H68 0.950 . S
C83 C78 1.375 1_565 S
C83 C82 1.403 . S
C84 P64 1.803 . S
C84 C85 1.378 . S
C84 C89 1.368 1_545 S
C85 H69 0.939 . S
C85 C84 1.378 . S
C85 C86 1.361 . S
C86 H70 0.942 . S
C86 C85 1.361 . S
C86 C87 1.369 . S
C87 C86 1.369 . S
C87 C88 1.404 1_545 S
C88 H71 0.940 . S
C88 C87 1.404 1_565 S
C88 C89 1.402 . S
C89 H72 0.959 . S
C89 C84 1.368 1_565 S
C89 C88 1.402 . S
C90 P64 1.819 . S
C90 C91 1.391 . S
C90 C95 1.391 . S
C91 H73 0.941 . S
C91 C90 1.391 . S
C91 C92 1.396 . S
C92 H76 0.939 . S
C92 C91 1.396 . S
C92 C93 1.397 . S
C93 C92 1.397 . S
C93 C94 1.385 1_545 S
C94 H77 0.940 . S
C94 C93 1.385 1_565 S
C94 C95 1.388 1_565 S
C95 H74 0.929 1_545 S
C95 C90 1.391 . S
C95 C94 1.388 1_545 S
P96 O107 1.490 . S
P96 C110 1.812 . S
P96 C116 1.803 . S
P96 C122 1.819 . S
H97 C111 0.941 . S
H98 C112 0.939 . S
H99 C114 0.940 . S
H100 C115 0.940 . S
H101 C117 0.939 . S
H102 C118 0.942 . S
H103 C120 0.940 . S
H104 C121 0.939 . S
H105 C123 0.941 . S
H106 C127 0.939 . S
O107 P96 1.490 . S
H108 C124 0.939 . S
H109 C126 0.940 . S
C110 P96 1.812 . S
C110 C111 1.389 . S
C110 C115 1.391 . S
C111 H97 0.941 . S
C111 C110 1.389 . S
C111 C112 1.397 . S
C112 H98 0.939 . S
C112 C111 1.397 . S
C112 C113 1.378 . S
C113 C112 1.378 . S
C113 C114 1.378 . S
C114 H99 0.940 . S
C114 C113 1.378 . S
C114 C115 1.396 . S
C115 H100 0.940 . S
C115 C110 1.391 . S
C115 C114 1.396 . S
C116 P96 1.803 . S
C116 C117 1.378 . S
C116 C121 1.400 . S
C117 H101 0.939 . S
C117 C116 1.378 . S
C117 C118 1.361 . S
C118 H102 0.942 . S
C118 C117 1.361 . S
C118 C119 1.369 . S
C119 C118 1.369 . S
C119 C120 1.404 . S
C120 H103 0.940 . S
C120 C119 1.404 . S
C120 C121 1.389 . S
C121 H104 0.939 . S
C121 C116 1.400 . S
C121 C120 1.389 . S
C122 P96 1.819 . S
C122 C123 1.391 . S
C122 C127 1.391 . S
C123 H105 0.941 . S
C123 C122 1.391 . S
C123 C124 1.396 . S
C124 H108 0.939 . S
C124 C123 1.396 . S
C124 C125 1.397 . S
C125 C124 1.397 . S
C125 C126 1.385 . S
C126 H109 0.940 . S
C126 C125 1.385 . S
C126 C127 1.388 . S
C127 H106 0.939 . S
C127 C122 1.391 . S
C127 C126 1.388 . S
P128 O139 1.490 . S
P128 C142 1.812 1_554 S
P128 C148 1.803 . S
P128 C154 1.819 . S
H129 C143 0.941 . S
H130 C144 0.939 . S
H131 C146 0.940 . S
H132 C147 0.940 1_554 S
H133 C149 0.939 . S
H134 C150 0.942 . S
H135 C152 0.940 . S
H136 C153 0.939 . S
H137 C155 0.941 . S
H138 C159 0.939 . S
O139 P128 1.490 . S
H140 C156 0.939 . S
H141 C158 0.940 . S
C142 P128 1.812 1_556 S
C142 C143 1.389 . S
C142 C147 1.391 . S
C143 H129 0.941 . S
C143 C142 1.389 . S
C143 C144 1.397 . S
C144 H130 0.939 . S
C144 C143 1.397 . S
C144 C145 1.378 . S
C145 C144 1.378 . S
C145 C146 1.378 . S
C146 H131 0.940 . S
C146 C145 1.378 . S
C146 C147 1.396 . S
C147 H132 0.940 1_556 S
C147 C142 1.391 . S
C147 C146 1.396 . S
C148 P128 1.803 . S
C148 C149 1.378 . S
C148 C153 1.400 . S
C149 H133 0.939 . S
C149 C148 1.378 . S
C149 C150 1.361 . S
C150 H134 0.942 . S
C150 C149 1.361 . S
C150 C151 1.369 . S
C151 C150 1.369 . S
C151 C152 1.404 . S
C152 H135 0.940 . S
C152 C151 1.404 . S
C152 C153 1.389 . S
C153 H136 0.939 . S
C153 C148 1.400 . S
C153 C152 1.389 . S
C154 P128 1.819 . S
C154 C155 1.391 . S
C154 C159 1.391 . S
C155 H137 0.941 . S
C155 C154 1.391 . S
C155 C156 1.396 . S
C156 H140 0.939 . S
C156 C155 1.396 . S
C156 C157 1.397 . S
C157 C156 1.397 . S
C157 C158 1.385 . S
C158 H141 0.940 . S
C158 C157 1.385 . S
C158 C159 1.388 . S
C159 H138 0.939 . S
C159 C154 1.391 . S
C159 C158 1.388 . S
P160 O171 1.490 . S
P160 C174 1.812 1_554 S
P160 C180 1.803 . S
P160 C186 1.819 . S
H161 C175 0.941 . S
H162 C176 0.939 . S
H163 C178 0.940 . S
H164 C179 0.942 1_554 S
H165 C181 0.939 . S
H166 C182 0.942 . S
H167 C184 0.940 . S
H168 C185 0.951 . S
H169 C187 0.941 . S
H170 C191 0.934 1_655 S
O171 P160 1.490 . S
H172 C188 0.939 . S
H173 C190 0.940 . S
C174 P160 1.812 1_556 S
C174 C175 1.389 . S
C174 C179 1.388 1_455 S
C175 H161 0.941 . S
C175 C174 1.389 . S
C175 C176 1.397 . S
C176 H162 0.939 . S
C176 C175 1.397 . S
C176 C177 1.378 . S
C177 C176 1.378 . S
C177 C178 1.378 1_455 S
C178 H163 0.940 . S
C178 C177 1.378 1_655 S
C178 C179 1.398 . S
C179 H164 0.942 1_556 S
C179 C174 1.388 1_655 S
C179 C178 1.398 . S
C180 P160 1.803 . S
C180 C181 1.378 . S
C180 C185 1.381 1_455 S
C181 H165 0.939 . S
C181 C180 1.378 . S
C181 C182 1.361 . S
C182 H166 0.942 . S
C182 C181 1.361 . S
C182 C183 1.369 . S
C183 C182 1.369 . S
C183 C184 1.404 1_455 S
C184 H167 0.940 . S
C184 C183 1.404 1_655 S
C184 C185 1.396 . S
C185 H168 0.951 . S
C185 C180 1.381 1_655 S
C185 C184 1.396 . S
C186 P160 1.819 . S
C186 C187 1.391 . S
C186 C191 1.391 . S
C187 H169 0.941 . S
C187 C186 1.391 . S
C187 C188 1.396 . S
C188 H172 0.939 . S
C188 C187 1.396 . S
C188 C189 1.397 . S
C189 C188 1.397 . S
C189 C190 1.385 1_455 S
C190 H173 0.940 . S
C190 C189 1.385 1_655 S
C190 C191 1.388 1_655 S
C191 H170 0.934 1_455 S
C191 C186 1.391 . S
C191 C190 1.388 1_455 S
P192 O203 1.490 . S
P192 C206 1.812 1_554 S
P192 C212 1.803 . S
P192 C218 1.819 . S
H193 C207 0.941 . S
H194 C208 0.939 . S
H195 C210 0.940 . S
H196 C211 0.942 1_554 S
H197 C213 0.939 . S
H198 C214 0.942 . S
H199 C216 0.940 . S
H200 C217 0.951 . S
H201 C219 0.941 . S
H202 C223 0.934 1_565 S
O203 P192 1.490 . S
H204 C220 0.939 . S
H205 C222 0.940 . S
C206 P192 1.812 1_556 S
C206 C207 1.389 . S
C206 C211 1.388 1_545 S
C207 H193 0.941 . S
C207 C206 1.389 . S
C207 C208 1.397 . S
C208 H194 0.939 . S
C208 C207 1.397 . S
C208 C209 1.378 . S
C209 C208 1.378 . S
C209 C210 1.378 1_545 S
C210 H195 0.940 . S
C210 C209 1.378 1_565 S
C210 C211 1.398 . S
C211 H196 0.942 1_556 S
C211 C206 1.388 1_565 S
C211 C210 1.398 . S
C212 P192 1.803 . S
C212 C213 1.378 . S
C212 C217 1.381 1_545 S
C213 H197 0.939 . S
C213 C212 1.378 . S
C213 C214 1.361 . S
C214 H198 0.942 . S
C214 C213 1.361 . S
C214 C215 1.369 . S
C215 C214 1.369 . S
C215 C216 1.404 1_545 S
C216 H199 0.940 . S
C216 C215 1.404 1_565 S
C216 C217 1.396 . S
C217 H200 0.951 . S
C217 C212 1.381 1_565 S
C217 C216 1.396 . S
C218 P192 1.819 . S
C218 C219 1.391 . S
C218 C223 1.391 . S
C219 H201 0.941 . S
C219 C218 1.391 . S
C219 C220 1.396 . S
C220 H204 0.939 . S
C220 C219 1.396 . S
C220 C221 1.397 . S
C221 C220 1.397 . S
C221 C222 1.385 1_545 S
C222 H205 0.940 . S
C222 C221 1.385 1_565 S
C222 C223 1.388 1_565 S
C223 H202 0.934 1_545 S
C223 C218 1.391 . S
C223 C222 1.388 1_545 S
P224 O235 1.490 . S
P224 C238 1.812 1_554 S
P224 C244 1.803 . S
P224 C250 1.819 . S
H225 C239 0.941 . S
H226 C240 0.939 . S
H227 C242 0.940 . S
H228 C243 0.940 1_554 S
H229 C245 0.939 . S
H230 C246 0.942 . S
H231 C248 0.940 . S
H232 C249 0.939 . S
H233 C251 0.941 . S
H234 C255 0.939 . S
O235 P224 1.490 . S
H236 C252 0.939 . S
H237 C254 0.940 . S
C238 P224 1.812 1_556 S
C238 C239 1.389 . S
C238 C243 1.391 . S
C239 H225 0.941 . S
C239 C238 1.389 . S
C239 C240 1.397 . S
C240 H226 0.939 . S
C240 C239 1.397 . S
C240 C241 1.378 . S
C241 C240 1.378 . S
C241 C242 1.378 . S
C242 H227 0.940 . S
C242 C241 1.378 . S
C242 C243 1.396 . S
C243 H228 0.940 1_556 S
C243 C238 1.391 . S
C243 C242 1.396 . S
C244 P224 1.803 . S
C244 C245 1.378 . S
C244 C249 1.400 . S
C245 H229 0.939 . S
C245 C244 1.378 . S
C245 C246 1.361 . S
C246 H230 0.942 . S
C246 C245 1.361 . S
C246 C247 1.369 . S
C247 C246 1.369 . S
C247 C248 1.404 . S
C248 H231 0.940 . S
C248 C247 1.404 . S
C248 C249 1.389 . S
C249 H232 0.939 . S
C249 C244 1.400 . S
C249 C248 1.389 . S
C250 P224 1.819 . S
C250 C251 1.391 . S
C250 C255 1.391 . S
C251 H233 0.941 . S
C251 C250 1.391 . S
C251 C252 1.396 . S
C252 H236 0.939 . S
C252 C251 1.396 . S
C252 C253 1.397 . S
C253 C252 1.397 . S
C253 C254 1.385 . S
C254 H237 0.940 . S
C254 C253 1.385 . S
C254 C255 1.388 . S
C255 H234 0.939 . S
C255 C250 1.391 . S
C255 C254 1.388 . S
Tb256 C258 2.809 . S
Tb256 O276 2.484 . S
Tb256 O277 2.440 . S
Tb256 O278 2.658 1_565 S
Tb256 O279 2.409 . S
Tb256 O280 2.378 . S
Tb256 O284 2.325 1_455 S
Tb256 O287 2.341 1_565 S
Tb257 C267 2.809 . S
Tb257 O278 2.325 1_655 S
Tb257 O281 2.341 1_545 S
Tb257 O282 2.484 . S
Tb257 O283 2.440 . S
Tb257 O284 2.658 1_545 S
Tb257 O285 2.409 . S
Tb257 O286 2.378 . S
C258 Tb256 2.809 . S
C258 C259 1.514 . S
C258 O276 1.248 . S
C258 O277 1.266 . S
C259 C258 1.514 . S
C259 C260 1.359 . S
C259 C264 1.348 . S
C260 C259 1.359 . S
C260 C261 1.380 . S
C260 H288 0.929 1_455 S
C261 C260 1.380 . S
C261 C262 1.347 . S
C261 H289 0.931 1_455 S
C262 C261 1.347 . S
C262 C263 1.369 . S
C263 C262 1.369 . S
C263 C264 1.408 . S
C263 H290 0.930 . S
C264 C259 1.348 . S
C264 C263 1.408 . S
C264 H291 0.930 . S
C265 O278 1.262 1_565 S
C265 O279 1.281 . S
C266 O280 1.236 1_655 S
C266 O281 1.266 . S
C267 Tb257 2.809 . S
C267 C268 1.514 . S
C267 O282 1.248 . S
C267 O283 1.266 . S
C268 C267 1.514 . S
C268 C269 1.359 . S
C268 C273 1.348 . S
C269 C268 1.359 . S
C269 C270 1.380 . S
C269 H292 0.929 1_655 S
C270 C269 1.380 . S
C270 C271 1.347 . S
C270 H293 0.931 1_655 S
C271 C270 1.347 . S
C271 C272 1.369 . S
C272 C271 1.369 . S
C272 C273 1.408 . S
C272 H294 0.930 . S
C273 C268 1.348 . S
C273 C272 1.408 . S
C273 H295 0.930 . S
C274 O284 1.281 1_545 S
C274 O285 1.254 . S
C275 O286 1.236 1_455 S
C275 O287 1.266 . S
O276 Tb256 2.484 . S
O276 C258 1.248 . S
O277 Tb256 2.440 . S
O277 C258 1.266 . S
O278 Tb256 2.658 1_545 S
O278 Tb257 2.325 1_455 S
O278 C265 1.262 1_545 S
O279 Tb256 2.409 . S
O279 C265 1.281 . S
O280 Tb256 2.378 . S
O280 C266 1.236 1_455 S
O281 Tb257 2.341 1_565 S
O281 C266 1.266 . S
O282 Tb257 2.484 . S
O282 C267 1.248 . S
O283 Tb257 2.440 . S
O283 C267 1.266 . S
O284 Tb256 2.325 1_655 S
O284 Tb257 2.658 1_565 S
O284 C274 1.281 1_565 S
O285 Tb257 2.409 . S
O285 C274 1.254 . S
O286 Tb257 2.378 . S
O286 C275 1.236 1_655 S
O287 Tb256 2.341 1_545 S
O287 C275 1.266 . S
H288 C260 0.929 1_655 S
H289 C261 0.931 1_655 S
H290 C263 0.930 . S
H291 C264 0.930 . S
H292 C269 0.929 1_455 S
H293 C270 0.931 1_455 S
H294 C272 0.930 . S
H295 C273 0.930 . S
Tb296 C298 2.809 . S
Tb296 O316 2.484 . S
Tb296 O317 2.440 . S
Tb296 O318 2.658 . S
Tb296 O319 2.409 . S
Tb296 O320 2.378 . S
Tb296 O324 2.325 1_545 S
Tb296 O327 2.341 . S
Tb297 C307 2.809 . S
Tb297 O318 2.325 1_565 S
Tb297 O321 2.341 . S
Tb297 O322 2.484 . S
Tb297 O323 2.440 . S
Tb297 O324 2.658 . S
Tb297 O325 2.409 . S
Tb297 O326 2.378 . S
C298 Tb296 2.809 . S
C298 C299 1.514 . S
C298 O316 1.248 . S
C298 O317 1.266 . S
C299 C298 1.514 . S
C299 C300 1.359 . S
C299 C304 1.348 . S
C300 C299 1.359 . S
C300 C301 1.380 . S
C300 H328 0.929 1_545 S
C301 C300 1.380 . S
C301 C302 1.347 . S
C301 H329 0.931 1_545 S
C302 C301 1.347 . S
C302 C303 1.369 . S
C303 C302 1.369 . S
C303 C304 1.408 . S
C303 H330 0.930 . S
C304 C299 1.348 . S
C304 C303 1.408 . S
C304 H331 0.930 . S
C305 O318 1.281 . S
C305 O319 1.254 . S
C306 O320 1.236 1_565 S
C306 O321 1.266 . S
C307 Tb297 2.809 . S
C307 C308 1.514 . S
C307 O322 1.248 . S
C307 O323 1.266 . S
C308 C307 1.514 . S
C308 C309 1.359 . S
C308 C313 1.348 . S
C309 C308 1.359 . S
C309 C310 1.380 . S
C309 H332 0.929 1_565 S
C310 C309 1.380 . S
C310 C311 1.347 . S
C310 H333 0.931 1_565 S
C311 C310 1.347 . S
C311 C312 1.369 . S
C312 C311 1.369 . S
C312 C313 1.408 . S
C312 H334 0.930 . S
C313 C308 1.348 . S
C313 C312 1.408 . S
C313 H335 0.930 . S
C314 O324 1.281 . S
C314 O325 1.254 . S
C315 O326 1.236 1_545 S
C315 O327 1.266 . S
O316 Tb296 2.484 . S
O316 C298 1.248 . S
O317 Tb296 2.440 . S
O317 C298 1.266 . S
O318 Tb296 2.658 . S
O318 Tb297 2.325 1_545 S
O318 C305 1.281 . S
O319 Tb296 2.409 . S
O319 C305 1.254 . S
O320 Tb296 2.378 . S
O320 C306 1.236 1_545 S
O321 Tb297 2.341 . S
O321 C306 1.266 . S
O322 Tb297 2.484 . S
O322 C307 1.248 . S
O323 Tb297 2.440 . S
O323 C307 1.266 . S
O324 Tb296 2.325 1_565 S
O324 Tb297 2.658 . S
O324 C314 1.281 . S
O325 Tb297 2.409 . S
O325 C314 1.254 . S
O326 Tb297 2.378 . S
O326 C315 1.236 1_565 S
O327 Tb296 2.341 . S
O327 C315 1.266 . S
H328 C300 0.929 1_565 S
H329 C301 0.931 1_565 S
H330 C303 0.930 . S
H331 C304 0.930 . S
H332 C309 0.929 1_545 S
H333 C310 0.931 1_545 S
H334 C312 0.930 . S
H335 C313 0.930 . S
Tb336 C338 2.809 . S
Tb336 O356 2.484 . S
Tb336 O357 2.440 . S
Tb336 O358 2.658 . S
Tb336 O359 2.409 . S
Tb336 O360 2.378 . S
Tb336 O364 2.325 . S
Tb336 O367 2.341 . S
Tb337 C347 2.809 . S
Tb337 O358 2.325 . S
Tb337 O361 2.341 . S
Tb337 O362 2.484 . S
Tb337 O363 2.440 . S
Tb337 O364 2.658 . S
Tb337 O365 2.409 . S
Tb337 O366 2.378 . S
C338 Tb336 2.809 . S
C338 C339 1.514 . S
C338 O356 1.248 . S
C338 O357 1.266 . S
C339 C338 1.514 . S
C339 C340 1.359 . S
C339 C344 1.348 . S
C340 C339 1.359 . S
C340 C341 1.380 . S
C340 H368 0.929 . S
C341 C340 1.380 . S
C341 C342 1.347 . S
C341 H369 0.931 . S
C342 C341 1.347 . S
C342 C343 1.369 . S
C343 C342 1.369 . S
C343 C344 1.408 . S
C343 H370 0.930 . S
C344 C339 1.348 . S
C344 C343 1.408 . S
C344 H371 0.930 . S
C345 O358 1.281 . S
C345 O359 1.254 . S
C346 O360 1.236 . S
C346 O361 1.266 . S
C347 Tb337 2.809 . S
C347 C348 1.514 . S
C347 O362 1.248 . S
C347 O363 1.266 . S
C348 C347 1.514 . S
C348 C349 1.359 . S
C348 C353 1.348 . S
C349 C348 1.359 . S
C349 C350 1.380 . S
C349 H372 0.929 . S
C350 C349 1.380 . S
C350 C351 1.347 . S
C350 H373 0.931 . S
C351 C350 1.347 . S
C351 C352 1.369 . S
C352 C351 1.369 . S
C352 C353 1.408 . S
C352 H374 0.930 . S
C353 C348 1.348 . S
C353 C352 1.408 . S
C353 H375 0.930 . S
C354 O364 1.281 . S
C354 O365 1.254 . S
C355 O366 1.236 . S
C355 O367 1.266 . S
O356 Tb336 2.484 . S
O356 C338 1.248 . S
O357 Tb336 2.440 . S
O357 C338 1.266 . S
O358 Tb336 2.658 . S
O358 Tb337 2.325 . S
O358 C345 1.281 . S
O359 Tb336 2.409 . S
O359 C345 1.254 . S
O360 Tb336 2.378 . S
O360 C346 1.236 . S
O361 Tb337 2.341 . S
O361 C346 1.266 . S
O362 Tb337 2.484 . S
O362 C347 1.248 . S
O363 Tb337 2.440 . S
O363 C347 1.266 . S
O364 Tb336 2.325 . S
O364 Tb337 2.658 . S
O364 C354 1.281 . S
O365 Tb337 2.409 . S
O365 C354 1.254 . S
O366 Tb337 2.378 . S
O366 C355 1.236 . S
O367 Tb336 2.341 . S
O367 C355 1.266 . S
H368 C340 0.929 . S
H369 C341 0.931 . S
H370 C343 0.930 . S
H371 C344 0.930 . S
H372 C349 0.929 . S
H373 C350 0.931 . S
H374 C352 0.930 . S
H375 C353 0.930 . S
Tb376 C378 2.809 . S
Tb376 O396 2.484 . S
Tb376 O397 2.440 . S
Tb376 O398 2.658 1_655 S
Tb376 O399 2.409 . S
Tb376 O400 2.378 . S
Tb376 O404 2.325 . S
Tb376 O407 2.341 1_655 S
Tb377 C387 2.809 . S
Tb377 O398 2.325 . S
Tb377 O401 2.341 1_455 S
Tb377 O402 2.484 . S
Tb377 O403 2.440 . S
Tb377 O404 2.658 1_455 S
Tb377 O405 2.409 . S
Tb377 O406 2.378 . S
C378 Tb376 2.809 . S
C378 C379 1.514 . S
C378 O396 1.248 . S
C378 O397 1.266 . S
C379 C378 1.514 . S
C379 C380 1.359 . S
C379 C384 1.348 . S
C380 C379 1.359 . S
C380 C381 1.380 . S
C380 H408 0.929 . S
C381 C380 1.380 . S
C381 C382 1.347 . S
C381 H409 0.931 . S
C382 C381 1.347 . S
C382 C383 1.369 . S
C383 C382 1.369 . S
C383 C384 1.408 . S
C383 H410 0.930 . S
C384 C379 1.348 . S
C384 C383 1.408 . S
C384 H411 0.930 . S
C385 O398 1.271 1_655 S
C385 O399 1.268 . S
C386 O400 1.236 . S
C386 O401 1.266 . S
C387 Tb377 2.809 . S
C387 C388 1.514 . S
C387 O402 1.248 . S
C387 O403 1.266 . S
C388 C387 1.514 . S
C388 C389 1.359 . S
C388 C393 1.348 . S
C389 C388 1.359 . S
C389 C390 1.380 . S
C389 H412 0.929 . S
C390 C389 1.380 . S
C390 C391 1.347 . S
C390 H413 0.931 . S
C391 C390 1.347 . S
C391 C392 1.369 . S
C392 C391 1.369 . S
C392 C393 1.408 . S
C392 H414 0.930 . S
C393 C388 1.348 . S
C393 C392 1.408 . S
C393 H415 0.930 . S
C394 O404 1.267 1_455 S
C394 O405 1.275 . S
C395 O406 1.236 . S
C395 O407 1.266 . S
O396 Tb376 2.484 . S
O396 C378 1.248 . S
O397 Tb376 2.440 . S
O397 C378 1.266 . S
O398 Tb376 2.658 1_455 S
O398 Tb377 2.325 . S
O398 C385 1.271 1_455 S
O399 Tb376 2.409 . S
O399 C385 1.268 . S
O400 Tb376 2.378 . S
O400 C386 1.236 . S
O401 Tb377 2.341 1_655 S
O401 C386 1.266 . S
O402 Tb377 2.484 . S
O402 C387 1.248 . S
O403 Tb377 2.440 . S
O403 C387 1.266 . S
O404 Tb376 2.325 . S
O404 Tb377 2.658 1_655 S
O404 C394 1.267 1_655 S
O405 Tb377 2.409 . S
O405 C394 1.275 . S
O406 Tb377 2.378 . S
O406 C395 1.236 . S
O407 Tb376 2.341 1_455 S
O407 C395 1.266 . S
H408 C380 0.929 . S
H409 C381 0.931 . S
H410 C383 0.930 . S
H411 C384 0.930 . S
H412 C389 0.929 . S
H413 C390 0.931 . S
H414 C392 0.930 . S
H415 C393 0.930 . S
H416 C424 0.929 . S
H417 C426 0.930 . S
H418 C428 0.930 . S
H419 C431 0.929 . S
H420 C434 0.930 . S
H421 C436 0.960 . S
H422 C436 0.960 . S
H423 C436 0.960 . S
C424 H416 0.929 . S
C424 C425 1.386 . S
C424 C426 1.384 . S
C425 C424 1.386 . S
C425 C431 1.382 1_545 S
C426 H417 0.930 . S
C426 C424 1.384 . S
C426 C427 1.389 . S
C427 C426 1.389 . S
C427 C428 1.384 1_545 S
C427 C432 1.490 . S
C428 H418 0.930 . S
C428 C427 1.384 1_565 S
C428 C431 1.386 . S
H429 C445 0.930 . S
H430 C446 0.931 . S
C431 H419 0.929 . S
C431 C425 1.382 1_565 S
C431 C428 1.386 . S
C432 C427 1.490 . S
C432 C434 1.381 1_545 S
C432 C435 1.416 . S
H433 C439 0.930 . S
C434 H420 0.930 . S
C434 C432 1.381 1_565 S
C434 C437 1.403 . S
C435 C432 1.416 . S
C435 C436 1.524 . S
C435 C439 1.400 . S
C436 H421 0.960 . S
C436 H422 0.960 . S
C436 H423 0.960 . S
C436 C435 1.524 . S
C437 C434 1.403 . S
C437 C438 1.392 . S
C437 C441 1.495 . S
C438 C437 1.392 . S
C438 C439 1.385 1_565 S
C438 C440 1.478 . S
C439 H433 0.930 . S
C439 C435 1.400 . S
C439 C438 1.385 1_545 S
C440 C438 1.478 . S
C440 C442 1.381 1_565 S
C440 C446 1.383 . S
C441 C437 1.495 . S
C441 H447 0.959 . S
C441 H448 0.961 . S
C441 H449 0.960 . S
C442 C440 1.381 1_545 S
C442 C443 1.394 . S
C442 H450 0.930 . S
C443 C442 1.394 . S
C443 C444 1.374 1_545 S
C443 H451 0.929 . S
C444 C443 1.374 1_565 S
C444 C445 1.388 . S
C445 H429 0.930 . S
C445 C444 1.388 . S
C445 C446 1.379 . S
C446 H430 0.931 . S
C446 C440 1.383 . S
C446 C445 1.379 . S
H447 C441 0.959 . S
H448 C441 0.961 . S
H449 C441 0.960 . S
H450 C442 0.930 . S
H451 C443 0.929 . S
H452 C460 0.929 . S
H453 C462 0.930 . S
H454 C464 0.930 . S
H455 C467 0.929 . S
H456 C470 0.930 . S
H457 C472 0.960 . S
H458 C472 0.960 . S
H459 C472 0.960 . S
C460 H452 0.929 . S
C460 C461 1.377 . S
C460 C462 1.384 . S
C461 C460 1.377 . S
C461 C467 1.390 . S
C462 H453 0.930 . S
C462 C460 1.384 . S
C462 C463 1.372 . S
C463 C462 1.372 . S
C463 C464 1.400 . S
C463 C468 1.490 . S
C464 H454 0.930 . S
C464 C463 1.400 . S
C464 C467 1.386 . S
H465 C481 0.930 . S
H466 C482 0.931 . S
C467 H455 0.929 . S
C467 C461 1.390 . S
C467 C464 1.386 . S
C468 C463 1.490 . S
C468 C470 1.395 . S
C468 C471 1.403 . S
H469 C475 0.930 . S
C470 H456 0.930 . S
C470 C468 1.395 . S
C470 C473 1.403 . S
C471 C468 1.403 . S
C471 C472 1.524 . S
C471 C475 1.400 . S
C472 H457 0.960 . S
C472 H458 0.960 . S
C472 H459 0.960 . S
C472 C471 1.524 . S
C473 C470 1.403 . S
C473 C474 1.392 . S
C473 C477 1.495 . S
C474 C473 1.392 . S
C474 C475 1.385 . S
C474 C476 1.478 . S
C475 H469 0.930 . S
C475 C471 1.400 . S
C475 C474 1.385 . S
C476 C474 1.478 . S
C476 C478 1.381 . S
C476 C482 1.383 . S
C477 C473 1.495 . S
C477 H483 0.959 . S
C477 H484 0.961 . S
C477 H485 0.960 . S
C478 C476 1.381 . S
C478 C479 1.394 . S
C478 H486 0.930 . S
C479 C478 1.394 . S
C479 C480 1.383 . S
C479 H487 0.929 . S
C480 C479 1.383 . S
C480 C481 1.377 . S
C481 H465 0.930 . S
C481 C480 1.377 . S
C481 C482 1.379 . S
C482 H466 0.931 . S
C482 C476 1.383 . S
C482 C481 1.379 . S
H483 C477 0.959 . S
H484 C477 0.961 . S
H485 C477 0.960 . S
H486 C478 0.930 . S
H487 C479 0.929 . S
H488 C496 0.929 . S
H489 C498 0.930 . S
H490 C500 0.930 . S
H491 C503 0.929 . S
H492 C506 0.930 . S
H493 C508 0.960 . S
H494 C508 0.960 . S
H495 C508 0.960 . S
C496 H488 0.929 . S
C496 C497 1.377 . S
C496 C498 1.384 . S
C497 C496 1.377 . S
C497 C503 1.390 . S
C498 H489 0.930 . S
C498 C496 1.384 . S
C498 C499 1.372 . S
C499 C498 1.372 . S
C499 C500 1.400 . S
C499 C504 1.490 . S
C500 H490 0.930 . S
C500 C499 1.400 . S
C500 C503 1.386 . S
H501 C517 0.930 . S
H502 C518 0.931 . S
C503 H491 0.929 . S
C503 C497 1.390 . S
C503 C500 1.386 . S
C504 C499 1.490 . S
C504 C506 1.395 . S
C504 C507 1.403 . S
H505 C511 0.930 . S
C506 H492 0.930 . S
C506 C504 1.395 . S
C506 C509 1.403 . S
C507 C504 1.403 . S
C507 C508 1.524 . S
C507 C511 1.400 . S
C508 H493 0.960 . S
C508 H494 0.960 . S
C508 H495 0.960 . S
C508 C507 1.524 . S
C509 C506 1.403 . S
C509 C510 1.392 . S
C509 C513 1.495 . S
C510 C509 1.392 . S
C510 C511 1.385 . S
C510 C512 1.478 . S
C511 H505 0.930 . S
C511 C507 1.400 . S
C511 C510 1.385 . S
C512 C510 1.478 . S
C512 C514 1.381 . S
C512 C518 1.383 . S
C513 C509 1.495 . S
C513 H519 0.959 . S
C513 H520 0.961 . S
C513 H521 0.960 . S
C514 C512 1.381 . S
C514 C515 1.394 . S
C514 H522 0.930 . S
C515 C514 1.394 . S
C515 C516 1.383 . S
C515 H523 0.929 . S
C516 C515 1.383 . S
C516 C517 1.377 . S
C517 H501 0.930 . S
C517 C516 1.377 . S
C517 C518 1.379 . S
C518 H502 0.931 . S
C518 C512 1.383 . S
C518 C517 1.379 . S
H519 C513 0.959 . S
H520 C513 0.961 . S
H521 C513 0.960 . S
H522 C514 0.930 . S
H523 C515 0.929 . S
H524 C532 0.929 . S
H525 C534 0.930 . S
H526 C536 0.930 . S
H527 C539 0.929 . S
H528 C542 0.930 . S
H529 C544 0.960 . S
H530 C544 0.960 . S
H531 C544 0.960 . S
C532 H524 0.929 . S
C532 C533 1.377 . S
C532 C534 1.384 . S
C533 C532 1.377 . S
C533 C539 1.390 1_455 S
C534 H525 0.930 . S
C534 C532 1.384 . S
C534 C535 1.401 . S
C535 C534 1.401 . S
C535 C536 1.371 1_455 S
C535 C540 1.493 . S
C536 H526 0.930 . S
C536 C535 1.371 1_655 S
C536 C539 1.386 . S
H537 C553 0.930 . S
H538 C554 0.931 . S
C539 H527 0.929 . S
C539 C533 1.390 1_655 S
C539 C536 1.386 . S
C540 C535 1.493 . S
C540 C542 1.395 . S
C540 C543 1.403 1_455 S
H541 C547 0.930 . S
C542 H528 0.930 . S
C542 C540 1.395 . S
C542 C545 1.403 . S
C543 C540 1.403 1_655 S
C543 C544 1.524 . S
C543 C547 1.400 . S
C544 H529 0.960 . S
C544 H530 0.960 . S
C544 H531 0.960 . S
C544 C543 1.524 . S
C545 C542 1.403 . S
C545 C546 1.392 . S
C545 C549 1.495 . S
C546 C545 1.392 . S
C546 C547 1.385 1_455 S
C546 C548 1.478 . S
C547 H541 0.930 . S
C547 C543 1.400 . S
C547 C546 1.385 1_655 S
C548 C546 1.478 . S
C548 C550 1.381 . S
C548 C554 1.383 1_455 S
C549 C545 1.495 . S
C549 H555 0.959 . S
C549 H556 0.961 . S
C549 H557 0.960 . S
C550 C548 1.381 . S
C550 C551 1.394 . S
C550 H558 0.930 . S
C551 C550 1.394 . S
C551 C552 1.383 . S
C551 H559 0.929 . S
C552 C551 1.383 . S
C552 C553 1.377 1_455 S
C553 H537 0.930 . S
C553 C552 1.377 1_655 S
C553 C554 1.379 . S
C554 H538 0.931 . S
C554 C548 1.383 1_655 S
C554 C553 1.379 . S
H555 C549 0.959 . S
H556 C549 0.961 . S
H557 C549 0.960 . S
H558 C550 0.930 . S
H559 C551 0.929 . S
H560 C568 0.929 . S
H561 C570 0.930 . S
H562 C572 0.930 . S
H563 C575 0.929 . S
H564 C578 0.930 . S
H565 C580 0.960 . S
H566 C580 0.960 1_545 S
H567 C580 0.960 1_554 S
C568 H560 0.929 . S
C568 C569 1.389 . S
C568 C570 1.384 . S
C569 C568 1.389 . S
C569 C575 1.378 1_545 S
C570 H561 0.930 . S
C570 C568 1.384 . S
C570 C571 1.372 . S
C571 C570 1.372 . S
C571 C572 1.400 1_545 S
C571 C576 1.490 . S
C572 H562 0.930 . S
C572 C571 1.400 1_565 S
C572 C575 1.386 . S
H573 C589 0.930 . S
H574 C590 0.931 . S
C575 H563 0.929 . S
C575 C569 1.378 1_565 S
C575 C572 1.386 . S
C576 C571 1.490 . S
C576 C578 1.395 . S
C576 C579 1.403 1_545 S
H577 C583 0.930 . S
C578 H564 0.930 . S
C578 C576 1.395 . S
C578 C581 1.403 . S
C579 C576 1.403 1_565 S
C579 C580 1.524 1_554 S
C579 C583 1.400 1_554 S
C580 H565 0.960 . S
C580 H566 0.960 1_565 S
C580 H567 0.960 1_556 S
C580 C579 1.524 1_556 S
C581 C578 1.403 . S
C581 C582 1.392 1_554 S
C581 C585 1.495 . S
C582 C581 1.392 1_556 S
C582 C583 1.385 1_545 S
C582 C584 1.479 . S
C583 H577 0.930 . S
C583 C579 1.400 1_556 S
C583 C582 1.385 1_565 S
C584 C582 1.479 . S
C584 C586 1.414 . S
C584 C590 1.350 1_545 S
C585 C581 1.495 . S
C585 H591 0.959 . S
C585 H592 0.961 1_545 S
C585 H593 0.960 . S
C586 C584 1.414 . S
C586 C587 1.394 . S
C586 H594 0.930 . S
C587 C586 1.394 . S
C587 C588 1.380 1_545 S
C587 H595 0.929 . S
C588 C587 1.380 1_565 S
C588 C589 1.380 . S
C589 H573 0.930 . S
C589 C588 1.380 . S
C589 C590 1.379 . S
C590 H574 0.931 . S
C590 C584 1.350 1_565 S
C590 C589 1.379 . S
H591 C585 0.959 . S
H592 C585 0.961 1_565 S
H593 C585 0.960 . S
H594 C586 0.930 . S
H595 C587 0.929 . S
H596 C604 0.929 . S
H597 C606 0.930 . S
H598 C608 0.930 . S
H599 C611 0.929 . S
H600 C614 0.930 . S
H601 C616 0.960 . S
H602 C616 0.960 . S
H603 C616 0.960 . S
C604 H596 0.929 . S
C604 C605 1.377 . S
C604 C606 1.384 . S
C605 C604 1.377 . S
C605 C611 1.390 . S
C606 H597 0.930 . S
C606 C604 1.384 . S
C606 C607 1.372 . S
C607 C606 1.372 . S
C607 C608 1.400 . S
C607 C612 1.490 . S
C608 H598 0.930 . S
C608 C607 1.400 . S
C608 C611 1.386 . S
H609 C625 0.930 . S
H610 C626 0.931 . S
C611 H599 0.929 . S
C611 C605 1.390 . S
C611 C608 1.386 . S
C612 C607 1.490 . S
C612 C614 1.395 . S
C612 C615 1.403 . S
H613 C619 0.930 . S
C614 H600 0.930 . S
C614 C612 1.395 . S
C614 C617 1.403 1_554 S
C615 C612 1.403 . S
C615 C616 1.524 . S
C615 C619 1.400 . S
C616 H601 0.960 . S
C616 H602 0.960 . S
C616 H603 0.960 . S
C616 C615 1.524 . S
C617 C614 1.403 1_556 S
C617 C618 1.392 . S
C617 C621 1.495 . S
C618 C617 1.392 . S
C618 C619 1.385 1_556 S
C618 C620 1.478 . S
C619 H613 0.930 . S
C619 C615 1.400 . S
C619 C618 1.385 1_554 S
C620 C618 1.478 . S
C620 C622 1.381 . S
C620 C626 1.383 . S
C621 C617 1.495 . S
C621 H627 0.959 . S
C621 H628 0.961 . S
C621 H629 0.960 . S
C622 C620 1.381 . S
C622 C623 1.394 . S
C622 H630 0.930 . S
C623 C622 1.394 . S
C623 C624 1.383 . S
C623 H631 0.929 . S
C624 C623 1.383 . S
C624 C625 1.377 . S
C625 H609 0.930 . S
C625 C624 1.377 . S
C625 C626 1.379 . S
C626 H610 0.931 . S
C626 C620 1.383 . S
C626 C625 1.379 . S
H627 C621 0.959 . S
H628 C621 0.961 . S
H629 C621 0.960 . S
H630 C622 0.930 . S
H631 C623 0.929 . S
H632 C640 0.929 . S
H633 C642 0.930 . S
H634 C644 0.930 . S
H635 C647 0.929 . S
H636 C650 0.930 . S
H637 C652 0.960 . S
H638 C652 0.960 1_554 S
H639 C652 0.960 1_554 S
C640 H632 0.929 . S
C640 C641 1.377 . S
C640 C642 1.384 . S
C641 C640 1.377 . S
C641 C647 1.390 . S
C642 H633 0.930 . S
C642 C640 1.384 . S
C642 C643 1.372 . S
C643 C642 1.372 . S
C643 C644 1.400 . S
C643 C648 1.490 . S
C644 H634 0.930 . S
C644 C643 1.400 . S
C644 C647 1.386 . S
H645 C661 0.930 . S
H646 C662 0.931 . S
C647 H635 0.929 . S
C647 C641 1.390 . S
C647 C644 1.386 . S
C648 C643 1.490 . S
C648 C650 1.395 . S
C648 C651 1.403 . S
H649 C655 0.930 . S
C650 H636 0.930 . S
C650 C648 1.395 . S
C650 C653 1.403 . S
C651 C648 1.403 . S
C651 C652 1.524 1_554 S
C651 C655 1.400 1_554 S
C652 H637 0.960 . S
C652 H638 0.960 1_556 S
C652 H639 0.960 1_556 S
C652 C651 1.524 1_556 S
C653 C650 1.403 . S
C653 C654 1.392 1_554 S
C653 C657 1.495 . S
C654 C653 1.392 1_556 S
C654 C655 1.385 . S
C654 C656 1.478 . S
C655 H649 0.930 . S
C655 C651 1.400 1_556 S
C655 C654 1.385 . S
C656 C654 1.478 . S
C656 C658 1.381 . S
C656 C662 1.383 . S
C657 C653 1.495 . S
C657 H663 0.959 . S
C657 H664 0.961 . S
C657 H665 0.960 . S
C658 C656 1.381 . S
C658 C659 1.394 . S
C658 H666 0.930 . S
C659 C658 1.394 . S
C659 C660 1.383 . S
C659 H667 0.929 . S
C660 C659 1.383 . S
C660 C661 1.377 . S
C661 H645 0.930 . S
C661 C660 1.377 . S
C661 C662 1.379 . S
C662 H646 0.931 . S
C662 C656 1.383 . S
C662 C661 1.379 . S
H663 C657 0.959 . S
H664 C657 0.961 . S
H665 C657 0.960 . S
H666 C658 0.930 . S
H667 C659 0.929 . S
H668 C676 0.929 . S
H669 C678 0.930 . S
H670 C680 0.930 . S
H671 C683 0.929 . S
H672 C686 0.930 . S
H673 C688 0.960 . S
H674 C688 0.960 . S
H675 C688 0.960 . S
C676 H668 0.929 . S
C676 C677 1.378 . S
C676 C678 1.384 . S
C677 C676 1.378 . S
C677 C683 1.390 1_655 S
C678 H669 0.930 . S
C678 C676 1.384 . S
C678 C679 1.401 . S
C679 C678 1.401 . S
C679 C680 1.370 1_655 S
C679 C684 1.493 . S
C680 H670 0.930 . S
C680 C679 1.370 1_455 S
C680 C683 1.386 . S
H681 C697 0.930 . S
H682 C698 0.931 . S
C683 H671 0.929 . S
C683 C677 1.390 1_455 S
C683 C680 1.386 . S
C684 C679 1.493 . S
C684 C686 1.395 . S
C684 C687 1.403 1_655 S
H685 C691 0.930 . S
C686 H672 0.930 . S
C686 C684 1.395 . S
C686 C689 1.403 1_554 S
C687 C684 1.403 1_455 S
C687 C688 1.524 . S
C687 C691 1.400 1_554 S
C688 H673 0.960 . S
C688 H674 0.960 . S
C688 H675 0.960 . S
C688 C687 1.524 . S
C689 C686 1.403 1_556 S
C689 C690 1.392 . S
C689 C693 1.495 . S
C690 C689 1.392 . S
C690 C691 1.385 1_655 S
C690 C692 1.478 . S
C691 H685 0.930 . S
C691 C687 1.400 1_556 S
C691 C690 1.385 1_455 S
C692 C690 1.478 . S
C692 C694 1.381 . S
C692 C698 1.383 1_655 S
C693 C689 1.495 . S
C693 H699 0.959 . S
C693 H700 0.961 . S
C693 H701 0.960 . S
C694 C692 1.381 . S
C694 C695 1.394 . S
C694 H702 0.930 . S
C695 C694 1.394 . S
C695 C696 1.383 . S
C695 H703 0.929 . S
C696 C695 1.383 . S
C696 C697 1.377 1_655 S
C697 H681 0.930 . S
C697 C696 1.377 1_455 S
C697 C698 1.379 . S
C698 H682 0.931 . S
C698 C692 1.383 1_455 S
C698 C697 1.379 . S
H699 C693 0.959 . S
H700 C693 0.961 . S
H701 C693 0.960 . S
H702 C694 0.930 . S
H703 C695 0.929 . S
H704 C712 0.929 . S
H705 C714 0.930 . S
H706 C716 0.930 . S
H707 C719 0.929 . S
H708 C722 0.930 . S
H709 C724 0.960 . S
H710 C724 0.960 . S
H711 C724 0.960 . S
C712 H704 0.929 . S
C712 C713 1.377 . S
C712 C714 1.384 . S
C713 C712 1.377 . S
C713 C719 1.390 1_455 S
C714 H705 0.930 . S
C714 C712 1.384 . S
C714 C715 1.372 1_455 S
C715 C714 1.372 1_655 S
C715 C716 1.400 . S
C715 C720 1.490 . S
C716 H706 0.930 . S
C716 C715 1.400 . S
C716 C719 1.386 . S
H717 C733 0.930 . S
H718 C734 0.931 . S
C719 H707 0.929 . S
C719 C713 1.390 1_655 S
C719 C716 1.386 . S
C720 C715 1.490 . S
C720 C722 1.395 1_655 S
C720 C723 1.403 . S
H721 C727 0.930 . S
C722 H708 0.930 . S
C722 C720 1.395 1_455 S
C722 C725 1.403 . S
C723 C720 1.403 . S
C723 C724 1.524 . S
C723 C727 1.400 . S
C724 H709 0.960 . S
C724 H710 0.960 . S
C724 H711 0.960 . S
C724 C723 1.524 . S
C725 C722 1.403 . S
C725 C726 1.392 1_455 S
C725 C729 1.495 . S
C726 C725 1.392 1_655 S
C726 C727 1.385 . S
C726 C728 1.478 . S
C727 H721 0.930 . S
C727 C723 1.400 . S
C727 C726 1.385 . S
C728 C726 1.478 . S
C728 C730 1.381 . S
C728 C734 1.383 . S
C729 C725 1.495 . S
C729 H735 0.959 . S
C729 H736 0.961 . S
C729 H737 0.960 . S
C730 C728 1.381 . S
C730 C731 1.394 . S
C730 H738 0.930 . S
C731 C730 1.394 . S
C731 C732 1.383 . S
C731 H739 0.929 . S
C732 C731 1.383 . S
C732 C733 1.377 . S
C733 H717 0.930 . S
C733 C732 1.377 . S
C733 C734 1.379 . S
C734 H718 0.931 . S
C734 C728 1.383 . S
C734 C733 1.379 . S
H735 C729 0.959 . S
H736 C729 0.961 . S
H737 C729 0.960 . S
H738 C730 0.930 . S
H739 C731 0.929 . S
H740 C748 0.929 . S
H741 C750 0.930 . S
H742 C752 0.930 . S
H743 C755 0.929 . S
H744 C758 0.930 . S
H745 C760 0.960 . S
H746 C760 0.960 . S
H747 C760 0.960 . S
C748 H740 0.929 . S
C748 C749 1.377 . S
C748 C750 1.384 . S
C749 C748 1.377 . S
C749 C755 1.390 1_545 S
C750 H741 0.930 . S
C750 C748 1.384 . S
C750 C751 1.372 1_545 S
C751 C750 1.372 1_565 S
C751 C752 1.400 . S
C751 C756 1.490 . S
C752 H742 0.930 . S
C752 C751 1.400 . S
C752 C755 1.386 . S
H753 C769 0.930 . S
H754 C770 0.931 . S
C755 H743 0.929 . S
C755 C749 1.390 1_565 S
C755 C752 1.386 . S
C756 C751 1.490 . S
C756 C758 1.395 . S
C756 C759 1.394 1_565 S
H757 C763 0.930 1_545 S
C758 H744 0.930 . S
C758 C756 1.395 . S
C758 C761 1.403 . S
C759 C756 1.394 1_545 S
C759 C760 1.538 . S
C759 C763 1.395 1_545 S
C760 H745 0.960 . S
C760 H746 0.960 . S
C760 H747 0.960 . S
C760 C759 1.538 . S
C761 C758 1.403 . S
C761 C762 1.392 . S
C761 C765 1.495 . S
C762 C761 1.392 . S
C762 C763 1.385 . S
C762 C764 1.478 . S
C763 H757 0.930 1_565 S
C763 C759 1.395 1_565 S
C763 C762 1.385 . S
C764 C762 1.478 . S
C764 C766 1.381 . S
C764 C770 1.383 . S
C765 C761 1.495 . S
C765 H771 0.959 . S
C765 H772 0.961 . S
C765 H773 0.960 . S
C766 C764 1.381 . S
C766 C767 1.394 . S
C766 H774 0.930 . S
C767 C766 1.394 . S
C767 C768 1.383 . S
C767 H775 0.929 . S
C768 C767 1.383 . S
C768 C769 1.377 . S
C769 H753 0.930 . S
C769 C768 1.377 . S
C769 C770 1.379 . S
C770 H754 0.931 . S
C770 C764 1.383 . S
C770 C769 1.379 . S
H771 C765 0.959 . S
H772 C765 0.961 . S
H773 C765 0.960 . S
H774 C766 0.930 . S
H775 C767 0.929 . S
H776 C784 0.929 . S
H777 C786 0.930 . S
H778 C788 0.930 . S
H779 C791 0.929 . S
H780 C794 0.930 . S
H781 C796 0.960 . S
H782 C796 0.960 . S
H783 C796 0.960 . S
C784 H776 0.929 . S
C784 C785 1.377 . S
C784 C786 1.384 . S
C785 C784 1.377 . S
C785 C791 1.390 . S
C786 H777 0.930 . S
C786 C784 1.384 . S
C786 C787 1.372 . S
C787 C786 1.372 . S
C787 C788 1.400 . S
C787 C792 1.490 . S
C788 H778 0.930 . S
C788 C787 1.400 . S
C788 C791 1.386 . S
H789 C805 0.930 . S
H790 C806 0.931 . S
C791 H779 0.929 . S
C791 C785 1.390 . S
C791 C788 1.386 . S
C792 C787 1.490 . S
C792 C794 1.395 . S
C792 C795 1.403 . S
H793 C799 0.930 . S
C794 H780 0.930 . S
C794 C792 1.395 . S
C794 C797 1.403 . S
C795 C792 1.403 . S
C795 C796 1.524 . S
C795 C799 1.400 . S
C796 H781 0.960 . S
C796 H782 0.960 . S
C796 H783 0.960 . S
C796 C795 1.524 . S
C797 C794 1.403 . S
C797 C798 1.392 . S
C797 C801 1.495 . S
C798 C797 1.392 . S
C798 C799 1.385 . S
C798 C800 1.478 . S
C799 H793 0.930 . S
C799 C795 1.400 . S
C799 C798 1.385 . S
C800 C798 1.478 . S
C800 C802 1.381 . S
C800 C806 1.383 . S
C801 C797 1.495 . S
C801 H807 0.959 . S
C801 H808 0.961 . S
C801 H809 0.960 . S
C802 C800 1.381 . S
C802 C803 1.394 . S
C802 H810 0.930 . S
C803 C802 1.394 . S
C803 C804 1.383 . S
C803 H811 0.929 . S
C804 C803 1.383 . S
C804 C805 1.377 . S
C805 H789 0.930 . S
C805 C804 1.377 . S
C805 C806 1.379 . S
C806 H790 0.931 . S
C806 C800 1.383 . S
C806 C805 1.379 . S
H807 C801 0.959 . S
H808 C801 0.961 . S
H809 C801 0.960 . S
H810 C802 0.930 . S
H811 C803 0.929 . S
H812 C820 0.929 . S
H813 C822 0.930 . S
H814 C824 0.930 . S
H815 C827 0.929 . S
H816 C830 0.930 . S
H817 C832 0.960 . S
H818 C832 0.960 . S
H819 C832 0.960 . S
C820 H812 0.929 . S
C820 C821 1.377 . S
C820 C822 1.384 . S
C821 C820 1.377 . S
C821 C827 1.390 . S
C822 H813 0.930 . S
C822 C820 1.384 . S
C822 C823 1.372 . S
C823 C822 1.372 . S
C823 C824 1.400 . S
C823 C828 1.490 . S
C824 H814 0.930 . S
C824 C823 1.400 . S
C824 C827 1.386 . S
H825 C841 0.930 . S
H826 C842 0.931 . S
C827 H815 0.929 . S
C827 C821 1.390 . S
C827 C824 1.386 . S
C828 C823 1.490 . S
C828 C830 1.395 . S
C828 C831 1.403 . S
H829 C835 0.930 . S
C830 H816 0.930 . S
C830 C828 1.395 . S
C830 C833 1.403 . S
C831 C828 1.403 . S
C831 C832 1.524 . S
C831 C835 1.400 . S
C832 H817 0.960 . S
C832 H818 0.960 . S
C832 H819 0.960 . S
C832 C831 1.524 . S
C833 C830 1.403 . S
C833 C834 1.392 . S
C833 C837 1.495 . S
C834 C833 1.392 . S
C834 C835 1.385 . S
C834 C836 1.478 . S
C835 H829 0.930 . S
C835 C831 1.400 . S
C835 C834 1.385 . S
C836 C834 1.478 . S
C836 C838 1.381 . S
C836 C842 1.383 . S
C837 C833 1.495 . S
C837 H843 0.959 . S
C837 H844 0.961 . S
C837 H845 0.960 . S
C838 C836 1.381 . S
C838 C839 1.394 . S
C838 H846 0.930 . S
C839 C838 1.394 . S
C839 C840 1.383 . S
C839 H847 0.929 . S
C840 C839 1.383 . S
C840 C841 1.377 . S
C841 H825 0.930 . S
C841 C840 1.377 . S
C841 C842 1.379 . S
C842 H826 0.931 . S
C842 C836 1.383 . S
C842 C841 1.379 . S
H843 C837 0.959 . S
H844 C837 0.961 . S
H845 C837 0.960 . S
H846 C838 0.930 . S
H847 C839 0.929 . S
H848 C856 0.929 . S
H849 C858 0.930 . S
H850 C860 0.930 . S
H851 C863 0.929 . S
H852 C866 0.929 . S
H853 C868 0.960 . S
H854 C868 0.960 . S
H855 C868 0.960 . S
C856 H848 0.929 . S
C856 C857 1.377 1_455 S
C856 C858 1.384 . S
C857 C856 1.377 1_655 S
C857 C863 1.390 . S
C858 H849 0.930 . S
C858 C856 1.384 . S
C858 C859 1.372 . S
C859 C858 1.372 . S
C859 C860 1.400 1_455 S
C859 C864 1.490 . S
C860 H850 0.930 . S
C860 C859 1.400 1_655 S
C860 C863 1.386 . S
H861 C877 0.930 . S
H862 C878 0.931 1_554 S
C863 H851 0.929 . S
C863 C857 1.390 . S
C863 C860 1.386 . S
C864 C859 1.490 . S
C864 C866 1.395 1_454 S
C864 C867 1.403 . S
H865 C871 0.930 . S
C866 H852 0.929 . S
C866 C864 1.395 1_656 S
C866 C869 1.404 1_655 S
C867 C864 1.403 . S
C867 C868 1.524 . S
C867 C871 1.400 . S
C868 H853 0.960 . S
C868 H854 0.960 . S
C868 H855 0.960 . S
C868 C867 1.524 . S
C869 C866 1.404 1_455 S
C869 C870 1.392 . S
C869 C873 1.495 1_455 S
C870 C869 1.392 . S
C870 C871 1.385 1_556 S
C870 C872 1.478 . S
C871 H865 0.930 . S
C871 C867 1.400 . S
C871 C870 1.385 1_554 S
C872 C870 1.478 . S
C872 C874 1.381 . S
C872 C878 1.383 . S
C873 C869 1.495 1_655 S
C873 H879 0.959 . S
C873 H880 0.961 . S
C873 H881 0.934 1_655 S
C874 C872 1.381 . S
C874 C875 1.394 . S
C874 H882 0.930 . S
C875 C874 1.394 . S
C875 C876 1.383 . S
C875 H883 0.929 . S
C876 C875 1.383 . S
C876 C877 1.377 . S
C877 H861 0.930 . S
C877 C876 1.377 . S
C877 C878 1.379 . S
C878 H862 0.931 1_556 S
C878 C872 1.383 . S
C878 C877 1.379 . S
H879 C873 0.959 . S
H880 C873 0.961 . S
H881 C873 0.934 1_455 S
H882 C874 0.930 . S
H883 C875 0.929 . S
H884 C892 0.929 . S
H885 C894 0.930 . S
H886 C896 0.930 . S
H887 C899 0.929 . S
H888 C902 0.930 . S
H889 C904 0.960 . S
H890 C904 0.960 . S
H891 C904 0.960 . S
C892 H884 0.929 . S
C892 C893 1.377 . S
C892 C894 1.384 . S
C893 C892 1.377 . S
C893 C899 1.390 1_565 S
C894 H885 0.930 . S
C894 C892 1.384 . S
C894 C895 1.372 1_565 S
C895 C894 1.372 1_545 S
C895 C896 1.400 . S
C895 C900 1.490 . S
C896 H886 0.930 . S
C896 C895 1.400 . S
C896 C899 1.386 . S
H897 C913 0.930 . S
H898 C914 0.931 1_554 S
C899 H887 0.929 . S
C899 C893 1.390 1_545 S
C899 C896 1.386 . S
C900 C895 1.490 . S
C900 C902 1.395 1_545 S
C900 C903 1.403 . S
H901 C907 0.930 1_556 S
C902 H888 0.930 . S
C902 C900 1.395 1_565 S
C902 C905 1.403 . S
C903 C900 1.403 . S
C903 C904 1.524 . S
C903 C907 1.400 . S
C904 H889 0.960 . S
C904 H890 0.960 . S
C904 H891 0.960 . S
C904 C903 1.524 . S
C905 C902 1.403 . S
C905 C906 1.392 1_564 S
C905 C909 1.495 1_554 S
C906 C905 1.392 1_546 S
C906 C907 1.385 1_556 S
C906 C908 1.478 . S
C907 H901 0.930 1_554 S
C907 C903 1.400 . S
C907 C906 1.385 1_554 S
C908 C906 1.478 . S
C908 C910 1.381 . S
C908 C914 1.383 . S
C909 C905 1.495 1_556 S
C909 H915 0.959 1_556 S
C909 H916 0.961 1_556 S
C909 H917 0.960 . S
C910 C908 1.381 . S
C910 C911 1.394 . S
C910 H918 0.930 . S
C911 C910 1.394 . S
C911 C912 1.383 . S
C911 H919 0.929 . S
C912 C911 1.383 . S
C912 C913 1.377 . S
C913 H897 0.930 . S
C913 C912 1.377 . S
C913 C914 1.379 . S
C914 H898 0.931 1_556 S
C914 C908 1.383 . S
C914 C913 1.379 . S
H915 C909 0.959 1_554 S
H916 C909 0.961 1_554 S
H917 C909 0.960 . S
H918 C910 0.930 . S
H919 C911 0.929 . S
H920 C928 0.929 . S
H921 C930 0.930 . S
H922 C932 0.930 . S
H923 C935 0.929 . S
H924 C938 0.930 . S
H925 C940 0.960 1_556 S
H926 C940 0.960 . S
H927 C940 0.960 . S
C928 H920 0.929 . S
C928 C929 1.377 . S
C928 C930 1.384 . S
C929 C928 1.377 . S
C929 C935 1.390 . S
C930 H921 0.930 . S
C930 C928 1.384 . S
C930 C931 1.372 . S
C931 C930 1.372 . S
C931 C932 1.400 . S
C931 C936 1.490 . S
C932 H922 0.930 . S
C932 C931 1.400 . S
C932 C935 1.386 . S
H933 C949 0.930 . S
H934 C950 0.931 1_554 S
C935 H923 0.929 . S
C935 C929 1.390 . S
C935 C932 1.386 . S
C936 C931 1.490 . S
C936 C938 1.395 . S
C936 C939 1.403 . S
H937 C943 0.930 . S
C938 H924 0.930 . S
C938 C936 1.395 . S
C938 C941 1.403 . S
C939 C936 1.403 . S
C939 C940 1.524 . S
C939 C943 1.400 1_554 S
C940 H925 0.960 1_554 S
C940 H926 0.960 . S
C940 H927 0.960 . S
C940 C939 1.524 . S
C941 C938 1.403 . S
C941 C942 1.392 1_554 S
C941 C945 1.495 . S
C942 C941 1.392 1_556 S
C942 C943 1.385 . S
C942 C944 1.478 . S
C943 H937 0.930 . S
C943 C939 1.400 1_556 S
C943 C942 1.385 . S
C944 C942 1.478 . S
C944 C946 1.381 . S
C944 C950 1.383 . S
C945 C941 1.495 . S
C945 H951 0.959 . S
C945 H952 0.961 . S
C945 H953 0.960 1_554 S
C946 C944 1.381 . S
C946 C947 1.394 . S
C946 H954 0.930 . S
C947 C946 1.394 . S
C947 C948 1.383 . S
C947 H955 0.929 . S
C948 C947 1.383 . S
C948 C949 1.377 . S
C949 H933 0.930 . S
C949 C948 1.377 . S
C949 C950 1.379 . S
C950 H934 0.931 1_556 S
C950 C944 1.383 . S
C950 C949 1.379 . S
H951 C945 0.959 . S
H952 C945 0.961 . S
H953 C945 0.960 1_556 S
H954 C946 0.930 . S
H955 C947 0.929 . S
H956 C964 0.929 . S
H957 C966 0.930 . S
H958 C968 0.930 . S
H959 C971 0.929 . S
H960 C974 0.930 . S
H961 C976 0.960 . S
H962 C976 0.960 . S
H963 C976 0.960 . S
C964 H956 0.929 . S
C964 C965 1.377 . S
C964 C966 1.384 . S
C965 C964 1.377 . S
C965 C971 1.390 . S
C966 H957 0.930 . S
C966 C964 1.384 . S
C966 C967 1.372 . S
C967 C966 1.372 . S
C967 C968 1.400 . S
C967 C972 1.490 . S
C968 H958 0.930 . S
C968 C967 1.400 . S
C968 C971 1.386 . S
H969 C985 0.930 . S
H970 C986 0.931 . S
C971 H959 0.929 . S
C971 C965 1.390 . S
C971 C968 1.386 . S
C972 C967 1.490 . S
C972 C974 1.395 . S
C972 C975 1.403 . S
H973 C979 0.930 . S
C974 H960 0.930 . S
C974 C972 1.395 . S
C974 C977 1.403 . S
C975 C972 1.403 . S
C975 C976 1.524 1_554 S
C975 C979 1.400 1_554 S
C976 H961 0.960 . S
C976 H962 0.960 . S
C976 H963 0.960 . S
C976 C975 1.524 1_556 S
C977 C974 1.403 . S
C977 C978 1.392 . S
C977 C981 1.495 . S
C978 C977 1.392 . S
C978 C979 1.385 1_554 S
C978 C980 1.478 1_554 S
C979 H973 0.930 . S
C979 C975 1.400 1_556 S
C979 C978 1.385 1_556 S
C980 C978 1.478 1_556 S
C980 C982 1.381 . S
C980 C986 1.383 . S
C981 C977 1.495 . S
C981 H987 0.959 . S
C981 H988 0.961 . S
C981 H989 0.960 . S
C982 C980 1.381 . S
C982 C983 1.394 . S
C982 H990 0.930 1_556 S
C983 C982 1.394 . S
C983 C984 1.383 . S
C983 H991 0.929 . S
C984 C983 1.383 . S
C984 C985 1.377 . S
C985 H969 0.930 . S
C985 C984 1.377 . S
C985 C986 1.379 . S
C986 H970 0.931 . S
C986 C980 1.383 . S
C986 C985 1.379 . S
H987 C981 0.959 . S
H988 C981 0.961 . S
H989 C981 0.960 . S
H990 C982 0.930 1_554 S
H991 C983 0.929 . S
H992 C1000 0.929 . S
H993 C1002 0.930 . S
H994 C1004 0.930 . S
H995 C1007 0.929 . S
H996 C1010 0.930 . S
H997 C1012 0.960 . S
H998 C1012 0.960 . S
H999 C1012 0.960 . S
C1000 H992 0.929 . S
C1000 C1001 1.368 1_655 S
C1000 C1002 1.384 . S
C1001 C1000 1.368 1_455 S
C1001 C1007 1.402 . S
C1002 H993 0.930 . S
C1002 C1000 1.384 . S
C1002 C1003 1.372 1_655 S
C1003 C1002 1.372 1_455 S
C1003 C1004 1.400 . S
C1003 C1008 1.490 . S
C1004 H994 0.930 . S
C1004 C1003 1.400 . S
C1004 C1007 1.386 . S
H1005 C1021 0.930 . S
H1006 C1022 0.931 . S
C1007 H995 0.929 . S
C1007 C1001 1.402 . S
C1007 C1004 1.386 . S
C1008 C1003 1.490 . S
C1008 C1010 1.395 . S
C1008 C1011 1.403 1_455 S
H1009 C1015 0.930 . S
C1010 H996 0.930 . S
C1010 C1008 1.395 . S
C1010 C1013 1.403 . S
C1011 C1008 1.403 1_655 S
C1011 C1012 1.524 . S
C1011 C1015 1.400 . S
C1012 H997 0.960 . S
C1012 H998 0.960 . S
C1012 H999 0.960 . S
C1012 C1011 1.524 . S
C1013 C1010 1.403 . S
C1013 C1014 1.392 . S
C1013 C1017 1.495 . S
C1014 C1013 1.392 . S
C1014 C1015 1.385 1_455 S
C1014 C1016 1.478 . S
C1015 H1009 0.930 . S
C1015 C1011 1.400 . S
C1015 C1014 1.385 1_655 S
C1016 C1014 1.478 . S
C1016 C1018 1.381 . S
C1016 C1022 1.383 . S
C1017 C1013 1.495 . S
C1017 H1023 0.959 . S
C1017 H1024 0.961 . S
C1017 H1025 0.960 . S
C1018 C1016 1.381 . S
C1018 C1019 1.394 . S
C1018 H1026 0.920 1_455 S
C1019 C1018 1.394 . S
C1019 C1020 1.383 . S
C1019 H1027 0.929 1_455 S
C1020 C1019 1.383 . S
C1020 C1021 1.377 . S
C1021 H1005 0.930 . S
C1021 C1020 1.377 . S
C1021 C1022 1.379 . S
C1022 H1006 0.931 . S
C1022 C1016 1.383 . S
C1022 C1021 1.379 . S
H1023 C1017 0.959 . S
H1024 C1017 0.961 . S
H1025 C1017 0.960 . S
H1026 C1018 0.920 1_655 S
H1027 C1019 0.929 1_655 S
H1028 C1036 0.929 . S
H1029 C1038 0.930 . S
H1030 C1040 0.930 . S
H1031 C1043 0.929 . S
H1032 C1046 0.930 . S
H1033 C1048 0.960 . S
H1034 C1048 0.960 . S
H1035 C1048 0.960 . S
C1036 H1028 0.929 . S
C1036 C1037 1.377 . S
C1036 C1038 1.384 . S
C1037 C1036 1.377 . S
C1037 C1043 1.390 1_545 S
C1038 H1029 0.930 . S
C1038 C1036 1.384 . S
C1038 C1039 1.372 . S
C1039 C1038 1.372 . S
C1039 C1040 1.400 1_545 S
C1039 C1044 1.490 . S
C1040 H1030 0.930 . S
C1040 C1039 1.400 1_565 S
C1040 C1043 1.386 . S
H1041 C1057 0.930 . S
H1042 C1058 0.931 . S
C1043 H1031 0.929 . S
C1043 C1037 1.390 1_565 S
C1043 C1040 1.386 . S
C1044 C1039 1.490 . S
C1044 C1046 1.395 . S
C1044 C1047 1.403 1_545 S
H1045 C1051 0.930 . S
C1046 H1032 0.930 . S
C1046 C1044 1.395 . S
C1046 C1049 1.403 . S
C1047 C1044 1.403 1_565 S
C1047 C1048 1.524 . S
C1047 C1051 1.400 . S
C1048 H1033 0.960 . S
C1048 H1034 0.960 . S
C1048 H1035 0.960 . S
C1048 C1047 1.524 . S
C1049 C1046 1.403 . S
C1049 C1050 1.392 . S
C1049 C1053 1.495 . S
C1050 C1049 1.392 . S
C1050 C1051 1.385 1_545 S
C1050 C1052 1.478 . S
C1051 H1045 0.930 . S
C1051 C1047 1.400 . S
C1051 C1050 1.385 1_565 S
C1052 C1050 1.478 . S
C1052 C1054 1.381 . S
C1052 C1058 1.383 1_545 S
C1053 C1049 1.495 . S
C1053 H1059 0.959 . S
C1053 H1060 0.961 . S
C1053 H1061 0.960 . S
C1054 C1052 1.381 . S
C1054 C1055 1.394 . S
C1054 H1062 0.930 . S
C1055 C1054 1.394 . S
C1055 C1056 1.383 . S
C1055 H1063 0.929 . S
C1056 C1055 1.383 . S
C1056 C1057 1.377 1_545 S
C1057 H1041 0.930 . S
C1057 C1056 1.377 1_565 S
C1057 C1058 1.379 . S
C1058 H1042 0.931 . S
C1058 C1052 1.383 1_565 S
C1058 C1057 1.379 . S
H1059 C1053 0.959 . S
H1060 C1053 0.961 . S
H1061 C1053 0.960 . S
H1062 C1054 0.930 . S
H1063 C1055 0.929 . S
H1064 C1072 0.929 . S
H1065 C1074 0.930 . S
H1066 C1076 0.930 . S
H1067 C1079 0.929 . S
H1068 C1082 0.930 . S
H1069 C1084 0.960 . S
H1070 C1084 0.960 . S
H1071 C1084 0.960 . S
C1072 H1064 0.929 . S
C1072 C1073 1.377 . S
C1072 C1074 1.384 . S
C1073 C1072 1.377 . S
C1073 C1079 1.390 . S
C1074 H1065 0.930 . S
C1074 C1072 1.384 . S
C1074 C1075 1.372 . S
C1075 C1074 1.372 . S
C1075 C1076 1.400 . S
C1075 C1080 1.490 . S
C1076 H1066 0.930 . S
C1076 C1075 1.400 . S
C1076 C1079 1.386 . S
H1077 C1093 0.930 . S
H1078 C1094 0.931 . S
C1079 H1067 0.929 . S
C1079 C1073 1.390 . S
C1079 C1076 1.386 . S
C1080 C1075 1.490 . S
C1080 C1082 1.395 . S
C1080 C1083 1.403 . S
H1081 C1087 0.930 . S
C1082 H1068 0.930 . S
C1082 C1080 1.395 . S
C1082 C1085 1.403 . S
C1083 C1080 1.403 . S
C1083 C1084 1.524 . S
C1083 C1087 1.400 . S
C1084 H1069 0.960 . S
C1084 H1070 0.960 . S
C1084 H1071 0.960 . S
C1084 C1083 1.524 . S
C1085 C1082 1.403 . S
C1085 C1086 1.392 . S
C1085 C1089 1.495 . S
C1086 C1085 1.392 . S
C1086 C1087 1.385 . S
C1086 C1088 1.478 . S
C1087 H1081 0.930 . S
C1087 C1083 1.400 . S
C1087 C1086 1.385 . S
C1088 C1086 1.478 . S
C1088 C1090 1.381 . S
C1088 C1094 1.383 . S
C1089 C1085 1.495 . S
C1089 H1095 0.959 . S
C1089 H1096 0.961 . S
C1089 H1097 0.960 . S
C1090 C1088 1.381 . S
C1090 C1091 1.394 . S
C1090 H1098 0.930 . S
C1091 C1090 1.394 . S
C1091 C1092 1.383 . S
C1091 H1099 0.929 . S
C1092 C1091 1.383 . S
C1092 C1093 1.377 . S
C1093 H1077 0.930 . S
C1093 C1092 1.377 . S
C1093 C1094 1.379 . S
C1094 H1078 0.931 . S
C1094 C1088 1.383 . S
C1094 C1093 1.379 . S
H1095 C1089 0.959 . S
H1096 C1089 0.961 . S
H1097 C1089 0.960 . S
H1098 C1090 0.930 . S
H1099 C1091 0.929 . S
H1100 C1108 0.929 . S
H1101 C1110 0.930 . S
H1102 C1112 0.930 . S
H1103 C1115 0.929 . S
H1104 C1118 0.930 . S
H1105 C1120 0.960 . S
H1106 C1120 0.960 . S
H1107 C1120 0.960 . S
C1108 H1100 0.929 . S
C1108 C1109 1.377 . S
C1108 C1110 1.384 . S
C1109 C1108 1.377 . S
C1109 C1115 1.390 . S
C1110 H1101 0.930 . S
C1110 C1108 1.384 . S
C1110 C1111 1.372 . S
C1111 C1110 1.372 . S
C1111 C1112 1.400 . S
C1111 C1116 1.490 . S
C1112 H1102 0.930 . S
C1112 C1111 1.400 . S
C1112 C1115 1.386 . S
H1113 C1129 0.930 . S
H1114 C1130 0.931 . S
C1115 H1103 0.929 . S
C1115 C1109 1.390 . S
C1115 C1112 1.386 . S
C1116 C1111 1.490 . S
C1116 C1118 1.395 . S
C1116 C1119 1.403 . S
H1117 C1123 0.930 . S
C1118 H1104 0.930 . S
C1118 C1116 1.395 . S
C1118 C1121 1.403 . S
C1119 C1116 1.403 . S
C1119 C1120 1.524 . S
C1119 C1123 1.400 . S
C1120 H1105 0.960 . S
C1120 H1106 0.960 . S
C1120 H1107 0.960 . S
C1120 C1119 1.524 . S
C1121 C1118 1.403 . S
C1121 C1122 1.392 . S
C1121 C1125 1.495 . S
C1122 C1121 1.392 . S
C1122 C1123 1.385 . S
C1122 C1124 1.478 . S
C1123 H1117 0.930 . S
C1123 C1119 1.400 . S
C1123 C1122 1.385 . S
C1124 C1122 1.478 . S
C1124 C1126 1.381 . S
C1124 C1130 1.383 . S
C1125 C1121 1.495 . S
C1125 H1131 0.959 . S
C1125 H1132 0.961 . S
C1125 H1133 0.960 . S
C1126 C1124 1.381 . S
C1126 C1127 1.394 . S
C1126 H1134 0.930 . S
C1127 C1126 1.394 . S
C1127 C1128 1.383 . S
C1127 H1135 0.929 . S
C1128 C1127 1.383 . S
C1128 C1129 1.377 . S
C1129 H1113 0.930 . S
C1129 C1128 1.377 . S
C1129 C1130 1.379 . S
C1130 H1114 0.931 . S
C1130 C1124 1.383 . S
C1130 C1129 1.379 . S
H1131 C1125 0.959 . S
H1132 C1125 0.961 . S
H1133 C1125 0.960 . S
H1134 C1126 0.930 . S
H1135 C1127 0.929 . S
H1136 C1144 0.929 . S
H1137 C1146 0.930 . S
H1138 C1148 0.930 . S
H1139 C1151 0.929 . S
H1140 C1154 0.930 . S
H1141 C1156 0.960 . S
H1142 C1156 0.960 . S
H1143 C1156 0.960 . S
C1144 H1136 0.929 . S
C1144 C1145 1.377 1_455 S
C1144 C1146 1.384 . S
C1145 C1144 1.377 1_655 S
C1145 C1151 1.390 . S
C1146 H1137 0.930 . S
C1146 C1144 1.384 . S
C1146 C1147 1.372 1_455 S
C1147 C1146 1.372 1_655 S
C1147 C1148 1.400 . S
C1147 C1152 1.490 . S
C1148 H1138 0.930 . S
C1148 C1147 1.400 . S
C1148 C1151 1.386 . S
H1149 C1165 0.930 . S
H1150 C1166 0.931 . S
C1151 H1139 0.929 . S
C1151 C1145 1.390 . S
C1151 C1148 1.386 . S
C1152 C1147 1.490 . S
C1152 C1154 1.395 1_655 S
C1152 C1155 1.403 . S
H1153 C1159 0.930 . S
C1154 H1140 0.930 . S
C1154 C1152 1.395 1_455 S
C1154 C1157 1.403 . S
C1155 C1152 1.403 . S
C1155 C1156 1.524 . S
C1155 C1159 1.400 . S
C1156 H1141 0.960 . S
C1156 H1142 0.960 . S
C1156 H1143 0.960 . S
C1156 C1155 1.524 . S
C1157 C1154 1.403 . S
C1157 C1158 1.392 1_455 S
C1157 C1161 1.495 . S
C1158 C1157 1.392 1_655 S
C1158 C1159 1.385 . S
C1158 C1160 1.478 . S
C1159 H1153 0.930 . S
C1159 C1155 1.400 . S
C1159 C1158 1.385 . S
C1160 C1158 1.478 . S
C1160 C1162 1.381 1_655 S
C1160 C1166 1.383 . S
C1161 C1157 1.495 . S
C1161 H1167 0.959 . S
C1161 H1168 0.961 . S
C1161 H1169 0.960 . S
C1162 C1160 1.381 1_455 S
C1162 C1163 1.394 . S
C1162 H1170 0.930 . S
C1163 C1162 1.394 . S
C1163 C1164 1.383 1_455 S
C1163 H1171 0.929 . S
C1164 C1163 1.383 1_655 S
C1164 C1165 1.377 . S
C1165 H1149 0.930 . S
C1165 C1164 1.377 . S
C1165 C1166 1.379 . S
C1166 H1150 0.931 . S
C1166 C1160 1.383 . S
C1166 C1165 1.379 . S
H1167 C1161 0.959 . S
H1168 C1161 0.961 . S
H1169 C1161 0.960 . S
H1170 C1162 0.930 . S
H1171 C1163 0.929 . S
H1172 C1180 0.929 . S
H1173 C1182 0.930 . S
H1174 C1184 0.930 . S
H1175 C1187 0.929 . S
H1176 C1190 0.930 . S
H1177 C1192 0.960 . S
H1178 C1192 0.960 . S
H1179 C1192 0.960 . S
C1180 H1172 0.929 . S
C1180 C1181 1.341 1_545 S
C1180 C1182 1.384 . S
C1181 C1180 1.341 1_565 S
C1181 C1187 1.427 . S
C1182 H1173 0.930 . S
C1182 C1180 1.384 . S
C1182 C1183 1.372 1_545 S
C1183 C1182 1.372 1_565 S
C1183 C1184 1.400 . S
C1183 C1188 1.490 . S
C1184 H1174 0.930 . S
C1184 C1183 1.400 . S
C1184 C1187 1.386 . S
H1185 C1201 0.930 . S
H1186 C1202 0.931 . S
C1187 H1175 0.929 . S
C1187 C1181 1.427 . S
C1187 C1184 1.386 . S
C1188 C1183 1.490 . S
C1188 C1190 1.395 1_565 S
C1188 C1191 1.403 . S
H1189 C1195 0.930 . S
C1190 H1176 0.930 . S
C1190 C1188 1.395 1_545 S
C1190 C1193 1.403 . S
C1191 C1188 1.403 . S
C1191 C1192 1.524 . S
C1191 C1195 1.400 . S
C1192 H1177 0.960 . S
C1192 H1178 0.960 . S
C1192 H1179 0.960 . S
C1192 C1191 1.524 . S
C1193 C1190 1.403 . S
C1193 C1194 1.392 1_545 S
C1193 C1197 1.495 . S
C1194 C1193 1.392 1_565 S
C1194 C1195 1.385 . S
C1194 C1196 1.478 . S
C1195 H1189 0.930 . S
C1195 C1191 1.400 . S
C1195 C1194 1.385 . S
C1196 C1194 1.478 . S
C1196 C1198 1.381 1_565 S
C1196 C1202 1.383 . S
C1197 C1193 1.495 . S
C1197 H1203 0.959 . S
C1197 H1204 0.958 1_545 S
C1197 H1205 0.960 . S
C1198 C1196 1.381 1_545 S
C1198 C1199 1.394 . S
C1198 H1206 0.930 . S
C1199 C1198 1.394 . S
C1199 C1200 1.383 1_545 S
C1199 H1207 0.929 . S
C1200 C1199 1.383 1_565 S
C1200 C1201 1.377 . S
C1201 H1185 0.930 . S
C1201 C1200 1.377 . S
C1201 C1202 1.379 . S
C1202 H1186 0.931 . S
C1202 C1196 1.383 . S
C1202 C1201 1.379 . S
H1203 C1197 0.959 . S
H1204 C1197 0.958 1_565 S
H1205 C1197 0.960 . S
H1206 C1198 0.930 . S
H1207 C1199 0.929 . S
H1208 C1216 0.929 . S
H1209 C1218 0.930 . S
H1210 C1220 0.930 . S
H1211 C1223 0.929 . S
H1212 C1226 0.930 . S
H1213 C1228 0.960 . S
H1214 C1228 0.960 . S
H1215 C1228 0.960 . S
C1216 H1208 0.929 . S
C1216 C1217 1.377 . S
C1216 C1218 1.384 . S
C1217 C1216 1.377 . S
C1217 C1223 1.390 . S
C1218 H1209 0.930 . S
C1218 C1216 1.384 . S
C1218 C1219 1.372 . S
C1219 C1218 1.372 . S
C1219 C1220 1.400 . S
C1219 C1224 1.490 . S
C1220 H1210 0.930 . S
C1220 C1219 1.400 . S
C1220 C1223 1.386 . S
H1221 C1237 0.930 . S
H1222 C1238 0.931 . S
C1223 H1211 0.929 . S
C1223 C1217 1.390 . S
C1223 C1220 1.386 . S
C1224 C1219 1.490 . S
C1224 C1226 1.395 . S
C1224 C1227 1.403 . S
H1225 C1231 0.930 . S
C1226 H1212 0.930 . S
C1226 C1224 1.395 . S
C1226 C1229 1.403 . S
C1227 C1224 1.403 . S
C1227 C1228 1.524 . S
C1227 C1231 1.400 . S
C1228 H1213 0.960 . S
C1228 H1214 0.960 . S
C1228 H1215 0.960 . S
C1228 C1227 1.524 . S
C1229 C1226 1.403 . S
C1229 C1230 1.392 . S
C1229 C1233 1.495 . S
C1230 C1229 1.392 . S
C1230 C1231 1.385 . S
C1230 C1232 1.478 . S
C1231 H1225 0.930 . S
C1231 C1227 1.400 . S
C1231 C1230 1.385 . S
C1232 C1230 1.478 . S
C1232 C1234 1.381 . S
C1232 C1238 1.383 . S
C1233 C1229 1.495 . S
C1233 H1239 0.959 . S
C1233 H1240 0.961 . S
C1233 H1241 0.960 . S
C1234 C1232 1.381 . S
C1234 C1235 1.394 . S
C1234 H1242 0.930 . S
C1235 C1234 1.394 . S
C1235 C1236 1.383 . S
C1235 H1243 0.929 . S
C1236 C1235 1.383 . S
C1236 C1237 1.377 . S
C1237 H1221 0.930 . S
C1237 C1236 1.377 . S
C1237 C1238 1.379 . S
C1238 H1222 0.931 . S
C1238 C1232 1.383 . S
C1238 C1237 1.379 . S
H1239 C1233 0.959 . S
H1240 C1233 0.961 . S
H1241 C1233 0.960 . S
H1242 C1234 0.930 . S
H1243 C1235 0.929 . S
H1244 C1252 0.929 . S
H1245 C1254 0.930 . S
H1246 C1256 0.930 . S
H1247 C1259 0.929 . S
H1248 C1262 0.930 . S
H1249 C1264 0.960 . S
H1250 C1264 0.960 . S
H1251 C1264 0.960 . S
C1252 H1244 0.929 . S
C1252 C1253 1.377 . S
C1252 C1254 1.384 . S
C1253 C1252 1.377 . S
C1253 C1259 1.390 . S
C1254 H1245 0.930 . S
C1254 C1252 1.384 . S
C1254 C1255 1.372 . S
C1255 C1254 1.372 . S
C1255 C1256 1.400 . S
C1255 C1260 1.490 . S
C1256 H1246 0.930 . S
C1256 C1255 1.400 . S
C1256 C1259 1.386 . S
H1257 C1273 0.930 . S
H1258 C1274 0.931 . S
C1259 H1247 0.929 . S
C1259 C1253 1.390 . S
C1259 C1256 1.386 . S
C1260 C1255 1.490 . S
C1260 C1262 1.395 . S
C1260 C1263 1.403 . S
H1261 C1267 0.930 . S
C1262 H1248 0.930 . S
C1262 C1260 1.395 . S
C1262 C1265 1.403 . S
C1263 C1260 1.403 . S
C1263 C1264 1.524 . S
C1263 C1267 1.400 . S
C1264 H1249 0.960 . S
C1264 H1250 0.960 . S
C1264 H1251 0.960 . S
C1264 C1263 1.524 . S
C1265 C1262 1.403 . S
C1265 C1266 1.392 . S
C1265 C1269 1.495 . S
C1266 C1265 1.392 . S
C1266 C1267 1.385 . S
C1266 C1268 1.478 . S
C1267 H1261 0.930 . S
C1267 C1263 1.400 . S
C1267 C1266 1.385 . S
C1268 C1266 1.478 . S
C1268 C1270 1.381 . S
C1268 C1274 1.383 . S
C1269 C1265 1.495 . S
C1269 H1275 0.959 . S
C1269 H1276 0.961 . S
C1269 H1277 0.960 . S
C1270 C1268 1.381 . S
C1270 C1271 1.394 . S
C1270 H1278 0.930 . S
C1271 C1270 1.394 . S
C1271 C1272 1.383 . S
C1271 H1279 0.929 . S
C1272 C1271 1.383 . S
C1272 C1273 1.377 . S
C1273 H1257 0.930 . S
C1273 C1272 1.377 . S
C1273 C1274 1.379 . S
C1274 H1258 0.931 . S
C1274 C1268 1.383 . S
C1274 C1273 1.379 . S
H1275 C1269 0.959 . S
H1276 C1269 0.961 . S
H1277 C1269 0.960 . S
H1278 C1270 0.930 . S
H1279 C1271 0.929 . S
C425 C215 1.798 . S
C444 C265 1.899 . S
C480 C305 1.913 . S
C461 C247 1.800 . S
C516 C345 1.913 . S
C497 C151 1.810 . S
C552 C385 1.910 1_455 S
C533 C183 1.796 . S
C588 C274 1.907 1_565 S
C569 C87 1.798 . S
C605 C119 1.815 . S
C624 C314 1.911 . S
C641 C23 1.811 . S
C660 C354 1.921 . S
C677 C55 1.806 1_655 S
C696 C394 1.908 1_655 S
C732 C271 0.181 . S
C713 C189 0.241 . S
C768 C311 0.348 . S
C749 C221 0.242 . S
C804 C351 0.184 . S
C785 C253 0.272 . S
C821 C157 0.268 . S
C840 C391 0.181 . S
C857 C61 0.407 1_655 S
C876 C262 0.232 . S
C912 C302 0.182 . S
C893 C93 0.410 1_565 S
C948 C342 0.190 . S
C929 C125 0.419 . S
C965 C29 0.432 . S
C984 C382 0.310 . S
C1001 C177 2.272 . S
C1020 C275 2.496 . S
C1037 C209 2.241 . S
C1056 C315 2.474 . S
C1092 C355 2.458 . S
C1073 C241 2.223 . S
C1128 C395 2.484 . S
C1109 C145 2.241 . S
C1145 C49 2.284 1_655 S
C1164 C266 2.492 . S
C1200 C306 2.466 . S
C1181 C81 2.250 1_565 S
C1236 C346 2.466 . S
C1217 C113 2.241 . S
C1253 C17 2.271 . S
C1272 C386 2.485 . S
