# Generated by pormake.
# Topology ssa, (4,4)-cn, num edge types: 1
# Building blocks:
#     Node 0, Type 0, BuildingBlock: KOZSID_clean_sbu_0, # of connection points: 4
#     Node 1, Type 0, BuildingBlock: KOZSID_clean_sbu_0, # of connection points: 4
#     Node 2, Type 0, BuildingBlock: KOZSID_clean_sbu_0, # of connection points: 4
#     Node 3, Type 0, BuildingBlock: KOZSID_clean_sbu_0, # of connection points: 4
#     Node 4, Type 0, BuildingBlock: KOZSID_clean_sbu_0, # of connection points: 4
#     Node 5, Type 0, BuildingBlock: KOZSID_clean_sbu_0, # of connection points: 4
#     Node 6, Type 1, BuildingBlock: GIZVER_clean_linker_0, # of connection points: 4
#     Node 7, Type 1, BuildingBlock: GIZVER_clean_linker_0, # of connection points: 4
#     Node 8, Type 1, BuildingBlock: GIZVER_clean_linker_0, # of connection points: 4
#     Node 9, Type 1, BuildingBlock: GIZVER_clean_linker_0, # of connection points: 4
#     Node 10, Type 1, BuildingBlock: GIZVER_clean_linker_0, # of connection points: 4
#     Node 11, Type 1, BuildingBlock: GIZVER_clean_linker_0, # of connection points: 4
#     Edge 12, Type (0, 1), BuildingBlock: XUDNAN_clean_linker_2, # of connection points: 2
#     Edge 13, Type (0, 1), BuildingBlock: XUDNAN_clean_linker_2, # of connection points: 2
#     Edge 14, Type (0, 1), BuildingBlock: XUDNAN_clean_linker_2, # of connection points: 2
#     Edge 15, Type (0, 1), BuildingBlock: XUDNAN_clean_linker_2, # of connection points: 2
#     Edge 16, Type (0, 1), BuildingBlock: XUDNAN_clean_linker_2, # of connection points: 2
#     Edge 17, Type (0, 1), BuildingBlock: XUDNAN_clean_linker_2, # of connection points: 2
#     Edge 18, Type (0, 1), BuildingBlock: XUDNAN_clean_linker_2, # of connection points: 2
#     Edge 19, Type (0, 1), BuildingBlock: XUDNAN_clean_linker_2, # of connection points: 2
#     Edge 20, Type (0, 1), BuildingBlock: XUDNAN_clean_linker_2, # of connection points: 2
#     Edge 21, Type (0, 1), BuildingBlock: XUDNAN_clean_linker_2, # of connection points: 2
#     Edge 22, Type (0, 1), BuildingBlock: XUDNAN_clean_linker_2, # of connection points: 2
#     Edge 23, Type (0, 1), BuildingBlock: XUDNAN_clean_linker_2, # of connection points: 2
#     Edge 24, Type (0, 1), BuildingBlock: XUDNAN_clean_linker_2, # of connection points: 2
#     Edge 25, Type (0, 1), BuildingBlock: XUDNAN_clean_linker_2, # of connection points: 2
#     Edge 26, Type (0, 1), BuildingBlock: XUDNAN_clean_linker_2, # of connection points: 2
#     Edge 27, Type (0, 1), BuildingBlock: XUDNAN_clean_linker_2, # of connection points: 2
#     Edge 28, Type (0, 1), BuildingBlock: XUDNAN_clean_linker_2, # of connection points: 2
#     Edge 29, Type (0, 1), BuildingBlock: XUDNAN_clean_linker_2, # of connection points: 2
#     Edge 30, Type (0, 1), BuildingBlock: XUDNAN_clean_linker_2, # of connection points: 2
#     Edge 31, Type (0, 1), BuildingBlock: XUDNAN_clean_linker_2, # of connection points: 2
#     Edge 32, Type (0, 1), BuildingBlock: XUDNAN_clean_linker_2, # of connection points: 2
#     Edge 33, Type (0, 1), BuildingBlock: XUDNAN_clean_linker_2, # of connection points: 2
#     Edge 34, Type (0, 1), BuildingBlock: XUDNAN_clean_linker_2, # of connection points: 2
#     Edge 35, Type (0, 1), BuildingBlock: XUDNAN_clean_linker_2, # of connection points: 2
# Relax obj value: 0.004
# Max RMSD: 0.034
# Mean RMSD: 0.019
data_MOF--net-ssa--node1-KOZSID_clean_sbu_0--node2-GIZVER_clean_linker_0--edge1-XUDNAN_clean_linker_2
_symmetry_space_group_name_H-M    P1
_symmetry_Int_Tables_number       1
_symmetry_cell_setting            triclinic
loop_
_symmetry_equiv_pos_as_xyz
'x, y, z'
_cell_length_a     59.137857
_cell_length_b     60.533055
_cell_length_c     32.352748
_cell_angle_alpha  86.773411
_cell_angle_beta   89.866459
_cell_angle_gamma 122.40279
loop_
_atom_site_label
_atom_site_type_symbol
_atom_site_fract_x
_atom_site_fract_y
_atom_site_fract_z
_atom_type_partial_charge
C0 C 0.95813 0.51811 0.01746 0.0
C1 C 0.9388 0.51395 0.04673 0.0
C2 C 0.94301 0.50335 0.08194 0.0
C3 C 0.96447 0.50152 0.07213 0.0
N4 N 0.97456 0.5107 0.03299 0.0
Co5 Co 0.00432 0.50963 0.00505 0.0
N6 N 0.01041 0.49384 0.05674 0.0
C7 C 0.99716 0.4881 0.0938 0.0
C8 C 0.00769 0.4804 0.12483 0.0
C9 C 0.02939 0.4819 0.10687 0.0
C10 C 0.03071 0.4902 0.06552 0.0
N11 N 0.03315 0.50748 0.97657 0.0
C12 C 0.04997 0.50069 0.99227 0.0
C13 C 0.06702 0.5016 0.9617 0.0
C14 C 0.06143 0.51024 0.92564 0.0
C15 C 0.04119 0.51383 0.93615 0.0
N16 N 0.9992 0.52653 0.95391 0.0
C17 C 0.01365 0.53382 0.91771 0.0
C18 C 0.00569 0.54519 0.88826 0.0
C19 C 0.98479 0.54501 0.90662 0.0
C20 C 0.98109 0.53333 0.94631 0.0
N21 N 0.03151 0.54498 0.0231 0.0
C22 C 0.07144 0.59349 0.0517 0.0
C23 C 0.07484 0.58569 0.01366 0.0
C24 C 0.05454 0.56171 0.99967 0.0
C25 C 0.04767 0.57694 0.07488 0.0
C26 C 0.02826 0.55286 0.06037 0.0
N27 N 0.97703 0.47425 0.98703 0.0
C28 C 0.95428 0.44545 0.932 0.0
C29 C 0.93471 0.42619 0.96004 0.0
C30 C 0.93732 0.43096 0.00203 0.0
C31 C 0.95861 0.45479 0.01479 0.0
C32 C 0.97503 0.4691 0.94601 0.0
H33 H 0.95943 0.45715 0.0472 0.0
H34 H 0.98884 0.48313 0.92285 0.0
H35 H 0.05807 0.55703 0.96999 0.0
H36 H 0.01098 0.54083 0.08022 0.0
C37 C 0.97597 0.49176 0.09909 0.0
C38 C 0.95947 0.52825 0.97496 0.0
C39 C 0.05239 0.49593 0.03623 0.0
C40 C 0.03232 0.5269 0.91073 0.0
H41 H 0.92305 0.51785 0.04287 0.0
H42 H 0.93162 0.49746 0.11108 0.0
H43 H 1.00104 0.47536 0.15711 0.0
H44 H 0.04307 0.47811 0.12302 0.0
H45 H 0.08276 0.49769 0.96557 0.0
H46 H 0.07193 0.51484 0.89589 0.0
H47 H 0.01349 0.55192 0.85669 0.0
H48 H 0.97314 0.55207 0.89212 0.0
H49 H 0.09297 0.59815 0.99465 0.0
H50 H 0.04437 0.58228 0.1047 0.0
H51 H 0.95309 0.44274 0.89908 0.0
H52 H 0.92291 0.41641 0.02502 0.0
C53 C 0.55352 0.0282 0.56817 0.0
C54 C 0.55796 0.02446 0.60937 0.0
C55 C 0.53444 0.0035 0.62603 0.0
C56 C 0.51708 0.99559 0.59419 0.0
N57 N 0.52808 0.01023 0.55816 0.0
Co58 Co 0.51003 0.00499 0.50396 0.0
N59 N 0.47522 0.97505 0.52908 0.0
C60 C 0.4694 0.96694 0.56965 0.0
C61 C 0.44381 0.94575 0.57744 0.0
C62 C 0.43282 0.93966 0.53948 0.0
C63 C 0.45253 0.95744 0.51064 0.0
N64 N 0.49232 0.99859 0.44923 0.0
C65 C 0.46868 0.97771 0.43796 0.0
C66 C 0.46543 0.97923 0.3956 0.0
C67 C 0.48784 1.00171 0.37955 0.0
C68 C 0.50358 0.01245 0.41272 0.0
N69 N 0.54451 0.03588 0.47927 0.0
C70 C 0.5489 0.0466 0.43999 0.0
C71 C 0.57402 0.06856 0.43249 0.0
C72 C 0.58635 0.07233 0.46936 0.0
C73 C 0.56795 0.05231 0.49726 0.0
N74 N 0.5212 0.98051 0.49051 0.0
C75 C 0.53331 0.94369 0.46746 0.0
C76 C 0.54286 0.96714 0.44353 0.0
C77 C 0.53644 0.98504 0.45532 0.0
C78 C 0.51819 0.93921 0.50369 0.0
C79 C 0.5128 0.95798 0.51497 0.0
N80 N 0.49884 0.02965 0.51738 0.0
C81 C 0.49237 0.06496 0.49651 0.0
C82 C 0.48762 0.06783 0.53761 0.0
C83 C 0.48779 0.05066 0.56821 0.0
C84 C 0.49321 0.03187 0.55753 0.0
C85 C 0.49779 0.0459 0.48717 0.0
H86 H 0.49317 0.01968 0.58255 0.0
H87 H 0.50135 0.04496 0.45526 0.0
H88 H 0.54359 0.00217 0.43502 0.0
H89 H 0.50146 0.95367 0.54331 0.0
C90 C 0.48971 0.97642 0.59818 0.0
C91 C 0.57369 0.04983 0.54047 0.0
C92 C 0.44964 0.95542 0.46604 0.0
C93 C 0.52954 0.0347 0.41035 0.0
H94 H 0.57613 0.03608 0.62593 0.0
H95 H 0.53026 0.99551 0.65788 0.0
H96 H 0.4348 0.93495 0.60687 0.0
H97 H 0.41304 0.92324 0.53343 0.0
H98 H 0.44906 0.96527 0.3777 0.0
H99 H 0.49255 0.00881 0.34729 0.0
H100 H 0.58244 0.08033 0.40359 0.0
H101 H 0.60658 0.08803 0.47511 0.0
H102 H 0.55454 0.97128 0.41505 0.0
H103 H 0.51063 0.92136 0.52328 0.0
H104 H 0.49194 0.07738 0.47149 0.0
H105 H 0.48448 0.0521 0.60062 0.0
C106 C 0.56064 0.53313 0.95312 0.0
C107 C 0.57274 0.54687 0.91552 0.0
C108 C 0.55332 0.54711 0.89318 0.0
C109 C 0.53062 0.53374 0.91841 0.0
N110 N 0.53449 0.5253 0.95576 0.0
Co111 Co 0.50698 0.50503 0.00182 0.0
N112 N 0.47784 0.50266 0.96721 0.0
C113 C 0.47976 0.5103 0.92661 0.0
C114 C 0.4563 0.50647 0.91164 0.0
C115 C 0.43856 0.49629 0.9449 0.0
C116 C 0.45236 0.49467 0.97833 0.0
N117 N 0.47959 0.48599 0.04858 0.0
C118 C 0.45439 0.48101 0.05253 0.0
C119 C 0.44317 0.47029 0.09197 0.0
C120 C 0.46204 0.46873 0.11378 0.0
C121 C 0.4837 0.47878 0.08675 0.0
N122 N 0.53596 0.50636 0.03582 0.0
C123 C 0.53316 0.49557 0.07471 0.0
C124 C 0.55605 0.49769 0.0888 0.0
C125 C 0.57444 0.51006 0.05662 0.0
C126 C 0.56166 0.51488 0.02476 0.0
N127 N 0.51445 0.53856 0.02232 0.0
C128 C 0.51824 0.58291 0.05386 0.0
C129 C 0.52224 0.56588 0.07915 0.0
C130 C 0.52032 0.54403 0.06288 0.0
C131 C 0.51363 0.57801 0.01204 0.0
C132 C 0.512 0.55603 0.99699 0.0
N133 N 0.49937 0.47132 0.98126 0.0
C134 C 0.48772 0.42647 0.99407 0.0
C135 C 0.49132 0.42462 0.95207 0.0
C136 C 0.49858 0.44628 0.92485 0.0
C137 C 0.50214 0.46908 0.93985 0.0
C138 C 0.49207 0.4499 0.00796 0.0
H139 H 0.50721 0.4846 0.91717 0.0
H140 H 0.48957 0.45018 0.04047 0.0
H141 H 0.52291 0.53142 0.08394 0.0
H142 H 0.5081 0.55323 0.96493 0.0
C143 C 0.50477 0.52539 0.90583 0.0
C144 C 0.57417 0.52612 0.98377 0.0
C145 C 0.44135 0.488 0.02072 0.0
C146 C 0.50869 0.48328 0.09695 0.0
H147 H 0.59321 0.5549 0.90475 0.0
H148 H 0.55519 0.55487 0.86152 0.0
H149 H 0.45302 0.51208 0.88097 0.0
H150 H 0.41822 0.49184 0.94517 0.0
H151 H 0.42379 0.46493 0.10445 0.0
H152 H 0.46056 0.46214 0.14604 0.0
H153 H 0.55883 0.49055 0.11856 0.0
H154 H 0.59475 0.51444 0.05629 0.0
H155 H 0.5258 0.56876 0.11181 0.0
H156 H 0.51097 0.59094 0.99097 0.0
H157 H 0.48205 0.41008 0.01624 0.0
H158 H 0.50111 0.44552 0.89188 0.0
C159 C 0.95612 0.44832 0.48468 0.0
C160 C 0.93852 0.43449 0.4541 0.0
C161 C 0.94618 0.45137 0.41972 0.0
C162 C 0.96781 0.47449 0.43125 0.0
N163 N 0.97481 0.47332 0.47072 0.0
Co164 Co 0.00343 0.50315 0.5013 0.0
N165 N 0.01313 0.52853 0.45181 0.0
C166 C 1.00169 0.52329 0.41452 0.0
C167 C 0.01325 0.54445 0.38614 0.0
C168 C 0.03372 0.56428 0.40615 0.0
C169 C 0.03351 0.55396 0.44569 0.0
N170 N 0.03167 0.53311 0.53214 0.0
C171 C 0.05024 0.55819 0.51838 0.0
C172 C 0.067 0.5723 0.54961 0.0
C173 C 0.05891 0.55553 0.58419 0.0
C174 C 0.03784 0.53218 0.57221 0.0
N175 N 0.99418 0.47771 0.5505 0.0
C176 C 0.00624 0.48279 0.5873 0.0
C177 C 0.99536 0.46138 0.61516 0.0
C178 C 0.97483 0.44153 0.59523 0.0
C179 C 0.97426 0.4521 0.55632 0.0
N180 N 0.03057 0.49594 0.48176 0.0
C181 C 0.07179 0.48996 0.45241 0.0
C182 C 0.07008 0.49441 0.49382 0.0
C183 C 0.04947 0.49725 0.50773 0.0
C184 C 0.05197 0.48767 0.42623 0.0
C185 C 0.03169 0.49065 0.44145 0.0
N186 N 0.9762 0.51028 0.52092 0.0
C187 C 0.95189 0.51407 0.5774 0.0
C188 C 0.93464 0.51581 0.54998 0.0
C189 C 0.93898 0.51553 0.50767 0.0
C190 C 0.95964 0.51265 0.49392 0.0
C191 C 0.97249 0.5116 0.56232 0.0
H192 H 0.96153 0.51201 0.46138 0.0
H193 H 0.98497 0.51051 0.58488 0.0
H194 H 0.04957 0.50093 0.53949 0.0
H195 H 0.01748 0.48913 0.41979 0.0
C196 C 0.98084 0.49802 0.40662 0.0
C197 C 0.9533 0.43752 0.52721 0.0
C198 C 0.05392 0.56875 0.47548 0.0
C199 C 0.02587 0.50838 0.59612 0.0
H200 H 0.9214 0.41453 0.4566 0.0
H201 H 0.93652 0.44752 0.3903 0.0
H202 H 0.00789 0.54518 0.35435 0.0
H203 H 0.04766 0.58396 0.39285 0.0
H204 H 0.08398 0.59233 0.5474 0.0
H205 H 0.0682 0.55951 0.61392 0.0
H206 H 1.00099 0.46056 0.64676 0.0
H207 H 0.96122 0.42172 0.60833 0.0
H208 H 0.08471 0.49592 0.51548 0.0
H209 H 0.05253 0.48448 0.39374 0.0
H210 H 0.94965 0.51482 0.61045 0.0
H211 H 0.92612 0.51692 0.4853 0.0
C212 C 0.45907 0.98538 0.06145 0.0
C213 C 0.45054 0.98758 0.10011 0.0
C214 C 0.47023 0.01149 0.11297 0.0
C215 C 0.48955 0.02251 0.08147 0.0
N216 N 0.48314 0.00698 0.04977 0.0
Co217 Co 0.50516 0.01461 0.99855 0.0
N218 N 0.53821 0.04135 0.02492 0.0
C219 C 0.53907 0.05308 0.0596 0.0
C220 C 0.56471 0.07134 0.07002 0.0
C221 C 0.58097 0.0714 0.03968 0.0
C222 C 0.56426 0.05317 0.01221 0.0
N223 N 0.52699 0.02214 0.94702 0.0
C224 C 0.55395 0.03544 0.94083 0.0
C225 C 0.56073 0.03681 0.89914 0.0
C226 C 0.53722 0.02429 0.87872 0.0
C227 C 0.51742 0.01595 0.90881 0.0
N228 N 0.47196 0.988 0.97242 0.0
C229 C 0.4681 0.98562 0.93157 0.0
C230 C 0.44331 0.96456 0.92313 0.0
C231 C 0.43087 0.95306 0.96109 0.0
C232 C 0.44881 0.96794 0.99062 0.0
N233 N 0.49839 0.04185 0.98037 0.0
C234 C 0.48901 0.08118 0.95559 0.0
C235 C 0.46799 0.05655 0.97162 0.0
C236 C 0.47313 0.03722 0.98407 0.0
C237 C 0.51478 0.08572 0.95226 0.0
C238 C 0.519 0.0658 0.96451 0.0
N239 N 0.51176 0.98738 0.01703 0.0
C240 C 0.50928 0.94715 0.00592 0.0
C241 C 0.51479 0.9449 0.04751 0.0
C242 C 0.52007 0.96507 0.07282 0.0
C243 C 0.51843 0.98603 0.05706 0.0
C244 C 0.50794 0.96861 0.99126 0.0
H245 H 0.52179 1.00076 0.07771 0.0
H246 H 0.50298 0.96957 0.95945 0.0
H247 H 0.45663 0.01849 0.99666 0.0
H248 H 0.539 0.06986 0.96093 0.0
C249 C 0.51574 0.04419 0.08402 0.0
C250 C 0.4434 0.96332 0.03554 0.0
C251 C 0.57362 0.05001 0.97216 0.0
C252 C 0.48986 0.99966 0.90319 0.0
H253 H 0.43213 0.97336 0.11721 0.0
H254 H 0.47096 0.01925 0.14261 0.0
H255 H 0.5709 0.08292 0.09681 0.0
H256 H 0.60261 0.08392 0.03743 0.0
H257 H 0.5806 0.04651 0.88471 0.0
H258 H 0.53487 0.02129 0.84595 0.0
H259 H 0.43577 0.95745 0.8931 0.0
H260 H 0.4111 0.93556 0.96621 0.0
H261 H 0.44776 0.05228 0.97465 0.0
H262 H 0.53149 0.10433 0.93925 0.0
H263 H 0.5051 0.93206 0.98521 0.0
H264 H 0.52513 0.96457 0.10486 0.0
C265 C 0.51139 0.55784 0.52115 0.0
C266 C 0.50726 0.56968 0.55341 0.0
C267 C 0.49011 0.55 0.58188 0.0
C268 C 0.4851 0.52733 0.56598 0.0
N269 N 0.49857 0.53159 0.5297 0.0
Co270 Co 0.49868 0.50448 0.49813 0.0
N271 N 0.48184 0.47803 0.54574 0.0
C272 C 0.46847 0.47885 0.57866 0.0
C273 C 0.46016 0.45798 0.60718 0.0
C274 C 0.46904 0.44328 0.59118 0.0
C275 C 0.48227 0.45611 0.55372 0.0
N276 N 0.49877 0.4772 0.4671 0.0
C277 C 0.49797 0.45551 0.48208 0.0
C278 C 0.49949 0.44185 0.45035 0.0
C279 C 0.50152 0.45583 0.41407 0.0
C280 C 0.50108 0.47708 0.42584 0.0
N281 N 0.51538 0.53076 0.44995 0.0
C282 C 0.51656 0.5251 0.41053 0.0
C283 C 0.52739 0.54657 0.38292 0.0
C284 C 0.53286 0.56698 0.40603 0.0
C285 C 0.52509 0.55687 0.44694 0.0
N286 N 0.53415 0.5153 0.51825 0.0
C287 C 0.58231 0.52409 0.54915 0.0
C288 C 0.5782 0.52309 0.50651 0.0
C289 C 0.55391 0.51854 0.49171 0.0
C290 C 0.5623 0.52168 0.57574 0.0
C291 C 0.53858 0.51759 0.55969 0.0
N292 N 0.46303 0.49329 0.47807 0.0
C293 C 0.41833 0.45884 0.46242 0.0
C294 C 0.41304 0.47723 0.44437 0.0
C295 C 0.43328 0.50389 0.44498 0.0
C296 C 0.45773 0.51142 0.46246 0.0
C297 C 0.44344 0.46723 0.47853 0.0
H298 H 0.4725 0.53202 0.46232 0.0
H299 H 0.4471 0.45254 0.49089 0.0
H300 H 0.55083 0.51684 0.45894 0.0
H301 H 0.5235 0.51549 0.58111 0.0
C302 C 0.47037 0.50227 0.58635 0.0
C303 C 0.52274 0.57142 0.48011 0.0
C304 C 0.495 0.44729 0.52603 0.0
C305 C 0.50882 0.49977 0.40086 0.0
H306 H 0.51467 0.59028 0.555 0.0
H307 H 0.48239 0.55203 0.61082 0.0
H308 H 0.45055 0.45481 0.63734 0.0
H309 H 0.46662 0.42559 0.60584 0.0
H310 H 0.49951 0.42396 0.45325 0.0
H311 H 0.50462 0.45182 0.38309 0.0
H312 H 0.53067 0.54729 0.34982 0.0
H313 H 0.54053 0.58669 0.39326 0.0
H314 H 0.59323 0.52493 0.48493 0.0
H315 H 0.56491 0.52283 0.60886 0.0
H316 H 0.40337 0.43804 0.46388 0.0
H317 H 0.43087 0.51911 0.43094 0.0
H318 H 0.23432 0.51594 0.15232 0.0
H319 H 0.2369 0.50408 0.28422 0.0
H320 H 0.16325 0.48577 0.22897 0.0
H321 H 0.27666 0.53913 0.18703 0.0
H322 H 0.27757 0.5365 0.24194 0.0
H323 H 0.28945 0.51581 0.14656 0.0
H324 H 0.31567 0.46924 0.2085 0.0
H325 H 0.27381 0.49582 0.27788 0.0
C326 C 0.22408 0.5087 0.18246 0.0
C327 C 0.19659 0.49918 0.18639 0.0
C328 C 0.2387 0.51028 0.21772 0.0
C329 C 0.22548 0.50203 0.25698 0.0
C330 C 0.19812 0.49293 0.26147 0.0
C331 C 0.18388 0.49117 0.22583 0.0
C332 C 0.26894 0.52477 0.21448 0.0
C333 C 0.27911 0.50665 0.21206 0.0
C334 C 0.28998 0.5052 0.17429 0.0
C335 C 0.30315 0.49163 0.17271 0.0
C336 C 0.30428 0.47852 0.20902 0.0
C337 C 0.2937 0.47976 0.24702 0.0
C338 C 0.28106 0.49386 0.24838 0.0
H339 H 0.72362 0.21688 0.67773 0.0
H340 H 0.72741 0.21583 0.81077 0.0
H341 H 0.69712 0.14465 0.74915 0.0
H342 H 0.72864 0.25307 0.71425 0.0
H343 H 0.72686 0.25134 0.76929 0.0
H344 H 0.77181 0.27354 0.67612 0.0
H345 H 0.84072 0.32558 0.74357 0.0
H346 H 0.76763 0.26691 0.80975 0.0
C347 C 0.72161 0.20653 0.70732 0.0
C348 C 0.71063 0.17936 0.70915 0.0
C349 C 0.72852 0.22006 0.74386 0.0
C350 C 0.72377 0.20592 0.78237 0.0
C351 C 0.71266 0.17871 0.78444 0.0
C352 C 0.70695 0.16583 0.74763 0.0
C353 C 0.73648 0.24837 0.74238 0.0
C354 C 0.7665 0.26755 0.74294 0.0
C355 C 0.78144 0.2795 0.70543 0.0
C356 C 0.8082 0.30054 0.70584 0.0
C357 C 0.82029 0.30879 0.74378 0.0
C358 C 0.80617 0.29674 0.7816 0.0
C359 C 0.77914 0.27595 0.78091 0.0
H360 H 0.50375 0.72921 0.20722 0.0
H361 H 0.50311 0.72599 0.34027 0.0
H362 H 0.52925 0.68347 0.27497 0.0
H363 H 0.47267 0.73577 0.24794 0.0
H364 H 0.47375 0.73594 0.30279 0.0
H365 H 0.49773 0.77576 0.2055 0.0
H366 H 0.53779 0.84794 0.26609 0.0
H367 H 0.51057 0.77531 0.33677 0.0
C368 C 0.5085 0.72291 0.2361 0.0
C369 C 0.51822 0.70612 0.23597 0.0
C370 C 0.50295 0.73012 0.27363 0.0
C371 C 0.50834 0.72137 0.31125 0.0
C372 C 0.51837 0.70496 0.31174 0.0
C373 C 0.52354 0.69775 0.2741 0.0
C374 C 0.48665 0.74262 0.27396 0.0
C375 C 0.5037 0.77223 0.27096 0.0
C376 C 0.50654 0.78625 0.23297 0.0
C377 C 0.51836 0.81351 0.23132 0.0
C378 C 0.52897 0.8269 0.26716 0.0
C379 C 0.5264 0.81337 0.30511 0.0
C380 C 0.5137 0.78597 0.30708 0.0
H381 H 0.75596 0.55401 0.70949 0.0
H382 H 0.75282 0.55203 0.84256 0.0
H383 H 0.68164 0.52778 0.77507 0.0
H384 H 0.7959 0.58416 0.74842 0.0
H385 H 0.79453 0.58226 0.80342 0.0
H386 H 0.79641 0.54885 0.71071 0.0
H387 H 0.84588 0.52591 0.77151 0.0
H388 H 0.80828 0.55661 0.84158 0.0
C389 C 0.74437 0.54892 0.73833 0.0
C390 C 0.71668 0.53877 0.73765 0.0
C391 C 0.75756 0.55393 0.77611 0.0
C392 C 0.74261 0.54781 0.81356 0.0
C393 C 0.71498 0.53788 0.81354 0.0
C394 C 0.7024 0.53351 0.77545 0.0
C395 C 0.78785 0.57007 0.7762 0.0
C396 C 0.8003 0.5538 0.77633 0.0
C397 C 0.8045 0.54563 0.73878 0.0
C398 C 0.82055 0.535 0.7369 0.0
C399 C 0.83181 0.53211 0.77337 0.0
C400 C 0.82738 0.53946 0.81145 0.0
C401 C 0.81127 0.55009 0.81273 0.0
H402 H 0.29366 0.78073 0.19817 0.0
H403 H 0.29692 0.77661 0.33145 0.0
H404 H 0.34332 0.85076 0.26101 0.0
H405 H 0.28256 0.73962 0.23815 0.0
H406 H 0.28199 0.7377 0.29319 0.0
H407 H 0.24431 0.73629 0.19977 0.0
H408 H 0.16854 0.69172 0.26719 0.0
H409 H 0.24144 0.7246 0.3331 0.0
C410 C 0.30036 0.79036 0.22687 0.0
C411 C 0.31888 0.81754 0.22556 0.0
C412 C 0.29218 0.77535 0.26511 0.0
C413 C 0.30235 0.78809 0.30206 0.0
C414 C 0.32052 0.81544 0.3009 0.0
C415 C 0.3284 0.82986 0.2625 0.0
C416 C 0.27657 0.7457 0.26585 0.0
C417 C 0.24649 0.73319 0.26655 0.0
C418 C 0.23299 0.72904 0.22907 0.0
C419 C 0.20484 0.71443 0.22936 0.0
C420 C 0.19026 0.70396 0.26708 0.0
C421 C 0.20326 0.70744 0.3044 0.0
C422 C 0.23138 0.72253 0.30428 0.0
H423 H 0.45243 0.25812 0.78722 0.0
H424 H 0.46795 0.27309 0.65529 0.0
H425 H 0.50084 0.3373 0.73334 0.0
H426 H 0.42186 0.22596 0.73779 0.0
H427 H 0.43009 0.23167 0.68369 0.0
H428 H 0.45047 0.2164 0.78637 0.0
H429 H 0.47078 0.16554 0.73358 0.0
H430 H 0.45119 0.21159 0.65367 0.0
C431 C 0.46265 0.27183 0.76066 0.0
C432 C 0.478 0.299 0.76588 0.0
C433 C 0.4591 0.26227 0.72087 0.0
C434 C 0.47148 0.28013 0.68615 0.0
C435 C 0.48709 0.30716 0.69094 0.0
C436 C 0.4904 0.31632 0.73063 0.0
C437 C 0.43884 0.23369 0.71472 0.0
C438 C 0.45055 0.21683 0.71937 0.0
C439 C 0.45434 0.20902 0.75926 0.0
C440 C 0.46129 0.19028 0.76431 0.0
C441 C 0.46519 0.17991 0.72943 0.0
C442 C 0.46151 0.18728 0.68949 0.0
C443 C 0.45468 0.20621 0.68441 0.0
H444 H 0.06131 0.46022 0.07702 0.0
H445 H 0.1015 0.54113 0.02817 0.0
H446 H 0.14475 0.54896 0.05245 0.0
H447 H 0.09655 0.47464 0.16999 0.0
H448 H 0.09753 0.44534 0.17329 0.0
H449 H 0.07077 0.44548 0.14722 0.0
H450 H 0.0824 0.43055 0.0812 0.0
H451 H 0.10947 0.43073 0.107 0.0
H452 H 0.11595 0.44971 0.05853 0.0
H453 H 0.18298 0.54865 0.08595 0.0
H454 H 0.21199 0.54183 0.13282 0.0
H455 H 0.14645 0.46174 0.16304 0.0
C456 C 0.07927 0.47954 0.07146 0.0
C457 C 0.0782 0.50015 0.05097 0.0
C458 C 0.10206 0.52513 0.04383 0.0
C459 C 0.12666 0.5297 0.05733 0.0
C460 C 0.12703 0.50906 0.07802 0.0
C461 C 0.10389 0.48455 0.08547 0.0
C462 C 0.10923 0.4665 0.11198 0.0
C463 C 0.09254 0.45747 0.15305 0.0
C464 C 0.10395 0.44298 0.08824 0.0
C465 C 0.13885 0.4848 0.11891 0.0
C466 C 0.14889 0.50909 0.09835 0.0
C467 C 0.17543 0.52962 0.10182 0.0
C468 C 0.19185 0.52551 0.12822 0.0
C469 C 0.18154 0.5012 0.15121 0.0
C470 C 0.15493 0.48043 0.14544 0.0
H471 H 0.58667 0.09632 0.57026 0.0
H472 H 0.61836 0.04782 0.54899 0.0
H473 H 0.66058 0.07974 0.58171 0.0
H474 H 0.65114 0.1609 0.55457 0.0
H475 H 0.64278 0.17473 0.59534 0.0
H476 H 0.61662 0.14977 0.56585 0.0
H477 H 0.59289 0.12132 0.63365 0.0
H478 H 0.61883 0.14619 0.66328 0.0
H479 H 0.61129 0.11308 0.66882 0.0
H480 H 0.69661 0.11392 0.62418 0.0
H481 H 0.72335 0.14728 0.67402 0.0
H482 H 0.66901 0.1745 0.6659 0.0
C483 C 0.60284 0.09288 0.57178 0.0
C484 C 0.59969 0.06996 0.55696 0.0
C485 C 0.62077 0.06551 0.55999 0.0
C486 C 0.64474 0.08353 0.57836 0.0
C487 C 0.64725 0.10593 0.59319 0.0
C488 C 0.62689 0.11071 0.58994 0.0
C489 C 0.63372 0.1351 0.61127 0.0
C490 C 0.63622 0.15639 0.57988 0.0
C491 C 0.61296 0.12852 0.64633 0.0
C492 C 0.66073 0.14289 0.62815 0.0
C493 C 0.66831 0.12596 0.61702 0.0
C494 C 0.69122 0.12767 0.63224 0.0
C495 C 0.70635 0.14669 0.66036 0.0
C496 C 0.69861 0.16384 0.6727 0.0
C497 C 0.67589 0.16227 0.65561 0.0
H498 H 0.55122 0.61672 0.11126 0.0
H499 H 0.48278 0.59783 0.03712 0.0
H500 H 0.47916 0.63185 0.06929 0.0
H501 H 0.52595 0.62512 0.20268 0.0
H502 H 0.5576 0.65195 0.21862 0.0
H503 H 0.5568 0.62833 0.1863 0.0
H504 H 0.58853 0.66576 0.13201 0.0
H505 H 0.58937 0.68952 0.16421 0.0
H506 H 0.57942 0.6881 0.11131 0.0
H507 H 0.47952 0.66397 0.1153 0.0
H508 H 0.48345 0.69118 0.17181 0.0
H509 H 0.55331 0.69142 0.21387 0.0
C510 C 0.53567 0.61995 0.10145 0.0
C511 C 0.51743 0.60472 0.07136 0.0
C512 C 0.49733 0.60956 0.05946 0.0
C513 C 0.49505 0.62882 0.07766 0.0
C514 C 0.51318 0.64329 0.10748 0.0
C515 C 0.53321 0.63922 0.11914 0.0
C516 C 0.54903 0.65628 0.15379 0.0
C517 C 0.54722 0.63941 0.19263 0.0
C518 C 0.57832 0.67609 0.13946 0.0
C519 C 0.53416 0.66989 0.16076 0.0
C520 C 0.51372 0.66231 0.13349 0.0
C521 C 0.49584 0.67052 0.13624 0.0
C522 C 0.49843 0.68627 0.16839 0.0
C523 C 0.51883 0.69379 0.1975 0.0
C524 C 0.53741 0.68607 0.19245 0.0
H525 H 0.89897 0.48679 0.61424 0.0
H526 H 0.92096 0.55053 0.522 0.0
H527 H 0.88722 0.55745 0.55341 0.0
H528 H 0.82591 0.46266 0.62389 0.0
H529 H 0.82482 0.45525 0.67888 0.0
H530 H 0.8475 0.45268 0.64511 0.0
H531 H 0.88739 0.48439 0.68881 0.0
H532 H 0.86494 0.48703 0.72263 0.0
H533 H 0.89317 0.51619 0.69727 0.0
H534 H 0.85715 0.5623 0.60195 0.0
H535 H 0.83353 0.56458 0.6628 0.0
H536 H 0.8284 0.49552 0.72075 0.0
C537 C 0.89629 0.50188 0.60023 0.0
C538 C 0.91251 0.51815 0.56576 0.0
C539 C 0.9085 0.53768 0.54817 0.0
C540 C 0.88939 0.54173 0.56578 0.0
C541 C 0.87413 0.52572 0.60044 0.0
C542 C 0.87715 0.50596 0.61714 0.0
C543 C 0.86006 0.49297 0.65647 0.0
C544 C 0.83828 0.46418 0.65072 0.0
C545 C 0.87743 0.49531 0.69345 0.0
C546 C 0.84803 0.50943 0.66056 0.0
C547 C 0.85606 0.528 0.62769 0.0
C548 C 0.8501 0.54739 0.62728 0.0
C549 C 0.83646 0.54843 0.66197 0.0
C550 C 0.82897 0.53019 0.69667 0.0
C551 C 0.83383 0.50978 0.69481 0.0
H552 H 0.44404 0.92741 0.0888 0.0
H553 H 0.39028 0.94495 0.02622 0.0
H554 H 0.35126 0.9051 0.06128 0.0
H555 H 0.40017 0.85487 0.09013 0.0
H556 H 0.40986 0.85036 0.14111 0.0
H557 H 0.43323 0.8782 0.10701 0.0
H558 H 0.43907 0.90971 0.16284 0.0
H559 H 0.41605 0.88211 0.19728 0.0
H560 H 0.40989 0.90777 0.18453 0.0
H561 H 0.31844 0.86534 0.10785 0.0
H562 H 0.29513 0.83132 0.16585 0.0
H563 H 0.37057 0.84072 0.19889 0.0
C564 C 0.42396 0.92241 0.08192 0.0
C565 C 0.4199 0.9386 0.05407 0.0
C566 C 0.39356 0.93219 0.04659 0.0
C567 C 0.37137 0.90966 0.06637 0.0
C568 C 0.37596 0.89392 0.09368 0.0
C569 C 0.40165 0.9001 0.10154 0.0
C570 C 0.40138 0.88138 0.13486 0.0
C571 C 0.41178 0.86525 0.11721 0.0
C572 C 0.41753 0.89613 0.17207 0.0
C573 C 0.37164 0.86436 0.14573 0.0
C574 C 0.35719 0.87146 0.12104 0.0
C575 C 0.32949 0.85935 0.12696 0.0
C576 C 0.31637 0.84001 0.15971 0.0
C577 C 0.3311 0.83335 0.18616 0.0
C578 C 0.3589 0.84526 0.17846 0.0
H579 H 0.46017 0.39454 0.53773 0.0
H580 H 0.54307 0.45647 0.5499 0.0
H581 H 0.55237 0.42427 0.58284 0.0
H582 H 0.45194 0.36389 0.63362 0.0
H583 H 0.43006 0.33085 0.61859 0.0
H584 H 0.43147 0.35766 0.58922 0.0
H585 H 0.44332 0.3436 0.52243 0.0
H586 H 0.44209 0.31672 0.55178 0.0
H587 H 0.4718 0.34022 0.52113 0.0
H588 H 0.55066 0.38717 0.62395 0.0
H589 H 0.53789 0.34869 0.67207 0.0
H590 H 0.45619 0.3105 0.63227 0.0
C591 C 0.4804 0.40098 0.54628 0.0
C592 C 0.50106 0.42764 0.54116 0.0
C593 C 0.5272 0.4359 0.55338 0.0
C594 C 0.53261 0.41777 0.57187 0.0
C595 C 0.51165 0.39152 0.5774 0.0
C596 C 0.48607 0.38313 0.56478 0.0
C597 C 0.46639 0.35464 0.57869 0.0
C598 C 0.44365 0.3516 0.6067 0.0
C599 C 0.45525 0.3378 0.54127 0.0
C600 C 0.48458 0.34856 0.60269 0.0
C601 C 0.51072 0.36994 0.60096 0.0
C602 C 0.53046 0.37006 0.62462 0.0
C603 C 0.52309 0.34815 0.65175 0.0
C604 C 0.49626 0.3265 0.65494 0.0
C605 C 0.47704 0.3264 0.6291 0.0
H606 H 0.49626 0.8925 0.45438 0.0
H607 H 0.58157 0.95058 0.44698 0.0
H608 H 0.58969 0.91879 0.41631 0.0
H609 H 0.5001 0.83269 0.47306 0.0
H610 H 0.4725 0.81388 0.44012 0.0
H611 H 0.47379 0.83922 0.46878 0.0
H612 H 0.47002 0.86153 0.40067 0.0
H613 H 0.46849 0.83622 0.37202 0.0
H614 H 0.49374 0.87012 0.35825 0.0
H615 H 0.58803 0.88363 0.37739 0.0
H616 H 0.57644 0.84913 0.32902 0.0
H617 H 0.49228 0.81354 0.36092 0.0
C618 C 0.51669 0.89811 0.44758 0.0
C619 C 0.53837 0.92376 0.45358 0.0
C620 C 0.56477 0.9309 0.44288 0.0
C621 C 0.56954 0.91292 0.42573 0.0
C622 C 0.54769 0.88789 0.41938 0.0
C623 C 0.52174 0.88048 0.4299 0.0
C624 C 0.50157 0.8538 0.41475 0.0
C625 C 0.48608 0.83371 0.45137 0.0
C626 C 0.48234 0.85554 0.38464 0.0
C627 C 0.52013 0.84778 0.39274 0.0
C628 C 0.5467 0.86746 0.39654 0.0
C629 C 0.56738 0.86775 0.37513 0.0
C630 C 0.56069 0.84802 0.34796 0.0
C631 C 0.53359 0.8283 0.34254 0.0
C632 C 0.51317 0.82775 0.36613 0.0
H633 H 0.5794 0.49512 0.93231 0.0
H634 H 0.62508 0.56217 0.00542 0.0
H635 H 0.66738 0.56839 0.97745 0.0
H636 H 0.62611 0.4711 0.93808 0.0
H637 H 0.62048 0.46192 0.88527 0.0
H638 H 0.59415 0.4604 0.91597 0.0
H639 H 0.59035 0.49044 0.86003 0.0
H640 H 0.61661 0.49212 0.82917 0.0
H641 H 0.61974 0.52188 0.844 0.0
H642 H 0.70405 0.57102 0.9338 0.0
H643 H 0.73202 0.57053 0.87774 0.0
H644 H 0.66251 0.50013 0.83537 0.0
C645 C 0.59838 0.5106 0.9432 0.0
C646 C 0.5993 0.52799 0.9713 0.0
C647 C 0.62425 0.5485 0.98432 0.0
C648 C 0.64825 0.55209 0.96866 0.0
C649 C 0.64678 0.53484 0.94033 0.0
C650 C 0.62244 0.51436 0.92796 0.0
C651 C 0.62624 0.50016 0.89424 0.0
C652 C 0.61615 0.47171 0.90931 0.0
C653 C 0.61243 0.50124 0.85453 0.0
C654 C 0.65647 0.51648 0.88835 0.0
C655 C 0.668 0.53618 0.91554 0.0
C656 C 0.69535 0.55529 0.91303 0.0
C657 C 0.71116 0.55474 0.88116 0.0
C658 C 0.69958 0.53522 0.85209 0.0
C659 C 0.67204 0.51534 0.85699 0.0
H660 H 0.09156 0.57391 0.42056 0.0
H661 H 0.0721 0.61893 0.49555 0.0
H662 H 0.11258 0.66012 0.46642 0.0
H663 H 0.16528 0.61646 0.42259 0.0
H664 H 0.16964 0.61198 0.3692 0.0
H665 H 0.14137 0.58626 0.40017 0.0
H666 H 0.10899 0.58604 0.3461 0.0
H667 H 0.13708 0.61161 0.31494 0.0
H668 H 0.1108 0.61616 0.33151 0.0
H669 H 0.15315 0.69651 0.42401 0.0
H670 H 0.18815 0.72453 0.36927 0.0
H671 H 0.17983 0.65535 0.3212 0.0
C672 C 0.09625 0.59247 0.43141 0.0
C673 C 0.07922 0.59342 0.46083 0.0
C674 C 0.08536 0.61795 0.47365 0.0
C675 C 0.10825 0.64135 0.45727 0.0
C676 C 0.12463 0.6398 0.42797 0.0
C677 C 0.1188 0.61593 0.41509 0.0
C678 C 0.13794 0.61953 0.38044 0.0
C679 C 0.15454 0.60786 0.39392 0.0
C680 C 0.1228 0.60764 0.34092 0.0
C681 C 0.15518 0.64915 0.37516 0.0
C682 C 0.14753 0.66059 0.40322 0.0
C683 C 0.15959 0.68777 0.40238 0.0
C684 C 0.1795 0.70355 0.37145 0.0
C685 C 0.18688 0.692 0.34188 0.0
C686 C 0.1749 0.66458 0.34428 0.0
H687 H 0.44987 0.075 0.90435 0.0
H688 H 0.51778 0.13348 0.96971 0.0
H689 H 0.51267 0.16823 0.93607 0.0
H690 H 0.46738 0.1104 0.81151 0.0
H691 H 0.43382 0.09941 0.79636 0.0
H692 H 0.43947 0.07901 0.83161 0.0
H693 H 0.4059 0.07739 0.88536 0.0
H694 H 0.40016 0.0979 0.85011 0.0
H695 H 0.41073 0.10756 0.90177 0.0
H696 H 0.50417 0.19699 0.88778 0.0
H697 H 0.4947 0.2169 0.82643 0.0
H698 H 0.43268 0.13948 0.79313 0.0
C699 C 0.46301 0.095 0.91273 0.0
C700 C 0.48399 0.10158 0.93994 0.0
C701 C 0.5015 0.12808 0.94899 0.0
C702 C 0.49862 0.14789 0.93029 0.0
C703 C 0.47809 0.14083 0.90272 0.0
C704 C 0.46055 0.11496 0.89406 0.0
C705 C 0.44249 0.11274 0.85942 0.0
C706 C 0.44603 0.09964 0.82257 0.0
C707 C 0.41307 0.09803 0.87512 0.0
C708 C 0.45329 0.14142 0.84876 0.0
C709 C 0.47342 0.15739 0.87457 0.0
C710 C 0.48805 0.18469 0.86794 0.0
C711 C 0.48253 0.19586 0.83323 0.0
C712 C 0.46288 0.17963 0.80559 0.0
C713 C 0.44754 0.15223 0.81434 0.0
H714 H 0.38715 0.50407 0.43331 0.0
H715 H 0.38104 0.43176 0.40457 0.0
H716 H 0.34214 0.42034 0.36288 0.0
H717 H 0.31466 0.48091 0.42866 0.0
H718 H 0.32226 0.51138 0.40264 0.0
H719 H 0.34529 0.5111 0.43878 0.0
H720 H 0.38356 0.53408 0.38225 0.0
H721 H 0.36077 0.53464 0.34628 0.0
H722 H 0.37895 0.51961 0.33331 0.0
H723 H 0.3087 0.41958 0.31567 0.0
H724 H 0.28678 0.43166 0.26219 0.0
H725 H 0.31694 0.50602 0.31609 0.0
C726 C 0.37763 0.48566 0.41874 0.0
C727 C 0.38745 0.46883 0.42294 0.0
C728 C 0.37382 0.44483 0.40327 0.0
C729 C 0.35159 0.43814 0.37919 0.0
C730 C 0.34314 0.45561 0.37467 0.0
C731 C 0.35584 0.47897 0.39373 0.0
C732 C 0.34562 0.49618 0.37884 0.0
C733 C 0.33109 0.50011 0.41436 0.0
C734 C 0.36859 0.52267 0.35898 0.0
C735 C 0.32611 0.47937 0.34694 0.0
C736 C 0.32437 0.45568 0.34598 0.0
C737 C 0.30954 0.43785 0.31662 0.0
C738 C 0.29715 0.44486 0.28637 0.0
C739 C 0.29998 0.46965 0.28527 0.0
C740 C 0.31379 0.48664 0.31693 0.0
H741 H 0.93429 0.3949 0.90141 0.0
H742 H 0.88191 0.40331 0.98402 0.0
H743 H 0.84242 0.36589 0.95408 0.0
H744 H 0.89647 0.38241 0.81456 0.0
H745 H 0.9029 0.35882 0.79541 0.0
H746 H 0.92681 0.3837 0.82728 0.0
H747 H 0.92413 0.34781 0.87859 0.0
H748 H 0.90009 0.32276 0.8468 0.0
H749 H 0.89203 0.322 0.90084 0.0
H750 H 0.80874 0.33194 0.90788 0.0
H751 H 0.78431 0.30471 0.85016 0.0
H752 H 0.85853 0.31628 0.80095 0.0
C753 C 0.91452 0.38857 0.91368 0.0
C754 C 0.91119 0.40195 0.94517 0.0
C755 C 0.88497 0.3931 0.96035 0.0
C756 C 0.86241 0.37189 0.94347 0.0
C757 C 0.86638 0.35943 0.91188 0.0
C758 C 0.89183 0.36729 0.89748 0.0
C759 C 0.89072 0.35193 0.86135 0.0
C760 C 0.90506 0.37031 0.82237 0.0
C761 C 0.90244 0.33512 0.87259 0.0
C762 C 0.86073 0.33499 0.85651 0.0
C763 C 0.84695 0.33937 0.88612 0.0
C764 C 0.81926 0.32788 0.88513 0.0
C765 C 0.80547 0.31224 0.85232 0.0
C766 C 0.8194 0.30824 0.82086 0.0
C767 C 0.84722 0.31898 0.82428 0.0
H768 H 0.91841 0.49733 0.92577 0.0
H769 H 0.95339 0.56873 0.99001 0.0
H770 H 0.91932 0.57693 0.96175 0.0
H771 H 0.90534 0.52159 0.83432 0.0
H772 H 0.87414 0.49168 0.82528 0.0
H773 H 0.8995 0.4904 0.85389 0.0
H774 H 0.86534 0.4647 0.91534 0.0
H775 H 0.83984 0.46597 0.88693 0.0
H776 H 0.84784 0.47827 0.93779 0.0
H777 H 0.88425 0.57931 0.92056 0.0
H778 H 0.85221 0.57643 0.86904 0.0
H779 H 0.83836 0.50189 0.83494 0.0
C780 C 0.91849 0.51442 0.9343 0.0
C781 C 0.93817 0.53238 0.96012 0.0
C782 C 0.93818 0.55476 0.97042 0.0
C783 C 0.91893 0.55947 0.95463 0.0
C784 C 0.89975 0.54145 0.92892 0.0
C785 C 0.89934 0.5193 0.91899 0.0
C786 C 0.87773 0.50384 0.88879 0.0
C787 C 0.88991 0.50177 0.84818 0.0
C788 C 0.85642 0.47658 0.9084 0.0
C789 C 0.8665 0.52109 0.88232 0.0
C790 C 0.87928 0.54259 0.90593 0.0
C791 C 0.87375 0.56229 0.90252 0.0
C792 C 0.85529 0.56037 0.87334 0.0
C793 C 0.84258 0.53889 0.84787 0.0
C794 C 0.84771 0.51863 0.85374 0.0
H795 H 0.4063 0.94471 0.41993 0.0
H796 H 0.4466 0.90898 0.47604 0.0
H797 H 0.4131 0.86656 0.4482 0.0
H798 H 0.33726 0.88706 0.4315 0.0
H799 H 0.3282 0.89402 0.3815 0.0
H800 H 0.35318 0.92048 0.41023 0.0
H801 H 0.38722 0.93656 0.3479 0.0
H802 H 0.36227 0.91039 0.31892 0.0
H803 H 0.39425 0.91397 0.32626 0.0
H804 H 0.37726 0.82908 0.40955 0.0
H805 H 0.34514 0.80111 0.35818 0.0
H806 H 0.32904 0.86172 0.32569 0.0
C807 C 0.40788 0.92785 0.42647 0.0
C808 C 0.42898 0.92996 0.44985 0.0
C809 C 0.43048 0.90759 0.45812 0.0
C810 C 0.41151 0.88346 0.44261 0.0
C811 C 0.39112 0.88207 0.41901 0.0
C812 C 0.38932 0.90374 0.41076 0.0
C813 C 0.36713 0.89778 0.38138 0.0
C814 C 0.34514 0.89996 0.40242 0.0
C815 C 0.3784 0.91573 0.34124 0.0
C816 C 0.35712 0.86957 0.37359 0.0
C817 C 0.37084 0.86066 0.39618 0.0
C818 C 0.36614 0.83572 0.39213 0.0
C819 C 0.34769 0.81985 0.36313 0.0
C820 C 0.33444 0.82915 0.33823 0.0
C821 C 0.33868 0.85401 0.34462 0.0
H822 H 0.52499 0.41974 0.90089 0.0
H823 H 0.44773 0.37471 0.96659 0.0
H824 H 0.43842 0.33485 0.93358 0.0
H825 H 0.5049 0.39198 0.80773 0.0
H826 H 0.53454 0.39174 0.79569 0.0
H827 H 0.53652 0.41553 0.82881 0.0
H828 H 0.55638 0.39999 0.88616 0.0
H829 H 0.5545 0.37607 0.85315 0.0
H830 H 0.53854 0.36583 0.90417 0.0
H831 H 0.43466 0.30221 0.88449 0.0
H832 H 0.43719 0.27946 0.82566 0.0
H833 H 0.51894 0.34434 0.79704 0.0
C834 C 0.50635 0.40133 0.90891 0.0
C835 C 0.48705 0.40019 0.93622 0.0
C836 C 0.46286 0.37586 0.94601 0.0
C837 C 0.45743 0.35317 0.92742 0.0
C838 C 0.47667 0.35505 0.89987 0.0
C839 C 0.50085 0.37845 0.8912 0.0
C840 C 0.51742 0.37574 0.85854 0.0
C841 C 0.52369 0.39487 0.82045 0.0
C842 C 0.54324 0.37963 0.8766 0.0
C843 C 0.49824 0.34752 0.8486 0.0
C844 C 0.47493 0.33582 0.87296 0.0
C845 C 0.45312 0.31089 0.86602 0.0
C846 C 0.45485 0.29797 0.83255 0.0
C847 C 0.4783 0.30993 0.80638 0.0
C848 C 0.5006 0.33457 0.81602 0.0
H849 H 0.07109 0.45716 0.39632 0.0
H850 H 0.12464 0.52165 0.47028 0.0
H851 H 0.16344 0.52347 0.43794 0.0
H852 H 0.11219 0.42677 0.39278 0.0
H853 H 0.10406 0.41883 0.33979 0.0
H854 H 0.08027 0.41928 0.37415 0.0
H855 H 0.07823 0.45245 0.32246 0.0
H856 H 0.10184 0.45201 0.28804 0.0
H857 H 0.10886 0.48269 0.30584 0.0
H858 H 0.19629 0.5235 0.38964 0.0
H859 H 0.22034 0.52252 0.32838 0.0
H860 H 0.14597 0.45653 0.28738 0.0
C861 C 0.09096 0.47133 0.40628 0.0
C862 C 0.09479 0.48912 0.43608 0.0
C863 C 0.12113 0.50745 0.44814 0.0
C864 C 0.14332 0.50866 0.42991 0.0
C865 C 0.13887 0.49119 0.4 0.0
C866 C 0.11331 0.47273 0.38847 0.0
C867 C 0.11409 0.45816 0.35252 0.0
C868 C 0.10193 0.42903 0.36561 0.0
C869 C 0.09993 0.46155 0.31502 0.0
C870 C 0.14406 0.47226 0.34421 0.0
C871 C 0.15803 0.49093 0.37238 0.0
C872 C 0.18567 0.50848 0.36805 0.0
C873 C 0.19924 0.50762 0.33316 0.0
C874 C 0.18514 0.48937 0.30294 0.0
C875 C 0.15739 0.47073 0.30983 0.0
H876 H 0.59476 0.10133 0.94971 0.0
H877 H 0.61391 0.04161 0.95732 0.0
H878 H 0.6575 0.07247 0.92001 0.0
H879 H 0.6167 0.12277 0.85029 0.0
H880 H 0.62979 0.157 0.8559 0.0
H881 H 0.6034 0.1325 0.89066 0.0
H882 H 0.63234 0.15459 0.95347 0.0
H883 H 0.65894 0.17931 0.91878 0.0
H884 H 0.66549 0.16024 0.95591 0.0
H885 H 0.69451 0.10674 0.87156 0.0
H886 H 0.72117 0.14083 0.81539 0.0
H887 H 0.67814 0.17854 0.84013 0.0
C888 C 0.60875 0.09528 0.94502 0.0
C889 C 0.60158 0.06951 0.95711 0.0
C890 C 0.61957 0.06156 0.94902 0.0
C891 C 0.64428 0.07896 0.92792 0.0
C892 C 0.65059 0.10418 0.91542 0.0
C893 C 0.63337 0.11236 0.924 0.0
C894 C 0.64302 0.13903 0.90269 0.0
C895 C 0.62199 0.13772 0.87313 0.0
C896 C 0.65039 0.15951 0.93463 0.0
C897 C 0.66771 0.14413 0.87919 0.0
C898 C 0.67204 0.12403 0.88747 0.0
C899 C 0.69177 0.12292 0.86572 0.0
C900 C 0.70684 0.14235 0.83393 0.0
C901 C 0.70209 0.16258 0.82418 0.0
C902 C 0.68288 0.16387 0.84805 0.0
H903 H 0.56126 0.61965 0.44244 0.0
H904 H 0.47833 0.57403 0.48748 0.0
H905 H 0.47233 0.60949 0.46203 0.0
H906 H 0.57478 0.6874 0.45022 0.0
H907 H 0.59266 0.6988 0.40067 0.0
H908 H 0.59325 0.67363 0.43231 0.0
H909 H 0.57563 0.64309 0.37158 0.0
H910 H 0.5751 0.66813 0.33981 0.0
H911 H 0.54504 0.63598 0.34798 0.0
H912 H 0.47303 0.64653 0.42513 0.0
H913 H 0.47781 0.67862 0.3699 0.0
H914 H 0.55816 0.69795 0.33949 0.0
C915 C 0.54208 0.61752 0.44774 0.0
C916 C 0.52048 0.59436 0.46786 0.0
C917 C 0.49542 0.5919 0.47329 0.0
C918 C 0.4918 0.61198 0.45892 0.0
C919 C 0.5132 0.63421 0.4381 0.0
C920 C 0.53773 0.63692 0.43172 0.0
C921 C 0.55555 0.66012 0.40135 0.0
C922 C 0.58054 0.68124 0.42241 0.0
C923 C 0.56326 0.65129 0.36292 0.0
C924 C 0.53686 0.66942 0.39077 0.0
C925 C 0.51294 0.65478 0.41356 0.0
C926 C 0.49181 0.65843 0.40751 0.0
C927 C 0.49477 0.67683 0.37622 0.0
C928 C 0.51845 0.69094 0.35078 0.0
C929 C 0.54002 0.68768 0.35898 0.0
H930 H 0.45322 0.06509 0.598 0.0
H931 H 0.51269 0.11859 0.50348 0.0
H932 H 0.50802 0.15433 0.526 0.0
H933 H 0.41136 0.09327 0.59482 0.0
H934 H 0.40519 0.08833 0.65017 0.0
H935 H 0.41064 0.06631 0.62294 0.0
H936 H 0.44946 0.07565 0.67097 0.0
H937 H 0.44404 0.09755 0.69837 0.0
H938 H 0.47669 0.10905 0.67566 0.0
H939 H 0.5002 0.18556 0.56428 0.0
H940 H 0.49104 0.20888 0.61605 0.0
H941 H 0.4372 0.13469 0.68483 0.0
C942 C 0.46515 0.08424 0.58173 0.0
C943 C 0.48327 0.0889 0.54882 0.0
C944 C 0.49831 0.11431 0.5283 0.0
C945 C 0.49586 0.13481 0.54097 0.0
C946 C 0.47816 0.1296 0.57406 0.0
C947 C 0.46302 0.10486 0.59403 0.0
C948 C 0.44701 0.10467 0.63073 0.0
C949 C 0.41675 0.0871 0.62425 0.0
C950 C 0.45478 0.09624 0.67131 0.0
C951 C 0.45608 0.1333 0.62911 0.0
C952 C 0.47377 0.14742 0.59595 0.0
C953 C 0.48607 0.17461 0.59 0.0
C954 C 0.48069 0.1877 0.61935 0.0
C955 C 0.46344 0.17357 0.6543 0.0
C956 C 0.45045 0.14598 0.65831 0.0
H957 H 0.3903 0.45174 0.0511 0.0
H958 H 0.44449 0.53449 0.01667 0.0
H959 H 0.41035 0.54319 0.04058 0.0
H960 H 0.32604 0.44737 0.02973 0.0
H961 H 0.30923 0.42541 0.0749 0.0
H962 H 0.3357 0.42498 0.04794 0.0
H963 H 0.36118 0.43295 0.11612 0.0
H964 H 0.33476 0.4332 0.14322 0.0
H965 H 0.36882 0.46077 0.14457 0.0
H966 H 0.37298 0.54362 0.07609 0.0
H967 H 0.33752 0.53662 0.1254 0.0
H968 H 0.30779 0.45361 0.13882 0.0
C969 C 0.39469 0.47159 0.0481 0.0
C970 C 0.41988 0.49251 0.03228 0.0
C971 C 0.42515 0.51826 0.02865 0.0
C972 C 0.40587 0.52332 0.04197 0.0
C973 C 0.38141 0.50236 0.05865 0.0
C974 C 0.3758 0.477 0.06187 0.0
C975 C 0.34954 0.45855 0.0857 0.0
C976 C 0.3289 0.43785 0.05789 0.0
C977 C 0.35384 0.44562 0.12471 0.0
C978 C 0.34171 0.47763 0.0967 0.0
C979 C 0.36001 0.50269 0.07996 0.0
C980 C 0.35823 0.52401 0.08871 0.0
C981 C 0.33785 0.5198 0.11656 0.0
C982 C 0.31973 0.49453 0.13573 0.0
C983 C 0.3212 0.4731 0.12435 0.0
H984 H 0.91714 0.43306 0.58426 0.0
H985 H 0.93387 0.38721 0.50648 0.0
H986 H 0.8937 0.34634 0.53718 0.0
H987 H 0.89998 0.39143 0.67296 0.0
H988 H 0.87436 0.39626 0.69193 0.0
H989 H 0.90165 0.42156 0.6592 0.0
H990 H 0.86785 0.42125 0.60806 0.0
H991 H 0.84036 0.39582 0.64059 0.0
H992 H 0.84306 0.39095 0.58678 0.0
H993 H 0.85403 0.31037 0.58161 0.0
H994 H 0.82087 0.28287 0.63874 0.0
H995 H 0.83142 0.35274 0.68803 0.0
C996 C 0.91188 0.41439 0.57311 0.0
C997 C 0.92806 0.41309 0.54256 0.0
C998 C 0.92123 0.38844 0.52932 0.0
C999 C 0.89851 0.36522 0.54656 0.0
C1000 C 0.883 0.36711 0.57706 0.0
C1001 C 0.8895 0.39113 0.59026 0.0
C1002 C 0.87148 0.38791 0.62637 0.0
C1003 C 0.88784 0.39999 0.66488 0.0
C1004 C 0.85469 0.39967 0.61473 0.0
C1005 C 0.85418 0.35831 0.63218 0.0
C1006 C 0.86074 0.34656 0.60309 0.0
C1007 C 0.84848 0.31935 0.60417 0.0
C1008 C 0.82961 0.30387 0.6365 0.0
C1009 C 0.8236 0.31576 0.6674 0.0
C1010 C 0.83554 0.34321 0.66444 0.0
H1011 H 0.49411 0.919 0.12325 0.0
H1012 H 0.53446 0.9178 0.012 0.0
H1013 H 0.53584 0.88045 0.04418 0.0
H1014 H 0.53324 0.90871 0.19305 0.0
H1015 H 0.50615 0.88899 0.23064 0.0
H1016 H 0.50558 0.91325 0.19674 0.0
H1017 H 0.45924 0.87767 0.17236 0.0
H1018 H 0.45955 0.85286 0.2053 0.0
H1019 H 0.45496 0.84894 0.15053 0.0
H1020 H 0.53586 0.84511 0.09181 0.0
H1021 H 0.53564 0.81669 0.15068 0.0
H1022 H 0.49663 0.84301 0.22971 0.0
C1023 C 0.50323 0.91091 0.1055 0.0
C1024 C 0.51432 0.92144 0.06517 0.0
C1025 C 0.52562 0.90991 0.04283 0.0
C1026 C 0.52654 0.88873 0.06089 0.0
C1027 C 0.51595 0.87925 0.10117 0.0
C1028 C 0.50447 0.89004 0.12307 0.0
C1029 C 0.49618 0.87778 0.16678 0.0
C1030 C 0.51119 0.89841 0.19866 0.0
C1031 C 0.46566 0.86344 0.17414 0.0
C1032 C 0.50521 0.85872 0.16647 0.0
C1033 C 0.5163 0.8595 0.12834 0.0
C1034 C 0.52702 0.84421 0.12167 0.0
C1035 C 0.52679 0.82813 0.15509 0.0
C1036 C 0.51629 0.8279 0.19454 0.0
C1037 C 0.50492 0.84298 0.19983 0.0
H1038 H 0.58584 0.49483 0.61311 0.0
H1039 H 0.63442 0.56067 0.52437 0.0
H1040 H 0.67552 0.56827 0.55762 0.0
H1041 H 0.62241 0.52276 0.6994 0.0
H1042 H 0.61873 0.49317 0.72255 0.0
H1043 H 0.59374 0.49119 0.68869 0.0
H1044 H 0.60009 0.4612 0.64232 0.0
H1045 H 0.62515 0.46307 0.67618 0.0
H1046 H 0.63306 0.47214 0.62161 0.0
H1047 H 0.71057 0.57226 0.60697 0.0
H1048 H 0.73629 0.57187 0.66662 0.0
H1049 H 0.66498 0.50118 0.71979 0.0
C1050 C 0.60518 0.51062 0.60036 0.0
C1051 C 0.60705 0.52725 0.5663 0.0
C1052 C 0.63263 0.54763 0.55028 0.0
C1053 C 0.65603 0.55206 0.56897 0.0
C1054 C 0.65347 0.5356 0.60311 0.0
C1055 C 0.62865 0.51507 0.61827 0.0
C1056 C 0.63112 0.50112 0.65664 0.0
C1057 C 0.61559 0.50214 0.69401 0.0
C1058 C 0.62181 0.4727 0.6487 0.0
C1059 C 0.6611 0.51767 0.66181 0.0
C1060 C 0.67372 0.53735 0.63051 0.0
C1061 C 0.701 0.55655 0.63109 0.0
C1062 C 0.71554 0.55606 0.66507 0.0
C1063 C 0.70279 0.53646 0.69809 0.0
C1064 C 0.67541 0.51653 0.6953 0.0
H1065 H 0.1223 0.60783 0.07102 0.0
H1066 H 0.06728 0.63432 0.07131 0.0
H1067 H 0.10052 0.67379 0.10616 0.0
H1068 H 0.14267 0.62367 0.17043 0.0
H1069 H 0.17704 0.63367 0.16099 0.0
H1070 H 0.15138 0.61052 0.12901 0.0
H1071 H 0.17744 0.6406 0.06358 0.0
H1072 H 0.20318 0.66398 0.09553 0.0
H1073 H 0.1865 0.67423 0.06015 0.0
H1074 H 0.13634 0.7065 0.14929 0.0
H1075 H 0.17073 0.72846 0.20139 0.0
H1076 H 0.20281 0.68099 0.17453 0.0
C1077 C 0.11776 0.62247 0.07723 0.0
C1078 C 0.09256 0.61846 0.06792 0.0
C1079 C 0.08668 0.63735 0.07784 0.0
C1080 C 0.10548 0.65984 0.0974 0.0
C1081 C 0.13002 0.66307 0.10699 0.0
C1082 C 0.1362 0.64487 0.09733 0.0
C1083 C 0.16238 0.65115 0.1159 0.0
C1084 C 0.15809 0.62841 0.14586 0.0
C1085 C 0.18363 0.6579 0.08174 0.0
C1086 C 0.16945 0.67514 0.13877 0.0
C1087 C 0.15079 0.68199 0.13247 0.0
C1088 C 0.15145 0.70177 0.15363 0.0
C1089 C 0.17109 0.71424 0.18298 0.0
C1090 C 0.18979 0.7069 0.19088 0.0
C1091 C 0.18941 0.68765 0.16768 0.0
loop_
_geom_bond_atom_site_label_1
_geom_bond_atom_site_label_2
_geom_bond_distance
_geom_bond_site_symmetry_2
_ccdc_geom_bond_type
C0 C1 1.431 1_556 S
C0 N4 1.362 1_556 S
C0 C38 1.413 . S
C1 C0 1.431 1_554 S
C1 C2 1.340 . S
C1 H41 0.951 . S
C2 C1 1.340 . S
C2 C3 1.439 . S
C2 H42 0.950 . S
C3 C2 1.439 . S
C3 N4 1.374 . S
C3 C37 1.395 . S
N4 C0 1.362 1_554 S
N4 C3 1.374 . S
N4 Co5 2.008 1_655 S
Co5 N4 2.008 1_455 S
Co5 N6 1.995 . S
Co5 N11 2.008 1_554 S
Co5 N16 1.995 1_554 S
Co5 N21 2.282 . S
Co5 N27 2.282 1_454 S
N6 Co5 1.995 . S
N6 C7 1.376 1_455 S
N6 C10 1.383 . S
C7 N6 1.376 1_655 S
C7 C8 1.446 . S
C7 C37 1.391 . S
C8 C7 1.446 . S
C8 C9 1.339 1_655 S
C8 H43 0.949 . S
C9 C8 1.339 1_455 S
C9 C10 1.439 . S
C9 H44 0.950 . S
C10 N6 1.383 . S
C10 C9 1.439 . S
C10 C39 1.392 . S
N11 Co5 2.008 1_556 S
N11 C12 1.376 1_556 S
N11 C15 1.374 . S
C12 N11 1.376 1_554 S
C12 C13 1.443 1_554 S
C12 C39 1.389 . S
C13 C12 1.443 1_556 S
C13 C14 1.340 . S
C13 H45 0.951 . S
C14 C13 1.340 . S
C14 C15 1.439 . S
C14 H46 0.950 . S
C15 N11 1.374 . S
C15 C14 1.439 . S
C15 C40 1.395 . S
N16 Co5 1.995 1_556 S
N16 C17 1.376 . S
N16 C20 1.383 1_455 S
C17 N16 1.376 . S
C17 C18 1.446 . S
C17 C40 1.391 . S
C18 C17 1.446 . S
C18 C19 1.339 1_455 S
C18 H47 0.949 . S
C19 C18 1.339 1_655 S
C19 C20 1.439 . S
C19 H48 0.950 . S
C20 N16 1.383 1_655 S
C20 C19 1.439 . S
C20 C38 1.392 . S
N21 Co5 2.282 . S
N21 C24 1.332 . S
N21 C26 1.332 . S
C22 C23 1.386 . S
C22 C25 1.388 . S
C23 C22 1.386 . S
C23 C24 1.382 . S
C23 H49 0.950 . S
C24 N21 1.332 . S
C24 C23 1.382 . S
C24 H35 0.952 1_554 S
C25 C22 1.388 . S
C25 C26 1.382 . S
C25 H50 0.950 . S
C26 N21 1.332 . S
C26 C25 1.382 . S
C26 H36 0.948 . S
N27 Co5 2.282 1_656 S
N27 C31 1.332 . S
N27 C32 1.332 . S
C28 C29 1.388 . S
C28 C32 1.382 . S
C28 H51 0.950 . S
C29 C28 1.388 . S
C29 C30 1.386 . S
C30 C29 1.386 . S
C30 C31 1.382 . S
C30 H52 0.950 . S
C31 N27 1.332 . S
C31 C30 1.382 . S
C31 H33 0.952 1_556 S
C32 N27 1.332 . S
C32 C28 1.382 . S
C32 H34 0.948 . S
H33 C31 0.952 1_554 S
H34 C32 0.948 . S
H35 C24 0.952 1_556 S
H36 C26 0.948 . S
C37 C3 1.395 . S
C37 C7 1.391 . S
C38 C0 1.413 . S
C38 C20 1.392 . S
C39 C10 1.392 . S
C39 C12 1.389 . S
C40 C15 1.395 . S
C40 C17 1.391 . S
H41 C1 0.951 . S
H42 C2 0.950 . S
H43 C8 0.949 . S
H44 C9 0.950 . S
H45 C13 0.951 . S
H46 C14 0.950 . S
H47 C18 0.949 . S
H48 C19 0.950 . S
H49 C23 0.950 . S
H50 C25 0.950 . S
H51 C28 0.950 . S
H52 C30 0.950 . S
C53 C54 1.443 . S
C53 N57 1.376 . S
C53 C91 1.389 . S
C54 C53 1.443 . S
C54 C55 1.340 1_545 S
C54 H94 0.951 . S
C55 C54 1.340 1_565 S
C55 C56 1.439 . S
C55 H95 0.950 . S
C56 C55 1.439 . S
C56 N57 1.374 1_565 S
C56 C90 1.395 . S
N57 C53 1.376 . S
N57 C56 1.374 1_545 S
N57 Co58 2.008 . S
Co58 N57 2.008 . S
Co58 N59 1.995 1_545 S
Co58 N64 2.008 . S
Co58 N69 1.995 . S
Co58 N74 2.282 1_545 S
Co58 N80 2.282 . S
N59 Co58 1.995 1_565 S
N59 C60 1.376 . S
N59 C63 1.383 . S
C60 N59 1.376 . S
C60 C61 1.446 . S
C60 C90 1.391 . S
C61 C60 1.446 . S
C61 C62 1.339 . S
C61 H96 0.949 . S
C62 C61 1.339 . S
C62 C63 1.439 . S
C62 H97 0.950 . S
C63 N59 1.383 . S
C63 C62 1.439 . S
C63 C92 1.392 . S
N64 Co58 2.008 . S
N64 C65 1.376 1_545 S
N64 C68 1.374 . S
C65 N64 1.376 1_565 S
C65 C66 1.443 . S
C65 C92 1.389 . S
C66 C65 1.443 . S
C66 C67 1.340 1_565 S
C66 H98 0.951 . S
C67 C66 1.340 1_545 S
C67 C68 1.439 . S
C67 H99 0.950 . S
C68 N64 1.374 . S
C68 C67 1.439 . S
C68 C93 1.395 . S
N69 Co58 1.995 . S
N69 C70 1.376 . S
N69 C73 1.383 . S
C70 N69 1.376 . S
C70 C71 1.446 . S
C70 C93 1.391 . S
C71 C70 1.446 . S
C71 C72 1.339 . S
C71 H100 0.949 . S
C72 C71 1.339 . S
C72 C73 1.439 . S
C72 H101 0.950 . S
C73 N69 1.383 . S
C73 C72 1.439 . S
C73 C91 1.392 . S
N74 Co58 2.282 1_565 S
N74 C77 1.332 . S
N74 C79 1.332 . S
C75 C76 1.386 . S
C75 C78 1.388 . S
C76 C75 1.386 . S
C76 C77 1.382 . S
C76 H102 0.950 . S
C77 N74 1.332 . S
C77 C76 1.382 . S
C77 H88 0.952 1_565 S
C78 C75 1.388 . S
C78 C79 1.382 . S
C78 H103 0.950 . S
C79 N74 1.332 . S
C79 C78 1.382 . S
C79 H89 0.948 . S
N80 Co58 2.282 . S
N80 C84 1.332 . S
N80 C85 1.332 . S
C81 C82 1.388 . S
C81 C85 1.382 . S
C81 H104 0.950 . S
C82 C81 1.388 . S
C82 C83 1.386 . S
C83 C82 1.386 . S
C83 C84 1.382 . S
C83 H105 0.950 . S
C84 N80 1.332 . S
C84 C83 1.382 . S
C84 H86 0.952 . S
C85 N80 1.332 . S
C85 C81 1.382 . S
C85 H87 0.948 . S
H86 C84 0.952 . S
H87 C85 0.948 . S
H88 C77 0.952 1_545 S
H89 C79 0.948 . S
C90 C56 1.395 . S
C90 C60 1.391 . S
C91 C53 1.389 . S
C91 C73 1.392 . S
C92 C63 1.392 . S
C92 C65 1.389 . S
C93 C68 1.395 . S
C93 C70 1.391 . S
H94 C54 0.951 . S
H95 C55 0.950 . S
H96 C61 0.949 . S
H97 C62 0.950 . S
H98 C66 0.951 . S
H99 C67 0.950 . S
H100 C71 0.949 . S
H101 C72 0.950 . S
H102 C76 0.950 . S
H103 C78 0.950 . S
H104 C81 0.950 . S
H105 C83 0.950 . S
C106 C107 1.443 . S
C106 N110 1.376 . S
C106 C144 1.389 . S
C107 C106 1.443 . S
C107 C108 1.340 . S
C107 H147 0.951 . S
C108 C107 1.340 . S
C108 C109 1.439 . S
C108 H148 0.950 . S
C109 C108 1.439 . S
C109 N110 1.374 . S
C109 C143 1.395 . S
N110 C106 1.376 . S
N110 C109 1.374 . S
N110 Co111 2.008 1_556 S
Co111 N110 2.008 1_554 S
Co111 N112 1.995 1_554 S
Co111 N117 2.008 . S
Co111 N122 1.995 . S
Co111 N127 2.282 . S
Co111 N133 2.282 1_554 S
N112 Co111 1.995 1_556 S
N112 C113 1.376 . S
N112 C116 1.383 1_556 S
C113 N112 1.376 . S
C113 C114 1.446 . S
C113 C143 1.391 . S
C114 C113 1.446 . S
C114 C115 1.339 . S
C114 H149 0.949 . S
C115 C114 1.339 . S
C115 C116 1.439 1_556 S
C115 H150 0.950 . S
C116 N112 1.383 1_554 S
C116 C115 1.439 1_554 S
C116 C145 1.392 . S
N117 Co111 2.008 . S
N117 C118 1.376 . S
N117 C121 1.374 . S
C118 N117 1.376 . S
C118 C119 1.443 . S
C118 C145 1.389 . S
C119 C118 1.443 . S
C119 C120 1.340 . S
C119 H151 0.951 . S
C120 C119 1.340 . S
C120 C121 1.439 . S
C120 H152 0.950 . S
C121 N117 1.374 . S
C121 C120 1.439 . S
C121 C146 1.395 . S
N122 Co111 1.995 . S
N122 C123 1.376 . S
N122 C126 1.383 . S
C123 N122 1.376 . S
C123 C124 1.446 . S
C123 C146 1.391 . S
C124 C123 1.446 . S
C124 C125 1.339 . S
C124 H153 0.949 . S
C125 C124 1.339 . S
C125 C126 1.439 . S
C125 H154 0.950 . S
C126 N122 1.383 . S
C126 C125 1.439 . S
C126 C144 1.392 1_554 S
N127 Co111 2.282 . S
N127 C130 1.332 . S
N127 C132 1.332 . S
C128 C129 1.386 . S
C128 C131 1.388 . S
C129 C128 1.386 . S
C129 C130 1.382 . S
C129 H155 0.950 . S
C130 N127 1.332 . S
C130 C129 1.382 . S
C130 H141 0.952 . S
C131 C128 1.388 . S
C131 C132 1.382 . S
C131 H156 0.950 . S
C132 N127 1.332 . S
C132 C131 1.382 . S
C132 H142 0.948 1_554 S
N133 Co111 2.282 1_556 S
N133 C137 1.332 . S
N133 C138 1.332 . S
C134 C135 1.388 . S
C134 C138 1.382 . S
C134 H157 0.950 . S
C135 C134 1.388 . S
C135 C136 1.386 . S
C136 C135 1.386 . S
C136 C137 1.382 . S
C136 H158 0.950 . S
C137 N133 1.332 . S
C137 C136 1.382 . S
C137 H139 0.952 . S
C138 N133 1.332 . S
C138 C134 1.382 . S
C138 H140 0.948 1_556 S
H139 C137 0.952 . S
H140 C138 0.948 1_554 S
H141 C130 0.952 . S
H142 C132 0.948 1_556 S
C143 C109 1.395 . S
C143 C113 1.391 . S
C144 C106 1.389 . S
C144 C126 1.392 1_556 S
C145 C116 1.392 . S
C145 C118 1.389 . S
C146 C121 1.395 . S
C146 C123 1.391 . S
H147 C107 0.951 . S
H148 C108 0.950 . S
H149 C114 0.949 . S
H150 C115 0.950 . S
H151 C119 0.951 . S
H152 C120 0.950 . S
H153 C124 0.949 . S
H154 C125 0.950 . S
H155 C129 0.950 . S
H156 C131 0.950 . S
H157 C134 0.950 . S
H158 C136 0.950 . S
C159 C160 1.443 . S
C159 N163 1.376 . S
C159 C197 1.389 . S
C160 C159 1.443 . S
C160 C161 1.340 . S
C160 H200 0.951 . S
C161 C160 1.340 . S
C161 C162 1.439 . S
C161 H201 0.950 . S
C162 C161 1.439 . S
C162 N163 1.374 . S
C162 C196 1.395 . S
N163 C159 1.376 . S
N163 C162 1.374 . S
N163 Co164 1.981 1_655 S
Co164 N163 1.981 1_455 S
Co164 N165 1.982 . S
Co164 N170 2.036 . S
Co164 N175 2.019 1_455 S
Co164 N180 2.320 . S
Co164 N186 2.245 1_455 S
N165 Co164 1.982 . S
N165 C166 1.376 1_455 S
N165 C169 1.383 . S
C166 N165 1.376 1_655 S
C166 C167 1.446 . S
C166 C196 1.391 . S
C167 C166 1.446 . S
C167 C168 1.339 1_655 S
C167 H202 0.949 . S
C168 C167 1.339 1_455 S
C168 C169 1.439 . S
C168 H203 0.950 . S
C169 N165 1.383 . S
C169 C168 1.439 . S
C169 C198 1.392 . S
N170 Co164 2.036 . S
N170 C171 1.376 . S
N170 C174 1.374 . S
C171 N170 1.376 . S
C171 C172 1.443 . S
C171 C198 1.389 . S
C172 C171 1.443 . S
C172 C173 1.340 . S
C172 H204 0.951 . S
C173 C172 1.340 . S
C173 C174 1.439 . S
C173 H205 0.950 . S
C174 N170 1.374 . S
C174 C173 1.439 . S
C174 C199 1.395 . S
N175 Co164 2.019 1_655 S
N175 C176 1.356 1_655 S
N175 C179 1.395 . S
C176 N175 1.356 1_455 S
C176 C177 1.446 . S
C176 C199 1.391 . S
C177 C176 1.446 . S
C177 C178 1.339 1_455 S
C177 H206 0.949 . S
C178 C177 1.339 1_655 S
C178 C179 1.439 . S
C178 H207 0.950 . S
C179 N175 1.395 . S
C179 C178 1.439 . S
C179 C197 1.392 . S
N180 Co164 2.320 . S
N180 C183 1.332 . S
N180 C185 1.332 . S
C181 C182 1.386 . S
C181 C184 1.388 . S
C182 C181 1.386 . S
C182 C183 1.382 . S
C182 H208 0.950 . S
C183 N180 1.332 . S
C183 C182 1.382 . S
C183 H194 0.952 . S
C184 C181 1.388 . S
C184 C185 1.382 . S
C184 H209 0.950 . S
C185 N180 1.332 . S
C185 C184 1.382 . S
C185 H195 0.948 . S
N186 Co164 2.245 1_655 S
N186 C190 1.332 . S
N186 C191 1.332 . S
C187 C188 1.388 . S
C187 C191 1.382 . S
C187 H210 0.950 . S
C188 C187 1.388 . S
C188 C189 1.386 . S
C189 C188 1.386 . S
C189 C190 1.382 . S
C189 H211 0.950 . S
C190 N186 1.332 . S
C190 C189 1.382 . S
C190 H192 0.952 . S
C191 N186 1.332 . S
C191 C187 1.382 . S
C191 H193 0.948 . S
H192 C190 0.952 . S
H193 C191 0.948 . S
H194 C183 0.952 . S
H195 C185 0.948 . S
C196 C162 1.395 . S
C196 C166 1.391 . S
C197 C159 1.389 . S
C197 C179 1.392 . S
C198 C169 1.392 . S
C198 C171 1.389 . S
C199 C174 1.395 . S
C199 C176 1.391 . S
H200 C160 0.951 . S
H201 C161 0.950 . S
H202 C167 0.949 . S
H203 C168 0.950 . S
H204 C172 0.951 . S
H205 C173 0.950 . S
H206 C177 0.949 . S
H207 C178 0.950 . S
H208 C182 0.950 . S
H209 C184 0.950 . S
H210 C187 0.950 . S
H211 C189 0.950 . S
C212 C213 1.443 . S
C212 N216 1.368 1_565 S
C212 C250 1.389 . S
C213 C212 1.443 . S
C213 C214 1.340 1_565 S
C213 H253 0.951 . S
C214 C213 1.340 1_545 S
C214 C215 1.439 . S
C214 H254 0.950 . S
C215 C214 1.439 . S
C215 N216 1.384 . S
C215 C249 1.395 . S
N216 C212 1.368 1_545 S
N216 C215 1.384 . S
N216 Co217 2.004 . S
Co217 N216 2.004 . S
Co217 N218 1.995 . S
Co217 N223 2.008 1_554 S
Co217 N228 1.995 1_544 S
Co217 N233 2.282 1_554 S
Co217 N239 2.282 1_545 S
N218 Co217 1.995 . S
N218 C219 1.376 . S
N218 C222 1.383 1_554 S
C219 N218 1.376 . S
C219 C220 1.446 . S
C219 C249 1.391 . S
C220 C219 1.446 . S
C220 C221 1.339 . S
C220 H255 0.949 . S
C221 C220 1.339 . S
C221 C222 1.439 1_554 S
C221 H256 0.950 1_554 S
C222 N218 1.383 1_556 S
C222 C221 1.439 1_556 S
C222 C251 1.392 . S
N223 Co217 2.008 1_556 S
N223 C224 1.376 . S
N223 C227 1.374 1_545 S
C224 N223 1.376 . S
C224 C225 1.443 . S
C224 C251 1.389 . S
C225 C224 1.443 . S
C225 C226 1.340 . S
C225 H257 0.951 . S
C226 C225 1.340 . S
C226 C227 1.439 1_545 S
C226 H258 0.950 1_545 S
C227 N223 1.374 1_565 S
C227 C226 1.439 1_565 S
C227 C252 1.395 . S
N228 Co217 1.995 1_566 S
N228 C229 1.376 . S
N228 C232 1.383 1_556 S
C229 N228 1.376 . S
C229 C230 1.446 . S
C229 C252 1.391 . S
C230 C229 1.446 . S
C230 C231 1.339 . S
C230 H259 0.949 . S
C231 C230 1.339 . S
C231 C232 1.439 1_556 S
C231 H260 0.950 1_556 S
C232 N228 1.383 1_554 S
C232 C231 1.439 1_554 S
C232 C250 1.392 . S
N233 Co217 2.282 1_556 S
N233 C236 1.332 . S
N233 C238 1.332 . S
C234 C235 1.386 . S
C234 C237 1.388 . S
C235 C234 1.386 . S
C235 C236 1.382 . S
C235 H261 0.950 . S
C236 N233 1.332 . S
C236 C235 1.382 . S
C236 H247 0.952 . S
C237 C234 1.388 . S
C237 C238 1.382 . S
C237 H262 0.950 . S
C238 N233 1.332 . S
C238 C237 1.382 . S
C238 H248 0.948 1_556 S
N239 Co217 2.282 1_565 S
N239 C243 1.332 . S
N239 C244 1.332 . S
C240 C241 1.388 . S
C240 C244 1.382 . S
C240 H263 0.950 . S
C241 C240 1.388 . S
C241 C242 1.386 . S
C242 C241 1.386 . S
C242 C243 1.382 . S
C242 H264 0.950 . S
C243 N239 1.332 . S
C243 C242 1.382 . S
C243 H245 0.950 1_565 S
C244 N239 1.332 . S
C244 C240 1.382 . S
C244 H246 0.948 1_554 S
H245 C243 0.950 1_545 S
H246 C244 0.948 1_556 S
H247 C236 0.952 . S
H248 C238 0.948 1_554 S
C249 C215 1.395 . S
C249 C219 1.391 . S
C250 C212 1.389 . S
C250 C232 1.392 . S
C251 C222 1.392 . S
C251 C224 1.389 . S
C252 C227 1.395 . S
C252 C229 1.391 . S
H253 C213 0.951 . S
H254 C214 0.950 . S
H255 C220 0.949 . S
H256 C221 0.950 1_556 S
H257 C225 0.951 . S
H258 C226 0.950 1_565 S
H259 C230 0.949 . S
H260 C231 0.950 1_554 S
H261 C235 0.950 . S
H262 C237 0.950 . S
H263 C240 0.950 . S
H264 C242 0.950 . S
C265 C266 1.443 . S
C265 N269 1.376 . S
C265 C303 1.389 . S
C266 C265 1.443 . S
C266 C267 1.340 . S
C266 H306 0.951 . S
C267 C266 1.340 . S
C267 C268 1.439 . S
C267 H307 0.950 . S
C268 C267 1.439 . S
C268 N269 1.374 . S
C268 C302 1.395 . S
N269 C265 1.376 . S
N269 C268 1.374 . S
N269 Co270 2.008 . S
Co270 N269 2.008 . S
Co270 N271 1.995 . S
Co270 N276 2.008 . S
Co270 N281 1.995 . S
Co270 N286 2.282 . S
Co270 N292 2.282 . S
N271 Co270 1.995 . S
N271 C272 1.376 . S
N271 C275 1.383 . S
C272 N271 1.376 . S
C272 C273 1.446 . S
C272 C302 1.391 . S
C273 C272 1.446 . S
C273 C274 1.339 . S
C273 H308 0.949 . S
C274 C273 1.339 . S
C274 C275 1.439 . S
C274 H309 0.950 . S
C275 N271 1.383 . S
C275 C274 1.439 . S
C275 C304 1.392 . S
N276 Co270 2.008 . S
N276 C277 1.376 . S
N276 C280 1.374 . S
C277 N276 1.376 . S
C277 C278 1.443 . S
C277 C304 1.389 . S
C278 C277 1.443 . S
C278 C279 1.340 . S
C278 H310 0.951 . S
C279 C278 1.340 . S
C279 C280 1.439 . S
C279 H311 0.950 . S
C280 N276 1.374 . S
C280 C279 1.439 . S
C280 C305 1.395 . S
N281 Co270 1.995 . S
N281 C282 1.376 . S
N281 C285 1.383 . S
C282 N281 1.376 . S
C282 C283 1.446 . S
C282 C305 1.391 . S
C283 C282 1.446 . S
C283 C284 1.339 . S
C283 H312 0.949 . S
C284 C283 1.339 . S
C284 C285 1.439 . S
C284 H313 0.950 . S
C285 N281 1.383 . S
C285 C284 1.439 . S
C285 C303 1.392 . S
N286 Co270 2.282 . S
N286 C289 1.332 . S
N286 C291 1.332 . S
C287 C288 1.386 . S
C287 C290 1.388 . S
C288 C287 1.386 . S
C288 C289 1.382 . S
C288 H314 0.950 . S
C289 N286 1.332 . S
C289 C288 1.382 . S
C289 H300 0.952 . S
C290 C287 1.388 . S
C290 C291 1.382 . S
C290 H315 0.950 . S
C291 N286 1.332 . S
C291 C290 1.382 . S
C291 H301 0.948 . S
N292 Co270 2.282 . S
N292 C296 1.332 . S
N292 C297 1.332 . S
C293 C294 1.388 . S
C293 C297 1.382 . S
C293 H316 0.950 . S
C294 C293 1.388 . S
C294 C295 1.386 . S
C295 C294 1.386 . S
C295 C296 1.382 . S
C295 H317 0.950 . S
C296 N292 1.332 . S
C296 C295 1.382 . S
C296 H298 0.952 . S
C297 N292 1.332 . S
C297 C293 1.382 . S
C297 H299 0.948 . S
H298 C296 0.952 . S
H299 C297 0.948 . S
H300 C289 0.952 . S
H301 C291 0.948 . S
C302 C268 1.395 . S
C302 C272 1.391 . S
C303 C265 1.389 . S
C303 C285 1.392 . S
C304 C275 1.392 . S
C304 C277 1.389 . S
C305 C280 1.395 . S
C305 C282 1.391 . S
H306 C266 0.951 . S
H307 C267 0.950 . S
H308 C273 0.949 . S
H309 C274 0.950 . S
H310 C278 0.951 . S
H311 C279 0.950 . S
H312 C283 0.949 . S
H313 C284 0.950 . S
H314 C288 0.950 . S
H315 C290 0.950 . S
H316 C293 0.950 . S
H317 C295 0.950 . S
H318 C326 0.930 . S
H319 C329 0.930 . S
H320 C331 0.930 . S
H321 C332 0.970 . S
H322 C332 0.970 . S
H323 C334 0.930 . S
H324 C336 0.930 . S
H325 C338 0.930 . S
C326 H318 0.930 . S
C326 C327 1.382 . S
C326 C328 1.426 . S
C327 C326 1.382 . S
C327 C331 1.389 . S
C328 C326 1.426 . S
C328 C329 1.375 . S
C328 C332 1.532 . S
C329 H319 0.930 . S
C329 C328 1.375 . S
C329 C330 1.416 . S
C330 C329 1.416 . S
C330 C331 1.371 . S
C331 H320 0.930 . S
C331 C327 1.389 . S
C331 C330 1.371 . S
C332 H321 0.970 . S
C332 H322 0.970 . S
C332 C328 1.532 . S
C332 C333 1.499 . S
C333 C332 1.499 . S
C333 C334 1.370 . S
C333 C338 1.415 . S
C334 H323 0.930 . S
C334 C333 1.370 . S
C334 C335 1.407 . S
C335 C334 1.407 . S
C335 C336 1.365 . S
C336 H324 0.930 . S
C336 C335 1.365 . S
C336 C337 1.393 . S
C337 C336 1.393 . S
C337 C338 1.387 . S
C338 H325 0.930 . S
C338 C333 1.415 . S
C338 C337 1.387 . S
H339 C347 0.930 . S
H340 C350 0.930 . S
H341 C352 0.930 . S
H342 C353 0.970 . S
H343 C353 0.970 . S
H344 C355 0.930 . S
H345 C357 0.930 . S
H346 C359 0.930 . S
C347 H339 0.930 . S
C347 C348 1.382 . S
C347 C349 1.426 . S
C348 C347 1.382 . S
C348 C352 1.389 . S
C349 C347 1.426 . S
C349 C350 1.375 . S
C349 C353 1.532 . S
C350 H340 0.930 . S
C350 C349 1.375 . S
C350 C351 1.416 . S
C351 C350 1.416 . S
C351 C352 1.371 . S
C352 H341 0.930 . S
C352 C348 1.389 . S
C352 C351 1.371 . S
C353 H342 0.970 . S
C353 H343 0.970 . S
C353 C349 1.532 . S
C353 C354 1.499 . S
C354 C353 1.499 . S
C354 C355 1.370 . S
C354 C359 1.415 . S
C355 H344 0.930 . S
C355 C354 1.370 . S
C355 C356 1.407 . S
C356 C355 1.407 . S
C356 C357 1.365 . S
C357 H345 0.930 . S
C357 C356 1.365 . S
C357 C358 1.393 . S
C358 C357 1.393 . S
C358 C359 1.387 . S
C359 H346 0.930 . S
C359 C354 1.415 . S
C359 C358 1.387 . S
H360 C368 0.930 . S
H361 C371 0.930 . S
H362 C373 0.930 . S
H363 C374 0.970 . S
H364 C374 0.970 . S
H365 C376 0.930 . S
H366 C378 0.930 . S
H367 C380 0.930 . S
C368 H360 0.930 . S
C368 C369 1.382 . S
C368 C370 1.426 . S
C369 C368 1.382 . S
C369 C373 1.389 . S
C370 C368 1.426 . S
C370 C371 1.375 . S
C370 C374 1.532 . S
C371 H361 0.930 . S
C371 C370 1.375 . S
C371 C372 1.416 . S
C372 C371 1.416 . S
C372 C373 1.371 . S
C373 H362 0.930 . S
C373 C369 1.389 . S
C373 C372 1.371 . S
C374 H363 0.970 . S
C374 H364 0.970 . S
C374 C370 1.532 . S
C374 C375 1.499 . S
C375 C374 1.499 . S
C375 C376 1.370 . S
C375 C380 1.415 . S
C376 H365 0.930 . S
C376 C375 1.370 . S
C376 C377 1.407 . S
C377 C376 1.407 . S
C377 C378 1.365 . S
C378 H366 0.930 . S
C378 C377 1.365 . S
C378 C379 1.393 . S
C379 C378 1.393 . S
C379 C380 1.387 . S
C380 H367 0.930 . S
C380 C375 1.415 . S
C380 C379 1.387 . S
H381 C389 0.930 . S
H382 C392 0.930 . S
H383 C394 0.930 . S
H384 C395 0.970 . S
H385 C395 0.970 . S
H386 C397 0.930 . S
H387 C399 0.930 . S
H388 C401 0.930 . S
C389 H381 0.930 . S
C389 C390 1.382 . S
C389 C391 1.426 . S
C390 C389 1.382 . S
C390 C394 1.389 . S
C391 C389 1.426 . S
C391 C392 1.375 . S
C391 C395 1.532 . S
C392 H382 0.930 . S
C392 C391 1.375 . S
C392 C393 1.416 . S
C393 C392 1.416 . S
C393 C394 1.371 . S
C394 H383 0.930 . S
C394 C390 1.389 . S
C394 C393 1.371 . S
C395 H384 0.970 . S
C395 H385 0.970 . S
C395 C391 1.532 . S
C395 C396 1.499 . S
C396 C395 1.499 . S
C396 C397 1.370 . S
C396 C401 1.415 . S
C397 H386 0.930 . S
C397 C396 1.370 . S
C397 C398 1.407 . S
C398 C397 1.407 . S
C398 C399 1.365 . S
C399 H387 0.930 . S
C399 C398 1.365 . S
C399 C400 1.393 . S
C400 C399 1.393 . S
C400 C401 1.387 . S
C401 H388 0.930 . S
C401 C396 1.415 . S
C401 C400 1.387 . S
H402 C410 0.930 . S
H403 C413 0.930 . S
H404 C415 0.930 . S
H405 C416 0.970 . S
H406 C416 0.970 . S
H407 C418 0.930 . S
H408 C420 0.930 . S
H409 C422 0.930 . S
C410 H402 0.930 . S
C410 C411 1.382 . S
C410 C412 1.426 . S
C411 C410 1.382 . S
C411 C415 1.389 . S
C412 C410 1.426 . S
C412 C413 1.375 . S
C412 C416 1.532 . S
C413 H403 0.930 . S
C413 C412 1.375 . S
C413 C414 1.416 . S
C414 C413 1.416 . S
C414 C415 1.371 . S
C415 H404 0.930 . S
C415 C411 1.389 . S
C415 C414 1.371 . S
C416 H405 0.970 . S
C416 H406 0.970 . S
C416 C412 1.532 . S
C416 C417 1.499 . S
C417 C416 1.499 . S
C417 C418 1.370 . S
C417 C422 1.415 . S
C418 H407 0.930 . S
C418 C417 1.370 . S
C418 C419 1.407 . S
C419 C418 1.407 . S
C419 C420 1.365 . S
C420 H408 0.930 . S
C420 C419 1.365 . S
C420 C421 1.393 . S
C421 C420 1.393 . S
C421 C422 1.387 . S
C422 H409 0.930 . S
C422 C417 1.415 . S
C422 C421 1.387 . S
H423 C431 0.930 . S
H424 C434 0.930 . S
H425 C436 0.930 . S
H426 C437 0.970 . S
H427 C437 0.970 . S
H428 C439 0.930 . S
H429 C441 0.930 . S
H430 C443 0.930 . S
C431 H423 0.930 . S
C431 C432 1.382 . S
C431 C433 1.426 . S
C432 C431 1.382 . S
C432 C436 1.389 . S
C433 C431 1.426 . S
C433 C434 1.375 . S
C433 C437 1.532 . S
C434 H424 0.930 . S
C434 C433 1.375 . S
C434 C435 1.416 . S
C435 C434 1.416 . S
C435 C436 1.371 . S
C436 H425 0.930 . S
C436 C432 1.389 . S
C436 C435 1.371 . S
C437 H426 0.970 . S
C437 H427 0.970 . S
C437 C433 1.532 . S
C437 C438 1.499 . S
C438 C437 1.499 . S
C438 C439 1.370 . S
C438 C443 1.415 . S
C439 H428 0.930 . S
C439 C438 1.370 . S
C439 C440 1.407 . S
C440 C439 1.407 . S
C440 C441 1.365 . S
C441 H429 0.930 . S
C441 C440 1.365 . S
C441 C442 1.393 . S
C442 C441 1.393 . S
C442 C443 1.387 . S
C443 H430 0.930 . S
C443 C438 1.415 . S
C443 C442 1.387 . S
H444 C456 0.930 . S
H445 C458 0.930 . S
H446 C459 0.930 . S
H447 C463 0.959 . S
H448 C463 0.959 . S
H449 C463 0.961 . S
H450 C464 0.960 . S
H451 C464 0.961 . S
H452 C464 0.959 . S
H453 C467 0.929 . S
H454 C468 0.931 . S
H455 C470 0.930 . S
C456 H444 0.930 . S
C456 C457 1.399 . S
C456 C461 1.399 . S
C457 C456 1.399 . S
C457 C458 1.376 . S
C458 H445 0.930 . S
C458 C457 1.376 . S
C458 C459 1.388 . S
C459 H446 0.930 . S
C459 C458 1.388 . S
C459 C460 1.390 . S
C460 C459 1.390 . S
C460 C461 1.394 . S
C460 C466 1.465 . S
C461 C456 1.399 . S
C461 C460 1.394 . S
C461 C462 1.516 . S
C462 C461 1.516 . S
C462 C463 1.502 . S
C462 C464 1.561 . S
C462 C465 1.526 . S
C463 H447 0.959 . S
C463 H448 0.959 . S
C463 H449 0.961 . S
C463 C462 1.502 . S
C464 H450 0.960 . S
C464 H451 0.961 . S
C464 H452 0.959 . S
C464 C462 1.561 . S
C465 C462 1.526 . S
C465 C466 1.396 . S
C465 C470 1.390 . S
C466 C460 1.465 . S
C466 C465 1.396 . S
C466 C467 1.399 . S
C467 H453 0.929 . S
C467 C466 1.399 . S
C467 C468 1.385 . S
C468 H454 0.931 . S
C468 C467 1.385 . S
C468 C469 1.389 . S
C469 C468 1.389 . S
C469 C470 1.387 . S
C470 H455 0.930 . S
C470 C465 1.390 . S
C470 C469 1.387 . S
H471 C483 0.930 . S
H472 C485 0.930 . S
H473 C486 0.930 . S
H474 C490 0.959 . S
H475 C490 0.959 . S
H476 C490 0.961 . S
H477 C491 0.960 . S
H478 C491 0.961 . S
H479 C491 0.959 . S
H480 C494 0.929 . S
H481 C495 0.931 . S
H482 C497 0.930 . S
C483 H471 0.930 . S
C483 C484 1.399 . S
C483 C488 1.399 . S
C484 C483 1.399 . S
C484 C485 1.376 . S
C485 H472 0.930 . S
C485 C484 1.376 . S
C485 C486 1.388 . S
C486 H473 0.930 . S
C486 C485 1.388 . S
C486 C487 1.390 . S
C487 C486 1.390 . S
C487 C488 1.394 . S
C487 C493 1.465 . S
C488 C483 1.399 . S
C488 C487 1.394 . S
C488 C489 1.516 . S
C489 C488 1.516 . S
C489 C490 1.502 . S
C489 C491 1.561 . S
C489 C492 1.526 . S
C490 H474 0.959 . S
C490 H475 0.959 . S
C490 H476 0.961 . S
C490 C489 1.502 . S
C491 H477 0.960 . S
C491 H478 0.961 . S
C491 H479 0.959 . S
C491 C489 1.561 . S
C492 C489 1.526 . S
C492 C493 1.396 . S
C492 C497 1.390 . S
C493 C487 1.465 . S
C493 C492 1.396 . S
C493 C494 1.399 . S
C494 H480 0.929 . S
C494 C493 1.399 . S
C494 C495 1.385 . S
C495 H481 0.931 . S
C495 C494 1.385 . S
C495 C496 1.389 . S
C496 C495 1.389 . S
C496 C497 1.387 . S
C497 H482 0.930 . S
C497 C492 1.390 . S
C497 C496 1.387 . S
H498 C510 0.930 . S
H499 C512 0.930 . S
H500 C513 0.930 . S
H501 C517 0.959 . S
H502 C517 0.959 . S
H503 C517 0.961 . S
H504 C518 0.960 . S
H505 C518 0.961 . S
H506 C518 0.959 . S
H507 C521 0.929 . S
H508 C522 0.931 . S
H509 C524 0.930 . S
C510 H498 0.930 . S
C510 C511 1.399 . S
C510 C515 1.399 . S
C511 C510 1.399 . S
C511 C512 1.376 . S
C512 H499 0.930 . S
C512 C511 1.376 . S
C512 C513 1.388 . S
C513 H500 0.930 . S
C513 C512 1.388 . S
C513 C514 1.390 . S
C514 C513 1.390 . S
C514 C515 1.394 . S
C514 C520 1.465 . S
C515 C510 1.399 . S
C515 C514 1.394 . S
C515 C516 1.516 . S
C516 C515 1.516 . S
C516 C517 1.502 . S
C516 C518 1.561 . S
C516 C519 1.526 . S
C517 H501 0.959 . S
C517 H502 0.959 . S
C517 H503 0.961 . S
C517 C516 1.502 . S
C518 H504 0.960 . S
C518 H505 0.961 . S
C518 H506 0.959 . S
C518 C516 1.561 . S
C519 C516 1.526 . S
C519 C520 1.396 . S
C519 C524 1.390 . S
C520 C514 1.465 . S
C520 C519 1.396 . S
C520 C521 1.399 . S
C521 H507 0.929 . S
C521 C520 1.399 . S
C521 C522 1.385 . S
C522 H508 0.931 . S
C522 C521 1.385 . S
C522 C523 1.389 . S
C523 C522 1.389 . S
C523 C524 1.387 . S
C524 H509 0.930 . S
C524 C519 1.390 . S
C524 C523 1.387 . S
H525 C537 0.930 . S
H526 C539 0.930 . S
H527 C540 0.930 . S
H528 C544 0.959 . S
H529 C544 0.959 . S
H530 C544 0.961 . S
H531 C545 0.960 . S
H532 C545 0.961 . S
H533 C545 0.959 . S
H534 C548 0.929 . S
H535 C549 0.931 . S
H536 C551 0.930 . S
C537 H525 0.930 . S
C537 C538 1.399 . S
C537 C542 1.399 . S
C538 C537 1.399 . S
C538 C539 1.376 . S
C539 H526 0.930 . S
C539 C538 1.376 . S
C539 C540 1.388 . S
C540 H527 0.930 . S
C540 C539 1.388 . S
C540 C541 1.390 . S
C541 C540 1.390 . S
C541 C542 1.394 . S
C541 C547 1.465 . S
C542 C537 1.399 . S
C542 C541 1.394 . S
C542 C543 1.516 . S
C543 C542 1.516 . S
C543 C544 1.502 . S
C543 C545 1.561 . S
C543 C546 1.526 . S
C544 H528 0.959 . S
C544 H529 0.959 . S
C544 H530 0.961 . S
C544 C543 1.502 . S
C545 H531 0.960 . S
C545 H532 0.961 . S
C545 H533 0.959 . S
C545 C543 1.561 . S
C546 C543 1.526 . S
C546 C547 1.396 . S
C546 C551 1.390 . S
C547 C541 1.465 . S
C547 C546 1.396 . S
C547 C548 1.399 . S
C548 H534 0.929 . S
C548 C547 1.399 . S
C548 C549 1.385 . S
C549 H535 0.931 . S
C549 C548 1.385 . S
C549 C550 1.389 . S
C550 C549 1.389 . S
C550 C551 1.387 . S
C551 H536 0.930 . S
C551 C546 1.390 . S
C551 C550 1.387 . S
H552 C564 0.930 . S
H553 C566 0.930 . S
H554 C567 0.930 . S
H555 C571 0.959 . S
H556 C571 0.959 . S
H557 C571 0.961 . S
H558 C572 0.960 . S
H559 C572 0.961 . S
H560 C572 0.959 . S
H561 C575 0.929 . S
H562 C576 0.931 . S
H563 C578 0.930 . S
C564 H552 0.930 . S
C564 C565 1.399 . S
C564 C569 1.399 . S
C565 C564 1.399 . S
C565 C566 1.376 . S
C566 H553 0.930 . S
C566 C565 1.376 . S
C566 C567 1.388 . S
C567 H554 0.930 . S
C567 C566 1.388 . S
C567 C568 1.390 . S
C568 C567 1.390 . S
C568 C569 1.394 . S
C568 C574 1.465 . S
C569 C564 1.399 . S
C569 C568 1.394 . S
C569 C570 1.516 . S
C570 C569 1.516 . S
C570 C571 1.502 . S
C570 C572 1.561 . S
C570 C573 1.526 . S
C571 H555 0.959 . S
C571 H556 0.959 . S
C571 H557 0.961 . S
C571 C570 1.502 . S
C572 H558 0.960 . S
C572 H559 0.961 . S
C572 H560 0.959 . S
C572 C570 1.561 . S
C573 C570 1.526 . S
C573 C574 1.396 . S
C573 C578 1.390 . S
C574 C568 1.465 . S
C574 C573 1.396 . S
C574 C575 1.399 . S
C575 H561 0.929 . S
C575 C574 1.399 . S
C575 C576 1.385 . S
C576 H562 0.931 . S
C576 C575 1.385 . S
C576 C577 1.389 . S
C577 C576 1.389 . S
C577 C578 1.387 . S
C578 H563 0.930 . S
C578 C573 1.390 . S
C578 C577 1.387 . S
H579 C591 0.930 . S
H580 C593 0.930 . S
H581 C594 0.930 . S
H582 C598 0.959 . S
H583 C598 0.959 . S
H584 C598 0.961 . S
H585 C599 0.960 . S
H586 C599 0.961 . S
H587 C599 0.959 . S
H588 C602 0.929 . S
H589 C603 0.931 . S
H590 C605 0.930 . S
C591 H579 0.930 . S
C591 C592 1.399 . S
C591 C596 1.399 . S
C592 C591 1.399 . S
C592 C593 1.376 . S
C593 H580 0.930 . S
C593 C592 1.376 . S
C593 C594 1.388 . S
C594 H581 0.930 . S
C594 C593 1.388 . S
C594 C595 1.390 . S
C595 C594 1.390 . S
C595 C596 1.394 . S
C595 C601 1.465 . S
C596 C591 1.399 . S
C596 C595 1.394 . S
C596 C597 1.516 . S
C597 C596 1.516 . S
C597 C598 1.502 . S
C597 C599 1.561 . S
C597 C600 1.526 . S
C598 H582 0.959 . S
C598 H583 0.959 . S
C598 H584 0.961 . S
C598 C597 1.502 . S
C599 H585 0.960 . S
C599 H586 0.961 . S
C599 H587 0.959 . S
C599 C597 1.561 . S
C600 C597 1.526 . S
C600 C601 1.396 . S
C600 C605 1.390 . S
C601 C595 1.465 . S
C601 C600 1.396 . S
C601 C602 1.399 . S
C602 H588 0.929 . S
C602 C601 1.399 . S
C602 C603 1.385 . S
C603 H589 0.931 . S
C603 C602 1.385 . S
C603 C604 1.389 . S
C604 C603 1.389 . S
C604 C605 1.387 . S
C605 H590 0.930 . S
C605 C600 1.390 . S
C605 C604 1.387 . S
H606 C618 0.930 . S
H607 C620 0.930 . S
H608 C621 0.930 . S
H609 C625 0.959 . S
H610 C625 0.959 . S
H611 C625 0.961 . S
H612 C626 0.960 . S
H613 C626 0.961 . S
H614 C626 0.959 . S
H615 C629 0.929 . S
H616 C630 0.931 . S
H617 C632 0.930 . S
C618 H606 0.930 . S
C618 C619 1.399 . S
C618 C623 1.399 . S
C619 C618 1.399 . S
C619 C620 1.376 . S
C620 H607 0.930 . S
C620 C619 1.376 . S
C620 C621 1.388 . S
C621 H608 0.930 . S
C621 C620 1.388 . S
C621 C622 1.390 . S
C622 C621 1.390 . S
C622 C623 1.394 . S
C622 C628 1.465 . S
C623 C618 1.399 . S
C623 C622 1.394 . S
C623 C624 1.516 . S
C624 C623 1.516 . S
C624 C625 1.502 . S
C624 C626 1.561 . S
C624 C627 1.526 . S
C625 H609 0.959 . S
C625 H610 0.959 . S
C625 H611 0.961 . S
C625 C624 1.502 . S
C626 H612 0.960 . S
C626 H613 0.961 . S
C626 H614 0.959 . S
C626 C624 1.561 . S
C627 C624 1.526 . S
C627 C628 1.396 . S
C627 C632 1.390 . S
C628 C622 1.465 . S
C628 C627 1.396 . S
C628 C629 1.399 . S
C629 H615 0.929 . S
C629 C628 1.399 . S
C629 C630 1.385 . S
C630 H616 0.931 . S
C630 C629 1.385 . S
C630 C631 1.389 . S
C631 C630 1.389 . S
C631 C632 1.387 . S
C632 H617 0.930 . S
C632 C627 1.390 . S
C632 C631 1.387 . S
H633 C645 0.930 . S
H634 C647 0.930 . S
H635 C648 0.930 . S
H636 C652 0.959 . S
H637 C652 0.959 . S
H638 C652 0.961 . S
H639 C653 0.960 . S
H640 C653 0.961 . S
H641 C653 0.959 . S
H642 C656 0.929 . S
H643 C657 0.931 . S
H644 C659 0.930 . S
C645 H633 0.930 . S
C645 C646 1.399 . S
C645 C650 1.399 . S
C646 C645 1.399 . S
C646 C647 1.376 . S
C647 H634 0.930 . S
C647 C646 1.376 . S
C647 C648 1.388 . S
C648 H635 0.930 . S
C648 C647 1.388 . S
C648 C649 1.390 . S
C649 C648 1.390 . S
C649 C650 1.394 . S
C649 C655 1.465 . S
C650 C645 1.399 . S
C650 C649 1.394 . S
C650 C651 1.516 . S
C651 C650 1.516 . S
C651 C652 1.502 . S
C651 C653 1.561 . S
C651 C654 1.526 . S
C652 H636 0.959 . S
C652 H637 0.959 . S
C652 H638 0.961 . S
C652 C651 1.502 . S
C653 H639 0.960 . S
C653 H640 0.961 . S
C653 H641 0.959 . S
C653 C651 1.561 . S
C654 C651 1.526 . S
C654 C655 1.396 . S
C654 C659 1.390 . S
C655 C649 1.465 . S
C655 C654 1.396 . S
C655 C656 1.399 . S
C656 H642 0.929 . S
C656 C655 1.399 . S
C656 C657 1.385 . S
C657 H643 0.931 . S
C657 C656 1.385 . S
C657 C658 1.389 . S
C658 C657 1.389 . S
C658 C659 1.387 . S
C659 H644 0.930 . S
C659 C654 1.390 . S
C659 C658 1.387 . S
H660 C672 0.930 . S
H661 C674 0.930 . S
H662 C675 0.930 . S
H663 C679 0.959 . S
H664 C679 0.959 . S
H665 C679 0.961 . S
H666 C680 0.960 . S
H667 C680 0.961 . S
H668 C680 0.959 . S
H669 C683 0.929 . S
H670 C684 0.931 . S
H671 C686 0.930 . S
C672 H660 0.930 . S
C672 C673 1.399 . S
C672 C677 1.399 . S
C673 C672 1.399 . S
C673 C674 1.376 . S
C674 H661 0.930 . S
C674 C673 1.376 . S
C674 C675 1.388 . S
C675 H662 0.930 . S
C675 C674 1.388 . S
C675 C676 1.390 . S
C676 C675 1.390 . S
C676 C677 1.394 . S
C676 C682 1.465 . S
C677 C672 1.399 . S
C677 C676 1.394 . S
C677 C678 1.516 . S
C678 C677 1.516 . S
C678 C679 1.502 . S
C678 C680 1.561 . S
C678 C681 1.526 . S
C679 H663 0.959 . S
C679 H664 0.959 . S
C679 H665 0.961 . S
C679 C678 1.502 . S
C680 H666 0.960 . S
C680 H667 0.961 . S
C680 H668 0.959 . S
C680 C678 1.561 . S
C681 C678 1.526 . S
C681 C682 1.396 . S
C681 C686 1.390 . S
C682 C676 1.465 . S
C682 C681 1.396 . S
C682 C683 1.399 . S
C683 H669 0.929 . S
C683 C682 1.399 . S
C683 C684 1.385 . S
C684 H670 0.931 . S
C684 C683 1.385 . S
C684 C685 1.389 . S
C685 C684 1.389 . S
C685 C686 1.387 . S
C686 H671 0.930 . S
C686 C681 1.390 . S
C686 C685 1.387 . S
H687 C699 0.930 . S
H688 C701 0.930 . S
H689 C702 0.930 . S
H690 C706 0.959 . S
H691 C706 0.959 . S
H692 C706 0.961 . S
H693 C707 0.960 . S
H694 C707 0.961 . S
H695 C707 0.959 . S
H696 C710 0.929 . S
H697 C711 0.931 . S
H698 C713 0.930 . S
C699 H687 0.930 . S
C699 C700 1.399 . S
C699 C704 1.399 . S
C700 C699 1.399 . S
C700 C701 1.376 . S
C701 H688 0.930 . S
C701 C700 1.376 . S
C701 C702 1.388 . S
C702 H689 0.930 . S
C702 C701 1.388 . S
C702 C703 1.390 . S
C703 C702 1.390 . S
C703 C704 1.394 . S
C703 C709 1.465 . S
C704 C699 1.399 . S
C704 C703 1.394 . S
C704 C705 1.516 . S
C705 C704 1.516 . S
C705 C706 1.502 . S
C705 C707 1.561 . S
C705 C708 1.526 . S
C706 H690 0.959 . S
C706 H691 0.959 . S
C706 H692 0.961 . S
C706 C705 1.502 . S
C707 H693 0.960 . S
C707 H694 0.961 . S
C707 H695 0.959 . S
C707 C705 1.561 . S
C708 C705 1.526 . S
C708 C709 1.396 . S
C708 C713 1.390 . S
C709 C703 1.465 . S
C709 C708 1.396 . S
C709 C710 1.399 . S
C710 H696 0.929 . S
C710 C709 1.399 . S
C710 C711 1.385 . S
C711 H697 0.931 . S
C711 C710 1.385 . S
C711 C712 1.389 . S
C712 C711 1.389 . S
C712 C713 1.387 . S
C713 H698 0.930 . S
C713 C708 1.390 . S
C713 C712 1.387 . S
H714 C726 0.930 . S
H715 C728 0.930 . S
H716 C729 0.930 . S
H717 C733 0.959 . S
H718 C733 0.959 . S
H719 C733 0.961 . S
H720 C734 0.960 . S
H721 C734 0.961 . S
H722 C734 0.959 . S
H723 C737 0.929 . S
H724 C738 0.931 . S
H725 C740 0.930 . S
C726 H714 0.930 . S
C726 C727 1.399 . S
C726 C731 1.399 . S
C727 C726 1.399 . S
C727 C728 1.376 . S
C728 H715 0.930 . S
C728 C727 1.376 . S
C728 C729 1.388 . S
C729 H716 0.930 . S
C729 C728 1.388 . S
C729 C730 1.390 . S
C730 C729 1.390 . S
C730 C731 1.394 . S
C730 C736 1.465 . S
C731 C726 1.399 . S
C731 C730 1.394 . S
C731 C732 1.516 . S
C732 C731 1.516 . S
C732 C733 1.502 . S
C732 C734 1.561 . S
C732 C735 1.526 . S
C733 H717 0.959 . S
C733 H718 0.959 . S
C733 H719 0.961 . S
C733 C732 1.502 . S
C734 H720 0.960 . S
C734 H721 0.961 . S
C734 H722 0.959 . S
C734 C732 1.561 . S
C735 C732 1.526 . S
C735 C736 1.396 . S
C735 C740 1.390 . S
C736 C730 1.465 . S
C736 C735 1.396 . S
C736 C737 1.399 . S
C737 H723 0.929 . S
C737 C736 1.399 . S
C737 C738 1.385 . S
C738 H724 0.931 . S
C738 C737 1.385 . S
C738 C739 1.389 . S
C739 C738 1.389 . S
C739 C740 1.387 . S
C740 H725 0.930 . S
C740 C735 1.390 . S
C740 C739 1.387 . S
H741 C753 0.930 . S
H742 C755 0.930 . S
H743 C756 0.930 . S
H744 C760 0.959 . S
H745 C760 0.959 . S
H746 C760 0.961 . S
H747 C761 0.960 . S
H748 C761 0.961 . S
H749 C761 0.959 . S
H750 C764 0.929 . S
H751 C765 0.931 . S
H752 C767 0.930 . S
C753 H741 0.930 . S
C753 C754 1.399 . S
C753 C758 1.399 . S
C754 C753 1.399 . S
C754 C755 1.376 . S
C755 H742 0.930 . S
C755 C754 1.376 . S
C755 C756 1.388 . S
C756 H743 0.930 . S
C756 C755 1.388 . S
C756 C757 1.390 . S
C757 C756 1.390 . S
C757 C758 1.394 . S
C757 C763 1.465 . S
C758 C753 1.399 . S
C758 C757 1.394 . S
C758 C759 1.516 . S
C759 C758 1.516 . S
C759 C760 1.502 . S
C759 C761 1.561 . S
C759 C762 1.526 . S
C760 H744 0.959 . S
C760 H745 0.959 . S
C760 H746 0.961 . S
C760 C759 1.502 . S
C761 H747 0.960 . S
C761 H748 0.961 . S
C761 H749 0.959 . S
C761 C759 1.561 . S
C762 C759 1.526 . S
C762 C763 1.396 . S
C762 C767 1.390 . S
C763 C757 1.465 . S
C763 C762 1.396 . S
C763 C764 1.399 . S
C764 H750 0.929 . S
C764 C763 1.399 . S
C764 C765 1.385 . S
C765 H751 0.931 . S
C765 C764 1.385 . S
C765 C766 1.389 . S
C766 C765 1.389 . S
C766 C767 1.387 . S
C767 H752 0.930 . S
C767 C762 1.390 . S
C767 C766 1.387 . S
H768 C780 0.930 . S
H769 C782 0.930 . S
H770 C783 0.930 . S
H771 C787 0.959 . S
H772 C787 0.959 . S
H773 C787 0.961 . S
H774 C788 0.960 . S
H775 C788 0.961 . S
H776 C788 0.959 . S
H777 C791 0.929 . S
H778 C792 0.931 . S
H779 C794 0.930 . S
C780 H768 0.930 . S
C780 C781 1.399 . S
C780 C785 1.399 . S
C781 C780 1.399 . S
C781 C782 1.376 . S
C782 H769 0.930 . S
C782 C781 1.376 . S
C782 C783 1.388 . S
C783 H770 0.930 . S
C783 C782 1.388 . S
C783 C784 1.390 . S
C784 C783 1.390 . S
C784 C785 1.394 . S
C784 C790 1.465 . S
C785 C780 1.399 . S
C785 C784 1.394 . S
C785 C786 1.516 . S
C786 C785 1.516 . S
C786 C787 1.502 . S
C786 C788 1.561 . S
C786 C789 1.526 . S
C787 H771 0.959 . S
C787 H772 0.959 . S
C787 H773 0.961 . S
C787 C786 1.502 . S
C788 H774 0.960 . S
C788 H775 0.961 . S
C788 H776 0.959 . S
C788 C786 1.561 . S
C789 C786 1.526 . S
C789 C790 1.396 . S
C789 C794 1.390 . S
C790 C784 1.465 . S
C790 C789 1.396 . S
C790 C791 1.399 . S
C791 H777 0.929 . S
C791 C790 1.399 . S
C791 C792 1.385 . S
C792 H778 0.931 . S
C792 C791 1.385 . S
C792 C793 1.389 . S
C793 C792 1.389 . S
C793 C794 1.387 . S
C794 H779 0.930 . S
C794 C789 1.390 . S
C794 C793 1.387 . S
H795 C807 0.930 . S
H796 C809 0.930 . S
H797 C810 0.930 . S
H798 C814 0.959 . S
H799 C814 0.959 . S
H800 C814 0.961 . S
H801 C815 0.960 . S
H802 C815 0.961 . S
H803 C815 0.959 . S
H804 C818 0.929 . S
H805 C819 0.931 . S
H806 C821 0.930 . S
C807 H795 0.930 . S
C807 C808 1.399 . S
C807 C812 1.399 . S
C808 C807 1.399 . S
C808 C809 1.376 . S
C809 H796 0.930 . S
C809 C808 1.376 . S
C809 C810 1.388 . S
C810 H797 0.930 . S
C810 C809 1.388 . S
C810 C811 1.390 . S
C811 C810 1.390 . S
C811 C812 1.394 . S
C811 C817 1.465 . S
C812 C807 1.399 . S
C812 C811 1.394 . S
C812 C813 1.516 . S
C813 C812 1.516 . S
C813 C814 1.502 . S
C813 C815 1.561 . S
C813 C816 1.526 . S
C814 H798 0.959 . S
C814 H799 0.959 . S
C814 H800 0.961 . S
C814 C813 1.502 . S
C815 H801 0.960 . S
C815 H802 0.961 . S
C815 H803 0.959 . S
C815 C813 1.561 . S
C816 C813 1.526 . S
C816 C817 1.396 . S
C816 C821 1.390 . S
C817 C811 1.465 . S
C817 C816 1.396 . S
C817 C818 1.399 . S
C818 H804 0.929 . S
C818 C817 1.399 . S
C818 C819 1.385 . S
C819 H805 0.931 . S
C819 C818 1.385 . S
C819 C820 1.389 . S
C820 C819 1.389 . S
C820 C821 1.387 . S
C821 H806 0.930 . S
C821 C816 1.390 . S
C821 C820 1.387 . S
H822 C834 0.930 . S
H823 C836 0.930 . S
H824 C837 0.930 . S
H825 C841 0.959 . S
H826 C841 0.959 . S
H827 C841 0.961 . S
H828 C842 0.960 . S
H829 C842 0.961 . S
H830 C842 0.959 . S
H831 C845 0.929 . S
H832 C846 0.931 . S
H833 C848 0.930 . S
C834 H822 0.930 . S
C834 C835 1.399 . S
C834 C839 1.399 . S
C835 C834 1.399 . S
C835 C836 1.376 . S
C836 H823 0.930 . S
C836 C835 1.376 . S
C836 C837 1.388 . S
C837 H824 0.930 . S
C837 C836 1.388 . S
C837 C838 1.390 . S
C838 C837 1.390 . S
C838 C839 1.394 . S
C838 C844 1.465 . S
C839 C834 1.399 . S
C839 C838 1.394 . S
C839 C840 1.516 . S
C840 C839 1.516 . S
C840 C841 1.502 . S
C840 C842 1.561 . S
C840 C843 1.526 . S
C841 H825 0.959 . S
C841 H826 0.959 . S
C841 H827 0.961 . S
C841 C840 1.502 . S
C842 H828 0.960 . S
C842 H829 0.961 . S
C842 H830 0.959 . S
C842 C840 1.561 . S
C843 C840 1.526 . S
C843 C844 1.396 . S
C843 C848 1.390 . S
C844 C838 1.465 . S
C844 C843 1.396 . S
C844 C845 1.399 . S
C845 H831 0.929 . S
C845 C844 1.399 . S
C845 C846 1.385 . S
C846 H832 0.931 . S
C846 C845 1.385 . S
C846 C847 1.389 . S
C847 C846 1.389 . S
C847 C848 1.387 . S
C848 H833 0.930 . S
C848 C843 1.390 . S
C848 C847 1.387 . S
H849 C861 0.930 . S
H850 C863 0.930 . S
H851 C864 0.930 . S
H852 C868 0.959 . S
H853 C868 0.959 . S
H854 C868 0.961 . S
H855 C869 0.960 . S
H856 C869 0.961 . S
H857 C869 0.959 . S
H858 C872 0.929 . S
H859 C873 0.931 . S
H860 C875 0.930 . S
C861 H849 0.930 . S
C861 C862 1.399 . S
C861 C866 1.399 . S
C862 C861 1.399 . S
C862 C863 1.376 . S
C863 H850 0.930 . S
C863 C862 1.376 . S
C863 C864 1.388 . S
C864 H851 0.930 . S
C864 C863 1.388 . S
C864 C865 1.390 . S
C865 C864 1.390 . S
C865 C866 1.394 . S
C865 C871 1.465 . S
C866 C861 1.399 . S
C866 C865 1.394 . S
C866 C867 1.516 . S
C867 C866 1.516 . S
C867 C868 1.502 . S
C867 C869 1.561 . S
C867 C870 1.526 . S
C868 H852 0.959 . S
C868 H853 0.959 . S
C868 H854 0.961 . S
C868 C867 1.502 . S
C869 H855 0.960 . S
C869 H856 0.961 . S
C869 H857 0.959 . S
C869 C867 1.561 . S
C870 C867 1.526 . S
C870 C871 1.396 . S
C870 C875 1.390 . S
C871 C865 1.465 . S
C871 C870 1.396 . S
C871 C872 1.399 . S
C872 H858 0.929 . S
C872 C871 1.399 . S
C872 C873 1.385 . S
C873 H859 0.931 . S
C873 C872 1.385 . S
C873 C874 1.389 . S
C874 C873 1.389 . S
C874 C875 1.387 . S
C875 H860 0.930 . S
C875 C870 1.390 . S
C875 C874 1.387 . S
H876 C888 0.930 . S
H877 C890 0.930 . S
H878 C891 0.930 . S
H879 C895 0.959 . S
H880 C895 0.959 . S
H881 C895 0.961 . S
H882 C896 0.960 . S
H883 C896 0.961 . S
H884 C896 0.959 . S
H885 C899 0.929 . S
H886 C900 0.931 . S
H887 C902 0.930 . S
C888 H876 0.930 . S
C888 C889 1.399 . S
C888 C893 1.399 . S
C889 C888 1.399 . S
C889 C890 1.376 . S
C890 H877 0.930 . S
C890 C889 1.376 . S
C890 C891 1.388 . S
C891 H878 0.930 . S
C891 C890 1.388 . S
C891 C892 1.390 . S
C892 C891 1.390 . S
C892 C893 1.394 . S
C892 C898 1.465 . S
C893 C888 1.399 . S
C893 C892 1.394 . S
C893 C894 1.516 . S
C894 C893 1.516 . S
C894 C895 1.502 . S
C894 C896 1.561 . S
C894 C897 1.526 . S
C895 H879 0.959 . S
C895 H880 0.959 . S
C895 H881 0.961 . S
C895 C894 1.502 . S
C896 H882 0.960 . S
C896 H883 0.961 . S
C896 H884 0.959 . S
C896 C894 1.561 . S
C897 C894 1.526 . S
C897 C898 1.396 . S
C897 C902 1.390 . S
C898 C892 1.465 . S
C898 C897 1.396 . S
C898 C899 1.399 . S
C899 H885 0.929 . S
C899 C898 1.399 . S
C899 C900 1.385 . S
C900 H886 0.931 . S
C900 C899 1.385 . S
C900 C901 1.389 . S
C901 C900 1.389 . S
C901 C902 1.387 . S
C902 H887 0.930 . S
C902 C897 1.390 . S
C902 C901 1.387 . S
H903 C915 0.930 . S
H904 C917 0.930 . S
H905 C918 0.930 . S
H906 C922 0.959 . S
H907 C922 0.959 . S
H908 C922 0.961 . S
H909 C923 0.960 . S
H910 C923 0.961 . S
H911 C923 0.959 . S
H912 C926 0.929 . S
H913 C927 0.931 . S
H914 C929 0.930 . S
C915 H903 0.930 . S
C915 C916 1.399 . S
C915 C920 1.399 . S
C916 C915 1.399 . S
C916 C917 1.376 . S
C917 H904 0.930 . S
C917 C916 1.376 . S
C917 C918 1.388 . S
C918 H905 0.930 . S
C918 C917 1.388 . S
C918 C919 1.390 . S
C919 C918 1.390 . S
C919 C920 1.394 . S
C919 C925 1.465 . S
C920 C915 1.399 . S
C920 C919 1.394 . S
C920 C921 1.516 . S
C921 C920 1.516 . S
C921 C922 1.502 . S
C921 C923 1.561 . S
C921 C924 1.526 . S
C922 H906 0.959 . S
C922 H907 0.959 . S
C922 H908 0.961 . S
C922 C921 1.502 . S
C923 H909 0.960 . S
C923 H910 0.961 . S
C923 H911 0.959 . S
C923 C921 1.561 . S
C924 C921 1.526 . S
C924 C925 1.396 . S
C924 C929 1.390 . S
C925 C919 1.465 . S
C925 C924 1.396 . S
C925 C926 1.399 . S
C926 H912 0.929 . S
C926 C925 1.399 . S
C926 C927 1.385 . S
C927 H913 0.931 . S
C927 C926 1.385 . S
C927 C928 1.389 . S
C928 C927 1.389 . S
C928 C929 1.387 . S
C929 H914 0.930 . S
C929 C924 1.390 . S
C929 C928 1.387 . S
H930 C942 0.930 . S
H931 C944 0.930 . S
H932 C945 0.930 . S
H933 C949 0.959 . S
H934 C949 0.959 . S
H935 C949 0.961 . S
H936 C950 0.960 . S
H937 C950 0.961 . S
H938 C950 0.959 . S
H939 C953 0.929 . S
H940 C954 0.931 . S
H941 C956 0.930 . S
C942 H930 0.930 . S
C942 C943 1.399 . S
C942 C947 1.399 . S
C943 C942 1.399 . S
C943 C944 1.376 . S
C944 H931 0.930 . S
C944 C943 1.376 . S
C944 C945 1.388 . S
C945 H932 0.930 . S
C945 C944 1.388 . S
C945 C946 1.390 . S
C946 C945 1.390 . S
C946 C947 1.394 . S
C946 C952 1.465 . S
C947 C942 1.399 . S
C947 C946 1.394 . S
C947 C948 1.516 . S
C948 C947 1.516 . S
C948 C949 1.502 . S
C948 C950 1.561 . S
C948 C951 1.526 . S
C949 H933 0.959 . S
C949 H934 0.959 . S
C949 H935 0.961 . S
C949 C948 1.502 . S
C950 H936 0.960 . S
C950 H937 0.961 . S
C950 H938 0.959 . S
C950 C948 1.561 . S
C951 C948 1.526 . S
C951 C952 1.396 . S
C951 C956 1.390 . S
C952 C946 1.465 . S
C952 C951 1.396 . S
C952 C953 1.399 . S
C953 H939 0.929 . S
C953 C952 1.399 . S
C953 C954 1.385 . S
C954 H940 0.931 . S
C954 C953 1.385 . S
C954 C955 1.389 . S
C955 C954 1.389 . S
C955 C956 1.387 . S
C956 H941 0.930 . S
C956 C951 1.390 . S
C956 C955 1.387 . S
H957 C969 0.930 . S
H958 C971 0.930 . S
H959 C972 0.930 . S
H960 C976 0.959 . S
H961 C976 0.959 . S
H962 C976 0.961 . S
H963 C977 0.960 . S
H964 C977 0.961 . S
H965 C977 0.959 . S
H966 C980 0.929 . S
H967 C981 0.931 . S
H968 C983 0.930 . S
C969 H957 0.930 . S
C969 C970 1.399 . S
C969 C974 1.399 . S
C970 C969 1.399 . S
C970 C971 1.376 . S
C971 H958 0.930 . S
C971 C970 1.376 . S
C971 C972 1.388 . S
C972 H959 0.930 . S
C972 C971 1.388 . S
C972 C973 1.390 . S
C973 C972 1.390 . S
C973 C974 1.394 . S
C973 C979 1.465 . S
C974 C969 1.399 . S
C974 C973 1.394 . S
C974 C975 1.516 . S
C975 C974 1.516 . S
C975 C976 1.502 . S
C975 C977 1.561 . S
C975 C978 1.526 . S
C976 H960 0.959 . S
C976 H961 0.959 . S
C976 H962 0.961 . S
C976 C975 1.502 . S
C977 H963 0.960 . S
C977 H964 0.961 . S
C977 H965 0.959 . S
C977 C975 1.561 . S
C978 C975 1.526 . S
C978 C979 1.396 . S
C978 C983 1.390 . S
C979 C973 1.465 . S
C979 C978 1.396 . S
C979 C980 1.399 . S
C980 H966 0.929 . S
C980 C979 1.399 . S
C980 C981 1.385 . S
C981 H967 0.931 . S
C981 C980 1.385 . S
C981 C982 1.389 . S
C982 C981 1.389 . S
C982 C983 1.387 . S
C983 H968 0.930 . S
C983 C978 1.390 . S
C983 C982 1.387 . S
H984 C996 0.930 . S
H985 C998 0.930 . S
H986 C999 0.930 . S
H987 C1003 0.959 . S
H988 C1003 0.959 . S
H989 C1003 0.961 . S
H990 C1004 0.960 . S
H991 C1004 0.961 . S
H992 C1004 0.959 . S
H993 C1007 0.929 . S
H994 C1008 0.931 . S
H995 C1010 0.930 . S
C996 H984 0.930 . S
C996 C997 1.399 . S
C996 C1001 1.399 . S
C997 C996 1.399 . S
C997 C998 1.376 . S
C998 H985 0.930 . S
C998 C997 1.376 . S
C998 C999 1.388 . S
C999 H986 0.930 . S
C999 C998 1.388 . S
C999 C1000 1.390 . S
C1000 C999 1.390 . S
C1000 C1001 1.394 . S
C1000 C1006 1.465 . S
C1001 C996 1.399 . S
C1001 C1000 1.394 . S
C1001 C1002 1.516 . S
C1002 C1001 1.516 . S
C1002 C1003 1.502 . S
C1002 C1004 1.561 . S
C1002 C1005 1.526 . S
C1003 H987 0.959 . S
C1003 H988 0.959 . S
C1003 H989 0.961 . S
C1003 C1002 1.502 . S
C1004 H990 0.960 . S
C1004 H991 0.961 . S
C1004 H992 0.959 . S
C1004 C1002 1.561 . S
C1005 C1002 1.526 . S
C1005 C1006 1.396 . S
C1005 C1010 1.390 . S
C1006 C1000 1.465 . S
C1006 C1005 1.396 . S
C1006 C1007 1.399 . S
C1007 H993 0.929 . S
C1007 C1006 1.399 . S
C1007 C1008 1.385 . S
C1008 H994 0.931 . S
C1008 C1007 1.385 . S
C1008 C1009 1.389 . S
C1009 C1008 1.389 . S
C1009 C1010 1.387 . S
C1010 H995 0.930 . S
C1010 C1005 1.390 . S
C1010 C1009 1.387 . S
H1011 C1023 0.930 . S
H1012 C1025 0.930 . S
H1013 C1026 0.930 . S
H1014 C1030 0.959 . S
H1015 C1030 0.959 . S
H1016 C1030 0.961 . S
H1017 C1031 0.960 . S
H1018 C1031 0.961 . S
H1019 C1031 0.959 . S
H1020 C1034 0.929 . S
H1021 C1035 0.931 . S
H1022 C1037 0.930 . S
C1023 H1011 0.930 . S
C1023 C1024 1.399 . S
C1023 C1028 1.399 . S
C1024 C1023 1.399 . S
C1024 C1025 1.376 . S
C1025 H1012 0.930 . S
C1025 C1024 1.376 . S
C1025 C1026 1.388 . S
C1026 H1013 0.930 . S
C1026 C1025 1.388 . S
C1026 C1027 1.390 . S
C1027 C1026 1.390 . S
C1027 C1028 1.394 . S
C1027 C1033 1.465 . S
C1028 C1023 1.399 . S
C1028 C1027 1.394 . S
C1028 C1029 1.516 . S
C1029 C1028 1.516 . S
C1029 C1030 1.502 . S
C1029 C1031 1.561 . S
C1029 C1032 1.526 . S
C1030 H1014 0.959 . S
C1030 H1015 0.959 . S
C1030 H1016 0.961 . S
C1030 C1029 1.502 . S
C1031 H1017 0.960 . S
C1031 H1018 0.961 . S
C1031 H1019 0.959 . S
C1031 C1029 1.561 . S
C1032 C1029 1.526 . S
C1032 C1033 1.396 . S
C1032 C1037 1.390 . S
C1033 C1027 1.465 . S
C1033 C1032 1.396 . S
C1033 C1034 1.399 . S
C1034 H1020 0.929 . S
C1034 C1033 1.399 . S
C1034 C1035 1.385 . S
C1035 H1021 0.931 . S
C1035 C1034 1.385 . S
C1035 C1036 1.389 . S
C1036 C1035 1.389 . S
C1036 C1037 1.387 . S
C1037 H1022 0.930 . S
C1037 C1032 1.390 . S
C1037 C1036 1.387 . S
H1038 C1050 0.930 . S
H1039 C1052 0.930 . S
H1040 C1053 0.930 . S
H1041 C1057 0.959 . S
H1042 C1057 0.959 . S
H1043 C1057 0.961 . S
H1044 C1058 0.960 . S
H1045 C1058 0.961 . S
H1046 C1058 0.959 . S
H1047 C1061 0.929 . S
H1048 C1062 0.931 . S
H1049 C1064 0.930 . S
C1050 H1038 0.930 . S
C1050 C1051 1.399 . S
C1050 C1055 1.399 . S
C1051 C1050 1.399 . S
C1051 C1052 1.376 . S
C1052 H1039 0.930 . S
C1052 C1051 1.376 . S
C1052 C1053 1.388 . S
C1053 H1040 0.930 . S
C1053 C1052 1.388 . S
C1053 C1054 1.390 . S
C1054 C1053 1.390 . S
C1054 C1055 1.394 . S
C1054 C1060 1.465 . S
C1055 C1050 1.399 . S
C1055 C1054 1.394 . S
C1055 C1056 1.516 . S
C1056 C1055 1.516 . S
C1056 C1057 1.502 . S
C1056 C1058 1.561 . S
C1056 C1059 1.526 . S
C1057 H1041 0.959 . S
C1057 H1042 0.959 . S
C1057 H1043 0.961 . S
C1057 C1056 1.502 . S
C1058 H1044 0.960 . S
C1058 H1045 0.961 . S
C1058 H1046 0.959 . S
C1058 C1056 1.561 . S
C1059 C1056 1.526 . S
C1059 C1060 1.396 . S
C1059 C1064 1.390 . S
C1060 C1054 1.465 . S
C1060 C1059 1.396 . S
C1060 C1061 1.399 . S
C1061 H1047 0.929 . S
C1061 C1060 1.399 . S
C1061 C1062 1.385 . S
C1062 H1048 0.931 . S
C1062 C1061 1.385 . S
C1062 C1063 1.389 . S
C1063 C1062 1.389 . S
C1063 C1064 1.387 . S
C1064 H1049 0.930 . S
C1064 C1059 1.390 . S
C1064 C1063 1.387 . S
H1065 C1077 0.930 . S
H1066 C1079 0.930 . S
H1067 C1080 0.930 . S
H1068 C1084 0.959 . S
H1069 C1084 0.959 . S
H1070 C1084 0.961 . S
H1071 C1085 0.960 . S
H1072 C1085 0.961 . S
H1073 C1085 0.959 . S
H1074 C1088 0.929 . S
H1075 C1089 0.931 . S
H1076 C1091 0.930 . S
C1077 H1065 0.930 . S
C1077 C1078 1.399 . S
C1077 C1082 1.399 . S
C1078 C1077 1.399 . S
C1078 C1079 1.376 . S
C1079 H1066 0.930 . S
C1079 C1078 1.376 . S
C1079 C1080 1.388 . S
C1080 H1067 0.930 . S
C1080 C1079 1.388 . S
C1080 C1081 1.390 . S
C1081 C1080 1.390 . S
C1081 C1082 1.394 . S
C1081 C1087 1.465 . S
C1082 C1077 1.399 . S
C1082 C1081 1.394 . S
C1082 C1083 1.516 . S
C1083 C1082 1.516 . S
C1083 C1084 1.502 . S
C1083 C1085 1.561 . S
C1083 C1086 1.526 . S
C1084 H1068 0.959 . S
C1084 H1069 0.959 . S
C1084 H1070 0.961 . S
C1084 C1083 1.502 . S
C1085 H1071 0.960 . S
C1085 H1072 0.961 . S
C1085 H1073 0.959 . S
C1085 C1083 1.561 . S
C1086 C1083 1.526 . S
C1086 C1087 1.396 . S
C1086 C1091 1.390 . S
C1087 C1081 1.465 . S
C1087 C1086 1.396 . S
C1087 C1088 1.399 . S
C1088 H1074 0.929 . S
C1088 C1087 1.399 . S
C1088 C1089 1.385 . S
C1089 H1075 0.931 . S
C1089 C1088 1.385 . S
C1089 C1090 1.389 . S
C1090 C1089 1.389 . S
C1090 C1091 1.387 . S
C1091 H1076 0.930 . S
C1091 C1086 1.390 . S
C1091 C1090 1.387 . S
C457 C39 1.663 . S
C469 C327 1.464 . S
C484 C91 1.641 . S
C496 C348 1.522 . S
C523 C369 1.303 . S
C511 C128 1.481 . S
C550 C398 1.442 . S
C538 C188 1.469 . S
C577 C411 1.379 . S
C565 C250 1.515 . S
C604 C435 1.517 . S
C592 C304 1.658 . S
C619 C75 1.546 . S
C631 C379 1.387 . S
C646 C144 1.688 . S
C658 C393 1.612 . S
C685 C421 1.518 . S
C673 C198 1.581 . S
C712 C440 1.474 . S
C700 C234 1.500 . S
C727 C294 1.413 . S
C739 C337 1.295 . S
C766 C358 1.393 . S
C754 C29 1.497 . S
C793 C400 1.559 . S
C781 C38 1.671 . S
C808 C92 1.685 . S
C820 C414 1.478 . S
C847 C432 1.487 . S
C835 C135 1.510 . S
C862 C181 1.491 . S
C874 C330 1.315 . S
C889 C251 1.547 . S
C901 C351 1.457 . S
C916 C303 1.690 . S
C928 C372 1.428 . S
C943 C82 1.573 . S
C955 C442 1.528 . S
C982 C335 1.477 . S
C970 C145 1.722 . S
C997 C197 1.617 . S
C1009 C356 1.449 . S
C1024 C241 1.537 . S
C1036 C377 1.416 . S
C1051 C287 1.440 . S
C1063 C390 1.415 . S
C1078 C22 1.515 . S
C1090 C419 1.363 . S
