# Generated by pormake.
# Topology zzz, (3,6)-cn, num edge types: 1
# Building blocks:
#     Node 0, Type 0, BuildingBlock: CUQRIR_clean_linker_1, # of connection points: 3
#     Node 1, Type 0, BuildingBlock: CUQRIR_clean_linker_1, # of connection points: 3
#     Node 2, Type 0, BuildingBlock: CUQRIR_clean_linker_1, # of connection points: 3
#     Node 3, Type 0, BuildingBlock: CUQRIR_clean_linker_1, # of connection points: 3
#     Node 4, Type 0, BuildingBlock: CUQRIR_clean_linker_1, # of connection points: 3
#     Node 5, Type 0, BuildingBlock: CUQRIR_clean_linker_1, # of connection points: 3
#     Node 6, Type 0, BuildingBlock: CUQRIR_clean_linker_1, # of connection points: 3
#     Node 7, Type 0, BuildingBlock: CUQRIR_clean_linker_1, # of connection points: 3
#     Node 8, Type 1, BuildingBlock: GEDQOX_clean_sbu_0, # of connection points: 6
#     Node 9, Type 1, BuildingBlock: GEDQOX_clean_sbu_0, # of connection points: 6
#     Node 10, Type 1, BuildingBlock: GEDQOX_clean_sbu_0, # of connection points: 6
#     Node 11, Type 1, BuildingBlock: GEDQOX_clean_sbu_0, # of connection points: 6
#     Edge 12, Type (0, 1), BuildingBlock: UVAHIK_clean_linker_0, # of connection points: 2
#     Edge 13, Type (0, 1), BuildingBlock: UVAHIK_clean_linker_0, # of connection points: 2
#     Edge 14, Type (0, 1), BuildingBlock: UVAHIK_clean_linker_0, # of connection points: 2
#     Edge 15, Type (0, 1), BuildingBlock: UVAHIK_clean_linker_0, # of connection points: 2
#     Edge 16, Type (0, 1), BuildingBlock: UVAHIK_clean_linker_0, # of connection points: 2
#     Edge 17, Type (0, 1), BuildingBlock: UVAHIK_clean_linker_0, # of connection points: 2
#     Edge 18, Type (0, 1), BuildingBlock: UVAHIK_clean_linker_0, # of connection points: 2
#     Edge 19, Type (0, 1), BuildingBlock: UVAHIK_clean_linker_0, # of connection points: 2
#     Edge 20, Type (0, 1), BuildingBlock: UVAHIK_clean_linker_0, # of connection points: 2
#     Edge 21, Type (0, 1), BuildingBlock: UVAHIK_clean_linker_0, # of connection points: 2
#     Edge 22, Type (0, 1), BuildingBlock: UVAHIK_clean_linker_0, # of connection points: 2
#     Edge 23, Type (0, 1), BuildingBlock: UVAHIK_clean_linker_0, # of connection points: 2
#     Edge 24, Type (0, 1), BuildingBlock: UVAHIK_clean_linker_0, # of connection points: 2
#     Edge 25, Type (0, 1), BuildingBlock: UVAHIK_clean_linker_0, # of connection points: 2
#     Edge 26, Type (0, 1), BuildingBlock: UVAHIK_clean_linker_0, # of connection points: 2
#     Edge 27, Type (0, 1), BuildingBlock: UVAHIK_clean_linker_0, # of connection points: 2
#     Edge 28, Type (0, 1), BuildingBlock: UVAHIK_clean_linker_0, # of connection points: 2
#     Edge 29, Type (0, 1), BuildingBlock: UVAHIK_clean_linker_0, # of connection points: 2
#     Edge 30, Type (0, 1), BuildingBlock: UVAHIK_clean_linker_0, # of connection points: 2
#     Edge 31, Type (0, 1), BuildingBlock: UVAHIK_clean_linker_0, # of connection points: 2
#     Edge 32, Type (0, 1), BuildingBlock: UVAHIK_clean_linker_0, # of connection points: 2
#     Edge 33, Type (0, 1), BuildingBlock: UVAHIK_clean_linker_0, # of connection points: 2
#     Edge 34, Type (0, 1), BuildingBlock: UVAHIK_clean_linker_0, # of connection points: 2
#     Edge 35, Type (0, 1), BuildingBlock: UVAHIK_clean_linker_0, # of connection points: 2
# Relax obj value: 0.117
# Max RMSD: 0.163
# Mean RMSD: 0.092
data_MOF--net-zzz--node1-GEDQOX_clean_sbu_0--node2-CUQRIR_clean_linker_1--edge1-UVAHIK_clean_linker_0
_symmetry_space_group_name_H-M    P1
_symmetry_Int_Tables_number       1
_symmetry_cell_setting            triclinic
loop_
_symmetry_equiv_pos_as_xyz
'x, y, z'
_cell_length_a     66.719196
_cell_length_b     66.096371
_cell_length_c     19.601811
_cell_angle_alpha  80.500141
_cell_angle_beta   89.126994
_cell_angle_gamma 98.727316
loop_
_atom_site_label
_atom_site_type_symbol
_atom_site_fract_x
_atom_site_fract_y
_atom_site_fract_z
_atom_type_partial_charge
C0 C 0.76417 0.5681 0.16939 0.0
N1 N 0.78302 0.5631 0.16535 0.0
N2 N 0.75319 0.56246 0.11612 0.0
C3 C 0.75612 0.57725 0.22747 0.0
C4 C 0.766 0.55374 0.07982 0.0
N5 N 0.78411 0.55401 0.11007 0.0
C6 C 0.76054 0.5443 0.01643 0.0
H7 H 0.7531 0.56501 0.27408 0.0
H8 H 0.74186 0.58341 0.21386 0.0
H9 H 0.76752 0.5899 0.2406 0.0
H10 H 0.74944 0.55244 0.98579 0.0
H11 H 0.75351 0.52786 0.03289 0.0
H12 H 0.77422 0.5448 0.98291 0.0
C13 C 0.01401 0.74551 0.28963 0.0
N14 N 0.01685 0.76654 0.28313 0.0
N15 N 0.02086 0.73959 0.2313 0.0
C16 C 0.00415 0.73084 0.35185 0.0
C17 C 0.02785 0.75785 0.18921 0.0
N18 N 0.02539 0.77412 0.22067 0.0
C19 C 0.03719 0.75962 0.11755 0.0
H20 H 0.00708 0.73749 0.39977 0.0
H21 H 0.00969 0.71569 0.35684 0.0
H22 H 0.9875 0.72819 0.34568 0.0
H23 H 0.02878 0.74782 0.08996 0.0
H24 H 0.05307 0.75666 0.12191 0.0
H25 H 0.03758 0.77521 0.0862 0.0
C26 C 0.76426 0.95416 0.23159 0.0
N27 N 0.74492 0.95791 0.2257 0.0
N28 N 0.77464 0.95998 0.16965 0.0
C29 C 0.77271 0.94406 0.2969 0.0
C30 C 0.76092 0.96754 0.12614 0.0
N31 N 0.74284 0.96611 0.16011 0.0
C32 C 0.76578 0.97837 0.05262 0.0
H33 H 0.77866 0.95621 0.32745 0.0
H34 H 0.78529 0.9358 0.28498 0.0
H35 H 0.76067 0.93296 0.32893 0.0
H36 H 0.76322 0.96674 0.01758 0.0
H37 H 0.78186 0.98596 0.04575 0.0
H38 H 0.75591 0.99029 0.03732 0.0
C39 C 0.48763 0.78675 0.47257 0.0
N40 N 0.4835 0.7662 0.47005 0.0
N41 N 0.47975 0.79788 0.41802 0.0
C42 C 0.501 0.796 0.52395 0.0
C43 C 0.47094 0.78338 0.38198 0.0
N44 N 0.47331 0.76413 0.41326 0.0
C45 C 0.46104 0.78831 0.31408 0.0
H46 H 0.49801 0.78638 0.57614 0.0
H47 H 0.49858 0.81215 0.52581 0.0
H48 H 0.51709 0.79619 0.50829 0.0
H49 H 0.47296 0.7929 0.27193 0.0
H50 H 0.45267 0.80158 0.31442 0.0
H51 H 0.45041 0.77469 0.30327 0.0
C52 C 0.27133 0.47906 0.5967 0.0
N53 N 0.25215 0.48307 0.60187 0.0
N54 N 0.28217 0.48489 0.65004 0.0
C55 C 0.27979 0.47057 0.5378 0.0
C56 C 0.26891 0.49275 0.68747 0.0
N57 N 0.2507 0.49175 0.65782 0.0
C58 C 0.27399 0.50229 0.75088 0.0
H59 H 0.26811 0.45916 0.51925 0.0
H60 H 0.29322 0.46313 0.55347 0.0
H61 H 0.28449 0.48355 0.49425 0.0
H62 H 0.27957 0.51912 0.73458 0.0
H63 H 0.28605 0.49527 0.77986 0.0
H64 H 0.26036 0.5005 0.78579 0.0
C65 C 0.01955 0.30109 0.47201 0.0
N66 N 0.01542 0.28016 0.47558 0.0
N67 N 0.01421 0.30657 0.533 0.0
C68 C 0.02869 0.31615 0.40956 0.0
C69 C 0.0066 0.28818 0.57324 0.0
N70 N 0.00732 0.27228 0.53836 0.0
C71 C 0.99882 0.28568 0.6471 0.0
H72 H 0.03733 0.30854 0.37516 0.0
H73 H 0.03877 0.32937 0.42551 0.0
H74 H 0.0163 0.3224 0.37989 0.0
H75 H 0.99237 0.29956 0.65624 0.0
H76 H 0.0116 0.28372 0.68189 0.0
H77 H 0.98705 0.27176 0.66066 0.0
C78 C 0.26073 0.0734 0.53237 0.0
N79 N 0.28032 0.07053 0.53929 0.0
N80 N 0.25128 0.07147 0.5955 0.0
C81 C 0.25044 0.07629 0.46456 0.0
C82 C 0.26591 0.06746 0.64075 0.0
N83 N 0.28344 0.06671 0.60665 0.0
C84 C 0.26352 0.06575 0.71808 0.0
H85 H 0.25092 0.09315 0.44591 0.0
H86 H 0.23431 0.06881 0.47089 0.0
H87 H 0.25825 0.06974 0.42489 0.0
H88 H 0.25898 0.0492 0.74166 0.0
H89 H 0.2517 0.07466 0.73202 0.0
H90 H 0.27809 0.07159 0.74003 0.0
C91 C 0.54266 0.26335 0.29864 0.0
N92 N 0.54758 0.2841 0.29713 0.0
N93 N 0.54728 0.25272 0.36027 0.0
C94 C 0.53429 0.25347 0.23924 0.0
C95 C 0.55494 0.26775 0.39628 0.0
N96 N 0.55525 0.28671 0.35781 0.0
C97 C 0.56022 0.26398 0.4713 0.0
H98 H 0.51747 0.25145 0.24309 0.0
H99 H 0.5389 0.23796 0.24092 0.0
H100 H 0.53952 0.26347 0.18907 0.0
H101 H 0.57648 0.26229 0.47446 0.0
H102 H 0.551 0.24958 0.49968 0.0
H103 H 0.55774 0.27719 0.49704 0.0
Nd104 Nd 0.00392 0.01342 0.81867 0.0
Nd105 Nd 0.02429 0.03449 0.9453 0.0
C106 C 0.98514 0.98794 0.73991 0.0
C107 C 0.98738 0.96859 0.71365 0.0
C108 C 0.97049 0.95734 0.68784 0.0
C109 C 0.9724 0.93969 0.65876 0.0
C110 C 0.99131 0.93283 0.65453 0.0
C111 C 0.00815 0.94391 0.68212 0.0
C112 C 0.00621 0.9616 0.71135 0.0
C113 C 0.04218 0.03579 0.79446 0.0
C114 C 0.0282 0.98615 0.94126 0.0
C115 C 0.04768 0.05984 0.01306 0.0
C116 C 0.04521 0.07805 0.04566 0.0
C117 C 0.05945 0.08494 0.09201 0.0
C118 C 0.05731 0.10225 0.12284 0.0
C119 C 0.04085 0.11315 0.10794 0.0
C120 C 0.02659 0.1061 0.06133 0.0
C121 C 0.02872 0.08874 0.03076 0.0
C122 C 0.98355 0.01964 0.97445 0.0
C123 C 0.99707 0.0598 0.82937 0.0
O124 O 0.98073 0.98638 0.80607 0.0
O125 O 0.99833 0.00443 0.71578 0.0
O126 O 0.02867 0.0351 0.74755 0.0
O127 O 0.03571 0.02396 0.85013 0.0
O128 O 0.01675 0.98698 0.88647 0.0
O129 O 0.0344 1.0025 0.97104 0.0
O130 O 0.04717 0.06254 0.94527 0.0
O131 O 0.03767 0.04185 0.04314 0.0
O132 O 0.99528 0.02826 0.01732 0.0
O133 O 0.99386 0.01939 0.92064 0.0
O134 O 0.01214 0.06045 0.8726 0.0
O135 O 0.98888 0.04261 0.80744 0.0
H136 H 0.9558 0.96238 0.68935 0.0
H137 H 0.95898 0.93141 0.63953 0.0
H138 H 0.02299 0.93928 0.67947 0.0
H139 H 0.01947 0.97001 0.73107 0.0
H140 H 0.07225 0.07688 0.10454 0.0
H141 H 0.06844 0.10691 0.15918 0.0
H142 H 0.01386 0.11413 0.04764 0.0
H143 H 0.01752 0.08367 0.99525 0.0
Nd144 Nd 0.51688 0.00952 0.8281 0.0
Nd145 Nd 0.51442 0.03803 0.93061 0.0
C146 C 0.52364 0.98156 0.75149 0.0
C147 C 0.5406 0.97183 0.73034 0.0
C148 C 0.55825 0.97162 0.76827 0.0
C149 C 0.5754 0.9653 0.74116 0.0
C150 C 0.57514 0.95916 0.6756 0.0
C151 C 0.55708 0.95871 0.6393 0.0
C152 C 0.54002 0.96498 0.66645 0.0
C153 C 0.51513 0.04988 0.76952 0.0
C154 C 0.5589 0.02663 0.89955 0.0
C155 C 0.51201 0.06727 0.00564 0.0
C156 C 0.49494 0.07187 0.04696 0.0
C157 C 0.47909 0.08106 0.01438 0.0
C158 C 0.46188 0.08307 0.05273 0.0
C159 C 0.46008 0.07594 0.12451 0.0
C160 C 0.47627 0.06755 0.15751 0.0
C161 C 0.49355 0.06563 0.1192 0.0
C162 C 0.50222 0.99668 0.98462 0.0
C163 C 0.47328 0.02043 0.86177 0.0
O164 O 0.51672 0.97658 0.81594 0.0
O165 O 0.52513 1.00139 0.72774 0.0
O166 O 0.5046 0.03392 0.74968 0.0
O167 O 0.52595 0.04441 0.81944 0.0
O168 O 0.55028 0.01509 0.85593 0.0
O169 O 0.54852 0.03749 0.93371 0.0
O170 O 0.51047 0.07025 0.93824 0.0
O171 O 0.51917 0.05016 0.02912 0.0
O172 O 0.49288 0.01149 0.99784 0.0
O173 O 0.51746 1.00393 0.94447 0.0
O174 O 0.48352 0.03691 0.88199 0.0
O175 O 0.48241 0.00502 0.84877 0.0
H176 H 0.55898 0.97693 0.81768 0.0
H177 H 0.58895 0.96562 0.77092 0.0
H178 H 0.55636 0.95446 0.58826 0.0
H179 H 0.5266 0.9653 0.63606 0.0
H180 H 0.47963 0.08612 0.95885 0.0
H181 H 0.44962 0.08948 0.02567 0.0
H182 H 0.47548 0.06222 0.21292 0.0
H183 H 0.50556 0.05867 0.14593 0.0
Nd184 Nd 0.50274 0.52471 0.93761 0.0
Nd185 Nd 0.53326 0.52489 0.82169 0.0
C186 C 0.47163 0.52977 0.01449 0.0
C187 C 0.46702 0.54793 0.04189 0.0
C188 C 0.44932 0.54683 0.08256 0.0
C189 C 0.44567 0.56409 0.11099 0.0
C190 C 0.4597 0.58263 0.09893 0.0
C191 C 0.47731 0.58358 0.05736 0.0
C192 C 0.4809 0.56641 0.02907 0.0
C193 C 0.54247 0.53418 0.97085 0.0
C194 C 0.51736 0.56791 0.82494 0.0
C195 C 0.56458 0.52051 0.74438 0.0
C196 C 0.57017 0.50286 0.71635 0.0
C197 C 0.58733 0.50538 0.67192 0.0
C198 C 0.59188 0.48866 0.64236 0.0
C199 C 0.57933 0.46921 0.65719 0.0
C200 C 0.56231 0.46677 0.70273 0.0
C201 C 0.55776 0.48347 0.73187 0.0
C202 C 0.49346 0.51554 0.78884 0.0
C203 C 0.51867 0.48161 0.93409 0.0
O204 O 0.47129 0.53125 0.94713 0.0
O205 O 0.48746 0.52227 0.04023 0.0
O206 O 0.52851 0.52326 0.01417 0.0
O207 O 0.53509 0.54073 0.91432 0.0
O208 O 0.50286 0.55683 0.86837 0.0
O209 O 0.53313 0.5598 0.80706 0.0
O210 O 0.5649 0.51897 0.81178 0.0
O211 O 0.54839 0.52732 0.71883 0.0
O212 O 0.50736 0.5266 0.74554 0.0
O213 O 0.50094 0.50886 0.84501 0.0
O214 O 0.53295 0.49257 0.88955 0.0
O215 O 0.5031 0.48977 0.95354 0.0
H216 H 0.43848 0.53262 0.09288 0.0
H217 H 0.43191 0.56293 0.14236 0.0
H218 H 0.48864 0.59742 0.04812 0.0
H219 H 0.49474 0.56744 0.99817 0.0
H220 H 0.59702 0.52032 0.65939 0.0
H221 H 0.60514 0.49094 0.60776 0.0
H222 H 0.55213 0.45213 0.71419 0.0
H223 H 0.54429 0.48137 0.76542 0.0
Nd224 Nd 0.01261 0.53936 0.81651 0.0
Nd225 Nd 0.01723 0.50718 0.94898 0.0
C226 C 0.00364 0.57223 0.73436 0.0
C227 C 0.98835 0.57499 0.68151 0.0
C228 C 0.97726 0.59151 0.67836 0.0
C229 C 0.96137 0.59312 0.63294 0.0
C230 C 0.95636 0.57826 0.58968 0.0
C231 C 0.96779 0.56197 0.59202 0.0
C232 C 0.98355 0.56029 0.6377 0.0
C233 C 0.00947 0.50029 0.77908 0.0
C234 C 0.97246 0.51037 0.90067 0.0
C235 C 0.0286 0.47825 0.04362 0.0
C236 C 0.0462 0.47733 0.08797 0.0
C237 C 0.05572 0.45963 0.09715 0.0
C238 C 0.07297 0.45894 0.13668 0.0
C239 C 0.08098 0.47595 0.16802 0.0
C240 C 0.07123 0.4936 0.15905 0.0
C241 C 0.05412 0.49434 0.11909 0.0
C242 C 0.01203 0.54613 0.97216 0.0
C243 C 0.05838 0.53346 0.8599 0.0
O244 O 0.99636 0.5665 0.79828 0.0
O245 O 0.01841 0.56239 0.71992 0.0
O246 O 0.0081 0.51711 0.73611 0.0
O247 O 0.01213 0.50475 0.83866 0.0
O248 O 0.98029 0.52855 0.86401 0.0
O249 O 0.98395 0.49705 0.92976 0.0
O250 O 0.03243 0.47948 0.97731 0.0
O251 O 0.01589 0.49049 0.05693 0.0
O252 O 0.00384 0.52895 0.01101 0.0
O253 O 0.02314 0.54244 0.92421 0.0
O254 O 0.05038 0.51917 0.91242 0.0
O255 O 0.04727 0.54424 0.817 0.0
H256 H 0.98061 0.60292 0.71211 0.0
H257 H 0.95292 0.60592 0.63194 0.0
H258 H 0.96412 0.5501 0.56016 0.0
H259 H 0.99165 0.54721 0.63982 0.0
H260 H 0.04995 0.44642 0.07298 0.0
H261 H 0.08023 0.44522 0.14151 0.0
H262 H 0.07673 0.50686 0.18322 0.0
H263 H 0.04716 0.50829 0.11231 0.0
C264 C 0.21995 0.08735 0.58196 0.0
C265 C 0.23012 0.07118 0.61195 0.0
C266 C 0.19959 0.08726 0.6008 0.0
C267 C 0.16252 0.06921 0.74283 0.0
H268 H 0.12099 0.06613 0.60725 0.0
C269 C 0.07877 0.03861 0.82214 0.0
C270 C 0.06358 0.04514 0.77907 0.0
C271 C 0.09923 0.04551 0.80286 0.0
C272 C 0.13234 0.06751 0.6458 0.0
H273 H 0.22692 0.04192 0.68252 0.0
H274 H 0.19168 0.04219 0.71769 0.0
H275 H 0.15668 0.0717 0.56944 0.0
H276 H 0.05763 0.06503 0.68467 0.0
H277 H 0.09329 0.07789 0.65235 0.0
H278 H 0.13847 0.06526 0.81935 0.0
C279 C 0.19944 0.05493 0.67998 0.0
C280 C 0.15278 0.07059 0.62393 0.0
C281 C 0.21955 0.05481 0.66009 0.0
C282 C 0.06911 0.05958 0.71838 0.0
C283 C 0.08956 0.0668 0.69965 0.0
C284 C 0.14212 0.06654 0.76465 0.0
C285 C 0.18932 0.07119 0.65081 0.0
C286 C 0.16797 0.07091 0.67249 0.0
C287 C 0.10493 0.05943 0.74065 0.0
C288 C 0.1267 0.06503 0.71667 0.0
H289 H 0.22787 0.10018 0.54502 0.0
H290 H 0.19199 0.09991 0.57753 0.0
H291 H 0.17406 0.06961 0.78109 0.0
H292 H 0.07489 0.02742 0.8692 0.0
H293 H 0.11051 0.03919 0.83546 0.0
C294 C 0.52483 0.21885 0.38626 0.0
C295 C 0.54419 0.23067 0.38487 0.0
C296 C 0.52122 0.19826 0.42095 0.0
C297 C 0.54758 0.15508 0.50697 0.0
H298 H 0.49666 0.13813 0.61386 0.0
C299 C 0.53443 0.08574 0.73365 0.0
C300 C 0.51723 0.071 0.72883 0.0
C301 C 0.53722 0.10499 0.6896 0.0
C302 C 0.5109 0.14265 0.584 0.0
H303 H 0.57517 0.23016 0.41446 0.0
H304 H 0.56896 0.1947 0.47713 0.0
H305 H 0.50258 0.17147 0.53598 0.0
H306 H 0.48906 0.065 0.67678 0.0
H307 H 0.49367 0.0989 0.60123 0.0
H308 H 0.55609 0.12651 0.55764 0.0
C309 C 0.5565 0.20089 0.45078 0.0
C310 C 0.51427 0.16168 0.53879 0.0
C311 C 0.5601 0.2213 0.41539 0.0
C312 C 0.50249 0.0761 0.68131 0.0
C313 C 0.50509 0.09547 0.63826 0.0
C314 C 0.54433 0.13625 0.55308 0.0
C315 C 0.5369 0.18919 0.45552 0.0
C316 C 0.53272 0.16824 0.49989 0.0
C317 C 0.52266 0.10994 0.6411 0.0
C318 C 0.52601 0.12992 0.59226 0.0
H319 H 0.51232 0.22583 0.3633 0.0
H320 H 0.50604 0.18964 0.42206 0.0
H321 H 0.5618 0.1593 0.47697 0.0
H322 H 0.54602 0.08216 0.76983 0.0
H323 H 0.55081 0.11599 0.69317 0.0
C324 C 0.31779 0.49776 0.61248 0.0
C325 C 0.30345 0.48509 0.6602 0.0
C326 C 0.33849 0.49909 0.6247 0.0
C327 C 0.3731 0.49275 0.7675 0.0
H328 H 0.41361 0.49486 0.62152 0.0
C329 C 0.45826 0.49719 0.82189 0.0
C330 C 0.47192 0.51055 0.77325 0.0
C331 C 0.43778 0.49268 0.80743 0.0
C332 C 0.4025 0.49451 0.66271 0.0
H333 H 0.29907 0.46319 0.75592 0.0
H334 H 0.33538 0.46548 0.77807 0.0
H335 H 0.37766 0.48916 0.59659 0.0
H336 H 0.47499 0.52972 0.67162 0.0
H337 H 0.43918 0.52217 0.64669 0.0
H338 H 0.39783 0.49851 0.83335 0.0
C339 C 0.33069 0.47462 0.7317 0.0
C340 C 0.38191 0.49119 0.64843 0.0
C341 C 0.31002 0.47324 0.71915 0.0
C342 C 0.46478 0.51928 0.70987 0.0
C343 C 0.44429 0.51484 0.69546 0.0
C344 C 0.39367 0.49616 0.78171 0.0
C345 C 0.34514 0.48778 0.68504 0.0
C346 C 0.36699 0.49038 0.7006 0.0
C347 C 0.43052 0.50151 0.74413 0.0
C348 C 0.40863 0.4972 0.72941 0.0
H349 H 0.31288 0.50701 0.56679 0.0
H350 H 0.34923 0.50949 0.5881 0.0
H351 H 0.36197 0.49253 0.80854 0.0
H352 H 0.4634 0.49022 0.87117 0.0
H353 H 0.42766 0.48215 0.8457 0.0
C354 C 0.02624 0.33053 0.61356 0.0
C355 C 0.01644 0.32694 0.55271 0.0
C356 C 0.02633 0.34933 0.63781 0.0
C357 C 0.01955 0.40423 0.58559 0.0
H358 H 0.0061 0.40141 0.78046 0.0
C359 C 0.00341 0.47692 0.69124 0.0
C360 C 0.00945 0.47971 0.75784 0.0
C361 C 0.00444 0.45823 0.66765 0.0
C362 C 0.0102 0.40261 0.72614 0.0
H363 H -0.00031 0.34052 0.46822 0.0
H364 H 0.00024 0.37373 0.50938 0.0
H365 H 0.0084 0.36958 0.73511 0.0
H366 H 0.02115 0.46491 0.85239 0.0
H367 H 0.02349 0.4323 0.81086 0.0
H368 H 0.02177 0.43719 0.5764 0.0
C369 C 0.00778 0.36191 0.5387 0.0
C370 C 0.01146 0.38428 0.70003 0.0
C371 C 0.00751 0.34296 0.51486 0.0
C372 C 0.01629 0.46318 0.80095 0.0
C373 C 0.01755 0.44445 0.777 0.0
C374 C 0.01852 0.42257 0.61177 0.0
C375 C 0.01685 0.3652 0.60128 0.0
C376 C 0.01601 0.38482 0.62929 0.0
C377 C 0.01183 0.44176 0.70957 0.0
C378 C 0.01362 0.42208 0.68238 0.0
H379 H 0.03351 0.31856 0.64311 0.0
H380 H 0.03378 0.35143 0.6854 0.0
H381 H 0.0234 0.40529 0.5311 0.0
H382 H 0.99793 0.48929 0.65687 0.0
H383 H -0.00066 0.45674 0.61629 0.0
C384 C 0.80199 0.95243 0.09631 0.0
C385 C 0.79585 0.96027 0.15426 0.0
C386 C 0.82253 0.955 0.07619 0.0
C387 C 0.87428 0.96681 0.13703 0.0
H388 H 0.88838 0.99246 0.94631 0.0
C389 C 0.95344 0.01139 0.05542 0.0
C390 C 0.96218 0.01031 0.99084 0.0
C391 C 0.9334 1.00243 0.07333 0.0
C392 C 0.88474 0.98493 0.99936 0.0
H393 H 0.80617 0.97638 0.23772 0.0
H394 H 0.84219 0.98046 0.20393 0.0
H395 H 0.85278 0.98097 0.98331 0.0
H396 H 0.95679 0.99928 0.89377 0.0
H397 H 0.92157 0.98317 0.92541 0.0
H398 H 0.90612 0.97089 0.15355 0.0
C399 C 0.83116 0.97228 0.17402 0.0
C400 C 0.86434 0.97838 0.02056 0.0
C401 C 0.81061 0.96992 0.19357 0.0
C402 C 0.95042 1.00019 0.94403 0.0
C403 C 0.93026 0.9911 0.96209 0.0
C404 C 0.89465 0.97318 0.11577 0.0
C405 C 0.8373 0.96522 0.11434 0.0
C406 C 0.85891 0.96973 0.09001 0.0
C407 C 0.92156 0.99204 0.02722 0.0
C408 C 0.9001 0.98286 0.04716 0.0
H409 H 0.7908 0.94478 0.06571 0.0
H410 H 0.82686 0.94924 0.03038 0.0
H411 H 0.87053 0.95988 0.19061 0.0
H412 H 0.96211 0.01924 0.09239 0.0
H413 H 0.9271 1.00394 0.12316 0.0
C414 C 0.5021 0.82765 0.3515 0.0
C415 C 0.48429 0.81972 0.39198 0.0
C416 C 0.50468 0.84773 0.3131 0.0
C417 C 0.47374 0.88653 0.23349 0.0
H418 H 0.52589 0.92193 0.19407 0.0
C419 C 0.48289 0.9698 0.07636 0.0
C420 C 0.49934 0.97588 0.02807 0.0
C421 C 0.48101 0.95088 0.12182 0.0
C422 C 0.51126 0.91211 0.20411 0.0
H423 H 0.45554 0.82632 0.42682 0.0
H424 H 0.46016 0.86185 0.36178 0.0
H425 H 0.52327 0.88967 0.27711 0.0
H426 H 0.52646 0.96674 0.98807 0.0
H427 H 0.52317 0.93361 0.06755 0.0
H428 H 0.46174 0.90902 0.16065 0.0
C429 C 0.47206 0.85254 0.35839 0.0
C430 C 0.50973 0.89363 0.2518 0.0
C431 C 0.46948 0.8324 0.39641 0.0
C432 C 0.51364 0.96246 0.02491 0.0
C433 C 0.51184 0.94359 0.07075 0.0
C434 C 0.47524 0.90505 0.18617 0.0
C435 C 0.48942 0.86025 0.31455 0.0
C436 C 0.49096 0.88054 0.26689 0.0
C437 C 0.49561 0.93769 0.1202 0.0
C438 C 0.49403 0.918 0.17064 0.0
H439 H 0.51345 0.81782 0.34662 0.0
H440 H 0.51812 0.85298 0.27943 0.0
H441 H 0.45911 0.87666 0.24252 0.0
H442 H 0.47165 0.97985 0.07993 0.0
H443 H 0.4684 0.94686 0.15956 0.0
C444 C 0.72581 0.57494 0.04636 0.0
C445 C 0.73201 0.56287 0.10554 0.0
C446 C 0.70521 0.57398 0.03306 0.0
C447 C 0.65365 0.55821 0.11428 0.0
H448 H 0.63819 0.55089 0.92894 0.0
C449 C 0.57094 0.53053 0.05066 0.0
C450 C 0.56397 0.53917 0.98688 0.0
C451 C 0.59139 0.53494 0.06559 0.0
C452 C 0.64223 0.55325 0.98066 0.0
H453 H 0.72202 0.54101 0.19857 0.0
H454 H 0.68579 0.53929 0.176 0.0
H455 H 0.67397 0.55652 0.95502 0.0
H456 H 0.57275 0.55931 0.8888 0.0
H457 H 0.60843 0.56733 0.91519 0.0
H458 H 0.62191 0.55489 0.14004 0.0
C459 C 0.69676 0.54954 0.1398 0.0
C460 C 0.66275 0.55646 0.99561 0.0
C461 C 0.71739 0.55044 0.15275 0.0
C462 C 0.57776 0.55241 0.93837 0.0
C463 C 0.5982 0.5569 0.95337 0.0
C464 C 0.63312 0.5551 0.09926 0.0
C465 C 0.69047 0.56104 0.07919 0.0
C466 C 0.66869 0.55879 0.06271 0.0
C467 C 0.60529 0.54815 0.01709 0.0
C468 C 0.62714 0.55239 0.03242 0.0
H469 H 0.73699 0.58478 0.00992 0.0
H470 H 0.70081 0.58324 0.98648 0.0
H471 H 0.65778 0.56022 0.16625 0.0
H472 H 0.56063 0.52018 0.08883 0.0
H473 H 0.59637 0.52766 0.11467 0.0
C474 C 0.03746 0.71275 0.18857 0.0
C475 C 0.02 0.71893 0.21449 0.0
C476 C 0.03627 0.69404 0.16304 0.0
C477 C 0.00656 0.64226 0.17029 0.0
H478 H 0.03002 0.64491 0.98624 0.0
C479 C 0.99639 0.56957 0.03767 0.0
C480 C 0.01195 0.56677 0.99275 0.0
C481 C 0.99682 0.58832 0.06255 0.0
C482 C 0.02366 0.64367 0.03815 0.0
H483 H 0.98774 0.70987 0.23667 0.0
H484 H 0.98574 0.67657 0.19481 0.0
H485 H 0.0323 0.67636 0.03726 0.0
H486 H 0.04013 0.58157 0.93797 0.0
H487 H 0.0415 0.61398 0.98345 0.0
H488 H 0.99861 0.60957 0.17311 0.0
C489 C 0.00032 0.68644 0.1933 0.0
C490 C 0.02489 0.66182 0.06725 0.0
C491 C 0.00147 0.70541 0.21767 0.0
C492 C 0.02783 0.58332 0.97216 0.0
C493 C 0.02852 0.60199 0.99822 0.0
C494 C 0.00567 0.62401 0.14183 0.0
C495 C 0.01765 0.68076 0.16419 0.0
C496 C 0.01631 0.66136 0.13358 0.0
C497 C 0.0131 0.60475 0.04455 0.0
C498 C 0.01412 0.62437 0.07503 0.0
H499 H 0.05201 0.72264 0.18689 0.0
H500 H 0.04995 0.68996 0.14212 0.0
H501 H -2e-05 0.64134 0.22179 0.0
H502 H 0.98383 0.55715 0.05399 0.0
H503 H 0.9843 0.58981 0.09614 0.0
C504 C 0.01991 0.23946 0.57603 0.0
C505 C 0.00358 0.25052 0.56668 0.0
C506 C 0.01655 0.21829 0.60287 0.0
C507 C 0.0063 0.17847 0.70487 0.0
H508 H 0.96328 0.1395 0.64585 0.0
C509 C 0.99146 0.09504 0.84454 0.0
C510 C 0.9904 0.07974 0.80233 0.0
C511 C 0.98936 0.11535 0.81666 0.0
C512 C 0.97535 0.15022 0.66271 0.0
H513 H 0.97101 0.24849 0.57477 0.0
H514 H 0.96492 0.21119 0.62331 0.0
H515 H 0.96781 0.17628 0.59257 0.0
H516 H 0.98486 0.07321 0.69899 0.0
H517 H 0.98152 0.10906 0.64939 0.0
H518 H 0.01424 0.15266 0.7736 0.0
C519 C 0.98032 0.21885 0.60977 0.0
C520 C 0.97785 0.17126 0.63265 0.0
C521 C 0.98375 0.24011 0.58287 0.0
C522 C 0.98568 0.08475 0.73262 0.0
C523 C 0.98378 0.10525 0.70433 0.0
C524 C 0.00377 0.15759 0.73492 0.0
C525 C 0.99674 0.20779 0.62079 0.0
C526 C 0.99348 0.18555 0.65316 0.0
C527 C 0.98642 0.12091 0.74564 0.0
C528 C 0.98829 0.14319 0.71429 0.0
H529 H 0.03526 0.24733 0.5628 0.0
H530 H 0.02947 0.21013 0.6096 0.0
H531 H 0.01832 0.18912 0.72238 0.0
H532 H 0.99474 0.09148 0.89876 0.0
H533 H 0.99091 0.12692 0.85026 0.0
C534 C 0.30138 0.04258 0.6826 0.0
C535 C 0.30182 0.06137 0.63699 0.0
C536 C 0.31926 0.03689 0.71019 0.0
C537 C 0.36045 0.02311 0.7292 0.0
H538 H 0.40104 0.06525 0.78371 0.0
C539 C 0.44237 0.01002 0.79718 0.0
C540 C 0.45169 0.02061 0.84763 0.0
C541 C 0.423 0.01323 0.77598 0.0
C542 C 0.38977 0.05321 0.76961 0.0
H543 H 0.32092 0.08901 0.58408 0.0
H544 H 0.35246 0.07896 0.63085 0.0
H545 H 0.36955 0.07481 0.73791 0.0
H546 H 0.44761 0.04147 0.91949 0.0
H547 H 0.41369 0.04652 0.88431 0.0
H548 H 0.38059 1.00142 0.76253 0.0
C549 C 0.3383 0.06873 0.64646 0.0
C550 C 0.37183 0.05878 0.74229 0.0
C551 C 0.32036 0.07446 0.61929 0.0
C552 C 0.44087 0.03334 0.87971 0.0
C553 C 0.4215 0.03635 0.8592 0.0
C554 C 0.37841 0.01751 0.75687 0.0
C555 C 0.33795 0.04987 0.69227 0.0
C556 C 0.35698 0.04382 0.72159 0.0
C557 C 0.41261 0.02693 0.80543 0.0
C558 C 0.39326 0.03251 0.77744 0.0
H559 H 0.28719 0.0322 0.69604 0.0
H560 H 0.31842 0.0224 0.74594 0.0
H561 H 0.3494 0.01125 0.713 0.0
H562 H 0.45044 1.00019 0.77143 0.0
H563 H 0.41661 0.0058 0.73422 0.0
C564 C 0.54686 0.31992 0.38142 0.0
C565 C 0.56097 0.30629 0.38049 0.0
C566 C 0.55229 0.33877 0.40462 0.0
C567 C 0.58829 0.36385 0.5165 0.0
H568 H 0.56758 0.41343 0.43214 0.0
C569 C 0.5804 0.43138 0.66022 0.0
C570 C 0.58315 0.45172 0.62286 0.0
C571 C 0.58152 0.41458 0.62641 0.0
C572 C 0.57379 0.39984 0.4557 0.0
H573 H 0.59171 0.3014 0.40136 0.0
H574 H 0.60143 0.33451 0.44225 0.0
H575 H 0.56214 0.38254 0.37793 0.0
H576 H 0.5901 0.47048 0.52123 0.0
H577 H 0.59244 0.4411 0.46226 0.0
H578 H 0.59988 0.38114 0.5944 0.0
C579 C 0.58612 0.33061 0.42571 0.0
C580 C 0.57043 0.38206 0.42512 0.0
C581 C 0.58065 0.31176 0.4024 0.0
C582 C 0.58802 0.45499 0.55148 0.0
C583 C 0.58914 0.43816 0.5176 0.0
C584 C 0.59168 0.38165 0.54703 0.0
C585 C 0.57195 0.34427 0.42749 0.0
C586 C 0.57727 0.36374 0.45598 0.0
C587 C 0.58545 0.41774 0.55447 0.0
C588 C 0.5841 0.3997 0.51776 0.0
H589 H 0.53156 0.31577 0.36519 0.0
H590 H 0.54092 0.34878 0.40641 0.0
H591 H 0.59364 0.34995 0.54182 0.0
H592 H 0.57688 0.42841 0.71544 0.0
H593 H 0.57842 0.39905 0.65628 0.0
C594 C 0.23304 0.51909 0.69114 0.0
C595 C 0.23272 0.49847 0.68165 0.0
C596 C 0.21548 0.52549 0.71426 0.0
C597 C 0.17307 0.53716 0.72534 0.0
H598 H 0.13779 0.49887 0.86361 0.0
C599 C 0.08908 0.5438 0.77955 0.0
C600 C 0.08055 0.53611 0.84648 0.0
C601 C 0.10933 0.54249 0.76402 0.0
C602 C 0.14759 0.50994 0.82583 0.0
H603 H 0.21416 0.46844 0.68757 0.0
H604 H 0.18325 0.47957 0.72645 0.0
H605 H 0.16976 0.48971 0.82815 0.0
H606 H 0.08696 0.52283 0.95112 0.0
H607 H 0.12235 0.52115 0.92459 0.0
H608 H 0.15085 0.55747 0.72362 0.0
C609 C 0.19707 0.49077 0.71755 0.0
C610 C 0.1658 0.50452 0.80468 0.0
C611 C 0.21462 0.48441 0.69469 0.0
C612 C 0.09303 0.5286 0.89875 0.0
C613 C 0.11329 0.52751 0.88344 0.0
C614 C 0.15482 0.54263 0.74672 0.0
C615 C 0.19731 0.51135 0.72806 0.0
C616 C 0.1786 0.51789 0.75339 0.0
C617 C 0.12145 0.53366 0.81531 0.0
C618 C 0.14174 0.52896 0.79663 0.0
H619 H 0.24686 0.5302 0.68035 0.0
H620 H 0.21619 0.54141 0.72216 0.0
H621 H 0.18256 0.54776 0.68546 0.0
H622 H 0.07982 0.54962 0.73813 0.0
H623 H 0.11507 0.54727 0.71092 0.0
C624 C 0.04356 0.80916 0.22622 0.0
C625 C 0.03028 0.79588 0.19237 0.0
C626 C 0.04722 0.83054 0.20143 0.0
C627 C 0.04666 0.86864 0.04477 0.0
H628 H 0.03536 0.90716 0.16434 0.0
C629 C 0.02827 0.94875 0.93537 0.0
C630 C 0.0338 0.96566 0.96994 0.0
C631 C 0.03181 0.92895 0.96387 0.0
C632 C 0.03905 0.89672 0.13058 0.0
H633 H 0.00987 0.79427 0.10828 0.0
H634 H 0.01693 0.83157 0.06263 0.0
H635 H 0.03407 0.87039 0.21264 0.0
H636 H 0.04806 0.97505 0.06086 0.0
H637 H 0.05457 0.94026 0.11048 0.0
H638 H 0.05159 0.89469 0.96266 0.0
C639 C 0.02461 0.82548 0.10799 0.0
C640 C 0.03822 0.87567 0.15824 0.0
C641 C 0.02065 0.80423 0.13365 0.0
C642 C 0.04359 0.96236 0.03294 0.0
C643 C 0.04719 0.94241 0.06157 0.0
C644 C 0.04777 0.88966 0.01735 0.0
C645 C 0.03787 0.83883 0.14177 0.0
C646 C 0.04142 0.86139 0.11506 0.0
C647 C 0.04113 0.92543 0.0276 0.0
C648 C 0.0433 0.90386 0.05936 0.0
H649 H 0.05092 0.80295 0.27213 0.0
H650 H 0.05744 0.84056 0.22844 0.0
H651 H 0.04949 0.85794 0.01071 0.0
H652 H 0.02072 0.9506 0.8867 0.0
H653 H 0.02656 0.91626 0.93675 0.0
C654 C 0.71692 0.98886 0.16229 0.0
C655 C 0.72514 0.9739 0.13251 0.0
C656 C 0.70003 0.99682 0.13432 0.0
C657 C 0.6717 1.00343 0.974 0.0
H658 H 0.62758 0.00921 0.09673 0.0
C659 C 0.59158 0.01353 0.88206 0.0
C660 C 0.58039 0.02571 0.91551 0.0
C661 C 0.61072 0.01 0.90433 0.0
C662 C 0.63992 0.00806 0.06172 0.0
H663 H 0.72244 0.95534 0.05123 0.0
H664 H 0.69278 0.96918 0.00182 0.0
H665 H 0.65781 0.997 0.14535 0.0
H666 H 0.58116 0.0449 0.99554 0.0
H667 H 0.6147 0.03901 0.03354 0.0
H668 H 0.65367 0.01425 0.89032 0.0
C669 C 0.69946 0.97497 0.04624 0.0
C670 C 0.65722 1.001 0.08963 0.0
C671 C 0.71629 0.96697 0.07447 0.0
C672 C 0.58928 0.0353 0.96895 0.0
C673 C 0.60845 0.0318 0.99114 0.0
C674 C 0.6544 0.01053 0.94605 0.0
C675 C 0.69117 0.99002 0.0758 0.0
C676 C 0.6732 0.99839 0.04608 0.0
C677 C 0.61913 0.01864 0.96036 0.0
C678 C 0.63822 0.01273 0.9896 0.0
H679 H 0.72378 0.99458 0.2065 0.0
H680 H 0.69413 0.00856 0.15778 0.0
H681 H 0.68393 1.0019 0.93915 0.0
H682 H 0.58529 0.00604 0.84033 0.0
H683 H 0.61848 0.9997 0.87969 0.0
C684 C 0.45863 0.72715 0.42145 0.0
C685 C 0.4697 0.74542 0.38384 0.0
C686 C 0.45613 0.70876 0.39379 0.0
C687 C 0.47881 0.68467 0.25939 0.0
H688 H 0.42783 0.64675 0.28082 0.0
C689 C 0.46235 0.62101 0.09476 0.0
C690 C 0.45669 0.60074 0.13151 0.0
C691 C 0.46217 0.63812 0.12773 0.0
C692 C 0.44216 0.65719 0.2749 0.0
H693 H 0.48712 0.75896 0.28912 0.0
H694 H 0.48201 0.72735 0.239 0.0
H695 H 0.43138 0.67781 0.3355 0.0
H696 H 0.44531 0.58263 0.23087 0.0
H697 H 0.44457 0.61275 0.2881 0.0
H698 H 0.48941 0.66439 0.19746 0.0
C699 C 0.47552 0.7269 0.29029 0.0
C700 C 0.44425 0.67489 0.30637 0.0
C701 C 0.47818 0.74511 0.31829 0.0
C702 C 0.44964 0.59803 0.20096 0.0
C703 C 0.44927 0.61523 0.23383 0.0
C704 C 0.47664 0.6672 0.2274 0.0
C705 C 0.46465 0.70843 0.32791 0.0
C706 C 0.46254 0.68898 0.29818 0.0
C707 C 0.4561 0.63536 0.19793 0.0
C708 C 0.45824 0.65344 0.23416 0.0
H709 H 0.45207 0.72713 0.47232 0.0
H710 H 0.44788 0.69477 0.42446 0.0
H711 H 0.4933 0.69484 0.25359 0.0
H712 H 0.46738 0.62366 0.04077 0.0
H713 H 0.46716 0.65354 0.09864 0.0
C714 C 0.79963 0.52513 0.07752 0.0
C715 C 0.80149 0.5458 0.08833 0.0
C716 C 0.81664 0.51711 0.05791 0.0
C717 C 0.85466 0.51284 0.96952 0.0
H718 H 0.90224 0.51854 0.08038 0.0
C719 C 0.93742 0.51673 0.87258 0.0
C720 C 0.95041 0.50636 0.9166 0.0
C721 C 0.91725 0.51632 0.89351 0.0
C722 C 0.88897 0.51654 0.04951 0.0
H723 H 0.82232 0.5743 0.08724 0.0
H724 H 0.85233 0.56007 0.05566 0.0
H725 H 0.87089 0.52902 0.11864 0.0
H726 H 0.95226 0.48645 0.01524 0.0
H727 H 0.91701 0.48616 0.05252 0.0
H728 H 0.87314 0.5014 0.89846 0.0
C729 C 0.83769 0.55015 0.06177 0.0
C730 C 0.87115 0.52269 0.07108 0.0
C731 C 0.82063 0.55827 0.07985 0.0
C732 C 0.94255 0.49451 0.98015 0.0
C733 C 0.92246 0.49442 0.00165 0.0
C734 C 0.87265 0.50705 0.9472 0.0
C735 C 0.83583 0.52952 0.05053 0.0
C736 C 0.85397 0.52119 0.03075 0.0
C737 C 0.90984 0.50582 0.9593 0.0
C738 C 0.89002 0.50912 0.98662 0.0
H739 H 0.78505 0.51515 0.08511 0.0
H740 H 0.81491 0.50112 0.04983 0.0
H741 H 0.84157 0.51163 0.93756 0.0
H742 H 0.94309 0.52592 0.82319 0.0
H743 H 0.90787 0.52534 0.86011 0.0
C744 C 0.00163 0.25507 0.40193 0.0
C745 C 0.01838 0.26772 0.42317 0.0
C746 C 0.00432 0.2397 0.36282 0.0
C747 C 0.0417 0.22072 0.25533 0.0
H748 H 0.00705 0.16771 0.31193 0.0
C749 C 0.05554 0.14577 0.15361 0.0
C750 C 0.0385 0.13163 0.14117 0.0
C751 C 0.05333 0.16289 0.18541 0.0
C752 C 0.0167 0.18245 0.29455 0.0
H753 H 0.05111 0.27438 0.41996 0.0
H754 H 0.05602 0.24769 0.35028 0.0
H755 H 0.00283 0.19686 0.36905 0.0
H756 H 0.00568 0.12469 0.15335 0.0
H757 H 0.0018 0.15465 0.20678 0.0
H758 H 0.05557 0.20624 0.18073 0.0
C759 C 0.04071 0.2498 0.36303 0.0
C760 C 0.01427 0.19924 0.32748 0.0
C761 C 0.03796 0.26519 0.40248 0.0
C762 C 0.01918 0.13526 0.16118 0.0
C763 C 0.01697 0.15238 0.19285 0.0
C764 C 0.04409 0.2039 0.22213 0.0
C765 C 0.02391 0.23648 0.34412 0.0
C766 C 0.02666 0.21867 0.30827 0.0
C767 C 0.03401 0.16643 0.2058 0.0
C768 C 0.03159 0.18449 0.24112 0.0
H769 H 0.98642 0.25657 0.41822 0.0
H770 H 0.991 0.23003 0.34841 0.0
H771 H 0.05142 0.23546 0.23868 0.0
H772 H 0.07067 0.14373 0.13827 0.0
H773 H 0.06685 0.17317 0.19496 0.0
C774 C 0.30471 0.05307 0.48456 0.0
C775 C 0.29516 0.07052 0.48521 0.0
C776 C 0.32117 0.05397 0.43871 0.0
C777 C 0.36165 0.09184 0.33781 0.0
H778 H 0.37156 0.0441 0.2585 0.0
C779 C 0.43074 0.09355 0.152 0.0
C780 C 0.44095 0.07626 0.16404 0.0
C781 C 0.41232 0.09338 0.18737 0.0
C782 C 0.36907 0.05752 0.28068 0.0
H783 H 0.29447 0.10223 0.43722 0.0
H784 H 0.32304 0.10381 0.35509 0.0
H785 H 0.33979 0.0427 0.32351 0.0
H786 H 0.43971 0.04518 0.22238 0.0
H787 H 0.40773 0.04498 0.28451 0.0
H788 H 0.39101 0.1066 0.29507 0.0
C789 C 0.31812 0.08953 0.39093 0.0
C790 C 0.35086 0.05672 0.31794 0.0
C791 C 0.30165 0.0886 0.4371 0.0
C792 C 0.43236 0.05885 0.21248 0.0
C793 C 0.4139 0.05863 0.24744 0.0
C794 C 0.37984 0.09267 0.30024 0.0
C795 C 0.32834 0.07234 0.39214 0.0
C796 C 0.34701 0.07377 0.34778 0.0
C797 C 0.40361 0.07584 0.23509 0.0
C798 C 0.38387 0.07541 0.27204 0.0
H799 H 0.29984 0.03898 0.52135 0.0
H800 H 0.32877 0.0405 0.44177 0.0
H801 H 0.35936 0.10515 0.36093 0.0
H802 H 0.43703 0.10724 0.1153 0.0
H803 H 0.40471 0.10685 0.17646 0.0
C804 C 0.56146 0.3169 0.22129 0.0
C805 C 0.54516 0.30082 0.24199 0.0
C806 C 0.55834 0.33533 0.17962 0.0
C807 C 0.52724 0.361 0.05483 0.0
H808 H 0.53935 0.4083 0.14964 0.0
C809 C 0.53216 0.44841 0.92878 0.0
C810 C 0.52024 0.45977 0.96306 0.0
C811 C 0.53422 0.42803 0.95783 0.0
C812 C 0.53591 0.39522 0.12262 0.0
H813 H 0.51314 0.29071 0.23169 0.0
H814 H 0.50778 0.3228 0.15549 0.0
H815 H 0.54555 0.37401 0.2059 0.0
H816 H 0.50111 0.45866 0.05446 0.0
H817 H 0.50531 0.42332 0.10614 0.0
H818 H 0.51807 0.38246 0.97073 0.0
C819 C 0.5229 0.32116 0.17263 0.0
C820 C 0.53953 0.37569 0.15457 0.0
C821 C 0.52596 0.30281 0.21566 0.0
C822 C 0.51033 0.45029 0.02665 0.0
C823 C 0.51276 0.43012 0.05636 0.0
C824 C 0.52405 0.38071 0.02209 0.0
C825 C 0.53894 0.33782 0.15636 0.0
C826 C 0.53518 0.35841 0.1211 0.0
C827 C 0.52479 0.41885 0.02237 0.0
C828 C 0.52824 0.39795 0.05599 0.0
H829 H 0.57641 0.31558 0.24056 0.0
H830 H 0.57095 0.34792 0.16732 0.0
H831 H 0.52378 0.34786 0.02816 0.0
H832 H 0.53995 0.45526 0.87963 0.0
H833 H 0.54366 0.41967 0.93086 0.0
C834 C 0.23112 0.49898 0.51309 0.0
C835 C 0.23674 0.48113 0.55202 0.0
C836 C 0.21516 0.49731 0.46806 0.0
C837 C 0.1683 0.46375 0.44142 0.0
H838 H 0.17317 0.49553 0.25547 0.0
C839 C 0.10287 0.45709 0.25217 0.0
C840 C 0.09952 0.47545 0.20934 0.0
C841 C 0.12018 0.45678 0.29152 0.0
C842 C 0.17144 0.48674 0.30752 0.0
H843 H 0.23036 0.44768 0.57604 0.0
H844 H 0.20211 0.44456 0.49727 0.0
H845 H 0.20241 0.49697 0.3286 0.0
H846 H 0.11213 0.50779 0.17348 0.0
H847 H 0.14168 0.5075 0.24406 0.0
H848 H 0.1372 0.45403 0.4216 0.0
C849 C 0.21012 0.45984 0.50109 0.0
C850 C 0.18824 0.48751 0.34923 0.0
C851 C 0.22628 0.46155 0.54549 0.0
C852 C 0.11399 0.49344 0.20664 0.0
C853 C 0.13117 0.49318 0.2464 0.0
C854 C 0.15141 0.46317 0.4 0.0
C855 C 0.20437 0.47773 0.46208 0.0
C856 C 0.18681 0.47612 0.41672 0.0
C857 C 0.13451 0.47486 0.28943 0.0
C858 C 0.15271 0.47478 0.33263 0.0
H859 H 0.23897 0.51419 0.51842 0.0
H860 H 0.2109 0.51136 0.4393 0.0
H861 H 0.16672 0.45501 0.49358 0.0
H862 H 0.09198 0.44298 0.25617 0.0
H863 H 0.12234 0.44231 0.32334 0.0
C864 C 0.9967 0.79256 0.31162 0.0
C865 C 0.01085 0.7792 0.33104 0.0
C866 C 0.99373 0.80794 0.35035 0.0
C867 C 0.00324 0.82575 0.51965 0.0
H868 H 0.99878 0.87963 0.41287 0.0
C869 C 0.00632 0.90026 0.64528 0.0
C870 C 0.99344 0.91457 0.61991 0.0
C871 C 0.00827 0.88328 0.61228 0.0
C872 C -0.00027 0.86466 0.44378 0.0
H873 H 0.03278 0.77117 0.4066 0.0
H874 H 0.02747 0.79789 0.47558 0.0
H875 H 0.00174 0.85061 0.35353 0.0
H876 H 0.97273 0.92211 0.53864 0.0
H877 H 0.97573 0.89249 0.48256 0.0
H878 H 0.00127 0.83991 0.60999 0.0
C879 C 0.01845 0.79638 0.43073 0.0
C880 C 0.00142 0.84793 0.40959 0.0
C881 C 0.02144 0.78098 0.39164 0.0
C882 C 0.98259 0.91136 0.56053 0.0
C883 C 0.98454 0.89444 0.52762 0.0
C884 C 0.00152 0.84252 0.55396 0.0
C885 C 0.0049 0.81043 0.40962 0.0
C886 C 0.00309 0.82819 0.44693 0.0
C887 C 0.99744 0.88014 0.55276 0.0
C888 C -0.00036 0.86222 0.51654 0.0
H889 H 0.98854 0.79158 0.26463 0.0
H890 H 0.98292 0.81818 0.33301 0.0
H891 H 0.00435 0.81078 0.55026 0.0
H892 H 0.0148 0.90204 0.69115 0.0
H893 H 0.0185 0.87278 0.63297 0.0
C894 C 0.73173 0.96408 0.33732 0.0
C895 C 0.72923 0.95412 0.27952 0.0
C896 C 0.7157 0.9621 0.38601 0.0
C897 C 0.65955 0.94862 0.40261 0.0
H898 H 0.66824 0.94938 0.59742 0.0
C899 C 0.59273 0.93937 0.59996 0.0
C900 C 0.59388 0.9547 0.6424 0.0
C901 C 0.60978 0.93705 0.56142 0.0
C902 C 0.66561 0.9492 0.54311 0.0
H903 H 0.70864 0.93381 0.22771 0.0
H904 H 0.68071 0.92962 0.3137 0.0
H905 H 0.69701 0.94913 0.51906 0.0
H906 H 0.61426 0.979 0.67957 0.0
H907 H 0.64408 0.97459 0.61337 0.0
H908 H 0.62816 0.94857 0.42682 0.0
C909 C 0.69477 0.93944 0.32098 0.0
C910 C 0.6821 0.94914 0.49808 0.0
C911 C 0.71074 0.94163 0.27205 0.0
C912 C 0.61281 0.96687 0.64814 0.0
C913 C 0.62992 0.96441 0.61 0.0
C914 C 0.64309 0.94844 0.44771 0.0
C915 C 0.69689 0.94996 0.37803 0.0
C916 C 0.67931 0.94902 0.42705 0.0
C917 C 0.62845 0.94983 0.56491 0.0
C918 C 0.64594 0.94888 0.51833 0.0
H919 H 0.74585 0.97402 0.3432 0.0
H920 H 0.71786 0.9707 0.42849 0.0
H921 H 0.65679 0.94901 0.34816 0.0
H922 H 0.57853 0.9294 0.59539 0.0
H923 H 0.60828 0.92543 0.52799 0.0
C924 C 0.506 0.7398 0.49026 0.0
C925 C 0.49074 0.74951 0.51453 0.0
C926 C 0.51079 0.72148 0.52849 0.0
C927 C 0.50285 0.68693 0.70126 0.0
H928 H 0.51273 0.64486 0.59398 0.0
C929 C 0.50066 0.59979 0.81909 0.0
C930 C 0.51585 0.58976 0.79521 0.0
C931 C 0.49877 0.62009 0.7885 0.0
C932 C 0.51022 0.65651 0.62474 0.0
H933 H 0.46872 0.74834 0.59731 0.0
H934 H 0.47673 0.71608 0.66449 0.0
H935 H 0.50772 0.67893 0.53469 0.0
H936 H 0.54121 0.5934 0.72121 0.0
H937 H 0.53784 0.62865 0.66792 0.0
H938 H 0.50483 0.66408 0.79139 0.0
C939 C 0.4854 0.72269 0.61678 0.0
C940 C 0.50743 0.67613 0.59073 0.0
C941 C 0.48077 0.74113 0.57861 0.0
C942 C 0.52931 0.60061 0.74088 0.0
C943 C 0.52731 0.62079 0.71 0.0
C944 C 0.50548 0.6672 0.73532 0.0
C945 C 0.50019 0.71236 0.59149 0.0
C946 C 0.50373 0.69165 0.62843 0.0
C947 C 0.51192 0.63071 0.73296 0.0
C948 C 0.50923 0.65178 0.6974 0.0
H949 H 0.51372 0.74608 0.44055 0.0
H950 H 0.52253 0.71425 0.50794 0.0
H951 H 0.50027 0.69853 0.73209 0.0
H952 H 0.49007 0.59192 0.86098 0.0
H953 H 0.48668 0.62727 0.80709 0.0
C954 C 0.80543 0.54776 0.25073 0.0
C955 C 0.79869 0.56537 0.21433 0.0
C956 C 0.82207 0.54987 0.29283 0.0
C957 C 0.85439 0.58761 0.38133 0.0
H958 H 0.89294 0.54941 0.37678 0.0
C959 C 0.92017 0.58309 0.56972 0.0
C960 C 0.93875 0.5791 0.54436 0.0
C961 C 0.90318 0.58243 0.52878 0.0
C962 C 0.88246 0.56036 0.37817 0.0
H963 H 0.80372 0.59888 0.1924 0.0
H964 H 0.83294 0.60279 0.26601 0.0
H965 H 0.86302 0.54628 0.30769 0.0
H966 H 0.95427 0.57213 0.45517 0.0
H967 H 0.92473 0.57125 0.38334 0.0
H968 H 0.87415 0.60202 0.45049 0.0
C969 C 0.82523 0.58732 0.26335 0.0
C970 C 0.86511 0.55836 0.3393 0.0
C971 C 0.80853 0.58515 0.22139 0.0
C972 C 0.94008 0.57497 0.47652 0.0
C973 C 0.92313 0.5744 0.43546 0.0
C974 C 0.87179 0.58965 0.42011 0.0
C975 C 0.83236 0.56968 0.29895 0.0
C976 C 0.85081 0.57189 0.34057 0.0
C977 C 0.90438 0.57784 0.46139 0.0
C978 C 0.88604 0.57602 0.41911 0.0
H979 H 0.79799 0.53239 0.24544 0.0
H980 H 0.82693 0.53596 0.3203 0.0
H981 H 0.84363 0.59821 0.38393 0.0
H982 H 0.91858 0.58605 0.6221 0.0
H983 H 0.88894 0.58488 0.5508 0.0
loop_
_geom_bond_atom_site_label_1
_geom_bond_atom_site_label_2
_geom_bond_distance
_geom_bond_site_symmetry_2
_ccdc_geom_bond_type
C0 N1 1.317 . S
C0 N2 1.348 1_554 S
C0 C3 1.485 . S
N1 C0 1.317 . S
N1 N5 1.370 1_554 S
N2 C0 1.348 1_556 S
N2 C4 1.346 . S
C3 C0 1.485 . S
C3 H7 0.960 . S
C3 H8 0.961 . S
C3 H9 0.960 . S
C4 N2 1.346 . S
C4 N5 1.307 . S
C4 C6 1.486 . S
N5 N1 1.370 1_556 S
N5 C4 1.307 . S
C6 C4 1.486 . S
C6 H10 0.960 . S
C6 H11 0.960 . S
C6 H12 0.959 . S
H7 C3 0.960 . S
H8 C3 0.961 . S
H9 C3 0.960 . S
H10 C6 0.960 . S
H11 C6 0.960 . S
H12 C6 0.959 . S
C13 N14 1.317 . S
C13 N15 1.348 . S
C13 C16 1.485 . S
N14 C13 1.317 . S
N14 N18 1.370 . S
N15 C13 1.348 . S
N15 C17 1.343 . S
C16 C13 1.485 . S
C16 H20 0.960 1_655 S
C16 H21 0.961 . S
C16 H22 0.960 . S
C17 N15 1.343 . S
C17 N18 1.313 . S
C17 C19 1.486 1_554 S
N18 N14 1.370 . S
N18 C17 1.313 . S
C19 C17 1.486 1_556 S
C19 H23 0.959 . S
C19 H24 0.961 1_655 S
C19 H25 0.959 1_655 S
H20 C16 0.960 1_455 S
H21 C16 0.961 . S
H22 C16 0.960 . S
H23 C19 0.959 . S
H24 C19 0.961 1_455 S
H25 C19 0.959 1_455 S
C26 N27 1.317 . S
C26 N28 1.348 . S
C26 C29 1.485 . S
N27 C26 1.317 . S
N27 N31 1.370 . S
N28 C26 1.348 . S
N28 C30 1.346 . S
C29 C26 1.485 . S
C29 H33 0.960 . S
C29 H34 0.961 . S
C29 H35 0.960 . S
C30 N28 1.346 . S
C30 N31 1.307 . S
C30 C32 1.486 1_554 S
N31 N27 1.370 . S
N31 C30 1.307 . S
C32 C30 1.486 1_556 S
C32 H36 0.960 . S
C32 H37 0.960 . S
C32 H38 0.959 . S
H33 C29 0.960 . S
H34 C29 0.961 . S
H35 C29 0.960 . S
H36 C32 0.960 . S
H37 C32 0.960 . S
H38 C32 0.959 . S
C39 N40 1.317 . S
C39 N41 1.348 . S
C39 C42 1.485 . S
N40 C39 1.317 . S
N40 N44 1.370 . S
N41 C39 1.348 . S
N41 C43 1.346 . S
C42 C39 1.485 . S
C42 H46 0.960 . S
C42 H47 0.961 . S
C42 H48 0.960 . S
C43 N41 1.346 . S
C43 N44 1.307 . S
C43 C45 1.486 . S
N44 N40 1.370 . S
N44 C43 1.307 . S
C45 C43 1.486 . S
C45 H49 0.960 . S
C45 H50 0.960 . S
C45 H51 0.959 . S
H46 C42 0.960 . S
H47 C42 0.961 . S
H48 C42 0.960 . S
H49 C45 0.960 . S
H50 C45 0.960 . S
H51 C45 0.959 . S
C52 N53 1.317 . S
C52 N54 1.348 . S
C52 C55 1.485 . S
N53 C52 1.317 . S
N53 N57 1.370 . S
N54 C52 1.348 . S
N54 C56 1.346 . S
C55 C52 1.485 . S
C55 H59 0.960 . S
C55 H60 0.961 . S
C55 H61 0.960 . S
C56 N54 1.346 . S
C56 N57 1.307 . S
C56 C58 1.486 . S
N57 N53 1.370 . S
N57 C56 1.307 . S
C58 C56 1.486 . S
C58 H62 0.960 . S
C58 H63 0.960 . S
C58 H64 0.959 . S
H59 C55 0.960 . S
H60 C55 0.961 . S
H61 C55 0.960 . S
H62 C58 0.960 . S
H63 C58 0.960 . S
H64 C58 0.959 . S
C65 N66 1.317 . S
C65 N67 1.348 . S
C65 C68 1.485 . S
N66 C65 1.317 . S
N66 N70 1.370 . S
N67 C65 1.348 . S
N67 C69 1.346 . S
C68 C65 1.485 . S
C68 H72 0.960 . S
C68 H73 0.961 . S
C68 H74 0.960 . S
C69 N67 1.346 . S
C69 N70 1.307 . S
C69 C71 1.486 . S
N70 N66 1.370 . S
N70 C69 1.307 . S
C71 C69 1.486 . S
C71 H75 0.960 . S
C71 H76 0.960 . S
C71 H77 0.959 . S
H72 C68 0.960 . S
H73 C68 0.961 . S
H74 C68 0.960 . S
H75 C71 0.960 . S
H76 C71 0.960 . S
H77 C71 0.959 . S
C78 N79 1.317 . S
C78 N80 1.348 . S
C78 C81 1.485 . S
N79 C78 1.317 . S
N79 N83 1.370 . S
N80 C78 1.348 . S
N80 C82 1.346 . S
C81 C78 1.485 . S
C81 H85 0.960 . S
C81 H86 0.961 . S
C81 H87 0.960 . S
C82 N80 1.346 . S
C82 N83 1.307 . S
C82 C84 1.486 . S
N83 N79 1.370 . S
N83 C82 1.307 . S
C84 C82 1.486 . S
C84 H88 0.960 . S
C84 H89 0.960 . S
C84 H90 0.959 . S
H85 C81 0.960 . S
H86 C81 0.961 . S
H87 C81 0.960 . S
H88 C84 0.960 . S
H89 C84 0.960 . S
H90 C84 0.959 . S
C91 N92 1.317 . S
C91 N93 1.348 . S
C91 C94 1.485 . S
N92 C91 1.317 . S
N92 N96 1.370 . S
N93 C91 1.348 . S
N93 C95 1.346 . S
C94 C91 1.485 . S
C94 H98 0.960 . S
C94 H99 0.961 . S
C94 H100 0.960 . S
C95 N93 1.346 . S
C95 N96 1.307 . S
C95 C97 1.486 . S
N96 N92 1.370 . S
N96 C95 1.307 . S
C97 C95 1.486 . S
C97 H101 0.960 . S
C97 H102 0.960 . S
C97 H103 0.959 . S
H98 C94 0.960 . S
H99 C94 0.961 . S
H100 C94 0.960 . S
H101 C97 0.960 . S
H102 C97 0.960 . S
H103 C97 0.959 . S
Nd104 C106 2.836 1_545 S
Nd104 O124 2.500 1_445 S
Nd104 O125 2.492 1_545 S
Nd104 O126 2.487 . S
Nd104 O127 2.682 . S
Nd104 O128 2.410 1_545 S
Nd104 O133 2.414 1_455 S
Nd104 O135 2.424 . S
Nd105 C115 2.836 1_556 S
Nd105 O127 2.414 . S
Nd105 O129 2.424 1_545 S
Nd105 O130 2.500 1_556 S
Nd105 O131 2.492 1_556 S
Nd105 O132 2.487 1_455 S
Nd105 O133 2.682 1_455 S
Nd105 O134 2.410 . S
C106 Nd104 2.836 1_565 S
C106 C107 1.498 . S
C106 O124 1.258 1_455 S
C106 O125 1.239 . S
C107 C106 1.498 . S
C107 C108 1.366 1_455 S
C107 C112 1.407 . S
C108 C107 1.366 1_655 S
C108 C109 1.392 . S
C108 H136 0.930 . S
C109 C108 1.392 . S
C109 C110 1.398 1_655 S
C109 H137 0.929 . S
C110 C109 1.398 1_455 S
C110 C111 1.352 . S
C111 C110 1.352 . S
C111 C112 1.384 . S
C111 H138 0.930 . S
C112 C107 1.407 . S
C112 C111 1.384 . S
C112 H139 0.929 . S
C113 O126 1.241 . S
C113 O127 1.273 . S
C114 O128 1.251 . S
C114 O129 1.268 . S
C115 Nd105 2.836 1_554 S
C115 C116 1.498 . S
C115 O130 1.258 . S
C115 O131 1.239 . S
C116 C115 1.498 . S
C116 C117 1.366 . S
C116 C121 1.407 . S
C117 C116 1.366 . S
C117 C118 1.392 . S
C117 H140 0.930 . S
C118 C117 1.392 . S
C118 C119 1.398 . S
C118 H141 0.929 . S
C119 C118 1.398 . S
C119 C120 1.352 . S
C120 C119 1.352 . S
C120 C121 1.384 . S
C120 H142 0.930 . S
C121 C116 1.407 . S
C121 C120 1.384 . S
C121 H143 0.890 1_455 S
C122 O132 1.241 . S
C122 O133 1.273 . S
C123 O134 1.251 . S
C123 O135 1.268 . S
O124 Nd104 2.500 1_665 S
O124 C106 1.258 1_655 S
O125 Nd104 2.492 1_565 S
O125 C106 1.239 . S
O126 Nd104 2.487 . S
O126 C113 1.241 . S
O127 Nd104 2.682 . S
O127 Nd105 2.414 . S
O127 C113 1.273 . S
O128 Nd104 2.410 1_565 S
O128 C114 1.251 . S
O129 Nd105 2.424 1_565 S
O129 C114 1.268 . S
O130 Nd105 2.500 1_554 S
O130 C115 1.258 . S
O131 Nd105 2.492 1_554 S
O131 C115 1.239 . S
O132 Nd105 2.487 1_655 S
O132 C122 1.241 . S
O133 Nd104 2.414 1_655 S
O133 Nd105 2.682 1_655 S
O133 C122 1.273 . S
O134 Nd105 2.410 . S
O134 C123 1.251 . S
O135 Nd104 2.424 . S
O135 C123 1.268 . S
H136 C108 0.930 . S
H137 C109 0.929 . S
H138 C111 0.930 . S
H139 C112 0.929 . S
H140 C117 0.930 . S
H141 C118 0.929 . S
H142 C120 0.930 . S
H143 C121 0.890 1_655 S
Nd144 C146 2.836 1_545 S
Nd144 O164 2.500 1_545 S
Nd144 O165 2.492 . S
Nd144 O166 2.487 . S
Nd144 O167 2.682 . S
Nd144 O168 2.410 . S
Nd144 O173 2.414 1_545 S
Nd144 O175 2.424 . S
Nd145 C155 2.836 1_556 S
Nd145 O167 2.414 . S
Nd145 O169 2.424 . S
Nd145 O170 2.500 . S
Nd145 O171 2.492 1_556 S
Nd145 O172 2.487 1_546 S
Nd145 O173 2.682 1_545 S
Nd145 O174 2.410 . S
C146 Nd144 2.836 1_565 S
C146 C147 1.498 . S
C146 O164 1.258 . S
C146 O165 1.239 1_565 S
C147 C146 1.498 . S
C147 C148 1.366 . S
C147 C152 1.407 . S
C148 C147 1.366 . S
C148 C149 1.392 . S
C148 H176 0.930 . S
C149 C148 1.392 . S
C149 C150 1.398 . S
C149 H177 0.929 . S
C150 C149 1.398 . S
C150 C151 1.352 . S
C151 C150 1.352 . S
C151 C152 1.384 . S
C151 H178 0.930 . S
C152 C147 1.407 . S
C152 C151 1.384 . S
C152 H179 0.929 1_565 S
C153 O166 1.241 . S
C153 O167 1.273 . S
C154 O168 1.251 . S
C154 O169 1.268 . S
C155 Nd145 2.836 1_554 S
C155 C156 1.498 . S
C155 O170 1.258 1_554 S
C155 O171 1.239 . S
C156 C155 1.498 . S
C156 C157 1.366 . S
C156 C161 1.407 . S
C157 C156 1.366 . S
C157 C158 1.392 . S
C157 H180 0.930 . S
C158 C157 1.392 . S
C158 C159 1.398 . S
C158 H181 0.929 . S
C159 C158 1.398 . S
C159 C160 1.352 . S
C160 C159 1.352 . S
C160 C161 1.384 . S
C160 H182 0.930 . S
C161 C156 1.407 . S
C161 C160 1.384 . S
C161 H183 0.929 . S
C162 O172 1.241 1_556 S
C162 O173 1.273 . S
C163 O174 1.251 . S
C163 O175 1.268 . S
O164 Nd144 2.500 1_565 S
O164 C146 1.258 . S
O165 Nd144 2.492 . S
O165 C146 1.239 1_545 S
O166 Nd144 2.487 . S
O166 C153 1.241 . S
O167 Nd144 2.682 . S
O167 Nd145 2.414 . S
O167 C153 1.273 . S
O168 Nd144 2.410 . S
O168 C154 1.251 . S
O169 Nd145 2.424 . S
O169 C154 1.268 . S
O170 Nd145 2.500 . S
O170 C155 1.258 1_556 S
O171 Nd145 2.492 1_554 S
O171 C155 1.239 . S
O172 Nd145 2.487 1_564 S
O172 C162 1.241 1_554 S
O173 Nd144 2.414 1_565 S
O173 Nd145 2.682 1_565 S
O173 C162 1.273 . S
O174 Nd145 2.410 . S
O174 C163 1.251 . S
O175 Nd144 2.424 . S
O175 C163 1.268 . S
H176 C148 0.930 . S
H177 C149 0.929 . S
H178 C151 0.930 . S
H179 C152 0.929 1_545 S
H180 C157 0.930 . S
H181 C158 0.929 . S
H182 C160 0.930 . S
H183 C161 0.929 . S
Nd184 C186 2.836 1_556 S
Nd184 O204 2.500 . S
Nd184 O205 2.492 1_556 S
Nd184 O206 2.487 . S
Nd184 O207 2.682 . S
Nd184 O208 2.410 . S
Nd184 O213 2.414 . S
Nd184 O215 2.424 . S
Nd185 C195 2.836 . S
Nd185 O207 2.414 . S
Nd185 O209 2.424 . S
Nd185 O210 2.500 . S
Nd185 O211 2.492 . S
Nd185 O212 2.487 . S
Nd185 O213 2.682 . S
Nd185 O214 2.410 . S
C186 Nd184 2.836 1_554 S
C186 C187 1.498 . S
C186 O204 1.258 1_554 S
C186 O205 1.239 . S
C187 C186 1.498 . S
C187 C188 1.366 . S
C187 C192 1.407 . S
C188 C187 1.366 . S
C188 C189 1.392 . S
C188 H216 0.930 1_554 S
C189 C188 1.392 . S
C189 C190 1.398 . S
C189 H217 0.929 . S
C190 C189 1.398 . S
C190 C191 1.352 . S
C191 C190 1.352 . S
C191 C192 1.384 . S
C191 H218 0.930 . S
C192 C187 1.407 . S
C192 C191 1.384 . S
C192 H219 0.929 . S
C193 O206 1.241 . S
C193 O207 1.273 . S
C194 O208 1.251 . S
C194 O209 1.268 . S
C195 Nd185 2.836 . S
C195 C196 1.498 . S
C195 O210 1.258 . S
C195 O211 1.239 . S
C196 C195 1.498 . S
C196 C197 1.366 . S
C196 C201 1.407 . S
C197 C196 1.366 . S
C197 C198 1.392 . S
C197 H220 0.930 . S
C198 C197 1.392 . S
C198 C199 1.398 . S
C198 H221 0.929 . S
C199 C198 1.398 . S
C199 C200 1.352 . S
C200 C199 1.352 . S
C200 C201 1.384 . S
C200 H222 0.930 . S
C201 C196 1.407 . S
C201 C200 1.384 . S
C201 H223 0.929 . S
C202 O212 1.241 . S
C202 O213 1.273 . S
C203 O214 1.251 . S
C203 O215 1.268 . S
O204 Nd184 2.500 . S
O204 C186 1.258 1_556 S
O205 Nd184 2.492 1_554 S
O205 C186 1.239 . S
O206 Nd184 2.487 . S
O206 C193 1.241 . S
O207 Nd184 2.682 . S
O207 Nd185 2.414 . S
O207 C193 1.273 . S
O208 Nd184 2.410 . S
O208 C194 1.251 . S
O209 Nd185 2.424 . S
O209 C194 1.268 . S
O210 Nd185 2.500 . S
O210 C195 1.258 . S
O211 Nd185 2.492 . S
O211 C195 1.239 . S
O212 Nd185 2.487 . S
O212 C202 1.241 . S
O213 Nd184 2.414 . S
O213 Nd185 2.682 . S
O213 C202 1.273 . S
O214 Nd185 2.410 . S
O214 C203 1.251 . S
O215 Nd184 2.424 . S
O215 C203 1.268 . S
H216 C188 0.930 1_556 S
H217 C189 0.929 . S
H218 C191 0.930 . S
H219 C192 0.929 . S
H220 C197 0.930 . S
H221 C198 0.929 . S
H222 C200 0.930 . S
H223 C201 0.929 . S
Nd224 C226 2.836 1_455 S
Nd224 O244 2.500 1_455 S
Nd224 O245 2.492 1_455 S
Nd224 O246 2.487 . S
Nd224 O247 2.682 . S
Nd224 O248 2.410 1_455 S
Nd224 O253 2.414 . S
Nd224 O255 2.424 . S
Nd225 C235 2.836 1_556 S
Nd225 O247 2.414 . S
Nd225 O249 2.424 1_455 S
Nd225 O250 2.500 1_556 S
Nd225 O251 2.492 1_556 S
Nd225 O252 2.487 . S
Nd225 O253 2.682 . S
Nd225 O254 2.410 . S
C226 Nd224 2.836 1_655 S
C226 C227 1.498 . S
C226 O244 1.258 . S
C226 O245 1.239 . S
C227 C226 1.498 . S
C227 C228 1.366 . S
C227 C232 1.407 . S
C228 C227 1.366 . S
C228 C229 1.392 . S
C228 H256 0.930 . S
C229 C228 1.392 . S
C229 C230 1.398 . S
C229 H257 0.929 . S
C230 C229 1.398 . S
C230 C231 1.352 . S
C231 C230 1.352 . S
C231 C232 1.384 . S
C231 H258 0.930 . S
C232 C227 1.407 . S
C232 C231 1.384 . S
C232 H259 0.929 . S
C233 O246 1.241 . S
C233 O247 1.273 . S
C234 O248 1.251 . S
C234 O249 1.268 . S
C235 Nd225 2.836 1_554 S
C235 C236 1.498 . S
C235 O250 1.258 . S
C235 O251 1.239 . S
C236 C235 1.498 . S
C236 C237 1.366 . S
C236 C241 1.407 . S
C237 C236 1.366 . S
C237 C238 1.392 . S
C237 H260 0.930 . S
C238 C237 1.392 . S
C238 C239 1.398 . S
C238 H261 0.929 . S
C239 C238 1.398 . S
C239 C240 1.352 . S
C240 C239 1.352 . S
C240 C241 1.384 . S
C240 H262 0.930 . S
C241 C236 1.407 . S
C241 C240 1.384 . S
C241 H263 0.929 . S
C242 O252 1.241 . S
C242 O253 1.273 . S
C243 O254 1.251 . S
C243 O255 1.268 . S
O244 Nd224 2.500 1_655 S
O244 C226 1.258 . S
O245 Nd224 2.492 1_655 S
O245 C226 1.239 . S
O246 Nd224 2.487 . S
O246 C233 1.241 . S
O247 Nd224 2.682 . S
O247 Nd225 2.414 . S
O247 C233 1.273 . S
O248 Nd224 2.410 1_655 S
O248 C234 1.251 . S
O249 Nd225 2.424 1_655 S
O249 C234 1.268 . S
O250 Nd225 2.500 1_554 S
O250 C235 1.258 . S
O251 Nd225 2.492 1_554 S
O251 C235 1.239 . S
O252 Nd225 2.487 . S
O252 C242 1.241 . S
O253 Nd224 2.414 . S
O253 Nd225 2.682 . S
O253 C242 1.273 . S
O254 Nd225 2.410 . S
O254 C243 1.251 . S
O255 Nd224 2.424 . S
O255 C243 1.268 . S
H256 C228 0.930 . S
H257 C229 0.929 . S
H258 C231 0.930 . S
H259 C232 0.929 . S
H260 C237 0.930 . S
H261 C238 0.929 . S
H262 C240 0.930 . S
H263 C241 0.929 . S
C264 C265 1.349 . S
C264 C266 1.327 . S
C264 H289 0.950 . S
C265 C264 1.349 . S
C265 C281 1.349 . S
C266 C264 1.327 . S
C266 C285 1.429 . S
C266 H290 0.950 . S
C267 C284 1.574 . S
C267 C286 1.368 . S
C267 H291 0.949 . S
H268 C272 0.949 . S
C269 C270 1.349 . S
C269 C271 1.327 . S
C269 H292 0.950 . S
C270 C269 1.349 . S
C270 C282 1.349 . S
C271 C269 1.327 . S
C271 C287 1.429 . S
C271 H293 0.950 . S
C272 H268 0.949 . S
C272 C280 1.574 . S
C272 C288 1.368 . S
H273 C281 0.950 . S
H274 C279 0.950 . S
H275 C280 0.949 . S
H276 C282 0.950 . S
H277 C283 0.950 . S
H278 C284 0.949 . S
C279 H274 0.950 . S
C279 C281 1.327 . S
C279 C285 1.429 . S
C280 C272 1.574 . S
C280 H275 0.949 . S
C280 C286 1.368 . S
C281 C265 1.349 . S
C281 H273 0.950 . S
C281 C279 1.327 . S
C282 C270 1.349 . S
C282 H276 0.950 . S
C282 C283 1.327 . S
C283 H277 0.950 . S
C283 C282 1.327 . S
C283 C287 1.429 . S
C284 C267 1.574 . S
C284 H278 0.949 . S
C284 C288 1.368 . S
C285 C266 1.429 . S
C285 C279 1.429 . S
C285 C286 1.523 . S
C286 C267 1.368 . S
C286 C280 1.368 . S
C286 C285 1.523 . S
C287 C271 1.429 . S
C287 C283 1.429 . S
C287 C288 1.523 . S
C288 C272 1.368 . S
C288 C284 1.368 . S
C288 C287 1.523 . S
H289 C264 0.950 . S
H290 C266 0.950 . S
H291 C267 0.949 . S
H292 C269 0.950 . S
H293 C271 0.950 . S
C294 C295 1.349 . S
C294 C296 1.327 . S
C294 H319 0.950 . S
C295 C294 1.349 . S
C295 C311 1.349 . S
C296 C294 1.327 . S
C296 C315 1.429 . S
C296 H320 0.950 . S
C297 C314 1.574 . S
C297 C316 1.368 . S
C297 H321 0.949 . S
H298 C302 0.949 . S
C299 C300 1.349 . S
C299 C301 1.327 . S
C299 H322 0.950 . S
C300 C299 1.349 . S
C300 C312 1.349 . S
C301 C299 1.327 . S
C301 C317 1.429 . S
C301 H323 0.950 . S
C302 H298 0.949 . S
C302 C310 1.574 . S
C302 C318 1.368 . S
H303 C311 0.950 . S
H304 C309 0.950 . S
H305 C310 0.949 . S
H306 C312 0.950 . S
H307 C313 0.950 . S
H308 C314 0.949 . S
C309 H304 0.950 . S
C309 C311 1.327 . S
C309 C315 1.429 . S
C310 C302 1.574 . S
C310 H305 0.949 . S
C310 C316 1.368 . S
C311 C295 1.349 . S
C311 H303 0.950 . S
C311 C309 1.327 . S
C312 C300 1.349 . S
C312 H306 0.950 . S
C312 C313 1.327 . S
C313 H307 0.950 . S
C313 C312 1.327 . S
C313 C317 1.429 . S
C314 C297 1.574 . S
C314 H308 0.949 . S
C314 C318 1.368 . S
C315 C296 1.429 . S
C315 C309 1.429 . S
C315 C316 1.523 . S
C316 C297 1.368 . S
C316 C310 1.368 . S
C316 C315 1.523 . S
C317 C301 1.429 . S
C317 C313 1.429 . S
C317 C318 1.523 . S
C318 C302 1.368 . S
C318 C314 1.368 . S
C318 C317 1.523 . S
H319 C294 0.950 . S
H320 C296 0.950 . S
H321 C297 0.949 . S
H322 C299 0.950 . S
H323 C301 0.950 . S
C324 C325 1.349 . S
C324 C326 1.327 . S
C324 H349 0.950 . S
C325 C324 1.349 . S
C325 C341 1.349 . S
C326 C324 1.327 . S
C326 C345 1.429 . S
C326 H350 0.950 . S
C327 C344 1.574 . S
C327 C346 1.368 . S
C327 H351 0.949 . S
H328 C332 0.949 . S
C329 C330 1.349 . S
C329 C331 1.327 . S
C329 H352 0.950 . S
C330 C329 1.349 . S
C330 C342 1.349 . S
C331 C329 1.327 . S
C331 C347 1.429 . S
C331 H353 0.950 . S
C332 H328 0.949 . S
C332 C340 1.574 . S
C332 C348 1.368 . S
H333 C341 0.950 . S
H334 C339 0.950 . S
H335 C340 0.949 . S
H336 C342 0.950 . S
H337 C343 0.950 . S
H338 C344 0.949 . S
C339 H334 0.950 . S
C339 C341 1.327 . S
C339 C345 1.429 . S
C340 C332 1.574 . S
C340 H335 0.949 . S
C340 C346 1.368 . S
C341 C325 1.349 . S
C341 H333 0.950 . S
C341 C339 1.327 . S
C342 C330 1.349 . S
C342 H336 0.950 . S
C342 C343 1.327 . S
C343 H337 0.950 . S
C343 C342 1.327 . S
C343 C347 1.429 . S
C344 C327 1.574 . S
C344 H338 0.949 . S
C344 C348 1.368 . S
C345 C326 1.429 . S
C345 C339 1.429 . S
C345 C346 1.523 . S
C346 C327 1.368 . S
C346 C340 1.368 . S
C346 C345 1.523 . S
C347 C331 1.429 . S
C347 C343 1.429 . S
C347 C348 1.523 . S
C348 C332 1.368 . S
C348 C344 1.368 . S
C348 C347 1.523 . S
H349 C324 0.950 . S
H350 C326 0.950 . S
H351 C327 0.949 . S
H352 C329 0.950 . S
H353 C331 0.950 . S
C354 C355 1.349 . S
C354 C356 1.327 . S
C354 H379 0.950 . S
C355 C354 1.349 . S
C355 C371 1.349 . S
C356 C354 1.327 . S
C356 C375 1.429 . S
C356 H380 0.950 . S
C357 C374 1.574 . S
C357 C376 1.368 . S
C357 H381 0.949 . S
H358 C362 0.949 . S
C359 C360 1.349 . S
C359 C361 1.327 . S
C359 H382 0.950 . S
C360 C359 1.349 . S
C360 C372 1.349 . S
C361 C359 1.327 . S
C361 C377 1.429 . S
C361 H383 0.950 . S
C362 H358 0.949 . S
C362 C370 1.574 . S
C362 C378 1.368 . S
H363 C371 0.950 . S
H364 C369 0.950 . S
H365 C370 0.949 . S
H366 C372 0.950 . S
H367 C373 0.950 . S
H368 C374 0.949 . S
C369 H364 0.950 . S
C369 C371 1.327 . S
C369 C375 1.429 . S
C370 C362 1.574 . S
C370 H365 0.949 . S
C370 C376 1.368 . S
C371 C355 1.349 . S
C371 H363 0.950 . S
C371 C369 1.327 . S
C372 C360 1.349 . S
C372 H366 0.950 . S
C372 C373 1.327 . S
C373 H367 0.950 . S
C373 C372 1.327 . S
C373 C377 1.429 . S
C374 C357 1.574 . S
C374 H368 0.949 . S
C374 C378 1.368 . S
C375 C356 1.429 . S
C375 C369 1.429 . S
C375 C376 1.523 . S
C376 C357 1.368 . S
C376 C370 1.368 . S
C376 C375 1.523 . S
C377 C361 1.429 . S
C377 C373 1.429 . S
C377 C378 1.523 . S
C378 C362 1.368 . S
C378 C374 1.368 . S
C378 C377 1.523 . S
H379 C354 0.950 . S
H380 C356 0.950 . S
H381 C357 0.949 . S
H382 C359 0.950 . S
H383 C361 0.950 . S
C384 C385 1.349 . S
C384 C386 1.327 1_554 S
C384 H409 0.950 1_554 S
C385 C384 1.349 . S
C385 C401 1.349 . S
C386 C384 1.327 1_556 S
C386 C405 1.429 1_556 S
C386 H410 0.950 . S
C387 C404 1.574 . S
C387 C406 1.368 . S
C387 H411 0.949 . S
H388 C392 0.949 . S
C389 C390 1.359 . S
C389 C391 1.327 . S
C389 H412 0.950 . S
C390 C389 1.359 . S
C390 C402 1.337 1_545 S
C391 C389 1.327 . S
C391 C407 1.429 1_545 S
C391 H413 0.945 1_556 S
C392 H388 0.949 . S
C392 C400 1.574 . S
C392 C408 1.368 . S
H393 C401 0.950 . S
H394 C399 0.950 . S
H395 C400 0.949 . S
H396 C402 0.950 . S
H397 C403 0.950 . S
H398 C404 0.949 1_545 S
C399 H394 0.950 . S
C399 C401 1.327 . S
C399 C405 1.429 . S
C400 C392 1.574 . S
C400 H395 0.949 . S
C400 C406 1.368 1_556 S
C401 C385 1.349 . S
C401 H393 0.950 . S
C401 C399 1.327 . S
C402 C390 1.337 1_565 S
C402 H396 0.950 . S
C402 C403 1.327 . S
C403 H397 0.950 . S
C403 C402 1.327 . S
C403 C407 1.429 . S
C404 C387 1.574 . S
C404 H398 0.949 1_565 S
C404 C408 1.368 1_554 S
C405 C386 1.429 1_554 S
C405 C399 1.429 . S
C405 C406 1.523 . S
C406 C387 1.368 . S
C406 C400 1.368 1_554 S
C406 C405 1.523 . S
C407 C391 1.429 1_565 S
C407 C403 1.429 . S
C407 C408 1.523 . S
C408 C392 1.368 . S
C408 C404 1.368 1_556 S
C408 C407 1.523 . S
H409 C384 0.950 1_556 S
H410 C386 0.950 . S
H411 C387 0.949 . S
H412 C389 0.950 . S
H413 C391 0.945 1_554 S
C414 C415 1.349 . S
C414 C416 1.327 . S
C414 H439 0.950 . S
C415 C414 1.349 . S
C415 C431 1.349 . S
C416 C414 1.327 . S
C416 C435 1.429 . S
C416 H440 0.950 . S
C417 C434 1.574 . S
C417 C436 1.368 . S
C417 H441 0.949 . S
H418 C422 0.949 . S
C419 C420 1.349 . S
C419 C421 1.327 1_556 S
C419 H442 0.950 . S
C420 C419 1.349 . S
C420 C432 1.349 1_556 S
C421 C419 1.327 1_554 S
C421 C437 1.429 . S
C421 H443 0.950 1_554 S
C422 H418 0.949 . S
C422 C430 1.574 . S
C422 C438 1.368 . S
H423 C431 0.950 . S
H424 C429 0.950 . S
H425 C430 0.949 . S
H426 C432 0.950 . S
H427 C433 0.950 . S
H428 C434 0.949 . S
C429 H424 0.950 . S
C429 C431 1.327 . S
C429 C435 1.429 . S
C430 C422 1.574 . S
C430 H425 0.949 . S
C430 C436 1.368 . S
C431 C415 1.349 . S
C431 H423 0.950 . S
C431 C429 1.327 . S
C432 C420 1.349 1_554 S
C432 H426 0.950 . S
C432 C433 1.327 . S
C433 H427 0.950 . S
C433 C432 1.327 . S
C433 C437 1.429 . S
C434 C417 1.574 . S
C434 H428 0.949 . S
C434 C438 1.368 . S
C435 C416 1.429 . S
C435 C429 1.429 . S
C435 C436 1.523 . S
C436 C417 1.368 . S
C436 C430 1.368 . S
C436 C435 1.523 . S
C437 C421 1.429 . S
C437 C433 1.429 . S
C437 C438 1.523 . S
C438 C422 1.368 . S
C438 C434 1.368 . S
C438 C437 1.523 . S
H439 C414 0.950 . S
H440 C416 0.950 . S
H441 C417 0.949 . S
H442 C419 0.950 . S
H443 C421 0.950 1_556 S
C444 C445 1.349 . S
C444 C446 1.327 . S
C444 H469 0.950 . S
C445 C444 1.349 . S
C445 C461 1.349 1_556 S
C446 C444 1.327 . S
C446 C465 1.429 . S
C446 H470 0.950 . S
C447 C464 1.574 1_554 S
C447 C466 1.368 1_554 S
C447 H471 0.949 . S
H448 C452 0.949 . S
C449 C450 1.349 . S
C449 C451 1.327 . S
C449 H472 0.950 . S
C450 C449 1.349 . S
C450 C462 1.349 . S
C451 C449 1.327 . S
C451 C467 1.429 . S
C451 H473 0.950 1_556 S
C452 H448 0.949 . S
C452 C460 1.574 . S
C452 C468 1.368 . S
H453 C461 0.950 . S
H454 C459 0.950 . S
H455 C460 0.949 . S
H456 C462 0.950 . S
H457 C463 0.950 . S
H458 C464 0.949 1_554 S
C459 H454 0.950 . S
C459 C461 1.327 . S
C459 C465 1.429 1_554 S
C460 C452 1.574 . S
C460 H455 0.949 . S
C460 C466 1.368 . S
C461 C445 1.349 1_554 S
C461 H453 0.950 . S
C461 C459 1.327 . S
C462 C450 1.349 . S
C462 H456 0.950 . S
C462 C463 1.327 . S
C463 H457 0.950 . S
C463 C462 1.327 . S
C463 C467 1.429 . S
C464 C447 1.574 1_556 S
C464 H458 0.949 1_556 S
C464 C468 1.368 . S
C465 C446 1.429 . S
C465 C459 1.429 1_556 S
C465 C466 1.523 . S
C466 C447 1.368 1_556 S
C466 C460 1.368 . S
C466 C465 1.523 . S
C467 C451 1.429 . S
C467 C463 1.429 . S
C467 C468 1.523 . S
C468 C452 1.368 . S
C468 C464 1.368 . S
C468 C467 1.523 . S
H469 C444 0.950 . S
H470 C446 0.950 . S
H471 C447 0.949 . S
H472 C449 0.950 . S
H473 C451 0.950 1_554 S
C474 C475 1.359 . S
C474 C476 1.335 . S
C474 H499 0.950 1_554 S
C475 C474 1.359 . S
C475 C491 1.346 1_455 S
C476 C474 1.335 . S
C476 C495 1.436 . S
C476 H500 0.934 1_554 S
C477 C494 1.584 . S
C477 C496 1.376 . S
C477 H501 0.935 1_455 S
H478 C482 0.949 . S
C479 C480 1.349 . S
C479 C481 1.327 1_556 S
C479 H502 0.950 1_556 S
C480 C479 1.349 . S
C480 C492 1.349 . S
C481 C479 1.327 1_554 S
C481 C497 1.429 1_554 S
C481 H503 0.950 . S
C482 H478 0.949 . S
C482 C490 1.574 . S
C482 C498 1.368 . S
H483 C491 0.950 . S
H484 C489 0.950 . S
H485 C490 0.949 . S
H486 C492 0.950 . S
H487 C493 0.950 . S
H488 C494 0.946 1_655 S
C489 H484 0.950 . S
C489 C491 1.327 . S
C489 C495 1.429 1_655 S
C490 C482 1.574 . S
C490 H485 0.949 . S
C490 C496 1.368 1_556 S
C491 C475 1.346 1_655 S
C491 H483 0.950 . S
C491 C489 1.327 . S
C492 C480 1.349 . S
C492 H486 0.950 . S
C492 C493 1.327 . S
C493 H487 0.950 . S
C493 C492 1.327 . S
C493 C497 1.429 . S
C494 C477 1.584 . S
C494 H488 0.946 1_455 S
C494 C498 1.368 1_554 S
C495 C476 1.436 . S
C495 C489 1.429 1_455 S
C495 C496 1.523 . S
C496 C477 1.376 . S
C496 C490 1.368 1_554 S
C496 C495 1.523 . S
C497 C481 1.429 1_556 S
C497 C493 1.429 . S
C497 C498 1.523 . S
C498 C482 1.368 . S
C498 C494 1.368 1_556 S
C498 C497 1.523 . S
H499 C474 0.950 1_556 S
H500 C476 0.934 1_556 S
H501 C477 0.935 1_655 S
H502 C479 0.950 1_554 S
H503 C481 0.950 . S
C504 C505 1.349 . S
C504 C506 1.327 . S
C504 H529 0.950 . S
C505 C504 1.349 . S
C505 C521 1.349 . S
C506 C504 1.327 . S
C506 C525 1.429 . S
C506 H530 0.950 . S
C507 C524 1.574 . S
C507 C526 1.368 . S
C507 H531 0.949 . S
H508 C512 0.949 . S
C509 C510 1.349 . S
C509 C511 1.327 . S
C509 H532 0.950 1_455 S
C510 C509 1.349 . S
C510 C522 1.349 . S
C511 C509 1.327 . S
C511 C527 1.429 . S
C511 H533 0.977 . S
C512 H508 0.949 . S
C512 C520 1.574 . S
C512 C528 1.368 . S
H513 C521 0.950 . S
H514 C519 0.950 . S
H515 C520 0.949 . S
H516 C522 0.950 . S
H517 C523 0.950 . S
H518 C524 0.949 . S
C519 H514 0.950 . S
C519 C521 1.327 . S
C519 C525 1.429 . S
C520 C512 1.574 . S
C520 H515 0.949 . S
C520 C526 1.368 . S
C521 C505 1.349 . S
C521 H513 0.950 . S
C521 C519 1.327 . S
C522 C510 1.349 . S
C522 H516 0.950 . S
C522 C523 1.327 . S
C523 H517 0.950 . S
C523 C522 1.327 . S
C523 C527 1.429 . S
C524 C507 1.574 . S
C524 H518 0.949 . S
C524 C528 1.368 . S
C525 C506 1.429 . S
C525 C519 1.429 . S
C525 C526 1.523 . S
C526 C507 1.368 . S
C526 C520 1.368 . S
C526 C525 1.523 . S
C527 C511 1.429 . S
C527 C523 1.429 . S
C527 C528 1.523 . S
C528 C512 1.368 . S
C528 C524 1.368 . S
C528 C527 1.523 . S
H529 C504 0.950 . S
H530 C506 0.950 . S
H531 C507 0.949 . S
H532 C509 0.950 1_655 S
H533 C511 0.977 . S
C534 C535 1.349 . S
C534 C536 1.327 . S
C534 H559 0.950 . S
C535 C534 1.349 . S
C535 C551 1.349 . S
C536 C534 1.327 . S
C536 C555 1.429 . S
C536 H560 0.950 . S
C537 C554 1.574 . S
C537 C556 1.368 . S
C537 H561 0.949 . S
H538 C542 0.949 . S
C539 C540 1.349 . S
C539 C541 1.327 . S
C539 H562 0.950 . S
C540 C539 1.349 . S
C540 C552 1.349 . S
C541 C539 1.327 . S
C541 C557 1.429 . S
C541 H563 0.950 . S
C542 H538 0.949 . S
C542 C550 1.574 . S
C542 C558 1.368 . S
H543 C551 0.950 . S
H544 C549 0.950 . S
H545 C550 0.949 . S
H546 C552 0.950 . S
H547 C553 0.950 . S
H548 C554 0.949 . S
C549 H544 0.950 . S
C549 C551 1.327 . S
C549 C555 1.429 . S
C550 C542 1.574 . S
C550 H545 0.949 . S
C550 C556 1.368 . S
C551 C535 1.349 . S
C551 H543 0.950 . S
C551 C549 1.327 . S
C552 C540 1.349 . S
C552 H546 0.950 . S
C552 C553 1.327 . S
C553 H547 0.950 . S
C553 C552 1.327 . S
C553 C557 1.429 . S
C554 C537 1.574 . S
C554 H548 0.949 . S
C554 C558 1.368 . S
C555 C536 1.429 . S
C555 C549 1.429 . S
C555 C556 1.523 . S
C556 C537 1.368 . S
C556 C550 1.368 . S
C556 C555 1.523 . S
C557 C541 1.429 . S
C557 C553 1.429 . S
C557 C558 1.523 . S
C558 C542 1.368 . S
C558 C554 1.368 . S
C558 C557 1.523 . S
H559 C534 0.950 . S
H560 C536 0.950 . S
H561 C537 0.949 . S
H562 C539 0.950 . S
H563 C541 0.950 . S
C564 C565 1.349 . S
C564 C566 1.327 . S
C564 H589 0.950 . S
C565 C564 1.349 . S
C565 C581 1.349 . S
C566 C564 1.327 . S
C566 C585 1.429 . S
C566 H590 0.950 . S
C567 C584 1.574 . S
C567 C586 1.368 . S
C567 H591 0.949 . S
H568 C572 0.949 . S
C569 C570 1.349 . S
C569 C571 1.327 . S
C569 H592 0.950 . S
C570 C569 1.349 . S
C570 C582 1.349 . S
C571 C569 1.327 . S
C571 C587 1.429 . S
C571 H593 0.950 . S
C572 H568 0.949 . S
C572 C580 1.574 . S
C572 C588 1.368 . S
H573 C581 0.950 . S
H574 C579 0.950 . S
H575 C580 0.949 . S
H576 C582 0.950 . S
H577 C583 0.950 . S
H578 C584 0.949 . S
C579 H574 0.950 . S
C579 C581 1.327 . S
C579 C585 1.429 . S
C580 C572 1.574 . S
C580 H575 0.949 . S
C580 C586 1.368 . S
C581 C565 1.349 . S
C581 H573 0.950 . S
C581 C579 1.327 . S
C582 C570 1.349 . S
C582 H576 0.950 . S
C582 C583 1.327 . S
C583 H577 0.950 . S
C583 C582 1.327 . S
C583 C587 1.429 . S
C584 C567 1.574 . S
C584 H578 0.949 . S
C584 C588 1.368 . S
C585 C566 1.429 . S
C585 C579 1.429 . S
C585 C586 1.523 . S
C586 C567 1.368 . S
C586 C580 1.368 . S
C586 C585 1.523 . S
C587 C571 1.429 . S
C587 C583 1.429 . S
C587 C588 1.523 . S
C588 C572 1.368 . S
C588 C584 1.368 . S
C588 C587 1.523 . S
H589 C564 0.950 . S
H590 C566 0.950 . S
H591 C567 0.949 . S
H592 C569 0.950 . S
H593 C571 0.950 . S
C594 C595 1.349 . S
C594 C596 1.327 . S
C594 H619 0.950 . S
C595 C594 1.349 . S
C595 C611 1.349 . S
C596 C594 1.327 . S
C596 C615 1.429 . S
C596 H620 0.950 . S
C597 C614 1.574 . S
C597 C616 1.368 . S
C597 H621 0.949 . S
H598 C602 0.949 . S
C599 C600 1.349 . S
C599 C601 1.327 . S
C599 H622 0.950 . S
C600 C599 1.349 . S
C600 C612 1.349 . S
C601 C599 1.327 . S
C601 C617 1.429 . S
C601 H623 0.950 . S
C602 H598 0.949 . S
C602 C610 1.574 . S
C602 C618 1.368 . S
H603 C611 0.950 . S
H604 C609 0.950 . S
H605 C610 0.949 . S
H606 C612 0.950 . S
H607 C613 0.950 . S
H608 C614 0.949 . S
C609 H604 0.950 . S
C609 C611 1.327 . S
C609 C615 1.429 . S
C610 C602 1.574 . S
C610 H605 0.949 . S
C610 C616 1.368 . S
C611 C595 1.349 . S
C611 H603 0.950 . S
C611 C609 1.327 . S
C612 C600 1.349 . S
C612 H606 0.950 . S
C612 C613 1.327 . S
C613 H607 0.950 . S
C613 C612 1.327 . S
C613 C617 1.429 . S
C614 C597 1.574 . S
C614 H608 0.949 . S
C614 C618 1.368 . S
C615 C596 1.429 . S
C615 C609 1.429 . S
C615 C616 1.523 . S
C616 C597 1.368 . S
C616 C610 1.368 . S
C616 C615 1.523 . S
C617 C601 1.429 . S
C617 C613 1.429 . S
C617 C618 1.523 . S
C618 C602 1.368 . S
C618 C614 1.368 . S
C618 C617 1.523 . S
H619 C594 0.950 . S
H620 C596 0.950 . S
H621 C597 0.949 . S
H622 C599 0.950 . S
H623 C601 0.950 . S
C624 C625 1.349 1_455 S
C624 C626 1.327 . S
C624 H649 0.950 . S
C625 C624 1.349 1_655 S
C625 C641 1.349 . S
C626 C624 1.327 . S
C626 C645 1.429 . S
C626 H650 0.950 . S
C627 C644 1.576 1_655 S
C627 C646 1.368 1_656 S
C627 H651 0.949 . S
H628 C632 0.949 . S
C629 C630 1.349 . S
C629 C631 1.327 . S
C629 H652 0.950 . S
C630 C629 1.349 . S
C630 C642 1.349 . S
C631 C629 1.327 . S
C631 C647 1.429 . S
C631 H653 0.936 1_455 S
C632 H628 0.949 . S
C632 C640 1.574 . S
C632 C648 1.368 1_554 S
H633 C641 0.950 1_556 S
H634 C639 0.950 . S
H635 C640 0.949 . S
H636 C642 0.950 1_554 S
H637 C643 0.950 . S
H638 C644 0.934 1_655 S
C639 H634 0.950 . S
C639 C641 1.327 1_556 S
C639 C645 1.429 1_656 S
C640 C632 1.574 . S
C640 H635 0.949 . S
C640 C646 1.368 . S
C641 C625 1.349 . S
C641 H633 0.950 1_554 S
C641 C639 1.327 1_554 S
C642 C630 1.349 . S
C642 H636 0.950 1_556 S
C642 C643 1.327 1_556 S
C643 H637 0.950 . S
C643 C642 1.327 1_554 S
C643 C647 1.429 1_554 S
C644 C627 1.576 1_455 S
C644 H638 0.934 1_455 S
C644 C648 1.384 . S
C645 C626 1.429 . S
C645 C639 1.429 1_454 S
C645 C646 1.523 . S
C646 C627 1.368 1_454 S
C646 C640 1.368 . S
C646 C645 1.523 . S
C647 C631 1.429 . S
C647 C643 1.429 1_556 S
C647 C648 1.523 . S
C648 C632 1.368 1_556 S
C648 C644 1.384 . S
C648 C647 1.523 . S
H649 C624 0.950 . S
H650 C626 0.950 . S
H651 C627 0.949 . S
H652 C629 0.950 . S
H653 C631 0.936 1_655 S
C654 C655 1.349 . S
C654 C656 1.327 . S
C654 H679 0.950 . S
C655 C654 1.349 . S
C655 C671 1.349 . S
C656 C654 1.327 . S
C656 C675 1.429 . S
C656 H680 0.950 . S
C657 C674 1.574 . S
C657 C676 1.368 . S
C657 H681 0.949 . S
H658 C662 0.944 1_544 S
C659 C660 1.349 1_565 S
C659 C661 1.327 . S
C659 H682 0.950 . S
C660 C659 1.349 1_545 S
C660 C672 1.349 . S
C661 C659 1.327 . S
C661 C677 1.429 . S
C661 H683 0.950 . S
C662 H658 0.944 1_566 S
C662 C670 1.572 1_556 S
C662 C678 1.376 . S
H663 C671 0.950 1_556 S
H664 C669 0.950 . S
H665 C670 0.949 . S
H666 C672 0.950 . S
H667 C673 0.950 . S
H668 C674 0.949 . S
C669 H664 0.950 . S
C669 C671 1.327 1_556 S
C669 C675 1.429 1_556 S
C670 C662 1.572 1_554 S
C670 H665 0.949 . S
C670 C676 1.368 1_554 S
C671 C655 1.349 . S
C671 H663 0.950 1_554 S
C671 C669 1.327 1_554 S
C672 C660 1.349 . S
C672 H666 0.950 . S
C672 C673 1.327 . S
C673 H667 0.950 . S
C673 C672 1.327 . S
C673 C677 1.429 1_545 S
C674 C657 1.574 . S
C674 H668 0.949 . S
C674 C678 1.368 . S
C675 C656 1.429 . S
C675 C669 1.429 1_554 S
C675 C676 1.523 1_554 S
C676 C657 1.368 . S
C676 C670 1.368 1_556 S
C676 C675 1.523 1_556 S
C677 C661 1.429 . S
C677 C673 1.429 1_565 S
C677 C678 1.523 . S
C678 C662 1.376 . S
C678 C674 1.368 . S
C678 C677 1.523 . S
H679 C654 0.950 . S
H680 C656 0.950 . S
H681 C657 0.949 . S
H682 C659 0.950 . S
H683 C661 0.950 . S
C684 C685 1.349 . S
C684 C686 1.327 . S
C684 H709 0.950 . S
C685 C684 1.349 . S
C685 C701 1.349 . S
C686 C684 1.327 . S
C686 C705 1.429 . S
C686 H710 0.950 . S
C687 C704 1.574 . S
C687 C706 1.368 . S
C687 H711 0.949 . S
H688 C692 0.949 . S
C689 C690 1.349 . S
C689 C691 1.327 . S
C689 H712 0.950 . S
C690 C689 1.349 . S
C690 C702 1.349 . S
C691 C689 1.327 . S
C691 C707 1.429 . S
C691 H713 0.950 . S
C692 H688 0.949 . S
C692 C700 1.574 . S
C692 C708 1.368 . S
H693 C701 0.950 . S
H694 C699 0.950 . S
H695 C700 0.949 . S
H696 C702 0.950 . S
H697 C703 0.950 . S
H698 C704 0.949 . S
C699 H694 0.950 . S
C699 C701 1.327 . S
C699 C705 1.429 . S
C700 C692 1.574 . S
C700 H695 0.949 . S
C700 C706 1.368 . S
C701 C685 1.349 . S
C701 H693 0.950 . S
C701 C699 1.327 . S
C702 C690 1.349 . S
C702 H696 0.950 . S
C702 C703 1.327 . S
C703 H697 0.950 . S
C703 C702 1.327 . S
C703 C707 1.429 . S
C704 C687 1.574 . S
C704 H698 0.949 . S
C704 C708 1.368 . S
C705 C686 1.429 . S
C705 C699 1.429 . S
C705 C706 1.523 . S
C706 C687 1.368 . S
C706 C700 1.368 . S
C706 C705 1.523 . S
C707 C691 1.429 . S
C707 C703 1.429 . S
C707 C708 1.523 . S
C708 C692 1.368 . S
C708 C704 1.368 . S
C708 C707 1.523 . S
H709 C684 0.950 . S
H710 C686 0.950 . S
H711 C687 0.949 . S
H712 C689 0.950 . S
H713 C691 0.950 . S
C714 C715 1.349 1_554 S
C714 C716 1.327 . S
C714 H739 0.950 . S
C715 C714 1.349 1_556 S
C715 C731 1.349 . S
C716 C714 1.327 . S
C716 C735 1.429 1_554 S
C716 H740 0.950 . S
C717 C734 1.574 . S
C717 C736 1.368 . S
C717 H741 0.949 . S
H718 C722 0.949 1_554 S
C719 C720 1.349 . S
C719 C721 1.327 . S
C719 H742 0.950 . S
C720 C719 1.349 . S
C720 C732 1.349 . S
C721 C719 1.327 . S
C721 C737 1.429 . S
C721 H743 0.950 . S
C722 H718 0.949 1_556 S
C722 C730 1.574 . S
C722 C738 1.368 . S
H723 C731 0.950 . S
H724 C729 0.950 . S
H725 C730 0.949 1_554 S
H726 C732 0.950 1_554 S
H727 C733 0.950 1_554 S
H728 C734 0.949 . S
C729 H724 0.950 . S
C729 C731 1.327 . S
C729 C735 1.429 . S
C730 C722 1.574 . S
C730 H725 0.949 1_556 S
C730 C736 1.368 . S
C731 C715 1.349 . S
C731 H723 0.950 . S
C731 C729 1.327 . S
C732 C720 1.349 . S
C732 H726 0.950 1_556 S
C732 C733 1.327 . S
C733 H727 0.950 1_556 S
C733 C732 1.327 . S
C733 C737 1.429 . S
C734 C717 1.574 . S
C734 H728 0.949 . S
C734 C738 1.368 . S
C735 C716 1.429 1_556 S
C735 C729 1.429 . S
C735 C736 1.523 . S
C736 C717 1.368 . S
C736 C730 1.368 . S
C736 C735 1.523 . S
C737 C721 1.429 . S
C737 C733 1.429 . S
C737 C738 1.523 . S
C738 C722 1.368 . S
C738 C734 1.368 . S
C738 C737 1.523 . S
H739 C714 0.950 . S
H740 C716 0.950 . S
H741 C717 0.949 . S
H742 C719 0.950 . S
H743 C721 0.950 . S
C744 C745 1.349 . S
C744 C746 1.327 . S
C744 H769 0.950 . S
C745 C744 1.349 . S
C745 C761 1.349 . S
C746 C744 1.327 . S
C746 C765 1.429 . S
C746 H770 0.950 . S
C747 C764 1.574 . S
C747 C766 1.368 . S
C747 H771 0.949 . S
H748 C752 0.949 . S
C749 C750 1.349 . S
C749 C751 1.327 . S
C749 H772 0.950 . S
C750 C749 1.349 . S
C750 C762 1.349 . S
C751 C749 1.327 . S
C751 C767 1.429 . S
C751 H773 0.950 . S
C752 H748 0.949 . S
C752 C760 1.574 . S
C752 C768 1.368 . S
H753 C761 0.950 . S
H754 C759 0.950 . S
H755 C760 0.949 . S
H756 C762 0.950 . S
H757 C763 0.950 . S
H758 C764 0.949 . S
C759 H754 0.950 . S
C759 C761 1.327 . S
C759 C765 1.429 . S
C760 C752 1.574 . S
C760 H755 0.949 . S
C760 C766 1.368 . S
C761 C745 1.349 . S
C761 H753 0.950 . S
C761 C759 1.327 . S
C762 C750 1.349 . S
C762 H756 0.950 . S
C762 C763 1.327 . S
C763 H757 0.950 . S
C763 C762 1.327 . S
C763 C767 1.429 . S
C764 C747 1.574 . S
C764 H758 0.949 . S
C764 C768 1.368 . S
C765 C746 1.429 . S
C765 C759 1.429 . S
C765 C766 1.523 . S
C766 C747 1.368 . S
C766 C760 1.368 . S
C766 C765 1.523 . S
C767 C751 1.429 . S
C767 C763 1.429 . S
C767 C768 1.523 . S
C768 C752 1.368 . S
C768 C764 1.368 . S
C768 C767 1.523 . S
H769 C744 0.950 . S
H770 C746 0.950 . S
H771 C747 0.949 . S
H772 C749 0.950 . S
H773 C751 0.950 . S
C774 C775 1.349 . S
C774 C776 1.327 . S
C774 H799 0.950 . S
C775 C774 1.349 . S
C775 C791 1.349 . S
C776 C774 1.327 . S
C776 C795 1.429 . S
C776 H800 0.950 . S
C777 C794 1.574 . S
C777 C796 1.368 . S
C777 H801 0.949 . S
H778 C782 0.949 . S
C779 C780 1.349 . S
C779 C781 1.327 . S
C779 H802 0.950 . S
C780 C779 1.349 . S
C780 C792 1.349 . S
C781 C779 1.327 . S
C781 C797 1.429 . S
C781 H803 0.950 . S
C782 H778 0.949 . S
C782 C790 1.574 . S
C782 C798 1.368 . S
H783 C791 0.950 . S
H784 C789 0.950 . S
H785 C790 0.949 . S
H786 C792 0.950 . S
H787 C793 0.950 . S
H788 C794 0.949 . S
C789 H784 0.950 . S
C789 C791 1.327 . S
C789 C795 1.429 . S
C790 C782 1.574 . S
C790 H785 0.949 . S
C790 C796 1.368 . S
C791 C775 1.349 . S
C791 H783 0.950 . S
C791 C789 1.327 . S
C792 C780 1.349 . S
C792 H786 0.950 . S
C792 C793 1.327 . S
C793 H787 0.950 . S
C793 C792 1.327 . S
C793 C797 1.429 . S
C794 C777 1.574 . S
C794 H788 0.949 . S
C794 C798 1.368 . S
C795 C776 1.429 . S
C795 C789 1.429 . S
C795 C796 1.523 . S
C796 C777 1.368 . S
C796 C790 1.368 . S
C796 C795 1.523 . S
C797 C781 1.429 . S
C797 C793 1.429 . S
C797 C798 1.523 . S
C798 C782 1.368 . S
C798 C794 1.368 . S
C798 C797 1.523 . S
H799 C774 0.950 . S
H800 C776 0.950 . S
H801 C777 0.949 . S
H802 C779 0.950 . S
H803 C781 0.950 . S
C804 C805 1.349 . S
C804 C806 1.327 . S
C804 H829 0.950 . S
C805 C804 1.349 . S
C805 C821 1.349 . S
C806 C804 1.327 . S
C806 C825 1.429 . S
C806 H830 0.950 . S
C807 C824 1.574 . S
C807 C826 1.368 . S
C807 H831 0.949 . S
H808 C812 0.949 . S
C809 C810 1.349 . S
C809 C811 1.327 . S
C809 H832 0.950 . S
C810 C809 1.349 . S
C810 C822 1.349 1_556 S
C811 C809 1.327 . S
C811 C827 1.429 1_556 S
C811 H833 0.950 . S
C812 H808 0.949 . S
C812 C820 1.574 . S
C812 C828 1.368 . S
H813 C821 0.950 . S
H814 C819 0.950 . S
H815 C820 0.949 . S
H816 C822 0.950 . S
H817 C823 0.950 . S
H818 C824 0.949 . S
C819 H814 0.950 . S
C819 C821 1.327 . S
C819 C825 1.429 . S
C820 C812 1.574 . S
C820 H815 0.949 . S
C820 C826 1.368 . S
C821 C805 1.349 . S
C821 H813 0.950 . S
C821 C819 1.327 . S
C822 C810 1.349 1_554 S
C822 H816 0.950 . S
C822 C823 1.327 . S
C823 H817 0.950 . S
C823 C822 1.327 . S
C823 C827 1.429 . S
C824 C807 1.574 . S
C824 H818 0.949 . S
C824 C828 1.368 . S
C825 C806 1.429 . S
C825 C819 1.429 . S
C825 C826 1.523 . S
C826 C807 1.368 . S
C826 C820 1.368 . S
C826 C825 1.523 . S
C827 C811 1.429 1_554 S
C827 C823 1.429 . S
C827 C828 1.523 . S
C828 C812 1.368 . S
C828 C824 1.368 . S
C828 C827 1.523 . S
H829 C804 0.950 . S
H830 C806 0.950 . S
H831 C807 0.949 . S
H832 C809 0.950 . S
H833 C811 0.950 . S
C834 C835 1.349 . S
C834 C836 1.327 . S
C834 H859 0.950 . S
C835 C834 1.349 . S
C835 C851 1.349 . S
C836 C834 1.327 . S
C836 C855 1.429 . S
C836 H860 0.950 . S
C837 C854 1.574 . S
C837 C856 1.368 . S
C837 H861 0.949 . S
H838 C842 0.949 . S
C839 C840 1.349 . S
C839 C841 1.327 . S
C839 H862 0.950 . S
C840 C839 1.349 . S
C840 C852 1.349 . S
C841 C839 1.327 . S
C841 C857 1.429 . S
C841 H863 0.950 . S
C842 H838 0.949 . S
C842 C850 1.574 . S
C842 C858 1.368 . S
H843 C851 0.950 . S
H844 C849 0.950 . S
H845 C850 0.949 . S
H846 C852 0.950 . S
H847 C853 0.950 . S
H848 C854 0.949 . S
C849 H844 0.950 . S
C849 C851 1.327 . S
C849 C855 1.429 . S
C850 C842 1.574 . S
C850 H845 0.949 . S
C850 C856 1.368 . S
C851 C835 1.349 . S
C851 H843 0.950 . S
C851 C849 1.327 . S
C852 C840 1.349 . S
C852 H846 0.950 . S
C852 C853 1.327 . S
C853 H847 0.950 . S
C853 C852 1.327 . S
C853 C857 1.429 . S
C854 C837 1.574 . S
C854 H848 0.949 . S
C854 C858 1.368 . S
C855 C836 1.429 . S
C855 C849 1.429 . S
C855 C856 1.523 . S
C856 C837 1.368 . S
C856 C850 1.368 . S
C856 C855 1.523 . S
C857 C841 1.429 . S
C857 C853 1.429 . S
C857 C858 1.523 . S
C858 C842 1.368 . S
C858 C854 1.368 . S
C858 C857 1.523 . S
H859 C834 0.950 . S
H860 C836 0.950 . S
H861 C837 0.949 . S
H862 C839 0.950 . S
H863 C841 0.950 . S
C864 C865 1.381 . S
C864 C866 1.327 . S
C864 H889 0.950 . S
C865 C864 1.381 . S
C865 C881 1.321 1_655 S
C866 C864 1.327 . S
C866 C885 1.432 . S
C866 H890 0.950 . S
C867 C884 1.574 . S
C867 C886 1.369 . S
C867 H891 0.949 . S
H868 C872 0.949 . S
C869 C870 1.349 . S
C869 C871 1.327 . S
C869 H892 0.950 . S
C870 C869 1.349 . S
C870 C882 1.349 1_455 S
C871 C869 1.327 . S
C871 C887 1.466 . S
C871 H893 0.950 . S
C872 H868 0.949 . S
C872 C880 1.574 . S
C872 C888 1.342 1_655 S
H873 C881 0.950 . S
H874 C879 0.950 . S
H875 C880 0.949 . S
H876 C882 0.950 . S
H877 C883 0.950 . S
H878 C884 0.949 . S
C879 H874 0.950 . S
C879 C881 1.327 . S
C879 C885 1.425 1_455 S
C880 C872 1.574 . S
C880 H875 0.949 . S
C880 C886 1.367 1_655 S
C881 C865 1.321 1_455 S
C881 H873 0.950 . S
C881 C879 1.327 . S
C882 C870 1.349 1_655 S
C882 H876 0.950 . S
C882 C883 1.327 . S
C883 H877 0.950 . S
C883 C882 1.327 . S
C883 C887 1.387 1_655 S
C884 C867 1.574 . S
C884 H878 0.949 . S
C884 C888 1.397 . S
C885 C866 1.432 . S
C885 C879 1.425 1_655 S
C885 C886 1.523 1_655 S
C886 C867 1.369 . S
C886 C880 1.367 1_455 S
C886 C885 1.523 1_455 S
C887 C871 1.466 . S
C887 C883 1.387 1_455 S
C887 C888 1.525 . S
C888 C872 1.342 1_455 S
C888 C884 1.397 . S
C888 C887 1.525 . S
H889 C864 0.950 . S
H890 C866 0.950 . S
H891 C867 0.949 . S
H892 C869 0.950 . S
H893 C871 0.950 . S
C894 C895 1.349 . S
C894 C896 1.327 . S
C894 H919 0.950 . S
C895 C894 1.349 . S
C895 C911 1.349 . S
C896 C894 1.327 . S
C896 C915 1.429 . S
C896 H920 0.950 . S
C897 C914 1.574 . S
C897 C916 1.368 . S
C897 H921 0.949 . S
H898 C902 0.949 . S
C899 C900 1.349 . S
C899 C901 1.327 . S
C899 H922 0.950 . S
C900 C899 1.349 . S
C900 C912 1.349 . S
C901 C899 1.327 . S
C901 C917 1.429 . S
C901 H923 0.950 . S
C902 H898 0.949 . S
C902 C910 1.574 . S
C902 C918 1.368 . S
H903 C911 0.950 . S
H904 C909 0.950 . S
H905 C910 0.949 . S
H906 C912 0.950 . S
H907 C913 0.950 . S
H908 C914 0.949 . S
C909 H904 0.950 . S
C909 C911 1.327 . S
C909 C915 1.429 . S
C910 C902 1.574 . S
C910 H905 0.949 . S
C910 C916 1.368 . S
C911 C895 1.349 . S
C911 H903 0.950 . S
C911 C909 1.327 . S
C912 C900 1.349 . S
C912 H906 0.950 . S
C912 C913 1.327 . S
C913 H907 0.950 . S
C913 C912 1.327 . S
C913 C917 1.429 . S
C914 C897 1.574 . S
C914 H908 0.949 . S
C914 C918 1.368 . S
C915 C896 1.429 . S
C915 C909 1.429 . S
C915 C916 1.523 . S
C916 C897 1.368 . S
C916 C910 1.368 . S
C916 C915 1.523 . S
C917 C901 1.429 . S
C917 C913 1.429 . S
C917 C918 1.523 . S
C918 C902 1.368 . S
C918 C914 1.368 . S
C918 C917 1.523 . S
H919 C894 0.950 . S
H920 C896 0.950 . S
H921 C897 0.949 . S
H922 C899 0.950 . S
H923 C901 0.950 . S
C924 C925 1.349 . S
C924 C926 1.327 . S
C924 H949 0.950 . S
C925 C924 1.349 . S
C925 C941 1.349 . S
C926 C924 1.327 . S
C926 C945 1.429 . S
C926 H950 0.950 . S
C927 C944 1.574 . S
C927 C946 1.368 . S
C927 H951 0.949 . S
H928 C932 0.949 . S
C929 C930 1.349 . S
C929 C931 1.327 . S
C929 H952 0.950 . S
C930 C929 1.349 . S
C930 C942 1.349 . S
C931 C929 1.327 . S
C931 C947 1.429 . S
C931 H953 0.950 . S
C932 H928 0.949 . S
C932 C940 1.574 . S
C932 C948 1.368 . S
H933 C941 0.950 . S
H934 C939 0.950 . S
H935 C940 0.949 . S
H936 C942 0.950 . S
H937 C943 0.950 . S
H938 C944 0.949 . S
C939 H934 0.950 . S
C939 C941 1.327 . S
C939 C945 1.429 . S
C940 C932 1.574 . S
C940 H935 0.949 . S
C940 C946 1.368 . S
C941 C925 1.349 . S
C941 H933 0.950 . S
C941 C939 1.327 . S
C942 C930 1.349 . S
C942 H936 0.950 . S
C942 C943 1.327 . S
C943 H937 0.950 . S
C943 C942 1.327 . S
C943 C947 1.429 . S
C944 C927 1.574 . S
C944 H938 0.949 . S
C944 C948 1.368 . S
C945 C926 1.429 . S
C945 C939 1.429 . S
C945 C946 1.523 . S
C946 C927 1.368 . S
C946 C940 1.368 . S
C946 C945 1.523 . S
C947 C931 1.429 . S
C947 C943 1.429 . S
C947 C948 1.523 . S
C948 C932 1.368 . S
C948 C944 1.368 . S
C948 C947 1.523 . S
H949 C924 0.950 . S
H950 C926 0.950 . S
H951 C927 0.949 . S
H952 C929 0.950 . S
H953 C931 0.950 . S
C954 C955 1.349 . S
C954 C956 1.327 . S
C954 H979 0.950 . S
C955 C954 1.349 . S
C955 C971 1.349 . S
C956 C954 1.327 . S
C956 C975 1.429 . S
C956 H980 0.950 . S
C957 C974 1.574 . S
C957 C976 1.368 . S
C957 H981 0.949 . S
H958 C962 0.949 . S
C959 C960 1.349 . S
C959 C961 1.327 . S
C959 H982 0.950 . S
C960 C959 1.349 . S
C960 C972 1.349 . S
C961 C959 1.327 . S
C961 C977 1.429 . S
C961 H983 0.950 . S
C962 H958 0.949 . S
C962 C970 1.574 . S
C962 C978 1.368 . S
H963 C971 0.950 . S
H964 C969 0.950 . S
H965 C970 0.949 . S
H966 C972 0.950 . S
H967 C973 0.950 . S
H968 C974 0.949 . S
C969 H964 0.950 . S
C969 C971 1.327 . S
C969 C975 1.429 . S
C970 C962 1.574 . S
C970 H965 0.949 . S
C970 C976 1.368 . S
C971 C955 1.349 . S
C971 H963 0.950 . S
C971 C969 1.327 . S
C972 C960 1.349 . S
C972 H966 0.950 . S
C972 C973 1.327 . S
C973 H967 0.950 . S
C973 C972 1.327 . S
C973 C977 1.429 . S
C974 C957 1.574 . S
C974 H968 0.949 . S
C974 C978 1.368 . S
C975 C956 1.429 . S
C975 C969 1.429 . S
C975 C976 1.523 . S
C976 C957 1.368 . S
C976 C970 1.368 . S
C976 C975 1.523 . S
C977 C961 1.429 . S
C977 C973 1.429 . S
C977 C978 1.523 . S
C978 C962 1.368 . S
C978 C974 1.368 . S
C978 C977 1.523 . S
H979 C954 0.950 . S
H980 C956 0.950 . S
H981 C957 0.949 . S
H982 C959 0.950 . S
H983 C961 0.950 . S
C265 N80 1.659 . S
C270 C113 1.631 . S
C300 C153 1.278 . S
C295 N93 1.332 . S
C330 C202 1.265 . S
C325 N54 1.306 . S
C360 C233 1.602 . S
C355 N67 1.685 . S
C390 C122 1.634 . S
C385 N28 1.674 . S
C415 N41 1.326 . S
C420 C162 1.278 . S
C445 N2 1.312 . S
C450 C193 1.265 . S
C475 N15 1.684 1_455 S
C480 C242 1.602 . S
C510 C123 0.677 . S
C505 N70 0.679 . S
C540 C163 1.194 . S
C535 N83 1.161 . S
C570 C199 0.571 . S
C565 N96 0.570 . S
C595 N57 0.828 . S
C600 C243 0.833 . S
C625 N18 0.678 . S
C630 C114 0.676 . S
C660 C154 1.194 . S
C655 N31 1.165 . S
C690 C190 0.570 . S
C685 N44 0.570 . S
C715 N5 0.828 . S
C720 C234 0.832 . S
C745 N66 1.652 . S
C750 C119 1.654 . S
C775 N79 1.399 . S
C780 C159 1.396 . S
C810 C203 1.854 . S
C805 N92 1.819 . S
C840 C239 1.415 . S
C835 N53 1.425 . S
C865 N14 1.650 . S
C870 C110 1.652 . S
C900 C150 1.395 . S
C895 N27 1.408 . S
C930 C194 1.855 . S
C925 N40 1.805 . S
C955 N1 1.427 . S
C960 C230 1.414 . S
