# Generated by pormake.
# Topology eea, (3,6)-cn, num edge types: 1
# Building blocks:
#     Node 0, Type 0, BuildingBlock: VETTIZ_charged_linker_0, # of connection points: 3
#     Node 1, Type 0, BuildingBlock: VETTIZ_charged_linker_0, # of connection points: 3
#     Node 2, Type 0, BuildingBlock: VETTIZ_charged_linker_0, # of connection points: 3
#     Node 3, Type 0, BuildingBlock: VETTIZ_charged_linker_0, # of connection points: 3
#     Node 4, Type 0, BuildingBlock: VETTIZ_charged_linker_0, # of connection points: 3
#     Node 5, Type 0, BuildingBlock: VETTIZ_charged_linker_0, # of connection points: 3
#     Node 6, Type 0, BuildingBlock: VETTIZ_charged_linker_0, # of connection points: 3
#     Node 7, Type 0, BuildingBlock: VETTIZ_charged_linker_0, # of connection points: 3
#     Node 8, Type 0, BuildingBlock: VETTIZ_charged_linker_0, # of connection points: 3
#     Node 9, Type 0, BuildingBlock: VETTIZ_charged_linker_0, # of connection points: 3
#     Node 10, Type 0, BuildingBlock: VETTIZ_charged_linker_0, # of connection points: 3
#     Node 11, Type 0, BuildingBlock: VETTIZ_charged_linker_0, # of connection points: 3
#     Node 12, Type 0, BuildingBlock: VETTIZ_charged_linker_0, # of connection points: 3
#     Node 13, Type 0, BuildingBlock: VETTIZ_charged_linker_0, # of connection points: 3
#     Node 14, Type 0, BuildingBlock: VETTIZ_charged_linker_0, # of connection points: 3
#     Node 15, Type 0, BuildingBlock: VETTIZ_charged_linker_0, # of connection points: 3
#     Node 16, Type 0, BuildingBlock: VETTIZ_charged_linker_0, # of connection points: 3
#     Node 17, Type 0, BuildingBlock: VETTIZ_charged_linker_0, # of connection points: 3
#     Node 18, Type 1, BuildingBlock: HISSIN_clean_sbu_0, # of connection points: 6
#     Node 19, Type 1, BuildingBlock: HISSIN_clean_sbu_0, # of connection points: 6
#     Node 20, Type 1, BuildingBlock: HISSIN_clean_sbu_0, # of connection points: 6
#     Node 21, Type 1, BuildingBlock: HISSIN_clean_sbu_0, # of connection points: 6
#     Node 22, Type 1, BuildingBlock: HISSIN_clean_sbu_0, # of connection points: 6
#     Node 23, Type 1, BuildingBlock: HISSIN_clean_sbu_0, # of connection points: 6
#     Node 24, Type 1, BuildingBlock: HISSIN_clean_sbu_0, # of connection points: 6
#     Node 25, Type 1, BuildingBlock: HISSIN_clean_sbu_0, # of connection points: 6
#     Node 26, Type 1, BuildingBlock: HISSIN_clean_sbu_0, # of connection points: 6
#     Edge 27, Type (0, 1), BuildingBlock: KIFKEQ_clean_linker_1, # of connection points: 2
#     Edge 28, Type (0, 1), BuildingBlock: KIFKEQ_clean_linker_1, # of connection points: 2
#     Edge 29, Type (0, 1), BuildingBlock: KIFKEQ_clean_linker_1, # of connection points: 2
#     Edge 30, Type (0, 1), BuildingBlock: KIFKEQ_clean_linker_1, # of connection points: 2
#     Edge 31, Type (0, 1), BuildingBlock: KIFKEQ_clean_linker_1, # of connection points: 2
#     Edge 32, Type (0, 1), BuildingBlock: KIFKEQ_clean_linker_1, # of connection points: 2
#     Edge 33, Type (0, 1), BuildingBlock: KIFKEQ_clean_linker_1, # of connection points: 2
#     Edge 34, Type (0, 1), BuildingBlock: KIFKEQ_clean_linker_1, # of connection points: 2
#     Edge 35, Type (0, 1), BuildingBlock: KIFKEQ_clean_linker_1, # of connection points: 2
#     Edge 36, Type (0, 1), BuildingBlock: KIFKEQ_clean_linker_1, # of connection points: 2
#     Edge 37, Type (0, 1), BuildingBlock: KIFKEQ_clean_linker_1, # of connection points: 2
#     Edge 38, Type (0, 1), BuildingBlock: KIFKEQ_clean_linker_1, # of connection points: 2
#     Edge 39, Type (0, 1), BuildingBlock: KIFKEQ_clean_linker_1, # of connection points: 2
#     Edge 40, Type (0, 1), BuildingBlock: KIFKEQ_clean_linker_1, # of connection points: 2
#     Edge 41, Type (0, 1), BuildingBlock: KIFKEQ_clean_linker_1, # of connection points: 2
#     Edge 42, Type (0, 1), BuildingBlock: KIFKEQ_clean_linker_1, # of connection points: 2
#     Edge 43, Type (0, 1), BuildingBlock: KIFKEQ_clean_linker_1, # of connection points: 2
#     Edge 44, Type (0, 1), BuildingBlock: KIFKEQ_clean_linker_1, # of connection points: 2
#     Edge 45, Type (0, 1), BuildingBlock: KIFKEQ_clean_linker_1, # of connection points: 2
#     Edge 46, Type (0, 1), BuildingBlock: KIFKEQ_clean_linker_1, # of connection points: 2
#     Edge 47, Type (0, 1), BuildingBlock: KIFKEQ_clean_linker_1, # of connection points: 2
#     Edge 48, Type (0, 1), BuildingBlock: KIFKEQ_clean_linker_1, # of connection points: 2
#     Edge 49, Type (0, 1), BuildingBlock: KIFKEQ_clean_linker_1, # of connection points: 2
#     Edge 50, Type (0, 1), BuildingBlock: KIFKEQ_clean_linker_1, # of connection points: 2
#     Edge 51, Type (0, 1), BuildingBlock: KIFKEQ_clean_linker_1, # of connection points: 2
#     Edge 52, Type (0, 1), BuildingBlock: KIFKEQ_clean_linker_1, # of connection points: 2
#     Edge 53, Type (0, 1), BuildingBlock: KIFKEQ_clean_linker_1, # of connection points: 2
#     Edge 54, Type (0, 1), BuildingBlock: KIFKEQ_clean_linker_1, # of connection points: 2
#     Edge 55, Type (0, 1), BuildingBlock: KIFKEQ_clean_linker_1, # of connection points: 2
#     Edge 56, Type (0, 1), BuildingBlock: KIFKEQ_clean_linker_1, # of connection points: 2
#     Edge 57, Type (0, 1), BuildingBlock: KIFKEQ_clean_linker_1, # of connection points: 2
#     Edge 58, Type (0, 1), BuildingBlock: KIFKEQ_clean_linker_1, # of connection points: 2
#     Edge 59, Type (0, 1), BuildingBlock: KIFKEQ_clean_linker_1, # of connection points: 2
#     Edge 60, Type (0, 1), BuildingBlock: KIFKEQ_clean_linker_1, # of connection points: 2
#     Edge 61, Type (0, 1), BuildingBlock: KIFKEQ_clean_linker_1, # of connection points: 2
#     Edge 62, Type (0, 1), BuildingBlock: KIFKEQ_clean_linker_1, # of connection points: 2
#     Edge 63, Type (0, 1), BuildingBlock: KIFKEQ_clean_linker_1, # of connection points: 2
#     Edge 64, Type (0, 1), BuildingBlock: KIFKEQ_clean_linker_1, # of connection points: 2
#     Edge 65, Type (0, 1), BuildingBlock: KIFKEQ_clean_linker_1, # of connection points: 2
#     Edge 66, Type (0, 1), BuildingBlock: KIFKEQ_clean_linker_1, # of connection points: 2
#     Edge 67, Type (0, 1), BuildingBlock: KIFKEQ_clean_linker_1, # of connection points: 2
#     Edge 68, Type (0, 1), BuildingBlock: KIFKEQ_clean_linker_1, # of connection points: 2
#     Edge 69, Type (0, 1), BuildingBlock: KIFKEQ_clean_linker_1, # of connection points: 2
#     Edge 70, Type (0, 1), BuildingBlock: KIFKEQ_clean_linker_1, # of connection points: 2
#     Edge 71, Type (0, 1), BuildingBlock: KIFKEQ_clean_linker_1, # of connection points: 2
#     Edge 72, Type (0, 1), BuildingBlock: KIFKEQ_clean_linker_1, # of connection points: 2
#     Edge 73, Type (0, 1), BuildingBlock: KIFKEQ_clean_linker_1, # of connection points: 2
#     Edge 74, Type (0, 1), BuildingBlock: KIFKEQ_clean_linker_1, # of connection points: 2
#     Edge 75, Type (0, 1), BuildingBlock: KIFKEQ_clean_linker_1, # of connection points: 2
#     Edge 76, Type (0, 1), BuildingBlock: KIFKEQ_clean_linker_1, # of connection points: 2
#     Edge 77, Type (0, 1), BuildingBlock: KIFKEQ_clean_linker_1, # of connection points: 2
#     Edge 78, Type (0, 1), BuildingBlock: KIFKEQ_clean_linker_1, # of connection points: 2
#     Edge 79, Type (0, 1), BuildingBlock: KIFKEQ_clean_linker_1, # of connection points: 2
#     Edge 80, Type (0, 1), BuildingBlock: KIFKEQ_clean_linker_1, # of connection points: 2
# Relax obj value: 0.035
# Max RMSD: 0.134
# Mean RMSD: 0.074
data_MOF--net-eea--node1-HISSIN_clean_sbu_0--node2-VETTIZ_charged_linker_0--edge1-KIFKEQ_clean_linker_1
_symmetry_space_group_name_H-M    P1
_symmetry_Int_Tables_number       1
_symmetry_cell_setting            triclinic
loop_
_symmetry_equiv_pos_as_xyz
'x, y, z'
_cell_length_a     62.755946
_cell_length_b     63.112059
_cell_length_c     91.275744
_cell_angle_alpha  93.268397
_cell_angle_beta   93.182945
_cell_angle_gamma 119.82946
loop_
_atom_site_label
_atom_site_type_symbol
_atom_site_fract_x
_atom_site_fract_y
_atom_site_fract_z
_atom_type_partial_charge
C0 C 0.26166 0.19415 0.3862 0.0
C1 C 0.25999 0.21322 0.39382 0.0
C2 C 0.26679 0.21821 0.40918 0.0
C3 C 0.27563 0.18494 0.40902 0.0
C4 C 0.26908 0.18012 0.39399 0.0
C5 C 0.26939 0.15777 0.38769 0.0
H6 H 0.27486 0.05634 0.3999 0.0
C7 C 0.28134 0.16621 0.41383 0.0
C8 C 0.27754 0.15014 0.40139 0.0
H9 H 0.2587 0.07751 0.35828 0.0
H10 H 0.26761 0.1164 0.37031 0.0
H11 H 0.32323 0.10739 0.40914 0.0
H12 H 0.24879 0.07693 0.4205 0.0
H13 H 0.26902 0.09023 0.43678 0.0
H14 H 0.26916 0.06578 0.4258 0.0
H15 H 0.31276 0.08857 0.42408 0.0
H16 H 0.32579 0.12145 0.42682 0.0
C17 C 0.28876 0.1657 0.37632 0.0
C18 C 0.24271 0.13853 0.3813 0.0
C19 C 0.30849 0.16819 0.46772 0.0
C20 C 0.31526 0.15325 0.47523 0.0
C21 C 0.3147 0.13312 0.46731 0.0
C22 C 0.30734 0.1278 0.45217 0.0
C23 C 0.30048 0.14276 0.44483 0.0
C24 C 0.3014 0.16274 0.45253 0.0
C25 C 0.29399 0.17685 0.44272 0.0
C26 C 0.28887 0.16221 0.42787 0.0
C27 C 0.29235 0.14208 0.42926 0.0
C28 C 0.31625 0.20319 0.443 0.0
C29 C 0.27038 0.17558 0.44804 0.0
C30 C 0.2736 0.06942 0.39326 0.0
C31 C 0.26548 0.06345 0.37813 0.0
C32 C 0.26416 0.08122 0.37002 0.0
C33 C 0.26942 0.10386 0.37702 0.0
C34 C 0.2761 0.10888 0.3923 0.0
C35 C 0.27895 0.09217 0.40005 0.0
C36 C 0.28733 0.10111 0.41608 0.0
C37 C 0.28764 0.12535 0.4168 0.0
C38 C 0.28076 0.12964 0.40289 0.0
C39 C 0.31354 0.10472 0.41932 0.0
C40 C 0.26772 0.08258 0.42538 0.0
H41 H 0.27942 0.20888 0.42845 0.0
H42 H 0.25696 0.18989 0.37441 0.0
H43 H 0.22895 0.13911 0.38825 0.0
H44 H 0.23882 0.11945 0.38106 0.0
H45 H 0.23867 0.14209 0.36999 0.0
H46 H 0.30474 0.18434 0.37977 0.0
H47 H 0.2807 0.16621 0.36529 0.0
H48 H 0.29687 0.1537 0.37529 0.0
H49 H 0.30896 0.1839 0.4735 0.0
H50 H 0.31956 0.1212 0.47289 0.0
H51 H 0.30704 0.11208 0.44682 0.0
H52 H 0.33374 0.20281 0.4426 0.0
H53 H 0.31797 0.21455 0.45323 0.0
H54 H 0.31525 0.21264 0.4334 0.0
H55 H 0.25886 0.1581 0.45294 0.0
H56 H 0.25807 0.1757 0.43895 0.0
H57 H 0.27505 0.19089 0.45658 0.0
H58 H 0.26534 0.23243 0.41547 0.0
C59 C 0.27474 0.20431 0.41678 0.0
C60 C 0.96027 0.18414 0.39854 0.0
C61 C 0.97846 0.20826 0.4036 0.0
C62 C 0.97593 0.21929 0.41676 0.0
C63 C 0.93795 0.18177 0.41987 0.0
C64 C 0.94021 0.17142 0.4067 0.0
C65 C 0.91905 0.14592 0.40248 0.0
H66 H 0.80961 0.05161 0.4166 0.0
C67 C 0.91504 0.16325 0.42569 0.0
C68 C 0.90384 0.14237 0.41539 0.0
H69 H 0.85167 0.05651 0.3796 0.0
H70 H 0.8833 0.09687 0.38946 0.0
H71 H 0.85347 0.06967 0.43969 0.0
H72 H 0.821 0.10824 0.41987 0.0
H73 H 0.82637 0.11677 0.43904 0.0
H74 H 0.80641 0.08504 0.43224 0.0
H75 H 0.82816 0.07068 0.44716 0.0
H76 H 0.85982 0.09368 0.45303 0.0
C77 C 0.92938 0.12812 0.40175 0.0
C78 C 0.90536 0.14609 0.38784 0.0
C79 C 0.89309 0.17856 0.47677 0.0
C80 C 0.87406 0.16332 0.48517 0.0
C81 C 0.85554 0.14001 0.47882 0.0
C82 C 0.85604 0.13169 0.4644 0.0
C83 C 0.87548 0.14666 0.45624 0.0
C84 C 0.89358 0.16972 0.46237 0.0
C85 C 0.91319 0.18255 0.45205 0.0
C86 C 0.9041 0.16309 0.43897 0.0
C87 C 0.88186 0.14226 0.44151 0.0
C88 C 0.93822 0.18781 0.45966 0.0
C89 C 0.91269 0.20576 0.44796 0.0
C90 C 0.82566 0.06121 0.41062 0.0
C91 C 0.82772 0.05073 0.39711 0.0
C92 C 0.84906 0.0642 0.38978 0.0
C93 C 0.86763 0.08767 0.39561 0.0
C94 C 0.86516 0.09787 0.40904 0.0
C95 C 0.84461 0.08454 0.41641 0.0
C96 C 0.84589 0.09769 0.43099 0.0
C97 C 0.8702 0.12152 0.43087 0.0
C98 C 0.88127 0.12153 0.41796 0.0
C99 C 0.84673 0.08221 0.44341 0.0
C100 C 0.82372 0.10213 0.43067 0.0
H101 H 0.95497 0.21532 0.43498 0.0
H102 H 0.96153 0.17539 0.38831 0.0
H103 H 0.90541 0.16371 0.38744 0.0
H104 H 0.88564 0.13184 0.3865 0.0
H105 H 0.91432 0.14389 0.37817 0.0
H106 H 0.94562 0.13453 0.40999 0.0
H107 H 0.9354 0.12672 0.39069 0.0
H108 H 0.91604 0.10953 0.40451 0.0
H109 H 0.90759 0.19653 0.48148 0.0
H110 H 0.84064 0.12815 0.48509 0.0
H111 H 0.84137 0.11376 0.46024 0.0
H112 H 0.93602 0.17158 0.46509 0.0
H113 H 0.94566 0.20359 0.46827 0.0
H114 H 0.95225 0.19159 0.4519 0.0
H115 H 0.8935 0.20246 0.44708 0.0
H116 H 0.91928 0.21118 0.43707 0.0
H117 H 0.92382 0.22146 0.45645 0.0
H118 H 0.98977 0.23792 0.42082 0.0
C119 C 0.9558 0.20612 0.42497 0.0
C120 C 0.96182 0.78544 0.40492 0.0
C121 C 0.97928 0.77909 0.40992 0.0
C122 C 0.9752 0.76599 0.42246 0.0
C123 C 0.937 0.76639 0.42497 0.0
C124 C 0.94084 0.7787 0.41245 0.0
C125 C 0.92 0.78299 0.40799 0.0
H126 H 0.80857 0.76961 0.41932 0.0
C127 C 0.91329 0.76227 0.43013 0.0
C128 C 0.90321 0.77177 0.42006 0.0
H129 H 0.85351 0.80243 0.3838 0.0
H130 H 0.88472 0.79478 0.39431 0.0
H131 H 0.81871 0.72424 0.42083 0.0
H132 H 0.85241 0.79586 0.44455 0.0
H133 H 0.85352 0.77643 0.45718 0.0
H134 H 0.82396 0.77092 0.44925 0.0
H135 H 0.80357 0.73317 0.43389 0.0
H136 H 0.82287 0.72093 0.43962 0.0
C137 C 0.90787 0.7688 0.39262 0.0
C138 C 0.93044 0.81107 0.40857 0.0
C139 C 0.88371 0.72302 0.47799 0.0
C140 C 0.86274 0.71773 0.48547 0.0
C141 C 0.84554 0.72373 0.47927 0.0
C142 C 0.84882 0.73439 0.46594 0.0
C143 C 0.86963 0.73938 0.45858 0.0
C144 C 0.88677 0.73385 0.46461 0.0
C145 C 0.90786 0.74078 0.45514 0.0
C146 C 0.90065 0.75167 0.44262 0.0
C147 C 0.8781 0.75059 0.4447 0.0
C148 C 0.90782 0.71711 0.44964 0.0
C149 C 0.93199 0.76017 0.46432 0.0
C150 C 0.8252 0.77531 0.41385 0.0
C151 C 0.8283 0.7864 0.40056 0.0
C152 C 0.85027 0.79336 0.39383 0.0
C153 C 0.86852 0.78904 0.40003 0.0
C154 C 0.86499 0.77763 0.41316 0.0
C155 C 0.8437 0.77115 0.41991 0.0
C156 C 0.84336 0.75956 0.43394 0.0
C157 C 0.86768 0.75966 0.43429 0.0
C158 C 0.88023 0.77026 0.42208 0.0
C159 C 0.82091 0.73312 0.43213 0.0
C160 C 0.84312 0.77633 0.44696 0.0
H161 H 0.95227 0.74997 0.43961 0.0
H162 H 0.96421 0.79506 0.39514 0.0
H163 H 0.94465 0.82083 0.4181 0.0
H164 H 0.91633 0.81634 0.41022 0.0
H165 H 0.93925 0.8184 0.3984 0.0
H166 H 0.9093 0.75194 0.39111 0.0
H167 H 0.91695 0.78027 0.38362 0.0
H168 H 0.88785 0.76204 0.39108 0.0
H169 H 0.89726 0.71859 0.48233 0.0
H170 H 0.82954 0.72048 0.48485 0.0
H171 H 0.83496 0.7384 0.46191 0.0
H172 H 0.88863 0.70137 0.44742 0.0
H173 H 0.91775 0.71216 0.45799 0.0
H174 H 0.91598 0.71855 0.43907 0.0
H175 H 0.92913 0.77415 0.47047 0.0
H176 H 0.94717 0.7705 0.45749 0.0
H177 H 0.93818 0.75149 0.4725 0.0
H178 H 0.98842 0.76086 0.42648 0.0
C179 C 0.95426 0.75975 0.43007 0.0
C180 C 0.1621 0.21129 0.60394 0.0
C181 C 0.18318 0.21349 0.59787 0.0
C182 C 0.18797 0.22185 0.58374 0.0
C183 C 0.15146 0.22595 0.58222 0.0
C184 C 0.14655 0.21744 0.59594 0.0
C185 C 0.12316 0.21552 0.60074 0.0
H186 H 0.02655 0.23392 0.58879 0.0
C187 C 0.13181 0.23103 0.57699 0.0
C188 C 0.11514 0.22486 0.58778 0.0
H189 H 0.04254 0.20004 0.62451 0.0
H190 H 0.07889 0.20588 0.61399 0.0
H191 H 0.08307 0.27687 0.58604 0.0
H192 H 0.03924 0.20431 0.56314 0.0
H193 H 0.05498 0.22514 0.55028 0.0
H194 H 0.03272 0.22852 0.56028 0.0
H195 H 0.05736 0.26903 0.57283 0.0
H196 H 0.08769 0.27862 0.56721 0.0
C197 C 0.1299 0.23281 0.61508 0.0
C198 C 0.1046 0.1881 0.60229 0.0
C199 C 0.13538 0.26596 0.52778 0.0
C200 C 0.12072 0.27371 0.5202 0.0
C201 C 0.1002 0.27217 0.52675 0.0
C202 C 0.09425 0.26284 0.54049 0.0
C203 C 0.10902 0.25502 0.54787 0.0
C204 C 0.12931 0.25687 0.54152 0.0
C205 C 0.1434 0.24842 0.55106 0.0
C206 C 0.12806 0.24082 0.56409 0.0
C207 C 0.10783 0.2446 0.56218 0.0
C208 C 0.16961 0.27063 0.55551 0.0
C209 C 0.14293 0.22626 0.54248 0.0
C210 C 0.03775 0.22759 0.59432 0.0
C211 C 0.03162 0.21692 0.60777 0.0
C212 C 0.04697 0.20904 0.61446 0.0
C213 C 0.06808 0.21217 0.60822 0.0
C214 C 0.07405 0.22303 0.59495 0.0
C215 C 0.05889 0.23029 0.58809 0.0
C216 C 0.06785 0.24054 0.57368 0.0
C217 C 0.09085 0.23824 0.57313 0.0
C218 C 0.09443 0.2282 0.58574 0.0
C219 C 0.07423 0.26766 0.57485 0.0
C220 C 0.0477 0.22398 0.56111 0.0
H221 H 0.17705 0.23434 0.56526 0.0
H222 H 0.15781 0.20516 0.61479 0.0
H223 H 0.10858 0.17566 0.59532 0.0
H224 H 0.0854 0.18276 0.59842 0.0
H225 H 0.1053 0.18373 0.61386 0.0
H226 H 0.1471 0.25054 0.61429 0.0
H227 H 0.13308 0.22447 0.62475 0.0
H228 H 0.11576 0.23778 0.61733 0.0
H229 H 0.15153 0.26729 0.52322 0.0
H230 H 0.08852 0.27789 0.52113 0.0
H231 H 0.07836 0.26205 0.54484 0.0
H232 H 0.16901 0.28791 0.55729 0.0
H233 H 0.18205 0.27304 0.54678 0.0
H234 H 0.17812 0.26924 0.56606 0.0
H235 H 0.12496 0.21465 0.53572 0.0
H236 H 0.1447 0.21375 0.54978 0.0
H237 H 0.15771 0.23246 0.53489 0.0
H238 H 0.2037 0.22328 0.57858 0.0
C239 C 0.17232 0.22812 0.57593 0.0
C240 C 0.74898 0.80959 0.62064 0.0
C241 C 0.74473 0.78699 0.61408 0.0
C242 C 0.7318 0.77814 0.59993 0.0
C243 C 0.72891 0.81491 0.5988 0.0
C244 C 0.74087 0.82312 0.61287 0.0
C245 C 0.74436 0.84769 0.61819 0.0
H246 H 0.73393 0.94619 0.60435 0.0
C247 C 0.72392 0.83388 0.59356 0.0
C248 C 0.73272 0.853 0.60496 0.0
H249 H 0.76773 0.93524 0.64365 0.0
H250 H 0.75572 0.89442 0.63345 0.0
H251 H 0.75713 0.92676 0.58289 0.0
H252 H 0.68554 0.89066 0.59893 0.0
H253 H 0.68141 0.88159 0.57992 0.0
H254 H 0.69438 0.91362 0.5862 0.0
H255 H 0.73243 0.93078 0.57553 0.0
H256 H 0.73704 0.90639 0.56812 0.0
C257 C 0.77248 0.86612 0.62107 0.0
C258 C 0.72981 0.84452 0.63185 0.0
C259 C 0.68967 0.82617 0.54047 0.0
C260 C 0.68547 0.8422 0.53231 0.0
C261 C 0.68827 0.86385 0.53958 0.0
C262 C 0.69596 0.86992 0.55465 0.0
C263 C 0.70123 0.85435 0.56254 0.0
C264 C 0.69768 0.83268 0.55553 0.0
C265 C 0.70471 0.81871 0.5657 0.0
C266 C 0.71355 0.83588 0.57984 0.0
C267 C 0.7115 0.8567 0.57787 0.0
C268 C 0.72584 0.81625 0.55935 0.0
C269 C 0.68125 0.79394 0.5674 0.0
C270 C 0.73882 0.93506 0.61078 0.0
C271 C 0.75192 0.94412 0.62483 0.0
C272 C 0.75743 0.92873 0.63288 0.0
C273 C 0.75064 0.90505 0.62686 0.0
C274 C 0.73843 0.8967 0.61257 0.0
C275 C 0.73252 0.91155 0.60485 0.0
C276 C 0.72051 0.90013 0.58958 0.0
C277 C 0.72011 0.87589 0.58943 0.0
C278 C 0.7306 0.87399 0.60291 0.0
C279 C 0.7374 0.9168 0.57836 0.0
C280 C 0.69411 0.89638 0.58844 0.0
H281 H 0.71442 0.78446 0.58146 0.0
H282 H 0.75852 0.81667 0.63159 0.0
H283 H 0.71233 0.82651 0.63063 0.0
H284 H 0.72397 0.85831 0.63341 0.0
H285 H 0.74076 0.84524 0.64205 0.0
H286 H 0.78291 0.86172 0.61316 0.0
H287 H 0.77968 0.86564 0.63237 0.0
H288 H 0.77741 0.88517 0.61945 0.0
H289 H 0.68777 0.80947 0.53512 0.0
H290 H 0.68476 0.87626 0.53353 0.0
H291 H 0.69803 0.88681 0.55949 0.0
H292 H 0.73923 0.83361 0.55496 0.0
H293 H 0.71854 0.80136 0.55017 0.0
H294 H 0.73688 0.81278 0.56766 0.0
H295 H 0.66452 0.79582 0.56678 0.0
H296 H 0.68172 0.78718 0.57826 0.0
H297 H 0.67834 0.77967 0.55855 0.0
H298 H 0.72839 0.76079 0.59464 0.0
C299 C 0.72384 0.79197 0.59227 0.0
C300 C 0.04267 0.80855 0.60926 0.0
C301 C 0.02394 0.78495 0.60369 0.0
C302 C 0.02658 0.77402 0.59053 0.0
C303 C 0.06616 0.81044 0.58861 0.0
C304 C 0.0636 0.82076 0.60168 0.0
C305 C 0.08557 0.8455 0.60658 0.0
H306 H 0.1981 0.93773 0.59496 0.0
C307 C 0.09033 0.82803 0.58368 0.0
C308 C 0.10185 0.84841 0.59432 0.0
H309 H 0.15433 0.93323 0.63092 0.0
H310 H 0.12269 0.89294 0.6208 0.0
H311 H 0.18896 0.88444 0.59387 0.0
H312 H 0.15141 0.91453 0.56944 0.0
H313 H 0.15657 0.89564 0.55697 0.0
H314 H 0.18251 0.92186 0.5672 0.0
H315 H 0.20121 0.9009 0.57819 0.0
H316 H 0.17987 0.8682 0.57629 0.0
C317 C 0.09723 0.84394 0.62163 0.0
C318 C 0.07694 0.86466 0.60683 0.0
C319 C 0.11546 0.81156 0.534 0.0
C320 C 0.13731 0.8244 0.52713 0.0
C321 C 0.15736 0.84579 0.53459 0.0
C322 C 0.15555 0.85476 0.54855 0.0
C323 C 0.13348 0.84216 0.55519 0.0
C324 C 0.11409 0.82059 0.54814 0.0
C325 C 0.09286 0.80885 0.55752 0.0
C326 C 0.10229 0.82761 0.57097 0.0
C327 C 0.126 0.84718 0.56941 0.0
C328 C 0.08973 0.78391 0.56135 0.0
C329 C 0.06974 0.80683 0.54911 0.0
C330 C 0.18163 0.92812 0.60061 0.0
C331 C 0.17884 0.93874 0.61382 0.0
C332 C 0.15722 0.92539 0.62089 0.0
C333 C 0.13871 0.90201 0.61491 0.0
C334 C 0.14167 0.89175 0.60166 0.0
C335 C 0.16286 0.90475 0.59474 0.0
C336 C 0.16258 0.89105 0.58062 0.0
C337 C 0.13771 0.86768 0.58024 0.0
C338 C 0.12561 0.86827 0.59258 0.0
C339 C 0.18432 0.88595 0.58217 0.0
C340 C 0.16346 0.90648 0.56781 0.0
H341 H 0.04848 0.77765 0.57285 0.0
H342 H 0.04126 0.81718 0.61948 0.0
H343 H 0.062 0.85965 0.59786 0.0
H344 H 0.09163 0.88315 0.6048 0.0
H345 H 0.06961 0.86585 0.61745 0.0
H346 H 0.09516 0.82546 0.6223 0.0
H347 H 0.08826 0.84732 0.63092 0.0
H348 H 0.11734 0.85677 0.62343 0.0
H349 H 0.09996 0.79483 0.52854 0.0
H350 H 0.17432 0.85588 0.52944 0.0
H351 H 0.17137 0.8713 0.55357 0.0
H352 H 0.10757 0.78409 0.5616 0.0
H353 H 0.07644 0.7687 0.55311 0.0
H354 H 0.08372 0.77953 0.57249 0.0
H355 H 0.0744 0.82441 0.5445 0.0
H356 H 0.05483 0.80305 0.55621 0.0
H357 H 0.06235 0.79216 0.53979 0.0
H358 H 0.01227 0.75579 0.58609 0.0
C359 C 0.04755 0.78673 0.58289 0.0
C360 C 0.93116 0.5278 0.72196 0.0
C361 C 0.93066 0.54782 0.72916 0.0
C362 C 0.93911 0.55439 0.74429 0.0
C363 C 0.94666 0.52033 0.74489 0.0
C364 C 0.93892 0.51425 0.73001 0.0
C365 C 0.93838 0.4912 0.72423 0.0
H366 H 0.94195 0.38957 0.73875 0.0
C367 C 0.95192 0.50154 0.75017 0.0
C368 C 0.94707 0.48442 0.7381 0.0
H369 H 0.92457 0.40844 0.69664 0.0
H370 H 0.93498 0.44837 0.70777 0.0
H371 H 0.99126 0.44106 0.7472 0.0
H372 H 0.91694 0.41205 0.75859 0.0
H373 H 0.93707 0.42628 0.77478 0.0
H374 H 0.93703 0.40099 0.76467 0.0
H375 H 0.98026 0.42202 0.76201 0.0
H376 H 0.99393 0.45497 0.76493 0.0
C377 C 0.95695 0.49773 0.71243 0.0
C378 C 0.9113 0.47201 0.71854 0.0
C379 C 0.97778 0.50494 0.80449 0.0
C380 C 0.98295 0.48943 0.81258 0.0
C381 C 0.9821 0.46883 0.80505 0.0
C382 C 0.97565 0.46343 0.78984 0.0
C383 C 0.96989 0.4787 0.78198 0.0
C384 C 0.97138 0.49927 0.78924 0.0
C385 C 0.96485 0.51347 0.77898 0.0
C386 C 0.95943 0.49809 0.76437 0.0
C387 C 0.9621 0.4776 0.76628 0.0
C388 C 0.98774 0.53936 0.77899 0.0
C389 C 0.94159 0.51339 0.78397 0.0
C390 C 0.94076 0.40239 0.73183 0.0
C391 C 0.93192 0.39556 0.71683 0.0
C392 C 0.93067 0.41294 0.70831 0.0
C393 C 0.93679 0.43616 0.71478 0.0
C394 C 0.94415 0.44211 0.72997 0.0
C395 C 0.94683 0.42567 0.73812 0.0
C396 C 0.95558 0.43542 0.75402 0.0
C397 C 0.95664 0.45999 0.75418 0.0
C398 C 0.94963 0.46365 0.74011 0.0
C399 C 0.98151 0.43843 0.75734 0.0
C400 C 0.93581 0.41782 0.76363 0.0
H401 H 0.95304 0.54655 0.76366 0.0
H402 H 0.92517 0.52239 0.71032 0.0
H403 H 0.8982 0.47343 0.72571 0.0
H404 H 0.9071 0.45287 0.71869 0.0
H405 H 0.90665 0.47489 0.70717 0.0
H406 H 0.97313 0.5165 0.71517 0.0
H407 H 0.94826 0.49723 0.70138 0.0
H408 H 0.96489 0.48555 0.71175 0.0
H409 H 0.97813 0.52083 0.80993 0.0
H410 H 0.9865 0.45687 0.81095 0.0
H411 H 0.97512 0.44739 0.78481 0.0
H412 H 0.00496 0.53835 0.77938 0.0
H413 H 0.98929 0.55159 0.78874 0.0
H414 H 0.98769 0.54816 0.76889 0.0
H415 H 0.92913 0.49589 0.78858 0.0
H416 H 0.9301 0.51452 0.77479 0.0
H417 H 0.94666 0.52861 0.79265 0.0
H418 H 0.9387 0.56952 0.75021 0.0
C419 C 0.94722 0.54086 0.75215 0.0
C420 C 0.62034 0.50818 0.72972 0.0
C421 C 0.6401 0.53098 0.73574 0.0
C422 C 0.63902 0.54052 0.74988 0.0
C423 C 0.5991 0.50456 0.75173 0.0
C424 C 0.60018 0.4954 0.73784 0.0
C425 C 0.57781 0.47097 0.73288 0.0
H426 H 0.46963 0.37514 0.74754 0.0
C427 C 0.57562 0.48647 0.75719 0.0
C428 C 0.56315 0.46678 0.74613 0.0
H429 H 0.50604 0.38478 0.70759 0.0
H430 H 0.53855 0.42483 0.71786 0.0
H431 H 0.51828 0.39737 0.77017 0.0
H432 H 0.4769 0.42806 0.7511 0.0
H433 H 0.48765 0.44294 0.76898 0.0
H434 H 0.46721 0.41009 0.76647 0.0
H435 H 0.48853 0.39055 0.77539 0.0
H436 H 0.51657 0.41638 0.78431 0.0
C437 C 0.58632 0.45189 0.73053 0.0
C438 C 0.56443 0.47383 0.71897 0.0
C439 C 0.5526 0.50148 0.80808 0.0
C440 C 0.53175 0.48749 0.81565 0.0
C441 C 0.51307 0.46444 0.80895 0.0
C442 C 0.51478 0.45558 0.79496 0.0
C443 C 0.53545 0.46977 0.78746 0.0
C444 C 0.554 0.49229 0.79397 0.0
C445 C 0.57449 0.50465 0.78412 0.0
C446 C 0.56494 0.48587 0.77065 0.0
C447 C 0.5421 0.4655 0.77278 0.0
C448 C 0.59843 0.50766 0.79202 0.0
C449 C 0.57623 0.52909 0.78049 0.0
C450 C 0.48472 0.38587 0.74107 0.0
C451 C 0.48543 0.3768 0.7268 0.0
C452 C 0.50507 0.39147 0.71859 0.0
C453 C 0.52399 0.41467 0.72461 0.0
C454 C 0.52324 0.42336 0.73899 0.0
C455 C 0.50366 0.40915 0.74688 0.0
C456 C 0.5055 0.42167 0.76178 0.0
C457 C 0.52967 0.44557 0.76165 0.0
C458 C 0.54004 0.44635 0.74834 0.0
C459 C 0.50714 0.40573 0.77362 0.0
C460 C 0.48316 0.42584 0.76226 0.0
H461 H 0.61896 0.5356 0.76861 0.0
H462 H 0.62035 0.5005 0.7188 0.0
H463 H 0.56708 0.49265 0.71923 0.0
H464 H 0.54419 0.46159 0.71815 0.0
H465 H 0.57157 0.4705 0.70875 0.0
H466 H 0.60137 0.4555 0.73909 0.0
H467 H 0.59348 0.45266 0.71959 0.0
H468 H 0.57165 0.43291 0.73155 0.0
H469 H 0.56726 0.51928 0.8129 0.0
H470 H 0.4971 0.45302 0.81463 0.0
H471 H 0.49987 0.43792 0.79057 0.0
H472 H 0.59442 0.49122 0.79781 0.0
H473 H 0.60718 0.52387 0.80036 0.0
H474 H 0.61205 0.50933 0.78434 0.0
H475 H 0.5575 0.52681 0.77864 0.0
H476 H 0.5849 0.53558 0.77025 0.0
H477 H 0.58659 0.5437 0.7897 0.0
H478 H 0.6541 0.55799 0.75483 0.0
C479 C 0.61866 0.52744 0.7579 0.0
C480 C 0.62785 0.12259 0.73752 0.0
C481 C 0.64638 0.11772 0.74262 0.0
C482 C 0.6439 0.10654 0.75588 0.0
C483 C 0.60496 0.10525 0.75854 0.0
C484 C 0.60745 0.11619 0.74555 0.0
C485 C 0.58608 0.1198 0.74135 0.0
H486 H 0.47206 0.09877 0.75232 0.0
C487 C 0.58129 0.10061 0.76399 0.0
C488 C 0.57017 0.10903 0.75386 0.0
H489 H 0.51894 0.13954 0.71912 0.0
H490 H 0.55102 0.1333 0.72941 0.0
H491 H 0.48777 0.05666 0.75449 0.0
H492 H 0.51311 0.12731 0.77779 0.0
H493 H 0.51884 0.11048 0.79048 0.0
H494 H 0.48749 0.10018 0.78322 0.0
H495 H 0.46988 0.06383 0.76638 0.0
H496 H 0.49067 0.05424 0.77359 0.0
C497 C 0.5733 0.10468 0.72632 0.0
C498 C 0.59588 0.14774 0.74135 0.0
C499 C 0.5548 0.06276 0.81251 0.0
C500 C 0.53416 0.05739 0.82028 0.0
C501 C 0.51543 0.06102 0.81382 0.0
C502 C 0.5173 0.07017 0.80005 0.0
C503 C 0.53822 0.07603 0.79258 0.0
C504 C 0.55654 0.07226 0.79876 0.0
C505 C 0.57763 0.08009 0.78921 0.0
C506 C 0.56917 0.08975 0.77656 0.0
C507 C 0.54592 0.08706 0.77858 0.0
C508 C 0.57904 0.05709 0.78399 0.0
C509 C 0.6014 0.10063 0.79816 0.0
C510 C 0.48921 0.10656 0.74724 0.0
C511 C 0.49227 0.11906 0.73448 0.0
C512 C 0.51527 0.12891 0.72851 0.0
C513 C 0.5342 0.12554 0.73463 0.0
C514 C 0.53056 0.11256 0.7471 0.0
C515 C 0.50863 0.10391 0.75344 0.0
C516 C 0.50904 0.09261 0.76749 0.0
C517 C 0.53445 0.09501 0.76811 0.0
C518 C 0.54674 0.10635 0.756 0.0
C519 C 0.4882 0.0654 0.76552 0.0
C520 C 0.50686 0.10823 0.78046 0.0
H521 H 0.62262 0.09195 0.77387 0.0
H522 H 0.62892 0.13083 0.7273 0.0
H523 H 0.61308 0.15872 0.7489 0.0
H524 H 0.58283 0.15312 0.7455 0.0
H525 H 0.60015 0.15383 0.73017 0.0
H526 H 0.57183 0.08634 0.72605 0.0
H527 H 0.584 0.11414 0.71712 0.0
H528 H 0.55423 0.10088 0.72405 0.0
H529 H 0.56954 0.06026 0.81721 0.0
H530 H 0.4992 0.05668 0.81945 0.0
H531 H 0.50237 0.07244 0.79579 0.0
H532 H 0.56023 0.04073 0.78169 0.0
H533 H 0.58933 0.0529 0.79255 0.0
H534 H 0.58757 0.05885 0.77355 0.0
H535 H 0.59747 0.11361 0.80458 0.0
H536 H 0.61584 0.11199 0.79115 0.0
H537 H 0.6091 0.09286 0.80609 0.0
H538 H 0.658 0.10279 0.76018 0.0
C539 C 0.62337 0.10033 0.76386 0.0
C540 C 0.8358 0.55006 0.9397 0.0
C541 C 0.85617 0.55101 0.93331 0.0
C542 C 0.85958 0.55722 0.91864 0.0
C543 C 0.82336 0.56182 0.91732 0.0
C544 C 0.81958 0.55511 0.93149 0.0
C545 C 0.79629 0.55329 0.93641 0.0
H546 H 0.69448 0.56275 0.92228 0.0
C547 C 0.80316 0.566 0.91191 0.0
C548 C 0.78707 0.56068 0.92299 0.0
H549 H 0.71566 0.53766 0.96062 0.0
H550 H 0.75282 0.54489 0.95037 0.0
H551 H 0.74896 0.60825 0.91936 0.0
H552 H 0.71081 0.53448 0.89783 0.0
H553 H 0.72456 0.55533 0.88458 0.0
H554 H 0.70119 0.55643 0.89463 0.0
H555 H 0.72441 0.59847 0.90495 0.0
H556 H 0.75593 0.6098 0.90095 0.0
C557 C 0.80341 0.57211 0.95004 0.0
C558 C 0.7785 0.52623 0.93919 0.0
C559 C 0.80499 0.59889 0.86212 0.0
C560 C 0.78987 0.60606 0.85443 0.0
C561 C 0.76874 0.60333 0.86082 0.0
C562 C 0.7629 0.59384 0.87452 0.0
C563 C 0.77837 0.58702 0.88208 0.0
C564 C 0.79904 0.58967 0.87585 0.0
C565 C 0.81365 0.58192 0.88551 0.0
C566 C 0.79855 0.57447 0.89866 0.0
C567 C 0.77775 0.5773 0.89657 0.0
C568 C 0.83965 0.60454 0.88971 0.0
C569 C 0.81365 0.5598 0.87719 0.0
C570 C 0.70704 0.55863 0.9284 0.0
C571 C 0.70201 0.54968 0.94237 0.0
C572 C 0.71912 0.54493 0.95 0.0
C573 C 0.74068 0.54892 0.94394 0.0
C574 C 0.74537 0.55769 0.93001 0.0
C575 C 0.72877 0.56249 0.92246 0.0
C576 C 0.73713 0.57191 0.90779 0.0
C577 C 0.76105 0.57125 0.90766 0.0
C578 C 0.76576 0.563 0.92076 0.0
C579 C 0.74174 0.59843 0.90812 0.0
C580 C 0.71742 0.55378 0.89547 0.0
H581 H 0.84715 0.56735 0.89962 0.0
H582 H 0.8324 0.54557 0.95091 0.0
H583 H 0.78221 0.51331 0.93251 0.0
H584 H 0.75896 0.52017 0.93581 0.0
H585 H 0.78044 0.52328 0.95096 0.0
H586 H 0.82035 0.58967 0.94854 0.0
H587 H 0.80718 0.56509 0.96016 0.0
H588 H 0.78918 0.57712 0.95192 0.0
H589 H 0.82113 0.60027 0.85754 0.0
H590 H 0.75686 0.60895 0.85534 0.0
H591 H 0.74664 0.59232 0.87876 0.0
H592 H 0.83836 0.62126 0.89241 0.0
H593 H 0.85138 0.60806 0.88045 0.0
H594 H 0.84936 0.60282 0.89961 0.0
H595 H 0.79639 0.54858 0.86973 0.0
H596 H 0.8141 0.54685 0.88468 0.0
H597 H 0.82941 0.56601 0.87034 0.0
H598 H 0.87452 0.55749 0.91313 0.0
C599 C 0.84344 0.56274 0.91069 0.0
C600 C 0.40867 0.13857 0.95297 0.0
C601 C 0.40723 0.11739 0.94597 0.0
C602 C 0.39695 0.1099 0.93116 0.0
C603 C 0.39131 0.14515 0.93043 0.0
C604 C 0.40093 0.15222 0.945 0.0
C605 C 0.40336 0.17629 0.95051 0.0
H606 H 0.40062 0.27829 0.93522 0.0
C607 C 0.38651 0.1642 0.9251 0.0
C608 C 0.39365 0.18254 0.93682 0.0
H609 H 0.42388 0.26279 0.97673 0.0
H610 H 0.4113 0.22168 0.9664 0.0
H611 H 0.42306 0.25401 0.91457 0.0
H612 H 0.35071 0.22665 0.92899 0.0
H613 H 0.34604 0.21267 0.91102 0.0
H614 H 0.3606 0.24569 0.9141 0.0
H615 H 0.40231 0.26426 0.90847 0.0
H616 H 0.40157 0.23795 0.89917 0.0
C617 C 0.43111 0.19479 0.95497 0.0
C618 C 0.38656 0.17178 0.96316 0.0
C619 C 0.35289 0.15669 0.87179 0.0
C620 C 0.34762 0.17216 0.86369 0.0
C621 C 0.35141 0.19432 0.87088 0.0
C622 C 0.36034 0.20103 0.88577 0.0
C623 C 0.36581 0.18559 0.89364 0.0
C624 C 0.36191 0.16375 0.88671 0.0
C625 C 0.36901 0.14984 0.8969 0.0
C626 C 0.37745 0.16682 0.9111 0.0
C627 C 0.37571 0.1878 0.90904 0.0
C628 C 0.39043 0.14771 0.89067 0.0
C629 C 0.34567 0.12492 0.89844 0.0
C630 C 0.403 0.266 0.94206 0.0
C631 C 0.41358 0.27381 0.95671 0.0
C632 C 0.4158 0.25714 0.9654 0.0
C633 C 0.40867 0.23337 0.95934 0.0
C634 C 0.39927 0.22625 0.94444 0.0
C635 C 0.39594 0.24224 0.93619 0.0
C636 C 0.38516 0.2314 0.92067 0.0
C637 C 0.38341 0.20655 0.92078 0.0
C638 C 0.39192 0.20374 0.93467 0.0
C639 C 0.40378 0.2477 0.91006 0.0
C640 C 0.35936 0.22906 0.91843 0.0
H641 H 0.38154 0.11707 0.91212 0.0
H642 H 0.41608 0.14475 0.96438 0.0
H643 H 0.36943 0.15354 0.96107 0.0
H644 H 0.38005 0.18511 0.96421 0.0
H645 H 0.39612 0.17219 0.97387 0.0
H646 H 0.44284 0.19174 0.9474 0.0
H647 H 0.43675 0.19281 0.96632 0.0
H648 H 0.43611 0.21407 0.95421 0.0
H649 H 0.35004 0.13946 0.86666 0.0
H650 H 0.34799 0.20684 0.86491 0.0
H651 H 0.36298 0.21821 0.89051 0.0
H652 H 0.40232 0.16399 0.88485 0.0
H653 H 0.3833 0.13119 0.88266 0.0
H654 H 0.40314 0.14728 0.89936 0.0
H655 H 0.32933 0.12726 0.89931 0.0
H656 H 0.34712 0.11667 0.90852 0.0
H657 H 0.34155 0.11162 0.88871 0.0
H658 H 0.39584 0.09387 0.92537 0.0
C659 C 0.38887 0.12356 0.9234 0.0
C660 C 0.71168 0.15495 0.94474 0.0
C661 C 0.69073 0.13349 0.93811 0.0
C662 C 0.69094 0.12532 0.92339 0.0
C663 C 0.73227 0.15976 0.92237 0.0
C664 C 0.73188 0.1678 0.93671 0.0
C665 C 0.75479 0.19153 0.94212 0.0
H666 H 0.86323 0.28758 0.92837 0.0
C667 C 0.75614 0.17764 0.91719 0.0
C668 C 0.7692 0.19638 0.92874 0.0
H669 H 0.82708 0.27609 0.96858 0.0
H670 H 0.79451 0.2366 0.95781 0.0
H671 H 0.85676 0.23537 0.92444 0.0
H672 H 0.81511 0.26582 0.9056 0.0
H673 H 0.81842 0.2481 0.89128 0.0
H674 H 0.84553 0.27361 0.90118 0.0
H675 H 0.86537 0.25157 0.90833 0.0
H676 H 0.84443 0.21882 0.90707 0.0
C677 C 0.7679 0.18695 0.95544 0.0
C678 C 0.74722 0.21112 0.94556 0.0
C679 C 0.77997 0.16378 0.86629 0.0
C680 C 0.80166 0.17728 0.85931 0.0
C681 C 0.82081 0.19959 0.86653 0.0
C682 C 0.81875 0.20823 0.88048 0.0
C683 C 0.7973 0.19449 0.88744 0.0
C684 C 0.77829 0.17265 0.88044 0.0
C685 C 0.75712 0.16059 0.88988 0.0
C686 C 0.76692 0.1786 0.90373 0.0
C687 C 0.79037 0.19849 0.90207 0.0
C688 C 0.7536 0.13525 0.89296 0.0
C689 C 0.73413 0.15941 0.88185 0.0
C690 C 0.84847 0.2765 0.93494 0.0
C691 C 0.84764 0.28527 0.94929 0.0
C692 C 0.82793 0.27014 0.95737 0.0
C693 C 0.80905 0.24709 0.95112 0.0
C694 C 0.80982 0.23893 0.93662 0.0
C695 C 0.82953 0.25336 0.9289 0.0
C696 C 0.82772 0.24135 0.91383 0.0
C697 C 0.80317 0.21769 0.91359 0.0
C698 C 0.79275 0.21648 0.9269 0.0
C699 C 0.84971 0.2366 0.91325 0.0
C700 C 0.82679 0.25802 0.90228 0.0
H701 H 0.7106 0.13116 0.90439 0.0
H702 H 0.71256 0.1617 0.95606 0.0
H703 H 0.73123 0.20784 0.93789 0.0
H704 H 0.76182 0.22992 0.94403 0.0
H705 H 0.74179 0.21073 0.95696 0.0
H706 H 0.76566 0.1683 0.95396 0.0
H707 H 0.76011 0.18833 0.96585 0.0
H708 H 0.78806 0.19962 0.95677 0.0
H709 H 0.76494 0.14657 0.861 0.0
H710 H 0.83746 0.21058 0.86128 0.0
H711 H 0.83402 0.22535 0.88527 0.0
H712 H 0.77177 0.13664 0.89574 0.0
H713 H 0.74426 0.12172 0.88313 0.0
H714 H 0.74295 0.12781 0.90245 0.0
H715 H 0.73944 0.17609 0.87601 0.0
H716 H 0.72091 0.15899 0.88949 0.0
H717 H 0.72448 0.1432 0.87353 0.0
H718 H 0.67501 0.10907 0.91784 0.0
C719 C 0.71158 0.13827 0.91552 0.0
C720 C 0.59184 0.85779 0.05516 0.0
C721 C 0.59366 0.87889 0.06247 0.0
C722 C 0.60447 0.88628 0.07716 0.0
C723 C 0.6098 0.8508 0.0773 0.0
C724 C 0.60002 0.84411 0.06273 0.0
C725 C 0.59878 0.82087 0.05663 0.0
H726 H 0.60405 0.71952 0.06942 0.0
C727 C 0.61504 0.8318 0.08218 0.0
C728 C 0.60876 0.8143 0.07008 0.0
H729 H 0.58677 0.73958 0.02767 0.0
H730 H 0.59573 0.77863 0.03945 0.0
H731 H 0.65292 0.77117 0.07798 0.0
H732 H 0.57863 0.74081 0.08971 0.0
H733 H 0.59853 0.75579 0.10587 0.0
H734 H 0.59925 0.73057 0.09613 0.0
H735 H 0.64169 0.75047 0.09199 0.0
H736 H 0.65552 0.78324 0.0962 0.0
C737 C 0.61594 0.82693 0.04403 0.0
C738 C 0.57136 0.8017 0.05185 0.0
C739 C 0.64474 0.83543 0.1358 0.0
C740 C 0.64949 0.81942 0.14366 0.0
C741 C 0.64632 0.79779 0.13608 0.0
C742 C 0.63854 0.79215 0.121 0.0
C743 C 0.63367 0.80819 0.11335 0.0
C744 C 0.63686 0.82946 0.12071 0.0
C745 C 0.63047 0.8441 0.11074 0.0
C746 C 0.62329 0.82825 0.09616 0.0
C747 C 0.62507 0.8072 0.09782 0.0
C748 C 0.6539 0.86942 0.11017 0.0
C749 C 0.60835 0.84535 0.11656 0.0
C750 C 0.60255 0.73238 0.06268 0.0
C751 C 0.59421 0.72607 0.04758 0.0
C752 C 0.59246 0.74355 0.03938 0.0
C753 C 0.59781 0.76632 0.04622 0.0
C754 C 0.60509 0.77182 0.06143 0.0
C755 C 0.6081 0.75529 0.06928 0.0
C756 C 0.61723 0.76476 0.08518 0.0
C757 C 0.61855 0.78945 0.08564 0.0
C758 C 0.61098 0.79326 0.07178 0.0
C759 C 0.64309 0.76746 0.08813 0.0
C760 C 0.59759 0.7471 0.09484 0.0
H761 H 0.6203 0.87872 0.09583 0.0
H762 H 0.58405 0.85194 0.04378 0.0
H763 H 0.55942 0.80193 0.06035 0.0
H764 H 0.56769 0.78269 0.05052 0.0
H765 H 0.565 0.80575 0.04133 0.0
H766 H 0.63112 0.84641 0.0455 0.0
H767 H 0.60558 0.82389 0.03312 0.0
H768 H 0.62547 0.81616 0.04378 0.0
H769 H 0.64719 0.85231 0.14124 0.0
H770 H 0.64939 0.78489 0.14187 0.0
H771 H 0.63632 0.77533 0.11594 0.0
H772 H 0.6707 0.86766 0.11049 0.0
H773 H 0.65631 0.88242 0.11971 0.0
H774 H 0.65383 0.87773 0.09985 0.0
H775 H 0.59524 0.82776 0.12083 0.0
H776 H 0.59717 0.84809 0.10793 0.0
H777 H 0.61465 0.86016 0.12571 0.0
H778 H 0.60602 0.90247 0.08303 0.0
C779 C 0.61257 0.87236 0.0846 0.0
C780 C 0.28755 0.85722 0.06324 0.0
C781 C 0.30658 0.88066 0.06905 0.0
C782 C 0.30499 0.88997 0.08316 0.0
C783 C 0.26696 0.85217 0.08563 0.0
C784 C 0.26804 0.84351 0.0716 0.0
C785 C 0.24662 0.81832 0.06687 0.0
H786 H 0.14707 0.71558 0.08411 0.0
C787 C 0.24499 0.83259 0.09164 0.0
C788 C 0.23301 0.8128 0.08061 0.0
H789 H 0.17632 0.7309 0.04182 0.0
H790 H 0.20747 0.77183 0.05189 0.0
H791 H 0.19789 0.74082 0.10393 0.0
H792 H 0.14936 0.76707 0.09017 0.0
H793 H 0.1604 0.77938 0.10851 0.0
H794 H 0.14272 0.7465 0.10423 0.0
H795 H 0.1696 0.73225 0.11196 0.0
H796 H 0.19819 0.75933 0.11911 0.0
C797 C 0.25684 0.80085 0.06364 0.0
C798 C 0.23126 0.82008 0.05356 0.0
C799 C 0.22683 0.84246 0.14474 0.0
C800 C 0.20912 0.82597 0.15339 0.0
C801 C 0.19195 0.80206 0.14713 0.0
C802 C 0.19224 0.79457 0.13248 0.0
C803 C 0.21004 0.81106 0.12395 0.0
C804 C 0.22713 0.8345 0.13008 0.0
C805 C 0.24534 0.8489 0.11937 0.0
C806 C 0.23586 0.83042 0.10575 0.0
C807 C 0.21513 0.80837 0.10858 0.0
C808 C 0.2713 0.85491 0.1258 0.0
C809 C 0.24315 0.87174 0.11665 0.0
C810 C 0.1603 0.72781 0.07708 0.0
C811 C 0.15955 0.72013 0.06224 0.0
C812 C 0.17665 0.73658 0.0533 0.0
C813 C 0.1947 0.76027 0.05918 0.0
C814 C 0.19548 0.76764 0.07413 0.0
C815 C 0.17816 0.75166 0.08272 0.0
C816 C 0.18098 0.76308 0.09812 0.0
C817 C 0.20304 0.78848 0.0974 0.0
C818 C 0.21167 0.79088 0.08342 0.0
C819 C 0.1868 0.74813 0.10894 0.0
C820 C 0.15716 0.76399 0.10055 0.0
H821 H 0.28528 0.88389 0.10213 0.0
H822 H 0.28806 0.84923 0.05255 0.0
H823 H 0.23383 0.83884 0.05347 0.0
H824 H 0.21115 0.80797 0.05393 0.0
H825 H 0.23667 0.81568 0.04293 0.0
H826 H 0.27177 0.80439 0.07228 0.0
H827 H 0.26468 0.80356 0.05284 0.0
H828 H 0.24289 0.7813 0.06369 0.0
H829 H 0.24038 0.86088 0.14936 0.0
H830 H 0.17805 0.78917 0.15357 0.0
H831 H 0.17859 0.77615 0.12842 0.0
H832 H 0.27031 0.83907 0.13115 0.0
H833 H 0.27944 0.87095 0.13426 0.0
H834 H 0.28424 0.85849 0.11733 0.0
H835 H 0.2235 0.86705 0.11591 0.0
H836 H 0.24986 0.87908 0.10611 0.0
H837 H 0.25335 0.88653 0.12579 0.0
H838 H 0.31898 0.90817 0.08784 0.0
C839 C 0.28534 0.87587 0.09146 0.0
C840 C 0.29709 0.45284 0.07001 0.0
C841 C 0.31398 0.4454 0.07436 0.0
C842 C 0.30972 0.4315 0.08654 0.0
C843 C 0.27234 0.43305 0.08993 0.0
C844 C 0.27638 0.44625 0.07778 0.0
C845 C 0.25603 0.45161 0.074 0.0
H846 H 0.14431 0.43688 0.08627 0.0
C847 C 0.24891 0.42908 0.0954 0.0
C848 C 0.2392 0.43971 0.08595 0.0
H849 H 0.19083 0.47581 0.05273 0.0
H850 H 0.22215 0.46723 0.06233 0.0
H851 H 0.15527 0.39138 0.08576 0.0
H852 H 0.18613 0.46077 0.11172 0.0
H853 H 0.18923 0.44125 0.12348 0.0
H854 H 0.15881 0.43431 0.11628 0.0
H855 H 0.13913 0.39886 0.09887 0.0
H856 H 0.15838 0.38646 0.10437 0.0
C857 C 0.24362 0.43871 0.05843 0.0
C858 C 0.26719 0.47983 0.07544 0.0
C859 C 0.21918 0.38699 0.1424 0.0
C860 C 0.19818 0.38127 0.14993 0.0
C861 C 0.1808 0.38721 0.14398 0.0
C862 C 0.18403 0.39842 0.13086 0.0
C863 C 0.20497 0.40403 0.12349 0.0
C864 C 0.22217 0.39834 0.12922 0.0
C865 C 0.24323 0.40574 0.11968 0.0
C866 C 0.23612 0.41747 0.10762 0.0
C867 C 0.21358 0.41619 0.10993 0.0
C868 C 0.24296 0.38223 0.11352 0.0
C869 C 0.26744 0.42457 0.12901 0.0
C870 C 0.1612 0.44334 0.08097 0.0
C871 C 0.16508 0.45675 0.06865 0.0
C872 C 0.1875 0.46542 0.06223 0.0
C873 C 0.20559 0.46033 0.06779 0.0
C874 C 0.20133 0.44658 0.08001 0.0
C875 C 0.17962 0.43874 0.08654 0.0
C876 C 0.17894 0.42574 0.09997 0.0
C877 C 0.20341 0.42622 0.10008 0.0
C878 C 0.21632 0.43822 0.08829 0.0
C879 C 0.15672 0.39923 0.09725 0.0
C880 C 0.17807 0.44107 0.11361 0.0
H881 H 0.28694 0.41501 0.10366 0.0
H882 H 0.29968 0.46318 0.06054 0.0
H883 H 0.28251 0.48885 0.08445 0.0
H884 H 0.25379 0.48545 0.07848 0.0
H885 H 0.27476 0.48767 0.06508 0.0
H886 H 0.24255 0.42059 0.0568 0.0
H887 H 0.25426 0.44991 0.04971 0.0
H888 H 0.22435 0.43454 0.05656 0.0
H889 H 0.23283 0.38255 0.14657 0.0
H890 H 0.16474 0.38355 0.14961 0.0
H891 H 0.17005 0.40237 0.12701 0.0
H892 H 0.22378 0.3664 0.11162 0.0
H893 H 0.25356 0.37718 0.12132 0.0
H894 H 0.25026 0.38395 0.10265 0.0
H895 H 0.2648 0.43848 0.13543 0.0
H896 H 0.28272 0.43502 0.12227 0.0
H897 H 0.27337 0.41537 0.13696 0.0
H898 H 0.32253 0.42559 0.09008 0.0
C899 C 0.28909 0.42543 0.09441 0.0
C900 C 0.49813 0.8805 0.27326 0.0
C901 C 0.52127 0.88682 0.26849 0.0
C902 C 0.52833 0.89912 0.25568 0.0
C903 C 0.48918 0.89817 0.25245 0.0
C904 C 0.48259 0.88661 0.26522 0.0
C905 C 0.45799 0.88247 0.26926 0.0
H906 H 0.35741 0.89398 0.25505 0.0
C907 C 0.46881 0.9019 0.24676 0.0
C908 C 0.45065 0.89302 0.25668 0.0
H909 H 0.37567 0.86427 0.29215 0.0
H910 H 0.4131 0.8717 0.28218 0.0
H911 H 0.41241 0.93979 0.25348 0.0
H912 H 0.37511 0.86731 0.23011 0.0
H913 H 0.39076 0.88885 0.21758 0.0
H914 H 0.36634 0.88977 0.22658 0.0
H915 H 0.38703 0.93008 0.23963 0.0
H916 H 0.41824 0.94243 0.23484 0.0
C917 C 0.46215 0.89733 0.28433 0.0
C918 C 0.44035 0.85444 0.26907 0.0
C919 C 0.47299 0.93749 0.1977 0.0
C920 C 0.45712 0.94306 0.18943 0.0
C921 C 0.43507 0.9389 0.19517 0.0
C922 C 0.42881 0.92912 0.20877 0.0
C923 C 0.44479 0.92346 0.21683 0.0
C924 C 0.46654 0.92784 0.21128 0.0
C925 C 0.48162 0.92129 0.22144 0.0
C926 C 0.46513 0.91172 0.23385 0.0
C927 C 0.44352 0.91299 0.23114 0.0
C928 C 0.50636 0.94503 0.22671 0.0
C929 C 0.48453 0.90092 0.21314 0.0
C930 C 0.36942 0.88895 0.26096 0.0
C931 C 0.36359 0.87877 0.27455 0.0
C932 C 0.37986 0.8726 0.28186 0.0
C933 C 0.40161 0.87681 0.276 0.0
C934 C 0.40742 0.88735 0.2626 0.0
C935 C 0.39143 0.89314 0.25523 0.0
C936 C 0.40089 0.90421 0.24109 0.0
C937 C 0.42531 0.90444 0.24138 0.0
C938 C 0.4289 0.89446 0.25402 0.0
C939 C 0.40476 0.93047 0.24216 0.0
C940 C 0.38235 0.88684 0.22808 0.0
H941 H 0.51869 0.91388 0.23786 0.0
H942 H 0.49245 0.87143 0.28322 0.0
H943 H 0.4434 0.84432 0.2598 0.0
H944 H 0.42068 0.84901 0.26728 0.0
H945 H 0.44347 0.8476 0.27947 0.0
H946 H 0.48087 0.91395 0.28596 0.0
H947 H 0.46043 0.88615 0.29363 0.0
H948 H 0.44941 0.90458 0.28523 0.0
H949 H 0.49028 0.94087 0.19378 0.0
H950 H 0.42242 0.94288 0.18901 0.0
H951 H 0.41174 0.92628 0.21248 0.0
H952 H 0.50421 0.96151 0.22691 0.0
H953 H 0.52082 0.94787 0.2193 0.0
H954 H 0.51318 0.94512 0.23815 0.0
H955 H 0.46675 0.88697 0.20691 0.0
H956 H 0.48966 0.89064 0.22055 0.0
H957 H 0.49853 0.90869 0.20511 0.0
H958 H 0.54611 0.90413 0.25183 0.0
C959 C 0.51236 0.90469 0.24759 0.0
C960 C 0.07283 0.47376 0.28978 0.0
C961 C 0.07224 0.4534 0.28222 0.0
C962 C 0.06341 0.44741 0.26713 0.0
C963 C 0.05767 0.48265 0.26726 0.0
C964 C 0.06574 0.48816 0.2821 0.0
C965 C 0.06727 0.5115 0.2883 0.0
H966 H 0.06446 0.6145 0.27618 0.0
C967 C 0.05331 0.50224 0.2624 0.0
C968 C 0.05897 0.51921 0.2747 0.0
H969 H 0.08235 0.59391 0.31752 0.0
H970 H 0.07262 0.55466 0.30554 0.0
H971 H 0.09046 0.59426 0.25607 0.0
H972 H 0.01542 0.56218 0.26672 0.0
H973 H 0.01389 0.55182 0.24824 0.0
H974 H 0.02737 0.58429 0.25351 0.0
H975 H 0.06973 0.60411 0.24927 0.0
H976 H 0.07138 0.57932 0.23965 0.0
C977 C 0.09457 0.52988 0.29401 0.0
C978 C 0.04888 0.50516 0.30021 0.0
C979 C 0.02601 0.50072 0.20858 0.0
C980 C 0.02171 0.5171 0.20081 0.0
C981 C 0.02474 0.53854 0.20858 0.0
C982 C 0.03191 0.54362 0.22373 0.0
C983 C 0.03634 0.52723 0.2313 0.0
C984 C 0.03329 0.50615 0.22376 0.0
C985 C 0.0392 0.49108 0.23365 0.0
C986 C 0.04591 0.50646 0.24839 0.0
C987 C 0.04432 0.52765 0.24688 0.0
C988 C 0.06149 0.48985 0.2281 0.0
C989 C 0.01558 0.46578 0.2338 0.0
C990 C 0.06589 0.60142 0.28275 0.0
C991 C 0.07446 0.6075 0.29782 0.0
C992 C 0.07627 0.58992 0.30585 0.0
C993 C 0.07054 0.5671 0.29887 0.0
C994 C 0.06302 0.56177 0.28368 0.0
C995 C 0.06023 0.57857 0.27597 0.0
C996 C 0.05165 0.56965 0.25996 0.0
C997 C 0.05036 0.54496 0.25926 0.0
C998 C 0.05727 0.54057 0.27313 0.0
C999 C 0.07164 0.58774 0.25064 0.0
C1000 C 0.02583 0.56695 0.2568 0.0
H1001 H 0.04984 0.45652 0.24814 0.0
H1002 H 0.07913 0.47874 0.3014 0.0
H1003 H 0.03219 0.48679 0.29726 0.0
H1004 H 0.04173 0.51797 0.3013 0.0
H1005 H 0.05741 0.5048 0.31111 0.0
H1006 H 0.10731 0.52812 0.28668 0.0
H1007 H 0.09904 0.52648 0.30526 0.0
H1008 H 0.0994 0.54925 0.29409 0.0
H1009 H 0.02369 0.48399 0.20301 0.0
H1010 H 0.02201 0.55172 0.20288 0.0
H1011 H 0.03404 0.56032 0.22893 0.0
H1012 H 0.07415 0.50693 0.22317 0.0
H1013 H 0.05534 0.47423 0.21951 0.0
H1014 H 0.07319 0.48845 0.23704 0.0
H1015 H 0.99902 0.46788 0.23413 0.0
H1016 H 0.01575 0.45644 0.24363 0.0
H1017 H 0.01274 0.45352 0.22376 0.0
H1018 H 0.06298 0.43202 0.26094 0.0
C1019 C 0.05602 0.46183 0.25965 0.0
C1020 C 0.37932 0.48702 0.27593 0.0
C1021 C 0.36079 0.46291 0.27089 0.0
C1022 C 0.36347 0.4519 0.25771 0.0
C1023 C 0.40227 0.48876 0.25502 0.0
C1024 C 0.39983 0.49932 0.26802 0.0
C1025 C 0.42152 0.52445 0.2725 0.0
H1026 H 0.53297 0.61708 0.2594 0.0
C1027 C 0.42587 0.50665 0.24959 0.0
C1028 C 0.43728 0.52746 0.25993 0.0
H1029 H 0.49129 0.61236 0.2965 0.0
H1030 H 0.45878 0.57245 0.2863 0.0
H1031 H 0.52158 0.56131 0.25733 0.0
H1032 H 0.48808 0.59739 0.2354 0.0
H1033 H 0.48561 0.57474 0.22224 0.0
H1034 H 0.51579 0.59903 0.22986 0.0
H1035 H 0.53587 0.58219 0.24371 0.0
H1036 H 0.51522 0.54987 0.23864 0.0
C1037 C 0.43414 0.52371 0.28743 0.0
C1038 C 0.41221 0.54307 0.27282 0.0
C1039 C 0.45069 0.48889 0.19999 0.0
C1040 C 0.47141 0.50274 0.19228 0.0
C1041 C 0.48998 0.52604 0.19876 0.0
C1042 C 0.48814 0.53538 0.21258 0.0
C1043 C 0.46745 0.52144 0.22012 0.0
C1044 C 0.44912 0.49859 0.21388 0.0
C1045 C 0.42853 0.48658 0.2237 0.0
C1046 C 0.43739 0.50625 0.23664 0.0
C1047 C 0.46027 0.52654 0.23443 0.0
C1048 C 0.42749 0.46287 0.22831 0.0
C1049 C 0.40441 0.48228 0.21529 0.0
C1050 C 0.51678 0.60751 0.26529 0.0
C1051 C 0.51486 0.61788 0.27886 0.0
C1052 C 0.49351 0.60465 0.28618 0.0
C1053 C 0.47453 0.58148 0.28019 0.0
C1054 C 0.4768 0.57131 0.26668 0.0
C1055 C 0.49761 0.58433 0.25944 0.0
C1056 C 0.49664 0.57078 0.2451 0.0
C1057 C 0.47197 0.54731 0.24505 0.0
C1058 C 0.46049 0.54776 0.2577 0.0
C1059 C 0.5185 0.56583 0.24608 0.0
C1060 C 0.4967 0.5862 0.23243 0.0
H1061 H 0.38492 0.45533 0.23983 0.0
H1062 H 0.37797 0.49641 0.28583 0.0
H1063 H 0.39742 0.53791 0.26373 0.0
H1064 H 0.42667 0.56182 0.27108 0.0
H1065 H 0.40444 0.54366 0.28338 0.0
H1066 H 0.43204 0.50529 0.28842 0.0
H1067 H 0.42593 0.52782 0.29688 0.0
H1068 H 0.4543 0.53641 0.28866 0.0
H1069 H 0.43616 0.47088 0.19538 0.0
H1070 H 0.50585 0.53738 0.193 0.0
H1071 H 0.50292 0.55323 0.21679 0.0
H1072 H 0.44629 0.46519 0.22961 0.0
H1073 H 0.41611 0.44712 0.2199 0.0
H1074 H 0.42032 0.45805 0.23914 0.0
H1075 H 0.4078 0.49873 0.20969 0.0
H1076 H 0.38987 0.47908 0.22258 0.0
H1077 H 0.39706 0.46645 0.20673 0.0
H1078 H 0.34989 0.43321 0.25362 0.0
C1079 C 0.38399 0.46471 0.24974 0.0
Eu1080 Eu 0.49476 0.98433 0.98926 0.0
Eu1081 Eu 0.5104 0.01794 0.02165 0.0
C1082 C 0.48476 0.02876 0.99397 0.0
C1083 C 0.49049 0.97169 0.94787 0.0
C1084 C 0.49196 0.99402 0.94509 0.0
C1085 C 0.5007 0.96769 0.92287 0.0
C1086 C 0.49736 0.00291 0.93128 0.0
C1087 C 0.49503 0.95866 0.93668 0.0
C1088 C 0.50175 0.98985 0.91998 0.0
C1089 C 0.48504 0.9624 0.96252 0.0
O1090 O 0.47953 0.98027 0.02459 0.0
O1091 O 0.46015 0.96978 1.00119 0.0
C1092 C 0.45961 0.96769 0.01543 0.0
O1093 O 0.50334 0.96294 0.00514 0.0
O1094 O 0.49902 0.03315 0.03967 0.0
O1095 O 0.53584 0.03821 0.04128 0.0
O1096 O 0.52935 0.99565 0.02196 0.0
C1097 C 0.5207 0.97296 0.01624 0.0
O1098 O 0.53556 0.01124 0.99135 0.0
O1099 O 0.5377 0.04262 0.00654 0.0
O1100 O 0.48512 0.02686 0.00821 0.0
O1101 O 0.50403 0.9666 0.97138 0.0
O1102 O 0.46947 0.96645 0.96933 0.0
O1103 O 0.49384 0.01861 0.9853 0.0
C1104 C 0.5152 0.0313 0.06312 0.0
C1105 C 0.51629 0.01032 0.06632 0.0
C1106 C 0.50278 0.03386 0.08765 0.0
C1107 C 0.51075 0.00124 0.08011 0.0
C1108 C 0.50852 0.04303 0.07391 0.0
C1109 C 0.50369 0.01277 0.0909 0.0
C1110 C 0.51909 0.03999 0.04827 0.0
C1111 C 0.54681 0.03444 0.99651 0.0
H1112 H 0.48902 0.00466 0.95362 0.0
H1113 H 0.50388 0.95715 0.91439 0.0
H1114 H 0.49841 0.02022 0.92951 0.0
H1115 H 0.4942 0.9415 0.93862 0.0
H1116 H 0.52099 0.00068 0.05808 0.0
H1117 H 0.49765 0.04331 0.09575 0.0
H1118 H 0.51135 0.98481 0.08217 0.0
H1119 H 0.50735 0.0591 0.07163 0.0
Eu1120 Eu 0.02253 0.508 0.99177 0.0
Eu1121 Eu 0.99006 0.49642 0.0203 0.0
C1122 C 0.9749 0.45581 0.993 0.0
C1123 C 0.04096 0.51745 0.95289 0.0
C1124 C 0.01875 0.51623 0.94802 0.0
C1125 C 0.05048 0.51666 0.92756 0.0
C1126 C 0.01244 0.51524 0.93298 0.0
C1127 C 0.05682 0.51774 0.94261 0.0
C1128 C 0.02815 0.51528 0.92256 0.0
C1129 C 0.0473 0.51776 0.96863 0.0
O1130 O 0.02581 0.49864 0.02844 0.0
O1131 O 0.0345 0.48727 0.00628 0.0
C1132 C 0.03749 0.4901 0.02076 0.0
O1133 O 0.04639 0.53732 0.00998 0.0
O1134 O 0.9709 0.47172 0.0368 0.0
O1135 O 0.97076 0.50592 0.03626 0.0
O1136 O 0.01513 0.53744 0.02161 0.0
C1137 C 0.03829 0.54833 0.01876 0.0
O1138 O 0.99738 0.52374 0.98843 0.0
O1139 O 0.96608 0.49775 1.00146 0.0
O1140 O 0.97809 0.46026 0.0074 0.0
O1141 O 0.0464 0.53438 0.97732 0.0
O1142 O 0.03719 0.4964 0.97384 0.0
O1143 O 0.9868 0.47326 0.98448 0.0
C1144 C 0.97022 0.49072 0.05945 0.0
C1145 C 0.99239 0.51053 0.06622 0.0
C1146 C 0.95856 0.47627 0.08339 0.0
C1147 C 0.99757 0.51324 0.08154 0.0
C1148 C 0.95335 0.47368 0.06811 0.0
C1149 C 0.98076 0.49605 0.0903 0.0
C1150 C 0.96495 0.48667 0.04334 0.0
C1151 C 0.97428 0.51334 0.99143 0.0
H1152 H 0.00626 0.51593 0.95585 0.0
H1153 H 0.06281 0.51634 0.91982 0.0
H1154 H 0.99527 0.5145 0.92953 0.0
H1155 H 0.07396 0.51852 0.94622 0.0
H1156 H 0.00576 0.52377 0.05968 0.0
H1157 H 0.94539 0.46246 0.08974 0.0
H1158 H 0.01469 0.52885 0.0865 0.0
H1159 H 0.93628 0.45811 0.06301 0.0
Eu1160 Eu 0.51614 0.49601 0.01929 0.0
Eu1161 Eu 0.49131 0.50332 0.98859 0.0
C1162 C 0.52365 0.54761 0.0124 0.0
C1163 C 0.52319 0.48746 0.05968 0.0
C1164 C 0.51508 0.50293 0.06565 0.0
C1165 C 0.51319 0.46573 0.08172 0.0
C1166 C 0.50648 0.50008 0.07961 0.0
C1167 C 0.52204 0.46877 0.06779 0.0
C1168 C 0.50545 0.48147 0.08787 0.0
C1169 C 0.53232 0.49031 0.04494 0.0
O1170 O 0.53103 0.51575 0.98496 0.0
O1171 O 0.54139 0.49668 1.00246 0.0
C1172 C 0.54575 0.50831 0.99048 0.0
O1173 O 0.48814 0.45846 0.00843 0.0
O1174 O 0.49232 0.52836 0.97276 0.0
O1175 O 0.46405 0.48992 0.9694 0.0
O1176 O 0.49075 0.46772 0.98455 0.0
C1177 C 0.48487 0.45166 0.99426 0.0
O1178 O 0.48363 0.49945 0.02545 0.0
O1179 O 0.46007 0.48581 1.00317 0.0
O1180 O 0.50187 0.53568 0.00496 0.0
O1181 O 0.51914 0.4722 0.03482 0.0
O1182 O 0.53991 0.51158 0.0399 0.0
O1183 O 0.53557 0.53621 0.01592 0.0
C1184 C 0.48118 0.51021 0.94832 0.0
C1185 C 0.48628 0.49225 0.94259 0.0
C1186 C 0.49121 0.52948 0.92543 0.0
C1187 C 0.49361 0.49281 0.92836 0.0
C1188 C 0.48367 0.52878 0.93962 0.0
C1189 C 0.49632 0.51151 0.91961 0.0
C1190 C 0.47497 0.51083 0.96363 0.0
C1191 C 0.4622 0.49011 0.01761 0.0
H1192 H 0.5155 0.51738 0.05959 0.0
H1193 H 0.51231 0.45095 0.08761 0.0
H1194 H 0.50111 0.51284 0.08401 0.0
H1195 H 0.52794 0.45645 0.06333 0.0
H1196 H 0.48479 0.47787 0.94915 0.0
H1197 H 0.49344 0.54437 0.91914 0.0
H1198 H 0.49698 0.47843 0.9242 0.0
H1199 H 0.48017 0.54301 0.94392 0.0
Eu1200 Eu 0.15838 0.31655 0.31984 0.0
Eu1201 Eu 0.17738 0.34998 0.35252 0.0
C1202 C 0.14964 0.36162 0.32593 0.0
C1203 C 0.15133 0.30134 0.27855 0.0
C1204 C 0.15132 0.3226 0.27473 0.0
C1205 C 0.16353 0.29666 0.25424 0.0
C1206 C 0.15705 0.33062 0.26075 0.0
C1207 C 0.15755 0.28849 0.26821 0.0
C1208 C 0.16324 0.31777 0.25033 0.0
C1209 C 0.14607 0.29314 0.29347 0.0
O1210 O 0.14711 0.31202 0.3556 0.0
O1211 O 0.12524 0.30274 0.33305 0.0
C1212 C 0.12623 0.30007 0.3472 0.0
O1213 O 0.16941 0.29628 0.33528 0.0
O1214 O 0.1679 0.36629 0.37097 0.0
O1215 O 0.20293 0.36738 0.37246 0.0
O1216 O 0.1985 0.33 0.3502 0.0
C1217 C 0.18901 0.30704 0.34488 0.0
O1218 O 0.19764 0.34639 0.31859 0.0
O1219 O 0.20466 0.37537 0.33782 0.0
O1220 O 0.15217 0.36037 0.3402 0.0
O1221 O 0.16499 0.2964 0.30207 0.0
O1222 O 0.13175 0.29891 0.30044 0.0
O1223 O 0.15645 0.35035 0.31644 0.0
C1224 C 0.18227 0.36151 0.3942 0.0
C1225 C 0.17999 0.33877 0.39677 0.0
C1226 C 0.17164 0.36527 0.41907 0.0
C1227 C 0.17368 0.32941 0.41042 0.0
C1228 C 0.1781 0.37468 0.40546 0.0
C1229 C 0.16924 0.34245 0.42175 0.0
C1230 C 0.18728 0.37086 0.37957 0.0
C1231 C 0.21062 0.36853 0.32555 0.0
H1232 H 0.14703 0.33314 0.28258 0.0
H1233 H 0.16805 0.28626 0.24644 0.0
H1234 H 0.157 0.34714 0.25816 0.0
H1235 H 0.15789 0.27218 0.27095 0.0
H1236 H 0.18284 0.32812 0.38818 0.0
H1237 H 0.16796 0.37568 0.42737 0.0
H1238 H 0.17237 0.31196 0.41208 0.0
H1239 H 0.17942 0.39209 0.40363 0.0
Eu1240 Eu 0.68596 0.84186 0.32368 0.0
Eu1241 Eu 0.65403 0.82797 0.35252 0.0
C1242 C 0.63882 0.78818 0.32469 0.0
C1243 C 0.70543 0.85034 0.2846 0.0
C1244 C 0.68354 0.8299 0.27805 0.0
C1245 C 0.71607 0.8645 0.2605 0.0
C1246 C 0.67798 0.82675 0.26276 0.0
C1247 C 0.72166 0.86755 0.27577 0.0
C1248 C 0.69412 0.84411 0.25381 0.0
C1249 C 0.71098 0.85467 0.30067 0.0
O1250 O 0.68061 0.81391 0.35588 0.0
O1251 O 0.71031 0.83865 0.34142 0.0
C1252 C 0.70308 0.82356 0.35178 0.0
O1253 O 0.69609 0.87696 0.3375 0.0
O1254 O 0.63178 0.80141 0.36747 0.0
O1255 O 0.6379 0.83848 0.37002 0.0
O1256 O 0.69002 0.86214 0.36002 0.0
C1257 C 0.70049 0.88044 0.3519 0.0
O1258 O 0.64908 0.83709 0.31592 0.0
O1259 O 0.64074 0.84816 0.33823 0.0
O1260 O 0.6309 0.79749 0.3348 0.0
O1261 O 0.70293 0.86773 0.30734 0.0
O1262 O 0.70741 0.83585 0.30765 0.0
O1263 O 0.66114 0.80074 0.32049 0.0
C1264 C 0.63512 0.81861 0.39164 0.0
C1265 C 0.65675 0.83829 0.39906 0.0
C1266 C 0.62444 0.79987 0.41461 0.0
C1267 C 0.66204 0.83888 0.41419 0.0
C1268 C 0.61906 0.7994 0.39949 0.0
C1269 C 0.64597 0.81966 0.42216 0.0
C1270 C 0.62935 0.81753 0.37569 0.0
C1271 C 0.63715 0.84506 0.32375 0.0
H1272 H 0.67069 0.81651 0.28475 0.0
H1273 H 0.7287 0.87842 0.25399 0.0
H1274 H 0.66108 0.81069 0.25796 0.0
H1275 H 0.73851 0.88357 0.2807 0.0
H1276 H 0.66955 0.85326 0.3932 0.0
H1277 H 0.61186 0.78458 0.42033 0.0
H1278 H 0.67858 0.8546 0.41967 0.0
H1279 H 0.6024 0.78395 0.3939 0.0
Eu1280 Eu 0.18273 0.83363 0.35414 0.0
Eu1281 Eu 0.15557 0.83738 0.32328 0.0
C1282 C 0.19007 0.88381 0.34497 0.0
C1283 C 0.19481 0.82665 0.39467 0.0
C1284 C 0.20815 0.84424 0.40665 0.0
C1285 C 0.16632 0.80014 0.41135 0.0
C1286 C 0.20058 0.84001 0.4208 0.0
C1287 C 0.17381 0.8045 0.39712 0.0
C1288 C 0.17957 0.8179 0.42338 0.0
C1289 C 0.20268 0.83249 0.37978 0.0
O1290 O 0.19462 0.84889 0.31852 0.0
O1291 O 0.20662 0.83241 0.33688 0.0
C1292 C 0.20984 0.84225 0.32428 0.0
O1293 O 0.15347 0.79515 0.34559 0.0
O1294 O 0.15461 0.86089 0.30695 0.0
O1295 O 0.12823 0.8219 0.30408 0.0
O1296 O 0.15427 0.80116 0.32113 0.0
C1297 C 0.14878 0.78649 0.33165 0.0
O1298 O 0.1494 0.83557 0.36049 0.0
O1299 O 0.12507 0.82144 0.33842 0.0
O1300 O 0.16747 0.87126 0.33865 0.0
O1301 O 0.19388 0.81448 0.36928 0.0
O1302 O 0.20328 0.85204 0.37537 0.0
O1303 O 0.2022 0.87258 0.3483 0.0
C1304 C 0.14526 0.84164 0.28291 0.0
C1305 C 0.1556 0.82714 0.27892 0.0
C1306 C 0.15292 0.85813 0.25911 0.0
C1307 C 0.16445 0.82806 0.26512 0.0
C1308 C 0.1439 0.85706 0.2729 0.0
C1309 C 0.16348 0.84376 0.25508 0.0
C1310 C 0.13811 0.84248 0.29794 0.0
C1311 C 0.12772 0.82599 0.35286 0.0
H1312 H 0.22428 0.86153 0.40501 0.0
H1313 H 0.15021 0.78281 0.41292 0.0
H1314 H 0.21097 0.85438 0.42967 0.0
H1315 H 0.16307 0.79065 0.38805 0.0
H1316 H 0.15718 0.81535 0.28655 0.0
H1317 H 0.15216 0.87068 0.25178 0.0
H1318 H 0.17203 0.81641 0.26234 0.0
H1319 H 0.13636 0.86869 0.27589 0.0
Eu1320 Eu 0.82345 0.64487 0.65445 0.0
Eu1321 Eu 0.84274 0.6797 0.68659 0.0
C1322 C 0.81458 0.69061 0.66054 0.0
C1323 C 0.81685 0.63133 0.61295 0.0
C1324 C 0.81586 0.65241 0.60985 0.0
C1325 C 0.82871 0.62869 0.58824 0.0
C1326 C 0.82107 0.66143 0.59604 0.0
C1327 C 0.82329 0.61956 0.60202 0.0
C1328 C 0.8277 0.64977 0.58507 0.0
C1329 C 0.81305 0.62255 0.62779 0.0
O1330 O 0.80225 0.65316 0.68645 0.0
O1331 O 0.7962 0.62124 0.67 0.0
C1332 C 0.78953 0.62998 0.68121 0.0
O1333 O 0.84901 0.63545 0.66717 0.0
O1334 O 0.83712 0.70042 0.70449 0.0
O1335 O 0.86903 0.69577 0.70624 0.0
O1336 O 0.84199 0.64461 0.69032 0.0
C1337 C 0.85018 0.63387 0.68143 0.0
O1338 O 0.85423 0.68221 0.65072 0.0
O1339 O 0.87587 0.69297 0.67347 0.0
O1340 O 0.83285 0.70073 0.67111 0.0
O1341 O 0.83313 0.62851 0.63613 0.0
O1342 O 0.79704 0.62515 0.6351 0.0
O1343 O 0.80515 0.66772 0.65498 0.0
C1344 C 0.84893 0.6931 0.72776 0.0
C1345 C 0.83977 0.66815 0.72946 0.0
C1346 C 0.84442 0.6999 0.75363 0.0
C1347 C 0.83317 0.65917 0.74315 0.0
C1348 C 0.85116 0.70889 0.73992 0.0
C1349 C 0.83533 0.67488 0.75545 0.0
C1350 C 0.85532 0.70237 0.7132 0.0
C1351 C 0.87498 0.69475 0.6592 0.0
H1352 H 0.8114 0.66212 0.61819 0.0
H1353 H 0.83352 0.61913 0.58001 0.0
H1354 H 0.82043 0.67786 0.59405 0.0
H1355 H 0.82441 0.60344 0.60421 0.0
H1356 H 0.83769 0.65557 0.72018 0.0
H1357 H 0.84599 0.71251 0.76274 0.0
H1358 H 0.82663 0.63992 0.74409 0.0
H1359 H 0.85794 0.72815 0.7388 0.0
Eu1360 Eu 0.34586 0.16489 0.65507 0.0
Eu1361 Eu 0.3129 0.15344 0.68404 0.0
C1362 C 0.29822 0.112 0.65721 0.0
C1363 C 0.36515 0.17282 0.61597 0.0
C1364 C 0.34358 0.17198 0.61007 0.0
C1365 C 0.37655 0.17045 0.59123 0.0
C1366 C 0.33867 0.17069 0.59484 0.0
C1367 C 0.38154 0.17195 0.60648 0.0
C1368 C 0.35514 0.16996 0.58527 0.0
C1369 C 0.37087 0.17496 0.63196 0.0
O1370 O 0.34036 0.14108 0.68937 0.0
O1371 O 0.36914 0.16063 0.67291 0.0
C1372 C 0.36201 0.14827 0.68448 0.0
O1373 O 0.3583 0.20101 0.66822 0.0
O1374 O 0.29051 0.12787 0.69942 0.0
O1375 O 0.29613 0.16478 0.70073 0.0
O1376 O 0.34825 0.18847 0.69115 0.0
C1377 C 0.36077 0.2056 0.6826 0.0
O1378 O 0.31046 0.16292 0.64679 0.0
O1379 O 0.29952 0.17231 0.66879 0.0
O1380 O 0.29011 0.12204 0.66671 0.0
O1381 O 0.36728 0.19073 0.63967 0.0
O1382 O 0.36298 0.15446 0.638 0.0
O1383 O 0.32071 0.12397 0.65325 0.0
C1384 C 0.29346 0.14664 0.72309 0.0
C1385 C 0.31403 0.16764 0.73045 0.0
C1386 C 0.28368 0.12879 0.7464 0.0
C1387 C 0.31919 0.1693 0.74569 0.0
C1388 C 0.27838 0.12724 0.73117 0.0
C1389 C 0.30407 0.14989 0.75381 0.0
C1390 C 0.2878 0.14439 0.70701 0.0
C1391 C 0.2977 0.17032 0.65429 0.0
H1392 H 0.33063 0.17244 0.61725 0.0
H1393 H 0.38964 0.17009 0.58412 0.0
H1394 H 0.32188 0.17 0.59053 0.0
H1395 H 0.39827 0.17258 0.61088 0.0
H1396 H 0.32616 0.18274 0.72443 0.0
H1397 H 0.27163 0.11364 0.75241 0.0
H1398 H 0.33519 0.18565 0.75111 0.0
H1399 H 0.26249 0.11085 0.72568 0.0
Eu1400 Eu 0.84849 0.16499 0.6871 0.0
Eu1401 Eu 0.82357 0.17232 0.65631 0.0
C1402 C 0.85505 0.21653 0.68124 0.0
C1403 C 0.85837 0.15909 0.72769 0.0
C1404 C 0.86242 0.18102 0.73525 0.0
C1405 C 0.83965 0.13741 0.74884 0.0
C1406 C 0.85519 0.18111 0.74946 0.0
C1407 C 0.84707 0.13735 0.73468 0.0
C1408 C 0.84364 0.1593 0.75639 0.0
C1409 C 0.86477 0.15833 0.71237 0.0
O1410 O 0.85649 0.16955 0.6501 0.0
O1411 O 0.87965 0.18251 0.67256 0.0
C1412 C 0.87779 0.17873 0.65809 0.0
O1413 O 0.83875 0.13246 0.67105 0.0
O1414 O 0.82211 0.19666 0.64064 0.0
O1415 O 0.79866 0.15743 0.63607 0.0
O1416 O 0.80608 0.13187 0.6583 0.0
C1417 C 0.81802 0.12077 0.66246 0.0
O1418 O 0.80846 0.15091 0.69006 0.0
O1419 O 0.79826 0.17119 0.6734 0.0
O1420 O 0.85201 0.20956 0.66712 0.0
O1421 O 0.84781 0.14048 0.70321 0.0
O1422 O 0.87561 0.17904 0.70639 0.0
O1423 O 0.84869 0.20052 0.691 0.0
C1424 C 0.81652 0.18011 0.61604 0.0
C1425 C 0.82778 0.16661 0.61174 0.0
C1426 C 0.82403 0.19792 0.59262 0.0
C1427 C 0.83682 0.16852 0.59794 0.0
C1428 C 0.81478 0.19583 0.60642 0.0
C1429 C 0.83515 0.18425 0.58819 0.0
C1430 C 0.80762 0.17865 0.63077 0.0
C1431 C 0.79386 0.1588 0.68508 0.0
H1432 H 0.87092 0.19809 0.73017 0.0
H1433 H 0.83106 0.12038 0.75396 0.0
H1434 H 0.85831 0.19823 0.75495 0.0
H1435 H 0.84376 0.1202 0.72911 0.0
H1436 H 0.82959 0.15453 0.61904 0.0
H1437 H 0.82273 0.21049 0.58553 0.0
H1438 H 0.84483 0.15736 0.59487 0.0
H1439 H 0.80646 0.20665 0.60962 0.0
H1440 H 0.35499 0.91075 0.08 0.0
H1441 H 0.30791 0.88227 0.03898 0.0
H1442 H 0.39078 0.93134 0.06639 0.0
H1443 H 0.34397 0.90101 0.02534 0.0
H1444 H 0.41322 0.95706 0.00518 0.0
H1445 H 0.37584 0.93702 0.01788 0.0
H1446 H 0.41593 0.92299 0.05246 0.0
H1447 H 0.45332 0.94421 0.04016 0.0
C1448 C 0.35217 0.90891 0.06808 0.0
C1449 C 0.3284 0.89462 0.06066 0.0
C1450 C 0.37286 0.92036 0.06022 0.0
C1451 C 0.37048 0.91752 0.04469 0.0
C1452 C 0.34666 0.90376 0.03726 0.0
C1453 C 0.32591 0.89265 0.04514 0.0
C1454 C 0.41384 0.94937 0.0154 0.0
C1455 C 0.43614 0.95226 0.02172 0.0
C1456 C 0.39243 0.93787 0.02271 0.0
C1457 C 0.39281 0.92865 0.03638 0.0
C1458 C 0.41497 0.93052 0.04224 0.0
C1459 C 0.4364 0.94241 0.03509 0.0
H1460 H 0.16978 0.50085 0.06319 0.0
H1461 H 0.11692 0.4233 0.05996 0.0
H1462 H 0.13788 0.50853 0.05233 0.0
H1463 H 0.08519 0.43092 0.04878 0.0
H1464 H 0.05187 0.45796 0.01096 0.0
H1465 H 0.08206 0.44947 0.02331 0.0
H1466 H 0.0938 0.50143 0.06005 0.0
H1467 H 0.06311 0.50956 0.04788 0.0
C1468 C 0.15134 0.4855 0.06014 0.0
C1469 C 0.14574 0.4615 0.06239 0.0
C1470 C 0.13312 0.48989 0.05402 0.0
C1471 C 0.10915 0.4703 0.04974 0.0
C1472 C 0.10357 0.4463 0.05196 0.0
C1473 C 0.12163 0.44197 0.05839 0.0
C1474 C 0.06078 0.46747 0.0217 0.0
C1475 C 0.05513 0.4844 0.02847 0.0
C1476 C 0.07795 0.46253 0.02878 0.0
C1477 C 0.09021 0.47483 0.04259 0.0
C1478 C 0.08461 0.49178 0.04937 0.0
C1479 C 0.067 0.49632 0.04245 0.0
H1480 H 0.55617 0.69843 0.02614 0.0
H1481 H 0.6137 0.69655 0.05341 0.0
H1482 H 0.54096 0.65644 0.01622 0.0
H1483 H 0.597 0.6538 0.04457 0.0
H1484 H 0.57253 0.58125 0.01854 0.0
H1485 H 0.59113 0.62519 0.02528 0.0
H1486 H 0.51838 0.61715 0.02346 0.0
H1487 H 0.50009 0.57361 0.0159 0.0
C1488 C 0.56574 0.68918 0.02997 0.0
C1489 C 0.58611 0.70097 0.04069 0.0
C1490 C 0.55668 0.66484 0.02447 0.0
C1491 C 0.56743 0.65146 0.02975 0.0
C1492 C 0.58828 0.66347 0.04013 0.0
C1493 C 0.59764 0.68797 0.04541 0.0
C1494 C 0.56059 0.58898 0.01956 0.0
C1495 C 0.5349 0.57409 0.01671 0.0
C1496 C 0.57122 0.61415 0.02349 0.0
C1497 C 0.55632 0.62486 0.02493 0.0
C1498 C 0.53055 0.60977 0.02213 0.0
C1499 C 0.51999 0.58473 0.01792 0.0
H1500 H 0.89739 0.30915 0.9463 0.0
H1501 H 0.84142 0.31822 0.96664 0.0
H1502 H 0.92857 0.35065 0.95642 0.0
H1503 H 0.87277 0.35924 0.9771 0.0
H1504 H 0.94053 0.41824 0.00679 0.0
H1505 H 0.91029 0.37702 0.99604 0.0
H1506 H 0.93827 0.39506 0.95362 0.0
H1507 H 0.96869 0.43659 0.96436 0.0
C1508 C 0.89168 0.31997 0.95285 0.0
C1509 C 0.86686 0.31027 0.95569 0.0
C1510 C 0.90957 0.34369 0.95866 0.0
C1511 C 0.90304 0.35804 0.96755 0.0
C1512 C 0.87832 0.3484 0.97042 0.0
C1513 C 0.86041 0.32484 0.96449 0.0
C1514 C 0.94035 0.41347 0.99518 0.0
C1515 C 0.95699 0.4307 0.98641 0.0
C1516 C 0.92293 0.38989 0.98903 0.0
C1517 C 0.92194 0.38294 0.97402 0.0
C1518 C 0.93879 0.39997 0.96526 0.0
C1519 C 0.95607 0.42373 0.97138 0.0
H1520 H 0.65502 0.52957 0.92863 0.0
H1521 H 0.6968 0.55889 0.97126 0.0
H1522 H 0.61711 0.5194 0.93996 0.0
H1523 H 0.65899 0.54854 0.98255 0.0
H1524 H 0.58407 0.50164 1.00001 0.0
H1525 H 0.62142 0.5119 0.98808 0.0
H1526 H 0.59598 0.53827 0.95233 0.0
H1527 H 0.55851 0.52775 0.96412 0.0
C1528 C 0.65619 0.53412 0.94037 0.0
C1529 C 0.679 0.54489 0.94902 0.0
C1530 C 0.63443 0.52822 0.94688 0.0
C1531 C 0.63495 0.53292 0.9622 0.0
C1532 C 0.65782 0.54417 0.97078 0.0
C1533 C 0.67953 0.55013 0.96428 0.0
C1534 C 0.58637 0.50954 0.98958 0.0
C1535 C 0.56826 0.51392 0.98308 0.0
C1536 C 0.60789 0.51558 0.98278 0.0
C1537 C 0.61179 0.52604 0.96927 0.0
C1538 C 0.59351 0.53008 0.96267 0.0
C1539 C 0.57206 0.52416 0.9695 0.0
H1540 H 0.4486 0.13669 0.9656 0.0
H1541 H 0.38954 0.06767 0.9441 0.0
H1542 H 0.46627 0.11497 0.97792 0.0
H1543 H 0.40799 0.04618 0.95604 0.0
H1544 H 0.46869 0.02531 0.96512 0.0
H1545 H 0.44891 0.04627 0.95417 0.0
H1546 H 0.45468 0.08282 0.99687 0.0
H1547 H 0.47442 0.06168 0.00795 0.0
C1548 C 0.43915 0.11688 0.96362 0.0
C1549 C 0.41754 0.10396 0.95383 0.0
C1550 C 0.4494 0.10449 0.97065 0.0
C1551 C 0.43851 0.07896 0.96789 0.0
C1552 C 0.41687 0.06594 0.95823 0.0
C1553 C 0.40639 0.07829 0.95134 0.0
C1554 C 0.46586 0.03787 0.97219 0.0
C1555 C 0.47322 0.04193 0.98739 0.0
C1556 C 0.45432 0.04969 0.96592 0.0
C1557 C 0.45021 0.06606 0.97469 0.0
C1558 C 0.45774 0.07032 0.98988 0.0
C1559 C 0.46896 0.0582 0.9962 0.0
H1560 H 0.67246 0.15209 0.95877 0.0
H1561 H 0.65964 0.0836 0.9369 0.0
H1562 H 0.63965 0.12966 0.97423 0.0
H1563 H 0.6254 0.06126 0.95142 0.0
H1564 H 0.58212 0.02475 0.98849 0.0
H1565 H 0.61716 0.04952 0.97499 0.0
H1566 H 0.59713 0.10598 0.97555 0.0
H1567 H 0.56275 0.08147 0.98989 0.0
C1568 C 0.66263 0.13224 0.95719 0.0
C1569 C 0.66908 0.11973 0.94666 0.0
C1570 C 0.64346 0.11934 0.96595 0.0
C1571 C 0.62989 0.09355 0.96426 0.0
C1572 C 0.63578 0.08108 0.95336 0.0
C1573 C 0.65521 0.09396 0.94478 0.0
C1574 C 0.5855 0.04266 0.98592 0.0
C1575 C 0.56979 0.05124 0.99022 0.0
C1576 C 0.60541 0.05676 0.978 0.0
C1577 C 0.60981 0.07961 0.97383 0.0
C1578 C 0.59452 0.08859 0.97862 0.0
C1579 C 0.57481 0.0746 0.98685 0.0
H1580 H 0.84618 0.51917 0.95484 0.0
H1581 H 0.90602 0.56987 0.93124 0.0
H1582 H 0.87457 0.51143 0.96928 0.0
H1583 H 0.9338 0.55987 0.94447 0.0
H1584 H 0.98499 0.5558 0.97953 0.0
H1585 H 0.95669 0.56524 0.96603 0.0
H1586 H 0.89667 0.49185 0.96996 0.0
H1587 H 0.92483 0.48337 0.9844 0.0
C1588 C 0.86536 0.52871 0.95264 0.0
C1589 C 0.87359 0.54536 0.94181 0.0
C1590 C 0.88169 0.5238 0.96079 0.0
C1591 C 0.90671 0.53486 0.95813 0.0
C1592 C 0.91487 0.55124 0.94714 0.0
C1593 C 0.89867 0.55663 0.93926 0.0
C1594 C 0.96569 0.54179 0.97754 0.0
C1595 C 0.95708 0.51892 0.98308 0.0
C1596 C 0.9494 0.54708 0.96966 0.0
C1597 C 0.92414 0.52936 0.96675 0.0
C1598 C 0.91573 0.5063 0.97219 0.0
C1599 C 0.93192 0.50129 0.98042 0.0
H1600 H 0.44307 0.31448 0.94345 0.0
H1601 H 0.40697 0.29136 0.98317 0.0
H1602 H 0.46021 0.3572 0.95284 0.0
H1603 H 0.42353 0.33429 0.9925 0.0
H1604 H 0.47839 0.41409 0.01046 0.0
H1605 H 0.46101 0.37095 1.00165 0.0
H1606 H 0.44824 0.38682 0.95762 0.0
H1607 H 0.46641 0.42994 0.96631 0.0
C1608 C 0.43855 0.31861 0.95413 0.0
C1609 C 0.42357 0.29967 0.96255 0.0
C1610 C 0.44831 0.34309 0.95951 0.0
C1611 C 0.44311 0.34923 0.97339 0.0
C1612 C 0.42816 0.33023 0.98185 0.0
C1613 C 0.41858 0.30566 0.97651 0.0
C1614 C 0.47187 0.40833 0.9989 0.0
C1615 C 0.47392 0.42543 0.98906 0.0
C1616 C 0.46176 0.38357 0.99387 0.0
C1617 C 0.4533 0.3754 0.97891 0.0
C1618 C 0.45503 0.39253 0.96915 0.0
C1619 C 0.46535 0.41726 0.97415 0.0
H1620 H 0.15176 0.67766 0.07267 0.0
H1621 H 0.12622 0.70602 0.03815 0.0
H1622 H 0.12186 0.63563 0.06232 0.0
H1623 H 0.0959 0.66394 0.028 0.0
H1624 H 0.02763 0.58346 0.0283 0.0
H1625 H 0.05683 0.62546 0.03901 0.0
H1626 H 0.11704 0.61134 0.03556 0.0
H1627 H 0.08806 0.5696 0.02455 0.0
C1628 C 0.1396 0.67482 0.06293 0.0
C1629 C 0.14119 0.6949 0.05615 0.0
C1630 C 0.12264 0.65089 0.05702 0.0
C1631 C 0.10668 0.64673 0.04443 0.0
C1632 C 0.10798 0.6668 0.03777 0.0
C1633 C 0.12532 0.69075 0.04351 0.0
C1634 C 0.04709 0.58934 0.02987 0.0
C1635 C 0.05564 0.57336 0.02558 0.0
C1636 C 0.06373 0.61332 0.0359 0.0
C1637 C 0.08905 0.62145 0.03806 0.0
C1638 C 0.09754 0.60537 0.03402 0.0
C1639 C 0.08101 0.5816 0.02769 0.0
H1640 H 0.32894 0.41488 0.0623 0.0
H1641 H 0.34808 0.49086 0.06763 0.0
H1642 H 0.36439 0.42587 0.04796 0.0
H1643 H 0.38377 0.50191 0.05359 0.0
H1644 H 0.4607 0.50997 0.04459 0.0
H1645 H 0.42465 0.49923 0.0581 0.0
H1646 H 0.37774 0.44551 0.02224 0.0
H1647 H 0.41379 0.45664 0.00848 0.0
C1648 C 0.34084 0.43392 0.06049 0.0
C1649 C 0.33584 0.45204 0.06608 0.0
C1650 C 0.36096 0.44017 0.05221 0.0
C1651 C 0.37675 0.46472 0.04966 0.0
C1652 C 0.37191 0.48286 0.05543 0.0
C1653 C 0.35151 0.47655 0.06342 0.0
C1654 C 0.44269 0.49598 0.03952 0.0
C1655 C 0.44008 0.4842 0.02544 0.0
C1656 C 0.42207 0.48989 0.04725 0.0
C1657 C 0.39846 0.47151 0.04122 0.0
C1658 C 0.39579 0.45967 0.02716 0.0
C1659 C 0.41637 0.46615 0.01926 0.0
H1660 H 0.54918 0.86009 0.0463 0.0
H1661 H 0.61507 0.92852 0.06182 0.0
H1662 H 0.53151 0.88248 0.03474 0.0
H1663 H 0.59771 0.951 0.04999 0.0
H1664 H 0.54847 0.98375 0.04246 0.0
H1665 H 0.56609 0.96086 0.05312 0.0
H1666 H 0.53476 0.90719 0.01504 0.0
H1667 H 0.51637 0.92983 0.00454 0.0
C1668 C 0.56002 0.87994 0.04705 0.0
C1669 C 0.58347 0.89259 0.05499 0.0
C1670 C 0.54993 0.89277 0.0404 0.0
C1671 C 0.56314 0.91855 0.04146 0.0
C1672 C 0.58682 0.93117 0.04919 0.0
C1673 C 0.59682 0.91832 0.05594 0.0
C1674 C 0.54534 0.96708 0.03632 0.0
C1675 C 0.53108 0.95864 0.02262 0.0
C1676 C 0.5556 0.95403 0.04241 0.0
C1677 C 0.55205 0.93229 0.03489 0.0
C1678 C 0.53766 0.92374 0.0212 0.0
C1679 C 0.52719 0.93674 0.01515 0.0
H1680 H 0.99627 0.25359 0.39368 0.0
H1681 H 0.00903 0.19245 0.39436 0.0
H1682 H 0.03122 0.27448 0.37885 0.0
H1683 H 0.04406 0.21341 0.37978 0.0
H1684 H 0.12302 0.27711 0.37193 0.0
H1685 H 0.0867 0.25435 0.38513 0.0
H1686 H 0.04228 0.26544 0.35205 0.0
H1687 H 0.0787 0.28796 0.33858 0.0
C1688 C 0.00666 0.24475 0.39073 0.0
C1689 C 1.00006 0.22148 0.39516 0.0
C1690 C 0.02643 0.25654 0.38215 0.0
C1691 C 0.04019 0.24545 0.37814 0.0
C1692 C 0.03374 0.22233 0.38274 0.0
C1693 C 0.01374 0.21036 0.39105 0.0
C1694 C 0.10545 0.27444 0.36736 0.0
C1695 C 0.10364 0.28423 0.3542 0.0
C1696 C 0.0847 0.26141 0.37491 0.0
C1697 C 0.06179 0.25828 0.36963 0.0
C1698 C 0.05982 0.26777 0.35638 0.0
C1699 C 0.08055 0.28042 0.34862 0.0
H1700 H 0.81311 0.78116 0.37118 0.0
H1701 H 0.79921 0.80124 0.41417 0.0
H1702 H 0.78263 0.78974 0.35968 0.0
H1703 H 0.76836 0.80947 0.40259 0.0
H1704 H 0.69769 0.79828 0.37612 0.0
H1705 H 0.72719 0.78856 0.38806 0.0
H1706 H 0.77841 0.82594 0.35617 0.0
H1707 H 0.749 0.83548 0.34417 0.0
C1708 C 0.80369 0.78756 0.3782 0.0
C1709 C 0.80885 0.79071 0.39363 0.0
C1710 C 0.78615 0.79243 0.37158 0.0
C1711 C 0.77316 0.80044 0.3802 0.0
C1712 C 0.77788 0.80311 0.39564 0.0
C1713 C 0.79555 0.79835 0.40227 0.0
C1714 C 0.71522 0.80439 0.37163 0.0
C1715 C 0.72091 0.81762 0.35914 0.0
C1716 C 0.73219 0.79894 0.37854 0.0
C1717 C 0.75513 0.8064 0.37304 0.0
C1718 C 0.76078 0.81963 0.36057 0.0
C1719 C 0.74394 0.82523 0.35374 0.0
H1720 H 0.227 0.03648 0.35684 0.0
H1721 H 0.28405 0.03308 0.38365 0.0
H1722 H 0.21048 0.99417 0.34704 0.0
H1723 H 0.26618 0.99012 0.37486 0.0
H1724 H 0.23928 0.91687 0.3495 0.0
H1725 H 0.25905 0.96108 0.35543 0.0
H1726 H 0.18723 0.95507 0.35474 0.0
H1727 H 0.16768 0.91111 0.34802 0.0
C1728 C 0.23622 0.02684 0.36056 0.0
C1729 C 0.25683 0.03828 0.37114 0.0
C1730 C 0.22642 0.00234 0.35513 0.0
C1731 C 0.23669 0.98849 0.3603 0.0
C1732 C 0.25782 0.00017 0.3705 0.0
C1733 C 0.26788 0.02479 0.37574 0.0
C1734 C 0.22778 0.92509 0.35055 0.0
C1735 C 0.20196 0.9106 0.34835 0.0
C1736 C 0.23909 0.95042 0.35403 0.0
C1737 C 0.22479 0.96176 0.35564 0.0
C1738 C 0.19891 0.94715 0.35332 0.0
C1739 C 0.18764 0.92188 0.34957 0.0
H1740 H 0.54184 0.65885 0.26459 0.0
H1741 H 0.53313 0.63253 0.30778 0.0
H1742 H 0.57325 0.69972 0.27552 0.0
H1743 H 0.56424 0.67342 0.31867 0.0
H1744 H 0.59452 0.75479 0.33345 0.0
H1745 H 0.56603 0.71352 0.32214 0.0
H1746 H 0.61578 0.7229 0.28902 0.0
H1747 H 0.64445 0.76457 0.30029 0.0
C1748 C 0.54683 0.66169 0.27638 0.0
C1749 C 0.53482 0.64247 0.28533 0.0
C1750 C 0.56481 0.6851 0.28262 0.0
C1751 C 0.57105 0.68978 0.29795 0.0
C1752 C 0.55949 0.67044 0.30685 0.0
C1753 C 0.54163 0.64705 0.30061 0.0
C1754 C 0.59947 0.74814 0.32375 0.0
C1755 C 0.62179 0.763 0.31777 0.0
C1756 C 0.58319 0.72439 0.31735 0.0
C1757 C 0.58874 0.71495 0.30475 0.0
C1758 C 0.61098 0.72978 0.29869 0.0
C1759 C 0.62743 0.75356 0.30518 0.0
H1760 H 0.31672 0.8604 0.26095 0.0
H1761 H 0.359 0.8877 0.30352 0.0
H1762 H 0.27918 0.85112 0.27255 0.0
H1763 H 0.32171 0.87853 0.31506 0.0
H1764 H 0.24766 0.83453 0.33332 0.0
H1765 H 0.28414 0.84336 0.32087 0.0
H1766 H 0.25853 0.86976 0.28521 0.0
H1767 H 0.22177 0.86048 0.2975 0.0
C1768 C 0.31806 0.86468 0.27275 0.0
C1769 C 0.34085 0.87456 0.28131 0.0
C1770 C 0.29654 0.85933 0.27941 0.0
C1771 C 0.29733 0.86379 0.29479 0.0
C1772 C 0.32026 0.87427 0.30325 0.0
C1773 C 0.34169 0.87959 0.29661 0.0
C1774 C 0.24971 0.84213 0.3228 0.0
C1775 C 0.23176 0.84689 0.31649 0.0
C1776 C 0.27076 0.84736 0.31569 0.0
C1777 C 0.27443 0.85747 0.30207 0.0
C1778 C 0.25626 0.86182 0.29562 0.0
C1779 C 0.23522 0.85663 0.30274 0.0
H1780 H 0.1124 0.47127 0.30262 0.0
H1781 H 0.05458 0.40374 0.27891 0.0
H1782 H 0.12985 0.44868 0.31412 0.0
H1783 H 0.07263 0.38135 0.29014 0.0
H1784 H 0.13289 0.36004 0.29749 0.0
H1785 H 0.11285 0.38159 0.28788 0.0
H1786 H 0.11945 0.41538 0.33164 0.0
H1787 H 0.13959 0.3937 0.34139 0.0
C1788 C 0.10315 0.45156 0.30002 0.0
C1789 C 0.08205 0.43934 0.2898 0.0
C1790 C 0.11324 0.43867 0.30659 0.0
C1791 C 0.10264 0.41332 0.30297 0.0
C1792 C 0.08133 0.40097 0.29298 0.0
C1793 C 0.07107 0.41382 0.28652 0.0
C1794 C 0.13015 0.37208 0.30511 0.0
C1795 C 0.13791 0.37521 0.32022 0.0
C1796 C 0.11846 0.38425 0.2996 0.0
C1797 C 0.11448 0.40001 0.30903 0.0
C1798 C 0.12238 0.40336 0.32413 0.0
C1799 C 0.13385 0.39092 0.3297 0.0
H1800 H 0.31295 0.42906 0.2602 0.0
H1801 H 0.35874 0.46617 0.30096 0.0
H1802 H 0.27756 0.40754 0.27398 0.0
H1803 H 0.32288 0.44669 0.31456 0.0
H1804 H 0.2584 0.38825 0.33666 0.0
H1805 H 0.29497 0.41107 0.32363 0.0
H1806 H 0.24869 0.41098 0.28659 0.0
H1807 H 0.2123 0.38662 0.29934 0.0
C1808 C 0.31556 0.43275 0.27209 0.0
C1809 C 0.33891 0.44953 0.27936 0.0
C1810 C 0.29502 0.42072 0.28003 0.0
C1811 C 0.29706 0.42549 0.29547 0.0
C1812 C 0.32043 0.44224 0.30274 0.0
C1813 C 0.34106 0.45384 0.29484 0.0
C1814 C 0.2563 0.39356 0.32583 0.0
C1815 C 0.23278 0.386 0.31898 0.0
C1816 C 0.27721 0.40666 0.31832 0.0
C1817 C 0.27498 0.41282 0.3039 0.0
C1818 C 0.25128 0.40608 0.29745 0.0
C1819 C 0.2304 0.39247 0.30482 0.0
H1820 H 0.56889 0.9179 0.27979 0.0
H1821 H 0.51132 0.84189 0.27606 0.0
H1822 H 0.59656 0.90764 0.29379 0.0
H1823 H 0.53919 0.83154 0.2897 0.0
H1824 H 0.61186 0.82575 0.29663 0.0
H1825 H 0.58325 0.83567 0.28361 0.0
H1826 H 0.59464 0.88783 0.32013 0.0
H1827 H 0.6228 0.87747 0.33341 0.0
C1828 C 0.56225 0.89902 0.28193 0.0
C1829 C 0.53804 0.88066 0.27687 0.0
C1830 C 0.57798 0.89319 0.28998 0.0
C1831 C 0.56994 0.86882 0.29279 0.0
C1832 C 0.5458 0.85044 0.28763 0.0
C1833 C 0.52989 0.85636 0.27989 0.0
C1834 C 0.6082 0.83927 0.30191 0.0
C1835 C 0.61955 0.85083 0.31604 0.0
C1836 C 0.59178 0.84485 0.29448 0.0
C1837 C 0.58684 0.86251 0.30088 0.0
C1838 C 0.59826 0.8742 0.31496 0.0
C1839 C 0.61424 0.86819 0.32256 0.0
H1840 H 0.1147 0.63583 0.31768 0.0
H1841 H 0.05353 0.63611 0.29362 0.0
H1842 H 0.13108 0.67856 0.32704 0.0
H1843 H 0.07036 0.67905 0.30273 0.0
H1844 H 0.12872 0.76173 0.30449 0.0
H1845 H 0.10886 0.71771 0.29776 0.0
H1846 H 0.12145 0.70657 0.34294 0.0
H1847 H 0.14143 0.75079 0.34977 0.0
C1848 C 0.10447 0.64481 0.31461 0.0
C1849 C 0.08288 0.63257 0.3048 0.0
C1850 C 0.11393 0.66932 0.31995 0.0
C1851 C 0.1021 0.68213 0.31549 0.0
C1852 C 0.08004 0.66968 0.30615 0.0
C1853 C 0.07047 0.64513 0.30091 0.0
C1854 C 0.12727 0.74994 0.31302 0.0
C1855 C 0.13671 0.75976 0.32766 0.0
C1856 C 0.1157 0.72471 0.30917 0.0
C1857 C 0.11352 0.70876 0.31984 0.0
C1858 C 0.12298 0.71851 0.33449 0.0
C1859 C 0.13434 0.74378 0.33839 0.0
H1860 H 0.79815 0.01084 0.41176 0.0
H1861 H 0.81225 0.03393 0.3679 0.0
H1862 H 0.76581 0.97054 0.40128 0.0
H1863 H 0.78177 0.99299 0.35743 0.0
H1864 H 0.71127 0.92389 0.34151 0.0
H1865 H 0.74027 0.96504 0.35287 0.0
H1866 H 0.75877 0.9341 0.38922 0.0
H1867 H 0.7285 0.89304 0.37823 0.0
C1868 C 0.79442 0.00741 0.39988 0.0
C1869 C 0.80796 0.02584 0.39072 0.0
C1870 C 0.77609 0.98403 0.39384 0.0
C1871 C 0.7711 0.97826 0.37846 0.0
C1872 C 0.78468 0.9967 0.36932 0.0
C1873 C 0.80262 0.02019 0.37535 0.0
C1874 C 0.72147 0.92597 0.35197 0.0
C1875 C 0.7177 0.90534 0.35899 0.0
C1876 C 0.73827 0.94957 0.35846 0.0
C1877 C 0.75217 0.95309 0.37195 0.0
C1878 C 0.74818 0.93229 0.37898 0.0
C1879 C 0.73093 0.90869 0.37264 0.0
H1880 H 0.99578 0.74929 0.39876 0.0
H1881 H 0.01264 0.82462 0.4029 0.0
H1882 H 0.03146 0.76077 0.38454 0.0
H1883 H 0.04859 0.83618 0.38903 0.0
H1884 H 0.12633 0.84635 0.37975 0.0
H1885 H 0.09048 0.83505 0.39358 0.0
H1886 H 0.04373 0.77958 0.35844 0.0
H1887 H 0.07952 0.79125 0.34437 0.0
C1888 C 0.00726 0.76831 0.39674 0.0
C1889 C 1.00151 0.78608 0.40193 0.0
C1890 C 0.02753 0.77483 0.38854 0.0
C1891 C 0.04273 0.79935 0.38568 0.0
C1892 C 0.03722 0.81717 0.39111 0.0
C1893 C 0.01666 0.81056 0.39901 0.0
C1894 C 0.10839 0.83184 0.37492 0.0
C1895 C 0.10576 0.81976 0.36093 0.0
C1896 C 0.08789 0.82543 0.38284 0.0
C1897 C 0.06437 0.8064 0.3771 0.0
C1898 C 0.06169 0.79423 0.36315 0.0
C1899 C 0.08213 0.80103 0.35507 0.0
H1900 H 0.22407 0.19613 0.37055 0.0
H1901 H 0.27368 0.26187 0.39909 0.0
H1902 H 0.20857 0.21872 0.35745 0.0
H1903 H 0.25636 0.28384 0.38694 0.0
H1904 H 0.23683 0.32437 0.35504 0.0
H1905 H 0.25478 0.30169 0.36577 0.0
H1906 H 0.18324 0.23543 0.35933 0.0
H1907 H 0.16584 0.258 0.34775 0.0
C1908 C 0.23178 0.21543 0.37405 0.0
C1909 C 0.25032 0.22714 0.38589 0.0
C1910 C 0.22248 0.22832 0.36667 0.0
C1911 C 0.23105 0.25316 0.37111 0.0
C1912 C 0.24953 0.26486 0.38299 0.0
C1913 C 0.2592 0.25209 0.39018 0.0
C1914 C 0.22506 0.30489 0.35581 0.0
C1915 C 0.19999 0.29289 0.35057 0.0
C1916 C 0.23527 0.2919 0.36208 0.0
C1917 C 0.22049 0.2667 0.3636 0.0
C1918 C 0.19538 0.25469 0.35815 0.0
C1919 C 0.18531 0.26761 0.35156 0.0
H1920 H 0.66412 0.51297 0.71952 0.0
H1921 H 0.66451 0.58006 0.7325 0.0
H1922 H 0.69961 0.53572 0.70563 0.0
H1923 H 0.69975 0.60273 0.71856 0.0
H1924 H 0.77886 0.63978 0.70822 0.0
H1925 H 0.74278 0.61521 0.72074 0.0
H1926 H 0.71363 0.55903 0.68401 0.0
H1927 H 0.75055 0.58377 0.67139 0.0
C1928 C 0.67165 0.53254 0.7193 0.0
C1929 C 0.66162 0.54476 0.72722 0.0
C1930 C 0.69194 0.54555 0.7113 0.0
C1931 C 0.70263 0.57106 0.71105 0.0
C1932 C 0.69229 0.58316 0.71876 0.0
C1933 C 0.6721 0.57019 0.72678 0.0
C1934 C 0.76478 0.62225 0.70269 0.0
C1935 C 0.76746 0.6139 0.68867 0.0
C1936 C 0.74397 0.60818 0.7099 0.0
C1937 C 0.72507 0.58534 0.7033 0.0
C1938 C 0.72791 0.57657 0.68941 0.0
C1939 C 0.74898 0.59073 0.68216 0.0
H1940 H 0.48284 0.12258 0.70514 0.0
H1941 H 0.45478 0.12198 0.74745 0.0
H1942 H 0.452 0.12999 0.69382 0.0
H1943 H 0.42164 0.126 0.73568 0.0
H1944 H 0.37867 0.15821 0.7136 0.0
H1945 H 0.40966 0.15093 0.72585 0.0
H1946 H 0.41284 0.11495 0.68482 0.0
H1947 H 0.38379 0.12459 0.67255 0.0
C1948 C 0.4701 0.12392 0.71211 0.0
C1949 C 0.47187 0.12198 0.72737 0.0
C1950 C 0.45175 0.12757 0.70546 0.0
C1951 C 0.43385 0.12848 0.71369 0.0
C1952 C 0.43519 0.1259 0.72889 0.0
C1953 C 0.45408 0.12303 0.73566 0.0
C1954 C 0.38616 0.14878 0.70731 0.0
C1955 C 0.37914 0.1421 0.69217 0.0
C1956 C 0.40382 0.14436 0.71432 0.0
C1957 C 0.41424 0.13245 0.70642 0.0
C1958 C 0.40616 0.12492 0.69131 0.0
C1959 C 0.38922 0.13014 0.68424 0.0
H1960 H 0.89129 0.36764 0.69724 0.0
H1961 H 0.95062 0.36525 0.72213 0.0
H1962 H 0.87363 0.32466 0.6882 0.0
H1963 H 0.9324 0.32193 0.71335 0.0
H1964 H 0.87283 0.23898 0.70924 0.0
H1965 H 0.89281 0.28281 0.71715 0.0
H1966 H 0.88386 0.29752 0.67228 0.0
H1967 H 0.86386 0.25379 0.66432 0.0
C1968 C 0.90082 0.35811 0.70059 0.0
C1969 C 0.9224 0.36995 0.71042 0.0
C1970 C 0.8906 0.33343 0.69546 0.0
C1971 C 0.90158 0.31998 0.70015 0.0
C1972 C 0.92338 0.33183 0.70974 0.0
C1973 C 0.93377 0.35661 0.71476 0.0
C1974 C 0.87507 0.25156 0.70107 0.0
C1975 C 0.86672 0.24293 0.68616 0.0
C1976 C 0.88669 0.27664 0.70558 0.0
C1977 C 0.88992 0.2935 0.69531 0.0
C1978 C 0.88146 0.28487 0.68043 0.0
C1979 C 0.87008 0.25985 0.67589 0.0
H1980 H 0.20554 0.97902 0.59899 0.0
H1981 H 0.19547 0.95528 0.64285 0.0
H1982 H 0.23539 0.02071 0.60944 0.0
H1983 H 0.22495 0.99706 0.65325 0.0
H1984 H 0.25331 0.07911 0.66567 0.0
H1985 H 0.2256 0.03706 0.65509 0.0
H1986 H 0.27733 0.04489 0.62359 0.0
H1987 H 0.30513 0.08712 0.63411 0.0
C1988 C 0.20991 0.9826 0.61084 0.0
C1989 C 0.198 0.96382 0.62009 0.0
C1990 C 0.22696 0.00649 0.61681 0.0
C1991 C 0.23234 0.01213 0.63215 0.0
C1992 C 0.22083 0.9933 0.64139 0.0
C1993 C 0.20392 0.9694 0.63542 0.0
C1994 C 0.25881 0.07192 0.65648 0.0
C1995 C 0.28144 0.08648 0.65074 0.0
C1996 C 0.243 0.04777 0.65049 0.0
C1997 C 0.24936 0.0377 0.63856 0.0
C1998 C 0.2719 0.05226 0.63273 0.0
C1999 C 0.28785 0.07638 0.63881 0.0
H2000 H 0.98631 0.20632 0.59448 0.0
H2001 H 0.02619 0.22005 0.63733 0.0
H2002 H 0.94979 0.19919 0.60628 0.0
H2003 H 0.98931 0.21063 0.649 0.0
H2004 H 0.92561 0.21156 0.66828 0.0
H2005 H 0.96249 0.2231 0.65576 0.0
H2006 H 0.91773 0.17114 0.61847 0.0
H2007 H 0.88077 0.16089 0.63072 0.0
C2008 C 0.98739 0.20786 0.6064 0.0
C2009 C 0.00933 0.21356 0.61487 0.0
C2010 C 0.96621 0.20333 0.61321 0.0
C2011 C 0.96625 0.20404 0.62868 0.0
C2012 C 0.98836 0.21016 0.63711 0.0
C2013 C 0.00958 0.21513 0.63033 0.0
C2014 C 0.92369 0.20261 0.65741 0.0
C2015 C 0.90028 0.1852 0.65055 0.0
C2016 C 0.9449 0.20912 0.6502 0.0
C2017 C 0.94338 0.19798 0.63605 0.0
C2018 C 0.91983 0.18052 0.62921 0.0
C2019 C 0.89856 0.17441 0.63631 0.0
H2020 H 0.79051 0.8048 0.62841 0.0
H2021 H 0.72085 0.73787 0.61711 0.0
H2022 H 0.80718 0.78181 0.64031 0.0
H2023 H 0.7373 0.71486 0.62926 0.0
H2024 H 0.78364 0.67854 0.63553 0.0
H2025 H 0.76665 0.70203 0.62504 0.0
H2026 H 0.80464 0.75894 0.66111 0.0
H2027 H 0.82234 0.73558 0.67147 0.0
C2028 C 0.77866 0.7852 0.62866 0.0
C2029 C 0.75442 0.77307 0.62179 0.0
C2030 C 0.78819 0.77204 0.63552 0.0
C2031 C 0.77361 0.74649 0.6357 0.0
C2032 C 0.74918 0.73447 0.62907 0.0
C2033 C 0.73972 0.74761 0.62214 0.0
C2034 C 0.78834 0.69602 0.64129 0.0
C2035 C 0.8043 0.70516 0.65438 0.0
C2036 C 0.77845 0.70943 0.6353 0.0
C2037 C 0.7841 0.73228 0.64229 0.0
C2038 C 0.8001 0.74149 0.65538 0.0
C2039 C 0.81017 0.72809 0.66135 0.0
H2040 H 0.99355 0.80139 0.61231 0.0
H2041 H 0.00509 0.73954 0.61345 0.0
H2042 H 0.95798 0.7808 0.6266 0.0
H2043 H 0.96972 0.71909 0.62802 0.0
H2044 H 0.92244 0.70732 0.66826 0.0
H2045 H 0.95903 0.72951 0.65488 0.0
H2046 H 0.91485 0.73933 0.62098 0.0
H2047 H 0.87832 0.71682 0.63408 0.0
C2048 C 0.98842 0.78338 0.61564 0.0
C2049 C 1.00188 0.77193 0.61176 0.0
C2050 C 0.96815 0.77165 0.62379 0.0
C2051 C 0.9613 0.74849 0.62845 0.0
C2052 C 0.97483 0.73706 0.62464 0.0
C2053 C 0.99483 0.7486 0.61623 0.0
C2054 C 0.92067 0.7145 0.65805 0.0
C2055 C 0.8976 0.71039 0.6522 0.0
C2056 C 0.94149 0.72697 0.65036 0.0
C2057 C 0.93962 0.73598 0.6369 0.0
C2058 C 0.91674 0.73261 0.63135 0.0
C2059 C 0.89588 0.71972 0.63884 0.0
H2060 H 0.23373 0.23594 0.59875 0.0
H2061 H 0.17103 0.17654 0.61602 0.0
H2062 H 0.26116 0.2253 0.61226 0.0
H2063 H 0.1987 0.16664 0.62992 0.0
H2064 H 0.26061 0.17609 0.66475 0.0
H2065 H 0.23293 0.18651 0.65116 0.0
H2066 H 0.26908 0.18946 0.61183 0.0
H2067 H 0.29666 0.17895 0.62531 0.0
C2068 C 0.22571 0.22052 0.60531 0.0
C2069 C 0.20005 0.20711 0.60621 0.0
C2070 C 0.24149 0.21452 0.61312 0.0
C2071 C 0.23208 0.19518 0.62216 0.0
C2072 C 0.20652 0.18185 0.62318 0.0
C2073 C 0.19068 0.18763 0.61523 0.0
C2074 C 0.26268 0.17898 0.6532 0.0
C2075 C 0.28086 0.17667 0.64612 0.0
C2076 C 0.24673 0.18481 0.64541 0.0
C2077 C 0.24886 0.18882 0.63044 0.0
C2078 C 0.26714 0.18668 0.62339 0.0
C2079 C 0.28284 0.18051 0.63111 0.0
H2080 H 0.75468 0.96216 0.65343 0.0
H2081 H 0.76997 0.98462 0.60952 0.0
H2082 H 0.77072 0.0049 0.66293 0.0
H2083 H 0.78502 0.02697 0.61898 0.0
H2084 H 0.78298 0.09415 0.63963 0.0
H2085 H 0.76636 0.05108 0.63092 0.0
H2086 H 0.81323 0.04524 0.66496 0.0
H2087 H 0.83007 0.08846 0.6737 0.0
C2088 C 0.76146 0.97614 0.64581 0.0
C2089 C 0.7609 0.96989 0.63069 0.0
C2090 C 0.77057 0.00055 0.65125 0.0
C2091 C 0.77897 0.0191 0.64165 0.0
C2092 C 0.7783 0.01291 0.62657 0.0
C2093 C 0.76953 0.98862 0.62116 0.0
C2094 C 0.78971 0.08368 0.6453 0.0
C2095 C 0.80787 0.09467 0.65733 0.0
C2096 C 0.78026 0.05909 0.64027 0.0
C2097 C 0.78855 0.04494 0.64729 0.0
C2098 C 0.80644 0.05577 0.65945 0.0
C2099 C 0.81616 0.0805 0.66436 0.0
H2100 H 0.46004 0.36328 0.69952 0.0
H2101 H 0.46716 0.33441 0.7401 0.0
H2102 H 0.4287 0.32214 0.68906 0.0
H2103 H 0.4364 0.29313 0.72956 0.0
H2104 H 0.36491 0.22499 0.71092 0.0
H2105 H 0.39376 0.2667 0.72171 0.0
H2106 H 0.42546 0.28453 0.68017 0.0
H2107 H 0.39611 0.24325 0.66928 0.0
C2108 C 0.45497 0.34806 0.70615 0.0
C2109 C 0.46601 0.35196 0.72058 0.0
C2110 C 0.43709 0.32448 0.70016 0.0
C2111 C 0.43009 0.30426 0.70844 0.0
C2112 C 0.44103 0.30829 0.72295 0.0
C2113 C 0.45872 0.33191 0.72898 0.0
C2114 C 0.37801 0.23786 0.7041 0.0
C2115 C 0.37819 0.23083 0.68924 0.0
C2116 C 0.39464 0.26174 0.7103 0.0
C2117 C 0.41195 0.27902 0.70182 0.0
C2118 C 0.41209 0.27189 0.68696 0.0
C2119 C 0.39534 0.24813 0.68073 0.0
H2120 H 0.66844 0.0904 0.73702 0.0
H2121 H 0.673 0.15909 0.72854 0.0
H2122 H 0.70324 0.10024 0.72266 0.0
H2123 H 0.70795 0.16904 0.71421 0.0
H2124 H 0.75595 0.16783 0.67791 0.0
H2125 H 0.71996 0.1578 0.69143 0.0
H2126 H 0.74684 0.12777 0.72422 0.0
H2127 H 0.78215 0.13719 0.71072 0.0
C2128 C 0.67703 0.10773 0.73223 0.0
C2129 C 0.66794 0.12397 0.73401 0.0
C2130 C 0.697 0.11339 0.72395 0.0
C2131 C 0.70852 0.1355 0.71728 0.0
C2132 C 0.69935 0.1517 0.719 0.0
C2133 C 0.67933 0.14601 0.72726 0.0
C2134 C 0.75412 0.15905 0.68799 0.0
C2135 C 0.77193 0.15321 0.69313 0.0
C2136 C 0.73354 0.1534 0.69579 0.0
C2137 C 0.73035 0.14179 0.70889 0.0
C2138 C 0.74834 0.13622 0.71404 0.0
C2139 C 0.76876 0.14179 0.70628 0.0
H2140 H 0.9462 0.59707 0.73197 0.0
H2141 H 0.89094 0.52814 0.70828 0.0
H2142 H 0.92702 0.61782 0.71992 0.0
H2143 H 0.87246 0.54915 0.69594 0.0
H2144 H 0.86249 0.6027 0.66706 0.0
H2145 H 0.8831 0.58221 0.67794 0.0
H2146 H 0.88529 0.6154 0.7211 0.0
H2147 H 0.86471 0.63572 0.71037 0.0
C2148 C 0.93003 0.58633 0.72421 0.0
C2149 C 0.92012 0.5609 0.72115 0.0
C2150 C 0.91914 0.59825 0.71727 0.0
C2151 C 0.89827 0.58504 0.70703 0.0
C2152 C 0.88871 0.55979 0.70367 0.0
C2153 C 0.89941 0.54781 0.71072 0.0
C2154 C 0.86733 0.60556 0.67887 0.0
C2155 C 0.86192 0.62077 0.68785 0.0
C2156 C 0.87906 0.59382 0.68508 0.0
C2157 C 0.88589 0.59739 0.70033 0.0
C2158 C 0.88049 0.61259 0.70929 0.0
C2159 C 0.86851 0.62404 0.70313 0.0
H2160 H 0.45296 0.98067 0.17863 0.0
H2161 H 0.47594 0.92823 0.1673 0.0
H2162 H 0.46434 0.99761 0.15508 0.0
H2163 H 0.48683 0.94472 0.14362 0.0
H2164 H 0.52711 0.99551 0.10873 0.0
H2165 H 0.51598 0.97898 0.1324 0.0
H2166 H 0.45314 0.98982 0.12932 0.0
H2167 H 0.46468 0.00685 0.10582 0.0
C2168 C 0.46019 0.97257 0.17104 0.0
C2169 C 0.46358 0.95312 0.17489 0.0
C2170 C 0.46669 0.98225 0.15748 0.0
C2171 C 0.47659 0.97262 0.14735 0.0
C2172 C 0.47975 0.953 0.1512 0.0
C2173 C 0.47343 0.94346 0.16479 0.0
C2174 C 0.51087 0.99427 0.11309 0.0
C2175 C 0.49685 0.00259 0.10538 0.0
C2176 C 0.5044 0.9847 0.12667 0.0
C2177 C 0.48359 0.98298 0.13287 0.0
C2178 C 0.46953 0.99123 0.12509 0.0
C2179 C 0.47612 0.00097 0.11157 0.0
H2180 H 0.98831 0.52513 0.1852 0.0
H2181 H 0.03897 0.49824 0.1798 0.0
H2182 H 0.97866 0.52 0.15863 0.0
H2183 H 0.02823 0.49176 0.15322 0.0
H2184 H 0.0253 0.51069 0.10583 0.0
H2185 H 0.03459 0.51507 0.13245 0.0
H2186 H 0.95797 0.48983 0.13817 0.0
H2187 H 0.949 0.48685 0.11163 0.0
C2188 C 0.99733 0.51802 0.17834 0.0
C2189 C 0.01456 0.51228 0.18465 0.0
C2190 C 0.99154 0.51476 0.1631 0.0
C2191 C 0.00269 0.50549 0.15375 0.0
C2192 C 0.01956 0.49927 0.16007 0.0
C2193 C 0.02545 0.50266 0.17533 0.0
C2194 C 0.0105 0.50639 0.11277 0.0
C2195 C 0.98642 0.49851 0.10656 0.0
C2196 C 0.01575 0.50855 0.12804 0.0
C2197 C 0.99702 0.50275 0.13748 0.0
C2198 C 0.97292 0.49473 0.13126 0.0
C2199 C 0.9677 0.49272 0.116 0.0
H2200 H 0.4355 0.47861 0.16913 0.0
H2201 H 0.51289 0.50653 0.18171 0.0
H2202 H 0.44096 0.46832 0.14393 0.0
H2203 H 0.51869 0.49768 0.15654 0.0
H2204 H 0.52319 0.46906 0.11213 0.0
H2205 H 0.51184 0.4683 0.13718 0.0
H2206 H 0.45882 0.48966 0.12332 0.0
H2207 H 0.46886 0.48864 0.09806 0.0
C2208 C 0.4536 0.48228 0.16657 0.0
C2209 C 0.47382 0.49369 0.1774 0.0
C2210 C 0.45682 0.47668 0.15207 0.0
C2211 C 0.48033 0.48239 0.14809 0.0
C2212 C 0.50025 0.49275 0.15913 0.0
C2213 C 0.497 0.49818 0.17358 0.0
C2214 C 0.50866 0.47299 0.11431 0.0
C2215 C 0.49717 0.47918 0.10301 0.0
C2216 C 0.50238 0.47289 0.12877 0.0
C2217 C 0.48464 0.47926 0.13239 0.0
C2218 C 0.47244 0.48449 0.12099 0.0
C2219 C 0.47853 0.48431 0.10649 0.0
H2220 H 0.96667 0.45612 0.83296 0.0
H2221 H 0.01237 0.53366 0.82894 0.0
H2222 H 0.97746 0.4635 0.85948 0.0
H2223 H 0.02235 0.54122 0.85565 0.0
H2224 H 0.05755 0.53938 0.90107 0.0
H2225 H 0.04609 0.53387 0.87459 0.0
H2226 H 0.97075 0.48157 0.8814 0.0
H2227 H 0.98242 0.48619 0.90775 0.0
C2228 C 0.97902 0.47477 0.83775 0.0
C2229 C 0.98883 0.49428 0.82882 0.0
C2230 C 0.98494 0.47905 0.85298 0.0
C2231 C 1.00073 0.50296 0.85969 0.0
C2232 C 0.01032 0.52255 0.8508 0.0
C2233 C 0.0044 0.51826 0.83552 0.0
C2234 C 0.03858 0.5266 0.8969 0.0
C2235 C 0.02095 0.51312 0.90653 0.0
C2236 C 0.03194 0.52368 0.88174 0.0
C2237 C 0.00752 0.50722 0.87587 0.0
C2238 C 0.98979 0.49416 0.88554 0.0
C2239 C 0.99643 0.49703 0.90068 0.0
H2240 H 0.49044 0.48477 0.82566 0.0
H2241 H 0.56692 0.50988 0.83932 0.0
H2242 H 0.48399 0.49351 0.85073 0.0
H2243 H 0.56079 0.51984 0.86447 0.0
H2244 H 0.5303 0.49997 0.90985 0.0
H2245 H 0.54068 0.49784 0.88473 0.0
H2246 H 0.4919 0.52386 0.86999 0.0
H2247 H 0.48032 0.52449 0.89491 0.0
C2248 C 0.50599 0.49246 0.83402 0.0
C2249 C 0.5291 0.49627 0.83054 0.0
C2250 C 0.50237 0.49779 0.8484 0.0
C2251 C 0.52182 0.50728 0.8597 0.0
C2252 C 0.54529 0.51218 0.85609 0.0
C2253 C 0.5489 0.50676 0.84164 0.0
C2254 C 0.52161 0.50505 0.90124 0.0
C2255 C 0.50419 0.51208 0.90444 0.0
C2256 C 0.5279 0.50423 0.88684 0.0
C2257 C 0.51706 0.51057 0.87526 0.0
C2258 C 0.50034 0.51847 0.87856 0.0
C2259 C 0.49391 0.51912 0.89294 0.0
H2260 H 0.54103 0.02033 0.82949 0.0
H2261 H 0.52233 0.07443 0.84476 0.0
H2262 H 0.53371 0.00368 0.85345 0.0
H2263 H 0.51581 0.05854 0.86876 0.0
H2264 H 0.47809 0.00839 0.90376 0.0
H2265 H 0.48701 0.02461 0.87994 0.0
H2266 H 0.54705 0.00957 0.87905 0.0
H2267 H 0.53752 0.99264 0.90282 0.0
C2268 C 0.53572 0.02888 0.83805 0.0
C2269 C 0.53197 0.04849 0.83519 0.0
C2270 C 0.53155 0.01939 0.85182 0.0
C2271 C 0.52379 0.02948 0.86308 0.0
C2272 C 0.52104 0.04975 0.8603 0.0
C2273 C 0.52492 0.059 0.84654 0.0
C2274 C 0.49326 0.00864 0.89851 0.0
C2275 C 0.50716 -0.00067 0.90524 0.0
C2276 C 0.49849 0.01806 0.88484 0.0
C2277 C 0.51798 0.01874 0.87753 0.0
C2278 C 0.53175 0.00916 0.88421 0.0
C2279 C 0.52633 -0.00051 0.89787 0.0
H2280 H 0.13451 0.2553 0.49703 0.0
H2281 H 0.12114 0.31411 0.51027 0.0
H2282 H 0.14601 0.27183 0.47334 0.0
H2283 H 0.13229 0.33045 0.48646 0.0
H2284 H 0.1824 0.36722 0.44951 0.0
H2285 H 0.16984 0.3505 0.47298 0.0
H2286 H 0.12707 0.27761 0.45043 0.0
H2287 H 0.1391 0.29429 0.42688 0.0
C2288 C 0.13404 0.27177 0.49488 0.0
C2289 C 0.12696 0.28341 0.50557 0.0
C2290 C 0.14042 0.28112 0.48125 0.0
C2291 C 0.14011 0.30248 0.478 0.0
C2292 C 0.13294 0.31409 0.48866 0.0
C2293 C 0.12632 0.30459 0.50225 0.0
C2294 C 0.17007 0.34766 0.44948 0.0
C2295 C 0.16183 0.33217 0.4362 0.0
C2296 C 0.1629 0.33807 0.46298 0.0
C2297 C 0.14745 0.31272 0.4636 0.0
C2298 C 0.13925 0.2972 0.45037 0.0
C2299 C 0.14625 0.30679 0.43685 0.0
H2300 H 0.65055 0.79951 0.51641 0.0
H2301 H 0.7074 0.87381 0.51179 0.0
H2302 H 0.64086 0.79203 0.48953 0.0
H2303 H 0.69774 0.86641 0.48509 0.0
H2304 H 0.69102 0.83597 0.43748 0.0
H2305 H 0.70051 0.83993 0.4641 0.0
H2306 H 0.62316 0.80853 0.47003 0.0
H2307 H 0.61359 0.8052 0.44344 0.0
C2308 C 0.66099 0.81415 0.50963 0.0
C2309 C 0.67959 0.83727 0.51613 0.0
C2310 C 0.65539 0.80993 0.49432 0.0
C2311 C 0.6686 0.82864 0.48528 0.0
C2312 C 0.68743 0.8516 0.49179 0.0
C2313 C 0.69279 0.85591 0.50706 0.0
C2314 C 0.67601 0.83006 0.44444 0.0
C2315 C 0.65156 0.82049 0.4383 0.0
C2316 C 0.68146 0.83222 0.45967 0.0
C2317 C 0.66256 0.82461 0.46909 0.0
C2318 C 0.63804 0.8143 0.46299 0.0
C2319 C 0.63259 0.81237 0.44775 0.0
H2320 H 0.10948 0.82 0.50198 0.0
H2321 H 0.17044 0.81175 0.51835 0.0
H2322 H 0.118 0.81457 0.47669 0.0
H2323 H 0.17828 0.80485 0.49314 0.0
H2324 H 0.20856 0.83172 0.4496 0.0
H2325 H 0.19594 0.82924 0.47429 0.0
H2326 H 0.11938 0.79065 0.45649 0.0
H2327 H 0.1322 0.79488 0.4316 0.0
C2328 C 0.12423 0.81624 0.50009 0.0
C2329 C 0.13942 0.81642 0.51201 0.0
C2330 C 0.12912 0.81305 0.4856 0.0
C2331 C 0.14912 0.80963 0.48278 0.0
C2332 C 0.16319 0.80815 0.49483 0.0
C2333 C 0.15858 0.81182 0.50928 0.0
C2334 C 0.18902 0.82287 0.45089 0.0
C2335 C 0.17146 0.81384 0.43853 0.0
C2336 C 0.1817 0.82102 0.46515 0.0
C2337 C 0.15656 0.8097 0.46751 0.0
C2338 C 0.13891 0.79981 0.45514 0.0
C2339 C 0.14627 0.80194 0.44084 0.0
H2340 H 0.63255 0.83846 0.16472 0.0
H2341 H 0.68385 0.81246 0.15901 0.0
H2342 H 0.6442 0.84584 0.19122 0.0
H2343 H 0.6945 0.81856 0.18553 0.0
H2344 H 0.72538 0.85364 0.23218 0.0
H2345 H 0.7155 0.84971 0.20565 0.0
H2346 H 0.63885 0.82281 0.21214 0.0
H2347 H 0.64897 0.82804 0.23872 0.0
C2348 C 0.6464 0.83444 0.1691 0.0
C2349 C 0.65722 0.8248 0.15974 0.0
C2350 C 0.65284 0.83835 0.18432 0.0
C2351 C 0.67017 0.83265 0.19053 0.0
C2352 C 0.68126 0.82338 0.18113 0.0
C2353 C 0.67491 0.81958 0.16592 0.0
C2354 C 0.70647 0.84718 0.22797 0.0
C2355 C 0.68798 0.84116 0.2376 0.0
C2356 C 0.70075 0.84465 0.21273 0.0
C2357 C 0.67637 0.83591 0.20675 0.0
C2358 C 0.65787 0.82989 0.21638 0.0
C2359 C 0.66362 0.83254 0.23162 0.0
H2360 H 0.20502 0.86487 0.16434 0.0
H2361 H 0.2099 0.80261 0.17728 0.0
H2362 H 0.19689 0.87272 0.18951 0.0
H2363 H 0.20193 0.81041 0.20232 0.0
H2364 H 0.2049 0.84204 0.24878 0.0
H2365 H 0.21966 0.84132 0.22471 0.0
H2366 H 0.16027 0.84867 0.2043 0.0
H2367 H 0.14497 0.84868 0.22829 0.0
C2368 C 0.20487 0.85323 0.17266 0.0
C2369 C 0.208 0.83312 0.16893 0.0
C2370 C 0.20003 0.85757 0.18699 0.0
C2371 C 0.19868 0.8421 0.19785 0.0
C2372 C 0.20305 0.82275 0.19423 0.0
C2373 C 0.20751 0.81822 0.17991 0.0
C2374 C 0.19484 0.84335 0.23918 0.0
C2375 C 0.17352 0.8451 0.24051 0.0
C2376 C 0.20344 0.84311 0.2254 0.0
C2377 C 0.19111 0.84491 0.21263 0.0
C2378 C 0.17034 0.84757 0.21398 0.0
C2379 C 0.16158 0.84757 0.22774 0.0
H2380 H 0.23241 0.39063 0.17329 0.0
H2381 H 0.15482 0.34532 0.15864 0.0
H2382 H 0.22463 0.37431 0.19735 0.0
H2383 H 0.1471 0.32946 0.18264 0.0
H2384 H 0.13864 0.33313 0.23216 0.0
H2385 H 0.14805 0.34728 0.20779 0.0
H2386 H 0.2103 0.33561 0.21014 0.0
H2387 H 0.20103 0.32166 0.23472 0.0
C2388 C 0.21379 0.37695 0.1751 0.0
C2389 C 0.1942 0.36958 0.16406 0.0
C2390 C 0.20932 0.36765 0.1889 0.0
C2391 C 0.18518 0.35087 0.19198 0.0
C2392 C 0.16582 0.34278 0.18075 0.0
C2393 C 0.17028 0.35192 0.16698 0.0
C2394 C 0.15442 0.33369 0.22753 0.0
C2395 C 0.16907 0.32626 0.23539 0.0
C2396 C 0.15968 0.34159 0.21349 0.0
C2397 C 0.17986 0.34246 0.20697 0.0
C2398 C 0.19469 0.33525 0.21487 0.0
C2399 C 0.18925 0.32707 0.22889 0.0
H2400 H 0.83585 0.63667 0.84583 0.0
H2401 H 0.75844 0.59931 0.83008 0.0
H2402 H 0.8464 0.65278 0.8221 0.0
H2403 H 0.76893 0.6167 0.80663 0.0
H2404 H 0.79676 0.63026 0.76104 0.0
H2405 H 0.7861 0.61383 0.78469 0.0
H2406 H 0.84596 0.68158 0.80684 0.0
H2407 H 0.85757 0.69742 0.78311 0.0
C2408 C 0.82103 0.63185 0.83732 0.0
C2409 C 0.79625 0.61651 0.83994 0.0
C2410 C 0.82709 0.64145 0.82373 0.0
C2411 C 0.80857 0.63617 0.81235 0.0
C2412 C 0.78377 0.62097 0.81501 0.0
C2413 C 0.77771 0.61124 0.82858 0.0
C2414 C 0.80789 0.64158 0.77092 0.0
C2415 C 0.82817 0.66518 0.77006 0.0
C2416 C 0.80152 0.63226 0.78456 0.0
C2417 C 0.81512 0.6463 0.79778 0.0
C2418 C 0.83522 0.67002 0.79693 0.0
C2419 C 0.84169 0.67928 0.78328 0.0
H2420 H 0.36287 0.15138 0.84255 0.0
H2421 H 0.31275 0.17877 0.84864 0.0
H2422 H 0.351 0.14432 0.81601 0.0
H2423 H 0.30141 0.17223 0.82212 0.0
H2424 H 0.31515 0.18854 0.77378 0.0
H2425 H 0.32428 0.19196 0.80045 0.0
H2426 H 0.31408 0.11889 0.79709 0.0
H2427 H 0.30512 0.11554 0.77032 0.0
C2428 C 0.34907 0.15555 0.83828 0.0
C2429 C 0.33894 0.16587 0.84772 0.0
C2430 C 0.34234 0.15157 0.82307 0.0
C2431 C 0.32549 0.15797 0.81701 0.0
C2432 C 0.31479 0.16754 0.82648 0.0
C2433 C 0.32134 0.17133 0.84166 0.0
C2434 C 0.31495 0.17326 0.77874 0.0
C2435 C 0.30945 0.15179 0.77 0.0
C2436 C 0.31995 0.17512 0.794 0.0
C2437 C 0.31978 0.15564 0.80083 0.0
C2438 C 0.31442 0.13421 0.79209 0.0
C2439 C 0.30914 0.13223 0.77682 0.0
H2440 H 0.84159 0.17531 0.85103 0.0
H2441 H 0.76935 0.16056 0.83425 0.0
H2442 H 0.85043 0.16843 0.82612 0.0
H2443 H 0.77823 0.15365 0.80914 0.0
H2444 H 0.80004 0.12687 0.76686 0.0
H2445 H 0.78801 0.12747 0.79192 0.0
H2446 H 0.85813 0.19309 0.80491 0.0
H2447 H 0.87024 0.19226 0.78009 0.0
C2448 C 0.8275 0.17035 0.84199 0.0
C2449 C 0.80493 0.16885 0.84454 0.0
C2450 C 0.83259 0.16649 0.82773 0.0
C2451 C 0.81522 0.16099 0.81564 0.0
C2452 C 0.79198 0.15787 0.81825 0.0
C2453 C 0.78687 0.16177 0.8326 0.0
C2454 C 0.81291 0.14129 0.77513 0.0
C2455 C 0.83611 0.15951 0.77152 0.0
C2456 C 0.80595 0.14173 0.78942 0.0
C2457 C 0.82218 0.16022 0.8004 0.0
C2458 C 0.84534 0.17839 0.79675 0.0
C2459 C 0.85219 0.17808 0.78249 0.0
H2460 H 0.29209 0.16333 0.49668 0.0
H2461 H 0.3547 0.15416 0.48998 0.0
H2462 H 0.30227 0.16832 0.52332 0.0
H2463 H 0.3653 0.15971 0.51655 0.0
H2464 H 0.35875 0.14006 0.56402 0.0
H2465 H 0.34989 0.13749 0.53745 0.0
H2466 H 0.33145 0.19473 0.54346 0.0
H2467 H 0.33985 0.19686 0.5701 0.0
C2468 C 0.30826 0.16278 0.50093 0.0
C2469 C 0.32251 0.15819 0.4913 0.0
C2470 C 0.31413 0.16568 0.51617 0.0
C2471 C 0.3345 0.16422 0.52209 0.0
C2472 C 0.34917 0.16038 0.51239 0.0
C2473 C 0.34317 0.1573 0.49717 0.0
C2474 C 0.35296 0.15219 0.55964 0.0
C2475 C 0.34998 0.16864 0.56911 0.0
C2476 C 0.34796 0.15079 0.54441 0.0
C2477 C 0.34005 0.16598 0.5383 0.0
C2478 C 0.33717 0.18253 0.54781 0.0
C2479 C 0.34201 0.18378 0.56305 0.0
H2480 H 0.8714 0.20308 0.49616 0.0
H2481 H 0.87472 0.14 0.509 0.0
H2482 H 0.86498 0.21205 0.5216 0.0
H2483 H 0.86867 0.149 0.53431 0.0
H2484 H 0.87642 0.18304 0.58082 0.0
H2485 H 0.88936 0.18154 0.55626 0.0
H2486 H 0.82882 0.18853 0.53742 0.0
H2487 H 0.81522 0.18916 0.56188 0.0
C2488 C 0.87124 0.19148 0.5045 0.0
C2489 C 0.8735 0.17087 0.50071 0.0
C2490 C 0.86742 0.19648 0.51898 0.0
C2491 C 0.86631 0.1812 0.52991 0.0
C2492 C 0.86967 0.16122 0.52617 0.0
C2493 C 0.87304 0.15601 0.5117 0.0
C2494 C 0.86574 0.18415 0.57146 0.0
C2495 C 0.84452 0.18587 0.57338 0.0
C2496 C 0.8733 0.18347 0.55741 0.0
C2497 C 0.86006 0.18485 0.54494 0.0
C2498 C 0.83954 0.18771 0.54686 0.0
C2499 C 0.83178 0.18809 0.56091 0.0
H2500 H 0.89687 0.72637 0.50879 0.0
H2501 H 0.81899 0.68281 0.49449 0.0
H2502 H 0.88904 0.70962 0.53271 0.0
H2503 H 0.81123 0.66654 0.51837 0.0
H2504 H 0.8031 0.66653 0.56792 0.0
H2505 H 0.81242 0.6824 0.54393 0.0
H2506 H 0.8747 0.67078 0.54482 0.0
H2507 H 0.86558 0.65523 0.569 0.0
C2508 C 0.87814 0.71304 0.51065 0.0
C2509 C 0.85855 0.70623 0.49971 0.0
C2510 C 0.87365 0.70349 0.52439 0.0
C2511 C 0.84945 0.68698 0.52754 0.0
C2512 C 0.83001 0.67964 0.51645 0.0
C2513 C 0.8345 0.68902 0.50273 0.0
C2514 C 0.81888 0.66751 0.56306 0.0
C2515 C 0.83354 0.65955 0.5704 0.0
C2516 C 0.8241 0.6764 0.54923 0.0
C2517 C 0.84425 0.67776 0.54239 0.0
C2518 C 0.85912 0.6701 0.54979 0.0
C2519 C 0.85375 0.66097 0.56359 0.0
loop_
_geom_bond_atom_site_label_1
_geom_bond_atom_site_label_2
_geom_bond_distance
_geom_bond_site_symmetry_2
_ccdc_geom_bond_type
C0 C1 1.391 . S
C0 C4 1.391 . S
C0 H42 0.948 . S
C1 C0 1.391 . S
C1 C2 1.391 . S
C2 C1 1.391 . S
C2 H58 0.947 . S
C2 C59 1.392 . S
C3 C4 1.391 . S
C3 C7 1.397 . S
C3 C59 1.419 . S
C4 C0 1.391 . S
C4 C3 1.391 . S
C4 C5 1.399 . S
C5 C4 1.399 . S
C5 C8 1.396 . S
C5 C17 1.453 . S
C5 C18 1.684 . S
H6 C30 0.948 . S
C7 C3 1.397 . S
C7 C8 1.394 . S
C7 C26 1.723 . S
C8 C5 1.396 . S
C8 C7 1.394 . S
C8 C38 1.723 . S
H9 C32 0.947 . S
H10 C33 0.948 . S
H11 C39 0.982 . S
H12 C40 0.979 . S
H13 C40 0.980 . S
H14 C40 0.983 . S
H15 C39 0.979 . S
H16 C39 0.977 . S
C17 C5 1.453 . S
C17 H46 0.982 . S
C17 H47 0.979 . S
C17 H48 0.977 . S
C18 C5 1.684 . S
C18 H43 0.979 . S
C18 H44 0.980 . S
C18 H45 0.983 . S
C19 C20 1.391 . S
C19 C24 1.391 . S
C19 H49 0.948 . S
C20 C19 1.391 . S
C20 C21 1.391 . S
C21 C20 1.391 . S
C21 C22 1.392 . S
C21 H50 0.947 . S
C22 C21 1.392 . S
C22 C23 1.419 . S
C22 H51 0.948 . S
C23 C22 1.419 . S
C23 C24 1.391 . S
C23 C27 1.397 . S
C24 C19 1.391 . S
C24 C23 1.391 . S
C24 C25 1.399 . S
C25 C24 1.399 . S
C25 C26 1.396 . S
C25 C28 1.453 . S
C25 C29 1.684 . S
C26 C7 1.723 . S
C26 C25 1.396 . S
C26 C27 1.394 . S
C27 C23 1.397 . S
C27 C26 1.394 . S
C27 C37 1.723 . S
C28 C25 1.453 . S
C28 H52 0.982 . S
C28 H53 0.979 . S
C28 H54 0.977 . S
C29 C25 1.684 . S
C29 H55 0.979 . S
C29 H56 0.980 . S
C29 H57 0.983 . S
C30 H6 0.948 . S
C30 C31 1.391 . S
C30 C35 1.391 . S
C31 C30 1.391 . S
C31 C32 1.391 . S
C32 H9 0.947 . S
C32 C31 1.391 . S
C32 C33 1.392 . S
C33 H10 0.948 . S
C33 C32 1.392 . S
C33 C34 1.419 . S
C34 C33 1.419 . S
C34 C35 1.391 . S
C34 C38 1.397 . S
C35 C30 1.391 . S
C35 C34 1.391 . S
C35 C36 1.399 . S
C36 C35 1.399 . S
C36 C37 1.396 . S
C36 C39 1.453 . S
C36 C40 1.684 . S
C37 C27 1.723 . S
C37 C36 1.396 . S
C37 C38 1.394 . S
C38 C8 1.723 . S
C38 C34 1.397 . S
C38 C37 1.394 . S
C39 H11 0.982 . S
C39 H15 0.979 . S
C39 H16 0.977 . S
C39 C36 1.453 . S
C40 H12 0.979 . S
C40 H13 0.980 . S
C40 H14 0.983 . S
C40 C36 1.684 . S
H41 C59 0.948 . S
H42 C0 0.948 . S
H43 C18 0.979 . S
H44 C18 0.980 . S
H45 C18 0.983 . S
H46 C17 0.982 . S
H47 C17 0.979 . S
H48 C17 0.977 . S
H49 C19 0.948 . S
H50 C21 0.947 . S
H51 C22 0.948 . S
H52 C28 0.982 . S
H53 C28 0.979 . S
H54 C28 0.977 . S
H55 C29 0.979 . S
H56 C29 0.980 . S
H57 C29 0.983 . S
H58 C2 0.947 . S
C59 C2 1.392 . S
C59 C3 1.419 . S
C59 H41 0.948 . S
C60 C61 1.391 . S
C60 C64 1.391 . S
C60 H102 0.948 . S
C61 C60 1.391 . S
C61 C62 1.391 . S
C62 C61 1.391 . S
C62 H118 0.947 . S
C62 C119 1.392 . S
C63 C64 1.391 . S
C63 C67 1.397 . S
C63 C119 1.419 . S
C64 C60 1.391 . S
C64 C63 1.391 . S
C64 C65 1.399 . S
C65 C64 1.399 . S
C65 C68 1.396 . S
C65 C77 1.453 . S
C65 C78 1.684 . S
H66 C90 0.948 . S
C67 C63 1.397 . S
C67 C68 1.394 . S
C67 C86 1.723 . S
C68 C65 1.396 . S
C68 C67 1.394 . S
C68 C98 1.723 . S
H69 C92 0.947 . S
H70 C93 0.948 . S
H71 C99 0.982 . S
H72 C100 0.979 . S
H73 C100 0.980 . S
H74 C100 0.983 . S
H75 C99 0.979 . S
H76 C99 0.977 . S
C77 C65 1.453 . S
C77 H106 0.982 . S
C77 H107 0.979 . S
C77 H108 0.977 . S
C78 C65 1.684 . S
C78 H103 0.979 . S
C78 H104 0.980 . S
C78 H105 0.983 . S
C79 C80 1.391 . S
C79 C84 1.391 . S
C79 H109 0.948 . S
C80 C79 1.391 . S
C80 C81 1.391 . S
C81 C80 1.391 . S
C81 C82 1.392 . S
C81 H110 0.947 . S
C82 C81 1.392 . S
C82 C83 1.419 . S
C82 H111 0.948 . S
C83 C82 1.419 . S
C83 C84 1.391 . S
C83 C87 1.397 . S
C84 C79 1.391 . S
C84 C83 1.391 . S
C84 C85 1.399 . S
C85 C84 1.399 . S
C85 C86 1.396 . S
C85 C88 1.453 . S
C85 C89 1.684 . S
C86 C67 1.723 . S
C86 C85 1.396 . S
C86 C87 1.394 . S
C87 C83 1.397 . S
C87 C86 1.394 . S
C87 C97 1.723 . S
C88 C85 1.453 . S
C88 H112 0.982 . S
C88 H113 0.979 . S
C88 H114 0.977 . S
C89 C85 1.684 . S
C89 H115 0.979 . S
C89 H116 0.980 . S
C89 H117 0.983 . S
C90 H66 0.948 . S
C90 C91 1.391 . S
C90 C95 1.391 . S
C91 C90 1.391 . S
C91 C92 1.391 . S
C92 H69 0.947 . S
C92 C91 1.391 . S
C92 C93 1.392 . S
C93 H70 0.948 . S
C93 C92 1.392 . S
C93 C94 1.419 . S
C94 C93 1.419 . S
C94 C95 1.391 . S
C94 C98 1.397 . S
C95 C90 1.391 . S
C95 C94 1.391 . S
C95 C96 1.399 . S
C96 C95 1.399 . S
C96 C97 1.396 . S
C96 C99 1.453 . S
C96 C100 1.684 . S
C97 C87 1.723 . S
C97 C96 1.396 . S
C97 C98 1.394 . S
C98 C68 1.723 . S
C98 C94 1.397 . S
C98 C97 1.394 . S
C99 H71 0.982 . S
C99 H75 0.979 . S
C99 H76 0.977 . S
C99 C96 1.453 . S
C100 H72 0.979 . S
C100 H73 0.980 . S
C100 H74 0.983 . S
C100 C96 1.684 . S
H101 C119 0.948 . S
H102 C60 0.948 . S
H103 C78 0.979 . S
H104 C78 0.980 . S
H105 C78 0.983 . S
H106 C77 0.982 . S
H107 C77 0.979 . S
H108 C77 0.977 . S
H109 C79 0.948 . S
H110 C81 0.947 . S
H111 C82 0.948 . S
H112 C88 0.982 . S
H113 C88 0.979 . S
H114 C88 0.977 . S
H115 C89 0.979 . S
H116 C89 0.980 . S
H117 C89 0.983 . S
H118 C62 0.947 . S
C119 C62 1.392 . S
C119 C63 1.419 . S
C119 H101 0.948 . S
C120 C121 1.391 . S
C120 C124 1.391 . S
C120 H162 0.948 . S
C121 C120 1.391 . S
C121 C122 1.391 . S
C122 C121 1.391 . S
C122 H178 0.947 . S
C122 C179 1.392 . S
C123 C124 1.391 . S
C123 C127 1.397 . S
C123 C179 1.419 . S
C124 C120 1.391 . S
C124 C123 1.391 . S
C124 C125 1.399 . S
C125 C124 1.399 . S
C125 C128 1.396 . S
C125 C137 1.453 . S
C125 C138 1.684 . S
H126 C150 0.948 . S
C127 C123 1.397 . S
C127 C128 1.394 . S
C127 C146 1.723 . S
C128 C125 1.396 . S
C128 C127 1.394 . S
C128 C158 1.723 . S
H129 C152 0.947 . S
H130 C153 0.948 . S
H131 C159 0.982 . S
H132 C160 0.979 . S
H133 C160 0.980 . S
H134 C160 0.983 . S
H135 C159 0.979 . S
H136 C159 0.977 . S
C137 C125 1.453 . S
C137 H166 0.982 . S
C137 H167 0.979 . S
C137 H168 0.977 . S
C138 C125 1.684 . S
C138 H163 0.979 . S
C138 H164 0.980 . S
C138 H165 0.983 . S
C139 C140 1.391 . S
C139 C144 1.391 . S
C139 H169 0.948 . S
C140 C139 1.391 . S
C140 C141 1.391 . S
C141 C140 1.391 . S
C141 C142 1.392 . S
C141 H170 0.947 . S
C142 C141 1.392 . S
C142 C143 1.419 . S
C142 H171 0.948 . S
C143 C142 1.419 . S
C143 C144 1.391 . S
C143 C147 1.397 . S
C144 C139 1.391 . S
C144 C143 1.391 . S
C144 C145 1.399 . S
C145 C144 1.399 . S
C145 C146 1.396 . S
C145 C148 1.453 . S
C145 C149 1.684 . S
C146 C127 1.723 . S
C146 C145 1.396 . S
C146 C147 1.394 . S
C147 C143 1.397 . S
C147 C146 1.394 . S
C147 C157 1.723 . S
C148 C145 1.453 . S
C148 H172 0.982 . S
C148 H173 0.979 . S
C148 H174 0.977 . S
C149 C145 1.684 . S
C149 H175 0.979 . S
C149 H176 0.980 . S
C149 H177 0.983 . S
C150 H126 0.948 . S
C150 C151 1.391 . S
C150 C155 1.391 . S
C151 C150 1.391 . S
C151 C152 1.391 . S
C152 H129 0.947 . S
C152 C151 1.391 . S
C152 C153 1.392 . S
C153 H130 0.948 . S
C153 C152 1.392 . S
C153 C154 1.419 . S
C154 C153 1.419 . S
C154 C155 1.391 . S
C154 C158 1.397 . S
C155 C150 1.391 . S
C155 C154 1.391 . S
C155 C156 1.399 . S
C156 C155 1.399 . S
C156 C157 1.396 . S
C156 C159 1.453 . S
C156 C160 1.684 . S
C157 C147 1.723 . S
C157 C156 1.396 . S
C157 C158 1.394 . S
C158 C128 1.723 . S
C158 C154 1.397 . S
C158 C157 1.394 . S
C159 H131 0.982 . S
C159 H135 0.979 . S
C159 H136 0.977 . S
C159 C156 1.453 . S
C160 H132 0.979 . S
C160 H133 0.980 . S
C160 H134 0.983 . S
C160 C156 1.684 . S
H161 C179 0.948 . S
H162 C120 0.948 . S
H163 C138 0.979 . S
H164 C138 0.980 . S
H165 C138 0.983 . S
H166 C137 0.982 . S
H167 C137 0.979 . S
H168 C137 0.977 . S
H169 C139 0.948 . S
H170 C141 0.947 . S
H171 C142 0.948 . S
H172 C148 0.982 . S
H173 C148 0.979 . S
H174 C148 0.977 . S
H175 C149 0.979 . S
H176 C149 0.980 . S
H177 C149 0.983 . S
H178 C122 0.947 . S
C179 C122 1.392 . S
C179 C123 1.419 . S
C179 H161 0.948 . S
C180 C181 1.391 . S
C180 C184 1.391 . S
C180 H222 0.948 . S
C181 C180 1.391 . S
C181 C182 1.391 . S
C182 C181 1.391 . S
C182 H238 0.947 . S
C182 C239 1.392 . S
C183 C184 1.391 . S
C183 C187 1.397 . S
C183 C239 1.419 . S
C184 C180 1.391 . S
C184 C183 1.391 . S
C184 C185 1.399 . S
C185 C184 1.399 . S
C185 C188 1.396 . S
C185 C197 1.453 . S
C185 C198 1.684 . S
H186 C210 0.948 . S
C187 C183 1.397 . S
C187 C188 1.394 . S
C187 C206 1.723 . S
C188 C185 1.396 . S
C188 C187 1.394 . S
C188 C218 1.723 . S
H189 C212 0.947 . S
H190 C213 0.948 . S
H191 C219 0.982 . S
H192 C220 0.979 . S
H193 C220 0.980 . S
H194 C220 0.983 . S
H195 C219 0.979 . S
H196 C219 0.977 . S
C197 C185 1.453 . S
C197 H226 0.982 . S
C197 H227 0.979 . S
C197 H228 0.977 . S
C198 C185 1.684 . S
C198 H223 0.979 . S
C198 H224 0.980 . S
C198 H225 0.983 . S
C199 C200 1.391 . S
C199 C204 1.391 . S
C199 H229 0.948 . S
C200 C199 1.391 . S
C200 C201 1.391 . S
C201 C200 1.391 . S
C201 C202 1.392 . S
C201 H230 0.947 . S
C202 C201 1.392 . S
C202 C203 1.419 . S
C202 H231 0.948 . S
C203 C202 1.419 . S
C203 C204 1.391 . S
C203 C207 1.397 . S
C204 C199 1.391 . S
C204 C203 1.391 . S
C204 C205 1.399 . S
C205 C204 1.399 . S
C205 C206 1.396 . S
C205 C208 1.453 . S
C205 C209 1.684 . S
C206 C187 1.723 . S
C206 C205 1.396 . S
C206 C207 1.394 . S
C207 C203 1.397 . S
C207 C206 1.394 . S
C207 C217 1.723 . S
C208 C205 1.453 . S
C208 H232 0.982 . S
C208 H233 0.979 . S
C208 H234 0.977 . S
C209 C205 1.684 . S
C209 H235 0.979 . S
C209 H236 0.980 . S
C209 H237 0.983 . S
C210 H186 0.948 . S
C210 C211 1.391 . S
C210 C215 1.391 . S
C211 C210 1.391 . S
C211 C212 1.391 . S
C212 H189 0.947 . S
C212 C211 1.391 . S
C212 C213 1.392 . S
C213 H190 0.948 . S
C213 C212 1.392 . S
C213 C214 1.419 . S
C214 C213 1.419 . S
C214 C215 1.391 . S
C214 C218 1.397 . S
C215 C210 1.391 . S
C215 C214 1.391 . S
C215 C216 1.399 . S
C216 C215 1.399 . S
C216 C217 1.396 . S
C216 C219 1.453 . S
C216 C220 1.684 . S
C217 C207 1.723 . S
C217 C216 1.396 . S
C217 C218 1.394 . S
C218 C188 1.723 . S
C218 C214 1.397 . S
C218 C217 1.394 . S
C219 H191 0.982 . S
C219 H195 0.979 . S
C219 H196 0.977 . S
C219 C216 1.453 . S
C220 H192 0.979 . S
C220 H193 0.980 . S
C220 H194 0.983 . S
C220 C216 1.684 . S
H221 C239 0.948 . S
H222 C180 0.948 . S
H223 C198 0.979 . S
H224 C198 0.980 . S
H225 C198 0.983 . S
H226 C197 0.982 . S
H227 C197 0.979 . S
H228 C197 0.977 . S
H229 C199 0.948 . S
H230 C201 0.947 . S
H231 C202 0.948 . S
H232 C208 0.982 . S
H233 C208 0.979 . S
H234 C208 0.977 . S
H235 C209 0.979 . S
H236 C209 0.980 . S
H237 C209 0.983 . S
H238 C182 0.947 . S
C239 C182 1.392 . S
C239 C183 1.419 . S
C239 H221 0.948 . S
C240 C241 1.391 . S
C240 C244 1.391 . S
C240 H282 0.948 . S
C241 C240 1.391 . S
C241 C242 1.391 . S
C242 C241 1.391 . S
C242 H298 0.947 . S
C242 C299 1.392 . S
C243 C244 1.391 . S
C243 C247 1.397 . S
C243 C299 1.419 . S
C244 C240 1.391 . S
C244 C243 1.391 . S
C244 C245 1.399 . S
C245 C244 1.399 . S
C245 C248 1.396 . S
C245 C257 1.453 . S
C245 C258 1.684 . S
H246 C270 0.948 . S
C247 C243 1.397 . S
C247 C248 1.394 . S
C247 C266 1.723 . S
C248 C245 1.396 . S
C248 C247 1.394 . S
C248 C278 1.723 . S
H249 C272 0.947 . S
H250 C273 0.948 . S
H251 C279 0.982 . S
H252 C280 0.979 . S
H253 C280 0.980 . S
H254 C280 0.983 . S
H255 C279 0.979 . S
H256 C279 0.977 . S
C257 C245 1.453 . S
C257 H286 0.982 . S
C257 H287 0.979 . S
C257 H288 0.977 . S
C258 C245 1.684 . S
C258 H283 0.979 . S
C258 H284 0.980 . S
C258 H285 0.983 . S
C259 C260 1.391 . S
C259 C264 1.391 . S
C259 H289 0.948 . S
C260 C259 1.391 . S
C260 C261 1.391 . S
C261 C260 1.391 . S
C261 C262 1.392 . S
C261 H290 0.947 . S
C262 C261 1.392 . S
C262 C263 1.419 . S
C262 H291 0.948 . S
C263 C262 1.419 . S
C263 C264 1.391 . S
C263 C267 1.397 . S
C264 C259 1.391 . S
C264 C263 1.391 . S
C264 C265 1.399 . S
C265 C264 1.399 . S
C265 C266 1.396 . S
C265 C268 1.453 . S
C265 C269 1.684 . S
C266 C247 1.723 . S
C266 C265 1.396 . S
C266 C267 1.394 . S
C267 C263 1.397 . S
C267 C266 1.394 . S
C267 C277 1.723 . S
C268 C265 1.453 . S
C268 H292 0.982 . S
C268 H293 0.979 . S
C268 H294 0.977 . S
C269 C265 1.684 . S
C269 H295 0.979 . S
C269 H296 0.980 . S
C269 H297 0.983 . S
C270 H246 0.948 . S
C270 C271 1.391 . S
C270 C275 1.391 . S
C271 C270 1.391 . S
C271 C272 1.391 . S
C272 H249 0.947 . S
C272 C271 1.391 . S
C272 C273 1.392 . S
C273 H250 0.948 . S
C273 C272 1.392 . S
C273 C274 1.419 . S
C274 C273 1.419 . S
C274 C275 1.391 . S
C274 C278 1.397 . S
C275 C270 1.391 . S
C275 C274 1.391 . S
C275 C276 1.399 . S
C276 C275 1.399 . S
C276 C277 1.396 . S
C276 C279 1.453 . S
C276 C280 1.684 . S
C277 C267 1.723 . S
C277 C276 1.396 . S
C277 C278 1.394 . S
C278 C248 1.723 . S
C278 C274 1.397 . S
C278 C277 1.394 . S
C279 H251 0.982 . S
C279 H255 0.979 . S
C279 H256 0.977 . S
C279 C276 1.453 . S
C280 H252 0.979 . S
C280 H253 0.980 . S
C280 H254 0.983 . S
C280 C276 1.684 . S
H281 C299 0.948 . S
H282 C240 0.948 . S
H283 C258 0.979 . S
H284 C258 0.980 . S
H285 C258 0.983 . S
H286 C257 0.982 . S
H287 C257 0.979 . S
H288 C257 0.977 . S
H289 C259 0.948 . S
H290 C261 0.947 . S
H291 C262 0.948 . S
H292 C268 0.982 . S
H293 C268 0.979 . S
H294 C268 0.977 . S
H295 C269 0.979 . S
H296 C269 0.980 . S
H297 C269 0.983 . S
H298 C242 0.947 . S
C299 C242 1.392 . S
C299 C243 1.419 . S
C299 H281 0.948 . S
C300 C301 1.391 . S
C300 C304 1.391 . S
C300 H342 0.948 . S
C301 C300 1.391 . S
C301 C302 1.391 . S
C302 C301 1.391 . S
C302 H358 0.947 . S
C302 C359 1.392 . S
C303 C304 1.391 . S
C303 C307 1.397 . S
C303 C359 1.419 . S
C304 C300 1.391 . S
C304 C303 1.391 . S
C304 C305 1.399 . S
C305 C304 1.399 . S
C305 C308 1.396 . S
C305 C317 1.453 . S
C305 C318 1.684 . S
H306 C330 0.948 . S
C307 C303 1.397 . S
C307 C308 1.394 . S
C307 C326 1.723 . S
C308 C305 1.396 . S
C308 C307 1.394 . S
C308 C338 1.723 . S
H309 C332 0.947 . S
H310 C333 0.948 . S
H311 C339 0.982 . S
H312 C340 0.979 . S
H313 C340 0.980 . S
H314 C340 0.983 . S
H315 C339 0.979 . S
H316 C339 0.977 . S
C317 C305 1.453 . S
C317 H346 0.982 . S
C317 H347 0.979 . S
C317 H348 0.977 . S
C318 C305 1.684 . S
C318 H343 0.979 . S
C318 H344 0.980 . S
C318 H345 0.983 . S
C319 C320 1.391 . S
C319 C324 1.391 . S
C319 H349 0.948 . S
C320 C319 1.391 . S
C320 C321 1.391 . S
C321 C320 1.391 . S
C321 C322 1.392 . S
C321 H350 0.947 . S
C322 C321 1.392 . S
C322 C323 1.419 . S
C322 H351 0.948 . S
C323 C322 1.419 . S
C323 C324 1.391 . S
C323 C327 1.397 . S
C324 C319 1.391 . S
C324 C323 1.391 . S
C324 C325 1.399 . S
C325 C324 1.399 . S
C325 C326 1.396 . S
C325 C328 1.453 . S
C325 C329 1.684 . S
C326 C307 1.723 . S
C326 C325 1.396 . S
C326 C327 1.394 . S
C327 C323 1.397 . S
C327 C326 1.394 . S
C327 C337 1.723 . S
C328 C325 1.453 . S
C328 H352 0.982 . S
C328 H353 0.979 . S
C328 H354 0.977 . S
C329 C325 1.684 . S
C329 H355 0.979 . S
C329 H356 0.980 . S
C329 H357 0.983 . S
C330 H306 0.948 . S
C330 C331 1.391 . S
C330 C335 1.391 . S
C331 C330 1.391 . S
C331 C332 1.391 . S
C332 H309 0.947 . S
C332 C331 1.391 . S
C332 C333 1.392 . S
C333 H310 0.948 . S
C333 C332 1.392 . S
C333 C334 1.419 . S
C334 C333 1.419 . S
C334 C335 1.391 . S
C334 C338 1.397 . S
C335 C330 1.391 . S
C335 C334 1.391 . S
C335 C336 1.399 . S
C336 C335 1.399 . S
C336 C337 1.396 . S
C336 C339 1.453 . S
C336 C340 1.684 . S
C337 C327 1.723 . S
C337 C336 1.396 . S
C337 C338 1.394 . S
C338 C308 1.723 . S
C338 C334 1.397 . S
C338 C337 1.394 . S
C339 H311 0.982 . S
C339 H315 0.979 . S
C339 H316 0.977 . S
C339 C336 1.453 . S
C340 H312 0.979 . S
C340 H313 0.980 . S
C340 H314 0.983 . S
C340 C336 1.684 . S
H341 C359 0.948 . S
H342 C300 0.948 . S
H343 C318 0.979 . S
H344 C318 0.980 . S
H345 C318 0.983 . S
H346 C317 0.982 . S
H347 C317 0.979 . S
H348 C317 0.977 . S
H349 C319 0.948 . S
H350 C321 0.947 . S
H351 C322 0.948 . S
H352 C328 0.982 . S
H353 C328 0.979 . S
H354 C328 0.977 . S
H355 C329 0.979 . S
H356 C329 0.980 . S
H357 C329 0.983 . S
H358 C302 0.947 . S
C359 C302 1.392 . S
C359 C303 1.419 . S
C359 H341 0.948 . S
C360 C361 1.391 . S
C360 C364 1.391 . S
C360 H402 0.948 . S
C361 C360 1.391 . S
C361 C362 1.391 . S
C362 C361 1.391 . S
C362 H418 0.947 . S
C362 C419 1.392 . S
C363 C364 1.391 . S
C363 C367 1.397 . S
C363 C419 1.419 . S
C364 C360 1.391 . S
C364 C363 1.391 . S
C364 C365 1.399 . S
C365 C364 1.399 . S
C365 C368 1.396 . S
C365 C377 1.453 . S
C365 C378 1.684 . S
H366 C390 0.948 . S
C367 C363 1.397 . S
C367 C368 1.394 . S
C367 C386 1.723 . S
C368 C365 1.396 . S
C368 C367 1.394 . S
C368 C398 1.723 . S
H369 C392 0.947 . S
H370 C393 0.948 . S
H371 C399 0.982 . S
H372 C400 0.979 . S
H373 C400 0.980 . S
H374 C400 0.983 . S
H375 C399 0.979 . S
H376 C399 0.977 . S
C377 C365 1.453 . S
C377 H406 0.982 . S
C377 H407 0.979 . S
C377 H408 0.977 . S
C378 C365 1.684 . S
C378 H403 0.979 . S
C378 H404 0.980 . S
C378 H405 0.983 . S
C379 C380 1.391 . S
C379 C384 1.391 . S
C379 H409 0.948 . S
C380 C379 1.391 . S
C380 C381 1.391 . S
C381 C380 1.391 . S
C381 C382 1.392 . S
C381 H410 0.947 . S
C382 C381 1.392 . S
C382 C383 1.419 . S
C382 H411 0.948 . S
C383 C382 1.419 . S
C383 C384 1.391 . S
C383 C387 1.397 . S
C384 C379 1.391 . S
C384 C383 1.391 . S
C384 C385 1.399 . S
C385 C384 1.399 . S
C385 C386 1.396 . S
C385 C388 1.453 . S
C385 C389 1.684 . S
C386 C367 1.723 . S
C386 C385 1.396 . S
C386 C387 1.394 . S
C387 C383 1.397 . S
C387 C386 1.394 . S
C387 C397 1.723 . S
C388 C385 1.453 . S
C388 H412 0.982 1_655 S
C388 H413 0.979 . S
C388 H414 0.977 . S
C389 C385 1.684 . S
C389 H415 0.979 . S
C389 H416 0.980 . S
C389 H417 0.983 . S
C390 H366 0.948 . S
C390 C391 1.391 . S
C390 C395 1.391 . S
C391 C390 1.391 . S
C391 C392 1.391 . S
C392 H369 0.947 . S
C392 C391 1.391 . S
C392 C393 1.392 . S
C393 H370 0.948 . S
C393 C392 1.392 . S
C393 C394 1.419 . S
C394 C393 1.419 . S
C394 C395 1.391 . S
C394 C398 1.397 . S
C395 C390 1.391 . S
C395 C394 1.391 . S
C395 C396 1.399 . S
C396 C395 1.399 . S
C396 C397 1.396 . S
C396 C399 1.453 . S
C396 C400 1.684 . S
C397 C387 1.723 . S
C397 C396 1.396 . S
C397 C398 1.394 . S
C398 C368 1.723 . S
C398 C394 1.397 . S
C398 C397 1.394 . S
C399 H371 0.982 . S
C399 H375 0.979 . S
C399 H376 0.977 . S
C399 C396 1.453 . S
C400 H372 0.979 . S
C400 H373 0.980 . S
C400 H374 0.983 . S
C400 C396 1.684 . S
H401 C419 0.948 . S
H402 C360 0.948 . S
H403 C378 0.979 . S
H404 C378 0.980 . S
H405 C378 0.983 . S
H406 C377 0.982 . S
H407 C377 0.979 . S
H408 C377 0.977 . S
H409 C379 0.948 . S
H410 C381 0.947 . S
H411 C382 0.948 . S
H412 C388 0.982 1_455 S
H413 C388 0.979 . S
H414 C388 0.977 . S
H415 C389 0.979 . S
H416 C389 0.980 . S
H417 C389 0.983 . S
H418 C362 0.947 . S
C419 C362 1.392 . S
C419 C363 1.419 . S
C419 H401 0.948 . S
C420 C421 1.391 . S
C420 C424 1.391 . S
C420 H462 0.948 . S
C421 C420 1.391 . S
C421 C422 1.391 . S
C422 C421 1.391 . S
C422 H478 0.947 . S
C422 C479 1.392 . S
C423 C424 1.391 . S
C423 C427 1.397 . S
C423 C479 1.419 . S
C424 C420 1.391 . S
C424 C423 1.391 . S
C424 C425 1.399 . S
C425 C424 1.399 . S
C425 C428 1.396 . S
C425 C437 1.453 . S
C425 C438 1.684 . S
H426 C450 0.948 . S
C427 C423 1.397 . S
C427 C428 1.394 . S
C427 C446 1.723 . S
C428 C425 1.396 . S
C428 C427 1.394 . S
C428 C458 1.723 . S
H429 C452 0.947 . S
H430 C453 0.948 . S
H431 C459 0.982 . S
H432 C460 0.979 . S
H433 C460 0.980 . S
H434 C460 0.983 . S
H435 C459 0.979 . S
H436 C459 0.977 . S
C437 C425 1.453 . S
C437 H466 0.982 . S
C437 H467 0.979 . S
C437 H468 0.977 . S
C438 C425 1.684 . S
C438 H463 0.979 . S
C438 H464 0.980 . S
C438 H465 0.983 . S
C439 C440 1.391 . S
C439 C444 1.391 . S
C439 H469 0.948 . S
C440 C439 1.391 . S
C440 C441 1.391 . S
C441 C440 1.391 . S
C441 C442 1.392 . S
C441 H470 0.947 . S
C442 C441 1.392 . S
C442 C443 1.419 . S
C442 H471 0.948 . S
C443 C442 1.419 . S
C443 C444 1.391 . S
C443 C447 1.397 . S
C444 C439 1.391 . S
C444 C443 1.391 . S
C444 C445 1.399 . S
C445 C444 1.399 . S
C445 C446 1.396 . S
C445 C448 1.453 . S
C445 C449 1.684 . S
C446 C427 1.723 . S
C446 C445 1.396 . S
C446 C447 1.394 . S
C447 C443 1.397 . S
C447 C446 1.394 . S
C447 C457 1.723 . S
C448 C445 1.453 . S
C448 H472 0.982 . S
C448 H473 0.979 . S
C448 H474 0.977 . S
C449 C445 1.684 . S
C449 H475 0.979 . S
C449 H476 0.980 . S
C449 H477 0.983 . S
C450 H426 0.948 . S
C450 C451 1.391 . S
C450 C455 1.391 . S
C451 C450 1.391 . S
C451 C452 1.391 . S
C452 H429 0.947 . S
C452 C451 1.391 . S
C452 C453 1.392 . S
C453 H430 0.948 . S
C453 C452 1.392 . S
C453 C454 1.419 . S
C454 C453 1.419 . S
C454 C455 1.391 . S
C454 C458 1.397 . S
C455 C450 1.391 . S
C455 C454 1.391 . S
C455 C456 1.399 . S
C456 C455 1.399 . S
C456 C457 1.396 . S
C456 C459 1.453 . S
C456 C460 1.684 . S
C457 C447 1.723 . S
C457 C456 1.396 . S
C457 C458 1.394 . S
C458 C428 1.723 . S
C458 C454 1.397 . S
C458 C457 1.394 . S
C459 H431 0.982 . S
C459 H435 0.979 . S
C459 H436 0.977 . S
C459 C456 1.453 . S
C460 H432 0.979 . S
C460 H433 0.980 . S
C460 H434 0.983 . S
C460 C456 1.684 . S
H461 C479 0.948 . S
H462 C420 0.948 . S
H463 C438 0.979 . S
H464 C438 0.980 . S
H465 C438 0.983 . S
H466 C437 0.982 . S
H467 C437 0.979 . S
H468 C437 0.977 . S
H469 C439 0.948 . S
H470 C441 0.947 . S
H471 C442 0.948 . S
H472 C448 0.982 . S
H473 C448 0.979 . S
H474 C448 0.977 . S
H475 C449 0.979 . S
H476 C449 0.980 . S
H477 C449 0.983 . S
H478 C422 0.947 . S
C479 C422 1.392 . S
C479 C423 1.419 . S
C479 H461 0.948 . S
C480 C481 1.391 . S
C480 C484 1.391 . S
C480 H522 0.948 . S
C481 C480 1.391 . S
C481 C482 1.391 . S
C482 C481 1.391 . S
C482 H538 0.947 . S
C482 C539 1.392 . S
C483 C484 1.391 . S
C483 C487 1.397 . S
C483 C539 1.419 . S
C484 C480 1.391 . S
C484 C483 1.391 . S
C484 C485 1.399 . S
C485 C484 1.399 . S
C485 C488 1.396 . S
C485 C497 1.453 . S
C485 C498 1.684 . S
H486 C510 0.948 . S
C487 C483 1.397 . S
C487 C488 1.394 . S
C487 C506 1.723 . S
C488 C485 1.396 . S
C488 C487 1.394 . S
C488 C518 1.723 . S
H489 C512 0.947 . S
H490 C513 0.948 . S
H491 C519 0.982 . S
H492 C520 0.979 . S
H493 C520 0.980 . S
H494 C520 0.983 . S
H495 C519 0.979 . S
H496 C519 0.977 . S
C497 C485 1.453 . S
C497 H526 0.982 . S
C497 H527 0.979 . S
C497 H528 0.977 . S
C498 C485 1.684 . S
C498 H523 0.979 . S
C498 H524 0.980 . S
C498 H525 0.983 . S
C499 C500 1.391 . S
C499 C504 1.391 . S
C499 H529 0.948 . S
C500 C499 1.391 . S
C500 C501 1.391 . S
C501 C500 1.391 . S
C501 C502 1.392 . S
C501 H530 0.947 . S
C502 C501 1.392 . S
C502 C503 1.419 . S
C502 H531 0.948 . S
C503 C502 1.419 . S
C503 C504 1.391 . S
C503 C507 1.397 . S
C504 C499 1.391 . S
C504 C503 1.391 . S
C504 C505 1.399 . S
C505 C504 1.399 . S
C505 C506 1.396 . S
C505 C508 1.453 . S
C505 C509 1.684 . S
C506 C487 1.723 . S
C506 C505 1.396 . S
C506 C507 1.394 . S
C507 C503 1.397 . S
C507 C506 1.394 . S
C507 C517 1.723 . S
C508 C505 1.453 . S
C508 H532 0.982 . S
C508 H533 0.979 . S
C508 H534 0.977 . S
C509 C505 1.684 . S
C509 H535 0.979 . S
C509 H536 0.980 . S
C509 H537 0.983 . S
C510 H486 0.948 . S
C510 C511 1.391 . S
C510 C515 1.391 . S
C511 C510 1.391 . S
C511 C512 1.391 . S
C512 H489 0.947 . S
C512 C511 1.391 . S
C512 C513 1.392 . S
C513 H490 0.948 . S
C513 C512 1.392 . S
C513 C514 1.419 . S
C514 C513 1.419 . S
C514 C515 1.391 . S
C514 C518 1.397 . S
C515 C510 1.391 . S
C515 C514 1.391 . S
C515 C516 1.399 . S
C516 C515 1.399 . S
C516 C517 1.396 . S
C516 C519 1.453 . S
C516 C520 1.684 . S
C517 C507 1.723 . S
C517 C516 1.396 . S
C517 C518 1.394 . S
C518 C488 1.723 . S
C518 C514 1.397 . S
C518 C517 1.394 . S
C519 H491 0.982 . S
C519 H495 0.979 . S
C519 H496 0.977 . S
C519 C516 1.453 . S
C520 H492 0.979 . S
C520 H493 0.980 . S
C520 H494 0.983 . S
C520 C516 1.684 . S
H521 C539 0.948 . S
H522 C480 0.948 . S
H523 C498 0.979 . S
H524 C498 0.980 . S
H525 C498 0.983 . S
H526 C497 0.982 . S
H527 C497 0.979 . S
H528 C497 0.977 . S
H529 C499 0.948 . S
H530 C501 0.947 . S
H531 C502 0.948 . S
H532 C508 0.982 . S
H533 C508 0.979 . S
H534 C508 0.977 . S
H535 C509 0.979 . S
H536 C509 0.980 . S
H537 C509 0.983 . S
H538 C482 0.947 . S
C539 C482 1.392 . S
C539 C483 1.419 . S
C539 H521 0.948 . S
C540 C541 1.391 . S
C540 C544 1.391 . S
C540 H582 0.948 . S
C541 C540 1.391 . S
C541 C542 1.391 . S
C542 C541 1.391 . S
C542 H598 0.947 . S
C542 C599 1.392 . S
C543 C544 1.391 . S
C543 C547 1.397 . S
C543 C599 1.419 . S
C544 C540 1.391 . S
C544 C543 1.391 . S
C544 C545 1.399 . S
C545 C544 1.399 . S
C545 C548 1.396 . S
C545 C557 1.453 . S
C545 C558 1.684 . S
H546 C570 0.948 . S
C547 C543 1.397 . S
C547 C548 1.394 . S
C547 C566 1.723 . S
C548 C545 1.396 . S
C548 C547 1.394 . S
C548 C578 1.723 . S
H549 C572 0.947 . S
H550 C573 0.948 . S
H551 C579 0.982 . S
H552 C580 0.979 . S
H553 C580 0.980 . S
H554 C580 0.983 . S
H555 C579 0.979 . S
H556 C579 0.977 . S
C557 C545 1.453 . S
C557 H586 0.982 . S
C557 H587 0.979 . S
C557 H588 0.977 . S
C558 C545 1.684 . S
C558 H583 0.979 . S
C558 H584 0.980 . S
C558 H585 0.983 . S
C559 C560 1.391 . S
C559 C564 1.391 . S
C559 H589 0.948 . S
C560 C559 1.391 . S
C560 C561 1.391 . S
C561 C560 1.391 . S
C561 C562 1.392 . S
C561 H590 0.947 . S
C562 C561 1.392 . S
C562 C563 1.419 . S
C562 H591 0.948 . S
C563 C562 1.419 . S
C563 C564 1.391 . S
C563 C567 1.397 . S
C564 C559 1.391 . S
C564 C563 1.391 . S
C564 C565 1.399 . S
C565 C564 1.399 . S
C565 C566 1.396 . S
C565 C568 1.453 . S
C565 C569 1.684 . S
C566 C547 1.723 . S
C566 C565 1.396 . S
C566 C567 1.394 . S
C567 C563 1.397 . S
C567 C566 1.394 . S
C567 C577 1.723 . S
C568 C565 1.453 . S
C568 H592 0.982 . S
C568 H593 0.979 . S
C568 H594 0.977 . S
C569 C565 1.684 . S
C569 H595 0.979 . S
C569 H596 0.980 . S
C569 H597 0.983 . S
C570 H546 0.948 . S
C570 C571 1.391 . S
C570 C575 1.391 . S
C571 C570 1.391 . S
C571 C572 1.391 . S
C572 H549 0.947 . S
C572 C571 1.391 . S
C572 C573 1.392 . S
C573 H550 0.948 . S
C573 C572 1.392 . S
C573 C574 1.419 . S
C574 C573 1.419 . S
C574 C575 1.391 . S
C574 C578 1.397 . S
C575 C570 1.391 . S
C575 C574 1.391 . S
C575 C576 1.399 . S
C576 C575 1.399 . S
C576 C577 1.396 . S
C576 C579 1.453 . S
C576 C580 1.684 . S
C577 C567 1.723 . S
C577 C576 1.396 . S
C577 C578 1.394 . S
C578 C548 1.723 . S
C578 C574 1.397 . S
C578 C577 1.394 . S
C579 H551 0.982 . S
C579 H555 0.979 . S
C579 H556 0.977 . S
C579 C576 1.453 . S
C580 H552 0.979 . S
C580 H553 0.980 . S
C580 H554 0.983 . S
C580 C576 1.684 . S
H581 C599 0.948 . S
H582 C540 0.948 . S
H583 C558 0.979 . S
H584 C558 0.980 . S
H585 C558 0.983 . S
H586 C557 0.982 . S
H587 C557 0.979 . S
H588 C557 0.977 . S
H589 C559 0.948 . S
H590 C561 0.947 . S
H591 C562 0.948 . S
H592 C568 0.982 . S
H593 C568 0.979 . S
H594 C568 0.977 . S
H595 C569 0.979 . S
H596 C569 0.980 . S
H597 C569 0.983 . S
H598 C542 0.947 . S
C599 C542 1.392 . S
C599 C543 1.419 . S
C599 H581 0.948 . S
C600 C601 1.391 . S
C600 C604 1.391 . S
C600 H642 0.948 . S
C601 C600 1.391 . S
C601 C602 1.391 . S
C602 C601 1.391 . S
C602 H658 0.947 . S
C602 C659 1.392 . S
C603 C604 1.391 . S
C603 C607 1.397 . S
C603 C659 1.419 . S
C604 C600 1.391 . S
C604 C603 1.391 . S
C604 C605 1.399 . S
C605 C604 1.399 . S
C605 C608 1.396 . S
C605 C617 1.453 . S
C605 C618 1.684 . S
H606 C630 0.948 . S
C607 C603 1.397 . S
C607 C608 1.394 . S
C607 C626 1.723 . S
C608 C605 1.396 . S
C608 C607 1.394 . S
C608 C638 1.723 . S
H609 C632 0.947 . S
H610 C633 0.948 . S
H611 C639 0.982 . S
H612 C640 0.979 . S
H613 C640 0.980 . S
H614 C640 0.983 . S
H615 C639 0.979 . S
H616 C639 0.977 . S
C617 C605 1.453 . S
C617 H646 0.982 . S
C617 H647 0.979 . S
C617 H648 0.977 . S
C618 C605 1.684 . S
C618 H643 0.979 . S
C618 H644 0.980 . S
C618 H645 0.983 . S
C619 C620 1.391 . S
C619 C624 1.391 . S
C619 H649 0.948 . S
C620 C619 1.391 . S
C620 C621 1.391 . S
C621 C620 1.391 . S
C621 C622 1.392 . S
C621 H650 0.947 . S
C622 C621 1.392 . S
C622 C623 1.419 . S
C622 H651 0.948 . S
C623 C622 1.419 . S
C623 C624 1.391 . S
C623 C627 1.397 . S
C624 C619 1.391 . S
C624 C623 1.391 . S
C624 C625 1.399 . S
C625 C624 1.399 . S
C625 C626 1.396 . S
C625 C628 1.453 . S
C625 C629 1.684 . S
C626 C607 1.723 . S
C626 C625 1.396 . S
C626 C627 1.394 . S
C627 C623 1.397 . S
C627 C626 1.394 . S
C627 C637 1.723 . S
C628 C625 1.453 . S
C628 H652 0.982 . S
C628 H653 0.979 . S
C628 H654 0.977 . S
C629 C625 1.684 . S
C629 H655 0.979 . S
C629 H656 0.980 . S
C629 H657 0.983 . S
C630 H606 0.948 . S
C630 C631 1.391 . S
C630 C635 1.391 . S
C631 C630 1.391 . S
C631 C632 1.391 . S
C632 H609 0.947 . S
C632 C631 1.391 . S
C632 C633 1.392 . S
C633 H610 0.948 . S
C633 C632 1.392 . S
C633 C634 1.419 . S
C634 C633 1.419 . S
C634 C635 1.391 . S
C634 C638 1.397 . S
C635 C630 1.391 . S
C635 C634 1.391 . S
C635 C636 1.399 . S
C636 C635 1.399 . S
C636 C637 1.396 . S
C636 C639 1.453 . S
C636 C640 1.684 . S
C637 C627 1.723 . S
C637 C636 1.396 . S
C637 C638 1.394 . S
C638 C608 1.723 . S
C638 C634 1.397 . S
C638 C637 1.394 . S
C639 H611 0.982 . S
C639 H615 0.979 . S
C639 H616 0.977 . S
C639 C636 1.453 . S
C640 H612 0.979 . S
C640 H613 0.980 . S
C640 H614 0.983 . S
C640 C636 1.684 . S
H641 C659 0.948 . S
H642 C600 0.948 . S
H643 C618 0.979 . S
H644 C618 0.980 . S
H645 C618 0.983 . S
H646 C617 0.982 . S
H647 C617 0.979 . S
H648 C617 0.977 . S
H649 C619 0.948 . S
H650 C621 0.947 . S
H651 C622 0.948 . S
H652 C628 0.982 . S
H653 C628 0.979 . S
H654 C628 0.977 . S
H655 C629 0.979 . S
H656 C629 0.980 . S
H657 C629 0.983 . S
H658 C602 0.947 . S
C659 C602 1.392 . S
C659 C603 1.419 . S
C659 H641 0.948 . S
C660 C661 1.391 . S
C660 C664 1.391 . S
C660 H702 0.948 . S
C661 C660 1.391 . S
C661 C662 1.391 . S
C662 C661 1.391 . S
C662 H718 0.947 . S
C662 C719 1.392 . S
C663 C664 1.391 . S
C663 C667 1.397 . S
C663 C719 1.419 . S
C664 C660 1.391 . S
C664 C663 1.391 . S
C664 C665 1.399 . S
C665 C664 1.399 . S
C665 C668 1.396 . S
C665 C677 1.453 . S
C665 C678 1.684 . S
H666 C690 0.948 . S
C667 C663 1.397 . S
C667 C668 1.394 . S
C667 C686 1.723 . S
C668 C665 1.396 . S
C668 C667 1.394 . S
C668 C698 1.723 . S
H669 C692 0.947 . S
H670 C693 0.948 . S
H671 C699 0.982 . S
H672 C700 0.979 . S
H673 C700 0.980 . S
H674 C700 0.983 . S
H675 C699 0.979 . S
H676 C699 0.977 . S
C677 C665 1.453 . S
C677 H706 0.982 . S
C677 H707 0.979 . S
C677 H708 0.977 . S
C678 C665 1.684 . S
C678 H703 0.979 . S
C678 H704 0.980 . S
C678 H705 0.983 . S
C679 C680 1.391 . S
C679 C684 1.391 . S
C679 H709 0.948 . S
C680 C679 1.391 . S
C680 C681 1.391 . S
C681 C680 1.391 . S
C681 C682 1.392 . S
C681 H710 0.947 . S
C682 C681 1.392 . S
C682 C683 1.419 . S
C682 H711 0.948 . S
C683 C682 1.419 . S
C683 C684 1.391 . S
C683 C687 1.397 . S
C684 C679 1.391 . S
C684 C683 1.391 . S
C684 C685 1.399 . S
C685 C684 1.399 . S
C685 C686 1.396 . S
C685 C688 1.453 . S
C685 C689 1.684 . S
C686 C667 1.723 . S
C686 C685 1.396 . S
C686 C687 1.394 . S
C687 C683 1.397 . S
C687 C686 1.394 . S
C687 C697 1.723 . S
C688 C685 1.453 . S
C688 H712 0.982 . S
C688 H713 0.979 . S
C688 H714 0.977 . S
C689 C685 1.684 . S
C689 H715 0.979 . S
C689 H716 0.980 . S
C689 H717 0.983 . S
C690 H666 0.948 . S
C690 C691 1.391 . S
C690 C695 1.391 . S
C691 C690 1.391 . S
C691 C692 1.391 . S
C692 H669 0.947 . S
C692 C691 1.391 . S
C692 C693 1.392 . S
C693 H670 0.948 . S
C693 C692 1.392 . S
C693 C694 1.419 . S
C694 C693 1.419 . S
C694 C695 1.391 . S
C694 C698 1.397 . S
C695 C690 1.391 . S
C695 C694 1.391 . S
C695 C696 1.399 . S
C696 C695 1.399 . S
C696 C697 1.396 . S
C696 C699 1.453 . S
C696 C700 1.684 . S
C697 C687 1.723 . S
C697 C696 1.396 . S
C697 C698 1.394 . S
C698 C668 1.723 . S
C698 C694 1.397 . S
C698 C697 1.394 . S
C699 H671 0.982 . S
C699 H675 0.979 . S
C699 H676 0.977 . S
C699 C696 1.453 . S
C700 H672 0.979 . S
C700 H673 0.980 . S
C700 H674 0.983 . S
C700 C696 1.684 . S
H701 C719 0.948 . S
H702 C660 0.948 . S
H703 C678 0.979 . S
H704 C678 0.980 . S
H705 C678 0.983 . S
H706 C677 0.982 . S
H707 C677 0.979 . S
H708 C677 0.977 . S
H709 C679 0.948 . S
H710 C681 0.947 . S
H711 C682 0.948 . S
H712 C688 0.982 . S
H713 C688 0.979 . S
H714 C688 0.977 . S
H715 C689 0.979 . S
H716 C689 0.980 . S
H717 C689 0.983 . S
H718 C662 0.947 . S
C719 C662 1.392 . S
C719 C663 1.419 . S
C719 H701 0.948 . S
C720 C721 1.391 . S
C720 C724 1.391 . S
C720 H762 0.948 . S
C721 C720 1.391 . S
C721 C722 1.391 . S
C722 C721 1.391 . S
C722 H778 0.947 . S
C722 C779 1.392 . S
C723 C724 1.391 . S
C723 C727 1.397 . S
C723 C779 1.419 . S
C724 C720 1.391 . S
C724 C723 1.391 . S
C724 C725 1.399 . S
C725 C724 1.399 . S
C725 C728 1.396 . S
C725 C737 1.453 . S
C725 C738 1.684 . S
H726 C750 0.948 . S
C727 C723 1.397 . S
C727 C728 1.394 . S
C727 C746 1.723 . S
C728 C725 1.396 . S
C728 C727 1.394 . S
C728 C758 1.723 . S
H729 C752 0.947 . S
H730 C753 0.948 . S
H731 C759 0.982 . S
H732 C760 0.979 . S
H733 C760 0.980 . S
H734 C760 0.983 . S
H735 C759 0.979 . S
H736 C759 0.977 . S
C737 C725 1.453 . S
C737 H766 0.982 . S
C737 H767 0.979 . S
C737 H768 0.977 . S
C738 C725 1.684 . S
C738 H763 0.979 . S
C738 H764 0.980 . S
C738 H765 0.983 . S
C739 C740 1.391 . S
C739 C744 1.391 . S
C739 H769 0.948 . S
C740 C739 1.391 . S
C740 C741 1.391 . S
C741 C740 1.391 . S
C741 C742 1.392 . S
C741 H770 0.947 . S
C742 C741 1.392 . S
C742 C743 1.419 . S
C742 H771 0.948 . S
C743 C742 1.419 . S
C743 C744 1.391 . S
C743 C747 1.397 . S
C744 C739 1.391 . S
C744 C743 1.391 . S
C744 C745 1.399 . S
C745 C744 1.399 . S
C745 C746 1.396 . S
C745 C748 1.453 . S
C745 C749 1.684 . S
C746 C727 1.723 . S
C746 C745 1.396 . S
C746 C747 1.394 . S
C747 C743 1.397 . S
C747 C746 1.394 . S
C747 C757 1.723 . S
C748 C745 1.453 . S
C748 H772 0.982 . S
C748 H773 0.979 . S
C748 H774 0.977 . S
C749 C745 1.684 . S
C749 H775 0.979 . S
C749 H776 0.980 . S
C749 H777 0.983 . S
C750 H726 0.948 . S
C750 C751 1.391 . S
C750 C755 1.391 . S
C751 C750 1.391 . S
C751 C752 1.391 . S
C752 H729 0.947 . S
C752 C751 1.391 . S
C752 C753 1.392 . S
C753 H730 0.948 . S
C753 C752 1.392 . S
C753 C754 1.419 . S
C754 C753 1.419 . S
C754 C755 1.391 . S
C754 C758 1.397 . S
C755 C750 1.391 . S
C755 C754 1.391 . S
C755 C756 1.399 . S
C756 C755 1.399 . S
C756 C757 1.396 . S
C756 C759 1.453 . S
C756 C760 1.684 . S
C757 C747 1.723 . S
C757 C756 1.396 . S
C757 C758 1.394 . S
C758 C728 1.723 . S
C758 C754 1.397 . S
C758 C757 1.394 . S
C759 H731 0.982 . S
C759 H735 0.979 . S
C759 H736 0.977 . S
C759 C756 1.453 . S
C760 H732 0.979 . S
C760 H733 0.980 . S
C760 H734 0.983 . S
C760 C756 1.684 . S
H761 C779 0.948 . S
H762 C720 0.948 . S
H763 C738 0.979 . S
H764 C738 0.980 . S
H765 C738 0.983 . S
H766 C737 0.982 . S
H767 C737 0.979 . S
H768 C737 0.977 . S
H769 C739 0.948 . S
H770 C741 0.947 . S
H771 C742 0.948 . S
H772 C748 0.982 . S
H773 C748 0.979 . S
H774 C748 0.977 . S
H775 C749 0.979 . S
H776 C749 0.980 . S
H777 C749 0.983 . S
H778 C722 0.947 . S
C779 C722 1.392 . S
C779 C723 1.419 . S
C779 H761 0.948 . S
C780 C781 1.391 . S
C780 C784 1.391 . S
C780 H822 0.948 . S
C781 C780 1.391 . S
C781 C782 1.391 . S
C782 C781 1.391 . S
C782 H838 0.947 . S
C782 C839 1.392 . S
C783 C784 1.391 . S
C783 C787 1.397 . S
C783 C839 1.419 . S
C784 C780 1.391 . S
C784 C783 1.391 . S
C784 C785 1.399 . S
C785 C784 1.399 . S
C785 C788 1.396 . S
C785 C797 1.453 . S
C785 C798 1.684 . S
H786 C810 0.948 . S
C787 C783 1.397 . S
C787 C788 1.394 . S
C787 C806 1.723 . S
C788 C785 1.396 . S
C788 C787 1.394 . S
C788 C818 1.723 . S
H789 C812 0.947 . S
H790 C813 0.948 . S
H791 C819 0.982 . S
H792 C820 0.979 . S
H793 C820 0.980 . S
H794 C820 0.983 . S
H795 C819 0.979 . S
H796 C819 0.977 . S
C797 C785 1.453 . S
C797 H826 0.982 . S
C797 H827 0.979 . S
C797 H828 0.977 . S
C798 C785 1.684 . S
C798 H823 0.979 . S
C798 H824 0.980 . S
C798 H825 0.983 . S
C799 C800 1.391 . S
C799 C804 1.391 . S
C799 H829 0.948 . S
C800 C799 1.391 . S
C800 C801 1.391 . S
C801 C800 1.391 . S
C801 C802 1.392 . S
C801 H830 0.947 . S
C802 C801 1.392 . S
C802 C803 1.419 . S
C802 H831 0.948 . S
C803 C802 1.419 . S
C803 C804 1.391 . S
C803 C807 1.397 . S
C804 C799 1.391 . S
C804 C803 1.391 . S
C804 C805 1.399 . S
C805 C804 1.399 . S
C805 C806 1.396 . S
C805 C808 1.453 . S
C805 C809 1.684 . S
C806 C787 1.723 . S
C806 C805 1.396 . S
C806 C807 1.394 . S
C807 C803 1.397 . S
C807 C806 1.394 . S
C807 C817 1.723 . S
C808 C805 1.453 . S
C808 H832 0.982 . S
C808 H833 0.979 . S
C808 H834 0.977 . S
C809 C805 1.684 . S
C809 H835 0.979 . S
C809 H836 0.980 . S
C809 H837 0.983 . S
C810 H786 0.948 . S
C810 C811 1.391 . S
C810 C815 1.391 . S
C811 C810 1.391 . S
C811 C812 1.391 . S
C812 H789 0.947 . S
C812 C811 1.391 . S
C812 C813 1.392 . S
C813 H790 0.948 . S
C813 C812 1.392 . S
C813 C814 1.419 . S
C814 C813 1.419 . S
C814 C815 1.391 . S
C814 C818 1.397 . S
C815 C810 1.391 . S
C815 C814 1.391 . S
C815 C816 1.399 . S
C816 C815 1.399 . S
C816 C817 1.396 . S
C816 C819 1.453 . S
C816 C820 1.684 . S
C817 C807 1.723 . S
C817 C816 1.396 . S
C817 C818 1.394 . S
C818 C788 1.723 . S
C818 C814 1.397 . S
C818 C817 1.394 . S
C819 H791 0.982 . S
C819 H795 0.979 . S
C819 H796 0.977 . S
C819 C816 1.453 . S
C820 H792 0.979 . S
C820 H793 0.980 . S
C820 H794 0.983 . S
C820 C816 1.684 . S
H821 C839 0.948 . S
H822 C780 0.948 . S
H823 C798 0.979 . S
H824 C798 0.980 . S
H825 C798 0.983 . S
H826 C797 0.982 . S
H827 C797 0.979 . S
H828 C797 0.977 . S
H829 C799 0.948 . S
H830 C801 0.947 . S
H831 C802 0.948 . S
H832 C808 0.982 . S
H833 C808 0.979 . S
H834 C808 0.977 . S
H835 C809 0.979 . S
H836 C809 0.980 . S
H837 C809 0.983 . S
H838 C782 0.947 . S
C839 C782 1.392 . S
C839 C783 1.419 . S
C839 H821 0.948 . S
C840 C841 1.391 . S
C840 C844 1.391 . S
C840 H882 0.948 . S
C841 C840 1.391 . S
C841 C842 1.391 . S
C842 C841 1.391 . S
C842 H898 0.947 . S
C842 C899 1.392 . S
C843 C844 1.391 . S
C843 C847 1.397 . S
C843 C899 1.419 . S
C844 C840 1.391 . S
C844 C843 1.391 . S
C844 C845 1.399 . S
C845 C844 1.399 . S
C845 C848 1.396 . S
C845 C857 1.453 . S
C845 C858 1.684 . S
H846 C870 0.948 . S
C847 C843 1.397 . S
C847 C848 1.394 . S
C847 C866 1.723 . S
C848 C845 1.396 . S
C848 C847 1.394 . S
C848 C878 1.723 . S
H849 C872 0.947 . S
H850 C873 0.948 . S
H851 C879 0.982 . S
H852 C880 0.979 . S
H853 C880 0.980 . S
H854 C880 0.983 . S
H855 C879 0.979 . S
H856 C879 0.977 . S
C857 C845 1.453 . S
C857 H886 0.982 . S
C857 H887 0.979 . S
C857 H888 0.977 . S
C858 C845 1.684 . S
C858 H883 0.979 . S
C858 H884 0.980 . S
C858 H885 0.983 . S
C859 C860 1.391 . S
C859 C864 1.391 . S
C859 H889 0.948 . S
C860 C859 1.391 . S
C860 C861 1.391 . S
C861 C860 1.391 . S
C861 C862 1.392 . S
C861 H890 0.947 . S
C862 C861 1.392 . S
C862 C863 1.419 . S
C862 H891 0.948 . S
C863 C862 1.419 . S
C863 C864 1.391 . S
C863 C867 1.397 . S
C864 C859 1.391 . S
C864 C863 1.391 . S
C864 C865 1.399 . S
C865 C864 1.399 . S
C865 C866 1.396 . S
C865 C868 1.453 . S
C865 C869 1.684 . S
C866 C847 1.723 . S
C866 C865 1.396 . S
C866 C867 1.394 . S
C867 C863 1.397 . S
C867 C866 1.394 . S
C867 C877 1.723 . S
C868 C865 1.453 . S
C868 H892 0.982 . S
C868 H893 0.979 . S
C868 H894 0.977 . S
C869 C865 1.684 . S
C869 H895 0.979 . S
C869 H896 0.980 . S
C869 H897 0.983 . S
C870 H846 0.948 . S
C870 C871 1.391 . S
C870 C875 1.391 . S
C871 C870 1.391 . S
C871 C872 1.391 . S
C872 H849 0.947 . S
C872 C871 1.391 . S
C872 C873 1.392 . S
C873 H850 0.948 . S
C873 C872 1.392 . S
C873 C874 1.419 . S
C874 C873 1.419 . S
C874 C875 1.391 . S
C874 C878 1.397 . S
C875 C870 1.391 . S
C875 C874 1.391 . S
C875 C876 1.399 . S
C876 C875 1.399 . S
C876 C877 1.396 . S
C876 C879 1.453 . S
C876 C880 1.684 . S
C877 C867 1.723 . S
C877 C876 1.396 . S
C877 C878 1.394 . S
C878 C848 1.723 . S
C878 C874 1.397 . S
C878 C877 1.394 . S
C879 H851 0.982 . S
C879 H855 0.979 . S
C879 H856 0.977 . S
C879 C876 1.453 . S
C880 H852 0.979 . S
C880 H853 0.980 . S
C880 H854 0.983 . S
C880 C876 1.684 . S
H881 C899 0.948 . S
H882 C840 0.948 . S
H883 C858 0.979 . S
H884 C858 0.980 . S
H885 C858 0.983 . S
H886 C857 0.982 . S
H887 C857 0.979 . S
H888 C857 0.977 . S
H889 C859 0.948 . S
H890 C861 0.947 . S
H891 C862 0.948 . S
H892 C868 0.982 . S
H893 C868 0.979 . S
H894 C868 0.977 . S
H895 C869 0.979 . S
H896 C869 0.980 . S
H897 C869 0.983 . S
H898 C842 0.947 . S
C899 C842 1.392 . S
C899 C843 1.419 . S
C899 H881 0.948 . S
C900 C901 1.391 . S
C900 C904 1.391 . S
C900 H942 0.948 . S
C901 C900 1.391 . S
C901 C902 1.391 . S
C902 C901 1.391 . S
C902 H958 0.947 . S
C902 C959 1.392 . S
C903 C904 1.391 . S
C903 C907 1.397 . S
C903 C959 1.419 . S
C904 C900 1.391 . S
C904 C903 1.391 . S
C904 C905 1.399 . S
C905 C904 1.399 . S
C905 C908 1.396 . S
C905 C917 1.453 . S
C905 C918 1.684 . S
H906 C930 0.948 . S
C907 C903 1.397 . S
C907 C908 1.394 . S
C907 C926 1.723 . S
C908 C905 1.396 . S
C908 C907 1.394 . S
C908 C938 1.723 . S
H909 C932 0.947 . S
H910 C933 0.948 . S
H911 C939 0.982 . S
H912 C940 0.979 . S
H913 C940 0.980 . S
H914 C940 0.983 . S
H915 C939 0.979 . S
H916 C939 0.977 . S
C917 C905 1.453 . S
C917 H946 0.982 . S
C917 H947 0.979 . S
C917 H948 0.977 . S
C918 C905 1.684 . S
C918 H943 0.979 . S
C918 H944 0.980 . S
C918 H945 0.983 . S
C919 C920 1.391 . S
C919 C924 1.391 . S
C919 H949 0.948 . S
C920 C919 1.391 . S
C920 C921 1.391 . S
C921 C920 1.391 . S
C921 C922 1.392 . S
C921 H950 0.947 . S
C922 C921 1.392 . S
C922 C923 1.419 . S
C922 H951 0.948 . S
C923 C922 1.419 . S
C923 C924 1.391 . S
C923 C927 1.397 . S
C924 C919 1.391 . S
C924 C923 1.391 . S
C924 C925 1.399 . S
C925 C924 1.399 . S
C925 C926 1.396 . S
C925 C928 1.453 . S
C925 C929 1.684 . S
C926 C907 1.723 . S
C926 C925 1.396 . S
C926 C927 1.394 . S
C927 C923 1.397 . S
C927 C926 1.394 . S
C927 C937 1.723 . S
C928 C925 1.453 . S
C928 H952 0.982 . S
C928 H953 0.979 . S
C928 H954 0.977 . S
C929 C925 1.684 . S
C929 H955 0.979 . S
C929 H956 0.980 . S
C929 H957 0.983 . S
C930 H906 0.948 . S
C930 C931 1.391 . S
C930 C935 1.391 . S
C931 C930 1.391 . S
C931 C932 1.391 . S
C932 H909 0.947 . S
C932 C931 1.391 . S
C932 C933 1.392 . S
C933 H910 0.948 . S
C933 C932 1.392 . S
C933 C934 1.419 . S
C934 C933 1.419 . S
C934 C935 1.391 . S
C934 C938 1.397 . S
C935 C930 1.391 . S
C935 C934 1.391 . S
C935 C936 1.399 . S
C936 C935 1.399 . S
C936 C937 1.396 . S
C936 C939 1.453 . S
C936 C940 1.684 . S
C937 C927 1.723 . S
C937 C936 1.396 . S
C937 C938 1.394 . S
C938 C908 1.723 . S
C938 C934 1.397 . S
C938 C937 1.394 . S
C939 H911 0.982 . S
C939 H915 0.979 . S
C939 H916 0.977 . S
C939 C936 1.453 . S
C940 H912 0.979 . S
C940 H913 0.980 . S
C940 H914 0.983 . S
C940 C936 1.684 . S
H941 C959 0.948 . S
H942 C900 0.948 . S
H943 C918 0.979 . S
H944 C918 0.980 . S
H945 C918 0.983 . S
H946 C917 0.982 . S
H947 C917 0.979 . S
H948 C917 0.977 . S
H949 C919 0.948 . S
H950 C921 0.947 . S
H951 C922 0.948 . S
H952 C928 0.982 . S
H953 C928 0.979 . S
H954 C928 0.977 . S
H955 C929 0.979 . S
H956 C929 0.980 . S
H957 C929 0.983 . S
H958 C902 0.947 . S
C959 C902 1.392 . S
C959 C903 1.419 . S
C959 H941 0.948 . S
C960 C961 1.391 . S
C960 C964 1.391 . S
C960 H1002 0.948 . S
C961 C960 1.391 . S
C961 C962 1.391 . S
C962 C961 1.391 . S
C962 H1018 0.947 . S
C962 C1019 1.392 . S
C963 C964 1.391 . S
C963 C967 1.397 . S
C963 C1019 1.419 . S
C964 C960 1.391 . S
C964 C963 1.391 . S
C964 C965 1.399 . S
C965 C964 1.399 . S
C965 C968 1.396 . S
C965 C977 1.453 . S
C965 C978 1.684 . S
H966 C990 0.948 . S
C967 C963 1.397 . S
C967 C968 1.394 . S
C967 C986 1.723 . S
C968 C965 1.396 . S
C968 C967 1.394 . S
C968 C998 1.723 . S
H969 C992 0.947 . S
H970 C993 0.948 . S
H971 C999 0.982 . S
H972 C1000 0.979 1_655 S
H973 C1000 0.980 . S
H974 C1000 0.983 . S
H975 C999 0.979 . S
H976 C999 0.977 . S
C977 C965 1.453 . S
C977 H1006 0.982 . S
C977 H1007 0.979 . S
C977 H1008 0.977 . S
C978 C965 1.684 . S
C978 H1003 0.979 . S
C978 H1004 0.980 . S
C978 H1005 0.983 . S
C979 C980 1.391 . S
C979 C984 1.391 . S
C979 H1009 0.948 . S
C980 C979 1.391 . S
C980 C981 1.391 . S
C981 C980 1.391 . S
C981 C982 1.392 . S
C981 H1010 0.947 . S
C982 C981 1.392 . S
C982 C983 1.419 . S
C982 H1011 0.948 . S
C983 C982 1.419 . S
C983 C984 1.391 . S
C983 C987 1.397 . S
C984 C979 1.391 . S
C984 C983 1.391 . S
C984 C985 1.399 . S
C985 C984 1.399 . S
C985 C986 1.396 . S
C985 C988 1.453 . S
C985 C989 1.684 . S
C986 C967 1.723 . S
C986 C985 1.396 . S
C986 C987 1.394 . S
C987 C983 1.397 . S
C987 C986 1.394 . S
C987 C997 1.723 . S
C988 C985 1.453 . S
C988 H1012 0.982 . S
C988 H1013 0.979 . S
C988 H1014 0.977 . S
C989 C985 1.684 . S
C989 H1015 0.979 1_455 S
C989 H1016 0.980 . S
C989 H1017 0.983 . S
C990 H966 0.948 . S
C990 C991 1.391 . S
C990 C995 1.391 . S
C991 C990 1.391 . S
C991 C992 1.391 . S
C992 H969 0.947 . S
C992 C991 1.391 . S
C992 C993 1.392 . S
C993 H970 0.948 . S
C993 C992 1.392 . S
C993 C994 1.419 . S
C994 C993 1.419 . S
C994 C995 1.391 . S
C994 C998 1.397 . S
C995 C990 1.391 . S
C995 C994 1.391 . S
C995 C996 1.399 . S
C996 C995 1.399 . S
C996 C997 1.396 . S
C996 C999 1.453 . S
C996 C1000 1.684 . S
C997 C987 1.723 . S
C997 C996 1.396 . S
C997 C998 1.394 . S
C998 C968 1.723 . S
C998 C994 1.397 . S
C998 C997 1.394 . S
C999 H971 0.982 . S
C999 H975 0.979 . S
C999 H976 0.977 . S
C999 C996 1.453 . S
C1000 H972 0.979 1_455 S
C1000 H973 0.980 . S
C1000 H974 0.983 . S
C1000 C996 1.684 . S
H1001 C1019 0.948 . S
H1002 C960 0.948 . S
H1003 C978 0.979 . S
H1004 C978 0.980 . S
H1005 C978 0.983 . S
H1006 C977 0.982 . S
H1007 C977 0.979 . S
H1008 C977 0.977 . S
H1009 C979 0.948 . S
H1010 C981 0.947 . S
H1011 C982 0.948 . S
H1012 C988 0.982 . S
H1013 C988 0.979 . S
H1014 C988 0.977 . S
H1015 C989 0.979 1_655 S
H1016 C989 0.980 . S
H1017 C989 0.983 . S
H1018 C962 0.947 . S
C1019 C962 1.392 . S
C1019 C963 1.419 . S
C1019 H1001 0.948 . S
C1020 C1021 1.391 . S
C1020 C1024 1.391 . S
C1020 H1062 0.948 . S
C1021 C1020 1.391 . S
C1021 C1022 1.391 . S
C1022 C1021 1.391 . S
C1022 H1078 0.947 . S
C1022 C1079 1.392 . S
C1023 C1024 1.391 . S
C1023 C1027 1.397 . S
C1023 C1079 1.419 . S
C1024 C1020 1.391 . S
C1024 C1023 1.391 . S
C1024 C1025 1.399 . S
C1025 C1024 1.399 . S
C1025 C1028 1.396 . S
C1025 C1037 1.453 . S
C1025 C1038 1.684 . S
H1026 C1050 0.948 . S
C1027 C1023 1.397 . S
C1027 C1028 1.394 . S
C1027 C1046 1.723 . S
C1028 C1025 1.396 . S
C1028 C1027 1.394 . S
C1028 C1058 1.723 . S
H1029 C1052 0.947 . S
H1030 C1053 0.948 . S
H1031 C1059 0.982 . S
H1032 C1060 0.979 . S
H1033 C1060 0.980 . S
H1034 C1060 0.983 . S
H1035 C1059 0.979 . S
H1036 C1059 0.977 . S
C1037 C1025 1.453 . S
C1037 H1066 0.982 . S
C1037 H1067 0.979 . S
C1037 H1068 0.977 . S
C1038 C1025 1.684 . S
C1038 H1063 0.979 . S
C1038 H1064 0.980 . S
C1038 H1065 0.983 . S
C1039 C1040 1.391 . S
C1039 C1044 1.391 . S
C1039 H1069 0.948 . S
C1040 C1039 1.391 . S
C1040 C1041 1.391 . S
C1041 C1040 1.391 . S
C1041 C1042 1.392 . S
C1041 H1070 0.947 . S
C1042 C1041 1.392 . S
C1042 C1043 1.419 . S
C1042 H1071 0.948 . S
C1043 C1042 1.419 . S
C1043 C1044 1.391 . S
C1043 C1047 1.397 . S
C1044 C1039 1.391 . S
C1044 C1043 1.391 . S
C1044 C1045 1.399 . S
C1045 C1044 1.399 . S
C1045 C1046 1.396 . S
C1045 C1048 1.453 . S
C1045 C1049 1.684 . S
C1046 C1027 1.723 . S
C1046 C1045 1.396 . S
C1046 C1047 1.394 . S
C1047 C1043 1.397 . S
C1047 C1046 1.394 . S
C1047 C1057 1.723 . S
C1048 C1045 1.453 . S
C1048 H1072 0.982 . S
C1048 H1073 0.979 . S
C1048 H1074 0.977 . S
C1049 C1045 1.684 . S
C1049 H1075 0.979 . S
C1049 H1076 0.980 . S
C1049 H1077 0.983 . S
C1050 H1026 0.948 . S
C1050 C1051 1.391 . S
C1050 C1055 1.391 . S
C1051 C1050 1.391 . S
C1051 C1052 1.391 . S
C1052 H1029 0.947 . S
C1052 C1051 1.391 . S
C1052 C1053 1.392 . S
C1053 H1030 0.948 . S
C1053 C1052 1.392 . S
C1053 C1054 1.419 . S
C1054 C1053 1.419 . S
C1054 C1055 1.391 . S
C1054 C1058 1.397 . S
C1055 C1050 1.391 . S
C1055 C1054 1.391 . S
C1055 C1056 1.399 . S
C1056 C1055 1.399 . S
C1056 C1057 1.396 . S
C1056 C1059 1.453 . S
C1056 C1060 1.684 . S
C1057 C1047 1.723 . S
C1057 C1056 1.396 . S
C1057 C1058 1.394 . S
C1058 C1028 1.723 . S
C1058 C1054 1.397 . S
C1058 C1057 1.394 . S
C1059 H1031 0.982 . S
C1059 H1035 0.979 . S
C1059 H1036 0.977 . S
C1059 C1056 1.453 . S
C1060 H1032 0.979 . S
C1060 H1033 0.980 . S
C1060 H1034 0.983 . S
C1060 C1056 1.684 . S
H1061 C1079 0.948 . S
H1062 C1020 0.948 . S
H1063 C1038 0.979 . S
H1064 C1038 0.980 . S
H1065 C1038 0.983 . S
H1066 C1037 0.982 . S
H1067 C1037 0.979 . S
H1068 C1037 0.977 . S
H1069 C1039 0.948 . S
H1070 C1041 0.947 . S
H1071 C1042 0.948 . S
H1072 C1048 0.982 . S
H1073 C1048 0.979 . S
H1074 C1048 0.977 . S
H1075 C1049 0.979 . S
H1076 C1049 0.980 . S
H1077 C1049 0.983 . S
H1078 C1022 0.947 . S
C1079 C1022 1.392 . S
C1079 C1023 1.419 . S
C1079 H1061 0.948 . S
Eu1080 C1089 2.828 . S
Eu1080 O1091 2.392 . S
Eu1080 O1093 2.418 . S
Eu1080 O1098 2.373 1_565 S
Eu1080 O1101 2.488 . S
Eu1080 O1102 2.454 1_565 S
Eu1080 O1103 2.349 1_565 S
Eu1081 O1090 2.373 1_545 S
Eu1081 O1094 2.488 . S
Eu1081 O1095 2.460 1_545 S
Eu1081 O1096 2.349 1_545 S
Eu1081 O1099 2.392 . S
Eu1081 O1100 2.418 . S
Eu1081 C1110 2.828 . S
C1082 O1100 1.244 1_556 S
C1082 O1103 1.265 . S
C1083 C1084 1.379 1_565 S
C1083 C1087 1.373 . S
C1083 C1089 1.505 . S
C1084 C1083 1.379 1_545 S
C1084 C1086 1.369 . S
C1084 H1112 0.930 . S
C1085 C1087 1.383 . S
C1085 C1088 1.382 1_565 S
C1085 H1113 0.930 . S
C1086 C1084 1.369 . S
C1086 C1088 1.392 . S
C1086 H1114 0.930 . S
C1087 C1083 1.373 . S
C1087 C1085 1.383 . S
C1087 H1115 0.931 . S
C1088 C1085 1.382 1_545 S
C1088 C1086 1.392 . S
C1089 Eu1080 2.828 . S
C1089 C1083 1.505 . S
C1089 O1101 1.249 . S
C1089 O1102 1.218 1_565 S
O1090 Eu1081 2.373 1_565 S
O1090 C1092 1.258 . S
O1091 Eu1080 2.392 . S
O1091 C1092 1.242 1_556 S
C1092 O1090 1.258 . S
C1092 O1091 1.242 1_554 S
O1093 Eu1080 2.418 . S
O1093 C1097 1.244 1_556 S
O1094 Eu1081 2.488 . S
O1094 C1110 1.249 . S
O1095 Eu1081 2.460 1_565 S
O1095 C1110 1.228 1_565 S
O1096 Eu1081 2.349 1_565 S
O1096 C1097 1.265 . S
C1097 O1093 1.244 1_554 S
C1097 O1096 1.265 . S
O1098 Eu1080 2.373 1_545 S
O1098 C1111 1.258 . S
O1099 Eu1081 2.392 . S
O1099 C1111 1.242 1_554 S
O1100 Eu1081 2.418 . S
O1100 C1082 1.244 1_554 S
O1101 Eu1080 2.488 . S
O1101 C1089 1.249 . S
O1102 Eu1080 2.454 1_545 S
O1102 C1089 1.218 1_545 S
O1103 Eu1080 2.349 1_545 S
O1103 C1082 1.265 . S
C1104 C1105 1.379 1_545 S
C1104 C1108 1.373 . S
C1104 C1110 1.505 . S
C1105 C1104 1.379 1_565 S
C1105 C1107 1.369 . S
C1105 H1116 0.930 . S
C1106 C1108 1.383 . S
C1106 C1109 1.382 1_545 S
C1106 H1117 0.930 . S
C1107 C1105 1.369 . S
C1107 C1109 1.392 . S
C1107 H1118 0.930 . S
C1108 C1104 1.373 . S
C1108 C1106 1.383 . S
C1108 H1119 0.931 . S
C1109 C1106 1.382 1_565 S
C1109 C1107 1.392 . S
C1110 Eu1081 2.828 . S
C1110 O1094 1.249 . S
C1110 O1095 1.228 1_545 S
C1110 C1104 1.505 . S
C1111 O1098 1.258 . S
C1111 O1099 1.242 1_556 S
H1112 C1084 0.930 . S
H1113 C1085 0.930 . S
H1114 C1086 0.930 . S
H1115 C1087 0.931 . S
H1116 C1105 0.930 . S
H1117 C1106 0.930 . S
H1118 C1107 0.930 . S
H1119 C1108 0.931 . S
Eu1120 C1129 2.828 . S
Eu1120 O1131 2.392 1_556 S
Eu1120 O1133 2.418 . S
Eu1120 O1138 2.373 1_455 S
Eu1120 O1141 2.488 . S
Eu1120 O1142 2.471 1_455 S
Eu1120 O1143 2.349 1_455 S
Eu1121 O1130 2.373 1_655 S
Eu1121 O1134 2.488 . S
Eu1121 O1135 2.471 1_655 S
Eu1121 O1136 2.349 1_655 S
Eu1121 O1139 2.392 1_554 S
Eu1121 O1140 2.418 . S
Eu1121 C1150 2.828 . S
C1122 O1140 1.244 1_556 S
C1122 O1143 1.265 . S
C1123 C1124 1.379 1_455 S
C1123 C1127 1.373 . S
C1123 C1129 1.505 . S
C1124 C1123 1.379 1_655 S
C1124 C1126 1.369 . S
C1124 H1152 0.930 . S
C1125 C1127 1.383 . S
C1125 C1128 1.382 1_455 S
C1125 H1153 0.930 . S
C1126 C1124 1.369 . S
C1126 C1128 1.392 . S
C1126 H1154 0.930 . S
C1127 C1123 1.373 . S
C1127 C1125 1.383 . S
C1127 H1155 0.931 . S
C1128 C1125 1.382 1_655 S
C1128 C1126 1.392 . S
C1129 Eu1120 2.828 . S
C1129 C1123 1.505 . S
C1129 O1141 1.249 . S
C1129 O1142 1.244 1_455 S
O1130 Eu1121 2.373 1_455 S
O1130 C1132 1.258 . S
O1131 Eu1120 2.392 1_554 S
O1131 C1132 1.242 . S
C1132 O1130 1.258 . S
C1132 O1131 1.242 . S
O1133 Eu1120 2.418 . S
O1133 C1137 1.244 1_556 S
O1134 Eu1121 2.488 . S
O1134 C1150 1.249 . S
O1135 Eu1121 2.471 1_455 S
O1135 C1150 1.244 1_455 S
O1136 Eu1121 2.349 1_455 S
O1136 C1137 1.265 . S
C1137 O1133 1.244 1_554 S
C1137 O1136 1.265 . S
O1138 Eu1120 2.373 1_655 S
O1138 C1151 1.258 . S
O1139 Eu1121 2.392 1_556 S
O1139 C1151 1.242 . S
O1140 Eu1121 2.418 . S
O1140 C1122 1.244 1_554 S
O1141 Eu1120 2.488 . S
O1141 C1129 1.249 . S
O1142 Eu1120 2.471 1_655 S
O1142 C1129 1.244 1_655 S
O1143 Eu1120 2.349 1_655 S
O1143 C1122 1.265 . S
C1144 C1145 1.379 1_655 S
C1144 C1148 1.373 . S
C1144 C1150 1.505 . S
C1145 C1144 1.379 1_455 S
C1145 C1147 1.369 . S
C1145 H1156 0.930 . S
C1146 C1148 1.383 . S
C1146 C1149 1.382 1_655 S
C1146 H1157 0.930 . S
C1147 C1145 1.369 . S
C1147 C1149 1.392 . S
C1147 H1158 0.930 . S
C1148 C1144 1.373 . S
C1148 C1146 1.383 . S
C1148 H1159 0.931 . S
C1149 C1146 1.382 1_455 S
C1149 C1147 1.392 . S
C1150 Eu1121 2.828 . S
C1150 O1134 1.249 . S
C1150 O1135 1.244 1_655 S
C1150 C1144 1.505 . S
C1151 O1138 1.258 . S
C1151 O1139 1.242 . S
H1152 C1124 0.930 . S
H1153 C1125 0.930 . S
H1154 C1126 0.930 . S
H1155 C1127 0.931 . S
H1156 C1145 0.930 . S
H1157 C1146 0.930 . S
H1158 C1147 0.930 . S
H1159 C1148 0.931 . S
Eu1160 C1169 2.828 . S
Eu1160 O1171 2.398 . S
Eu1160 O1173 2.418 . S
Eu1160 O1178 2.373 . S
Eu1160 O1181 2.488 . S
Eu1160 O1182 2.471 . S
Eu1160 O1183 2.349 . S
Eu1161 O1170 2.373 . S
Eu1161 O1174 2.488 . S
Eu1161 O1175 2.471 . S
Eu1161 O1176 2.349 . S
Eu1161 O1179 2.328 1_556 S
Eu1161 O1180 2.418 . S
Eu1161 C1190 2.828 . S
C1162 O1180 1.244 1_554 S
C1162 O1183 1.265 . S
C1163 C1164 1.379 . S
C1163 C1167 1.373 . S
C1163 C1169 1.505 . S
C1164 C1163 1.379 . S
C1164 C1166 1.369 . S
C1164 H1192 0.930 . S
C1165 C1167 1.383 . S
C1165 C1168 1.382 . S
C1165 H1193 0.930 . S
C1166 C1164 1.369 . S
C1166 C1168 1.392 . S
C1166 H1194 0.930 . S
C1167 C1163 1.373 . S
C1167 C1165 1.383 . S
C1167 H1195 0.931 . S
C1168 C1165 1.382 . S
C1168 C1166 1.392 . S
C1169 Eu1160 2.828 . S
C1169 C1163 1.505 . S
C1169 O1181 1.249 . S
C1169 O1182 1.244 . S
O1170 Eu1161 2.373 . S
O1170 C1172 1.258 . S
O1171 Eu1160 2.398 . S
O1171 C1172 1.236 1_554 S
C1172 O1170 1.258 . S
C1172 O1171 1.236 1_556 S
O1173 Eu1160 2.418 . S
O1173 C1177 1.244 1_554 S
O1174 Eu1161 2.488 . S
O1174 C1190 1.249 . S
O1175 Eu1161 2.471 . S
O1175 C1190 1.244 . S
O1176 Eu1161 2.349 . S
O1176 C1177 1.265 . S
C1177 O1173 1.244 1_556 S
C1177 O1176 1.265 . S
O1178 Eu1160 2.373 . S
O1178 C1191 1.258 . S
O1179 Eu1161 2.328 1_554 S
O1179 C1191 1.318 . S
O1180 Eu1161 2.418 . S
O1180 C1162 1.244 1_556 S
O1181 Eu1160 2.488 . S
O1181 C1169 1.249 . S
O1182 Eu1160 2.471 . S
O1182 C1169 1.244 . S
O1183 Eu1160 2.349 . S
O1183 C1162 1.265 . S
C1184 C1185 1.379 . S
C1184 C1188 1.373 . S
C1184 C1190 1.505 . S
C1185 C1184 1.379 . S
C1185 C1187 1.369 . S
C1185 H1196 0.930 . S
C1186 C1188 1.383 . S
C1186 C1189 1.382 . S
C1186 H1197 0.930 . S
C1187 C1185 1.369 . S
C1187 C1189 1.392 . S
C1187 H1198 0.930 . S
C1188 C1184 1.373 . S
C1188 C1186 1.383 . S
C1188 H1199 0.931 . S
C1189 C1186 1.382 . S
C1189 C1187 1.392 . S
C1190 Eu1161 2.828 . S
C1190 O1174 1.249 . S
C1190 O1175 1.244 . S
C1190 C1184 1.505 . S
C1191 O1178 1.258 . S
C1191 O1179 1.318 . S
H1192 C1164 0.930 . S
H1193 C1165 0.930 . S
H1194 C1166 0.930 . S
H1195 C1167 0.931 . S
H1196 C1185 0.930 . S
H1197 C1186 0.930 . S
H1198 C1187 0.930 . S
H1199 C1188 0.931 . S
Eu1200 C1209 2.828 . S
Eu1200 O1211 2.392 . S
Eu1200 O1213 2.418 . S
Eu1200 O1218 2.373 . S
Eu1200 O1221 2.488 . S
Eu1200 O1222 2.471 . S
Eu1200 O1223 2.349 . S
Eu1201 O1210 2.373 . S
Eu1201 O1214 2.488 . S
Eu1201 O1215 2.471 . S
Eu1201 O1216 2.349 . S
Eu1201 O1219 2.392 . S
Eu1201 O1220 2.418 . S
Eu1201 C1230 2.828 . S
C1202 O1220 1.244 . S
C1202 O1223 1.265 . S
C1203 C1204 1.379 . S
C1203 C1207 1.373 . S
C1203 C1209 1.505 . S
C1204 C1203 1.379 . S
C1204 C1206 1.369 . S
C1204 H1232 0.930 . S
C1205 C1207 1.383 . S
C1205 C1208 1.382 . S
C1205 H1233 0.930 . S
C1206 C1204 1.369 . S
C1206 C1208 1.392 . S
C1206 H1234 0.930 . S
C1207 C1203 1.373 . S
C1207 C1205 1.383 . S
C1207 H1235 0.931 . S
C1208 C1205 1.382 . S
C1208 C1206 1.392 . S
C1209 Eu1200 2.828 . S
C1209 C1203 1.505 . S
C1209 O1221 1.249 . S
C1209 O1222 1.244 . S
O1210 Eu1201 2.373 . S
O1210 C1212 1.258 . S
O1211 Eu1200 2.392 . S
O1211 C1212 1.242 . S
C1212 O1210 1.258 . S
C1212 O1211 1.242 . S
O1213 Eu1200 2.418 . S
O1213 C1217 1.244 . S
O1214 Eu1201 2.488 . S
O1214 C1230 1.249 . S
O1215 Eu1201 2.471 . S
O1215 C1230 1.244 . S
O1216 Eu1201 2.349 . S
O1216 C1217 1.265 . S
C1217 O1213 1.244 . S
C1217 O1216 1.265 . S
O1218 Eu1200 2.373 . S
O1218 C1231 1.258 . S
O1219 Eu1201 2.392 . S
O1219 C1231 1.242 . S
O1220 Eu1201 2.418 . S
O1220 C1202 1.244 . S
O1221 Eu1200 2.488 . S
O1221 C1209 1.249 . S
O1222 Eu1200 2.471 . S
O1222 C1209 1.244 . S
O1223 Eu1200 2.349 . S
O1223 C1202 1.265 . S
C1224 C1225 1.379 . S
C1224 C1228 1.373 . S
C1224 C1230 1.505 . S
C1225 C1224 1.379 . S
C1225 C1227 1.369 . S
C1225 H1236 0.930 . S
C1226 C1228 1.383 . S
C1226 C1229 1.382 . S
C1226 H1237 0.930 . S
C1227 C1225 1.369 . S
C1227 C1229 1.392 . S
C1227 H1238 0.930 . S
C1228 C1224 1.373 . S
C1228 C1226 1.383 . S
C1228 H1239 0.931 . S
C1229 C1226 1.382 . S
C1229 C1227 1.392 . S
C1230 Eu1201 2.828 . S
C1230 O1214 1.249 . S
C1230 O1215 1.244 . S
C1230 C1224 1.505 . S
C1231 O1218 1.258 . S
C1231 O1219 1.242 . S
H1232 C1204 0.930 . S
H1233 C1205 0.930 . S
H1234 C1206 0.930 . S
H1235 C1207 0.931 . S
H1236 C1225 0.930 . S
H1237 C1226 0.930 . S
H1238 C1227 0.930 . S
H1239 C1228 0.931 . S
Eu1240 C1249 2.828 . S
Eu1240 O1251 2.392 . S
Eu1240 O1253 2.418 . S
Eu1240 O1258 2.373 . S
Eu1240 O1261 2.488 . S
Eu1240 O1262 2.471 . S
Eu1240 O1263 2.349 . S
Eu1241 O1250 2.373 . S
Eu1241 O1254 2.488 . S
Eu1241 O1255 2.471 . S
Eu1241 O1256 2.349 . S
Eu1241 O1259 2.392 . S
Eu1241 O1260 2.418 . S
Eu1241 C1270 2.828 . S
C1242 O1260 1.244 . S
C1242 O1263 1.265 . S
C1243 C1244 1.379 . S
C1243 C1247 1.373 . S
C1243 C1249 1.505 . S
C1244 C1243 1.379 . S
C1244 C1246 1.369 . S
C1244 H1272 0.930 . S
C1245 C1247 1.383 . S
C1245 C1248 1.382 . S
C1245 H1273 0.930 . S
C1246 C1244 1.369 . S
C1246 C1248 1.392 . S
C1246 H1274 0.930 . S
C1247 C1243 1.373 . S
C1247 C1245 1.383 . S
C1247 H1275 0.931 . S
C1248 C1245 1.382 . S
C1248 C1246 1.392 . S
C1249 Eu1240 2.828 . S
C1249 C1243 1.505 . S
C1249 O1261 1.249 . S
C1249 O1262 1.244 . S
O1250 Eu1241 2.373 . S
O1250 C1252 1.258 . S
O1251 Eu1240 2.392 . S
O1251 C1252 1.242 . S
C1252 O1250 1.258 . S
C1252 O1251 1.242 . S
O1253 Eu1240 2.418 . S
O1253 C1257 1.244 . S
O1254 Eu1241 2.488 . S
O1254 C1270 1.249 . S
O1255 Eu1241 2.471 . S
O1255 C1270 1.244 . S
O1256 Eu1241 2.349 . S
O1256 C1257 1.265 . S
C1257 O1253 1.244 . S
C1257 O1256 1.265 . S
O1258 Eu1240 2.373 . S
O1258 C1271 1.258 . S
O1259 Eu1241 2.392 . S
O1259 C1271 1.242 . S
O1260 Eu1241 2.418 . S
O1260 C1242 1.244 . S
O1261 Eu1240 2.488 . S
O1261 C1249 1.249 . S
O1262 Eu1240 2.471 . S
O1262 C1249 1.244 . S
O1263 Eu1240 2.349 . S
O1263 C1242 1.265 . S
C1264 C1265 1.379 . S
C1264 C1268 1.373 . S
C1264 C1270 1.505 . S
C1265 C1264 1.379 . S
C1265 C1267 1.369 . S
C1265 H1276 0.930 . S
C1266 C1268 1.383 . S
C1266 C1269 1.382 . S
C1266 H1277 0.930 . S
C1267 C1265 1.369 . S
C1267 C1269 1.392 . S
C1267 H1278 0.930 . S
C1268 C1264 1.373 . S
C1268 C1266 1.383 . S
C1268 H1279 0.931 . S
C1269 C1266 1.382 . S
C1269 C1267 1.392 . S
C1270 Eu1241 2.828 . S
C1270 O1254 1.249 . S
C1270 O1255 1.244 . S
C1270 C1264 1.505 . S
C1271 O1258 1.258 . S
C1271 O1259 1.242 . S
H1272 C1244 0.930 . S
H1273 C1245 0.930 . S
H1274 C1246 0.930 . S
H1275 C1247 0.931 . S
H1276 C1265 0.930 . S
H1277 C1266 0.930 . S
H1278 C1267 0.930 . S
H1279 C1268 0.931 . S
Eu1280 C1289 2.828 . S
Eu1280 O1291 2.392 . S
Eu1280 O1293 2.418 . S
Eu1280 O1298 2.373 . S
Eu1280 O1301 2.488 . S
Eu1280 O1302 2.471 . S
Eu1280 O1303 2.349 . S
Eu1281 O1290 2.373 . S
Eu1281 O1294 2.488 . S
Eu1281 O1295 2.471 . S
Eu1281 O1296 2.349 . S
Eu1281 O1299 2.392 . S
Eu1281 O1300 2.418 . S
Eu1281 C1310 2.828 . S
C1282 O1300 1.244 . S
C1282 O1303 1.265 . S
C1283 C1284 1.379 . S
C1283 C1287 1.373 . S
C1283 C1289 1.505 . S
C1284 C1283 1.379 . S
C1284 C1286 1.369 . S
C1284 H1312 0.930 . S
C1285 C1287 1.383 . S
C1285 C1288 1.382 . S
C1285 H1313 0.930 . S
C1286 C1284 1.369 . S
C1286 C1288 1.392 . S
C1286 H1314 0.930 . S
C1287 C1283 1.373 . S
C1287 C1285 1.383 . S
C1287 H1315 0.931 . S
C1288 C1285 1.382 . S
C1288 C1286 1.392 . S
C1289 Eu1280 2.828 . S
C1289 C1283 1.505 . S
C1289 O1301 1.249 . S
C1289 O1302 1.244 . S
O1290 Eu1281 2.373 . S
O1290 C1292 1.258 . S
O1291 Eu1280 2.392 . S
O1291 C1292 1.242 . S
C1292 O1290 1.258 . S
C1292 O1291 1.242 . S
O1293 Eu1280 2.418 . S
O1293 C1297 1.244 . S
O1294 Eu1281 2.488 . S
O1294 C1310 1.249 . S
O1295 Eu1281 2.471 . S
O1295 C1310 1.244 . S
O1296 Eu1281 2.349 . S
O1296 C1297 1.265 . S
C1297 O1293 1.244 . S
C1297 O1296 1.265 . S
O1298 Eu1280 2.373 . S
O1298 C1311 1.258 . S
O1299 Eu1281 2.392 . S
O1299 C1311 1.242 . S
O1300 Eu1281 2.418 . S
O1300 C1282 1.244 . S
O1301 Eu1280 2.488 . S
O1301 C1289 1.249 . S
O1302 Eu1280 2.471 . S
O1302 C1289 1.244 . S
O1303 Eu1280 2.349 . S
O1303 C1282 1.265 . S
C1304 C1305 1.379 . S
C1304 C1308 1.373 . S
C1304 C1310 1.505 . S
C1305 C1304 1.379 . S
C1305 C1307 1.369 . S
C1305 H1316 0.930 . S
C1306 C1308 1.383 . S
C1306 C1309 1.382 . S
C1306 H1317 0.930 . S
C1307 C1305 1.369 . S
C1307 C1309 1.392 . S
C1307 H1318 0.930 . S
C1308 C1304 1.373 . S
C1308 C1306 1.383 . S
C1308 H1319 0.931 . S
C1309 C1306 1.382 . S
C1309 C1307 1.392 . S
C1310 Eu1281 2.828 . S
C1310 O1294 1.249 . S
C1310 O1295 1.244 . S
C1310 C1304 1.505 . S
C1311 O1298 1.258 . S
C1311 O1299 1.242 . S
H1312 C1284 0.930 . S
H1313 C1285 0.930 . S
H1314 C1286 0.930 . S
H1315 C1287 0.931 . S
H1316 C1305 0.930 . S
H1317 C1306 0.930 . S
H1318 C1307 0.930 . S
H1319 C1308 0.931 . S
Eu1320 C1329 2.828 . S
Eu1320 O1331 2.392 . S
Eu1320 O1333 2.418 . S
Eu1320 O1338 2.373 . S
Eu1320 O1341 2.488 . S
Eu1320 O1342 2.471 . S
Eu1320 O1343 2.349 . S
Eu1321 O1330 2.373 . S
Eu1321 O1334 2.488 . S
Eu1321 O1335 2.471 . S
Eu1321 O1336 2.349 . S
Eu1321 O1339 2.392 . S
Eu1321 O1340 2.418 . S
Eu1321 C1350 2.828 . S
C1322 O1340 1.244 . S
C1322 O1343 1.265 . S
C1323 C1324 1.379 . S
C1323 C1327 1.373 . S
C1323 C1329 1.505 . S
C1324 C1323 1.379 . S
C1324 C1326 1.369 . S
C1324 H1352 0.930 . S
C1325 C1327 1.383 . S
C1325 C1328 1.382 . S
C1325 H1353 0.930 . S
C1326 C1324 1.369 . S
C1326 C1328 1.392 . S
C1326 H1354 0.930 . S
C1327 C1323 1.373 . S
C1327 C1325 1.383 . S
C1327 H1355 0.931 . S
C1328 C1325 1.382 . S
C1328 C1326 1.392 . S
C1329 Eu1320 2.828 . S
C1329 C1323 1.505 . S
C1329 O1341 1.249 . S
C1329 O1342 1.244 . S
O1330 Eu1321 2.373 . S
O1330 C1332 1.258 . S
O1331 Eu1320 2.392 . S
O1331 C1332 1.242 . S
C1332 O1330 1.258 . S
C1332 O1331 1.242 . S
O1333 Eu1320 2.418 . S
O1333 C1337 1.244 . S
O1334 Eu1321 2.488 . S
O1334 C1350 1.249 . S
O1335 Eu1321 2.471 . S
O1335 C1350 1.244 . S
O1336 Eu1321 2.349 . S
O1336 C1337 1.265 . S
C1337 O1333 1.244 . S
C1337 O1336 1.265 . S
O1338 Eu1320 2.373 . S
O1338 C1351 1.258 . S
O1339 Eu1321 2.392 . S
O1339 C1351 1.242 . S
O1340 Eu1321 2.418 . S
O1340 C1322 1.244 . S
O1341 Eu1320 2.488 . S
O1341 C1329 1.249 . S
O1342 Eu1320 2.471 . S
O1342 C1329 1.244 . S
O1343 Eu1320 2.349 . S
O1343 C1322 1.265 . S
C1344 C1345 1.379 . S
C1344 C1348 1.373 . S
C1344 C1350 1.505 . S
C1345 C1344 1.379 . S
C1345 C1347 1.369 . S
C1345 H1356 0.930 . S
C1346 C1348 1.383 . S
C1346 C1349 1.382 . S
C1346 H1357 0.930 . S
C1347 C1345 1.369 . S
C1347 C1349 1.392 . S
C1347 H1358 0.930 . S
C1348 C1344 1.373 . S
C1348 C1346 1.383 . S
C1348 H1359 0.931 . S
C1349 C1346 1.382 . S
C1349 C1347 1.392 . S
C1350 Eu1321 2.828 . S
C1350 O1334 1.249 . S
C1350 O1335 1.244 . S
C1350 C1344 1.505 . S
C1351 O1338 1.258 . S
C1351 O1339 1.242 . S
H1352 C1324 0.930 . S
H1353 C1325 0.930 . S
H1354 C1326 0.930 . S
H1355 C1327 0.931 . S
H1356 C1345 0.930 . S
H1357 C1346 0.930 . S
H1358 C1347 0.930 . S
H1359 C1348 0.931 . S
Eu1360 C1369 2.828 . S
Eu1360 O1371 2.392 . S
Eu1360 O1373 2.418 . S
Eu1360 O1378 2.373 . S
Eu1360 O1381 2.488 . S
Eu1360 O1382 2.471 . S
Eu1360 O1383 2.349 . S
Eu1361 O1370 2.373 . S
Eu1361 O1374 2.488 . S
Eu1361 O1375 2.471 . S
Eu1361 O1376 2.349 . S
Eu1361 O1379 2.392 . S
Eu1361 O1380 2.418 . S
Eu1361 C1390 2.828 . S
C1362 O1380 1.244 . S
C1362 O1383 1.265 . S
C1363 C1364 1.379 . S
C1363 C1367 1.373 . S
C1363 C1369 1.505 . S
C1364 C1363 1.379 . S
C1364 C1366 1.369 . S
C1364 H1392 0.930 . S
C1365 C1367 1.383 . S
C1365 C1368 1.382 . S
C1365 H1393 0.930 . S
C1366 C1364 1.369 . S
C1366 C1368 1.392 . S
C1366 H1394 0.930 . S
C1367 C1363 1.373 . S
C1367 C1365 1.383 . S
C1367 H1395 0.931 . S
C1368 C1365 1.382 . S
C1368 C1366 1.392 . S
C1369 Eu1360 2.828 . S
C1369 C1363 1.505 . S
C1369 O1381 1.249 . S
C1369 O1382 1.244 . S
O1370 Eu1361 2.373 . S
O1370 C1372 1.258 . S
O1371 Eu1360 2.392 . S
O1371 C1372 1.242 . S
C1372 O1370 1.258 . S
C1372 O1371 1.242 . S
O1373 Eu1360 2.418 . S
O1373 C1377 1.244 . S
O1374 Eu1361 2.488 . S
O1374 C1390 1.249 . S
O1375 Eu1361 2.471 . S
O1375 C1390 1.244 . S
O1376 Eu1361 2.349 . S
O1376 C1377 1.265 . S
C1377 O1373 1.244 . S
C1377 O1376 1.265 . S
O1378 Eu1360 2.373 . S
O1378 C1391 1.258 . S
O1379 Eu1361 2.392 . S
O1379 C1391 1.242 . S
O1380 Eu1361 2.418 . S
O1380 C1362 1.244 . S
O1381 Eu1360 2.488 . S
O1381 C1369 1.249 . S
O1382 Eu1360 2.471 . S
O1382 C1369 1.244 . S
O1383 Eu1360 2.349 . S
O1383 C1362 1.265 . S
C1384 C1385 1.379 . S
C1384 C1388 1.373 . S
C1384 C1390 1.505 . S
C1385 C1384 1.379 . S
C1385 C1387 1.369 . S
C1385 H1396 0.930 . S
C1386 C1388 1.383 . S
C1386 C1389 1.382 . S
C1386 H1397 0.930 . S
C1387 C1385 1.369 . S
C1387 C1389 1.392 . S
C1387 H1398 0.930 . S
C1388 C1384 1.373 . S
C1388 C1386 1.383 . S
C1388 H1399 0.931 . S
C1389 C1386 1.382 . S
C1389 C1387 1.392 . S
C1390 Eu1361 2.828 . S
C1390 O1374 1.249 . S
C1390 O1375 1.244 . S
C1390 C1384 1.505 . S
C1391 O1378 1.258 . S
C1391 O1379 1.242 . S
H1392 C1364 0.930 . S
H1393 C1365 0.930 . S
H1394 C1366 0.930 . S
H1395 C1367 0.931 . S
H1396 C1385 0.930 . S
H1397 C1386 0.930 . S
H1398 C1387 0.930 . S
H1399 C1388 0.931 . S
Eu1400 C1409 2.828 . S
Eu1400 O1411 2.392 . S
Eu1400 O1413 2.418 . S
Eu1400 O1418 2.373 . S
Eu1400 O1421 2.488 . S
Eu1400 O1422 2.471 . S
Eu1400 O1423 2.349 . S
Eu1401 O1410 2.373 . S
Eu1401 O1414 2.488 . S
Eu1401 O1415 2.471 . S
Eu1401 O1416 2.349 . S
Eu1401 O1419 2.392 . S
Eu1401 O1420 2.418 . S
Eu1401 C1430 2.828 . S
C1402 O1420 1.244 . S
C1402 O1423 1.265 . S
C1403 C1404 1.379 . S
C1403 C1407 1.373 . S
C1403 C1409 1.505 . S
C1404 C1403 1.379 . S
C1404 C1406 1.369 . S
C1404 H1432 0.930 . S
C1405 C1407 1.383 . S
C1405 C1408 1.382 . S
C1405 H1433 0.930 . S
C1406 C1404 1.369 . S
C1406 C1408 1.392 . S
C1406 H1434 0.930 . S
C1407 C1403 1.373 . S
C1407 C1405 1.383 . S
C1407 H1435 0.931 . S
C1408 C1405 1.382 . S
C1408 C1406 1.392 . S
C1409 Eu1400 2.828 . S
C1409 C1403 1.505 . S
C1409 O1421 1.249 . S
C1409 O1422 1.244 . S
O1410 Eu1401 2.373 . S
O1410 C1412 1.258 . S
O1411 Eu1400 2.392 . S
O1411 C1412 1.242 . S
C1412 O1410 1.258 . S
C1412 O1411 1.242 . S
O1413 Eu1400 2.418 . S
O1413 C1417 1.244 . S
O1414 Eu1401 2.488 . S
O1414 C1430 1.249 . S
O1415 Eu1401 2.471 . S
O1415 C1430 1.244 . S
O1416 Eu1401 2.349 . S
O1416 C1417 1.265 . S
C1417 O1413 1.244 . S
C1417 O1416 1.265 . S
O1418 Eu1400 2.373 . S
O1418 C1431 1.258 . S
O1419 Eu1401 2.392 . S
O1419 C1431 1.242 . S
O1420 Eu1401 2.418 . S
O1420 C1402 1.244 . S
O1421 Eu1400 2.488 . S
O1421 C1409 1.249 . S
O1422 Eu1400 2.471 . S
O1422 C1409 1.244 . S
O1423 Eu1400 2.349 . S
O1423 C1402 1.265 . S
C1424 C1425 1.379 . S
C1424 C1428 1.373 . S
C1424 C1430 1.505 . S
C1425 C1424 1.379 . S
C1425 C1427 1.369 . S
C1425 H1436 0.930 . S
C1426 C1428 1.383 . S
C1426 C1429 1.382 . S
C1426 H1437 0.930 . S
C1427 C1425 1.369 . S
C1427 C1429 1.392 . S
C1427 H1438 0.930 . S
C1428 C1424 1.373 . S
C1428 C1426 1.383 . S
C1428 H1439 0.931 . S
C1429 C1426 1.382 . S
C1429 C1427 1.392 . S
C1430 Eu1401 2.828 . S
C1430 O1414 1.249 . S
C1430 O1415 1.244 . S
C1430 C1424 1.505 . S
C1431 O1418 1.258 . S
C1431 O1419 1.242 . S
H1432 C1404 0.930 . S
H1433 C1405 0.930 . S
H1434 C1406 0.930 . S
H1435 C1407 0.931 . S
H1436 C1425 0.930 . S
H1437 C1426 0.930 . S
H1438 C1427 0.930 . S
H1439 C1428 0.931 . S
H1440 C1448 0.950 . S
H1441 C1453 0.950 . S
H1442 C1450 0.950 . S
H1443 C1452 0.950 . S
H1444 C1454 0.950 1_556 S
H1445 C1456 0.950 . S
H1446 C1458 0.950 . S
H1447 C1459 0.950 . S
C1448 H1440 0.950 . S
C1448 C1449 1.386 . S
C1448 C1450 1.391 . S
C1449 C1448 1.386 . S
C1449 C1453 1.393 . S
C1450 H1442 0.950 . S
C1450 C1448 1.391 . S
C1450 C1451 1.400 . S
C1451 C1450 1.400 . S
C1451 C1452 1.398 . S
C1451 C1457 1.491 . S
C1452 H1443 0.950 . S
C1452 C1451 1.398 . S
C1452 C1453 1.391 . S
C1453 H1441 0.950 . S
C1453 C1449 1.393 . S
C1453 C1452 1.391 . S
C1454 H1444 0.950 1_554 S
C1454 C1455 1.386 . S
C1454 C1456 1.391 . S
C1455 C1454 1.386 . S
C1455 C1459 1.393 . S
C1456 H1445 0.950 . S
C1456 C1454 1.391 . S
C1456 C1457 1.400 . S
C1457 C1451 1.491 . S
C1457 C1456 1.400 . S
C1457 C1458 1.398 . S
C1458 H1446 0.950 . S
C1458 C1457 1.398 . S
C1458 C1459 1.391 . S
C1459 H1447 0.950 . S
C1459 C1455 1.393 . S
C1459 C1458 1.391 . S
H1460 C1468 0.950 . S
H1461 C1473 0.950 . S
H1462 C1470 0.950 . S
H1463 C1472 0.950 . S
H1464 C1474 0.950 . S
H1465 C1476 0.950 . S
H1466 C1478 0.950 . S
H1467 C1479 0.950 . S
C1468 H1460 0.950 . S
C1468 C1469 1.386 . S
C1468 C1470 1.391 . S
C1469 C1468 1.386 . S
C1469 C1473 1.393 . S
C1470 H1462 0.950 . S
C1470 C1468 1.391 . S
C1470 C1471 1.400 . S
C1471 C1470 1.400 . S
C1471 C1472 1.398 . S
C1471 C1477 1.491 . S
C1472 H1463 0.950 . S
C1472 C1471 1.398 . S
C1472 C1473 1.391 . S
C1473 H1461 0.950 . S
C1473 C1469 1.393 . S
C1473 C1472 1.391 . S
C1474 H1464 0.950 . S
C1474 C1475 1.386 . S
C1474 C1476 1.391 . S
C1475 C1474 1.386 . S
C1475 C1479 1.393 . S
C1476 H1465 0.950 . S
C1476 C1474 1.391 . S
C1476 C1477 1.400 . S
C1477 C1471 1.491 . S
C1477 C1476 1.400 . S
C1477 C1478 1.398 . S
C1478 H1466 0.950 . S
C1478 C1477 1.398 . S
C1478 C1479 1.391 . S
C1479 H1467 0.950 . S
C1479 C1475 1.393 . S
C1479 C1478 1.391 . S
H1480 C1488 0.950 . S
H1481 C1493 0.950 . S
H1482 C1490 0.950 . S
H1483 C1492 0.950 . S
H1484 C1494 0.950 . S
H1485 C1496 0.950 . S
H1486 C1498 0.950 . S
H1487 C1499 0.950 . S
C1488 H1480 0.950 . S
C1488 C1489 1.386 . S
C1488 C1490 1.391 . S
C1489 C1488 1.386 . S
C1489 C1493 1.393 . S
C1490 H1482 0.950 . S
C1490 C1488 1.391 . S
C1490 C1491 1.400 . S
C1491 C1490 1.400 . S
C1491 C1492 1.398 . S
C1491 C1497 1.491 . S
C1492 H1483 0.950 . S
C1492 C1491 1.398 . S
C1492 C1493 1.391 . S
C1493 H1481 0.950 . S
C1493 C1489 1.393 . S
C1493 C1492 1.391 . S
C1494 H1484 0.950 . S
C1494 C1495 1.386 . S
C1494 C1496 1.391 . S
C1495 C1494 1.386 . S
C1495 C1499 1.393 . S
C1496 H1485 0.950 . S
C1496 C1494 1.391 . S
C1496 C1497 1.400 . S
C1497 C1491 1.491 . S
C1497 C1496 1.400 . S
C1497 C1498 1.398 . S
C1498 H1486 0.950 . S
C1498 C1497 1.398 . S
C1498 C1499 1.391 . S
C1499 H1487 0.950 . S
C1499 C1495 1.393 . S
C1499 C1498 1.391 . S
H1500 C1508 0.950 . S
H1501 C1513 0.950 . S
H1502 C1510 0.950 . S
H1503 C1512 0.950 . S
H1504 C1514 0.950 . S
H1505 C1516 0.950 . S
H1506 C1518 0.950 . S
H1507 C1519 0.950 . S
C1508 H1500 0.950 . S
C1508 C1509 1.386 . S
C1508 C1510 1.391 . S
C1509 C1508 1.386 . S
C1509 C1513 1.393 . S
C1510 H1502 0.950 . S
C1510 C1508 1.391 . S
C1510 C1511 1.400 . S
C1511 C1510 1.400 . S
C1511 C1512 1.398 . S
C1511 C1517 1.491 . S
C1512 H1503 0.950 . S
C1512 C1511 1.398 . S
C1512 C1513 1.391 . S
C1513 H1501 0.950 . S
C1513 C1509 1.393 . S
C1513 C1512 1.391 . S
C1514 H1504 0.950 . S
C1514 C1515 1.386 . S
C1514 C1516 1.391 . S
C1515 C1514 1.386 . S
C1515 C1519 1.393 . S
C1516 H1505 0.950 . S
C1516 C1514 1.391 . S
C1516 C1517 1.400 . S
C1517 C1511 1.491 . S
C1517 C1516 1.400 . S
C1517 C1518 1.398 . S
C1518 H1506 0.950 . S
C1518 C1517 1.398 . S
C1518 C1519 1.391 . S
C1519 H1507 0.950 . S
C1519 C1515 1.393 . S
C1519 C1518 1.391 . S
H1520 C1528 0.950 . S
H1521 C1533 0.950 . S
H1522 C1530 0.950 . S
H1523 C1532 0.950 . S
H1524 C1534 0.950 . S
H1525 C1536 0.950 . S
H1526 C1538 0.950 . S
H1527 C1539 0.950 . S
C1528 H1520 0.950 . S
C1528 C1529 1.386 . S
C1528 C1530 1.391 . S
C1529 C1528 1.386 . S
C1529 C1533 1.393 . S
C1530 H1522 0.950 . S
C1530 C1528 1.391 . S
C1530 C1531 1.400 . S
C1531 C1530 1.400 . S
C1531 C1532 1.398 . S
C1531 C1537 1.491 . S
C1532 H1523 0.950 . S
C1532 C1531 1.398 . S
C1532 C1533 1.391 . S
C1533 H1521 0.950 . S
C1533 C1529 1.393 . S
C1533 C1532 1.391 . S
C1534 H1524 0.950 . S
C1534 C1535 1.386 . S
C1534 C1536 1.391 . S
C1535 C1534 1.386 . S
C1535 C1539 1.393 . S
C1536 H1525 0.950 . S
C1536 C1534 1.391 . S
C1536 C1537 1.400 . S
C1537 C1531 1.491 . S
C1537 C1536 1.400 . S
C1537 C1538 1.398 . S
C1538 H1526 0.950 . S
C1538 C1537 1.398 . S
C1538 C1539 1.391 . S
C1539 H1527 0.950 . S
C1539 C1535 1.393 . S
C1539 C1538 1.391 . S
H1540 C1548 0.950 . S
H1541 C1553 0.950 . S
H1542 C1550 0.950 . S
H1543 C1552 0.950 . S
H1544 C1554 0.950 . S
H1545 C1556 0.950 . S
H1546 C1558 0.936 1_554 S
H1547 C1559 0.891 1_554 S
C1548 H1540 0.950 . S
C1548 C1549 1.386 . S
C1548 C1550 1.391 . S
C1549 C1548 1.386 . S
C1549 C1553 1.393 . S
C1550 H1542 0.950 . S
C1550 C1548 1.391 . S
C1550 C1551 1.400 . S
C1551 C1550 1.400 . S
C1551 C1552 1.398 . S
C1551 C1557 1.491 . S
C1552 H1543 0.950 . S
C1552 C1551 1.398 . S
C1552 C1553 1.391 . S
C1553 H1541 0.950 . S
C1553 C1549 1.393 . S
C1553 C1552 1.391 . S
C1554 H1544 0.950 . S
C1554 C1555 1.386 . S
C1554 C1556 1.391 . S
C1555 C1554 1.386 . S
C1555 C1559 1.434 . S
C1556 H1545 0.950 . S
C1556 C1554 1.391 . S
C1556 C1557 1.400 . S
C1557 C1551 1.491 . S
C1557 C1556 1.400 . S
C1557 C1558 1.398 . S
C1558 H1546 0.936 1_556 S
C1558 C1557 1.398 . S
C1558 C1559 1.414 . S
C1559 H1547 0.891 1_556 S
C1559 C1555 1.434 . S
C1559 C1558 1.414 . S
H1560 C1568 0.950 . S
H1561 C1573 0.950 . S
H1562 C1570 0.950 . S
H1563 C1572 0.950 . S
H1564 C1574 0.950 . S
H1565 C1576 0.950 . S
H1566 C1578 0.950 . S
H1567 C1579 0.950 . S
C1568 H1560 0.950 . S
C1568 C1569 1.386 . S
C1568 C1570 1.391 . S
C1569 C1568 1.386 . S
C1569 C1573 1.393 . S
C1570 H1562 0.950 . S
C1570 C1568 1.391 . S
C1570 C1571 1.400 . S
C1571 C1570 1.400 . S
C1571 C1572 1.398 . S
C1571 C1577 1.491 . S
C1572 H1563 0.950 . S
C1572 C1571 1.398 . S
C1572 C1573 1.391 . S
C1573 H1561 0.950 . S
C1573 C1569 1.393 . S
C1573 C1572 1.391 . S
C1574 H1564 0.950 . S
C1574 C1575 1.386 . S
C1574 C1576 1.391 . S
C1575 C1574 1.386 . S
C1575 C1579 1.393 . S
C1576 H1565 0.950 . S
C1576 C1574 1.391 . S
C1576 C1577 1.400 . S
C1577 C1571 1.491 . S
C1577 C1576 1.400 . S
C1577 C1578 1.398 . S
C1578 H1566 0.950 . S
C1578 C1577 1.398 . S
C1578 C1579 1.391 . S
C1579 H1567 0.950 . S
C1579 C1575 1.393 . S
C1579 C1578 1.391 . S
H1580 C1588 0.950 . S
H1581 C1593 0.950 . S
H1582 C1590 0.950 . S
H1583 C1592 0.950 . S
H1584 C1594 0.950 . S
H1585 C1596 0.950 . S
H1586 C1598 0.950 . S
H1587 C1599 0.950 . S
C1588 H1580 0.950 . S
C1588 C1589 1.386 . S
C1588 C1590 1.391 . S
C1589 C1588 1.386 . S
C1589 C1593 1.393 . S
C1590 H1582 0.950 . S
C1590 C1588 1.391 . S
C1590 C1591 1.400 . S
C1591 C1590 1.400 . S
C1591 C1592 1.398 . S
C1591 C1597 1.491 . S
C1592 H1583 0.950 . S
C1592 C1591 1.398 . S
C1592 C1593 1.391 . S
C1593 H1581 0.950 . S
C1593 C1589 1.393 . S
C1593 C1592 1.391 . S
C1594 H1584 0.950 . S
C1594 C1595 1.386 . S
C1594 C1596 1.391 . S
C1595 C1594 1.386 . S
C1595 C1599 1.393 . S
C1596 H1585 0.950 . S
C1596 C1594 1.391 . S
C1596 C1597 1.400 . S
C1597 C1591 1.491 . S
C1597 C1596 1.400 . S
C1597 C1598 1.398 . S
C1598 H1586 0.950 . S
C1598 C1597 1.398 . S
C1598 C1599 1.391 . S
C1599 H1587 0.950 . S
C1599 C1595 1.393 . S
C1599 C1598 1.391 . S
H1600 C1608 0.950 . S
H1601 C1613 0.950 . S
H1602 C1610 0.950 . S
H1603 C1612 0.950 1_554 S
H1604 C1614 0.970 . S
H1605 C1616 0.950 1_554 S
H1606 C1618 0.950 . S
H1607 C1619 0.950 . S
C1608 H1600 0.950 . S
C1608 C1609 1.386 . S
C1608 C1610 1.391 . S
C1609 C1608 1.386 . S
C1609 C1613 1.393 . S
C1610 H1602 0.950 . S
C1610 C1608 1.391 . S
C1610 C1611 1.400 . S
C1611 C1610 1.400 . S
C1611 C1612 1.398 . S
C1611 C1617 1.491 . S
C1612 H1603 0.950 1_556 S
C1612 C1611 1.398 . S
C1612 C1613 1.391 . S
C1613 H1601 0.950 . S
C1613 C1609 1.393 . S
C1613 C1612 1.391 . S
C1614 H1604 0.970 . S
C1614 C1615 1.368 1_554 S
C1614 C1616 1.390 1_554 S
C1615 C1614 1.368 1_556 S
C1615 C1619 1.393 . S
C1616 H1605 0.950 1_556 S
C1616 C1614 1.390 1_556 S
C1616 C1617 1.400 . S
C1617 C1611 1.491 . S
C1617 C1616 1.400 . S
C1617 C1618 1.398 . S
C1618 H1606 0.950 . S
C1618 C1617 1.398 . S
C1618 C1619 1.391 . S
C1619 H1607 0.950 . S
C1619 C1615 1.393 . S
C1619 C1618 1.391 . S
H1620 C1628 0.950 . S
H1621 C1633 0.950 . S
H1622 C1630 0.950 . S
H1623 C1632 0.950 . S
H1624 C1634 0.950 . S
H1625 C1636 0.950 . S
H1626 C1638 0.950 . S
H1627 C1639 0.950 . S
C1628 H1620 0.950 . S
C1628 C1629 1.386 . S
C1628 C1630 1.391 . S
C1629 C1628 1.386 . S
C1629 C1633 1.393 . S
C1630 H1622 0.950 . S
C1630 C1628 1.391 . S
C1630 C1631 1.400 . S
C1631 C1630 1.400 . S
C1631 C1632 1.398 . S
C1631 C1637 1.491 . S
C1632 H1623 0.950 . S
C1632 C1631 1.398 . S
C1632 C1633 1.391 . S
C1633 H1621 0.950 . S
C1633 C1629 1.393 . S
C1633 C1632 1.391 . S
C1634 H1624 0.950 . S
C1634 C1635 1.386 . S
C1634 C1636 1.391 . S
C1635 C1634 1.386 . S
C1635 C1639 1.393 . S
C1636 H1625 0.950 . S
C1636 C1634 1.391 . S
C1636 C1637 1.400 . S
C1637 C1631 1.491 . S
C1637 C1636 1.400 . S
C1637 C1638 1.398 . S
C1638 H1626 0.950 . S
C1638 C1637 1.398 . S
C1638 C1639 1.391 . S
C1639 H1627 0.950 . S
C1639 C1635 1.393 . S
C1639 C1638 1.391 . S
H1640 C1648 0.950 . S
H1641 C1653 0.950 . S
H1642 C1650 0.950 . S
H1643 C1652 0.950 . S
H1644 C1654 0.950 . S
H1645 C1656 0.950 . S
H1646 C1658 0.950 . S
H1647 C1659 0.950 . S
C1648 H1640 0.950 . S
C1648 C1649 1.386 . S
C1648 C1650 1.391 . S
C1649 C1648 1.386 . S
C1649 C1653 1.393 . S
C1650 H1642 0.950 . S
C1650 C1648 1.391 . S
C1650 C1651 1.400 . S
C1651 C1650 1.400 . S
C1651 C1652 1.398 . S
C1651 C1657 1.491 . S
C1652 H1643 0.950 . S
C1652 C1651 1.398 . S
C1652 C1653 1.391 . S
C1653 H1641 0.950 . S
C1653 C1649 1.393 . S
C1653 C1652 1.391 . S
C1654 H1644 0.950 . S
C1654 C1655 1.386 . S
C1654 C1656 1.391 . S
C1655 C1654 1.386 . S
C1655 C1659 1.393 . S
C1656 H1645 0.950 . S
C1656 C1654 1.391 . S
C1656 C1657 1.400 . S
C1657 C1651 1.491 . S
C1657 C1656 1.400 . S
C1657 C1658 1.398 . S
C1658 H1646 0.950 . S
C1658 C1657 1.398 . S
C1658 C1659 1.391 . S
C1659 H1647 0.950 . S
C1659 C1655 1.393 . S
C1659 C1658 1.391 . S
H1660 C1668 0.950 . S
H1661 C1673 0.950 . S
H1662 C1670 0.950 . S
H1663 C1672 0.950 . S
H1664 C1674 0.950 . S
H1665 C1676 0.950 . S
H1666 C1678 0.950 1_556 S
H1667 C1679 0.955 1_556 S
C1668 H1660 0.950 . S
C1668 C1669 1.386 . S
C1668 C1670 1.391 . S
C1669 C1668 1.386 . S
C1669 C1673 1.393 . S
C1670 H1662 0.950 . S
C1670 C1668 1.391 . S
C1670 C1671 1.400 . S
C1671 C1670 1.400 . S
C1671 C1672 1.398 . S
C1671 C1677 1.491 . S
C1672 H1663 0.950 . S
C1672 C1671 1.398 . S
C1672 C1673 1.391 . S
C1673 H1661 0.950 . S
C1673 C1669 1.393 . S
C1673 C1672 1.391 . S
C1674 H1664 0.950 . S
C1674 C1675 1.386 . S
C1674 C1676 1.391 . S
C1675 C1674 1.386 . S
C1675 C1679 1.389 . S
C1676 H1665 0.950 . S
C1676 C1674 1.391 . S
C1676 C1677 1.400 . S
C1677 C1671 1.491 . S
C1677 C1676 1.400 . S
C1677 C1678 1.398 . S
C1678 H1666 0.950 1_554 S
C1678 C1677 1.398 . S
C1678 C1679 1.389 . S
C1679 H1667 0.955 1_554 S
C1679 C1675 1.389 . S
C1679 C1678 1.389 . S
H1680 C1688 0.950 . S
H1681 C1693 0.950 . S
H1682 C1690 0.950 . S
H1683 C1692 0.950 . S
H1684 C1694 0.950 . S
H1685 C1696 0.950 . S
H1686 C1698 0.950 . S
H1687 C1699 0.950 . S
C1688 H1680 0.950 . S
C1688 C1689 1.386 . S
C1688 C1690 1.391 1_655 S
C1689 C1688 1.386 . S
C1689 C1693 1.393 . S
C1690 H1682 0.950 . S
C1690 C1688 1.391 1_455 S
C1690 C1691 1.400 . S
C1691 C1690 1.400 . S
C1691 C1692 1.398 . S
C1691 C1697 1.491 . S
C1692 H1683 0.950 . S
C1692 C1691 1.398 . S
C1692 C1693 1.391 1_455 S
C1693 H1681 0.950 . S
C1693 C1689 1.393 . S
C1693 C1692 1.391 1_655 S
C1694 H1684 0.950 . S
C1694 C1695 1.386 . S
C1694 C1696 1.391 . S
C1695 C1694 1.386 . S
C1695 C1699 1.393 . S
C1696 H1685 0.950 . S
C1696 C1694 1.391 . S
C1696 C1697 1.400 . S
C1697 C1691 1.491 . S
C1697 C1696 1.400 . S
C1697 C1698 1.398 . S
C1698 H1686 0.950 . S
C1698 C1697 1.398 . S
C1698 C1699 1.391 . S
C1699 H1687 0.950 . S
C1699 C1695 1.393 . S
C1699 C1698 1.391 . S
H1700 C1708 0.950 . S
H1701 C1713 0.950 . S
H1702 C1710 0.950 . S
H1703 C1712 0.950 . S
H1704 C1714 0.950 . S
H1705 C1716 0.950 . S
H1706 C1718 0.950 . S
H1707 C1719 0.950 . S
C1708 H1700 0.950 . S
C1708 C1709 1.386 . S
C1708 C1710 1.391 . S
C1709 C1708 1.386 . S
C1709 C1713 1.393 . S
C1710 H1702 0.950 . S
C1710 C1708 1.391 . S
C1710 C1711 1.400 . S
C1711 C1710 1.400 . S
C1711 C1712 1.398 . S
C1711 C1717 1.491 . S
C1712 H1703 0.950 . S
C1712 C1711 1.398 . S
C1712 C1713 1.391 . S
C1713 H1701 0.950 . S
C1713 C1709 1.393 . S
C1713 C1712 1.391 . S
C1714 H1704 0.950 . S
C1714 C1715 1.386 . S
C1714 C1716 1.391 . S
C1715 C1714 1.386 . S
C1715 C1719 1.393 . S
C1716 H1705 0.950 . S
C1716 C1714 1.391 . S
C1716 C1717 1.400 . S
C1717 C1711 1.491 . S
C1717 C1716 1.400 . S
C1717 C1718 1.398 . S
C1718 H1706 0.950 . S
C1718 C1717 1.398 . S
C1718 C1719 1.391 . S
C1719 H1707 0.950 . S
C1719 C1715 1.393 . S
C1719 C1718 1.391 . S
H1720 C1728 0.950 . S
H1721 C1733 0.950 . S
H1722 C1730 0.950 1_565 S
H1723 C1732 0.950 1_565 S
H1724 C1734 0.950 . S
H1725 C1736 0.950 . S
H1726 C1738 0.950 . S
H1727 C1739 0.950 . S
C1728 H1720 0.950 . S
C1728 C1729 1.386 . S
C1728 C1730 1.391 . S
C1729 C1728 1.386 . S
C1729 C1733 1.393 . S
C1730 H1722 0.950 1_545 S
C1730 C1728 1.391 . S
C1730 C1731 1.400 1_545 S
C1731 C1730 1.400 1_565 S
C1731 C1732 1.398 1_565 S
C1731 C1737 1.491 . S
C1732 H1723 0.950 1_545 S
C1732 C1731 1.398 1_545 S
C1732 C1733 1.391 . S
C1733 H1721 0.950 . S
C1733 C1729 1.393 . S
C1733 C1732 1.391 . S
C1734 H1724 0.950 . S
C1734 C1735 1.386 . S
C1734 C1736 1.391 . S
C1735 C1734 1.386 . S
C1735 C1739 1.393 . S
C1736 H1725 0.950 . S
C1736 C1734 1.391 . S
C1736 C1737 1.400 . S
C1737 C1731 1.491 . S
C1737 C1736 1.400 . S
C1737 C1738 1.398 . S
C1738 H1726 0.950 . S
C1738 C1737 1.398 . S
C1738 C1739 1.391 . S
C1739 H1727 0.950 . S
C1739 C1735 1.393 . S
C1739 C1738 1.391 . S
H1740 C1748 0.950 . S
H1741 C1753 0.950 . S
H1742 C1750 0.950 . S
H1743 C1752 0.950 . S
H1744 C1754 0.950 . S
H1745 C1756 0.950 . S
H1746 C1758 0.950 . S
H1747 C1759 0.950 . S
C1748 H1740 0.950 . S
C1748 C1749 1.386 . S
C1748 C1750 1.391 . S
C1749 C1748 1.386 . S
C1749 C1753 1.393 . S
C1750 H1742 0.950 . S
C1750 C1748 1.391 . S
C1750 C1751 1.400 . S
C1751 C1750 1.400 . S
C1751 C1752 1.398 . S
C1751 C1757 1.491 . S
C1752 H1743 0.950 . S
C1752 C1751 1.398 . S
C1752 C1753 1.391 . S
C1753 H1741 0.950 . S
C1753 C1749 1.393 . S
C1753 C1752 1.391 . S
C1754 H1744 0.950 . S
C1754 C1755 1.386 . S
C1754 C1756 1.391 . S
C1755 C1754 1.386 . S
C1755 C1759 1.393 . S
C1756 H1745 0.950 . S
C1756 C1754 1.391 . S
C1756 C1757 1.400 . S
C1757 C1751 1.491 . S
C1757 C1756 1.400 . S
C1757 C1758 1.398 . S
C1758 H1746 0.950 . S
C1758 C1757 1.398 . S
C1758 C1759 1.391 . S
C1759 H1747 0.950 . S
C1759 C1755 1.393 . S
C1759 C1758 1.391 . S
H1760 C1768 0.950 . S
H1761 C1773 0.950 . S
H1762 C1770 0.950 . S
H1763 C1772 0.950 . S
H1764 C1774 0.950 . S
H1765 C1776 0.950 . S
H1766 C1778 0.950 . S
H1767 C1779 0.950 . S
C1768 H1760 0.950 . S
C1768 C1769 1.386 . S
C1768 C1770 1.391 . S
C1769 C1768 1.386 . S
C1769 C1773 1.393 . S
C1770 H1762 0.950 . S
C1770 C1768 1.391 . S
C1770 C1771 1.400 . S
C1771 C1770 1.400 . S
C1771 C1772 1.398 . S
C1771 C1777 1.491 . S
C1772 H1763 0.950 . S
C1772 C1771 1.398 . S
C1772 C1773 1.391 . S
C1773 H1761 0.950 . S
C1773 C1769 1.393 . S
C1773 C1772 1.391 . S
C1774 H1764 0.950 . S
C1774 C1775 1.386 . S
C1774 C1776 1.391 . S
C1775 C1774 1.386 . S
C1775 C1779 1.393 . S
C1776 H1765 0.950 . S
C1776 C1774 1.391 . S
C1776 C1777 1.400 . S
C1777 C1771 1.491 . S
C1777 C1776 1.400 . S
C1777 C1778 1.398 . S
C1778 H1766 0.950 . S
C1778 C1777 1.398 . S
C1778 C1779 1.391 . S
C1779 H1767 0.950 . S
C1779 C1775 1.393 . S
C1779 C1778 1.391 . S
H1780 C1788 0.950 . S
H1781 C1793 0.950 . S
H1782 C1790 0.950 . S
H1783 C1792 0.950 . S
H1784 C1794 0.950 . S
H1785 C1796 0.950 . S
H1786 C1798 0.950 . S
H1787 C1799 0.950 . S
C1788 H1780 0.950 . S
C1788 C1789 1.386 . S
C1788 C1790 1.391 . S
C1789 C1788 1.386 . S
C1789 C1793 1.393 . S
C1790 H1782 0.950 . S
C1790 C1788 1.391 . S
C1790 C1791 1.400 . S
C1791 C1790 1.400 . S
C1791 C1792 1.398 . S
C1791 C1797 1.491 . S
C1792 H1783 0.950 . S
C1792 C1791 1.398 . S
C1792 C1793 1.391 . S
C1793 H1781 0.950 . S
C1793 C1789 1.393 . S
C1793 C1792 1.391 . S
C1794 H1784 0.950 . S
C1794 C1795 1.386 . S
C1794 C1796 1.391 . S
C1795 C1794 1.386 . S
C1795 C1799 1.393 . S
C1796 H1785 0.950 . S
C1796 C1794 1.391 . S
C1796 C1797 1.400 . S
C1797 C1791 1.491 . S
C1797 C1796 1.400 . S
C1797 C1798 1.398 . S
C1798 H1786 0.950 . S
C1798 C1797 1.398 . S
C1798 C1799 1.391 . S
C1799 H1787 0.950 . S
C1799 C1795 1.393 . S
C1799 C1798 1.391 . S
H1800 C1808 0.950 . S
H1801 C1813 0.950 . S
H1802 C1810 0.950 . S
H1803 C1812 0.950 . S
H1804 C1814 0.950 . S
H1805 C1816 0.950 . S
H1806 C1818 0.950 . S
H1807 C1819 0.950 . S
C1808 H1800 0.950 . S
C1808 C1809 1.386 . S
C1808 C1810 1.391 . S
C1809 C1808 1.386 . S
C1809 C1813 1.393 . S
C1810 H1802 0.950 . S
C1810 C1808 1.391 . S
C1810 C1811 1.400 . S
C1811 C1810 1.400 . S
C1811 C1812 1.398 . S
C1811 C1817 1.491 . S
C1812 H1803 0.950 . S
C1812 C1811 1.398 . S
C1812 C1813 1.391 . S
C1813 H1801 0.950 . S
C1813 C1809 1.393 . S
C1813 C1812 1.391 . S
C1814 H1804 0.950 . S
C1814 C1815 1.386 . S
C1814 C1816 1.391 . S
C1815 C1814 1.386 . S
C1815 C1819 1.393 . S
C1816 H1805 0.950 . S
C1816 C1814 1.391 . S
C1816 C1817 1.400 . S
C1817 C1811 1.491 . S
C1817 C1816 1.400 . S
C1817 C1818 1.398 . S
C1818 H1806 0.950 . S
C1818 C1817 1.398 . S
C1818 C1819 1.391 . S
C1819 H1807 0.950 . S
C1819 C1815 1.393 . S
C1819 C1818 1.391 . S
H1820 C1828 0.950 . S
H1821 C1833 0.950 . S
H1822 C1830 0.950 . S
H1823 C1832 0.950 . S
H1824 C1834 0.950 . S
H1825 C1836 0.950 . S
H1826 C1838 0.950 . S
H1827 C1839 0.950 . S
C1828 H1820 0.950 . S
C1828 C1829 1.386 . S
C1828 C1830 1.391 . S
C1829 C1828 1.386 . S
C1829 C1833 1.393 . S
C1830 H1822 0.950 . S
C1830 C1828 1.391 . S
C1830 C1831 1.400 . S
C1831 C1830 1.400 . S
C1831 C1832 1.398 . S
C1831 C1837 1.491 . S
C1832 H1823 0.950 . S
C1832 C1831 1.398 . S
C1832 C1833 1.391 . S
C1833 H1821 0.950 . S
C1833 C1829 1.393 . S
C1833 C1832 1.391 . S
C1834 H1824 0.950 . S
C1834 C1835 1.386 . S
C1834 C1836 1.391 . S
C1835 C1834 1.386 . S
C1835 C1839 1.393 . S
C1836 H1825 0.950 . S
C1836 C1834 1.391 . S
C1836 C1837 1.400 . S
C1837 C1831 1.491 . S
C1837 C1836 1.400 . S
C1837 C1838 1.398 . S
C1838 H1826 0.950 . S
C1838 C1837 1.398 . S
C1838 C1839 1.391 . S
C1839 H1827 0.950 . S
C1839 C1835 1.393 . S
C1839 C1838 1.391 . S
H1840 C1848 0.950 . S
H1841 C1853 0.950 . S
H1842 C1850 0.950 . S
H1843 C1852 0.950 . S
H1844 C1854 0.950 . S
H1845 C1856 0.950 . S
H1846 C1858 0.950 . S
H1847 C1859 0.950 . S
C1848 H1840 0.950 . S
C1848 C1849 1.386 . S
C1848 C1850 1.391 . S
C1849 C1848 1.386 . S
C1849 C1853 1.393 . S
C1850 H1842 0.950 . S
C1850 C1848 1.391 . S
C1850 C1851 1.400 . S
C1851 C1850 1.400 . S
C1851 C1852 1.398 . S
C1851 C1857 1.491 . S
C1852 H1843 0.950 . S
C1852 C1851 1.398 . S
C1852 C1853 1.391 . S
C1853 H1841 0.950 . S
C1853 C1849 1.393 . S
C1853 C1852 1.391 . S
C1854 H1844 0.950 . S
C1854 C1855 1.386 . S
C1854 C1856 1.391 . S
C1855 C1854 1.386 . S
C1855 C1859 1.393 . S
C1856 H1845 0.950 . S
C1856 C1854 1.391 . S
C1856 C1857 1.400 . S
C1857 C1851 1.491 . S
C1857 C1856 1.400 . S
C1857 C1858 1.398 . S
C1858 H1846 0.950 . S
C1858 C1857 1.398 . S
C1858 C1859 1.391 . S
C1859 H1847 0.950 . S
C1859 C1855 1.393 . S
C1859 C1858 1.391 . S
H1860 C1868 0.950 . S
H1861 C1873 0.950 . S
H1862 C1870 0.950 . S
H1863 C1872 0.950 1_565 S
H1864 C1874 0.950 . S
H1865 C1876 0.950 . S
H1866 C1878 0.950 . S
H1867 C1879 0.950 . S
C1868 H1860 0.950 . S
C1868 C1869 1.386 . S
C1868 C1870 1.391 1_545 S
C1869 C1868 1.386 . S
C1869 C1873 1.393 . S
C1870 H1862 0.950 . S
C1870 C1868 1.391 1_565 S
C1870 C1871 1.400 . S
C1871 C1870 1.400 . S
C1871 C1872 1.398 1_565 S
C1871 C1877 1.491 . S
C1872 H1863 0.950 1_545 S
C1872 C1871 1.398 1_545 S
C1872 C1873 1.391 . S
C1873 H1861 0.950 . S
C1873 C1869 1.393 . S
C1873 C1872 1.391 . S
C1874 H1864 0.950 . S
C1874 C1875 1.386 . S
C1874 C1876 1.391 . S
C1875 C1874 1.386 . S
C1875 C1879 1.393 . S
C1876 H1865 0.950 . S
C1876 C1874 1.391 . S
C1876 C1877 1.400 . S
C1877 C1871 1.491 . S
C1877 C1876 1.400 . S
C1877 C1878 1.398 . S
C1878 H1866 0.950 . S
C1878 C1877 1.398 . S
C1878 C1879 1.391 . S
C1879 H1867 0.950 . S
C1879 C1875 1.393 . S
C1879 C1878 1.391 . S
H1880 C1888 0.949 1_655 S
H1881 C1893 0.950 . S
H1882 C1890 0.950 . S
H1883 C1892 0.950 . S
H1884 C1894 0.950 . S
H1885 C1896 0.950 . S
H1886 C1898 0.950 . S
H1887 C1899 0.950 . S
C1888 H1880 0.949 1_455 S
C1888 C1889 1.389 1_455 S
C1888 C1890 1.389 . S
C1889 C1888 1.389 1_655 S
C1889 C1893 1.393 . S
C1890 H1882 0.950 . S
C1890 C1888 1.389 . S
C1890 C1891 1.400 . S
C1891 C1890 1.400 . S
C1891 C1892 1.398 . S
C1891 C1897 1.491 . S
C1892 H1883 0.950 . S
C1892 C1891 1.398 . S
C1892 C1893 1.391 1_455 S
C1893 H1881 0.950 . S
C1893 C1889 1.393 . S
C1893 C1892 1.391 1_655 S
C1894 H1884 0.950 . S
C1894 C1895 1.386 . S
C1894 C1896 1.391 . S
C1895 C1894 1.386 . S
C1895 C1899 1.393 . S
C1896 H1885 0.950 . S
C1896 C1894 1.391 . S
C1896 C1897 1.400 . S
C1897 C1891 1.491 . S
C1897 C1896 1.400 . S
C1897 C1898 1.398 . S
C1898 H1886 0.950 . S
C1898 C1897 1.398 . S
C1898 C1899 1.391 . S
C1899 H1887 0.950 . S
C1899 C1895 1.393 . S
C1899 C1898 1.391 . S
H1900 C1908 0.950 . S
H1901 C1913 0.950 . S
H1902 C1910 0.950 . S
H1903 C1912 0.950 . S
H1904 C1914 0.950 . S
H1905 C1916 0.950 . S
H1906 C1918 0.950 . S
H1907 C1919 0.950 . S
C1908 H1900 0.950 . S
C1908 C1909 1.386 . S
C1908 C1910 1.391 . S
C1909 C1908 1.386 . S
C1909 C1913 1.393 . S
C1910 H1902 0.950 . S
C1910 C1908 1.391 . S
C1910 C1911 1.400 . S
C1911 C1910 1.400 . S
C1911 C1912 1.398 . S
C1911 C1917 1.491 . S
C1912 H1903 0.950 . S
C1912 C1911 1.398 . S
C1912 C1913 1.391 . S
C1913 H1901 0.950 . S
C1913 C1909 1.393 . S
C1913 C1912 1.391 . S
C1914 H1904 0.950 . S
C1914 C1915 1.386 . S
C1914 C1916 1.391 . S
C1915 C1914 1.386 . S
C1915 C1919 1.393 . S
C1916 H1905 0.950 . S
C1916 C1914 1.391 . S
C1916 C1917 1.400 . S
C1917 C1911 1.491 . S
C1917 C1916 1.400 . S
C1917 C1918 1.398 . S
C1918 H1906 0.950 . S
C1918 C1917 1.398 . S
C1918 C1919 1.391 . S
C1919 H1907 0.950 . S
C1919 C1915 1.393 . S
C1919 C1918 1.391 . S
H1920 C1928 0.950 . S
H1921 C1933 0.950 . S
H1922 C1930 0.950 . S
H1923 C1932 0.950 . S
H1924 C1934 0.950 . S
H1925 C1936 0.950 . S
H1926 C1938 0.950 . S
H1927 C1939 0.950 . S
C1928 H1920 0.950 . S
C1928 C1929 1.386 . S
C1928 C1930 1.391 . S
C1929 C1928 1.386 . S
C1929 C1933 1.393 . S
C1930 H1922 0.950 . S
C1930 C1928 1.391 . S
C1930 C1931 1.400 . S
C1931 C1930 1.400 . S
C1931 C1932 1.398 . S
C1931 C1937 1.491 . S
C1932 H1923 0.950 . S
C1932 C1931 1.398 . S
C1932 C1933 1.391 . S
C1933 H1921 0.950 . S
C1933 C1929 1.393 . S
C1933 C1932 1.391 . S
C1934 H1924 0.950 . S
C1934 C1935 1.386 . S
C1934 C1936 1.391 . S
C1935 C1934 1.386 . S
C1935 C1939 1.393 . S
C1936 H1925 0.950 . S
C1936 C1934 1.391 . S
C1936 C1937 1.400 . S
C1937 C1931 1.491 . S
C1937 C1936 1.400 . S
C1937 C1938 1.398 . S
C1938 H1926 0.950 . S
C1938 C1937 1.398 . S
C1938 C1939 1.391 . S
C1939 H1927 0.950 . S
C1939 C1935 1.393 . S
C1939 C1938 1.391 . S
H1940 C1948 0.950 . S
H1941 C1953 0.950 . S
H1942 C1950 0.950 . S
H1943 C1952 0.950 . S
H1944 C1954 0.950 . S
H1945 C1956 0.950 . S
H1946 C1958 0.950 . S
H1947 C1959 0.950 . S
C1948 H1940 0.950 . S
C1948 C1949 1.386 . S
C1948 C1950 1.391 . S
C1949 C1948 1.386 . S
C1949 C1953 1.393 . S
C1950 H1942 0.950 . S
C1950 C1948 1.391 . S
C1950 C1951 1.400 . S
C1951 C1950 1.400 . S
C1951 C1952 1.398 . S
C1951 C1957 1.491 . S
C1952 H1943 0.950 . S
C1952 C1951 1.398 . S
C1952 C1953 1.391 . S
C1953 H1941 0.950 . S
C1953 C1949 1.393 . S
C1953 C1952 1.391 . S
C1954 H1944 0.950 . S
C1954 C1955 1.386 . S
C1954 C1956 1.391 . S
C1955 C1954 1.386 . S
C1955 C1959 1.393 . S
C1956 H1945 0.950 . S
C1956 C1954 1.391 . S
C1956 C1957 1.400 . S
C1957 C1951 1.491 . S
C1957 C1956 1.400 . S
C1957 C1958 1.398 . S
C1958 H1946 0.950 . S
C1958 C1957 1.398 . S
C1958 C1959 1.391 . S
C1959 H1947 0.950 . S
C1959 C1955 1.393 . S
C1959 C1958 1.391 . S
H1960 C1968 0.950 . S
H1961 C1973 0.950 . S
H1962 C1970 0.950 . S
H1963 C1972 0.950 . S
H1964 C1974 0.950 . S
H1965 C1976 0.950 . S
H1966 C1978 0.950 . S
H1967 C1979 0.950 . S
C1968 H1960 0.950 . S
C1968 C1969 1.386 . S
C1968 C1970 1.391 . S
C1969 C1968 1.386 . S
C1969 C1973 1.393 . S
C1970 H1962 0.950 . S
C1970 C1968 1.391 . S
C1970 C1971 1.400 . S
C1971 C1970 1.400 . S
C1971 C1972 1.398 . S
C1971 C1977 1.491 . S
C1972 H1963 0.950 . S
C1972 C1971 1.398 . S
C1972 C1973 1.391 . S
C1973 H1961 0.950 . S
C1973 C1969 1.393 . S
C1973 C1972 1.391 . S
C1974 H1964 0.950 . S
C1974 C1975 1.386 . S
C1974 C1976 1.391 . S
C1975 C1974 1.386 . S
C1975 C1979 1.393 . S
C1976 H1965 0.950 . S
C1976 C1974 1.391 . S
C1976 C1977 1.400 . S
C1977 C1971 1.491 . S
C1977 C1976 1.400 . S
C1977 C1978 1.398 . S
C1978 H1966 0.950 . S
C1978 C1977 1.398 . S
C1978 C1979 1.391 . S
C1979 H1967 0.950 . S
C1979 C1975 1.393 . S
C1979 C1978 1.391 . S
H1980 C1988 0.950 . S
H1981 C1993 0.950 . S
H1982 C1990 0.950 . S
H1983 C1992 0.950 1_545 S
H1984 C1994 0.950 . S
H1985 C1996 0.950 . S
H1986 C1998 0.950 . S
H1987 C1999 0.950 . S
C1988 H1980 0.950 . S
C1988 C1989 1.386 . S
C1988 C1990 1.391 1_565 S
C1989 C1988 1.386 . S
C1989 C1993 1.393 . S
C1990 H1982 0.950 . S
C1990 C1988 1.391 1_545 S
C1990 C1991 1.400 . S
C1991 C1990 1.400 . S
C1991 C1992 1.398 1_545 S
C1991 C1997 1.491 . S
C1992 H1983 0.950 1_565 S
C1992 C1991 1.398 1_565 S
C1992 C1993 1.391 . S
C1993 H1981 0.950 . S
C1993 C1989 1.393 . S
C1993 C1992 1.391 . S
C1994 H1984 0.950 . S
C1994 C1995 1.386 . S
C1994 C1996 1.391 . S
C1995 C1994 1.386 . S
C1995 C1999 1.393 . S
C1996 H1985 0.950 . S
C1996 C1994 1.391 . S
C1996 C1997 1.400 . S
C1997 C1991 1.491 . S
C1997 C1996 1.400 . S
C1997 C1998 1.398 . S
C1998 H1986 0.950 . S
C1998 C1997 1.398 . S
C1998 C1999 1.391 . S
C1999 H1987 0.950 . S
C1999 C1995 1.393 . S
C1999 C1998 1.391 . S
H2000 C2008 0.950 . S
H2001 C2013 0.950 . S
H2002 C2010 0.950 . S
H2003 C2012 0.950 . S
H2004 C2014 0.950 . S
H2005 C2016 0.950 . S
H2006 C2018 0.950 . S
H2007 C2019 0.950 . S
C2008 H2000 0.950 . S
C2008 C2009 1.386 1_655 S
C2008 C2010 1.391 . S
C2009 C2008 1.386 1_455 S
C2009 C2013 1.393 . S
C2010 H2002 0.950 . S
C2010 C2008 1.391 . S
C2010 C2011 1.400 . S
C2011 C2010 1.400 . S
C2011 C2012 1.398 . S
C2011 C2017 1.491 . S
C2012 H2003 0.950 . S
C2012 C2011 1.398 . S
C2012 C2013 1.391 1_655 S
C2013 H2001 0.950 . S
C2013 C2009 1.393 . S
C2013 C2012 1.391 1_455 S
C2014 H2004 0.950 . S
C2014 C2015 1.386 . S
C2014 C2016 1.391 . S
C2015 C2014 1.386 . S
C2015 C2019 1.393 . S
C2016 H2005 0.950 . S
C2016 C2014 1.391 . S
C2016 C2017 1.400 . S
C2017 C2011 1.491 . S
C2017 C2016 1.400 . S
C2017 C2018 1.398 . S
C2018 H2006 0.950 . S
C2018 C2017 1.398 . S
C2018 C2019 1.391 . S
C2019 H2007 0.950 . S
C2019 C2015 1.393 . S
C2019 C2018 1.391 . S
H2020 C2028 0.950 . S
H2021 C2033 0.950 . S
H2022 C2030 0.950 . S
H2023 C2032 0.950 . S
H2024 C2034 0.950 . S
H2025 C2036 0.950 . S
H2026 C2038 0.950 . S
H2027 C2039 0.950 . S
C2028 H2020 0.950 . S
C2028 C2029 1.386 . S
C2028 C2030 1.391 . S
C2029 C2028 1.386 . S
C2029 C2033 1.393 . S
C2030 H2022 0.950 . S
C2030 C2028 1.391 . S
C2030 C2031 1.400 . S
C2031 C2030 1.400 . S
C2031 C2032 1.398 . S
C2031 C2037 1.491 . S
C2032 H2023 0.950 . S
C2032 C2031 1.398 . S
C2032 C2033 1.391 . S
C2033 H2021 0.950 . S
C2033 C2029 1.393 . S
C2033 C2032 1.391 . S
C2034 H2024 0.950 . S
C2034 C2035 1.386 . S
C2034 C2036 1.391 . S
C2035 C2034 1.386 . S
C2035 C2039 1.393 . S
C2036 H2025 0.950 . S
C2036 C2034 1.391 . S
C2036 C2037 1.400 . S
C2037 C2031 1.491 . S
C2037 C2036 1.400 . S
C2037 C2038 1.398 . S
C2038 H2026 0.950 . S
C2038 C2037 1.398 . S
C2038 C2039 1.391 . S
C2039 H2027 0.950 . S
C2039 C2035 1.393 . S
C2039 C2038 1.391 . S
H2040 C2048 0.950 . S
H2041 C2053 0.950 . S
H2042 C2050 0.950 . S
H2043 C2052 0.950 . S
H2044 C2054 0.950 . S
H2045 C2056 0.950 . S
H2046 C2058 0.950 . S
H2047 C2059 0.950 . S
C2048 H2040 0.950 . S
C2048 C2049 1.386 . S
C2048 C2050 1.391 1_455 S
C2049 C2048 1.386 . S
C2049 C2053 1.393 . S
C2050 H2042 0.950 . S
C2050 C2048 1.391 1_655 S
C2050 C2051 1.400 . S
C2051 C2050 1.400 . S
C2051 C2052 1.398 . S
C2051 C2057 1.491 . S
C2052 H2043 0.950 . S
C2052 C2051 1.398 . S
C2052 C2053 1.391 1_655 S
C2053 H2041 0.950 . S
C2053 C2049 1.393 . S
C2053 C2052 1.391 1_455 S
C2054 H2044 0.950 . S
C2054 C2055 1.386 . S
C2054 C2056 1.391 . S
C2055 C2054 1.386 . S
C2055 C2059 1.393 . S
C2056 H2045 0.950 . S
C2056 C2054 1.391 . S
C2056 C2057 1.400 . S
C2057 C2051 1.491 . S
C2057 C2056 1.400 . S
C2057 C2058 1.398 . S
C2058 H2046 0.950 . S
C2058 C2057 1.398 . S
C2058 C2059 1.391 . S
C2059 H2047 0.950 . S
C2059 C2055 1.393 . S
C2059 C2058 1.391 . S
H2060 C2068 0.950 . S
H2061 C2073 0.950 . S
H2062 C2070 0.950 . S
H2063 C2072 0.950 . S
H2064 C2074 0.950 . S
H2065 C2076 0.950 . S
H2066 C2078 0.950 . S
H2067 C2079 0.950 . S
C2068 H2060 0.950 . S
C2068 C2069 1.386 . S
C2068 C2070 1.391 . S
C2069 C2068 1.386 . S
C2069 C2073 1.393 . S
C2070 H2062 0.950 . S
C2070 C2068 1.391 . S
C2070 C2071 1.400 . S
C2071 C2070 1.400 . S
C2071 C2072 1.398 . S
C2071 C2077 1.491 . S
C2072 H2063 0.950 . S
C2072 C2071 1.398 . S
C2072 C2073 1.391 . S
C2073 H2061 0.950 . S
C2073 C2069 1.393 . S
C2073 C2072 1.391 . S
C2074 H2064 0.950 . S
C2074 C2075 1.386 . S
C2074 C2076 1.391 . S
C2075 C2074 1.386 . S
C2075 C2079 1.393 . S
C2076 H2065 0.950 . S
C2076 C2074 1.391 . S
C2076 C2077 1.400 . S
C2077 C2071 1.491 . S
C2077 C2076 1.400 . S
C2077 C2078 1.398 . S
C2078 H2066 0.950 . S
C2078 C2077 1.398 . S
C2078 C2079 1.391 . S
C2079 H2067 0.950 . S
C2079 C2075 1.393 . S
C2079 C2078 1.391 . S
H2080 C2088 0.950 . S
H2081 C2093 0.950 . S
H2082 C2090 0.950 1_545 S
H2083 C2092 0.950 1_545 S
H2084 C2094 0.950 . S
H2085 C2096 0.950 . S
H2086 C2098 0.950 . S
H2087 C2099 0.950 . S
C2088 H2080 0.950 . S
C2088 C2089 1.386 . S
C2088 C2090 1.391 . S
C2089 C2088 1.386 . S
C2089 C2093 1.393 . S
C2090 H2082 0.950 1_565 S
C2090 C2088 1.391 . S
C2090 C2091 1.400 1_565 S
C2091 C2090 1.400 1_545 S
C2091 C2092 1.398 1_545 S
C2091 C2097 1.491 . S
C2092 H2083 0.950 1_565 S
C2092 C2091 1.398 1_565 S
C2092 C2093 1.391 . S
C2093 H2081 0.950 . S
C2093 C2089 1.393 . S
C2093 C2092 1.391 . S
C2094 H2084 0.950 . S
C2094 C2095 1.386 . S
C2094 C2096 1.391 . S
C2095 C2094 1.386 . S
C2095 C2099 1.393 . S
C2096 H2085 0.950 . S
C2096 C2094 1.391 . S
C2096 C2097 1.400 . S
C2097 C2091 1.491 . S
C2097 C2096 1.400 . S
C2097 C2098 1.398 . S
C2098 H2086 0.950 . S
C2098 C2097 1.398 . S
C2098 C2099 1.391 . S
C2099 H2087 0.950 . S
C2099 C2095 1.393 . S
C2099 C2098 1.391 . S
H2100 C2108 0.950 . S
H2101 C2113 0.950 . S
H2102 C2110 0.950 . S
H2103 C2112 0.950 . S
H2104 C2114 0.950 . S
H2105 C2116 0.950 . S
H2106 C2118 0.950 . S
H2107 C2119 0.950 . S
C2108 H2100 0.950 . S
C2108 C2109 1.386 . S
C2108 C2110 1.391 . S
C2109 C2108 1.386 . S
C2109 C2113 1.393 . S
C2110 H2102 0.950 . S
C2110 C2108 1.391 . S
C2110 C2111 1.400 . S
C2111 C2110 1.400 . S
C2111 C2112 1.398 . S
C2111 C2117 1.491 . S
C2112 H2103 0.950 . S
C2112 C2111 1.398 . S
C2112 C2113 1.391 . S
C2113 H2101 0.950 . S
C2113 C2109 1.393 . S
C2113 C2112 1.391 . S
C2114 H2104 0.950 . S
C2114 C2115 1.386 . S
C2114 C2116 1.391 . S
C2115 C2114 1.386 . S
C2115 C2119 1.393 . S
C2116 H2105 0.950 . S
C2116 C2114 1.391 . S
C2116 C2117 1.400 . S
C2117 C2111 1.491 . S
C2117 C2116 1.400 . S
C2117 C2118 1.398 . S
C2118 H2106 0.950 . S
C2118 C2117 1.398 . S
C2118 C2119 1.391 . S
C2119 H2107 0.950 . S
C2119 C2115 1.393 . S
C2119 C2118 1.391 . S
H2120 C2128 0.950 . S
H2121 C2133 0.950 . S
H2122 C2130 0.950 . S
H2123 C2132 0.950 . S
H2124 C2134 0.950 . S
H2125 C2136 0.950 . S
H2126 C2138 0.950 . S
H2127 C2139 0.950 . S
C2128 H2120 0.950 . S
C2128 C2129 1.386 . S
C2128 C2130 1.391 . S
C2129 C2128 1.386 . S
C2129 C2133 1.393 . S
C2130 H2122 0.950 . S
C2130 C2128 1.391 . S
C2130 C2131 1.400 . S
C2131 C2130 1.400 . S
C2131 C2132 1.398 . S
C2131 C2137 1.491 . S
C2132 H2123 0.950 . S
C2132 C2131 1.398 . S
C2132 C2133 1.391 . S
C2133 H2121 0.950 . S
C2133 C2129 1.393 . S
C2133 C2132 1.391 . S
C2134 H2124 0.950 . S
C2134 C2135 1.386 . S
C2134 C2136 1.391 . S
C2135 C2134 1.386 . S
C2135 C2139 1.393 . S
C2136 H2125 0.950 . S
C2136 C2134 1.391 . S
C2136 C2137 1.400 . S
C2137 C2131 1.491 . S
C2137 C2136 1.400 . S
C2137 C2138 1.398 . S
C2138 H2126 0.950 . S
C2138 C2137 1.398 . S
C2138 C2139 1.391 . S
C2139 H2127 0.950 . S
C2139 C2135 1.393 . S
C2139 C2138 1.391 . S
H2140 C2148 0.950 . S
H2141 C2153 0.950 . S
H2142 C2150 0.950 . S
H2143 C2152 0.950 . S
H2144 C2154 0.950 . S
H2145 C2156 0.950 . S
H2146 C2158 0.950 . S
H2147 C2159 0.950 . S
C2148 H2140 0.950 . S
C2148 C2149 1.386 . S
C2148 C2150 1.391 . S
C2149 C2148 1.386 . S
C2149 C2153 1.393 . S
C2150 H2142 0.950 . S
C2150 C2148 1.391 . S
C2150 C2151 1.400 . S
C2151 C2150 1.400 . S
C2151 C2152 1.398 . S
C2151 C2157 1.491 . S
C2152 H2143 0.950 . S
C2152 C2151 1.398 . S
C2152 C2153 1.391 . S
C2153 H2141 0.950 . S
C2153 C2149 1.393 . S
C2153 C2152 1.391 . S
C2154 H2144 0.950 . S
C2154 C2155 1.386 . S
C2154 C2156 1.391 . S
C2155 C2154 1.386 . S
C2155 C2159 1.393 . S
C2156 H2145 0.950 . S
C2156 C2154 1.391 . S
C2156 C2157 1.400 . S
C2157 C2151 1.491 . S
C2157 C2156 1.400 . S
C2157 C2158 1.398 . S
C2158 H2146 0.950 . S
C2158 C2157 1.398 . S
C2158 C2159 1.391 . S
C2159 H2147 0.950 . S
C2159 C2155 1.393 . S
C2159 C2158 1.391 . S
H2160 C2168 0.950 . S
H2161 C2173 0.950 . S
H2162 C2170 0.950 . S
H2163 C2172 0.950 . S
H2164 C2174 0.950 . S
H2165 C2176 0.950 . S
H2166 C2178 0.950 . S
H2167 C2179 0.950 1_545 S
C2168 H2160 0.950 . S
C2168 C2169 1.386 . S
C2168 C2170 1.391 . S
C2169 C2168 1.386 . S
C2169 C2173 1.393 . S
C2170 H2162 0.950 . S
C2170 C2168 1.391 . S
C2170 C2171 1.400 . S
C2171 C2170 1.400 . S
C2171 C2172 1.398 . S
C2171 C2177 1.491 . S
C2172 H2163 0.950 . S
C2172 C2171 1.398 . S
C2172 C2173 1.391 . S
C2173 H2161 0.950 . S
C2173 C2169 1.393 . S
C2173 C2172 1.391 . S
C2174 H2164 0.950 . S
C2174 C2175 1.386 . S
C2174 C2176 1.391 . S
C2175 C2174 1.386 . S
C2175 C2179 1.393 . S
C2176 H2165 0.950 . S
C2176 C2174 1.391 . S
C2176 C2177 1.400 . S
C2177 C2171 1.491 . S
C2177 C2176 1.400 . S
C2177 C2178 1.398 . S
C2178 H2166 0.950 . S
C2178 C2177 1.398 . S
C2178 C2179 1.391 . S
C2179 H2167 0.950 1_565 S
C2179 C2175 1.393 . S
C2179 C2178 1.391 . S
H2180 C2188 0.950 . S
H2181 C2193 0.950 . S
H2182 C2190 0.950 . S
H2183 C2192 0.950 . S
H2184 C2194 0.950 . S
H2185 C2196 0.950 . S
H2186 C2198 0.950 . S
H2187 C2199 0.950 . S
C2188 H2180 0.950 . S
C2188 C2189 1.386 1_655 S
C2188 C2190 1.391 . S
C2189 C2188 1.386 1_455 S
C2189 C2193 1.393 . S
C2190 H2182 0.950 . S
C2190 C2188 1.391 . S
C2190 C2191 1.400 1_655 S
C2191 C2190 1.400 1_455 S
C2191 C2192 1.398 . S
C2191 C2197 1.491 . S
C2192 H2183 0.950 . S
C2192 C2191 1.398 . S
C2192 C2193 1.391 . S
C2193 H2181 0.950 . S
C2193 C2189 1.393 . S
C2193 C2192 1.391 . S
C2194 H2184 0.950 . S
C2194 C2195 1.386 . S
C2194 C2196 1.391 . S
C2195 C2194 1.386 . S
C2195 C2199 1.393 1_455 S
C2196 H2185 0.950 . S
C2196 C2194 1.391 . S
C2196 C2197 1.400 . S
C2197 C2191 1.491 . S
C2197 C2196 1.400 . S
C2197 C2198 1.398 1_455 S
C2198 H2186 0.950 . S
C2198 C2197 1.398 1_655 S
C2198 C2199 1.391 . S
C2199 H2187 0.950 . S
C2199 C2195 1.393 1_655 S
C2199 C2198 1.391 . S
H2200 C2208 0.950 . S
H2201 C2213 0.950 . S
H2202 C2210 0.950 . S
H2203 C2212 0.950 . S
H2204 C2214 0.950 . S
H2205 C2216 0.950 . S
H2206 C2218 0.950 . S
H2207 C2219 0.950 . S
C2208 H2200 0.950 . S
C2208 C2209 1.386 . S
C2208 C2210 1.391 . S
C2209 C2208 1.386 . S
C2209 C2213 1.393 . S
C2210 H2202 0.950 . S
C2210 C2208 1.391 . S
C2210 C2211 1.400 . S
C2211 C2210 1.400 . S
C2211 C2212 1.398 . S
C2211 C2217 1.491 . S
C2212 H2203 0.950 . S
C2212 C2211 1.398 . S
C2212 C2213 1.391 . S
C2213 H2201 0.950 . S
C2213 C2209 1.393 . S
C2213 C2212 1.391 . S
C2214 H2204 0.950 . S
C2214 C2215 1.386 . S
C2214 C2216 1.391 . S
C2215 C2214 1.386 . S
C2215 C2219 1.393 . S
C2216 H2205 0.950 . S
C2216 C2214 1.391 . S
C2216 C2217 1.400 . S
C2217 C2211 1.491 . S
C2217 C2216 1.400 . S
C2217 C2218 1.398 . S
C2218 H2206 0.950 . S
C2218 C2217 1.398 . S
C2218 C2219 1.391 . S
C2219 H2207 0.950 . S
C2219 C2215 1.393 . S
C2219 C2218 1.391 . S
H2220 C2228 0.950 . S
H2221 C2233 0.950 . S
H2222 C2230 0.950 . S
H2223 C2232 0.950 . S
H2224 C2234 0.950 1_455 S
H2225 C2236 0.950 1_455 S
H2226 C2238 0.950 . S
H2227 C2239 0.950 . S
C2228 H2220 0.950 . S
C2228 C2229 1.386 . S
C2228 C2230 1.391 . S
C2229 C2228 1.386 . S
C2229 C2233 1.393 1_655 S
C2230 H2222 0.950 . S
C2230 C2228 1.391 . S
C2230 C2231 1.400 . S
C2231 C2230 1.400 . S
C2231 C2232 1.398 1_655 S
C2231 C2237 1.491 . S
C2232 H2223 0.950 . S
C2232 C2231 1.398 1_455 S
C2232 C2233 1.391 . S
C2233 H2221 0.950 . S
C2233 C2229 1.393 1_455 S
C2233 C2232 1.391 . S
C2234 H2224 0.950 1_655 S
C2234 C2235 1.386 . S
C2234 C2236 1.391 . S
C2235 C2234 1.386 . S
C2235 C2239 1.393 . S
C2236 H2225 0.950 1_655 S
C2236 C2234 1.391 . S
C2236 C2237 1.400 . S
C2237 C2231 1.491 . S
C2237 C2236 1.400 . S
C2237 C2238 1.398 . S
C2238 H2226 0.950 . S
C2238 C2237 1.398 . S
C2238 C2239 1.391 . S
C2239 H2227 0.950 . S
C2239 C2235 1.393 . S
C2239 C2238 1.391 . S
H2240 C2248 0.950 . S
H2241 C2253 0.950 . S
H2242 C2250 0.950 . S
H2243 C2252 0.950 . S
H2244 C2254 0.950 . S
H2245 C2256 0.950 . S
H2246 C2258 0.950 . S
H2247 C2259 0.950 . S
C2248 H2240 0.950 . S
C2248 C2249 1.386 . S
C2248 C2250 1.391 . S
C2249 C2248 1.386 . S
C2249 C2253 1.393 . S
C2250 H2242 0.950 . S
C2250 C2248 1.391 . S
C2250 C2251 1.400 . S
C2251 C2250 1.400 . S
C2251 C2252 1.398 . S
C2251 C2257 1.491 . S
C2252 H2243 0.950 . S
C2252 C2251 1.398 . S
C2252 C2253 1.391 . S
C2253 H2241 0.950 . S
C2253 C2249 1.393 . S
C2253 C2252 1.391 . S
C2254 H2244 0.950 . S
C2254 C2255 1.386 . S
C2254 C2256 1.391 . S
C2255 C2254 1.386 . S
C2255 C2259 1.393 . S
C2256 H2245 0.950 . S
C2256 C2254 1.391 . S
C2256 C2257 1.400 . S
C2257 C2251 1.491 . S
C2257 C2256 1.400 . S
C2257 C2258 1.398 . S
C2258 H2246 0.950 . S
C2258 C2257 1.398 . S
C2258 C2259 1.391 . S
C2259 H2247 0.950 . S
C2259 C2255 1.393 . S
C2259 C2258 1.391 . S
H2260 C2268 0.950 . S
H2261 C2273 0.950 . S
H2262 C2270 0.950 . S
H2263 C2272 0.950 . S
H2264 C2274 0.950 . S
H2265 C2276 0.950 . S
H2266 C2278 0.950 . S
H2267 C2279 0.940 1_565 S
C2268 H2260 0.950 . S
C2268 C2269 1.386 . S
C2268 C2270 1.391 . S
C2269 C2268 1.386 . S
C2269 C2273 1.393 . S
C2270 H2262 0.950 . S
C2270 C2268 1.391 . S
C2270 C2271 1.400 . S
C2271 C2270 1.400 . S
C2271 C2272 1.398 . S
C2271 C2277 1.491 . S
C2272 H2263 0.950 . S
C2272 C2271 1.398 . S
C2272 C2273 1.391 . S
C2273 H2261 0.950 . S
C2273 C2269 1.393 . S
C2273 C2272 1.391 . S
C2274 H2264 0.950 . S
C2274 C2275 1.386 . S
C2274 C2276 1.391 . S
C2275 C2274 1.386 . S
C2275 C2279 1.393 . S
C2276 H2265 0.950 . S
C2276 C2274 1.391 . S
C2276 C2277 1.400 . S
C2277 C2271 1.491 . S
C2277 C2276 1.400 . S
C2277 C2278 1.398 . S
C2278 H2266 0.950 . S
C2278 C2277 1.398 . S
C2278 C2279 1.391 . S
C2279 H2267 0.940 1_545 S
C2279 C2275 1.393 . S
C2279 C2278 1.391 . S
H2280 C2288 0.950 . S
H2281 C2293 0.950 . S
H2282 C2290 0.950 . S
H2283 C2292 0.950 . S
H2284 C2294 0.950 . S
H2285 C2296 0.950 . S
H2286 C2298 0.950 . S
H2287 C2299 0.950 . S
C2288 H2280 0.950 . S
C2288 C2289 1.386 . S
C2288 C2290 1.391 . S
C2289 C2288 1.386 . S
C2289 C2293 1.393 . S
C2290 H2282 0.950 . S
C2290 C2288 1.391 . S
C2290 C2291 1.400 . S
C2291 C2290 1.400 . S
C2291 C2292 1.398 . S
C2291 C2297 1.491 . S
C2292 H2283 0.950 . S
C2292 C2291 1.398 . S
C2292 C2293 1.391 . S
C2293 H2281 0.950 . S
C2293 C2289 1.393 . S
C2293 C2292 1.391 . S
C2294 H2284 0.950 . S
C2294 C2295 1.386 . S
C2294 C2296 1.391 . S
C2295 C2294 1.386 . S
C2295 C2299 1.393 . S
C2296 H2285 0.950 . S
C2296 C2294 1.391 . S
C2296 C2297 1.400 . S
C2297 C2291 1.491 . S
C2297 C2296 1.400 . S
C2297 C2298 1.398 . S
C2298 H2286 0.950 . S
C2298 C2297 1.398 . S
C2298 C2299 1.391 . S
C2299 H2287 0.950 . S
C2299 C2295 1.393 . S
C2299 C2298 1.391 . S
H2300 C2308 0.950 . S
H2301 C2313 0.950 . S
H2302 C2310 0.950 . S
H2303 C2312 0.950 . S
H2304 C2314 0.950 . S
H2305 C2316 0.950 . S
H2306 C2318 0.950 . S
H2307 C2319 0.950 . S
C2308 H2300 0.950 . S
C2308 C2309 1.386 . S
C2308 C2310 1.391 . S
C2309 C2308 1.386 . S
C2309 C2313 1.393 . S
C2310 H2302 0.950 . S
C2310 C2308 1.391 . S
C2310 C2311 1.400 . S
C2311 C2310 1.400 . S
C2311 C2312 1.398 . S
C2311 C2317 1.491 . S
C2312 H2303 0.950 . S
C2312 C2311 1.398 . S
C2312 C2313 1.391 . S
C2313 H2301 0.950 . S
C2313 C2309 1.393 . S
C2313 C2312 1.391 . S
C2314 H2304 0.950 . S
C2314 C2315 1.386 . S
C2314 C2316 1.391 . S
C2315 C2314 1.386 . S
C2315 C2319 1.393 . S
C2316 H2305 0.950 . S
C2316 C2314 1.391 . S
C2316 C2317 1.400 . S
C2317 C2311 1.491 . S
C2317 C2316 1.400 . S
C2317 C2318 1.398 . S
C2318 H2306 0.950 . S
C2318 C2317 1.398 . S
C2318 C2319 1.391 . S
C2319 H2307 0.950 . S
C2319 C2315 1.393 . S
C2319 C2318 1.391 . S
H2320 C2328 0.950 . S
H2321 C2333 0.950 . S
H2322 C2330 0.950 . S
H2323 C2332 0.950 . S
H2324 C2334 0.950 . S
H2325 C2336 0.950 . S
H2326 C2338 0.950 . S
H2327 C2339 0.950 . S
C2328 H2320 0.950 . S
C2328 C2329 1.386 . S
C2328 C2330 1.391 . S
C2329 C2328 1.386 . S
C2329 C2333 1.393 . S
C2330 H2322 0.950 . S
C2330 C2328 1.391 . S
C2330 C2331 1.400 . S
C2331 C2330 1.400 . S
C2331 C2332 1.398 . S
C2331 C2337 1.491 . S
C2332 H2323 0.950 . S
C2332 C2331 1.398 . S
C2332 C2333 1.391 . S
C2333 H2321 0.950 . S
C2333 C2329 1.393 . S
C2333 C2332 1.391 . S
C2334 H2324 0.950 . S
C2334 C2335 1.386 . S
C2334 C2336 1.391 . S
C2335 C2334 1.386 . S
C2335 C2339 1.393 . S
C2336 H2325 0.950 . S
C2336 C2334 1.391 . S
C2336 C2337 1.400 . S
C2337 C2331 1.491 . S
C2337 C2336 1.400 . S
C2337 C2338 1.398 . S
C2338 H2326 0.950 . S
C2338 C2337 1.398 . S
C2338 C2339 1.391 . S
C2339 H2327 0.950 . S
C2339 C2335 1.393 . S
C2339 C2338 1.391 . S
H2340 C2348 0.950 . S
H2341 C2353 0.950 . S
H2342 C2350 0.950 . S
H2343 C2352 0.950 . S
H2344 C2354 0.950 . S
H2345 C2356 0.950 . S
H2346 C2358 0.950 . S
H2347 C2359 0.950 . S
C2348 H2340 0.950 . S
C2348 C2349 1.386 . S
C2348 C2350 1.391 . S
C2349 C2348 1.386 . S
C2349 C2353 1.393 . S
C2350 H2342 0.950 . S
C2350 C2348 1.391 . S
C2350 C2351 1.400 . S
C2351 C2350 1.400 . S
C2351 C2352 1.398 . S
C2351 C2357 1.491 . S
C2352 H2343 0.950 . S
C2352 C2351 1.398 . S
C2352 C2353 1.391 . S
C2353 H2341 0.950 . S
C2353 C2349 1.393 . S
C2353 C2352 1.391 . S
C2354 H2344 0.950 . S
C2354 C2355 1.386 . S
C2354 C2356 1.391 . S
C2355 C2354 1.386 . S
C2355 C2359 1.393 . S
C2356 H2345 0.950 . S
C2356 C2354 1.391 . S
C2356 C2357 1.400 . S
C2357 C2351 1.491 . S
C2357 C2356 1.400 . S
C2357 C2358 1.398 . S
C2358 H2346 0.950 . S
C2358 C2357 1.398 . S
C2358 C2359 1.391 . S
C2359 H2347 0.950 . S
C2359 C2355 1.393 . S
C2359 C2358 1.391 . S
H2360 C2368 0.950 . S
H2361 C2373 0.950 . S
H2362 C2370 0.950 . S
H2363 C2372 0.950 . S
H2364 C2374 0.950 . S
H2365 C2376 0.950 . S
H2366 C2378 0.950 . S
H2367 C2379 0.950 . S
C2368 H2360 0.950 . S
C2368 C2369 1.386 . S
C2368 C2370 1.391 . S
C2369 C2368 1.386 . S
C2369 C2373 1.393 . S
C2370 H2362 0.950 . S
C2370 C2368 1.391 . S
C2370 C2371 1.400 . S
C2371 C2370 1.400 . S
C2371 C2372 1.398 . S
C2371 C2377 1.491 . S
C2372 H2363 0.950 . S
C2372 C2371 1.398 . S
C2372 C2373 1.391 . S
C2373 H2361 0.950 . S
C2373 C2369 1.393 . S
C2373 C2372 1.391 . S
C2374 H2364 0.950 . S
C2374 C2375 1.386 . S
C2374 C2376 1.391 . S
C2375 C2374 1.386 . S
C2375 C2379 1.393 . S
C2376 H2365 0.950 . S
C2376 C2374 1.391 . S
C2376 C2377 1.400 . S
C2377 C2371 1.491 . S
C2377 C2376 1.400 . S
C2377 C2378 1.398 . S
C2378 H2366 0.950 . S
C2378 C2377 1.398 . S
C2378 C2379 1.391 . S
C2379 H2367 0.950 . S
C2379 C2375 1.393 . S
C2379 C2378 1.391 . S
H2380 C2388 0.950 . S
H2381 C2393 0.950 . S
H2382 C2390 0.950 . S
H2383 C2392 0.950 . S
H2384 C2394 0.950 . S
H2385 C2396 0.950 . S
H2386 C2398 0.950 . S
H2387 C2399 0.950 . S
C2388 H2380 0.950 . S
C2388 C2389 1.386 . S
C2388 C2390 1.391 . S
C2389 C2388 1.386 . S
C2389 C2393 1.393 . S
C2390 H2382 0.950 . S
C2390 C2388 1.391 . S
C2390 C2391 1.400 . S
C2391 C2390 1.400 . S
C2391 C2392 1.398 . S
C2391 C2397 1.491 . S
C2392 H2383 0.950 . S
C2392 C2391 1.398 . S
C2392 C2393 1.391 . S
C2393 H2381 0.950 . S
C2393 C2389 1.393 . S
C2393 C2392 1.391 . S
C2394 H2384 0.950 . S
C2394 C2395 1.386 . S
C2394 C2396 1.391 . S
C2395 C2394 1.386 . S
C2395 C2399 1.393 . S
C2396 H2385 0.950 . S
C2396 C2394 1.391 . S
C2396 C2397 1.400 . S
C2397 C2391 1.491 . S
C2397 C2396 1.400 . S
C2397 C2398 1.398 . S
C2398 H2386 0.950 . S
C2398 C2397 1.398 . S
C2398 C2399 1.391 . S
C2399 H2387 0.950 . S
C2399 C2395 1.393 . S
C2399 C2398 1.391 . S
H2400 C2408 0.950 . S
H2401 C2413 0.950 . S
H2402 C2410 0.950 . S
H2403 C2412 0.950 . S
H2404 C2414 0.950 . S
H2405 C2416 0.950 . S
H2406 C2418 0.950 . S
H2407 C2419 0.950 . S
C2408 H2400 0.950 . S
C2408 C2409 1.386 . S
C2408 C2410 1.391 . S
C2409 C2408 1.386 . S
C2409 C2413 1.393 . S
C2410 H2402 0.950 . S
C2410 C2408 1.391 . S
C2410 C2411 1.400 . S
C2411 C2410 1.400 . S
C2411 C2412 1.398 . S
C2411 C2417 1.491 . S
C2412 H2403 0.950 . S
C2412 C2411 1.398 . S
C2412 C2413 1.391 . S
C2413 H2401 0.950 . S
C2413 C2409 1.393 . S
C2413 C2412 1.391 . S
C2414 H2404 0.950 . S
C2414 C2415 1.386 . S
C2414 C2416 1.391 . S
C2415 C2414 1.386 . S
C2415 C2419 1.393 . S
C2416 H2405 0.950 . S
C2416 C2414 1.391 . S
C2416 C2417 1.400 . S
C2417 C2411 1.491 . S
C2417 C2416 1.400 . S
C2417 C2418 1.398 . S
C2418 H2406 0.950 . S
C2418 C2417 1.398 . S
C2418 C2419 1.391 . S
C2419 H2407 0.950 . S
C2419 C2415 1.393 . S
C2419 C2418 1.391 . S
H2420 C2428 0.950 . S
H2421 C2433 0.950 . S
H2422 C2430 0.950 . S
H2423 C2432 0.950 . S
H2424 C2434 0.950 . S
H2425 C2436 0.950 . S
H2426 C2438 0.950 . S
H2427 C2439 0.950 . S
C2428 H2420 0.950 . S
C2428 C2429 1.386 . S
C2428 C2430 1.391 . S
C2429 C2428 1.386 . S
C2429 C2433 1.393 . S
C2430 H2422 0.950 . S
C2430 C2428 1.391 . S
C2430 C2431 1.400 . S
C2431 C2430 1.400 . S
C2431 C2432 1.398 . S
C2431 C2437 1.491 . S
C2432 H2423 0.950 . S
C2432 C2431 1.398 . S
C2432 C2433 1.391 . S
C2433 H2421 0.950 . S
C2433 C2429 1.393 . S
C2433 C2432 1.391 . S
C2434 H2424 0.950 . S
C2434 C2435 1.386 . S
C2434 C2436 1.391 . S
C2435 C2434 1.386 . S
C2435 C2439 1.393 . S
C2436 H2425 0.950 . S
C2436 C2434 1.391 . S
C2436 C2437 1.400 . S
C2437 C2431 1.491 . S
C2437 C2436 1.400 . S
C2437 C2438 1.398 . S
C2438 H2426 0.950 . S
C2438 C2437 1.398 . S
C2438 C2439 1.391 . S
C2439 H2427 0.950 . S
C2439 C2435 1.393 . S
C2439 C2438 1.391 . S
H2440 C2448 0.950 . S
H2441 C2453 0.950 . S
H2442 C2450 0.950 . S
H2443 C2452 0.950 . S
H2444 C2454 0.950 . S
H2445 C2456 0.950 . S
H2446 C2458 0.950 . S
H2447 C2459 0.950 . S
C2448 H2440 0.950 . S
C2448 C2449 1.386 . S
C2448 C2450 1.391 . S
C2449 C2448 1.386 . S
C2449 C2453 1.393 . S
C2450 H2442 0.950 . S
C2450 C2448 1.391 . S
C2450 C2451 1.400 . S
C2451 C2450 1.400 . S
C2451 C2452 1.398 . S
C2451 C2457 1.491 . S
C2452 H2443 0.950 . S
C2452 C2451 1.398 . S
C2452 C2453 1.391 . S
C2453 H2441 0.950 . S
C2453 C2449 1.393 . S
C2453 C2452 1.391 . S
C2454 H2444 0.950 . S
C2454 C2455 1.386 . S
C2454 C2456 1.391 . S
C2455 C2454 1.386 . S
C2455 C2459 1.393 . S
C2456 H2445 0.950 . S
C2456 C2454 1.391 . S
C2456 C2457 1.400 . S
C2457 C2451 1.491 . S
C2457 C2456 1.400 . S
C2457 C2458 1.398 . S
C2458 H2446 0.950 . S
C2458 C2457 1.398 . S
C2458 C2459 1.391 . S
C2459 H2447 0.950 . S
C2459 C2455 1.393 . S
C2459 C2458 1.391 . S
H2460 C2468 0.950 . S
H2461 C2473 0.950 . S
H2462 C2470 0.950 . S
H2463 C2472 0.950 . S
H2464 C2474 0.950 . S
H2465 C2476 0.950 . S
H2466 C2478 0.950 . S
H2467 C2479 0.950 . S
C2468 H2460 0.950 . S
C2468 C2469 1.386 . S
C2468 C2470 1.391 . S
C2469 C2468 1.386 . S
C2469 C2473 1.393 . S
C2470 H2462 0.950 . S
C2470 C2468 1.391 . S
C2470 C2471 1.400 . S
C2471 C2470 1.400 . S
C2471 C2472 1.398 . S
C2471 C2477 1.491 . S
C2472 H2463 0.950 . S
C2472 C2471 1.398 . S
C2472 C2473 1.391 . S
C2473 H2461 0.950 . S
C2473 C2469 1.393 . S
C2473 C2472 1.391 . S
C2474 H2464 0.950 . S
C2474 C2475 1.386 . S
C2474 C2476 1.391 . S
C2475 C2474 1.386 . S
C2475 C2479 1.393 . S
C2476 H2465 0.950 . S
C2476 C2474 1.391 . S
C2476 C2477 1.400 . S
C2477 C2471 1.491 . S
C2477 C2476 1.400 . S
C2477 C2478 1.398 . S
C2478 H2466 0.950 . S
C2478 C2477 1.398 . S
C2478 C2479 1.391 . S
C2479 H2467 0.950 . S
C2479 C2475 1.393 . S
C2479 C2478 1.391 . S
H2480 C2488 0.950 . S
H2481 C2493 0.950 . S
H2482 C2490 0.950 . S
H2483 C2492 0.950 . S
H2484 C2494 0.950 . S
H2485 C2496 0.950 . S
H2486 C2498 0.950 . S
H2487 C2499 0.950 . S
C2488 H2480 0.950 . S
C2488 C2489 1.386 . S
C2488 C2490 1.391 . S
C2489 C2488 1.386 . S
C2489 C2493 1.393 . S
C2490 H2482 0.950 . S
C2490 C2488 1.391 . S
C2490 C2491 1.400 . S
C2491 C2490 1.400 . S
C2491 C2492 1.398 . S
C2491 C2497 1.491 . S
C2492 H2483 0.950 . S
C2492 C2491 1.398 . S
C2492 C2493 1.391 . S
C2493 H2481 0.950 . S
C2493 C2489 1.393 . S
C2493 C2492 1.391 . S
C2494 H2484 0.950 . S
C2494 C2495 1.386 . S
C2494 C2496 1.391 . S
C2495 C2494 1.386 . S
C2495 C2499 1.393 . S
C2496 H2485 0.950 . S
C2496 C2494 1.391 . S
C2496 C2497 1.400 . S
C2497 C2491 1.491 . S
C2497 C2496 1.400 . S
C2497 C2498 1.398 . S
C2498 H2486 0.950 . S
C2498 C2497 1.398 . S
C2498 C2499 1.391 . S
C2499 H2487 0.950 . S
C2499 C2495 1.393 . S
C2499 C2498 1.391 . S
H2500 C2508 0.950 . S
H2501 C2513 0.950 . S
H2502 C2510 0.950 . S
H2503 C2512 0.950 . S
H2504 C2514 0.950 . S
H2505 C2516 0.950 . S
H2506 C2518 0.950 . S
H2507 C2519 0.950 . S
C2508 H2500 0.950 . S
C2508 C2509 1.386 . S
C2508 C2510 1.391 . S
C2509 C2508 1.386 . S
C2509 C2513 1.393 . S
C2510 H2502 0.950 . S
C2510 C2508 1.391 . S
C2510 C2511 1.400 . S
C2511 C2510 1.400 . S
C2511 C2512 1.398 . S
C2511 C2517 1.491 . S
C2512 H2503 0.950 . S
C2512 C2511 1.398 . S
C2512 C2513 1.391 . S
C2513 H2501 0.950 . S
C2513 C2509 1.393 . S
C2513 C2512 1.391 . S
C2514 H2504 0.950 . S
C2514 C2515 1.386 . S
C2514 C2516 1.391 . S
C2515 C2514 1.386 . S
C2515 C2519 1.393 . S
C2516 H2505 0.950 . S
C2516 C2514 1.391 . S
C2516 C2517 1.400 . S
C2517 C2511 1.491 . S
C2517 C2516 1.400 . S
C2517 C2518 1.398 . S
C2518 H2506 0.950 . S
C2518 C2517 1.398 . S
C2518 C2519 1.391 . S
C2519 H2507 0.950 . S
C2519 C2515 1.393 . S
C2519 C2518 1.391 . S
C1449 C781 1.682 . S
C1455 C1092 1.685 . S
C1469 C871 1.751 . S
C1475 C1132 1.798 . S
C1489 C751 1.710 . S
C1495 C1162 1.760 . S
C1509 C691 1.530 . S
C1515 C1122 1.557 . S
C1535 C1172 1.470 . S
C1529 C571 1.397 . S
C1549 C601 1.429 . S
C1555 C1082 1.441 . S
C1575 C1111 1.689 . S
C1569 C661 1.606 . S
C1595 C1151 1.795 . S
C1589 C541 1.730 . S
C1609 C631 1.785 . S
C1615 C1177 1.750 . S
C1629 C811 1.595 . S
C1635 C1137 1.558 . S
C1649 C841 1.440 . S
C1655 C1191 1.473 . S
C1675 C1097 1.431 . S
C1669 C721 1.336 . S
C1695 C1212 1.691 . S
C1689 C61 1.676 . S
C1709 C151 1.763 . S
C1715 C1252 1.800 . S
C1729 C31 1.704 . S
C1735 C1282 1.761 . S
C1749 C1051 1.521 . S
C1755 C1242 1.571 . S
C1769 C931 1.395 . S
C1775 C1292 1.470 . S
C1789 C961 1.430 . S
C1795 C1202 1.445 . S
C1809 C1021 1.622 . S
C1815 C1231 1.696 . S
C1829 C901 1.741 . S
C1835 C1271 1.800 . S
C1855 C1297 1.742 . S
C1849 C991 1.776 . S
C1869 C91 1.597 . S
C1875 C1257 1.562 . S
C1895 C1311 1.476 . S
C1889 C121 1.446 . S
C1909 C1 1.345 . S
C1915 C1217 1.432 . S
C1935 C1332 1.695 . S
C1929 C421 1.690 . S
C1949 C511 1.760 . S
C1955 C1372 1.796 . S
C1975 C1402 1.755 . S
C1969 C391 1.715 . S
C1995 C1362 1.566 . S
C1989 C331 1.519 . S
C2015 C1412 1.472 . S
C2009 C211 1.397 . S
C2029 C241 1.428 . S
C2035 C1322 1.444 . S
C2049 C301 1.606 . S
C2055 C1351 1.689 . S
C2069 C181 1.746 . S
C2075 C1391 1.802 . S
C2095 C1417 1.748 . S
C2089 C271 1.773 . S
C2109 C451 1.587 . S
C2115 C1377 1.575 . S
C2129 C481 1.448 . S
C2135 C1431 1.478 . S
C2149 C361 1.369 . S
C2155 C1337 1.447 . S
C2169 C920 1.309 . S
C2175 C1109 1.319 . S
C2195 C1149 1.857 . S
C2189 C980 1.857 . S
C2209 C1040 1.507 . S
C2215 C1168 1.577 . S
C2229 C380 1.814 . S
C2235 C1128 1.862 . S
C2249 C440 1.546 . S
C2255 C1189 1.579 . S
C2275 C1088 1.314 . S
C2269 C500 1.292 . S
C2289 C200 1.291 . S
C2295 C1229 1.308 . S
C2309 C260 1.859 . S
C2315 C1269 1.861 . S
C2329 C320 1.509 . S
C2335 C1288 1.574 . S
C2349 C740 1.796 . S
C2355 C1248 1.857 . S
C2375 C1309 1.580 . S
C2369 C800 1.546 . S
C2389 C860 1.291 . S
C2395 C1208 1.317 . S
C2409 C560 1.303 . S
C2415 C1349 1.321 . S
C2429 C620 1.868 . S
C2435 C1389 1.859 . S
C2455 C1408 1.581 . S
C2449 C680 1.532 . S
C2469 C20 1.794 . S
C2475 C1368 1.853 . S
C2489 C80 1.546 . S
C2495 C1429 1.581 . S
C2509 C140 1.292 . S
C2515 C1328 1.316 . S
