# Generated by pormake.
# Topology ctn, (3,4)-cn, num edge types: 1
# Building blocks:
#     Node 0, Type 0, BuildingBlock: ESEHIV_clean_linker_0, # of connection points: 3
#     Node 1, Type 0, BuildingBlock: ESEHIV_clean_linker_0, # of connection points: 3
#     Node 2, Type 0, BuildingBlock: ESEHIV_clean_linker_0, # of connection points: 3
#     Node 3, Type 0, BuildingBlock: ESEHIV_clean_linker_0, # of connection points: 3
#     Node 4, Type 0, BuildingBlock: ESEHIV_clean_linker_0, # of connection points: 3
#     Node 5, Type 0, BuildingBlock: ESEHIV_clean_linker_0, # of connection points: 3
#     Node 6, Type 0, BuildingBlock: ESEHIV_clean_linker_0, # of connection points: 3
#     Node 7, Type 0, BuildingBlock: ESEHIV_clean_linker_0, # of connection points: 3
#     Node 8, Type 0, BuildingBlock: ESEHIV_clean_linker_0, # of connection points: 3
#     Node 9, Type 0, BuildingBlock: ESEHIV_clean_linker_0, # of connection points: 3
#     Node 10, Type 0, BuildingBlock: ESEHIV_clean_linker_0, # of connection points: 3
#     Node 11, Type 0, BuildingBlock: ESEHIV_clean_linker_0, # of connection points: 3
#     Node 12, Type 0, BuildingBlock: ESEHIV_clean_linker_0, # of connection points: 3
#     Node 13, Type 0, BuildingBlock: ESEHIV_clean_linker_0, # of connection points: 3
#     Node 14, Type 0, BuildingBlock: ESEHIV_clean_linker_0, # of connection points: 3
#     Node 15, Type 0, BuildingBlock: ESEHIV_clean_linker_0, # of connection points: 3
#     Node 16, Type 1, BuildingBlock: TATPOV_clean_sbu_0, # of connection points: 4
#     Node 17, Type 1, BuildingBlock: TATPOV_clean_sbu_0, # of connection points: 4
#     Node 18, Type 1, BuildingBlock: TATPOV_clean_sbu_0, # of connection points: 4
#     Node 19, Type 1, BuildingBlock: TATPOV_clean_sbu_0, # of connection points: 4
#     Node 20, Type 1, BuildingBlock: TATPOV_clean_sbu_0, # of connection points: 4
#     Node 21, Type 1, BuildingBlock: TATPOV_clean_sbu_0, # of connection points: 4
#     Node 22, Type 1, BuildingBlock: TATPOV_clean_sbu_0, # of connection points: 4
#     Node 23, Type 1, BuildingBlock: TATPOV_clean_sbu_0, # of connection points: 4
#     Node 24, Type 1, BuildingBlock: TATPOV_clean_sbu_0, # of connection points: 4
#     Node 25, Type 1, BuildingBlock: TATPOV_clean_sbu_0, # of connection points: 4
#     Node 26, Type 1, BuildingBlock: TATPOV_clean_sbu_0, # of connection points: 4
#     Node 27, Type 1, BuildingBlock: TATPOV_clean_sbu_0, # of connection points: 4
#     Edge 28, Type (0, 1), BuildingBlock: XUDNAN_clean_linker_2, # of connection points: 2
#     Edge 29, Type (0, 1), BuildingBlock: XUDNAN_clean_linker_2, # of connection points: 2
#     Edge 30, Type (0, 1), BuildingBlock: XUDNAN_clean_linker_2, # of connection points: 2
#     Edge 31, Type (0, 1), BuildingBlock: XUDNAN_clean_linker_2, # of connection points: 2
#     Edge 32, Type (0, 1), BuildingBlock: XUDNAN_clean_linker_2, # of connection points: 2
#     Edge 33, Type (0, 1), BuildingBlock: XUDNAN_clean_linker_2, # of connection points: 2
#     Edge 34, Type (0, 1), BuildingBlock: XUDNAN_clean_linker_2, # of connection points: 2
#     Edge 35, Type (0, 1), BuildingBlock: XUDNAN_clean_linker_2, # of connection points: 2
#     Edge 36, Type (0, 1), BuildingBlock: XUDNAN_clean_linker_2, # of connection points: 2
#     Edge 37, Type (0, 1), BuildingBlock: XUDNAN_clean_linker_2, # of connection points: 2
#     Edge 38, Type (0, 1), BuildingBlock: XUDNAN_clean_linker_2, # of connection points: 2
#     Edge 39, Type (0, 1), BuildingBlock: XUDNAN_clean_linker_2, # of connection points: 2
#     Edge 40, Type (0, 1), BuildingBlock: XUDNAN_clean_linker_2, # of connection points: 2
#     Edge 41, Type (0, 1), BuildingBlock: XUDNAN_clean_linker_2, # of connection points: 2
#     Edge 42, Type (0, 1), BuildingBlock: XUDNAN_clean_linker_2, # of connection points: 2
#     Edge 43, Type (0, 1), BuildingBlock: XUDNAN_clean_linker_2, # of connection points: 2
#     Edge 44, Type (0, 1), BuildingBlock: XUDNAN_clean_linker_2, # of connection points: 2
#     Edge 45, Type (0, 1), BuildingBlock: XUDNAN_clean_linker_2, # of connection points: 2
#     Edge 46, Type (0, 1), BuildingBlock: XUDNAN_clean_linker_2, # of connection points: 2
#     Edge 47, Type (0, 1), BuildingBlock: XUDNAN_clean_linker_2, # of connection points: 2
#     Edge 48, Type (0, 1), BuildingBlock: XUDNAN_clean_linker_2, # of connection points: 2
#     Edge 49, Type (0, 1), BuildingBlock: XUDNAN_clean_linker_2, # of connection points: 2
#     Edge 50, Type (0, 1), BuildingBlock: XUDNAN_clean_linker_2, # of connection points: 2
#     Edge 51, Type (0, 1), BuildingBlock: XUDNAN_clean_linker_2, # of connection points: 2
#     Edge 52, Type (0, 1), BuildingBlock: XUDNAN_clean_linker_2, # of connection points: 2
#     Edge 53, Type (0, 1), BuildingBlock: XUDNAN_clean_linker_2, # of connection points: 2
#     Edge 54, Type (0, 1), BuildingBlock: XUDNAN_clean_linker_2, # of connection points: 2
#     Edge 55, Type (0, 1), BuildingBlock: XUDNAN_clean_linker_2, # of connection points: 2
#     Edge 56, Type (0, 1), BuildingBlock: XUDNAN_clean_linker_2, # of connection points: 2
#     Edge 57, Type (0, 1), BuildingBlock: XUDNAN_clean_linker_2, # of connection points: 2
#     Edge 58, Type (0, 1), BuildingBlock: XUDNAN_clean_linker_2, # of connection points: 2
#     Edge 59, Type (0, 1), BuildingBlock: XUDNAN_clean_linker_2, # of connection points: 2
#     Edge 60, Type (0, 1), BuildingBlock: XUDNAN_clean_linker_2, # of connection points: 2
#     Edge 61, Type (0, 1), BuildingBlock: XUDNAN_clean_linker_2, # of connection points: 2
#     Edge 62, Type (0, 1), BuildingBlock: XUDNAN_clean_linker_2, # of connection points: 2
#     Edge 63, Type (0, 1), BuildingBlock: XUDNAN_clean_linker_2, # of connection points: 2
#     Edge 64, Type (0, 1), BuildingBlock: XUDNAN_clean_linker_2, # of connection points: 2
#     Edge 65, Type (0, 1), BuildingBlock: XUDNAN_clean_linker_2, # of connection points: 2
#     Edge 66, Type (0, 1), BuildingBlock: XUDNAN_clean_linker_2, # of connection points: 2
#     Edge 67, Type (0, 1), BuildingBlock: XUDNAN_clean_linker_2, # of connection points: 2
#     Edge 68, Type (0, 1), BuildingBlock: XUDNAN_clean_linker_2, # of connection points: 2
#     Edge 69, Type (0, 1), BuildingBlock: XUDNAN_clean_linker_2, # of connection points: 2
#     Edge 70, Type (0, 1), BuildingBlock: XUDNAN_clean_linker_2, # of connection points: 2
#     Edge 71, Type (0, 1), BuildingBlock: XUDNAN_clean_linker_2, # of connection points: 2
#     Edge 72, Type (0, 1), BuildingBlock: XUDNAN_clean_linker_2, # of connection points: 2
#     Edge 73, Type (0, 1), BuildingBlock: XUDNAN_clean_linker_2, # of connection points: 2
#     Edge 74, Type (0, 1), BuildingBlock: XUDNAN_clean_linker_2, # of connection points: 2
#     Edge 75, Type (0, 1), BuildingBlock: XUDNAN_clean_linker_2, # of connection points: 2
# Relax obj value: 0.003
# Max RMSD: 0.047
# Mean RMSD: 0.021
data_MOF--net-ctn--node1-TATPOV_clean_sbu_0--node2-ESEHIV_clean_linker_0--edge1-XUDNAN_clean_linker_2
_symmetry_space_group_name_H-M    P1
_symmetry_Int_Tables_number       1
_symmetry_cell_setting            triclinic
loop_
_symmetry_equiv_pos_as_xyz
'x, y, z'
_cell_length_a     51.386603
_cell_length_b     51.453994
_cell_length_c     51.378677
_cell_angle_alpha  91.093452
_cell_angle_beta   91.334625
_cell_angle_gamma 91.27647
loop_
_atom_site_label
_atom_site_type_symbol
_atom_site_fract_x
_atom_site_fract_y
_atom_site_fract_z
_atom_type_partial_charge
H0 H 0.99074 0.07761 0.04482 0.0
H1 H 0.02746 0.00983 0.07473 0.0
H2 H 0.06044 0.05024 0.01013 0.0
C3 C 0.00629 0.06374 0.04429 0.0
C4 C 0.0255 0.06632 0.02546 0.0
C5 C 0.00696 0.04372 0.06248 0.0
C6 C 0.02677 0.02535 0.06083 0.0
C7 C 0.04609 0.02724 0.04184 0.0
C8 C 0.04518 0.04784 0.02413 0.0
H9 H 0.27845 0.67351 0.2577 0.0
H10 H 0.30519 0.72616 0.19964 0.0
H11 H 0.22615 0.69548 0.1966 0.0
C12 C 0.2749 0.68447 0.24021 0.0
C13 C 0.25058 0.68202 0.22745 0.0
C14 C 0.29465 0.70065 0.2305 0.0
C15 C 0.28957 0.71465 0.20769 0.0
C16 C 0.26487 0.71319 0.19496 0.0
C17 C 0.24553 0.69672 0.2053 0.0
H18 H 0.97948 0.49105 0.08305 0.0
H19 H 0.00599 0.41414 0.06521 0.0
H20 H 0.9671 0.45813 0.00613 0.0
C21 C 0.98184 0.47512 0.06925 0.0
C22 C 0.97261 0.47737 0.04349 0.0
C23 C 0.99377 0.4522 0.07725 0.0
C24 C 0.99628 0.43159 0.05919 0.0
C25 C 0.98663 0.43332 0.03347 0.0
C26 C 0.97508 0.45651 0.02574 0.0
H27 H 0.68942 0.7339 0.17085 0.0
H28 H 0.75126 0.78618 0.14916 0.0
H29 H 0.70737 0.80271 0.2175 0.0
C30 C 0.70128 0.75128 0.17475 0.0
C31 C 0.69624 0.76732 0.19652 0.0
C32 C 0.7207 0.75842 0.15723 0.0
C33 C 0.73572 0.78119 0.1622 0.0
C34 C 0.73119 0.79732 0.18387 0.0
C35 C 0.7113 0.79025 0.20087 0.0
H36 H 0.02083 0.9546 0.43703 0.0
H37 H 0.0733 0.01213 0.40615 0.0
H38 H 0.09897 0.96259 0.46763 0.0
C39 C 0.03966 0.96444 0.43677 0.0
C40 C 0.05938 0.95606 0.45379 0.0
C41 C 0.04423 0.98458 0.4192 0.0
C42 C 0.0689 0.99708 0.41992 0.0
C43 C 0.0885 0.98974 0.43775 0.0
C44 C 0.08355 0.96929 0.45483 0.0
H45 H 0.18524 0.77003 0.77226 0.0
H46 H 0.24291 0.72413 0.81098 0.0
H47 H 0.20936 0.69798 0.73764 0.0
C48 C 0.19745 0.75317 0.77283 0.0
C49 C 0.19601 0.73506 0.75193 0.0
C50 C 0.21409 0.74948 0.79452 0.0
C51 C 0.22948 0.7272 0.79483 0.0
C52 C 0.22762 0.70838 0.77465 0.0
C53 C 0.21124 0.71268 0.753 0.0
H54 H 0.91402 0.55832 0.53437 0.0
H55 H 0.98463 0.57617 0.49472 0.0
H56 H 0.93273 0.51551 0.46464 0.0
C57 C 0.92687 0.55468 0.51834 0.0
C58 C 0.92074 0.53473 0.49998 0.0
C59 C 0.94999 0.56951 0.51657 0.0
C60 C 0.96685 0.56459 0.49609 0.0
C61 C 0.96075 0.54527 0.47714 0.0
C62 C 0.93777 0.53024 0.47937 0.0
H63 H 0.79203 0.81283 0.84537 0.0
H64 H 0.83039 0.86979 0.79863 0.0
H65 H 0.85434 0.79018 0.79638 0.0
C66 C 0.80738 0.8182 0.83227 0.0
C67 C 0.82388 0.79888 0.82304 0.0
C68 C 0.80926 0.84378 0.82327 0.0
C69 C 0.82844 0.84999 0.80521 0.0
C70 C 0.84454 0.83076 0.79494 0.0
C71 C 0.84231 0.80529 0.80428 0.0
H72 H 0.29207 0.3348 0.37192 0.0
H73 H 0.3308 0.36654 0.3059 0.0
H74 H 0.36257 0.3009 0.34488 0.0
C75 C 0.30824 0.33482 0.35874 0.0
C76 C 0.32728 0.31572 0.36096 0.0
C77 C 0.30943 0.35339 0.33904 0.0
C78 C 0.33007 0.35277 0.32159 0.0
C79 C 0.34928 0.33387 0.32356 0.0
C80 C 0.34795 0.3157 0.34352 0.0
H81 H 0.48969 0.97122 0.58999 0.0
H82 H 0.52975 0.90533 0.5603 0.0
H83 H 0.47479 0.94449 0.51107 0.0
C84 C 0.49343 0.95789 0.574 0.0
C85 C 0.47956 0.95996 0.55022 0.0
C86 C 0.51155 0.93824 0.57768 0.0
C87 C 0.51623 0.92082 0.55705 0.0
C88 C 0.5035 0.92298 0.53263 0.0
C89 C 0.48511 0.94272 0.52951 0.0
H90 H 0.211 0.22343 0.70996 0.0
H91 H 0.27065 0.2711 0.67619 0.0
H92 H 0.22306 0.30245 0.73665 0.0
C93 C 0.22166 0.2418 0.70916 0.0
C94 C 0.21483 0.26248 0.72566 0.0
C95 C 0.24158 0.24477 0.6911 0.0
C96 C 0.25481 0.26893 0.6896 0.0
C97 C 0.2485 0.28987 0.70618 0.0
C98 C 0.22826 0.28645 0.72393 0.0
H99 H 0.79367 0.17261 0.76217 0.0
H100 H 0.80574 0.23673 0.71111 0.0
H101 H 0.73167 0.19631 0.71045 0.0
C102 C 0.78625 0.1857 0.74762 0.0
C103 C 0.7605 0.18239 0.73784 0.0
C104 C 0.80287 0.20493 0.73764 0.0
C105 C 0.79322 0.22139 0.71838 0.0
C106 C 0.76767 0.2184 0.70834 0.0
C107 C 0.75136 0.1989 0.71825 0.0
H108 H 0.49069 0.57362 0.52553 0.0
H109 H 0.53305 0.51189 0.56199 0.0
H110 H 0.55258 0.53642 0.48542 0.0
C111 C 0.50618 0.55968 0.52545 0.0
C112 C 0.52153 0.55734 0.50324 0.0
C113 C 0.50978 0.54305 0.54675 0.0
C114 C 0.52971 0.52465 0.54577 0.0
C115 C 0.54492 0.52196 0.52359 0.0
C116 C 0.54072 0.53837 0.50251 0.0
H117 H 0.50853 0.46314 0.93724 0.0
H118 H 0.57553 0.50495 0.90947 0.0
H119 H 0.57993 0.46564 0.9825 0.0
C120 C 0.52849 0.47008 0.94 0.0
C121 C 0.54251 0.46314 0.96251 0.0
C122 C 0.54003 0.48529 0.92075 0.0
C123 C 0.56629 0.49318 0.92405 0.0
C124 C 0.58079 0.48573 0.94611 0.0
C125 C 0.56883 0.47076 0.96522 0.0
H126 H 0.68044 0.26111 0.27882 0.0
H127 H 0.72254 0.20323 0.32063 0.0
H128 H 0.69465 0.18701 0.24224 0.0
C129 C 0.68899 0.24206 0.27954 0.0
C130 C 0.68619 0.22513 0.25785 0.0
C131 C 0.70194 0.23435 0.30236 0.0
C132 C 0.71274 0.20954 0.30301 0.0
C133 C 0.71047 0.19245 0.28137 0.0
C134 C 0.69708 0.20031 0.25878 0.0
H135 H 0.41482 0.07168 0.02447 0.0
H136 H 0.48214 0.08755 0.9795 0.0
H137 H 0.43501 0.01948 0.96156 0.0
C138 C 0.42738 0.06595 0.00887 0.0
C139 C 0.42196 0.04301 0.99404 0.0
C140 C 0.44938 0.0816 0.00408 0.0
C141 C 0.4653 0.07525 0.98329 0.0
C142 C 0.45974 0.05333 0.96737 0.0
C143 C 0.4385 0.03693 0.97328 0.0
Zn144 Zn 0.27922 0.85027 0.00222 0.0
Zn145 Zn 0.23604 0.87555 0.01132 0.0
O146 O 0.23721 0.84691 0.03914 0.0
O147 O 0.27712 0.83235 0.03687 0.0
O148 O 0.20414 0.89582 0.02114 0.0
O149 O 0.29952 0.88404 0.99908 0.0
O150 O 0.2653 0.90379 0.01437 0.0
C151 C 0.25535 0.83272 0.04786 0.0
C152 C 0.24036 0.8434 0.96125 0.0
O153 O 0.22881 0.86117 0.97386 0.0
O154 O 0.2612 0.83401 0.9703 0.0
C155 C 0.19054 0.90947 0.00579 0.0
O156 O 0.19648 0.91037 0.98109 0.0
C157 C 0.28892 0.90445 0.00734 0.0
Zn158 Zn 0.09111 0.44318 0.30581 0.0
Zn159 Zn 0.11003 0.48966 0.28991 0.0
O160 O 0.08653 0.49833 0.3205 0.0
O161 O 0.07144 0.46094 0.3346 0.0
O162 O 0.1258 0.52497 0.28253 0.0
O163 O 0.12776 0.43086 0.31239 0.0
O164 O 0.14256 0.46863 0.29896 0.0
C165 C 0.0727 0.48553 0.33629 0.0
C166 C 0.0763 0.45638 0.25227 0.0
O167 O 0.08962 0.47728 0.25673 0.0
O168 O 0.0744 0.43944 0.26978 0.0
C169 C 0.13604 0.5321 0.26147 0.0
O170 O 0.1359 0.51592 0.24137 0.0
C171 C 0.14675 0.44601 0.30761 0.0
Zn172 Zn 0.80308 0.58225 0.93048 0.0
Zn173 Zn 0.78939 0.61407 0.9689 0.0
O174 O 0.82387 0.59922 0.98375 0.0
O175 O 0.83737 0.57779 0.94916 0.0
O176 O 0.77787 0.64021 0.99599 0.0
O177 O 0.80034 0.61053 0.90414 0.0
O178 O 0.79427 0.63755 0.93701 0.0
C179 C 0.84115 0.58603 0.97233 0.0
C180 C 0.75535 0.56616 0.95316 0.0
O181 O 0.75844 0.5877 0.96565 0.0
O182 O 0.77253 0.55845 0.93773 0.0
C183 C 0.77097 0.63553 0.0191 0.0
O184 O 0.77154 0.61159 0.02749 0.0
C185 C 0.79768 0.6335 0.91277 0.0
Zn186 Zn 0.83801 0.98506 0.29487 0.0
Zn187 Zn 0.85725 0.00634 0.25196 0.0
O188 O 0.82978 0.0334 0.26157 0.0
O189 O 0.81497 0.01651 0.29756 0.0
O190 O 0.87488 0.02043 0.22008 0.0
O191 O 0.87346 0.98494 0.31244 0.0
O192 O 0.88834 0.00543 0.2784 0.0
C193 C 0.81459 0.03433 0.28083 0.0
C194 C 0.82856 0.95245 0.25015 0.0
O195 O 0.84056 0.97105 0.23908 0.0
O196 O 0.82506 0.95354 0.27444 0.0
C197 C 0.88839 0.00568 0.20581 0.0
O198 O 0.88984 0.98093 0.21139 0.0
C199 C 0.89203 0.99602 0.30093 0.0
Zn200 Zn 0.3129 0.09677 0.45144 0.0
Zn201 Zn 0.29344 0.11306 0.49689 0.0
O202 O 0.32478 0.09082 0.50789 0.0
O203 O 0.34159 0.07842 0.47075 0.0
O204 O 0.28143 0.12917 0.53065 0.0
O205 O 0.31837 0.13349 0.4395 0.0
O206 O 0.3019 0.14632 0.47657 0.0
C207 C 0.34201 0.07856 0.49541 0.0
C208 C 0.25944 0.07897 0.45999 0.0
O209 O 0.26205 0.09135 0.48169 0.0
O210 O 0.27809 0.07859 0.44426 0.0
C211 C 0.28123 0.11787 0.55243 0.0
O212 O 0.28803 0.09344 0.55357 0.0
C213 C 0.31146 0.15166 0.45459 0.0
Zn214 Zn 0.34542 0.49629 0.78495 0.0
Zn215 Zn 0.36515 0.51223 0.74209 0.0
O216 O 0.33939 0.54203 0.75169 0.0
O217 O 0.3223 0.52665 0.78724 0.0
O218 O 0.38246 0.52505 0.70932 0.0
O219 O 0.37938 0.49807 0.80438 0.0
O220 O 0.39722 0.50976 0.76779 0.0
C221 C 0.32378 0.54436 0.77057 0.0
C222 C 0.33559 0.45905 0.74437 0.0
O223 O 0.34734 0.47631 0.73109 0.0
O224 O 0.33257 0.46292 0.76848 0.0
C225 C 0.39697 0.51035 0.69605 0.0
O226 O 0.39983 0.48617 0.70318 0.0
C227 C 0.39939 0.5044 0.7919 0.0
Zn228 Zn 0.77767 0.3413 0.50748 0.0
Zn229 Zn 0.7336 0.36734 0.51411 0.0
O230 O 0.73445 0.34466 0.54707 0.0
O231 O 0.77086 0.32368 0.54138 0.0
O232 O 0.69977 0.38673 0.51507 0.0
O233 O 0.7979 0.37516 0.50715 0.0
O234 O 0.76193 0.39662 0.51348 0.0
C235 C 0.75102 0.32819 0.5548 0.0
C236 C 0.74163 0.33083 0.46603 0.0
O237 O 0.72827 0.34646 0.47955 0.0
O238 O 0.76428 0.32502 0.47375 0.0
C239 C 0.69343 0.40454 0.53107 0.0
O240 O 0.70963 0.4115 0.55024 0.0
C241 C 0.78649 0.3965 0.51028 0.0
Zn242 Zn 0.597 0.94139 0.80944 0.0
Zn243 Zn 0.61968 0.98586 0.79343 0.0
O244 O 0.59233 0.99704 0.82003 0.0
O245 O 0.57279 0.96099 0.83238 0.0
O246 O 0.63893 0.01989 0.78735 0.0
O247 O 0.63093 0.92939 0.82485 0.0
O248 O 0.64972 0.96346 0.80718 0.0
C249 C 0.57527 0.9855 0.83357 0.0
C250 C 0.59184 0.95083 0.75326 0.0
O251 O 0.60352 0.97252 0.75844 0.0
O252 O 0.58781 0.93471 0.77119 0.0
C253 C 0.64632 0.02979 0.76619 0.0
O254 O 0.64061 0.01773 0.74395 0.0
C255 C 0.65126 0.94248 0.81984 0.0
Zn256 Zn 0.00874 0.29414 0.83587 0.0
Zn257 Zn 0.01151 0.25079 0.86486 0.0
O258 O 0.04667 0.25117 0.84577 0.0
O259 O 0.04527 0.28765 0.82405 0.0
O260 O 0.0141 0.22207 0.8911 0.0
O261 O 0.0029 0.31728 0.8676 0.0
O262 O 0.00583 0.28153 0.89009 0.0
C263 C 0.05722 0.2674 0.83049 0.0
C264 C 0.96963 0.2536 0.82218 0.0
O265 O 0.97968 0.24122 0.84104 0.0
O266 O 0.97866 0.27576 0.81618 0.0
C267 C 0.01994 0.19825 0.88882 0.0
O268 O 0.02526 0.18846 0.8658 0.0
C269 C 0.00272 0.30599 0.88927 0.0
Zn270 Zn 0.50041 0.78923 0.32889 0.0
Zn271 Zn 0.50968 0.74554 0.35613 0.0
O272 O 0.54042 0.74534 0.33108 0.0
O273 O 0.53457 0.78208 0.31056 0.0
O274 O 0.51361 0.71365 0.37855 0.0
O275 O 0.50018 0.81071 0.36245 0.0
O276 O 0.51192 0.77567 0.38338 0.0
C277 C 0.54769 0.76182 0.31432 0.0
C278 C 0.45982 0.75076 0.32122 0.0
O279 O 0.47418 0.73849 0.33718 0.0
O280 O 0.46663 0.77334 0.31424 0.0
C281 C 0.51038 0.69093 0.36864 0.0
O282 O 0.50552 0.68842 0.34349 0.0
C283 C 0.50697 0.79985 0.38336 0.0
Zn284 Zn 0.95758 0.79352 0.59163 0.0
Zn285 Zn 1.00127 0.79025 0.62023 0.0
O286 O 0.01245 0.8147 0.59065 0.0
O287 O 0.9778 0.81248 0.56451 0.0
O288 O 0.03461 0.78498 0.64082 0.0
O289 O 0.94166 0.81309 0.62144 0.0
O290 O 0.97595 0.80591 0.64664 0.0
C291 C 1.00095 0.82036 0.56933 0.0
C292 C 0.9725 0.74127 0.59685 0.0
O293 O 0.99197 0.7526 0.60838 0.0
O294 O 0.95368 0.75452 0.58859 0.0
C295 C 0.05356 0.77526 0.6288 0.0
O296 O 0.05083 0.77015 0.60372 0.0
C297 C 0.95313 0.81478 0.64351 0.0
Zn298 Zn 0.44252 0.29824 0.1092 0.0
Zn299 Zn 0.49255 0.29592 0.12696 0.0
O300 O 0.49449 0.32668 0.10184 0.0
O301 O 0.4536 0.32925 0.08827 0.0
O302 O 0.52945 0.29183 0.14063 0.0
O303 O 0.43115 0.30411 0.14601 0.0
O304 O 0.47184 0.30286 0.16028 0.0
C305 C 0.47697 0.33763 0.08819 0.0
C306 C 0.46547 0.24972 0.09686 0.0
O307 O 0.48488 0.2607 0.10877 0.0
O308 O 0.44434 0.26169 0.09416 0.0
C309 C 0.53517 0.27096 0.15216 0.0
O310 O 0.51688 0.25304 0.15499 0.0
C311 C 0.44771 0.30556 0.16465 0.0
H312 H 0.22295 0.73899 0.84651 0.0
H313 H 0.20673 0.80274 0.79462 0.0
H314 H 0.20678 0.83293 0.8324 0.0
H315 H 0.1877 0.76098 0.90196 0.0
H316 H 0.21227 0.75104 0.92507 0.0
H317 H 0.20799 0.73387 0.89433 0.0
H318 H 0.25663 0.74223 0.88427 0.0
H319 H 0.26114 0.75913 0.91508 0.0
H320 H 0.26968 0.77506 0.88542 0.0
H321 H 0.20915 0.85654 0.87655 0.0
H322 H 0.21964 0.872 0.92174 0.0
H323 H 0.23953 0.79362 0.94279 0.0
C324 C 0.21968 0.75929 0.84276 0.0
C325 C 0.21461 0.76817 0.81726 0.0
C326 C 0.20998 0.79504 0.81383 0.0
C327 C 0.2101 0.81247 0.83523 0.0
C328 C 0.21527 0.80294 0.85997 0.0
C329 C 0.22042 0.77703 0.86371 0.0
C330 C 0.22765 0.77193 0.89183 0.0
C331 C 0.20771 0.75336 0.90401 0.0
C332 C 0.25542 0.76148 0.89428 0.0
C333 C 0.22607 0.7991 0.90334 0.0
C334 C 0.21828 0.81667 0.88486 0.0
C335 C 0.21533 0.84295 0.89114 0.0
C336 C 0.22116 0.85154 0.91682 0.0
C337 C 0.23042 0.83398 0.93555 0.0
C338 C 0.23254 0.80743 0.92874 0.0
H339 H 0.97603 0.49899 0.45518 0.0
H340 H 0.98476 0.58271 0.44846 0.0
H341 H 0.01472 0.57651 0.41216 0.0
H342 H 0.04188 0.48351 0.44137 0.0
H343 H 0.03335 0.45441 0.42271 0.0
H344 H 0.0125 0.46534 0.4482 0.0
H345 H 0.97345 0.4659 0.41538 0.0
H346 H 0.99416 0.45485 0.38981 0.0
H347 H 0.97621 0.4843 0.38602 0.0
H348 H 0.04394 0.56136 0.37689 0.0
H349 H 0.06977 0.53818 0.34429 0.0
H350 H 0.04142 0.46431 0.37341 0.0
C351 C 0.98405 0.51602 0.44592 0.0
C352 C 0.97818 0.54134 0.4548 0.0
C353 C 0.98932 0.56312 0.44231 0.0
C354 C 0.00624 0.55981 0.42158 0.0
C355 C 0.01178 0.53461 0.41347 0.0
C356 C 1.00096 0.51308 0.42516 0.0
C357 C 0.01014 0.48812 0.41265 0.0
C358 C 0.02538 0.4719 0.43242 0.0
C359 C 0.98712 0.47237 0.40023 0.0
C360 C 0.02782 0.49901 0.39215 0.0
C361 C 0.02851 0.52587 0.39297 0.0
C362 C 0.04354 0.54032 0.376 0.0
C363 C 0.05817 0.52696 0.35758 0.0
C364 C 0.05765 0.49942 0.35625 0.0
C365 C 0.04227 0.48537 0.37388 0.0
H366 H 0.81603 0.782 0.8727 0.0
H367 H 0.82347 0.75427 0.79294 0.0
H368 H 0.81652 0.70915 0.80716 0.0
H369 H 0.84863 0.72933 0.90327 0.0
H370 H 0.82728 0.72834 0.9306 0.0
H371 H 0.83289 0.75844 0.9141 0.0
H372 H 0.78319 0.76272 0.90621 0.0
H373 H 0.77743 0.73255 0.92259 0.0
H374 H 0.76498 0.73661 0.88986 0.0
H375 H 0.80867 0.66721 0.8299 0.0
H376 H 0.802 0.63094 0.85983 0.0
H377 H 0.79892 0.68591 0.92486 0.0
C378 C 0.81609 0.76644 0.85821 0.0
C379 C 0.82044 0.77166 0.83172 0.0
C380 C 0.82062 0.75073 0.8134 0.0
C381 C 0.81646 0.72505 0.82125 0.0
C382 C 0.8121 0.72063 0.84747 0.0
C383 C 0.81195 0.7407 0.8657 0.0
C384 C 0.80707 0.73062 0.89272 0.0
C385 C 0.83036 0.73706 0.91126 0.0
C386 C 0.78165 0.74126 0.90347 0.0
C387 C 0.80462 0.7017 0.88684 0.0
C388 C 0.80748 0.6964 0.8606 0.0
C389 C 0.80636 0.67111 0.85048 0.0
C390 C 0.80255 0.65063 0.86767 0.0
C391 C 0.79991 0.65553 0.89473 0.0
C392 C 0.80072 0.68149 0.9043 0.0
H393 H 0.00598 0.95241 0.39617 0.0
H394 H 0.03548 0.03235 0.39677 0.0
H395 H 0.0023 0.04288 0.36348 0.0
H396 H 0.98672 0.94611 0.3291 0.0
H397 H 0.95722 0.92798 0.33554 0.0
H398 H 0.98503 0.92596 0.35736 0.0
H399 H 0.95695 0.9402 0.39616 0.0
H400 H 0.92901 0.94199 0.37454 0.0
H401 H 0.93914 0.96993 0.39426 0.0
H402 H 0.96545 0.04452 0.32949 0.0
H403 H 0.92484 0.03859 0.30274 0.0
H404 H 0.91655 0.9596 0.32968 0.0
C405 C 0.00549 0.97231 0.38983 0.0
C406 C 0.02381 0.99142 0.39932 0.0
C407 C 0.02232 0.01701 0.38956 0.0
C408 C 0.00337 0.02329 0.37068 0.0
C409 C 0.98565 0.00395 0.36201 0.0
C410 C 0.9863 0.97911 0.37166 0.0
C411 C 0.96387 0.96233 0.36083 0.0
C412 C 0.97382 0.93923 0.34475 0.0
C413 C 0.9462 0.95308 0.38275 0.0
C414 C 0.95035 0.98165 0.34365 0.0
C415 C 0.96351 0.00539 0.34406 0.0
C416 C 0.95492 0.02607 0.32918 0.0
C417 C 0.93197 0.02251 0.31397 0.0
C418 C 0.91765 0.99872 0.31435 0.0
C419 C 0.92712 0.97804 0.32921 0.0
H420 H 0.25035 0.24435 0.63844 0.0
H421 H 0.24845 0.19449 0.70556 0.0
H422 H 0.25802 0.15661 0.67744 0.0
H423 H 0.21963 0.19887 0.59332 0.0
H424 H 0.23934 0.20807 0.56628 0.0
H425 H 0.23302 0.23147 0.59175 0.0
H426 H 0.2826 0.23945 0.5994 0.0
H427 H 0.28906 0.2162 0.57384 0.0
H428 H 0.30315 0.21227 0.60594 0.0
H429 H 0.26745 0.12405 0.642 0.0
H430 H 0.27651 0.09918 0.60175 0.0
H431 H 0.27188 0.17011 0.55756 0.0
C432 C 0.25225 0.2255 0.64723 0.0
C433 C 0.2486 0.22235 0.67419 0.0
C434 C 0.2509 0.1973 0.68492 0.0
C435 C 0.25642 0.17569 0.66912 0.0
C436 C 0.25957 0.17939 0.64259 0.0
C437 C 0.25762 0.20366 0.63171 0.0
C438 C 0.26148 0.20222 0.60256 0.0
C439 C 0.2369 0.21065 0.5876 0.0
C440 C 0.28551 0.2185 0.595 0.0
C441 C 0.26591 0.17338 0.59879 0.0
C442 C 0.26477 0.16057 0.62213 0.0
C443 C 0.26839 0.13386 0.62359 0.0
C444 C 0.2735 0.11989 0.60061 0.0
C445 C 0.27485 0.13262 0.57645 0.0
C446 C 0.27086 0.15973 0.57566 0.0
H447 H 0.4906 0.50181 0.57451 0.0
H448 H 0.48822 0.58595 0.57026 0.0
H449 H 0.45799 0.58677 0.60697 0.0
H450 H 0.42423 0.49045 0.59094 0.0
H451 H 0.43144 0.46468 0.61308 0.0
H452 H 0.45234 0.47072 0.58609 0.0
H453 H 0.49213 0.47605 0.61781 0.0
H454 H 0.4714 0.46986 0.64489 0.0
H455 H 0.49114 0.49925 0.64449 0.0
H456 H 0.42771 0.57815 0.64451 0.0
H457 H 0.40163 0.56105 0.68053 0.0
H458 H 0.42568 0.48286 0.66102 0.0
C459 C 0.48409 0.52052 0.58142 0.0
C460 C 0.49195 0.54384 0.56934 0.0
C461 C 0.48231 0.56776 0.57884 0.0
C462 C 0.4652 0.56844 0.59981 0.0
C463 C 0.45793 0.54507 0.6112 0.0
C464 C 0.46722 0.52158 0.6024 0.0
C465 C 0.45686 0.49922 0.61822 0.0
C466 C 0.44023 0.48015 0.60105 0.0
C467 C 0.47921 0.48528 0.63218 0.0
C468 C 0.4403 0.51377 0.63738 0.0
C469 C 0.44101 0.54018 0.63294 0.0
C470 C 0.42708 0.5575 0.64816 0.0
C471 C 0.41226 0.54759 0.66855 0.0
C472 C 0.4116 0.52061 0.67369 0.0
C473 C 0.42577 0.50358 0.65771 0.0
H474 H 0.79435 0.23091 0.66496 0.0
H475 H 0.72106 0.24354 0.70286 0.0
H476 H 0.70793 0.2731 0.66751 0.0
H477 H 0.80484 0.29579 0.6445 0.0
H478 H 0.81898 0.28622 0.61411 0.0
H479 H 0.82174 0.26556 0.64186 0.0
H480 H 0.80061 0.22718 0.6149 0.0
H481 H 0.79787 0.24771 0.58703 0.0
H482 H 0.76936 0.23125 0.599 0.0
H483 H 0.70407 0.303 0.62797 0.0
H484 H 0.70913 0.32836 0.58771 0.0
H485 H 0.78524 0.29523 0.57731 0.0
C486 C 0.77555 0.23994 0.66592 0.0
C487 C 0.75879 0.2351 0.68674 0.0
C488 C 0.73414 0.2469 0.68699 0.0
C489 C 0.7266 0.2638 0.66708 0.0
C490 C 0.74388 0.26849 0.64704 0.0
C491 C 0.76777 0.25669 0.64633 0.0
C492 C 0.78301 0.26482 0.62296 0.0
C493 C 0.80865 0.27894 0.63137 0.0
C494 C 0.78799 0.24134 0.60491 0.0
C495 C 0.7641 0.28322 0.61059 0.0
C496 C 0.74161 0.28522 0.62463 0.0
C497 C 0.72158 0.30146 0.6168 0.0
C498 C 0.72464 0.31583 0.59396 0.0
C499 C 0.74754 0.31378 0.57926 0.0
C500 C 0.76741 0.29726 0.58793 0.0
H501 H 0.53379 0.97631 0.61017 0.0
H502 H 0.51867 0.89305 0.60371 0.0
H503 H 0.53999 0.88735 0.64661 0.0
H504 H 0.59703 0.97306 0.64345 0.0
H505 H 0.59164 0.00095 0.66424 0.0
H506 H 0.57627 0.9986 0.63237 0.0
H507 H 0.53109 0.00414 0.65284 0.0
H508 H 0.54631 0.0066 0.68475 0.0
H509 H 0.52098 0.98243 0.67802 0.0
H510 H 0.56068 0.89059 0.69063 0.0
H511 H 0.5796 0.90249 0.73376 0.0
H512 H 0.58192 0.98378 0.71249 0.0
C513 C 0.535 0.95689 0.6178 0.0
C514 C 0.52475 0.93508 0.60346 0.0
C515 C 0.52679 0.90998 0.61408 0.0
C516 C 0.53877 0.90655 0.63849 0.0
C517 C 0.54868 0.9284 0.65207 0.0
C518 C 0.54698 0.95309 0.64218 0.0
C519 C 0.55864 0.97331 0.66124 0.0
C520 C 0.5823 0.9873 0.64963 0.0
C521 C 0.53802 0.99276 0.66971 0.0
C522 C 0.56679 0.9561 0.68351 0.0
C523 C 0.5609 0.93027 0.67768 0.0
C524 C 0.56556 0.91071 0.69539 0.0
C525 C 0.57627 0.91771 0.71987 0.0
C526 C 0.58231 0.94406 0.7265 0.0
C527 C 0.5778 0.96346 0.70789 0.0
H528 H 0.82392 0.20523 0.78773 0.0
H529 H 0.8447 0.21069 0.70658 0.0
H530 H 0.89038 0.21975 0.71982 0.0
H531 H 0.86406 0.25634 0.81141 0.0
H532 H 0.87369 0.24133 0.84144 0.0
H533 H 0.84296 0.23244 0.82587 0.0
H534 H 0.85582 0.18406 0.82498 0.0
H535 H 0.88661 0.19279 0.8407 0.0
H536 H 0.88581 0.17487 0.81019 0.0
H537 H 0.93195 0.23373 0.74113 0.0
H538 H 0.96838 0.24942 0.76984 0.0
H539 H 0.92276 0.23271 0.83768 0.0
C540 C 0.83825 0.20772 0.7728 0.0
C541 C 0.83071 0.20747 0.74611 0.0
C542 C 0.84994 0.21118 0.72713 0.0
C543 C 0.87599 0.21616 0.73444 0.0
C544 C 0.88267 0.21703 0.76084 0.0
C545 C 0.86452 0.21263 0.77979 0.0
C546 C 0.87687 0.21615 0.80683 0.0
C547 C 0.86361 0.23786 0.82229 0.0
C548 C 0.87624 0.19043 0.82154 0.0
C549 C 0.90452 0.22403 0.80002 0.0
C550 C 0.90734 0.22429 0.77333 0.0
C551 C 0.93022 0.23305 0.76206 0.0
C552 C 0.95074 0.242 0.77847 0.0
C553 C 0.94842 0.24181 0.80583 0.0
C554 C 0.92517 0.23235 0.81679 0.0
H555 H 0.4704 0.90471 0.49222 0.0
H556 H 0.54972 0.89857 0.52271 0.0
H557 H 0.55799 0.86498 0.48962 0.0
H558 H 0.45858 0.8389 0.47348 0.0
H559 H 0.44176 0.84598 0.44335 0.0
H560 H 0.44118 0.86877 0.47037 0.0
H561 H 0.45963 0.90519 0.44146 0.0
H562 H 0.45997 0.88261 0.41425 0.0
H563 H 0.4894 0.90005 0.4244 0.0
H564 H 0.55696 0.82978 0.455 0.0
H565 H 0.54898 0.80083 0.41642 0.0
H566 H 0.47323 0.83455 0.40421 0.0
C567 C 0.4897 0.89679 0.49189 0.0
C568 C 0.50908 0.90413 0.51091 0.0
C569 C 0.53398 0.89276 0.50934 0.0
C570 C 0.53906 0.87373 0.49036 0.0
C571 C 0.51937 0.86668 0.47242 0.0
C572 C 0.49543 0.87834 0.47253 0.0
C573 C 0.47818 0.86828 0.45001 0.0
C574 C 0.45346 0.85468 0.45991 0.0
C575 C 0.4714 0.89035 0.43142 0.0
C576 C 0.49611 0.84897 0.43742 0.0
C577 C 0.5196 0.84799 0.45099 0.0
C578 C 0.53881 0.83064 0.44397 0.0
C579 C 0.53408 0.8142 0.42219 0.0
C580 C 0.51064 0.81571 0.40739 0.0
C581 C 0.49143 0.83329 0.41513 0.0
H582 H 0.17565 0.29605 0.73698 0.0
H583 H 0.20598 0.22084 0.75715 0.0
H584 H 0.16999 0.21438 0.78766 0.0
H585 H 0.15435 0.3141 0.80187 0.0
H586 H 0.12566 0.32984 0.7897 0.0
H587 H 0.15439 0.32881 0.7703 0.0
H588 H 0.12735 0.30725 0.73218 0.0
H589 H 0.09858 0.30819 0.75145 0.0
H590 H 0.10889 0.27773 0.73768 0.0
H591 H 0.12958 0.21573 0.81518 0.0
H592 H 0.08789 0.22453 0.83653 0.0
H593 H 0.08479 0.29897 0.79829 0.0
C594 C 0.17497 0.27838 0.74809 0.0
C595 C 0.19366 0.25896 0.74467 0.0
C596 C 0.19173 0.23589 0.75924 0.0
C597 C 0.17146 0.23211 0.77675 0.0
C598 C 0.15327 0.25161 0.77952 0.0
C599 C 0.15488 0.27429 0.76559 0.0
C600 C 0.13244 0.29187 0.77143 0.0
C601 C 0.14231 0.31768 0.78408 0.0
C602 C 0.11584 0.29652 0.74672 0.0
C603 C 0.1178 0.27543 0.79062 0.0
C604 C 0.13014 0.25234 0.7952 0.0
C605 C 0.11981 0.23383 0.81183 0.0
C606 C 0.09613 0.23899 0.82389 0.0
C607 C 0.08301 0.26243 0.81916 0.0
C608 C 0.09427 0.28088 0.80245 0.0
H609 H 0.51889 0.61076 0.50119 0.0
H610 H 0.51464 0.54064 0.45294 0.0
H611 H 0.51055 0.5672 0.4136 0.0
H612 H 0.47313 0.64852 0.46216 0.0
H613 H 0.4915 0.67855 0.46697 0.0
H614 H 0.49254 0.65403 0.49152 0.0
H615 H 0.54283 0.65387 0.48926 0.0
H616 H 0.54194 0.67824 0.46458 0.0
H617 H 0.55783 0.64794 0.45839 0.0
H618 H 0.50836 0.60098 0.37948 0.0
H619 H 0.50789 0.64004 0.35248 0.0
H620 H 0.51446 0.68888 0.42232 0.0
C621 C 0.51668 0.60108 0.48235 0.0
C622 C 0.51704 0.57365 0.48006 0.0
C623 C 0.51453 0.56163 0.45507 0.0
C624 C 0.51214 0.57654 0.43264 0.0
C625 C 0.51236 0.60351 0.43546 0.0
C626 C 0.5145 0.61574 0.45963 0.0
C627 C 0.51517 0.64509 0.457 0.0
C628 C 0.49168 0.65726 0.47019 0.0
C629 C 0.54098 0.65697 0.46795 0.0
C630 C 0.51322 0.64738 0.4276 0.0
C631 C 0.51149 0.62312 0.41562 0.0
C632 C 0.50964 0.6201 0.38864 0.0
C633 C 0.50942 0.64244 0.37344 0.0
C634 C 0.51118 0.66758 0.38519 0.0
C635 C 0.51316 0.66997 0.41269 0.0
H636 H 0.89301 0.81112 0.78425 0.0
H637 H 0.83409 0.86264 0.75407 0.0
H638 H 0.85967 0.86918 0.71493 0.0
H639 H 0.95052 0.844 0.75513 0.0
H640 H 0.96554 0.81353 0.74753 0.0
H641 H 0.94511 0.81632 0.77547 0.0
H642 H 0.91649 0.77744 0.75795 0.0
H643 H 0.93678 0.77454 0.73004 0.0
H644 H 0.90222 0.77862 0.72561 0.0
H645 H 0.88752 0.86551 0.67668 0.0
H646 H 0.9161 0.85151 0.64146 0.0
H647 H 0.95716 0.8018 0.69507 0.0
C648 C 0.88565 0.82409 0.76961 0.0
C649 C 0.86161 0.83663 0.77261 0.0
C650 C 0.85274 0.85336 0.75281 0.0
C651 C 0.86709 0.85713 0.73033 0.0
C652 C 0.89034 0.84407 0.72779 0.0
C653 C 0.89966 0.82793 0.74687 0.0
C654 C 0.92382 0.81415 0.73805 0.0
C655 C 0.94766 0.82251 0.75506 0.0
C656 C 0.91956 0.78444 0.7379 0.0
C657 C 0.92599 0.82434 0.71067 0.0
C658 C 0.90665 0.84186 0.70535 0.0
C659 C 0.90307 0.85223 0.68073 0.0
C660 C 0.91934 0.8441 0.66084 0.0
C661 C 0.93897 0.82581 0.66565 0.0
C662 C 0.94272 0.81629 0.69105 0.0
H663 H 0.06308 0.9473 0.50669 0.0
H664 H 0.04577 0.90956 0.4319 0.0
H665 H 0.0343 0.8689 0.45386 0.0
H666 H 0.08893 0.88828 0.53984 0.0
H667 H 0.07414 0.89668 0.57025 0.0
H668 H 0.08465 0.92195 0.54877 0.0
H669 H 0.03828 0.9407 0.54845 0.0
H670 H 0.02764 0.91551 0.56983 0.0
H671 H 0.01084 0.91986 0.53909 0.0
H672 H 0.01908 0.83492 0.48288 0.0
H673 H 0.00153 0.80837 0.51814 0.0
H674 H 0.02935 0.86624 0.57524 0.0
C675 C 0.05751 0.93021 0.49507 0.0
C676 C 0.0553 0.93141 0.46765 0.0
C677 C 0.04747 0.90894 0.45294 0.0
C678 C 0.04107 0.88575 0.46522 0.0
C679 C 0.04273 0.88526 0.49226 0.0
C680 C 0.0509 0.90675 0.50712 0.0
C681 C 0.04872 0.90136 0.53597 0.0
C682 C 0.07572 0.90211 0.54951 0.0
C683 C 0.03027 0.92049 0.54909 0.0
C684 C 0.03717 0.87391 0.53486 0.0
C685 C 0.03419 0.86502 0.50938 0.0
C686 C 0.02182 0.84135 0.50295 0.0
C687 C 0.01185 0.82647 0.52305 0.0
C688 C 0.01449 0.83515 0.54927 0.0
C689 C 0.02776 0.85892 0.55535 0.0
H690 H 0.14593 0.75273 0.75304 0.0
H691 H 0.20494 0.72663 0.70002 0.0
H692 H 0.17498 0.73417 0.66271 0.0
H693 H 0.09067 0.72513 0.71775 0.0
H694 H 0.06998 0.75207 0.72486 0.0
H695 H 0.09595 0.7442 0.74729 0.0
H696 H 0.11466 0.79125 0.74468 0.0
H697 H 0.08876 0.79926 0.72221 0.0
H698 H 0.12221 0.80433 0.71337 0.0
H699 H 0.13861 0.74493 0.63122 0.0
H700 H 0.09845 0.75748 0.60788 0.0
H701 H 0.06373 0.77766 0.6816 0.0
C702 C 0.1527 0.74882 0.73358 0.0
C703 C 0.17787 0.73917 0.72946 0.0
C704 C 0.18568 0.73379 0.70368 0.0
C705 C 0.16886 0.73816 0.68237 0.0
C706 C 0.1443 0.74791 0.68716 0.0
C707 C 0.13623 0.75314 0.71213 0.0
C708 C 0.10887 0.76351 0.71204 0.0
C709 C 0.09027 0.74513 0.72633 0.0
C710 C 0.10863 0.79123 0.72376 0.0
C711 C 0.10279 0.76338 0.68307 0.0
C712 C 0.12346 0.75427 0.66906 0.0
C713 C 0.12233 0.75211 0.64199 0.0
C714 C 0.09941 0.75931 0.62891 0.0
C715 C 0.07793 0.76863 0.64288 0.0
C716 C 0.07982 0.77076 0.67033 0.0
H717 H 0.91917 0.60989 0.52966 0.0
H718 H 0.99536 0.57811 0.54446 0.0
H719 H 0.00781 0.61698 0.57142 0.0
H720 H 0.94085 0.67274 0.52021 0.0
H721 H 0.91387 0.68846 0.53525 0.0
H722 H 0.90944 0.65646 0.52097 0.0
H723 H 0.89275 0.63917 0.56474 0.0
H724 H 0.89697 0.67125 0.57918 0.0
H725 H 0.91251 0.64396 0.59397 0.0
H726 H 0.01342 0.66113 0.59273 0.0
H727 H 0.0123 0.70758 0.60561 0.0
H728 H 0.9327 0.71084 0.57577 0.0
C729 C 0.93815 0.61081 0.5393 0.0
C730 C 0.95624 0.591 0.53534 0.0
C731 C 0.98124 0.59313 0.54746 0.0
C732 C 0.9884 0.61504 0.56286 0.0
C733 C 0.97033 0.63461 0.56587 0.0
C734 C 0.94569 0.63267 0.55448 0.0
C735 C 0.9309 0.65748 0.55842 0.0
C736 C 0.92334 0.66949 0.53215 0.0
C737 C 0.90686 0.65267 0.57507 0.0
C738 C 0.95135 0.67397 0.57308 0.0
C739 C 0.97379 0.6603 0.57761 0.0
C740 C 0.99583 0.67194 0.5896 0.0
C741 C 0.99501 0.69834 0.59682 0.0
C742 C 0.97241 0.71287 0.59172 0.0
C743 C 0.95023 0.70028 0.58008 0.0
H744 H 0.74992 0.81804 0.23065 0.0
H745 H 0.74831 0.83194 0.14753 0.0
H746 H 0.77531 0.87174 0.15502 0.0
H747 H 0.74362 0.88466 0.25033 0.0
H748 H 0.7647 0.88206 0.27866 0.0
H749 H 0.7464 0.85399 0.26645 0.0
H750 H 0.78913 0.82845 0.26294 0.0
H751 H 0.80759 0.85652 0.27496 0.0
H752 H 0.81545 0.84152 0.24423 0.0
H753 H 0.80215 0.9107 0.17181 0.0
H754 H 0.82438 0.94666 0.19684 0.0
H755 H 0.80683 0.90771 0.26879 0.0
C756 C 0.75506 0.82949 0.214 0.0
C757 C 0.74709 0.82164 0.18847 0.0
C758 C 0.75456 0.83718 0.16725 0.0
C759 C 0.76981 0.85992 0.1713 0.0
C760 C 0.7774 0.867 0.1967 0.0
C761 C 0.77013 0.85231 0.21769 0.0
C762 C 0.78006 0.86459 0.24311 0.0
C763 C 0.75734 0.87176 0.26066 0.0
C764 C 0.7992 0.8467 0.25713 0.0
C765 C 0.79386 0.88859 0.23317 0.0
C766 C 0.79234 0.88956 0.20634 0.0
C767 C 0.80347 0.91013 0.19284 0.0
C768 C 0.81612 0.93043 0.20721 0.0
C769 C 0.81733 0.93007 0.23477 0.0
C770 C 0.80626 0.90865 0.24775 0.0
H771 H 0.74476 0.16864 0.24867 0.0
H772 H 0.70099 0.15725 0.31886 0.0
H773 H 0.72174 0.11495 0.32512 0.0
H774 H 0.74402 0.09984 0.22674 0.0
H775 H 0.77685 0.10169 0.21517 0.0
H776 H 0.75699 0.13013 0.21491 0.0
H777 H 0.79255 0.15552 0.24216 0.0
H778 H 0.8124 0.12713 0.24269 0.0
H779 H 0.80363 0.14277 0.27282 0.0
H780 H 0.7486 0.07564 0.32541 0.0
H781 H 0.7797 0.04056 0.31954 0.0
H782 H 0.80726 0.07681 0.24927 0.0
C783 C 0.73924 0.15691 0.26502 0.0
C784 C 0.72123 0.16606 0.28327 0.0
C785 C 0.71478 0.15053 0.30474 0.0
C786 C 0.72642 0.1265 0.30841 0.0
C787 C 0.74451 0.11826 0.29045 0.0
C788 C 0.75088 0.13286 0.26911 0.0
C789 C 0.77195 0.1199 0.25355 0.0
C790 C 0.76184 0.11244 0.22596 0.0
C791 C 0.79659 0.13737 0.25277 0.0
C792 C 0.77658 0.09595 0.26969 0.0
C793 C 0.76039 0.09543 0.29078 0.0
C794 C 0.76128 0.0757 0.30889 0.0
C795 C 0.77912 0.05587 0.30537 0.0
C796 C 0.79601 0.05581 0.28392 0.0
C797 C 0.79462 0.07621 0.26583 0.0
H798 H 0.39322 0.00889 0.96123 0.0
H799 H 0.39968 0.03567 0.0421 0.0
H800 H 0.36299 0.00691 0.0527 0.0
H801 H 0.32395 0.99685 0.9566 0.0
H802 H 0.3268 0.96706 0.93796 0.0
H803 H 0.35114 0.9926 0.93551 0.0
H804 H 0.38724 0.96048 0.94822 0.0
H805 H 0.36306 0.93482 0.95048 0.0
H806 H 0.38456 0.94257 0.9779 0.0
H807 H 0.32547 0.97461 0.05493 0.0
H808 H 0.29499 0.93669 0.04977 0.0
H809 H 0.31823 0.92629 0.96979 0.0
C810 C 0.38732 0.00881 0.98128 0.0
C811 C 0.39949 0.02536 0.00055 0.0
C812 C 0.39038 0.02428 0.02646 0.0
C813 C 0.36955 0.00772 0.03286 0.0
C814 C 0.35827 0.99174 0.01339 0.0
C815 C 0.36721 0.99174 0.98826 0.0
C816 C 0.35366 0.97069 0.9716 0.0
C817 C 0.33795 0.98252 0.94909 0.0
C818 C 0.3733 0.95098 0.96147 0.0
C819 C 0.33588 0.9587 0.99139 0.0
C820 C 0.33829 0.97158 0.01521 0.0
C821 C 0.3235 0.96429 0.03641 0.0
C822 C 0.30621 0.94288 0.03332 0.0
C823 C 0.3045 0.92873 0.00947 0.0
C824 C 0.31935 0.93686 0.98824 0.0
H825 H 0.25675 0.34429 0.34154 0.0
H826 H 0.3143 0.40521 0.32784 0.0
H827 H 0.279 0.43593 0.31898 0.0
H828 H 0.21191 0.36143 0.29198 0.0
H829 H 0.18338 0.35395 0.31042 0.0
H830 H 0.21314 0.33713 0.31677 0.0
H831 H 0.21219 0.35145 0.36538 0.0
H832 H 0.18231 0.36817 0.35922 0.0
H833 H 0.21 0.38549 0.37381 0.0
H834 H 0.2372 0.4595 0.30998 0.0
H835 H 0.19226 0.47431 0.3025 0.0
H836 H 0.16241 0.39791 0.32287 0.0
C837 C 0.26197 0.36422 0.33719 0.0
C838 C 0.28831 0.37237 0.33547 0.0
C839 C 0.29426 0.39848 0.32908 0.0
C840 C 0.27435 0.41609 0.32412 0.0
C841 C 0.2486 0.4073 0.3257 0.0
C842 C 0.24238 0.38201 0.3322 0.0
C843 C 0.21321 0.37725 0.33196 0.0
C844 C 0.20493 0.35619 0.31157 0.0
C845 C 0.20389 0.37018 0.35922 0.0
C846 C 0.20396 0.40376 0.32414 0.0
C847 C 0.22463 0.42085 0.32063 0.0
C848 C 0.22085 0.44632 0.31283 0.0
C849 C 0.19525 0.45453 0.30858 0.0
C850 C 0.17376 0.43732 0.31215 0.0
C851 C 0.17834 0.41162 0.32008 0.0
H852 H 0.11852 0.01142 0.47808 0.0
H853 H 0.11782 0.99542 0.39485 0.0
H854 H 0.1613 0.01632 0.39197 0.0
H855 H 0.14988 0.07464 0.47525 0.0
H856 H 0.16901 0.07111 0.50478 0.0
H857 H 0.13807 0.05418 0.50072 0.0
H858 H 0.16031 0.0104 0.50939 0.0
H859 H 0.19131 0.0272 0.51355 0.0
H860 H 0.18741 0.00096 0.48993 0.0
H861 H 0.20432 0.03831 0.39773 0.0
H862 H 0.24475 0.06153 0.41146 0.0
H863 H 0.2181 0.06518 0.49107 0.0
C864 C 0.12768 0.01224 0.45934 0.0
C865 C 0.11486 0.00192 0.43664 0.0
C866 C 0.12725 0.00346 0.41238 0.0
C867 C 0.15195 0.01518 0.41058 0.0
C868 C 0.16398 0.02541 0.4332 0.0
C869 C 0.15233 0.02419 0.45712 0.0
C870 C 0.16947 0.03734 0.47822 0.0
C871 C 0.15579 0.06071 0.49046 0.0
C872 C 0.1776 0.01781 0.499 0.0
C873 C 0.19253 0.04606 0.46234 0.0
C874 C 0.18889 0.03877 0.43647 0.0
C875 C 0.20741 0.04418 0.41792 0.0
C876 C 0.23037 0.05737 0.42597 0.0
C877 C 0.23467 0.06524 0.45236 0.0
C878 C 0.21536 0.05956 0.47075 0.0
H879 H 0.73044 0.14738 0.70873 0.0
H880 H 0.75242 0.16907 0.78837 0.0
H881 H 0.7245 0.13322 0.80426 0.0
H882 H 0.66325 0.12901 0.72066 0.0
H883 H 0.66288 0.102 0.69778 0.0
H884 H 0.68388 0.12988 0.69276 0.0
H885 H 0.72374 0.1 0.69098 0.0
H886 H 0.70289 0.07204 0.69599 0.0
H887 H 0.7304 0.07871 0.71769 0.0
H888 H 0.69439 0.09506 0.81138 0.0
H889 H 0.66577 0.05598 0.80947 0.0
H890 H 0.66398 0.05838 0.72498 0.0
C891 C 0.72912 0.14475 0.72953 0.0
C892 C 0.74346 0.16109 0.74737 0.0
C893 C 0.74167 0.15671 0.7744 0.0
C894 C 0.72578 0.1365 0.78358 0.0
C895 C 0.71194 0.12074 0.76547 0.0
C896 C 0.71354 0.12454 0.739 0.0
C897 C 0.69737 0.10428 0.72363 0.0
C898 C 0.67555 0.11706 0.70778 0.0
C899 C 0.71464 0.08778 0.70604 0.0
C900 C 0.68646 0.08843 0.7456 0.0
C901 C 0.69497 0.09839 0.76956 0.0
C902 C 0.68761 0.08708 0.79273 0.0
C903 C 0.67129 0.06487 0.79141 0.0
C904 C 0.66259 0.05402 0.76707 0.0
C905 C 0.67025 0.06614 0.74389 0.0
H906 H 0.46596 0.98856 0.50709 0.0
H907 H 0.44466 0.97484 0.58711 0.0
H908 H 0.40934 0.00609 0.5828 0.0
H909 H 0.45082 0.05701 0.5055 0.0
H910 H 0.43742 0.05495 0.47277 0.0
H911 H 0.46255 0.03313 0.48275 0.0
H912 H 0.43288 0.99361 0.46896 0.0
H913 H 0.40773 0.01529 0.45886 0.0
H914 H 0.40081 0.99054 0.48223 0.0
H915 H 0.37517 0.0379 0.56943 0.0
H916 H 0.3435 0.06587 0.5471 0.0
H917 H 0.38555 0.05674 0.47529 0.0
C918 C 0.4539 0.99202 0.52375 0.0
C919 C 0.45849 0.97934 0.54757 0.0
C920 C 0.44217 0.98472 0.56884 0.0
C921 C 0.42186 0.00236 0.56656 0.0
C922 C 0.41788 0.01439 0.54282 0.0
C923 C 0.43334 0.00934 0.52173 0.0
C924 C 0.42406 0.02376 0.49796 0.0
C925 C 0.44496 0.04338 0.48924 0.0
C926 C 0.41588 0.00466 0.47569 0.0
C927 C 0.4008 0.03745 0.5089 0.0
C928 C 0.39773 0.03206 0.53489 0.0
C929 C 0.3774 0.04231 0.54908 0.0
C930 C 0.35954 0.05821 0.53625 0.0
C931 C 0.36197 0.06347 0.50944 0.0
C932 C 0.38308 0.05308 0.49578 0.0
H933 H 0.58503 0.51109 0.55793 0.0
H934 H 0.54855 0.48604 0.48445 0.0
H935 H 0.58134 0.45202 0.4796 0.0
H936 H 0.65043 0.50333 0.53783 0.0
H937 H 0.66233 0.49195 0.56877 0.0
H938 H 0.635 0.51322 0.56747 0.0
H939 H 0.60729 0.47962 0.59236 0.0
H940 H 0.63456 0.45824 0.59376 0.0
H941 H 0.60382 0.44674 0.5798 0.0
H942 H 0.6183 0.42159 0.48205 0.0
H943 H 0.6584 0.39756 0.49057 0.0
H944 H 0.67232 0.44284 0.56197 0.0
C945 C 0.58384 0.49819 0.54103 0.0
C946 C 0.56426 0.50108 0.52156 0.0
C947 C 0.56349 0.48417 0.49948 0.0
C948 C 0.58193 0.46474 0.49663 0.0
C949 C 0.60115 0.46254 0.51598 0.0
C950 C 0.60235 0.47882 0.53771 0.0
C951 C 0.62584 0.47303 0.55492 0.0
C952 C 0.6445 0.4968 0.55738 0.0
C953 C 0.61736 0.46386 0.5818 0.0
C954 C 0.63771 0.45111 0.53935 0.0
C955 C 0.62296 0.44524 0.5171 0.0
C956 C 0.63 0.42595 0.49944 0.0
C957 C 0.65285 0.41238 0.50448 0.0
C958 C 0.66861 0.41826 0.52694 0.0
C959 C 0.66074 0.43783 0.54466 0.0
H960 H 0.74333 0.24308 0.3365 0.0
H961 H 0.66318 0.26453 0.32166 0.0
H962 H 0.66486 0.29254 0.36123 0.0
H963 H 0.73843 0.23875 0.40558 0.0
H964 H 0.77082 0.25169 0.41232 0.0
H965 H 0.76363 0.2343 0.38217 0.0
H966 H 0.78034 0.27384 0.35632 0.0
H967 H 0.78759 0.29136 0.38639 0.0
H968 H 0.76659 0.30531 0.36206 0.0
H969 H 0.67501 0.31745 0.40317 0.0
H970 H 0.6929 0.33718 0.44422 0.0
H971 H 0.76593 0.29838 0.43188 0.0
C972 C 0.72609 0.25359 0.34158 0.0
C973 C 0.70318 0.2517 0.32585 0.0
C974 C 0.68113 0.26602 0.33311 0.0
C975 C 0.68183 0.28185 0.35565 0.0
C976 C 0.70469 0.28315 0.37076 0.0
C977 C 0.72641 0.2694 0.36403 0.0
C978 C 0.7484 0.27375 0.38384 0.0
C979 C 0.75574 0.2481 0.39674 0.0
C980 C 0.77213 0.28685 0.3714 0.0
C981 C 0.7356 0.29197 0.40286 0.0
C982 C 0.71042 0.29725 0.39496 0.0
C983 C 0.69473 0.31349 0.40953 0.0
C984 C 0.70506 0.3246 0.43282 0.0
C985 C 0.73081 0.31934 0.44132 0.0
C986 C 0.74617 0.30282 0.426 0.0
H987 H 0.47766 0.00601 0.95024 0.0
H988 H 0.47926 0.08831 0.93296 0.0
H989 H 0.50872 0.07999 0.8967 0.0
H990 H 0.5436 0.99384 0.93681 0.0
H991 H 0.53717 0.96229 0.92188 0.0
H992 H 0.51575 0.97457 0.94623 0.0
H993 H 0.47639 0.96839 0.91406 0.0
H994 H 0.49768 0.95593 0.88965 0.0
H995 H 0.47744 0.98319 0.88257 0.0
H996 H 0.53961 0.06305 0.86356 0.0
H997 H 0.56798 0.03817 0.83444 0.0
H998 H 0.54451 0.96683 0.87211 0.0
C999 C 0.48386 0.02224 0.93861 0.0
C1000 C 0.47629 0.04785 0.94464 0.0
C1001 C 0.48517 0.06858 0.92907 0.0
C1002 C 0.50178 0.06404 0.90831 0.0
C1003 C 0.50915 0.03864 0.90314 0.0
C1004 C 0.50029 0.01805 0.91767 0.0
C1005 C 0.51126 0.99263 0.90812 0.0
C1006 C 0.52794 0.98011 0.92954 0.0
C1007 C 0.48939 0.97394 0.89799 0.0
C1008 C 0.52786 0.00221 0.88615 0.0
C1009 C 0.52644 0.02881 0.88362 0.0
C1010 C 0.54073 0.04217 0.86519 0.0
C1011 C 0.55684 0.02789 0.8488 0.0
C1012 C 0.55836 1.00056 0.8509 0.0
C1013 C 0.54359 0.98767 0.86983 0.0
H1014 H 0.33524 0.26384 0.35293 0.0
H1015 H 0.31274 0.31972 0.41213 0.0
H1016 H 0.30709 0.28397 0.44325 0.0
H1017 H 0.29095 0.21348 0.36922 0.0
H1018 H 0.31324 0.18771 0.36278 0.0
H1019 H 0.31606 0.21779 0.34565 0.0
H1020 H 0.36418 0.22323 0.36149 0.0
H1021 H 0.36154 0.1931 0.37862 0.0
H1022 H 0.37198 0.22249 0.39586 0.0
H1023 H 0.30296 0.24145 0.46748 0.0
H1024 H 0.30066 0.1961 0.48259 0.0
H1025 H 0.32697 0.16905 0.40728 0.0
C1026 C 0.32957 0.2687 0.37257 0.0
C1027 C 0.32462 0.29462 0.38015 0.0
C1028 C 0.31651 0.29998 0.40585 0.0
C1029 C 0.31339 0.27983 0.42368 0.0
C1030 C 0.31847 0.25449 0.41549 0.0
C1031 C 0.32644 0.24894 0.39054 0.0
C1032 C 0.33016 0.22012 0.38626 0.0
C1033 C 0.31149 0.20914 0.36471 0.0
C1034 C 0.35866 0.21441 0.38021 0.0
C1035 C 0.32291 0.21021 0.41269 0.0
C1036 C 0.31624 0.23026 0.42934 0.0
C1037 C 0.30829 0.22562 0.45463 0.0
C1038 C 0.30703 0.1998 0.46303 0.0
C1039 C 0.31372 0.17899 0.44617 0.0
C1040 C 0.32189 0.18446 0.42075 0.0
H1041 H 0.48919 0.49988 0.91882 0.0
H1042 H 0.55518 0.4864 0.86956 0.0
H1043 H 0.52737 0.49412 0.83057 0.0
H1044 H 0.44393 0.46505 0.87981 0.0
H1045 H 0.41732 0.4863 0.88627 0.0
H1046 H 0.44332 0.48344 0.91 0.0
H1047 H 0.45153 0.53335 0.90965 0.0
H1048 H 0.42546 0.53638 0.88591 0.0
H1049 H 0.45754 0.54908 0.87925 0.0
H1050 H 0.49052 0.49986 0.79655 0.0
H1051 H 0.44863 0.50183 0.7716 0.0
H1052 H 0.40765 0.50907 0.84415 0.0
C1053 C 0.49794 0.4987 0.89987 0.0
C1054 C 0.52439 0.49247 0.8973 0.0
C1055 C 0.53505 0.49147 0.87209 0.0
C1056 C 0.51936 0.49572 0.84982 0.0
C1057 C 0.49312 0.50105 0.8531 0.0
C1058 C 0.48259 0.5026 0.87759 0.0
C1059 C 0.45358 0.50658 0.87613 0.0
C1060 C 0.43868 0.484 0.88879 0.0
C1061 C 0.44663 0.53292 0.88846 0.0
C1062 C 0.44917 0.5064 0.84696 0.0
C1063 C 0.47215 0.50362 0.83386 0.0
C1064 C 0.47247 0.50223 0.80667 0.0
C1065 C 0.44863 0.50338 0.79265 0.0
C1066 C 0.4249 0.50546 0.80593 0.0
C1067 C 0.42543 0.50734 0.83339 0.0
H1068 H 0.72725 0.70546 0.15163 0.0
H1069 H 0.72427 0.77687 0.10821 0.0
H1070 H 0.73522 0.75281 0.06812 0.0
H1071 H 0.78159 0.67953 0.11989 0.0
H1072 H 0.76985 0.64625 0.11948 0.0
H1073 H 0.7598 0.6685 0.14459 0.0
H1074 H 0.71141 0.65844 0.13226 0.0
H1075 H 0.7213 0.636 0.10721 0.0
H1076 H 0.70016 0.66228 0.09909 0.0
H1077 H 0.74899 0.7221 0.03351 0.0
H1078 H 0.7637 0.68604 0.00575 0.0
H1079 H 0.75789 0.63382 0.07093 0.0
C1080 C 0.72845 0.71586 0.13356 0.0
C1081 C 0.72498 0.74304 0.133 0.0
C1082 C 0.72708 0.7561 0.10908 0.0
C1083 C 0.73319 0.7426 0.0862 0.0
C1084 C 0.7371 0.71597 0.08747 0.0
C1085 C 0.73469 0.70264 0.11043 0.0
C1086 C 0.74096 0.67416 0.10646 0.0
C1087 C 0.76445 0.66668 0.12362 0.0
C1088 C 0.71703 0.65669 0.11156 0.0
C1089 C 0.74759 0.67373 0.07781 0.0
C1090 C 0.74511 0.69808 0.06729 0.0
C1091 C 0.75083 0.70288 0.04144 0.0
C1092 C 0.75926 0.68224 0.02584 0.0
C1093 C 0.76194 0.65702 0.03608 0.0
C1094 C 0.75593 0.6528 0.06245 0.0
H1095 H 0.98384 1.00071 0.08505 0.0
H1096 H 0.98706 0.08517 0.08931 0.0
H1097 H 0.95547 0.08453 0.12452 0.0
H1098 H 0.9158 0.99198 0.09925 0.0
H1099 H 0.92083 0.96401 0.1192 0.0
H1100 H 0.94267 0.97094 0.09316 0.0
H1101 H 0.98192 0.97108 0.12575 0.0
H1102 H 0.96023 0.96404 0.15185 0.0
H1103 H 0.98182 0.99212 0.15421 0.0
H1104 H 0.92384 0.07499 0.15973 0.0
H1105 H 0.89631 0.05696 0.19408 0.0
H1106 H 0.91538 0.97879 0.1688 0.0
C1107 C 0.97804 0.01911 0.0934 0.0
C1108 C 0.98779 0.043 0.08392 0.0
C1109 C 0.97944 0.06657 0.09553 0.0
C1110 C 0.9616 0.06645 0.11575 0.0
C1111 C 0.95236 0.04261 0.12448 0.0
C1112 C 0.96042 0.01936 0.11385 0.0
C1113 C 0.94826 0.99643 0.12758 0.0
C1114 C 0.93085 0.97987 0.10867 0.0
C1115 C 0.96932 0.97995 0.14062 0.0
C1116 C 0.93223 0.01046 0.14764 0.0
C1117 C 0.93469 0.03709 0.14535 0.0
C1118 C 0.92177 0.05415 0.16173 0.0
C1119 C 0.90611 0.04372 0.18115 0.0
C1120 C 0.90368 0.01647 0.18421 0.0
C1121 C 0.91684 0.99971 0.16704 0.0
H1122 H 0.28777 0.76002 0.17984 0.0
H1123 H 0.22946 0.70159 0.15455 0.0
H1124 H 0.21808 0.7282 0.11717 0.0
H1125 H 0.25602 0.81691 0.15813 0.0
H1126 H 0.28518 0.83207 0.14605 0.0
H1127 H 0.28727 0.8099 0.1727 0.0
H1128 H 0.31954 0.78175 0.14711 0.0
H1129 H 0.31783 0.80401 0.12053 0.0
H1130 H 0.31054 0.76991 0.11482 0.0
H1131 H 0.21176 0.76189 0.08289 0.0
H1132 H 0.21671 0.79614 0.04999 0.0
H1133 H 0.28362 0.82847 0.09325 0.0
C1134 C 0.2728 0.75239 0.16647 0.0
C1135 C 0.25913 0.72872 0.1711 0.0
C1136 C 0.2396 0.72006 0.15263 0.0
C1137 C 0.23306 0.73498 0.13099 0.0
C1138 C 0.24669 0.75823 0.12739 0.0
C1139 C 0.26664 0.76654 0.1442 0.0
C1140 C 0.27983 0.79107 0.13456 0.0
C1141 C 0.27689 0.81383 0.15402 0.0
C1142 C 0.30864 0.7864 0.12892 0.0
C1143 C 0.26412 0.79522 0.10971 0.0
C1144 C 0.24465 0.77641 0.1063 0.0
C1145 C 0.22708 0.77659 0.08521 0.0
C1146 C 0.2299 0.79615 0.06676 0.0
C1147 C 0.25051 0.81474 0.06923 0.0
C1148 C 0.26772 0.81436 0.09102 0.0
H1149 H 0.02307 0.48687 0.10805 0.0
H1150 H 0.98538 0.41053 0.10805 0.0
H1151 H 0.00241 0.40375 0.15258 0.0
H1152 H 0.08097 0.46933 0.14276 0.0
H1153 H 0.08422 0.49936 0.1613 0.0
H1154 H 0.06841 0.49891 0.12964 0.0
H1155 H 0.02733 0.51891 0.14946 0.0
H1156 H 0.04308 0.51959 0.18117 0.0
H1157 H 0.01195 0.50317 0.17632 0.0
H1158 H 0.02397 0.40448 0.19608 0.0
H1159 H 0.04828 0.41286 0.23719 0.0
H1160 H 0.07253 0.48896 0.21006 0.0
C1161 C 0.01818 0.46889 0.1176 0.0
C1162 C 0.00301 0.44915 0.10457 0.0
C1163 C 0.99723 0.42575 0.11756 0.0
C1164 C 0.00672 0.42176 0.14287 0.0
C1165 C 0.02194 0.44137 0.155 0.0
C1166 C 0.02761 0.46452 0.14295 0.0
C1167 C 0.04485 0.48214 0.1604 0.0
C1168 C 0.07117 0.48776 0.14777 0.0
C1169 C 0.03097 0.50745 0.16724 0.0
C1170 C 0.04802 0.46517 0.18405 0.0
C1171 C 0.03457 0.44178 0.18041 0.0
C1172 C 0.03452 0.42274 0.19924 0.0
C1173 C 0.04847 0.42773 0.22256 0.0
C1174 C 0.06236 0.4516 0.22697 0.0
C1175 C 0.06215 0.47052 0.20732 0.0
H1176 H 0.3257 0.74453 0.23902 0.0
H1177 H 0.32222 0.66163 0.25335 0.0
H1178 H 0.36345 0.66558 0.27878 0.0
H1179 H 0.39579 0.74864 0.2309 0.0
H1180 H 0.39899 0.78027 0.24649 0.0
H1181 H 0.36915 0.77083 0.2294 0.0
H1182 H 0.34331 0.7806 0.27105 0.0
H1183 H 0.37308 0.78985 0.28833 0.0
H1184 H 0.35205 0.76482 0.30094 0.0
H1185 H 0.40444 0.67876 0.30394 0.0
H1186 H 0.44366 0.69977 0.3245 0.0
H1187 H 0.42134 0.77365 0.29223 0.0
C1188 C 0.33375 0.72712 0.24718 0.0
C1189 C 0.32048 0.7028 0.24434 0.0
C1190 C 0.33166 0.68059 0.25565 0.0
C1191 C 0.35518 0.68259 0.27003 0.0
C1192 C 0.36749 0.7069 0.27279 0.0
C1193 C 0.35732 0.72872 0.26146 0.0
C1194 C 0.37453 0.75252 0.26725 0.0
C1195 C 0.38525 0.76372 0.24201 0.0
C1196 C 0.35986 0.77316 0.28282 0.0
C1197 C 0.39589 0.74068 0.2837 0.0
C1198 C 0.3914 0.71437 0.28678 0.0
C1199 C 0.40824 0.69933 0.30155 0.0
C1200 C 0.43042 0.71147 0.31324 0.0
C1201 C 0.43566 0.73835 0.30996 0.0
C1202 C 0.418 0.75305 0.29505 0.0
H1203 H 0.99632 0.43323 0.98076 0.0
H1204 H 0.9792 0.38178 0.04452 0.0
H1205 H 0.98171 0.34395 0.01468 0.0
H1206 H 0.95772 0.39691 0.93198 0.0
H1207 H 0.98019 0.4031 0.90629 0.0
H1208 H 0.97756 0.42627 0.93277 0.0
H1209 H 0.02713 0.42356 0.94239 0.0
H1210 H 0.02992 0.40035 0.91598 0.0
H1211 H 0.04118 0.39235 0.94827 0.0
H1212 H 0.98676 0.31159 0.97832 0.0
H1213 H 0.9927 0.28686 0.93739 0.0
H1214 H 0.00443 0.3592 0.89659 0.0
C1215 C 0.99286 0.41405 0.98844 0.0
C1216 C 0.98784 0.41058 0.01515 0.0
C1217 C 0.98369 0.38503 0.02434 0.0
C1218 C 0.98485 0.36337 0.00748 0.0
C1219 C 0.98996 0.36751 0.98139 0.0
C1220 C 0.99375 0.39219 0.97183 0.0
C1221 C 0.9987 0.3912 0.94286 0.0
C1222 C 0.97726 0.4052 0.92758 0.0
C1223 C 0.02585 0.40253 0.93704 0.0
C1224 C 0.99722 0.36209 0.93767 0.0
C1225 C 0.99225 0.34881 0.96021 0.0
C1226 C 0.99054 0.32177 0.96051 0.0
C1227 C 0.99399 0.30789 0.93715 0.0
C1228 C 0.99895 0.32105 0.91372 0.0
C1229 C 1.00049 0.34855 0.9141 0.0
H1230 H 0.6591 0.7997 0.21519 0.0
H1231 H 0.68492 0.72013 0.21824 0.0
H1232 H 0.65012 0.70985 0.24928 0.0
H1233 H 0.64324 0.80681 0.28249 0.0
H1234 H 0.61502 0.82608 0.27607 0.0
H1235 H 0.64187 0.82691 0.25416 0.0
H1236 H 0.61061 0.81375 0.21559 0.0
H1237 H 0.58365 0.81297 0.23736 0.0
H1238 H 0.59051 0.78472 0.21761 0.0
H1239 H 0.61292 0.70896 0.28133 0.0
H1240 H 0.57501 0.71669 0.30909 0.0
H1241 H 0.57343 0.79667 0.28383 0.0
C1242 C 0.65752 0.78013 0.22248 0.0
C1243 C 0.67482 0.76073 0.21444 0.0
C1244 C 0.6718 0.73524 0.22406 0.0
C1245 C 0.65219 0.72929 0.24179 0.0
C1246 C 0.63563 0.74898 0.24953 0.0
C1247 C 0.63799 0.77383 0.23997 0.0
C1248 C 0.61752 0.79142 0.2509 0.0
C1249 C 0.63017 0.81414 0.26685 0.0
C1250 C 0.59951 0.80129 0.22906 0.0
C1251 C 0.60325 0.77266 0.2682 0.0
C1252 C 0.61404 0.74831 0.26733 0.0
C1253 C 0.60427 0.72794 0.28205 0.0
C1254 C 0.58277 0.73253 0.29783 0.0
C1255 C 0.57113 0.75725 0.29861 0.0
C1256 C 0.58172 0.7775 0.28361 0.0
H1257 H 0.03297 0.06838 0.97233 0.0
H1258 H 0.01854 0.11666 0.04047 0.0
H1259 H 0.01643 0.15524 0.01294 0.0
H1260 H 0.07351 0.11635 0.93918 0.0
H1261 H 0.06054 0.10751 0.90726 0.0
H1262 H 0.06187 0.08356 0.93237 0.0
H1263 H 0.01235 0.07434 0.92601 0.0
H1264 H 0.01085 0.09833 0.90098 0.0
H1265 H 0.9901 0.10081 0.92869 0.0
H1266 H 0.01426 0.18819 0.97857 0.0
H1267 H 0.01295 0.2143 0.93902 0.0
H1268 H 0.02916 0.14554 0.89224 0.0
C1269 C 0.02967 0.08714 0.98143 0.0
C1270 C 0.02569 0.08947 0.00854 0.0
C1271 C 0.02121 0.11433 0.01971 0.0
C1272 C 0.02013 0.13639 0.00426 0.0
C1273 C 0.02366 0.1334 0.97762 0.0
C1274 C 0.02846 0.1095 0.96621 0.0
C1275 C 0.03098 0.11182 0.93694 0.0
C1276 C 0.05836 0.10437 0.92844 0.0
C1277 C 0.0098 0.09535 0.9223 0.0
C1278 C 0.02661 0.1407 0.93376 0.0
C1279 C 0.02251 0.15268 0.95755 0.0
C1280 C 0.01757 0.17909 0.95981 0.0
C1281 C 0.01681 0.19375 0.93715 0.0
C1282 C 0.02097 0.18205 0.91243 0.0
C1283 C 0.02599 0.15511 0.91081 0.0
H1284 H 0.3418 0.33513 0.27091 0.0
H1285 H 0.40176 0.32641 0.33071 0.0
H1286 H 0.43434 0.31954 0.29658 0.0
H1287 H 0.36342 0.28606 0.2285 0.0
H1288 H 0.35532 0.30307 0.19916 0.0
H1289 H 0.33738 0.30898 0.22826 0.0
H1290 H 0.34841 0.35829 0.22596 0.0
H1291 H 0.36626 0.35256 0.19671 0.0
H1292 H 0.38195 0.36905 0.2243 0.0
H1293 H 0.45999 0.31227 0.25528 0.0
H1294 H 0.47613 0.30464 0.21079 0.0
H1295 H 0.39859 0.31776 0.17902 0.0
C1296 C 0.36189 0.33233 0.27685 0.0
C1297 C 0.36935 0.33157 0.30342 0.0
C1298 C 0.39568 0.32708 0.31041 0.0
C1299 C 0.4143 0.32325 0.29119 0.0
C1300 C 0.4062 0.32389 0.26511 0.0
C1301 C 0.38059 0.32835 0.25799 0.0
C1302 C 0.37649 0.32697 0.22878 0.0
C1303 C 0.35701 0.30496 0.22072 0.0
C1304 C 0.36777 0.35329 0.21833 0.0
C1305 C 0.40374 0.32087 0.2205 0.0
C1306 C 0.4207 0.31931 0.24164 0.0
C1307 C 0.44688 0.31354 0.23859 0.0
C1308 C 0.45587 0.30923 0.21327 0.0
C1309 C 0.43865 0.31055 0.1914 0.0
C1310 C 0.4123 0.31653 0.19526 0.0
H1311 H 0.5617 0.42276 0.99141 0.0
H1312 H 0.49346 0.47004 0.98052 0.0
H1313 H 0.47036 0.44432 0.01306 0.0
H1314 H 0.52841 0.36274 0.99867 0.0
H1315 H 0.55012 0.35089 0.02359 0.0
H1316 H 0.56198 0.37376 1.00032 0.0
H1317 H 0.57769 0.40496 0.03791 0.0
H1318 H 0.56593 0.38214 0.06133 0.0
H1319 H 0.55495 0.41517 0.06205 0.0
H1320 H 0.45356 0.41203 0.04404 0.0
H1321 H 0.44434 0.37562 0.07314 0.0
H1322 H 0.52392 0.3502 0.06622 0.0
C1323 C 0.54206 0.42799 0.99619 0.0
C1324 C 0.52933 0.44832 0.98321 0.0
C1325 C 0.50347 0.45427 0.98981 0.0
C1326 C 0.49024 0.43992 0.00843 0.0
C1327 C 0.50321 0.41983 0.02056 0.0
C1328 C 0.52858 0.41394 0.01492 0.0
C1329 C 0.53765 0.39085 0.03037 0.0
C1330 C 0.54496 0.36822 0.01214 0.0
C1331 C 0.56041 0.39876 0.04903 0.0
C1332 C 0.51322 0.38442 0.04517 0.0
C1333 C 0.49364 0.40146 0.03918 0.0
C1334 C 0.46881 0.39875 0.04917 0.0
C1335 C 0.46375 0.37795 0.06559 0.0
C1336 C 0.48346 0.36021 0.07205 0.0
C1337 C 0.50862 0.36372 0.06194 0.0
H1338 H 0.64272 0.2003 0.23751 0.0
H1339 H 0.69202 0.26889 0.22926 0.0
H1340 H 0.66036 0.28634 0.19743 0.0
H1341 H 0.61619 0.19663 0.16877 0.0
H1342 H 0.58434 0.18671 0.17933 0.0
H1343 H 0.61293 0.17772 0.19774 0.0
H1344 H 0.59404 0.19889 0.23915 0.0
H1345 H 0.56561 0.20825 0.22088 0.0
H1346 H 0.58498 0.23253 0.23871 0.0
H1347 H 0.62104 0.29864 0.1709 0.0
H1348 H 0.57734 0.30463 0.15115 0.0
H1349 H 0.55317 0.22838 0.17763 0.0
C1350 C 0.64725 0.2185 0.22817 0.0
C1351 C 0.66993 0.2331 0.23537 0.0
C1352 C 0.67485 0.25734 0.22364 0.0
C1353 C 0.657 0.26736 0.20559 0.0
C1354 C 0.63433 0.25291 0.19954 0.0
C1355 C 0.62948 0.22889 0.21033 0.0
C1356 C 0.60251 0.21852 0.20266 0.0
C1357 C 0.60409 0.19341 0.18614 0.0
C1358 C 0.58581 0.21432 0.22679 0.0
C1359 C 0.59266 0.24077 0.18656 0.0
C1360 C 0.61141 0.26026 0.18468 0.0
C1361 C 0.60632 0.28334 0.17192 0.0
C1362 C 0.58141 0.28661 0.16084 0.0
C1363 C 0.56181 0.26698 0.16279 0.0
C1364 C 0.56773 0.24371 0.17564 0.0
H1365 H 0.41764 0.12118 0.01866 0.0
H1366 H 0.49654 0.09374 0.027 0.0
H1367 H 0.50884 0.133 0.05333 0.0
H1368 H 0.43483 0.18752 0.01094 0.0
H1369 H 0.40791 0.19987 0.02894 0.0
H1370 H 0.40483 0.1688 0.01232 0.0
H1371 H 0.3924 0.14699 0.0555 0.0
H1372 H 0.39534 0.17803 0.07225 0.0
H1373 H 0.41378 0.15095 0.08368 0.0
H1374 H 0.51291 0.17574 0.0773 0.0
H1375 H 0.50879 0.21964 0.09672 0.0
H1376 H 0.4273 0.21957 0.07215 0.0
C1377 C 0.43737 0.1233 0.0264 0.0
C1378 C 0.45616 0.10451 0.02092 0.0
C1379 C 0.48193 0.10807 0.03093 0.0
C1380 C 0.48905 0.1302 0.04597 0.0
C1381 C 0.47016 0.14855 0.05077 0.0
C1382 C 0.44485 0.14537 0.0413 0.0
C1383 C 0.42865 0.16859 0.04828 0.0
C1384 C 0.41846 0.18199 0.02365 0.0
C1385 C 0.40622 0.16066 0.06598 0.0
C1386 C 0.44887 0.18542 0.06288 0.0
C1387 C 0.47262 0.17341 0.06428 0.0
C1388 C 0.49439 0.18533 0.07644 0.0
C1389 C 0.49185 0.21027 0.08738 0.0
C1390 C 0.46774 0.22309 0.08593 0.0
C1391 C 0.446 0.21033 0.07361 0.0
H1392 H 0.26492 0.32032 0.74795 0.0
H1393 H 0.26609 0.31646 0.66356 0.0
H1394 H 0.29008 0.35878 0.66349 0.0
H1395 H 0.25325 0.38807 0.75356 0.0
H1396 H 0.27332 0.39256 0.7826 0.0
H1397 H 0.25749 0.36158 0.77561 0.0
H1398 H 0.30209 0.33906 0.77859 0.0
H1399 H 0.31807 0.37 0.78554 0.0
H1400 H 0.32828 0.35013 0.75855 0.0
H1401 H 0.3133 0.40309 0.67337 0.0
H1402 H 0.33264 0.44418 0.69217 0.0
H1403 H 0.31454 0.41784 0.76958 0.0
C1404 C 0.27001 0.32837 0.72938 0.0
C1405 C 0.26346 0.31505 0.70576 0.0
C1406 C 0.27106 0.32616 0.68196 0.0
C1407 C 0.2846 0.35025 0.68172 0.0
C1408 C 0.29047 0.36297 0.70544 0.0
C1409 C 0.28338 0.35229 0.7288 0.0
C1410 C 0.29137 0.36979 0.75167 0.0
C1411 C 0.26743 0.37851 0.76673 0.0
C1412 C 0.31113 0.35645 0.76964 0.0
C1413 C 0.30389 0.39219 0.73763 0.0
C1414 C 0.30341 0.38803 0.71099 0.0
C1415 C 0.31379 0.40647 0.69423 0.0
C1416 C 0.32475 0.42974 0.70506 0.0
C1417 C 0.32509 0.43436 0.73234 0.0
C1418 C 0.3146 0.41511 0.74863 0.0
H1419 H 0.25735 0.68139 0.73917 0.0
H1420 H 0.22707 0.67822 0.81727 0.0
H1421 H 0.24818 0.63633 0.82382 0.0
H1422 H 0.25055 0.61229 0.72412 0.0
H1423 H 0.28049 0.61056 0.70664 0.0
H1424 H 0.26284 0.64042 0.70753 0.0
H1425 H 0.30397 0.66499 0.72595 0.0
H1426 H 0.32176 0.63521 0.72512 0.0
H1427 H 0.31983 0.65368 0.75515 0.0
H1428 H 0.27132 0.59538 0.82234 0.0
H1429 H 0.29717 0.55696 0.81379 0.0
H1430 H 0.3146 0.58527 0.73676 0.0
C1431 C 0.25518 0.67176 0.75757 0.0
C1432 C 0.24072 0.68315 0.77782 0.0
C1433 C 0.23836 0.67006 0.80167 0.0
C1434 C 0.25015 0.64619 0.80553 0.0
C1435 C 0.26436 0.63558 0.78538 0.0
C1436 C 0.26712 0.64784 0.7619 0.0
C1437 C 0.28399 0.63202 0.74381 0.0
C1438 C 0.26854 0.62331 0.71906 0.0
C1439 C 0.30886 0.6474 0.73712 0.0
C1440 C 0.29014 0.60902 0.76088 0.0
C1441 C 0.27839 0.61162 0.78467 0.0
C1442 C 0.28068 0.59308 0.80381 0.0
C1443 C 0.29544 0.57122 0.79866 0.0
C1444 C 0.30801 0.56792 0.77454 0.0
C1445 C 0.30532 0.5872 0.75538 0.0
H1446 H 0.91575 0.48196 0.49348 0.0
H1447 H 0.87162 0.55048 0.5122 0.0
H1448 H 0.83202 0.52283 0.51681 0.0
H1449 H 0.86513 0.44837 0.45548 0.0
H1450 H 0.87379 0.41682 0.46714 0.0
H1451 H 0.89833 0.4422 0.46519 0.0
H1452 H 0.91008 0.43685 0.51411 0.0
H1453 H 0.88554 0.41152 0.51624 0.0
H1454 H 0.88494 0.43949 0.53785 0.0
H1455 H 0.79704 0.48707 0.51923 0.0
H1456 H 0.77026 0.44645 0.51993 0.0
H1457 H 0.83807 0.40218 0.49957 0.0
C1458 C 0.89771 0.49122 0.49827 0.0
C1459 C 0.89676 0.51838 0.50242 0.0
C1460 C 0.87284 0.52966 0.50915 0.0
C1461 C 0.85023 0.51414 0.51168 0.0
C1462 C 0.8519 0.48739 0.50746 0.0
C1463 C 0.87506 0.47607 0.50092 0.0
C1464 C 0.87191 0.44691 0.49775 0.0
C1465 C 0.87762 0.43806 0.46972 0.0
C1466 C 0.88914 0.43288 0.51768 0.0
C1467 C 0.84335 0.44351 0.50358 0.0
C1468 C 0.83203 0.46702 0.50906 0.0
C1469 C 0.80573 0.46854 0.51498 0.0
C1470 C 0.79067 0.44539 0.51532 0.0
C1471 C 0.80203 0.4211 0.50988 0.0
C1472 C 0.82873 0.42036 0.50392 0.0
H1473 H 0.78644 0.87989 0.79194 0.0
H1474 H 0.78612 0.85069 0.87069 0.0
H1475 H 0.74797 0.87726 0.88008 0.0
H1476 H 0.76505 0.94743 0.80983 0.0
H1477 H 0.74603 0.9494 0.78003 0.0
H1478 H 0.77539 0.93086 0.78075 0.0
H1479 H 0.74925 0.89038 0.76311 0.0
H1480 H 0.71983 0.9086 0.76261 0.0
H1481 H 0.72134 0.87886 0.78052 0.0
H1482 H 0.70567 0.90029 0.87818 0.0
H1483 H 0.66449 0.92165 0.86638 0.0
H1484 H 0.69459 0.93939 0.79054 0.0
C1485 C 0.77911 0.87981 0.81152 0.0
C1486 C 0.78933 0.86305 0.83053 0.0
C1487 C 0.77846 0.86305 0.85565 0.0
C1488 C 0.75691 0.87826 0.86125 0.0
C1489 C 0.74682 0.89384 0.84175 0.0
C1490 C 0.7579 0.89518 0.81756 0.0
C1491 C 0.74226 0.91204 0.79941 0.0
C1492 C 0.75813 0.93638 0.79208 0.0
C1493 C 0.7326 0.89654 0.77499 0.0
C1494 C 0.71997 0.919 0.81678 0.0
C1495 C 0.72301 0.90837 0.84117 0.0
C1496 C 0.70344 0.90941 0.85948 0.0
C1497 C 0.68012 0.92143 0.8526 0.0
C1498 C 0.67677 0.93254 0.82782 0.0
C1499 C 0.69712 0.93176 0.80991 0.0
H1500 H 0.60263 0.53481 0.9468 0.0
H1501 H 0.62136 0.45336 0.95254 0.0
H1502 H 0.66817 0.46532 0.95729 0.0
H1503 H 0.65737 0.55484 0.91036 0.0
H1504 H 0.66205 0.58566 0.92728 0.0
H1505 H 0.63008 0.57066 0.92474 0.0
H1506 H 0.62669 0.57277 0.97498 0.0
H1507 H 0.65873 0.58768 0.97768 0.0
H1508 H 0.65156 0.5583 0.99493 0.0
H1509 H 0.71271 0.48578 0.95782 0.0
H1510 H 0.75244 0.51371 0.95684 0.0
H1511 H 0.70496 0.58226 0.95455 0.0
C1512 C 0.61668 0.51959 0.94908 0.0
C1513 C 0.60863 0.49318 0.94917 0.0
C1514 C 0.62733 0.47369 0.95245 0.0
C1515 C 0.65386 0.4803 0.95516 0.0
C1516 C 0.66124 0.50652 0.955 0.0
C1517 C 0.64322 0.5259 0.95234 0.0
C1518 C 0.65638 0.55257 0.95292 0.0
C1519 C 0.65116 0.56676 0.9273 0.0
C1520 C 0.64783 0.56878 0.97654 0.0
C1521 C 0.68466 0.54512 0.95575 0.0
C1522 C 0.68699 0.51843 0.95679 0.0
C1523 C 0.71116 0.50671 0.9575 0.0
C1524 C 0.73356 0.52268 0.95689 0.0
C1525 C 0.73162 0.55003 0.95605 0.0
C1526 C 0.70688 0.56141 0.95586 0.0
H1527 H 0.22516 0.64309 0.19959 0.0
H1528 H 0.23201 0.67856 0.27672 0.0
H1529 H 0.2008 0.6457 0.29307 0.0
H1530 H 0.15599 0.62375 0.20165 0.0
H1531 H 0.16076 0.59339 0.18453 0.0
H1532 H 0.18162 0.62112 0.17843 0.0
H1533 H 0.22213 0.59401 0.18965 0.0
H1534 H 0.20142 0.56625 0.19583 0.0
H1535 H 0.22426 0.57823 0.22063 0.0
H1536 H 0.17044 0.60809 0.30129 0.0
H1537 H 0.1448 0.56707 0.30167 0.0
H1538 H 0.15896 0.55488 0.21937 0.0
C1539 C 0.21964 0.64418 0.21979 0.0
C1540 C 0.23067 0.66344 0.2369 0.0
C1541 C 0.22363 0.66395 0.26336 0.0
C1542 C 0.20589 0.64546 0.27275 0.0
C1543 C 0.19555 0.62652 0.25544 0.0
C1544 C 0.20224 0.62566 0.22954 0.0
C1545 C 0.1898 0.6022 0.21547 0.0
C1546 C 0.17092 0.61063 0.19373 0.0
C1547 C 0.21065 0.58411 0.20478 0.0
C1548 C 0.17533 0.58981 0.23758 0.0
C1549 C 0.17864 0.60434 0.26036 0.0
C1550 C 0.16761 0.5966 0.28354 0.0
C1551 C 0.15306 0.57324 0.28354 0.0
C1552 C 0.14984 0.55768 0.26055 0.0
C1553 C 0.16097 0.56632 0.23724 0.0
H1554 H 0.92689 0.49663 0.06078 0.0
H1555 H 0.98815 0.51008 0.00584 0.0
H1556 H 0.96351 0.54621 0.98702 0.0
H1557 H 0.87655 0.5031 0.01714 0.0
H1558 H 0.85452 0.51891 0.03882 0.0
H1559 H 0.87917 0.49822 0.05175 0.0
H1560 H 0.89666 0.53593 0.08189 0.0
H1561 H 0.87195 0.55681 0.069 0.0
H1562 H 0.9058 0.56662 0.06799 0.0
H1563 H 0.93002 0.57491 0.96956 0.0
H1564 H 0.88908 0.59361 0.9534 0.0
H1565 H 0.84847 0.56238 0.01921 0.0
C1566 C 0.93542 0.50793 0.04545 0.0
C1567 C 0.95953 0.50109 0.03496 0.0
C1568 C 0.96983 0.51541 0.01424 0.0
C1569 C 0.95604 0.53598 0.00357 0.0
C1570 C 0.93195 0.54191 0.01384 0.0
C1571 C 0.92168 0.52837 0.03436 0.0
C1572 C 0.89391 0.53627 0.03932 0.0
C1573 C 0.87494 0.51273 0.03657 0.0
C1574 C 0.89198 0.54971 0.06614 0.0
C1575 C 0.88976 0.55539 0.01758 0.0
C1576 C 0.9122 0.55873 0.00351 0.0
C1577 C 0.91255 0.57304 0.98079 0.0
C1578 C 0.88924 0.58357 0.97175 0.0
C1579 C 0.86594 0.57985 0.98542 0.0
C1580 C 0.86631 0.56625 0.00901 0.0
H1581 H 0.07056 0.0062 0.99914 0.0
H1582 H 0.07175 0.00627 0.08373 0.0
H1583 H 0.10741 0.97514 0.08343 0.0
H1584 H 0.08523 0.93874 0.98893 0.0
H1585 H 0.10607 0.94465 0.96182 0.0
H1586 H 0.07983 0.96627 0.96846 0.0
H1587 H 0.11246 0.00541 0.97088 0.0
H1588 H 0.13877 0.98393 0.96415 0.0
H1589 H 0.14024 0.00459 0.9929 0.0
H1590 H 0.14304 0.9441 0.07424 0.0
H1591 H 0.17755 0.9167 0.05674 0.0
H1592 H 0.15496 0.93813 0.97817 0.0
C1593 C 0.07836 0.99981 0.01763 0.0
C1594 C 0.06792 0.00853 0.04146 0.0
C1595 C 0.07878 0.99946 0.06517 0.0
C1596 C 0.09924 0.98189 0.06524 0.0
C1597 C 0.10891 0.97364 0.04146 0.0
C1598 C 0.09899 0.9824 0.01809 0.0
C1599 C 0.11345 0.97097 0.9953 0.0
C1600 C 0.09504 0.95416 0.97759 0.0
C1601 C 0.12704 0.99251 0.97991 0.0
C1602 C 0.13306 0.95446 0.00955 0.0
C1603 C 0.12997 0.95617 0.03616 0.0
C1604 C 0.14568 0.94263 0.05343 0.0
C1605 C 0.16522 0.92706 0.04327 0.0
C1606 C 0.16906 0.92523 0.01607 0.0
C1607 C 0.15261 0.93911 0.99906 0.0
loop_
_geom_bond_atom_site_label_1
_geom_bond_atom_site_label_2
_geom_bond_distance
_geom_bond_site_symmetry_2
_ccdc_geom_bond_type
H0 C3 0.931 . S
H1 C6 0.928 . S
H2 C8 0.930 . S
C3 H0 0.931 . S
C3 C4 1.413 . S
C3 C5 1.360 . S
C4 C3 1.413 . S
C4 C8 1.429 . S
C5 C3 1.360 . S
C5 C6 1.372 . S
C6 H1 0.928 . S
C6 C5 1.372 . S
C6 C7 1.404 . S
C7 C6 1.404 . S
C7 C8 1.391 . S
C8 H2 0.930 . S
C8 C4 1.429 . S
C8 C7 1.391 . S
H9 C12 0.931 . S
H10 C15 0.928 . S
H11 C17 0.930 . S
C12 H9 0.931 . S
C12 C13 1.413 . S
C12 C14 1.360 . S
C13 C12 1.413 . S
C13 C17 1.429 . S
C14 C12 1.360 . S
C14 C15 1.372 . S
C15 H10 0.928 . S
C15 C14 1.372 . S
C15 C16 1.404 . S
C16 C15 1.404 . S
C16 C17 1.391 . S
C17 H11 0.930 . S
C17 C13 1.429 . S
C17 C16 1.391 . S
H18 C21 0.931 . S
H19 C24 0.928 . S
H20 C26 0.930 . S
C21 H18 0.931 . S
C21 C22 1.413 . S
C21 C23 1.360 . S
C22 C21 1.413 . S
C22 C26 1.429 . S
C23 C21 1.360 . S
C23 C24 1.372 . S
C24 H19 0.928 . S
C24 C23 1.372 . S
C24 C25 1.404 . S
C25 C24 1.404 . S
C25 C26 1.391 . S
C26 H20 0.930 . S
C26 C22 1.429 . S
C26 C25 1.391 . S
H27 C30 0.931 . S
H28 C33 0.928 . S
H29 C35 0.930 . S
C30 H27 0.931 . S
C30 C31 1.413 . S
C30 C32 1.360 . S
C31 C30 1.413 . S
C31 C35 1.429 . S
C32 C30 1.360 . S
C32 C33 1.372 . S
C33 H28 0.928 . S
C33 C32 1.372 . S
C33 C34 1.404 . S
C34 C33 1.404 . S
C34 C35 1.391 . S
C35 H29 0.930 . S
C35 C31 1.429 . S
C35 C34 1.391 . S
H36 C39 0.931 . S
H37 C42 0.928 . S
H38 C44 0.930 . S
C39 H36 0.931 . S
C39 C40 1.413 . S
C39 C41 1.360 . S
C40 C39 1.413 . S
C40 C44 1.429 . S
C41 C39 1.360 . S
C41 C42 1.372 . S
C42 H37 0.928 . S
C42 C41 1.372 . S
C42 C43 1.404 . S
C43 C42 1.404 . S
C43 C44 1.391 . S
C44 H38 0.930 . S
C44 C40 1.429 . S
C44 C43 1.391 . S
H45 C48 0.931 . S
H46 C51 0.928 . S
H47 C53 0.930 . S
C48 H45 0.931 . S
C48 C49 1.413 . S
C48 C50 1.360 . S
C49 C48 1.413 . S
C49 C53 1.429 . S
C50 C48 1.360 . S
C50 C51 1.372 . S
C51 H46 0.928 . S
C51 C50 1.372 . S
C51 C52 1.404 . S
C52 C51 1.404 . S
C52 C53 1.391 . S
C53 H47 0.930 . S
C53 C49 1.429 . S
C53 C52 1.391 . S
H54 C57 0.931 . S
H55 C60 0.928 . S
H56 C62 0.930 . S
C57 H54 0.931 . S
C57 C58 1.413 . S
C57 C59 1.360 . S
C58 C57 1.413 . S
C58 C62 1.429 . S
C59 C57 1.360 . S
C59 C60 1.372 . S
C60 H55 0.928 . S
C60 C59 1.372 . S
C60 C61 1.404 . S
C61 C60 1.404 . S
C61 C62 1.391 . S
C62 H56 0.930 . S
C62 C58 1.429 . S
C62 C61 1.391 . S
H63 C66 0.931 . S
H64 C69 0.928 . S
H65 C71 0.930 . S
C66 H63 0.931 . S
C66 C67 1.413 . S
C66 C68 1.360 . S
C67 C66 1.413 . S
C67 C71 1.429 . S
C68 C66 1.360 . S
C68 C69 1.372 . S
C69 H64 0.928 . S
C69 C68 1.372 . S
C69 C70 1.404 . S
C70 C69 1.404 . S
C70 C71 1.391 . S
C71 H65 0.930 . S
C71 C67 1.429 . S
C71 C70 1.391 . S
H72 C75 0.931 . S
H73 C78 0.928 . S
H74 C80 0.930 . S
C75 H72 0.931 . S
C75 C76 1.413 . S
C75 C77 1.360 . S
C76 C75 1.413 . S
C76 C80 1.429 . S
C77 C75 1.360 . S
C77 C78 1.372 . S
C78 H73 0.928 . S
C78 C77 1.372 . S
C78 C79 1.404 . S
C79 C78 1.404 . S
C79 C80 1.391 . S
C80 H74 0.930 . S
C80 C76 1.429 . S
C80 C79 1.391 . S
H81 C84 0.931 . S
H82 C87 0.928 . S
H83 C89 0.930 . S
C84 H81 0.931 . S
C84 C85 1.413 . S
C84 C86 1.360 . S
C85 C84 1.413 . S
C85 C89 1.429 . S
C86 C84 1.360 . S
C86 C87 1.372 . S
C87 H82 0.928 . S
C87 C86 1.372 . S
C87 C88 1.404 . S
C88 C87 1.404 . S
C88 C89 1.391 . S
C89 H83 0.930 . S
C89 C85 1.429 . S
C89 C88 1.391 . S
H90 C93 0.931 . S
H91 C96 0.928 . S
H92 C98 0.930 . S
C93 H90 0.931 . S
C93 C94 1.413 . S
C93 C95 1.360 . S
C94 C93 1.413 . S
C94 C98 1.429 . S
C95 C93 1.360 . S
C95 C96 1.372 . S
C96 H91 0.928 . S
C96 C95 1.372 . S
C96 C97 1.404 . S
C97 C96 1.404 . S
C97 C98 1.391 . S
C98 H92 0.930 . S
C98 C94 1.429 . S
C98 C97 1.391 . S
H99 C102 0.931 . S
H100 C105 0.928 . S
H101 C107 0.930 . S
C102 H99 0.931 . S
C102 C103 1.413 . S
C102 C104 1.360 . S
C103 C102 1.413 . S
C103 C107 1.429 . S
C104 C102 1.360 . S
C104 C105 1.372 . S
C105 H100 0.928 . S
C105 C104 1.372 . S
C105 C106 1.404 . S
C106 C105 1.404 . S
C106 C107 1.391 . S
C107 H101 0.930 . S
C107 C103 1.429 . S
C107 C106 1.391 . S
H108 C111 0.931 . S
H109 C114 0.928 . S
H110 C116 0.930 . S
C111 H108 0.931 . S
C111 C112 1.413 . S
C111 C113 1.360 . S
C112 C111 1.413 . S
C112 C116 1.429 . S
C113 C111 1.360 . S
C113 C114 1.372 . S
C114 H109 0.928 . S
C114 C113 1.372 . S
C114 C115 1.404 . S
C115 C114 1.404 . S
C115 C116 1.391 . S
C116 H110 0.930 . S
C116 C112 1.429 . S
C116 C115 1.391 . S
H117 C120 0.931 . S
H118 C123 0.928 . S
H119 C125 0.930 . S
C120 H117 0.931 . S
C120 C121 1.413 . S
C120 C122 1.360 . S
C121 C120 1.413 . S
C121 C125 1.429 . S
C122 C120 1.360 . S
C122 C123 1.372 . S
C123 H118 0.928 . S
C123 C122 1.372 . S
C123 C124 1.404 . S
C124 C123 1.404 . S
C124 C125 1.391 . S
C125 H119 0.930 . S
C125 C121 1.429 . S
C125 C124 1.391 . S
H126 C129 0.931 . S
H127 C132 0.928 . S
H128 C134 0.930 . S
C129 H126 0.931 . S
C129 C130 1.413 . S
C129 C131 1.360 . S
C130 C129 1.413 . S
C130 C134 1.429 . S
C131 C129 1.360 . S
C131 C132 1.372 . S
C132 H127 0.928 . S
C132 C131 1.372 . S
C132 C133 1.404 . S
C133 C132 1.404 . S
C133 C134 1.391 . S
C134 H128 0.930 . S
C134 C130 1.429 . S
C134 C133 1.391 . S
H135 C138 0.931 . S
H136 C141 0.928 . S
H137 C143 0.930 . S
C138 H135 0.931 . S
C138 C139 1.413 . S
C138 C140 1.360 . S
C139 C138 1.413 . S
C139 C143 1.429 . S
C140 C138 1.360 . S
C140 C141 1.372 . S
C141 H136 0.928 . S
C141 C140 1.372 . S
C141 C142 1.404 . S
C142 C141 1.404 . S
C142 C143 1.391 . S
C143 H137 0.930 . S
C143 C139 1.429 . S
C143 C142 1.391 . S
Zn144 O147 2.031 1_556 S
Zn144 O149 2.049 . S
Zn144 O154 2.067 . S
Zn145 O146 1.962 . S
Zn145 O148 1.986 . S
Zn145 O150 1.996 . S
Zn145 O153 1.943 1_554 S
O146 Zn145 1.962 . S
O146 C151 1.254 . S
O147 Zn144 2.031 1_554 S
O147 C151 1.269 . S
O148 Zn145 1.986 . S
O148 C155 1.262 . S
O149 Zn144 2.049 . S
O149 C157 1.260 . S
O150 Zn145 1.996 . S
O150 C157 1.257 1_554 S
C151 O146 1.254 . S
C151 O147 1.269 . S
C152 O153 1.249 . S
C152 O154 1.270 . S
O153 Zn145 1.943 1_556 S
O153 C152 1.249 . S
O154 Zn144 2.067 . S
O154 C152 1.270 . S
C155 O148 1.262 . S
C155 O156 1.232 . S
O156 C155 1.232 . S
C157 O149 1.260 . S
C157 O150 1.257 1_556 S
Zn158 O161 2.031 . S
Zn158 O163 2.049 . S
Zn158 O168 2.067 . S
Zn159 O160 1.962 . S
Zn159 O162 1.986 . S
Zn159 O164 1.996 . S
Zn159 O167 1.943 . S
O160 Zn159 1.962 . S
O160 C165 1.254 . S
O161 Zn158 2.031 . S
O161 C165 1.269 . S
O162 Zn159 1.986 . S
O162 C169 1.262 . S
O163 Zn158 2.049 . S
O163 C171 1.260 . S
O164 Zn159 1.996 . S
O164 C171 1.257 . S
C165 O160 1.254 . S
C165 O161 1.269 . S
C166 O167 1.249 . S
C166 O168 1.270 . S
O167 Zn159 1.943 . S
O167 C166 1.249 . S
O168 Zn158 2.067 . S
O168 C166 1.270 . S
C169 O162 1.262 . S
C169 O170 1.232 . S
O170 C169 1.232 . S
C171 O163 1.260 . S
C171 O164 1.257 . S
Zn172 O175 2.031 . S
Zn172 O177 2.049 . S
Zn172 O182 2.067 . S
Zn173 O174 1.962 . S
Zn173 O176 1.986 . S
Zn173 O178 1.996 1_554 S
Zn173 O181 1.943 . S
O174 Zn173 1.962 . S
O174 C179 1.254 . S
O175 Zn172 2.031 . S
O175 C179 1.269 1_556 S
O176 Zn173 1.986 . S
O176 C183 1.262 . S
O177 Zn172 2.049 . S
O177 C185 1.260 . S
O178 Zn173 1.996 1_556 S
O178 C185 1.257 . S
C179 O174 1.254 . S
C179 O175 1.269 1_554 S
C180 O181 1.249 1_556 S
C180 O182 1.270 . S
O181 Zn173 1.943 . S
O181 C180 1.249 1_554 S
O182 Zn172 2.067 . S
O182 C180 1.270 . S
C183 O176 1.262 . S
C183 O184 1.232 . S
O184 C183 1.232 . S
C185 O177 1.260 . S
C185 O178 1.257 . S
Zn186 O189 2.027 1_565 S
Zn186 O191 2.052 . S
Zn186 O196 2.073 . S
Zn187 O188 1.962 . S
Zn187 O190 1.986 . S
Zn187 O192 1.996 . S
Zn187 O195 1.943 1_545 S
O188 Zn187 1.962 . S
O188 C193 1.254 . S
O189 Zn186 2.027 1_545 S
O189 C193 1.269 . S
O190 Zn187 1.986 . S
O190 C197 1.262 . S
O191 Zn186 2.052 . S
O191 C199 1.260 . S
O192 Zn187 1.996 . S
O192 C199 1.257 1_545 S
C193 O188 1.254 . S
C193 O189 1.269 . S
C194 O195 1.249 . S
C194 O196 1.270 . S
O195 Zn187 1.943 1_565 S
O195 C194 1.249 . S
O196 Zn186 2.073 . S
O196 C194 1.270 . S
C197 O190 1.262 . S
C197 O198 1.232 . S
O198 C197 1.232 . S
C199 O191 1.260 . S
C199 O192 1.257 1_565 S
Zn200 O203 2.031 . S
Zn200 O205 2.049 . S
Zn200 O210 2.067 . S
Zn201 O202 1.962 . S
Zn201 O204 1.986 . S
Zn201 O206 1.996 . S
Zn201 O209 1.943 . S
O202 Zn201 1.962 . S
O202 C207 1.254 . S
O203 Zn200 2.031 . S
O203 C207 1.269 . S
O204 Zn201 1.986 . S
O204 C211 1.262 . S
O205 Zn200 2.049 . S
O205 C213 1.260 . S
O206 Zn201 1.996 . S
O206 C213 1.257 . S
C207 O202 1.254 . S
C207 O203 1.269 . S
C208 O209 1.249 . S
C208 O210 1.270 . S
O209 Zn201 1.943 . S
O209 C208 1.249 . S
O210 Zn200 2.067 . S
O210 C208 1.270 . S
C211 O204 1.262 . S
C211 O212 1.232 . S
O212 C211 1.232 . S
C213 O205 1.260 . S
C213 O206 1.257 . S
Zn214 O217 2.031 . S
Zn214 O219 2.049 . S
Zn214 O224 2.067 . S
Zn215 O216 1.962 . S
Zn215 O218 1.986 . S
Zn215 O220 1.996 . S
Zn215 O223 1.943 . S
O216 Zn215 1.962 . S
O216 C221 1.254 . S
O217 Zn214 2.031 . S
O217 C221 1.269 . S
O218 Zn215 1.986 . S
O218 C225 1.262 . S
O219 Zn214 2.049 . S
O219 C227 1.260 . S
O220 Zn215 1.996 . S
O220 C227 1.257 . S
C221 O216 1.254 . S
C221 O217 1.269 . S
C222 O223 1.249 . S
C222 O224 1.270 . S
O223 Zn215 1.943 . S
O223 C222 1.249 . S
O224 Zn214 2.067 . S
O224 C222 1.270 . S
C225 O218 1.262 . S
C225 O226 1.232 . S
O226 C225 1.232 . S
C227 O219 1.260 . S
C227 O220 1.257 . S
Zn228 O231 2.031 . S
Zn228 O233 2.049 . S
Zn228 O238 2.067 . S
Zn229 O230 1.962 . S
Zn229 O232 1.986 . S
Zn229 O234 1.996 . S
Zn229 O237 1.943 . S
O230 Zn229 1.962 . S
O230 C235 1.254 . S
O231 Zn228 2.031 . S
O231 C235 1.269 . S
O232 Zn229 1.986 . S
O232 C239 1.262 . S
O233 Zn228 2.049 . S
O233 C241 1.260 . S
O234 Zn229 1.996 . S
O234 C241 1.257 . S
C235 O230 1.254 . S
C235 O231 1.269 . S
C236 O237 1.249 . S
C236 O238 1.270 . S
O237 Zn229 1.943 . S
O237 C236 1.249 . S
O238 Zn228 2.067 . S
O238 C236 1.270 . S
C239 O232 1.262 . S
C239 O240 1.232 . S
O240 C239 1.232 . S
C241 O233 1.260 . S
C241 O234 1.257 . S
Zn242 O245 2.031 . S
Zn242 O247 2.049 . S
Zn242 O252 2.067 . S
Zn243 O244 1.962 . S
Zn243 O246 1.986 . S
Zn243 O248 1.996 1_545 S
Zn243 O251 1.943 . S
O244 Zn243 1.962 . S
O244 C249 1.254 . S
O245 Zn242 2.031 . S
O245 C249 1.269 1_565 S
O246 Zn243 1.986 . S
O246 C253 1.262 . S
O247 Zn242 2.049 . S
O247 C255 1.260 . S
O248 Zn243 1.996 1_565 S
O248 C255 1.257 . S
C249 O244 1.254 . S
C249 O245 1.269 1_545 S
C250 O251 1.249 1_565 S
C250 O252 1.270 . S
O251 Zn243 1.943 . S
O251 C250 1.249 1_545 S
O252 Zn242 2.067 . S
O252 C250 1.270 . S
C253 O246 1.262 . S
C253 O254 1.232 . S
O254 C253 1.232 . S
C255 O247 1.260 . S
C255 O248 1.257 . S
Zn256 O259 2.019 1_655 S
Zn256 O261 2.058 . S
Zn256 O266 2.084 . S
Zn257 O258 1.962 . S
Zn257 O260 1.986 . S
Zn257 O262 1.996 . S
Zn257 O265 1.943 1_455 S
O258 Zn257 1.962 . S
O258 C263 1.254 . S
O259 Zn256 2.019 1_455 S
O259 C263 1.269 . S
O260 Zn257 1.986 . S
O260 C267 1.262 . S
O261 Zn256 2.058 . S
O261 C269 1.260 . S
O262 Zn257 1.996 . S
O262 C269 1.257 1_455 S
C263 O258 1.254 . S
C263 O259 1.269 . S
C264 O265 1.249 . S
C264 O266 1.270 . S
O265 Zn257 1.943 1_655 S
O265 C264 1.249 . S
O266 Zn256 2.084 . S
O266 C264 1.270 . S
C267 O260 1.262 . S
C267 O268 1.232 . S
O268 C267 1.232 . S
C269 O261 1.260 . S
C269 O262 1.257 1_655 S
Zn270 O273 2.031 . S
Zn270 O275 2.049 . S
Zn270 O280 2.067 . S
Zn271 O272 1.962 . S
Zn271 O274 1.986 . S
Zn271 O276 1.996 . S
Zn271 O279 1.943 . S
O272 Zn271 1.962 . S
O272 C277 1.254 . S
O273 Zn270 2.031 . S
O273 C277 1.269 . S
O274 Zn271 1.986 . S
O274 C281 1.262 . S
O275 Zn270 2.049 . S
O275 C283 1.260 . S
O276 Zn271 1.996 . S
O276 C283 1.257 . S
C277 O272 1.254 . S
C277 O273 1.269 . S
C278 O279 1.249 . S
C278 O280 1.270 . S
O279 Zn271 1.943 . S
O279 C278 1.249 . S
O280 Zn270 2.067 . S
O280 C278 1.270 . S
C281 O274 1.262 . S
C281 O282 1.232 . S
O282 C281 1.232 . S
C283 O275 1.260 . S
C283 O276 1.257 . S
Zn284 O287 2.031 . S
Zn284 O289 2.049 . S
Zn284 O294 2.067 . S
Zn285 O286 1.962 . S
Zn285 O288 1.986 . S
Zn285 O290 1.996 1_455 S
Zn285 O293 1.943 . S
O286 Zn285 1.962 . S
O286 C291 1.254 . S
O287 Zn284 2.031 . S
O287 C291 1.269 1_655 S
O288 Zn285 1.986 . S
O288 C295 1.262 . S
O289 Zn284 2.049 . S
O289 C297 1.260 . S
O290 Zn285 1.996 1_655 S
O290 C297 1.257 . S
C291 O286 1.254 . S
C291 O287 1.269 1_455 S
C292 O293 1.249 1_655 S
C292 O294 1.270 . S
O293 Zn285 1.943 . S
O293 C292 1.249 1_455 S
O294 Zn284 2.067 . S
O294 C292 1.270 . S
C295 O288 1.262 . S
C295 O296 1.232 . S
O296 C295 1.232 . S
C297 O289 1.260 . S
C297 O290 1.257 . S
Zn298 O301 2.031 . S
Zn298 O303 2.049 . S
Zn298 O308 2.067 . S
Zn299 O300 1.962 . S
Zn299 O302 1.986 . S
Zn299 O304 1.996 . S
Zn299 O307 1.943 . S
O300 Zn299 1.962 . S
O300 C305 1.254 . S
O301 Zn298 2.031 . S
O301 C305 1.269 . S
O302 Zn299 1.986 . S
O302 C309 1.262 . S
O303 Zn298 2.049 . S
O303 C311 1.260 . S
O304 Zn299 1.996 . S
O304 C311 1.257 . S
C305 O300 1.254 . S
C305 O301 1.269 . S
C306 O307 1.249 . S
C306 O308 1.270 . S
O307 Zn299 1.943 . S
O307 C306 1.249 . S
O308 Zn298 2.067 . S
O308 C306 1.270 . S
C309 O302 1.262 . S
C309 O310 1.232 . S
O310 C309 1.232 . S
C311 O303 1.260 . S
C311 O304 1.257 . S
H312 C324 0.930 . S
H313 C326 0.930 . S
H314 C327 0.930 . S
H315 C331 0.959 . S
H316 C331 0.959 . S
H317 C331 0.961 . S
H318 C332 0.960 . S
H319 C332 0.961 . S
H320 C332 0.959 . S
H321 C335 0.929 . S
H322 C336 0.931 . S
H323 C338 0.930 . S
C324 H312 0.930 . S
C324 C325 1.399 . S
C324 C329 1.399 . S
C325 C324 1.399 . S
C325 C326 1.376 . S
C326 H313 0.930 . S
C326 C325 1.376 . S
C326 C327 1.388 . S
C327 H314 0.930 . S
C327 C326 1.388 . S
C327 C328 1.390 . S
C328 C327 1.390 . S
C328 C329 1.394 . S
C328 C334 1.465 . S
C329 C324 1.399 . S
C329 C328 1.394 . S
C329 C330 1.516 . S
C330 C329 1.516 . S
C330 C331 1.502 . S
C330 C332 1.561 . S
C330 C333 1.526 . S
C331 H315 0.959 . S
C331 H316 0.959 . S
C331 H317 0.961 . S
C331 C330 1.502 . S
C332 H318 0.960 . S
C332 H319 0.961 . S
C332 H320 0.959 . S
C332 C330 1.561 . S
C333 C330 1.526 . S
C333 C334 1.396 . S
C333 C338 1.390 . S
C334 C328 1.465 . S
C334 C333 1.396 . S
C334 C335 1.399 . S
C335 H321 0.929 . S
C335 C334 1.399 . S
C335 C336 1.385 . S
C336 H322 0.931 . S
C336 C335 1.385 . S
C336 C337 1.389 . S
C337 C336 1.389 . S
C337 C338 1.387 . S
C338 H323 0.930 . S
C338 C333 1.390 . S
C338 C337 1.387 . S
H339 C351 0.918 1_655 S
H340 C353 0.930 1_655 S
H341 C354 0.930 . S
H342 C358 0.959 . S
H343 C358 0.959 . S
H344 C358 0.961 . S
H345 C359 0.960 1_655 S
H346 C359 0.961 . S
H347 C359 0.945 1_655 S
H348 C362 0.929 . S
H349 C363 0.931 . S
H350 C365 0.930 . S
C351 H339 0.918 1_455 S
C351 C352 1.384 1_455 S
C351 C356 1.427 . S
C352 C351 1.384 1_655 S
C352 C353 1.376 1_655 S
C353 H340 0.930 1_455 S
C353 C352 1.376 1_455 S
C353 C354 1.389 . S
C354 H341 0.930 . S
C354 C353 1.389 . S
C354 C355 1.390 . S
C355 C354 1.390 . S
C355 C356 1.394 . S
C355 C361 1.465 . S
C356 C351 1.427 . S
C356 C355 1.394 . S
C356 C357 1.516 . S
C357 C356 1.516 . S
C357 C358 1.502 . S
C357 C359 1.561 . S
C357 C360 1.526 . S
C358 H342 0.959 . S
C358 H343 0.959 . S
C358 H344 0.961 . S
C358 C357 1.502 . S
C359 H345 0.960 1_455 S
C359 H346 0.961 . S
C359 H347 0.945 1_455 S
C359 C357 1.561 . S
C360 C357 1.526 . S
C360 C361 1.396 . S
C360 C365 1.390 . S
C361 C355 1.465 . S
C361 C360 1.396 . S
C361 C362 1.399 . S
C362 H348 0.929 . S
C362 C361 1.399 . S
C362 C363 1.385 . S
C363 H349 0.931 . S
C363 C362 1.385 . S
C363 C364 1.389 . S
C364 C363 1.389 . S
C364 C365 1.387 . S
C365 H350 0.930 . S
C365 C360 1.390 . S
C365 C364 1.387 . S
H366 C378 0.930 . S
H367 C380 0.930 . S
H368 C381 0.930 . S
H369 C385 0.959 . S
H370 C385 0.959 . S
H371 C385 0.961 . S
H372 C386 0.960 . S
H373 C386 0.961 . S
H374 C386 0.959 . S
H375 C389 0.929 . S
H376 C390 0.931 . S
H377 C392 0.930 . S
C378 H366 0.930 . S
C378 C379 1.399 . S
C378 C383 1.399 . S
C379 C378 1.399 . S
C379 C380 1.376 . S
C380 H367 0.930 . S
C380 C379 1.376 . S
C380 C381 1.388 . S
C381 H368 0.930 . S
C381 C380 1.388 . S
C381 C382 1.390 . S
C382 C381 1.390 . S
C382 C383 1.394 . S
C382 C388 1.465 . S
C383 C378 1.399 . S
C383 C382 1.394 . S
C383 C384 1.516 . S
C384 C383 1.516 . S
C384 C385 1.502 . S
C384 C386 1.561 . S
C384 C387 1.526 . S
C385 H369 0.959 . S
C385 H370 0.959 . S
C385 H371 0.961 . S
C385 C384 1.502 . S
C386 H372 0.960 . S
C386 H373 0.961 . S
C386 H374 0.959 . S
C386 C384 1.561 . S
C387 C384 1.526 . S
C387 C388 1.396 . S
C387 C392 1.390 . S
C388 C382 1.465 . S
C388 C387 1.396 . S
C388 C389 1.399 . S
C389 H375 0.929 . S
C389 C388 1.399 . S
C389 C390 1.385 . S
C390 H376 0.931 . S
C390 C389 1.385 . S
C390 C391 1.389 . S
C391 C390 1.389 . S
C391 C392 1.387 . S
C392 H377 0.930 . S
C392 C387 1.390 . S
C392 C391 1.387 . S
H393 C405 0.930 . S
H394 C407 0.930 . S
H395 C408 0.930 1_545 S
H396 C412 0.959 . S
H397 C412 0.959 1_655 S
H398 C412 0.961 . S
H399 C413 0.960 . S
H400 C413 0.961 . S
H401 C413 0.959 . S
H402 C416 0.929 . S
H403 C417 0.931 . S
H404 C419 0.930 . S
C405 H393 0.930 . S
C405 C406 1.399 . S
C405 C410 1.399 1_455 S
C406 C405 1.399 . S
C406 C407 1.376 . S
C407 H394 0.930 . S
C407 C406 1.376 . S
C407 C408 1.388 1_455 S
C408 H395 0.930 1_565 S
C408 C407 1.388 1_655 S
C408 C409 1.390 . S
C409 C408 1.390 . S
C409 C410 1.394 . S
C409 C415 1.465 . S
C410 C405 1.399 1_655 S
C410 C409 1.394 . S
C410 C411 1.516 . S
C411 C410 1.516 . S
C411 C412 1.502 1_655 S
C411 C413 1.561 . S
C411 C414 1.526 . S
C412 H396 0.959 . S
C412 H397 0.959 1_455 S
C412 H398 0.961 . S
C412 C411 1.502 1_455 S
C413 H399 0.960 . S
C413 H400 0.961 . S
C413 H401 0.959 . S
C413 C411 1.561 . S
C414 C411 1.526 . S
C414 C415 1.396 . S
C414 C419 1.390 . S
C415 C409 1.465 . S
C415 C414 1.396 . S
C415 C416 1.399 1_565 S
C416 H402 0.929 . S
C416 C415 1.399 1_545 S
C416 C417 1.385 . S
C417 H403 0.931 . S
C417 C416 1.385 . S
C417 C418 1.389 1_545 S
C418 C417 1.389 1_565 S
C418 C419 1.387 . S
C419 H404 0.930 . S
C419 C414 1.390 . S
C419 C418 1.387 . S
H420 C432 0.930 . S
H421 C434 0.930 . S
H422 C435 0.930 . S
H423 C439 0.959 . S
H424 C439 0.959 . S
H425 C439 0.961 . S
H426 C440 0.960 . S
H427 C440 0.961 . S
H428 C440 0.959 . S
H429 C443 0.929 . S
H430 C444 0.931 . S
H431 C446 0.930 . S
C432 H420 0.930 . S
C432 C433 1.399 . S
C432 C437 1.399 . S
C433 C432 1.399 . S
C433 C434 1.376 . S
C434 H421 0.930 . S
C434 C433 1.376 . S
C434 C435 1.388 . S
C435 H422 0.930 . S
C435 C434 1.388 . S
C435 C436 1.390 . S
C436 C435 1.390 . S
C436 C437 1.394 . S
C436 C442 1.465 . S
C437 C432 1.399 . S
C437 C436 1.394 . S
C437 C438 1.516 . S
C438 C437 1.516 . S
C438 C439 1.502 . S
C438 C440 1.561 . S
C438 C441 1.526 . S
C439 H423 0.959 . S
C439 H424 0.959 . S
C439 H425 0.961 . S
C439 C438 1.502 . S
C440 H426 0.960 . S
C440 H427 0.961 . S
C440 H428 0.959 . S
C440 C438 1.561 . S
C441 C438 1.526 . S
C441 C442 1.396 . S
C441 C446 1.390 . S
C442 C436 1.465 . S
C442 C441 1.396 . S
C442 C443 1.399 . S
C443 H429 0.929 . S
C443 C442 1.399 . S
C443 C444 1.385 . S
C444 H430 0.931 . S
C444 C443 1.385 . S
C444 C445 1.389 . S
C445 C444 1.389 . S
C445 C446 1.387 . S
C446 H431 0.930 . S
C446 C441 1.390 . S
C446 C445 1.387 . S
H447 C459 0.930 . S
H448 C461 0.930 . S
H449 C462 0.930 . S
H450 C466 0.959 . S
H451 C466 0.959 . S
H452 C466 0.961 . S
H453 C467 0.960 . S
H454 C467 0.961 . S
H455 C467 0.959 . S
H456 C470 0.929 . S
H457 C471 0.931 . S
H458 C473 0.930 . S
C459 H447 0.930 . S
C459 C460 1.399 . S
C459 C464 1.399 . S
C460 C459 1.399 . S
C460 C461 1.376 . S
C461 H448 0.930 . S
C461 C460 1.376 . S
C461 C462 1.388 . S
C462 H449 0.930 . S
C462 C461 1.388 . S
C462 C463 1.390 . S
C463 C462 1.390 . S
C463 C464 1.394 . S
C463 C469 1.465 . S
C464 C459 1.399 . S
C464 C463 1.394 . S
C464 C465 1.516 . S
C465 C464 1.516 . S
C465 C466 1.502 . S
C465 C467 1.561 . S
C465 C468 1.526 . S
C466 H450 0.959 . S
C466 H451 0.959 . S
C466 H452 0.961 . S
C466 C465 1.502 . S
C467 H453 0.960 . S
C467 H454 0.961 . S
C467 H455 0.959 . S
C467 C465 1.561 . S
C468 C465 1.526 . S
C468 C469 1.396 . S
C468 C473 1.390 . S
C469 C463 1.465 . S
C469 C468 1.396 . S
C469 C470 1.399 . S
C470 H456 0.929 . S
C470 C469 1.399 . S
C470 C471 1.385 . S
C471 H457 0.931 . S
C471 C470 1.385 . S
C471 C472 1.389 . S
C472 C471 1.389 . S
C472 C473 1.387 . S
C473 H458 0.930 . S
C473 C468 1.390 . S
C473 C472 1.387 . S
H474 C486 0.930 . S
H475 C488 0.930 . S
H476 C489 0.930 . S
H477 C493 0.959 . S
H478 C493 0.959 . S
H479 C493 0.961 . S
H480 C494 0.960 . S
H481 C494 0.961 . S
H482 C494 0.959 . S
H483 C497 0.929 . S
H484 C498 0.931 . S
H485 C500 0.930 . S
C486 H474 0.930 . S
C486 C487 1.399 . S
C486 C491 1.399 . S
C487 C486 1.399 . S
C487 C488 1.376 . S
C488 H475 0.930 . S
C488 C487 1.376 . S
C488 C489 1.388 . S
C489 H476 0.930 . S
C489 C488 1.388 . S
C489 C490 1.390 . S
C490 C489 1.390 . S
C490 C491 1.394 . S
C490 C496 1.465 . S
C491 C486 1.399 . S
C491 C490 1.394 . S
C491 C492 1.516 . S
C492 C491 1.516 . S
C492 C493 1.502 . S
C492 C494 1.561 . S
C492 C495 1.526 . S
C493 H477 0.959 . S
C493 H478 0.959 . S
C493 H479 0.961 . S
C493 C492 1.502 . S
C494 H480 0.960 . S
C494 H481 0.961 . S
C494 H482 0.959 . S
C494 C492 1.561 . S
C495 C492 1.526 . S
C495 C496 1.396 . S
C495 C500 1.390 . S
C496 C490 1.465 . S
C496 C495 1.396 . S
C496 C497 1.399 . S
C497 H483 0.929 . S
C497 C496 1.399 . S
C497 C498 1.385 . S
C498 H484 0.931 . S
C498 C497 1.385 . S
C498 C499 1.389 . S
C499 C498 1.389 . S
C499 C500 1.387 . S
C500 H485 0.930 . S
C500 C495 1.390 . S
C500 C499 1.387 . S
H501 C513 0.930 1_545 S
H502 C515 0.930 . S
H503 C516 0.930 . S
H504 C520 0.959 . S
H505 C520 0.959 . S
H506 C520 0.961 . S
H507 C521 0.960 . S
H508 C521 0.961 . S
H509 C521 0.959 . S
H510 C524 0.929 . S
H511 C525 0.931 . S
H512 C527 0.930 . S
C513 H501 0.930 1_565 S
C513 C514 1.399 . S
C513 C518 1.399 . S
C514 C513 1.399 . S
C514 C515 1.376 . S
C515 H502 0.930 . S
C515 C514 1.376 . S
C515 C516 1.388 . S
C516 H503 0.930 . S
C516 C515 1.388 . S
C516 C517 1.390 . S
C517 C516 1.390 . S
C517 C518 1.394 . S
C517 C523 1.465 . S
C518 C513 1.399 . S
C518 C517 1.394 . S
C518 C519 1.516 1_565 S
C519 C518 1.516 1_545 S
C519 C520 1.502 . S
C519 C521 1.561 . S
C519 C522 1.526 1_545 S
C520 H504 0.959 . S
C520 H505 0.959 . S
C520 H506 0.961 . S
C520 C519 1.502 . S
C521 H507 0.960 . S
C521 H508 0.961 . S
C521 H509 0.959 . S
C521 C519 1.561 . S
C522 C519 1.526 1_565 S
C522 C523 1.396 . S
C522 C527 1.390 1_565 S
C523 C517 1.465 . S
C523 C522 1.396 . S
C523 C524 1.399 . S
C524 H510 0.929 . S
C524 C523 1.399 . S
C524 C525 1.385 . S
C525 H511 0.931 . S
C525 C524 1.385 . S
C525 C526 1.389 . S
C526 C525 1.389 . S
C526 C527 1.387 1_565 S
C527 H512 0.930 . S
C527 C522 1.390 1_545 S
C527 C526 1.387 1_545 S
H528 C540 0.930 . S
H529 C542 0.930 . S
H530 C543 0.930 . S
H531 C547 0.959 . S
H532 C547 0.959 . S
H533 C547 0.961 . S
H534 C548 0.960 . S
H535 C548 0.961 . S
H536 C548 0.959 . S
H537 C551 0.929 . S
H538 C552 0.931 . S
H539 C554 0.930 . S
C540 H528 0.930 . S
C540 C541 1.399 . S
C540 C545 1.399 . S
C541 C540 1.399 . S
C541 C542 1.376 . S
C542 H529 0.930 . S
C542 C541 1.376 . S
C542 C543 1.388 . S
C543 H530 0.930 . S
C543 C542 1.388 . S
C543 C544 1.390 . S
C544 C543 1.390 . S
C544 C545 1.394 . S
C544 C550 1.465 . S
C545 C540 1.399 . S
C545 C544 1.394 . S
C545 C546 1.516 . S
C546 C545 1.516 . S
C546 C547 1.502 . S
C546 C548 1.561 . S
C546 C549 1.526 . S
C547 H531 0.959 . S
C547 H532 0.959 . S
C547 H533 0.961 . S
C547 C546 1.502 . S
C548 H534 0.960 . S
C548 H535 0.961 . S
C548 H536 0.959 . S
C548 C546 1.561 . S
C549 C546 1.526 . S
C549 C550 1.396 . S
C549 C554 1.390 . S
C550 C544 1.465 . S
C550 C549 1.396 . S
C550 C551 1.399 . S
C551 H537 0.929 . S
C551 C550 1.399 . S
C551 C552 1.385 . S
C552 H538 0.931 . S
C552 C551 1.385 . S
C552 C553 1.389 . S
C553 C552 1.389 . S
C553 C554 1.387 . S
C554 H539 0.930 . S
C554 C549 1.390 . S
C554 C553 1.387 . S
H555 C567 0.930 . S
H556 C569 0.930 . S
H557 C570 0.930 . S
H558 C574 0.959 . S
H559 C574 0.959 . S
H560 C574 0.961 . S
H561 C575 0.960 . S
H562 C575 0.961 . S
H563 C575 0.959 . S
H564 C578 0.929 . S
H565 C579 0.931 . S
H566 C581 0.930 . S
C567 H555 0.930 . S
C567 C568 1.399 . S
C567 C572 1.399 . S
C568 C567 1.399 . S
C568 C569 1.376 . S
C569 H556 0.930 . S
C569 C568 1.376 . S
C569 C570 1.388 . S
C570 H557 0.930 . S
C570 C569 1.388 . S
C570 C571 1.390 . S
C571 C570 1.390 . S
C571 C572 1.394 . S
C571 C577 1.465 . S
C572 C567 1.399 . S
C572 C571 1.394 . S
C572 C573 1.516 . S
C573 C572 1.516 . S
C573 C574 1.502 . S
C573 C575 1.561 . S
C573 C576 1.526 . S
C574 H558 0.959 . S
C574 H559 0.959 . S
C574 H560 0.961 . S
C574 C573 1.502 . S
C575 H561 0.960 . S
C575 H562 0.961 . S
C575 H563 0.959 . S
C575 C573 1.561 . S
C576 C573 1.526 . S
C576 C577 1.396 . S
C576 C581 1.390 . S
C577 C571 1.465 . S
C577 C576 1.396 . S
C577 C578 1.399 . S
C578 H564 0.929 . S
C578 C577 1.399 . S
C578 C579 1.385 . S
C579 H565 0.931 . S
C579 C578 1.385 . S
C579 C580 1.389 . S
C580 C579 1.389 . S
C580 C581 1.387 . S
C581 H566 0.930 . S
C581 C576 1.390 . S
C581 C580 1.387 . S
H582 C594 0.930 . S
H583 C596 0.930 . S
H584 C597 0.930 . S
H585 C601 0.959 . S
H586 C601 0.959 . S
H587 C601 0.961 . S
H588 C602 0.960 . S
H589 C602 0.961 . S
H590 C602 0.959 . S
H591 C605 0.929 . S
H592 C606 0.931 . S
H593 C608 0.930 . S
C594 H582 0.930 . S
C594 C595 1.399 . S
C594 C599 1.399 . S
C595 C594 1.399 . S
C595 C596 1.376 . S
C596 H583 0.930 . S
C596 C595 1.376 . S
C596 C597 1.388 . S
C597 H584 0.930 . S
C597 C596 1.388 . S
C597 C598 1.390 . S
C598 C597 1.390 . S
C598 C599 1.394 . S
C598 C604 1.465 . S
C599 C594 1.399 . S
C599 C598 1.394 . S
C599 C600 1.516 . S
C600 C599 1.516 . S
C600 C601 1.502 . S
C600 C602 1.561 . S
C600 C603 1.526 . S
C601 H585 0.959 . S
C601 H586 0.959 . S
C601 H587 0.961 . S
C601 C600 1.502 . S
C602 H588 0.960 . S
C602 H589 0.961 . S
C602 H590 0.959 . S
C602 C600 1.561 . S
C603 C600 1.526 . S
C603 C604 1.396 . S
C603 C608 1.390 . S
C604 C598 1.465 . S
C604 C603 1.396 . S
C604 C605 1.399 . S
C605 H591 0.929 . S
C605 C604 1.399 . S
C605 C606 1.385 . S
C606 H592 0.931 . S
C606 C605 1.385 . S
C606 C607 1.389 . S
C607 C606 1.389 . S
C607 C608 1.387 . S
C608 H593 0.930 . S
C608 C603 1.390 . S
C608 C607 1.387 . S
H609 C621 0.930 . S
H610 C623 0.930 . S
H611 C624 0.930 . S
H612 C628 0.959 . S
H613 C628 0.959 . S
H614 C628 0.961 . S
H615 C629 0.960 . S
H616 C629 0.961 . S
H617 C629 0.959 . S
H618 C632 0.929 . S
H619 C633 0.931 . S
H620 C635 0.930 . S
C621 H609 0.930 . S
C621 C622 1.399 . S
C621 C626 1.399 . S
C622 C621 1.399 . S
C622 C623 1.376 . S
C623 H610 0.930 . S
C623 C622 1.376 . S
C623 C624 1.388 . S
C624 H611 0.930 . S
C624 C623 1.388 . S
C624 C625 1.390 . S
C625 C624 1.390 . S
C625 C626 1.394 . S
C625 C631 1.465 . S
C626 C621 1.399 . S
C626 C625 1.394 . S
C626 C627 1.516 . S
C627 C626 1.516 . S
C627 C628 1.502 . S
C627 C629 1.561 . S
C627 C630 1.526 . S
C628 H612 0.959 . S
C628 H613 0.959 . S
C628 H614 0.961 . S
C628 C627 1.502 . S
C629 H615 0.960 . S
C629 H616 0.961 . S
C629 H617 0.959 . S
C629 C627 1.561 . S
C630 C627 1.526 . S
C630 C631 1.396 . S
C630 C635 1.390 . S
C631 C625 1.465 . S
C631 C630 1.396 . S
C631 C632 1.399 . S
C632 H618 0.929 . S
C632 C631 1.399 . S
C632 C633 1.385 . S
C633 H619 0.931 . S
C633 C632 1.385 . S
C633 C634 1.389 . S
C634 C633 1.389 . S
C634 C635 1.387 . S
C635 H620 0.930 . S
C635 C630 1.390 . S
C635 C634 1.387 . S
H636 C648 0.930 . S
H637 C650 0.930 . S
H638 C651 0.930 . S
H639 C655 0.959 . S
H640 C655 0.959 . S
H641 C655 0.961 . S
H642 C656 0.960 . S
H643 C656 0.961 . S
H644 C656 0.959 . S
H645 C659 0.929 . S
H646 C660 0.931 . S
H647 C662 0.930 . S
C648 H636 0.930 . S
C648 C649 1.399 . S
C648 C653 1.399 . S
C649 C648 1.399 . S
C649 C650 1.376 . S
C650 H637 0.930 . S
C650 C649 1.376 . S
C650 C651 1.388 . S
C651 H638 0.930 . S
C651 C650 1.388 . S
C651 C652 1.390 . S
C652 C651 1.390 . S
C652 C653 1.394 . S
C652 C658 1.465 . S
C653 C648 1.399 . S
C653 C652 1.394 . S
C653 C654 1.516 . S
C654 C653 1.516 . S
C654 C655 1.502 . S
C654 C656 1.561 . S
C654 C657 1.526 . S
C655 H639 0.959 . S
C655 H640 0.959 . S
C655 H641 0.961 . S
C655 C654 1.502 . S
C656 H642 0.960 . S
C656 H643 0.961 . S
C656 H644 0.959 . S
C656 C654 1.561 . S
C657 C654 1.526 . S
C657 C658 1.396 . S
C657 C662 1.390 . S
C658 C652 1.465 . S
C658 C657 1.396 . S
C658 C659 1.399 . S
C659 H645 0.929 . S
C659 C658 1.399 . S
C659 C660 1.385 . S
C660 H646 0.931 . S
C660 C659 1.385 . S
C660 C661 1.389 . S
C661 C660 1.389 . S
C661 C662 1.387 . S
C662 H647 0.930 . S
C662 C657 1.390 . S
C662 C661 1.387 . S
H663 C675 0.930 . S
H664 C677 0.930 . S
H665 C678 0.930 . S
H666 C682 0.959 . S
H667 C682 0.959 . S
H668 C682 0.961 . S
H669 C683 0.960 . S
H670 C683 0.961 . S
H671 C683 0.959 1_655 S
H672 C686 0.929 . S
H673 C687 0.931 . S
H674 C689 0.930 . S
C675 H663 0.930 . S
C675 C676 1.399 . S
C675 C680 1.399 . S
C676 C675 1.399 . S
C676 C677 1.376 . S
C677 H664 0.930 . S
C677 C676 1.376 . S
C677 C678 1.388 . S
C678 H665 0.930 . S
C678 C677 1.388 . S
C678 C679 1.390 . S
C679 C678 1.390 . S
C679 C680 1.394 . S
C679 C685 1.465 . S
C680 C675 1.399 . S
C680 C679 1.394 . S
C680 C681 1.516 . S
C681 C680 1.516 . S
C681 C682 1.502 . S
C681 C683 1.561 . S
C681 C684 1.526 . S
C682 H666 0.959 . S
C682 H667 0.959 . S
C682 H668 0.961 . S
C682 C681 1.502 . S
C683 H669 0.960 . S
C683 H670 0.961 . S
C683 H671 0.959 1_455 S
C683 C681 1.561 . S
C684 C681 1.526 . S
C684 C685 1.396 . S
C684 C689 1.390 . S
C685 C679 1.465 . S
C685 C684 1.396 . S
C685 C686 1.399 . S
C686 H672 0.929 . S
C686 C685 1.399 . S
C686 C687 1.385 . S
C687 H673 0.931 . S
C687 C686 1.385 . S
C687 C688 1.389 . S
C688 C687 1.389 . S
C688 C689 1.387 . S
C689 H674 0.930 . S
C689 C684 1.390 . S
C689 C688 1.387 . S
H690 C702 0.930 . S
H691 C704 0.930 . S
H692 C705 0.930 . S
H693 C709 0.959 . S
H694 C709 0.959 . S
H695 C709 0.961 . S
H696 C710 0.960 . S
H697 C710 0.961 . S
H698 C710 0.959 . S
H699 C713 0.929 . S
H700 C714 0.931 . S
H701 C716 0.930 . S
C702 H690 0.930 . S
C702 C703 1.399 . S
C702 C707 1.399 . S
C703 C702 1.399 . S
C703 C704 1.376 . S
C704 H691 0.930 . S
C704 C703 1.376 . S
C704 C705 1.388 . S
C705 H692 0.930 . S
C705 C704 1.388 . S
C705 C706 1.390 . S
C706 C705 1.390 . S
C706 C707 1.394 . S
C706 C712 1.465 . S
C707 C702 1.399 . S
C707 C706 1.394 . S
C707 C708 1.516 . S
C708 C707 1.516 . S
C708 C709 1.502 . S
C708 C710 1.561 . S
C708 C711 1.526 . S
C709 H693 0.959 . S
C709 H694 0.959 . S
C709 H695 0.961 . S
C709 C708 1.502 . S
C710 H696 0.960 . S
C710 H697 0.961 . S
C710 H698 0.959 . S
C710 C708 1.561 . S
C711 C708 1.526 . S
C711 C712 1.396 . S
C711 C716 1.390 . S
C712 C706 1.465 . S
C712 C711 1.396 . S
C712 C713 1.399 . S
C713 H699 0.929 . S
C713 C712 1.399 . S
C713 C714 1.385 . S
C714 H700 0.931 . S
C714 C713 1.385 . S
C714 C715 1.389 . S
C715 C714 1.389 . S
C715 C716 1.387 . S
C716 H701 0.930 . S
C716 C711 1.390 . S
C716 C715 1.387 . S
H717 C729 0.930 . S
H718 C731 0.930 1_455 S
H719 C732 0.930 . S
H720 C736 0.959 . S
H721 C736 0.959 . S
H722 C736 0.961 . S
H723 C737 0.960 . S
H724 C737 0.961 . S
H725 C737 0.959 . S
H726 C740 0.929 . S
H727 C741 0.931 . S
H728 C743 0.930 . S
C729 H717 0.930 . S
C729 C730 1.399 . S
C729 C734 1.399 . S
C730 C729 1.399 . S
C730 C731 1.376 . S
C731 H718 0.930 1_655 S
C731 C730 1.376 . S
C731 C732 1.388 1_655 S
C732 H719 0.930 . S
C732 C731 1.388 1_455 S
C732 C733 1.390 1_455 S
C733 C732 1.390 1_655 S
C733 C734 1.394 . S
C733 C739 1.465 . S
C734 C729 1.399 . S
C734 C733 1.394 . S
C734 C735 1.516 . S
C735 C734 1.516 . S
C735 C736 1.502 . S
C735 C737 1.561 . S
C735 C738 1.526 . S
C736 H720 0.959 . S
C736 H721 0.959 . S
C736 H722 0.961 . S
C736 C735 1.502 . S
C737 H723 0.960 . S
C737 H724 0.961 . S
C737 H725 0.959 . S
C737 C735 1.561 . S
C738 C735 1.526 . S
C738 C739 1.396 . S
C738 C743 1.390 . S
C739 C733 1.465 . S
C739 C738 1.396 . S
C739 C740 1.399 1_655 S
C740 H726 0.929 . S
C740 C739 1.399 1_455 S
C740 C741 1.385 . S
C741 H727 0.931 . S
C741 C740 1.385 . S
C741 C742 1.389 1_455 S
C742 C741 1.389 1_655 S
C742 C743 1.387 . S
C743 H728 0.930 . S
C743 C738 1.390 . S
C743 C742 1.387 . S
H744 C756 0.930 . S
H745 C758 0.930 . S
H746 C759 0.930 . S
H747 C763 0.959 . S
H748 C763 0.959 . S
H749 C763 0.961 . S
H750 C764 0.960 . S
H751 C764 0.961 . S
H752 C764 0.959 . S
H753 C767 0.929 . S
H754 C768 0.931 . S
H755 C770 0.930 . S
C756 H744 0.930 . S
C756 C757 1.399 . S
C756 C761 1.399 . S
C757 C756 1.399 . S
C757 C758 1.376 . S
C758 H745 0.930 . S
C758 C757 1.376 . S
C758 C759 1.388 . S
C759 H746 0.930 . S
C759 C758 1.388 . S
C759 C760 1.390 . S
C760 C759 1.390 . S
C760 C761 1.394 . S
C760 C766 1.465 . S
C761 C756 1.399 . S
C761 C760 1.394 . S
C761 C762 1.516 . S
C762 C761 1.516 . S
C762 C763 1.502 . S
C762 C764 1.561 . S
C762 C765 1.526 . S
C763 H747 0.959 . S
C763 H748 0.959 . S
C763 H749 0.961 . S
C763 C762 1.502 . S
C764 H750 0.960 . S
C764 H751 0.961 . S
C764 H752 0.959 . S
C764 C762 1.561 . S
C765 C762 1.526 . S
C765 C766 1.396 . S
C765 C770 1.390 . S
C766 C760 1.465 . S
C766 C765 1.396 . S
C766 C767 1.399 . S
C767 H753 0.929 . S
C767 C766 1.399 . S
C767 C768 1.385 . S
C768 H754 0.931 . S
C768 C767 1.385 . S
C768 C769 1.389 . S
C769 C768 1.389 . S
C769 C770 1.387 . S
C770 H755 0.930 . S
C770 C765 1.390 . S
C770 C769 1.387 . S
H771 C783 0.930 . S
H772 C785 0.930 . S
H773 C786 0.930 . S
H774 C790 0.959 . S
H775 C790 0.959 . S
H776 C790 0.961 . S
H777 C791 0.960 . S
H778 C791 0.961 . S
H779 C791 0.959 . S
H780 C794 0.929 . S
H781 C795 0.931 . S
H782 C797 0.930 . S
C783 H771 0.930 . S
C783 C784 1.399 . S
C783 C788 1.399 . S
C784 C783 1.399 . S
C784 C785 1.376 . S
C785 H772 0.930 . S
C785 C784 1.376 . S
C785 C786 1.388 . S
C786 H773 0.930 . S
C786 C785 1.388 . S
C786 C787 1.390 . S
C787 C786 1.390 . S
C787 C788 1.394 . S
C787 C793 1.465 . S
C788 C783 1.399 . S
C788 C787 1.394 . S
C788 C789 1.516 . S
C789 C788 1.516 . S
C789 C790 1.502 . S
C789 C791 1.561 . S
C789 C792 1.526 . S
C790 H774 0.959 . S
C790 H775 0.959 . S
C790 H776 0.961 . S
C790 C789 1.502 . S
C791 H777 0.960 . S
C791 H778 0.961 . S
C791 H779 0.959 . S
C791 C789 1.561 . S
C792 C789 1.526 . S
C792 C793 1.396 . S
C792 C797 1.390 . S
C793 C787 1.465 . S
C793 C792 1.396 . S
C793 C794 1.399 . S
C794 H780 0.929 . S
C794 C793 1.399 . S
C794 C795 1.385 . S
C795 H781 0.931 . S
C795 C794 1.385 . S
C795 C796 1.389 . S
C796 C795 1.389 . S
C796 C797 1.387 . S
C797 H782 0.930 . S
C797 C792 1.390 . S
C797 C796 1.387 . S
H798 C810 0.930 . S
H799 C812 0.930 . S
H800 C813 0.930 1_564 S
H801 C817 0.959 . S
H802 C817 0.959 . S
H803 C817 0.961 . S
H804 C818 0.960 . S
H805 C818 0.961 . S
H806 C818 0.959 . S
H807 C821 0.929 . S
H808 C822 0.931 . S
H809 C824 0.930 . S
C810 H798 0.930 . S
C810 C811 1.399 . S
C810 C815 1.399 1_545 S
C811 C810 1.399 . S
C811 C812 1.376 . S
C812 H799 0.930 . S
C812 C811 1.376 . S
C812 C813 1.389 . S
C813 H800 0.930 1_546 S
C813 C812 1.389 . S
C813 C814 1.389 1_545 S
C814 C813 1.389 1_565 S
C814 C815 1.394 . S
C814 C820 1.465 . S
C815 C810 1.399 1_565 S
C815 C814 1.394 . S
C815 C816 1.516 . S
C816 C815 1.516 . S
C816 C817 1.502 . S
C816 C818 1.561 . S
C816 C819 1.526 . S
C817 H801 0.959 . S
C817 H802 0.959 . S
C817 H803 0.961 . S
C817 C816 1.502 . S
C818 H804 0.960 . S
C818 H805 0.961 . S
C818 H806 0.959 . S
C818 C816 1.561 . S
C819 C816 1.526 . S
C819 C820 1.396 . S
C819 C824 1.390 . S
C820 C814 1.465 . S
C820 C819 1.396 . S
C820 C821 1.399 1_556 S
C821 H807 0.929 . S
C821 C820 1.399 1_554 S
C821 C822 1.385 . S
C822 H808 0.931 . S
C822 C821 1.385 . S
C822 C823 1.389 1_554 S
C823 C822 1.389 1_556 S
C823 C824 1.387 . S
C824 H809 0.930 . S
C824 C819 1.390 . S
C824 C823 1.387 . S
H825 C837 0.930 . S
H826 C839 0.930 . S
H827 C840 0.930 . S
H828 C844 0.959 . S
H829 C844 0.959 . S
H830 C844 0.961 . S
H831 C845 0.960 . S
H832 C845 0.961 . S
H833 C845 0.959 . S
H834 C848 0.929 . S
H835 C849 0.931 . S
H836 C851 0.930 . S
C837 H825 0.930 . S
C837 C838 1.399 . S
C837 C842 1.399 . S
C838 C837 1.399 . S
C838 C839 1.376 . S
C839 H826 0.930 . S
C839 C838 1.376 . S
C839 C840 1.388 . S
C840 H827 0.930 . S
C840 C839 1.388 . S
C840 C841 1.390 . S
C841 C840 1.390 . S
C841 C842 1.394 . S
C841 C847 1.465 . S
C842 C837 1.399 . S
C842 C841 1.394 . S
C842 C843 1.516 . S
C843 C842 1.516 . S
C843 C844 1.502 . S
C843 C845 1.561 . S
C843 C846 1.526 . S
C844 H828 0.959 . S
C844 H829 0.959 . S
C844 H830 0.961 . S
C844 C843 1.502 . S
C845 H831 0.960 . S
C845 H832 0.961 . S
C845 H833 0.959 . S
C845 C843 1.561 . S
C846 C843 1.526 . S
C846 C847 1.396 . S
C846 C851 1.390 . S
C847 C841 1.465 . S
C847 C846 1.396 . S
C847 C848 1.399 . S
C848 H834 0.929 . S
C848 C847 1.399 . S
C848 C849 1.385 . S
C849 H835 0.931 . S
C849 C848 1.385 . S
C849 C850 1.389 . S
C850 C849 1.389 . S
C850 C851 1.387 . S
C851 H836 0.930 . S
C851 C846 1.390 . S
C851 C850 1.387 . S
H852 C864 0.934 . S
H853 C866 0.930 . S
H854 C867 0.930 . S
H855 C871 0.959 . S
H856 C871 0.959 . S
H857 C871 0.961 . S
H858 C872 0.960 . S
H859 C872 0.961 . S
H860 C872 0.959 . S
H861 C875 0.929 . S
H862 C876 0.931 . S
H863 C878 0.930 . S
C864 H852 0.934 . S
C864 C865 1.413 . S
C864 C869 1.381 1_565 S
C865 C864 1.413 . S
C865 C866 1.376 . S
C866 H853 0.930 . S
C866 C865 1.376 . S
C866 C867 1.388 1_565 S
C867 H854 0.930 . S
C867 C866 1.388 1_545 S
C867 C868 1.390 . S
C868 C867 1.390 . S
C868 C869 1.394 . S
C868 C874 1.465 . S
C869 C864 1.381 1_545 S
C869 C868 1.394 . S
C869 C870 1.516 . S
C870 C869 1.516 . S
C870 C871 1.502 . S
C870 C872 1.561 . S
C870 C873 1.526 . S
C871 H855 0.959 . S
C871 H856 0.959 . S
C871 H857 0.961 . S
C871 C870 1.502 . S
C872 H858 0.960 . S
C872 H859 0.961 . S
C872 H860 0.959 . S
C872 C870 1.561 . S
C873 C870 1.526 . S
C873 C874 1.396 . S
C873 C878 1.390 . S
C874 C868 1.465 . S
C874 C873 1.396 . S
C874 C875 1.399 . S
C875 H861 0.929 . S
C875 C874 1.399 . S
C875 C876 1.385 . S
C876 H862 0.931 . S
C876 C875 1.385 . S
C876 C877 1.389 . S
C877 C876 1.389 . S
C877 C878 1.387 . S
C878 H863 0.930 . S
C878 C873 1.390 . S
C878 C877 1.387 . S
H879 C891 0.930 . S
H880 C893 0.930 . S
H881 C894 0.930 . S
H882 C898 0.959 . S
H883 C898 0.959 . S
H884 C898 0.961 . S
H885 C899 0.960 . S
H886 C899 0.961 . S
H887 C899 0.959 . S
H888 C902 0.929 . S
H889 C903 0.931 . S
H890 C905 0.930 . S
C891 H879 0.930 . S
C891 C892 1.399 . S
C891 C896 1.399 . S
C892 C891 1.399 . S
C892 C893 1.376 . S
C893 H880 0.930 . S
C893 C892 1.376 . S
C893 C894 1.388 . S
C894 H881 0.930 . S
C894 C893 1.388 . S
C894 C895 1.390 . S
C895 C894 1.390 . S
C895 C896 1.394 . S
C895 C901 1.465 . S
C896 C891 1.399 . S
C896 C895 1.394 . S
C896 C897 1.516 . S
C897 C896 1.516 . S
C897 C898 1.502 . S
C897 C899 1.561 . S
C897 C900 1.526 . S
C898 H882 0.959 . S
C898 H883 0.959 . S
C898 H884 0.961 . S
C898 C897 1.502 . S
C899 H885 0.960 . S
C899 H886 0.961 . S
C899 H887 0.959 . S
C899 C897 1.561 . S
C900 C897 1.526 . S
C900 C901 1.396 . S
C900 C905 1.390 . S
C901 C895 1.465 . S
C901 C900 1.396 . S
C901 C902 1.399 . S
C902 H888 0.929 . S
C902 C901 1.399 . S
C902 C903 1.385 . S
C903 H889 0.931 . S
C903 C902 1.385 . S
C903 C904 1.389 . S
C904 C903 1.389 . S
C904 C905 1.387 . S
C905 H890 0.930 . S
C905 C900 1.390 . S
C905 C904 1.387 . S
H906 C918 0.930 . S
H907 C920 0.931 1_565 S
H908 C921 0.930 . S
H909 C925 0.959 . S
H910 C925 0.959 . S
H911 C925 0.961 . S
H912 C926 0.972 . S
H913 C926 0.956 1_545 S
H914 C926 0.963 . S
H915 C929 0.929 . S
H916 C930 0.931 . S
H917 C932 0.930 . S
C918 H906 0.930 . S
C918 C919 1.399 . S
C918 C923 1.399 1_565 S
C919 C918 1.399 . S
C919 C920 1.376 1_565 S
C920 H907 0.931 1_545 S
C920 C919 1.376 1_545 S
C920 C921 1.388 . S
C921 H908 0.930 . S
C921 C920 1.388 . S
C921 C922 1.390 . S
C922 C921 1.390 . S
C922 C923 1.394 . S
C922 C928 1.465 . S
C923 C918 1.399 1_545 S
C923 C922 1.394 . S
C923 C924 1.516 . S
C924 C923 1.516 . S
C924 C925 1.502 . S
C924 C926 1.550 1_545 S
C924 C927 1.526 . S
C925 H909 0.959 . S
C925 H910 0.959 . S
C925 H911 0.961 . S
C925 C924 1.502 . S
C926 H912 0.972 . S
C926 H913 0.956 1_565 S
C926 H914 0.963 . S
C926 C924 1.550 1_565 S
C927 C924 1.526 . S
C927 C928 1.396 . S
C927 C932 1.390 . S
C928 C922 1.465 . S
C928 C927 1.396 . S
C928 C929 1.399 . S
C929 H915 0.929 . S
C929 C928 1.399 . S
C929 C930 1.385 . S
C930 H916 0.931 . S
C930 C929 1.385 . S
C930 C931 1.389 . S
C931 C930 1.389 . S
C931 C932 1.387 . S
C932 H917 0.930 . S
C932 C927 1.390 . S
C932 C931 1.387 . S
H933 C945 0.930 . S
H934 C947 0.930 . S
H935 C948 0.930 . S
H936 C952 0.959 . S
H937 C952 0.959 . S
H938 C952 0.961 . S
H939 C953 0.960 . S
H940 C953 0.961 . S
H941 C953 0.959 . S
H942 C956 0.929 . S
H943 C957 0.931 . S
H944 C959 0.930 . S
C945 H933 0.930 . S
C945 C946 1.399 . S
C945 C950 1.399 . S
C946 C945 1.399 . S
C946 C947 1.376 . S
C947 H934 0.930 . S
C947 C946 1.376 . S
C947 C948 1.388 . S
C948 H935 0.930 . S
C948 C947 1.388 . S
C948 C949 1.390 . S
C949 C948 1.390 . S
C949 C950 1.394 . S
C949 C955 1.465 . S
C950 C945 1.399 . S
C950 C949 1.394 . S
C950 C951 1.516 . S
C951 C950 1.516 . S
C951 C952 1.502 . S
C951 C953 1.561 . S
C951 C954 1.526 . S
C952 H936 0.959 . S
C952 H937 0.959 . S
C952 H938 0.961 . S
C952 C951 1.502 . S
C953 H939 0.960 . S
C953 H940 0.961 . S
C953 H941 0.959 . S
C953 C951 1.561 . S
C954 C951 1.526 . S
C954 C955 1.396 . S
C954 C959 1.390 . S
C955 C949 1.465 . S
C955 C954 1.396 . S
C955 C956 1.399 . S
C956 H942 0.929 . S
C956 C955 1.399 . S
C956 C957 1.385 . S
C957 H943 0.931 . S
C957 C956 1.385 . S
C957 C958 1.389 . S
C958 C957 1.389 . S
C958 C959 1.387 . S
C959 H944 0.930 . S
C959 C954 1.390 . S
C959 C958 1.387 . S
H960 C972 0.930 . S
H961 C974 0.930 . S
H962 C975 0.930 . S
H963 C979 0.959 . S
H964 C979 0.959 . S
H965 C979 0.961 . S
H966 C980 0.960 . S
H967 C980 0.961 . S
H968 C980 0.959 . S
H969 C983 0.929 . S
H970 C984 0.931 . S
H971 C986 0.930 . S
C972 H960 0.930 . S
C972 C973 1.399 . S
C972 C977 1.399 . S
C973 C972 1.399 . S
C973 C974 1.376 . S
C974 H961 0.930 . S
C974 C973 1.376 . S
C974 C975 1.388 . S
C975 H962 0.930 . S
C975 C974 1.388 . S
C975 C976 1.390 . S
C976 C975 1.390 . S
C976 C977 1.394 . S
C976 C982 1.465 . S
C977 C972 1.399 . S
C977 C976 1.394 . S
C977 C978 1.516 . S
C978 C977 1.516 . S
C978 C979 1.502 . S
C978 C980 1.561 . S
C978 C981 1.526 . S
C979 H963 0.959 . S
C979 H964 0.959 . S
C979 H965 0.961 . S
C979 C978 1.502 . S
C980 H966 0.960 . S
C980 H967 0.961 . S
C980 H968 0.959 . S
C980 C978 1.561 . S
C981 C978 1.526 . S
C981 C982 1.396 . S
C981 C986 1.390 . S
C982 C976 1.465 . S
C982 C981 1.396 . S
C982 C983 1.399 . S
C983 H969 0.929 . S
C983 C982 1.399 . S
C983 C984 1.385 . S
C984 H970 0.931 . S
C984 C983 1.385 . S
C984 C985 1.389 . S
C985 C984 1.389 . S
C985 C986 1.387 . S
C986 H971 0.930 . S
C986 C981 1.390 . S
C986 C985 1.387 . S
H987 C999 0.930 . S
H988 C1001 0.930 . S
H989 C1002 0.930 . S
H990 C1006 0.959 . S
H991 C1006 0.959 . S
H992 C1006 0.961 . S
H993 C1007 0.960 . S
H994 C1007 0.961 . S
H995 C1007 0.959 1_545 S
H996 C1010 0.929 . S
H997 C1011 0.931 . S
H998 C1013 0.930 1_565 S
C999 H987 0.930 . S
C999 C1000 1.399 . S
C999 C1004 1.399 . S
C1000 C999 1.399 . S
C1000 C1001 1.376 . S
C1001 H988 0.930 . S
C1001 C1000 1.376 . S
C1001 C1002 1.388 . S
C1002 H989 0.930 . S
C1002 C1001 1.388 . S
C1002 C1003 1.390 . S
C1003 C1002 1.390 . S
C1003 C1004 1.394 . S
C1003 C1009 1.465 . S
C1004 C999 1.399 . S
C1004 C1003 1.394 . S
C1004 C1005 1.516 . S
C1005 C1004 1.516 . S
C1005 C1006 1.502 1_545 S
C1005 C1007 1.561 1_545 S
C1005 C1008 1.526 . S
C1006 H990 0.959 . S
C1006 H991 0.959 . S
C1006 H992 0.961 . S
C1006 C1005 1.502 1_565 S
C1007 H993 0.960 . S
C1007 H994 0.961 . S
C1007 H995 0.959 1_565 S
C1007 C1005 1.561 1_565 S
C1008 C1005 1.526 . S
C1008 C1009 1.396 . S
C1008 C1013 1.390 . S
C1009 C1003 1.465 . S
C1009 C1008 1.396 . S
C1009 C1010 1.399 . S
C1010 H996 0.929 . S
C1010 C1009 1.399 . S
C1010 C1011 1.385 . S
C1011 H997 0.931 . S
C1011 C1010 1.385 . S
C1011 C1012 1.389 . S
C1012 C1011 1.389 . S
C1012 C1013 1.387 . S
C1013 H998 0.930 1_545 S
C1013 C1008 1.390 . S
C1013 C1012 1.387 . S
H1014 C1026 0.930 . S
H1015 C1028 0.930 . S
H1016 C1029 0.930 . S
H1017 C1033 0.959 . S
H1018 C1033 0.959 . S
H1019 C1033 0.961 . S
H1020 C1034 0.960 . S
H1021 C1034 0.961 . S
H1022 C1034 0.959 . S
H1023 C1037 0.929 . S
H1024 C1038 0.931 . S
H1025 C1040 0.930 . S
C1026 H1014 0.930 . S
C1026 C1027 1.399 . S
C1026 C1031 1.399 . S
C1027 C1026 1.399 . S
C1027 C1028 1.376 . S
C1028 H1015 0.930 . S
C1028 C1027 1.376 . S
C1028 C1029 1.388 . S
C1029 H1016 0.930 . S
C1029 C1028 1.388 . S
C1029 C1030 1.390 . S
C1030 C1029 1.390 . S
C1030 C1031 1.394 . S
C1030 C1036 1.465 . S
C1031 C1026 1.399 . S
C1031 C1030 1.394 . S
C1031 C1032 1.516 . S
C1032 C1031 1.516 . S
C1032 C1033 1.502 . S
C1032 C1034 1.561 . S
C1032 C1035 1.526 . S
C1033 H1017 0.959 . S
C1033 H1018 0.959 . S
C1033 H1019 0.961 . S
C1033 C1032 1.502 . S
C1034 H1020 0.960 . S
C1034 H1021 0.961 . S
C1034 H1022 0.959 . S
C1034 C1032 1.561 . S
C1035 C1032 1.526 . S
C1035 C1036 1.396 . S
C1035 C1040 1.390 . S
C1036 C1030 1.465 . S
C1036 C1035 1.396 . S
C1036 C1037 1.399 . S
C1037 H1023 0.929 . S
C1037 C1036 1.399 . S
C1037 C1038 1.385 . S
C1038 H1024 0.931 . S
C1038 C1037 1.385 . S
C1038 C1039 1.389 . S
C1039 C1038 1.389 . S
C1039 C1040 1.387 . S
C1040 H1025 0.930 . S
C1040 C1035 1.390 . S
C1040 C1039 1.387 . S
H1041 C1053 0.930 . S
H1042 C1055 0.930 . S
H1043 C1056 0.930 . S
H1044 C1060 0.959 . S
H1045 C1060 0.959 . S
H1046 C1060 0.961 . S
H1047 C1061 0.960 . S
H1048 C1061 0.961 . S
H1049 C1061 0.959 . S
H1050 C1064 0.929 . S
H1051 C1065 0.931 . S
H1052 C1067 0.930 . S
C1053 H1041 0.930 . S
C1053 C1054 1.399 . S
C1053 C1058 1.399 . S
C1054 C1053 1.399 . S
C1054 C1055 1.376 . S
C1055 H1042 0.930 . S
C1055 C1054 1.376 . S
C1055 C1056 1.388 . S
C1056 H1043 0.930 . S
C1056 C1055 1.388 . S
C1056 C1057 1.390 . S
C1057 C1056 1.390 . S
C1057 C1058 1.394 . S
C1057 C1063 1.465 . S
C1058 C1053 1.399 . S
C1058 C1057 1.394 . S
C1058 C1059 1.516 . S
C1059 C1058 1.516 . S
C1059 C1060 1.502 . S
C1059 C1061 1.561 . S
C1059 C1062 1.526 . S
C1060 H1044 0.959 . S
C1060 H1045 0.959 . S
C1060 H1046 0.961 . S
C1060 C1059 1.502 . S
C1061 H1047 0.960 . S
C1061 H1048 0.961 . S
C1061 H1049 0.959 . S
C1061 C1059 1.561 . S
C1062 C1059 1.526 . S
C1062 C1063 1.396 . S
C1062 C1067 1.390 . S
C1063 C1057 1.465 . S
C1063 C1062 1.396 . S
C1063 C1064 1.399 . S
C1064 H1050 0.929 . S
C1064 C1063 1.399 . S
C1064 C1065 1.385 . S
C1065 H1051 0.931 . S
C1065 C1064 1.385 . S
C1065 C1066 1.389 . S
C1066 C1065 1.389 . S
C1066 C1067 1.387 . S
C1067 H1052 0.930 . S
C1067 C1062 1.390 . S
C1067 C1066 1.387 . S
H1068 C1080 0.930 . S
H1069 C1082 0.930 . S
H1070 C1083 0.930 . S
H1071 C1087 0.959 . S
H1072 C1087 0.959 . S
H1073 C1087 0.961 . S
H1074 C1088 0.960 . S
H1075 C1088 0.961 . S
H1076 C1088 0.959 . S
H1077 C1091 0.929 . S
H1078 C1092 0.931 . S
H1079 C1094 0.930 . S
C1080 H1068 0.930 . S
C1080 C1081 1.399 . S
C1080 C1085 1.399 . S
C1081 C1080 1.399 . S
C1081 C1082 1.376 . S
C1082 H1069 0.930 . S
C1082 C1081 1.376 . S
C1082 C1083 1.388 . S
C1083 H1070 0.930 . S
C1083 C1082 1.388 . S
C1083 C1084 1.390 . S
C1084 C1083 1.390 . S
C1084 C1085 1.394 . S
C1084 C1090 1.465 . S
C1085 C1080 1.399 . S
C1085 C1084 1.394 . S
C1085 C1086 1.516 . S
C1086 C1085 1.516 . S
C1086 C1087 1.502 . S
C1086 C1088 1.561 . S
C1086 C1089 1.526 . S
C1087 H1071 0.959 . S
C1087 H1072 0.959 . S
C1087 H1073 0.961 . S
C1087 C1086 1.502 . S
C1088 H1074 0.960 . S
C1088 H1075 0.961 . S
C1088 H1076 0.959 . S
C1088 C1086 1.561 . S
C1089 C1086 1.526 . S
C1089 C1090 1.396 . S
C1089 C1094 1.390 . S
C1090 C1084 1.465 . S
C1090 C1089 1.396 . S
C1090 C1091 1.399 . S
C1091 H1077 0.929 . S
C1091 C1090 1.399 . S
C1091 C1092 1.385 . S
C1092 H1078 0.931 . S
C1092 C1091 1.385 . S
C1092 C1093 1.389 . S
C1093 C1092 1.389 . S
C1093 C1094 1.387 . S
C1094 H1079 0.930 . S
C1094 C1089 1.390 . S
C1094 C1093 1.387 . S
H1095 C1107 0.897 1_565 S
H1096 C1109 0.930 . S
H1097 C1110 0.931 . S
H1098 C1114 0.959 . S
H1099 C1114 0.959 . S
H1100 C1114 0.961 . S
H1101 C1115 0.960 . S
H1102 C1115 0.961 . S
H1103 C1115 0.959 . S
H1104 C1118 0.929 . S
H1105 C1119 0.931 . S
H1106 C1121 0.930 1_565 S
C1107 H1095 0.897 1_545 S
C1107 C1108 1.399 1_655 S
C1107 C1112 1.399 . S
C1108 C1107 1.399 1_455 S
C1108 C1109 1.376 . S
C1109 H1096 0.930 . S
C1109 C1108 1.376 . S
C1109 C1110 1.396 . S
C1110 H1097 0.931 . S
C1110 C1109 1.396 . S
C1110 C1111 1.382 1_455 S
C1111 C1110 1.382 1_655 S
C1111 C1112 1.394 . S
C1111 C1117 1.465 . S
C1112 C1107 1.399 . S
C1112 C1111 1.394 . S
C1112 C1113 1.516 1_545 S
C1113 C1112 1.516 1_565 S
C1113 C1114 1.502 . S
C1113 C1115 1.561 . S
C1113 C1116 1.526 1_565 S
C1114 H1098 0.959 . S
C1114 H1099 0.959 . S
C1114 H1100 0.961 . S
C1114 C1113 1.502 . S
C1115 H1101 0.960 . S
C1115 H1102 0.961 . S
C1115 H1103 0.959 . S
C1115 C1113 1.561 . S
C1116 C1113 1.526 1_545 S
C1116 C1117 1.396 . S
C1116 C1121 1.390 . S
C1117 C1111 1.465 . S
C1117 C1116 1.396 . S
C1117 C1118 1.399 . S
C1118 H1104 0.929 . S
C1118 C1117 1.399 . S
C1118 C1119 1.385 . S
C1119 H1105 0.931 . S
C1119 C1118 1.385 . S
C1119 C1120 1.389 . S
C1120 C1119 1.389 . S
C1120 C1121 1.387 . S
C1121 H1106 0.930 1_545 S
C1121 C1116 1.390 . S
C1121 C1120 1.387 . S
H1122 C1134 0.930 . S
H1123 C1136 0.930 . S
H1124 C1137 0.930 . S
H1125 C1141 0.959 . S
H1126 C1141 0.959 . S
H1127 C1141 0.961 . S
H1128 C1142 0.960 . S
H1129 C1142 0.961 . S
H1130 C1142 0.959 . S
H1131 C1145 0.929 . S
H1132 C1146 0.931 . S
H1133 C1148 0.930 . S
C1134 H1122 0.930 . S
C1134 C1135 1.399 . S
C1134 C1139 1.399 . S
C1135 C1134 1.399 . S
C1135 C1136 1.376 . S
C1136 H1123 0.930 . S
C1136 C1135 1.376 . S
C1136 C1137 1.388 . S
C1137 H1124 0.930 . S
C1137 C1136 1.388 . S
C1137 C1138 1.390 . S
C1138 C1137 1.390 . S
C1138 C1139 1.394 . S
C1138 C1144 1.465 . S
C1139 C1134 1.399 . S
C1139 C1138 1.394 . S
C1139 C1140 1.516 . S
C1140 C1139 1.516 . S
C1140 C1141 1.502 . S
C1140 C1142 1.561 . S
C1140 C1143 1.526 . S
C1141 H1125 0.959 . S
C1141 H1126 0.959 . S
C1141 H1127 0.961 . S
C1141 C1140 1.502 . S
C1142 H1128 0.960 . S
C1142 H1129 0.961 . S
C1142 H1130 0.959 . S
C1142 C1140 1.561 . S
C1143 C1140 1.526 . S
C1143 C1144 1.396 . S
C1143 C1148 1.390 . S
C1144 C1138 1.465 . S
C1144 C1143 1.396 . S
C1144 C1145 1.399 . S
C1145 H1131 0.929 . S
C1145 C1144 1.399 . S
C1145 C1146 1.385 . S
C1146 H1132 0.931 . S
C1146 C1145 1.385 . S
C1146 C1147 1.389 . S
C1147 C1146 1.389 . S
C1147 C1148 1.387 . S
C1148 H1133 0.930 . S
C1148 C1143 1.390 . S
C1148 C1147 1.387 . S
H1149 C1161 0.930 . S
H1150 C1163 0.930 . S
H1151 C1164 0.930 . S
H1152 C1168 0.959 . S
H1153 C1168 0.959 . S
H1154 C1168 0.961 . S
H1155 C1169 0.945 1_655 S
H1156 C1169 0.967 . S
H1157 C1169 0.954 1_655 S
H1158 C1172 0.929 . S
H1159 C1173 0.931 . S
H1160 C1175 0.930 . S
C1161 H1149 0.930 . S
C1161 C1162 1.399 . S
C1161 C1166 1.399 1_655 S
C1162 C1161 1.399 . S
C1162 C1163 1.376 . S
C1163 H1150 0.930 . S
C1163 C1162 1.376 . S
C1163 C1164 1.388 1_655 S
C1164 H1151 0.930 . S
C1164 C1163 1.388 1_455 S
C1164 C1165 1.390 . S
C1165 C1164 1.390 . S
C1165 C1166 1.394 . S
C1165 C1171 1.465 . S
C1166 C1161 1.399 1_455 S
C1166 C1165 1.394 . S
C1166 C1167 1.516 . S
C1167 C1166 1.516 . S
C1167 C1168 1.502 . S
C1167 C1169 1.576 . S
C1167 C1170 1.526 . S
C1168 H1152 0.959 . S
C1168 H1153 0.959 . S
C1168 H1154 0.961 . S
C1168 C1167 1.502 . S
C1169 H1155 0.945 1_455 S
C1169 H1156 0.967 . S
C1169 H1157 0.954 1_455 S
C1169 C1167 1.576 . S
C1170 C1167 1.526 . S
C1170 C1171 1.396 . S
C1170 C1175 1.390 . S
C1171 C1165 1.465 . S
C1171 C1170 1.396 . S
C1171 C1172 1.399 . S
C1172 H1158 0.929 . S
C1172 C1171 1.399 . S
C1172 C1173 1.385 . S
C1173 H1159 0.931 . S
C1173 C1172 1.385 . S
C1173 C1174 1.389 . S
C1174 C1173 1.389 . S
C1174 C1175 1.387 . S
C1175 H1160 0.930 . S
C1175 C1170 1.390 . S
C1175 C1174 1.387 . S
H1176 C1188 0.930 . S
H1177 C1190 0.930 . S
H1178 C1191 0.930 . S
H1179 C1195 0.959 . S
H1180 C1195 0.959 . S
H1181 C1195 0.961 . S
H1182 C1196 0.960 . S
H1183 C1196 0.961 . S
H1184 C1196 0.959 . S
H1185 C1199 0.929 . S
H1186 C1200 0.931 . S
H1187 C1202 0.930 . S
C1188 H1176 0.930 . S
C1188 C1189 1.399 . S
C1188 C1193 1.399 . S
C1189 C1188 1.399 . S
C1189 C1190 1.376 . S
C1190 H1177 0.930 . S
C1190 C1189 1.376 . S
C1190 C1191 1.388 . S
C1191 H1178 0.930 . S
C1191 C1190 1.388 . S
C1191 C1192 1.390 . S
C1192 C1191 1.390 . S
C1192 C1193 1.394 . S
C1192 C1198 1.465 . S
C1193 C1188 1.399 . S
C1193 C1192 1.394 . S
C1193 C1194 1.516 . S
C1194 C1193 1.516 . S
C1194 C1195 1.502 . S
C1194 C1196 1.561 . S
C1194 C1197 1.526 . S
C1195 H1179 0.959 . S
C1195 H1180 0.959 . S
C1195 H1181 0.961 . S
C1195 C1194 1.502 . S
C1196 H1182 0.960 . S
C1196 H1183 0.961 . S
C1196 H1184 0.959 . S
C1196 C1194 1.561 . S
C1197 C1194 1.526 . S
C1197 C1198 1.396 . S
C1197 C1202 1.390 . S
C1198 C1192 1.465 . S
C1198 C1197 1.396 . S
C1198 C1199 1.399 . S
C1199 H1185 0.929 . S
C1199 C1198 1.399 . S
C1199 C1200 1.385 . S
C1200 H1186 0.931 . S
C1200 C1199 1.385 . S
C1200 C1201 1.389 . S
C1201 C1200 1.389 . S
C1201 C1202 1.387 . S
C1202 H1187 0.930 . S
C1202 C1197 1.390 . S
C1202 C1201 1.387 . S
H1203 C1215 0.930 . S
H1204 C1217 0.930 . S
H1205 C1218 0.930 . S
H1206 C1222 0.959 . S
H1207 C1222 0.959 . S
H1208 C1222 0.961 . S
H1209 C1223 0.960 . S
H1210 C1223 0.961 . S
H1211 C1223 0.959 . S
H1212 C1226 0.929 . S
H1213 C1227 0.931 . S
H1214 C1229 0.930 . S
C1215 H1203 0.930 . S
C1215 C1216 1.399 1_556 S
C1215 C1220 1.399 . S
C1216 C1215 1.399 1_554 S
C1216 C1217 1.376 . S
C1217 H1204 0.930 . S
C1217 C1216 1.376 . S
C1217 C1218 1.388 . S
C1218 H1205 0.930 . S
C1218 C1217 1.388 . S
C1218 C1219 1.390 1_554 S
C1219 C1218 1.390 1_556 S
C1219 C1220 1.394 . S
C1219 C1225 1.465 . S
C1220 C1215 1.399 . S
C1220 C1219 1.394 . S
C1220 C1221 1.516 . S
C1221 C1220 1.516 . S
C1221 C1222 1.502 . S
C1221 C1223 1.561 1_655 S
C1221 C1224 1.526 . S
C1222 H1206 0.959 . S
C1222 H1207 0.959 . S
C1222 H1208 0.961 . S
C1222 C1221 1.502 . S
C1223 H1209 0.960 . S
C1223 H1210 0.961 . S
C1223 H1211 0.959 . S
C1223 C1221 1.561 1_455 S
C1224 C1221 1.526 . S
C1224 C1225 1.396 . S
C1224 C1229 1.390 . S
C1225 C1219 1.465 . S
C1225 C1224 1.396 . S
C1225 C1226 1.399 . S
C1226 H1212 0.929 . S
C1226 C1225 1.399 . S
C1226 C1227 1.385 . S
C1227 H1213 0.931 . S
C1227 C1226 1.385 . S
C1227 C1228 1.389 . S
C1228 C1227 1.389 . S
C1228 C1229 1.387 . S
C1229 H1214 0.930 . S
C1229 C1224 1.390 . S
C1229 C1228 1.387 . S
H1230 C1242 0.930 . S
H1231 C1244 0.930 . S
H1232 C1245 0.930 . S
H1233 C1249 0.959 . S
H1234 C1249 0.959 . S
H1235 C1249 0.961 . S
H1236 C1250 0.960 . S
H1237 C1250 0.961 . S
H1238 C1250 0.959 . S
H1239 C1253 0.929 . S
H1240 C1254 0.931 . S
H1241 C1256 0.930 . S
C1242 H1230 0.930 . S
C1242 C1243 1.399 . S
C1242 C1247 1.399 . S
C1243 C1242 1.399 . S
C1243 C1244 1.376 . S
C1244 H1231 0.930 . S
C1244 C1243 1.376 . S
C1244 C1245 1.388 . S
C1245 H1232 0.930 . S
C1245 C1244 1.388 . S
C1245 C1246 1.390 . S
C1246 C1245 1.390 . S
C1246 C1247 1.394 . S
C1246 C1252 1.465 . S
C1247 C1242 1.399 . S
C1247 C1246 1.394 . S
C1247 C1248 1.516 . S
C1248 C1247 1.516 . S
C1248 C1249 1.502 . S
C1248 C1250 1.561 . S
C1248 C1251 1.526 . S
C1249 H1233 0.959 . S
C1249 H1234 0.959 . S
C1249 H1235 0.961 . S
C1249 C1248 1.502 . S
C1250 H1236 0.960 . S
C1250 H1237 0.961 . S
C1250 H1238 0.959 . S
C1250 C1248 1.561 . S
C1251 C1248 1.526 . S
C1251 C1252 1.396 . S
C1251 C1256 1.390 . S
C1252 C1246 1.465 . S
C1252 C1251 1.396 . S
C1252 C1253 1.399 . S
C1253 H1239 0.929 . S
C1253 C1252 1.399 . S
C1253 C1254 1.385 . S
C1254 H1240 0.931 . S
C1254 C1253 1.385 . S
C1254 C1255 1.389 . S
C1255 C1254 1.389 . S
C1255 C1256 1.387 . S
C1256 H1241 0.930 . S
C1256 C1251 1.390 . S
C1256 C1255 1.387 . S
H1257 C1269 0.930 . S
H1258 C1271 0.930 . S
H1259 C1272 0.930 . S
H1260 C1276 0.959 . S
H1261 C1276 0.959 . S
H1262 C1276 0.961 . S
H1263 C1277 0.960 . S
H1264 C1277 0.961 . S
H1265 C1277 0.959 1_655 S
H1266 C1280 0.929 . S
H1267 C1281 0.931 . S
H1268 C1283 0.930 . S
C1269 H1257 0.930 . S
C1269 C1270 1.399 1_556 S
C1269 C1274 1.399 . S
C1270 C1269 1.399 1_554 S
C1270 C1271 1.376 . S
C1271 H1258 0.930 . S
C1271 C1270 1.376 . S
C1271 C1272 1.388 . S
C1272 H1259 0.930 . S
C1272 C1271 1.388 . S
C1272 C1273 1.390 1_554 S
C1273 C1272 1.390 1_556 S
C1273 C1274 1.394 . S
C1273 C1279 1.465 . S
C1274 C1269 1.399 . S
C1274 C1273 1.394 . S
C1274 C1275 1.516 . S
C1275 C1274 1.516 . S
C1275 C1276 1.502 . S
C1275 C1277 1.561 . S
C1275 C1278 1.526 . S
C1276 H1260 0.959 . S
C1276 H1261 0.959 . S
C1276 H1262 0.961 . S
C1276 C1275 1.502 . S
C1277 H1263 0.960 . S
C1277 H1264 0.961 . S
C1277 H1265 0.959 1_455 S
C1277 C1275 1.561 . S
C1278 C1275 1.526 . S
C1278 C1279 1.396 . S
C1278 C1283 1.390 . S
C1279 C1273 1.465 . S
C1279 C1278 1.396 . S
C1279 C1280 1.399 . S
C1280 H1266 0.929 . S
C1280 C1279 1.399 . S
C1280 C1281 1.385 . S
C1281 H1267 0.931 . S
C1281 C1280 1.385 . S
C1281 C1282 1.389 . S
C1282 C1281 1.389 . S
C1282 C1283 1.387 . S
C1283 H1268 0.930 . S
C1283 C1278 1.390 . S
C1283 C1282 1.387 . S
H1284 C1296 0.930 . S
H1285 C1298 0.930 . S
H1286 C1299 0.930 . S
H1287 C1303 0.959 . S
H1288 C1303 0.959 . S
H1289 C1303 0.961 . S
H1290 C1304 0.960 . S
H1291 C1304 0.961 . S
H1292 C1304 0.959 . S
H1293 C1307 0.929 . S
H1294 C1308 0.931 . S
H1295 C1310 0.930 . S
C1296 H1284 0.930 . S
C1296 C1297 1.399 . S
C1296 C1301 1.399 . S
C1297 C1296 1.399 . S
C1297 C1298 1.376 . S
C1298 H1285 0.930 . S
C1298 C1297 1.376 . S
C1298 C1299 1.388 . S
C1299 H1286 0.930 . S
C1299 C1298 1.388 . S
C1299 C1300 1.390 . S
C1300 C1299 1.390 . S
C1300 C1301 1.394 . S
C1300 C1306 1.465 . S
C1301 C1296 1.399 . S
C1301 C1300 1.394 . S
C1301 C1302 1.516 . S
C1302 C1301 1.516 . S
C1302 C1303 1.502 . S
C1302 C1304 1.561 . S
C1302 C1305 1.526 . S
C1303 H1287 0.959 . S
C1303 H1288 0.959 . S
C1303 H1289 0.961 . S
C1303 C1302 1.502 . S
C1304 H1290 0.960 . S
C1304 H1291 0.961 . S
C1304 H1292 0.959 . S
C1304 C1302 1.561 . S
C1305 C1302 1.526 . S
C1305 C1306 1.396 . S
C1305 C1310 1.390 . S
C1306 C1300 1.465 . S
C1306 C1305 1.396 . S
C1306 C1307 1.399 . S
C1307 H1293 0.929 . S
C1307 C1306 1.399 . S
C1307 C1308 1.385 . S
C1308 H1294 0.931 . S
C1308 C1307 1.385 . S
C1308 C1309 1.389 . S
C1309 C1308 1.389 . S
C1309 C1310 1.387 . S
C1310 H1295 0.930 . S
C1310 C1305 1.390 . S
C1310 C1309 1.387 . S
H1311 C1323 0.930 . S
H1312 C1325 0.930 . S
H1313 C1326 0.925 1_556 S
H1314 C1330 0.959 . S
H1315 C1330 0.959 . S
H1316 C1330 0.961 . S
H1317 C1331 0.960 . S
H1318 C1331 0.961 . S
H1319 C1331 0.959 . S
H1320 C1334 0.929 . S
H1321 C1335 0.931 . S
H1322 C1337 0.930 . S
C1323 H1311 0.930 . S
C1323 C1324 1.399 1_554 S
C1323 C1328 1.399 . S
C1324 C1323 1.399 1_556 S
C1324 C1325 1.376 . S
C1325 H1312 0.930 . S
C1325 C1324 1.376 . S
C1325 C1326 1.373 1_556 S
C1326 H1313 0.925 1_554 S
C1326 C1325 1.373 1_554 S
C1326 C1327 1.411 . S
C1327 C1326 1.411 . S
C1327 C1328 1.394 . S
C1327 C1333 1.465 . S
C1328 C1323 1.399 . S
C1328 C1327 1.394 . S
C1328 C1329 1.516 . S
C1329 C1328 1.516 . S
C1329 C1330 1.502 . S
C1329 C1331 1.561 . S
C1329 C1332 1.526 . S
C1330 H1314 0.959 . S
C1330 H1315 0.959 . S
C1330 H1316 0.961 . S
C1330 C1329 1.502 . S
C1331 H1317 0.960 . S
C1331 H1318 0.961 . S
C1331 H1319 0.959 . S
C1331 C1329 1.561 . S
C1332 C1329 1.526 . S
C1332 C1333 1.396 . S
C1332 C1337 1.390 . S
C1333 C1327 1.465 . S
C1333 C1332 1.396 . S
C1333 C1334 1.399 . S
C1334 H1320 0.929 . S
C1334 C1333 1.399 . S
C1334 C1335 1.385 . S
C1335 H1321 0.931 . S
C1335 C1334 1.385 . S
C1335 C1336 1.389 . S
C1336 C1335 1.389 . S
C1336 C1337 1.387 . S
C1337 H1322 0.930 . S
C1337 C1332 1.390 . S
C1337 C1336 1.387 . S
H1338 C1350 0.930 . S
H1339 C1352 0.930 . S
H1340 C1353 0.930 . S
H1341 C1357 0.959 . S
H1342 C1357 0.959 . S
H1343 C1357 0.961 . S
H1344 C1358 0.960 . S
H1345 C1358 0.961 . S
H1346 C1358 0.959 . S
H1347 C1361 0.929 . S
H1348 C1362 0.931 . S
H1349 C1364 0.930 . S
C1350 H1338 0.930 . S
C1350 C1351 1.399 . S
C1350 C1355 1.399 . S
C1351 C1350 1.399 . S
C1351 C1352 1.376 . S
C1352 H1339 0.930 . S
C1352 C1351 1.376 . S
C1352 C1353 1.388 . S
C1353 H1340 0.930 . S
C1353 C1352 1.388 . S
C1353 C1354 1.390 . S
C1354 C1353 1.390 . S
C1354 C1355 1.394 . S
C1354 C1360 1.465 . S
C1355 C1350 1.399 . S
C1355 C1354 1.394 . S
C1355 C1356 1.516 . S
C1356 C1355 1.516 . S
C1356 C1357 1.502 . S
C1356 C1358 1.561 . S
C1356 C1359 1.526 . S
C1357 H1341 0.959 . S
C1357 H1342 0.959 . S
C1357 H1343 0.961 . S
C1357 C1356 1.502 . S
C1358 H1344 0.960 . S
C1358 H1345 0.961 . S
C1358 H1346 0.959 . S
C1358 C1356 1.561 . S
C1359 C1356 1.526 . S
C1359 C1360 1.396 . S
C1359 C1364 1.390 . S
C1360 C1354 1.465 . S
C1360 C1359 1.396 . S
C1360 C1361 1.399 . S
C1361 H1347 0.929 . S
C1361 C1360 1.399 . S
C1361 C1362 1.385 . S
C1362 H1348 0.931 . S
C1362 C1361 1.385 . S
C1362 C1363 1.389 . S
C1363 C1362 1.389 . S
C1363 C1364 1.387 . S
C1364 H1349 0.930 . S
C1364 C1359 1.390 . S
C1364 C1363 1.387 . S
H1365 C1377 0.930 . S
H1366 C1379 0.930 . S
H1367 C1380 0.930 . S
H1368 C1384 0.959 . S
H1369 C1384 0.959 . S
H1370 C1384 0.961 . S
H1371 C1385 0.960 . S
H1372 C1385 0.961 . S
H1373 C1385 0.959 . S
H1374 C1388 0.929 . S
H1375 C1389 0.931 . S
H1376 C1391 0.930 . S
C1377 H1365 0.930 . S
C1377 C1378 1.399 1_554 S
C1377 C1382 1.399 . S
C1378 C1377 1.399 1_556 S
C1378 C1379 1.376 . S
C1379 H1366 0.930 . S
C1379 C1378 1.376 . S
C1379 C1380 1.388 1_556 S
C1380 H1367 0.930 . S
C1380 C1379 1.388 1_554 S
C1380 C1381 1.390 . S
C1381 C1380 1.390 . S
C1381 C1382 1.394 . S
C1381 C1387 1.465 . S
C1382 C1377 1.399 . S
C1382 C1381 1.394 . S
C1382 C1383 1.516 . S
C1383 C1382 1.516 . S
C1383 C1384 1.502 . S
C1383 C1385 1.561 . S
C1383 C1386 1.526 . S
C1384 H1368 0.959 . S
C1384 H1369 0.959 . S
C1384 H1370 0.961 . S
C1384 C1383 1.502 . S
C1385 H1371 0.960 . S
C1385 H1372 0.961 . S
C1385 H1373 0.959 . S
C1385 C1383 1.561 . S
C1386 C1383 1.526 . S
C1386 C1387 1.396 . S
C1386 C1391 1.390 . S
C1387 C1381 1.465 . S
C1387 C1386 1.396 . S
C1387 C1388 1.399 . S
C1388 H1374 0.929 . S
C1388 C1387 1.399 . S
C1388 C1389 1.385 . S
C1389 H1375 0.931 . S
C1389 C1388 1.385 . S
C1389 C1390 1.389 . S
C1390 C1389 1.389 . S
C1390 C1391 1.387 . S
C1391 H1376 0.930 . S
C1391 C1386 1.390 . S
C1391 C1390 1.387 . S
H1392 C1404 0.930 . S
H1393 C1406 0.930 . S
H1394 C1407 0.930 . S
H1395 C1411 0.959 . S
H1396 C1411 0.959 . S
H1397 C1411 0.961 . S
H1398 C1412 0.960 . S
H1399 C1412 0.961 . S
H1400 C1412 0.959 . S
H1401 C1415 0.929 . S
H1402 C1416 0.931 . S
H1403 C1418 0.930 . S
C1404 H1392 0.930 . S
C1404 C1405 1.399 . S
C1404 C1409 1.399 . S
C1405 C1404 1.399 . S
C1405 C1406 1.376 . S
C1406 H1393 0.930 . S
C1406 C1405 1.376 . S
C1406 C1407 1.388 . S
C1407 H1394 0.930 . S
C1407 C1406 1.388 . S
C1407 C1408 1.390 . S
C1408 C1407 1.390 . S
C1408 C1409 1.394 . S
C1408 C1414 1.465 . S
C1409 C1404 1.399 . S
C1409 C1408 1.394 . S
C1409 C1410 1.516 . S
C1410 C1409 1.516 . S
C1410 C1411 1.502 . S
C1410 C1412 1.561 . S
C1410 C1413 1.526 . S
C1411 H1395 0.959 . S
C1411 H1396 0.959 . S
C1411 H1397 0.961 . S
C1411 C1410 1.502 . S
C1412 H1398 0.960 . S
C1412 H1399 0.961 . S
C1412 H1400 0.959 . S
C1412 C1410 1.561 . S
C1413 C1410 1.526 . S
C1413 C1414 1.396 . S
C1413 C1418 1.390 . S
C1414 C1408 1.465 . S
C1414 C1413 1.396 . S
C1414 C1415 1.399 . S
C1415 H1401 0.929 . S
C1415 C1414 1.399 . S
C1415 C1416 1.385 . S
C1416 H1402 0.931 . S
C1416 C1415 1.385 . S
C1416 C1417 1.389 . S
C1417 C1416 1.389 . S
C1417 C1418 1.387 . S
C1418 H1403 0.930 . S
C1418 C1413 1.390 . S
C1418 C1417 1.387 . S
H1419 C1431 0.930 . S
H1420 C1433 0.930 . S
H1421 C1434 0.930 . S
H1422 C1438 0.959 . S
H1423 C1438 0.959 . S
H1424 C1438 0.961 . S
H1425 C1439 0.960 . S
H1426 C1439 0.961 . S
H1427 C1439 0.959 . S
H1428 C1442 0.929 . S
H1429 C1443 0.931 . S
H1430 C1445 0.930 . S
C1431 H1419 0.930 . S
C1431 C1432 1.399 . S
C1431 C1436 1.399 . S
C1432 C1431 1.399 . S
C1432 C1433 1.376 . S
C1433 H1420 0.930 . S
C1433 C1432 1.376 . S
C1433 C1434 1.388 . S
C1434 H1421 0.930 . S
C1434 C1433 1.388 . S
C1434 C1435 1.390 . S
C1435 C1434 1.390 . S
C1435 C1436 1.394 . S
C1435 C1441 1.465 . S
C1436 C1431 1.399 . S
C1436 C1435 1.394 . S
C1436 C1437 1.516 . S
C1437 C1436 1.516 . S
C1437 C1438 1.502 . S
C1437 C1439 1.561 . S
C1437 C1440 1.526 . S
C1438 H1422 0.959 . S
C1438 H1423 0.959 . S
C1438 H1424 0.961 . S
C1438 C1437 1.502 . S
C1439 H1425 0.960 . S
C1439 H1426 0.961 . S
C1439 H1427 0.959 . S
C1439 C1437 1.561 . S
C1440 C1437 1.526 . S
C1440 C1441 1.396 . S
C1440 C1445 1.390 . S
C1441 C1435 1.465 . S
C1441 C1440 1.396 . S
C1441 C1442 1.399 . S
C1442 H1428 0.929 . S
C1442 C1441 1.399 . S
C1442 C1443 1.385 . S
C1443 H1429 0.931 . S
C1443 C1442 1.385 . S
C1443 C1444 1.389 . S
C1444 C1443 1.389 . S
C1444 C1445 1.387 . S
C1445 H1430 0.930 . S
C1445 C1440 1.390 . S
C1445 C1444 1.387 . S
H1446 C1458 0.930 . S
H1447 C1460 0.930 . S
H1448 C1461 0.930 . S
H1449 C1465 0.959 . S
H1450 C1465 0.959 . S
H1451 C1465 0.961 . S
H1452 C1466 0.960 . S
H1453 C1466 0.961 . S
H1454 C1466 0.959 . S
H1455 C1469 0.929 . S
H1456 C1470 0.931 . S
H1457 C1472 0.930 . S
C1458 H1446 0.930 . S
C1458 C1459 1.399 . S
C1458 C1463 1.399 . S
C1459 C1458 1.399 . S
C1459 C1460 1.376 . S
C1460 H1447 0.930 . S
C1460 C1459 1.376 . S
C1460 C1461 1.388 . S
C1461 H1448 0.930 . S
C1461 C1460 1.388 . S
C1461 C1462 1.390 . S
C1462 C1461 1.390 . S
C1462 C1463 1.394 . S
C1462 C1468 1.465 . S
C1463 C1458 1.399 . S
C1463 C1462 1.394 . S
C1463 C1464 1.516 . S
C1464 C1463 1.516 . S
C1464 C1465 1.502 . S
C1464 C1466 1.561 . S
C1464 C1467 1.526 . S
C1465 H1449 0.959 . S
C1465 H1450 0.959 . S
C1465 H1451 0.961 . S
C1465 C1464 1.502 . S
C1466 H1452 0.960 . S
C1466 H1453 0.961 . S
C1466 H1454 0.959 . S
C1466 C1464 1.561 . S
C1467 C1464 1.526 . S
C1467 C1468 1.396 . S
C1467 C1472 1.390 . S
C1468 C1462 1.465 . S
C1468 C1467 1.396 . S
C1468 C1469 1.399 . S
C1469 H1455 0.929 . S
C1469 C1468 1.399 . S
C1469 C1470 1.385 . S
C1470 H1456 0.931 . S
C1470 C1469 1.385 . S
C1470 C1471 1.389 . S
C1471 C1470 1.389 . S
C1471 C1472 1.387 . S
C1472 H1457 0.930 . S
C1472 C1467 1.390 . S
C1472 C1471 1.387 . S
H1473 C1485 0.930 . S
H1474 C1487 0.930 . S
H1475 C1488 0.930 . S
H1476 C1492 0.959 . S
H1477 C1492 0.959 . S
H1478 C1492 0.961 . S
H1479 C1493 0.960 . S
H1480 C1493 0.961 . S
H1481 C1493 0.959 . S
H1482 C1496 0.929 . S
H1483 C1497 0.931 . S
H1484 C1499 0.930 . S
C1485 H1473 0.930 . S
C1485 C1486 1.399 . S
C1485 C1490 1.399 . S
C1486 C1485 1.399 . S
C1486 C1487 1.376 . S
C1487 H1474 0.930 . S
C1487 C1486 1.376 . S
C1487 C1488 1.388 . S
C1488 H1475 0.930 . S
C1488 C1487 1.388 . S
C1488 C1489 1.390 . S
C1489 C1488 1.390 . S
C1489 C1490 1.394 . S
C1489 C1495 1.465 . S
C1490 C1485 1.399 . S
C1490 C1489 1.394 . S
C1490 C1491 1.516 . S
C1491 C1490 1.516 . S
C1491 C1492 1.502 . S
C1491 C1493 1.561 . S
C1491 C1494 1.526 . S
C1492 H1476 0.959 . S
C1492 H1477 0.959 . S
C1492 H1478 0.961 . S
C1492 C1491 1.502 . S
C1493 H1479 0.960 . S
C1493 H1480 0.961 . S
C1493 H1481 0.959 . S
C1493 C1491 1.561 . S
C1494 C1491 1.526 . S
C1494 C1495 1.396 . S
C1494 C1499 1.390 . S
C1495 C1489 1.465 . S
C1495 C1494 1.396 . S
C1495 C1496 1.399 . S
C1496 H1482 0.929 . S
C1496 C1495 1.399 . S
C1496 C1497 1.385 . S
C1497 H1483 0.931 . S
C1497 C1496 1.385 . S
C1497 C1498 1.389 . S
C1498 C1497 1.389 . S
C1498 C1499 1.387 . S
C1499 H1484 0.930 . S
C1499 C1494 1.390 . S
C1499 C1498 1.387 . S
H1500 C1512 0.930 . S
H1501 C1514 0.930 . S
H1502 C1515 0.930 . S
H1503 C1519 0.959 . S
H1504 C1519 0.959 . S
H1505 C1519 0.961 . S
H1506 C1520 0.960 . S
H1507 C1520 0.961 . S
H1508 C1520 0.959 . S
H1509 C1523 0.929 . S
H1510 C1524 0.931 . S
H1511 C1526 0.930 . S
C1512 H1500 0.930 . S
C1512 C1513 1.399 . S
C1512 C1517 1.399 . S
C1513 C1512 1.399 . S
C1513 C1514 1.376 . S
C1514 H1501 0.930 . S
C1514 C1513 1.376 . S
C1514 C1515 1.388 . S
C1515 H1502 0.930 . S
C1515 C1514 1.388 . S
C1515 C1516 1.390 . S
C1516 C1515 1.390 . S
C1516 C1517 1.394 . S
C1516 C1522 1.465 . S
C1517 C1512 1.399 . S
C1517 C1516 1.394 . S
C1517 C1518 1.516 . S
C1518 C1517 1.516 . S
C1518 C1519 1.502 . S
C1518 C1520 1.561 1_556 S
C1518 C1521 1.526 . S
C1519 H1503 0.959 . S
C1519 H1504 0.959 . S
C1519 H1505 0.961 . S
C1519 C1518 1.502 . S
C1520 H1506 0.960 . S
C1520 H1507 0.961 . S
C1520 H1508 0.959 . S
C1520 C1518 1.561 1_554 S
C1521 C1518 1.526 . S
C1521 C1522 1.396 . S
C1521 C1526 1.390 . S
C1522 C1516 1.465 . S
C1522 C1521 1.396 . S
C1522 C1523 1.399 . S
C1523 H1509 0.929 . S
C1523 C1522 1.399 . S
C1523 C1524 1.385 . S
C1524 H1510 0.931 . S
C1524 C1523 1.385 . S
C1524 C1525 1.389 . S
C1525 C1524 1.389 . S
C1525 C1526 1.387 . S
C1526 H1511 0.930 . S
C1526 C1521 1.390 . S
C1526 C1525 1.387 . S
H1527 C1539 0.930 . S
H1528 C1541 0.930 . S
H1529 C1542 0.930 . S
H1530 C1546 0.959 . S
H1531 C1546 0.959 . S
H1532 C1546 0.961 . S
H1533 C1547 0.960 . S
H1534 C1547 0.961 . S
H1535 C1547 0.959 . S
H1536 C1550 0.929 . S
H1537 C1551 0.931 . S
H1538 C1553 0.930 . S
C1539 H1527 0.930 . S
C1539 C1540 1.399 . S
C1539 C1544 1.399 . S
C1540 C1539 1.399 . S
C1540 C1541 1.376 . S
C1541 H1528 0.930 . S
C1541 C1540 1.376 . S
C1541 C1542 1.388 . S
C1542 H1529 0.930 . S
C1542 C1541 1.388 . S
C1542 C1543 1.390 . S
C1543 C1542 1.390 . S
C1543 C1544 1.394 . S
C1543 C1549 1.465 . S
C1544 C1539 1.399 . S
C1544 C1543 1.394 . S
C1544 C1545 1.516 . S
C1545 C1544 1.516 . S
C1545 C1546 1.502 . S
C1545 C1547 1.561 . S
C1545 C1548 1.526 . S
C1546 H1530 0.959 . S
C1546 H1531 0.959 . S
C1546 H1532 0.961 . S
C1546 C1545 1.502 . S
C1547 H1533 0.960 . S
C1547 H1534 0.961 . S
C1547 H1535 0.959 . S
C1547 C1545 1.561 . S
C1548 C1545 1.526 . S
C1548 C1549 1.396 . S
C1548 C1553 1.390 . S
C1549 C1543 1.465 . S
C1549 C1548 1.396 . S
C1549 C1550 1.399 . S
C1550 H1536 0.929 . S
C1550 C1549 1.399 . S
C1550 C1551 1.385 . S
C1551 H1537 0.931 . S
C1551 C1550 1.385 . S
C1551 C1552 1.389 . S
C1552 C1551 1.389 . S
C1552 C1553 1.387 . S
C1553 H1538 0.930 . S
C1553 C1548 1.390 . S
C1553 C1552 1.387 . S
H1554 C1566 0.930 . S
H1555 C1568 0.930 . S
H1556 C1569 0.930 1_556 S
H1557 C1573 0.959 . S
H1558 C1573 0.959 . S
H1559 C1573 0.961 . S
H1560 C1574 0.960 . S
H1561 C1574 0.961 . S
H1562 C1574 0.959 . S
H1563 C1577 0.929 . S
H1564 C1578 0.931 . S
H1565 C1580 0.930 . S
C1566 H1554 0.930 . S
C1566 C1567 1.399 . S
C1566 C1571 1.399 . S
C1567 C1566 1.399 . S
C1567 C1568 1.376 . S
C1568 H1555 0.930 . S
C1568 C1567 1.376 . S
C1568 C1569 1.388 . S
C1569 H1556 0.930 1_554 S
C1569 C1568 1.388 . S
C1569 C1570 1.390 . S
C1570 C1569 1.390 . S
C1570 C1571 1.394 . S
C1570 C1576 1.465 . S
C1571 C1566 1.399 . S
C1571 C1570 1.394 . S
C1571 C1572 1.516 . S
C1572 C1571 1.516 . S
C1572 C1573 1.502 . S
C1572 C1574 1.561 . S
C1572 C1575 1.526 . S
C1573 H1557 0.959 . S
C1573 H1558 0.959 . S
C1573 H1559 0.961 . S
C1573 C1572 1.502 . S
C1574 H1560 0.960 . S
C1574 H1561 0.961 . S
C1574 H1562 0.959 . S
C1574 C1572 1.561 . S
C1575 C1572 1.526 . S
C1575 C1576 1.396 . S
C1575 C1580 1.390 . S
C1576 C1570 1.465 . S
C1576 C1575 1.396 . S
C1576 C1577 1.399 1_554 S
C1577 H1563 0.929 . S
C1577 C1576 1.399 1_556 S
C1577 C1578 1.385 . S
C1578 H1564 0.931 . S
C1578 C1577 1.385 . S
C1578 C1579 1.389 1_556 S
C1579 C1578 1.389 1_554 S
C1579 C1580 1.387 . S
C1580 H1565 0.930 . S
C1580 C1575 1.390 . S
C1580 C1579 1.387 . S
H1581 C1593 0.930 1_556 S
H1582 C1595 0.930 . S
H1583 C1596 0.930 . S
H1584 C1600 0.959 . S
H1585 C1600 0.959 . S
H1586 C1600 0.961 . S
H1587 C1601 0.960 1_545 S
H1588 C1601 0.961 . S
H1589 C1601 0.959 1_545 S
H1590 C1604 0.929 . S
H1591 C1605 0.931 . S
H1592 C1607 0.895 1_556 S
C1593 H1581 0.930 1_554 S
C1593 C1594 1.399 1_565 S
C1593 C1598 1.399 . S
C1594 C1593 1.399 1_545 S
C1594 C1595 1.376 . S
C1595 H1582 0.930 . S
C1595 C1594 1.376 . S
C1595 C1596 1.388 1_545 S
C1596 H1583 0.930 . S
C1596 C1595 1.388 1_565 S
C1596 C1597 1.390 . S
C1597 C1596 1.390 . S
C1597 C1598 1.394 . S
C1597 C1603 1.465 . S
C1598 C1593 1.399 . S
C1598 C1597 1.394 . S
C1598 C1599 1.516 1_554 S
C1599 C1598 1.516 1_556 S
C1599 C1600 1.502 . S
C1599 C1601 1.561 . S
C1599 C1602 1.526 1_556 S
C1600 H1584 0.959 . S
C1600 H1585 0.959 . S
C1600 H1586 0.961 . S
C1600 C1599 1.502 . S
C1601 H1587 0.960 1_565 S
C1601 H1588 0.961 . S
C1601 H1589 0.959 1_565 S
C1601 C1599 1.561 . S
C1602 C1599 1.526 1_554 S
C1602 C1603 1.396 . S
C1602 C1607 1.401 . S
C1603 C1597 1.465 . S
C1603 C1602 1.396 . S
C1603 C1604 1.399 . S
C1604 H1590 0.929 . S
C1604 C1603 1.399 . S
C1604 C1605 1.385 . S
C1605 H1591 0.931 . S
C1605 C1604 1.385 . S
C1605 C1606 1.389 . S
C1606 C1605 1.389 . S
C1606 C1607 1.411 . S
C1607 H1592 0.895 1_554 S
C1607 C1602 1.401 . S
C1607 C1606 1.411 . S
C337 C152 1.461 . S
C325 C50 1.508 . S
C364 C165 1.481 . S
C352 C61 1.476 . S
C379 C67 1.619 . S
C391 C185 1.474 . S
C418 C199 1.325 . S
C406 C41 1.436 . S
C445 C211 1.486 . S
C433 C95 1.497 . S
C472 C225 1.430 . S
C460 C113 1.434 . S
C487 C106 1.471 . S
C499 C235 1.463 . S
C526 C250 1.475 . S
C514 C86 1.539 . S
C541 C104 1.503 . S
C553 C264 1.467 . S
C580 C283 1.356 . S
C568 C88 1.440 . S
C595 C94 1.497 . S
C607 C263 1.504 . S
C634 C281 1.416 . S
C622 C112 1.424 . S
C649 C70 1.601 . S
C661 C297 1.452 . S
C676 C40 1.486 . S
C688 C291 1.474 . S
C703 C49 1.507 . S
C715 C295 1.499 . S
C730 C59 1.535 . S
C742 C292 1.527 . S
C757 C34 1.496 . S
C769 C194 1.489 . S
C784 C133 1.481 . S
C796 C193 1.455 . S
C823 C157 1.359 . S
C811 C139 1.443 . S
C850 C171 1.478 . S
C838 C77 1.611 . S
C865 C43 1.520 . S
C877 C208 1.457 . S
C904 C253 1.500 . S
C892 C103 1.506 . S
C931 C207 1.503 . S
C919 C85 1.500 . S
C958 C239 1.426 . S
C946 C115 1.428 . S
C985 C236 1.482 . S
C973 C131 1.514 . S
C1000 C142 1.476 . S
C1012 C249 1.481 . S
C1027 C76 1.602 . S
C1039 C213 1.541 . S
C1066 C227 1.402 . S
C1054 C122 1.442 . S
C1081 C32 1.506 . S
C1093 C183 1.509 . S
C1120 C197 1.433 . S
C1108 C5 1.433 . S
C1147 C151 1.472 . S
C1135 C16 1.474 . S
C1174 C166 1.475 . S
C1162 C23 1.537 . S
C1189 C14 1.500 . S
C1201 C278 1.491 . S
C1216 C25 1.451 . S
C1228 C269 1.420 . S
C1243 C31 1.497 . S
C1255 C277 1.502 . S
C1270 C4 1.429 . S
C1282 C267 1.434 . S
C1309 C311 1.540 . S
C1297 C79 1.592 . S
C1336 C305 1.462 . S
C1324 C121 1.482 . S
C1363 C309 1.502 . S
C1351 C130 1.508 . S
C1378 C140 1.534 . S
C1390 C306 1.531 . S
C1405 C97 1.504 . S
C1417 C222 1.470 . S
C1444 C221 1.456 . S
C1432 C52 1.481 . S
C1471 C241 1.409 . S
C1459 C58 1.448 . S
C1498 C255 1.504 . S
C1486 C68 1.607 . S
C1513 C124 1.523 . S
C1525 C180 1.482 . S
C1552 C169 1.493 . S
C1540 C13 1.505 . S
C1567 C22 1.489 . S
C1579 C179 1.472 . S
C1606 C155 1.413 . S
C1594 C7 1.417 . S
