# Generated by pormake.
# Topology nom, (4,4)-cn, num edge types: 1
# Building blocks:
#     Node 0, Type 0, BuildingBlock: GIZVER_clean_linker_0, # of connection points: 4
#     Node 1, Type 0, BuildingBlock: GIZVER_clean_linker_0, # of connection points: 4
#     Node 2, Type 0, BuildingBlock: GIZVER_clean_linker_0, # of connection points: 4
#     Node 3, Type 0, BuildingBlock: GIZVER_clean_linker_0, # of connection points: 4
#     Node 4, Type 0, BuildingBlock: GIZVER_clean_linker_0, # of connection points: 4
#     Node 5, Type 0, BuildingBlock: GIZVER_clean_linker_0, # of connection points: 4
#     Node 6, Type 1, BuildingBlock: KUFVIS_clean_sbu_0, # of connection points: 4
#     Node 7, Type 1, BuildingBlock: KUFVIS_clean_sbu_0, # of connection points: 4
#     Node 8, Type 1, BuildingBlock: KUFVIS_clean_sbu_0, # of connection points: 4
#     Node 9, Type 1, BuildingBlock: KUFVIS_clean_sbu_0, # of connection points: 4
#     Node 10, Type 1, BuildingBlock: KUFVIS_clean_sbu_0, # of connection points: 4
#     Node 11, Type 1, BuildingBlock: KUFVIS_clean_sbu_0, # of connection points: 4
#     Edge 12, Type (0, 1), BuildingBlock: CIFDUS_clean_linker_0, # of connection points: 2
#     Edge 13, Type (0, 1), BuildingBlock: CIFDUS_clean_linker_0, # of connection points: 2
#     Edge 14, Type (0, 1), BuildingBlock: CIFDUS_clean_linker_0, # of connection points: 2
#     Edge 15, Type (0, 1), BuildingBlock: CIFDUS_clean_linker_0, # of connection points: 2
#     Edge 16, Type (0, 1), BuildingBlock: CIFDUS_clean_linker_0, # of connection points: 2
#     Edge 17, Type (0, 1), BuildingBlock: CIFDUS_clean_linker_0, # of connection points: 2
#     Edge 18, Type (0, 1), BuildingBlock: CIFDUS_clean_linker_0, # of connection points: 2
#     Edge 19, Type (0, 1), BuildingBlock: CIFDUS_clean_linker_0, # of connection points: 2
#     Edge 20, Type (0, 1), BuildingBlock: CIFDUS_clean_linker_0, # of connection points: 2
#     Edge 21, Type (0, 1), BuildingBlock: CIFDUS_clean_linker_0, # of connection points: 2
#     Edge 22, Type (0, 1), BuildingBlock: CIFDUS_clean_linker_0, # of connection points: 2
#     Edge 23, Type (0, 1), BuildingBlock: CIFDUS_clean_linker_0, # of connection points: 2
#     Edge 24, Type (0, 1), BuildingBlock: CIFDUS_clean_linker_0, # of connection points: 2
#     Edge 25, Type (0, 1), BuildingBlock: CIFDUS_clean_linker_0, # of connection points: 2
#     Edge 26, Type (0, 1), BuildingBlock: CIFDUS_clean_linker_0, # of connection points: 2
#     Edge 27, Type (0, 1), BuildingBlock: CIFDUS_clean_linker_0, # of connection points: 2
#     Edge 28, Type (0, 1), BuildingBlock: CIFDUS_clean_linker_0, # of connection points: 2
#     Edge 29, Type (0, 1), BuildingBlock: CIFDUS_clean_linker_0, # of connection points: 2
#     Edge 30, Type (0, 1), BuildingBlock: CIFDUS_clean_linker_0, # of connection points: 2
#     Edge 31, Type (0, 1), BuildingBlock: CIFDUS_clean_linker_0, # of connection points: 2
#     Edge 32, Type (0, 1), BuildingBlock: CIFDUS_clean_linker_0, # of connection points: 2
#     Edge 33, Type (0, 1), BuildingBlock: CIFDUS_clean_linker_0, # of connection points: 2
#     Edge 34, Type (0, 1), BuildingBlock: CIFDUS_clean_linker_0, # of connection points: 2
#     Edge 35, Type (0, 1), BuildingBlock: CIFDUS_clean_linker_0, # of connection points: 2
# Relax obj value: 0.005
# Max RMSD: 0.074
# Mean RMSD: 0.051
data_MOF--net-nom--node1-KUFVIS_clean_sbu_0--node2-GIZVER_clean_linker_0--edge1-CIFDUS_clean_linker_0
_symmetry_space_group_name_H-M    P1
_symmetry_Int_Tables_number       1
_symmetry_cell_setting            triclinic
loop_
_symmetry_equiv_pos_as_xyz
'x, y, z'
_cell_length_a     39.750324
_cell_length_b     40.429362
_cell_length_c     41.623322
_cell_angle_alpha  90.16396
_cell_angle_beta   90.343043
_cell_angle_gamma 120.07649
loop_
_atom_site_label
_atom_site_type_symbol
_atom_site_fract_x
_atom_site_fract_y
_atom_site_fract_z
_atom_type_partial_charge
H0 H 0.9945 0.59744 0.33147 0.0
H1 H 0.03176 0.57228 0.24233 0.0
H2 H 0.91175 0.50824 0.26957 0.0
H3 H 0.05775 0.6422 0.31122 0.0
H4 H 0.06487 0.64006 0.2691 0.0
H5 H 0.0666 0.59262 0.34582 0.0
H6 H 0.16543 0.58357 0.31654 0.0
H7 H 0.12536 0.64427 0.25866 0.0
C8 C 0.98794 0.58001 0.30999 0.0
C9 C 0.94949 0.55027 0.30406 0.0
C10 C 1.0178 0.58816 0.2877 0.0
C11 C 1.00902 0.56575 0.25963 0.0
C12 C 0.97088 0.53617 0.25325 0.0
C13 C 0.94163 0.52902 0.27553 0.0
C14 C 0.05777 0.62335 0.29171 0.0
C15 C 0.08914 0.61352 0.29906 0.0
C16 C 0.08886 0.59695 0.32882 0.0
C17 C 0.11871 0.58928 0.33719 0.0
C18 C 0.14553 0.59414 0.31312 0.0
C19 C 0.1517 0.61833 0.28703 0.0
C20 C 0.12204 0.62641 0.2791 0.0
H21 H 0.41548 0.97868 0.49429 0.0
H22 H 0.49415 0.02594 0.41447 0.0
H23 H 0.46487 0.91605 0.45211 0.0
H24 H 0.43083 0.04038 0.47398 0.0
H25 H 0.44042 0.04407 0.43176 0.0
H26 H 0.50139 0.05931 0.50641 0.0
H27 H 0.58303 0.17575 0.48289 0.0
H28 H 0.48428 0.1105 0.42155 0.0
C29 C 0.43541 0.97718 0.47751 0.0
C30 C 0.43781 0.94363 0.47561 0.0
C31 C 0.45697 1.00779 0.45608 0.0
C32 C 0.47986 1.00383 0.43235 0.0
C33 C 0.48268 0.97063 0.43065 0.0
C34 C 0.46342 0.94208 0.45358 0.0
C35 C 0.45224 0.04279 0.45572 0.0
C36 C 0.49025 0.07961 0.46186 0.0
C37 C 0.51163 0.08319 0.49005 0.0
C38 C 0.5452 0.11784 0.49781 0.0
C39 C 0.55751 0.14868 0.4768 0.0
C40 C 0.53536 0.14711 0.44998 0.0
C41 C 0.50198 0.11205 0.44202 0.0
H42 H 0.44157 0.49998 0.59714 0.0
H43 H 0.47222 0.48703 0.69291 0.0
H44 H 0.47658 0.59131 0.66612 0.0
H45 H 0.44049 0.44283 0.61127 0.0
H46 H 0.43884 0.43284 0.65308 0.0
H47 H 0.5102 0.48545 0.58679 0.0
H48 H 0.58295 0.43998 0.61443 0.0
H49 H 0.48771 0.42144 0.67446 0.0
C50 C 0.45283 0.5128 0.62043 0.0
C51 C 0.45508 0.54775 0.62912 0.0
C52 C 0.46237 0.49244 0.6428 0.0
C53 C 0.47045 0.50533 0.67482 0.0
C54 C 0.47238 0.53974 0.68378 0.0
C55 C 0.47055 0.56293 0.6596 0.0
C56 C 0.4569 0.45359 0.63428 0.0
C57 C 0.49511 0.45402 0.63126 0.0
C58 C 0.51839 0.47067 0.60405 0.0
C59 C 0.55101 0.4667 0.59842 0.0
C60 C 0.56001 0.44595 0.62034 0.0
C61 C 0.53825 0.43005 0.64821 0.0
C62 C 0.50562 0.43433 0.65357 0.0
H63 H 0.95064 0.43552 0.76578 0.0
H64 H 0.99764 0.47264 0.86094 0.0
H65 H 0.88158 0.44756 0.83864 0.0
H66 H 1.00549 0.4308 0.78305 0.0
H67 H 1.02024 0.43872 0.824 0.0
H68 H 0.03442 0.48366 0.7438 0.0
H69 H 0.15051 0.57158 0.76856 0.0
H70 H 0.07471 0.49868 0.84194 0.0
C71 C 0.94837 0.44509 0.78961 0.0
C72 C 0.91294 0.44172 0.79926 0.0
C73 C 0.97946 0.45694 0.81156 0.0
C74 C 0.97493 0.46608 0.8433 0.0
C75 C 0.93978 0.4633 0.85306 0.0
C76 C 0.90961 0.45246 0.83057 0.0
C77 C 1.01346 0.45167 0.80318 0.0
C78 C 0.04958 0.4885 0.7942 0.0
C79 C 0.05651 0.49986 0.76181 0.0
C80 C 0.09287 0.53019 0.75234 0.0
C81 C 0.12161 0.54993 0.77586 0.0
C82 C 0.11547 0.53881 0.80809 0.0
C83 C 0.07912 0.5084 0.81727 0.0
H84 H 0.59897 0.06184 0.00519 0.0
H85 H 0.54363 0.03046 0.91225 0.0
H86 H 0.59803 0.14705 0.9442 0.0
H87 H 0.58988 1.00461 0.97742 0.0
H88 H 0.57039 0.99384 0.93773 0.0
H89 H 0.54177 0.99514 0.02367 0.0
H90 H 0.44234 0.883 0.01524 0.0
H91 H 0.50806 0.93974 0.93117 0.0
C92 C 0.58928 0.0695 0.98353 0.0
C93 C 0.5994 0.10786 0.97844 0.0
C94 C 0.56893 0.04135 0.95977 0.0
C95 C 0.55777 0.05165 0.93114 0.0
C96 C 0.56792 0.08976 0.92556 0.0
C97 C 0.58791 0.11731 0.94954 0.0
C98 C 0.56597 1.00264 0.96198 0.0
C99 C 0.52778 0.972 0.97552 0.0
C100 C 0.52106 0.97172 0.00863 0.0
C101 C 0.48969 0.93986 0.02282 0.0
C102 C 0.46449 0.90856 0.00358 0.0
C103 C 0.4708 0.90768 0.97053 0.0
C104 C 0.50214 0.94013 0.95649 0.0
H105 H 0.62747 0.54659 0.0922 0.0
H106 H 0.58061 0.56062 0.18067 0.0
H107 H 0.5909 0.46127 0.16585 0.0
H108 H 0.61999 0.60087 0.09818 0.0
H109 H 0.62914 0.61629 0.13897 0.0
H110 H 0.55332 0.57403 0.07483 0.0
H111 H 0.48257 0.61358 0.11963 0.0
H112 H 0.58115 0.62319 0.17017 0.0
C113 C 0.61327 0.53495 0.11487 0.0
C114 C 0.61126 0.50142 0.12682 0.0
C115 C 0.60014 0.55548 0.13354 0.0
C116 C 0.58667 0.54298 0.16482 0.0
C117 C 0.58404 0.50935 0.1767 0.0
C118 C 0.59323 0.48734 0.15653 0.0
C119 C 0.60713 0.59408 0.12261 0.0
C120 C 0.57057 0.59695 0.12288 0.0
C121 C 0.54631 0.5858 0.09546 0.0
C122 C 0.51427 0.59156 0.09409 0.0
C123 C 0.50587 0.60705 0.12096 0.0
C124 C 0.52929 0.61804 0.14852 0.0
C125 C 0.56199 0.61332 0.14937 0.0
Mn126 Mn 0.65476 0.43179 0.39335 0.0
Mn127 Mn 0.7039 0.52651 0.41029 0.0
C128 C 0.62831 0.45792 0.42743 0.0
C129 C 0.637 0.36854 0.40561 0.0
C130 C 0.65791 0.49347 0.34877 0.0
O131 O 0.71013 0.44769 0.37924 0.0
O132 O 0.73958 0.51051 0.39139 0.0
C133 C 0.75541 0.52628 0.46188 0.0
N134 N 0.72824 0.53505 0.45159 0.0
C135 C 0.72946 0.56396 0.50253 0.0
C136 C 0.75763 0.55545 0.5136 0.0
C137 C 0.77058 0.53644 0.49321 0.0
C138 C 0.71559 0.55336 0.47101 0.0
H139 H 0.76543 0.51164 0.4463 0.0
C140 C 0.74028 0.48114 0.38052 0.0
O141 O 0.63245 0.37785 0.37673 0.0
O142 O 0.65481 0.39633 0.42608 0.0
N143 N 0.67344 0.54604 0.42901 0.0
C144 C 0.64398 0.5494 0.41552 0.0
C145 C 0.62633 0.56601 0.43338 0.0
C146 C 0.63941 0.57935 0.46476 0.0
C147 C 0.67005 0.57595 0.478 0.0
C148 C 0.6866 0.55924 0.45902 0.0
H149 H 0.63377 0.53913 0.39143 0.0
O150 O 0.60638 0.4259 0.41252 0.0
O151 O 0.66553 0.47392 0.42221 0.0
O152 O 0.64722 0.45854 0.35441 0.0
O153 O 0.67929 0.52088 0.36792 0.0
C154 C 0.6842 0.58765 0.50955 0.0
C155 C 0.71394 0.58173 0.52178 0.0
H156 H 0.76921 0.563 0.53782 0.0
H157 H 0.79217 0.5296 0.50164 0.0
H158 H 0.60265 0.56846 0.42302 0.0
H159 H 0.62553 0.59188 0.47854 0.0
H160 H 0.67196 0.60064 0.5248 0.0
H161 H 0.7241 0.59025 0.54625 0.0
Mn162 Mn 0.27287 0.66281 0.54539 0.0
Mn163 Mn 0.23172 0.56753 0.53396 0.0
C164 C 0.22274 0.63056 0.50823 0.0
C165 C 0.31802 0.72558 0.53066 0.0
C166 C 0.21558 0.60329 0.59196 0.0
O167 O 0.31304 0.65085 0.56536 0.0
O168 O 0.28493 0.58802 0.55227 0.0
C169 C 0.28348 0.56879 0.48248 0.0
N170 N 0.24709 0.55798 0.49308 0.0
C171 C 0.21888 0.52898 0.44197 0.0
C172 C 0.256 0.5391 0.43079 0.0
C173 C 0.28845 0.55923 0.4511 0.0
C174 C 0.21569 0.53898 0.47359 0.0
H175 H 0.30858 0.58503 0.49771 0.0
C176 C 0.31305 0.61911 0.56393 0.0
O177 O 0.30206 0.71823 0.55883 0.0
O178 O 0.31014 0.69638 0.51256 0.0
N179 N 0.18053 0.54479 0.51556 0.0
C180 C 0.14714 0.53964 0.52916 0.0
C181 C 0.11217 0.52112 0.51155 0.0
C182 C 0.11185 0.5081 0.48017 0.0
C183 C 0.14652 0.51361 0.46671 0.0
C184 C 0.18041 0.53179 0.48557 0.0
H185 H 0.14717 0.54973 0.55318 0.0
O186 O 0.22983 0.66324 0.51985 0.0
O187 O 0.24471 0.618 0.51919 0.0
O188 O 0.23664 0.63796 0.58327 0.0
O189 O 0.213 0.57492 0.57608 0.0
C190 C 0.14894 0.50261 0.43505 0.0
C191 C 0.1851 0.51035 0.42267 0.0
H192 H 0.26 0.53213 0.40648 0.0
H193 H 0.31727 0.56766 0.44249 0.0
H194 H 0.08555 0.5171 0.52207 0.0
H195 H 0.0849 0.49429 0.46651 0.0
H196 H 0.12326 0.48874 0.41984 0.0
H197 H 0.18671 0.50238 0.39811 0.0
Mn198 Mn 0.63072 0.24639 0.7124 0.0
Mn199 Mn 0.67347 0.19458 0.69263 0.0
C200 C 0.6034 0.19905 0.67331 0.0
C201 C 0.62221 0.29919 0.70623 0.0
C202 C 0.62511 0.18032 0.7524 0.0
O203 O 0.68581 0.27906 0.73061 0.0
O204 O 0.71105 0.24279 0.71456 0.0
C205 C 0.73052 0.24638 0.64503 0.0
N206 N 0.70064 0.21123 0.65294 0.0
C207 C 0.70517 0.18447 0.60254 0.0
C208 C 0.7361 0.22036 0.59388 0.0
C209 C 0.74868 0.25149 0.61516 0.0
C210 C 0.68814 0.18115 0.63257 0.0
H211 H 0.74053 0.27027 0.66146 0.0
C212 C 0.71415 0.27274 0.72801 0.0
O213 O 0.6123 0.27942 0.73247 0.0
O214 O 0.63808 0.28913 0.68397 0.0
N215 N 0.64082 0.14724 0.67081 0.0
C216 C 0.6086 0.11548 0.6817 0.0
C217 C 0.59073 0.08244 0.66237 0.0
C218 C 0.60656 0.08219 0.63234 0.0
C219 C 0.64004 0.11507 0.62183 0.0
C220 C 0.65642 0.14722 0.64204 0.0
H221 H 0.59651 0.11546 0.70487 0.0
O222 O 0.58245 0.2105 0.68821 0.0
O223 O 0.64003 0.21588 0.68126 0.0
O224 O 0.61685 0.20667 0.74803 0.0
O225 O 0.64633 0.17413 0.73333 0.0
C226 C 0.65736 0.11745 0.59184 0.0
C227 C 0.69 0.15208 0.58225 0.0
H228 H 0.75014 0.22444 0.57084 0.0
H229 H 0.77244 0.27929 0.6086 0.0
H230 H 0.5649 0.05719 0.67064 0.0
H231 H 0.59264 0.05667 0.61747 0.0
H232 H 0.6454 0.09302 0.57573 0.0
H233 H 0.70262 0.15376 0.5589 0.0
Mn234 Mn 0.39864 0.63994 0.89563 0.0
Mn235 Mn 0.36484 0.5466 0.91297 0.0
C236 C 0.43353 0.62224 0.9291 0.0
C237 C 0.4069 0.70075 0.90314 0.0
C238 C 0.40319 0.58227 0.85052 0.0
O239 O 0.3412 0.61567 0.88391 0.0
O240 O 0.32275 0.55436 0.89517 0.0
C241 C 0.31124 0.53831 0.96553 0.0
N242 N 0.34169 0.53508 0.95455 0.0
C243 C 0.34532 0.50615 0.00394 0.0
C244 C 0.3139 0.50903 0.01572 0.0
C245 C 0.29693 0.52535 -0.00352 0.0
C246 C 0.35842 0.51968 0.97296 0.0
H247 H 0.29789 0.55052 0.95073 0.0
C248 C 0.31542 0.58025 0.88555 0.0
O249 O 0.41157 0.68915 0.8754 0.0
O250 O 0.39541 0.67635 0.92658 0.0
N251 N 0.4019 0.53465 0.9309 0.0
C252 C 0.43384 0.53676 0.91695 0.0
C253 C 0.45555 0.52362 0.93377 0.0
C254 C 0.44384 0.50787 0.96451 0.0
C255 C 0.41061 0.50558 0.97822 0.0
C256 C 0.39026 0.51935 0.96039 0.0
H257 H 0.44287 0.54873 0.8933 0.0
O258 O 0.45094 0.65416 0.91343 0.0
O259 O 0.39615 0.60124 0.92476 0.0
O260 O 0.40745 0.61491 0.85672 0.0
O261 O 0.38837 0.55438 0.86998 0.0
C262 C 0.3973 0.49087 0.00912 0.0
C263 C 0.36461 0.49107 0.02195 0.0
H264 H 0.30279 0.49911 0.03959 0.0
H265 H 0.27275 0.52778 0.00545 0.0
H266 H 0.4812 0.52556 0.92305 0.0
H267 H 0.46074 0.49789 0.97746 0.0
H268 H 0.41242 0.47999 0.02347 0.0
H269 H 0.35509 0.48032 0.04596 0.0
Mn270 Mn 0.79051 0.39341 0.07089 0.0
Mn271 Mn 0.83486 0.34213 0.08481 0.0
C272 C 0.84262 0.41623 0.10616 0.0
C273 C 0.74263 0.40848 0.08402 0.0
C274 C 0.84852 0.38991 0.02499 0.0
O275 O 0.75108 0.34049 0.05403 0.0
O276 O 0.78196 0.30814 0.06624 0.0
C277 C 0.78377 0.29162 0.13606 0.0
N278 N 0.81983 0.3181 0.12581 0.0
C279 C 0.84853 0.31768 0.17677 0.0
C280 C 0.81173 0.2902 0.18779 0.0
C281 C 0.77922 0.27716 0.16735 0.0
C282 C 0.85135 0.33073 0.14523 0.0
H283 H 0.75864 0.28166 0.12051 0.0
C284 C 0.75256 0.30966 0.05517 0.0
O285 O 0.75817 0.41587 0.05566 0.0
O286 O 0.75363 0.39093 0.10374 0.0
N287 N 0.88583 0.37132 0.10324 0.0
C288 C 0.91874 0.39987 0.08975 0.0
C289 C 0.95358 0.41725 0.10758 0.0
C290 C 0.95429 0.40496 0.13898 0.0
C291 C 0.92014 0.37532 0.15225 0.0
C292 C 0.88633 0.35888 0.13325 0.0
H293 H 0.91833 0.4096 0.0657 0.0
O294 O 0.83302 0.43937 0.09293 0.0
O295 O 0.8212 0.38028 0.0985 0.0
O296 O 0.82579 0.40254 0.03217 0.0
O297 O 0.85306 0.36659 0.04262 0.0
C298 C 0.91811 0.3621 0.18385 0.0
C299 C 0.88234 0.33329 0.1961 0.0
H300 H 0.80804 0.27923 0.21201 0.0
H301 H 0.75069 0.25611 0.17575 0.0
H302 H 0.97978 0.44019 0.09721 0.0
H303 H 0.98113 0.41872 0.15277 0.0
H304 H 0.94377 0.37432 0.19912 0.0
H305 H 0.88104 0.32378 0.2206 0.0
Mn306 Mn 0.44157 0.80296 0.24152 0.0
Mn307 Mn 0.53795 0.86183 0.25668 0.0
C308 C 0.46236 0.85663 0.27368 0.0
C309 C 0.38008 0.75038 0.25288 0.0
C310 C 0.49862 0.86413 0.19523 0.0
O311 O 0.46497 0.76984 0.22857 0.0
O312 O 0.52792 0.81188 0.23951 0.0
C313 C 0.5468 0.81818 0.30984 0.0
N314 N 0.55113 0.85153 0.29821 0.0
C315 C 0.584 0.88545 0.34653 0.0
C316 C 0.58008 0.85151 0.35898 0.0
C317 C 0.56122 0.8177 0.34062 0.0
C318 C 0.56895 0.88415 0.31577 0.0
H319 H 0.53259 0.79222 0.29569 0.0
C320 C 0.50085 0.7792 0.22966 0.0
O321 O 0.38881 0.7648 0.22429 0.0
O322 O 0.40773 0.76514 0.27431 0.0
N323 N 0.5529 0.91142 0.27354 0.0
C324 C 0.55169 0.94096 0.25898 0.0
C325 C 0.56746 0.97638 0.2749 0.0
C326 C 0.58502 0.98129 0.30527 0.0
C327 C 0.58654 0.95067 0.31952 0.0
C328 C 0.57013 0.91598 0.3026 0.0
H329 H 0.53853 0.93741 0.23551 0.0
O330 O 0.42861 0.84073 0.25957 0.0
O331 O 0.48312 0.84026 0.26938 0.0
O332 O 0.46479 0.83671 0.20192 0.0
O333 O 0.52798 0.8756 0.21386 0.0
C334 C 0.60292 0.95295 0.35013 0.0
C335 C 0.60168 0.92037 0.36362 0.0
H336 H 0.59114 0.85101 0.38272 0.0
H337 H 0.55796 0.79136 0.35012 0.0
H338 H 0.56621 0.99988 0.26373 0.0
H339 H 0.59704 1.00862 0.31751 0.0
H340 H 0.61586 0.97941 0.36378 0.0
H341 H 0.61371 0.92229 0.38743 0.0
H342 H 0.22028 0.64313 0.31872 0.0
H343 H 0.17489 0.64533 0.22476 0.0
H344 H 0.24162 0.68493 0.20523 0.0
H345 H 0.31326 0.72089 0.21589 0.0
H346 H 0.35563 0.71504 0.31031 0.0
H347 H 0.28935 0.67338 0.32813 0.0
C348 C 0.22442 0.65088 0.29359 0.0
C349 C 0.19195 0.64021 0.2732 0.0
C350 C 0.26258 0.67306 0.28255 0.0
C351 C 0.19893 0.6528 0.24115 0.0
C352 C 0.2372 0.67539 0.22994 0.0
C353 C 0.30798 0.71003 0.24022 0.0
C354 C 0.33963 0.7213 0.26175 0.0
C355 C 0.26933 0.68597 0.25054 0.0
C356 C 0.3321 0.70704 0.29321 0.0
C357 C 0.2941 0.68325 0.3035 0.0
H358 H 0.55112 0.21256 0.47919 0.0
H359 H 0.54458 0.16524 0.38498 0.0
H360 H 0.57461 0.22996 0.36191 0.0
H361 H 0.60796 0.30129 0.37002 0.0
H362 H 0.62052 0.3452 0.46683 0.0
H363 H 0.58448 0.28079 0.48744 0.0
C364 C 0.55627 0.21626 0.45352 0.0
C365 C 0.54618 0.18413 0.43393 0.0
C366 C 0.57563 0.25324 0.44102 0.0
C367 C 0.55203 0.18943 0.40063 0.0
C368 C 0.56969 0.22651 0.38756 0.0
C369 C 0.60298 0.2966 0.3956 0.0
C370 C 0.61737 0.32828 0.41682 0.0
C371 C 0.58264 0.25885 0.40771 0.0
C372 C 0.61046 0.32165 0.4499 0.0
C373 C 0.58945 0.28471 0.46179 0.0
H374 H 0.42712 0.5945 0.65025 0.0
H375 H 0.43646 0.5399 0.56368 0.0
H376 H 0.39452 0.5584 0.53574 0.0
H377 H 0.35089 0.58554 0.53723 0.0
H378 H 0.34844 0.64589 0.62192 0.0
H379 H 0.39412 0.63098 0.64888 0.0
C380 C 0.42189 0.58754 0.62497 0.0
C381 C 0.43537 0.56494 0.60971 0.0
C382 C 0.39887 0.59946 0.60858 0.0
C383 C 0.4261 0.55605 0.57689 0.0
C384 C 0.40221 0.56697 0.56062 0.0
C385 C 0.36097 0.59609 0.56135 0.0
C386 C 0.34611 0.61659 0.5777 0.0
C387 C 0.38767 0.58785 0.57649 0.0
C388 C 0.35961 0.63028 0.60884 0.0
C389 C 0.38548 0.62148 0.62429 0.0
H390 H 0.88855 0.37225 0.7735 0.0
H391 H 0.8551 0.45779 0.78497 0.0
H392 H 0.78992 0.41299 0.76389 0.0
H393 H 0.74123 0.34767 0.74552 0.0
H394 H 0.77622 0.26263 0.73642 0.0
H395 H 0.84174 0.30899 0.75337 0.0
C396 C 0.86739 0.38151 0.77049 0.0
C397 C 0.87676 0.4184 0.78033 0.0
C398 C 0.82989 0.35535 0.75941 0.0
C399 C 0.8486 0.42957 0.77722 0.0
C400 C 0.81128 0.40387 0.76547 0.0
C401 C 0.76315 0.33928 0.7474 0.0
C402 C 0.75348 0.30151 0.73984 0.0
C403 C 0.80128 0.3663 0.7572 0.0
C404 C 0.78253 0.29136 0.74208 0.0
C405 C 0.82022 0.31792 0.7517 0.0
H406 H 0.49853 0.87801 0.92563 0.0
H407 H 0.39385 0.85221 0.97648 0.0
H408 H 0.3642 0.78529 0.96028 0.0
H409 H 0.37101 0.73253 0.93665 0.0
H410 H 0.47294 0.76023 0.88123 0.0
H411 H 0.50037 0.82797 0.89388 0.0
C412 C 0.46874 0.85826 0.93232 0.0
C413 C 0.44904 0.87026 0.95309 0.0
C414 C 0.45152 0.81984 0.92252 0.0
C415 C 0.41034 0.84372 0.96135 0.0
C416 C 0.39326 0.80533 0.95211 0.0
C417 C 0.39898 0.75358 0.92713 0.0
C418 C 0.42026 0.74156 0.9085 0.0
C419 C 0.41415 0.79276 0.93371 0.0
C420 C 0.45616 0.76896 0.89574 0.0
C421 C 0.47189 0.80767 0.90298 0.0
H422 H 0.65168 0.4736 0.15807 0.0
H423 H 0.62335 0.49287 0.06222 0.0
H424 H 0.66176 0.46603 0.03989 0.0
H425 H 0.70355 0.43652 0.04832 0.0
H426 H 0.72431 0.41303 0.14542 0.0
H427 H 0.68699 0.44053 0.16636 0.0
C428 C 0.65244 0.47089 0.13221 0.0
C429 C 0.63353 0.48448 0.11197 0.0
C430 C 0.67316 0.45436 0.11971 0.0
C431 C 0.63735 0.48257 0.07851 0.0
C432 C 0.65917 0.46701 0.06573 0.0
C433 C 0.69953 0.43718 0.074 0.0
C434 C 0.71684 0.42271 0.09523 0.0
C435 C 0.67721 0.4527 0.08616 0.0
C436 C 0.71129 0.4237 0.12845 0.0
C437 C 0.69006 0.43963 0.14056 0.0
H438 H 0.39502 0.87498 0.44781 0.0
H439 H 0.41967 0.93027 0.54049 0.0
H440 H 0.38362 0.86725 0.56652 0.0
H441 H 0.34914 0.79549 0.56234 0.0
H442 H 0.33363 0.74393 0.46828 0.0
H443 H 0.36339 0.80633 0.44358 0.0
C444 C 0.39259 0.87339 0.47379 0.0
C445 C 0.41049 0.90727 0.49221 0.0
C446 C 0.37421 0.83752 0.48838 0.0
C447 C 0.40613 0.90465 0.52574 0.0
C448 C 0.38597 0.86859 0.54058 0.0
C449 C 0.35259 0.79808 0.53649 0.0
C450 C 0.33933 0.76484 0.51729 0.0
C451 C 0.37071 0.83468 0.52213 0.0
C452 C 0.34388 0.76876 0.4838 0.0
C453 C 0.36064 0.80452 0.46951 0.0
H454 H 0.61048 0.44173 0.663 0.0
H455 H 0.48878 0.36333 0.68018 0.0
H456 H 0.50515 0.31807 0.70427 0.0
H457 H 0.55317 0.29674 0.71316 0.0
H458 H 0.67251 0.37103 0.68646 0.0
H459 H 0.65796 0.42135 0.67242 0.0
C460 C 0.58732 0.41469 0.67185 0.0
C461 C 0.54826 0.40588 0.66899 0.0
C462 C 0.59662 0.38766 0.68345 0.0
C463 C 0.51908 0.37124 0.68197 0.0
C464 C 0.5284 0.34501 0.69539 0.0
C465 C 0.57598 0.32424 0.70474 0.0
C466 C 0.61391 0.33049 0.70097 0.0
C467 C 0.5669 0.3523 0.69516 0.0
C468 C 0.64319 0.36579 0.68952 0.0
C469 C 0.63484 0.39447 0.68152 0.0
H470 H 0.13943 0.49786 0.8424 0.0
H471 H 0.1698 0.61354 0.82017 0.0
H472 H 0.2345 0.63732 0.84391 0.0
H473 H 0.28464 0.62421 0.86533 0.0
H474 H 0.25361 0.50751 0.8855 0.0
H475 H 0.18722 0.48536 0.86827 0.0
C476 C 0.15975 0.52837 0.84374 0.0
C477 C 0.14987 0.55393 0.82973 0.0
C478 C 0.1972 0.54163 0.85637 0.0
C479 C 0.17681 0.59336 0.83097 0.0
C480 C 0.21388 0.6069 0.84425 0.0
C481 C 0.26335 0.59397 0.86612 0.0
C482 C 0.27457 0.56766 0.87626 0.0
C483 C 0.22486 0.58115 0.856 0.0
C484 C 0.24624 0.52856 0.87745 0.0
C485 C 0.20804 0.51573 0.8677 0.0
H486 H 0.599 0.17316 -0.00507 0.0
H487 H 0.66324 0.11437 0.01017 0.0
H488 H 0.71486 0.17073 0.03719 0.0
H489 H 0.74503 0.23874 0.05137 0.0
H490 H 0.68285 0.29895 0.03249 0.0
H491 H 0.62786 0.24035 0.01128 0.0
C492 C 0.62421 0.17255 0.00426 0.0
C493 C 0.62711 0.13942 0.00019 0.0
C494 C 0.65469 0.20567 0.01854 0.0
C495 C 0.65971 0.13906 0.01318 0.0
C496 C 0.68964 0.17158 0.02827 0.0
C497 C 0.71945 0.23915 0.04274 0.0
C498 C 0.7185 0.27356 0.04326 0.0
C499 C 0.68795 0.20537 0.03024 0.0
C500 C 0.68478 0.27317 0.03216 0.0
C501 C 0.65317 0.23956 0.02008 0.0
H502 H 0.57808 0.68986 0.16993 0.0
H503 H 0.46188 0.5949 0.18087 0.0
H504 H 0.44244 0.63621 0.20835 0.0
H505 H 0.45658 0.70122 0.22309 0.0
H506 H 0.57319 0.79603 0.2112 0.0
H507 H 0.59414 0.75314 0.19033 0.0
C508 C 0.54895 0.67799 0.17942 0.0
C509 C 0.5215 0.63947 0.17353 0.0
C510 C 0.53768 0.70217 0.19427 0.0
C511 C 0.48356 0.62452 0.18537 0.0
C512 C 0.47231 0.64822 0.2007 0.0
C513 C 0.48658 0.71242 0.21605 0.0
C514 C 0.513 0.75191 0.21833 0.0
C515 C 0.49873 0.68745 0.20415 0.0
C516 C 0.55201 0.76581 0.20959 0.0
C517 C 0.56417 0.74129 0.19766 0.0
H518 H 0.88617 0.48149 0.31961 0.0
H519 H 0.9369 0.60284 0.33579 0.0
H520 H 0.87769 0.59169 0.36267 0.0
H521 H 0.80948 0.54834 0.37693 0.0
H522 H 0.75719 0.42738 0.35735 0.0
H523 H 0.81875 0.4378 0.33574 0.0
C524 C 0.8844 0.50561 0.32901 0.0
C525 C 0.91613 0.54308 0.32524 0.0
C526 C 0.84964 0.49913 0.34334 0.0
C527 C 0.91339 0.5737 0.33845 0.0
C528 C 0.87923 0.56737 0.35351 0.0
C529 C 0.8114 0.52409 0.36809 0.0
C530 C 0.77828 0.48706 0.3686 0.0
C531 C 0.84684 0.53032 0.35534 0.0
C532 C 0.78184 0.45619 0.35713 0.0
C533 C 0.81715 0.46213 0.3448 0.0
H534 H 0.18799 0.60084 0.36285 0.0
H535 H 0.07133 0.56982 0.39198 0.0
H536 H 0.09314 0.58095 0.44776 0.0
H537 H 0.14762 0.60558 0.48813 0.0
H538 H 0.26114 0.63108 0.45619 0.0
H539 H 0.23754 0.6156 0.40117 0.0
C540 C 0.16614 0.59514 0.38058 0.0
C541 C 0.12788 0.58553 0.37182 0.0
C542 C 0.17861 0.60127 0.41252 0.0
C543 C 0.10141 0.57875 0.39693 0.0
C544 C 0.11382 0.58503 0.42918 0.0
C545 C 0.16683 0.60739 0.46897 0.0
C546 C 0.20592 0.61918 0.47593 0.0
C547 C 0.15279 0.59766 0.43715 0.0
C548 C 0.23085 0.6217 0.45122 0.0
C549 C 0.21739 0.61285 0.41982 0.0
H550 H 0.51008 0.09404 0.55613 0.0
H551 H 0.62274 0.15986 0.51221 0.0
H552 H 0.64981 0.19344 0.56263 0.0
H553 H 0.63969 0.20893 0.61722 0.0
H554 H 0.531 0.13727 0.66443 0.0
H555 H 0.50377 0.1007 0.61447 0.0
C556 C 0.54098 0.11429 0.55789 0.0
C557 C 0.56398 0.12546 0.53005 0.0
C558 C 0.55691 0.13258 0.58741 0.0
C559 C 0.60405 0.15167 0.53301 0.0
C560 C 0.61962 0.17097 0.56182 0.0
C561 C 0.61065 0.18421 0.61695 0.0
C562 C 0.58781 0.17478 0.64454 0.0
C563 C 0.59602 0.1625 0.58883 0.0
C564 C 0.54927 0.14443 0.64344 0.0
C565 C 0.53385 0.12349 0.61501 0.0
H566 H 0.42972 0.57051 0.70454 0.0
H567 H 0.49968 0.52403 0.74015 0.0
H568 H 0.48267 0.53099 0.79537 0.0
H569 H 0.44696 0.55019 0.83334 0.0
H570 H 0.38278 0.60164 0.79539 0.0
H571 H 0.39945 0.59359 0.74083 0.0
C572 C 0.4427 0.56306 0.72411 0.0
C573 C 0.46672 0.54743 0.71786 0.0
C574 C 0.43351 0.56779 0.75541 0.0
C575 C 0.4812 0.53621 0.74405 0.0
C576 C 0.47149 0.54021 0.77564 0.0
C577 C 0.43667 0.55945 0.81301 0.0
C578 C 0.41348 0.57621 0.81811 0.0
C579 C 0.44737 0.55573 0.78158 0.0
C580 C 0.40066 0.58869 0.79184 0.0
C581 C 0.41017 0.58411 0.76073 0.0
H582 H 0.94777 0.42121 0.89937 0.0
H583 H 0.9077 0.50105 0.88308 0.0
H584 H 0.87683 0.48645 0.9359 0.0
H585 H 0.85559 0.44591 0.98405 0.0
H586 H 0.89437 0.36449 -0.00117 0.0
H587 H 0.93123 0.38476 0.94929 0.0
C588 C 0.9334 0.43635 0.90785 0.0
C589 C 0.93024 0.46237 0.88754 0.0
C590 C 0.91464 0.42682 0.93765 0.0
C591 C 0.91068 0.48109 0.89847 0.0
C592 C 0.89272 0.47245 0.92849 0.0
C593 C 0.87215 0.43263 0.9765 0.0
C594 C 0.8716 0.40327 -0.00495 0.0
C595 C 0.89342 0.4444 0.94782 0.0
C596 C 0.89379 0.38686 0.985 0.0
C597 C 0.91508 0.39852 0.95666 0.0
H598 H 0.54757 0.94979 0.063 0.0
H599 H 0.42601 0.91585 0.06082 0.0
H600 H 0.41815 0.89008 0.11513 0.0
H601 H 0.44434 0.87069 0.16033 0.0
H602 H 0.56599 0.90441 0.16204 0.0
H603 H 0.57534 0.93679 0.11072 0.0
C604 C 0.51969 0.93798 0.07487 0.0
C605 C 0.4874 0.93467 0.05806 0.0
C606 C 0.5152 0.92231 0.10561 0.0
C607 C 0.45125 0.91867 0.07345 0.0
C608 C 0.44669 0.90362 0.1043 0.0
C609 C 0.47288 0.88513 0.14944 0.0
C610 C 0.50424 0.88451 0.16461 0.0
C611 C 0.47814 0.90399 0.12007 0.0
C612 C 0.54127 0.90415 0.15066 0.0
C613 C 0.54669 0.92277 0.12137 0.0
H614 H 0.62834 0.56005 0.22224 0.0
H615 H 0.53952 0.4422 0.20885 0.0
H616 H 0.55376 0.42681 0.26229 0.0
H617 H 0.59741 0.44557 0.30953 0.0
H618 H 0.68741 0.5636 0.32135 0.0
H619 H 0.66681 0.58011 0.27172 0.0
C620 C 0.61103 0.5313 0.2315 0.0
C621 C 0.58287 0.50231 0.21171 0.0
C622 C 0.62042 0.52246 0.26157 0.0
C623 C 0.56126 0.46499 0.22378 0.0
C624 C 0.56974 0.45613 0.25412 0.0
C625 C 0.61248 0.4749 0.30126 0.0
C626 C 0.64439 0.50312 0.31889 0.0
C627 C 0.6004 0.48435 0.27263 0.0
C628 C 0.66303 0.54116 0.30815 0.0
C629 C 0.6512 0.55072 0.27979 0.0
H630 H 0.47156 0.98205 0.36793 0.0
H631 H 0.52564 0.93488 0.42825 0.0
H632 H 0.52222 0.89321 0.3845 0.0
H633 H 0.49438 0.86348 0.33221 0.0
H634 H 0.44894 0.916 0.269 0.0
H635 H 0.45805 0.96242 0.31107 0.0
C636 C 0.48455 0.96422 0.37109 0.0
C637 C 0.49745 0.96051 0.40172 0.0
C638 C 0.4833 0.94084 0.34555 0.0
C639 C 0.51444 0.9374 0.40515 0.0
C640 C 0.51226 0.91334 0.38023 0.0
C641 C 0.48828 0.88624 0.32716 0.0
C642 C 0.47229 0.88725 0.29738 0.0
C643 C 0.49518 0.91366 0.35083 0.0
C644 C 0.46196 0.91524 0.29172 0.0
C645 C 0.46734 0.94182 0.31565 0.0
H646 H 0.524 0.46352 0.537 0.0
H647 H 0.62947 0.4988 0.5916 0.0
H648 H 0.6634 0.5001 0.54279 0.0
H649 H 0.6598 0.48097 0.48638 0.0
H650 H 0.55811 0.45396 0.42988 0.0
H651 H 0.52558 0.45928 0.47785 0.0
C652 C 0.55478 0.47301 0.53813 0.0
C653 C 0.5737 0.4796 0.56814 0.0
C654 C 0.57458 0.47461 0.50974 0.0
C655 C 0.61377 0.49219 0.56895 0.0
C656 C 0.63329 0.49298 0.54105 0.0
C657 C 0.63141 0.47842 0.48422 0.0
C658 C 0.61188 0.46844 0.45457 0.0
C659 C 0.61352 0.4827 0.51156 0.0
C660 C 0.57393 0.46242 0.45249 0.0
C661 C 0.55537 0.46544 0.47986 0.0
H662 H 0.13527 0.59909 0.72342 0.0
H663 H 0.07744 0.47783 0.7044 0.0
H664 H 0.10902 0.48978 0.65215 0.0
H665 H 0.15877 0.53433 0.61469 0.0
H666 H 0.21904 0.65546 0.63568 0.0
H667 H 0.18158 0.64372 0.68458 0.0
C668 C 0.12919 0.57528 0.70765 0.0
C669 C 0.10424 0.53764 0.71797 0.0
C670 C 0.1487 0.58226 0.6783 0.0
C671 C 0.09618 0.50713 0.69702 0.0
C672 C 0.11473 0.51392 0.66731 0.0
C673 C 0.16375 0.5582 0.62992 0.0
C674 C 0.19219 0.5957 0.62157 0.0
C675 C 0.14207 0.5513 0.6582 0.0
C676 C 0.19768 0.62625 0.64148 0.0
C677 C 0.17615 0.61961 0.66948 0.0
H678 H 0.58895 0.07083 0.87005 0.0
H679 H 0.54356 0.13978 0.90812 0.0
H680 H 0.55468 0.17255 0.85655 0.0
H681 H 0.58455 0.18649 0.80289 0.0
H682 H 0.63132 0.11775 0.7663 0.0
H683 H 0.61205 0.07991 0.81495 0.0
C684 C 0.58026 0.09212 0.86678 0.0
C685 C 0.56548 0.10289 0.89283 0.0
C686 C 0.58771 0.11145 0.83749 0.0
C687 C 0.55512 0.13112 0.88837 0.0
C688 C 0.56169 0.14999 0.85899 0.0
C689 C 0.59019 0.16302 0.80541 0.0
C690 C 0.61006 0.1556 0.7811 0.0
C691 C 0.57926 0.1413 0.83373 0.0
C692 C 0.61671 0.12471 0.78474 0.0
C693 C 0.60557 0.10284 0.81256 0.0
H694 H 0.54216 0.60872 0.03274 0.0
H695 H 0.43634 0.56421 0.08747 0.0
H696 H 0.40355 0.57359 0.04197 0.0
H697 H 0.40567 0.5975 -0.01214 0.0
H698 H 0.50764 0.63447 0.93006 0.0
H699 H 0.54142 0.62481 0.97556 0.0
C700 C 0.51153 0.59966 0.03438 0.0
C701 C 0.4921 0.58671 0.06385 0.0
C702 C 0.49225 0.60389 0.00765 0.0
C703 C 0.45239 0.57532 0.06541 0.0
C704 C 0.43353 0.58063 0.03941 0.0
C705 C 0.43489 0.60232 0.98499 0.0
C706 C 0.45377 0.61529 0.95557 0.0
C707 C 0.45335 0.5955 0.01067 0.0
C708 C 0.49239 0.62368 0.95249 0.0
C709 C 0.51155 0.618 0.97838 0.0
H710 H 0.91862 0.46096 0.24306 0.0
H711 H 0.99719 0.5643 0.19282 0.0
H712 H 0.96771 0.53347 0.1416 0.0
H713 H 0.91255 0.48088 0.11209 0.0
H714 H 0.82784 0.3828 0.16433 0.0
H715 H 0.86597 0.40781 0.21369 0.0
C716 C 0.9295 0.47675 0.2209 0.0
C717 C 0.95958 0.51518 0.22197 0.0
C718 C 0.91078 0.45979 0.19183 0.0
C719 C 0.97414 0.5347 0.19288 0.0
C720 C 0.95691 0.51725 0.16354 0.0
C721 C 0.90307 0.4648 0.13424 0.0
C722 C 0.86844 0.42934 0.13449 0.0
C723 C 0.92415 0.48041 0.16289 0.0
C724 C 0.85543 0.40925 0.16339 0.0
C725 C 0.87696 0.42379 0.19166 0.0
loop_
_geom_bond_atom_site_label_1
_geom_bond_atom_site_label_2
_geom_bond_distance
_geom_bond_site_symmetry_2
_ccdc_geom_bond_type
H0 C8 0.930 . S
H1 C11 0.930 . S
H2 C13 0.930 . S
H3 C14 0.970 1_655 S
H4 C14 0.970 . S
H5 C16 0.930 . S
H6 C18 0.930 . S
H7 C20 0.930 . S
C8 H0 0.930 . S
C8 C9 1.382 . S
C8 C10 1.426 . S
C9 C8 1.382 . S
C9 C13 1.389 . S
C10 C8 1.426 . S
C10 C11 1.375 . S
C10 C14 1.532 1_655 S
C11 H1 0.930 . S
C11 C10 1.375 . S
C11 C12 1.416 . S
C12 C11 1.416 . S
C12 C13 1.371 . S
C13 H2 0.930 . S
C13 C9 1.389 . S
C13 C12 1.371 . S
C14 H3 0.970 1_455 S
C14 H4 0.970 . S
C14 C10 1.532 1_455 S
C14 C15 1.499 . S
C15 C14 1.499 . S
C15 C16 1.370 . S
C15 C20 1.415 . S
C16 H5 0.930 . S
C16 C15 1.370 . S
C16 C17 1.407 . S
C17 C16 1.407 . S
C17 C18 1.365 . S
C18 H6 0.930 . S
C18 C17 1.365 . S
C18 C19 1.393 . S
C19 C18 1.393 . S
C19 C20 1.387 . S
C20 H7 0.930 . S
C20 C15 1.415 . S
C20 C19 1.387 . S
H21 C29 0.930 . S
H22 C32 0.930 . S
H23 C34 0.930 . S
H24 C35 0.970 . S
H25 C35 0.970 . S
H26 C37 0.930 . S
H27 C39 0.930 . S
H28 C41 0.930 . S
C29 H21 0.930 . S
C29 C30 1.382 . S
C29 C31 1.426 . S
C30 C29 1.382 . S
C30 C34 1.389 . S
C31 C29 1.426 . S
C31 C32 1.375 . S
C31 C35 1.532 1_565 S
C32 H22 0.930 . S
C32 C31 1.375 . S
C32 C33 1.416 . S
C33 C32 1.416 . S
C33 C34 1.371 . S
C34 H23 0.930 . S
C34 C30 1.389 . S
C34 C33 1.371 . S
C35 H24 0.970 . S
C35 H25 0.970 . S
C35 C31 1.532 1_545 S
C35 C36 1.499 . S
C36 C35 1.499 . S
C36 C37 1.370 . S
C36 C41 1.415 . S
C37 H26 0.930 . S
C37 C36 1.370 . S
C37 C38 1.407 . S
C38 C37 1.407 . S
C38 C39 1.365 . S
C39 H27 0.930 . S
C39 C38 1.365 . S
C39 C40 1.393 . S
C40 C39 1.393 . S
C40 C41 1.387 . S
C41 H28 0.930 . S
C41 C36 1.415 . S
C41 C40 1.387 . S
H42 C50 0.930 . S
H43 C53 0.930 . S
H44 C55 0.930 . S
H45 C56 0.970 . S
H46 C56 0.970 . S
H47 C58 0.930 . S
H48 C60 0.930 . S
H49 C62 0.930 . S
C50 H42 0.930 . S
C50 C51 1.382 . S
C50 C52 1.426 . S
C51 C50 1.382 . S
C51 C55 1.389 . S
C52 C50 1.426 . S
C52 C53 1.375 . S
C52 C56 1.532 . S
C53 H43 0.930 . S
C53 C52 1.375 . S
C53 C54 1.416 . S
C54 C53 1.416 . S
C54 C55 1.371 . S
C55 H44 0.930 . S
C55 C51 1.389 . S
C55 C54 1.371 . S
C56 H45 0.970 . S
C56 H46 0.970 . S
C56 C52 1.532 . S
C56 C57 1.499 . S
C57 C56 1.499 . S
C57 C58 1.370 . S
C57 C62 1.415 . S
C58 H47 0.930 . S
C58 C57 1.370 . S
C58 C59 1.407 . S
C59 C58 1.407 . S
C59 C60 1.365 . S
C60 H48 0.930 . S
C60 C59 1.365 . S
C60 C61 1.393 . S
C61 C60 1.393 . S
C61 C62 1.387 . S
C62 H49 0.930 . S
C62 C57 1.415 . S
C62 C61 1.387 . S
H63 C71 0.930 . S
H64 C74 0.930 . S
H65 C76 0.930 . S
H66 C77 0.970 . S
H67 C77 0.970 . S
H68 C79 0.930 . S
H69 C81 0.930 . S
H70 C83 0.930 . S
C71 H63 0.930 . S
C71 C72 1.382 . S
C71 C73 1.426 . S
C72 C71 1.382 . S
C72 C76 1.389 . S
C73 C71 1.426 . S
C73 C74 1.375 . S
C73 C77 1.532 1_655 S
C74 H64 0.930 . S
C74 C73 1.375 . S
C74 C75 1.416 . S
C75 C74 1.416 . S
C75 C76 1.371 . S
C76 H65 0.930 . S
C76 C72 1.389 . S
C76 C75 1.371 . S
C77 H66 0.970 . S
C77 H67 0.970 . S
C77 C73 1.532 1_455 S
C77 C78 1.499 . S
C78 C77 1.499 . S
C78 C79 1.370 . S
C78 C83 1.415 . S
C79 H68 0.930 . S
C79 C78 1.370 . S
C79 C80 1.407 . S
C80 C79 1.407 . S
C80 C81 1.365 . S
C81 H69 0.930 . S
C81 C80 1.365 . S
C81 C82 1.393 . S
C82 C81 1.393 . S
C82 C83 1.387 . S
C83 H70 0.930 . S
C83 C78 1.415 . S
C83 C82 1.387 . S
H84 C92 0.930 . S
H85 C95 0.930 . S
H86 C97 0.930 . S
H87 C98 0.970 1_554 S
H88 C98 0.970 . S
H89 C100 0.930 . S
H90 C102 0.930 . S
H91 C104 0.930 . S
C92 H84 0.930 . S
C92 C93 1.380 1_554 S
C92 C94 1.426 1_554 S
C93 C92 1.380 1_556 S
C93 C97 1.395 . S
C94 C92 1.426 1_556 S
C94 C95 1.375 . S
C94 C98 1.532 . S
C95 H85 0.930 . S
C95 C94 1.375 . S
C95 C96 1.416 . S
C96 C95 1.416 . S
C96 C97 1.371 . S
C97 H86 0.930 . S
C97 C93 1.395 . S
C97 C96 1.371 . S
C98 H87 0.970 1_556 S
C98 H88 0.970 . S
C98 C94 1.532 . S
C98 C99 1.493 1_546 S
C99 C98 1.493 1_564 S
C99 C100 1.394 . S
C99 C104 1.398 1_554 S
C100 H89 0.930 . S
C100 C99 1.394 . S
C100 C101 1.407 . S
C101 C100 1.407 . S
C101 C102 1.365 . S
C102 H90 0.930 . S
C102 C101 1.365 . S
C102 C103 1.393 1_554 S
C103 C102 1.393 1_556 S
C103 C104 1.387 . S
C104 H91 0.930 . S
C104 C99 1.398 1_556 S
C104 C103 1.387 . S
H105 C113 0.930 . S
H106 C116 0.930 . S
H107 C118 0.930 . S
H108 C119 0.970 . S
H109 C119 0.970 . S
H110 C121 0.930 . S
H111 C123 0.930 . S
H112 C125 0.930 . S
C113 H105 0.930 . S
C113 C114 1.382 . S
C113 C115 1.426 . S
C114 C113 1.382 . S
C114 C118 1.389 . S
C115 C113 1.426 . S
C115 C116 1.375 . S
C115 C119 1.532 . S
C116 H106 0.930 . S
C116 C115 1.375 . S
C116 C117 1.416 . S
C117 C116 1.416 . S
C117 C118 1.371 . S
C118 H107 0.930 . S
C118 C114 1.389 . S
C118 C117 1.371 . S
C119 H108 0.970 . S
C119 H109 0.970 . S
C119 C115 1.532 . S
C119 C120 1.499 . S
C120 C119 1.499 . S
C120 C121 1.370 . S
C120 C125 1.415 . S
C121 H110 0.930 . S
C121 C120 1.370 . S
C121 C122 1.407 . S
C122 C121 1.407 . S
C122 C123 1.365 . S
C123 H111 0.930 . S
C123 C122 1.365 . S
C123 C124 1.393 . S
C124 C123 1.393 . S
C124 C125 1.387 . S
C125 H112 0.930 . S
C125 C120 1.415 . S
C125 C124 1.387 . S
Mn126 O131 2.095 . S
Mn126 O141 2.162 . S
Mn126 O142 2.297 . S
Mn126 O150 2.385 . S
Mn126 O151 2.209 . S
Mn126 O152 2.094 . S
Mn127 O132 2.121 . S
Mn127 N134 2.257 . S
Mn127 N143 2.282 . S
Mn127 O151 2.215 . S
Mn127 O153 2.117 . S
C128 O150 1.234 . S
C128 O151 1.283 . S
C129 O141 1.281 . S
C129 O142 1.236 . S
C130 O152 1.240 . S
C130 O153 1.264 . S
O131 Mn126 2.095 . S
O131 C140 1.250 . S
O132 Mn127 2.121 . S
O132 C140 1.258 . S
C133 N134 1.326 . S
C133 C137 1.460 . S
C133 H139 0.929 . S
N134 Mn127 2.257 . S
N134 C133 1.326 . S
N134 C138 1.362 . S
C135 C136 1.258 . S
C135 C138 1.431 . S
C135 C155 1.449 . S
C136 C135 1.258 . S
C136 C137 1.477 . S
C136 H156 0.931 . S
C137 C133 1.460 . S
C137 C136 1.477 . S
C137 H157 0.930 . S
C138 N134 1.362 . S
C138 C135 1.431 . S
C138 C148 1.476 . S
H139 C133 0.929 . S
C140 O131 1.250 . S
C140 O132 1.258 . S
O141 Mn126 2.162 . S
O141 C129 1.281 . S
O142 Mn126 2.297 . S
O142 C129 1.236 . S
N143 Mn127 2.282 . S
N143 C144 1.328 . S
N143 C148 1.318 . S
C144 N143 1.328 . S
C144 C145 1.457 . S
C144 H149 0.929 . S
C145 C144 1.457 . S
C145 C146 1.291 . S
C145 H158 0.931 . S
C146 C145 1.291 . S
C146 C147 1.373 . S
C146 H159 0.929 . S
C147 C146 1.373 . S
C147 C148 1.396 . S
C147 C154 1.403 . S
C148 C138 1.476 . S
C148 N143 1.318 . S
C148 C147 1.396 . S
H149 C144 0.929 . S
O150 Mn126 2.385 . S
O150 C128 1.234 . S
O151 Mn126 2.209 . S
O151 Mn127 2.215 . S
O151 C128 1.283 . S
O152 Mn126 2.094 . S
O152 C130 1.240 . S
O153 Mn127 2.117 . S
O153 C130 1.264 . S
C154 C147 1.403 . S
C154 C155 1.399 . S
C154 H160 0.929 . S
C155 C135 1.449 . S
C155 C154 1.399 . S
C155 H161 0.930 . S
H156 C136 0.931 . S
H157 C137 0.930 . S
H158 C145 0.931 . S
H159 C146 0.929 . S
H160 C154 0.929 . S
H161 C155 0.930 . S
Mn162 O167 2.095 . S
Mn162 O177 2.162 . S
Mn162 O178 2.297 . S
Mn162 O186 2.385 . S
Mn162 O187 2.209 . S
Mn162 O188 2.094 . S
Mn163 O168 2.121 . S
Mn163 N170 2.257 . S
Mn163 N179 2.282 . S
Mn163 O187 2.215 . S
Mn163 O189 2.117 . S
C164 O186 1.234 . S
C164 O187 1.283 . S
C165 O177 1.281 . S
C165 O178 1.236 . S
C166 O188 1.240 . S
C166 O189 1.264 . S
O167 Mn162 2.095 . S
O167 C176 1.250 . S
O168 Mn163 2.121 . S
O168 C176 1.258 . S
C169 N170 1.326 . S
C169 C173 1.460 . S
C169 H175 0.929 . S
N170 Mn163 2.257 . S
N170 C169 1.326 . S
N170 C174 1.362 . S
C171 C172 1.258 . S
C171 C174 1.431 . S
C171 C191 1.449 . S
C172 C171 1.258 . S
C172 C173 1.477 . S
C172 H192 0.931 . S
C173 C169 1.460 . S
C173 C172 1.477 . S
C173 H193 0.930 . S
C174 N170 1.362 . S
C174 C171 1.431 . S
C174 C184 1.476 . S
H175 C169 0.929 . S
C176 O167 1.250 . S
C176 O168 1.258 . S
O177 Mn162 2.162 . S
O177 C165 1.281 . S
O178 Mn162 2.297 . S
O178 C165 1.236 . S
N179 Mn163 2.282 . S
N179 C180 1.328 . S
N179 C184 1.318 . S
C180 N179 1.328 . S
C180 C181 1.457 . S
C180 H185 0.929 . S
C181 C180 1.457 . S
C181 C182 1.291 . S
C181 H194 0.931 . S
C182 C181 1.291 . S
C182 C183 1.373 . S
C182 H195 0.929 . S
C183 C182 1.373 . S
C183 C184 1.396 . S
C183 C190 1.403 . S
C184 C174 1.476 . S
C184 N179 1.318 . S
C184 C183 1.396 . S
H185 C180 0.929 . S
O186 Mn162 2.385 . S
O186 C164 1.234 . S
O187 Mn162 2.209 . S
O187 Mn163 2.215 . S
O187 C164 1.283 . S
O188 Mn162 2.094 . S
O188 C166 1.240 . S
O189 Mn163 2.117 . S
O189 C166 1.264 . S
C190 C183 1.403 . S
C190 C191 1.399 . S
C190 H196 0.929 . S
C191 C171 1.449 . S
C191 C190 1.399 . S
C191 H197 0.930 . S
H192 C172 0.931 . S
H193 C173 0.930 . S
H194 C181 0.931 . S
H195 C182 0.929 . S
H196 C190 0.929 . S
H197 C191 0.930 . S
Mn198 O203 2.095 . S
Mn198 O213 2.162 . S
Mn198 O214 2.297 . S
Mn198 O222 2.385 . S
Mn198 O223 2.209 . S
Mn198 O224 2.094 . S
Mn199 O204 2.121 . S
Mn199 N206 2.257 . S
Mn199 N215 2.282 . S
Mn199 O223 2.215 . S
Mn199 O225 2.117 . S
C200 O222 1.234 . S
C200 O223 1.283 . S
C201 O213 1.281 . S
C201 O214 1.236 . S
C202 O224 1.240 . S
C202 O225 1.264 . S
O203 Mn198 2.095 . S
O203 C212 1.250 . S
O204 Mn199 2.121 . S
O204 C212 1.258 . S
C205 N206 1.326 . S
C205 C209 1.460 . S
C205 H211 0.929 . S
N206 Mn199 2.257 . S
N206 C205 1.326 . S
N206 C210 1.362 . S
C207 C208 1.258 . S
C207 C210 1.431 . S
C207 C227 1.449 . S
C208 C207 1.258 . S
C208 C209 1.477 . S
C208 H228 0.931 . S
C209 C205 1.460 . S
C209 C208 1.477 . S
C209 H229 0.930 . S
C210 N206 1.362 . S
C210 C207 1.431 . S
C210 C220 1.476 . S
H211 C205 0.929 . S
C212 O203 1.250 . S
C212 O204 1.258 . S
O213 Mn198 2.162 . S
O213 C201 1.281 . S
O214 Mn198 2.297 . S
O214 C201 1.236 . S
N215 Mn199 2.282 . S
N215 C216 1.328 . S
N215 C220 1.318 . S
C216 N215 1.328 . S
C216 C217 1.457 . S
C216 H221 0.929 . S
C217 C216 1.457 . S
C217 C218 1.291 . S
C217 H230 0.931 . S
C218 C217 1.291 . S
C218 C219 1.373 . S
C218 H231 0.929 . S
C219 C218 1.373 . S
C219 C220 1.396 . S
C219 C226 1.403 . S
C220 C210 1.476 . S
C220 N215 1.318 . S
C220 C219 1.396 . S
H221 C216 0.929 . S
O222 Mn198 2.385 . S
O222 C200 1.234 . S
O223 Mn198 2.209 . S
O223 Mn199 2.215 . S
O223 C200 1.283 . S
O224 Mn198 2.094 . S
O224 C202 1.240 . S
O225 Mn199 2.117 . S
O225 C202 1.264 . S
C226 C219 1.403 . S
C226 C227 1.399 . S
C226 H232 0.929 . S
C227 C207 1.449 . S
C227 C226 1.399 . S
C227 H233 0.930 . S
H228 C208 0.931 . S
H229 C209 0.930 . S
H230 C217 0.931 . S
H231 C218 0.929 . S
H232 C226 0.929 . S
H233 C227 0.930 . S
Mn234 O239 2.095 . S
Mn234 O249 2.162 . S
Mn234 O250 2.297 . S
Mn234 O258 2.385 . S
Mn234 O259 2.209 . S
Mn234 O260 2.094 . S
Mn235 O240 2.121 . S
Mn235 N242 2.257 . S
Mn235 N251 2.282 . S
Mn235 O259 2.215 . S
Mn235 O261 2.117 . S
C236 O258 1.234 . S
C236 O259 1.283 . S
C237 O249 1.281 . S
C237 O250 1.236 . S
C238 O260 1.240 . S
C238 O261 1.264 . S
O239 Mn234 2.095 . S
O239 C248 1.250 . S
O240 Mn235 2.121 . S
O240 C248 1.258 . S
C241 N242 1.326 . S
C241 C245 1.460 . S
C241 H247 0.929 . S
N242 Mn235 2.257 . S
N242 C241 1.326 . S
N242 C246 1.362 . S
C243 C244 1.258 1_556 S
C243 C246 1.431 . S
C243 C263 1.449 1_556 S
C244 C243 1.258 1_554 S
C244 C245 1.477 1_554 S
C244 H264 0.931 . S
C245 C241 1.460 . S
C245 C244 1.477 1_556 S
C245 H265 0.930 . S
C246 N242 1.362 . S
C246 C243 1.431 . S
C246 C256 1.476 . S
H247 C241 0.929 . S
C248 O239 1.250 . S
C248 O240 1.258 . S
O249 Mn234 2.162 . S
O249 C237 1.281 . S
O250 Mn234 2.297 . S
O250 C237 1.236 . S
N251 Mn235 2.282 . S
N251 C252 1.328 . S
N251 C256 1.318 . S
C252 N251 1.328 . S
C252 C253 1.457 . S
C252 H257 0.929 . S
C253 C252 1.457 . S
C253 C254 1.291 . S
C253 H266 0.931 . S
C254 C253 1.291 . S
C254 C255 1.373 . S
C254 H267 0.929 . S
C255 C254 1.373 . S
C255 C256 1.396 . S
C255 C262 1.403 . S
C256 C246 1.476 . S
C256 N251 1.318 . S
C256 C255 1.396 . S
H257 C252 0.929 . S
O258 Mn234 2.385 . S
O258 C236 1.234 . S
O259 Mn234 2.209 . S
O259 Mn235 2.215 . S
O259 C236 1.283 . S
O260 Mn234 2.094 . S
O260 C238 1.240 . S
O261 Mn235 2.117 . S
O261 C238 1.264 . S
C262 C255 1.403 . S
C262 C263 1.399 1_556 S
C262 H268 0.929 1_556 S
C263 C243 1.449 1_554 S
C263 C262 1.399 1_554 S
C263 H269 0.930 . S
H264 C244 0.931 . S
H265 C245 0.930 . S
H266 C253 0.931 . S
H267 C254 0.929 . S
H268 C262 0.929 1_554 S
H269 C263 0.930 . S
Mn270 O275 2.095 . S
Mn270 O285 2.162 . S
Mn270 O286 2.297 . S
Mn270 O294 2.385 . S
Mn270 O295 2.209 . S
Mn270 O296 2.094 . S
Mn271 O276 2.121 . S
Mn271 N278 2.257 . S
Mn271 N287 2.282 . S
Mn271 O295 2.215 . S
Mn271 O297 2.117 . S
C272 O294 1.234 . S
C272 O295 1.283 . S
C273 O285 1.281 . S
C273 O286 1.236 . S
C274 O296 1.240 . S
C274 O297 1.264 . S
O275 Mn270 2.095 . S
O275 C284 1.250 . S
O276 Mn271 2.121 . S
O276 C284 1.258 . S
C277 N278 1.326 . S
C277 C281 1.460 . S
C277 H283 0.929 . S
N278 Mn271 2.257 . S
N278 C277 1.326 . S
N278 C282 1.362 . S
C279 C280 1.258 . S
C279 C282 1.431 . S
C279 C299 1.449 . S
C280 C279 1.258 . S
C280 C281 1.477 . S
C280 H300 0.931 . S
C281 C277 1.460 . S
C281 C280 1.477 . S
C281 H301 0.930 . S
C282 N278 1.362 . S
C282 C279 1.431 . S
C282 C292 1.476 . S
H283 C277 0.929 . S
C284 O275 1.250 . S
C284 O276 1.258 . S
O285 Mn270 2.162 . S
O285 C273 1.281 . S
O286 Mn270 2.297 . S
O286 C273 1.236 . S
N287 Mn271 2.282 . S
N287 C288 1.328 . S
N287 C292 1.318 . S
C288 N287 1.328 . S
C288 C289 1.457 . S
C288 H293 0.929 . S
C289 C288 1.457 . S
C289 C290 1.291 . S
C289 H302 0.931 . S
C290 C289 1.291 . S
C290 C291 1.373 . S
C290 H303 0.929 . S
C291 C290 1.373 . S
C291 C292 1.396 . S
C291 C298 1.403 . S
C292 C282 1.476 . S
C292 N287 1.318 . S
C292 C291 1.396 . S
H293 C288 0.929 . S
O294 Mn270 2.385 . S
O294 C272 1.234 . S
O295 Mn270 2.209 . S
O295 Mn271 2.215 . S
O295 C272 1.283 . S
O296 Mn270 2.094 . S
O296 C274 1.240 . S
O297 Mn271 2.117 . S
O297 C274 1.264 . S
C298 C291 1.403 . S
C298 C299 1.399 . S
C298 H304 0.929 . S
C299 C279 1.449 . S
C299 C298 1.399 . S
C299 H305 0.930 . S
H300 C280 0.931 . S
H301 C281 0.930 . S
H302 C289 0.931 . S
H303 C290 0.929 . S
H304 C298 0.929 . S
H305 C299 0.930 . S
Mn306 O311 2.095 . S
Mn306 O321 2.162 . S
Mn306 O322 2.297 . S
Mn306 O330 2.385 . S
Mn306 O331 2.209 . S
Mn306 O332 2.094 . S
Mn307 O312 2.121 . S
Mn307 N314 2.257 . S
Mn307 N323 2.282 . S
Mn307 O331 2.215 . S
Mn307 O333 2.117 . S
C308 O330 1.234 . S
C308 O331 1.283 . S
C309 O321 1.281 . S
C309 O322 1.236 . S
C310 O332 1.240 . S
C310 O333 1.264 . S
O311 Mn306 2.095 . S
O311 C320 1.250 . S
O312 Mn307 2.121 . S
O312 C320 1.258 . S
C313 N314 1.326 . S
C313 C317 1.460 . S
C313 H319 0.929 . S
N314 Mn307 2.257 . S
N314 C313 1.326 . S
N314 C318 1.362 . S
C315 C316 1.258 . S
C315 C318 1.431 . S
C315 C335 1.449 . S
C316 C315 1.258 . S
C316 C317 1.477 . S
C316 H336 0.931 . S
C317 C313 1.460 . S
C317 C316 1.477 . S
C317 H337 0.930 . S
C318 N314 1.362 . S
C318 C315 1.431 . S
C318 C328 1.476 . S
H319 C313 0.929 . S
C320 O311 1.250 . S
C320 O312 1.258 . S
O321 Mn306 2.162 . S
O321 C309 1.281 . S
O322 Mn306 2.297 . S
O322 C309 1.236 . S
N323 Mn307 2.282 . S
N323 C324 1.328 . S
N323 C328 1.318 . S
C324 N323 1.328 . S
C324 C325 1.457 . S
C324 H329 0.929 . S
C325 C324 1.457 . S
C325 C326 1.291 . S
C325 H338 0.931 . S
C326 C325 1.291 . S
C326 C327 1.373 . S
C326 H339 0.929 . S
C327 C326 1.373 . S
C327 C328 1.396 . S
C327 C334 1.403 . S
C328 C318 1.476 . S
C328 N323 1.318 . S
C328 C327 1.396 . S
H329 C324 0.929 . S
O330 Mn306 2.385 . S
O330 C308 1.234 . S
O331 Mn306 2.209 . S
O331 Mn307 2.215 . S
O331 C308 1.283 . S
O332 Mn306 2.094 . S
O332 C310 1.240 . S
O333 Mn307 2.117 . S
O333 C310 1.264 . S
C334 C327 1.403 . S
C334 C335 1.399 . S
C334 H340 0.929 . S
C335 C315 1.449 . S
C335 C334 1.399 . S
C335 H341 0.930 . S
H336 C316 0.931 . S
H337 C317 0.930 . S
H338 C325 0.931 . S
H339 C326 0.929 . S
H340 C334 0.929 . S
H341 C335 0.930 . S
H342 C348 0.930 . S
H343 C351 0.930 . S
H344 C352 0.930 . S
H345 C353 0.930 . S
H346 C356 0.930 . S
H347 C357 0.930 . S
C348 H342 0.930 . S
C348 C349 1.355 . S
C348 C350 1.415 . S
C349 C348 1.355 . S
C349 C351 1.419 . S
C350 C348 1.415 . S
C350 C355 1.425 . S
C350 C357 1.409 . S
C351 H343 0.930 . S
C351 C349 1.419 . S
C351 C352 1.362 . S
C352 H344 0.930 . S
C352 C351 1.362 . S
C352 C355 1.409 . S
C353 H345 0.930 . S
C353 C354 1.355 . S
C353 C355 1.415 . S
C354 C353 1.355 . S
C354 C356 1.419 . S
C355 C350 1.425 . S
C355 C352 1.409 . S
C355 C353 1.415 . S
C356 H346 0.930 . S
C356 C354 1.419 . S
C356 C357 1.362 . S
C357 H347 0.930 . S
C357 C350 1.409 . S
C357 C356 1.362 . S
H358 C364 0.930 . S
H359 C367 0.930 . S
H360 C368 0.930 . S
H361 C369 0.930 . S
H362 C372 0.930 . S
H363 C373 0.930 . S
C364 H358 0.930 . S
C364 C365 1.355 . S
C364 C366 1.415 . S
C365 C364 1.355 . S
C365 C367 1.419 . S
C366 C364 1.415 . S
C366 C371 1.425 . S
C366 C373 1.409 . S
C367 H359 0.930 . S
C367 C365 1.419 . S
C367 C368 1.362 . S
C368 H360 0.930 . S
C368 C367 1.362 . S
C368 C371 1.409 . S
C369 H361 0.930 . S
C369 C370 1.355 . S
C369 C371 1.415 . S
C370 C369 1.355 . S
C370 C372 1.419 . S
C371 C366 1.425 . S
C371 C368 1.409 . S
C371 C369 1.415 . S
C372 H362 0.930 . S
C372 C370 1.419 . S
C372 C373 1.362 . S
C373 H363 0.930 . S
C373 C366 1.409 . S
C373 C372 1.362 . S
H374 C380 0.930 . S
H375 C383 0.930 . S
H376 C384 0.930 . S
H377 C385 0.930 . S
H378 C388 0.930 . S
H379 C389 0.930 . S
C380 H374 0.930 . S
C380 C381 1.355 . S
C380 C382 1.415 . S
C381 C380 1.355 . S
C381 C383 1.419 . S
C382 C380 1.415 . S
C382 C387 1.425 . S
C382 C389 1.409 . S
C383 H375 0.930 . S
C383 C381 1.419 . S
C383 C384 1.362 . S
C384 H376 0.930 . S
C384 C383 1.362 . S
C384 C387 1.409 . S
C385 H377 0.930 . S
C385 C386 1.355 . S
C385 C387 1.415 . S
C386 C385 1.355 . S
C386 C388 1.419 . S
C387 C382 1.425 . S
C387 C384 1.409 . S
C387 C385 1.415 . S
C388 H378 0.930 . S
C388 C386 1.419 . S
C388 C389 1.362 . S
C389 H379 0.930 . S
C389 C382 1.409 . S
C389 C388 1.362 . S
H390 C396 0.930 . S
H391 C399 0.930 . S
H392 C400 0.930 . S
H393 C401 0.930 . S
H394 C404 0.930 . S
H395 C405 0.930 . S
C396 H390 0.930 . S
C396 C397 1.355 . S
C396 C398 1.415 . S
C397 C396 1.355 . S
C397 C399 1.419 . S
C398 C396 1.415 . S
C398 C403 1.425 . S
C398 C405 1.409 . S
C399 H391 0.930 . S
C399 C397 1.419 . S
C399 C400 1.362 . S
C400 H392 0.930 . S
C400 C399 1.362 . S
C400 C403 1.409 . S
C401 H393 0.930 . S
C401 C402 1.355 . S
C401 C403 1.415 . S
C402 C401 1.355 . S
C402 C404 1.419 . S
C403 C398 1.425 . S
C403 C400 1.409 . S
C403 C401 1.415 . S
C404 H394 0.930 . S
C404 C402 1.419 . S
C404 C405 1.362 . S
C405 H395 0.930 . S
C405 C398 1.409 . S
C405 C404 1.362 . S
H406 C412 0.930 . S
H407 C415 0.930 1_554 S
H408 C416 0.927 1_554 S
H409 C417 0.930 . S
H410 C420 0.930 . S
H411 C421 0.930 . S
C412 H406 0.930 . S
C412 C413 1.355 . S
C412 C414 1.415 . S
C413 C412 1.355 . S
C413 C415 1.419 . S
C414 C412 1.415 . S
C414 C419 1.425 . S
C414 C421 1.409 . S
C415 H407 0.930 1_556 S
C415 C413 1.419 . S
C415 C416 1.362 . S
C416 H408 0.927 1_556 S
C416 C415 1.362 . S
C416 C419 1.409 . S
C417 H409 0.930 . S
C417 C418 1.355 . S
C417 C419 1.415 . S
C418 C417 1.355 . S
C418 C420 1.419 . S
C419 C414 1.425 . S
C419 C416 1.409 . S
C419 C417 1.415 . S
C420 H410 0.930 . S
C420 C418 1.419 . S
C420 C421 1.362 . S
C421 H411 0.930 . S
C421 C414 1.409 . S
C421 C420 1.362 . S
H422 C428 0.930 . S
H423 C431 0.930 . S
H424 C432 0.930 . S
H425 C433 0.930 . S
H426 C436 0.930 . S
H427 C437 0.930 . S
C428 H422 0.930 . S
C428 C429 1.355 . S
C428 C430 1.415 . S
C429 C428 1.355 . S
C429 C431 1.419 . S
C430 C428 1.415 . S
C430 C435 1.425 . S
C430 C437 1.409 . S
C431 H423 0.930 . S
C431 C429 1.419 . S
C431 C432 1.362 . S
C432 H424 0.930 . S
C432 C431 1.362 . S
C432 C435 1.409 . S
C433 H425 0.930 . S
C433 C434 1.355 . S
C433 C435 1.415 . S
C434 C433 1.355 . S
C434 C436 1.419 . S
C435 C430 1.425 . S
C435 C432 1.409 . S
C435 C433 1.415 . S
C436 H426 0.930 . S
C436 C434 1.419 . S
C436 C437 1.362 . S
C437 H427 0.930 . S
C437 C430 1.409 . S
C437 C436 1.362 . S
H438 C444 0.930 . S
H439 C447 0.930 . S
H440 C448 0.930 . S
H441 C449 0.930 . S
H442 C452 0.930 . S
H443 C453 0.930 . S
C444 H438 0.930 . S
C444 C445 1.355 . S
C444 C446 1.415 . S
C445 C444 1.355 . S
C445 C447 1.419 . S
C446 C444 1.415 . S
C446 C451 1.425 . S
C446 C453 1.409 . S
C447 H439 0.930 . S
C447 C445 1.419 . S
C447 C448 1.362 . S
C448 H440 0.930 . S
C448 C447 1.362 . S
C448 C451 1.409 . S
C449 H441 0.930 . S
C449 C450 1.355 . S
C449 C451 1.415 . S
C450 C449 1.355 . S
C450 C452 1.419 . S
C451 C446 1.425 . S
C451 C448 1.409 . S
C451 C449 1.415 . S
C452 H442 0.930 . S
C452 C450 1.419 . S
C452 C453 1.362 . S
C453 H443 0.930 . S
C453 C446 1.409 . S
C453 C452 1.362 . S
H454 C460 0.930 . S
H455 C463 0.930 . S
H456 C464 0.930 . S
H457 C465 0.930 . S
H458 C468 0.930 . S
H459 C469 0.930 . S
C460 H454 0.930 . S
C460 C461 1.355 . S
C460 C462 1.415 . S
C461 C460 1.355 . S
C461 C463 1.419 . S
C462 C460 1.415 . S
C462 C467 1.425 . S
C462 C469 1.409 . S
C463 H455 0.930 . S
C463 C461 1.419 . S
C463 C464 1.362 . S
C464 H456 0.930 . S
C464 C463 1.362 . S
C464 C467 1.409 . S
C465 H457 0.930 . S
C465 C466 1.355 . S
C465 C467 1.415 . S
C466 C465 1.355 . S
C466 C468 1.419 . S
C467 C462 1.425 . S
C467 C464 1.409 . S
C467 C465 1.415 . S
C468 H458 0.930 . S
C468 C466 1.419 . S
C468 C469 1.362 . S
C469 H459 0.930 . S
C469 C462 1.409 . S
C469 C468 1.362 . S
H470 C476 0.930 . S
H471 C479 0.930 . S
H472 C480 0.930 . S
H473 C481 0.930 . S
H474 C484 0.930 . S
H475 C485 0.930 . S
C476 H470 0.930 . S
C476 C477 1.355 . S
C476 C478 1.415 . S
C477 C476 1.355 . S
C477 C479 1.419 . S
C478 C476 1.415 . S
C478 C483 1.425 . S
C478 C485 1.409 . S
C479 H471 0.930 . S
C479 C477 1.419 . S
C479 C480 1.362 . S
C480 H472 0.930 . S
C480 C479 1.362 . S
C480 C483 1.409 . S
C481 H473 0.930 . S
C481 C482 1.355 . S
C481 C483 1.415 . S
C482 C481 1.355 . S
C482 C484 1.419 . S
C483 C478 1.425 . S
C483 C480 1.409 . S
C483 C481 1.415 . S
C484 H474 0.930 . S
C484 C482 1.419 . S
C484 C485 1.362 . S
C485 H475 0.930 . S
C485 C478 1.409 . S
C485 C484 1.362 . S
H486 C492 0.930 . S
H487 C495 0.930 . S
H488 C496 0.930 . S
H489 C497 0.930 . S
H490 C500 0.930 . S
H491 C501 0.930 . S
C492 H486 0.930 . S
C492 C493 1.355 . S
C492 C494 1.415 . S
C493 C492 1.355 . S
C493 C495 1.419 . S
C494 C492 1.415 . S
C494 C499 1.425 . S
C494 C501 1.409 . S
C495 H487 0.930 . S
C495 C493 1.419 . S
C495 C496 1.362 . S
C496 H488 0.930 . S
C496 C495 1.362 . S
C496 C499 1.409 . S
C497 H489 0.930 . S
C497 C498 1.355 . S
C497 C499 1.415 . S
C498 C497 1.355 . S
C498 C500 1.419 . S
C499 C494 1.425 . S
C499 C496 1.409 . S
C499 C497 1.415 . S
C500 H490 0.930 . S
C500 C498 1.419 . S
C500 C501 1.362 . S
C501 H491 0.930 . S
C501 C494 1.409 . S
C501 C500 1.362 . S
H502 C508 0.930 . S
H503 C511 0.930 . S
H504 C512 0.930 . S
H505 C513 0.930 . S
H506 C516 0.930 . S
H507 C517 0.930 . S
C508 H502 0.930 . S
C508 C509 1.355 . S
C508 C510 1.415 . S
C509 C508 1.355 . S
C509 C511 1.419 . S
C510 C508 1.415 . S
C510 C515 1.425 . S
C510 C517 1.409 . S
C511 H503 0.930 . S
C511 C509 1.419 . S
C511 C512 1.362 . S
C512 H504 0.930 . S
C512 C511 1.362 . S
C512 C515 1.409 . S
C513 H505 0.930 . S
C513 C514 1.355 . S
C513 C515 1.415 . S
C514 C513 1.355 . S
C514 C516 1.419 . S
C515 C510 1.425 . S
C515 C512 1.409 . S
C515 C513 1.415 . S
C516 H506 0.930 . S
C516 C514 1.419 . S
C516 C517 1.362 . S
C517 H507 0.930 . S
C517 C510 1.409 . S
C517 C516 1.362 . S
H518 C524 0.930 . S
H519 C527 0.930 . S
H520 C528 0.930 . S
H521 C529 0.930 . S
H522 C532 0.930 . S
H523 C533 0.930 . S
C524 H518 0.930 . S
C524 C525 1.355 . S
C524 C526 1.415 . S
C525 C524 1.355 . S
C525 C527 1.419 . S
C526 C524 1.415 . S
C526 C531 1.425 . S
C526 C533 1.409 . S
C527 H519 0.930 . S
C527 C525 1.419 . S
C527 C528 1.362 . S
C528 H520 0.930 . S
C528 C527 1.362 . S
C528 C531 1.409 . S
C529 H521 0.930 . S
C529 C530 1.355 . S
C529 C531 1.415 . S
C530 C529 1.355 . S
C530 C532 1.419 . S
C531 C526 1.425 . S
C531 C528 1.409 . S
C531 C529 1.415 . S
C532 H522 0.930 . S
C532 C530 1.419 . S
C532 C533 1.362 . S
C533 H523 0.930 . S
C533 C526 1.409 . S
C533 C532 1.362 . S
H534 C540 0.930 . S
H535 C543 0.930 . S
H536 C544 0.930 . S
H537 C545 0.930 . S
H538 C548 0.930 . S
H539 C549 0.930 . S
C540 H534 0.930 . S
C540 C541 1.355 . S
C540 C542 1.415 . S
C541 C540 1.355 . S
C541 C543 1.419 . S
C542 C540 1.415 . S
C542 C547 1.425 . S
C542 C549 1.409 . S
C543 H535 0.930 . S
C543 C541 1.419 . S
C543 C544 1.362 . S
C544 H536 0.930 . S
C544 C543 1.362 . S
C544 C547 1.409 . S
C545 H537 0.930 . S
C545 C546 1.355 . S
C545 C547 1.415 . S
C546 C545 1.355 . S
C546 C548 1.419 . S
C547 C542 1.425 . S
C547 C544 1.409 . S
C547 C545 1.415 . S
C548 H538 0.930 . S
C548 C546 1.419 . S
C548 C549 1.362 . S
C549 H539 0.930 . S
C549 C542 1.409 . S
C549 C548 1.362 . S
H550 C556 0.930 . S
H551 C559 0.930 . S
H552 C560 0.930 . S
H553 C561 0.930 . S
H554 C564 0.930 . S
H555 C565 0.930 . S
C556 H550 0.930 . S
C556 C557 1.355 . S
C556 C558 1.415 . S
C557 C556 1.355 . S
C557 C559 1.419 . S
C558 C556 1.415 . S
C558 C563 1.425 . S
C558 C565 1.409 . S
C559 H551 0.930 . S
C559 C557 1.419 . S
C559 C560 1.362 . S
C560 H552 0.930 . S
C560 C559 1.362 . S
C560 C563 1.409 . S
C561 H553 0.930 . S
C561 C562 1.355 . S
C561 C563 1.415 . S
C562 C561 1.355 . S
C562 C564 1.419 . S
C563 C558 1.425 . S
C563 C560 1.409 . S
C563 C561 1.415 . S
C564 H554 0.930 . S
C564 C562 1.419 . S
C564 C565 1.362 . S
C565 H555 0.930 . S
C565 C558 1.409 . S
C565 C564 1.362 . S
H566 C572 0.930 . S
H567 C575 0.930 . S
H568 C576 0.930 . S
H569 C577 0.930 . S
H570 C580 0.930 . S
H571 C581 0.930 . S
C572 H566 0.930 . S
C572 C573 1.355 . S
C572 C574 1.415 . S
C573 C572 1.355 . S
C573 C575 1.419 . S
C574 C572 1.415 . S
C574 C579 1.425 . S
C574 C581 1.409 . S
C575 H567 0.930 . S
C575 C573 1.419 . S
C575 C576 1.362 . S
C576 H568 0.930 . S
C576 C575 1.362 . S
C576 C579 1.409 . S
C577 H569 0.930 . S
C577 C578 1.355 . S
C577 C579 1.415 . S
C578 C577 1.355 . S
C578 C580 1.419 . S
C579 C574 1.425 . S
C579 C576 1.409 . S
C579 C577 1.415 . S
C580 H570 0.930 . S
C580 C578 1.419 . S
C580 C581 1.362 . S
C581 H571 0.930 . S
C581 C574 1.409 . S
C581 C580 1.362 . S
H582 C588 0.930 . S
H583 C591 0.930 . S
H584 C592 0.930 . S
H585 C593 0.930 . S
H586 C596 0.930 . S
H587 C597 0.930 . S
C588 H582 0.930 . S
C588 C589 1.355 . S
C588 C590 1.415 . S
C589 C588 1.355 . S
C589 C591 1.419 . S
C590 C588 1.415 . S
C590 C595 1.425 . S
C590 C597 1.409 . S
C591 H583 0.930 . S
C591 C589 1.419 . S
C591 C592 1.362 . S
C592 H584 0.930 . S
C592 C591 1.362 . S
C592 C595 1.409 . S
C593 H585 0.930 . S
C593 C594 1.355 . S
C593 C595 1.415 . S
C594 C593 1.355 . S
C594 C596 1.419 . S
C595 C590 1.425 . S
C595 C592 1.409 . S
C595 C593 1.415 . S
C596 H586 0.930 . S
C596 C594 1.419 . S
C596 C597 1.362 . S
C597 H587 0.930 . S
C597 C590 1.409 . S
C597 C596 1.362 . S
H598 C604 0.930 . S
H599 C607 0.930 . S
H600 C608 0.930 . S
H601 C609 0.930 . S
H602 C612 0.930 . S
H603 C613 0.930 . S
C604 H598 0.930 . S
C604 C605 1.355 . S
C604 C606 1.415 . S
C605 C604 1.355 . S
C605 C607 1.419 . S
C606 C604 1.415 . S
C606 C611 1.425 . S
C606 C613 1.409 . S
C607 H599 0.930 . S
C607 C605 1.419 . S
C607 C608 1.362 . S
C608 H600 0.930 . S
C608 C607 1.362 . S
C608 C611 1.409 . S
C609 H601 0.930 . S
C609 C610 1.355 . S
C609 C611 1.415 . S
C610 C609 1.355 . S
C610 C612 1.419 . S
C611 C606 1.425 . S
C611 C608 1.409 . S
C611 C609 1.415 . S
C612 H602 0.930 . S
C612 C610 1.419 . S
C612 C613 1.362 . S
C613 H603 0.930 . S
C613 C606 1.409 . S
C613 C612 1.362 . S
H614 C620 0.930 . S
H615 C623 0.930 . S
H616 C624 0.930 . S
H617 C625 0.930 . S
H618 C628 0.930 . S
H619 C629 0.930 . S
C620 H614 0.930 . S
C620 C621 1.355 . S
C620 C622 1.415 . S
C621 C620 1.355 . S
C621 C623 1.419 . S
C622 C620 1.415 . S
C622 C627 1.425 . S
C622 C629 1.409 . S
C623 H615 0.930 . S
C623 C621 1.419 . S
C623 C624 1.362 . S
C624 H616 0.930 . S
C624 C623 1.362 . S
C624 C627 1.409 . S
C625 H617 0.930 . S
C625 C626 1.355 . S
C625 C627 1.415 . S
C626 C625 1.355 . S
C626 C628 1.419 . S
C627 C622 1.425 . S
C627 C624 1.409 . S
C627 C625 1.415 . S
C628 H618 0.930 . S
C628 C626 1.419 . S
C628 C629 1.362 . S
C629 H619 0.930 . S
C629 C622 1.409 . S
C629 C628 1.362 . S
H630 C636 0.930 . S
H631 C639 0.930 . S
H632 C640 0.930 . S
H633 C641 0.930 . S
H634 C644 0.930 . S
H635 C645 0.930 . S
C636 H630 0.930 . S
C636 C637 1.355 . S
C636 C638 1.415 . S
C637 C636 1.355 . S
C637 C639 1.419 . S
C638 C636 1.415 . S
C638 C643 1.425 . S
C638 C645 1.409 . S
C639 H631 0.930 . S
C639 C637 1.419 . S
C639 C640 1.362 . S
C640 H632 0.930 . S
C640 C639 1.362 . S
C640 C643 1.409 . S
C641 H633 0.930 . S
C641 C642 1.355 . S
C641 C643 1.415 . S
C642 C641 1.355 . S
C642 C644 1.419 . S
C643 C638 1.425 . S
C643 C640 1.409 . S
C643 C641 1.415 . S
C644 H634 0.930 . S
C644 C642 1.419 . S
C644 C645 1.362 . S
C645 H635 0.930 . S
C645 C638 1.409 . S
C645 C644 1.362 . S
H646 C652 0.930 . S
H647 C655 0.930 . S
H648 C656 0.930 . S
H649 C657 0.930 . S
H650 C660 0.930 . S
H651 C661 0.930 . S
C652 H646 0.930 . S
C652 C653 1.355 . S
C652 C654 1.415 . S
C653 C652 1.355 . S
C653 C655 1.419 . S
C654 C652 1.415 . S
C654 C659 1.425 . S
C654 C661 1.409 . S
C655 H647 0.930 . S
C655 C653 1.419 . S
C655 C656 1.362 . S
C656 H648 0.930 . S
C656 C655 1.362 . S
C656 C659 1.409 . S
C657 H649 0.930 . S
C657 C658 1.355 . S
C657 C659 1.415 . S
C658 C657 1.355 . S
C658 C660 1.419 . S
C659 C654 1.425 . S
C659 C656 1.409 . S
C659 C657 1.415 . S
C660 H650 0.930 . S
C660 C658 1.419 . S
C660 C661 1.362 . S
C661 H651 0.930 . S
C661 C654 1.409 . S
C661 C660 1.362 . S
H662 C668 0.930 . S
H663 C671 0.930 . S
H664 C672 0.930 . S
H665 C673 0.930 . S
H666 C676 0.930 . S
H667 C677 0.930 . S
C668 H662 0.930 . S
C668 C669 1.355 . S
C668 C670 1.415 . S
C669 C668 1.355 . S
C669 C671 1.419 . S
C670 C668 1.415 . S
C670 C675 1.425 . S
C670 C677 1.409 . S
C671 H663 0.930 . S
C671 C669 1.419 . S
C671 C672 1.362 . S
C672 H664 0.930 . S
C672 C671 1.362 . S
C672 C675 1.409 . S
C673 H665 0.930 . S
C673 C674 1.355 . S
C673 C675 1.415 . S
C674 C673 1.355 . S
C674 C676 1.419 . S
C675 C670 1.425 . S
C675 C672 1.409 . S
C675 C673 1.415 . S
C676 H666 0.930 . S
C676 C674 1.419 . S
C676 C677 1.362 . S
C677 H667 0.930 . S
C677 C670 1.409 . S
C677 C676 1.362 . S
H678 C684 0.930 . S
H679 C687 0.930 . S
H680 C688 0.930 . S
H681 C689 0.930 . S
H682 C692 0.930 . S
H683 C693 0.930 . S
C684 H678 0.930 . S
C684 C685 1.355 . S
C684 C686 1.415 . S
C685 C684 1.355 . S
C685 C687 1.419 . S
C686 C684 1.415 . S
C686 C691 1.425 . S
C686 C693 1.409 . S
C687 H679 0.930 . S
C687 C685 1.419 . S
C687 C688 1.362 . S
C688 H680 0.930 . S
C688 C687 1.362 . S
C688 C691 1.409 . S
C689 H681 0.930 . S
C689 C690 1.355 . S
C689 C691 1.415 . S
C690 C689 1.355 . S
C690 C692 1.419 . S
C691 C686 1.425 . S
C691 C688 1.409 . S
C691 C689 1.415 . S
C692 H682 0.930 . S
C692 C690 1.419 . S
C692 C693 1.362 . S
C693 H683 0.930 . S
C693 C686 1.409 . S
C693 C692 1.362 . S
H694 C700 0.930 . S
H695 C703 0.930 . S
H696 C704 0.930 . S
H697 C705 0.930 . S
H698 C708 0.930 . S
H699 C709 0.930 . S
C700 H694 0.930 . S
C700 C701 1.355 . S
C700 C702 1.415 . S
C701 C700 1.355 . S
C701 C703 1.419 . S
C702 C700 1.415 . S
C702 C707 1.425 . S
C702 C709 1.409 . S
C703 H695 0.930 . S
C703 C701 1.419 . S
C703 C704 1.362 . S
C704 H696 0.930 . S
C704 C703 1.362 . S
C704 C707 1.409 . S
C705 H697 0.930 . S
C705 C706 1.355 . S
C705 C707 1.415 1_556 S
C706 C705 1.355 . S
C706 C708 1.419 . S
C707 C702 1.425 . S
C707 C704 1.409 . S
C707 C705 1.415 1_554 S
C708 H698 0.930 . S
C708 C706 1.419 . S
C708 C709 1.362 1_556 S
C709 H699 0.930 . S
C709 C702 1.409 . S
C709 C708 1.362 1_554 S
H710 C716 0.930 . S
H711 C719 0.930 . S
H712 C720 0.930 . S
H713 C721 0.930 . S
H714 C724 0.930 . S
H715 C725 0.930 . S
C716 H710 0.930 . S
C716 C717 1.355 . S
C716 C718 1.415 . S
C717 C716 1.355 . S
C717 C719 1.419 . S
C718 C716 1.415 . S
C718 C723 1.425 . S
C718 C725 1.409 . S
C719 H711 0.930 . S
C719 C717 1.419 . S
C719 C720 1.362 . S
C720 H712 0.930 . S
C720 C719 1.362 . S
C720 C723 1.409 . S
C721 H713 0.930 . S
C721 C722 1.355 . S
C721 C723 1.415 . S
C722 C721 1.355 . S
C722 C724 1.419 . S
C723 C718 1.425 . S
C723 C720 1.409 . S
C723 C721 1.415 . S
C724 H714 0.930 . S
C724 C722 1.419 . S
C724 C725 1.362 . S
C725 H715 0.930 . S
C725 C718 1.409 . S
C725 C724 1.362 . S
C354 C309 1.576 . S
C349 C19 1.526 . S
C365 C40 1.551 . S
C370 C129 1.608 . S
C381 C51 1.522 . S
C386 C176 1.541 . S
C397 C72 1.482 . S
C402 C212 1.470 . S
C418 C237 1.553 . S
C413 C103 1.465 . S
C429 C114 1.480 . S
C434 C273 1.573 . S
C445 C30 1.536 . S
C450 C165 1.609 . S
C461 C61 1.449 . S
C466 C201 1.551 . S
C477 C82 1.484 . S
C482 C248 1.456 . S
C498 C284 1.554 . S
C493 C93 1.416 1_554 S
C514 C320 1.502 . S
C509 C124 1.523 . S
C530 C140 1.550 . S
C525 C9 1.444 . S
C541 C17 1.470 . S
C546 C164 1.500 . S
C557 C38 1.386 . S
C562 C200 1.510 . S
C578 C238 1.502 . S
C573 C54 1.460 . S
C589 C75 1.455 . S
C594 C274 1.503 1_556 S
C610 C310 1.473 . S
C605 C101 1.425 . S
C626 C130 1.467 . S
C621 C117 1.425 . S
C642 C308 1.482 . S
C637 C33 1.361 . S
C653 C59 1.379 . S
C658 C128 1.477 . S
C674 C166 1.504 . S
C669 C80 1.395 . S
C685 C96 1.396 . S
C690 C202 1.486 . S
C701 C122 1.467 . S
C706 C236 1.514 . S
C717 C12 1.427 . S
C722 C272 1.535 . S
