# Generated by pormake.
# Topology eea, (3,6)-cn, num edge types: 1
# Building blocks:
#     Node 0, Type 0, BuildingBlock: BETDAH_clean_linker_0, # of connection points: 3
#     Node 1, Type 0, BuildingBlock: BETDAH_clean_linker_0, # of connection points: 3
#     Node 2, Type 0, BuildingBlock: BETDAH_clean_linker_0, # of connection points: 3
#     Node 3, Type 0, BuildingBlock: BETDAH_clean_linker_0, # of connection points: 3
#     Node 4, Type 0, BuildingBlock: BETDAH_clean_linker_0, # of connection points: 3
#     Node 5, Type 0, BuildingBlock: BETDAH_clean_linker_0, # of connection points: 3
#     Node 6, Type 0, BuildingBlock: BETDAH_clean_linker_0, # of connection points: 3
#     Node 7, Type 0, BuildingBlock: BETDAH_clean_linker_0, # of connection points: 3
#     Node 8, Type 0, BuildingBlock: BETDAH_clean_linker_0, # of connection points: 3
#     Node 9, Type 0, BuildingBlock: BETDAH_clean_linker_0, # of connection points: 3
#     Node 10, Type 0, BuildingBlock: BETDAH_clean_linker_0, # of connection points: 3
#     Node 11, Type 0, BuildingBlock: BETDAH_clean_linker_0, # of connection points: 3
#     Node 12, Type 0, BuildingBlock: BETDAH_clean_linker_0, # of connection points: 3
#     Node 13, Type 0, BuildingBlock: BETDAH_clean_linker_0, # of connection points: 3
#     Node 14, Type 0, BuildingBlock: BETDAH_clean_linker_0, # of connection points: 3
#     Node 15, Type 0, BuildingBlock: BETDAH_clean_linker_0, # of connection points: 3
#     Node 16, Type 0, BuildingBlock: BETDAH_clean_linker_0, # of connection points: 3
#     Node 17, Type 0, BuildingBlock: BETDAH_clean_linker_0, # of connection points: 3
#     Node 18, Type 1, BuildingBlock: CIFDUS_clean_sbu_1, # of connection points: 6
#     Node 19, Type 1, BuildingBlock: CIFDUS_clean_sbu_1, # of connection points: 6
#     Node 20, Type 1, BuildingBlock: CIFDUS_clean_sbu_1, # of connection points: 6
#     Node 21, Type 1, BuildingBlock: CIFDUS_clean_sbu_1, # of connection points: 6
#     Node 22, Type 1, BuildingBlock: CIFDUS_clean_sbu_1, # of connection points: 6
#     Node 23, Type 1, BuildingBlock: CIFDUS_clean_sbu_1, # of connection points: 6
#     Node 24, Type 1, BuildingBlock: CIFDUS_clean_sbu_1, # of connection points: 6
#     Node 25, Type 1, BuildingBlock: CIFDUS_clean_sbu_1, # of connection points: 6
#     Node 26, Type 1, BuildingBlock: CIFDUS_clean_sbu_1, # of connection points: 6
#     Edge 27, Type (0, 1), None
#     Edge 28, Type (0, 1), None
#     Edge 29, Type (0, 1), None
#     Edge 30, Type (0, 1), None
#     Edge 31, Type (0, 1), None
#     Edge 32, Type (0, 1), None
#     Edge 33, Type (0, 1), None
#     Edge 34, Type (0, 1), None
#     Edge 35, Type (0, 1), None
#     Edge 36, Type (0, 1), None
#     Edge 37, Type (0, 1), None
#     Edge 38, Type (0, 1), None
#     Edge 39, Type (0, 1), None
#     Edge 40, Type (0, 1), None
#     Edge 41, Type (0, 1), None
#     Edge 42, Type (0, 1), None
#     Edge 43, Type (0, 1), None
#     Edge 44, Type (0, 1), None
#     Edge 45, Type (0, 1), None
#     Edge 46, Type (0, 1), None
#     Edge 47, Type (0, 1), None
#     Edge 48, Type (0, 1), None
#     Edge 49, Type (0, 1), None
#     Edge 50, Type (0, 1), None
#     Edge 51, Type (0, 1), None
#     Edge 52, Type (0, 1), None
#     Edge 53, Type (0, 1), None
#     Edge 54, Type (0, 1), None
#     Edge 55, Type (0, 1), None
#     Edge 56, Type (0, 1), None
#     Edge 57, Type (0, 1), None
#     Edge 58, Type (0, 1), None
#     Edge 59, Type (0, 1), None
#     Edge 60, Type (0, 1), None
#     Edge 61, Type (0, 1), None
#     Edge 62, Type (0, 1), None
#     Edge 63, Type (0, 1), None
#     Edge 64, Type (0, 1), None
#     Edge 65, Type (0, 1), None
#     Edge 66, Type (0, 1), None
#     Edge 67, Type (0, 1), None
#     Edge 68, Type (0, 1), None
#     Edge 69, Type (0, 1), None
#     Edge 70, Type (0, 1), None
#     Edge 71, Type (0, 1), None
#     Edge 72, Type (0, 1), None
#     Edge 73, Type (0, 1), None
#     Edge 74, Type (0, 1), None
#     Edge 75, Type (0, 1), None
#     Edge 76, Type (0, 1), None
#     Edge 77, Type (0, 1), None
#     Edge 78, Type (0, 1), None
#     Edge 79, Type (0, 1), None
#     Edge 80, Type (0, 1), None
# Relax obj value: 0.094
# Max RMSD: 0.118
# Mean RMSD: 0.088
data_MOF--net-eea--node1-CIFDUS_clean_sbu_1--node2-BETDAH_clean_linker_0--edge1-none
_symmetry_space_group_name_H-M    P1
_symmetry_Int_Tables_number       1
_symmetry_cell_setting            triclinic
loop_
_symmetry_equiv_pos_as_xyz
'x, y, z'
_cell_length_a     26.432286
_cell_length_b     25.136064
_cell_length_c     18.607606
_cell_angle_alpha  89.820084
_cell_angle_beta   90.898921
_cell_angle_gamma 119.73561
loop_
_atom_site_label
_atom_site_type_symbol
_atom_site_fract_x
_atom_site_fract_y
_atom_site_fract_z
_atom_type_partial_charge
H0 H 0.2992 0.06726 0.45288 0.0
H1 H 0.2229 0.18265 0.46909 0.0
H2 H 0.14984 0.03087 0.32124 0.0
C3 C 0.26426 0.07651 0.43903 0.0
C4 C 0.2236 0.04203 0.38482 0.0
C5 C 0.26549 0.12838 0.46758 0.0
C6 C 0.22243 0.14265 0.44659 0.0
C7 C 0.17865 0.10568 0.39655 0.0
C8 C 0.17946 0.05528 0.36554 0.0
N9 N 0.13903 0.124 0.36997 0.0
C10 C 0.16077 0.18387 0.34666 0.0
H11 H 0.9384 0.26636 0.40893 0.0
H12 H 0.85835 0.08378 0.49047 0.0
H13 H 0.97831 0.13577 0.31484 0.0
C14 C 0.93243 0.22055 0.40586 0.0
C15 C 0.96697 0.20873 0.35904 0.0
C16 C 0.89998 0.17926 0.45997 0.0
C17 C 0.8858 0.1178 0.45175 0.0
C18 C 0.90989 0.10104 0.3945 0.0
C19 C 0.9546 0.14749 0.35264 0.0
N20 N 0.89085 0.03817 0.38075 0.0
C21 C 0.83653 1.00097 0.34811 0.0
H22 H 0.77398 0.72086 0.45752 0.0
H23 H 0.95384 0.77761 0.43011 0.0
H24 H 0.86254 0.82173 0.26788 0.0
C25 C 0.8131 0.744 0.42583 0.0
C26 C 0.81207 0.77049 0.35884 0.0
C27 C 0.8636 0.74547 0.45153 0.0
C28 C 0.91429 0.77553 0.41006 0.0
C29 C 0.91446 0.80332 0.3438 0.0
C30 C 0.8631 0.80119 0.31897 0.0
N31 N 0.9652 0.83224 0.30073 0.0
C32 C 0.01531 0.82938 0.31732 0.0
H33 H 0.00978 0.23311 0.56769 0.0
H34 H 0.18994 0.28306 0.58953 0.0
H35 H 0.08047 0.23408 0.77561 0.0
C36 C 0.04606 0.23831 0.60051 0.0
C37 C 0.03898 0.23367 0.6749 0.0
C38 C 0.10166 0.26493 0.5702 0.0
C39 C 0.14718 0.26592 0.61221 0.0
C40 C 0.13718 0.24811 0.68589 0.0
C41 C 0.08482 0.23773 0.71774 0.0
N42 N 0.17976 0.24521 0.73128 0.0
C43 C 0.22819 0.24237 0.70777 0.0
H44 H 0.75521 0.76435 0.5902 0.0
H45 H 0.79229 0.94771 0.53912 0.0
H46 H 0.86067 0.91146 0.73374 0.0
C47 C 0.77724 0.81314 0.60165 0.0
C48 C 0.80892 0.83275 0.6656 0.0
C49 C 0.76687 0.85269 0.5581 0.0
C50 C 0.79713 0.91579 0.57386 0.0
C51 C 0.83378 0.93753 0.63545 0.0
C52 C 0.83741 0.89552 0.68289 0.0
N53 N 0.86639 1.00134 0.65031 0.0
C54 C 0.84117 0.03162 0.68385 0.0
H55 H 0.2453 0.97994 0.57941 0.0
H56 H 0.06487 0.84275 0.59709 0.0
H57 H 0.13804 0.9972 0.73927 0.0
C58 C 0.20259 0.96486 0.60142 0.0
C59 C 0.19672 0.99691 0.66047 0.0
C60 C 0.15492 0.90854 0.57808 0.0
C61 C 0.1016 0.88617 0.61372 0.0
C62 C 0.09555 0.91823 0.67168 0.0
C63 C 0.14205 0.97498 0.69147 0.0
N64 N 0.04585 0.89137 0.71628 0.0
C65 C 1.00142 0.83146 0.70643 0.0
H66 H 0.96533 0.39994 0.78236 0.0
H67 H 0.89335 0.51934 0.79747 0.0
H68 H 0.81608 0.36598 0.65197 0.0
C69 C 0.93107 0.41027 0.76851 0.0
C70 C 0.8896 0.37587 0.71498 0.0
C71 C 0.93402 0.46324 0.79623 0.0
C72 C 0.89173 0.47865 0.77534 0.0
C73 C 0.84713 0.44184 0.72606 0.0
C74 C 0.84628 0.39034 0.6958 0.0
N75 N 0.80835 0.46123 0.69939 0.0
C76 C 0.83098 0.52161 0.67771 0.0
H77 H 0.60831 0.60073 0.74186 0.0
H78 H 0.5274 0.41769 0.82202 0.0
H79 H 0.64809 0.4703 0.64705 0.0
C80 C 0.60222 0.55489 0.73854 0.0
C81 C 0.63669 0.54312 0.69154 0.0
C82 C 0.56932 0.51331 0.79219 0.0
C83 C 0.55515 0.4519 0.78366 0.0
C84 C 0.57959 0.43538 0.72661 0.0
C85 C 0.62439 0.48193 0.68498 0.0
N86 N 0.5604 0.37255 0.71243 0.0
C87 C 0.50549 0.3354 0.68126 0.0
H88 H 0.44458 0.05588 0.8068 0.0
H89 H 0.61926 0.10502 0.76093 0.0
H90 H 0.52195 0.15233 0.61023 0.0
C91 C 0.48094 0.07661 0.77036 0.0
C92 C 0.4761 0.10242 0.70468 0.0
C93 C 0.53148 0.07605 0.7901 0.0
C94 C 0.57955 0.1043 0.74462 0.0
C95 C 0.57699 0.13249 0.67972 0.0
C96 C 0.52478 0.13152 0.66009 0.0
N97 N 0.62616 0.16136 0.63382 0.0
C98 C 0.67833 0.16243 0.65027 0.0
H99 H 0.67787 0.56693 0.89993 0.0
H100 H 0.85781 0.616 0.92124 0.0
H101 H 0.74815 0.56573 0.10727 0.0
C102 C 0.71417 0.57197 0.93253 0.0
C103 C 0.70713 0.56686 0.00684 0.0
C104 C 0.76975 0.59882 0.90227 0.0
C105 C 0.81507 0.599 0.94395 0.0
C106 C 0.80478 0.58023 0.01736 0.0
C107 C 0.75264 0.57008 0.04945 0.0
N108 N 0.84674 0.57582 0.06228 0.0
C109 C 0.8944 0.57199 0.03802 0.0
H110 H 0.41341 0.09898 0.92551 0.0
H111 H 0.45943 0.28631 0.88326 0.0
H112 H 0.53696 0.24198 0.06262 0.0
C113 C 0.43953 0.14762 0.93723 0.0
C114 C 0.47651 0.165 0.99727 0.0
C115 C 0.42988 0.18999 0.89829 0.0
C116 C 0.46474 0.25268 0.91405 0.0
C117 C 0.50575 0.27175 0.97138 0.0
C118 C 0.51012 0.22766 0.01417 0.0
N119 N 0.53978 0.3348 0.98949 0.0
C120 C 0.51389 0.3662 0.01847 0.0
H121 H 0.90915 0.31142 0.90726 0.0
H122 H 0.73039 0.17217 0.93427 0.0
H123 H 0.80816 0.32591 0.07762 0.0
C124 C 0.86735 0.29562 0.93232 0.0
C125 C 0.86363 0.32701 0.9935 0.0
C126 C 0.81938 0.239 0.91051 0.0
C127 C 0.76747 0.21576 0.94967 0.0
C128 C 0.76329 0.24741 0.00948 0.0
C129 C 0.81036 0.30419 0.02835 0.0
N130 N 0.71508 0.22033 0.05644 0.0
C131 C 0.67215 0.15921 0.05109 0.0
H132 H 0.63185 0.73177 0.11577 0.0
H133 H 0.55731 0.84874 0.13196 0.0
H134 H 0.48237 0.6964 0.98501 0.0
C135 C 0.59716 0.74146 0.10206 0.0
C136 C 0.55607 0.70702 0.04824 0.0
C137 C 0.59919 0.79384 0.13022 0.0
C138 C 0.55634 0.80846 0.10956 0.0
C139 C 0.51214 0.77154 0.05995 0.0
C140 C 0.51222 0.72072 0.02915 0.0
N141 N 0.47317 0.79058 0.03312 0.0
C142 C 0.49581 0.85078 0.01079 0.0
H143 H 0.27862 0.93511 0.08023 0.0
H144 H 0.1938 0.75159 0.1593 0.0
H145 H 0.31387 0.80201 0.98379 0.0
C146 C 0.2714 0.88885 0.07672 0.0
C147 C 0.30482 0.87603 0.02914 0.0
C148 C 0.23766 0.84743 0.13007 0.0
C149 C 0.22208 0.7856 0.12111 0.0
C150 C 0.24563 0.76833 0.06369 0.0
C151 C 0.29095 0.81437 0.02207 0.0
N152 N 0.22554 0.70526 0.04963 0.0
C153 C 0.17148 0.66898 0.01592 0.0
H154 H 0.1053 0.38614 0.12459 0.0
H155 H 0.28409 0.43892 0.09516 0.0
H156 H 0.19419 0.48706 0.93515 0.0
C157 C 0.14432 0.40868 0.09262 0.0
C158 C 0.14358 0.43582 0.026 0.0
C159 C 0.19433 0.40872 0.1176 0.0
C160 C 0.24492 0.43809 0.07579 0.0
C161 C 0.24547 0.46679 0.01003 0.0
C162 C 0.19451 0.4659 0.98587 0.0
N163 N 0.29616 0.49559 0.96681 0.0
C164 C 0.34693 0.49438 0.98452 0.0
H165 H 0.34613 0.90394 0.23767 0.0
H166 H 0.52407 0.94604 0.25865 0.0
H167 H 0.41395 0.89682 0.44444 0.0
C168 C 0.38182 0.90746 0.27015 0.0
C169 C 0.37436 0.90136 0.34433 0.0
C170 C 0.43728 0.93258 0.23995 0.0
C171 C 0.48158 0.93048 0.28142 0.0
C172 C 0.47055 0.91093 0.35456 0.0
C173 C 0.41887 0.90212 0.38674 0.0
N174 N 0.51124 0.90392 0.39909 0.0
C175 C 0.55938 0.90106 0.37476 0.0
H176 H 0.0875 0.43119 0.2564 0.0
H177 H 0.12595 0.61541 0.20752 0.0
H178 H 0.19427 0.57706 0.40076 0.0
C179 C 0.1099 0.47992 0.26829 0.0
C180 C 0.14191 0.49891 0.33211 0.0
C181 C 0.09983 0.52007 0.22538 0.0
C182 C 0.13056 0.58307 0.24174 0.0
C183 C 0.16735 0.60415 0.30327 0.0
C184 C 0.1708 0.56159 0.34998 0.0
N185 N 0.20052 0.66785 0.31863 0.0
C186 C 0.17609 0.69852 0.35318 0.0
H187 H 0.57765 0.64206 0.24131 0.0
H188 H 0.39828 0.50355 0.26423 0.0
H189 H 0.47556 0.65446 0.41182 0.0
C190 C 0.53566 0.62609 0.26593 0.0
C191 C 0.5315 0.65677 0.32751 0.0
C192 C 0.48774 0.56993 0.24301 0.0
C193 C 0.43534 0.54667 0.28099 0.0
C194 C 0.4307 0.57746 0.34137 0.0
C195 C 0.47807 0.63343 0.36214 0.0
N196 N 0.38135 0.55022 0.38657 0.0
C197 C 0.33523 0.49153 0.37435 0.0
O198 O 0.4073 0.93275 0.00146 0.0
Mn199 Mn 0.49294 1.00987 0.0182 0.0
O200 O 0.35702 0.98039 0.00466 0.0
Mn201 Mn 0.39695 0.02687 0.08473 0.0
O202 O 0.57506 0.08421 0.03972 0.0
O203 O 0.52679 0.95733 0.99038 0.0
Mn204 Mn 0.59229 1.00035 0.94286 0.0
O205 O 0.5005 0.04 0.91066 0.0
O206 O 0.64376 0.06344 0.0028 0.0
O207 O 0.48528 0.97834 0.12564 0.0
O208 O 0.40808 0.98601 0.16151 0.0
O209 O 0.58017 0.92138 0.94889 0.0
O210 O 0.57243 0.02887 0.86133 0.0
C211 C 0.45867 0.11718 0.05251 0.0
C212 C 0.3576 0.93062 0.99866 0.0
C213 C 0.62825 0.09777 0.0342 0.0
C214 C 0.53374 0.91051 0.9829 0.0
C215 C 0.53445 0.04613 0.85794 0.0
C216 C 0.44538 0.96808 0.17164 0.0
O217 O 0.46512 0.06937 0.04649 0.0
O218 O 0.41388 0.10715 0.08965 0.0
O219 O 0.08474 0.47945 0.99264 0.0
Mn220 Mn 0.01801 0.50151 0.00909 0.0
O221 O 0.04411 0.38028 0.01868 0.0
Mn222 Mn 0.9955 0.38432 0.08411 0.0
O223 O 0.95354 0.52591 0.03001 0.0
O224 O 0.07418 0.58892 0.9786 0.0
Mn225 Mn 0.03655 0.61344 0.9192 0.0
O226 O 0.98333 0.47558 0.90628 0.0
O227 O 0.97858 0.61448 0.97213 0.0
O228 O 0.05365 0.52535 0.1137 0.0
O229 O 0.03092 0.43422 0.16188 0.0
O230 O 0.11152 0.67833 0.92678 0.0
O231 O 1.00496 0.5597 0.84191 0.0
C232 C 0.91475 0.35699 0.04118 0.0
C233 C 0.08796 0.43028 0.00122 0.0
C234 C 0.9451 0.57083 0.01291 0.0
C235 C 0.11883 0.64356 0.97224 0.0
C236 C 0.97937 0.50169 0.84913 0.0
C237 C 0.05787 0.49251 0.16415 0.0
O238 O 0.95829 0.4128 0.03433 0.0
O239 O 0.92215 0.32131 0.08538 0.0
O240 O 0.61018 0.53882 0.03854 0.0
Mn241 Mn 0.52808 0.53321 0.02162 0.0
O242 O 0.67529 0.63584 0.01529 0.0
Mn243 Mn 0.62754 0.64631 0.94978 0.0
O244 O 0.44639 0.52519 0.99932 0.0
O245 O 0.49054 0.44482 0.04936 0.0
Mn246 Mn 0.42892 0.42339 0.1025 0.0
O247 O 0.52312 0.55961 0.12778 0.0
O248 O 0.37788 0.43488 0.04413 0.0
O249 O 0.53351 0.50883 0.91407 0.0
O250 O 0.60356 0.59788 0.86851 0.0
O251 O 0.43671 0.35419 0.09295 0.0
O252 O 0.45365 0.47531 0.18223 0.0
C253 C 0.57579 0.6789 0.99554 0.0
C254 C 0.66342 0.58221 0.03356 0.0
C255 C 0.393 0.4837 0.00856 0.0
C256 C 0.48078 0.3894 0.05383 0.0
C257 C 0.49032 0.53278 0.18185 0.0
C258 C 0.56591 0.54102 0.86175 0.0
O259 O 0.56379 0.62245 0.99666 0.0
O260 O 0.6205 0.71489 0.95763 0.0
O261 O 0.06944 0.2658 0.33156 0.0
Mn262 Mn 0.15535 0.34229 0.34774 0.0
O263 O 0.01942 0.31374 0.33737 0.0
Mn264 Mn 0.06028 0.35983 0.4173 0.0
O265 O 0.2379 0.41616 0.36826 0.0
O266 O 0.18831 0.28879 0.31955 0.0
Mn267 Mn 0.25251 0.33076 0.26964 0.0
O268 O 0.16235 0.37306 0.23931 0.0
O269 O 0.30545 0.39537 0.32668 0.0
O270 O 0.14833 0.31056 0.45518 0.0
O271 O 0.07142 0.31806 0.49295 0.0
O272 O 0.24148 0.25245 0.278 0.0
O273 O 0.23092 0.35726 0.18805 0.0
C274 C 0.12327 0.45047 0.3865 0.0
C275 C 0.01987 0.26397 0.32986 0.0
C276 C 0.29084 0.4299 0.3594 0.0
C277 C 0.196 0.24223 0.31378 0.0
C278 C 0.19479 0.377 0.18549 0.0
C279 C 0.10885 0.30019 0.50196 0.0
O280 O 0.12836 0.40197 0.3786 0.0
O281 O 0.07862 0.44062 0.42377 0.0
O282 O 0.75183 0.81219 0.32508 0.0
Mn283 Mn 0.68419 0.83266 0.34234 0.0
O284 O 0.71274 0.71312 0.35065 0.0
Mn285 Mn 0.66399 0.71603 0.41683 0.0
O286 O 0.61893 0.85566 0.36427 0.0
O287 O 0.73927 0.92029 0.31178 0.0
Mn288 Mn 0.70067 0.94431 0.25343 0.0
O289 O 0.64926 0.80654 0.23972 0.0
O290 O 0.64285 0.94444 0.30757 0.0
O291 O 0.72008 0.8569 0.44662 0.0
O292 O 0.69925 0.7662 0.49443 0.0
O293 O 0.77538 1.00975 0.26035 0.0
O294 O 0.66897 0.89059 0.17619 0.0
C295 C 0.58269 0.68742 0.37492 0.0
C296 C 0.75608 0.76362 0.33339 0.0
C297 C 0.60988 0.90034 0.34812 0.0
C298 C 0.7835 0.97515 0.30521 0.0
C299 C 0.64436 0.8326 0.18305 0.0
C300 C 0.72518 0.82446 0.49684 0.0
O301 O 0.6256 0.74356 0.36781 0.0
O302 O 0.59109 0.65216 0.41869 0.0
O303 O 0.27774 0.87385 0.37697 0.0
Mn304 Mn 0.19585 0.86848 0.35897 0.0
O305 O 0.34295 0.97069 0.3531 0.0
Mn306 Mn 0.29566 0.98133 0.28689 0.0
O307 O 0.11457 0.86069 0.33519 0.0
O308 O 0.1577 0.78001 0.38767 0.0
Mn309 Mn 0.09651 0.76017 0.44115 0.0
O310 O 0.19082 0.89623 0.46435 0.0
O311 O 0.04572 0.7716 0.38206 0.0
O312 O 0.20168 0.84332 0.2519 0.0
O313 O 0.27133 0.9324 0.20591 0.0
O314 O 0.10253 0.68988 0.43217 0.0
O315 O 0.1218 0.81277 0.52032 0.0
C316 C 0.2437 0.01399 0.33236 0.0
C317 C 0.331 0.91707 0.37158 0.0
C318 C 0.06113 0.81954 0.34458 0.0
C319 C 0.14634 0.72396 0.39206 0.0
C320 C 0.15834 0.87026 0.51884 0.0
C321 C 0.23399 0.87538 0.19944 0.0
O322 O 0.23184 0.95759 0.33339 0.0
O323 O 0.28856 0.04998 0.29468 0.0
O324 O 0.73904 0.60078 0.66417 0.0
Mn325 Mn 0.82411 0.67833 0.68111 0.0
O326 O 0.68825 0.64788 0.66861 0.0
Mn327 Mn 0.72699 0.6933 0.74994 0.0
O328 O 0.9055 0.75345 0.70206 0.0
O329 O 0.859 0.62686 0.65295 0.0
Mn330 Mn 0.92373 0.67003 0.60455 0.0
O331 O 0.83114 0.70928 0.57289 0.0
O332 O 0.97502 0.73499 0.66247 0.0
O333 O 0.81713 0.64622 0.78823 0.0
O334 O 0.73871 0.65133 0.82503 0.0
O335 O 0.91349 0.59189 0.61264 0.0
O336 O 0.90183 0.69618 0.52292 0.0
C337 C 0.79034 0.78461 0.72029 0.0
C338 C 0.68921 0.59833 0.66175 0.0
C339 C 0.95887 0.76873 0.69403 0.0
C340 C 0.86712 0.58068 0.64703 0.0
C341 C 0.86452 0.71438 0.51967 0.0
C342 C 0.7769 0.63448 0.83436 0.0
O343 O 0.79536 0.73616 0.71245 0.0
O344 O 0.74518 0.77423 0.75676 0.0
O345 O 0.41498 0.14402 0.66615 0.0
Mn346 Mn 0.35021 0.16941 0.68051 0.0
O347 O 0.3771 0.05159 0.71871 0.0
Mn348 Mn 0.32109 0.05611 0.77004 0.0
O349 O 0.28686 0.19566 0.70068 0.0
O350 O 0.40709 0.25581 0.64758 0.0
Mn351 Mn 0.36916 0.28012 0.58822 0.0
O352 O 0.31463 0.14194 0.57819 0.0
O353 O 0.31228 0.28348 0.6412 0.0
O354 O 0.38773 0.19542 0.78435 0.0
O355 O 0.34646 0.10834 0.8474 0.0
O356 O 0.44456 0.34426 0.59332 0.0
O357 O 0.33619 0.22527 0.51219 0.0
C358 C 0.24531 0.02665 0.71186 0.0
C359 C 0.41885 0.09738 0.68862 0.0
C360 C 0.27868 0.24054 0.68268 0.0
C361 C 0.45209 0.3099 0.63919 0.0
C362 C 0.31048 0.16738 0.52051 0.0
C363 C 0.3833 0.16501 0.84191 0.0
O364 O 0.28972 0.08199 0.70723 0.0
O365 O 0.24813 0.99215 0.76192 0.0
O366 O 0.94174 0.20603 0.70648 0.0
Mn367 Mn 0.85957 0.2008 0.68929 0.0
O368 O 0.00718 0.30278 0.68234 0.0
Mn369 Mn 0.95936 0.31308 0.61685 0.0
O370 O 0.77806 0.19334 0.66609 0.0
O371 O 0.82142 0.11229 0.71754 0.0
Mn372 Mn 0.75985 0.09187 0.77042 0.0
O373 O 0.8546 0.22779 0.79534 0.0
O374 O 0.70927 0.10341 0.71115 0.0
O375 O 0.8648 0.17571 0.58202 0.0
O376 O 0.93514 0.26424 0.53589 0.0
O377 O 0.76639 0.02189 0.76136 0.0
O378 O 0.78452 0.14405 0.84996 0.0
C379 C 0.90852 0.34681 0.66242 0.0
C380 C 0.99513 0.24921 0.7011 0.0
C381 C 0.72455 0.15196 0.67494 0.0
C382 C 0.81046 0.05639 0.72185 0.0
C383 C 0.82155 0.20142 0.84942 0.0
C384 C 0.89721 0.20744 0.5295 0.0
O385 O 0.89584 0.29011 0.66398 0.0
O386 O 0.95315 0.38215 0.62401 0.0
loop_
_geom_bond_atom_site_label_1
_geom_bond_atom_site_label_2
_geom_bond_distance
_geom_bond_site_symmetry_2
_ccdc_geom_bond_type
H0 C3 0.929 . S
H1 C6 0.929 . S
H2 C8 0.930 . S
C3 H0 0.929 . S
C3 C4 1.398 . S
C3 C5 1.396 . S
C4 C3 1.398 . S
C4 C8 1.407 . S
C5 C3 1.396 . S
C5 C6 1.394 . S
C6 H1 0.929 . S
C6 C5 1.394 . S
C6 C7 1.382 . S
C7 C6 1.382 . S
C7 C8 1.392 . S
C7 N9 1.420 . S
C8 H2 0.930 . S
C8 C4 1.407 . S
C8 C7 1.392 . S
N9 C7 1.420 . S
N9 C10 1.244 . S
C10 N9 1.244 . S
H11 C14 0.929 . S
H12 C17 0.929 . S
H13 C19 0.930 . S
C14 H11 0.929 . S
C14 C15 1.398 . S
C14 C16 1.396 . S
C15 C14 1.398 . S
C15 C19 1.407 . S
C16 C14 1.396 . S
C16 C17 1.394 . S
C17 H12 0.929 . S
C17 C16 1.394 . S
C17 C18 1.382 . S
C18 C17 1.382 . S
C18 C19 1.392 . S
C18 N20 1.420 . S
C19 H13 0.930 . S
C19 C15 1.407 . S
C19 C18 1.392 . S
N20 C18 1.420 . S
N20 C21 1.244 1_545 S
C21 N20 1.244 1_565 S
H22 C25 0.929 . S
H23 C28 0.929 . S
H24 C30 0.930 . S
C25 H22 0.929 . S
C25 C26 1.398 . S
C25 C27 1.396 . S
C26 C25 1.398 . S
C26 C30 1.407 . S
C27 C25 1.396 . S
C27 C28 1.394 . S
C28 H23 0.929 . S
C28 C27 1.394 . S
C28 C29 1.382 . S
C29 C28 1.382 . S
C29 C30 1.392 . S
C29 N31 1.420 . S
C30 H24 0.930 . S
C30 C26 1.407 . S
C30 C29 1.392 . S
N31 C29 1.420 . S
N31 C32 1.244 . S
C32 N31 1.244 . S
H33 C36 0.929 . S
H34 C39 0.929 . S
H35 C41 0.930 . S
C36 H33 0.929 . S
C36 C37 1.398 . S
C36 C38 1.396 . S
C37 C36 1.398 . S
C37 C41 1.407 . S
C38 C36 1.396 . S
C38 C39 1.394 . S
C39 H34 0.929 . S
C39 C38 1.394 . S
C39 C40 1.382 . S
C40 C39 1.382 . S
C40 C41 1.392 . S
C40 N42 1.420 . S
C41 H35 0.930 . S
C41 C37 1.407 . S
C41 C40 1.392 . S
N42 C40 1.420 . S
N42 C43 1.244 . S
C43 N42 1.244 . S
H44 C47 0.929 . S
H45 C50 0.929 . S
H46 C52 0.930 . S
C47 H44 0.929 . S
C47 C48 1.398 . S
C47 C49 1.396 . S
C48 C47 1.398 . S
C48 C52 1.407 . S
C49 C47 1.396 . S
C49 C50 1.394 . S
C50 H45 0.929 . S
C50 C49 1.394 . S
C50 C51 1.382 . S
C51 C50 1.382 . S
C51 C52 1.392 . S
C51 N53 1.420 . S
C52 H46 0.930 . S
C52 C48 1.407 . S
C52 C51 1.392 . S
N53 C51 1.420 . S
N53 C54 1.244 1_565 S
C54 N53 1.244 1_545 S
H55 C58 0.929 . S
H56 C61 0.929 . S
H57 C63 0.930 . S
C58 H55 0.929 . S
C58 C59 1.398 . S
C58 C60 1.396 . S
C59 C58 1.398 . S
C59 C63 1.407 . S
C60 C58 1.396 . S
C60 C61 1.394 . S
C61 H56 0.929 . S
C61 C60 1.394 . S
C61 C62 1.382 . S
C62 C61 1.382 . S
C62 C63 1.392 . S
C62 N64 1.420 . S
C63 H57 0.930 . S
C63 C59 1.407 . S
C63 C62 1.392 . S
N64 C62 1.420 . S
N64 C65 1.244 . S
C65 N64 1.244 . S
H66 C69 0.929 . S
H67 C72 0.929 . S
H68 C74 0.930 . S
C69 H66 0.929 . S
C69 C70 1.398 . S
C69 C71 1.396 . S
C70 C69 1.398 . S
C70 C74 1.407 . S
C71 C69 1.396 . S
C71 C72 1.394 . S
C72 H67 0.929 . S
C72 C71 1.394 . S
C72 C73 1.382 . S
C73 C72 1.382 . S
C73 C74 1.392 . S
C73 N75 1.420 . S
C74 H68 0.930 . S
C74 C70 1.407 . S
C74 C73 1.392 . S
N75 C73 1.420 . S
N75 C76 1.244 . S
C76 N75 1.244 . S
H77 C80 0.929 . S
H78 C83 0.929 . S
H79 C85 0.930 . S
C80 H77 0.929 . S
C80 C81 1.398 . S
C80 C82 1.396 . S
C81 C80 1.398 . S
C81 C85 1.407 . S
C82 C80 1.396 . S
C82 C83 1.394 . S
C83 H78 0.929 . S
C83 C82 1.394 . S
C83 C84 1.382 . S
C84 C83 1.382 . S
C84 C85 1.392 . S
C84 N86 1.420 . S
C85 H79 0.930 . S
C85 C81 1.407 . S
C85 C84 1.392 . S
N86 C84 1.420 . S
N86 C87 1.244 . S
C87 N86 1.244 . S
H88 C91 0.929 . S
H89 C94 0.929 . S
H90 C96 0.930 . S
C91 H88 0.929 . S
C91 C92 1.398 . S
C91 C93 1.396 . S
C92 C91 1.398 . S
C92 C96 1.407 . S
C93 C91 1.396 . S
C93 C94 1.394 . S
C94 H89 0.929 . S
C94 C93 1.394 . S
C94 C95 1.382 . S
C95 C94 1.382 . S
C95 C96 1.392 . S
C95 N97 1.420 . S
C96 H90 0.930 . S
C96 C92 1.407 . S
C96 C95 1.392 . S
N97 C95 1.420 . S
N97 C98 1.244 . S
C98 N97 1.244 . S
H99 C102 0.929 . S
H100 C105 0.929 . S
H101 C107 0.930 . S
C102 H99 0.929 . S
C102 C103 1.398 1_556 S
C102 C104 1.396 . S
C103 C102 1.398 1_554 S
C103 C107 1.407 . S
C104 C102 1.396 . S
C104 C105 1.394 . S
C105 H100 0.929 . S
C105 C104 1.394 . S
C105 C106 1.382 1_556 S
C106 C105 1.382 1_554 S
C106 C107 1.392 . S
C106 N108 1.420 . S
C107 H101 0.930 . S
C107 C103 1.407 . S
C107 C106 1.392 . S
N108 C106 1.420 . S
N108 C109 1.244 . S
C109 N108 1.244 . S
H110 C113 0.929 . S
H111 C116 0.929 . S
H112 C118 0.930 . S
C113 H110 0.929 . S
C113 C114 1.398 1_556 S
C113 C115 1.396 . S
C114 C113 1.398 1_554 S
C114 C118 1.407 . S
C115 C113 1.396 . S
C115 C116 1.394 . S
C116 H111 0.929 . S
C116 C115 1.394 . S
C116 C117 1.382 1_556 S
C117 C116 1.382 1_554 S
C117 C118 1.392 . S
C117 N119 1.420 . S
C118 H112 0.930 . S
C118 C114 1.407 . S
C118 C117 1.392 . S
N119 C117 1.420 . S
N119 C120 1.244 . S
C120 N119 1.244 . S
H121 C124 0.929 . S
H122 C127 0.929 . S
H123 C129 0.930 . S
C124 H121 0.929 . S
C124 C125 1.398 1_556 S
C124 C126 1.396 . S
C125 C124 1.398 1_554 S
C125 C129 1.407 . S
C126 C124 1.396 . S
C126 C127 1.394 . S
C127 H122 0.929 . S
C127 C126 1.394 . S
C127 C128 1.382 1_556 S
C128 C127 1.382 1_554 S
C128 C129 1.392 . S
C128 N130 1.420 . S
C129 H123 0.930 . S
C129 C125 1.407 . S
C129 C128 1.392 . S
N130 C128 1.420 . S
N130 C131 1.244 . S
C131 N130 1.244 . S
H132 C135 0.929 . S
H133 C138 0.929 . S
H134 C140 0.930 . S
C135 H132 0.929 . S
C135 C136 1.398 . S
C135 C137 1.396 . S
C136 C135 1.398 . S
C136 C140 1.407 1_554 S
C137 C135 1.396 . S
C137 C138 1.394 . S
C138 H133 0.929 . S
C138 C137 1.394 . S
C138 C139 1.382 . S
C139 C138 1.382 . S
C139 C140 1.392 1_554 S
C139 N141 1.420 1_554 S
C140 H134 0.930 . S
C140 C136 1.407 1_556 S
C140 C139 1.392 1_556 S
N141 C139 1.420 1_556 S
N141 C142 1.251 . S
C142 N141 1.251 . S
H143 C146 0.929 . S
H144 C149 0.929 . S
H145 C151 0.930 . S
C146 H143 0.929 . S
C146 C147 1.398 . S
C146 C148 1.396 . S
C147 C146 1.398 . S
C147 C151 1.407 1_554 S
C148 C146 1.396 . S
C148 C149 1.394 . S
C149 H144 0.929 . S
C149 C148 1.394 . S
C149 C150 1.382 1_554 S
C150 C149 1.382 1_556 S
C150 C151 1.392 . S
C150 N152 1.420 . S
C151 H145 0.930 . S
C151 C147 1.407 1_556 S
C151 C150 1.392 . S
N152 C150 1.420 . S
N152 C153 1.244 . S
C153 N152 1.244 . S
H154 C157 0.929 . S
H155 C160 0.929 . S
H156 C162 0.930 . S
C157 H154 0.929 . S
C157 C158 1.398 . S
C157 C159 1.396 . S
C158 C157 1.398 . S
C158 C162 1.407 1_554 S
C159 C157 1.396 . S
C159 C160 1.394 . S
C160 H155 0.929 . S
C160 C159 1.394 . S
C160 C161 1.382 . S
C161 C160 1.382 . S
C161 C162 1.392 1_554 S
C161 N163 1.420 1_554 S
C162 H156 0.930 . S
C162 C158 1.407 1_556 S
C162 C161 1.392 1_556 S
N163 C161 1.420 1_556 S
N163 C164 1.241 1_556 S
C164 N163 1.241 1_554 S
H165 C168 0.929 . S
H166 C171 0.929 . S
H167 C173 0.930 . S
C168 H165 0.929 . S
C168 C169 1.398 . S
C168 C170 1.396 . S
C169 C168 1.398 . S
C169 C173 1.407 . S
C170 C168 1.396 . S
C170 C171 1.394 . S
C171 H166 0.929 . S
C171 C170 1.394 . S
C171 C172 1.382 . S
C172 C171 1.382 . S
C172 C173 1.392 . S
C172 N174 1.420 . S
C173 H167 0.930 . S
C173 C169 1.407 . S
C173 C172 1.392 . S
N174 C172 1.420 . S
N174 C175 1.244 . S
C175 N174 1.244 . S
H176 C179 0.929 . S
H177 C182 0.929 . S
H178 C184 0.930 . S
C179 H176 0.929 . S
C179 C180 1.398 . S
C179 C181 1.396 . S
C180 C179 1.398 . S
C180 C184 1.407 . S
C181 C179 1.396 . S
C181 C182 1.394 . S
C182 H177 0.929 . S
C182 C181 1.394 . S
C182 C183 1.382 . S
C183 C182 1.382 . S
C183 C184 1.392 . S
C183 N185 1.420 . S
C184 H178 0.930 . S
C184 C180 1.407 . S
C184 C183 1.392 . S
N185 C183 1.420 . S
N185 C186 1.244 . S
C186 N185 1.244 . S
H187 C190 0.929 . S
H188 C193 0.929 . S
H189 C195 0.930 . S
C190 H187 0.929 . S
C190 C191 1.398 . S
C190 C192 1.396 . S
C191 C190 1.398 . S
C191 C195 1.407 . S
C192 C190 1.396 . S
C192 C193 1.394 . S
C193 H188 0.929 . S
C193 C192 1.394 . S
C193 C194 1.382 . S
C194 C193 1.382 . S
C194 C195 1.392 . S
C194 N196 1.420 . S
C195 H189 0.930 . S
C195 C191 1.407 . S
C195 C194 1.392 . S
N196 C194 1.420 . S
N196 C197 1.244 . S
C197 N196 1.244 . S
O198 Mn199 2.163 1_565 S
O198 C212 1.244 . S
Mn199 O198 2.163 1_545 S
Mn199 O202 2.160 . S
Mn199 O203 2.221 1_545 S
Mn199 O205 2.163 1_554 S
Mn199 O207 2.160 1_545 S
Mn199 O217 2.221 . S
O200 Mn201 2.087 1_565 S
O200 C212 1.256 . S
Mn201 O200 2.087 1_545 S
Mn201 O208 2.089 1_545 S
Mn201 O217 2.290 . S
Mn201 O218 2.251 . S
O202 Mn199 2.160 . S
O202 C213 1.239 . S
O203 Mn199 2.221 1_565 S
O203 Mn204 2.290 1_554 S
O203 C214 1.278 1_554 S
Mn204 O203 2.290 1_556 S
Mn204 O206 2.089 1_565 S
Mn204 O209 2.251 . S
Mn204 O210 2.087 1_565 S
O205 Mn199 2.163 1_556 S
O205 C215 1.244 . S
O206 Mn204 2.089 1_545 S
O206 C213 1.256 1_556 S
O207 Mn199 2.160 1_565 S
O207 C216 1.239 . S
O208 Mn201 2.089 1_565 S
O208 C216 1.256 . S
O209 Mn204 2.251 . S
O209 C214 1.241 . S
O210 Mn204 2.087 1_545 S
O210 C215 1.256 . S
C211 O217 1.278 . S
C211 O218 1.241 . S
C212 O198 1.244 . S
C212 O200 1.256 . S
C213 O202 1.239 . S
C213 O206 1.256 1_554 S
C214 O203 1.278 1_556 S
C214 O209 1.241 . S
C215 O205 1.244 . S
C215 O210 1.256 . S
C216 O207 1.239 . S
C216 O208 1.256 . S
O217 Mn199 2.221 . S
O217 Mn201 2.290 . S
O217 C211 1.278 . S
O218 Mn201 2.251 . S
O218 C211 1.241 . S
O219 Mn220 2.160 . S
O219 C233 1.244 . S
Mn220 O219 2.160 . S
Mn220 O223 2.162 1_455 S
Mn220 O224 2.221 . S
Mn220 O226 2.163 1_454 S
Mn220 O228 2.159 . S
Mn220 O238 2.222 1_455 S
O221 Mn222 2.087 1_455 S
O221 C233 1.256 . S
Mn222 O221 2.087 1_655 S
Mn222 O229 2.089 1_655 S
Mn222 O238 2.290 . S
Mn222 O239 2.251 . S
O223 Mn220 2.162 1_655 S
O223 C234 1.239 . S
O224 Mn220 2.221 . S
O224 Mn225 2.290 1_554 S
O224 C235 1.278 1_554 S
Mn225 O224 2.290 1_556 S
Mn225 O227 2.089 1_455 S
Mn225 O230 2.251 . S
Mn225 O231 2.087 1_455 S
O226 Mn220 2.163 1_656 S
O226 C236 1.244 . S
O227 Mn225 2.089 1_655 S
O227 C234 1.256 1_556 S
O228 Mn220 2.159 . S
O228 C237 1.239 . S
O229 Mn222 2.089 1_455 S
O229 C237 1.256 . S
O230 Mn225 2.251 . S
O230 C235 1.241 . S
O231 Mn225 2.087 1_655 S
O231 C236 1.256 . S
C232 O238 1.278 . S
C232 O239 1.241 . S
C233 O219 1.244 . S
C233 O221 1.256 . S
C234 O223 1.239 . S
C234 O227 1.256 1_554 S
C235 O224 1.278 1_556 S
C235 O230 1.241 . S
C236 O226 1.244 . S
C236 O231 1.256 . S
C237 O228 1.239 . S
C237 O229 1.256 . S
O238 Mn220 2.222 1_655 S
O238 Mn222 2.290 . S
O238 C232 1.278 . S
O239 Mn222 2.251 . S
O239 C232 1.241 . S
O240 Mn241 2.163 . S
O240 C254 1.244 . S
Mn241 O240 2.163 . S
Mn241 O244 2.160 1_554 S
Mn241 O245 2.221 . S
Mn241 O247 2.163 . S
Mn241 O249 2.160 1_554 S
Mn241 O259 2.221 1_554 S
O242 Mn243 2.087 . S
O242 C254 1.256 1_556 S
Mn243 O242 2.087 . S
Mn243 O250 2.089 . S
Mn243 O259 2.290 . S
Mn243 O260 2.251 . S
O244 Mn241 2.160 1_556 S
O244 C255 1.239 1_556 S
O245 Mn241 2.221 . S
O245 Mn246 2.290 . S
O245 C256 1.278 . S
Mn246 O245 2.290 . S
Mn246 O248 2.089 . S
Mn246 O251 2.251 . S
Mn246 O252 2.087 . S
O247 Mn241 2.163 . S
O247 C257 1.244 . S
O248 Mn246 2.089 . S
O248 C255 1.256 . S
O249 Mn241 2.160 1_556 S
O249 C258 1.239 . S
O250 Mn243 2.089 . S
O250 C258 1.256 . S
O251 Mn246 2.251 . S
O251 C256 1.241 . S
O252 Mn246 2.087 . S
O252 C257 1.256 . S
C253 O259 1.278 1_554 S
C253 O260 1.241 1_554 S
C254 O240 1.244 . S
C254 O242 1.256 1_554 S
C255 O244 1.239 1_554 S
C255 O248 1.256 . S
C256 O245 1.278 . S
C256 O251 1.241 . S
C257 O247 1.244 . S
C257 O252 1.256 . S
C258 O249 1.239 . S
C258 O250 1.256 . S
O259 Mn241 2.221 1_556 S
O259 Mn243 2.290 . S
O259 C253 1.278 1_556 S
O260 Mn243 2.251 . S
O260 C253 1.241 1_556 S
O261 Mn262 2.163 . S
O261 C275 1.244 . S
Mn262 O261 2.163 . S
Mn262 O265 2.160 . S
Mn262 O266 2.221 . S
Mn262 O268 2.163 . S
Mn262 O270 2.160 . S
Mn262 O280 2.221 . S
O263 Mn264 2.087 1_655 S
O263 C275 1.256 1_655 S
Mn264 O263 2.087 1_455 S
Mn264 O271 2.089 . S
Mn264 O280 2.290 . S
Mn264 O281 2.251 . S
O265 Mn262 2.160 . S
O265 C276 1.239 . S
O266 Mn262 2.221 . S
O266 Mn267 2.290 . S
O266 C277 1.278 . S
Mn267 O266 2.290 . S
Mn267 O269 2.089 . S
Mn267 O272 2.251 . S
Mn267 O273 2.087 . S
O268 Mn262 2.163 . S
O268 C278 1.244 . S
O269 Mn267 2.089 . S
O269 C276 1.256 . S
O270 Mn262 2.160 . S
O270 C279 1.239 . S
O271 Mn264 2.089 . S
O271 C279 1.256 . S
O272 Mn267 2.251 . S
O272 C277 1.241 . S
O273 Mn267 2.087 . S
O273 C278 1.256 . S
C274 O280 1.278 . S
C274 O281 1.241 . S
C275 O261 1.244 . S
C275 O263 1.256 1_455 S
C276 O265 1.239 . S
C276 O269 1.256 . S
C277 O266 1.278 . S
C277 O272 1.241 . S
C278 O268 1.244 . S
C278 O273 1.256 . S
C279 O270 1.239 . S
C279 O271 1.256 . S
O280 Mn262 2.221 . S
O280 Mn264 2.290 . S
O280 C274 1.278 . S
O281 Mn264 2.251 . S
O281 C274 1.241 . S
O282 Mn283 2.163 . S
O282 C296 1.244 . S
Mn283 O282 2.163 . S
Mn283 O286 2.160 . S
Mn283 O287 2.221 . S
Mn283 O289 2.163 . S
Mn283 O291 2.160 . S
Mn283 O301 2.221 . S
O284 Mn285 2.087 . S
O284 C296 1.256 . S
Mn285 O284 2.087 . S
Mn285 O292 2.089 . S
Mn285 O301 2.290 . S
Mn285 O302 2.251 . S
O286 Mn283 2.160 . S
O286 C297 1.239 . S
O287 Mn283 2.221 . S
O287 Mn288 2.290 . S
O287 C298 1.278 . S
Mn288 O287 2.290 . S
Mn288 O290 2.089 . S
Mn288 O293 2.251 . S
Mn288 O294 2.087 . S
O289 Mn283 2.163 . S
O289 C299 1.244 . S
O290 Mn288 2.089 . S
O290 C297 1.256 . S
O291 Mn283 2.160 . S
O291 C300 1.239 . S
O292 Mn285 2.089 . S
O292 C300 1.256 . S
O293 Mn288 2.251 . S
O293 C298 1.241 . S
O294 Mn288 2.087 . S
O294 C299 1.256 . S
C295 O301 1.278 . S
C295 O302 1.241 . S
C296 O282 1.244 . S
C296 O284 1.256 . S
C297 O286 1.239 . S
C297 O290 1.256 . S
C298 O287 1.278 . S
C298 O293 1.241 . S
C299 O289 1.244 . S
C299 O294 1.256 . S
C300 O291 1.239 . S
C300 O292 1.256 . S
O301 Mn283 2.221 . S
O301 Mn285 2.290 . S
O301 C295 1.278 . S
O302 Mn285 2.251 . S
O302 C295 1.241 . S
O303 Mn304 2.163 . S
O303 C317 1.244 . S
Mn304 O303 2.163 . S
Mn304 O307 2.160 . S
Mn304 O308 2.221 . S
Mn304 O310 2.163 . S
Mn304 O312 2.160 . S
Mn304 O322 2.221 . S
O305 Mn306 2.087 . S
O305 C317 1.256 . S
Mn306 O305 2.087 . S
Mn306 O313 2.089 . S
Mn306 O322 2.290 . S
Mn306 O323 2.251 1_565 S
O307 Mn304 2.160 . S
O307 C318 1.239 . S
O308 Mn304 2.221 . S
O308 Mn309 2.290 . S
O308 C319 1.278 . S
Mn309 O308 2.290 . S
Mn309 O311 2.089 . S
Mn309 O314 2.251 . S
Mn309 O315 2.087 . S
O310 Mn304 2.163 . S
O310 C320 1.244 . S
O311 Mn309 2.089 . S
O311 C318 1.256 . S
O312 Mn304 2.160 . S
O312 C321 1.239 . S
O313 Mn306 2.089 . S
O313 C321 1.256 . S
O314 Mn309 2.251 . S
O314 C319 1.241 . S
O315 Mn309 2.087 . S
O315 C320 1.256 . S
C316 O322 1.278 1_545 S
C316 O323 1.241 . S
C317 O303 1.244 . S
C317 O305 1.256 . S
C318 O307 1.239 . S
C318 O311 1.256 . S
C319 O308 1.278 . S
C319 O314 1.241 . S
C320 O310 1.244 . S
C320 O315 1.256 . S
C321 O312 1.239 . S
C321 O313 1.256 . S
O322 Mn304 2.221 . S
O322 Mn306 2.290 . S
O322 C316 1.278 1_565 S
O323 Mn306 2.251 1_545 S
O323 C316 1.241 . S
O324 Mn325 2.163 . S
O324 C338 1.244 . S
Mn325 O324 2.163 . S
Mn325 O328 2.160 . S
Mn325 O329 2.221 . S
Mn325 O331 2.163 . S
Mn325 O333 2.160 . S
Mn325 O343 2.221 . S
O326 Mn327 2.087 . S
O326 C338 1.256 . S
Mn327 O326 2.087 . S
Mn327 O334 2.089 . S
Mn327 O343 2.290 . S
Mn327 O344 2.251 . S
O328 Mn325 2.160 . S
O328 C339 1.239 . S
O329 Mn325 2.221 . S
O329 Mn330 2.290 . S
O329 C340 1.278 . S
Mn330 O329 2.290 . S
Mn330 O332 2.089 . S
Mn330 O335 2.251 . S
Mn330 O336 2.087 . S
O331 Mn325 2.163 . S
O331 C341 1.244 . S
O332 Mn330 2.089 . S
O332 C339 1.256 . S
O333 Mn325 2.160 . S
O333 C342 1.239 . S
O334 Mn327 2.089 . S
O334 C342 1.256 . S
O335 Mn330 2.251 . S
O335 C340 1.241 . S
O336 Mn330 2.087 . S
O336 C341 1.256 . S
C337 O343 1.278 . S
C337 O344 1.241 . S
C338 O324 1.244 . S
C338 O326 1.256 . S
C339 O328 1.239 . S
C339 O332 1.256 . S
C340 O329 1.278 . S
C340 O335 1.241 . S
C341 O331 1.244 . S
C341 O336 1.256 . S
C342 O333 1.239 . S
C342 O334 1.256 . S
O343 Mn325 2.221 . S
O343 Mn327 2.290 . S
O343 C337 1.278 . S
O344 Mn327 2.251 . S
O344 C337 1.241 . S
O345 Mn346 2.163 . S
O345 C359 1.244 . S
Mn346 O345 2.163 . S
Mn346 O349 2.160 . S
Mn346 O350 2.221 . S
Mn346 O352 2.163 . S
Mn346 O354 2.160 . S
Mn346 O364 2.221 . S
O347 Mn348 2.087 . S
O347 C359 1.256 . S
Mn348 O347 2.087 . S
Mn348 O355 2.089 . S
Mn348 O364 2.290 . S
Mn348 O365 2.251 1_545 S
O349 Mn346 2.160 . S
O349 C360 1.239 . S
O350 Mn346 2.221 . S
O350 Mn351 2.290 . S
O350 C361 1.278 . S
Mn351 O350 2.290 . S
Mn351 O353 2.089 . S
Mn351 O356 2.251 . S
Mn351 O357 2.087 . S
O352 Mn346 2.163 . S
O352 C362 1.244 . S
O353 Mn351 2.089 . S
O353 C360 1.256 . S
O354 Mn346 2.160 . S
O354 C363 1.239 . S
O355 Mn348 2.089 . S
O355 C363 1.256 . S
O356 Mn351 2.251 . S
O356 C361 1.241 . S
O357 Mn351 2.087 . S
O357 C362 1.256 . S
C358 O364 1.278 1_565 S
C358 O365 1.241 . S
C359 O345 1.244 . S
C359 O347 1.256 . S
C360 O349 1.239 . S
C360 O353 1.256 . S
C361 O350 1.278 . S
C361 O356 1.241 . S
C362 O352 1.244 . S
C362 O357 1.256 . S
C363 O354 1.239 . S
C363 O355 1.256 . S
O364 Mn346 2.221 . S
O364 Mn348 2.290 . S
O364 C358 1.278 1_545 S
O365 Mn348 2.251 1_565 S
O365 C358 1.241 . S
O366 Mn367 2.163 . S
O366 C380 1.244 . S
Mn367 O366 2.163 . S
Mn367 O370 2.160 . S
Mn367 O371 2.221 . S
Mn367 O373 2.163 . S
Mn367 O375 2.160 . S
Mn367 O385 2.221 . S
O368 Mn369 2.087 1_455 S
O368 C380 1.256 1_455 S
Mn369 O368 2.087 1_655 S
Mn369 O376 2.089 . S
Mn369 O385 2.290 . S
Mn369 O386 2.251 . S
O370 Mn367 2.160 . S
O370 C381 1.239 . S
O371 Mn367 2.221 . S
O371 Mn372 2.290 . S
O371 C382 1.278 . S
Mn372 O371 2.290 . S
Mn372 O374 2.089 . S
Mn372 O377 2.251 . S
Mn372 O378 2.087 . S
O373 Mn367 2.163 . S
O373 C383 1.244 . S
O374 Mn372 2.089 . S
O374 C381 1.256 . S
O375 Mn367 2.160 . S
O375 C384 1.239 . S
O376 Mn369 2.089 . S
O376 C384 1.256 . S
O377 Mn372 2.251 . S
O377 C382 1.241 . S
O378 Mn372 2.087 . S
O378 C383 1.256 . S
C379 O385 1.278 . S
C379 O386 1.241 . S
C380 O366 1.244 . S
C380 O368 1.256 1_655 S
C381 O370 1.239 . S
C381 O374 1.256 . S
C382 O371 1.278 . S
C382 O377 1.241 . S
C383 O373 1.244 . S
C383 O378 1.256 . S
C384 O375 1.239 . S
C384 O376 1.256 . S
O385 Mn367 2.221 . S
O385 Mn369 2.290 . S
O385 C379 1.278 . S
O386 Mn369 2.251 . S
O386 C379 1.241 . S
C147 C212 1.434 . S
C158 C233 1.360 . S
C136 C253 1.213 . S
C125 C232 1.144 . S
C254 C103 1.408 . S
C114 C211 1.204 . S
C213 C131 1.453 . S
C234 C109 1.478 . S
C120 C256 1.199 . S
C153 C235 1.174 . S
C164 C255 1.436 . S
C214 C142 1.268 . S
C275 C15 1.434 1_455 S
C26 C296 1.360 . S
C4 C316 1.213 . S
C191 C295 1.144 . S
C169 C317 1.408 . S
C180 C274 1.204 . S
C197 C276 1.453 . S
C175 C297 1.478 . S
C319 C186 1.199 . S
C21 C298 1.173 . S
C318 C32 1.434 1_455 S
C10 C277 1.264 . S
C338 C81 1.434 . S
C92 C359 1.360 . S
C379 C70 1.213 . S
C358 C59 1.145 . S
C380 C37 1.408 1_655 S
C48 C337 1.204 . S
C65 C339 1.453 1_455 S
C43 C360 1.477 . S
C382 C54 1.199 . S
C87 C361 1.173 . S
C98 C381 1.434 . S
C76 C340 1.263 . S
C170 C216 1.487 . S
C237 C181 1.536 . S
C192 C257 1.551 . S
C71 C236 1.626 . S
C82 C258 1.585 . S
C215 C93 1.608 . S
C38 C279 1.487 . S
C49 C300 1.536 . S
C60 C320 1.551 . S
C137 C299 1.626 . S
C321 C148 1.585 . S
C159 C278 1.608 . S
C104 C342 1.487 . S
C115 C363 1.536 . S
C383 C126 1.551 . S
C5 C362 1.625 . S
C16 C384 1.585 . S
C27 C341 1.608 . S
