# Generated by pormake.
# Topology anh, (6,3)-cn, num edge types: 1
# Building blocks:
#     Node 0, Type 0, BuildingBlock: VOLQOD_clean_sbu_1, # of connection points: 6
#     Node 1, Type 0, BuildingBlock: VOLQOD_clean_sbu_1, # of connection points: 6
#     Node 2, Type 0, BuildingBlock: VOLQOD_clean_sbu_1, # of connection points: 6
#     Node 3, Type 1, BuildingBlock: QEWDON_clean_linker_0, # of connection points: 3
#     Node 4, Type 1, BuildingBlock: QEWDON_clean_linker_0, # of connection points: 3
#     Node 5, Type 1, BuildingBlock: QEWDON_clean_linker_0, # of connection points: 3
#     Node 6, Type 1, BuildingBlock: QEWDON_clean_linker_0, # of connection points: 3
#     Node 7, Type 1, BuildingBlock: QEWDON_clean_linker_0, # of connection points: 3
#     Node 8, Type 1, BuildingBlock: QEWDON_clean_linker_0, # of connection points: 3
#     Edge 9, Type (0, 1), BuildingBlock: KIFKEQ_clean_linker_1, # of connection points: 2
#     Edge 10, Type (0, 1), BuildingBlock: KIFKEQ_clean_linker_1, # of connection points: 2
#     Edge 11, Type (0, 1), BuildingBlock: KIFKEQ_clean_linker_1, # of connection points: 2
#     Edge 12, Type (0, 1), BuildingBlock: KIFKEQ_clean_linker_1, # of connection points: 2
#     Edge 13, Type (0, 1), BuildingBlock: KIFKEQ_clean_linker_1, # of connection points: 2
#     Edge 14, Type (0, 1), BuildingBlock: KIFKEQ_clean_linker_1, # of connection points: 2
#     Edge 15, Type (0, 1), BuildingBlock: KIFKEQ_clean_linker_1, # of connection points: 2
#     Edge 16, Type (0, 1), BuildingBlock: KIFKEQ_clean_linker_1, # of connection points: 2
#     Edge 17, Type (0, 1), BuildingBlock: KIFKEQ_clean_linker_1, # of connection points: 2
#     Edge 18, Type (0, 1), BuildingBlock: KIFKEQ_clean_linker_1, # of connection points: 2
#     Edge 19, Type (0, 1), BuildingBlock: KIFKEQ_clean_linker_1, # of connection points: 2
#     Edge 20, Type (0, 1), BuildingBlock: KIFKEQ_clean_linker_1, # of connection points: 2
#     Edge 21, Type (0, 1), BuildingBlock: KIFKEQ_clean_linker_1, # of connection points: 2
#     Edge 22, Type (0, 1), BuildingBlock: KIFKEQ_clean_linker_1, # of connection points: 2
#     Edge 23, Type (0, 1), BuildingBlock: KIFKEQ_clean_linker_1, # of connection points: 2
#     Edge 24, Type (0, 1), BuildingBlock: KIFKEQ_clean_linker_1, # of connection points: 2
#     Edge 25, Type (0, 1), BuildingBlock: KIFKEQ_clean_linker_1, # of connection points: 2
#     Edge 26, Type (0, 1), BuildingBlock: KIFKEQ_clean_linker_1, # of connection points: 2
# Relax obj value: 0.173
# Max RMSD: 0.224
# Mean RMSD: 0.178
data_MOF--net-anh--node1-VOLQOD_clean_sbu_1--node2-QEWDON_clean_linker_0--edge1-KIFKEQ_clean_linker_1
_symmetry_space_group_name_H-M    P1
_symmetry_Int_Tables_number       1
_symmetry_cell_setting            triclinic
loop_
_symmetry_equiv_pos_as_xyz
'x, y, z'
_cell_length_a     31.688685
_cell_length_b     31.48104
_cell_length_c     56.812093
_cell_angle_alpha  94.318964
_cell_angle_beta   94.108985
_cell_angle_gamma 120.45209
loop_
_atom_site_label
_atom_site_type_symbol
_atom_site_fract_x
_atom_site_fract_y
_atom_site_fract_z
_atom_type_partial_charge
O0 O 0.02531 0.55132 0.21309 0.0
Zn1 Zn 0.03258 0.56974 0.18008 0.0
O2 O 0.03674 0.52037 0.15911 0.0
Zn3 Zn 0.9795 0.48633 0.13506 0.0
Zn4 Zn 0.04171 0.47308 0.17838 0.0
Zn5 Zn 0.09331 0.55359 0.14216 0.0
O6 O -0.00402 0.49132 0.10129 0.0
O7 O 0.07546 0.54917 0.10702 0.0
O8 O 0.97512 0.57713 0.16856 0.0
O9 O 0.93894 0.51809 0.13755 0.0
O10 O 0.93673 0.41581 0.14081 0.0
O11 O 0.97797 0.40597 0.17117 0.0
O12 O 0.10159 0.46734 0.17189 0.0
O13 O 0.09582 0.63608 0.18319 0.0
O14 O 0.13273 0.52142 0.14583 0.0
O15 O 0.13731 0.62523 0.15582 0.0
C16 C 0.03497 0.52327 0.22443 0.0
C17 C 0.03566 0.52086 0.09316 0.0
C18 C 0.93976 0.38919 0.1559 0.0
C19 C 0.94099 0.55322 0.15117 0.0
C20 C 0.13351 0.48922 0.15779 0.0
C21 C 0.13381 0.65251 0.17232 0.0
O22 O 0.04642 0.49402 0.21381 0.0
O23 O 0.562 0.0821 0.45505 0.0
Zn24 Zn 0.54664 0.07375 0.48851 0.0
O25 O 0.59622 0.06729 0.50761 0.0
Zn26 Zn 0.63354 0.12476 0.53172 0.0
Zn27 Zn 0.63946 0.06029 0.48642 0.0
Zn28 Zn 0.56394 0.0098 0.52436 0.0
O29 O 0.62921 0.10719 0.56531 0.0
O30 O 0.57052 0.02754 0.55963 0.0
O31 O 0.54239 0.13259 0.50179 0.0
O32 O 0.6051 0.16878 0.5309 0.0
O33 O 0.70371 0.16459 0.52513 0.0
O34 O 0.70828 0.12107 0.49374 0.0
O35 O 0.6413 0.99721 0.49039 0.0
O36 O 0.48019 0.011 0.48598 0.0
O37 O 0.5943 0.96851 0.5194 0.0
O38 O 0.49206 0.96693 0.51158 0.0
C39 C 0.58855 0.07253 0.44247 0.0
C40 C 0.59979 0.06734 0.57347 0.0
C41 C 0.728 0.15933 0.50939 0.0
C42 C 0.56908 0.16739 0.51868 0.0
C43 C 0.62259 0.96618 0.50526 0.0
C44 C 0.46421 0.97197 0.49619 0.0
O45 O 0.61753 0.05959 0.45171 0.0
O46 O 0.4849 0.53248 0.78027 0.0
Zn47 Zn 0.47119 0.51147 0.81279 0.0
O48 O 0.52729 0.55714 0.83666 0.0
Zn49 Zn 0.5081 0.59102 0.85934 0.0
Zn50 Zn 0.5812 0.60589 0.82062 0.0
Zn51 Zn 0.54832 0.5201 0.85496 0.0
O52 O 0.52076 0.58292 0.89342 0.0
O53 O 0.53778 0.52285 0.88953 0.0
O54 O 0.40775 0.50839 0.82015 0.0
O55 O 0.43608 0.56295 0.85291 0.0
O56 O 0.54012 0.663 0.85556 0.0
O57 O 0.58915 0.67391 0.8277 0.0
O58 O 0.64589 0.61016 0.83188 0.0
O59 O 0.46275 0.44304 0.81026 0.0
O60 O 0.62068 0.5507 0.85543 0.0
O61 O 0.51591 0.44931 0.84006 0.0
C62 C 0.52409 0.56084 0.77143 0.0
C63 C 0.5296 0.55206 0.90247 0.0
C64 C 0.57044 0.69069 0.84214 0.0
C65 C 0.40074 0.53157 0.83737 0.0
C66 C 0.65487 0.58534 0.84608 0.0
C67 C 0.48321 0.42419 0.82226 0.0
O68 O 0.56516 0.5885 0.78464 0.0
H69 H 0.56216 0.10696 0.25554 0.0
C70 C 0.53054 0.07054 0.249 0.0
C71 C 0.50656 0.03648 0.2651 0.0
C72 C 0.51145 0.05879 0.22471 0.0
H73 H 0.44517 0.96383 0.26878 0.0
C74 C 0.46406 0.99033 0.25657 0.0
C75 C 0.44572 0.9779 0.23236 0.0
C76 C 0.4698 0.01188 0.21652 0.0
C77 C 0.53132 0.09643 0.20802 0.0
H78 H 0.45487 0.00243 0.19784 0.0
C79 C 0.58217 0.12437 0.20615 0.0
C80 C 0.59968 0.15837 0.18935 0.0
C81 C 0.49835 0.10357 0.19336 0.0
H82 H 0.45914 0.08312 0.1947 0.0
C83 C 0.51544 0.13706 0.17679 0.0
H84 H 0.60778 0.11933 0.21754 0.0
C85 C 0.56557 0.16398 0.17463 0.0
H86 H 0.5775 0.18881 0.16115 0.0
H87 H 0.48966 0.1419 0.16544 0.0
H88 H 0.50027 0.56384 0.5812 0.0
C89 C 0.50531 0.533 0.57605 0.0
C90 C 0.51267 0.5073 0.59358 0.0
C91 C 0.50171 0.51704 0.55178 0.0
H92 H 0.52631 0.44862 0.60021 0.0
C93 C 0.5187 0.4671 0.58664 0.0
C94 C 0.51551 0.45092 0.56252 0.0
C95 C 0.50668 0.47602 0.54526 0.0
C96 C 0.49156 0.54177 0.53284 0.0
H97 H 0.50327 0.46346 0.52656 0.0
C98 C 0.5203 0.59357 0.53303 0.0
C99 C 0.51376 0.61589 0.51363 0.0
C100 C 0.45494 0.51285 0.51349 0.0
H101 H 0.43198 0.47295 0.51303 0.0
C102 C 0.44786 0.535 0.49446 0.0
H103 H 0.54894 0.61616 0.54773 0.0
C104 C 0.47733 0.58615 0.49438 0.0
H105 H 0.47123 0.60263 0.47942 0.0
H106 H 0.41965 0.51239 0.47964 0.0
H107 H 0.1002 0.61932 0.91811 0.0
C108 C 0.06787 0.62103 0.91216 0.0
C109 C 0.02888 0.60492 0.92604 0.0
C110 C 0.0653 0.63939 0.89064 0.0
H111 H 0.95674 0.59411 0.92873 0.0
C112 C 0.98707 0.60703 0.91813 0.0
C113 C 0.98429 0.62592 0.89679 0.0
C114 C 0.02372 0.64218 0.88321 0.0
C115 C 0.10573 0.65513 0.87569 0.0
H116 H 0.02203 0.65682 0.86673 0.0
C117 C 0.12347 0.62349 0.86961 0.0
C118 C 0.16223 0.63809 0.85555 0.0
C119 C 0.12625 0.70142 0.86719 0.0
H120 H 0.1131 0.7264 0.87166 0.0
C121 C 0.16453 0.71618 0.85317 0.0
H122 H 0.10632 0.58716 0.87558 0.0
C123 C 0.18267 0.68501 0.84748 0.0
H124 H 0.21342 0.69827 0.83719 0.0
H125 H 0.18062 0.75218 0.84692 0.0
H126 H 0.01498 0.53833 0.41299 0.0
C127 C 0.05041 0.57141 0.41932 0.0
C128 C 0.08222 0.59822 0.40292 0.0
C129 C 0.0631 0.58918 0.44378 0.0
H130 H 0.15218 0.66305 0.39896 0.0
C131 C 0.12719 0.6422 0.41135 0.0
C132 C 0.14061 0.65923 0.43572 0.0
C133 C 0.10868 0.6325 0.4518 0.0
C134 C 0.02812 0.56534 0.46117 0.0
H135 H 0.11886 0.64625 0.47065 0.0
C136 C 0.0064 0.51427 0.46297 0.0
C137 C 0.97729 0.49379 0.48126 0.0
C138 C 0.01861 0.59498 0.47712 0.0
H139 H 0.03443 0.63425 0.47589 0.0
C140 C 0.98895 0.57446 0.49489 0.0
H141 H 0.01369 0.49111 0.45087 0.0
C142 C 0.96873 0.52427 0.49712 0.0
H143 H 0.94592 0.50906 0.51113 0.0
H144 H 0.98194 0.59761 0.5071 0.0
H145 H 0.51091 0.00762 0.75097 0.0
C146 C 0.50722 0.03934 0.75608 0.0
C147 C 0.51879 0.07557 0.74069 0.0
C148 C 0.49084 0.04405 0.77795 0.0
H149 H 0.51948 0.14238 0.7344 0.0
C150 C 0.51249 0.11584 0.74688 0.0
C151 C 0.49572 0.12097 0.76855 0.0
C152 C 0.4862 0.08544 0.78414 0.0
C153 C 0.47808 0.00607 0.7945 0.0
H154 H 0.47577 0.09033 0.80142 0.0
C155 C 0.50729 0.98474 0.79864 0.0
C156 C 0.49649 0.95135 0.81553 0.0
C157 C 0.43702 0.99212 0.80694 0.0
H158 H 0.4131 0.00687 0.80377 0.0
C159 C 0.42621 0.95886 0.8236 0.0
H160 H 0.53916 0.99508 0.78933 0.0
C161 C 0.45592 0.93883 0.82804 0.0
H162 H 0.44666 0.91275 0.84093 0.0
H163 H 0.39463 0.94853 0.8331 0.0
H164 H 0.52827 0.5896 0.09222 0.0
C165 C 0.56191 0.59002 0.09788 0.0
C166 C 0.5863 0.57913 0.08091 0.0
C167 C 0.58119 0.60204 0.1221 0.0
H168 H 0.64832 0.571 0.07521 0.0
C169 C 0.62986 0.5799 0.08835 0.0
C170 C 0.65012 0.59279 0.11243 0.0
C171 C 0.62547 0.60386 0.12919 0.0
C172 C 0.5556 0.61351 0.14004 0.0
H173 H 0.64074 0.61406 0.14782 0.0
C174 C 0.50528 0.58049 0.14124 0.0
C175 C 0.48022 0.59162 0.15791 0.0
C176 C 0.58147 0.65749 0.15603 0.0
H177 H 0.62029 0.68345 0.1554 0.0
C178 C 0.55718 0.66884 0.17263 0.0
H179 H 0.48611 0.54588 0.12934 0.0
C180 C 0.50696 0.63652 0.17348 0.0
H181 H 0.48905 0.64751 0.18604 0.0
H182 H 0.5772 0.7032 0.18468 0.0
H183 H 0.17668 0.45875 0.1911 0.0
H184 H 0.18571 0.50317 0.12068 0.0
H185 H 0.25726 0.46568 0.19088 0.0
H186 H 0.26586 0.51245 0.12078 0.0
H187 H 0.40894 0.53137 0.12039 0.0
H188 H 0.3205 0.48514 0.12013 0.0
H189 H 0.33884 0.5332 0.1954 0.0
H190 H 0.42759 0.57464 0.19628 0.0
C191 C 0.19529 0.46879 0.17539 0.0
C192 C 0.17539 0.48129 0.1561 0.0
C193 C 0.2417 0.47335 0.17533 0.0
C194 C 0.2688 0.4905 0.15599 0.0
C195 C 0.24645 0.49868 0.13595 0.0
C196 C 0.20038 0.49389 0.13598 0.0
C197 C 0.39454 0.53074 0.13714 0.0
C198 C 0.42604 0.55813 0.15828 0.0
C199 C 0.34338 0.50467 0.1369 0.0
C200 C 0.32212 0.50656 0.15757 0.0
C201 C 0.35352 0.53077 0.17905 0.0
C202 C 0.40476 0.55571 0.17944 0.0
H203 H 0.78347 0.24374 0.54078 0.0
H204 H 0.78414 0.17228 0.4729 0.0
H205 H 0.85424 0.32073 0.53347 0.0
H206 H 0.85643 0.24961 0.46583 0.0
H207 H 0.98721 0.45506 0.52093 0.0
H208 H 0.93881 0.36878 0.52839 0.0
H209 H 0.8668 0.32724 0.45589 0.0
H210 H 0.91685 0.41342 0.44835 0.0
C211 C 0.79955 0.24404 0.52455 0.0
C212 C 0.77754 0.20198 0.50727 0.0
C213 C 0.84056 0.2883 0.5204 0.0
C214 C 0.86084 0.29165 0.4989 0.0
C215 C 0.84118 0.24852 0.48239 0.0
C216 C 0.79998 0.20408 0.48655 0.0
C217 C 0.96182 0.4271 0.50648 0.0
C218 C 0.95515 0.44069 0.48417 0.0
C219 C 0.93394 0.37779 0.51075 0.0
C220 C 0.89818 0.34116 0.49289 0.0
C221 C 0.89421 0.35431 0.47002 0.0
C222 C 0.92267 0.40367 0.46568 0.0
H223 H 0.61646 0.75555 0.80996 0.0
H224 H 0.54202 0.73996 0.87242 0.0
H225 H 0.61485 0.83105 0.80466 0.0
H226 H 0.5389 0.81362 0.86672 0.0
H227 H 0.54186 0.95098 0.8579 0.0
H228 H 0.57759 0.90004 0.86623 0.0
H229 H 0.55031 0.84548 0.79125 0.0
H230 H 0.51673 0.89829 0.78302 0.0
C231 C 0.60064 0.76869 0.82282 0.0
C232 C 0.57871 0.74127 0.84141 0.0
C233 C 0.59936 0.81174 0.81966 0.0
C234 C 0.57621 0.8282 0.83506 0.0
C235 C 0.55755 0.80262 0.85461 0.0
C236 C 0.55894 0.75987 0.85778 0.0
C237 C 0.54471 0.92891 0.84321 0.0
C238 C 0.52611 0.92791 0.81988 0.0
C239 C 0.56491 0.89956 0.84795 0.0
C240 C 0.56595 0.86781 0.82949 0.0
C241 C 0.55053 0.86968 0.80591 0.0
C242 C 0.53103 0.89971 0.80115 0.0
H243 H 0.8834 0.53331 0.10934 0.0
H244 H 0.91164 0.60141 0.18213 0.0
H245 H 0.81686 0.54972 0.10142 0.0
H246 H 0.84421 0.61751 0.1741 0.0
H247 H 0.6739 0.56129 0.15226 0.0
H248 H 0.74887 0.55935 0.16301 0.0
H249 H 0.80656 0.62522 0.10009 0.0
H250 H 0.7325 0.62872 0.08964 0.0
C251 C 0.8755 0.55199 0.12364 0.0
C252 C 0.90257 0.56591 0.1464 0.0
C253 C 0.83765 0.56167 0.11903 0.0
C254 C 0.82559 0.58493 0.13715 0.0
C255 C 0.85284 0.59938 0.15988 0.0
C256 C 0.89142 0.59038 0.16442 0.0
C257 C 0.70298 0.57636 0.14098 0.0
C258 C 0.69693 0.5946 0.11993 0.0
C259 C 0.74585 0.57522 0.14715 0.0
C260 C 0.78319 0.59186 0.13228 0.0
C261 C 0.77795 0.61162 0.11169 0.0
C262 C 0.73541 0.61326 0.10565 0.0
H263 H 0.40872 0.95022 0.45329 0.0
H264 H 0.40616 0.89787 0.52157 0.0
H265 H 0.33016 0.87531 0.43871 0.0
H266 H 0.32599 0.82418 0.50759 0.0
H267 H 0.21484 0.67218 0.46804 0.0
H268 H 0.29148 0.74935 0.48305 0.0
H269 H 0.2456 0.82918 0.43925 0.0
H270 H 0.17045 0.75108 0.42331 0.0
C271 C 0.39069 0.92316 0.46537 0.0
C272 C 0.41365 0.92972 0.48852 0.0
C273 C 0.34544 0.88017 0.45705 0.0
C274 C 0.32161 0.84316 0.47186 0.0
C275 C 0.34372 0.85104 0.49542 0.0
C276 C 0.38948 0.89355 0.50355 0.0
C277 C 0.22155 0.70636 0.46162 0.0
C278 C 0.18723 0.70596 0.44448 0.0
C279 C 0.26516 0.75073 0.47037 0.0
C280 C 0.27488 0.7959 0.46254 0.0
C281 C 0.24001 0.79521 0.44543 0.0
C282 C 0.19686 0.75059 0.43633 0.0
H283 H 0.48756 0.35789 0.84899 0.0
H284 H 0.45887 0.37873 0.77655 0.0
H285 H 0.48401 0.28073 0.83451 0.0
H286 H 0.45691 0.30229 0.76214 0.0
H287 H 0.54918 0.21719 0.75834 0.0
H288 H 0.53685 0.28602 0.76975 0.0
H289 H 0.41433 0.19047 0.80591 0.0
H290 H 0.42401 0.12042 0.79329 0.0
C291 C 0.47973 0.34554 0.83003 0.0
C292 C 0.4734 0.37415 0.81388 0.0
C293 C 0.47769 0.30152 0.82179 0.0
C294 C 0.47047 0.28609 0.79728 0.0
C295 C 0.4626 0.31373 0.78113 0.0
C296 C 0.4634 0.35713 0.78939 0.0
C297 C 0.51881 0.21027 0.76821 0.0
C298 C 0.48783 0.16303 0.77497 0.0
C299 C 0.51197 0.24981 0.77481 0.0
C300 C 0.4747 0.24322 0.78866 0.0
C301 C 0.44345 0.19628 0.7953 0.0
C302 C 0.44949 0.15642 0.78826 0.0
H303 H 0.65281 0.93646 0.54296 0.0
H304 H 0.60309 0.89767 0.46766 0.0
H305 H 0.64089 0.85419 0.54539 0.0
H306 H 0.58771 0.81413 0.47008 0.0
H307 H 0.56533 0.66485 0.47837 0.0
H308 H 0.6083 0.7541 0.4762 0.0
H309 H 0.57037 0.77759 0.54573 0.0
H310 H 0.52988 0.68896 0.54814 0.0
C311 C 0.64047 0.91048 0.52681 0.0
C312 C 0.62892 0.92309 0.50513 0.0
C313 C 0.63286 0.86309 0.52822 0.0
C314 C 0.61193 0.82676 0.50809 0.0
C315 C 0.60414 0.84093 0.48598 0.0
C316 C 0.61298 0.88889 0.4845 0.0
C317 C 0.56701 0.68947 0.49328 0.0
C318 C 0.54414 0.67021 0.51338 0.0
C319 C 0.59141 0.74056 0.49203 0.0
C320 C 0.59271 0.77341 0.51069 0.0
C321 C 0.57121 0.75394 0.53115 0.0
C322 C 0.54759 0.70299 0.53255 0.0
H323 H 0.68841 0.55986 0.88452 0.0
H324 H 0.7368 0.63805 0.82338 0.0
H325 H 0.77112 0.5768 0.8961 0.0
H326 H 0.82062 0.65504 0.83519 0.0
H327 H 0.93629 0.60272 0.85146 0.0
H328 H 0.85999 0.60066 0.83859 0.0
H329 H 0.85548 0.65108 0.91066 0.0
H330 H 0.93218 0.65415 0.92352 0.0
C331 C 0.71677 0.58078 0.87353 0.0
C332 C 0.70598 0.59742 0.85293 0.0
C333 C 0.7643 0.59086 0.88033 0.0
C334 C 0.80225 0.61748 0.86663 0.0
C335 C 0.79183 0.63436 0.84603 0.0
C336 C 0.74407 0.62479 0.83933 0.0
C337 C 0.91958 0.61436 0.86448 0.0
C338 C 0.93995 0.62802 0.88858 0.0
C339 C 0.87598 0.61323 0.85708 0.0
C340 C 0.85181 0.62541 0.87367 0.0
C341 C 0.87313 0.6409 0.89757 0.0
C342 C 0.91681 0.64233 0.90494 0.0
H343 H 0.15875 0.70567 0.21629 0.0
H344 H 0.20572 0.71235 0.14649 0.0
H345 H 0.23386 0.78414 0.23087 0.0
H346 H 0.27959 0.79251 0.16054 0.0
H347 H 0.43212 0.90515 0.19831 0.0
H348 H 0.35553 0.82752 0.18362 0.0
H349 H 0.27821 0.86939 0.23125 0.0
H350 H 0.35571 0.94531 0.24679 0.0
C351 C 0.18469 0.72458 0.20392 0.0
C352 C 0.1765 0.70286 0.18028 0.0
C353 C 0.2278 0.76979 0.21224 0.0
C354 C 0.26328 0.79486 0.19697 0.0
C355 C 0.25392 0.77384 0.17303 0.0
C356 C 0.2113 0.7281 0.16486 0.0
C357 C 0.39862 0.89727 0.20564 0.0
C358 C 0.39955 0.93064 0.22373 0.0
C359 C 0.35457 0.85311 0.1971 0.0
C360 C 0.31028 0.84198 0.20611 0.0
C361 C 0.31153 0.87598 0.22415 0.0
C362 C 0.35581 0.9196 0.23303 0.0
H363 H 0.59154 0.22404 0.56137 0.0
H364 H 0.52202 0.20001 0.48944 0.0
H365 H 0.57534 0.2908 0.57135 0.0
H366 H 0.50675 0.26785 0.49945 0.0
H367 H 0.56013 0.43747 0.52528 0.0
H368 H 0.56856 0.36617 0.51371 0.0
H369 H 0.49364 0.29573 0.57244 0.0
H370 H 0.48253 0.36552 0.58342 0.0
C371 C 0.57286 0.23308 0.54769 0.0
C372 C 0.5581 0.20693 0.5246 0.0
C373 C 0.5634 0.27105 0.55346 0.0
C374 C 0.53986 0.28423 0.53614 0.0
C375 C 0.52511 0.25828 0.51304 0.0
C376 C 0.53365 0.21948 0.50738 0.0
C377 C 0.5445 0.40645 0.53549 0.0
C378 C 0.52073 0.40749 0.55536 0.0
C379 C 0.54954 0.36576 0.52887 0.0
C380 C 0.53177 0.32575 0.54223 0.0
C381 C 0.50795 0.32647 0.562 0.0
C382 C 0.50204 0.36667 0.56837 0.0
H383 H 0.36695 0.54868 0.87713 0.0
H384 H 0.32505 0.50305 0.80141 0.0
H385 H 0.29744 0.55981 0.87954 0.0
H386 H 0.25326 0.51253 0.80387 0.0
H387 H 0.19971 0.62616 0.81498 0.0
H388 H 0.24549 0.58423 0.80933 0.0
H389 H 0.21304 0.53011 0.87735 0.0
H390 H 0.17143 0.57575 0.88405 0.0
C391 C 0.34191 0.53966 0.86104 0.0
C392 C 0.35194 0.52592 0.83901 0.0
C393 C 0.30153 0.54555 0.86245 0.0
C394 C 0.26982 0.5376 0.84184 0.0
C395 C 0.27748 0.51979 0.82002 0.0
C396 C 0.31824 0.51387 0.81862 0.0
C397 C 0.2025 0.60553 0.82881 0.0
C398 C 0.18288 0.60565 0.85026 0.0
C399 C 0.22792 0.5805 0.82532 0.0
C400 C 0.23367 0.55432 0.84305 0.0
C401 C 0.21032 0.55085 0.86355 0.0
C402 C 0.18581 0.57665 0.86726 0.0
H403 H 0.85471 0.3397 0.125 0.0
H404 H 0.92111 0.33223 0.19259 0.0
H405 H 0.77383 0.27736 0.13395 0.0
H406 H 0.83948 0.26896 0.20125 0.0
H407 H 0.66773 0.12823 0.1907 0.0
H408 H 0.75337 0.17547 0.18184 0.0
H409 H 0.73662 0.30088 0.172 0.0
H410 H 0.65264 0.2553 0.18174 0.0
C411 C 0.85237 0.32377 0.14145 0.0
C412 C 0.89435 0.34179 0.1583 0.0
C413 C 0.80599 0.28811 0.14654 0.0
C414 C 0.80063 0.26923 0.16842 0.0
C415 C 0.84289 0.28317 0.18427 0.0
C416 C 0.88954 0.31932 0.17926 0.0
C417 C 0.68269 0.16623 0.18712 0.0
C418 C 0.65301 0.1877 0.18654 0.0
C419 C 0.73147 0.19298 0.18192 0.0
C420 C 0.75086 0.24121 0.17579 0.0
C421 C 0.72198 0.26327 0.17618 0.0
C422 C 0.67384 0.23705 0.18168 0.0
H423 H 0.95573 0.4938 0.06066 0.0
H424 H 0.11381 0.55878 0.06748 0.0
H425 H 0.95543 0.51041 0.01959 0.0
H426 H 0.11345 0.57316 0.02596 0.0
H427 H 0.10336 0.65149 0.96281 0.0
H428 H 0.10542 0.62651 0.00222 0.0
H429 H 0.96401 0.49204 0.98039 0.0
H430 H 0.96129 0.5187 0.94136 0.0
C431 C 0.99032 0.51063 0.0532 0.0
C432 C 0.03483 0.52529 0.06738 0.0
C433 C 0.99018 0.51999 0.02953 0.0
C434 C 0.03449 0.54353 0.01932 0.0
C435 C 0.07873 0.5561 0.03329 0.0
C436 C 0.07894 0.54748 0.05707 0.0
C437 C 0.07304 0.61637 0.96644 0.0
C438 C 0.03207 0.58714 0.94915 0.0
C439 C 0.07424 0.6018 0.98901 0.0
C440 C 0.03477 0.55719 0.99469 0.0
C441 C -0.00541 0.52712 0.97695 0.0
C442 C 0.99309 0.54216 0.95452 0.0
H443 H 0.53832 0.10834 0.41829 0.0
H444 H 0.62807 0.04286 0.4078 0.0
H445 H 0.52428 0.10679 0.37559 0.0
H446 H 0.61312 0.04061 0.36472 0.0
H447 H 0.60056 0.07636 0.28791 0.0
H448 H 0.62625 0.09149 0.33104 0.0
H449 H 0.47567 0.03928 0.34341 0.0
H450 H 0.45057 0.0253 0.30076 0.0
C451 C 0.55525 0.09372 0.4069 0.0
C452 C 0.58381 0.07506 0.41651 0.0
C453 C 0.54706 0.09277 0.38237 0.0
C454 C 0.56704 0.07301 0.36675 0.0
C455 C 0.59742 0.05631 0.37632 0.0
C456 C 0.60574 0.05733 0.40098 0.0
C457 C 0.57328 0.06884 0.29996 0.0
C458 C 0.52356 0.04937 0.29103 0.0
C459 C 0.58784 0.07705 0.32457 0.0
C460 C 0.55299 0.06656 0.34063 0.0
C461 C 0.50357 0.0483 0.33158 0.0
C462 C 0.48907 0.03983 0.30712 0.0
H463 H 0.60028 0.60869 0.74476 0.0
H464 H 0.44203 0.51062 0.73847 0.0
H465 H 0.59591 0.60053 0.70137 0.0
H466 H 0.43779 0.50326 0.69538 0.0
H467 H 0.46095 0.44378 0.62432 0.0
H468 H 0.46347 0.46175 0.66692 0.0
H469 H 0.5644 0.61765 0.66362 0.0
H470 H 0.56244 0.59921 0.62059 0.0
C471 C 0.56456 0.58592 0.73418 0.0
C472 C 0.52162 0.5598 0.74516 0.0
C473 C 0.56202 0.58151 0.70931 0.0
C474 C 0.51655 0.55085 0.69493 0.0
C475 C 0.4735 0.52646 0.70594 0.0
C476 C 0.476 0.53083 0.7307 0.0
C477 C 0.48363 0.48194 0.63265 0.0
C478 C 0.51181 0.52005 0.61918 0.0
C479 C 0.48473 0.49233 0.65705 0.0
C480 C 0.51408 0.54115 0.66868 0.0
C481 C 0.54169 0.5796 0.65517 0.0
C482 C 0.54028 0.56917 0.63057 0.0
H483 H 0.62717 0.14765 0.60617 0.0
H484 H 0.56387 0.98865 0.59906 0.0
H485 H 0.61158 0.14779 0.64738 0.0
H486 H 0.55065 0.98887 0.64077 0.0
H487 H 0.47333 -0.00117 0.70462 0.0
H488 H 0.49806 0.9961 0.66512 0.0
H489 H 0.63053 0.13977 0.68629 0.0
H490 H 0.6038 0.14322 0.72523 0.0
C491 C 0.61102 0.11285 0.61361 0.0
C492 C 0.59645 0.06812 0.59932 0.0
C493 C 0.60225 0.11288 0.63737 0.0
C494 C 0.57949 0.06825 0.64757 0.0
C495 C 0.56713 0.02381 0.63348 0.0
C496 C 0.57508 0.02369 0.60959 0.0
C497 C 0.50792 0.02945 0.70077 0.0
C498 C 0.53655 0.07134 0.71777 0.0
C499 C 0.52239 0.0279 0.67819 0.0
C500 C 0.56629 0.06791 0.67229 0.0
C501 C 0.59593 0.10881 0.68986 0.0
C502 C 0.58093 0.11071 0.71225 0.0
H503 H 0.57546 0.51607 0.93 0.0
H504 H 0.48855 0.58603 0.93383 0.0
H505 H 0.58347 0.51927 0.97305 0.0
H506 H 0.49418 0.58692 0.97686 0.0
H507 H 0.56598 0.49953 0.04944 0.0
H508 H 0.54536 0.48801 0.00633 0.0
H509 H 0.54956 0.62799 0.01138 0.0
H510 H 0.56753 0.63765 0.05454 0.0
C511 C 0.55734 0.53138 0.94004 0.0
C512 C 0.53165 0.55107 0.92852 0.0
C513 C 0.56159 0.53291 0.96479 0.0
C514 C 0.53949 0.55339 0.97864 0.0
C515 C 0.51257 0.57179 0.96695 0.0
C516 C 0.50907 0.57103 0.94222 0.0
C517 C 0.56164 0.52728 0.04123 0.0
C518 C 0.56827 0.56943 0.0552 0.0
C519 C 0.55031 0.52104 0.01652 0.0
C520 C 0.54636 0.55736 0.00516 0.0
C521 C 0.55154 0.5988 0.01937 0.0
C522 C 0.562 0.60454 0.04413 0.0
H523 H 0.06858 0.48317 0.25703 0.0
H524 H -0.00037 0.571 0.25114 0.0
H525 H 0.07417 0.49643 0.30044 0.0
H526 H 0.00441 0.58328 0.29415 0.0
H527 H 0.08883 0.6556 0.36832 0.0
H528 H 0.07271 0.63215 0.32548 0.0
H529 H 0.02711 0.48077 0.33548 0.0
H530 H 0.04458 0.50484 0.37878 0.0
C531 C 0.05404 0.50468 0.26493 0.0
C532 C 0.03437 0.52664 0.25059 0.0
C533 C 0.057 0.51205 0.28979 0.0
C534 C 0.0403 0.54144 0.30074 0.0
C535 C 0.01856 0.56133 0.2863 0.0
C536 C 0.01574 0.55413 0.26159 0.0
C537 C 0.07537 0.61729 0.36141 0.0
C538 C 0.06833 0.58214 0.3769 0.0
C539 C 0.06564 0.6037 0.33684 0.0
C540 C 0.04851 0.55453 0.32704 0.0
C541 C 0.04062 0.51901 0.3425 0.0
C542 C 0.05016 0.53265 0.36724 0.0
loop_
_geom_bond_atom_site_label_1
_geom_bond_atom_site_label_2
_geom_bond_distance
_geom_bond_site_symmetry_2
_ccdc_geom_bond_type
O0 Zn1 1.953 . S
O0 C16 1.225 . S
Zn1 O0 1.953 . S
Zn1 O2 1.949 . S
Zn1 O8 1.919 1_455 S
Zn1 O13 1.924 . S
O2 Zn1 1.949 . S
O2 Zn3 1.923 1_455 S
O2 Zn4 1.950 . S
O2 Zn5 1.945 . S
Zn3 O2 1.923 1_655 S
Zn3 O6 1.933 1_655 S
Zn3 O9 1.941 . S
Zn3 O10 1.965 . S
Zn4 O2 1.950 . S
Zn4 O11 1.938 . S
Zn4 O12 1.906 . S
Zn4 O22 1.953 . S
Zn5 O2 1.945 . S
Zn5 O7 1.932 . S
Zn5 O14 1.977 . S
Zn5 O15 1.910 . S
O6 Zn3 1.933 1_455 S
O6 C17 1.226 . S
O7 Zn5 1.932 . S
O7 C17 1.307 . S
O8 Zn1 1.919 1_655 S
O8 C19 1.253 . S
O9 Zn3 1.941 . S
O9 C19 1.283 . S
O10 Zn3 1.965 . S
O10 C18 1.303 . S
O11 Zn4 1.938 . S
O11 C18 1.247 1_455 S
O12 Zn4 1.906 . S
O12 C20 1.304 . S
O13 Zn1 1.924 . S
O13 C21 1.311 . S
O14 Zn5 1.977 . S
O14 C20 1.272 . S
O15 Zn5 1.910 . S
O15 C21 1.231 . S
C16 O0 1.225 . S
C16 O22 1.298 . S
C17 O6 1.226 . S
C17 O7 1.307 . S
C18 O10 1.303 . S
C18 O11 1.247 1_655 S
C19 O8 1.253 . S
C19 O9 1.283 . S
C20 O12 1.304 . S
C20 O14 1.272 . S
C21 O13 1.311 . S
C21 O15 1.231 . S
O22 Zn4 1.953 . S
O22 C16 1.298 . S
O23 Zn24 1.953 . S
O23 C39 1.225 . S
Zn24 O23 1.953 . S
Zn24 O25 1.949 . S
Zn24 O31 1.919 . S
Zn24 O36 1.924 . S
O25 Zn24 1.949 . S
O25 Zn26 1.923 . S
O25 Zn27 1.950 . S
O25 Zn28 1.945 . S
Zn26 O25 1.923 . S
Zn26 O29 1.933 . S
Zn26 O32 1.941 . S
Zn26 O33 1.965 . S
Zn27 O25 1.950 . S
Zn27 O34 1.938 . S
Zn27 O35 1.905 1_545 S
Zn27 O45 1.953 . S
Zn28 O25 1.945 . S
Zn28 O30 1.932 . S
Zn28 O37 1.977 1_545 S
Zn28 O38 1.910 1_545 S
O29 Zn26 1.933 . S
O29 C40 1.226 . S
O30 Zn28 1.932 . S
O30 C40 1.307 . S
O31 Zn24 1.919 . S
O31 C42 1.253 . S
O32 Zn26 1.941 . S
O32 C42 1.283 . S
O33 Zn26 1.965 . S
O33 C41 1.303 . S
O34 Zn27 1.938 . S
O34 C41 1.247 . S
O35 Zn27 1.905 1_565 S
O35 C43 1.305 . S
O36 Zn24 1.924 . S
O36 C44 1.311 1_545 S
O37 Zn28 1.977 1_565 S
O37 C43 1.272 . S
O38 Zn28 1.910 1_565 S
O38 C44 1.231 . S
C39 O23 1.225 . S
C39 O45 1.298 . S
C40 O29 1.226 . S
C40 O30 1.307 . S
C41 O33 1.303 . S
C41 O34 1.247 . S
C42 O31 1.253 . S
C42 O32 1.283 . S
C43 O35 1.305 . S
C43 O37 1.272 . S
C44 O36 1.311 1_565 S
C44 O38 1.231 . S
O45 Zn27 1.953 . S
O45 C39 1.298 . S
O46 Zn47 1.953 . S
O46 C62 1.225 . S
Zn47 O46 1.953 . S
Zn47 O48 1.949 . S
Zn47 O54 1.919 . S
Zn47 O59 1.924 . S
O48 Zn47 1.949 . S
O48 Zn49 1.923 . S
O48 Zn50 1.950 . S
O48 Zn51 1.945 . S
Zn49 O48 1.923 . S
Zn49 O52 1.933 . S
Zn49 O55 1.941 . S
Zn49 O56 1.965 . S
Zn50 O48 1.950 . S
Zn50 O57 1.938 . S
Zn50 O58 1.906 . S
Zn50 O68 1.953 . S
Zn51 O48 1.945 . S
Zn51 O53 1.932 . S
Zn51 O60 1.977 . S
Zn51 O61 1.910 . S
O52 Zn49 1.933 . S
O52 C63 1.226 . S
O53 Zn51 1.932 . S
O53 C63 1.307 . S
O54 Zn47 1.919 . S
O54 C65 1.253 . S
O55 Zn49 1.941 . S
O55 C65 1.283 . S
O56 Zn49 1.965 . S
O56 C64 1.303 . S
O57 Zn50 1.938 . S
O57 C64 1.247 . S
O58 Zn50 1.906 . S
O58 C66 1.304 . S
O59 Zn47 1.924 . S
O59 C67 1.311 . S
O60 Zn51 1.977 . S
O60 C66 1.272 . S
O61 Zn51 1.910 . S
O61 C67 1.231 . S
C62 O46 1.225 . S
C62 O68 1.298 . S
C63 O52 1.226 . S
C63 O53 1.307 . S
C64 O56 1.303 . S
C64 O57 1.247 . S
C65 O54 1.253 . S
C65 O55 1.283 . S
C66 O58 1.304 . S
C66 O60 1.272 . S
C67 O59 1.311 . S
C67 O61 1.231 . S
O68 Zn50 1.953 . S
O68 C62 1.298 . S
H69 C70 0.949 . S
C70 H69 0.949 . S
C70 C71 1.395 . S
C70 C72 1.391 . S
C71 C70 1.395 . S
C71 C74 1.390 . S
C72 C70 1.391 . S
C72 C76 1.387 . S
C72 C77 1.491 . S
H73 C74 0.950 1_565 S
C74 C71 1.390 . S
C74 H73 0.950 1_545 S
C74 C75 1.378 . S
C75 C74 1.378 . S
C75 C76 1.409 . S
C76 C72 1.387 . S
C76 C75 1.409 . S
C76 H78 0.951 . S
C77 C72 1.491 . S
C77 C79 1.382 . S
C77 C81 1.404 . S
H78 C76 0.951 . S
C79 C77 1.382 . S
C79 C80 1.390 . S
C79 H84 0.949 . S
C80 C79 1.390 . S
C80 C85 1.399 . S
C81 C77 1.404 . S
C81 H82 0.950 . S
C81 C83 1.375 . S
H82 C81 0.950 . S
C83 C81 1.375 . S
C83 C85 1.382 . S
C83 H87 0.950 . S
H84 C79 0.949 . S
C85 C80 1.399 . S
C85 C83 1.382 . S
C85 H86 0.952 . S
H86 C85 0.952 . S
H87 C83 0.950 . S
H88 C89 0.949 . S
C89 H88 0.949 . S
C89 C90 1.395 . S
C89 C91 1.391 . S
C90 C89 1.395 . S
C90 C93 1.390 . S
C91 C89 1.391 . S
C91 C95 1.387 . S
C91 C96 1.491 . S
H92 C93 0.950 . S
C93 C90 1.390 . S
C93 H92 0.950 . S
C93 C94 1.378 . S
C94 C93 1.378 . S
C94 C95 1.409 . S
C95 C91 1.387 . S
C95 C94 1.409 . S
C95 H97 0.951 . S
C96 C91 1.491 . S
C96 C98 1.382 . S
C96 C100 1.404 . S
H97 C95 0.951 . S
C98 C96 1.382 . S
C98 C99 1.390 . S
C98 H103 0.949 . S
C99 C98 1.390 . S
C99 C104 1.399 . S
C100 C96 1.404 . S
C100 H101 0.950 . S
C100 C102 1.375 . S
H101 C100 0.950 . S
C102 C100 1.375 . S
C102 C104 1.382 . S
C102 H106 0.950 . S
H103 C98 0.949 . S
C104 C99 1.399 . S
C104 C102 1.382 . S
C104 H105 0.952 . S
H105 C104 0.952 . S
H106 C102 0.950 . S
H107 C108 0.949 . S
C108 H107 0.949 . S
C108 C109 1.395 . S
C108 C110 1.391 . S
C109 C108 1.395 . S
C109 C112 1.390 . S
C110 C108 1.391 . S
C110 C114 1.387 . S
C110 C115 1.491 . S
H111 C112 0.950 1_655 S
C112 C109 1.390 . S
C112 H111 0.950 1_455 S
C112 C113 1.378 . S
C113 C112 1.378 . S
C113 C114 1.409 . S
C114 C110 1.387 . S
C114 C113 1.409 . S
C114 H116 0.951 . S
C115 C110 1.491 . S
C115 C117 1.382 . S
C115 C119 1.404 . S
H116 C114 0.951 . S
C117 C115 1.382 . S
C117 C118 1.390 . S
C117 H122 0.949 . S
C118 C117 1.390 . S
C118 C123 1.399 . S
C119 C115 1.404 . S
C119 H120 0.950 . S
C119 C121 1.375 . S
H120 C119 0.950 . S
C121 C119 1.375 . S
C121 C123 1.382 . S
C121 H125 0.950 . S
H122 C117 0.949 . S
C123 C118 1.399 . S
C123 C121 1.382 . S
C123 H124 0.952 . S
H124 C123 0.952 . S
H125 C121 0.950 . S
H126 C127 0.949 1_655 S
C127 H126 0.949 1_455 S
C127 C128 1.395 . S
C127 C129 1.391 . S
C128 C127 1.395 . S
C128 C131 1.390 . S
C129 C127 1.391 . S
C129 C133 1.387 . S
C129 C134 1.491 1_455 S
H130 C131 0.950 . S
C131 C128 1.390 . S
C131 H130 0.950 . S
C131 C132 1.378 . S
C132 C131 1.378 . S
C132 C133 1.409 . S
C133 C129 1.387 . S
C133 C132 1.409 . S
C133 H135 0.951 . S
C134 C129 1.491 1_655 S
C134 C136 1.382 . S
C134 C138 1.404 . S
H135 C133 0.951 . S
C136 C134 1.382 . S
C136 C137 1.390 . S
C136 H141 0.949 . S
C137 C136 1.390 . S
C137 C142 1.399 . S
C138 C134 1.404 . S
C138 H139 0.950 . S
C138 C140 1.375 . S
H139 C138 0.950 . S
C140 C138 1.375 . S
C140 C142 1.382 . S
C140 H144 0.950 . S
H141 C136 0.949 . S
C142 C137 1.399 . S
C142 C140 1.382 . S
C142 H143 0.952 . S
H143 C142 0.952 . S
H144 C140 0.950 . S
H145 C146 0.949 1_565 S
C146 H145 0.949 1_545 S
C146 C147 1.395 . S
C146 C148 1.391 . S
C147 C146 1.395 . S
C147 C150 1.390 . S
C148 C146 1.391 . S
C148 C152 1.387 . S
C148 C153 1.491 1_545 S
H149 C150 0.950 . S
C150 C147 1.390 . S
C150 H149 0.950 . S
C150 C151 1.378 . S
C151 C150 1.378 . S
C151 C152 1.409 . S
C152 C148 1.387 . S
C152 C151 1.409 . S
C152 H154 0.951 . S
C153 C148 1.491 1_565 S
C153 C155 1.382 . S
C153 C157 1.404 . S
H154 C152 0.951 . S
C155 C153 1.382 . S
C155 C156 1.390 . S
C155 H160 0.949 . S
C156 C155 1.390 . S
C156 C161 1.399 . S
C157 C153 1.404 . S
C157 H158 0.950 1_565 S
C157 C159 1.375 . S
H158 C157 0.950 1_545 S
C159 C157 1.375 . S
C159 C161 1.382 . S
C159 H163 0.950 . S
H160 C155 0.949 . S
C161 C156 1.399 . S
C161 C159 1.382 . S
C161 H162 0.952 . S
H162 C161 0.952 . S
H163 C159 0.950 . S
H164 C165 0.949 . S
C165 H164 0.949 . S
C165 C166 1.395 . S
C165 C167 1.391 . S
C166 C165 1.395 . S
C166 C169 1.390 . S
C167 C165 1.391 . S
C167 C171 1.387 . S
C167 C172 1.491 . S
H168 C169 0.950 . S
C169 C166 1.390 . S
C169 H168 0.950 . S
C169 C170 1.378 . S
C170 C169 1.378 . S
C170 C171 1.409 . S
C171 C167 1.387 . S
C171 C170 1.409 . S
C171 H173 0.951 . S
C172 C167 1.491 . S
C172 C174 1.382 . S
C172 C176 1.404 . S
H173 C171 0.951 . S
C174 C172 1.382 . S
C174 C175 1.390 . S
C174 H179 0.949 . S
C175 C174 1.390 . S
C175 C180 1.399 . S
C176 C172 1.404 . S
C176 H177 0.950 . S
C176 C178 1.375 . S
H177 C176 0.950 . S
C178 C176 1.375 . S
C178 C180 1.382 . S
C178 H182 0.950 . S
H179 C174 0.949 . S
C180 C175 1.399 . S
C180 C178 1.382 . S
C180 H181 0.952 . S
H181 C180 0.952 . S
H182 C178 0.950 . S
H183 C191 0.950 . S
H184 C196 0.950 . S
H185 C193 0.950 . S
H186 C195 0.950 . S
H187 C197 0.950 . S
H188 C199 0.950 . S
H189 C201 0.950 . S
H190 C202 0.950 . S
C191 H183 0.950 . S
C191 C192 1.386 . S
C191 C193 1.391 . S
C192 C191 1.386 . S
C192 C196 1.393 . S
C193 H185 0.950 . S
C193 C191 1.391 . S
C193 C194 1.400 . S
C194 C193 1.400 . S
C194 C195 1.398 . S
C194 C200 1.491 . S
C195 H186 0.950 . S
C195 C194 1.398 . S
C195 C196 1.391 . S
C196 H184 0.950 . S
C196 C192 1.393 . S
C196 C195 1.391 . S
C197 H187 0.950 . S
C197 C198 1.386 . S
C197 C199 1.391 . S
C198 C197 1.386 . S
C198 C202 1.393 . S
C199 H188 0.950 . S
C199 C197 1.391 . S
C199 C200 1.400 . S
C200 C194 1.491 . S
C200 C199 1.400 . S
C200 C201 1.398 . S
C201 H189 0.950 . S
C201 C200 1.398 . S
C201 C202 1.391 . S
C202 H190 0.950 . S
C202 C198 1.393 . S
C202 C201 1.391 . S
H203 C211 0.950 . S
H204 C216 0.950 . S
H205 C213 0.950 . S
H206 C215 0.950 . S
H207 C217 0.950 . S
H208 C219 0.950 . S
H209 C221 0.950 . S
H210 C222 0.950 . S
C211 H203 0.950 . S
C211 C212 1.386 . S
C211 C213 1.391 . S
C212 C211 1.386 . S
C212 C216 1.393 . S
C213 H205 0.950 . S
C213 C211 1.391 . S
C213 C214 1.400 . S
C214 C213 1.400 . S
C214 C215 1.398 . S
C214 C220 1.491 . S
C215 H206 0.950 . S
C215 C214 1.398 . S
C215 C216 1.391 . S
C216 H204 0.950 . S
C216 C212 1.393 . S
C216 C215 1.391 . S
C217 H207 0.950 . S
C217 C218 1.386 . S
C217 C219 1.391 . S
C218 C217 1.386 . S
C218 C222 1.393 . S
C219 H208 0.950 . S
C219 C217 1.391 . S
C219 C220 1.400 . S
C220 C214 1.491 . S
C220 C219 1.400 . S
C220 C221 1.398 . S
C221 H209 0.950 . S
C221 C220 1.398 . S
C221 C222 1.391 . S
C222 H210 0.950 . S
C222 C218 1.393 . S
C222 C221 1.391 . S
H223 C231 0.950 . S
H224 C236 0.950 . S
H225 C233 0.950 . S
H226 C235 0.950 . S
H227 C237 0.950 . S
H228 C239 0.950 . S
H229 C241 0.950 . S
H230 C242 0.950 . S
C231 H223 0.950 . S
C231 C232 1.386 . S
C231 C233 1.391 . S
C232 C231 1.386 . S
C232 C236 1.393 . S
C233 H225 0.950 . S
C233 C231 1.391 . S
C233 C234 1.400 . S
C234 C233 1.400 . S
C234 C235 1.398 . S
C234 C240 1.491 . S
C235 H226 0.950 . S
C235 C234 1.398 . S
C235 C236 1.391 . S
C236 H224 0.950 . S
C236 C232 1.393 . S
C236 C235 1.391 . S
C237 H227 0.950 . S
C237 C238 1.386 . S
C237 C239 1.391 . S
C238 C237 1.386 . S
C238 C242 1.393 . S
C239 H228 0.950 . S
C239 C237 1.391 . S
C239 C240 1.400 . S
C240 C234 1.491 . S
C240 C239 1.400 . S
C240 C241 1.398 . S
C241 H229 0.950 . S
C241 C240 1.398 . S
C241 C242 1.391 . S
C242 H230 0.950 . S
C242 C238 1.393 . S
C242 C241 1.391 . S
H243 C251 0.950 . S
H244 C256 0.950 . S
H245 C253 0.950 . S
H246 C255 0.950 . S
H247 C257 0.950 . S
H248 C259 0.950 . S
H249 C261 0.950 . S
H250 C262 0.950 . S
C251 H243 0.950 . S
C251 C252 1.386 . S
C251 C253 1.391 . S
C252 C251 1.386 . S
C252 C256 1.393 . S
C253 H245 0.950 . S
C253 C251 1.391 . S
C253 C254 1.400 . S
C254 C253 1.400 . S
C254 C255 1.398 . S
C254 C260 1.491 . S
C255 H246 0.950 . S
C255 C254 1.398 . S
C255 C256 1.391 . S
C256 H244 0.950 . S
C256 C252 1.393 . S
C256 C255 1.391 . S
C257 H247 0.950 . S
C257 C258 1.386 . S
C257 C259 1.391 . S
C258 C257 1.386 . S
C258 C262 1.393 . S
C259 H248 0.950 . S
C259 C257 1.391 . S
C259 C260 1.400 . S
C260 C254 1.491 . S
C260 C259 1.400 . S
C260 C261 1.398 . S
C261 H249 0.950 . S
C261 C260 1.398 . S
C261 C262 1.391 . S
C262 H250 0.950 . S
C262 C258 1.393 . S
C262 C261 1.391 . S
H263 C271 0.950 . S
H264 C276 0.950 . S
H265 C273 0.950 . S
H266 C275 0.950 . S
H267 C277 0.950 . S
H268 C279 0.950 . S
H269 C281 0.950 . S
H270 C282 0.950 . S
C271 H263 0.950 . S
C271 C272 1.386 . S
C271 C273 1.391 . S
C272 C271 1.386 . S
C272 C276 1.393 . S
C273 H265 0.950 . S
C273 C271 1.391 . S
C273 C274 1.400 . S
C274 C273 1.400 . S
C274 C275 1.398 . S
C274 C280 1.491 . S
C275 H266 0.950 . S
C275 C274 1.398 . S
C275 C276 1.391 . S
C276 H264 0.950 . S
C276 C272 1.393 . S
C276 C275 1.391 . S
C277 H267 0.950 . S
C277 C278 1.386 . S
C277 C279 1.391 . S
C278 C277 1.386 . S
C278 C282 1.393 . S
C279 H268 0.950 . S
C279 C277 1.391 . S
C279 C280 1.400 . S
C280 C274 1.491 . S
C280 C279 1.400 . S
C280 C281 1.398 . S
C281 H269 0.950 . S
C281 C280 1.398 . S
C281 C282 1.391 . S
C282 H270 0.950 . S
C282 C278 1.393 . S
C282 C281 1.391 . S
H283 C291 0.950 . S
H284 C296 0.950 . S
H285 C293 0.950 . S
H286 C295 0.950 . S
H287 C297 0.950 . S
H288 C299 0.950 . S
H289 C301 0.950 . S
H290 C302 0.950 . S
C291 H283 0.950 . S
C291 C292 1.386 . S
C291 C293 1.391 . S
C292 C291 1.386 . S
C292 C296 1.393 . S
C293 H285 0.950 . S
C293 C291 1.391 . S
C293 C294 1.400 . S
C294 C293 1.400 . S
C294 C295 1.398 . S
C294 C300 1.491 . S
C295 H286 0.950 . S
C295 C294 1.398 . S
C295 C296 1.391 . S
C296 H284 0.950 . S
C296 C292 1.393 . S
C296 C295 1.391 . S
C297 H287 0.950 . S
C297 C298 1.386 . S
C297 C299 1.391 . S
C298 C297 1.386 . S
C298 C302 1.393 . S
C299 H288 0.950 . S
C299 C297 1.391 . S
C299 C300 1.400 . S
C300 C294 1.491 . S
C300 C299 1.400 . S
C300 C301 1.398 . S
C301 H289 0.950 . S
C301 C300 1.398 . S
C301 C302 1.391 . S
C302 H290 0.950 . S
C302 C298 1.393 . S
C302 C301 1.391 . S
H303 C311 0.950 . S
H304 C316 0.950 . S
H305 C313 0.950 . S
H306 C315 0.950 . S
H307 C317 0.950 . S
H308 C319 0.950 . S
H309 C321 0.950 . S
H310 C322 0.950 . S
C311 H303 0.950 . S
C311 C312 1.386 . S
C311 C313 1.391 . S
C312 C311 1.386 . S
C312 C316 1.393 . S
C313 H305 0.950 . S
C313 C311 1.391 . S
C313 C314 1.400 . S
C314 C313 1.400 . S
C314 C315 1.398 . S
C314 C320 1.491 . S
C315 H306 0.950 . S
C315 C314 1.398 . S
C315 C316 1.391 . S
C316 H304 0.950 . S
C316 C312 1.393 . S
C316 C315 1.391 . S
C317 H307 0.950 . S
C317 C318 1.386 . S
C317 C319 1.391 . S
C318 C317 1.386 . S
C318 C322 1.393 . S
C319 H308 0.950 . S
C319 C317 1.391 . S
C319 C320 1.400 . S
C320 C314 1.491 . S
C320 C319 1.400 . S
C320 C321 1.398 . S
C321 H309 0.950 . S
C321 C320 1.398 . S
C321 C322 1.391 . S
C322 H310 0.950 . S
C322 C318 1.393 . S
C322 C321 1.391 . S
H323 C331 0.950 . S
H324 C336 0.950 . S
H325 C333 0.950 . S
H326 C335 0.950 . S
H327 C337 0.950 . S
H328 C339 0.950 . S
H329 C341 0.950 . S
H330 C342 0.950 . S
C331 H323 0.950 . S
C331 C332 1.386 . S
C331 C333 1.391 . S
C332 C331 1.386 . S
C332 C336 1.393 . S
C333 H325 0.950 . S
C333 C331 1.391 . S
C333 C334 1.400 . S
C334 C333 1.400 . S
C334 C335 1.398 . S
C334 C340 1.491 . S
C335 H326 0.950 . S
C335 C334 1.398 . S
C335 C336 1.391 . S
C336 H324 0.950 . S
C336 C332 1.393 . S
C336 C335 1.391 . S
C337 H327 0.950 . S
C337 C338 1.386 . S
C337 C339 1.391 . S
C338 C337 1.386 . S
C338 C342 1.393 . S
C339 H328 0.950 . S
C339 C337 1.391 . S
C339 C340 1.400 . S
C340 C334 1.491 . S
C340 C339 1.400 . S
C340 C341 1.398 . S
C341 H329 0.950 . S
C341 C340 1.398 . S
C341 C342 1.391 . S
C342 H330 0.950 . S
C342 C338 1.393 . S
C342 C341 1.391 . S
H343 C351 0.950 . S
H344 C356 0.950 . S
H345 C353 0.950 . S
H346 C355 0.950 . S
H347 C357 0.950 . S
H348 C359 0.950 . S
H349 C361 0.950 . S
H350 C362 0.950 . S
C351 H343 0.950 . S
C351 C352 1.386 . S
C351 C353 1.391 . S
C352 C351 1.386 . S
C352 C356 1.393 . S
C353 H345 0.950 . S
C353 C351 1.391 . S
C353 C354 1.400 . S
C354 C353 1.400 . S
C354 C355 1.398 . S
C354 C360 1.491 . S
C355 H346 0.950 . S
C355 C354 1.398 . S
C355 C356 1.391 . S
C356 H344 0.950 . S
C356 C352 1.393 . S
C356 C355 1.391 . S
C357 H347 0.950 . S
C357 C358 1.386 . S
C357 C359 1.391 . S
C358 C357 1.386 . S
C358 C362 1.393 . S
C359 H348 0.950 . S
C359 C357 1.391 . S
C359 C360 1.400 . S
C360 C354 1.491 . S
C360 C359 1.400 . S
C360 C361 1.398 . S
C361 H349 0.950 . S
C361 C360 1.398 . S
C361 C362 1.391 . S
C362 H350 0.950 . S
C362 C358 1.393 . S
C362 C361 1.391 . S
H363 C371 0.950 . S
H364 C376 0.950 . S
H365 C373 0.950 . S
H366 C375 0.950 . S
H367 C377 0.950 . S
H368 C379 0.950 . S
H369 C381 0.950 . S
H370 C382 0.950 . S
C371 H363 0.950 . S
C371 C372 1.386 . S
C371 C373 1.391 . S
C372 C371 1.386 . S
C372 C376 1.393 . S
C373 H365 0.950 . S
C373 C371 1.391 . S
C373 C374 1.400 . S
C374 C373 1.400 . S
C374 C375 1.398 . S
C374 C380 1.491 . S
C375 H366 0.950 . S
C375 C374 1.398 . S
C375 C376 1.391 . S
C376 H364 0.950 . S
C376 C372 1.393 . S
C376 C375 1.391 . S
C377 H367 0.950 . S
C377 C378 1.386 . S
C377 C379 1.391 . S
C378 C377 1.386 . S
C378 C382 1.393 . S
C379 H368 0.950 . S
C379 C377 1.391 . S
C379 C380 1.400 . S
C380 C374 1.491 . S
C380 C379 1.400 . S
C380 C381 1.398 . S
C381 H369 0.950 . S
C381 C380 1.398 . S
C381 C382 1.391 . S
C382 H370 0.950 . S
C382 C378 1.393 . S
C382 C381 1.391 . S
H383 C391 0.950 . S
H384 C396 0.950 . S
H385 C393 0.950 . S
H386 C395 0.950 . S
H387 C397 0.950 . S
H388 C399 0.950 . S
H389 C401 0.950 . S
H390 C402 0.950 . S
C391 H383 0.950 . S
C391 C392 1.386 . S
C391 C393 1.391 . S
C392 C391 1.386 . S
C392 C396 1.393 . S
C393 H385 0.950 . S
C393 C391 1.391 . S
C393 C394 1.400 . S
C394 C393 1.400 . S
C394 C395 1.398 . S
C394 C400 1.491 . S
C395 H386 0.950 . S
C395 C394 1.398 . S
C395 C396 1.391 . S
C396 H384 0.950 . S
C396 C392 1.393 . S
C396 C395 1.391 . S
C397 H387 0.950 . S
C397 C398 1.386 . S
C397 C399 1.391 . S
C398 C397 1.386 . S
C398 C402 1.393 . S
C399 H388 0.950 . S
C399 C397 1.391 . S
C399 C400 1.400 . S
C400 C394 1.491 . S
C400 C399 1.400 . S
C400 C401 1.398 . S
C401 H389 0.950 . S
C401 C400 1.398 . S
C401 C402 1.391 . S
C402 H390 0.950 . S
C402 C398 1.393 . S
C402 C401 1.391 . S
H403 C411 0.950 . S
H404 C416 0.950 . S
H405 C413 0.950 . S
H406 C415 0.950 . S
H407 C417 0.950 . S
H408 C419 0.950 . S
H409 C421 0.950 . S
H410 C422 0.950 . S
C411 H403 0.950 . S
C411 C412 1.386 . S
C411 C413 1.391 . S
C412 C411 1.386 . S
C412 C416 1.393 . S
C413 H405 0.950 . S
C413 C411 1.391 . S
C413 C414 1.400 . S
C414 C413 1.400 . S
C414 C415 1.398 . S
C414 C420 1.491 . S
C415 H406 0.950 . S
C415 C414 1.398 . S
C415 C416 1.391 . S
C416 H404 0.950 . S
C416 C412 1.393 . S
C416 C415 1.391 . S
C417 H407 0.950 . S
C417 C418 1.386 . S
C417 C419 1.391 . S
C418 C417 1.386 . S
C418 C422 1.393 . S
C419 H408 0.950 . S
C419 C417 1.391 . S
C419 C420 1.400 . S
C420 C414 1.491 . S
C420 C419 1.400 . S
C420 C421 1.398 . S
C421 H409 0.950 . S
C421 C420 1.398 . S
C421 C422 1.391 . S
C422 H410 0.950 . S
C422 C418 1.393 . S
C422 C421 1.391 . S
H423 C431 0.950 1_655 S
H424 C436 0.950 . S
H425 C433 0.950 1_655 S
H426 C435 0.950 . S
H427 C437 0.950 . S
H428 C439 0.950 1_554 S
H429 C441 0.950 1_655 S
H430 C442 0.950 1_655 S
C431 H423 0.950 1_455 S
C431 C432 1.386 . S
C431 C433 1.391 . S
C432 C431 1.386 . S
C432 C436 1.393 . S
C433 H425 0.950 1_455 S
C433 C431 1.391 . S
C433 C434 1.400 . S
C434 C433 1.400 . S
C434 C435 1.398 . S
C434 C440 1.491 . S
C435 H426 0.950 . S
C435 C434 1.398 . S
C435 C436 1.391 . S
C436 H424 0.950 . S
C436 C432 1.393 . S
C436 C435 1.391 . S
C437 H427 0.950 . S
C437 C438 1.386 . S
C437 C439 1.391 . S
C438 C437 1.386 . S
C438 C442 1.393 . S
C439 H428 0.950 1_556 S
C439 C437 1.391 . S
C439 C440 1.400 1_556 S
C440 C434 1.491 . S
C440 C439 1.400 1_554 S
C440 C441 1.398 1_554 S
C441 H429 0.950 1_455 S
C441 C440 1.398 1_556 S
C441 C442 1.391 . S
C442 H430 0.950 1_455 S
C442 C438 1.393 . S
C442 C441 1.391 . S
H443 C451 0.950 . S
H444 C456 0.950 1_565 S
H445 C453 0.950 . S
H446 C455 0.950 1_565 S
H447 C457 0.950 1_565 S
H448 C459 0.950 1_565 S
H449 C461 0.950 . S
H450 C462 0.950 . S
C451 H443 0.950 . S
C451 C452 1.386 . S
C451 C453 1.391 . S
C452 C451 1.386 . S
C452 C456 1.393 . S
C453 H445 0.950 . S
C453 C451 1.391 . S
C453 C454 1.400 . S
C454 C453 1.400 . S
C454 C455 1.398 . S
C454 C460 1.491 . S
C455 H446 0.950 1_545 S
C455 C454 1.398 . S
C455 C456 1.391 . S
C456 H444 0.950 1_545 S
C456 C452 1.393 . S
C456 C455 1.391 . S
C457 H447 0.950 1_545 S
C457 C458 1.386 . S
C457 C459 1.391 . S
C458 C457 1.386 . S
C458 C462 1.393 . S
C459 H448 0.950 1_545 S
C459 C457 1.391 . S
C459 C460 1.400 . S
C460 C454 1.491 . S
C460 C459 1.400 . S
C460 C461 1.398 . S
C461 H449 0.950 . S
C461 C460 1.398 . S
C461 C462 1.391 . S
C462 H450 0.950 . S
C462 C458 1.393 . S
C462 C461 1.391 . S
H463 C471 0.950 . S
H464 C476 0.950 . S
H465 C473 0.950 . S
H466 C475 0.950 . S
H467 C477 0.950 . S
H468 C479 0.950 . S
H469 C481 0.950 . S
H470 C482 0.950 . S
C471 H463 0.950 . S
C471 C472 1.386 . S
C471 C473 1.391 . S
C472 C471 1.386 . S
C472 C476 1.393 . S
C473 H465 0.950 . S
C473 C471 1.391 . S
C473 C474 1.400 . S
C474 C473 1.400 . S
C474 C475 1.398 . S
C474 C480 1.491 . S
C475 H466 0.950 . S
C475 C474 1.398 . S
C475 C476 1.391 . S
C476 H464 0.950 . S
C476 C472 1.393 . S
C476 C475 1.391 . S
C477 H467 0.950 . S
C477 C478 1.386 . S
C477 C479 1.391 . S
C478 C477 1.386 . S
C478 C482 1.393 . S
C479 H468 0.950 . S
C479 C477 1.391 . S
C479 C480 1.400 . S
C480 C474 1.491 . S
C480 C479 1.400 . S
C480 C481 1.398 . S
C481 H469 0.950 . S
C481 C480 1.398 . S
C481 C482 1.391 . S
C482 H470 0.950 . S
C482 C478 1.393 . S
C482 C481 1.391 . S
H483 C491 0.950 . S
H484 C496 0.950 . S
H485 C493 0.950 . S
H486 C495 0.950 1_565 S
H487 C497 0.950 1_565 S
H488 C499 0.950 1_565 S
H489 C501 0.950 . S
H490 C502 0.950 . S
C491 H483 0.950 . S
C491 C492 1.386 . S
C491 C493 1.391 . S
C492 C491 1.386 . S
C492 C496 1.393 . S
C493 H485 0.950 . S
C493 C491 1.391 . S
C493 C494 1.400 . S
C494 C493 1.400 . S
C494 C495 1.398 . S
C494 C500 1.491 . S
C495 H486 0.950 1_545 S
C495 C494 1.398 . S
C495 C496 1.391 . S
C496 H484 0.950 . S
C496 C492 1.393 . S
C496 C495 1.391 . S
C497 H487 0.950 1_545 S
C497 C498 1.386 . S
C497 C499 1.391 . S
C498 C497 1.386 . S
C498 C502 1.393 . S
C499 H488 0.950 1_545 S
C499 C497 1.391 . S
C499 C500 1.400 . S
C500 C494 1.491 . S
C500 C499 1.400 . S
C500 C501 1.398 . S
C501 H489 0.950 . S
C501 C500 1.398 . S
C501 C502 1.391 . S
C502 H490 0.950 . S
C502 C498 1.393 . S
C502 C501 1.391 . S
H503 C511 0.950 . S
H504 C516 0.950 . S
H505 C513 0.950 . S
H506 C515 0.950 . S
H507 C517 0.950 . S
H508 C519 0.950 1_556 S
H509 C521 0.950 . S
H510 C522 0.950 . S
C511 H503 0.950 . S
C511 C512 1.386 . S
C511 C513 1.391 . S
C512 C511 1.386 . S
C512 C516 1.393 . S
C513 H505 0.950 . S
C513 C511 1.391 . S
C513 C514 1.400 . S
C514 C513 1.400 . S
C514 C515 1.398 . S
C514 C520 1.491 . S
C515 H506 0.950 . S
C515 C514 1.398 . S
C515 C516 1.391 . S
C516 H504 0.950 . S
C516 C512 1.393 . S
C516 C515 1.391 . S
C517 H507 0.950 . S
C517 C518 1.386 . S
C517 C519 1.391 . S
C518 C517 1.386 . S
C518 C522 1.393 . S
C519 H508 0.950 1_554 S
C519 C517 1.391 . S
C519 C520 1.400 1_554 S
C520 C514 1.491 . S
C520 C519 1.400 1_556 S
C520 C521 1.398 1_556 S
C521 H509 0.950 . S
C521 C520 1.398 1_554 S
C521 C522 1.391 . S
C522 H510 0.950 . S
C522 C518 1.393 . S
C522 C521 1.391 . S
H523 C531 0.950 . S
H524 C536 0.950 1_655 S
H525 C533 0.950 . S
H526 C535 0.950 1_655 S
H527 C537 0.954 . S
H528 C539 0.950 1_655 S
H529 C541 0.950 . S
H530 C542 0.950 . S
C531 H523 0.950 . S
C531 C532 1.386 . S
C531 C533 1.391 . S
C532 C531 1.386 . S
C532 C536 1.393 . S
C533 H525 0.950 . S
C533 C531 1.391 . S
C533 C534 1.400 . S
C534 C533 1.400 . S
C534 C535 1.398 . S
C534 C540 1.491 . S
C535 H526 0.950 1_455 S
C535 C534 1.398 . S
C535 C536 1.391 . S
C536 H524 0.950 1_455 S
C536 C532 1.393 . S
C536 C535 1.391 . S
C537 H527 0.954 . S
C537 C538 1.381 1_655 S
C537 C539 1.391 1_655 S
C538 C537 1.381 1_455 S
C538 C542 1.393 . S
C539 H528 0.950 1_455 S
C539 C537 1.391 1_455 S
C539 C540 1.400 . S
C540 C534 1.491 . S
C540 C539 1.400 . S
C540 C541 1.398 . S
C541 H529 0.950 . S
C541 C540 1.398 . S
C541 C542 1.391 . S
C542 H530 0.950 . S
C542 C538 1.393 . S
C542 C541 1.391 . S
C192 C20 1.305 . S
C198 C175 1.238 . S
C212 C41 1.315 . S
C218 C137 1.270 . S
C232 C64 1.339 . S
C238 C156 1.289 . S
C252 C19 1.269 . S
C258 C170 1.342 . S
C278 C132 1.295 . S
C272 C44 1.284 . S
C298 C151 1.249 . S
C292 C67 1.246 . S
C312 C43 1.281 . S
C318 C99 1.252 . S
C332 C66 1.175 . S
C338 C113 1.224 1_655 S
C352 C21 1.281 . S
C358 C75 1.293 1_565 S
C378 C94 1.328 . S
C372 C42 1.262 . S
C398 C118 1.296 . S
C392 C65 1.284 . S
C412 C18 1.314 . S
C418 C80 1.254 . S
C438 C109 1.582 . S
C432 C17 1.588 . S
C452 C39 1.587 . S
C458 C71 1.570 . S
C472 C62 1.584 . S
C478 C90 1.574 . S
C498 C147 1.577 . S
C492 C40 1.582 . S
C518 C166 1.557 . S
C512 C63 1.570 . S
C532 C16 1.592 . S
C538 C128 1.578 . S
