# Generated by pormake.
# Topology ctn, (3,4)-cn, num edge types: 1
# Building blocks:
#     Node 0, Type 0, BuildingBlock: BELTOD_clean_linker_0, # of connection points: 3
#     Node 1, Type 0, BuildingBlock: BELTOD_clean_linker_0, # of connection points: 3
#     Node 2, Type 0, BuildingBlock: BELTOD_clean_linker_0, # of connection points: 3
#     Node 3, Type 0, BuildingBlock: BELTOD_clean_linker_0, # of connection points: 3
#     Node 4, Type 0, BuildingBlock: BELTOD_clean_linker_0, # of connection points: 3
#     Node 5, Type 0, BuildingBlock: BELTOD_clean_linker_0, # of connection points: 3
#     Node 6, Type 0, BuildingBlock: BELTOD_clean_linker_0, # of connection points: 3
#     Node 7, Type 0, BuildingBlock: BELTOD_clean_linker_0, # of connection points: 3
#     Node 8, Type 0, BuildingBlock: BELTOD_clean_linker_0, # of connection points: 3
#     Node 9, Type 0, BuildingBlock: BELTOD_clean_linker_0, # of connection points: 3
#     Node 10, Type 0, BuildingBlock: BELTOD_clean_linker_0, # of connection points: 3
#     Node 11, Type 0, BuildingBlock: BELTOD_clean_linker_0, # of connection points: 3
#     Node 12, Type 0, BuildingBlock: BELTOD_clean_linker_0, # of connection points: 3
#     Node 13, Type 0, BuildingBlock: BELTOD_clean_linker_0, # of connection points: 3
#     Node 14, Type 0, BuildingBlock: BELTOD_clean_linker_0, # of connection points: 3
#     Node 15, Type 0, BuildingBlock: BELTOD_clean_linker_0, # of connection points: 3
#     Node 16, Type 1, BuildingBlock: UXUYUI_clean_sbu_0, # of connection points: 4
#     Node 17, Type 1, BuildingBlock: UXUYUI_clean_sbu_0, # of connection points: 4
#     Node 18, Type 1, BuildingBlock: UXUYUI_clean_sbu_0, # of connection points: 4
#     Node 19, Type 1, BuildingBlock: UXUYUI_clean_sbu_0, # of connection points: 4
#     Node 20, Type 1, BuildingBlock: UXUYUI_clean_sbu_0, # of connection points: 4
#     Node 21, Type 1, BuildingBlock: UXUYUI_clean_sbu_0, # of connection points: 4
#     Node 22, Type 1, BuildingBlock: UXUYUI_clean_sbu_0, # of connection points: 4
#     Node 23, Type 1, BuildingBlock: UXUYUI_clean_sbu_0, # of connection points: 4
#     Node 24, Type 1, BuildingBlock: UXUYUI_clean_sbu_0, # of connection points: 4
#     Node 25, Type 1, BuildingBlock: UXUYUI_clean_sbu_0, # of connection points: 4
#     Node 26, Type 1, BuildingBlock: UXUYUI_clean_sbu_0, # of connection points: 4
#     Node 27, Type 1, BuildingBlock: UXUYUI_clean_sbu_0, # of connection points: 4
#     Edge 28, Type (0, 1), BuildingBlock: AJUNOK_clean_linker_0, # of connection points: 2
#     Edge 29, Type (0, 1), BuildingBlock: AJUNOK_clean_linker_0, # of connection points: 2
#     Edge 30, Type (0, 1), BuildingBlock: AJUNOK_clean_linker_0, # of connection points: 2
#     Edge 31, Type (0, 1), BuildingBlock: AJUNOK_clean_linker_0, # of connection points: 2
#     Edge 32, Type (0, 1), BuildingBlock: AJUNOK_clean_linker_0, # of connection points: 2
#     Edge 33, Type (0, 1), BuildingBlock: AJUNOK_clean_linker_0, # of connection points: 2
#     Edge 34, Type (0, 1), BuildingBlock: AJUNOK_clean_linker_0, # of connection points: 2
#     Edge 35, Type (0, 1), BuildingBlock: AJUNOK_clean_linker_0, # of connection points: 2
#     Edge 36, Type (0, 1), BuildingBlock: AJUNOK_clean_linker_0, # of connection points: 2
#     Edge 37, Type (0, 1), BuildingBlock: AJUNOK_clean_linker_0, # of connection points: 2
#     Edge 38, Type (0, 1), BuildingBlock: AJUNOK_clean_linker_0, # of connection points: 2
#     Edge 39, Type (0, 1), BuildingBlock: AJUNOK_clean_linker_0, # of connection points: 2
#     Edge 40, Type (0, 1), BuildingBlock: AJUNOK_clean_linker_0, # of connection points: 2
#     Edge 41, Type (0, 1), BuildingBlock: AJUNOK_clean_linker_0, # of connection points: 2
#     Edge 42, Type (0, 1), BuildingBlock: AJUNOK_clean_linker_0, # of connection points: 2
#     Edge 43, Type (0, 1), BuildingBlock: AJUNOK_clean_linker_0, # of connection points: 2
#     Edge 44, Type (0, 1), BuildingBlock: AJUNOK_clean_linker_0, # of connection points: 2
#     Edge 45, Type (0, 1), BuildingBlock: AJUNOK_clean_linker_0, # of connection points: 2
#     Edge 46, Type (0, 1), BuildingBlock: AJUNOK_clean_linker_0, # of connection points: 2
#     Edge 47, Type (0, 1), BuildingBlock: AJUNOK_clean_linker_0, # of connection points: 2
#     Edge 48, Type (0, 1), BuildingBlock: AJUNOK_clean_linker_0, # of connection points: 2
#     Edge 49, Type (0, 1), BuildingBlock: AJUNOK_clean_linker_0, # of connection points: 2
#     Edge 50, Type (0, 1), BuildingBlock: AJUNOK_clean_linker_0, # of connection points: 2
#     Edge 51, Type (0, 1), BuildingBlock: AJUNOK_clean_linker_0, # of connection points: 2
#     Edge 52, Type (0, 1), BuildingBlock: AJUNOK_clean_linker_0, # of connection points: 2
#     Edge 53, Type (0, 1), BuildingBlock: AJUNOK_clean_linker_0, # of connection points: 2
#     Edge 54, Type (0, 1), BuildingBlock: AJUNOK_clean_linker_0, # of connection points: 2
#     Edge 55, Type (0, 1), BuildingBlock: AJUNOK_clean_linker_0, # of connection points: 2
#     Edge 56, Type (0, 1), BuildingBlock: AJUNOK_clean_linker_0, # of connection points: 2
#     Edge 57, Type (0, 1), BuildingBlock: AJUNOK_clean_linker_0, # of connection points: 2
#     Edge 58, Type (0, 1), BuildingBlock: AJUNOK_clean_linker_0, # of connection points: 2
#     Edge 59, Type (0, 1), BuildingBlock: AJUNOK_clean_linker_0, # of connection points: 2
#     Edge 60, Type (0, 1), BuildingBlock: AJUNOK_clean_linker_0, # of connection points: 2
#     Edge 61, Type (0, 1), BuildingBlock: AJUNOK_clean_linker_0, # of connection points: 2
#     Edge 62, Type (0, 1), BuildingBlock: AJUNOK_clean_linker_0, # of connection points: 2
#     Edge 63, Type (0, 1), BuildingBlock: AJUNOK_clean_linker_0, # of connection points: 2
#     Edge 64, Type (0, 1), BuildingBlock: AJUNOK_clean_linker_0, # of connection points: 2
#     Edge 65, Type (0, 1), BuildingBlock: AJUNOK_clean_linker_0, # of connection points: 2
#     Edge 66, Type (0, 1), BuildingBlock: AJUNOK_clean_linker_0, # of connection points: 2
#     Edge 67, Type (0, 1), BuildingBlock: AJUNOK_clean_linker_0, # of connection points: 2
#     Edge 68, Type (0, 1), BuildingBlock: AJUNOK_clean_linker_0, # of connection points: 2
#     Edge 69, Type (0, 1), BuildingBlock: AJUNOK_clean_linker_0, # of connection points: 2
#     Edge 70, Type (0, 1), BuildingBlock: AJUNOK_clean_linker_0, # of connection points: 2
#     Edge 71, Type (0, 1), BuildingBlock: AJUNOK_clean_linker_0, # of connection points: 2
#     Edge 72, Type (0, 1), BuildingBlock: AJUNOK_clean_linker_0, # of connection points: 2
#     Edge 73, Type (0, 1), BuildingBlock: AJUNOK_clean_linker_0, # of connection points: 2
#     Edge 74, Type (0, 1), BuildingBlock: AJUNOK_clean_linker_0, # of connection points: 2
#     Edge 75, Type (0, 1), BuildingBlock: AJUNOK_clean_linker_0, # of connection points: 2
# Relax obj value: 0.001
# Max RMSD: 0.017
# Mean RMSD: 0.012
data_MOF--net-ctn--node1-UXUYUI_clean_sbu_0--node2-BELTOD_clean_linker_0--edge1-AJUNOK_clean_linker_0
_symmetry_space_group_name_H-M    P1
_symmetry_Int_Tables_number       1
_symmetry_cell_setting            triclinic
loop_
_symmetry_equiv_pos_as_xyz
'x, y, z'
_cell_length_a     60.82506
_cell_length_b     61.265879
_cell_length_c     60.693313
_cell_angle_alpha  89.374208
_cell_angle_beta   90.10764
_cell_angle_gamma 90.740558
loop_
_atom_site_label
_atom_site_type_symbol
_atom_site_fract_x
_atom_site_fract_y
_atom_site_fract_z
_atom_type_partial_charge
P0 P 0.06491 0.06273 0.06951 0.0
H1 H 0.06232 0.03095 0.10525 0.0
H2 H 0.03253 0.01939 0.12997 0.0
H3 H 0.98744 0.06016 0.09369 0.0
H4 H 0.01719 0.07138 0.06879 0.0
H5 H 0.11116 0.06212 0.0577 0.0
H6 H 0.13571 0.03304 0.04636 0.0
H7 H 0.08081 0.98763 0.04571 0.0
H8 H 0.05631 0.01684 0.05738 0.0
H9 H 0.0561 0.10923 0.06964 0.0
H10 H 0.05468 0.05724 0.02232 0.0
O11 O 0.08026 0.07688 0.08731 0.0
H12 H 0.04593 0.13537 0.0408 0.0
H13 H 0.04467 0.08349 0.9932 0.0
C14 C 0.04196 0.05182 0.08504 0.0
C15 C 0.04591 0.03702 0.10232 0.0
C16 C 0.02893 0.03055 0.11652 0.0
C17 C 0.00764 0.03882 0.11373 0.0
C18 C 0.00358 0.05322 0.09602 0.0
C19 C 0.02063 0.05971 0.08181 0.0
C20 C 0.08205 0.0415 0.05889 0.0
C21 C 0.10438 0.04592 0.05506 0.0
C22 C 0.11838 0.02931 0.0485 0.0
C23 C 0.11027 0.00795 0.04554 0.0
C24 C 0.08763 0.0038 0.04841 0.0
C25 C 0.07361 0.02049 0.05497 0.0
C26 C 0.05656 0.0814 0.04802 0.0
C27 C 0.05366 0.10345 0.053 0.0
C28 C 0.04786 0.11838 0.03652 0.0
C29 C 0.04459 0.1115 0.01474 0.0
C30 C 0.04691 0.08923 0.00988 0.0
C31 C 0.05278 0.07426 0.02645 0.0
P32 P 0.31061 0.69601 0.20206 0.0
H33 H 0.32696 0.71172 0.15959 0.0
H34 H 0.31558 0.74085 0.13461 0.0
H35 H 0.26631 0.76025 0.18146 0.0
H36 H 0.27721 0.73019 0.20606 0.0
H37 H 0.35001 0.67652 0.2207 0.0
H38 H 0.3755 0.68769 0.24968 0.0
H39 H 0.33695 0.74521 0.26088 0.0
H40 H 0.31158 0.73409 0.23144 0.0
H41 H 0.26795 0.68437 0.18317 0.0
H42 H 0.3023 0.67401 0.24457 0.0
O43 O 0.32388 0.67825 0.18641 0.0
H44 H 0.23902 0.65875 0.19515 0.0
H45 H 0.27329 0.64867 0.2567 0.0
C46 C 0.30268 0.71855 0.18452 0.0
C47 C 0.31362 0.72213 0.16448 0.0
C48 C 0.30718 0.73893 0.15025 0.0
C49 C 0.28982 0.75274 0.15586 0.0
C50 C 0.27934 0.74955 0.17634 0.0
C51 C 0.28568 0.73253 0.19052 0.0
C52 C 0.32919 0.70475 0.22352 0.0
C53 C 0.34711 0.69166 0.22921 0.0
C54 C 0.36159 0.69796 0.24591 0.0
C55 C 0.3584 0.71746 0.25738 0.0
C56 C 0.34012 0.73035 0.25199 0.0
C57 C 0.32558 0.72399 0.23522 0.0
C58 C 0.28714 0.68139 0.21308 0.0
C59 C 0.26896 0.67709 0.19947 0.0
C60 C 0.25247 0.66241 0.20631 0.0
C61 C 0.25406 0.65152 0.22674 0.0
C62 C 0.27182 0.65657 0.24072 0.0
C63 C 0.2883 0.67125 0.23387 0.0
P64 P 0.98198 0.48178 0.02869 0.0
H65 H 0.98404 0.47158 0.9821 0.0
H66 H 0.98454 0.4372 0.96202 0.0
H67 H 0.97581 0.40147 0.02314 0.0
H68 H 0.97527 0.43607 0.04325 0.0
H69 H 0.97131 0.52754 0.03293 0.0
H70 H 0.93668 0.54736 0.03249 0.0
H71 H 0.90083 0.48643 0.0263 0.0
H72 H 0.93568 0.46658 0.02697 0.0
H73 H 0.0248 0.46678 0.04272 0.0
H74 H 0.9657 0.48919 0.07388 0.0
O75 O 0.99937 0.49789 0.01456 0.0
H76 H 0.04342 0.46594 0.07842 0.0
H77 H 0.98412 0.48792 0.10979 0.0
C78 C 0.98004 0.45633 0.01418 0.0
C79 C 0.98212 0.45637 0.99119 0.0
C80 C 0.98243 0.43674 0.97974 0.0
C81 C 0.98035 0.41668 0.99104 0.0
C82 C 0.97732 0.4167 0.01402 0.0
C83 C 0.97713 0.43642 0.02551 0.0
C84 C 0.95606 0.49566 0.02958 0.0
C85 C 0.95601 0.51842 0.03152 0.0
C86 C 0.93623 0.52973 0.03124 0.0
C87 C 0.91608 0.51845 0.02926 0.0
C88 C 0.91612 0.49553 0.02801 0.0
C89 C 0.936 0.48419 0.02824 0.0
C90 C 0.99394 0.47811 0.05563 0.0
C91 C 0.0157 0.47108 0.05734 0.0
C92 C 0.02627 0.47045 0.07779 0.0
C93 C 0.01518 0.47669 0.09698 0.0
C94 C 0.99309 0.48308 0.09528 0.0
C95 C 0.98253 0.48375 0.07476 0.0
P96 P 0.69722 0.81144 0.1956 0.0
H97 H 0.72049 0.84692 0.17312 0.0
H98 H 0.74839 0.87336 0.18496 0.0
H99 H 0.7497 0.84284 0.2494 0.0
H100 H 0.72184 0.81617 0.23736 0.0
H101 H 0.67552 0.77177 0.18067 0.0
H102 H 0.68734 0.74235 0.15667 0.0
H103 H 0.75331 0.76928 0.15655 0.0
H104 H 0.74126 0.79898 0.18011 0.0
H105 H 0.65581 0.82987 0.20999 0.0
H106 H 0.69849 0.77781 0.23066 0.0
O107 O 0.68251 0.82462 0.17653 0.0
H108 H 0.62967 0.81959 0.23893 0.0
H109 H 0.67228 0.76758 0.26002 0.0
C110 C 0.71878 0.82985 0.20448 0.0
C111 C 0.72677 0.84586 0.1898 0.0
C112 C 0.7427 0.86098 0.19658 0.0
C113 C 0.75115 0.86022 0.21812 0.0
C114 C 0.74362 0.8437 0.23264 0.0
C115 C 0.72759 0.82856 0.22582 0.0
C116 C 0.70751 0.78749 0.18231 0.0
C117 C 0.69264 0.77109 0.17586 0.0
C118 C 0.69941 0.75429 0.16213 0.0
C119 C 0.72117 0.75369 0.15443 0.0
C120 C 0.73631 0.76957 0.16182 0.0
C121 C 0.72949 0.78644 0.1755 0.0
C122 C 0.67887 0.80432 0.21791 0.0
C123 C 0.65956 0.8162 0.22074 0.0
C124 C 0.64461 0.81031 0.23725 0.0
C125 C 0.64883 0.79258 0.25142 0.0
C126 C 0.66862 0.78122 0.24918 0.0
C127 C 0.68352 0.78701 0.23243 0.0
P128 P 0.06258 0.94618 0.44846 0.0
H129 H 0.10559 0.94477 0.46913 0.0
H130 H 0.1319 0.97307 0.48039 0.0
H131 H 0.08593 0.02272 0.46044 0.0
H132 H 0.05938 0.99433 0.45002 0.0
H133 H 0.03894 0.90477 0.4476 0.0
H134 H 0.02752 0.87874 0.47639 0.0
H135 H 0.05318 0.92213 0.52604 0.0
H136 H 0.06443 0.94826 0.49718 0.0
H137 H 0.06251 0.96959 0.40666 0.0
H138 H 0.01414 0.94642 0.45356 0.0
O139 O 0.07764 0.93081 0.4319 0.0
H140 H 0.0331 0.98176 0.38201 0.0
H141 H 0.98466 0.9584 0.42882 0.0
C142 C 0.08062 0.96741 0.45859 0.0
C143 C 0.10108 0.96175 0.46745 0.0
C144 C 0.11613 0.97793 0.47378 0.0
C145 C 0.11102 1.00015 0.4713 0.0
C146 C 0.09024 0.00577 0.4629 0.0
C147 C 0.07511 0.98952 0.45673 0.0
C148 C 0.0526 0.92838 0.47021 0.0
C149 C 0.04188 0.9088 0.46469 0.0
C150 C 0.03529 0.894 0.48114 0.0
C151 C 0.0394 0.89849 0.50343 0.0
C152 C 0.04989 0.91827 0.50896 0.0
C153 C 0.05629 0.9332 0.49247 0.0
C154 C 0.04055 0.95696 0.43184 0.0
C155 C 0.04556 0.96732 0.41174 0.0
C156 C 0.02877 0.97436 0.39773 0.0
C157 C 0.00662 0.97107 0.40357 0.0
C158 C 1.00162 0.96105 0.42393 0.0
C159 C 0.01847 0.9542 0.43805 0.0
P160 P 0.23311 0.73159 0.78001 0.0
H161 H 0.26704 0.74192 0.81203 0.0
H162 H 0.26643 0.76077 0.84736 0.0
H163 H 0.19553 0.76257 0.84439 0.0
H164 H 0.19627 0.74412 0.80882 0.0
H165 H 0.25128 0.7077 0.74356 0.0
H166 H 0.27093 0.6732 0.74123 0.0
H167 H 0.2607 0.66194 0.8108 0.0
H168 H 0.24082 0.69654 0.81305 0.0
H169 H 0.21117 0.76604 0.75545 0.0
H170 H 0.19711 0.69933 0.77458 0.0
O171 O 0.25012 0.74844 0.76629 0.0
H172 H 0.17668 0.76731 0.73475 0.0
H173 H 0.16238 0.70054 0.75375 0.0
C174 C 0.23176 0.7418 0.80771 0.0
C175 C 0.25135 0.74613 0.81913 0.0
C176 C 0.25098 0.75686 0.83933 0.0
C177 C 0.23096 0.76352 0.84846 0.0
C178 C 0.21124 0.75813 0.8375 0.0
C179 C 0.21164 0.74741 0.81724 0.0
C180 C 0.24499 0.70486 0.77853 0.0
C181 C 0.25313 0.69775 0.7583 0.0
C182 C 0.26442 0.67811 0.75699 0.0
C183 C 0.26771 0.66516 0.77593 0.0
C184 C 0.2585 0.67172 0.796 0.0
C185 C 0.24723 0.69149 0.79731 0.0
C186 C 0.20693 0.73242 0.76607 0.0
C187 C 0.20068 0.75162 0.75513 0.0
C188 C 0.18101 0.75233 0.74326 0.0
C189 C 0.16712 0.73387 0.74228 0.0
C190 C 0.17292 0.71492 0.7541 0.0
C191 C 0.19274 0.71419 0.76592 0.0
P192 P 0.98243 0.52319 0.49048 0.0
H193 H 0.0287 0.51897 0.48004 0.0
H194 H 0.04894 0.51745 0.44537 0.0
H195 H 0.98866 0.5277 0.40926 0.0
H196 H 0.96845 0.52966 0.44423 0.0
H197 H 0.0127 0.54162 0.52267 0.0
H198 H 0.01487 0.57671 0.5411 0.0
H199 H 0.95831 0.59861 0.5042 0.0
H200 H 0.95695 0.56361 0.48493 0.0
H201 H 0.96403 0.48692 0.46557 0.0
H202 H 0.94035 0.53435 0.51152 0.0
O203 O 0.99536 0.50563 0.50708 0.0
H204 H 0.92841 0.46803 0.46677 0.0
H205 H 0.90438 0.51642 0.51169 0.0
C206 C 0.997 0.52376 0.46466 0.0
C207 C 0.01981 0.52087 0.46468 0.0
C208 C 0.03134 0.5199 0.44486 0.0
C209 C 0.02028 0.52186 0.4246 0.0
C210 C 0.99756 0.52591 0.42463 0.0
C211 C 0.986 0.52692 0.44456 0.0
C212 C 0.98423 0.54976 0.50293 0.0
C213 C 1.00078 0.55396 0.51846 0.0
C214 C 1.00197 0.57405 0.52905 0.0
C215 C 0.98665 0.59044 0.52432 0.0
C216 C 0.97052 0.58646 0.5081 0.0
C217 C 0.96955 0.56637 0.49726 0.0
C218 C 0.95476 0.51247 0.48792 0.0
C219 C 0.95095 0.49373 0.47533 0.0
C220 C 0.93057 0.4829 0.47606 0.0
C221 C 0.9136 0.49053 0.48956 0.0
C222 C 0.91723 0.50979 0.50153 0.0
C223 C 0.93774 0.52038 0.50106 0.0
P224 P 0.81135 0.81317 0.81428 0.0
H225 H 0.8568 0.82459 0.80303 0.0
H226 H 0.88163 0.8124 0.77432 0.0
H227 H 0.83091 0.76912 0.74966 0.0
H228 H 0.80581 0.78174 0.77844 0.0
H229 H 0.76825 0.82191 0.83311 0.0
H230 H 0.73839 0.84572 0.82141 0.0
H231 H 0.77289 0.8601 0.76077 0.0
H232 H 0.80283 0.83632 0.77262 0.0
H233 H 0.83168 0.79632 0.85429 0.0
H234 H 0.776 0.77978 0.8134 0.0
O235 O 0.82476 0.83169 0.82936 0.0
H236 H 0.82169 0.7669 0.88 0.0
H237 H 0.76562 0.75042 0.8394 0.0
C238 C 0.82943 0.80409 0.79284 0.0
C239 C 0.85091 0.81253 0.79146 0.0
C240 C 0.86516 0.80549 0.77507 0.0
C241 C 0.8582 0.78988 0.75968 0.0
C242 C 0.83662 0.78141 0.76109 0.0
C243 C 0.82233 0.78849 0.77757 0.0
C244 C 0.78748 0.82678 0.80347 0.0
C245 C 0.76907 0.82958 0.81697 0.0
C246 C 0.752 0.84322 0.81027 0.0
C247 C 0.75318 0.85457 0.79004 0.0
C248 C 0.77149 0.85146 0.77638 0.0
C249 C 0.78852 0.83773 0.78307 0.0
C250 C 0.80429 0.79053 0.83223 0.0
C251 C 0.81726 0.78637 0.85086 0.0
C252 C 0.81153 0.76956 0.86556 0.0
C253 C 0.79282 0.75643 0.86179 0.0
C254 C 0.78024 0.76015 0.84265 0.0
C255 C 0.78604 0.77701 0.82789 0.0
P256 P 0.31257 0.31494 0.31392 0.0
H257 H 0.32125 0.3343 0.27055 0.0
H258 H 0.3457 0.32395 0.24059 0.0
H259 H 0.36101 0.26423 0.27544 0.0
H260 H 0.3361 0.27433 0.30505 0.0
H261 H 0.29907 0.35731 0.33032 0.0
H262 H 0.2697 0.3822 0.31982 0.0
H263 H 0.24661 0.33627 0.27132 0.0
H264 H 0.27644 0.31136 0.28167 0.0
H265 H 0.33549 0.29123 0.34854 0.0
H266 H 0.27079 0.29014 0.31935 0.0
O267 O 0.33116 0.32998 0.32744 0.0
H268 H 0.3242 0.26251 0.37454 0.0
H269 H 0.25944 0.26121 0.34531 0.0
C270 C 0.3265 0.30495 0.28992 0.0
C271 C 0.32936 0.31869 0.27148 0.0
C272 C 0.34358 0.3129 0.25449 0.0
C273 C 0.35555 0.29345 0.25585 0.0
C274 C 0.35196 0.27929 0.2739 0.0
C275 C 0.33767 0.28506 0.29085 0.0
C276 C 0.29009 0.33257 0.30661 0.0
C277 C 0.28777 0.35252 0.3174 0.0
C278 C 0.27098 0.36676 0.31141 0.0
C279 C 0.25595 0.36114 0.29477 0.0
C280 C 0.25793 0.3409 0.2843 0.0
C281 C 0.27495 0.32673 0.29014 0.0
C282 C 0.30388 0.29315 0.33228 0.0
C283 C 0.31883 0.28484 0.34774 0.0
C284 C 0.31241 0.26834 0.36251 0.0
C285 C 0.29086 0.25983 0.36214 0.0
C286 C 0.27602 0.26779 0.34626 0.0
C287 C 0.28252 0.28427 0.33136 0.0
P288 P 0.48514 0.98695 0.52513 0.0
H289 H 0.47897 0.97503 0.47946 0.0
H290 H 0.47765 0.94006 0.4606 0.0
H291 H 0.48137 0.90629 0.52333 0.0
H292 H 0.48327 0.94154 0.54214 0.0
H293 H 0.47469 0.0326 0.51687 0.0
H294 H 0.44014 0.0525 0.51577 0.0
H295 H 0.40479 0.99386 0.53504 0.0
H296 H 0.43961 0.97373 0.53585 0.0
H297 H 0.53014 0.97849 0.53794 0.0
H298 H 0.46864 0.98983 0.57089 0.0
O299 O 0.50248 1.00137 0.50921 0.0
H300 H 0.54917 0.97798 0.57349 0.0
H301 H 0.48768 0.98937 0.60659 0.0
C302 C 0.48148 0.96087 0.51213 0.0
C303 C 0.47928 0.9601 0.48919 0.0
C304 C 0.47833 0.94008 0.47843 0.0
C305 C 0.47922 0.92037 0.49048 0.0
C306 C 0.48075 0.9212 0.5136 0.0
C307 C 0.48178 0.94132 0.52437 0.0
C308 C 0.45964 1.00159 0.526 0.0
C309 C 0.45955 0.02393 0.52082 0.0
C310 C 0.43982 0.03531 0.52018 0.0
C311 C 0.41984 0.02461 0.52501 0.0
C312 C 0.42001 1.00241 0.53114 0.0
C313 C 0.43982 0.99094 0.53154 0.0
C314 C 0.49808 0.98455 0.55176 0.0
C315 C 0.52071 0.98075 0.55285 0.0
C316 C 0.53157 0.9805 0.57313 0.0
C317 C 0.51991 0.98374 0.59275 0.0
C318 C 0.49703 0.98668 0.59172 0.0
C319 C 0.48617 0.98707 0.57132 0.0
P320 P 0.19634 0.31119 0.69851 0.0
H321 H 0.21705 0.34858 0.67662 0.0
H322 H 0.24608 0.37416 0.6876 0.0
H323 H 0.25591 0.33703 0.74765 0.0
H324 H 0.22634 0.31169 0.73673 0.0
H325 H 0.17343 0.28684 0.66454 0.0
H326 H 0.18429 0.2574 0.64022 0.0
H327 H 0.24861 0.25681 0.67045 0.0
H328 H 0.23767 0.28665 0.69472 0.0
H329 H 0.17985 0.33357 0.73703 0.0
H330 H 0.17837 0.26801 0.7118 0.0
O331 O 0.17902 0.32645 0.68379 0.0
H332 H 0.15431 0.32245 0.76635 0.0
H333 H 0.15306 0.25682 0.74117 0.0
C334 C 0.21919 0.32858 0.70612 0.0
C335 C 0.22542 0.34594 0.69217 0.0
C336 C 0.24211 0.36049 0.69841 0.0
C337 C 0.25302 0.35787 0.71868 0.0
C338 C 0.24739 0.33983 0.73221 0.0
C339 C 0.23061 0.32527 0.72594 0.0
C340 C 0.20484 0.28913 0.68119 0.0
C341 C 0.18988 0.2804 0.66596 0.0
C342 C 0.19603 0.26342 0.65221 0.0
C343 C 0.21723 0.25465 0.65359 0.0
C344 C 0.23218 0.2633 0.66903 0.0
C345 C 0.22595 0.28032 0.68288 0.0
C346 C 0.18114 0.30163 0.72229 0.0
C347 C 0.17442 0.31668 0.73808 0.0
C348 C 0.15982 0.31033 0.7548 0.0
C349 C 0.15147 0.28885 0.75585 0.0
C350 C 0.15892 0.27358 0.74052 0.0
C351 C 0.17356 0.27995 0.72381 0.0
P352 P 0.81096 0.1942 0.69984 0.0
H353 H 0.834 0.21827 0.66532 0.0
H354 H 0.82347 0.24816 0.64071 0.0
H355 H 0.76065 0.25173 0.67345 0.0
H356 H 0.77121 0.22137 0.69789 0.0
H357 H 0.84509 0.17091 0.72354 0.0
H358 H 0.87098 0.18148 0.7525 0.0
H359 H 0.84251 0.24566 0.75398 0.0
H360 H 0.81632 0.23482 0.72515 0.0
H361 H 0.77367 0.17491 0.67688 0.0
H362 H 0.79689 0.17865 0.74394 0.0
O363 O 0.82502 0.17759 0.6836 0.0
H364 H 0.74462 0.14926 0.6885 0.0
H365 H 0.76773 0.15326 0.75566 0.0
C366 C 0.80325 0.21739 0.68315 0.0
C367 C 0.81799 0.22554 0.66729 0.0
C368 C 0.81203 0.24278 0.65337 0.0
C369 C 0.79129 0.25242 0.65526 0.0
C370 C 0.77671 0.24454 0.67157 0.0
C371 C 0.78272 0.22724 0.68553 0.0
C372 C 0.82908 0.2022 0.72193 0.0
C373 C 0.84438 0.18725 0.73011 0.0
C374 C 0.85917 0.1933 0.74664 0.0
C375 C 0.85882 0.2144 0.75547 0.0
C376 C 0.84302 0.22921 0.74766 0.0
C377 C 0.82818 0.2231 0.73107 0.0
C378 C 0.78744 0.1787 0.7095 0.0
C379 C 0.77225 0.17055 0.69416 0.0
C380 C 0.75566 0.15591 0.70081 0.0
C381 C 0.75411 0.14902 0.72293 0.0
C382 C 0.7688 0.15795 0.73843 0.0
C383 C 0.78539 0.17262 0.73176 0.0
P384 P 0.5637 0.56269 0.56435 0.0
H385 H 0.56419 0.5471 0.60969 0.0
H386 H 0.53521 0.53608 0.63555 0.0
H387 H 0.48636 0.54702 0.58506 0.0
H388 H 0.51553 0.55807 0.55915 0.0
H389 H 0.5991 0.56109 0.53225 0.0
H390 H 0.62362 0.53203 0.52072 0.0
H391 H 0.58876 0.48644 0.56321 0.0
H392 H 0.56374 0.51524 0.57384 0.0
H393 H 0.54832 0.6073 0.56527 0.0
H394 H 0.55559 0.5572 0.51656 0.0
O395 O 0.58123 0.57756 0.57933 0.0
H396 H 0.53709 0.63313 0.53646 0.0
H397 H 0.54447 0.58307 0.48761 0.0
C398 C 0.542 0.5536 0.5826 0.0
C399 C 0.54726 0.54704 0.60414 0.0
C400 C 0.53071 0.5406 0.61885 0.0
C401 C 0.50855 0.54057 0.61226 0.0
C402 C 0.50331 0.54695 0.59056 0.0
C403 C 0.51995 0.55324 0.57577 0.0
C404 C 0.57933 0.54033 0.55361 0.0
C405 C 0.59638 0.5447 0.53863 0.0
C406 C 0.61052 0.52812 0.53221 0.0
C407 C 0.60809 0.50685 0.54093 0.0
C408 C 0.59078 0.50247 0.55575 0.0
C409 C 0.57651 0.51904 0.56198 0.0
C410 C 0.55333 0.58053 0.54299 0.0
C411 C 0.54742 0.60184 0.54837 0.0
C412 C 0.54092 0.61656 0.53193 0.0
C413 C 0.54028 0.61021 0.50976 0.0
C414 C 0.54529 0.58852 0.50451 0.0
C415 C 0.55163 0.57373 0.52105 0.0
P416 P 0.56212 0.44406 0.94734 0.0
H417 H 0.60928 0.4434 0.95512 0.0
H418 H 0.63606 0.4715 0.96572 0.0
H419 H 0.58375 0.51794 0.97212 0.0
H420 H 0.55685 0.48958 0.96162 0.0
H421 H 0.53758 0.40318 0.94668 0.0
H422 H 0.52752 0.37649 0.97524 0.0
H423 H 0.55725 0.41779 0.02454 0.0
H424 H 0.56653 0.44489 0.99593 0.0
H425 H 0.56212 0.47421 0.91025 0.0
H426 H 0.51349 0.44014 0.94972 0.0
O427 O 0.57574 0.42865 0.92959 0.0
H428 H 0.53321 0.48694 0.88536 0.0
H429 H 0.48465 0.45212 0.92445 0.0
C430 C 0.58119 0.46458 0.95703 0.0
C431 C 0.60354 0.45962 0.9588 0.0
C432 C 0.61883 0.47568 0.96478 0.0
C433 C 0.61202 0.49701 0.96924 0.0
C434 C 0.58944 0.50168 0.96858 0.0
C435 C 0.57411 0.48554 0.96251 0.0
C436 C 0.55284 0.42597 0.96914 0.0
C437 C 0.54171 0.40661 0.96367 0.0
C438 C 0.53619 0.39126 0.97998 0.0
C439 C 0.54206 0.3948 1.00208 0.0
C440 C 0.55257 0.41459 0.00764 0.0
C441 C 0.55793 0.43007 0.99128 0.0
C442 C 0.54002 0.45621 0.93182 0.0
C443 C 0.54518 0.46973 0.91374 0.0
C444 C 0.52868 0.47686 0.89945 0.0
C445 C 0.50665 0.47051 0.9029 0.0
C446 C 0.50141 0.45758 0.92151 0.0
C447 C 0.51796 0.45054 0.93589 0.0
P448 P 0.73551 0.23443 0.27686 0.0
H449 H 0.76455 0.26736 0.29618 0.0
H450 H 0.76437 0.28633 0.33134 0.0
H451 H 0.70774 0.24821 0.35192 0.0
H452 H 0.70781 0.22925 0.31635 0.0
H453 H 0.74883 0.20653 0.24127 0.0
H454 H 0.76797 0.17165 0.24022 0.0
H455 H 0.76592 0.16756 0.3112 0.0
H456 H 0.74685 0.20266 0.31224 0.0
H457 H 0.71134 0.26872 0.25459 0.0
H458 H 0.69945 0.20177 0.27427 0.0
O459 O 0.75148 0.24945 0.26008 0.0
H460 H 0.67544 0.26966 0.23643 0.0
H461 H 0.66337 0.2026 0.25596 0.0
C462 C 0.73603 0.24705 0.30355 0.0
C463 C 0.75208 0.26299 0.30819 0.0
C464 C 0.75197 0.27386 0.32828 0.0
C465 C 0.73602 0.26877 0.34427 0.0
C466 C 0.7203 0.25234 0.33989 0.0
C467 C 0.72027 0.24159 0.31961 0.0
C468 C 0.74668 0.20732 0.27681 0.0
C469 C 0.75231 0.19806 0.25661 0.0
C470 C 0.76329 0.1782 0.25602 0.0
C471 C 0.76867 0.16715 0.27564 0.0
C472 C 0.76199 0.17585 0.29586 0.0
C473 C 0.75114 0.1959 0.29645 0.0
C474 C 0.7082 0.23507 0.26538 0.0
C475 C 0.70095 0.25424 0.25506 0.0
C476 C 0.68046 0.25476 0.24468 0.0
C477 C 0.66668 0.23619 0.2447 0.0
C478 C 0.67361 0.2172 0.25583 0.0
C479 C 0.69424 0.21667 0.26615 0.0
P480 P 0.4805 0.0249 0.98649 0.0
H481 H 0.52577 0.03303 0.97343 0.0
H482 H 0.54448 0.03255 0.93779 0.0
H483 H 0.48197 0.02324 0.90513 0.0
H484 H 0.46336 0.02341 0.94091 0.0
H485 H 0.4794 0.0347 0.03312 0.0
H486 H 0.48139 0.0688 0.05365 0.0
H487 H 0.48186 0.10541 0.99247 0.0
H488 H 0.47977 0.07107 0.97189 0.0
H489 H 0.46694 0.98157 0.97307 0.0
H490 H 0.4354 0.03951 0.99649 0.0
O491 O 0.49632 0.00808 1.00118 0.0
H492 H 0.43165 0.96196 0.97385 0.0
H493 H 0.40003 0.01984 0.99759 0.0
C494 C 0.49327 0.02781 0.95984 0.0
C495 C 0.51607 0.03107 0.95858 0.0
C496 C 0.52674 0.03086 0.93821 0.0
C497 C 0.51474 0.02742 0.91871 0.0
C498 C 0.4917 0.02536 0.91994 0.0
C499 C 0.48104 0.02557 0.94036 0.0
C500 C 0.47996 0.05037 1.00102 0.0
C501 C 0.47991 0.05005 0.0241 0.0
C502 C 0.48111 0.06951 0.0358 0.0
C503 C 0.48224 0.08969 0.02462 0.0
C504 C 0.48117 0.09004 1.00146 0.0
C505 C 0.48006 0.07047 0.98972 0.0
C506 C 0.45381 0.01191 0.98485 0.0
C507 C 0.45236 0.99011 0.9782 0.0
C508 C 0.43223 0.97892 0.97872 0.0
C509 C 0.41311 0.98935 0.98583 0.0
C510 C 0.41445 0.01145 0.99181 0.0
C511 C 0.43469 0.02267 0.9913 0.0
Li512 Li 0.27065 0.89136 1.00328 0.0
Li513 Li 0.25387 0.86257 0.02706 0.0
Li514 Li 0.24824 0.86391 0.98729 0.0
Li515 Li 0.23132 0.89178 0.01064 0.0
C516 C 0.28425 0.84179 0.99295 0.0
N517 N 0.29869 0.80549 0.97077 0.0
C518 C 0.28176 0.82098 1.00235 0.0
C519 C 0.29436 0.84413 0.97237 0.0
C520 C 0.28912 0.80284 0.99087 0.0
C521 C 0.30145 0.82559 0.96138 0.0
C522 C 0.24742 0.89964 0.05238 0.0
C523 C 0.22071 0.89371 0.08122 0.0
N524 N 0.23056 0.90974 0.09319 0.0
C525 C 0.25725 0.91608 0.06494 0.0
C526 C 0.22898 0.88837 0.06054 0.0
C527 C 0.24849 0.92093 0.08555 0.0
C528 C 0.29445 0.93154 0.00447 0.0
N529 N 0.29604 0.90988 1.00013 0.0
C530 C 0.334 0.91433 0.9908 0.0
C531 C 0.31531 0.9011 0.99354 0.0
C532 C 0.33288 0.93679 0.99499 0.0
C533 C 0.31278 0.94538 1.00199 0.0
H534 H 0.27893 0.93803 0.00986 0.0
H535 H 0.31619 0.88382 0.9904 0.0
C536 C 0.24691 0.82501 0.05408 0.0
N537 N 0.25787 0.84444 0.05256 0.0
C538 C 0.25064 0.81091 0.07193 0.0
C539 C 0.27622 0.83745 0.08677 0.0
C540 C 0.27222 0.85091 0.06848 0.0
C541 C 0.2655 0.81704 0.08861 0.0
H542 H 0.23581 0.82015 0.04104 0.0
H543 H 0.28078 0.86642 0.06682 0.0
C544 C 0.2548 0.91227 0.96889 0.0
N545 N 0.27308 0.94592 0.94398 0.0
C546 C 0.24558 0.93304 0.96916 0.0
C547 C 0.27303 0.90853 0.95551 0.0
C548 C 0.25512 0.94986 0.95656 0.0
C549 C 0.28213 0.92576 0.94318 0.0
C550 C 0.2058 0.85365 1.00225 0.0
C551 C 0.19876 0.86328 0.9825 0.0
C552 C 0.19247 0.838 0.01276 0.0
C553 C 0.17843 0.8571 0.97364 0.0
C554 C 0.17224 0.83229 1.00338 0.0
N555 N 0.1657 0.84187 0.98418 0.0
C556 C 0.23828 0.82414 0.96551 0.0
C557 C 0.24554 0.85412 0.94151 0.0
C558 C 0.23509 0.81029 0.94759 0.0
N559 N 0.24354 0.84557 0.96218 0.0
C560 C 0.2425 0.84088 0.92314 0.0
C561 C 0.23711 0.81866 0.92604 0.0
H562 H 0.23663 0.81778 0.98214 0.0
H563 H 0.24956 0.87121 0.93927 0.0
C564 C 0.21298 0.93228 0.02004 0.0
N565 N 0.20726 0.91103 0.01677 0.0
C566 C 0.19696 0.94774 0.02455 0.0
C567 C 0.16938 0.91909 0.02317 0.0
C568 C 0.18595 0.90418 0.01865 0.0
C569 C 0.1748 0.94122 0.02613 0.0
H570 H 0.2301 0.93724 0.01913 0.0
H571 H 0.18165 0.88718 0.01682 0.0
O572 O 0.27664 0.85971 0.00374 0.0
O573 O 0.25573 0.89489 0.03209 0.0
O574 O 0.24596 0.89568 0.98151 0.0
O575 O 0.22582 0.85908 0.01106 0.0
H576 H 0.27412 0.81879 0.01826 0.0
H577 H 0.2965 0.86004 0.9648 0.0
H578 H 0.28717 0.78663 0.99792 0.0
H579 H 0.30911 0.82718 0.94536 0.0
H580 H 0.20645 0.88513 0.08774 0.0
H581 H 0.27149 0.925 0.05879 0.0
H582 H 0.22107 0.87567 0.05101 0.0
H583 H 0.25594 0.93361 0.09546 0.0
H584 H 0.34916 0.90706 0.98534 0.0
H585 H 0.31132 0.9625 0.00587 0.0
H586 H 0.24251 0.79509 0.07225 0.0
H587 H 0.28776 0.84287 0.09924 0.0
H588 H 0.23112 0.93615 0.97885 0.0
H589 H 0.28031 0.89257 0.95494 0.0
H590 H 0.2482 0.96603 0.95674 0.0
H591 H 0.29642 0.92313 0.93301 0.0
H592 H 0.20882 0.87542 0.9741 0.0
H593 H 0.1977 0.83036 0.02802 0.0
H594 H 0.17278 0.86442 0.95839 0.0
H595 H 0.16174 0.82021 0.01135 0.0
H596 H 0.23093 0.79327 0.95053 0.0
H597 H 0.24465 0.8479 0.90682 0.0
H598 H 0.20188 0.96459 0.02704 0.0
H599 H 0.15248 0.9134 0.02415 0.0
Li600 Li 0.11297 0.50731 0.27953 0.0
Li601 Li 0.1413 0.48371 0.26087 0.0
Li602 Li 0.14043 0.52292 0.25436 0.0
Li603 Li 0.11298 0.49999 0.23835 0.0
C604 C 0.16299 0.51784 0.29121 0.0
N605 N 0.1992 0.54095 0.30624 0.0
C606 C 0.18405 0.51251 0.28403 0.0
C607 C 0.16033 0.53482 0.30612 0.0
C608 C 0.20215 0.52443 0.29179 0.0
C609 C 0.17886 0.54631 0.31353 0.0
C610 C 0.10683 0.45783 0.27052 0.0
C611 C 0.10997 0.41921 0.26404 0.0
N612 N 0.10408 0.41505 0.2853 0.0
C613 C 0.10068 0.45316 0.29227 0.0
C614 C 0.11137 0.44072 0.25624 0.0
C615 C 0.09942 0.43143 0.29943 0.0
C616 C 0.07378 0.51456 0.30362 0.0
N617 N 0.0957 0.51078 0.30538 0.0
C618 C 0.09341 0.51057 0.34469 0.0
C619 C 0.10565 0.5088 0.32536 0.0
C620 C 0.07069 0.51425 0.34344 0.0
C621 C 0.0609 0.5165 0.32257 0.0
H622 H 0.0663 0.51595 0.28749 0.0
H623 H 0.12307 0.50562 0.32627 0.0
C624 C 0.17569 0.4549 0.25011 0.0
N625 N 0.16036 0.45941 0.26564 0.0
C626 C 0.19062 0.43804 0.25356 0.0
C627 C 0.1737 0.43067 0.2889 0.0
C628 C 0.1593 0.44787 0.2849 0.0
C629 C 0.18966 0.42565 0.27313 0.0
H630 H 0.17665 0.4647 0.23522 0.0
H631 H 0.14749 0.45225 0.29733 0.0
C632 C 0.10623 0.55001 0.25286 0.0
N633 N 0.10261 0.59487 0.2499 0.0
C634 C 0.11201 0.56104 0.23339 0.0
C635 C 0.09855 0.56181 0.27081 0.0
C636 C 0.1101 0.58372 0.23223 0.0
C637 C 0.09683 0.58447 0.26898 0.0
C638 C 0.14473 0.49593 0.21061 0.0
C639 C 0.14636 0.51338 0.19564 0.0
C640 C 0.14203 0.47469 0.20277 0.0
C641 C 0.14513 0.50929 0.17307 0.0
C642 C 0.14082 0.47128 0.18008 0.0
N643 N 0.14237 0.4885 0.16582 0.0
C644 C 0.17726 0.54506 0.23643 0.0
C645 C 0.15771 0.56664 0.26172 0.0
C646 C 0.19269 0.56183 0.23313 0.0
N647 N 0.16003 0.54776 0.25034 0.0
C648 C 0.17271 0.58392 0.25879 0.0
C649 C 0.19054 0.58154 0.24443 0.0
H650 H 0.17922 0.52971 0.2281 0.0
H651 H 0.14443 0.56821 0.27335 0.0
C652 C 0.08219 0.47602 0.2123 0.0
N653 N 0.09371 0.49514 0.21364 0.0
C654 C 0.06854 0.47192 0.1942 0.0
C655 C 0.07859 0.50737 0.17932 0.0
C656 C 0.0919 0.51083 0.19774 0.0
C657 C 0.0668 0.48763 0.17727 0.0
H658 H 0.08354 0.46394 0.2253 0.0
H659 H 0.10103 0.52594 0.19916 0.0
O660 O 0.14504 0.50685 0.28322 0.0
O661 O 0.10839 0.47903 0.26328 0.0
O662 O 0.10786 0.52779 0.25434 0.0
O663 O 0.14544 0.49963 0.2328 0.0
H664 H 0.18635 0.49952 0.27235 0.0
H665 H 0.14411 0.53929 0.31164 0.0
H666 H 0.21854 0.52061 0.28625 0.0
H667 H 0.17705 0.55959 0.32496 0.0
H668 H 0.11359 0.40583 0.2532 0.0
H669 H 0.09702 0.46614 0.30354 0.0
H670 H 0.11612 0.44401 0.23937 0.0
H671 H 0.09477 0.42759 0.31624 0.0
H672 H 0.10165 0.5091 0.36046 0.0
H673 H 0.04342 0.51929 0.32093 0.0
H674 H 0.20288 0.43479 0.24114 0.0
H675 H 0.17282 0.42182 0.30442 0.0
H676 H 0.1184 0.55228 0.2195 0.0
H677 H 0.09409 0.55359 0.28604 0.0
H678 H 0.11469 0.59247 0.21733 0.0
H679 H 0.09097 0.59381 0.28276 0.0
H680 H 0.14821 0.52996 0.20137 0.0
H681 H 0.14074 0.46099 0.21409 0.0
H682 H 0.14623 0.52266 0.16131 0.0
H683 H 0.13861 0.45493 0.17381 0.0
H684 H 0.20615 0.55942 0.22178 0.0
H685 H 0.17065 0.5988 0.26799 0.0
H686 H 0.05931 0.45671 0.19357 0.0
H687 H 0.07777 0.5199 0.16663 0.0
Li688 Li 0.73472 0.61376 0.00543 0.0
Li689 Li 0.75017 0.64189 0.02781 0.0
Li690 Li 0.75776 0.64333 0.98907 0.0
Li691 Li 0.77489 0.61476 0.01401 0.0
C692 C 0.71232 0.64958 0.98859 0.0
N693 N 0.67936 0.65721 0.95819 0.0
C694 C 0.69447 0.66256 0.99411 0.0
C695 C 0.71342 0.6405 0.96761 0.0
C696 C 0.67797 0.66622 0.97852 0.0
C697 C 0.6966 0.64455 0.95247 0.0
C698 C 0.73438 0.60466 0.05014 0.0
C699 C 0.72243 0.58249 0.08104 0.0
N700 N 0.70317 0.59351 0.08144 0.0
C701 C 0.71448 0.61578 0.05086 0.0
C702 C 0.73842 0.58788 0.06533 0.0
C703 C 0.6989 0.6099 0.06681 0.0
C704 C 0.71696 0.57299 0.99474 0.0
N705 N 0.71113 0.59359 1.00011 0.0
C706 C 0.67299 0.5841 0.99667 0.0
C707 C 0.68963 0.59929 1.00149 0.0
C708 C 0.67858 0.56288 0.99039 0.0
C709 C 0.7009 0.55731 0.98982 0.0
H710 H 0.73418 0.56882 0.99412 0.0
H711 H 0.68535 0.61565 0.00621 0.0
C712 C 0.73509 0.67993 0.0478 0.0
N713 N 0.74483 0.66055 0.0523 0.0
C714 C 0.73184 0.69499 0.06453 0.0
C715 C 0.74829 0.66972 0.09038 0.0
C716 C 0.75124 0.6551 0.07311 0.0
C717 C 0.73877 0.6901 0.0861 0.0
H718 H 0.73016 0.68382 0.0311 0.0
H719 H 0.75903 0.63959 0.0762 0.0
C720 C 0.76748 0.60158 0.96664 0.0
N721 N 0.78334 0.58187 0.92925 0.0
C722 C 0.79012 0.60047 0.96302 0.0
C723 C 0.75291 0.59249 0.95133 0.0
C724 C 0.79782 0.5905 0.94399 0.0
C725 C 0.76125 0.58265 0.9325 0.0
C726 C 0.78732 0.66323 0.0261 0.0
C727 C 0.78355 0.685 0.0203 0.0
C728 C 0.79847 0.65831 0.04565 0.0
C729 C 0.79082 0.70154 0.03433 0.0
C730 C 0.80551 0.67532 0.05922 0.0
N731 N 0.80154 0.69639 0.05334 0.0
C732 C 0.75161 0.68149 0.96335 0.0
C733 C 0.77718 0.65715 0.94798 0.0
C734 C 0.75505 0.69636 0.94605 0.0
N735 N 0.76258 0.66227 0.964 0.0
C736 C 0.78113 0.67156 0.93035 0.0
C737 C 0.77 0.69149 0.92926 0.0
H738 H 0.74041 0.68544 0.97649 0.0
H739 H 0.78617 0.64215 0.94906 0.0
C740 C 0.79716 0.57487 0.01927 0.0
N741 N 0.79995 0.59692 0.01849 0.0
C742 C 0.81534 0.56127 0.02154 0.0
C743 C 0.83886 0.59335 0.02231 0.0
C744 C 0.82026 0.60631 0.01994 0.0
C745 C 0.83656 0.5705 0.02311 0.0
H746 H 0.78081 0.56786 0.01777 0.0
H747 H 0.82203 0.62388 0.01894 0.0
O748 O 0.72846 0.64576 0.00383 0.0
O749 O 0.74993 0.61002 0.03467 0.0
O750 O 0.75962 0.61096 0.98536 0.0
O751 O 0.77966 0.64681 0.01297 0.0
H752 H 0.69336 0.66965 0.01033 0.0
H753 H 0.72714 0.63056 0.96301 0.0
H754 H 0.66404 0.6762 0.98258 0.0
H755 H 0.69727 0.63764 0.93616 0.0
H756 H 0.72532 0.56953 0.0929 0.0
H757 H 0.71104 0.62884 0.0393 0.0
H758 H 0.75375 0.57912 0.06496 0.0
H759 H 0.68343 0.61837 0.06756 0.0
H760 H 0.65596 0.58899 0.99743 0.0
H761 H 0.7059 0.54096 0.98564 0.0
H762 H 0.72397 0.71032 0.06063 0.0
H763 H 0.7538 0.66534 0.10681 0.0
H764 H 0.80164 0.60752 0.97461 0.0
H765 H 0.73533 0.59297 0.95395 0.0
H766 H 0.8153 0.58964 0.94092 0.0
H767 H 0.75016 0.5756 0.9205 0.0
H768 H 0.77485 0.68907 0.00528 0.0
H769 H 0.80131 0.64153 0.05049 0.0
H770 H 0.78786 0.71846 0.03015 0.0
H771 H 0.81401 0.67175 0.07448 0.0
H772 H 0.74623 0.71161 0.94589 0.0
H773 H 0.79325 0.66744 0.91809 0.0
H774 H 0.81286 0.54373 0.02156 0.0
H775 H 0.8549 0.60113 0.02348 0.0
Li776 Li 0.86404 0.02603 0.26225 0.0
Li777 Li 0.89122 1.0023 0.27854 0.0
Li778 Li 0.89143 0.00939 0.23904 0.0
Li779 Li 0.86275 0.98703 0.25537 0.0
C780 C 0.90283 0.05024 0.25427 0.0
N781 N 0.91578 0.08997 0.23629 0.0
C782 C 0.92148 0.06106 0.26232 0.0
C783 C 0.89076 0.05961 0.23705 0.0
C784 C 0.92777 0.08114 0.25301 0.0
C785 C 0.89757 0.07971 0.22819 0.0
C786 C 0.85416 0.01077 0.30404 0.0
C787 C 0.83143 0.0123 0.33648 0.0
N788 N 0.84443 0.02867 0.3444 0.0
C789 C 0.8673 0.0276 0.3125 0.0
C790 C 0.83608 1.00304 0.31611 0.0
C791 C 0.86211 0.03644 0.33293 0.0
C792 C 0.82533 0.05109 0.2594 0.0
N793 N 0.84644 0.05134 0.26683 0.0
C794 C 0.8426 0.08792 0.27952 0.0
C795 C 0.8551 0.06914 0.27708 0.0
C796 C 0.82094 0.08831 0.27155 0.0
C797 C 0.81216 0.06949 0.26171 0.0
H798 H 0.81882 0.03667 0.25144 0.0
H799 H 0.87181 0.06889 0.28314 0.0
C800 C 0.93167 0.00374 0.30032 0.0
N801 N 0.91037 0.99735 0.30305 0.0
C802 C 0.94697 1.00047 0.31718 0.0
C803 C 0.91815 0.98406 0.33942 0.0
C804 C 0.9034 0.98755 0.32206 0.0
C805 C 0.94025 0.99065 0.33713 0.0
H806 H 0.9368 0.01118 0.2849 0.0
H807 H 0.88643 0.98235 0.32375 0.0
C808 C 0.85372 1.00292 0.21352 0.0
N809 N 0.84242 0.98587 0.17303 0.0
C810 C 0.86576 0.98581 0.20472 0.0
C811 C 0.83595 0.01137 0.20173 0.0
C812 C 0.85978 0.97741 0.18423 0.0
C813 C 0.8305 1.00253 0.18128 0.0
C814 C 0.89916 0.96089 0.26347 0.0
C815 C 0.91619 0.94839 0.25504 0.0
C816 C 0.8867 0.95282 0.28118 0.0
C817 C 0.92049 0.92798 0.26449 0.0
C818 C 0.89152 0.93235 0.29017 0.0
N819 N 0.90817 0.92046 0.28171 0.0
C820 C 0.93105 0.00494 0.21622 0.0
C821 C 0.90471 0.02546 0.19632 0.0
C822 C 0.94644 0.00803 0.19939 0.0
N823 N 0.91069 0.01367 0.21444 0.0
C824 C 0.91963 0.02902 0.1791 0.0
C825 C 0.94085 0.02027 0.18053 0.0
H826 H 0.93539 0.99575 0.23088 0.0
H827 H 0.88848 0.03239 0.19536 0.0
C828 C 0.82229 0.96407 0.25789 0.0
N829 N 0.84332 0.9627 0.25053 0.0
C830 C 0.80724 0.94708 0.25409 0.0
C831 C 0.8358 0.92749 0.23538 0.0
C832 C 0.85027 0.94488 0.23946 0.0
C833 C 0.81395 0.92847 0.24271 0.0
H834 H 0.81717 0.9785 0.26652 0.0
H835 H 0.86698 0.94426 0.2335 0.0
O836 O 0.8966 0.03052 0.26321 0.0
O837 O 0.85878 1.00186 0.28403 0.0
O838 O 0.85914 0.01144 0.23358 0.0
O839 O 0.89487 0.98092 0.25436 0.0
H840 H 0.931 0.05401 0.27564 0.0
H841 H 0.87627 0.0515 0.23061 0.0
H842 H 0.94217 0.08971 0.25909 0.0
H843 H 0.88838 0.08715 0.21488 0.0
H844 H 0.81748 0.00648 0.346 0.0
H845 H 0.88141 0.03376 0.30347 0.0
H846 H 0.82575 0.99002 0.30977 0.0
H847 H 0.87214 0.04946 0.33967 0.0
H848 H 0.84982 0.10205 0.28748 0.0
H849 H 0.7955 0.06922 0.25536 0.0
H850 H 0.96396 0.00522 0.31445 0.0
H851 H 0.91231 0.97636 0.35449 0.0
H852 H 0.87959 0.97907 0.21356 0.0
H853 H 0.82648 0.02463 0.20832 0.0
H854 H 0.86896 0.96416 0.17723 0.0
H855 H 0.81678 0.00891 0.17197 0.0
H856 H 0.92597 0.9544 0.24133 0.0
H857 H 0.87341 0.96219 0.2879 0.0
H858 H 0.93362 0.91813 0.25813 0.0
H859 H 0.88201 0.92591 0.30387 0.0
H860 H 0.96259 1.00096 0.20113 0.0
H861 H 0.9148 0.03896 0.16509 0.0
H862 H 0.79051 0.94847 0.25994 0.0
H863 H 0.84149 0.91366 0.2261 0.0
Li864 Li 0.25105 0.14358 0.52782 0.0
Li865 Li 0.23651 0.11569 0.50253 0.0
Li866 Li 0.27558 0.11672 0.51112 0.0
Li867 Li 0.25777 0.14533 0.48827 0.0
C868 C 0.23614 0.10393 0.54718 0.0
N869 N 0.20572 0.08954 0.57802 0.0
C870 C 0.21507 0.11281 0.54754 0.0
C871 C 0.2417 0.08769 0.56247 0.0
C872 C 0.19994 0.10532 0.56326 0.0
C873 C 0.2261 0.08065 0.57795 0.0
C874 C 0.21812 0.16235 0.49169 0.0
C875 C 0.20238 0.17452 0.45722 0.0
N876 N 0.19737 0.1939 0.46656 0.0
C877 C 0.21249 0.18226 0.50102 0.0
C878 C 0.21272 0.15832 0.4697 0.0
C879 C 0.20211 0.19804 0.48802 0.0
C880 C 0.24879 0.18351 0.54961 0.0
N881 N 0.24716 0.16161 0.55327 0.0
C882 C 0.23988 0.16745 0.5915 0.0
C883 C 0.24346 0.15341 0.57389 0.0
C884 C 0.24028 0.19014 0.58791 0.0
C885 C 0.24528 0.19813 0.56671 0.0
H886 H 0.25255 0.18962 0.53323 0.0
H887 H 0.24326 0.13602 0.57681 0.0
C888 C 0.2157 0.07431 0.50245 0.0
N889 N 0.21255 0.09572 0.49739 0.0
C890 C 0.19902 0.05891 0.49872 0.0
C891 C 0.17585 0.08793 0.48529 0.0
C892 C 0.19306 0.10277 0.48915 0.0
C893 C 0.17879 0.06567 0.49003 0.0
H894 H 0.23124 0.06919 0.50932 0.0
H895 H 0.19084 0.1199 0.48553 0.0
C896 C 0.29511 0.15466 0.52777 0.0
N897 N 0.3268 0.16592 0.5584 0.0
C898 C 0.30916 0.17248 0.5238 0.0
C899 C 0.29711 0.14259 0.54734 0.0
C900 C 0.32509 0.17791 0.53949 0.0
C901 C 0.31325 0.14854 0.56261 0.0
C902 C 0.25573 0.09634 0.46937 0.0
C903 C 0.26397 0.07576 0.47472 0.0
C904 C 0.24107 0.09852 0.45174 0.0
C905 C 0.25712 0.05764 0.4626 0.0
C906 C 0.23458 0.08 0.44003 0.0
N907 N 0.24265 0.06011 0.44567 0.0
C908 C 0.30068 0.08036 0.52571 0.0
C909 C 0.32092 0.10832 0.50724 0.0
C910 C 0.31953 0.06763 0.52767 0.0
N911 N 0.30167 0.10015 0.51535 0.0
C912 C 0.34019 0.09627 0.50908 0.0
C913 C 0.33958 0.07541 0.51898 0.0
H914 H 0.28511 0.07423 0.53194 0.0
H915 H 0.32126 0.12416 0.49919 0.0
C916 C 0.26275 0.18714 0.46883 0.0
N917 N 0.26257 0.16543 0.46441 0.0
C918 C 0.26602 0.20245 0.45189 0.0
C919 C 0.26928 0.17279 0.42622 0.0
C920 C 0.26583 0.15803 0.44365 0.0
C921 C 0.26928 0.19532 0.43024 0.0
H922 H 0.26036 0.19253 0.48556 0.0
H923 H 0.26585 0.14068 0.44063 0.0
O924 O 0.25118 0.11071 0.53175 0.0
O925 O 0.22873 0.14685 0.50403 0.0
O926 O 0.27931 0.14932 0.51262 0.0
O927 O 0.26188 0.1142 0.48141 0.0
H928 H 0.2104 0.12536 0.53585 0.0
H929 H 0.25791 0.08062 0.5624 0.0
H930 H 0.1836 0.11205 0.56373 0.0
H931 H 0.2302 0.06812 0.5899 0.0
H932 H 0.19837 0.17168 0.44011 0.0
H933 H 0.21591 0.18548 0.51814 0.0
H934 H 0.21672 0.14297 0.46227 0.0
H935 H 0.19778 0.21357 0.49503 0.0
H936 H 0.23683 0.16062 0.60776 0.0
H937 H 0.24593 0.21551 0.56326 0.0
H938 H 0.20186 0.0419 0.50272 0.0
H939 H 0.16056 0.09374 0.47835 0.0
H940 H 0.30773 0.18203 0.50876 0.0
H941 H 0.28631 0.12881 0.55075 0.0
H942 H 0.3361 0.19166 0.53664 0.0
H943 H 0.315 0.13935 0.57782 0.0
H944 H 0.27535 0.07371 0.48823 0.0
H945 H 0.23469 0.11428 0.44713 0.0
H946 H 0.26325 0.0416 0.46669 0.0
H947 H 0.22312 0.08145 0.42645 0.0
H948 H 0.31831 0.05165 0.53541 0.0
H949 H 0.35541 0.10322 0.50274 0.0
H950 H 0.26641 0.21966 0.45576 0.0
H951 H 0.27184 0.16667 0.40976 0.0
Li952 Li 0.39221 0.50222 0.77683 0.0
Li953 Li 0.3649 0.52526 0.76116 0.0
Li954 Li 0.36372 0.48584 0.75463 0.0
Li955 Li 0.39289 0.50933 0.73784 0.0
C956 C 0.35522 0.50984 0.80302 0.0
N957 N 0.3451 0.52754 0.84337 0.0
C958 C 0.36827 0.52665 0.81167 0.0
C959 C 0.33704 0.50204 0.81488 0.0
C960 C 0.36288 0.53538 0.8321 0.0
C961 C 0.33219 0.51119 0.83526 0.0
C962 C 0.40225 0.55053 0.75267 0.0
C963 C 0.39592 0.5786 0.72529 0.0
N964 N 0.41238 0.59086 0.73425 0.0
C965 C 0.41911 0.5634 0.76159 0.0
C966 C 0.39055 0.55817 0.73435 0.0
C967 C 0.42398 0.58374 0.75205 0.0
C968 C 0.4322 0.50564 0.79969 0.0
N969 N 0.41137 0.49752 0.80144 0.0
C970 C 0.41945 0.48204 0.83685 0.0
C971 C 0.40475 0.48593 0.81955 0.0
C972 C 0.44112 0.49015 0.83544 0.0
C973 C 0.44742 0.5021 0.81655 0.0
H974 H 0.43703 0.51464 0.78501 0.0
H975 H 0.38818 0.47938 0.82039 0.0
C976 C 0.32601 0.55008 0.75751 0.0
N977 N 0.34688 0.55028 0.76558 0.0
C978 C 0.31264 0.56833 0.75983 0.0
C979 C 0.34239 0.58649 0.77905 0.0
C980 C 0.35511 0.56789 0.77646 0.0
C981 C 0.32097 0.58697 0.77041 0.0
H982 H 0.31983 0.53579 0.74906 0.0
H983 H 0.37164 0.56761 0.783 0.0
C984 C 0.40684 0.46455 0.76375 0.0
N985 N 0.4296 0.43329 0.78735 0.0
C986 C 0.42946 0.4623 0.76073 0.0
C987 C 0.39577 0.45084 0.77872 0.0
C988 C 0.44068 0.44642 0.77284 0.0
C989 C 0.40757 0.43514 0.79049 0.0
C990 C 0.35412 0.50186 0.71281 0.0
C991 C 0.36512 0.48397 0.7042 0.0
C992 C 0.33664 0.51098 0.70109 0.0
C993 C 0.35846 0.47552 0.68394 0.0
C994 C 0.33048 0.50206 0.68087 0.0
N995 N 0.34142 0.48466 0.67279 0.0
C996 C 0.32299 0.46334 0.75484 0.0
C997 C 0.35257 0.44268 0.74115 0.0
C998 C 0.30828 0.44608 0.75096 0.0
N999 N 0.34465 0.46134 0.74991 0.0
C1000 C 0.33846 0.42499 0.73708 0.0
C1001 C 0.31598 0.42653 0.74204 0.0
H1002 H 0.31711 0.47849 0.76152 0.0
H1003 H 0.36984 0.4416 0.73716 0.0
C1004 C 0.43397 0.5123 0.71744 0.0
N1005 N 0.41215 0.51444 0.7132 0.0
C1006 C 0.44945 0.51578 0.70076 0.0
C1007 C 0.41983 0.52434 0.67569 0.0
C1008 C 0.4049 0.52076 0.69291 0.0
C1009 C 0.44243 0.5216 0.67945 0.0
H1010 H 0.43936 0.50819 0.73392 0.0
H1011 H 0.38758 0.52322 0.69003 0.0
O1012 O 0.36007 0.50099 0.78303 0.0
O1013 O 0.3974 0.53058 0.76193 0.0
O1014 O 0.39563 0.48045 0.7526 0.0
O1015 O 0.36011 0.51029 0.73274 0.0
H1016 H 0.38243 0.53288 0.80278 0.0
H1017 H 0.32679 0.48903 0.80838 0.0
H1018 H 0.37283 0.54838 0.83899 0.0
H1019 H 0.31817 0.50531 0.84462 0.0
H1020 H 0.38699 0.58471 0.71113 0.0
H1021 H 0.42831 0.55771 0.77577 0.0
H1022 H 0.37743 0.54852 0.7272 0.0
H1023 H 0.43698 0.59387 0.75881 0.0
H1024 H 0.41409 0.47235 0.85092 0.0
H1025 H 0.46398 0.50862 0.81485 0.0
H1026 H 0.29619 0.5681 0.75298 0.0
H1027 H 0.34925 0.6004 0.78766 0.0
H1028 H 0.43831 0.47272 0.74923 0.0
H1029 H 0.37833 0.45258 0.78154 0.0
H1030 H 0.45821 0.44455 0.77073 0.0
H1031 H 0.39923 0.42452 0.80222 0.0
H1032 H 0.37873 0.47673 0.71298 0.0
H1033 H 0.32794 0.5248 0.70756 0.0
H1034 H 0.36684 0.46169 0.67708 0.0
H1035 H 0.31699 0.50897 0.67161 0.0
H1036 H 0.29099 0.4482 0.75446 0.0
H1037 H 0.34505 0.41024 0.73013 0.0
H1038 H 0.46676 0.51427 0.7046 0.0
H1039 H 0.41375 0.52909 0.65957 0.0
Li1040 Li 0.77068 0.39208 0.50359 0.0
Li1041 Li 0.75288 0.36308 0.52817 0.0
Li1042 Li 0.74669 0.36501 0.48642 0.0
Li1043 Li 0.73127 0.39161 0.51039 0.0
C1044 C 0.79634 0.35623 0.50201 0.0
N1045 N 0.8412 0.35011 0.49971 0.0
C1046 C 0.80803 0.34965 0.52074 0.0
C1047 C 0.80741 0.35944 0.48206 0.0
C1048 C 0.83072 0.3467 0.51925 0.0
C1049 C 0.83011 0.35635 0.48125 0.0
C1050 C 0.7485 0.41208 0.54429 0.0
C1051 C 0.72733 0.42658 0.57418 0.0
N1052 N 0.73227 0.44718 0.56701 0.0
C1053 C 0.75346 0.43337 0.53726 0.0
C1054 C 0.7354 0.4086 0.56292 0.0
C1055 C 0.74507 0.45091 0.54897 0.0
C1056 C 0.79727 0.42613 0.48487 0.0
N1057 N 0.7965 0.41009 0.50053 0.0
C1058 C 0.83243 0.42009 0.51326 0.0
C1059 C 0.81347 0.40707 0.51479 0.0
C1060 C 0.83369 0.43692 0.49737 0.0
C1061 C 0.81581 0.43978 0.48297 0.0
H1062 H 0.78336 0.42858 0.47407 0.0
H1063 H 0.81226 0.39459 0.52745 0.0
C1064 C 0.75475 0.32238 0.55018 0.0
N1065 N 0.75725 0.34426 0.55288 0.0
C1066 C 0.7593 0.30797 0.56757 0.0
C1067 C 0.76846 0.33893 0.59032 0.0
C1068 C 0.76385 0.35273 0.57246 0.0
C1069 C 0.76654 0.31619 0.5879 0.0
H1070 H 0.74964 0.31612 0.53435 0.0
H1071 H 0.76589 0.3702 0.57409 0.0
C1072 C 0.74376 0.39976 0.46016 0.0
N1073 N 0.73765 0.40391 0.41518 0.0
C1074 C 0.7231 0.4051 0.45168 0.0
C1075 C 0.76134 0.39671 0.44577 0.0
C1076 C 0.72035 0.4071 0.42889 0.0
C1077 C 0.75791 0.39881 0.42309 0.0
C1078 C 0.70333 0.3566 0.51364 0.0
C1079 C 0.68866 0.3637 0.49742 0.0
C1080 C 0.6953 0.34655 0.53283 0.0
C1081 C 0.66609 0.36078 0.50076 0.0
C1082 C 0.67261 0.34389 0.53553 0.0
N1083 N 0.6586 0.35102 0.51959 0.0
C1084 C 0.75806 0.33102 0.45758 0.0
C1085 C 0.72538 0.34911 0.44728 0.0
C1086 C 0.7563 0.31735 0.43934 0.0
N1087 N 0.74285 0.34668 0.46109 0.0
C1088 C 0.72313 0.336 0.42869 0.0
C1089 C 0.73872 0.31987 0.42457 0.0
H1090 H 0.77163 0.32913 0.46892 0.0
H1091 H 0.71319 0.36127 0.45057 0.0
C1092 C 0.70718 0.43017 0.50395 0.0
N1093 N 0.70703 0.41099 0.51546 0.0
C1094 C 0.69082 0.44556 0.50734 0.0
C1095 C 0.67444 0.42137 0.53456 0.0
C1096 C 0.69126 0.40654 0.53081 0.0
C1097 C 0.67409 0.44116 0.52271 0.0
H1098 H 0.72028 0.4337 0.49238 0.0
H1099 H 0.69197 0.39171 0.54054 0.0
O1100 O 0.77416 0.3594 0.5032 0.0
O1101 O 0.75598 0.39473 0.53263 0.0
O1102 O 0.74676 0.39758 0.48241 0.0
O1103 O 0.72547 0.35935 0.51077 0.0
H1104 H 0.79974 0.34704 0.53631 0.0
H1105 H 0.79858 0.36428 0.46737 0.0
H1106 H 0.84 0.34174 0.53363 0.0
H1107 H 0.83891 0.35888 0.46594 0.0
H1108 H 0.71704 0.42415 0.58854 0.0
H1109 H 0.76346 0.4363 0.52277 0.0
H1110 H 0.73121 0.39221 0.56841 0.0
H1111 H 0.74865 0.46748 0.54365 0.0
H1112 H 0.84599 0.41691 0.52438 0.0
H1113 H 0.816 0.45265 0.4706 0.0
H1114 H 0.75771 0.29056 0.56497 0.0
H1115 H 0.77357 0.34598 0.60582 0.0
H1116 H 0.70925 0.40735 0.46253 0.0
H1117 H 0.77744 0.39272 0.45205 0.0
H1118 H 0.70442 0.41108 0.4221 0.0
H1119 H 0.77135 0.3964 0.41176 0.0
H1120 H 0.69461 0.37175 0.48262 0.0
H1121 H 0.70648 0.34096 0.54553 0.0
H1122 H 0.65452 0.36635 0.48843 0.0
H1123 H 0.66614 0.3362 0.55032 0.0
H1124 H 0.76878 0.30523 0.43659 0.0
H1125 H 0.70929 0.33834 0.4177 0.0
H1126 H 0.69122 0.46076 0.49805 0.0
H1127 H 0.66216 0.41766 0.54699 0.0
Li1128 Li 0.64065 0.98148 0.76322 0.0
Li1129 Li 0.61355 0.00441 0.77885 0.0
Li1130 Li 0.61364 0.99725 0.73783 0.0
Li1131 Li 0.64224 0.02063 0.75684 0.0
C1132 C 0.60555 0.95438 0.76346 0.0
N1133 N 0.60035 0.90949 0.76471 0.0
C1134 C 0.61082 0.94259 0.78257 0.0
C1135 C 0.59753 0.94333 0.74502 0.0
C1136 C 0.60813 0.91991 0.78285 0.0
C1137 C 0.59502 0.92063 0.74598 0.0
C1138 C 0.64424 0.007 0.80737 0.0
C1139 C 0.6385 0.02944 0.83922 0.0
N1140 N 0.63958 0.01139 0.8524 0.0
C1141 C 0.64527 0.98867 0.82125 0.0
C1142 C 0.64084 0.02757 0.81643 0.0
C1143 C 0.64291 0.99124 0.84396 0.0
C1144 C 0.67716 0.95927 0.78088 0.0
N1145 N 0.65969 0.95665 0.76711 0.0
C1146 C 0.67133 0.92056 0.75831 0.0
C1147 C 0.65681 0.93789 0.75555 0.0
C1148 C 0.6892 0.92268 0.77283 0.0
C1149 C 0.69213 0.94243 0.78404 0.0
H1150 H 0.67965 0.97459 0.78924 0.0
H1151 H 0.64347 0.93646 0.74388 0.0
C1152 C 0.5844 0.02864 0.80584 0.0
N1153 N 0.59396 0.00889 0.80323 0.0
C1154 C 0.57055 0.03228 0.82378 0.0
C1155 C 0.57642 0.99513 0.83588 0.0
C1156 C 0.5901 0.99221 0.81773 0.0
C1157 C 0.56635 0.01535 0.83903 0.0
H1158 H 0.58754 0.04161 0.79404 0.0
H1159 H 0.59789 0.9767 0.81541 0.0
C1160 C 0.66432 0.98762 0.72713 0.0
N1161 N 0.70175 0.96668 0.7134 0.0
C1162 C 0.68496 0.99434 0.73484 0.0
C1163 C 0.6627 0.97027 0.71242 0.0
C1164 C 0.70369 0.98354 0.7277 0.0
C1165 C 0.68183 0.9599 0.70568 0.0
C1166 C 0.60976 0.04655 0.74628 0.0
C1167 C 0.60524 0.05096 0.7241 0.0
C1168 C 0.61478 0.06377 0.76045 0.0
C1169 C 0.60595 0.07254 0.71642 0.0
C1170 C 0.61538 0.08512 0.75212 0.0
N1171 N 0.61099 0.08903 0.73047 0.0
C1172 C 0.57386 0.99349 0.71393 0.0
C1173 C 0.60608 0.99218 0.6921 0.0
C1174 C 0.5606 0.99145 0.69519 0.0
N1175 N 0.59614 0.99376 0.71204 0.0
C1176 C 0.59347 0.98996 0.67298 0.0
C1177 C 0.5704 0.98956 0.67435 0.0
H1178 H 0.56643 0.99506 0.73 0.0
H1179 H 0.6238 0.99287 0.69102 0.0
C1180 C 0.67402 0.053 0.76887 0.0
N1181 N 0.66162 0.04512 0.752 0.0
C1182 C 0.6887 0.0704 0.76529 0.0
C1183 C 0.67771 0.07121 0.72702 0.0
C1184 C 0.66327 0.05376 0.73132 0.0
C1185 C 0.69082 0.07961 0.74409 0.0
H1186 H 0.67277 0.04558 0.78504 0.0
H1187 H 0.6535 0.04692 0.71812 0.0
O1188 O 0.60797 0.97661 0.76283 0.0
O1189 O 0.646 0.00476 0.78502 0.0
O1190 O 0.64575 0.99757 0.73446 0.0
O1191 O 0.60956 0.02548 0.75402 0.0
H1192 H 0.6174 0.95077 0.79686 0.0
H1193 H 0.59336 0.95213 0.73009 0.0
H1194 H 0.61233 0.91058 0.79746 0.0
H1195 H 0.58889 0.91187 0.73181 0.0
H1196 H 0.63571 0.04524 0.84642 0.0
H1197 H 0.64756 0.97257 0.81457 0.0
H1198 H 0.63964 0.04189 0.80597 0.0
H1199 H 0.64359 0.97717 0.85487 0.0
H1200 H 0.66886 0.90583 0.74886 0.0
H1201 H 0.70583 0.94478 0.79524 0.0
H1202 H 0.56308 0.04811 0.82562 0.0
H1203 H 0.57404 0.98179 0.84752 0.0
H1204 H 0.68648 0.00757 0.74643 0.0
H1205 H 0.64683 0.9646 0.7066 0.0
H1206 H 0.71977 0.98849 0.73361 0.0
H1207 H 0.68082 0.94636 0.69441 0.0
H1208 H 0.60137 0.03789 0.71287 0.0
H1209 H 0.61853 0.06067 0.7776 0.0
H1210 H 0.60257 0.07618 0.69928 0.0
H1211 H 0.61941 0.09857 0.76286 0.0
H1212 H 0.5429 0.9918 0.69697 0.0
H1213 H 0.60171 0.98856 0.65726 0.0
H1214 H 0.69833 0.07656 0.77896 0.0
H1215 H 0.67901 0.07773 0.7104 0.0
Li1216 Li 0.02345 0.25849 0.86911 0.0
Li1217 Li 1.00105 0.27567 0.89612 0.0
Li1218 Li 0.01042 0.23515 0.89846 0.0
Li1219 Li 0.98522 0.2501 0.86873 0.0
C1220 C 0.04968 0.27101 0.90353 0.0
N1221 N 0.09053 0.29067 0.90787 0.0
C1222 C 0.05326 0.29223 0.89554 0.0
C1223 C 0.06679 0.25982 0.91385 0.0
C1224 C 0.07405 0.30188 0.89785 0.0
C1225 C 0.08735 0.27004 0.91585 0.0
C1226 C 0.9832 0.29402 0.85879 0.0
C1227 C 0.94699 0.30828 0.86515 0.0
N1228 N 0.9507 0.32387 0.84942 0.0
C1229 C 0.98663 0.31019 0.84269 0.0
C1230 C 0.96321 0.29306 0.87013 0.0
C1231 C 0.97001 0.32513 0.8382 0.0
C1232 C 0.04399 0.2745 0.83066 0.0
N1233 N 0.04814 0.26353 0.84978 0.0
C1234 C 0.08586 0.25939 0.83959 0.0
C1235 C 0.06859 0.25596 0.85446 0.0
C1236 C 0.08195 0.27046 0.81963 0.0
C1237 C 0.06073 0.27819 0.81531 0.0
H1238 H 0.02757 0.28014 0.82721 0.0
H1239 H 0.07144 0.24689 0.86953 0.0
C1240 C 0.99014 0.29806 0.93517 0.0
N1241 N 0.99617 0.30083 0.91375 0.0
C1242 C 0.98689 0.31619 0.94856 0.0
C1243 C 0.99607 0.33962 0.91756 0.0
C1244 C 0.99928 0.32109 0.90484 0.0
C1245 C 0.9898 0.33735 0.93975 0.0
H1246 H 0.98809 0.28175 0.94192 0.0
H1247 H 0.00441 0.3229 0.88788 0.0
C1248 C 0.02356 0.21991 0.85185 0.0
N1249 N 0.05308 0.20335 0.822 0.0
C1250 C 0.01987 0.22237 0.82923 0.0
C1251 C 0.04218 0.20889 0.8593 0.0
C1252 C 0.03503 0.21395 0.8144 0.0
C1253 C 0.05691 0.20064 0.84394 0.0
C1254 C 0.96393 0.23975 0.9114 0.0
C1255 C 0.96181 0.21704 0.91036 0.0
C1256 C 0.94828 0.25172 0.92278 0.0
C1257 C 0.944 0.20666 0.92074 0.0
C1258 C 0.93068 0.24074 0.93292 0.0
N1259 N 0.92893 0.21863 0.93171 0.0
C1260 C 0.02 0.21681 0.94001 0.0
C1261 C 0.01609 0.19073 0.91167 0.0
C1262 C 0.02429 0.20032 0.95546 0.0
N1263 N 0.01605 0.21177 0.91861 0.0
C1264 C 0.02036 0.17372 0.92656 0.0
C1265 C 0.02448 0.17841 0.94881 0.0
H1266 H 0.01981 0.23369 0.94506 0.0
H1267 H 0.01281 0.18717 0.89455 0.0
C1268 C 0.96253 0.25135 0.82869 0.0
N1269 N 0.96024 0.24454 0.84997 0.0
C1270 C 0.94568 0.24778 0.81343 0.0
C1271 C 0.92412 0.23057 0.84227 0.0
C1272 C 0.9414 0.23448 0.857 0.0
C1273 C 0.92617 0.23718 0.82013 0.0
H1274 H 0.97755 0.25952 0.82352 0.0
H1275 H 0.93972 0.22929 0.87391 0.0
O1276 O 0.02955 0.26117 0.90119 0.0
O1277 O 0.99943 0.27932 0.86328 0.0
O1278 O 0.00924 0.22858 0.86663 0.0
O1279 O 0.98144 0.25023 0.9017 0.0
H1280 H 0.0402 0.30101 0.88735 0.0
H1281 H 0.06422 0.24336 0.9201 0.0
H1282 H 0.07712 0.31824 0.89162 0.0
H1283 H 0.10079 0.26156 0.92372 0.0
H1284 H 0.93145 0.3077 0.87379 0.0
H1285 H 1.00202 0.31123 0.8338 0.0
H1286 H 0.96015 0.28073 0.88262 0.0
H1287 H 0.97247 0.33773 0.82579 0.0
H1288 H 0.10199 0.25309 0.84345 0.0
H1289 H 0.05713 0.28709 0.80023 0.0
H1290 H 0.98261 0.31366 0.96571 0.0
H1291 H 0.99847 0.35561 0.91008 0.0
H1292 H 0.00559 0.23089 0.82318 0.0
H1293 H 0.04546 0.20711 0.87675 0.0
H1294 H 0.03248 0.21589 0.79685 0.0
H1295 H 0.07147 0.19222 0.84947 0.0
H1296 H 0.97359 0.20758 0.90133 0.0
H1297 H 0.94971 0.26932 0.92376 0.0
H1298 H 0.94211 0.1891 0.92001 0.0
H1299 H 0.91843 0.2498 0.94176 0.0
H1300 H 0.02728 0.20464 0.97247 0.0
H1301 H 0.02076 0.15712 0.92064 0.0
H1302 H 0.94788 0.25324 0.79653 0.0
H1303 H 0.90951 0.22199 0.84805 0.0
Li1304 Li 0.52579 0.76133 0.36931 0.0
Li1305 Li 0.50174 0.77905 0.39672 0.0
Li1306 Li 0.51001 0.73919 0.39854 0.0
Li1307 Li 0.48481 0.7529 0.37021 0.0
C1308 C 0.55164 0.77204 0.40344 0.0
N1309 N 0.59442 0.78748 0.40635 0.0
C1310 C 0.55586 0.79356 0.40977 0.0
C1311 C 0.56918 0.75833 0.39872 0.0
C1312 C 0.57761 0.80106 0.41112 0.0
C1313 C 0.59068 0.76646 0.40024 0.0
C1314 C 0.49407 0.79917 0.35274 0.0
C1315 C 0.46551 0.82192 0.33766 0.0
N1316 N 0.48109 0.83597 0.32961 0.0
C1317 C 0.50978 0.81378 0.34418 0.0
C1318 C 0.47173 0.80323 0.34935 0.0
C1319 C 0.5029 0.8323 0.3326 0.0
C1320 C 0.55311 0.7504 0.33367 0.0
N1321 N 0.55011 0.76566 0.34946 0.0
C1322 C 0.58024 0.78704 0.33528 0.0
C1323 C 0.56331 0.78373 0.35054 0.0
C1324 C 0.58338 0.77179 0.31854 0.0
C1325 C 0.56973 0.75315 0.31797 0.0
H1326 H 0.54234 0.73625 0.33303 0.0
H1327 H 0.56045 0.79584 0.36298 0.0
C1328 C 0.49428 0.80192 0.43602 0.0
N1329 N 0.4968 0.80469 0.41389 0.0
C1330 C 0.49042 0.81987 0.44948 0.0
C1331 C 0.49175 0.84318 0.41714 0.0
C1332 C 0.49577 0.82485 0.40435 0.0
C1333 C 0.48891 0.84079 0.43998 0.0
H1334 H 0.49523 0.78572 0.44319 0.0
H1335 H 0.49814 0.82683 0.38687 0.0
C1336 C 0.51258 0.71084 0.36708 0.0
N1337 N 0.51755 0.66618 0.37025 0.0
C1338 C 0.49424 0.69697 0.36554 0.0
C1339 C 0.53347 0.70203 0.37003 0.0
C1340 C 0.49709 0.67442 0.36721 0.0
C1341 C 0.53563 0.6794 0.37167 0.0
C1342 C 0.46035 0.75836 0.40951 0.0
C1343 C 0.44857 0.7434 0.4226 0.0
C1344 C 0.45074 0.77812 0.40344 0.0
C1345 C 0.42722 0.74837 0.42915 0.0
C1346 C 0.42937 0.78251 0.41034 0.0
N1347 N 0.41814 0.76765 0.42293 0.0
C1348 C 0.53498 0.71288 0.42795 0.0
C1349 C 0.49864 0.7 0.42165 0.0
C1350 C 0.53916 0.69511 0.44189 0.0
N1351 N 0.51503 0.71493 0.41807 0.0
C1352 C 0.50207 0.68202 0.43558 0.0
C1353 C 0.52261 0.67935 0.44577 0.0
H1354 H 0.54765 0.72507 0.42509 0.0
H1355 H 0.48294 0.70198 0.41353 0.0
C1356 C 0.46269 0.75194 0.3299 0.0
N1357 N 0.46005 0.74699 0.35163 0.0
C1358 C 0.44556 0.74832 0.31498 0.0
C1359 C 0.42335 0.73411 0.34496 0.0
C1360 C 0.44094 0.73803 0.35933 0.0
C1361 C 0.42549 0.73943 0.32248 0.0
H1362 H 0.47819 0.75871 0.32416 0.0
H1363 H 0.43935 0.73378 0.37657 0.0
O1364 O 0.53046 0.76442 0.40202 0.0
O1365 O 0.50056 0.78088 0.36406 0.0
O1366 O 0.51004 0.73296 0.36611 0.0
O1367 O 0.48125 0.75366 0.40292 0.0
H1368 H 0.54251 0.80439 0.41352 0.0
H1369 H 0.56621 0.74168 0.39362 0.0
H1370 H 0.58112 0.8177 0.41594 0.0
H1371 H 0.6044 0.75608 0.39648 0.0
H1372 H 0.44828 0.82524 0.33494 0.0
H1373 H 0.5271 0.81097 0.3466 0.0
H1374 H 0.45926 0.79203 0.35551 0.0
H1375 H 0.51491 0.84378 0.32599 0.0
H1376 H 0.59034 0.8017 0.33614 0.0
H1377 H 0.57178 0.74093 0.3054 0.0
H1378 H 0.48838 0.81742 0.46706 0.0
H1379 H 0.49116 0.85912 0.40927 0.0
H1380 H 0.47795 0.70357 0.36333 0.0
H1381 H 0.54781 0.71258 0.37127 0.0
H1382 H 0.48304 0.66348 0.36618 0.0
H1383 H 0.55167 0.67234 0.37413 0.0
H1384 H 0.4558 0.72808 0.4276 0.0
H1385 H 0.45972 0.79002 0.39366 0.0
H1386 H 0.41787 0.7369 0.4392 0.0
H1387 H 0.42175 0.79775 0.40573 0.0
H1388 H 0.55507 0.69389 0.44982 0.0
H1389 H 0.48889 0.67022 0.4382 0.0
H1390 H 0.44813 0.75207 0.29769 0.0
H1391 H 0.40821 0.72705 0.35135 0.0
Li1392 Li 0.00595 0.77263 0.61816 0.0
Li1393 Li 0.98283 0.75564 0.6459 0.0
Li1394 Li 0.02256 0.74912 0.64827 0.0
Li1395 Li 0.99889 0.73243 0.61985 0.0
C1396 C 0.99708 0.79246 0.66348 0.0
N1397 N 0.97538 0.82138 0.69021 0.0
C1398 C 0.98846 0.81169 0.65459 0.0
C1399 C 0.99455 0.7879 0.68597 0.0
C1400 C 0.97761 0.82612 0.66838 0.0
C1401 C 0.98353 0.80272 0.6992 0.0
C1402 C 0.95678 0.76215 0.61092 0.0
C1403 C 0.91802 0.75351 0.61265 0.0
N1404 N 0.91342 0.77428 0.60617 0.0
C1405 C 0.95168 0.78338 0.60416 0.0
C1406 C 0.93984 0.74704 0.61506 0.0
C1407 C 0.92965 0.7892 0.60189 0.0
C1408 C 0.00531 0.7942 0.5771 0.0
N1409 N 0.01189 0.7964 0.59838 0.0
C1410 C 0.02693 0.83189 0.59049 0.0
C1411 C 0.0228 0.81463 0.60522 0.0
C1412 C 0.01988 0.8303 0.56849 0.0
C1413 C 0.00916 0.81101 0.56181 0.0
H1414 H 0.99703 0.77934 0.57204 0.0
H1415 H 0.02823 0.81578 0.62215 0.0
C1416 C 0.95354 0.74525 0.68091 0.0
N1417 N 0.95724 0.75986 0.66424 0.0
C1418 C 0.93633 0.74831 0.69577 0.0
C1419 C 0.92682 0.78125 0.67596 0.0
C1420 C 0.94422 0.7776 0.66155 0.0
C1421 C 0.92276 0.76655 0.69342 0.0
H1422 H 0.96427 0.73146 0.68301 0.0
H1423 H 0.94773 0.78937 0.64865 0.0
C1424 C 0.04733 0.75578 0.60884 0.0
N1425 N 0.08752 0.77184 0.59451 0.0
C1426 C 0.05734 0.74687 0.59036 0.0
C1427 C 0.05771 0.77287 0.62003 0.0
C1428 C 0.07768 0.75522 0.58337 0.0
C1429 C 0.07804 0.78076 0.61253 0.0
C1430 C 0.99548 0.70599 0.65396 0.0
C1431 C 0.0134 0.69289 0.65931 0.0
C1432 C 0.97501 0.6963 0.64971 0.0
C1433 C 0.0106 0.67022 0.65996 0.0
C1434 C 0.97288 0.67358 0.6505 0.0
N1435 N 0.99058 0.66111 0.65555 0.0
C1436 C 0.05052 0.7552 0.68567 0.0
C1437 C 0.06436 0.73174 0.65833 0.0
C1438 C 0.06953 0.75254 0.69836 0.0
N1439 N 0.0483 0.74488 0.66605 0.0
C1440 C 0.08374 0.72882 0.67037 0.0
C1441 C 0.08653 0.73941 0.6906 0.0
H1442 H 0.0377 0.76572 0.69137 0.0
H1443 H 0.06217 0.72365 0.64272 0.0
C1444 C 0.97803 0.70466 0.58854 0.0
N1445 N 0.99587 0.70711 0.60187 0.0
C1446 C 0.97579 0.68622 0.5753 0.0
C1447 C 0.01033 0.67319 0.58974 0.0
C1448 C 0.01203 0.69198 0.60249 0.0
C1449 C 0.99207 0.67019 0.57587 0.0
H1450 H 0.96555 0.71704 0.58813 0.0
H1451 H 0.02623 0.69452 0.61295 0.0
O1452 O 0.00757 0.77802 0.65018 0.0
O1453 O 0.97825 0.75614 0.61317 0.0
O1454 O 0.02736 0.74786 0.61577 0.0
O1455 O 0.99798 0.72819 0.6528 0.0
H1456 H 0.98975 0.81528 0.63717 0.0
H1457 H 1.00052 0.77283 0.69305 0.0
H1458 H 0.9708 0.84102 0.66169 0.0
H1459 H 0.98131 0.79931 0.71659 0.0
H1460 H 0.90474 0.74202 0.61594 0.0
H1461 H 0.96455 0.79533 0.60099 0.0
H1462 H 0.94348 0.73053 0.62022 0.0
H1463 H 0.92545 0.80561 0.5968 0.0
H1464 H 0.03536 0.84642 0.59628 0.0
H1465 H 0.00404 0.80882 0.54487 0.0
H1466 H 0.93381 0.73666 0.70911 0.0
H1467 H 0.91714 0.79586 0.67392 0.0
H1468 H 0.04946 0.73365 0.58152 0.0
H1469 H 0.05015 0.78 0.63433 0.0
H1470 H 0.08563 0.74848 0.56909 0.0
H1471 H 0.08627 0.79398 0.62102 0.0
H1472 H 0.02932 0.70012 0.66277 0.0
H1473 H 0.96095 0.70623 0.64572 0.0
H1474 H 0.02435 0.65987 0.66394 0.0
H1475 H 0.95717 0.66585 0.64709 0.0
H1476 H 0.07117 0.76107 0.71383 0.0
H1477 H 0.09639 0.71837 0.66396 0.0
H1478 H 0.96138 0.68437 0.56495 0.0
H1479 H 0.02328 0.66122 0.5905 0.0
Li1480 Li 0.50746 0.27136 0.11904 0.0
Li1481 Li 0.48399 0.25614 0.1465 0.0
Li1482 Li 0.52334 0.24968 0.14915 0.0
Li1483 Li 0.49909 0.23178 0.11913 0.0
C1484 C 0.50124 0.29848 0.15497 0.0
N1485 N 0.48693 0.34022 0.16313 0.0
C1486 C 0.48212 0.30615 0.1449 0.0
C1487 C 0.51308 0.31202 0.16921 0.0
C1488 C 0.47515 0.3273 0.14923 0.0
C1489 C 0.50559 0.33308 0.17312 0.0
C1490 C 0.45837 0.25532 0.10598 0.0
C1491 C 0.4259 0.2346 0.09608 0.0
N1492 N 0.41629 0.25327 0.08881 0.0
C1493 C 0.44827 0.27426 0.09815 0.0
C1494 C 0.4472 0.23528 0.10472 0.0
C1495 C 0.42694 0.2729 0.08965 0.0
C1496 C 0.50492 0.29347 0.07843 0.0
N1497 N 0.51298 0.29529 0.09924 0.0
C1498 C 0.52992 0.32968 0.09019 0.0
C1499 C 0.52523 0.31295 0.10539 0.0
C1500 C 0.5222 0.32797 0.06847 0.0
C1501 C 0.5094 0.30969 0.06268 0.0
H1502 H 0.49535 0.27918 0.07398 0.0
H1503 H 0.53173 0.31384 0.12194 0.0
C1504 C 0.46393 0.27057 0.18525 0.0
N1505 N 0.45906 0.26164 0.16537 0.0
C1506 C 0.44721 0.27578 0.19993 0.0
C1507 C 0.42061 0.26192 0.17386 0.0
C1508 C 0.43788 0.25698 0.15965 0.0
C1509 C 0.42518 0.27177 0.19415 0.0
H1510 H 0.48089 0.27364 0.18974 0.0
H1511 H 0.43423 0.24942 0.14413 0.0
C1512 C 0.5436 0.25591 0.10277 0.0
N1513 N 0.57251 0.27655 0.07407 0.0
C1514 C 0.54191 0.25239 0.08011 0.0
C1515 C 0.56006 0.2698 0.11086 0.0
C1516 C 0.55666 0.26302 0.06587 0.0
C1517 C 0.57452 0.28009 0.09608 0.0
C1518 C 0.48581 0.21946 0.16836 0.0
C1519 C 0.49121 0.22335 0.19037 0.0
C1520 C 0.46659 0.20783 0.16326 0.0
C1521 C 0.47709 0.21574 0.20696 0.0
C1522 C 0.4529 0.20049 0.18033 0.0
N1523 N 0.45838 0.20459 0.20164 0.0
C1524 C 0.54896 0.2549 0.18793 0.0
C1525 C 0.56533 0.23379 0.16001 0.0
C1526 C 0.56749 0.25246 0.20138 0.0
N1527 N 0.54827 0.24562 0.16768 0.0
C1528 C 0.58424 0.23111 0.17282 0.0
C1529 C 0.58547 0.2405 0.19379 0.0
H1530 H 0.5352 0.26437 0.19352 0.0
H1531 H 0.56434 0.22666 0.1438 0.0
C1532 C 0.4921 0.20847 0.07948 0.0
N1533 N 0.49536 0.20642 0.10158 0.0
C1534 C 0.48993 0.1899 0.06642 0.0
C1535 C 0.49401 0.16752 0.09918 0.0
C1536 C 0.49622 0.1865 0.11158 0.0
C1537 C 0.49115 0.16906 0.07623 0.0
H1538 H 0.49131 0.22456 0.07201 0.0
H1539 H 0.49869 0.18536 0.12921 0.0
O1540 O 0.50841 0.27782 0.15101 0.0
O1541 O 0.47942 0.25631 0.11393 0.0
O1542 O 0.52876 0.24641 0.11691 0.0
O1543 O 0.49905 0.22741 0.15188 0.0
H1544 H 0.47273 0.29583 0.13397 0.0
H1545 H 0.52793 0.30629 0.17713 0.0
H1546 H 0.46035 0.33342 0.14157 0.0
H1547 H 0.51459 0.34375 0.18409 0.0
H1548 H 0.41701 0.21923 0.09515 0.0
H1549 H 0.45683 0.28984 0.09851 0.0
H1550 H 0.45475 0.22044 0.11054 0.0
H1551 H 0.4189 0.28744 0.08362 0.0
H1552 H 0.53995 0.34351 0.09517 0.0
H1553 H 0.503 0.30792 0.04612 0.0
H1554 H 0.45149 0.28277 0.2157 0.0
H1555 H 0.40384 0.25839 0.16889 0.0
H1556 H 0.52918 0.24179 0.07359 0.0
H1557 H 0.56143 0.27287 0.12834 0.0
H1558 H 0.55545 0.2606 0.04828 0.0
H1559 H 0.58724 0.29101 0.10208 0.0
H1560 H 0.50599 0.23239 0.19457 0.0
H1561 H 0.4622 0.20465 0.14632 0.0
H1562 H 0.48097 0.21877 0.22407 0.0
H1563 H 0.43789 0.19159 0.17663 0.0
H1564 H 0.56799 0.26029 0.21729 0.0
H1565 H 0.59778 0.2218 0.1664 0.0
H1566 H 0.48771 0.1918 0.04879 0.0
H1567 H 0.49448 0.1518 0.10749 0.0
C1568 C 0.24376 0.77093 0.88709 0.0
C1569 C 0.23096 0.77702 0.86872 0.0
C1570 C 0.24523 0.78421 0.90575 0.0
C1571 C 0.23414 0.80421 0.90669 0.0
H1572 H 0.25286 0.75585 0.88696 0.0
H1573 H 0.25561 0.77906 0.91932 0.0
S1574 S 0.19795 0.82734 0.86331 0.0
N1575 N 0.20674 0.80429 0.85282 0.0
N1576 N 0.20918 0.82898 0.88803 0.0
C1577 C 0.22094 0.81027 0.88864 0.0
C1578 C 0.21939 0.79674 0.86966 0.0
C1579 C 0.03071 0.53488 0.38653 0.0
C1580 C 0.03249 0.51925 0.40359 0.0
C1581 C 0.0429 0.53305 0.367 0.0
C1582 C 0.05728 0.51553 0.36384 0.0
H1583 H 0.0202 0.54887 0.38849 0.0
H1584 H 0.0414 0.54568 0.35447 0.0
S1585 S 0.06573 0.46892 0.40231 0.0
N1586 N 0.04831 0.48475 0.41523 0.0
N1587 N 0.07114 0.48135 0.37863 0.0
C1588 C 0.05864 0.49946 0.38048 0.0
C1589 C 0.04626 0.50131 0.40031 0.0
C1590 C 0.78524 0.74511 0.90081 0.0
C1591 C 0.78619 0.73956 0.87839 0.0
C1592 C 0.77966 0.72956 0.91701 0.0
C1593 C 0.77494 0.70775 0.9115 0.0
H1594 H 0.78884 0.76168 0.90589 0.0
H1595 H 0.77947 0.73458 0.93407 0.0
S1596 S 0.77464 0.68484 0.85515 0.0
N1597 N 0.78172 0.71074 0.85147 0.0
N1598 N 0.77095 0.68151 0.88194 0.0
C1599 C 0.77557 0.70199 0.88912 0.0
C1600 C 0.78119 0.71789 0.87257 0.0
C1601 C 0.97305 0.96128 0.38167 0.0
C1602 C 0.98888 0.97701 0.38785 0.0
C1603 C 0.95714 0.96596 0.36558 0.0
C1604 C 0.95641 0.98657 0.35512 0.0
H1605 H 0.97337 0.94502 0.38884 0.0
H1606 H 0.94572 0.95312 0.36085 0.0
S1607 S 0.99256 0.03419 0.36742 0.0
N1608 N 1.00183 0.01448 0.38358 0.0
N1609 N 0.97178 0.02341 0.35357 0.0
C1610 C 0.97166 1.00268 0.36178 0.0
C1611 C 0.98792 0.99787 0.37807 0.0
C1612 C 0.24303 0.23941 0.62563 0.0
C1613 C 0.22381 0.23705 0.63834 0.0
C1614 C 0.24846 0.22399 0.60964 0.0
C1615 C 0.235 0.20551 0.60593 0.0
H1616 H 0.25359 0.25363 0.62756 0.0
H1617 H 0.26322 0.22665 0.59997 0.0
S1618 S 0.18345 0.19122 0.6357 0.0
N1619 N 0.19186 0.21431 0.64691 0.0
N1620 N 0.20184 0.18554 0.6167 0.0
C1621 C 0.21606 0.20267 0.61898 0.0
C1622 C 0.21051 0.21839 0.63519 0.0
C1623 C 0.47339 0.54883 0.63184 0.0
C1624 C 0.491 0.53462 0.62833 0.0
C1625 C 0.45754 0.54434 0.64812 0.0
C1626 C 0.45869 0.52543 0.66146 0.0
H1627 H 0.47222 0.56387 0.62238 0.0
H1628 H 0.44464 0.55606 0.65068 0.0
S1629 S 0.50004 0.48169 0.65693 0.0
N1630 N 0.50766 0.50005 0.63825 0.0
N1631 N 0.47782 0.49147 0.66867 0.0
C1632 C 0.47578 0.5107 0.65753 0.0
C1633 C 0.49193 0.51532 0.64102 0.0
C1634 C 0.76444 0.26807 0.62813 0.0
C1635 C 0.78457 0.26988 0.63948 0.0
C1636 C 0.75859 0.28328 0.61175 0.0
C1637 C 0.77257 0.30099 0.60618 0.0
H1638 H 0.75339 0.25443 0.63148 0.0
H1639 H 0.74306 0.28107 0.60325 0.0
S1640 S 0.8267 0.31362 0.63172 0.0
N1641 N 0.81804 0.29132 0.64473 0.0
N1642 N 0.80732 0.3196 0.61364 0.0
C1643 C 0.79252 0.30326 0.61778 0.0
C1644 C 0.79846 0.28778 0.63445 0.0
C1645 C 0.55026 0.99933 0.61576 0.0
C1646 C 0.53199 0.98515 0.61399 0.0
C1647 C 0.56238 1.00075 0.63536 0.0
C1648 C 0.55681 0.98795 0.65398 0.0
H1649 H 0.55516 0.00954 0.60189 0.0
H1650 H 0.57617 0.01209 0.63595 0.0
S1651 S 0.51099 0.94742 0.65747 0.0
N1652 N 0.50913 0.9577 0.63227 0.0
N1653 N 0.53211 0.96005 0.66909 0.0
C1654 C 0.53855 0.97365 0.65242 0.0
C1655 C 0.5261 0.97233 0.63245 0.0
C1656 C 0.8979 0.2168 0.76826 0.0
C1657 C 0.87554 0.22097 0.77212 0.0
C1658 C 0.91409 0.22235 0.78374 0.0
C1659 C 0.90859 0.23216 0.80381 0.0
H1660 H 0.90295 0.20923 0.75307 0.0
H1661 H 0.93105 0.21859 0.78011 0.0
S1662 S 0.85248 0.24684 0.82183 0.0
N1663 N 0.84873 0.23562 0.79747 0.0
N1664 N 0.87923 0.24631 0.8265 0.0
C1665 C 0.88632 0.23659 0.80784 0.0
C1666 C 0.8698 0.231 0.792 0.0
C1667 C 0.4961 0.88376 0.48425 0.0
C1668 C 0.47993 0.89916 0.47875 0.0
C1669 C 0.4985 0.8646 0.47203 0.0
C1670 C 0.48491 0.8602 0.4538 0.0
H1671 H 0.5075 0.88688 0.49761 0.0
H1672 H 0.51158 0.85353 0.47643 0.0
S1673 S 0.43826 0.8937 0.43433 0.0
N1674 N 0.44872 0.90754 0.45515 0.0
N1675 N 0.4535 0.87173 0.43205 0.0
C1676 C 0.46814 0.87499 0.44867 0.0
C1677 C 0.46559 0.8944 0.46116 0.0
C1678 C 0.13675 0.28801 0.79451 0.0
C1679 C 0.13408 0.28286 0.7721 0.0
C1680 C 0.12003 0.2835 0.80988 0.0
C1681 C 0.09991 0.27397 0.80335 0.0
H1682 H 0.15186 0.29567 0.80017 0.0
H1683 H 0.12266 0.28798 0.82691 0.0
S1684 S 0.08479 0.25699 0.74678 0.0
N1685 N 0.10981 0.26749 0.74425 0.0
N1686 N 0.07854 0.25886 0.77315 0.0
C1687 C 0.09715 0.26847 0.78108 0.0
C1688 C 0.1142 0.27293 0.76547 0.0
C1689 C 0.51644 0.63967 0.49404 0.0
C1690 C 0.53517 0.62655 0.49227 0.0
C1691 C 0.51215 0.65628 0.47857 0.0
C1692 C 0.52661 0.66061 0.46094 0.0
H1693 H 0.50512 0.63719 0.50763 0.0
H1694 H 0.49774 0.66624 0.48079 0.0
S1695 S 0.57758 0.63056 0.44851 0.0
N1696 N 0.56802 0.61872 0.47118 0.0
N1697 N 0.55992 0.64988 0.4421 0.0
C1698 C 0.54516 0.64735 0.45874 0.0
C1699 C 0.54942 0.63032 0.47437 0.0
C1700 C 0.89518 0.77637 0.74846 0.0
C1701 C 0.87374 0.7825 0.74247 0.0
C1702 C 0.91069 0.77067 0.73254 0.0
C1703 C 0.90544 0.77104 0.70996 0.0
H1704 H 0.90008 0.77614 0.76564 0.0
H1705 H 0.92712 0.76653 0.73792 0.0
S1706 S 0.8514 0.78513 0.6856 0.0
N1707 N 0.84792 0.78812 0.71238 0.0
N1708 N 0.87703 0.77717 0.68244 0.0
C1709 C 0.88394 0.77669 0.70374 0.0
C1710 C 0.86809 0.78241 0.71999 0.0
C1711 C 0.04975 0.87492 0.53571 0.0
C1712 C 0.03364 0.88207 0.52073 0.0
C1713 C 0.0451 0.85839 0.55127 0.0
C1714 C 0.02412 0.84845 0.55248 0.0
H1715 H 0.06626 0.88174 0.53501 0.0
H1716 H 0.05819 0.853 0.56207 0.0
S1717 S 0.97554 0.86313 0.51859 0.0
N1718 N 0.9955 0.87913 0.50908 0.0
N1719 N 0.98662 0.8483 0.53849 0.0
C1720 C 0.00768 0.85599 0.53805 0.0
C1721 C 0.01246 0.87273 0.52215 0.0
C1722 C 0.12625 0.72922 0.73806 0.0
C1723 C 0.14681 0.73446 0.72867 0.0
C1724 C 0.1068 0.73081 0.72565 0.0
C1725 C 0.10728 0.7373 0.70332 0.0
H1726 H 0.12517 0.72432 0.75523 0.0
H1727 H 0.09126 0.72689 0.73354 0.0
S1728 S 0.15697 0.75215 0.67089 0.0
N1729 N 0.16652 0.74593 0.69564 0.0
N1730 N 0.13003 0.74883 0.67235 0.0
C1731 C 0.12776 0.74221 0.69368 0.0
C1732 C 0.1475 0.74083 0.70635 0.0
C1733 C 0.99039 0.61043 0.55999 0.0
C1734 C 0.98727 0.61117 0.53698 0.0
C1735 C 0.99182 0.62956 0.57239 0.0
C1736 C 0.98998 0.65022 0.56233 0.0
H1737 H 0.99168 0.5949 0.56856 0.0
H1738 H 0.99426 0.62817 0.59004 0.0
S1739 S 0.98255 0.66141 0.50264 0.0
N1740 N 0.98308 0.63451 0.50459 0.0
N1741 N 0.98531 0.67045 0.52804 0.0
C1742 C 0.98668 0.65129 0.53941 0.0
C1743 C 0.98542 0.63179 0.52671 0.0
C1744 C 0.76266 0.8994 0.22162 0.0
C1745 C 0.76719 0.8772 0.2254 0.0
C1746 C 0.77768 0.91583 0.22765 0.0
C1747 C 0.79794 0.91071 0.23752 0.0
H1748 H 0.74734 0.90413 0.21391 0.0
H1749 H 0.77359 0.93267 0.22414 0.0
S1750 S 0.81758 0.85515 0.25142 0.0
N1751 N 0.79328 0.85096 0.23991 0.0
N1752 N 0.8215 0.88188 0.25139 0.0
C1753 C 0.8026 0.88859 0.24163 0.0
C1754 C 0.78722 0.87185 0.2356 0.0
C1755 C 0.77454 0.12741 0.28417 0.0
C1756 C 0.78225 0.14722 0.27492 0.0
C1757 C 0.78705 0.10832 0.28292 0.0
C1758 C 0.80786 0.10855 0.27278 0.0
H1759 H 0.75861 0.12661 0.29211 0.0
H1760 H 0.78051 0.09332 0.29008 0.0
S1761 S 0.83555 0.15638 0.24651 0.0
N1762 N 0.81201 0.16596 0.25556 0.0
N1763 N 0.83555 0.13023 0.25339 0.0
C1764 C 0.8158 0.12832 0.26372 0.0
C1765 C 0.80299 0.14761 0.26474 0.0
C1766 C 0.39222 0.95648 0.99944 0.0
C1767 C 0.39222 0.97666 0.98815 0.0
C1768 C 0.37297 0.94388 1.00169 0.0
C1769 C 0.35288 0.95089 0.9927 0.0
H1770 H 0.40725 0.95043 0.00676 0.0
H1771 H 0.3738 0.92854 0.01069 0.0
S1772 S 0.34426 1.00201 0.96064 0.0
N1773 N 0.37058 1.00286 0.96737 0.0
N1774 N 0.33433 0.97907 0.97142 0.0
C1775 C 0.35262 0.97105 0.98134 0.0
C1776 C 0.37228 0.98395 0.97911 0.0
C1777 C 0.24466 0.39826 0.28192 0.0
C1778 C 0.23867 0.37682 0.28818 0.0
C1779 C 0.2287 0.41377 0.27658 0.0
C1780 C 0.20615 0.40851 0.27766 0.0
H1781 H 0.26184 0.40309 0.28121 0.0
H1782 H 0.23404 0.43016 0.27209 0.0
S1783 S 0.18187 0.35458 0.29274 0.0
N1784 N 0.20868 0.351 0.29474 0.0
N1785 N 0.17862 0.38027 0.28495 0.0
C1786 C 0.19993 0.38709 0.28369 0.0
C1787 C 0.21621 0.3712 0.28884 0.0
C1788 C 0.14957 0.0149 0.46884 0.0
C1789 C 0.12786 0.01723 0.47642 0.0
C1790 C 0.16586 0.03062 0.47333 0.0
C1791 C 0.1611 0.04938 0.48548 0.0
H1792 H 0.15398 1.0009 0.45912 0.0
H1793 H 0.18229 0.0282 0.467 0.0
S1794 S 0.10729 0.06271 0.51025 0.0
N1795 N 0.10276 0.03938 0.49754 0.0
N1796 N 0.13338 0.06906 0.50576 0.0
C1797 C 0.13953 0.05193 0.49325 0.0
C1798 C 0.12292 0.03584 0.48877 0.0
C1799 C 0.71586 0.13303 0.72274 0.0
C1800 C 0.73798 0.13168 0.72943 0.0
C1801 C 0.70066 0.11627 0.72774 0.0
C1802 C 0.70701 0.0975 0.73961 0.0
H1803 H 0.71027 0.14717 0.71355 0.0
H1804 H 0.6838 0.11802 0.7223 0.0
S1805 S 0.76329 0.08527 0.75949 0.0
N1806 N 0.76565 0.10959 0.74768 0.0
N1807 N 0.73714 0.07813 0.75705 0.0
C1808 C 0.72908 0.09591 0.74632 0.0
C1809 C 0.74454 0.11297 0.74125 0.0
C1810 C 0.38466 0.03831 0.54109 0.0
C1811 C 0.3989 0.03664 0.52299 0.0
C1812 C 0.36543 0.05073 0.53965 0.0
C1813 C 0.35969 0.06178 0.52001 0.0
H1814 H 0.3887 0.03041 0.5566 0.0
H1815 H 0.35522 0.05204 0.55417 0.0
S1816 S 0.39027 0.06017 0.46717 0.0
N1817 N 0.40527 0.04561 0.48446 0.0
N1818 N 0.36897 0.06846 0.48152 0.0
C1819 C 0.37348 0.05951 0.50159 0.0
C1820 C 0.3931 0.04706 0.50313 0.0
C1821 C 0.64709 0.49496 0.53615 0.0
C1822 C 0.62446 0.48978 0.53564 0.0
C1823 C 0.66297 0.47919 0.5318 0.0
C1824 C 0.65688 0.45757 0.52693 0.0
H1825 H 0.65264 0.51128 0.54031 0.0
H1826 H 0.68019 0.48388 0.53263 0.0
S1827 S 0.59995 0.4358 0.52192 0.0
N1828 N 0.59683 0.46163 0.52862 0.0
N1829 N 0.62675 0.43193 0.52084 0.0
C1830 C 0.63437 0.45215 0.52613 0.0
C1831 C 0.61816 0.46826 0.5304 0.0
C1832 C 0.73503 0.30417 0.36433 0.0
C1833 C 0.73562 0.28122 0.36511 0.0
C1834 C 0.73557 0.31649 0.38367 0.0
C1835 C 0.73708 0.30632 0.40449 0.0
H1836 H 0.73419 0.31268 0.34861 0.0
H1837 H 0.7353 0.33413 0.38229 0.0
S1838 S 0.73869 0.24671 0.41554 0.0
N1839 N 0.73736 0.24879 0.38841 0.0
N1840 N 0.73858 0.27197 0.42481 0.0
C1841 C 0.73747 0.28339 0.40553 0.0
C1842 C 0.73664 0.27083 0.38583 0.0
C1843 C 0.54307 0.04002 0.89116 0.0
C1844 C 0.52652 0.02493 0.89744 0.0
C1845 C 0.55548 0.03711 0.87196 0.0
C1846 C 0.55198 0.01887 0.85843 0.0
H1847 H 0.54658 0.0541 0.90128 0.0
H1848 H 0.56833 0.04891 0.868 0.0
S1849 S 0.51024 0.97494 0.86716 0.0
N1850 N 0.50711 0.99125 0.88837 0.0
N1851 N 0.53016 0.986 0.85215 0.0
C1852 C 0.53519 0.0039 0.86428 0.0
C1853 C 0.52252 0.0069 0.88377 0.0
C1854 C 0.29721 0.22439 0.38202 0.0
C1855 C 0.28408 0.24286 0.37856 0.0
C1856 C 0.29199 0.20884 0.39839 0.0
C1857 C 0.27358 0.21129 0.41209 0.0
H1858 H 0.31175 0.22202 0.37209 0.0
H1859 H 0.30279 0.19508 0.40071 0.0
S1860 S 0.23348 0.25635 0.40933 0.0
N1861 N 0.25158 0.26248 0.3899 0.0
N1862 N 0.24168 0.23316 0.42054 0.0
C1863 C 0.26007 0.22946 0.40854 0.0
C1864 C 0.26531 0.24524 0.39178 0.0
C1865 C 0.49391 0.47267 0.8637 0.0
C1866 C 0.4896 0.47604 0.88619 0.0
C1867 C 0.47817 0.47733 0.84749 0.0
C1868 C 0.45743 0.48548 0.85309 0.0
H1869 H 0.5095 0.46605 0.85857 0.0
H1870 H 0.48217 0.4742 0.83044 0.0
S1871 S 0.43834 0.49849 0.9094 0.0
N1872 N 0.46336 0.48892 0.91311 0.0
N1873 N 0.4337 0.49758 0.8826 0.0
C1874 C 0.45291 0.48909 0.87547 0.0
C1875 C 0.46899 0.48438 0.89201 0.0
C1876 C 0.72146 0.71524 0.14036 0.0
C1877 C 0.72746 0.73738 0.13762 0.0
C1878 C 0.72572 0.69991 0.12391 0.0
C1879 C 0.73591 0.70621 0.10399 0.0
H1880 H 0.71321 0.70975 0.15526 0.0
H1881 H 0.72042 0.68314 0.12654 0.0
S1882 S 0.75561 0.76194 0.08892 0.0
N1883 N 0.74454 0.76468 0.11354 0.0
N1884 N 0.75289 0.73583 0.08291 0.0
C1885 C 0.74247 0.72816 0.10127 0.0
C1886 C 0.7382 0.74374 0.118 0.0
C1887 C 0.99491 0.03587 0.15284 0.0
C1888 C 0.99025 0.03362 0.13025 0.0
C1889 C 0.97886 0.03149 0.16888 0.0
C1890 C 0.95748 0.02464 0.16301 0.0
H1891 H 0.01103 0.04141 0.15818 0.0
H1892 H 0.98317 0.0338 0.18603 0.0
S1893 S 0.93731 0.0148 0.10619 0.0
N1894 N 0.963 0.02325 0.10284 0.0
N1895 N 0.93281 0.01486 0.13302 0.0
C1896 C 0.95265 0.0221 0.14048 0.0
C1897 C 0.96902 0.02663 0.12412 0.0
C1898 C 0.29888 0.7831 0.12917 0.0
C1899 C 0.28288 0.7702 0.14009 0.0
C1900 C 0.29305 0.79848 0.11299 0.0
C1901 C 0.27094 0.8017 0.10703 0.0
H1902 H 0.31615 0.78113 0.13297 0.0
H1903 H 0.30608 0.8075 0.10465 0.0
S1904 S 0.22253 0.77302 0.13147 0.0
N1905 N 0.24383 0.76206 0.14412 0.0
N1906 N 0.23282 0.79157 0.11432 0.0
C1907 C 0.25468 0.7894 0.11829 0.0
C1908 C 0.26065 0.7736 0.13471 0.0
C1909 C 0.02596 0.4974 0.13077 0.0
C1910 C 0.02716 0.47819 0.11833 0.0
C1911 C 0.03853 0.50013 0.14995 0.0
C1912 C 0.05275 0.48372 0.15755 0.0
H1913 H 0.0157 0.51073 0.12528 0.0
H1914 H 0.03722 0.5153 0.15882 0.0
S1915 S 0.06117 0.42993 0.13155 0.0
N1916 N 0.04294 0.44207 0.11556 0.0
N1917 N 0.06698 0.44739 0.15133 0.0
C1918 C 0.05373 0.46422 0.14557 0.0
C1919 C 0.0409 0.46144 0.12603 0.0
C1920 C 0.3809 0.70884 0.29095 0.0
C1921 C 0.3743 0.72409 0.27481 0.0
C1922 C 0.39701 0.71413 0.30665 0.0
C1923 C 0.40728 0.73484 0.30673 0.0
H1924 H 0.3737 0.69257 0.29132 0.0
H1925 H 0.40189 0.70169 0.31843 0.0
S1926 S 0.39526 0.78097 0.26864 0.0
N1927 N 0.37891 0.76099 0.26025 0.0
N1928 N 0.40892 0.77105 0.28997 0.0
C1929 C 0.40045 0.75043 0.29103 0.0
C1930 C 0.384 0.74505 0.27508 0.0
C1931 C 1.00063 0.39308 0.96483 0.0
C1932 C 0.98249 0.39595 0.9788 0.0
C1933 C 1.00292 0.37403 0.95255 0.0
C1934 C 0.98712 0.35706 0.95362 0.0
H1935 H 0.01324 0.40568 0.96346 0.0
H1936 H 0.01729 0.37255 0.94217 0.0
S1937 S 0.93604 0.35695 0.98702 0.0
N1938 N 0.94823 0.38047 0.99275 0.0
N1939 N 0.95232 0.3447 0.9694 0.0
C1940 C 0.96889 0.35969 0.96758 0.0
C1941 C 0.96663 0.37911 0.98022 0.0
C1942 C 0.63801 0.78539 0.29075 0.0
C1943 C 0.63234 0.78595 0.26827 0.0
C1944 C 0.62213 0.78063 0.30696 0.0
C1945 C 0.60017 0.77588 0.30119 0.0
H1946 H 0.65469 0.78919 0.29585 0.0
H1947 H 0.62705 0.78071 0.32412 0.0
S1948 S 0.57721 0.77454 0.24456 0.0
N1949 N 0.60346 0.78086 0.24105 0.0
N1950 N 0.5737 0.77182 0.27143 0.0
C1951 C 0.59445 0.77595 0.27874 0.0
C1952 C 0.61052 0.78102 0.26231 0.0
C1953 C 0.05222 0.14705 0.99535 0.0
C1954 C 0.03942 0.12782 0.99722 0.0
C1955 C 0.04736 0.16316 0.97956 0.0
C1956 C 0.02947 0.16073 0.96502 0.0
H1957 H 0.06619 0.14965 0.00615 0.0
H1958 H 0.05779 0.17761 0.97868 0.0
S1959 S 0.99017 0.1139 0.96386 0.0
N1960 N 0.00774 0.10749 0.9836 0.0
N1961 N 0.99848 0.13783 0.95399 0.0
C1962 C 0.01653 0.14156 0.96669 0.0
C1963 C 0.02154 0.1251 0.98276 0.0
C1964 C 0.37374 0.26776 0.22972 0.0
C1965 C 0.3728 0.28853 0.23933 0.0
C1966 C 0.39049 0.26255 0.21484 0.0
C1967 C 0.40709 0.27785 0.20925 0.0
H1968 H 0.36144 0.25542 0.23376 0.0
H1969 H 0.39072 0.24629 0.20802 0.0
S1970 S 0.41201 0.33457 0.22965 0.0
N1971 N 0.38998 0.32447 0.24215 0.0
N1972 N 0.42117 0.31481 0.21397 0.0
C1973 C 0.4062 0.29873 0.21856 0.0
C1974 C 0.38914 0.30405 0.23362 0.0
C1975 C 0.52798 0.38308 0.03938 0.0
C1976 C 0.53765 0.37765 0.01913 0.0
C1977 C 0.52324 0.36698 0.05541 0.0
C1978 C 0.5279 0.3449 0.0517 0.0
H1979 H 0.52369 0.39982 0.04272 0.0
H1980 H 0.5155 0.37178 0.07064 0.0
S1981 S 0.55544 0.32243 1.00263 0.0
N1982 N 0.5534 0.34879 0.99716 0.0
N1983 N 0.54414 0.31863 0.02711 0.0
C1984 C 0.53805 0.33933 0.03181 0.0
C1985 C 0.543 0.35567 0.01558 0.0
C1986 C 0.64576 0.24353 0.20996 0.0
C1987 C 0.6457 0.23654 0.23213 0.0
C1988 C 0.62626 0.24447 0.19768 0.0
C1989 C 0.60588 0.23871 0.20714 0.0
H1990 H 0.66106 0.24824 0.20201 0.0
H1991 H 0.62709 0.2501 0.18071 0.0
S1992 S 0.59676 0.21912 0.26449 0.0
N1993 N 0.62357 0.22358 0.26301 0.0
N1994 N 0.58683 0.22539 0.2399 0.0
C1995 C 0.60556 0.2316 0.22926 0.0
C1996 C 0.62549 0.23045 0.24174 0.0
C1997 C 0.47073 0.12768 0.03414 0.0
C1998 C 0.48519 0.11017 0.03721 0.0
C1999 C 0.47285 0.14676 0.04666 0.0
C2000 C 0.48956 0.14903 0.06262 0.0
H2001 H 0.45742 0.12643 0.02233 0.0
H2002 H 0.46106 0.15965 0.04414 0.0
S2003 S 0.53321 0.10888 0.07493 0.0
N2004 N 0.51775 0.09695 0.05607 0.0
N2005 N 0.52192 0.1328 0.07935 0.0
C2006 C 0.50454 0.13188 0.06527 0.0
C2007 C 0.50231 0.11248 0.05263 0.0
C2008 C 0.28609 0.38155 0.71073 0.0
C2009 C 0.26981 0.37431 0.72566 0.0
C2010 C 0.30119 0.39809 0.71633 0.0
C2011 C 0.30054 0.40817 0.73705 0.0
H2012 H 0.28708 0.37448 0.69448 0.0
H2013 H 0.31313 0.4034 0.70411 0.0
S2014 S 0.26166 0.39469 0.78239 0.0
N2015 N 0.25419 0.37829 0.76223 0.0
N2016 N 0.28287 0.40901 0.77292 0.0
C2017 C 0.28465 0.40077 0.75231 0.0
C2018 C 0.26927 0.38391 0.74661 0.0
C2019 C 0.27342 0.625 0.78222 0.0
C2020 C 0.28153 0.64538 0.77478 0.0
C2021 C 0.28618 0.6061 0.78063 0.0
C2022 C 0.30762 0.60704 0.77193 0.0
H2023 H 0.25699 0.6236 0.78899 0.0
H2024 H 0.27931 0.59069 0.78643 0.0
S2025 S 0.33658 0.65655 0.75063 0.0
N2026 N 0.31242 0.66543 0.75875 0.0
N2027 N 0.33631 0.63002 0.75575 0.0
C2028 C 0.31594 0.62737 0.76465 0.0
C2029 C 0.30293 0.6465 0.76607 0.0
C2030 C 0.88214 0.4691 0.47316 0.0
C2031 C 0.89267 0.47774 0.49188 0.0
C2032 C 0.86297 0.45621 0.47505 0.0
C2033 C 0.85357 0.45136 0.49574 0.0
H2034 H 0.8888 0.47229 0.45688 0.0
H2035 H 0.85571 0.44963 0.46018 0.0
S2036 S 0.87437 0.47039 0.54988 0.0
N2037 N 0.89222 0.4804 0.53186 0.0
N2038 N 0.85575 0.45704 0.53529 0.0
C2039 C 0.8637 0.46022 0.51457 0.0
C2040 C 0.8833 0.47321 0.51267 0.0
C2041 C 0.74315 0.89247 0.77838 0.0
C2042 C 0.7364 0.87112 0.78421 0.0
C2043 C 0.72777 0.90894 0.77449 0.0
C2044 C 0.70505 0.90466 0.77606 0.0
H2045 H 0.76048 0.89666 0.77742 0.0
H2046 H 0.73373 0.9252 0.77031 0.0
S2047 S 0.67881 0.85127 0.78993 0.0
N2048 N 0.70545 0.8464 0.79062 0.0
N2049 N 0.67653 0.8774 0.78343 0.0
C2050 C 0.69805 0.88327 0.78138 0.0
C2051 C 0.71373 0.86652 0.78548 0.0
C2052 C 0.62677 0.52727 0.99293 0.0
C2053 C 0.62859 0.51436 0.974 0.0
C2054 C 0.64285 0.54311 0.99803 0.0
C2055 C 0.66128 0.54662 0.98436 0.0
H2056 H 0.61308 0.52477 0.0041 0.0
H2057 H 0.64109 0.55235 0.01303 0.0
S2058 S 0.67217 0.51897 0.93147 0.0
N2059 N 0.64926 0.50737 0.94065 0.0
N2060 N 0.67932 0.53716 0.95012 0.0
C2061 C 0.66285 0.5343 0.96502 0.0
C2062 C 0.64655 0.51818 0.95987 0.0
C2063 C 0.21529 0.63745 0.23096 0.0
C2064 C 0.23805 0.63388 0.23266 0.0
C2065 C 0.19998 0.6206 0.23534 0.0
C2066 C 0.20691 0.59949 0.24124 0.0
H2067 H 0.20928 0.65337 0.22611 0.0
H2068 H 0.18262 0.62395 0.23356 0.0
S2069 S 0.26457 0.58173 0.24836 0.0
N2070 N 0.26669 0.60767 0.2409 0.0
N2071 N 0.23795 0.57614 0.24929 0.0
C2072 C 0.22958 0.5958 0.2433 0.0
C2073 C 0.24513 0.61295 0.239 0.0
C2074 C 0.89375 0.54851 0.01275 0.0
C2075 C 0.89528 0.53088 0.0277 0.0
C2076 C 0.87468 0.56104 0.0113 0.0
C2077 C 0.85635 0.55651 0.02478 0.0
H2078 H 0.90742 0.55262 1.00198 0.0
H2079 H 0.87426 0.57434 0.9994 0.0
S2080 S 0.85235 0.51272 0.0674 0.0
N2081 N 0.87705 0.50981 0.05664 0.0
N2082 N 0.8412 0.53347 0.05406 0.0
C2083 C 0.85763 0.53888 0.0398 0.0
C2084 C 0.87708 0.52606 0.04122 0.0
C2085 C 0.14137 0.99323 0.02327 0.0
C2086 C 0.12567 0.99012 0.04006 0.0
C2087 C 0.157 0.97726 0.01874 0.0
C2088 C 0.15755 0.95752 0.0308 0.0
H2089 H 0.14163 0.00819 0.01358 0.0
H2090 H 0.16876 0.98038 0.00566 0.0
S2091 S 0.12082 0.9418 0.07721 0.0
N2092 N 0.1121 0.96605 0.06924 0.0
N2093 N 0.14143 0.93603 0.06069 0.0
C2094 C 0.14189 0.95414 0.04756 0.0
C2095 C 0.12597 0.97042 0.05219 0.0
loop_
_geom_bond_atom_site_label_1
_geom_bond_atom_site_label_2
_geom_bond_distance
_geom_bond_site_symmetry_2
_ccdc_geom_bond_type
P0 O11 1.490 . S
P0 C14 1.812 . S
P0 C20 1.803 . S
P0 C26 1.819 . S
H1 C15 0.941 . S
H2 C16 0.939 . S
H3 C18 0.940 . S
H4 C19 0.940 . S
H5 C21 0.939 . S
H6 C22 0.942 . S
H7 C24 0.940 . S
H8 C25 0.939 . S
H9 C27 0.941 . S
H10 C31 0.939 . S
O11 P0 1.490 . S
H12 C28 0.939 . S
H13 C30 0.940 . S
C14 P0 1.812 . S
C14 C15 1.389 . S
C14 C19 1.391 . S
C15 H1 0.941 . S
C15 C14 1.389 . S
C15 C16 1.397 . S
C16 H2 0.939 . S
C16 C15 1.397 . S
C16 C17 1.378 1_455 S
C17 C16 1.378 1_655 S
C17 C18 1.378 . S
C18 H3 0.940 . S
C18 C17 1.378 . S
C18 C19 1.396 1_655 S
C19 H4 0.940 . S
C19 C14 1.391 . S
C19 C18 1.396 1_455 S
C20 P0 1.803 . S
C20 C21 1.378 . S
C20 C25 1.400 . S
C21 H5 0.939 . S
C21 C20 1.378 . S
C21 C22 1.361 . S
C22 H6 0.942 . S
C22 C21 1.361 . S
C22 C23 1.369 1_545 S
C23 C22 1.369 1_565 S
C23 C24 1.404 . S
C24 H7 0.940 . S
C24 C23 1.404 . S
C24 C25 1.389 1_565 S
C25 H8 0.939 . S
C25 C20 1.400 . S
C25 C24 1.389 1_545 S
C26 P0 1.819 . S
C26 C27 1.391 . S
C26 C31 1.391 . S
C27 H9 0.941 . S
C27 C26 1.391 . S
C27 C28 1.396 . S
C28 H12 0.939 . S
C28 C27 1.396 . S
C28 C29 1.397 1_554 S
C29 C28 1.397 1_556 S
C29 C30 1.385 . S
C30 H13 0.940 . S
C30 C29 1.385 . S
C30 C31 1.388 1_556 S
C31 H10 0.939 . S
C31 C26 1.391 . S
C31 C30 1.388 1_554 S
P32 O43 1.490 . S
P32 C46 1.812 . S
P32 C52 1.803 . S
P32 C58 1.819 . S
H33 C47 0.941 . S
H34 C48 0.939 . S
H35 C50 0.940 . S
H36 C51 0.940 . S
H37 C53 0.939 . S
H38 C54 0.942 . S
H39 C56 0.940 . S
H40 C57 0.939 . S
H41 C59 0.941 . S
H42 C63 0.939 . S
O43 P32 1.490 . S
H44 C60 0.939 . S
H45 C62 0.940 . S
C46 P32 1.812 . S
C46 C47 1.389 . S
C46 C51 1.391 . S
C47 H33 0.941 . S
C47 C46 1.389 . S
C47 C48 1.397 . S
C48 H34 0.939 . S
C48 C47 1.397 . S
C48 C49 1.378 . S
C49 C48 1.378 . S
C49 C50 1.378 . S
C50 H35 0.940 . S
C50 C49 1.378 . S
C50 C51 1.396 . S
C51 H36 0.940 . S
C51 C46 1.391 . S
C51 C50 1.396 . S
C52 P32 1.803 . S
C52 C53 1.378 . S
C52 C57 1.400 . S
C53 H37 0.939 . S
C53 C52 1.378 . S
C53 C54 1.361 . S
C54 H38 0.942 . S
C54 C53 1.361 . S
C54 C55 1.369 . S
C55 C54 1.369 . S
C55 C56 1.404 . S
C56 H39 0.940 . S
C56 C55 1.404 . S
C56 C57 1.389 . S
C57 H40 0.939 . S
C57 C52 1.400 . S
C57 C56 1.389 . S
C58 P32 1.819 . S
C58 C59 1.391 . S
C58 C63 1.391 . S
C59 H41 0.941 . S
C59 C58 1.391 . S
C59 C60 1.396 . S
C60 H44 0.939 . S
C60 C59 1.396 . S
C60 C61 1.397 . S
C61 C60 1.397 . S
C61 C62 1.385 . S
C62 H45 0.940 . S
C62 C61 1.385 . S
C62 C63 1.388 . S
C63 H42 0.939 . S
C63 C58 1.391 . S
C63 C62 1.388 . S
P64 O75 1.491 1_654 S
P64 C78 1.812 . S
P64 C84 1.803 . S
P64 C90 1.819 . S
H65 C79 0.941 . S
H66 C80 0.939 . S
H67 C82 0.940 . S
H68 C83 0.940 . S
H69 C85 0.939 . S
H70 C86 0.942 . S
H71 C88 0.940 . S
H72 C89 0.939 . S
H73 C91 0.941 . S
H74 C95 0.939 . S
O75 P64 1.491 1_456 S
H76 C92 0.939 . S
H77 C94 0.940 . S
C78 P64 1.812 . S
C78 C79 1.389 1_554 S
C78 C83 1.391 . S
C79 H65 0.941 . S
C79 C78 1.389 1_556 S
C79 C80 1.397 . S
C80 H66 0.939 . S
C80 C79 1.397 . S
C80 C81 1.378 . S
C81 C80 1.378 . S
C81 C82 1.378 1_556 S
C82 H67 0.940 . S
C82 C81 1.378 1_554 S
C82 C83 1.396 . S
C83 H68 0.940 . S
C83 C78 1.391 . S
C83 C82 1.396 . S
C84 P64 1.803 . S
C84 C85 1.378 . S
C84 C89 1.400 . S
C85 H69 0.939 . S
C85 C84 1.378 . S
C85 C86 1.361 . S
C86 H70 0.942 . S
C86 C85 1.361 . S
C86 C87 1.369 . S
C87 C86 1.369 . S
C87 C88 1.404 . S
C88 H71 0.940 . S
C88 C87 1.404 . S
C88 C89 1.389 . S
C89 H72 0.939 . S
C89 C84 1.400 . S
C89 C88 1.389 . S
C90 P64 1.819 . S
C90 C91 1.391 1_655 S
C90 C95 1.391 . S
C91 H73 0.941 . S
C91 C90 1.391 1_455 S
C91 C92 1.396 . S
C92 H76 0.939 . S
C92 C91 1.396 . S
C92 C93 1.397 . S
C93 C92 1.397 . S
C93 C94 1.385 1_455 S
C94 H77 0.940 . S
C94 C93 1.385 1_655 S
C94 C95 1.388 . S
C95 H74 0.939 . S
C95 C90 1.391 . S
C95 C94 1.388 . S
P96 O107 1.490 . S
P96 C110 1.812 . S
P96 C116 1.803 . S
P96 C122 1.819 . S
H97 C111 0.941 . S
H98 C112 0.939 . S
H99 C114 0.940 . S
H100 C115 0.940 . S
H101 C117 0.939 . S
H102 C118 0.942 . S
H103 C120 0.940 . S
H104 C121 0.939 . S
H105 C123 0.941 . S
H106 C127 0.939 . S
O107 P96 1.490 . S
H108 C124 0.939 . S
H109 C126 0.940 . S
C110 P96 1.812 . S
C110 C111 1.389 . S
C110 C115 1.391 . S
C111 H97 0.941 . S
C111 C110 1.389 . S
C111 C112 1.397 . S
C112 H98 0.939 . S
C112 C111 1.397 . S
C112 C113 1.378 . S
C113 C112 1.378 . S
C113 C114 1.378 . S
C114 H99 0.940 . S
C114 C113 1.378 . S
C114 C115 1.396 . S
C115 H100 0.940 . S
C115 C110 1.391 . S
C115 C114 1.396 . S
C116 P96 1.803 . S
C116 C117 1.378 . S
C116 C121 1.400 . S
C117 H101 0.939 . S
C117 C116 1.378 . S
C117 C118 1.361 . S
C118 H102 0.942 . S
C118 C117 1.361 . S
C118 C119 1.369 . S
C119 C118 1.369 . S
C119 C120 1.404 . S
C120 H103 0.940 . S
C120 C119 1.404 . S
C120 C121 1.389 . S
C121 H104 0.939 . S
C121 C116 1.400 . S
C121 C120 1.389 . S
C122 P96 1.819 . S
C122 C123 1.391 . S
C122 C127 1.391 . S
C123 H105 0.941 . S
C123 C122 1.391 . S
C123 C124 1.396 . S
C124 H108 0.939 . S
C124 C123 1.396 . S
C124 C125 1.397 . S
C125 C124 1.397 . S
C125 C126 1.385 . S
C126 H109 0.940 . S
C126 C125 1.385 . S
C126 C127 1.388 . S
C127 H106 0.939 . S
C127 C122 1.391 . S
C127 C126 1.388 . S
P128 O139 1.490 . S
P128 C142 1.812 . S
P128 C148 1.803 . S
P128 C154 1.819 . S
H129 C143 0.941 . S
H130 C144 0.939 . S
H131 C146 0.940 . S
H132 C147 0.940 . S
H133 C149 0.939 . S
H134 C150 0.942 . S
H135 C152 0.940 . S
H136 C153 0.939 . S
H137 C155 0.941 . S
H138 C159 0.939 . S
O139 P128 1.490 . S
H140 C156 0.939 . S
H141 C158 0.940 . S
C142 P128 1.812 . S
C142 C143 1.389 . S
C142 C147 1.391 . S
C143 H129 0.941 . S
C143 C142 1.389 . S
C143 C144 1.397 . S
C144 H130 0.939 . S
C144 C143 1.397 . S
C144 C145 1.378 1_565 S
C145 C144 1.378 1_545 S
C145 C146 1.378 . S
C146 H131 0.940 . S
C146 C145 1.378 . S
C146 C147 1.396 1_545 S
C147 H132 0.940 . S
C147 C142 1.391 . S
C147 C146 1.396 1_565 S
C148 P128 1.803 . S
C148 C149 1.378 . S
C148 C153 1.400 . S
C149 H133 0.939 . S
C149 C148 1.378 . S
C149 C150 1.361 . S
C150 H134 0.942 . S
C150 C149 1.361 . S
C150 C151 1.369 . S
C151 C150 1.369 . S
C151 C152 1.404 . S
C152 H135 0.940 . S
C152 C151 1.404 . S
C152 C153 1.389 . S
C153 H136 0.939 . S
C153 C148 1.400 . S
C153 C152 1.389 . S
C154 P128 1.819 . S
C154 C155 1.391 . S
C154 C159 1.391 . S
C155 H137 0.941 . S
C155 C154 1.391 . S
C155 C156 1.396 . S
C156 H140 0.939 . S
C156 C155 1.396 . S
C156 C157 1.397 1_455 S
C157 C156 1.397 1_655 S
C157 C158 1.385 . S
C158 H141 0.940 . S
C158 C157 1.385 . S
C158 C159 1.388 1_655 S
C159 H138 0.939 . S
C159 C154 1.391 . S
C159 C158 1.388 1_455 S
P160 O171 1.490 . S
P160 C174 1.812 . S
P160 C180 1.803 . S
P160 C186 1.819 . S
H161 C175 0.941 . S
H162 C176 0.939 . S
H163 C178 0.940 . S
H164 C179 0.940 . S
H165 C181 0.939 . S
H166 C182 0.942 . S
H167 C184 0.940 . S
H168 C185 0.939 . S
H169 C187 0.941 . S
H170 C191 0.939 . S
O171 P160 1.490 . S
H172 C188 0.939 . S
H173 C190 0.940 . S
C174 P160 1.812 . S
C174 C175 1.389 . S
C174 C179 1.391 . S
C175 H161 0.941 . S
C175 C174 1.389 . S
C175 C176 1.397 . S
C176 H162 0.939 . S
C176 C175 1.397 . S
C176 C177 1.378 . S
C177 C176 1.378 . S
C177 C178 1.378 . S
C178 H163 0.940 . S
C178 C177 1.378 . S
C178 C179 1.396 . S
C179 H164 0.940 . S
C179 C174 1.391 . S
C179 C178 1.396 . S
C180 P160 1.803 . S
C180 C181 1.378 . S
C180 C185 1.400 . S
C181 H165 0.939 . S
C181 C180 1.378 . S
C181 C182 1.361 . S
C182 H166 0.942 . S
C182 C181 1.361 . S
C182 C183 1.369 . S
C183 C182 1.369 . S
C183 C184 1.404 . S
C184 H167 0.940 . S
C184 C183 1.404 . S
C184 C185 1.389 . S
C185 H168 0.939 . S
C185 C180 1.400 . S
C185 C184 1.389 . S
C186 P160 1.819 . S
C186 C187 1.391 . S
C186 C191 1.391 . S
C187 H169 0.941 . S
C187 C186 1.391 . S
C187 C188 1.396 . S
C188 H172 0.939 . S
C188 C187 1.396 . S
C188 C189 1.397 . S
C189 C188 1.397 . S
C189 C190 1.385 . S
C190 H173 0.940 . S
C190 C189 1.385 . S
C190 C191 1.388 . S
C191 H170 0.939 . S
C191 C186 1.391 . S
C191 C190 1.388 . S
P192 O203 1.490 1_655 S
P192 C206 1.812 . S
P192 C212 1.803 . S
P192 C218 1.819 . S
H193 C207 0.941 . S
H194 C208 0.939 . S
H195 C210 0.940 . S
H196 C211 0.940 . S
H197 C213 0.939 . S
H198 C214 0.942 . S
H199 C216 0.940 . S
H200 C217 0.939 . S
H201 C219 0.941 . S
H202 C223 0.939 . S
O203 P192 1.490 1_455 S
H204 C220 0.939 . S
H205 C222 0.940 . S
C206 P192 1.812 . S
C206 C207 1.389 1_655 S
C206 C211 1.391 . S
C207 H193 0.941 . S
C207 C206 1.389 1_455 S
C207 C208 1.397 . S
C208 H194 0.939 . S
C208 C207 1.397 . S
C208 C209 1.378 . S
C209 C208 1.378 . S
C209 C210 1.378 1_455 S
C210 H195 0.940 . S
C210 C209 1.378 1_655 S
C210 C211 1.396 . S
C211 H196 0.940 . S
C211 C206 1.391 . S
C211 C210 1.396 . S
C212 P192 1.803 . S
C212 C213 1.378 . S
C212 C217 1.400 . S
C213 H197 0.939 . S
C213 C212 1.378 . S
C213 C214 1.361 . S
C214 H198 0.942 . S
C214 C213 1.361 . S
C214 C215 1.369 . S
C215 C214 1.369 . S
C215 C216 1.404 . S
C216 H199 0.940 . S
C216 C215 1.404 . S
C216 C217 1.389 . S
C217 H200 0.939 . S
C217 C212 1.400 . S
C217 C216 1.389 . S
C218 P192 1.819 . S
C218 C219 1.391 . S
C218 C223 1.391 . S
C219 H201 0.941 . S
C219 C218 1.391 . S
C219 C220 1.396 . S
C220 H204 0.939 . S
C220 C219 1.396 . S
C220 C221 1.397 . S
C221 C220 1.397 . S
C221 C222 1.385 . S
C222 H205 0.940 . S
C222 C221 1.385 . S
C222 C223 1.388 . S
C223 H202 0.939 . S
C223 C218 1.391 . S
C223 C222 1.388 . S
P224 O235 1.490 . S
P224 C238 1.812 . S
P224 C244 1.803 . S
P224 C250 1.819 . S
H225 C239 0.941 . S
H226 C240 0.939 . S
H227 C242 0.940 . S
H228 C243 0.940 . S
H229 C245 0.939 . S
H230 C246 0.942 . S
H231 C248 0.940 . S
H232 C249 0.939 . S
H233 C251 0.941 . S
H234 C255 0.939 . S
O235 P224 1.490 . S
H236 C252 0.939 . S
H237 C254 0.940 . S
C238 P224 1.812 . S
C238 C239 1.389 . S
C238 C243 1.391 . S
C239 H225 0.941 . S
C239 C238 1.389 . S
C239 C240 1.397 . S
C240 H226 0.939 . S
C240 C239 1.397 . S
C240 C241 1.378 . S
C241 C240 1.378 . S
C241 C242 1.378 . S
C242 H227 0.940 . S
C242 C241 1.378 . S
C242 C243 1.396 . S
C243 H228 0.940 . S
C243 C238 1.391 . S
C243 C242 1.396 . S
C244 P224 1.803 . S
C244 C245 1.378 . S
C244 C249 1.400 . S
C245 H229 0.939 . S
C245 C244 1.378 . S
C245 C246 1.361 . S
C246 H230 0.942 . S
C246 C245 1.361 . S
C246 C247 1.369 . S
C247 C246 1.369 . S
C247 C248 1.404 . S
C248 H231 0.940 . S
C248 C247 1.404 . S
C248 C249 1.389 . S
C249 H232 0.939 . S
C249 C244 1.400 . S
C249 C248 1.389 . S
C250 P224 1.819 . S
C250 C251 1.391 . S
C250 C255 1.391 . S
C251 H233 0.941 . S
C251 C250 1.391 . S
C251 C252 1.396 . S
C252 H236 0.939 . S
C252 C251 1.396 . S
C252 C253 1.397 . S
C253 C252 1.397 . S
C253 C254 1.385 . S
C254 H237 0.940 . S
C254 C253 1.385 . S
C254 C255 1.388 . S
C255 H234 0.939 . S
C255 C250 1.391 . S
C255 C254 1.388 . S
P256 O267 1.490 . S
P256 C270 1.812 . S
P256 C276 1.803 . S
P256 C282 1.819 . S
H257 C271 0.941 . S
H258 C272 0.939 . S
H259 C274 0.940 . S
H260 C275 0.940 . S
H261 C277 0.939 . S
H262 C278 0.942 . S
H263 C280 0.940 . S
H264 C281 0.939 . S
H265 C283 0.941 . S
H266 C287 0.939 . S
O267 P256 1.490 . S
H268 C284 0.939 . S
H269 C286 0.940 . S
C270 P256 1.812 . S
C270 C271 1.389 . S
C270 C275 1.391 . S
C271 H257 0.941 . S
C271 C270 1.389 . S
C271 C272 1.397 . S
C272 H258 0.939 . S
C272 C271 1.397 . S
C272 C273 1.378 . S
C273 C272 1.378 . S
C273 C274 1.378 . S
C274 H259 0.940 . S
C274 C273 1.378 . S
C274 C275 1.396 . S
C275 H260 0.940 . S
C275 C270 1.391 . S
C275 C274 1.396 . S
C276 P256 1.803 . S
C276 C277 1.378 . S
C276 C281 1.400 . S
C277 H261 0.939 . S
C277 C276 1.378 . S
C277 C278 1.361 . S
C278 H262 0.942 . S
C278 C277 1.361 . S
C278 C279 1.369 . S
C279 C278 1.369 . S
C279 C280 1.404 . S
C280 H263 0.940 . S
C280 C279 1.404 . S
C280 C281 1.389 . S
C281 H264 0.939 . S
C281 C276 1.400 . S
C281 C280 1.389 . S
C282 P256 1.819 . S
C282 C283 1.391 . S
C282 C287 1.391 . S
C283 H265 0.941 . S
C283 C282 1.391 . S
C283 C284 1.396 . S
C284 H268 0.939 . S
C284 C283 1.396 . S
C284 C285 1.397 . S
C285 C284 1.397 . S
C285 C286 1.385 . S
C286 H269 0.940 . S
C286 C285 1.385 . S
C286 C287 1.388 . S
C287 H266 0.939 . S
C287 C282 1.391 . S
C287 C286 1.388 . S
P288 O299 1.490 1_565 S
P288 C302 1.812 . S
P288 C308 1.801 1_565 S
P288 C314 1.819 . S
H289 C303 0.941 . S
H290 C304 0.939 . S
H291 C306 0.940 . S
H292 C307 0.940 . S
H293 C309 0.939 . S
H294 C310 0.942 . S
H295 C312 0.940 . S
H296 C313 0.939 . S
H297 C315 0.941 . S
H298 C319 0.939 . S
O299 P288 1.490 1_545 S
H300 C316 0.939 . S
H301 C318 0.940 . S
C302 P288 1.812 . S
C302 C303 1.389 . S
C302 C307 1.391 . S
C303 H289 0.941 . S
C303 C302 1.389 . S
C303 C304 1.397 . S
C304 H290 0.939 . S
C304 C303 1.397 . S
C304 C305 1.378 . S
C305 C304 1.378 . S
C305 C306 1.378 . S
C306 H291 0.940 . S
C306 C305 1.378 . S
C306 C307 1.396 . S
C307 H292 0.940 . S
C307 C302 1.391 . S
C307 C306 1.396 . S
C308 P288 1.801 1_545 S
C308 C309 1.386 . S
C308 C313 1.395 1_545 S
C309 H293 0.939 . S
C309 C308 1.386 . S
C309 C310 1.361 . S
C310 H294 0.942 . S
C310 C309 1.361 . S
C310 C311 1.369 . S
C311 C310 1.369 . S
C311 C312 1.404 1_545 S
C312 H295 0.940 . S
C312 C311 1.404 1_565 S
C312 C313 1.389 . S
C313 H296 0.939 . S
C313 C308 1.395 1_565 S
C313 C312 1.389 . S
C314 P288 1.819 . S
C314 C315 1.391 . S
C314 C319 1.391 . S
C315 H297 0.941 . S
C315 C314 1.391 . S
C315 C316 1.396 . S
C316 H300 0.939 . S
C316 C315 1.396 . S
C316 C317 1.397 . S
C317 C316 1.397 . S
C317 C318 1.385 . S
C318 H301 0.940 . S
C318 C317 1.385 . S
C318 C319 1.388 . S
C319 H298 0.939 . S
C319 C314 1.391 . S
C319 C318 1.388 . S
P320 O331 1.490 . S
P320 C334 1.812 . S
P320 C340 1.803 . S
P320 C346 1.819 . S
H321 C335 0.941 . S
H322 C336 0.939 . S
H323 C338 0.940 . S
H324 C339 0.940 . S
H325 C341 0.939 . S
H326 C342 0.942 . S
H327 C344 0.940 . S
H328 C345 0.939 . S
H329 C347 0.941 . S
H330 C351 0.939 . S
O331 P320 1.490 . S
H332 C348 0.939 . S
H333 C350 0.940 . S
C334 P320 1.812 . S
C334 C335 1.389 . S
C334 C339 1.391 . S
C335 H321 0.941 . S
C335 C334 1.389 . S
C335 C336 1.397 . S
C336 H322 0.939 . S
C336 C335 1.397 . S
C336 C337 1.378 . S
C337 C336 1.378 . S
C337 C338 1.378 . S
C338 H323 0.940 . S
C338 C337 1.378 . S
C338 C339 1.396 . S
C339 H324 0.940 . S
C339 C334 1.391 . S
C339 C338 1.396 . S
C340 P320 1.803 . S
C340 C341 1.378 . S
C340 C345 1.400 . S
C341 H325 0.939 . S
C341 C340 1.378 . S
C341 C342 1.361 . S
C342 H326 0.942 . S
C342 C341 1.361 . S
C342 C343 1.369 . S
C343 C342 1.369 . S
C343 C344 1.404 . S
C344 H327 0.940 . S
C344 C343 1.404 . S
C344 C345 1.389 . S
C345 H328 0.939 . S
C345 C340 1.400 . S
C345 C344 1.389 . S
C346 P320 1.819 . S
C346 C347 1.391 . S
C346 C351 1.391 . S
C347 H329 0.941 . S
C347 C346 1.391 . S
C347 C348 1.396 . S
C348 H332 0.939 . S
C348 C347 1.396 . S
C348 C349 1.397 . S
C349 C348 1.397 . S
C349 C350 1.385 . S
C350 H333 0.940 . S
C350 C349 1.385 . S
C350 C351 1.388 . S
C351 H330 0.939 . S
C351 C346 1.391 . S
C351 C350 1.388 . S
P352 O363 1.490 . S
P352 C366 1.812 . S
P352 C372 1.803 . S
P352 C378 1.819 . S
H353 C367 0.941 . S
H354 C368 0.939 . S
H355 C370 0.940 . S
H356 C371 0.940 . S
H357 C373 0.939 . S
H358 C374 0.942 . S
H359 C376 0.940 . S
H360 C377 0.939 . S
H361 C379 0.941 . S
H362 C383 0.939 . S
O363 P352 1.490 . S
H364 C380 0.939 . S
H365 C382 0.940 . S
C366 P352 1.812 . S
C366 C367 1.389 . S
C366 C371 1.391 . S
C367 H353 0.941 . S
C367 C366 1.389 . S
C367 C368 1.397 . S
C368 H354 0.939 . S
C368 C367 1.397 . S
C368 C369 1.378 . S
C369 C368 1.378 . S
C369 C370 1.378 . S
C370 H355 0.940 . S
C370 C369 1.378 . S
C370 C371 1.396 . S
C371 H356 0.940 . S
C371 C366 1.391 . S
C371 C370 1.396 . S
C372 P352 1.803 . S
C372 C373 1.378 . S
C372 C377 1.400 . S
C373 H357 0.939 . S
C373 C372 1.378 . S
C373 C374 1.361 . S
C374 H358 0.942 . S
C374 C373 1.361 . S
C374 C375 1.369 . S
C375 C374 1.369 . S
C375 C376 1.404 . S
C376 H359 0.940 . S
C376 C375 1.404 . S
C376 C377 1.389 . S
C377 H360 0.939 . S
C377 C372 1.400 . S
C377 C376 1.389 . S
C378 P352 1.819 . S
C378 C379 1.391 . S
C378 C383 1.391 . S
C379 H361 0.941 . S
C379 C378 1.391 . S
C379 C380 1.396 . S
C380 H364 0.939 . S
C380 C379 1.396 . S
C380 C381 1.397 . S
C381 C380 1.397 . S
C381 C382 1.385 . S
C382 H365 0.940 . S
C382 C381 1.385 . S
C382 C383 1.388 . S
C383 H362 0.939 . S
C383 C378 1.391 . S
C383 C382 1.388 . S
P384 O395 1.490 . S
P384 C398 1.812 . S
P384 C404 1.803 . S
P384 C410 1.819 . S
H385 C399 0.941 . S
H386 C400 0.939 . S
H387 C402 0.940 . S
H388 C403 0.940 . S
H389 C405 0.939 . S
H390 C406 0.942 . S
H391 C408 0.940 . S
H392 C409 0.939 . S
H393 C411 0.941 . S
H394 C415 0.939 . S
O395 P384 1.490 . S
H396 C412 0.939 . S
H397 C414 0.940 . S
C398 P384 1.812 . S
C398 C399 1.389 . S
C398 C403 1.391 . S
C399 H385 0.941 . S
C399 C398 1.389 . S
C399 C400 1.397 . S
C400 H386 0.939 . S
C400 C399 1.397 . S
C400 C401 1.378 . S
C401 C400 1.378 . S
C401 C402 1.378 . S
C402 H387 0.940 . S
C402 C401 1.378 . S
C402 C403 1.396 . S
C403 H388 0.940 . S
C403 C398 1.391 . S
C403 C402 1.396 . S
C404 P384 1.803 . S
C404 C405 1.378 . S
C404 C409 1.400 . S
C405 H389 0.939 . S
C405 C404 1.378 . S
C405 C406 1.361 . S
C406 H390 0.942 . S
C406 C405 1.361 . S
C406 C407 1.369 . S
C407 C406 1.369 . S
C407 C408 1.404 . S
C408 H391 0.940 . S
C408 C407 1.404 . S
C408 C409 1.389 . S
C409 H392 0.939 . S
C409 C404 1.400 . S
C409 C408 1.389 . S
C410 P384 1.819 . S
C410 C411 1.391 . S
C410 C415 1.391 . S
C411 H393 0.941 . S
C411 C410 1.391 . S
C411 C412 1.396 . S
C412 H396 0.939 . S
C412 C411 1.396 . S
C412 C413 1.397 . S
C413 C412 1.397 . S
C413 C414 1.385 . S
C414 H397 0.940 . S
C414 C413 1.385 . S
C414 C415 1.388 . S
C415 H394 0.939 . S
C415 C410 1.391 . S
C415 C414 1.388 . S
P416 O427 1.490 . S
P416 C430 1.812 . S
P416 C436 1.803 . S
P416 C442 1.819 . S
H417 C431 0.941 . S
H418 C432 0.939 . S
H419 C434 0.940 . S
H420 C435 0.940 . S
H421 C437 0.939 . S
H422 C438 0.942 . S
H423 C440 0.940 . S
H424 C441 0.941 . S
H425 C443 0.941 . S
H426 C447 0.939 . S
O427 P416 1.490 . S
H428 C444 0.939 . S
H429 C446 0.940 . S
C430 P416 1.812 . S
C430 C431 1.389 . S
C430 C435 1.391 . S
C431 H417 0.941 . S
C431 C430 1.389 . S
C431 C432 1.397 . S
C432 H418 0.939 . S
C432 C431 1.397 . S
C432 C433 1.378 . S
C433 C432 1.378 . S
C433 C434 1.378 . S
C434 H419 0.940 . S
C434 C433 1.378 . S
C434 C435 1.396 . S
C435 H420 0.940 . S
C435 C430 1.391 . S
C435 C434 1.396 . S
C436 P416 1.803 . S
C436 C437 1.378 . S
C436 C441 1.387 1_556 S
C437 H421 0.939 . S
C437 C436 1.378 . S
C437 C438 1.361 . S
C438 H422 0.942 . S
C438 C437 1.361 . S
C438 C439 1.369 1_556 S
C439 C438 1.369 1_554 S
C439 C440 1.404 . S
C440 H423 0.940 . S
C440 C439 1.404 . S
C440 C441 1.400 . S
C441 H424 0.941 . S
C441 C436 1.387 1_554 S
C441 C440 1.400 . S
C442 P416 1.819 . S
C442 C443 1.391 . S
C442 C447 1.391 . S
C443 H425 0.941 . S
C443 C442 1.391 . S
C443 C444 1.396 . S
C444 H428 0.939 . S
C444 C443 1.396 . S
C444 C445 1.397 . S
C445 C444 1.397 . S
C445 C446 1.385 . S
C446 H429 0.940 . S
C446 C445 1.385 . S
C446 C447 1.388 . S
C447 H426 0.939 . S
C447 C442 1.391 . S
C447 C446 1.388 . S
P448 O459 1.490 . S
P448 C462 1.812 . S
P448 C468 1.803 . S
P448 C474 1.819 . S
H449 C463 0.941 . S
H450 C464 0.939 . S
H451 C466 0.940 . S
H452 C467 0.940 . S
H453 C469 0.939 . S
H454 C470 0.942 . S
H455 C472 0.940 . S
H456 C473 0.939 . S
H457 C475 0.941 . S
H458 C479 0.939 . S
O459 P448 1.490 . S
H460 C476 0.939 . S
H461 C478 0.940 . S
C462 P448 1.812 . S
C462 C463 1.389 . S
C462 C467 1.391 . S
C463 H449 0.941 . S
C463 C462 1.389 . S
C463 C464 1.397 . S
C464 H450 0.939 . S
C464 C463 1.397 . S
C464 C465 1.378 . S
C465 C464 1.378 . S
C465 C466 1.378 . S
C466 H451 0.940 . S
C466 C465 1.378 . S
C466 C467 1.396 . S
C467 H452 0.940 . S
C467 C462 1.391 . S
C467 C466 1.396 . S
C468 P448 1.803 . S
C468 C469 1.378 . S
C468 C473 1.400 . S
C469 H453 0.939 . S
C469 C468 1.378 . S
C469 C470 1.361 . S
C470 H454 0.942 . S
C470 C469 1.361 . S
C470 C471 1.369 . S
C471 C470 1.369 . S
C471 C472 1.404 . S
C472 H455 0.940 . S
C472 C471 1.404 . S
C472 C473 1.389 . S
C473 H456 0.939 . S
C473 C468 1.400 . S
C473 C472 1.389 . S
C474 P448 1.819 . S
C474 C475 1.391 . S
C474 C479 1.391 . S
C475 H457 0.941 . S
C475 C474 1.391 . S
C475 C476 1.396 . S
C476 H460 0.939 . S
C476 C475 1.396 . S
C476 C477 1.397 . S
C477 C476 1.397 . S
C477 C478 1.385 . S
C478 H461 0.940 . S
C478 C477 1.385 . S
C478 C479 1.388 . S
C479 H458 0.939 . S
C479 C474 1.391 . S
C479 C478 1.388 . S
P480 O491 1.490 1_556 S
P480 C494 1.812 . S
P480 C500 1.803 . S
P480 C506 1.819 . S
H481 C495 0.941 . S
H482 C496 0.939 . S
H483 C498 0.940 . S
H484 C499 0.940 . S
H485 C501 0.939 . S
H486 C502 0.942 . S
H487 C504 0.940 . S
H488 C505 0.939 . S
H489 C507 0.941 . S
H490 C511 0.939 . S
O491 P480 1.490 1_554 S
H492 C508 0.939 . S
H493 C510 0.940 . S
C494 P480 1.812 . S
C494 C495 1.389 . S
C494 C499 1.391 . S
C495 H481 0.941 . S
C495 C494 1.389 . S
C495 C496 1.397 . S
C496 H482 0.939 . S
C496 C495 1.397 . S
C496 C497 1.378 . S
C497 C496 1.378 . S
C497 C498 1.378 . S
C498 H483 0.940 . S
C498 C497 1.378 . S
C498 C499 1.396 . S
C499 H484 0.940 . S
C499 C494 1.391 . S
C499 C498 1.396 . S
C500 P480 1.803 . S
C500 C501 1.378 1_556 S
C500 C505 1.400 . S
C501 H485 0.939 . S
C501 C500 1.378 1_554 S
C501 C502 1.361 . S
C502 H486 0.942 . S
C502 C501 1.361 . S
C502 C503 1.369 . S
C503 C502 1.369 . S
C503 C504 1.404 1_554 S
C504 H487 0.940 . S
C504 C503 1.404 1_556 S
C504 C505 1.389 . S
C505 H488 0.939 . S
C505 C500 1.400 . S
C505 C504 1.389 . S
C506 P480 1.819 . S
C506 C507 1.391 1_545 S
C506 C511 1.391 . S
C507 H489 0.941 . S
C507 C506 1.391 1_565 S
C507 C508 1.396 . S
C508 H492 0.939 . S
C508 C507 1.396 . S
C508 C509 1.397 . S
C509 C508 1.397 . S
C509 C510 1.385 1_565 S
C510 H493 0.940 . S
C510 C509 1.385 1_545 S
C510 C511 1.388 . S
C511 H490 0.939 . S
C511 C506 1.391 . S
C511 C510 1.388 . S
Li512 N529 1.990 . S
Li512 O572 1.956 . S
Li512 O573 1.970 1_556 S
Li512 O574 1.961 . S
Li513 N537 1.990 . S
Li513 O572 1.970 1_554 S
Li513 O573 1.956 . S
Li513 O575 1.961 . S
Li514 N559 1.990 . S
Li514 O572 1.961 . S
Li514 O574 1.956 . S
Li514 O575 1.970 1_556 S
Li515 N565 1.990 . S
Li515 O573 1.961 . S
Li515 O574 1.970 1_554 S
Li515 O575 1.956 . S
C516 C518 1.348 1_556 S
C516 C519 1.356 . S
C516 O572 1.325 . S
N517 C520 1.314 1_556 S
N517 C521 1.279 . S
C518 C516 1.348 1_554 S
C518 C520 1.353 . S
C518 H576 0.929 . S
C519 C516 1.356 . S
C519 C521 1.358 . S
C519 H577 0.930 . S
C520 N517 1.314 1_554 S
C520 C518 1.353 . S
C520 H578 0.930 . S
C521 N517 1.279 . S
C521 C519 1.358 . S
C521 H579 0.930 . S
C522 C525 1.348 . S
C522 C526 1.356 . S
C522 O573 1.325 . S
C523 N524 1.279 . S
C523 C526 1.358 . S
C523 H580 0.930 . S
N524 C523 1.279 . S
N524 C527 1.314 . S
C525 C522 1.348 . S
C525 C527 1.353 . S
C525 H581 0.929 . S
C526 C522 1.356 . S
C526 C523 1.358 . S
C526 H582 0.930 . S
C527 N524 1.314 . S
C527 C525 1.353 . S
C527 H583 0.930 . S
C528 N529 1.314 . S
C528 C533 1.353 . S
C528 H534 0.930 . S
N529 Li512 1.990 . S
N529 C528 1.314 . S
N529 C531 1.279 . S
C530 C531 1.358 . S
C530 C532 1.356 . S
C530 H584 0.930 . S
C531 N529 1.279 . S
C531 C530 1.358 . S
C531 H535 0.930 . S
C532 C530 1.356 . S
C532 C533 1.348 . S
C533 C528 1.353 . S
C533 C532 1.348 . S
C533 H585 0.929 . S
H534 C528 0.930 . S
H535 C531 0.930 . S
C536 N537 1.314 . S
C536 C538 1.353 . S
C536 H542 0.930 . S
N537 Li513 1.990 . S
N537 C536 1.314 . S
N537 C540 1.279 . S
C538 C536 1.353 . S
C538 C541 1.348 . S
C538 H586 0.929 . S
C539 C540 1.358 . S
C539 C541 1.356 . S
C539 H587 0.930 . S
C540 N537 1.279 . S
C540 C539 1.358 . S
C540 H543 0.930 . S
C541 C538 1.348 . S
C541 C539 1.356 . S
H542 C536 0.930 . S
H543 C540 0.930 . S
C544 C546 1.348 . S
C544 C547 1.356 . S
C544 O574 1.325 . S
N545 C548 1.314 . S
N545 C549 1.279 . S
C546 C544 1.348 . S
C546 C548 1.353 . S
C546 H588 0.929 . S
C547 C544 1.356 . S
C547 C549 1.358 . S
C547 H589 0.930 . S
C548 N545 1.314 . S
C548 C546 1.353 . S
C548 H590 0.930 . S
C549 N545 1.279 . S
C549 C547 1.358 . S
C549 H591 0.930 . S
C550 C551 1.348 1_554 S
C550 C552 1.356 . S
C550 O575 1.325 . S
C551 C550 1.348 1_556 S
C551 C553 1.353 . S
C551 H592 0.929 . S
C552 C550 1.356 . S
C552 C554 1.358 . S
C552 H593 0.930 . S
C553 C551 1.353 . S
C553 N555 1.314 1_556 S
C553 H594 0.930 . S
C554 C552 1.358 . S
C554 N555 1.279 . S
C554 H595 0.930 . S
N555 C553 1.314 1_554 S
N555 C554 1.279 . S
C556 C558 1.353 . S
C556 N559 1.314 . S
C556 H562 0.930 . S
C557 N559 1.279 . S
C557 C560 1.358 . S
C557 H563 0.930 . S
C558 C556 1.353 . S
C558 C561 1.348 . S
C558 H596 0.929 . S
N559 Li514 1.990 . S
N559 C556 1.314 . S
N559 C557 1.279 . S
C560 C557 1.358 . S
C560 C561 1.356 . S
C560 H597 0.930 . S
C561 C558 1.348 . S
C561 C560 1.356 . S
H562 C556 0.930 . S
H563 C557 0.930 . S
C564 N565 1.314 . S
C564 C566 1.353 . S
C564 H570 0.930 . S
N565 Li515 1.990 . S
N565 C564 1.314 . S
N565 C568 1.279 . S
C566 C564 1.353 . S
C566 C569 1.348 . S
C566 H598 0.929 . S
C567 C568 1.358 . S
C567 C569 1.356 . S
C567 H599 0.930 . S
C568 N565 1.279 . S
C568 C567 1.358 . S
C568 H571 0.930 . S
C569 C566 1.348 . S
C569 C567 1.356 . S
H570 C564 0.930 . S
H571 C568 0.930 . S
O572 Li512 1.956 . S
O572 Li513 1.970 1_556 S
O572 Li514 1.961 . S
O572 C516 1.325 . S
O573 Li512 1.970 1_554 S
O573 Li513 1.956 . S
O573 Li515 1.961 . S
O573 C522 1.325 . S
O574 Li512 1.961 . S
O574 Li514 1.956 . S
O574 Li515 1.970 1_556 S
O574 C544 1.325 . S
O575 Li513 1.961 . S
O575 Li514 1.970 1_554 S
O575 Li515 1.956 . S
O575 C550 1.325 . S
H576 C518 0.929 . S
H577 C519 0.930 . S
H578 C520 0.930 . S
H579 C521 0.930 . S
H580 C523 0.930 . S
H581 C525 0.929 . S
H582 C526 0.930 . S
H583 C527 0.930 . S
H584 C530 0.930 . S
H585 C533 0.929 . S
H586 C538 0.929 . S
H587 C539 0.930 . S
H588 C546 0.929 . S
H589 C547 0.930 . S
H590 C548 0.930 . S
H591 C549 0.930 . S
H592 C551 0.929 . S
H593 C552 0.930 . S
H594 C553 0.930 . S
H595 C554 0.930 . S
H596 C558 0.929 . S
H597 C560 0.930 . S
H598 C566 0.929 . S
H599 C567 0.930 . S
Li600 N617 1.990 . S
Li600 O660 1.956 . S
Li600 O661 1.970 . S
Li600 O662 1.961 . S
Li601 N625 1.990 . S
Li601 O660 1.970 . S
Li601 O661 1.956 . S
Li601 O663 1.961 . S
Li602 N647 1.990 . S
Li602 O660 1.961 . S
Li602 O662 1.956 . S
Li602 O663 1.970 . S
Li603 N653 1.990 . S
Li603 O661 1.961 . S
Li603 O662 1.970 . S
Li603 O663 1.956 . S
C604 C606 1.348 . S
C604 C607 1.356 . S
C604 O660 1.325 . S
N605 C608 1.314 . S
N605 C609 1.279 . S
C606 C604 1.348 . S
C606 C608 1.353 . S
C606 H664 0.929 . S
C607 C604 1.356 . S
C607 C609 1.358 . S
C607 H665 0.930 . S
C608 N605 1.314 . S
C608 C606 1.353 . S
C608 H666 0.930 . S
C609 N605 1.279 . S
C609 C607 1.358 . S
C609 H667 0.930 . S
C610 C613 1.348 . S
C610 C614 1.356 . S
C610 O661 1.325 . S
C611 N612 1.279 . S
C611 C614 1.358 . S
C611 H668 0.930 . S
N612 C611 1.279 . S
N612 C615 1.314 . S
C613 C610 1.348 . S
C613 C615 1.353 . S
C613 H669 0.929 . S
C614 C610 1.356 . S
C614 C611 1.358 . S
C614 H670 0.930 . S
C615 N612 1.314 . S
C615 C613 1.353 . S
C615 H671 0.930 . S
C616 N617 1.314 . S
C616 C621 1.353 . S
C616 H622 0.930 . S
N617 Li600 1.990 . S
N617 C616 1.314 . S
N617 C619 1.279 . S
C618 C619 1.358 . S
C618 C620 1.356 . S
C618 H672 0.930 . S
C619 N617 1.279 . S
C619 C618 1.358 . S
C619 H623 0.930 . S
C620 C618 1.356 . S
C620 C621 1.348 . S
C621 C616 1.353 . S
C621 C620 1.348 . S
C621 H673 0.929 . S
H622 C616 0.930 . S
H623 C619 0.930 . S
C624 N625 1.314 . S
C624 C626 1.353 . S
C624 H630 0.930 . S
N625 Li601 1.990 . S
N625 C624 1.314 . S
N625 C628 1.279 . S
C626 C624 1.353 . S
C626 C629 1.348 . S
C626 H674 0.929 . S
C627 C628 1.358 . S
C627 C629 1.356 . S
C627 H675 0.930 . S
C628 N625 1.279 . S
C628 C627 1.358 . S
C628 H631 0.930 . S
C629 C626 1.348 . S
C629 C627 1.356 . S
H630 C624 0.930 . S
H631 C628 0.930 . S
C632 C634 1.348 . S
C632 C635 1.356 . S
C632 O662 1.325 . S
N633 C636 1.314 . S
N633 C637 1.279 . S
C634 C632 1.348 . S
C634 C636 1.353 . S
C634 H676 0.929 . S
C635 C632 1.356 . S
C635 C637 1.358 . S
C635 H677 0.930 . S
C636 N633 1.314 . S
C636 C634 1.353 . S
C636 H678 0.930 . S
C637 N633 1.279 . S
C637 C635 1.358 . S
C637 H679 0.930 . S
C638 C639 1.348 . S
C638 C640 1.356 . S
C638 O663 1.325 . S
C639 C638 1.348 . S
C639 C641 1.353 . S
C639 H680 0.929 . S
C640 C638 1.356 . S
C640 C642 1.358 . S
C640 H681 0.930 . S
C641 C639 1.353 . S
C641 N643 1.314 . S
C641 H682 0.930 . S
C642 C640 1.358 . S
C642 N643 1.279 . S
C642 H683 0.930 . S
N643 C641 1.314 . S
N643 C642 1.279 . S
C644 C646 1.353 . S
C644 N647 1.314 . S
C644 H650 0.930 . S
C645 N647 1.279 . S
C645 C648 1.358 . S
C645 H651 0.930 . S
C646 C644 1.353 . S
C646 C649 1.348 . S
C646 H684 0.929 . S
N647 Li602 1.990 . S
N647 C644 1.314 . S
N647 C645 1.279 . S
C648 C645 1.358 . S
C648 C649 1.356 . S
C648 H685 0.930 . S
C649 C646 1.348 . S
C649 C648 1.356 . S
H650 C644 0.930 . S
H651 C645 0.930 . S
C652 N653 1.314 . S
C652 C654 1.353 . S
C652 H658 0.930 . S
N653 Li603 1.990 . S
N653 C652 1.314 . S
N653 C656 1.279 . S
C654 C652 1.353 . S
C654 C657 1.348 . S
C654 H686 0.929 . S
C655 C656 1.358 . S
C655 C657 1.356 . S
C655 H687 0.930 . S
C656 N653 1.279 . S
C656 C655 1.358 . S
C656 H659 0.930 . S
C657 C654 1.348 . S
C657 C655 1.356 . S
H658 C652 0.930 . S
H659 C656 0.930 . S
O660 Li600 1.956 . S
O660 Li601 1.970 . S
O660 Li602 1.961 . S
O660 C604 1.325 . S
O661 Li600 1.970 . S
O661 Li601 1.956 . S
O661 Li603 1.961 . S
O661 C610 1.325 . S
O662 Li600 1.961 . S
O662 Li602 1.956 . S
O662 Li603 1.970 . S
O662 C632 1.325 . S
O663 Li601 1.961 . S
O663 Li602 1.970 . S
O663 Li603 1.956 . S
O663 C638 1.325 . S
H664 C606 0.929 . S
H665 C607 0.930 . S
H666 C608 0.930 . S
H667 C609 0.930 . S
H668 C611 0.930 . S
H669 C613 0.929 . S
H670 C614 0.930 . S
H671 C615 0.930 . S
H672 C618 0.930 . S
H673 C621 0.929 . S
H674 C626 0.929 . S
H675 C627 0.930 . S
H676 C634 0.929 . S
H677 C635 0.930 . S
H678 C636 0.930 . S
H679 C637 0.930 . S
H680 C639 0.929 . S
H681 C640 0.930 . S
H682 C641 0.930 . S
H683 C642 0.930 . S
H684 C646 0.929 . S
H685 C648 0.930 . S
H686 C654 0.929 . S
H687 C655 0.930 . S
Li688 N705 1.990 . S
Li688 O748 1.956 . S
Li688 O749 1.970 1_556 S
Li688 O750 1.961 . S
Li689 N713 1.990 . S
Li689 O748 1.970 1_554 S
Li689 O749 1.956 . S
Li689 O751 1.961 . S
Li690 N735 1.990 . S
Li690 O748 1.961 . S
Li690 O750 1.956 . S
Li690 O751 1.970 1_556 S
Li691 N741 1.990 . S
Li691 O749 1.961 . S
Li691 O750 1.970 1_554 S
Li691 O751 1.956 . S
C692 C694 1.348 1_556 S
C692 C695 1.356 . S
C692 O748 1.325 . S
N693 C696 1.314 1_556 S
N693 C697 1.279 . S
C694 C692 1.348 1_554 S
C694 C696 1.353 . S
C694 H752 0.929 . S
C695 C692 1.356 . S
C695 C697 1.358 . S
C695 H753 0.930 . S
C696 N693 1.314 1_554 S
C696 C694 1.353 . S
C696 H754 0.930 . S
C697 N693 1.279 . S
C697 C695 1.358 . S
C697 H755 0.930 . S
C698 C701 1.348 . S
C698 C702 1.356 . S
C698 O749 1.325 . S
C699 N700 1.279 . S
C699 C702 1.358 . S
C699 H756 0.930 . S
N700 C699 1.279 . S
N700 C703 1.314 . S
C701 C698 1.348 . S
C701 C703 1.353 . S
C701 H757 0.929 . S
C702 C698 1.356 . S
C702 C699 1.358 . S
C702 H758 0.930 . S
C703 N700 1.314 . S
C703 C701 1.353 . S
C703 H759 0.930 . S
C704 N705 1.314 . S
C704 C709 1.353 . S
C704 H710 0.930 . S
N705 Li688 1.990 . S
N705 C704 1.314 . S
N705 C707 1.279 . S
C706 C707 1.358 . S
C706 C708 1.356 . S
C706 H760 0.930 . S
C707 N705 1.279 . S
C707 C706 1.358 . S
C707 H711 0.930 . S
C708 C706 1.356 . S
C708 C709 1.348 . S
C709 C704 1.353 . S
C709 C708 1.348 . S
C709 H761 0.929 . S
H710 C704 0.930 . S
H711 C707 0.930 . S
C712 N713 1.314 . S
C712 C714 1.353 . S
C712 H718 0.930 . S
N713 Li689 1.990 . S
N713 C712 1.314 . S
N713 C716 1.279 . S
C714 C712 1.353 . S
C714 C717 1.348 . S
C714 H762 0.929 . S
C715 C716 1.358 . S
C715 C717 1.356 . S
C715 H763 0.930 . S
C716 N713 1.279 . S
C716 C715 1.358 . S
C716 H719 0.930 . S
C717 C714 1.348 . S
C717 C715 1.356 . S
H718 C712 0.930 . S
H719 C716 0.930 . S
C720 C722 1.348 . S
C720 C723 1.356 . S
C720 O750 1.325 . S
N721 C724 1.314 . S
N721 C725 1.279 . S
C722 C720 1.348 . S
C722 C724 1.353 . S
C722 H764 0.929 . S
C723 C720 1.356 . S
C723 C725 1.358 . S
C723 H765 0.930 . S
C724 N721 1.314 . S
C724 C722 1.353 . S
C724 H766 0.930 . S
C725 N721 1.279 . S
C725 C723 1.358 . S
C725 H767 0.930 . S
C726 C727 1.348 1_554 S
C726 C728 1.356 . S
C726 O751 1.325 . S
C727 C726 1.348 1_556 S
C727 C729 1.353 . S
C727 H768 0.929 . S
C728 C726 1.356 . S
C728 C730 1.358 . S
C728 H769 0.930 . S
C729 C727 1.353 . S
C729 N731 1.314 1_556 S
C729 H770 0.930 . S
C730 C728 1.358 . S
C730 N731 1.279 . S
C730 H771 0.930 . S
N731 C729 1.314 1_554 S
N731 C730 1.279 . S
C732 C734 1.353 . S
C732 N735 1.314 . S
C732 H738 0.930 . S
C733 N735 1.279 . S
C733 C736 1.358 . S
C733 H739 0.930 . S
C734 C732 1.353 . S
C734 C737 1.348 . S
C734 H772 0.929 . S
N735 Li690 1.990 . S
N735 C732 1.314 . S
N735 C733 1.279 . S
C736 C733 1.358 . S
C736 C737 1.356 . S
C736 H773 0.930 . S
C737 C734 1.348 . S
C737 C736 1.356 . S
H738 C732 0.930 . S
H739 C733 0.930 . S
C740 N741 1.314 . S
C740 C742 1.353 . S
C740 H746 0.930 . S
N741 Li691 1.990 . S
N741 C740 1.314 . S
N741 C744 1.279 . S
C742 C740 1.353 . S
C742 C745 1.348 . S
C742 H774 0.929 . S
C743 C744 1.358 . S
C743 C745 1.356 . S
C743 H775 0.930 . S
C744 N741 1.279 . S
C744 C743 1.358 . S
C744 H747 0.930 . S
C745 C742 1.348 . S
C745 C743 1.356 . S
H746 C740 0.930 . S
H747 C744 0.930 . S
O748 Li688 1.956 . S
O748 Li689 1.970 1_556 S
O748 Li690 1.961 . S
O748 C692 1.325 . S
O749 Li688 1.970 1_554 S
O749 Li689 1.956 . S
O749 Li691 1.961 . S
O749 C698 1.325 . S
O750 Li688 1.961 . S
O750 Li690 1.956 . S
O750 Li691 1.970 1_556 S
O750 C720 1.325 . S
O751 Li689 1.961 . S
O751 Li690 1.970 1_554 S
O751 Li691 1.956 . S
O751 C726 1.325 . S
H752 C694 0.929 . S
H753 C695 0.930 . S
H754 C696 0.930 . S
H755 C697 0.930 . S
H756 C699 0.930 . S
H757 C701 0.929 . S
H758 C702 0.930 . S
H759 C703 0.930 . S
H760 C706 0.930 . S
H761 C709 0.929 . S
H762 C714 0.929 . S
H763 C715 0.930 . S
H764 C722 0.929 . S
H765 C723 0.930 . S
H766 C724 0.930 . S
H767 C725 0.930 . S
H768 C727 0.929 . S
H769 C728 0.930 . S
H770 C729 0.930 . S
H771 C730 0.930 . S
H772 C734 0.929 . S
H773 C736 0.930 . S
H774 C742 0.929 . S
H775 C743 0.930 . S
Li776 N793 1.990 . S
Li776 O836 1.956 . S
Li776 O837 1.939 1_545 S
Li776 O838 1.961 . S
Li777 N801 1.999 . S
Li777 O836 1.930 1_565 S
Li777 O837 1.956 . S
Li777 O839 1.992 . S
Li778 N823 1.990 . S
Li778 O836 1.961 . S
Li778 O838 1.956 . S
Li778 O839 1.970 1_545 S
Li779 N829 1.990 . S
Li779 O837 1.985 . S
Li779 O838 1.970 1_565 S
Li779 O839 1.956 . S
C780 C782 1.348 . S
C780 C783 1.356 . S
C780 O836 1.325 . S
N781 C784 1.314 . S
N781 C785 1.279 . S
C782 C780 1.348 . S
C782 C784 1.353 . S
C782 H840 0.929 . S
C783 C780 1.356 . S
C783 C785 1.358 . S
C783 H841 0.930 . S
C784 N781 1.314 . S
C784 C782 1.353 . S
C784 H842 0.930 . S
C785 N781 1.279 . S
C785 C783 1.358 . S
C785 H843 0.930 . S
C786 C789 1.348 1_565 S
C786 C790 1.356 . S
C786 O837 1.331 . S
C787 N788 1.279 . S
C787 C790 1.358 . S
C787 H844 0.930 . S
N788 C787 1.279 . S
N788 C791 1.314 1_565 S
C789 C786 1.348 1_545 S
C789 C791 1.353 . S
C789 H845 0.929 . S
C790 C786 1.356 . S
C790 C787 1.358 . S
C790 H846 0.930 . S
C791 N788 1.314 1_545 S
C791 C789 1.353 . S
C791 H847 0.930 . S
C792 N793 1.314 . S
C792 C797 1.353 . S
C792 H798 0.930 . S
N793 Li776 1.990 . S
N793 C792 1.314 . S
N793 C795 1.279 . S
C794 C795 1.358 . S
C794 C796 1.356 . S
C794 H848 0.930 . S
C795 N793 1.279 . S
C795 C794 1.358 . S
C795 H799 0.930 . S
C796 C794 1.356 . S
C796 C797 1.348 . S
C797 C792 1.353 . S
C797 C796 1.348 . S
C797 H849 0.929 . S
H798 C792 0.930 . S
H799 C795 0.930 . S
C800 N801 1.314 . S
C800 C802 1.353 . S
C800 H806 0.930 . S
N801 Li777 1.999 . S
N801 C800 1.314 . S
N801 C804 1.279 . S
C802 C800 1.353 . S
C802 C805 1.348 . S
C802 H850 0.929 . S
C803 C804 1.358 . S
C803 C805 1.356 . S
C803 H851 0.930 . S
C804 N801 1.279 . S
C804 C803 1.358 . S
C804 H807 0.930 . S
C805 C802 1.348 . S
C805 C803 1.356 . S
H806 C800 0.930 . S
H807 C804 0.930 . S
C808 C810 1.348 1_545 S
C808 C811 1.356 . S
C808 O838 1.325 . S
N809 C812 1.314 1_545 S
N809 C813 1.279 . S
C810 C808 1.348 1_565 S
C810 C812 1.353 . S
C810 H852 0.929 . S
C811 C808 1.356 . S
C811 C813 1.358 . S
C811 H853 0.930 . S
C812 N809 1.314 1_565 S
C812 C810 1.353 . S
C812 H854 0.930 . S
C813 N809 1.279 . S
C813 C811 1.358 . S
C813 H855 0.930 . S
C814 C815 1.348 . S
C814 C816 1.356 . S
C814 O839 1.325 . S
C815 C814 1.348 . S
C815 C817 1.353 . S
C815 H856 0.929 . S
C816 C814 1.356 . S
C816 C818 1.358 . S
C816 H857 0.930 . S
C817 C815 1.353 . S
C817 N819 1.314 . S
C817 H858 0.930 . S
C818 C816 1.358 . S
C818 N819 1.279 . S
C818 H859 0.930 . S
N819 C817 1.314 . S
N819 C818 1.279 . S
C820 C822 1.353 . S
C820 N823 1.314 . S
C820 H826 0.930 . S
C821 N823 1.279 . S
C821 C824 1.358 . S
C821 H827 0.930 . S
C822 C820 1.353 . S
C822 C825 1.348 . S
C822 H860 0.929 . S
N823 Li778 1.990 . S
N823 C820 1.314 . S
N823 C821 1.279 . S
C824 C821 1.358 . S
C824 C825 1.356 . S
C824 H861 0.930 . S
C825 C822 1.348 . S
C825 C824 1.356 . S
H826 C820 0.930 . S
H827 C821 0.930 . S
C828 N829 1.314 . S
C828 C830 1.353 . S
C828 H834 0.930 . S
N829 Li779 1.990 . S
N829 C828 1.314 . S
N829 C832 1.279 . S
C830 C828 1.353 . S
C830 C833 1.348 . S
C830 H862 0.929 . S
C831 C832 1.358 . S
C831 C833 1.356 . S
C831 H863 0.930 . S
C832 N829 1.279 . S
C832 C831 1.358 . S
C832 H835 0.930 . S
C833 C830 1.348 . S
C833 C831 1.356 . S
H834 C828 0.930 . S
H835 C832 0.930 . S
O836 Li776 1.956 . S
O836 Li777 1.930 1_545 S
O836 Li778 1.961 . S
O836 C780 1.325 . S
O837 Li776 1.939 1_565 S
O837 Li777 1.956 . S
O837 Li779 1.985 . S
O837 C786 1.331 . S
O838 Li776 1.961 . S
O838 Li778 1.956 . S
O838 Li779 1.970 1_545 S
O838 C808 1.325 . S
O839 Li777 1.992 . S
O839 Li778 1.970 1_565 S
O839 Li779 1.956 . S
O839 C814 1.325 . S
H840 C782 0.929 . S
H841 C783 0.930 . S
H842 C784 0.930 . S
H843 C785 0.930 . S
H844 C787 0.930 . S
H845 C789 0.929 . S
H846 C790 0.930 . S
H847 C791 0.930 . S
H848 C794 0.930 . S
H849 C797 0.929 . S
H850 C802 0.929 . S
H851 C803 0.930 . S
H852 C810 0.929 . S
H853 C811 0.930 . S
H854 C812 0.930 . S
H855 C813 0.930 . S
H856 C815 0.929 . S
H857 C816 0.930 . S
H858 C817 0.930 . S
H859 C818 0.930 . S
H860 C822 0.929 . S
H861 C824 0.930 . S
H862 C830 0.929 . S
H863 C831 0.930 . S
Li864 N881 1.990 . S
Li864 O924 1.956 . S
Li864 O925 1.970 . S
Li864 O926 1.961 . S
Li865 N889 1.990 . S
Li865 O924 1.970 . S
Li865 O925 1.956 . S
Li865 O927 1.961 . S
Li866 N911 1.990 . S
Li866 O924 1.961 . S
Li866 O926 1.956 . S
Li866 O927 1.970 . S
Li867 N917 1.990 . S
Li867 O925 1.961 . S
Li867 O926 1.970 . S
Li867 O927 1.956 . S
C868 C870 1.348 . S
C868 C871 1.356 . S
C868 O924 1.325 . S
N869 C872 1.314 . S
N869 C873 1.279 . S
C870 C868 1.348 . S
C870 C872 1.353 . S
C870 H928 0.929 . S
C871 C868 1.356 . S
C871 C873 1.358 . S
C871 H929 0.930 . S
C872 N869 1.314 . S
C872 C870 1.353 . S
C872 H930 0.930 . S
C873 N869 1.279 . S
C873 C871 1.358 . S
C873 H931 0.930 . S
C874 C877 1.348 . S
C874 C878 1.356 . S
C874 O925 1.325 . S
C875 N876 1.279 . S
C875 C878 1.358 . S
C875 H932 0.930 . S
N876 C875 1.279 . S
N876 C879 1.314 . S
C877 C874 1.348 . S
C877 C879 1.353 . S
C877 H933 0.929 . S
C878 C874 1.356 . S
C878 C875 1.358 . S
C878 H934 0.930 . S
C879 N876 1.314 . S
C879 C877 1.353 . S
C879 H935 0.930 . S
C880 N881 1.314 . S
C880 C885 1.353 . S
C880 H886 0.930 . S
N881 Li864 1.990 . S
N881 C880 1.314 . S
N881 C883 1.279 . S
C882 C883 1.358 . S
C882 C884 1.356 . S
C882 H936 0.930 . S
C883 N881 1.279 . S
C883 C882 1.358 . S
C883 H887 0.930 . S
C884 C882 1.356 . S
C884 C885 1.348 . S
C885 C880 1.353 . S
C885 C884 1.348 . S
C885 H937 0.929 . S
H886 C880 0.930 . S
H887 C883 0.930 . S
C888 N889 1.314 . S
C888 C890 1.353 . S
C888 H894 0.930 . S
N889 Li865 1.990 . S
N889 C888 1.314 . S
N889 C892 1.279 . S
C890 C888 1.353 . S
C890 C893 1.348 . S
C890 H938 0.929 . S
C891 C892 1.358 . S
C891 C893 1.356 . S
C891 H939 0.930 . S
C892 N889 1.279 . S
C892 C891 1.358 . S
C892 H895 0.930 . S
C893 C890 1.348 . S
C893 C891 1.356 . S
H894 C888 0.930 . S
H895 C892 0.930 . S
C896 C898 1.348 . S
C896 C899 1.356 . S
C896 O926 1.325 . S
N897 C900 1.314 . S
N897 C901 1.279 . S
C898 C896 1.348 . S
C898 C900 1.353 . S
C898 H940 0.929 . S
C899 C896 1.356 . S
C899 C901 1.358 . S
C899 H941 0.930 . S
C900 N897 1.314 . S
C900 C898 1.353 . S
C900 H942 0.930 . S
C901 N897 1.279 . S
C901 C899 1.358 . S
C901 H943 0.930 . S
C902 C903 1.348 . S
C902 C904 1.356 . S
C902 O927 1.325 . S
C903 C902 1.348 . S
C903 C905 1.353 . S
C903 H944 0.929 . S
C904 C902 1.356 . S
C904 C906 1.358 . S
C904 H945 0.930 . S
C905 C903 1.353 . S
C905 N907 1.314 . S
C905 H946 0.930 . S
C906 C904 1.358 . S
C906 N907 1.279 . S
C906 H947 0.930 . S
N907 C905 1.314 . S
N907 C906 1.279 . S
C908 C910 1.353 . S
C908 N911 1.314 . S
C908 H914 0.930 . S
C909 N911 1.279 . S
C909 C912 1.358 . S
C909 H915 0.930 . S
C910 C908 1.353 . S
C910 C913 1.348 . S
C910 H948 0.929 . S
N911 Li866 1.990 . S
N911 C908 1.314 . S
N911 C909 1.279 . S
C912 C909 1.358 . S
C912 C913 1.356 . S
C912 H949 0.930 . S
C913 C910 1.348 . S
C913 C912 1.356 . S
H914 C908 0.930 . S
H915 C909 0.930 . S
C916 N917 1.314 . S
C916 C918 1.353 . S
C916 H922 0.930 . S
N917 Li867 1.990 . S
N917 C916 1.314 . S
N917 C920 1.279 . S
C918 C916 1.353 . S
C918 C921 1.348 . S
C918 H950 0.929 . S
C919 C920 1.358 . S
C919 C921 1.356 . S
C919 H951 0.930 . S
C920 N917 1.279 . S
C920 C919 1.358 . S
C920 H923 0.930 . S
C921 C918 1.348 . S
C921 C919 1.356 . S
H922 C916 0.930 . S
H923 C920 0.930 . S
O924 Li864 1.956 . S
O924 Li865 1.970 . S
O924 Li866 1.961 . S
O924 C868 1.325 . S
O925 Li864 1.970 . S
O925 Li865 1.956 . S
O925 Li867 1.961 . S
O925 C874 1.325 . S
O926 Li864 1.961 . S
O926 Li866 1.956 . S
O926 Li867 1.970 . S
O926 C896 1.325 . S
O927 Li865 1.961 . S
O927 Li866 1.970 . S
O927 Li867 1.956 . S
O927 C902 1.325 . S
H928 C870 0.929 . S
H929 C871 0.930 . S
H930 C872 0.930 . S
H931 C873 0.930 . S
H932 C875 0.930 . S
H933 C877 0.929 . S
H934 C878 0.930 . S
H935 C879 0.930 . S
H936 C882 0.930 . S
H937 C885 0.929 . S
H938 C890 0.929 . S
H939 C891 0.930 . S
H940 C898 0.929 . S
H941 C899 0.930 . S
H942 C900 0.930 . S
H943 C901 0.930 . S
H944 C903 0.929 . S
H945 C904 0.930 . S
H946 C905 0.930 . S
H947 C906 0.930 . S
H948 C910 0.929 . S
H949 C912 0.930 . S
H950 C918 0.929 . S
H951 C919 0.930 . S
Li952 N969 1.990 . S
Li952 O1012 1.956 . S
Li952 O1013 1.970 . S
Li952 O1014 1.961 . S
Li953 N977 1.990 . S
Li953 O1012 1.970 . S
Li953 O1013 1.956 . S
Li953 O1015 1.961 . S
Li954 N999 1.990 . S
Li954 O1012 1.961 . S
Li954 O1014 1.956 . S
Li954 O1015 1.970 . S
Li955 N1005 1.990 . S
Li955 O1013 1.961 . S
Li955 O1014 1.970 . S
Li955 O1015 1.956 . S
C956 C958 1.348 . S
C956 C959 1.356 . S
C956 O1012 1.325 . S
N957 C960 1.314 . S
N957 C961 1.279 . S
C958 C956 1.348 . S
C958 C960 1.353 . S
C958 H1016 0.929 . S
C959 C956 1.356 . S
C959 C961 1.358 . S
C959 H1017 0.930 . S
C960 N957 1.314 . S
C960 C958 1.353 . S
C960 H1018 0.930 . S
C961 N957 1.279 . S
C961 C959 1.358 . S
C961 H1019 0.930 . S
C962 C965 1.348 . S
C962 C966 1.356 . S
C962 O1013 1.325 . S
C963 N964 1.279 . S
C963 C966 1.358 . S
C963 H1020 0.930 . S
N964 C963 1.279 . S
N964 C967 1.314 . S
C965 C962 1.348 . S
C965 C967 1.353 . S
C965 H1021 0.929 . S
C966 C962 1.356 . S
C966 C963 1.358 . S
C966 H1022 0.930 . S
C967 N964 1.314 . S
C967 C965 1.353 . S
C967 H1023 0.930 . S
C968 N969 1.314 . S
C968 C973 1.353 . S
C968 H974 0.930 . S
N969 Li952 1.990 . S
N969 C968 1.314 . S
N969 C971 1.279 . S
C970 C971 1.358 . S
C970 C972 1.356 . S
C970 H1024 0.930 . S
C971 N969 1.279 . S
C971 C970 1.358 . S
C971 H975 0.930 . S
C972 C970 1.356 . S
C972 C973 1.348 . S
C973 C968 1.353 . S
C973 C972 1.348 . S
C973 H1025 0.929 . S
H974 C968 0.930 . S
H975 C971 0.930 . S
C976 N977 1.314 . S
C976 C978 1.353 . S
C976 H982 0.930 . S
N977 Li953 1.990 . S
N977 C976 1.314 . S
N977 C980 1.279 . S
C978 C976 1.353 . S
C978 C981 1.348 . S
C978 H1026 0.929 . S
C979 C980 1.358 . S
C979 C981 1.356 . S
C979 H1027 0.930 . S
C980 N977 1.279 . S
C980 C979 1.358 . S
C980 H983 0.930 . S
C981 C978 1.348 . S
C981 C979 1.356 . S
H982 C976 0.930 . S
H983 C980 0.930 . S
C984 C986 1.348 . S
C984 C987 1.356 . S
C984 O1014 1.325 . S
N985 C988 1.314 . S
N985 C989 1.279 . S
C986 C984 1.348 . S
C986 C988 1.353 . S
C986 H1028 0.929 . S
C987 C984 1.356 . S
C987 C989 1.358 . S
C987 H1029 0.930 . S
C988 N985 1.314 . S
C988 C986 1.353 . S
C988 H1030 0.930 . S
C989 N985 1.279 . S
C989 C987 1.358 . S
C989 H1031 0.930 . S
C990 C991 1.348 . S
C990 C992 1.356 . S
C990 O1015 1.325 . S
C991 C990 1.348 . S
C991 C993 1.353 . S
C991 H1032 0.929 . S
C992 C990 1.356 . S
C992 C994 1.358 . S
C992 H1033 0.930 . S
C993 C991 1.353 . S
C993 N995 1.314 . S
C993 H1034 0.930 . S
C994 C992 1.358 . S
C994 N995 1.279 . S
C994 H1035 0.930 . S
N995 C993 1.314 . S
N995 C994 1.279 . S
C996 C998 1.353 . S
C996 N999 1.314 . S
C996 H1002 0.930 . S
C997 N999 1.279 . S
C997 C1000 1.358 . S
C997 H1003 0.930 . S
C998 C996 1.353 . S
C998 C1001 1.348 . S
C998 H1036 0.929 . S
N999 Li954 1.990 . S
N999 C996 1.314 . S
N999 C997 1.279 . S
C1000 C997 1.358 . S
C1000 C1001 1.356 . S
C1000 H1037 0.930 . S
C1001 C998 1.348 . S
C1001 C1000 1.356 . S
H1002 C996 0.930 . S
H1003 C997 0.930 . S
C1004 N1005 1.314 . S
C1004 C1006 1.353 . S
C1004 H1010 0.930 . S
N1005 Li955 1.990 . S
N1005 C1004 1.314 . S
N1005 C1008 1.279 . S
C1006 C1004 1.353 . S
C1006 C1009 1.348 . S
C1006 H1038 0.929 . S
C1007 C1008 1.358 . S
C1007 C1009 1.356 . S
C1007 H1039 0.930 . S
C1008 N1005 1.279 . S
C1008 C1007 1.358 . S
C1008 H1011 0.930 . S
C1009 C1006 1.348 . S
C1009 C1007 1.356 . S
H1010 C1004 0.930 . S
H1011 C1008 0.930 . S
O1012 Li952 1.956 . S
O1012 Li953 1.970 . S
O1012 Li954 1.961 . S
O1012 C956 1.325 . S
O1013 Li952 1.970 . S
O1013 Li953 1.956 . S
O1013 Li955 1.961 . S
O1013 C962 1.325 . S
O1014 Li952 1.961 . S
O1014 Li954 1.956 . S
O1014 Li955 1.970 . S
O1014 C984 1.325 . S
O1015 Li953 1.961 . S
O1015 Li954 1.970 . S
O1015 Li955 1.956 . S
O1015 C990 1.325 . S
H1016 C958 0.929 . S
H1017 C959 0.930 . S
H1018 C960 0.930 . S
H1019 C961 0.930 . S
H1020 C963 0.930 . S
H1021 C965 0.929 . S
H1022 C966 0.930 . S
H1023 C967 0.930 . S
H1024 C970 0.930 . S
H1025 C973 0.929 . S
H1026 C978 0.929 . S
H1027 C979 0.930 . S
H1028 C986 0.929 . S
H1029 C987 0.930 . S
H1030 C988 0.930 . S
H1031 C989 0.930 . S
H1032 C991 0.929 . S
H1033 C992 0.930 . S
H1034 C993 0.930 . S
H1035 C994 0.930 . S
H1036 C998 0.929 . S
H1037 C1000 0.930 . S
H1038 C1006 0.929 . S
H1039 C1007 0.930 . S
Li1040 N1057 1.990 . S
Li1040 O1100 1.956 . S
Li1040 O1101 1.970 . S
Li1040 O1102 1.961 . S
Li1041 N1065 1.990 . S
Li1041 O1100 1.970 . S
Li1041 O1101 1.956 . S
Li1041 O1103 1.961 . S
Li1042 N1087 1.990 . S
Li1042 O1100 1.961 . S
Li1042 O1102 1.956 . S
Li1042 O1103 1.970 . S
Li1043 N1093 1.990 . S
Li1043 O1101 1.961 . S
Li1043 O1102 1.970 . S
Li1043 O1103 1.956 . S
C1044 C1046 1.348 . S
C1044 C1047 1.356 . S
C1044 O1100 1.325 . S
N1045 C1048 1.314 . S
N1045 C1049 1.279 . S
C1046 C1044 1.348 . S
C1046 C1048 1.353 . S
C1046 H1104 0.929 . S
C1047 C1044 1.356 . S
C1047 C1049 1.358 . S
C1047 H1105 0.930 . S
C1048 N1045 1.314 . S
C1048 C1046 1.353 . S
C1048 H1106 0.930 . S
C1049 N1045 1.279 . S
C1049 C1047 1.358 . S
C1049 H1107 0.930 . S
C1050 C1053 1.348 . S
C1050 C1054 1.356 . S
C1050 O1101 1.325 . S
C1051 N1052 1.279 . S
C1051 C1054 1.358 . S
C1051 H1108 0.930 . S
N1052 C1051 1.279 . S
N1052 C1055 1.314 . S
C1053 C1050 1.348 . S
C1053 C1055 1.353 . S
C1053 H1109 0.929 . S
C1054 C1050 1.356 . S
C1054 C1051 1.358 . S
C1054 H1110 0.930 . S
C1055 N1052 1.314 . S
C1055 C1053 1.353 . S
C1055 H1111 0.930 . S
C1056 N1057 1.314 . S
C1056 C1061 1.353 . S
C1056 H1062 0.930 . S
N1057 Li1040 1.990 . S
N1057 C1056 1.314 . S
N1057 C1059 1.279 . S
C1058 C1059 1.358 . S
C1058 C1060 1.356 . S
C1058 H1112 0.930 . S
C1059 N1057 1.279 . S
C1059 C1058 1.358 . S
C1059 H1063 0.930 . S
C1060 C1058 1.356 . S
C1060 C1061 1.348 . S
C1061 C1056 1.353 . S
C1061 C1060 1.348 . S
C1061 H1113 0.929 . S
H1062 C1056 0.930 . S
H1063 C1059 0.930 . S
C1064 N1065 1.314 . S
C1064 C1066 1.353 . S
C1064 H1070 0.930 . S
N1065 Li1041 1.990 . S
N1065 C1064 1.314 . S
N1065 C1068 1.279 . S
C1066 C1064 1.353 . S
C1066 C1069 1.348 . S
C1066 H1114 0.929 . S
C1067 C1068 1.358 . S
C1067 C1069 1.356 . S
C1067 H1115 0.930 . S
C1068 N1065 1.279 . S
C1068 C1067 1.358 . S
C1068 H1071 0.930 . S
C1069 C1066 1.348 . S
C1069 C1067 1.356 . S
H1070 C1064 0.930 . S
H1071 C1068 0.930 . S
C1072 C1074 1.348 . S
C1072 C1075 1.356 . S
C1072 O1102 1.325 . S
N1073 C1076 1.314 . S
N1073 C1077 1.279 . S
C1074 C1072 1.348 . S
C1074 C1076 1.353 . S
C1074 H1116 0.929 . S
C1075 C1072 1.356 . S
C1075 C1077 1.358 . S
C1075 H1117 0.930 . S
C1076 N1073 1.314 . S
C1076 C1074 1.353 . S
C1076 H1118 0.930 . S
C1077 N1073 1.279 . S
C1077 C1075 1.358 . S
C1077 H1119 0.930 . S
C1078 C1079 1.348 . S
C1078 C1080 1.356 . S
C1078 O1103 1.325 . S
C1079 C1078 1.348 . S
C1079 C1081 1.353 . S
C1079 H1120 0.929 . S
C1080 C1078 1.356 . S
C1080 C1082 1.358 . S
C1080 H1121 0.930 . S
C1081 C1079 1.353 . S
C1081 N1083 1.314 . S
C1081 H1122 0.930 . S
C1082 C1080 1.358 . S
C1082 N1083 1.279 . S
C1082 H1123 0.930 . S
N1083 C1081 1.314 . S
N1083 C1082 1.279 . S
C1084 C1086 1.353 . S
C1084 N1087 1.314 . S
C1084 H1090 0.930 . S
C1085 N1087 1.279 . S
C1085 C1088 1.358 . S
C1085 H1091 0.930 . S
C1086 C1084 1.353 . S
C1086 C1089 1.348 . S
C1086 H1124 0.929 . S
N1087 Li1042 1.990 . S
N1087 C1084 1.314 . S
N1087 C1085 1.279 . S
C1088 C1085 1.358 . S
C1088 C1089 1.356 . S
C1088 H1125 0.930 . S
C1089 C1086 1.348 . S
C1089 C1088 1.356 . S
H1090 C1084 0.930 . S
H1091 C1085 0.930 . S
C1092 N1093 1.314 . S
C1092 C1094 1.353 . S
C1092 H1098 0.930 . S
N1093 Li1043 1.990 . S
N1093 C1092 1.314 . S
N1093 C1096 1.279 . S
C1094 C1092 1.353 . S
C1094 C1097 1.348 . S
C1094 H1126 0.929 . S
C1095 C1096 1.358 . S
C1095 C1097 1.356 . S
C1095 H1127 0.930 . S
C1096 N1093 1.279 . S
C1096 C1095 1.358 . S
C1096 H1099 0.930 . S
C1097 C1094 1.348 . S
C1097 C1095 1.356 . S
H1098 C1092 0.930 . S
H1099 C1096 0.930 . S
O1100 Li1040 1.956 . S
O1100 Li1041 1.970 . S
O1100 Li1042 1.961 . S
O1100 C1044 1.325 . S
O1101 Li1040 1.970 . S
O1101 Li1041 1.956 . S
O1101 Li1043 1.961 . S
O1101 C1050 1.325 . S
O1102 Li1040 1.961 . S
O1102 Li1042 1.956 . S
O1102 Li1043 1.970 . S
O1102 C1072 1.325 . S
O1103 Li1041 1.961 . S
O1103 Li1042 1.970 . S
O1103 Li1043 1.956 . S
O1103 C1078 1.325 . S
H1104 C1046 0.929 . S
H1105 C1047 0.930 . S
H1106 C1048 0.930 . S
H1107 C1049 0.930 . S
H1108 C1051 0.930 . S
H1109 C1053 0.929 . S
H1110 C1054 0.930 . S
H1111 C1055 0.930 . S
H1112 C1058 0.930 . S
H1113 C1061 0.929 . S
H1114 C1066 0.929 . S
H1115 C1067 0.930 . S
H1116 C1074 0.929 . S
H1117 C1075 0.930 . S
H1118 C1076 0.930 . S
H1119 C1077 0.930 . S
H1120 C1079 0.929 . S
H1121 C1080 0.930 . S
H1122 C1081 0.930 . S
H1123 C1082 0.930 . S
H1124 C1086 0.929 . S
H1125 C1088 0.930 . S
H1126 C1094 0.929 . S
H1127 C1095 0.930 . S
Li1128 N1145 1.990 . S
Li1128 O1188 1.956 . S
Li1128 O1189 1.970 1_565 S
Li1128 O1190 1.989 . S
Li1129 N1153 1.990 . S
Li1129 O1188 1.970 1_545 S
Li1129 O1189 1.956 . S
Li1129 O1191 1.961 . S
Li1130 N1175 1.990 . S
Li1130 O1188 1.961 . S
Li1130 O1190 1.957 . S
Li1130 O1191 1.970 1_565 S
Li1131 N1181 1.990 . S
Li1131 O1189 1.961 . S
Li1131 O1190 1.933 1_545 S
Li1131 O1191 1.956 . S
C1132 C1134 1.348 . S
C1132 C1135 1.356 . S
C1132 O1188 1.325 . S
N1133 C1136 1.314 . S
N1133 C1137 1.279 . S
C1134 C1132 1.348 . S
C1134 C1136 1.353 . S
C1134 H1192 0.929 . S
C1135 C1132 1.356 . S
C1135 C1137 1.358 . S
C1135 H1193 0.930 . S
C1136 N1133 1.314 . S
C1136 C1134 1.353 . S
C1136 H1194 0.930 . S
C1137 N1133 1.279 . S
C1137 C1135 1.358 . S
C1137 H1195 0.930 . S
C1138 C1141 1.348 1_545 S
C1138 C1142 1.356 . S
C1138 O1189 1.325 . S
C1139 N1140 1.279 . S
C1139 C1142 1.358 . S
C1139 H1196 0.930 . S
N1140 C1139 1.279 . S
N1140 C1143 1.314 1_545 S
C1141 C1138 1.348 1_565 S
C1141 C1143 1.353 . S
C1141 H1197 0.929 . S
C1142 C1138 1.356 . S
C1142 C1139 1.358 . S
C1142 H1198 0.930 . S
C1143 N1140 1.314 1_565 S
C1143 C1141 1.353 . S
C1143 H1199 0.930 . S
C1144 N1145 1.314 . S
C1144 C1149 1.353 . S
C1144 H1150 0.930 . S
N1145 Li1128 1.990 . S
N1145 C1144 1.314 . S
N1145 C1147 1.279 . S
C1146 C1147 1.358 . S
C1146 C1148 1.356 . S
C1146 H1200 0.930 . S
C1147 N1145 1.279 . S
C1147 C1146 1.358 . S
C1147 H1151 0.930 . S
C1148 C1146 1.356 . S
C1148 C1149 1.348 . S
C1149 C1144 1.353 . S
C1149 C1148 1.348 . S
C1149 H1201 0.929 . S
H1150 C1144 0.930 . S
H1151 C1147 0.930 . S
C1152 N1153 1.314 . S
C1152 C1154 1.353 . S
C1152 H1158 0.930 . S
N1153 Li1129 1.990 . S
N1153 C1152 1.314 . S
N1153 C1156 1.279 . S
C1154 C1152 1.353 . S
C1154 C1157 1.348 . S
C1154 H1202 0.929 . S
C1155 C1156 1.358 . S
C1155 C1157 1.356 . S
C1155 H1203 0.930 . S
C1156 N1153 1.279 . S
C1156 C1155 1.358 . S
C1156 H1159 0.930 . S
C1157 C1154 1.348 . S
C1157 C1155 1.356 . S
H1158 C1152 0.930 . S
H1159 C1156 0.930 . S
C1160 C1162 1.348 1_565 S
C1160 C1163 1.356 . S
C1160 O1190 1.333 . S
N1161 C1164 1.314 1_565 S
N1161 C1165 1.279 . S
C1162 C1160 1.348 1_545 S
C1162 C1164 1.353 . S
C1162 H1204 0.929 . S
C1163 C1160 1.356 . S
C1163 C1165 1.358 . S
C1163 H1205 0.930 . S
C1164 N1161 1.314 1_545 S
C1164 C1162 1.353 . S
C1164 H1206 0.930 . S
C1165 N1161 1.279 . S
C1165 C1163 1.358 . S
C1165 H1207 0.930 . S
C1166 C1167 1.348 . S
C1166 C1168 1.356 . S
C1166 O1191 1.325 . S
C1167 C1166 1.348 . S
C1167 C1169 1.353 . S
C1167 H1208 0.929 . S
C1168 C1166 1.356 . S
C1168 C1170 1.358 . S
C1168 H1209 0.930 . S
C1169 C1167 1.353 . S
C1169 N1171 1.314 . S
C1169 H1210 0.930 . S
C1170 C1168 1.358 . S
C1170 N1171 1.279 . S
C1170 H1211 0.930 . S
N1171 C1169 1.314 . S
N1171 C1170 1.279 . S
C1172 C1174 1.353 . S
C1172 N1175 1.314 . S
C1172 H1178 0.930 . S
C1173 N1175 1.279 . S
C1173 C1176 1.358 . S
C1173 H1179 0.939 . S
C1174 C1172 1.353 . S
C1174 C1177 1.348 . S
C1174 H1212 0.929 . S
N1175 Li1130 1.990 . S
N1175 C1172 1.314 . S
N1175 C1173 1.279 . S
C1176 C1173 1.358 . S
C1176 C1177 1.356 . S
C1176 H1213 0.930 . S
C1177 C1174 1.348 . S
C1177 C1176 1.356 . S
H1178 C1172 0.930 . S
H1179 C1173 0.939 . S
C1180 N1181 1.314 . S
C1180 C1182 1.353 . S
C1180 H1186 0.930 . S
N1181 Li1131 1.990 . S
N1181 C1180 1.314 . S
N1181 C1184 1.279 . S
C1182 C1180 1.353 . S
C1182 C1185 1.348 . S
C1182 H1214 0.929 . S
C1183 C1184 1.358 . S
C1183 C1185 1.356 . S
C1183 H1215 0.930 . S
C1184 N1181 1.279 . S
C1184 C1183 1.358 . S
C1184 H1187 0.930 . S
C1185 C1182 1.348 . S
C1185 C1183 1.356 . S
H1186 C1180 0.930 . S
H1187 C1184 0.930 . S
O1188 Li1128 1.956 . S
O1188 Li1129 1.970 1_565 S
O1188 Li1130 1.961 . S
O1188 C1132 1.325 . S
O1189 Li1128 1.970 1_545 S
O1189 Li1129 1.956 . S
O1189 Li1131 1.961 . S
O1189 C1138 1.325 . S
O1190 Li1128 1.989 . S
O1190 Li1130 1.957 . S
O1190 Li1131 1.933 1_565 S
O1190 C1160 1.333 . S
O1191 Li1129 1.961 . S
O1191 Li1130 1.970 1_545 S
O1191 Li1131 1.956 . S
O1191 C1166 1.325 . S
H1192 C1134 0.929 . S
H1193 C1135 0.930 . S
H1194 C1136 0.930 . S
H1195 C1137 0.930 . S
H1196 C1139 0.930 . S
H1197 C1141 0.929 . S
H1198 C1142 0.930 . S
H1199 C1143 0.930 . S
H1200 C1146 0.930 . S
H1201 C1149 0.929 . S
H1202 C1154 0.929 . S
H1203 C1155 0.930 . S
H1204 C1162 0.929 . S
H1205 C1163 0.930 . S
H1206 C1164 0.930 . S
H1207 C1165 0.930 . S
H1208 C1167 0.929 . S
H1209 C1168 0.930 . S
H1210 C1169 0.930 . S
H1211 C1170 0.930 . S
H1212 C1174 0.929 . S
H1213 C1176 0.930 . S
H1214 C1182 0.929 . S
H1215 C1183 0.930 . S
Li1216 N1233 1.990 . S
Li1216 O1276 1.956 . S
Li1216 O1277 1.970 . S
Li1216 O1278 1.961 . S
Li1217 N1241 1.990 1_455 S
Li1217 O1276 1.970 . S
Li1217 O1277 1.956 . S
Li1217 O1279 1.961 1_455 S
Li1218 N1263 1.990 . S
Li1218 O1276 1.961 . S
Li1218 O1278 1.956 . S
Li1218 O1279 1.970 1_455 S
Li1219 N1269 1.990 . S
Li1219 O1277 1.961 1_655 S
Li1219 O1278 1.970 1_655 S
Li1219 O1279 1.956 . S
C1220 C1222 1.348 . S
C1220 C1223 1.356 . S
C1220 O1276 1.325 . S
N1221 C1224 1.314 . S
N1221 C1225 1.279 . S
C1222 C1220 1.348 . S
C1222 C1224 1.353 . S
C1222 H1280 0.929 . S
C1223 C1220 1.356 . S
C1223 C1225 1.358 . S
C1223 H1281 0.930 . S
C1224 N1221 1.314 . S
C1224 C1222 1.353 . S
C1224 H1282 0.930 . S
C1225 N1221 1.279 . S
C1225 C1223 1.358 . S
C1225 H1283 0.930 . S
C1226 C1229 1.348 1_655 S
C1226 C1230 1.356 . S
C1226 O1277 1.325 1_655 S
C1227 N1228 1.279 . S
C1227 C1230 1.358 . S
C1227 H1284 0.930 . S
N1228 C1227 1.279 . S
N1228 C1231 1.314 1_655 S
C1229 C1226 1.348 1_455 S
C1229 C1231 1.353 . S
C1229 H1285 0.929 . S
C1230 C1226 1.356 . S
C1230 C1227 1.358 . S
C1230 H1286 0.930 . S
C1231 N1228 1.314 1_455 S
C1231 C1229 1.353 . S
C1231 H1287 0.930 . S
C1232 N1233 1.314 . S
C1232 C1237 1.353 . S
C1232 H1238 0.930 . S
N1233 Li1216 1.990 . S
N1233 C1232 1.314 . S
N1233 C1235 1.279 . S
C1234 C1235 1.358 . S
C1234 C1236 1.356 . S
C1234 H1288 0.930 . S
C1235 N1233 1.279 . S
C1235 C1234 1.358 . S
C1235 H1239 0.930 . S
C1236 C1234 1.356 . S
C1236 C1237 1.348 . S
C1237 C1232 1.353 . S
C1237 C1236 1.348 . S
C1237 H1289 0.929 . S
H1238 C1232 0.930 . S
H1239 C1235 0.930 . S
C1240 N1241 1.314 . S
C1240 C1242 1.353 . S
C1240 H1246 0.930 . S
N1241 Li1217 1.990 1_655 S
N1241 C1240 1.314 . S
N1241 C1244 1.279 . S
C1242 C1240 1.353 . S
C1242 C1245 1.348 . S
C1242 H1290 0.929 . S
C1243 C1244 1.358 . S
C1243 C1245 1.356 . S
C1243 H1291 0.930 . S
C1244 N1241 1.279 . S
C1244 C1243 1.358 . S
C1244 H1247 0.930 1_655 S
C1245 C1242 1.348 . S
C1245 C1243 1.356 . S
H1246 C1240 0.930 . S
H1247 C1244 0.930 1_455 S
C1248 C1250 1.348 1_455 S
C1248 C1251 1.356 . S
C1248 O1278 1.325 . S
N1249 C1252 1.314 1_455 S
N1249 C1253 1.279 . S
C1250 C1248 1.348 1_655 S
C1250 C1252 1.353 . S
C1250 H1292 0.929 . S
C1251 C1248 1.356 . S
C1251 C1253 1.358 . S
C1251 H1293 0.930 . S
C1252 N1249 1.314 1_655 S
C1252 C1250 1.353 . S
C1252 H1294 0.930 . S
C1253 N1249 1.279 . S
C1253 C1251 1.358 . S
C1253 H1295 0.930 . S
C1254 C1255 1.348 . S
C1254 C1256 1.356 . S
C1254 O1279 1.325 . S
C1255 C1254 1.348 . S
C1255 C1257 1.353 . S
C1255 H1296 0.929 . S
C1256 C1254 1.356 . S
C1256 C1258 1.358 . S
C1256 H1297 0.930 . S
C1257 C1255 1.353 . S
C1257 N1259 1.314 . S
C1257 H1298 0.930 . S
C1258 C1256 1.358 . S
C1258 N1259 1.279 . S
C1258 H1299 0.930 . S
N1259 C1257 1.314 . S
N1259 C1258 1.279 . S
C1260 C1262 1.353 . S
C1260 N1263 1.314 . S
C1260 H1266 0.930 . S
C1261 N1263 1.279 . S
C1261 C1264 1.358 . S
C1261 H1267 0.930 . S
C1262 C1260 1.353 . S
C1262 C1265 1.348 . S
C1262 H1300 0.929 . S
N1263 Li1218 1.990 . S
N1263 C1260 1.314 . S
N1263 C1261 1.279 . S
C1264 C1261 1.358 . S
C1264 C1265 1.356 . S
C1264 H1301 0.930 . S
C1265 C1262 1.348 . S
C1265 C1264 1.356 . S
H1266 C1260 0.930 . S
H1267 C1261 0.930 . S
C1268 N1269 1.314 . S
C1268 C1270 1.353 . S
C1268 H1274 0.930 . S
N1269 Li1219 1.990 . S
N1269 C1268 1.314 . S
N1269 C1272 1.279 . S
C1270 C1268 1.353 . S
C1270 C1273 1.348 . S
C1270 H1302 0.929 . S
C1271 C1272 1.358 . S
C1271 C1273 1.356 . S
C1271 H1303 0.930 . S
C1272 N1269 1.279 . S
C1272 C1271 1.358 . S
C1272 H1275 0.930 . S
C1273 C1270 1.348 . S
C1273 C1271 1.356 . S
H1274 C1268 0.930 . S
H1275 C1272 0.930 . S
O1276 Li1216 1.956 . S
O1276 Li1217 1.970 . S
O1276 Li1218 1.961 . S
O1276 C1220 1.325 . S
O1277 Li1216 1.970 . S
O1277 Li1217 1.956 . S
O1277 Li1219 1.961 1_455 S
O1277 C1226 1.325 1_455 S
O1278 Li1216 1.961 . S
O1278 Li1218 1.956 . S
O1278 Li1219 1.970 1_455 S
O1278 C1248 1.325 . S
O1279 Li1217 1.961 1_655 S
O1279 Li1218 1.970 1_655 S
O1279 Li1219 1.956 . S
O1279 C1254 1.325 . S
H1280 C1222 0.929 . S
H1281 C1223 0.930 . S
H1282 C1224 0.930 . S
H1283 C1225 0.930 . S
H1284 C1227 0.930 . S
H1285 C1229 0.929 . S
H1286 C1230 0.930 . S
H1287 C1231 0.930 . S
H1288 C1234 0.930 . S
H1289 C1237 0.929 . S
H1290 C1242 0.929 . S
H1291 C1243 0.930 . S
H1292 C1250 0.929 . S
H1293 C1251 0.930 . S
H1294 C1252 0.930 . S
H1295 C1253 0.930 . S
H1296 C1255 0.929 . S
H1297 C1256 0.930 . S
H1298 C1257 0.930 . S
H1299 C1258 0.930 . S
H1300 C1262 0.929 . S
H1301 C1264 0.930 . S
H1302 C1270 0.929 . S
H1303 C1271 0.930 . S
Li1304 N1321 1.990 . S
Li1304 O1364 1.956 . S
Li1304 O1365 1.970 . S
Li1304 O1366 1.961 . S
Li1305 N1329 1.990 . S
Li1305 O1364 1.970 . S
Li1305 O1365 1.956 . S
Li1305 O1367 1.961 . S
Li1306 N1351 1.990 . S
Li1306 O1364 1.961 . S
Li1306 O1366 1.956 . S
Li1306 O1367 1.970 . S
Li1307 N1357 1.990 . S
Li1307 O1365 1.961 . S
Li1307 O1366 1.970 . S
Li1307 O1367 1.956 . S
C1308 C1310 1.348 . S
C1308 C1311 1.356 . S
C1308 O1364 1.325 . S
N1309 C1312 1.314 . S
N1309 C1313 1.279 . S
C1310 C1308 1.348 . S
C1310 C1312 1.353 . S
C1310 H1368 0.929 . S
C1311 C1308 1.356 . S
C1311 C1313 1.358 . S
C1311 H1369 0.930 . S
C1312 N1309 1.314 . S
C1312 C1310 1.353 . S
C1312 H1370 0.930 . S
C1313 N1309 1.279 . S
C1313 C1311 1.358 . S
C1313 H1371 0.930 . S
C1314 C1317 1.348 . S
C1314 C1318 1.356 . S
C1314 O1365 1.325 . S
C1315 N1316 1.279 . S
C1315 C1318 1.358 . S
C1315 H1372 0.930 . S
N1316 C1315 1.279 . S
N1316 C1319 1.314 . S
C1317 C1314 1.348 . S
C1317 C1319 1.353 . S
C1317 H1373 0.929 . S
C1318 C1314 1.356 . S
C1318 C1315 1.358 . S
C1318 H1374 0.930 . S
C1319 N1316 1.314 . S
C1319 C1317 1.353 . S
C1319 H1375 0.930 . S
C1320 N1321 1.314 . S
C1320 C1325 1.353 . S
C1320 H1326 0.930 . S
N1321 Li1304 1.990 . S
N1321 C1320 1.314 . S
N1321 C1323 1.279 . S
C1322 C1323 1.358 . S
C1322 C1324 1.356 . S
C1322 H1376 0.930 . S
C1323 N1321 1.279 . S
C1323 C1322 1.358 . S
C1323 H1327 0.930 . S
C1324 C1322 1.356 . S
C1324 C1325 1.348 . S
C1325 C1320 1.353 . S
C1325 C1324 1.348 . S
C1325 H1377 0.929 . S
H1326 C1320 0.930 . S
H1327 C1323 0.930 . S
C1328 N1329 1.314 . S
C1328 C1330 1.353 . S
C1328 H1334 0.930 . S
N1329 Li1305 1.990 . S
N1329 C1328 1.314 . S
N1329 C1332 1.279 . S
C1330 C1328 1.353 . S
C1330 C1333 1.348 . S
C1330 H1378 0.929 . S
C1331 C1332 1.358 . S
C1331 C1333 1.356 . S
C1331 H1379 0.930 . S
C1332 N1329 1.279 . S
C1332 C1331 1.358 . S
C1332 H1335 0.930 . S
C1333 C1330 1.348 . S
C1333 C1331 1.356 . S
H1334 C1328 0.930 . S
H1335 C1332 0.930 . S
C1336 C1338 1.348 . S
C1336 C1339 1.356 . S
C1336 O1366 1.325 . S
N1337 C1340 1.314 . S
N1337 C1341 1.279 . S
C1338 C1336 1.348 . S
C1338 C1340 1.353 . S
C1338 H1380 0.929 . S
C1339 C1336 1.356 . S
C1339 C1341 1.358 . S
C1339 H1381 0.930 . S
C1340 N1337 1.314 . S
C1340 C1338 1.353 . S
C1340 H1382 0.930 . S
C1341 N1337 1.279 . S
C1341 C1339 1.358 . S
C1341 H1383 0.930 . S
C1342 C1343 1.348 . S
C1342 C1344 1.356 . S
C1342 O1367 1.325 . S
C1343 C1342 1.348 . S
C1343 C1345 1.353 . S
C1343 H1384 0.929 . S
C1344 C1342 1.356 . S
C1344 C1346 1.358 . S
C1344 H1385 0.930 . S
C1345 C1343 1.353 . S
C1345 N1347 1.314 . S
C1345 H1386 0.930 . S
C1346 C1344 1.358 . S
C1346 N1347 1.279 . S
C1346 H1387 0.930 . S
N1347 C1345 1.314 . S
N1347 C1346 1.279 . S
C1348 C1350 1.353 . S
C1348 N1351 1.314 . S
C1348 H1354 0.930 . S
C1349 N1351 1.279 . S
C1349 C1352 1.358 . S
C1349 H1355 0.930 . S
C1350 C1348 1.353 . S
C1350 C1353 1.348 . S
C1350 H1388 0.929 . S
N1351 Li1306 1.990 . S
N1351 C1348 1.314 . S
N1351 C1349 1.279 . S
C1352 C1349 1.358 . S
C1352 C1353 1.356 . S
C1352 H1389 0.930 . S
C1353 C1350 1.348 . S
C1353 C1352 1.356 . S
H1354 C1348 0.930 . S
H1355 C1349 0.930 . S
C1356 N1357 1.314 . S
C1356 C1358 1.353 . S
C1356 H1362 0.930 . S
N1357 Li1307 1.990 . S
N1357 C1356 1.314 . S
N1357 C1360 1.279 . S
C1358 C1356 1.353 . S
C1358 C1361 1.348 . S
C1358 H1390 0.929 . S
C1359 C1360 1.358 . S
C1359 C1361 1.356 . S
C1359 H1391 0.930 . S
C1360 N1357 1.279 . S
C1360 C1359 1.358 . S
C1360 H1363 0.930 . S
C1361 C1358 1.348 . S
C1361 C1359 1.356 . S
H1362 C1356 0.930 . S
H1363 C1360 0.930 . S
O1364 Li1304 1.956 . S
O1364 Li1305 1.970 . S
O1364 Li1306 1.961 . S
O1364 C1308 1.325 . S
O1365 Li1304 1.970 . S
O1365 Li1305 1.956 . S
O1365 Li1307 1.961 . S
O1365 C1314 1.325 . S
O1366 Li1304 1.961 . S
O1366 Li1306 1.956 . S
O1366 Li1307 1.970 . S
O1366 C1336 1.325 . S
O1367 Li1305 1.961 . S
O1367 Li1306 1.970 . S
O1367 Li1307 1.956 . S
O1367 C1342 1.325 . S
H1368 C1310 0.929 . S
H1369 C1311 0.930 . S
H1370 C1312 0.930 . S
H1371 C1313 0.930 . S
H1372 C1315 0.930 . S
H1373 C1317 0.929 . S
H1374 C1318 0.930 . S
H1375 C1319 0.930 . S
H1376 C1322 0.930 . S
H1377 C1325 0.929 . S
H1378 C1330 0.929 . S
H1379 C1331 0.930 . S
H1380 C1338 0.929 . S
H1381 C1339 0.930 . S
H1382 C1340 0.930 . S
H1383 C1341 0.930 . S
H1384 C1343 0.929 . S
H1385 C1344 0.930 . S
H1386 C1345 0.930 . S
H1387 C1346 0.930 . S
H1388 C1350 0.929 . S
H1389 C1352 0.930 . S
H1390 C1358 0.929 . S
H1391 C1359 0.930 . S
Li1392 N1409 1.990 . S
Li1392 O1452 1.956 . S
Li1392 O1453 1.970 1_455 S
Li1392 O1454 1.961 . S
Li1393 N1417 1.990 . S
Li1393 O1452 1.970 1_655 S
Li1393 O1453 1.956 . S
Li1393 O1455 1.961 . S
Li1394 N1439 1.990 . S
Li1394 O1452 1.961 . S
Li1394 O1454 1.956 . S
Li1394 O1455 1.970 1_455 S
Li1395 N1445 1.990 . S
Li1395 O1453 1.961 . S
Li1395 O1454 1.970 1_655 S
Li1395 O1455 1.956 . S
C1396 C1398 1.348 1_455 S
C1396 C1399 1.356 . S
C1396 O1452 1.325 . S
N1397 C1400 1.314 1_455 S
N1397 C1401 1.279 . S
C1398 C1396 1.348 1_655 S
C1398 C1400 1.353 . S
C1398 H1456 0.929 . S
C1399 C1396 1.356 . S
C1399 C1401 1.358 . S
C1399 H1457 0.930 . S
C1400 N1397 1.314 1_655 S
C1400 C1398 1.353 . S
C1400 H1458 0.930 . S
C1401 N1397 1.279 . S
C1401 C1399 1.358 . S
C1401 H1459 0.930 . S
C1402 C1405 1.348 . S
C1402 C1406 1.356 . S
C1402 O1453 1.325 . S
C1403 N1404 1.279 . S
C1403 C1406 1.358 . S
C1403 H1460 0.930 . S
N1404 C1403 1.279 . S
N1404 C1407 1.314 . S
C1405 C1402 1.348 . S
C1405 C1407 1.353 . S
C1405 H1461 0.929 . S
C1406 C1402 1.356 . S
C1406 C1403 1.358 . S
C1406 H1462 0.930 . S
C1407 N1404 1.314 . S
C1407 C1405 1.353 . S
C1407 H1463 0.930 . S
C1408 N1409 1.314 . S
C1408 C1413 1.353 . S
C1408 H1414 0.930 . S
N1409 Li1392 1.990 . S
N1409 C1408 1.314 . S
N1409 C1411 1.279 . S
C1410 C1411 1.358 . S
C1410 C1412 1.356 . S
C1410 H1464 0.930 . S
C1411 N1409 1.279 . S
C1411 C1410 1.358 . S
C1411 H1415 0.930 . S
C1412 C1410 1.356 . S
C1412 C1413 1.348 . S
C1413 C1408 1.353 . S
C1413 C1412 1.348 . S
C1413 H1465 0.929 . S
H1414 C1408 0.930 . S
H1415 C1411 0.930 . S
C1416 N1417 1.314 . S
C1416 C1418 1.353 . S
C1416 H1422 0.930 . S
N1417 Li1393 1.990 . S
N1417 C1416 1.314 . S
N1417 C1420 1.279 . S
C1418 C1416 1.353 . S
C1418 C1421 1.348 . S
C1418 H1466 0.929 . S
C1419 C1420 1.358 . S
C1419 C1421 1.356 . S
C1419 H1467 0.930 . S
C1420 N1417 1.279 . S
C1420 C1419 1.358 . S
C1420 H1423 0.930 . S
C1421 C1418 1.348 . S
C1421 C1419 1.356 . S
H1422 C1416 0.930 . S
H1423 C1420 0.930 . S
C1424 C1426 1.348 . S
C1424 C1427 1.356 . S
C1424 O1454 1.325 . S
N1425 C1428 1.314 . S
N1425 C1429 1.279 . S
C1426 C1424 1.348 . S
C1426 C1428 1.353 . S
C1426 H1468 0.929 . S
C1427 C1424 1.356 . S
C1427 C1429 1.358 . S
C1427 H1469 0.930 . S
C1428 N1425 1.314 . S
C1428 C1426 1.353 . S
C1428 H1470 0.930 . S
C1429 N1425 1.279 . S
C1429 C1427 1.358 . S
C1429 H1471 0.930 . S
C1430 C1431 1.348 1_655 S
C1430 C1432 1.356 . S
C1430 O1455 1.325 . S
C1431 C1430 1.348 1_455 S
C1431 C1433 1.353 . S
C1431 H1472 0.929 . S
C1432 C1430 1.356 . S
C1432 C1434 1.358 . S
C1432 H1473 0.930 . S
C1433 C1431 1.353 . S
C1433 N1435 1.314 1_455 S
C1433 H1474 0.930 . S
C1434 C1432 1.358 . S
C1434 N1435 1.279 . S
C1434 H1475 0.930 . S
N1435 C1433 1.314 1_655 S
N1435 C1434 1.279 . S
C1436 C1438 1.353 . S
C1436 N1439 1.314 . S
C1436 H1442 0.930 . S
C1437 N1439 1.279 . S
C1437 C1440 1.358 . S
C1437 H1443 0.930 . S
C1438 C1436 1.353 . S
C1438 C1441 1.348 . S
C1438 H1476 0.929 . S
N1439 Li1394 1.990 . S
N1439 C1436 1.314 . S
N1439 C1437 1.279 . S
C1440 C1437 1.358 . S
C1440 C1441 1.356 . S
C1440 H1477 0.930 . S
C1441 C1438 1.348 . S
C1441 C1440 1.356 . S
H1442 C1436 0.930 . S
H1443 C1437 0.930 . S
C1444 N1445 1.314 . S
C1444 C1446 1.353 . S
C1444 H1450 0.930 . S
N1445 Li1395 1.990 . S
N1445 C1444 1.314 . S
N1445 C1448 1.279 . S
C1446 C1444 1.353 . S
C1446 C1449 1.348 . S
C1446 H1478 0.929 . S
C1447 C1448 1.358 . S
C1447 C1449 1.356 . S
C1447 H1479 0.930 . S
C1448 N1445 1.279 . S
C1448 C1447 1.358 . S
C1448 H1451 0.930 . S
C1449 C1446 1.348 . S
C1449 C1447 1.356 . S
H1450 C1444 0.930 . S
H1451 C1448 0.930 . S
O1452 Li1392 1.956 . S
O1452 Li1393 1.970 1_455 S
O1452 Li1394 1.961 . S
O1452 C1396 1.325 . S
O1453 Li1392 1.970 1_655 S
O1453 Li1393 1.956 . S
O1453 Li1395 1.961 . S
O1453 C1402 1.325 . S
O1454 Li1392 1.961 . S
O1454 Li1394 1.956 . S
O1454 Li1395 1.970 1_455 S
O1454 C1424 1.325 . S
O1455 Li1393 1.961 . S
O1455 Li1394 1.970 1_655 S
O1455 Li1395 1.956 . S
O1455 C1430 1.325 . S
H1456 C1398 0.929 . S
H1457 C1399 0.930 . S
H1458 C1400 0.930 . S
H1459 C1401 0.930 . S
H1460 C1403 0.930 . S
H1461 C1405 0.929 . S
H1462 C1406 0.930 . S
H1463 C1407 0.930 . S
H1464 C1410 0.930 . S
H1465 C1413 0.929 . S
H1466 C1418 0.929 . S
H1467 C1419 0.930 . S
H1468 C1426 0.929 . S
H1469 C1427 0.930 . S
H1470 C1428 0.930 . S
H1471 C1429 0.930 . S
H1472 C1431 0.929 . S
H1473 C1432 0.930 . S
H1474 C1433 0.930 . S
H1475 C1434 0.930 . S
H1476 C1438 0.929 . S
H1477 C1440 0.930 . S
H1478 C1446 0.929 . S
H1479 C1447 0.930 . S
Li1480 N1497 1.990 . S
Li1480 O1540 1.956 . S
Li1480 O1541 1.970 . S
Li1480 O1542 1.961 . S
Li1481 N1505 1.990 . S
Li1481 O1540 1.970 . S
Li1481 O1541 1.956 . S
Li1481 O1543 1.961 . S
Li1482 N1527 1.990 . S
Li1482 O1540 1.961 . S
Li1482 O1542 1.956 . S
Li1482 O1543 1.970 . S
Li1483 N1533 1.990 . S
Li1483 O1541 1.961 . S
Li1483 O1542 1.970 . S
Li1483 O1543 1.956 . S
C1484 C1486 1.348 . S
C1484 C1487 1.356 . S
C1484 O1540 1.325 . S
N1485 C1488 1.314 . S
N1485 C1489 1.279 . S
C1486 C1484 1.348 . S
C1486 C1488 1.353 . S
C1486 H1544 0.929 . S
C1487 C1484 1.356 . S
C1487 C1489 1.358 . S
C1487 H1545 0.930 . S
C1488 N1485 1.314 . S
C1488 C1486 1.353 . S
C1488 H1546 0.930 . S
C1489 N1485 1.279 . S
C1489 C1487 1.358 . S
C1489 H1547 0.930 . S
C1490 C1493 1.348 . S
C1490 C1494 1.356 . S
C1490 O1541 1.325 . S
C1491 N1492 1.279 . S
C1491 C1494 1.358 . S
C1491 H1548 0.930 . S
N1492 C1491 1.279 . S
N1492 C1495 1.314 . S
C1493 C1490 1.348 . S
C1493 C1495 1.353 . S
C1493 H1549 0.929 . S
C1494 C1490 1.356 . S
C1494 C1491 1.358 . S
C1494 H1550 0.930 . S
C1495 N1492 1.314 . S
C1495 C1493 1.353 . S
C1495 H1551 0.930 . S
C1496 N1497 1.314 . S
C1496 C1501 1.353 . S
C1496 H1502 0.930 . S
N1497 Li1480 1.990 . S
N1497 C1496 1.314 . S
N1497 C1499 1.279 . S
C1498 C1499 1.358 . S
C1498 C1500 1.356 . S
C1498 H1552 0.930 . S
C1499 N1497 1.279 . S
C1499 C1498 1.358 . S
C1499 H1503 0.930 . S
C1500 C1498 1.356 . S
C1500 C1501 1.348 . S
C1501 C1496 1.353 . S
C1501 C1500 1.348 . S
C1501 H1553 0.929 . S
H1502 C1496 0.930 . S
H1503 C1499 0.930 . S
C1504 N1505 1.314 . S
C1504 C1506 1.353 . S
C1504 H1510 0.930 . S
N1505 Li1481 1.990 . S
N1505 C1504 1.314 . S
N1505 C1508 1.279 . S
C1506 C1504 1.353 . S
C1506 C1509 1.348 . S
C1506 H1554 0.929 . S
C1507 C1508 1.358 . S
C1507 C1509 1.356 . S
C1507 H1555 0.930 . S
C1508 N1505 1.279 . S
C1508 C1507 1.358 . S
C1508 H1511 0.930 . S
C1509 C1506 1.348 . S
C1509 C1507 1.356 . S
H1510 C1504 0.930 . S
H1511 C1508 0.930 . S
C1512 C1514 1.348 . S
C1512 C1515 1.356 . S
C1512 O1542 1.325 . S
N1513 C1516 1.314 . S
N1513 C1517 1.279 . S
C1514 C1512 1.348 . S
C1514 C1516 1.353 . S
C1514 H1556 0.929 . S
C1515 C1512 1.356 . S
C1515 C1517 1.358 . S
C1515 H1557 0.930 . S
C1516 N1513 1.314 . S
C1516 C1514 1.353 . S
C1516 H1558 0.930 . S
C1517 N1513 1.279 . S
C1517 C1515 1.358 . S
C1517 H1559 0.930 . S
C1518 C1519 1.348 . S
C1518 C1520 1.356 . S
C1518 O1543 1.325 . S
C1519 C1518 1.348 . S
C1519 C1521 1.353 . S
C1519 H1560 0.929 . S
C1520 C1518 1.356 . S
C1520 C1522 1.358 . S
C1520 H1561 0.930 . S
C1521 C1519 1.353 . S
C1521 N1523 1.314 . S
C1521 H1562 0.930 . S
C1522 C1520 1.358 . S
C1522 N1523 1.279 . S
C1522 H1563 0.930 . S
N1523 C1521 1.314 . S
N1523 C1522 1.279 . S
C1524 C1526 1.353 . S
C1524 N1527 1.314 . S
C1524 H1530 0.930 . S
C1525 N1527 1.279 . S
C1525 C1528 1.358 . S
C1525 H1531 0.930 . S
C1526 C1524 1.353 . S
C1526 C1529 1.348 . S
C1526 H1564 0.929 . S
N1527 Li1482 1.990 . S
N1527 C1524 1.314 . S
N1527 C1525 1.279 . S
C1528 C1525 1.358 . S
C1528 C1529 1.356 . S
C1528 H1565 0.930 . S
C1529 C1526 1.348 . S
C1529 C1528 1.356 . S
H1530 C1524 0.930 . S
H1531 C1525 0.930 . S
C1532 N1533 1.314 . S
C1532 C1534 1.353 . S
C1532 H1538 0.930 . S
N1533 Li1483 1.990 . S
N1533 C1532 1.314 . S
N1533 C1536 1.279 . S
C1534 C1532 1.353 . S
C1534 C1537 1.348 . S
C1534 H1566 0.929 . S
C1535 C1536 1.358 . S
C1535 C1537 1.356 . S
C1535 H1567 0.930 . S
C1536 N1533 1.279 . S
C1536 C1535 1.358 . S
C1536 H1539 0.930 . S
C1537 C1534 1.348 . S
C1537 C1535 1.356 . S
H1538 C1532 0.930 . S
H1539 C1536 0.930 . S
O1540 Li1480 1.956 . S
O1540 Li1481 1.970 . S
O1540 Li1482 1.961 . S
O1540 C1484 1.325 . S
O1541 Li1480 1.970 . S
O1541 Li1481 1.956 . S
O1541 Li1483 1.961 . S
O1541 C1490 1.325 . S
O1542 Li1480 1.961 . S
O1542 Li1482 1.956 . S
O1542 Li1483 1.970 . S
O1542 C1512 1.325 . S
O1543 Li1481 1.961 . S
O1543 Li1482 1.970 . S
O1543 Li1483 1.956 . S
O1543 C1518 1.325 . S
H1544 C1486 0.929 . S
H1545 C1487 0.930 . S
H1546 C1488 0.930 . S
H1547 C1489 0.930 . S
H1548 C1491 0.930 . S
H1549 C1493 0.929 . S
H1550 C1494 0.930 . S
H1551 C1495 0.930 . S
H1552 C1498 0.930 . S
H1553 C1501 0.929 . S
H1554 C1506 0.929 . S
H1555 C1507 0.930 . S
H1556 C1514 0.929 . S
H1557 C1515 0.930 . S
H1558 C1516 0.930 . S
H1559 C1517 0.930 . S
H1560 C1519 0.929 . S
H1561 C1520 0.930 . S
H1562 C1521 0.930 . S
H1563 C1522 0.930 . S
H1564 C1526 0.929 . S
H1565 C1528 0.930 . S
H1566 C1534 0.929 . S
H1567 C1535 0.930 . S
C1568 C1569 1.369 . S
C1568 C1570 1.419 . S
C1568 H1572 0.930 . S
C1569 C1568 1.369 . S
C1569 C1578 1.429 . S
C1570 C1568 1.419 . S
C1570 C1571 1.363 . S
C1570 H1573 0.929 . S
C1571 C1570 1.363 . S
C1571 C1577 1.428 . S
H1572 C1568 0.930 . S
H1573 C1570 0.929 . S
S1574 N1575 1.613 . S
S1574 N1576 1.610 . S
N1575 S1574 1.613 . S
N1575 C1578 1.350 . S
N1576 S1574 1.610 . S
N1576 C1577 1.351 . S
C1577 C1571 1.428 . S
C1577 N1576 1.351 . S
C1577 C1578 1.434 . S
C1578 C1569 1.429 . S
C1578 N1575 1.350 . S
C1578 C1577 1.434 . S
C1579 C1580 1.369 . S
C1579 C1581 1.419 . S
C1579 H1583 0.930 . S
C1580 C1579 1.369 . S
C1580 C1589 1.429 . S
C1581 C1579 1.419 . S
C1581 C1582 1.363 . S
C1581 H1584 0.929 . S
C1582 C1581 1.363 . S
C1582 C1588 1.428 . S
H1583 C1579 0.930 . S
H1584 C1581 0.929 . S
S1585 N1586 1.613 . S
S1585 N1587 1.610 . S
N1586 S1585 1.613 . S
N1586 C1589 1.350 . S
N1587 S1585 1.610 . S
N1587 C1588 1.351 . S
C1588 C1582 1.428 . S
C1588 N1587 1.351 . S
C1588 C1589 1.434 . S
C1589 C1580 1.429 . S
C1589 N1586 1.350 . S
C1589 C1588 1.434 . S
C1590 C1591 1.369 . S
C1590 C1592 1.419 . S
C1590 H1594 0.930 . S
C1591 C1590 1.369 . S
C1591 C1600 1.429 . S
C1592 C1590 1.419 . S
C1592 C1593 1.363 . S
C1592 H1595 0.929 . S
C1593 C1592 1.363 . S
C1593 C1599 1.428 . S
H1594 C1590 0.930 . S
H1595 C1592 0.929 . S
S1596 N1597 1.613 . S
S1596 N1598 1.610 . S
N1597 S1596 1.613 . S
N1597 C1600 1.350 . S
N1598 S1596 1.610 . S
N1598 C1599 1.351 . S
C1599 C1593 1.428 . S
C1599 N1598 1.351 . S
C1599 C1600 1.434 . S
C1600 C1591 1.429 . S
C1600 N1597 1.350 . S
C1600 C1599 1.434 . S
C1601 C1602 1.369 . S
C1601 C1603 1.419 . S
C1601 H1605 0.930 . S
C1602 C1601 1.369 . S
C1602 C1611 1.429 . S
C1603 C1601 1.419 . S
C1603 C1604 1.363 . S
C1603 H1606 0.929 . S
C1604 C1603 1.363 . S
C1604 C1610 1.428 . S
H1605 C1601 0.930 . S
H1606 C1603 0.929 . S
S1607 N1608 1.613 1_545 S
S1607 N1609 1.610 1_455 S
N1608 S1607 1.613 1_565 S
N1608 C1611 1.350 1_455 S
N1609 S1607 1.610 1_655 S
N1609 C1610 1.351 1_545 S
C1610 C1604 1.428 . S
C1610 N1609 1.351 1_565 S
C1610 C1611 1.434 . S
C1611 C1602 1.429 . S
C1611 N1608 1.350 1_655 S
C1611 C1610 1.434 . S
C1612 C1613 1.369 . S
C1612 C1614 1.419 . S
C1612 H1616 0.930 . S
C1613 C1612 1.369 . S
C1613 C1622 1.429 . S
C1614 C1612 1.419 . S
C1614 C1615 1.363 . S
C1614 H1617 0.929 . S
C1615 C1614 1.363 . S
C1615 C1621 1.428 . S
H1616 C1612 0.930 . S
H1617 C1614 0.929 . S
S1618 N1619 1.613 . S
S1618 N1620 1.610 . S
N1619 S1618 1.613 . S
N1619 C1622 1.350 . S
N1620 S1618 1.610 . S
N1620 C1621 1.351 . S
C1621 C1615 1.428 . S
C1621 N1620 1.351 . S
C1621 C1622 1.434 . S
C1622 C1613 1.429 . S
C1622 N1619 1.350 . S
C1622 C1621 1.434 . S
C1623 C1624 1.369 . S
C1623 C1625 1.419 . S
C1623 H1627 0.930 . S
C1624 C1623 1.369 . S
C1624 C1633 1.429 . S
C1625 C1623 1.419 . S
C1625 C1626 1.363 . S
C1625 H1628 0.929 . S
C1626 C1625 1.363 . S
C1626 C1632 1.428 . S
H1627 C1623 0.930 . S
H1628 C1625 0.929 . S
S1629 N1630 1.613 . S
S1629 N1631 1.610 . S
N1630 S1629 1.613 . S
N1630 C1633 1.350 . S
N1631 S1629 1.610 . S
N1631 C1632 1.351 . S
C1632 C1626 1.428 . S
C1632 N1631 1.351 . S
C1632 C1633 1.434 . S
C1633 C1624 1.429 . S
C1633 N1630 1.350 . S
C1633 C1632 1.434 . S
C1634 C1635 1.369 . S
C1634 C1636 1.419 . S
C1634 H1638 0.930 . S
C1635 C1634 1.369 . S
C1635 C1644 1.429 . S
C1636 C1634 1.419 . S
C1636 C1637 1.363 . S
C1636 H1639 0.929 . S
C1637 C1636 1.363 . S
C1637 C1643 1.428 . S
H1638 C1634 0.930 . S
H1639 C1636 0.929 . S
S1640 N1641 1.613 . S
S1640 N1642 1.610 . S
N1641 S1640 1.613 . S
N1641 C1644 1.350 . S
N1642 S1640 1.610 . S
N1642 C1643 1.351 . S
C1643 C1637 1.428 . S
C1643 N1642 1.351 . S
C1643 C1644 1.434 . S
C1644 C1635 1.429 . S
C1644 N1641 1.350 . S
C1644 C1643 1.434 . S
C1645 C1646 1.369 1_545 S
C1645 C1647 1.419 . S
C1645 H1649 0.930 . S
C1646 C1645 1.369 1_565 S
C1646 C1655 1.429 . S
C1647 C1645 1.419 . S
C1647 C1648 1.363 1_545 S
C1647 H1650 0.929 . S
C1648 C1647 1.363 1_565 S
C1648 C1654 1.428 . S
H1649 C1645 0.930 . S
H1650 C1647 0.929 . S
S1651 N1652 1.613 . S
S1651 N1653 1.610 . S
N1652 S1651 1.613 . S
N1652 C1655 1.350 . S
N1653 S1651 1.610 . S
N1653 C1654 1.351 . S
C1654 C1648 1.428 . S
C1654 N1653 1.351 . S
C1654 C1655 1.434 . S
C1655 C1646 1.429 . S
C1655 N1652 1.350 . S
C1655 C1654 1.434 . S
C1656 C1657 1.369 . S
C1656 C1658 1.419 . S
C1656 H1660 0.930 . S
C1657 C1656 1.369 . S
C1657 C1666 1.429 . S
C1658 C1656 1.419 . S
C1658 C1659 1.363 . S
C1658 H1661 0.929 . S
C1659 C1658 1.363 . S
C1659 C1665 1.428 . S
H1660 C1656 0.930 . S
H1661 C1658 0.929 . S
S1662 N1663 1.613 . S
S1662 N1664 1.610 . S
N1663 S1662 1.613 . S
N1663 C1666 1.350 . S
N1664 S1662 1.610 . S
N1664 C1665 1.351 . S
C1665 C1659 1.428 . S
C1665 N1664 1.351 . S
C1665 C1666 1.434 . S
C1666 C1657 1.429 . S
C1666 N1663 1.350 . S
C1666 C1665 1.434 . S
C1667 C1668 1.369 . S
C1667 C1669 1.419 . S
C1667 H1671 0.930 . S
C1668 C1667 1.369 . S
C1668 C1677 1.429 . S
C1669 C1667 1.419 . S
C1669 C1670 1.363 . S
C1669 H1672 0.929 . S
C1670 C1669 1.363 . S
C1670 C1676 1.428 . S
H1671 C1667 0.930 . S
H1672 C1669 0.929 . S
S1673 N1674 1.613 . S
S1673 N1675 1.610 . S
N1674 S1673 1.613 . S
N1674 C1677 1.350 . S
N1675 S1673 1.610 . S
N1675 C1676 1.351 . S
C1676 C1670 1.428 . S
C1676 N1675 1.351 . S
C1676 C1677 1.434 . S
C1677 C1668 1.429 . S
C1677 N1674 1.350 . S
C1677 C1676 1.434 . S
C1678 C1679 1.369 . S
C1678 C1680 1.419 . S
C1678 H1682 0.930 . S
C1679 C1678 1.369 . S
C1679 C1688 1.429 . S
C1680 C1678 1.419 . S
C1680 C1681 1.363 . S
C1680 H1683 0.929 . S
C1681 C1680 1.363 . S
C1681 C1687 1.428 . S
H1682 C1678 0.930 . S
H1683 C1680 0.929 . S
S1684 N1685 1.613 . S
S1684 N1686 1.610 . S
N1685 S1684 1.613 . S
N1685 C1688 1.350 . S
N1686 S1684 1.610 . S
N1686 C1687 1.351 . S
C1687 C1681 1.428 . S
C1687 N1686 1.351 . S
C1687 C1688 1.434 . S
C1688 C1679 1.429 . S
C1688 N1685 1.350 . S
C1688 C1687 1.434 . S
C1689 C1690 1.369 . S
C1689 C1691 1.419 . S
C1689 H1693 0.930 . S
C1690 C1689 1.369 . S
C1690 C1699 1.429 . S
C1691 C1689 1.419 . S
C1691 C1692 1.363 . S
C1691 H1694 0.929 . S
C1692 C1691 1.363 . S
C1692 C1698 1.428 . S
H1693 C1689 0.930 . S
H1694 C1691 0.929 . S
S1695 N1696 1.613 . S
S1695 N1697 1.610 . S
N1696 S1695 1.613 . S
N1696 C1699 1.350 . S
N1697 S1695 1.610 . S
N1697 C1698 1.351 . S
C1698 C1692 1.428 . S
C1698 N1697 1.351 . S
C1698 C1699 1.434 . S
C1699 C1690 1.429 . S
C1699 N1696 1.350 . S
C1699 C1698 1.434 . S
C1700 C1701 1.369 . S
C1700 C1702 1.419 . S
C1700 H1704 0.930 . S
C1701 C1700 1.369 . S
C1701 C1710 1.429 . S
C1702 C1700 1.419 . S
C1702 C1703 1.363 . S
C1702 H1705 0.929 . S
C1703 C1702 1.363 . S
C1703 C1709 1.428 . S
H1704 C1700 0.930 . S
H1705 C1702 0.929 . S
S1706 N1707 1.613 . S
S1706 N1708 1.610 . S
N1707 S1706 1.613 . S
N1707 C1710 1.350 . S
N1708 S1706 1.610 . S
N1708 C1709 1.351 . S
C1709 C1703 1.428 . S
C1709 N1708 1.351 . S
C1709 C1710 1.434 . S
C1710 C1701 1.429 . S
C1710 N1707 1.350 . S
C1710 C1709 1.434 . S
C1711 C1712 1.369 . S
C1711 C1713 1.419 . S
C1711 H1715 0.930 . S
C1712 C1711 1.369 . S
C1712 C1721 1.414 1_455 S
C1713 C1711 1.419 . S
C1713 C1714 1.363 . S
C1713 H1716 0.929 . S
C1714 C1713 1.363 . S
C1714 C1720 1.428 1_455 S
H1715 C1711 0.930 . S
H1716 C1713 0.929 . S
S1717 N1718 1.613 . S
S1717 N1719 1.610 . S
N1718 S1717 1.613 . S
N1718 C1721 1.365 . S
N1719 S1717 1.610 . S
N1719 C1720 1.351 . S
C1720 C1714 1.428 1_655 S
C1720 N1719 1.351 . S
C1720 C1721 1.435 . S
C1721 C1712 1.414 1_655 S
C1721 N1718 1.365 . S
C1721 C1720 1.435 . S
C1722 C1723 1.369 . S
C1722 C1724 1.419 . S
C1722 H1726 0.930 . S
C1723 C1722 1.369 . S
C1723 C1732 1.429 . S
C1724 C1722 1.419 . S
C1724 C1725 1.363 . S
C1724 H1727 0.929 . S
C1725 C1724 1.363 . S
C1725 C1731 1.428 . S
H1726 C1722 0.930 . S
H1727 C1724 0.929 . S
S1728 N1729 1.613 . S
S1728 N1730 1.610 . S
N1729 S1728 1.613 . S
N1729 C1732 1.350 . S
N1730 S1728 1.610 . S
N1730 C1731 1.351 . S
C1731 C1725 1.428 . S
C1731 N1730 1.351 . S
C1731 C1732 1.434 . S
C1732 C1723 1.429 . S
C1732 N1729 1.350 . S
C1732 C1731 1.434 . S
C1733 C1734 1.369 . S
C1733 C1735 1.419 . S
C1733 H1737 0.930 . S
C1734 C1733 1.369 . S
C1734 C1743 1.429 . S
C1735 C1733 1.419 . S
C1735 C1736 1.363 . S
C1735 H1738 0.929 . S
C1736 C1735 1.363 . S
C1736 C1742 1.428 . S
H1737 C1733 0.930 . S
H1738 C1735 0.929 . S
S1739 N1740 1.613 . S
S1739 N1741 1.610 . S
N1740 S1739 1.613 . S
N1740 C1743 1.350 . S
N1741 S1739 1.610 . S
N1741 C1742 1.351 . S
C1742 C1736 1.428 . S
C1742 N1741 1.351 . S
C1742 C1743 1.434 . S
C1743 C1734 1.429 . S
C1743 N1740 1.350 . S
C1743 C1742 1.434 . S
C1744 C1745 1.369 . S
C1744 C1746 1.419 . S
C1744 H1748 0.930 . S
C1745 C1744 1.369 . S
C1745 C1754 1.429 . S
C1746 C1744 1.419 . S
C1746 C1747 1.363 . S
C1746 H1749 0.929 . S
C1747 C1746 1.363 . S
C1747 C1753 1.428 . S
H1748 C1744 0.930 . S
H1749 C1746 0.929 . S
S1750 N1751 1.613 . S
S1750 N1752 1.610 . S
N1751 S1750 1.613 . S
N1751 C1754 1.350 . S
N1752 S1750 1.610 . S
N1752 C1753 1.351 . S
C1753 C1747 1.428 . S
C1753 N1752 1.351 . S
C1753 C1754 1.434 . S
C1754 C1745 1.429 . S
C1754 N1751 1.350 . S
C1754 C1753 1.434 . S
C1755 C1756 1.369 . S
C1755 C1757 1.419 . S
C1755 H1759 0.930 . S
C1756 C1755 1.369 . S
C1756 C1765 1.429 . S
C1757 C1755 1.419 . S
C1757 C1758 1.363 . S
C1757 H1760 0.929 . S
C1758 C1757 1.363 . S
C1758 C1764 1.428 . S
H1759 C1755 0.930 . S
H1760 C1757 0.929 . S
S1761 N1762 1.613 . S
S1761 N1763 1.610 . S
N1762 S1761 1.613 . S
N1762 C1765 1.350 . S
N1763 S1761 1.610 . S
N1763 C1764 1.351 . S
C1764 C1758 1.428 . S
C1764 N1763 1.351 . S
C1764 C1765 1.434 . S
C1765 C1756 1.429 . S
C1765 N1762 1.350 . S
C1765 C1764 1.434 . S
C1766 C1767 1.369 . S
C1766 C1768 1.419 . S
C1766 H1770 0.930 1_556 S
C1767 C1766 1.369 . S
C1767 C1776 1.429 . S
C1768 C1766 1.419 . S
C1768 C1769 1.363 . S
C1768 H1771 0.929 1_556 S
C1769 C1768 1.363 . S
C1769 C1775 1.428 . S
H1770 C1766 0.930 1_554 S
H1771 C1768 0.929 1_554 S
S1772 N1773 1.613 1_565 S
S1772 N1774 1.620 . S
N1773 S1772 1.613 1_545 S
N1773 C1776 1.351 1_545 S
N1774 S1772 1.620 . S
N1774 C1775 1.351 . S
C1775 C1769 1.428 . S
C1775 N1774 1.351 . S
C1775 C1776 1.434 . S
C1776 C1767 1.429 . S
C1776 N1773 1.351 1_565 S
C1776 C1775 1.434 . S
C1777 C1778 1.369 . S
C1777 C1779 1.419 . S
C1777 H1781 0.930 . S
C1778 C1777 1.369 . S
C1778 C1787 1.429 . S
C1779 C1777 1.419 . S
C1779 C1780 1.363 . S
C1779 H1782 0.929 . S
C1780 C1779 1.363 . S
C1780 C1786 1.428 . S
H1781 C1777 0.930 . S
H1782 C1779 0.929 . S
S1783 N1784 1.613 . S
S1783 N1785 1.610 . S
N1784 S1783 1.613 . S
N1784 C1787 1.350 . S
N1785 S1783 1.610 . S
N1785 C1786 1.351 . S
C1786 C1780 1.428 . S
C1786 N1785 1.351 . S
C1786 C1787 1.434 . S
C1787 C1778 1.429 . S
C1787 N1784 1.350 . S
C1787 C1786 1.434 . S
C1788 C1789 1.369 . S
C1788 C1790 1.419 . S
C1788 H1792 0.930 . S
C1789 C1788 1.369 . S
C1789 C1798 1.429 . S
C1790 C1788 1.419 . S
C1790 C1791 1.363 . S
C1790 H1793 0.929 . S
C1791 C1790 1.363 . S
C1791 C1797 1.428 . S
H1792 C1788 0.930 . S
H1793 C1790 0.929 . S
S1794 N1795 1.613 . S
S1794 N1796 1.610 . S
N1795 S1794 1.613 . S
N1795 C1798 1.350 . S
N1796 S1794 1.610 . S
N1796 C1797 1.351 . S
C1797 C1791 1.428 . S
C1797 N1796 1.351 . S
C1797 C1798 1.434 . S
C1798 C1789 1.429 . S
C1798 N1795 1.350 . S
C1798 C1797 1.434 . S
C1799 C1800 1.369 . S
C1799 C1801 1.419 . S
C1799 H1803 0.930 . S
C1800 C1799 1.369 . S
C1800 C1809 1.429 . S
C1801 C1799 1.419 . S
C1801 C1802 1.363 . S
C1801 H1804 0.929 . S
C1802 C1801 1.363 . S
C1802 C1808 1.428 . S
H1803 C1799 0.930 . S
H1804 C1801 0.929 . S
S1805 N1806 1.613 . S
S1805 N1807 1.610 . S
N1806 S1805 1.613 . S
N1806 C1809 1.350 . S
N1807 S1805 1.610 . S
N1807 C1808 1.351 . S
C1808 C1802 1.428 . S
C1808 N1807 1.351 . S
C1808 C1809 1.434 . S
C1809 C1800 1.429 . S
C1809 N1806 1.350 . S
C1809 C1808 1.434 . S
C1810 C1811 1.369 . S
C1810 C1812 1.419 . S
C1810 H1814 0.930 . S
C1811 C1810 1.369 . S
C1811 C1820 1.429 . S
C1812 C1810 1.419 . S
C1812 C1813 1.363 . S
C1812 H1815 0.929 . S
C1813 C1812 1.363 . S
C1813 C1819 1.428 . S
H1814 C1810 0.930 . S
H1815 C1812 0.929 . S
S1816 N1817 1.613 . S
S1816 N1818 1.610 . S
N1817 S1816 1.613 . S
N1817 C1820 1.350 . S
N1818 S1816 1.610 . S
N1818 C1819 1.351 . S
C1819 C1813 1.428 . S
C1819 N1818 1.351 . S
C1819 C1820 1.434 . S
C1820 C1811 1.429 . S
C1820 N1817 1.350 . S
C1820 C1819 1.434 . S
C1821 C1822 1.369 . S
C1821 C1823 1.419 . S
C1821 H1825 0.930 . S
C1822 C1821 1.369 . S
C1822 C1831 1.429 . S
C1823 C1821 1.419 . S
C1823 C1824 1.363 . S
C1823 H1826 0.929 . S
C1824 C1823 1.363 . S
C1824 C1830 1.428 . S
H1825 C1821 0.930 . S
H1826 C1823 0.929 . S
S1827 N1828 1.613 . S
S1827 N1829 1.610 . S
N1828 S1827 1.613 . S
N1828 C1831 1.350 . S
N1829 S1827 1.610 . S
N1829 C1830 1.351 . S
C1830 C1824 1.428 . S
C1830 N1829 1.351 . S
C1830 C1831 1.434 . S
C1831 C1822 1.429 . S
C1831 N1828 1.350 . S
C1831 C1830 1.434 . S
C1832 C1833 1.369 . S
C1832 C1834 1.419 . S
C1832 H1836 0.930 . S
C1833 C1832 1.369 . S
C1833 C1842 1.429 . S
C1834 C1832 1.419 . S
C1834 C1835 1.363 . S
C1834 H1837 0.929 . S
C1835 C1834 1.363 . S
C1835 C1841 1.428 . S
H1836 C1832 0.930 . S
H1837 C1834 0.929 . S
S1838 N1839 1.613 . S
S1838 N1840 1.610 . S
N1839 S1838 1.613 . S
N1839 C1842 1.350 . S
N1840 S1838 1.610 . S
N1840 C1841 1.351 . S
C1841 C1835 1.428 . S
C1841 N1840 1.351 . S
C1841 C1842 1.434 . S
C1842 C1833 1.429 . S
C1842 N1839 1.350 . S
C1842 C1841 1.434 . S
C1843 C1844 1.369 . S
C1843 C1845 1.419 . S
C1843 H1847 0.930 . S
C1844 C1843 1.369 . S
C1844 C1853 1.429 1_545 S
C1845 C1843 1.419 . S
C1845 C1846 1.363 . S
C1845 H1848 0.929 . S
C1846 C1845 1.363 . S
C1846 C1852 1.428 1_545 S
H1847 C1843 0.930 . S
H1848 C1845 0.929 . S
S1849 N1850 1.613 . S
S1849 N1851 1.610 . S
N1850 S1849 1.613 . S
N1850 C1853 1.350 . S
N1851 S1849 1.610 . S
N1851 C1852 1.351 . S
C1852 C1846 1.428 1_565 S
C1852 N1851 1.351 . S
C1852 C1853 1.434 . S
C1853 C1844 1.429 1_565 S
C1853 N1850 1.350 . S
C1853 C1852 1.434 . S
C1854 C1855 1.369 . S
C1854 C1856 1.419 . S
C1854 H1858 0.930 . S
C1855 C1854 1.369 . S
C1855 C1864 1.429 . S
C1856 C1854 1.419 . S
C1856 C1857 1.363 . S
C1856 H1859 0.929 . S
C1857 C1856 1.363 . S
C1857 C1863 1.428 . S
H1858 C1854 0.930 . S
H1859 C1856 0.929 . S
S1860 N1861 1.613 . S
S1860 N1862 1.610 . S
N1861 S1860 1.613 . S
N1861 C1864 1.350 . S
N1862 S1860 1.610 . S
N1862 C1863 1.351 . S
C1863 C1857 1.428 . S
C1863 N1862 1.351 . S
C1863 C1864 1.434 . S
C1864 C1855 1.429 . S
C1864 N1861 1.350 . S
C1864 C1863 1.434 . S
C1865 C1866 1.369 . S
C1865 C1867 1.419 . S
C1865 H1869 0.930 . S
C1866 C1865 1.369 . S
C1866 C1875 1.429 . S
C1867 C1865 1.419 . S
C1867 C1868 1.363 . S
C1867 H1870 0.929 . S
C1868 C1867 1.363 . S
C1868 C1874 1.428 . S
H1869 C1865 0.930 . S
H1870 C1867 0.929 . S
S1871 N1872 1.613 . S
S1871 N1873 1.610 . S
N1872 S1871 1.613 . S
N1872 C1875 1.350 . S
N1873 S1871 1.610 . S
N1873 C1874 1.351 . S
C1874 C1868 1.428 . S
C1874 N1873 1.351 . S
C1874 C1875 1.434 . S
C1875 C1866 1.429 . S
C1875 N1872 1.350 . S
C1875 C1874 1.434 . S
C1876 C1877 1.369 . S
C1876 C1878 1.419 . S
C1876 H1880 0.930 . S
C1877 C1876 1.369 . S
C1877 C1886 1.429 . S
C1878 C1876 1.419 . S
C1878 C1879 1.363 . S
C1878 H1881 0.929 . S
C1879 C1878 1.363 . S
C1879 C1885 1.428 . S
H1880 C1876 0.930 . S
H1881 C1878 0.929 . S
S1882 N1883 1.613 . S
S1882 N1884 1.610 . S
N1883 S1882 1.613 . S
N1883 C1886 1.350 . S
N1884 S1882 1.610 . S
N1884 C1885 1.351 . S
C1885 C1879 1.428 . S
C1885 N1884 1.351 . S
C1885 C1886 1.434 . S
C1886 C1877 1.429 . S
C1886 N1883 1.350 . S
C1886 C1885 1.434 . S
C1887 C1888 1.369 . S
C1887 C1889 1.419 . S
C1887 H1891 0.930 . S
C1888 C1887 1.369 . S
C1888 C1897 1.429 . S
C1889 C1887 1.419 . S
C1889 C1890 1.363 . S
C1889 H1892 0.929 . S
C1890 C1889 1.363 . S
C1890 C1896 1.428 . S
H1891 C1887 0.930 . S
H1892 C1889 0.929 . S
S1893 N1894 1.635 . S
S1893 N1895 1.610 . S
N1894 S1893 1.635 . S
N1894 C1897 1.325 1_565 S
N1895 S1893 1.610 . S
N1895 C1896 1.351 1_565 S
C1896 C1890 1.428 . S
C1896 N1895 1.351 1_545 S
C1896 C1897 1.434 . S
C1897 C1888 1.429 . S
C1897 N1894 1.325 1_545 S
C1897 C1896 1.434 . S
C1898 C1899 1.369 . S
C1898 C1900 1.419 . S
C1898 H1902 0.930 . S
C1899 C1898 1.369 . S
C1899 C1908 1.429 . S
C1900 C1898 1.419 . S
C1900 C1901 1.363 . S
C1900 H1903 0.929 . S
C1901 C1900 1.363 . S
C1901 C1907 1.428 . S
H1902 C1898 0.930 . S
H1903 C1900 0.929 . S
S1904 N1905 1.613 . S
S1904 N1906 1.610 . S
N1905 S1904 1.613 . S
N1905 C1908 1.350 . S
N1906 S1904 1.610 . S
N1906 C1907 1.351 . S
C1907 C1901 1.428 . S
C1907 N1906 1.351 . S
C1907 C1908 1.434 . S
C1908 C1899 1.429 . S
C1908 N1905 1.350 . S
C1908 C1907 1.434 . S
C1909 C1910 1.369 . S
C1909 C1911 1.419 . S
C1909 H1913 0.930 . S
C1910 C1909 1.369 . S
C1910 C1919 1.429 . S
C1911 C1909 1.419 . S
C1911 C1912 1.363 . S
C1911 H1914 0.929 . S
C1912 C1911 1.363 . S
C1912 C1918 1.428 . S
H1913 C1909 0.930 . S
H1914 C1911 0.929 . S
S1915 N1916 1.613 . S
S1915 N1917 1.610 . S
N1916 S1915 1.613 . S
N1916 C1919 1.350 . S
N1917 S1915 1.610 . S
N1917 C1918 1.351 . S
C1918 C1912 1.428 . S
C1918 N1917 1.351 . S
C1918 C1919 1.434 . S
C1919 C1910 1.429 . S
C1919 N1916 1.350 . S
C1919 C1918 1.434 . S
C1920 C1921 1.369 . S
C1920 C1922 1.419 . S
C1920 H1924 0.930 . S
C1921 C1920 1.369 . S
C1921 C1930 1.429 . S
C1922 C1920 1.419 . S
C1922 C1923 1.363 . S
C1922 H1925 0.929 . S
C1923 C1922 1.363 . S
C1923 C1929 1.428 . S
H1924 C1920 0.930 . S
H1925 C1922 0.929 . S
S1926 N1927 1.613 . S
S1926 N1928 1.610 . S
N1927 S1926 1.613 . S
N1927 C1930 1.350 . S
N1928 S1926 1.610 . S
N1928 C1929 1.351 . S
C1929 C1923 1.428 . S
C1929 N1928 1.351 . S
C1929 C1930 1.434 . S
C1930 C1921 1.429 . S
C1930 N1927 1.350 . S
C1930 C1929 1.434 . S
C1931 C1932 1.369 1_455 S
C1931 C1933 1.419 . S
C1931 H1935 0.930 . S
C1932 C1931 1.369 1_655 S
C1932 C1941 1.429 . S
C1933 C1931 1.419 . S
C1933 C1934 1.363 1_455 S
C1933 H1936 0.929 . S
C1934 C1933 1.363 1_655 S
C1934 C1940 1.428 . S
H1935 C1931 0.930 . S
H1936 C1933 0.929 . S
S1937 N1938 1.613 . S
S1937 N1939 1.610 . S
N1938 S1937 1.613 . S
N1938 C1941 1.350 . S
N1939 S1937 1.610 . S
N1939 C1940 1.351 . S
C1940 C1934 1.428 . S
C1940 N1939 1.351 . S
C1940 C1941 1.434 . S
C1941 C1932 1.429 . S
C1941 N1938 1.350 . S
C1941 C1940 1.434 . S
C1942 C1943 1.369 . S
C1942 C1944 1.419 . S
C1942 H1946 0.930 . S
C1943 C1942 1.369 . S
C1943 C1952 1.429 . S
C1944 C1942 1.419 . S
C1944 C1945 1.363 . S
C1944 H1947 0.929 . S
C1945 C1944 1.363 . S
C1945 C1951 1.428 . S
H1946 C1942 0.930 . S
H1947 C1944 0.929 . S
S1948 N1949 1.613 . S
S1948 N1950 1.610 . S
N1949 S1948 1.613 . S
N1949 C1952 1.350 . S
N1950 S1948 1.610 . S
N1950 C1951 1.351 . S
C1951 C1945 1.428 . S
C1951 N1950 1.351 . S
C1951 C1952 1.434 . S
C1952 C1943 1.429 . S
C1952 N1949 1.350 . S
C1952 C1951 1.434 . S
C1953 C1954 1.369 . S
C1953 C1955 1.419 . S
C1953 H1957 0.930 1_556 S
C1954 C1953 1.369 . S
C1954 C1963 1.429 . S
C1955 C1953 1.419 . S
C1955 C1956 1.363 . S
C1955 H1958 0.929 . S
C1956 C1955 1.363 . S
C1956 C1962 1.428 . S
H1957 C1953 0.930 1_554 S
H1958 C1955 0.929 . S
S1959 N1960 1.613 1_655 S
S1959 N1961 1.610 . S
N1960 S1959 1.613 1_455 S
N1960 C1963 1.350 . S
N1961 S1959 1.610 . S
N1961 C1962 1.351 1_655 S
C1962 C1956 1.428 . S
C1962 N1961 1.351 1_455 S
C1962 C1963 1.434 . S
C1963 C1954 1.429 . S
C1963 N1960 1.350 . S
C1963 C1962 1.434 . S
C1964 C1965 1.369 . S
C1964 C1966 1.419 . S
C1964 H1968 0.930 . S
C1965 C1964 1.369 . S
C1965 C1974 1.429 . S
C1966 C1964 1.419 . S
C1966 C1967 1.363 . S
C1966 H1969 0.929 . S
C1967 C1966 1.363 . S
C1967 C1973 1.428 . S
H1968 C1964 0.930 . S
H1969 C1966 0.929 . S
S1970 N1971 1.613 . S
S1970 N1972 1.610 . S
N1971 S1970 1.613 . S
N1971 C1974 1.350 . S
N1972 S1970 1.610 . S
N1972 C1973 1.351 . S
C1973 C1967 1.428 . S
C1973 N1972 1.351 . S
C1973 C1974 1.434 . S
C1974 C1965 1.429 . S
C1974 N1971 1.350 . S
C1974 C1973 1.434 . S
C1975 C1976 1.369 . S
C1975 C1977 1.419 . S
C1975 H1979 0.930 . S
C1976 C1975 1.369 . S
C1976 C1985 1.429 . S
C1977 C1975 1.419 . S
C1977 C1978 1.363 . S
C1977 H1980 0.929 . S
C1978 C1977 1.363 . S
C1978 C1984 1.428 . S
H1979 C1975 0.930 . S
H1980 C1977 0.929 . S
S1981 N1982 1.610 1_556 S
S1981 N1983 1.610 1_556 S
N1982 S1981 1.610 1_554 S
N1982 C1985 1.375 . S
N1983 S1981 1.610 1_554 S
N1983 C1984 1.351 . S
C1984 C1978 1.428 . S
C1984 N1983 1.351 . S
C1984 C1985 1.434 . S
C1985 C1976 1.429 . S
C1985 N1982 1.375 . S
C1985 C1984 1.434 . S
C1986 C1987 1.369 . S
C1986 C1988 1.419 . S
C1986 H1990 0.930 . S
C1987 C1986 1.369 . S
C1987 C1996 1.429 . S
C1988 C1986 1.419 . S
C1988 C1989 1.363 . S
C1988 H1991 0.929 . S
C1989 C1988 1.363 . S
C1989 C1995 1.428 . S
H1990 C1986 0.930 . S
H1991 C1988 0.929 . S
S1992 N1993 1.613 . S
S1992 N1994 1.610 . S
N1993 S1992 1.613 . S
N1993 C1996 1.350 . S
N1994 S1992 1.610 . S
N1994 C1995 1.351 . S
C1995 C1989 1.428 . S
C1995 N1994 1.351 . S
C1995 C1996 1.434 . S
C1996 C1987 1.429 . S
C1996 N1993 1.350 . S
C1996 C1995 1.434 . S
C1997 C1998 1.369 . S
C1997 C1999 1.419 . S
C1997 H2001 0.930 . S
C1998 C1997 1.369 . S
C1998 C2007 1.429 . S
C1999 C1997 1.419 . S
C1999 C2000 1.363 . S
C1999 H2002 0.929 . S
C2000 C1999 1.363 . S
C2000 C2006 1.428 . S
H2001 C1997 0.930 . S
H2002 C1999 0.929 . S
S2003 N2004 1.613 . S
S2003 N2005 1.610 . S
N2004 S2003 1.613 . S
N2004 C2007 1.350 . S
N2005 S2003 1.610 . S
N2005 C2006 1.351 . S
C2006 C2000 1.428 . S
C2006 N2005 1.351 . S
C2006 C2007 1.434 . S
C2007 C1998 1.429 . S
C2007 N2004 1.350 . S
C2007 C2006 1.434 . S
C2008 C2009 1.369 . S
C2008 C2010 1.419 . S
C2008 H2012 0.930 . S
C2009 C2008 1.369 . S
C2009 C2018 1.429 . S
C2010 C2008 1.419 . S
C2010 C2011 1.363 . S
C2010 H2013 0.929 . S
C2011 C2010 1.363 . S
C2011 C2017 1.428 . S
H2012 C2008 0.930 . S
H2013 C2010 0.929 . S
S2014 N2015 1.613 . S
S2014 N2016 1.610 . S
N2015 S2014 1.613 . S
N2015 C2018 1.350 . S
N2016 S2014 1.610 . S
N2016 C2017 1.351 . S
C2017 C2011 1.428 . S
C2017 N2016 1.351 . S
C2017 C2018 1.434 . S
C2018 C2009 1.429 . S
C2018 N2015 1.350 . S
C2018 C2017 1.434 . S
C2019 C2020 1.369 . S
C2019 C2021 1.419 . S
C2019 H2023 0.930 . S
C2020 C2019 1.369 . S
C2020 C2029 1.429 . S
C2021 C2019 1.419 . S
C2021 C2022 1.363 . S
C2021 H2024 0.929 . S
C2022 C2021 1.363 . S
C2022 C2028 1.428 . S
H2023 C2019 0.930 . S
H2024 C2021 0.929 . S
S2025 N2026 1.613 . S
S2025 N2027 1.610 . S
N2026 S2025 1.613 . S
N2026 C2029 1.350 . S
N2027 S2025 1.610 . S
N2027 C2028 1.351 . S
C2028 C2022 1.428 . S
C2028 N2027 1.351 . S
C2028 C2029 1.434 . S
C2029 C2020 1.429 . S
C2029 N2026 1.350 . S
C2029 C2028 1.434 . S
C2030 C2031 1.369 . S
C2030 C2032 1.419 . S
C2030 H2034 0.930 . S
C2031 C2030 1.369 . S
C2031 C2040 1.429 . S
C2032 C2030 1.419 . S
C2032 C2033 1.363 . S
C2032 H2035 0.929 . S
C2033 C2032 1.363 . S
C2033 C2039 1.428 . S
H2034 C2030 0.930 . S
H2035 C2032 0.929 . S
S2036 N2037 1.613 . S
S2036 N2038 1.610 . S
N2037 S2036 1.613 . S
N2037 C2040 1.350 . S
N2038 S2036 1.610 . S
N2038 C2039 1.351 . S
C2039 C2033 1.428 . S
C2039 N2038 1.351 . S
C2039 C2040 1.434 . S
C2040 C2031 1.429 . S
C2040 N2037 1.350 . S
C2040 C2039 1.434 . S
C2041 C2042 1.369 . S
C2041 C2043 1.419 . S
C2041 H2045 0.930 . S
C2042 C2041 1.369 . S
C2042 C2051 1.429 . S
C2043 C2041 1.419 . S
C2043 C2044 1.363 . S
C2043 H2046 0.929 . S
C2044 C2043 1.363 . S
C2044 C2050 1.428 . S
H2045 C2041 0.930 . S
H2046 C2043 0.929 . S
S2047 N2048 1.613 . S
S2047 N2049 1.610 . S
N2048 S2047 1.613 . S
N2048 C2051 1.350 . S
N2049 S2047 1.610 . S
N2049 C2050 1.351 . S
C2050 C2044 1.428 . S
C2050 N2049 1.351 . S
C2050 C2051 1.434 . S
C2051 C2042 1.429 . S
C2051 N2048 1.350 . S
C2051 C2050 1.434 . S
C2052 C2053 1.369 1_554 S
C2052 C2054 1.419 . S
C2052 H2056 0.930 . S
C2053 C2052 1.369 1_556 S
C2053 C2062 1.429 . S
C2054 C2052 1.419 . S
C2054 C2055 1.363 1_554 S
C2054 H2057 0.929 . S
C2055 C2054 1.363 1_556 S
C2055 C2061 1.428 . S
H2056 C2052 0.930 . S
H2057 C2054 0.929 . S
S2058 N2059 1.613 . S
S2058 N2060 1.610 . S
N2059 S2058 1.613 . S
N2059 C2062 1.350 . S
N2060 S2058 1.610 . S
N2060 C2061 1.351 . S
C2061 C2055 1.428 . S
C2061 N2060 1.351 . S
C2061 C2062 1.434 . S
C2062 C2053 1.429 . S
C2062 N2059 1.350 . S
C2062 C2061 1.434 . S
C2063 C2064 1.369 . S
C2063 C2065 1.419 . S
C2063 H2067 0.930 . S
C2064 C2063 1.369 . S
C2064 C2073 1.429 . S
C2065 C2063 1.419 . S
C2065 C2066 1.363 . S
C2065 H2068 0.929 . S
C2066 C2065 1.363 . S
C2066 C2072 1.428 . S
H2067 C2063 0.930 . S
H2068 C2065 0.929 . S
S2069 N2070 1.613 . S
S2069 N2071 1.610 . S
N2070 S2069 1.613 . S
N2070 C2073 1.350 . S
N2071 S2069 1.610 . S
N2071 C2072 1.351 . S
C2072 C2066 1.428 . S
C2072 N2071 1.351 . S
C2072 C2073 1.434 . S
C2073 C2064 1.429 . S
C2073 N2070 1.350 . S
C2073 C2072 1.434 . S
C2074 C2075 1.369 . S
C2074 C2076 1.419 . S
C2074 H2078 0.949 . S
C2075 C2074 1.369 . S
C2075 C2084 1.429 . S
C2076 C2074 1.419 . S
C2076 C2077 1.363 . S
C2076 H2079 0.929 1_554 S
C2077 C2076 1.363 . S
C2077 C2083 1.428 . S
H2078 C2074 0.949 . S
H2079 C2076 0.929 1_556 S
S2080 N2081 1.613 . S
S2080 N2082 1.610 . S
N2081 S2080 1.613 . S
N2081 C2084 1.350 . S
N2082 S2080 1.610 . S
N2082 C2083 1.351 . S
C2083 C2077 1.428 . S
C2083 N2082 1.351 . S
C2083 C2084 1.434 . S
C2084 C2075 1.429 . S
C2084 N2081 1.350 . S
C2084 C2083 1.434 . S
C2085 C2086 1.369 . S
C2085 C2087 1.419 . S
C2085 H2089 0.930 1_554 S
C2086 C2085 1.369 . S
C2086 C2095 1.429 . S
C2087 C2085 1.419 . S
C2087 C2088 1.363 . S
C2087 H2090 0.929 1_554 S
C2088 C2087 1.363 . S
C2088 C2094 1.428 . S
H2089 C2085 0.930 1_556 S
H2090 C2087 0.929 1_556 S
S2091 N2092 1.613 . S
S2091 N2093 1.610 . S
N2092 S2091 1.613 . S
N2092 C2095 1.350 . S
N2093 S2091 1.610 . S
N2093 C2094 1.351 . S
C2094 C2088 1.428 . S
C2094 N2093 1.351 . S
C2094 C2095 1.434 . S
C2095 C2086 1.429 . S
C2095 N2092 1.350 . S
C2095 C2094 1.434 . S
C1571 C561 1.475 . S
C1569 C177 1.463 . S
C1582 C620 1.533 . S
C1580 C209 1.522 . S
C1591 C253 1.424 . S
C1593 C737 1.474 . S
C1604 C805 1.532 . S
C1602 C157 1.476 . S
C1615 C884 1.525 . S
C1613 C343 1.476 . S
C1626 C1009 1.509 . S
C1624 C401 1.463 . S
C1635 C369 1.484 . S
C1637 C1069 1.524 . S
C1648 C1177 1.518 . S
C1646 C317 1.506 . S
C1657 C375 1.478 . S
C1659 C1273 1.517 . S
C1670 C1333 1.556 . S
C1668 C305 1.550 . S
C1679 C349 1.486 . S
C1681 C1236 1.541 . S
C1692 C1353 1.521 . S
C1690 C413 1.459 . S
C1701 C241 1.449 . S
C1703 C1421 1.487 . S
C1712 C151 1.448 . S
C1714 C1412 1.496 . S
C1723 C189 1.500 . S
C1725 C1441 1.513 . S
C1734 C215 1.503 . S
C1736 C1449 1.515 . S
C1745 C113 1.459 . S
C1747 C833 1.498 . S
C1756 C471 1.477 . S
C1758 C796 1.491 . S
C1769 C532 1.526 . S
C1767 C509 1.514 . S
C1780 C629 1.509 . S
C1778 C279 1.467 . S
C1789 C145 1.441 . S
C1791 C893 1.481 . S
C1802 C1185 1.551 . S
C1800 C381 1.494 . S
C1813 C913 1.535 . S
C1811 C311 1.525 . S
C1824 C1097 1.499 . S
C1822 C407 1.462 . S
C1835 C1089 1.476 . S
C1833 C465 1.466 . S
C1844 C497 1.523 . S
C1846 C1157 1.534 . S
C1855 C285 1.419 . S
C1857 C921 1.474 . S
C1868 C972 1.531 . S
C1866 C445 1.481 . S
C1877 C119 1.474 . S
C1879 C717 1.525 . S
C1890 C825 1.508 . S
C1888 C17 1.468 . S
C1901 C541 1.524 . S
C1899 C49 1.484 . S
C1912 C657 1.517 . S
C1910 C93 1.506 . S
C1921 C55 1.476 . S
C1923 C1361 1.518 . S
C1932 C81 1.553 . S
C1934 C1245 1.557 . S
C1943 C125 1.486 . S
C1945 C1324 1.541 . S
C1954 C29 1.468 . S
C1956 C1265 1.520 . S
C1967 C1509 1.488 . S
C1965 C273 1.441 . S
C1978 C1500 1.497 . S
C1976 C439 1.442 . S
C1989 C1529 1.514 . S
C1987 C477 1.504 . S
C1998 C503 1.501 . S
C2000 C1537 1.514 . S
C2009 C337 1.452 . S
C2011 C1001 1.500 . S
C2022 C981 1.491 . S
C2020 C183 1.478 . S
C2033 C1060 1.525 . S
C2031 C221 1.510 . S
C2044 C1148 1.510 . S
C2042 C247 1.465 . S
C2053 C433 1.433 . S
C2055 C708 1.482 . S
C2066 C649 1.551 . S
C2064 C61 1.498 . S
C2075 C87 1.528 . S
C2077 C745 1.536 . S
C2088 C569 1.499 . S
C2086 C23 1.455 . S
