# Generated by pormake.
# Topology tsx, (6,3)-cn, num edge types: 1
# Building blocks:
#     Node 0, Type 0, BuildingBlock: JUFBIX_clean_sbu_0, # of connection points: 6
#     Node 1, Type 0, BuildingBlock: JUFBIX_clean_sbu_0, # of connection points: 6
#     Node 2, Type 1, BuildingBlock: VETTIZ_charged_linker_0, # of connection points: 3
#     Node 3, Type 1, BuildingBlock: VETTIZ_charged_linker_0, # of connection points: 3
#     Node 4, Type 1, BuildingBlock: VETTIZ_charged_linker_0, # of connection points: 3
#     Node 5, Type 1, BuildingBlock: VETTIZ_charged_linker_0, # of connection points: 3
#     Edge 6, Type (0, 1), BuildingBlock: KIFKEQ_clean_linker_1, # of connection points: 2
#     Edge 7, Type (0, 1), BuildingBlock: KIFKEQ_clean_linker_1, # of connection points: 2
#     Edge 8, Type (0, 1), BuildingBlock: KIFKEQ_clean_linker_1, # of connection points: 2
#     Edge 9, Type (0, 1), BuildingBlock: KIFKEQ_clean_linker_1, # of connection points: 2
#     Edge 10, Type (0, 1), BuildingBlock: KIFKEQ_clean_linker_1, # of connection points: 2
#     Edge 11, Type (0, 1), BuildingBlock: KIFKEQ_clean_linker_1, # of connection points: 2
#     Edge 12, Type (0, 1), BuildingBlock: KIFKEQ_clean_linker_1, # of connection points: 2
#     Edge 13, Type (0, 1), BuildingBlock: KIFKEQ_clean_linker_1, # of connection points: 2
#     Edge 14, Type (0, 1), BuildingBlock: KIFKEQ_clean_linker_1, # of connection points: 2
#     Edge 15, Type (0, 1), BuildingBlock: KIFKEQ_clean_linker_1, # of connection points: 2
#     Edge 16, Type (0, 1), BuildingBlock: KIFKEQ_clean_linker_1, # of connection points: 2
#     Edge 17, Type (0, 1), BuildingBlock: KIFKEQ_clean_linker_1, # of connection points: 2
# Relax obj value: 0.164
# Max RMSD: 0.169
# Mean RMSD: 0.137
data_MOF--net-tsx--node1-JUFBIX_clean_sbu_0--node2-VETTIZ_charged_linker_0--edge1-KIFKEQ_clean_linker_1
_symmetry_space_group_name_H-M    P1
_symmetry_Int_Tables_number       1
_symmetry_cell_setting            triclinic
loop_
_symmetry_equiv_pos_as_xyz
'x, y, z'
_cell_length_a     23.457857
_cell_length_b     28.129535
_cell_length_c     45.561563
_cell_angle_alpha  92.134676
_cell_angle_beta   89.693525
_cell_angle_gamma 97.937956
loop_
_atom_site_label
_atom_site_type_symbol
_atom_site_fract_x
_atom_site_fract_y
_atom_site_fract_z
_atom_type_partial_charge
Co0 Co 0.05067 0.01217 -0.0065 0.0
C1 C 0.98814 0.03077 0.94439 0.0
Co2 Co 0.98054 0.056 0.00284 0.0
C3 C 0.12501 0.9367 -0.00489 0.0
C4 C 0.15504 0.99229 0.96561 0.0
N5 N 0.11175 0.9781 0.98433 0.0
N6 N 0.17524 0.92533 0.98412 0.0
C7 C 0.19424 0.96024 0.96565 0.0
H8 H 0.09924 0.91601 0.0112 0.0
H9 H 0.1583 0.02427 0.9529 0.0
C10 C 0.04326 0.03816 0.05186 0.0
N11 N 0.91968 0.08949 0.01235 0.0
C12 C 0.90252 0.12744 -0.00073 0.0
C13 C 0.88092 0.07884 0.03393 0.0
N14 N 0.85428 0.14047 0.0117 0.0
C15 C 0.84056 0.1099 0.03349 0.0
C16 C 0.948 0.95626 0.00528 0.0
O17 O 0.07117 0.01481 0.03373 0.0
O18 O 1.0017 0.05818 0.04275 0.0
O19 O 0.93144 0.99734 0.00787 0.0
O20 O 1.00037 0.95355 -0.00109 0.0
O21 O 0.9603 0.05364 0.96281 0.0
H22 H 0.88156 0.04986 0.04884 0.0
H23 H 0.92406 0.1443 0.98049 0.0
O24 O 0.02948 0.01006 0.95324 0.0
O25 O 0.10001 0.07183 -0.01153 0.0
O26 O 0.03 0.11437 -0.00222 0.0
C27 C 0.08253 0.11263 -0.00852 0.0
H28 H 0.23363 0.96219 0.95298 0.0
H29 H 0.80402 0.11007 0.04809 0.0
Co30 Co 0.57313 0.47509 0.5041 0.0
C31 C 0.52259 0.48301 0.44993 0.0
Co32 Co 0.5029 0.52062 0.50461 0.0
C33 C 0.63865 0.3935 0.49738 0.0
C34 C 0.68994 0.4592 0.51129 0.0
N35 N 0.63595 0.44072 0.50325 0.0
N36 N 0.69222 0.38192 0.50155 0.0
C37 C 0.7244 0.4236 0.51006 0.0
H38 H 0.6016 0.36799 0.491 0.0
H39 H 0.70344 0.49614 0.51834 0.0
C40 C 0.55419 0.51518 0.55848 0.0
N41 N 0.44006 0.55447 0.50753 0.0
C42 C 0.42869 0.59458 0.49453 0.0
C43 C 0.39583 0.5437 0.52628 0.0
N44 N 0.37915 0.60914 0.50458 0.0
C45 C 0.35846 0.57679 0.52441 0.0
C46 C 0.46842 0.4221 0.51353 0.0
O47 O 0.58486 0.48756 0.54503 0.0
O48 O 0.51492 0.5318 0.5448 0.0
O49 O 0.45315 0.4633 0.5112 0.0
O50 O 0.52159 0.41778 0.51183 0.0
O51 O 0.49198 0.50967 0.46436 0.0
H52 H 0.39145 0.51405 0.54095 0.0
H53 H 0.45707 0.61341 0.47868 0.0
O54 O 0.56089 0.46366 0.46307 0.0
O55 O 0.62333 0.5333 0.49628 0.0
O56 O 0.55334 0.57758 0.4977 0.0
C57 C 0.60655 0.57429 0.49468 0.0
H58 H 0.76983 0.42848 0.51517 0.0
H59 H 0.31899 0.5768 0.5368 0.0
C60 C 0.13608 0.89898 0.44666 0.0
C61 C 0.18191 0.87773 0.43393 0.0
C62 C 0.19899 0.88874 0.40502 0.0
C63 C 0.12722 0.94222 0.40212 0.0
C64 C 0.10956 0.93144 0.43035 0.0
C65 C 0.06171 0.95928 0.44027 0.0
H66 H 0.89712 0.13329 0.40887 0.0
C67 C 0.09293 0.9779 0.39125 0.0
C68 C 0.05458 0.9889 0.41351 0.0
H69 H 0.89155 0.05419 0.48854 0.0
H70 H 0.96422 1.00799 0.46866 0.0
H71 H 0.03158 0.14802 0.39966 0.0
H72 H 0.89409 0.04314 0.36695 0.0
H73 H 0.94392 0.05046 0.33816 0.0
H74 H 0.91008 0.10104 0.35137 0.0
H75 H 0.98003 0.16064 0.37307 0.0
H76 H 0.04534 0.13776 0.36216 0.0
C77 C 0.08291 0.99097 0.46743 0.0
C78 C 1.00753 0.92306 0.44602 0.0
C79 C 0.12187 0.02961 0.28627 0.0
C80 C 0.09466 0.06028 0.26911 0.0
C81 C 0.05545 0.08803 0.28257 0.0
C82 C 0.04163 0.08362 0.31235 0.0
C83 C 0.06696 0.05089 0.32886 0.0
C84 C 0.10716 0.02531 0.31591 0.0
C85 C 0.12925 0.99192 0.33666 0.0
C86 C 0.09406 1.00044 0.36394 0.0
C87 C 0.05783 0.0349 0.35924 0.0
C88 C 0.19453 1.00877 0.34148 0.0
C89 C 0.11424 0.93991 0.32366 0.0
C90 C 0.91075 0.10569 0.42209 0.0
C91 C 0.88843 0.09756 0.45037 0.0
C92 C 0.90864 0.06169 0.46683 0.0
C93 C 0.95075 0.0349 0.45524 0.0
C94 C 0.97314 0.04424 0.42697 0.0
C95 C 0.95218 0.07882 0.41091 0.0
C96 C 0.97815 0.08339 0.38091 0.0
C97 C 1.01949 0.04677 0.38159 0.0
C98 C 1.01711 0.02377 0.4086 0.0
C99 C 1.01024 0.13515 0.37852 0.0
C100 C 0.92937 0.06917 0.358 0.0
H101 H 0.18755 0.92734 0.36735 0.0
H102 H 0.12204 0.8912 0.46886 0.0
H103 H 0.96781 0.93993 0.44684 0.0
H104 H 1.01186 0.90465 0.46688 0.0
H105 H 1.00103 0.8951 0.42798 0.0
H106 H 0.12715 0.00976 0.46375 0.0
H107 H 0.08408 0.96859 0.48691 0.0
H108 H 0.0561 0.01934 0.47252 0.0
H109 H 0.15276 1.00829 0.27666 0.0
H110 H 0.03343 0.11163 0.2698 0.0
H111 H 1.01059 0.10497 0.32112 0.0
H112 H 0.20813 1.00502 0.36441 0.0
H113 H 0.20611 0.04772 0.3375 0.0
H114 H 0.22109 0.98893 0.32642 0.0
H115 H 0.07135 0.935 0.31279 0.0
H116 H 0.1107 0.91235 0.34045 0.0
H117 H 0.14642 0.93158 0.30695 0.0
H118 H 0.23305 0.87208 0.39442 0.0
C119 C 0.17215 0.92076 0.38918 0.0
C120 C 0.12052 0.12753 0.55589 0.0
C121 C 0.15011 0.1666 0.57236 0.0
C122 C 0.1355 0.17342 0.60209 0.0
C123 C 0.06294 0.10354 0.59872 0.0
C124 C 0.0768 0.09661 0.56951 0.0
C125 C 0.0394 0.0539 0.5555 0.0
H126 H 0.83621 0.85946 0.57426 0.0
C127 C 1.0162 0.06549 0.60645 0.0
C128 C 1.00146 0.03625 0.58119 0.0
H129 H 0.91897 0.90276 0.49299 0.0
H130 H 0.97139 0.97358 0.518 0.0
H131 H 0.9444 0.88321 0.61515 0.0
H132 H 0.80789 0.96303 0.59349 0.0
H133 H 0.82276 0.97614 0.63085 0.0
H134 H 0.79793 0.915 0.61863 0.0
H135 H 0.87245 0.86913 0.62889 0.0
H136 H 0.9253 0.91169 0.64792 0.0
C137 C 0.07883 0.01691 0.54527 0.0
C138 C 1.00425 0.07181 0.53061 0.0
C139 C 0.95263 0.05296 0.71275 0.0
C140 C 0.91432 0.01901 0.72748 0.0
C141 C 0.88032 0.98235 0.711 0.0
C142 C 0.88602 0.9785 0.68042 0.0
C143 C 0.92652 0.01143 0.66615 0.0
C144 C 0.95812 0.0484 0.68226 0.0
C145 C 0.99984 0.07946 0.66358 0.0
C146 C 0.98861 0.05462 0.63362 0.0
C147 C 0.94595 0.0148 0.63531 0.0
C148 C 0.06155 0.07635 0.67481 0.0
C149 C 0.98257 0.13079 0.66467 0.0
C150 C 0.8657 0.88423 0.56187 0.0
C151 C 0.87472 0.87539 0.53189 0.0
C152 C 0.91224 0.90888 0.51624 0.0
C153 C 0.94238 0.94982 0.53081 0.0
C154 C 0.93377 0.95758 0.56117 0.0
C155 C 0.89492 0.92531 0.57589 0.0
C156 C 0.88904 0.93912 0.60769 0.0
C157 C 0.93112 0.9849 0.61003 0.0
C158 C 0.95803 0.99563 0.58291 0.0
C159 C 0.90832 0.8988 0.62609 0.0
C160 C 0.82618 0.94856 0.61324 0.0
H161 H 0.08339 0.14973 0.63796 0.0
H162 H 0.13041 0.12179 0.53289 0.0
H163 H 0.96404 0.04761 0.52587 0.0
H164 H 0.03015 0.07658 0.5102 0.0
H165 H 0.99038 0.10704 0.53695 0.0
H166 H 0.10785 0.0101 0.56342 0.0
H167 H 0.10627 0.03058 0.52665 0.0
H168 H 0.0548 0.98175 0.53865 0.0
H169 H 0.97997 0.08117 0.72481 0.0
H170 H 0.85003 0.9561 0.72185 0.0
H171 H 0.85969 0.94928 0.66921 0.0
H172 H 0.09478 0.08223 0.6576 0.0
H173 H 0.06498 0.0398 0.68258 0.0
H174 H 0.07327 0.10232 0.69348 0.0
H175 H 0.9353 0.12976 0.66767 0.0
H176 H 0.99208 0.14961 0.64395 0.0
H177 H 1.00407 0.15299 0.68317 0.0
H178 H 0.15802 0.20289 0.61531 0.0
C179 C 0.09216 0.14234 0.61527 0.0
C180 C 0.59358 0.41503 0.94624 0.0
C181 C 0.62579 0.38333 0.93075 0.0
C182 C 0.6265 0.38337 0.89981 0.0
C183 C 0.57336 0.45104 0.90052 0.0
C184 C 0.56739 0.44845 0.93054 0.0
C185 C 0.53134 0.4852 0.94271 0.0
H186 H 0.41496 0.68996 0.91848 0.0
C187 C 0.54757 0.49277 0.89107 0.0
C188 C 0.5212 0.51266 0.9155 0.0
H189 H 0.39574 0.60885 -0.00271 0.0
H190 H 0.45068 0.54933 0.97472 0.0
H191 H 0.54514 0.6792 0.90617 0.0
H192 H 0.38451 0.60241 0.87536 0.0
H193 H 0.43064 0.60562 0.84488 0.0
H194 H 0.41323 0.66034 0.86246 0.0
H195 H 0.50181 0.70254 0.87934 0.0
H196 H 0.5558 0.66518 0.86891 0.0
C197 C 0.56705 0.51775 0.96563 0.0
C198 C 0.47504 0.45813 0.95491 0.0
C199 C 0.58789 0.54933 0.78789 0.0
C200 C 0.57389 0.58888 0.77298 0.0
C201 C 0.54651 0.62382 0.78827 0.0
C202 C 0.53123 0.61836 0.81778 0.0
C203 C 0.54342 0.57752 0.8321 0.0
C204 C 0.57217 0.54435 0.81729 0.0
C205 C 0.58176 0.50331 0.83588 0.0
C206 C 0.55271 0.51679 0.86424 0.0
C207 C 0.53053 0.56014 0.86185 0.0
C208 C 0.64773 0.50507 0.8394 0.0
C209 C 0.55078 0.45598 0.82131 0.0
C210 C 0.42287 0.65967 0.93113 0.0
C211 C 0.40229 0.65474 0.95994 0.0
C212 C 0.41182 0.61371 0.97515 0.0
C213 C 0.44342 0.5792 0.962 0.0
C214 C 0.46447 0.58533 0.93316 0.0
C215 C 0.45305 0.62493 0.91828 0.0
C216 C 0.47556 0.62559 0.88753 0.0
C217 C 0.50189 0.57952 0.88592 0.0
C218 C 0.49641 0.55593 0.9127 0.0
C219 C 0.52171 0.67049 0.88505 0.0
C220 C 0.4237 0.62375 0.86627 0.0
H221 H 0.60389 0.41547 0.86125 0.0
H222 H 0.59054 0.41497 0.96995 0.0
H223 H 0.43912 0.47959 0.95454 0.0
H224 H 0.48152 0.44681 0.9776 0.0
H225 H 0.46017 0.42526 0.94118 0.0
H226 H 0.60799 0.53482 0.95581 0.0
H227 H 0.57819 0.49643 0.98423 0.0
H228 H 0.54393 0.54691 0.97415 0.0
H229 H 0.60798 0.52143 0.77657 0.0
H230 H 0.53564 0.65474 0.77716 0.0
H231 H 0.50952 0.64573 0.82806 0.0
H232 H 0.66849 0.54257 0.84412 0.0
H233 H 0.66717 0.49179 0.81892 0.0
H234 H 0.66025 0.48437 0.85775 0.0
H235 H 0.51527 0.46273 0.80659 0.0
H236 H 0.52952 0.43114 0.83762 0.0
H237 H 0.58108 0.43718 0.80788 0.0
H238 H 0.64819 0.35788 0.88714 0.0
C239 C 0.60052 0.41685 0.88471 0.0
C240 C 0.61856 0.6523 0.05641 0.0
C241 C 0.65981 0.68386 0.07255 0.0
C242 C 0.65967 0.68223 0.10343 0.0
C243 C 0.58128 0.61648 0.10155 0.0
C244 C 0.58003 0.61871 0.07137 0.0
C245 C 0.53503 0.58079 0.05788 0.0
H246 H 0.35082 0.37489 0.07678 0.0
C247 C 0.53831 0.57606 0.11024 0.0
C248 C 0.5101 0.55514 0.0848 0.0
H249 H 0.37935 0.45032 -0.00373 0.0
H250 H 0.44351 0.51415 0.02198 0.0
H251 H 0.47748 0.39218 0.10091 0.0
H252 H 0.33049 0.46568 0.11431 0.0
H253 H 0.36621 0.47114 0.14821 0.0
H254 H 0.33862 0.41219 0.13313 0.0
H255 H 0.41624 0.36897 0.12236 0.0
H256 H 0.47635 0.40779 0.13851 0.0
C257 C 0.56593 0.54718 0.03794 0.0
C258 C 0.49036 0.60597 0.04185 0.0
C259 C 0.52835 0.52896 0.21671 0.0
C260 C 0.49692 0.49043 0.23106 0.0
C261 C 0.45916 0.45622 0.21478 0.0
C262 C 0.45251 0.46046 0.18459 0.0
C263 C 0.48417 0.49919 0.17049 0.0
C264 C 0.5213 0.53259 0.18651 0.0
C265 C 0.55223 0.57071 0.16771 0.0
C266 C 0.52656 0.5551 0.1378 0.0
C267 C 0.48703 0.51326 0.13965 0.0
C268 C 0.61763 0.5671 0.16911 0.0
C269 C 0.53556 0.61988 0.17846 0.0
C270 C 0.37119 0.40498 0.06456 0.0
C271 C 0.36206 0.40691 0.03432 0.0
C272 C 0.38728 0.44766 0.01947 0.0
C273 C 0.42413 0.48458 0.03443 0.0
C274 C 0.43435 0.48114 0.06468 0.0
C275 C 0.40648 0.44227 0.07919 0.0
C276 C 0.41831 0.44512 0.11145 0.0
C277 C 0.45891 0.4917 0.11414 0.0
C278 C 0.4693 0.51272 0.08677 0.0
C279 C 0.4483 0.40123 0.11899 0.0
C280 C 0.36064 0.44837 0.12783 0.0
H281 H 0.62317 0.6496 0.14146 0.0
H282 H 0.61738 0.65286 0.03266 0.0
H283 H 0.44722 0.58455 0.04136 0.0
H284 H 0.50465 0.61419 0.0191 0.0
H285 H 0.48419 0.64043 0.05341 0.0
H286 H 0.59907 0.53179 0.05054 0.0
H287 H 0.58821 0.56733 0.01975 0.0
H288 H 0.53613 0.51672 0.02868 0.0
H289 H 0.55819 0.5555 0.22868 0.0
H290 H 0.43401 0.42659 0.22552 0.0
H291 H 0.42303 0.43327 0.17347 0.0
H292 H 0.64022 0.57583 0.14825 0.0
H293 H 0.62547 0.52976 0.17311 0.0
H294 H 0.63891 0.59066 0.18711 0.0
H295 H 0.48958 0.61618 0.18528 0.0
H296 H 0.53946 0.64658 0.16112 0.0
H297 H 0.56198 0.63487 0.19766 0.0
H298 H 0.68993 0.70687 0.11645 0.0
C299 C 0.6206 0.64903 0.11796 0.0
H300 H 0.06191 0.20517 0.00236 0.0
H301 H 0.19674 0.12178 0.97682 0.0
H302 H 0.13217 0.27757 0.00567 0.0
H303 H 0.26675 0.19439 0.97942 0.0
H304 H 0.37593 0.31319 0.03637 0.0
H305 H 0.30934 0.2436 0.0198 0.0
H306 H 0.20069 0.33702 0.98152 0.0
H307 H 0.26768 0.40724 -0.00111 0.0
C308 C 0.10636 0.2024 -0.00309 0.0
C309 C 0.12378 0.1575 -0.01027 0.0
C310 C 0.14666 0.24406 -0.00141 0.0
C311 C 0.20532 0.24186 -0.00693 0.0
C312 C 0.22211 0.19731 0.98432 0.0
C313 C 0.18189 0.15565 0.98274 0.0
C314 C 0.3383 0.31882 0.02396 0.0
C315 C 0.32667 0.36555 0.01911 0.0
C316 C 0.30023 0.27888 0.01425 0.0
C317 C 0.24932 0.28456 -0.00056 0.0
C318 C 0.23916 0.33139 -0.00682 0.0
C319 C 0.2777 0.37156 0.00282 0.0
H320 H 0.28399 0.92906 0.00267 0.0
H321 H 0.1324 0.8312 0.97892 0.0
H322 H 0.33912 0.86201 0.00588 0.0
H323 H 0.18793 0.76355 0.98013 0.0
H324 H 0.29879 0.64552 -0.01033 0.0
H325 H 0.242 0.70999 0.0034 0.0
H326 H 0.37872 0.81438 0.97135 0.0
H327 H 0.43541 0.75088 0.9593 0.0
C328 C 0.26253 0.89285 -0.00158 0.0
C329 C 0.20429 0.88508 -0.00958 0.0
C330 C 0.29408 0.85436 -6e-05 0.0
C331 C 0.26863 0.8071 -0.00745 0.0
C332 C 0.20919 0.79918 -0.01383 0.0
C333 C 0.17725 0.83783 -0.01466 0.0
C334 C 0.31705 0.68247 -0.01357 0.0
C335 C 0.37132 0.6931 0.97315 0.0
C336 C 0.28427 0.71942 -0.00609 0.0
C337 C 0.30525 0.76772 -0.01165 0.0
C338 C 0.36094 0.77807 0.9765 0.0
C339 C 0.39348 0.74144 0.96922 0.0
H340 H 0.83222 0.95113 0.01337 0.0
H341 H 0.9692 0.86294 0.009 0.0
H342 H 0.76392 0.88152 0.02529 0.0
H343 H 0.90015 0.7927 0.02069 0.0
H344 H 0.77464 0.70342 0.08449 0.0
H345 H 0.84467 0.7658 0.0643 0.0
H346 H 0.71445 0.80411 0.00639 0.0
H347 H 0.64378 0.74221 0.02723 0.0
C348 C 0.84773 0.91673 0.01465 0.0
C349 C 0.90634 0.9127 0.01042 0.0
C350 C 0.80833 0.87667 0.02125 0.0
C351 C 0.82648 0.83149 0.02394 0.0
C352 C 0.88489 0.82712 0.01902 0.0
C353 C 0.9244 0.86728 0.01222 0.0
C354 C 0.76098 0.72506 0.06737 0.0
C355 C 0.70346 0.71835 0.05775 0.0
C356 C 0.80133 0.76046 0.05555 0.0
C357 C 0.78515 0.79016 0.03384 0.0
C358 C 0.72813 0.78218 0.02335 0.0
C359 C 0.68775 0.74651 0.03509 0.0
H360 H 0.89777 0.22676 -0.00891 0.0
H361 H 0.73884 0.13869 0.01259 0.0
H362 H 0.84396 0.28967 0.97553 0.0
H363 H 0.68444 0.20036 -0.00411 0.0
H364 H 0.5994 0.33226 0.98086 0.0
H365 H 0.65645 0.27724 0.00372 0.0
H366 H 0.78686 0.30581 0.93681 0.0
H367 H 0.73243 0.36277 0.91559 0.0
C368 C 0.85123 0.2208 -0.00777 0.0
C369 C 0.82249 0.17783 0.00289 0.0
C370 C 0.82021 0.25674 0.98326 0.0
C371 C 0.75955 0.25017 0.98418 0.0
C372 C 0.73098 0.20726 -0.00472 0.0
C373 C 0.76212 0.17169 0.0047 0.0
C374 C 0.64073 0.32735 0.97141 0.0
C375 C 0.66076 0.35143 0.94608 0.0
C376 C 0.6732 0.29533 0.98429 0.0
C377 C 0.72632 0.28661 0.97206 0.0
C378 C 0.74673 0.31179 0.9472 0.0
C379 C 0.71478 0.34398 0.93463 0.0
H380 H 0.72361 0.58001 0.49016 0.0
H381 H 0.58606 0.66768 0.49267 0.0
H382 H 0.79421 0.65228 0.49171 0.0
H383 H 0.65682 0.73994 0.49461 0.0
H384 H 0.79866 0.86515 0.48595 0.0
H385 H 0.7366 0.79119 0.46985 0.0
H386 H 0.82114 0.71146 0.53174 0.0
H387 H 0.88255 0.78484 0.54747 0.0
C388 C 0.70837 0.61466 0.49066 0.0
C389 C 0.64913 0.61801 0.49168 0.0
C390 C 0.74889 0.6561 0.49162 0.0
C391 C 0.73119 0.70188 0.49355 0.0
C392 C 0.67195 0.70526 0.49287 0.0
C393 C 0.63136 0.66378 0.49198 0.0
C394 C 0.80473 0.83144 0.49541 0.0
C395 C 0.84515 0.83045 0.5179 0.0
C396 C 0.76901 0.78928 0.48645 0.0
C397 C 0.77376 0.74546 0.49961 0.0
C398 C 0.81669 0.74435 0.52088 0.0
C399 C 0.85175 0.78638 0.53 0.0
H400 H 0.79015 0.35519 0.52374 0.0
H401 H 0.63883 0.30129 0.47249 0.0
H402 H 0.82787 0.28063 0.51461 0.0
H403 H 0.67502 0.2247 0.4651 0.0
H404 H 0.79866 0.12825 0.4218 0.0
H405 H 0.74471 0.19221 0.43736 0.0
H406 H 0.82575 0.19929 0.52274 0.0
H407 H 0.8831 0.13736 0.5062 0.0
C408 C 0.76447 0.32746 0.51063 0.0
C409 C 0.71173 0.33527 0.49832 0.0
C410 C 0.78583 0.28389 0.50587 0.0
C411 C 0.75484 0.24619 0.489 0.0
C412 C 0.70079 0.25306 0.47778 0.0
C413 C 0.67963 0.29704 0.48227 0.0
C414 C 0.80491 0.14333 0.44396 0.0
C415 C 0.84644 0.12849 0.46246 0.0
C416 C 0.7732 0.17975 0.45309 0.0
C417 C 0.78137 0.20193 0.48121 0.0
C418 C 0.81937 0.18414 0.50062 0.0
C419 C 0.85172 0.148 0.49131 0.0
H420 H 0.35391 0.419 0.50484 0.0
H421 H 0.4807 0.33115 0.53114 0.0
H422 H 0.27754 0.35438 0.51456 0.0
H423 H 0.40301 0.26603 0.54171 0.0
H424 H 0.24242 0.14802 0.53848 0.0
H425 H 0.32124 0.20684 0.52072 0.0
H426 H 0.23853 0.32177 0.55991 0.0
H427 H 0.16016 0.26371 0.57679 0.0
C428 C 0.36556 0.38579 0.51275 0.0
C429 C 0.42342 0.38052 0.51772 0.0
C430 C 0.32161 0.34871 0.51836 0.0
C431 C 0.33407 0.30536 0.52938 0.0
C432 C 0.39208 0.29902 0.53315 0.0
C433 C 0.43649 0.33632 0.52729 0.0
C434 C 0.24095 0.18596 0.5428 0.0
C435 C 0.19535 0.20136 0.55908 0.0
C436 C 0.28624 0.21951 0.53295 0.0
C437 C 0.28615 0.26895 0.5389 0.0
C438 C 0.23971 0.28406 0.5546 0.0
C439 C 0.19494 0.25076 0.56449 0.0
H440 H 0.39581 0.6585 0.45435 0.0
H441 H 0.30423 0.65503 0.537 0.0
H442 H 0.34939 0.72683 0.44054 0.0
H443 H 0.25731 0.7225 0.52289 0.0
H444 H 0.13504 0.80214 0.46666 0.0
H445 H 0.1849 0.73891 0.48586 0.0
H446 H 0.34704 0.81257 0.45552 0.0
H447 H 0.29751 0.8757 0.43667 0.0
C448 C 0.36629 0.67242 0.46969 0.0
C449 C 0.35358 0.65076 0.49668 0.0
C450 C 0.33962 0.71159 0.46177 0.0
C451 C 0.29949 0.7299 0.48061 0.0
C452 C 0.28733 0.70874 0.50773 0.0
C453 C 0.31423 0.66986 0.51573 0.0
C454 C 0.18144 0.80528 0.46471 0.0
C455 C 0.21224 0.84349 0.44981 0.0
C456 C 0.20999 0.76904 0.47558 0.0
C457 C 0.26979 0.7704 0.47171 0.0
C458 C 0.30081 0.80995 0.45821 0.0
C459 C 0.27243 0.84614 0.44751 0.0
H460 H 0.9994 0.09366 0.094 0.0
H461 H 0.12383 0.99495 0.08035 0.0
H462 H 0.02401 0.10195 0.14578 0.0
H463 H 0.14887 1.00374 0.13253 0.0
H464 H 0.10632 0.13681 0.2331 0.0
H465 H 0.10384 0.13394 0.17947 0.0
H466 H 0.09731 0.97968 0.17882 0.0
H467 H 0.09935 0.9824 0.23221 0.0
C468 C 0.03228 0.0739 0.10202 0.0
C469 C 0.05942 0.04338 0.08314 0.0
C470 C 0.04681 0.0791 0.13165 0.0
C471 C 0.08865 0.05377 0.1431 0.0
C472 C 0.11634 0.02357 0.12423 0.0
C473 C 0.10201 0.01857 0.09443 0.0
C474 C 0.10496 0.1024 0.22146 0.0
C475 C 0.10245 0.05983 0.23685 0.0
C476 C 0.10364 0.10076 0.19082 0.0
C477 C 0.09982 0.05653 0.17506 0.0
C478 C 0.10084 0.01431 0.19039 0.0
C479 C 0.10204 0.01592 0.221 0.0
H480 H 0.03319 0.97954 0.90014 0.0
H481 H 0.90733 0.07575 0.91773 0.0
H482 H 1.00786 0.97555 0.84827 0.0
H483 H 0.88165 0.07125 0.86575 0.0
H484 H 0.91504 0.09643 0.76571 0.0
H485 H 0.92834 0.09814 0.81889 0.0
H486 H 0.9261 0.94421 0.81567 0.0
H487 H 0.91444 0.94265 0.7625 0.0
C488 C 0.99996 0.99967 0.89297 0.0
C489 C 0.97234 0.02802 0.91302 0.0
C490 C 0.98515 0.99708 0.86329 0.0
C491 C 0.94257 0.0229 0.85303 0.0
C492 C 0.91485 0.0512 0.87306 0.0
C493 C 0.92947 0.05363 0.9028 0.0
C494 C 0.91693 0.06296 0.77644 0.0
C495 C 0.91401 0.01946 0.75997 0.0
C496 C 0.9241 0.06388 0.80687 0.0
C497 C 0.92876 0.02134 0.82133 0.0
C498 C 0.92339 0.97761 0.80501 0.0
C499 C 0.91601 0.97666 0.77463 0.0
H500 H 0.52683 0.59633 0.58503 0.0
H501 H 0.60975 0.47153 0.6004 0.0
H502 H 0.54279 0.62351 0.63582 0.0
H503 H 0.62364 0.49782 0.652 0.0
H504 H 0.66728 0.57026 0.74046 0.0
H505 H 0.67119 0.5582 0.68707 0.0
H506 H 0.49903 0.59544 0.68045 0.0
H507 H 0.49557 0.60789 0.73325 0.0
C508 C 0.54819 0.57452 0.5994 0.0
C509 C 0.56605 0.53131 0.58907 0.0
C510 C 0.5574 0.59017 0.62846 0.0
C511 C 0.58375 0.56252 0.64795 0.0
C512 C 0.60365 0.52012 0.63737 0.0
C513 C 0.59521 0.50478 0.60801 0.0
C514 C 0.63084 0.57664 0.72739 0.0
C515 C 0.58112 0.58999 0.74087 0.0
C516 C 0.63295 0.56953 0.69696 0.0
C517 C 0.58533 0.57561 0.67964 0.0
C518 C 0.53684 0.59124 0.69311 0.0
C519 C 0.53484 0.59849 0.7234 0.0
H520 H 0.44251 0.51711 0.41674 0.0
H521 H 0.58659 0.43634 0.41075 0.0
H522 H 0.43622 0.51553 0.36355 0.0
H523 H 0.58031 0.43525 0.35713 0.0
H524 H 0.50894 0.41051 0.2614 0.0
H525 H 0.51326 0.40417 0.31477 0.0
H526 H 0.50184 0.55579 0.32575 0.0
H527 H 0.49625 0.56191 0.27269 0.0
C528 C 0.47263 0.49872 0.40408 0.0
C529 C 0.51551 0.47729 0.41789 0.0
C530 C 0.46912 0.49805 0.37363 0.0
C531 C 0.50832 0.47591 0.35638 0.0
C532 C 0.54957 0.45251 0.37007 0.0
C533 C 0.55322 0.45325 0.40067 0.0
C534 C 0.50718 0.44234 0.27532 0.0
C535 C 0.5021 0.48667 0.26307 0.0
C536 C 0.51009 0.43877 0.30572 0.0
C537 C 0.50743 0.47941 0.32422 0.0
C538 C 0.50318 0.5238 0.31191 0.0
C539 C 0.5006 0.52742 0.2816 0.0
loop_
_geom_bond_atom_site_label_1
_geom_bond_atom_site_label_2
_geom_bond_distance
_geom_bond_site_symmetry_2
_ccdc_geom_bond_type
Co0 N5 2.057 . S
Co0 O17 2.021 . S
Co0 O20 2.062 1_455 S
Co0 O24 2.117 1_554 S
Co0 O25 2.020 1_565 S
C1 O21 1.259 1_455 S
C1 O24 1.258 1_545 S
Co2 N11 2.057 . S
Co2 O18 2.117 . S
Co2 O19 2.020 1_545 S
Co2 O21 2.021 1_554 S
Co2 O26 2.062 1_655 S
C3 N5 1.316 . S
C3 N6 1.347 . S
C3 H8 0.931 . S
C4 N5 1.375 1_556 S
C4 C7 1.350 . S
C4 H9 0.930 . S
N5 Co0 2.057 . S
N5 C3 1.316 . S
N5 C4 1.375 1_554 S
N6 C3 1.347 . S
N6 C7 1.373 1_554 S
C7 C4 1.350 . S
C7 N6 1.373 1_556 S
C7 H28 0.931 . S
H8 C3 0.931 . S
H9 C4 0.930 . S
C10 O17 1.259 1_545 S
C10 O18 1.258 1_455 S
N11 Co2 2.057 . S
N11 C12 1.316 . S
N11 C13 1.375 . S
C12 N11 1.316 . S
C12 N14 1.347 . S
C12 H23 0.931 1_554 S
C13 N11 1.375 . S
C13 C15 1.350 . S
C13 H22 0.930 . S
N14 C12 1.347 . S
N14 C15 1.373 . S
C15 C13 1.350 . S
C15 N14 1.373 . S
C15 H29 0.931 . S
C16 O19 1.256 . S
C16 O20 1.255 . S
O17 Co0 2.021 . S
O17 C10 1.259 1_565 S
O18 Co2 2.117 . S
O18 C10 1.258 1_655 S
O19 Co2 2.020 1_565 S
O19 C16 1.256 . S
O20 Co0 2.062 1_655 S
O20 C16 1.255 . S
O21 C1 1.259 1_655 S
O21 Co2 2.021 1_556 S
H22 C13 0.930 . S
H23 C12 0.931 1_556 S
O24 Co0 2.117 1_556 S
O24 C1 1.258 1_565 S
O25 Co0 2.020 1_545 S
O25 C27 1.256 . S
O26 Co2 2.062 1_455 S
O26 C27 1.255 . S
C27 O25 1.256 . S
C27 O26 1.255 . S
H28 C7 0.931 . S
H29 C15 0.931 . S
Co30 N35 2.057 . S
Co30 O47 2.021 . S
Co30 O50 2.062 . S
Co30 O54 2.117 . S
Co30 O55 2.020 . S
C31 O51 1.259 . S
C31 O54 1.258 . S
Co32 N41 2.057 . S
Co32 O48 2.117 . S
Co32 O49 2.020 . S
Co32 O51 2.021 . S
Co32 O56 2.062 . S
C33 N35 1.316 . S
C33 N36 1.347 . S
C33 H38 0.931 . S
C34 N35 1.375 . S
C34 C37 1.350 . S
C34 H39 0.930 . S
N35 Co30 2.057 . S
N35 C33 1.316 . S
N35 C34 1.375 . S
N36 C33 1.347 . S
N36 C37 1.373 . S
C37 C34 1.350 . S
C37 N36 1.373 . S
C37 H58 0.931 . S
H38 C33 0.931 . S
H39 C34 0.930 . S
C40 O47 1.259 . S
C40 O48 1.258 . S
N41 Co32 2.057 . S
N41 C42 1.316 . S
N41 C43 1.375 . S
C42 N41 1.316 . S
C42 N44 1.347 . S
C42 H53 0.931 . S
C43 N41 1.375 . S
C43 C45 1.350 . S
C43 H52 0.930 . S
N44 C42 1.347 . S
N44 C45 1.373 . S
C45 C43 1.350 . S
C45 N44 1.373 . S
C45 H59 0.931 . S
C46 O49 1.256 . S
C46 O50 1.255 . S
O47 Co30 2.021 . S
O47 C40 1.259 . S
O48 Co32 2.117 . S
O48 C40 1.258 . S
O49 Co32 2.020 . S
O49 C46 1.256 . S
O50 Co30 2.062 . S
O50 C46 1.255 . S
O51 C31 1.259 . S
O51 Co32 2.021 . S
H52 C43 0.930 . S
H53 C42 0.931 . S
O54 Co30 2.117 . S
O54 C31 1.258 . S
O55 Co30 2.020 . S
O55 C57 1.256 . S
O56 Co32 2.062 . S
O56 C57 1.255 . S
C57 O55 1.256 . S
C57 O56 1.255 . S
H58 C37 0.931 . S
H59 C45 0.931 . S
C60 C61 1.391 . S
C60 C64 1.391 . S
C60 H102 0.948 . S
C61 C60 1.391 . S
C61 C62 1.391 . S
C62 C61 1.391 . S
C62 H118 0.947 . S
C62 C119 1.392 . S
C63 C64 1.391 . S
C63 C67 1.397 . S
C63 C119 1.419 . S
C64 C60 1.391 . S
C64 C63 1.391 . S
C64 C65 1.399 . S
C65 C64 1.399 . S
C65 C68 1.396 . S
C65 C77 1.453 1_565 S
C65 C78 1.684 1_455 S
H66 C90 0.948 . S
C67 C63 1.397 . S
C67 C68 1.394 . S
C67 C86 1.723 . S
C68 C65 1.396 . S
C68 C67 1.394 . S
C68 C98 1.723 1_465 S
H69 C92 0.947 . S
H70 C93 0.948 . S
H71 C99 0.982 . S
H72 C100 0.979 . S
H73 C100 0.980 . S
H74 C100 0.983 . S
H75 C99 0.979 . S
H76 C99 0.977 . S
C77 C65 1.453 1_545 S
C77 H106 0.982 . S
C77 H107 0.979 1_545 S
C77 H108 0.977 . S
C78 C65 1.684 1_655 S
C78 H103 0.979 . S
C78 H104 0.980 . S
C78 H105 0.983 . S
C79 C80 1.391 1_465 S
C79 C84 1.391 . S
C79 H109 0.948 . S
C80 C79 1.391 1_645 S
C80 C81 1.391 . S
C81 C80 1.391 . S
C81 C82 1.392 . S
C81 H110 0.947 . S
C82 C81 1.392 . S
C82 C83 1.419 . S
C82 H111 0.948 . S
C83 C82 1.419 . S
C83 C84 1.391 1_645 S
C83 C87 1.397 . S
C84 C79 1.391 . S
C84 C83 1.391 1_465 S
C84 C85 1.399 . S
C85 C84 1.399 . S
C85 C86 1.396 . S
C85 C88 1.453 . S
C85 C89 1.684 . S
C86 C67 1.723 . S
C86 C85 1.396 . S
C86 C87 1.394 1_465 S
C87 C83 1.397 . S
C87 C86 1.394 1_645 S
C87 C97 1.723 . S
C88 C85 1.453 . S
C88 H112 0.982 . S
C88 H113 0.979 . S
C88 H114 0.977 . S
C89 C85 1.684 . S
C89 H115 0.978 . S
C89 H116 0.980 . S
C89 H117 0.983 . S
C90 H66 0.948 . S
C90 C91 1.391 . S
C90 C95 1.391 . S
C91 C90 1.391 . S
C91 C92 1.391 . S
C92 H69 0.947 . S
C92 C91 1.391 . S
C92 C93 1.392 . S
C93 H70 0.948 . S
C93 C92 1.392 . S
C93 C94 1.419 . S
C94 C93 1.419 . S
C94 C95 1.391 . S
C94 C98 1.397 . S
C95 C90 1.391 . S
C95 C94 1.391 . S
C95 C96 1.399 . S
C96 C95 1.399 . S
C96 C97 1.396 . S
C96 C99 1.453 . S
C96 C100 1.684 . S
C97 C87 1.723 . S
C97 C96 1.396 . S
C97 C98 1.394 . S
C98 C68 1.723 1_645 S
C98 C94 1.397 . S
C98 C97 1.394 . S
C99 H71 0.982 . S
C99 H75 0.979 . S
C99 H76 0.977 . S
C99 C96 1.453 . S
C100 H72 0.979 . S
C100 H73 0.980 . S
C100 H74 0.983 . S
C100 C96 1.684 . S
H101 C119 0.948 . S
H102 C60 0.948 . S
H103 C78 0.979 . S
H104 C78 0.980 . S
H105 C78 0.983 . S
H106 C77 0.982 . S
H107 C77 0.979 1_565 S
H108 C77 0.977 . S
H109 C79 0.948 . S
H110 C81 0.947 . S
H111 C82 0.948 . S
H112 C88 0.982 . S
H113 C88 0.979 . S
H114 C88 0.977 . S
H115 C89 0.978 . S
H116 C89 0.980 . S
H117 C89 0.983 . S
H118 C62 0.947 . S
C119 C62 1.392 . S
C119 C63 1.419 . S
C119 H101 0.948 . S
C120 C121 1.391 . S
C120 C124 1.391 . S
C120 H162 0.948 . S
C121 C120 1.391 . S
C121 C122 1.391 . S
C122 C121 1.391 . S
C122 H178 0.947 . S
C122 C179 1.392 . S
C123 C124 1.391 . S
C123 C127 1.397 . S
C123 C179 1.419 . S
C124 C120 1.391 . S
C124 C123 1.391 . S
C124 C125 1.399 . S
C125 C124 1.399 . S
C125 C128 1.396 . S
C125 C137 1.453 . S
C125 C138 1.684 1_455 S
H126 C150 0.948 . S
C127 C123 1.397 . S
C127 C128 1.394 . S
C127 C146 1.723 . S
C128 C125 1.396 . S
C128 C127 1.394 . S
C128 C158 1.723 1_445 S
H129 C152 0.947 . S
H130 C153 0.948 . S
H131 C159 0.982 . S
H132 C160 0.979 . S
H133 C160 0.980 . S
H134 C160 0.983 . S
H135 C159 0.979 . S
H136 C159 0.977 . S
C137 C125 1.453 . S
C137 H166 0.982 . S
C137 H167 0.979 . S
C137 H168 0.977 1_545 S
C138 C125 1.684 1_655 S
C138 H163 0.979 . S
C138 H164 0.980 . S
C138 H165 0.983 1_655 S
C139 C140 1.391 1_455 S
C139 C144 1.391 . S
C139 H169 0.948 . S
C140 C139 1.391 1_655 S
C140 C141 1.391 1_545 S
C141 C140 1.391 1_565 S
C141 C142 1.392 . S
C141 H170 0.947 . S
C142 C141 1.392 . S
C142 C143 1.419 1_565 S
C142 H171 0.948 . S
C143 C142 1.419 1_545 S
C143 C144 1.391 1_655 S
C143 C147 1.397 . S
C144 C139 1.391 . S
C144 C143 1.391 1_455 S
C144 C145 1.399 . S
C145 C144 1.399 . S
C145 C146 1.396 . S
C145 C148 1.453 . S
C145 C149 1.684 . S
C146 C127 1.723 . S
C146 C145 1.396 . S
C146 C147 1.394 1_455 S
C147 C143 1.397 . S
C147 C146 1.394 1_655 S
C147 C157 1.723 1_545 S
C148 C145 1.453 . S
C148 H172 0.982 . S
C148 H173 0.979 . S
C148 H174 0.977 . S
C149 C145 1.684 . S
C149 H175 0.979 . S
C149 H176 0.980 . S
C149 H177 0.983 . S
C150 H126 0.948 . S
C150 C151 1.391 . S
C150 C155 1.391 . S
C151 C150 1.391 . S
C151 C152 1.391 . S
C152 H129 0.947 . S
C152 C151 1.391 . S
C152 C153 1.392 . S
C153 H130 0.948 . S
C153 C152 1.392 . S
C153 C154 1.419 . S
C154 C153 1.419 . S
C154 C155 1.391 . S
C154 C158 1.397 . S
C155 C150 1.391 . S
C155 C154 1.391 . S
C155 C156 1.399 . S
C156 C155 1.399 . S
C156 C157 1.396 . S
C156 C159 1.453 . S
C156 C160 1.684 . S
C157 C147 1.723 1_565 S
C157 C156 1.396 . S
C157 C158 1.394 . S
C158 C128 1.723 1_665 S
C158 C154 1.397 . S
C158 C157 1.394 . S
C159 H131 0.982 . S
C159 H135 0.979 . S
C159 H136 0.977 . S
C159 C156 1.453 . S
C160 H132 0.979 . S
C160 H133 0.980 . S
C160 H134 0.983 . S
C160 C156 1.684 . S
H161 C179 0.948 . S
H162 C120 0.948 . S
H163 C138 0.979 . S
H164 C138 0.980 . S
H165 C138 0.983 1_455 S
H166 C137 0.982 . S
H167 C137 0.979 . S
H168 C137 0.977 1_565 S
H169 C139 0.948 . S
H170 C141 0.947 . S
H171 C142 0.948 . S
H172 C148 0.982 . S
H173 C148 0.979 . S
H174 C148 0.977 . S
H175 C149 0.979 . S
H176 C149 0.980 . S
H177 C149 0.983 . S
H178 C122 0.947 . S
C179 C122 1.392 . S
C179 C123 1.419 . S
C179 H161 0.948 . S
C180 C181 1.391 . S
C180 C184 1.391 . S
C180 H222 0.948 1_556 S
C181 C180 1.391 . S
C181 C182 1.391 . S
C182 C181 1.391 . S
C182 H238 0.947 . S
C182 C239 1.392 . S
C183 C184 1.391 . S
C183 C187 1.397 . S
C183 C239 1.419 . S
C184 C180 1.391 . S
C184 C183 1.391 . S
C184 C185 1.399 . S
C185 C184 1.399 . S
C185 C188 1.396 . S
C185 C197 1.453 1_556 S
C185 C198 1.684 1_556 S
H186 C210 0.948 . S
C187 C183 1.397 . S
C187 C188 1.394 . S
C187 C206 1.723 . S
C188 C185 1.396 . S
C188 C187 1.394 . S
C188 C218 1.723 . S
H189 C212 0.947 . S
H190 C213 0.948 1_554 S
H191 C219 0.982 . S
H192 C220 0.979 . S
H193 C220 0.980 . S
H194 C220 0.983 . S
H195 C219 0.979 . S
H196 C219 0.977 . S
C197 C185 1.453 1_554 S
C197 H226 0.982 1_554 S
C197 H227 0.979 . S
C197 H228 0.977 . S
C198 C185 1.684 1_554 S
C198 H223 0.979 . S
C198 H224 0.980 . S
C198 H225 0.983 . S
C199 C200 1.391 . S
C199 C204 1.391 . S
C199 H229 0.948 . S
C200 C199 1.391 . S
C200 C201 1.391 . S
C201 C200 1.391 . S
C201 C202 1.392 . S
C201 H230 0.947 . S
C202 C201 1.392 . S
C202 C203 1.419 . S
C202 H231 0.948 . S
C203 C202 1.419 . S
C203 C204 1.391 . S
C203 C207 1.397 . S
C204 C199 1.391 . S
C204 C203 1.391 . S
C204 C205 1.399 . S
C205 C204 1.399 . S
C205 C206 1.396 . S
C205 C208 1.453 . S
C205 C209 1.684 . S
C206 C187 1.723 . S
C206 C205 1.396 . S
C206 C207 1.394 . S
C207 C203 1.397 . S
C207 C206 1.394 . S
C207 C217 1.723 . S
C208 C205 1.453 . S
C208 H232 0.982 . S
C208 H233 0.979 . S
C208 H234 0.977 . S
C209 C205 1.684 . S
C209 H235 0.979 . S
C209 H236 0.980 . S
C209 H237 0.983 . S
C210 H186 0.948 . S
C210 C211 1.391 . S
C210 C215 1.391 . S
C211 C210 1.391 . S
C211 C212 1.391 1_556 S
C212 H189 0.947 . S
C212 C211 1.391 1_554 S
C212 C213 1.392 1_554 S
C213 H190 0.948 1_556 S
C213 C212 1.392 1_556 S
C213 C214 1.419 . S
C214 C213 1.419 . S
C214 C215 1.391 . S
C214 C218 1.397 . S
C215 C210 1.391 . S
C215 C214 1.391 . S
C215 C216 1.399 . S
C216 C215 1.399 . S
C216 C217 1.396 . S
C216 C219 1.453 . S
C216 C220 1.684 . S
C217 C207 1.723 . S
C217 C216 1.396 . S
C217 C218 1.394 . S
C218 C188 1.723 . S
C218 C214 1.397 . S
C218 C217 1.394 . S
C219 H191 0.982 . S
C219 H195 0.979 . S
C219 H196 0.977 . S
C219 C216 1.453 . S
C220 H192 0.979 . S
C220 H193 0.980 . S
C220 H194 0.983 . S
C220 C216 1.684 . S
H221 C239 0.948 . S
H222 C180 0.948 1_554 S
H223 C198 0.979 . S
H224 C198 0.980 . S
H225 C198 0.983 . S
H226 C197 0.982 1_556 S
H227 C197 0.979 . S
H228 C197 0.977 . S
H229 C199 0.948 . S
H230 C201 0.947 . S
H231 C202 0.948 . S
H232 C208 0.982 . S
H233 C208 0.979 . S
H234 C208 0.977 . S
H235 C209 0.979 . S
H236 C209 0.980 . S
H237 C209 0.983 . S
H238 C182 0.947 . S
C239 C182 1.392 . S
C239 C183 1.419 . S
C239 H221 0.948 . S
C240 C241 1.391 . S
C240 C244 1.391 . S
C240 H282 0.948 . S
C241 C240 1.391 . S
C241 C242 1.391 . S
C242 C241 1.391 . S
C242 H298 0.947 . S
C242 C299 1.392 . S
C243 C244 1.391 . S
C243 C247 1.397 . S
C243 C299 1.419 . S
C244 C240 1.391 . S
C244 C243 1.391 . S
C244 C245 1.399 . S
C245 C244 1.399 . S
C245 C248 1.396 . S
C245 C257 1.453 . S
C245 C258 1.684 . S
H246 C270 0.948 . S
C247 C243 1.397 . S
C247 C248 1.394 . S
C247 C266 1.723 . S
C248 C245 1.396 . S
C248 C247 1.394 . S
C248 C278 1.723 . S
H249 C272 0.947 1_556 S
H250 C273 0.948 . S
H251 C279 0.982 . S
H252 C280 0.979 . S
H253 C280 0.980 . S
H254 C280 0.983 . S
H255 C279 0.979 . S
H256 C279 0.977 . S
C257 C245 1.453 . S
C257 H286 0.982 . S
C257 H287 1.003 . S
C257 H288 0.977 . S
C258 C245 1.684 . S
C258 H283 0.979 . S
C258 H284 0.980 . S
C258 H285 0.983 1_554 S
C259 C260 1.391 . S
C259 C264 1.391 . S
C259 H289 0.948 . S
C260 C259 1.391 . S
C260 C261 1.391 . S
C261 C260 1.391 . S
C261 C262 1.392 . S
C261 H290 0.947 . S
C262 C261 1.392 . S
C262 C263 1.419 . S
C262 H291 0.948 . S
C263 C262 1.419 . S
C263 C264 1.391 . S
C263 C267 1.397 . S
C264 C259 1.391 . S
C264 C263 1.391 . S
C264 C265 1.399 . S
C265 C264 1.399 . S
C265 C266 1.396 . S
C265 C268 1.453 . S
C265 C269 1.684 . S
C266 C247 1.723 . S
C266 C265 1.396 . S
C266 C267 1.394 . S
C267 C263 1.397 . S
C267 C266 1.394 . S
C267 C277 1.723 . S
C268 C265 1.453 . S
C268 H292 0.982 . S
C268 H293 0.979 . S
C268 H294 0.977 . S
C269 C265 1.684 . S
C269 H295 0.979 . S
C269 H296 0.980 . S
C269 H297 0.983 . S
C270 H246 0.948 . S
C270 C271 1.391 . S
C270 C275 1.391 . S
C271 C270 1.391 . S
C271 C272 1.391 . S
C272 H249 0.947 1_554 S
C272 C271 1.391 . S
C272 C273 1.392 . S
C273 H250 0.948 . S
C273 C272 1.392 . S
C273 C274 1.419 . S
C274 C273 1.419 . S
C274 C275 1.391 . S
C274 C278 1.397 . S
C275 C270 1.391 . S
C275 C274 1.391 . S
C275 C276 1.399 . S
C276 C275 1.399 . S
C276 C277 1.396 . S
C276 C279 1.453 . S
C276 C280 1.684 . S
C277 C267 1.723 . S
C277 C276 1.396 . S
C277 C278 1.394 . S
C278 C248 1.723 . S
C278 C274 1.397 . S
C278 C277 1.394 . S
C279 H251 0.982 . S
C279 H255 0.979 . S
C279 H256 0.977 . S
C279 C276 1.453 . S
C280 H252 0.979 . S
C280 H253 0.980 . S
C280 H254 0.983 . S
C280 C276 1.684 . S
H281 C299 0.948 . S
H282 C240 0.948 . S
H283 C258 0.979 . S
H284 C258 0.980 . S
H285 C258 0.983 1_556 S
H286 C257 0.982 . S
H287 C257 1.003 . S
H288 C257 0.977 . S
H289 C259 0.948 . S
H290 C261 0.947 . S
H291 C262 0.948 . S
H292 C268 0.982 . S
H293 C268 0.979 . S
H294 C268 0.977 . S
H295 C269 0.979 . S
H296 C269 0.980 . S
H297 C269 0.983 . S
H298 C242 0.947 . S
C299 C242 1.392 . S
C299 C243 1.419 . S
C299 H281 0.948 . S
H300 C308 0.950 . S
H301 C313 0.950 . S
H302 C310 0.950 . S
H303 C312 0.950 . S
H304 C314 0.950 . S
H305 C316 0.950 . S
H306 C318 0.950 . S
H307 C319 0.950 . S
C308 H300 0.950 . S
C308 C309 1.386 . S
C308 C310 1.391 . S
C309 C308 1.386 . S
C309 C313 1.393 . S
C310 H302 0.950 . S
C310 C308 1.391 . S
C310 C311 1.400 . S
C311 C310 1.400 . S
C311 C312 1.398 . S
C311 C317 1.491 . S
C312 H303 0.950 . S
C312 C311 1.398 . S
C312 C313 1.391 . S
C313 H301 0.950 . S
C313 C309 1.393 . S
C313 C312 1.391 . S
C314 H304 0.950 . S
C314 C315 1.386 . S
C314 C316 1.391 . S
C315 C314 1.386 . S
C315 C319 1.393 . S
C316 H305 0.950 . S
C316 C314 1.391 . S
C316 C317 1.400 . S
C317 C311 1.491 . S
C317 C316 1.400 . S
C317 C318 1.398 . S
C318 H306 0.950 . S
C318 C317 1.398 . S
C318 C319 1.391 . S
C319 H307 0.950 . S
C319 C315 1.393 . S
C319 C318 1.391 . S
H320 C328 0.950 . S
H321 C333 0.950 . S
H322 C330 0.949 . S
H323 C332 0.950 . S
H324 C334 0.950 . S
H325 C336 0.950 . S
H326 C338 0.950 . S
H327 C339 0.950 . S
C328 H320 0.950 . S
C328 C329 1.386 . S
C328 C330 1.391 . S
C329 C328 1.386 . S
C329 C333 1.393 . S
C330 H322 0.949 . S
C330 C328 1.391 . S
C330 C331 1.400 . S
C331 C330 1.400 . S
C331 C332 1.398 . S
C331 C337 1.491 . S
C332 H323 0.950 . S
C332 C331 1.398 . S
C332 C333 1.391 . S
C333 H321 0.950 . S
C333 C329 1.393 . S
C333 C332 1.391 . S
C334 H324 0.950 . S
C334 C335 1.386 1_554 S
C334 C336 1.391 . S
C335 C334 1.386 1_556 S
C335 C339 1.393 . S
C336 H325 0.950 . S
C336 C334 1.391 . S
C336 C337 1.400 . S
C337 C331 1.491 . S
C337 C336 1.400 . S
C337 C338 1.398 1_554 S
C338 H326 0.950 . S
C338 C337 1.398 1_556 S
C338 C339 1.391 . S
C339 H327 0.950 . S
C339 C335 1.393 . S
C339 C338 1.391 . S
H340 C348 0.950 . S
H341 C353 0.950 . S
H342 C350 0.950 . S
H343 C352 0.950 . S
H344 C354 0.950 1_556 S
H345 C356 0.950 1_556 S
H346 C358 0.950 . S
H347 C359 0.950 . S
C348 H340 0.950 . S
C348 C349 1.386 . S
C348 C350 1.391 . S
C349 C348 1.386 . S
C349 C353 1.393 1_554 S
C350 H342 0.950 . S
C350 C348 1.391 . S
C350 C351 1.400 . S
C351 C350 1.400 . S
C351 C352 1.398 1_554 S
C351 C357 1.491 . S
C352 H343 0.950 . S
C352 C351 1.398 1_556 S
C352 C353 1.391 . S
C353 H341 0.950 . S
C353 C349 1.393 1_556 S
C353 C352 1.391 . S
C354 H344 0.950 1_554 S
C354 C355 1.386 . S
C354 C356 1.391 . S
C355 C354 1.386 . S
C355 C359 1.393 . S
C356 H345 0.950 1_554 S
C356 C354 1.391 . S
C356 C357 1.400 . S
C357 C351 1.491 . S
C357 C356 1.400 . S
C357 C358 1.398 . S
C358 H346 0.950 . S
C358 C357 1.398 . S
C358 C359 1.391 . S
C359 H347 0.950 . S
C359 C355 1.393 . S
C359 C358 1.391 . S
H360 C368 0.950 . S
H361 C373 0.950 . S
H362 C370 0.950 . S
H363 C372 0.950 . S
H364 C374 0.950 . S
H365 C376 0.950 . S
H366 C378 0.950 . S
H367 C379 0.950 . S
C368 H360 0.950 . S
C368 C369 1.386 . S
C368 C370 1.391 . S
C369 C368 1.386 . S
C369 C373 1.393 . S
C370 H362 0.950 . S
C370 C368 1.391 . S
C370 C371 1.400 . S
C371 C370 1.400 . S
C371 C372 1.398 . S
C371 C377 1.491 . S
C372 H363 0.950 . S
C372 C371 1.398 . S
C372 C373 1.391 . S
C373 H361 0.950 . S
C373 C369 1.393 . S
C373 C372 1.391 . S
C374 H364 0.950 . S
C374 C375 1.386 . S
C374 C376 1.388 1_556 S
C375 C374 1.386 . S
C375 C379 1.393 1_556 S
C376 H365 0.950 . S
C376 C374 1.388 1_554 S
C376 C377 1.403 . S
C377 C371 1.491 . S
C377 C376 1.403 . S
C377 C378 1.398 . S
C378 H366 0.950 . S
C378 C377 1.398 . S
C378 C379 1.391 . S
C379 H367 0.950 . S
C379 C375 1.393 1_554 S
C379 C378 1.391 . S
H380 C388 0.950 . S
H381 C393 0.950 . S
H382 C390 0.950 . S
H383 C392 0.950 . S
H384 C394 0.950 . S
H385 C396 0.950 . S
H386 C398 0.950 . S
H387 C399 0.950 . S
C388 H380 0.950 . S
C388 C389 1.386 . S
C388 C390 1.391 . S
C389 C388 1.386 . S
C389 C393 1.393 . S
C390 H382 0.950 . S
C390 C388 1.391 . S
C390 C391 1.400 . S
C391 C390 1.400 . S
C391 C392 1.398 . S
C391 C397 1.491 . S
C392 H383 0.950 . S
C392 C391 1.398 . S
C392 C393 1.391 . S
C393 H381 0.950 . S
C393 C389 1.393 . S
C393 C392 1.391 . S
C394 H384 0.950 . S
C394 C395 1.386 . S
C394 C396 1.391 . S
C395 C394 1.386 . S
C395 C399 1.393 . S
C396 H385 0.950 . S
C396 C394 1.391 . S
C396 C397 1.400 . S
C397 C391 1.491 . S
C397 C396 1.400 . S
C397 C398 1.398 . S
C398 H386 0.950 . S
C398 C397 1.398 . S
C398 C399 1.391 . S
C399 H387 0.950 . S
C399 C395 1.393 . S
C399 C398 1.391 . S
H400 C408 0.950 . S
H401 C413 0.950 . S
H402 C410 0.950 . S
H403 C412 0.950 . S
H404 C414 0.950 . S
H405 C416 0.950 . S
H406 C418 0.950 . S
H407 C419 0.950 . S
C408 H400 0.950 . S
C408 C409 1.386 . S
C408 C410 1.391 . S
C409 C408 1.386 . S
C409 C413 1.393 . S
C410 H402 0.950 . S
C410 C408 1.391 . S
C410 C411 1.400 . S
C411 C410 1.400 . S
C411 C412 1.398 . S
C411 C417 1.491 . S
C412 H403 0.950 . S
C412 C411 1.398 . S
C412 C413 1.391 . S
C413 H401 0.950 . S
C413 C409 1.393 . S
C413 C412 1.391 . S
C414 H404 0.950 . S
C414 C415 1.386 . S
C414 C416 1.391 . S
C415 C414 1.386 . S
C415 C419 1.393 . S
C416 H405 0.950 . S
C416 C414 1.391 . S
C416 C417 1.400 . S
C417 C411 1.491 . S
C417 C416 1.400 . S
C417 C418 1.398 . S
C418 H406 0.950 . S
C418 C417 1.398 . S
C418 C419 1.391 . S
C419 H407 0.950 . S
C419 C415 1.393 . S
C419 C418 1.391 . S
H420 C428 0.950 . S
H421 C433 0.950 . S
H422 C430 0.950 . S
H423 C432 0.950 . S
H424 C434 0.950 . S
H425 C436 0.950 . S
H426 C438 0.950 . S
H427 C439 0.950 . S
C428 H420 0.950 . S
C428 C429 1.386 . S
C428 C430 1.391 . S
C429 C428 1.386 . S
C429 C433 1.393 . S
C430 H422 0.950 . S
C430 C428 1.391 . S
C430 C431 1.400 . S
C431 C430 1.400 . S
C431 C432 1.398 . S
C431 C437 1.491 . S
C432 H423 0.950 . S
C432 C431 1.398 . S
C432 C433 1.391 . S
C433 H421 0.950 . S
C433 C429 1.393 . S
C433 C432 1.391 . S
C434 H424 0.950 . S
C434 C435 1.386 . S
C434 C436 1.391 . S
C435 C434 1.386 . S
C435 C439 1.393 . S
C436 H425 0.950 . S
C436 C434 1.391 . S
C436 C437 1.400 . S
C437 C431 1.491 . S
C437 C436 1.400 . S
C437 C438 1.398 . S
C438 H426 0.950 . S
C438 C437 1.398 . S
C438 C439 1.391 . S
C439 H427 0.950 . S
C439 C435 1.393 . S
C439 C438 1.391 . S
H440 C448 0.950 . S
H441 C453 0.950 . S
H442 C450 0.950 . S
H443 C452 0.950 . S
H444 C454 0.950 . S
H445 C456 0.950 . S
H446 C458 0.950 . S
H447 C459 0.950 . S
C448 H440 0.950 . S
C448 C449 1.386 . S
C448 C450 1.391 . S
C449 C448 1.386 . S
C449 C453 1.393 . S
C450 H442 0.950 . S
C450 C448 1.391 . S
C450 C451 1.400 . S
C451 C450 1.400 . S
C451 C452 1.398 . S
C451 C457 1.491 . S
C452 H443 0.950 . S
C452 C451 1.398 . S
C452 C453 1.391 . S
C453 H441 0.950 . S
C453 C449 1.393 . S
C453 C452 1.391 . S
C454 H444 0.950 . S
C454 C455 1.386 . S
C454 C456 1.391 . S
C455 C454 1.386 . S
C455 C459 1.393 . S
C456 H445 0.950 . S
C456 C454 1.391 . S
C456 C457 1.400 . S
C457 C451 1.491 . S
C457 C456 1.400 . S
C457 C458 1.398 . S
C458 H446 0.950 . S
C458 C457 1.398 . S
C458 C459 1.391 . S
C459 H447 0.950 . S
C459 C455 1.393 . S
C459 C458 1.391 . S
H460 C468 0.950 . S
H461 C473 0.950 . S
H462 C470 0.950 . S
H463 C472 0.950 . S
H464 C474 0.950 . S
H465 C476 0.950 . S
H466 C478 0.950 . S
H467 C479 0.950 . S
C468 H460 0.950 . S
C468 C469 1.386 1_665 S
C468 C470 1.391 . S
C469 C468 1.386 1_445 S
C469 C473 1.393 . S
C470 H462 0.950 . S
C470 C468 1.391 . S
C470 C471 1.400 1_665 S
C471 C470 1.400 1_445 S
C471 C472 1.398 . S
C471 C477 1.491 . S
C472 H463 0.950 . S
C472 C471 1.398 . S
C472 C473 1.391 . S
C473 H461 0.950 . S
C473 C469 1.393 . S
C473 C472 1.391 . S
C474 H464 0.950 . S
C474 C475 1.386 . S
C474 C476 1.391 . S
C475 C474 1.386 . S
C475 C479 1.393 1_445 S
C476 H465 0.950 . S
C476 C474 1.391 . S
C476 C477 1.400 . S
C477 C471 1.491 . S
C477 C476 1.400 . S
C477 C478 1.398 1_445 S
C478 H466 0.950 . S
C478 C477 1.398 1_665 S
C478 C479 1.391 . S
C479 H467 0.950 . S
C479 C475 1.393 1_665 S
C479 C478 1.391 . S
H480 C488 0.950 . S
H481 C493 0.950 . S
H482 C490 0.950 . S
H483 C492 0.950 . S
H484 C494 0.950 . S
H485 C496 0.950 . S
H486 C498 0.950 . S
H487 C499 0.950 . S
C488 H480 0.950 . S
C488 C489 1.386 1_565 S
C488 C490 1.391 . S
C489 C488 1.386 1_545 S
C489 C493 1.393 1_455 S
C490 H482 0.950 . S
C490 C488 1.391 . S
C490 C491 1.400 1_565 S
C491 C490 1.400 1_545 S
C491 C492 1.398 1_455 S
C491 C497 1.491 . S
C492 H483 0.950 . S
C492 C491 1.398 1_655 S
C492 C493 1.391 . S
C493 H481 0.950 . S
C493 C489 1.393 1_655 S
C493 C492 1.391 . S
C494 H484 0.950 . S
C494 C495 1.386 1_655 S
C494 C496 1.391 . S
C495 C494 1.386 1_455 S
C495 C499 1.393 1_545 S
C496 H485 0.950 . S
C496 C494 1.391 . S
C496 C497 1.400 1_655 S
C497 C491 1.491 . S
C497 C496 1.400 1_455 S
C497 C498 1.398 1_545 S
C498 H486 0.950 . S
C498 C497 1.398 1_565 S
C498 C499 1.391 . S
C499 H487 0.950 . S
C499 C495 1.393 1_565 S
C499 C498 1.391 . S
H500 C508 0.950 . S
H501 C513 0.950 . S
H502 C510 0.950 . S
H503 C512 0.950 . S
H504 C514 0.950 . S
H505 C516 0.950 . S
H506 C518 0.950 . S
H507 C519 0.950 . S
C508 H500 0.950 . S
C508 C509 1.386 . S
C508 C510 1.391 . S
C509 C508 1.386 . S
C509 C513 1.393 . S
C510 H502 0.950 . S
C510 C508 1.391 . S
C510 C511 1.400 . S
C511 C510 1.400 . S
C511 C512 1.398 . S
C511 C517 1.491 . S
C512 H503 0.950 . S
C512 C511 1.398 . S
C512 C513 1.391 . S
C513 H501 0.950 . S
C513 C509 1.393 . S
C513 C512 1.391 . S
C514 H504 0.950 . S
C514 C515 1.386 . S
C514 C516 1.391 . S
C515 C514 1.386 . S
C515 C519 1.393 . S
C516 H505 0.950 . S
C516 C514 1.391 . S
C516 C517 1.400 . S
C517 C511 1.491 . S
C517 C516 1.400 . S
C517 C518 1.398 . S
C518 H506 0.950 . S
C518 C517 1.398 . S
C518 C519 1.391 . S
C519 H507 0.950 . S
C519 C515 1.393 . S
C519 C518 1.391 . S
H520 C528 0.950 . S
H521 C533 0.950 . S
H522 C530 0.950 . S
H523 C532 0.950 . S
H524 C534 0.950 . S
H525 C536 0.950 . S
H526 C538 0.950 . S
H527 C539 0.950 . S
C528 H520 0.950 . S
C528 C529 1.386 . S
C528 C530 1.391 . S
C529 C528 1.386 . S
C529 C533 1.393 . S
C530 H522 0.950 . S
C530 C528 1.391 . S
C530 C531 1.400 . S
C531 C530 1.400 . S
C531 C532 1.398 . S
C531 C537 1.491 . S
C532 H523 0.950 . S
C532 C531 1.398 . S
C532 C533 1.391 . S
C533 H521 0.950 . S
C533 C529 1.393 . S
C533 C532 1.391 . S
C534 H524 0.950 . S
C534 C535 1.386 . S
C534 C536 1.391 . S
C535 C534 1.386 . S
C535 C539 1.393 . S
C536 H525 0.950 . S
C536 C534 1.391 . S
C536 C537 1.400 . S
C537 C531 1.491 . S
C537 C536 1.400 . S
C537 C538 1.398 . S
C538 H526 0.950 . S
C538 C537 1.398 . S
C538 C539 1.391 . S
C539 H527 0.950 . S
C539 C535 1.393 . S
C539 C538 1.391 . S
C315 C271 1.481 . S
C309 C27 1.487 . S
C329 N6 1.401 . S
C335 C211 1.426 . S
C349 C16 1.466 . S
C355 C241 1.356 . S
C369 N14 1.404 . S
C375 C181 1.346 . S
C389 C57 1.487 . S
C395 C151 1.481 . S
C409 N36 1.401 . S
C415 C91 1.432 . S
C435 C121 1.351 . S
C429 C46 1.467 . S
C455 C61 1.333 . S
C449 N44 1.390 . S
C469 C10 1.384 . S
C475 C80 1.359 1_455 S
C489 C1 1.527 . S
C495 C140 1.516 1_455 S
C515 C200 1.365 . S
C509 C40 1.386 . S
C529 C31 1.527 . S
C535 C260 1.506 . S
