# Generated by pormake.
# Topology ssc, (4,4)-cn, num edge types: 1
# Building blocks:
#     Node 0, Type 0, BuildingBlock: GALJAG_clean_sbu_0, # of connection points: 4
#     Node 1, Type 0, BuildingBlock: GALJAG_clean_sbu_0, # of connection points: 4
#     Node 2, Type 0, BuildingBlock: GALJAG_clean_sbu_0, # of connection points: 4
#     Node 3, Type 0, BuildingBlock: GALJAG_clean_sbu_0, # of connection points: 4
#     Node 4, Type 0, BuildingBlock: GALJAG_clean_sbu_0, # of connection points: 4
#     Node 5, Type 0, BuildingBlock: GALJAG_clean_sbu_0, # of connection points: 4
#     Node 6, Type 0, BuildingBlock: GALJAG_clean_sbu_0, # of connection points: 4
#     Node 7, Type 0, BuildingBlock: GALJAG_clean_sbu_0, # of connection points: 4
#     Node 8, Type 0, BuildingBlock: GALJAG_clean_sbu_0, # of connection points: 4
#     Node 9, Type 0, BuildingBlock: GALJAG_clean_sbu_0, # of connection points: 4
#     Node 10, Type 0, BuildingBlock: GALJAG_clean_sbu_0, # of connection points: 4
#     Node 11, Type 0, BuildingBlock: GALJAG_clean_sbu_0, # of connection points: 4
#     Node 12, Type 1, BuildingBlock: GIZVER_clean_linker_0, # of connection points: 4
#     Node 13, Type 1, BuildingBlock: GIZVER_clean_linker_0, # of connection points: 4
#     Node 14, Type 1, BuildingBlock: GIZVER_clean_linker_0, # of connection points: 4
#     Node 15, Type 1, BuildingBlock: GIZVER_clean_linker_0, # of connection points: 4
#     Node 16, Type 1, BuildingBlock: GIZVER_clean_linker_0, # of connection points: 4
#     Node 17, Type 1, BuildingBlock: GIZVER_clean_linker_0, # of connection points: 4
#     Node 18, Type 1, BuildingBlock: GIZVER_clean_linker_0, # of connection points: 4
#     Node 19, Type 1, BuildingBlock: GIZVER_clean_linker_0, # of connection points: 4
#     Node 20, Type 1, BuildingBlock: GIZVER_clean_linker_0, # of connection points: 4
#     Node 21, Type 1, BuildingBlock: GIZVER_clean_linker_0, # of connection points: 4
#     Node 22, Type 1, BuildingBlock: GIZVER_clean_linker_0, # of connection points: 4
#     Node 23, Type 1, BuildingBlock: GIZVER_clean_linker_0, # of connection points: 4
#     Edge 24, Type (0, 1), BuildingBlock: UVAHIK_clean_linker_0, # of connection points: 2
#     Edge 25, Type (0, 1), BuildingBlock: UVAHIK_clean_linker_0, # of connection points: 2
#     Edge 26, Type (0, 1), BuildingBlock: UVAHIK_clean_linker_0, # of connection points: 2
#     Edge 27, Type (0, 1), BuildingBlock: UVAHIK_clean_linker_0, # of connection points: 2
#     Edge 28, Type (0, 1), BuildingBlock: UVAHIK_clean_linker_0, # of connection points: 2
#     Edge 29, Type (0, 1), BuildingBlock: UVAHIK_clean_linker_0, # of connection points: 2
#     Edge 30, Type (0, 1), BuildingBlock: UVAHIK_clean_linker_0, # of connection points: 2
#     Edge 31, Type (0, 1), BuildingBlock: UVAHIK_clean_linker_0, # of connection points: 2
#     Edge 32, Type (0, 1), BuildingBlock: UVAHIK_clean_linker_0, # of connection points: 2
#     Edge 33, Type (0, 1), BuildingBlock: UVAHIK_clean_linker_0, # of connection points: 2
#     Edge 34, Type (0, 1), BuildingBlock: UVAHIK_clean_linker_0, # of connection points: 2
#     Edge 35, Type (0, 1), BuildingBlock: UVAHIK_clean_linker_0, # of connection points: 2
#     Edge 36, Type (0, 1), BuildingBlock: UVAHIK_clean_linker_0, # of connection points: 2
#     Edge 37, Type (0, 1), BuildingBlock: UVAHIK_clean_linker_0, # of connection points: 2
#     Edge 38, Type (0, 1), BuildingBlock: UVAHIK_clean_linker_0, # of connection points: 2
#     Edge 39, Type (0, 1), BuildingBlock: UVAHIK_clean_linker_0, # of connection points: 2
#     Edge 40, Type (0, 1), BuildingBlock: UVAHIK_clean_linker_0, # of connection points: 2
#     Edge 41, Type (0, 1), BuildingBlock: UVAHIK_clean_linker_0, # of connection points: 2
#     Edge 42, Type (0, 1), BuildingBlock: UVAHIK_clean_linker_0, # of connection points: 2
#     Edge 43, Type (0, 1), BuildingBlock: UVAHIK_clean_linker_0, # of connection points: 2
#     Edge 44, Type (0, 1), BuildingBlock: UVAHIK_clean_linker_0, # of connection points: 2
#     Edge 45, Type (0, 1), BuildingBlock: UVAHIK_clean_linker_0, # of connection points: 2
#     Edge 46, Type (0, 1), BuildingBlock: UVAHIK_clean_linker_0, # of connection points: 2
#     Edge 47, Type (0, 1), BuildingBlock: UVAHIK_clean_linker_0, # of connection points: 2
#     Edge 48, Type (0, 1), BuildingBlock: UVAHIK_clean_linker_0, # of connection points: 2
#     Edge 49, Type (0, 1), BuildingBlock: UVAHIK_clean_linker_0, # of connection points: 2
#     Edge 50, Type (0, 1), BuildingBlock: UVAHIK_clean_linker_0, # of connection points: 2
#     Edge 51, Type (0, 1), BuildingBlock: UVAHIK_clean_linker_0, # of connection points: 2
#     Edge 52, Type (0, 1), BuildingBlock: UVAHIK_clean_linker_0, # of connection points: 2
#     Edge 53, Type (0, 1), BuildingBlock: UVAHIK_clean_linker_0, # of connection points: 2
#     Edge 54, Type (0, 1), BuildingBlock: UVAHIK_clean_linker_0, # of connection points: 2
#     Edge 55, Type (0, 1), BuildingBlock: UVAHIK_clean_linker_0, # of connection points: 2
#     Edge 56, Type (0, 1), BuildingBlock: UVAHIK_clean_linker_0, # of connection points: 2
#     Edge 57, Type (0, 1), BuildingBlock: UVAHIK_clean_linker_0, # of connection points: 2
#     Edge 58, Type (0, 1), BuildingBlock: UVAHIK_clean_linker_0, # of connection points: 2
#     Edge 59, Type (0, 1), BuildingBlock: UVAHIK_clean_linker_0, # of connection points: 2
#     Edge 60, Type (0, 1), BuildingBlock: UVAHIK_clean_linker_0, # of connection points: 2
#     Edge 61, Type (0, 1), BuildingBlock: UVAHIK_clean_linker_0, # of connection points: 2
#     Edge 62, Type (0, 1), BuildingBlock: UVAHIK_clean_linker_0, # of connection points: 2
#     Edge 63, Type (0, 1), BuildingBlock: UVAHIK_clean_linker_0, # of connection points: 2
#     Edge 64, Type (0, 1), BuildingBlock: UVAHIK_clean_linker_0, # of connection points: 2
#     Edge 65, Type (0, 1), BuildingBlock: UVAHIK_clean_linker_0, # of connection points: 2
#     Edge 66, Type (0, 1), BuildingBlock: UVAHIK_clean_linker_0, # of connection points: 2
#     Edge 67, Type (0, 1), BuildingBlock: UVAHIK_clean_linker_0, # of connection points: 2
#     Edge 68, Type (0, 1), BuildingBlock: UVAHIK_clean_linker_0, # of connection points: 2
#     Edge 69, Type (0, 1), BuildingBlock: UVAHIK_clean_linker_0, # of connection points: 2
#     Edge 70, Type (0, 1), BuildingBlock: UVAHIK_clean_linker_0, # of connection points: 2
#     Edge 71, Type (0, 1), BuildingBlock: UVAHIK_clean_linker_0, # of connection points: 2
# Relax obj value: 0.069
# Max RMSD: 0.289
# Mean RMSD: 0.243
data_MOF--net-ssc--node1-GALJAG_clean_sbu_0--node2-GIZVER_clean_linker_0--edge1-UVAHIK_clean_linker_0
_symmetry_space_group_name_H-M    P1
_symmetry_Int_Tables_number       1
_symmetry_cell_setting            triclinic
loop_
_symmetry_equiv_pos_as_xyz
'x, y, z'
_cell_length_a     40.387536
_cell_length_b     40.434821
_cell_length_c     40.395497
_cell_angle_alpha  90.115249
_cell_angle_beta   90.108096
_cell_angle_gamma 90.457639
loop_
_atom_site_label
_atom_site_type_symbol
_atom_site_fract_x
_atom_site_fract_y
_atom_site_fract_z
_atom_type_partial_charge
In0 In 0.01337 0.25223 0.14527 0.0
O1 O 0.06443 0.23541 0.16366 0.0
O2 O 0.04143 0.27558 0.1882 0.0
C3 C 0.01787 0.19755 0.10682 0.0
C4 C 0.95642 0.24897 0.18066 0.0
C5 C 0.01443 0.30613 0.10578 0.0
O6 O 0.03329 0.22399 0.10033 0.0
O7 O 0.00042 0.19873 0.13262 0.0
O8 O 0.99576 0.28155 0.10015 0.0
O9 O 0.0321 0.30359 0.1314 0.0
C10 C 0.06632 0.25706 0.1861 0.0
O11 O 0.96017 0.26876 0.15686 0.0
O12 O 0.98135 0.23145 0.18674 0.0
In13 In 0.03886 0.75056 0.3887 0.0
O14 O 0.99977 0.72189 0.41872 0.0
O15 O 0.04763 0.70136 0.4142 0.0
C16 C 0.99648 0.75228 0.33666 0.0
C17 C 0.04625 0.79879 0.43483 0.0
C18 C 0.09632 0.75053 0.35483 0.0
O19 O 0.9983 0.77521 0.35782 0.0
O20 O 0.01579 0.72851 0.34186 0.0
O21 O 0.07783 0.77557 0.35592 0.0
O22 O 0.08601 0.72602 0.37119 0.0
C23 C 0.01884 0.69839 0.42574 0.0
O24 O 0.06766 0.77675 0.43029 0.0
O25 O 0.02142 0.79667 0.41597 0.0
In26 In 0.52196 0.71969 0.61893 0.0
O27 O 0.54006 0.6979 0.5697 0.0
O28 O 0.52319 0.66471 0.6066 0.0
C29 C 0.57309 0.73015 0.66107 0.0
C30 C 0.51475 0.77724 0.58568 0.0
C31 C 0.46476 0.70426 0.6508 0.0
O32 O 0.57664 0.71482 0.63406 0.0
O33 O 0.54402 0.73988 0.66659 0.0
O34 O 0.46588 0.72533 0.62787 0.0
O35 O 0.49229 0.69164 0.65779 0.0
C36 C 0.53423 0.66829 0.57769 0.0
O37 O 0.5011 0.75057 0.57641 0.0
O38 O 0.53176 0.77489 0.61178 0.0
In39 In 0.47356 0.26863 0.88759 0.0
O40 O 0.52079 0.24612 0.86544 0.0
O41 O 0.50008 0.2878 0.84174 0.0
C42 C 0.49046 0.32067 0.92652 0.0
C43 C 0.41885 0.26703 0.84926 0.0
C44 C 0.4583 0.22121 0.93216 0.0
O45 O 0.46895 0.32237 0.90399 0.0
O46 O 0.50407 0.29283 0.92911 0.0
O47 O 0.44331 0.24845 0.93083 0.0
O48 O 0.48075 0.21773 0.91075 0.0
C49 C 0.52237 0.26624 0.84167 0.0
O50 O 0.43753 0.24237 0.85238 0.0
O51 O 0.42727 0.29196 0.86617 0.0
In52 In 0.13396 0.04915 0.20877 0.0
O53 O 0.14653 0.99612 0.22337 0.0
O54 O 0.18534 0.03173 0.22457 0.0
C55 C 0.07851 0.04681 0.24616 0.0
C56 C 0.16547 0.10828 0.21302 0.0
C57 C 0.11464 0.03411 0.14643 0.0
O58 O 0.10707 0.04452 0.25851 0.0
O59 O 0.07803 0.05145 0.21536 0.0
O60 O 0.11062 0.06249 0.15884 0.0
O61 O 0.12972 0.01409 0.16488 0.0
C62 C 0.17664 0.0021 0.22922 0.0
O63 O 0.16845 0.08919 0.18845 0.0
O64 O 0.14573 0.09801 0.23496 0.0
In65 In 0.21281 0.87415 0.57702 0.0
O66 O 0.18714 0.8418 0.53753 0.0
O67 O 0.23897 0.83666 0.54485 0.0
C68 C 0.16154 0.91542 0.5871 0.0
C69 C 0.21711 0.83186 0.62864 0.0
C70 C 0.25917 0.92013 0.56066 0.0
O71 O 0.16487 0.89924 0.56055 0.0
O72 O 0.18366 0.91025 0.60853 0.0
O73 O 0.25533 0.9102 0.59003 0.0
O74 O 0.23995 0.90675 0.53988 0.0
C75 C 0.21343 0.82715 0.5294 0.0
O76 O 0.24219 0.84641 0.61683 0.0
O77 O 0.19006 0.8395 0.61513 0.0
In78 In 0.37802 0.99651 0.70481 0.0
O79 O 0.33117 0.97239 0.68324 0.0
O80 O 0.35556 0.94786 0.72265 0.0
C81 C 0.40466 0.99146 0.64379 0.0
C82 C 0.34677 0.05129 0.7272 0.0
C83 C 0.43125 0.99596 0.74563 0.0
O84 O 0.41295 0.97275 0.66732 0.0
O85 O 0.3825 0.01209 0.65092 0.0
O86 O 0.40772 0.97539 0.7481 0.0
O87 O 0.42795 0.01668 0.72259 0.0
C88 C 0.33158 0.94797 0.7026 0.0
O89 O 0.36484 0.05134 0.70182 0.0
O90 O 0.3443 0.02361 0.74126 0.0
In91 In 0.28009 0.11372 0.01857 0.0
O92 O 0.25936 0.15656 0.049 0.0
O93 O 0.29967 0.12953 0.06903 0.0
C94 C 0.22026 0.08309 0.02282 0.0
C95 C 0.29346 0.15163 0.96482 0.0
C96 C 0.32827 0.06769 0.01433 0.0
O97 O 0.24373 0.07685 0.04243 0.0
O98 O 0.22671 0.10526 0.00189 0.0
O99 O 0.33042 0.09235 0.03335 0.0
O100 O 0.30194 0.06626 0.99764 0.0
C101 C 0.27973 0.15316 0.07252 0.0
O102 O 0.30086 0.16041 0.99384 0.0
O103 O 0.27962 0.12372 0.96287 0.0
In104 In 0.73694 0.36506 0.0433 0.0
O105 O 0.75835 0.32864 0.08077 0.0
O106 O 0.71985 0.36047 0.09666 0.0
C107 C 0.78951 0.40692 0.04567 0.0
C108 C 0.73363 0.31276 0.00152 0.0
C109 C 0.68411 0.40034 0.02217 0.0
O110 O 0.7649 0.40986 0.06457 0.0
O111 O 0.78789 0.38256 0.02619 0.0
O112 O 0.68323 0.38202 0.04732 0.0
O113 O 0.71166 0.40106 0.00767 0.0
C114 C 0.73919 0.33719 0.10387 0.0
O115 O 0.71564 0.31512 0.02684 0.0
O116 O 0.75329 0.33675 0.99722 0.0
In117 In 0.8759 0.50401 0.16824 0.0
O118 O 0.8383 0.46259 0.15647 0.0
O119 O 0.84793 0.47412 0.20689 0.0
C120 C 0.91546 0.50156 0.11435 0.0
C121 C 0.83296 0.5544 0.16225 0.0
C122 C 0.92455 0.50567 0.21402 0.0
O123 O 0.90315 0.4758 0.12715 0.0
O124 O 0.90691 0.52815 0.12806 0.0
O125 O 0.90902 0.53128 0.20548 0.0
O126 O 0.91533 0.47941 0.19965 0.0
C127 C 0.83187 0.45666 0.18647 0.0
O128 O 0.85195 0.55165 0.18693 0.0
O129 O 0.83593 0.53199 0.14073 0.0
In130 In 0.71096 0.63641 0.54166 0.0
O131 O 0.69982 0.68412 0.5698 0.0
O132 O 0.72362 0.64579 0.59617 0.0
C133 C 0.65561 0.59791 0.54161 0.0
C134 C 0.71817 0.67933 0.49104 0.0
C135 C 0.76246 0.59514 0.53167 0.0
O136 O 0.67375 0.60121 0.5669 0.0
O137 O 0.6651 0.6144 0.51692 0.0
O138 O 0.76425 0.62006 0.55042 0.0
O139 O 0.73452 0.59067 0.51832 0.0
C140 C 0.71288 0.67498 0.59658 0.0
O141 O 0.74236 0.66481 0.50414 0.0
O142 O 0.69038 0.67233 0.50356 0.0
In143 In 0.64671 0.49744 0.72918 0.0
O144 O 0.68289 0.46196 0.75426 0.0
O145 O 0.6835 0.46488 0.70189 0.0
C146 C 0.605 0.48523 0.78009 0.0
C147 C 0.6843 0.55306 0.73253 0.0
C148 C 0.602 0.50004 0.67922 0.0
O149 O 0.61909 0.51284 0.77584 0.0
O150 O 0.61186 0.46366 0.75862 0.0
O151 O 0.60997 0.52514 0.69612 0.0
O152 O 0.61669 0.47392 0.68737 0.0
C153 C 0.69553 0.45202 0.72757 0.0
O154 O 0.68001 0.5373 0.70584 0.0
O155 O 0.66938 0.54099 0.75714 0.0
H156 H 0.11963 0.31404 0.66691 0.0
H157 H 0.05748 0.26242 0.59657 0.0
H158 H 0.09904 0.21037 0.67911 0.0
H159 H 0.09733 0.34434 0.62223 0.0
H160 H 0.09084 0.31963 0.58577 0.0
H161 H 0.03211 0.31504 0.65826 0.0
H162 H 0.95642 0.36861 0.60747 0.0
H163 H 0.0531 0.36176 0.56421 0.0
C164 C 0.10677 0.29174 0.659 0.0
C165 C 0.1111 0.26235 0.67679 0.0
C166 C 0.08667 0.29217 0.63052 0.0
C167 C 0.07176 0.26259 0.61932 0.0
C168 C 0.07561 0.23323 0.63729 0.0
C169 C 0.09467 0.23349 0.66628 0.0
C170 C 0.08207 0.32396 0.6115 0.0
C171 C 0.04639 0.33513 0.61031 0.0
C172 C 0.02423 0.32868 0.63662 0.0
C173 C 0.99173 0.34034 0.63521 0.0
C174 C 0.98145 0.35899 0.60809 0.0
C175 C 0.00342 0.3669 0.58261 0.0
C176 C 0.03592 0.3551 0.58372 0.0
H177 H 0.05286 0.74694 0.83128 0.0
H178 H 0.03311 0.78043 0.93037 0.0
H179 H 0.07176 0.84837 0.85886 0.0
H180 H 0.04775 0.7074 0.87461 0.0
H181 H 0.04825 0.72141 0.91658 0.0
H182 H 0.98635 0.73173 0.84587 0.0
H183 H 0.9119 0.67471 0.89575 0.0
H184 H 0.00621 0.69165 0.94263 0.0
C185 C 0.05167 0.76695 0.8491 0.0
C186 C 0.06304 0.79874 0.84038 0.0
C187 C 0.04085 0.76013 0.88149 0.0
C188 C 0.03993 0.7858 0.90498 0.0
C189 C 0.05019 0.81781 0.89636 0.0
C190 C 0.0615 0.82412 0.86421 0.0
C191 C 0.03574 0.72471 0.89225 0.0
C192 C 0.9997 0.71481 0.89494 0.0
C193 C 0.97798 0.71909 0.86799 0.0
C194 C 0.94607 0.70526 0.8688 0.0
C195 C 0.93595 0.68683 0.89635 0.0
C196 C 0.95745 0.68154 0.92314 0.0
C197 C 0.98917 0.69604 0.92238 0.0
H198 H 0.44133 0.64946 0.09054 0.0
H199 H 0.49983 0.70458 0.16145 0.0
H200 H 0.54698 0.6559 0.0799 0.0
H201 H 0.41314 0.68127 0.13111 0.0
H202 H 0.43554 0.67597 0.16905 0.0
H203 H 0.45566 0.74122 0.10508 0.0
H204 H 0.42185 0.82021 0.16716 0.0
H205 H 0.40571 0.71969 0.19696 0.0
C206 C 0.46501 0.65925 0.09879 0.0
C207 C 0.49387 0.65081 0.0816 0.0
C208 C 0.46682 0.67974 0.12697 0.0
C209 C 0.49801 0.69028 0.13879 0.0
C210 C 0.52681 0.68244 0.12128 0.0
C211 C 0.52448 0.66333 0.09244 0.0
C212 C 0.43558 0.68934 0.14501 0.0
C213 C 0.43324 0.72617 0.15147 0.0
C214 C 0.44461 0.74948 0.12804 0.0
C215 C 0.44153 0.78353 0.13403 0.0
C216 C 0.42614 0.79405 0.16325 0.0
C217 C 0.4129 0.77128 0.18579 0.0
C218 C 0.4165 0.73735 0.17986 0.0
H219 H 0.55957 0.24883 0.33926 0.0
H220 H 0.51771 0.27446 0.43389 0.0
H221 H 0.57362 0.34658 0.37939 0.0
H222 H 0.53643 0.20622 0.37163 0.0
H223 H 0.53964 0.214 0.41502 0.0
H224 H 0.47815 0.23915 0.34814 0.0
H225 H 0.39794 0.18756 0.39526 0.0
H226 H 0.49455 0.18756 0.43994 0.0
C227 C 0.55477 0.26708 0.3583 0.0
C228 C 0.56811 0.29916 0.35519 0.0
C229 C 0.53633 0.258 0.38651 0.0
C230 C 0.53073 0.28157 0.41154 0.0
C231 C 0.54396 0.31359 0.40869 0.0
C232 C 0.56235 0.32217 0.38057 0.0
C233 C 0.527 0.22213 0.39197 0.0
C234 C 0.4901 0.21619 0.39498 0.0
C235 C 0.46858 0.2257 0.36929 0.0
C236 C 0.43524 0.21574 0.36974 0.0
C237 C 0.42334 0.19648 0.39602 0.0
C238 C 0.44449 0.18606 0.42145 0.0
C239 C 0.47784 0.19622 0.42087 0.0
H240 H 0.55044 0.00066 0.20217 0.0
H241 H 0.63544 0.03524 0.25709 0.0
H242 H 0.5677 0.10487 0.21481 0.0
H243 H 0.58362 0.96096 0.22951 0.0
H244 H 0.62412 0.97427 0.21773 0.0
H245 H 0.5709 0.98713 0.2944 0.0
H246 H 0.64269 0.94288 0.35832 0.0
H247 H 0.66163 0.94924 0.25384 0.0
C248 C 0.56467 0.0208 0.213 0.0
C249 C 0.55528 0.05355 0.20688 0.0
C250 C 0.59304 0.01393 0.23187 0.0
C251 C 0.61256 0.04027 0.24403 0.0
C252 C 0.60307 0.07312 0.23865 0.0
C253 C 0.57409 0.07952 0.22058 0.0
C254 C 0.60396 0.97854 0.23593 0.0
C255 C 0.61587 0.97089 0.27052 0.0
C256 C 0.59518 0.97645 0.29795 0.0
C257 C 0.60548 0.96741 0.32981 0.0
C258 C 0.63615 0.95201 0.33397 0.0
C259 C 0.65638 0.94466 0.30673 0.0
C260 C 0.64635 0.95491 0.27511 0.0
H261 H 0.22533 0.36502 0.55363 0.0
H262 H 0.27385 0.45097 0.51263 0.0
H263 H 0.32653 0.38739 0.57891 0.0
H264 H 0.19351 0.40186 0.52212 0.0
H265 H 0.20801 0.44365 0.52571 0.0
H266 H 0.24021 0.37446 0.47084 0.0
H267 H 0.20444 0.42016 0.38228 0.0
H268 H 0.18555 0.46523 0.47674 0.0
C269 C 0.24737 0.38019 0.55067 0.0
C270 C 0.27632 0.37208 0.568 0.0
C271 C 0.24638 0.40844 0.53041 0.0
C272 C 0.2748 0.42854 0.52725 0.0
C273 C 0.30374 0.4207 0.54456 0.0
C274 C 0.3044 0.39247 0.56459 0.0
C275 C 0.21403 0.41897 0.51519 0.0
C276 C 0.21517 0.42112 0.47788 0.0
C277 C 0.22868 0.39537 0.45881 0.0
C278 C 0.22597 0.39583 0.4242 0.0
C279 C 0.2087 0.42153 0.40876 0.0
C280 C 0.19324 0.44627 0.42747 0.0
C281 C 0.19754 0.4464 0.46198 0.0
H282 H 0.95686 0.00221 0.72291 0.0
H283 H 0.86113 0.96906 0.7561 0.0
H284 H 0.92586 0.90107 0.70756 0.0
H285 H 0.92174 0.04118 0.74745 0.0
H286 H 0.88015 0.03268 0.73476 0.0
H287 H 0.93628 0.00911 0.80632 0.0
H288 H 0.86579 0.04117 0.87894 0.0
H289 H 0.84238 0.04844 0.77561 0.0
C290 C 0.93893 0.9824 0.72601 0.0
C291 C 0.94559 0.95074 0.71332 0.0
C292 C 0.9086 0.98917 0.74152 0.0
C293 C 0.88497 0.96376 0.74508 0.0
C294 C 0.89174 0.93171 0.73389 0.0
C295 C 0.92197 0.92537 0.71814 0.0
C296 C 0.90035 0.02415 0.75136 0.0
C297 C 0.88968 0.02654 0.78704 0.0
C298 C 0.91184 0.01812 0.81249 0.0
C299 C 0.9031 0.02274 0.84578 0.0
C300 C 0.87182 0.03559 0.85338 0.0
C301 C 0.84999 0.04534 0.82828 0.0
C302 C 0.85889 0.04034 0.79511 0.0
H303 H 0.27985 0.65956 0.0534 0.0
H304 H 0.24392 0.58295 0.98764 0.0
H305 H 0.19335 0.60293 0.07882 0.0
H306 H 0.28972 0.65783 0.98754 0.0
H307 H 0.31713 0.63262 0.00976 0.0
H308 H 0.26939 0.64154 0.93325 0.0
H309 H 0.3195 0.56126 0.88533 0.0
H310 H 0.3304 0.57598 0.99014 0.0
C311 C 0.26246 0.63973 0.04785 0.0
C312 C 0.23633 0.63324 0.06967 0.0
C313 C 0.26567 0.62186 0.01816 0.0
C314 C 0.24224 0.59684 0.0105 0.0
C315 C 0.21635 0.58956 0.0326 0.0
C316 C 0.21368 0.60792 0.06202 0.0
C317 C 0.29366 0.63176 0.99529 0.0
C318 C 0.2982 0.61018 0.96518 0.0
C319 C 0.28437 0.61946 0.93469 0.0
C320 C 0.29178 0.60183 0.90569 0.0
C321 C 0.31202 0.57379 0.90784 0.0
C322 C 0.32627 0.56442 0.93813 0.0
C323 C 0.3188 0.58245 0.96683 0.0
H324 H 0.77972 0.82788 0.04117 0.0
H325 H 0.81072 0.91009 0.98053 0.0
H326 H 0.88225 0.8563 0.03722 0.0
H327 H 0.74004 0.85173 0.00469 0.0
H328 H 0.74681 0.89421 0.01465 0.0
H329 H 0.77705 0.84042 0.94344 0.0
H330 H 0.72693 0.89928 0.87076 0.0
H331 H 0.71675 0.92251 0.97374 0.0
C332 C 0.79926 0.843 0.03054 0.0
C333 C 0.83202 0.83858 0.04113 0.0
C334 C 0.79143 0.86785 0.00749 0.0
C335 C 0.8167 0.88925 0.99622 0.0
C336 C 0.84956 0.88452 0.00632 0.0
C337 C 0.85711 0.85868 0.02802 0.0
C338 C 0.75556 0.87371 0.99858 0.0
C339 C 0.74996 0.88227 0.96256 0.0
C340 C 0.76243 0.86189 0.9372 0.0
C341 C 0.75484 0.86842 0.90389 0.0
C342 C 0.73457 0.89538 0.89621 0.0
C343 C 0.72034 0.91461 0.92119 0.0
C344 C 0.72835 0.90816 0.95432 0.0
H345 H 0.38701 0.52705 0.20686 0.0
H346 H 0.31349 0.46915 0.25843 0.0
H347 H 0.38931 0.42085 0.20251 0.0
H348 H 0.34455 0.55518 0.23479 0.0
H349 H 0.3065 0.53205 0.23583 0.0
H350 H 0.38077 0.51883 0.29164 0.0
H351 H 0.33056 0.55586 0.37733 0.0
H352 H 0.2839 0.56168 0.28183 0.0
C353 C 0.37723 0.50318 0.21433 0.0
C354 C 0.39207 0.47416 0.20257 0.0
C355 C 0.34915 0.50156 0.23486 0.0
C356 C 0.3358 0.47054 0.2436 0.0
C357 C 0.35091 0.44138 0.23272 0.0
C358 C 0.37907 0.44345 0.21255 0.0
C359 C 0.33227 0.53301 0.24561 0.0
C360 C 0.33128 0.53725 0.2828 0.0
C361 C 0.35872 0.52916 0.30272 0.0
C362 C 0.35806 0.53495 0.33695 0.0
C363 C 0.33022 0.54978 0.35116 0.0
C364 C 0.30363 0.56008 0.33138 0.0
C365 C 0.30419 0.55342 0.29728 0.0
H366 H 0.73525 0.16784 0.55299 0.0
H367 H 0.70372 0.09296 0.48333 0.0
H368 H 0.63188 0.14493 0.54136 0.0
H369 H 0.77523 0.14638 0.51538 0.0
H370 H 0.76738 0.10329 0.52092 0.0
H371 H 0.74219 0.1666 0.45581 0.0
H372 H 0.7845 0.11001 0.37682 0.0
H373 H 0.79282 0.07553 0.47688 0.0
C374 C 0.71563 0.15435 0.54038 0.0
C375 C 0.68264 0.15944 0.54967 0.0
C376 C 0.72346 0.13129 0.51555 0.0
C377 C 0.69792 0.11224 0.50102 0.0
C378 C 0.66483 0.11775 0.50968 0.0
C379 C 0.65735 0.14179 0.53352 0.0
C380 C 0.75931 0.12545 0.50688 0.0
C381 C 0.7648 0.1204 0.47025 0.0
C382 C 0.75442 0.14441 0.44728 0.0
C383 C 0.76061 0.14009 0.4134 0.0
C384 C 0.7778 0.11207 0.40274 0.0
C385 C 0.79011 0.08903 0.42543 0.0
C386 C 0.78307 0.09305 0.45916 0.0
H387 H 0.06252 0.46674 0.69466 0.0
H388 H 0.1569 0.49145 0.73856 0.0
H389 H 0.10366 0.5646 0.68392 0.0
H390 H 0.08896 0.42621 0.72682 0.0
H391 H 0.12824 0.42764 0.70718 0.0
H392 H 0.09081 0.45807 0.78781 0.0
H393 H 0.16487 0.40993 0.84643 0.0
H394 H 0.16962 0.40523 0.74022 0.0
C395 C 0.08176 0.48482 0.69999 0.0
C396 C 0.07916 0.51699 0.68735 0.0
C397 C 0.10959 0.47526 0.71847 0.0
C398 C 0.13484 0.49863 0.72515 0.0
C399 C 0.13227 0.53101 0.71316 0.0
C400 C 0.1046 0.53991 0.69426 0.0
C401 C 0.11336 0.43918 0.72718 0.0
C402 C 0.1293 0.43347 0.7604 0.0
C403 C 0.1137 0.44435 0.78945 0.0
C404 C 0.12701 0.43664 0.82056 0.0
C405 C 0.15588 0.41761 0.82237 0.0
C406 C 0.17124 0.4057 0.79355 0.0
C407 C 0.15808 0.41432 0.76262 0.0
C408 C 0.99962 0.33508 0.05307 0.0
C409 C 0.01777 0.33431 0.08275 0.0
C410 C 0.00641 0.35919 0.02919 0.0
C411 C 0.07747 0.40661 0.00051 0.0
H412 H 0.01477 0.44368 0.93832 0.0
C413 C 0.12542 0.45734 0.87898 0.0
C414 C 0.10874 0.44404 0.85142 0.0
C415 C 0.11046 0.45716 0.91016 0.0
C416 C 0.0326 0.43362 0.95554 0.0
H417 H 0.05543 0.35964 0.11183 0.0
H418 H 0.06738 0.40151 0.07012 0.0
H419 H 0.99464 0.41723 0.98893 0.0
H420 H 0.06258 0.42249 0.83419 0.0
H421 H 0.03683 0.42111 0.88853 0.0
H422 H 0.11531 0.42096 0.96674 0.0
C423 C 0.04814 0.38336 0.06513 0.0
C424 C 0.02106 0.41846 0.98448 0.0
C425 C 0.04127 0.35937 0.08903 0.0
C426 C 0.0759 0.43307 0.85503 0.0
C427 C 0.06111 0.43242 0.88627 0.0
C428 C 0.08897 0.42152 0.97162 0.0
C429 C 0.03156 0.38287 0.03451 0.0
C430 C 0.04337 0.40388 0.00675 0.0
C431 C 0.07881 0.44301 0.91448 0.0
C432 C 0.06666 0.43416 0.94814 0.0
H433 H 0.98124 0.31618 0.04764 0.0
H434 H 0.99336 0.35798 0.00577 0.0
H435 H 0.09534 0.39538 0.01696 0.0
H436 H 0.15067 0.46628 0.87669 0.0
H437 H 0.12447 0.46634 0.93119 0.0
C438 C 0.94938 0.77739 0.30529 0.0
C439 C 0.97456 0.7537 0.30735 0.0
C440 C 0.9298 0.77969 0.27678 0.0
C441 C 0.93432 0.76663 0.18834 0.0
H442 H 0.83871 0.77439 0.18919 0.0
C443 C 0.86539 0.79401 0.06765 0.0
C444 C 0.8399 0.81726 0.06974 0.0
C445 C 0.87779 0.77915 0.09629 0.0
C446 C 0.86543 0.77257 0.18846 0.0
H447 H 0.99861 0.71346 0.28152 0.0
H448 H 0.96492 0.71808 0.2314 0.0
H449 H 0.8684 0.76335 0.24072 0.0
H450 H 0.80646 0.84239 0.10295 0.0
H451 H 0.82872 0.81765 0.15301 0.0
H452 H 0.93209 0.77776 0.13686 0.0
C453 C 0.96021 0.73465 0.25194 0.0
C454 C 0.88236 0.76609 0.21801 0.0
C455 C 0.9794 0.73198 0.28063 0.0
C456 C 0.82582 0.82412 0.10069 0.0
C457 C 0.83865 0.80983 0.12942 0.0
C458 C 0.91754 0.77369 0.15897 0.0
C459 C 0.93542 0.75871 0.24963 0.0
C460 C 0.91699 0.76335 0.21823 0.0
C461 C 0.86559 0.78796 0.12775 0.0
C462 C 0.88285 0.77712 0.15859 0.0
H463 H 0.94505 0.79438 0.32557 0.0
H464 H 0.91102 0.79863 0.27552 0.0
H465 H 0.96109 0.76505 0.18789 0.0
H466 H 0.8766 0.78836 0.04399 0.0
H467 H 0.89782 0.7617 0.0938 0.0
C468 C 0.52598 0.60865 0.56392 0.0
C469 C 0.53501 0.64064 0.55373 0.0
C470 C 0.51877 0.58408 0.54058 0.0
C471 C 0.516 0.56507 0.45005 0.0
H472 H 0.4273 0.53469 0.47107 0.0
C473 C 0.41672 0.54835 0.35085 0.0
C474 C 0.38789 0.53007 0.35757 0.0
C475 C 0.4424 0.54989 0.37403 0.0
C476 C 0.45235 0.54187 0.4647 0.0
H477 H 0.54725 0.67107 0.51134 0.0
H478 H 0.53399 0.62854 0.47051 0.0
H479 H 0.4613 0.55881 0.51395 0.0
H480 H 0.36424 0.49668 0.39211 0.0
H481 H 0.40986 0.49758 0.43189 0.0
H482 H 0.50675 0.54855 0.40055 0.0
C483 C 0.53262 0.62219 0.4965 0.0
C484 C 0.47197 0.55594 0.48954 0.0
C485 C 0.54003 0.6467 0.5199 0.0
C486 C 0.38625 0.51111 0.38656 0.0
C487 C 0.41228 0.51197 0.40945 0.0
C488 C 0.49656 0.55042 0.42524 0.0
C489 C 0.52016 0.5912 0.50658 0.0
C490 C 0.50337 0.56919 0.48216 0.0
C491 C 0.44004 0.5327 0.40429 0.0
C492 C 0.46376 0.54026 0.43181 0.0
H493 H 0.52228 0.60333 0.58987 0.0
H494 H 0.51007 0.56019 0.5491 0.0
H495 H 0.54041 0.57438 0.44378 0.0
H496 H 0.41835 0.56344 0.32876 0.0
H497 H 0.46292 0.5665 0.36906 0.0
C498 C 0.54263 0.28299 0.78584 0.0
C499 C 0.54611 0.26306 0.81407 0.0
C500 C 0.56204 0.27745 0.75786 0.0
C501 C 0.63732 0.23847 0.72599 0.0
H502 H 0.58508 0.22503 0.64642 0.0
C503 C 0.68812 0.17252 0.60982 0.0
C504 C 0.67443 0.18 0.57879 0.0
C505 C 0.67618 0.18775 0.63846 0.0
C506 C 0.60033 0.22945 0.66806 0.0
H507 H 0.57389 0.22291 0.83584 0.0
H508 H 0.60826 0.21348 0.78682 0.0
H509 H 0.55815 0.24261 0.69702 0.0
H510 H 0.63928 0.21064 0.55285 0.0
H511 H 0.61953 0.23863 0.60254 0.0
H512 H 0.67962 0.22556 0.69699 0.0
C513 C 0.59037 0.2333 0.78644 0.0
C514 C 0.58476 0.23935 0.69719 0.0
C515 C 0.57064 0.2386 0.8144 0.0
C516 C 0.65005 0.20439 0.57659 0.0
C517 C 0.63855 0.2201 0.60513 0.0
C518 C 0.65308 0.22903 0.69663 0.0
C519 C 0.5856 0.25211 0.75762 0.0
C520 C 0.60299 0.24361 0.72651 0.0
C521 C 0.6506 0.21114 0.63661 0.0
C522 C 0.6347 0.22399 0.66732 0.0
H523 H 0.52402 0.30211 0.78485 0.0
H524 H 0.5581 0.29251 0.73607 0.0
H525 H 0.65196 0.2418 0.74827 0.0
H526 H 0.70668 0.15347 0.61213 0.0
H527 H 0.68587 0.17982 0.66213 0.0
C528 C 0.03223 0.64566 0.45418 0.0
C529 C 0.00912 0.67038 0.44711 0.0
C530 C 0.02477 0.62078 0.47681 0.0
C531 C 0.00351 0.56507 0.5203 0.0
H532 H 0.96791 0.5992 0.60238 0.0
C533 C 0.04062 0.50332 0.64016 0.0
C534 C 0.05195 0.52598 0.66419 0.0
C535 C 0.01998 0.51363 0.61445 0.0
C536 C 0.97791 0.58917 0.57967 0.0
H537 H 0.9593 0.68743 0.4567 0.0
H538 H 0.94602 0.64352 0.49632 0.0
H539 H 0.96213 0.63111 0.55188 0.0
H540 H 0.04704 0.57629 0.68214 0.0
H541 H 0.01326 0.59478 0.63647 0.0
H542 H 0.02257 0.52507 0.54833 0.0
C543 C 0.97013 0.6437 0.48464 0.0
C544 C 0.9741 0.60728 0.55048 0.0
C545 C 0.97769 0.66878 0.46192 0.0
C546 C 0.03968 0.5584 0.66349 0.0
C547 C 0.01961 0.56886 0.63744 0.0
C548 C 0.00796 0.54734 0.54953 0.0
C549 C 0.99389 0.61979 0.4929 0.0
C550 C 0.98876 0.59642 0.52089 0.0
C551 C 0.0107 0.54698 0.61168 0.0
C552 C 0.99706 0.56021 0.58001 0.0
H553 H 0.05664 0.64615 0.4431 0.0
H554 H 0.04403 0.60334 0.48292 0.0
H555 H 0.01399 0.55536 0.49765 0.0
H556 H 0.04937 0.47808 0.63979 0.0
H557 H 0.01298 0.49578 0.59575 0.0
C558 C 0.63226 0.72381 0.67962 0.0
C559 C 0.60079 0.73788 0.68382 0.0
C560 C 0.65848 0.73274 0.70072 0.0
C561 C 0.68491 0.80282 0.75239 0.0
H562 H 0.74273 0.74189 0.79809 0.0
C563 C 0.74965 0.81167 0.88027 0.0
C564 C 0.76175 0.84419 0.87722 0.0
C565 C 0.74306 0.79273 0.85196 0.0
C566 C 0.72716 0.75909 0.78488 0.0
H567 H 0.57192 0.77153 0.71382 0.0
H568 H 0.61752 0.78749 0.74987 0.0
H569 H 0.70192 0.72055 0.75782 0.0
H570 H 0.78166 0.88034 0.84299 0.0
H571 H 0.77033 0.8472 0.79356 0.0
H572 H 0.70908 0.84119 0.77967 0.0
C573 C 0.62209 0.7697 0.73034 0.0
C574 C 0.70382 0.74697 0.762 0.0
C575 C 0.5959 0.76042 0.70977 0.0
C576 C 0.77192 0.85547 0.84593 0.0
C577 C 0.76536 0.83656 0.81766 0.0
C578 C 0.70846 0.81487 0.7746 0.0
C579 C 0.65381 0.75647 0.7257 0.0
C580 C 0.6817 0.76873 0.74644 0.0
C581 C 0.74849 0.80615 0.82034 0.0
C582 C 0.72923 0.79313 0.7918 0.0
H583 H 0.63666 0.70615 0.65995 0.0
H584 H 0.6825 0.72177 0.69697 0.0
H585 H 0.66868 0.82026 0.74027 0.0
H586 H 0.74154 0.80236 0.90406 0.0
H587 H 0.73011 0.76934 0.85478 0.0
C588 C 0.50985 0.34129 0.98158 0.0
C589 C 0.49597 0.34782 0.95043 0.0
C590 C 0.50927 0.36529 0.00652 0.0
C591 C 0.45886 0.43726 0.02994 0.0
H592 H 0.51799 0.4388 0.10561 0.0
C593 C 0.41501 0.49647 0.14926 0.0
C594 C 0.41811 0.47516 0.17655 0.0
C595 C 0.4343 0.49176 0.12093 0.0
C596 C 0.50126 0.43879 0.08463 0.0
H597 H 0.47363 0.38551 0.91975 0.0
H598 H 0.47372 0.4278 0.96283 0.0
H599 H 0.53364 0.40858 0.05589 0.0
H600 H 0.44683 0.43504 0.19709 0.0
H601 H 0.4793 0.42586 0.14753 0.0
H602 H 0.42551 0.46549 0.05915 0.0
C603 C 0.48392 0.40381 0.96852 0.0
C604 C 0.51025 0.42144 0.05608 0.0
C605 C 0.48404 0.37965 0.94375 0.0
C606 C 0.44328 0.45136 0.17617 0.0
C607 C 0.46226 0.44639 0.14777 0.0
C608 C 0.44978 0.45434 0.05851 0.0
C609 C 0.49517 0.39649 0.00067 0.0
C610 C 0.48864 0.4195 0.02877 0.0
C611 C 0.45681 0.46542 0.11918 0.0
C612 C 0.47024 0.45423 0.08673 0.0
H613 H 0.51923 0.31696 0.9874 0.0
H614 H 0.51795 0.35851 0.03093 0.0
H615 H 0.4413 0.43616 0.00968 0.0
H616 H 0.39597 0.51516 0.14868 0.0
H617 H 0.43008 0.50747 0.09968 0.0
C618 C 0.92075 0.21823 0.22045 0.0
C619 C 0.92508 0.24532 0.19921 0.0
C620 C 0.89114 0.21377 0.23757 0.0
C621 C 0.82224 0.25609 0.27447 0.0
H622 H 0.7875 0.16664 0.27993 0.0
C623 C 0.73921 0.15951 0.35905 0.0
C624 C 0.75528 0.16678 0.38906 0.0
C625 C 0.7457 0.17851 0.33091 0.0
C626 C 0.796 0.19205 0.27826 0.0
H627 H 0.90189 0.2893 0.17948 0.0
H628 H 0.84991 0.2818 0.21039 0.0
H629 H 0.82838 0.18022 0.23822 0.0
H630 H 0.78713 0.20181 0.41448 0.0
H631 H 0.79902 0.23463 0.36548 0.0
H632 H 0.79095 0.26743 0.3158 0.0
C633 C 0.86953 0.26391 0.21332 0.0
C634 C 0.8198 0.19968 0.25449 0.0
C635 C 0.89918 0.26815 0.19569 0.0
C636 C 0.77429 0.19585 0.39163 0.0
C637 C 0.78111 0.21466 0.36339 0.0
C638 C 0.79832 0.24842 0.29845 0.0
C639 C 0.86518 0.23645 0.23417 0.0
C640 C 0.83439 0.23126 0.25347 0.0
C641 C 0.76886 0.20468 0.33224 0.0
C642 C 0.78612 0.21586 0.30163 0.0
H643 H 0.94019 0.20022 0.2237 0.0
H644 H 0.88871 0.19269 0.25393 0.0
H645 H 0.83299 0.28072 0.27406 0.0
H646 H 0.72434 0.13722 0.35656 0.0
H647 H 0.73515 0.17063 0.30752 0.0
C648 C 0.01767 0.03685 0.24958 0.0
C649 C 0.04797 0.04268 0.2657 0.0
C650 C 0.9887 0.03227 0.2678 0.0
C651 C 0.95675 0.01659 0.35312 0.0
H652 H 0.87843 0.05885 0.31797 0.0
C653 C 0.84635 0.06419 0.42925 0.0
C654 C 0.81511 0.065 0.41388 0.0
C655 C 0.87338 0.05044 0.41283 0.0
C656 C 0.89982 0.04621 0.32786 0.0
H657 H 0.07192 0.048 0.31346 0.0
H658 H 0.02103 0.04152 0.3454 0.0
H659 H 0.92876 0.05864 0.28558 0.0
H660 H 0.78664 0.04819 0.37149 0.0
H661 H 0.83386 0.024 0.34284 0.0
H662 H 0.92776 0.00598 0.39638 0.0
C663 C 0.0197 0.03952 0.3187 0.0
C664 C 0.92882 0.04612 0.30925 0.0
C665 C 0.04883 0.04361 0.30043 0.0
C666 C 0.81058 0.04831 0.38364 0.0
C667 C 0.83759 0.0346 0.36723 0.0
C668 C 0.92769 0.01701 0.37197 0.0
C669 C 0.98921 0.03397 0.30259 0.0
C670 C 0.95782 0.03171 0.32175 0.0
C671 C 0.86957 0.0373 0.3808 0.0
C672 C 0.89905 0.0322 0.35964 0.0
H673 H 0.01637 0.03549 0.22282 0.0
H674 H 0.96586 0.02735 0.25452 0.0
H675 H 0.97845 0.00476 0.3633 0.0
H676 H 0.85065 0.07702 0.45245 0.0
H677 H 0.89773 0.05293 0.4239 0.0
C678 C 0.25003 0.79284 0.66384 0.0
C679 C 0.21926 0.80532 0.65368 0.0
C680 C 0.2516 0.7645 0.6837 0.0
C681 C 0.19943 0.70603 0.73337 0.0
H682 H 0.25324 0.63846 0.69236 0.0
C683 C 0.16433 0.57016 0.74939 0.0
C684 C 0.15897 0.55572 0.7182 0.0
C685 C 0.18387 0.59886 0.75235 0.0
C686 C 0.23837 0.65708 0.70446 0.0
H687 H 0.16608 0.79941 0.65825 0.0
H688 H 0.16869 0.75022 0.69239 0.0
H689 H 0.26285 0.69639 0.67868 0.0
H690 H 0.17156 0.55789 0.66626 0.0
H691 H 0.20556 0.60756 0.67118 0.0
H692 H 0.17303 0.6666 0.75686 0.0
C693 C 0.19172 0.76213 0.68532 0.0
C694 C 0.24405 0.69038 0.69683 0.0
C695 C 0.19017 0.79023 0.66542 0.0
C696 C 0.1755 0.56863 0.69056 0.0
C697 C 0.19517 0.597 0.69352 0.0
C698 C 0.19367 0.67275 0.74089 0.0
C699 C 0.22241 0.74832 0.69396 0.0
C700 C 0.22325 0.71503 0.70962 0.0
C701 C 0.19843 0.61333 0.72416 0.0
C702 C 0.21171 0.64779 0.72489 0.0
H703 H 0.27288 0.80413 0.65534 0.0
H704 H 0.27562 0.75464 0.69015 0.0
H705 H 0.18357 0.72452 0.74431 0.0
H706 H 0.15164 0.5606 0.77099 0.0
H707 H 0.18611 0.61071 0.77633 0.0
C708 C 0.46132 0.97504 0.79556 0.0
C709 C 0.46065 0.99546 0.76747 0.0
C710 C 0.48956 0.97385 0.81561 0.0
C711 C 0.57904 0.98447 0.81143 0.0
H712 H 0.57503 0.98368 0.90733 0.0
C713 C 0.69654 0.95971 0.88631 0.0
C714 C 0.69285 0.93695 0.91225 0.0
C715 C 0.6688 0.97479 0.87233 0.0
C716 C 0.57661 0.98366 0.88058 0.0
H717 H 0.48877 0.03101 0.73861 0.0
H718 H 0.53831 0.02849 0.77335 0.0
H719 H 0.52475 0.99351 0.87521 0.0
H720 H 0.65764 0.91345 0.94518 0.0
H721 H 0.60922 0.93892 0.92046 0.0
H722 H 0.63024 0.97294 0.81633 0.0
C723 C 0.51696 0.0135 0.77988 0.0
C724 C 0.54779 0.98937 0.86222 0.0
C725 C 0.48859 0.01499 0.76007 0.0
C726 C 0.66121 0.93126 0.92548 0.0
C727 C 0.63341 0.94593 0.91121 0.0
C728 C 0.60772 0.97835 0.82971 0.0
C729 C 0.51782 0.99276 0.80774 0.0
C730 C 0.54866 0.98939 0.82745 0.0
C731 C 0.6367 0.9669 0.88359 0.0
C732 C 0.60687 0.97738 0.86455 0.0
H733 H 0.44012 0.95977 0.80191 0.0
H734 H 0.48964 0.95738 0.83672 0.0
H735 H 0.58039 0.98394 0.78466 0.0
H736 H 0.72074 0.96457 0.87576 0.0
H737 H 0.67244 0.99152 0.85174 0.0
C738 C 0.30859 0.17472 0.12293 0.0
C739 C 0.28198 0.17656 0.10061 0.0
C740 C 0.31286 0.19874 0.14748 0.0
C741 C 0.27028 0.26793 0.19124 0.0
H742 H 0.35994 0.30129 0.20112 0.0
C743 C 0.30396 0.40166 0.22514 0.0
C744 C 0.33555 0.40848 0.23807 0.0
C745 C 0.29354 0.36892 0.2203 0.0
C746 C 0.3348 0.29188 0.19955 0.0
H747 H 0.2382 0.2042 0.0873 0.0
H748 H 0.24546 0.24608 0.13034 0.0
H749 H 0.34981 0.25267 0.16778 0.0
H750 H 0.37928 0.38699 0.26001 0.0
H751 H 0.36067 0.3298 0.25276 0.0
H752 H 0.25535 0.30849 0.22189 0.0
C753 C 0.26304 0.22605 0.12899 0.0
C754 C 0.32896 0.26388 0.18017 0.0
C755 C 0.25895 0.20215 0.10418 0.0
C756 C 0.35491 0.38225 0.2497 0.0
C757 C 0.34434 0.34956 0.24528 0.0
C758 C 0.27616 0.29614 0.21062 0.0
C759 C 0.29036 0.22494 0.15064 0.0
C760 C 0.29655 0.2521 0.17489 0.0
C761 C 0.31453 0.34251 0.22851 0.0
C762 C 0.30841 0.30905 0.21415 0.0
H763 H 0.32673 0.15524 0.12087 0.0
H764 H 0.334 0.19682 0.16387 0.0
H765 H 0.24509 0.25896 0.18847 0.0
H766 H 0.28868 0.4215 0.21583 0.0
H767 H 0.27044 0.36451 0.20731 0.0
C768 C 0.09259 0.98931 0.11014 0.0
C769 C 0.09758 0.02321 0.11589 0.0
C770 C 0.07016 0.9785 0.08609 0.0
C771 C 0.99561 0.00956 0.0427 0.0
H772 H 0.99483 0.9199 0.00904 0.0
C773 C 0.90365 0.90172 0.9818 0.0
C774 C 0.87538 0.90967 0.00014 0.0
C775 C 0.93221 0.9214 0.98421 0.0
C776 C 0.99462 0.94539 0.01723 0.0
H777 H 0.08592 0.07242 0.09855 0.0
H778 H 0.04817 0.05359 0.05513 0.0
H779 H 0.04453 0.942 0.03378 0.0
H780 H 0.85372 0.94495 0.03379 0.0
H781 H 0.90342 0.97828 0.03954 0.0
H782 H 0.9454 0.01272 0.02671 0.0
C783 C 0.06022 0.03525 0.0703 0.0
C784 C 0.02335 0.95802 0.03199 0.0
C785 C 0.08217 0.0461 0.09495 0.0
C786 C 0.87518 0.93873 0.01902 0.0
C787 C 0.90389 0.95789 0.02219 0.0
C788 C 0.96696 0.99707 0.02762 0.0
C789 C 0.0526 0.00135 0.06665 0.0
C790 C 0.02408 0.98998 0.04577 0.0
C791 C 0.93335 0.94866 0.00604 0.0
C792 C 0.96561 0.96439 0.01567 0.0
H793 H 0.10419 0.97104 0.12584 0.0
H794 H 0.06512 0.95224 0.08454 0.0
H795 H 0.99457 0.0339 0.05374 0.0
H796 H 0.90426 0.87922 0.9672 0.0
H797 H 0.95391 0.91406 0.97043 0.0
C798 C 0.18579 0.78861 0.48854 0.0
C799 C 0.21446 0.79971 0.50516 0.0
C800 C 0.18706 0.76099 0.46748 0.0
C801 C 0.23553 0.68575 0.45597 0.0
H802 H 0.20292 0.68341 0.36567 0.0
C803 C 0.27171 0.61284 0.33189 0.0
C804 C 0.27802 0.58176 0.34597 0.0
C805 C 0.25383 0.63659 0.34944 0.0
C806 C 0.21193 0.68363 0.39092 0.0
H807 H 0.26705 0.79138 0.51183 0.0
H808 H 0.26918 0.74354 0.4755 0.0
H809 H 0.19277 0.73221 0.40033 0.0
H810 H 0.26764 0.54982 0.38767 0.0
H811 H 0.23566 0.59089 0.41803 0.0
H812 H 0.25607 0.63833 0.44666 0.0
C813 C 0.24567 0.7558 0.47892 0.0
C814 C 0.20595 0.71146 0.41078 0.0
C815 C 0.24447 0.78334 0.49962 0.0
C816 C 0.26352 0.57377 0.3765 0.0
C817 C 0.24535 0.59737 0.39389 0.0
C818 C 0.24136 0.65807 0.43633 0.0
C819 C 0.21694 0.74393 0.4631 0.0
C820 C 0.21867 0.71313 0.44317 0.0
C821 C 0.24178 0.62961 0.38136 0.0
C822 C 0.23041 0.65692 0.40328 0.0
H823 H 0.16233 0.80084 0.4923 0.0
H824 H 0.16457 0.75236 0.45549 0.0
H825 H 0.24521 0.68617 0.481 0.0
H826 H 0.28277 0.61972 0.30846 0.0
H827 H 0.25172 0.66114 0.33903 0.0
C828 C 0.41284 0.01468 0.58724 0.0
C829 C 0.42243 0.9923 0.61187 0.0
C830 C 0.43311 0.02045 0.55991 0.0
C831 C 0.51331 0.99618 0.51966 0.0
H832 H 0.52244 0.09126 0.51164 0.0
C833 C 0.63723 0.06266 0.50791 0.0
C834 C 0.63799 0.09579 0.49777 0.0
C835 C 0.60778 0.04438 0.50605 0.0
C836 C 0.52003 0.06459 0.51247 0.0
H837 H 0.45932 0.95628 0.62586 0.0
H838 H 0.49532 0.96711 0.57882 0.0
H839 H 0.47457 0.06851 0.53842 0.0
H840 H 0.61036 0.13469 0.47399 0.0
H841 H 0.55928 0.10231 0.46895 0.0
H842 H 0.56038 0.99289 0.49564 0.0
C843 C 0.47189 0.97989 0.58009 0.0
C844 C 0.49223 0.05137 0.52806 0.0
C845 C 0.45137 0.97382 0.60731 0.0
C846 C 0.61014 0.10919 0.48217 0.0
C847 C 0.58087 0.0907 0.47963 0.0
C848 C 0.54134 0.00952 0.5041 0.0
C849 C 0.46372 0.00441 0.55682 0.0
C850 C 0.48916 0.0171 0.53325 0.0
C851 C 0.57867 0.0589 0.49369 0.0
C852 C 0.54576 0.04399 0.50167 0.0
H853 H 0.39064 0.02922 0.59002 0.0
H854 H 0.42576 0.03907 0.5423 0.0
H855 H 0.51142 0.96962 0.52252 0.0
H856 H 0.65847 0.05194 0.52019 0.0
H857 H 0.60725 0.02007 0.51723 0.0
C858 C 0.30715 0.20669 0.94044 0.0
C859 C 0.29731 0.17363 0.93595 0.0
C860 C 0.30522 0.22908 0.91428 0.0
C861 C 0.25437 0.24073 0.8404 0.0
H862 H 0.30359 0.32329 0.83671 0.0
C863 C 0.19784 0.35241 0.77633 0.0
C864 C 0.1982 0.38102 0.79626 0.0
C865 C 0.21918 0.32624 0.78314 0.0
C866 C 0.28964 0.30032 0.83731 0.0
H867 H 0.2809 0.13724 0.89987 0.0
H868 H 0.27817 0.17624 0.85389 0.0
H869 H 0.32623 0.27665 0.8672 0.0
H870 H 0.22348 0.40584 0.83675 0.0
H871 H 0.2597 0.35993 0.84945 0.0
H872 H 0.21708 0.26469 0.81198 0.0
C873 C 0.28649 0.1851 0.87785 0.0
C874 C 0.30264 0.27358 0.85476 0.0
C875 C 0.28816 0.16274 0.90414 0.0
C876 C 0.22215 0.38389 0.82138 0.0
C877 C 0.24326 0.35765 0.82835 0.0
C878 C 0.24145 0.26741 0.82291 0.0
C879 C 0.29363 0.21884 0.88297 0.0
C880 C 0.28441 0.24398 0.85782 0.0
C881 C 0.2411 0.32799 0.81018 0.0
C882 C 0.25828 0.29796 0.82231 0.0
H883 H 0.3145 0.21574 0.96464 0.0
H884 H 0.31064 0.25487 0.91936 0.0
H885 H 0.23941 0.21848 0.84232 0.0
H886 H 0.1797 0.34928 0.75678 0.0
H887 H 0.2174 0.30402 0.7682 0.0
C888 C 0.35052 0.0157 0.98997 0.0
C889 C 0.35321 0.04123 0.01344 0.0
C890 C 0.37112 0.98821 0.99181 0.0
C891 C 0.44381 0.95216 0.036 0.0
H892 H 0.39021 0.87234 0.03178 0.0
C893 C 0.46357 0.83928 0.118 0.0
C894 C 0.45 0.80856 0.10849 0.0
C895 C 0.46249 0.86626 0.09654 0.0
C896 C 0.40607 0.89405 0.0322 0.0
H897 H 0.38115 0.05933 0.05571 0.0
H898 H 0.41643 0.01083 0.05966 0.0
H899 H 0.36761 0.92377 0.01227 0.0
H900 H 0.42874 0.78093 0.0675 0.0
H901 H 0.42801 0.8277 0.02956 0.0
H902 H 0.48173 0.92228 0.05762 0.0
C903 C 0.39879 0.01216 0.0395 0.0
C904 C 0.39298 0.92378 0.021 0.0
C905 C 0.37836 0.03985 0.03744 0.0
C906 C 0.43921 0.8043 0.07567 0.0
C907 C 0.43843 0.83126 0.05405 0.0
C908 C 0.45701 0.92226 0.04719 0.0
C909 C 0.39458 0.98547 0.01741 0.0
C910 C 0.41122 0.95341 0.02376 0.0
C911 C 0.4481 0.86299 0.06497 0.0
C912 C 0.43781 0.89304 0.04649 0.0
H913 H 0.3317 0.01638 0.97085 0.0
H914 H 0.36773 0.96845 0.97395 0.0
H915 H 0.45871 0.97447 0.03797 0.0
H916 H 0.47268 0.8431 0.14297 0.0
H917 H 0.47026 0.8902 0.1059 0.0
C918 C 0.82006 0.45608 0.06862 0.0
C919 C 0.81629 0.43193 0.04386 0.0
C920 C 0.84268 0.48215 0.06458 0.0
C921 C 0.90977 0.51397 0.00793 0.0
H922 H 0.87763 0.59911 0.03739 0.0
C923 C 0.91502 0.65606 0.96087 0.0
C924 C 0.94785 0.65761 0.94949 0.0
C925 C 0.90433 0.62989 0.98079 0.0
C926 C 0.88697 0.57555 0.02891 0.0
H927 H 0.83415 0.41526 0.99618 0.0
H928 H 0.87217 0.46114 0.98833 0.0
H929 H 0.84956 0.54907 0.05521 0.0
H930 H 0.99583 0.63395 0.95228 0.0
H931 H 0.97752 0.58909 0.98816 0.0
H932 H 0.94561 0.54066 0.9796 0.0
C933 C 0.85868 0.45982 0.01141 0.0
C934 C 0.87112 0.54663 0.03957 0.0
C935 C 0.83658 0.43348 0.01575 0.0
C936 C 0.97038 0.63368 0.96064 0.0
C937 C 0.95975 0.60762 0.98085 0.0
C938 C 0.92526 0.54291 0.99685 0.0
C939 C 0.86154 0.48503 0.0354 0.0
C940 C 0.88162 0.51541 0.02837 0.0
C941 C 0.9263 0.60472 0.99017 0.0
C942 C 0.91344 0.57413 0.0064 0.0
H943 H 0.80497 0.45528 0.09075 0.0
H944 H 0.84469 0.50049 0.08398 0.0
H945 H 0.91946 0.49048 0.99969 0.0
H946 H 0.89715 0.67437 0.95322 0.0
H947 H 0.87834 0.62852 0.98719 0.0
C948 C 0.80476 0.60511 0.18387 0.0
C949 C 0.80791 0.58063 0.15936 0.0
C950 C 0.77922 0.62827 0.18209 0.0
C951 C 0.71406 0.66057 0.12508 0.0
H952 H 0.66477 0.67458 0.20604 0.0
C953 C 0.57097 0.67305 0.16288 0.0
C954 C 0.56 0.68992 0.13472 0.0
C955 C 0.60473 0.67181 0.1703 0.0
C956 C 0.67821 0.67098 0.18317 0.0
H957 H 0.78753 0.56177 0.1133 0.0
H958 H 0.74276 0.60122 0.1106 0.0
H959 H 0.71831 0.64756 0.20832 0.0
H960 H 0.57468 0.72146 0.09409 0.0
H961 H 0.63355 0.72113 0.10805 0.0
H962 H 0.673 0.68105 0.09948 0.0
C963 C 0.76023 0.60327 0.13088 0.0
C964 C 0.70922 0.65585 0.18454 0.0
C965 C 0.78577 0.58036 0.13256 0.0
C966 C 0.58276 0.70828 0.11595 0.0
C967 C 0.61647 0.70767 0.12376 0.0
C968 C 0.68293 0.67518 0.12365 0.0
C969 C 0.75631 0.62729 0.15581 0.0
C970 C 0.72687 0.64921 0.15531 0.0
C971 C 0.62812 0.68781 0.14986 0.0
C972 C 0.66394 0.67939 0.15253 0.0
H973 H 0.82163 0.606 0.20474 0.0
H974 H 0.77717 0.64663 0.20151 0.0
H975 H 0.72738 0.6567 0.10217 0.0
H976 H 0.55379 0.6584 0.17744 0.0
H977 H 0.61247 0.65601 0.19042 0.0
C978 C 0.61172 0.56857 0.50909 0.0
C979 C 0.62817 0.57353 0.53937 0.0
C980 C 0.59059 0.54143 0.50461 0.0
C981 C 0.58035 0.4571 0.53783 0.0
H982 H 0.51704 0.45163 0.46576 0.0
C983 C 0.51386 0.35543 0.44304 0.0
C984 C 0.54265 0.33742 0.43638 0.0
C985 C 0.51503 0.38247 0.46488 0.0
C986 C 0.53408 0.45257 0.48647 0.0
H987 H 0.63273 0.55593 0.58979 0.0
H988 H 0.59539 0.50888 0.58218 0.0
H989 H 0.53319 0.50535 0.48765 0.0
H990 H 0.59456 0.33202 0.44807 0.0
H991 H 0.59687 0.37881 0.48583 0.0
H992 H 0.58129 0.40426 0.53658 0.0
C993 C 0.59935 0.52543 0.56158 0.0
C994 C 0.54379 0.48355 0.49872 0.0
C995 C 0.62073 0.55251 0.56601 0.0
C996 C 0.57202 0.34548 0.45314 0.0
C997 C 0.5732 0.37222 0.47493 0.0
C998 C 0.57034 0.42615 0.52588 0.0
C999 C 0.585 0.51874 0.53044 0.0
C1000 C 0.56842 0.48632 0.52333 0.0
C1001 C 0.545 0.39172 0.48039 0.0
C1002 C 0.54852 0.42355 0.49881 0.0
H1003 H 0.6167 0.58451 0.48813 0.0
H1004 H 0.58054 0.53716 0.48011 0.0
H1005 H 0.59925 0.45788 0.55684 0.0
H1006 H 0.49101 0.34969 0.43008 0.0
H1007 H 0.49281 0.39679 0.46871 0.0
C1008 C 0.19179 0.94266 0.23577 0.0
C1009 C 0.20013 0.97625 0.23936 0.0
C1010 C 0.21509 0.91822 0.24262 0.0
C1011 C 0.30564 0.90852 0.24573 0.0
H1012 H 0.28299 0.81906 0.27238 0.0
C1013 C 0.40229 0.80992 0.2326 0.0
C1014 C 0.39116 0.78393 0.21226 0.0
C1015 C 0.37959 0.82986 0.24912 0.0
C1016 C 0.28972 0.84401 0.26518 0.0
H1017 H 0.23848 0.01066 0.25498 0.0
H1018 H 0.27881 0.9681 0.26802 0.0
H1019 H 0.24135 0.86255 0.27591 0.0
H1020 H 0.34815 0.756 0.19603 0.0
H1021 H 0.30837 0.791 0.22452 0.0
H1022 H 0.35346 0.89009 0.23395 0.0
C1023 C 0.2547 0.96052 0.25889 0.0
C1024 C 0.26585 0.86889 0.267 0.0
C1025 C 0.23157 0.98494 0.25154 0.0
C1026 C 0.35731 0.77579 0.21177 0.0
C1027 C 0.33453 0.79593 0.22809 0.0
C1028 C 0.32944 0.88383 0.24416 0.0
C1029 C 0.2471 0.92686 0.25363 0.0
C1030 C 0.27329 0.90129 0.25644 0.0
C1031 C 0.34537 0.82438 0.2452 0.0
C1032 C 0.32159 0.8511 0.25304 0.0
H1033 H 0.16768 0.93527 0.22642 0.0
H1034 H 0.20841 0.89267 0.23784 0.0
H1035 H 0.31225 0.93289 0.23672 0.0
H1036 H 0.42834 0.81651 0.23344 0.0
H1037 H 0.38872 0.85116 0.26277 0.0
C1038 C 0.13497 0.95927 0.62113 0.0
C1039 C 0.13594 0.94095 0.59163 0.0
C1040 C 0.11451 0.98677 0.62391 0.0
C1041 C 0.07552 0.0493 0.57018 0.0
H1042 H 0.05199 0.08515 0.65583 0.0
C1043 C 0.04283 0.18082 0.64231 0.0
C1044 C 0.06435 0.20102 0.62395 0.0
C1045 C 0.03862 0.14743 0.634 0.0
C1046 C 0.05749 0.0756 0.63143 0.0
H1047 H 0.11429 0.93539 0.54279 0.0
H1048 H 0.07788 0.98303 0.54784 0.0
H1049 H 0.06584 0.02733 0.65099 0.0
H1050 H 0.09721 0.20299 0.58184 0.0
H1051 H 0.0914 0.14481 0.56813 0.0
H1052 H 0.06619 0.09728 0.5504 0.0
C1053 C 0.09366 0.97681 0.56856 0.0
C1054 C 0.06612 0.0423 0.6288 0.0
C1055 C 0.11436 0.94933 0.56572 0.0
C1056 C 0.08007 0.18793 0.59603 0.0
C1057 C 0.07655 0.15442 0.58817 0.0
C1058 C 0.06607 0.08242 0.57265 0.0
C1059 C 0.09423 0.99656 0.59733 0.0
C1060 C 0.07711 0.02917 0.59852 0.0
C1061 C 0.05674 0.13331 0.6078 0.0
C1062 C 0.05872 0.09657 0.60363 0.0
H1063 H 0.15122 0.95334 0.64161 0.0
H1064 H 0.11624 0.0014 0.64632 0.0
H1065 H 0.0836 0.04028 0.54631 0.0
H1066 H 0.03052 0.19051 0.66403 0.0
H1067 H 0.02237 0.13242 0.64917 0.0
C1068 C 0.80477 0.42294 0.23053 0.0
C1069 C 0.80626 0.43271 0.19722 0.0
C1070 C 0.77899 0.40269 0.24175 0.0
C1071 C 0.69249 0.38236 0.22429 0.0
H1072 H 0.70642 0.31444 0.29038 0.0
C1073 C 0.61538 0.28631 0.31663 0.0
C1074 C 0.59076 0.30824 0.32747 0.0
C1075 C 0.64001 0.29692 0.2946 0.0
C1076 C 0.70193 0.33291 0.27157 0.0
H1077 H 0.78238 0.42833 0.1493 0.0
H1078 H 0.73674 0.39354 0.16912 0.0
H1079 H 0.75387 0.3402 0.26344 0.0
H1080 H 0.57125 0.35766 0.32139 0.0
H1081 H 0.61457 0.37649 0.28427 0.0
H1082 H 0.64059 0.37517 0.23234 0.0
C1083 C 0.75571 0.40126 0.18649 0.0
C1084 C 0.72924 0.34796 0.2564 0.0
C1085 C 0.78188 0.42112 0.17511 0.0
C1086 C 0.59019 0.3403 0.31408 0.0
C1087 C 0.6149 0.35098 0.29237 0.0
C1088 C 0.66515 0.36729 0.23944 0.0
C1089 C 0.75383 0.39208 0.22003 0.0
C1090 C 0.72486 0.37335 0.23312 0.0
C1091 C 0.64072 0.32977 0.28306 0.0
C1092 C 0.6695 0.34286 0.26384 0.0
H1093 H 0.82323 0.43147 0.24814 0.0
H1094 H 0.77808 0.39644 0.2678 0.0
H1095 H 0.68827 0.40187 0.20648 0.0
H1096 H 0.6167 0.26145 0.32644 0.0
H1097 H 0.65906 0.27964 0.28741 0.0
C1098 C 0.7265 0.59222 0.70877 0.0
C1099 C 0.70685 0.58191 0.73553 0.0
C1100 C 0.75061 0.61696 0.71308 0.0
C1101 C 0.78226 0.6795 0.775 0.0
H1102 H 0.86699 0.65883 0.73569 0.0
C1103 C 0.92368 0.67672 0.81938 0.0
C1104 C 0.92456 0.70507 0.83929 0.0
C1105 C 0.8982 0.67198 0.79649 0.0
C1106 C 0.84352 0.66508 0.7469 0.0
H1107 H 0.69576 0.59058 0.78728 0.0
H1108 H 0.7377 0.63296 0.795 0.0
H1109 H 0.81758 0.63044 0.71635 0.0
H1110 H 0.90115 0.75178 0.84986 0.0
H1111 H 0.85685 0.74423 0.80881 0.0
H1112 H 0.80862 0.7117 0.80778 0.0
C1113 C 0.73451 0.62264 0.77045 0.0
C1114 C 0.81492 0.64906 0.73542 0.0
C1115 C 0.71056 0.59795 0.76616 0.0
C1116 C 0.90095 0.72983 0.83444 0.0
C1117 C 0.87546 0.72526 0.81122 0.0
C1118 C 0.81093 0.69507 0.7869 0.0
C1119 C 0.75541 0.63209 0.74418 0.0
C1120 C 0.78413 0.65474 0.75056 0.0
C1121 C 0.87297 0.69559 0.79292 0.0
C1122 C 0.84221 0.68664 0.77425 0.0
H1123 H 0.72411 0.58038 0.6848 0.0
H1124 H 0.76609 0.62349 0.69225 0.0
H1125 H 0.75885 0.6854 0.78646 0.0
H1126 H 0.94146 0.65715 0.82316 0.0
H1127 H 0.89708 0.64855 0.78351 0.0
C1128 C 0.52969 0.83681 0.57729 0.0
C1129 C 0.51296 0.8082 0.56635 0.0
C1130 C 0.53139 0.86489 0.55722 0.0
C1131 C 0.4988 0.90352 0.48013 0.0
H1132 H 0.58996 0.93193 0.46924 0.0
C1133 C 0.55356 0.94954 0.35788 0.0
C1134 C 0.58279 0.9685 0.35847 0.0
C1135 C 0.53769 0.9411 0.38745 0.0
C1136 C 0.56416 0.92518 0.47236 0.0
H1137 H 0.48315 0.78724 0.52675 0.0
H1138 H 0.48653 0.83604 0.49147 0.0
H1139 H 0.57552 0.89554 0.51444 0.0
H1140 H 0.61621 0.99685 0.3896 0.0
H1141 H 0.58787 0.98331 0.44117 0.0
H1142 H 0.48781 0.93243 0.4371 0.0
C1143 C 0.49806 0.83697 0.51569 0.0
C1144 C 0.55587 0.90413 0.4984 0.0
C1145 C 0.49635 0.80888 0.53578 0.0
C1146 C 0.59374 0.98204 0.38862 0.0
C1147 C 0.57766 0.97399 0.41814 0.0
C1148 C 0.50706 0.92489 0.45412 0.0
C1149 C 0.51642 0.86495 0.52576 0.0
C1150 C 0.52336 0.89209 0.50193 0.0
C1151 C 0.55069 0.95171 0.41809 0.0
C1152 C 0.5401 0.93506 0.44925 0.0
H1153 H 0.54246 0.83715 0.6009 0.0
H1154 H 0.54535 0.88622 0.56587 0.0
H1155 H 0.4734 0.89506 0.48253 0.0
H1156 H 0.54484 0.93856 0.33494 0.0
H1157 H 0.5171 0.92382 0.38634 0.0
C1158 C 0.37838 0.2986 0.81558 0.0
C1159 C 0.39164 0.26806 0.82493 0.0
C1160 C 0.3558 0.30048 0.78954 0.0
C1161 C 0.32981 0.25519 0.71445 0.0
H1162 H 0.26888 0.32858 0.70955 0.0
C1163 C 0.25107 0.34129 0.6158 0.0
C1164 C 0.27677 0.34481 0.59259 0.0
C1165 C 0.25506 0.32093 0.64349 0.0
C1166 C 0.28505 0.30737 0.71049 0.0
H1167 H 0.39063 0.21532 0.81549 0.0
H1168 H 0.3506 0.21838 0.77046 0.0
H1169 H 0.2944 0.31499 0.7619 0.0
H1170 H 0.32503 0.32687 0.57812 0.0
H1171 H 0.33256 0.2925 0.62659 0.0
H1172 H 0.32083 0.24804 0.66271 0.0
C1173 C 0.3578 0.24103 0.78286 0.0
C1174 C 0.30014 0.29987 0.74061 0.0
C1175 C 0.38076 0.23921 0.80874 0.0
C1176 C 0.30507 0.32515 0.59594 0.0
C1177 C 0.30916 0.30504 0.62363 0.0
C1178 C 0.31449 0.26255 0.68432 0.0
C1179 C 0.34534 0.27179 0.77258 0.0
C1180 C 0.32399 0.27479 0.74264 0.0
C1181 C 0.2849 0.3039 0.64858 0.0
C1182 C 0.29336 0.2899 0.68157 0.0
H1183 H 0.38649 0.32131 0.82745 0.0
H1184 H 0.34755 0.32473 0.78198 0.0
H1185 H 0.34786 0.23556 0.71495 0.0
H1186 H 0.22889 0.35604 0.6139 0.0
H1187 H 0.23557 0.32006 0.66186 0.0
C1188 C 0.99962 0.14002 0.09322 0.0
C1189 C 0.01799 0.16839 0.08475 0.0
C1190 C 0.99558 0.11427 0.07049 0.0
C1191 C 0.02281 0.07892 0.99063 0.0
H1192 H 0.92894 0.06177 0.97877 0.0
C1193 C 0.95799 0.03812 0.86992 0.0
C1194 C 0.92804 0.0204 0.87259 0.0
C1195 C 0.9766 0.04556 0.89822 0.0
C1196 C 0.95532 0.06555 0.98213 0.0
H1197 H 0.04873 0.19094 0.04694 0.0
H1198 H 0.04135 0.14591 0.00699 0.0
H1199 H 0.94752 0.09604 0.02449 0.0
H1200 H 0.89649 0.99258 0.90591 0.0
H1201 H 0.9292 0.00522 0.95532 0.0
H1202 H 0.03023 0.04888 0.94736 0.0
C1203 C 0.0302 0.14361 0.03125 0.0
C1204 C 0.96596 0.08535 0.00833 0.0
C1205 C 0.03422 0.16946 0.05402 0.0
C1206 C 0.91926 0.00669 0.9033 0.0
C1207 C 0.93792 0.01399 0.93154 0.0
C1208 C 0.01211 0.05874 0.96439 0.0
C1209 C 0.00981 0.11636 0.03885 0.0
C1210 C 0.99971 0.09264 0.01264 0.0
C1211 C 0.96552 0.03533 0.92954 0.0
C1212 C 0.97816 0.0522 0.9597 0.0
H1213 H 0.98718 0.13828 0.11689 0.0
H1214 H 0.98014 0.09329 0.07716 0.0
H1215 H 0.04902 0.0841 0.99351 0.0
H1216 H 0.96529 0.04911 0.84658 0.0
H1217 H 0.99772 0.06206 0.89588 0.0
C1218 C 0.14206 0.71823 0.32942 0.0
C1219 C 0.12545 0.7484 0.33292 0.0
C1220 C 0.16518 0.71391 0.30418 0.0
C1221 C 0.17921 0.74611 0.22074 0.0
H1222 H 0.24544 0.67724 0.2196 0.0
C1223 C 0.25808 0.66172 0.1209 0.0
C1224 C 0.2315 0.65385 0.09969 0.0
C1225 C 0.25277 0.68007 0.14985 0.0
C1226 C 0.22752 0.69702 0.21948 0.0
H1227 H 0.12257 0.79884 0.3152 0.0
H1228 H 0.16365 0.79164 0.27157 0.0
H1229 H 0.22576 0.6987 0.27244 0.0
H1230 H 0.17889 0.66019 0.0914 0.0
H1231 H 0.16949 0.6914 0.14184 0.0
H1232 H 0.1806 0.74414 0.1679 0.0
C1233 C 0.15804 0.77092 0.28762 0.0
C1234 C 0.21596 0.70909 0.24979 0.0
C1235 C 0.13464 0.77514 0.31272 0.0
C1236 C 0.19978 0.66544 0.10749 0.0
C1237 C 0.19451 0.68378 0.13619 0.0
C1238 C 0.19093 0.73426 0.19055 0.0
C1239 C 0.17241 0.73979 0.28203 0.0
C1240 C 0.19054 0.73271 0.25077 0.0
C1241 C 0.22084 0.69114 0.15787 0.0
C1242 C 0.21403 0.70849 0.18956 0.0
H1243 H 0.13576 0.69725 0.34487 0.0
H1244 H 0.17549 0.68952 0.3007 0.0
H1245 H 0.15956 0.76416 0.22029 0.0
H1246 H 0.2828 0.65304 0.11551 0.0
H1247 H 0.27356 0.68545 0.16601 0.0
C1248 C 0.46942 0.16665 0.95892 0.0
C1249 C 0.45216 0.19667 0.95858 0.0
C1250 C 0.46729 0.14557 0.98624 0.0
C1251 C 0.45221 0.10091 0.0456 0.0
H1252 H 0.47565 0.15062 0.12448 0.0
C1253 C 0.50522 0.08531 0.18909 0.0
C1254 C 0.52898 0.06105 0.18244 0.0
C1255 C 0.48441 0.09664 0.16391 0.0
C1256 C 0.46819 0.1361 0.10315 0.0
H1257 H 0.41725 0.22705 0.98546 0.0
H1258 H 0.41389 0.19039 0.03339 0.0
H1259 H 0.45863 0.17974 0.07514 0.0
H1260 H 0.54849 0.02837 0.14481 0.0
H1261 H 0.51322 0.04873 0.10072 0.0
H1262 H 0.46262 0.05721 0.07348 0.0
C1263 C 0.42915 0.18326 0.01258 0.0
C1264 C 0.45848 0.15295 0.07469 0.0
C1265 C 0.43108 0.20421 0.98514 0.0
C1266 C 0.53016 0.04689 0.15071 0.0
C1267 C 0.50976 0.05855 0.12541 0.0
C1268 C 0.46155 0.08395 0.07428 0.0
C1269 C 0.44805 0.15424 0.01384 0.0
C1270 C 0.45157 0.13566 0.04528 0.0
C1271 C 0.48741 0.08444 0.13136 0.0
C1272 C 0.47093 0.10142 0.10308 0.0
H1273 H 0.48569 0.16008 0.93871 0.0
H1274 H 0.48235 0.12353 0.9866 0.0
H1275 H 0.44656 0.08693 0.02336 0.0
H1276 H 0.5036 0.09637 0.21348 0.0
H1277 H 0.46693 0.11596 0.16968 0.0
C1278 C 0.12094 0.23797 0.20903 0.0
C1279 C 0.09589 0.26191 0.20714 0.0
C1280 C 0.14896 0.24348 0.22894 0.0
C1281 C 0.19807 0.31018 0.26579 0.0
H1282 H 0.21017 0.25553 0.34348 0.0
C1283 C 0.21619 0.33755 0.40752 0.0
C1284 C 0.23475 0.36675 0.40395 0.0
C1285 C 0.21473 0.31452 0.38174 0.0
C1286 C 0.20744 0.27095 0.32178 0.0
H1287 H 0.08065 0.31036 0.22412 0.0
H1288 H 0.12941 0.32007 0.25821 0.0
H1289 H 0.17474 0.23592 0.29819 0.0
H1290 H 0.26995 0.39285 0.37313 0.0
H1291 H 0.26919 0.35166 0.32882 0.0
H1292 H 0.22786 0.3465 0.28975 0.0
C1293 C 0.12749 0.2971 0.24444 0.0
C1294 C 0.1874 0.25951 0.29574 0.0
C1295 C 0.09944 0.29141 0.22515 0.0
C1296 C 0.25531 0.37051 0.37625 0.0
C1297 C 0.2545 0.34706 0.35076 0.0
C1298 C 0.21793 0.32164 0.29167 0.0
C1299 C 0.1525 0.27329 0.24654 0.0
C1300 C 0.18112 0.27994 0.26847 0.0
C1301 C 0.23214 0.32015 0.35203 0.0
C1302 C 0.22116 0.30312 0.321 0.0
H1303 H 0.11877 0.21498 0.19535 0.0
H1304 H 0.16793 0.22477 0.23034 0.0
H1305 H 0.19382 0.32621 0.24476 0.0
H1306 H 0.19996 0.33428 0.42861 0.0
H1307 H 0.19716 0.2943 0.38393 0.0
C1308 C 0.02175 0.84403 0.46854 0.0
C1309 C 0.04889 0.82382 0.46143 0.0
C1310 C 0.02267 0.86561 0.49548 0.0
C1311 C 0.06386 0.87667 0.57635 0.0
H1312 H 0.00641 0.9529 0.57738 0.0
C1313 C 0.98945 0.91357 0.68965 0.0
C1314 C 0.97479 0.94495 0.69144 0.0
C1315 C 0.01113 0.9058 0.66393 0.0
C1316 C 0.02327 0.93224 0.57777 0.0
H1317 H 0.09899 0.81149 0.47594 0.0
H1318 H 0.10101 0.85002 0.52273 0.0
H1319 H 0.02091 0.9278 0.52518 0.0
H1320 H 0.9751 0.99408 0.66959 0.0
H1321 H 0.01444 0.98116 0.62638 0.0
H1322 H 0.06661 0.88154 0.62905 0.0
C1323 C 0.07867 0.84861 0.5079 0.0
C1324 C 0.03112 0.91739 0.54763 0.0
C1325 C 0.07759 0.82665 0.48102 0.0
C1326 C 0.98555 0.96952 0.66915 0.0
C1327 C 0.00785 0.96196 0.64387 0.0
C1328 C 0.05654 0.89196 0.60655 0.0
C1329 C 0.05094 0.86794 0.51585 0.0
C1330 C 0.04983 0.88825 0.54667 0.0
C1331 C 0.0193 0.92945 0.63968 0.0
C1332 C 0.0346 0.91881 0.60782 0.0
H1333 H 0.99924 0.84234 0.45399 0.0
H1334 H 0.00051 0.87941 0.50108 0.0
H1335 H 0.07868 0.85448 0.57668 0.0
H1336 H 0.98274 0.8943 0.70702 0.0
H1337 H 0.01938 0.88049 0.66184 0.0
C1338 C 0.40374 0.71051 0.66177 0.0
C1339 C 0.43387 0.69438 0.66787 0.0
C1340 C 0.37487 0.7009 0.67861 0.0
C1341 C 0.34015 0.63189 0.72896 0.0
H1342 H 0.29225 0.70012 0.77575 0.0
C1343 C 0.29379 0.64908 0.86616 0.0
C1344 C 0.28465 0.61615 0.87263 0.0
C1345 C 0.29634 0.66043 0.83365 0.0
C1346 C 0.30517 0.6807 0.76271 0.0
H1347 H 0.45731 0.65537 0.69597 0.0
H1348 H 0.40757 0.63892 0.7253 0.0
H1349 H 0.33047 0.71549 0.73155 0.0
H1350 H 0.26679 0.57058 0.85049 0.0
H1351 H 0.27 0.59073 0.79355 0.0
H1352 H 0.31763 0.59733 0.76168 0.0
C1353 C 0.40582 0.6586 0.70724 0.0
C1354 C 0.32686 0.68952 0.73711 0.0
C1355 C 0.43451 0.66829 0.69068 0.0
C1356 C 0.27441 0.59595 0.84613 0.0
C1357 C 0.27645 0.60748 0.81353 0.0
C1358 C 0.31882 0.62312 0.75464 0.0
C1359 C 0.37564 0.67475 0.70152 0.0
C1360 C 0.34612 0.66531 0.72145 0.0
C1361 C 0.28955 0.63917 0.8068 0.0
C1362 C 0.30266 0.64758 0.77329 0.0
H1363 H 0.40254 0.73071 0.64425 0.0
H1364 H 0.35201 0.71387 0.67375 0.0
H1365 H 0.35389 0.61257 0.71661 0.0
H1366 H 0.30205 0.66523 0.88601 0.0
H1367 H 0.3067 0.68488 0.82978 0.0
C1368 C 0.57718 0.50289 0.83234 0.0
C1369 C 0.58097 0.47937 0.80703 0.0
C1370 C 0.55204 0.49932 0.85579 0.0
C1371 C 0.46856 0.46788 0.85917 0.0
H1372 H 0.47272 0.49657 0.95066 0.0
C1373 C 0.35028 0.50989 0.92143 0.0
C1374 C 0.35363 0.54024 0.93806 0.0
C1375 C 0.37816 0.49072 0.91469 0.0
C1376 C 0.47108 0.48856 0.92514 0.0
H1377 H 0.56272 0.43267 0.7875 0.0
H1378 H 0.51823 0.42678 0.82818 0.0
H1379 H 0.52388 0.48489 0.9208 0.0
H1380 H 0.38825 0.57325 0.96274 0.0
H1381 H 0.4368 0.54086 0.95003 0.0
H1382 H 0.41641 0.47396 0.86217 0.0
C1383 C 0.53481 0.44791 0.82988 0.0
C1384 C 0.5004 0.48166 0.90814 0.0
C1385 C 0.56023 0.4513 0.80663 0.0
C1386 C 0.38491 0.54981 0.95008 0.0
C1387 C 0.41284 0.53102 0.94282 0.0
C1388 C 0.43937 0.47517 0.87597 0.0
C1389 C 0.52994 0.47233 0.85418 0.0
C1390 C 0.49943 0.47247 0.87458 0.0
C1391 C 0.41006 0.50198 0.92365 0.0
C1392 C 0.44026 0.48692 0.90881 0.0
H1393 H 0.59297 0.52465 0.83341 0.0
H1394 H 0.5487 0.51873 0.87398 0.0
H1395 H 0.467 0.46114 0.83324 0.0
H1396 H 0.32633 0.50183 0.91222 0.0
H1397 H 0.37483 0.46799 0.90083 0.0
C1398 C 0.75452 0.28958 0.14026 0.0
C1399 C 0.73599 0.31835 0.13502 0.0
C1400 C 0.7466 0.26817 0.1663 0.0
C1401 C 0.67192 0.24614 0.21429 0.0
H1402 H 0.72926 0.17752 0.24777 0.0
C1403 C 0.61278 0.12937 0.26288 0.0
C1404 C 0.62539 0.10101 0.24747 0.0
C1405 C 0.63154 0.15854 0.26399 0.0
C1406 C 0.71295 0.19675 0.23906 0.0
H1407 H 0.69656 0.3487 0.15455 0.0
H1408 H 0.68338 0.31206 0.20007 0.0
H1409 H 0.75353 0.22676 0.22236 0.0
H1410 H 0.66839 0.07991 0.22376 0.0
H1411 H 0.70071 0.13091 0.22459 0.0
H1412 H 0.63143 0.21607 0.22972 0.0
C1413 C 0.70356 0.30547 0.18392 0.0
C1414 C 0.72684 0.22488 0.2242 0.0
C1415 C 0.71127 0.32666 0.15783 0.0
C1416 C 0.65814 0.10144 0.23589 0.0
C1417 C 0.67673 0.13074 0.23652 0.0
C1418 C 0.65815 0.2184 0.22945 0.0
C1419 C 0.72005 0.27521 0.18772 0.0
C1420 C 0.70641 0.24922 0.21021 0.0
C1421 C 0.66296 0.16009 0.249 0.0
C1422 C 0.67836 0.19263 0.24075 0.0
H1423 H 0.77378 0.28254 0.12306 0.0
H1424 H 0.75979 0.24504 0.16801 0.0
H1425 H 0.65507 0.26382 0.20355 0.0
H1426 H 0.58772 0.12948 0.27239 0.0
H1427 H 0.62052 0.18045 0.27462 0.0
C1428 C 0.96372 0.53615 0.25179 0.0
C1429 C 0.95148 0.50615 0.23882 0.0
C1430 C 0.98946 0.53624 0.27507 0.0
C1431 C 0.0293 0.48289 0.33684 0.0
H1432 H 0.10616 0.54002 0.32631 0.0
C1433 C 0.17233 0.47926 0.37899 0.0
C1434 C 0.16793 0.4676 0.4115 0.0
C1435 C 0.14562 0.49213 0.36122 0.0
C1436 C 0.08478 0.52404 0.32965 0.0
H1437 H 0.95656 0.45282 0.23995 0.0
H1438 H 0.00121 0.45298 0.28052 0.0
H1439 H 0.0593 0.54491 0.28806 0.0
H1440 H 0.1325 0.46323 0.4517 0.0
H1441 H 0.08658 0.48672 0.4212 0.0
H1442 H 0.0549 0.46103 0.37739 0.0
C1443 C 0.99084 0.47641 0.27295 0.0
C1444 C 0.05789 0.527 0.30792 0.0
C1445 C 0.96538 0.47632 0.24957 0.0
C1446 C 0.13701 0.47204 0.42681 0.0
C1447 C 0.11044 0.4851 0.40914 0.0
C1448 C 0.05598 0.48004 0.35856 0.0
C1449 C 0.00313 0.50633 0.28602 0.0
C1450 C 0.03022 0.50589 0.31088 0.0
C1451 C 0.11402 0.49377 0.37566 0.0
C1452 C 0.08431 0.50014 0.35491 0.0
H1453 H 0.9535 0.55953 0.24387 0.0
H1454 H 0.99837 0.55965 0.28483 0.0
H1455 H 0.00814 0.46657 0.33999 0.0
H1456 H 0.19597 0.47672 0.36666 0.0
H1457 H 0.14928 0.49863 0.33548 0.0
C1458 C 0.71167 0.73176 0.62102 0.0
C1459 C 0.71982 0.69823 0.62408 0.0
C1460 C 0.72404 0.75501 0.64358 0.0
C1461 C 0.79589 0.76617 0.69853 0.0
H1462 H 0.75316 0.84937 0.71815 0.0
C1463 C 0.87287 0.87465 0.74921 0.0
C1464 C 0.86602 0.90549 0.73502 0.0
C1465 C 0.8503 0.8484 0.74604 0.0
C1466 C 0.76564 0.82641 0.7127 0.0
H1467 H 0.74491 0.66235 0.65455 0.0
H1468 H 0.76578 0.70273 0.6947 0.0
H1469 H 0.72151 0.80479 0.69248 0.0
H1470 H 0.83002 0.93365 0.70747 0.0
H1471 H 0.79142 0.8878 0.70034 0.0
H1472 H 0.84061 0.78831 0.71613 0.0
C1473 C 0.75065 0.71126 0.67432 0.0
C1474 C 0.74733 0.80069 0.69821 0.0
C1475 C 0.73842 0.68805 0.65157 0.0
C1476 C 0.83568 0.91012 0.71887 0.0
C1477 C 0.81345 0.88374 0.71502 0.0
C1478 C 0.81437 0.79207 0.7124 0.0
C1479 C 0.74464 0.7452 0.66989 0.0
C1480 C 0.76241 0.77054 0.69018 0.0
C1481 C 0.82083 0.8522 0.72775 0.0
C1482 C 0.79978 0.82296 0.71873 0.0
H1483 H 0.69729 0.74037 0.60012 0.0
H1484 H 0.719 0.78088 0.63915 0.0
H1485 H 0.80856 0.7435 0.69232 0.0
H1486 H 0.89608 0.87065 0.76203 0.0
H1487 H 0.85654 0.82485 0.75702 0.0
C1488 C 0.56059 0.53021 0.64455 0.0
C1489 C 0.5761 0.50055 0.65333 0.0
C1490 C 0.53411 0.53004 0.62219 0.0
C1491 C 0.4863 0.4748 0.56364 0.0
H1492 H 0.41336 0.53074 0.58959 0.0
C1493 C 0.34024 0.45941 0.57534 0.0
C1494 C 0.33238 0.44353 0.54548 0.0
C1495 C 0.37037 0.476 0.5791 0.0
C1496 C 0.43358 0.51515 0.58174 0.0
H1497 H 0.577 0.44766 0.64458 0.0
H1498 H 0.53052 0.44714 0.60655 0.0
H1499 H 0.46737 0.53946 0.61438 0.0
H1500 H 0.34855 0.43385 0.49541 0.0
H1501 H 0.40181 0.46319 0.50184 0.0
H1502 H 0.45156 0.44876 0.53306 0.0
C1503 C 0.53893 0.47076 0.61616 0.0
C1504 C 0.46483 0.52033 0.59576 0.0
C1505 C 0.5655 0.47095 0.63834 0.0
C1506 C 0.35421 0.44613 0.51862 0.0
C1507 C 0.38466 0.46268 0.52241 0.0
C1508 C 0.45496 0.46947 0.54979 0.0
C1509 C 0.52241 0.50025 0.60816 0.0
C1510 C 0.4913 0.49921 0.58809 0.0
C1511 C 0.39347 0.47692 0.55309 0.0
C1512 C 0.42786 0.48849 0.56004 0.0
H1513 H 0.56842 0.55347 0.65549 0.0
H1514 H 0.52236 0.55323 0.61656 0.0
H1515 H 0.50613 0.4585 0.55645 0.0
H1516 H 0.32373 0.4575 0.59639 0.0
H1517 H 0.37639 0.48611 0.60324 0.0
C1518 C 0.71632 0.25449 0.98914 0.0
C1519 C 0.73281 0.28362 0.97945 0.0
C1520 C 0.71787 0.22605 0.96947 0.0
C1521 C 0.75179 0.16701 0.93687 0.0
H1522 H 0.74586 0.168 0.84107 0.0
C1523 C 0.81825 0.09766 0.82307 0.0
C1524 C 0.82126 0.06611 0.83712 0.0
C1525 C 0.79688 0.12084 0.83691 0.0
C1526 C 0.74767 0.16727 0.8678 0.0
H1527 H 0.7625 0.30639 0.94096 0.0
H1528 H 0.76496 0.25682 0.90646 0.0
H1529 H 0.72901 0.21655 0.87275 0.0
H1530 H 0.80198 0.03284 0.87445 0.0
H1531 H 0.76355 0.07288 0.89793 0.0
H1532 H 0.77255 0.11894 0.93226 0.0
C1533 C 0.75085 0.25595 0.92923 0.0
C1534 C 0.7379 0.19504 0.8859 0.0
C1535 C 0.74967 0.28423 0.9491 0.0
C1536 C 0.80029 0.05715 0.86336 0.0
C1537 C 0.77853 0.0802 0.87695 0.0
C1538 C 0.76198 0.13945 0.91882 0.0
C1539 C 0.73552 0.2264 0.93953 0.0
C1540 C 0.74073 0.19548 0.92055 0.0
C1541 C 0.77776 0.11286 0.86494 0.0
C1542 C 0.76101 0.13955 0.88397 0.0
H1543 H 0.70307 0.25335 0.01241 0.0
H1544 H 0.70575 0.20362 0.97791 0.0
H1545 H 0.75453 0.16677 0.96356 0.0
H1546 H 0.83439 0.10537 0.80308 0.0
H1547 H 0.79735 0.14573 0.82708 0.0
C1548 C 0.95357 0.4708 0.07633 0.0
C1549 C 0.9409 0.50085 0.08813 0.0
C1550 C 0.98137 0.47058 0.05565 0.0
C1551 C 0.03877 0.52593 0.00791 0.0
H1552 H 0.10676 0.46987 0.04485 0.0
C1553 C 0.17931 0.54298 0.0499 0.0
C1554 C 0.1906 0.56424 0.02486 0.0
C1555 C 0.15036 0.52446 0.04566 0.0
C1556 C 0.08812 0.48568 0.03408 0.0
H1557 H 0.94572 0.55423 0.08552 0.0
H1558 H 0.99401 0.55394 0.05007 0.0
H1559 H 0.04919 0.4601 0.05926 0.0
H1560 H 0.1824 0.58007 0.97432 0.0
H1561 H 0.13211 0.54683 0.96639 0.0
H1562 H 0.07781 0.55393 0.9858 0.0
C1563 C 0.98267 0.53045 0.05641 0.0
C1564 C 0.05494 0.47969 0.04193 0.0
C1565 C 0.95507 0.53064 0.07709 0.0
C1566 C 0.17416 0.56403 0.99416 0.0
C1567 C 0.14515 0.54524 0.98978 0.0
C1568 C 0.07201 0.53236 0.00058 0.0
C1569 C 0.99684 0.50044 0.04626 0.0
C1570 C 0.03005 0.50084 0.03037 0.0
C1571 C 0.132 0.52644 0.01607 0.0
C1572 C 0.09727 0.5135 0.01521 0.0
H1573 H 0.94298 0.44744 0.08429 0.0
H1574 H 0.99152 0.44705 0.04811 0.0
H1575 H 0.02007 0.5422 0.99793 0.0
H1576 H 0.19183 0.54217 0.07364 0.0
H1577 H 0.1412 0.51063 0.0667 0.0
C1578 C 0.69404 0.71732 0.44908 0.0
C1579 C 0.72205 0.70301 0.46355 0.0
C1580 C 0.6975 0.74042 0.42372 0.0
C1581 C 0.75502 0.80221 0.39084 0.0
H1582 H 0.68828 0.8059 0.32198 0.0
C1583 C 0.70305 0.92181 0.34054 0.0
C1584 C 0.68422 0.9212 0.31124 0.0
C1585 C 0.72064 0.89393 0.35044 0.0
C1586 C 0.70783 0.8051 0.34032 0.0
H1587 H 0.77571 0.70123 0.4626 0.0
H1588 H 0.78177 0.74189 0.41813 0.0
H1589 H 0.69229 0.75705 0.35615 0.0
H1590 H 0.6737 0.89281 0.2667 0.0
H1591 H 0.70585 0.84507 0.28307 0.0
H1592 H 0.77011 0.85066 0.37538 0.0
C1593 C 0.75715 0.73524 0.42653 0.0
C1594 C 0.70971 0.77714 0.36033 0.0
C1595 C 0.75366 0.71194 0.45189 0.0
C1596 C 0.68758 0.89412 0.28963 0.0
C1597 C 0.70568 0.86644 0.29926 0.0
C1598 C 0.7533 0.8302 0.37061 0.0
C1599 C 0.72907 0.74979 0.41225 0.0
C1600 C 0.73218 0.77608 0.38683 0.0
C1601 C 0.72023 0.86507 0.3309 0.0
C1602 C 0.72858 0.83265 0.34614 0.0
H1603 H 0.66938 0.71096 0.45758 0.0
H1604 H 0.67537 0.75164 0.41373 0.0
H1605 H 0.77277 0.80204 0.41097 0.0
H1606 H 0.70176 0.94272 0.35728 0.0
H1607 H 0.73172 0.89411 0.37486 0.0
C1608 C 0.82192 0.58028 0.53992 0.0
C1609 C 0.79096 0.57329 0.5255 0.0
C1610 C 0.84869 0.55919 0.53478 0.0
C1611 C 0.8656 0.47249 0.51673 0.0
H1612 H 0.95653 0.50295 0.50889 0.0
C1613 C 0.96821 0.37972 0.53399 0.0
C1614 C 0.99206 0.39014 0.55708 0.0
C1615 C 0.94837 0.40289 0.51793 0.0
C1616 C 0.93129 0.49401 0.51104 0.0
H1617 H 0.76397 0.53936 0.49355 0.0
H1618 H 0.81069 0.50241 0.4847 0.0
H1619 H 0.91143 0.54276 0.50575 0.0
H1620 H 0.01588 0.43251 0.57983 0.0
H1621 H 0.98096 0.47301 0.55235 0.0
H1622 H 0.885 0.42427 0.52403 0.0
C1623 C 0.81421 0.52408 0.50015 0.0
C1624 C 0.90546 0.51684 0.50924 0.0
C1625 C 0.78748 0.54524 0.50521 0.0
C1626 C 0.99794 0.42404 0.56164 0.0
C1627 C 0.97784 0.44722 0.54592 0.0
C1628 C 0.89132 0.44979 0.51881 0.0
C1629 C 0.84501 0.5306 0.51521 0.0
C1630 C 0.87236 0.50637 0.51283 0.0
C1631 C 0.95154 0.43682 0.52538 0.0
C1632 C 0.92458 0.46029 0.51682 0.0
H1633 H 0.82539 0.60182 0.55557 0.0
H1634 H 0.87195 0.56469 0.54709 0.0
H1635 H 0.84044 0.46365 0.52007 0.0
H1636 H 0.96313 0.3536 0.53041 0.0
H1637 H 0.92897 0.39402 0.50156 0.0
C1638 C 0.28893 0.95288 0.51746 0.0
C1639 C 0.2835 0.94596 0.55109 0.0
C1640 C 0.31075 0.97808 0.50799 0.0
C1641 C 0.34772 0.05605 0.53705 0.0
H1642 H 0.40449 0.04472 0.46059 0.0
C1643 C 0.45021 0.13222 0.45182 0.0
C1644 C 0.43224 0.16125 0.44579 0.0
C1645 C 0.43604 0.10618 0.46983 0.0
C1646 C 0.38912 0.04824 0.48223 0.0
H1647 H 0.29701 0.95983 0.60121 0.0
H1648 H 0.33496 0.00428 0.58464 0.0
H1649 H 0.3729 0.99771 0.4817 0.0
H1650 H 0.38629 0.18662 0.4559 0.0
H1651 H 0.36156 0.14127 0.48727 0.0
H1652 H 0.36384 0.10671 0.53739 0.0
C1653 C 0.32235 0.99011 0.5656 0.0
C1654 C 0.37073 0.02136 0.49411 0.0
C1655 C 0.3007 0.96458 0.5751 0.0
C1656 C 0.40065 0.16446 0.45994 0.0
C1657 C 0.38657 0.13854 0.4781 0.0
C1658 C 0.36608 0.08301 0.5251 0.0
C1659 C 0.32755 0.99719 0.53189 0.0
C1660 C 0.3494 0.02505 0.52132 0.0
C1661 C 0.40368 0.1087 0.48239 0.0
C1662 C 0.38665 0.07953 0.49726 0.0
H1663 H 0.27604 0.939 0.49836 0.0
H1664 H 0.31379 0.98316 0.48184 0.0
H1665 H 0.33141 0.05975 0.55796 0.0
H1666 H 0.47451 0.12884 0.44107 0.0
H1667 H 0.45002 0.08366 0.47305 0.0
C1668 C 0.30683 0.07892 0.7655 0.0
C1669 C 0.32863 0.08084 0.73849 0.0
C1670 C 0.28713 0.10594 0.77396 0.0
C1671 C 0.27255 0.19535 0.75657 0.0
H1672 H 0.18031 0.16906 0.76035 0.0
C1673 C 0.16992 0.26681 0.69465 0.0
C1674 C 0.13686 0.25958 0.70269 0.0
C1675 C 0.19563 0.2537 0.71357 0.0
C1676 C 0.20588 0.17728 0.76044 0.0
H1677 H 0.34842 0.11312 0.70046 0.0
H1678 H 0.31379 0.16 0.7148 0.0
H1679 H 0.22266 0.12772 0.76627 0.0
H1680 H 0.10451 0.23757 0.73928 0.0
H1681 H 0.14937 0.21594 0.77334 0.0
H1682 H 0.25554 0.24479 0.74922 0.0
C1683 C 0.31205 0.13784 0.72974 0.0
C1684 C 0.23032 0.15332 0.76374 0.0
C1685 C 0.33169 0.11084 0.72127 0.0
C1686 C 0.12988 0.24302 0.73239 0.0
C1687 C 0.15559 0.23041 0.75167 0.0
C1688 C 0.24809 0.21942 0.75351 0.0
C1689 C 0.28887 0.13541 0.75559 0.0
C1690 C 0.2639 0.16183 0.76023 0.0
C1691 C 0.18865 0.2334 0.74105 0.0
C1692 C 0.2144 0.21043 0.75371 0.0
H1693 H 0.30419 0.0562 0.77944 0.0
H1694 H 0.2698 0.10342 0.79425 0.0
H1695 H 0.29817 0.20269 0.7543 0.0
H1696 H 0.17595 0.27951 0.67182 0.0
H1697 H 0.22068 0.25676 0.70452 0.0
C1698 C 0.17031 0.06291 0.99237 0.0
C1699 C 0.18954 0.06298 0.02132 0.0
C1700 C 0.14509 0.03951 0.98788 0.0
C1701 C 0.12382 0.95532 0.01755 0.0
H1702 H 0.05795 0.9631 0.94823 0.0
C1703 C 0.03347 0.86921 0.92656 0.0
C1704 C 0.05584 0.84328 0.92196 0.0
C1705 C 0.0421 0.89631 0.94661 0.0
C1706 C 0.07577 0.96034 0.96805 0.0
H1707 H 0.19519 0.04104 0.06984 0.0
H1708 H 0.15006 0.00119 0.06284 0.0
H1709 H 0.08321 0.01262 0.97132 0.0
H1710 H 0.1042 0.82461 0.93455 0.0
H1711 H 0.11991 0.87186 0.96836 0.0
H1712 H 0.11531 0.90323 0.01546 0.0
C1713 C 0.15533 0.01813 0.04281 0.0
C1714 C 0.09074 0.98891 0.98101 0.0
C1715 C 0.1811 0.04116 0.047 0.0
C1716 C 0.08639 0.84417 0.93834 0.0
C1717 C 0.09523 0.8713 0.95788 0.0
C1718 C 0.10825 0.92688 0.00526 0.0
C1719 C 0.13801 0.01588 0.01252 0.0
C1720 C 0.1163 0.98671 0.00467 0.0
C1721 C 0.07354 0.89816 0.96181 0.0
C1722 C 0.08522 0.9288 0.97917 0.0
H1723 H 0.17616 0.0795 0.97214 0.0
H1724 H 0.13284 0.03871 0.96404 0.0
H1725 H 0.14319 0.95219 0.03578 0.0
H1726 H 0.00986 0.86903 0.91378 0.0
H1727 H 0.02447 0.91614 0.9494 0.0
C1728 C 0.73655 0.41511 0.75556 0.0
C1729 C 0.72312 0.42831 0.72637 0.0
C1730 C 0.76415 0.39442 0.75424 0.0
C1731 C 0.81606 0.34587 0.69558 0.0
H1732 H 0.88764 0.36904 0.75554 0.0
C1733 C 0.9617 0.36233 0.68353 0.0
C1734 C 0.96818 0.33558 0.66253 0.0
C1735 C 0.93243 0.36321 0.70176 0.0
C1736 C 0.86785 0.36204 0.73874 0.0
H1737 H 0.72734 0.4295 0.6729 0.0
H1738 H 0.77559 0.39418 0.67056 0.0
H1739 H 0.83257 0.39118 0.76503 0.0
H1740 H 0.95115 0.28753 0.64592 0.0
H1741 H 0.90019 0.28836 0.67869 0.0
H1742 H 0.8517 0.31914 0.66763 0.0
C1743 C 0.76464 0.39912 0.69449 0.0
C1744 C 0.83614 0.37448 0.74438 0.0
C1745 C 0.73711 0.41968 0.69582 0.0
C1746 C 0.94665 0.30823 0.66233 0.0
C1747 C 0.91735 0.30898 0.68075 0.0
C1748 C 0.84776 0.3337 0.68978 0.0
C1749 C 0.77879 0.38655 0.72369 0.0
C1750 C 0.81025 0.36776 0.72197 0.0
C1751 C 0.90902 0.33733 0.69919 0.0
C1752 C 0.87441 0.34286 0.71043 0.0
H1753 H 0.72613 0.42124 0.77947 0.0
H1754 H 0.77426 0.38494 0.77715 0.0
H1755 H 0.79646 0.33954 0.6783 0.0
H1756 H 0.97784 0.38388 0.68353 0.0
H1757 H 0.9269 0.38562 0.71531 0.0
C1758 C 0.65834 0.44203 0.98444 0.0
C1759 C 0.65572 0.42068 0.01174 0.0
C1760 C 0.63266 0.46377 0.97682 0.0
C1761 C 0.54541 0.48532 0.99715 0.0
H1762 H 0.5789 0.57525 0.99519 0.0
C1763 C 0.48471 0.59254 0.06406 0.0
C1764 C 0.49374 0.62502 0.05565 0.0
C1765 C 0.49526 0.56601 0.04462 0.0
C1766 C 0.56867 0.55042 0.99471 0.0
H1767 H 0.62354 0.40405 0.05135 0.0
H1768 H 0.57933 0.44255 0.03866 0.0
H1769 H 0.61656 0.52994 0.98675 0.0
H1770 H 0.51677 0.65583 0.0184 0.0
H1771 H 0.53387 0.60969 0.98347 0.0
H1772 H 0.49778 0.50586 0.00739 0.0
C1773 C 0.60073 0.442 0.02263 0.0
C1774 C 0.59049 0.5243 0.98991 0.0
C1775 C 0.62631 0.42025 0.03019 0.0
C1776 C 0.50973 0.6309 0.02541 0.0
C1777 C 0.51978 0.60444 0.00566 0.0
C1778 C 0.52349 0.51148 0.0021 0.0
C1779 C 0.6039 0.46452 0.99635 0.0
C1780 C 0.5794 0.49146 0.99272 0.0
C1781 C 0.51479 0.57164 0.01629 0.0
C1782 C 0.53518 0.54436 0.00244 0.0
H1783 H 0.68065 0.44271 0.96961 0.0
H1784 H 0.63574 0.48076 0.95633 0.0
H1785 H 0.53614 0.46021 0.99844 0.0
H1786 H 0.47255 0.58742 0.08741 0.0
H1787 H 0.49089 0.5412 0.05375 0.0
C1788 C 0.30221 0.90175 0.73103 0.0
C1789 C 0.30463 0.92309 0.70382 0.0
C1790 C 0.2748 0.88091 0.73465 0.0
C1791 C 0.18713 0.8733 0.7076 0.0
H1792 H 0.19226 0.797 0.76511 0.0
C1793 C 0.10289 0.78026 0.79623 0.0
C1794 C 0.08152 0.80455 0.80888 0.0
C1795 C 0.12597 0.78814 0.77168 0.0
C1796 C 0.19002 0.81776 0.74842 0.0
H1797 H 0.2813 0.93792 0.65791 0.0
H1798 H 0.23389 0.90051 0.66345 0.0
H1799 H 0.24244 0.82095 0.74324 0.0
H1800 H 0.06499 0.85502 0.80221 0.0
H1801 H 0.10653 0.86941 0.76155 0.0
H1802 H 0.13449 0.86926 0.71189 0.0
C1803 C 0.25263 0.90056 0.68264 0.0
C1804 C 0.21912 0.83205 0.73639 0.0
C1805 C 0.27992 0.92188 0.6793 0.0
C1806 C 0.08175 0.83595 0.79395 0.0
C1807 C 0.10538 0.84406 0.77003 0.0
C1808 C 0.15789 0.8585 0.71905 0.0
C1809 C 0.24925 0.88036 0.71083 0.0
C1810 C 0.21823 0.8611 0.71732 0.0
C1811 C 0.12893 0.8207 0.75975 0.0
C1812 C 0.15898 0.83154 0.74102 0.0
H1813 H 0.32079 0.9022 0.7504 0.0
H1814 H 0.27306 0.86647 0.75711 0.0
H1815 H 0.18515 0.89545 0.69276 0.0
H1816 H 0.10361 0.75571 0.80681 0.0
H1817 H 0.14279 0.76908 0.76353 0.0
C1818 C 0.18948 0.15255 0.24934 0.0
C1819 C 0.18738 0.13732 0.21812 0.0
C1820 C 0.21539 0.17458 0.25656 0.0
C1821 C 0.3015 0.18648 0.2302 0.0
H1822 H 0.30181 0.24868 0.30322 0.0
C1823 C 0.39553 0.24853 0.33523 0.0
C1824 C 0.41382 0.21965 0.34043 0.0
C1825 C 0.37027 0.24899 0.31129 0.0
C1826 C 0.30242 0.2321 0.28217 0.0
H1827 H 0.20841 0.13603 0.16883 0.0
H1828 H 0.25308 0.17469 0.18117 0.0
H1829 H 0.24966 0.23289 0.27722 0.0
H1830 H 0.42148 0.16931 0.32439 0.0
H1831 H 0.37755 0.16949 0.2836 0.0
H1832 H 0.35414 0.18608 0.23436 0.0
C1833 C 0.2354 0.1692 0.20043 0.0
C1834 C 0.27231 0.2226 0.26761 0.0
C1835 C 0.20966 0.14702 0.19328 0.0
C1836 C 0.40786 0.19196 0.32042 0.0
C1837 C 0.38271 0.19227 0.29682 0.0
C1838 C 0.33158 0.19667 0.244 0.0
C1839 C 0.2396 0.182 0.2326 0.0
C1840 C 0.27134 0.19835 0.24261 0.0
C1841 C 0.36284 0.22043 0.29249 0.0
C1842 C 0.33234 0.21787 0.27164 0.0
H1843 H 0.17252 0.14571 0.26895 0.0
H1844 H 0.21771 0.18372 0.28167 0.0
H1845 H 0.302 0.16752 0.21127 0.0
H1846 H 0.39966 0.27008 0.35071 0.0
H1847 H 0.35581 0.27123 0.3084 0.0
loop_
_geom_bond_atom_site_label_1
_geom_bond_atom_site_label_2
_geom_bond_distance
_geom_bond_site_symmetry_2
_ccdc_geom_bond_type
In0 O1 2.294 . S
In0 O2 2.326 . S
In0 O6 2.266 . S
In0 O7 2.326 1_455 S
In0 O8 2.266 1_455 S
In0 O9 2.326 . S
In0 O11 2.294 1_455 S
In0 O12 2.326 1_455 S
O1 In0 2.294 . S
O1 C10 1.240 . S
O2 In0 2.326 . S
O2 C10 1.252 . S
C3 O6 1.252 1_655 S
C3 O7 1.260 . S
C4 O11 1.240 . S
C4 O12 1.252 . S
C5 O8 1.252 1_455 S
C5 O9 1.260 . S
O6 In0 2.266 . S
O6 C3 1.252 1_455 S
O7 In0 2.326 1_655 S
O7 C3 1.260 . S
O8 In0 2.266 1_655 S
O8 C5 1.252 1_655 S
O9 In0 2.326 . S
O9 C5 1.260 . S
C10 O1 1.240 . S
C10 O2 1.252 . S
O11 In0 2.294 1_655 S
O11 C4 1.240 . S
O12 In0 2.326 1_655 S
O12 C4 1.252 . S
In13 O14 2.294 1_455 S
In13 O15 2.326 . S
In13 O19 2.266 1_455 S
In13 O20 2.326 1_455 S
In13 O21 2.266 . S
In13 O22 2.326 . S
In13 O24 2.294 . S
In13 O25 2.326 1_455 S
O14 In13 2.294 1_655 S
O14 C23 1.240 1_655 S
O15 In13 2.326 . S
O15 C23 1.252 . S
C16 O19 1.252 . S
C16 O20 1.260 . S
C17 O24 1.240 1_655 S
C17 O25 1.252 . S
C18 O21 1.252 . S
C18 O22 1.260 . S
O19 In13 2.266 1_655 S
O19 C16 1.252 . S
O20 In13 2.326 1_655 S
O20 C16 1.260 . S
O21 In13 2.266 . S
O21 C18 1.252 . S
O22 In13 2.326 . S
O22 C18 1.260 . S
C23 O14 1.240 1_455 S
C23 O15 1.252 . S
O24 In13 2.294 . S
O24 C17 1.240 1_455 S
O25 In13 2.326 1_655 S
O25 C17 1.252 . S
In26 O27 2.294 . S
In26 O28 2.326 . S
In26 O32 2.266 . S
In26 O33 2.326 . S
In26 O34 2.266 . S
In26 O35 2.326 . S
In26 O37 2.294 . S
In26 O38 2.326 . S
O27 In26 2.294 . S
O27 C36 1.240 . S
O28 In26 2.326 . S
O28 C36 1.252 . S
C29 O32 1.252 . S
C29 O33 1.260 . S
C30 O37 1.240 . S
C30 O38 1.252 . S
C31 O34 1.252 . S
C31 O35 1.260 . S
O32 In26 2.266 . S
O32 C29 1.252 . S
O33 In26 2.326 . S
O33 C29 1.260 . S
O34 In26 2.266 . S
O34 C31 1.252 . S
O35 In26 2.326 . S
O35 C31 1.260 . S
C36 O27 1.240 . S
C36 O28 1.252 . S
O37 In26 2.294 . S
O37 C30 1.240 . S
O38 In26 2.326 . S
O38 C30 1.252 . S
In39 O40 2.294 . S
In39 O41 2.326 . S
In39 O45 2.266 . S
In39 O46 2.326 . S
In39 O47 2.266 . S
In39 O48 2.326 . S
In39 O50 2.294 . S
In39 O51 2.326 . S
O40 In39 2.294 . S
O40 C49 1.240 . S
O41 In39 2.326 . S
O41 C49 1.252 . S
C42 O45 1.252 . S
C42 O46 1.260 . S
C43 O50 1.240 . S
C43 O51 1.252 . S
C44 O47 1.252 . S
C44 O48 1.260 . S
O45 In39 2.266 . S
O45 C42 1.252 . S
O46 In39 2.326 . S
O46 C42 1.260 . S
O47 In39 2.266 . S
O47 C44 1.252 . S
O48 In39 2.326 . S
O48 C44 1.260 . S
C49 O40 1.240 . S
C49 O41 1.252 . S
O50 In39 2.294 . S
O50 C43 1.240 . S
O51 In39 2.326 . S
O51 C43 1.252 . S
In52 O53 2.294 1_545 S
In52 O54 2.326 1_545 S
In52 O58 2.266 1_545 S
In52 O59 2.326 . S
In52 O60 2.266 . S
In52 O61 2.326 1_545 S
In52 O63 2.294 . S
In52 O64 2.326 . S
O53 In52 2.294 1_565 S
O53 C62 1.240 . S
O54 In52 2.326 1_565 S
O54 C62 1.252 . S
C55 O58 1.252 1_545 S
C55 O59 1.260 . S
C56 O63 1.240 . S
C56 O64 1.252 . S
C57 O60 1.252 1_565 S
C57 O61 1.260 . S
O58 In52 2.266 1_565 S
O58 C55 1.252 1_565 S
O59 In52 2.326 . S
O59 C55 1.260 . S
O60 In52 2.266 . S
O60 C57 1.252 1_545 S
O61 In52 2.326 1_565 S
O61 C57 1.260 . S
C62 O53 1.240 . S
C62 O54 1.252 . S
O63 In52 2.294 . S
O63 C56 1.240 . S
O64 In52 2.326 . S
O64 C56 1.252 . S
In65 O66 2.294 . S
In65 O67 2.326 . S
In65 O71 2.266 . S
In65 O72 2.326 . S
In65 O73 2.266 . S
In65 O74 2.326 . S
In65 O76 2.294 . S
In65 O77 2.326 . S
O66 In65 2.294 . S
O66 C75 1.240 . S
O67 In65 2.326 . S
O67 C75 1.252 . S
C68 O71 1.252 . S
C68 O72 1.260 . S
C69 O76 1.240 . S
C69 O77 1.252 . S
C70 O73 1.252 . S
C70 O74 1.260 . S
O71 In65 2.266 . S
O71 C68 1.252 . S
O72 In65 2.326 . S
O72 C68 1.260 . S
O73 In65 2.266 . S
O73 C70 1.252 . S
O74 In65 2.326 . S
O74 C70 1.260 . S
C75 O66 1.240 . S
C75 O67 1.252 . S
O76 In65 2.294 . S
O76 C69 1.240 . S
O77 In65 2.326 . S
O77 C69 1.252 . S
In78 O79 2.294 1_545 S
In78 O80 2.326 1_545 S
In78 O84 2.266 1_545 S
In78 O85 2.326 . S
In78 O86 2.266 . S
In78 O87 2.326 1_545 S
In78 O89 2.294 . S
In78 O90 2.326 . S
O79 In78 2.294 1_565 S
O79 C88 1.240 . S
O80 In78 2.326 1_565 S
O80 C88 1.252 . S
C81 O84 1.252 1_545 S
C81 O85 1.260 . S
C82 O89 1.240 . S
C82 O90 1.252 . S
C83 O86 1.252 1_565 S
C83 O87 1.260 . S
O84 In78 2.266 1_565 S
O84 C81 1.252 1_565 S
O85 In78 2.326 . S
O85 C81 1.260 . S
O86 In78 2.266 . S
O86 C83 1.252 1_545 S
O87 In78 2.326 1_565 S
O87 C83 1.260 . S
C88 O79 1.240 . S
C88 O80 1.252 . S
O89 In78 2.294 . S
O89 C82 1.240 . S
O90 In78 2.326 . S
O90 C82 1.252 . S
In91 O92 2.294 . S
In91 O93 2.326 . S
In91 O97 2.266 . S
In91 O98 2.326 1_554 S
In91 O99 2.266 1_554 S
In91 O100 2.326 . S
In91 O102 2.294 1_554 S
In91 O103 2.326 1_554 S
O92 In91 2.294 . S
O92 C101 1.240 . S
O93 In91 2.326 . S
O93 C101 1.252 . S
C94 O97 1.252 1_556 S
C94 O98 1.260 . S
C95 O102 1.240 . S
C95 O103 1.252 . S
C96 O99 1.252 1_554 S
C96 O100 1.260 . S
O97 In91 2.266 . S
O97 C94 1.252 1_554 S
O98 In91 2.326 1_556 S
O98 C94 1.260 . S
O99 In91 2.266 1_556 S
O99 C96 1.252 1_556 S
O100 In91 2.326 . S
O100 C96 1.260 . S
C101 O92 1.240 . S
C101 O93 1.252 . S
O102 In91 2.294 1_556 S
O102 C95 1.240 . S
O103 In91 2.326 1_556 S
O103 C95 1.252 . S
In104 O105 2.294 . S
In104 O106 2.326 . S
In104 O110 2.266 . S
In104 O111 2.326 1_554 S
In104 O112 2.266 1_554 S
In104 O113 2.326 . S
In104 O115 2.294 1_554 S
In104 O116 2.326 1_554 S
O105 In104 2.294 . S
O105 C114 1.240 . S
O106 In104 2.326 . S
O106 C114 1.252 . S
C107 O110 1.252 1_556 S
C107 O111 1.260 . S
C108 O115 1.240 . S
C108 O116 1.252 . S
C109 O112 1.252 1_554 S
C109 O113 1.260 . S
O110 In104 2.266 . S
O110 C107 1.252 1_554 S
O111 In104 2.326 1_556 S
O111 C107 1.260 . S
O112 In104 2.266 1_556 S
O112 C109 1.252 1_556 S
O113 In104 2.326 . S
O113 C109 1.260 . S
C114 O105 1.240 . S
C114 O106 1.252 . S
O115 In104 2.294 1_556 S
O115 C108 1.240 . S
O116 In104 2.326 1_556 S
O116 C108 1.252 . S
In117 O118 2.294 . S
In117 O119 2.326 . S
In117 O123 2.266 . S
In117 O124 2.326 . S
In117 O125 2.266 . S
In117 O126 2.326 . S
In117 O128 2.294 . S
In117 O129 2.326 . S
O118 In117 2.294 . S
O118 C127 1.240 . S
O119 In117 2.326 . S
O119 C127 1.252 . S
C120 O123 1.252 . S
C120 O124 1.260 . S
C121 O128 1.240 . S
C121 O129 1.252 . S
C122 O125 1.252 . S
C122 O126 1.260 . S
O123 In117 2.266 . S
O123 C120 1.252 . S
O124 In117 2.326 . S
O124 C120 1.260 . S
O125 In117 2.266 . S
O125 C122 1.252 . S
O126 In117 2.326 . S
O126 C122 1.260 . S
C127 O118 1.240 . S
C127 O119 1.252 . S
O128 In117 2.294 . S
O128 C121 1.240 . S
O129 In117 2.326 . S
O129 C121 1.252 . S
In130 O131 2.294 . S
In130 O132 2.326 . S
In130 O136 2.266 . S
In130 O137 2.326 . S
In130 O138 2.266 . S
In130 O139 2.326 . S
In130 O141 2.294 . S
In130 O142 2.326 . S
O131 In130 2.294 . S
O131 C140 1.240 . S
O132 In130 2.326 . S
O132 C140 1.252 . S
C133 O136 1.252 . S
C133 O137 1.260 . S
C134 O141 1.240 . S
C134 O142 1.252 . S
C135 O138 1.252 . S
C135 O139 1.260 . S
O136 In130 2.266 . S
O136 C133 1.252 . S
O137 In130 2.326 . S
O137 C133 1.260 . S
O138 In130 2.266 . S
O138 C135 1.252 . S
O139 In130 2.326 . S
O139 C135 1.260 . S
C140 O131 1.240 . S
C140 O132 1.252 . S
O141 In130 2.294 . S
O141 C134 1.240 . S
O142 In130 2.326 . S
O142 C134 1.252 . S
In143 O144 2.294 . S
In143 O145 2.326 . S
In143 O149 2.266 . S
In143 O150 2.326 . S
In143 O151 2.266 . S
In143 O152 2.326 . S
In143 O154 2.294 . S
In143 O155 2.326 . S
O144 In143 2.294 . S
O144 C153 1.240 . S
O145 In143 2.326 . S
O145 C153 1.252 . S
C146 O149 1.252 . S
C146 O150 1.260 . S
C147 O154 1.240 . S
C147 O155 1.252 . S
C148 O151 1.252 . S
C148 O152 1.260 . S
O149 In143 2.266 . S
O149 C146 1.252 . S
O150 In143 2.326 . S
O150 C146 1.260 . S
O151 In143 2.266 . S
O151 C148 1.252 . S
O152 In143 2.326 . S
O152 C148 1.260 . S
C153 O144 1.240 . S
C153 O145 1.252 . S
O154 In143 2.294 . S
O154 C147 1.240 . S
O155 In143 2.326 . S
O155 C147 1.252 . S
H156 C164 0.930 . S
H157 C167 0.930 . S
H158 C169 0.930 . S
H159 C170 0.970 . S
H160 C170 0.970 . S
H161 C172 0.930 . S
H162 C174 0.930 . S
H163 C176 0.930 . S
C164 H156 0.930 . S
C164 C165 1.382 . S
C164 C166 1.426 . S
C165 C164 1.382 . S
C165 C169 1.389 . S
C166 C164 1.426 . S
C166 C167 1.375 . S
C166 C170 1.532 . S
C167 H157 0.930 . S
C167 C166 1.375 . S
C167 C168 1.416 . S
C168 C167 1.416 . S
C168 C169 1.371 . S
C169 H158 0.930 . S
C169 C165 1.389 . S
C169 C168 1.371 . S
C170 H159 0.970 . S
C170 H160 0.970 . S
C170 C166 1.532 . S
C170 C171 1.499 . S
C171 C170 1.499 . S
C171 C172 1.370 1_455 S
C171 C176 1.415 1_455 S
C172 H161 0.930 . S
C172 C171 1.370 1_655 S
C172 C173 1.407 . S
C173 C172 1.407 . S
C173 C174 1.365 . S
C174 H162 0.930 . S
C174 C173 1.365 . S
C174 C175 1.393 . S
C175 C174 1.393 . S
C175 C176 1.387 . S
C176 H163 0.930 . S
C176 C171 1.415 1_655 S
C176 C175 1.387 . S
H177 C185 0.930 . S
H178 C188 0.930 . S
H179 C190 0.930 . S
H180 C191 0.970 . S
H181 C191 0.970 . S
H182 C193 0.930 . S
H183 C195 0.930 . S
H184 C197 0.913 1_455 S
C185 H177 0.930 . S
C185 C186 1.382 . S
C185 C187 1.426 . S
C186 C185 1.382 . S
C186 C190 1.389 . S
C187 C185 1.426 . S
C187 C188 1.375 . S
C187 C191 1.532 . S
C188 H178 0.930 . S
C188 C187 1.375 . S
C188 C189 1.416 . S
C189 C188 1.416 . S
C189 C190 1.371 . S
C190 H179 0.930 . S
C190 C186 1.389 . S
C190 C189 1.371 . S
C191 H180 0.970 . S
C191 H181 0.970 . S
C191 C187 1.532 . S
C191 C192 1.499 . S
C192 C191 1.499 . S
C192 C193 1.370 1_455 S
C192 C197 1.415 1_455 S
C193 H182 0.930 . S
C193 C192 1.370 1_655 S
C193 C194 1.407 . S
C194 C193 1.407 . S
C194 C195 1.365 . S
C195 H183 0.930 . S
C195 C194 1.365 . S
C195 C196 1.393 . S
C196 C195 1.393 . S
C196 C197 1.387 . S
C197 H184 0.913 1_655 S
C197 C192 1.415 1_655 S
C197 C196 1.387 . S
H198 C206 0.930 . S
H199 C209 0.930 . S
H200 C211 0.930 . S
H201 C212 0.970 . S
H202 C212 0.970 . S
H203 C214 0.930 . S
H204 C216 0.930 . S
H205 C218 0.930 . S
C206 H198 0.930 . S
C206 C207 1.382 . S
C206 C208 1.426 . S
C207 C206 1.382 . S
C207 C211 1.389 . S
C208 C206 1.426 . S
C208 C209 1.375 . S
C208 C212 1.532 . S
C209 H199 0.930 . S
C209 C208 1.375 . S
C209 C210 1.416 . S
C210 C209 1.416 . S
C210 C211 1.371 . S
C211 H200 0.930 . S
C211 C207 1.389 . S
C211 C210 1.371 . S
C212 H201 0.970 . S
C212 H202 0.970 . S
C212 C208 1.532 . S
C212 C213 1.499 . S
C213 C212 1.499 . S
C213 C214 1.370 . S
C213 C218 1.415 . S
C214 H203 0.930 . S
C214 C213 1.370 . S
C214 C215 1.407 . S
C215 C214 1.407 . S
C215 C216 1.365 . S
C216 H204 0.930 . S
C216 C215 1.365 . S
C216 C217 1.393 . S
C217 C216 1.393 . S
C217 C218 1.387 . S
C218 H205 0.930 . S
C218 C213 1.415 . S
C218 C217 1.387 . S
H219 C227 0.930 . S
H220 C230 0.930 . S
H221 C232 0.930 . S
H222 C233 0.970 . S
H223 C233 0.970 . S
H224 C235 0.930 . S
H225 C237 0.930 . S
H226 C239 0.930 . S
C227 H219 0.930 . S
C227 C228 1.382 . S
C227 C229 1.426 . S
C228 C227 1.382 . S
C228 C232 1.389 . S
C229 C227 1.426 . S
C229 C230 1.375 . S
C229 C233 1.532 . S
C230 H220 0.930 . S
C230 C229 1.375 . S
C230 C231 1.416 . S
C231 C230 1.416 . S
C231 C232 1.371 . S
C232 H221 0.930 . S
C232 C228 1.389 . S
C232 C231 1.371 . S
C233 H222 0.970 . S
C233 H223 0.970 . S
C233 C229 1.532 . S
C233 C234 1.499 . S
C234 C233 1.499 . S
C234 C235 1.370 . S
C234 C239 1.415 . S
C235 H224 0.930 . S
C235 C234 1.370 . S
C235 C236 1.407 . S
C236 C235 1.407 . S
C236 C237 1.365 . S
C237 H225 0.930 . S
C237 C236 1.365 . S
C237 C238 1.393 . S
C238 C237 1.393 . S
C238 C239 1.387 . S
C239 H226 0.930 . S
C239 C234 1.415 . S
C239 C238 1.387 . S
H240 C248 0.930 . S
H241 C251 0.930 . S
H242 C253 0.930 . S
H243 C254 0.970 . S
H244 C254 0.970 . S
H245 C256 0.930 . S
H246 C258 0.930 . S
H247 C260 0.930 . S
C248 H240 0.930 . S
C248 C249 1.382 . S
C248 C250 1.426 1_545 S
C249 C248 1.382 . S
C249 C253 1.389 . S
C250 C248 1.426 1_565 S
C250 C251 1.375 1_565 S
C250 C254 1.532 . S
C251 H241 0.930 . S
C251 C250 1.375 1_545 S
C251 C252 1.416 . S
C252 C251 1.416 . S
C252 C253 1.371 . S
C253 H242 0.930 . S
C253 C249 1.389 . S
C253 C252 1.371 . S
C254 H243 0.970 . S
C254 H244 0.970 . S
C254 C250 1.532 . S
C254 C255 1.499 . S
C255 C254 1.499 . S
C255 C256 1.370 . S
C255 C260 1.415 . S
C256 H245 0.930 . S
C256 C255 1.370 . S
C256 C257 1.407 . S
C257 C256 1.407 . S
C257 C258 1.365 . S
C258 H246 0.930 . S
C258 C257 1.365 . S
C258 C259 1.393 . S
C259 C258 1.393 . S
C259 C260 1.387 . S
C260 H247 0.930 . S
C260 C255 1.415 . S
C260 C259 1.387 . S
H261 C269 0.930 . S
H262 C272 0.930 . S
H263 C274 0.930 . S
H264 C275 0.970 . S
H265 C275 0.970 . S
H266 C277 0.930 . S
H267 C279 0.930 . S
H268 C281 0.930 . S
C269 H261 0.930 . S
C269 C270 1.382 . S
C269 C271 1.426 . S
C270 C269 1.382 . S
C270 C274 1.389 . S
C271 C269 1.426 . S
C271 C272 1.375 . S
C271 C275 1.532 . S
C272 H262 0.930 . S
C272 C271 1.375 . S
C272 C273 1.416 . S
C273 C272 1.416 . S
C273 C274 1.371 . S
C274 H263 0.930 . S
C274 C270 1.389 . S
C274 C273 1.371 . S
C275 H264 0.970 . S
C275 H265 0.970 . S
C275 C271 1.532 . S
C275 C276 1.499 . S
C276 C275 1.499 . S
C276 C277 1.370 . S
C276 C281 1.415 . S
C277 H266 0.930 . S
C277 C276 1.370 . S
C277 C278 1.407 . S
C278 C277 1.407 . S
C278 C279 1.365 . S
C279 H267 0.930 . S
C279 C278 1.365 . S
C279 C280 1.393 . S
C280 C279 1.393 . S
C280 C281 1.387 . S
C281 H268 0.930 . S
C281 C276 1.415 . S
C281 C280 1.387 . S
H282 C290 0.930 . S
H283 C293 0.930 . S
H284 C295 0.930 . S
H285 C296 0.970 . S
H286 C296 0.970 . S
H287 C298 0.930 . S
H288 C300 0.930 . S
H289 C302 0.930 . S
C290 H282 0.930 . S
C290 C291 1.382 . S
C290 C292 1.426 1_565 S
C291 C290 1.382 . S
C291 C295 1.389 . S
C292 C290 1.426 1_545 S
C292 C293 1.375 1_545 S
C292 C296 1.532 . S
C293 H283 0.930 . S
C293 C292 1.375 1_565 S
C293 C294 1.416 . S
C294 C293 1.416 . S
C294 C295 1.371 . S
C295 H284 0.930 . S
C295 C291 1.389 . S
C295 C294 1.371 . S
C296 H285 0.970 . S
C296 H286 0.970 . S
C296 C292 1.532 . S
C296 C297 1.499 . S
C297 C296 1.499 . S
C297 C298 1.370 . S
C297 C302 1.415 . S
C298 H287 0.930 . S
C298 C297 1.370 . S
C298 C299 1.407 . S
C299 C298 1.407 . S
C299 C300 1.365 . S
C300 H288 0.930 . S
C300 C299 1.365 . S
C300 C301 1.393 . S
C301 C300 1.393 . S
C301 C302 1.387 . S
C302 H289 0.930 . S
C302 C297 1.415 . S
C302 C301 1.387 . S
H303 C311 0.930 . S
H304 C314 0.930 . S
H305 C316 0.930 . S
H306 C317 0.970 . S
H307 C317 0.970 . S
H308 C319 0.930 . S
H309 C321 0.930 . S
H310 C323 0.930 . S
C311 H303 0.930 . S
C311 C312 1.382 . S
C311 C313 1.426 . S
C312 C311 1.382 . S
C312 C316 1.389 . S
C313 C311 1.426 . S
C313 C314 1.375 . S
C313 C317 1.532 . S
C314 H304 0.930 . S
C314 C313 1.375 . S
C314 C315 1.416 . S
C315 C314 1.416 . S
C315 C316 1.371 . S
C316 H305 0.930 . S
C316 C312 1.389 . S
C316 C315 1.371 . S
C317 H306 0.970 . S
C317 H307 0.970 . S
C317 C313 1.532 . S
C317 C318 1.499 . S
C318 C317 1.499 . S
C318 C319 1.370 1_554 S
C318 C323 1.415 1_554 S
C319 H308 0.930 . S
C319 C318 1.370 1_556 S
C319 C320 1.407 . S
C320 C319 1.407 . S
C320 C321 1.365 . S
C321 H309 0.930 . S
C321 C320 1.365 . S
C321 C322 1.393 . S
C322 C321 1.393 . S
C322 C323 1.387 . S
C323 H310 0.930 . S
C323 C318 1.415 1_556 S
C323 C322 1.387 . S
H324 C332 0.930 . S
H325 C335 0.930 . S
H326 C337 0.930 . S
H327 C338 0.970 . S
H328 C338 0.970 . S
H329 C340 0.930 . S
H330 C342 0.930 . S
H331 C344 0.930 . S
C332 H324 0.930 . S
C332 C333 1.382 . S
C332 C334 1.426 . S
C333 C332 1.382 . S
C333 C337 1.389 . S
C334 C332 1.426 . S
C334 C335 1.375 . S
C334 C338 1.532 . S
C335 H325 0.930 . S
C335 C334 1.375 . S
C335 C336 1.416 . S
C336 C335 1.416 . S
C336 C337 1.371 . S
C337 H326 0.930 . S
C337 C333 1.389 . S
C337 C336 1.371 . S
C338 H327 0.970 . S
C338 H328 0.970 . S
C338 C334 1.532 . S
C338 C339 1.499 . S
C339 C338 1.499 . S
C339 C340 1.370 1_554 S
C339 C344 1.415 1_554 S
C340 H329 0.930 . S
C340 C339 1.370 1_556 S
C340 C341 1.407 . S
C341 C340 1.407 . S
C341 C342 1.365 . S
C342 H330 0.930 . S
C342 C341 1.365 . S
C342 C343 1.393 . S
C343 C342 1.393 . S
C343 C344 1.387 . S
C344 H331 0.930 . S
C344 C339 1.415 1_556 S
C344 C343 1.387 . S
H345 C353 0.930 . S
H346 C356 0.930 . S
H347 C358 0.930 . S
H348 C359 0.970 . S
H349 C359 0.970 . S
H350 C361 0.930 . S
H351 C363 0.930 . S
H352 C365 0.930 . S
C353 H345 0.930 . S
C353 C354 1.382 . S
C353 C355 1.426 . S
C354 C353 1.382 . S
C354 C358 1.389 . S
C355 C353 1.426 . S
C355 C356 1.375 . S
C355 C359 1.532 . S
C356 H346 0.930 . S
C356 C355 1.375 . S
C356 C357 1.416 . S
C357 C356 1.416 . S
C357 C358 1.371 . S
C358 H347 0.930 . S
C358 C354 1.389 . S
C358 C357 1.371 . S
C359 H348 0.970 . S
C359 H349 0.970 . S
C359 C355 1.532 . S
C359 C360 1.499 . S
C360 C359 1.499 . S
C360 C361 1.370 . S
C360 C365 1.415 . S
C361 H350 0.930 . S
C361 C360 1.370 . S
C361 C362 1.407 . S
C362 C361 1.407 . S
C362 C363 1.365 . S
C363 H351 0.930 . S
C363 C362 1.365 . S
C363 C364 1.393 . S
C364 C363 1.393 . S
C364 C365 1.387 . S
C365 H352 0.930 . S
C365 C360 1.415 . S
C365 C364 1.387 . S
H366 C374 0.930 . S
H367 C377 0.930 . S
H368 C379 0.930 . S
H369 C380 0.970 . S
H370 C380 0.970 . S
H371 C382 0.930 . S
H372 C384 0.930 . S
H373 C386 0.930 . S
C374 H366 0.930 . S
C374 C375 1.382 . S
C374 C376 1.426 . S
C375 C374 1.382 . S
C375 C379 1.389 . S
C376 C374 1.426 . S
C376 C377 1.375 . S
C376 C380 1.532 . S
C377 H367 0.930 . S
C377 C376 1.375 . S
C377 C378 1.416 . S
C378 C377 1.416 . S
C378 C379 1.371 . S
C379 H368 0.930 . S
C379 C375 1.389 . S
C379 C378 1.371 . S
C380 H369 0.970 . S
C380 H370 0.970 . S
C380 C376 1.532 . S
C380 C381 1.499 . S
C381 C380 1.499 . S
C381 C382 1.370 . S
C381 C386 1.415 . S
C382 H371 0.930 . S
C382 C381 1.370 . S
C382 C383 1.407 . S
C383 C382 1.407 . S
C383 C384 1.365 . S
C384 H372 0.930 . S
C384 C383 1.365 . S
C384 C385 1.393 . S
C385 C384 1.393 . S
C385 C386 1.387 . S
C386 H373 0.930 . S
C386 C381 1.415 . S
C386 C385 1.387 . S
H387 C395 0.930 . S
H388 C398 0.930 . S
H389 C400 0.930 . S
H390 C401 0.970 . S
H391 C401 0.970 . S
H392 C403 0.930 . S
H393 C405 0.930 . S
H394 C407 0.930 . S
C395 H387 0.930 . S
C395 C396 1.382 . S
C395 C397 1.426 . S
C396 C395 1.382 . S
C396 C400 1.389 . S
C397 C395 1.426 . S
C397 C398 1.375 . S
C397 C401 1.532 . S
C398 H388 0.930 . S
C398 C397 1.375 . S
C398 C399 1.416 . S
C399 C398 1.416 . S
C399 C400 1.371 . S
C400 H389 0.930 . S
C400 C396 1.389 . S
C400 C399 1.371 . S
C401 H390 0.970 . S
C401 H391 0.970 . S
C401 C397 1.532 . S
C401 C402 1.499 . S
C402 C401 1.499 . S
C402 C403 1.370 . S
C402 C407 1.415 . S
C403 H392 0.930 . S
C403 C402 1.370 . S
C403 C404 1.407 . S
C404 C403 1.407 . S
C404 C405 1.365 . S
C405 H393 0.930 . S
C405 C404 1.365 . S
C405 C406 1.393 . S
C406 C405 1.393 . S
C406 C407 1.387 . S
C407 H394 0.930 . S
C407 C402 1.415 . S
C407 C406 1.387 . S
C408 C409 1.349 1_655 S
C408 C410 1.327 1_655 S
C408 H433 0.950 . S
C409 C408 1.349 1_455 S
C409 C425 1.349 . S
C410 C408 1.327 1_455 S
C410 C429 1.427 1_554 S
C410 H434 0.950 1_454 S
C411 C428 1.574 . S
C411 C430 1.368 . S
C411 H435 0.949 . S
H412 C416 0.949 . S
C413 C414 1.349 . S
C413 C415 1.327 . S
C413 H436 0.950 . S
C414 C413 1.349 . S
C414 C426 1.349 . S
C415 C413 1.327 . S
C415 C431 1.429 . S
C415 H437 0.950 . S
C416 H412 0.949 . S
C416 C424 1.574 . S
C416 C432 1.368 . S
H417 C425 0.950 . S
H418 C423 0.950 . S
H419 C424 0.949 . S
H420 C426 0.950 . S
H421 C427 0.950 . S
H422 C428 0.949 . S
C423 H418 0.950 . S
C423 C425 1.327 . S
C423 C429 1.415 1_554 S
C424 C416 1.574 . S
C424 H419 0.949 . S
C424 C430 1.368 . S
C425 C409 1.349 . S
C425 H417 0.950 . S
C425 C423 1.327 . S
C426 C414 1.349 . S
C426 H420 0.950 . S
C426 C427 1.327 . S
C427 H421 0.950 . S
C427 C426 1.327 . S
C427 C431 1.429 . S
C428 C411 1.574 . S
C428 H422 0.949 . S
C428 C432 1.368 . S
C429 C410 1.427 1_556 S
C429 C423 1.415 1_556 S
C429 C430 1.537 . S
C430 C411 1.368 . S
C430 C424 1.368 . S
C430 C429 1.537 . S
C431 C415 1.429 . S
C431 C427 1.429 . S
C431 C432 1.523 . S
C432 C416 1.368 . S
C432 C428 1.368 . S
C432 C431 1.523 . S
H433 C408 0.950 . S
H434 C410 0.950 1_656 S
H435 C411 0.949 . S
H436 C413 0.950 . S
H437 C415 0.950 . S
C438 C439 1.349 . S
C438 C440 1.327 . S
C438 H463 0.950 . S
C439 C438 1.349 . S
C439 C455 1.349 . S
C440 C438 1.327 . S
C440 C459 1.429 . S
C440 H464 0.950 . S
C441 C458 1.574 . S
C441 C460 1.368 . S
C441 H465 0.949 . S
H442 C446 0.949 . S
C443 C444 1.349 . S
C443 C445 1.327 . S
C443 H466 0.950 . S
C444 C443 1.349 . S
C444 C456 1.349 . S
C445 C443 1.327 . S
C445 C461 1.429 . S
C445 H467 0.950 . S
C446 H442 0.949 . S
C446 C454 1.574 . S
C446 C462 1.368 . S
H447 C455 0.950 . S
H448 C453 0.950 . S
H449 C454 0.949 . S
H450 C456 0.950 . S
H451 C457 0.950 . S
H452 C458 0.949 . S
C453 H448 0.950 . S
C453 C455 1.327 . S
C453 C459 1.429 . S
C454 C446 1.574 . S
C454 H449 0.949 . S
C454 C460 1.368 . S
C455 C439 1.349 . S
C455 H447 0.950 . S
C455 C453 1.327 . S
C456 C444 1.349 . S
C456 H450 0.950 . S
C456 C457 1.327 . S
C457 H451 0.950 . S
C457 C456 1.327 . S
C457 C461 1.429 . S
C458 C441 1.574 . S
C458 H452 0.949 . S
C458 C462 1.368 . S
C459 C440 1.429 . S
C459 C453 1.429 . S
C459 C460 1.523 . S
C460 C441 1.368 . S
C460 C454 1.368 . S
C460 C459 1.523 . S
C461 C445 1.429 . S
C461 C457 1.429 . S
C461 C462 1.523 . S
C462 C446 1.368 . S
C462 C458 1.368 . S
C462 C461 1.523 . S
H463 C438 0.950 . S
H464 C440 0.950 . S
H465 C441 0.949 . S
H466 C443 0.950 . S
H467 C445 0.950 . S
C468 C469 1.349 . S
C468 C470 1.327 . S
C468 H493 0.950 . S
C469 C468 1.349 . S
C469 C485 1.349 . S
C470 C468 1.327 . S
C470 C489 1.429 . S
C470 H494 0.950 . S
C471 C488 1.574 . S
C471 C490 1.368 . S
C471 H495 0.949 . S
H472 C476 0.949 . S
C473 C474 1.349 . S
C473 C475 1.327 . S
C473 H496 0.950 . S
C474 C473 1.349 . S
C474 C486 1.349 . S
C475 C473 1.327 . S
C475 C491 1.429 . S
C475 H497 0.950 . S
C476 H472 0.949 . S
C476 C484 1.574 . S
C476 C492 1.368 . S
H477 C485 0.950 . S
H478 C483 0.950 . S
H479 C484 0.949 . S
H480 C486 0.950 . S
H481 C487 0.950 . S
H482 C488 0.949 . S
C483 H478 0.950 . S
C483 C485 1.327 . S
C483 C489 1.429 . S
C484 C476 1.574 . S
C484 H479 0.949 . S
C484 C490 1.368 . S
C485 C469 1.349 . S
C485 H477 0.950 . S
C485 C483 1.327 . S
C486 C474 1.349 . S
C486 H480 0.950 . S
C486 C487 1.327 . S
C487 H481 0.950 . S
C487 C486 1.327 . S
C487 C491 1.429 . S
C488 C471 1.574 . S
C488 H482 0.949 . S
C488 C492 1.368 . S
C489 C470 1.429 . S
C489 C483 1.429 . S
C489 C490 1.523 . S
C490 C471 1.368 . S
C490 C484 1.368 . S
C490 C489 1.523 . S
C491 C475 1.429 . S
C491 C487 1.429 . S
C491 C492 1.523 . S
C492 C476 1.368 . S
C492 C488 1.368 . S
C492 C491 1.523 . S
H493 C468 0.950 . S
H494 C470 0.950 . S
H495 C471 0.949 . S
H496 C473 0.950 . S
H497 C475 0.950 . S
C498 C499 1.349 . S
C498 C500 1.327 . S
C498 H523 0.950 . S
C499 C498 1.349 . S
C499 C515 1.349 . S
C500 C498 1.327 . S
C500 C519 1.429 . S
C500 H524 0.950 . S
C501 C518 1.574 . S
C501 C520 1.368 . S
C501 H525 0.949 . S
H502 C506 0.949 . S
C503 C504 1.349 . S
C503 C505 1.327 . S
C503 H526 0.950 . S
C504 C503 1.349 . S
C504 C516 1.349 . S
C505 C503 1.327 . S
C505 C521 1.429 . S
C505 H527 0.950 . S
C506 H502 0.949 . S
C506 C514 1.574 . S
C506 C522 1.368 . S
H507 C515 0.950 . S
H508 C513 0.950 . S
H509 C514 0.949 . S
H510 C516 0.950 . S
H511 C517 0.950 . S
H512 C518 0.949 . S
C513 H508 0.950 . S
C513 C515 1.327 . S
C513 C519 1.429 . S
C514 C506 1.574 . S
C514 H509 0.949 . S
C514 C520 1.368 . S
C515 C499 1.349 . S
C515 H507 0.950 . S
C515 C513 1.327 . S
C516 C504 1.349 . S
C516 H510 0.950 . S
C516 C517 1.327 . S
C517 H511 0.950 . S
C517 C516 1.327 . S
C517 C521 1.429 . S
C518 C501 1.574 . S
C518 H512 0.949 . S
C518 C522 1.368 . S
C519 C500 1.429 . S
C519 C513 1.429 . S
C519 C520 1.523 . S
C520 C501 1.368 . S
C520 C514 1.368 . S
C520 C519 1.523 . S
C521 C505 1.429 . S
C521 C517 1.429 . S
C521 C522 1.523 . S
C522 C506 1.368 . S
C522 C518 1.368 . S
C522 C521 1.523 . S
H523 C498 0.950 . S
H524 C500 0.950 . S
H525 C501 0.949 . S
H526 C503 0.950 . S
H527 C505 0.950 . S
C528 C529 1.349 . S
C528 C530 1.327 . S
C528 H553 0.950 . S
C529 C528 1.349 . S
C529 C545 1.349 . S
C530 C528 1.327 . S
C530 C549 1.429 . S
C530 H554 0.950 . S
C531 C548 1.574 . S
C531 C550 1.368 . S
C531 H555 0.949 . S
H532 C536 0.949 . S
C533 C534 1.349 . S
C533 C535 1.327 . S
C533 H556 0.950 . S
C534 C533 1.349 . S
C534 C546 1.349 . S
C535 C533 1.327 . S
C535 C551 1.429 . S
C535 H557 0.950 . S
C536 H532 0.949 . S
C536 C544 1.574 . S
C536 C552 1.368 . S
H537 C545 0.960 . S
H538 C543 0.950 . S
H539 C544 0.949 . S
H540 C546 0.950 . S
H541 C547 0.950 . S
H542 C548 0.949 . S
C543 H538 0.950 . S
C543 C545 1.327 . S
C543 C549 1.429 . S
C544 C536 1.574 . S
C544 H539 0.949 . S
C544 C550 1.368 . S
C545 C529 1.349 . S
C545 H537 0.960 . S
C545 C543 1.327 . S
C546 C534 1.349 . S
C546 H540 0.950 . S
C546 C547 1.327 . S
C547 H541 0.950 . S
C547 C546 1.327 . S
C547 C551 1.429 . S
C548 C531 1.574 . S
C548 H542 0.949 . S
C548 C552 1.368 . S
C549 C530 1.429 . S
C549 C543 1.429 . S
C549 C550 1.523 . S
C550 C531 1.368 . S
C550 C544 1.368 . S
C550 C549 1.523 . S
C551 C535 1.429 . S
C551 C547 1.429 . S
C551 C552 1.523 . S
C552 C536 1.368 . S
C552 C548 1.368 . S
C552 C551 1.523 . S
H553 C528 0.950 . S
H554 C530 0.950 . S
H555 C531 0.949 . S
H556 C533 0.950 . S
H557 C535 0.950 . S
C558 C559 1.349 . S
C558 C560 1.327 . S
C558 H583 0.950 . S
C559 C558 1.349 . S
C559 C575 1.349 . S
C560 C558 1.327 . S
C560 C579 1.429 . S
C560 H584 0.950 . S
C561 C578 1.574 . S
C561 C580 1.368 . S
C561 H585 0.949 . S
H562 C566 0.949 . S
C563 C564 1.349 . S
C563 C565 1.327 . S
C563 H586 0.950 . S
C564 C563 1.349 . S
C564 C576 1.349 . S
C565 C563 1.327 . S
C565 C581 1.429 . S
C565 H587 0.950 . S
C566 H562 0.949 . S
C566 C574 1.574 . S
C566 C582 1.368 . S
H567 C575 0.950 . S
H568 C573 0.950 . S
H569 C574 0.949 . S
H570 C576 0.950 . S
H571 C577 0.950 . S
H572 C578 0.949 . S
C573 H568 0.950 . S
C573 C575 1.327 . S
C573 C579 1.429 . S
C574 C566 1.574 . S
C574 H569 0.949 . S
C574 C580 1.368 . S
C575 C559 1.349 . S
C575 H567 0.950 . S
C575 C573 1.327 . S
C576 C564 1.349 . S
C576 H570 0.950 . S
C576 C577 1.327 . S
C577 H571 0.950 . S
C577 C576 1.327 . S
C577 C581 1.429 . S
C578 C561 1.574 . S
C578 H572 0.949 . S
C578 C582 1.368 . S
C579 C560 1.429 . S
C579 C573 1.429 . S
C579 C580 1.523 . S
C580 C561 1.368 . S
C580 C574 1.368 . S
C580 C579 1.523 . S
C581 C565 1.429 . S
C581 C577 1.429 . S
C581 C582 1.523 . S
C582 C566 1.368 . S
C582 C578 1.368 . S
C582 C581 1.523 . S
H583 C558 0.950 . S
H584 C560 0.950 . S
H585 C561 0.949 . S
H586 C563 0.950 . S
H587 C565 0.950 . S
C588 C589 1.349 . S
C588 C590 1.327 1_556 S
C588 H613 0.950 . S
C589 C588 1.349 . S
C589 C605 1.349 . S
C590 C588 1.327 1_554 S
C590 C609 1.429 . S
C590 H614 0.950 . S
C591 C608 1.574 . S
C591 C610 1.368 . S
C591 H615 0.949 . S
H592 C596 0.949 . S
C593 C594 1.349 . S
C593 C595 1.327 . S
C593 H616 0.950 . S
C594 C593 1.349 . S
C594 C606 1.349 . S
C595 C593 1.327 . S
C595 C611 1.429 . S
C595 H617 0.950 . S
C596 H592 0.949 . S
C596 C604 1.574 . S
C596 C612 1.368 . S
H597 C605 0.950 . S
H598 C603 0.950 . S
H599 C604 0.949 . S
H600 C606 0.950 . S
H601 C607 0.950 . S
H602 C608 0.949 . S
C603 H598 0.950 . S
C603 C605 1.327 . S
C603 C609 1.429 1_556 S
C604 C596 1.574 . S
C604 H599 0.949 . S
C604 C610 1.368 . S
C605 C589 1.349 . S
C605 H597 0.950 . S
C605 C603 1.327 . S
C606 C594 1.349 . S
C606 H600 0.950 . S
C606 C607 1.327 . S
C607 H601 0.950 . S
C607 C606 1.327 . S
C607 C611 1.429 . S
C608 C591 1.574 . S
C608 H602 0.949 . S
C608 C612 1.368 . S
C609 C590 1.429 . S
C609 C603 1.429 1_554 S
C609 C610 1.523 . S
C610 C591 1.368 . S
C610 C604 1.368 . S
C610 C609 1.523 . S
C611 C595 1.429 . S
C611 C607 1.429 . S
C611 C612 1.523 . S
C612 C596 1.368 . S
C612 C608 1.368 . S
C612 C611 1.523 . S
H613 C588 0.950 . S
H614 C590 0.950 . S
H615 C591 0.949 . S
H616 C593 0.950 . S
H617 C595 0.950 . S
C618 C619 1.349 . S
C618 C620 1.327 . S
C618 H643 0.950 . S
C619 C618 1.349 . S
C619 C635 1.349 . S
C620 C618 1.327 . S
C620 C639 1.429 . S
C620 H644 0.950 . S
C621 C638 1.574 . S
C621 C640 1.368 . S
C621 H645 0.949 . S
H622 C626 0.949 . S
C623 C624 1.349 . S
C623 C625 1.327 . S
C623 H646 0.950 . S
C624 C623 1.349 . S
C624 C636 1.349 . S
C625 C623 1.327 . S
C625 C641 1.429 . S
C625 H647 0.950 . S
C626 H622 0.949 . S
C626 C634 1.574 . S
C626 C642 1.368 . S
H627 C635 0.950 . S
H628 C633 0.950 . S
H629 C634 0.949 . S
H630 C636 0.950 . S
H631 C637 0.950 . S
H632 C638 0.949 . S
C633 H628 0.950 . S
C633 C635 1.327 . S
C633 C639 1.429 . S
C634 C626 1.574 . S
C634 H629 0.949 . S
C634 C640 1.368 . S
C635 C619 1.349 . S
C635 H627 0.950 . S
C635 C633 1.327 . S
C636 C624 1.349 . S
C636 H630 0.950 . S
C636 C637 1.327 . S
C637 H631 0.950 . S
C637 C636 1.327 . S
C637 C641 1.429 . S
C638 C621 1.574 . S
C638 H632 0.949 . S
C638 C642 1.368 . S
C639 C620 1.429 . S
C639 C633 1.429 . S
C639 C640 1.523 . S
C640 C621 1.368 . S
C640 C634 1.368 . S
C640 C639 1.523 . S
C641 C625 1.429 . S
C641 C637 1.429 . S
C641 C642 1.523 . S
C642 C626 1.368 . S
C642 C638 1.368 . S
C642 C641 1.523 . S
H643 C618 0.950 . S
H644 C620 0.950 . S
H645 C621 0.949 . S
H646 C623 0.950 . S
H647 C625 0.950 . S
C648 C649 1.349 . S
C648 C650 1.327 . S
C648 H673 0.950 . S
C649 C648 1.349 . S
C649 C665 1.349 1_545 S
C650 C648 1.327 . S
C650 C669 1.428 . S
C650 H674 0.950 . S
C651 C668 1.574 . S
C651 C670 1.368 . S
C651 H675 0.949 1_545 S
H652 C656 0.949 . S
C653 C654 1.349 . S
C653 C655 1.327 . S
C653 H676 0.950 . S
C654 C653 1.349 . S
C654 C666 1.349 . S
C655 C653 1.327 . S
C655 C671 1.429 . S
C655 H677 0.950 . S
C656 H652 0.949 . S
C656 C664 1.574 . S
C656 C672 1.368 . S
H657 C665 0.950 . S
H658 C663 0.950 1_565 S
H659 C664 0.949 . S
H660 C666 0.950 . S
H661 C667 0.950 . S
H662 C668 0.949 . S
C663 H658 0.950 1_545 S
C663 C665 1.327 1_545 S
C663 C669 1.428 . S
C664 C656 1.574 . S
C664 H659 0.949 . S
C664 C670 1.368 . S
C665 C649 1.349 1_565 S
C665 H657 0.950 . S
C665 C663 1.327 1_565 S
C666 C654 1.349 . S
C666 H660 0.950 . S
C666 C667 1.327 . S
C667 H661 0.950 . S
C667 C666 1.327 . S
C667 C671 1.429 . S
C668 C651 1.574 . S
C668 H662 0.949 . S
C668 C672 1.368 . S
C669 C650 1.428 . S
C669 C663 1.428 . S
C669 C670 1.523 1_455 S
C670 C651 1.368 . S
C670 C664 1.368 . S
C670 C669 1.523 1_655 S
C671 C655 1.429 . S
C671 C667 1.429 . S
C671 C672 1.523 . S
C672 C656 1.368 . S
C672 C668 1.368 . S
C672 C671 1.523 . S
H673 C648 0.950 . S
H674 C650 0.950 . S
H675 C651 0.949 1_565 S
H676 C653 0.950 . S
H677 C655 0.950 . S
C678 C679 1.349 . S
C678 C680 1.327 . S
C678 H703 0.950 . S
C679 C678 1.349 . S
C679 C695 1.349 . S
C680 C678 1.327 . S
C680 C699 1.429 . S
C680 H704 0.950 . S
C681 C698 1.574 . S
C681 C700 1.368 . S
C681 H705 0.949 . S
H682 C686 0.949 . S
C683 C684 1.349 . S
C683 C685 1.327 . S
C683 H706 0.950 . S
C684 C683 1.349 . S
C684 C696 1.349 . S
C685 C683 1.327 . S
C685 C701 1.429 . S
C685 H707 0.950 . S
C686 H682 0.949 . S
C686 C694 1.574 . S
C686 C702 1.368 . S
H687 C695 0.950 . S
H688 C693 0.950 . S
H689 C694 0.949 . S
H690 C696 0.950 . S
H691 C697 0.950 . S
H692 C698 0.949 . S
C693 H688 0.950 . S
C693 C695 1.327 . S
C693 C699 1.429 . S
C694 C686 1.574 . S
C694 H689 0.949 . S
C694 C700 1.368 . S
C695 C679 1.349 . S
C695 H687 0.950 . S
C695 C693 1.327 . S
C696 C684 1.349 . S
C696 H690 0.950 . S
C696 C697 1.327 . S
C697 H691 0.950 . S
C697 C696 1.327 . S
C697 C701 1.429 . S
C698 C681 1.574 . S
C698 H692 0.949 . S
C698 C702 1.368 . S
C699 C680 1.429 . S
C699 C693 1.429 . S
C699 C700 1.523 . S
C700 C681 1.368 . S
C700 C694 1.368 . S
C700 C699 1.523 . S
C701 C685 1.429 . S
C701 C697 1.429 . S
C701 C702 1.523 . S
C702 C686 1.368 . S
C702 C698 1.368 . S
C702 C701 1.523 . S
H703 C678 0.950 . S
H704 C680 0.950 . S
H705 C681 0.949 . S
H706 C683 0.950 . S
H707 C685 0.950 . S
C708 C709 1.349 . S
C708 C710 1.327 . S
C708 H733 0.950 1_565 S
C709 C708 1.349 . S
C709 C725 1.349 . S
C710 C708 1.327 . S
C710 C729 1.429 . S
C710 H734 0.951 1_565 S
C711 C728 1.574 . S
C711 C730 1.368 . S
C711 H735 0.949 . S
H712 C716 0.949 . S
C713 C714 1.349 . S
C713 C715 1.327 . S
C713 H736 0.950 . S
C714 C713 1.349 . S
C714 C726 1.349 . S
C715 C713 1.327 . S
C715 C731 1.429 . S
C715 H737 0.950 . S
C716 H712 0.949 . S
C716 C724 1.574 . S
C716 C732 1.368 . S
H717 C725 0.950 . S
H718 C723 0.950 . S
H719 C724 0.949 . S
H720 C726 0.950 . S
H721 C727 0.950 . S
H722 C728 0.949 . S
C723 H718 0.950 . S
C723 C725 1.327 . S
C723 C729 1.429 . S
C724 C716 1.574 . S
C724 H719 0.949 . S
C724 C730 1.368 . S
C725 C709 1.349 . S
C725 H717 0.950 . S
C725 C723 1.327 . S
C726 C714 1.349 . S
C726 H720 0.950 . S
C726 C727 1.327 . S
C727 H721 0.950 . S
C727 C726 1.327 . S
C727 C731 1.429 . S
C728 C711 1.574 . S
C728 H722 0.949 . S
C728 C732 1.368 . S
C729 C710 1.429 . S
C729 C723 1.429 . S
C729 C730 1.523 . S
C730 C711 1.368 . S
C730 C724 1.368 . S
C730 C729 1.523 . S
C731 C715 1.429 . S
C731 C727 1.429 . S
C731 C732 1.523 . S
C732 C716 1.368 . S
C732 C728 1.368 . S
C732 C731 1.523 . S
H733 C708 0.950 1_545 S
H734 C710 0.951 1_545 S
H735 C711 0.949 . S
H736 C713 0.950 . S
H737 C715 0.950 . S
C738 C739 1.349 . S
C738 C740 1.327 . S
C738 H763 0.950 . S
C739 C738 1.349 . S
C739 C755 1.349 . S
C740 C738 1.327 . S
C740 C759 1.429 . S
C740 H764 0.950 . S
C741 C758 1.574 . S
C741 C760 1.368 . S
C741 H765 0.949 . S
H742 C746 0.949 . S
C743 C744 1.349 . S
C743 C745 1.327 . S
C743 H766 0.950 . S
C744 C743 1.349 . S
C744 C756 1.349 . S
C745 C743 1.327 . S
C745 C761 1.429 . S
C745 H767 0.950 . S
C746 H742 0.949 . S
C746 C754 1.574 . S
C746 C762 1.368 . S
H747 C755 0.950 . S
H748 C753 0.950 . S
H749 C754 0.949 . S
H750 C756 0.950 . S
H751 C757 0.950 . S
H752 C758 0.949 . S
C753 H748 0.950 . S
C753 C755 1.327 . S
C753 C759 1.429 . S
C754 C746 1.574 . S
C754 H749 0.949 . S
C754 C760 1.368 . S
C755 C739 1.349 . S
C755 H747 0.950 . S
C755 C753 1.327 . S
C756 C744 1.349 . S
C756 H750 0.950 . S
C756 C757 1.327 . S
C757 H751 0.950 . S
C757 C756 1.327 . S
C757 C761 1.429 . S
C758 C741 1.574 . S
C758 H752 0.949 . S
C758 C762 1.368 . S
C759 C740 1.429 . S
C759 C753 1.429 . S
C759 C760 1.523 . S
C760 C741 1.368 . S
C760 C754 1.368 . S
C760 C759 1.523 . S
C761 C745 1.429 . S
C761 C757 1.429 . S
C761 C762 1.523 . S
C762 C746 1.368 . S
C762 C758 1.368 . S
C762 C761 1.523 . S
H763 C738 0.950 . S
H764 C740 0.950 . S
H765 C741 0.949 . S
H766 C743 0.950 . S
H767 C745 0.950 . S
C768 C769 1.349 . S
C768 C770 1.327 . S
C768 H793 0.950 . S
C769 C768 1.349 . S
C769 C785 1.349 1_565 S
C770 C768 1.327 . S
C770 C789 1.430 . S
C770 H794 0.950 . S
C771 C788 1.574 . S
C771 C790 1.368 . S
C771 H795 0.949 1_565 S
H772 C776 0.949 . S
C773 C774 1.349 . S
C773 C775 1.327 . S
C773 H796 0.950 . S
C774 C773 1.349 . S
C774 C786 1.349 . S
C775 C773 1.327 . S
C775 C791 1.429 . S
C775 H797 0.950 . S
C776 H772 0.949 . S
C776 C784 1.574 . S
C776 C792 1.368 . S
H777 C785 0.950 . S
H778 C783 0.950 . S
H779 C784 0.949 . S
H780 C786 0.950 . S
H781 C787 0.950 . S
H782 C788 0.949 . S
C783 H778 0.950 . S
C783 C785 1.327 . S
C783 C789 1.430 1_545 S
C784 C776 1.574 . S
C784 H779 0.949 . S
C784 C790 1.368 . S
C785 C769 1.349 1_545 S
C785 H777 0.950 . S
C785 C783 1.327 . S
C786 C774 1.349 . S
C786 H780 0.950 . S
C786 C787 1.327 . S
C787 H781 0.950 . S
C787 C786 1.327 . S
C787 C791 1.429 . S
C788 C771 1.574 . S
C788 H782 0.949 . S
C788 C792 1.368 . S
C789 C770 1.430 . S
C789 C783 1.430 1_565 S
C789 C790 1.520 1_455 S
C790 C771 1.368 . S
C790 C784 1.368 . S
C790 C789 1.520 1_655 S
C791 C775 1.429 . S
C791 C787 1.429 . S
C791 C792 1.523 . S
C792 C776 1.368 . S
C792 C788 1.368 . S
C792 C791 1.523 . S
H793 C768 0.950 . S
H794 C770 0.950 . S
H795 C771 0.949 1_545 S
H796 C773 0.950 . S
H797 C775 0.950 . S
C798 C799 1.349 . S
C798 C800 1.327 . S
C798 H823 0.950 . S
C799 C798 1.349 . S
C799 C815 1.349 . S
C800 C798 1.327 . S
C800 C819 1.429 . S
C800 H824 0.950 . S
C801 C818 1.574 . S
C801 C820 1.368 . S
C801 H825 0.949 . S
H802 C806 0.949 . S
C803 C804 1.349 . S
C803 C805 1.327 . S
C803 H826 0.950 . S
C804 C803 1.349 . S
C804 C816 1.349 . S
C805 C803 1.327 . S
C805 C821 1.429 . S
C805 H827 0.950 . S
C806 H802 0.949 . S
C806 C814 1.574 . S
C806 C822 1.368 . S
H807 C815 0.950 . S
H808 C813 0.950 . S
H809 C814 0.949 . S
H810 C816 0.950 . S
H811 C817 0.950 . S
H812 C818 0.949 . S
C813 H808 0.950 . S
C813 C815 1.327 . S
C813 C819 1.429 . S
C814 C806 1.574 . S
C814 H809 0.949 . S
C814 C820 1.368 . S
C815 C799 1.349 . S
C815 H807 0.950 . S
C815 C813 1.327 . S
C816 C804 1.349 . S
C816 H810 0.950 . S
C816 C817 1.327 . S
C817 H811 0.950 . S
C817 C816 1.327 . S
C817 C821 1.429 . S
C818 C801 1.574 . S
C818 H812 0.949 . S
C818 C822 1.368 . S
C819 C800 1.429 . S
C819 C813 1.429 . S
C819 C820 1.523 . S
C820 C801 1.368 . S
C820 C814 1.368 . S
C820 C819 1.523 . S
C821 C805 1.429 . S
C821 C817 1.429 . S
C821 C822 1.523 . S
C822 C806 1.368 . S
C822 C818 1.368 . S
C822 C821 1.523 . S
H823 C798 0.950 . S
H824 C800 0.950 . S
H825 C801 0.949 . S
H826 C803 0.950 . S
H827 C805 0.950 . S
C828 C829 1.349 . S
C828 C830 1.327 . S
C828 H853 0.950 . S
C829 C828 1.349 . S
C829 C845 1.349 1_545 S
C830 C828 1.327 . S
C830 C849 1.429 . S
C830 H854 0.950 . S
C831 C848 1.574 . S
C831 C850 1.368 . S
C831 H855 0.949 1_545 S
H832 C836 0.949 . S
C833 C834 1.349 . S
C833 C835 1.327 . S
C833 H856 0.950 . S
C834 C833 1.349 . S
C834 C846 1.349 . S
C835 C833 1.327 . S
C835 C851 1.429 . S
C835 H857 0.950 . S
C836 H832 0.949 . S
C836 C844 1.574 . S
C836 C852 1.368 . S
H837 C845 0.950 . S
H838 C843 0.963 . S
H839 C844 0.949 . S
H840 C846 0.950 . S
H841 C847 0.950 . S
H842 C848 0.949 . S
C843 H838 0.963 . S
C843 C845 1.331 . S
C843 C849 1.412 1_565 S
C844 C836 1.574 . S
C844 H839 0.949 . S
C844 C850 1.368 . S
C845 C829 1.349 1_565 S
C845 H837 0.950 . S
C845 C843 1.331 . S
C846 C834 1.349 . S
C846 H840 0.950 . S
C846 C847 1.327 . S
C847 H841 0.950 . S
C847 C846 1.327 . S
C847 C851 1.429 . S
C848 C831 1.574 . S
C848 H842 0.949 . S
C848 C852 1.368 . S
C849 C830 1.429 . S
C849 C843 1.412 1_545 S
C849 C850 1.523 . S
C850 C831 1.368 . S
C850 C844 1.368 . S
C850 C849 1.523 . S
C851 C835 1.429 . S
C851 C847 1.429 . S
C851 C852 1.523 . S
C852 C836 1.368 . S
C852 C848 1.368 . S
C852 C851 1.523 . S
H853 C828 0.950 . S
H854 C830 0.950 . S
H855 C831 0.949 1_565 S
H856 C833 0.950 . S
H857 C835 0.950 . S
C858 C859 1.349 . S
C858 C860 1.327 . S
C858 H883 0.950 . S
C859 C858 1.349 . S
C859 C875 1.349 . S
C860 C858 1.327 . S
C860 C879 1.429 . S
C860 H884 0.950 . S
C861 C878 1.574 . S
C861 C880 1.368 . S
C861 H885 0.949 . S
H862 C866 0.949 . S
C863 C864 1.349 . S
C863 C865 1.327 . S
C863 H886 0.950 . S
C864 C863 1.349 . S
C864 C876 1.349 . S
C865 C863 1.327 . S
C865 C881 1.429 . S
C865 H887 0.950 . S
C866 H862 0.949 . S
C866 C874 1.574 . S
C866 C882 1.368 . S
H867 C875 0.950 . S
H868 C873 0.950 . S
H869 C874 0.949 . S
H870 C876 0.950 . S
H871 C877 0.950 . S
H872 C878 0.949 . S
C873 H868 0.950 . S
C873 C875 1.327 . S
C873 C879 1.429 . S
C874 C866 1.574 . S
C874 H869 0.949 . S
C874 C880 1.368 . S
C875 C859 1.349 . S
C875 H867 0.950 . S
C875 C873 1.327 . S
C876 C864 1.349 . S
C876 H870 0.950 . S
C876 C877 1.327 . S
C877 H871 0.950 . S
C877 C876 1.327 . S
C877 C881 1.429 . S
C878 C861 1.574 . S
C878 H872 0.949 . S
C878 C882 1.368 . S
C879 C860 1.429 . S
C879 C873 1.429 . S
C879 C880 1.523 . S
C880 C861 1.368 . S
C880 C874 1.368 . S
C880 C879 1.523 . S
C881 C865 1.429 . S
C881 C877 1.429 . S
C881 C882 1.523 . S
C882 C866 1.368 . S
C882 C878 1.368 . S
C882 C881 1.523 . S
H883 C858 0.950 . S
H884 C860 0.950 . S
H885 C861 0.949 . S
H886 C863 0.950 . S
H887 C865 0.950 . S
C888 C889 1.349 . S
C888 C890 1.310 1_545 S
C888 H913 0.950 . S
C889 C888 1.349 . S
C889 C905 1.349 . S
C890 C888 1.310 1_565 S
C890 C909 1.430 . S
C890 H914 0.966 . S
C891 C908 1.574 . S
C891 C910 1.368 . S
C891 H915 0.949 . S
H892 C896 0.949 . S
C893 C894 1.349 . S
C893 C895 1.327 . S
C893 H916 0.950 . S
C894 C893 1.349 . S
C894 C906 1.349 . S
C895 C893 1.327 . S
C895 C911 1.429 . S
C895 H917 0.950 . S
C896 H892 0.949 . S
C896 C904 1.574 . S
C896 C912 1.368 . S
H897 C905 0.950 . S
H898 C903 0.950 . S
H899 C904 0.949 . S
H900 C906 0.950 . S
H901 C907 0.950 . S
H902 C908 0.949 . S
C903 H898 0.950 . S
C903 C905 1.327 . S
C903 C909 1.429 1_545 S
C904 C896 1.574 . S
C904 H899 0.949 . S
C904 C910 1.368 . S
C905 C889 1.349 . S
C905 H897 0.950 . S
C905 C903 1.327 . S
C906 C894 1.349 . S
C906 H900 0.950 . S
C906 C907 1.327 . S
C907 H901 0.950 . S
C907 C906 1.327 . S
C907 C911 1.429 . S
C908 C891 1.574 . S
C908 H902 0.949 . S
C908 C912 1.368 . S
C909 C890 1.430 . S
C909 C903 1.429 1_565 S
C909 C910 1.523 . S
C910 C891 1.368 . S
C910 C904 1.368 . S
C910 C909 1.523 . S
C911 C895 1.429 . S
C911 C907 1.429 . S
C911 C912 1.523 . S
C912 C896 1.368 . S
C912 C908 1.368 . S
C912 C911 1.523 . S
H913 C888 0.950 . S
H914 C890 0.966 . S
H915 C891 0.949 . S
H916 C893 0.950 . S
H917 C895 0.950 . S
C918 C919 1.349 1_554 S
C918 C920 1.331 . S
C918 H943 0.950 . S
C919 C918 1.349 1_556 S
C919 C935 1.349 . S
C920 C918 1.331 . S
C920 C939 1.418 1_554 S
C920 H944 0.958 . S
C921 C938 1.574 . S
C921 C940 1.368 . S
C921 H945 0.949 . S
H922 C926 0.949 . S
C923 C924 1.349 . S
C923 C925 1.327 . S
C923 H946 0.950 . S
C924 C923 1.349 . S
C924 C936 1.349 . S
C925 C923 1.327 . S
C925 C941 1.429 . S
C925 H947 0.950 . S
C926 H922 0.949 . S
C926 C934 1.574 . S
C926 C942 1.368 . S
H927 C935 0.950 . S
H928 C933 0.950 . S
H929 C934 0.949 1_554 S
H930 C936 0.950 . S
H931 C937 0.950 . S
H932 C938 0.949 . S
C933 H928 0.950 . S
C933 C935 1.327 . S
C933 C939 1.429 . S
C934 C926 1.574 . S
C934 H929 0.949 1_556 S
C934 C940 1.368 . S
C935 C919 1.349 . S
C935 H927 0.950 . S
C935 C933 1.327 . S
C936 C924 1.349 . S
C936 H930 0.950 . S
C936 C937 1.327 . S
C937 H931 0.950 . S
C937 C936 1.327 . S
C937 C941 1.429 . S
C938 C921 1.574 . S
C938 H932 0.949 . S
C938 C942 1.368 . S
C939 C920 1.418 1_556 S
C939 C933 1.429 . S
C939 C940 1.523 . S
C940 C921 1.368 . S
C940 C934 1.368 . S
C940 C939 1.523 . S
C941 C925 1.429 . S
C941 C937 1.429 . S
C941 C942 1.523 . S
C942 C926 1.368 . S
C942 C938 1.368 . S
C942 C941 1.523 . S
H943 C918 0.950 . S
H944 C920 0.958 . S
H945 C921 0.949 . S
H946 C923 0.950 . S
H947 C925 0.950 . S
C948 C949 1.349 . S
C948 C950 1.327 . S
C948 H973 0.950 . S
C949 C948 1.349 . S
C949 C965 1.349 . S
C950 C948 1.327 . S
C950 C969 1.429 . S
C950 H974 0.950 . S
C951 C968 1.574 . S
C951 C970 1.368 . S
C951 H975 0.949 . S
H952 C956 0.949 . S
C953 C954 1.349 . S
C953 C955 1.327 . S
C953 H976 0.950 . S
C954 C953 1.349 . S
C954 C966 1.349 . S
C955 C953 1.327 . S
C955 C971 1.429 . S
C955 H977 0.950 . S
C956 H952 0.949 . S
C956 C964 1.574 . S
C956 C972 1.368 . S
H957 C965 0.950 . S
H958 C963 0.950 . S
H959 C964 0.949 . S
H960 C966 0.950 . S
H961 C967 0.950 . S
H962 C968 0.949 . S
C963 H958 0.950 . S
C963 C965 1.327 . S
C963 C969 1.429 . S
C964 C956 1.574 . S
C964 H959 0.949 . S
C964 C970 1.368 . S
C965 C949 1.349 . S
C965 H957 0.950 . S
C965 C963 1.327 . S
C966 C954 1.349 . S
C966 H960 0.950 . S
C966 C967 1.327 . S
C967 H961 0.950 . S
C967 C966 1.327 . S
C967 C971 1.429 . S
C968 C951 1.574 . S
C968 H962 0.949 . S
C968 C972 1.368 . S
C969 C950 1.429 . S
C969 C963 1.429 . S
C969 C970 1.523 . S
C970 C951 1.368 . S
C970 C964 1.368 . S
C970 C969 1.523 . S
C971 C955 1.429 . S
C971 C967 1.429 . S
C971 C972 1.523 . S
C972 C956 1.368 . S
C972 C968 1.368 . S
C972 C971 1.523 . S
H973 C948 0.950 . S
H974 C950 0.950 . S
H975 C951 0.949 . S
H976 C953 0.950 . S
H977 C955 0.950 . S
C978 C979 1.349 . S
C978 C980 1.327 . S
C978 H1003 0.950 . S
C979 C978 1.349 . S
C979 C995 1.349 . S
C980 C978 1.327 . S
C980 C999 1.429 . S
C980 H1004 0.950 . S
C981 C998 1.574 . S
C981 C1000 1.368 . S
C981 H1005 0.949 . S
H982 C986 0.949 . S
C983 C984 1.349 . S
C983 C985 1.327 . S
C983 H1006 0.950 . S
C984 C983 1.349 . S
C984 C996 1.349 . S
C985 C983 1.327 . S
C985 C1001 1.429 . S
C985 H1007 0.950 . S
C986 H982 0.949 . S
C986 C994 1.574 . S
C986 C1002 1.368 . S
H987 C995 0.950 . S
H988 C993 0.950 . S
H989 C994 0.949 . S
H990 C996 0.950 . S
H991 C997 0.950 . S
H992 C998 0.949 . S
C993 H988 0.950 . S
C993 C995 1.327 . S
C993 C999 1.429 . S
C994 C986 1.574 . S
C994 H989 0.949 . S
C994 C1000 1.368 . S
C995 C979 1.349 . S
C995 H987 0.950 . S
C995 C993 1.327 . S
C996 C984 1.349 . S
C996 H990 0.950 . S
C996 C997 1.327 . S
C997 H991 0.950 . S
C997 C996 1.327 . S
C997 C1001 1.429 . S
C998 C981 1.574 . S
C998 H992 0.949 . S
C998 C1002 1.368 . S
C999 C980 1.429 . S
C999 C993 1.429 . S
C999 C1000 1.523 . S
C1000 C981 1.368 . S
C1000 C994 1.368 . S
C1000 C999 1.523 . S
C1001 C985 1.429 . S
C1001 C997 1.429 . S
C1001 C1002 1.523 . S
C1002 C986 1.368 . S
C1002 C998 1.368 . S
C1002 C1001 1.523 . S
H1003 C978 0.950 . S
H1004 C980 0.950 . S
H1005 C981 0.949 . S
H1006 C983 0.950 . S
H1007 C985 0.950 . S
C1008 C1009 1.349 . S
C1008 C1010 1.327 . S
C1008 H1033 0.950 . S
C1009 C1008 1.349 . S
C1009 C1025 1.349 . S
C1010 C1008 1.327 . S
C1010 C1029 1.429 . S
C1010 H1034 0.950 . S
C1011 C1028 1.574 . S
C1011 C1030 1.368 . S
C1011 H1035 0.949 . S
H1012 C1016 0.949 . S
C1013 C1014 1.349 . S
C1013 C1015 1.327 . S
C1013 H1036 0.950 . S
C1014 C1013 1.349 . S
C1014 C1026 1.349 . S
C1015 C1013 1.327 . S
C1015 C1031 1.429 . S
C1015 H1037 0.950 . S
C1016 H1012 0.949 . S
C1016 C1024 1.574 . S
C1016 C1032 1.368 . S
H1017 C1025 0.950 . S
H1018 C1023 0.950 . S
H1019 C1024 0.949 . S
H1020 C1026 0.950 . S
H1021 C1027 0.950 . S
H1022 C1028 0.949 . S
C1023 H1018 0.950 . S
C1023 C1025 1.327 . S
C1023 C1029 1.429 . S
C1024 C1016 1.574 . S
C1024 H1019 0.949 . S
C1024 C1030 1.368 . S
C1025 C1009 1.349 . S
C1025 H1017 0.950 . S
C1025 C1023 1.327 . S
C1026 C1014 1.349 . S
C1026 H1020 0.950 . S
C1026 C1027 1.327 . S
C1027 H1021 0.950 . S
C1027 C1026 1.327 . S
C1027 C1031 1.429 . S
C1028 C1011 1.574 . S
C1028 H1022 0.949 . S
C1028 C1032 1.368 . S
C1029 C1010 1.429 . S
C1029 C1023 1.429 . S
C1029 C1030 1.523 . S
C1030 C1011 1.368 . S
C1030 C1024 1.368 . S
C1030 C1029 1.523 . S
C1031 C1015 1.429 . S
C1031 C1027 1.429 . S
C1031 C1032 1.523 . S
C1032 C1016 1.368 . S
C1032 C1028 1.368 . S
C1032 C1031 1.523 . S
H1033 C1008 0.950 . S
H1034 C1010 0.950 . S
H1035 C1011 0.949 . S
H1036 C1013 0.950 . S
H1037 C1015 0.950 . S
C1038 C1039 1.349 . S
C1038 C1040 1.327 . S
C1038 H1063 0.950 . S
C1039 C1038 1.349 . S
C1039 C1055 1.349 . S
C1040 C1038 1.327 . S
C1040 C1059 1.429 1_565 S
C1040 H1064 0.950 . S
C1041 C1058 1.574 . S
C1041 C1060 1.368 . S
C1041 H1065 0.949 . S
H1042 C1046 0.949 . S
C1043 C1044 1.349 . S
C1043 C1045 1.327 . S
C1043 H1066 0.950 . S
C1044 C1043 1.349 . S
C1044 C1056 1.349 . S
C1045 C1043 1.327 . S
C1045 C1061 1.429 . S
C1045 H1067 0.950 . S
C1046 H1042 0.949 . S
C1046 C1054 1.574 . S
C1046 C1062 1.368 . S
H1047 C1055 0.950 . S
H1048 C1053 0.950 1_545 S
H1049 C1054 0.949 . S
H1050 C1056 0.950 . S
H1051 C1057 0.950 . S
H1052 C1058 0.949 . S
C1053 H1048 0.950 1_565 S
C1053 C1055 1.327 . S
C1053 C1059 1.429 1_565 S
C1054 C1046 1.574 . S
C1054 H1049 0.949 . S
C1054 C1060 1.368 . S
C1055 C1039 1.349 . S
C1055 H1047 0.950 . S
C1055 C1053 1.327 . S
C1056 C1044 1.349 . S
C1056 H1050 0.950 . S
C1056 C1057 1.327 . S
C1057 H1051 0.950 . S
C1057 C1056 1.327 . S
C1057 C1061 1.429 . S
C1058 C1041 1.574 . S
C1058 H1052 0.949 . S
C1058 C1062 1.368 . S
C1059 C1040 1.429 1_545 S
C1059 C1053 1.429 1_545 S
C1059 C1060 1.523 . S
C1060 C1041 1.368 . S
C1060 C1054 1.368 . S
C1060 C1059 1.523 . S
C1061 C1045 1.429 . S
C1061 C1057 1.429 . S
C1061 C1062 1.523 . S
C1062 C1046 1.368 . S
C1062 C1058 1.368 . S
C1062 C1061 1.523 . S
H1063 C1038 0.950 . S
H1064 C1040 0.950 . S
H1065 C1041 0.949 . S
H1066 C1043 0.950 . S
H1067 C1045 0.950 . S
C1068 C1069 1.349 . S
C1068 C1070 1.327 . S
C1068 H1093 0.950 . S
C1069 C1068 1.349 . S
C1069 C1085 1.349 . S
C1070 C1068 1.327 . S
C1070 C1089 1.429 . S
C1070 H1094 0.950 . S
C1071 C1088 1.574 . S
C1071 C1090 1.368 . S
C1071 H1095 0.949 . S
H1072 C1076 0.949 . S
C1073 C1074 1.349 . S
C1073 C1075 1.327 . S
C1073 H1096 0.950 . S
C1074 C1073 1.349 . S
C1074 C1086 1.349 . S
C1075 C1073 1.327 . S
C1075 C1091 1.429 . S
C1075 H1097 0.950 . S
C1076 H1072 0.949 . S
C1076 C1084 1.574 . S
C1076 C1092 1.368 . S
H1077 C1085 0.950 . S
H1078 C1083 0.950 . S
H1079 C1084 0.949 . S
H1080 C1086 0.950 . S
H1081 C1087 0.950 . S
H1082 C1088 0.949 . S
C1083 H1078 0.950 . S
C1083 C1085 1.327 . S
C1083 C1089 1.429 . S
C1084 C1076 1.574 . S
C1084 H1079 0.949 . S
C1084 C1090 1.368 . S
C1085 C1069 1.349 . S
C1085 H1077 0.950 . S
C1085 C1083 1.327 . S
C1086 C1074 1.349 . S
C1086 H1080 0.950 . S
C1086 C1087 1.327 . S
C1087 H1081 0.950 . S
C1087 C1086 1.327 . S
C1087 C1091 1.429 . S
C1088 C1071 1.574 . S
C1088 H1082 0.949 . S
C1088 C1092 1.368 . S
C1089 C1070 1.429 . S
C1089 C1083 1.429 . S
C1089 C1090 1.523 . S
C1090 C1071 1.368 . S
C1090 C1084 1.368 . S
C1090 C1089 1.523 . S
C1091 C1075 1.429 . S
C1091 C1087 1.429 . S
C1091 C1092 1.523 . S
C1092 C1076 1.368 . S
C1092 C1088 1.368 . S
C1092 C1091 1.523 . S
H1093 C1068 0.950 . S
H1094 C1070 0.950 . S
H1095 C1071 0.949 . S
H1096 C1073 0.950 . S
H1097 C1075 0.950 . S
C1098 C1099 1.349 . S
C1098 C1100 1.327 . S
C1098 H1123 0.950 . S
C1099 C1098 1.349 . S
C1099 C1115 1.349 . S
C1100 C1098 1.327 . S
C1100 C1119 1.429 . S
C1100 H1124 0.950 . S
C1101 C1118 1.574 . S
C1101 C1120 1.368 . S
C1101 H1125 0.949 . S
H1102 C1106 0.949 . S
C1103 C1104 1.349 . S
C1103 C1105 1.327 . S
C1103 H1126 0.950 . S
C1104 C1103 1.349 . S
C1104 C1116 1.349 . S
C1105 C1103 1.327 . S
C1105 C1121 1.429 . S
C1105 H1127 0.950 . S
C1106 H1102 0.949 . S
C1106 C1114 1.574 . S
C1106 C1122 1.368 . S
H1107 C1115 0.950 . S
H1108 C1113 0.950 . S
H1109 C1114 0.949 . S
H1110 C1116 0.950 . S
H1111 C1117 0.950 . S
H1112 C1118 0.949 . S
C1113 H1108 0.950 . S
C1113 C1115 1.327 . S
C1113 C1119 1.429 . S
C1114 C1106 1.574 . S
C1114 H1109 0.949 . S
C1114 C1120 1.368 . S
C1115 C1099 1.349 . S
C1115 H1107 0.950 . S
C1115 C1113 1.327 . S
C1116 C1104 1.349 . S
C1116 H1110 0.950 . S
C1116 C1117 1.327 . S
C1117 H1111 0.950 . S
C1117 C1116 1.327 . S
C1117 C1121 1.429 . S
C1118 C1101 1.574 . S
C1118 H1112 0.949 . S
C1118 C1122 1.368 . S
C1119 C1100 1.429 . S
C1119 C1113 1.429 . S
C1119 C1120 1.523 . S
C1120 C1101 1.368 . S
C1120 C1114 1.368 . S
C1120 C1119 1.523 . S
C1121 C1105 1.429 . S
C1121 C1117 1.429 . S
C1121 C1122 1.523 . S
C1122 C1106 1.368 . S
C1122 C1118 1.368 . S
C1122 C1121 1.523 . S
H1123 C1098 0.950 . S
H1124 C1100 0.950 . S
H1125 C1101 0.949 . S
H1126 C1103 0.950 . S
H1127 C1105 0.950 . S
C1128 C1129 1.349 . S
C1128 C1130 1.327 . S
C1128 H1153 0.950 . S
C1129 C1128 1.349 . S
C1129 C1145 1.349 . S
C1130 C1128 1.327 . S
C1130 C1149 1.429 . S
C1130 H1154 0.950 . S
C1131 C1148 1.574 . S
C1131 C1150 1.368 . S
C1131 H1155 0.949 . S
H1132 C1136 0.949 . S
C1133 C1134 1.349 . S
C1133 C1135 1.327 . S
C1133 H1156 0.950 . S
C1134 C1133 1.349 . S
C1134 C1146 1.349 . S
C1135 C1133 1.327 . S
C1135 C1151 1.429 . S
C1135 H1157 0.950 . S
C1136 H1132 0.949 . S
C1136 C1144 1.574 . S
C1136 C1152 1.368 . S
H1137 C1145 0.950 . S
H1138 C1143 0.950 . S
H1139 C1144 0.949 . S
H1140 C1146 0.950 . S
H1141 C1147 0.950 . S
H1142 C1148 0.949 . S
C1143 H1138 0.950 . S
C1143 C1145 1.327 . S
C1143 C1149 1.429 . S
C1144 C1136 1.574 . S
C1144 H1139 0.949 . S
C1144 C1150 1.368 . S
C1145 C1129 1.349 . S
C1145 H1137 0.950 . S
C1145 C1143 1.327 . S
C1146 C1134 1.349 . S
C1146 H1140 0.950 . S
C1146 C1147 1.327 . S
C1147 H1141 0.950 . S
C1147 C1146 1.327 . S
C1147 C1151 1.429 . S
C1148 C1131 1.574 . S
C1148 H1142 0.949 . S
C1148 C1152 1.368 . S
C1149 C1130 1.429 . S
C1149 C1143 1.429 . S
C1149 C1150 1.523 . S
C1150 C1131 1.368 . S
C1150 C1144 1.368 . S
C1150 C1149 1.523 . S
C1151 C1135 1.429 . S
C1151 C1147 1.429 . S
C1151 C1152 1.523 . S
C1152 C1136 1.368 . S
C1152 C1148 1.368 . S
C1152 C1151 1.523 . S
H1153 C1128 0.950 . S
H1154 C1130 0.950 . S
H1155 C1131 0.949 . S
H1156 C1133 0.950 . S
H1157 C1135 0.950 . S
C1158 C1159 1.349 . S
C1158 C1160 1.327 . S
C1158 H1183 0.950 . S
C1159 C1158 1.349 . S
C1159 C1175 1.349 . S
C1160 C1158 1.327 . S
C1160 C1179 1.429 . S
C1160 H1184 0.950 . S
C1161 C1178 1.574 . S
C1161 C1180 1.368 . S
C1161 H1185 0.949 . S
H1162 C1166 0.949 . S
C1163 C1164 1.349 . S
C1163 C1165 1.327 . S
C1163 H1186 0.950 . S
C1164 C1163 1.349 . S
C1164 C1176 1.349 . S
C1165 C1163 1.327 . S
C1165 C1181 1.429 . S
C1165 H1187 0.950 . S
C1166 H1162 0.949 . S
C1166 C1174 1.574 . S
C1166 C1182 1.368 . S
H1167 C1175 0.950 . S
H1168 C1173 0.950 . S
H1169 C1174 0.949 . S
H1170 C1176 0.950 . S
H1171 C1177 0.950 . S
H1172 C1178 0.949 . S
C1173 H1168 0.950 . S
C1173 C1175 1.327 . S
C1173 C1179 1.429 . S
C1174 C1166 1.574 . S
C1174 H1169 0.949 . S
C1174 C1180 1.368 . S
C1175 C1159 1.349 . S
C1175 H1167 0.950 . S
C1175 C1173 1.327 . S
C1176 C1164 1.349 . S
C1176 H1170 0.950 . S
C1176 C1177 1.327 . S
C1177 H1171 0.950 . S
C1177 C1176 1.327 . S
C1177 C1181 1.429 . S
C1178 C1161 1.574 . S
C1178 H1172 0.949 . S
C1178 C1182 1.368 . S
C1179 C1160 1.429 . S
C1179 C1173 1.429 . S
C1179 C1180 1.523 . S
C1180 C1161 1.368 . S
C1180 C1174 1.368 . S
C1180 C1179 1.523 . S
C1181 C1165 1.429 . S
C1181 C1177 1.429 . S
C1181 C1182 1.523 . S
C1182 C1166 1.368 . S
C1182 C1178 1.368 . S
C1182 C1181 1.523 . S
H1183 C1158 0.950 . S
H1184 C1160 0.950 . S
H1185 C1161 0.949 . S
H1186 C1163 0.950 . S
H1187 C1165 0.950 . S
C1188 C1189 1.349 . S
C1188 C1190 1.327 . S
C1188 H1213 0.950 . S
C1189 C1188 1.349 . S
C1189 C1205 1.349 1_655 S
C1190 C1188 1.327 . S
C1190 C1209 1.431 1_554 S
C1190 H1214 0.950 . S
C1191 C1208 1.574 . S
C1191 C1210 1.368 . S
C1191 H1215 0.949 . S
H1192 C1196 0.949 . S
C1193 C1194 1.349 . S
C1193 C1195 1.327 . S
C1193 H1216 0.950 . S
C1194 C1193 1.349 . S
C1194 C1206 1.349 . S
C1195 C1193 1.327 . S
C1195 C1211 1.429 . S
C1195 H1217 0.950 . S
C1196 H1192 0.949 . S
C1196 C1204 1.574 . S
C1196 C1212 1.368 . S
H1197 C1205 0.950 . S
H1198 C1203 0.950 1_456 S
H1199 C1204 0.949 . S
H1200 C1206 0.950 . S
H1201 C1207 0.950 . S
H1202 C1208 0.949 . S
C1203 H1198 0.950 1_654 S
C1203 C1205 1.327 1_655 S
C1203 C1209 1.429 1_554 S
C1204 C1196 1.574 . S
C1204 H1199 0.949 . S
C1204 C1210 1.368 . S
C1205 C1189 1.349 1_455 S
C1205 H1197 0.950 . S
C1205 C1203 1.327 1_455 S
C1206 C1194 1.349 . S
C1206 H1200 0.950 . S
C1206 C1207 1.327 . S
C1207 H1201 0.950 . S
C1207 C1206 1.327 . S
C1207 C1211 1.429 . S
C1208 C1191 1.574 . S
C1208 H1202 0.949 . S
C1208 C1212 1.368 . S
C1209 C1190 1.431 1_556 S
C1209 C1203 1.429 1_556 S
C1209 C1210 1.521 . S
C1210 C1191 1.368 . S
C1210 C1204 1.368 . S
C1210 C1209 1.521 . S
C1211 C1195 1.429 . S
C1211 C1207 1.429 . S
C1211 C1212 1.523 . S
C1212 C1196 1.368 . S
C1212 C1208 1.368 . S
C1212 C1211 1.523 . S
H1213 C1188 0.950 . S
H1214 C1190 0.950 . S
H1215 C1191 0.949 . S
H1216 C1193 0.950 . S
H1217 C1195 0.950 . S
C1218 C1219 1.349 . S
C1218 C1220 1.327 . S
C1218 H1243 0.950 . S
C1219 C1218 1.349 . S
C1219 C1235 1.349 . S
C1220 C1218 1.327 . S
C1220 C1239 1.429 . S
C1220 H1244 0.950 . S
C1221 C1238 1.574 . S
C1221 C1240 1.368 . S
C1221 H1245 0.949 . S
H1222 C1226 0.949 . S
C1223 C1224 1.349 . S
C1223 C1225 1.327 . S
C1223 H1246 0.950 . S
C1224 C1223 1.349 . S
C1224 C1236 1.349 . S
C1225 C1223 1.327 . S
C1225 C1241 1.429 . S
C1225 H1247 0.950 . S
C1226 H1222 0.949 . S
C1226 C1234 1.574 . S
C1226 C1242 1.368 . S
H1227 C1235 0.950 . S
H1228 C1233 0.950 . S
H1229 C1234 0.949 . S
H1230 C1236 0.950 . S
H1231 C1237 0.950 . S
H1232 C1238 0.949 . S
C1233 H1228 0.950 . S
C1233 C1235 1.327 . S
C1233 C1239 1.429 . S
C1234 C1226 1.574 . S
C1234 H1229 0.949 . S
C1234 C1240 1.368 . S
C1235 C1219 1.349 . S
C1235 H1227 0.950 . S
C1235 C1233 1.327 . S
C1236 C1224 1.349 . S
C1236 H1230 0.950 . S
C1236 C1237 1.327 . S
C1237 H1231 0.950 . S
C1237 C1236 1.327 . S
C1237 C1241 1.429 . S
C1238 C1221 1.574 . S
C1238 H1232 0.949 . S
C1238 C1242 1.368 . S
C1239 C1220 1.429 . S
C1239 C1233 1.429 . S
C1239 C1240 1.523 . S
C1240 C1221 1.368 . S
C1240 C1234 1.368 . S
C1240 C1239 1.523 . S
C1241 C1225 1.429 . S
C1241 C1237 1.429 . S
C1241 C1242 1.523 . S
C1242 C1226 1.368 . S
C1242 C1238 1.368 . S
C1242 C1241 1.523 . S
H1243 C1218 0.950 . S
H1244 C1220 0.950 . S
H1245 C1221 0.949 . S
H1246 C1223 0.950 . S
H1247 C1225 0.950 . S
C1248 C1249 1.349 . S
C1248 C1250 1.327 . S
C1248 H1273 0.950 . S
C1249 C1248 1.349 . S
C1249 C1265 1.349 . S
C1250 C1248 1.327 . S
C1250 C1269 1.429 1_556 S
C1250 H1274 0.950 . S
C1251 C1268 1.574 . S
C1251 C1270 1.368 . S
C1251 H1275 0.949 . S
H1252 C1256 0.949 . S
C1253 C1254 1.349 . S
C1253 C1255 1.327 . S
C1253 H1276 0.950 . S
C1254 C1253 1.349 . S
C1254 C1266 1.349 . S
C1255 C1253 1.327 . S
C1255 C1271 1.429 . S
C1255 H1277 0.950 . S
C1256 H1252 0.949 . S
C1256 C1264 1.574 . S
C1256 C1272 1.368 . S
H1257 C1265 0.950 . S
H1258 C1263 0.950 . S
H1259 C1264 0.949 . S
H1260 C1266 0.950 . S
H1261 C1267 0.950 . S
H1262 C1268 0.949 . S
C1263 H1258 0.950 . S
C1263 C1265 1.327 1_554 S
C1263 C1269 1.429 . S
C1264 C1256 1.574 . S
C1264 H1259 0.949 . S
C1264 C1270 1.368 . S
C1265 C1249 1.349 . S
C1265 H1257 0.950 . S
C1265 C1263 1.327 1_556 S
C1266 C1254 1.349 . S
C1266 H1260 0.950 . S
C1266 C1267 1.327 . S
C1267 H1261 0.950 . S
C1267 C1266 1.327 . S
C1267 C1271 1.429 . S
C1268 C1251 1.574 . S
C1268 H1262 0.949 . S
C1268 C1272 1.368 . S
C1269 C1250 1.429 1_554 S
C1269 C1263 1.429 . S
C1269 C1270 1.523 . S
C1270 C1251 1.368 . S
C1270 C1264 1.368 . S
C1270 C1269 1.523 . S
C1271 C1255 1.429 . S
C1271 C1267 1.429 . S
C1271 C1272 1.523 . S
C1272 C1256 1.368 . S
C1272 C1268 1.368 . S
C1272 C1271 1.523 . S
H1273 C1248 0.950 . S
H1274 C1250 0.950 . S
H1275 C1251 0.949 . S
H1276 C1253 0.950 . S
H1277 C1255 0.950 . S
C1278 C1279 1.349 . S
C1278 C1280 1.327 . S
C1278 H1303 0.950 . S
C1279 C1278 1.349 . S
C1279 C1295 1.349 . S
C1280 C1278 1.327 . S
C1280 C1299 1.429 . S
C1280 H1304 0.950 . S
C1281 C1298 1.574 . S
C1281 C1300 1.368 . S
C1281 H1305 0.949 . S
H1282 C1286 0.949 . S
C1283 C1284 1.349 . S
C1283 C1285 1.327 . S
C1283 H1306 0.950 . S
C1284 C1283 1.349 . S
C1284 C1296 1.349 . S
C1285 C1283 1.327 . S
C1285 C1301 1.429 . S
C1285 H1307 0.950 . S
C1286 H1282 0.949 . S
C1286 C1294 1.574 . S
C1286 C1302 1.368 . S
H1287 C1295 0.950 . S
H1288 C1293 0.950 . S
H1289 C1294 0.949 . S
H1290 C1296 0.950 . S
H1291 C1297 0.950 . S
H1292 C1298 0.949 . S
C1293 H1288 0.950 . S
C1293 C1295 1.327 . S
C1293 C1299 1.429 . S
C1294 C1286 1.574 . S
C1294 H1289 0.949 . S
C1294 C1300 1.368 . S
C1295 C1279 1.349 . S
C1295 H1287 0.950 . S
C1295 C1293 1.327 . S
C1296 C1284 1.349 . S
C1296 H1290 0.950 . S
C1296 C1297 1.327 . S
C1297 H1291 0.950 . S
C1297 C1296 1.327 . S
C1297 C1301 1.429 . S
C1298 C1281 1.574 . S
C1298 H1292 0.949 . S
C1298 C1302 1.368 . S
C1299 C1280 1.429 . S
C1299 C1293 1.429 . S
C1299 C1300 1.523 . S
C1300 C1281 1.368 . S
C1300 C1294 1.368 . S
C1300 C1299 1.523 . S
C1301 C1285 1.429 . S
C1301 C1297 1.429 . S
C1301 C1302 1.523 . S
C1302 C1286 1.368 . S
C1302 C1298 1.368 . S
C1302 C1301 1.523 . S
H1303 C1278 0.950 . S
H1304 C1280 0.950 . S
H1305 C1281 0.949 . S
H1306 C1283 0.950 . S
H1307 C1285 0.950 . S
C1308 C1309 1.349 . S
C1308 C1310 1.327 . S
C1308 H1333 0.950 . S
C1309 C1308 1.349 . S
C1309 C1325 1.349 1_655 S
C1310 C1308 1.327 . S
C1310 C1329 1.429 . S
C1310 H1334 0.950 . S
C1311 C1328 1.574 . S
C1311 C1330 1.368 . S
C1311 H1335 0.949 . S
H1312 C1316 0.949 . S
C1313 C1314 1.349 . S
C1313 C1315 1.327 . S
C1313 H1336 0.950 . S
C1314 C1313 1.349 . S
C1314 C1326 1.349 . S
C1315 C1313 1.327 . S
C1315 C1331 1.429 . S
C1315 H1337 0.950 . S
C1316 H1312 0.949 . S
C1316 C1324 1.574 . S
C1316 C1332 1.368 . S
H1317 C1325 0.950 . S
H1318 C1323 0.950 1_455 S
H1319 C1324 0.949 . S
H1320 C1326 0.950 . S
H1321 C1327 0.950 . S
H1322 C1328 0.949 . S
C1323 H1318 0.950 1_655 S
C1323 C1325 1.327 1_655 S
C1323 C1329 1.429 . S
C1324 C1316 1.574 . S
C1324 H1319 0.949 . S
C1324 C1330 1.368 . S
C1325 C1309 1.349 1_455 S
C1325 H1317 0.950 . S
C1325 C1323 1.327 1_455 S
C1326 C1314 1.349 . S
C1326 H1320 0.950 . S
C1326 C1327 1.327 . S
C1327 H1321 0.950 . S
C1327 C1326 1.327 . S
C1327 C1331 1.429 . S
C1328 C1311 1.574 . S
C1328 H1322 0.949 . S
C1328 C1332 1.368 . S
C1329 C1310 1.429 . S
C1329 C1323 1.429 . S
C1329 C1330 1.523 . S
C1330 C1311 1.368 . S
C1330 C1324 1.368 . S
C1330 C1329 1.523 . S
C1331 C1315 1.429 . S
C1331 C1327 1.429 . S
C1331 C1332 1.523 . S
C1332 C1316 1.368 . S
C1332 C1328 1.368 . S
C1332 C1331 1.523 . S
H1333 C1308 0.950 . S
H1334 C1310 0.950 . S
H1335 C1311 0.949 . S
H1336 C1313 0.950 . S
H1337 C1315 0.950 . S
C1338 C1339 1.349 . S
C1338 C1340 1.327 . S
C1338 H1363 0.950 . S
C1339 C1338 1.349 . S
C1339 C1355 1.349 . S
C1340 C1338 1.327 . S
C1340 C1359 1.429 . S
C1340 H1364 0.950 . S
C1341 C1358 1.574 . S
C1341 C1360 1.368 . S
C1341 H1365 0.949 . S
H1342 C1346 0.949 . S
C1343 C1344 1.349 . S
C1343 C1345 1.327 . S
C1343 H1366 0.950 . S
C1344 C1343 1.349 . S
C1344 C1356 1.349 . S
C1345 C1343 1.327 . S
C1345 C1361 1.429 . S
C1345 H1367 0.950 . S
C1346 H1342 0.949 . S
C1346 C1354 1.574 . S
C1346 C1362 1.368 . S
H1347 C1355 0.950 . S
H1348 C1353 0.950 . S
H1349 C1354 0.949 . S
H1350 C1356 0.950 . S
H1351 C1357 0.950 . S
H1352 C1358 0.949 . S
C1353 H1348 0.950 . S
C1353 C1355 1.327 . S
C1353 C1359 1.429 . S
C1354 C1346 1.574 . S
C1354 H1349 0.949 . S
C1354 C1360 1.368 . S
C1355 C1339 1.349 . S
C1355 H1347 0.950 . S
C1355 C1353 1.327 . S
C1356 C1344 1.349 . S
C1356 H1350 0.950 . S
C1356 C1357 1.327 . S
C1357 H1351 0.950 . S
C1357 C1356 1.327 . S
C1357 C1361 1.429 . S
C1358 C1341 1.574 . S
C1358 H1352 0.949 . S
C1358 C1362 1.368 . S
C1359 C1340 1.429 . S
C1359 C1353 1.429 . S
C1359 C1360 1.523 . S
C1360 C1341 1.368 . S
C1360 C1354 1.368 . S
C1360 C1359 1.523 . S
C1361 C1345 1.429 . S
C1361 C1357 1.429 . S
C1361 C1362 1.523 . S
C1362 C1346 1.368 . S
C1362 C1358 1.368 . S
C1362 C1361 1.523 . S
H1363 C1338 0.950 . S
H1364 C1340 0.950 . S
H1365 C1341 0.949 . S
H1366 C1343 0.950 . S
H1367 C1345 0.950 . S
C1368 C1369 1.349 . S
C1368 C1370 1.327 . S
C1368 H1393 0.950 . S
C1369 C1368 1.349 . S
C1369 C1385 1.349 . S
C1370 C1368 1.327 . S
C1370 C1389 1.429 . S
C1370 H1394 0.950 . S
C1371 C1388 1.574 . S
C1371 C1390 1.368 . S
C1371 H1395 0.949 . S
H1372 C1376 0.949 . S
C1373 C1374 1.349 . S
C1373 C1375 1.327 . S
C1373 H1396 0.950 . S
C1374 C1373 1.349 . S
C1374 C1386 1.349 . S
C1375 C1373 1.327 . S
C1375 C1391 1.429 . S
C1375 H1397 0.950 . S
C1376 H1372 0.949 . S
C1376 C1384 1.574 . S
C1376 C1392 1.368 . S
H1377 C1385 0.950 . S
H1378 C1383 0.950 . S
H1379 C1384 0.949 . S
H1380 C1386 0.950 . S
H1381 C1387 0.950 . S
H1382 C1388 0.949 . S
C1383 H1378 0.950 . S
C1383 C1385 1.327 . S
C1383 C1389 1.429 . S
C1384 C1376 1.574 . S
C1384 H1379 0.949 . S
C1384 C1390 1.368 . S
C1385 C1369 1.349 . S
C1385 H1377 0.950 . S
C1385 C1383 1.327 . S
C1386 C1374 1.349 . S
C1386 H1380 0.950 . S
C1386 C1387 1.327 . S
C1387 H1381 0.950 . S
C1387 C1386 1.327 . S
C1387 C1391 1.429 . S
C1388 C1371 1.574 . S
C1388 H1382 0.949 . S
C1388 C1392 1.368 . S
C1389 C1370 1.429 . S
C1389 C1383 1.429 . S
C1389 C1390 1.523 . S
C1390 C1371 1.368 . S
C1390 C1384 1.368 . S
C1390 C1389 1.523 . S
C1391 C1375 1.429 . S
C1391 C1387 1.429 . S
C1391 C1392 1.523 . S
C1392 C1376 1.368 . S
C1392 C1388 1.368 . S
C1392 C1391 1.523 . S
H1393 C1368 0.950 . S
H1394 C1370 0.950 . S
H1395 C1371 0.949 . S
H1396 C1373 0.950 . S
H1397 C1375 0.950 . S
C1398 C1399 1.349 . S
C1398 C1400 1.327 . S
C1398 H1423 0.950 . S
C1399 C1398 1.349 . S
C1399 C1415 1.349 . S
C1400 C1398 1.327 . S
C1400 C1419 1.429 . S
C1400 H1424 0.950 . S
C1401 C1418 1.574 . S
C1401 C1420 1.368 . S
C1401 H1425 0.949 . S
H1402 C1406 0.949 . S
C1403 C1404 1.349 . S
C1403 C1405 1.327 . S
C1403 H1426 0.950 . S
C1404 C1403 1.349 . S
C1404 C1416 1.349 . S
C1405 C1403 1.327 . S
C1405 C1421 1.429 . S
C1405 H1427 0.950 . S
C1406 H1402 0.949 . S
C1406 C1414 1.574 . S
C1406 C1422 1.368 . S
H1407 C1415 0.950 . S
H1408 C1413 0.950 . S
H1409 C1414 0.949 . S
H1410 C1416 0.950 . S
H1411 C1417 0.950 . S
H1412 C1418 0.949 . S
C1413 H1408 0.950 . S
C1413 C1415 1.327 . S
C1413 C1419 1.429 . S
C1414 C1406 1.574 . S
C1414 H1409 0.949 . S
C1414 C1420 1.368 . S
C1415 C1399 1.349 . S
C1415 H1407 0.950 . S
C1415 C1413 1.327 . S
C1416 C1404 1.349 . S
C1416 H1410 0.950 . S
C1416 C1417 1.327 . S
C1417 H1411 0.950 . S
C1417 C1416 1.327 . S
C1417 C1421 1.429 . S
C1418 C1401 1.574 . S
C1418 H1412 0.949 . S
C1418 C1422 1.368 . S
C1419 C1400 1.429 . S
C1419 C1413 1.429 . S
C1419 C1420 1.523 . S
C1420 C1401 1.368 . S
C1420 C1414 1.368 . S
C1420 C1419 1.523 . S
C1421 C1405 1.429 . S
C1421 C1417 1.429 . S
C1421 C1422 1.523 . S
C1422 C1406 1.368 . S
C1422 C1418 1.368 . S
C1422 C1421 1.523 . S
H1423 C1398 0.950 . S
H1424 C1400 0.950 . S
H1425 C1401 0.949 . S
H1426 C1403 0.950 . S
H1427 C1405 0.950 . S
C1428 C1429 1.349 . S
C1428 C1430 1.327 . S
C1428 H1453 0.950 . S
C1429 C1428 1.349 . S
C1429 C1445 1.349 . S
C1430 C1428 1.327 . S
C1430 C1449 1.429 1_655 S
C1430 H1454 0.950 . S
C1431 C1448 1.574 . S
C1431 C1450 1.368 . S
C1431 H1455 0.949 . S
H1432 C1436 0.949 . S
C1433 C1434 1.349 . S
C1433 C1435 1.327 . S
C1433 H1456 0.950 . S
C1434 C1433 1.349 . S
C1434 C1446 1.349 . S
C1435 C1433 1.327 . S
C1435 C1451 1.429 . S
C1435 H1457 0.950 . S
C1436 H1432 0.949 . S
C1436 C1444 1.574 . S
C1436 C1452 1.368 . S
H1437 C1445 0.950 . S
H1438 C1443 0.950 1_455 S
H1439 C1444 0.949 . S
H1440 C1446 0.950 . S
H1441 C1447 0.950 . S
H1442 C1448 0.949 . S
C1443 H1438 0.950 1_655 S
C1443 C1445 1.327 . S
C1443 C1449 1.429 1_655 S
C1444 C1436 1.574 . S
C1444 H1439 0.949 . S
C1444 C1450 1.368 . S
C1445 C1429 1.349 . S
C1445 H1437 0.950 . S
C1445 C1443 1.327 . S
C1446 C1434 1.349 . S
C1446 H1440 0.950 . S
C1446 C1447 1.327 . S
C1447 H1441 0.950 . S
C1447 C1446 1.327 . S
C1447 C1451 1.429 . S
C1448 C1431 1.574 . S
C1448 H1442 0.949 . S
C1448 C1452 1.368 . S
C1449 C1430 1.429 1_455 S
C1449 C1443 1.429 1_455 S
C1449 C1450 1.523 . S
C1450 C1431 1.368 . S
C1450 C1444 1.368 . S
C1450 C1449 1.523 . S
C1451 C1435 1.429 . S
C1451 C1447 1.429 . S
C1451 C1452 1.523 . S
C1452 C1436 1.368 . S
C1452 C1448 1.368 . S
C1452 C1451 1.523 . S
H1453 C1428 0.950 . S
H1454 C1430 0.950 . S
H1455 C1431 0.949 . S
H1456 C1433 0.950 . S
H1457 C1435 0.950 . S
C1458 C1459 1.349 . S
C1458 C1460 1.327 . S
C1458 H1483 0.950 . S
C1459 C1458 1.349 . S
C1459 C1475 1.349 . S
C1460 C1458 1.327 . S
C1460 C1479 1.429 . S
C1460 H1484 0.950 . S
C1461 C1478 1.574 . S
C1461 C1480 1.368 . S
C1461 H1485 0.949 . S
H1462 C1466 0.949 . S
C1463 C1464 1.349 . S
C1463 C1465 1.327 . S
C1463 H1486 0.950 . S
C1464 C1463 1.349 . S
C1464 C1476 1.349 . S
C1465 C1463 1.327 . S
C1465 C1481 1.429 . S
C1465 H1487 0.950 . S
C1466 H1462 0.949 . S
C1466 C1474 1.574 . S
C1466 C1482 1.368 . S
H1467 C1475 0.950 . S
H1468 C1473 0.950 . S
H1469 C1474 0.949 . S
H1470 C1476 0.950 . S
H1471 C1477 0.950 . S
H1472 C1478 0.949 . S
C1473 H1468 0.950 . S
C1473 C1475 1.327 . S
C1473 C1479 1.429 . S
C1474 C1466 1.574 . S
C1474 H1469 0.949 . S
C1474 C1480 1.368 . S
C1475 C1459 1.349 . S
C1475 H1467 0.950 . S
C1475 C1473 1.327 . S
C1476 C1464 1.349 . S
C1476 H1470 0.950 . S
C1476 C1477 1.327 . S
C1477 H1471 0.950 . S
C1477 C1476 1.327 . S
C1477 C1481 1.429 . S
C1478 C1461 1.574 . S
C1478 H1472 0.949 . S
C1478 C1482 1.368 . S
C1479 C1460 1.429 . S
C1479 C1473 1.429 . S
C1479 C1480 1.523 . S
C1480 C1461 1.368 . S
C1480 C1474 1.368 . S
C1480 C1479 1.523 . S
C1481 C1465 1.429 . S
C1481 C1477 1.429 . S
C1481 C1482 1.523 . S
C1482 C1466 1.368 . S
C1482 C1478 1.368 . S
C1482 C1481 1.523 . S
H1483 C1458 0.950 . S
H1484 C1460 0.950 . S
H1485 C1461 0.949 . S
H1486 C1463 0.950 . S
H1487 C1465 0.950 . S
C1488 C1489 1.349 . S
C1488 C1490 1.327 . S
C1488 H1513 0.950 . S
C1489 C1488 1.349 . S
C1489 C1505 1.349 . S
C1490 C1488 1.327 . S
C1490 C1509 1.429 . S
C1490 H1514 0.950 . S
C1491 C1508 1.574 . S
C1491 C1510 1.368 . S
C1491 H1515 0.949 . S
H1492 C1496 0.949 . S
C1493 C1494 1.349 . S
C1493 C1495 1.327 . S
C1493 H1516 0.950 . S
C1494 C1493 1.349 . S
C1494 C1506 1.349 . S
C1495 C1493 1.327 . S
C1495 C1511 1.429 . S
C1495 H1517 0.950 . S
C1496 H1492 0.949 . S
C1496 C1504 1.574 . S
C1496 C1512 1.368 . S
H1497 C1505 0.950 . S
H1498 C1503 0.950 . S
H1499 C1504 0.949 . S
H1500 C1506 0.950 . S
H1501 C1507 0.950 . S
H1502 C1508 0.949 . S
C1503 H1498 0.950 . S
C1503 C1505 1.327 . S
C1503 C1509 1.429 . S
C1504 C1496 1.574 . S
C1504 H1499 0.949 . S
C1504 C1510 1.368 . S
C1505 C1489 1.349 . S
C1505 H1497 0.950 . S
C1505 C1503 1.327 . S
C1506 C1494 1.349 . S
C1506 H1500 0.950 . S
C1506 C1507 1.327 . S
C1507 H1501 0.950 . S
C1507 C1506 1.327 . S
C1507 C1511 1.429 . S
C1508 C1491 1.574 . S
C1508 H1502 0.949 . S
C1508 C1512 1.368 . S
C1509 C1490 1.429 . S
C1509 C1503 1.429 . S
C1509 C1510 1.523 . S
C1510 C1491 1.368 . S
C1510 C1504 1.368 . S
C1510 C1509 1.523 . S
C1511 C1495 1.429 . S
C1511 C1507 1.429 . S
C1511 C1512 1.523 . S
C1512 C1496 1.368 . S
C1512 C1508 1.368 . S
C1512 C1511 1.523 . S
H1513 C1488 0.950 . S
H1514 C1490 0.950 . S
H1515 C1491 0.949 . S
H1516 C1493 0.950 . S
H1517 C1495 0.950 . S
C1518 C1519 1.349 . S
C1518 C1520 1.327 . S
C1518 H1543 0.950 . S
C1519 C1518 1.349 . S
C1519 C1535 1.349 . S
C1520 C1518 1.327 . S
C1520 C1539 1.429 . S
C1520 H1544 0.950 . S
C1521 C1538 1.574 . S
C1521 C1540 1.368 . S
C1521 H1545 0.949 . S
H1522 C1526 0.949 . S
C1523 C1524 1.349 . S
C1523 C1525 1.327 . S
C1523 H1546 0.950 . S
C1524 C1523 1.349 . S
C1524 C1536 1.349 . S
C1525 C1523 1.327 . S
C1525 C1541 1.429 . S
C1525 H1547 0.950 . S
C1526 H1522 0.949 . S
C1526 C1534 1.574 . S
C1526 C1542 1.368 . S
H1527 C1535 0.950 . S
H1528 C1533 0.950 . S
H1529 C1534 0.949 . S
H1530 C1536 0.950 . S
H1531 C1537 0.950 . S
H1532 C1538 0.949 . S
C1533 H1528 0.950 . S
C1533 C1535 1.327 . S
C1533 C1539 1.429 . S
C1534 C1526 1.574 . S
C1534 H1529 0.949 . S
C1534 C1540 1.368 . S
C1535 C1519 1.349 . S
C1535 H1527 0.950 . S
C1535 C1533 1.327 . S
C1536 C1524 1.349 . S
C1536 H1530 0.950 . S
C1536 C1537 1.327 . S
C1537 H1531 0.950 . S
C1537 C1536 1.327 . S
C1537 C1541 1.429 . S
C1538 C1521 1.574 . S
C1538 H1532 0.949 . S
C1538 C1542 1.368 . S
C1539 C1520 1.429 . S
C1539 C1533 1.429 . S
C1539 C1540 1.523 . S
C1540 C1521 1.368 . S
C1540 C1534 1.368 . S
C1540 C1539 1.523 . S
C1541 C1525 1.429 . S
C1541 C1537 1.429 . S
C1541 C1542 1.523 . S
C1542 C1526 1.368 . S
C1542 C1538 1.368 . S
C1542 C1541 1.523 . S
H1543 C1518 0.950 . S
H1544 C1520 0.950 . S
H1545 C1521 0.949 . S
H1546 C1523 0.950 . S
H1547 C1525 0.950 . S
C1548 C1549 1.349 . S
C1548 C1550 1.327 . S
C1548 H1573 0.950 . S
C1549 C1548 1.349 . S
C1549 C1565 1.349 . S
C1550 C1548 1.327 . S
C1550 C1569 1.429 1_655 S
C1550 H1574 0.960 . S
C1551 C1568 1.574 . S
C1551 C1570 1.368 . S
C1551 H1575 0.949 . S
H1552 C1556 0.949 . S
C1553 C1554 1.349 . S
C1553 C1555 1.327 . S
C1553 H1576 0.950 . S
C1554 C1553 1.349 . S
C1554 C1566 1.349 . S
C1555 C1553 1.327 . S
C1555 C1571 1.429 . S
C1555 H1577 0.950 . S
C1556 H1552 0.949 . S
C1556 C1564 1.574 . S
C1556 C1572 1.368 . S
H1557 C1565 0.950 . S
H1558 C1563 0.950 . S
H1559 C1564 0.949 . S
H1560 C1566 0.950 . S
H1561 C1567 0.950 . S
H1562 C1568 0.949 . S
C1563 H1558 0.950 . S
C1563 C1565 1.327 . S
C1563 C1569 1.429 1_655 S
C1564 C1556 1.574 . S
C1564 H1559 0.949 . S
C1564 C1570 1.368 . S
C1565 C1549 1.349 . S
C1565 H1557 0.950 . S
C1565 C1563 1.327 . S
C1566 C1554 1.349 . S
C1566 H1560 0.950 . S
C1566 C1567 1.327 . S
C1567 H1561 0.950 . S
C1567 C1566 1.327 . S
C1567 C1571 1.429 . S
C1568 C1551 1.574 . S
C1568 H1562 0.949 . S
C1568 C1572 1.368 . S
C1569 C1550 1.429 1_455 S
C1569 C1563 1.429 1_455 S
C1569 C1570 1.523 . S
C1570 C1551 1.368 . S
C1570 C1564 1.368 . S
C1570 C1569 1.523 . S
C1571 C1555 1.429 . S
C1571 C1567 1.429 . S
C1571 C1572 1.523 . S
C1572 C1556 1.368 . S
C1572 C1568 1.368 . S
C1572 C1571 1.523 . S
H1573 C1548 0.950 . S
H1574 C1550 0.960 . S
H1575 C1551 0.949 . S
H1576 C1553 0.950 . S
H1577 C1555 0.950 . S
C1578 C1579 1.349 . S
C1578 C1580 1.327 . S
C1578 H1603 0.950 . S
C1579 C1578 1.349 . S
C1579 C1595 1.349 . S
C1580 C1578 1.327 . S
C1580 C1599 1.429 . S
C1580 H1604 0.950 . S
C1581 C1598 1.574 . S
C1581 C1600 1.368 . S
C1581 H1605 0.949 . S
H1582 C1586 0.949 . S
C1583 C1584 1.349 . S
C1583 C1585 1.327 . S
C1583 H1606 0.950 . S
C1584 C1583 1.349 . S
C1584 C1596 1.349 . S
C1585 C1583 1.327 . S
C1585 C1601 1.429 . S
C1585 H1607 0.950 . S
C1586 H1582 0.949 . S
C1586 C1594 1.574 . S
C1586 C1602 1.368 . S
H1587 C1595 0.950 . S
H1588 C1593 0.950 . S
H1589 C1594 0.949 . S
H1590 C1596 0.950 . S
H1591 C1597 0.950 . S
H1592 C1598 0.949 . S
C1593 H1588 0.950 . S
C1593 C1595 1.327 . S
C1593 C1599 1.429 . S
C1594 C1586 1.574 . S
C1594 H1589 0.949 . S
C1594 C1600 1.368 . S
C1595 C1579 1.349 . S
C1595 H1587 0.950 . S
C1595 C1593 1.327 . S
C1596 C1584 1.349 . S
C1596 H1590 0.950 . S
C1596 C1597 1.327 . S
C1597 H1591 0.950 . S
C1597 C1596 1.327 . S
C1597 C1601 1.429 . S
C1598 C1581 1.574 . S
C1598 H1592 0.949 . S
C1598 C1602 1.368 . S
C1599 C1580 1.429 . S
C1599 C1593 1.429 . S
C1599 C1600 1.523 . S
C1600 C1581 1.368 . S
C1600 C1594 1.368 . S
C1600 C1599 1.523 . S
C1601 C1585 1.429 . S
C1601 C1597 1.429 . S
C1601 C1602 1.523 . S
C1602 C1586 1.368 . S
C1602 C1598 1.368 . S
C1602 C1601 1.523 . S
H1603 C1578 0.950 . S
H1604 C1580 0.950 . S
H1605 C1581 0.949 . S
H1606 C1583 0.950 . S
H1607 C1585 0.950 . S
C1608 C1609 1.349 . S
C1608 C1610 1.327 . S
C1608 H1633 0.950 . S
C1609 C1608 1.349 . S
C1609 C1625 1.349 . S
C1610 C1608 1.327 . S
C1610 C1629 1.429 . S
C1610 H1634 0.950 . S
C1611 C1628 1.574 . S
C1611 C1630 1.368 . S
C1611 H1635 0.949 . S
H1612 C1616 0.949 . S
C1613 C1614 1.349 . S
C1613 C1615 1.327 . S
C1613 H1636 0.950 . S
C1614 C1613 1.349 . S
C1614 C1626 1.349 . S
C1615 C1613 1.327 . S
C1615 C1631 1.429 . S
C1615 H1637 0.950 . S
C1616 H1612 0.949 . S
C1616 C1624 1.574 . S
C1616 C1632 1.368 . S
H1617 C1625 0.950 . S
H1618 C1623 0.950 . S
H1619 C1624 0.949 . S
H1620 C1626 0.950 . S
H1621 C1627 0.950 . S
H1622 C1628 0.949 . S
C1623 H1618 0.950 . S
C1623 C1625 1.327 . S
C1623 C1629 1.429 . S
C1624 C1616 1.574 . S
C1624 H1619 0.949 . S
C1624 C1630 1.368 . S
C1625 C1609 1.349 . S
C1625 H1617 0.950 . S
C1625 C1623 1.327 . S
C1626 C1614 1.349 . S
C1626 H1620 0.950 . S
C1626 C1627 1.327 . S
C1627 H1621 0.950 . S
C1627 C1626 1.327 . S
C1627 C1631 1.429 . S
C1628 C1611 1.574 . S
C1628 H1622 0.949 . S
C1628 C1632 1.368 . S
C1629 C1610 1.429 . S
C1629 C1623 1.429 . S
C1629 C1630 1.523 . S
C1630 C1611 1.368 . S
C1630 C1624 1.368 . S
C1630 C1629 1.523 . S
C1631 C1615 1.429 . S
C1631 C1627 1.429 . S
C1631 C1632 1.523 . S
C1632 C1616 1.368 . S
C1632 C1628 1.368 . S
C1632 C1631 1.523 . S
H1633 C1608 0.950 . S
H1634 C1610 0.950 . S
H1635 C1611 0.949 . S
H1636 C1613 0.950 . S
H1637 C1615 0.950 . S
C1638 C1639 1.349 . S
C1638 C1640 1.327 . S
C1638 H1663 0.950 . S
C1639 C1638 1.349 . S
C1639 C1655 1.349 . S
C1640 C1638 1.327 . S
C1640 C1659 1.429 1_565 S
C1640 H1664 0.950 . S
C1641 C1658 1.574 . S
C1641 C1660 1.368 . S
C1641 H1665 0.949 . S
H1642 C1646 0.949 . S
C1643 C1644 1.349 . S
C1643 C1645 1.327 . S
C1643 H1666 0.950 . S
C1644 C1643 1.349 . S
C1644 C1656 1.349 . S
C1645 C1643 1.327 . S
C1645 C1661 1.429 . S
C1645 H1667 0.950 . S
C1646 H1642 0.949 . S
C1646 C1654 1.574 . S
C1646 C1662 1.368 . S
H1647 C1655 0.950 . S
H1648 C1653 0.950 . S
H1649 C1654 0.949 . S
H1650 C1656 0.950 . S
H1651 C1657 0.950 . S
H1652 C1658 0.949 . S
C1653 H1648 0.950 . S
C1653 C1655 1.327 . S
C1653 C1659 1.429 1_565 S
C1654 C1646 1.574 . S
C1654 H1649 0.949 . S
C1654 C1660 1.368 . S
C1655 C1639 1.349 . S
C1655 H1647 0.950 . S
C1655 C1653 1.327 . S
C1656 C1644 1.349 . S
C1656 H1650 0.950 . S
C1656 C1657 1.327 . S
C1657 H1651 0.950 . S
C1657 C1656 1.327 . S
C1657 C1661 1.429 . S
C1658 C1641 1.574 . S
C1658 H1652 0.949 . S
C1658 C1662 1.368 . S
C1659 C1640 1.429 1_545 S
C1659 C1653 1.429 1_545 S
C1659 C1660 1.523 . S
C1660 C1641 1.368 . S
C1660 C1654 1.368 . S
C1660 C1659 1.523 . S
C1661 C1645 1.429 . S
C1661 C1657 1.429 . S
C1661 C1662 1.523 . S
C1662 C1646 1.368 . S
C1662 C1658 1.368 . S
C1662 C1661 1.523 . S
H1663 C1638 0.950 . S
H1664 C1640 0.950 . S
H1665 C1641 0.949 . S
H1666 C1643 0.950 . S
H1667 C1645 0.950 . S
C1668 C1669 1.349 . S
C1668 C1670 1.327 . S
C1668 H1693 0.950 . S
C1669 C1668 1.349 . S
C1669 C1685 1.349 . S
C1670 C1668 1.327 . S
C1670 C1689 1.429 . S
C1670 H1694 0.950 . S
C1671 C1688 1.574 . S
C1671 C1690 1.368 . S
C1671 H1695 0.949 . S
H1672 C1676 0.949 . S
C1673 C1674 1.349 . S
C1673 C1675 1.327 . S
C1673 H1696 0.950 . S
C1674 C1673 1.349 . S
C1674 C1686 1.349 . S
C1675 C1673 1.327 . S
C1675 C1691 1.429 . S
C1675 H1697 0.950 . S
C1676 H1672 0.949 . S
C1676 C1684 1.574 . S
C1676 C1692 1.368 . S
H1677 C1685 0.950 . S
H1678 C1683 0.950 . S
H1679 C1684 0.949 . S
H1680 C1686 0.950 . S
H1681 C1687 0.950 . S
H1682 C1688 0.949 . S
C1683 H1678 0.950 . S
C1683 C1685 1.327 . S
C1683 C1689 1.429 . S
C1684 C1676 1.574 . S
C1684 H1679 0.949 . S
C1684 C1690 1.368 . S
C1685 C1669 1.349 . S
C1685 H1677 0.950 . S
C1685 C1683 1.327 . S
C1686 C1674 1.349 . S
C1686 H1680 0.950 . S
C1686 C1687 1.327 . S
C1687 H1681 0.950 . S
C1687 C1686 1.327 . S
C1687 C1691 1.429 . S
C1688 C1671 1.574 . S
C1688 H1682 0.949 . S
C1688 C1692 1.368 . S
C1689 C1670 1.429 . S
C1689 C1683 1.429 . S
C1689 C1690 1.523 . S
C1690 C1671 1.368 . S
C1690 C1684 1.368 . S
C1690 C1689 1.523 . S
C1691 C1675 1.429 . S
C1691 C1687 1.429 . S
C1691 C1692 1.523 . S
C1692 C1676 1.368 . S
C1692 C1688 1.368 . S
C1692 C1691 1.523 . S
H1693 C1668 0.950 . S
H1694 C1670 0.950 . S
H1695 C1671 0.949 . S
H1696 C1673 0.950 . S
H1697 C1675 0.950 . S
C1698 C1699 1.349 . S
C1698 C1700 1.327 . S
C1698 H1723 0.950 . S
C1699 C1698 1.349 . S
C1699 C1715 1.349 1_556 S
C1700 C1698 1.327 . S
C1700 C1719 1.429 1_545 S
C1700 H1724 0.950 . S
C1701 C1718 1.574 . S
C1701 C1720 1.368 . S
C1701 H1725 0.949 1_556 S
H1702 C1706 0.949 . S
C1703 C1704 1.349 . S
C1703 C1705 1.327 . S
C1703 H1726 0.950 . S
C1704 C1703 1.349 . S
C1704 C1716 1.349 . S
C1705 C1703 1.327 . S
C1705 C1721 1.429 . S
C1705 H1727 0.950 . S
C1706 H1702 0.949 . S
C1706 C1714 1.574 . S
C1706 C1722 1.368 . S
H1707 C1715 0.950 . S
H1708 C1713 0.950 . S
H1709 C1714 0.949 . S
H1710 C1716 0.950 . S
H1711 C1717 0.950 . S
H1712 C1718 0.939 1_554 S
C1713 H1708 0.950 . S
C1713 C1715 1.327 . S
C1713 C1719 1.429 1_544 S
C1714 C1706 1.574 . S
C1714 H1709 0.949 . S
C1714 C1720 1.368 . S
C1715 C1699 1.349 1_554 S
C1715 H1707 0.950 . S
C1715 C1713 1.327 . S
C1716 C1704 1.349 . S
C1716 H1710 0.950 . S
C1716 C1717 1.327 . S
C1717 H1711 0.950 . S
C1717 C1716 1.327 . S
C1717 C1721 1.429 . S
C1718 C1701 1.574 . S
C1718 H1712 0.939 1_556 S
C1718 C1722 1.368 . S
C1719 C1700 1.429 1_565 S
C1719 C1713 1.429 1_566 S
C1719 C1720 1.523 . S
C1720 C1701 1.368 . S
C1720 C1714 1.368 . S
C1720 C1719 1.523 . S
C1721 C1705 1.429 . S
C1721 C1717 1.429 . S
C1721 C1722 1.523 . S
C1722 C1706 1.368 . S
C1722 C1718 1.368 . S
C1722 C1721 1.523 . S
H1723 C1698 0.950 . S
H1724 C1700 0.950 . S
H1725 C1701 0.949 1_554 S
H1726 C1703 0.950 . S
H1727 C1705 0.950 . S
C1728 C1729 1.349 . S
C1728 C1730 1.327 . S
C1728 H1753 0.950 . S
C1729 C1728 1.349 . S
C1729 C1745 1.349 . S
C1730 C1728 1.327 . S
C1730 C1749 1.429 . S
C1730 H1754 0.950 . S
C1731 C1748 1.574 . S
C1731 C1750 1.368 . S
C1731 H1755 0.949 . S
H1732 C1736 0.949 . S
C1733 C1734 1.349 . S
C1733 C1735 1.327 . S
C1733 H1756 0.950 . S
C1734 C1733 1.349 . S
C1734 C1746 1.349 . S
C1735 C1733 1.327 . S
C1735 C1751 1.429 . S
C1735 H1757 0.950 . S
C1736 H1732 0.949 . S
C1736 C1744 1.574 . S
C1736 C1752 1.368 . S
H1737 C1745 0.950 . S
H1738 C1743 0.950 . S
H1739 C1744 0.949 . S
H1740 C1746 0.950 . S
H1741 C1747 0.950 . S
H1742 C1748 0.949 . S
C1743 H1738 0.950 . S
C1743 C1745 1.327 . S
C1743 C1749 1.429 . S
C1744 C1736 1.574 . S
C1744 H1739 0.949 . S
C1744 C1750 1.368 . S
C1745 C1729 1.349 . S
C1745 H1737 0.950 . S
C1745 C1743 1.327 . S
C1746 C1734 1.349 . S
C1746 H1740 0.950 . S
C1746 C1747 1.327 . S
C1747 H1741 0.950 . S
C1747 C1746 1.327 . S
C1747 C1751 1.429 . S
C1748 C1731 1.574 . S
C1748 H1742 0.949 . S
C1748 C1752 1.368 . S
C1749 C1730 1.429 . S
C1749 C1743 1.429 . S
C1749 C1750 1.523 . S
C1750 C1731 1.368 . S
C1750 C1744 1.368 . S
C1750 C1749 1.523 . S
C1751 C1735 1.429 . S
C1751 C1747 1.429 . S
C1751 C1752 1.523 . S
C1752 C1736 1.368 . S
C1752 C1748 1.368 . S
C1752 C1751 1.523 . S
H1753 C1728 0.950 . S
H1754 C1730 0.950 . S
H1755 C1731 0.949 . S
H1756 C1733 0.950 . S
H1757 C1735 0.950 . S
C1758 C1759 1.349 . S
C1758 C1760 1.327 . S
C1758 H1783 0.950 . S
C1759 C1758 1.349 . S
C1759 C1775 1.349 1_554 S
C1760 C1758 1.327 . S
C1760 C1779 1.429 . S
C1760 H1784 0.950 . S
C1761 C1778 1.574 . S
C1761 C1780 1.368 . S
C1761 H1785 0.949 1_554 S
H1762 C1766 0.949 . S
C1763 C1764 1.349 . S
C1763 C1765 1.327 . S
C1763 H1786 0.950 . S
C1764 C1763 1.349 . S
C1764 C1776 1.349 . S
C1765 C1763 1.327 . S
C1765 C1781 1.429 . S
C1765 H1787 0.950 . S
C1766 H1762 0.949 . S
C1766 C1774 1.574 . S
C1766 C1782 1.368 . S
H1767 C1775 0.950 . S
H1768 C1773 0.950 1_556 S
H1769 C1774 0.949 . S
H1770 C1776 0.950 . S
H1771 C1777 0.950 . S
H1772 C1778 0.949 . S
C1773 H1768 0.950 1_554 S
C1773 C1775 1.327 1_554 S
C1773 C1779 1.429 . S
C1774 C1766 1.574 . S
C1774 H1769 0.949 . S
C1774 C1780 1.368 . S
C1775 C1759 1.349 1_556 S
C1775 H1767 0.950 . S
C1775 C1773 1.327 1_556 S
C1776 C1764 1.349 . S
C1776 H1770 0.950 . S
C1776 C1777 1.327 . S
C1777 H1771 0.950 . S
C1777 C1776 1.327 . S
C1777 C1781 1.429 . S
C1778 C1761 1.574 . S
C1778 H1772 0.949 . S
C1778 C1782 1.368 . S
C1779 C1760 1.429 . S
C1779 C1773 1.429 . S
C1779 C1780 1.523 . S
C1780 C1761 1.368 . S
C1780 C1774 1.368 . S
C1780 C1779 1.523 . S
C1781 C1765 1.429 . S
C1781 C1777 1.429 . S
C1781 C1782 1.523 . S
C1782 C1766 1.368 . S
C1782 C1778 1.368 . S
C1782 C1781 1.523 . S
H1783 C1758 0.950 . S
H1784 C1760 0.950 . S
H1785 C1761 0.949 1_556 S
H1786 C1763 0.950 . S
H1787 C1765 0.950 . S
C1788 C1789 1.349 . S
C1788 C1790 1.327 . S
C1788 H1813 0.950 . S
C1789 C1788 1.349 . S
C1789 C1805 1.349 . S
C1790 C1788 1.327 . S
C1790 C1809 1.429 . S
C1790 H1814 0.950 . S
C1791 C1808 1.574 . S
C1791 C1810 1.368 . S
C1791 H1815 0.949 . S
H1792 C1796 0.949 . S
C1793 C1794 1.349 . S
C1793 C1795 1.327 . S
C1793 H1816 0.950 . S
C1794 C1793 1.349 . S
C1794 C1806 1.349 . S
C1795 C1793 1.327 . S
C1795 C1811 1.429 . S
C1795 H1817 0.950 . S
C1796 H1792 0.949 . S
C1796 C1804 1.574 . S
C1796 C1812 1.368 . S
H1797 C1805 0.950 . S
H1798 C1803 0.950 . S
H1799 C1804 0.949 . S
H1800 C1806 0.950 . S
H1801 C1807 0.950 . S
H1802 C1808 0.949 . S
C1803 H1798 0.950 . S
C1803 C1805 1.327 . S
C1803 C1809 1.429 . S
C1804 C1796 1.574 . S
C1804 H1799 0.949 . S
C1804 C1810 1.368 . S
C1805 C1789 1.349 . S
C1805 H1797 0.950 . S
C1805 C1803 1.327 . S
C1806 C1794 1.349 . S
C1806 H1800 0.950 . S
C1806 C1807 1.327 . S
C1807 H1801 0.950 . S
C1807 C1806 1.327 . S
C1807 C1811 1.429 . S
C1808 C1791 1.574 . S
C1808 H1802 0.949 . S
C1808 C1812 1.368 . S
C1809 C1790 1.429 . S
C1809 C1803 1.429 . S
C1809 C1810 1.523 . S
C1810 C1791 1.368 . S
C1810 C1804 1.368 . S
C1810 C1809 1.523 . S
C1811 C1795 1.429 . S
C1811 C1807 1.429 . S
C1811 C1812 1.523 . S
C1812 C1796 1.368 . S
C1812 C1808 1.368 . S
C1812 C1811 1.523 . S
H1813 C1788 0.950 . S
H1814 C1790 0.950 . S
H1815 C1791 0.949 . S
H1816 C1793 0.950 . S
H1817 C1795 0.950 . S
C1818 C1819 1.349 . S
C1818 C1820 1.327 . S
C1818 H1843 0.950 . S
C1819 C1818 1.349 . S
C1819 C1835 1.349 . S
C1820 C1818 1.327 . S
C1820 C1839 1.429 . S
C1820 H1844 0.950 . S
C1821 C1838 1.574 . S
C1821 C1840 1.368 . S
C1821 H1845 0.949 . S
H1822 C1826 0.949 . S
C1823 C1824 1.349 . S
C1823 C1825 1.327 . S
C1823 H1846 0.950 . S
C1824 C1823 1.349 . S
C1824 C1836 1.349 . S
C1825 C1823 1.327 . S
C1825 C1841 1.429 . S
C1825 H1847 0.950 . S
C1826 H1822 0.949 . S
C1826 C1834 1.574 . S
C1826 C1842 1.368 . S
H1827 C1835 0.950 . S
H1828 C1833 0.950 . S
H1829 C1834 0.949 . S
H1830 C1836 0.950 . S
H1831 C1837 0.950 . S
H1832 C1838 0.949 . S
C1833 H1828 0.950 . S
C1833 C1835 1.327 . S
C1833 C1839 1.429 . S
C1834 C1826 1.574 . S
C1834 H1829 0.949 . S
C1834 C1840 1.368 . S
C1835 C1819 1.349 . S
C1835 H1827 0.950 . S
C1835 C1833 1.327 . S
C1836 C1824 1.349 . S
C1836 H1830 0.950 . S
C1836 C1837 1.327 . S
C1837 H1831 0.950 . S
C1837 C1836 1.327 . S
C1837 C1841 1.429 . S
C1838 C1821 1.574 . S
C1838 H1832 0.949 . S
C1838 C1842 1.368 . S
C1839 C1820 1.429 . S
C1839 C1833 1.429 . S
C1839 C1840 1.523 . S
C1840 C1821 1.368 . S
C1840 C1834 1.368 . S
C1840 C1839 1.523 . S
C1841 C1825 1.429 . S
C1841 C1837 1.429 . S
C1841 C1842 1.523 . S
C1842 C1826 1.368 . S
C1842 C1838 1.368 . S
C1842 C1841 1.523 . S
H1843 C1818 0.950 . S
H1844 C1820 0.950 . S
H1845 C1821 0.949 . S
H1846 C1823 0.950 . S
H1847 C1825 0.950 . S
C414 C404 1.042 . S
C409 C5 1.133 . S
C439 C16 1.151 . S
C444 C333 1.020 . S
C469 C36 1.122 . S
C474 C362 1.033 . S
C504 C375 1.011 . S
C499 C49 1.136 . S
C529 C23 1.115 . S
C534 C396 0.987 . S
C564 C341 1.060 . S
C559 C29 1.152 . S
C594 C354 0.994 . S
C589 C42 1.124 . S
C624 C383 1.054 . S
C619 C4 1.142 . S
C649 C55 1.123 . S
C654 C385 1.006 . S
C684 C399 1.058 . S
C679 C69 1.144 . S
C714 C343 1.006 . S
C709 C83 1.122 . S
C744 C357 1.054 . S
C739 C101 1.139 . S
C769 C57 1.123 . S
C774 C336 1.038 . S
C799 C75 1.144 . S
C804 C364 1.030 . S
C829 C81 1.121 . S
C834 C378 1.034 . S
C864 C406 1.031 . S
C859 C95 1.144 . S
C894 C215 1.029 . S
C889 C96 1.121 . S
C924 C196 0.997 . S
C919 C107 1.108 . S
C954 C210 1.048 . S
C949 C121 1.134 . S
C984 C231 1.033 . S
C979 C133 1.118 . S
C1009 C62 1.133 . S
C1014 C217 1.017 . S
C1039 C68 1.130 . S
C1044 C168 1.039 . S
C1069 C127 1.155 . S
C1074 C228 1.028 . S
C1099 C147 1.146 . S
C1104 C194 1.061 . S
C1134 C257 1.029 . S
C1129 C30 1.120 . S
C1164 C270 1.012 . S
C1159 C43 1.137 . S
C1189 C3 1.133 . S
C1194 C299 1.041 . S
C1219 C18 1.142 . S
C1224 C312 1.013 . S
C1254 C249 0.996 . S
C1249 C44 1.127 . S
C1284 C278 1.060 . S
C1279 C10 1.147 . S
C1309 C17 1.121 . S
C1314 C291 0.996 . S
C1344 C320 1.059 . S
C1339 C31 1.148 . S
C1369 C146 1.139 . S
C1374 C322 1.021 . S
C1399 C114 1.127 . S
C1404 C252 1.045 . S
C1434 C280 1.011 . S
C1429 C122 1.129 . S
C1459 C140 1.137 . S
C1464 C294 1.057 . S
C1494 C273 1.044 . S
C1489 C148 1.134 . S
C1519 C108 1.126 . S
C1524 C301 1.014 . S
C1554 C315 1.042 . S
C1549 C120 1.131 . S
C1584 C259 1.026 . S
C1579 C134 1.139 . S
C1614 C175 1.008 . S
C1609 C135 1.131 . S
C1644 C238 1.025 . S
C1639 C70 1.143 . S
C1669 C82 1.138 . S
C1674 C165 1.009 . S
C1704 C189 1.044 . S
C1699 C94 1.133 . S
C1734 C173 1.050 . S
C1729 C153 1.142 . S
C1759 C109 1.123 . S
C1764 C207 0.991 . S
C1789 C88 1.126 . S
C1794 C186 1.005 . S
C1819 C56 1.127 . S
C1824 C236 1.046 . S
