# Generated by pormake.
# Topology anh, (6,3)-cn, num edge types: 1
# Building blocks:
#     Node 0, Type 0, BuildingBlock: BETDEL_clean_sbu_0, # of connection points: 6
#     Node 1, Type 0, BuildingBlock: BETDEL_clean_sbu_0, # of connection points: 6
#     Node 2, Type 0, BuildingBlock: BETDEL_clean_sbu_0, # of connection points: 6
#     Node 3, Type 1, BuildingBlock: VETTIZ_charged_linker_0, # of connection points: 3
#     Node 4, Type 1, BuildingBlock: VETTIZ_charged_linker_0, # of connection points: 3
#     Node 5, Type 1, BuildingBlock: VETTIZ_charged_linker_0, # of connection points: 3
#     Node 6, Type 1, BuildingBlock: VETTIZ_charged_linker_0, # of connection points: 3
#     Node 7, Type 1, BuildingBlock: VETTIZ_charged_linker_0, # of connection points: 3
#     Node 8, Type 1, BuildingBlock: VETTIZ_charged_linker_0, # of connection points: 3
#     Edge 9, Type (0, 1), BuildingBlock: MIFKUJ_clean_linker_0, # of connection points: 2
#     Edge 10, Type (0, 1), BuildingBlock: MIFKUJ_clean_linker_0, # of connection points: 2
#     Edge 11, Type (0, 1), BuildingBlock: MIFKUJ_clean_linker_0, # of connection points: 2
#     Edge 12, Type (0, 1), BuildingBlock: MIFKUJ_clean_linker_0, # of connection points: 2
#     Edge 13, Type (0, 1), BuildingBlock: MIFKUJ_clean_linker_0, # of connection points: 2
#     Edge 14, Type (0, 1), BuildingBlock: MIFKUJ_clean_linker_0, # of connection points: 2
#     Edge 15, Type (0, 1), BuildingBlock: MIFKUJ_clean_linker_0, # of connection points: 2
#     Edge 16, Type (0, 1), BuildingBlock: MIFKUJ_clean_linker_0, # of connection points: 2
#     Edge 17, Type (0, 1), BuildingBlock: MIFKUJ_clean_linker_0, # of connection points: 2
#     Edge 18, Type (0, 1), BuildingBlock: MIFKUJ_clean_linker_0, # of connection points: 2
#     Edge 19, Type (0, 1), BuildingBlock: MIFKUJ_clean_linker_0, # of connection points: 2
#     Edge 20, Type (0, 1), BuildingBlock: MIFKUJ_clean_linker_0, # of connection points: 2
#     Edge 21, Type (0, 1), BuildingBlock: MIFKUJ_clean_linker_0, # of connection points: 2
#     Edge 22, Type (0, 1), BuildingBlock: MIFKUJ_clean_linker_0, # of connection points: 2
#     Edge 23, Type (0, 1), BuildingBlock: MIFKUJ_clean_linker_0, # of connection points: 2
#     Edge 24, Type (0, 1), BuildingBlock: MIFKUJ_clean_linker_0, # of connection points: 2
#     Edge 25, Type (0, 1), BuildingBlock: MIFKUJ_clean_linker_0, # of connection points: 2
#     Edge 26, Type (0, 1), BuildingBlock: MIFKUJ_clean_linker_0, # of connection points: 2
# Relax obj value: 0.140
# Max RMSD: 0.166
# Mean RMSD: 0.133
data_MOF--net-anh--node1-BETDEL_clean_sbu_0--node2-VETTIZ_charged_linker_0--edge1-MIFKUJ_clean_linker_0
_symmetry_space_group_name_H-M    P1
_symmetry_Int_Tables_number       1
_symmetry_cell_setting            triclinic
loop_
_symmetry_equiv_pos_as_xyz
'x, y, z'
_cell_length_a     44.183775
_cell_length_b     44.18469
_cell_length_c     80.723077
_cell_angle_alpha  89.978452
_cell_angle_beta   90.043865
_cell_angle_gamma 120.01237
loop_
_atom_site_label
_atom_site_type_symbol
_atom_site_fract_x
_atom_site_fract_y
_atom_site_fract_z
_atom_type_partial_charge
Dy0 Dy 0.04762 0.48722 0.16223 0.0
C1 C 0.96066 0.55093 0.17615 0.0
C2 C 0.08809 0.46314 0.14898 0.0
Dy3 Dy 1.00493 0.52777 0.16723 0.0
O4 O 0.06511 0.44757 0.16064 0.0
O5 O 0.0881 0.49129 0.14423 0.0
O6 O 0.05549 0.48109 0.18977 0.0
O7 O 0.02905 0.50558 0.18168 0.0
C8 C 0.03818 0.49628 0.19441 0.0
C9 C 0.02807 0.52714 0.13664 0.0
O10 O 0.05926 0.57069 0.17338 0.0
O11 O 0.08937 0.54451 0.16213 0.0
O12 O 0.9646 0.54249 0.16123 0.0
O13 O 0.98114 0.54687 0.18638 0.0
O14 O 0.02458 0.55265 0.14249 0.0
O15 O 0.01651 0.50223 0.14689 0.0
O16 O 0.99233 0.44241 0.15954 0.0
O17 O 0.9629 0.47094 0.16887 0.0
C18 C 0.08869 0.57209 0.16842 0.0
C19 C 0.96329 0.44209 0.16438 0.0
Dy20 Dy 0.49516 0.03469 0.49732 0.0
C21 C 0.6409 0.11703 0.51149 0.0
C22 C 0.4284 0.99132 0.48695 0.0
Dy23 Dy 0.57349 0.07268 0.50198 0.0
O24 O 0.43707 0.00942 0.50052 0.0
O25 O 0.45625 0.99731 0.47886 0.0
O26 O 0.48825 0.05219 0.52232 0.0
O27 O 0.52957 0.04234 0.51821 0.0
C28 C 0.51632 0.05404 0.52838 0.0
C29 C 0.55168 0.05316 0.47085 0.0
O30 O 0.56383 0.01894 0.50777 0.0
O31 O 0.50673 0.99002 0.49803 0.0
O32 O 0.63109 0.10336 0.49688 0.0
O33 O 0.61382 0.10601 0.52107 0.0
O34 O 0.57872 0.05322 0.47718 0.0
O35 O 0.53907 0.06561 0.48099 0.0
O36 O 0.50538 0.08876 0.49175 0.0
O37 O 0.56095 0.11649 0.50315 0.0
C38 C 0.5351 0.98972 0.50338 0.0
C39 C 0.53318 0.11736 0.49742 0.0
Dy40 Dy 0.6004 0.60073 0.83414 0.0
C41 C 0.53583 0.4538 0.84266 0.0
C42 C 0.62152 0.66971 0.82995 0.0
Dy43 Dy 0.56055 0.52269 0.83565 0.0
O44 O 0.61001 0.65234 0.84362 0.0
O45 O 0.62237 0.64954 0.81844 0.0
O46 O 0.62588 0.60196 0.85826 0.0
O47 O 0.57359 0.56304 0.854 0.0
C48 C 0.59894 0.574 0.86395 0.0
C49 C 0.56226 0.54899 0.80559 0.0
O50 O 0.51643 0.53185 0.84217 0.0
O51 O 0.54406 0.58743 0.83101 0.0
O52 O 0.53678 0.46646 0.82806 0.0
O53 O 0.5481 0.47876 0.85354 0.0
O54 O 0.53533 0.52121 0.81144 0.0
O55 O 0.58756 0.5602 0.81561 0.0
O56 O 0.6461 0.59352 0.82875 0.0
O57 O 0.61704 0.53506 0.8364 0.0
C58 C 0.51558 0.55984 0.83691 0.0
C59 C 0.64624 0.56424 0.83227 0.0
C60 C 0.61058 0.09561 0.18835 0.0
C61 C 0.63745 0.12614 0.19599 0.0
C62 C 0.63616 0.13023 0.21318 0.0
C63 C 0.58237 0.07458 0.21515 0.0
C64 C 0.58298 0.07019 0.19821 0.0
C65 C 0.55106 0.03641 0.19259 0.0
H66 H 0.39625 0.8912 0.21544 0.0
C67 C 0.55084 0.04416 0.22208 0.0
C68 C 0.53186 0.02137 0.20898 0.0
H69 H 0.43688 0.91755 0.16572 0.0
H70 H 0.48902 0.96943 0.17614 0.0
H71 H 0.46541 0.90524 0.23128 0.0
H72 H 0.41618 0.96751 0.22714 0.0
H73 H 0.43198 0.97257 0.24751 0.0
H74 H 0.4003 0.9297 0.2402 0.0
H75 H 0.43146 0.8998 0.2452 0.0
H76 H 0.477 0.93016 0.24949 0.0
C77 C 0.56344 0.01272 0.18468 0.0
C78 C 0.52958 0.04569 0.18069 0.0
C79 C 0.53092 0.03799 0.28448 0.0
C80 C 0.50544 0.01222 0.2948 0.0
C81 C 0.47817 0.98168 0.28765 0.0
C82 C 0.47616 0.97683 0.27046 0.0
C83 C 0.50194 1.00263 0.26024 0.0
C84 C 0.52884 0.03245 0.2673 0.0
C85 C 0.55465 0.05624 0.25456 0.0
C86 C 0.53869 0.03581 0.23867 0.0
C87 C 0.50772 1.00473 0.2421 0.0
C88 C 0.59052 0.05942 0.25849 0.0
C89 C 0.55455 0.09132 0.25484 0.0
C90 C 0.41607 0.90828 0.20669 0.0
C91 C 0.41197 0.90056 0.18972 0.0
C92 C 0.4392 0.92301 0.17888 0.0
C93 C 0.46934 0.95318 0.18494 0.0
C94 C 0.4725 0.96082 0.20204 0.0
C95 C 0.44606 0.93794 0.2125 0.0
C96 C 0.45337 0.94833 0.23031 0.0
C97 C 0.48801 0.98194 0.22902 0.0
C98 C 0.49968 0.98975 0.21247 0.0
C99 C 0.45679 0.91946 0.23968 0.0
C100 C 0.42396 0.95471 0.23679 0.0
H101 H 0.61001 0.10983 0.23576 0.0
H102 H 0.61081 0.09196 0.1751 0.0
H103 H 0.52617 0.06704 0.18597 0.0
H104 H 0.50307 0.02352 0.17851 0.0
H105 H 0.54302 0.05469 0.16855 0.0
H106 H 0.58335 0.01155 0.19267 0.0
H107 H 0.57544 0.02292 0.17236 0.0
H108 H 0.54201 0.98553 0.18318 0.0
H109 H 0.55246 0.06152 0.28969 0.0
H110 H 0.45821 0.96158 0.2954 0.0
H111 H 0.45454 0.9531 0.26584 0.0
H112 H 0.58709 0.03461 0.26375 0.0
H113 H 0.6054 0.08044 0.26767 0.0
H114 H 0.60684 0.06409 0.24737 0.0
H115 H 0.5283 0.08714 0.25818 0.0
H116 H 0.56016 0.10422 0.2426 0.0
H117 H 0.5735 0.10969 0.26406 0.0
H118 H 0.65646 0.15339 0.21929 0.0
C119 C 0.60906 0.10479 0.22275 0.0
C120 C 0.5332 0.63854 0.52273 0.0
C121 C 0.53542 0.66829 0.53055 0.0
C122 C 0.53915 0.67145 0.54783 0.0
C123 C 0.53952 0.61691 0.54952 0.0
C124 C 0.53547 0.61309 0.53253 0.0
C125 C 0.53429 0.57968 0.52683 0.0
H126 H 0.55176 0.43859 0.54888 0.0
C127 C 0.54236 0.58736 0.55629 0.0
C128 C 0.53968 0.56521 0.54313 0.0
H129 H 0.52745 0.46008 0.50004 0.0
H130 H 0.52856 0.51252 0.51051 0.0
H131 H 0.60846 0.51552 0.55829 0.0
H132 H 0.49809 0.45379 0.56731 0.0
H133 H 0.51678 0.47688 0.58566 0.0
H134 H 0.52958 0.44661 0.57799 0.0
H135 H 0.59054 0.48158 0.57361 0.0
H136 H 0.60192 0.52593 0.57845 0.0
C137 C 0.5645 0.58932 0.51456 0.0
C138 C 0.49789 0.5553 0.51932 0.0
C139 C 0.55838 0.5825 0.61846 0.0
C140 C 0.5644 0.56015 0.62856 0.0
C141 C 0.56751 0.53297 0.62117 0.0
C142 C 0.56385 0.52761 0.604 0.0
C143 C 0.55727 0.54984 0.59404 0.0
C144 C 0.55526 0.57707 0.6013 0.0
C145 C 0.55004 0.59916 0.58874 0.0
C146 C 0.54795 0.57993 0.57277 0.0
C147 C 0.55188 0.55098 0.57597 0.0
C148 C 0.58269 0.63641 0.58923 0.0
C149 C 0.51495 0.59761 0.59269 0.0
C150 C 0.54703 0.45468 0.54033 0.0
C151 C 0.54005 0.44536 0.52357 0.0
C152 C 0.53302 0.46669 0.51303 0.0
C153 C 0.53372 0.49713 0.51912 0.0
C154 C 0.541 0.50609 0.53601 0.0
C155 C 0.54709 0.48449 0.54622 0.0
C156 C 0.55273 0.49615 0.56391 0.0
C157 C 0.54934 0.52849 0.56285 0.0
C158 C 0.54281 0.53494 0.54647 0.0
C159 C 0.5902 0.50509 0.56899 0.0
C160 C 0.52304 0.46694 0.5744 0.0
H161 H 0.54387 0.6504 0.57039 0.0
H162 H 0.53023 0.63548 0.50942 0.0
H163 H 0.47706 0.55462 0.52732 0.0
H164 H 0.49204 0.52801 0.51834 0.0
H165 H 0.49553 0.56453 0.50684 0.0
H166 H 0.58947 0.6106 0.51973 0.0
H167 H 0.5595 0.59857 0.50262 0.0
H168 H 0.5687 0.56719 0.51198 0.0
H169 H 0.55646 0.60398 0.6238 0.0
H170 H 0.57204 0.51538 0.62875 0.0
H171 H 0.56605 0.50616 0.59919 0.0
H172 H 0.606 0.63616 0.5943 0.0
H173 H 0.57807 0.6543 0.59711 0.0
H174 H 0.59097 0.64802 0.57674 0.0
H175 H 0.49489 0.57086 0.59668 0.0
H176 H 0.50335 0.60329 0.58185 0.0
H177 H 0.51817 0.61592 0.60286 0.0
H178 H 0.54072 0.69394 0.55405 0.0
C179 C 0.54108 0.64608 0.5573 0.0
C180 C 0.16912 0.56518 0.85723 0.0
C181 C 0.1963 0.56334 0.86575 0.0
C182 C 0.19213 0.55542 0.88277 0.0
C183 C 0.1363 0.55323 0.88299 0.0
C184 C 0.13928 0.56018 0.86618 0.0
C185 C 0.10777 0.562 0.8598 0.0
H186 H 0.94795 0.54552 0.87875 0.0
C187 C 0.10328 0.55005 0.88902 0.0
C188 C 0.08584 0.55493 0.87555 0.0
H189 H 0.9969 0.57011 0.83066 0.0
H190 H 0.04742 0.56849 0.8421 0.0
H191 H 0.96742 0.48798 0.88916 0.0
H192 H 0.01398 0.59822 0.89768 0.0
H193 H 0.02195 0.58159 0.91583 0.0
H194 H 0.97745 0.56683 0.90957 0.0
H195 H 0.94901 0.50669 0.90273 0.0
H196 H 0.98045 0.49508 0.91002 0.0
C197 C 0.08881 0.53306 0.84674 0.0
C198 C 0.12052 0.59905 0.85298 0.0
C199 C 0.07575 0.52936 0.95062 0.0
C200 C 0.04816 0.52683 0.96032 0.0
C201 C 0.02031 0.52805 0.95245 0.0
C202 C 0.02014 0.53223 0.93526 0.0
C203 C 0.04826 0.53551 0.92573 0.0
C204 C 0.07533 0.5339 0.93344 0.0
C205 C 0.1033 0.53862 0.9214 0.0
C206 C 0.08871 0.54367 0.9052 0.0
C207 C 0.0565 0.54168 0.90783 0.0
C208 C 0.10519 0.50446 0.92138 0.0
C209 C 0.13767 0.57201 0.92652 0.0
C210 C 0.96931 0.55021 0.87057 0.0
C211 C 0.96808 0.5573 0.85375 0.0
C212 C 0.99709 0.56436 0.84368 0.0
C213 C 0.0263 0.5633 0.85033 0.0
C214 C 0.02677 0.55568 0.86729 0.0
C215 C 0.99849 0.54977 0.87701 0.0
C216 C 1.00309 0.54373 0.89482 0.0
C217 C 0.03833 0.54594 0.89437 0.0
C218 C 0.05263 0.55278 0.87824 0.0
C219 C 0.97344 0.50659 0.8996 0.0
C220 C 1.00395 0.57386 0.90513 0.0
H221 H 0.16171 0.54469 0.90427 0.0
H222 H 0.17141 0.57105 0.84412 0.0
H223 H 0.13893 0.6191 0.86184 0.0
H224 H 0.09897 0.60449 0.85113 0.0
H225 H 0.1344 0.60294 0.841 0.0
H226 H 0.08448 0.5076 0.85154 0.0
H227 H 0.10459 0.53926 0.83523 0.0
H228 H 0.06285 0.52916 0.84351 0.0
H229 H 0.09769 0.52884 0.95632 0.0
H230 H 0.99854 0.52572 0.95963 0.0
H231 H 0.99814 0.53295 0.93011 0.0
H232 H 0.07939 0.48131 0.9244 0.0
H233 H 0.12429 0.50561 0.93068 0.0
H234 H 0.11181 0.49834 0.90908 0.0
H235 H 0.13218 0.59201 0.93184 0.0
H236 H 0.15524 0.58535 0.91596 0.0
H237 H 0.15208 0.56601 0.93604 0.0
H238 H 0.21195 0.55298 0.88958 0.0
C239 C 0.16261 0.55039 0.89134 0.0
C240 C 0.92981 0.47167 0.47708 0.0
C241 C 0.9012 0.44001 0.47164 0.0
C242 C 0.89432 0.43455 0.4545 0.0
C243 C 0.94413 0.4913 0.44856 0.0
C244 C 0.95082 0.49691 0.46536 0.0
C245 C 0.98245 0.53192 0.46891 0.0
H246 H 0.12036 0.68009 0.43916 0.0
C247 C 0.9712 0.52206 0.43963 0.0
C248 C 0.99375 0.54608 0.45148 0.0
H249 H 0.09328 0.65174 0.49047 0.0
H250 H 0.04135 0.59816 0.48204 0.0
H251 H 0.10365 0.60569 0.42678 0.0
H252 H 0.04464 0.65878 0.42723 0.0
H253 H 0.0339 0.63536 0.40856 0.0
H254 H 0.07861 0.66876 0.41242 0.0
H255 H 0.11207 0.64048 0.41272 0.0
H256 H 0.08102 0.59552 0.40791 0.0
C257 C 1.00993 0.52563 0.47775 0.0
C258 C 0.97065 0.55399 0.47901 0.0
C259 C 0.9738 0.52285 0.37655 0.0
C260 C 0.99772 0.54679 0.36507 0.0
C261 C 0.02565 0.57869 0.37077 0.0
C262 C 0.03035 0.58634 0.38768 0.0
C263 C 1.00707 0.5617 0.3991 0.0
C264 C 0.97912 0.53076 0.39349 0.0
C265 C 0.95772 0.50746 0.40755 0.0
C266 C 0.97757 0.52957 0.42245 0.0
C267 C 1.00639 0.56116 0.41736 0.0
C268 C 0.95917 0.47316 0.40657 0.0
C269 C 0.92046 0.50237 0.40633 0.0
C270 C 0.10345 0.66219 0.4486 0.0
C271 C 0.11108 0.66971 0.46547 0.0
C272 C 0.08789 0.64629 0.47738 0.0
C273 C 0.05791 0.61524 0.47245 0.0
C274 C 0.05109 0.60779 0.45545 0.0
C275 C 0.07357 0.6314 0.44391 0.0
C276 C 0.0623 0.61996 0.42642 0.0
C277 C 0.02928 0.58535 0.42926 0.0
C278 C 0.02289 0.57809 0.44625 0.0
C279 C 0.09117 0.61532 0.41785 0.0
C280 C 0.05463 0.64707 0.41807 0.0
H281 H 0.90891 0.45409 0.43015 0.0
H282 H 0.93563 0.47678 0.49016 0.0
H283 H 0.94414 0.5483 0.47513 0.0
H284 H 0.98762 0.58237 0.47704 0.0
H285 H 0.96958 0.54824 0.49247 0.0
H286 H 1.01095 0.50325 0.47203 0.0
H287 H 1.00337 0.51944 0.49106 0.0
H288 H 0.03675 0.54798 0.47677 0.0
H289 H 0.9523 0.49797 0.37247 0.0
H290 H 0.04416 0.5976 0.36209 0.0
H291 H 0.05238 0.61091 0.3912 0.0
H292 H 0.9851 0.47834 0.40201 0.0
H293 H 0.939 0.45416 0.39795 0.0
H294 H 0.95612 0.46055 0.41874 0.0
H295 H 0.9214 0.52669 0.40191 0.0
H296 H 0.90701 0.49676 0.41841 0.0
H297 H 0.90406 0.48117 0.39748 0.0
H298 H 0.87286 0.41017 0.44993 0.0
C299 C 0.91548 0.46 0.44298 0.0
C300 C 0.58822 0.98974 0.79582 0.0
C301 C 0.59302 0.96659 0.78562 0.0
C302 C 0.59146 0.96948 0.76827 0.0
C303 C 0.58321 0.01926 0.77149 0.0
C304 C 0.5832 0.0157 0.78849 0.0
C305 C 0.57739 0.04238 0.79736 0.0
H306 H 0.56043 0.18641 0.79287 0.0
C307 C 0.57897 0.04958 0.76777 0.0
C308 C 0.57524 0.06318 0.78284 0.0
H309 H 0.55514 0.12771 0.83666 0.0
H310 H 0.56307 0.08674 0.81982 0.0
H311 H 0.62373 0.18253 0.77505 0.0
H312 H 0.51176 0.12024 0.77083 0.0
H313 H 0.5289 0.1252 0.75076 0.0
H314 H 0.53601 0.16332 0.76217 0.0
H315 H 0.59776 0.19832 0.7653 0.0
H316 H 0.61362 0.17397 0.7539 0.0
C317 C 0.60959 0.06482 0.80844 0.0
C318 C 0.54236 0.02285 0.80694 0.0
C319 C 0.58587 0.08849 0.70813 0.0
C320 C 0.58416 0.11628 0.7006 0.0
C321 C 0.57973 0.13987 0.71065 0.0
C322 C 0.57708 0.1358 0.72792 0.0
C323 C 0.57877 0.10778 0.73524 0.0
C324 C 0.58316 0.08479 0.72534 0.0
C325 C 0.58429 0.05648 0.73513 0.0
C326 C 0.57976 0.06616 0.7526 0.0
C327 C 0.57658 0.09618 0.75261 0.0
C328 C 0.62075 0.06017 0.73249 0.0
C329 C 0.55303 0.02076 0.7297 0.0
C330 C 0.56132 0.16489 0.79884 0.0
C331 C 0.55764 0.1604 0.81608 0.0
C332 C 0.55798 0.13161 0.82338 0.0
C333 C 0.56265 0.10798 0.81359 0.0
C334 C 0.56667 0.11308 0.79634 0.0
C335 C 0.56556 0.14099 0.78926 0.0
C336 C 0.56891 0.14177 0.77073 0.0
C337 C 0.57237 0.10979 0.7678 0.0
C338 C 0.5714 0.09324 0.78283 0.0
C339 C 0.60257 0.17595 0.76584 0.0
C340 C 0.53485 0.13768 0.76309 0.0
H341 H 0.58613 0.9965 0.74793 0.0
H342 H 0.58903 0.9882 0.80918 0.0
H343 H 0.52361 0.99812 0.80057 0.0
H344 H 0.52863 0.03795 0.80761 0.0
H345 H 0.5464 0.016 0.81967 0.0
H346 H 0.63416 0.07211 0.80161 0.0
H347 H 0.60914 0.05019 0.81972 0.0
H348 H 0.61165 0.08973 0.81228 0.0
H349 H 0.58853 0.06946 0.70077 0.0
H350 H 0.5785 0.1616 0.70515 0.0
H351 H 0.57376 0.1546 0.7349 0.0
H352 H 0.64148 0.0882 0.73204 0.0
H353 H 0.62173 0.04795 0.72063 0.0
H354 H 0.62868 0.04894 0.74266 0.0
H355 H 0.53061 0.02357 0.72541 0.0
H356 H 0.54226 1.00172 0.73998 0.0
H357 H 0.56042 0.0092 0.71935 0.0
H358 H 0.59384 0.95137 0.76009 0.0
C359 C 0.58671 0.99564 0.76119 0.0
C360 C 0.61895 0.5097 0.14966 0.0
C361 C 0.65094 0.51287 0.14475 0.0
C362 C 0.65742 0.51128 0.12777 0.0
C363 C 0.60087 0.5039 0.12084 0.0
C364 C 0.59418 0.5049 0.13751 0.0
C365 C 0.55824 0.49976 0.14043 0.0
H366 H 0.40819 0.4807 0.1078 0.0
C367 C 0.57021 0.49902 0.11137 0.0
C368 C 0.54491 0.49624 0.12277 0.0
H369 H 0.43316 0.48237 0.15965 0.0
H370 H 0.48924 0.48826 0.15234 0.0
H371 H 0.48246 0.54179 0.09656 0.0
H372 H 0.43415 0.42998 0.09676 0.0
H373 H 0.45934 0.44379 0.07863 0.0
H374 H 0.42412 0.45292 0.08136 0.0
H375 H 0.44895 0.51434 0.08215 0.0
H376 H 0.49457 0.53049 0.0779 0.0
C377 C 0.56232 0.53287 0.14904 0.0
C378 C 0.53677 0.46565 0.15048 0.0
C379 C 0.5739 0.50263 0.04828 0.0
C380 C 0.54986 0.5008 0.03631 0.0
C381 C 0.51681 0.49464 0.04148 0.0
C382 C 0.5081 0.49133 0.05827 0.0
C383 C 0.53271 0.49431 0.07013 0.0
C384 C 0.56481 0.49943 0.06509 0.0
C385 C 0.58752 0.50196 0.07956 0.0
C386 C 0.56381 0.49794 0.09406 0.0
C387 C 0.53192 0.49362 0.08839 0.0
C388 C 0.6207 0.53865 0.07917 0.0
C389 C 0.59478 0.47113 0.07847 0.0
C390 C 0.42586 0.48266 0.1176 0.0
C391 C 0.41667 0.48164 0.13429 0.0
C392 C 0.4399 0.48325 0.14669 0.0
C393 C 0.47237 0.48673 0.14241 0.0
C394 C 0.48137 0.48826 0.12557 0.0
C395 C 0.45796 0.48582 0.11355 0.0
C396 C 0.47101 0.48703 0.09631 0.0
C397 C 0.50632 0.49071 0.09984 0.0
C398 C 0.51255 0.49174 0.11695 0.0
C399 C 0.47429 0.51988 0.08762 0.0
C400 C 0.4459 0.45183 0.08767 0.0
H401 H 0.63925 0.50602 0.10312 0.0
H402 H 0.61317 0.51042 0.16264 0.0
H403 H 0.54421 0.44583 0.14708 0.0
H404 H 0.50845 0.45281 0.14792 0.0
H405 H 0.54124 0.47059 0.16399 0.0
H406 H 0.58372 0.55685 0.14318 0.0
H407 H 0.56887 0.5333 0.16236 0.0
H408 H 0.53878 0.53537 0.14803 0.0
H409 H 0.59956 0.50747 0.04468 0.0
H410 H 0.49762 0.4925 0.03248 0.0
H411 H 0.48264 0.487 0.06133 0.0
H412 H 0.61394 0.55892 0.0757 0.0
H413 H 0.63983 0.53966 0.06994 0.0
H414 H 0.63378 0.54703 0.09131 0.0
H415 H 0.57272 0.44796 0.07241 0.0
H416 H 0.59722 0.46158 0.09078 0.0
H417 H 0.61872 0.47839 0.07113 0.0
H418 H 0.68202 0.51398 0.12371 0.0
C419 C 0.63262 0.50684 0.11582 0.0
H420 H 0.14151 0.49778 0.12727 0.0
H421 H 0.19352 0.49223 0.12451 0.0
H422 H 0.14956 0.40543 0.15865 0.0
H423 H 0.09754 0.41128 0.16166 0.0
H424 H 0.21391 0.45405 0.16791 0.0
H425 H 0.16149 0.39302 0.11781 0.0
H426 H 0.1318 0.38285 0.09081 0.0
H427 H 0.21928 0.4761 0.07145 0.0
H428 H 0.24933 0.48711 0.0984 0.0
H429 H 0.36608 0.43538 0.15536 0.0
H430 H 0.30634 0.42521 0.15834 0.0
H431 H 0.33117 0.5108 0.12493 0.0
H432 H 0.39045 0.52082 0.12188 0.0
H433 H 0.27238 0.45297 0.11568 0.0
H434 H 0.32113 0.51773 0.16627 0.0
H435 H 0.35085 0.52974 0.19335 0.0
H436 H 0.2703 0.43064 0.21166 0.0
H437 H 0.24032 0.41784 0.1846 0.0
C438 C 0.14255 0.47696 0.13386 0.0
C439 C 0.11563 0.45502 0.14471 0.0
C440 C 0.17226 0.47375 0.13226 0.0
C441 C 0.17539 0.44834 0.14135 0.0
C442 C 0.14767 0.42522 0.15154 0.0
C443 C 0.11792 0.42845 0.15317 0.0
C444 C 0.20891 0.4483 0.14136 0.0
C445 C 0.22637 0.453 0.15652 0.0
C446 C 0.22544 0.44767 0.12647 0.0
C447 C 0.20758 0.44099 0.11018 0.0
C448 C 0.17431 0.41149 0.10783 0.0
C449 C 0.15743 0.40555 0.09253 0.0
C450 C 0.17362 0.42884 0.07943 0.0
C451 C 0.20677 0.45808 0.0816 0.0
C452 C 0.22377 0.46414 0.09688 0.0
C453 C 0.35887 0.4524 0.14897 0.0
C454 C 0.38265 0.4787 0.13831 0.0
C455 C 0.32479 0.44652 0.15061 0.0
C456 C 0.31429 0.4671 0.14174 0.0
C457 C 0.33861 0.49436 0.13172 0.0
C458 C 0.37245 0.50013 0.13003 0.0
C459 C 0.27766 0.4596 0.14217 0.0
C460 C 0.25963 0.45342 0.12709 0.0
C461 C 0.26069 0.459 0.15711 0.0
C462 C 0.27873 0.46664 0.17335 0.0
C463 C 0.30993 0.49836 0.17602 0.0
C464 C 0.32678 0.50534 0.19137 0.0
C465 C 0.31254 0.48092 0.20419 0.0
C466 C 0.28135 0.4495 0.2017 0.0
C467 C 0.26441 0.44237 0.18637 0.0
H468 H 0.32562 0.48638 0.21607 0.0
H469 H 0.16049 0.42422 0.0676 0.0
H470 H 0.66358 0.15491 0.54017 0.0
H471 H 0.71764 0.21112 0.54375 0.0
H472 H 0.75001 0.202 0.49444 0.0
H473 H 0.697 0.1457 0.4911 0.0
H474 H 0.80556 0.23637 0.51279 0.0
H475 H 0.70088 0.24515 0.50094 0.0
H476 H 0.64121 0.23293 0.50707 0.0
H477 H 0.67383 0.27711 0.55566 0.0
H478 H 0.73403 0.29004 0.54964 0.0
H479 H 0.83029 0.39929 0.47122 0.0
H480 H 0.79437 0.34745 0.48775 0.0
H481 H 0.88502 0.36623 0.51611 0.0
H482 H 0.92163 0.41753 0.49894 0.0
H483 H 0.77588 0.33036 0.51833 0.0
H484 H 0.8763 0.28602 0.52495 0.0
H485 H 0.93164 0.29619 0.51245 0.0
H486 H 0.90154 0.31975 0.46574 0.0
H487 H 0.84593 0.30935 0.47793 0.0
C488 C 0.68283 0.1645 0.53034 0.0
C489 C 0.67601 0.14635 0.51526 0.0
C490 C 0.7136 0.19664 0.53236 0.0
C491 C 0.73756 0.21116 0.51923 0.0
C492 C 0.73199 0.19143 0.50476 0.0
C493 C 0.70154 0.15929 0.50281 0.0
C494 C 0.76549 0.24845 0.51926 0.0
C495 C 0.79936 0.25705 0.51441 0.0
C496 C 0.75747 0.27551 0.52125 0.0
C497 C 0.72165 0.26815 0.52493 0.0
C498 C 0.69524 0.25216 0.51294 0.0
C499 C 0.66136 0.24512 0.51639 0.0
C500 C 0.6536 0.25392 0.53182 0.0
C501 C 0.67986 0.27018 0.54375 0.0
C502 C 0.71389 0.27749 0.5403 0.0
C503 C 0.84262 0.3925 0.48101 0.0
C504 C 0.8789 0.41206 0.48353 0.0
C505 C 0.82197 0.36307 0.49061 0.0
C506 C 0.83704 0.35263 0.50305 0.0
C507 C 0.8729 0.37353 0.50643 0.0
C508 C 0.89373 0.40296 0.49669 0.0
C509 C 0.81538 0.31805 0.51102 0.0
C510 C 0.78275 0.31001 0.51752 0.0
C511 C 0.82414 0.29134 0.50989 0.0
C512 C 0.8573 0.29742 0.50241 0.0
C513 C 0.88155 0.29336 0.51201 0.0
C514 C 0.91292 0.29914 0.50499 0.0
C515 C 0.92016 0.30876 0.48834 0.0
C516 C 0.89597 0.31245 0.47865 0.0
C517 C 0.86454 0.30663 0.48561 0.0
H518 H 0.94448 0.31326 0.48292 0.0
H519 H 0.6273 0.24824 0.5345 0.0
H520 H 0.60766 0.70741 0.85193 0.0
H521 H 0.60718 0.76165 0.84675 0.0
H522 H 0.64555 0.76563 0.79723 0.0
H523 H 0.64541 0.71065 0.80222 0.0
H524 H 0.67739 0.83275 0.81694 0.0
H525 H 0.56586 0.73368 0.79989 0.0
H526 H 0.51212 0.67726 0.80469 0.0
H527 H 0.48312 0.72281 0.84416 0.0
H528 H 0.53716 0.77933 0.83986 0.0
H529 H 0.6373 0.94531 0.77381 0.0
H530 H 0.64551 0.89824 0.78403 0.0
H531 H 0.575 0.88111 0.82455 0.0
H532 H 0.56462 0.9268 0.81364 0.0
H533 H 0.56022 0.82167 0.81243 0.0
H534 H 0.66591 0.91969 0.83007 0.0
H535 H 0.71999 0.97685 0.82815 0.0
H536 H 0.76057 0.9357 0.79173 0.0
H537 H 0.7065 0.87839 0.79325 0.0
C538 C 0.61653 0.7201 0.84001 0.0
C539 C 0.62643 0.70485 0.82742 0.0
C540 C 0.61616 0.751 0.83709 0.0
C541 C 0.62605 0.7673 0.82159 0.0
C542 C 0.63782 0.75325 0.80927 0.0
C543 C 0.63772 0.72196 0.81211 0.0
C544 C 0.62188 0.79772 0.81794 0.0
C545 C 0.65186 0.83044 0.81576 0.0
C546 C 0.58846 0.79464 0.8172 0.0
C547 C 0.55583 0.76065 0.81969 0.0
C548 C 0.54826 0.73159 0.80972 0.0
C549 C 0.5177 0.69959 0.81234 0.0
C550 C 0.49429 0.69643 0.82476 0.0
C551 C 0.50135 0.72528 0.83458 0.0
C552 C 0.53195 0.75729 0.83206 0.0
C553 C 0.62321 0.93138 0.78482 0.0
C554 C 0.59997 0.93966 0.79279 0.0
C555 C 0.62843 0.90479 0.79083 0.0
C556 C 0.61132 0.88642 0.80523 0.0
C557 C 0.58861 0.89502 0.81345 0.0
C558 C 0.58295 0.92138 0.80728 0.0
C559 C 0.61586 0.85705 0.81106 0.0
C560 C 0.58589 0.82436 0.81372 0.0
C561 C 0.64934 0.86035 0.81264 0.0
C562 C 0.68199 0.89478 0.81168 0.0
C563 C 0.68624 0.92288 0.82156 0.0
C564 C 0.71692 0.95531 0.82056 0.0
C565 C 0.74367 0.95993 0.80981 0.0
C566 C 0.73981 0.93209 0.80005 0.0
C567 C 0.70917 0.89961 0.80099 0.0
H568 H 0.7674 0.98505 0.80905 0.0
H569 H 0.47063 0.67167 0.82675 0.0
H570 H 0.92596 0.57071 0.15539 0.0
H571 H 0.87495 0.57596 0.16154 0.0
H572 H 0.88267 0.55555 0.21322 0.0
H573 H 0.93427 0.55008 0.20699 0.0
H574 H 0.81887 0.51234 0.20136 0.0
H575 H 0.89009 0.63367 0.20268 0.0
H576 H 0.93771 0.69208 0.19468 0.0
H577 H 0.88807 0.68317 0.14777 0.0
H578 H 0.84042 0.62449 0.15534 0.0
H579 H 0.67729 0.56091 0.16985 0.0
H580 H 0.72844 0.57518 0.18724 0.0
H581 H 0.73713 0.49181 0.1641 0.0
H582 H 0.68621 0.47739 0.14701 0.0
H583 H 0.79236 0.59857 0.17579 0.0
H584 H 0.77247 0.4586 0.18801 0.0
H585 H 0.72501 0.40096 0.197 0.0
H586 H 0.67209 0.44932 0.21981 0.0
H587 H 0.71949 0.50736 0.2112 0.0
C588 C 0.91732 0.56816 0.16813 0.0
C589 C 0.93383 0.55984 0.18071 0.0
C590 C 0.8883 0.57146 0.17168 0.0
C591 C 0.87513 0.56652 0.18788 0.0
C592 C 0.89256 0.55973 0.20066 0.0
C593 C 0.92199 0.5567 0.19711 0.0
C594 C 0.84055 0.56357 0.19055 0.0
C595 C 0.81304 0.53143 0.1961 0.0
C596 C 0.8331 0.58907 0.1843 0.0
C597 C 0.86155 0.62459 0.17963 0.0
C598 C 0.88936 0.64408 0.19063 0.0
C599 C 0.91638 0.67726 0.18616 0.0
C600 C 0.9159 0.69134 0.17074 0.0
C601 C 0.88836 0.67226 0.15974 0.0
C602 C 0.86127 0.63906 0.16413 0.0
C603 C 0.68965 0.54511 0.16887 0.0
C604 C 0.67806 0.51823 0.15704 0.0
C605 C 0.71886 0.55333 0.17874 0.0
C606 C 0.73645 0.53438 0.1771 0.0
C607 C 0.72367 0.5064 0.16586 0.0
C608 C 0.69478 0.49839 0.15596 0.0
C609 C 0.77071 0.54617 0.18522 0.0
C610 C 0.79814 0.57998 0.18169 0.0
C611 C 0.77806 0.52237 0.19354 0.0
C612 C 0.74963 0.48744 0.19894 0.0
C613 C 0.7509 0.45704 0.19507 0.0
C614 C 0.72394 0.42425 0.20007 0.0
C615 C 0.69555 0.42148 0.20896 0.0
C616 C 0.69407 0.4515 0.21289 0.0
C617 C 0.72097 0.48435 0.20794 0.0
H618 H 0.67469 0.39606 0.21281 0.0
H619 H 0.93686 0.71703 0.1673 0.0
H620 H 0.40862 0.94132 0.46327 0.0
H621 H 0.35088 0.8898 0.45972 0.0
H622 H 0.31011 0.92684 0.49842 0.0
H623 H 0.36819 0.97813 0.50221 0.0
H624 H 0.29299 0.86187 0.50412 0.0
H625 H 0.28364 0.92265 0.45715 0.0
H626 H 0.30235 0.95649 0.43116 0.0
H627 H 0.30894 0.87305 0.40742 0.0
H628 H 0.29033 0.83871 0.43328 0.0
H629 H 0.11814 0.71877 0.48825 0.0
H630 H 0.17002 0.77637 0.49286 0.0
H631 H 0.22778 0.75131 0.45774 0.0
H632 H 0.17633 0.69402 0.45315 0.0
H633 H 0.23185 0.81342 0.45083 0.0
H634 H 0.24448 0.75452 0.49853 0.0
H635 H 0.22543 0.72084 0.52455 0.0
H636 H 0.21249 0.80172 0.54702 0.0
H637 H 0.23103 0.83569 0.52105 0.0
C638 C 0.38712 0.93887 0.4707 0.0
C639 C 0.3927 0.9636 0.48297 0.0
C640 C 0.35411 0.90946 0.46867 0.0
C641 C 0.32607 0.90456 0.47874 0.0
C642 C 0.33137 0.93009 0.49053 0.0
C643 C 0.36446 0.9594 0.49264 0.0
C644 C 0.29225 0.87138 0.47794 0.0
C645 C 0.27919 0.85161 0.49251 0.0
C646 C 0.27464 0.85768 0.46277 0.0
C647 C 0.28577 0.8782 0.44718 0.0
C648 C 0.28922 0.91158 0.4464 0.0
C649 C 0.29967 0.93079 0.43168 0.0
C650 C 0.30683 0.91693 0.41765 0.0
C651 C 0.30336 0.88374 0.41829 0.0
C652 C 0.29273 0.86433 0.43296 0.0
C653 C 0.14217 0.72538 0.48181 0.0
C654 C 0.14323 0.70219 0.47023 0.0
C655 C 0.17168 0.75824 0.48439 0.0
C656 C 0.2026 0.76811 0.47553 0.0
C657 C 0.20405 0.74431 0.46455 0.0
C658 C 0.1747 0.71164 0.46196 0.0
C659 C 0.23307 0.80378 0.47692 0.0
C660 C 0.24542 0.82397 0.46245 0.0
C661 C 0.24992 0.81788 0.49218 0.0
C662 C 0.23873 0.79744 0.50779 0.0
C663 C 0.23725 0.76497 0.50897 0.0
C664 C 0.22662 0.74586 0.52372 0.0
C665 C 0.21764 0.75907 0.53741 0.0
C666 C 0.21938 0.79148 0.5364 0.0
C667 C 0.22997 0.81068 0.52167 0.0
H668 H 0.20943 0.74425 0.54882 0.0
H669 H 0.31511 0.93194 0.40629 0.0
H670 H 0.5129 0.40093 0.82038 0.0
H671 H 0.50689 0.34355 0.82449 0.0
H672 H 0.53344 0.36732 0.87613 0.0
H673 H 0.54004 0.4254 0.87192 0.0
H674 H 0.57133 0.34439 0.86369 0.0
H675 H 0.45022 0.30104 0.86398 0.0
H676 H 0.39363 0.29414 0.85525 0.0
H677 H 0.40202 0.25287 0.80843 0.0
H678 H 0.45891 0.25999 0.81675 0.0
H679 H 0.50785 0.14717 0.83959 0.0
H680 H 0.49673 0.19018 0.85348 0.0
H681 H 0.58596 0.27362 0.82863 0.0
H682 H 0.59725 0.23105 0.81499 0.0
H683 H 0.47993 0.23379 0.83842 0.0
H684 H 0.62375 0.34545 0.85102 0.0
H685 H 0.67869 0.35097 0.86153 0.0
H686 H 0.62101 0.25258 0.88668 0.0
H687 H 0.56566 0.24668 0.87655 0.0
C688 C 0.5167 0.39364 0.8327 0.0
C689 C 0.52702 0.4175 0.84585 0.0
C690 C 0.51299 0.3607 0.83508 0.0
C691 C 0.51918 0.35084 0.85071 0.0
C692 C 0.52821 0.37425 0.86403 0.0
C693 C 0.53195 0.40732 0.86163 0.0
C694 C 0.52024 0.31793 0.85243 0.0
C695 C 0.5511 0.32005 0.8584 0.0
C696 C 0.49335 0.28576 0.84609 0.0
C697 C 0.45894 0.28111 0.84101 0.0
C698 C 0.4401 0.29065 0.85179 0.0
C699 C 0.40795 0.28669 0.84691 0.0
C700 C 0.39424 0.27308 0.8313 0.0
C701 C 0.41265 0.26336 0.82053 0.0
C702 C 0.44483 0.26728 0.82534 0.0
C703 C 0.52549 0.17476 0.83745 0.0
C704 C 0.5533 0.18589 0.82618 0.0
C705 C 0.51904 0.19923 0.84531 0.0
C706 C 0.54068 0.2351 0.8422 0.0
C707 C 0.56926 0.24615 0.83145 0.0
C708 C 0.57552 0.22181 0.82354 0.0
C709 C 0.53191 0.26119 0.84863 0.0
C710 C 0.49965 0.2578 0.84419 0.0
C711 C 0.55721 0.29196 0.85669 0.0
C712 C 0.59049 0.29558 0.86297 0.0
C713 C 0.62273 0.3251 0.8589 0.0
C714 C 0.65397 0.32826 0.86476 0.0
C715 C 0.65334 0.30212 0.87475 0.0
C716 C 0.62146 0.27277 0.87891 0.0
C717 C 0.59015 0.26948 0.87309 0.0
H718 H 0.67756 0.30462 0.87927 0.0
H719 H 0.36935 0.27005 0.82755 0.0
H720 H 0.47857 0.92344 0.50028 0.0
H721 H 0.47744 0.8676 0.50217 0.0
H722 H 0.58855 0.92224 0.51098 0.0
H723 H 0.58993 0.97826 0.50918 0.0
H724 H 0.56862 0.86832 0.48838 0.0
H725 H 0.5334 0.88398 0.54248 0.0
H726 H 0.49777 0.89489 0.56247 0.0
H727 H 0.40543 0.80268 0.54573 0.0
H728 H 0.44046 0.79153 0.52543 0.0
H729 H 0.59053 0.73187 0.52304 0.0
H730 H 0.58877 0.78455 0.51531 0.0
H731 H 0.47641 0.72373 0.51156 0.0
H732 H 0.47835 0.67097 0.51951 0.0
H733 H 0.49447 0.77948 0.53006 0.0
H734 H 0.52967 0.76171 0.47691 0.0
H735 H 0.56491 0.75087 0.45665 0.0
H736 H 0.65645 0.84632 0.47109 0.0
H737 H 0.62185 0.85751 0.49161 0.0
C738 C 0.50283 0.92369 0.50264 0.0
C739 C 0.53433 0.95556 0.50465 0.0
C740 C 0.50211 0.89163 0.50375 0.0
C741 C 0.53288 0.89052 0.50681 0.0
C742 C 0.56444 0.92228 0.5086 0.0
C743 C 0.56514 0.95437 0.50765 0.0
C744 C 0.53209 0.85632 0.50834 0.0
C745 C 0.5527 0.84904 0.49761 0.0
C746 C 0.5106 0.83061 0.52006 0.0
C747 C 0.4895 0.83714 0.53231 0.0
C748 C 0.50545 0.86619 0.54296 0.0
C749 C 0.48538 0.87239 0.55437 0.0
C750 C 0.44935 0.84954 0.55534 0.0
C751 C 0.43334 0.82039 0.54494 0.0
C752 C 0.45329 0.81411 0.53349 0.0
C753 C 0.56561 0.72956 0.51992 0.0
C754 C 0.53466 0.69717 0.52144 0.0
C755 C 0.56455 0.75976 0.51559 0.0
C756 C 0.53245 0.75837 0.51271 0.0
C757 C 0.50154 0.72566 0.51364 0.0
C758 C 0.50265 0.69539 0.51795 0.0
C759 C 0.53114 0.79136 0.51011 0.0
C760 C 0.5102 0.79852 0.5207 0.0
C761 C 0.55226 0.81691 0.49822 0.0
C762 C 0.5732 0.81029 0.48591 0.0
C763 C 0.55738 0.78025 0.47586 0.0
C764 C 0.57723 0.77407 0.46431 0.0
C765 C 0.61291 0.79785 0.46261 0.0
C766 C 0.62881 0.82791 0.47244 0.0
C767 C 0.60908 0.8342 0.48402 0.0
H768 H 0.62824 0.79302 0.45366 0.0
H769 H 0.43385 0.85439 0.56419 0.0
H770 H 0.71161 0.61667 0.82262 0.0
H771 H 0.76713 0.61683 0.824 0.0
H772 H 0.71344 0.51203 0.84358 0.0
H773 H 0.65804 0.51167 0.8423 0.0
H774 H 0.77148 0.55295 0.86129 0.0
H775 H 0.74328 0.52923 0.80335 0.0
H776 H 0.72844 0.5407 0.77547 0.0
H777 H 0.82465 0.63878 0.77383 0.0
H778 H 0.83984 0.6281 0.80181 0.0
H779 H 0.9003 0.50591 0.85728 0.0
H780 H 0.8475 0.50852 0.85121 0.0
H781 H 0.91033 0.61154 0.83045 0.0
H782 H 0.96356 0.60856 0.83622 0.0
H783 H 0.85005 0.57594 0.81323 0.0
H784 H 0.87948 0.60016 0.87039 0.0
H785 H 0.89521 0.59013 0.89835 0.0
H786 H 0.79751 0.49388 0.9019 0.0
H787 H 0.78143 0.50304 0.87382 0.0
C788 C 0.71152 0.59354 0.82712 0.0
C789 C 0.68009 0.56413 0.83231 0.0
C790 C 0.74338 0.59363 0.82785 0.0
C791 C 0.74469 0.56435 0.83381 0.0
C792 C 0.71333 0.53498 0.83894 0.0
C793 C 0.68151 0.53478 0.83813 0.0
C794 C 0.77863 0.56445 0.8352 0.0
C795 C 0.78838 0.55755 0.85071 0.0
C796 C 0.80155 0.57164 0.82158 0.0
C797 C 0.79251 0.57803 0.80475 0.0
C798 C 0.76114 0.55337 0.7971 0.0
C799 C 0.75269 0.55971 0.78127 0.0
C800 C 0.77554 0.5905 0.7729 0.0
C801 C 0.80694 0.61497 0.78034 0.0
C802 C 0.8155 0.60878 0.79618 0.0
C803 C 0.90289 0.52892 0.85117 0.0
C804 C 0.9362 0.55712 0.84733 0.0
C805 C 0.87262 0.5305 0.8478 0.0
C806 C 0.87472 0.56061 0.84076 0.0
C807 C 0.90785 0.58808 0.836 0.0
C808 C 0.93831 0.58634 0.83924 0.0
C809 C 0.84249 0.56375 0.83926 0.0
C810 C 0.83316 0.57141 0.82381 0.0
C811 C 0.82 0.55757 0.85297 0.0
C812 C 0.82938 0.55215 0.86994 0.0
C813 C 0.86144 0.57674 0.87709 0.0
C814 C 0.87042 0.57122 0.89296 0.0
C815 C 0.8474 0.54135 0.90188 0.0
C816 C 0.81532 0.51699 0.89496 0.0
C817 C 0.80626 0.52234 0.87907 0.0
H818 H 0.8544 0.53712 0.91417 0.0
H819 H 0.76895 0.59535 0.76065 0.0
H820 H 0.10074 0.63388 0.18263 0.0
H821 H 0.15576 0.68941 0.18417 0.0
H822 H 0.20825 0.64358 0.15818 0.0
H823 H 0.15354 0.58776 0.15692 0.0
H824 H 0.24879 0.68253 0.18205 0.0
H825 H 0.18551 0.70128 0.13911 0.0
H826 H 0.13542 0.70239 0.12627 0.0
H827 H 0.14251 0.77665 0.16259 0.0
H828 H 0.19236 0.77563 0.1758 0.0
H829 H 0.40451 0.8476 0.16895 0.0
H830 H 0.35054 0.79233 0.16291 0.0
H831 H 0.29141 0.8268 0.19185 0.0
H832 H 0.3449 0.88179 0.19773 0.0
H833 H 0.25558 0.7933 0.16441 0.0
H834 H 0.31722 0.77161 0.20799 0.0
H835 H 0.36763 0.77052 0.22047 0.0
H836 H 0.36398 0.70164 0.18201 0.0
H837 H 0.31382 0.70273 0.16917 0.0
C838 C 0.12393 0.63551 0.17722 0.0
C839 C 0.1224 0.6061 0.16959 0.0
C840 C 0.1555 0.66749 0.17803 0.0
C841 C 0.18638 0.67117 0.17105 0.0
C842 C 0.18499 0.64171 0.16364 0.0
C843 C 0.15349 0.60967 0.1629 0.0
C844 C 0.22007 0.70553 0.17161 0.0
C845 C 0.25029 0.7066 0.17792 0.0
C846 C 0.22237 0.73734 0.16647 0.0
C847 C 0.19247 0.73813 0.15853 0.0
C848 C 0.17623 0.71766 0.14443 0.0
C849 C 0.1479 0.7183 0.13707 0.0
C850 C 0.13573 0.73951 0.14363 0.0
C851 C 0.15193 0.7602 0.15753 0.0
C852 C 0.18025 0.75963 0.16495 0.0
C853 C 0.37989 0.8436 0.17374 0.0
C854 C 0.3791 0.86906 0.18391 0.0
C855 C 0.34905 0.81185 0.17042 0.0
C856 C 0.31675 0.80498 0.17712 0.0
C857 C 0.31582 0.83119 0.18656 0.0
C858 C 0.34652 0.86265 0.18997 0.0
C859 C 0.28408 0.77024 0.17497 0.0
C860 C 0.25407 0.76912 0.16839 0.0
C861 C 0.28202 0.73839 0.17978 0.0
C862 C 0.31204 0.73758 0.18752 0.0
C863 C 0.32734 0.75646 0.20213 0.0
C864 C 0.35584 0.7558 0.20927 0.0
C865 C 0.36907 0.7361 0.20201 0.0
C866 C 0.35375 0.71694 0.18761 0.0
C867 C 0.32528 0.71756 0.18039 0.0
H868 H 0.39113 0.73562 0.20756 0.0
H869 H 0.1138 0.73997 0.13792 0.0
H870 H 0.58457 0.18034 0.50917 0.0
H871 H 0.58407 0.23517 0.51149 0.0
H872 H 0.481 0.18628 0.49001 0.0
H873 H 0.48167 0.1313 0.4872 0.0
H874 H 0.52075 0.25218 0.47821 0.0
H875 H 0.49378 0.1991 0.53195 0.0
H876 H 0.50294 0.17157 0.55657 0.0
H877 H 0.60072 0.26486 0.56612 0.0
H878 H 0.59249 0.29273 0.54137 0.0
H879 H 0.49046 0.39098 0.50476 0.0
H880 H 0.48734 0.33503 0.49859 0.0
H881 H 0.58648 0.3712 0.523 0.0
H882 H 0.58917 0.42646 0.52946 0.0
H883 H 0.54425 0.30907 0.53333 0.0
H884 H 0.5738 0.36104 0.47909 0.0
H885 H 0.56663 0.38864 0.45397 0.0
H886 H 0.46591 0.29845 0.44525 0.0
H887 H 0.47229 0.27048 0.47045 0.0
C888 C 0.5619 0.18121 0.50474 0.0
C889 C 0.53319 0.15121 0.49798 0.0
C890 C 0.56154 0.21263 0.50622 0.0
C891 C 0.53228 0.21492 0.50122 0.0
C892 C 0.50388 0.1853 0.49404 0.0
C893 C 0.50428 0.15378 0.49247 0.0
C894 C 0.53126 0.248 0.50389 0.0
C895 C 0.52538 0.26436 0.49031 0.0
C896 C 0.53792 0.26443 0.51962 0.0
C897 C 0.54263 0.24793 0.53471 0.0
C898 C 0.51734 0.21369 0.53924 0.0
C899 C 0.52236 0.19802 0.55323 0.0
C900 C 0.55241 0.21644 0.5629 0.0
C901 C 0.57743 0.25063 0.55863 0.0
C902 C 0.5726 0.26638 0.54462 0.0
C903 C 0.51185 0.38717 0.50853 0.0
C904 C 0.54001 0.41321 0.51764 0.0
C905 C 0.51007 0.35509 0.50501 0.0
C906 C 0.53672 0.34856 0.51028 0.0
C907 C 0.56537 0.37515 0.51889 0.0
C908 C 0.56696 0.40691 0.52253 0.0
C909 C 0.53444 0.3138 0.50757 0.0
C910 C 0.53955 0.29697 0.5212 0.0
C911 C 0.52725 0.29708 0.49189 0.0
C912 C 0.52336 0.31385 0.47675 0.0
C913 C 0.55 0.34722 0.47189 0.0
C914 C 0.5461 0.3629 0.45762 0.0
C915 C 0.51579 0.34536 0.44805 0.0
C916 C 0.48935 0.31204 0.4527 0.0
C917 C 0.4931 0.29625 0.46696 0.0
H918 H 0.51282 0.35754 0.43701 0.0
H919 H 0.55627 0.20425 0.57371 0.0
H920 H 0.45681 0.51937 0.85554 0.0
H921 H 0.40288 0.52203 0.85668 0.0
H922 H 0.44391 0.60341 0.81965 0.0
H923 H 0.4985 0.60212 0.8192 0.0
H924 H 0.41333 0.62053 0.83972 0.0
H925 H 0.37591 0.51293 0.81224 0.0
H926 H 0.36785 0.45424 0.80739 0.0
H927 H 0.30759 0.41698 0.85208 0.0
H928 H 0.31568 0.47558 0.85732 0.0
H929 H 0.20505 0.53434 0.83705 0.0
H930 H 0.25909 0.53665 0.82749 0.0
H931 H 0.31578 0.6063 0.8678 0.0
H932 H 0.26274 0.6052 0.87679 0.0
H933 H 0.29622 0.51401 0.84086 0.0
H934 H 0.40197 0.65597 0.86092 0.0
H935 H 0.41025 0.71543 0.86063 0.0
H936 H 0.33316 0.68543 0.82224 0.0
H937 H 0.32488 0.62597 0.82205 0.0
C938 C 0.45429 0.53775 0.8476 0.0
C939 C 0.48208 0.56047 0.83727 0.0
C940 C 0.4232 0.5391 0.84815 0.0
C941 C 0.41859 0.5625 0.83803 0.0
C942 C 0.44641 0.5851 0.82765 0.0
C943 C 0.47775 0.58426 0.82736 0.0
C944 C 0.38544 0.5643 0.83865 0.0
C945 C 0.38778 0.59716 0.83992 0.0
C946 C 0.35167 0.53406 0.83833 0.0
C947 C 0.34665 0.49874 0.83523 0.0
C948 C 0.36114 0.49228 0.82109 0.0
C949 C 0.35653 0.45902 0.81826 0.0
C950 C 0.33728 0.43192 0.82944 0.0
C951 C 0.32252 0.43801 0.84344 0.0
C952 C 0.32707 0.47123 0.84633 0.0
C953 C 0.22932 0.551 0.8435 0.0
C954 C 0.22948 0.56953 0.8577 0.0
C955 C 0.2602 0.55201 0.83816 0.0
C956 C 0.29195 0.57176 0.84683 0.0
C957 C 0.29217 0.59134 0.8606 0.0
C958 C 0.26158 0.5905 0.86583 0.0
C959 C 0.32425 0.5702 0.84245 0.0
C960 C 0.32177 0.53739 0.84051 0.0
C961 C 0.35784 0.60058 0.8415 0.0
C962 C 0.36252 0.63631 0.84161 0.0
C963 C 0.38684 0.66205 0.85237 0.0
C964 C 0.39155 0.69578 0.85229 0.0
C965 C 0.37214 0.70416 0.84147 0.0
C966 C 0.34806 0.67885 0.83067 0.0
C967 C 0.34332 0.64511 0.83066 0.0
H968 H 0.37581 0.73028 0.84143 0.0
H969 H 0.33375 0.40619 0.82723 0.0
H970 H 0.95154 0.37517 0.15918 0.0
H971 H 0.89634 0.31982 0.16182 0.0
H972 H 0.84309 0.37635 0.1738 0.0
H973 H 0.89796 0.43144 0.17151 0.0
H974 H 0.823 0.32444 0.19437 0.0
H975 H 0.83517 0.33518 0.1351 0.0
H976 H 0.86497 0.34229 0.10836 0.0
H977 H 0.86774 0.24784 0.11713 0.0
H978 H 0.83836 0.24042 0.14404 0.0
H979 H 0.64876 0.19149 0.19033 0.0
H980 H 0.70353 0.24297 0.18185 0.0
H981 H 0.74968 0.17819 0.174 0.0
H982 H 0.69429 0.12634 0.1822 0.0
H983 H 0.77464 0.232 0.15128 0.0
H984 H 0.76162 0.22087 0.21024 0.0
H985 H 0.73134 0.21343 0.23686 0.0
H986 H 0.73078 0.30919 0.22869 0.0
H987 H 0.76052 0.31689 0.20186 0.0
C988 C 0.92806 0.37589 0.16227 0.0
C989 C 0.9295 0.40805 0.16512 0.0
C990 C 0.89634 0.34408 0.16372 0.0
C991 C 0.86515 0.3436 0.1679 0.0
C992 C 0.86658 0.37572 0.1706 0.0
C993 C 0.89818 0.4074 0.16923 0.0
C994 C 0.8312 0.30991 0.17003 0.0
C995 C 0.81233 0.30454 0.18481 0.0
C996 C 0.81739 0.28312 0.15786 0.0
C997 C 0.8349 0.28745 0.14166 0.0
C998 C 0.84237 0.31607 0.13138 0.0
C999 C 0.85915 0.32013 0.11619 0.0
C1000 C 0.86833 0.29559 0.11107 0.0
C1001 C 0.86066 0.26687 0.12112 0.0
C1002 C 0.84392 0.2627 0.13634 0.0
C1003 C 0.67022 0.18809 0.18624 0.0
C1004 C 0.66711 0.15485 0.18673 0.0
C1005 C 0.70171 0.2176 0.18157 0.0
C1006 C 0.7312 0.21479 0.17759 0.0
C1007 C 0.72746 0.18121 0.17703 0.0
C1008 C 0.69573 0.15152 0.18161 0.0
C1009 C 0.7663 0.24706 0.17545 0.0
C1010 C 0.7854 0.25202 0.16079 0.0
C1011 C 0.78046 0.27358 0.18773 0.0
C1012 C 0.76303 0.26929 0.20397 0.0
C1013 C 0.75484 0.24023 0.21407 0.0
C1014 C 0.73778 0.23597 0.2292 0.0
C1015 C 0.72908 0.26079 0.23445 0.0
C1016 C 0.73751 0.28997 0.2246 0.0
C1017 C 0.75447 0.2943 0.20943 0.0
H1018 H 0.71588 0.25744 0.24616 0.0
H1019 H 0.88132 0.29878 0.0993 0.0
H1020 H 0.04251 0.57528 0.11265 0.0
H1021 H 0.04875 0.56923 0.08298 0.0
H1022 H 0.03824 0.46797 0.09115 0.0
H1023 H 0.0312 0.47353 0.12106 0.0
H1024 H 0.09476 0.52003 0.06618 0.0
H1025 H 0.97153 0.45889 0.07898 0.0
H1026 H 0.91874 0.45279 0.09251 0.0
H1027 H 0.93172 0.54348 0.06664 0.0
H1028 H 0.98495 0.55044 0.05316 0.0
H1029 H 0.06303 0.48379 0.97881 0.0
H1030 H 0.06216 0.47863 0.00909 0.0
H1031 H 0.03469 0.55934 0.01322 0.0
H1032 H 0.03478 0.56395 0.98311 0.0
H1033 H 0.99512 0.50817 0.03271 0.0
H1034 H 0.11892 0.57264 0.02129 0.0
H1035 H 0.174 0.58296 0.00856 0.0
H1036 H 0.16261 0.49053 0.03197 0.0
H1037 H 0.10716 0.47939 0.04465 0.0
C1038 C 0.04193 0.55187 0.10819 0.0
C1039 C 0.03605 0.52472 0.11912 0.0
C1040 C 0.04558 0.54851 0.09126 0.0
C1041 C 0.04376 0.51811 0.08494 0.0
C1042 C 0.03977 0.49164 0.09586 0.0
C1043 C 0.03567 0.49482 0.11288 0.0
C1044 C 0.0431 0.51334 0.06679 0.0
C1045 C 0.07277 0.51668 0.05879 0.0
C1046 C 0.01464 0.50972 0.05727 0.0
C1047 C 0.98237 0.50534 0.06517 0.0
C1048 C 0.96329 0.4777 0.07628 0.0
C1049 C 0.93326 0.47406 0.08392 0.0
C1050 C 0.92192 0.49778 0.08046 0.0
C1051 C 0.94054 0.52514 0.06932 0.0
C1052 C 0.97062 0.52892 0.06166 0.0
C1053 C 0.05702 0.50052 0.98623 0.0
C1054 C 0.04876 0.52413 0.97862 0.0
C1055 C 0.0566 0.49762 0.00352 0.0
C1056 C 0.04855 0.51873 0.01348 0.0
C1057 C 0.04074 0.54258 0.00584 0.0
C1058 C 0.04075 0.54518 0.98862 0.0
C1059 C 0.04724 0.51571 0.03185 0.0
C1060 C 0.01704 0.51091 0.03996 0.0
C1061 C 0.07541 0.51831 0.04141 0.0
C1062 C 0.10866 0.52493 0.03374 0.0
C1063 C 0.12799 0.55434 0.0236 0.0
C1064 C 0.15931 0.56037 0.01641 0.0
C1065 C 0.17173 0.53734 0.0194 0.0
C1066 C 0.1529 0.50829 0.02963 0.0
C1067 C 0.12154 0.50211 0.03682 0.0
H1068 H 0.196 0.54207 0.01384 0.0
H1069 H 0.89867 0.49492 0.08639 0.0
H1070 H 0.51335 0.07406 0.45251 0.0
H1071 H 0.5023 0.06661 0.42264 0.0
H1072 H 0.55584 0.00748 0.41991 0.0
H1073 H 0.56843 0.01653 0.44955 0.0
H1074 H 0.57741 0.05048 0.39623 0.0
H1075 H 0.46276 0.96856 0.41577 0.0
H1076 H 0.40986 0.94905 0.43279 0.0
H1077 H 0.39136 0.02601 0.40986 0.0
H1078 H 0.44415 0.04594 0.39264 0.0
H1079 H 0.50408 0.9666 0.31781 0.0
H1080 H 0.5086 0.97386 0.34801 0.0
H1081 H 0.51524 0.07415 0.34308 0.0
H1082 H 0.51167 0.06746 0.31276 0.0
H1083 H 0.4621 0.01143 0.36993 0.0
H1084 H 0.58226 0.09259 0.35081 0.0
H1085 H 0.63391 0.10574 0.3339 0.0
H1086 H 0.63918 0.02072 0.35677 0.0
H1087 H 0.58717 1.00675 0.37362 0.0
C1088 C 0.52246 0.05925 0.44551 0.0
C1089 C 0.54187 0.046 0.45325 0.0
C1090 C 0.51597 0.05481 0.42845 0.0
C1091 C 0.52797 0.03621 0.41896 0.0
C1092 C 0.54648 0.02211 0.42688 0.0
C1093 C 0.55356 0.02716 0.44383 0.0
C1094 C 0.52287 0.03282 0.40068 0.0
C1095 C 0.55205 0.04165 0.39059 0.0
C1096 C 0.48993 0.02157 0.39313 0.0
C1097 C 0.4576 0.009 0.40306 0.0
C1098 C 0.44746 0.9814 0.4144 0.0
C1099 C 0.41751 0.97026 0.42408 0.0
C1100 C 0.39749 0.98653 0.42254 0.0
C1101 C 0.40701 0.01356 0.41109 0.0
C1102 C 0.43687 0.0247 0.40132 0.0
C1103 C 0.50635 0.99011 0.32319 0.0
C1104 C 0.50762 0.01653 0.31302 0.0
C1105 C 0.50886 0.99418 0.34039 0.0
C1106 C 0.51207 0.02443 0.34768 0.0
C1107 C 0.51263 0.05058 0.33761 0.0
C1108 C 0.51084 0.04685 0.32036 0.0
C1109 C 0.51658 0.02925 0.3658 0.0
C1110 C 0.48734 0.02049 0.37575 0.0
C1111 C 0.54923 0.03978 0.37329 0.0
C1112 C 0.58064 0.04839 0.3633 0.0
C1113 C 0.59423 0.07649 0.35209 0.0
C1114 C 0.62361 0.08414 0.34255 0.0
C1115 C 0.63975 0.06401 0.34422 0.0
C1116 C 0.62661 0.03625 0.35547 0.0
C1117 C 0.5972 0.02847 0.36502 0.0
H1118 H 0.6625 0.06997 0.33683 0.0
H1119 H 0.37463 0.97821 0.43021 0.0
H1120 H 0.5104 0.54235 0.78546 0.0
H1121 H 0.51299 0.5514 0.7555 0.0
H1122 H 0.62293 0.58429 0.75596 0.0
H1123 H 0.62073 0.57731 0.78616 0.0
H1124 H 0.61291 0.61956 0.73353 0.0
H1125 H 0.55673 0.49773 0.7462 0.0
H1126 H 0.51391 0.4425 0.75957 0.0
H1127 H 0.42986 0.44817 0.73586 0.0
H1128 H 0.47218 0.50371 0.72251 0.0
H1129 H 0.61512 0.56406 0.64928 0.0
H1130 H 0.61708 0.56884 0.67963 0.0
H1131 H 0.51998 0.56981 0.67918 0.0
H1132 H 0.51824 0.56571 0.64885 0.0
H1133 H 0.52431 0.51842 0.70112 0.0
H1134 H 0.58547 0.64135 0.6873 0.0
H1135 H 0.63149 0.69404 0.6734 0.0
H1136 H 0.71046 0.68217 0.69869 0.0
H1137 H 0.66488 0.62906 0.71255 0.0
C1138 C 0.5352 0.55207 0.77915 0.0
C1139 C 0.56527 0.55878 0.78799 0.0
C1140 C 0.53665 0.55699 0.76203 0.0
C1141 C 0.5679 0.56741 0.75334 0.0
C1142 C 0.59844 0.57595 0.76233 0.0
C1143 C 0.59718 0.57193 0.77957 0.0
C1144 C 0.5682 0.56757 0.73489 0.0
C1145 C 0.59373 0.59727 0.72648 0.0
C1146 C 0.54313 0.53858 0.72558 0.0
C1147 C 0.51761 0.50505 0.73349 0.0
C1148 C 0.5291 0.48731 0.74392 0.0
C1149 C 0.50492 0.45594 0.75149 0.0
C1150 C 0.46918 0.44189 0.7486 0.0
C1151 C 0.45755 0.45912 0.7381 0.0
C1152 C 0.48162 0.49053 0.73052 0.0
C1153 C 0.59436 0.56553 0.65569 0.0
C1154 C 0.56653 0.56453 0.64679 0.0
C1155 C 0.59558 0.5684 0.67296 0.0
C1156 C 0.56873 0.56978 0.68158 0.0
C1157 C 0.54098 0.5689 0.67271 0.0
C1158 C 0.54008 0.56668 0.65543 0.0
C1159 C 0.56868 0.5704 0.6999 0.0
C1160 C 0.54331 0.5407 0.70825 0.0
C1161 C 0.59435 0.59899 0.70908 0.0
C1162 C 0.62176 0.63101 0.70083 0.0
C1163 C 0.61265 0.64977 0.68978 0.0
C1164 C 0.63865 0.67977 0.68193 0.0
C1165 C 0.67388 0.6914 0.68513 0.0
C1166 C 0.68317 0.67311 0.69621 0.0
C1167 C 0.65726 0.64308 0.70408 0.0
H1168 H 0.69397 0.71463 0.67905 0.0
H1169 H 0.4505 0.4176 0.75447 0.0
H1170 H 0.57063 0.05311 0.54403 0.0
H1171 H 0.59086 0.0717 0.57246 0.0
H1172 H 0.51148 0.10036 0.57904 0.0
H1173 H 0.49173 0.08257 0.55057 0.0
H1174 H 0.57214 0.14787 0.59303 0.0
H1175 H 0.49897 0.02233 0.59283 0.0
H1176 H 0.48083 0.96231 0.58378 0.0
H1177 H 0.57942 0.97534 0.59969 0.0
H1178 H 0.59833 0.03566 0.60863 0.0
H1179 H 0.54389 0.13161 0.68038 0.0
H1180 H 0.5417 0.12975 0.65011 0.0
H1181 H 0.62494 0.10554 0.64918 0.0
H1182 H 0.62758 0.10777 0.67943 0.0
H1183 H 0.56893 0.05905 0.63172 0.0
H1184 H 0.63857 0.18318 0.63527 0.0
H1185 H 0.65507 0.24267 0.64446 0.0
H1186 H 0.5617 0.2322 0.62258 0.0
H1187 H 0.54429 0.17239 0.6135 0.0
C1188 C 0.55775 0.06366 0.55153 0.0
C1189 C 0.52946 0.06616 0.54522 0.0
C1190 C 0.56924 0.07417 0.56774 0.0
C1191 C 0.55236 0.08699 0.57791 0.0
C1192 C 0.52483 0.09051 0.57141 0.0
C1193 C 0.51342 0.08011 0.5552 0.0
C1194 C 0.56208 0.09511 0.59556 0.0
C1195 C 0.57124 0.12844 0.60155 0.0
C1196 C 0.5616 0.06992 0.60654 0.0
C1197 C 0.55022 0.03363 0.60122 0.0
C1198 C 0.51689 0.01249 0.59428 0.0
C1199 C 0.50645 0.97841 0.58918 0.0
C1200 C 0.529 0.96506 0.59111 0.0
C1201 C 0.56201 0.98575 0.59818 0.0
C1202 C 0.5726 0.01987 0.60326 0.0
C1203 C 0.56233 0.12677 0.67372 0.0
C1204 C 0.5857 0.11954 0.68229 0.0
C1205 C 0.56103 0.12569 0.65642 0.0
C1206 C 0.58321 0.11755 0.64741 0.0
C1207 C 0.60753 0.11174 0.65591 0.0
C1208 C 0.60888 0.11287 0.67318 0.0
C1209 C 0.57871 0.11179 0.6293 0.0
C1210 C 0.57036 0.07875 0.62321 0.0
C1211 C 0.57968 0.13719 0.61829 0.0
C1212 C 0.58994 0.1731 0.62386 0.0
C1213 C 0.62135 0.19339 0.63257 0.0
C1214 C 0.63091 0.22722 0.63773 0.0
C1215 C 0.6094 0.24117 0.63415 0.0
C1216 C 0.57831 0.22134 0.62537 0.0
C1217 C 0.56859 0.18747 0.62021 0.0
H1218 H 0.61687 0.26738 0.63814 0.0
H1219 H 0.52086 0.93866 0.58719 0.0
H1220 H 0.65293 0.58995 0.88483 0.0
H1221 H 0.64989 0.57153 0.91362 0.0
H1222 H 0.53745 0.50998 0.90997 0.0
H1223 H 0.54061 0.5274 0.88094 0.0
H1224 H 0.62304 0.58706 0.9378 0.0
H1225 H 0.50389 0.44662 0.93848 0.0
H1226 H 0.47668 0.39337 0.92127 0.0
H1227 H 0.57558 0.4247 0.89821 0.0
H1228 H 0.60342 0.47814 0.91531 0.0
H1229 H 0.53845 0.54121 0.01466 0.0
H1230 H 0.55221 0.54973 0.98517 0.0
H1231 H 0.59687 0.48258 0.98822 0.0
H1232 H 0.58249 0.47337 0.01786 0.0
H1233 H 0.5532 0.46774 0.96117 0.0
H1234 H 0.65047 0.56757 0.98527 0.0
H1235 H 0.67995 0.61928 0.00339 0.0
H1236 H 0.63068 0.66769 0.97718 0.0
H1237 H 0.60049 0.61604 0.95905 0.0
C1238 C 0.62763 0.57207 0.89012 0.0
C1239 C 0.59698 0.5603 0.88077 0.0
C1240 C 0.62591 0.56154 0.90656 0.0
C1241 C 0.59348 0.53926 0.91399 0.0
C1242 C 0.56285 0.52664 0.90446 0.0
C1243 C 0.56462 0.53681 0.88792 0.0
C1244 C 0.59156 0.53218 0.93205 0.0
C1245 C 0.60799 0.56089 0.94285 0.0
C1246 C 0.57223 0.49807 0.93874 0.0
C1247 C 0.55568 0.46646 0.92811 0.0
C1248 C 0.51984 0.44214 0.92974 0.0
C1249 C 0.50429 0.41196 0.92 0.0
C1250 C 0.52437 0.40568 0.90865 0.0
C1251 C 0.56004 0.42966 0.90697 0.0
C1252 C 0.57569 0.45998 0.91664 0.0
C1253 C 0.55102 0.52808 0.00905 0.0
C1254 C 0.55928 0.50651 0.01853 0.0
C1255 C 0.55911 0.5332 0.99224 0.0
C1256 C 0.57579 0.51701 0.98457 0.0
C1257 C 0.58406 0.49536 0.99396 0.0
C1258 C 0.57607 0.49033 0.01086 0.0
C1259 C 0.58408 0.52261 0.96669 0.0
C1260 C 0.56868 0.49376 0.956 0.0
C1261 C 0.60472 0.55654 0.96007 0.0
C1262 C 0.62305 0.58781 0.97086 0.0
C1263 C 0.64574 0.58914 0.98344 0.0
C1264 C 0.6626 0.61846 0.9937 0.0
C1265 C 0.65715 0.64673 0.99146 0.0
C1266 C 0.63488 0.64577 0.97891 0.0
C1267 C 0.61792 0.6165 0.96862 0.0
H1268 H 0.67023 0.66941 -0.00058 0.0
H1269 H 0.51225 0.38219 0.90121 0.0
H1270 H 0.98057 0.49764 0.20503 0.0
H1271 H 0.96438 0.50093 0.23371 0.0
H1272 H 0.05935 0.50558 0.25073 0.0
H1273 H 0.07462 0.50076 0.22211 0.0
H1274 H 1.00842 0.46367 0.26948 0.0
H1275 H 0.04711 0.58017 0.24762 0.0
H1276 H 0.04469 0.62092 0.22747 0.0
H1277 H 0.9375 0.58397 0.24032 0.0
H1278 H 0.93922 0.54274 0.26044 0.0
H1279 H 0.04928 0.55052 0.34557 0.0
H1280 H 0.04634 0.53662 0.31612 0.0
H1281 H 0.93798 0.5093 0.31491 0.0
H1282 H 0.94072 0.523 0.34466 0.0
H1283 H 0.98314 0.55577 0.28813 0.0
H1284 H 0.94877 0.44541 0.31328 0.0
H1285 H 0.95271 0.40531 0.33326 0.0
H1286 H 0.05363 0.43177 0.3141 0.0
H1287 H 0.05055 0.47249 0.29417 0.0
C1288 C 0.9981 0.49987 0.21493 0.0
C1289 C 0.02908 0.49963 0.21149 0.0
C1290 C 0.98883 0.50164 0.23129 0.0
C1291 C 1.01092 0.50409 0.24439 0.0
C1292 C 0.04187 0.5037 0.24085 0.0
C1293 C 0.0507 0.50114 0.22454 0.0
C1294 C 1.00211 0.50694 0.26183 0.0
C1295 C 1.00311 0.48395 0.27353 0.0
C1296 C 0.99385 0.53258 0.26708 0.0
C1297 C 0.99321 0.55819 0.25542 0.0
C1298 C 0.02302 0.58071 0.24612 0.0
C1299 C 0.02176 0.60387 0.23471 0.0
C1300 C 0.99094 0.60498 0.23259 0.0
C1301 C 0.96136 0.58308 0.24197 0.0
C1302 C 0.96247 0.55984 0.25339 0.0
C1303 C 0.02486 0.54167 0.33902 0.0
C1304 C 0.99525 0.53792 0.3473 0.0
C1305 C 0.02318 0.53362 0.32225 0.0
C1306 C 0.99193 0.52188 0.31344 0.0
C1307 C 0.96229 0.51834 0.32158 0.0
C1308 C 0.96383 0.52596 0.3385 0.0
C1309 C 0.99088 0.51338 0.29569 0.0
C1310 C 0.98792 0.53518 0.28396 0.0
C1311 C 0.99761 0.48684 0.2904 0.0
C1312 C 0.99951 0.46219 0.3023 0.0
C1313 C 0.97193 0.4429 0.31341 0.0
C1314 C 0.97398 0.42002 0.32471 0.0
C1315 C 1.00342 0.41604 0.32497 0.0
C1316 C 0.03084 0.43489 0.31389 0.0
C1317 C 0.02893 0.45784 0.30257 0.0
H1318 H 1.00496 0.39831 0.33373 0.0
H1319 H 0.98997 0.62281 0.2237 0.0
loop_
_geom_bond_atom_site_label_1
_geom_bond_atom_site_label_2
_geom_bond_distance
_geom_bond_site_symmetry_2
_ccdc_geom_bond_type
Dy0 O4 2.398 . S
Dy0 O5 2.491 . S
Dy0 O6 2.403 . S
Dy0 O7 2.664 . S
Dy0 O11 2.326 . S
Dy0 O15 2.310 . S
Dy0 O16 2.335 1_455 S
C1 O12 1.185 . S
C1 O13 1.355 . S
C2 O4 1.185 . S
C2 O5 1.355 . S
Dy3 O7 2.310 . S
Dy3 O10 2.351 . S
Dy3 O12 2.398 1_455 S
Dy3 O13 2.491 1_455 S
Dy3 O14 2.403 . S
Dy3 O15 2.664 . S
Dy3 O17 2.326 1_455 S
O4 Dy0 2.398 . S
O4 C2 1.185 . S
O5 Dy0 2.491 . S
O5 C2 1.355 . S
O6 Dy0 2.403 . S
O6 C8 1.254 . S
O7 Dy0 2.664 . S
O7 Dy3 2.310 . S
O7 C8 1.268 . S
C8 O6 1.254 . S
C8 O7 1.268 . S
C9 O14 1.254 . S
C9 O15 1.268 . S
O10 Dy3 2.351 . S
O10 C18 1.249 . S
O11 Dy0 2.326 . S
O11 C18 1.267 . S
O12 C1 1.185 . S
O12 Dy3 2.398 1_655 S
O13 C1 1.355 . S
O13 Dy3 2.491 1_655 S
O14 Dy3 2.403 . S
O14 C9 1.254 . S
O15 Dy0 2.310 . S
O15 Dy3 2.664 . S
O15 C9 1.268 . S
O16 Dy0 2.335 1_655 S
O16 C19 1.270 . S
O17 Dy3 2.326 1_655 S
O17 C19 1.267 . S
C18 O10 1.249 . S
C18 O11 1.267 . S
C19 O16 1.270 . S
C19 O17 1.267 . S
Dy20 O24 2.398 1_545 S
Dy20 O25 2.491 1_545 S
Dy20 O26 2.403 . S
Dy20 O27 2.664 . S
Dy20 O31 2.326 1_545 S
Dy20 O35 2.310 . S
Dy20 O36 2.351 . S
C21 O32 1.185 . S
C21 O33 1.355 . S
C22 O24 1.185 . S
C22 O25 1.355 . S
Dy23 O27 2.310 . S
Dy23 O30 2.351 . S
Dy23 O32 2.398 . S
Dy23 O33 2.491 . S
Dy23 O34 2.403 . S
Dy23 O35 2.664 . S
Dy23 O37 2.326 . S
O24 Dy20 2.398 1_565 S
O24 C22 1.185 . S
O25 Dy20 2.491 1_565 S
O25 C22 1.355 . S
O26 Dy20 2.403 . S
O26 C28 1.254 . S
O27 Dy20 2.664 . S
O27 Dy23 2.310 . S
O27 C28 1.268 . S
C28 O26 1.254 . S
C28 O27 1.268 . S
C29 O34 1.254 . S
C29 O35 1.268 . S
O30 Dy23 2.351 . S
O30 C38 1.249 1_545 S
O31 Dy20 2.326 1_565 S
O31 C38 1.267 . S
O32 C21 1.185 . S
O32 Dy23 2.398 . S
O33 C21 1.355 . S
O33 Dy23 2.491 . S
O34 Dy23 2.403 . S
O34 C29 1.254 . S
O35 Dy20 2.310 . S
O35 Dy23 2.664 . S
O35 C29 1.268 . S
O36 Dy20 2.351 . S
O36 C39 1.249 . S
O37 Dy23 2.326 . S
O37 C39 1.267 . S
C38 O30 1.249 1_565 S
C38 O31 1.267 . S
C39 O36 1.249 . S
C39 O37 1.267 . S
Dy40 O44 2.398 . S
Dy40 O45 2.491 . S
Dy40 O46 2.403 . S
Dy40 O47 2.664 . S
Dy40 O51 2.326 . S
Dy40 O55 2.310 . S
Dy40 O56 2.351 . S
C41 O52 1.185 . S
C41 O53 1.355 . S
C42 O44 1.185 . S
C42 O45 1.355 . S
Dy43 O47 2.310 . S
Dy43 O50 2.351 . S
Dy43 O52 2.398 . S
Dy43 O53 2.491 . S
Dy43 O54 2.403 . S
Dy43 O55 2.664 . S
Dy43 O57 2.326 . S
O44 Dy40 2.398 . S
O44 C42 1.185 . S
O45 Dy40 2.491 . S
O45 C42 1.355 . S
O46 Dy40 2.403 . S
O46 C48 1.254 . S
O47 Dy40 2.664 . S
O47 Dy43 2.310 . S
O47 C48 1.268 . S
C48 O46 1.254 . S
C48 O47 1.268 . S
C49 O54 1.254 . S
C49 O55 1.268 . S
O50 Dy43 2.351 . S
O50 C58 1.249 . S
O51 Dy40 2.326 . S
O51 C58 1.267 . S
O52 C41 1.185 . S
O52 Dy43 2.398 . S
O53 C41 1.355 . S
O53 Dy43 2.491 . S
O54 Dy43 2.403 . S
O54 C49 1.254 . S
O55 Dy40 2.310 . S
O55 Dy43 2.664 . S
O55 C49 1.268 . S
O56 Dy40 2.351 . S
O56 C59 1.249 . S
O57 Dy43 2.326 . S
O57 C59 1.267 . S
C58 O50 1.249 . S
C58 O51 1.267 . S
C59 O56 1.249 . S
C59 O57 1.267 . S
C60 C61 1.391 . S
C60 C64 1.391 . S
C60 H102 0.948 . S
C61 C60 1.391 . S
C61 C62 1.391 . S
C62 C61 1.391 . S
C62 H118 0.947 . S
C62 C119 1.392 . S
C63 C64 1.391 . S
C63 C67 1.397 . S
C63 C119 1.419 . S
C64 C60 1.391 . S
C64 C63 1.391 . S
C64 C65 1.399 . S
C65 C64 1.399 . S
C65 C68 1.396 . S
C65 C77 1.453 . S
C65 C78 1.684 . S
H66 C90 0.948 . S
C67 C63 1.397 . S
C67 C68 1.394 . S
C67 C86 1.723 . S
C68 C65 1.396 . S
C68 C67 1.394 . S
C68 C98 1.723 1_545 S
H69 C92 0.947 . S
H70 C93 0.948 . S
H71 C99 0.982 . S
H72 C100 0.979 . S
H73 C100 0.980 . S
H74 C100 0.983 . S
H75 C99 0.979 . S
H76 C99 0.977 . S
C77 C65 1.453 . S
C77 H106 0.982 . S
C77 H107 0.979 . S
C77 H108 0.977 1_545 S
C78 C65 1.684 . S
C78 H103 0.979 . S
C78 H104 0.980 . S
C78 H105 0.983 . S
C79 C80 1.391 . S
C79 C84 1.391 . S
C79 H109 0.948 . S
C80 C79 1.391 . S
C80 C81 1.391 1_545 S
C81 C80 1.391 1_565 S
C81 C82 1.392 . S
C81 H110 0.947 . S
C82 C81 1.392 . S
C82 C83 1.419 1_565 S
C82 H111 0.948 . S
C83 C82 1.419 1_545 S
C83 C84 1.391 . S
C83 C87 1.397 . S
C84 C79 1.391 . S
C84 C83 1.391 . S
C84 C85 1.399 . S
C85 C84 1.399 . S
C85 C86 1.396 . S
C85 C88 1.453 . S
C85 C89 1.684 . S
C86 C67 1.723 . S
C86 C85 1.396 . S
C86 C87 1.394 . S
C87 C83 1.397 . S
C87 C86 1.394 . S
C87 C97 1.723 1_545 S
C88 C85 1.453 . S
C88 H112 0.982 . S
C88 H113 0.979 . S
C88 H114 0.977 . S
C89 C85 1.684 . S
C89 H115 0.979 . S
C89 H116 0.980 . S
C89 H117 0.983 . S
C90 H66 0.948 . S
C90 C91 1.391 . S
C90 C95 1.391 . S
C91 C90 1.391 . S
C91 C92 1.391 . S
C92 H69 0.947 . S
C92 C91 1.391 . S
C92 C93 1.392 . S
C93 H70 0.948 . S
C93 C92 1.392 . S
C93 C94 1.419 . S
C94 C93 1.419 . S
C94 C95 1.391 . S
C94 C98 1.397 . S
C95 C90 1.391 . S
C95 C94 1.391 . S
C95 C96 1.399 . S
C96 C95 1.399 . S
C96 C97 1.396 . S
C96 C99 1.453 . S
C96 C100 1.684 . S
C97 C87 1.723 1_565 S
C97 C96 1.396 . S
C97 C98 1.394 . S
C98 C68 1.723 1_565 S
C98 C94 1.397 . S
C98 C97 1.394 . S
C99 H71 0.982 . S
C99 H75 0.979 . S
C99 H76 0.977 . S
C99 C96 1.453 . S
C100 H72 0.979 . S
C100 H73 0.980 . S
C100 H74 0.983 . S
C100 C96 1.684 . S
H101 C119 0.948 . S
H102 C60 0.948 . S
H103 C78 0.979 . S
H104 C78 0.980 . S
H105 C78 0.983 . S
H106 C77 0.982 . S
H107 C77 0.979 . S
H108 C77 0.977 1_565 S
H109 C79 0.948 . S
H110 C81 0.947 . S
H111 C82 0.948 . S
H112 C88 0.982 . S
H113 C88 0.979 . S
H114 C88 0.977 . S
H115 C89 0.979 . S
H116 C89 0.980 . S
H117 C89 0.983 . S
H118 C62 0.947 . S
C119 C62 1.392 . S
C119 C63 1.419 . S
C119 H101 0.948 . S
C120 C121 1.391 . S
C120 C124 1.391 . S
C120 H162 0.948 . S
C121 C120 1.391 . S
C121 C122 1.391 . S
C122 C121 1.391 . S
C122 H178 0.947 . S
C122 C179 1.392 . S
C123 C124 1.391 . S
C123 C127 1.397 . S
C123 C179 1.419 . S
C124 C120 1.391 . S
C124 C123 1.391 . S
C124 C125 1.399 . S
C125 C124 1.399 . S
C125 C128 1.396 . S
C125 C137 1.453 . S
C125 C138 1.684 . S
H126 C150 0.948 . S
C127 C123 1.397 . S
C127 C128 1.394 . S
C127 C146 1.723 . S
C128 C125 1.396 . S
C128 C127 1.394 . S
C128 C158 1.723 . S
H129 C152 0.947 . S
H130 C153 0.948 . S
H131 C159 0.982 . S
H132 C160 0.979 . S
H133 C160 0.980 . S
H134 C160 0.983 . S
H135 C159 0.979 . S
H136 C159 0.977 . S
C137 C125 1.453 . S
C137 H166 0.982 . S
C137 H167 0.979 . S
C137 H168 0.977 . S
C138 C125 1.684 . S
C138 H163 0.979 . S
C138 H164 0.980 . S
C138 H165 0.983 . S
C139 C140 1.391 . S
C139 C144 1.391 . S
C139 H169 0.948 . S
C140 C139 1.391 . S
C140 C141 1.391 . S
C141 C140 1.391 . S
C141 C142 1.392 . S
C141 H170 0.947 . S
C142 C141 1.392 . S
C142 C143 1.419 . S
C142 H171 0.948 . S
C143 C142 1.419 . S
C143 C144 1.391 . S
C143 C147 1.397 . S
C144 C139 1.391 . S
C144 C143 1.391 . S
C144 C145 1.399 . S
C145 C144 1.399 . S
C145 C146 1.396 . S
C145 C148 1.453 . S
C145 C149 1.684 . S
C146 C127 1.723 . S
C146 C145 1.396 . S
C146 C147 1.394 . S
C147 C143 1.397 . S
C147 C146 1.394 . S
C147 C157 1.723 . S
C148 C145 1.453 . S
C148 H172 0.982 . S
C148 H173 0.979 . S
C148 H174 0.977 . S
C149 C145 1.684 . S
C149 H175 0.979 . S
C149 H176 0.980 . S
C149 H177 0.983 . S
C150 H126 0.948 . S
C150 C151 1.391 . S
C150 C155 1.391 . S
C151 C150 1.391 . S
C151 C152 1.391 . S
C152 H129 0.947 . S
C152 C151 1.391 . S
C152 C153 1.392 . S
C153 H130 0.948 . S
C153 C152 1.392 . S
C153 C154 1.419 . S
C154 C153 1.419 . S
C154 C155 1.391 . S
C154 C158 1.397 . S
C155 C150 1.391 . S
C155 C154 1.391 . S
C155 C156 1.399 . S
C156 C155 1.399 . S
C156 C157 1.396 . S
C156 C159 1.453 . S
C156 C160 1.684 . S
C157 C147 1.723 . S
C157 C156 1.396 . S
C157 C158 1.394 . S
C158 C128 1.723 . S
C158 C154 1.397 . S
C158 C157 1.394 . S
C159 H131 0.982 . S
C159 H135 0.979 . S
C159 H136 0.977 . S
C159 C156 1.453 . S
C160 H132 0.979 . S
C160 H133 0.980 . S
C160 H134 0.983 . S
C160 C156 1.684 . S
H161 C179 0.948 . S
H162 C120 0.948 . S
H163 C138 0.979 . S
H164 C138 0.980 . S
H165 C138 0.983 . S
H166 C137 0.982 . S
H167 C137 0.979 . S
H168 C137 0.977 . S
H169 C139 0.948 . S
H170 C141 0.947 . S
H171 C142 0.948 . S
H172 C148 0.982 . S
H173 C148 0.979 . S
H174 C148 0.977 . S
H175 C149 0.979 . S
H176 C149 0.980 . S
H177 C149 0.983 . S
H178 C122 0.947 . S
C179 C122 1.392 . S
C179 C123 1.419 . S
C179 H161 0.948 . S
C180 C181 1.391 . S
C180 C184 1.391 . S
C180 H222 0.948 . S
C181 C180 1.391 . S
C181 C182 1.391 . S
C182 C181 1.391 . S
C182 H238 0.947 . S
C182 C239 1.392 . S
C183 C184 1.391 . S
C183 C187 1.397 . S
C183 C239 1.419 . S
C184 C180 1.391 . S
C184 C183 1.391 . S
C184 C185 1.399 . S
C185 C184 1.399 . S
C185 C188 1.396 . S
C185 C197 1.453 . S
C185 C198 1.684 . S
H186 C210 0.948 . S
C187 C183 1.397 . S
C187 C188 1.394 . S
C187 C206 1.723 . S
C188 C185 1.396 . S
C188 C187 1.394 . S
C188 C218 1.723 . S
H189 C212 0.947 . S
H190 C213 0.948 . S
H191 C219 0.982 . S
H192 C220 0.979 1_455 S
H193 C220 0.980 . S
H194 C220 0.983 . S
H195 C219 0.979 . S
H196 C219 0.977 . S
C197 C185 1.453 . S
C197 H226 0.982 . S
C197 H227 0.979 . S
C197 H228 0.977 . S
C198 C185 1.684 . S
C198 H223 0.979 . S
C198 H224 0.980 . S
C198 H225 0.983 . S
C199 C200 1.391 . S
C199 C204 1.391 . S
C199 H229 0.948 . S
C200 C199 1.391 . S
C200 C201 1.391 . S
C201 C200 1.391 . S
C201 C202 1.392 . S
C201 H230 0.947 . S
C202 C201 1.392 . S
C202 C203 1.419 . S
C202 H231 0.948 . S
C203 C202 1.419 . S
C203 C204 1.391 . S
C203 C207 1.397 . S
C204 C199 1.391 . S
C204 C203 1.391 . S
C204 C205 1.399 . S
C205 C204 1.399 . S
C205 C206 1.396 . S
C205 C208 1.453 . S
C205 C209 1.684 . S
C206 C187 1.723 . S
C206 C205 1.396 . S
C206 C207 1.394 . S
C207 C203 1.397 . S
C207 C206 1.394 . S
C207 C217 1.723 . S
C208 C205 1.453 . S
C208 H232 0.982 . S
C208 H233 0.979 . S
C208 H234 0.977 . S
C209 C205 1.684 . S
C209 H235 0.979 . S
C209 H236 0.980 . S
C209 H237 0.983 . S
C210 H186 0.948 . S
C210 C211 1.391 . S
C210 C215 1.391 . S
C211 C210 1.391 . S
C211 C212 1.391 . S
C212 H189 0.947 . S
C212 C211 1.391 . S
C212 C213 1.392 1_655 S
C213 H190 0.948 . S
C213 C212 1.392 1_455 S
C213 C214 1.419 . S
C214 C213 1.419 . S
C214 C215 1.391 1_455 S
C214 C218 1.397 . S
C215 C210 1.391 . S
C215 C214 1.391 1_655 S
C215 C216 1.399 . S
C216 C215 1.399 . S
C216 C217 1.396 1_655 S
C216 C219 1.453 . S
C216 C220 1.684 . S
C217 C207 1.723 . S
C217 C216 1.396 1_455 S
C217 C218 1.394 . S
C218 C188 1.723 . S
C218 C214 1.397 . S
C218 C217 1.394 . S
C219 H191 0.982 . S
C219 H195 0.979 . S
C219 H196 0.977 . S
C219 C216 1.453 . S
C220 H192 0.979 1_655 S
C220 H193 0.980 . S
C220 H194 0.983 . S
C220 C216 1.684 . S
H221 C239 0.948 . S
H222 C180 0.948 . S
H223 C198 0.979 . S
H224 C198 0.980 . S
H225 C198 0.983 . S
H226 C197 0.982 . S
H227 C197 0.979 . S
H228 C197 0.977 . S
H229 C199 0.948 . S
H230 C201 0.947 . S
H231 C202 0.948 . S
H232 C208 0.982 . S
H233 C208 0.979 . S
H234 C208 0.977 . S
H235 C209 0.979 . S
H236 C209 0.980 . S
H237 C209 0.983 . S
H238 C182 0.947 . S
C239 C182 1.392 . S
C239 C183 1.419 . S
C239 H221 0.948 . S
C240 C241 1.391 . S
C240 C244 1.391 . S
C240 H282 0.948 . S
C241 C240 1.391 . S
C241 C242 1.391 . S
C242 C241 1.391 . S
C242 H298 0.947 . S
C242 C299 1.392 . S
C243 C244 1.391 . S
C243 C247 1.397 . S
C243 C299 1.419 . S
C244 C240 1.391 . S
C244 C243 1.391 . S
C244 C245 1.399 . S
C245 C244 1.399 . S
C245 C248 1.396 . S
C245 C257 1.450 . S
C245 C258 1.684 . S
H246 C270 0.948 . S
C247 C243 1.397 . S
C247 C248 1.394 . S
C247 C266 1.723 . S
C248 C245 1.396 . S
C248 C247 1.394 . S
C248 C278 1.723 1_655 S
H249 C272 0.947 . S
H250 C273 0.948 . S
H251 C279 0.982 . S
H252 C280 0.979 . S
H253 C280 0.980 . S
H254 C280 0.983 . S
H255 C279 0.979 . S
H256 C279 0.977 . S
C257 C245 1.450 . S
C257 H286 0.985 1_655 S
C257 H287 0.977 . S
C257 H288 0.978 1_655 S
C258 C245 1.684 . S
C258 H283 0.979 . S
C258 H284 0.980 . S
C258 H285 0.983 . S
C259 C260 1.391 1_655 S
C259 C264 1.391 . S
C259 H289 0.948 . S
C260 C259 1.391 1_455 S
C260 C261 1.391 . S
C261 C260 1.391 . S
C261 C262 1.392 . S
C261 H290 0.947 . S
C262 C261 1.392 . S
C262 C263 1.419 . S
C262 H291 0.948 . S
C263 C262 1.419 . S
C263 C264 1.391 1_455 S
C263 C267 1.397 . S
C264 C259 1.391 . S
C264 C263 1.391 1_655 S
C264 C265 1.399 . S
C265 C264 1.399 . S
C265 C266 1.396 . S
C265 C268 1.453 . S
C265 C269 1.684 . S
C266 C247 1.723 . S
C266 C265 1.396 . S
C266 C267 1.394 1_655 S
C267 C263 1.397 . S
C267 C266 1.394 1_455 S
C267 C277 1.723 . S
C268 C265 1.453 . S
C268 H292 0.982 . S
C268 H293 0.979 . S
C268 H294 0.977 . S
C269 C265 1.684 . S
C269 H295 0.979 . S
C269 H296 0.980 . S
C269 H297 0.983 . S
C270 H246 0.948 . S
C270 C271 1.391 . S
C270 C275 1.391 . S
C271 C270 1.391 . S
C271 C272 1.391 . S
C272 H249 0.947 . S
C272 C271 1.391 . S
C272 C273 1.392 . S
C273 H250 0.948 . S
C273 C272 1.392 . S
C273 C274 1.419 . S
C274 C273 1.419 . S
C274 C275 1.391 . S
C274 C278 1.397 . S
C275 C270 1.391 . S
C275 C274 1.391 . S
C275 C276 1.399 . S
C276 C275 1.399 . S
C276 C277 1.396 . S
C276 C279 1.453 . S
C276 C280 1.684 . S
C277 C267 1.723 . S
C277 C276 1.396 . S
C277 C278 1.394 . S
C278 C248 1.723 1_455 S
C278 C274 1.397 . S
C278 C277 1.394 . S
C279 H251 0.982 . S
C279 H255 0.979 . S
C279 H256 0.977 . S
C279 C276 1.453 . S
C280 H252 0.979 . S
C280 H253 0.980 . S
C280 H254 0.983 . S
C280 C276 1.684 . S
H281 C299 0.948 . S
H282 C240 0.948 . S
H283 C258 0.979 . S
H284 C258 0.980 . S
H285 C258 0.983 . S
H286 C257 0.985 1_455 S
H287 C257 0.977 . S
H288 C257 0.978 1_455 S
H289 C259 0.948 . S
H290 C261 0.947 . S
H291 C262 0.948 . S
H292 C268 0.982 . S
H293 C268 0.979 . S
H294 C268 0.977 . S
H295 C269 0.979 . S
H296 C269 0.980 . S
H297 C269 0.983 . S
H298 C242 0.947 . S
C299 C242 1.392 . S
C299 C243 1.419 . S
C299 H281 0.948 . S
C300 C301 1.391 . S
C300 C304 1.391 1_565 S
C300 H342 0.948 . S
C301 C300 1.391 . S
C301 C302 1.391 . S
C302 C301 1.391 . S
C302 H358 0.947 . S
C302 C359 1.392 . S
C303 C304 1.393 . S
C303 C307 1.417 . S
C303 C359 1.399 1_545 S
C304 C300 1.391 1_545 S
C304 C303 1.393 . S
C304 C305 1.399 . S
C305 C304 1.399 . S
C305 C308 1.396 . S
C305 C317 1.453 . S
C305 C318 1.684 . S
H306 C330 0.948 . S
C307 C303 1.417 . S
C307 C308 1.394 . S
C307 C326 1.723 . S
C308 C305 1.396 . S
C308 C307 1.394 . S
C308 C338 1.723 . S
H309 C332 0.947 . S
H310 C333 0.948 . S
H311 C339 0.982 . S
H312 C340 0.979 . S
H313 C340 0.980 . S
H314 C340 0.983 . S
H315 C339 0.979 . S
H316 C339 0.977 . S
C317 C305 1.453 . S
C317 H346 0.982 . S
C317 H347 0.979 . S
C317 H348 0.977 . S
C318 C305 1.684 . S
C318 H343 0.979 . S
C318 H344 0.980 . S
C318 H345 0.983 . S
C319 C320 1.391 . S
C319 C324 1.391 . S
C319 H349 0.948 . S
C320 C319 1.391 . S
C320 C321 1.391 . S
C321 C320 1.391 . S
C321 C322 1.392 . S
C321 H350 0.947 . S
C322 C321 1.392 . S
C322 C323 1.419 . S
C322 H351 0.948 . S
C323 C322 1.419 . S
C323 C324 1.391 . S
C323 C327 1.397 . S
C324 C319 1.391 . S
C324 C323 1.391 . S
C324 C325 1.399 . S
C325 C324 1.399 . S
C325 C326 1.396 . S
C325 C328 1.453 . S
C325 C329 1.684 1_545 S
C326 C307 1.723 . S
C326 C325 1.396 . S
C326 C327 1.394 . S
C327 C323 1.397 . S
C327 C326 1.394 . S
C327 C337 1.723 . S
C328 C325 1.453 . S
C328 H352 0.982 . S
C328 H353 0.979 1_545 S
C328 H354 0.977 1_545 S
C329 C325 1.684 1_565 S
C329 H355 0.979 . S
C329 H356 0.980 . S
C329 H357 0.983 . S
C330 H306 0.948 . S
C330 C331 1.391 . S
C330 C335 1.391 . S
C331 C330 1.391 . S
C331 C332 1.391 . S
C332 H309 0.947 . S
C332 C331 1.391 . S
C332 C333 1.392 . S
C333 H310 0.948 . S
C333 C332 1.392 . S
C333 C334 1.419 . S
C334 C333 1.419 . S
C334 C335 1.391 . S
C334 C338 1.397 . S
C335 C330 1.391 . S
C335 C334 1.391 . S
C335 C336 1.399 . S
C336 C335 1.399 . S
C336 C337 1.396 . S
C336 C339 1.453 . S
C336 C340 1.684 . S
C337 C327 1.723 . S
C337 C336 1.396 . S
C337 C338 1.394 . S
C338 C308 1.723 . S
C338 C334 1.397 . S
C338 C337 1.394 . S
C339 H311 0.982 . S
C339 H315 0.979 . S
C339 H316 0.977 . S
C339 C336 1.453 . S
C340 H312 0.979 . S
C340 H313 0.980 . S
C340 H314 0.983 . S
C340 C336 1.684 . S
H341 C359 0.948 . S
H342 C300 0.948 . S
H343 C318 0.979 . S
H344 C318 0.980 . S
H345 C318 0.983 . S
H346 C317 0.982 . S
H347 C317 0.979 . S
H348 C317 0.977 . S
H349 C319 0.948 . S
H350 C321 0.947 . S
H351 C322 0.948 . S
H352 C328 0.982 . S
H353 C328 0.979 1_565 S
H354 C328 0.977 1_565 S
H355 C329 0.979 . S
H356 C329 0.980 . S
H357 C329 0.983 . S
H358 C302 0.947 . S
C359 C302 1.392 . S
C359 C303 1.399 1_565 S
C359 H341 0.948 . S
C360 C361 1.391 . S
C360 C364 1.391 . S
C360 H402 0.948 . S
C361 C360 1.391 . S
C361 C362 1.391 . S
C362 C361 1.391 . S
C362 H418 0.947 . S
C362 C419 1.392 . S
C363 C364 1.391 . S
C363 C367 1.397 . S
C363 C419 1.419 . S
C364 C360 1.391 . S
C364 C363 1.391 . S
C364 C365 1.399 . S
C365 C364 1.399 . S
C365 C368 1.396 . S
C365 C377 1.453 . S
C365 C378 1.684 . S
H366 C390 0.948 . S
C367 C363 1.397 . S
C367 C368 1.394 . S
C367 C386 1.723 . S
C368 C365 1.396 . S
C368 C367 1.394 . S
C368 C398 1.723 . S
H369 C392 0.947 . S
H370 C393 0.948 . S
H371 C399 0.982 . S
H372 C400 0.979 . S
H373 C400 0.980 . S
H374 C400 0.983 . S
H375 C399 0.979 . S
H376 C399 0.977 . S
C377 C365 1.453 . S
C377 H406 0.982 . S
C377 H407 0.979 . S
C377 H408 0.977 . S
C378 C365 1.684 . S
C378 H403 0.979 . S
C378 H404 0.980 . S
C378 H405 0.983 . S
C379 C380 1.391 . S
C379 C384 1.391 . S
C379 H409 0.948 . S
C380 C379 1.391 . S
C380 C381 1.391 . S
C381 C380 1.391 . S
C381 C382 1.392 . S
C381 H410 0.947 . S
C382 C381 1.392 . S
C382 C383 1.419 . S
C382 H411 0.948 . S
C383 C382 1.419 . S
C383 C384 1.391 . S
C383 C387 1.397 . S
C384 C379 1.391 . S
C384 C383 1.391 . S
C384 C385 1.399 . S
C385 C384 1.399 . S
C385 C386 1.396 . S
C385 C388 1.453 . S
C385 C389 1.684 . S
C386 C367 1.723 . S
C386 C385 1.396 . S
C386 C387 1.394 . S
C387 C383 1.397 . S
C387 C386 1.394 . S
C387 C397 1.723 . S
C388 C385 1.453 . S
C388 H412 0.982 . S
C388 H413 0.979 . S
C388 H414 0.977 . S
C389 C385 1.684 . S
C389 H415 0.979 . S
C389 H416 0.980 . S
C389 H417 0.983 . S
C390 H366 0.948 . S
C390 C391 1.391 . S
C390 C395 1.391 . S
C391 C390 1.391 . S
C391 C392 1.391 . S
C392 H369 0.947 . S
C392 C391 1.391 . S
C392 C393 1.392 . S
C393 H370 0.948 . S
C393 C392 1.392 . S
C393 C394 1.419 . S
C394 C393 1.419 . S
C394 C395 1.391 . S
C394 C398 1.397 . S
C395 C390 1.391 . S
C395 C394 1.391 . S
C395 C396 1.399 . S
C396 C395 1.399 . S
C396 C397 1.396 . S
C396 C399 1.453 . S
C396 C400 1.684 . S
C397 C387 1.723 . S
C397 C396 1.396 . S
C397 C398 1.394 . S
C398 C368 1.723 . S
C398 C394 1.397 . S
C398 C397 1.394 . S
C399 H371 0.982 . S
C399 H375 0.979 . S
C399 H376 0.977 . S
C399 C396 1.453 . S
C400 H372 0.979 . S
C400 H373 0.980 . S
C400 H374 0.983 . S
C400 C396 1.684 . S
H401 C419 0.948 . S
H402 C360 0.948 . S
H403 C378 0.979 . S
H404 C378 0.980 . S
H405 C378 0.983 . S
H406 C377 0.982 . S
H407 C377 0.979 . S
H408 C377 0.977 . S
H409 C379 0.948 . S
H410 C381 0.947 . S
H411 C382 0.948 . S
H412 C388 0.982 . S
H413 C388 0.979 . S
H414 C388 0.977 . S
H415 C389 0.979 . S
H416 C389 0.980 . S
H417 C389 0.983 . S
H418 C362 0.947 . S
C419 C362 1.392 . S
C419 C363 1.419 . S
C419 H401 0.948 . S
H420 C438 0.951 . S
H421 C440 0.951 . S
H422 C442 0.950 . S
H423 C443 0.950 . S
H424 C445 0.950 . S
H425 C448 0.950 . S
H426 C449 0.950 . S
H427 C451 0.950 . S
H428 C452 0.950 . S
H429 C453 0.951 . S
H430 C455 0.951 . S
H431 C457 0.950 . S
H432 C458 0.950 . S
H433 C460 0.950 . S
H434 C463 0.950 . S
H435 C464 0.950 . S
H436 C466 0.950 . S
H437 C467 0.950 . S
C438 H420 0.951 . S
C438 C439 1.366 . S
C438 C440 1.388 . S
C439 C438 1.366 . S
C439 C443 1.385 . S
C440 H421 0.951 . S
C440 C438 1.388 . S
C440 C441 1.366 . S
C441 C440 1.366 . S
C441 C442 1.414 . S
C441 C444 1.499 . S
C442 H422 0.950 . S
C442 C441 1.414 . S
C442 C443 1.374 . S
C443 H423 0.950 . S
C443 C439 1.385 . S
C443 C442 1.374 . S
C444 C441 1.499 . S
C444 C445 1.373 . S
C444 C446 1.389 . S
C445 H424 0.950 . S
C445 C444 1.373 . S
C445 C461 1.377 . S
C446 C444 1.389 . S
C446 C447 1.524 . S
C446 C460 1.377 . S
C447 C446 1.524 . S
C447 C448 1.397 . S
C447 C452 1.363 . S
C448 H425 0.950 . S
C448 C447 1.397 . S
C448 C449 1.334 . S
C449 H426 0.950 . S
C449 C448 1.334 . S
C449 C450 1.287 . S
C450 C449 1.287 . S
C450 C451 1.524 . S
C450 H469 0.913 . S
C451 H427 0.950 . S
C451 C450 1.524 . S
C451 C452 1.415 . S
C452 H428 0.950 . S
C452 C447 1.363 . S
C452 C451 1.415 . S
C453 H429 0.951 . S
C453 C454 1.366 . S
C453 C455 1.388 . S
C454 C453 1.366 . S
C454 C458 1.385 . S
C455 H430 0.951 . S
C455 C453 1.388 . S
C455 C456 1.366 . S
C456 C455 1.366 . S
C456 C457 1.414 . S
C456 C459 1.499 . S
C457 H431 0.950 . S
C457 C456 1.414 . S
C457 C458 1.374 . S
C458 H432 0.950 . S
C458 C454 1.385 . S
C458 C457 1.374 . S
C459 C456 1.499 . S
C459 C460 1.373 . S
C459 C461 1.389 . S
C460 H433 0.950 . S
C460 C446 1.377 . S
C460 C459 1.373 . S
C461 C445 1.377 . S
C461 C459 1.389 . S
C461 C462 1.524 . S
C462 C461 1.524 . S
C462 C463 1.397 . S
C462 C467 1.363 . S
C463 H434 0.950 . S
C463 C462 1.397 . S
C463 C464 1.334 . S
C464 H435 0.950 . S
C464 C463 1.334 . S
C464 C465 1.287 . S
C465 C464 1.287 . S
C465 C466 1.524 . S
C465 H468 0.999 . S
C466 H436 0.950 . S
C466 C465 1.524 . S
C466 C467 1.415 . S
C467 H437 0.950 . S
C467 C462 1.363 . S
C467 C466 1.415 . S
H468 C465 0.999 . S
H469 C450 0.913 . S
H470 C488 0.951 . S
H471 C490 0.951 . S
H472 C492 0.950 . S
H473 C493 0.950 . S
H474 C495 0.950 . S
H475 C498 0.950 . S
H476 C499 0.950 . S
H477 C501 0.950 . S
H478 C502 0.950 . S
H479 C503 0.951 . S
H480 C505 0.951 . S
H481 C507 0.950 . S
H482 C508 0.950 . S
H483 C510 0.950 . S
H484 C513 0.950 . S
H485 C514 0.950 . S
H486 C516 0.950 . S
H487 C517 0.950 . S
C488 H470 0.951 . S
C488 C489 1.366 . S
C488 C490 1.388 . S
C489 C488 1.366 . S
C489 C493 1.385 . S
C490 H471 0.951 . S
C490 C488 1.388 . S
C490 C491 1.366 . S
C491 C490 1.366 . S
C491 C492 1.414 . S
C491 C494 1.499 . S
C492 H472 0.950 . S
C492 C491 1.414 . S
C492 C493 1.374 . S
C493 H473 0.950 . S
C493 C489 1.385 . S
C493 C492 1.374 . S
C494 C491 1.499 . S
C494 C495 1.373 . S
C494 C496 1.389 . S
C495 H474 0.950 . S
C495 C494 1.373 . S
C495 C511 1.377 . S
C496 C494 1.389 . S
C496 C497 1.524 . S
C496 C510 1.377 . S
C497 C496 1.524 . S
C497 C498 1.397 . S
C497 C502 1.363 . S
C498 H475 0.950 . S
C498 C497 1.397 . S
C498 C499 1.334 . S
C499 H476 0.950 . S
C499 C498 1.334 . S
C499 C500 1.287 . S
C500 C499 1.287 . S
C500 C501 1.524 . S
C500 H519 0.913 . S
C501 H477 0.950 . S
C501 C500 1.524 . S
C501 C502 1.415 . S
C502 H478 0.950 . S
C502 C497 1.363 . S
C502 C501 1.415 . S
C503 H479 0.951 . S
C503 C504 1.366 . S
C503 C505 1.388 . S
C504 C503 1.366 . S
C504 C508 1.385 . S
C505 H480 0.951 . S
C505 C503 1.388 . S
C505 C506 1.366 . S
C506 C505 1.366 . S
C506 C507 1.414 . S
C506 C509 1.499 . S
C507 H481 0.950 . S
C507 C506 1.414 . S
C507 C508 1.374 . S
C508 H482 0.950 . S
C508 C504 1.385 . S
C508 C507 1.374 . S
C509 C506 1.499 . S
C509 C510 1.373 . S
C509 C511 1.389 . S
C510 H483 0.950 . S
C510 C496 1.377 . S
C510 C509 1.373 . S
C511 C495 1.377 . S
C511 C509 1.389 . S
C511 C512 1.524 . S
C512 C511 1.524 . S
C512 C513 1.397 . S
C512 C517 1.363 . S
C513 H484 0.950 . S
C513 C512 1.397 . S
C513 C514 1.334 . S
C514 H485 0.950 . S
C514 C513 1.334 . S
C514 C515 1.287 . S
C515 C514 1.287 . S
C515 C516 1.524 . S
C515 H518 0.999 . S
C516 H486 0.950 . S
C516 C515 1.524 . S
C516 C517 1.415 . S
C517 H487 0.950 . S
C517 C512 1.363 . S
C517 C516 1.415 . S
H518 C515 0.999 . S
H519 C500 0.913 . S
H520 C538 0.951 . S
H521 C540 0.951 . S
H522 C542 0.950 . S
H523 C543 0.950 . S
H524 C545 0.950 . S
H525 C548 0.950 . S
H526 C549 0.950 . S
H527 C551 0.950 . S
H528 C552 0.950 . S
H529 C553 0.951 . S
H530 C555 0.951 . S
H531 C557 0.950 . S
H532 C558 0.950 . S
H533 C560 0.950 . S
H534 C563 0.950 . S
H535 C564 0.950 . S
H536 C566 0.950 . S
H537 C567 0.950 . S
C538 H520 0.951 . S
C538 C539 1.366 . S
C538 C540 1.388 . S
C539 C538 1.366 . S
C539 C543 1.385 . S
C540 H521 0.951 . S
C540 C538 1.388 . S
C540 C541 1.366 . S
C541 C540 1.366 . S
C541 C542 1.414 . S
C541 C544 1.499 . S
C542 H522 0.950 . S
C542 C541 1.414 . S
C542 C543 1.374 . S
C543 H523 0.950 . S
C543 C539 1.385 . S
C543 C542 1.374 . S
C544 C541 1.499 . S
C544 C545 1.373 . S
C544 C546 1.389 . S
C545 H524 0.950 . S
C545 C544 1.373 . S
C545 C561 1.377 . S
C546 C544 1.389 . S
C546 C547 1.524 . S
C546 C560 1.377 . S
C547 C546 1.524 . S
C547 C548 1.397 . S
C547 C552 1.363 . S
C548 H525 0.950 . S
C548 C547 1.397 . S
C548 C549 1.334 . S
C549 H526 0.950 . S
C549 C548 1.334 . S
C549 C550 1.287 . S
C550 C549 1.287 . S
C550 C551 1.524 . S
C550 H569 0.913 . S
C551 H527 0.950 . S
C551 C550 1.524 . S
C551 C552 1.415 . S
C552 H528 0.950 . S
C552 C547 1.363 . S
C552 C551 1.415 . S
C553 H529 0.951 . S
C553 C554 1.366 . S
C553 C555 1.388 . S
C554 C553 1.366 . S
C554 C558 1.385 . S
C555 H530 0.951 . S
C555 C553 1.388 . S
C555 C556 1.366 . S
C556 C555 1.366 . S
C556 C557 1.414 . S
C556 C559 1.499 . S
C557 H531 0.950 . S
C557 C556 1.414 . S
C557 C558 1.374 . S
C558 H532 0.950 . S
C558 C554 1.385 . S
C558 C557 1.374 . S
C559 C556 1.499 . S
C559 C560 1.373 . S
C559 C561 1.389 . S
C560 H533 0.950 . S
C560 C546 1.377 . S
C560 C559 1.373 . S
C561 C545 1.377 . S
C561 C559 1.389 . S
C561 C562 1.524 . S
C562 C561 1.524 . S
C562 C563 1.397 . S
C562 C567 1.363 . S
C563 H534 0.950 . S
C563 C562 1.397 . S
C563 C564 1.334 . S
C564 H535 0.950 . S
C564 C563 1.334 . S
C564 C565 1.287 . S
C565 C564 1.287 . S
C565 C566 1.524 . S
C565 H568 0.999 . S
C566 H536 0.950 . S
C566 C565 1.524 . S
C566 C567 1.415 . S
C567 H537 0.950 . S
C567 C562 1.363 . S
C567 C566 1.415 . S
H568 C565 0.999 . S
H569 C550 0.913 . S
H570 C588 0.951 . S
H571 C590 0.951 . S
H572 C592 0.950 . S
H573 C593 0.950 . S
H574 C595 0.950 . S
H575 C598 0.950 . S
H576 C599 0.950 . S
H577 C601 0.950 . S
H578 C602 0.950 . S
H579 C603 0.951 . S
H580 C605 0.951 . S
H581 C607 0.950 . S
H582 C608 0.950 . S
H583 C610 0.950 . S
H584 C613 0.950 . S
H585 C614 0.950 . S
H586 C616 0.950 . S
H587 C617 0.950 . S
C588 H570 0.951 . S
C588 C589 1.366 . S
C588 C590 1.388 . S
C589 C588 1.366 . S
C589 C593 1.385 . S
C590 H571 0.951 . S
C590 C588 1.388 . S
C590 C591 1.366 . S
C591 C590 1.366 . S
C591 C592 1.414 . S
C591 C594 1.499 . S
C592 H572 0.950 . S
C592 C591 1.414 . S
C592 C593 1.374 . S
C593 H573 0.950 . S
C593 C589 1.385 . S
C593 C592 1.374 . S
C594 C591 1.499 . S
C594 C595 1.373 . S
C594 C596 1.389 . S
C595 H574 0.950 . S
C595 C594 1.373 . S
C595 C611 1.377 . S
C596 C594 1.389 . S
C596 C597 1.524 . S
C596 C610 1.377 . S
C597 C596 1.524 . S
C597 C598 1.397 . S
C597 C602 1.363 . S
C598 H575 0.950 . S
C598 C597 1.397 . S
C598 C599 1.334 . S
C599 H576 0.950 . S
C599 C598 1.334 . S
C599 C600 1.287 . S
C600 C599 1.287 . S
C600 C601 1.524 . S
C600 H619 0.913 . S
C601 H577 0.950 . S
C601 C600 1.524 . S
C601 C602 1.415 . S
C602 H578 0.950 . S
C602 C597 1.363 . S
C602 C601 1.415 . S
C603 H579 0.951 . S
C603 C604 1.366 . S
C603 C605 1.388 . S
C604 C603 1.366 . S
C604 C608 1.385 . S
C605 H580 0.951 . S
C605 C603 1.388 . S
C605 C606 1.366 . S
C606 C605 1.366 . S
C606 C607 1.414 . S
C606 C609 1.499 . S
C607 H581 0.950 . S
C607 C606 1.414 . S
C607 C608 1.374 . S
C608 H582 0.950 . S
C608 C604 1.385 . S
C608 C607 1.374 . S
C609 C606 1.499 . S
C609 C610 1.373 . S
C609 C611 1.389 . S
C610 H583 0.950 . S
C610 C596 1.377 . S
C610 C609 1.373 . S
C611 C595 1.377 . S
C611 C609 1.389 . S
C611 C612 1.524 . S
C612 C611 1.524 . S
C612 C613 1.397 . S
C612 C617 1.363 . S
C613 H584 0.950 . S
C613 C612 1.397 . S
C613 C614 1.334 . S
C614 H585 0.950 . S
C614 C613 1.334 . S
C614 C615 1.287 . S
C615 C614 1.287 . S
C615 C616 1.524 . S
C615 H618 0.999 . S
C616 H586 0.950 . S
C616 C615 1.524 . S
C616 C617 1.415 . S
C617 H587 0.950 . S
C617 C612 1.363 . S
C617 C616 1.415 . S
H618 C615 0.999 . S
H619 C600 0.913 . S
H620 C638 0.951 . S
H621 C640 0.951 . S
H622 C642 0.950 . S
H623 C643 0.950 . S
H624 C645 0.950 . S
H625 C648 0.950 . S
H626 C649 0.950 . S
H627 C651 0.950 . S
H628 C652 0.950 . S
H629 C653 0.951 . S
H630 C655 0.951 . S
H631 C657 0.950 . S
H632 C658 0.950 . S
H633 C660 0.950 . S
H634 C663 0.950 . S
H635 C664 0.950 . S
H636 C666 0.950 . S
H637 C667 0.950 . S
C638 H620 0.951 . S
C638 C639 1.366 . S
C638 C640 1.388 . S
C639 C638 1.366 . S
C639 C643 1.385 . S
C640 H621 0.951 . S
C640 C638 1.388 . S
C640 C641 1.366 . S
C641 C640 1.366 . S
C641 C642 1.414 . S
C641 C644 1.499 . S
C642 H622 0.950 . S
C642 C641 1.414 . S
C642 C643 1.374 . S
C643 H623 0.950 . S
C643 C639 1.385 . S
C643 C642 1.374 . S
C644 C641 1.499 . S
C644 C645 1.373 . S
C644 C646 1.389 . S
C645 H624 0.950 . S
C645 C644 1.373 . S
C645 C661 1.377 . S
C646 C644 1.389 . S
C646 C647 1.524 . S
C646 C660 1.377 . S
C647 C646 1.524 . S
C647 C648 1.397 . S
C647 C652 1.363 . S
C648 H625 0.950 . S
C648 C647 1.397 . S
C648 C649 1.334 . S
C649 H626 0.950 . S
C649 C648 1.334 . S
C649 C650 1.287 . S
C650 C649 1.287 . S
C650 C651 1.524 . S
C650 H669 0.913 . S
C651 H627 0.950 . S
C651 C650 1.524 . S
C651 C652 1.415 . S
C652 H628 0.950 . S
C652 C647 1.363 . S
C652 C651 1.415 . S
C653 H629 0.951 . S
C653 C654 1.366 . S
C653 C655 1.388 . S
C654 C653 1.366 . S
C654 C658 1.385 . S
C655 H630 0.951 . S
C655 C653 1.388 . S
C655 C656 1.366 . S
C656 C655 1.366 . S
C656 C657 1.414 . S
C656 C659 1.499 . S
C657 H631 0.950 . S
C657 C656 1.414 . S
C657 C658 1.374 . S
C658 H632 0.950 . S
C658 C654 1.385 . S
C658 C657 1.374 . S
C659 C656 1.499 . S
C659 C660 1.373 . S
C659 C661 1.389 . S
C660 H633 0.950 . S
C660 C646 1.377 . S
C660 C659 1.373 . S
C661 C645 1.377 . S
C661 C659 1.389 . S
C661 C662 1.524 . S
C662 C661 1.524 . S
C662 C663 1.397 . S
C662 C667 1.363 . S
C663 H634 0.950 . S
C663 C662 1.397 . S
C663 C664 1.334 . S
C664 H635 0.950 . S
C664 C663 1.334 . S
C664 C665 1.287 . S
C665 C664 1.287 . S
C665 C666 1.524 . S
C665 H668 0.999 . S
C666 H636 0.950 . S
C666 C665 1.524 . S
C666 C667 1.415 . S
C667 H637 0.950 . S
C667 C662 1.363 . S
C667 C666 1.415 . S
H668 C665 0.999 . S
H669 C650 0.913 . S
H670 C688 0.951 . S
H671 C690 0.951 . S
H672 C692 0.950 . S
H673 C693 0.950 . S
H674 C695 0.950 . S
H675 C698 0.950 . S
H676 C699 0.950 . S
H677 C701 0.950 . S
H678 C702 0.950 . S
H679 C703 0.951 . S
H680 C705 0.951 . S
H681 C707 0.950 . S
H682 C708 0.950 . S
H683 C710 0.950 . S
H684 C713 0.950 . S
H685 C714 0.950 . S
H686 C716 0.950 . S
H687 C717 0.950 . S
C688 H670 0.951 . S
C688 C689 1.366 . S
C688 C690 1.388 . S
C689 C688 1.366 . S
C689 C693 1.385 . S
C690 H671 0.951 . S
C690 C688 1.388 . S
C690 C691 1.366 . S
C691 C690 1.366 . S
C691 C692 1.414 . S
C691 C694 1.499 . S
C692 H672 0.950 . S
C692 C691 1.414 . S
C692 C693 1.374 . S
C693 H673 0.950 . S
C693 C689 1.385 . S
C693 C692 1.374 . S
C694 C691 1.499 . S
C694 C695 1.373 . S
C694 C696 1.389 . S
C695 H674 0.950 . S
C695 C694 1.373 . S
C695 C711 1.377 . S
C696 C694 1.389 . S
C696 C697 1.524 . S
C696 C710 1.377 . S
C697 C696 1.524 . S
C697 C698 1.397 . S
C697 C702 1.363 . S
C698 H675 0.950 . S
C698 C697 1.397 . S
C698 C699 1.334 . S
C699 H676 0.950 . S
C699 C698 1.334 . S
C699 C700 1.287 . S
C700 C699 1.287 . S
C700 C701 1.524 . S
C700 H719 0.913 . S
C701 H677 0.950 . S
C701 C700 1.524 . S
C701 C702 1.415 . S
C702 H678 0.950 . S
C702 C697 1.363 . S
C702 C701 1.415 . S
C703 H679 0.951 . S
C703 C704 1.366 . S
C703 C705 1.388 . S
C704 C703 1.366 . S
C704 C708 1.385 . S
C705 H680 0.951 . S
C705 C703 1.388 . S
C705 C706 1.366 . S
C706 C705 1.366 . S
C706 C707 1.414 . S
C706 C709 1.499 . S
C707 H681 0.950 . S
C707 C706 1.414 . S
C707 C708 1.374 . S
C708 H682 0.950 . S
C708 C704 1.385 . S
C708 C707 1.374 . S
C709 C706 1.499 . S
C709 C710 1.373 . S
C709 C711 1.389 . S
C710 H683 0.950 . S
C710 C696 1.377 . S
C710 C709 1.373 . S
C711 C695 1.377 . S
C711 C709 1.389 . S
C711 C712 1.524 . S
C712 C711 1.524 . S
C712 C713 1.397 . S
C712 C717 1.363 . S
C713 H684 0.950 . S
C713 C712 1.397 . S
C713 C714 1.334 . S
C714 H685 0.950 . S
C714 C713 1.334 . S
C714 C715 1.287 . S
C715 C714 1.287 . S
C715 C716 1.524 . S
C715 H718 0.999 . S
C716 H686 0.950 . S
C716 C715 1.524 . S
C716 C717 1.415 . S
C717 H687 0.950 . S
C717 C712 1.363 . S
C717 C716 1.415 . S
H718 C715 0.999 . S
H719 C700 0.913 . S
H720 C738 0.951 . S
H721 C740 0.951 . S
H722 C742 0.950 . S
H723 C743 0.950 . S
H724 C745 0.950 . S
H725 C748 0.950 . S
H726 C749 0.950 . S
H727 C751 0.950 . S
H728 C752 0.950 . S
H729 C753 0.951 . S
H730 C755 0.951 . S
H731 C757 0.950 . S
H732 C758 0.950 . S
H733 C760 0.950 . S
H734 C763 0.950 . S
H735 C764 0.950 . S
H736 C766 0.950 . S
H737 C767 0.950 . S
C738 H720 0.951 . S
C738 C739 1.366 . S
C738 C740 1.388 . S
C739 C738 1.366 . S
C739 C743 1.385 . S
C740 H721 0.951 . S
C740 C738 1.388 . S
C740 C741 1.366 . S
C741 C740 1.366 . S
C741 C742 1.414 . S
C741 C744 1.499 . S
C742 H722 0.950 . S
C742 C741 1.414 . S
C742 C743 1.374 . S
C743 H723 0.950 . S
C743 C739 1.385 . S
C743 C742 1.374 . S
C744 C741 1.499 . S
C744 C745 1.373 . S
C744 C746 1.389 . S
C745 H724 0.950 . S
C745 C744 1.373 . S
C745 C761 1.377 . S
C746 C744 1.389 . S
C746 C747 1.524 . S
C746 C760 1.377 . S
C747 C746 1.524 . S
C747 C748 1.397 . S
C747 C752 1.363 . S
C748 H725 0.950 . S
C748 C747 1.397 . S
C748 C749 1.334 . S
C749 H726 0.950 . S
C749 C748 1.334 . S
C749 C750 1.287 . S
C750 C749 1.287 . S
C750 C751 1.524 . S
C750 H769 0.913 . S
C751 H727 0.950 . S
C751 C750 1.524 . S
C751 C752 1.415 . S
C752 H728 0.950 . S
C752 C747 1.363 . S
C752 C751 1.415 . S
C753 H729 0.951 . S
C753 C754 1.366 . S
C753 C755 1.388 . S
C754 C753 1.366 . S
C754 C758 1.385 . S
C755 H730 0.951 . S
C755 C753 1.388 . S
C755 C756 1.366 . S
C756 C755 1.366 . S
C756 C757 1.414 . S
C756 C759 1.499 . S
C757 H731 0.950 . S
C757 C756 1.414 . S
C757 C758 1.374 . S
C758 H732 0.950 . S
C758 C754 1.385 . S
C758 C757 1.374 . S
C759 C756 1.499 . S
C759 C760 1.373 . S
C759 C761 1.389 . S
C760 H733 0.950 . S
C760 C746 1.377 . S
C760 C759 1.373 . S
C761 C745 1.377 . S
C761 C759 1.389 . S
C761 C762 1.524 . S
C762 C761 1.524 . S
C762 C763 1.397 . S
C762 C767 1.363 . S
C763 H734 0.950 . S
C763 C762 1.397 . S
C763 C764 1.334 . S
C764 H735 0.950 . S
C764 C763 1.334 . S
C764 C765 1.287 . S
C765 C764 1.287 . S
C765 C766 1.524 . S
C765 H768 0.999 . S
C766 H736 0.950 . S
C766 C765 1.524 . S
C766 C767 1.415 . S
C767 H737 0.950 . S
C767 C762 1.363 . S
C767 C766 1.415 . S
H768 C765 0.999 . S
H769 C750 0.913 . S
H770 C788 0.951 . S
H771 C790 0.951 . S
H772 C792 0.950 . S
H773 C793 0.950 . S
H774 C795 0.950 . S
H775 C798 0.950 . S
H776 C799 0.950 . S
H777 C801 0.950 . S
H778 C802 0.950 . S
H779 C803 0.951 . S
H780 C805 0.951 . S
H781 C807 0.950 . S
H782 C808 0.950 . S
H783 C810 0.950 . S
H784 C813 0.950 . S
H785 C814 0.950 . S
H786 C816 0.950 . S
H787 C817 0.950 . S
C788 H770 0.951 . S
C788 C789 1.366 . S
C788 C790 1.388 . S
C789 C788 1.366 . S
C789 C793 1.385 . S
C790 H771 0.951 . S
C790 C788 1.388 . S
C790 C791 1.366 . S
C791 C790 1.366 . S
C791 C792 1.414 . S
C791 C794 1.499 . S
C792 H772 0.950 . S
C792 C791 1.414 . S
C792 C793 1.374 . S
C793 H773 0.950 . S
C793 C789 1.385 . S
C793 C792 1.374 . S
C794 C791 1.499 . S
C794 C795 1.373 . S
C794 C796 1.389 . S
C795 H774 0.950 . S
C795 C794 1.373 . S
C795 C811 1.377 . S
C796 C794 1.389 . S
C796 C797 1.524 . S
C796 C810 1.377 . S
C797 C796 1.524 . S
C797 C798 1.397 . S
C797 C802 1.363 . S
C798 H775 0.950 . S
C798 C797 1.397 . S
C798 C799 1.334 . S
C799 H776 0.950 . S
C799 C798 1.334 . S
C799 C800 1.287 . S
C800 C799 1.287 . S
C800 C801 1.524 . S
C800 H819 0.913 . S
C801 H777 0.950 . S
C801 C800 1.524 . S
C801 C802 1.415 . S
C802 H778 0.950 . S
C802 C797 1.363 . S
C802 C801 1.415 . S
C803 H779 0.951 . S
C803 C804 1.366 . S
C803 C805 1.388 . S
C804 C803 1.366 . S
C804 C808 1.385 . S
C805 H780 0.951 . S
C805 C803 1.388 . S
C805 C806 1.366 . S
C806 C805 1.366 . S
C806 C807 1.414 . S
C806 C809 1.499 . S
C807 H781 0.950 . S
C807 C806 1.414 . S
C807 C808 1.374 . S
C808 H782 0.950 . S
C808 C804 1.385 . S
C808 C807 1.374 . S
C809 C806 1.499 . S
C809 C810 1.373 . S
C809 C811 1.389 . S
C810 H783 0.950 . S
C810 C796 1.377 . S
C810 C809 1.373 . S
C811 C795 1.377 . S
C811 C809 1.389 . S
C811 C812 1.524 . S
C812 C811 1.524 . S
C812 C813 1.397 . S
C812 C817 1.363 . S
C813 H784 0.950 . S
C813 C812 1.397 . S
C813 C814 1.334 . S
C814 H785 0.950 . S
C814 C813 1.334 . S
C814 C815 1.287 . S
C815 C814 1.287 . S
C815 C816 1.524 . S
C815 H818 0.999 . S
C816 H786 0.950 . S
C816 C815 1.524 . S
C816 C817 1.415 . S
C817 H787 0.950 . S
C817 C812 1.363 . S
C817 C816 1.415 . S
H818 C815 0.999 . S
H819 C800 0.913 . S
H820 C838 0.951 . S
H821 C840 0.951 . S
H822 C842 0.950 . S
H823 C843 0.950 . S
H824 C845 0.950 . S
H825 C848 0.950 . S
H826 C849 0.950 . S
H827 C851 0.950 . S
H828 C852 0.950 . S
H829 C853 0.951 . S
H830 C855 0.951 . S
H831 C857 0.950 . S
H832 C858 0.950 . S
H833 C860 0.950 . S
H834 C863 0.950 . S
H835 C864 0.950 . S
H836 C866 0.950 . S
H837 C867 0.950 . S
C838 H820 0.951 . S
C838 C839 1.366 . S
C838 C840 1.388 . S
C839 C838 1.366 . S
C839 C843 1.385 . S
C840 H821 0.951 . S
C840 C838 1.388 . S
C840 C841 1.366 . S
C841 C840 1.366 . S
C841 C842 1.414 . S
C841 C844 1.499 . S
C842 H822 0.950 . S
C842 C841 1.414 . S
C842 C843 1.374 . S
C843 H823 0.950 . S
C843 C839 1.385 . S
C843 C842 1.374 . S
C844 C841 1.499 . S
C844 C845 1.373 . S
C844 C846 1.389 . S
C845 H824 0.950 . S
C845 C844 1.373 . S
C845 C861 1.377 . S
C846 C844 1.389 . S
C846 C847 1.524 . S
C846 C860 1.377 . S
C847 C846 1.524 . S
C847 C848 1.397 . S
C847 C852 1.363 . S
C848 H825 0.950 . S
C848 C847 1.397 . S
C848 C849 1.334 . S
C849 H826 0.950 . S
C849 C848 1.334 . S
C849 C850 1.287 . S
C850 C849 1.287 . S
C850 C851 1.524 . S
C850 H869 0.913 . S
C851 H827 0.950 . S
C851 C850 1.524 . S
C851 C852 1.415 . S
C852 H828 0.950 . S
C852 C847 1.363 . S
C852 C851 1.415 . S
C853 H829 0.951 . S
C853 C854 1.366 . S
C853 C855 1.388 . S
C854 C853 1.366 . S
C854 C858 1.385 . S
C855 H830 0.951 . S
C855 C853 1.388 . S
C855 C856 1.366 . S
C856 C855 1.366 . S
C856 C857 1.414 . S
C856 C859 1.499 . S
C857 H831 0.950 . S
C857 C856 1.414 . S
C857 C858 1.374 . S
C858 H832 0.950 . S
C858 C854 1.385 . S
C858 C857 1.374 . S
C859 C856 1.499 . S
C859 C860 1.373 . S
C859 C861 1.389 . S
C860 H833 0.950 . S
C860 C846 1.377 . S
C860 C859 1.373 . S
C861 C845 1.377 . S
C861 C859 1.389 . S
C861 C862 1.524 . S
C862 C861 1.524 . S
C862 C863 1.397 . S
C862 C867 1.363 . S
C863 H834 0.950 . S
C863 C862 1.397 . S
C863 C864 1.334 . S
C864 H835 0.950 . S
C864 C863 1.334 . S
C864 C865 1.287 . S
C865 C864 1.287 . S
C865 C866 1.524 . S
C865 H868 0.999 . S
C866 H836 0.950 . S
C866 C865 1.524 . S
C866 C867 1.415 . S
C867 H837 0.950 . S
C867 C862 1.363 . S
C867 C866 1.415 . S
H868 C865 0.999 . S
H869 C850 0.913 . S
H870 C888 0.951 . S
H871 C890 0.951 . S
H872 C892 0.950 . S
H873 C893 0.950 . S
H874 C895 0.950 . S
H875 C898 0.950 . S
H876 C899 0.950 . S
H877 C901 0.950 . S
H878 C902 0.950 . S
H879 C903 0.951 . S
H880 C905 0.951 . S
H881 C907 0.950 . S
H882 C908 0.950 . S
H883 C910 0.950 . S
H884 C913 0.950 . S
H885 C914 0.950 . S
H886 C916 0.950 . S
H887 C917 0.950 . S
C888 H870 0.951 . S
C888 C889 1.366 . S
C888 C890 1.388 . S
C889 C888 1.366 . S
C889 C893 1.385 . S
C890 H871 0.951 . S
C890 C888 1.388 . S
C890 C891 1.366 . S
C891 C890 1.366 . S
C891 C892 1.414 . S
C891 C894 1.499 . S
C892 H872 0.950 . S
C892 C891 1.414 . S
C892 C893 1.374 . S
C893 H873 0.950 . S
C893 C889 1.385 . S
C893 C892 1.374 . S
C894 C891 1.499 . S
C894 C895 1.373 . S
C894 C896 1.389 . S
C895 H874 0.950 . S
C895 C894 1.373 . S
C895 C911 1.377 . S
C896 C894 1.389 . S
C896 C897 1.524 . S
C896 C910 1.377 . S
C897 C896 1.524 . S
C897 C898 1.397 . S
C897 C902 1.363 . S
C898 H875 0.950 . S
C898 C897 1.397 . S
C898 C899 1.334 . S
C899 H876 0.950 . S
C899 C898 1.334 . S
C899 C900 1.287 . S
C900 C899 1.287 . S
C900 C901 1.524 . S
C900 H919 0.913 . S
C901 H877 0.950 . S
C901 C900 1.524 . S
C901 C902 1.415 . S
C902 H878 0.950 . S
C902 C897 1.363 . S
C902 C901 1.415 . S
C903 H879 0.951 . S
C903 C904 1.366 . S
C903 C905 1.388 . S
C904 C903 1.366 . S
C904 C908 1.385 . S
C905 H880 0.951 . S
C905 C903 1.388 . S
C905 C906 1.366 . S
C906 C905 1.366 . S
C906 C907 1.414 . S
C906 C909 1.499 . S
C907 H881 0.950 . S
C907 C906 1.414 . S
C907 C908 1.374 . S
C908 H882 0.950 . S
C908 C904 1.385 . S
C908 C907 1.374 . S
C909 C906 1.499 . S
C909 C910 1.373 . S
C909 C911 1.389 . S
C910 H883 0.950 . S
C910 C896 1.377 . S
C910 C909 1.373 . S
C911 C895 1.377 . S
C911 C909 1.389 . S
C911 C912 1.524 . S
C912 C911 1.524 . S
C912 C913 1.397 . S
C912 C917 1.363 . S
C913 H884 0.950 . S
C913 C912 1.397 . S
C913 C914 1.334 . S
C914 H885 0.950 . S
C914 C913 1.334 . S
C914 C915 1.287 . S
C915 C914 1.287 . S
C915 C916 1.524 . S
C915 H918 0.999 . S
C916 H886 0.950 . S
C916 C915 1.524 . S
C916 C917 1.415 . S
C917 H887 0.950 . S
C917 C912 1.363 . S
C917 C916 1.415 . S
H918 C915 0.999 . S
H919 C900 0.913 . S
H920 C938 0.951 . S
H921 C940 0.951 . S
H922 C942 0.950 . S
H923 C943 0.950 . S
H924 C945 0.950 . S
H925 C948 0.950 . S
H926 C949 0.950 . S
H927 C951 0.950 . S
H928 C952 0.950 . S
H929 C953 0.951 . S
H930 C955 0.951 . S
H931 C957 0.950 . S
H932 C958 0.950 . S
H933 C960 0.950 . S
H934 C963 0.950 . S
H935 C964 0.950 . S
H936 C966 0.950 . S
H937 C967 0.950 . S
C938 H920 0.951 . S
C938 C939 1.366 . S
C938 C940 1.388 . S
C939 C938 1.366 . S
C939 C943 1.385 . S
C940 H921 0.951 . S
C940 C938 1.388 . S
C940 C941 1.366 . S
C941 C940 1.366 . S
C941 C942 1.414 . S
C941 C944 1.499 . S
C942 H922 0.950 . S
C942 C941 1.414 . S
C942 C943 1.374 . S
C943 H923 0.950 . S
C943 C939 1.385 . S
C943 C942 1.374 . S
C944 C941 1.499 . S
C944 C945 1.373 . S
C944 C946 1.389 . S
C945 H924 0.950 . S
C945 C944 1.373 . S
C945 C961 1.377 . S
C946 C944 1.389 . S
C946 C947 1.524 . S
C946 C960 1.377 . S
C947 C946 1.524 . S
C947 C948 1.397 . S
C947 C952 1.363 . S
C948 H925 0.950 . S
C948 C947 1.397 . S
C948 C949 1.334 . S
C949 H926 0.950 . S
C949 C948 1.334 . S
C949 C950 1.287 . S
C950 C949 1.287 . S
C950 C951 1.524 . S
C950 H969 0.913 . S
C951 H927 0.950 . S
C951 C950 1.524 . S
C951 C952 1.415 . S
C952 H928 0.950 . S
C952 C947 1.363 . S
C952 C951 1.415 . S
C953 H929 0.951 . S
C953 C954 1.366 . S
C953 C955 1.388 . S
C954 C953 1.366 . S
C954 C958 1.385 . S
C955 H930 0.951 . S
C955 C953 1.388 . S
C955 C956 1.366 . S
C956 C955 1.366 . S
C956 C957 1.414 . S
C956 C959 1.499 . S
C957 H931 0.950 . S
C957 C956 1.414 . S
C957 C958 1.374 . S
C958 H932 0.950 . S
C958 C954 1.385 . S
C958 C957 1.374 . S
C959 C956 1.499 . S
C959 C960 1.373 . S
C959 C961 1.389 . S
C960 H933 0.950 . S
C960 C946 1.377 . S
C960 C959 1.373 . S
C961 C945 1.377 . S
C961 C959 1.389 . S
C961 C962 1.524 . S
C962 C961 1.524 . S
C962 C963 1.397 . S
C962 C967 1.363 . S
C963 H934 0.950 . S
C963 C962 1.397 . S
C963 C964 1.334 . S
C964 H935 0.950 . S
C964 C963 1.334 . S
C964 C965 1.287 . S
C965 C964 1.287 . S
C965 C966 1.524 . S
C965 H968 0.999 . S
C966 H936 0.950 . S
C966 C965 1.524 . S
C966 C967 1.415 . S
C967 H937 0.950 . S
C967 C962 1.363 . S
C967 C966 1.415 . S
H968 C965 0.999 . S
H969 C950 0.913 . S
H970 C988 0.951 . S
H971 C990 0.951 . S
H972 C992 0.950 . S
H973 C993 0.950 . S
H974 C995 0.950 . S
H975 C998 0.950 . S
H976 C999 0.950 . S
H977 C1001 0.950 . S
H978 C1002 0.950 . S
H979 C1003 0.951 . S
H980 C1005 0.951 . S
H981 C1007 0.950 . S
H982 C1008 0.950 . S
H983 C1010 0.950 . S
H984 C1013 0.950 . S
H985 C1014 0.950 . S
H986 C1016 0.950 . S
H987 C1017 0.950 . S
C988 H970 0.951 . S
C988 C989 1.366 . S
C988 C990 1.388 . S
C989 C988 1.366 . S
C989 C993 1.385 . S
C990 H971 0.951 . S
C990 C988 1.388 . S
C990 C991 1.366 . S
C991 C990 1.366 . S
C991 C992 1.414 . S
C991 C994 1.499 . S
C992 H972 0.950 . S
C992 C991 1.414 . S
C992 C993 1.374 . S
C993 H973 0.950 . S
C993 C989 1.385 . S
C993 C992 1.374 . S
C994 C991 1.499 . S
C994 C995 1.373 . S
C994 C996 1.389 . S
C995 H974 0.950 . S
C995 C994 1.373 . S
C995 C1011 1.377 . S
C996 C994 1.389 . S
C996 C997 1.524 . S
C996 C1010 1.377 . S
C997 C996 1.524 . S
C997 C998 1.397 . S
C997 C1002 1.363 . S
C998 H975 0.950 . S
C998 C997 1.397 . S
C998 C999 1.334 . S
C999 H976 0.950 . S
C999 C998 1.334 . S
C999 C1000 1.287 . S
C1000 C999 1.287 . S
C1000 C1001 1.524 . S
C1000 H1019 0.913 . S
C1001 H977 0.950 . S
C1001 C1000 1.524 . S
C1001 C1002 1.415 . S
C1002 H978 0.950 . S
C1002 C997 1.363 . S
C1002 C1001 1.415 . S
C1003 H979 0.951 . S
C1003 C1004 1.366 . S
C1003 C1005 1.388 . S
C1004 C1003 1.366 . S
C1004 C1008 1.385 . S
C1005 H980 0.951 . S
C1005 C1003 1.388 . S
C1005 C1006 1.366 . S
C1006 C1005 1.366 . S
C1006 C1007 1.414 . S
C1006 C1009 1.499 . S
C1007 H981 0.950 . S
C1007 C1006 1.414 . S
C1007 C1008 1.374 . S
C1008 H982 0.950 . S
C1008 C1004 1.385 . S
C1008 C1007 1.374 . S
C1009 C1006 1.499 . S
C1009 C1010 1.373 . S
C1009 C1011 1.389 . S
C1010 H983 0.950 . S
C1010 C996 1.377 . S
C1010 C1009 1.373 . S
C1011 C995 1.377 . S
C1011 C1009 1.389 . S
C1011 C1012 1.524 . S
C1012 C1011 1.524 . S
C1012 C1013 1.397 . S
C1012 C1017 1.363 . S
C1013 H984 0.950 . S
C1013 C1012 1.397 . S
C1013 C1014 1.334 . S
C1014 H985 0.950 . S
C1014 C1013 1.334 . S
C1014 C1015 1.287 . S
C1015 C1014 1.287 . S
C1015 C1016 1.524 . S
C1015 H1018 0.999 . S
C1016 H986 0.950 . S
C1016 C1015 1.524 . S
C1016 C1017 1.415 . S
C1017 H987 0.950 . S
C1017 C1012 1.363 . S
C1017 C1016 1.415 . S
H1018 C1015 0.999 . S
H1019 C1000 0.913 . S
H1020 C1038 0.951 . S
H1021 C1040 0.951 . S
H1022 C1042 0.950 . S
H1023 C1043 0.950 . S
H1024 C1045 0.950 . S
H1025 C1048 0.950 . S
H1026 C1049 0.950 . S
H1027 C1051 0.950 . S
H1028 C1052 0.950 . S
H1029 C1053 0.951 . S
H1030 C1055 0.951 . S
H1031 C1057 0.950 . S
H1032 C1058 0.950 . S
H1033 C1060 0.923 1_655 S
H1034 C1063 0.950 . S
H1035 C1064 0.950 . S
H1036 C1066 0.950 . S
H1037 C1067 0.950 . S
C1038 H1020 0.951 . S
C1038 C1039 1.366 . S
C1038 C1040 1.388 . S
C1039 C1038 1.366 . S
C1039 C1043 1.385 . S
C1040 H1021 0.951 . S
C1040 C1038 1.388 . S
C1040 C1041 1.366 . S
C1041 C1040 1.366 . S
C1041 C1042 1.414 . S
C1041 C1044 1.499 . S
C1042 H1022 0.950 . S
C1042 C1041 1.414 . S
C1042 C1043 1.374 . S
C1043 H1023 0.950 . S
C1043 C1039 1.385 . S
C1043 C1042 1.374 . S
C1044 C1041 1.499 . S
C1044 C1045 1.373 . S
C1044 C1046 1.389 . S
C1045 H1024 0.950 . S
C1045 C1044 1.373 . S
C1045 C1061 1.377 . S
C1046 C1044 1.389 . S
C1046 C1047 1.524 1_455 S
C1046 C1060 1.377 . S
C1047 C1046 1.524 1_655 S
C1047 C1048 1.397 . S
C1047 C1052 1.363 . S
C1048 H1025 0.950 . S
C1048 C1047 1.397 . S
C1048 C1049 1.334 . S
C1049 H1026 0.950 . S
C1049 C1048 1.334 . S
C1049 C1050 1.287 . S
C1050 C1049 1.287 . S
C1050 C1051 1.524 . S
C1050 H1069 0.913 . S
C1051 H1027 0.950 . S
C1051 C1050 1.524 . S
C1051 C1052 1.415 . S
C1052 H1028 0.950 . S
C1052 C1047 1.363 . S
C1052 C1051 1.415 . S
C1053 H1029 0.951 . S
C1053 C1054 1.366 . S
C1053 C1055 1.388 1_556 S
C1054 C1053 1.366 . S
C1054 C1058 1.385 . S
C1055 H1030 0.951 . S
C1055 C1053 1.388 1_554 S
C1055 C1056 1.366 . S
C1056 C1055 1.366 . S
C1056 C1057 1.414 . S
C1056 C1059 1.499 . S
C1057 H1031 0.950 . S
C1057 C1056 1.414 . S
C1057 C1058 1.374 1_554 S
C1058 H1032 0.950 . S
C1058 C1054 1.385 . S
C1058 C1057 1.374 1_556 S
C1059 C1056 1.499 . S
C1059 C1060 1.373 . S
C1059 C1061 1.389 . S
C1060 H1033 0.923 1_455 S
C1060 C1046 1.377 . S
C1060 C1059 1.373 . S
C1061 C1045 1.377 . S
C1061 C1059 1.389 . S
C1061 C1062 1.524 . S
C1062 C1061 1.524 . S
C1062 C1063 1.397 . S
C1062 C1067 1.363 . S
C1063 H1034 0.950 . S
C1063 C1062 1.397 . S
C1063 C1064 1.334 . S
C1064 H1035 0.950 . S
C1064 C1063 1.334 . S
C1064 C1065 1.287 . S
C1065 C1064 1.287 . S
C1065 C1066 1.524 . S
C1065 H1068 0.999 . S
C1066 H1036 0.950 . S
C1066 C1065 1.524 . S
C1066 C1067 1.415 . S
C1067 H1037 0.950 . S
C1067 C1062 1.363 . S
C1067 C1066 1.415 . S
H1068 C1065 0.999 . S
H1069 C1050 0.913 . S
H1070 C1088 0.951 . S
H1071 C1090 0.951 . S
H1072 C1092 0.950 . S
H1073 C1093 0.924 1_565 S
H1074 C1095 0.950 . S
H1075 C1098 0.950 1_565 S
H1076 C1099 0.945 1_565 S
H1077 C1101 0.950 . S
H1078 C1102 0.950 . S
H1079 C1103 0.951 . S
H1080 C1105 0.951 . S
H1081 C1107 0.950 . S
H1082 C1108 0.950 . S
H1083 C1110 0.950 . S
H1084 C1113 0.950 . S
H1085 C1114 0.950 . S
H1086 C1116 0.950 . S
H1087 C1117 0.950 . S
C1088 H1070 0.951 . S
C1088 C1089 1.366 . S
C1088 C1090 1.388 . S
C1089 C1088 1.366 . S
C1089 C1093 1.413 . S
C1090 H1071 0.951 . S
C1090 C1088 1.388 . S
C1090 C1091 1.366 . S
C1091 C1090 1.366 . S
C1091 C1092 1.414 1_545 S
C1091 C1094 1.499 . S
C1092 H1072 0.950 . S
C1092 C1091 1.414 1_565 S
C1092 C1093 1.371 1_565 S
C1093 H1073 0.924 1_545 S
C1093 C1089 1.413 . S
C1093 C1092 1.371 1_545 S
C1094 C1091 1.499 . S
C1094 C1095 1.373 . S
C1094 C1096 1.389 . S
C1095 H1074 0.950 . S
C1095 C1094 1.373 . S
C1095 C1111 1.377 . S
C1096 C1094 1.389 . S
C1096 C1097 1.524 . S
C1096 C1110 1.377 . S
C1097 C1096 1.524 . S
C1097 C1098 1.397 . S
C1097 C1102 1.363 . S
C1098 H1075 0.950 1_545 S
C1098 C1097 1.397 . S
C1098 C1099 1.334 . S
C1099 H1076 0.945 1_545 S
C1099 C1098 1.334 . S
C1099 C1100 1.287 . S
C1100 C1099 1.287 . S
C1100 C1101 1.524 . S
C1100 H1119 0.913 . S
C1101 H1077 0.950 . S
C1101 C1100 1.524 . S
C1101 C1102 1.415 . S
C1102 H1078 0.950 . S
C1102 C1097 1.363 . S
C1102 C1101 1.415 . S
C1103 H1079 0.951 . S
C1103 C1104 1.366 1_565 S
C1103 C1105 1.388 . S
C1104 C1103 1.366 1_545 S
C1104 C1108 1.385 . S
C1105 H1080 0.951 . S
C1105 C1103 1.388 . S
C1105 C1106 1.366 1_565 S
C1106 C1105 1.366 1_545 S
C1106 C1107 1.414 . S
C1106 C1109 1.499 . S
C1107 H1081 0.950 . S
C1107 C1106 1.414 . S
C1107 C1108 1.374 . S
C1108 H1082 0.950 . S
C1108 C1104 1.385 . S
C1108 C1107 1.374 . S
C1109 C1106 1.499 . S
C1109 C1110 1.373 . S
C1109 C1111 1.389 . S
C1110 H1083 0.950 . S
C1110 C1096 1.377 . S
C1110 C1109 1.373 . S
C1111 C1095 1.377 . S
C1111 C1109 1.389 . S
C1111 C1112 1.524 . S
C1112 C1111 1.524 . S
C1112 C1113 1.397 . S
C1112 C1117 1.363 1_545 S
C1113 H1084 0.950 . S
C1113 C1112 1.397 . S
C1113 C1114 1.334 . S
C1114 H1085 0.950 . S
C1114 C1113 1.334 . S
C1114 C1115 1.287 . S
C1115 C1114 1.287 . S
C1115 C1116 1.524 1_545 S
C1115 H1118 0.999 . S
C1116 H1086 0.950 . S
C1116 C1115 1.524 1_565 S
C1116 C1117 1.415 . S
C1117 H1087 0.950 . S
C1117 C1112 1.363 1_565 S
C1117 C1116 1.415 . S
H1118 C1115 0.999 . S
H1119 C1100 0.913 . S
H1120 C1138 0.951 . S
H1121 C1140 0.951 . S
H1122 C1142 0.950 . S
H1123 C1143 0.950 . S
H1124 C1145 0.950 . S
H1125 C1148 0.950 . S
H1126 C1149 0.950 . S
H1127 C1151 0.950 . S
H1128 C1152 0.950 . S
H1129 C1153 0.951 . S
H1130 C1155 0.951 . S
H1131 C1157 0.950 . S
H1132 C1158 0.950 . S
H1133 C1160 0.950 . S
H1134 C1163 0.950 . S
H1135 C1164 0.950 . S
H1136 C1166 0.950 . S
H1137 C1167 0.950 . S
C1138 H1120 0.951 . S
C1138 C1139 1.366 . S
C1138 C1140 1.388 . S
C1139 C1138 1.366 . S
C1139 C1143 1.385 . S
C1140 H1121 0.951 . S
C1140 C1138 1.388 . S
C1140 C1141 1.366 . S
C1141 C1140 1.366 . S
C1141 C1142 1.414 . S
C1141 C1144 1.499 . S
C1142 H1122 0.950 . S
C1142 C1141 1.414 . S
C1142 C1143 1.374 . S
C1143 H1123 0.950 . S
C1143 C1139 1.385 . S
C1143 C1142 1.374 . S
C1144 C1141 1.499 . S
C1144 C1145 1.373 . S
C1144 C1146 1.389 . S
C1145 H1124 0.950 . S
C1145 C1144 1.373 . S
C1145 C1161 1.377 . S
C1146 C1144 1.389 . S
C1146 C1147 1.524 . S
C1146 C1160 1.377 . S
C1147 C1146 1.524 . S
C1147 C1148 1.397 . S
C1147 C1152 1.363 . S
C1148 H1125 0.950 . S
C1148 C1147 1.397 . S
C1148 C1149 1.334 . S
C1149 H1126 0.950 . S
C1149 C1148 1.334 . S
C1149 C1150 1.287 . S
C1150 C1149 1.287 . S
C1150 C1151 1.524 . S
C1150 H1169 0.913 . S
C1151 H1127 0.950 . S
C1151 C1150 1.524 . S
C1151 C1152 1.415 . S
C1152 H1128 0.950 . S
C1152 C1147 1.363 . S
C1152 C1151 1.415 . S
C1153 H1129 0.951 . S
C1153 C1154 1.366 . S
C1153 C1155 1.388 . S
C1154 C1153 1.366 . S
C1154 C1158 1.385 . S
C1155 H1130 0.951 . S
C1155 C1153 1.388 . S
C1155 C1156 1.366 . S
C1156 C1155 1.366 . S
C1156 C1157 1.414 . S
C1156 C1159 1.499 . S
C1157 H1131 0.950 . S
C1157 C1156 1.414 . S
C1157 C1158 1.374 . S
C1158 H1132 0.950 . S
C1158 C1154 1.385 . S
C1158 C1157 1.374 . S
C1159 C1156 1.499 . S
C1159 C1160 1.373 . S
C1159 C1161 1.389 . S
C1160 H1133 0.950 . S
C1160 C1146 1.377 . S
C1160 C1159 1.373 . S
C1161 C1145 1.377 . S
C1161 C1159 1.389 . S
C1161 C1162 1.524 . S
C1162 C1161 1.524 . S
C1162 C1163 1.397 . S
C1162 C1167 1.363 . S
C1163 H1134 0.950 . S
C1163 C1162 1.397 . S
C1163 C1164 1.334 . S
C1164 H1135 0.950 . S
C1164 C1163 1.334 . S
C1164 C1165 1.287 . S
C1165 C1164 1.287 . S
C1165 C1166 1.524 . S
C1165 H1168 0.999 . S
C1166 H1136 0.950 . S
C1166 C1165 1.524 . S
C1166 C1167 1.415 . S
C1167 H1137 0.950 . S
C1167 C1162 1.363 . S
C1167 C1166 1.415 . S
H1168 C1165 0.999 . S
H1169 C1150 0.913 . S
H1170 C1188 0.951 . S
H1171 C1190 0.951 . S
H1172 C1192 0.950 . S
H1173 C1193 0.950 . S
H1174 C1195 0.950 . S
H1175 C1198 0.950 . S
H1176 C1199 0.950 . S
H1177 C1201 0.950 . S
H1178 C1202 0.950 . S
H1179 C1203 0.951 . S
H1180 C1205 0.951 . S
H1181 C1207 0.950 . S
H1182 C1208 0.950 . S
H1183 C1210 0.950 . S
H1184 C1213 0.950 . S
H1185 C1214 0.950 . S
H1186 C1216 0.950 . S
H1187 C1217 0.950 . S
C1188 H1170 0.951 . S
C1188 C1189 1.366 . S
C1188 C1190 1.388 . S
C1189 C1188 1.366 . S
C1189 C1193 1.385 . S
C1190 H1171 0.951 . S
C1190 C1188 1.388 . S
C1190 C1191 1.366 . S
C1191 C1190 1.366 . S
C1191 C1192 1.414 . S
C1191 C1194 1.499 . S
C1192 H1172 0.950 . S
C1192 C1191 1.414 . S
C1192 C1193 1.374 . S
C1193 H1173 0.950 . S
C1193 C1189 1.385 . S
C1193 C1192 1.374 . S
C1194 C1191 1.499 . S
C1194 C1195 1.373 . S
C1194 C1196 1.389 . S
C1195 H1174 0.950 . S
C1195 C1194 1.373 . S
C1195 C1211 1.377 . S
C1196 C1194 1.389 . S
C1196 C1197 1.524 1_545 S
C1196 C1210 1.377 . S
C1197 C1196 1.524 1_565 S
C1197 C1198 1.397 . S
C1197 C1202 1.363 . S
C1198 H1175 0.950 . S
C1198 C1197 1.397 . S
C1198 C1199 1.334 . S
C1199 H1176 0.950 . S
C1199 C1198 1.334 . S
C1199 C1200 1.287 . S
C1200 C1199 1.287 . S
C1200 C1201 1.524 . S
C1200 H1219 0.913 . S
C1201 H1177 0.950 . S
C1201 C1200 1.524 . S
C1201 C1202 1.415 . S
C1202 H1178 0.950 . S
C1202 C1197 1.363 . S
C1202 C1201 1.415 . S
C1203 H1179 0.951 . S
C1203 C1204 1.366 . S
C1203 C1205 1.388 . S
C1204 C1203 1.366 . S
C1204 C1208 1.385 . S
C1205 H1180 0.951 . S
C1205 C1203 1.388 . S
C1205 C1206 1.366 . S
C1206 C1205 1.366 . S
C1206 C1207 1.414 . S
C1206 C1209 1.499 . S
C1207 H1181 0.950 . S
C1207 C1206 1.414 . S
C1207 C1208 1.374 . S
C1208 H1182 0.950 . S
C1208 C1204 1.385 . S
C1208 C1207 1.374 . S
C1209 C1206 1.499 . S
C1209 C1210 1.373 . S
C1209 C1211 1.389 . S
C1210 H1183 0.950 . S
C1210 C1196 1.377 . S
C1210 C1209 1.373 . S
C1211 C1195 1.377 . S
C1211 C1209 1.389 . S
C1211 C1212 1.524 . S
C1212 C1211 1.524 . S
C1212 C1213 1.397 . S
C1212 C1217 1.363 . S
C1213 H1184 0.950 . S
C1213 C1212 1.397 . S
C1213 C1214 1.334 . S
C1214 H1185 0.950 . S
C1214 C1213 1.334 . S
C1214 C1215 1.287 . S
C1215 C1214 1.287 . S
C1215 C1216 1.524 . S
C1215 H1218 0.999 . S
C1216 H1186 0.950 . S
C1216 C1215 1.524 . S
C1216 C1217 1.415 . S
C1217 H1187 0.950 . S
C1217 C1212 1.363 . S
C1217 C1216 1.415 . S
H1218 C1215 0.999 . S
H1219 C1200 0.913 . S
H1220 C1238 0.951 . S
H1221 C1240 0.951 . S
H1222 C1242 0.950 . S
H1223 C1243 0.950 . S
H1224 C1245 0.950 . S
H1225 C1248 0.950 . S
H1226 C1249 0.950 . S
H1227 C1251 0.950 . S
H1228 C1252 0.950 . S
H1229 C1253 0.951 . S
H1230 C1255 0.951 . S
H1231 C1257 0.950 . S
H1232 C1258 0.950 . S
H1233 C1260 0.950 . S
H1234 C1263 0.950 . S
H1235 C1264 0.945 1_554 S
H1236 C1266 0.950 . S
H1237 C1267 0.950 . S
C1238 H1220 0.951 . S
C1238 C1239 1.366 . S
C1238 C1240 1.388 . S
C1239 C1238 1.366 . S
C1239 C1243 1.385 . S
C1240 H1221 0.951 . S
C1240 C1238 1.388 . S
C1240 C1241 1.366 . S
C1241 C1240 1.366 . S
C1241 C1242 1.414 . S
C1241 C1244 1.499 . S
C1242 H1222 0.950 . S
C1242 C1241 1.414 . S
C1242 C1243 1.374 . S
C1243 H1223 0.950 . S
C1243 C1239 1.385 . S
C1243 C1242 1.374 . S
C1244 C1241 1.499 . S
C1244 C1245 1.373 . S
C1244 C1246 1.389 . S
C1245 H1224 0.950 . S
C1245 C1244 1.373 . S
C1245 C1261 1.377 . S
C1246 C1244 1.389 . S
C1246 C1247 1.524 . S
C1246 C1260 1.377 . S
C1247 C1246 1.524 . S
C1247 C1248 1.397 . S
C1247 C1252 1.363 . S
C1248 H1225 0.950 . S
C1248 C1247 1.397 . S
C1248 C1249 1.334 . S
C1249 H1226 0.950 . S
C1249 C1248 1.334 . S
C1249 C1250 1.287 . S
C1250 C1249 1.287 . S
C1250 C1251 1.524 . S
C1250 H1269 0.913 . S
C1251 H1227 0.950 . S
C1251 C1250 1.524 . S
C1251 C1252 1.415 . S
C1252 H1228 0.950 . S
C1252 C1247 1.363 . S
C1252 C1251 1.415 . S
C1253 H1229 0.951 . S
C1253 C1254 1.366 . S
C1253 C1255 1.388 1_554 S
C1254 C1253 1.366 . S
C1254 C1258 1.385 . S
C1255 H1230 0.951 . S
C1255 C1253 1.388 1_556 S
C1255 C1256 1.366 . S
C1256 C1255 1.366 . S
C1256 C1257 1.414 . S
C1256 C1259 1.499 . S
C1257 H1231 0.950 . S
C1257 C1256 1.414 . S
C1257 C1258 1.374 1_556 S
C1258 H1232 0.950 . S
C1258 C1254 1.385 . S
C1258 C1257 1.374 1_554 S
C1259 C1256 1.499 . S
C1259 C1260 1.373 . S
C1259 C1261 1.389 . S
C1260 H1233 0.950 . S
C1260 C1246 1.377 . S
C1260 C1259 1.373 . S
C1261 C1245 1.377 . S
C1261 C1259 1.389 . S
C1261 C1262 1.524 . S
C1262 C1261 1.524 . S
C1262 C1263 1.397 . S
C1262 C1267 1.363 . S
C1263 H1234 0.950 . S
C1263 C1262 1.397 . S
C1263 C1264 1.334 . S
C1264 H1235 0.945 1_556 S
C1264 C1263 1.334 . S
C1264 C1265 1.287 . S
C1265 C1264 1.287 . S
C1265 C1266 1.524 . S
C1265 H1268 0.999 . S
C1266 H1236 0.950 . S
C1266 C1265 1.524 . S
C1266 C1267 1.415 . S
C1267 H1237 0.950 . S
C1267 C1262 1.363 . S
C1267 C1266 1.415 . S
H1268 C1265 0.999 . S
H1269 C1250 0.913 . S
H1270 C1288 0.951 1_655 S
H1271 C1290 0.951 1_655 S
H1272 C1292 0.950 . S
H1273 C1293 0.950 . S
H1274 C1295 0.950 . S
H1275 C1298 0.950 . S
H1276 C1299 0.950 . S
H1277 C1301 0.950 1_655 S
H1278 C1302 0.950 1_655 S
H1279 C1303 0.951 . S
H1280 C1305 0.951 . S
H1281 C1307 0.950 . S
H1282 C1308 0.950 . S
H1283 C1310 0.950 . S
H1284 C1313 0.950 . S
H1285 C1314 0.950 . S
H1286 C1316 0.950 . S
H1287 C1317 0.950 . S
C1288 H1270 0.951 1_455 S
C1288 C1289 1.366 . S
C1288 C1290 1.388 . S
C1289 C1288 1.366 . S
C1289 C1293 1.385 . S
C1290 H1271 0.951 1_455 S
C1290 C1288 1.388 . S
C1290 C1291 1.366 . S
C1291 C1290 1.366 . S
C1291 C1292 1.414 . S
C1291 C1294 1.499 . S
C1292 H1272 0.950 . S
C1292 C1291 1.414 . S
C1292 C1293 1.374 . S
C1293 H1273 0.950 . S
C1293 C1289 1.385 . S
C1293 C1292 1.374 . S
C1294 C1291 1.499 . S
C1294 C1295 1.373 . S
C1294 C1296 1.389 . S
C1295 H1274 0.950 . S
C1295 C1294 1.373 . S
C1295 C1311 1.377 . S
C1296 C1294 1.389 . S
C1296 C1297 1.524 . S
C1296 C1310 1.377 . S
C1297 C1296 1.524 . S
C1297 C1298 1.397 . S
C1297 C1302 1.363 . S
C1298 H1275 0.950 . S
C1298 C1297 1.397 . S
C1298 C1299 1.334 . S
C1299 H1276 0.950 . S
C1299 C1298 1.334 . S
C1299 C1300 1.287 . S
C1300 C1299 1.287 . S
C1300 C1301 1.524 . S
C1300 H1319 0.913 . S
C1301 H1277 0.950 1_455 S
C1301 C1300 1.524 . S
C1301 C1302 1.415 . S
C1302 H1278 0.950 1_455 S
C1302 C1297 1.363 . S
C1302 C1301 1.415 . S
C1303 H1279 0.951 . S
C1303 C1304 1.366 . S
C1303 C1305 1.388 . S
C1304 C1303 1.366 . S
C1304 C1308 1.385 1_455 S
C1305 H1280 0.951 . S
C1305 C1303 1.388 . S
C1305 C1306 1.366 . S
C1306 C1305 1.366 . S
C1306 C1307 1.414 1_455 S
C1306 C1309 1.499 . S
C1307 H1281 0.950 . S
C1307 C1306 1.414 1_655 S
C1307 C1308 1.374 . S
C1308 H1282 0.950 . S
C1308 C1304 1.385 1_655 S
C1308 C1307 1.374 . S
C1309 C1306 1.499 . S
C1309 C1310 1.373 . S
C1309 C1311 1.389 . S
C1310 H1283 0.950 . S
C1310 C1296 1.377 . S
C1310 C1309 1.373 . S
C1311 C1295 1.377 . S
C1311 C1309 1.389 . S
C1311 C1312 1.524 . S
C1312 C1311 1.524 . S
C1312 C1313 1.397 1_455 S
C1312 C1317 1.363 . S
C1313 H1284 0.950 . S
C1313 C1312 1.397 1_655 S
C1313 C1314 1.334 . S
C1314 H1285 0.950 . S
C1314 C1313 1.334 . S
C1314 C1315 1.287 . S
C1315 C1314 1.287 . S
C1315 C1316 1.524 1_655 S
C1315 H1318 0.999 . S
C1316 H1286 0.950 . S
C1316 C1315 1.524 1_455 S
C1316 C1317 1.415 . S
C1317 H1287 0.950 . S
C1317 C1312 1.363 . S
C1317 C1316 1.415 . S
H1318 C1315 0.999 . S
H1319 C1300 0.913 . S
C439 C2 1.031 . S
C454 C391 1.037 . S
C489 C21 0.959 . S
C504 C241 0.930 . S
C539 C42 1.031 . S
C554 C301 0.985 . S
C589 C1 0.960 . S
C604 C361 0.929 . S
C654 C271 1.037 . S
C639 C22 1.031 . S
C704 C331 0.967 . S
C689 C41 0.960 . S
C739 C38 1.818 . S
C754 C121 1.713 . S
C789 C59 1.901 . S
C804 C211 1.894 . S
C839 C18 1.817 . S
C854 C91 1.829 . S
C904 C151 1.894 . S
C889 C39 1.901 . S
C954 C181 1.713 . S
C939 C58 1.818 . S
C989 C19 1.901 . S
C1004 C61 1.776 . S
C1054 C200 1.541 . S
C1039 C9 1.503 . S
C1089 C29 1.502 . S
C1104 C80 1.539 . S
C1139 C49 1.503 . S
C1154 C140 1.541 . S
C1204 C320 1.360 . S
C1189 C28 1.355 . S
C1254 C380 1.365 . S
C1239 C48 1.354 . S
C1289 C8 1.354 . S
C1304 C260 1.365 . S
