# Generated by pormake.
# Topology pyr, (3,6)-cn, num edge types: 1
# Building blocks:
#     Node 0, Type 0, BuildingBlock: BETDIP_clean_linker_0, # of connection points: 3
#     Node 1, Type 0, BuildingBlock: BETDIP_clean_linker_0, # of connection points: 3
#     Node 2, Type 0, BuildingBlock: BETDIP_clean_linker_0, # of connection points: 3
#     Node 3, Type 0, BuildingBlock: BETDIP_clean_linker_0, # of connection points: 3
#     Node 4, Type 0, BuildingBlock: BETDIP_clean_linker_0, # of connection points: 3
#     Node 5, Type 0, BuildingBlock: BETDIP_clean_linker_0, # of connection points: 3
#     Node 6, Type 0, BuildingBlock: BETDIP_clean_linker_0, # of connection points: 3
#     Node 7, Type 0, BuildingBlock: BETDIP_clean_linker_0, # of connection points: 3
#     Node 8, Type 1, BuildingBlock: BETFEN_clean_sbu_0, # of connection points: 6
#     Node 9, Type 1, BuildingBlock: BETFEN_clean_sbu_0, # of connection points: 6
#     Node 10, Type 1, BuildingBlock: BETFEN_clean_sbu_0, # of connection points: 6
#     Node 11, Type 1, BuildingBlock: BETFEN_clean_sbu_0, # of connection points: 6
#     Edge 12, Type (0, 1), BuildingBlock: UVAHIK_clean_linker_0, # of connection points: 2
#     Edge 13, Type (0, 1), BuildingBlock: UVAHIK_clean_linker_0, # of connection points: 2
#     Edge 14, Type (0, 1), BuildingBlock: UVAHIK_clean_linker_0, # of connection points: 2
#     Edge 15, Type (0, 1), BuildingBlock: UVAHIK_clean_linker_0, # of connection points: 2
#     Edge 16, Type (0, 1), BuildingBlock: UVAHIK_clean_linker_0, # of connection points: 2
#     Edge 17, Type (0, 1), BuildingBlock: UVAHIK_clean_linker_0, # of connection points: 2
#     Edge 18, Type (0, 1), BuildingBlock: UVAHIK_clean_linker_0, # of connection points: 2
#     Edge 19, Type (0, 1), BuildingBlock: UVAHIK_clean_linker_0, # of connection points: 2
#     Edge 20, Type (0, 1), BuildingBlock: UVAHIK_clean_linker_0, # of connection points: 2
#     Edge 21, Type (0, 1), BuildingBlock: UVAHIK_clean_linker_0, # of connection points: 2
#     Edge 22, Type (0, 1), BuildingBlock: UVAHIK_clean_linker_0, # of connection points: 2
#     Edge 23, Type (0, 1), BuildingBlock: UVAHIK_clean_linker_0, # of connection points: 2
#     Edge 24, Type (0, 1), BuildingBlock: UVAHIK_clean_linker_0, # of connection points: 2
#     Edge 25, Type (0, 1), BuildingBlock: UVAHIK_clean_linker_0, # of connection points: 2
#     Edge 26, Type (0, 1), BuildingBlock: UVAHIK_clean_linker_0, # of connection points: 2
#     Edge 27, Type (0, 1), BuildingBlock: UVAHIK_clean_linker_0, # of connection points: 2
#     Edge 28, Type (0, 1), BuildingBlock: UVAHIK_clean_linker_0, # of connection points: 2
#     Edge 29, Type (0, 1), BuildingBlock: UVAHIK_clean_linker_0, # of connection points: 2
#     Edge 30, Type (0, 1), BuildingBlock: UVAHIK_clean_linker_0, # of connection points: 2
#     Edge 31, Type (0, 1), BuildingBlock: UVAHIK_clean_linker_0, # of connection points: 2
#     Edge 32, Type (0, 1), BuildingBlock: UVAHIK_clean_linker_0, # of connection points: 2
#     Edge 33, Type (0, 1), BuildingBlock: UVAHIK_clean_linker_0, # of connection points: 2
#     Edge 34, Type (0, 1), BuildingBlock: UVAHIK_clean_linker_0, # of connection points: 2
#     Edge 35, Type (0, 1), BuildingBlock: UVAHIK_clean_linker_0, # of connection points: 2
# Relax obj value: 0.145
# Max RMSD: 0.276
# Mean RMSD: 0.154
data_MOF--net-pyr--node1-BETFEN_clean_sbu_0--node2-BETDIP_clean_linker_0--edge1-UVAHIK_clean_linker_0
_symmetry_space_group_name_H-M    P1
_symmetry_Int_Tables_number       1
_symmetry_cell_setting            triclinic
loop_
_symmetry_equiv_pos_as_xyz
'x, y, z'
_cell_length_a     46.985258
_cell_length_b     50.938888
_cell_length_c     50.633062
_cell_angle_alpha  92.871591
_cell_angle_beta   96.493635
_cell_angle_gamma 113.61667
loop_
_atom_site_label
_atom_site_type_symbol
_atom_site_fract_x
_atom_site_fract_y
_atom_site_fract_z
_atom_type_partial_charge
H0 H 0.32271 0.35173 0.26088 0.0
H1 H 0.359 0.3351 0.19082 0.0
H2 H 0.29618 0.26443 0.22747 0.0
H3 H 0.38509 0.40644 0.19903 0.0
C4 C 0.36213 0.39091 0.20205 0.0
C5 C 0.32388 0.33645 0.24582 0.0
C6 C 0.30623 0.30678 0.24606 0.0
C7 C 0.34223 0.34669 0.22558 0.0
C8 C 0.34409 0.32712 0.20603 0.0
C9 C 0.3277 0.29732 0.20669 0.0
C10 C 0.30837 0.2874 0.22647 0.0
N11 N 0.35967 0.37676 0.22569 0.0
H12 H 0.27054 0.84967 0.72135 0.0
H13 H 0.27748 0.80346 0.6508 0.0
H14 H 0.33451 0.80826 0.72519 0.0
H15 H 0.2679 0.84257 0.63264 0.0
C16 C 0.24903 0.84233 0.64335 0.0
C17 C 0.28085 0.83677 0.71183 0.0
C18 C 0.30373 0.83014 0.72669 0.0
C19 C 0.2718 0.8278 0.68447 0.0
C20 C 0.28495 0.81101 0.67185 0.0
C21 C 0.30704 0.80318 0.68665 0.0
C22 C 0.31636 0.81299 0.71401 0.0
N23 N 0.24935 0.83607 0.67037 0.0
H24 H 0.65426 0.35662 0.79675 0.0
H25 H 0.5727 0.27819 0.79901 0.0
H26 H 0.65539 0.30102 0.85725 0.0
H27 H 0.63091 0.33157 0.74694 0.0
C28 C 0.61042 0.33543 0.75041 0.0
C29 C 0.64261 0.33698 0.8058 0.0
C30 C 0.65857 0.33059 0.82791 0.0
C31 C 0.61158 0.31815 0.79538 0.0
C32 C 0.59644 0.29276 0.80737 0.0
C33 C 0.6125 0.2857 0.82926 0.0
C34 C 0.64326 0.30522 0.83956 0.0
N35 N 0.59549 0.32479 0.77294 0.0
H36 H 0.80819 0.61989 0.30574 0.0
H37 H 0.88176 0.7012 0.29497 0.0
H38 H 0.82776 0.6955 0.35899 0.0
H39 H 0.8648 0.68059 0.2506 0.0
C40 C 0.86416 0.65928 0.25295 0.0
C41 C 0.82166 0.64264 0.31201 0.0
C42 C 0.81443 0.65591 0.33379 0.0
C43 C 0.84548 0.65889 0.29752 0.0
C44 C 0.86295 0.68855 0.3056 0.0
C45 C 0.85629 0.70197 0.32756 0.0
C46 C 0.83222 0.68541 0.3415 0.0
N47 N 0.85167 0.64493 0.27515 0.0
H48 H 0.64747 0.69888 0.82653 0.0
H49 H 0.70253 0.69204 0.76644 0.0
H50 H 0.71916 0.77524 0.80452 0.0
H51 H 0.65337 0.62314 0.77184 0.0
C52 C 0.66803 0.64151 0.78616 0.0
C53 C 0.66623 0.70911 0.81491 0.0
C54 C 0.68296 0.73917 0.8182 0.0
C55 C 0.67384 0.69202 0.79692 0.0
C56 C 0.69772 0.70514 0.78133 0.0
C57 C 0.71377 0.73526 0.78361 0.0
C58 C 0.70677 0.75198 0.80259 0.0
N59 N 0.65583 0.66177 0.79353 0.0
H60 H 0.75606 0.17902 0.33132 0.0
H61 H 0.75781 0.22862 0.40322 0.0
H62 H 0.69196 0.21981 0.33345 0.0
H63 H 0.81082 0.19761 0.34943 0.0
C64 C 0.8066 0.1909 0.36918 0.0
C65 C 0.74765 0.19292 0.3418 0.0
C66 C 0.72251 0.1981 0.32911 0.0
C67 C 0.76065 0.20414 0.36849 0.0
C68 C 0.74828 0.2206 0.38247 0.0
C69 C 0.72338 0.22627 0.36997 0.0
C70 C 0.71085 0.21511 0.34328 0.0
N71 N 0.7846 0.19742 0.38219 0.0
H72 H 0.35836 0.66425 0.22486 0.0
H73 H 0.44007 0.74457 0.24391 0.0
H74 H 0.36956 0.73435 0.17747 0.0
H75 H 0.45308 0.72356 0.27879 0.0
C76 C 0.43597 0.7016 0.27871 0.0
C77 C 0.37162 0.68623 0.22086 0.0
C78 C 0.3606 0.69723 0.19911 0.0
C79 C 0.39999 0.7029 0.23729 0.0
C80 C 0.4179 0.73135 0.23175 0.0
C81 C 0.40664 0.74286 0.21022 0.0
C82 C 0.37807 0.72563 0.19418 0.0
N83 N 0.4091 0.68959 0.25876 0.0
H84 H 0.13318 0.31747 0.72756 0.0
H85 H 0.21182 0.39859 0.72687 0.0
H86 H 0.20053 0.32546 0.67416 0.0
H87 H 0.20203 0.40854 0.76729 0.0
C88 C 0.17732 0.39612 0.76823 0.0
C89 C 0.15456 0.33014 0.71982 0.0
C90 C 0.16465 0.31771 0.69943 0.0
C91 C 0.17163 0.35903 0.73033 0.0
C92 C 0.19885 0.37607 0.71966 0.0
C93 C 0.20942 0.36397 0.69935 0.0
C94 C 0.19232 0.33482 0.68968 0.0
N95 N 0.16013 0.37012 0.75112 0.0
Pr96 Pr 0.98629 0.98619 0.52281 0.0
Pr97 Pr 0.05029 0.03466 0.50492 0.0
C98 C 0.93549 0.93763 0.52545 0.0
C99 C 0.92153 0.91843 0.54555 0.0
C100 C 0.94033 0.91443 0.56721 0.0
C101 C 0.92643 0.89755 0.58704 0.0
C102 C 0.89357 0.88474 0.58563 0.0
C103 C 0.87491 0.88841 0.56362 0.0
C104 C 0.88879 0.90508 0.54375 0.0
C105 C 0.01898 0.03174 0.56361 0.0
C106 C 0.05629 0.9853 0.54149 0.0
C107 C 0.09874 0.0834 0.49764 0.0
C108 C 0.10991 0.10383 0.47769 0.0
C109 C 0.11005 0.09436 0.4512 0.0
C110 C 0.12251 0.11432 0.43311 0.0
C111 C 0.13491 0.1441 0.44112 0.0
C112 C 0.13387 0.15341 0.46749 0.0
C113 C 0.12157 0.13345 0.48559 0.0
C114 C 0.0201 0.98351 0.47123 0.0
C115 C 0.9805 0.03766 0.48697 0.0
O116 O 0.9615 0.93765 0.51831 0.0
O117 O 0.93541 0.96332 0.52829 0.0
O118 O 0.02614 0.02715 0.54133 0.0
O119 O 0.9925 0.01074 0.56621 0.0
O120 O 0.07028 0.01257 0.53684 0.0
O121 O 0.02572 0.96984 0.53467 0.0
O122 O 0.07473 0.08336 0.50849 0.0
O123 O 0.09822 0.05767 0.49289 0.0
O124 O 1.00665 0.99638 0.48344 0.0
O125 O 0.05026 0.99877 0.47394 0.0
O126 O 0.9656 0.01333 0.49736 0.0
O127 O 0.01138 0.04961 0.48758 0.0
H128 H 0.9657 0.92479 0.56908 0.0
H129 H 0.94137 0.8953 0.6039 0.0
H130 H 0.84953 0.87855 0.56187 0.0
H131 H 0.87394 0.90798 0.52719 0.0
H132 H 0.10105 0.07159 0.44457 0.0
H133 H 0.12325 0.10639 0.41306 0.0
H134 H 0.14273 0.17615 0.4742 0.0
H135 H 0.12153 0.14118 0.50591 0.0
Pr136 Pr 0.48142 0.01739 0.03756 0.0
Pr137 Pr 0.54617 0.01827 0.01425 0.0
C138 C 0.43353 0.01076 0.06464 0.0
C139 C 0.42283 0.03215 0.07493 0.0
C140 C 0.43987 0.06131 0.07204 0.0
C141 C 0.42992 0.08203 0.08117 0.0
C142 C 0.40281 0.07407 0.09362 0.0
C143 C 0.38576 0.04472 0.09652 0.0
C144 C 0.39572 0.02389 0.08719 0.0
C145 C 0.50679 0.06272 1.00557 0.0
C146 C 0.5533 0.0574 0.07088 0.0
C147 C 0.59291 0.02483 0.98588 0.0
C148 C 0.60061 1.00265 0.97289 0.0
C149 C 0.58057 0.97358 0.97309 0.0
C150 C 0.58737 0.95196 0.96114 0.0
C151 C 0.61434 0.95897 0.94864 0.0
C152 C 0.6345 0.9882 0.94855 0.0
C153 C 0.62764 0.00992 0.96062 0.0
C154 C 0.5214 0.97298 0.04634 0.0
C155 C 0.47437 0.97649 0.98185 0.0
O156 O 0.46105 0.01331 0.07626 0.0
O157 O 0.42992 1.00623 0.0385 0.0
O158 O 0.51665 0.04411 0.01198 0.0
O159 O 0.48214 0.05874 0.01687 0.0
O160 O 0.56691 0.05482 0.04992 0.0
O161 O 0.52284 0.04328 0.07165 0.0
O162 O 0.56632 0.02539 0.97549 0.0
O163 O 0.59687 0.02683 0.01209 0.0
O164 O 0.51079 0.99116 0.03983 0.0
O165 O 0.54642 0.97774 0.0353 0.0
O166 O 0.46081 0.98005 1.00253 0.0
O167 O 0.50479 0.99045 0.98089 0.0
H168 H 0.46087 0.06806 0.06258 0.0
H169 H 0.44332 0.10429 0.07813 0.0
H170 H 0.36496 0.03789 0.10625 0.0
H171 H 0.38232 1.00144 0.08958 0.0
H172 H 0.55963 0.9676 0.98261 0.0
H173 H 0.57166 0.92972 0.962 0.0
H174 H 0.65532 0.99427 0.93889 0.0
H175 H 0.64334 0.0323 0.96033 0.0
Pr176 Pr 0.52119 0.55003 0.53226 0.0
Pr177 Pr 0.50583 0.48544 0.50312 0.0
C178 C 0.51829 0.60158 0.53825 0.0
C179 C 0.50327 0.61784 0.55189 0.0
C180 C 0.50587 0.62188 0.57986 0.0
C181 C 0.49086 0.63728 0.59178 0.0
C182 C 0.47297 0.64884 0.57594 0.0
C183 C 0.47045 0.64455 0.54797 0.0
C184 C 0.48552 0.62938 0.53615 0.0
C185 C 0.53721 0.51615 0.56817 0.0
C186 C 0.45591 0.49311 0.54067 0.0
C187 C 0.50489 0.43453 0.4848 0.0
C188 C 0.52595 0.42089 0.47828 0.0
C189 C 0.5174 0.40191 0.45492 0.0
C190 C 0.53615 0.38773 0.44862 0.0
C191 C 0.56383 0.39211 0.46566 0.0
C192 C 0.57271 0.41167 0.48885 0.0
C193 C 0.55395 0.42597 0.49509 0.0
C194 C 0.48433 0.52109 0.47455 0.0
C195 C 0.57548 0.5403 0.50108 0.0
O196 O 0.49958 0.58058 0.52021 0.0
O197 O 0.54031 0.59597 0.552 0.0
O198 O 0.52618 0.50985 0.54382 0.0
O199 O 0.54086 0.54238 0.57544 0.0
O200 O 0.46648 0.47507 0.53013 0.0
O201 O 0.46982 0.52143 0.5401 0.0
O202 O 0.50534 0.44183 0.51009 0.0
O203 O 0.50199 0.45315 0.46899 0.0
O204 O 0.51021 0.52857 0.48937 0.0
O205 O 0.46814 0.49332 0.47321 0.0
O206 O 0.56551 0.55915 0.51106 0.0
O207 O 0.55901 0.51201 0.49934 0.0
H208 H 0.5194 0.61316 0.59249 0.0
H209 H 0.49355 0.64039 0.61338 0.0
H210 H 0.45642 0.65257 0.53508 0.0
H211 H 0.48309 0.62647 0.51453 0.0
H212 H 0.49601 0.39785 0.4416 0.0
H213 H 0.52891 0.3733 0.43034 0.0
H214 H 0.59375 0.41541 0.5025 0.0
H215 H 0.56112 0.44067 0.51319 0.0
Pr216 Pr 0.01206 0.54241 0.99183 0.0
Pr217 Pr 0.01061 0.49558 0.02604 0.0
C218 C 1.00331 0.58133 0.96145 0.0
C219 C 0.97884 0.59031 0.95029 0.0
C220 C 0.9819 0.60298 0.92627 0.0
C221 C 0.95817 0.61014 0.91417 0.0
C222 C 0.93095 0.60479 0.92595 0.0
C223 C 0.92821 0.59261 0.95037 0.0
C224 C 0.95195 0.58525 0.96241 0.0
C225 C 0.06973 0.55416 0.02286 0.0
C226 C 0.98152 0.53863 0.04842 0.0
C227 C 0.02228 0.45724 0.05522 0.0
C228 C 0.04805 0.44809 0.06102 0.0
C229 C 0.04184 0.42093 0.06971 0.0
C230 C 0.06634 0.41242 0.07633 0.0
C231 C 0.09754 0.43101 0.07444 0.0
C232 C 0.1035 0.45804 0.06513 0.0
C233 C 0.07895 0.46647 0.0584 0.0
C234 C 0.95291 0.4837 0.99489 0.0
C235 C 0.03937 0.49831 0.96903 0.0
O236 O 1.00084 0.5562 0.95166 0.0
O237 O 0.01238 0.58653 0.98726 0.0
O238 O 0.04345 0.54346 0.03085 0.0
O239 O 0.06702 0.56054 0.99854 0.0
O240 O 0.99613 0.52236 0.05599 0.0
O241 O 0.97994 0.54541 0.02356 0.0
O242 O 0.02779 0.48336 0.06496 0.0
O243 O 1.00719 0.45043 0.03085 0.0
O244 O 0.97923 0.49447 0.98692 0.0
O245 O 0.95561 0.4772 0.01923 0.0
O246 O 0.02368 0.51368 0.96151 0.0
O247 O 0.04249 0.49281 0.99414 0.0
H248 H 1.0025 0.60698 0.91665 0.0
H249 H 0.96106 0.6198 0.89553 0.0
H250 H 0.90736 0.58803 0.95975 0.0
H251 H 0.94911 0.57523 0.98087 0.0
H252 H 0.01807 0.40641 0.07163 0.0
H253 H 0.06085 0.39128 0.08299 0.0
H254 H 0.12723 0.47303 0.06372 0.0
H255 H 0.08415 0.48752 0.05159 0.0
C256 C 0.29783 0.30626 0.29415 0.0
C257 C 0.28636 0.29564 0.26718 0.0
C258 C 0.2801 0.29387 0.31417 0.0
C259 C 0.20019 0.24639 0.32646 0.0
H260 H 0.24484 0.22686 0.38604 0.0
C261 C 0.13763 0.16076 0.39518 0.0
C262 C 0.1501 0.16529 0.42242 0.0
C263 C 0.15313 0.17977 0.37737 0.0
C264 C 0.23204 0.23257 0.36982 0.0
H265 H 0.24672 0.26478 0.23992 0.0
H266 H 0.21595 0.24294 0.27485 0.0
H267 H 0.27386 0.25525 0.35307 0.0
H268 H 0.18845 0.19375 0.45234 0.0
H269 H 0.21494 0.22727 0.42145 0.0
H270 H 0.15827 0.22329 0.34305 0.0
C271 C 0.23855 0.26088 0.28056 0.0
C272 C 0.24871 0.24887 0.35091 0.0
C273 C 0.25631 0.27318 0.26057 0.0
C274 C 0.17798 0.18972 0.43155 0.0
C275 C 0.19341 0.20877 0.41377 0.0
C276 C 0.1835 0.23015 0.34545 0.0
C277 C 0.25049 0.27073 0.30761 0.0
C278 C 0.23294 0.25563 0.32883 0.0
C279 C 0.18144 0.2038 0.3864 0.0
C280 C 0.1992 0.22273 0.36717 0.0
H281 H 0.32097 0.32346 0.29985 0.0
H282 H 0.28977 0.30211 0.33484 0.0
H283 H 0.18744 0.25158 0.30982 0.0
H284 H 0.11598 0.14237 0.38755 0.0
H285 H 0.14339 0.17514 0.35638 0.0
C286 C 0.32261 0.8265 0.77436 0.0
C287 C 0.31615 0.84284 0.75484 0.0
C288 C 0.33676 0.83933 0.80027 0.0
C289 C 0.38871 0.90984 0.83546 0.0
H290 H 0.36532 0.87372 0.89996 0.0
C291 C 0.42172 0.94396 0.95597 0.0
C292 C 0.45464 0.95714 0.95785 0.0
C293 C 0.40328 0.92799 0.93219 0.0
C294 C 0.37198 0.88408 0.88211 0.0
H295 H 0.31893 0.88532 0.74741 0.0
H296 H 0.34325 0.90754 0.79257 0.0
H297 H 0.33453 0.84998 0.85647 0.0
H298 H 0.49396 0.96258 0.93653 0.0
H299 H 0.46189 0.93489 0.8954 0.0
H300 H 0.42605 0.94388 0.86085 0.0
C301 C 0.33756 0.88487 0.78782 0.0
C302 C 0.35453 0.87043 0.85724 0.0
C303 C 0.32331 0.87205 0.76201 0.0
C304 C 0.46869 0.95305 0.9358 0.0
C305 C 0.45031 0.93726 0.91212 0.0
C306 C 0.40622 0.92332 0.86019 0.0
C307 C 0.34492 0.86879 0.8071 0.0
C308 C 0.36274 0.88321 0.83367 0.0
C309 C 0.41742 0.92505 0.90984 0.0
C310 C 0.39818 0.91056 0.88377 0.0
H311 H 0.31711 0.80389 0.76949 0.0
H312 H 0.3423 0.82643 0.81466 0.0
H313 H 0.39586 0.92009 0.81765 0.0
H314 H 0.41011 0.94661 0.97256 0.0
H315 H 0.37796 0.91886 0.93097 0.0
C316 C 0.60724 0.35219 0.70529 0.0
C317 C 0.5986 0.35085 0.73097 0.0
C318 C 0.59841 0.36829 0.68708 0.0
C319 C 0.54671 0.40833 0.67544 0.0
H320 H 0.60384 0.44384 0.62527 0.0
C321 C 0.5435 0.50102 0.61392 0.0
C322 C 0.54298 0.49632 0.58626 0.0
C323 C 0.54858 0.48215 0.63113 0.0
C324 C 0.58757 0.4339 0.63905 0.0
H325 H 0.57399 0.36535 0.7579 0.0
H326 H 0.5598 0.39467 0.72674 0.0
H327 H 0.61607 0.41373 0.65642 0.0
H328 H 0.54788 0.4686 0.55491 0.0
H329 H 0.55783 0.43605 0.58515 0.0
H330 H 0.51916 0.43004 0.65861 0.0
C331 C 0.57243 0.38248 0.72007 0.0
C332 C 0.5944 0.41637 0.65688 0.0
C333 C 0.58066 0.36575 0.73809 0.0
C334 C 0.54794 0.47257 0.57613 0.0
C335 C 0.55375 0.45406 0.59342 0.0
C336 C 0.54028 0.42641 0.65797 0.0
C337 C 0.58144 0.38425 0.69431 0.0
C338 C 0.57399 0.4031 0.6753 0.0
C339 C 0.55399 0.4586 0.62109 0.0
C340 C 0.56057 0.43924 0.63952 0.0
H341 H 0.62096 0.34077 0.69927 0.0
H342 H 0.60509 0.36819 0.66733 0.0
H343 H 0.53003 0.39825 0.68884 0.0
H344 H 0.53966 0.51914 0.62223 0.0
H345 H 0.54887 0.48625 0.65238 0.0
C346 C 0.87758 0.61933 0.23453 0.0
C347 C 0.87402 0.64517 0.23159 0.0
C348 C 0.88798 0.60708 0.21432 0.0
C349 C 0.92872 0.62564 0.15418 0.0
H350 H 0.89777 0.54274 0.13933 0.0
C351 C 0.9569 0.57163 0.06305 0.0
C352 C 0.96678 0.54951 0.0683 0.0
C353 C 0.94442 0.58271 0.08244 0.0
C354 C 0.90675 0.56594 0.14334 0.0
H355 H 0.87798 0.67816 0.20515 0.0
H356 H 0.89503 0.65649 0.16963 0.0
H357 H 0.87816 0.56301 0.17408 0.0
H358 H 0.97052 0.52123 0.0979 0.0
H359 H 0.94847 0.54032 0.13146 0.0
H360 H 0.95695 0.62846 0.12312 0.0
C361 C 0.8907 0.64593 0.18771 0.0
C362 C 0.89563 0.57761 0.16338 0.0
C363 C 0.88065 0.65828 0.20799 0.0
C364 C 0.96324 0.53832 0.09317 0.0
C365 C 0.95043 0.54914 0.11239 0.0
C366 C 0.93957 0.61396 0.13398 0.0
C367 C 0.89482 0.62028 0.19062 0.0
C368 C 0.9065 0.60766 0.16916 0.0
C369 C 0.94114 0.57166 0.10738 0.0
C370 C 0.92882 0.58398 0.12837 0.0
H371 H 0.87284 0.60881 0.2526 0.0
H372 H 0.89125 0.58756 0.21755 0.0
H373 H 0.93824 0.64884 0.15832 0.0
H374 H 0.95928 0.58076 0.04413 0.0
H375 H 0.93722 0.59989 0.07788 0.0
C376 C 0.36332 0.28033 0.18481 0.0
C377 C 0.33273 0.27633 0.18849 0.0
C378 C 0.36861 0.25877 0.17082 0.0
C379 C 0.33212 0.18013 0.15281 0.0
H380 H 0.40026 0.1969 0.11081 0.0
C381 C 0.36065 0.09145 0.10025 0.0
C382 C 0.3926 0.09648 0.10337 0.0
C383 C 0.35141 0.11312 0.10847 0.0
C384 C 0.38122 0.19192 0.12258 0.0
H385 H 0.28352 0.24737 0.17905 0.0
H386 H 0.29267 0.20985 0.15418 0.0
H387 H 0.38714 0.23585 0.12737 0.0
H388 H 0.43976 0.12794 0.11852 0.0
H389 H 0.42366 0.16569 0.13246 0.0
H390 H 0.32638 0.13618 0.14808 0.0
C391 C 0.31266 0.22936 0.16267 0.0
C392 C 0.37371 0.21422 0.13209 0.0
C393 C 0.3074 0.25088 0.17679 0.0
C394 C 0.41501 0.12351 0.11525 0.0
C395 C 0.40581 0.14517 0.12326 0.0
C396 C 0.3395 0.15779 0.14314 0.0
C397 C 0.3434 0.23276 0.16006 0.0
C398 C 0.34943 0.2087 0.14772 0.0
C399 C 0.37395 0.1403 0.11981 0.0
C400 C 0.36449 0.16354 0.12833 0.0
H401 H 0.38335 0.29953 0.19391 0.0
H402 H 0.39262 0.262 0.16954 0.0
H403 H 0.31358 0.17512 0.16511 0.0
H404 H 0.3428 0.07101 0.0909 0.0
H405 H 0.32668 0.10882 0.10545 0.0
C406 C 0.19954 0.8502 0.64219 0.0
C407 C 0.22743 0.85475 0.63184 0.0
C408 C 0.18002 0.86319 0.63205 0.0
C409 C 0.16577 0.90251 0.57487 0.0
H410 H 0.12083 0.92667 0.62371 0.0
C411 C 0.10781 0.98135 0.55086 0.0
C412 C 0.0758 0.97105 0.55355 0.0
C413 C 0.12581 0.96675 0.56053 0.0
C414 C 0.13315 0.91989 0.60986 0.0
H415 H 0.25676 0.87615 0.60274 0.0
H416 H 0.22367 0.89995 0.58579 0.0
H417 H 0.15331 0.902 0.63999 0.0
H418 H 0.03778 0.93787 0.56913 0.0
H419 H 0.06967 0.91289 0.58684 0.0
H420 H 0.14644 0.92169 0.54509 0.0
C421 C 0.21611 0.88569 0.60115 0.0
C422 C 0.15162 0.90554 0.61908 0.0
C423 C 0.23527 0.87221 0.61095 0.0
C424 C 0.06237 0.94628 0.56673 0.0
C425 C 0.08058 0.93204 0.57691 0.0
C426 C 0.1478 0.91738 0.56583 0.0
C427 C 0.18823 0.88151 0.61164 0.0
C428 C 0.16819 0.89656 0.60171 0.0
C429 C 0.11234 0.94193 0.57356 0.0
C430 C 0.13131 0.92616 0.58323 0.0
H431 H 0.19273 0.83654 0.65812 0.0
H432 H 0.15845 0.85876 0.64024 0.0
H433 H 0.1775 0.89548 0.56066 0.0
H434 H 0.11878 1.00026 0.54065 0.0
H435 H 0.15031 0.97487 0.55785 0.0
C436 C 0.69956 0.37963 0.84632 0.0
C437 C 0.69119 0.35015 0.83946 0.0
C438 C 0.72902 0.39691 0.86094 0.0
C439 C 0.78899 0.38903 0.90888 0.0
H440 H 0.84099 0.46808 0.89896 0.0
C441 C 0.92183 0.47738 0.94969 0.0
C442 C 0.92271 0.47333 0.97697 0.0
C443 C 0.89338 0.46522 0.93234 0.0
C444 C 0.82671 0.44599 0.9019 0.0
H445 H 0.70778 0.31613 0.84049 0.0
H446 H 0.75911 0.34619 0.86563 0.0
H447 H 0.79265 0.44096 0.86779 0.0
H448 H 0.8945 0.4549 1.0078 0.0
H449 H 0.84488 0.43384 0.97764 0.0
H450 H 0.82293 0.39365 0.94261 0.0
C451 C 0.74276 0.35588 0.86042 0.0
C452 C 0.79898 0.43056 0.88418 0.0
C453 C 0.71344 0.33869 0.84596 0.0
C454 C 0.89455 0.45806 0.98682 0.0
C455 C 0.86617 0.44591 0.96951 0.0
C456 C 0.81648 0.40441 0.92656 0.0
C457 C 0.75053 0.38493 0.86884 0.0
C458 C 0.77996 0.40181 0.8874 0.0
C459 C 0.86534 0.44878 0.94198 0.0
C460 C 0.83571 0.43304 0.92331 0.0
H461 H 0.68278 0.38896 0.84161 0.0
H462 H 0.73431 0.41921 0.86717 0.0
H463 H 0.77462 0.36708 0.91219 0.0
H464 H 0.94323 0.48925 0.94161 0.0
H465 H 0.89354 0.46771 0.91124 0.0
C466 C 0.78398 0.61246 0.35683 0.0
C467 C 0.78841 0.63975 0.34887 0.0
C468 C 0.76193 0.59937 0.37392 0.0
C469 C 0.72422 0.61916 0.42615 0.0
H470 H 0.66076 0.54079 0.41345 0.0
C471 C 0.61816 0.58021 0.48333 0.0
C472 C 0.60453 0.55123 0.48843 0.0
C473 C 0.64277 0.58977 0.46814 0.0
C474 C 0.67871 0.56255 0.41764 0.0
H475 H 0.77136 0.67349 0.35088 0.0
H476 H 0.73365 0.65101 0.38087 0.0
H477 H 0.69876 0.55871 0.3823 0.0
H478 H 0.60725 0.50984 0.48255 0.0
H479 H 0.65083 0.52673 0.45675 0.0
H480 H 0.70474 0.62321 0.46147 0.0
C481 C 0.74755 0.63999 0.37438 0.0
C482 C 0.70037 0.5728 0.39968 0.0
C483 C 0.76919 0.65285 0.35719 0.0
C484 C 0.61707 0.53231 0.47892 0.0
C485 C 0.64191 0.54194 0.46388 0.0
C486 C 0.7029 0.60886 0.44423 0.0
C487 C 0.74417 0.61346 0.38343 0.0
C488 C 0.72288 0.60142 0.40347 0.0
C489 C 0.65471 0.57069 0.45783 0.0
C490 C 0.67938 0.58062 0.43995 0.0
H491 H 0.79844 0.60183 0.35081 0.0
H492 H 0.75968 0.57883 0.38054 0.0
H493 H 0.74172 0.64118 0.42983 0.0
H494 H 0.60899 0.59538 0.4901 0.0
H495 H 0.65157 0.61194 0.46362 0.0
C496 C 0.33733 0.40132 0.15997 0.0
C497 C 0.33402 0.38984 0.18463 0.0
C498 C 0.31152 0.40245 0.14413 0.0
C499 C 0.22436 0.37355 0.13513 0.0
H500 H 0.23714 0.44552 0.10553 0.0
C501 C 0.12371 0.40839 0.1062 0.0
C502 C 0.12383 0.42273 0.08317 0.0
C503 C 0.14896 0.40171 0.11521 0.0
C504 C 0.23323 0.4251 0.11326 0.0
H505 H 0.30097 0.37098 0.21225 0.0
H506 H 0.25625 0.37279 0.18477 0.0
H507 H 0.28216 0.43834 0.12711 0.0
H508 H 0.15033 0.44051 0.0511 0.0
H509 H 0.19466 0.42908 0.06706 0.0
H510 H 0.17532 0.36066 0.12191 0.0
C511 C 0.27855 0.3803 0.17724 0.0
C512 C 0.25905 0.42096 0.12562 0.0
C513 C 0.30431 0.3792 0.19304 0.0
C514 C 0.14969 0.42985 0.06914 0.0
C515 C 0.17505 0.42326 0.07823 0.0
C516 C 0.19855 0.37771 0.12283 0.0
C517 C 0.28188 0.3922 0.15273 0.0
C518 C 0.25486 0.39535 0.13714 0.0
C519 C 0.17505 0.40929 0.10148 0.0
C520 C 0.20264 0.40374 0.1122 0.0
H521 H 0.36001 0.40977 0.15309 0.0
H522 H 0.31482 0.41154 0.12525 0.0
H523 H 0.22038 0.35336 0.14337 0.0
H524 H 0.10448 0.40304 0.11778 0.0
H525 H 0.14847 0.3914 0.13345 0.0
C526 C 0.61702 0.24449 0.85201 0.0
C527 C 0.59808 0.25825 0.84179 0.0
C528 C 0.60528 0.22113 0.86689 0.0
C529 C 0.53873 0.18452 0.90499 0.0
H530 H 0.57977 0.13229 0.91304 0.0
C531 C 0.5161 0.11058 0.98985 0.0
C532 C 0.51895 0.08429 0.98664 0.0
C533 C 0.52511 0.13037 0.97097 0.0
C534 C 0.56748 0.14622 0.91088 0.0
H535 H 0.55087 0.25638 0.83766 0.0
H536 H 0.52964 0.21428 0.86204 0.0
H537 H 0.59336 0.16612 0.88003 0.0
H538 H 0.53282 0.05765 0.96105 0.0
H539 H 0.54689 0.09121 0.92719 0.0
H540 H 0.51117 0.16319 0.9344 0.0
C541 C 0.55423 0.22256 0.85975 0.0
C542 C 0.57584 0.16627 0.89212 0.0
C543 C 0.56627 0.24652 0.84529 0.0
C544 C 0.531 0.07807 0.96421 0.0
C545 C 0.53912 0.09749 0.94481 0.0
C546 C 0.52971 0.1639 0.9232 0.0
C547 C 0.57379 0.20994 0.87142 0.0
C548 C 0.56223 0.18632 0.88931 0.0
C549 C 0.53618 0.12398 0.94778 0.0
C550 C 0.54446 0.14482 0.92698 0.0
H551 H 0.64141 0.25221 0.8491 0.0
H552 H 0.62151 0.21265 0.8756 0.0
H553 H 0.52769 0.19951 0.90385 0.0
H554 H 0.50693 0.11589 1.00707 0.0
H555 H 0.52334 0.15072 0.97475 0.0
C556 C 0.85868 0.74997 0.34455 0.0
C557 C 0.87438 0.73315 0.33665 0.0
C558 C 0.87549 0.77825 0.35627 0.0
C559 C 0.95296 0.82543 0.39385 0.0
H560 H 0.92204 0.88489 0.38403 0.0
C561 C 0.0213 0.94246 0.44309 0.0
C562 C 1.00382 0.95549 0.45477 0.0
C563 C 1.0062 0.916 0.42736 0.0
C564 C 0.93082 0.86844 0.38713 0.0
H565 H 0.92011 0.73336 0.33368 0.0
H566 H 0.94962 0.78317 0.35358 0.0
H567 H 0.89529 0.83834 0.35719 0.0
H568 H 0.95687 0.95112 0.45926 0.0
H569 H 0.93035 0.90478 0.43167 0.0
H570 H 0.9885 0.8556 0.42379 0.0
C571 C 0.92422 0.7742 0.35122 0.0
C572 C 0.91552 0.84175 0.37174 0.0
C573 C 0.90734 0.74578 0.33951 0.0
C574 C 0.9709 0.94157 0.45043 0.0
C575 C 0.95576 0.91515 0.43452 0.0
C576 C 0.96836 0.85218 0.40912 0.0
C577 C 0.90849 0.79058 0.36026 0.0
C578 C 0.92618 0.81977 0.3751 0.0
C579 C 0.97326 0.90207 0.42283 0.0
C580 C 0.9573 0.87389 0.40611 0.0
H581 H 0.83328 0.741 0.34228 0.0
H582 H 0.86251 0.79003 0.36314 0.0
H583 H 0.96152 0.80891 0.39736 0.0
H584 H 0.04672 0.95271 0.44611 0.0
H585 H 0.02034 0.90663 0.41845 0.0
C586 C 0.33264 0.79188 0.64926 0.0
C587 C 0.32127 0.7855 0.67371 0.0
C588 C 0.34819 0.77657 0.63822 0.0
C589 C 0.35957 0.70895 0.63997 0.0
H590 H 0.43793 0.75286 0.61427 0.0
C591 C 0.44192 0.6564 0.61085 0.0
C592 C 0.45675 0.66517 0.58823 0.0
C593 C 0.42547 0.67106 0.62149 0.0
C594 C 0.4159 0.74017 0.62102 0.0
H595 H 0.31618 0.75735 0.70522 0.0
H596 H 0.34326 0.73063 0.68596 0.0
H597 H 0.40775 0.77767 0.63109 0.0
H598 H 0.46665 0.69696 0.55968 0.0
H599 H 0.43725 0.72177 0.57759 0.0
H600 H 0.36746 0.6714 0.62966 0.0
C601 C 0.34022 0.74747 0.67533 0.0
C602 C 0.39859 0.75444 0.63067 0.0
C603 C 0.32494 0.76293 0.68646 0.0
C604 C 0.45513 0.68926 0.57684 0.0
C605 C 0.43858 0.70379 0.58737 0.0
C606 C 0.37676 0.69464 0.63013 0.0
C607 C 0.3524 0.75436 0.65126 0.0
C608 C 0.37027 0.73901 0.6403 0.0
C609 C 0.42338 0.69482 0.60976 0.0
C610 C 0.40519 0.71006 0.62055 0.0
H611 H 0.33033 0.80927 0.63905 0.0
H612 H 0.35703 0.78218 0.6195 0.0
H613 H 0.33766 0.69642 0.647 0.0
H614 H 0.44243 0.63781 0.62003 0.0
H615 H 0.41445 0.66377 0.63898 0.0
C616 C 0.75839 0.73984 0.7581 0.0
C617 C 0.73585 0.74967 0.7648 0.0
C618 C 0.77914 0.75404 0.74048 0.0
C619 C 0.8117 0.82401 0.71214 0.0
H620 H 0.82791 0.78113 0.65459 0.0
C621 C 0.85471 0.87409 0.61776 0.0
C622 C 0.87871 0.86877 0.6076 0.0
C623 C 0.84068 0.85945 0.63858 0.0
C624 C 0.82396 0.79338 0.6708 0.0
H625 H 0.71644 0.78119 0.75734 0.0
H626 H 0.7523 0.80572 0.72685 0.0
H627 H 0.79708 0.75533 0.68829 0.0
H628 H 0.90675 0.8438 0.61117 0.0
H629 H 0.88191 0.81789 0.64769 0.0
H630 H 0.83768 0.86193 0.69429 0.0
C631 C 0.7547 0.78765 0.73569 0.0
C632 C 0.80636 0.77863 0.6901 0.0
C633 C 0.7341 0.77355 0.75318 0.0
C634 C 0.88839 0.84841 0.61872 0.0
C635 C 0.87408 0.83348 0.63945 0.0
C636 C 0.82908 0.83867 0.69285 0.0
C637 C 0.77765 0.77827 0.72927 0.0
C638 C 0.79938 0.79377 0.71059 0.0
C639 C 0.85019 0.83901 0.64966 0.0
C640 C 0.83477 0.82349 0.67163 0.0
H641 H 0.76028 0.7215 0.76678 0.0
H642 H 0.79663 0.74635 0.73595 0.0
H643 H 0.8074 0.83637 0.72804 0.0
H644 H 0.84698 0.88988 0.6098 0.0
H645 H 0.82208 0.86392 0.64583 0.0
C646 C 0.72518 0.18344 0.28146 0.0
C647 C 0.70726 0.18464 0.30158 0.0
C648 C 0.71046 0.17047 0.25568 0.0
C649 C 0.63414 0.11826 0.21963 0.0
H650 H 0.66481 0.15336 0.15649 0.0
C651 C 0.55871 0.08023 0.11709 0.0
C652 C 0.57301 0.07557 0.09545 0.0
C653 C 0.57678 0.09468 0.14134 0.0
C654 C 0.65619 0.14318 0.17395 0.0
H655 H 0.65983 0.17279 0.31043 0.0
H656 H 0.63432 0.15083 0.26558 0.0
H657 H 0.6935 0.17593 0.20085 0.0
H658 H 0.61778 0.08363 0.08207 0.0
H659 H 0.64944 0.10895 0.12468 0.0
H660 H 0.59677 0.0857 0.19296 0.0
C661 C 0.65971 0.15965 0.26969 0.0
C662 C 0.67262 0.15605 0.19933 0.0
C663 C 0.67437 0.17259 0.29535 0.0
C664 C 0.606 0.08682 0.09833 0.0
C665 C 0.62415 0.10137 0.12271 0.0
C666 C 0.61776 0.10548 0.19438 0.0
C667 C 0.67752 0.15828 0.24957 0.0
C668 C 0.66148 0.14393 0.22247 0.0
C669 C 0.60964 0.10485 0.14464 0.0
C670 C 0.62829 0.118 0.17126 0.0
H671 H 0.75058 0.19272 0.28559 0.0
H672 H 0.72482 0.16959 0.24066 0.0
H673 H 0.62534 0.10798 0.237 0.0
H674 H 0.5334 0.07223 0.11557 0.0
H675 H 0.56494 0.0976 0.15767 0.0
C676 C 0.46703 0.69504 0.31959 0.0
C677 C 0.44049 0.68379 0.29983 0.0
C678 C 0.47136 0.67825 0.33949 0.0
C679 C 0.4282 0.61329 0.37272 0.0
H680 H 0.51092 0.615 0.39346 0.0
C681 C 0.44964 0.53042 0.438 0.0
C682 C 0.47717 0.54049 0.45666 0.0
C683 C 0.44444 0.54851 0.41984 0.0
C684 C 0.48771 0.61451 0.3882 0.0
H685 H 0.39761 0.64595 0.28551 0.0
H686 H 0.40527 0.6168 0.31987 0.0
H687 H 0.50368 0.64564 0.36028 0.0
H688 H 0.52056 0.57757 0.47124 0.0
H689 H 0.51122 0.60916 0.44018 0.0
H690 H 0.41221 0.58206 0.40059 0.0
C691 C 0.42261 0.6387 0.32031 0.0
C692 C 0.48357 0.63213 0.36913 0.0
C693 C 0.41833 0.65542 0.30044 0.0
C694 C 0.49904 0.56915 0.45716 0.0
C695 C 0.49383 0.58721 0.43913 0.0
C696 C 0.43234 0.59568 0.39183 0.0
C697 C 0.44916 0.64984 0.34011 0.0
C698 C 0.45374 0.63169 0.36104 0.0
C699 C 0.46669 0.57706 0.41995 0.0
C700 C 0.46215 0.59601 0.3998 0.0
H701 H 0.48443 0.71684 0.31965 0.0
H702 H 0.49193 0.68765 0.35457 0.0
H703 H 0.40496 0.61268 0.36728 0.0
H704 H 0.43244 0.5084 0.43706 0.0
H705 H 0.4234 0.53985 0.40522 0.0
C706 C 0.18073 0.43044 0.8067 0.0
C707 C 0.16267 0.4056 0.7891 0.0
C708 C 0.16742 0.43972 0.82659 0.0
C709 C 0.09092 0.4335 0.84457 0.0
H710 H 0.13861 0.46416 0.9151 0.0
C711 C 0.05013 0.49272 0.92211 0.0
C712 C 0.05381 0.48731 0.94897 0.0
C713 C 0.06335 0.4822 0.90304 0.0
C714 C 0.12486 0.45545 0.89559 0.0
H715 H 0.11636 0.37089 0.77857 0.0
H716 H 0.09316 0.38693 0.81332 0.0
H717 H 0.16147 0.44632 0.88127 0.0
H718 H 0.0745 0.46658 0.9768 0.0
H719 H 0.09743 0.44807 0.94345 0.0
H720 H 0.05416 0.44227 0.85895 0.0
C721 C 0.11759 0.39947 0.81163 0.0
C722 C 0.13812 0.44552 0.87607 0.0
C723 C 0.13094 0.39017 0.79177 0.0
C724 C 0.07122 0.4712 0.95631 0.0
C725 C 0.08451 0.46071 0.9372 0.0
C726 C 0.07771 0.44349 0.86405 0.0
C727 C 0.13565 0.42438 0.8293 0.0
C728 C 0.12136 0.4345 0.85027 0.0
C729 C 0.08065 0.46599 0.91029 0.0
C730 C 0.09454 0.45472 0.88978 0.0
H731 H 0.20523 0.44278 0.80505 0.0
H732 H 0.18193 0.4592 0.83957 0.0
H733 H 0.07743 0.42542 0.82488 0.0
H734 H 0.03698 0.50512 0.91571 0.0
H735 H 0.0603 0.48709 0.88262 0.0
C736 C 0.64302 0.7534 0.83611 0.0
C737 C 0.67451 0.75768 0.83645 0.0
C738 C 0.63543 0.77319 0.85059 0.0
C739 C 0.66656 0.83387 0.90428 0.0
H740 H 0.60845 0.85916 0.86431 0.0
C741 C 0.65186 0.93702 0.93888 0.0
C742 C 0.62118 0.93566 0.93589 0.0
C743 C 0.65786 0.91441 0.92773 0.0
C744 C 0.6244 0.85211 0.87591 0.0
H745 H 0.72258 0.78497 0.85346 0.0
H746 H 0.70938 0.81964 0.87855 0.0
H747 H 0.61887 0.81995 0.8446 0.0
H748 H 0.57289 0.90981 0.91826 0.0
H749 H 0.58322 0.87022 0.89937 0.0
H750 H 0.6722 0.86622 0.93555 0.0
C751 C 0.69054 0.80102 0.86716 0.0
C752 C 0.63032 0.82958 0.86463 0.0
C753 C 0.69812 0.78131 0.85262 0.0
C754 C 0.59674 0.91138 0.92122 0.0
C755 C 0.60272 0.88881 0.91014 0.0
C756 C 0.66056 0.85639 0.91562 0.0
C757 C 0.65918 0.79756 0.86577 0.0
C758 C 0.65158 0.8203 0.87862 0.0
C759 C 0.63332 0.88999 0.91332 0.0
C760 C 0.63952 0.86586 0.9015 0.0
H761 H 0.62434 0.73547 0.82372 0.0
H762 H 0.61101 0.76975 0.84943 0.0
H763 H 0.68284 0.82701 0.91564 0.0
H764 H 0.67115 0.95531 0.95025 0.0
H765 H 0.68177 0.91616 0.93025 0.0
C766 C 0.85087 0.1756 0.37171 0.0
C767 C 0.82474 0.17599 0.38234 0.0
C768 C 0.8677 0.16079 0.38325 0.0
C769 C 0.87945 0.12682 0.44492 0.0
H770 H 0.91565 0.08945 0.3987 0.0
C771 C 0.93154 0.04658 0.48016 0.0
C772 C 0.96182 0.05231 0.47412 0.0
C773 C 0.91448 0.06139 0.46896 0.0
C774 C 0.90578 0.0999 0.41184 0.0
H775 H 0.79537 0.16097 0.41322 0.0
H776 H 0.82393 0.13424 0.43283 0.0
H777 H 0.88629 0.11561 0.37937 0.0
H778 H 0.99766 0.07767 0.45114 0.0
H779 H 0.96749 0.103 0.43112 0.0
H780 H 0.89833 0.11018 0.47727 0.0
C781 C 0.83219 0.14607 0.41609 0.0
C782 C 0.88909 0.11509 0.40082 0.0
C783 C 0.81567 0.16129 0.40476 0.0
C784 C 0.97442 0.07279 0.45625 0.0
C785 C 0.95714 0.08721 0.4447 0.0
C786 C 0.89573 0.11123 0.45586 0.0
C787 C 0.85843 0.14554 0.40545 0.0
C788 C 0.87585 0.12896 0.41722 0.0
C789 C 0.92712 0.08184 0.45112 0.0
C790 C 0.90921 0.09778 0.43944 0.0
H791 H 0.85837 0.18686 0.35445 0.0
H792 H 0.88812 0.16149 0.37479 0.0
H793 H 0.87015 0.13757 0.45831 0.0
H794 H 0.92121 0.03104 0.49394 0.0
H795 H 0.8913 0.05672 0.4741 0.0
C796 C 0.30406 0.66177 0.19152 0.0
C797 C 0.33119 0.67906 0.18113 0.0
C798 C 0.27607 0.64571 0.17442 0.0
C799 C 0.23641 0.64455 0.10712 0.0
H800 H 0.1806 0.56692 0.11789 0.0
C801 C 0.12814 0.57855 0.03043 0.0
C802 C 0.09998 0.56402 0.04056 0.0
C803 C 0.1567 0.59009 0.04748 0.0
C804 C 0.19586 0.58866 0.11477 0.0
H805 H 0.35069 0.69196 0.14466 0.0
H806 H 0.30201 0.664 0.11489 0.0
H807 H 0.22995 0.59201 0.14819 0.0
H808 H 0.07958 0.54882 0.07613 0.0
H809 H 0.12957 0.56935 0.1061 0.0
H810 H 0.20243 0.64149 0.07397 0.0
C811 C 0.30211 0.66331 0.13625 0.0
C812 C 0.22408 0.60302 0.13211 0.0
C813 C 0.32999 0.67934 0.1533 0.0
C814 C 0.10098 0.56013 0.06786 0.0
C815 C 0.1296 0.57172 0.08496 0.0
C816 C 0.2083 0.63025 0.08985 0.0
C817 C 0.27472 0.64662 0.14661 0.0
C818 C 0.24469 0.6311 0.1284 0.0
C819 C 0.1577 0.58737 0.07503 0.0
C820 C 0.18773 0.60212 0.09339 0.0
H821 H 0.30424 0.66128 0.2129 0.0
H822 H 0.25529 0.63326 0.18302 0.0
H823 H 0.25144 0.66639 0.10404 0.0
H824 H 0.12806 0.58154 0.00939 0.0
H825 H 0.178 0.6015 0.03912 0.0
C826 C 0.24229 0.40888 0.67955 0.0
C827 C 0.23765 0.38145 0.68723 0.0
C828 C 0.26632 0.42323 0.66461 0.0
C829 C 0.31046 0.40656 0.61636 0.0
H830 H 0.36903 0.48674 0.63046 0.0
C831 C 0.41771 0.45246 0.56138 0.0
C832 C 0.42858 0.48118 0.55536 0.0
C833 C 0.39369 0.44158 0.57699 0.0
C834 C 0.35252 0.46444 0.62594 0.0
H835 H 0.25623 0.34872 0.68708 0.0
H836 H 0.29759 0.37346 0.66076 0.0
H837 H 0.32941 0.46627 0.65984 0.0
H838 H 0.42209 0.52085 0.5607 0.0
H839 H 0.37944 0.50159 0.58732 0.0
H840 H 0.33277 0.40454 0.58232 0.0
C841 C 0.28236 0.38365 0.66587 0.0
C842 C 0.32994 0.45272 0.64288 0.0
C843 C 0.25865 0.36949 0.68094 0.0
C844 C 0.41433 0.49862 0.56496 0.0
C845 C 0.39003 0.48763 0.58043 0.0
C846 C 0.33267 0.41829 0.5993 0.0
C847 C 0.28596 0.4103 0.65694 0.0
C848 C 0.30904 0.42352 0.6385 0.0
C849 C 0.37954 0.459 0.58684 0.0
C850 C 0.35441 0.44726 0.60407 0.0
H851 H 0.22645 0.41862 0.68395 0.0
H852 H 0.2686 0.44378 0.65799 0.0
H853 H 0.29421 0.38412 0.61216 0.0
H854 H 0.4283 0.43844 0.55464 0.0
H855 H 0.38681 0.41964 0.58189 0.0
C856 C 0.71005 0.65644 0.82622 0.0
C857 C 0.69768 0.64216 0.80035 0.0
C858 C 0.73688 0.65518 0.84 0.0
C859 C 0.80588 0.64052 0.8311 0.0
H860 H 0.80224 0.61963 0.90365 0.0
C861 C 0.89527 0.60297 0.88466 0.0
C862 C 0.90517 0.61108 0.9122 0.0
C863 C 0.87108 0.60881 0.87148 0.0
C864 C 0.80393 0.62597 0.88359 0.0
H865 H 0.70354 0.61555 0.76859 0.0
H866 H 0.75075 0.61353 0.79261 0.0
H867 H 0.75851 0.62695 0.87955 0.0
H868 H 0.89774 0.6319 0.94751 0.0
H869 H 0.8557 0.64261 0.92439 0.0
H870 H 0.8513 0.63973 0.83507 0.0
C871 C 0.73984 0.62587 0.80211 0.0
C872 C 0.77881 0.63009 0.86977 0.0
C873 C 0.71281 0.6269 0.78843 0.0
C874 C 0.89036 0.62517 0.92631 0.0
C875 C 0.86626 0.63125 0.91306 0.0
C876 C 0.83112 0.63666 0.84498 0.0
C877 C 0.75193 0.63973 0.82816 0.0
C878 C 0.77938 0.63706 0.84328 0.0
C879 C 0.85631 0.62311 0.88546 0.0
C880 C 0.83028 0.62895 0.87128 0.0
H881 H 0.69856 0.66789 0.8362 0.0
H882 H 0.74577 0.66614 0.86001 0.0
H883 H 0.80711 0.64627 0.81082 0.0
H884 H 0.90592 0.59164 0.87336 0.0
H885 H 0.86359 0.60162 0.85037 0.0
C886 C 0.4543 0.77987 0.19523 0.0
C887 C 0.42446 0.77228 0.20287 0.0
C888 C 0.46757 0.80445 0.18187 0.0
C889 C 0.46 0.87156 0.16288 0.0
H890 H 0.49153 0.85635 0.09898 0.0
C891 C 0.48342 0.94728 0.07762 0.0
C892 C 0.51005 0.95126 0.06542 0.0
C893 C 0.47382 0.92675 0.096 0.0
C894 C 0.48323 0.86122 0.1169 0.0
H895 H 0.3861 0.78537 0.20437 0.0
H896 H 0.40924 0.82827 0.1814 0.0
H897 H 0.47615 0.82014 0.13018 0.0
H898 H 0.54764 0.9372 0.06305 0.0
H899 H 0.5314 0.90211 0.09506 0.0
H900 H 0.46697 0.91267 0.14939 0.0
C901 C 0.42252 0.81543 0.18559 0.0
C902 C 0.47449 0.84041 0.13489 0.0
C903 C 0.40922 0.79082 0.19874 0.0
C904 C 0.52687 0.9345 0.07196 0.0
C905 C 0.51742 0.9142 0.09026 0.0
C906 C 0.46891 0.8925 0.14489 0.0
C907 C 0.45131 0.82197 0.17608 0.0
C908 C 0.46269 0.84523 0.1581 0.0
C909 C 0.49069 0.90986 0.10248 0.0
C910 C 0.48064 0.88759 0.12163 0.0
H911 H 0.46641 0.76582 0.19796 0.0
H912 H 0.49003 0.80914 0.17518 0.0
H913 H 0.45113 0.87604 0.18062 0.0
H914 H 0.47004 0.95992 0.07294 0.0
H915 H 0.45295 0.92383 0.10483 0.0
C916 C 0.14522 0.27888 0.66079 0.0
C917 C 0.14672 0.28697 0.6881 0.0
C918 C 0.13107 0.24996 0.65043 0.0
C919 C 0.07187 0.18046 0.65484 0.0
H920 H 0.12585 0.15018 0.62399 0.0
C921 C 0.02308 0.06306 0.6049 0.0
C922 C 0.03517 0.05863 0.58178 0.0
C923 C 0.03728 0.08947 0.62094 0.0
C924 C 0.11025 0.15827 0.63216 0.0
H925 H 0.13298 0.2706 0.72559 0.0
H926 H 0.10685 0.21994 0.70693 0.0
H927 H 0.14794 0.19942 0.64544 0.0
H928 H 0.07224 0.07771 0.55796 0.0
H929 H 0.09601 0.12406 0.58473 0.0
H930 H 0.03377 0.14011 0.64027 0.0
C931 C 0.11735 0.2363 0.69388 0.0
C932 C 0.12305 0.18642 0.64466 0.0
C933 C 0.13215 0.26531 0.70446 0.0
C934 C 0.06216 0.08071 0.57541 0.0
C935 C 0.07606 0.10721 0.59111 0.0
C936 C 0.05886 0.15242 0.64181 0.0
C937 C 0.11734 0.22842 0.66692 0.0
C938 C 0.10393 0.19784 0.65581 0.0
C939 C 0.06371 0.11213 0.61403 0.0
C940 C 0.07781 0.14106 0.62991 0.0
H941 H 0.15521 0.29488 0.64731 0.0
H942 H 0.13088 0.24436 0.62946 0.0
H943 H 0.05668 0.18896 0.6632 0.0
H944 H 1.00239 0.04626 0.6104 0.0
H945 H 0.02742 0.09212 0.63868 0.0
C946 C 0.72894 0.26979 0.39948 0.0
C947 C 0.70968 0.24323 0.38468 0.0
C948 C 0.71562 0.28651 0.41172 0.0
C949 C 0.64222 0.28232 0.43489 0.0
H950 H 0.67159 0.36292 0.42283 0.0
C951 C 0.56782 0.34663 0.44904 0.0
C952 C 0.5828 0.37576 0.45946 0.0
C953 C 0.58531 0.33119 0.44274 0.0
C954 C 0.66342 0.34058 0.4268 0.0
H955 H 0.66151 0.21283 0.37195 0.0
H956 H 0.63832 0.24186 0.39327 0.0
H957 H 0.69892 0.33446 0.40745 0.0
H958 H 0.62812 0.41143 0.47154 0.0
H959 H 0.65875 0.38423 0.46106 0.0
H960 H 0.60661 0.28823 0.45403 0.0
C961 C 0.66366 0.24985 0.39544 0.0
C962 C 0.67909 0.32428 0.41797 0.0
C963 C 0.67693 0.23334 0.38303 0.0
C964 C 0.61582 0.38897 0.46373 0.0
C965 C 0.63338 0.37346 0.45745 0.0
C966 C 0.62668 0.29862 0.44384 0.0
C967 C 0.68281 0.27676 0.40969 0.0
C968 C 0.66827 0.29483 0.42145 0.0
C969 C 0.61831 0.34437 0.44683 0.0
C970 C 0.63666 0.32781 0.43942 0.0
H971 H 0.75425 0.27798 0.40097 0.0
H972 H 0.73095 0.30708 0.42272 0.0
H973 H 0.63365 0.25979 0.43828 0.0
H974 H 0.54245 0.33561 0.44585 0.0
H975 H 0.57287 0.30896 0.43424 0.0
loop_
_geom_bond_atom_site_label_1
_geom_bond_atom_site_label_2
_geom_bond_distance
_geom_bond_site_symmetry_2
_ccdc_geom_bond_type
H0 C5 0.930 . S
H1 C8 0.930 . S
H2 C10 0.930 . S
H3 C4 1.016 . S
C4 H3 1.016 . S
C4 N11 1.286 . S
C5 H0 0.930 . S
C5 C6 1.397 . S
C5 C7 1.361 . S
C6 C5 1.397 . S
C6 C10 1.390 . S
C7 C5 1.361 . S
C7 C8 1.393 . S
C7 N11 1.413 . S
C8 H1 0.930 . S
C8 C7 1.393 . S
C8 C9 1.399 . S
C9 C8 1.399 . S
C9 C10 1.381 . S
C10 H2 0.930 . S
C10 C6 1.390 . S
C10 C9 1.381 . S
N11 C4 1.286 . S
N11 C7 1.413 . S
H12 C17 0.930 . S
H13 C20 0.930 . S
H14 C22 0.930 . S
H15 C16 1.016 . S
C16 H15 1.016 . S
C16 N23 1.286 . S
C17 H12 0.930 . S
C17 C18 1.397 . S
C17 C19 1.361 . S
C18 C17 1.397 . S
C18 C22 1.390 . S
C19 C17 1.361 . S
C19 C20 1.393 . S
C19 N23 1.413 . S
C20 H13 0.930 . S
C20 C19 1.393 . S
C20 C21 1.399 . S
C21 C20 1.399 . S
C21 C22 1.381 . S
C22 H14 0.930 . S
C22 C18 1.390 . S
C22 C21 1.381 . S
N23 C16 1.286 . S
N23 C19 1.413 . S
H24 C29 0.930 . S
H25 C32 0.930 . S
H26 C34 0.930 . S
H27 C28 1.016 . S
C28 H27 1.016 . S
C28 N35 1.286 . S
C29 H24 0.930 . S
C29 C30 1.397 . S
C29 C31 1.361 . S
C30 C29 1.397 . S
C30 C34 1.390 . S
C31 C29 1.361 . S
C31 C32 1.393 . S
C31 N35 1.413 . S
C32 H25 0.930 . S
C32 C31 1.393 . S
C32 C33 1.399 . S
C33 C32 1.399 . S
C33 C34 1.381 . S
C34 H26 0.930 . S
C34 C30 1.390 . S
C34 C33 1.381 . S
N35 C28 1.286 . S
N35 C31 1.413 . S
H36 C41 0.930 . S
H37 C44 0.930 . S
H38 C46 0.930 . S
H39 C40 1.016 . S
C40 H39 1.016 . S
C40 N47 1.286 . S
C41 H36 0.930 . S
C41 C42 1.397 . S
C41 C43 1.361 . S
C42 C41 1.397 . S
C42 C46 1.390 . S
C43 C41 1.361 . S
C43 C44 1.393 . S
C43 N47 1.413 . S
C44 H37 0.930 . S
C44 C43 1.393 . S
C44 C45 1.399 . S
C45 C44 1.399 . S
C45 C46 1.381 . S
C46 H38 0.930 . S
C46 C42 1.390 . S
C46 C45 1.381 . S
N47 C40 1.286 . S
N47 C43 1.413 . S
H48 C53 0.930 . S
H49 C56 0.930 . S
H50 C58 0.930 . S
H51 C52 1.016 . S
C52 H51 1.016 . S
C52 N59 1.286 . S
C53 H48 0.930 . S
C53 C54 1.397 . S
C53 C55 1.361 . S
C54 C53 1.397 . S
C54 C58 1.390 . S
C55 C53 1.361 . S
C55 C56 1.393 . S
C55 N59 1.413 . S
C56 H49 0.930 . S
C56 C55 1.393 . S
C56 C57 1.399 . S
C57 C56 1.399 . S
C57 C58 1.381 . S
C58 H50 0.930 . S
C58 C54 1.390 . S
C58 C57 1.381 . S
N59 C52 1.286 . S
N59 C55 1.413 . S
H60 C65 0.930 . S
H61 C68 0.930 . S
H62 C70 0.930 . S
H63 C64 1.016 . S
C64 H63 1.016 . S
C64 N71 1.286 . S
C65 H60 0.930 . S
C65 C66 1.397 . S
C65 C67 1.361 . S
C66 C65 1.397 . S
C66 C70 1.390 . S
C67 C65 1.361 . S
C67 C68 1.393 . S
C67 N71 1.413 . S
C68 H61 0.930 . S
C68 C67 1.393 . S
C68 C69 1.399 . S
C69 C68 1.399 . S
C69 C70 1.381 . S
C70 H62 0.930 . S
C70 C66 1.390 . S
C70 C69 1.381 . S
N71 C64 1.286 . S
N71 C67 1.413 . S
H72 C77 0.930 . S
H73 C80 0.930 . S
H74 C82 0.930 . S
H75 C76 1.016 . S
C76 H75 1.016 . S
C76 N83 1.286 . S
C77 H72 0.930 . S
C77 C78 1.397 . S
C77 C79 1.361 . S
C78 C77 1.397 . S
C78 C82 1.390 . S
C79 C77 1.361 . S
C79 C80 1.393 . S
C79 N83 1.413 . S
C80 H73 0.930 . S
C80 C79 1.393 . S
C80 C81 1.399 . S
C81 C80 1.399 . S
C81 C82 1.381 . S
C82 H74 0.930 . S
C82 C78 1.390 . S
C82 C81 1.381 . S
N83 C76 1.286 . S
N83 C79 1.413 . S
H84 C89 0.930 . S
H85 C92 0.930 . S
H86 C94 0.930 . S
H87 C88 1.016 . S
C88 H87 1.016 . S
C88 N95 1.286 . S
C89 H84 0.930 . S
C89 C90 1.397 . S
C89 C91 1.361 . S
C90 C89 1.397 . S
C90 C94 1.390 . S
C91 C89 1.361 . S
C91 C92 1.393 . S
C91 N95 1.413 . S
C92 H85 0.930 . S
C92 C91 1.393 . S
C92 C93 1.399 . S
C93 C92 1.399 . S
C93 C94 1.381 . S
C94 H86 0.930 . S
C94 C90 1.390 . S
C94 C93 1.381 . S
N95 C88 1.286 . S
N95 C91 1.413 . S
Pr96 C98 2.880 . S
Pr96 O116 2.562 . S
Pr96 O117 2.490 . S
Pr96 O118 2.695 1_665 S
Pr96 O119 2.512 1_665 S
Pr96 O121 2.437 1_655 S
Pr96 O124 2.436 . S
Pr96 O126 2.438 1_565 S
Pr97 C107 2.880 . S
Pr97 O118 2.436 . S
Pr97 O120 2.438 1_545 S
Pr97 O122 2.562 . S
Pr97 O123 2.490 . S
Pr97 O124 2.695 1_445 S
Pr97 O125 2.512 1_445 S
Pr97 O127 2.437 1_455 S
C98 Pr96 2.880 . S
C98 C99 1.491 . S
C98 O116 1.254 . S
C98 O117 1.225 . S
C99 C98 1.491 . S
C99 C100 1.392 . S
C99 C104 1.356 . S
C100 C99 1.392 . S
C100 C101 1.368 . S
C100 H128 0.929 . S
C101 C100 1.368 . S
C101 C102 1.386 . S
C101 H129 0.929 . S
C102 C101 1.386 . S
C102 C103 1.373 . S
C103 C102 1.373 . S
C103 C104 1.409 . S
C103 H130 0.931 . S
C104 C99 1.356 . S
C104 C103 1.409 . S
C104 H131 0.930 . S
C105 O118 1.270 . S
C105 O119 1.248 . S
C106 O120 1.267 . S
C106 O121 1.278 . S
C107 Pr97 2.880 . S
C107 C108 1.491 . S
C107 O122 1.254 . S
C107 O123 1.225 . S
C108 C107 1.491 . S
C108 C109 1.392 . S
C108 C113 1.356 . S
C109 C108 1.392 . S
C109 C110 1.368 . S
C109 H132 0.929 . S
C110 C109 1.368 . S
C110 C111 1.386 . S
C110 H133 0.929 . S
C111 C110 1.386 . S
C111 C112 1.373 . S
C112 C111 1.373 . S
C112 C113 1.409 . S
C112 H134 0.931 . S
C113 C108 1.356 . S
C113 C112 1.409 . S
C113 H135 0.930 . S
C114 O124 1.270 . S
C114 O125 1.248 . S
C115 O126 1.267 . S
C115 O127 1.278 . S
O116 Pr96 2.562 . S
O116 C98 1.254 . S
O117 Pr96 2.490 . S
O117 C98 1.225 . S
O118 Pr96 2.695 1_445 S
O118 Pr97 2.436 . S
O118 C105 1.270 . S
O119 Pr96 2.512 1_445 S
O119 C105 1.248 . S
O120 Pr97 2.438 1_565 S
O120 C106 1.267 . S
O121 Pr96 2.437 1_455 S
O121 C106 1.278 . S
O122 Pr97 2.562 . S
O122 C107 1.254 . S
O123 Pr97 2.490 . S
O123 C107 1.225 . S
O124 Pr96 2.436 . S
O124 Pr97 2.695 1_665 S
O124 C114 1.270 . S
O125 Pr97 2.512 1_665 S
O125 C114 1.248 . S
O126 Pr96 2.438 1_545 S
O126 C115 1.267 . S
O127 Pr97 2.437 1_655 S
O127 C115 1.278 . S
H128 C100 0.929 . S
H129 C101 0.929 . S
H130 C103 0.931 . S
H131 C104 0.930 . S
H132 C109 0.929 . S
H133 C110 0.929 . S
H134 C112 0.931 . S
H135 C113 0.930 . S
Pr136 C138 2.880 . S
Pr136 O156 2.562 . S
Pr136 O157 2.490 . S
Pr136 O158 2.695 1_554 S
Pr136 O159 2.512 1_554 S
Pr136 O161 2.437 . S
Pr136 O164 2.436 1_545 S
Pr136 O166 2.438 1_544 S
Pr137 C147 2.880 1_554 S
Pr137 O158 2.436 1_564 S
Pr137 O160 2.438 1_565 S
Pr137 O162 2.562 1_554 S
Pr137 O163 2.490 1_554 S
Pr137 O164 2.695 . S
Pr137 O165 2.512 . S
Pr137 O167 2.437 1_554 S
C138 Pr136 2.880 . S
C138 C139 1.491 . S
C138 O156 1.254 . S
C138 O157 1.225 . S
C139 C138 1.491 . S
C139 C140 1.392 . S
C139 C144 1.356 . S
C140 C139 1.392 . S
C140 C141 1.368 . S
C140 H168 0.929 . S
C141 C140 1.368 . S
C141 C142 1.386 . S
C141 H169 0.929 . S
C142 C141 1.386 . S
C142 C143 1.373 . S
C143 C142 1.373 . S
C143 C144 1.409 . S
C143 H170 0.931 . S
C144 C139 1.356 . S
C144 C143 1.409 . S
C144 H171 0.930 . S
C145 O158 1.270 . S
C145 O159 1.248 . S
C146 O160 1.267 . S
C146 O161 1.278 . S
C147 Pr137 2.880 1_556 S
C147 C148 1.491 . S
C147 O162 1.254 . S
C147 O163 1.225 . S
C148 C147 1.491 . S
C148 C149 1.392 . S
C148 C153 1.356 . S
C149 C148 1.392 . S
C149 C150 1.368 . S
C149 H172 0.929 . S
C150 C149 1.368 . S
C150 C151 1.386 . S
C150 H173 0.929 . S
C151 C150 1.386 . S
C151 C152 1.373 . S
C152 C151 1.373 . S
C152 C153 1.409 . S
C152 H174 0.931 . S
C153 C148 1.356 . S
C153 C152 1.409 . S
C153 H175 0.930 . S
C154 O164 1.270 . S
C154 O165 1.248 . S
C155 O166 1.267 . S
C155 O167 1.278 . S
O156 Pr136 2.562 . S
O156 C138 1.254 . S
O157 Pr136 2.490 . S
O157 C138 1.225 . S
O158 Pr136 2.695 1_556 S
O158 Pr137 2.436 1_546 S
O158 C145 1.270 . S
O159 Pr136 2.512 1_556 S
O159 C145 1.248 . S
O160 Pr137 2.438 1_545 S
O160 C146 1.267 . S
O161 Pr136 2.437 . S
O161 C146 1.278 . S
O162 Pr137 2.562 1_556 S
O162 C147 1.254 . S
O163 Pr137 2.490 1_556 S
O163 C147 1.225 . S
O164 Pr136 2.436 1_565 S
O164 Pr137 2.695 . S
O164 C154 1.270 . S
O165 Pr137 2.512 . S
O165 C154 1.248 . S
O166 Pr136 2.438 1_566 S
O166 C155 1.267 . S
O167 Pr137 2.437 1_556 S
O167 C155 1.278 . S
H168 C140 0.929 . S
H169 C141 0.929 . S
H170 C143 0.931 . S
H171 C144 0.930 . S
H172 C149 0.929 . S
H173 C150 0.929 . S
H174 C152 0.931 . S
H175 C153 0.930 . S
Pr176 C178 2.880 . S
Pr176 O196 2.562 . S
Pr176 O197 2.490 . S
Pr176 O198 2.695 . S
Pr176 O199 2.512 . S
Pr176 O201 2.437 . S
Pr176 O204 2.436 . S
Pr176 O206 2.438 . S
Pr177 C187 2.880 . S
Pr177 O198 2.436 . S
Pr177 O200 2.438 . S
Pr177 O202 2.562 . S
Pr177 O203 2.490 . S
Pr177 O204 2.695 . S
Pr177 O205 2.512 . S
Pr177 O207 2.437 . S
C178 Pr176 2.880 . S
C178 C179 1.491 . S
C178 O196 1.254 . S
C178 O197 1.225 . S
C179 C178 1.491 . S
C179 C180 1.392 . S
C179 C184 1.356 . S
C180 C179 1.392 . S
C180 C181 1.368 . S
C180 H208 0.929 . S
C181 C180 1.368 . S
C181 C182 1.386 . S
C181 H209 0.929 . S
C182 C181 1.386 . S
C182 C183 1.373 . S
C183 C182 1.373 . S
C183 C184 1.409 . S
C183 H210 0.931 . S
C184 C179 1.356 . S
C184 C183 1.409 . S
C184 H211 0.930 . S
C185 O198 1.270 . S
C185 O199 1.248 . S
C186 O200 1.267 . S
C186 O201 1.278 . S
C187 Pr177 2.880 . S
C187 C188 1.491 . S
C187 O202 1.254 . S
C187 O203 1.225 . S
C188 C187 1.491 . S
C188 C189 1.392 . S
C188 C193 1.356 . S
C189 C188 1.392 . S
C189 C190 1.368 . S
C189 H212 0.929 . S
C190 C189 1.368 . S
C190 C191 1.386 . S
C190 H213 0.929 . S
C191 C190 1.386 . S
C191 C192 1.373 . S
C192 C191 1.373 . S
C192 C193 1.409 . S
C192 H214 0.931 . S
C193 C188 1.356 . S
C193 C192 1.409 . S
C193 H215 0.930 . S
C194 O204 1.270 . S
C194 O205 1.248 . S
C195 O206 1.267 . S
C195 O207 1.278 . S
O196 Pr176 2.562 . S
O196 C178 1.254 . S
O197 Pr176 2.490 . S
O197 C178 1.225 . S
O198 Pr176 2.695 . S
O198 Pr177 2.436 . S
O198 C185 1.270 . S
O199 Pr176 2.512 . S
O199 C185 1.248 . S
O200 Pr177 2.438 . S
O200 C186 1.267 . S
O201 Pr176 2.437 . S
O201 C186 1.278 . S
O202 Pr177 2.562 . S
O202 C187 1.254 . S
O203 Pr177 2.490 . S
O203 C187 1.225 . S
O204 Pr176 2.436 . S
O204 Pr177 2.695 . S
O204 C194 1.270 . S
O205 Pr177 2.512 . S
O205 C194 1.248 . S
O206 Pr176 2.438 . S
O206 C195 1.267 . S
O207 Pr177 2.437 . S
O207 C195 1.278 . S
H208 C180 0.929 . S
H209 C181 0.929 . S
H210 C183 0.931 . S
H211 C184 0.930 . S
H212 C189 0.929 . S
H213 C190 0.929 . S
H214 C192 0.931 . S
H215 C193 0.930 . S
Pr216 C218 2.880 1_455 S
Pr216 O236 2.562 1_455 S
Pr216 O237 2.490 . S
Pr216 O238 2.695 1_556 S
Pr216 O239 2.512 1_556 S
Pr216 O241 2.437 1_456 S
Pr216 O244 2.436 1_455 S
Pr216 O246 2.438 . S
Pr217 C227 2.880 . S
Pr217 O238 2.436 . S
Pr217 O240 2.438 1_455 S
Pr217 O242 2.562 . S
Pr217 O243 2.490 . S
Pr217 O244 2.695 1_454 S
Pr217 O245 2.512 1_454 S
Pr217 O247 2.437 1_554 S
C218 Pr216 2.880 1_655 S
C218 C219 1.491 . S
C218 O236 1.254 . S
C218 O237 1.225 1_655 S
C219 C218 1.491 . S
C219 C220 1.392 . S
C219 C224 1.356 . S
C220 C219 1.392 . S
C220 C221 1.368 . S
C220 H248 0.929 1_655 S
C221 C220 1.368 . S
C221 C222 1.386 . S
C221 H249 0.929 . S
C222 C221 1.386 . S
C222 C223 1.373 . S
C223 C222 1.373 . S
C223 C224 1.409 . S
C223 H250 0.931 . S
C224 C219 1.356 . S
C224 C223 1.409 . S
C224 H251 0.930 . S
C225 O238 1.270 . S
C225 O239 1.248 . S
C226 O240 1.267 . S
C226 O241 1.278 . S
C227 Pr217 2.880 . S
C227 C228 1.491 . S
C227 O242 1.254 . S
C227 O243 1.225 . S
C228 C227 1.491 . S
C228 C229 1.392 . S
C228 C233 1.356 . S
C229 C228 1.392 . S
C229 C230 1.368 . S
C229 H252 0.929 . S
C230 C229 1.368 . S
C230 C231 1.386 . S
C230 H253 0.929 . S
C231 C230 1.386 . S
C231 C232 1.373 . S
C232 C231 1.373 . S
C232 C233 1.409 . S
C232 H254 0.931 . S
C233 C228 1.356 . S
C233 C232 1.409 . S
C233 H255 0.930 . S
C234 O244 1.270 . S
C234 O245 1.248 . S
C235 O246 1.267 . S
C235 O247 1.278 . S
O236 Pr216 2.562 1_655 S
O236 C218 1.254 . S
O237 Pr216 2.490 . S
O237 C218 1.225 1_455 S
O238 Pr216 2.695 1_554 S
O238 Pr217 2.436 . S
O238 C225 1.270 . S
O239 Pr216 2.512 1_554 S
O239 C225 1.248 . S
O240 Pr217 2.438 1_655 S
O240 C226 1.267 . S
O241 Pr216 2.437 1_654 S
O241 C226 1.278 . S
O242 Pr217 2.562 . S
O242 C227 1.254 . S
O243 Pr217 2.490 . S
O243 C227 1.225 . S
O244 Pr216 2.436 1_655 S
O244 Pr217 2.695 1_656 S
O244 C234 1.270 . S
O245 Pr217 2.512 1_656 S
O245 C234 1.248 . S
O246 Pr216 2.438 . S
O246 C235 1.267 . S
O247 Pr217 2.437 1_556 S
O247 C235 1.278 . S
H248 C220 0.929 1_455 S
H249 C221 0.929 . S
H250 C223 0.931 . S
H251 C224 0.930 . S
H252 C229 0.929 . S
H253 C230 0.929 . S
H254 C232 0.931 . S
H255 C233 0.930 . S
C256 C257 1.349 . S
C256 C258 1.327 . S
C256 H281 0.950 . S
C257 C256 1.349 . S
C257 C273 1.349 . S
C258 C256 1.327 . S
C258 C277 1.429 . S
C258 H282 0.950 . S
C259 C276 1.574 . S
C259 C278 1.368 . S
C259 H283 0.949 . S
H260 C264 0.949 . S
C261 C262 1.349 . S
C261 C263 1.327 . S
C261 H284 0.950 . S
C262 C261 1.349 . S
C262 C274 1.349 . S
C263 C261 1.327 . S
C263 C279 1.429 . S
C263 H285 0.950 . S
C264 H260 0.949 . S
C264 C272 1.574 . S
C264 C280 1.368 . S
H265 C273 0.950 . S
H266 C271 0.950 . S
H267 C272 0.949 . S
H268 C274 0.950 . S
H269 C275 0.950 . S
H270 C276 0.949 . S
C271 H266 0.950 . S
C271 C273 1.327 . S
C271 C277 1.429 . S
C272 C264 1.574 . S
C272 H267 0.949 . S
C272 C278 1.368 . S
C273 C257 1.349 . S
C273 H265 0.950 . S
C273 C271 1.327 . S
C274 C262 1.349 . S
C274 H268 0.950 . S
C274 C275 1.327 . S
C275 H269 0.950 . S
C275 C274 1.327 . S
C275 C279 1.429 . S
C276 C259 1.574 . S
C276 H270 0.949 . S
C276 C280 1.368 . S
C277 C258 1.429 . S
C277 C271 1.429 . S
C277 C278 1.523 . S
C278 C259 1.368 . S
C278 C272 1.368 . S
C278 C277 1.523 . S
C279 C263 1.429 . S
C279 C275 1.429 . S
C279 C280 1.523 . S
C280 C264 1.368 . S
C280 C276 1.368 . S
C280 C279 1.523 . S
H281 C256 0.950 . S
H282 C258 0.950 . S
H283 C259 0.949 . S
H284 C261 0.950 . S
H285 C263 0.950 . S
C286 C287 1.349 . S
C286 C288 1.327 . S
C286 H311 0.950 . S
C287 C286 1.349 . S
C287 C303 1.349 . S
C288 C286 1.327 . S
C288 C307 1.429 . S
C288 H312 0.950 . S
C289 C306 1.574 . S
C289 C308 1.368 . S
C289 H313 0.949 . S
H290 C294 0.949 . S
C291 C292 1.349 . S
C291 C293 1.327 . S
C291 H314 0.950 . S
C292 C291 1.349 . S
C292 C304 1.349 . S
C293 C291 1.327 . S
C293 C309 1.429 . S
C293 H315 0.950 . S
C294 H290 0.949 . S
C294 C302 1.574 . S
C294 C310 1.368 . S
H295 C303 0.950 . S
H296 C301 0.950 . S
H297 C302 0.949 . S
H298 C304 0.950 . S
H299 C305 0.950 . S
H300 C306 0.949 . S
C301 H296 0.950 . S
C301 C303 1.327 . S
C301 C307 1.429 . S
C302 C294 1.574 . S
C302 H297 0.949 . S
C302 C308 1.368 . S
C303 C287 1.349 . S
C303 H295 0.950 . S
C303 C301 1.327 . S
C304 C292 1.349 . S
C304 H298 0.950 . S
C304 C305 1.327 . S
C305 H299 0.950 . S
C305 C304 1.327 . S
C305 C309 1.429 . S
C306 C289 1.574 . S
C306 H300 0.949 . S
C306 C310 1.368 . S
C307 C288 1.429 . S
C307 C301 1.429 . S
C307 C308 1.523 . S
C308 C289 1.368 . S
C308 C302 1.368 . S
C308 C307 1.523 . S
C309 C293 1.429 . S
C309 C305 1.429 . S
C309 C310 1.523 . S
C310 C294 1.368 . S
C310 C306 1.368 . S
C310 C309 1.523 . S
H311 C286 0.950 . S
H312 C288 0.950 . S
H313 C289 0.949 . S
H314 C291 0.950 . S
H315 C293 0.950 . S
C316 C317 1.349 . S
C316 C318 1.327 . S
C316 H341 0.950 . S
C317 C316 1.349 . S
C317 C333 1.349 . S
C318 C316 1.327 . S
C318 C337 1.429 . S
C318 H342 0.950 . S
C319 C336 1.574 . S
C319 C338 1.368 . S
C319 H343 0.949 . S
H320 C324 0.949 . S
C321 C322 1.349 . S
C321 C323 1.327 . S
C321 H344 0.950 . S
C322 C321 1.349 . S
C322 C334 1.349 . S
C323 C321 1.327 . S
C323 C339 1.429 . S
C323 H345 0.950 . S
C324 H320 0.949 . S
C324 C332 1.574 . S
C324 C340 1.368 . S
H325 C333 0.950 . S
H326 C331 0.950 . S
H327 C332 0.949 . S
H328 C334 0.950 . S
H329 C335 0.950 . S
H330 C336 0.949 . S
C331 H326 0.950 . S
C331 C333 1.327 . S
C331 C337 1.429 . S
C332 C324 1.574 . S
C332 H327 0.949 . S
C332 C338 1.368 . S
C333 C317 1.349 . S
C333 H325 0.950 . S
C333 C331 1.327 . S
C334 C322 1.349 . S
C334 H328 0.950 . S
C334 C335 1.327 . S
C335 H329 0.950 . S
C335 C334 1.327 . S
C335 C339 1.429 . S
C336 C319 1.574 . S
C336 H330 0.949 . S
C336 C340 1.368 . S
C337 C318 1.429 . S
C337 C331 1.429 . S
C337 C338 1.523 . S
C338 C319 1.368 . S
C338 C332 1.368 . S
C338 C337 1.523 . S
C339 C323 1.429 . S
C339 C335 1.429 . S
C339 C340 1.523 . S
C340 C324 1.368 . S
C340 C336 1.368 . S
C340 C339 1.523 . S
H341 C316 0.950 . S
H342 C318 0.950 . S
H343 C319 0.949 . S
H344 C321 0.950 . S
H345 C323 0.950 . S
C346 C347 1.349 . S
C346 C348 1.327 . S
C346 H371 0.950 . S
C347 C346 1.349 . S
C347 C363 1.349 . S
C348 C346 1.327 . S
C348 C367 1.429 . S
C348 H372 0.950 . S
C349 C366 1.574 . S
C349 C368 1.368 . S
C349 H373 0.949 . S
H350 C354 0.949 . S
C351 C352 1.349 . S
C351 C353 1.327 . S
C351 H374 0.950 . S
C352 C351 1.349 . S
C352 C364 1.349 . S
C353 C351 1.327 . S
C353 C369 1.429 . S
C353 H375 0.950 . S
C354 H350 0.949 . S
C354 C362 1.574 . S
C354 C370 1.368 . S
H355 C363 0.950 . S
H356 C361 0.950 . S
H357 C362 0.949 . S
H358 C364 0.950 . S
H359 C365 0.950 . S
H360 C366 0.949 . S
C361 H356 0.950 . S
C361 C363 1.327 . S
C361 C367 1.429 . S
C362 C354 1.574 . S
C362 H357 0.949 . S
C362 C368 1.368 . S
C363 C347 1.349 . S
C363 H355 0.950 . S
C363 C361 1.327 . S
C364 C352 1.349 . S
C364 H358 0.950 . S
C364 C365 1.327 . S
C365 H359 0.950 . S
C365 C364 1.327 . S
C365 C369 1.429 . S
C366 C349 1.574 . S
C366 H360 0.949 . S
C366 C370 1.368 . S
C367 C348 1.429 . S
C367 C361 1.429 . S
C367 C368 1.523 . S
C368 C349 1.368 . S
C368 C362 1.368 . S
C368 C367 1.523 . S
C369 C353 1.429 . S
C369 C365 1.429 . S
C369 C370 1.523 . S
C370 C354 1.368 . S
C370 C366 1.368 . S
C370 C369 1.523 . S
H371 C346 0.950 . S
H372 C348 0.950 . S
H373 C349 0.949 . S
H374 C351 0.950 . S
H375 C353 0.950 . S
C376 C377 1.349 . S
C376 C378 1.327 . S
C376 H401 0.950 . S
C377 C376 1.349 . S
C377 C393 1.349 . S
C378 C376 1.327 . S
C378 C397 1.429 . S
C378 H402 0.950 . S
C379 C396 1.574 . S
C379 C398 1.368 . S
C379 H403 0.949 . S
H380 C384 0.949 . S
C381 C382 1.349 . S
C381 C383 1.327 . S
C381 H404 0.950 . S
C382 C381 1.349 . S
C382 C394 1.349 . S
C383 C381 1.327 . S
C383 C399 1.429 . S
C383 H405 0.950 . S
C384 H380 0.949 . S
C384 C392 1.574 . S
C384 C400 1.368 . S
H385 C393 0.950 . S
H386 C391 0.950 . S
H387 C392 0.949 . S
H388 C394 0.950 . S
H389 C395 0.950 . S
H390 C396 0.949 . S
C391 H386 0.950 . S
C391 C393 1.327 . S
C391 C397 1.429 . S
C392 C384 1.574 . S
C392 H387 0.949 . S
C392 C398 1.368 . S
C393 C377 1.349 . S
C393 H385 0.950 . S
C393 C391 1.327 . S
C394 C382 1.349 . S
C394 H388 0.950 . S
C394 C395 1.327 . S
C395 H389 0.950 . S
C395 C394 1.327 . S
C395 C399 1.429 . S
C396 C379 1.574 . S
C396 H390 0.949 . S
C396 C400 1.368 . S
C397 C378 1.429 . S
C397 C391 1.429 . S
C397 C398 1.523 . S
C398 C379 1.368 . S
C398 C392 1.368 . S
C398 C397 1.523 . S
C399 C383 1.429 . S
C399 C395 1.429 . S
C399 C400 1.523 . S
C400 C384 1.368 . S
C400 C396 1.368 . S
C400 C399 1.523 . S
H401 C376 0.950 . S
H402 C378 0.950 . S
H403 C379 0.949 . S
H404 C381 0.950 . S
H405 C383 0.950 . S
C406 C407 1.349 . S
C406 C408 1.327 . S
C406 H431 0.950 . S
C407 C406 1.349 . S
C407 C423 1.349 . S
C408 C406 1.327 . S
C408 C427 1.429 . S
C408 H432 0.950 . S
C409 C426 1.574 . S
C409 C428 1.368 . S
C409 H433 0.949 . S
H410 C414 0.949 . S
C411 C412 1.349 . S
C411 C413 1.327 . S
C411 H434 0.950 . S
C412 C411 1.349 . S
C412 C424 1.349 . S
C413 C411 1.327 . S
C413 C429 1.429 . S
C413 H435 0.950 . S
C414 H410 0.949 . S
C414 C422 1.574 . S
C414 C430 1.368 . S
H415 C423 0.950 . S
H416 C421 0.950 . S
H417 C422 0.949 . S
H418 C424 0.950 . S
H419 C425 0.950 . S
H420 C426 0.949 . S
C421 H416 0.950 . S
C421 C423 1.327 . S
C421 C427 1.429 . S
C422 C414 1.574 . S
C422 H417 0.949 . S
C422 C428 1.368 . S
C423 C407 1.349 . S
C423 H415 0.950 . S
C423 C421 1.327 . S
C424 C412 1.349 . S
C424 H418 0.950 . S
C424 C425 1.327 . S
C425 H419 0.950 . S
C425 C424 1.327 . S
C425 C429 1.429 . S
C426 C409 1.574 . S
C426 H420 0.949 . S
C426 C430 1.368 . S
C427 C408 1.429 . S
C427 C421 1.429 . S
C427 C428 1.523 . S
C428 C409 1.368 . S
C428 C422 1.368 . S
C428 C427 1.523 . S
C429 C413 1.429 . S
C429 C425 1.429 . S
C429 C430 1.523 . S
C430 C414 1.368 . S
C430 C426 1.368 . S
C430 C429 1.523 . S
H431 C406 0.950 . S
H432 C408 0.950 . S
H433 C409 0.949 . S
H434 C411 0.950 . S
H435 C413 0.950 . S
C436 C437 1.349 . S
C436 C438 1.327 . S
C436 H461 0.950 . S
C437 C436 1.349 . S
C437 C453 1.349 . S
C438 C436 1.327 . S
C438 C457 1.429 . S
C438 H462 0.950 . S
C439 C456 1.574 . S
C439 C458 1.368 . S
C439 H463 0.949 . S
H440 C444 0.949 . S
C441 C442 1.349 . S
C441 C443 1.327 . S
C441 H464 0.950 . S
C442 C441 1.349 . S
C442 C454 1.349 . S
C443 C441 1.327 . S
C443 C459 1.429 . S
C443 H465 0.950 . S
C444 H440 0.949 . S
C444 C452 1.574 . S
C444 C460 1.368 . S
H445 C453 0.950 . S
H446 C451 0.950 . S
H447 C452 0.949 . S
H448 C454 0.950 . S
H449 C455 0.950 . S
H450 C456 0.949 . S
C451 H446 0.950 . S
C451 C453 1.327 . S
C451 C457 1.429 . S
C452 C444 1.574 . S
C452 H447 0.949 . S
C452 C458 1.368 . S
C453 C437 1.349 . S
C453 H445 0.950 . S
C453 C451 1.327 . S
C454 C442 1.349 . S
C454 H448 0.950 . S
C454 C455 1.327 . S
C455 H449 0.950 . S
C455 C454 1.327 . S
C455 C459 1.429 . S
C456 C439 1.574 . S
C456 H450 0.949 . S
C456 C460 1.368 . S
C457 C438 1.429 . S
C457 C451 1.429 . S
C457 C458 1.523 . S
C458 C439 1.368 . S
C458 C452 1.368 . S
C458 C457 1.523 . S
C459 C443 1.429 . S
C459 C455 1.429 . S
C459 C460 1.523 . S
C460 C444 1.368 . S
C460 C456 1.368 . S
C460 C459 1.523 . S
H461 C436 0.950 . S
H462 C438 0.950 . S
H463 C439 0.949 . S
H464 C441 0.950 . S
H465 C443 0.950 . S
C466 C467 1.349 . S
C466 C468 1.327 . S
C466 H491 0.950 . S
C467 C466 1.349 . S
C467 C483 1.349 . S
C468 C466 1.327 . S
C468 C487 1.429 . S
C468 H492 0.950 . S
C469 C486 1.574 . S
C469 C488 1.368 . S
C469 H493 0.949 . S
H470 C474 0.949 . S
C471 C472 1.349 . S
C471 C473 1.327 . S
C471 H494 0.950 . S
C472 C471 1.349 . S
C472 C484 1.349 . S
C473 C471 1.327 . S
C473 C489 1.429 . S
C473 H495 0.950 . S
C474 H470 0.949 . S
C474 C482 1.574 . S
C474 C490 1.368 . S
H475 C483 0.950 . S
H476 C481 0.950 . S
H477 C482 0.949 . S
H478 C484 0.950 . S
H479 C485 0.950 . S
H480 C486 0.949 . S
C481 H476 0.950 . S
C481 C483 1.327 . S
C481 C487 1.429 . S
C482 C474 1.574 . S
C482 H477 0.949 . S
C482 C488 1.368 . S
C483 C467 1.349 . S
C483 H475 0.950 . S
C483 C481 1.327 . S
C484 C472 1.349 . S
C484 H478 0.950 . S
C484 C485 1.327 . S
C485 H479 0.950 . S
C485 C484 1.327 . S
C485 C489 1.429 . S
C486 C469 1.574 . S
C486 H480 0.949 . S
C486 C490 1.368 . S
C487 C468 1.429 . S
C487 C481 1.429 . S
C487 C488 1.523 . S
C488 C469 1.368 . S
C488 C482 1.368 . S
C488 C487 1.523 . S
C489 C473 1.429 . S
C489 C485 1.429 . S
C489 C490 1.523 . S
C490 C474 1.368 . S
C490 C486 1.368 . S
C490 C489 1.523 . S
H491 C466 0.950 . S
H492 C468 0.950 . S
H493 C469 0.949 . S
H494 C471 0.950 . S
H495 C473 0.950 . S
C496 C497 1.349 . S
C496 C498 1.327 . S
C496 H521 0.950 . S
C497 C496 1.349 . S
C497 C513 1.349 . S
C498 C496 1.327 . S
C498 C517 1.429 . S
C498 H522 0.950 . S
C499 C516 1.574 . S
C499 C518 1.368 . S
C499 H523 0.949 . S
H500 C504 0.949 . S
C501 C502 1.349 . S
C501 C503 1.327 . S
C501 H524 0.950 . S
C502 C501 1.349 . S
C502 C514 1.349 . S
C503 C501 1.327 . S
C503 C519 1.429 . S
C503 H525 0.950 . S
C504 H500 0.949 . S
C504 C512 1.574 . S
C504 C520 1.368 . S
H505 C513 0.950 . S
H506 C511 0.950 . S
H507 C512 0.949 . S
H508 C514 0.950 . S
H509 C515 0.950 . S
H510 C516 0.949 . S
C511 H506 0.950 . S
C511 C513 1.327 . S
C511 C517 1.429 . S
C512 C504 1.574 . S
C512 H507 0.949 . S
C512 C518 1.368 . S
C513 C497 1.349 . S
C513 H505 0.950 . S
C513 C511 1.327 . S
C514 C502 1.349 . S
C514 H508 0.950 . S
C514 C515 1.327 . S
C515 H509 0.950 . S
C515 C514 1.327 . S
C515 C519 1.429 . S
C516 C499 1.574 . S
C516 H510 0.949 . S
C516 C520 1.368 . S
C517 C498 1.429 . S
C517 C511 1.429 . S
C517 C518 1.523 . S
C518 C499 1.368 . S
C518 C512 1.368 . S
C518 C517 1.523 . S
C519 C503 1.429 . S
C519 C515 1.429 . S
C519 C520 1.523 . S
C520 C504 1.368 . S
C520 C516 1.368 . S
C520 C519 1.523 . S
H521 C496 0.950 . S
H522 C498 0.950 . S
H523 C499 0.949 . S
H524 C501 0.950 . S
H525 C503 0.950 . S
C526 C527 1.349 . S
C526 C528 1.327 . S
C526 H551 0.950 . S
C527 C526 1.349 . S
C527 C543 1.349 . S
C528 C526 1.327 . S
C528 C547 1.429 . S
C528 H552 0.950 . S
C529 C546 1.574 . S
C529 C548 1.368 . S
C529 H553 0.949 . S
H530 C534 0.949 . S
C531 C532 1.349 . S
C531 C533 1.327 . S
C531 H554 0.950 . S
C532 C531 1.349 . S
C532 C544 1.349 . S
C533 C531 1.327 . S
C533 C549 1.429 . S
C533 H555 0.950 . S
C534 H530 0.949 . S
C534 C542 1.574 . S
C534 C550 1.368 . S
H535 C543 0.950 . S
H536 C541 0.950 . S
H537 C542 0.949 . S
H538 C544 0.950 . S
H539 C545 0.950 . S
H540 C546 0.949 . S
C541 H536 0.950 . S
C541 C543 1.327 . S
C541 C547 1.429 . S
C542 C534 1.574 . S
C542 H537 0.949 . S
C542 C548 1.368 . S
C543 C527 1.349 . S
C543 H535 0.950 . S
C543 C541 1.327 . S
C544 C532 1.349 . S
C544 H538 0.950 . S
C544 C545 1.327 . S
C545 H539 0.950 . S
C545 C544 1.327 . S
C545 C549 1.429 . S
C546 C529 1.574 . S
C546 H540 0.949 . S
C546 C550 1.368 . S
C547 C528 1.429 . S
C547 C541 1.429 . S
C547 C548 1.523 . S
C548 C529 1.368 . S
C548 C542 1.368 . S
C548 C547 1.523 . S
C549 C533 1.429 . S
C549 C545 1.429 . S
C549 C550 1.523 . S
C550 C534 1.368 . S
C550 C546 1.368 . S
C550 C549 1.523 . S
H551 C526 0.950 . S
H552 C528 0.950 . S
H553 C529 0.949 . S
H554 C531 0.950 . S
H555 C533 0.950 . S
C556 C557 1.349 . S
C556 C558 1.327 . S
C556 H581 0.950 . S
C557 C556 1.349 . S
C557 C573 1.349 . S
C558 C556 1.327 . S
C558 C577 1.429 . S
C558 H582 0.950 . S
C559 C576 1.574 . S
C559 C578 1.368 . S
C559 H583 0.949 . S
H560 C564 0.949 . S
C561 C562 1.349 . S
C561 C563 1.327 . S
C561 H584 0.950 . S
C562 C561 1.349 . S
C562 C574 1.349 . S
C563 C561 1.327 . S
C563 C579 1.429 . S
C563 H585 0.950 . S
C564 H560 0.949 . S
C564 C572 1.574 . S
C564 C580 1.368 . S
H565 C573 0.950 . S
H566 C571 0.950 . S
H567 C572 0.949 . S
H568 C574 0.950 . S
H569 C575 0.950 . S
H570 C576 0.949 . S
C571 H566 0.950 . S
C571 C573 1.327 . S
C571 C577 1.429 . S
C572 C564 1.574 . S
C572 H567 0.949 . S
C572 C578 1.368 . S
C573 C557 1.349 . S
C573 H565 0.950 . S
C573 C571 1.327 . S
C574 C562 1.349 . S
C574 H568 0.950 . S
C574 C575 1.327 . S
C575 H569 0.950 . S
C575 C574 1.327 . S
C575 C579 1.429 . S
C576 C559 1.574 . S
C576 H570 0.949 . S
C576 C580 1.368 . S
C577 C558 1.429 . S
C577 C571 1.429 . S
C577 C578 1.523 . S
C578 C559 1.368 . S
C578 C572 1.368 . S
C578 C577 1.523 . S
C579 C563 1.429 . S
C579 C575 1.429 . S
C579 C580 1.523 . S
C580 C564 1.368 . S
C580 C576 1.368 . S
C580 C579 1.523 . S
H581 C556 0.950 . S
H582 C558 0.950 . S
H583 C559 0.949 . S
H584 C561 0.950 . S
H585 C563 0.950 . S
C586 C587 1.349 . S
C586 C588 1.327 . S
C586 H611 0.950 . S
C587 C586 1.349 . S
C587 C603 1.349 . S
C588 C586 1.327 . S
C588 C607 1.429 . S
C588 H612 0.950 . S
C589 C606 1.574 . S
C589 C608 1.368 . S
C589 H613 0.949 . S
H590 C594 0.949 . S
C591 C592 1.349 . S
C591 C593 1.327 . S
C591 H614 0.950 . S
C592 C591 1.349 . S
C592 C604 1.349 . S
C593 C591 1.327 . S
C593 C609 1.429 . S
C593 H615 0.950 . S
C594 H590 0.949 . S
C594 C602 1.574 . S
C594 C610 1.368 . S
H595 C603 0.950 . S
H596 C601 0.950 . S
H597 C602 0.949 . S
H598 C604 0.950 . S
H599 C605 0.950 . S
H600 C606 0.949 . S
C601 H596 0.950 . S
C601 C603 1.327 . S
C601 C607 1.429 . S
C602 C594 1.574 . S
C602 H597 0.949 . S
C602 C608 1.368 . S
C603 C587 1.349 . S
C603 H595 0.950 . S
C603 C601 1.327 . S
C604 C592 1.349 . S
C604 H598 0.950 . S
C604 C605 1.327 . S
C605 H599 0.950 . S
C605 C604 1.327 . S
C605 C609 1.429 . S
C606 C589 1.574 . S
C606 H600 0.949 . S
C606 C610 1.368 . S
C607 C588 1.429 . S
C607 C601 1.429 . S
C607 C608 1.523 . S
C608 C589 1.368 . S
C608 C602 1.368 . S
C608 C607 1.523 . S
C609 C593 1.429 . S
C609 C605 1.429 . S
C609 C610 1.523 . S
C610 C594 1.368 . S
C610 C606 1.368 . S
C610 C609 1.523 . S
H611 C586 0.950 . S
H612 C588 0.950 . S
H613 C589 0.949 . S
H614 C591 0.950 . S
H615 C593 0.950 . S
C616 C617 1.349 . S
C616 C618 1.327 . S
C616 H641 0.950 . S
C617 C616 1.349 . S
C617 C633 1.349 . S
C618 C616 1.327 . S
C618 C637 1.429 . S
C618 H642 0.950 . S
C619 C636 1.574 . S
C619 C638 1.368 . S
C619 H643 0.949 . S
H620 C624 0.949 . S
C621 C622 1.349 . S
C621 C623 1.327 . S
C621 H644 0.950 . S
C622 C621 1.349 . S
C622 C634 1.349 . S
C623 C621 1.327 . S
C623 C639 1.429 . S
C623 H645 0.950 . S
C624 H620 0.949 . S
C624 C632 1.574 . S
C624 C640 1.368 . S
H625 C633 0.950 . S
H626 C631 0.950 . S
H627 C632 0.949 . S
H628 C634 0.950 . S
H629 C635 0.950 . S
H630 C636 0.949 . S
C631 H626 0.950 . S
C631 C633 1.327 . S
C631 C637 1.429 . S
C632 C624 1.574 . S
C632 H627 0.949 . S
C632 C638 1.368 . S
C633 C617 1.349 . S
C633 H625 0.950 . S
C633 C631 1.327 . S
C634 C622 1.349 . S
C634 H628 0.950 . S
C634 C635 1.327 . S
C635 H629 0.950 . S
C635 C634 1.327 . S
C635 C639 1.429 . S
C636 C619 1.574 . S
C636 H630 0.949 . S
C636 C640 1.368 . S
C637 C618 1.429 . S
C637 C631 1.429 . S
C637 C638 1.523 . S
C638 C619 1.368 . S
C638 C632 1.368 . S
C638 C637 1.523 . S
C639 C623 1.429 . S
C639 C635 1.429 . S
C639 C640 1.523 . S
C640 C624 1.368 . S
C640 C636 1.368 . S
C640 C639 1.523 . S
H641 C616 0.950 . S
H642 C618 0.950 . S
H643 C619 0.949 . S
H644 C621 0.950 . S
H645 C623 0.950 . S
C646 C647 1.349 . S
C646 C648 1.327 . S
C646 H671 0.950 . S
C647 C646 1.349 . S
C647 C663 1.349 . S
C648 C646 1.327 . S
C648 C667 1.429 . S
C648 H672 0.950 . S
C649 C666 1.574 . S
C649 C668 1.368 . S
C649 H673 0.949 . S
H650 C654 0.949 . S
C651 C652 1.349 . S
C651 C653 1.327 . S
C651 H674 0.950 . S
C652 C651 1.349 . S
C652 C664 1.349 . S
C653 C651 1.327 . S
C653 C669 1.429 . S
C653 H675 0.950 . S
C654 H650 0.949 . S
C654 C662 1.574 . S
C654 C670 1.368 . S
H655 C663 0.950 . S
H656 C661 0.950 . S
H657 C662 0.949 . S
H658 C664 0.950 . S
H659 C665 0.950 . S
H660 C666 0.949 . S
C661 H656 0.950 . S
C661 C663 1.327 . S
C661 C667 1.429 . S
C662 C654 1.574 . S
C662 H657 0.949 . S
C662 C668 1.368 . S
C663 C647 1.349 . S
C663 H655 0.950 . S
C663 C661 1.327 . S
C664 C652 1.349 . S
C664 H658 0.950 . S
C664 C665 1.327 . S
C665 H659 0.950 . S
C665 C664 1.327 . S
C665 C669 1.429 . S
C666 C649 1.574 . S
C666 H660 0.949 . S
C666 C670 1.368 . S
C667 C648 1.429 . S
C667 C661 1.429 . S
C667 C668 1.523 . S
C668 C649 1.368 . S
C668 C662 1.368 . S
C668 C667 1.523 . S
C669 C653 1.429 . S
C669 C665 1.429 . S
C669 C670 1.523 . S
C670 C654 1.368 . S
C670 C666 1.368 . S
C670 C669 1.523 . S
H671 C646 0.950 . S
H672 C648 0.950 . S
H673 C649 0.949 . S
H674 C651 0.950 . S
H675 C653 0.950 . S
C676 C677 1.349 . S
C676 C678 1.327 . S
C676 H701 0.950 . S
C677 C676 1.349 . S
C677 C693 1.349 . S
C678 C676 1.327 . S
C678 C697 1.429 . S
C678 H702 0.950 . S
C679 C696 1.574 . S
C679 C698 1.368 . S
C679 H703 0.949 . S
H680 C684 0.949 . S
C681 C682 1.349 . S
C681 C683 1.327 . S
C681 H704 0.950 . S
C682 C681 1.349 . S
C682 C694 1.349 . S
C683 C681 1.327 . S
C683 C699 1.429 . S
C683 H705 0.950 . S
C684 H680 0.949 . S
C684 C692 1.574 . S
C684 C700 1.368 . S
H685 C693 0.950 . S
H686 C691 0.950 . S
H687 C692 0.949 . S
H688 C694 0.950 . S
H689 C695 0.950 . S
H690 C696 0.949 . S
C691 H686 0.950 . S
C691 C693 1.327 . S
C691 C697 1.429 . S
C692 C684 1.574 . S
C692 H687 0.949 . S
C692 C698 1.368 . S
C693 C677 1.349 . S
C693 H685 0.950 . S
C693 C691 1.327 . S
C694 C682 1.349 . S
C694 H688 0.950 . S
C694 C695 1.327 . S
C695 H689 0.950 . S
C695 C694 1.327 . S
C695 C699 1.429 . S
C696 C679 1.574 . S
C696 H690 0.949 . S
C696 C700 1.368 . S
C697 C678 1.429 . S
C697 C691 1.429 . S
C697 C698 1.523 . S
C698 C679 1.368 . S
C698 C692 1.368 . S
C698 C697 1.523 . S
C699 C683 1.429 . S
C699 C695 1.429 . S
C699 C700 1.523 . S
C700 C684 1.368 . S
C700 C696 1.368 . S
C700 C699 1.523 . S
H701 C676 0.950 . S
H702 C678 0.950 . S
H703 C679 0.949 . S
H704 C681 0.950 . S
H705 C683 0.950 . S
C706 C707 1.349 . S
C706 C708 1.327 . S
C706 H731 0.950 . S
C707 C706 1.349 . S
C707 C723 1.349 . S
C708 C706 1.327 . S
C708 C727 1.429 . S
C708 H732 0.950 . S
C709 C726 1.574 . S
C709 C728 1.368 . S
C709 H733 0.949 . S
H710 C714 0.949 . S
C711 C712 1.349 . S
C711 C713 1.327 . S
C711 H734 0.950 . S
C712 C711 1.349 . S
C712 C724 1.349 . S
C713 C711 1.327 . S
C713 C729 1.429 . S
C713 H735 0.950 . S
C714 H710 0.949 . S
C714 C722 1.574 . S
C714 C730 1.368 . S
H715 C723 0.950 . S
H716 C721 0.950 . S
H717 C722 0.949 . S
H718 C724 0.950 . S
H719 C725 0.950 . S
H720 C726 0.949 . S
C721 H716 0.950 . S
C721 C723 1.327 . S
C721 C727 1.429 . S
C722 C714 1.574 . S
C722 H717 0.949 . S
C722 C728 1.368 . S
C723 C707 1.349 . S
C723 H715 0.950 . S
C723 C721 1.327 . S
C724 C712 1.349 . S
C724 H718 0.950 . S
C724 C725 1.327 . S
C725 H719 0.950 . S
C725 C724 1.327 . S
C725 C729 1.429 . S
C726 C709 1.574 . S
C726 H720 0.949 . S
C726 C730 1.368 . S
C727 C708 1.429 . S
C727 C721 1.429 . S
C727 C728 1.523 . S
C728 C709 1.368 . S
C728 C722 1.368 . S
C728 C727 1.523 . S
C729 C713 1.429 . S
C729 C725 1.429 . S
C729 C730 1.523 . S
C730 C714 1.368 . S
C730 C726 1.368 . S
C730 C729 1.523 . S
H731 C706 0.950 . S
H732 C708 0.950 . S
H733 C709 0.949 . S
H734 C711 0.950 . S
H735 C713 0.950 . S
C736 C737 1.349 . S
C736 C738 1.327 . S
C736 H761 0.950 . S
C737 C736 1.349 . S
C737 C753 1.349 . S
C738 C736 1.327 . S
C738 C757 1.429 . S
C738 H762 0.950 . S
C739 C756 1.574 . S
C739 C758 1.368 . S
C739 H763 0.949 . S
H740 C744 0.949 . S
C741 C742 1.349 . S
C741 C743 1.327 . S
C741 H764 0.950 . S
C742 C741 1.349 . S
C742 C754 1.349 . S
C743 C741 1.327 . S
C743 C759 1.429 . S
C743 H765 0.950 . S
C744 H740 0.949 . S
C744 C752 1.574 . S
C744 C760 1.368 . S
H745 C753 0.950 . S
H746 C751 0.950 . S
H747 C752 0.949 . S
H748 C754 0.950 . S
H749 C755 0.950 . S
H750 C756 0.949 . S
C751 H746 0.950 . S
C751 C753 1.327 . S
C751 C757 1.429 . S
C752 C744 1.574 . S
C752 H747 0.949 . S
C752 C758 1.368 . S
C753 C737 1.349 . S
C753 H745 0.950 . S
C753 C751 1.327 . S
C754 C742 1.349 . S
C754 H748 0.950 . S
C754 C755 1.327 . S
C755 H749 0.950 . S
C755 C754 1.327 . S
C755 C759 1.429 . S
C756 C739 1.574 . S
C756 H750 0.949 . S
C756 C760 1.368 . S
C757 C738 1.429 . S
C757 C751 1.429 . S
C757 C758 1.523 . S
C758 C739 1.368 . S
C758 C752 1.368 . S
C758 C757 1.523 . S
C759 C743 1.429 . S
C759 C755 1.429 . S
C759 C760 1.523 . S
C760 C744 1.368 . S
C760 C756 1.368 . S
C760 C759 1.523 . S
H761 C736 0.950 . S
H762 C738 0.950 . S
H763 C739 0.949 . S
H764 C741 0.950 . S
H765 C743 0.950 . S
C766 C767 1.349 . S
C766 C768 1.327 . S
C766 H791 0.950 . S
C767 C766 1.349 . S
C767 C783 1.349 . S
C768 C766 1.327 . S
C768 C787 1.429 . S
C768 H792 0.950 . S
C769 C786 1.574 . S
C769 C788 1.368 . S
C769 H793 0.949 . S
H770 C774 0.949 . S
C771 C772 1.349 . S
C771 C773 1.327 . S
C771 H794 0.950 . S
C772 C771 1.349 . S
C772 C784 1.349 . S
C773 C771 1.327 . S
C773 C789 1.429 . S
C773 H795 0.950 . S
C774 H770 0.949 . S
C774 C782 1.574 . S
C774 C790 1.368 . S
H775 C783 0.950 . S
H776 C781 0.950 . S
H777 C782 0.949 . S
H778 C784 0.950 . S
H779 C785 0.950 . S
H780 C786 0.949 . S
C781 H776 0.950 . S
C781 C783 1.327 . S
C781 C787 1.429 . S
C782 C774 1.574 . S
C782 H777 0.949 . S
C782 C788 1.368 . S
C783 C767 1.349 . S
C783 H775 0.950 . S
C783 C781 1.327 . S
C784 C772 1.349 . S
C784 H778 0.950 . S
C784 C785 1.327 . S
C785 H779 0.950 . S
C785 C784 1.327 . S
C785 C789 1.429 . S
C786 C769 1.574 . S
C786 H780 0.949 . S
C786 C790 1.368 . S
C787 C768 1.429 . S
C787 C781 1.429 . S
C787 C788 1.523 . S
C788 C769 1.368 . S
C788 C782 1.368 . S
C788 C787 1.523 . S
C789 C773 1.429 . S
C789 C785 1.429 . S
C789 C790 1.523 . S
C790 C774 1.368 . S
C790 C786 1.368 . S
C790 C789 1.523 . S
H791 C766 0.950 . S
H792 C768 0.950 . S
H793 C769 0.949 . S
H794 C771 0.950 . S
H795 C773 0.950 . S
C796 C797 1.349 . S
C796 C798 1.327 . S
C796 H821 0.950 . S
C797 C796 1.349 . S
C797 C813 1.349 . S
C798 C796 1.327 . S
C798 C817 1.429 . S
C798 H822 0.950 . S
C799 C816 1.574 . S
C799 C818 1.368 . S
C799 H823 0.949 . S
H800 C804 0.949 . S
C801 C802 1.349 . S
C801 C803 1.327 . S
C801 H824 0.950 . S
C802 C801 1.349 . S
C802 C814 1.349 . S
C803 C801 1.327 . S
C803 C819 1.429 . S
C803 H825 0.950 . S
C804 H800 0.949 . S
C804 C812 1.574 . S
C804 C820 1.368 . S
H805 C813 0.950 . S
H806 C811 0.950 . S
H807 C812 0.949 . S
H808 C814 0.950 . S
H809 C815 0.950 . S
H810 C816 0.949 . S
C811 H806 0.950 . S
C811 C813 1.327 . S
C811 C817 1.429 . S
C812 C804 1.574 . S
C812 H807 0.949 . S
C812 C818 1.368 . S
C813 C797 1.349 . S
C813 H805 0.950 . S
C813 C811 1.327 . S
C814 C802 1.349 . S
C814 H808 0.950 . S
C814 C815 1.327 . S
C815 H809 0.950 . S
C815 C814 1.327 . S
C815 C819 1.429 . S
C816 C799 1.574 . S
C816 H810 0.949 . S
C816 C820 1.368 . S
C817 C798 1.429 . S
C817 C811 1.429 . S
C817 C818 1.523 . S
C818 C799 1.368 . S
C818 C812 1.368 . S
C818 C817 1.523 . S
C819 C803 1.429 . S
C819 C815 1.429 . S
C819 C820 1.523 . S
C820 C804 1.368 . S
C820 C816 1.368 . S
C820 C819 1.523 . S
H821 C796 0.950 . S
H822 C798 0.950 . S
H823 C799 0.949 . S
H824 C801 0.950 . S
H825 C803 0.950 . S
C826 C827 1.349 . S
C826 C828 1.327 . S
C826 H851 0.950 . S
C827 C826 1.349 . S
C827 C843 1.349 . S
C828 C826 1.327 . S
C828 C847 1.429 . S
C828 H852 0.950 . S
C829 C846 1.574 . S
C829 C848 1.368 . S
C829 H853 0.949 . S
H830 C834 0.949 . S
C831 C832 1.349 . S
C831 C833 1.327 . S
C831 H854 0.950 . S
C832 C831 1.349 . S
C832 C844 1.349 . S
C833 C831 1.327 . S
C833 C849 1.429 . S
C833 H855 0.950 . S
C834 H830 0.949 . S
C834 C842 1.574 . S
C834 C850 1.368 . S
H835 C843 0.950 . S
H836 C841 0.950 . S
H837 C842 0.949 . S
H838 C844 0.950 . S
H839 C845 0.950 . S
H840 C846 0.949 . S
C841 H836 0.950 . S
C841 C843 1.327 . S
C841 C847 1.429 . S
C842 C834 1.574 . S
C842 H837 0.949 . S
C842 C848 1.368 . S
C843 C827 1.349 . S
C843 H835 0.950 . S
C843 C841 1.327 . S
C844 C832 1.349 . S
C844 H838 0.950 . S
C844 C845 1.327 . S
C845 H839 0.950 . S
C845 C844 1.327 . S
C845 C849 1.429 . S
C846 C829 1.574 . S
C846 H840 0.949 . S
C846 C850 1.368 . S
C847 C828 1.429 . S
C847 C841 1.429 . S
C847 C848 1.523 . S
C848 C829 1.368 . S
C848 C842 1.368 . S
C848 C847 1.523 . S
C849 C833 1.429 . S
C849 C845 1.429 . S
C849 C850 1.523 . S
C850 C834 1.368 . S
C850 C846 1.368 . S
C850 C849 1.523 . S
H851 C826 0.950 . S
H852 C828 0.950 . S
H853 C829 0.949 . S
H854 C831 0.950 . S
H855 C833 0.950 . S
C856 C857 1.349 . S
C856 C858 1.327 . S
C856 H881 0.950 . S
C857 C856 1.349 . S
C857 C873 1.349 . S
C858 C856 1.327 . S
C858 C877 1.429 . S
C858 H882 0.950 . S
C859 C876 1.574 . S
C859 C878 1.368 . S
C859 H883 0.949 . S
H860 C864 0.949 . S
C861 C862 1.349 . S
C861 C863 1.327 . S
C861 H884 0.950 . S
C862 C861 1.349 . S
C862 C874 1.349 . S
C863 C861 1.327 . S
C863 C879 1.429 . S
C863 H885 0.950 . S
C864 H860 0.949 . S
C864 C872 1.574 . S
C864 C880 1.368 . S
H865 C873 0.950 . S
H866 C871 0.950 . S
H867 C872 0.949 . S
H868 C874 0.950 . S
H869 C875 0.950 . S
H870 C876 0.949 . S
C871 H866 0.950 . S
C871 C873 1.327 . S
C871 C877 1.429 . S
C872 C864 1.574 . S
C872 H867 0.949 . S
C872 C878 1.368 . S
C873 C857 1.349 . S
C873 H865 0.950 . S
C873 C871 1.327 . S
C874 C862 1.349 . S
C874 H868 0.950 . S
C874 C875 1.327 . S
C875 H869 0.950 . S
C875 C874 1.327 . S
C875 C879 1.429 . S
C876 C859 1.574 . S
C876 H870 0.949 . S
C876 C880 1.368 . S
C877 C858 1.429 . S
C877 C871 1.429 . S
C877 C878 1.523 . S
C878 C859 1.368 . S
C878 C872 1.368 . S
C878 C877 1.523 . S
C879 C863 1.429 . S
C879 C875 1.429 . S
C879 C880 1.523 . S
C880 C864 1.368 . S
C880 C876 1.368 . S
C880 C879 1.523 . S
H881 C856 0.950 . S
H882 C858 0.950 . S
H883 C859 0.949 . S
H884 C861 0.950 . S
H885 C863 0.950 . S
C886 C887 1.349 . S
C886 C888 1.327 . S
C886 H911 0.950 . S
C887 C886 1.349 . S
C887 C903 1.349 . S
C888 C886 1.327 . S
C888 C907 1.429 . S
C888 H912 0.950 . S
C889 C906 1.574 . S
C889 C908 1.368 . S
C889 H913 0.949 . S
H890 C894 0.949 . S
C891 C892 1.349 . S
C891 C893 1.327 . S
C891 H914 0.950 . S
C892 C891 1.349 . S
C892 C904 1.349 . S
C893 C891 1.327 . S
C893 C909 1.429 . S
C893 H915 0.950 . S
C894 H890 0.949 . S
C894 C902 1.574 . S
C894 C910 1.368 . S
H895 C903 0.950 . S
H896 C901 0.950 . S
H897 C902 0.949 . S
H898 C904 0.950 . S
H899 C905 0.950 . S
H900 C906 0.949 . S
C901 H896 0.950 . S
C901 C903 1.327 . S
C901 C907 1.429 . S
C902 C894 1.574 . S
C902 H897 0.949 . S
C902 C908 1.368 . S
C903 C887 1.349 . S
C903 H895 0.950 . S
C903 C901 1.327 . S
C904 C892 1.349 . S
C904 H898 0.950 . S
C904 C905 1.327 . S
C905 H899 0.950 . S
C905 C904 1.327 . S
C905 C909 1.429 . S
C906 C889 1.574 . S
C906 H900 0.949 . S
C906 C910 1.368 . S
C907 C888 1.429 . S
C907 C901 1.429 . S
C907 C908 1.523 . S
C908 C889 1.368 . S
C908 C902 1.368 . S
C908 C907 1.523 . S
C909 C893 1.429 . S
C909 C905 1.429 . S
C909 C910 1.523 . S
C910 C894 1.368 . S
C910 C906 1.368 . S
C910 C909 1.523 . S
H911 C886 0.950 . S
H912 C888 0.950 . S
H913 C889 0.949 . S
H914 C891 0.950 . S
H915 C893 0.950 . S
C916 C917 1.349 . S
C916 C918 1.327 . S
C916 H941 0.950 . S
C917 C916 1.349 . S
C917 C933 1.349 . S
C918 C916 1.327 . S
C918 C937 1.429 . S
C918 H942 0.950 . S
C919 C936 1.574 . S
C919 C938 1.368 . S
C919 H943 0.949 . S
H920 C924 0.949 . S
C921 C922 1.349 . S
C921 C923 1.327 . S
C921 H944 0.950 . S
C922 C921 1.349 . S
C922 C934 1.349 . S
C923 C921 1.327 . S
C923 C939 1.429 . S
C923 H945 0.950 . S
C924 H920 0.949 . S
C924 C932 1.574 . S
C924 C940 1.368 . S
H925 C933 0.950 . S
H926 C931 0.950 . S
H927 C932 0.949 . S
H928 C934 0.950 . S
H929 C935 0.950 . S
H930 C936 0.949 . S
C931 H926 0.950 . S
C931 C933 1.327 . S
C931 C937 1.429 . S
C932 C924 1.574 . S
C932 H927 0.949 . S
C932 C938 1.368 . S
C933 C917 1.349 . S
C933 H925 0.950 . S
C933 C931 1.327 . S
C934 C922 1.349 . S
C934 H928 0.950 . S
C934 C935 1.327 . S
C935 H929 0.950 . S
C935 C934 1.327 . S
C935 C939 1.429 . S
C936 C919 1.574 . S
C936 H930 0.949 . S
C936 C940 1.368 . S
C937 C918 1.429 . S
C937 C931 1.429 . S
C937 C938 1.523 . S
C938 C919 1.368 . S
C938 C932 1.368 . S
C938 C937 1.523 . S
C939 C923 1.429 . S
C939 C935 1.429 . S
C939 C940 1.523 . S
C940 C924 1.368 . S
C940 C936 1.368 . S
C940 C939 1.523 . S
H941 C916 0.950 . S
H942 C918 0.950 . S
H943 C919 0.949 . S
H944 C921 0.950 . S
H945 C923 0.950 . S
C946 C947 1.349 . S
C946 C948 1.327 . S
C946 H971 0.950 . S
C947 C946 1.349 . S
C947 C963 1.349 . S
C948 C946 1.327 . S
C948 C967 1.429 . S
C948 H972 0.950 . S
C949 C966 1.574 . S
C949 C968 1.368 . S
C949 H973 0.949 . S
H950 C954 0.949 . S
C951 C952 1.349 . S
C951 C953 1.327 . S
C951 H974 0.950 . S
C952 C951 1.349 . S
C952 C964 1.349 . S
C953 C951 1.327 . S
C953 C969 1.429 . S
C953 H975 0.950 . S
C954 H950 0.949 . S
C954 C962 1.574 . S
C954 C970 1.368 . S
H955 C963 0.950 . S
H956 C961 0.950 . S
H957 C962 0.949 . S
H958 C964 0.950 . S
H959 C965 0.950 . S
H960 C966 0.949 . S
C961 H956 0.950 . S
C961 C963 1.327 . S
C961 C967 1.429 . S
C962 C954 1.574 . S
C962 H957 0.949 . S
C962 C968 1.368 . S
C963 C947 1.349 . S
C963 H955 0.950 . S
C963 C961 1.327 . S
C964 C952 1.349 . S
C964 H958 0.950 . S
C964 C965 1.327 . S
C965 H959 0.950 . S
C965 C964 1.327 . S
C965 C969 1.429 . S
C966 C949 1.574 . S
C966 H960 0.949 . S
C966 C970 1.368 . S
C967 C948 1.429 . S
C967 C961 1.429 . S
C967 C968 1.523 . S
C968 C949 1.368 . S
C968 C962 1.368 . S
C968 C967 1.523 . S
C969 C953 1.429 . S
C969 C965 1.429 . S
C969 C970 1.523 . S
C970 C954 1.368 . S
C970 C966 1.368 . S
C970 C969 1.523 . S
H971 C946 0.950 . S
H972 C948 0.950 . S
H973 C949 0.949 . S
H974 C951 0.950 . S
H975 C953 0.950 . S
C257 C6 0.974 . S
C262 C111 0.986 . S
C287 C18 1.766 . S
C292 C155 1.758 . S
C322 C185 2.117 . S
C317 C28 2.131 . S
C347 C40 2.038 . S
C352 C226 2.016 . S
C382 C142 1.080 . S
C377 C9 1.070 . S
C412 C106 2.538 . S
C407 C16 2.513 . S
C442 C234 1.038 . S
C437 C30 1.037 . S
C472 C195 1.654 . S
C467 C42 1.691 . S
C497 C4 0.767 . S
C502 C231 0.766 . S
C532 C145 2.111 . S
C527 C33 2.148 . S
C557 C45 1.857 . S
C562 C114 1.829 . S
C587 C21 2.118 . S
C592 C182 2.129 . S
C622 C102 1.029 . S
C617 C57 1.022 . S
C647 C66 1.705 . S
C652 C146 1.723 . S
C677 C76 2.182 . S
C682 C194 2.178 . S
C707 C88 1.927 . S
C712 C235 1.894 . S
C737 C54 1.071 . S
C742 C151 1.075 . S
C772 C115 2.631 . S
C767 C64 2.623 . S
C802 C225 0.918 . S
C797 C78 0.920 . S
C832 C186 1.705 . S
C827 C93 1.730 . S
C857 C52 0.792 . S
C862 C222 0.793 . S
C892 C154 2.086 . S
C887 C81 2.128 . S
C922 C105 1.792 . S
C917 C90 1.824 . S
C947 C69 2.113 . S
C952 C191 2.136 . S
