# Generated by pormake.
# Topology nom, (4,4)-cn, num edge types: 1
# Building blocks:
#     Node 0, Type 0, BuildingBlock: MUDLON_clean_linker_0, # of connection points: 4
#     Node 1, Type 0, BuildingBlock: MUDLON_clean_linker_0, # of connection points: 4
#     Node 2, Type 0, BuildingBlock: MUDLON_clean_linker_0, # of connection points: 4
#     Node 3, Type 0, BuildingBlock: MUDLON_clean_linker_0, # of connection points: 4
#     Node 4, Type 0, BuildingBlock: MUDLON_clean_linker_0, # of connection points: 4
#     Node 5, Type 0, BuildingBlock: MUDLON_clean_linker_0, # of connection points: 4
#     Node 6, Type 1, BuildingBlock: QUQFOY_clean_sbu_3, # of connection points: 4
#     Node 7, Type 1, BuildingBlock: QUQFOY_clean_sbu_3, # of connection points: 4
#     Node 8, Type 1, BuildingBlock: QUQFOY_clean_sbu_3, # of connection points: 4
#     Node 9, Type 1, BuildingBlock: QUQFOY_clean_sbu_3, # of connection points: 4
#     Node 10, Type 1, BuildingBlock: QUQFOY_clean_sbu_3, # of connection points: 4
#     Node 11, Type 1, BuildingBlock: QUQFOY_clean_sbu_3, # of connection points: 4
#     Edge 12, Type (0, 1), BuildingBlock: CIFDUS_clean_linker_0, # of connection points: 2
#     Edge 13, Type (0, 1), BuildingBlock: CIFDUS_clean_linker_0, # of connection points: 2
#     Edge 14, Type (0, 1), BuildingBlock: CIFDUS_clean_linker_0, # of connection points: 2
#     Edge 15, Type (0, 1), BuildingBlock: CIFDUS_clean_linker_0, # of connection points: 2
#     Edge 16, Type (0, 1), BuildingBlock: CIFDUS_clean_linker_0, # of connection points: 2
#     Edge 17, Type (0, 1), BuildingBlock: CIFDUS_clean_linker_0, # of connection points: 2
#     Edge 18, Type (0, 1), BuildingBlock: CIFDUS_clean_linker_0, # of connection points: 2
#     Edge 19, Type (0, 1), BuildingBlock: CIFDUS_clean_linker_0, # of connection points: 2
#     Edge 20, Type (0, 1), BuildingBlock: CIFDUS_clean_linker_0, # of connection points: 2
#     Edge 21, Type (0, 1), BuildingBlock: CIFDUS_clean_linker_0, # of connection points: 2
#     Edge 22, Type (0, 1), BuildingBlock: CIFDUS_clean_linker_0, # of connection points: 2
#     Edge 23, Type (0, 1), BuildingBlock: CIFDUS_clean_linker_0, # of connection points: 2
#     Edge 24, Type (0, 1), BuildingBlock: CIFDUS_clean_linker_0, # of connection points: 2
#     Edge 25, Type (0, 1), BuildingBlock: CIFDUS_clean_linker_0, # of connection points: 2
#     Edge 26, Type (0, 1), BuildingBlock: CIFDUS_clean_linker_0, # of connection points: 2
#     Edge 27, Type (0, 1), BuildingBlock: CIFDUS_clean_linker_0, # of connection points: 2
#     Edge 28, Type (0, 1), BuildingBlock: CIFDUS_clean_linker_0, # of connection points: 2
#     Edge 29, Type (0, 1), BuildingBlock: CIFDUS_clean_linker_0, # of connection points: 2
#     Edge 30, Type (0, 1), BuildingBlock: CIFDUS_clean_linker_0, # of connection points: 2
#     Edge 31, Type (0, 1), BuildingBlock: CIFDUS_clean_linker_0, # of connection points: 2
#     Edge 32, Type (0, 1), BuildingBlock: CIFDUS_clean_linker_0, # of connection points: 2
#     Edge 33, Type (0, 1), BuildingBlock: CIFDUS_clean_linker_0, # of connection points: 2
#     Edge 34, Type (0, 1), BuildingBlock: CIFDUS_clean_linker_0, # of connection points: 2
#     Edge 35, Type (0, 1), BuildingBlock: CIFDUS_clean_linker_0, # of connection points: 2
# Relax obj value: 0.007
# Max RMSD: 0.105
# Mean RMSD: 0.061
data_MOF--net-nom--node1-QUQFOY_clean_sbu_3--node2-MUDLON_clean_linker_0--edge1-CIFDUS_clean_linker_0
_symmetry_space_group_name_H-M    P1
_symmetry_Int_Tables_number       1
_symmetry_cell_setting            triclinic
loop_
_symmetry_equiv_pos_as_xyz
'x, y, z'
_cell_length_a     55.002789
_cell_length_b     57.264365
_cell_length_c     55.574695
_cell_angle_alpha  90.384004
_cell_angle_beta   89.843669
_cell_angle_gamma 120.58941
loop_
_atom_site_label
_atom_site_type_symbol
_atom_site_fract_x
_atom_site_fract_y
_atom_site_fract_z
_atom_type_partial_charge
H0 H 0.14069 0.54549 0.30206 0.0
N1 N 0.09959 0.54456 0.32782 0.0
H2 H 0.17423 0.58162 0.27566 0.0
H3 H 0.09761 0.58963 0.31468 0.0
H4 H 0.13187 0.62654 0.28968 0.0
H5 H 0.10764 0.5879 0.35549 0.0
H6 H 0.1307 0.60095 0.39449 0.0
H7 H 0.11367 0.51574 0.35553 0.0
H8 H 0.13591 0.52813 0.39531 0.0
H9 H 0.07113 0.49853 0.30359 0.0
H10 H 0.06061 0.55842 0.342 0.0
H11 H 0.0207 0.47339 0.29408 0.0
H12 H 0.01029 0.53378 0.33219 0.0
H13 H 0.86618 0.39372 0.26105 0.0
H14 H 0.84936 0.39046 0.21975 0.0
H15 H 0.88341 0.47721 0.21958 0.0
H16 H 0.90164 0.48032 0.26006 0.0
H17 H 0.88754 0.48209 0.29866 0.0
H18 H 0.84912 0.48188 0.32079 0.0
H19 H 0.81448 0.39694 0.33688 0.0
H20 H 0.8523 0.39709 0.31346 0.0
H21 H 0.93774 0.45084 0.25945 0.0
H22 H 0.98744 0.478 0.26919 0.0
H23 H 0.96657 0.49062 0.34116 0.0
N24 N 0.89281 0.43788 0.28862 0.0
H25 H 0.91676 0.46391 0.33154 0.0
C26 C 0.11695 0.56497 0.31055 0.0
C27 C 0.13847 0.56297 0.29903 0.0
C28 C 0.15775 0.58378 0.28417 0.0
C29 C 0.15612 0.6073 0.28084 0.0
C30 C 0.13373 0.60872 0.29166 0.0
C31 C 0.1142 0.58767 0.30623 0.0
C32 C 0.10911 0.55082 0.35242 0.0
C33 C 0.11336 0.5745 0.36406 0.0
C34 C 0.1265 0.58192 0.38656 0.0
C35 C 0.13548 0.56576 0.39799 0.0
C36 C 0.12982 0.54136 0.38682 0.0
C37 C 0.11685 0.53407 0.36424 0.0
C38 C 0.06964 0.53021 0.32347 0.0
C39 C 0.05787 0.50621 0.30995 0.0
C40 C 0.02914 0.49205 0.30439 0.0
C41 C 0.0115 0.50171 0.31222 0.0
C42 C 0.02327 0.52571 0.32604 0.0
C43 C 0.05212 0.5399 0.33159 0.0
C44 C 0.88483 0.43709 0.26373 0.0
C45 C 0.87025 0.41199 0.25188 0.0
C46 C 0.86043 0.41019 0.22838 0.0
C47 C 0.86472 0.43354 0.21631 0.0
C48 C 0.87992 0.45882 0.22811 0.0
C49 C 0.89003 0.46062 0.25148 0.0
C50 C 0.87254 0.4394 0.30415 0.0
C51 C 0.87163 0.4634 0.30683 0.0
C52 C 0.84978 0.46332 0.31979 0.0
C53 C 0.82849 0.43932 0.33046 0.0
C54 C 0.83015 0.41565 0.32848 0.0
C55 C 0.85187 0.41572 0.31536 0.0
C56 C 0.92263 0.45632 0.29405 0.0
C57 C 0.9435 0.46007 0.27715 0.0
C58 C 0.97216 0.47533 0.28285 0.0
C59 C 0.981 0.48671 0.30589 0.0
C60 C 0.96047 0.48272 0.32304 0.0
C61 C 0.93172 0.46742 0.31736 0.0
H62 H 0.47759 0.85662 0.45581 0.0
N63 N 0.47587 0.90113 0.44743 0.0
H64 H 0.44496 0.8176 0.47957 0.0
H65 H 0.43451 0.89853 0.47772 0.0
H66 H 0.40307 0.86049 0.50291 0.0
H67 H 0.42398 0.88424 0.42787 0.0
H68 H 0.4091 0.86772 0.38678 0.0
H69 H 0.50786 0.90051 0.41187 0.0
H70 H 0.49332 0.88434 0.3705 0.0
H71 H 0.52771 0.93642 0.46197 0.0
H72 H 0.44789 0.92938 0.44494 0.0
H73 H 0.54851 0.98504 0.46866 0.0
H74 H 0.46783 0.97764 0.45304 0.0
H75 H 0.61298 0.1409 0.49309 0.0
H76 H 0.61892 0.16255 0.5323 0.0
H77 H 0.53064 0.10718 0.54787 0.0
H78 H 0.52476 0.08661 0.50799 0.0
H79 H 0.5202 0.10903 0.47079 0.0
H80 H 0.52004 0.14668 0.45041 0.0
H81 H 0.60034 0.16907 0.41773 0.0
H82 H 0.60075 0.13198 0.43895 0.0
H83 H 0.5746 0.06705 0.49809 0.0
H84 H 0.55069 0.01806 0.49418 0.0
H85 H 0.49863 0.02082 0.43742 0.0
N86 N 0.56562 0.10175 0.47349 0.0
H87 H 0.5212 0.06956 0.44249 0.0
C88 C 0.45878 0.88062 0.46486 0.0
C89 C 0.4616 0.8577 0.46636 0.0
C90 C 0.44293 0.83542 0.48016 0.0
C91 C 0.42113 0.83564 0.49332 0.0
C92 C 0.41915 0.85922 0.4927 0.0
C93 C 0.4375 0.88132 0.47841 0.0
C94 C 0.46709 0.89357 0.42283 0.0
C95 C 0.43932 0.88471 0.41535 0.0
C96 C 0.43088 0.87532 0.39183 0.0
C97 C 0.45002 0.87462 0.37541 0.0
C98 C 0.47799 0.88428 0.38281 0.0
C99 C 0.4864 0.89368 0.40631 0.0
C100 C 0.48628 0.9292 0.45334 0.0
C101 C 0.51453 0.94534 0.46025 0.0
C102 C 0.52629 0.97314 0.46418 0.0
C103 C 0.50985 0.98545 0.46159 0.0
C104 C 0.48129 0.96906 0.45493 0.0
C105 C 0.46969 0.94128 0.4506 0.0
C106 C 0.56863 0.11208 0.49774 0.0
C107 C 0.59505 0.13333 0.50513 0.0
C108 C 0.59836 0.14554 0.52761 0.0
C109 C 0.57528 0.13654 0.5434 0.0
C110 C 0.5488 0.11486 0.5361 0.0
C111 C 0.54544 0.10287 0.51341 0.0
C112 C 0.56081 0.11804 0.45663 0.0
C113 C 0.53738 0.12161 0.45874 0.0
C114 C 0.53727 0.14309 0.44697 0.0
C115 C 0.56049 0.16123 0.43287 0.0
C116 C 0.58243 0.15581 0.4289 0.0
C117 C 0.58259 0.13448 0.44077 0.0
C118 C 0.54961 0.07241 0.4711 0.0
C119 C 0.55762 0.05709 0.48512 0.0
C120 C 0.54413 0.02899 0.48261 0.0
C121 C 0.52275 0.01528 0.46535 0.0
C122 C 0.51462 0.03052 0.45122 0.0
C123 C 0.52779 0.0587 0.45407 0.0
H124 H 0.49366 0.63203 0.66211 0.0
N125 N 0.49132 0.58762 0.67848 0.0
H126 H 0.4598 0.63514 0.63619 0.0
H127 H 0.44656 0.54493 0.65531 0.0
H128 H 0.41357 0.54776 0.62798 0.0
H129 H 0.44074 0.55676 0.7013 0.0
H130 H 0.42744 0.56621 0.74052 0.0
H131 H 0.52481 0.62548 0.71 0.0
H132 H 0.51172 0.63506 0.74952 0.0
H133 H 0.53417 0.59585 0.65077 0.0
H134 H 0.46927 0.53588 0.69649 0.0
H135 H 0.552 0.56525 0.64305 0.0
H136 H 0.48785 0.50581 0.69007 0.0
H137 H 0.61409 0.47346 0.62272 0.0
H138 H 0.61553 0.45698 0.5825 0.0
H139 H 0.52601 0.42627 0.57454 0.0
H140 H 0.52464 0.44151 0.61529 0.0
H141 H 0.52636 0.41291 0.65098 0.0
H142 H 0.53033 0.37697 0.67078 0.0
H143 H 0.61125 0.43706 0.70002 0.0
H144 H 0.6074 0.47272 0.67953 0.0
H145 H 0.59678 0.51876 0.65315 0.0
H146 H 0.57733 0.54786 0.66183 0.0
H147 H 0.49321 0.47723 0.66245 0.0
N148 N 0.56908 0.46559 0.64697 0.0
H149 H 0.51329 0.44827 0.6552 0.0
C150 C 0.47288 0.58841 0.66052 0.0
C151 C 0.47638 0.61363 0.65442 0.0
C152 C 0.45702 0.61531 0.63945 0.0
C153 C 0.43376 0.5917 0.62986 0.0
C154 C 0.43085 0.56638 0.63532 0.0
C155 C 0.44999 0.56471 0.65073 0.0
C156 C 0.48391 0.59043 0.7028 0.0
C157 C 0.45653 0.57354 0.7119 0.0
C158 C 0.44896 0.57896 0.73436 0.0
C159 C 0.46851 0.60145 0.74807 0.0
C160 C 0.49612 0.61776 0.73925 0.0
C161 C 0.50371 0.61222 0.71684 0.0
C162 C 0.50076 0.56854 0.67445 0.0
C163 C 0.52396 0.57617 0.65932 0.0
C164 C 0.53424 0.55868 0.65513 0.0
C165 C 0.52169 0.53311 0.66624 0.0
C166 C 0.498 0.52523 0.68108 0.0
C167 C 0.48749 0.54265 0.685 0.0
C168 C 0.56947 0.45905 0.62196 0.0
C169 C 0.59492 0.46357 0.61207 0.0
C170 C 0.59566 0.45419 0.58901 0.0
C171 C 0.57087 0.44027 0.57511 0.0
C172 C 0.54545 0.43654 0.58479 0.0
C173 C 0.54469 0.44562 0.60806 0.0
C174 C 0.56683 0.44547 0.66362 0.0
C175 C 0.54449 0.41841 0.66229 0.0
C176 C 0.5468 0.39786 0.67365 0.0
C177 C 0.5714 0.40413 0.68654 0.0
C178 C 0.59232 0.43153 0.68978 0.0
C179 C 0.59005 0.45196 0.67834 0.0
C180 C 0.55654 0.48154 0.65328 0.0
C181 C 0.57417 0.50964 0.65539 0.0
C182 C 0.56293 0.52622 0.66008 0.0
C183 C 0.53357 0.51503 0.66245 0.0
C184 C 0.5159 0.48662 0.66088 0.0
C185 C 0.52731 0.46999 0.6565 0.0
H186 H 0.13019 0.57539 0.79714 0.0
N187 N 0.0961 0.52451 0.77886 0.0
H188 H 0.1687 0.589 0.82583 0.0
H189 H 0.11084 0.49257 0.80074 0.0
H190 H 0.15008 0.50602 0.82871 0.0
H191 H 0.10216 0.49477 0.74545 0.0
H192 H 0.12044 0.50831 0.70461 0.0
H193 H 0.11077 0.57291 0.75802 0.0
H194 H 0.12953 0.58695 0.71706 0.0
H195 H 0.08139 0.55847 0.80078 0.0
H196 H 0.04845 0.47813 0.77146 0.0
H197 H 0.03404 0.54669 0.8137 0.0
H198 H 0.00073 0.46655 0.78276 0.0
H199 H 0.86046 0.4834 0.845 0.0
H200 H 0.83765 0.46969 0.88412 0.0
H201 H 0.89826 0.44693 0.90555 0.0
H202 H 0.91985 0.45917 0.86622 0.0
H203 H 0.87478 0.42006 0.83424 0.0
H204 H 0.83648 0.38444 0.81065 0.0
H205 H 0.83904 0.44483 0.76279 0.0
H206 H 0.8775 0.48063 0.78682 0.0
H207 H 0.94095 0.52379 0.81402 0.0
H208 H 0.98904 0.53729 0.80149 0.0
H209 H 0.97175 0.45614 0.81618 0.0
N210 N 0.89993 0.4748 0.82711 0.0
H211 H 0.92374 0.44267 0.82716 0.0
C212 C 0.11754 0.53286 0.79702 0.0
C213 C 0.13405 0.56007 0.80431 0.0
C214 C 0.15629 0.56786 0.82055 0.0
C215 C 0.16262 0.54864 0.82957 0.0
C216 C 0.1456 0.52132 0.8225 0.0
C217 C 0.12326 0.51357 0.80644 0.0
C218 C 0.10532 0.53285 0.75463 0.0
C219 C 0.10783 0.5148 0.73921 0.0
C220 C 0.11815 0.52256 0.71593 0.0
C221 C 0.12635 0.54869 0.70763 0.0
C222 C 0.12354 0.56676 0.72306 0.0
C223 C 0.11287 0.55881 0.74639 0.0
C224 C 0.06841 0.51889 0.78559 0.0
C225 C 0.06393 0.53832 0.79702 0.0
C226 C 0.0367 0.53159 0.80417 0.0
C227 C 0.01341 0.5055 0.79958 0.0
C228 C 0.01809 0.48655 0.78731 0.0
C229 C 0.0453 0.49316 0.78058 0.0
C230 C 0.89168 0.47216 0.85219 0.0
C231 C 0.86917 0.47596 0.85833 0.0
C232 C 0.85618 0.46814 0.88082 0.0
C233 C 0.86579 0.45675 0.89801 0.0
C234 C 0.88973 0.45487 0.89254 0.0
C235 C 0.90239 0.46221 0.86986 0.0
C236 C 0.8791 0.45312 0.8122 0.0
C237 C 0.86754 0.42568 0.81843 0.0
C238 C 0.8456 0.40528 0.80489 0.0
C239 C 0.83469 0.41181 0.78487 0.0
C240 C 0.8468 0.43919 0.77828 0.0
C241 C 0.86884 0.45961 0.79183 0.0
C242 C 0.92872 0.48237 0.82168 0.0
C243 C 0.94772 0.50905 0.81459 0.0
C244 C 0.97523 0.51672 0.80755 0.0
C245 C 0.9844 0.49781 0.80767 0.0
C246 C 0.96539 0.47117 0.81526 0.0
C247 C 0.93782 0.46344 0.82186 0.0
H248 H 0.50072 0.15811 0.95307 0.0
N249 N 0.50691 0.11612 0.94388 0.0
H250 H 0.53075 0.19772 0.97775 0.0
H251 H 0.54884 0.12139 0.97456 0.0
H252 H 0.57781 0.15999 0.0006 0.0
H253 H 0.55886 0.12978 0.92638 0.0
H254 H 0.57697 0.14731 0.88619 0.0
H255 H 0.47851 0.12052 0.90742 0.0
H256 H 0.49637 0.13797 0.86707 0.0
H257 H 0.4532 0.08143 0.95324 0.0
H258 H 0.53396 0.08698 0.9463 0.0
H259 H 0.43067 0.03278 0.95987 0.0
H260 H 0.51223 0.03878 0.95489 0.0
H261 H 0.36707 0.87698 -0.0049 0.0
H262 H 0.3653 0.85745 0.0343 0.0
H263 H 0.45411 0.91585 0.04464 0.0
H264 H 0.45587 0.93398 0.00454 0.0
H265 H 0.4532 0.90285 0.96791 0.0
H266 H 0.44778 0.86302 0.94664 0.0
H267 H 0.3692 0.849 0.91617 0.0
H268 H 0.37431 0.88826 0.93843 0.0
H269 H 0.39878 0.95066 0.99115 0.0
H270 H 0.42342 -0.00038 0.9865 0.0
H271 H 0.48406 0.99539 0.93965 0.0
N272 N 0.41194 0.91578 0.97268 0.0
H273 H 0.46056 0.94671 0.94606 0.0
C274 C 0.52224 0.13666 0.96194 0.0
C275 C 0.51724 0.15826 0.96375 0.0
C276 C 0.53444 0.18088 0.97804 0.0
C277 C 0.55696 0.18231 0.99128 0.0
C278 C 0.56111 0.15998 0.99033 0.0
C279 C 0.54418 0.13754 0.97559 0.0
C280 C 0.51726 0.12377 0.91973 0.0
C281 C 0.54495 0.13099 0.91338 0.0
C282 C 0.55526 0.14102 0.89041 0.0
C283 C 0.53811 0.14414 0.87353 0.0
C284 C 0.51017 0.13611 0.87979 0.0
C285 C 0.49987 0.12598 0.90268 0.0
C286 C 0.49522 0.08797 0.94983 0.0
C287 C 0.46615 0.07218 0.95381 0.0
C288 C 0.45338 0.04433 0.95775 0.0
C289 C 0.46956 0.03159 0.95824 0.0
C290 C 0.49891 0.04763 0.95442 0.0
C291 C 0.51156 0.07545 0.94992 0.0
C292 C 0.41138 0.90702 -0.00295 0.0
C293 C 0.38602 0.88569 0.00601 0.0
C294 C 0.38509 0.8747 0.02853 0.0
C295 C 0.40954 0.88515 0.04289 0.0
C296 C 0.43494 0.90703 0.03404 0.0
C297 C 0.43593 0.91769 0.01123 0.0
C298 C 0.41383 0.8982 0.95502 0.0
C299 C 0.43525 0.89166 0.9561 0.0
C300 C 0.43214 0.86888 0.94381 0.0
C301 C 0.4077 0.85242 0.93011 0.0
C302 C 0.38793 0.86085 0.92704 0.0
C303 C 0.39094 0.88345 0.93949 0.0
C304 C 0.42748 0.94479 0.96893 0.0
C305 C 0.41752 0.96037 0.98001 0.0
C306 C 0.43155 0.98843 0.97709 0.0
C307 C 0.45566 0.00172 0.96239 0.0
C308 C 0.46582 0.98608 0.95136 0.0
C309 C 0.4521 0.95797 0.95481 0.0
H310 H 0.52039 0.41459 0.15505 0.0
N311 N 0.52931 0.45927 0.17784 0.0
H312 H 0.55275 0.40944 0.12821 0.0
H313 H 0.5806 0.50016 0.16169 0.0
H314 H 0.61352 0.49508 0.13622 0.0
H315 H 0.57957 0.48719 0.20255 0.0
H316 H 0.58864 0.47909 0.24339 0.0
H317 H 0.49281 0.42252 0.2086 0.0
H318 H 0.50214 0.41396 0.24998 0.0
H319 H 0.49017 0.45676 0.14831 0.0
H320 H 0.55608 0.51132 0.19699 0.0
H321 H 0.48148 0.49337 0.13751 0.0
H322 H 0.54753 0.54742 0.18636 0.0
H323 H 0.45829 0.58229 0.10975 0.0
H324 H 0.44211 0.58732 0.0703 0.0
H325 H 0.52305 0.65977 0.05825 0.0
H326 H 0.53925 0.65398 0.09747 0.0
H327 H 0.53587 0.66829 0.14616 0.0
H328 H 0.51522 0.6917 0.16723 0.0
H329 H 0.43587 0.61597 0.17243 0.0
H330 H 0.45667 0.59287 0.15106 0.0
H331 H 0.50749 0.5767 0.10233 0.0
H332 H 0.50895 0.53726 0.11541 0.0
H333 H 0.51209 0.56166 0.18946 0.0
N334 N 0.50936 0.61721 0.13069 0.0
H335 H 0.51064 0.60138 0.17663 0.0
C336 C 0.54799 0.4576 0.16051 0.0
C337 C 0.54054 0.43225 0.15063 0.0
C338 C 0.55921 0.42935 0.1355 0.0
C339 C 0.58595 0.45179 0.13016 0.0
C340 C 0.59302 0.47737 0.13959 0.0
C341 C 0.57421 0.48029 0.15442 0.0
C342 C 0.53522 0.45564 0.20244 0.0
C343 C 0.5623 0.47137 0.21264 0.0
C344 C 0.56752 0.46676 0.23613 0.0
C345 C 0.54603 0.44606 0.24989 0.0
C346 C 0.51905 0.43008 0.23972 0.0
C347 C 0.51369 0.43501 0.21622 0.0
C348 C 0.52353 0.48088 0.17358 0.0
C349 C 0.50249 0.47644 0.15689 0.0
C350 C 0.49768 0.49737 0.15066 0.0
C351 C 0.51378 0.52325 0.16115 0.0
C352 C 0.53446 0.52759 0.17824 0.0
C353 C 0.53942 0.50675 0.18431 0.0
C354 C 0.50014 0.61777 0.10648 0.0
C355 C 0.47263 0.59906 0.09849 0.0
C356 C 0.46335 0.60209 0.07597 0.0
C357 C 0.4812 0.62406 0.06111 0.0
C358 C 0.50886 0.64238 0.06901 0.0
C359 C 0.51817 0.63919 0.09143 0.0
C360 C 0.49788 0.62899 0.14693 0.0
C361 C 0.51423 0.6567 0.15237 0.0
C362 C 0.50238 0.66999 0.16445 0.0
C363 C 0.4738 0.65574 0.17132 0.0
C364 C 0.45781 0.6276 0.16701 0.0
C365 C 0.46969 0.61434 0.15489 0.0
C366 C 0.507 0.5918 0.13838 0.0
C367 C 0.50732 0.57338 0.12148 0.0
C368 C 0.50835 0.55066 0.12895 0.0
C369 C 0.51016 0.54609 0.15347 0.0
C370 C 0.51046 0.56452 0.17041 0.0
C371 C 0.50923 0.58717 0.16298 0.0
C372 C 0.68246 0.41359 0.38573 0.0
O373 O 0.68429 0.43528 0.39372 0.0
Cd374 Cd 0.64498 0.43564 0.41227 0.0
O375 O 0.65985 0.39077 0.38851 0.0
Cd376 Cd 0.61232 0.3691 0.40732 0.0
C377 C 0.59397 0.4026 0.36797 0.0
O378 O 0.62826 0.40012 0.44098 0.0
O379 O 0.5834 0.37212 0.44023 0.0
O380 O 0.62537 0.33652 0.41927 0.0
C381 C 0.60444 0.39163 0.45077 0.0
O382 O 0.61077 0.424 0.37975 0.0
C383 C 0.60256 0.31539 0.41305 0.0
O384 O 0.5911 0.37974 0.37347 0.0
O385 O 0.58344 0.31897 0.40409 0.0
C386 C 0.29886 0.5861 0.5699 0.0
O387 O 0.27584 0.56538 0.56338 0.0
Cd388 Cd 0.23834 0.56846 0.5448 0.0
O389 O 0.30286 0.60989 0.56706 0.0
Cd390 Cd 0.27695 0.63186 0.55141 0.0
C391 C 0.22408 0.5992 0.59158 0.0
O392 O 0.25906 0.60356 0.51524 0.0
O393 O 0.24081 0.62825 0.52322 0.0
O394 O 0.32461 0.66735 0.54054 0.0
C395 C 0.24303 0.61224 0.50876 0.0
O396 O 0.21589 0.57865 0.57783 0.0
C397 C 0.32094 0.68711 0.54488 0.0
O398 O 0.24714 0.62119 0.58742 0.0
O399 O 0.29681 0.68137 0.55269 0.0
C400 C 0.70705 0.27827 0.72548 0.0
O401 O 0.70616 0.25645 0.71927 0.0
Cd402 Cd 0.66483 0.21792 0.70281 0.0
O403 O 0.68543 0.28076 0.72301 0.0
Cd404 Cd 0.63596 0.25545 0.70806 0.0
C405 C 0.61846 0.20541 0.74935 0.0
O406 O 0.64806 0.23715 0.67385 0.0
O407 O 0.60374 0.22324 0.67717 0.0
O408 O 0.64652 0.30012 0.69536 0.0
C409 C 0.62336 0.2229 0.66544 0.0
O410 O 0.63311 0.19813 0.73711 0.0
C411 C 0.62399 0.29836 0.70329 0.0
O412 O 0.61688 0.22603 0.74326 0.0
O413 O 0.60653 0.27631 0.71357 0.0
C414 C 0.31327 0.60698 0.89237 0.0
O415 O 0.3138 0.5886 0.9046 0.0
Cd416 Cd 0.35697 0.59454 0.92072 0.0
O417 O 0.33554 0.63014 0.89001 0.0
Cd418 Cd 0.38532 0.65585 0.90433 0.0
C419 C 0.39853 0.61506 0.86957 0.0
O420 O 0.37859 0.63551 0.94414 0.0
O421 O 0.42158 0.65845 0.93147 0.0
O422 O 0.37554 0.69185 0.91295 0.0
C423 C 0.40467 0.64541 0.94841 0.0
O424 O 0.38498 0.59698 0.8854 0.0
C425 C 0.39759 0.7108 0.90314 0.0
O426 O 0.40101 0.63839 0.8713 0.0
O427 O 0.41434 0.70431 0.89351 0.0
C428 C 0.69869 0.41882 0.073 0.0
O429 O 0.72107 0.44081 0.06769 0.0
Cd430 Cd 0.76287 0.44287 0.05233 0.0
O431 O 0.69689 0.39597 0.06937 0.0
Cd432 Cd 0.72565 0.37769 0.05184 0.0
C433 C 0.77387 0.40737 0.0966 0.0
O434 O 0.74598 0.41119 0.0197 0.0
O435 O 0.76317 0.38499 0.02328 0.0
O436 O 0.67961 0.34147 0.03758 0.0
C437 C 0.7626 0.40375 0.01181 0.0
O438 O 0.7824 0.42975 0.08575 0.0
C439 C 0.68472 0.32243 0.04065 0.0
O440 O 0.75257 0.38555 0.0889 0.0
O441 O 0.70875 0.32895 0.04922 0.0
C442 C 0.29482 0.73246 0.22451 0.0
O443 O 0.29046 0.75132 0.21827 0.0
Cd444 Cd 0.3275 0.79395 0.20311 0.0
O445 O 0.31903 0.73496 0.22166 0.0
Cd446 Cd 0.36633 0.7668 0.20499 0.0
C447 C 0.3764 0.81289 0.2486 0.0
O448 O 0.34962 0.78237 0.17187 0.0
O449 O 0.39487 0.80323 0.17619 0.0
O450 O 0.36479 0.72684 0.18793 0.0
C451 C 0.37378 0.80017 0.16434 0.0
O452 O 0.35857 0.81679 0.23747 0.0
C453 C 0.38833 0.73175 0.19645 0.0
O454 O 0.38225 0.79523 0.24112 0.0
O455 O 0.40186 0.75314 0.20915 0.0
H456 H 0.21252 0.62574 0.28075 0.0
H457 H 0.1504 0.64217 0.25079 0.0
H458 H 0.18781 0.68252 0.23105 0.0
H459 H 0.2383 0.71354 0.22277 0.0
H460 H 0.29978 0.69529 0.25104 0.0
H461 H 0.26229 0.65485 0.2705 0.0
C462 C 0.20698 0.63775 0.26952 0.0
C463 C 0.17858 0.63084 0.26737 0.0
C464 C 0.22851 0.66065 0.2579 0.0
C465 C 0.17207 0.64717 0.25313 0.0
C466 C 0.19345 0.67019 0.2417 0.0
C467 C 0.24348 0.70069 0.23318 0.0
C468 C 0.27181 0.70752 0.23556 0.0
C469 C 0.22177 0.67725 0.24413 0.0
C470 C 0.27815 0.6905 0.24888 0.0
C471 C 0.25673 0.66739 0.26007 0.0
H472 H 0.60759 0.21058 0.43632 0.0
H473 H 0.52062 0.17118 0.41342 0.0
H474 H 0.52593 0.21547 0.40464 0.0
H475 H 0.55522 0.2657 0.4049 0.0
H476 H 0.64199 0.3039 0.42856 0.0
H477 H 0.63685 0.25971 0.43528 0.0
C478 C 0.5899 0.21155 0.4289 0.0
C479 C 0.56383 0.18757 0.4253 0.0
C480 C 0.59304 0.23693 0.42417 0.0
C481 C 0.54093 0.18935 0.41637 0.0
C482 C 0.54397 0.21466 0.41135 0.0
C483 C 0.57299 0.2643 0.41143 0.0
C484 C 0.59891 0.28813 0.41631 0.0
C485 C 0.56988 0.23865 0.41544 0.0
C486 C 0.62175 0.28596 0.42476 0.0
C487 C 0.61888 0.26067 0.42859 0.0
H488 H 0.37672 0.55623 0.62894 0.0
H489 H 0.44158 0.63146 0.59794 0.0
H490 H 0.40566 0.63673 0.57733 0.0
H491 H 0.35563 0.62055 0.56875 0.0
H492 H 0.29135 0.54344 0.59681 0.0
H493 H 0.32737 0.53807 0.61746 0.0
C494 C 0.38321 0.57352 0.61729 0.0
C495 C 0.41199 0.59355 0.61536 0.0
C496 C 0.36249 0.57614 0.60494 0.0
C497 C 0.41964 0.616 0.60037 0.0
C498 C 0.39909 0.61898 0.58839 0.0
C499 C 0.34957 0.60257 0.57937 0.0
C500 C 0.3209 0.58253 0.58145 0.0
C501 C 0.37043 0.59934 0.59078 0.0
C502 C 0.31331 0.55913 0.59494 0.0
C503 C 0.33388 0.55608 0.60679 0.0
H504 H 0.82506 0.36204 0.77136 0.0
H505 H 0.7883 0.41298 0.76926 0.0
H506 H 0.74591 0.37643 0.75017 0.0
H507 H 0.7185 0.32945 0.73564 0.0
H508 H 0.75505 0.27827 0.73817 0.0
H509 H 0.79814 0.31539 0.75579 0.0
C510 C 0.80774 0.36511 0.76676 0.0
C511 C 0.80983 0.39017 0.77178 0.0
C512 C 0.7833 0.34391 0.75603 0.0
C513 C 0.78739 0.394 0.76535 0.0
C514 C 0.76304 0.37303 0.75461 0.0
C515 C 0.73587 0.32637 0.74003 0.0
C516 C 0.73342 0.30101 0.73571 0.0
C517 C 0.76064 0.34782 0.75011 0.0
C518 C 0.75629 0.29753 0.74133 0.0
C519 C 0.78097 0.31875 0.75142 0.0
H520 H 0.44313 0.83666 0.91058 0.0
H521 H 0.35678 0.80574 0.93281 0.0
H522 H 0.34581 0.75963 0.92481 0.0
H523 H 0.36126 0.7277 0.91474 0.0
H524 H 0.44744 0.75745 0.89303 0.0
H525 H 0.45794 0.80427 0.89772 0.0
C526 C 0.42189 0.81983 0.91351 0.0
C527 C 0.40085 0.82482 0.92223 0.0
C528 C 0.41571 0.79308 0.90923 0.0
C529 C 0.37333 0.80272 0.9257 0.0
C530 C 0.36705 0.77622 0.92138 0.0
C531 C 0.38232 0.74441 0.91088 0.0
C532 C 0.4036 0.73911 0.90381 0.0
C533 C 0.38817 0.77114 0.91362 0.0
C534 C 0.43068 0.761 0.89858 0.0
C535 C 0.43671 0.78777 0.90132 0.0
H536 H 0.59524 0.40924 0.13071 0.0
H537 H 0.62422 0.48696 0.09732 0.0
H538 H 0.66158 0.48359 0.07687 0.0
H539 H 0.68706 0.45937 0.06949 0.0
H540 H 0.65634 0.38045 0.10076 0.0
H541 H 0.61817 0.38327 0.12058 0.0
C542 C 0.60929 0.42523 0.1186 0.0
C543 C 0.60698 0.44848 0.11586 0.0
C544 C 0.63049 0.42299 0.10653 0.0
C545 C 0.6258 0.46911 0.10028 0.0
C546 C 0.64712 0.46715 0.08843 0.0
C547 C 0.67196 0.44276 0.08061 0.0
C548 C 0.67468 0.41986 0.08386 0.0
C549 C 0.64989 0.44437 0.09169 0.0
C550 C 0.65472 0.39832 0.098 0.0
C551 C 0.63294 0.39994 0.10938 0.0
H552 H 0.42866 0.79746 0.51609 0.0
H553 H 0.3645 0.81714 0.49922 0.0
H554 H 0.32854 0.77448 0.51656 0.0
H555 H 0.31435 0.72942 0.53282 0.0
H556 H 0.37767 0.70759 0.54485 0.0
H557 H 0.4147 0.75289 0.53264 0.0
C558 C 0.40682 0.79245 0.51597 0.0
C559 C 0.39956 0.81071 0.50611 0.0
C560 C 0.38592 0.76723 0.52493 0.0
C561 C 0.37109 0.80392 0.50692 0.0
C562 C 0.35031 0.77928 0.51662 0.0
C563 C 0.33631 0.73476 0.53307 0.0
C564 C 0.34332 0.71527 0.53972 0.0
C565 C 0.35739 0.76052 0.52519 0.0
C566 C 0.37178 0.72227 0.5397 0.0
C567 C 0.39295 0.74815 0.53272 0.0
H568 H 0.61995 0.40383 0.68037 0.0
H569 H 0.53521 0.35505 0.7077 0.0
H570 H 0.54413 0.31805 0.71599 0.0
H571 H 0.5758 0.29915 0.71408 0.0
H572 H 0.66017 0.3486 0.68589 0.0
H573 H 0.65166 0.38588 0.67965 0.0
C574 C 0.60357 0.38534 0.68862 0.0
C575 C 0.57704 0.38233 0.69363 0.0
C576 C 0.60874 0.3642 0.69305 0.0
C577 C 0.55581 0.35787 0.70365 0.0
C578 C 0.56092 0.33674 0.7084 0.0
C579 C 0.59234 0.31813 0.70669 0.0
C580 C 0.61856 0.32101 0.70039 0.0
C581 C 0.58724 0.33957 0.70293 0.0
C582 C 0.63976 0.34574 0.6908 0.0
C583 C 0.63494 0.36713 0.68723 0.0
H584 H 0.21445 0.59438 0.82602 0.0
H585 H 0.16733 0.52185 0.86835 0.0
H586 H 0.20959 0.53374 0.89176 0.0
H587 H 0.26033 0.5638 0.89919 0.0
H588 H 0.30695 0.63709 0.85772 0.0
H589 H 0.26424 0.62607 0.8354 0.0
C590 C 0.2132 0.5814 0.84066 0.0
C591 C 0.18771 0.55712 0.84524 0.0
C592 C 0.23753 0.58846 0.85421 0.0
C593 C 0.18675 0.54039 0.86409 0.0
C594 C 0.21089 0.54724 0.87759 0.0
C595 C 0.26114 0.57744 0.88534 0.0
C596 C 0.28689 0.60113 0.88003 0.0
C597 C 0.23648 0.57103 0.87259 0.0
C598 C 0.28746 0.6187 0.86219 0.0
C599 C 0.26305 0.61239 0.84935 0.0
H600 H 0.61396 0.2045 -0.00234 0.0
H601 H 0.54525 0.21777 0.01507 0.0
H602 H 0.57865 0.26213 0.03184 0.0
H603 H 0.62766 0.29835 0.0396 0.0
H604 H 0.69576 0.28344 0.02564 0.0
H605 H 0.66213 0.23818 0.01008 0.0
C606 C 0.60603 0.21666 0.00563 0.0
C607 C 0.57697 0.20774 0.00456 0.0
C608 C 0.6253 0.24197 0.01584 0.0
C609 C 0.56749 0.22425 0.01486 0.0
C610 C 0.58658 0.24963 0.02465 0.0
C611 C 0.63506 0.28507 0.03331 0.0
C612 C 0.66411 0.29425 0.03348 0.0
C613 C 0.61558 0.25892 0.0248 0.0
C614 C 0.67346 0.27678 0.02565 0.0
C615 C 0.65426 0.25095 0.01668 0.0
H616 H 0.42251 0.6482 0.15927 0.0
H617 H 0.49493 0.69728 0.20439 0.0
H618 H 0.47456 0.72479 0.2167 0.0
H619 H 0.43712 0.73615 0.21311 0.0
H620 H 0.36476 0.68659 0.16799 0.0
H621 H 0.38402 0.6578 0.15753 0.0
C622 C 0.43361 0.66455 0.1722 0.0
C623 C 0.46023 0.67066 0.18087 0.0
C624 C 0.42186 0.68032 0.17909 0.0
C625 C 0.47454 0.6923 0.19724 0.0
C626 C 0.46288 0.70801 0.20432 0.0
C627 C 0.42551 0.71897 0.20109 0.0
C628 C 0.39962 0.71366 0.19123 0.0
C629 C 0.43674 0.70246 0.19507 0.0
C630 C 0.38478 0.69123 0.17578 0.0
C631 C 0.39577 0.67472 0.16976 0.0
H632 H 0.77334 0.39906 0.32892 0.0
H633 H 0.82869 0.47837 0.35953 0.0
H634 H 0.78834 0.47788 0.37847 0.0
H635 H 0.73734 0.45472 0.3867 0.0
H636 H 0.68259 0.37443 0.35766 0.0
H637 H 0.72284 0.37541 0.33809 0.0
C638 C 0.77672 0.4161 0.34004 0.0
C639 C 0.8041 0.4387 0.34276 0.0
C640 C 0.7535 0.41553 0.35117 0.0
C641 C 0.80785 0.46083 0.35682 0.0
C642 C 0.78479 0.46052 0.36779 0.0
C643 C 0.73419 0.43748 0.376 0.0
C644 C 0.70696 0.41458 0.37359 0.0
C645 C 0.75751 0.438 0.36504 0.0
C646 C 0.70332 0.39231 0.35986 0.0
C647 C 0.72632 0.39284 0.34864 0.0
H648 H 0.18095 0.5616 0.41044 0.0
H649 H 0.12768 0.59141 0.43656 0.0
H650 H 0.15679 0.60918 0.47269 0.0
H651 H 0.19748 0.6164 0.49682 0.0
H652 H 0.2493 0.58467 0.47145 0.0
H653 H 0.22036 0.56719 0.43518 0.0
C654 C 0.17535 0.57155 0.42419 0.0
C655 C 0.1521 0.57512 0.42071 0.0
C656 C 0.19198 0.58147 0.44504 0.0
C657 C 0.14563 0.58864 0.43857 0.0
C658 C 0.1622 0.59873 0.4593 0.0
C659 C 0.20247 0.60571 0.48332 0.0
C660 C 0.22557 0.60194 0.48676 0.0
C661 C 0.18552 0.59539 0.46266 0.0
C662 C 0.23162 0.58784 0.46923 0.0
C663 C 0.21509 0.57783 0.44849 0.0
H664 H 0.62043 0.15643 0.57371 0.0
H665 H 0.53815 0.14789 0.5663 0.0
H666 H 0.54507 0.17248 0.60407 0.0
H667 H 0.5755 0.19845 0.63827 0.0
H668 H 0.65901 0.20954 0.64378 0.0
H669 H 0.65079 0.18245 0.6074 0.0
C670 C 0.60407 0.16013 0.58017 0.0
C671 C 0.57885 0.15033 0.56703 0.0
C672 C 0.60849 0.17497 0.60151 0.0
C673 C 0.55764 0.15482 0.57612 0.0
C674 C 0.56167 0.16912 0.59764 0.0
C675 C 0.59183 0.19482 0.63153 0.0
C676 C 0.61783 0.20602 0.64366 0.0
C677 C 0.58714 0.17954 0.61036 0.0
C678 C 0.63886 0.20127 0.63469 0.0
C679 C 0.63417 0.18573 0.61392 0.0
H680 H 0.43678 0.56769 0.78416 0.0
H681 H 0.47993 0.65162 0.76268 0.0
H682 H 0.46281 0.66344 0.79867 0.0
H683 H 0.43397 0.64963 0.83537 0.0
H684 H 0.39072 0.56556 0.85676 0.0
H685 H 0.40933 0.55414 0.82163 0.0
C686 C 0.44241 0.58856 0.78737 0.0
C687 C 0.45955 0.60872 0.77076 0.0
C688 C 0.43235 0.59519 0.80802 0.0
C689 C 0.46701 0.63575 0.77532 0.0
C690 C 0.45707 0.6425 0.79581 0.0
C691 C 0.42865 0.62881 0.8324 0.0
C692 C 0.41082 0.6085 0.84866 0.0
C693 C 0.43949 0.62234 0.81216 0.0
C694 C 0.40436 0.58166 0.84457 0.0
C695 C 0.41497 0.57506 0.82444 0.0
H696 H 0.83773 0.47542 0.92554 0.0
H697 H 0.85667 0.41094 0.92132 0.0
H698 H 0.82775 0.3898 0.95669 0.0
H699 H 0.79501 0.3881 0.98766 0.0
H700 H 0.77324 0.45061 0.99012 0.0
H701 H 0.80471 0.47354 0.95625 0.0
C702 C 0.83543 0.45664 0.93219 0.0
C703 C 0.84958 0.44497 0.92065 0.0
C704 C 0.81794 0.44399 0.95213 0.0
C705 C 0.84664 0.42085 0.92998 0.0
C706 C 0.82978 0.40849 0.95011 0.0
C707 C 0.79721 0.40678 0.98082 0.0
C708 C 0.78177 0.41759 0.99136 0.0
C709 C 0.81508 0.41969 0.96115 0.0
C710 C 0.78478 0.44177 0.98225 0.0
C711 C 0.80283 0.45494 0.96292 0.0
H712 H 0.36634 0.86363 0.07537 0.0
H713 H 0.45048 0.8778 0.06364 0.0
H714 H 0.44761 0.8546 0.10107 0.0
H715 H 0.4201 0.82773 0.13597 0.0
H716 H 0.3344 0.80988 0.14521 0.0
H717 H 0.33877 0.83645 0.10958 0.0
C718 C 0.384 0.86144 0.08077 0.0
C719 C 0.40853 0.87245 0.06649 0.0
C720 C 0.38184 0.84714 0.10182 0.0
C721 C 0.43144 0.86997 0.07432 0.0
C722 C 0.42974 0.85642 0.09565 0.0
C723 C 0.40247 0.82982 0.13022 0.0
C724 C 0.37697 0.81687 0.14314 0.0
C725 C 0.4049 0.84461 0.10938 0.0
C726 C 0.3542 0.81953 0.13545 0.0
C727 C 0.3567 0.83477 0.11512 0.0
H728 H 0.53499 0.39806 0.26918 0.0
H729 H 0.57186 0.48319 0.28559 0.0
H730 H 0.588 0.47669 0.32451 0.0
H731 H 0.59492 0.44779 0.35224 0.0
H732 H 0.55971 0.36278 0.33573 0.0
H733 H 0.53932 0.36818 0.29862 0.0
C734 C 0.54611 0.41502 0.28151 0.0
C735 C 0.55241 0.44109 0.27455 0.0
C736 C 0.5558 0.41122 0.30371 0.0
C737 C 0.56705 0.463 0.29053 0.0
C738 C 0.57627 0.4593 0.31275 0.0
C739 C 0.58261 0.43032 0.34068 0.0
C740 C 0.57913 0.40497 0.34671 0.0
C741 C 0.57133 0.43364 0.31926 0.0
C742 C 0.56287 0.38257 0.33152 0.0
C743 C 0.55124 0.38565 0.31025 0.0
H744 H 0.41606 0.88196 0.34463 0.0
H745 H 0.46236 0.84008 0.35162 0.0
H746 H 0.44486 0.81838 0.31251 0.0
H747 H 0.41469 0.80962 0.27723 0.0
H748 H 0.36758 0.85083 0.27056 0.0
H749 H 0.387 0.87428 0.30867 0.0
C750 C 0.42225 0.86803 0.3376 0.0
C751 C 0.44044 0.86263 0.35105 0.0
C752 C 0.41189 0.85539 0.3152 0.0
C753 C 0.44864 0.84485 0.34153 0.0
C754 C 0.43849 0.83228 0.31923 0.0
C755 C 0.40875 0.82382 0.28401 0.0
C756 C 0.38955 0.82829 0.27105 0.0
C757 C 0.41988 0.83718 0.30602 0.0
C758 C 0.38223 0.84688 0.28015 0.0
C759 C 0.3933 0.86032 0.30198 0.0
H760 H 0.6126 0.46199 0.54131 0.0
H761 H 0.5305 0.39194 0.55509 0.0
H762 H 0.53282 0.37152 0.51717 0.0
H763 H 0.55937 0.37228 0.48109 0.0
H764 H 0.64297 0.44081 0.46928 0.0
H765 H 0.63907 0.46271 0.50568 0.0
C766 C 0.59526 0.44215 0.53619 0.0
C767 C 0.57146 0.4286 0.55121 0.0
C768 C 0.59711 0.43007 0.51476 0.0
C769 C 0.54895 0.40315 0.54383 0.0
C770 C 0.55036 0.39127 0.52221 0.0
C771 C 0.57665 0.39206 0.48646 0.0
C772 C 0.60144 0.40486 0.47257 0.0
C773 C 0.57449 0.40438 0.50768 0.0
C774 C 0.62373 0.43043 0.47977 0.0
C775 C 0.6215 0.44302 0.50054 0.0
H776 H 0.17391 0.59554 0.69469 0.0
H777 H 0.10651 0.52008 0.66589 0.0
H778 H 0.12989 0.53027 0.62679 0.0
H779 H 0.17119 0.55846 0.60197 0.0
H780 H 0.23936 0.63373 0.63043 0.0
H781 H 0.21371 0.62602 0.66835 0.0
C782 C 0.16411 0.58163 0.6797 0.0
C783 C 0.13869 0.55696 0.68323 0.0
C784 C 0.17787 0.58747 0.65729 0.0
C785 C 0.12629 0.53901 0.6637 0.0
C786 C 0.13962 0.54483 0.64134 0.0
C787 C 0.18041 0.57334 0.61636 0.0
C788 C 0.20734 0.59647 0.61344 0.0
C789 C 0.16574 0.56864 0.63813 0.0
C790 C 0.21872 0.61569 0.63221 0.0
C791 C 0.2041 0.61124 0.65394 0.0
H792 H 0.57049 0.13413 0.84291 0.0
H793 H 0.53197 0.18314 0.85133 0.0
H794 H 0.55256 0.20577 0.81329 0.0
H795 H 0.58285 0.21278 0.77837 0.0
H796 H 0.62156 0.16383 0.77002 0.0
H797 H 0.59965 0.14019 0.8073 0.0
C798 C 0.56668 0.14981 0.83642 0.0
C799 C 0.54976 0.15696 0.84992 0.0
C800 C 0.57867 0.16283 0.81458 0.0
C801 C 0.54466 0.17705 0.84113 0.0
C802 C 0.55657 0.19012 0.81946 0.0
C803 C 0.58644 0.19689 0.78463 0.0
C804 C 0.60396 0.19024 0.77141 0.0
C805 C 0.57378 0.18332 0.80612 0.0
C806 C 0.60821 0.16945 0.77979 0.0
C807 C 0.59573 0.1559 0.80116 0.0
H808 H 0.42915 0.61667 0.05152 0.0
H809 H 0.50985 0.64171 0.01847 0.0
H810 H 0.49357 0.65128 0.98106 0.0
H811 H 0.45651 0.65267 0.95771 0.0
H812 H 0.37507 0.62552 0.99008 0.0
H813 H 0.39147 0.61627 0.0277 0.0
C814 C 0.44307 0.62381 0.03605 0.0
C815 C 0.47075 0.62852 0.03792 0.0
C816 C 0.43346 0.62895 0.01447 0.0
C817 C 0.48861 0.63828 0.01773 0.0
C818 C 0.47927 0.64364 -0.00374 0.0
C819 C 0.44237 0.64478 0.97302 0.0
C820 C 0.41467 0.63992 0.97116 0.0
C821 C 0.4518 0.63918 -0.00553 0.0
C822 C 0.3965 0.62945 0.99106 0.0
C823 C 0.40586 0.62416 0.01257 0.0
H824 H 0.8141 0.39339 0.19878 0.0
H825 H 0.88793 0.46916 0.17876 0.0
H826 H 0.86645 0.46759 0.14002 0.0
H827 H 0.82616 0.44546 0.11227 0.0
H828 H 0.7535 0.36853 0.13143 0.0
H829 H 0.77551 0.36951 0.16982 0.0
C830 C 0.82582 0.40933 0.18582 0.0
C831 C 0.85255 0.43149 0.19192 0.0
C832 C 0.81357 0.4081 0.16337 0.0
C833 C 0.86708 0.45213 0.17489 0.0
C834 C 0.8549 0.45118 0.15261 0.0
C835 C 0.81518 0.42884 0.1248 0.0
C836 C 0.78813 0.40707 0.11906 0.0
C837 C 0.82802 0.42943 0.14678 0.0
C838 C 0.77434 0.38554 0.13538 0.0
C839 C 0.78687 0.38612 0.15738 0.0
loop_
_geom_bond_atom_site_label_1
_geom_bond_atom_site_label_2
_geom_bond_distance
_geom_bond_site_symmetry_2
_ccdc_geom_bond_type
H0 C27 0.929 . S
N1 C26 1.433 . S
N1 C32 1.435 . S
N1 C38 1.423 . S
H2 C28 0.930 . S
H3 C31 0.931 . S
H4 C30 0.929 . S
H5 C33 0.930 . S
H6 C34 0.932 . S
H7 C37 0.929 . S
H8 C36 0.931 . S
H9 C39 0.929 . S
H10 C43 0.932 . S
H11 C40 0.931 . S
H12 C42 0.929 . S
H13 C45 0.929 . S
H14 C46 0.930 . S
H15 C48 0.929 . S
H16 C49 0.931 . S
H17 C51 0.930 . S
H18 C52 0.932 . S
H19 C54 0.931 . S
H20 C55 0.929 . S
H21 C57 0.929 . S
H22 C58 0.931 . S
H23 C60 0.929 . S
N24 C44 1.433 . S
N24 C50 1.435 . S
N24 C56 1.423 . S
H25 C61 0.932 . S
C26 N1 1.433 . S
C26 C27 1.363 . S
C26 C31 1.370 . S
C27 H0 0.929 . S
C27 C26 1.363 . S
C27 C28 1.385 . S
C28 H2 0.930 . S
C28 C27 1.385 . S
C28 C29 1.357 . S
C29 C28 1.357 . S
C29 C30 1.406 . S
C30 H4 0.929 . S
C30 C29 1.406 . S
C30 C31 1.391 . S
C31 H3 0.931 . S
C31 C26 1.370 . S
C31 C30 1.391 . S
C32 N1 1.435 . S
C32 C33 1.358 . S
C32 C37 1.371 . S
C33 H5 0.930 . S
C33 C32 1.358 . S
C33 C34 1.405 . S
C34 H6 0.932 . S
C34 C33 1.405 . S
C34 C35 1.383 . S
C35 C34 1.383 . S
C35 C36 1.393 . S
C36 H8 0.931 . S
C36 C35 1.393 . S
C36 C37 1.382 . S
C37 H7 0.929 . S
C37 C32 1.371 . S
C37 C36 1.382 . S
C38 N1 1.423 . S
C38 C39 1.362 . S
C38 C43 1.388 . S
C39 H9 0.929 . S
C39 C38 1.362 . S
C39 C40 1.376 . S
C40 H11 0.931 . S
C40 C39 1.376 . S
C40 C41 1.396 . S
C41 C40 1.396 . S
C41 C42 1.348 . S
C41 C59 1.472 1_455 S
C42 H12 0.929 . S
C42 C41 1.348 . S
C42 C43 1.443 . S
C43 H10 0.932 . S
C43 C38 1.388 . S
C43 C42 1.443 . S
C44 N24 1.433 . S
C44 C45 1.363 . S
C44 C49 1.370 . S
C45 H13 0.929 . S
C45 C44 1.363 . S
C45 C46 1.385 . S
C46 H14 0.930 . S
C46 C45 1.385 . S
C46 C47 1.357 . S
C47 C46 1.357 . S
C47 C48 1.406 . S
C48 H15 0.929 . S
C48 C47 1.406 . S
C48 C49 1.391 . S
C49 H16 0.931 . S
C49 C44 1.370 . S
C49 C48 1.391 . S
C50 N24 1.435 . S
C50 C51 1.358 . S
C50 C55 1.371 . S
C51 H17 0.930 . S
C51 C50 1.358 . S
C51 C52 1.405 . S
C52 H18 0.932 . S
C52 C51 1.405 . S
C52 C53 1.383 . S
C53 C52 1.383 . S
C53 C54 1.393 . S
C54 H19 0.931 . S
C54 C53 1.393 . S
C54 C55 1.382 . S
C55 H20 0.929 . S
C55 C50 1.371 . S
C55 C54 1.382 . S
C56 N24 1.423 . S
C56 C57 1.362 . S
C56 C61 1.388 . S
C57 H21 0.929 . S
C57 C56 1.362 . S
C57 C58 1.376 . S
C58 H22 0.931 . S
C58 C57 1.376 . S
C58 C59 1.396 . S
C59 C41 1.472 1_655 S
C59 C58 1.396 . S
C59 C60 1.348 . S
C60 H23 0.929 . S
C60 C59 1.348 . S
C60 C61 1.443 . S
C61 H25 0.932 . S
C61 C56 1.388 . S
C61 C60 1.443 . S
H62 C89 0.929 . S
N63 C88 1.433 . S
N63 C94 1.435 . S
N63 C100 1.423 . S
H64 C90 0.930 . S
H65 C93 0.931 . S
H66 C92 0.929 . S
H67 C95 0.930 . S
H68 C96 0.932 . S
H69 C99 0.929 . S
H70 C98 0.931 . S
H71 C101 0.929 . S
H72 C105 0.932 . S
H73 C102 0.931 . S
H74 C104 0.929 1_545 S
H75 C107 0.929 . S
H76 C108 0.930 . S
H77 C110 0.929 . S
H78 C111 0.931 . S
H79 C113 0.930 . S
H80 C114 0.932 . S
H81 C116 0.931 . S
H82 C117 0.929 . S
H83 C119 0.929 . S
H84 C120 0.931 . S
H85 C122 0.929 . S
N86 C106 1.433 . S
N86 C112 1.435 . S
N86 C118 1.423 . S
H87 C123 0.932 . S
C88 N63 1.433 . S
C88 C89 1.363 . S
C88 C93 1.370 . S
C89 H62 0.929 . S
C89 C88 1.363 . S
C89 C90 1.385 . S
C90 H64 0.930 . S
C90 C89 1.385 . S
C90 C91 1.357 . S
C91 C90 1.357 . S
C91 C92 1.406 . S
C92 H66 0.929 . S
C92 C91 1.406 . S
C92 C93 1.391 . S
C93 H65 0.931 . S
C93 C88 1.370 . S
C93 C92 1.391 . S
C94 N63 1.435 . S
C94 C95 1.358 . S
C94 C99 1.371 . S
C95 H67 0.930 . S
C95 C94 1.358 . S
C95 C96 1.405 . S
C96 H68 0.932 . S
C96 C95 1.405 . S
C96 C97 1.383 . S
C97 C96 1.383 . S
C97 C98 1.393 . S
C98 H70 0.931 . S
C98 C97 1.393 . S
C98 C99 1.382 . S
C99 H69 0.929 . S
C99 C94 1.371 . S
C99 C98 1.382 . S
C100 N63 1.423 . S
C100 C101 1.362 . S
C100 C105 1.388 . S
C101 H71 0.929 . S
C101 C100 1.362 . S
C101 C102 1.376 . S
C102 H73 0.931 . S
C102 C101 1.376 . S
C102 C103 1.396 1_565 S
C103 C102 1.396 1_545 S
C103 C104 1.348 1_545 S
C103 C121 1.472 . S
C104 H74 0.929 1_565 S
C104 C103 1.348 1_565 S
C104 C105 1.443 . S
C105 H72 0.932 . S
C105 C100 1.388 . S
C105 C104 1.443 . S
C106 N86 1.433 . S
C106 C107 1.363 . S
C106 C111 1.370 . S
C107 H75 0.929 . S
C107 C106 1.363 . S
C107 C108 1.385 . S
C108 H76 0.930 . S
C108 C107 1.385 . S
C108 C109 1.357 . S
C109 C108 1.357 . S
C109 C110 1.406 . S
C110 H77 0.929 . S
C110 C109 1.406 . S
C110 C111 1.391 . S
C111 H78 0.931 . S
C111 C106 1.370 . S
C111 C110 1.391 . S
C112 N86 1.435 . S
C112 C113 1.358 . S
C112 C117 1.371 . S
C113 H79 0.930 . S
C113 C112 1.358 . S
C113 C114 1.405 . S
C114 H80 0.932 . S
C114 C113 1.405 . S
C114 C115 1.383 . S
C115 C114 1.383 . S
C115 C116 1.393 . S
C116 H81 0.931 . S
C116 C115 1.393 . S
C116 C117 1.382 . S
C117 H82 0.929 . S
C117 C112 1.371 . S
C117 C116 1.382 . S
C118 N86 1.423 . S
C118 C119 1.362 . S
C118 C123 1.388 . S
C119 H83 0.929 . S
C119 C118 1.362 . S
C119 C120 1.376 . S
C120 H84 0.931 . S
C120 C119 1.376 . S
C120 C121 1.396 . S
C121 C103 1.472 . S
C121 C120 1.396 . S
C121 C122 1.348 . S
C122 H85 0.929 . S
C122 C121 1.348 . S
C122 C123 1.443 . S
C123 H87 0.932 . S
C123 C118 1.388 . S
C123 C122 1.443 . S
H124 C151 0.929 . S
N125 C150 1.433 . S
N125 C156 1.435 . S
N125 C162 1.423 . S
H126 C152 0.930 . S
H127 C155 0.931 . S
H128 C154 0.929 . S
H129 C157 0.930 . S
H130 C158 0.932 . S
H131 C161 0.929 . S
H132 C160 0.931 . S
H133 C163 0.929 . S
H134 C167 0.932 . S
H135 C164 0.931 . S
H136 C166 0.929 . S
H137 C169 0.929 . S
H138 C170 0.930 . S
H139 C172 0.929 . S
H140 C173 0.931 . S
H141 C175 0.930 . S
H142 C176 0.932 . S
H143 C178 0.931 . S
H144 C179 0.929 . S
H145 C181 0.929 . S
H146 C182 0.931 . S
H147 C184 0.929 . S
N148 C168 1.433 . S
N148 C174 1.435 . S
N148 C180 1.423 . S
H149 C185 0.932 . S
C150 N125 1.433 . S
C150 C151 1.363 . S
C150 C155 1.370 . S
C151 H124 0.929 . S
C151 C150 1.363 . S
C151 C152 1.385 . S
C152 H126 0.930 . S
C152 C151 1.385 . S
C152 C153 1.357 . S
C153 C152 1.357 . S
C153 C154 1.406 . S
C154 H128 0.929 . S
C154 C153 1.406 . S
C154 C155 1.391 . S
C155 H127 0.931 . S
C155 C150 1.370 . S
C155 C154 1.391 . S
C156 N125 1.435 . S
C156 C157 1.358 . S
C156 C161 1.371 . S
C157 H129 0.930 . S
C157 C156 1.358 . S
C157 C158 1.405 . S
C158 H130 0.932 . S
C158 C157 1.405 . S
C158 C159 1.383 . S
C159 C158 1.383 . S
C159 C160 1.393 . S
C160 H132 0.931 . S
C160 C159 1.393 . S
C160 C161 1.382 . S
C161 H131 0.929 . S
C161 C156 1.371 . S
C161 C160 1.382 . S
C162 N125 1.423 . S
C162 C163 1.362 . S
C162 C167 1.388 . S
C163 H133 0.929 . S
C163 C162 1.362 . S
C163 C164 1.376 . S
C164 H135 0.931 . S
C164 C163 1.376 . S
C164 C165 1.396 . S
C165 C164 1.396 . S
C165 C166 1.348 . S
C165 C183 1.472 . S
C166 H136 0.929 . S
C166 C165 1.348 . S
C166 C167 1.443 . S
C167 H134 0.932 . S
C167 C162 1.388 . S
C167 C166 1.443 . S
C168 N148 1.433 . S
C168 C169 1.363 . S
C168 C173 1.370 . S
C169 H137 0.929 . S
C169 C168 1.363 . S
C169 C170 1.385 . S
C170 H138 0.930 . S
C170 C169 1.385 . S
C170 C171 1.357 . S
C171 C170 1.357 . S
C171 C172 1.406 . S
C172 H139 0.929 . S
C172 C171 1.406 . S
C172 C173 1.391 . S
C173 H140 0.931 . S
C173 C168 1.370 . S
C173 C172 1.391 . S
C174 N148 1.435 . S
C174 C175 1.358 . S
C174 C179 1.371 . S
C175 H141 0.930 . S
C175 C174 1.358 . S
C175 C176 1.405 . S
C176 H142 0.932 . S
C176 C175 1.405 . S
C176 C177 1.383 . S
C177 C176 1.383 . S
C177 C178 1.393 . S
C178 H143 0.931 . S
C178 C177 1.393 . S
C178 C179 1.382 . S
C179 H144 0.929 . S
C179 C174 1.371 . S
C179 C178 1.382 . S
C180 N148 1.423 . S
C180 C181 1.362 . S
C180 C185 1.388 . S
C181 H145 0.929 . S
C181 C180 1.362 . S
C181 C182 1.376 . S
C182 H146 0.931 . S
C182 C181 1.376 . S
C182 C183 1.396 . S
C183 C165 1.472 . S
C183 C182 1.396 . S
C183 C184 1.348 . S
C184 H147 0.929 . S
C184 C183 1.348 . S
C184 C185 1.443 . S
C185 H149 0.932 . S
C185 C180 1.388 . S
C185 C184 1.443 . S
H186 C213 0.929 . S
N187 C212 1.433 . S
N187 C218 1.435 . S
N187 C224 1.423 . S
H188 C214 0.930 . S
H189 C217 0.931 . S
H190 C216 0.929 . S
H191 C219 0.930 . S
H192 C220 0.932 . S
H193 C223 0.929 . S
H194 C222 0.931 . S
H195 C225 0.929 . S
H196 C229 0.932 . S
H197 C226 0.931 . S
H198 C228 0.929 . S
H199 C231 0.929 . S
H200 C232 0.930 . S
H201 C234 0.929 . S
H202 C235 0.931 . S
H203 C237 0.930 . S
H204 C238 0.932 . S
H205 C240 0.931 . S
H206 C241 0.929 . S
H207 C243 0.929 . S
H208 C244 0.931 . S
H209 C246 0.929 . S
N210 C230 1.433 . S
N210 C236 1.435 . S
N210 C242 1.423 . S
H211 C247 0.932 . S
C212 N187 1.433 . S
C212 C213 1.363 . S
C212 C217 1.370 . S
C213 H186 0.929 . S
C213 C212 1.363 . S
C213 C214 1.385 . S
C214 H188 0.930 . S
C214 C213 1.385 . S
C214 C215 1.357 . S
C215 C214 1.357 . S
C215 C216 1.406 . S
C216 H190 0.929 . S
C216 C215 1.406 . S
C216 C217 1.391 . S
C217 H189 0.931 . S
C217 C212 1.370 . S
C217 C216 1.391 . S
C218 N187 1.435 . S
C218 C219 1.358 . S
C218 C223 1.371 . S
C219 H191 0.930 . S
C219 C218 1.358 . S
C219 C220 1.405 . S
C220 H192 0.932 . S
C220 C219 1.405 . S
C220 C221 1.383 . S
C221 C220 1.383 . S
C221 C222 1.393 . S
C222 H194 0.931 . S
C222 C221 1.393 . S
C222 C223 1.382 . S
C223 H193 0.929 . S
C223 C218 1.371 . S
C223 C222 1.382 . S
C224 N187 1.423 . S
C224 C225 1.362 . S
C224 C229 1.388 . S
C225 H195 0.929 . S
C225 C224 1.362 . S
C225 C226 1.376 . S
C226 H197 0.931 . S
C226 C225 1.376 . S
C226 C227 1.396 . S
C227 C226 1.396 . S
C227 C228 1.348 . S
C227 C245 1.472 1_455 S
C228 H198 0.929 . S
C228 C227 1.348 . S
C228 C229 1.443 . S
C229 H196 0.932 . S
C229 C224 1.388 . S
C229 C228 1.443 . S
C230 N210 1.433 . S
C230 C231 1.363 . S
C230 C235 1.370 . S
C231 H199 0.929 . S
C231 C230 1.363 . S
C231 C232 1.385 . S
C232 H200 0.930 . S
C232 C231 1.385 . S
C232 C233 1.357 . S
C233 C232 1.357 . S
C233 C234 1.406 . S
C234 H201 0.929 . S
C234 C233 1.406 . S
C234 C235 1.391 . S
C235 H202 0.931 . S
C235 C230 1.370 . S
C235 C234 1.391 . S
C236 N210 1.435 . S
C236 C237 1.358 . S
C236 C241 1.371 . S
C237 H203 0.930 . S
C237 C236 1.358 . S
C237 C238 1.405 . S
C238 H204 0.932 . S
C238 C237 1.405 . S
C238 C239 1.383 . S
C239 C238 1.383 . S
C239 C240 1.393 . S
C240 H205 0.931 . S
C240 C239 1.393 . S
C240 C241 1.382 . S
C241 H206 0.929 . S
C241 C236 1.371 . S
C241 C240 1.382 . S
C242 N210 1.423 . S
C242 C243 1.362 . S
C242 C247 1.388 . S
C243 H207 0.929 . S
C243 C242 1.362 . S
C243 C244 1.376 . S
C244 H208 0.931 . S
C244 C243 1.376 . S
C244 C245 1.396 . S
C245 C227 1.472 1_655 S
C245 C244 1.396 . S
C245 C246 1.348 . S
C246 H209 0.929 . S
C246 C245 1.348 . S
C246 C247 1.443 . S
C247 H211 0.932 . S
C247 C242 1.388 . S
C247 C246 1.443 . S
H248 C275 0.929 . S
N249 C274 1.433 . S
N249 C280 1.435 . S
N249 C286 1.423 . S
H250 C276 0.930 . S
H251 C279 0.931 . S
H252 C278 0.929 . S
H253 C281 0.930 . S
H254 C282 0.932 . S
H255 C285 0.929 . S
H256 C284 0.931 . S
H257 C287 0.929 . S
H258 C291 0.932 . S
H259 C288 0.931 . S
H260 C290 0.929 . S
H261 C293 0.929 . S
H262 C294 0.930 . S
H263 C296 0.929 . S
H264 C297 0.931 . S
H265 C299 0.930 1_554 S
H266 C300 0.932 . S
H267 C302 0.931 . S
H268 C303 0.929 . S
H269 C305 0.929 . S
H270 C306 0.931 1_554 S
H271 C308 0.929 . S
N272 C292 1.433 . S
N272 C298 1.435 1_554 S
N272 C304 1.423 1_554 S
H273 C309 0.932 . S
C274 N249 1.433 . S
C274 C275 1.363 . S
C274 C279 1.370 . S
C275 H248 0.929 . S
C275 C274 1.363 . S
C275 C276 1.385 . S
C276 H250 0.930 . S
C276 C275 1.385 . S
C276 C277 1.357 1_556 S
C277 C276 1.357 1_554 S
C277 C278 1.406 . S
C278 H252 0.929 . S
C278 C277 1.406 . S
C278 C279 1.391 1_554 S
C279 H251 0.931 . S
C279 C274 1.370 . S
C279 C278 1.391 1_556 S
C280 N249 1.435 . S
C280 C281 1.358 . S
C280 C285 1.371 . S
C281 H253 0.930 . S
C281 C280 1.358 . S
C281 C282 1.405 . S
C282 H254 0.932 . S
C282 C281 1.405 . S
C282 C283 1.383 . S
C283 C282 1.383 . S
C283 C284 1.393 . S
C284 H256 0.931 . S
C284 C283 1.393 . S
C284 C285 1.382 . S
C285 H255 0.929 . S
C285 C280 1.371 . S
C285 C284 1.382 . S
C286 N249 1.423 . S
C286 C287 1.362 . S
C286 C291 1.388 . S
C287 H257 0.929 . S
C287 C286 1.362 . S
C287 C288 1.376 . S
C288 H259 0.931 . S
C288 C287 1.376 . S
C288 C289 1.396 . S
C289 C288 1.396 . S
C289 C290 1.348 . S
C289 C307 1.472 1_545 S
C290 H260 0.929 . S
C290 C289 1.348 . S
C290 C291 1.443 . S
C291 H258 0.932 . S
C291 C286 1.388 . S
C291 C290 1.443 . S
C292 N272 1.433 . S
C292 C293 1.363 . S
C292 C297 1.370 . S
C293 H261 0.929 . S
C293 C292 1.363 . S
C293 C294 1.385 . S
C294 H262 0.930 . S
C294 C293 1.385 . S
C294 C295 1.357 . S
C295 C294 1.357 . S
C295 C296 1.406 . S
C296 H263 0.929 . S
C296 C295 1.406 . S
C296 C297 1.391 . S
C297 H264 0.931 . S
C297 C292 1.370 . S
C297 C296 1.391 . S
C298 N272 1.435 1_556 S
C298 C299 1.358 . S
C298 C303 1.371 . S
C299 H265 0.930 1_556 S
C299 C298 1.358 . S
C299 C300 1.405 . S
C300 H266 0.932 . S
C300 C299 1.405 . S
C300 C301 1.383 . S
C301 C300 1.383 . S
C301 C302 1.393 . S
C302 H267 0.931 . S
C302 C301 1.393 . S
C302 C303 1.382 . S
C303 H268 0.929 . S
C303 C298 1.371 . S
C303 C302 1.382 . S
C304 N272 1.423 1_556 S
C304 C305 1.362 1_556 S
C304 C309 1.388 . S
C305 H269 0.929 . S
C305 C304 1.362 1_554 S
C305 C306 1.376 1_554 S
C306 H270 0.931 1_556 S
C306 C305 1.376 1_556 S
C306 C307 1.396 . S
C307 C289 1.472 1_565 S
C307 C306 1.396 . S
C307 C308 1.348 . S
C308 H271 0.929 . S
C308 C307 1.348 . S
C308 C309 1.443 . S
C309 H273 0.932 . S
C309 C304 1.388 . S
C309 C308 1.443 . S
H310 C337 0.929 . S
N311 C336 1.433 . S
N311 C342 1.435 . S
N311 C348 1.423 . S
H312 C338 0.930 . S
H313 C341 0.931 . S
H314 C340 0.929 . S
H315 C343 0.930 . S
H316 C344 0.932 . S
H317 C347 0.929 . S
H318 C346 0.931 . S
H319 C349 0.929 . S
H320 C353 0.932 . S
H321 C350 0.931 . S
H322 C352 0.929 . S
H323 C355 0.929 . S
H324 C356 0.930 . S
H325 C358 0.929 . S
H326 C359 0.931 . S
H327 C361 0.930 . S
H328 C362 0.932 . S
H329 C364 0.931 . S
H330 C365 0.929 . S
H331 C367 0.929 . S
H332 C368 0.931 . S
H333 C370 0.929 . S
N334 C354 1.433 . S
N334 C360 1.435 . S
N334 C366 1.423 . S
H335 C371 0.932 . S
C336 N311 1.433 . S
C336 C337 1.363 . S
C336 C341 1.370 . S
C337 H310 0.929 . S
C337 C336 1.363 . S
C337 C338 1.385 . S
C338 H312 0.930 . S
C338 C337 1.385 . S
C338 C339 1.357 . S
C339 C338 1.357 . S
C339 C340 1.406 . S
C340 H314 0.929 . S
C340 C339 1.406 . S
C340 C341 1.391 . S
C341 H313 0.931 . S
C341 C336 1.370 . S
C341 C340 1.391 . S
C342 N311 1.435 . S
C342 C343 1.358 . S
C342 C347 1.371 . S
C343 H315 0.930 . S
C343 C342 1.358 . S
C343 C344 1.405 . S
C344 H316 0.932 . S
C344 C343 1.405 . S
C344 C345 1.383 . S
C345 C344 1.383 . S
C345 C346 1.393 . S
C346 H318 0.931 . S
C346 C345 1.393 . S
C346 C347 1.382 . S
C347 H317 0.929 . S
C347 C342 1.371 . S
C347 C346 1.382 . S
C348 N311 1.423 . S
C348 C349 1.362 . S
C348 C353 1.388 . S
C349 H319 0.929 . S
C349 C348 1.362 . S
C349 C350 1.376 . S
C350 H321 0.931 . S
C350 C349 1.376 . S
C350 C351 1.396 . S
C351 C350 1.396 . S
C351 C352 1.348 . S
C351 C369 1.472 . S
C352 H322 0.929 . S
C352 C351 1.348 . S
C352 C353 1.443 . S
C353 H320 0.932 . S
C353 C348 1.388 . S
C353 C352 1.443 . S
C354 N334 1.433 . S
C354 C355 1.363 . S
C354 C359 1.370 . S
C355 H323 0.929 . S
C355 C354 1.363 . S
C355 C356 1.385 . S
C356 H324 0.930 . S
C356 C355 1.385 . S
C356 C357 1.357 . S
C357 C356 1.357 . S
C357 C358 1.406 . S
C358 H325 0.929 . S
C358 C357 1.406 . S
C358 C359 1.391 . S
C359 H326 0.931 . S
C359 C354 1.370 . S
C359 C358 1.391 . S
C360 N334 1.435 . S
C360 C361 1.358 . S
C360 C365 1.371 . S
C361 H327 0.930 . S
C361 C360 1.358 . S
C361 C362 1.405 . S
C362 H328 0.932 . S
C362 C361 1.405 . S
C362 C363 1.383 . S
C363 C362 1.383 . S
C363 C364 1.393 . S
C364 H329 0.931 . S
C364 C363 1.393 . S
C364 C365 1.382 . S
C365 H330 0.929 . S
C365 C360 1.371 . S
C365 C364 1.382 . S
C366 N334 1.423 . S
C366 C367 1.362 . S
C366 C371 1.388 . S
C367 H331 0.929 . S
C367 C366 1.362 . S
C367 C368 1.376 . S
C368 H332 0.931 . S
C368 C367 1.376 . S
C368 C369 1.396 . S
C369 C351 1.472 . S
C369 C368 1.396 . S
C369 C370 1.348 . S
C370 H333 0.929 . S
C370 C369 1.348 . S
C370 C371 1.443 . S
C371 H335 0.932 . S
C371 C366 1.388 . S
C371 C370 1.443 . S
C372 O373 1.306 . S
C372 O375 1.160 . S
O373 C372 1.306 . S
O373 Cd374 2.228 . S
Cd374 O373 2.228 . S
Cd374 O378 2.273 . S
Cd374 O382 2.277 . S
O375 C372 1.160 . S
O375 Cd376 2.203 . S
Cd376 O375 2.203 . S
Cd376 O378 2.411 . S
Cd376 O379 2.333 . S
Cd376 O380 2.352 . S
Cd376 O384 2.277 . S
Cd376 O385 2.356 . S
C377 O382 1.209 . S
C377 O384 1.226 . S
O378 Cd374 2.273 . S
O378 Cd376 2.411 . S
O378 C381 1.320 . S
O379 Cd376 2.333 . S
O379 C381 1.214 . S
O380 Cd376 2.352 . S
O380 C383 1.258 . S
C381 O378 1.320 . S
C381 O379 1.214 . S
O382 Cd374 2.277 . S
O382 C377 1.209 . S
C383 O380 1.258 . S
C383 O385 1.282 . S
O384 Cd376 2.277 . S
O384 C377 1.226 . S
O385 Cd376 2.356 . S
O385 C383 1.282 . S
C386 O387 1.306 . S
C386 O389 1.160 . S
O387 C386 1.306 . S
O387 Cd388 2.228 . S
Cd388 O387 2.228 . S
Cd388 O392 2.273 . S
Cd388 O396 2.277 . S
O389 C386 1.160 . S
O389 Cd390 2.203 . S
Cd390 O389 2.203 . S
Cd390 O392 2.411 . S
Cd390 O393 2.333 . S
Cd390 O394 2.352 . S
Cd390 O398 2.277 . S
Cd390 O399 2.356 . S
C391 O396 1.209 . S
C391 O398 1.226 . S
O392 Cd388 2.273 . S
O392 Cd390 2.411 . S
O392 C395 1.320 . S
O393 Cd390 2.333 . S
O393 C395 1.214 . S
O394 Cd390 2.352 . S
O394 C397 1.258 . S
C395 O392 1.320 . S
C395 O393 1.214 . S
O396 Cd388 2.277 . S
O396 C391 1.209 . S
C397 O394 1.258 . S
C397 O399 1.282 . S
O398 Cd390 2.277 . S
O398 C391 1.226 . S
O399 Cd390 2.356 . S
O399 C397 1.282 . S
C400 O401 1.306 . S
C400 O403 1.160 . S
O401 C400 1.306 . S
O401 Cd402 2.228 . S
Cd402 O401 2.228 . S
Cd402 O406 2.273 . S
Cd402 O410 2.277 . S
O403 C400 1.160 . S
O403 Cd404 2.203 . S
Cd404 O403 2.203 . S
Cd404 O406 2.411 . S
Cd404 O407 2.333 . S
Cd404 O408 2.352 . S
Cd404 O412 2.277 . S
Cd404 O413 2.356 . S
C405 O410 1.209 . S
C405 O412 1.226 . S
O406 Cd402 2.273 . S
O406 Cd404 2.411 . S
O406 C409 1.320 . S
O407 Cd404 2.333 . S
O407 C409 1.214 . S
O408 Cd404 2.352 . S
O408 C411 1.258 . S
C409 O406 1.320 . S
C409 O407 1.214 . S
O410 Cd402 2.277 . S
O410 C405 1.209 . S
C411 O408 1.258 . S
C411 O413 1.282 . S
O412 Cd404 2.277 . S
O412 C405 1.226 . S
O413 Cd404 2.356 . S
O413 C411 1.282 . S
C414 O415 1.306 . S
C414 O417 1.160 . S
O415 C414 1.306 . S
O415 Cd416 2.228 . S
Cd416 O415 2.228 . S
Cd416 O420 2.273 . S
Cd416 O424 2.277 . S
O417 C414 1.160 . S
O417 Cd418 2.203 . S
Cd418 O417 2.203 . S
Cd418 O420 2.411 . S
Cd418 O421 2.333 . S
Cd418 O422 2.352 . S
Cd418 O426 2.277 . S
Cd418 O427 2.356 . S
C419 O424 1.209 . S
C419 O426 1.226 . S
O420 Cd416 2.273 . S
O420 Cd418 2.411 . S
O420 C423 1.320 . S
O421 Cd418 2.333 . S
O421 C423 1.214 . S
O422 Cd418 2.352 . S
O422 C425 1.258 . S
C423 O420 1.320 . S
C423 O421 1.214 . S
O424 Cd416 2.277 . S
O424 C419 1.209 . S
C425 O422 1.258 . S
C425 O427 1.282 . S
O426 Cd418 2.277 . S
O426 C419 1.226 . S
O427 Cd418 2.356 . S
O427 C425 1.282 . S
C428 O429 1.306 . S
C428 O431 1.160 . S
O429 C428 1.306 . S
O429 Cd430 2.228 . S
Cd430 O429 2.228 . S
Cd430 O434 2.273 . S
Cd430 O438 2.277 . S
O431 C428 1.160 . S
O431 Cd432 2.203 . S
Cd432 O431 2.203 . S
Cd432 O434 2.411 . S
Cd432 O435 2.333 . S
Cd432 O436 2.352 . S
Cd432 O440 2.277 . S
Cd432 O441 2.356 . S
C433 O438 1.209 . S
C433 O440 1.226 . S
O434 Cd430 2.273 . S
O434 Cd432 2.411 . S
O434 C437 1.320 . S
O435 Cd432 2.333 . S
O435 C437 1.214 . S
O436 Cd432 2.352 . S
O436 C439 1.258 . S
C437 O434 1.320 . S
C437 O435 1.214 . S
O438 Cd430 2.277 . S
O438 C433 1.209 . S
C439 O436 1.258 . S
C439 O441 1.282 . S
O440 Cd432 2.277 . S
O440 C433 1.226 . S
O441 Cd432 2.356 . S
O441 C439 1.282 . S
C442 O443 1.306 . S
C442 O445 1.160 . S
O443 C442 1.306 . S
O443 Cd444 2.228 . S
Cd444 O443 2.228 . S
Cd444 O448 2.273 . S
Cd444 O452 2.277 . S
O445 C442 1.160 . S
O445 Cd446 2.203 . S
Cd446 O445 2.203 . S
Cd446 O448 2.411 . S
Cd446 O449 2.333 . S
Cd446 O450 2.352 . S
Cd446 O454 2.277 . S
Cd446 O455 2.356 . S
C447 O452 1.209 . S
C447 O454 1.226 . S
O448 Cd444 2.273 . S
O448 Cd446 2.411 . S
O448 C451 1.320 . S
O449 Cd446 2.333 . S
O449 C451 1.214 . S
O450 Cd446 2.352 . S
O450 C453 1.258 . S
C451 O448 1.320 . S
C451 O449 1.214 . S
O452 Cd444 2.277 . S
O452 C447 1.209 . S
C453 O450 1.258 . S
C453 O455 1.282 . S
O454 Cd446 2.277 . S
O454 C447 1.226 . S
O455 Cd446 2.356 . S
O455 C453 1.282 . S
H456 C462 0.930 . S
H457 C465 0.930 . S
H458 C466 0.930 . S
H459 C467 0.930 . S
H460 C470 0.930 . S
H461 C471 0.930 . S
C462 H456 0.930 . S
C462 C463 1.355 . S
C462 C464 1.415 . S
C463 C462 1.355 . S
C463 C465 1.419 . S
C464 C462 1.415 . S
C464 C469 1.425 . S
C464 C471 1.409 . S
C465 H457 0.930 . S
C465 C463 1.419 . S
C465 C466 1.362 . S
C466 H458 0.930 . S
C466 C465 1.362 . S
C466 C469 1.409 . S
C467 H459 0.930 . S
C467 C468 1.355 . S
C467 C469 1.415 . S
C468 C467 1.355 . S
C468 C470 1.419 . S
C469 C464 1.425 . S
C469 C466 1.409 . S
C469 C467 1.415 . S
C470 H460 0.930 . S
C470 C468 1.419 . S
C470 C471 1.362 . S
C471 H461 0.930 . S
C471 C464 1.409 . S
C471 C470 1.362 . S
H472 C478 0.930 . S
H473 C481 0.930 . S
H474 C482 0.930 . S
H475 C483 0.930 . S
H476 C486 0.930 . S
H477 C487 0.930 . S
C478 H472 0.930 . S
C478 C479 1.355 . S
C478 C480 1.415 . S
C479 C478 1.355 . S
C479 C481 1.419 . S
C480 C478 1.415 . S
C480 C485 1.425 . S
C480 C487 1.409 . S
C481 H473 0.930 . S
C481 C479 1.419 . S
C481 C482 1.362 . S
C482 H474 0.930 . S
C482 C481 1.362 . S
C482 C485 1.409 . S
C483 H475 0.930 . S
C483 C484 1.355 . S
C483 C485 1.415 . S
C484 C483 1.355 . S
C484 C486 1.419 . S
C485 C480 1.425 . S
C485 C482 1.409 . S
C485 C483 1.415 . S
C486 H476 0.930 . S
C486 C484 1.419 . S
C486 C487 1.362 . S
C487 H477 0.930 . S
C487 C480 1.409 . S
C487 C486 1.362 . S
H488 C494 0.930 . S
H489 C497 0.930 . S
H490 C498 0.930 . S
H491 C499 0.930 . S
H492 C502 0.930 . S
H493 C503 0.930 . S
C494 H488 0.930 . S
C494 C495 1.355 . S
C494 C496 1.415 . S
C495 C494 1.355 . S
C495 C497 1.419 . S
C496 C494 1.415 . S
C496 C501 1.425 . S
C496 C503 1.409 . S
C497 H489 0.930 . S
C497 C495 1.419 . S
C497 C498 1.362 . S
C498 H490 0.930 . S
C498 C497 1.362 . S
C498 C501 1.409 . S
C499 H491 0.930 . S
C499 C500 1.355 . S
C499 C501 1.415 . S
C500 C499 1.355 . S
C500 C502 1.419 . S
C501 C496 1.425 . S
C501 C498 1.409 . S
C501 C499 1.415 . S
C502 H492 0.930 . S
C502 C500 1.419 . S
C502 C503 1.362 . S
C503 H493 0.930 . S
C503 C496 1.409 . S
C503 C502 1.362 . S
H504 C510 0.930 . S
H505 C513 0.930 . S
H506 C514 0.930 . S
H507 C515 0.930 . S
H508 C518 0.930 . S
H509 C519 0.930 . S
C510 H504 0.930 . S
C510 C511 1.355 . S
C510 C512 1.415 . S
C511 C510 1.355 . S
C511 C513 1.419 . S
C512 C510 1.415 . S
C512 C517 1.425 . S
C512 C519 1.409 . S
C513 H505 0.930 . S
C513 C511 1.419 . S
C513 C514 1.362 . S
C514 H506 0.930 . S
C514 C513 1.362 . S
C514 C517 1.409 . S
C515 H507 0.930 . S
C515 C516 1.355 . S
C515 C517 1.415 . S
C516 C515 1.355 . S
C516 C518 1.419 . S
C517 C512 1.425 . S
C517 C514 1.409 . S
C517 C515 1.415 . S
C518 H508 0.930 . S
C518 C516 1.419 . S
C518 C519 1.362 . S
C519 H509 0.930 . S
C519 C512 1.409 . S
C519 C518 1.362 . S
H520 C526 0.930 . S
H521 C529 0.930 . S
H522 C530 0.930 . S
H523 C531 0.930 . S
H524 C534 0.930 . S
H525 C535 0.930 . S
C526 H520 0.930 . S
C526 C527 1.355 . S
C526 C528 1.415 . S
C527 C526 1.355 . S
C527 C529 1.419 . S
C528 C526 1.415 . S
C528 C533 1.425 . S
C528 C535 1.409 . S
C529 H521 0.930 . S
C529 C527 1.419 . S
C529 C530 1.362 . S
C530 H522 0.930 . S
C530 C529 1.362 . S
C530 C533 1.409 . S
C531 H523 0.930 . S
C531 C532 1.355 . S
C531 C533 1.415 . S
C532 C531 1.355 . S
C532 C534 1.419 . S
C533 C528 1.425 . S
C533 C530 1.409 . S
C533 C531 1.415 . S
C534 H524 0.930 . S
C534 C532 1.419 . S
C534 C535 1.362 . S
C535 H525 0.930 . S
C535 C528 1.409 . S
C535 C534 1.362 . S
H536 C542 0.930 . S
H537 C545 0.930 . S
H538 C546 0.930 . S
H539 C547 0.930 . S
H540 C550 0.930 . S
H541 C551 0.930 . S
C542 H536 0.930 . S
C542 C543 1.355 . S
C542 C544 1.415 . S
C543 C542 1.355 . S
C543 C545 1.419 . S
C544 C542 1.415 . S
C544 C549 1.425 . S
C544 C551 1.409 . S
C545 H537 0.930 . S
C545 C543 1.419 . S
C545 C546 1.362 . S
C546 H538 0.930 . S
C546 C545 1.362 . S
C546 C549 1.409 . S
C547 H539 0.930 . S
C547 C548 1.355 . S
C547 C549 1.415 . S
C548 C547 1.355 . S
C548 C550 1.419 . S
C549 C544 1.425 . S
C549 C546 1.409 . S
C549 C547 1.415 . S
C550 H540 0.930 . S
C550 C548 1.419 . S
C550 C551 1.362 . S
C551 H541 0.930 . S
C551 C544 1.409 . S
C551 C550 1.362 . S
H552 C558 0.930 . S
H553 C561 0.930 . S
H554 C562 0.930 . S
H555 C563 0.930 . S
H556 C566 0.930 . S
H557 C567 0.930 . S
C558 H552 0.930 . S
C558 C559 1.355 . S
C558 C560 1.415 . S
C559 C558 1.355 . S
C559 C561 1.419 . S
C560 C558 1.415 . S
C560 C565 1.425 . S
C560 C567 1.409 . S
C561 H553 0.930 . S
C561 C559 1.419 . S
C561 C562 1.362 . S
C562 H554 0.930 . S
C562 C561 1.362 . S
C562 C565 1.409 . S
C563 H555 0.930 . S
C563 C564 1.355 . S
C563 C565 1.415 . S
C564 C563 1.355 . S
C564 C566 1.419 . S
C565 C560 1.425 . S
C565 C562 1.409 . S
C565 C563 1.415 . S
C566 H556 0.930 . S
C566 C564 1.419 . S
C566 C567 1.362 . S
C567 H557 0.930 . S
C567 C560 1.409 . S
C567 C566 1.362 . S
H568 C574 0.930 . S
H569 C577 0.930 . S
H570 C578 0.930 . S
H571 C579 0.930 . S
H572 C582 0.930 . S
H573 C583 0.930 . S
C574 H568 0.930 . S
C574 C575 1.355 . S
C574 C576 1.415 . S
C575 C574 1.355 . S
C575 C577 1.419 . S
C576 C574 1.415 . S
C576 C581 1.425 . S
C576 C583 1.409 . S
C577 H569 0.930 . S
C577 C575 1.419 . S
C577 C578 1.362 . S
C578 H570 0.930 . S
C578 C577 1.362 . S
C578 C581 1.409 . S
C579 H571 0.930 . S
C579 C580 1.355 . S
C579 C581 1.415 . S
C580 C579 1.355 . S
C580 C582 1.419 . S
C581 C576 1.425 . S
C581 C578 1.409 . S
C581 C579 1.415 . S
C582 H572 0.930 . S
C582 C580 1.419 . S
C582 C583 1.362 . S
C583 H573 0.930 . S
C583 C576 1.409 . S
C583 C582 1.362 . S
H584 C590 0.930 . S
H585 C593 0.930 . S
H586 C594 0.930 . S
H587 C595 0.930 . S
H588 C598 0.930 . S
H589 C599 0.930 . S
C590 H584 0.930 . S
C590 C591 1.355 . S
C590 C592 1.415 . S
C591 C590 1.355 . S
C591 C593 1.419 . S
C592 C590 1.415 . S
C592 C597 1.425 . S
C592 C599 1.409 . S
C593 H585 0.930 . S
C593 C591 1.419 . S
C593 C594 1.362 . S
C594 H586 0.930 . S
C594 C593 1.362 . S
C594 C597 1.409 . S
C595 H587 0.930 . S
C595 C596 1.355 . S
C595 C597 1.415 . S
C596 C595 1.355 . S
C596 C598 1.419 . S
C597 C592 1.425 . S
C597 C594 1.409 . S
C597 C595 1.415 . S
C598 H588 0.930 . S
C598 C596 1.419 . S
C598 C599 1.362 . S
C599 H589 0.930 . S
C599 C592 1.409 . S
C599 C598 1.362 . S
H600 C606 0.930 . S
H601 C609 0.930 . S
H602 C610 0.930 . S
H603 C611 0.930 . S
H604 C614 0.930 . S
H605 C615 0.930 . S
C606 H600 0.930 . S
C606 C607 1.355 . S
C606 C608 1.415 . S
C607 C606 1.355 . S
C607 C609 1.419 . S
C608 C606 1.415 . S
C608 C613 1.425 . S
C608 C615 1.409 . S
C609 H601 0.930 . S
C609 C607 1.419 . S
C609 C610 1.362 . S
C610 H602 0.930 . S
C610 C609 1.362 . S
C610 C613 1.409 . S
C611 H603 0.930 . S
C611 C612 1.355 . S
C611 C613 1.415 . S
C612 C611 1.355 . S
C612 C614 1.419 . S
C613 C608 1.425 . S
C613 C610 1.409 . S
C613 C611 1.415 . S
C614 H604 0.930 . S
C614 C612 1.419 . S
C614 C615 1.362 . S
C615 H605 0.930 . S
C615 C608 1.409 . S
C615 C614 1.362 . S
H616 C622 0.930 . S
H617 C625 0.930 . S
H618 C626 0.930 . S
H619 C627 0.930 . S
H620 C630 0.930 . S
H621 C631 0.930 . S
C622 H616 0.930 . S
C622 C623 1.355 . S
C622 C624 1.415 . S
C623 C622 1.355 . S
C623 C625 1.419 . S
C624 C622 1.415 . S
C624 C629 1.425 . S
C624 C631 1.409 . S
C625 H617 0.930 . S
C625 C623 1.419 . S
C625 C626 1.362 . S
C626 H618 0.930 . S
C626 C625 1.362 . S
C626 C629 1.409 . S
C627 H619 0.930 . S
C627 C628 1.355 . S
C627 C629 1.415 . S
C628 C627 1.355 . S
C628 C630 1.419 . S
C629 C624 1.425 . S
C629 C626 1.409 . S
C629 C627 1.415 . S
C630 H620 0.930 . S
C630 C628 1.419 . S
C630 C631 1.362 . S
C631 H621 0.930 . S
C631 C624 1.409 . S
C631 C630 1.362 . S
H632 C638 0.930 . S
H633 C641 0.930 . S
H634 C642 0.930 . S
H635 C643 0.930 . S
H636 C646 0.930 . S
H637 C647 0.930 . S
C638 H632 0.930 . S
C638 C639 1.355 . S
C638 C640 1.415 . S
C639 C638 1.355 . S
C639 C641 1.419 . S
C640 C638 1.415 . S
C640 C645 1.425 . S
C640 C647 1.409 . S
C641 H633 0.930 . S
C641 C639 1.419 . S
C641 C642 1.362 . S
C642 H634 0.930 . S
C642 C641 1.362 . S
C642 C645 1.409 . S
C643 H635 0.930 . S
C643 C644 1.355 . S
C643 C645 1.415 . S
C644 C643 1.355 . S
C644 C646 1.419 . S
C645 C640 1.425 . S
C645 C642 1.409 . S
C645 C643 1.415 . S
C646 H636 0.930 . S
C646 C644 1.419 . S
C646 C647 1.362 . S
C647 H637 0.930 . S
C647 C640 1.409 . S
C647 C646 1.362 . S
H648 C654 0.930 . S
H649 C657 0.930 . S
H650 C658 0.930 . S
H651 C659 0.930 . S
H652 C662 0.930 . S
H653 C663 0.930 . S
C654 H648 0.930 . S
C654 C655 1.355 . S
C654 C656 1.415 . S
C655 C654 1.355 . S
C655 C657 1.419 . S
C656 C654 1.415 . S
C656 C661 1.425 . S
C656 C663 1.409 . S
C657 H649 0.930 . S
C657 C655 1.419 . S
C657 C658 1.362 . S
C658 H650 0.930 . S
C658 C657 1.362 . S
C658 C661 1.409 . S
C659 H651 0.930 . S
C659 C660 1.355 . S
C659 C661 1.415 . S
C660 C659 1.355 . S
C660 C662 1.419 . S
C661 C656 1.425 . S
C661 C658 1.409 . S
C661 C659 1.415 . S
C662 H652 0.930 . S
C662 C660 1.419 . S
C662 C663 1.362 . S
C663 H653 0.930 . S
C663 C656 1.409 . S
C663 C662 1.362 . S
H664 C670 0.930 . S
H665 C673 0.930 . S
H666 C674 0.930 . S
H667 C675 0.930 . S
H668 C678 0.930 . S
H669 C679 0.930 . S
C670 H664 0.930 . S
C670 C671 1.355 . S
C670 C672 1.415 . S
C671 C670 1.355 . S
C671 C673 1.419 . S
C672 C670 1.415 . S
C672 C677 1.425 . S
C672 C679 1.409 . S
C673 H665 0.930 . S
C673 C671 1.419 . S
C673 C674 1.362 . S
C674 H666 0.930 . S
C674 C673 1.362 . S
C674 C677 1.409 . S
C675 H667 0.930 . S
C675 C676 1.355 . S
C675 C677 1.415 . S
C676 C675 1.355 . S
C676 C678 1.419 . S
C677 C672 1.425 . S
C677 C674 1.409 . S
C677 C675 1.415 . S
C678 H668 0.930 . S
C678 C676 1.419 . S
C678 C679 1.362 . S
C679 H669 0.930 . S
C679 C672 1.409 . S
C679 C678 1.362 . S
H680 C686 0.930 . S
H681 C689 0.930 . S
H682 C690 0.930 . S
H683 C691 0.930 . S
H684 C694 0.930 . S
H685 C695 0.930 . S
C686 H680 0.930 . S
C686 C687 1.355 . S
C686 C688 1.415 . S
C687 C686 1.355 . S
C687 C689 1.419 . S
C688 C686 1.415 . S
C688 C693 1.425 . S
C688 C695 1.409 . S
C689 H681 0.930 . S
C689 C687 1.419 . S
C689 C690 1.362 . S
C690 H682 0.930 . S
C690 C689 1.362 . S
C690 C693 1.409 . S
C691 H683 0.930 . S
C691 C692 1.355 . S
C691 C693 1.415 . S
C692 C691 1.355 . S
C692 C694 1.419 . S
C693 C688 1.425 . S
C693 C690 1.409 . S
C693 C691 1.415 . S
C694 H684 0.930 . S
C694 C692 1.419 . S
C694 C695 1.362 . S
C695 H685 0.930 . S
C695 C688 1.409 . S
C695 C694 1.362 . S
H696 C702 0.930 . S
H697 C705 0.930 . S
H698 C706 0.930 . S
H699 C707 0.930 . S
H700 C710 0.930 . S
H701 C711 0.930 . S
C702 H696 0.930 . S
C702 C703 1.355 . S
C702 C704 1.415 . S
C703 C702 1.355 . S
C703 C705 1.419 . S
C704 C702 1.415 . S
C704 C709 1.425 . S
C704 C711 1.409 . S
C705 H697 0.930 . S
C705 C703 1.419 . S
C705 C706 1.362 . S
C706 H698 0.930 . S
C706 C705 1.362 . S
C706 C709 1.409 . S
C707 H699 0.930 . S
C707 C708 1.355 . S
C707 C709 1.415 1_554 S
C708 C707 1.355 . S
C708 C710 1.419 1_554 S
C709 C704 1.425 . S
C709 C706 1.409 . S
C709 C707 1.415 1_556 S
C710 H700 0.930 . S
C710 C708 1.419 1_556 S
C710 C711 1.362 . S
C711 H701 0.930 . S
C711 C704 1.409 . S
C711 C710 1.362 . S
H712 C718 0.930 . S
H713 C721 0.930 . S
H714 C722 0.930 . S
H715 C723 0.930 . S
H716 C726 0.930 . S
H717 C727 0.930 . S
C718 H712 0.930 . S
C718 C719 1.355 . S
C718 C720 1.415 . S
C719 C718 1.355 . S
C719 C721 1.419 . S
C720 C718 1.415 . S
C720 C725 1.425 . S
C720 C727 1.409 . S
C721 H713 0.930 . S
C721 C719 1.419 . S
C721 C722 1.362 . S
C722 H714 0.930 . S
C722 C721 1.362 . S
C722 C725 1.409 . S
C723 H715 0.930 . S
C723 C724 1.355 . S
C723 C725 1.415 . S
C724 C723 1.355 . S
C724 C726 1.419 . S
C725 C720 1.425 . S
C725 C722 1.409 . S
C725 C723 1.415 . S
C726 H716 0.930 . S
C726 C724 1.419 . S
C726 C727 1.362 . S
C727 H717 0.930 . S
C727 C720 1.409 . S
C727 C726 1.362 . S
H728 C734 0.930 . S
H729 C737 0.930 . S
H730 C738 0.930 . S
H731 C739 0.930 . S
H732 C742 0.930 . S
H733 C743 0.930 . S
C734 H728 0.930 . S
C734 C735 1.355 . S
C734 C736 1.415 . S
C735 C734 1.355 . S
C735 C737 1.419 . S
C736 C734 1.415 . S
C736 C741 1.425 . S
C736 C743 1.409 . S
C737 H729 0.930 . S
C737 C735 1.419 . S
C737 C738 1.362 . S
C738 H730 0.930 . S
C738 C737 1.362 . S
C738 C741 1.409 . S
C739 H731 0.930 . S
C739 C740 1.355 . S
C739 C741 1.415 . S
C740 C739 1.355 . S
C740 C742 1.419 . S
C741 C736 1.425 . S
C741 C738 1.409 . S
C741 C739 1.415 . S
C742 H732 0.930 . S
C742 C740 1.419 . S
C742 C743 1.362 . S
C743 H733 0.930 . S
C743 C736 1.409 . S
C743 C742 1.362 . S
H744 C750 0.930 . S
H745 C753 0.930 . S
H746 C754 0.930 . S
H747 C755 0.930 . S
H748 C758 0.930 . S
H749 C759 0.930 . S
C750 H744 0.930 . S
C750 C751 1.355 . S
C750 C752 1.415 . S
C751 C750 1.355 . S
C751 C753 1.419 . S
C752 C750 1.415 . S
C752 C757 1.425 . S
C752 C759 1.409 . S
C753 H745 0.930 . S
C753 C751 1.419 . S
C753 C754 1.362 . S
C754 H746 0.930 . S
C754 C753 1.362 . S
C754 C757 1.409 . S
C755 H747 0.930 . S
C755 C756 1.355 . S
C755 C757 1.415 . S
C756 C755 1.355 . S
C756 C758 1.419 . S
C757 C752 1.425 . S
C757 C754 1.409 . S
C757 C755 1.415 . S
C758 H748 0.930 . S
C758 C756 1.419 . S
C758 C759 1.362 . S
C759 H749 0.930 . S
C759 C752 1.409 . S
C759 C758 1.362 . S
H760 C766 0.930 . S
H761 C769 0.930 . S
H762 C770 0.930 . S
H763 C771 0.930 . S
H764 C774 0.930 . S
H765 C775 0.930 . S
C766 H760 0.930 . S
C766 C767 1.355 . S
C766 C768 1.415 . S
C767 C766 1.355 . S
C767 C769 1.419 . S
C768 C766 1.415 . S
C768 C773 1.425 . S
C768 C775 1.409 . S
C769 H761 0.930 . S
C769 C767 1.419 . S
C769 C770 1.362 . S
C770 H762 0.930 . S
C770 C769 1.362 . S
C770 C773 1.409 . S
C771 H763 0.930 . S
C771 C772 1.355 . S
C771 C773 1.415 . S
C772 C771 1.355 . S
C772 C774 1.419 . S
C773 C768 1.425 . S
C773 C770 1.409 . S
C773 C771 1.415 . S
C774 H764 0.930 . S
C774 C772 1.419 . S
C774 C775 1.362 . S
C775 H765 0.930 . S
C775 C768 1.409 . S
C775 C774 1.362 . S
H776 C782 0.930 . S
H777 C785 0.930 . S
H778 C786 0.930 . S
H779 C787 0.930 . S
H780 C790 0.930 . S
H781 C791 0.930 . S
C782 H776 0.930 . S
C782 C783 1.355 . S
C782 C784 1.415 . S
C783 C782 1.355 . S
C783 C785 1.419 . S
C784 C782 1.415 . S
C784 C789 1.425 . S
C784 C791 1.409 . S
C785 H777 0.930 . S
C785 C783 1.419 . S
C785 C786 1.362 . S
C786 H778 0.930 . S
C786 C785 1.362 . S
C786 C789 1.409 . S
C787 H779 0.930 . S
C787 C788 1.355 . S
C787 C789 1.415 . S
C788 C787 1.355 . S
C788 C790 1.419 . S
C789 C784 1.425 . S
C789 C786 1.409 . S
C789 C787 1.415 . S
C790 H780 0.930 . S
C790 C788 1.419 . S
C790 C791 1.362 . S
C791 H781 0.930 . S
C791 C784 1.409 . S
C791 C790 1.362 . S
H792 C798 0.930 . S
H793 C801 0.930 . S
H794 C802 0.930 . S
H795 C803 0.930 . S
H796 C806 0.930 . S
H797 C807 0.930 . S
C798 H792 0.930 . S
C798 C799 1.355 . S
C798 C800 1.415 . S
C799 C798 1.355 . S
C799 C801 1.419 . S
C800 C798 1.415 . S
C800 C805 1.425 . S
C800 C807 1.409 . S
C801 H793 0.930 . S
C801 C799 1.419 . S
C801 C802 1.362 . S
C802 H794 0.930 . S
C802 C801 1.362 . S
C802 C805 1.409 . S
C803 H795 0.930 . S
C803 C804 1.355 . S
C803 C805 1.415 . S
C804 C803 1.355 . S
C804 C806 1.419 . S
C805 C800 1.425 . S
C805 C802 1.409 . S
C805 C803 1.415 . S
C806 H796 0.930 . S
C806 C804 1.419 . S
C806 C807 1.362 . S
C807 H797 0.930 . S
C807 C800 1.409 . S
C807 C806 1.362 . S
H808 C814 0.930 . S
H809 C817 0.930 . S
H810 C818 0.930 . S
H811 C819 0.930 . S
H812 C822 0.930 . S
H813 C823 0.930 . S
C814 H808 0.930 . S
C814 C815 1.355 . S
C814 C816 1.411 1_554 S
C815 C814 1.355 . S
C815 C817 1.419 1_554 S
C816 C814 1.411 1_556 S
C816 C821 1.430 . S
C816 C823 1.409 1_556 S
C817 H809 0.930 . S
C817 C815 1.419 1_556 S
C817 C818 1.362 . S
C818 H810 0.930 . S
C818 C817 1.362 . S
C818 C821 1.409 . S
C819 H811 0.930 . S
C819 C820 1.355 . S
C819 C821 1.415 . S
C820 C819 1.355 . S
C820 C822 1.419 . S
C821 C816 1.430 . S
C821 C818 1.409 . S
C821 C819 1.415 . S
C822 H812 0.930 . S
C822 C820 1.419 . S
C822 C823 1.362 1_556 S
C823 H813 0.930 . S
C823 C816 1.409 1_554 S
C823 C822 1.362 1_554 S
H824 C830 0.930 . S
H825 C833 0.930 . S
H826 C834 0.930 . S
H827 C835 0.930 . S
H828 C838 0.930 . S
H829 C839 0.930 . S
C830 H824 0.930 . S
C830 C831 1.355 . S
C830 C832 1.415 . S
C831 C830 1.355 . S
C831 C833 1.419 . S
C832 C830 1.415 . S
C832 C837 1.425 . S
C832 C839 1.409 . S
C833 H825 0.930 . S
C833 C831 1.419 . S
C833 C834 1.362 . S
C834 H826 0.930 . S
C834 C833 1.362 . S
C834 C837 1.409 . S
C835 H827 0.930 . S
C835 C836 1.355 . S
C835 C837 1.415 . S
C836 C835 1.355 . S
C836 C838 1.419 . S
C837 C832 1.425 . S
C837 C834 1.409 . S
C837 C835 1.415 . S
C838 H828 0.930 . S
C838 C836 1.419 . S
C838 C839 1.362 . S
C839 H829 0.930 . S
C839 C832 1.409 . S
C839 C838 1.362 . S
C468 C442 1.676 . S
C463 C29 1.612 . S
C479 C115 1.576 . S
C484 C383 1.587 . S
C495 C153 1.585 . S
C500 C386 1.658 . S
C511 C239 1.569 . S
C516 C400 1.565 . S
C532 C425 1.629 . S
C527 C301 1.618 . S
C543 C339 1.808 . S
C548 C428 1.925 . S
C559 C91 1.520 . S
C564 C397 1.658 . S
C575 C177 1.528 . S
C580 C411 1.557 . S
C591 C215 1.581 . S
C596 C414 1.643 . S
C612 C439 1.908 . S
C607 C277 1.807 . S
C628 C453 1.605 . S
C623 C363 1.579 . S
C644 C372 1.536 . S
C639 C53 1.485 . S
C655 C35 1.561 . S
C660 C395 1.564 . S
C671 C109 1.408 . S
C676 C409 1.514 . S
C692 C419 1.473 . S
C687 C159 1.444 . S
C703 C233 1.620 . S
C708 C437 1.702 . S
C724 C451 1.548 . S
C719 C295 1.453 . S
C740 C377 1.413 . S
C735 C345 1.425 . S
C756 C447 1.488 . S
C751 C97 1.450 . S
C767 C171 1.425 . S
C772 C381 1.528 . S
C788 C391 1.576 . S
C783 C221 1.550 . S
C799 C283 1.410 . S
C804 C405 1.424 . S
C815 C357 1.462 . S
C820 C423 1.562 . S
C831 C47 1.623 . S
C836 C433 1.729 . S
