# Generated by pormake.
# Topology sit, (3,6)-cn, num edge types: 1
# Building blocks:
#     Node 0, Type 0, BuildingBlock: INOVEN_clean_linker_0, # of connection points: 3
#     Node 1, Type 0, BuildingBlock: INOVEN_clean_linker_0, # of connection points: 3
#     Node 2, Type 0, BuildingBlock: INOVEN_clean_linker_0, # of connection points: 3
#     Node 3, Type 0, BuildingBlock: INOVEN_clean_linker_0, # of connection points: 3
#     Node 4, Type 1, BuildingBlock: MIDCAF_clean_sbu_0, # of connection points: 6
#     Node 5, Type 1, BuildingBlock: MIDCAF_clean_sbu_0, # of connection points: 6
#     Edge 6, Type (0, 1), BuildingBlock: ZUJKAS_clean_linker_0, # of connection points: 2
#     Edge 7, Type (0, 1), BuildingBlock: ZUJKAS_clean_linker_0, # of connection points: 2
#     Edge 8, Type (0, 1), BuildingBlock: ZUJKAS_clean_linker_0, # of connection points: 2
#     Edge 9, Type (0, 1), BuildingBlock: ZUJKAS_clean_linker_0, # of connection points: 2
#     Edge 10, Type (0, 1), BuildingBlock: ZUJKAS_clean_linker_0, # of connection points: 2
#     Edge 11, Type (0, 1), BuildingBlock: ZUJKAS_clean_linker_0, # of connection points: 2
#     Edge 12, Type (0, 1), BuildingBlock: ZUJKAS_clean_linker_0, # of connection points: 2
#     Edge 13, Type (0, 1), BuildingBlock: ZUJKAS_clean_linker_0, # of connection points: 2
#     Edge 14, Type (0, 1), BuildingBlock: ZUJKAS_clean_linker_0, # of connection points: 2
#     Edge 15, Type (0, 1), BuildingBlock: ZUJKAS_clean_linker_0, # of connection points: 2
#     Edge 16, Type (0, 1), BuildingBlock: ZUJKAS_clean_linker_0, # of connection points: 2
#     Edge 17, Type (0, 1), BuildingBlock: ZUJKAS_clean_linker_0, # of connection points: 2
# Relax obj value: 0.072
# Max RMSD: 0.181
# Mean RMSD: 0.110
data_MOF--net-sit--node1-MIDCAF_clean_sbu_0--node2-INOVEN_clean_linker_0--edge1-ZUJKAS_clean_linker_0
_symmetry_space_group_name_H-M    P1
_symmetry_Int_Tables_number       1
_symmetry_cell_setting            triclinic
loop_
_symmetry_equiv_pos_as_xyz
'x, y, z'
_cell_length_a     27.717069
_cell_length_b     42.379407
_cell_length_c     48.024677
_cell_angle_alpha  90.060528
_cell_angle_beta   87.100666
_cell_angle_gamma 84.140341
loop_
_atom_site_label
_atom_site_type_symbol
_atom_site_fract_x
_atom_site_fract_y
_atom_site_fract_z
_atom_type_partial_charge
H0 H 0.01166 0.33164 0.05055 0.0
H1 H 0.09086 0.4096 0.02483 0.0
H2 H 0.16005 0.3339 0.07266 0.0
N3 N 0.08127 0.30027 0.07761 0.0
N4 N 0.11761 0.28338 0.08541 0.0
C5 C 0.04422 0.34379 0.05058 0.0
C6 C 0.0465 0.37229 0.03591 0.0
C7 C 0.08486 0.32973 0.06392 0.0
C8 C 0.12809 0.34474 0.06293 0.0
C9 C 0.12987 0.37398 0.04933 0.0
C10 C 0.08893 0.38756 0.03613 0.0
H11 H 0.93097 0.70552 0.06548 0.0
H12 H 0.02409 0.63197 0.02213 0.0
H13 H 0.0844 0.71349 0.05314 0.0
N14 N -0.00013 0.74271 0.07557 0.0
N15 N 0.03452 0.75887 0.07853 0.0
C16 C 0.96679 0.69577 0.05772 0.0
C17 C 0.973 0.66613 0.04402 0.0
C18 C 0.00683 0.71296 0.06134 0.0
C19 C 0.05324 0.70043 0.05071 0.0
C20 C 0.05971 0.67102 0.03686 0.0
C21 C 0.01954 0.65404 0.03386 0.0
H22 H 0.47449 0.84074 0.56243 0.0
H23 H 0.55537 0.90722 0.51743 0.0
H24 H 0.62828 0.81924 0.54514 0.0
N25 N 0.54838 0.79801 0.57084 0.0
N26 N 0.58429 0.77793 0.57261 0.0
C27 C 0.50873 0.84753 0.5537 0.0
C28 C 0.51009 0.87655 0.53975 0.0
C29 C 0.5513 0.82701 0.55625 0.0
C30 C 0.59556 0.83542 0.54407 0.0
C31 C 0.59727 0.86424 0.52971 0.0
C32 C 0.55452 0.8849 0.52836 0.0
H33 H 0.45615 0.24657 0.52689 0.0
H34 H 0.51983 0.15744 0.49266 0.0
H35 H 0.60454 0.21323 0.54241 0.0
N36 N 0.53319 0.26153 0.55201 0.0
N37 N 0.5664 0.26472 0.56806 0.0
C38 C 0.48681 0.22857 0.52443 0.0
C39 C 0.48315 0.20143 0.50829 0.0
C40 C 0.53029 0.23293 0.53701 0.0
C41 C 0.57043 0.20967 0.53342 0.0
C42 C 0.56714 0.18258 0.51693 0.0
C43 C 0.52312 0.17858 0.50489 0.0
Zn44 Zn 0.01246 0.07761 0.33975 0.0
Zn45 Zn 0.09841 0.95918 0.3405 0.0
Zn46 Zn 0.05654 0.01903 0.34075 0.0
C47 C 0.08242 0.97519 0.28515 0.0
C48 C 0.00743 0.96089 0.36991 0.0
O49 O 0.1053 0.04874 0.36079 0.0
O50 O 0.0639 0.09626 0.36042 0.0
C51 C 0.0348 0.06034 0.28455 0.0
O52 O 0.06448 1.00147 0.29691 0.0
O53 O 0.10148 0.95284 0.2996 0.0
O54 O 0.04473 0.94203 0.36363 0.0
O55 O 0.00554 0.99024 0.36271 0.0
O56 O 0.01238 0.08265 0.29893 0.0
O57 O 0.05334 0.03501 0.29653 0.0
O58 O -0.01375 0.02229 0.36564 0.0
O59 O 0.95124 0.07109 0.36048 0.0
C60 C 0.95066 0.04384 0.37092 0.0
O61 O 0.12388 1.01653 0.36429 0.0
O62 O 0.15759 0.96706 0.35934 0.0
C63 C 0.10125 0.07857 0.36672 0.0
C64 C 0.15812 0.99461 0.36923 0.0
Zn65 Zn 0.57486 0.57774 0.84122 0.0
Zn66 Zn 0.56201 0.45311 0.84183 0.0
Zn67 Zn 0.56871 0.51496 0.84019 0.0
C68 C 0.55888 0.47123 0.78586 0.0
C69 C 0.48548 0.4797 0.87523 0.0
O70 O 0.63351 0.52526 0.86244 0.0
O71 O 0.63761 0.57708 0.85937 0.0
C72 C 0.56978 0.5594 0.78533 0.0
O73 O 0.56597 0.49847 0.79606 0.0
O74 O 0.55486 0.44782 0.80172 0.0
O75 O 0.50338 0.4527 0.86664 0.0
O76 O 0.50441 0.50487 0.867 0.0
O77 O 0.57201 0.58344 0.80055 0.0
O78 O 0.56885 0.53158 0.79611 0.0
O79 O 0.50396 0.53786 0.86374 0.0
O80 O 0.51466 0.58892 0.86494 0.0
C81 C 0.48949 0.56657 0.87143 0.0
O82 O 0.63459 0.49209 0.85879 0.0
O83 O 0.62562 0.4408 0.85805 0.0
C84 C 0.65419 0.55026 0.86809 0.0
C85 C 0.65041 0.46311 0.86385 0.0
H86 H 0.03466 0.25994 0.10531 0.0
H87 H 0.02972 0.21079 0.13145 0.0
H88 H 0.18556 0.19088 0.1228 0.0
H89 H 0.19063 0.24084 0.09735 0.0
H90 H 0.05651 0.14844 0.11907 0.0
H91 H 0.16251 0.18682 0.20608 0.0
H92 H 0.14096 0.2137 0.17932 0.0
H93 H 0.19385 0.186 0.17243 0.0
C94 C 0.06787 0.24508 0.10894 0.0
C95 C 0.11329 0.25422 0.09952 0.0
C96 C 0.06499 0.21692 0.1238 0.0
C97 C 0.1073 0.19731 0.12949 0.0
C98 C 0.1525 0.20593 0.11925 0.0
H99 H 0.11829 0.04435 0.25271 0.0
H100 H 0.14111 0.06988 0.20873 0.0
C101 C 0.15541 0.2343 0.10463 0.0
C102 C 0.10374 0.16861 0.14699 0.0
H103 H 0.13374 0.13685 0.20991 0.0
C104 C 0.07385 0.14573 0.1388 0.0
C105 C 0.12654 0.16492 0.1727 0.0
C106 C 0.15743 0.18925 0.18335 0.0
C107 C 0.06482 0.11996 0.15604 0.0
C108 C 0.08602 0.11706 0.18218 0.0
C109 C 0.11788 0.13895 0.18972 0.0
C110 C 0.07002 0.09497 0.20393 0.0
C111 C 0.03171 0.09647 0.14646 0.0
C112 C 0.0221 0.09956 0.21514 0.0
C113 C 0.00926 0.08532 0.24024 0.0
C114 C 0.04401 0.06606 0.25453 0.0
C115 C 0.09071 0.05886 0.24196 0.0
C116 C 0.10383 0.07357 0.21694 0.0
H117 H 0.03148 0.09558 0.12334 0.0
H118 H 0.04272 0.0723 0.15431 0.0
H119 H -0.00593 0.10387 0.15462 0.0
H120 H -0.00441 0.11632 0.20578 0.0
H121 H 0.97304 0.09132 0.24955 0.0
H122 H 0.95207 0.7909 0.10263 0.0
H123 H 0.94832 0.84035 0.12977 0.0
H124 H 0.10305 0.84175 0.11532 0.0
H125 H 0.10637 0.79299 0.08767 0.0
H126 H -0.01017 0.84891 0.17686 0.0
H127 H 0.05986 0.93275 0.1011 0.0
H128 H 0.04081 0.89524 0.09052 0.0
H129 H 0.10122 0.89748 0.10219 0.0
C130 C -0.01497 0.80213 0.10491 0.0
C131 C 0.02974 0.78832 0.09308 0.0
C132 C 0.98288 0.83038 0.12036 0.0
C133 C 0.02523 0.84527 0.12414 0.0
C134 C 0.06959 0.83147 0.112 0.0
H135 H 0.14431 0.93904 0.24983 0.0
H136 H 0.12404 0.91487 0.2063 0.0
C137 C 0.07165 0.80345 0.09648 0.0
C138 C 0.02452 0.87309 0.14317 0.0
H139 H 0.07138 0.94415 0.15014 0.0
C140 C 0.00638 0.87013 0.17077 0.0
C141 C 0.04592 0.90097 0.1353 0.0
C142 C 0.06252 0.90692 0.10555 0.0
C143 C 0.01227 0.89308 0.19108 0.0
C144 C 0.03698 0.91964 0.18363 0.0
C145 C 0.05261 0.92366 0.15577 0.0
C146 C 0.05262 0.94052 0.20543 0.0
C147 C -0.00517 0.88786 0.22084 0.0
C148 C 0.02005 0.96421 0.21848 0.0
C149 C 0.03188 0.97847 0.24328 0.0
C150 C 0.07601 0.96868 0.25542 0.0
C151 C 0.11002 0.94696 0.24094 0.0
C152 C 0.09851 0.93313 0.21609 0.0
H153 H 0.97559 0.86619 0.22316 0.0
H154 H 0.02622 0.88568 0.23443 0.0
H155 H 0.96984 0.90861 0.22833 0.0
H156 H -0.01562 0.9701 0.21054 0.0
H157 H 0.00486 0.99494 0.25415 0.0
H158 H 0.65716 0.73326 0.57817 0.0
H159 H 0.65665 0.68479 0.60622 0.0
H160 H 0.50535 0.71 0.62978 0.0
H161 H 0.50571 0.75804 0.60155 0.0
H162 H 0.63752 0.68378 0.6625 0.0
H163 H 0.5069 0.61634 0.61006 0.0
H164 H 0.53425 0.64894 0.59359 0.0
H165 H 0.48319 0.65647 0.61819 0.0
C166 C 0.62375 0.72805 0.58907 0.0
C167 C 0.58171 0.74924 0.58771 0.0
C168 C 0.6234 0.70045 0.60501 0.0
C169 C 0.58076 0.69346 0.61975 0.0
C170 C 0.53835 0.71444 0.61805 0.0
H171 H 0.49429 0.58773 0.75859 0.0
H172 H 0.49946 0.61429 0.71349 0.0
C173 C 0.53871 0.74205 0.6021 0.0
C174 C 0.58181 0.66605 0.63907 0.0
H175 H 0.52462 0.60065 0.65686 0.0
C176 C 0.61349 0.66526 0.66098 0.0
C177 C 0.55031 0.64196 0.63709 0.0
C178 C 0.51706 0.64072 0.6133 0.0
C179 C 0.61285 0.64206 0.68179 0.0
C180 C 0.58035 0.61844 0.68031 0.0
C181 C 0.54972 0.6186 0.65788 0.0
C182 C 0.57408 0.5959 0.70357 0.0
C183 C 0.64506 0.6442 0.70603 0.0
C184 C 0.6133 0.57513 0.71217 0.0
C185 C 0.61031 0.55995 0.73801 0.0
C186 C 0.56773 0.56481 0.7552 0.0
C187 C 0.52713 0.58313 0.74537 0.0
C188 C 0.53018 0.59843 0.71969 0.0
H189 H 0.66058 0.66733 0.70676 0.0
H190 H 0.62456 0.64094 0.72612 0.0
H191 H 0.67567 0.62518 0.70404 0.0
H192 H 0.64732 0.57249 0.69986 0.0
H193 H 0.64245 0.5466 0.74552 0.0
H194 H 0.52752 0.32378 0.55402 0.0
H195 H 0.53212 0.3728 0.58042 0.0
H196 H 0.61386 0.31946 0.64207 0.0
H197 H 0.61192 0.271 0.61459 0.0
H198 H 0.49569 0.39082 0.62672 0.0
H199 H 0.69157 0.3914 0.63735 0.0
H200 H 0.66772 0.36452 0.61368 0.0
H201 H 0.67523 0.35399 0.64978 0.0
C202 C 0.54701 0.32273 0.57303 0.0
C203 C 0.56936 0.29368 0.5825 0.0
C204 C 0.54973 0.35075 0.5881 0.0
C205 C 0.57424 0.3502 0.61308 0.0
C206 C 0.59641 0.32101 0.6224 0.0
H207 H 0.49656 0.43553 0.7631 0.0
H208 H 0.49932 0.41549 0.71577 0.0
C209 C 0.59477 0.2932 0.60695 0.0
C210 C 0.57268 0.37925 0.63084 0.0
H211 H 0.63966 0.41614 0.6763 0.0
C212 C 0.52756 0.3968 0.63696 0.0
C213 C 0.61423 0.38832 0.64359 0.0
C214 C 0.66491 0.37374 0.63541 0.0
C215 C 0.52214 0.42082 0.65736 0.0
C216 C 0.56235 0.42652 0.673 0.0
C217 C 0.60836 0.41133 0.66493 0.0
C218 C 0.55607 0.44349 0.70032 0.0
C219 C 0.47286 0.43911 0.66244 0.0
C220 C 0.58728 0.46598 0.70786 0.0
C221 C 0.58623 0.47719 0.73547 0.0
C222 C 0.55414 0.46593 0.75578 0.0
C223 C 0.52147 0.44479 0.7478 0.0
C224 C 0.52265 0.43355 0.72054 0.0
H225 H 0.45456 0.4431 0.6425 0.0
H226 H 0.44964 0.42504 0.67602 0.0
H227 H 0.47533 0.46245 0.67251 0.0
H228 H 0.61386 0.47373 0.69275 0.0
H229 H 0.61266 0.49276 0.74131 0.0
H230 H 0.14422 0.43483 0.06216 0.0
H231 H 0.21007 0.4641 0.04302 0.0
H232 H 0.28167 0.37745 0.00675 0.0
H233 H 0.21654 0.34806 0.02642 0.0
H234 H 0.34671 0.41944 0.02379 0.0
H235 H 0.20335 0.4796 0.95936 0.0
H236 H 0.19409 0.4846 0.99645 0.0
H237 H 0.19272 0.44606 0.98104 0.0
C238 C 0.175 0.42193 0.05096 0.0
C239 C 0.17532 0.38929 0.04554 0.0
C240 C 0.2123 0.43867 0.03986 0.0
C241 C 0.24996 0.42308 0.02283 0.0
C242 C 0.25275 0.38996 0.01972 0.0
H243 H 0.4049 0.44893 0.87494 0.0
H244 H 0.34645 0.4431 0.91402 0.0
C245 C 0.2157 0.37313 0.03107 0.0
C246 C 0.28268 0.44126 0.00524 0.0
H247 H 0.28362 0.48856 0.94767 0.0
C248 C 0.33302 0.43507 0.00749 0.0
C249 C 0.26452 0.46151 0.98386 0.0
C250 C 0.21078 0.46826 0.97977 0.0
C251 C 0.36576 0.44729 0.98806 0.0
C252 C 0.3475 0.46641 0.96605 0.0
C253 C 0.2973 0.47405 0.96472 0.0
C254 C 0.37915 0.47406 0.94181 0.0
C255 C 0.41948 0.43797 0.99009 0.0
C256 C 0.41586 0.49424 0.94426 0.0
C257 C 0.44893 0.4979 0.92177 0.0
C258 C 0.44565 0.48128 0.89671 0.0
C259 C 0.40775 0.46217 0.894 0.0
C260 C 0.37449 0.45883 0.91628 0.0
H261 H 0.42729 0.42024 0.00671 0.0
H262 H 0.4355 0.42796 0.96991 0.0
H263 H 0.43777 0.45933 0.99476 0.0
H264 H 0.41999 0.50615 0.96381 0.0
H265 H 0.47842 0.51239 0.9244 0.0
H266 H 0.88849 0.68911 0.02107 0.0
H267 H 0.83048 0.65787 -0.00024 0.0
H268 H 0.9068 0.57183 0.02985 0.0
H269 H 0.96494 0.603 0.05118 0.0
H270 H 0.89956 0.57115 0.97354 0.0
H271 H 0.71912 0.60723 0.02457 0.0
H272 H 0.74984 0.6409 0.01415 0.0
H273 H 0.775 0.61439 0.04018 0.0
C274 C 0.89174 0.66366 0.02408 0.0
C275 C 0.93132 0.64847 0.03764 0.0
C276 C 0.85859 0.64579 0.01187 0.0
C277 C 0.86422 0.61249 0.01329 0.0
C278 C 0.90176 0.59746 0.02852 0.0
H279 H 0.65883 0.51736 0.91663 0.0
H280 H 0.71406 0.52386 0.95419 0.0
C281 C 0.93488 0.6153 0.04069 0.0
C282 C 0.83537 0.59351 0.99567 0.0
H283 H 0.71957 0.58636 0.97753 0.0
C284 C 0.86017 0.57393 0.97481 0.0
C285 C 0.78405 0.59668 0.99754 0.0
C286 C 0.75546 0.61568 0.02052 0.0
C287 C 0.835 0.55945 0.95452 0.0
C288 C 0.78387 0.56493 0.95501 0.0
C289 C 0.7589 0.58246 0.97706 0.0
C290 C 0.75604 0.55637 0.93113 0.0
C291 C 0.86339 0.53947 0.93208 0.0
C292 C 0.76215 0.57199 0.90563 0.0
C293 C 0.7306 0.5685 0.88435 0.0
C294 C 0.69287 0.54899 0.88809 0.0
C295 C 0.68821 0.53213 0.91311 0.0
C296 C 0.71949 0.53592 0.93457 0.0
H297 H 0.89858 0.52869 0.93958 0.0
H298 H 0.84257 0.52028 0.9248 0.0
H299 H 0.87127 0.55474 0.91399 0.0
H300 H 0.78968 0.58826 0.90276 0.0
H301 H 0.73447 0.58202 0.86537 0.0
H302 H 0.05519 0.39234 0.98235 0.0
H303 H -0.00922 0.41293 0.95242 0.0
H304 H 0.88363 0.40077 0.01874 0.0
H305 H 0.94836 0.38029 0.04915 0.0
H306 H 0.91154 0.37737 0.93869 0.0
H307 H 0.85037 0.49412 0.98866 0.0
H308 H 0.90978 0.47348 0.99322 0.0
H309 H 0.85744 0.46058 0.01163 0.0
C310 C 0.01798 0.39449 0.99076 0.0
C311 C 0.00677 0.38496 0.01818 0.0
C312 C 0.98128 0.40619 0.9736 0.0
C313 C 0.93267 0.4088 0.98354 0.0
C314 C 0.92113 0.39941 0.01091 0.0
H315 H 0.66746 0.41617 0.90122 0.0
H316 H 0.73901 0.40468 0.92857 0.0
C317 C 0.95796 0.38745 0.02812 0.0
C318 C 0.89404 0.41901 0.96442 0.0
H319 H 0.8024 0.47702 0.95305 0.0
C320 C 0.8879 0.39926 0.94169 0.0
C321 C 0.86386 0.44781 0.96824 0.0
C322 C 0.87068 0.47047 0.99161 0.0
C323 C 0.8512 0.40704 0.92314 0.0
C324 C 0.81974 0.43515 0.92761 0.0
C325 C 0.82672 0.45547 0.9498 0.0
C326 C 0.77721 0.4424 0.91062 0.0
C327 C 0.8458 0.38498 0.89907 0.0
C328 C 0.77538 0.46733 0.89138 0.0
C329 C 0.73467 0.47369 0.8754 0.0
C330 C 0.69506 0.45564 0.87898 0.0
C331 C 0.69751 0.43045 0.89801 0.0
C332 C 0.73817 0.42396 0.91374 0.0
H333 H 0.87885 0.36814 0.89503 0.0
H334 H 0.81472 0.37101 0.90396 0.0
H335 H 0.83816 0.39864 0.87979 0.0
H336 H 0.80544 0.48167 0.88865 0.0
H337 H 0.73407 0.49271 0.86035 0.0
H338 H 0.12255 0.70349 0.00521 0.0
H339 H 0.19611 0.68148 0.97868 0.0
H340 H 0.17708 0.58851 0.01121 0.0
H341 H 0.10405 0.61045 0.03829 0.0
H342 H 0.27436 0.60438 0.01003 0.0
H343 H 0.18948 0.62531 0.90855 0.0
H344 H 0.18637 0.65991 0.93049 0.0
H345 H 0.1546 0.62677 0.94141 0.0
C346 C 0.13457 0.67849 0.00714 0.0
C347 C 0.10742 0.65864 0.02367 0.0
C348 C 0.17621 0.6659 0.99173 0.0
C349 C 0.19128 0.63329 0.99258 0.0
C350 C 0.16566 0.61368 0.01009 0.0
H351 H 0.40431 0.53925 0.86998 0.0
H352 H 0.33101 0.55119 0.90072 0.0
C353 C 0.12398 0.62623 0.02546 0.0
C354 C 0.23321 0.61956 0.97473 0.0
H355 H 0.27479 0.6104 0.9068 0.0
C356 C 0.2744 0.60547 0.98746 0.0
C357 C 0.23264 0.62041 0.94531 0.0
C358 C 0.18826 0.63362 0.93055 0.0
C359 C 0.316 0.59344 0.97148 0.0
C360 C 0.3164 0.59594 0.9421 0.0
C361 C 0.27445 0.60875 0.92935 0.0
C362 C 0.36096 0.58743 0.92434 0.0
C363 C 0.35928 0.57843 0.9862 0.0
C364 C 0.40156 0.60411 0.9273 0.0
C365 C 0.44316 0.59729 0.90993 0.0
C366 C 0.44495 0.5736 0.88934 0.0
C367 C 0.40406 0.55718 0.88608 0.0
C368 C 0.36226 0.56406 0.90349 0.0
H369 H 0.34837 0.56929 0.00701 0.0
H370 H 0.37882 0.55865 0.9737 0.0
H371 H 0.38479 0.59653 0.98932 0.0
H372 H 0.40085 0.62272 0.94284 0.0
H373 H 0.47413 0.61041 0.91277 0.0
H374 H 0.69097 0.85549 0.54698 0.0
H375 H 0.76477 0.87077 0.52222 0.0
H376 H 0.67968 0.90735 0.45455 0.0
H377 H 0.60646 0.89122 0.47834 0.0
H378 H 0.79562 0.85261 0.45892 0.0
H379 H 0.76383 0.98057 0.48687 0.0
H380 H 0.73663 0.95027 0.50679 0.0
H381 H 0.71261 0.96298 0.47417 0.0
C382 C 0.68808 0.86647 0.5267 0.0
C383 C 0.64266 0.87248 0.51483 0.0
C384 C 0.73015 0.87534 0.51271 0.0
C385 C 0.72727 0.89052 0.48682 0.0
C386 C 0.68234 0.89606 0.47473 0.0
H387 H 0.91038 0.97658 0.36504 0.0
H388 H 0.84364 0.95892 0.39463 0.0
C389 C 0.64052 0.88698 0.48848 0.0
C390 C 0.77106 0.90037 0.47189 0.0
H391 H 0.82517 0.96594 0.45145 0.0
C392 C 0.80263 0.87729 0.45751 0.0
C393 C 0.77943 0.93263 0.46998 0.0
C394 C 0.74659 0.95813 0.4854 0.0
C395 C 0.84182 0.88577 0.44046 0.0
C396 C 0.85006 0.91814 0.43831 0.0
C397 C 0.8188 0.94116 0.45312 0.0
C398 C 0.89045 0.92867 0.42044 0.0
C399 C 0.87286 0.86013 0.42407 0.0
C400 C 0.93879 0.9177 0.42528 0.0
C401 C 0.97676 0.92774 0.40842 0.0
C402 C 0.96705 0.94937 0.38679 0.0
C403 C 0.91872 0.96026 0.38188 0.0
C404 C 0.8807 0.95013 0.39868 0.0
H405 H 0.85416 0.8383 0.4222 0.0
H406 H 0.88273 0.8684 0.4028 0.0
H407 H 0.90686 0.85377 0.43493 0.0
H408 H 0.94719 0.90165 0.4423 0.0
H409 H 0.0138 0.91916 0.4127 0.0
H410 H 0.47452 0.19158 0.45312 0.0
H411 H 0.40407 0.17499 0.43037 0.0
H412 H 0.32128 0.18181 0.509 0.0
H413 H 0.39193 0.1988 0.53191 0.0
H414 H 0.32987 0.11969 0.47676 0.0
H415 H 0.2678 0.22608 0.41533 0.0
H416 H 0.33222 0.21459 0.4142 0.0
H417 H 0.30155 0.22844 0.44639 0.0
C418 C 0.44092 0.19018 0.4654 0.0
C419 C 0.43836 0.19649 0.49419 0.0
C420 C 0.40082 0.18075 0.45241 0.0
C421 C 0.35762 0.17731 0.46803 0.0
C422 C 0.35438 0.18453 0.49665 0.0
H423 H 0.08874 0.12893 0.40225 0.0
H424 H 0.15059 0.15233 0.42776 0.0
C425 C 0.39445 0.19437 0.50964 0.0
C426 C 0.31751 0.16373 0.45469 0.0
H427 H 0.23457 0.17826 0.40497 0.0
C428 C 0.30866 0.13251 0.46123 0.0
C429 C 0.29021 0.1806 0.43446 0.0
C430 C 0.29798 0.21438 0.4272 0.0
C431 C 0.27366 0.11743 0.44757 0.0
C432 C 0.24714 0.13405 0.42682 0.0
C433 C 0.25527 0.16553 0.42076 0.0
C434 C 0.2101 0.1194 0.41147 0.0
C435 C 0.26506 0.08397 0.45554 0.0
C436 C 0.22329 0.09343 0.39352 0.0
C437 C 0.18803 0.08016 0.37873 0.0
C438 C 0.13907 0.0925 0.38188 0.0
C439 C 0.12619 0.11882 0.39953 0.0
C440 C 0.1614 0.13216 0.41416 0.0
H441 H 0.28109 0.07691 0.47563 0.0
H442 H 0.22556 0.08139 0.45724 0.0
H443 H 0.28198 0.06735 0.43912 0.0
H444 H 0.26091 0.0837 0.39069 0.0
H445 H 0.19912 0.06055 0.3646 0.0
H446 H 0.4294 0.85877 0.51679 0.0
H447 H 0.36418 0.89364 0.49714 0.0
H448 H 0.42396 0.97533 0.52983 0.0
H449 H 0.49036 0.94041 0.54875 0.0
H450 H 0.29332 0.93887 0.51491 0.0
H451 H 0.43186 0.99287 0.44748 0.0
H452 H 0.44726 0.95871 0.46878 0.0
H453 H 0.43643 0.99754 0.48437 0.0
C454 C 0.42789 0.8841 0.52042 0.0
C455 C 0.46508 0.89695 0.53402 0.0
C456 C 0.39072 0.90405 0.5091 0.0
C457 C 0.3899 0.93717 0.51137 0.0
C458 C 0.42465 0.94992 0.52712 0.0
H459 H 0.14653 0.02852 0.41798 0.0
H460 H 0.20243 0.02476 0.45622 0.0
C461 C 0.46227 0.92998 0.53811 0.0
C462 C 0.3553 0.95779 0.49502 0.0
H463 H 0.35054 1.00612 0.43809 0.0
C464 C 0.30562 0.95406 0.49842 0.0
C465 C 0.37156 0.97763 0.4735 0.0
C466 C 0.42466 0.98186 0.46807 0.0
C467 C 0.27225 0.96771 0.47972 0.0
C468 C 0.28893 0.98627 0.45741 0.0
C469 C 0.33794 0.99198 0.45529 0.0
C470 C 0.25864 0.99457 0.43337 0.0
C471 C 0.22023 0.96005 0.48276 0.0
C472 C 0.27292 0.98047 0.4074 0.0
C473 C 0.24139 0.98276 0.38564 0.0
C474 C 0.19515 0.99948 0.38932 0.0
C475 C 0.18222 1.01574 0.41456 0.0
C476 C 0.21387 1.01333 0.43647 0.0
H477 H 0.21503 0.94166 0.49879 0.0
H478 H 0.19641 0.9818 0.48901 0.0
H479 H 0.20821 0.95155 0.46261 0.0
H480 H 0.3073 0.96592 0.40449 0.0
H481 H 0.25211 0.96996 0.36641 0.0
H482 H 0.5969 0.15725 0.46635 0.0
H483 H 0.6628 0.11623 0.45516 0.0
H484 H 0.70113 0.1137 0.54111 0.0
H485 H 0.63388 0.15506 0.55271 0.0
H486 H 0.77978 0.11686 0.5028 0.0
H487 H 0.6729 0.02134 0.4715 0.0
H488 H 0.65125 0.05797 0.4556 0.0
H489 H 0.6471 0.05447 0.49304 0.0
C490 C 0.61879 0.1477 0.48304 0.0
C491 C 0.60966 0.159 0.51052 0.0
C492 C 0.65631 0.12409 0.47663 0.0
C493 C 0.68575 0.11109 0.49748 0.0
C494 C 0.67806 0.12297 0.52485 0.0
H495 H 0.95722 1.01468 0.42148 0.0
H496 H 0.8941 0.01874 0.45964 0.0
C497 C 0.64006 0.14674 0.53137 0.0
C498 C 0.72682 0.08718 0.48936 0.0
H499 H 0.75184 0.0233 0.44583 0.0
C500 C 0.77413 0.09561 0.4913 0.0
C501 C 0.71936 0.05923 0.47472 0.0
C502 C 0.66986 0.04755 0.47388 0.0
C503 C 0.8133 0.07917 0.47595 0.0
C504 C 0.80461 0.05366 0.45845 0.0
C505 C 0.75832 0.04303 0.4591 0.0
C506 C 0.83918 0.04348 0.43495 0.0
C507 C 0.86261 0.09131 0.4762 0.0
C508 C 0.82818 0.05444 0.40823 0.0
C509 C 0.86386 0.05224 0.38665 0.0
C510 C 0.91095 0.03861 0.39132 0.0
C511 C 0.92095 0.0251 0.4174 0.0
C512 C 0.88513 0.02753 0.43918 0.0
H513 H 0.86281 0.11206 0.49034 0.0
H514 H 0.88967 0.0722 0.48313 0.0
H515 H 0.87434 0.09831 0.45483 0.0
H516 H 0.79293 0.06686 0.40458 0.0
H517 H 0.85541 0.06283 0.36673 0.0
loop_
_geom_bond_atom_site_label_1
_geom_bond_atom_site_label_2
_geom_bond_distance
_geom_bond_site_symmetry_2
_ccdc_geom_bond_type
H0 C5 0.929 . S
H1 C10 0.931 . S
H2 C8 0.930 . S
N3 N4 1.234 . S
N3 C7 1.453 . S
N4 N3 1.234 . S
C5 H0 0.929 . S
C5 C6 1.373 . S
C5 C7 1.368 . S
C6 C5 1.373 . S
C6 C10 1.397 1_554 S
C7 N3 1.453 . S
C7 C5 1.368 . S
C7 C8 1.373 . S
C8 H2 0.930 . S
C8 C7 1.373 . S
C8 C9 1.371 . S
C9 C8 1.371 . S
C9 C10 1.383 1_554 S
C10 H1 0.931 . S
C10 C6 1.397 1_556 S
C10 C9 1.383 1_556 S
H11 C16 0.929 . S
H12 C21 0.931 1_556 S
H13 C19 0.930 . S
N14 N15 1.234 1_655 S
N14 C18 1.453 . S
N15 N14 1.234 1_455 S
C16 H11 0.929 . S
C16 C17 1.373 . S
C16 C18 1.368 . S
C17 C16 1.373 . S
C17 C21 1.397 1_655 S
C18 N14 1.453 . S
C18 C16 1.368 . S
C18 C19 1.373 1_655 S
C19 H13 0.930 . S
C19 C18 1.373 1_455 S
C19 C20 1.371 . S
C20 C19 1.371 . S
C20 C21 1.383 . S
C21 H12 0.931 1_554 S
C21 C17 1.397 1_455 S
C21 C20 1.383 . S
H22 C27 0.929 . S
H23 C32 0.931 . S
H24 C30 0.930 . S
N25 N26 1.234 . S
N25 C29 1.453 . S
N26 N25 1.234 . S
C27 H22 0.929 . S
C27 C28 1.373 . S
C27 C29 1.368 . S
C28 C27 1.373 . S
C28 C32 1.397 . S
C29 N25 1.453 . S
C29 C27 1.368 . S
C29 C30 1.373 . S
C30 H24 0.930 . S
C30 C29 1.373 . S
C30 C31 1.371 . S
C31 C30 1.371 . S
C31 C32 1.383 . S
C32 H23 0.931 . S
C32 C28 1.397 . S
C32 C31 1.383 . S
H33 C38 0.929 . S
H34 C43 0.931 . S
H35 C41 0.930 . S
N36 N37 1.234 . S
N36 C40 1.453 . S
N37 N36 1.234 . S
C38 H33 0.929 . S
C38 C39 1.373 . S
C38 C40 1.368 . S
C39 C38 1.373 . S
C39 C43 1.397 . S
C40 N36 1.453 . S
C40 C38 1.368 . S
C40 C41 1.373 . S
C41 H35 0.930 . S
C41 C40 1.373 . S
C41 C42 1.371 . S
C42 C41 1.371 . S
C42 C43 1.383 . S
C43 H34 0.931 . S
C43 C39 1.397 . S
C43 C42 1.383 . S
Zn44 O50 1.920 . S
Zn44 O56 1.898 . S
Zn44 O59 1.905 1_455 S
Zn45 O53 1.905 . S
Zn45 O54 1.898 . S
Zn45 O62 1.920 . S
Zn46 O49 2.080 . S
Zn46 O52 2.114 1_545 S
Zn46 O55 2.120 1_545 S
Zn46 O57 2.120 . S
Zn46 O58 2.114 . S
Zn46 O61 2.080 1_545 S
C47 O52 1.166 . S
C47 O53 1.182 . S
C48 O54 1.167 . S
C48 O55 1.299 . S
O49 Zn46 2.080 . S
O49 C63 1.305 . S
O50 Zn44 1.920 . S
O50 C63 1.234 . S
C51 O56 1.167 . S
C51 O57 1.299 . S
O52 Zn46 2.114 1_565 S
O52 C47 1.166 . S
O53 Zn45 1.905 . S
O53 C47 1.182 . S
O54 Zn45 1.898 . S
O54 C48 1.167 . S
O55 Zn46 2.120 1_565 S
O55 C48 1.299 . S
O56 Zn44 1.898 . S
O56 C51 1.167 . S
O57 Zn46 2.120 . S
O57 C51 1.299 . S
O58 Zn46 2.114 . S
O58 C60 1.166 1_455 S
O59 Zn44 1.905 1_655 S
O59 C60 1.182 . S
C60 O58 1.166 1_655 S
C60 O59 1.182 . S
O61 Zn46 2.080 1_565 S
O61 C64 1.305 . S
O62 Zn45 1.920 . S
O62 C64 1.234 . S
C63 O49 1.305 . S
C63 O50 1.234 . S
C64 O61 1.305 . S
C64 O62 1.234 . S
Zn65 O71 1.920 . S
Zn65 O77 1.898 . S
Zn65 O80 1.905 . S
Zn66 O74 1.905 . S
Zn66 O75 1.898 . S
Zn66 O83 1.920 . S
Zn67 O70 2.080 . S
Zn67 O73 2.114 . S
Zn67 O76 2.120 . S
Zn67 O78 2.120 . S
Zn67 O79 2.114 . S
Zn67 O82 2.080 . S
C68 O73 1.166 . S
C68 O74 1.182 . S
C69 O75 1.167 . S
C69 O76 1.299 . S
O70 Zn67 2.080 . S
O70 C84 1.305 . S
O71 Zn65 1.920 . S
O71 C84 1.234 . S
C72 O77 1.167 . S
C72 O78 1.299 . S
O73 Zn67 2.114 . S
O73 C68 1.166 . S
O74 Zn66 1.905 . S
O74 C68 1.182 . S
O75 Zn66 1.898 . S
O75 C69 1.167 . S
O76 Zn67 2.120 . S
O76 C69 1.299 . S
O77 Zn65 1.898 . S
O77 C72 1.167 . S
O78 Zn67 2.120 . S
O78 C72 1.299 . S
O79 Zn67 2.114 . S
O79 C81 1.166 . S
O80 Zn65 1.905 . S
O80 C81 1.182 . S
C81 O79 1.166 . S
C81 O80 1.182 . S
O82 Zn67 2.080 . S
O82 C85 1.305 . S
O83 Zn66 1.920 . S
O83 C85 1.234 . S
C84 O70 1.305 . S
C84 O71 1.234 . S
C85 O82 1.305 . S
C85 O83 1.234 . S
H86 C94 0.929 . S
H87 C96 0.930 . S
H88 C98 0.930 . S
H89 C101 0.929 . S
H90 C104 0.930 . S
H91 C106 0.960 . S
H92 C106 0.960 . S
H93 C106 0.960 . S
C94 H86 0.929 . S
C94 C95 1.377 . S
C94 C96 1.384 . S
C95 C94 1.377 . S
C95 C101 1.390 . S
C96 H87 0.930 . S
C96 C94 1.384 . S
C96 C97 1.372 . S
C97 C96 1.372 . S
C97 C98 1.400 . S
C97 C102 1.490 . S
C98 H88 0.930 . S
C98 C97 1.400 . S
C98 C101 1.386 . S
H99 C115 0.930 . S
H100 C116 0.931 . S
C101 H89 0.929 . S
C101 C95 1.390 . S
C101 C98 1.386 . S
C102 C97 1.490 . S
C102 C104 1.395 . S
C102 C105 1.403 . S
H103 C109 0.930 . S
C104 H90 0.930 . S
C104 C102 1.395 . S
C104 C107 1.403 . S
C105 C102 1.403 . S
C105 C106 1.524 . S
C105 C109 1.400 . S
C106 H91 0.960 . S
C106 H92 0.960 . S
C106 H93 0.960 . S
C106 C105 1.524 . S
C107 C104 1.403 . S
C107 C108 1.392 . S
C107 C111 1.495 . S
C108 C107 1.392 . S
C108 C109 1.385 . S
C108 C110 1.478 . S
C109 H103 0.930 . S
C109 C105 1.400 . S
C109 C108 1.385 . S
C110 C108 1.478 . S
C110 C112 1.381 . S
C110 C116 1.383 . S
C111 C107 1.495 . S
C111 H117 0.959 . S
C111 H118 0.961 . S
C111 H119 0.960 . S
C112 C110 1.381 . S
C112 C113 1.394 . S
C112 H120 0.930 . S
C113 C112 1.394 . S
C113 C114 1.383 . S
C113 H121 0.929 . S
C114 C113 1.383 . S
C114 C115 1.377 . S
C115 H99 0.930 . S
C115 C114 1.377 . S
C115 C116 1.379 . S
C116 H100 0.931 . S
C116 C110 1.383 . S
C116 C115 1.379 . S
H117 C111 0.959 . S
H118 C111 0.961 . S
H119 C111 0.960 . S
H120 C112 0.930 . S
H121 C113 0.929 . S
H122 C130 0.929 . S
H123 C132 0.930 . S
H124 C134 0.930 . S
H125 C137 0.929 . S
H126 C140 0.930 1_655 S
H127 C142 0.960 . S
H128 C142 0.960 . S
H129 C142 0.960 . S
C130 H122 0.929 . S
C130 C131 1.377 1_655 S
C130 C132 1.384 . S
C131 C130 1.377 1_455 S
C131 C137 1.390 . S
C132 H123 0.930 . S
C132 C130 1.384 . S
C132 C133 1.372 1_655 S
C133 C132 1.372 1_455 S
C133 C134 1.400 . S
C133 C138 1.490 . S
C134 H124 0.930 . S
C134 C133 1.400 . S
C134 C137 1.386 . S
H135 C151 0.930 . S
H136 C152 0.931 . S
C137 H125 0.929 . S
C137 C131 1.390 . S
C137 C134 1.386 . S
C138 C133 1.490 . S
C138 C140 1.395 . S
C138 C141 1.403 . S
H139 C145 0.930 . S
C140 H126 0.930 1_455 S
C140 C138 1.395 . S
C140 C143 1.403 . S
C141 C138 1.403 . S
C141 C142 1.524 . S
C141 C145 1.400 . S
C142 H127 0.960 . S
C142 H128 0.960 . S
C142 H129 0.960 . S
C142 C141 1.524 . S
C143 C140 1.403 . S
C143 C144 1.392 . S
C143 C147 1.495 1_455 S
C144 C143 1.392 . S
C144 C145 1.385 . S
C144 C146 1.478 . S
C145 H139 0.930 . S
C145 C141 1.400 . S
C145 C144 1.385 . S
C146 C144 1.478 . S
C146 C148 1.381 1_455 S
C146 C152 1.383 . S
C147 C143 1.495 1_655 S
C147 H153 0.959 . S
C147 H154 0.961 1_655 S
C147 H155 0.960 . S
C148 C146 1.381 1_655 S
C148 C149 1.394 1_655 S
C148 H156 0.930 . S
C149 C148 1.394 1_455 S
C149 C150 1.383 . S
C149 H157 0.929 1_455 S
C150 C149 1.383 . S
C150 C151 1.377 . S
C151 H135 0.930 . S
C151 C150 1.377 . S
C151 C152 1.379 . S
C152 H136 0.931 . S
C152 C146 1.383 . S
C152 C151 1.379 . S
H153 C147 0.959 . S
H154 C147 0.961 1_455 S
H155 C147 0.960 . S
H156 C148 0.930 . S
H157 C149 0.929 1_655 S
H158 C166 0.929 . S
H159 C168 0.930 . S
H160 C170 0.930 . S
H161 C173 0.929 . S
H162 C176 0.930 . S
H163 C178 0.960 . S
H164 C178 0.960 . S
H165 C178 0.960 . S
C166 H158 0.929 . S
C166 C167 1.377 . S
C166 C168 1.384 . S
C167 C166 1.377 . S
C167 C173 1.390 . S
C168 H159 0.930 . S
C168 C166 1.384 . S
C168 C169 1.372 . S
C169 C168 1.372 . S
C169 C170 1.400 . S
C169 C174 1.490 . S
C170 H160 0.930 . S
C170 C169 1.400 . S
C170 C173 1.386 . S
H171 C187 0.930 . S
H172 C188 0.931 . S
C173 H161 0.929 . S
C173 C167 1.390 . S
C173 C170 1.386 . S
C174 C169 1.490 . S
C174 C176 1.395 . S
C174 C177 1.403 . S
H175 C181 0.930 . S
C176 H162 0.930 . S
C176 C174 1.395 . S
C176 C179 1.403 . S
C177 C174 1.403 . S
C177 C178 1.524 . S
C177 C181 1.400 . S
C178 H163 0.960 . S
C178 H164 0.960 . S
C178 H165 0.960 . S
C178 C177 1.524 . S
C179 C176 1.403 . S
C179 C180 1.392 . S
C179 C183 1.495 . S
C180 C179 1.392 . S
C180 C181 1.385 . S
C180 C182 1.478 . S
C181 H175 0.930 . S
C181 C177 1.400 . S
C181 C180 1.385 . S
C182 C180 1.478 . S
C182 C184 1.381 . S
C182 C188 1.383 . S
C183 C179 1.495 . S
C183 H189 0.959 . S
C183 H190 0.961 . S
C183 H191 0.960 . S
C184 C182 1.381 . S
C184 C185 1.394 . S
C184 H192 0.930 . S
C185 C184 1.394 . S
C185 C186 1.383 . S
C185 H193 0.929 . S
C186 C185 1.383 . S
C186 C187 1.377 . S
C187 H171 0.930 . S
C187 C186 1.377 . S
C187 C188 1.379 . S
C188 H172 0.931 . S
C188 C182 1.383 . S
C188 C187 1.379 . S
H189 C183 0.959 . S
H190 C183 0.961 . S
H191 C183 0.960 . S
H192 C184 0.930 . S
H193 C185 0.929 . S
H194 C202 0.929 . S
H195 C204 0.930 . S
H196 C206 0.930 . S
H197 C209 0.929 . S
H198 C212 0.930 . S
H199 C214 0.960 . S
H200 C214 0.960 . S
H201 C214 0.960 . S
C202 H194 0.929 . S
C202 C203 1.377 . S
C202 C204 1.384 . S
C203 C202 1.377 . S
C203 C209 1.390 . S
C204 H195 0.930 . S
C204 C202 1.384 . S
C204 C205 1.372 . S
C205 C204 1.372 . S
C205 C206 1.400 . S
C205 C210 1.490 . S
C206 H196 0.930 . S
C206 C205 1.400 . S
C206 C209 1.386 . S
H207 C223 0.930 . S
H208 C224 0.931 . S
C209 H197 0.929 . S
C209 C203 1.390 . S
C209 C206 1.386 . S
C210 C205 1.490 . S
C210 C212 1.395 . S
C210 C213 1.403 . S
H211 C217 0.930 . S
C212 H198 0.930 . S
C212 C210 1.395 . S
C212 C215 1.403 . S
C213 C210 1.403 . S
C213 C214 1.524 . S
C213 C217 1.400 . S
C214 H199 0.960 . S
C214 H200 0.960 . S
C214 H201 0.960 . S
C214 C213 1.524 . S
C215 C212 1.403 . S
C215 C216 1.392 . S
C215 C219 1.495 . S
C216 C215 1.392 . S
C216 C217 1.385 . S
C216 C218 1.478 . S
C217 H211 0.930 . S
C217 C213 1.400 . S
C217 C216 1.385 . S
C218 C216 1.478 . S
C218 C220 1.381 . S
C218 C224 1.383 . S
C219 C215 1.495 . S
C219 H225 0.959 . S
C219 H226 0.961 . S
C219 H227 0.960 . S
C220 C218 1.381 . S
C220 C221 1.394 . S
C220 H228 0.930 . S
C221 C220 1.394 . S
C221 C222 1.383 . S
C221 H229 0.929 . S
C222 C221 1.383 . S
C222 C223 1.377 . S
C223 H207 0.930 . S
C223 C222 1.377 . S
C223 C224 1.379 . S
C224 H208 0.931 . S
C224 C218 1.383 . S
C224 C223 1.379 . S
H225 C219 0.959 . S
H226 C219 0.961 . S
H227 C219 0.960 . S
H228 C220 0.930 . S
H229 C221 0.929 . S
H230 C238 0.929 . S
H231 C240 0.930 . S
H232 C242 0.930 . S
H233 C245 0.929 . S
H234 C248 0.930 . S
H235 C250 0.960 . S
H236 C250 0.960 . S
H237 C250 0.960 . S
C238 H230 0.929 . S
C238 C239 1.374 1_554 S
C238 C240 1.384 . S
C239 C238 1.374 1_556 S
C239 C245 1.396 . S
C240 H231 0.930 . S
C240 C238 1.384 . S
C240 C241 1.372 1_554 S
C241 C240 1.372 1_556 S
C241 C242 1.400 . S
C241 C246 1.490 . S
C242 H232 0.930 . S
C242 C241 1.400 . S
C242 C245 1.386 . S
H243 C259 0.930 . S
H244 C260 0.931 . S
C245 H233 0.929 . S
C245 C239 1.396 . S
C245 C242 1.386 . S
C246 C241 1.490 . S
C246 C248 1.395 . S
C246 C249 1.403 . S
H247 C253 0.930 . S
C248 H234 0.930 . S
C248 C246 1.395 . S
C248 C251 1.403 . S
C249 C246 1.403 . S
C249 C250 1.524 . S
C249 C253 1.400 . S
C250 H235 0.960 . S
C250 H236 0.960 . S
C250 H237 0.960 . S
C250 C249 1.524 . S
C251 C248 1.403 . S
C251 C252 1.392 . S
C251 C255 1.495 . S
C252 C251 1.392 . S
C252 C253 1.385 . S
C252 C254 1.478 . S
C253 H247 0.930 . S
C253 C249 1.400 . S
C253 C252 1.385 . S
C254 C252 1.478 . S
C254 C256 1.381 . S
C254 C260 1.383 . S
C255 C251 1.495 . S
C255 H261 0.959 . S
C255 H262 0.961 . S
C255 H263 0.960 . S
C256 C254 1.381 . S
C256 C257 1.394 . S
C256 H264 0.930 . S
C257 C256 1.394 . S
C257 C258 1.383 . S
C257 H265 0.929 . S
C258 C257 1.383 . S
C258 C259 1.377 . S
C259 H243 0.930 . S
C259 C258 1.377 . S
C259 C260 1.379 . S
C260 H244 0.931 . S
C260 C254 1.383 . S
C260 C259 1.379 . S
H261 C255 0.959 . S
H262 C255 0.961 . S
H263 C255 0.960 . S
H264 C256 0.930 . S
H265 C257 0.929 . S
H266 C274 0.929 . S
H267 C276 0.930 . S
H268 C278 0.930 . S
H269 C281 0.929 . S
H270 C284 0.930 . S
H271 C286 0.960 . S
H272 C286 0.960 . S
H273 C286 0.960 . S
C274 H266 0.929 . S
C274 C275 1.379 1_556 S
C274 C276 1.384 . S
C275 C274 1.379 1_554 S
C275 C281 1.389 . S
C276 H267 0.930 . S
C276 C274 1.384 . S
C276 C277 1.372 . S
C277 C276 1.372 . S
C277 C278 1.400 1_556 S
C277 C282 1.490 . S
C278 H268 0.930 . S
C278 C277 1.400 1_554 S
C278 C281 1.386 . S
H279 C295 0.930 . S
H280 C296 0.931 . S
C281 H269 0.929 . S
C281 C275 1.389 . S
C281 C278 1.386 . S
C282 C277 1.490 . S
C282 C284 1.395 . S
C282 C285 1.403 . S
H283 C289 0.930 . S
C284 H270 0.930 . S
C284 C282 1.395 . S
C284 C287 1.403 . S
C285 C282 1.403 . S
C285 C286 1.524 . S
C285 C289 1.400 . S
C286 H271 0.960 . S
C286 H272 0.960 . S
C286 H273 0.960 . S
C286 C285 1.524 . S
C287 C284 1.403 . S
C287 C288 1.392 . S
C287 C291 1.495 . S
C288 C287 1.392 . S
C288 C289 1.385 . S
C288 C290 1.478 . S
C289 H283 0.930 . S
C289 C285 1.400 . S
C289 C288 1.385 . S
C290 C288 1.478 . S
C290 C292 1.381 . S
C290 C296 1.383 . S
C291 C287 1.495 . S
C291 H297 0.959 . S
C291 H298 0.961 . S
C291 H299 0.960 . S
C292 C290 1.381 . S
C292 C293 1.394 . S
C292 H300 0.930 . S
C293 C292 1.394 . S
C293 C294 1.383 . S
C293 H301 0.929 . S
C294 C293 1.383 . S
C294 C295 1.377 . S
C295 H279 0.930 . S
C295 C294 1.377 . S
C295 C296 1.379 . S
C296 H280 0.931 . S
C296 C290 1.383 . S
C296 C295 1.379 . S
H297 C291 0.959 . S
H298 C291 0.961 . S
H299 C291 0.960 . S
H300 C292 0.930 . S
H301 C293 0.929 . S
H302 C310 0.929 . S
H303 C312 0.930 . S
H304 C314 0.930 . S
H305 C317 0.929 1_554 S
H306 C320 0.930 . S
H307 C322 0.960 . S
H308 C322 0.960 . S
H309 C322 0.960 1_554 S
C310 H302 0.929 . S
C310 C311 1.377 . S
C310 C312 1.384 . S
C311 C310 1.377 . S
C311 C317 1.390 1_455 S
C312 H303 0.930 . S
C312 C310 1.384 . S
C312 C313 1.372 1_455 S
C313 C312 1.372 1_655 S
C313 C314 1.400 . S
C313 C318 1.490 . S
C314 H304 0.930 . S
C314 C313 1.400 . S
C314 C317 1.386 . S
H315 C331 0.930 . S
H316 C332 0.931 . S
C317 H305 0.929 1_556 S
C317 C311 1.390 1_655 S
C317 C314 1.386 . S
C318 C313 1.490 . S
C318 C320 1.395 . S
C318 C321 1.403 . S
H319 C325 0.930 . S
C320 H306 0.930 . S
C320 C318 1.395 . S
C320 C323 1.403 . S
C321 C318 1.403 . S
C321 C322 1.524 . S
C321 C325 1.400 . S
C322 H307 0.960 . S
C322 H308 0.960 . S
C322 H309 0.960 1_556 S
C322 C321 1.524 . S
C323 C320 1.403 . S
C323 C324 1.392 . S
C323 C327 1.495 . S
C324 C323 1.392 . S
C324 C325 1.385 . S
C324 C326 1.478 . S
C325 H319 0.930 . S
C325 C321 1.400 . S
C325 C324 1.385 . S
C326 C324 1.478 . S
C326 C328 1.381 . S
C326 C332 1.383 . S
C327 C323 1.495 . S
C327 H333 0.959 . S
C327 H334 0.961 . S
C327 H335 0.960 . S
C328 C326 1.381 . S
C328 C329 1.394 . S
C328 H336 0.930 . S
C329 C328 1.394 . S
C329 C330 1.383 . S
C329 H337 0.929 . S
C330 C329 1.383 . S
C330 C331 1.377 . S
C331 H315 0.930 . S
C331 C330 1.377 . S
C331 C332 1.379 . S
C332 H316 0.931 . S
C332 C326 1.383 . S
C332 C331 1.379 . S
H333 C327 0.959 . S
H334 C327 0.961 . S
H335 C327 0.960 . S
H336 C328 0.930 . S
H337 C329 0.929 . S
H338 C346 0.929 1_554 S
H339 C348 0.930 . S
H340 C350 0.930 . S
H341 C353 0.929 . S
H342 C356 0.930 . S
H343 C358 0.960 . S
H344 C358 0.960 . S
H345 C358 0.960 . S
C346 H338 0.929 1_556 S
C346 C347 1.377 . S
C346 C348 1.384 . S
C347 C346 1.377 . S
C347 C353 1.390 . S
C348 H339 0.930 . S
C348 C346 1.384 . S
C348 C349 1.372 . S
C349 C348 1.372 . S
C349 C350 1.400 . S
C349 C354 1.490 . S
C350 H340 0.930 . S
C350 C349 1.400 . S
C350 C353 1.386 . S
H351 C367 0.930 . S
H352 C368 0.931 . S
C353 H341 0.929 . S
C353 C347 1.390 . S
C353 C350 1.386 . S
C354 C349 1.490 . S
C354 C356 1.395 . S
C354 C357 1.403 . S
H355 C361 0.930 . S
C356 H342 0.930 . S
C356 C354 1.395 . S
C356 C359 1.403 . S
C357 C354 1.403 . S
C357 C358 1.524 . S
C357 C361 1.400 . S
C358 H343 0.960 . S
C358 H344 0.960 . S
C358 H345 0.960 . S
C358 C357 1.524 . S
C359 C356 1.403 . S
C359 C360 1.392 . S
C359 C363 1.495 . S
C360 C359 1.392 . S
C360 C361 1.385 . S
C360 C362 1.478 . S
C361 H355 0.930 . S
C361 C357 1.400 . S
C361 C360 1.385 . S
C362 C360 1.478 . S
C362 C364 1.381 . S
C362 C368 1.383 . S
C363 C359 1.495 . S
C363 H369 0.929 1_556 S
C363 H370 0.961 . S
C363 H371 0.960 . S
C364 C362 1.381 . S
C364 C365 1.394 . S
C364 H372 0.930 . S
C365 C364 1.394 . S
C365 C366 1.383 . S
C365 H373 0.929 . S
C366 C365 1.383 . S
C366 C367 1.377 . S
C367 H351 0.930 . S
C367 C366 1.377 . S
C367 C368 1.379 . S
C368 H352 0.931 . S
C368 C362 1.383 . S
C368 C367 1.379 . S
H369 C363 0.929 1_554 S
H370 C363 0.961 . S
H371 C363 0.960 . S
H372 C364 0.930 . S
H373 C365 0.929 . S
H374 C382 0.929 . S
H375 C384 0.930 . S
H376 C386 0.930 . S
H377 C389 0.929 . S
H378 C392 0.930 . S
H379 C394 0.960 . S
H380 C394 0.960 . S
H381 C394 0.960 . S
C382 H374 0.929 . S
C382 C383 1.377 . S
C382 C384 1.384 . S
C383 C382 1.377 . S
C383 C389 1.390 . S
C384 H375 0.930 . S
C384 C382 1.384 . S
C384 C385 1.372 . S
C385 C384 1.372 . S
C385 C386 1.400 . S
C385 C390 1.490 . S
C386 H376 0.930 . S
C386 C385 1.400 . S
C386 C389 1.386 . S
H387 C403 0.930 . S
H388 C404 0.931 . S
C389 H377 0.929 . S
C389 C383 1.390 . S
C389 C386 1.386 . S
C390 C385 1.490 . S
C390 C392 1.395 . S
C390 C393 1.403 . S
H391 C397 0.930 . S
C392 H378 0.930 . S
C392 C390 1.395 . S
C392 C395 1.403 . S
C393 C390 1.403 . S
C393 C394 1.524 . S
C393 C397 1.400 . S
C394 H379 0.960 . S
C394 H380 0.960 . S
C394 H381 0.960 . S
C394 C393 1.524 . S
C395 C392 1.403 . S
C395 C396 1.392 . S
C395 C399 1.495 . S
C396 C395 1.392 . S
C396 C397 1.385 . S
C396 C398 1.478 . S
C397 H391 0.930 . S
C397 C393 1.400 . S
C397 C396 1.385 . S
C398 C396 1.478 . S
C398 C400 1.381 . S
C398 C404 1.383 . S
C399 C395 1.495 . S
C399 H405 0.959 . S
C399 H406 0.961 . S
C399 H407 0.960 . S
C400 C398 1.381 . S
C400 C401 1.394 1_655 S
C400 H408 0.930 . S
C401 C400 1.394 1_455 S
C401 C402 1.383 1_455 S
C401 H409 0.929 . S
C402 C401 1.383 1_655 S
C402 C403 1.377 . S
C403 H387 0.930 . S
C403 C402 1.377 . S
C403 C404 1.379 . S
C404 H388 0.931 . S
C404 C398 1.383 . S
C404 C403 1.379 . S
H405 C399 0.959 . S
H406 C399 0.961 . S
H407 C399 0.960 . S
H408 C400 0.930 . S
H409 C401 0.929 . S
H410 C418 0.929 . S
H411 C420 0.930 . S
H412 C422 0.930 . S
H413 C425 0.929 . S
H414 C428 0.930 . S
H415 C430 0.960 . S
H416 C430 0.960 . S
H417 C430 0.960 . S
C418 H410 0.929 . S
C418 C419 1.377 . S
C418 C420 1.384 . S
C419 C418 1.377 . S
C419 C425 1.390 . S
C420 H411 0.930 . S
C420 C418 1.384 . S
C420 C421 1.372 . S
C421 C420 1.372 . S
C421 C422 1.400 . S
C421 C426 1.490 . S
C422 H412 0.930 . S
C422 C421 1.400 . S
C422 C425 1.386 . S
H423 C439 0.930 . S
H424 C440 0.931 . S
C425 H413 0.929 . S
C425 C419 1.390 . S
C425 C422 1.386 . S
C426 C421 1.490 . S
C426 C428 1.395 . S
C426 C429 1.403 . S
H427 C433 0.930 . S
C428 H414 0.930 . S
C428 C426 1.395 . S
C428 C431 1.403 . S
C429 C426 1.403 . S
C429 C430 1.524 . S
C429 C433 1.400 . S
C430 H415 0.960 . S
C430 H416 0.960 . S
C430 H417 0.960 . S
C430 C429 1.524 . S
C431 C428 1.403 . S
C431 C432 1.392 . S
C431 C435 1.495 . S
C432 C431 1.392 . S
C432 C433 1.385 . S
C432 C434 1.478 . S
C433 H427 0.930 . S
C433 C429 1.400 . S
C433 C432 1.385 . S
C434 C432 1.478 . S
C434 C436 1.381 . S
C434 C440 1.383 . S
C435 C431 1.495 . S
C435 H441 0.959 . S
C435 H442 0.961 . S
C435 H443 0.960 . S
C436 C434 1.381 . S
C436 C437 1.394 . S
C436 H444 0.930 . S
C437 C436 1.394 . S
C437 C438 1.383 . S
C437 H445 0.929 . S
C438 C437 1.383 . S
C438 C439 1.377 . S
C439 H423 0.930 . S
C439 C438 1.377 . S
C439 C440 1.379 . S
C440 H424 0.931 . S
C440 C434 1.383 . S
C440 C439 1.379 . S
H441 C435 0.959 . S
H442 C435 0.961 . S
H443 C435 0.960 . S
H444 C436 0.930 . S
H445 C437 0.929 . S
H446 C454 0.929 . S
H447 C456 0.930 . S
H448 C458 0.930 . S
H449 C461 0.929 . S
H450 C464 0.930 . S
H451 C466 0.960 . S
H452 C466 0.960 . S
H453 C466 0.960 . S
C454 H446 0.929 . S
C454 C455 1.377 . S
C454 C456 1.384 . S
C455 C454 1.377 . S
C455 C461 1.390 . S
C456 H447 0.930 . S
C456 C454 1.384 . S
C456 C457 1.372 . S
C457 C456 1.372 . S
C457 C458 1.400 . S
C457 C462 1.490 . S
C458 H448 0.930 . S
C458 C457 1.400 . S
C458 C461 1.386 . S
H459 C475 0.930 . S
H460 C476 0.931 . S
C461 H449 0.929 . S
C461 C455 1.390 . S
C461 C458 1.386 . S
C462 C457 1.490 . S
C462 C464 1.395 . S
C462 C465 1.403 . S
H463 C469 0.930 . S
C464 H450 0.930 . S
C464 C462 1.395 . S
C464 C467 1.403 . S
C465 C462 1.403 . S
C465 C466 1.524 . S
C465 C469 1.400 . S
C466 H451 0.960 . S
C466 H452 0.960 . S
C466 H453 0.960 . S
C466 C465 1.524 . S
C467 C464 1.403 . S
C467 C468 1.392 . S
C467 C471 1.495 . S
C468 C467 1.392 . S
C468 C469 1.385 . S
C468 C470 1.478 . S
C469 H463 0.930 . S
C469 C465 1.400 . S
C469 C468 1.385 . S
C470 C468 1.478 . S
C470 C472 1.381 . S
C470 C476 1.383 . S
C471 C467 1.495 . S
C471 H477 0.959 . S
C471 H478 0.961 . S
C471 H479 0.960 . S
C472 C470 1.381 . S
C472 C473 1.394 . S
C472 H480 0.930 . S
C473 C472 1.394 . S
C473 C474 1.383 . S
C473 H481 0.929 . S
C474 C473 1.383 . S
C474 C475 1.377 . S
C475 H459 0.930 . S
C475 C474 1.377 . S
C475 C476 1.379 . S
C476 H460 0.931 . S
C476 C470 1.383 . S
C476 C475 1.379 . S
H477 C471 0.959 . S
H478 C471 0.961 . S
H479 C471 0.960 . S
H480 C472 0.930 . S
H481 C473 0.929 . S
H482 C490 0.929 . S
H483 C492 0.930 . S
H484 C494 0.930 . S
H485 C497 0.929 . S
H486 C500 0.930 . S
H487 C502 0.960 . S
H488 C502 0.960 . S
H489 C502 0.960 . S
C490 H482 0.929 . S
C490 C491 1.377 . S
C490 C492 1.384 . S
C491 C490 1.377 . S
C491 C497 1.390 . S
C492 H483 0.930 . S
C492 C490 1.384 . S
C492 C493 1.372 . S
C493 C492 1.372 . S
C493 C494 1.400 . S
C493 C498 1.490 . S
C494 H484 0.930 . S
C494 C493 1.400 . S
C494 C497 1.386 . S
H495 C511 0.930 . S
H496 C512 0.931 . S
C497 H485 0.929 . S
C497 C491 1.390 . S
C497 C494 1.386 . S
C498 C493 1.490 . S
C498 C500 1.395 . S
C498 C501 1.403 . S
H499 C505 0.930 . S
C500 H486 0.930 . S
C500 C498 1.395 . S
C500 C503 1.403 . S
C501 C498 1.403 . S
C501 C502 1.524 . S
C501 C505 1.400 . S
C502 H487 0.960 . S
C502 H488 0.960 . S
C502 H489 0.960 . S
C502 C501 1.524 . S
C503 C500 1.403 . S
C503 C504 1.392 . S
C503 C507 1.495 . S
C504 C503 1.392 . S
C504 C505 1.385 . S
C504 C506 1.478 . S
C505 H499 0.930 . S
C505 C501 1.400 . S
C505 C504 1.385 . S
C506 C504 1.478 . S
C506 C508 1.381 . S
C506 C512 1.383 . S
C507 C503 1.495 . S
C507 H513 0.959 . S
C507 H514 0.961 . S
C507 H515 0.960 . S
C508 C506 1.381 . S
C508 C509 1.394 . S
C508 H516 0.930 . S
C509 C508 1.394 . S
C509 C510 1.383 . S
C509 H517 0.929 . S
C510 C509 1.383 . S
C510 C511 1.377 . S
C511 H495 0.930 . S
C511 C510 1.377 . S
C511 C512 1.379 . S
C512 H496 0.931 . S
C512 C506 1.383 . S
C512 C511 1.379 . S
H513 C507 0.959 . S
H514 C507 0.961 . S
H515 C507 0.960 . S
H516 C508 0.930 . S
H517 C509 0.929 . S
C114 C51 1.430 . S
C95 N4 1.528 . S
C150 C47 1.358 . S
C131 N15 1.499 . S
C186 C72 1.358 . S
C167 N26 1.529 . S
C203 N37 1.495 . S
C222 C68 1.399 . S
C239 C9 1.151 1_556 S
C258 C69 0.998 . S
C294 C84 1.110 . S
C275 C17 1.174 . S
C311 C6 1.771 1_556 S
C330 C85 1.612 . S
C366 C81 1.661 . S
C347 C20 1.801 1_556 S
C402 C48 0.997 1_655 S
C383 C31 1.153 . S
C419 C39 1.177 . S
C438 C63 1.063 . S
C474 C64 1.616 . S
C455 C28 1.774 . S
C510 C60 1.634 . S
C491 C42 1.797 . S
