# Generated by pormake.
# Topology sit, (3,6)-cn, num edge types: 1
# Building blocks:
#     Node 0, Type 0, BuildingBlock: MIDCAF_clean_linker_0, # of connection points: 3
#     Node 1, Type 0, BuildingBlock: MIDCAF_clean_linker_0, # of connection points: 3
#     Node 2, Type 0, BuildingBlock: MIDCAF_clean_linker_0, # of connection points: 3
#     Node 3, Type 0, BuildingBlock: MIDCAF_clean_linker_0, # of connection points: 3
#     Node 4, Type 1, BuildingBlock: MIDCAF_clean_sbu_0, # of connection points: 6
#     Node 5, Type 1, BuildingBlock: MIDCAF_clean_sbu_0, # of connection points: 6
#     Edge 6, Type (0, 1), BuildingBlock: XIVTED_clean_linker_0, # of connection points: 2
#     Edge 7, Type (0, 1), BuildingBlock: XIVTED_clean_linker_0, # of connection points: 2
#     Edge 8, Type (0, 1), BuildingBlock: XIVTED_clean_linker_0, # of connection points: 2
#     Edge 9, Type (0, 1), BuildingBlock: XIVTED_clean_linker_0, # of connection points: 2
#     Edge 10, Type (0, 1), BuildingBlock: XIVTED_clean_linker_0, # of connection points: 2
#     Edge 11, Type (0, 1), BuildingBlock: XIVTED_clean_linker_0, # of connection points: 2
#     Edge 12, Type (0, 1), BuildingBlock: XIVTED_clean_linker_0, # of connection points: 2
#     Edge 13, Type (0, 1), BuildingBlock: XIVTED_clean_linker_0, # of connection points: 2
#     Edge 14, Type (0, 1), BuildingBlock: XIVTED_clean_linker_0, # of connection points: 2
#     Edge 15, Type (0, 1), BuildingBlock: XIVTED_clean_linker_0, # of connection points: 2
#     Edge 16, Type (0, 1), BuildingBlock: XIVTED_clean_linker_0, # of connection points: 2
#     Edge 17, Type (0, 1), BuildingBlock: XIVTED_clean_linker_0, # of connection points: 2
# Relax obj value: 0.111
# Max RMSD: 0.194
# Mean RMSD: 0.108
data_MOF--net-sit--node1-MIDCAF_clean_sbu_0--node2-MIDCAF_clean_linker_0--edge1-XIVTED_clean_linker_0
_symmetry_space_group_name_H-M    P1
_symmetry_Int_Tables_number       1
_symmetry_cell_setting            triclinic
loop_
_symmetry_equiv_pos_as_xyz
'x, y, z'
_cell_length_a     29.11311
_cell_length_b     37.42944
_cell_length_c     43.25164
_cell_angle_alpha  90.248641
_cell_angle_beta   89.276736
_cell_angle_gamma 84.287139
loop_
_atom_site_label
_atom_site_type_symbol
_atom_site_fract_x
_atom_site_fract_y
_atom_site_fract_z
_atom_type_partial_charge
C0 C 0.93282 0.39456 0.98977 0.0
C1 C 0.90139 0.3701 0.98177 0.0
C2 C 0.91248 0.3334 0.98772 0.0
C3 C 0.95464 0.32134 0.00105 0.0
H4 H 0.03371 0.2308 0.03567 0.0
H5 H 0.04061 0.17494 0.06462 0.0
H6 H 0.15766 0.2097 0.11291 0.0
H7 H 0.15189 0.26465 0.0831 0.0
H8 H 0.20268 0.3273 0.03396 0.0
H9 H 0.26275 0.36573 0.02078 0.0
H10 H 0.15902 0.45522 0.0083 0.0
H11 H 0.09897 0.41676 0.02081 0.0
H12 H -0.0013 0.40215 0.00827 0.0
H13 H 0.92536 0.42296 0.98514 0.0
H14 H 0.88862 0.31402 0.98195 0.0
H15 H 0.96254 0.29285 0.00501 0.0
N16 N 0.04132 0.2996 0.03202 0.0
N17 N 0.11765 0.31082 0.04234 0.0
N18 N 0.06646 0.35542 0.02013 0.0
C19 C 0.08375 0.28825 0.04309 0.0
C20 C 0.1091 0.34452 0.03078 0.0
C21 C 0.03245 0.33324 0.02062 0.0
C22 C 0.09182 0.25242 0.05745 0.0
C23 C 0.06138 0.22621 0.05213 0.0
C24 C 0.06525 0.1942 0.06881 0.0
C25 C 0.09926 0.18789 0.09148 0.0
C26 C 0.13135 0.21327 0.09543 0.0
C27 C 0.12785 0.24504 0.07846 0.0
C28 C 0.14602 0.36876 0.02788 0.0
C29 C 0.19275 0.35532 0.02897 0.0
C30 C 0.2272 0.37744 0.02155 0.0
C31 C 0.21557 0.41345 0.01311 0.0
C32 C 0.16902 0.42743 0.01407 0.0
C33 C 0.13463 0.40533 0.02131 0.0
C34 C -0.0134 0.34578 0.00831 0.0
C35 C 0.97501 0.38254 0.0028 0.0
C36 C 0.90352 0.62601 0.0226 0.0
C37 C 0.85737 0.64075 0.02101 0.0
C38 C 0.84634 0.67721 0.02872 0.0
C39 C 0.88116 0.69898 0.03582 0.0
H40 H 0.9271 0.78948 0.09097 0.0
H41 H 0.92418 0.84513 0.12029 0.0
H42 H 0.03825 0.87766 0.06575 0.0
H43 H 0.04235 0.82116 0.03731 0.0
H44 H 0.11345 0.75722 0.00815 0.0
H45 H 0.18675 0.73482 0.98357 0.0
H46 H 0.14588 0.62703 0.98524 0.0
H47 H 0.07307 0.64906 0.00994 0.0
H48 H 0.97369 0.63573 0.02932 0.0
H49 H 0.91301 0.59788 0.01744 0.0
H50 H 0.81113 0.68949 0.0275 0.0
H51 H 0.87184 0.72733 0.04007 0.0
N52 N 0.9577 0.74239 0.04846 0.0
N53 N 0.03417 0.75224 0.03584 0.0
N54 N 0.0074 0.6967 0.02515 0.0
C55 C -0.00777 0.76441 0.04803 0.0
C56 C 0.04199 0.71833 0.02445 0.0
C57 C 0.96522 0.7084 0.03695 0.0
C58 C -0.01451 0.8006 0.06223 0.0
C59 C 0.95105 0.80876 0.08488 0.0
C60 C 0.9492 0.84092 0.10157 0.0
C61 C -0.01862 0.86587 0.09569 0.0
C62 C 0.01366 0.85874 0.07144 0.0
C63 C 0.0159 0.82637 0.05505 0.0
C64 C 0.08731 0.70497 0.01088 0.0
C65 C 0.12024 0.72872 0.00349 0.0
C66 C 0.16207 0.71596 0.98927 0.0
C67 C 0.17187 0.67922 0.9825 0.0
C68 C 0.1394 0.65543 0.99048 0.0
C69 C 0.09753 0.66816 0.00444 0.0
C70 C 0.92763 0.68471 0.0351 0.0
C71 C 0.93826 0.64775 0.02949 0.0
C72 C 0.46139 0.85194 0.43495 0.0
C73 C 0.4194 0.8426 0.44717 0.0
C74 C 0.41964 0.81949 0.47269 0.0
C75 C 0.46135 0.80662 0.48624 0.0
H76 H 0.52625 0.72942 0.54474 0.0
H77 H 0.53391 0.68105 0.58187 0.0
H78 H 0.68176 0.68565 0.58251 0.0
H79 H 0.6737 0.73543 0.54623 0.0
H80 H 0.71371 0.81046 0.51297 0.0
H81 H 0.77089 0.85317 0.50512 0.0
H82 H 0.66128 0.93754 0.48917 0.0
H83 H 0.60464 0.89471 0.4958 0.0
H84 H 0.53467 0.84813 0.43937 0.0
H85 H 0.46203 0.86992 0.41541 0.0
H86 H 0.38757 0.81182 0.48235 0.0
H87 H 0.46068 0.78952 0.50636 0.0
N88 N 0.55326 0.7773 0.50803 0.0
N89 N 0.62698 0.79203 0.52184 0.0
N90 N 0.58014 0.83035 0.49001 0.0
C91 C 0.59349 0.76909 0.52327 0.0
C92 C 0.62013 0.82293 0.5054 0.0
C93 C 0.54675 0.80769 0.49104 0.0
C94 C 0.59929 0.73672 0.5429 0.0
C95 C 0.56052 0.71988 0.55247 0.0
C96 C 0.56499 0.69178 0.57364 0.0
C97 C 0.60845 0.67948 0.58549 0.0
C98 C 0.64761 0.69493 0.57444 0.0
C99 C 0.64304 0.72343 0.55356 0.0
C100 C 0.65485 0.84908 0.50442 0.0
C101 C 0.70197 0.83822 0.50813 0.0
C102 C 0.73465 0.8628 0.50383 0.0
C103 C 0.7207 0.89877 0.49614 0.0
C104 C 0.67333 0.90991 0.4943 0.0
C105 C 0.64084 0.88533 0.49816 0.0
C106 C 0.50318 0.81734 0.47482 0.0
C107 C 0.50286 0.83965 0.44878 0.0
C108 C 0.41642 0.12801 0.5166 0.0
C109 C 0.36971 0.14139 0.5155 0.0
C110 C 0.35718 0.17779 0.52282 0.0
C111 C 0.39098 0.20075 0.52925 0.0
H112 H 0.4321 0.29359 0.58315 0.0
H113 H 0.42779 0.34889 0.61313 0.0
H114 H 0.54381 0.3824 0.56125 0.0
H115 H 0.54914 0.32642 0.53203 0.0
H116 H 0.62242 0.26368 0.50403 0.0
H117 H 0.69764 0.24204 0.4817 0.0
H118 H 0.65837 0.13376 0.48122 0.0
H119 H 0.58374 0.155 0.50367 0.0
H120 H 0.48595 0.13985 0.52248 0.0
H121 H 0.42711 0.09999 0.51171 0.0
H122 H 0.32148 0.18903 0.52192 0.0
H123 H 0.38044 0.22896 0.53335 0.0
N124 N 0.46558 0.24646 0.54144 0.0
N125 N 0.54182 0.2577 0.52954 0.0
N126 N 0.51704 0.20156 0.5186 0.0
C127 C 0.49936 0.26918 0.5413 0.0
C128 C 0.55089 0.22386 0.51822 0.0
C129 C 0.47438 0.21251 0.53 0.0
C130 C 0.4915 0.30528 0.55563 0.0
C131 C 0.45615 0.31303 0.57774 0.0
C132 C 0.45352 0.34496 0.59483 0.0
C133 C 0.48588 0.37001 0.58993 0.0
C134 C 0.51904 0.36337 0.56616 0.0
C135 C 0.52199 0.33128 0.54933 0.0
C136 C 0.597 0.2111 0.50555 0.0
C137 C 0.62994 0.23523 0.49933 0.0
C138 C 0.67289 0.22292 0.48642 0.0
C139 C 0.68376 0.18625 0.47981 0.0
C140 C 0.65111 0.16211 0.48644 0.0
C141 C 0.60818 0.17439 0.49909 0.0
C142 C 0.43791 0.18776 0.52826 0.0
C143 C 0.45012 0.15092 0.52285 0.0
Zn144 Zn 0.06295 0.09278 0.3488 0.0
Zn145 Zn 0.03818 0.96464 0.3476 0.0
Zn146 Zn 0.05049 0.02782 0.34947 0.0
C147 C 0.01646 0.98763 0.29035 0.0
C148 C -0.02027 0.99297 0.39259 0.0
O149 O 0.1133 0.0326 0.37664 0.0
O150 O 0.10269 0.09098 0.38571 0.0
C151 C 0.07952 0.07059 0.28961 0.0
O152 O 0.0404 1.0121 0.30077 0.0
O153 O 0.00321 0.96429 0.30845 0.0
O154 O 0.00327 0.96346 0.38713 0.0
O155 O -0.01201 0.02121 0.37745 0.0
O156 O 0.09217 0.09469 0.30714 0.0
O157 O 0.05842 0.04488 0.30095 0.0
O158 O -0.00844 0.0582 0.37296 0.0
O159 O -0.00234 0.11288 0.3553 0.0
C160 C 0.9753 0.09131 0.37029 0.0
O161 O 0.11099 0.99655 0.36936 0.0
O162 O 0.10367 0.94399 0.34756 0.0
C163 C 0.1238 0.06065 0.39121 0.0
C164 C 0.12728 0.96406 0.36299 0.0
Zn165 Zn 0.54841 0.59531 0.84952 0.0
Zn166 Zn 0.53489 0.46344 0.8451 0.0
Zn167 Zn 0.54217 0.52941 0.84814 0.0
C168 C 0.51937 0.48738 0.78651 0.0
C169 C 0.46858 0.49104 0.88685 0.0
O170 O 0.60269 0.53723 0.87666 0.0
O171 O 0.58619 0.5949 0.8873 0.0
C172 C 0.57263 0.57508 0.79053 0.0
O173 O 0.53737 0.51408 0.79874 0.0
O174 O 0.50892 0.46171 0.8031 0.0
O175 O 0.49227 0.46171 0.88093 0.0
O176 O 0.47851 0.52021 0.87382 0.0
O177 O 0.58013 0.59974 0.8092 0.0
O178 O 0.55339 0.54755 0.80013 0.0
O179 O 0.47978 0.55739 0.87016 0.0
O180 O 0.48226 0.61318 0.85416 0.0
C181 C 0.46113 0.58996 0.86795 0.0
O182 O 0.60143 0.50006 0.87125 0.0
O183 O 0.60028 0.44531 0.85207 0.0
C184 C 0.6102 0.56554 0.89204 0.0
C185 C 0.61989 0.46749 0.86807 0.0
H186 H 0.02324 0.15951 0.11567 0.0
H187 H 0.1579 0.08528 0.26002 0.0
H188 H 0.17229 0.14708 0.11806 0.0
H189 H 0.01708 0.06496 0.24387 0.0
H190 H 0.16577 0.10185 0.20576 0.0
H191 H 0.02122 0.11846 0.15891 0.0
C192 C 0.05568 0.1475 0.12468 0.0
C193 C 0.09806 0.1575 0.11345 0.0
C194 C 0.13343 0.09297 0.21379 0.0
C195 C 0.09574 0.11112 0.16384 0.0
C196 C 0.12897 0.08361 0.24474 0.0
C197 C 0.08683 0.07383 0.25616 0.0
C198 C 0.09498 0.09358 0.19444 0.0
C199 C 0.05023 0.07214 0.23569 0.0
C200 C 0.05441 0.12413 0.14961 0.0
C201 C 0.13876 0.14114 0.12653 0.0
N202 N 0.05485 0.08262 0.20585 0.0
N203 N 0.13657 0.11935 0.15142 0.0
H204 H 0.05946 0.89408 0.11556 0.0
H205 H 0.9354 0.97514 0.26444 0.0
H206 H 0.91087 0.90799 0.12529 0.0
H207 H 0.07637 0.99119 0.24173 0.0
H208 H 0.92366 0.9574 0.21093 0.0
H209 H 0.06514 0.93646 0.15771 0.0
C210 C 0.02786 0.90666 0.12595 0.0
C211 C -0.01544 0.89675 0.1171 0.0
C212 C 0.9569 0.96561 0.21735 0.0
C213 C -0.00887 0.94472 0.16626 0.0
C214 C 0.96355 0.97568 0.24787 0.0
C215 C 0.00687 0.98449 0.25728 0.0
C216 C -0.0057 0.9633 0.19636 0.0
C217 C 0.04238 0.98472 0.23517 0.0
C218 C 0.03123 0.93081 0.15025 0.0
C219 C 0.94506 0.91387 0.1319 0.0
N220 N 0.03559 0.97354 0.20577 0.0
N221 N 0.94933 0.93645 0.15613 0.0
H222 H 0.55814 0.62178 0.59614 0.0
H223 H 0.65125 0.59855 0.76836 0.0
H224 H 0.66618 0.67854 0.63508 0.0
H225 H 0.52269 0.56231 0.7391 0.0
H226 H 0.66809 0.61461 0.71508 0.0
H227 H 0.55547 0.58725 0.64397 0.0
C228 C 0.58164 0.62678 0.61451 0.0
C229 C 0.61192 0.65366 0.61163 0.0
C230 C 0.63653 0.60257 0.72012 0.0
C231 C 0.60945 0.61378 0.6661 0.0
C232 C 0.62698 0.59339 0.75048 0.0
C233 C 0.58566 0.57902 0.7579 0.0
C234 C 0.60413 0.59791 0.69706 0.0
C235 C 0.55526 0.57281 0.73407 0.0
C236 C 0.5802 0.6069 0.64172 0.0
C237 C 0.64241 0.6581 0.63593 0.0
N238 N 0.56483 0.58272 0.70463 0.0
N239 N 0.64003 0.63868 0.66219 0.0
H240 H 0.41435 0.41224 0.61825 0.0
H241 H 0.58233 0.49163 0.73976 0.0
H242 H 0.56325 0.397 0.61226 0.0
H243 H 0.43989 0.47626 0.75817 0.0
H244 H 0.57215 0.47479 0.68543 0.0
H245 H 0.42026 0.4532 0.66189 0.0
C246 C 0.44826 0.41783 0.62578 0.0
C247 C 0.48833 0.40044 0.61191 0.0
C248 C 0.54287 0.47592 0.70123 0.0
C249 C 0.49525 0.44761 0.66158 0.0
C250 C 0.54863 0.48571 0.73205 0.0
C251 C 0.51183 0.48523 0.75313 0.0
C252 C 0.50009 0.46554 0.69174 0.0
C253 C 0.46901 0.47684 0.74241 0.0
C254 C 0.45158 0.44135 0.65058 0.0
C255 C 0.53132 0.40964 0.62212 0.0
N256 N 0.46436 0.46701 0.71248 0.0
N257 N 0.53364 0.43217 0.64662 0.0
H258 H 0.30413 0.41714 0.03316 0.0
H259 H 0.37849 0.51879 0.88114 0.0
H260 H 0.2085 0.45871 0.96349 0.0
H261 H 0.47346 0.46167 0.94357 0.0
H262 H 0.31469 0.50941 0.91709 0.0
H263 H 0.36537 0.44559 0.0066 0.0
C264 C 0.29591 0.43255 0.01247 0.0
C265 C 0.25129 0.43509 0.00031 0.0
C266 C 0.3496 0.49944 0.92313 0.0
C267 C 0.32111 0.46772 0.96979 0.0
C268 C 0.38584 0.50493 0.90273 0.0
C269 C 0.43088 0.49092 0.90962 0.0
C270 C 0.35883 0.47955 0.95029 0.0
C271 C 0.43896 0.47275 0.93755 0.0
C272 C 0.33082 0.4489 -0.00263 0.0
C273 C 0.24236 0.45608 0.97378 0.0
N274 N 0.40323 0.46736 0.95678 0.0
N275 N 0.2771 0.47119 0.95917 0.0
H276 H 0.76711 0.63935 0.03996 0.0
H277 H 0.70026 0.537 0.88706 0.0
H278 H 0.86645 0.59393 0.97207 0.0
H279 H 0.60202 0.59418 0.9494 0.0
H280 H 0.76195 0.54567 0.92381 0.0
H281 H 0.7067 0.61133 0.01289 0.0
C282 C 0.7763 0.62317 0.01957 0.0
C283 C 0.82178 0.61941 0.00806 0.0
C284 C 0.72677 0.55579 0.92967 0.0
C285 C 0.75292 0.58729 0.97693 0.0
C286 C 0.6917 0.55067 0.90881 0.0
C287 C 0.64634 0.56493 0.91541 0.0
C288 C 0.71615 0.57564 0.957 0.0
C289 C 0.63677 0.58291 0.94357 0.0
C290 C 0.74186 0.60707 0.00418 0.0
C291 C 0.83191 0.5975 0.98188 0.0
N292 N 0.67144 0.58802 0.96324 0.0
N293 N 0.79764 0.58268 0.96696 0.0
H294 H 0.86413 0.34114 0.93097 0.0
H295 H 0.64634 0.48861 0.92487 0.0
H296 H 0.84091 0.4285 -0.00346 0.0
H297 H 0.68716 0.41575 0.84978 0.0
H298 H 0.71487 0.46503 0.95324 0.0
H299 H 0.79532 0.36506 0.90318 0.0
C300 C 0.84421 0.36514 0.93968 0.0
C301 C 0.85814 0.38292 0.96603 0.0
C302 C 0.7091 0.45442 0.93043 0.0
C303 C 0.77989 0.41066 0.93423 0.0
C304 C 0.67041 0.46824 0.9141 0.0
C305 C 0.66211 0.45488 0.88463 0.0
C306 C 0.73904 0.4265 0.91738 0.0
C307 C 0.69281 0.42706 0.87234 0.0
C308 C 0.80523 0.37897 0.92368 0.0
C309 C 0.83152 0.41421 0.97612 0.0
N310 N 0.72999 0.41376 0.88879 0.0
N311 N 0.79361 0.42711 0.96019 0.0
H312 H 0.23 0.61943 -0.00428 0.0
H313 H 0.39417 0.64059 0.84874 0.0
H314 H 0.21153 0.70804 0.93208 0.0
H315 H 0.42932 0.56681 0.92297 0.0
H316 H 0.32305 0.66225 0.8766 0.0
H317 H 0.29953 0.59612 0.96694 0.0
C318 C 0.24065 0.63396 0.97568 0.0
C319 C 0.21513 0.66572 0.96625 0.0
C320 C 0.34609 0.64106 0.88667 0.0
C321 C 0.29438 0.6393 0.93332 0.0
C322 C 0.38649 0.62866 0.87076 0.0
C323 C 0.41678 0.60126 0.88331 0.0
C324 C 0.33621 0.62606 0.91541 0.0
C325 C 0.40585 0.58702 0.91205 0.0
C326 C 0.28035 0.62074 0.95936 0.0
C327 C 0.23057 0.68369 0.94032 0.0
N328 N 0.36632 0.59954 0.92716 0.0
N329 N 0.26915 0.67015 0.92467 0.0
H330 H 0.71498 0.949 0.45005 0.0
H331 H -0.01733 0.96473 0.44995 0.0
H332 H 0.80557 0.90525 0.5218 0.0
H333 H 0.89002 1.01986 0.385 0.0
H334 H 0.9166 0.95202 0.48192 0.0
H335 H 0.77562 0.98392 0.4314 0.0
C336 C 0.74727 0.94725 0.46236 0.0
C337 C 0.7553 0.92366 0.48736 0.0
C338 C 0.91055 0.9676 0.46107 0.0
C339 C 0.8255 0.96312 0.46546 0.0
C340 C 0.94826 0.97491 0.4429 0.0
C341 C 0.94144 0.99322 0.41493 0.0
C342 C 0.8657 0.97786 0.45068 0.0
C343 C 0.89644 1.00576 0.40657 0.0
C344 C 0.78206 0.96714 0.45153 0.0
C345 C 0.79819 0.92232 0.50198 0.0
N346 N 0.86007 0.99727 0.42413 0.0
N347 N 0.83189 0.94136 0.49054 0.0
H348 H 0.28083 0.13754 0.53638 0.0
H349 H 0.21321 0.03031 0.38647 0.0
H350 H 0.37916 0.09344 0.46733 0.0
H351 H 0.11563 0.08822 0.44879 0.0
H352 H 0.27535 0.03962 0.42276 0.0
H353 H 0.22112 0.10664 0.5113 0.0
C354 C 0.28997 0.12106 0.51615 0.0
C355 C 0.33488 0.11853 0.50369 0.0
C356 C 0.24018 0.04962 0.42878 0.0
C357 C 0.26681 0.08309 0.47486 0.0
C358 C 0.20484 0.04405 0.40822 0.0
C359 C 0.15963 0.05865 0.41482 0.0
C360 C 0.22988 0.07009 0.45583 0.0
C361 C 0.1503 0.07676 0.44294 0.0
C362 C 0.25595 0.10329 0.50191 0.0
C363 C 0.34503 0.09614 0.47781 0.0
N364 N 0.18519 0.0823 0.46228 0.0
N365 N 0.31111 0.07971 0.46399 0.0
H366 H 0.39436 0.84609 0.38663 0.0
H367 H 0.16475 0.97657 0.41894 0.0
H368 H 0.34594 0.87691 0.47851 0.0
H369 H 0.19006 0.91635 0.33419 0.0
H370 H 0.23688 0.9471 0.4396 0.0
H371 H 0.32406 0.8776 0.36545 0.0
C372 C 0.36871 0.85937 0.40229 0.0
C373 C 0.37561 0.85886 0.43429 0.0
C374 C 0.22672 0.94051 0.41643 0.0
C375 C 0.29584 0.89523 0.41037 0.0
C376 C 0.18604 0.95764 0.40453 0.0
C377 C 0.17212 0.94913 0.37476 0.0
C378 C 0.25344 0.91486 0.39827 0.0
C379 C 0.19991 0.92365 0.35725 0.0
C380 C 0.32872 0.87729 0.39025 0.0
C381 C 0.34149 0.87639 0.4537 0.0
N382 N 0.23941 0.90743 0.36925 0.0
N383 N 0.3031 0.89413 0.4414 0.0
H384 H 0.74119 0.12683 0.49495 0.0
H385 H 0.91359 0.14642 0.35212 0.0
H386 H 0.72737 0.21545 0.43113 0.0
H387 H 0.94002 0.06863 0.42456 0.0
H388 H 0.84315 0.17053 0.37948 0.0
H389 H 0.81233 0.10331 0.4682 0.0
C390 C 0.75324 0.14134 0.47532 0.0
C391 C 0.72841 0.17307 0.46515 0.0
C392 C 0.86416 0.148 0.3893 0.0
C393 C 0.80961 0.1464 0.4345 0.0
C394 C 0.90422 0.13421 0.37367 0.0
C395 C 0.93181 0.1049 0.38579 0.0
C396 C 0.85183 0.13244 0.4173 0.0
C397 C 0.91863 0.09031 0.4139 0.0
C398 C 0.79388 0.128 0.46014 0.0
C399 C 0.74575 0.19108 0.43986 0.0
N400 N 0.87944 0.10417 0.42872 0.0
N401 N 0.7852 0.17737 0.42527 0.0
loop_
_geom_bond_atom_site_label_1
_geom_bond_atom_site_label_2
_geom_bond_distance
_geom_bond_site_symmetry_2
_ccdc_geom_bond_type
C0 C1 1.384 . S
C0 H13 0.947 . S
C0 C35 1.382 1_655 S
C1 C0 1.384 . S
C1 C2 1.398 . S
C2 C1 1.398 . S
C2 C3 1.366 1_556 S
C2 H14 0.944 1_556 S
C3 C2 1.366 1_554 S
C3 H15 0.950 . S
C3 C34 1.396 1_655 S
H4 C23 0.947 . S
H5 C24 0.946 . S
H6 C26 0.953 . S
H7 C27 0.945 . S
H8 C29 0.952 . S
H9 C30 0.943 1_554 S
H10 C32 0.950 . S
H11 C33 0.948 . S
H12 C35 0.951 . S
H13 C0 0.947 . S
H14 C2 0.944 1_554 S
H15 C3 0.950 . S
N16 C19 1.382 . S
N16 C21 1.363 . S
N17 C19 1.371 . S
N17 C20 1.372 . S
N18 C20 1.361 . S
N18 C21 1.377 . S
C19 N16 1.382 . S
C19 N17 1.371 . S
C19 C22 1.480 . S
C20 N17 1.372 . S
C20 N18 1.361 . S
C20 C28 1.457 . S
C21 N16 1.363 . S
C21 N18 1.377 . S
C21 C34 1.492 . S
C22 C19 1.480 . S
C22 C23 1.383 . S
C22 C27 1.385 . S
C23 H4 0.947 . S
C23 C22 1.383 . S
C23 C24 1.388 . S
C24 H5 0.946 . S
C24 C23 1.388 . S
C24 C25 1.384 . S
C25 C24 1.384 . S
C25 C26 1.377 . S
C26 H6 0.953 . S
C26 C25 1.377 . S
C26 C27 1.369 . S
C27 H7 0.945 . S
C27 C22 1.385 . S
C27 C26 1.369 . S
C28 C20 1.457 . S
C28 C29 1.372 . S
C28 C33 1.364 1_554 S
C29 H8 0.952 . S
C29 C28 1.372 . S
C29 C30 1.381 1_554 S
C30 H9 0.943 1_556 S
C30 C29 1.381 1_556 S
C30 C31 1.401 . S
C31 C30 1.401 . S
C31 C32 1.372 . S
C32 H10 0.950 . S
C32 C31 1.372 . S
C32 C33 1.379 . S
C33 H11 0.948 . S
C33 C28 1.364 1_556 S
C33 C32 1.379 . S
C34 C3 1.396 1_455 S
C34 C21 1.492 . S
C34 C35 1.373 1_554 S
C35 C0 1.382 1_455 S
C35 H12 0.951 . S
C35 C34 1.373 1_556 S
C36 C37 1.384 . S
C36 H49 0.947 . S
C36 C71 1.382 . S
C37 C36 1.384 . S
C37 C38 1.373 1_556 S
C38 C37 1.373 1_554 S
C38 C39 1.380 . S
C38 H50 0.955 . S
C39 C38 1.380 . S
C39 H51 0.950 . S
C39 C70 1.390 . S
H40 C59 0.947 . S
H41 C60 0.946 . S
H42 C62 0.953 . S
H43 C63 0.945 . S
H44 C65 0.952 . S
H45 C66 0.949 1_554 S
H46 C68 0.950 . S
H47 C69 0.948 . S
H48 C71 0.951 . S
H49 C36 0.947 . S
H50 C38 0.955 . S
H51 C39 0.950 . S
N52 C55 1.382 1_655 S
N52 C57 1.363 . S
N53 C55 1.371 . S
N53 C56 1.372 . S
N54 C56 1.361 1_556 S
N54 C57 1.377 1_456 S
C55 N52 1.382 1_455 S
C55 N53 1.371 . S
C55 C58 1.480 . S
C56 N53 1.372 . S
C56 N54 1.361 1_554 S
C56 C64 1.457 1_554 S
C57 N52 1.363 . S
C57 N54 1.377 1_654 S
C57 C70 1.485 . S
C58 C55 1.480 . S
C58 C59 1.383 1_455 S
C58 C63 1.385 . S
C59 H40 0.947 . S
C59 C58 1.383 1_655 S
C59 C60 1.388 . S
C60 H41 0.946 . S
C60 C59 1.388 . S
C60 C61 1.384 1_655 S
C61 C60 1.384 1_455 S
C61 C62 1.377 . S
C62 H42 0.953 . S
C62 C61 1.377 . S
C62 C63 1.369 . S
C63 H43 0.945 . S
C63 C58 1.385 . S
C63 C62 1.369 . S
C64 C56 1.457 1_556 S
C64 C65 1.372 1_556 S
C64 C69 1.364 . S
C65 H44 0.952 . S
C65 C64 1.372 1_554 S
C65 C66 1.389 1_554 S
C66 H45 0.949 1_556 S
C66 C65 1.389 1_556 S
C66 C67 1.387 . S
C67 C66 1.387 . S
C67 C68 1.372 . S
C68 H46 0.950 . S
C68 C67 1.372 . S
C68 C69 1.379 . S
C69 H47 0.948 . S
C69 C64 1.364 . S
C69 C68 1.379 . S
C70 C39 1.390 . S
C70 C57 1.485 . S
C70 C71 1.383 1_554 S
C71 C36 1.382 . S
C71 H48 0.951 . S
C71 C70 1.383 1_556 S
C72 C73 1.384 . S
C72 H85 0.947 . S
C72 C107 1.382 . S
C73 C72 1.384 . S
C73 C74 1.378 . S
C74 C73 1.378 . S
C74 C75 1.378 . S
C74 H86 0.952 . S
C75 C74 1.378 . S
C75 H87 0.950 . S
C75 C106 1.383 . S
H76 C95 0.947 . S
H77 C96 0.946 . S
H78 C98 0.953 . S
H79 C99 0.945 . S
H80 C101 0.952 . S
H81 C102 0.949 . S
H82 C104 0.950 . S
H83 C105 0.948 . S
H84 C107 0.951 . S
H85 C72 0.947 . S
H86 C74 0.952 . S
H87 C75 0.950 . S
N88 C91 1.382 . S
N88 C93 1.363 . S
N89 C91 1.371 . S
N89 C92 1.372 . S
N90 C92 1.361 . S
N90 C93 1.377 . S
C91 N88 1.382 . S
C91 N89 1.371 . S
C91 C94 1.480 . S
C92 N89 1.372 . S
C92 N90 1.361 . S
C92 C100 1.457 . S
C93 N88 1.363 . S
C93 N90 1.377 . S
C93 C106 1.479 . S
C94 C91 1.480 . S
C94 C95 1.383 . S
C94 C99 1.385 . S
C95 H76 0.947 . S
C95 C94 1.383 . S
C95 C96 1.388 . S
C96 H77 0.946 . S
C96 C95 1.388 . S
C96 C97 1.384 . S
C97 C96 1.384 . S
C97 C98 1.377 . S
C98 H78 0.953 . S
C98 C97 1.377 . S
C98 C99 1.369 . S
C99 H79 0.945 . S
C99 C94 1.385 . S
C99 C98 1.369 . S
C100 C92 1.457 . S
C100 C101 1.372 . S
C100 C105 1.364 . S
C101 H80 0.952 . S
C101 C100 1.372 . S
C101 C102 1.389 . S
C102 H81 0.949 . S
C102 C101 1.389 . S
C102 C103 1.387 . S
C103 C102 1.387 . S
C103 C104 1.372 . S
C104 H82 0.950 . S
C104 C103 1.372 . S
C104 C105 1.379 . S
C105 H83 0.948 . S
C105 C100 1.364 . S
C105 C104 1.379 . S
C106 C75 1.383 . S
C106 C93 1.479 . S
C106 C107 1.398 . S
C107 C72 1.382 . S
C107 H84 0.951 . S
C107 C106 1.398 . S
C108 C109 1.384 . S
C108 H121 0.947 . S
C108 C143 1.382 . S
C109 C108 1.384 . S
C109 C110 1.378 . S
C110 C109 1.378 . S
C110 C111 1.378 . S
C110 H122 0.952 . S
C111 C110 1.378 . S
C111 H123 0.950 . S
C111 C142 1.383 . S
H112 C131 0.947 . S
H113 C132 0.946 . S
H114 C134 0.953 . S
H115 C135 0.945 . S
H116 C137 0.952 . S
H117 C138 0.949 . S
H118 C140 0.950 . S
H119 C141 0.948 . S
H120 C143 0.951 . S
H121 C108 0.947 . S
H122 C110 0.952 . S
H123 C111 0.950 . S
N124 C127 1.382 . S
N124 C129 1.363 . S
N125 C127 1.371 . S
N125 C128 1.372 . S
N126 C128 1.361 . S
N126 C129 1.377 . S
C127 N124 1.382 . S
C127 N125 1.371 . S
C127 C130 1.480 . S
C128 N125 1.372 . S
C128 N126 1.361 . S
C128 C136 1.457 . S
C129 N124 1.363 . S
C129 N126 1.377 . S
C129 C142 1.479 . S
C130 C127 1.480 . S
C130 C131 1.383 . S
C130 C135 1.385 . S
C131 H112 0.947 . S
C131 C130 1.383 . S
C131 C132 1.388 . S
C132 H113 0.946 . S
C132 C131 1.388 . S
C132 C133 1.384 . S
C133 C132 1.384 . S
C133 C134 1.377 . S
C134 H114 0.953 . S
C134 C133 1.377 . S
C134 C135 1.369 . S
C135 H115 0.945 . S
C135 C130 1.385 . S
C135 C134 1.369 . S
C136 C128 1.457 . S
C136 C137 1.372 . S
C136 C141 1.364 . S
C137 H116 0.952 . S
C137 C136 1.372 . S
C137 C138 1.389 . S
C138 H117 0.949 . S
C138 C137 1.389 . S
C138 C139 1.387 . S
C139 C138 1.387 . S
C139 C140 1.372 . S
C140 H118 0.950 . S
C140 C139 1.372 . S
C140 C141 1.379 . S
C141 H119 0.948 . S
C141 C136 1.364 . S
C141 C140 1.379 . S
C142 C111 1.383 . S
C142 C129 1.479 . S
C142 C143 1.398 . S
C143 C108 1.382 . S
C143 H120 0.951 . S
C143 C142 1.398 . S
Zn144 O150 1.920 . S
Zn144 O156 1.898 . S
Zn144 O159 1.905 1_455 S
Zn145 O153 1.905 . S
Zn145 O154 1.898 . S
Zn145 O162 1.920 . S
Zn146 O149 2.080 . S
Zn146 O152 2.114 1_545 S
Zn146 O155 2.120 1_545 S
Zn146 O157 2.120 . S
Zn146 O158 2.130 . S
Zn146 O161 2.080 1_545 S
C147 O152 1.166 . S
C147 O153 1.182 . S
C148 O154 1.167 . S
C148 O155 1.299 . S
O149 Zn146 2.080 . S
O149 C163 1.305 . S
O150 Zn144 1.920 . S
O150 C163 1.234 . S
C151 O156 1.167 . S
C151 O157 1.299 . S
O152 Zn146 2.114 1_565 S
O152 C147 1.166 . S
O153 Zn145 1.905 . S
O153 C147 1.182 . S
O154 Zn145 1.898 . S
O154 C148 1.167 . S
O155 Zn146 2.120 1_565 S
O155 C148 1.299 . S
O156 Zn144 1.898 . S
O156 C151 1.167 . S
O157 Zn146 2.120 . S
O157 C151 1.299 . S
O158 Zn146 2.130 . S
O158 C160 1.159 1_455 S
O159 Zn144 1.905 1_655 S
O159 C160 1.182 . S
C160 O158 1.159 1_655 S
C160 O159 1.182 . S
O161 Zn146 2.080 1_565 S
O161 C164 1.305 . S
O162 Zn145 1.920 . S
O162 C164 1.234 . S
C163 O149 1.305 . S
C163 O150 1.234 . S
C164 O161 1.305 . S
C164 O162 1.234 . S
Zn165 O171 1.920 . S
Zn165 O177 1.898 . S
Zn165 O180 1.905 . S
Zn166 O174 1.905 . S
Zn166 O175 1.898 . S
Zn166 O183 1.920 . S
Zn167 O170 2.080 . S
Zn167 O173 2.114 . S
Zn167 O176 2.120 . S
Zn167 O178 2.120 . S
Zn167 O179 2.114 . S
Zn167 O182 2.080 . S
C168 O173 1.166 . S
C168 O174 1.182 . S
C169 O175 1.167 . S
C169 O176 1.299 . S
O170 Zn167 2.080 . S
O170 C184 1.305 . S
O171 Zn165 1.920 . S
O171 C184 1.234 . S
C172 O177 1.167 . S
C172 O178 1.299 . S
O173 Zn167 2.114 . S
O173 C168 1.166 . S
O174 Zn166 1.905 . S
O174 C168 1.182 . S
O175 Zn166 1.898 . S
O175 C169 1.167 . S
O176 Zn167 2.120 . S
O176 C169 1.299 . S
O177 Zn165 1.898 . S
O177 C172 1.167 . S
O178 Zn167 2.120 . S
O178 C172 1.299 . S
O179 Zn167 2.114 . S
O179 C181 1.166 . S
O180 Zn165 1.905 . S
O180 C181 1.182 . S
C181 O179 1.166 . S
C181 O180 1.182 . S
O182 Zn167 2.080 . S
O182 C185 1.305 . S
O183 Zn166 1.920 . S
O183 C185 1.234 . S
C184 O170 1.305 . S
C184 O171 1.234 . S
C185 O182 1.305 . S
C185 O183 1.234 . S
H186 C192 0.930 . S
H187 C196 0.930 . S
H188 C201 0.929 . S
H189 C199 0.929 . S
H190 C194 0.929 . S
H191 C200 0.929 . S
C192 H186 0.930 . S
C192 C193 1.367 . S
C192 C200 1.378 . S
C193 C192 1.367 . S
C193 C201 1.433 . S
C194 H190 0.929 . S
C194 C196 1.378 . S
C194 C198 1.350 . S
C195 C198 1.463 . S
C195 C200 1.350 . S
C195 N203 1.427 . S
C196 H187 0.930 . S
C196 C194 1.378 . S
C196 C197 1.367 . S
C197 C196 1.367 . S
C197 C199 1.433 . S
C198 C194 1.350 . S
C198 C195 1.463 . S
C198 N202 1.427 . S
C199 H189 0.929 . S
C199 C197 1.433 . S
C199 N202 1.384 . S
C200 H191 0.929 . S
C200 C192 1.378 . S
C200 C195 1.350 . S
C201 H188 0.929 . S
C201 C193 1.433 . S
C201 N203 1.384 . S
N202 C198 1.427 . S
N202 C199 1.384 . S
N203 C195 1.427 . S
N203 C201 1.384 . S
H204 C210 0.930 . S
H205 C214 0.930 . S
H206 C219 0.929 . S
H207 C217 0.929 . S
H208 C212 0.929 . S
H209 C218 0.929 . S
C210 H204 0.930 . S
C210 C211 1.367 . S
C210 C218 1.378 . S
C211 C210 1.367 . S
C211 C219 1.433 1_455 S
C212 H208 0.929 . S
C212 C214 1.378 . S
C212 C216 1.350 1_655 S
C213 C216 1.463 . S
C213 C218 1.350 . S
C213 N221 1.427 1_455 S
C214 H205 0.930 . S
C214 C212 1.378 . S
C214 C215 1.367 1_655 S
C215 C214 1.367 1_455 S
C215 C217 1.433 . S
C216 C212 1.350 1_455 S
C216 C213 1.463 . S
C216 N220 1.427 . S
C217 H207 0.929 . S
C217 C215 1.433 . S
C217 N220 1.384 . S
C218 H209 0.929 . S
C218 C210 1.378 . S
C218 C213 1.350 . S
C219 H206 0.929 . S
C219 C211 1.433 1_655 S
C219 N221 1.384 . S
N220 C216 1.427 . S
N220 C217 1.384 . S
N221 C213 1.427 1_655 S
N221 C219 1.384 . S
H222 C228 0.930 . S
H223 C232 0.930 . S
H224 C237 0.929 . S
H225 C235 0.929 . S
H226 C230 0.929 . S
H227 C236 0.929 . S
C228 H222 0.930 . S
C228 C229 1.367 . S
C228 C236 1.378 . S
C229 C228 1.367 . S
C229 C237 1.433 . S
C230 H226 0.929 . S
C230 C232 1.378 . S
C230 C234 1.350 . S
C231 C234 1.463 . S
C231 C236 1.350 . S
C231 N239 1.427 . S
C232 H223 0.930 . S
C232 C230 1.378 . S
C232 C233 1.367 . S
C233 C232 1.367 . S
C233 C235 1.433 . S
C234 C230 1.350 . S
C234 C231 1.463 . S
C234 N238 1.427 . S
C235 H225 0.929 . S
C235 C233 1.433 . S
C235 N238 1.384 . S
C236 H227 0.929 . S
C236 C228 1.378 . S
C236 C231 1.350 . S
C237 H224 0.929 . S
C237 C229 1.433 . S
C237 N239 1.384 . S
N238 C234 1.427 . S
N238 C235 1.384 . S
N239 C231 1.427 . S
N239 C237 1.384 . S
H240 C246 0.930 . S
H241 C250 0.930 . S
H242 C255 0.929 . S
H243 C253 0.929 . S
H244 C248 0.929 . S
H245 C254 0.929 . S
C246 H240 0.930 . S
C246 C247 1.367 . S
C246 C254 1.378 . S
C247 C246 1.367 . S
C247 C255 1.433 . S
C248 H244 0.929 . S
C248 C250 1.378 . S
C248 C252 1.350 . S
C249 C252 1.463 . S
C249 C254 1.350 . S
C249 N257 1.427 . S
C250 H241 0.930 . S
C250 C248 1.378 . S
C250 C251 1.367 . S
C251 C250 1.367 . S
C251 C253 1.433 . S
C252 C248 1.350 . S
C252 C249 1.463 . S
C252 N256 1.427 . S
C253 H243 0.929 . S
C253 C251 1.433 . S
C253 N256 1.384 . S
C254 H245 0.929 . S
C254 C246 1.378 . S
C254 C249 1.350 . S
C255 H242 0.929 . S
C255 C247 1.433 . S
C255 N257 1.384 . S
N256 C252 1.427 . S
N256 C253 1.384 . S
N257 C249 1.427 . S
N257 C255 1.384 . S
H258 C264 0.930 1_554 S
H259 C268 0.930 . S
H260 C273 0.929 . S
H261 C271 0.929 . S
H262 C266 0.929 . S
H263 C272 0.929 . S
C264 H258 0.930 1_556 S
C264 C265 1.367 . S
C264 C272 1.378 . S
C265 C264 1.367 . S
C265 C273 1.433 . S
C266 H262 0.929 . S
C266 C268 1.378 . S
C266 C270 1.350 . S
C267 C270 1.463 . S
C267 C272 1.350 . S
C267 N275 1.427 . S
C268 H259 0.930 . S
C268 C266 1.378 . S
C268 C269 1.367 . S
C269 C268 1.367 . S
C269 C271 1.433 . S
C270 C266 1.350 . S
C270 C267 1.463 . S
C270 N274 1.427 . S
C271 H261 0.929 . S
C271 C269 1.433 . S
C271 N274 1.384 . S
C272 H263 0.929 . S
C272 C264 1.378 . S
C272 C267 1.350 . S
C273 H260 0.929 . S
C273 C265 1.433 . S
C273 N275 1.384 . S
N274 C270 1.427 . S
N274 C271 1.384 . S
N275 C267 1.427 . S
N275 C273 1.384 . S
H276 C282 0.930 1_554 S
H277 C286 0.930 . S
H278 C291 0.929 . S
H279 C289 0.929 . S
H280 C284 0.929 . S
H281 C290 0.929 . S
C282 H276 0.930 1_556 S
C282 C283 1.367 . S
C282 C290 1.378 . S
C283 C282 1.367 . S
C283 C291 1.433 . S
C284 H280 0.929 . S
C284 C286 1.378 . S
C284 C288 1.350 . S
C285 C288 1.463 . S
C285 C290 1.350 . S
C285 N293 1.427 . S
C286 H277 0.930 . S
C286 C284 1.378 . S
C286 C287 1.367 . S
C287 C286 1.367 . S
C287 C289 1.433 . S
C288 C284 1.350 . S
C288 C285 1.463 . S
C288 N292 1.427 . S
C289 H279 0.929 . S
C289 C287 1.433 . S
C289 N292 1.384 . S
C290 H281 0.929 . S
C290 C282 1.378 . S
C290 C285 1.350 . S
C291 H278 0.929 . S
C291 C283 1.433 . S
C291 N293 1.384 . S
N292 C288 1.427 . S
N292 C289 1.384 . S
N293 C285 1.427 . S
N293 C291 1.384 . S
H294 C300 0.930 . S
H295 C304 0.930 . S
H296 C309 0.929 . S
H297 C307 0.929 . S
H298 C302 0.929 . S
H299 C308 0.929 . S
C300 H294 0.930 . S
C300 C301 1.367 . S
C300 C308 1.378 . S
C301 C300 1.367 . S
C301 C309 1.433 . S
C302 H298 0.929 . S
C302 C304 1.378 . S
C302 C306 1.350 . S
C303 C306 1.463 . S
C303 C308 1.350 . S
C303 N311 1.427 . S
C304 H295 0.930 . S
C304 C302 1.378 . S
C304 C305 1.367 . S
C305 C304 1.367 . S
C305 C307 1.433 . S
C306 C302 1.350 . S
C306 C303 1.463 . S
C306 N310 1.427 . S
C307 H297 0.929 . S
C307 C305 1.433 . S
C307 N310 1.384 . S
C308 H299 0.929 . S
C308 C300 1.378 . S
C308 C303 1.350 . S
C309 H296 0.929 . S
C309 C301 1.433 . S
C309 N311 1.384 . S
N310 C306 1.427 . S
N310 C307 1.384 . S
N311 C303 1.427 . S
N311 C309 1.384 . S
H312 C318 0.930 . S
H313 C322 0.930 . S
H314 C327 0.929 . S
H315 C325 0.929 . S
H316 C320 0.929 . S
H317 C326 0.929 . S
C318 H312 0.930 . S
C318 C319 1.367 . S
C318 C326 1.378 . S
C319 C318 1.367 . S
C319 C327 1.433 . S
C320 H316 0.929 . S
C320 C322 1.378 . S
C320 C324 1.350 . S
C321 C324 1.463 . S
C321 C326 1.350 . S
C321 N329 1.427 . S
C322 H313 0.930 . S
C322 C320 1.378 . S
C322 C323 1.367 . S
C323 C322 1.367 . S
C323 C325 1.433 . S
C324 C320 1.350 . S
C324 C321 1.463 . S
C324 N328 1.427 . S
C325 H315 0.929 . S
C325 C323 1.433 . S
C325 N328 1.384 . S
C326 H317 0.929 . S
C326 C318 1.378 . S
C326 C321 1.350 . S
C327 H314 0.929 . S
C327 C319 1.433 . S
C327 N329 1.384 . S
N328 C324 1.427 . S
N328 C325 1.384 . S
N329 C321 1.427 . S
N329 C327 1.384 . S
H330 C336 0.930 . S
H331 C340 0.930 . S
H332 C345 0.929 . S
H333 C343 0.929 1_455 S
H334 C338 0.929 . S
H335 C344 0.929 . S
C336 H330 0.930 . S
C336 C337 1.367 . S
C336 C344 1.378 . S
C337 C336 1.367 . S
C337 C345 1.433 . S
C338 H334 0.929 . S
C338 C340 1.378 . S
C338 C342 1.350 . S
C339 C342 1.463 . S
C339 C344 1.350 . S
C339 N347 1.427 . S
C340 H331 0.930 . S
C340 C338 1.378 . S
C340 C341 1.367 . S
C341 C340 1.367 . S
C341 C343 1.433 . S
C342 C338 1.350 . S
C342 C339 1.463 . S
C342 N346 1.427 . S
C343 H333 0.929 1_655 S
C343 C341 1.433 . S
C343 N346 1.384 . S
C344 H335 0.929 . S
C344 C336 1.378 . S
C344 C339 1.350 . S
C345 H332 0.929 . S
C345 C337 1.433 . S
C345 N347 1.384 . S
N346 C342 1.427 . S
N346 C343 1.384 . S
N347 C339 1.427 . S
N347 C345 1.384 . S
H348 C354 0.930 . S
H349 C358 0.930 . S
H350 C363 0.929 . S
H351 C361 0.929 . S
H352 C356 0.929 . S
H353 C362 0.929 . S
C354 H348 0.930 . S
C354 C355 1.367 . S
C354 C362 1.378 . S
C355 C354 1.367 . S
C355 C363 1.433 . S
C356 H352 0.929 . S
C356 C358 1.378 . S
C356 C360 1.350 . S
C357 C360 1.463 . S
C357 C362 1.350 . S
C357 N365 1.427 . S
C358 H349 0.930 . S
C358 C356 1.378 . S
C358 C359 1.367 . S
C359 C358 1.367 . S
C359 C361 1.433 . S
C360 C356 1.350 . S
C360 C357 1.463 . S
C360 N364 1.427 . S
C361 H351 0.929 . S
C361 C359 1.433 . S
C361 N364 1.384 . S
C362 H353 0.929 . S
C362 C354 1.378 . S
C362 C357 1.350 . S
C363 H350 0.929 . S
C363 C355 1.433 . S
C363 N365 1.384 . S
N364 C360 1.427 . S
N364 C361 1.384 . S
N365 C357 1.427 . S
N365 C363 1.384 . S
H366 C372 0.930 . S
H367 C376 0.930 . S
H368 C381 0.929 . S
H369 C379 0.929 . S
H370 C374 0.929 . S
H371 C380 0.929 . S
C372 H366 0.930 . S
C372 C373 1.367 . S
C372 C380 1.378 . S
C373 C372 1.367 . S
C373 C381 1.433 . S
C374 H370 0.929 . S
C374 C376 1.378 . S
C374 C378 1.350 . S
C375 C378 1.463 . S
C375 C380 1.350 . S
C375 N383 1.427 . S
C376 H367 0.930 . S
C376 C374 1.378 . S
C376 C377 1.367 . S
C377 C376 1.367 . S
C377 C379 1.433 . S
C378 C374 1.350 . S
C378 C375 1.463 . S
C378 N382 1.427 . S
C379 H369 0.929 . S
C379 C377 1.433 . S
C379 N382 1.384 . S
C380 H371 0.929 . S
C380 C372 1.378 . S
C380 C375 1.350 . S
C381 H368 0.929 . S
C381 C373 1.433 . S
C381 N383 1.384 . S
N382 C378 1.427 . S
N382 C379 1.384 . S
N383 C375 1.427 . S
N383 C381 1.384 . S
H384 C390 0.930 . S
H385 C394 0.930 . S
H386 C399 0.929 . S
H387 C397 0.929 . S
H388 C392 0.929 . S
H389 C398 0.929 . S
C390 H384 0.930 . S
C390 C391 1.367 . S
C390 C398 1.378 . S
C391 C390 1.367 . S
C391 C399 1.433 . S
C392 H388 0.929 . S
C392 C394 1.378 . S
C392 C396 1.350 . S
C393 C396 1.463 . S
C393 C398 1.350 . S
C393 N401 1.427 . S
C394 H385 0.930 . S
C394 C392 1.378 . S
C394 C395 1.367 . S
C395 C394 1.367 . S
C395 C397 1.433 . S
C396 C392 1.350 . S
C396 C393 1.463 . S
C396 N400 1.427 . S
C397 H387 0.929 . S
C397 C395 1.433 . S
C397 N400 1.384 . S
C398 H389 0.929 . S
C398 C390 1.378 . S
C398 C393 1.350 . S
C399 H386 0.929 . S
C399 C391 1.433 . S
C399 N401 1.384 . S
N400 C396 1.427 . S
N400 C397 1.384 . S
N401 C393 1.427 . S
N401 C399 1.384 . S
C197 C151 1.445 . S
C193 C25 1.509 . S
C215 C147 1.447 . S
C211 C61 1.526 . S
C233 C172 1.438 . S
C229 C97 1.513 . S
C247 C133 1.532 . S
C251 C168 1.433 . S
C265 C31 1.200 . S
C269 C169 1.070 . S
C287 C184 1.098 . S
C283 C37 1.254 . S
C301 C1 1.696 . S
C305 C185 1.567 . S
C323 C181 1.569 . S
C319 C67 1.713 . S
C341 C148 1.094 1_655 S
C337 C103 1.209 . S
C355 C109 1.247 . S
C359 C163 1.080 . S
C377 C164 1.562 . S
C373 C73 1.695 . S
C395 C160 1.570 . S
C391 C139 1.714 . S
