# Generated by pormake.
# Topology nom, (4,4)-cn, num edge types: 1
# Building blocks:
#     Node 0, Type 0, BuildingBlock: KUFVIS_clean_linker_0, # of connection points: 4
#     Node 1, Type 0, BuildingBlock: KUFVIS_clean_linker_0, # of connection points: 4
#     Node 2, Type 0, BuildingBlock: KUFVIS_clean_linker_0, # of connection points: 4
#     Node 3, Type 0, BuildingBlock: KUFVIS_clean_linker_0, # of connection points: 4
#     Node 4, Type 0, BuildingBlock: KUFVIS_clean_linker_0, # of connection points: 4
#     Node 5, Type 0, BuildingBlock: KUFVIS_clean_linker_0, # of connection points: 4
#     Node 6, Type 1, BuildingBlock: TATPOV_clean_sbu_0, # of connection points: 4
#     Node 7, Type 1, BuildingBlock: TATPOV_clean_sbu_0, # of connection points: 4
#     Node 8, Type 1, BuildingBlock: TATPOV_clean_sbu_0, # of connection points: 4
#     Node 9, Type 1, BuildingBlock: TATPOV_clean_sbu_0, # of connection points: 4
#     Node 10, Type 1, BuildingBlock: TATPOV_clean_sbu_0, # of connection points: 4
#     Node 11, Type 1, BuildingBlock: TATPOV_clean_sbu_0, # of connection points: 4
#     Edge 12, Type (0, 1), BuildingBlock: KIFKEQ_clean_linker_1, # of connection points: 2
#     Edge 13, Type (0, 1), BuildingBlock: KIFKEQ_clean_linker_1, # of connection points: 2
#     Edge 14, Type (0, 1), BuildingBlock: KIFKEQ_clean_linker_1, # of connection points: 2
#     Edge 15, Type (0, 1), BuildingBlock: KIFKEQ_clean_linker_1, # of connection points: 2
#     Edge 16, Type (0, 1), BuildingBlock: KIFKEQ_clean_linker_1, # of connection points: 2
#     Edge 17, Type (0, 1), BuildingBlock: KIFKEQ_clean_linker_1, # of connection points: 2
#     Edge 18, Type (0, 1), BuildingBlock: KIFKEQ_clean_linker_1, # of connection points: 2
#     Edge 19, Type (0, 1), BuildingBlock: KIFKEQ_clean_linker_1, # of connection points: 2
#     Edge 20, Type (0, 1), BuildingBlock: KIFKEQ_clean_linker_1, # of connection points: 2
#     Edge 21, Type (0, 1), BuildingBlock: KIFKEQ_clean_linker_1, # of connection points: 2
#     Edge 22, Type (0, 1), BuildingBlock: KIFKEQ_clean_linker_1, # of connection points: 2
#     Edge 23, Type (0, 1), BuildingBlock: KIFKEQ_clean_linker_1, # of connection points: 2
#     Edge 24, Type (0, 1), BuildingBlock: KIFKEQ_clean_linker_1, # of connection points: 2
#     Edge 25, Type (0, 1), BuildingBlock: KIFKEQ_clean_linker_1, # of connection points: 2
#     Edge 26, Type (0, 1), BuildingBlock: KIFKEQ_clean_linker_1, # of connection points: 2
#     Edge 27, Type (0, 1), BuildingBlock: KIFKEQ_clean_linker_1, # of connection points: 2
#     Edge 28, Type (0, 1), BuildingBlock: KIFKEQ_clean_linker_1, # of connection points: 2
#     Edge 29, Type (0, 1), BuildingBlock: KIFKEQ_clean_linker_1, # of connection points: 2
#     Edge 30, Type (0, 1), BuildingBlock: KIFKEQ_clean_linker_1, # of connection points: 2
#     Edge 31, Type (0, 1), BuildingBlock: KIFKEQ_clean_linker_1, # of connection points: 2
#     Edge 32, Type (0, 1), BuildingBlock: KIFKEQ_clean_linker_1, # of connection points: 2
#     Edge 33, Type (0, 1), BuildingBlock: KIFKEQ_clean_linker_1, # of connection points: 2
#     Edge 34, Type (0, 1), BuildingBlock: KIFKEQ_clean_linker_1, # of connection points: 2
#     Edge 35, Type (0, 1), BuildingBlock: KIFKEQ_clean_linker_1, # of connection points: 2
# Relax obj value: 0.020
# Max RMSD: 0.118
# Mean RMSD: 0.080
data_MOF--net-nom--node1-TATPOV_clean_sbu_0--node2-KUFVIS_clean_linker_0--edge1-KIFKEQ_clean_linker_1
_symmetry_space_group_name_H-M    P1
_symmetry_Int_Tables_number       1
_symmetry_cell_setting            triclinic
loop_
_symmetry_equiv_pos_as_xyz
'x, y, z'
_cell_length_a     44.6268
_cell_length_b     44.872803
_cell_length_c     49.626974
_cell_angle_alpha  90.633346
_cell_angle_beta   90.735533
_cell_angle_gamma 119.97508
loop_
_atom_site_label
_atom_site_type_symbol
_atom_site_fract_x
_atom_site_fract_y
_atom_site_fract_z
_atom_type_partial_charge
H0 H 0.16659 0.57605 0.30759 0.0
H1 H 0.08264 0.53961 0.25062 0.0
H2 H 0.06453 0.50083 0.33176 0.0
H3 H 1.01425 0.50014 0.32364 0.0
H4 H 0.93238 0.44757 0.26473 0.0
H5 H 1.03721 0.48655 0.24162 0.0
C6 C 0.13953 0.55841 0.30269 0.0
C7 C 0.11691 0.5386 0.32289 0.0
C8 C 0.12724 0.55821 0.27666 0.0
C9 C 0.09187 0.53783 0.27048 0.0
C10 C 0.06862 0.51641 0.29011 0.0
C11 C 0.08169 0.51686 0.31627 0.0
C12 C 1.03068 0.49529 0.2837 0.0
C13 C 1.00591 0.48962 0.30344 0.0
C14 C 0.97025 0.47163 0.29701 0.0
C15 C 0.95952 0.45939 0.27049 0.0
C16 C 0.98359 0.46528 0.25053 0.0
C17 C 1.01896 0.48254 0.25728 0.0
H18 H 0.61438 0.17073 0.47385 0.0
H19 H 0.56575 0.09089 0.41351 0.0
H20 H 0.57805 0.06607 0.4954 0.0
H21 H 0.52495 1.01999 0.48515 0.0
H22 H 0.50325 0.93745 0.43018 0.0
H23 H 0.56975 0.04174 0.40598 0.0
C24 C 0.60295 0.14375 0.46819 0.0
C25 C 0.59698 0.11947 0.48794 0.0
C26 C 0.59248 0.1337 0.44134 0.0
C27 C 0.57502 0.09853 0.4341 0.0
C28 C 0.56939 0.07352 0.45359 0.0
C29 C 0.58126 0.08461 0.48029 0.0
C30 C 0.55071 0.03585 0.44668 0.0
C31 C 0.52942 1.01159 0.46583 0.0
C32 C 0.51338 0.97621 0.4601 0.0
C33 C 0.51736 0.96483 0.43485 0.0
C34 C 0.53683 0.98825 0.41496 0.0
C35 C 0.55394 1.02375 0.42113 0.0
H36 H 0.58511 0.48113 0.60047 0.0
H37 H 0.53596 0.51405 0.6578 0.0
H38 H 0.5555 0.55433 0.57699 0.0
H39 H 0.50527 0.55515 0.58467 0.0
H40 H 0.48321 0.61218 0.64282 0.0
H41 H 0.54422 0.567 0.6667 0.0
C42 C 0.57366 0.49676 0.60567 0.0
C43 C 0.57082 0.51718 0.58598 0.0
C44 C 0.56221 0.49633 0.63184 0.0
C45 C 0.54602 0.51558 0.63783 0.0
C46 C 0.5432 0.53685 0.6182 0.0
C47 C 0.55632 0.53772 0.59229 0.0
C48 C 0.52712 0.55837 0.62481 0.0
C49 C 0.50865 0.56557 0.60498 0.0
C50 C 0.49402 0.58605 0.6114 0.0
C51 C 0.49645 0.59818 0.63784 0.0
C52 C 0.51358 0.59053 0.65809 0.0
C53 C 0.52973 0.57154 0.65124 0.0
H54 H 0.14216 0.58144 0.7659 0.0
H55 H 0.05695 0.5194 0.81592 0.0
H56 H 1.03916 0.53336 0.73206 0.0
H57 H 0.98959 0.48305 0.73802 0.0
H58 H 0.90484 0.453 0.79114 0.0
H59 H 1.00803 0.51955 0.82112 0.0
C60 C 0.11443 0.56538 0.76817 0.0
C61 C 0.09222 0.55746 0.74575 0.0
C62 C 0.10171 0.55209 0.79337 0.0
C63 C 0.06603 0.53077 0.79647 0.0
C64 C 0.04254 0.52444 0.77473 0.0
C65 C 0.05621 0.53798 0.74924 0.0
C66 C 1.00416 0.50429 0.77895 0.0
C67 C 0.98053 0.48468 0.7578 0.0
C68 C 0.94478 0.46645 0.76238 0.0
C69 C 0.93253 0.46703 0.78799 0.0
C70 C 0.9552 0.48524 0.80944 0.0
C71 C 0.99081 0.50455 0.80462 0.0
H72 H 0.5333 0.91893 -0.02344 0.0
H73 H 0.57735 0.99867 0.91804 0.0
H74 H 0.56654 1.02297 0.00073 0.0
H75 H 0.6216 0.07048 -0.0095 0.0
H76 H 0.63677 0.15086 0.93715 0.0
H77 H 0.56587 0.04564 0.914 0.0
C78 C 0.54538 0.94596 -0.02838 0.0
C79 C 0.54941 0.96991 -0.00842 0.0
C80 C 0.55479 0.95599 0.94507 0.0
C81 C 0.5696 0.99094 0.93856 0.0
C82 C 0.57508 1.0158 0.95878 0.0
C83 C 0.56404 1.0047 -0.01484 0.0
C84 C 0.5921 0.05323 0.95267 0.0
C85 C 0.6154 0.07822 -0.02841 0.0
C86 C 0.63142 0.11335 0.96586 0.0
C87 C 0.62398 0.12361 0.94144 0.0
C88 C 0.6001 0.0996 0.92277 0.0
C89 C 0.5846 0.06431 0.92827 0.0
H90 H 0.51985 0.63083 0.11021 0.0
H91 H 0.55571 0.5872 0.17026 0.0
H92 H 0.52793 0.54214 0.08984 0.0
H93 H 0.5768 0.53787 0.09864 0.0
H94 H 0.59012 0.47528 0.15659 0.0
H95 H 0.53743 0.52954 0.1789 0.0
C96 C 0.52697 0.61186 0.11589 0.0
C97 C 0.52333 0.58693 0.097 0.0
C98 C 0.53795 0.61169 0.14238 0.0
C99 C 0.54637 0.58659 0.14989 0.0
C100 C 0.54378 0.56164 0.13082 0.0
C101 C 0.5313 0.56165 0.10457 0.0
C102 C 0.55499 0.53629 0.13776 0.0
C103 C 0.57194 0.52681 0.11849 0.0
C104 C 0.58378 0.50398 0.12492 0.0
C105 C 0.5788 0.49085 0.15096 0.0
C106 C 0.56249 0.50012 0.17062 0.0
C107 C 0.55025 0.52255 0.1638 0.0
Zn108 Zn 0.72575 0.50666 0.37621 0.0
Zn109 Zn 0.6886 0.43865 0.38111 0.0
O110 O 0.73965 0.45079 0.37613 0.0
O111 O 0.77066 0.50708 0.37351 0.0
O112 O 0.66592 0.38726 0.38745 0.0
O113 O 0.70877 0.51406 0.41141 0.0
O114 O 0.67753 0.45783 0.41536 0.0
C115 C 0.7689 0.47807 0.37361 0.0
C116 C 0.67192 0.47266 0.33509 0.0
O117 O 0.66462 0.44518 0.34754 0.0
O118 O 0.69726 0.50122 0.34299 0.0
C119 C 0.64626 0.36239 0.37156 0.0
O120 O 0.63691 0.36886 0.34814 0.0
C121 C 0.68708 0.48816 0.42423 0.0
Zn122 Zn 0.24878 0.71468 0.53524 0.0
Zn123 Zn 0.28597 0.68229 0.5409 0.0
O124 O 0.32252 0.73389 0.53678 0.0
O125 O 0.29267 0.76078 0.5343 0.0
O126 O 0.31478 0.65949 0.54733 0.0
O127 O 0.22514 0.69582 0.57038 0.0
O128 O 0.25409 0.66806 0.57374 0.0
C129 C 0.32148 0.76168 0.53471 0.0
C130 C 0.23569 0.66294 0.4934 0.0
O131 O 0.25808 0.65891 0.50652 0.0
O132 O 0.22804 0.68532 0.50116 0.0
C133 C 0.34088 0.66612 0.53315 0.0
O134 O 0.3493 0.68822 0.51358 0.0
C135 C 0.23158 0.67505 0.58271 0.0
Zn136 Zn 0.56233 0.23507 0.70976 0.0
Zn137 Zn 0.63192 0.27438 0.71461 0.0
O138 O 0.61534 0.31001 0.71252 0.0
O139 O 0.55854 0.27802 0.71026 0.0
O140 O 0.68418 0.30299 0.71868 0.0
O141 O 0.56125 0.21033 0.74364 0.0
O142 O 0.61772 0.24405 0.74826 0.0
C143 C 0.58554 0.30743 0.711 0.0
C144 C 0.59817 0.22473 0.66623 0.0
O145 O 0.625 0.24663 0.67952 0.0
O146 O 0.56831 0.21622 0.6746 0.0
C147 C 0.70342 0.32246 0.70029 0.0
O148 O 0.68904 0.325 0.67782 0.0
C149 C 0.58921 0.21944 0.75658 0.0
Zn150 Zn 0.36873 0.57502 0.87654 0.0
Zn151 Zn 0.40224 0.64367 0.88033 0.0
O152 O 0.35048 0.63035 0.87655 0.0
O153 O 0.32322 0.57373 0.8782 0.0
O154 O 0.42882 0.69556 0.88616 0.0
O155 O 0.39141 0.57101 0.91014 0.0
O156 O 0.41625 0.62732 0.91466 0.0
C157 C 0.32236 0.60144 0.87696 0.0
C158 C 0.41506 0.60786 0.83278 0.0
O159 O 0.42255 0.63544 0.84583 0.0
O160 O 0.3919 0.57903 0.84121 0.0
C161 C 0.43439 0.71818 0.86863 0.0
O162 O 0.42151 0.70828 0.84409 0.0
C163 C 0.41097 0.59844 0.92331 0.0
Zn164 Zn 0.84328 0.49231 0.0427 0.0
Zn165 Zn 0.80262 0.42351 0.03694 0.0
O166 O 0.76705 0.4393 0.04451 0.0
O167 O 0.80087 0.4949 0.05234 0.0
O168 O 0.77428 0.37213 0.02933 0.0
O169 O 0.85811 0.49722 0.00426 0.0
O170 O 0.82946 0.4406 0.00162 0.0
C171 C 0.77085 0.46867 0.05083 0.0
C172 C 0.8608 0.4536 0.07943 0.0
O173 O 0.83364 0.42783 0.06945 0.0
O174 O 0.87103 0.48357 0.07081 0.0
C175 C 0.76213 0.34863 0.04683 0.0
O176 O 0.76652 0.35727 0.07256 0.0
C177 C 0.84939 0.46964 -0.00883 0.0
Zn178 Zn 0.38175 0.83062 0.20323 0.0
Zn179 Zn 0.41721 0.79656 0.20384 0.0
O180 O 0.36564 0.75964 0.20692 0.0
O181 O 0.33583 0.78637 0.20312 0.0
O182 O 0.43985 0.76711 0.20339 0.0
O183 O 0.4048 0.85283 0.16875 0.0
O184 O 0.43215 0.8233 0.1684 0.0
C185 C 0.33666 0.75878 0.20581 0.0
C186 C 0.43105 0.85026 0.24779 0.0
O187 O 0.43847 0.829 0.23679 0.0
O188 O 0.40685 0.85413 0.23804 0.0
C189 C 0.47174 0.77771 0.20805 0.0
O190 O 0.49277 0.81048 0.21368 0.0
C191 C 0.42572 0.84534 0.1578 0.0
H192 H 0.17549 0.55208 0.24823 0.0
H193 H 0.13506 0.61989 0.26338 0.0
H194 H 0.22404 0.59773 0.22433 0.0
H195 H 0.18422 0.66625 0.24092 0.0
H196 H 0.27086 0.74426 0.19314 0.0
H197 H 0.21684 0.69216 0.20289 0.0
H198 H 0.2748 0.64783 0.23757 0.0
H199 H 0.32856 0.69916 0.22657 0.0
C200 C 0.17672 0.57663 0.2458 0.0
C201 C 0.15162 0.58261 0.25725 0.0
C202 C 0.20471 0.60295 0.2325 0.0
C203 C 0.20851 0.636 0.23098 0.0
C204 C 0.18212 0.64117 0.24127 0.0
C205 C 0.1539 0.61466 0.25419 0.0
C206 C 0.27199 0.72314 0.2025 0.0
C207 C 0.30399 0.72594 0.2093 0.0
C208 C 0.24099 0.69329 0.20823 0.0
C209 C 0.24123 0.66573 0.2213 0.0
C210 C 0.27336 0.66815 0.22713 0.0
C211 C 0.30434 0.69777 0.22101 0.0
H212 H 0.65484 0.18497 0.42635 0.0
H213 H 0.5454 0.14533 0.41459 0.0
H214 H 0.66704 0.2389 0.4057 0.0
H215 H 0.55748 0.19973 0.39405 0.0
H216 H 0.60029 0.30185 0.34516 0.0
H217 H 0.58651 0.24331 0.3565 0.0
H218 H 0.65638 0.28387 0.42538 0.0
H219 H 0.67009 0.34184 0.41424 0.0
C220 C 0.63346 0.1875 0.4185 0.0
C221 C 0.59923 0.16109 0.42194 0.0
C222 C 0.64038 0.21847 0.40698 0.0
C223 C 0.6132 0.22384 0.39878 0.0
C224 C 0.57896 0.19634 0.40017 0.0
C225 C 0.57201 0.16516 0.41175 0.0
C226 C 0.61263 0.2982 0.36275 0.0
C227 C 0.63638 0.32661 0.37874 0.0
C228 C 0.60468 0.26468 0.36923 0.0
C229 C 0.62073 0.25901 0.39159 0.0
C230 C 0.6441 0.2874 0.40769 0.0
C231 C 0.65173 0.32068 0.40142 0.0
H232 H 0.43066 0.54223 0.58898 0.0
H233 H 0.51221 0.64826 0.59086 0.0
H234 H 0.39251 0.55845 0.56516 0.0
H235 H 0.4745 0.66464 0.56709 0.0
H236 H 0.40344 0.68205 0.51211 0.0
H237 H 0.441 0.65923 0.52496 0.0
H238 H 0.36507 0.59213 0.58145 0.0
H239 H 0.32746 0.6148 0.56861 0.0
C240 C 0.44071 0.56879 0.58342 0.0
C241 C 0.47434 0.59401 0.5914 0.0
C242 C 0.41885 0.57815 0.57011 0.0
C243 C 0.43042 0.61287 0.5644 0.0
C244 C 0.46488 0.63767 0.57092 0.0
C245 C 0.48652 0.62835 0.58448 0.0
C246 C 0.39457 0.66217 0.52707 0.0
C247 C 0.36255 0.65047 0.5395 0.0
C248 C 0.41614 0.64915 0.53445 0.0
C249 C 0.40603 0.62388 0.55422 0.0
C250 C 0.37345 0.61127 0.56591 0.0
C251 C 0.35202 0.6245 0.55872 0.0
H252 H 0.91679 0.39824 0.75236 0.0
H253 H 0.91155 0.48742 0.72813 0.0
H254 H 0.85961 0.36075 0.73187 0.0
H255 H 0.85419 0.45021 0.70786 0.0
H256 H 0.75175 0.3716 0.66779 0.0
H257 H 0.81448 0.40489 0.67519 0.0
H258 H 0.80402 0.35077 0.74904 0.0
H259 H 0.74167 0.3175 0.74162 0.0
C260 C 0.90404 0.40973 0.74145 0.0
C261 C 0.91865 0.44561 0.74138 0.0
C262 C 0.87108 0.38835 0.73014 0.0
C263 C 0.85205 0.40249 0.71869 0.0
C264 C 0.86817 0.43845 0.71638 0.0
C265 C 0.90114 0.45983 0.72777 0.0
C266 C 0.76289 0.36665 0.68551 0.0
C267 C 0.74162 0.34199 0.7042 0.0
C268 C 0.79883 0.38575 0.68973 0.0
C269 C 0.81433 0.38035 0.71259 0.0
C270 C 0.79307 0.35518 0.73094 0.0
C271 C 0.7572 0.33631 0.72684 0.0
H272 H 0.50638 0.93346 0.90444 0.0
H273 H 0.58311 0.915 0.94188 0.0
H274 H 0.48014 0.87686 0.88188 0.0
H275 H 0.55765 0.8589 0.91902 0.0
H276 H 0.46923 0.74666 0.91607 0.0
H277 H 0.50355 0.80718 0.92868 0.0
H278 H 0.48295 0.83503 0.85042 0.0
H279 H 0.44801 0.77397 0.83777 0.0
C280 C 0.51855 0.91791 0.9068 0.0
C281 C 0.54679 0.92851 0.92474 0.0
C282 C 0.50344 0.88541 0.89404 0.0
C283 C 0.51635 0.86302 0.89911 0.0
C284 C 0.54659 0.87516 0.91515 0.0
C285 C 0.56151 0.90746 0.92794 0.0
C286 C 0.47204 0.76558 0.90144 0.0
C287 C 0.45574 0.75535 0.87591 0.0
C288 C 0.49206 0.80041 0.90859 0.0
C289 C 0.49637 0.82608 0.89045 0.0
C290 C 0.48012 0.81593 0.86487 0.0
C291 C 0.46016 0.78094 0.85763 0.0
H292 H 0.58103 0.44238 0.11571 0.0
H293 H 0.63469 0.5485 0.09152 0.0
H294 H 0.62398 0.43308 0.09355 0.0
H295 H 0.6764 0.53863 0.06772 0.0
H296 H 0.77167 0.52562 0.07121 0.0
H297 H 0.72312 0.5326 0.08305 0.0
H298 H 0.65241 0.42859 0.05508 0.0
H299 H 0.70158 0.42116 0.04407 0.0
C300 C 0.60158 0.46354 0.10509 0.0
C301 C 0.60483 0.4964 0.10594 0.0
C302 C 0.62606 0.45809 0.09208 0.0
C303 C 0.6542 0.48528 0.07927 0.0
C304 C 0.65562 0.51732 0.07802 0.0
C305 C 0.63134 0.52288 0.09133 0.0
C306 C 0.74581 0.50421 0.0674 0.0
C307 C 0.74058 0.47272 0.05683 0.0
C308 C 0.71781 0.50836 0.07394 0.0
C309 C 0.68365 0.48128 0.06989 0.0
C310 C 0.67833 0.44993 0.05875 0.0
C311 C 0.7065 0.44566 0.05238 0.0
H312 H 0.45014 0.96411 0.47505 0.0
H313 H 0.52328 0.92909 0.48659 0.0
H314 H 0.4062 0.91367 0.49789 0.0
H315 H 0.48024 0.87943 0.51104 0.0
H316 H 0.38224 0.77254 0.5135 0.0
H317 H 0.43136 0.82718 0.50077 0.0
H318 H 0.38279 0.88092 0.53559 0.0
H319 H 0.33284 0.82598 0.54675 0.0
C320 C 0.45707 0.94614 0.48347 0.0
C321 C 0.48994 0.95038 0.47927 0.0
C322 C 0.43195 0.91715 0.49664 0.0
C323 C 0.43934 0.89197 0.50622 0.0
C324 C 0.47317 0.89765 0.50343 0.0
C325 C 0.49805 0.92632 0.4898 0.0
C326 C 0.38233 0.79609 0.51874 0.0
C327 C 0.35353 0.79495 0.53082 0.0
C328 C 0.41066 0.8276 0.51158 0.0
C329 C 0.41116 0.8588 0.51684 0.0
C330 C 0.3831 0.85756 0.53049 0.0
C331 C 0.35451 0.82604 0.53711 0.0
H332 H 0.62071 0.49335 0.6415 0.0
H333 H 0.51585 0.45177 0.6682 0.0
H334 H 0.62652 0.45082 0.66701 0.0
H335 H 0.52223 0.41009 0.69543 0.0
H336 H 0.52733 0.30958 0.69727 0.0
H337 H 0.52272 0.35929 0.68535 0.0
H338 H 0.63088 0.42576 0.70648 0.0
H339 H 0.63583 0.37541 0.71712 0.0
C340 C 0.59908 0.47548 0.65339 0.0
C341 C 0.56751 0.47533 0.65228 0.0
C342 C 0.60256 0.45127 0.66839 0.0
C343 C 0.57468 0.42645 0.68308 0.0
C344 C 0.54401 0.42823 0.68384 0.0
C345 C 0.54042 0.45238 0.66852 0.0
C346 C 0.5501 0.33481 0.69973 0.0
C347 C 0.58212 0.33843 0.70774 0.0
C348 C 0.54736 0.36352 0.69311 0.0
C349 C 0.57648 0.39677 0.69465 0.0
C350 C 0.60804 0.40055 0.70441 0.0
C351 C 0.61089 0.37169 0.71067 0.0
H352 H 0.11695 0.50739 0.81778 0.0
H353 H 0.14455 0.61411 0.81728 0.0
H354 H 0.16879 0.52223 0.84461 0.0
H355 H 0.19577 0.62925 0.84534 0.0
H356 H 0.30705 0.64529 0.85023 0.0
H357 H 0.24971 0.6345 0.83689 0.0
H358 H 0.20331 0.54182 0.88372 0.0
H359 H 0.26073 0.55188 0.89577 0.0
C360 C 0.13345 0.53385 0.82449 0.0
C361 C 0.12691 0.55961 0.81562 0.0
C362 C 0.16325 0.54251 0.8399 0.0
C363 C 0.18694 0.57714 0.84695 0.0
C364 C 0.17866 0.60248 0.83981 0.0
C365 C 0.14912 0.59382 0.82408 0.0
C366 C 0.28456 0.62305 0.85811 0.0
C367 C 0.28831 0.59918 0.87368 0.0
C368 C 0.25155 0.61684 0.85057 0.0
C369 C 0.22162 0.58689 0.85885 0.0
C370 C 0.22563 0.5646 0.8763 0.0
C371 C 0.25856 0.57049 0.8834 0.0
H372 H 0.69998 0.157 0.96036 0.0
H373 H 0.61512 0.13278 0.01306 0.0
H374 H 0.73449 0.21258 -0.0165 0.0
H375 H 0.64927 0.18882 0.03604 0.0
H376 H 0.72928 0.2912 0.07807 0.0
H377 H 0.70117 0.23079 0.06316 0.0
H378 H 0.72717 0.26289 -0.01906 0.0
H379 H 0.75529 0.32277 -0.00431 0.0
C380 C 0.68926 0.16317 -0.02241 0.0
C381 C 0.6551 0.14066 -0.01489 0.0
C382 C 0.70875 0.19515 -0.00941 0.0
C383 C 0.69435 0.20546 0.01121 0.0
C384 C 0.66117 0.18166 0.02028 0.0
C385 C 0.64166 0.1495 0.00727 0.0
C386 C 0.72904 0.28531 0.05682 0.0
C387 C 0.74456 0.31188 0.03808 0.0
C388 C 0.7129 0.2507 0.0483 0.0
C389 C 0.71228 0.24198 0.02091 0.0
C390 C 0.72781 0.26863 0.00227 0.0
C391 C 0.74367 0.30306 0.01071 0.0
H392 H 0.57542 0.68118 0.13954 0.0
H393 H 0.49943 0.59931 0.18736 0.0
H394 H 0.56293 0.72214 0.16211 0.0
H395 H 0.48692 0.64039 0.21038 0.0
H396 H 0.43452 0.70797 0.20026 0.0
H397 H 0.45636 0.66878 0.19211 0.0
H398 H 0.56117 0.75296 0.20257 0.0
H399 H 0.53927 0.79246 0.21046 0.0
C400 C 0.55703 0.67231 0.15572 0.0
C401 C 0.53837 0.63719 0.16176 0.0
C402 C 0.54981 0.69574 0.16867 0.0
C403 C 0.52354 0.68446 0.18778 0.0
C404 C 0.50696 0.64977 0.19545 0.0
C405 C 0.5144 0.62633 0.18258 0.0
C406 C 0.46223 0.71813 0.20113 0.0
C407 C 0.48514 0.75347 0.20568 0.0
C408 C 0.47476 0.69554 0.19674 0.0
C409 C 0.51055 0.70769 0.19668 0.0
C410 C 0.53346 0.74282 0.20228 0.0
C411 C 0.5209 0.76544 0.20683 0.0
H412 H 0.90507 0.41716 0.30429 0.0
H413 H 0.97573 0.52027 0.33395 0.0
H414 H 0.85819 0.41776 0.32804 0.0
H415 H 0.92945 0.51986 0.35951 0.0
H416 H 0.83206 0.52987 0.35906 0.0
H417 H 0.8824 0.52613 0.34695 0.0
H418 H 0.82896 0.41829 0.3668 0.0
H419 H 0.77761 0.42181 0.37781 0.0
C420 C 0.91079 0.43969 0.31641 0.0
C421 C 0.94405 0.46897 0.31663 0.0
C422 C 0.88391 0.43987 0.33039 0.0
C423 C 0.88972 0.46916 0.34534 0.0
C424 C 0.92373 0.4972 0.34758 0.0
C425 C 0.95052 0.49723 0.33325 0.0
C426 C 0.83106 0.50539 0.36114 0.0
C427 C 0.80062 0.47605 0.36914 0.0
C428 C 0.86021 0.50329 0.35442 0.0
C429 C 0.85997 0.47188 0.35583 0.0
C430 C 0.82997 0.4428 0.36502 0.0
C431 C 0.80055 0.44482 0.37146 0.0
H432 H 0.08517 0.5464 0.36685 0.0
H433 H 0.178 0.54645 0.34309 0.0
H434 H 0.11178 0.57086 0.41066 0.0
H435 H 0.20526 0.57252 0.38646 0.0
H436 H 0.24074 0.60843 0.47327 0.0
H437 H 0.20828 0.57028 0.43524 0.0
H438 H 0.15662 0.62879 0.42215 0.0
H439 H 0.18828 0.66623 0.46026 0.0
C440 C 0.11091 0.55074 0.37121 0.0
C441 C 0.12967 0.54497 0.35133 0.0
C442 C 0.12637 0.56528 0.39619 0.0
C443 C 0.16096 0.57451 0.40177 0.0
C444 C 0.17863 0.56585 0.38281 0.0
C445 C 0.16308 0.55112 0.35787 0.0
C446 C 0.22244 0.6131 0.46226 0.0
C447 C 0.21717 0.64044 0.46978 0.0
C448 C 0.20382 0.59123 0.44049 0.0
C449 C 0.17957 0.59623 0.42584 0.0
C450 C 0.17446 0.62364 0.43338 0.0
C451 C 0.19296 0.64541 0.45508 0.0
H452 H 0.65178 0.17789 0.51051 0.0
H453 H 0.55673 0.0862 0.53078 0.0
H454 H 0.65478 0.20184 0.55541 0.0
H455 H 0.56103 0.10915 0.57607 0.0
H456 H 0.54635 0.18197 0.63153 0.0
H457 H 0.55037 0.15379 0.59103 0.0
H458 H 0.66087 0.20062 0.60403 0.0
H459 H 0.65696 0.22985 0.64464 0.0
C460 C 0.63194 0.16252 0.52472 0.0
C461 C 0.60358 0.13046 0.5168 0.0
C462 C 0.63389 0.17611 0.55057 0.0
C463 C 0.6077 0.15772 0.5691 0.0
C464 C 0.58114 0.12434 0.56199 0.0
C465 C 0.57897 0.11094 0.5361 0.0
C466 C 0.57157 0.1863 0.62588 0.0
C467 C 0.60135 0.2082 0.64134 0.0
C468 C 0.57382 0.16979 0.60275 0.0
C469 C 0.60588 0.1745 0.59448 0.0
C470 C 0.6358 0.19651 0.60985 0.0
C471 C 0.63356 0.21324 0.63308 0.0
H472 H 0.50294 0.55055 0.70204 0.0
H473 H 0.517 0.64926 0.67889 0.0
H474 H 0.48565 0.55842 0.74654 0.0
H475 H 0.49753 0.65609 0.72299 0.0
H476 H 0.4723 0.66302 0.81143 0.0
H477 H 0.50439 0.66258 0.77187 0.0
H478 H 0.43203 0.55412 0.75937 0.0
H479 H 0.40079 0.55434 0.79875 0.0
C480 C 0.50314 0.57431 0.70659 0.0
C481 C 0.51072 0.59897 0.68667 0.0
C482 C 0.49269 0.57858 0.73202 0.0
C483 C 0.48922 0.6074 0.73804 0.0
C484 C 0.49973 0.6335 0.71898 0.0
C485 C 0.51054 0.62939 0.69359 0.0
C486 C 0.46334 0.63914 0.80017 0.0
C487 C 0.43403 0.60872 0.80828 0.0
C488 C 0.48172 0.63888 0.77756 0.0
C489 C 0.4711 0.6082 0.76271 0.0
C490 C 0.44157 0.578 0.77075 0.0
C491 C 0.42337 0.57823 0.79323 0.0
H492 H 0.97555 0.53663 0.8481 0.0
H493 H 0.90322 0.42865 0.83302 0.0
H494 H 0.95111 0.53248 0.89245 0.0
H495 H 0.87699 0.4252 0.87607 0.0
H496 H 0.85645 0.41979 0.96508 0.0
H497 H 0.88425 0.42407 0.92233 0.0
H498 H 0.90203 0.52746 0.9135 0.0
H499 H 0.87589 0.52367 0.95699 0.0
C500 C 0.95447 0.51203 0.8542 0.0
C501 C 0.94122 0.48308 0.83685 0.0
C502 C 0.94005 0.50974 0.87949 0.0
C503 C 0.91182 0.47854 0.88788 0.0
C504 C 0.89893 0.44956 0.87058 0.0
C505 C 0.91365 0.45171 0.84558 0.0
C506 C 0.86616 0.44335 0.95391 0.0
C507 C 0.86396 0.47136 0.96433 0.0
C508 C 0.88205 0.44582 0.92932 0.0
C509 C 0.89549 0.47616 0.91433 0.0
C510 C 0.8927 0.50397 0.92467 0.0
C511 C 0.87738 0.5017 0.94949 0.0
H512 H 0.49807 0.97405 0.01677 0.0
H513 H 0.56925 0.93614 0.02606 0.0
H514 H 0.46836 0.94416 0.05724 0.0
H515 H 0.54107 0.90772 0.0675 0.0
H516 H 0.45858 0.82701 0.12041 0.0
H517 H 0.49037 0.85962 0.08145 0.0
H518 H 0.46932 0.94077 0.10375 0.0
H519 H 0.43605 0.9073 0.14152 0.0
C520 C 0.50794 0.96015 0.02808 0.0
C521 C 0.53589 0.9574 0.01856 0.0
C522 C 0.49099 0.94297 0.05128 0.0
C523 C 0.50205 0.92315 0.06566 0.0
C524 C 0.53122 0.92195 0.05667 0.0
C525 C 0.54772 0.9386 0.03319 0.0
C526 C 0.46062 0.85172 0.11679 0.0
C527 C 0.44455 0.86442 0.13384 0.0
C528 C 0.47915 0.87065 0.09463 0.0
C529 C 0.4826 0.90303 0.08937 0.0
C530 C 0.46673 0.91573 0.10671 0.0
C531 C 0.44769 0.89654 0.12849 0.0
H532 H 0.57864 0.54049 0.21612 0.0
H533 H 0.54965 0.43751 0.18915 0.0
H534 H 0.59749 0.52995 0.25937 0.0
H535 H 0.57045 0.42768 0.23191 0.0
H536 H 0.60828 0.42015 0.31698 0.0
H537 H 0.57145 0.4231 0.28114 0.0
H538 H 0.6501 0.52809 0.26633 0.0
H539 H 0.68611 0.52541 0.30181 0.0
C540 C 0.57524 0.51522 0.21968 0.0
C541 C 0.56349 0.49015 0.19894 0.0
C542 C 0.58654 0.50933 0.24436 0.0
C543 C 0.58665 0.47843 0.24868 0.0
C544 C 0.57105 0.45188 0.22916 0.0
C545 C 0.55937 0.45763 0.20457 0.0
C546 C 0.6176 0.44375 0.30595 0.0
C547 C 0.65009 0.47255 0.31232 0.0
C548 C 0.59648 0.4455 0.28555 0.0
C549 C 0.6075 0.47609 0.27129 0.0
C550 C 0.64023 0.5045 0.27746 0.0
C551 C 0.66115 0.50278 0.29766 0.0
H552 H 0.52675 1.0136 0.36812 0.0
H553 H 0.5419 0.93234 0.39896 0.0
H554 H 0.50795 0.98326 0.32478 0.0
H555 H 0.52142 0.90113 0.35608 0.0
H556 H 0.49025 0.85612 0.27071 0.0
H557 H 0.52539 0.89484 0.30777 0.0
H558 H 0.45339 0.93235 0.31418 0.0
H559 H 0.41898 0.89457 0.27719 0.0
C560 C 0.52705 0.98977 0.36542 0.0
C561 C 0.53513 0.97502 0.38711 0.0
C562 C 0.51577 0.9721 0.3407 0.0
C563 C 0.51216 0.93928 0.33726 0.0
C564 C 0.52369 0.92624 0.35806 0.0
C565 C 0.5352 0.94403 0.38271 0.0
C566 C 0.48199 0.87265 0.2801 0.0
C567 C 0.45177 0.87219 0.27102 0.0
C568 C 0.50216 0.89488 0.30125 0.0
C569 C 0.49249 0.91707 0.31368 0.0
C570 C 0.46217 0.91634 0.30462 0.0
C571 C 0.44214 0.89428 0.28357 0.0
H572 H 0.54207 0.46633 0.54812 0.0
H573 H 0.63079 0.56623 0.56492 0.0
H574 H 0.56971 0.46013 0.50793 0.0
H575 H 0.65943 0.55981 0.52546 0.0
H576 H 0.69141 0.5481 0.44138 0.0
H577 H 0.66092 0.55673 0.47803 0.0
H578 H 0.61549 0.44946 0.49823 0.0
H579 H 0.645 0.44049 0.46065 0.0
C580 C 0.56726 0.48724 0.54274 0.0
C581 C 0.58425 0.51695 0.55913 0.0
C582 C 0.58337 0.48352 0.52005 0.0
C583 C 0.61705 0.50922 0.51363 0.0
C584 C 0.63337 0.53963 0.52957 0.0
C585 C 0.61703 0.54346 0.55211 0.0
C586 C 0.67508 0.52633 0.45372 0.0
C587 C 0.67068 0.49356 0.4481 0.0
C588 C 0.65761 0.53135 0.47482 0.0
C589 C 0.63556 0.50381 0.49106 0.0
C590 C 0.63168 0.47113 0.48577 0.0
C591 C 0.64889 0.46602 0.46442 0.0
H592 H 0.07397 0.58843 0.70622 0.0
H593 H 0.14601 0.55351 0.7249 0.0
H594 H 0.10545 0.61442 0.66505 0.0
H595 H 0.17858 0.58111 0.68528 0.0
H596 H 0.22005 0.61393 0.60268 0.0
H597 H 0.18183 0.58139 0.63885 0.0
H598 H 0.15801 0.66266 0.65232 0.0
H599 H 0.19485 0.69424 0.61509 0.0
C600 C 0.09628 0.58603 0.70139 0.0
C601 C 0.10781 0.56939 0.71896 0.0
C602 C 0.11466 0.60134 0.67803 0.0
C603 C 0.14495 0.60036 0.67191 0.0
C604 C 0.15532 0.58225 0.68899 0.0
C605 C 0.13682 0.56672 0.71199 0.0
C606 C 0.2068 0.62491 0.61349 0.0
C607 C 0.21067 0.65676 0.60618 0.0
C608 C 0.18483 0.60626 0.63428 0.0
C609 C 0.16671 0.61931 0.64866 0.0
C610 C 0.1709 0.65138 0.64142 0.0
C611 C 0.1924 0.66974 0.62029 0.0
H612 H 0.59249 0.07465 0.87069 0.0
H613 H 0.58891 0.15375 0.91869 0.0
H614 H 0.58738 0.10193 0.82954 0.0
H615 H 0.5855 0.18148 0.87779 0.0
H616 H 0.63613 0.24163 0.79851 0.0
H617 H 0.63486 0.20936 0.83839 0.0
H618 H 0.54078 0.1212 0.8084 0.0
H619 H 0.54137 0.15359 0.76881 0.0
C620 C 0.59011 0.09745 0.87249 0.0
C621 C 0.5918 0.11242 0.89791 0.0
C622 C 0.58741 0.11311 0.84901 0.0
C623 C 0.58676 0.14406 0.8507 0.0
C624 C 0.58664 0.15797 0.87605 0.0
C625 C 0.58869 0.14211 0.89939 0.0
C626 C 0.61517 0.21541 0.80045 0.0
C627 C 0.58873 0.20022 0.78069 0.0
C628 C 0.61444 0.19702 0.82321 0.0
C629 C 0.58772 0.16291 0.82626 0.0
C630 C 0.56165 0.14744 0.80633 0.0
C631 C 0.56194 0.16607 0.78386 0.0
H632 H 0.54767 0.64051 0.06275 0.0
H633 H 0.46854 0.53418 0.07021 0.0
H634 H 0.52203 0.64317 0.01978 0.0
H635 H 0.44189 0.53692 0.02776 0.0
H636 H 0.41767 0.54452 0.94023 0.0
H637 H 0.44734 0.54138 -0.01948 0.0
H638 H 0.4727 0.64475 0.00351 0.0
H639 H 0.44418 0.64836 0.96245 0.0
C640 C 0.52482 0.61767 0.05503 0.0
C641 C 0.51 0.58714 0.06965 0.0
C642 C 0.50993 0.61924 0.03058 0.0
C643 C 0.47963 0.5904 0.02042 0.0
C644 C 0.46544 0.55953 0.03478 0.0
C645 C 0.48063 0.55788 0.05909 0.0
C646 C 0.42956 0.5666 0.95389 0.0
C647 C 0.4285 0.59669 0.9482 0.0
C648 C 0.44647 0.56473 -0.02292 0.0
C649 C 0.4624 0.59276 -0.00465 0.0
C650 C 0.46126 0.62287 -0.01034 0.0
C651 C 0.44467 0.62488 -0.03376 0.0
H652 H 0.93423 0.40452 0.22732 0.0
H653 H 1.00485 0.511 0.2103 0.0
H654 H 0.9073 0.39639 0.18263 0.0
H655 H 0.977 0.50397 0.16663 0.0
H656 H 0.93046 0.48645 0.08557 0.0
H657 H 0.96408 0.48344 0.12331 0.0
H658 H 0.86924 0.40944 0.1611 0.0
H659 H 0.83614 0.41067 0.12209 0.0
C660 C 0.94426 0.426 0.21375 0.0
C661 C 0.97164 0.45831 0.22206 0.0
C662 C 0.92861 0.42155 0.18829 0.0
C663 C 0.9395 0.44958 0.17092 0.0
C664 C 0.96809 0.48149 0.17899 0.0
C665 C 0.98415 0.48568 0.20414 0.0
C666 C 0.91699 0.46917 0.10183 0.0
C667 C 0.88079 0.44908 0.10119 0.0
C668 C 0.93618 0.46759 0.1236 0.0
C669 C 0.91953 0.44674 0.14573 0.0
C670 C 0.88322 0.42553 0.14443 0.0
C671 C 0.86409 0.42638 0.12219 0.0
loop_
_geom_bond_atom_site_label_1
_geom_bond_atom_site_label_2
_geom_bond_distance
_geom_bond_site_symmetry_2
_ccdc_geom_bond_type
H0 C6 0.930 . S
H1 C9 0.931 . S
H2 C11 0.931 . S
H3 C13 0.930 . S
H4 C15 0.930 . S
H5 C17 0.931 . S
C6 H0 0.930 . S
C6 C7 1.380 . S
C6 C8 1.394 . S
C7 C6 1.380 . S
C7 C11 1.382 . S
C8 C6 1.394 . S
C8 C9 1.400 . S
C9 H1 0.931 . S
C9 C8 1.400 . S
C9 C10 1.375 . S
C10 C9 1.375 . S
C10 C11 1.415 . S
C10 C12 1.501 1_455 S
C11 H2 0.931 . S
C11 C7 1.382 . S
C11 C10 1.415 . S
C12 C10 1.501 1_655 S
C12 C13 1.384 . S
C12 C17 1.408 . S
C13 H3 0.930 . S
C13 C12 1.384 . S
C13 C14 1.389 . S
C14 C13 1.389 . S
C14 C15 1.405 . S
C15 H4 0.930 . S
C15 C14 1.405 . S
C15 C16 1.364 . S
C16 C15 1.364 . S
C16 C17 1.400 . S
C17 H5 0.931 . S
C17 C12 1.408 . S
C17 C16 1.400 . S
H18 C24 0.930 . S
H19 C27 0.931 . S
H20 C29 0.931 . S
H21 C31 0.930 . S
H22 C33 0.930 . S
H23 C35 0.931 . S
C24 H18 0.930 . S
C24 C25 1.380 . S
C24 C26 1.394 . S
C25 C24 1.380 . S
C25 C29 1.382 . S
C26 C24 1.394 . S
C26 C27 1.400 . S
C27 H19 0.931 . S
C27 C26 1.400 . S
C27 C28 1.375 . S
C28 C27 1.375 . S
C28 C29 1.415 . S
C28 C30 1.501 1_545 S
C29 H20 0.931 . S
C29 C25 1.382 . S
C29 C28 1.415 . S
C30 C28 1.501 1_565 S
C30 C31 1.384 . S
C30 C35 1.408 . S
C31 H21 0.930 . S
C31 C30 1.384 . S
C31 C32 1.389 . S
C32 C31 1.389 . S
C32 C33 1.405 . S
C33 H22 0.930 . S
C33 C32 1.405 . S
C33 C34 1.364 . S
C34 C33 1.364 . S
C34 C35 1.400 . S
C35 H23 0.931 . S
C35 C30 1.408 . S
C35 C34 1.400 . S
H36 C42 0.930 . S
H37 C45 0.931 . S
H38 C47 0.931 . S
H39 C49 0.930 . S
H40 C51 0.930 . S
H41 C53 0.931 . S
C42 H36 0.930 . S
C42 C43 1.380 . S
C42 C44 1.394 . S
C43 C42 1.380 . S
C43 C47 1.382 . S
C44 C42 1.394 . S
C44 C45 1.400 . S
C45 H37 0.931 . S
C45 C44 1.400 . S
C45 C46 1.375 . S
C46 C45 1.375 . S
C46 C47 1.415 . S
C46 C48 1.501 . S
C47 H38 0.931 . S
C47 C43 1.382 . S
C47 C46 1.415 . S
C48 C46 1.501 . S
C48 C49 1.384 . S
C48 C53 1.408 . S
C49 H39 0.930 . S
C49 C48 1.384 . S
C49 C50 1.389 . S
C50 C49 1.389 . S
C50 C51 1.405 . S
C51 H40 0.930 . S
C51 C50 1.405 . S
C51 C52 1.364 . S
C52 C51 1.364 . S
C52 C53 1.400 . S
C53 H41 0.931 . S
C53 C48 1.408 . S
C53 C52 1.400 . S
H54 C60 0.930 . S
H55 C63 0.931 . S
H56 C65 0.931 . S
H57 C67 0.930 . S
H58 C69 0.930 . S
H59 C71 0.948 . S
C60 H54 0.930 . S
C60 C61 1.380 . S
C60 C62 1.394 . S
C61 C60 1.380 . S
C61 C65 1.382 . S
C62 C60 1.394 . S
C62 C63 1.400 . S
C63 H55 0.931 . S
C63 C62 1.400 . S
C63 C64 1.375 . S
C64 C63 1.375 . S
C64 C65 1.415 . S
C64 C66 1.501 1_455 S
C65 H56 0.931 . S
C65 C61 1.382 . S
C65 C64 1.415 . S
C66 C64 1.501 1_655 S
C66 C67 1.384 . S
C66 C71 1.408 . S
C67 H57 0.930 . S
C67 C66 1.384 . S
C67 C68 1.389 . S
C68 C67 1.389 . S
C68 C69 1.405 . S
C69 H58 0.930 . S
C69 C68 1.405 . S
C69 C70 1.364 . S
C70 C69 1.364 . S
C70 C71 1.400 . S
C71 H59 0.948 . S
C71 C66 1.408 . S
C71 C70 1.400 . S
H72 C78 0.930 . S
H73 C81 0.931 . S
H74 C83 0.919 1_545 S
H75 C85 0.930 . S
H76 C87 0.930 . S
H77 C89 0.931 . S
C78 H72 0.930 . S
C78 C79 1.380 . S
C78 C80 1.394 1_554 S
C79 C78 1.380 . S
C79 C83 1.382 . S
C80 C78 1.394 1_556 S
C80 C81 1.400 . S
C81 H73 0.931 . S
C81 C80 1.400 . S
C81 C82 1.375 . S
C82 C81 1.375 . S
C82 C83 1.415 1_556 S
C82 C84 1.501 1_565 S
C83 H74 0.919 1_565 S
C83 C79 1.382 . S
C83 C82 1.415 1_554 S
C84 C82 1.501 1_545 S
C84 C85 1.384 1_556 S
C84 C89 1.408 . S
C85 H75 0.930 . S
C85 C84 1.384 1_554 S
C85 C86 1.389 1_554 S
C86 C85 1.389 1_556 S
C86 C87 1.405 . S
C87 H76 0.930 . S
C87 C86 1.405 . S
C87 C88 1.364 . S
C88 C87 1.364 . S
C88 C89 1.400 . S
C89 H77 0.931 . S
C89 C84 1.408 . S
C89 C88 1.400 . S
H90 C96 0.930 . S
H91 C99 0.931 . S
H92 C101 0.931 . S
H93 C103 0.930 . S
H94 C105 0.930 . S
H95 C107 0.931 . S
C96 H90 0.930 . S
C96 C97 1.380 . S
C96 C98 1.394 . S
C97 C96 1.380 . S
C97 C101 1.382 . S
C98 C96 1.394 . S
C98 C99 1.400 . S
C99 H91 0.931 . S
C99 C98 1.400 . S
C99 C100 1.375 . S
C100 C99 1.375 . S
C100 C101 1.415 . S
C100 C102 1.501 . S
C101 H92 0.931 . S
C101 C97 1.382 . S
C101 C100 1.415 . S
C102 C100 1.501 . S
C102 C103 1.384 . S
C102 C107 1.408 . S
C103 H93 0.930 . S
C103 C102 1.384 . S
C103 C104 1.389 . S
C104 C103 1.389 . S
C104 C105 1.405 . S
C105 H94 0.930 . S
C105 C104 1.405 . S
C105 C106 1.364 . S
C106 C105 1.364 . S
C106 C107 1.400 . S
C107 H95 0.931 . S
C107 C102 1.408 . S
C107 C106 1.400 . S
Zn108 O111 2.031 . S
Zn108 O113 2.049 . S
Zn108 O118 2.067 . S
Zn109 O110 1.962 . S
Zn109 O112 1.986 . S
Zn109 O114 1.996 . S
Zn109 O117 1.943 . S
O110 Zn109 1.962 . S
O110 C115 1.254 . S
O111 Zn108 2.031 . S
O111 C115 1.269 . S
O112 Zn109 1.986 . S
O112 C119 1.262 . S
O113 Zn108 2.049 . S
O113 C121 1.260 . S
O114 Zn109 1.996 . S
O114 C121 1.257 . S
C115 O110 1.254 . S
C115 O111 1.269 . S
C116 O117 1.249 . S
C116 O118 1.270 . S
O117 Zn109 1.943 . S
O117 C116 1.249 . S
O118 Zn108 2.067 . S
O118 C116 1.270 . S
C119 O112 1.262 . S
C119 O120 1.232 . S
O120 C119 1.232 . S
C121 O113 1.260 . S
C121 O114 1.257 . S
Zn122 O125 2.031 . S
Zn122 O127 2.049 . S
Zn122 O132 2.067 . S
Zn123 O124 1.962 . S
Zn123 O126 1.986 . S
Zn123 O128 1.996 . S
Zn123 O131 1.943 . S
O124 Zn123 1.962 . S
O124 C129 1.254 . S
O125 Zn122 2.031 . S
O125 C129 1.269 . S
O126 Zn123 1.986 . S
O126 C133 1.262 . S
O127 Zn122 2.049 . S
O127 C135 1.260 . S
O128 Zn123 1.996 . S
O128 C135 1.257 . S
C129 O124 1.254 . S
C129 O125 1.269 . S
C130 O131 1.249 . S
C130 O132 1.270 . S
O131 Zn123 1.943 . S
O131 C130 1.249 . S
O132 Zn122 2.067 . S
O132 C130 1.270 . S
C133 O126 1.262 . S
C133 O134 1.232 . S
O134 C133 1.232 . S
C135 O127 1.260 . S
C135 O128 1.257 . S
Zn136 O139 2.031 . S
Zn136 O141 2.049 . S
Zn136 O146 2.067 . S
Zn137 O138 1.962 . S
Zn137 O140 1.986 . S
Zn137 O142 1.996 . S
Zn137 O145 1.943 . S
O138 Zn137 1.962 . S
O138 C143 1.254 . S
O139 Zn136 2.031 . S
O139 C143 1.269 . S
O140 Zn137 1.986 . S
O140 C147 1.262 . S
O141 Zn136 2.049 . S
O141 C149 1.260 . S
O142 Zn137 1.996 . S
O142 C149 1.257 . S
C143 O138 1.254 . S
C143 O139 1.269 . S
C144 O145 1.249 . S
C144 O146 1.270 . S
O145 Zn137 1.943 . S
O145 C144 1.249 . S
O146 Zn136 2.067 . S
O146 C144 1.270 . S
C147 O140 1.262 . S
C147 O148 1.232 . S
O148 C147 1.232 . S
C149 O141 1.260 . S
C149 O142 1.257 . S
Zn150 O153 2.031 . S
Zn150 O155 2.049 . S
Zn150 O160 2.067 . S
Zn151 O152 1.962 . S
Zn151 O154 1.986 . S
Zn151 O156 1.996 . S
Zn151 O159 1.943 . S
O152 Zn151 1.962 . S
O152 C157 1.254 . S
O153 Zn150 2.031 . S
O153 C157 1.269 . S
O154 Zn151 1.986 . S
O154 C161 1.262 . S
O155 Zn150 2.049 . S
O155 C163 1.260 . S
O156 Zn151 1.996 . S
O156 C163 1.257 . S
C157 O152 1.254 . S
C157 O153 1.269 . S
C158 O159 1.249 . S
C158 O160 1.270 . S
O159 Zn151 1.943 . S
O159 C158 1.249 . S
O160 Zn150 2.067 . S
O160 C158 1.270 . S
C161 O154 1.262 . S
C161 O162 1.232 . S
O162 C161 1.232 . S
C163 O155 1.260 . S
C163 O156 1.257 . S
Zn164 O167 2.031 . S
Zn164 O169 2.049 . S
Zn164 O174 2.067 . S
Zn165 O166 1.962 . S
Zn165 O168 1.986 . S
Zn165 O170 1.996 . S
Zn165 O173 1.943 . S
O166 Zn165 1.962 . S
O166 C171 1.254 . S
O167 Zn164 2.031 . S
O167 C171 1.269 . S
O168 Zn165 1.986 . S
O168 C175 1.262 . S
O169 Zn164 2.049 . S
O169 C177 1.260 . S
O170 Zn165 1.996 . S
O170 C177 1.257 . S
C171 O166 1.254 . S
C171 O167 1.269 . S
C172 O173 1.249 . S
C172 O174 1.270 . S
O173 Zn165 1.943 . S
O173 C172 1.249 . S
O174 Zn164 2.067 . S
O174 C172 1.270 . S
C175 O168 1.262 . S
C175 O176 1.232 . S
O176 C175 1.232 . S
C177 O169 1.260 . S
C177 O170 1.257 . S
Zn178 O181 2.031 . S
Zn178 O183 2.049 . S
Zn178 O188 2.067 . S
Zn179 O180 1.962 . S
Zn179 O182 1.986 . S
Zn179 O184 1.996 . S
Zn179 O187 1.943 . S
O180 Zn179 1.962 . S
O180 C185 1.254 . S
O181 Zn178 2.031 . S
O181 C185 1.269 . S
O182 Zn179 1.986 . S
O182 C189 1.262 . S
O183 Zn178 2.049 . S
O183 C191 1.260 . S
O184 Zn179 1.996 . S
O184 C191 1.257 . S
C185 O180 1.254 . S
C185 O181 1.269 . S
C186 O187 1.249 . S
C186 O188 1.270 . S
O187 Zn179 1.943 . S
O187 C186 1.249 . S
O188 Zn178 2.067 . S
O188 C186 1.270 . S
C189 O182 1.262 . S
C189 O190 1.232 . S
O190 C189 1.232 . S
C191 O183 1.260 . S
C191 O184 1.257 . S
H192 C200 0.950 . S
H193 C205 0.950 . S
H194 C202 0.950 . S
H195 C204 0.950 . S
H196 C206 0.950 . S
H197 C208 0.950 . S
H198 C210 0.950 . S
H199 C211 0.950 . S
C200 H192 0.950 . S
C200 C201 1.386 . S
C200 C202 1.391 . S
C201 C200 1.386 . S
C201 C205 1.393 . S
C202 H194 0.950 . S
C202 C200 1.391 . S
C202 C203 1.400 . S
C203 C202 1.400 . S
C203 C204 1.398 . S
C203 C209 1.491 . S
C204 H195 0.950 . S
C204 C203 1.398 . S
C204 C205 1.391 . S
C205 H193 0.950 . S
C205 C201 1.393 . S
C205 C204 1.391 . S
C206 H196 0.950 . S
C206 C207 1.386 . S
C206 C208 1.391 . S
C207 C206 1.386 . S
C207 C211 1.393 . S
C208 H197 0.950 . S
C208 C206 1.391 . S
C208 C209 1.400 . S
C209 C203 1.491 . S
C209 C208 1.400 . S
C209 C210 1.398 . S
C210 H198 0.950 . S
C210 C209 1.398 . S
C210 C211 1.391 . S
C211 H199 0.950 . S
C211 C207 1.393 . S
C211 C210 1.391 . S
H212 C220 0.950 . S
H213 C225 0.950 . S
H214 C222 0.950 . S
H215 C224 0.950 . S
H216 C226 0.950 . S
H217 C228 0.950 . S
H218 C230 0.950 . S
H219 C231 0.950 . S
C220 H212 0.950 . S
C220 C221 1.386 . S
C220 C222 1.391 . S
C221 C220 1.386 . S
C221 C225 1.393 . S
C222 H214 0.950 . S
C222 C220 1.391 . S
C222 C223 1.400 . S
C223 C222 1.400 . S
C223 C224 1.398 . S
C223 C229 1.491 . S
C224 H215 0.950 . S
C224 C223 1.398 . S
C224 C225 1.391 . S
C225 H213 0.950 . S
C225 C221 1.393 . S
C225 C224 1.391 . S
C226 H216 0.950 . S
C226 C227 1.386 . S
C226 C228 1.391 . S
C227 C226 1.386 . S
C227 C231 1.393 . S
C228 H217 0.950 . S
C228 C226 1.391 . S
C228 C229 1.400 . S
C229 C223 1.491 . S
C229 C228 1.400 . S
C229 C230 1.398 . S
C230 H218 0.950 . S
C230 C229 1.398 . S
C230 C231 1.391 . S
C231 H219 0.950 . S
C231 C227 1.393 . S
C231 C230 1.391 . S
H232 C240 0.950 . S
H233 C245 0.950 . S
H234 C242 0.950 . S
H235 C244 0.950 . S
H236 C246 0.950 . S
H237 C248 0.950 . S
H238 C250 0.950 . S
H239 C251 0.950 . S
C240 H232 0.950 . S
C240 C241 1.386 . S
C240 C242 1.391 . S
C241 C240 1.386 . S
C241 C245 1.393 . S
C242 H234 0.950 . S
C242 C240 1.391 . S
C242 C243 1.400 . S
C243 C242 1.400 . S
C243 C244 1.398 . S
C243 C249 1.491 . S
C244 H235 0.950 . S
C244 C243 1.398 . S
C244 C245 1.391 . S
C245 H233 0.950 . S
C245 C241 1.393 . S
C245 C244 1.391 . S
C246 H236 0.950 . S
C246 C247 1.386 . S
C246 C248 1.391 . S
C247 C246 1.386 . S
C247 C251 1.393 . S
C248 H237 0.950 . S
C248 C246 1.391 . S
C248 C249 1.400 . S
C249 C243 1.491 . S
C249 C248 1.400 . S
C249 C250 1.398 . S
C250 H238 0.950 . S
C250 C249 1.398 . S
C250 C251 1.391 . S
C251 H239 0.950 . S
C251 C247 1.393 . S
C251 C250 1.391 . S
H252 C260 0.950 . S
H253 C265 0.950 . S
H254 C262 0.950 . S
H255 C264 0.950 . S
H256 C266 0.950 . S
H257 C268 0.950 . S
H258 C270 0.950 . S
H259 C271 0.950 . S
C260 H252 0.950 . S
C260 C261 1.386 . S
C260 C262 1.391 . S
C261 C260 1.386 . S
C261 C265 1.393 . S
C262 H254 0.950 . S
C262 C260 1.391 . S
C262 C263 1.400 . S
C263 C262 1.400 . S
C263 C264 1.398 . S
C263 C269 1.491 . S
C264 H255 0.950 . S
C264 C263 1.398 . S
C264 C265 1.391 . S
C265 H253 0.950 . S
C265 C261 1.393 . S
C265 C264 1.391 . S
C266 H256 0.950 . S
C266 C267 1.386 . S
C266 C268 1.391 . S
C267 C266 1.386 . S
C267 C271 1.393 . S
C268 H257 0.950 . S
C268 C266 1.391 . S
C268 C269 1.400 . S
C269 C263 1.491 . S
C269 C268 1.400 . S
C269 C270 1.398 . S
C270 H258 0.950 . S
C270 C269 1.398 . S
C270 C271 1.391 . S
C271 H259 0.950 . S
C271 C267 1.393 . S
C271 C270 1.391 . S
H272 C280 0.950 . S
H273 C285 0.950 1_554 S
H274 C282 0.950 . S
H275 C284 0.950 . S
H276 C286 0.950 . S
H277 C288 0.950 . S
H278 C290 0.950 . S
H279 C291 0.950 . S
C280 H272 0.950 . S
C280 C281 1.386 . S
C280 C282 1.391 . S
C281 C280 1.386 . S
C281 C285 1.393 . S
C282 H274 0.950 . S
C282 C280 1.391 . S
C282 C283 1.400 . S
C283 C282 1.400 . S
C283 C284 1.398 . S
C283 C289 1.491 . S
C284 H275 0.950 . S
C284 C283 1.398 . S
C284 C285 1.391 . S
C285 H273 0.950 1_556 S
C285 C281 1.393 . S
C285 C284 1.391 . S
C286 H276 0.950 . S
C286 C287 1.386 . S
C286 C288 1.391 . S
C287 C286 1.386 . S
C287 C291 1.393 . S
C288 H277 0.950 . S
C288 C286 1.391 . S
C288 C289 1.400 . S
C289 C283 1.491 . S
C289 C288 1.400 . S
C289 C290 1.398 . S
C290 H278 0.950 . S
C290 C289 1.398 . S
C290 C291 1.391 . S
C291 H279 0.950 . S
C291 C287 1.393 . S
C291 C290 1.391 . S
H292 C300 0.950 . S
H293 C305 0.950 . S
H294 C302 0.950 . S
H295 C304 0.950 . S
H296 C306 0.950 . S
H297 C308 0.950 . S
H298 C310 0.950 . S
H299 C311 0.950 . S
C300 H292 0.950 . S
C300 C301 1.386 . S
C300 C302 1.391 . S
C301 C300 1.386 . S
C301 C305 1.393 . S
C302 H294 0.950 . S
C302 C300 1.391 . S
C302 C303 1.400 . S
C303 C302 1.400 . S
C303 C304 1.398 . S
C303 C309 1.491 . S
C304 H295 0.950 . S
C304 C303 1.398 . S
C304 C305 1.391 . S
C305 H293 0.950 . S
C305 C301 1.393 . S
C305 C304 1.391 . S
C306 H296 0.950 . S
C306 C307 1.386 . S
C306 C308 1.391 . S
C307 C306 1.386 . S
C307 C311 1.393 . S
C308 H297 0.950 . S
C308 C306 1.391 . S
C308 C309 1.400 . S
C309 C303 1.491 . S
C309 C308 1.400 . S
C309 C310 1.398 . S
C310 H298 0.950 . S
C310 C309 1.398 . S
C310 C311 1.391 . S
C311 H299 0.950 . S
C311 C307 1.393 . S
C311 C310 1.391 . S
H312 C320 0.950 . S
H313 C325 0.950 . S
H314 C322 0.950 . S
H315 C324 0.950 . S
H316 C326 0.950 . S
H317 C328 0.950 . S
H318 C330 0.950 . S
H319 C331 0.950 . S
C320 H312 0.950 . S
C320 C321 1.386 . S
C320 C322 1.391 . S
C321 C320 1.386 . S
C321 C325 1.393 . S
C322 H314 0.950 . S
C322 C320 1.391 . S
C322 C323 1.400 . S
C323 C322 1.400 . S
C323 C324 1.398 . S
C323 C329 1.491 . S
C324 H315 0.950 . S
C324 C323 1.398 . S
C324 C325 1.391 . S
C325 H313 0.950 . S
C325 C321 1.393 . S
C325 C324 1.391 . S
C326 H316 0.950 . S
C326 C327 1.386 . S
C326 C328 1.391 . S
C327 C326 1.386 . S
C327 C331 1.393 . S
C328 H317 0.950 . S
C328 C326 1.391 . S
C328 C329 1.400 . S
C329 C323 1.491 . S
C329 C328 1.400 . S
C329 C330 1.398 . S
C330 H318 0.950 . S
C330 C329 1.398 . S
C330 C331 1.391 . S
C331 H319 0.950 . S
C331 C327 1.393 . S
C331 C330 1.391 . S
H332 C340 0.950 . S
H333 C345 0.950 . S
H334 C342 0.950 . S
H335 C344 0.950 . S
H336 C346 0.950 . S
H337 C348 0.950 . S
H338 C350 0.950 . S
H339 C351 0.950 . S
C340 H332 0.950 . S
C340 C341 1.386 . S
C340 C342 1.391 . S
C341 C340 1.386 . S
C341 C345 1.393 . S
C342 H334 0.950 . S
C342 C340 1.391 . S
C342 C343 1.400 . S
C343 C342 1.400 . S
C343 C344 1.398 . S
C343 C349 1.491 . S
C344 H335 0.950 . S
C344 C343 1.398 . S
C344 C345 1.391 . S
C345 H333 0.950 . S
C345 C341 1.393 . S
C345 C344 1.391 . S
C346 H336 0.950 . S
C346 C347 1.386 . S
C346 C348 1.391 . S
C347 C346 1.386 . S
C347 C351 1.393 . S
C348 H337 0.950 . S
C348 C346 1.391 . S
C348 C349 1.400 . S
C349 C343 1.491 . S
C349 C348 1.400 . S
C349 C350 1.398 . S
C350 H338 0.950 . S
C350 C349 1.398 . S
C350 C351 1.391 . S
C351 H339 0.950 . S
C351 C347 1.393 . S
C351 C350 1.391 . S
H352 C360 0.950 . S
H353 C365 0.950 . S
H354 C362 0.950 . S
H355 C364 0.950 . S
H356 C366 0.950 . S
H357 C368 0.950 . S
H358 C370 0.950 . S
H359 C371 0.950 . S
C360 H352 0.950 . S
C360 C361 1.386 . S
C360 C362 1.391 . S
C361 C360 1.386 . S
C361 C365 1.393 . S
C362 H354 0.950 . S
C362 C360 1.391 . S
C362 C363 1.400 . S
C363 C362 1.400 . S
C363 C364 1.398 . S
C363 C369 1.491 . S
C364 H355 0.950 . S
C364 C363 1.398 . S
C364 C365 1.391 . S
C365 H353 0.950 . S
C365 C361 1.393 . S
C365 C364 1.391 . S
C366 H356 0.950 . S
C366 C367 1.386 . S
C366 C368 1.391 . S
C367 C366 1.386 . S
C367 C371 1.393 . S
C368 H357 0.950 . S
C368 C366 1.391 . S
C368 C369 1.400 . S
C369 C363 1.491 . S
C369 C368 1.400 . S
C369 C370 1.398 . S
C370 H358 0.950 . S
C370 C369 1.398 . S
C370 C371 1.391 . S
C371 H359 0.950 . S
C371 C367 1.393 . S
C371 C370 1.391 . S
H372 C380 0.956 . S
H373 C385 0.950 . S
H374 C382 0.950 . S
H375 C384 0.950 . S
H376 C386 0.950 . S
H377 C388 0.950 . S
H378 C390 0.950 . S
H379 C391 0.950 . S
C380 H372 0.956 . S
C380 C381 1.386 . S
C380 C382 1.391 . S
C381 C380 1.386 . S
C381 C385 1.393 . S
C382 H374 0.950 . S
C382 C380 1.391 . S
C382 C383 1.400 . S
C383 C382 1.400 . S
C383 C384 1.398 . S
C383 C389 1.491 . S
C384 H375 0.950 . S
C384 C383 1.398 . S
C384 C385 1.391 . S
C385 H373 0.950 . S
C385 C381 1.393 . S
C385 C384 1.391 . S
C386 H376 0.950 . S
C386 C387 1.386 . S
C386 C388 1.391 . S
C387 C386 1.386 . S
C387 C391 1.393 . S
C388 H377 0.950 . S
C388 C386 1.391 . S
C388 C389 1.400 . S
C389 C383 1.491 . S
C389 C388 1.400 . S
C389 C390 1.398 . S
C390 H378 0.950 . S
C390 C389 1.398 . S
C390 C391 1.391 . S
C391 H379 0.950 . S
C391 C387 1.393 . S
C391 C390 1.391 . S
H392 C400 0.950 . S
H393 C405 0.950 . S
H394 C402 0.950 . S
H395 C404 0.950 . S
H396 C406 0.950 . S
H397 C408 0.950 . S
H398 C410 0.950 . S
H399 C411 0.950 . S
C400 H392 0.950 . S
C400 C401 1.386 . S
C400 C402 1.391 . S
C401 C400 1.386 . S
C401 C405 1.393 . S
C402 H394 0.950 . S
C402 C400 1.391 . S
C402 C403 1.400 . S
C403 C402 1.400 . S
C403 C404 1.398 . S
C403 C409 1.491 . S
C404 H395 0.950 . S
C404 C403 1.398 . S
C404 C405 1.391 . S
C405 H393 0.950 . S
C405 C401 1.393 . S
C405 C404 1.391 . S
C406 H396 0.950 . S
C406 C407 1.386 . S
C406 C408 1.391 . S
C407 C406 1.386 . S
C407 C411 1.393 . S
C408 H397 0.950 . S
C408 C406 1.391 . S
C408 C409 1.400 . S
C409 C403 1.491 . S
C409 C408 1.400 . S
C409 C410 1.398 . S
C410 H398 0.950 . S
C410 C409 1.398 . S
C410 C411 1.391 . S
C411 H399 0.950 . S
C411 C407 1.393 . S
C411 C410 1.391 . S
H412 C420 0.950 . S
H413 C425 0.950 . S
H414 C422 0.950 . S
H415 C424 0.950 . S
H416 C426 0.950 . S
H417 C428 0.950 . S
H418 C430 0.950 . S
H419 C431 0.950 . S
C420 H412 0.950 . S
C420 C421 1.386 . S
C420 C422 1.391 . S
C421 C420 1.386 . S
C421 C425 1.393 . S
C422 H414 0.950 . S
C422 C420 1.391 . S
C422 C423 1.400 . S
C423 C422 1.400 . S
C423 C424 1.398 . S
C423 C429 1.491 . S
C424 H415 0.950 . S
C424 C423 1.398 . S
C424 C425 1.391 . S
C425 H413 0.950 . S
C425 C421 1.393 . S
C425 C424 1.391 . S
C426 H416 0.950 . S
C426 C427 1.386 . S
C426 C428 1.391 . S
C427 C426 1.386 . S
C427 C431 1.393 . S
C428 H417 0.950 . S
C428 C426 1.391 . S
C428 C429 1.400 . S
C429 C423 1.491 . S
C429 C428 1.400 . S
C429 C430 1.398 . S
C430 H418 0.950 . S
C430 C429 1.398 . S
C430 C431 1.391 . S
C431 H419 0.950 . S
C431 C427 1.393 . S
C431 C430 1.391 . S
H432 C440 0.950 . S
H433 C445 0.950 . S
H434 C442 0.950 . S
H435 C444 0.950 . S
H436 C446 0.950 . S
H437 C448 0.950 . S
H438 C450 0.950 . S
H439 C451 0.950 . S
C440 H432 0.950 . S
C440 C441 1.386 . S
C440 C442 1.391 . S
C441 C440 1.386 . S
C441 C445 1.393 . S
C442 H434 0.950 . S
C442 C440 1.391 . S
C442 C443 1.400 . S
C443 C442 1.400 . S
C443 C444 1.398 . S
C443 C449 1.491 . S
C444 H435 0.950 . S
C444 C443 1.398 . S
C444 C445 1.391 . S
C445 H433 0.950 . S
C445 C441 1.393 . S
C445 C444 1.391 . S
C446 H436 0.950 . S
C446 C447 1.386 . S
C446 C448 1.391 . S
C447 C446 1.386 . S
C447 C451 1.393 . S
C448 H437 0.950 . S
C448 C446 1.391 . S
C448 C449 1.400 . S
C449 C443 1.491 . S
C449 C448 1.400 . S
C449 C450 1.398 . S
C450 H438 0.950 . S
C450 C449 1.398 . S
C450 C451 1.391 . S
C451 H439 0.950 . S
C451 C447 1.393 . S
C451 C450 1.391 . S
H452 C460 0.950 . S
H453 C465 0.950 . S
H454 C462 0.950 . S
H455 C464 0.950 . S
H456 C466 0.950 . S
H457 C468 0.950 . S
H458 C470 0.950 . S
H459 C471 0.950 . S
C460 H452 0.950 . S
C460 C461 1.386 . S
C460 C462 1.391 . S
C461 C460 1.386 . S
C461 C465 1.393 . S
C462 H454 0.950 . S
C462 C460 1.391 . S
C462 C463 1.400 . S
C463 C462 1.400 . S
C463 C464 1.398 . S
C463 C469 1.491 . S
C464 H455 0.950 . S
C464 C463 1.398 . S
C464 C465 1.391 . S
C465 H453 0.950 . S
C465 C461 1.393 . S
C465 C464 1.391 . S
C466 H456 0.950 . S
C466 C467 1.386 . S
C466 C468 1.391 . S
C467 C466 1.386 . S
C467 C471 1.393 . S
C468 H457 0.950 . S
C468 C466 1.391 . S
C468 C469 1.400 . S
C469 C463 1.491 . S
C469 C468 1.400 . S
C469 C470 1.398 . S
C470 H458 0.950 . S
C470 C469 1.398 . S
C470 C471 1.391 . S
C471 H459 0.950 . S
C471 C467 1.393 . S
C471 C470 1.391 . S
H472 C480 0.950 . S
H473 C485 0.950 . S
H474 C482 0.950 . S
H475 C484 0.950 . S
H476 C486 0.950 . S
H477 C488 0.950 . S
H478 C490 0.950 . S
H479 C491 0.950 . S
C480 H472 0.950 . S
C480 C481 1.386 . S
C480 C482 1.391 . S
C481 C480 1.386 . S
C481 C485 1.393 . S
C482 H474 0.950 . S
C482 C480 1.391 . S
C482 C483 1.400 . S
C483 C482 1.400 . S
C483 C484 1.398 . S
C483 C489 1.491 . S
C484 H475 0.950 . S
C484 C483 1.398 . S
C484 C485 1.391 . S
C485 H473 0.950 . S
C485 C481 1.393 . S
C485 C484 1.391 . S
C486 H476 0.950 . S
C486 C487 1.386 . S
C486 C488 1.391 . S
C487 C486 1.386 . S
C487 C491 1.393 . S
C488 H477 0.950 . S
C488 C486 1.391 . S
C488 C489 1.400 . S
C489 C483 1.491 . S
C489 C488 1.400 . S
C489 C490 1.398 . S
C490 H478 0.950 . S
C490 C489 1.398 . S
C490 C491 1.391 . S
C491 H479 0.950 . S
C491 C487 1.393 . S
C491 C490 1.391 . S
H492 C500 0.950 . S
H493 C505 0.950 . S
H494 C502 0.950 . S
H495 C504 0.950 . S
H496 C506 0.950 . S
H497 C508 0.950 . S
H498 C510 0.950 . S
H499 C511 0.950 1_554 S
C500 H492 0.950 . S
C500 C501 1.386 . S
C500 C502 1.391 . S
C501 C500 1.386 . S
C501 C505 1.393 . S
C502 H494 0.950 . S
C502 C500 1.391 . S
C502 C503 1.400 . S
C503 C502 1.400 . S
C503 C504 1.398 . S
C503 C509 1.491 . S
C504 H495 0.950 . S
C504 C503 1.398 . S
C504 C505 1.391 . S
C505 H493 0.950 . S
C505 C501 1.393 . S
C505 C504 1.391 . S
C506 H496 0.950 . S
C506 C507 1.386 1_556 S
C506 C508 1.391 . S
C507 C506 1.386 1_554 S
C507 C511 1.393 1_554 S
C508 H497 0.950 . S
C508 C506 1.391 . S
C508 C509 1.400 . S
C509 C503 1.491 . S
C509 C508 1.400 . S
C509 C510 1.398 . S
C510 H498 0.950 . S
C510 C509 1.398 . S
C510 C511 1.391 . S
C511 H499 0.950 1_556 S
C511 C507 1.393 1_556 S
C511 C510 1.391 . S
H512 C520 0.950 . S
H513 C525 0.950 . S
H514 C522 0.950 . S
H515 C524 0.950 . S
H516 C526 0.950 . S
H517 C528 0.950 . S
H518 C530 0.950 . S
H519 C531 0.950 . S
C520 H512 0.950 . S
C520 C521 1.386 . S
C520 C522 1.391 . S
C521 C520 1.386 . S
C521 C525 1.393 . S
C522 H514 0.950 . S
C522 C520 1.391 . S
C522 C523 1.400 . S
C523 C522 1.400 . S
C523 C524 1.398 . S
C523 C529 1.491 . S
C524 H515 0.950 . S
C524 C523 1.398 . S
C524 C525 1.391 . S
C525 H513 0.950 . S
C525 C521 1.393 . S
C525 C524 1.391 . S
C526 H516 0.950 . S
C526 C527 1.386 . S
C526 C528 1.391 . S
C527 C526 1.386 . S
C527 C531 1.393 . S
C528 H517 0.950 . S
C528 C526 1.391 . S
C528 C529 1.400 . S
C529 C523 1.491 . S
C529 C528 1.400 . S
C529 C530 1.398 . S
C530 H518 0.950 . S
C530 C529 1.398 . S
C530 C531 1.391 . S
C531 H519 0.950 . S
C531 C527 1.393 . S
C531 C530 1.391 . S
H532 C540 0.950 . S
H533 C545 0.950 . S
H534 C542 0.950 . S
H535 C544 0.950 . S
H536 C546 0.950 . S
H537 C548 0.950 . S
H538 C550 0.950 . S
H539 C551 0.950 . S
C540 H532 0.950 . S
C540 C541 1.386 . S
C540 C542 1.391 . S
C541 C540 1.386 . S
C541 C545 1.393 . S
C542 H534 0.950 . S
C542 C540 1.391 . S
C542 C543 1.400 . S
C543 C542 1.400 . S
C543 C544 1.398 . S
C543 C549 1.491 . S
C544 H535 0.950 . S
C544 C543 1.398 . S
C544 C545 1.391 . S
C545 H533 0.950 . S
C545 C541 1.393 . S
C545 C544 1.391 . S
C546 H536 0.950 . S
C546 C547 1.386 . S
C546 C548 1.391 . S
C547 C546 1.386 . S
C547 C551 1.393 . S
C548 H537 0.950 . S
C548 C546 1.391 . S
C548 C549 1.400 . S
C549 C543 1.491 . S
C549 C548 1.400 . S
C549 C550 1.398 . S
C550 H538 0.950 . S
C550 C549 1.398 . S
C550 C551 1.391 . S
C551 H539 0.950 . S
C551 C547 1.393 . S
C551 C550 1.391 . S
H552 C560 0.950 . S
H553 C565 0.950 . S
H554 C562 0.950 . S
H555 C564 0.950 . S
H556 C566 0.950 . S
H557 C568 0.950 . S
H558 C570 0.950 . S
H559 C571 0.950 . S
C560 H552 0.950 . S
C560 C561 1.386 . S
C560 C562 1.391 . S
C561 C560 1.386 . S
C561 C565 1.393 . S
C562 H554 0.950 . S
C562 C560 1.391 . S
C562 C563 1.400 . S
C563 C562 1.400 . S
C563 C564 1.398 . S
C563 C569 1.491 . S
C564 H555 0.950 . S
C564 C563 1.398 . S
C564 C565 1.391 . S
C565 H553 0.950 . S
C565 C561 1.393 . S
C565 C564 1.391 . S
C566 H556 0.950 . S
C566 C567 1.386 . S
C566 C568 1.391 . S
C567 C566 1.386 . S
C567 C571 1.393 . S
C568 H557 0.950 . S
C568 C566 1.391 . S
C568 C569 1.400 . S
C569 C563 1.491 . S
C569 C568 1.400 . S
C569 C570 1.398 . S
C570 H558 0.950 . S
C570 C569 1.398 . S
C570 C571 1.391 . S
C571 H559 0.950 . S
C571 C567 1.393 . S
C571 C570 1.391 . S
H572 C580 0.950 . S
H573 C585 0.950 . S
H574 C582 0.950 . S
H575 C584 0.950 . S
H576 C586 0.950 . S
H577 C588 0.950 . S
H578 C590 0.950 . S
H579 C591 0.950 . S
C580 H572 0.950 . S
C580 C581 1.386 . S
C580 C582 1.391 . S
C581 C580 1.386 . S
C581 C585 1.393 . S
C582 H574 0.950 . S
C582 C580 1.391 . S
C582 C583 1.400 . S
C583 C582 1.400 . S
C583 C584 1.398 . S
C583 C589 1.491 . S
C584 H575 0.950 . S
C584 C583 1.398 . S
C584 C585 1.391 . S
C585 H573 0.950 . S
C585 C581 1.393 . S
C585 C584 1.391 . S
C586 H576 0.950 . S
C586 C587 1.386 . S
C586 C588 1.391 . S
C587 C586 1.386 . S
C587 C591 1.393 . S
C588 H577 0.950 . S
C588 C586 1.391 . S
C588 C589 1.400 . S
C589 C583 1.491 . S
C589 C588 1.400 . S
C589 C590 1.398 . S
C590 H578 0.950 . S
C590 C589 1.398 . S
C590 C591 1.391 . S
C591 H579 0.950 . S
C591 C587 1.393 . S
C591 C590 1.391 . S
H592 C600 0.950 . S
H593 C605 0.950 . S
H594 C602 0.950 . S
H595 C604 0.950 . S
H596 C606 0.950 . S
H597 C608 0.950 . S
H598 C610 0.950 . S
H599 C611 0.950 . S
C600 H592 0.950 . S
C600 C601 1.386 . S
C600 C602 1.391 . S
C601 C600 1.386 . S
C601 C605 1.393 . S
C602 H594 0.950 . S
C602 C600 1.391 . S
C602 C603 1.400 . S
C603 C602 1.400 . S
C603 C604 1.398 . S
C603 C609 1.491 . S
C604 H595 0.950 . S
C604 C603 1.398 . S
C604 C605 1.391 . S
C605 H593 0.950 . S
C605 C601 1.393 . S
C605 C604 1.391 . S
C606 H596 0.950 . S
C606 C607 1.386 . S
C606 C608 1.391 . S
C607 C606 1.386 . S
C607 C611 1.393 . S
C608 H597 0.950 . S
C608 C606 1.391 . S
C608 C609 1.400 . S
C609 C603 1.491 . S
C609 C608 1.400 . S
C609 C610 1.398 . S
C610 H598 0.950 . S
C610 C609 1.398 . S
C610 C611 1.391 . S
C611 H599 0.950 . S
C611 C607 1.393 . S
C611 C610 1.391 . S
H612 C620 0.950 . S
H613 C625 0.950 . S
H614 C622 0.950 . S
H615 C624 0.950 . S
H616 C626 0.950 . S
H617 C628 0.950 . S
H618 C630 0.950 . S
H619 C631 0.950 . S
C620 H612 0.950 . S
C620 C621 1.386 . S
C620 C622 1.391 . S
C621 C620 1.386 . S
C621 C625 1.393 . S
C622 H614 0.950 . S
C622 C620 1.391 . S
C622 C623 1.400 . S
C623 C622 1.400 . S
C623 C624 1.398 . S
C623 C629 1.491 . S
C624 H615 0.950 . S
C624 C623 1.398 . S
C624 C625 1.391 . S
C625 H613 0.950 . S
C625 C621 1.393 . S
C625 C624 1.391 . S
C626 H616 0.950 . S
C626 C627 1.386 . S
C626 C628 1.391 . S
C627 C626 1.386 . S
C627 C631 1.393 . S
C628 H617 0.950 . S
C628 C626 1.391 . S
C628 C629 1.400 . S
C629 C623 1.491 . S
C629 C628 1.400 . S
C629 C630 1.398 . S
C630 H618 0.950 . S
C630 C629 1.398 . S
C630 C631 1.391 . S
C631 H619 0.950 . S
C631 C627 1.393 . S
C631 C630 1.391 . S
H632 C640 0.950 . S
H633 C645 0.950 . S
H634 C642 0.950 . S
H635 C644 0.950 . S
H636 C646 0.950 . S
H637 C648 0.950 . S
H638 C650 0.950 . S
H639 C651 0.948 1_556 S
C640 H632 0.950 . S
C640 C641 1.386 . S
C640 C642 1.391 . S
C641 C640 1.386 . S
C641 C645 1.393 . S
C642 H634 0.950 . S
C642 C640 1.391 . S
C642 C643 1.400 . S
C643 C642 1.400 . S
C643 C644 1.398 . S
C643 C649 1.491 . S
C644 H635 0.950 . S
C644 C643 1.398 . S
C644 C645 1.391 . S
C645 H633 0.950 . S
C645 C641 1.393 . S
C645 C644 1.391 . S
C646 H636 0.950 . S
C646 C647 1.386 . S
C646 C648 1.391 1_556 S
C647 C646 1.386 . S
C647 C651 1.388 1_556 S
C648 H637 0.950 . S
C648 C646 1.391 1_554 S
C648 C649 1.400 . S
C649 C643 1.491 . S
C649 C648 1.400 . S
C649 C650 1.398 . S
C650 H638 0.950 . S
C650 C649 1.398 . S
C650 C651 1.396 . S
C651 H639 0.948 1_554 S
C651 C647 1.388 1_554 S
C651 C650 1.396 . S
H652 C660 0.950 . S
H653 C665 0.950 . S
H654 C662 0.950 . S
H655 C664 0.950 . S
H656 C666 0.950 . S
H657 C668 0.950 . S
H658 C670 0.950 . S
H659 C671 0.950 . S
C660 H652 0.950 . S
C660 C661 1.386 . S
C660 C662 1.391 . S
C661 C660 1.386 . S
C661 C665 1.393 . S
C662 H654 0.950 . S
C662 C660 1.391 . S
C662 C663 1.400 . S
C663 C662 1.400 . S
C663 C664 1.398 . S
C663 C669 1.491 . S
C664 H655 0.950 . S
C664 C663 1.398 . S
C664 C665 1.391 . S
C665 H653 0.950 . S
C665 C661 1.393 . S
C665 C664 1.391 . S
C666 H656 0.950 . S
C666 C667 1.386 . S
C666 C668 1.391 . S
C667 C666 1.386 . S
C667 C671 1.393 . S
C668 H657 0.950 . S
C668 C666 1.391 . S
C668 C669 1.400 . S
C669 C663 1.491 . S
C669 C668 1.400 . S
C669 C670 1.398 . S
C670 H658 0.950 . S
C670 C669 1.398 . S
C670 C671 1.391 . S
C671 H659 0.950 . S
C671 C667 1.393 . S
C671 C670 1.391 . S
C207 C185 1.556 . S
C201 C8 1.526 . S
C221 C26 1.444 . S
C227 C119 1.466 . S
C241 C50 1.380 . S
C247 C133 1.412 . S
C261 C68 1.412 . S
C267 C147 1.458 . S
C287 C161 1.458 . S
C281 C80 1.441 . S
C301 C104 1.473 . S
C307 C171 1.508 . S
C321 C32 1.507 . S
C327 C129 1.563 . S
C341 C44 1.570 . S
C347 C143 1.615 . S
C361 C62 1.490 . S
C367 C157 1.547 . S
C387 C175 1.462 . S
C381 C86 1.416 1_554 S
C407 C189 1.501 . S
C401 C98 1.455 . S
C427 C115 1.546 . S
C421 C14 1.508 . S
C441 C7 1.480 . S
C447 C130 1.469 . S
C461 C25 1.522 . S
C467 C144 1.513 . S
C487 C158 1.539 . S
C481 C52 1.552 . S
C501 C70 1.433 . S
C507 C177 1.414 . S
C527 C191 1.395 . S
C521 C79 1.412 . S
C547 C116 1.451 . S
C541 C106 1.465 . S
C567 C186 1.448 . S
C561 C34 1.457 . S
C581 C43 1.358 . S
C587 C121 1.326 . S
C607 C135 1.336 . S
C601 C61 1.349 . S
C621 C88 1.432 . S
C627 C149 1.418 . S
C641 C97 1.450 . S
C647 C163 1.416 . S
C661 C16 1.464 . S
C667 C172 1.450 . S
