# Generated by pormake.
# Topology apo, (3,6)-cn, num edge types: 1
# Building blocks:
#     Node 0, Type 0, BuildingBlock: MIDCAF_clean_linker_0, # of connection points: 3
#     Node 1, Type 0, BuildingBlock: MIDCAF_clean_linker_0, # of connection points: 3
#     Node 2, Type 0, BuildingBlock: MIDCAF_clean_linker_0, # of connection points: 3
#     Node 3, Type 0, BuildingBlock: MIDCAF_clean_linker_0, # of connection points: 3
#     Node 4, Type 0, BuildingBlock: MIDCAF_clean_linker_0, # of connection points: 3
#     Node 5, Type 0, BuildingBlock: MIDCAF_clean_linker_0, # of connection points: 3
#     Node 6, Type 0, BuildingBlock: MIDCAF_clean_linker_0, # of connection points: 3
#     Node 7, Type 0, BuildingBlock: MIDCAF_clean_linker_0, # of connection points: 3
#     Node 8, Type 1, BuildingBlock: KUMBUR_clean_sbu_1, # of connection points: 6
#     Node 9, Type 1, BuildingBlock: KUMBUR_clean_sbu_1, # of connection points: 6
#     Node 10, Type 1, BuildingBlock: KUMBUR_clean_sbu_1, # of connection points: 6
#     Node 11, Type 1, BuildingBlock: KUMBUR_clean_sbu_1, # of connection points: 6
#     Edge 12, Type (0, 1), BuildingBlock: XUDNAN_clean_linker_2, # of connection points: 2
#     Edge 13, Type (0, 1), BuildingBlock: XUDNAN_clean_linker_2, # of connection points: 2
#     Edge 14, Type (0, 1), BuildingBlock: XUDNAN_clean_linker_2, # of connection points: 2
#     Edge 15, Type (0, 1), BuildingBlock: XUDNAN_clean_linker_2, # of connection points: 2
#     Edge 16, Type (0, 1), BuildingBlock: XUDNAN_clean_linker_2, # of connection points: 2
#     Edge 17, Type (0, 1), BuildingBlock: XUDNAN_clean_linker_2, # of connection points: 2
#     Edge 18, Type (0, 1), BuildingBlock: XUDNAN_clean_linker_2, # of connection points: 2
#     Edge 19, Type (0, 1), BuildingBlock: XUDNAN_clean_linker_2, # of connection points: 2
#     Edge 20, Type (0, 1), BuildingBlock: XUDNAN_clean_linker_2, # of connection points: 2
#     Edge 21, Type (0, 1), BuildingBlock: XUDNAN_clean_linker_2, # of connection points: 2
#     Edge 22, Type (0, 1), BuildingBlock: XUDNAN_clean_linker_2, # of connection points: 2
#     Edge 23, Type (0, 1), BuildingBlock: XUDNAN_clean_linker_2, # of connection points: 2
#     Edge 24, Type (0, 1), BuildingBlock: XUDNAN_clean_linker_2, # of connection points: 2
#     Edge 25, Type (0, 1), BuildingBlock: XUDNAN_clean_linker_2, # of connection points: 2
#     Edge 26, Type (0, 1), BuildingBlock: XUDNAN_clean_linker_2, # of connection points: 2
#     Edge 27, Type (0, 1), BuildingBlock: XUDNAN_clean_linker_2, # of connection points: 2
#     Edge 28, Type (0, 1), BuildingBlock: XUDNAN_clean_linker_2, # of connection points: 2
#     Edge 29, Type (0, 1), BuildingBlock: XUDNAN_clean_linker_2, # of connection points: 2
#     Edge 30, Type (0, 1), BuildingBlock: XUDNAN_clean_linker_2, # of connection points: 2
#     Edge 31, Type (0, 1), BuildingBlock: XUDNAN_clean_linker_2, # of connection points: 2
#     Edge 32, Type (0, 1), BuildingBlock: XUDNAN_clean_linker_2, # of connection points: 2
#     Edge 33, Type (0, 1), BuildingBlock: XUDNAN_clean_linker_2, # of connection points: 2
#     Edge 34, Type (0, 1), BuildingBlock: XUDNAN_clean_linker_2, # of connection points: 2
#     Edge 35, Type (0, 1), BuildingBlock: XUDNAN_clean_linker_2, # of connection points: 2
# Relax obj value: 0.009
# Max RMSD: 0.094
# Mean RMSD: 0.075
data_MOF--net-apo--node1-KUMBUR_clean_sbu_1--node2-MIDCAF_clean_linker_0--edge1-XUDNAN_clean_linker_2
_symmetry_space_group_name_H-M    P1
_symmetry_Int_Tables_number       1
_symmetry_cell_setting            triclinic
loop_
_symmetry_equiv_pos_as_xyz
'x, y, z'
_cell_length_a     29.128772
_cell_length_b     51.929042
_cell_length_c     63.539076
_cell_angle_alpha  89.970251
_cell_angle_beta   90.06325
_cell_angle_gamma 90.166396
loop_
_atom_site_label
_atom_site_type_symbol
_atom_site_fract_x
_atom_site_fract_y
_atom_site_fract_z
_atom_type_partial_charge
C0 C 0.35275 0.40215 0.48842 0.0
C1 C 0.32744 0.3894 0.5042 0.0
C2 C 0.28923 0.37447 0.49803 0.0
C3 C 0.27646 0.37267 0.47681 0.0
H4 H 0.24741 0.31511 0.42483 0.0
H5 H 0.21759 0.27721 0.40638 0.0
H6 H 0.16142 0.32628 0.35796 0.0
H7 H 0.19097 0.36402 0.37628 0.0
H8 H 0.2326 0.42111 0.37119 0.0
H9 H 0.25318 0.45388 0.34561 0.0
H10 H 0.37636 0.47105 0.38104 0.0
H11 H 0.35434 0.43891 0.40726 0.0
H12 H 0.35939 0.41112 0.45565 0.0
H13 H 0.38307 0.41328 0.4923 0.0
H14 H 0.26823 0.36468 0.50959 0.0
H15 H 0.24646 0.36136 0.4727 0.0
N16 N 0.2609 0.36532 0.43136 0.0
N17 N 0.25569 0.38563 0.39849 0.0
N18 N 0.29601 0.40567 0.42591 0.0
C19 C 0.24589 0.36523 0.41106 0.0
C20 C 0.28069 0.40585 0.40569 0.0
C21 C 0.28573 0.38561 0.43893 0.0
C22 C 0.22201 0.34257 0.40192 0.0
C23 C 0.22792 0.31784 0.41048 0.0
C24 C 0.2111 0.29613 0.39985 0.0
C25 C 0.18748 0.29877 0.38063 0.0
C26 C 0.17922 0.3236 0.37278 0.0
C27 C 0.19648 0.34523 0.38323 0.0
C28 C 0.29202 0.42727 0.39118 0.0
C29 C 0.26394 0.43201 0.37362 0.0
C30 C 0.27597 0.45072 0.35883 0.0
C31 C 0.3169 0.46493 0.36097 0.0
C32 C 0.34437 0.46071 0.37891 0.0
C33 C 0.33188 0.4422 0.39393 0.0
C34 C 0.30096 0.38612 0.46124 0.0
C35 C 0.33939 0.40077 0.46728 0.0
C36 C 0.16606 0.10201 0.98244 0.0
C37 C 0.16313 0.12432 0.99497 0.0
C38 C 0.16927 0.14844 0.98522 0.0
C39 C 0.17855 0.15018 0.96367 0.0
H40 H 0.27491 0.18753 0.92045 0.0
H41 H 0.322 0.22188 0.90528 0.0
H42 H 0.26918 0.20377 0.84352 0.0
H43 H 0.22225 0.16951 0.85853 0.0
H44 H 0.18079 0.11503 0.85103 0.0
H45 H 0.15402 0.08218 0.82667 0.0
H46 H 0.1267 0.03093 0.8787 0.0
H47 H 0.15369 0.06388 0.90333 0.0
H48 H 0.1766 0.08622 0.95167 0.0
H49 H 0.16254 0.08304 0.98933 0.0
H50 H 0.16636 0.16612 0.99413 0.0
H51 H 0.18297 0.16908 0.95672 0.0
N52 N 0.21193 0.151 0.92038 0.0
N53 N 0.20588 0.13401 0.88634 0.0
N54 N 0.177 0.11067 0.91502 0.0
C55 C 0.2199 0.15317 0.89938 0.0
C56 C 0.18452 0.1127 0.89396 0.0
C57 C 0.19035 0.12985 0.92831 0.0
C58 C 0.24509 0.17561 0.89069 0.0
C59 C 0.27287 0.19109 0.90368 0.0
C60 C 0.29998 0.21068 0.895 0.0
C61 C 0.29932 0.21544 0.87322 0.0
C62 C 0.2701 0.2007 0.86038 0.0
C63 C 0.24349 0.18092 0.86899 0.0
C64 C 0.16921 0.09221 0.87922 0.0
C65 C 0.16932 0.09676 0.85738 0.0
C66 C 0.1538 0.07797 0.84337 0.0
C67 C 0.13813 0.05405 0.85078 0.0
C68 C 0.1389 0.04916 0.87254 0.0
C69 C 0.15405 0.06811 0.88664 0.0
C70 C 0.18109 0.12789 0.9512 0.0
C71 C 0.17448 0.10379 0.9608 0.0
C72 C 0.83351 0.11465 0.52539 0.0
C73 C 0.82797 0.13842 0.51507 0.0
C74 C 0.81086 0.15941 0.52656 0.0
C75 C 0.79988 0.15683 0.54783 0.0
H76 H 0.72301 0.19214 0.59498 0.0
H77 H 0.69007 0.22867 0.61352 0.0
H78 H 0.73013 0.19488 0.67296 0.0
H79 H 0.76113 0.15788 0.65445 0.0
H80 H 0.74325 0.08958 0.6467 0.0
H81 H 0.75827 0.05142 0.66798 0.0
H82 H 0.87128 0.03147 0.62733 0.0
H83 H 0.85579 0.0696 0.60564 0.0
H84 H 0.82759 0.09355 0.55427 0.0
H85 H 0.84688 0.09815 0.517 0.0
H86 H 0.80542 0.17787 0.51903 0.0
H87 H 0.78679 0.17354 0.55604 0.0
N88 N 0.77512 0.15119 0.59128 0.0
N89 N 0.77187 0.12726 0.62245 0.0
N90 N 0.80183 0.10855 0.59178 0.0
C91 C 0.76418 0.1496 0.612 0.0
C92 C 0.79053 0.10666 0.61252 0.0
C93 C 0.79397 0.13082 0.58101 0.0
C94 C 0.74459 0.17203 0.62322 0.0
C95 C 0.72475 0.19251 0.61201 0.0
C96 C 0.7061 0.21358 0.62267 0.0
C97 C 0.70741 0.21486 0.6448 0.0
C98 C 0.72764 0.19441 0.65596 0.0
C99 C 0.7457 0.1732 0.64532 0.0
C100 C 0.79844 0.08263 0.62451 0.0
C101 C 0.77114 0.077 0.64218 0.0
C102 C 0.77953 0.05509 0.65432 0.0
C103 C 0.81593 0.03858 0.6493 0.0
C104 C 0.8431 0.04401 0.63155 0.0
C105 C 0.83409 0.0657 0.61911 0.0
C106 C 0.80574 0.13317 0.5583 0.0
C107 C 0.82267 0.11207 0.54679 0.0
C108 C 0.64608 0.37307 0.03641 0.0
C109 C 0.67925 0.36458 0.02191 0.0
C110 C 0.72137 0.35531 0.02981 0.0
C111 C 0.73022 0.35502 0.05154 0.0
H112 H 0.80511 0.31504 0.10373 0.0
H113 H 0.85716 0.28723 0.1241 0.0
H114 H 0.79611 0.31465 0.18172 0.0
H115 H 0.74515 0.34208 0.16187 0.0
H116 H 0.68437 0.38808 0.16396 0.0
H117 H 0.64973 0.42169 0.18524 0.0
H118 H 0.62034 0.46568 0.1292 0.0
H119 H 0.65508 0.43183 0.10762 0.0
H120 H 0.62905 0.3803 0.06858 0.0
H121 H 0.61268 0.37957 0.03119 0.0
H122 H 0.7481 0.34887 0.01925 0.0
H123 H 0.76318 0.34819 0.0571 0.0
N124 N 0.73524 0.34865 0.09842 0.0
N125 N 0.72139 0.36899 0.13075 0.0
N126 N 0.68697 0.38495 0.10023 0.0
C127 C 0.74209 0.34998 0.11963 0.0
C128 C 0.69412 0.38661 0.12128 0.0
C129 C 0.70723 0.36605 0.08868 0.0
C130 C 0.77144 0.33122 0.13111 0.0
C131 C 0.80267 0.31493 0.12073 0.0
C132 C 0.83237 0.29898 0.13237 0.0
C133 C 0.83131 0.29917 0.15452 0.0
C134 C 0.79864 0.31455 0.1647 0.0
C135 C 0.76927 0.33031 0.15322 0.0
C136 C 0.67244 0.40719 0.13403 0.0
C137 C 0.6706 0.40487 0.15607 0.0
C138 C 0.65055 0.42408 0.16831 0.0
C139 C 0.63224 0.44624 0.15887 0.0
C140 C 0.63443 0.44882 0.13687 0.0
C141 C 0.65402 0.42937 0.12454 0.0
C142 C 0.69755 0.36447 0.0658 0.0
C143 C 0.65531 0.3733 0.05798 0.0
C144 C 0.65835 0.61284 0.52779 0.0
C145 C 0.65171 0.6371 0.51851 0.0
C146 C 0.65666 0.6593 0.53092 0.0
C147 C 0.66893 0.65732 0.55214 0.0
H148 H 0.74782 0.69672 0.5974 0.0
H149 H 0.79244 0.73094 0.61398 0.0
H150 H 0.81618 0.68205 0.66793 0.0
H151 H 0.77076 0.64819 0.65171 0.0
H152 H 0.73632 0.59189 0.65172 0.0
H153 H 0.71992 0.55393 0.67285 0.0
H154 H 0.61281 0.53177 0.62946 0.0
H155 H 0.62929 0.56995 0.608 0.0
H156 H 0.67471 0.59186 0.55586 0.0
H157 H 0.65457 0.59545 0.51853 0.0
H158 H 0.65194 0.67822 0.52407 0.0
H159 H 0.67308 0.67481 0.56124 0.0
N160 N 0.71364 0.65062 0.59301 0.0
N161 N 0.71855 0.62698 0.62431 0.0
N162 N 0.68021 0.60943 0.59517 0.0
C163 C 0.72833 0.64867 0.61325 0.0
C164 C 0.69437 0.60736 0.6155 0.0
C165 C 0.68976 0.63105 0.58383 0.0
C166 C 0.75549 0.66965 0.62319 0.0
C167 C 0.76249 0.69326 0.61281 0.0
C168 C 0.78834 0.71285 0.62227 0.0
C169 C 0.80794 0.70928 0.64231 0.0
C170 C 0.801 0.68565 0.65265 0.0
C171 C 0.77506 0.66614 0.64325 0.0
C172 C 0.6842 0.58397 0.6281 0.0
C173 C 0.70921 0.57901 0.6466 0.0
C174 C 0.7 0.55719 0.65869 0.0
C175 C 0.66521 0.53989 0.65275 0.0
C176 C 0.63969 0.54489 0.63442 0.0
C177 C 0.64936 0.56663 0.62209 0.0
C178 C 0.67552 0.63306 0.5615 0.0
C179 C 0.66962 0.61082 0.54915 0.0
C180 C 0.8304 0.89559 0.03254 0.0
C181 C 0.84053 0.87093 0.02484 0.0
C182 C 0.83431 0.84951 0.03804 0.0
C183 C 0.8175 0.85267 0.05852 0.0
H184 H 0.75513 0.81278 0.1153 0.0
H185 H 0.71564 0.78139 0.13788 0.0
H186 H 0.63363 0.84274 0.16409 0.0
H187 H 0.67432 0.87381 0.14245 0.0
H188 H 0.76152 0.91509 0.15996 0.0
H189 H 0.79247 0.94795 0.18316 0.0
H190 H 0.86718 0.98147 0.13138 0.0
H191 H 0.83683 0.94806 0.10776 0.0
H192 H 0.8073 0.9181 0.05873 0.0
H193 H 0.83498 0.91237 0.0226 0.0
H194 H 0.84178 0.8303 0.03238 0.0
H195 H 0.81266 0.83579 0.06831 0.0
N196 N 0.76405 0.86199 0.09722 0.0
N197 N 0.75661 0.88748 0.12743 0.0
N198 N 0.79965 0.90278 0.09896 0.0
C199 C 0.74671 0.8655 0.11686 0.0
C200 C 0.7833 0.90612 0.11882 0.0
C201 C 0.79001 0.8808 0.08804 0.0
C202 C 0.71821 0.84573 0.12738 0.0
C203 C 0.72815 0.81935 0.1257 0.0
C204 C 0.70548 0.80141 0.13862 0.0
C205 C 0.67215 0.80959 0.15321 0.0
C206 C 0.66016 0.8358 0.15362 0.0
C207 C 0.68322 0.85363 0.14107 0.0
C208 C 0.79717 0.92858 0.13193 0.0
C209 C 0.78401 0.92955 0.15325 0.0
C210 C 0.8016 0.94843 0.16663 0.0
C211 C 0.83221 0.96708 0.15903 0.0
C212 C 0.84335 0.96729 0.13753 0.0
C213 C 0.82615 0.9481 0.12408 0.0
C214 C 0.80775 0.87738 0.06635 0.0
C215 C 0.81474 0.89883 0.05319 0.0
C216 C 0.18966 0.88291 0.49206 0.0
C217 C 0.19418 0.85858 0.50156 0.0
C218 C 0.20767 0.83764 0.48901 0.0
C219 C 0.216 0.84085 0.46749 0.0
H220 H 0.27023 0.80337 0.41621 0.0
H221 H 0.29813 0.76735 0.39542 0.0
H222 H 0.2815 0.81212 0.33861 0.0
H223 H 0.25462 0.84842 0.3594 0.0
H224 H 0.22998 0.90649 0.36263 0.0
H225 H 0.21134 0.94661 0.34488 0.0
H226 H 0.15461 0.9765 0.40268 0.0
H227 H 0.17426 0.93661 0.42065 0.0
H228 H 0.19344 0.90509 0.46368 0.0
H229 H 0.17898 0.8994 0.50125 0.0
H230 H 0.21209 0.8187 0.49586 0.0
H231 H 0.22616 0.82418 0.45839 0.0
N232 N 0.23541 0.84832 0.42326 0.0
N233 N 0.23197 0.87351 0.3927 0.0
N234 N 0.20862 0.89084 0.42504 0.0
C235 C 0.24222 0.8508 0.40218 0.0
C236 C 0.21519 0.89364 0.40395 0.0
C237 C 0.21868 0.86823 0.43484 0.0
C238 C 0.25995 0.82888 0.38954 0.0
C239 C 0.27256 0.80563 0.39929 0.0
C240 C 0.28835 0.78486 0.38733 0.0
C241 C 0.29182 0.78674 0.36529 0.0
C242 C 0.27974 0.81007 0.35556 0.0
C243 C 0.26403 0.83087 0.36752 0.0
C244 C 0.20375 0.91822 0.39315 0.0
C245 C 0.21357 0.92158 0.37163 0.0
C246 C 0.20262 0.94459 0.36136 0.0
C247 C 0.18146 0.96484 0.37231 0.0
C248 C 0.17155 0.96148 0.39382 0.0
C249 C 0.18262 0.93849 0.40412 0.0
C250 C 0.21083 0.86509 0.45787 0.0
C251 C 0.1977 0.88611 0.47047 0.0
C252 C 0.32695 0.62797 0.98872 0.0
C253 C 0.32349 0.65333 0.99624 0.0
C254 C 0.31012 0.67287 0.9822 0.0
C255 C 0.30015 0.66715 0.96113 0.0
H256 H 0.24606 0.69825 0.90311 0.0
H257 H 0.20721 0.72733 0.87857 0.0
H258 H 0.17233 0.66243 0.83905 0.0
H259 H 0.21219 0.63381 0.86296 0.0
H260 H 0.27759 0.58582 0.8641 0.0
H261 H 0.3064 0.54629 0.84853 0.0
H262 H 0.39016 0.53312 0.90364 0.0
H263 H 0.36033 0.57228 0.91952 0.0
H264 H 0.32086 0.60254 0.96239 0.0
H265 H 0.33752 0.61254 0.99912 0.0
H266 H 0.30684 0.69257 0.98758 0.0
H267 H 0.28983 0.68265 0.95076 0.0
N268 N 0.26961 0.65219 0.91886 0.0
N269 N 0.27452 0.62331 0.89056 0.0
N270 N 0.30874 0.61293 0.92279 0.0
C271 C 0.25952 0.64604 0.89854 0.0
C272 C 0.29933 0.60671 0.90246 0.0
C273 C 0.29394 0.63556 0.93116 0.0
C274 C 0.23285 0.66375 0.88487 0.0
C275 C 0.22984 0.69024 0.88923 0.0
C276 C 0.2074 0.70689 0.87519 0.0
C277 C 0.18719 0.69733 0.8566 0.0
C278 C 0.1886 0.67066 0.85284 0.0
C279 C 0.21133 0.65416 0.86666 0.0
C280 C 0.31653 0.58232 0.89313 0.0
C281 C 0.30209 0.5745 0.87297 0.0
C282 C 0.31887 0.55186 0.86393 0.0
C283 C 0.35072 0.53645 0.87476 0.0
C284 C 0.36512 0.54425 0.89494 0.0
C285 C 0.34814 0.56683 0.90404 0.0
C286 C 0.30402 0.64179 0.95354 0.0
C287 C 0.31766 0.6223 0.96762 0.0
Tb288 Tb 0.08029 0.13187 0.24067 0.0
C289 C 0.88449 0.10767 0.26356 0.0
N290 N 0.90343 0.13157 0.262 0.0
C291 C 0.84096 0.14551 0.2403 0.0
C292 C 0.84316 0.10163 0.25313 0.0
C293 C 0.88216 0.15059 0.25085 0.0
C294 C 0.82143 0.12091 0.24139 0.0
C295 C 0.88965 0.06389 0.27661 0.0
C296 C 0.90791 0.08899 0.27496 0.0
C297 C 0.84845 0.05774 0.26622 0.0
C298 C 0.82525 0.07656 0.25454 0.0
Tb299 Tb 0.97075 0.13741 0.27954 0.0
N300 N 0.94854 0.09541 0.28431 0.0
C301 C 0.91314 0.04578 0.28881 0.0
C302 C 0.96927 0.07838 0.29767 0.0
C303 C 0.95269 0.0532 0.29966 0.0
H304 H 0.89702 0.16965 0.2501 0.0
H305 H 0.96996 0.03966 0.30991 0.0
H306 H 0.14177 0.08087 0.25472 0.0
H307 H 0.12583 0.23179 0.22953 0.0
H308 H 0.99758 0.08411 0.30749 0.0
H309 H 0.9003 0.02628 0.29046 0.0
H310 H 0.07554 0.19366 0.22744 0.0
H311 H 0.82431 0.16054 0.23131 0.0
H312 H 0.83411 0.0385 0.26721 0.0
H313 H 0.79349 0.07152 0.24665 0.0
H314 H 0.2196 0.07239 0.26841 0.0
H315 H 0.78965 0.117 0.23309 0.0
H316 H 0.20478 0.22762 0.24356 0.0
N317 N 0.1523 0.12131 0.25199 0.0
C318 C 0.18255 0.14114 0.2538 0.0
C319 C 0.20957 0.09185 0.26443 0.0
C320 C 0.22757 0.13716 0.2612 0.0
C321 C 0.16532 0.09677 0.25687 0.0
C322 C 0.24079 0.11214 0.26669 0.0
N323 N 0.12415 0.16843 0.24135 0.0
C324 C 0.10928 0.19168 0.2341 0.0
C325 C 0.19843 0.18666 0.2493 0.0
C326 C 0.16821 0.16551 0.24802 0.0
C327 C 0.18264 0.21085 0.24286 0.0
C328 C 0.13802 0.2133 0.23501 0.0
H329 H 0.27508 0.10827 0.27249 0.0
H330 H 0.29254 0.15559 0.26851 0.0
H331 H 0.26704 0.19894 0.25803 0.0
O332 O 0.0696 0.13807 0.20819 0.0
O333 O 0.09046 0.15508 0.26914 0.0
O334 O 0.0205 0.16905 0.28276 0.0
O335 O 0.11897 0.11041 0.21907 0.0
O336 O 0.02072 0.15545 0.23085 0.0
O337 O 0.98338 0.17156 0.26051 0.0
O338 O 0.96267 0.13625 0.31238 0.0
O339 O 0.96612 0.12108 0.2474 0.0
O340 O 0.03341 0.09952 0.24361 0.0
O341 O 0.91821 0.15956 0.29337 0.0
O342 O 0.03437 0.12083 0.29203 0.0
O343 O 0.06689 0.10096 0.26334 0.0
C344 C 0.06577 0.16944 0.28188 0.0
C345 C 0.13529 0.1313 0.18696 0.0
C346 C 0.15834 0.13495 0.14998 0.0
C347 C 0.20063 0.14541 0.15665 0.0
C348 C 0.17755 0.14192 0.19308 0.0
C349 C 0.20985 0.14905 0.17799 0.0
C350 C 0.12559 0.12816 0.16543 0.0
C351 C 0.996 0.17306 0.24063 0.0
C352 C 0.10201 0.12217 0.20279 0.0
C353 C 0.2578 0.15822 0.2628 0.0
C354 C 0.24328 0.18291 0.25684 0.0
C355 C 0.98915 0.10113 0.2406 0.0
C356 C 0.88796 0.1424 0.32526 0.0
C357 C 0.85483 0.13717 0.36042 0.0
C358 C 0.81575 0.12581 0.35121 0.0
C359 C 0.84859 0.13115 0.31641 0.0
C360 C 0.89094 0.14524 0.3472 0.0
C361 C 0.8128 0.12283 0.32938 0.0
C362 C 0.0641 0.10477 0.28375 0.0
C363 C 0.92685 0.15105 0.3122 0.0
H364 H 0.22728 0.15026 0.14546 0.0
H365 H 0.18606 0.14424 0.2095 0.0
H366 H 0.24258 0.15697 0.18288 0.0
H367 H 0.09262 0.12027 0.16082 0.0
H368 H 0.78705 0.11968 0.36081 0.0
H369 H 0.84535 0.12887 0.29957 0.0
H370 H 0.92175 0.1536 0.35396 0.0
H371 H 0.78245 0.11421 0.32246 0.0
Tb372 Tb 0.45784 0.37292 0.7433 0.0
C373 C 0.66941 0.37026 0.77194 0.0
N374 N 0.63921 0.35045 0.76994 0.0
C375 C 0.69795 0.32415 0.75469 0.0
C376 C 0.71523 0.36788 0.76516 0.0
C377 C 0.65289 0.32742 0.76175 0.0
C378 C 0.72927 0.34448 0.75636 0.0
C379 C 0.68396 0.41434 0.78269 0.0
C380 C 0.65398 0.39317 0.78058 0.0
C381 C 0.72976 0.41207 0.77606 0.0
C382 C 0.74535 0.38891 0.76729 0.0
Tb383 Tb 0.56701 0.358 0.78216 0.0
N384 N 0.60898 0.39491 0.78612 0.0
C385 C 0.66686 0.43718 0.79129 0.0
C386 C 0.59254 0.41685 0.79516 0.0
C387 C 0.62103 0.43837 0.79766 0.0
H388 H 0.62935 0.31134 0.76111 0.0
H389 H 0.60769 0.45582 0.80465 0.0
H390 H 0.38665 0.41052 0.76964 0.0
H391 H 0.43994 0.27618 0.71203 0.0
H392 H 0.55778 0.4179 0.8007 0.0
H393 H 0.68878 0.45391 0.79321 0.0
H394 H 0.47969 0.31695 0.71817 0.0
H395 H 0.70859 0.30588 0.74814 0.0
H396 H 0.75335 0.42814 0.77754 0.0
H397 H 0.78072 0.38747 0.76218 0.0
H398 H 0.30755 0.40784 0.78345 0.0
H399 H 0.76419 0.34188 0.75093 0.0
H400 H 0.36068 0.26989 0.72492 0.0
N401 N 0.3857 0.37267 0.75696 0.0
C402 C 0.36081 0.3509 0.75349 0.0
C403 C 0.32218 0.39166 0.77511 0.0
C404 C 0.31526 0.3487 0.76072 0.0
C405 C 0.36715 0.39303 0.76749 0.0
C406 C 0.2961 0.36941 0.77171 0.0
N407 N 0.42627 0.33321 0.73681 0.0
C408 C 0.44651 0.31429 0.72514 0.0
C409 C 0.35686 0.30771 0.7391 0.0
C410 C 0.38167 0.33057 0.74301 0.0
C411 C 0.37855 0.28776 0.72824 0.0
C412 C 0.42341 0.29118 0.72108 0.0
H413 H 0.26123 0.36844 0.77758 0.0
H414 H 0.2554 0.3239 0.76222 0.0
H415 H 0.2916 0.28815 0.74309 0.0
O416 O 0.45767 0.37483 0.71018 0.0
O417 O 0.44492 0.34985 0.77195 0.0
O418 O 0.51377 0.32993 0.77507 0.0
O419 O 0.41439 0.39968 0.72828 0.0
O420 O 0.51975 0.35531 0.7298 0.0
O421 O 0.55079 0.33108 0.75671 0.0
O422 O 0.56485 0.35945 0.81539 0.0
O423 O 0.57974 0.38392 0.75546 0.0
O424 O 0.51004 0.40299 0.74782 0.0
O425 O 0.60104 0.32929 0.79935 0.0
O426 O 0.50782 0.379 0.79505 0.0
O427 O 0.4721 0.40158 0.76786 0.0
C428 C 0.47119 0.33261 0.78099 0.0
C429 C 0.38692 0.38617 0.69475 0.0
C430 C 0.35836 0.3831 0.65854 0.0
C431 C 0.31628 0.37381 0.6663 0.0
C432 C 0.34412 0.37749 0.70206 0.0
C433 C 0.30926 0.37115 0.68791 0.0
C434 C 0.39371 0.38917 0.67293 0.0
C435 C 0.54889 0.33794 0.73677 0.0
C436 C 0.42498 0.39179 0.7095 0.0
C437 C 0.2905 0.32596 0.75683 0.0
C438 C 0.31117 0.30558 0.74597 0.0
C439 C 0.55476 0.40101 0.74533 0.0
C440 C 0.63264 0.34362 0.8317 0.0
C441 C 0.66275 0.35019 0.8673 0.0
C442 C 0.70756 0.34755 0.85945 0.0
C443 C 0.67789 0.34114 0.82427 0.0
C444 C 0.62533 0.34839 0.85326 0.0
C445 C 0.71498 0.3432 0.83806 0.0
C446 C 0.48005 0.39717 0.78804 0.0
C447 C 0.59296 0.34014 0.81739 0.0
H448 H 0.2883 0.36925 0.65568 0.0
H449 H 0.33734 0.37575 0.71867 0.0
H450 H 0.27646 0.36438 0.69373 0.0
H451 H 0.42655 0.39606 0.66717 0.0
H452 H 0.73694 0.34913 0.86984 0.0
H453 H 0.6848 0.33728 0.80785 0.0
H454 H 0.59057 0.35012 0.85918 0.0
H455 H 0.74965 0.34125 0.83217 0.0
Tb456 Tb 0.0451 0.87291 0.73633 0.0
C457 C 0.83893 0.84364 0.77042 0.0
N458 N 0.86294 0.86587 0.77286 0.0
C459 C 0.79359 0.8902 0.76804 0.0
C460 C 0.79135 0.84378 0.76629 0.0
C461 C 0.84051 0.88902 0.77262 0.0
C462 C 0.76899 0.86749 0.76457 0.0
C463 C 0.83719 0.79718 0.77375 0.0
C464 C 0.86145 0.82071 0.77393 0.0
C465 C 0.79014 0.79708 0.7689 0.0
C466 C 0.76732 0.82033 0.765 0.0
Tb467 Tb 0.93988 0.86159 0.77996 0.0
N468 N 0.90659 0.82171 0.77917 0.0
C469 C 0.86063 0.77465 0.7792 0.0
C470 C 0.92873 0.80006 0.78593 0.0
C471 C 0.90648 0.77616 0.78557 0.0
H472 H 0.85881 0.90671 0.77596 0.0
H473 H 0.92451 0.75898 0.79049 0.0
H474 H 0.12187 0.83643 0.76084 0.0
H475 H 0.05947 0.97083 0.70758 0.0
H476 H 0.96349 0.80126 0.79159 0.0
H477 H 0.84329 0.75617 0.77919 0.0
H478 H 0.02857 0.92652 0.70825 0.0
H479 H 0.77633 0.90861 0.76744 0.0
H480 H 0.77093 0.77918 0.76851 0.0
H481 H 0.73081 0.82003 0.76173 0.0
H482 H 0.19287 0.84258 0.78125 0.0
H483 H 0.73249 0.86843 0.76135 0.0
H484 H 0.1259 0.98245 0.72983 0.0
N485 N 0.1133 0.87622 0.75411 0.0
C486 C 0.13316 0.89987 0.75464 0.0
C487 C 0.17608 0.85896 0.7741 0.0
C488 C 0.17436 0.9043 0.76571 0.0
C489 C 0.13522 0.85559 0.76282 0.0
C490 C 0.1954 0.88352 0.77583 0.0
N491 N 0.07387 0.91384 0.73241 0.0
C492 C 0.05621 0.93162 0.7188 0.0
C493 C 0.13222 0.94425 0.74313 0.0
C494 C 0.11242 0.91945 0.74354 0.0
C495 C 0.11184 0.96313 0.73057 0.0
C496 C 0.0742 0.95664 0.71803 0.0
H497 H 0.22713 0.88608 0.7845 0.0
H498 H 0.22505 0.933 0.77447 0.0
H499 H 0.1879 0.96812 0.75479 0.0
O500 O 0.05843 0.87873 0.70422 0.0
O501 O 0.04778 0.88545 0.76915 0.0
O502 O 0.97587 0.89851 0.77886 0.0
O503 O 0.08311 0.84489 0.71975 0.0
O504 O 0.98459 0.89759 0.73084 0.0
O505 O 0.92769 0.89316 0.75715 0.0
O506 O 0.96008 0.852 0.81103 0.0
O507 O 0.94397 0.83428 0.75345 0.0
O508 O 0.97618 0.85975 0.72782 0.0
O509 O 0.9034 0.87708 0.80548 0.0
O510 O 0.00952 0.84616 0.78408 0.0
O511 O 0.03868 0.83521 0.75155 0.0
C512 C 0.01997 0.90294 0.77659 0.0
C513 C 0.12548 0.86071 0.69043 0.0
C514 C 0.16463 0.86046 0.65635 0.0
C515 C 0.20499 0.86892 0.66642 0.0
C516 C 0.16604 0.86911 0.70016 0.0
C517 C 0.20562 0.87311 0.68817 0.0
C518 C 0.12497 0.85638 0.6686 0.0
C519 C 0.94498 0.90382 0.73986 0.0
C520 C 0.08239 0.85792 0.70227 0.0
C521 C 0.19355 0.92914 0.76594 0.0
C522 C 0.17238 0.94913 0.75475 0.0
C523 C 0.95519 0.83857 0.73365 0.0
C524 C 0.89929 0.85157 0.83598 0.0
C525 C 0.87865 0.84598 0.87301 0.0
C526 C 0.84166 0.83026 0.86689 0.0
C527 C 0.86205 0.83582 0.83032 0.0
C528 C 0.90788 0.85636 0.85747 0.0
C529 C 0.8337 0.82508 0.84567 0.0
C530 C 0.03139 0.8301 0.7716 0.0
C531 C 0.92668 0.86476 0.81963 0.0
H532 H 0.23622 0.872 0.65752 0.0
H533 H 0.16702 0.87277 0.71692 0.0
H534 H 0.23688 0.87959 0.69575 0.0
H535 H 0.09323 0.85041 0.66108 0.0
H536 H 0.81892 0.82197 0.87857 0.0
H537 H 0.85408 0.83229 0.81406 0.0
H538 H 0.9361 0.86882 0.86203 0.0
H539 H 0.80499 0.81304 0.84108 0.0
Tb540 Tb 0.45586 0.63618 0.22786 0.0
C541 C 0.63432 0.66158 0.26343 0.0
N542 N 0.61226 0.63863 0.26043 0.0
C543 C 0.67535 0.62392 0.23929 0.0
C544 C 0.67667 0.66693 0.25359 0.0
C545 C 0.63371 0.61935 0.24958 0.0
C546 C 0.69657 0.64793 0.24101 0.0
C547 C 0.63665 0.70356 0.28044 0.0
C548 C 0.61489 0.67972 0.27683 0.0
C549 C 0.67838 0.70906 0.27035 0.0
C550 C 0.69829 0.69082 0.25694 0.0
Tb551 Tb 0.54449 0.63465 0.27866 0.0
N552 N 0.57354 0.67429 0.28569 0.0
C553 C 0.61545 0.72128 0.2939 0.0
C554 C 0.55287 0.69125 0.29905 0.0
C555 C 0.57345 0.71505 0.3033 0.0
H556 H 0.62033 0.60004 0.24927 0.0
H557 H 0.55686 0.72861 0.31372 0.0
H558 H 0.36138 0.65087 0.25439 0.0
H559 H 0.48962 0.56395 0.16888 0.0
H560 H 0.52032 0.68643 0.30623 0.0
H561 H 0.63111 0.73982 0.29708 0.0
H562 H 0.50667 0.60262 0.1902 0.0
H563 H 0.69158 0.60869 0.23039 0.0
H564 H 0.69556 0.72734 0.27282 0.0
H565 H 0.73071 0.69527 0.24941 0.0
H566 H 0.28388 0.63272 0.25939 0.0
H567 H 0.72906 0.65129 0.23317 0.0
H568 H 0.41558 0.54119 0.17309 0.0
N569 N 0.38314 0.62112 0.23371 0.0
C570 C 0.37035 0.60011 0.22239 0.0
C571 C 0.30804 0.6232 0.24909 0.0
C572 C 0.32631 0.58917 0.22457 0.0
C573 C 0.35223 0.6333 0.24642 0.0
C574 C 0.29513 0.6009 0.23827 0.0
N575 N 0.44384 0.60088 0.20712 0.0
C576 C 0.47473 0.5924 0.19256 0.0
C577 C 0.39062 0.56751 0.19686 0.0
C578 C 0.40209 0.58941 0.20886 0.0
C579 C 0.42303 0.55795 0.18266 0.0
C580 C 0.46502 0.57067 0.18031 0.0
H581 H 0.2609 0.59312 0.24039 0.0
H582 H 0.28128 0.55823 0.21448 0.0
H583 H 0.3376 0.53929 0.19013 0.0
O584 O 0.45219 0.64492 0.19562 0.0
O585 O 0.43634 0.608 0.25207 0.0
O586 O 0.48788 0.6069 0.2807 0.0
O587 O 0.42449 0.67096 0.2185 0.0
O588 O 0.52406 0.61871 0.22735 0.0
O589 O 0.5419 0.60021 0.25894 0.0
O590 O 0.54259 0.63667 0.31183 0.0
O591 O 0.53284 0.66925 0.25946 0.0
O592 O 0.52599 0.65057 0.22754 0.0
O593 O 0.59241 0.6133 0.29609 0.0
O594 O 0.47491 0.64735 0.2856 0.0
O595 O 0.4446 0.66369 0.25398 0.0
C596 C 0.45076 0.59916 0.27041 0.0
C597 C 0.38576 0.66684 0.18547 0.0
C598 C 0.35066 0.66722 0.15043 0.0
C599 C 0.30717 0.66505 0.15983 0.0
C600 C 0.34188 0.66505 0.1945 0.0
C601 C 0.3029 0.66415 0.18171 0.0
C602 C 0.38987 0.66823 0.16341 0.0
C603 C 0.53392 0.59832 0.23866 0.0
C604 C 0.4277 0.66538 0.19853 0.0
C605 C 0.3149 0.56702 0.21298 0.0
C606 C 0.34701 0.55621 0.19915 0.0
C607 C 0.53674 0.67054 0.23897 0.0
C608 C 0.61499 0.63265 0.32823 0.0
C609 C 0.64124 0.64176 0.364 0.0
C610 C 0.6841 0.64933 0.35594 0.0
C611 C 0.65794 0.64057 0.32046 0.0
C612 C 0.60668 0.63358 0.35001 0.0
C613 C 0.69218 0.6489 0.33428 0.0
C614 C 0.44444 0.66063 0.27471 0.0
C615 C 0.57903 0.62263 0.31404 0.0
H616 H 0.27639 0.66442 0.15026 0.0
H617 H 0.33762 0.66411 0.21137 0.0
H618 H 0.26922 0.66262 0.1888 0.0
H619 H 0.42369 0.66937 0.15635 0.0
H620 H 0.71115 0.65585 0.36638 0.0
H621 H 0.66526 0.64009 0.30377 0.0
H622 H 0.57367 0.6274 0.3561 0.0
H623 H 0.72521 0.65491 0.32819 0.0
H624 H 0.14691 0.9713 0.33221 0.0
H625 H 0.18971 0.01403 0.38764 0.0
H626 H 0.16842 0.05465 0.37007 0.0
H627 H 0.18788 0.01837 0.29354 0.0
H628 H 0.14005 0.01309 0.27604 0.0
H629 H 0.16012 0.9873 0.29263 0.0
H630 H 0.07826 0.98207 0.30815 0.0
H631 H 0.05806 0.00782 0.29161 0.0
H632 H 0.05027 0.00958 0.3197 0.0
H633 H 0.13826 0.09032 0.34749 0.0
H634 H 0.10177 0.11867 0.32107 0.0
H635 H 0.08216 0.05328 0.27962 0.0
C636 C 0.15255 0.98921 0.34056 0.0
C637 C 0.16991 0.98939 0.36139 0.0
C638 C 0.17584 0.01329 0.37183 0.0
C639 C 0.16422 0.0365 0.36191 0.0
C640 C 0.14702 0.03559 0.34147 0.0
C641 C 0.14135 0.01259 0.33085 0.0
C642 C 0.12084 0.01694 0.30918 0.0
C643 C 0.15423 0.00842 0.29182 0.0
C644 C 0.07409 0.00329 0.30705 0.0
C645 C 0.11538 0.04593 0.3094 0.0
C646 C 0.13073 0.0563 0.32818 0.0
C647 C 0.1267 0.08247 0.33262 0.0
C648 C 0.10592 0.09839 0.31758 0.0
C649 C 0.08987 0.08812 0.29831 0.0
C650 C 0.09524 0.06164 0.29405 0.0
H651 H 0.37367 0.52775 0.83321 0.0
H652 H 0.36854 0.49039 0.89435 0.0
H653 H 0.40005 0.4508 0.87866 0.0
H654 H 0.33955 0.47134 0.80289 0.0
H655 H 0.3769 0.47895 0.78115 0.0
H656 H 0.35365 0.50443 0.79712 0.0
H657 H 0.43598 0.52122 0.80462 0.0
H658 H 0.4594 0.49577 0.7887 0.0
H659 H 0.47804 0.4996 0.81558 0.0
H660 H 0.43381 0.41563 0.85667 0.0
H661 H 0.46636 0.38693 0.82965 0.0
H662 H 0.44732 0.44646 0.78247 0.0
C663 C 0.37858 0.51118 0.84329 0.0
C664 C 0.36876 0.51234 0.86511 0.0
C665 C 0.37649 0.49023 0.87771 0.0
C666 C 0.39406 0.46755 0.86891 0.0
C667 C 0.4035 0.46714 0.84743 0.0
C668 C 0.39586 0.48831 0.83474 0.0
C669 C 0.40926 0.4828 0.81212 0.0
C670 C 0.36733 0.48448 0.79746 0.0
C671 C 0.44797 0.50093 0.80484 0.0
C672 C 0.42602 0.45531 0.81414 0.0
C673 C 0.42236 0.44667 0.83464 0.0
C674 C 0.43663 0.42214 0.84054 0.0
C675 C 0.45522 0.40601 0.82508 0.0
C676 C 0.45926 0.41441 0.80393 0.0
C677 C 0.44423 0.43939 0.79844 0.0
H678 H 0.58242 0.52181 0.66759 0.0
H679 H 0.72849 0.50573 0.66723 0.0
H680 H 0.7156 0.46822 0.69039 0.0
H681 H 0.56393 0.5062 0.7216 0.0
H682 H 0.50839 0.49163 0.71753 0.0
H683 H 0.52833 0.51646 0.69995 0.0
H684 H 0.51633 0.48597 0.66812 0.0
H685 H 0.49613 0.46108 0.68561 0.0
H686 H 0.54341 0.4548 0.6681 0.0
H687 H 0.68763 0.43308 0.71365 0.0
H688 H 0.64649 0.40236 0.73614 0.0
H689 H 0.51816 0.44172 0.72295 0.0
C690 C 0.6115 0.51014 0.67218 0.0
C691 C 0.65648 0.51659 0.66564 0.0
C692 C 0.69385 0.50116 0.6722 0.0
C693 C 0.68685 0.4798 0.68527 0.0
C694 C 0.64226 0.47417 0.69171 0.0
C695 C 0.60516 0.48881 0.68542 0.0
C696 C 0.56102 0.47895 0.69526 0.0
C697 C 0.53915 0.49954 0.70943 0.0
C698 C 0.52723 0.46965 0.67826 0.0
C699 C 0.57927 0.4566 0.70813 0.0
C700 C 0.62617 0.45415 0.7057 0.0
C701 C 0.65093 0.43489 0.71579 0.0
C702 C 0.62716 0.41761 0.72872 0.0
C703 C 0.5791 0.41984 0.73176 0.0
C704 C 0.55493 0.43961 0.72119 0.0
H705 H 0.83294 0.02026 0.16071 0.0
H706 H 0.88576 0.95182 0.19133 0.0
H707 H 0.92755 0.97892 0.21692 0.0
H708 H 0.93281 0.05932 0.16606 0.0
H709 H 0.90237 0.08867 0.17179 0.0
H710 H 0.87539 0.06397 0.15617 0.0
H711 H 0.80709 0.06328 0.18203 0.0
H712 H 0.83407 0.08741 0.19831 0.0
H713 H 0.81711 0.05694 0.20952 0.0
H714 H 0.96852 0.01263 0.23699 0.0
H715 H 0.00422 0.05176 0.25184 0.0
H716 H 0.9208 0.09925 0.21079 0.0
C717 C 0.85325 0.01114 0.17289 0.0
C718 C 0.85637 0.98402 0.17414 0.0
C719 C 0.88294 0.97258 0.19026 0.0
C720 C 0.90669 0.98778 0.20484 0.0
C721 C 0.9029 0.01443 0.2033 0.0
C722 C 0.87657 0.02611 0.18791 0.0
C723 C 0.87885 0.05524 0.18989 0.0
C724 C 0.89854 0.06751 0.16978 0.0
C725 C 0.83146 0.06638 0.19526 0.0
C726 C 0.91178 0.05799 0.20829 0.0
C727 C 0.9251 0.03413 0.21574 0.0
C728 C 0.95787 0.03144 0.23154 0.0
C729 C 0.97811 0.05371 0.23978 0.0
C730 C 0.96489 0.07832 0.23249 0.0
C731 C 0.93077 0.08056 0.21681 0.0
H732 H 0.89832 0.02592 0.66707 0.0
H733 H 0.7563 1.0013 0.66271 0.0
H734 H 0.77289 0.96463 0.68647 0.0
H735 H 0.94755 0.96296 0.6678 0.0
H736 H 0.992 0.97079 0.6864 0.0
H737 H 0.96968 0.99537 0.66927 0.0
H738 H 0.94895 0.02398 0.70114 0.0
H739 H 0.97219 1.0 0.71862 0.0
H740 H 0.91396 0.01092 0.72199 0.0
H741 H 0.80646 0.92946 0.7095 0.0
H742 H 0.85387 0.89955 0.73058 0.0
H743 H 0.97093 0.95022 0.7231 0.0
C744 C 0.87084 0.01269 0.67104 0.0
C745 C 0.82613 0.01623 0.663 0.0
C746 C 0.79079 0.99882 0.66875 0.0
C747 C 0.7999 0.97799 0.68221 0.0
C748 C 0.84436 0.97511 0.68998 0.0
C749 C 0.87915 0.99211 0.68473 0.0
C750 C 0.92388 0.98481 0.69526 0.0
C751 C 0.96043 0.9781 0.6787 0.0
C752 C 0.94071 0.00621 0.71014 0.0
C753 C 0.90883 0.96116 0.70736 0.0
C754 C 0.86299 0.95566 0.70394 0.0
C755 C 0.84217 0.93388 0.71259 0.0
C756 C 0.86913 0.91719 0.72481 0.0
C757 C 0.91605 0.92264 0.72859 0.0
C758 C 0.93567 0.94516 0.72003 0.0
H759 H 0.64637 0.49867 0.15784 0.0
H760 H 0.5692 0.43885 0.18994 0.0
H761 H 0.5347 0.47154 0.21322 0.0
H762 H 0.67069 0.53615 0.2044 0.0
H763 H 0.66568 0.56672 0.19116 0.0
H764 H 0.68368 0.53865 0.17675 0.0
H765 H 0.61918 0.54676 0.15031 0.0
H766 H 0.59697 0.5738 0.16482 0.0
H767 H 0.56038 0.54668 0.15881 0.0
H768 H 0.51124 0.50999 0.23395 0.0
H769 H 0.49836 0.55251 0.25036 0.0
H770 H 0.58906 0.58797 0.20467 0.0
C771 C 0.62181 0.49255 0.16963 0.0
C772 C 0.61034 0.46625 0.17211 0.0
C773 C 0.57864 0.45889 0.1879 0.0
C774 C 0.55879 0.4773 0.20114 0.0
C775 C 0.57112 0.50302 0.19844 0.0
C776 C 0.60195 0.51071 0.18314 0.0
C777 C 0.61015 0.53955 0.18402 0.0
C778 C 0.66054 0.54561 0.18941 0.0
C779 C 0.59577 0.55249 0.16328 0.0
C780 C 0.57862 0.54687 0.20202 0.0
C781 C 0.55678 0.52542 0.21021 0.0
C782 C 0.52774 0.52697 0.22756 0.0
C783 C 0.52074 0.55111 0.23681 0.0
C784 C 0.54216 0.57333 0.22851 0.0
C785 C 0.57163 0.57121 0.21098 0.0
H786 H 0.36245 0.51149 0.36529 0.0
H787 H 0.30546 0.45973 0.31825 0.0
H788 H 0.32907 0.48973 0.29029 0.0
H789 H 0.33433 0.57139 0.33918 0.0
H790 H 0.38739 0.58694 0.34651 0.0
H791 H 0.36327 0.56227 0.36314 0.0
H792 H 0.43927 0.53655 0.36104 0.0
H793 H 0.46365 0.5612 0.3445 0.0
H794 H 0.46239 0.52824 0.33563 0.0
H795 H 0.3604 0.52484 0.26715 0.0
H796 H 0.40142 0.56129 0.25066 0.0
H797 H 0.44096 0.58922 0.31243 0.0
C798 C 0.355 0.50635 0.34913 0.0
C799 C 0.3314 0.48328 0.34413 0.0
C800 C 0.3223 0.47753 0.32268 0.0
C801 C 0.33586 0.49439 0.3066 0.0
C802 C 0.35889 0.51691 0.31211 0.0
C803 C 0.36871 0.52285 0.33284 0.0
C804 C 0.39573 0.54775 0.33442 0.0
C805 C 0.36854 0.5683 0.34653 0.0
C806 C 0.44307 0.54315 0.34449 0.0
C807 C 0.39999 0.55468 0.31135 0.0
C808 C 0.37801 0.53682 0.29874 0.0
C809 C 0.37752 0.53903 0.27687 0.0
C810 C 0.40055 0.55992 0.26764 0.0
C811 C 0.424 0.57818 0.28025 0.0
C812 C 0.42341 0.57551 0.30239 0.0
H813 H 0.15617 0.00206 0.84896 0.0
H814 H 0.07701 0.06256 0.81904 0.0
H815 H 0.04348 0.03075 0.79458 0.0
H816 H 0.17947 0.96585 0.80102 0.0
H817 H 0.17367 0.93466 0.81329 0.0
H818 H 0.19368 0.96184 0.82841 0.0
H819 H 0.12914 0.95557 0.85566 0.0
H820 H 0.10936 0.92777 0.84135 0.0
H821 H 0.07032 0.95375 0.84692 0.0
H822 H 0.0124 0.9922 0.77608 0.0
H823 H 0.98786 0.94915 0.76379 0.0
H824 H 0.09063 0.91358 0.80356 0.0
C825 C 0.13194 0.00857 0.83718 0.0
C826 C 0.11927 0.03478 0.83583 0.0
C827 C 0.08761 0.04263 0.82016 0.0
C828 C 0.06834 0.02471 0.80623 0.0
C829 C 0.08148 0.99904 0.80798 0.0
C830 C 0.11275 0.99095 0.82295 0.0
C831 C 0.11988 0.96207 0.82182 0.0
C832 C 0.16963 0.95572 0.81576 0.0
C833 C 0.10635 0.94903 0.84267 0.0
C834 C 0.08674 0.95512 0.80429 0.0
C835 C 0.06496 0.97679 0.79655 0.0
C836 C 0.02981 0.97515 0.78171 0.0
C837 C 0.01599 0.95069 0.77488 0.0
C838 C 0.03782 0.92835 0.7826 0.0
C839 C 0.0742 0.93056 0.79715 0.0
H840 H 0.19644 0.15558 0.02673 0.0
H841 H 0.10912 0.08886 0.01593 0.0
H842 H 0.09681 0.08486 0.05415 0.0
H843 H 0.24915 0.13448 0.0735 0.0
H844 H 0.24888 0.16562 0.08602 0.0
H845 H 0.25065 0.16337 0.05776 0.0
H846 H 0.17779 0.19172 0.05505 0.0
H847 H 0.17592 0.19417 0.08331 0.0
H848 H 0.12663 0.18235 0.06908 0.0
H849 H 0.09756 0.08677 0.09391 0.0
H850 H 0.10892 0.09537 0.13168 0.0
H851 H 0.18859 0.16364 0.11601 0.0
C852 C 0.17401 0.14036 0.03223 0.0
C853 C 0.1541 0.12244 0.01809 0.0
C854 C 0.12573 0.10255 0.02629 0.0
C855 C 0.11812 0.10024 0.04803 0.0
C856 C 0.13847 0.11817 0.06143 0.0
C857 C 0.16541 0.13801 0.05381 0.0
C858 C 0.18332 0.15478 0.07152 0.0
C859 C 0.23612 0.15453 0.07224 0.0
C860 C 0.1648 0.18239 0.06962 0.0
C861 C 0.16291 0.14099 0.09033 0.0
C862 C 0.13724 0.1199 0.08421 0.0
C863 C 0.11696 0.1035 0.09888 0.0
C864 C 0.12333 0.10872 0.12038 0.0
C865 C 0.14946 0.13033 0.12709 0.0
C866 C 0.16886 0.14678 0.11166 0.0
H867 H 0.31773 0.35383 0.53654 0.0
H868 H 0.36462 0.43189 0.52399 0.0
H869 H 0.38413 0.43711 0.5614 0.0
H870 H 0.26188 0.36916 0.58461 0.0
H871 H 0.27617 0.33916 0.59728 0.0
H872 H 0.27034 0.34051 0.56909 0.0
H873 H 0.35236 0.32201 0.56495 0.0
H874 H 0.35852 0.32071 0.59315 0.0
H875 H 0.39998 0.33805 0.57754 0.0
H876 H 0.39605 0.43464 0.60066 0.0
H877 H 0.39384 0.42563 0.63888 0.0
H878 H 0.33478 0.35043 0.62622 0.0
C879 C 0.33198 0.3721 0.54153 0.0
C880 C 0.34004 0.39229 0.52696 0.0
C881 C 0.35916 0.41575 0.53448 0.0
C882 C 0.37015 0.41902 0.55583 0.0
C883 C 0.36153 0.39879 0.56967 0.0
C884 C 0.34254 0.37585 0.56285 0.0
C885 C 0.33394 0.35773 0.58116 0.0
C886 C 0.28253 0.35127 0.58315 0.0
C887 C 0.36294 0.33318 0.57907 0.0
C888 C 0.35038 0.37423 0.59936 0.0
C889 C 0.36686 0.39769 0.59237 0.0
C890 C 0.38338 0.41629 0.60631 0.0
C891 C 0.38224 0.41096 0.62798 0.0
C892 C 0.36417 0.38736 0.63553 0.0
C893 C 0.34861 0.3687 0.62093 0.0
H894 H 0.70946 0.33184 0.99033 0.0
H895 H 0.62876 0.40101 1.00051 0.0
H896 H 0.61162 0.403 0.96267 0.0
H897 H 0.76118 0.35408 0.94232 0.0
H898 H 0.76145 0.32268 0.93024 0.0
H899 H 0.76476 0.32557 0.95844 0.0
H900 H 0.69342 0.29599 0.96219 0.0
H901 H 0.68971 0.29315 0.93398 0.0
H902 H 0.64097 0.30439 0.94878 0.0
H903 H 0.60301 0.39769 0.92342 0.0
H904 H 0.60977 0.38748 0.88547 0.0
H905 H 0.70036 0.32394 0.90051 0.0
C906 C 0.68844 0.34755 0.9847 0.0
C907 C 0.66993 0.36599 0.99874 0.0
C908 C 0.64233 0.38609 0.99041 0.0
C909 C 0.63259 0.38755 0.96882 0.0
C910 C 0.65111 0.36899 0.95555 0.0
C911 C 0.67891 0.34956 0.96312 0.0
C912 C 0.69636 0.33279 0.94534 0.0
C913 C 0.74906 0.33386 0.94401 0.0
C914 C 0.67907 0.30493 0.94772 0.0
C915 C 0.67425 0.34594 0.92661 0.0
C916 C 0.64775 0.36658 0.93285 0.0
C917 C 0.62375 0.38159 0.91834 0.0
C918 C 0.62756 0.3756 0.89686 0.0
C919 C 0.65565 0.35501 0.8901 0.0
C920 C 0.67889 0.33991 0.90524 0.0
H921 H 0.80947 0.10534 0.48215 0.0
H922 H 0.87321 0.17886 0.49674 0.0
H923 H 0.88879 0.18586 0.45903 0.0
H924 H 0.88829 0.08784 0.43949 0.0
H925 H 0.84369 0.07303 0.42392 0.0
H926 H 0.83943 0.07322 0.45221 0.0
H927 H 0.75986 0.09516 0.44951 0.0
H928 H 0.76401 0.0952 0.42124 0.0
H929 H 0.75443 0.12495 0.43514 0.0
H930 H 0.89408 0.18601 0.41973 0.0
H931 H 0.89003 0.17894 0.38143 0.0
H932 H 0.82515 0.10466 0.3921 0.0
C933 C 0.82738 0.12271 0.47744 0.0
C934 C 0.83993 0.14161 0.49243 0.0
C935 C 0.86269 0.16427 0.48555 0.0
C936 C 0.87194 0.16836 0.46417 0.0
C937 C 0.85845 0.14957 0.44979 0.0
C938 C 0.8369 0.12712 0.45611 0.0
C939 C 0.82489 0.11038 0.43732 0.0
C940 C 0.85062 0.08459 0.4383 0.0
C941 C 0.7727 0.10619 0.43572 0.0
C942 C 0.84247 0.1271 0.41948 0.0
C943 C 0.86188 0.14956 0.42705 0.0
C944 C 0.87946 0.16835 0.41361 0.0
C945 C 0.87722 0.16407 0.39185 0.0
C946 C 0.8576 0.14115 0.38363 0.0
C947 C 0.84011 0.12246 0.39778 0.0
H948 H 0.79506 0.88272 0.98855 0.0
H949 H 0.9223 0.85073 0.01208 0.0
H950 H 0.94927 0.84423 0.97544 0.0
H951 H 0.78191 0.8379 0.94679 0.0
H952 H 0.7571 0.86076 0.92874 0.0
H953 H 0.75017 0.86509 0.95666 0.0
H954 H 0.78543 0.91084 0.95378 0.0
H955 H 0.79265 0.90659 0.92583 0.0
H956 H 0.84129 0.91492 0.94204 0.0
H957 H 0.96152 0.84076 0.9359 0.0
H958 H 0.95452 0.83621 0.89713 0.0
H959 H 0.81715 0.86777 0.89989 0.0
C960 C 0.82883 0.87467 0.9859 0.0
C961 C 0.85698 0.86749 1.00299 0.0
C962 C 0.9005 0.85645 0.99908 0.0
C963 C 0.91609 0.85281 0.97837 0.0
C964 C 0.88744 0.86004 0.96178 0.0
C965 C 0.84448 0.87046 0.96535 0.0
C966 C 0.81886 0.87471 0.9449 0.0
C967 C 0.77439 0.85865 0.94424 0.0
C968 C 0.80899 0.90348 0.94144 0.0
C969 C 0.85385 0.86487 0.92926 0.0
C970 C 0.89357 0.85692 0.93923 0.0
C971 C 0.93059 0.84694 0.92795 0.0
C972 C 0.92647 0.84454 0.90598 0.0
C973 C 0.88538 0.85166 0.89566 0.0
C974 C 0.84896 0.86222 0.90746 0.0
H975 H 0.69868 0.61667 0.48527 0.0
H976 H 0.58004 0.66308 0.50079 0.0
H977 H 0.56218 0.66778 0.46284 0.0
H978 H 0.73296 0.6539 0.44084 0.0
H979 H 0.75233 0.62666 0.42572 0.0
H980 H 0.75371 0.62546 0.45403 0.0
H981 H 0.70446 0.58382 0.45347 0.0
H982 H 0.70298 0.58488 0.42513 0.0
H983 H 0.65014 0.58376 0.43984 0.0
H984 H 0.55754 0.66732 0.42312 0.0
H985 H 0.56975 0.66452 0.3846 0.0
H986 H 0.69392 0.62052 0.39515 0.0
C987 C 0.66865 0.62754 0.48062 0.0
C988 C 0.64039 0.63933 0.49585 0.0
C989 C 0.60196 0.65389 0.48928 0.0
C990 C 0.59152 0.65657 0.46781 0.0
C991 C 0.62019 0.6448 0.45315 0.0
C992 C 0.65821 0.63076 0.45927 0.0
C993 C 0.68494 0.62127 0.44038 0.0
C994 C 0.73388 0.6325 0.44024 0.0
C995 C 0.68565 0.59168 0.43967 0.0
C996 C 0.65619 0.63227 0.42267 0.0
C997 C 0.61863 0.64547 0.43034 0.0
C998 C 0.58687 0.65707 0.41694 0.0
C999 C 0.59396 0.65533 0.39513 0.0
C1000 C 0.63282 0.64242 0.387 0.0
C1001 C 0.66414 0.63069 0.40099 0.0
H1002 H 0.29368 0.62772 0.03152 0.0
H1003 H 0.37705 0.69255 0.01149 0.0
H1004 H 0.39527 0.7024 0.04868 0.0
H1005 H 0.24561 0.65835 0.07683 0.0
H1006 H 0.24586 0.6296 0.09273 0.0
H1007 H 0.24094 0.62715 0.06455 0.0
H1008 H 0.31191 0.5972 0.06365 0.0
H1009 H 0.31708 0.59958 0.09184 0.0
H1010 H 0.3651 0.60791 0.07529 0.0
H1011 H 0.40511 0.70476 0.08824 0.0
H1012 H 0.40119 0.70136 0.12707 0.0
H1013 H 0.30933 0.63588 0.1212 0.0
C1014 C 0.31606 0.64387 0.03497 0.0
C1015 C 0.33411 0.65933 0.01862 0.0
C1016 C 0.36264 0.68056 0.02378 0.0
C1017 C 0.37338 0.6862 0.04484 0.0
C1018 C 0.35504 0.67055 0.06059 0.0
C1019 C 0.32669 0.64993 0.05591 0.0
C1020 C 0.31011 0.63668 0.07577 0.0
C1021 C 0.25751 0.63804 0.07757 0.0
C1022 C 0.32707 0.60869 0.07669 0.0
C1023 C 0.33334 0.65313 0.09237 0.0
C1024 C 0.35957 0.67238 0.0833 0.0
C1025 C 0.3846 0.6898 0.0955 0.0
C1026 C 0.38235 0.68766 0.11752 0.0
C1027 C 0.35483 0.66845 0.12713 0.0
C1028 C 0.33028 0.65092 0.1143 0.0
H1029 H 0.2195 0.88953 0.53493 0.0
H1030 H 0.14602 0.8191 0.51977 0.0
H1031 H 0.13027 0.81209 0.55751 0.0
H1032 H 0.27222 0.86651 0.58227 0.0
H1033 H 0.26684 0.8966 0.59617 0.0
H1034 H 0.27163 0.89646 0.56791 0.0
H1035 H 0.1958 0.92217 0.56491 0.0
H1036 H 0.19087 0.92247 0.59317 0.0
H1037 H 0.14461 0.90988 0.57734 0.0
H1038 H 0.12256 0.81259 0.5969 0.0
H1039 H 0.12453 0.82024 0.63525 0.0
H1040 H 0.20277 0.89039 0.625 0.0
C1041 C 0.19974 0.87275 0.53954 0.0
C1042 C 0.18411 0.85481 0.52435 0.0
C1043 C 0.15887 0.83294 0.5311 0.0
C1044 C 0.14952 0.82886 0.5525 0.0
C1045 C 0.16567 0.8468 0.56705 0.0
C1046 C 0.19027 0.86831 0.56088 0.0
C1047 C 0.2043 0.88439 0.57977 0.0
C1048 C 0.25687 0.88608 0.58163 0.0
C1049 C 0.18259 0.91132 0.57873 0.0
C1050 C 0.18386 0.86851 0.5975 0.0
C1051 C 0.16154 0.84698 0.5898 0.0
C1052 C 0.13985 0.82943 0.60311 0.0
C1053 C 0.14096 0.83401 0.62487 0.0
C1054 C 0.16375 0.85592 0.63319 0.0
C1055 C 0.18549 0.87333 0.6192 0.0
H1056 H 0.1063 0.28881 0.35972 0.0
H1057 H 0.24155 0.25733 0.37203 0.0
H1058 H 0.22475 0.22099 0.34819 0.0
H1059 H 0.04655 0.22689 0.35694 0.0
H1060 H 0.0086 0.23716 0.33616 0.0
H1061 H 0.03067 0.26032 0.35473 0.0
H1062 H 0.06293 0.28761 0.32392 0.0
H1063 H 0.04129 0.26443 0.30529 0.0
H1064 H 0.10133 0.27292 0.30524 0.0
H1065 H 0.19569 0.18981 0.32141 0.0
H1066 H 0.15332 0.16312 0.29592 0.0
H1067 H 0.03553 0.21375 0.30137 0.0
C1068 C 0.13219 0.27414 0.3575 0.0
C1069 C 0.1752 0.27583 0.36781 0.0
C1070 C 0.20816 0.25623 0.36456 0.0
C1071 C 0.19907 0.23563 0.35092 0.0
C1072 C 0.15668 0.23475 0.34078 0.0
C1073 C 0.12349 0.25325 0.34409 0.0
C1074 C 0.08069 0.24761 0.33123 0.0
C1075 C 0.03917 0.2427 0.34563 0.0
C1076 C 0.07101 0.26945 0.31549 0.0
C1077 C 0.09526 0.2232 0.32001 0.0
C1078 C 0.13938 0.21629 0.32565 0.0
C1079 C 0.16101 0.19492 0.31698 0.0
C1080 C 0.13673 0.18 0.30236 0.0
C1081 C 0.09113 0.18638 0.29659 0.0
C1082 C 0.07022 0.20831 0.30557 0.0
H1083 H 0.28029 0.25218 0.84329 0.0
H1084 H 0.39096 0.22059 0.88097 0.0
H1085 H 0.44637 0.24868 0.86251 0.0
H1086 H 0.34155 0.25565 0.79573 0.0
H1087 H 0.31655 0.28549 0.78709 0.0
H1088 H 0.28475 0.26455 0.80429 0.0
H1089 H 0.27521 0.30182 0.83103 0.0
H1090 H 0.30659 0.32292 0.81368 0.0
H1091 H 0.32537 0.31864 0.8405 0.0
H1092 H 0.49049 0.27628 0.83744 0.0
H1093 H 0.52 0.30487 0.80964 0.0
H1094 H 0.38063 0.32081 0.78945 0.0
C1095 C 0.31611 0.25148 0.84783 0.0
C1096 C 0.33138 0.2343 0.86361 0.0
C1097 C 0.37848 0.23386 0.86913 0.0
C1098 C 0.41021 0.24964 0.85866 0.0
C1099 C 0.39418 0.26599 0.84291 0.0
C1100 C 0.34818 0.26736 0.83773 0.0
C1101 C 0.34028 0.28601 0.81972 0.0
C1102 C 0.31956 0.27207 0.80058 0.0
C1103 C 0.31008 0.3087 0.82666 0.0
C1104 C 0.3891 0.29466 0.81544 0.0
C1105 C 0.41963 0.2827 0.8289 0.0
C1106 C 0.46685 0.28617 0.82709 0.0
C1107 C 0.4833 0.30245 0.81121 0.0
C1108 C 0.45268 0.31543 0.79753 0.0
C1109 C 0.40492 0.31151 0.7998 0.0
H1110 H 0.66141 0.21503 0.68273 0.0
H1111 H 0.70871 0.2658 0.63282 0.0
H1112 H 0.67399 0.30275 0.65113 0.0
H1113 H 0.5551 0.24538 0.69257 0.0
H1114 H 0.55758 0.24133 0.72072 0.0
H1115 H 0.58639 0.21878 0.7038 0.0
H1116 H 0.66312 0.22758 0.72331 0.0
H1117 H 0.63447 0.25014 0.74033 0.0
H1118 H 0.68406 0.26018 0.72549 0.0
H1119 H 0.63156 0.33397 0.67418 0.0
H1120 H 0.58696 0.35741 0.70117 0.0
H1121 H 0.57128 0.28675 0.73687 0.0
C1122 C 0.6652 0.23393 0.67574 0.0
C1123 C 0.68767 0.23734 0.65618 0.0
C1124 C 0.69093 0.26248 0.64753 0.0
C1125 C 0.67165 0.28367 0.65791 0.0
C1126 C 0.64965 0.27953 0.67706 0.0
C1127 C 0.64667 0.25533 0.686 0.0
C1128 C 0.62115 0.2561 0.70675 0.0
C1129 C 0.57747 0.23941 0.70589 0.0
C1130 C 0.65259 0.24802 0.72505 0.0
C1131 C 0.60963 0.28445 0.70793 0.0
C1132 C 0.62636 0.29764 0.69064 0.0
C1133 C 0.61866 0.32389 0.68787 0.0
C1134 C 0.5932 0.33699 0.70319 0.0
C1135 C 0.57621 0.32386 0.72109 0.0
C1136 C 0.58461 0.29728 0.72347 0.0
H1137 H 0.85813 0.24819 0.15067 0.0
H1138 H 0.88005 0.31722 0.18788 0.0
H1139 H 0.92879 0.2928 0.2124 0.0
H1140 H 0.84927 0.20511 0.19312 0.0
H1141 H 0.8796 0.17893 0.18084 0.0
H1142 H 0.84962 0.20206 0.16485 0.0
H1143 H 0.92453 0.2118 0.14433 0.0
H1144 H 0.95468 0.18855 0.16021 0.0
H1145 H 0.97545 0.22122 0.15856 0.0
H1146 H 0.96684 0.26068 0.23512 0.0
H1147 H 0.99767 0.22257 0.25356 0.0
H1148 H 0.95626 0.17405 0.20134 0.0
C1149 C 0.87413 0.25822 0.1637 0.0
C1150 C 0.865 0.28459 0.16745 0.0
C1151 C 0.88604 0.29698 0.18486 0.0
C1152 C 0.91399 0.28331 0.19882 0.0
C1153 C 0.92118 0.25725 0.19511 0.0
C1154 C 0.90246 0.24479 0.17787 0.0
C1155 C 0.91428 0.2163 0.17825 0.0
C1156 C 0.87059 0.19963 0.17933 0.0
C1157 C 0.94401 0.20904 0.1592 0.0
C1158 C 0.94155 0.21472 0.1986 0.0
C1159 C 0.94497 0.23863 0.20803 0.0
C1160 C 0.96524 0.24194 0.22772 0.0
C1161 C 0.98242 0.22023 0.23811 0.0
C1162 C 0.9798 0.19561 0.2287 0.0
C1163 C 0.9596 0.19283 0.20859 0.0
H1164 H 0.80835 0.72351 0.68401 0.0
H1165 H 0.8699 0.74214 0.62365 0.0
H1166 H 0.91502 0.77679 0.64053 0.0
H1167 H 0.79918 0.78779 0.70245 0.0
H1168 H 0.81301 0.78015 0.72932 0.0
H1169 H 0.78583 0.75635 0.71292 0.0
H1170 H 0.85154 0.72426 0.72045 0.0
H1171 H 0.87878 0.74767 0.73727 0.0
H1172 H 0.91014 0.73384 0.71564 0.0
H1173 H 0.95252 0.80987 0.66398 0.0
H1174 H 0.97959 0.83885 0.69211 0.0
H1175 H 0.89578 0.79734 0.73732 0.0
C1176 C 0.83176 0.7346 0.67434 0.0
C1177 C 0.83549 0.73005 0.65246 0.0
C1178 C 0.8659 0.74545 0.64037 0.0
C1179 C 0.89196 0.76505 0.64985 0.0
C1180 C 0.8874 0.76896 0.67144 0.0
C1181 C 0.85818 0.75412 0.68354 0.0
C1182 C 0.8589 0.76256 0.70634 0.0
C1183 C 0.81138 0.77228 0.71314 0.0
C1184 C 0.87586 0.74078 0.72077 0.0
C1185 C 0.89335 0.78439 0.70524 0.0
C1186 C 0.90923 0.78785 0.68495 0.0
C1187 C 0.9404 0.80727 0.67993 0.0
C1188 C 0.95551 0.82367 0.69606 0.0
C1189 C 0.93963 0.82053 0.71701 0.0
C1190 C 0.90849 0.80039 0.72157 0.0
H1191 H 0.64617 0.75844 0.14801 0.0
H1192 H 0.65345 0.81963 0.19454 0.0
H1193 H 0.61796 0.79112 0.22075 0.0
H1194 H 0.53844 0.73148 0.16442 0.0
H1195 H 0.55535 0.69848 0.16049 0.0
H1196 H 0.581 0.72365 0.14487 0.0
H1197 H 0.66206 0.7092 0.15686 0.0
H1198 H 0.63659 0.68386 0.17236 0.0
H1199 H 0.67463 0.70685 0.18459 0.0
H1200 H 0.58002 0.75694 0.24183 0.0
H1201 H 0.54583 0.71782 0.25716 0.0
H1202 H 0.56688 0.67729 0.19823 0.0
C1203 C 0.64058 0.76579 0.16374 0.0
C1204 C 0.65189 0.79156 0.16899 0.0
C1205 C 0.64392 0.80031 0.18983 0.0
C1206 C 0.62407 0.78418 0.20495 0.0
C1207 C 0.61273 0.75914 0.19918 0.0
C1208 C 0.621 0.74982 0.17918 0.0
C1209 C 0.60608 0.72186 0.17736 0.0
C1210 C 0.56795 0.7187 0.1608 0.0
C1211 C 0.6473 0.70442 0.17251 0.0
C1212 C 0.58794 0.71712 0.19941 0.0
C1213 C 0.59203 0.73896 0.21167 0.0
C1214 C 0.57708 0.73961 0.23246 0.0
C1215 C 0.55791 0.71723 0.24107 0.0
C1216 C 0.55448 0.69435 0.22906 0.0
C1217 C 0.56925 0.69445 0.20785 0.0
H1218 H 0.34889 0.78666 0.3306 0.0
H1219 H 0.26963 0.73589 0.37107 0.0
H1220 H 0.29648 0.69845 0.35074 0.0
H1221 H 0.32839 0.75129 0.28176 0.0
H1222 H 0.38549 0.75698 0.27185 0.0
H1223 H 0.35916 0.78006 0.28919 0.0
H1224 H 0.42852 0.77663 0.31464 0.0
H1225 H 0.45506 0.75363 0.29734 0.0
H1226 H 0.44518 0.74548 0.32454 0.0
H1227 H 0.33569 0.66632 0.32775 0.0
H1228 H 0.38417 0.64167 0.30297 0.0
H1229 H 0.43432 0.71295 0.27588 0.0
C1230 C 0.3366 0.76772 0.33501 0.0
C1231 C 0.30724 0.76428 0.35255 0.0
C1232 C 0.29268 0.73906 0.35796 0.0
C1233 C 0.30742 0.71765 0.34639 0.0
C1234 C 0.33647 0.72172 0.3293 0.0
C1235 C 0.35083 0.74611 0.32355 0.0
C1236 C 0.3832 0.74503 0.30487 0.0
C1237 C 0.36282 0.75918 0.28579 0.0
C1238 C 0.4308 0.75583 0.31071 0.0
C1239 C 0.38502 0.71622 0.30115 0.0
C1240 C 0.35786 0.70315 0.31548 0.0
C1241 C 0.35642 0.67634 0.31622 0.0
C1242 C 0.38392 0.66252 0.30213 0.0
C1243 C 0.41181 0.67553 0.28735 0.0
C1244 C 0.412 0.70268 0.28665 0.0
H1245 H 0.13521 0.74128 0.86325 0.0
H1246 H 0.19255 0.69356 0.8137 0.0
H1247 H 0.15671 0.72133 0.78703 0.0
H1248 H 0.02782 0.75553 0.83763 0.0
H1249 H 0.02594 0.78848 0.8465 0.0
H1250 H 0.05504 0.76453 0.86206 0.0
H1251 H 0.12953 0.79196 0.86123 0.0
H1252 H 0.10049 0.81603 0.84579 0.0
H1253 H 0.15292 0.80189 0.83624 0.0
H1254 H 0.11464 0.75373 0.76556 0.0
H1255 H 0.07202 0.79033 0.75056 0.0
H1256 H 0.04431 0.81855 0.81362 0.0
C1257 C 0.1405 0.73674 0.8468 0.0
C1258 C 0.16625 0.71489 0.84068 0.0
C1259 C 0.17207 0.70971 0.81891 0.0
C1260 C 0.15208 0.72549 0.80358 0.0
C1261 C 0.12657 0.7466 0.81015 0.0
C1262 C 0.12094 0.75243 0.8312 0.0
C1263 C 0.09257 0.77669 0.83387 0.0
C1264 C 0.04768 0.77095 0.84572 0.0
C1265 C 0.12056 0.7979 0.84494 0.0
C1266 C 0.08331 0.78351 0.81104 0.0
C1267 C 0.10305 0.76579 0.79765 0.0
C1268 C 0.09917 0.76782 0.77587 0.0
C1269 C 0.07487 0.78871 0.76751 0.0
C1270 C 0.05499 0.80745 0.78086 0.0
C1271 C 0.05908 0.8046 0.80295 0.0
loop_
_geom_bond_atom_site_label_1
_geom_bond_atom_site_label_2
_geom_bond_distance
_geom_bond_site_symmetry_2
_ccdc_geom_bond_type
C0 C1 1.384 . S
C0 H13 0.947 . S
C0 C35 1.382 . S
C1 C0 1.384 . S
C1 C2 1.378 . S
C2 C1 1.378 . S
C2 C3 1.378 . S
C2 H14 0.952 . S
C3 C2 1.378 . S
C3 H15 0.950 . S
C3 C34 1.383 . S
H4 C23 0.947 . S
H5 C24 0.946 . S
H6 C26 0.953 . S
H7 C27 0.945 . S
H8 C29 0.952 . S
H9 C30 0.949 . S
H10 C32 0.950 . S
H11 C33 0.948 . S
H12 C35 0.951 . S
H13 C0 0.947 . S
H14 C2 0.952 . S
H15 C3 0.950 . S
N16 C19 1.382 . S
N16 C21 1.363 . S
N17 C19 1.371 . S
N17 C20 1.372 . S
N18 C20 1.361 . S
N18 C21 1.377 . S
C19 N16 1.382 . S
C19 N17 1.371 . S
C19 C22 1.480 . S
C20 N17 1.372 . S
C20 N18 1.361 . S
C20 C28 1.457 . S
C21 N16 1.363 . S
C21 N18 1.377 . S
C21 C34 1.479 . S
C22 C19 1.480 . S
C22 C23 1.383 . S
C22 C27 1.385 . S
C23 H4 0.947 . S
C23 C22 1.383 . S
C23 C24 1.388 . S
C24 H5 0.946 . S
C24 C23 1.388 . S
C24 C25 1.384 . S
C25 C24 1.384 . S
C25 C26 1.377 . S
C26 H6 0.953 . S
C26 C25 1.377 . S
C26 C27 1.369 . S
C27 H7 0.945 . S
C27 C22 1.385 . S
C27 C26 1.369 . S
C28 C20 1.457 . S
C28 C29 1.372 . S
C28 C33 1.364 . S
C29 H8 0.952 . S
C29 C28 1.372 . S
C29 C30 1.389 . S
C30 H9 0.949 . S
C30 C29 1.389 . S
C30 C31 1.387 . S
C31 C30 1.387 . S
C31 C32 1.372 . S
C32 H10 0.950 . S
C32 C31 1.372 . S
C32 C33 1.379 . S
C33 H11 0.948 . S
C33 C28 1.364 . S
C33 C32 1.379 . S
C34 C3 1.383 . S
C34 C21 1.479 . S
C34 C35 1.398 . S
C35 C0 1.382 . S
C35 H12 0.951 . S
C35 C34 1.398 . S
C36 C37 1.384 . S
C36 H49 0.947 . S
C36 C71 1.382 . S
C37 C36 1.384 . S
C37 C38 1.378 . S
C38 C37 1.378 . S
C38 C39 1.378 . S
C38 H50 0.952 . S
C39 C38 1.378 . S
C39 H51 0.950 . S
C39 C70 1.383 . S
H40 C59 0.947 . S
H41 C60 0.946 . S
H42 C62 0.953 . S
H43 C63 0.945 . S
H44 C65 0.952 . S
H45 C66 0.949 . S
H46 C68 0.950 . S
H47 C69 0.948 . S
H48 C71 0.951 . S
H49 C36 0.947 . S
H50 C38 0.952 . S
H51 C39 0.950 . S
N52 C55 1.382 . S
N52 C57 1.363 . S
N53 C55 1.371 . S
N53 C56 1.372 . S
N54 C56 1.361 . S
N54 C57 1.377 . S
C55 N52 1.382 . S
C55 N53 1.371 . S
C55 C58 1.480 . S
C56 N53 1.372 . S
C56 N54 1.361 . S
C56 C64 1.457 . S
C57 N52 1.363 . S
C57 N54 1.377 . S
C57 C70 1.479 . S
C58 C55 1.480 . S
C58 C59 1.383 . S
C58 C63 1.385 . S
C59 H40 0.947 . S
C59 C58 1.383 . S
C59 C60 1.388 . S
C60 H41 0.946 . S
C60 C59 1.388 . S
C60 C61 1.384 . S
C61 C60 1.384 . S
C61 C62 1.377 . S
C62 H42 0.953 . S
C62 C61 1.377 . S
C62 C63 1.369 . S
C63 H43 0.945 . S
C63 C58 1.385 . S
C63 C62 1.369 . S
C64 C56 1.457 . S
C64 C65 1.372 . S
C64 C69 1.364 . S
C65 H44 0.952 . S
C65 C64 1.372 . S
C65 C66 1.389 . S
C66 H45 0.949 . S
C66 C65 1.389 . S
C66 C67 1.387 . S
C67 C66 1.387 . S
C67 C68 1.372 . S
C68 H46 0.950 . S
C68 C67 1.372 . S
C68 C69 1.379 . S
C69 H47 0.948 . S
C69 C64 1.364 . S
C69 C68 1.379 . S
C70 C39 1.383 . S
C70 C57 1.479 . S
C70 C71 1.398 . S
C71 C36 1.382 . S
C71 H48 0.951 . S
C71 C70 1.398 . S
C72 C73 1.384 . S
C72 H85 0.947 . S
C72 C107 1.382 . S
C73 C72 1.384 . S
C73 C74 1.378 . S
C74 C73 1.378 . S
C74 C75 1.378 . S
C74 H86 0.952 . S
C75 C74 1.378 . S
C75 H87 0.950 . S
C75 C106 1.383 . S
H76 C95 0.947 . S
H77 C96 0.946 . S
H78 C98 0.953 . S
H79 C99 0.945 . S
H80 C101 0.952 . S
H81 C102 0.949 . S
H82 C104 0.950 . S
H83 C105 0.948 . S
H84 C107 0.951 . S
H85 C72 0.947 . S
H86 C74 0.952 . S
H87 C75 0.950 . S
N88 C91 1.382 . S
N88 C93 1.363 . S
N89 C91 1.371 . S
N89 C92 1.372 . S
N90 C92 1.361 . S
N90 C93 1.377 . S
C91 N88 1.382 . S
C91 N89 1.371 . S
C91 C94 1.480 . S
C92 N89 1.372 . S
C92 N90 1.361 . S
C92 C100 1.457 . S
C93 N88 1.363 . S
C93 N90 1.377 . S
C93 C106 1.479 . S
C94 C91 1.480 . S
C94 C95 1.383 . S
C94 C99 1.385 . S
C95 H76 0.947 . S
C95 C94 1.383 . S
C95 C96 1.388 . S
C96 H77 0.946 . S
C96 C95 1.388 . S
C96 C97 1.384 . S
C97 C96 1.384 . S
C97 C98 1.377 . S
C98 H78 0.953 . S
C98 C97 1.377 . S
C98 C99 1.369 . S
C99 H79 0.945 . S
C99 C94 1.385 . S
C99 C98 1.369 . S
C100 C92 1.457 . S
C100 C101 1.372 . S
C100 C105 1.364 . S
C101 H80 0.952 . S
C101 C100 1.372 . S
C101 C102 1.389 . S
C102 H81 0.949 . S
C102 C101 1.389 . S
C102 C103 1.387 . S
C103 C102 1.387 . S
C103 C104 1.372 . S
C104 H82 0.950 . S
C104 C103 1.372 . S
C104 C105 1.379 . S
C105 H83 0.948 . S
C105 C100 1.364 . S
C105 C104 1.379 . S
C106 C75 1.383 . S
C106 C93 1.479 . S
C106 C107 1.398 . S
C107 C72 1.382 . S
C107 H84 0.951 . S
C107 C106 1.398 . S
C108 C109 1.384 . S
C108 H121 0.947 . S
C108 C143 1.382 . S
C109 C108 1.384 . S
C109 C110 1.378 . S
C110 C109 1.378 . S
C110 C111 1.378 . S
C110 H122 0.952 . S
C111 C110 1.378 . S
C111 H123 0.950 . S
C111 C142 1.383 . S
H112 C131 0.947 . S
H113 C132 0.946 . S
H114 C134 0.953 . S
H115 C135 0.945 . S
H116 C137 0.952 . S
H117 C138 0.949 . S
H118 C140 0.950 . S
H119 C141 0.948 . S
H120 C143 0.951 . S
H121 C108 0.947 . S
H122 C110 0.952 . S
H123 C111 0.950 . S
N124 C127 1.382 . S
N124 C129 1.363 . S
N125 C127 1.371 . S
N125 C128 1.372 . S
N126 C128 1.361 . S
N126 C129 1.377 . S
C127 N124 1.382 . S
C127 N125 1.371 . S
C127 C130 1.480 . S
C128 N125 1.372 . S
C128 N126 1.361 . S
C128 C136 1.457 . S
C129 N124 1.363 . S
C129 N126 1.377 . S
C129 C142 1.479 . S
C130 C127 1.480 . S
C130 C131 1.383 . S
C130 C135 1.385 . S
C131 H112 0.947 . S
C131 C130 1.383 . S
C131 C132 1.388 . S
C132 H113 0.946 . S
C132 C131 1.388 . S
C132 C133 1.384 . S
C133 C132 1.384 . S
C133 C134 1.377 . S
C134 H114 0.953 . S
C134 C133 1.377 . S
C134 C135 1.369 . S
C135 H115 0.945 . S
C135 C130 1.385 . S
C135 C134 1.369 . S
C136 C128 1.457 . S
C136 C137 1.372 . S
C136 C141 1.364 . S
C137 H116 0.952 . S
C137 C136 1.372 . S
C137 C138 1.389 . S
C138 H117 0.949 . S
C138 C137 1.389 . S
C138 C139 1.387 . S
C139 C138 1.387 . S
C139 C140 1.372 . S
C140 H118 0.950 . S
C140 C139 1.372 . S
C140 C141 1.379 . S
C141 H119 0.948 . S
C141 C136 1.364 . S
C141 C140 1.379 . S
C142 C111 1.383 . S
C142 C129 1.479 . S
C142 C143 1.398 . S
C143 C108 1.382 . S
C143 H120 0.951 . S
C143 C142 1.398 . S
C144 C145 1.384 . S
C144 H157 0.947 . S
C144 C179 1.382 . S
C145 C144 1.384 . S
C145 C146 1.378 . S
C146 C145 1.378 . S
C146 C147 1.378 . S
C146 H158 0.952 . S
C147 C146 1.378 . S
C147 H159 0.950 . S
C147 C178 1.383 . S
H148 C167 0.947 . S
H149 C168 0.946 . S
H150 C170 0.953 . S
H151 C171 0.945 . S
H152 C173 0.952 . S
H153 C174 0.949 . S
H154 C176 0.950 . S
H155 C177 0.948 . S
H156 C179 0.951 . S
H157 C144 0.947 . S
H158 C146 0.952 . S
H159 C147 0.950 . S
N160 C163 1.382 . S
N160 C165 1.363 . S
N161 C163 1.371 . S
N161 C164 1.372 . S
N162 C164 1.361 . S
N162 C165 1.377 . S
C163 N160 1.382 . S
C163 N161 1.371 . S
C163 C166 1.480 . S
C164 N161 1.372 . S
C164 N162 1.361 . S
C164 C172 1.457 . S
C165 N160 1.363 . S
C165 N162 1.377 . S
C165 C178 1.479 . S
C166 C163 1.480 . S
C166 C167 1.383 . S
C166 C171 1.385 . S
C167 H148 0.947 . S
C167 C166 1.383 . S
C167 C168 1.388 . S
C168 H149 0.946 . S
C168 C167 1.388 . S
C168 C169 1.384 . S
C169 C168 1.384 . S
C169 C170 1.377 . S
C170 H150 0.953 . S
C170 C169 1.377 . S
C170 C171 1.369 . S
C171 H151 0.945 . S
C171 C166 1.385 . S
C171 C170 1.369 . S
C172 C164 1.457 . S
C172 C173 1.372 . S
C172 C177 1.364 . S
C173 H152 0.952 . S
C173 C172 1.372 . S
C173 C174 1.389 . S
C174 H153 0.949 . S
C174 C173 1.389 . S
C174 C175 1.387 . S
C175 C174 1.387 . S
C175 C176 1.372 . S
C176 H154 0.950 . S
C176 C175 1.372 . S
C176 C177 1.379 . S
C177 H155 0.948 . S
C177 C172 1.364 . S
C177 C176 1.379 . S
C178 C147 1.383 . S
C178 C165 1.479 . S
C178 C179 1.398 . S
C179 C144 1.382 . S
C179 H156 0.951 . S
C179 C178 1.398 . S
C180 C181 1.384 . S
C180 H193 0.947 . S
C180 C215 1.382 . S
C181 C180 1.384 . S
C181 C182 1.378 . S
C182 C181 1.378 . S
C182 C183 1.378 . S
C182 H194 0.952 . S
C183 C182 1.378 . S
C183 H195 0.950 . S
C183 C214 1.383 . S
H184 C203 0.947 . S
H185 C204 0.946 . S
H186 C206 0.953 . S
H187 C207 0.945 . S
H188 C209 0.952 . S
H189 C210 0.949 . S
H190 C212 0.950 . S
H191 C213 0.948 . S
H192 C215 0.951 . S
H193 C180 0.947 . S
H194 C182 0.952 . S
H195 C183 0.950 . S
N196 C199 1.382 . S
N196 C201 1.363 . S
N197 C199 1.371 . S
N197 C200 1.372 . S
N198 C200 1.361 . S
N198 C201 1.377 . S
C199 N196 1.382 . S
C199 N197 1.371 . S
C199 C202 1.480 . S
C200 N197 1.372 . S
C200 N198 1.361 . S
C200 C208 1.457 . S
C201 N196 1.363 . S
C201 N198 1.377 . S
C201 C214 1.479 . S
C202 C199 1.480 . S
C202 C203 1.383 . S
C202 C207 1.385 . S
C203 H184 0.947 . S
C203 C202 1.383 . S
C203 C204 1.388 . S
C204 H185 0.946 . S
C204 C203 1.388 . S
C204 C205 1.384 . S
C205 C204 1.384 . S
C205 C206 1.377 . S
C206 H186 0.953 . S
C206 C205 1.377 . S
C206 C207 1.369 . S
C207 H187 0.945 . S
C207 C202 1.385 . S
C207 C206 1.369 . S
C208 C200 1.457 . S
C208 C209 1.372 . S
C208 C213 1.364 . S
C209 H188 0.952 . S
C209 C208 1.372 . S
C209 C210 1.389 . S
C210 H189 0.949 . S
C210 C209 1.389 . S
C210 C211 1.387 . S
C211 C210 1.387 . S
C211 C212 1.372 . S
C212 H190 0.950 . S
C212 C211 1.372 . S
C212 C213 1.379 . S
C213 H191 0.948 . S
C213 C208 1.364 . S
C213 C212 1.379 . S
C214 C183 1.383 . S
C214 C201 1.479 . S
C214 C215 1.398 . S
C215 C180 1.382 . S
C215 H192 0.951 . S
C215 C214 1.398 . S
C216 C217 1.384 . S
C216 H229 0.947 . S
C216 C251 1.382 . S
C217 C216 1.384 . S
C217 C218 1.378 . S
C218 C217 1.378 . S
C218 C219 1.378 . S
C218 H230 0.952 . S
C219 C218 1.378 . S
C219 H231 0.950 . S
C219 C250 1.383 . S
H220 C239 0.947 . S
H221 C240 0.946 . S
H222 C242 0.953 . S
H223 C243 0.945 . S
H224 C245 0.952 . S
H225 C246 0.949 . S
H226 C248 0.950 . S
H227 C249 0.948 . S
H228 C251 0.951 . S
H229 C216 0.947 . S
H230 C218 0.952 . S
H231 C219 0.950 . S
N232 C235 1.382 . S
N232 C237 1.363 . S
N233 C235 1.371 . S
N233 C236 1.372 . S
N234 C236 1.361 . S
N234 C237 1.377 . S
C235 N232 1.382 . S
C235 N233 1.371 . S
C235 C238 1.480 . S
C236 N233 1.372 . S
C236 N234 1.361 . S
C236 C244 1.457 . S
C237 N232 1.363 . S
C237 N234 1.377 . S
C237 C250 1.479 . S
C238 C235 1.480 . S
C238 C239 1.383 . S
C238 C243 1.385 . S
C239 H220 0.947 . S
C239 C238 1.383 . S
C239 C240 1.388 . S
C240 H221 0.946 . S
C240 C239 1.388 . S
C240 C241 1.384 . S
C241 C240 1.384 . S
C241 C242 1.377 . S
C242 H222 0.953 . S
C242 C241 1.377 . S
C242 C243 1.369 . S
C243 H223 0.945 . S
C243 C238 1.385 . S
C243 C242 1.369 . S
C244 C236 1.457 . S
C244 C245 1.372 . S
C244 C249 1.364 . S
C245 H224 0.952 . S
C245 C244 1.372 . S
C245 C246 1.389 . S
C246 H225 0.949 . S
C246 C245 1.389 . S
C246 C247 1.387 . S
C247 C246 1.387 . S
C247 C248 1.372 . S
C248 H226 0.950 . S
C248 C247 1.372 . S
C248 C249 1.379 . S
C249 H227 0.948 . S
C249 C244 1.364 . S
C249 C248 1.379 . S
C250 C219 1.383 . S
C250 C237 1.479 . S
C250 C251 1.398 . S
C251 C216 1.382 . S
C251 H228 0.951 . S
C251 C250 1.398 . S
C252 C253 1.384 . S
C252 H265 0.947 . S
C252 C287 1.382 . S
C253 C252 1.384 . S
C253 C254 1.378 . S
C254 C253 1.378 . S
C254 C255 1.378 . S
C254 H266 0.952 . S
C255 C254 1.378 . S
C255 H267 0.950 . S
C255 C286 1.383 . S
H256 C275 0.947 . S
H257 C276 0.946 . S
H258 C278 0.953 . S
H259 C279 0.945 . S
H260 C281 0.952 . S
H261 C282 0.949 . S
H262 C284 0.950 . S
H263 C285 0.948 . S
H264 C287 0.951 . S
H265 C252 0.947 . S
H266 C254 0.952 . S
H267 C255 0.950 . S
N268 C271 1.382 . S
N268 C273 1.363 . S
N269 C271 1.371 . S
N269 C272 1.372 . S
N270 C272 1.361 . S
N270 C273 1.377 . S
C271 N268 1.382 . S
C271 N269 1.371 . S
C271 C274 1.480 . S
C272 N269 1.372 . S
C272 N270 1.361 . S
C272 C280 1.457 . S
C273 N268 1.363 . S
C273 N270 1.377 . S
C273 C286 1.479 . S
C274 C271 1.480 . S
C274 C275 1.383 . S
C274 C279 1.385 . S
C275 H256 0.947 . S
C275 C274 1.383 . S
C275 C276 1.388 . S
C276 H257 0.946 . S
C276 C275 1.388 . S
C276 C277 1.384 . S
C277 C276 1.384 . S
C277 C278 1.377 . S
C278 H258 0.953 . S
C278 C277 1.377 . S
C278 C279 1.369 . S
C279 H259 0.945 . S
C279 C274 1.385 . S
C279 C278 1.369 . S
C280 C272 1.457 . S
C280 C281 1.372 . S
C280 C285 1.364 . S
C281 H260 0.952 . S
C281 C280 1.372 . S
C281 C282 1.389 . S
C282 H261 0.949 . S
C282 C281 1.389 . S
C282 C283 1.387 . S
C283 C282 1.387 . S
C283 C284 1.372 . S
C284 H262 0.950 . S
C284 C283 1.372 . S
C284 C285 1.379 . S
C285 H263 0.948 . S
C285 C280 1.364 . S
C285 C284 1.379 . S
C286 C255 1.383 . S
C286 C273 1.479 . S
C286 C287 1.398 . S
C287 C252 1.382 . S
C287 H264 0.951 . S
C287 C286 1.398 . S
Tb288 N317 2.617 . S
Tb288 N323 2.572 . S
Tb288 O332 2.465 . S
Tb288 O333 2.387 . S
Tb288 O335 2.428 . S
Tb288 O336 2.316 . S
Tb288 O340 2.349 . S
Tb288 O343 2.393 . S
Tb288 C352 2.802 . S
C289 N290 1.379 . S
C289 C292 1.416 . S
C289 C296 1.424 . S
N290 C289 1.379 . S
N290 C293 1.334 . S
N290 Tb299 2.617 . S
C291 C293 1.390 . S
C291 C294 1.339 . S
C291 H311 0.930 . S
C292 C289 1.416 . S
C292 C294 1.416 . S
C292 C298 1.448 . S
C293 N290 1.334 . S
C293 C291 1.390 . S
C293 H304 0.930 . S
C294 C291 1.339 . S
C294 C292 1.416 . S
C294 H315 0.930 . S
C295 C296 1.413 . S
C295 C297 1.427 . S
C295 C301 1.416 . S
C296 C289 1.424 . S
C296 C295 1.413 . S
C296 N300 1.361 . S
C297 C295 1.427 . S
C297 C298 1.328 . S
C297 H312 0.929 . S
C298 C292 1.448 . S
C298 C297 1.328 . S
C298 H313 0.930 . S
Tb299 N290 2.617 . S
Tb299 N300 2.572 . S
Tb299 O334 2.344 1_655 S
Tb299 O337 2.393 . S
Tb299 O338 2.465 . S
Tb299 O339 2.387 . S
Tb299 O341 2.428 . S
Tb299 O342 2.308 1_655 S
Tb299 C363 2.802 . S
N300 C296 1.361 . S
N300 Tb299 2.572 . S
N300 C302 1.340 . S
C301 C295 1.416 . S
C301 C303 1.332 . S
C301 H309 0.931 . S
C302 N300 1.340 . S
C302 C303 1.407 . S
C302 H308 0.930 . S
C303 C301 1.332 . S
C303 C302 1.407 . S
C303 H305 0.929 . S
H304 C293 0.930 . S
H305 C303 0.929 . S
H306 C321 0.930 . S
H307 C328 0.929 . S
H308 C302 0.930 . S
H309 C301 0.931 . S
H310 C324 0.930 . S
H311 C291 0.930 . S
H312 C297 0.929 . S
H313 C298 0.930 . S
H314 C319 0.930 . S
H315 C294 0.930 . S
H316 C327 0.931 . S
N317 Tb288 2.617 . S
N317 C318 1.379 . S
N317 C321 1.334 . S
C318 N317 1.379 . S
C318 C320 1.416 . S
C318 C326 1.424 . S
C319 H314 0.930 . S
C319 C321 1.390 . S
C319 C322 1.339 . S
C320 C318 1.416 . S
C320 C322 1.416 . S
C320 C353 1.448 . S
C321 H306 0.930 . S
C321 N317 1.334 . S
C321 C319 1.390 . S
C322 C319 1.339 . S
C322 C320 1.416 . S
C322 H329 0.930 . S
N323 Tb288 2.572 . S
N323 C324 1.340 . S
N323 C326 1.361 . S
C324 H310 0.930 . S
C324 N323 1.340 . S
C324 C328 1.407 . S
C325 C326 1.413 . S
C325 C327 1.416 . S
C325 C354 1.427 . S
C326 C318 1.424 . S
C326 N323 1.361 . S
C326 C325 1.413 . S
C327 H316 0.931 . S
C327 C325 1.416 . S
C327 C328 1.332 . S
C328 H307 0.929 . S
C328 C324 1.407 . S
C328 C327 1.332 . S
H329 C322 0.930 . S
H330 C353 0.930 . S
H331 C354 0.929 . S
O332 Tb288 2.465 . S
O332 C352 1.264 . S
O333 Tb288 2.387 . S
O333 C344 1.264 . S
O334 Tb299 2.344 1_455 S
O334 C344 1.250 . S
O335 Tb288 2.428 . S
O335 C352 1.256 . S
O336 Tb288 2.316 . S
O336 C351 1.256 1_455 S
O337 Tb299 2.393 . S
O337 C351 1.248 . S
O338 Tb299 2.465 . S
O338 C363 1.264 . S
O339 Tb299 2.387 . S
O339 C355 1.264 . S
O340 Tb288 2.349 . S
O340 C355 1.243 1_455 S
O341 Tb299 2.428 . S
O341 C363 1.256 . S
O342 Tb299 2.308 1_455 S
O342 C362 1.266 . S
O343 Tb288 2.393 . S
O343 C362 1.248 . S
C344 O333 1.264 . S
C344 O334 1.250 . S
C345 C348 1.399 . S
C345 C350 1.383 . S
C345 C352 1.496 . S
C346 C347 1.399 . S
C346 C350 1.389 . S
C347 C346 1.399 . S
C347 C349 1.380 . S
C347 H364 0.929 . S
C348 C345 1.399 . S
C348 C349 1.392 . S
C348 H365 0.929 . S
C349 C347 1.380 . S
C349 C348 1.392 . S
C349 H366 0.929 . S
C350 C345 1.383 . S
C350 C346 1.389 . S
C350 H367 0.931 . S
C351 O336 1.256 1_655 S
C351 O337 1.248 . S
C352 Tb288 2.802 . S
C352 O332 1.264 . S
C352 O335 1.256 . S
C352 C345 1.496 . S
C353 C320 1.448 . S
C353 H330 0.930 . S
C353 C354 1.328 . S
C354 C325 1.427 . S
C354 H331 0.929 . S
C354 C353 1.328 . S
C355 O339 1.264 . S
C355 O340 1.243 1_655 S
C356 C359 1.399 . S
C356 C360 1.383 . S
C356 C363 1.496 . S
C357 C358 1.399 . S
C357 C360 1.389 . S
C358 C357 1.399 . S
C358 C361 1.380 . S
C358 H368 0.929 . S
C359 C356 1.399 . S
C359 C361 1.392 . S
C359 H369 0.929 . S
C360 C356 1.383 . S
C360 C357 1.389 . S
C360 H370 0.931 . S
C361 C358 1.380 . S
C361 C359 1.392 . S
C361 H371 0.929 . S
C362 O342 1.266 . S
C362 O343 1.248 . S
C363 Tb299 2.802 . S
C363 O338 1.264 . S
C363 O341 1.256 . S
C363 C356 1.496 . S
H364 C347 0.929 . S
H365 C348 0.929 . S
H366 C349 0.929 . S
H367 C350 0.931 . S
H368 C358 0.929 . S
H369 C359 0.929 . S
H370 C360 0.931 . S
H371 C361 0.929 . S
Tb372 N401 2.617 . S
Tb372 N407 2.572 . S
Tb372 O416 2.465 . S
Tb372 O417 2.387 . S
Tb372 O419 2.428 . S
Tb372 O420 2.308 . S
Tb372 O424 2.349 . S
Tb372 O427 2.393 . S
Tb372 C436 2.802 . S
C373 N374 1.379 . S
C373 C376 1.416 . S
C373 C380 1.424 . S
N374 C373 1.379 . S
N374 C377 1.334 . S
N374 Tb383 2.617 . S
C375 C377 1.390 . S
C375 C378 1.339 . S
C375 H395 0.930 . S
C376 C373 1.416 . S
C376 C378 1.416 . S
C376 C382 1.448 . S
C377 N374 1.334 . S
C377 C375 1.390 . S
C377 H388 0.930 . S
C378 C375 1.339 . S
C378 C376 1.416 . S
C378 H399 0.930 . S
C379 C380 1.413 . S
C379 C381 1.427 . S
C379 C385 1.416 . S
C380 C373 1.424 . S
C380 C379 1.413 . S
C380 N384 1.361 . S
C381 C379 1.427 . S
C381 C382 1.328 . S
C381 H396 0.929 . S
C382 C376 1.448 . S
C382 C381 1.328 . S
C382 H397 0.930 . S
Tb383 N374 2.617 . S
Tb383 N384 2.572 . S
Tb383 O418 2.349 . S
Tb383 O421 2.393 . S
Tb383 O422 2.465 . S
Tb383 O423 2.387 . S
Tb383 O425 2.428 . S
Tb383 O426 2.308 . S
Tb383 C447 2.802 . S
N384 C380 1.361 . S
N384 Tb383 2.572 . S
N384 C386 1.340 . S
C385 C379 1.416 . S
C385 C387 1.332 . S
C385 H393 0.931 . S
C386 N384 1.340 . S
C386 C387 1.407 . S
C386 H392 0.930 . S
C387 C385 1.332 . S
C387 C386 1.407 . S
C387 H389 0.929 . S
H388 C377 0.930 . S
H389 C387 0.929 . S
H390 C405 0.930 . S
H391 C412 0.929 . S
H392 C386 0.930 . S
H393 C385 0.931 . S
H394 C408 0.930 . S
H395 C375 0.930 . S
H396 C381 0.929 . S
H397 C382 0.930 . S
H398 C403 0.930 . S
H399 C378 0.930 . S
H400 C411 0.931 . S
N401 Tb372 2.617 . S
N401 C402 1.379 . S
N401 C405 1.334 . S
C402 N401 1.379 . S
C402 C404 1.416 . S
C402 C410 1.424 . S
C403 H398 0.930 . S
C403 C405 1.390 . S
C403 C406 1.339 . S
C404 C402 1.416 . S
C404 C406 1.416 . S
C404 C437 1.448 . S
C405 H390 0.930 . S
C405 N401 1.334 . S
C405 C403 1.390 . S
C406 C403 1.339 . S
C406 C404 1.416 . S
C406 H413 0.930 . S
N407 Tb372 2.572 . S
N407 C408 1.340 . S
N407 C410 1.361 . S
C408 H394 0.930 . S
C408 N407 1.340 . S
C408 C412 1.407 . S
C409 C410 1.413 . S
C409 C411 1.416 . S
C409 C438 1.427 . S
C410 C402 1.424 . S
C410 N407 1.361 . S
C410 C409 1.413 . S
C411 H400 0.931 . S
C411 C409 1.416 . S
C411 C412 1.332 . S
C412 H391 0.929 . S
C412 C408 1.407 . S
C412 C411 1.332 . S
H413 C406 0.930 . S
H414 C437 0.930 . S
H415 C438 0.929 . S
O416 Tb372 2.465 . S
O416 C436 1.264 . S
O417 Tb372 2.387 . S
O417 C428 1.264 . S
O418 Tb383 2.349 . S
O418 C428 1.243 . S
O419 Tb372 2.428 . S
O419 C436 1.256 . S
O420 Tb372 2.308 . S
O420 C435 1.266 . S
O421 Tb383 2.393 . S
O421 C435 1.248 . S
O422 Tb383 2.465 . S
O422 C447 1.264 . S
O423 Tb383 2.387 . S
O423 C439 1.264 . S
O424 Tb372 2.349 . S
O424 C439 1.243 . S
O425 Tb383 2.428 . S
O425 C447 1.256 . S
O426 Tb383 2.308 . S
O426 C446 1.266 . S
O427 Tb372 2.393 . S
O427 C446 1.248 . S
C428 O417 1.264 . S
C428 O418 1.243 . S
C429 C432 1.399 . S
C429 C434 1.383 . S
C429 C436 1.496 . S
C430 C431 1.399 . S
C430 C434 1.389 . S
C431 C430 1.399 . S
C431 C433 1.380 . S
C431 H448 0.929 . S
C432 C429 1.399 . S
C432 C433 1.392 . S
C432 H449 0.929 . S
C433 C431 1.380 . S
C433 C432 1.392 . S
C433 H450 0.929 . S
C434 C429 1.383 . S
C434 C430 1.389 . S
C434 H451 0.931 . S
C435 O420 1.266 . S
C435 O421 1.248 . S
C436 Tb372 2.802 . S
C436 O416 1.264 . S
C436 O419 1.256 . S
C436 C429 1.496 . S
C437 C404 1.448 . S
C437 H414 0.930 . S
C437 C438 1.328 . S
C438 C409 1.427 . S
C438 H415 0.929 . S
C438 C437 1.328 . S
C439 O423 1.264 . S
C439 O424 1.243 . S
C440 C443 1.399 . S
C440 C444 1.383 . S
C440 C447 1.496 . S
C441 C442 1.399 . S
C441 C444 1.389 . S
C442 C441 1.399 . S
C442 C445 1.380 . S
C442 H452 0.929 . S
C443 C440 1.399 . S
C443 C445 1.392 . S
C443 H453 0.929 . S
C444 C440 1.383 . S
C444 C441 1.389 . S
C444 H454 0.931 . S
C445 C442 1.380 . S
C445 C443 1.392 . S
C445 H455 0.929 . S
C446 O426 1.266 . S
C446 O427 1.248 . S
C447 Tb383 2.802 . S
C447 O422 1.264 . S
C447 O425 1.256 . S
C447 C440 1.496 . S
H448 C431 0.929 . S
H449 C432 0.929 . S
H450 C433 0.929 . S
H451 C434 0.931 . S
H452 C442 0.929 . S
H453 C443 0.929 . S
H454 C444 0.931 . S
H455 C445 0.929 . S
Tb456 N485 2.617 . S
Tb456 N491 2.572 . S
Tb456 O500 2.465 . S
Tb456 O501 2.387 . S
Tb456 O503 2.428 . S
Tb456 O504 2.308 . S
Tb456 O508 2.349 . S
Tb456 O511 2.393 . S
Tb456 C520 2.802 . S
C457 N458 1.379 . S
C457 C460 1.416 . S
C457 C464 1.424 . S
N458 C457 1.379 . S
N458 C461 1.334 . S
N458 Tb467 2.617 . S
C459 C461 1.390 . S
C459 C462 1.339 . S
C459 H479 0.930 . S
C460 C457 1.416 . S
C460 C462 1.416 . S
C460 C466 1.448 . S
C461 N458 1.334 . S
C461 C459 1.390 . S
C461 H472 0.930 . S
C462 C459 1.339 . S
C462 C460 1.416 . S
C462 H483 0.930 . S
C463 C464 1.413 . S
C463 C465 1.427 . S
C463 C469 1.416 . S
C464 C457 1.424 . S
C464 C463 1.413 . S
C464 N468 1.361 . S
C465 C463 1.427 . S
C465 C466 1.328 . S
C465 H480 0.929 . S
C466 C460 1.448 . S
C466 C465 1.328 . S
C466 H481 0.930 . S
Tb467 N458 2.617 . S
Tb467 N468 2.572 . S
Tb467 O502 2.349 1_655 S
Tb467 O505 2.393 . S
Tb467 O506 2.465 . S
Tb467 O507 2.387 . S
Tb467 O509 2.428 . S
Tb467 O510 2.308 1_655 S
Tb467 C531 2.802 . S
N468 C464 1.361 . S
N468 Tb467 2.572 . S
N468 C470 1.340 . S
C469 C463 1.416 . S
C469 C471 1.332 . S
C469 H477 0.931 . S
C470 N468 1.340 . S
C470 C471 1.407 . S
C470 H476 0.930 . S
C471 C469 1.332 . S
C471 C470 1.407 . S
C471 H473 0.929 . S
H472 C461 0.930 . S
H473 C471 0.929 . S
H474 C489 0.930 . S
H475 C496 0.929 . S
H476 C470 0.930 . S
H477 C469 0.931 . S
H478 C492 0.930 . S
H479 C459 0.930 . S
H480 C465 0.929 . S
H481 C466 0.930 . S
H482 C487 0.930 . S
H483 C462 0.930 . S
H484 C495 0.931 . S
N485 Tb456 2.617 . S
N485 C486 1.379 . S
N485 C489 1.334 . S
C486 N485 1.379 . S
C486 C488 1.416 . S
C486 C494 1.424 . S
C487 H482 0.930 . S
C487 C489 1.390 . S
C487 C490 1.339 . S
C488 C486 1.416 . S
C488 C490 1.416 . S
C488 C521 1.448 . S
C489 H474 0.930 . S
C489 N485 1.334 . S
C489 C487 1.390 . S
C490 C487 1.339 . S
C490 C488 1.416 . S
C490 H497 0.930 . S
N491 Tb456 2.572 . S
N491 C492 1.340 . S
N491 C494 1.361 . S
C492 H478 0.930 . S
C492 N491 1.340 . S
C492 C496 1.407 . S
C493 C494 1.413 . S
C493 C495 1.416 . S
C493 C522 1.427 . S
C494 C486 1.424 . S
C494 N491 1.361 . S
C494 C493 1.413 . S
C495 H484 0.931 . S
C495 C493 1.416 . S
C495 C496 1.332 . S
C496 H475 0.929 . S
C496 C492 1.407 . S
C496 C495 1.332 . S
H497 C490 0.930 . S
H498 C521 0.930 . S
H499 C522 0.929 . S
O500 Tb456 2.465 . S
O500 C520 1.264 . S
O501 Tb456 2.387 . S
O501 C512 1.264 . S
O502 Tb467 2.349 1_455 S
O502 C512 1.243 . S
O503 Tb456 2.428 . S
O503 C520 1.256 . S
O504 Tb456 2.308 . S
O504 C519 1.266 1_455 S
O505 Tb467 2.393 . S
O505 C519 1.248 . S
O506 Tb467 2.465 . S
O506 C531 1.264 . S
O507 Tb467 2.387 . S
O507 C523 1.264 . S
O508 Tb456 2.349 . S
O508 C523 1.243 1_455 S
O509 Tb467 2.428 . S
O509 C531 1.256 . S
O510 Tb467 2.308 1_455 S
O510 C530 1.266 . S
O511 Tb456 2.393 . S
O511 C530 1.248 . S
C512 O501 1.264 . S
C512 O502 1.243 . S
C513 C516 1.399 . S
C513 C518 1.383 . S
C513 C520 1.496 . S
C514 C515 1.399 . S
C514 C518 1.389 . S
C515 C514 1.399 . S
C515 C517 1.380 . S
C515 H532 0.929 . S
C516 C513 1.399 . S
C516 C517 1.392 . S
C516 H533 0.929 . S
C517 C515 1.380 . S
C517 C516 1.392 . S
C517 H534 0.929 . S
C518 C513 1.383 . S
C518 C514 1.389 . S
C518 H535 0.931 . S
C519 O504 1.266 1_655 S
C519 O505 1.248 . S
C520 Tb456 2.802 . S
C520 O500 1.264 . S
C520 O503 1.256 . S
C520 C513 1.496 . S
C521 C488 1.448 . S
C521 H498 0.930 . S
C521 C522 1.328 . S
C522 C493 1.427 . S
C522 H499 0.929 . S
C522 C521 1.328 . S
C523 O507 1.264 . S
C523 O508 1.243 1_655 S
C524 C527 1.399 . S
C524 C528 1.383 . S
C524 C531 1.496 . S
C525 C526 1.399 . S
C525 C528 1.389 . S
C526 C525 1.399 . S
C526 C529 1.380 . S
C526 H536 0.929 . S
C527 C524 1.399 . S
C527 C529 1.392 . S
C527 H537 0.929 . S
C528 C524 1.383 . S
C528 C525 1.389 . S
C528 H538 0.931 . S
C529 C526 1.380 . S
C529 C527 1.392 . S
C529 H539 0.929 . S
C530 O510 1.266 . S
C530 O511 1.248 . S
C531 Tb467 2.802 . S
C531 O506 1.264 . S
C531 O509 1.256 . S
C531 C524 1.496 . S
H532 C515 0.929 . S
H533 C516 0.929 . S
H534 C517 0.929 . S
H535 C518 0.931 . S
H536 C526 0.929 . S
H537 C527 0.929 . S
H538 C528 0.931 . S
H539 C529 0.929 . S
Tb540 N569 2.617 . S
Tb540 N575 2.572 . S
Tb540 O584 2.465 . S
Tb540 O585 2.387 . S
Tb540 O587 2.428 . S
Tb540 O588 2.308 . S
Tb540 O592 2.349 . S
Tb540 O595 2.393 . S
Tb540 C604 2.802 . S
C541 N542 1.379 . S
C541 C544 1.416 . S
C541 C548 1.424 . S
N542 C541 1.379 . S
N542 C545 1.334 . S
N542 Tb551 2.617 . S
C543 C545 1.390 . S
C543 C546 1.339 . S
C543 H563 0.930 . S
C544 C541 1.416 . S
C544 C546 1.416 . S
C544 C550 1.448 . S
C545 N542 1.334 . S
C545 C543 1.390 . S
C545 H556 0.930 . S
C546 C543 1.339 . S
C546 C544 1.416 . S
C546 H567 0.930 . S
C547 C548 1.413 . S
C547 C549 1.427 . S
C547 C553 1.416 . S
C548 C541 1.424 . S
C548 C547 1.413 . S
C548 N552 1.361 . S
C549 C547 1.427 . S
C549 C550 1.328 . S
C549 H564 0.929 . S
C550 C544 1.448 . S
C550 C549 1.328 . S
C550 H565 0.930 . S
Tb551 N542 2.617 . S
Tb551 N552 2.572 . S
Tb551 O586 2.349 . S
Tb551 O589 2.393 . S
Tb551 O590 2.465 . S
Tb551 O591 2.387 . S
Tb551 O593 2.428 . S
Tb551 O594 2.308 . S
Tb551 C615 2.802 . S
N552 C548 1.361 . S
N552 Tb551 2.572 . S
N552 C554 1.340 . S
C553 C547 1.416 . S
C553 C555 1.332 . S
C553 H561 0.931 . S
C554 N552 1.340 . S
C554 C555 1.407 . S
C554 H560 0.930 . S
C555 C553 1.332 . S
C555 C554 1.407 . S
C555 H557 0.929 . S
H556 C545 0.930 . S
H557 C555 0.929 . S
H558 C573 0.930 . S
H559 C580 0.929 . S
H560 C554 0.930 . S
H561 C553 0.931 . S
H562 C576 0.930 . S
H563 C543 0.930 . S
H564 C549 0.929 . S
H565 C550 0.930 . S
H566 C571 0.930 . S
H567 C546 0.930 . S
H568 C579 0.931 . S
N569 Tb540 2.617 . S
N569 C570 1.379 . S
N569 C573 1.334 . S
C570 N569 1.379 . S
C570 C572 1.416 . S
C570 C578 1.424 . S
C571 H566 0.930 . S
C571 C573 1.390 . S
C571 C574 1.339 . S
C572 C570 1.416 . S
C572 C574 1.416 . S
C572 C605 1.448 . S
C573 H558 0.930 . S
C573 N569 1.334 . S
C573 C571 1.390 . S
C574 C571 1.339 . S
C574 C572 1.416 . S
C574 H581 0.930 . S
N575 Tb540 2.572 . S
N575 C576 1.340 . S
N575 C578 1.361 . S
C576 H562 0.930 . S
C576 N575 1.340 . S
C576 C580 1.407 . S
C577 C578 1.413 . S
C577 C579 1.416 . S
C577 C606 1.427 . S
C578 C570 1.424 . S
C578 N575 1.361 . S
C578 C577 1.413 . S
C579 H568 0.931 . S
C579 C577 1.416 . S
C579 C580 1.332 . S
C580 H559 0.929 . S
C580 C576 1.407 . S
C580 C579 1.332 . S
H581 C574 0.930 . S
H582 C605 0.930 . S
H583 C606 0.929 . S
O584 Tb540 2.465 . S
O584 C604 1.264 . S
O585 Tb540 2.387 . S
O585 C596 1.264 . S
O586 Tb551 2.349 . S
O586 C596 1.243 . S
O587 Tb540 2.428 . S
O587 C604 1.256 . S
O588 Tb540 2.308 . S
O588 C603 1.266 . S
O589 Tb551 2.393 . S
O589 C603 1.248 . S
O590 Tb551 2.465 . S
O590 C615 1.264 . S
O591 Tb551 2.387 . S
O591 C607 1.264 . S
O592 Tb540 2.349 . S
O592 C607 1.243 . S
O593 Tb551 2.428 . S
O593 C615 1.256 . S
O594 Tb551 2.308 . S
O594 C614 1.266 . S
O595 Tb540 2.393 . S
O595 C614 1.248 . S
C596 O585 1.264 . S
C596 O586 1.243 . S
C597 C600 1.399 . S
C597 C602 1.383 . S
C597 C604 1.496 . S
C598 C599 1.399 . S
C598 C602 1.389 . S
C599 C598 1.399 . S
C599 C601 1.380 . S
C599 H616 0.929 . S
C600 C597 1.399 . S
C600 C601 1.392 . S
C600 H617 0.929 . S
C601 C599 1.380 . S
C601 C600 1.392 . S
C601 H618 0.929 . S
C602 C597 1.383 . S
C602 C598 1.389 . S
C602 H619 0.931 . S
C603 O588 1.266 . S
C603 O589 1.248 . S
C604 Tb540 2.802 . S
C604 O584 1.264 . S
C604 O587 1.256 . S
C604 C597 1.496 . S
C605 C572 1.448 . S
C605 H582 0.930 . S
C605 C606 1.328 . S
C606 C577 1.427 . S
C606 H583 0.929 . S
C606 C605 1.328 . S
C607 O591 1.264 . S
C607 O592 1.243 . S
C608 C611 1.399 . S
C608 C612 1.383 . S
C608 C615 1.496 . S
C609 C610 1.399 . S
C609 C612 1.389 . S
C610 C609 1.399 . S
C610 C613 1.380 . S
C610 H620 0.929 . S
C611 C608 1.399 . S
C611 C613 1.392 . S
C611 H621 0.929 . S
C612 C608 1.383 . S
C612 C609 1.389 . S
C612 H622 0.931 . S
C613 C610 1.380 . S
C613 C611 1.392 . S
C613 H623 0.929 . S
C614 O594 1.266 . S
C614 O595 1.248 . S
C615 Tb551 2.802 . S
C615 O590 1.264 . S
C615 O593 1.256 . S
C615 C608 1.496 . S
H616 C599 0.929 . S
H617 C600 0.929 . S
H618 C601 0.929 . S
H619 C602 0.931 . S
H620 C610 0.929 . S
H621 C611 0.929 . S
H622 C612 0.931 . S
H623 C613 0.929 . S
H624 C636 0.930 . S
H625 C638 0.930 . S
H626 C639 0.930 . S
H627 C643 0.959 1_545 S
H628 C643 0.959 1_545 S
H629 C643 0.961 . S
H630 C644 0.960 1_565 S
H631 C644 0.960 . S
H632 C644 0.959 . S
H633 C647 0.929 . S
H634 C648 0.931 . S
H635 C650 0.930 . S
C636 H624 0.930 . S
C636 C637 1.399 . S
C636 C641 1.399 1_565 S
C637 C636 1.399 . S
C637 C638 1.376 1_565 S
C638 H625 0.930 . S
C638 C637 1.376 1_545 S
C638 C639 1.388 . S
C639 H626 0.930 . S
C639 C638 1.388 . S
C639 C640 1.390 . S
C640 C639 1.390 . S
C640 C641 1.394 . S
C640 C646 1.465 . S
C641 C636 1.399 1_545 S
C641 C640 1.394 . S
C641 C642 1.516 . S
C642 C641 1.516 . S
C642 C643 1.502 1_545 S
C642 C644 1.561 . S
C642 C645 1.526 . S
C643 H627 0.959 1_565 S
C643 H628 0.959 1_565 S
C643 H629 0.961 . S
C643 C642 1.502 1_565 S
C644 H630 0.960 1_545 S
C644 H631 0.960 . S
C644 H632 0.959 . S
C644 C642 1.561 . S
C645 C642 1.526 . S
C645 C646 1.396 . S
C645 C650 1.390 . S
C646 C640 1.465 . S
C646 C645 1.396 . S
C646 C647 1.399 . S
C647 H633 0.929 . S
C647 C646 1.399 . S
C647 C648 1.385 . S
C648 H634 0.931 . S
C648 C647 1.385 . S
C648 C649 1.389 . S
C649 C648 1.389 . S
C649 C650 1.387 . S
C650 H635 0.930 . S
C650 C645 1.390 . S
C650 C649 1.387 . S
H651 C663 0.930 . S
H652 C665 0.930 . S
H653 C666 0.930 . S
H654 C670 0.959 . S
H655 C670 0.959 . S
H656 C670 0.961 . S
H657 C671 0.960 . S
H658 C671 0.961 . S
H659 C671 0.959 . S
H660 C674 0.929 . S
H661 C675 0.931 . S
H662 C677 0.930 . S
C663 H651 0.930 . S
C663 C664 1.399 . S
C663 C668 1.399 . S
C664 C663 1.399 . S
C664 C665 1.376 . S
C665 H652 0.930 . S
C665 C664 1.376 . S
C665 C666 1.388 . S
C666 H653 0.930 . S
C666 C665 1.388 . S
C666 C667 1.390 . S
C667 C666 1.390 . S
C667 C668 1.394 . S
C667 C673 1.465 . S
C668 C663 1.399 . S
C668 C667 1.394 . S
C668 C669 1.516 . S
C669 C668 1.516 . S
C669 C670 1.502 . S
C669 C671 1.561 . S
C669 C672 1.526 . S
C670 H654 0.959 . S
C670 H655 0.959 . S
C670 H656 0.961 . S
C670 C669 1.502 . S
C671 H657 0.960 . S
C671 H658 0.961 . S
C671 H659 0.959 . S
C671 C669 1.561 . S
C672 C669 1.526 . S
C672 C673 1.396 . S
C672 C677 1.390 . S
C673 C667 1.465 . S
C673 C672 1.396 . S
C673 C674 1.399 . S
C674 H660 0.929 . S
C674 C673 1.399 . S
C674 C675 1.385 . S
C675 H661 0.931 . S
C675 C674 1.385 . S
C675 C676 1.389 . S
C676 C675 1.389 . S
C676 C677 1.387 . S
C677 H662 0.930 . S
C677 C672 1.390 . S
C677 C676 1.387 . S
H678 C690 0.930 . S
H679 C692 0.930 . S
H680 C693 0.930 . S
H681 C697 0.959 . S
H682 C697 0.959 . S
H683 C697 0.961 . S
H684 C698 0.960 . S
H685 C698 0.961 . S
H686 C698 0.959 . S
H687 C701 0.929 . S
H688 C702 0.931 . S
H689 C704 0.930 . S
C690 H678 0.930 . S
C690 C691 1.399 . S
C690 C695 1.399 . S
C691 C690 1.399 . S
C691 C692 1.376 . S
C692 H679 0.930 . S
C692 C691 1.376 . S
C692 C693 1.388 . S
C693 H680 0.930 . S
C693 C692 1.388 . S
C693 C694 1.390 . S
C694 C693 1.390 . S
C694 C695 1.394 . S
C694 C700 1.465 . S
C695 C690 1.399 . S
C695 C694 1.394 . S
C695 C696 1.516 . S
C696 C695 1.516 . S
C696 C697 1.502 . S
C696 C698 1.561 . S
C696 C699 1.526 . S
C697 H681 0.959 . S
C697 H682 0.959 . S
C697 H683 0.961 . S
C697 C696 1.502 . S
C698 H684 0.960 . S
C698 H685 0.961 . S
C698 H686 0.959 . S
C698 C696 1.561 . S
C699 C696 1.526 . S
C699 C700 1.396 . S
C699 C704 1.390 . S
C700 C694 1.465 . S
C700 C699 1.396 . S
C700 C701 1.399 . S
C701 H687 0.929 . S
C701 C700 1.399 . S
C701 C702 1.385 . S
C702 H688 0.931 . S
C702 C701 1.385 . S
C702 C703 1.389 . S
C703 C702 1.389 . S
C703 C704 1.387 . S
C704 H689 0.930 . S
C704 C699 1.390 . S
C704 C703 1.387 . S
H705 C717 0.930 . S
H706 C719 0.930 . S
H707 C720 0.930 . S
H708 C724 0.959 . S
H709 C724 0.959 . S
H710 C724 0.961 . S
H711 C725 0.960 . S
H712 C725 0.961 . S
H713 C725 0.959 . S
H714 C728 0.929 . S
H715 C729 0.931 . S
H716 C731 0.930 . S
C717 H705 0.930 . S
C717 C718 1.399 1_545 S
C717 C722 1.399 . S
C718 C717 1.399 1_565 S
C718 C719 1.376 . S
C719 H706 0.930 . S
C719 C718 1.376 . S
C719 C720 1.388 . S
C720 H707 0.930 . S
C720 C719 1.388 . S
C720 C721 1.390 1_565 S
C721 C720 1.390 1_545 S
C721 C722 1.394 . S
C721 C727 1.465 . S
C722 C717 1.399 . S
C722 C721 1.394 . S
C722 C723 1.516 . S
C723 C722 1.516 . S
C723 C724 1.502 . S
C723 C725 1.561 . S
C723 C726 1.526 . S
C724 H708 0.959 . S
C724 H709 0.959 . S
C724 H710 0.961 . S
C724 C723 1.502 . S
C725 H711 0.960 . S
C725 H712 0.961 . S
C725 H713 0.959 . S
C725 C723 1.561 . S
C726 C723 1.526 . S
C726 C727 1.396 . S
C726 C731 1.390 . S
C727 C721 1.465 . S
C727 C726 1.396 . S
C727 C728 1.399 . S
C728 H714 0.929 . S
C728 C727 1.399 . S
C728 C729 1.385 . S
C729 H715 0.931 . S
C729 C728 1.385 . S
C729 C730 1.389 . S
C730 C729 1.389 . S
C730 C731 1.387 . S
C731 H716 0.930 . S
C731 C726 1.390 . S
C731 C730 1.387 . S
H732 C744 0.930 . S
H733 C746 0.930 . S
H734 C747 0.930 . S
H735 C751 0.959 . S
H736 C751 0.959 1_455 S
H737 C751 0.936 1_545 S
H738 C752 0.960 . S
H739 C752 0.961 1_565 S
H740 C752 0.958 1_565 S
H741 C755 0.929 . S
H742 C756 0.931 . S
H743 C758 0.930 . S
C744 H732 0.930 . S
C744 C745 1.399 . S
C744 C749 1.399 1_545 S
C745 C744 1.399 . S
C745 C746 1.376 1_545 S
C746 H733 0.930 . S
C746 C745 1.376 1_565 S
C746 C747 1.388 . S
C747 H734 0.930 . S
C747 C746 1.388 . S
C747 C748 1.390 . S
C748 C747 1.390 . S
C748 C749 1.394 . S
C748 C754 1.465 . S
C749 C744 1.399 1_565 S
C749 C748 1.394 . S
C749 C750 1.516 . S
C750 C749 1.516 . S
C750 C751 1.502 . S
C750 C752 1.561 1_565 S
C750 C753 1.526 . S
C751 H735 0.959 . S
C751 H736 0.959 1_655 S
C751 H737 0.936 1_565 S
C751 C750 1.502 . S
C752 H738 0.960 . S
C752 H739 0.961 1_545 S
C752 H740 0.958 1_545 S
C752 C750 1.561 1_545 S
C753 C750 1.526 . S
C753 C754 1.396 . S
C753 C758 1.390 . S
C754 C748 1.465 . S
C754 C753 1.396 . S
C754 C755 1.399 . S
C755 H741 0.929 . S
C755 C754 1.399 . S
C755 C756 1.385 . S
C756 H742 0.931 . S
C756 C755 1.385 . S
C756 C757 1.389 . S
C757 C756 1.389 . S
C757 C758 1.387 . S
C758 H743 0.930 . S
C758 C753 1.390 . S
C758 C757 1.387 . S
H759 C771 0.930 . S
H760 C773 0.930 . S
H761 C774 0.930 . S
H762 C778 0.959 . S
H763 C778 0.959 . S
H764 C778 0.961 . S
H765 C779 0.960 . S
H766 C779 0.961 . S
H767 C779 0.959 . S
H768 C782 0.929 . S
H769 C783 0.931 . S
H770 C785 0.930 . S
C771 H759 0.930 . S
C771 C772 1.399 . S
C771 C776 1.399 . S
C772 C771 1.399 . S
C772 C773 1.376 . S
C773 H760 0.930 . S
C773 C772 1.376 . S
C773 C774 1.388 . S
C774 H761 0.930 . S
C774 C773 1.388 . S
C774 C775 1.390 . S
C775 C774 1.390 . S
C775 C776 1.394 . S
C775 C781 1.465 . S
C776 C771 1.399 . S
C776 C775 1.394 . S
C776 C777 1.516 . S
C777 C776 1.516 . S
C777 C778 1.502 . S
C777 C779 1.561 . S
C777 C780 1.526 . S
C778 H762 0.959 . S
C778 H763 0.959 . S
C778 H764 0.961 . S
C778 C777 1.502 . S
C779 H765 0.960 . S
C779 H766 0.961 . S
C779 H767 0.959 . S
C779 C777 1.561 . S
C780 C777 1.526 . S
C780 C781 1.396 . S
C780 C785 1.390 . S
C781 C775 1.465 . S
C781 C780 1.396 . S
C781 C782 1.399 . S
C782 H768 0.929 . S
C782 C781 1.399 . S
C782 C783 1.385 . S
C783 H769 0.931 . S
C783 C782 1.385 . S
C783 C784 1.389 . S
C784 C783 1.389 . S
C784 C785 1.387 . S
C785 H770 0.930 . S
C785 C780 1.390 . S
C785 C784 1.387 . S
H786 C798 0.930 . S
H787 C800 0.930 . S
H788 C801 0.930 . S
H789 C805 0.959 . S
H790 C805 0.959 . S
H791 C805 0.961 . S
H792 C806 0.960 . S
H793 C806 0.961 . S
H794 C806 0.959 . S
H795 C809 0.929 . S
H796 C810 0.931 . S
H797 C812 0.930 . S
C798 H786 0.930 . S
C798 C799 1.399 . S
C798 C803 1.399 . S
C799 C798 1.399 . S
C799 C800 1.376 . S
C800 H787 0.930 . S
C800 C799 1.376 . S
C800 C801 1.388 . S
C801 H788 0.930 . S
C801 C800 1.388 . S
C801 C802 1.390 . S
C802 C801 1.390 . S
C802 C803 1.394 . S
C802 C808 1.465 . S
C803 C798 1.399 . S
C803 C802 1.394 . S
C803 C804 1.516 . S
C804 C803 1.516 . S
C804 C805 1.502 . S
C804 C806 1.561 . S
C804 C807 1.526 . S
C805 H789 0.959 . S
C805 H790 0.959 . S
C805 H791 0.961 . S
C805 C804 1.502 . S
C806 H792 0.960 . S
C806 H793 0.961 . S
C806 H794 0.959 . S
C806 C804 1.561 . S
C807 C804 1.526 . S
C807 C808 1.396 . S
C807 C812 1.390 . S
C808 C802 1.465 . S
C808 C807 1.396 . S
C808 C809 1.399 . S
C809 H795 0.929 . S
C809 C808 1.399 . S
C809 C810 1.385 . S
C810 H796 0.931 . S
C810 C809 1.385 . S
C810 C811 1.389 . S
C811 C810 1.389 . S
C811 C812 1.387 . S
C812 H797 0.930 . S
C812 C807 1.390 . S
C812 C811 1.387 . S
H813 C825 0.930 . S
H814 C827 0.930 . S
H815 C828 0.930 . S
H816 C832 0.959 . S
H817 C832 0.959 . S
H818 C832 0.961 . S
H819 C833 0.960 . S
H820 C833 0.961 . S
H821 C833 0.959 . S
H822 C836 0.929 . S
H823 C837 0.931 . S
H824 C839 0.930 . S
C825 H813 0.930 . S
C825 C826 1.399 1_565 S
C825 C830 1.399 . S
C826 C825 1.399 1_545 S
C826 C827 1.376 . S
C827 H814 0.930 . S
C827 C826 1.376 . S
C827 C828 1.388 . S
C828 H815 0.930 . S
C828 C827 1.388 . S
C828 C829 1.390 1_545 S
C829 C828 1.390 1_565 S
C829 C830 1.394 . S
C829 C835 1.465 . S
C830 C825 1.399 . S
C830 C829 1.394 . S
C830 C831 1.516 . S
C831 C830 1.516 . S
C831 C832 1.502 . S
C831 C833 1.561 . S
C831 C834 1.526 . S
C832 H816 0.959 . S
C832 H817 0.959 . S
C832 H818 0.961 . S
C832 C831 1.502 . S
C833 H819 0.960 . S
C833 H820 0.961 . S
C833 H821 0.959 . S
C833 C831 1.561 . S
C834 C831 1.526 . S
C834 C835 1.396 . S
C834 C839 1.390 . S
C835 C829 1.465 . S
C835 C834 1.396 . S
C835 C836 1.399 . S
C836 H822 0.929 . S
C836 C835 1.399 . S
C836 C837 1.385 . S
C837 H823 0.931 . S
C837 C836 1.385 . S
C837 C838 1.389 . S
C838 C837 1.389 . S
C838 C839 1.387 . S
C839 H824 0.930 . S
C839 C834 1.390 . S
C839 C838 1.387 . S
H840 C852 0.930 . S
H841 C854 0.930 . S
H842 C855 0.930 . S
H843 C859 0.959 . S
H844 C859 0.959 . S
H845 C859 0.961 . S
H846 C860 0.960 . S
H847 C860 0.961 . S
H848 C860 0.959 . S
H849 C863 0.929 . S
H850 C864 0.931 . S
H851 C866 0.930 . S
C852 H840 0.930 . S
C852 C853 1.399 . S
C852 C857 1.399 . S
C853 C852 1.399 . S
C853 C854 1.376 . S
C854 H841 0.930 . S
C854 C853 1.376 . S
C854 C855 1.388 . S
C855 H842 0.930 . S
C855 C854 1.388 . S
C855 C856 1.390 . S
C856 C855 1.390 . S
C856 C857 1.394 . S
C856 C862 1.465 . S
C857 C852 1.399 . S
C857 C856 1.394 . S
C857 C858 1.516 . S
C858 C857 1.516 . S
C858 C859 1.502 . S
C858 C860 1.561 . S
C858 C861 1.526 . S
C859 H843 0.959 . S
C859 H844 0.959 . S
C859 H845 0.961 . S
C859 C858 1.502 . S
C860 H846 0.960 . S
C860 H847 0.961 . S
C860 H848 0.959 . S
C860 C858 1.561 . S
C861 C858 1.526 . S
C861 C862 1.396 . S
C861 C866 1.390 . S
C862 C856 1.465 . S
C862 C861 1.396 . S
C862 C863 1.399 . S
C863 H849 0.929 . S
C863 C862 1.399 . S
C863 C864 1.385 . S
C864 H850 0.931 . S
C864 C863 1.385 . S
C864 C865 1.389 . S
C865 C864 1.389 . S
C865 C866 1.387 . S
C866 H851 0.930 . S
C866 C861 1.390 . S
C866 C865 1.387 . S
H867 C879 0.930 . S
H868 C881 0.930 . S
H869 C882 0.930 . S
H870 C886 0.959 . S
H871 C886 0.959 . S
H872 C886 0.961 . S
H873 C887 0.960 . S
H874 C887 0.961 . S
H875 C887 0.959 . S
H876 C890 0.929 . S
H877 C891 0.931 . S
H878 C893 0.930 . S
C879 H867 0.930 . S
C879 C880 1.399 . S
C879 C884 1.399 . S
C880 C879 1.399 . S
C880 C881 1.376 . S
C881 H868 0.930 . S
C881 C880 1.376 . S
C881 C882 1.388 . S
C882 H869 0.930 . S
C882 C881 1.388 . S
C882 C883 1.390 . S
C883 C882 1.390 . S
C883 C884 1.394 . S
C883 C889 1.465 . S
C884 C879 1.399 . S
C884 C883 1.394 . S
C884 C885 1.516 . S
C885 C884 1.516 . S
C885 C886 1.502 . S
C885 C887 1.561 . S
C885 C888 1.526 . S
C886 H870 0.959 . S
C886 H871 0.959 . S
C886 H872 0.961 . S
C886 C885 1.502 . S
C887 H873 0.960 . S
C887 H874 0.961 . S
C887 H875 0.959 . S
C887 C885 1.561 . S
C888 C885 1.526 . S
C888 C889 1.396 . S
C888 C893 1.390 . S
C889 C883 1.465 . S
C889 C888 1.396 . S
C889 C890 1.399 . S
C890 H876 0.929 . S
C890 C889 1.399 . S
C890 C891 1.385 . S
C891 H877 0.931 . S
C891 C890 1.385 . S
C891 C892 1.389 . S
C892 C891 1.389 . S
C892 C893 1.387 . S
C893 H878 0.930 . S
C893 C888 1.390 . S
C893 C892 1.387 . S
H894 C906 0.930 . S
H895 C908 0.930 . S
H896 C909 0.930 . S
H897 C913 0.959 . S
H898 C913 0.959 . S
H899 C913 0.961 . S
H900 C914 0.960 . S
H901 C914 0.961 . S
H902 C914 0.959 . S
H903 C917 0.929 . S
H904 C918 0.931 . S
H905 C920 0.930 . S
C906 H894 0.930 . S
C906 C907 1.399 . S
C906 C911 1.399 . S
C907 C906 1.399 . S
C907 C908 1.376 . S
C908 H895 0.930 . S
C908 C907 1.376 . S
C908 C909 1.388 . S
C909 H896 0.930 . S
C909 C908 1.388 . S
C909 C910 1.390 . S
C910 C909 1.390 . S
C910 C911 1.394 . S
C910 C916 1.465 . S
C911 C906 1.399 . S
C911 C910 1.394 . S
C911 C912 1.516 . S
C912 C911 1.516 . S
C912 C913 1.502 . S
C912 C914 1.561 . S
C912 C915 1.526 . S
C913 H897 0.959 . S
C913 H898 0.959 . S
C913 H899 0.961 . S
C913 C912 1.502 . S
C914 H900 0.960 . S
C914 H901 0.961 . S
C914 H902 0.959 . S
C914 C912 1.561 . S
C915 C912 1.526 . S
C915 C916 1.396 . S
C915 C920 1.390 . S
C916 C910 1.465 . S
C916 C915 1.396 . S
C916 C917 1.399 . S
C917 H903 0.929 . S
C917 C916 1.399 . S
C917 C918 1.385 . S
C918 H904 0.931 . S
C918 C917 1.385 . S
C918 C919 1.389 . S
C919 C918 1.389 . S
C919 C920 1.387 . S
C920 H905 0.930 . S
C920 C915 1.390 . S
C920 C919 1.387 . S
H921 C933 0.930 . S
H922 C935 0.930 . S
H923 C936 0.930 . S
H924 C940 0.959 . S
H925 C940 0.959 . S
H926 C940 0.961 . S
H927 C941 0.960 . S
H928 C941 0.961 . S
H929 C941 0.959 . S
H930 C944 0.929 . S
H931 C945 0.931 . S
H932 C947 0.930 . S
C933 H921 0.930 . S
C933 C934 1.399 . S
C933 C938 1.399 . S
C934 C933 1.399 . S
C934 C935 1.376 . S
C935 H922 0.930 . S
C935 C934 1.376 . S
C935 C936 1.388 . S
C936 H923 0.930 . S
C936 C935 1.388 . S
C936 C937 1.390 . S
C937 C936 1.390 . S
C937 C938 1.394 . S
C937 C943 1.465 . S
C938 C933 1.399 . S
C938 C937 1.394 . S
C938 C939 1.516 . S
C939 C938 1.516 . S
C939 C940 1.502 . S
C939 C941 1.561 . S
C939 C942 1.526 . S
C940 H924 0.959 . S
C940 H925 0.959 . S
C940 H926 0.961 . S
C940 C939 1.502 . S
C941 H927 0.960 . S
C941 H928 0.961 . S
C941 H929 0.959 . S
C941 C939 1.561 . S
C942 C939 1.526 . S
C942 C943 1.396 . S
C942 C947 1.390 . S
C943 C937 1.465 . S
C943 C942 1.396 . S
C943 C944 1.399 . S
C944 H930 0.929 . S
C944 C943 1.399 . S
C944 C945 1.385 . S
C945 H931 0.931 . S
C945 C944 1.385 . S
C945 C946 1.389 . S
C946 C945 1.389 . S
C946 C947 1.387 . S
C947 H932 0.930 . S
C947 C942 1.390 . S
C947 C946 1.387 . S
H948 C960 0.930 . S
H949 C962 0.930 . S
H950 C963 0.930 . S
H951 C967 0.959 . S
H952 C967 0.959 . S
H953 C967 0.961 . S
H954 C968 0.960 . S
H955 C968 0.961 . S
H956 C968 0.959 . S
H957 C971 0.929 . S
H958 C972 0.931 . S
H959 C974 0.930 . S
C960 H948 0.930 . S
C960 C961 1.399 . S
C960 C965 1.399 . S
C961 C960 1.399 . S
C961 C962 1.376 . S
C962 H949 0.930 . S
C962 C961 1.376 . S
C962 C963 1.388 . S
C963 H950 0.930 . S
C963 C962 1.388 . S
C963 C964 1.390 . S
C964 C963 1.390 . S
C964 C965 1.394 . S
C964 C970 1.465 . S
C965 C960 1.399 . S
C965 C964 1.394 . S
C965 C966 1.516 . S
C966 C965 1.516 . S
C966 C967 1.502 . S
C966 C968 1.561 . S
C966 C969 1.526 . S
C967 H951 0.959 . S
C967 H952 0.959 . S
C967 H953 0.961 . S
C967 C966 1.502 . S
C968 H954 0.960 . S
C968 H955 0.961 . S
C968 H956 0.959 . S
C968 C966 1.561 . S
C969 C966 1.526 . S
C969 C970 1.396 . S
C969 C974 1.390 . S
C970 C964 1.465 . S
C970 C969 1.396 . S
C970 C971 1.399 . S
C971 H957 0.929 . S
C971 C970 1.399 . S
C971 C972 1.385 . S
C972 H958 0.931 . S
C972 C971 1.385 . S
C972 C973 1.389 . S
C973 C972 1.389 . S
C973 C974 1.387 . S
C974 H959 0.930 . S
C974 C969 1.390 . S
C974 C973 1.387 . S
H975 C987 0.930 . S
H976 C989 0.930 . S
H977 C990 0.930 . S
H978 C994 0.959 . S
H979 C994 0.959 . S
H980 C994 0.961 . S
H981 C995 0.960 . S
H982 C995 0.961 . S
H983 C995 0.959 . S
H984 C998 0.929 . S
H985 C999 0.931 . S
H986 C1001 0.930 . S
C987 H975 0.930 . S
C987 C988 1.399 . S
C987 C992 1.399 . S
C988 C987 1.399 . S
C988 C989 1.376 . S
C989 H976 0.930 . S
C989 C988 1.376 . S
C989 C990 1.388 . S
C990 H977 0.930 . S
C990 C989 1.388 . S
C990 C991 1.390 . S
C991 C990 1.390 . S
C991 C992 1.394 . S
C991 C997 1.465 . S
C992 C987 1.399 . S
C992 C991 1.394 . S
C992 C993 1.516 . S
C993 C992 1.516 . S
C993 C994 1.502 . S
C993 C995 1.561 . S
C993 C996 1.526 . S
C994 H978 0.959 . S
C994 H979 0.959 . S
C994 H980 0.961 . S
C994 C993 1.502 . S
C995 H981 0.960 . S
C995 H982 0.961 . S
C995 H983 0.959 . S
C995 C993 1.561 . S
C996 C993 1.526 . S
C996 C997 1.396 . S
C996 C1001 1.390 . S
C997 C991 1.465 . S
C997 C996 1.396 . S
C997 C998 1.399 . S
C998 H984 0.929 . S
C998 C997 1.399 . S
C998 C999 1.385 . S
C999 H985 0.931 . S
C999 C998 1.385 . S
C999 C1000 1.389 . S
C1000 C999 1.389 . S
C1000 C1001 1.387 . S
C1001 H986 0.930 . S
C1001 C996 1.390 . S
C1001 C1000 1.387 . S
H1002 C1014 0.930 . S
H1003 C1016 0.943 . S
H1004 C1017 0.930 . S
H1005 C1021 0.959 . S
H1006 C1021 0.959 . S
H1007 C1021 0.961 . S
H1008 C1022 0.960 . S
H1009 C1022 0.961 . S
H1010 C1022 0.959 . S
H1011 C1025 0.929 . S
H1012 C1026 0.931 . S
H1013 C1028 0.930 . S
C1014 H1002 0.930 . S
C1014 C1015 1.399 . S
C1014 C1019 1.399 . S
C1015 C1014 1.399 . S
C1015 C1016 1.376 . S
C1016 H1003 0.943 . S
C1016 C1015 1.376 . S
C1016 C1017 1.388 . S
C1017 H1004 0.930 . S
C1017 C1016 1.388 . S
C1017 C1018 1.390 . S
C1018 C1017 1.390 . S
C1018 C1019 1.394 . S
C1018 C1024 1.465 . S
C1019 C1014 1.399 . S
C1019 C1018 1.394 . S
C1019 C1020 1.516 . S
C1020 C1019 1.516 . S
C1020 C1021 1.502 . S
C1020 C1022 1.561 . S
C1020 C1023 1.526 . S
C1021 H1005 0.959 . S
C1021 H1006 0.959 . S
C1021 H1007 0.961 . S
C1021 C1020 1.502 . S
C1022 H1008 0.960 . S
C1022 H1009 0.961 . S
C1022 H1010 0.959 . S
C1022 C1020 1.561 . S
C1023 C1020 1.526 . S
C1023 C1024 1.396 . S
C1023 C1028 1.390 . S
C1024 C1018 1.465 . S
C1024 C1023 1.396 . S
C1024 C1025 1.399 . S
C1025 H1011 0.929 . S
C1025 C1024 1.399 . S
C1025 C1026 1.385 . S
C1026 H1012 0.931 . S
C1026 C1025 1.385 . S
C1026 C1027 1.389 . S
C1027 C1026 1.389 . S
C1027 C1028 1.387 . S
C1028 H1013 0.930 . S
C1028 C1023 1.390 . S
C1028 C1027 1.387 . S
H1029 C1041 0.930 . S
H1030 C1043 0.930 . S
H1031 C1044 0.930 . S
H1032 C1048 0.959 . S
H1033 C1048 0.959 . S
H1034 C1048 0.961 . S
H1035 C1049 0.960 . S
H1036 C1049 0.961 . S
H1037 C1049 0.959 . S
H1038 C1052 0.929 . S
H1039 C1053 0.931 . S
H1040 C1055 0.930 . S
C1041 H1029 0.930 . S
C1041 C1042 1.399 . S
C1041 C1046 1.399 . S
C1042 C1041 1.399 . S
C1042 C1043 1.376 . S
C1043 H1030 0.930 . S
C1043 C1042 1.376 . S
C1043 C1044 1.388 . S
C1044 H1031 0.930 . S
C1044 C1043 1.388 . S
C1044 C1045 1.390 . S
C1045 C1044 1.390 . S
C1045 C1046 1.394 . S
C1045 C1051 1.465 . S
C1046 C1041 1.399 . S
C1046 C1045 1.394 . S
C1046 C1047 1.516 . S
C1047 C1046 1.516 . S
C1047 C1048 1.502 . S
C1047 C1049 1.561 . S
C1047 C1050 1.526 . S
C1048 H1032 0.959 . S
C1048 H1033 0.959 . S
C1048 H1034 0.961 . S
C1048 C1047 1.502 . S
C1049 H1035 0.960 . S
C1049 H1036 0.961 . S
C1049 H1037 0.959 . S
C1049 C1047 1.561 . S
C1050 C1047 1.526 . S
C1050 C1051 1.396 . S
C1050 C1055 1.390 . S
C1051 C1045 1.465 . S
C1051 C1050 1.396 . S
C1051 C1052 1.399 . S
C1052 H1038 0.929 . S
C1052 C1051 1.399 . S
C1052 C1053 1.385 . S
C1053 H1039 0.931 . S
C1053 C1052 1.385 . S
C1053 C1054 1.389 . S
C1054 C1053 1.389 . S
C1054 C1055 1.387 . S
C1055 H1040 0.930 . S
C1055 C1050 1.390 . S
C1055 C1054 1.387 . S
H1056 C1068 0.930 . S
H1057 C1070 0.930 . S
H1058 C1071 0.930 . S
H1059 C1075 0.959 . S
H1060 C1075 0.959 1_655 S
H1061 C1075 0.961 . S
H1062 C1076 0.960 . S
H1063 C1076 0.961 . S
H1064 C1076 0.959 . S
H1065 C1079 0.929 . S
H1066 C1080 0.931 . S
H1067 C1082 0.930 . S
C1068 H1056 0.930 . S
C1068 C1069 1.399 . S
C1068 C1073 1.399 . S
C1069 C1068 1.399 . S
C1069 C1070 1.376 . S
C1070 H1057 0.930 . S
C1070 C1069 1.376 . S
C1070 C1071 1.388 . S
C1071 H1058 0.930 . S
C1071 C1070 1.388 . S
C1071 C1072 1.390 . S
C1072 C1071 1.390 . S
C1072 C1073 1.394 . S
C1072 C1078 1.465 . S
C1073 C1068 1.399 . S
C1073 C1072 1.394 . S
C1073 C1074 1.516 . S
C1074 C1073 1.516 . S
C1074 C1075 1.502 . S
C1074 C1076 1.561 . S
C1074 C1077 1.526 . S
C1075 H1059 0.959 . S
C1075 H1060 0.959 1_455 S
C1075 H1061 0.961 . S
C1075 C1074 1.502 . S
C1076 H1062 0.960 . S
C1076 H1063 0.961 . S
C1076 H1064 0.959 . S
C1076 C1074 1.561 . S
C1077 C1074 1.526 . S
C1077 C1078 1.396 . S
C1077 C1082 1.390 . S
C1078 C1072 1.465 . S
C1078 C1077 1.396 . S
C1078 C1079 1.399 . S
C1079 H1065 0.929 . S
C1079 C1078 1.399 . S
C1079 C1080 1.385 . S
C1080 H1066 0.931 . S
C1080 C1079 1.385 . S
C1080 C1081 1.389 . S
C1081 C1080 1.389 . S
C1081 C1082 1.387 . S
C1082 H1067 0.930 . S
C1082 C1077 1.390 . S
C1082 C1081 1.387 . S
H1083 C1095 0.930 . S
H1084 C1097 0.930 . S
H1085 C1098 0.930 . S
H1086 C1102 0.959 . S
H1087 C1102 0.959 . S
H1088 C1102 0.961 . S
H1089 C1103 0.960 . S
H1090 C1103 0.961 . S
H1091 C1103 0.959 . S
H1092 C1106 0.929 . S
H1093 C1107 0.931 . S
H1094 C1109 0.930 . S
C1095 H1083 0.930 . S
C1095 C1096 1.399 . S
C1095 C1100 1.399 . S
C1096 C1095 1.399 . S
C1096 C1097 1.376 . S
C1097 H1084 0.930 . S
C1097 C1096 1.376 . S
C1097 C1098 1.388 . S
C1098 H1085 0.930 . S
C1098 C1097 1.388 . S
C1098 C1099 1.390 . S
C1099 C1098 1.390 . S
C1099 C1100 1.394 . S
C1099 C1105 1.465 . S
C1100 C1095 1.399 . S
C1100 C1099 1.394 . S
C1100 C1101 1.516 . S
C1101 C1100 1.516 . S
C1101 C1102 1.502 . S
C1101 C1103 1.561 . S
C1101 C1104 1.526 . S
C1102 H1086 0.959 . S
C1102 H1087 0.959 . S
C1102 H1088 0.961 . S
C1102 C1101 1.502 . S
C1103 H1089 0.960 . S
C1103 H1090 0.961 . S
C1103 H1091 0.959 . S
C1103 C1101 1.561 . S
C1104 C1101 1.526 . S
C1104 C1105 1.396 . S
C1104 C1109 1.390 . S
C1105 C1099 1.465 . S
C1105 C1104 1.396 . S
C1105 C1106 1.399 . S
C1106 H1092 0.929 . S
C1106 C1105 1.399 . S
C1106 C1107 1.385 . S
C1107 H1093 0.931 . S
C1107 C1106 1.385 . S
C1107 C1108 1.389 . S
C1108 C1107 1.389 . S
C1108 C1109 1.387 . S
C1109 H1094 0.930 . S
C1109 C1104 1.390 . S
C1109 C1108 1.387 . S
H1110 C1122 0.930 . S
H1111 C1124 0.930 . S
H1112 C1125 0.930 . S
H1113 C1129 0.959 . S
H1114 C1129 0.959 . S
H1115 C1129 0.961 . S
H1116 C1130 0.960 . S
H1117 C1130 0.961 . S
H1118 C1130 0.959 . S
H1119 C1133 0.929 . S
H1120 C1134 0.931 . S
H1121 C1136 0.930 . S
C1122 H1110 0.930 . S
C1122 C1123 1.399 . S
C1122 C1127 1.399 . S
C1123 C1122 1.399 . S
C1123 C1124 1.376 . S
C1124 H1111 0.930 . S
C1124 C1123 1.376 . S
C1124 C1125 1.388 . S
C1125 H1112 0.930 . S
C1125 C1124 1.388 . S
C1125 C1126 1.390 . S
C1126 C1125 1.390 . S
C1126 C1127 1.394 . S
C1126 C1132 1.465 . S
C1127 C1122 1.399 . S
C1127 C1126 1.394 . S
C1127 C1128 1.516 . S
C1128 C1127 1.516 . S
C1128 C1129 1.502 . S
C1128 C1130 1.561 . S
C1128 C1131 1.526 . S
C1129 H1113 0.959 . S
C1129 H1114 0.959 . S
C1129 H1115 0.961 . S
C1129 C1128 1.502 . S
C1130 H1116 0.960 . S
C1130 H1117 0.961 . S
C1130 H1118 0.959 . S
C1130 C1128 1.561 . S
C1131 C1128 1.526 . S
C1131 C1132 1.396 . S
C1131 C1136 1.390 . S
C1132 C1126 1.465 . S
C1132 C1131 1.396 . S
C1132 C1133 1.399 . S
C1133 H1119 0.929 . S
C1133 C1132 1.399 . S
C1133 C1134 1.385 . S
C1134 H1120 0.931 . S
C1134 C1133 1.385 . S
C1134 C1135 1.389 . S
C1135 C1134 1.389 . S
C1135 C1136 1.387 . S
C1136 H1121 0.930 . S
C1136 C1131 1.390 . S
C1136 C1135 1.387 . S
H1137 C1149 0.930 . S
H1138 C1151 0.930 . S
H1139 C1152 0.930 . S
H1140 C1156 0.959 . S
H1141 C1156 0.959 . S
H1142 C1156 0.961 . S
H1143 C1157 0.960 . S
H1144 C1157 0.961 . S
H1145 C1157 0.959 . S
H1146 C1160 0.929 . S
H1147 C1161 0.931 . S
H1148 C1163 0.930 . S
C1149 H1137 0.930 . S
C1149 C1150 1.399 . S
C1149 C1154 1.399 . S
C1150 C1149 1.399 . S
C1150 C1151 1.376 . S
C1151 H1138 0.930 . S
C1151 C1150 1.376 . S
C1151 C1152 1.388 . S
C1152 H1139 0.930 . S
C1152 C1151 1.388 . S
C1152 C1153 1.390 . S
C1153 C1152 1.390 . S
C1153 C1154 1.394 . S
C1153 C1159 1.465 . S
C1154 C1149 1.399 . S
C1154 C1153 1.394 . S
C1154 C1155 1.516 . S
C1155 C1154 1.516 . S
C1155 C1156 1.502 . S
C1155 C1157 1.561 . S
C1155 C1158 1.526 . S
C1156 H1140 0.959 . S
C1156 H1141 0.959 . S
C1156 H1142 0.961 . S
C1156 C1155 1.502 . S
C1157 H1143 0.960 . S
C1157 H1144 0.961 . S
C1157 H1145 0.959 . S
C1157 C1155 1.561 . S
C1158 C1155 1.526 . S
C1158 C1159 1.396 . S
C1158 C1163 1.390 . S
C1159 C1153 1.465 . S
C1159 C1158 1.396 . S
C1159 C1160 1.399 . S
C1160 H1146 0.929 . S
C1160 C1159 1.399 . S
C1160 C1161 1.385 . S
C1161 H1147 0.931 . S
C1161 C1160 1.385 . S
C1161 C1162 1.389 . S
C1162 C1161 1.389 . S
C1162 C1163 1.387 . S
C1163 H1148 0.930 . S
C1163 C1158 1.390 . S
C1163 C1162 1.387 . S
H1164 C1176 0.930 . S
H1165 C1178 0.930 . S
H1166 C1179 0.930 . S
H1167 C1183 0.959 . S
H1168 C1183 0.959 . S
H1169 C1183 0.961 . S
H1170 C1184 0.960 . S
H1171 C1184 0.961 . S
H1172 C1184 0.959 . S
H1173 C1187 0.929 . S
H1174 C1188 0.931 . S
H1175 C1190 0.930 . S
C1176 H1164 0.930 . S
C1176 C1177 1.399 . S
C1176 C1181 1.399 . S
C1177 C1176 1.399 . S
C1177 C1178 1.376 . S
C1178 H1165 0.930 . S
C1178 C1177 1.376 . S
C1178 C1179 1.388 . S
C1179 H1166 0.930 . S
C1179 C1178 1.388 . S
C1179 C1180 1.390 . S
C1180 C1179 1.390 . S
C1180 C1181 1.394 . S
C1180 C1186 1.465 . S
C1181 C1176 1.399 . S
C1181 C1180 1.394 . S
C1181 C1182 1.516 . S
C1182 C1181 1.516 . S
C1182 C1183 1.502 . S
C1182 C1184 1.561 . S
C1182 C1185 1.526 . S
C1183 H1167 0.959 . S
C1183 H1168 0.959 . S
C1183 H1169 0.961 . S
C1183 C1182 1.502 . S
C1184 H1170 0.960 . S
C1184 H1171 0.961 . S
C1184 H1172 0.959 . S
C1184 C1182 1.561 . S
C1185 C1182 1.526 . S
C1185 C1186 1.396 . S
C1185 C1190 1.390 . S
C1186 C1180 1.465 . S
C1186 C1185 1.396 . S
C1186 C1187 1.399 . S
C1187 H1173 0.929 . S
C1187 C1186 1.399 . S
C1187 C1188 1.385 . S
C1188 H1174 0.931 . S
C1188 C1187 1.385 . S
C1188 C1189 1.389 . S
C1189 C1188 1.389 . S
C1189 C1190 1.387 . S
C1190 H1175 0.930 . S
C1190 C1185 1.390 . S
C1190 C1189 1.387 . S
H1191 C1203 0.930 . S
H1192 C1205 0.930 . S
H1193 C1206 0.930 . S
H1194 C1210 0.959 . S
H1195 C1210 0.959 . S
H1196 C1210 0.961 . S
H1197 C1211 0.960 . S
H1198 C1211 0.961 . S
H1199 C1211 0.959 . S
H1200 C1214 0.929 . S
H1201 C1215 0.931 . S
H1202 C1217 0.930 . S
C1203 H1191 0.930 . S
C1203 C1204 1.399 . S
C1203 C1208 1.399 . S
C1204 C1203 1.399 . S
C1204 C1205 1.376 . S
C1205 H1192 0.930 . S
C1205 C1204 1.376 . S
C1205 C1206 1.388 . S
C1206 H1193 0.930 . S
C1206 C1205 1.388 . S
C1206 C1207 1.390 . S
C1207 C1206 1.390 . S
C1207 C1208 1.394 . S
C1207 C1213 1.465 . S
C1208 C1203 1.399 . S
C1208 C1207 1.394 . S
C1208 C1209 1.516 . S
C1209 C1208 1.516 . S
C1209 C1210 1.502 . S
C1209 C1211 1.561 . S
C1209 C1212 1.526 . S
C1210 H1194 0.959 . S
C1210 H1195 0.959 . S
C1210 H1196 0.961 . S
C1210 C1209 1.502 . S
C1211 H1197 0.960 . S
C1211 H1198 0.961 . S
C1211 H1199 0.959 . S
C1211 C1209 1.561 . S
C1212 C1209 1.526 . S
C1212 C1213 1.396 . S
C1212 C1217 1.390 . S
C1213 C1207 1.465 . S
C1213 C1212 1.396 . S
C1213 C1214 1.399 . S
C1214 H1200 0.929 . S
C1214 C1213 1.399 . S
C1214 C1215 1.385 . S
C1215 H1201 0.931 . S
C1215 C1214 1.385 . S
C1215 C1216 1.389 . S
C1216 C1215 1.389 . S
C1216 C1217 1.387 . S
C1217 H1202 0.930 . S
C1217 C1212 1.390 . S
C1217 C1216 1.387 . S
H1218 C1230 0.930 . S
H1219 C1232 0.930 . S
H1220 C1233 0.930 . S
H1221 C1237 0.959 . S
H1222 C1237 0.959 . S
H1223 C1237 0.961 . S
H1224 C1238 0.960 . S
H1225 C1238 0.961 . S
H1226 C1238 0.959 . S
H1227 C1241 0.929 . S
H1228 C1242 0.931 . S
H1229 C1244 0.930 . S
C1230 H1218 0.930 . S
C1230 C1231 1.399 . S
C1230 C1235 1.399 . S
C1231 C1230 1.399 . S
C1231 C1232 1.376 . S
C1232 H1219 0.930 . S
C1232 C1231 1.376 . S
C1232 C1233 1.388 . S
C1233 H1220 0.930 . S
C1233 C1232 1.388 . S
C1233 C1234 1.390 . S
C1234 C1233 1.390 . S
C1234 C1235 1.394 . S
C1234 C1240 1.465 . S
C1235 C1230 1.399 . S
C1235 C1234 1.394 . S
C1235 C1236 1.516 . S
C1236 C1235 1.516 . S
C1236 C1237 1.502 . S
C1236 C1238 1.561 . S
C1236 C1239 1.526 . S
C1237 H1221 0.959 . S
C1237 H1222 0.959 . S
C1237 H1223 0.961 . S
C1237 C1236 1.502 . S
C1238 H1224 0.960 . S
C1238 H1225 0.961 . S
C1238 H1226 0.959 . S
C1238 C1236 1.561 . S
C1239 C1236 1.526 . S
C1239 C1240 1.396 . S
C1239 C1244 1.390 . S
C1240 C1234 1.465 . S
C1240 C1239 1.396 . S
C1240 C1241 1.399 . S
C1241 H1227 0.929 . S
C1241 C1240 1.399 . S
C1241 C1242 1.385 . S
C1242 H1228 0.931 . S
C1242 C1241 1.385 . S
C1242 C1243 1.389 . S
C1243 C1242 1.389 . S
C1243 C1244 1.387 . S
C1244 H1229 0.930 . S
C1244 C1239 1.390 . S
C1244 C1243 1.387 . S
H1245 C1257 0.930 . S
H1246 C1259 0.930 . S
H1247 C1260 0.930 . S
H1248 C1264 0.959 . S
H1249 C1264 0.959 . S
H1250 C1264 0.961 . S
H1251 C1265 0.960 . S
H1252 C1265 0.961 . S
H1253 C1265 0.959 . S
H1254 C1268 0.929 . S
H1255 C1269 0.931 . S
H1256 C1271 0.930 . S
C1257 H1245 0.930 . S
C1257 C1258 1.399 . S
C1257 C1262 1.399 . S
C1258 C1257 1.399 . S
C1258 C1259 1.376 . S
C1259 H1246 0.930 . S
C1259 C1258 1.376 . S
C1259 C1260 1.388 . S
C1260 H1247 0.930 . S
C1260 C1259 1.388 . S
C1260 C1261 1.390 . S
C1261 C1260 1.390 . S
C1261 C1262 1.394 . S
C1261 C1267 1.465 . S
C1262 C1257 1.399 . S
C1262 C1261 1.394 . S
C1262 C1263 1.516 . S
C1263 C1262 1.516 . S
C1263 C1264 1.502 . S
C1263 C1265 1.561 . S
C1263 C1266 1.526 . S
C1264 H1248 0.959 . S
C1264 H1249 0.959 . S
C1264 H1250 0.961 . S
C1264 C1263 1.502 . S
C1265 H1251 0.960 . S
C1265 H1252 0.961 . S
C1265 H1253 0.959 . S
C1265 C1263 1.561 . S
C1266 C1263 1.526 . S
C1266 C1267 1.396 . S
C1266 C1271 1.390 . S
C1267 C1261 1.465 . S
C1267 C1266 1.396 . S
C1267 C1268 1.399 . S
C1268 H1254 0.929 . S
C1268 C1267 1.399 . S
C1268 C1269 1.385 . S
C1269 H1255 0.931 . S
C1269 C1268 1.385 . S
C1269 C1270 1.389 . S
C1270 C1269 1.389 . S
C1270 C1271 1.387 . S
C1271 H1256 0.930 . S
C1271 C1266 1.390 . S
C1271 C1270 1.387 . S
C637 C247 1.473 . S
C649 C362 1.470 . S
C676 C446 1.470 . S
C664 C283 1.472 . S
C703 C439 1.461 . S
C691 C175 1.468 . S
C718 C211 1.466 . S
C730 C355 1.471 . S
C757 C519 1.454 . S
C745 C103 1.478 . S
C784 C603 1.443 . S
C772 C139 1.440 . S
C799 C31 1.431 . S
C811 C596 1.474 . S
C826 C67 1.431 . S
C838 C512 1.474 . S
C865 C346 1.320 . S
C853 C37 1.495 1_554 S
C892 C430 1.314 . S
C880 C1 1.498 . S
C919 C441 1.450 . S
C907 C109 1.519 1_556 S
C946 C357 1.345 . S
C934 C73 1.527 . S
C973 C525 1.392 . S
C961 C181 1.510 1_556 S
C988 C145 1.510 . S
C1000 C609 1.398 . S
C1027 C598 1.395 . S
C1015 C253 1.531 1_554 S
C1042 C217 1.531 . S
C1054 C514 1.376 . S
C1081 C344 1.572 . S
C1069 C25 1.522 . S
C1108 C428 1.583 . S
C1096 C61 1.541 . S
C1123 C97 1.536 . S
C1135 C435 1.566 . S
C1162 C351 1.536 . S
C1150 C133 1.548 . S
C1189 C523 1.564 . S
C1177 C169 1.578 . S
C1204 C205 1.554 . S
C1216 C607 1.581 . S
C1231 C241 1.558 . S
C1243 C614 1.548 . S
C1258 C277 1.538 . S
C1270 C530 1.530 . S
