# Generated by pormake.
# Topology pth, (4,4)-cn, num edge types: 1
# Building blocks:
#     Node 0, Type 0, BuildingBlock: GALJAG_clean_sbu_0, # of connection points: 4
#     Node 1, Type 0, BuildingBlock: GALJAG_clean_sbu_0, # of connection points: 4
#     Node 2, Type 0, BuildingBlock: GALJAG_clean_sbu_0, # of connection points: 4
#     Node 3, Type 1, BuildingBlock: MUDLON_clean_linker_0, # of connection points: 4
#     Node 4, Type 1, BuildingBlock: MUDLON_clean_linker_0, # of connection points: 4
#     Node 5, Type 1, BuildingBlock: MUDLON_clean_linker_0, # of connection points: 4
#     Edge 6, Type (0, 1), BuildingBlock: AJUNOK_clean_linker_0, # of connection points: 2
#     Edge 7, Type (0, 1), BuildingBlock: AJUNOK_clean_linker_0, # of connection points: 2
#     Edge 8, Type (0, 1), BuildingBlock: AJUNOK_clean_linker_0, # of connection points: 2
#     Edge 9, Type (0, 1), BuildingBlock: AJUNOK_clean_linker_0, # of connection points: 2
#     Edge 10, Type (0, 1), BuildingBlock: AJUNOK_clean_linker_0, # of connection points: 2
#     Edge 11, Type (0, 1), BuildingBlock: AJUNOK_clean_linker_0, # of connection points: 2
#     Edge 12, Type (0, 1), BuildingBlock: AJUNOK_clean_linker_0, # of connection points: 2
#     Edge 13, Type (0, 1), BuildingBlock: AJUNOK_clean_linker_0, # of connection points: 2
#     Edge 14, Type (0, 1), BuildingBlock: AJUNOK_clean_linker_0, # of connection points: 2
#     Edge 15, Type (0, 1), BuildingBlock: AJUNOK_clean_linker_0, # of connection points: 2
#     Edge 16, Type (0, 1), BuildingBlock: AJUNOK_clean_linker_0, # of connection points: 2
#     Edge 17, Type (0, 1), BuildingBlock: AJUNOK_clean_linker_0, # of connection points: 2
# Relax obj value: 0.017
# Max RMSD: 0.066
# Mean RMSD: 0.062
data_MOF--net-pth--node1-GALJAG_clean_sbu_0--node2-MUDLON_clean_linker_0--edge1-AJUNOK_clean_linker_0
_symmetry_space_group_name_H-M    P1
_symmetry_Int_Tables_number       1
_symmetry_cell_setting            triclinic
loop_
_symmetry_equiv_pos_as_xyz
'x, y, z'
_cell_length_a     27.536735
_cell_length_b     27.54709
_cell_length_c     53.391404
_cell_angle_alpha  90.154428
_cell_angle_beta   90.108149
_cell_angle_gamma 120.06966
loop_
_atom_site_label
_atom_site_type_symbol
_atom_site_fract_x
_atom_site_fract_y
_atom_site_fract_z
_atom_type_partial_charge
In0 In 0.01651 0.01614 0.02438 0.0
O1 O 0.96598 0.05459 0.0398 0.0
O2 O 0.0429 0.07386 0.05793 0.0
C3 C 0.94886 0.93939 0.99022 0.0
C4 C 0.09336 0.10031 0.99619 0.0
C5 C 0.02012 0.94692 0.05872 0.0
O6 O 0.93195 0.96515 0.0041 0.0
O7 O 0.99959 0.95337 0.99341 0.0
O8 O 0.06191 0.97661 0.04484 0.0
O9 O 0.97764 0.95186 0.05477 0.0
C10 C 1.00058 0.08028 0.05737 0.0
O11 O 0.10378 0.06506 0.00637 0.0
O12 O 0.04469 0.09219 -6e-05 0.0
In13 In 0.00721 0.01323 0.36093 0.0
O14 O 0.04906 0.09051 0.33541 0.0
O15 O 0.96076 0.04948 0.34005 0.0
C16 C 0.09549 0.0313 0.38987 0.0
C17 C 0.93059 0.99951 0.39586 0.0
C18 C 0.99432 0.93167 0.32874 0.0
O19 O 0.09039 0.07081 0.38084 0.0
O20 O 0.05644 0.98292 0.38407 0.0
O21 O 0.96291 0.92202 0.34747 0.0
O22 O 0.03179 0.9824 0.32626 0.0
C23 C 0.00365 0.08889 0.32993 0.0
O24 O 0.92007 0.96427 0.37851 0.0
O25 O 0.97987 0.04092 0.39569 0.0
In26 In 0.01153 0.00525 0.69325 0.0
O27 O 0.98368 0.91979 0.71125 0.0
O28 O 0.94612 0.96646 0.72386 0.0
C29 C 0.09153 0.01599 0.66106 0.0
C30 C 0.93274 0.99735 0.66056 0.0
C31 C 0.07618 0.08737 0.72584 0.0
O32 O 0.05945 0.97025 0.67197 0.0
O33 O 0.08304 0.05578 0.66634 0.0
O34 O 0.03638 0.08717 0.71389 0.0
O35 O 0.08288 0.04606 0.72142 0.0
C36 C 0.94852 0.9221 0.72564 0.0
O37 O 0.95964 0.03963 0.67461 0.0
O38 O 0.9462 0.96014 0.66299 0.0
H39 H 0.87609 0.67107 0.21464 0.0
N40 N 0.95984 0.66839 0.19129 0.0
H41 H 0.88337 0.73042 0.25039 0.0
H42 H 0.05344 0.73133 0.21927 0.0
H43 H 0.06107 0.7898 0.25538 0.0
H44 H 0.0637 0.7421 0.17362 0.0
H45 H 0.08429 0.811 0.1401 0.0
H46 H 0.88677 0.66899 0.15913 0.0
H47 H 0.90682 0.73642 0.12535 0.0
H48 H 0.87111 0.56846 0.18259 0.0
H49 H 0.04775 0.65141 0.19931 0.0
H50 H 0.8667 0.4777 0.18263 0.0
H51 H 0.04368 0.56055 0.20083 0.0
H52 H 0.8649 0.19687 0.21496 0.0
H53 H 0.88615 0.154 0.25016 0.0
H54 H 0.05108 0.30082 0.2565 0.0
H55 H 0.02983 0.34262 0.22058 0.0
H56 H 0.03641 0.31363 0.1766 0.0
H57 H 0.05457 0.26796 0.14161 0.0
H58 H 0.87742 0.17653 0.12418 0.0
H59 H 0.86002 0.22509 0.15852 0.0
H60 H 0.86014 0.32016 0.20942 0.0
H61 H 0.86865 0.41269 0.21021 0.0
H62 H 0.033 0.48356 0.17661 0.0
N63 N 0.93333 0.29262 0.19256 0.0
H64 H 0.02524 0.39161 0.17725 0.0
C65 C 0.96399 0.69654 0.21453 0.0
C66 C 0.91623 0.69593 0.2239 0.0
C67 C 0.92049 0.72965 0.24433 0.0
C68 C 0.97276 0.76444 0.25579 0.0
C69 C 0.02029 0.76343 0.24688 0.0
C70 C 0.01595 0.72977 0.22639 0.0
C71 C 0.97362 0.70112 0.16887 0.0
C72 C 0.02949 0.74012 0.1628 0.0
C73 C 0.04116 0.77923 0.14369 0.0
C74 C 0.99702 0.77954 0.13058 0.0
C75 C 0.9415 0.73763 0.13553 0.0
C76 C 0.92997 0.69895 0.1546 0.0
C77 C 0.95942 0.61617 0.1912 0.0
C78 C 0.90884 0.56675 0.18648 0.0
C79 C 0.90644 0.51496 0.18676 0.0
C80 C 0.95469 0.51147 0.1921 0.0
C81 C 0.00576 0.56152 0.1965 0.0
C82 C 0.00815 0.61352 0.19589 0.0
C83 C 0.9455 0.27272 0.21527 0.0
C84 C 0.90531 0.22 0.2242 0.0
C85 C 0.91758 0.1957 0.24429 0.0
C86 C 0.9705 0.22382 0.25597 0.0
C87 C 0.01035 0.27768 0.24755 0.0
C88 C 0.99807 0.30187 0.22724 0.0
C89 C 0.94671 0.27314 0.16998 0.0
C90 C 0.00168 0.28524 0.16479 0.0
C91 C 0.01189 0.2583 0.14503 0.0
C92 C 0.96722 0.21765 0.13053 0.0
C93 C 0.91269 0.20765 0.135 0.0
C94 C 0.90265 0.23528 0.15456 0.0
C95 C 0.94134 0.34848 0.19296 0.0
C96 C 0.89804 0.35582 0.20234 0.0
C97 C 0.9029 0.40873 0.20256 0.0
C98 C 0.9512 0.45572 0.19308 0.0
C99 C 0.99531 0.44853 0.18419 0.0
C100 C 0.99066 0.39553 0.1843 0.0
H101 H 0.74972 0.05037 0.542 0.0
N102 N 0.65351 0.95358 0.52884 0.0
H103 H 0.8137 0.0607 0.57601 0.0
H104 H 0.63403 0.8816 0.56581 0.0
H105 H 0.69738 0.89234 0.60048 0.0
H106 H 0.66872 0.87456 0.50805 0.0
H107 H 0.73367 0.886 0.47423 0.0
H108 H 0.71066 0.04679 0.49957 0.0
H109 H 0.77501 0.05833 0.46546 0.0
H110 H 0.65673 0.04235 0.55519 0.0
H111 H 0.56292 0.91406 0.49988 0.0
H112 H 0.58754 0.07164 0.55376 0.0
H113 H 0.49501 0.94599 0.49708 0.0
H114 H 0.33448 0.14852 0.54206 0.0
H115 H 0.26907 0.13148 0.57621 0.0
H116 H 0.2695 0.97905 0.59458 0.0
H117 H 0.33145 0.99414 0.55959 0.0
H118 H 0.26861 0.98771 0.5142 0.0
H119 H 0.20723 0.97711 0.47903 0.0
H120 H 0.33495 0.13617 0.4495 0.0
H121 H 0.39523 0.14765 0.48553 0.0
H122 H 0.47928 0.14529 0.53202 0.0
H123 H 0.55075 0.11752 0.5313 0.0
H124 H 0.42117 0.94544 0.51792 0.0
N125 N 0.36954 0.08086 0.52512 0.0
H126 H 0.35111 0.97461 0.51702 0.0
C127 C 0.68716 0.96471 0.55121 0.0
C128 C 0.73758 0.01584 0.5548 0.0
C129 C 0.77404 0.02187 0.57434 0.0
C130 C 0.76094 0.97696 0.59056 0.0
C131 C 0.70901 0.92721 0.58789 0.0
C132 C 0.67261 0.92117 0.56831 0.0
C133 C 0.68496 0.95964 0.50634 0.0
C134 C 0.69106 0.91442 0.49847 0.0
C135 C 0.72812 0.92105 0.47922 0.0
C136 C 0.76 0.9733 0.46754 0.0
C137 C 0.75179 0.01792 0.47453 0.0
C138 C 0.71469 0.01125 0.49383 0.0
C139 C 0.61524 0.97524 0.52765 0.0
C140 C 0.62183 0.02066 0.54242 0.0
C141 C 0.58203 0.03799 0.54143 0.0
C142 C 0.53521 0.01129 0.52533 0.0
C143 C 0.5296 0.96691 0.51014 0.0
C144 C 0.56879 0.9489 0.5115 0.0
C145 C 0.33824 0.07303 0.54797 0.0
C146 C 0.32088 0.11172 0.55363 0.0
C147 C 0.2835 0.10188 0.57319 0.0
C148 C 0.26311 0.05328 0.58788 0.0
C149 C 0.28283 0.01592 0.58311 0.0
C150 C 0.31929 0.02515 0.56317 0.0
C151 C 0.33628 0.06908 0.50264 0.0
C152 C 0.2837 0.02002 0.50004 0.0
C153 C 0.24867 0.01396 0.47987 0.0
C154 C 0.26573 0.05644 0.46179 0.0
C155 C 0.31991 0.10356 0.46354 0.0
C156 C 0.35464 0.10991 0.48389 0.0
C157 C 0.41 0.06219 0.52485 0.0
C158 C 0.46662 0.10166 0.52885 0.0
C159 C 0.5073 0.08549 0.52862 0.0
C160 C 0.49204 0.02899 0.52473 0.0
C161 C 0.43498 0.98945 0.52057 0.0
C162 C 0.39453 0.00595 0.52031 0.0
H163 H 0.71883 0.7481 0.86994 0.0
N164 N 0.71906 0.65048 0.86008 0.0
H165 H 0.77133 0.8154 0.90325 0.0
H166 H 0.77072 0.6351 0.8988 0.0
H167 H 0.82223 0.70181 0.9327 0.0
H168 H 0.81533 0.66648 0.8415 0.0
H169 H 0.869 0.72776 0.80684 0.0
H170 H 0.68215 0.70223 0.82778 0.0
H171 H 0.7347 0.76216 0.79252 0.0
H172 H 0.63395 0.65508 0.88606 0.0
H173 H 0.66694 0.55873 0.83176 0.0
H174 H 0.53529 0.58634 0.88487 0.0
H175 H 0.56678 0.49117 0.82919 0.0
H176 H 0.20884 0.34331 0.87854 0.0
H177 H 0.1621 0.28313 0.91435 0.0
H178 H 0.3088 0.26855 0.92844 0.0
H179 H 0.35393 0.32589 0.89187 0.0
H180 H 0.29638 0.26545 0.84997 0.0
H181 H 0.2423 0.20078 0.81625 0.0
H182 H 0.21171 0.32692 0.78418 0.0
H183 H 0.26333 0.39038 0.81897 0.0
H184 H 0.35293 0.4783 0.86408 0.0
H185 H 0.45236 0.54929 0.86244 0.0
H186 H 0.49326 0.41841 0.85043 0.0
N187 N 0.30674 0.36818 0.85888 0.0
H188 H 0.39369 0.34872 0.85035 0.0
C189 C 0.74146 0.68667 0.88175 0.0
C190 C 0.74079 0.73737 0.88367 0.0
C191 C 0.77054 0.77569 0.9028 0.0
C192 C 0.80163 0.7642 0.92024 0.0
C193 C 0.79952 0.71217 0.91916 0.0
C194 C 0.76982 0.67389 0.90001 0.0
C195 C 0.74479 0.67948 0.83712 0.0
C196 C 0.79704 0.68628 0.83048 0.0
C197 C 0.82747 0.72107 0.81061 0.0
C198 C 0.80587 0.74944 0.79681 0.0
C199 C 0.75245 0.74094 0.80287 0.0
C200 C 0.7222 0.70641 0.82289 0.0
C201 C 0.65892 0.61244 0.85894 0.0
C202 C 0.6204 0.61976 0.87352 0.0
C203 C 0.56313 0.58019 0.87267 0.0
C204 C 0.54247 0.53279 0.85693 0.0
C205 C 0.58087 0.52631 0.84196 0.0
C206 C 0.63825 0.5653 0.84318 0.0
C207 C 0.28508 0.34003 0.88249 0.0
C208 C 0.23133 0.32809 0.88968 0.0
C209 C 0.20485 0.29394 0.91028 0.0
C210 C 0.2321 0.27173 0.92456 0.0
C211 C 0.2867 0.285 0.91783 0.0
C212 C 0.31285 0.31847 0.89693 0.0
C213 C 0.28298 0.33253 0.8372 0.0
C214 C 0.27835 0.27938 0.83564 0.0
C215 C 0.24752 0.24245 0.81627 0.0
C216 C 0.22146 0.25817 0.79786 0.0
C217 C 0.22952 0.31278 0.79855 0.0
C218 C 0.25962 0.34936 0.81816 0.0
C219 C 0.36592 0.40838 0.85766 0.0
C220 C 0.38358 0.46526 0.86097 0.0
C221 C 0.44054 0.50566 0.86023 0.0
C222 C 0.48141 0.48989 0.85655 0.0
C223 C 0.46334 0.43258 0.85295 0.0
C224 C 0.40622 0.39235 0.85319 0.0
C225 C 0.95933 0.13927 0.07042 0.0
C226 C 0.9923 0.11494 0.07614 0.0
C227 C 0.95189 0.17301 0.08797 0.0
C228 C 0.9768 0.18318 0.1119 0.0
H229 H 0.93974 0.13281 0.05217 0.0
H230 H 0.92676 0.19156 0.08271 0.0
S231 S 0.06212 0.12404 0.13687 0.0
N232 N 0.04747 0.10064 0.10778 0.0
N233 N 0.03221 0.16252 0.14094 0.0
C234 C 0.00881 0.15793 0.11797 0.0
C235 C 0.01685 0.12417 0.10005 0.0
C236 C 0.83228 0.94922 0.41223 0.0
C237 C 0.88798 0.99371 0.41438 0.0
C238 C 0.79099 0.94322 0.4293 0.0
C239 C 0.80375 0.98163 0.44908 0.0
H240 H 0.82035 0.91878 0.39722 0.0
H241 H 0.74864 0.90838 0.42693 0.0
S242 S 0.9436 0.10385 0.46379 0.0
N243 N 0.9539 0.07605 0.43836 0.0
N244 N 0.87637 0.06432 0.47048 0.0
C245 C 0.85927 0.02608 0.45156 0.0
C246 C 0.90134 0.03219 0.43422 0.0
C247 C 0.88109 0.8867 0.76123 0.0
C248 C 0.91233 0.87675 0.7432 0.0
C249 C 0.84623 0.84502 0.77814 0.0
C250 C 0.84093 0.79151 0.77766 0.0
H251 H 0.88395 0.92731 0.76253 0.0
H252 H 0.82411 0.85522 0.79205 0.0
S253 S 0.91072 0.74262 0.73307 0.0
N254 N 0.93413 0.80865 0.72527 0.0
N255 N 0.86775 0.72988 0.75685 0.0
C256 C 0.87118 0.78059 0.75947 0.0
C257 C 0.90703 0.82325 0.74229 0.0
C258 C 0.04966 0.88042 0.07545 0.0
C259 C 0.01961 0.909 0.07833 0.0
C260 C 0.04366 0.83938 0.0928 0.0
C261 C 0.0076 0.82607 0.11348 0.0
H262 H 0.07614 0.8882 0.05924 0.0
H263 H 0.06577 0.81667 0.08958 0.0
S264 S 0.92761 0.89603 0.1316 0.0
N265 N 0.95789 0.92579 0.10491 0.0
N266 N 0.94727 0.84958 0.13748 0.0
C267 C 0.98018 0.85687 0.11727 0.0
C268 C 0.98601 0.89812 0.09968 0.0
C269 C 0.15149 0.99569 0.41191 0.0
C270 C 0.14194 0.04032 0.40682 0.0
C271 C 0.19267 0.00174 0.42913 0.0
C272 C 0.22572 0.05257 0.44205 0.0
H273 H 0.12658 0.95548 0.4027 0.0
H274 H 0.1983 0.96611 0.43253 0.0
S275 S 0.21622 0.18183 0.43595 0.0
N276 N 0.1689 0.13712 0.41604 0.0
N277 N 0.24524 0.14809 0.44888 0.0
C278 C 0.21698 0.09776 0.43692 0.0
C279 C 0.17536 0.09173 0.41921 0.0
C280 C 0.16601 0.14042 0.74963 0.0
C281 C 0.1128 0.1325 0.74352 0.0
C282 C 0.2013 0.18193 0.76673 0.0
C283 C 0.18454 0.2168 0.77862 0.0
H284 H 0.1807 0.11445 0.74106 0.0
H285 H 0.24205 0.18665 0.77069 0.0
S286 S 0.04778 0.21093 0.77005 0.0
N287 N 0.04453 0.16221 0.75091 0.0
N288 N 0.10993 0.23898 0.78372 0.0
C289 C 0.13125 0.20917 0.7727 0.0
C290 C 0.09561 0.16732 0.75501 0.0
C291 C 0.87264 0.03248 0.64169 0.0
C292 C 0.8885 0.99124 0.64281 0.0
C293 C 0.83089 0.02739 0.62497 0.0
C294 C 0.80324 0.9807 0.60891 0.0
H295 H 0.89266 0.06905 0.65376 0.0
H296 H 0.82003 0.06013 0.62466 0.0
S297 S 0.8308 0.86233 0.60361 0.0
N298 N 0.87393 0.90272 0.62586 0.0
N299 N 0.79611 0.89365 0.59443 0.0
C300 C 0.81883 0.93934 0.60976 0.0
C301 C 0.86129 0.94449 0.6267 0.0
C302 C 0.85494 0.87898 0.96995 0.0
C303 C 0.91202 0.89502 0.97216 0.0
C304 C 0.81926 0.8364 0.95325 0.0
C305 C 0.83929 0.80804 0.93833 0.0
H306 H 0.83758 0.89936 0.98121 0.0
H307 H 0.77561 0.82531 0.95212 0.0
S308 S 0.98564 0.83573 0.93605 0.0
N309 N 0.98708 0.87994 0.95736 0.0
N310 N 0.92014 0.80048 0.926 0.0
C311 C 0.89627 0.82393 0.9402 0.0
C312 C 0.93259 0.86728 0.95709 0.0
C313 C 0.02509 0.90224 0.2905 0.0
C314 C 0.98833 0.88753 0.31098 0.0
C315 C 0.02036 0.86194 0.27311 0.0
C316 C 0.9786 0.80527 0.27546 0.0
H317 H 0.05765 0.94542 0.28767 0.0
H318 H 0.04889 0.87556 0.25737 0.0
S319 S 0.87359 0.74407 0.32635 0.0
N320 N 0.90975 0.81172 0.33305 0.0
N321 N 0.90122 0.73591 0.30037 0.0
C322 C 0.94206 0.7897 0.29602 0.0
C323 C 0.94686 0.83079 0.31379 0.0
C324 C 0.18359 0.07631 0.6404 0.0
C325 C 0.1358 0.0231 0.64338 0.0
C326 C 0.22523 0.08518 0.62301 0.0
C327 C 0.22028 0.0414 0.60756 0.0
H328 H 0.18894 0.11149 0.65164 0.0
H329 H 0.26146 0.12688 0.62155 0.0
S330 S 0.10135 0.89456 0.60734 0.0
N331 N 0.08537 0.926 0.62953 0.0
N332 N 0.16226 0.94294 0.59597 0.0
C333 C 0.17252 0.9878 0.61043 0.0
C334 C 0.13061 0.97861 0.62853 0.0
C335 C 0.17013 0.13975 0.9644 0.0
C336 C 0.13371 0.14688 0.98037 0.0
C337 C 0.20336 0.18121 0.94695 0.0
C338 C 0.20187 0.23154 0.94517 0.0
H339 H 0.17097 0.10085 0.96456 0.0
H340 H 0.22858 0.17271 0.93409 0.0
S341 S 0.12035 0.27388 0.98598 0.0
N342 N 0.10212 0.20984 0.99522 0.0
N343 N 0.16617 0.28867 0.96323 0.0
C344 C 0.16822 0.24042 0.96224 0.0
C345 C 0.13377 0.19788 0.97965 0.0
C346 C 0.95147 0.13359 0.31274 0.0
C347 C 0.99974 0.12841 0.31248 0.0
C348 C 0.94371 0.16661 0.29511 0.0
C349 C 0.98364 0.19537 0.27631 0.0
H350 H 0.91887 0.11123 0.32648 0.0
H351 H 0.90548 0.16868 0.2959 0.0
S352 S 0.11771 0.19608 0.2676 0.0
N353 N 0.08895 0.15605 0.29236 0.0
N354 N 0.07368 0.217 0.25869 0.0
C355 C 0.03291 0.19184 0.27624 0.0
C356 C 0.0411 0.15858 0.29443 0.0
loop_
_geom_bond_atom_site_label_1
_geom_bond_atom_site_label_2
_geom_bond_distance
_geom_bond_site_symmetry_2
_ccdc_geom_bond_type
In0 O1 2.294 1_455 S
In0 O2 2.326 . S
In0 O6 2.266 1_445 S
In0 O7 2.326 1_444 S
In0 O8 2.266 1_545 S
In0 O9 2.326 1_445 S
In0 O11 2.294 . S
In0 O12 2.302 1_554 S
O1 In0 2.294 1_655 S
O1 C10 1.240 1_655 S
O2 In0 2.326 . S
O2 C10 1.252 . S
C3 O6 1.252 1_556 S
C3 O7 1.260 . S
C4 O11 1.240 1_556 S
C4 O12 1.255 . S
C5 O8 1.255 . S
C5 O9 1.255 1_455 S
O6 In0 2.266 1_665 S
O6 C3 1.252 1_554 S
O7 In0 2.326 1_666 S
O7 C3 1.260 . S
O8 In0 2.266 1_565 S
O8 C5 1.255 . S
O9 In0 2.326 1_665 S
O9 C5 1.255 1_655 S
C10 O1 1.240 1_455 S
C10 O2 1.252 . S
O11 In0 2.294 . S
O11 C4 1.240 1_554 S
O12 In0 2.302 1_556 S
O12 C4 1.255 . S
In13 O14 2.294 . S
In13 O15 2.326 1_455 S
In13 O19 2.266 . S
In13 O20 2.326 1_545 S
In13 O21 2.266 1_445 S
In13 O22 2.326 1_545 S
In13 O24 2.294 1_445 S
In13 O25 2.326 1_455 S
O14 In13 2.294 . S
O14 C23 1.240 1_455 S
O15 In13 2.326 1_655 S
O15 C23 1.252 . S
C16 O19 1.237 1_565 S
C16 O20 1.267 . S
C17 O24 1.240 1_545 S
C17 O25 1.252 . S
C18 O21 1.252 1_455 S
C18 O22 1.260 . S
O19 In13 2.266 . S
O19 C16 1.237 1_545 S
O20 In13 2.326 1_565 S
O20 C16 1.267 . S
O21 In13 2.266 1_665 S
O21 C18 1.252 1_655 S
O22 In13 2.326 1_565 S
O22 C18 1.260 . S
C23 O14 1.240 1_655 S
C23 O15 1.252 . S
O24 In13 2.294 1_665 S
O24 C17 1.240 1_565 S
O25 In13 2.326 1_655 S
O25 C17 1.252 . S
In26 O27 2.294 1_445 S
In26 O28 2.326 1_445 S
In26 O32 2.266 1_545 S
In26 O33 2.326 . S
In26 O34 2.266 . S
In26 O35 2.326 . S
In26 O37 2.294 1_455 S
In26 O38 2.326 1_445 S
O27 In26 2.294 1_665 S
O27 C36 1.240 . S
O28 In26 2.326 1_665 S
O28 C36 1.252 . S
C29 O32 1.252 1_545 S
C29 O33 1.260 . S
C30 O37 1.240 1_565 S
C30 O38 1.252 . S
C31 O34 1.252 . S
C31 O35 1.260 . S
O32 In26 2.266 1_565 S
O32 C29 1.252 1_565 S
O33 In26 2.326 . S
O33 C29 1.260 . S
O34 In26 2.266 . S
O34 C31 1.252 . S
O35 In26 2.326 . S
O35 C31 1.260 . S
C36 O27 1.240 . S
C36 O28 1.252 . S
O37 In26 2.294 1_655 S
O37 C30 1.240 1_545 S
O38 In26 2.326 1_665 S
O38 C30 1.252 . S
H39 C66 0.929 . S
N40 C65 1.433 . S
N40 C71 1.435 . S
N40 C77 1.423 . S
H41 C67 0.930 . S
H42 C70 0.931 . S
H43 C69 0.929 . S
H44 C72 0.930 . S
H45 C73 0.932 . S
H46 C76 0.929 . S
H47 C75 0.931 . S
H48 C78 0.929 . S
H49 C82 0.932 . S
H50 C79 0.931 . S
H51 C81 0.929 1_455 S
H52 C84 0.929 . S
H53 C85 0.930 . S
H54 C87 0.929 . S
H55 C88 0.931 . S
H56 C90 0.930 . S
H57 C91 0.932 . S
H58 C93 0.931 . S
H59 C94 0.929 . S
H60 C96 0.929 . S
H61 C97 0.931 . S
H62 C99 0.929 1_455 S
N63 C83 1.433 . S
N63 C89 1.435 . S
N63 C95 1.423 . S
H64 C100 0.932 . S
C65 N40 1.433 . S
C65 C66 1.363 . S
C65 C70 1.370 1_655 S
C66 H39 0.929 . S
C66 C65 1.363 . S
C66 C67 1.385 . S
C67 H41 0.930 . S
C67 C66 1.385 . S
C67 C68 1.357 . S
C68 C67 1.357 . S
C68 C69 1.406 1_655 S
C69 H43 0.929 . S
C69 C68 1.406 1_455 S
C69 C70 1.391 . S
C70 H42 0.931 . S
C70 C65 1.370 1_455 S
C70 C69 1.391 . S
C71 N40 1.435 . S
C71 C72 1.358 1_655 S
C71 C76 1.371 . S
C72 H44 0.930 . S
C72 C71 1.358 1_455 S
C72 C73 1.405 . S
C73 H45 0.932 . S
C73 C72 1.405 . S
C73 C74 1.383 . S
C74 C73 1.383 . S
C74 C75 1.393 1_455 S
C75 H47 0.931 . S
C75 C74 1.393 1_655 S
C75 C76 1.382 . S
C76 H46 0.929 . S
C76 C71 1.371 . S
C76 C75 1.382 . S
C77 N40 1.423 . S
C77 C78 1.362 . S
C77 C82 1.388 1_655 S
C78 H48 0.929 . S
C78 C77 1.362 . S
C78 C79 1.376 . S
C79 H50 0.931 . S
C79 C78 1.376 . S
C79 C80 1.396 . S
C80 C79 1.396 . S
C80 C81 1.348 . S
C80 C98 1.472 . S
C81 H51 0.929 1_655 S
C81 C80 1.348 . S
C81 C82 1.443 1_655 S
C82 H49 0.932 . S
C82 C77 1.388 1_455 S
C82 C81 1.443 1_455 S
C83 N63 1.433 . S
C83 C84 1.363 . S
C83 C88 1.370 1_655 S
C84 H52 0.929 . S
C84 C83 1.363 . S
C84 C85 1.385 . S
C85 H53 0.930 . S
C85 C84 1.385 . S
C85 C86 1.357 . S
C86 C85 1.357 . S
C86 C87 1.406 1_655 S
C87 H54 0.929 . S
C87 C86 1.406 1_455 S
C87 C88 1.391 . S
C88 H55 0.931 . S
C88 C83 1.370 1_455 S
C88 C87 1.391 . S
C89 N63 1.435 . S
C89 C90 1.358 1_655 S
C89 C94 1.371 . S
C90 H56 0.930 . S
C90 C89 1.358 1_455 S
C90 C91 1.405 . S
C91 H57 0.932 . S
C91 C90 1.405 . S
C91 C92 1.383 . S
C92 C91 1.383 . S
C92 C93 1.393 1_455 S
C93 H58 0.931 . S
C93 C92 1.393 1_655 S
C93 C94 1.382 . S
C94 H59 0.929 . S
C94 C89 1.371 . S
C94 C93 1.382 . S
C95 N63 1.423 . S
C95 C96 1.362 . S
C95 C100 1.388 1_655 S
C96 H60 0.929 . S
C96 C95 1.362 . S
C96 C97 1.376 . S
C97 H61 0.931 . S
C97 C96 1.376 . S
C97 C98 1.396 . S
C98 C80 1.472 . S
C98 C97 1.396 . S
C98 C99 1.348 . S
C99 H62 0.929 1_655 S
C99 C98 1.348 . S
C99 C100 1.443 1_655 S
C100 H64 0.932 . S
C100 C95 1.388 1_455 S
C100 C99 1.443 1_455 S
H101 C128 0.929 . S
N102 C127 1.433 . S
N102 C133 1.435 . S
N102 C139 1.423 . S
H103 C129 0.930 . S
H104 C132 0.931 . S
H105 C131 0.929 . S
H106 C134 0.930 . S
H107 C135 0.932 . S
H108 C138 0.929 . S
H109 C137 0.931 . S
H110 C140 0.929 . S
H111 C144 0.932 1_565 S
H112 C141 0.931 . S
H113 C143 0.929 1_565 S
H114 C146 0.929 . S
H115 C147 0.930 . S
H116 C149 0.929 . S
H117 C150 0.931 . S
H118 C152 0.930 . S
H119 C153 0.932 . S
H120 C155 0.931 . S
H121 C156 0.929 . S
H122 C158 0.929 . S
H123 C159 0.931 . S
H124 C161 0.929 1_565 S
N125 C145 1.433 . S
N125 C151 1.435 . S
N125 C157 1.423 . S
H126 C162 0.932 1_565 S
C127 N102 1.433 . S
C127 C128 1.363 . S
C127 C132 1.370 1_545 S
C128 H101 0.929 . S
C128 C127 1.363 . S
C128 C129 1.385 . S
C129 H103 0.930 . S
C129 C128 1.385 . S
C129 C130 1.357 . S
C130 C129 1.357 . S
C130 C131 1.406 1_545 S
C131 H105 0.929 . S
C131 C130 1.406 1_565 S
C131 C132 1.391 . S
C132 H104 0.931 . S
C132 C127 1.370 1_565 S
C132 C131 1.391 . S
C133 N102 1.435 . S
C133 C134 1.358 1_545 S
C133 C138 1.371 . S
C134 H106 0.930 . S
C134 C133 1.358 1_565 S
C134 C135 1.405 . S
C135 H107 0.932 . S
C135 C134 1.405 . S
C135 C136 1.383 1_565 S
C136 C135 1.383 1_545 S
C136 C137 1.393 . S
C137 H109 0.931 . S
C137 C136 1.393 . S
C137 C138 1.382 . S
C138 H108 0.929 . S
C138 C133 1.371 . S
C138 C137 1.382 . S
C139 N102 1.423 . S
C139 C140 1.362 . S
C139 C144 1.388 . S
C140 H110 0.929 . S
C140 C139 1.362 . S
C140 C141 1.376 . S
C141 H112 0.931 . S
C141 C140 1.376 . S
C141 C142 1.396 . S
C142 C141 1.396 . S
C142 C143 1.348 . S
C142 C160 1.472 . S
C143 H113 0.929 1_545 S
C143 C142 1.348 . S
C143 C144 1.443 . S
C144 H111 0.932 1_545 S
C144 C139 1.388 . S
C144 C143 1.443 . S
C145 N125 1.433 . S
C145 C146 1.363 . S
C145 C150 1.370 1_545 S
C146 H114 0.929 . S
C146 C145 1.363 . S
C146 C147 1.385 . S
C147 H115 0.930 . S
C147 C146 1.385 . S
C147 C148 1.357 . S
C148 C147 1.357 . S
C148 C149 1.406 1_545 S
C149 H116 0.929 . S
C149 C148 1.406 1_565 S
C149 C150 1.391 . S
C150 H117 0.931 . S
C150 C145 1.370 1_565 S
C150 C149 1.391 . S
C151 N125 1.435 . S
C151 C152 1.358 1_545 S
C151 C156 1.371 . S
C152 H118 0.930 . S
C152 C151 1.358 1_565 S
C152 C153 1.405 . S
C153 H119 0.932 . S
C153 C152 1.405 . S
C153 C154 1.383 1_565 S
C154 C153 1.383 1_545 S
C154 C155 1.393 . S
C155 H120 0.931 . S
C155 C154 1.393 . S
C155 C156 1.382 . S
C156 H121 0.929 . S
C156 C151 1.371 . S
C156 C155 1.382 . S
C157 N125 1.423 . S
C157 C158 1.362 . S
C157 C162 1.388 . S
C158 H122 0.929 . S
C158 C157 1.362 . S
C158 C159 1.376 . S
C159 H123 0.931 . S
C159 C158 1.376 . S
C159 C160 1.396 . S
C160 C142 1.472 . S
C160 C159 1.396 . S
C160 C161 1.348 . S
C161 H124 0.929 1_545 S
C161 C160 1.348 . S
C161 C162 1.443 . S
C162 H126 0.932 1_545 S
C162 C157 1.388 . S
C162 C161 1.443 . S
H163 C190 0.929 . S
N164 C189 1.433 . S
N164 C195 1.435 . S
N164 C201 1.423 . S
H165 C191 0.930 . S
H166 C194 0.931 . S
H167 C193 0.929 . S
H168 C196 0.930 . S
H169 C197 0.932 . S
H170 C200 0.929 . S
H171 C199 0.931 . S
H172 C202 0.929 . S
H173 C206 0.932 . S
H174 C203 0.931 . S
H175 C205 0.929 . S
H176 C208 0.929 . S
H177 C209 0.930 . S
H178 C211 0.929 . S
H179 C212 0.931 . S
H180 C214 0.930 . S
H181 C215 0.932 . S
H182 C217 0.931 . S
H183 C218 0.929 . S
H184 C220 0.929 . S
H185 C221 0.931 . S
H186 C223 0.929 . S
N187 C207 1.433 . S
N187 C213 1.435 . S
N187 C219 1.423 . S
H188 C224 0.932 . S
C189 N164 1.433 . S
C189 C190 1.363 . S
C189 C194 1.370 . S
C190 H163 0.929 . S
C190 C189 1.363 . S
C190 C191 1.385 . S
C191 H165 0.930 . S
C191 C190 1.385 . S
C191 C192 1.357 . S
C192 C191 1.357 . S
C192 C193 1.406 . S
C193 H167 0.929 . S
C193 C192 1.406 . S
C193 C194 1.391 . S
C194 H166 0.931 . S
C194 C189 1.370 . S
C194 C193 1.391 . S
C195 N164 1.435 . S
C195 C196 1.358 . S
C195 C200 1.371 . S
C196 H168 0.930 . S
C196 C195 1.358 . S
C196 C197 1.405 . S
C197 H169 0.932 . S
C197 C196 1.405 . S
C197 C198 1.383 . S
C198 C197 1.383 . S
C198 C199 1.393 . S
C199 H171 0.931 . S
C199 C198 1.393 . S
C199 C200 1.382 . S
C200 H170 0.929 . S
C200 C195 1.371 . S
C200 C199 1.382 . S
C201 N164 1.423 . S
C201 C202 1.362 . S
C201 C206 1.388 . S
C202 H172 0.929 . S
C202 C201 1.362 . S
C202 C203 1.376 . S
C203 H174 0.931 . S
C203 C202 1.376 . S
C203 C204 1.396 . S
C204 C203 1.396 . S
C204 C205 1.348 . S
C204 C222 1.472 . S
C205 H175 0.929 . S
C205 C204 1.348 . S
C205 C206 1.443 . S
C206 H173 0.932 . S
C206 C201 1.388 . S
C206 C205 1.443 . S
C207 N187 1.433 . S
C207 C208 1.363 . S
C207 C212 1.370 . S
C208 H176 0.929 . S
C208 C207 1.363 . S
C208 C209 1.385 . S
C209 H177 0.930 . S
C209 C208 1.385 . S
C209 C210 1.357 . S
C210 C209 1.357 . S
C210 C211 1.406 . S
C211 H178 0.929 . S
C211 C210 1.406 . S
C211 C212 1.391 . S
C212 H179 0.931 . S
C212 C207 1.370 . S
C212 C211 1.391 . S
C213 N187 1.435 . S
C213 C214 1.358 . S
C213 C218 1.371 . S
C214 H180 0.930 . S
C214 C213 1.358 . S
C214 C215 1.405 . S
C215 H181 0.932 . S
C215 C214 1.405 . S
C215 C216 1.383 . S
C216 C215 1.383 . S
C216 C217 1.393 . S
C217 H182 0.931 . S
C217 C216 1.393 . S
C217 C218 1.382 . S
C218 H183 0.929 . S
C218 C213 1.371 . S
C218 C217 1.382 . S
C219 N187 1.423 . S
C219 C220 1.362 . S
C219 C224 1.388 . S
C220 H184 0.929 . S
C220 C219 1.362 . S
C220 C221 1.376 . S
C221 H185 0.931 . S
C221 C220 1.376 . S
C221 C222 1.396 . S
C222 C204 1.472 . S
C222 C221 1.396 . S
C222 C223 1.348 . S
C223 H186 0.929 . S
C223 C222 1.348 . S
C223 C224 1.443 . S
C224 H188 0.932 . S
C224 C219 1.388 . S
C224 C223 1.443 . S
C225 C226 1.369 . S
C225 C227 1.419 . S
C225 H229 0.930 . S
C226 C225 1.369 . S
C226 C235 1.429 1_455 S
C227 C225 1.419 . S
C227 C228 1.363 . S
C227 H230 0.929 . S
C228 C227 1.363 . S
C228 C234 1.428 1_455 S
H229 C225 0.930 . S
H230 C227 0.929 . S
S231 N232 1.613 . S
S231 N233 1.610 . S
N232 S231 1.613 . S
N232 C235 1.350 . S
N233 S231 1.610 . S
N233 C234 1.351 . S
C234 C228 1.428 1_655 S
C234 N233 1.351 . S
C234 C235 1.434 . S
C235 C226 1.429 1_655 S
C235 N232 1.350 . S
C235 C234 1.434 . S
C236 C237 1.369 1_565 S
C236 C238 1.419 . S
C236 H240 0.930 . S
C237 C236 1.369 1_545 S
C237 C246 1.429 . S
C238 C236 1.419 . S
C238 C239 1.363 1_565 S
C238 H241 0.929 . S
C239 C238 1.363 1_545 S
C239 C245 1.428 . S
H240 C236 0.930 . S
H241 C238 0.929 . S
S242 N243 1.613 . S
S242 N244 1.610 . S
N243 S242 1.613 . S
N243 C246 1.350 . S
N244 S242 1.610 . S
N244 C245 1.351 . S
C245 C239 1.428 . S
C245 N244 1.351 . S
C245 C246 1.434 . S
C246 C237 1.429 . S
C246 N243 1.350 . S
C246 C245 1.434 . S
C247 C248 1.369 . S
C247 C249 1.419 . S
C247 H251 0.930 . S
C248 C247 1.369 . S
C248 C257 1.429 . S
C249 C247 1.419 . S
C249 C250 1.363 . S
C249 H252 0.929 . S
C250 C249 1.363 . S
C250 C256 1.428 . S
H251 C247 0.930 . S
H252 C249 0.929 . S
S253 N254 1.613 . S
S253 N255 1.610 . S
N254 S253 1.613 . S
N254 C257 1.350 . S
N255 S253 1.610 . S
N255 C256 1.351 . S
C256 C250 1.428 . S
C256 N255 1.351 . S
C256 C257 1.434 . S
C257 C248 1.429 . S
C257 N254 1.350 . S
C257 C256 1.434 . S
C258 C259 1.369 . S
C258 C260 1.419 . S
C258 H262 0.930 . S
C259 C258 1.369 . S
C259 C268 1.429 1_455 S
C260 C258 1.419 . S
C260 C261 1.363 . S
C260 H263 0.929 . S
C261 C260 1.363 . S
C261 C267 1.428 1_455 S
H262 C258 0.930 . S
H263 C260 0.929 . S
S264 N265 1.613 . S
S264 N266 1.610 . S
N265 S264 1.613 . S
N265 C268 1.350 . S
N266 S264 1.610 . S
N266 C267 1.351 . S
C267 C261 1.428 1_655 S
C267 N266 1.351 . S
C267 C268 1.434 . S
C268 C259 1.429 1_655 S
C268 N265 1.350 . S
C268 C267 1.434 . S
C269 C270 1.352 1_565 S
C269 C271 1.419 . S
C269 H273 0.930 . S
C270 C269 1.352 1_545 S
C270 C279 1.440 . S
C271 C269 1.419 . S
C271 C272 1.363 1_565 S
C271 H274 0.929 . S
C272 C271 1.363 1_545 S
C272 C278 1.428 . S
H273 C269 0.930 . S
H274 C271 0.929 . S
S275 N276 1.613 . S
S275 N277 1.610 . S
N276 S275 1.613 . S
N276 C279 1.350 . S
N277 S275 1.610 . S
N277 C278 1.351 . S
C278 C272 1.428 . S
C278 N277 1.351 . S
C278 C279 1.434 . S
C279 C270 1.440 . S
C279 N276 1.350 . S
C279 C278 1.434 . S
C280 C281 1.369 . S
C280 C282 1.419 . S
C280 H284 0.930 . S
C281 C280 1.369 . S
C281 C290 1.429 . S
C282 C280 1.419 . S
C282 C283 1.363 . S
C282 H285 0.929 . S
C283 C282 1.363 . S
C283 C289 1.428 . S
H284 C280 0.930 . S
H285 C282 0.929 . S
S286 N287 1.613 . S
S286 N288 1.610 . S
N287 S286 1.613 . S
N287 C290 1.350 . S
N288 S286 1.610 . S
N288 C289 1.351 . S
C289 C283 1.428 . S
C289 N288 1.351 . S
C289 C290 1.434 . S
C290 C281 1.429 . S
C290 N287 1.350 . S
C290 C289 1.434 . S
C291 C292 1.369 1_545 S
C291 C293 1.419 . S
C291 H295 0.930 . S
C292 C291 1.369 1_565 S
C292 C301 1.429 . S
C293 C291 1.419 . S
C293 C294 1.363 . S
C293 H296 0.929 . S
C294 C293 1.363 . S
C294 C300 1.428 1_545 S
H295 C291 0.930 . S
H296 C293 0.929 . S
S297 N298 1.613 . S
S297 N299 1.610 . S
N298 S297 1.613 . S
N298 C301 1.350 . S
N299 S297 1.610 . S
N299 C300 1.351 . S
C300 C294 1.428 1_565 S
C300 N299 1.351 . S
C300 C301 1.434 . S
C301 C292 1.429 . S
C301 N298 1.350 . S
C301 C300 1.434 . S
C302 C303 1.369 . S
C302 C304 1.419 . S
C302 H306 0.930 . S
C303 C302 1.369 . S
C303 C312 1.429 . S
C304 C302 1.419 . S
C304 C305 1.363 . S
C304 H307 0.929 . S
C305 C304 1.363 . S
C305 C311 1.428 . S
H306 C302 0.930 . S
H307 C304 0.929 . S
S308 N309 1.613 . S
S308 N310 1.610 1_554 S
N309 S308 1.613 . S
N309 C312 1.350 1_554 S
N310 S308 1.610 1_556 S
N310 C311 1.351 . S
C311 C305 1.428 . S
C311 N310 1.351 . S
C311 C312 1.434 . S
C312 C303 1.429 . S
C312 N309 1.350 1_556 S
C312 C311 1.434 . S
C313 C314 1.369 . S
C313 C315 1.419 . S
C313 H317 0.930 . S
C314 C313 1.369 . S
C314 C323 1.429 1_455 S
C315 C313 1.419 . S
C315 C316 1.363 . S
C315 H318 0.929 . S
C316 C315 1.363 . S
C316 C322 1.428 1_455 S
H317 C313 0.930 . S
H318 C315 0.929 . S
S319 N320 1.613 . S
S319 N321 1.610 . S
N320 S319 1.613 . S
N320 C323 1.350 . S
N321 S319 1.610 . S
N321 C322 1.351 . S
C322 C316 1.428 1_655 S
C322 N321 1.351 . S
C322 C323 1.434 . S
C323 C314 1.429 1_655 S
C323 N320 1.350 . S
C323 C322 1.434 . S
C324 C325 1.369 . S
C324 C326 1.419 . S
C324 H328 0.930 . S
C325 C324 1.369 . S
C325 C334 1.429 1_545 S
C326 C324 1.419 . S
C326 C327 1.363 . S
C326 H329 0.929 . S
C327 C326 1.363 . S
C327 C333 1.428 1_545 S
H328 C324 0.930 . S
H329 C326 0.929 . S
S330 N331 1.613 . S
S330 N332 1.610 . S
N331 S330 1.613 . S
N331 C334 1.350 . S
N332 S330 1.610 . S
N332 C333 1.351 . S
C333 C327 1.428 1_565 S
C333 N332 1.351 . S
C333 C334 1.434 . S
C334 C325 1.429 1_565 S
C334 N331 1.350 . S
C334 C333 1.434 . S
C335 C336 1.369 . S
C335 C337 1.419 . S
C335 H339 0.930 . S
C336 C335 1.369 . S
C336 C345 1.429 . S
C337 C335 1.419 . S
C337 C338 1.363 . S
C337 H340 0.929 . S
C338 C337 1.363 . S
C338 C344 1.428 . S
H339 C335 0.930 . S
H340 C337 0.929 . S
S341 N342 1.613 . S
S341 N343 1.610 . S
N342 S341 1.613 . S
N342 C345 1.350 . S
N343 S341 1.610 . S
N343 C344 1.351 . S
C344 C338 1.428 . S
C344 N343 1.351 . S
C344 C345 1.434 . S
C345 C336 1.429 . S
C345 N342 1.350 . S
C345 C344 1.434 . S
C346 C347 1.364 1_655 S
C346 C348 1.419 . S
C346 H350 0.930 . S
C347 C346 1.364 1_455 S
C347 C356 1.431 . S
C348 C346 1.419 . S
C348 C349 1.363 1_655 S
C348 H351 0.929 . S
C349 C348 1.363 1_455 S
C349 C355 1.428 . S
H350 C346 0.930 . S
H351 C348 0.929 . S
S352 N353 1.613 . S
S352 N354 1.610 . S
N353 S352 1.613 . S
N353 C356 1.350 . S
N354 S352 1.610 . S
N354 C355 1.351 . S
C355 C349 1.428 . S
C355 N354 1.351 . S
C355 C356 1.434 . S
C356 C347 1.431 . S
C356 N353 1.350 . S
C356 C355 1.434 . S
C228 C92 1.422 . S
C226 C10 1.426 . S
C237 C17 1.427 . S
C239 C136 1.420 . S
C248 C36 1.430 . S
C250 C198 1.425 . S
C259 C5 1.427 . S
C261 C74 1.422 . S
C272 C154 1.424 . S
C270 C16 1.441 1_545 S
C281 C31 1.426 . S
C283 C216 1.423 . S
C294 C130 1.606 . S
C292 C30 1.734 . S
C303 C3 1.736 . S
C305 C192 1.606 . S
C316 C68 1.608 1_455 S
C314 C18 1.736 . S
C327 C148 1.602 . S
C325 C29 1.737 . S
C338 C210 1.600 . S
C336 C4 1.735 . S
C347 C23 1.735 1_455 S
C349 C86 1.603 1_455 S
