# Generated by pormake.
# Topology hwx, (6,3)-cn, num edge types: 1
# Building blocks:
#     Node 0, Type 0, BuildingBlock: IZENUY_clean_sbu_0, # of connection points: 6
#     Node 1, Type 0, BuildingBlock: IZENUY_clean_sbu_0, # of connection points: 6
#     Node 2, Type 0, BuildingBlock: IZENUY_clean_sbu_0, # of connection points: 6
#     Node 3, Type 0, BuildingBlock: IZENUY_clean_sbu_0, # of connection points: 6
#     Node 4, Type 1, BuildingBlock: INOVEN_clean_linker_0, # of connection points: 3
#     Node 5, Type 1, BuildingBlock: INOVEN_clean_linker_0, # of connection points: 3
#     Node 6, Type 1, BuildingBlock: INOVEN_clean_linker_0, # of connection points: 3
#     Node 7, Type 1, BuildingBlock: INOVEN_clean_linker_0, # of connection points: 3
#     Node 8, Type 1, BuildingBlock: INOVEN_clean_linker_0, # of connection points: 3
#     Node 9, Type 1, BuildingBlock: INOVEN_clean_linker_0, # of connection points: 3
#     Node 10, Type 1, BuildingBlock: INOVEN_clean_linker_0, # of connection points: 3
#     Node 11, Type 1, BuildingBlock: INOVEN_clean_linker_0, # of connection points: 3
#     Edge 12, Type (0, 1), BuildingBlock: CIFDUS_clean_linker_0, # of connection points: 2
#     Edge 13, Type (0, 1), BuildingBlock: CIFDUS_clean_linker_0, # of connection points: 2
#     Edge 14, Type (0, 1), BuildingBlock: CIFDUS_clean_linker_0, # of connection points: 2
#     Edge 15, Type (0, 1), BuildingBlock: CIFDUS_clean_linker_0, # of connection points: 2
#     Edge 16, Type (0, 1), BuildingBlock: CIFDUS_clean_linker_0, # of connection points: 2
#     Edge 17, Type (0, 1), BuildingBlock: CIFDUS_clean_linker_0, # of connection points: 2
#     Edge 18, Type (0, 1), BuildingBlock: CIFDUS_clean_linker_0, # of connection points: 2
#     Edge 19, Type (0, 1), BuildingBlock: CIFDUS_clean_linker_0, # of connection points: 2
#     Edge 20, Type (0, 1), BuildingBlock: CIFDUS_clean_linker_0, # of connection points: 2
#     Edge 21, Type (0, 1), BuildingBlock: CIFDUS_clean_linker_0, # of connection points: 2
#     Edge 22, Type (0, 1), BuildingBlock: CIFDUS_clean_linker_0, # of connection points: 2
#     Edge 23, Type (0, 1), BuildingBlock: CIFDUS_clean_linker_0, # of connection points: 2
#     Edge 24, Type (0, 1), BuildingBlock: CIFDUS_clean_linker_0, # of connection points: 2
#     Edge 25, Type (0, 1), BuildingBlock: CIFDUS_clean_linker_0, # of connection points: 2
#     Edge 26, Type (0, 1), BuildingBlock: CIFDUS_clean_linker_0, # of connection points: 2
#     Edge 27, Type (0, 1), BuildingBlock: CIFDUS_clean_linker_0, # of connection points: 2
#     Edge 28, Type (0, 1), BuildingBlock: CIFDUS_clean_linker_0, # of connection points: 2
#     Edge 29, Type (0, 1), BuildingBlock: CIFDUS_clean_linker_0, # of connection points: 2
#     Edge 30, Type (0, 1), BuildingBlock: CIFDUS_clean_linker_0, # of connection points: 2
#     Edge 31, Type (0, 1), BuildingBlock: CIFDUS_clean_linker_0, # of connection points: 2
#     Edge 32, Type (0, 1), BuildingBlock: CIFDUS_clean_linker_0, # of connection points: 2
#     Edge 33, Type (0, 1), BuildingBlock: CIFDUS_clean_linker_0, # of connection points: 2
#     Edge 34, Type (0, 1), BuildingBlock: CIFDUS_clean_linker_0, # of connection points: 2
#     Edge 35, Type (0, 1), BuildingBlock: CIFDUS_clean_linker_0, # of connection points: 2
# Relax obj value: 0.005
# Max RMSD: 0.056
# Mean RMSD: 0.047
data_MOF--net-hwx--node1-IZENUY_clean_sbu_0--node2-INOVEN_clean_linker_0--edge1-CIFDUS_clean_linker_0
_symmetry_space_group_name_H-M    P1
_symmetry_Int_Tables_number       1
_symmetry_cell_setting            triclinic
loop_
_symmetry_equiv_pos_as_xyz
'x, y, z'
_cell_length_a     44.722032
_cell_length_b     44.737204
_cell_length_c     18.157336
_cell_angle_alpha  91.78443
_cell_angle_beta   91.972828
_cell_angle_gamma 89.565525
loop_
_atom_site_label
_atom_site_type_symbol
_atom_site_fract_x
_atom_site_fract_y
_atom_site_fract_z
_atom_type_partial_charge
Fe0 Fe 0.25369 0.25752 0.0668 0.0
Fe1 Fe 0.25821 0.25683 0.89909 0.0
O2 O 0.24253 0.2424 0.97876 0.0
Fe3 Fe 0.21573 0.21323 0.96958 0.0
O4 O 0.18775 0.23538 0.01639 0.0
O5 O 0.21697 0.25302 0.10733 0.0
O6 O 0.2414 0.29492 0.04264 0.0
C7 C 0.25025 0.30868 0.98805 0.0
C8 C 0.25106 0.19792 0.09721 0.0
O9 O 0.26371 0.29479 0.93735 0.0
C10 C 0.25421 0.19498 0.86335 0.0
O11 O 0.29272 0.2644 0.04194 0.0
O12 O 0.29539 0.2454 0.92909 0.0
O13 O 0.22781 0.19507 0.05553 0.0
O14 O 0.26648 0.22142 0.09765 0.0
C15 C 0.19949 0.25223 0.85402 0.0
O16 O 0.25584 0.22186 0.84468 0.0
O17 O 0.24148 0.1884 0.9215 0.0
C18 C 0.30794 0.25336 0.98978 0.0
O19 O 0.22185 0.26901 0.86502 0.0
O20 O 0.19873 0.22667 0.88247 0.0
C21 C 0.19112 0.24811 0.07893 0.0
Fe22 Fe 0.26336 0.74558 0.58331 0.0
Fe23 Fe 0.31051 0.70842 0.50153 0.0
O24 O 0.282 0.73613 0.50109 0.0
Fe25 Fe 0.2721 0.75442 0.41846 0.0
O26 O 0.26262 0.7901 0.46417 0.0
O27 O 0.27531 0.78436 0.58083 0.0
O28 O 0.2958 0.73863 0.64463 0.0
C29 C 0.32349 0.73756 0.63283 0.0
C30 C 0.21666 0.74615 0.47405 0.0
O31 O 0.33288 0.72956 0.57048 0.0
C32 C 0.2818 0.69454 0.37004 0.0
O33 O 0.25022 0.70748 0.59184 0.0
O34 O 0.29363 0.68591 0.5719 0.0
O35 O 0.23362 0.74145 0.42062 0.0
O36 O 0.22741 0.75406 0.53699 0.0
C37 C 0.33295 0.75216 0.40743 0.0
O38 O 0.29005 0.68542 0.43261 0.0
O39 O 0.27995 0.72216 0.35778 0.0
C40 C 0.26725 0.68486 0.59505 0.0
O41 O 0.33262 0.72583 0.4312 0.0
O42 O 0.30986 0.76857 0.4101 0.0
C43 C 0.27022 0.80111 0.52701 0.0
Fe44 Fe 0.75883 0.77554 0.92856 0.0
Fe45 Fe 0.76235 0.77313 0.09723 0.0
O46 O 0.77631 0.78657 0.01423 0.0
Fe47 Fe 0.80753 0.81113 0.01801 0.0
O48 O 0.7865 0.84025 0.97156 0.0
O49 O 0.76439 0.81153 0.88546 0.0
O50 O 0.72256 0.79007 0.95586 0.0
C51 C 0.70929 0.78274 0.01261 0.0
C52 C 0.81793 0.77407 0.89075 0.0
O53 O 0.72343 0.76991 0.06407 0.0
C54 C 0.82482 0.77232 0.12493 0.0
O55 O 0.75039 0.73743 0.95721 0.0
O56 O 0.77038 0.73468 0.06941 0.0
O57 O 0.82303 0.7972 0.93105 0.0
O58 O 0.79349 0.76031 0.89347 0.0
C59 C 0.7723 0.83191 0.136 0.0
O60 O 0.79841 0.77351 0.14724 0.0
O61 O 0.83133 0.78398 0.06522 0.0
C62 C 0.76098 0.7221 0.00989 0.0
O63 O 0.75355 0.81092 0.12952 0.0
O64 O 0.7973 0.82976 0.10528 0.0
C65 C 0.77159 0.83717 0.91163 0.0
Fe66 Fe 0.71069 0.30877 0.56287 0.0
Fe67 Fe 0.75713 0.26699 0.6342 0.0
O68 O 0.73991 0.28185 0.55397 0.0
Fe69 Fe 0.75172 0.2697 0.46557 0.0
O70 O 0.76078 0.30771 0.44072 0.0
O71 O 0.71916 0.3284 0.47911 0.0
O72 O 0.73516 0.33484 0.61456 0.0
C73 C 0.74947 0.32829 0.67309 0.0
C74 C 0.68816 0.27371 0.44843 0.0
O75 O 0.75293 0.30128 0.69064 0.0
C76 C 0.75303 0.2164 0.53733 0.0
O77 O 0.69636 0.29373 0.6477 0.0
O78 O 0.72193 0.25221 0.66293 0.0
O79 O 0.71403 0.27204 0.42181 0.0
O80 O 0.68428 0.28482 0.51213 0.0
C81 C 0.80622 0.27483 0.5513 0.0
O82 O 0.76478 0.22993 0.59305 0.0
O83 O 0.74331 0.23083 0.48285 0.0
C84 C 0.69883 0.26784 0.67362 0.0
O85 O 0.79329 0.28074 0.61065 0.0
O86 O 0.79152 0.26515 0.49446 0.0
C87 C 0.74218 0.32908 0.44069 0.0
H88 H 0.22382 0.5341 0.85947 0.0
H89 H 0.22955 0.61766 0.98253 0.0
H90 H 0.23792 0.53493 0.09538 0.0
N91 N 0.22979 0.49894 0.97487 0.0
N92 N 0.22812 0.48451 0.03237 0.0
C93 C 0.22627 0.5464 0.91167 0.0
C94 C 0.22584 0.57786 0.91343 0.0
C95 C 0.22958 0.53075 0.97748 0.0
C96 C 0.23384 0.54684 0.04495 0.0
C97 C 0.23445 0.57819 0.04715 0.0
C98 C 0.22952 0.59342 0.98135 0.0
H99 H 0.98465 0.75755 0.64475 0.0
H100 H 0.90415 0.76155 0.50862 0.0
H101 H 0.98978 0.75476 0.40845 0.0
N102 N 0.02249 0.75413 0.53732 0.0
N103 N 0.03947 0.75127 0.48433 0.0
C104 C 0.97352 0.75757 0.59077 0.0
C105 C 0.94214 0.75936 0.58458 0.0
C106 C 0.99084 0.75569 0.5278 0.0
C107 C 0.9766 0.75594 0.45743 0.0
C108 C 0.94526 0.75768 0.45019 0.0
C109 C 0.92827 0.7592 0.51399 0.0
H110 H 0.77388 0.48974 0.19156 0.0
H111 H 0.76399 0.40965 0.05678 0.0
H112 H 0.76478 0.49521 0.95504 0.0
N113 N 0.77059 0.52799 0.08364 0.0
N114 N 0.76615 0.54499 0.03105 0.0
C115 C 0.77148 0.47888 0.1375 0.0
C116 C 0.76928 0.44764 0.13118 0.0
C117 C 0.76944 0.49631 0.07445 0.0
C118 C 0.76599 0.48206 0.00416 0.0
C119 C 0.76469 0.45069 0.99726 0.0
C120 C 0.76593 0.4338 0.06124 0.0
H121 H 0.03624 0.27592 0.34061 0.0
H122 H 0.11658 0.27178 0.47723 0.0
H123 H 0.03121 0.26309 0.57447 0.0
N124 N 0.99811 0.26969 0.44768 0.0
N125 N 0.98185 0.2715 0.50217 0.0
C126 C 0.04722 0.27348 0.39424 0.0
C127 C 0.07859 0.27495 0.40171 0.0
C128 C 0.02986 0.2697 0.45638 0.0
C129 C 0.04423 0.26636 0.52619 0.0
C130 C 0.07552 0.26748 0.53386 0.0
C131 C 0.09236 0.27179 0.47155 0.0
H132 H 0.73488 0.99101 0.64526 0.0
H133 H 0.72501 0.9075 0.52321 0.0
H134 H 0.73442 0.98873 0.4073 0.0
N135 N 0.7372 0.02557 0.52939 0.0
N136 N 0.73483 0.04055 0.47252 0.0
C137 C 0.73318 0.97857 0.59313 0.0
C138 C 0.72919 0.94739 0.59221 0.0
C139 C 0.73441 0.99386 0.52668 0.0
C140 C 0.73278 0.97745 0.45893 0.0
C141 C 0.72904 0.94632 0.45779 0.0
C142 C 0.727 0.93167 0.52431 0.0
H143 H 0.53214 0.25318 0.92344 0.0
H144 H 0.61645 0.24391 0.0409 0.0
H145 H 0.53463 0.24189 0.15843 0.0
N146 N 0.49794 0.24915 0.03646 0.0
N147 N 0.48224 0.25013 0.09199 0.0
C148 C 0.54486 0.25001 0.97454 0.0
C149 C 0.57615 0.24836 0.97421 0.0
C150 C 0.52968 0.24765 0.04037 0.0
C151 C 0.54612 0.24368 0.10722 0.0
C152 C 0.57757 0.24156 0.10728 0.0
C153 C 0.59219 0.24409 0.04063 0.0
H154 H 0.25566 0.0315 0.34768 0.0
H155 H 0.25631 0.11303 0.47936 0.0
H156 H 0.26111 0.02819 0.58444 0.0
N157 N 0.25952 0.99453 0.45724 0.0
N158 N 0.26297 0.97794 0.51095 0.0
C159 C 0.25655 0.04299 0.40114 0.0
C160 C 0.25617 0.07438 0.40574 0.0
C161 C 0.25861 0.0262 0.46509 0.0
C162 C 0.25969 0.04099 0.53475 0.0
C163 C 0.25914 0.07238 0.54027 0.0
C164 C 0.25754 0.08882 0.47549 0.0
H165 H 0.48303 0.80013 0.14393 0.0
H166 H 0.39958 0.79075 0.02091 0.0
H167 H 0.4824 0.78557 0.90821 0.0
N168 N 0.51829 0.79564 0.02845 0.0
N169 N 0.53247 0.79737 0.97066 0.0
C170 C 0.47078 0.79701 0.09176 0.0
C171 C 0.43931 0.7961 0.08996 0.0
C172 C 0.48646 0.79425 0.02598 0.0
C173 C 0.47042 0.78917 0.95859 0.0
C174 C 0.43911 0.78729 0.95634 0.0
C175 C 0.42381 0.79167 0.02207 0.0
H176 H 0.18587 0.28842 0.1923 0.0
H177 H 0.13677 0.2205 0.06638 0.0
H178 H 0.09542 0.22534 0.15064 0.0
H179 H 0.07586 0.24486 0.26854 0.0
H180 H 0.12497 0.31336 0.39236 0.0
H181 H 0.16338 0.3126 0.30016 0.0
C182 C 0.16598 0.2749 0.18291 0.0
C183 C 0.1646 0.25382 0.12397 0.0
C184 C 0.14229 0.27784 0.2314 0.0
C185 C 0.13846 0.23683 0.11162 0.0
C186 C 0.11482 0.23951 0.15992 0.0
C187 C 0.09457 0.26014 0.27419 0.0
C188 C 0.09785 0.27876 0.33772 0.0
C189 C 0.11681 0.25941 0.22113 0.0
C190 C 0.12225 0.29844 0.34448 0.0
C191 C 0.14425 0.29799 0.2919 0.0
H192 H 0.21952 0.67979 0.68404 0.0
H193 H 0.29592 0.63094 0.60312 0.0
H194 H 0.28698 0.59093 0.6876 0.0
H195 H 0.26154 0.5729 0.79577 0.0
H196 H 0.18683 0.62286 0.88061 0.0
H197 H 0.19068 0.65894 0.78295 0.0
C198 C 0.23391 0.66016 0.68388 0.0
C199 C 0.25863 0.65869 0.6379 0.0
C200 C 0.22902 0.6374 0.73381 0.0
C201 C 0.27694 0.63295 0.63849 0.0
C202 C 0.27187 0.60998 0.68689 0.0
C203 C 0.2456 0.59121 0.79139 0.0
C204 C 0.22398 0.59529 0.84519 0.0
C205 C 0.24856 0.61239 0.73642 0.0
C206 C 0.2037 0.61935 0.83974 0.0
C207 C 0.206 0.64006 0.78419 0.0
H208 H 0.88198 0.7928 0.14896 0.0
H209 H 0.81956 0.72703 0.21781 0.0
H210 H 0.85318 0.71425 0.32071 0.0
H211 H 0.8971 0.72603 0.39974 0.0
H212 H 0.95896 0.79314 0.336 0.0
H213 H 0.92922 0.80082 0.22223 0.0
C214 C 0.87619 0.77518 0.18548 0.0
C215 C 0.84827 0.76104 0.17633 0.0
C216 C 0.89536 0.76846 0.24606 0.0
C217 C 0.84085 0.73839 0.2243 0.0
C218 C 0.86 0.73113 0.28327 0.0
C219 C 0.90419 0.74213 0.36052 0.0
C220 C 0.92991 0.75925 0.37658 0.0
C221 C 0.88676 0.74675 0.29618 0.0
C222 C 0.93922 0.77966 0.32478 0.0
C223 C 0.92212 0.78418 0.25995 0.0
H224 H 0.72544 0.38429 0.6975 0.0
H225 H 0.79582 0.32466 0.77145 0.0
H226 H 0.80881 0.3591 0.87377 0.0
H227 H 0.79712 0.40332 0.94942 0.0
H228 H 0.72565 0.46256 0.88153 0.0
H229 H 0.71652 0.4316 0.76912 0.0
C230 C 0.74394 0.37918 0.73532 0.0
C231 C 0.75942 0.35179 0.72743 0.0
C232 C 0.75096 0.39891 0.79543 0.0
C233 C 0.7833 0.3454 0.77693 0.0
C234 C 0.79077 0.36507 0.83549 0.0
C235 C 0.77967 0.40956 0.90971 0.0
C236 C 0.76181 0.4349 0.92416 0.0
C237 C 0.77421 0.39141 0.84649 0.0
C238 C 0.7397 0.44312 0.87158 0.0
C239 C 0.73435 0.42531 0.80761 0.0
H240 H 0.68405 0.23166 0.33836 0.0
H241 H 0.63317 0.30058 0.44957 0.0
H242 H 0.59204 0.29409 0.35824 0.0
H243 H 0.57335 0.27298 0.23797 0.0
H244 H 0.62402 0.20304 0.12971 0.0
H245 H 0.66209 0.20538 0.22911 0.0
C246 C 0.66377 0.24496 0.34301 0.0
C247 C 0.66179 0.26683 0.39978 0.0
C248 C 0.64019 0.24099 0.29068 0.0
C249 C 0.63524 0.28362 0.40612 0.0
C250 C 0.61175 0.28 0.35376 0.0
C251 C 0.59228 0.25769 0.23734 0.0
C252 C 0.59615 0.23826 0.17597 0.0
C253 C 0.6143 0.25929 0.29463 0.0
C254 C 0.62084 0.21857 0.17581 0.0
C255 C 0.64267 0.21994 0.23248 0.0
H256 H 0.23158 0.13855 0.84251 0.0
H257 H 0.29686 0.19905 0.76235 0.0
H258 H 0.30651 0.16464 0.65911 0.0
H259 H 0.29254 0.1203 0.58427 0.0
H260 H 0.2257 0.0605 0.6594 0.0
H261 H 0.22093 0.09126 0.7724 0.0
C262 C 0.24835 0.14384 0.80326 0.0
C263 C 0.26326 0.17143 0.80957 0.0
C264 C 0.25331 0.1242 0.74272 0.0
C265 C 0.28485 0.17809 0.75815 0.0
C266 C 0.29036 0.15846 0.69903 0.0
C267 C 0.27708 0.1139 0.62567 0.0
C268 C 0.25923 0.08843 0.61312 0.0
C269 C 0.27404 0.13196 0.68948 0.0
C270 C 0.23973 0.08002 0.66785 0.0
C271 C 0.23686 0.09771 0.73223 0.0
H272 H 0.33695 0.79995 0.31772 0.0
H273 H 0.38756 0.7248 0.4003 0.0
H274 H 0.42744 0.73466 0.31632 0.0
H275 H 0.44503 0.76053 0.20816 0.0
H276 H 0.39339 0.83401 0.1218 0.0
H277 H 0.35727 0.82927 0.21883 0.0
C278 C 0.35692 0.78604 0.31834 0.0
C279 C 0.35894 0.76139 0.36469 0.0
C280 C 0.37965 0.79147 0.26872 0.0
C281 C 0.38513 0.7437 0.36467 0.0
C282 C 0.40802 0.74931 0.31655 0.0
C283 C 0.42634 0.77603 0.2121 0.0
C284 C 0.42183 0.79757 0.15806 0.0
C285 C 0.40514 0.77254 0.26673 0.0
C286 C 0.39726 0.81724 0.16291 0.0
C287 C 0.37652 0.81442 0.21808 0.0
H288 H 0.7239 0.84523 0.81892 0.0
H289 H 0.80414 0.88848 0.90472 0.0
H290 H 0.79603 0.92925 0.81913 0.0
H291 H 0.76908 0.94931 0.70957 0.0
H292 H 0.68838 0.90597 0.62672 0.0
H293 H 0.69335 0.86892 0.72221 0.0
C294 C 0.73943 0.86376 0.81932 0.0
C295 C 0.76482 0.86363 0.86701 0.0
C296 C 0.73452 0.88712 0.77043 0.0
C297 C 0.78448 0.88803 0.86816 0.0
C298 C 0.77989 0.9113 0.8191 0.0
C299 C 0.75217 0.93226 0.71392 0.0
C300 C 0.72863 0.9301 0.66063 0.0
C301 C 0.75538 0.9107 0.76863 0.0
C302 C 0.7069 0.90782 0.66664 0.0
C303 C 0.70979 0.88656 0.72097 0.0
H304 H 0.87361 0.79661 0.87235 0.0
H305 H 0.81094 0.73159 0.77953 0.0
H306 H 0.8444 0.72036 0.6788 0.0
H307 H 0.89025 0.73089 0.61314 0.0
H308 H 0.95266 0.79607 0.70565 0.0
H309 H 0.92071 0.805 0.81066 0.0
C310 C 0.8673 0.77982 0.83043 0.0
C311 C 0.83957 0.7652 0.83346 0.0
C312 C 0.88662 0.77349 0.77236 0.0
C313 C 0.83202 0.74331 0.77876 0.0
C314 C 0.85114 0.7369 0.72088 0.0
C315 C 0.89686 0.74702 0.65638 0.0
C316 C 0.92376 0.76289 0.65126 0.0
C317 C 0.87827 0.75219 0.71647 0.0
C318 C 0.93223 0.78336 0.70839 0.0
C319 C 0.91386 0.78863 0.76827 0.0
H320 H 0.78983 0.36245 0.40051 0.0
H321 H 0.69627 0.34583 0.35154 0.0
H322 H 0.69619 0.38158 0.25289 0.0
H323 H 0.72282 0.41666 0.17804 0.0
H324 H 0.81532 0.43653 0.22963 0.0
H325 H 0.81581 0.40095 0.33027 0.0
C326 C 0.76952 0.36683 0.36817 0.0
C327 C 0.74312 0.35154 0.38294 0.0
C328 C 0.76942 0.38812 0.31242 0.0
C329 C 0.7168 0.35751 0.34135 0.0
C330 C 0.71673 0.37789 0.28486 0.0
C331 C 0.74294 0.41337 0.21205 0.0
C332 C 0.76897 0.429 0.19698 0.0
C333 C 0.74287 0.39324 0.26976 0.0
C334 C 0.79499 0.42474 0.24095 0.0
C335 C 0.79529 0.40431 0.29801 0.0
H336 H 0.14833 0.2221 0.81173 0.0
H337 H 0.19702 0.30309 0.7751 0.0
H338 H 0.16079 0.31644 0.67859 0.0
H339 H 0.11798 0.30323 0.59709 0.0
H340 H 0.06924 0.22233 0.63029 0.0
H341 H 0.1023 0.2112 0.73673 0.0
C342 C 0.15089 0.24277 0.78303 0.0
C343 C 0.17573 0.26125 0.79999 0.0
C344 C 0.12991 0.2504 0.72706 0.0
C345 C 0.17841 0.28819 0.7628 0.0
C346 C 0.15765 0.29593 0.70752 0.0
C347 C 0.1144 0.28337 0.62837 0.0
C348 C 0.09148 0.26348 0.60577 0.0
C349 C 0.13374 0.27691 0.68816 0.0
C350 C 0.08671 0.23801 0.64702 0.0
C351 C 0.10577 0.23152 0.70733 0.0
H352 H 0.25224 0.64138 0.36317 0.0
H353 H 0.30329 0.70108 0.23505 0.0
H354 H 0.29454 0.6693 0.12504 0.0
H355 H 0.27078 0.62616 0.06415 0.0
H356 H 0.2159 0.56803 0.18725 0.0
H357 H 0.22815 0.59717 0.30056 0.0
C358 C 0.26166 0.64707 0.3112 0.0
C359 C 0.27834 0.6734 0.30679 0.0
C360 C 0.25574 0.62912 0.24737 0.0
C361 C 0.29024 0.68093 0.23931 0.0
C362 C 0.28525 0.66282 0.17649 0.0
C363 C 0.26111 0.62001 0.11548 0.0
C364 C 0.2421 0.59519 0.11687 0.0
C365 C 0.26761 0.63721 0.17962 0.0
C366 C 0.23066 0.58701 0.18455 0.0
C367 C 0.23754 0.60374 0.24932 0.0
H368 H 0.376 0.76831 0.64001 0.0
H369 H 0.31738 0.71606 0.76817 0.0
H370 H 0.34909 0.72536 0.87828 0.0
H371 H 0.39191 0.74983 0.93919 0.0
H372 H 0.44872 0.80607 0.81604 0.0
H373 H 0.41975 0.79328 0.70272 0.0
C374 C 0.37052 0.75877 0.69202 0.0
C375 C 0.34452 0.74157 0.69637 0.0
C376 C 0.38841 0.765 0.75591 0.0
C377 C 0.33727 0.72952 0.76392 0.0
C378 C 0.35535 0.73482 0.8268 0.0
C379 C 0.3978 0.75969 0.88786 0.0
C380 C 0.42224 0.77921 0.88652 0.0
C381 C 0.38064 0.75293 0.82369 0.0
C382 C 0.43008 0.79089 0.81878 0.0
C383 C 0.41342 0.78371 0.75398 0.0
H384 H 0.72247 0.84362 0.21492 0.0
H385 H 0.80927 0.87909 0.16973 0.0
H386 H 0.80167 0.92022 0.25841 0.0
H387 H 0.77241 0.94359 0.35746 0.0
H388 H 0.68672 0.90704 0.4061 0.0
H389 H 0.69155 0.86928 0.30672 0.0
C390 C 0.73966 0.86043 0.22407 0.0
C391 C 0.76658 0.85792 0.18638 0.0
C392 C 0.73528 0.88397 0.27569 0.0
C393 C 0.78844 0.88018 0.19846 0.0
C394 C 0.78412 0.90381 0.24914 0.0
C395 C 0.75451 0.92783 0.34476 0.0
C396 C 0.72923 0.92804 0.3885 0.0
C397 C 0.75789 0.90563 0.28911 0.0
C398 C 0.70634 0.90723 0.37272 0.0
C399 C 0.7092 0.88555 0.31636 0.0
H400 H 0.64548 0.29418 0.70456 0.0
H401 H 0.70145 0.21822 0.75798 0.0
H402 H 0.66661 0.20387 0.85086 0.0
H403 H 0.6225 0.21513 0.92366 0.0
H404 H 0.5671 0.29156 0.87261 0.0
H405 H 0.59913 0.3031 0.77085 0.0
C406 C 0.65 0.27437 0.73617 0.0
C407 C 0.67632 0.2576 0.72505 0.0
C408 C 0.62994 0.26629 0.78979 0.0
C409 C 0.68154 0.23173 0.76576 0.0
C410 C 0.66163 0.22349 0.81897 0.0
C411 C 0.61734 0.23418 0.88981 0.0
C412 C 0.59269 0.25264 0.90597 0.0
C413 C 0.63613 0.24096 0.83248 0.0
C414 C 0.58589 0.27693 0.861 0.0
C415 C 0.60434 0.28369 0.80328 0.0
H416 H 0.22263 0.14497 0.11786 0.0
H417 H 0.29557 0.19995 0.20407 0.0
H418 H 0.30433 0.16589 0.3046 0.0
H419 H 0.28954 0.12222 0.3728 0.0
H420 H 0.21706 0.06682 0.28762 0.0
H421 H 0.21013 0.09906 0.18174 0.0
C422 C 0.24062 0.14938 0.15821 0.0
C423 C 0.25815 0.17526 0.1535 0.0
C424 C 0.2456 0.12966 0.21639 0.0
C425 C 0.28153 0.18039 0.20621 0.0
C426 C 0.28658 0.16093 0.26402 0.0
C427 C 0.27229 0.11718 0.33087 0.0
C428 C 0.25368 0.09235 0.3383 0.0
C429 C 0.26842 0.13582 0.27041 0.0
C430 C 0.23175 0.08576 0.28298 0.0
C431 C 0.22768 0.10428 0.22267 0.0
H432 H 0.23287 0.34813 0.09673 0.0
H433 H 0.25922 0.34325 0.87008 0.0
H434 H 0.25368 0.39726 0.86201 0.0
H435 H 0.24231 0.44628 0.91972 0.0
H436 H 0.2176 0.45177 0.14685 0.0
H437 H 0.22139 0.39722 0.15441 0.0
C438 C 0.23736 0.35887 0.04557 0.0
C439 C 0.24661 0.34159 0.98433 0.0
C440 C 0.23437 0.39011 0.04132 0.0
C441 C 0.25232 0.35596 0.91841 0.0
C442 C 0.24908 0.3869 0.91355 0.0
C443 C 0.23755 0.43548 0.9706 0.0
C444 C 0.22945 0.4528 0.03283 0.0
C445 C 0.24024 0.40423 0.97468 0.0
C446 C 0.2237 0.43861 0.09851 0.0
C447 C 0.22593 0.40754 0.10279 0.0
H448 H 0.17512 0.75183 0.57886 0.0
H449 H 0.18374 0.7381 0.34411 0.0
H450 H 0.12917 0.73822 0.32715 0.0
H451 H 0.07874 0.74331 0.37951 0.0
H452 H 0.0713 0.75682 0.61431 0.0
H453 H 0.12563 0.75578 0.63072 0.0
C454 C 0.16518 0.74886 0.5238 0.0
C455 C 0.18362 0.74516 0.46279 0.0
C456 C 0.13392 0.74897 0.51451 0.0
C457 C 0.17016 0.74107 0.39208 0.0
C458 C 0.13894 0.74118 0.38233 0.0
C459 C 0.0892 0.74594 0.43407 0.0
C460 C 0.07111 0.75016 0.49528 0.0
C461 C 0.12059 0.74528 0.44315 0.0
C462 C 0.08468 0.75353 0.56612 0.0
C463 C 0.11578 0.75295 0.57557 0.0
H464 H 0.77526 0.68168 0.1158 0.0
H465 H 0.74595 0.68763 0.88754 0.0
H466 H 0.74541 0.63323 0.87453 0.0
H467 H 0.75312 0.58359 0.92786 0.0
H468 H 0.78155 0.57755 0.15599 0.0
H469 H 0.78264 0.63212 0.16917 0.0
C470 C 0.76873 0.67112 0.06318 0.0
C471 C 0.76058 0.68889 0.00284 0.0
C472 C 0.76833 0.6397 0.05601 0.0
C473 C 0.75221 0.67466 0.93511 0.0
C474 C 0.75193 0.64348 0.92749 0.0
C475 C 0.75955 0.59439 0.98026 0.0
C476 C 0.76718 0.57668 0.04051 0.0
C477 C 0.75992 0.62578 0.98751 0.0
C478 C 0.77549 0.59069 0.1086 0.0
C479 C 0.77613 0.62191 0.11617 0.0
H480 H 0.84335 0.26502 0.43542 0.0
H481 H 0.84402 0.28836 0.66826 0.0
H482 H 0.89836 0.28918 0.67229 0.0
H483 H 0.94611 0.2824 0.61107 0.0
H484 H 0.94647 0.2604 0.37868 0.0
H485 H 0.89159 0.25985 0.37297 0.0
C486 C 0.85537 0.27036 0.48697 0.0
C487 C 0.83942 0.27644 0.55144 0.0
C488 C 0.88691 0.27096 0.48909 0.0
C489 C 0.85551 0.28349 0.61767 0.0
C490 C 0.88669 0.28395 0.62022 0.0
C491 C 0.934 0.27757 0.55933 0.0
C492 C 0.95009 0.27146 0.49582 0.0
C493 C 0.90261 0.27756 0.55651 0.0
C494 C 0.93449 0.26525 0.42851 0.0
C495 C 0.90312 0.26491 0.42528 0.0
H496 H 0.73768 0.17825 0.42127 0.0
H497 H 0.76509 0.17964 0.65173 0.0
H498 H 0.76191 0.12535 0.65295 0.0
H499 H 0.75094 0.07715 0.5893 0.0
H500 H 0.72469 0.07511 0.35881 0.0
H501 H 0.72783 0.12981 0.35675 0.0
C502 C 0.74302 0.16669 0.47171 0.0
C503 C 0.75166 0.18317 0.53621 0.0
C504 C 0.74131 0.13525 0.47211 0.0
C505 C 0.75853 0.16767 0.60104 0.0
C506 C 0.75665 0.13653 0.60196 0.0
C507 C 0.74591 0.08869 0.5387 0.0
C508 C 0.7374 0.07226 0.47405 0.0
C509 C 0.74801 0.12007 0.53795 0.0
C510 C 0.73119 0.08749 0.40896 0.0
C511 C 0.73298 0.11868 0.40787 0.0
H512 H 0.34305 0.26031 0.11549 0.0
H513 H 0.34746 0.24294 0.88074 0.0
H514 H 0.40182 0.24053 0.89138 0.0
H515 H 0.44819 0.24336 0.96648 0.0
H516 H 0.44484 0.25927 0.20127 0.0
H517 H 0.38994 0.26221 0.19162 0.0
C518 C 0.35591 0.2561 0.06665 0.0
C519 C 0.34107 0.25198 0.99737 0.0
C520 C 0.38735 0.25444 0.07315 0.0
C521 C 0.35816 0.24622 0.93479 0.0
C522 C 0.38932 0.24485 0.94073 0.0
C523 C 0.43549 0.24754 0.01559 0.0
C524 C 0.45045 0.25133 0.08477 0.0
C525 C 0.40414 0.24894 0.00951 0.0
C526 C 0.43364 0.25639 0.1477 0.0
C527 C 0.40236 0.25808 0.14207 0.0
H528 H 0.26226 0.8421 0.42149 0.0
H529 H 0.27899 0.83454 0.65581 0.0
H530 H 0.27821 0.88914 0.67105 0.0
H531 H 0.27211 0.93929 0.61709 0.0
H532 H 0.25558 0.94548 0.38269 0.0
H533 H 0.25684 0.89117 0.36825 0.0
C534 C 0.26572 0.85226 0.47611 0.0
C535 C 0.27052 0.83414 0.53747 0.0
C536 C 0.26522 0.8835 0.48439 0.0
C537 C 0.27518 0.84789 0.6076 0.0
C538 C 0.27471 0.87912 0.61635 0.0
C539 C 0.26882 0.92855 0.56309 0.0
C540 C 0.26375 0.94628 0.50137 0.0
C541 C 0.26963 0.89716 0.55512 0.0
C542 C 0.25953 0.93237 0.43123 0.0
C543 C 0.26025 0.90129 0.42289 0.0
H544 H 0.66855 0.79662 0.90269 0.0
H545 H 0.67604 0.77778 0.13439 0.0
H546 H 0.62195 0.78184 0.14365 0.0
H547 H 0.57203 0.78886 0.08524 0.0
H548 H 0.56405 0.80615 0.85344 0.0
H549 H 0.61865 0.8047 0.84483 0.0
C550 C 0.65837 0.79357 0.95527 0.0
C551 C 0.67642 0.78671 0.01753 0.0
C552 C 0.62707 0.7956 0.9602 0.0
C553 C 0.66275 0.78281 0.08527 0.0
C554 C 0.63175 0.78517 0.09078 0.0
C555 C 0.58229 0.79254 0.03308 0.0
C556 C 0.56423 0.79773 0.96976 0.0
C557 C 0.61363 0.79126 0.02851 0.0
C558 C 0.57776 0.80222 0.90257 0.0
C559 C 0.60887 0.80133 0.89771 0.0
loop_
_geom_bond_atom_site_label_1
_geom_bond_atom_site_label_2
_geom_bond_distance
_geom_bond_site_symmetry_2
_ccdc_geom_bond_type
Fe0 O2 1.918 . S
Fe0 O5 1.997 . S
Fe0 O6 2.002 . S
Fe0 O11 1.976 . S
Fe0 O14 1.996 . S
Fe1 O2 1.918 1_556 S
Fe1 O9 1.997 . S
Fe1 O12 1.996 . S
Fe1 O16 1.976 . S
Fe1 O19 2.002 . S
O2 Fe0 1.918 . S
O2 Fe1 1.918 1_554 S
O2 Fe3 1.918 1_554 S
Fe3 O2 1.918 1_556 S
Fe3 O4 1.996 1_556 S
Fe3 O13 1.969 1_556 S
Fe3 O17 2.003 . S
Fe3 O20 2.004 . S
O4 Fe3 1.996 1_554 S
O4 C21 1.295 . S
O5 Fe0 1.997 . S
O5 C21 1.235 . S
O6 Fe0 2.002 . S
O6 C7 1.295 . S
C7 O6 1.295 . S
C7 O9 1.235 1_554 S
C8 O13 1.287 . S
C8 O14 1.255 . S
O9 Fe1 1.997 . S
O9 C7 1.235 1_556 S
C10 O16 1.287 . S
C10 O17 1.255 . S
O11 Fe0 1.976 . S
O11 C18 1.287 . S
O12 Fe1 1.996 . S
O12 C18 1.255 1_556 S
O13 Fe3 1.969 1_554 S
O13 C8 1.287 . S
O14 Fe0 1.996 . S
O14 C8 1.255 . S
C15 O19 1.295 . S
C15 O20 1.235 . S
O16 Fe1 1.976 . S
O16 C10 1.287 . S
O17 Fe3 2.003 . S
O17 C10 1.255 . S
C18 O11 1.287 . S
C18 O12 1.255 1_554 S
O19 Fe1 2.002 . S
O19 C15 1.295 . S
O20 Fe3 2.004 . S
O20 C15 1.235 . S
C21 O4 1.295 . S
C21 O5 1.235 . S
Fe22 O24 1.918 . S
Fe22 O27 1.997 . S
Fe22 O28 2.002 . S
Fe22 O33 1.976 . S
Fe22 O36 1.996 . S
Fe23 O24 1.918 . S
Fe23 O31 1.997 . S
Fe23 O34 1.996 . S
Fe23 O38 1.976 . S
Fe23 O41 2.002 . S
O24 Fe22 1.918 . S
O24 Fe23 1.918 . S
O24 Fe25 1.918 . S
Fe25 O24 1.918 . S
Fe25 O26 2.002 . S
Fe25 O35 1.976 . S
Fe25 O39 1.996 . S
Fe25 O42 1.997 . S
O26 Fe25 2.002 . S
O26 C43 1.295 . S
O27 Fe22 1.997 . S
O27 C43 1.235 . S
O28 Fe22 2.002 . S
O28 C29 1.295 . S
C29 O28 1.295 . S
C29 O31 1.235 . S
C30 O35 1.287 . S
C30 O36 1.255 . S
O31 Fe23 1.997 . S
O31 C29 1.235 . S
C32 O38 1.287 . S
C32 O39 1.255 . S
O33 Fe22 1.976 . S
O33 C40 1.287 . S
O34 Fe23 1.996 . S
O34 C40 1.255 . S
O35 Fe25 1.976 . S
O35 C30 1.287 . S
O36 Fe22 1.996 . S
O36 C30 1.255 . S
C37 O41 1.295 . S
C37 O42 1.235 . S
O38 Fe23 1.976 . S
O38 C32 1.287 . S
O39 Fe25 1.996 . S
O39 C32 1.255 . S
C40 O33 1.287 . S
C40 O34 1.255 . S
O41 Fe23 2.002 . S
O41 C37 1.295 . S
O42 Fe25 1.997 . S
O42 C37 1.235 . S
C43 O26 1.295 . S
C43 O27 1.235 . S
Fe44 O46 1.918 1_556 S
Fe44 O49 1.997 . S
Fe44 O50 2.002 . S
Fe44 O55 1.976 . S
Fe44 O58 1.996 . S
Fe45 O46 1.918 . S
Fe45 O53 1.997 . S
Fe45 O56 1.996 . S
Fe45 O60 1.976 . S
Fe45 O63 2.002 . S
O46 Fe44 1.918 1_554 S
O46 Fe45 1.918 . S
O46 Fe47 1.918 . S
Fe47 O46 1.918 . S
Fe47 O48 2.002 1_554 S
Fe47 O57 1.976 1_554 S
Fe47 O61 1.996 . S
Fe47 O64 1.997 . S
O48 Fe47 2.002 1_556 S
O48 C65 1.295 . S
O49 Fe44 1.997 . S
O49 C65 1.235 . S
O50 Fe44 2.002 . S
O50 C51 1.295 1_556 S
C51 O50 1.295 1_554 S
C51 O53 1.235 . S
C52 O57 1.287 . S
C52 O58 1.255 . S
O53 Fe45 1.997 . S
O53 C51 1.235 . S
C54 O60 1.287 . S
C54 O61 1.255 . S
O55 Fe44 1.976 . S
O55 C62 1.287 1_556 S
O56 Fe45 1.996 . S
O56 C62 1.255 . S
O57 Fe47 1.976 1_556 S
O57 C52 1.287 . S
O58 Fe44 1.996 . S
O58 C52 1.255 . S
C59 O63 1.295 . S
C59 O64 1.235 . S
O60 Fe45 1.976 . S
O60 C54 1.287 . S
O61 Fe47 1.996 . S
O61 C54 1.255 . S
C62 O55 1.287 1_554 S
C62 O56 1.255 . S
O63 Fe45 2.002 . S
O63 C59 1.295 . S
O64 Fe47 1.997 . S
O64 C59 1.235 . S
C65 O48 1.295 . S
C65 O49 1.235 . S
Fe66 O68 1.918 . S
Fe66 O71 1.997 . S
Fe66 O72 2.002 . S
Fe66 O77 1.976 . S
Fe66 O80 1.996 . S
Fe67 O68 1.918 . S
Fe67 O75 1.997 . S
Fe67 O78 1.996 . S
Fe67 O82 1.976 . S
Fe67 O85 2.002 . S
O68 Fe66 1.918 . S
O68 Fe67 1.918 . S
O68 Fe69 1.918 . S
Fe69 O68 1.918 . S
Fe69 O70 2.002 . S
Fe69 O79 1.976 . S
Fe69 O83 1.996 . S
Fe69 O86 1.997 . S
O70 Fe69 2.002 . S
O70 C87 1.295 . S
O71 Fe66 1.997 . S
O71 C87 1.235 . S
O72 Fe66 2.002 . S
O72 C73 1.295 . S
C73 O72 1.295 . S
C73 O75 1.235 . S
C74 O79 1.287 . S
C74 O80 1.255 . S
O75 Fe67 1.997 . S
O75 C73 1.235 . S
C76 O82 1.287 . S
C76 O83 1.255 . S
O77 Fe66 1.976 . S
O77 C84 1.287 . S
O78 Fe67 1.996 . S
O78 C84 1.255 . S
O79 Fe69 1.976 . S
O79 C74 1.287 . S
O80 Fe66 1.996 . S
O80 C74 1.255 . S
C81 O85 1.295 . S
C81 O86 1.235 . S
O82 Fe67 1.976 . S
O82 C76 1.287 . S
O83 Fe69 1.996 . S
O83 C76 1.255 . S
C84 O77 1.287 . S
C84 O78 1.255 . S
O85 Fe67 2.002 . S
O85 C81 1.295 . S
O86 Fe69 1.997 . S
O86 C81 1.235 . S
C87 O70 1.295 . S
C87 O71 1.235 . S
H88 C93 0.929 . S
H89 C98 0.931 1_554 S
H90 C96 0.930 . S
N91 N92 1.234 1_556 S
N91 C95 1.453 . S
N92 N91 1.234 1_554 S
C93 H88 0.929 . S
C93 C94 1.373 . S
C93 C95 1.368 . S
C94 C93 1.373 . S
C94 C98 1.397 . S
C95 N91 1.453 . S
C95 C93 1.368 . S
C95 C96 1.373 1_556 S
C96 H90 0.930 . S
C96 C95 1.373 1_554 S
C96 C97 1.371 . S
C97 C96 1.371 . S
C97 C98 1.383 1_554 S
C98 H89 0.931 1_556 S
C98 C94 1.397 . S
C98 C97 1.383 1_556 S
H99 C104 0.929 . S
H100 C109 0.931 . S
H101 C107 0.927 1_455 S
N102 N103 1.234 . S
N102 C106 1.453 . S
N103 N102 1.234 . S
C104 H99 0.929 . S
C104 C105 1.373 . S
C104 C106 1.368 1_655 S
C105 C104 1.373 . S
C105 C109 1.397 . S
C106 N102 1.453 . S
C106 C104 1.368 1_455 S
C106 C107 1.373 1_455 S
C107 H101 0.927 1_655 S
C107 C106 1.373 1_655 S
C107 C108 1.371 . S
C108 C107 1.371 . S
C108 C109 1.383 . S
C109 H100 0.931 . S
C109 C105 1.397 . S
C109 C108 1.383 . S
H110 C115 0.929 . S
H111 C120 0.931 . S
H112 C118 0.930 . S
N113 N114 1.234 . S
N113 C117 1.453 . S
N114 N113 1.234 . S
C115 H110 0.929 . S
C115 C116 1.373 . S
C115 C117 1.368 . S
C116 C115 1.373 . S
C116 C120 1.397 . S
C117 N113 1.453 . S
C117 C115 1.368 . S
C117 C118 1.373 1_554 S
C118 H112 0.930 . S
C118 C117 1.373 1_556 S
C118 C119 1.371 . S
C119 C118 1.371 . S
C119 C120 1.383 1_556 S
C120 H111 0.931 . S
C120 C116 1.397 . S
C120 C119 1.383 1_554 S
H121 C126 0.929 . S
H122 C131 0.931 . S
H123 C129 0.928 1_655 S
N124 N125 1.234 . S
N124 C128 1.492 . S
N125 N124 1.234 . S
C126 H121 0.929 . S
C126 C127 1.373 . S
C126 C128 1.345 1_455 S
C127 C126 1.373 . S
C127 C131 1.397 . S
C128 N124 1.492 . S
C128 C126 1.345 1_655 S
C128 C129 1.358 1_655 S
C129 H123 0.928 1_455 S
C129 C128 1.358 1_455 S
C129 C130 1.371 . S
C130 C129 1.371 . S
C130 C131 1.383 . S
C131 H122 0.931 . S
C131 C127 1.397 . S
C131 C130 1.383 . S
H132 C137 0.929 . S
H133 C142 0.931 . S
H134 C140 0.930 1_545 S
N135 N136 1.234 . S
N135 C139 1.453 . S
N136 N135 1.234 . S
C137 H132 0.929 . S
C137 C138 1.373 . S
C137 C139 1.368 1_565 S
C138 C137 1.373 . S
C138 C142 1.397 . S
C139 N135 1.453 . S
C139 C137 1.368 1_545 S
C139 C140 1.373 1_545 S
C140 H134 0.930 1_565 S
C140 C139 1.373 1_565 S
C140 C141 1.371 . S
C141 C140 1.371 . S
C141 C142 1.383 . S
C142 H133 0.931 . S
C142 C138 1.397 . S
C142 C141 1.383 . S
H143 C148 0.929 . S
H144 C153 0.931 . S
H145 C151 0.930 . S
N146 N147 1.234 1_556 S
N146 C150 1.453 . S
N147 N146 1.234 1_554 S
C148 H143 0.929 . S
C148 C149 1.373 . S
C148 C150 1.368 . S
C149 C148 1.373 . S
C149 C153 1.397 1_556 S
C150 N146 1.453 . S
C150 C148 1.368 . S
C150 C151 1.373 1_556 S
C151 H145 0.930 . S
C151 C150 1.373 1_554 S
C151 C152 1.371 . S
C152 C151 1.371 . S
C152 C153 1.383 . S
C153 H144 0.931 . S
C153 C149 1.397 1_554 S
C153 C152 1.383 . S
H154 C159 0.929 . S
H155 C164 0.931 . S
H156 C162 0.906 1_565 S
N157 N158 1.234 . S
N157 C161 1.453 . S
N158 N157 1.234 . S
C159 H154 0.929 . S
C159 C160 1.373 . S
C159 C161 1.368 1_545 S
C160 C159 1.373 . S
C160 C164 1.397 . S
C161 N157 1.453 . S
C161 C159 1.368 1_565 S
C161 C162 1.373 1_565 S
C162 H156 0.906 1_545 S
C162 C161 1.373 1_545 S
C162 C163 1.371 . S
C163 C162 1.371 . S
C163 C164 1.383 . S
C164 H155 0.931 . S
C164 C160 1.397 . S
C164 C163 1.383 . S
H165 C170 0.929 . S
H166 C175 0.931 . S
H167 C173 0.930 . S
N168 N169 1.225 1_554 S
N168 C172 1.453 . S
N169 N168 1.225 1_556 S
C170 H165 0.929 . S
C170 C171 1.373 . S
C170 C172 1.368 . S
C171 C170 1.373 . S
C171 C175 1.397 . S
C172 N168 1.453 . S
C172 C170 1.368 . S
C172 C173 1.373 1_554 S
C173 H167 0.930 . S
C173 C172 1.373 1_556 S
C173 C174 1.371 . S
C174 C173 1.371 . S
C174 C175 1.383 1_556 S
C175 H166 0.931 . S
C175 C171 1.397 . S
C175 C174 1.383 1_554 S
H176 C182 0.930 . S
H177 C185 0.930 . S
H178 C186 0.930 . S
H179 C187 0.930 . S
H180 C190 0.930 . S
H181 C191 0.930 . S
C182 H176 0.930 . S
C182 C183 1.355 . S
C182 C184 1.415 . S
C183 C182 1.355 . S
C183 C185 1.419 . S
C184 C182 1.415 . S
C184 C189 1.425 . S
C184 C191 1.409 . S
C185 H177 0.930 . S
C185 C183 1.419 . S
C185 C186 1.362 . S
C186 H178 0.930 . S
C186 C185 1.362 . S
C186 C189 1.409 . S
C187 H179 0.930 . S
C187 C188 1.355 . S
C187 C189 1.415 . S
C188 C187 1.355 . S
C188 C190 1.419 . S
C189 C184 1.425 . S
C189 C186 1.409 . S
C189 C187 1.415 . S
C190 H180 0.930 . S
C190 C188 1.419 . S
C190 C191 1.362 . S
C191 H181 0.930 . S
C191 C184 1.409 . S
C191 C190 1.362 . S
H192 C198 0.930 . S
H193 C201 0.930 . S
H194 C202 0.930 . S
H195 C203 0.930 . S
H196 C206 0.930 . S
H197 C207 0.930 . S
C198 H192 0.930 . S
C198 C199 1.355 . S
C198 C200 1.415 . S
C199 C198 1.355 . S
C199 C201 1.419 . S
C200 C198 1.415 . S
C200 C205 1.425 . S
C200 C207 1.409 . S
C201 H193 0.930 . S
C201 C199 1.419 . S
C201 C202 1.362 . S
C202 H194 0.930 . S
C202 C201 1.362 . S
C202 C205 1.409 . S
C203 H195 0.930 . S
C203 C204 1.355 . S
C203 C205 1.415 . S
C204 C203 1.355 . S
C204 C206 1.419 . S
C205 C200 1.425 . S
C205 C202 1.409 . S
C205 C203 1.415 . S
C206 H196 0.930 . S
C206 C204 1.419 . S
C206 C207 1.362 . S
C207 H197 0.930 . S
C207 C200 1.409 . S
C207 C206 1.362 . S
H208 C214 0.930 . S
H209 C217 0.930 . S
H210 C218 0.930 . S
H211 C219 0.930 . S
H212 C222 0.930 . S
H213 C223 0.930 . S
C214 H208 0.930 . S
C214 C215 1.355 . S
C214 C216 1.415 . S
C215 C214 1.355 . S
C215 C217 1.419 . S
C216 C214 1.415 . S
C216 C221 1.425 . S
C216 C223 1.409 . S
C217 H209 0.930 . S
C217 C215 1.419 . S
C217 C218 1.362 . S
C218 H210 0.930 . S
C218 C217 1.362 . S
C218 C221 1.409 . S
C219 H211 0.930 . S
C219 C220 1.355 . S
C219 C221 1.415 . S
C220 C219 1.355 . S
C220 C222 1.419 . S
C221 C216 1.425 . S
C221 C218 1.409 . S
C221 C219 1.415 . S
C222 H212 0.930 . S
C222 C220 1.419 . S
C222 C223 1.362 . S
C223 H213 0.930 . S
C223 C216 1.409 . S
C223 C222 1.362 . S
H224 C230 0.930 . S
H225 C233 0.930 . S
H226 C234 0.930 . S
H227 C235 0.930 . S
H228 C238 0.930 . S
H229 C239 0.930 . S
C230 H224 0.930 . S
C230 C231 1.355 . S
C230 C232 1.415 . S
C231 C230 1.355 . S
C231 C233 1.419 . S
C232 C230 1.415 . S
C232 C237 1.425 . S
C232 C239 1.409 . S
C233 H225 0.930 . S
C233 C231 1.419 . S
C233 C234 1.362 . S
C234 H226 0.930 . S
C234 C233 1.362 . S
C234 C237 1.409 . S
C235 H227 0.930 . S
C235 C236 1.355 . S
C235 C237 1.415 . S
C236 C235 1.355 . S
C236 C238 1.419 . S
C237 C232 1.425 . S
C237 C234 1.409 . S
C237 C235 1.415 . S
C238 H228 0.930 . S
C238 C236 1.419 . S
C238 C239 1.362 . S
C239 H229 0.930 . S
C239 C232 1.409 . S
C239 C238 1.362 . S
H240 C246 0.930 . S
H241 C249 0.930 . S
H242 C250 0.930 . S
H243 C251 0.930 . S
H244 C254 0.930 . S
H245 C255 0.930 . S
C246 H240 0.930 . S
C246 C247 1.355 . S
C246 C248 1.415 . S
C247 C246 1.355 . S
C247 C249 1.419 . S
C248 C246 1.415 . S
C248 C253 1.425 . S
C248 C255 1.409 . S
C249 H241 0.930 . S
C249 C247 1.419 . S
C249 C250 1.362 . S
C250 H242 0.930 . S
C250 C249 1.362 . S
C250 C253 1.409 . S
C251 H243 0.930 . S
C251 C252 1.355 . S
C251 C253 1.415 . S
C252 C251 1.355 . S
C252 C254 1.419 . S
C253 C248 1.425 . S
C253 C250 1.409 . S
C253 C251 1.415 . S
C254 H244 0.930 . S
C254 C252 1.419 . S
C254 C255 1.362 . S
C255 H245 0.930 . S
C255 C248 1.409 . S
C255 C254 1.362 . S
H256 C262 0.930 . S
H257 C265 0.930 . S
H258 C266 0.930 . S
H259 C267 0.930 . S
H260 C270 0.930 . S
H261 C271 0.930 . S
C262 H256 0.930 . S
C262 C263 1.355 . S
C262 C264 1.415 . S
C263 C262 1.355 . S
C263 C265 1.419 . S
C264 C262 1.415 . S
C264 C269 1.425 . S
C264 C271 1.409 . S
C265 H257 0.930 . S
C265 C263 1.419 . S
C265 C266 1.362 . S
C266 H258 0.930 . S
C266 C265 1.362 . S
C266 C269 1.409 . S
C267 H259 0.930 . S
C267 C268 1.355 . S
C267 C269 1.415 . S
C268 C267 1.355 . S
C268 C270 1.419 . S
C269 C264 1.425 . S
C269 C266 1.409 . S
C269 C267 1.415 . S
C270 H260 0.930 . S
C270 C268 1.419 . S
C270 C271 1.362 . S
C271 H261 0.930 . S
C271 C264 1.409 . S
C271 C270 1.362 . S
H272 C278 0.930 . S
H273 C281 0.930 . S
H274 C282 0.930 . S
H275 C283 0.930 . S
H276 C286 0.930 . S
H277 C287 0.930 . S
C278 H272 0.930 . S
C278 C279 1.355 . S
C278 C280 1.415 . S
C279 C278 1.355 . S
C279 C281 1.419 . S
C280 C278 1.415 . S
C280 C285 1.425 . S
C280 C287 1.409 . S
C281 H273 0.930 . S
C281 C279 1.419 . S
C281 C282 1.362 . S
C282 H274 0.930 . S
C282 C281 1.362 . S
C282 C285 1.409 . S
C283 H275 0.930 . S
C283 C284 1.355 . S
C283 C285 1.415 . S
C284 C283 1.355 . S
C284 C286 1.419 . S
C285 C280 1.425 . S
C285 C282 1.409 . S
C285 C283 1.415 . S
C286 H276 0.930 . S
C286 C284 1.419 . S
C286 C287 1.362 . S
C287 H277 0.930 . S
C287 C280 1.409 . S
C287 C286 1.362 . S
H288 C294 0.930 . S
H289 C297 0.930 . S
H290 C298 0.930 . S
H291 C299 0.930 . S
H292 C302 0.930 . S
H293 C303 0.930 . S
C294 H288 0.930 . S
C294 C295 1.355 . S
C294 C296 1.415 . S
C295 C294 1.355 . S
C295 C297 1.419 . S
C296 C294 1.415 . S
C296 C301 1.425 . S
C296 C303 1.409 . S
C297 H289 0.930 . S
C297 C295 1.419 . S
C297 C298 1.362 . S
C298 H290 0.930 . S
C298 C297 1.362 . S
C298 C301 1.409 . S
C299 H291 0.930 . S
C299 C300 1.355 . S
C299 C301 1.415 . S
C300 C299 1.355 . S
C300 C302 1.419 . S
C301 C296 1.425 . S
C301 C298 1.409 . S
C301 C299 1.415 . S
C302 H292 0.930 . S
C302 C300 1.419 . S
C302 C303 1.362 . S
C303 H293 0.930 . S
C303 C296 1.409 . S
C303 C302 1.362 . S
H304 C310 0.930 . S
H305 C313 0.930 . S
H306 C314 0.930 . S
H307 C315 0.930 . S
H308 C318 0.930 . S
H309 C319 0.930 . S
C310 H304 0.930 . S
C310 C311 1.355 . S
C310 C312 1.415 . S
C311 C310 1.355 . S
C311 C313 1.419 . S
C312 C310 1.415 . S
C312 C317 1.425 . S
C312 C319 1.409 . S
C313 H305 0.930 . S
C313 C311 1.419 . S
C313 C314 1.362 . S
C314 H306 0.930 . S
C314 C313 1.362 . S
C314 C317 1.409 . S
C315 H307 0.930 . S
C315 C316 1.355 . S
C315 C317 1.415 . S
C316 C315 1.355 . S
C316 C318 1.419 . S
C317 C312 1.425 . S
C317 C314 1.409 . S
C317 C315 1.415 . S
C318 H308 0.930 . S
C318 C316 1.419 . S
C318 C319 1.362 . S
C319 H309 0.930 . S
C319 C312 1.409 . S
C319 C318 1.362 . S
H320 C326 0.930 . S
H321 C329 0.930 . S
H322 C330 0.930 . S
H323 C331 0.930 . S
H324 C334 0.930 . S
H325 C335 0.930 . S
C326 H320 0.930 . S
C326 C327 1.355 . S
C326 C328 1.415 . S
C327 C326 1.355 . S
C327 C329 1.419 . S
C328 C326 1.415 . S
C328 C333 1.425 . S
C328 C335 1.409 . S
C329 H321 0.930 . S
C329 C327 1.419 . S
C329 C330 1.362 . S
C330 H322 0.930 . S
C330 C329 1.362 . S
C330 C333 1.409 . S
C331 H323 0.930 . S
C331 C332 1.355 . S
C331 C333 1.415 . S
C332 C331 1.355 . S
C332 C334 1.419 . S
C333 C328 1.425 . S
C333 C330 1.409 . S
C333 C331 1.415 . S
C334 H324 0.930 . S
C334 C332 1.419 . S
C334 C335 1.362 . S
C335 H325 0.930 . S
C335 C328 1.409 . S
C335 C334 1.362 . S
H336 C342 0.930 . S
H337 C345 0.930 . S
H338 C346 0.930 . S
H339 C347 0.930 . S
H340 C350 0.930 . S
H341 C351 0.930 . S
C342 H336 0.930 . S
C342 C343 1.355 . S
C342 C344 1.415 . S
C343 C342 1.355 . S
C343 C345 1.419 . S
C344 C342 1.415 . S
C344 C349 1.425 . S
C344 C351 1.409 . S
C345 H337 0.930 . S
C345 C343 1.419 . S
C345 C346 1.362 . S
C346 H338 0.930 . S
C346 C345 1.362 . S
C346 C349 1.409 . S
C347 H339 0.930 . S
C347 C348 1.355 . S
C347 C349 1.415 . S
C348 C347 1.355 . S
C348 C350 1.419 . S
C349 C344 1.425 . S
C349 C346 1.409 . S
C349 C347 1.415 . S
C350 H340 0.930 . S
C350 C348 1.419 . S
C350 C351 1.362 . S
C351 H341 0.930 . S
C351 C344 1.409 . S
C351 C350 1.362 . S
H352 C358 0.930 . S
H353 C361 0.930 . S
H354 C362 0.930 . S
H355 C363 0.930 . S
H356 C366 0.930 . S
H357 C367 0.930 . S
C358 H352 0.930 . S
C358 C359 1.355 . S
C358 C360 1.415 . S
C359 C358 1.355 . S
C359 C361 1.419 . S
C360 C358 1.415 . S
C360 C365 1.425 . S
C360 C367 1.409 . S
C361 H353 0.930 . S
C361 C359 1.419 . S
C361 C362 1.362 . S
C362 H354 0.930 . S
C362 C361 1.362 . S
C362 C365 1.409 . S
C363 H355 0.930 . S
C363 C364 1.355 . S
C363 C365 1.415 . S
C364 C363 1.355 . S
C364 C366 1.419 . S
C365 C360 1.425 . S
C365 C362 1.409 . S
C365 C363 1.415 . S
C366 H356 0.930 . S
C366 C364 1.419 . S
C366 C367 1.362 . S
C367 H357 0.930 . S
C367 C360 1.409 . S
C367 C366 1.362 . S
H368 C374 0.930 . S
H369 C377 0.930 . S
H370 C378 0.930 . S
H371 C379 0.930 . S
H372 C382 0.930 . S
H373 C383 0.930 . S
C374 H368 0.930 . S
C374 C375 1.355 . S
C374 C376 1.415 . S
C375 C374 1.355 . S
C375 C377 1.419 . S
C376 C374 1.415 . S
C376 C381 1.425 . S
C376 C383 1.409 . S
C377 H369 0.930 . S
C377 C375 1.419 . S
C377 C378 1.362 . S
C378 H370 0.930 . S
C378 C377 1.362 . S
C378 C381 1.409 . S
C379 H371 0.930 . S
C379 C380 1.355 . S
C379 C381 1.415 . S
C380 C379 1.355 . S
C380 C382 1.419 . S
C381 C376 1.425 . S
C381 C378 1.409 . S
C381 C379 1.415 . S
C382 H372 0.930 . S
C382 C380 1.419 . S
C382 C383 1.362 . S
C383 H373 0.930 . S
C383 C376 1.409 . S
C383 C382 1.362 . S
H384 C390 0.930 . S
H385 C393 0.930 . S
H386 C394 0.930 . S
H387 C395 0.930 . S
H388 C398 0.930 . S
H389 C399 0.930 . S
C390 H384 0.930 . S
C390 C391 1.355 . S
C390 C392 1.415 . S
C391 C390 1.355 . S
C391 C393 1.419 . S
C392 C390 1.415 . S
C392 C397 1.425 . S
C392 C399 1.409 . S
C393 H385 0.930 . S
C393 C391 1.419 . S
C393 C394 1.362 . S
C394 H386 0.930 . S
C394 C393 1.362 . S
C394 C397 1.409 . S
C395 H387 0.930 . S
C395 C396 1.355 . S
C395 C397 1.415 . S
C396 C395 1.355 . S
C396 C398 1.419 . S
C397 C392 1.425 . S
C397 C394 1.409 . S
C397 C395 1.415 . S
C398 H388 0.930 . S
C398 C396 1.419 . S
C398 C399 1.362 . S
C399 H389 0.930 . S
C399 C392 1.409 . S
C399 C398 1.362 . S
H400 C406 0.930 . S
H401 C409 0.930 . S
H402 C410 0.930 . S
H403 C411 0.930 . S
H404 C414 0.930 . S
H405 C415 0.930 . S
C406 H400 0.930 . S
C406 C407 1.355 . S
C406 C408 1.415 . S
C407 C406 1.355 . S
C407 C409 1.419 . S
C408 C406 1.415 . S
C408 C413 1.425 . S
C408 C415 1.409 . S
C409 H401 0.930 . S
C409 C407 1.419 . S
C409 C410 1.362 . S
C410 H402 0.930 . S
C410 C409 1.362 . S
C410 C413 1.409 . S
C411 H403 0.930 . S
C411 C412 1.355 . S
C411 C413 1.415 . S
C412 C411 1.355 . S
C412 C414 1.419 . S
C413 C408 1.425 . S
C413 C410 1.409 . S
C413 C411 1.415 . S
C414 H404 0.930 . S
C414 C412 1.419 . S
C414 C415 1.362 . S
C415 H405 0.930 . S
C415 C408 1.409 . S
C415 C414 1.362 . S
H416 C422 0.930 . S
H417 C425 0.930 . S
H418 C426 0.930 . S
H419 C427 0.930 . S
H420 C430 0.930 . S
H421 C431 0.930 . S
C422 H416 0.930 . S
C422 C423 1.355 . S
C422 C424 1.415 . S
C423 C422 1.355 . S
C423 C425 1.419 . S
C424 C422 1.415 . S
C424 C429 1.425 . S
C424 C431 1.409 . S
C425 H417 0.930 . S
C425 C423 1.419 . S
C425 C426 1.362 . S
C426 H418 0.930 . S
C426 C425 1.362 . S
C426 C429 1.409 . S
C427 H419 0.930 . S
C427 C428 1.355 . S
C427 C429 1.415 . S
C428 C427 1.355 . S
C428 C430 1.419 . S
C429 C424 1.425 . S
C429 C426 1.409 . S
C429 C427 1.415 . S
C430 H420 0.930 . S
C430 C428 1.419 . S
C430 C431 1.362 . S
C431 H421 0.930 . S
C431 C424 1.409 . S
C431 C430 1.362 . S
H432 C438 0.930 . S
H433 C441 0.930 . S
H434 C442 0.930 . S
H435 C443 0.930 . S
H436 C446 0.930 . S
H437 C447 0.930 . S
C438 H432 0.930 . S
C438 C439 1.355 . S
C438 C440 1.415 . S
C439 C438 1.355 . S
C439 C441 1.419 1_554 S
C440 C438 1.415 . S
C440 C445 1.425 1_554 S
C440 C447 1.409 . S
C441 H433 0.930 . S
C441 C439 1.419 1_556 S
C441 C442 1.362 . S
C442 H434 0.930 . S
C442 C441 1.362 . S
C442 C445 1.409 . S
C443 H435 0.930 . S
C443 C444 1.355 1_556 S
C443 C445 1.415 . S
C444 C443 1.355 1_554 S
C444 C446 1.419 . S
C445 C440 1.425 1_556 S
C445 C442 1.409 . S
C445 C443 1.415 . S
C446 H436 0.930 . S
C446 C444 1.419 . S
C446 C447 1.362 . S
C447 H437 0.930 . S
C447 C440 1.409 . S
C447 C446 1.362 . S
H448 C454 0.930 . S
H449 C457 0.930 . S
H450 C458 0.930 . S
H451 C459 0.930 . S
H452 C462 0.930 . S
H453 C463 0.930 . S
C454 H448 0.930 . S
C454 C455 1.355 . S
C454 C456 1.415 . S
C455 C454 1.355 . S
C455 C457 1.419 . S
C456 C454 1.415 . S
C456 C461 1.425 . S
C456 C463 1.409 . S
C457 H449 0.930 . S
C457 C455 1.419 . S
C457 C458 1.362 . S
C458 H450 0.930 . S
C458 C457 1.362 . S
C458 C461 1.409 . S
C459 H451 0.930 . S
C459 C460 1.355 . S
C459 C461 1.415 . S
C460 C459 1.355 . S
C460 C462 1.419 . S
C461 C456 1.425 . S
C461 C458 1.409 . S
C461 C459 1.415 . S
C462 H452 0.930 . S
C462 C460 1.419 . S
C462 C463 1.362 . S
C463 H453 0.930 . S
C463 C456 1.409 . S
C463 C462 1.362 . S
H464 C470 0.930 . S
H465 C473 0.930 . S
H466 C474 0.930 . S
H467 C475 0.930 . S
H468 C478 0.930 . S
H469 C479 0.930 . S
C470 H464 0.930 . S
C470 C471 1.355 . S
C470 C472 1.415 . S
C471 C470 1.355 . S
C471 C473 1.419 1_554 S
C472 C470 1.415 . S
C472 C477 1.425 1_554 S
C472 C479 1.409 . S
C473 H465 0.930 . S
C473 C471 1.419 1_556 S
C473 C474 1.362 . S
C474 H466 0.930 . S
C474 C473 1.362 . S
C474 C477 1.409 . S
C475 H467 0.930 . S
C475 C476 1.355 1_556 S
C475 C477 1.415 . S
C476 C475 1.355 1_554 S
C476 C478 1.419 . S
C477 C472 1.425 1_556 S
C477 C474 1.409 . S
C477 C475 1.415 . S
C478 H468 0.930 . S
C478 C476 1.419 . S
C478 C479 1.362 . S
C479 H469 0.930 . S
C479 C472 1.409 . S
C479 C478 1.362 . S
H480 C486 0.930 . S
H481 C489 0.930 . S
H482 C490 0.930 . S
H483 C491 0.930 . S
H484 C494 0.930 . S
H485 C495 0.930 . S
C486 H480 0.930 . S
C486 C487 1.355 . S
C486 C488 1.415 . S
C487 C486 1.355 . S
C487 C489 1.419 . S
C488 C486 1.415 . S
C488 C493 1.425 . S
C488 C495 1.409 . S
C489 H481 0.930 . S
C489 C487 1.419 . S
C489 C490 1.362 . S
C490 H482 0.930 . S
C490 C489 1.362 . S
C490 C493 1.409 . S
C491 H483 0.930 . S
C491 C492 1.355 . S
C491 C493 1.415 . S
C492 C491 1.355 . S
C492 C494 1.419 . S
C493 C488 1.425 . S
C493 C490 1.409 . S
C493 C491 1.415 . S
C494 H484 0.930 . S
C494 C492 1.419 . S
C494 C495 1.362 . S
C495 H485 0.930 . S
C495 C488 1.409 . S
C495 C494 1.362 . S
H496 C502 0.930 . S
H497 C505 0.930 . S
H498 C506 0.930 . S
H499 C507 0.930 . S
H500 C510 0.930 . S
H501 C511 0.930 . S
C502 H496 0.930 . S
C502 C503 1.355 . S
C502 C504 1.415 . S
C503 C502 1.355 . S
C503 C505 1.419 . S
C504 C502 1.415 . S
C504 C509 1.425 . S
C504 C511 1.409 . S
C505 H497 0.930 . S
C505 C503 1.419 . S
C505 C506 1.362 . S
C506 H498 0.930 . S
C506 C505 1.362 . S
C506 C509 1.409 . S
C507 H499 0.930 . S
C507 C508 1.355 . S
C507 C509 1.415 . S
C508 C507 1.355 . S
C508 C510 1.419 . S
C509 C504 1.425 . S
C509 C506 1.409 . S
C509 C507 1.415 . S
C510 H500 0.930 . S
C510 C508 1.419 . S
C510 C511 1.362 . S
C511 H501 0.930 . S
C511 C504 1.409 . S
C511 C510 1.362 . S
H512 C518 0.930 . S
H513 C521 0.930 . S
H514 C522 0.930 . S
H515 C523 0.930 . S
H516 C526 0.930 . S
H517 C527 0.930 . S
C518 H512 0.930 . S
C518 C519 1.355 . S
C518 C520 1.415 . S
C519 C518 1.355 . S
C519 C521 1.419 1_554 S
C520 C518 1.415 . S
C520 C525 1.425 1_554 S
C520 C527 1.409 . S
C521 H513 0.930 . S
C521 C519 1.419 1_556 S
C521 C522 1.362 . S
C522 H514 0.930 . S
C522 C521 1.362 . S
C522 C525 1.409 . S
C523 H515 0.930 . S
C523 C524 1.355 1_556 S
C523 C525 1.415 . S
C524 C523 1.355 1_554 S
C524 C526 1.419 . S
C525 C520 1.425 1_556 S
C525 C522 1.409 . S
C525 C523 1.415 . S
C526 H516 0.930 . S
C526 C524 1.419 . S
C526 C527 1.362 . S
C527 H517 0.930 . S
C527 C520 1.409 . S
C527 C526 1.362 . S
H528 C534 0.930 . S
H529 C537 0.930 . S
H530 C538 0.930 . S
H531 C539 0.930 . S
H532 C542 0.930 . S
H533 C543 0.930 . S
C534 H528 0.930 . S
C534 C535 1.355 . S
C534 C536 1.415 . S
C535 C534 1.355 . S
C535 C537 1.419 . S
C536 C534 1.415 . S
C536 C541 1.425 . S
C536 C543 1.409 . S
C537 H529 0.930 . S
C537 C535 1.419 . S
C537 C538 1.362 . S
C538 H530 0.930 . S
C538 C537 1.362 . S
C538 C541 1.409 . S
C539 H531 0.930 . S
C539 C540 1.355 . S
C539 C541 1.415 . S
C540 C539 1.355 . S
C540 C542 1.419 . S
C541 C536 1.425 . S
C541 C538 1.409 . S
C541 C539 1.415 . S
C542 H532 0.930 . S
C542 C540 1.419 . S
C542 C543 1.362 . S
C543 H533 0.930 . S
C543 C536 1.409 . S
C543 C542 1.362 . S
H544 C550 0.930 . S
H545 C553 0.930 . S
H546 C554 0.930 . S
H547 C555 0.930 . S
H548 C558 0.930 . S
H549 C559 0.930 . S
C550 H544 0.930 . S
C550 C551 1.355 1_556 S
C550 C552 1.415 . S
C551 C550 1.355 1_554 S
C551 C553 1.419 . S
C552 C550 1.415 . S
C552 C557 1.425 1_556 S
C552 C559 1.409 . S
C553 H545 0.930 . S
C553 C551 1.419 . S
C553 C554 1.362 . S
C554 H546 0.930 . S
C554 C553 1.362 . S
C554 C557 1.409 . S
C555 H547 0.930 . S
C555 C556 1.355 . S
C555 C557 1.415 . S
C556 C555 1.355 . S
C556 C558 1.419 1_554 S
C557 C552 1.425 1_554 S
C557 C554 1.409 . S
C557 C555 1.415 . S
C558 H548 0.930 . S
C558 C556 1.419 1_556 S
C558 C559 1.362 . S
C559 H549 0.930 . S
C559 C552 1.409 . S
C559 C558 1.362 . S
C183 C21 1.487 . S
C188 C127 1.471 . S
C199 C40 1.490 . S
C204 C94 1.500 . S
C220 C108 1.461 . S
C215 C54 1.476 . S
C231 C73 1.538 . S
C236 C119 1.480 . S
C252 C152 1.413 . S
C247 C74 1.462 . S
C268 C163 1.447 . S
C263 C10 1.519 . S
C284 C171 1.490 . S
C279 C37 1.470 . S
C300 C138 1.501 . S
C295 C65 1.509 . S
C311 C52 1.431 . S
C316 C105 1.450 . S
C327 C87 1.505 . S
C332 C116 1.524 . S
C343 C15 1.502 . S
C348 C130 1.520 . S
C364 C97 1.495 . S
C359 C32 1.494 . S
C375 C29 1.480 . S
C380 C174 1.501 . S
C396 C141 1.506 . S
C391 C59 1.538 . S
C412 C149 1.457 . S
C407 C84 1.441 . S
C423 C8 1.474 . S
C428 C160 1.455 . S
C444 N92 1.508 . S
C439 C7 1.546 . S
C460 N103 1.488 . S
C455 C30 1.495 . S
C471 C62 1.542 . S
C476 N114 1.542 . S
C487 C81 1.511 . S
C492 N125 1.517 . S
C508 N136 1.505 . S
C503 C76 1.541 . S
C519 C18 1.477 . S
C524 N147 1.467 . S
C535 C43 1.529 . S
C540 N158 1.546 . S
C551 C51 1.516 . S
C556 N169 1.507 1_554 S
