# Generated by pormake.
# Topology eea, (3,6)-cn, num edge types: 1
# Building blocks:
#     Node 0, Type 0, BuildingBlock: VETTIZ_charged_linker_0, # of connection points: 3
#     Node 1, Type 0, BuildingBlock: VETTIZ_charged_linker_0, # of connection points: 3
#     Node 2, Type 0, BuildingBlock: VETTIZ_charged_linker_0, # of connection points: 3
#     Node 3, Type 0, BuildingBlock: VETTIZ_charged_linker_0, # of connection points: 3
#     Node 4, Type 0, BuildingBlock: VETTIZ_charged_linker_0, # of connection points: 3
#     Node 5, Type 0, BuildingBlock: VETTIZ_charged_linker_0, # of connection points: 3
#     Node 6, Type 0, BuildingBlock: VETTIZ_charged_linker_0, # of connection points: 3
#     Node 7, Type 0, BuildingBlock: VETTIZ_charged_linker_0, # of connection points: 3
#     Node 8, Type 0, BuildingBlock: VETTIZ_charged_linker_0, # of connection points: 3
#     Node 9, Type 0, BuildingBlock: VETTIZ_charged_linker_0, # of connection points: 3
#     Node 10, Type 0, BuildingBlock: VETTIZ_charged_linker_0, # of connection points: 3
#     Node 11, Type 0, BuildingBlock: VETTIZ_charged_linker_0, # of connection points: 3
#     Node 12, Type 0, BuildingBlock: VETTIZ_charged_linker_0, # of connection points: 3
#     Node 13, Type 0, BuildingBlock: VETTIZ_charged_linker_0, # of connection points: 3
#     Node 14, Type 0, BuildingBlock: VETTIZ_charged_linker_0, # of connection points: 3
#     Node 15, Type 0, BuildingBlock: VETTIZ_charged_linker_0, # of connection points: 3
#     Node 16, Type 0, BuildingBlock: VETTIZ_charged_linker_0, # of connection points: 3
#     Node 17, Type 0, BuildingBlock: VETTIZ_charged_linker_0, # of connection points: 3
#     Node 18, Type 1, BuildingBlock: HISSIN_clean_sbu_0, # of connection points: 6
#     Node 19, Type 1, BuildingBlock: HISSIN_clean_sbu_0, # of connection points: 6
#     Node 20, Type 1, BuildingBlock: HISSIN_clean_sbu_0, # of connection points: 6
#     Node 21, Type 1, BuildingBlock: HISSIN_clean_sbu_0, # of connection points: 6
#     Node 22, Type 1, BuildingBlock: HISSIN_clean_sbu_0, # of connection points: 6
#     Node 23, Type 1, BuildingBlock: HISSIN_clean_sbu_0, # of connection points: 6
#     Node 24, Type 1, BuildingBlock: HISSIN_clean_sbu_0, # of connection points: 6
#     Node 25, Type 1, BuildingBlock: HISSIN_clean_sbu_0, # of connection points: 6
#     Node 26, Type 1, BuildingBlock: HISSIN_clean_sbu_0, # of connection points: 6
#     Edge 27, Type (0, 1), BuildingBlock: UVAHIK_clean_linker_0, # of connection points: 2
#     Edge 28, Type (0, 1), BuildingBlock: UVAHIK_clean_linker_0, # of connection points: 2
#     Edge 29, Type (0, 1), BuildingBlock: UVAHIK_clean_linker_0, # of connection points: 2
#     Edge 30, Type (0, 1), BuildingBlock: UVAHIK_clean_linker_0, # of connection points: 2
#     Edge 31, Type (0, 1), BuildingBlock: UVAHIK_clean_linker_0, # of connection points: 2
#     Edge 32, Type (0, 1), BuildingBlock: UVAHIK_clean_linker_0, # of connection points: 2
#     Edge 33, Type (0, 1), BuildingBlock: UVAHIK_clean_linker_0, # of connection points: 2
#     Edge 34, Type (0, 1), BuildingBlock: UVAHIK_clean_linker_0, # of connection points: 2
#     Edge 35, Type (0, 1), BuildingBlock: UVAHIK_clean_linker_0, # of connection points: 2
#     Edge 36, Type (0, 1), BuildingBlock: UVAHIK_clean_linker_0, # of connection points: 2
#     Edge 37, Type (0, 1), BuildingBlock: UVAHIK_clean_linker_0, # of connection points: 2
#     Edge 38, Type (0, 1), BuildingBlock: UVAHIK_clean_linker_0, # of connection points: 2
#     Edge 39, Type (0, 1), BuildingBlock: UVAHIK_clean_linker_0, # of connection points: 2
#     Edge 40, Type (0, 1), BuildingBlock: UVAHIK_clean_linker_0, # of connection points: 2
#     Edge 41, Type (0, 1), BuildingBlock: UVAHIK_clean_linker_0, # of connection points: 2
#     Edge 42, Type (0, 1), BuildingBlock: UVAHIK_clean_linker_0, # of connection points: 2
#     Edge 43, Type (0, 1), BuildingBlock: UVAHIK_clean_linker_0, # of connection points: 2
#     Edge 44, Type (0, 1), BuildingBlock: UVAHIK_clean_linker_0, # of connection points: 2
#     Edge 45, Type (0, 1), BuildingBlock: UVAHIK_clean_linker_0, # of connection points: 2
#     Edge 46, Type (0, 1), BuildingBlock: UVAHIK_clean_linker_0, # of connection points: 2
#     Edge 47, Type (0, 1), BuildingBlock: UVAHIK_clean_linker_0, # of connection points: 2
#     Edge 48, Type (0, 1), BuildingBlock: UVAHIK_clean_linker_0, # of connection points: 2
#     Edge 49, Type (0, 1), BuildingBlock: UVAHIK_clean_linker_0, # of connection points: 2
#     Edge 50, Type (0, 1), BuildingBlock: UVAHIK_clean_linker_0, # of connection points: 2
#     Edge 51, Type (0, 1), BuildingBlock: UVAHIK_clean_linker_0, # of connection points: 2
#     Edge 52, Type (0, 1), BuildingBlock: UVAHIK_clean_linker_0, # of connection points: 2
#     Edge 53, Type (0, 1), BuildingBlock: UVAHIK_clean_linker_0, # of connection points: 2
#     Edge 54, Type (0, 1), BuildingBlock: UVAHIK_clean_linker_0, # of connection points: 2
#     Edge 55, Type (0, 1), BuildingBlock: UVAHIK_clean_linker_0, # of connection points: 2
#     Edge 56, Type (0, 1), BuildingBlock: UVAHIK_clean_linker_0, # of connection points: 2
#     Edge 57, Type (0, 1), BuildingBlock: UVAHIK_clean_linker_0, # of connection points: 2
#     Edge 58, Type (0, 1), BuildingBlock: UVAHIK_clean_linker_0, # of connection points: 2
#     Edge 59, Type (0, 1), BuildingBlock: UVAHIK_clean_linker_0, # of connection points: 2
#     Edge 60, Type (0, 1), BuildingBlock: UVAHIK_clean_linker_0, # of connection points: 2
#     Edge 61, Type (0, 1), BuildingBlock: UVAHIK_clean_linker_0, # of connection points: 2
#     Edge 62, Type (0, 1), BuildingBlock: UVAHIK_clean_linker_0, # of connection points: 2
#     Edge 63, Type (0, 1), BuildingBlock: UVAHIK_clean_linker_0, # of connection points: 2
#     Edge 64, Type (0, 1), BuildingBlock: UVAHIK_clean_linker_0, # of connection points: 2
#     Edge 65, Type (0, 1), BuildingBlock: UVAHIK_clean_linker_0, # of connection points: 2
#     Edge 66, Type (0, 1), BuildingBlock: UVAHIK_clean_linker_0, # of connection points: 2
#     Edge 67, Type (0, 1), BuildingBlock: UVAHIK_clean_linker_0, # of connection points: 2
#     Edge 68, Type (0, 1), BuildingBlock: UVAHIK_clean_linker_0, # of connection points: 2
#     Edge 69, Type (0, 1), BuildingBlock: UVAHIK_clean_linker_0, # of connection points: 2
#     Edge 70, Type (0, 1), BuildingBlock: UVAHIK_clean_linker_0, # of connection points: 2
#     Edge 71, Type (0, 1), BuildingBlock: UVAHIK_clean_linker_0, # of connection points: 2
#     Edge 72, Type (0, 1), BuildingBlock: UVAHIK_clean_linker_0, # of connection points: 2
#     Edge 73, Type (0, 1), BuildingBlock: UVAHIK_clean_linker_0, # of connection points: 2
#     Edge 74, Type (0, 1), BuildingBlock: UVAHIK_clean_linker_0, # of connection points: 2
#     Edge 75, Type (0, 1), BuildingBlock: UVAHIK_clean_linker_0, # of connection points: 2
#     Edge 76, Type (0, 1), BuildingBlock: UVAHIK_clean_linker_0, # of connection points: 2
#     Edge 77, Type (0, 1), BuildingBlock: UVAHIK_clean_linker_0, # of connection points: 2
#     Edge 78, Type (0, 1), BuildingBlock: UVAHIK_clean_linker_0, # of connection points: 2
#     Edge 79, Type (0, 1), BuildingBlock: UVAHIK_clean_linker_0, # of connection points: 2
#     Edge 80, Type (0, 1), BuildingBlock: UVAHIK_clean_linker_0, # of connection points: 2
# Relax obj value: 0.035
# Max RMSD: 0.136
# Mean RMSD: 0.066
data_MOF--net-eea--node1-HISSIN_clean_sbu_0--node2-VETTIZ_charged_linker_0--edge1-UVAHIK_clean_linker_0
_symmetry_space_group_name_H-M    P1
_symmetry_Int_Tables_number       1
_symmetry_cell_setting            triclinic
loop_
_symmetry_equiv_pos_as_xyz
'x, y, z'
_cell_length_a     77.0809
_cell_length_b     77.211979
_cell_length_c     108.37709
_cell_angle_alpha  93.481939
_cell_angle_beta   93.449868
_cell_angle_gamma 119.78812
loop_
_atom_site_label
_atom_site_type_symbol
_atom_site_fract_x
_atom_site_fract_y
_atom_site_fract_z
_atom_type_partial_charge
C0 C 0.27499 0.18794 0.39036 0.0
C1 C 0.2754 0.20458 0.39678 0.0
C2 C 0.28342 0.21 0.40938 0.0
C3 C 0.28935 0.18198 0.40904 0.0
C4 C 0.28175 0.17678 0.39668 0.0
C5 C 0.28042 0.15756 0.39154 0.0
H6 H 0.28718 0.0757 0.40219 0.0
C7 C 0.29396 0.16664 0.41304 0.0
C8 C 0.2887 0.15224 0.40285 0.0
H9 H 0.26367 0.08745 0.36845 0.0
H10 H 0.27377 0.12076 0.37761 0.0
H11 H 0.32713 0.12025 0.40803 0.0
H12 H 0.26794 0.09268 0.42023 0.0
H13 H 0.28515 0.10637 0.43329 0.0
H14 H 0.28632 0.08601 0.42515 0.0
H15 H 0.31969 0.10254 0.41937 0.0
H16 H 0.33007 0.12905 0.42378 0.0
C17 C 0.29421 0.16226 0.38094 0.0
C18 C 0.25796 0.14197 0.38752 0.0
C19 C 0.32015 0.17116 0.45795 0.0
C20 C 0.3248 0.15861 0.46456 0.0
C21 C 0.32363 0.14161 0.45807 0.0
C22 C 0.31742 0.13688 0.44531 0.0
C23 C 0.31213 0.14917 0.43893 0.0
C24 C 0.31387 0.16617 0.44521 0.0
C25 C 0.30754 0.17742 0.43694 0.0
C26 C 0.30165 0.16433 0.42467 0.0
C27 C 0.30421 0.14773 0.42593 0.0
C28 C 0.32602 0.19845 0.43628 0.0
C29 C 0.2893 0.17769 0.44208 0.0
C30 C 0.28422 0.08545 0.39675 0.0
C31 C 0.27437 0.07879 0.38463 0.0
C32 C 0.27129 0.09218 0.37779 0.0
C33 C 0.27696 0.11146 0.38318 0.0
C34 C 0.28561 0.11738 0.39558 0.0
C35 C 0.28953 0.10462 0.40205 0.0
C36 C 0.29836 0.11319 0.41523 0.0
C37 C 0.29857 0.13297 0.4157 0.0
C38 C 0.29104 0.13532 0.40418 0.0
C39 C 0.31989 0.11635 0.41681 0.0
C40 C 0.28388 0.09887 0.42402 0.0
H41 H 0.29619 0.20371 0.4251 0.0
H42 H 0.2692 0.18337 0.38066 0.0
H43 H 0.24792 0.14474 0.39327 0.0
H44 H 0.25411 0.12645 0.38887 0.0
H45 H 0.25369 0.14262 0.37766 0.0
H46 H 0.30851 0.17671 0.38344 0.0
H47 H 0.28682 0.16359 0.37221 0.0
H48 H 0.29875 0.15093 0.37908 0.0
H49 H 0.32116 0.1845 0.46259 0.0
H50 H 0.32694 0.13157 0.46294 0.0
H51 H 0.31654 0.12358 0.44096 0.0
H52 H 0.33991 0.19748 0.43585 0.0
H53 H 0.32839 0.20879 0.44461 0.0
H54 H 0.32491 0.20534 0.42786 0.0
H55 H 0.28017 0.16405 0.44679 0.0
H56 H 0.27862 0.17745 0.4347 0.0
H57 H 0.29426 0.19094 0.44896 0.0
H58 H 0.28364 0.22244 0.41471 0.0
C59 C 0.29053 0.19892 0.41549 0.0
C60 C 0.93988 0.18526 0.39917 0.0
C61 C 0.95691 0.20143 0.406 0.0
C62 C 0.95554 0.20709 0.41838 0.0
C63 C 0.9208 0.18018 0.41696 0.0
C64 C 0.92216 0.1749 0.40479 0.0
C65 C 0.90307 0.15702 0.39881 0.0
H66 H 0.81048 0.08015 0.40431 0.0
C67 C 0.90031 0.16596 0.42 0.0
C68 C 0.88989 0.15242 0.40935 0.0
H69 H 0.84388 0.09259 0.37216 0.0
H70 H 0.87027 0.1236 0.38308 0.0
H71 H 0.84774 0.09388 0.42484 0.0
H72 H 0.81826 0.12418 0.41025 0.0
H73 H 0.82728 0.13499 0.42565 0.0
H74 H 0.80887 0.10858 0.4226 0.0
H75 H 0.82249 0.08755 0.42725 0.0
H76 H 0.84361 0.10649 0.43741 0.0
C77 C 0.90767 0.14001 0.39535 0.0
C78 C 0.89497 0.16358 0.38767 0.0
C79 C 0.88013 0.16985 0.4636 0.0
C80 C 0.86206 0.15843 0.46892 0.0
C81 C 0.84522 0.14317 0.46128 0.0
C82 C 0.84648 0.13881 0.44878 0.0
C83 C 0.86474 0.14982 0.44372 0.0
C84 C 0.88108 0.16534 0.45099 0.0
C85 C 0.89897 0.17589 0.44375 0.0
C86 C 0.89068 0.16389 0.43104 0.0
C87 C 0.87069 0.14848 0.43118 0.0
C88 C 0.91631 0.17359 0.44984 0.0
C89 C 0.90399 0.1979 0.44339 0.0
C90 C 0.82333 0.0897 0.39955 0.0
C91 C 0.82521 0.08373 0.38741 0.0
C92 C 0.84225 0.09661 0.3816 0.0
C93 C 0.85756 0.11465 0.38796 0.0
C94 C 0.85591 0.11991 0.40029 0.0
C95 C 0.8388 0.10777 0.40578 0.0
C96 C 0.83959 0.11591 0.4189 0.0
C97 C 0.86031 0.1346 0.42049 0.0
C98 C 0.86981 0.13674 0.4096 0.0
C99 C 0.83818 0.1002 0.42764 0.0
C100 C 0.82259 0.1211 0.41949 0.0
H101 H 0.93752 0.20143 0.43336 0.0
H102 H 0.94026 0.18072 0.38958 0.0
H103 H 0.89839 0.17935 0.38962 0.0
H104 H 0.87843 0.15469 0.38572 0.0
H105 H 0.90189 0.16271 0.37912 0.0
H106 H 0.91916 0.14048 0.40231 0.0
H107 H 0.91358 0.14145 0.38614 0.0
H108 H 0.89455 0.12484 0.39532 0.0
H109 H 0.89335 0.18174 0.46915 0.0
H110 H 0.83093 0.13454 0.46496 0.0
H111 H 0.83317 0.12688 0.44356 0.0
H112 H 0.91047 0.15826 0.45277 0.0
H113 H 0.92403 0.18452 0.45822 0.0
H114 H 0.92755 0.17537 0.44344 0.0
H115 H 0.89003 0.19885 0.44265 0.0
H116 H 0.91162 0.20464 0.4352 0.0
H117 H 0.91342 0.20737 0.45196 0.0
H118 H 0.96848 0.21944 0.42387 0.0
C119 C 0.93759 0.19655 0.42389 0.0
C120 C 0.93963 0.77334 0.40614 0.0
C121 C 0.95419 0.76854 0.41043 0.0
C122 C 0.95141 0.75871 0.42133 0.0
C123 C 0.92039 0.75903 0.42347 0.0
C124 C 0.92293 0.76835 0.41269 0.0
C125 C 0.90599 0.77204 0.40913 0.0
H126 H 0.81782 0.76522 0.4212 0.0
C127 C 0.90149 0.75614 0.42806 0.0
C128 C 0.89295 0.76363 0.41961 0.0
H129 H 0.85182 0.78941 0.39006 0.0
H130 H 0.87693 0.78192 0.39805 0.0
H131 H 0.8236 0.72699 0.42156 0.0
H132 H 0.8556 0.7858 0.44166 0.0
H133 H 0.8547 0.76907 0.45218 0.0
H134 H 0.83157 0.76678 0.44544 0.0
H135 H 0.81343 0.7348 0.43375 0.0
H136 H 0.82897 0.72389 0.43698 0.0
C137 C 0.89527 0.75987 0.39639 0.0
C138 C 0.91477 0.79499 0.40928 0.0
C139 C 0.88029 0.7268 0.46915 0.0
C140 C 0.86396 0.72334 0.47587 0.0
C141 C 0.84929 0.72738 0.47068 0.0
C142 C 0.85097 0.73508 0.45918 0.0
C143 C 0.86755 0.73889 0.4527 0.0
C144 C 0.88181 0.73464 0.45764 0.0
C145 C 0.89843 0.73982 0.44938 0.0
C146 C 0.89188 0.7481 0.43881 0.0
C147 C 0.87374 0.74746 0.44084 0.0
C148 C 0.89816 0.72023 0.44493 0.0
C149 C 0.91844 0.75605 0.45674 0.0
C150 C 0.83075 0.76906 0.41615 0.0
C151 C 0.83274 0.77786 0.40494 0.0
C152 C 0.84972 0.78235 0.39861 0.0
C153 C 0.86437 0.77808 0.4033 0.0
C154 C 0.86212 0.7692 0.41448 0.0
C155 C 0.84554 0.76487 0.42071 0.0
C156 C 0.84569 0.75554 0.43247 0.0
C157 C 0.86501 0.75482 0.43221 0.0
C158 C 0.87457 0.76286 0.42167 0.0
C159 C 0.82692 0.73423 0.43127 0.0
C160 C 0.8468 0.76985 0.44357 0.0
H161 H 0.93347 0.74654 0.43608 0.0
H162 H 0.94125 0.78109 0.39791 0.0
H163 H 0.92694 0.80325 0.41703 0.0
H164 H 0.90363 0.79967 0.41091 0.0
H165 H 0.92127 0.80038 0.40047 0.0
H166 H 0.89561 0.74561 0.39539 0.0
H167 H 0.90265 0.76851 0.38858 0.0
H168 H 0.87913 0.75511 0.39522 0.0
H169 H 0.89186 0.72393 0.47289 0.0
H170 H 0.83637 0.72449 0.47552 0.0
H171 H 0.83931 0.73786 0.45582 0.0
H172 H 0.88251 0.70728 0.44354 0.0
H173 H 0.90685 0.71668 0.45185 0.0
H174 H 0.90398 0.72077 0.43581 0.0
H175 H 0.91622 0.76734 0.4622 0.0
H176 H 0.93018 0.76471 0.45071 0.0
H177 H 0.92431 0.74928 0.46336 0.0
H178 H 0.96207 0.75443 0.42478 0.0
C179 C 0.93467 0.75398 0.42786 0.0
C180 C 0.15612 0.22833 0.59477 0.0
C181 C 0.1738 0.23138 0.58983 0.0
C182 C 0.17791 0.23916 0.57823 0.0
C183 C 0.14718 0.24069 0.57678 0.0
C184 C 0.14307 0.23298 0.5881 0.0
C185 C 0.12347 0.2302 0.59192 0.0
H186 H 0.04006 0.23716 0.57972 0.0
C187 C 0.13052 0.24379 0.57224 0.0
C188 C 0.11654 0.23759 0.58105 0.0
H189 H 0.05624 0.21458 0.61136 0.0
H190 H 0.08708 0.22155 0.60316 0.0
H191 H 0.08459 0.2753 0.57853 0.0
H192 H 0.05423 0.21574 0.55907 0.0
H193 H 0.06664 0.23299 0.54836 0.0
H194 H 0.047 0.234 0.55602 0.0
H195 H 0.06408 0.2672 0.56665 0.0
H196 H 0.08961 0.27737 0.56291 0.0
C197 C 0.12802 0.24383 0.60418 0.0
C198 C 0.10922 0.20752 0.59282 0.0
C199 C 0.13285 0.27316 0.53127 0.0
C200 C 0.11984 0.27791 0.52456 0.0
C201 C 0.10189 0.2742 0.52946 0.0
C202 C 0.09704 0.266 0.54083 0.0
C203 C 0.11025 0.26138 0.54742 0.0
C204 C 0.12781 0.26499 0.54259 0.0
C205 C 0.14006 0.25911 0.55078 0.0
C206 C 0.12705 0.25147 0.56136 0.0
C207 C 0.10957 0.25279 0.55937 0.0
C208 C 0.1605 0.27825 0.55515 0.0
C209 C 0.14169 0.24221 0.54341 0.0
C210 C 0.05019 0.2336 0.58483 0.0
C211 C 0.04566 0.22539 0.59627 0.0
C212 C 0.05944 0.22121 0.60266 0.0
C213 C 0.07733 0.22514 0.59783 0.0
C214 C 0.08165 0.23331 0.58643 0.0
C215 C 0.06821 0.23744 0.58012 0.0
C216 C 0.07544 0.24613 0.56812 0.0
C217 C 0.0953 0.24636 0.56825 0.0
C218 C 0.09882 0.23883 0.57902 0.0
C219 C 0.07851 0.26759 0.56896 0.0
C220 C 0.06005 0.23163 0.55726 0.0
H221 H 0.16877 0.24966 0.56294 0.0
H222 H 0.15251 0.22258 0.6037 0.0
H223 H 0.11202 0.19817 0.58589 0.0
H224 H 0.0932 0.20278 0.59063 0.0
H225 H 0.11142 0.20335 0.60217 0.0
H226 H 0.14229 0.25831 0.60416 0.0
H227 H 0.12964 0.23653 0.61235 0.0
H228 H 0.11651 0.24809 0.60555 0.0
H229 H 0.1466 0.27547 0.52772 0.0
H230 H 0.09167 0.27789 0.52457 0.0
H231 H 0.0832 0.26361 0.54406 0.0
H232 H 0.15849 0.29143 0.55706 0.0
H233 H 0.17109 0.28178 0.54794 0.0
H234 H 0.1677 0.27717 0.56396 0.0
H235 H 0.1279 0.23255 0.53693 0.0
H236 H 0.14295 0.23177 0.54945 0.0
H237 H 0.15466 0.24852 0.53779 0.0
H238 H 0.19118 0.24135 0.57405 0.0
C239 C 0.16476 0.24385 0.57171 0.0
C240 C 0.72123 0.79773 0.6096 0.0
C241 C 0.71895 0.78031 0.60306 0.0
C242 C 0.70928 0.77453 0.59084 0.0
C243 C 0.70572 0.80403 0.5916 0.0
C244 C 0.71451 0.80928 0.60373 0.0
C245 C 0.7166 0.82865 0.60922 0.0
H246 H 0.71153 0.91198 0.60085 0.0
C247 C 0.70159 0.81988 0.58801 0.0
C248 C 0.70772 0.83424 0.59834 0.0
H249 H 0.73261 0.89714 0.63427 0.0
H250 H 0.72316 0.86459 0.62409 0.0
H251 H 0.73004 0.89395 0.58186 0.0
H252 H 0.67124 0.8692 0.59447 0.0
H253 H 0.66759 0.85961 0.57883 0.0
H254 H 0.67894 0.88636 0.58281 0.0
H255 H 0.71304 0.90286 0.57807 0.0
H256 H 0.71209 0.88223 0.56884 0.0
C257 C 0.73931 0.84386 0.6126 0.0
C258 C 0.70379 0.8242 0.62035 0.0
C259 C 0.67747 0.81886 0.54317 0.0
C260 C 0.67346 0.83213 0.5369 0.0
C261 C 0.67425 0.8486 0.54387 0.0
C262 C 0.67983 0.85231 0.55671 0.0
C263 C 0.68476 0.83947 0.56271 0.0
C264 C 0.68299 0.82276 0.55601 0.0
C265 C 0.68838 0.81053 0.56402 0.0
C266 C 0.6941 0.82293 0.57655 0.0
C267 C 0.69221 0.83999 0.57568 0.0
C268 C 0.70654 0.81003 0.55899 0.0
C269 C 0.66941 0.78961 0.56409 0.0
C270 C 0.71381 0.9016 0.60605 0.0
C271 C 0.72302 0.90723 0.61836 0.0
C272 C 0.72588 0.89331 0.62472 0.0
C273 C 0.72033 0.87438 0.6188 0.0
C274 C 0.71195 0.86932 0.60633 0.0
C275 C 0.70844 0.88267 0.60025 0.0
C276 C 0.69945 0.87474 0.58702 0.0
C277 C 0.69844 0.85455 0.58611 0.0
C278 C 0.70596 0.85157 0.59742 0.0
C279 C 0.71425 0.88915 0.57841 0.0
C280 C 0.67825 0.87244 0.58559 0.0
H281 H 0.69562 0.7812 0.57573 0.0
H282 H 0.72877 0.80274 0.61896 0.0
H283 H 0.69019 0.80899 0.61873 0.0
H284 H 0.69789 0.83453 0.62178 0.0
H285 H 0.7125 0.82479 0.62907 0.0
H286 H 0.74834 0.84209 0.60551 0.0
H287 H 0.74477 0.84156 0.62173 0.0
H288 H 0.74305 0.85964 0.61278 0.0
H289 H 0.67707 0.80609 0.53814 0.0
H290 H 0.67073 0.85878 0.53937 0.0
H291 H 0.68047 0.86525 0.56143 0.0
H292 H 0.71755 0.82499 0.55626 0.0
H293 H 0.70164 0.79896 0.55066 0.0
H294 H 0.71514 0.80658 0.56592 0.0
H295 H 0.65544 0.79051 0.56295 0.0
H296 H 0.66878 0.78319 0.57301 0.0
H297 H 0.66846 0.77889 0.55639 0.0
H298 H 0.707 0.76099 0.58566 0.0
C299 C 0.70261 0.78625 0.58509 0.0
C300 C 0.06767 0.82464 0.60395 0.0
C301 C 0.05104 0.80669 0.59828 0.0
C302 C 0.052 0.79927 0.58626 0.0
C303 C 0.08567 0.82741 0.58587 0.0
C304 C 0.08469 0.83468 0.59761 0.0
C305 C 0.10345 0.85406 0.60232 0.0
H306 H 0.19519 0.92891 0.59229 0.0
C307 C 0.10555 0.8414 0.58193 0.0
C308 C 0.11604 0.85701 0.59156 0.0
H309 H 0.16194 0.9247 0.62383 0.0
H310 H 0.13561 0.89181 0.61523 0.0
H311 H 0.18656 0.88421 0.59014 0.0
H312 H 0.15719 0.91196 0.57178 0.0
H313 H 0.16005 0.89652 0.56046 0.0
H314 H 0.182 0.917 0.56923 0.0
H315 H 0.19636 0.89828 0.5772 0.0
H316 H 0.17814 0.87175 0.57506 0.0
C317 C 0.11301 0.85069 0.61425 0.0
C318 C 0.09775 0.87063 0.60415 0.0
C319 C 0.12372 0.82917 0.53912 0.0
C320 C 0.14135 0.83939 0.53321 0.0
C321 C 0.15834 0.85612 0.53977 0.0
C322 C 0.15768 0.86294 0.55189 0.0
C323 C 0.13982 0.85295 0.55757 0.0
C324 C 0.12337 0.83609 0.55132 0.0
C325 C 0.10606 0.82689 0.55914 0.0
C326 C 0.11469 0.84137 0.57093 0.0
C327 C 0.13437 0.85672 0.56985 0.0
C328 C 0.10199 0.80564 0.56145 0.0
C329 C 0.08797 0.82726 0.55241 0.0
C330 C 0.18221 0.92094 0.59733 0.0
C331 C 0.18065 0.92954 0.60873 0.0
C332 C 0.16366 0.91841 0.6151 0.0
C333 C 0.14825 0.89937 0.61001 0.0
C334 C 0.14972 0.89133 0.5984 0.0
C335 C 0.16661 0.90199 0.59234 0.0
C336 C 0.16545 0.89129 0.57998 0.0
C337 C 0.14486 0.87264 0.57951 0.0
C338 C 0.13575 0.87275 0.59031 0.0
C339 C 0.18254 0.88617 0.5805 0.0
C340 C 0.16633 0.90482 0.56976 0.0
H341 H 0.06896 0.80313 0.57092 0.0
H342 H 0.06759 0.83067 0.61322 0.0
H343 H 0.08482 0.86757 0.59741 0.0
H344 H 0.1099 0.88557 0.60238 0.0
H345 H 0.09339 0.87156 0.61364 0.0
H346 H 0.11166 0.83562 0.61332 0.0
H347 H 0.10542 0.85155 0.62247 0.0
H348 H 0.12928 0.86142 0.61619 0.0
H349 H 0.11054 0.81609 0.53436 0.0
H350 H 0.17204 0.86429 0.53538 0.0
H351 H 0.17102 0.87591 0.5563 0.0
H352 H 0.11619 0.80513 0.56213 0.0
H353 H 0.0917 0.79429 0.55375 0.0
H354 H 0.09574 0.80094 0.57035 0.0
H355 H 0.09306 0.8416 0.5482 0.0
H356 H 0.07695 0.82647 0.55872 0.0
H357 H 0.08015 0.81479 0.54482 0.0
H358 H 0.03933 0.78564 0.58158 0.0
C359 C 0.0692 0.80951 0.58004 0.0
C360 C 0.93694 0.51496 0.72349 0.0
C361 C 0.93895 0.53253 0.72966 0.0
C362 C 0.94829 0.53872 0.74197 0.0
C363 C 0.95234 0.50954 0.74194 0.0
C364 C 0.94364 0.50373 0.72979 0.0
C365 C 0.94159 0.48414 0.72479 0.0
H366 H 0.9487 0.40245 0.73534 0.0
C367 C 0.9567 0.49404 0.74598 0.0
C368 C 0.95052 0.47916 0.73594 0.0
H369 H 0.92393 0.4136 0.70188 0.0
H370 H 0.93405 0.44692 0.71098 0.0
H371 H 0.98858 0.44686 0.7407 0.0
H372 H 0.92993 0.41967 0.75364 0.0
H373 H 0.94737 0.43383 0.76651 0.0
H374 H 0.94851 0.4133 0.75858 0.0
H375 H 0.98136 0.42915 0.75204 0.0
H376 H 0.99205 0.45569 0.75649 0.0
C377 C 0.95441 0.48801 0.71371 0.0
C378 C 0.91889 0.46878 0.72149 0.0
C379 C 0.98371 0.49881 0.79077 0.0
C380 C 0.98813 0.4861 0.79738 0.0
C381 C 0.98656 0.4689 0.79089 0.0
C382 C 0.98015 0.46413 0.77815 0.0
C383 C 0.97506 0.47657 0.7718 0.0
C384 C 0.97723 0.49378 0.77805 0.0
C385 C 0.97117 0.50523 0.76975 0.0
C386 C 0.96474 0.49188 0.75755 0.0
C387 C 0.96689 0.47505 0.75884 0.0
C388 C 0.98993 0.52599 0.76891 0.0
C389 C 0.95335 0.50612 0.77503 0.0
C390 C 0.94545 0.41206 0.72995 0.0
C391 C 0.9353 0.40524 0.71791 0.0
C392 C 0.93181 0.41845 0.71114 0.0
C393 C 0.93751 0.43776 0.7165 0.0
C394 C 0.94664 0.4439 0.7288 0.0
C395 C 0.95082 0.43127 0.73522 0.0
C396 C 0.96016 0.44008 0.74828 0.0
C397 C 0.96057 0.45996 0.74872 0.0
C398 C 0.95258 0.46209 0.73731 0.0
C399 C 0.98161 0.44302 0.74957 0.0
C400 C 0.94595 0.42605 0.75731 0.0
H401 H 0.96177 0.53277 0.75751 0.0
H402 H 0.9301 0.50989 0.71399 0.0
H403 H 0.90967 0.47154 0.72799 0.0
H404 H 0.91507 0.45315 0.72239 0.0
H405 H 0.91366 0.4698 0.71193 0.0
H406 H 0.96857 0.50275 0.7155 0.0
H407 H 0.94612 0.48821 0.70502 0.0
H408 H 0.9593 0.4769 0.71212 0.0
H409 H 0.98506 0.51231 0.79543 0.0
H410 H 0.9897 0.45874 0.79574 0.0
H411 H 0.97897 0.45068 0.77381 0.0
H412 H 0.0038 0.52489 0.76916 0.0
H413 H 0.99198 0.53695 0.77679 0.0
H414 H 0.98938 0.53222 0.76007 0.0
H415 H 0.94317 0.49186 0.77887 0.0
H416 H 0.94364 0.50788 0.76792 0.0
H417 H 0.95875 0.51848 0.78265 0.0
H418 H 0.94986 0.55205 0.74701 0.0
C419 C 0.95506 0.52739 0.74811 0.0
C420 C 0.60606 0.52538 0.73278 0.0
C421 C 0.62257 0.54267 0.73918 0.0
C422 C 0.62118 0.54861 0.75149 0.0
C423 C 0.58739 0.52009 0.75079 0.0
C424 C 0.58876 0.51444 0.73871 0.0
C425 C 0.57017 0.49555 0.73318 0.0
H426 H 0.47957 0.41659 0.74049 0.0
C427 C 0.56743 0.50517 0.75422 0.0
C428 C 0.55728 0.49084 0.74388 0.0
H429 H 0.51203 0.42814 0.70796 0.0
H430 H 0.53807 0.45997 0.71826 0.0
H431 H 0.51765 0.43225 0.76055 0.0
H432 H 0.48571 0.45992 0.74557 0.0
H433 H 0.49475 0.4714 0.76084 0.0
H434 H 0.47722 0.44472 0.75818 0.0
H435 H 0.49246 0.42542 0.76346 0.0
H436 H 0.51384 0.44525 0.77302 0.0
C437 C 0.57607 0.47938 0.73014 0.0
C438 C 0.56088 0.50054 0.72181 0.0
C439 C 0.54817 0.50947 0.79809 0.0
C440 C 0.53058 0.49744 0.80371 0.0
C441 C 0.51393 0.48147 0.79633 0.0
C442 C 0.51498 0.47695 0.78383 0.0
C443 C 0.53285 0.48851 0.77849 0.0
C444 C 0.54892 0.50478 0.78547 0.0
C445 C 0.5663 0.51581 0.77791 0.0
C446 C 0.55809 0.50314 0.76539 0.0
C447 C 0.53857 0.48704 0.7659 0.0
C448 C 0.58462 0.51507 0.78392 0.0
C449 C 0.56986 0.53728 0.77717 0.0
C450 C 0.49211 0.4261 0.73549 0.0
C451 C 0.49379 0.4197 0.72342 0.0
C452 C 0.51052 0.43252 0.71734 0.0
C453 C 0.52562 0.45104 0.72333 0.0
C454 C 0.52407 0.45686 0.73557 0.0
C455 C 0.50734 0.44463 0.74135 0.0
C456 C 0.50818 0.45323 0.75434 0.0
C457 C 0.52843 0.47246 0.7555 0.0
C458 C 0.53769 0.47444 0.74452 0.0
C459 C 0.50791 0.43832 0.76339 0.0
C460 C 0.49053 0.45746 0.75487 0.0
H461 H 0.60356 0.54268 0.76669 0.0
H462 H 0.60669 0.52014 0.72341 0.0
H463 H 0.56306 0.5159 0.72342 0.0
H464 H 0.54444 0.49056 0.71999 0.0
H465 H 0.56798 0.49992 0.71331 0.0
H466 H 0.58807 0.48099 0.73717 0.0
H467 H 0.58186 0.48069 0.7209 0.0
H468 H 0.5636 0.46392 0.73043 0.0
H469 H 0.56119 0.52195 0.80343 0.0
H470 H 0.49995 0.47236 0.80024 0.0
H471 H 0.50186 0.46446 0.77884 0.0
H472 H 0.57988 0.49995 0.78693 0.0
H473 H 0.59191 0.52621 0.79225 0.0
H474 H 0.59601 0.51768 0.77747 0.0
H475 H 0.5554 0.53728 0.77675 0.0
H476 H 0.57652 0.54374 0.76866 0.0
H477 H 0.5796 0.5475 0.78544 0.0
H478 H 0.63359 0.56197 0.7566 0.0
C479 C 0.60368 0.53744 0.75731 0.0
C480 C 0.60511 0.10172 0.73778 0.0
C481 C 0.61957 0.09692 0.74228 0.0
C482 C 0.61682 0.08764 0.7534 0.0
C483 C 0.58631 0.08894 0.7555 0.0
C484 C 0.58868 0.09752 0.74445 0.0
C485 C 0.57196 0.10153 0.74081 0.0
H486 H 0.48955 0.10474 0.7555 0.0
C487 C 0.568 0.08724 0.76032 0.0
C488 C 0.5595 0.09452 0.75169 0.0
H489 H 0.51768 0.11837 0.72124 0.0
H490 H 0.54197 0.10981 0.72909 0.0
H491 H 0.48991 0.06382 0.75647 0.0
H492 H 0.52954 0.12346 0.77421 0.0
H493 H 0.52637 0.10681 0.78536 0.0
H494 H 0.50483 0.1076 0.77863 0.0
H495 H 0.48346 0.07412 0.76951 0.0
H496 H 0.49729 0.06109 0.77151 0.0
C497 C 0.56035 0.08845 0.72845 0.0
C498 C 0.58125 0.12439 0.74015 0.0
C499 C 0.5483 0.06144 0.80243 0.0
C500 C 0.53287 0.05958 0.80955 0.0
C501 C 0.51909 0.06507 0.80472 0.0
C502 C 0.52066 0.07239 0.7931 0.0
C503 C 0.53623 0.07436 0.78614 0.0
C504 C 0.54975 0.06895 0.79081 0.0
C505 C 0.56555 0.07253 0.78217 0.0
C506 C 0.55911 0.08074 0.77151 0.0
C507 C 0.54191 0.08175 0.77393 0.0
C508 C 0.56379 0.05211 0.77803 0.0
C509 C 0.58626 0.08835 0.78899 0.0
C510 C 0.50075 0.10571 0.74957 0.0
C511 C 0.50167 0.11258 0.73774 0.0
C512 C 0.51678 0.1137 0.73051 0.0
C513 C 0.53083 0.1085 0.73503 0.0
C514 C 0.52978 0.10188 0.74689 0.0
C515 C 0.51472 0.10027 0.75386 0.0
C516 C 0.51531 0.09201 0.766 0.0
C517 C 0.53332 0.0891 0.7652 0.0
C518 C 0.5419 0.09517 0.75407 0.0
C519 C 0.49547 0.07177 0.76601 0.0
C520 C 0.51906 0.10814 0.77668 0.0
H521 H 0.5992 0.07668 0.76842 0.0
H522 H 0.60667 0.10896 0.72934 0.0
H523 H 0.59275 0.13297 0.7482 0.0
H524 H 0.57019 0.12944 0.74059 0.0
H525 H 0.58873 0.12896 0.73152 0.0
H526 H 0.56156 0.07468 0.72735 0.0
H527 H 0.5663 0.09683 0.72029 0.0
H528 H 0.544 0.0828 0.72805 0.0
H529 H 0.55922 0.05752 0.80592 0.0
H530 H 0.50691 0.06353 0.80992 0.0
H531 H 0.50969 0.07629 0.79 0.0
H532 H 0.54778 0.0399 0.77679 0.0
H533 H 0.57189 0.04809 0.78508 0.0
H534 H 0.5694 0.05182 0.76893 0.0
H535 H 0.58503 0.10011 0.79469 0.0
H536 H 0.59755 0.09659 0.78261 0.0
H537 H 0.59222 0.08133 0.79534 0.0
H538 H 0.62736 0.08329 0.75699 0.0
C539 C 0.60035 0.08368 0.76002 0.0
C540 C 0.82186 0.56046 0.92923 0.0
C541 C 0.83981 0.56394 0.92449 0.0
C542 C 0.84468 0.57289 0.9133 0.0
C543 C 0.81393 0.57434 0.91167 0.0
C544 C 0.80923 0.56578 0.9227 0.0
C545 C 0.78961 0.56306 0.92643 0.0
H546 H 0.70736 0.57202 0.91424 0.0
C547 C 0.79753 0.57781 0.90716 0.0
C548 C 0.78326 0.5713 0.91578 0.0
H549 H 0.72254 0.54843 0.94573 0.0
H550 H 0.75333 0.55501 0.93762 0.0
H551 H 0.75218 0.60981 0.91328 0.0
H552 H 0.72142 0.55043 0.89356 0.0
H553 H 0.7342 0.56775 0.88297 0.0
H554 H 0.71455 0.56895 0.8905 0.0
H555 H 0.73168 0.60197 0.90142 0.0
H556 H 0.75718 0.61195 0.89765 0.0
C557 C 0.79397 0.576 0.93897 0.0
C558 C 0.77498 0.5403 0.92676 0.0
C559 C 0.80042 0.60686 0.86609 0.0
C560 C 0.78744 0.61141 0.85917 0.0
C561 C 0.76969 0.60833 0.86409 0.0
C562 C 0.76484 0.60057 0.87558 0.0
C563 C 0.77786 0.59581 0.88227 0.0
C564 C 0.79536 0.59911 0.8775 0.0
C565 C 0.8075 0.59327 0.8858 0.0
C566 C 0.79437 0.58576 0.89633 0.0
C567 C 0.777 0.58725 0.89425 0.0
C568 C 0.82797 0.61237 0.8902 0.0
C569 C 0.80907 0.57626 0.87853 0.0
C570 C 0.71728 0.56817 0.91934 0.0
C571 C 0.71249 0.55979 0.9307 0.0
C572 C 0.72596 0.5552 0.93708 0.0
C573 C 0.74383 0.55892 0.93231 0.0
C574 C 0.74842 0.5673 0.92099 0.0
C575 C 0.73528 0.57181 0.91469 0.0
C576 C 0.74277 0.58066 0.90277 0.0
C577 C 0.76254 0.58071 0.903 0.0
C578 C 0.7657 0.57281 0.9137 0.0
C579 C 0.74605 0.60219 0.9037 0.0
C580 C 0.72747 0.56638 0.89181 0.0
H581 H 0.83649 0.58483 0.89842 0.0
H582 H 0.81752 0.55346 0.93774 0.0
H583 H 0.77726 0.53134 0.91928 0.0
H584 H 0.75903 0.53603 0.92503 0.0
H585 H 0.77739 0.5353 0.93578 0.0
H586 H 0.8088 0.59006 0.93955 0.0
H587 H 0.7943 0.56776 0.94695 0.0
H588 H 0.78307 0.58114 0.94019 0.0
H589 H 0.81435 0.60937 0.86273 0.0
H590 H 0.75935 0.61158 0.85893 0.0
H591 H 0.75106 0.59843 0.87877 0.0
H592 H 0.82629 0.62587 0.89132 0.0
H593 H 0.83905 0.61513 0.88339 0.0
H594 H 0.83442 0.61177 0.89944 0.0
H595 H 0.79492 0.5661 0.87246 0.0
H596 H 0.81118 0.56636 0.88462 0.0
H597 H 0.8215 0.58246 0.87249 0.0
H598 H 0.85855 0.57609 0.90953 0.0
C599 C 0.83188 0.57809 0.90688 0.0
C600 C 0.38831 0.13185 0.94223 0.0
C601 C 0.38593 0.11471 0.93526 0.0
C602 C 0.37673 0.10989 0.92293 0.0
C603 C 0.37361 0.13966 0.92453 0.0
C604 C 0.38205 0.14401 0.93672 0.0
C605 C 0.3843 0.16317 0.94273 0.0
H606 H 0.38092 0.24793 0.93684 0.0
C607 C 0.36979 0.15593 0.92145 0.0
C608 C 0.37584 0.16965 0.93212 0.0
H609 H 0.40107 0.23058 0.96949 0.0
H610 H 0.39119 0.19842 0.95852 0.0
H611 H 0.39904 0.23048 0.91715 0.0
H612 H 0.34031 0.20597 0.92979 0.0
H613 H 0.33645 0.19666 0.91408 0.0
H614 H 0.34813 0.22339 0.91828 0.0
H615 H 0.38248 0.24014 0.91399 0.0
H616 H 0.38105 0.21988 0.90407 0.0
C617 C 0.40703 0.17802 0.9464 0.0
C618 C 0.37124 0.15809 0.95374 0.0
C619 C 0.34608 0.15794 0.87705 0.0
C620 C 0.34205 0.17162 0.87132 0.0
C621 C 0.34297 0.18774 0.87878 0.0
C622 C 0.34866 0.1907 0.89159 0.0
C623 C 0.35352 0.17742 0.89706 0.0
C624 C 0.35165 0.16106 0.88989 0.0
C625 C 0.35683 0.1482 0.89741 0.0
C626 C 0.36253 0.15981 0.91021 0.0
C627 C 0.36084 0.17707 0.90989 0.0
C628 C 0.37496 0.1479 0.89216 0.0
C629 C 0.33775 0.12725 0.89705 0.0
C630 C 0.38289 0.23709 0.94171 0.0
C631 C 0.39199 0.24191 0.95402 0.0
C632 C 0.39444 0.22739 0.95994 0.0
C633 C 0.38864 0.20869 0.95356 0.0
C634 C 0.38042 0.20447 0.94108 0.0
C635 C 0.37726 0.21838 0.93545 0.0
C636 C 0.36835 0.2113 0.92214 0.0
C637 C 0.36706 0.191 0.92065 0.0
C638 C 0.37432 0.18719 0.93174 0.0
C639 C 0.38334 0.22619 0.91382 0.0
C640 C 0.34727 0.20931 0.9209 0.0
H641 H 0.36382 0.11789 0.90809 0.0
H642 H 0.39555 0.13618 0.95166 0.0
H643 H 0.35745 0.14307 0.95173 0.0
H644 H 0.36561 0.16857 0.95556 0.0
H645 H 0.37963 0.15786 0.96237 0.0
H646 H 0.41616 0.17648 0.9393 0.0
H647 H 0.41216 0.17514 0.95544 0.0
H648 H 0.41103 0.1939 0.9469 0.0
H649 H 0.34557 0.1454 0.87165 0.0
H650 H 0.33942 0.19822 0.8747 0.0
H651 H 0.34936 0.2034 0.8967 0.0
H652 H 0.38609 0.16306 0.88977 0.0
H653 H 0.37005 0.13732 0.88358 0.0
H654 H 0.38341 0.14392 0.89886 0.0
H655 H 0.32388 0.12835 0.89627 0.0
H656 H 0.33709 0.1201 0.90568 0.0
H657 H 0.33665 0.11705 0.88898 0.0
H658 H 0.37443 0.09661 0.91741 0.0
C659 C 0.37051 0.12223 0.91755 0.0
C660 C 0.72882 0.1545 0.93378 0.0
C661 C 0.71296 0.1359 0.92828 0.0
C662 C 0.71492 0.12806 0.91667 0.0
C663 C 0.74803 0.15718 0.91631 0.0
C664 C 0.74605 0.16481 0.92768 0.0
C665 C 0.76405 0.18481 0.9323 0.0
H666 H 0.8567 0.25987 0.92431 0.0
C667 C 0.76792 0.17165 0.91257 0.0
C668 C 0.77735 0.18782 0.92195 0.0
H669 H 0.81956 0.25696 0.95346 0.0
H670 H 0.79399 0.224 0.94465 0.0
H671 H 0.84625 0.21353 0.92257 0.0
H672 H 0.82217 0.245 0.90307 0.0
H673 H 0.82152 0.22717 0.89198 0.0
H674 H 0.84537 0.24647 0.89979 0.0
H675 H 0.85934 0.23046 0.91141 0.0
H676 H 0.84176 0.20422 0.90681 0.0
C677 C 0.77345 0.18265 0.94474 0.0
C678 C 0.75724 0.20065 0.9332 0.0
C679 C 0.78987 0.15897 0.87112 0.0
C680 C 0.80761 0.16995 0.8654 0.0
C681 C 0.82357 0.18767 0.87191 0.0
C682 C 0.82186 0.19454 0.88376 0.0
C683 C 0.80395 0.1837 0.88923 0.0
C684 C 0.78841 0.16608 0.88303 0.0
C685 C 0.77066 0.15649 0.8905 0.0
C686 C 0.77797 0.17159 0.90199 0.0
C687 C 0.79746 0.1875 0.90112 0.0
C688 C 0.7677 0.13594 0.89361 0.0
C689 C 0.75229 0.15525 0.88298 0.0
C690 C 0.84305 0.25227 0.9288 0.0
C691 C 0.84036 0.26122 0.93968 0.0
C692 C 0.82236 0.25043 0.94524 0.0
C693 C 0.80734 0.23131 0.94001 0.0
C694 C 0.81011 0.22284 0.92899 0.0
C695 C 0.82772 0.23332 0.92358 0.0
C696 C 0.82759 0.22251 0.91152 0.0
C697 C 0.80698 0.2038 0.91062 0.0
C698 C 0.79691 0.204 0.92093 0.0
C699 C 0.84467 0.21747 0.91302 0.0
C700 C 0.82939 0.2359 0.90099 0.0
H701 H 0.73289 0.13188 0.90184 0.0
H702 H 0.72801 0.16087 0.94276 0.0
H703 H 0.7439 0.19628 0.92647 0.0
H704 H 0.76878 0.21546 0.93075 0.0
H705 H 0.75311 0.20247 0.94263 0.0
H706 H 0.77341 0.1682 0.94425 0.0
H707 H 0.76482 0.18289 0.95254 0.0
H708 H 0.78934 0.19438 0.94708 0.0
H709 H 0.77741 0.14519 0.86644 0.0
H710 H 0.83728 0.1966 0.8677 0.0
H711 H 0.8345 0.20822 0.88811 0.0
H712 H 0.78243 0.13664 0.8953 0.0
H713 H 0.75873 0.12407 0.88583 0.0
H714 H 0.76049 0.13119 0.90223 0.0
H715 H 0.75682 0.16914 0.87835 0.0
H716 H 0.74058 0.15403 0.88883 0.0
H717 H 0.74545 0.14236 0.87563 0.0
H718 H 0.70286 0.11387 0.91215 0.0
C719 C 0.73234 0.13859 0.91067 0.0
C720 C 0.60445 0.8516 0.05712 0.0
C721 C 0.60956 0.87072 0.06269 0.0
C722 C 0.62207 0.87814 0.07405 0.0
C723 C 0.62254 0.84706 0.07455 0.0
C724 C 0.61123 0.8402 0.06313 0.0
C725 C 0.60708 0.81963 0.05846 0.0
H726 H 0.61109 0.73636 0.06917 0.0
C727 C 0.62604 0.83105 0.07864 0.0
C728 C 0.61732 0.81507 0.06914 0.0
H729 H 0.58478 0.74727 0.03629 0.0
H730 H 0.59643 0.7811 0.0451 0.0
H731 H 0.65222 0.77992 0.07319 0.0
H732 H 0.59515 0.75594 0.08805 0.0
H733 H 0.61349 0.77107 0.10029 0.0
H734 H 0.61358 0.74944 0.0931 0.0
H735 H 0.64466 0.76195 0.08438 0.0
H736 H 0.65712 0.78856 0.0891 0.0
C737 C 0.61731 0.82123 0.04636 0.0
C738 C 0.584 0.8053 0.05691 0.0
C739 C 0.65573 0.83698 0.12288 0.0
C740 C 0.65879 0.82363 0.12971 0.0
C741 C 0.65527 0.80539 0.12353 0.0
C742 C 0.64813 0.80022 0.1109 0.0
C743 C 0.64425 0.8133 0.10435 0.0
C744 C 0.64842 0.8315 0.11028 0.0
C745 C 0.64325 0.84343 0.10186 0.0
C746 C 0.6348 0.82913 0.09 0.0
C747 C 0.63535 0.81148 0.09155 0.0
C748 C 0.66287 0.86301 0.10013 0.0
C749 C 0.6271 0.84682 0.10759 0.0
C750 C 0.60781 0.74602 0.06386 0.0
C751 C 0.5969 0.73905 0.05203 0.0
C752 C 0.5933 0.75228 0.04536 0.0
C753 C 0.59995 0.7719 0.05054 0.0
C754 C 0.61021 0.77838 0.06256 0.0
C755 C 0.61423 0.76561 0.06893 0.0
C756 C 0.62501 0.77492 0.08167 0.0
C757 C 0.62688 0.79546 0.08186 0.0
C758 C 0.61806 0.79733 0.07069 0.0
C759 C 0.64581 0.77635 0.08225 0.0
C760 C 0.6113 0.76224 0.09136 0.0
H761 H 0.63777 0.87282 0.08868 0.0
H762 H 0.59486 0.84529 0.04844 0.0
H763 H 0.577 0.80866 0.0647 0.0
H764 H 0.57958 0.78939 0.05714 0.0
H765 H 0.57707 0.80696 0.04811 0.0
H766 H 0.63106 0.83619 0.04644 0.0
H767 H 0.60705 0.81915 0.03804 0.0
H768 H 0.62266 0.8104 0.0452 0.0
H769 H 0.65863 0.85127 0.12728 0.0
H770 H 0.65732 0.79473 0.12856 0.0
H771 H 0.64541 0.78597 0.1068 0.0
H772 H 0.67616 0.86093 0.10113 0.0
H773 H 0.66564 0.87544 0.10714 0.0
H774 H 0.66281 0.86776 0.09071 0.0
H775 H 0.61546 0.83278 0.11099 0.0
H776 H 0.61884 0.85102 0.10091 0.0
H777 H 0.63393 0.85861 0.1156 0.0
H778 H 0.62679 0.89302 0.07841 0.0
C779 C 0.62855 0.86643 0.07999 0.0
C780 C 0.26608 0.85679 0.06349 0.0
C781 C 0.28389 0.87355 0.06926 0.0
C782 C 0.28461 0.87969 0.08193 0.0
C783 C 0.25091 0.85198 0.08291 0.0
C784 C 0.25005 0.8461 0.07049 0.0
C785 C 0.23104 0.82678 0.06604 0.0
H786 H 0.14874 0.74418 0.08028 0.0
C787 C 0.23239 0.8368 0.08772 0.0
C788 C 0.2208 0.82187 0.0779 0.0
H789 H 0.16962 0.75824 0.04401 0.0
H790 H 0.19607 0.79082 0.0529 0.0
H791 H 0.19062 0.76314 0.09625 0.0
H792 H 0.1523 0.78707 0.08682 0.0
H793 H 0.16325 0.79747 0.10203 0.0
H794 H 0.14734 0.77061 0.09877 0.0
H795 H 0.16717 0.75543 0.10259 0.0
H796 H 0.19027 0.77673 0.10976 0.0
C797 C 0.23696 0.81113 0.06158 0.0
C798 C 0.21897 0.83105 0.05592 0.0
C799 C 0.22059 0.84501 0.13291 0.0
C800 C 0.20561 0.83238 0.14011 0.0
C801 C 0.19013 0.8135 0.13464 0.0
C802 C 0.18939 0.80731 0.12213 0.0
C803 C 0.20443 0.82003 0.115 0.0
C804 C 0.21981 0.83846 0.12042 0.0
C805 C 0.23506 0.84939 0.11153 0.0
C806 C 0.22568 0.83493 0.09975 0.0
C807 C 0.20777 0.81779 0.10188 0.0
C808 C 0.25539 0.85152 0.11655 0.0
C809 C 0.23595 0.86959 0.10997 0.0
C810 C 0.15879 0.75427 0.07416 0.0
C811 C 0.15721 0.74824 0.06142 0.0
C812 C 0.17077 0.76209 0.05391 0.0
C813 C 0.1861 0.78111 0.05908 0.0
C814 C 0.18794 0.7865 0.0719 0.0
C815 C 0.17403 0.77343 0.07913 0.0
C816 C 0.17754 0.78223 0.09241 0.0
C817 C 0.19634 0.80243 0.09205 0.0
C818 C 0.20255 0.80471 0.08006 0.0
C819 C 0.18149 0.76871 0.10079 0.0
C820 C 0.15918 0.78439 0.09528 0.0
H821 H 0.26979 0.87446 0.09833 0.0
H822 H 0.26468 0.85174 0.05376 0.0
H823 H 0.22169 0.8466 0.0576 0.0
H824 H 0.20254 0.82131 0.05591 0.0
H825 H 0.22331 0.82935 0.04653 0.0
H826 H 0.24937 0.81229 0.06802 0.0
H827 H 0.24222 0.81361 0.05218 0.0
H828 H 0.2247 0.79549 0.06137 0.0
H829 H 0.23282 0.85946 0.13698 0.0
H830 H 0.17844 0.8036 0.14005 0.0
H831 H 0.17719 0.79279 0.11851 0.0
H832 H 0.25322 0.83987 0.12283 0.0
H833 H 0.26534 0.86639 0.12191 0.0
H834 H 0.26344 0.84927 0.10907 0.0
H835 H 0.22052 0.86734 0.10857 0.0
H836 H 0.24341 0.87656 0.1018 0.0
H837 H 0.24391 0.88041 0.11837 0.0
H838 H 0.29811 0.8923 0.08678 0.0
C839 C 0.26821 0.86913 0.08873 0.0
C840 C 0.27231 0.43398 0.07236 0.0
C841 C 0.28662 0.42916 0.0771 0.0
C842 C 0.28354 0.41989 0.08824 0.0
C843 C 0.25265 0.42075 0.08969 0.0
C844 C 0.25553 0.42955 0.0787 0.0
C845 C 0.23887 0.43342 0.07468 0.0
H846 H 0.15282 0.43173 0.08605 0.0
C847 C 0.23378 0.41843 0.09398 0.0
C848 C 0.22561 0.42573 0.08514 0.0
H849 H 0.18594 0.45101 0.05398 0.0
H850 H 0.21017 0.44279 0.06253 0.0
H851 H 0.15533 0.39189 0.08691 0.0
H852 H 0.19098 0.45092 0.10642 0.0
H853 H 0.18736 0.43371 0.11725 0.0
H854 H 0.16587 0.43368 0.10967 0.0
H855 H 0.14665 0.40055 0.09956 0.0
H856 H 0.16136 0.38854 0.10211 0.0
C857 C 0.22821 0.42077 0.06205 0.0
C858 C 0.24804 0.45635 0.07438 0.0
C859 C 0.21114 0.39077 0.13528 0.0
C860 C 0.19461 0.38764 0.1417 0.0
C861 C 0.18036 0.39198 0.13616 0.0
C862 C 0.18264 0.3996 0.12461 0.0
C863 C 0.19936 0.40297 0.11842 0.0
C864 C 0.21322 0.39846 0.1237 0.0
C865 C 0.22998 0.403 0.11565 0.0
C866 C 0.22391 0.41108 0.10476 0.0
C867 C 0.20597 0.41104 0.10648 0.0
C868 C 0.22939 0.3831 0.11166 0.0
C869 C 0.24997 0.41922 0.12304 0.0
C870 C 0.16516 0.434 0.08079 0.0
C871 C 0.16745 0.4422 0.06933 0.0
C872 C 0.18395 0.4451 0.06292 0.0
C873 C 0.19796 0.44016 0.06786 0.0
C874 C 0.19553 0.43214 0.07935 0.0
C875 C 0.17925 0.42904 0.08556 0.0
C876 C 0.17891 0.42009 0.09755 0.0
C877 C 0.1977 0.41835 0.09752 0.0
C878 C 0.20742 0.42555 0.08688 0.0
C879 C 0.15954 0.39924 0.09662 0.0
C880 C 0.18073 0.4352 0.10835 0.0
H881 H 0.26525 0.40867 0.10297 0.0
H882 H 0.27419 0.44132 0.06394 0.0
H883 H 0.25975 0.46475 0.08235 0.0
H884 H 0.23697 0.46132 0.07528 0.0
H885 H 0.25524 0.46128 0.0657 0.0
H886 H 0.22888 0.40667 0.06125 0.0
H887 H 0.23537 0.42921 0.05413 0.0
H888 H 0.21198 0.41567 0.06091 0.0
H889 H 0.22241 0.38768 0.13928 0.0
H890 H 0.16726 0.38933 0.14073 0.0
H891 H 0.17128 0.40261 0.12097 0.0
H892 H 0.21364 0.37036 0.11017 0.0
H893 H 0.23763 0.37952 0.11889 0.0
H894 H 0.23554 0.38323 0.1027 0.0
H895 H 0.24786 0.43079 0.12826 0.0
H896 H 0.26189 0.42755 0.11705 0.0
H897 H 0.25555 0.4125 0.12989 0.0
H898 H 0.29404 0.41565 0.09205 0.0
C899 C 0.2667 0.41571 0.09455 0.0
C900 C 0.48831 0.89449 0.26096 0.0
C901 C 0.50695 0.89951 0.25662 0.0
C902 C 0.51236 0.91014 0.24604 0.0
C903 C 0.48078 0.91001 0.2442 0.0
C904 C 0.47563 0.9 0.2547 0.0
C905 C 0.45561 0.89627 0.25831 0.0
H906 H 0.37282 0.90463 0.2471 0.0
C907 C 0.46414 0.91321 0.23981 0.0
C908 C 0.44941 0.90534 0.24809 0.0
H909 H 0.38806 0.87953 0.27772 0.0
H910 H 0.4189 0.88668 0.26943 0.0
H911 H 0.41759 0.94294 0.24658 0.0
H912 H 0.38709 0.88432 0.22589 0.0
H913 H 0.40059 0.90193 0.21563 0.0
H914 H 0.38069 0.90317 0.22286 0.0
H915 H 0.3966 0.93508 0.23509 0.0
H916 H 0.42189 0.94578 0.23087 0.0
C917 C 0.45911 0.90782 0.27128 0.0
C918 C 0.44134 0.87328 0.2577 0.0
C919 C 0.46743 0.94528 0.19983 0.0
C920 C 0.45406 0.9494 0.19298 0.0
C921 C 0.43565 0.9447 0.1976 0.0
C922 C 0.43067 0.93603 0.20882 0.0
C923 C 0.44418 0.93189 0.2155 0.0
C924 C 0.4622 0.93652 0.21095 0.0
C925 C 0.47458 0.93075 0.2191 0.0
C926 C 0.46103 0.92182 0.22928 0.0
C927 C 0.44325 0.92257 0.22719 0.0
C928 C 0.49448 0.9501 0.22411 0.0
C929 C 0.47733 0.91485 0.2114 0.0
C930 C 0.38276 0.90057 0.25196 0.0
C931 C 0.378 0.89164 0.26316 0.0
C932 C 0.39147 0.88674 0.26922 0.0
C933 C 0.40938 0.89082 0.26435 0.0
C934 C 0.41403 0.89992 0.25326 0.0
C935 C 0.40082 0.90462 0.24722 0.0
C936 C 0.40841 0.91429 0.23554 0.0
C937 C 0.42843 0.91486 0.23569 0.0
C938 C 0.43156 0.90633 0.24608 0.0
C939 C 0.4112 0.93562 0.23696 0.0
C940 C 0.39344 0.90039 0.22434 0.0
H941 H 0.50442 0.92336 0.23182 0.0
H942 H 0.48349 0.88623 0.26898 0.0
H943 H 0.44368 0.86542 0.24959 0.0
H944 H 0.42529 0.86882 0.25639 0.0
H945 H 0.44411 0.86731 0.26621 0.0
H946 H 0.4742 0.92161 0.27273 0.0
H947 H 0.45821 0.89842 0.27885 0.0
H948 H 0.44846 0.91332 0.27245 0.0
H949 H 0.48156 0.9484 0.19647 0.0
H950 H 0.42514 0.94787 0.19257 0.0
H951 H 0.41647 0.93285 0.21185 0.0
H952 H 0.49217 0.9632 0.22538 0.0
H953 H 0.50612 0.95374 0.21758 0.0
H954 H 0.50051 0.94918 0.2334 0.0
H955 H 0.46334 0.90434 0.2053 0.0
H956 H 0.48036 0.90519 0.21719 0.0
H957 H 0.48964 0.92207 0.20535 0.0
H958 H 0.52676 0.91469 0.24261 0.0
C959 C 0.4994 0.91534 0.23981 0.0
C960 C 0.0615 0.47387 0.27734 0.0
C961 C 0.05913 0.45637 0.27082 0.0
C962 C 0.0484 0.45002 0.25886 0.0
C963 C 0.04408 0.47908 0.25984 0.0
C964 C 0.05373 0.48478 0.27176 0.0
C965 C 0.05503 0.50366 0.27748 0.0
H966 H 0.04473 0.58434 0.27053 0.0
C967 C 0.03882 0.4943 0.25654 0.0
C968 C 0.04487 0.50855 0.26693 0.0
H969 H 0.06789 0.57023 0.30341 0.0
H970 H 0.05972 0.5383 0.29288 0.0
H971 H 0.0641 0.56816 0.25105 0.0
H972 H 0.00557 0.54089 0.26416 0.0
H973 H 0.00185 0.53152 0.24847 0.0
H974 H 0.01225 0.55812 0.25256 0.0
H975 H 0.04613 0.576 0.24756 0.0
H976 H 0.04608 0.55604 0.2381 0.0
C977 C 0.07758 0.51974 0.28039 0.0
C978 C 0.04294 0.49861 0.28896 0.0
C979 C 0.01335 0.49331 0.21199 0.0
C980 C 0.00854 0.5063 0.206 0.0
C981 C 0.00862 0.52216 0.21323 0.0
C982 C 0.0143 0.52562 0.22605 0.0
C983 C 0.02005 0.51315 0.23177 0.0
C984 C 0.01897 0.49697 0.22483 0.0
C985 C 0.02508 0.48499 0.2326 0.0
C986 C 0.0306 0.49706 0.24525 0.0
C987 C 0.02786 0.51367 0.24464 0.0
C988 C 0.04351 0.48535 0.22737 0.0
C989 C 0.00665 0.46367 0.23258 0.0
C990 C 0.04772 0.57424 0.27555 0.0
C991 C 0.05716 0.57994 0.28779 0.0
C992 C 0.06096 0.56637 0.29391 0.0
C993 C 0.05615 0.5478 0.28778 0.0
C994 C 0.04755 0.54273 0.27537 0.0
C995 C 0.04306 0.55565 0.26955 0.0
C996 C 0.03391 0.54774 0.25635 0.0
C997 C 0.03385 0.52801 0.25517 0.0
C998 C 0.04208 0.52531 0.26629 0.0
C999 C 0.04811 0.56271 0.24773 0.0
C1000 C 0.01232 0.54448 0.2552 0.0
H1001 H 0.03313 0.4558 0.24419 0.0
H1002 H 0.06973 0.47939 0.28649 0.0
H1003 H 0.03045 0.48275 0.28786 0.0
H1004 H 0.03548 0.50756 0.29032 0.0
H1005 H 0.05268 0.50077 0.29757 0.0
H1006 H 0.08629 0.51905 0.27274 0.0
H1007 H 0.08412 0.51734 0.28909 0.0
H1008 H 0.08037 0.53524 0.28122 0.0
H1009 H 0.01344 0.48096 0.20675 0.0
H1010 H 0.00445 0.53207 0.20895 0.0
H1011 H 0.01435 0.53812 0.23098 0.0
H1012 H 0.05452 0.50077 0.22532 0.0
H1013 H 0.03892 0.47523 0.2186 0.0
H1014 H 0.05187 0.48107 0.23391 0.0
H1015 H 0.99229 0.4638 0.23117 0.0
H1016 H 0.00608 0.45746 0.24158 0.0
H1017 H 0.00642 0.45314 0.22504 0.0
H1018 H 0.0458 0.43634 0.25372 0.0
C1019 C 0.0409 0.46127 0.25335 0.0
C1020 C 0.40309 0.48334 0.27098 0.0
C1021 C 0.38631 0.46622 0.2646 0.0
C1022 C 0.38753 0.46034 0.25222 0.0
C1023 C 0.42143 0.48856 0.25284 0.0
C1024 C 0.42022 0.49434 0.26492 0.0
C1025 C 0.43851 0.51374 0.27015 0.0
H1026 H 0.52782 0.5936 0.26154 0.0
C1027 C 0.44115 0.50362 0.2492 0.0
C1028 C 0.45112 0.51848 0.2593 0.0
H1029 H 0.49422 0.58416 0.29347 0.0
H1030 H 0.4694 0.55111 0.28409 0.0
H1031 H 0.52161 0.54929 0.25763 0.0
H1032 H 0.49041 0.57695 0.24149 0.0
H1033 H 0.49288 0.56244 0.22937 0.0
H1034 H 0.51511 0.58276 0.23807 0.0
H1035 H 0.53124 0.56551 0.24558 0.0
H1036 H 0.51421 0.53885 0.24208 0.0
C1037 C 0.44857 0.50962 0.28152 0.0
C1038 C 0.43194 0.52945 0.27308 0.0
C1039 C 0.46158 0.49566 0.20627 0.0
C1040 C 0.47909 0.50736 0.20051 0.0
C1041 C 0.49496 0.5249 0.20723 0.0
C1042 C 0.49347 0.53077 0.2194 0.0
C1043 C 0.47586 0.5191 0.22497 0.0
C1044 C 0.46034 0.50177 0.21849 0.0
C1045 C 0.44286 0.49126 0.22606 0.0
C1046 C 0.45056 0.50515 0.23811 0.0
C1047 C 0.46982 0.5215 0.23733 0.0
C1048 C 0.43996 0.47031 0.22795 0.0
C1049 C 0.4243 0.49077 0.21931 0.0
C1050 C 0.51509 0.58445 0.26651 0.0
C1051 C 0.51295 0.59164 0.27823 0.0
C1052 C 0.49637 0.579 0.28448 0.0
C1053 C 0.48182 0.55986 0.27895 0.0
C1054 C 0.48372 0.5533 0.26699 0.0
C1055 C 0.50032 0.56541 0.26107 0.0
C1056 C 0.4997 0.55614 0.24832 0.0
C1057 C 0.47969 0.53672 0.24744 0.0
C1058 C 0.47043 0.53514 0.25839 0.0
C1059 C 0.51764 0.55232 0.24827 0.0
C1060 C 0.49965 0.57025 0.23874 0.0
H1061 H 0.40491 0.46613 0.23693 0.0
H1062 H 0.40298 0.48829 0.28052 0.0
H1063 H 0.4183 0.52611 0.26695 0.0
H1064 H 0.44333 0.54477 0.27132 0.0
H1065 H 0.42838 0.52969 0.28284 0.0
H1066 H 0.44831 0.49516 0.27966 0.0
H1067 H 0.44056 0.50866 0.28987 0.0
H1068 H 0.4646 0.52107 0.28377 0.0
H1069 H 0.44917 0.48202 0.20141 0.0
H1070 H 0.50847 0.5344 0.20299 0.0
H1071 H 0.50604 0.54434 0.22392 0.0
H1072 H 0.45474 0.47125 0.22997 0.0
H1073 H 0.43211 0.45965 0.21947 0.0
H1074 H 0.43157 0.46381 0.23594 0.0
H1075 H 0.42885 0.50445 0.21444 0.0
H1076 H 0.41373 0.49077 0.22575 0.0
H1077 H 0.41613 0.47755 0.21224 0.0
H1078 H 0.37482 0.44748 0.24692 0.0
C1079 C 0.405 0.47132 0.24635 0.0
Eu1080 Eu 0.49431 0.98352 0.98784 0.0
Eu1081 Eu 0.51003 0.01376 0.01428 0.0
C1082 C 0.48758 0.02066 0.99103 0.0
C1083 C 0.48663 0.96921 0.953 0.0
C1084 C 0.47652 0.97809 0.94733 0.0
C1085 C 0.50451 0.9731 0.93464 0.0
C1086 C 0.48051 0.98456 0.93553 0.0
C1087 C 0.50046 0.96654 0.94644 0.0
C1088 C 0.49474 0.9824 0.92908 0.0
C1089 C 0.48339 0.96338 0.96582 0.0
O1090 O 0.48358 0.98504 0.01838 0.0
O1091 O 0.46725 0.97274 0.99871 0.0
C1092 C 0.46723 0.97353 0.01087 0.0
O1093 O 0.5014 0.96652 0.00143 0.0
O1094 O 0.5044 0.03103 0.02852 0.0
O1095 O 0.53216 0.03044 0.03034 0.0
O1096 O 0.52296 0.99335 0.01565 0.0
C1097 C 0.51542 0.97465 0.01088 0.0
O1098 O 0.52768 0.00419 0.98833 0.0
O1099 O 0.53174 0.03137 0.00071 0.0
O1100 O 0.48831 0.01966 0.00306 0.0
O1101 O 0.4992 0.96655 0.97291 0.0
O1102 O 0.4719 0.96812 0.97184 0.0
O1103 O 0.49465 0.01188 0.98386 0.0
C1104 C 0.5166 0.02966 0.04854 0.0
C1105 C 0.50544 0.00936 0.05054 0.0
C1106 C 0.5188 0.03896 0.07064 0.0
C1107 C 0.5008 0.00388 0.06248 0.0
C1108 C 0.52335 0.04443 0.05866 0.0
C1109 C 0.50729 0.01861 0.07267 0.0
C1110 C 0.52035 0.0353 0.03584 0.0
C1111 C 0.53801 0.02339 0.99229 0.0
H1112 H 0.46565 0.98027 0.95205 0.0
H1113 H 0.51567 0.97132 0.93 0.0
H1114 H 0.47238 0.99127 0.93145 0.0
H1115 H 0.50842 0.95968 0.95054 0.0
H1116 H 0.50014 0.99773 0.04284 0.0
H1117 H 0.52388 0.05067 0.07827 0.0
H1118 H 0.49218 0.98809 0.06374 0.0
H1119 H 0.5319 0.06018 0.05726 0.0
Eu1120 Eu 0.01449 0.5092 0.98953 0.0
Eu1121 Eu 0.98768 0.49875 0.01366 0.0
C1122 C 0.97591 0.46554 0.99064 0.0
C1123 C 0.03203 0.51402 0.95697 0.0
C1124 C 0.0125 0.50183 0.95105 0.0
C1125 C 0.04488 0.52065 0.93689 0.0
C1126 C 0.00916 0.49916 0.93807 0.0
C1127 C 0.04819 0.52327 0.94984 0.0
C1128 C 0.02531 0.50873 0.93085 0.0
C1129 C 0.03568 0.51802 0.97054 0.0
O1130 O 0.00912 0.48719 0.01687 0.0
O1131 O 0.03393 0.50801 0.00543 0.0
C1132 C 0.02769 0.49548 0.01397 0.0
O1133 O 0.02335 0.53852 1.00051 0.0
O1134 O 0.96871 0.47733 0.02594 0.0
O1135 O 0.97504 0.50807 0.02843 0.0
O1136 O 0.01603 0.528 0.01981 0.0
C1137 C 0.0254 0.54226 0.01263 0.0
O1138 O 0.9851 0.50643 0.98241 0.0
O1139 O 0.9764 0.51398 0.00101 0.0
O1140 O 0.96911 0.47336 0.99878 0.0
O1141 O 0.02919 0.52925 0.97552 0.0
O1142 O 0.03189 0.50277 0.97674 0.0
O1143 O 0.99418 0.47566 0.98733 0.0
C1144 C 0.97097 0.49131 0.04653 0.0
C1145 C 0.96603 0.50287 0.05448 0.0
C1146 C 0.9823 0.48089 0.06457 0.0
C1147 C 0.9693 0.50356 0.06736 0.0
C1148 C 0.97919 0.48035 0.05168 0.0
C1149 C 0.97742 0.49254 0.07254 0.0
C1150 C 0.96723 0.49078 0.03296 0.0
C1151 C 0.97459 0.51222 0.9888 0.0
H1152 H 0.99984 0.49468 0.95647 0.0
H1153 H 0.05765 0.52798 0.93158 0.0
H1154 H 0.9939 0.49005 0.9337 0.0
H1155 H 0.06335 0.53274 0.9543 0.0
H1156 H 0.95958 0.51136 0.05072 0.0
H1157 H 0.98876 0.47242 0.06832 0.0
H1158 H 0.96522 0.51249 0.07328 0.0
H1159 H 0.98324 0.47136 0.04578 0.0
Eu1160 Eu 0.5077 0.48947 0.01354 0.0
Eu1161 Eu 0.48497 0.49269 0.98769 0.0
C1162 C 0.51059 0.53042 0.00771 0.0
C1163 C 0.52031 0.48774 0.0475 0.0
C1164 C 0.50955 0.49712 0.05114 0.0
C1165 C 0.52239 0.47953 0.06859 0.0
C1166 C 0.50535 0.49782 0.06347 0.0
C1167 C 0.5267 0.47896 0.05627 0.0
C1168 C 0.51166 0.48896 0.07232 0.0
C1169 C 0.52396 0.48616 0.03445 0.0
O1170 O 0.51277 0.49293 0.98207 0.0
O1171 O 0.53215 0.50377 0.00089 0.0
C1172 C 0.53032 0.50083 0.98869 0.0
O1173 O 0.49878 0.4621 1.00035 0.0
O1174 O 0.47553 0.50883 0.97561 0.0
O1175 O 0.46832 0.47853 0.96959 0.0
O1176 O 0.47045 0.46036 0.99144 0.0
C1177 C 0.48072 0.45161 0.99443 0.0
O1178 O 0.47586 0.4788 0.01766 0.0
O1179 O 0.46454 0.49111 0.00217 0.0
O1180 O 0.50779 0.52411 0.99586 0.0
O1181 O 0.50942 0.47092 0.02741 0.0
O1182 O 0.53131 0.5027 0.02906 0.0
O1183 O 0.50644 0.51787 0.01618 0.0
C1184 C 0.4749 0.50029 0.95418 0.0
C1185 C 0.46048 0.49367 0.94389 0.0
C1186 C 0.50138 0.51394 0.94044 0.0
C1187 C 0.46641 0.4968 0.93192 0.0
C1188 C 0.49541 0.51067 0.95244 0.0
C1189 C 0.4869 0.50664 0.93005 0.0
C1190 C 0.4683 0.49454 0.96645 0.0
C1191 C 0.46262 0.48313 0.01276 0.0
H1192 H 0.50423 0.50373 0.04443 0.0
H1193 H 0.5276 0.47274 0.07523 0.0
H1194 H 0.49685 0.50496 0.06603 0.0
H1195 H 0.53489 0.47153 0.05358 0.0
H1196 H 0.44459 0.48554 0.94507 0.0
H1197 H 0.51725 0.52141 0.93926 0.0
H1198 H 0.45494 0.4912 0.92409 0.0
H1199 H 0.50675 0.51568 0.9603 0.0
Eu1200 Eu 0.16089 0.31695 0.32051 0.0
Eu1201 Eu 0.17825 0.34818 0.34679 0.0
C1202 C 0.15767 0.35728 0.32354 0.0
C1203 C 0.15066 0.30117 0.28625 0.0
C1204 C 0.15875 0.32145 0.28434 0.0
C1205 C 0.1482 0.2928 0.264 0.0
C1206 C 0.1616 0.32738 0.27235 0.0
C1207 C 0.14536 0.28687 0.27603 0.0
C1208 C 0.15643 0.31315 0.26202 0.0
C1209 C 0.14881 0.29528 0.29897 0.0
O1210 O 0.14489 0.32832 0.34663 0.0
O1211 O 0.13958 0.3004 0.33453 0.0
C1212 C 0.13409 0.30904 0.34304 0.0
O1213 O 0.18038 0.30832 0.33165 0.0
O1214 O 0.1748 0.36739 0.36087 0.0
O1215 O 0.1996 0.36187 0.36346 0.0
O1216 O 0.17812 0.32 0.3511 0.0
C1217 C 0.18265 0.309 0.34378 0.0
O1218 O 0.18843 0.34466 0.3162 0.0
O1219 O 0.20498 0.3586 0.33575 0.0
O1220 O 0.17184 0.36529 0.33291 0.0
O1221 O 0.16575 0.30033 0.30543 0.0
O1222 O 0.13718 0.29925 0.30539 0.0
O1223 O 0.14926 0.33836 0.31907 0.0
C1224 C 0.18361 0.3629 0.38106 0.0
C1225 C 0.16923 0.34298 0.38243 0.0
C1226 C 0.18726 0.37095 0.40343 0.0
C1227 C 0.1639 0.33707 0.39421 0.0
C1228 C 0.19258 0.37685 0.39161 0.0
C1229 C 0.17284 0.35097 0.40487 0.0
C1230 C 0.18921 0.36893 0.36863 0.0
C1231 C 0.20478 0.35681 0.32359 0.0
H1232 H 0.16313 0.33274 0.29215 0.0
H1233 H 0.14386 0.28143 0.25625 0.0
H1234 H 0.16826 0.3432 0.27122 0.0
H1235 H 0.13918 0.27116 0.27735 0.0
H1236 H 0.16219 0.33197 0.37437 0.0
H1237 H 0.19428 0.38209 0.41142 0.0
H1238 H 0.15298 0.32152 0.39496 0.0
H1239 H 0.20369 0.39229 0.39072 0.0
Eu1240 Eu 0.67992 0.84086 0.32193 0.0
Eu1241 Eu 0.65482 0.83552 0.34636 0.0
C1242 C 0.64249 0.79888 0.32583 0.0
C1243 C 0.69686 0.84464 0.28921 0.0
C1244 C 0.67732 0.83573 0.28317 0.0
C1245 C 0.71038 0.85179 0.26933 0.0
C1246 C 0.67433 0.83477 0.27024 0.0
C1247 C 0.71334 0.85267 0.28224 0.0
C1248 C 0.69085 0.84282 0.26318 0.0
C1249 C 0.70036 0.84597 0.30276 0.0
O1250 O 0.68294 0.83561 0.35364 0.0
O1251 O 0.69059 0.82603 0.33523 0.0
C1252 C 0.69258 0.82849 0.34743 0.0
O1253 O 0.69867 0.86736 0.3361 0.0
O1254 O 0.63011 0.81802 0.35733 0.0
O1255 O 0.65143 0.84922 0.36351 0.0
O1256 O 0.67211 0.86819 0.34337 0.0
C1257 C 0.69113 0.87735 0.34154 0.0
O1258 O 0.65789 0.85098 0.3165 0.0
O1259 O 0.63497 0.83665 0.33073 0.0
O1260 O 0.64616 0.80457 0.33782 0.0
O1261 O 0.69941 0.86041 0.309 0.0
O1262 O 0.69139 0.82912 0.30776 0.0
O1263 O 0.65063 0.81189 0.31773 0.0
C1264 C 0.63697 0.82812 0.37902 0.0
C1265 C 0.631 0.83723 0.38806 0.0
C1266 C 0.64729 0.8136 0.39516 0.0
C1267 C 0.63347 0.83489 0.40058 0.0
C1268 C 0.64499 0.81613 0.3826 0.0
C1269 C 0.64189 0.82329 0.40427 0.0
C1270 C 0.63609 0.83268 0.36614 0.0
C1271 C 0.64034 0.84563 0.32056 0.0
H1272 H 0.66443 0.8296 0.28847 0.0
H1273 H 0.72338 0.8579 0.26414 0.0
H1274 H 0.65912 0.82796 0.26577 0.0
H1275 H 0.72852 0.85961 0.28678 0.0
H1276 H 0.62486 0.8466 0.38545 0.0
H1277 H 0.65395 0.80471 0.3978 0.0
H1278 H 0.62901 0.84236 0.40741 0.0
H1279 H 0.6499 0.80916 0.37573 0.0
Eu1280 Eu 0.17427 0.82723 0.34685 0.0
Eu1281 Eu 0.15303 0.83191 0.32089 0.0
C1282 C 0.1799 0.8691 0.34089 0.0
C1283 C 0.18447 0.82262 0.38084 0.0
C1284 C 0.19975 0.83417 0.39047 0.0
C1285 C 0.16008 0.81096 0.39601 0.0
C1286 C 0.19523 0.83422 0.40277 0.0
C1287 C 0.16456 0.81109 0.3837 0.0
C1288 C 0.17536 0.82255 0.40566 0.0
C1289 C 0.18942 0.82302 0.36789 0.0
O1290 O 0.17984 0.82977 0.3156 0.0
O1291 O 0.19916 0.8406 0.33441 0.0
C1292 C 0.19732 0.83721 0.32224 0.0
O1293 O 0.16382 0.79942 0.33368 0.0
O1294 O 0.14528 0.84952 0.30902 0.0
O1295 O 0.13732 0.81923 0.30239 0.0
O1296 O 0.13664 0.79944 0.3243 0.0
C1297 C 0.14586 0.78978 0.32756 0.0
O1298 O 0.14249 0.81745 0.35066 0.0
O1299 O 0.13247 0.83088 0.3352 0.0
O1300 O 0.17733 0.86269 0.32909 0.0
O1301 O 0.17646 0.808 0.35998 0.0
O1302 O 0.19631 0.8402 0.36328 0.0
O1303 O 0.17446 0.85643 0.34933 0.0
C1304 C 0.14778 0.84274 0.28791 0.0
C1305 C 0.16764 0.84733 0.2869 0.0
C1306 C 0.14435 0.84749 0.26615 0.0
C1307 C 0.17564 0.85142 0.27551 0.0
C1308 C 0.13627 0.84316 0.27754 0.0
C1309 C 0.16395 0.85119 0.26497 0.0
C1310 C 0.1387 0.83597 0.29947 0.0
C1311 C 0.12988 0.82255 0.34569 0.0
H1312 H 0.21518 0.84321 0.38846 0.0
H1313 H 0.1446 0.80204 0.39796 0.0
H1314 H 0.2073 0.84321 0.41005 0.0
H1315 H 0.15241 0.80223 0.37644 0.0
H1316 H 0.17676 0.84719 0.29484 0.0
H1317 H 0.13499 0.84709 0.25815 0.0
H1318 H 0.19085 0.85442 0.27489 0.0
H1319 H 0.12089 0.83959 0.27817 0.0
Eu1320 Eu 0.82988 0.65153 0.65509 0.0
Eu1321 Eu 0.84583 0.68111 0.68155 0.0
C1322 C 0.82317 0.68858 0.65864 0.0
C1323 C 0.82308 0.63748 0.62064 0.0
C1324 C 0.83411 0.65797 0.61908 0.0
C1325 C 0.82007 0.6295 0.5983 0.0
C1326 C 0.83795 0.66421 0.60722 0.0
C1327 C 0.81616 0.62327 0.6102 0.0
C1328 C 0.83089 0.65007 0.59666 0.0
C1329 C 0.81877 0.63111 0.63315 0.0
O1330 O 0.82021 0.6516 0.68552 0.0
O1331 O 0.80302 0.6413 0.6661 0.0
C1332 C 0.80345 0.64083 0.67822 0.0
O1333 O 0.83717 0.63467 0.66875 0.0
O1334 O 0.83985 0.69748 0.6962 0.0
O1335 O 0.86803 0.69767 0.69758 0.0
O1336 O 0.8606 0.66222 0.68165 0.0
C1337 C 0.85251 0.64323 0.67739 0.0
O1338 O 0.86304 0.67291 0.65507 0.0
O1339 O 0.86711 0.69955 0.66805 0.0
O1340 O 0.82406 0.68735 0.67065 0.0
O1341 O 0.83414 0.63369 0.64044 0.0
O1342 O 0.80782 0.63694 0.63884 0.0
O1343 O 0.83002 0.67982 0.65128 0.0
C1344 C 0.85271 0.69608 0.71599 0.0
C1345 C 0.84383 0.67577 0.718 0.0
C1346 C 0.85294 0.70464 0.73796 0.0
C1347 C 0.83945 0.66991 0.72989 0.0
C1348 C 0.85731 0.71049 0.72603 0.0
C1349 C 0.84385 0.68426 0.74002 0.0
C1350 C 0.85606 0.702 0.70333 0.0
C1351 C 0.87329 0.69202 0.65929 0.0
H1352 H 0.83969 0.66917 0.62706 0.0
H1353 H 0.81427 0.61824 0.59036 0.0
H1354 H 0.84658 0.68013 0.60632 0.0
H1355 H 0.80763 0.60739 0.61124 0.0
H1356 H 0.84 0.66441 0.71031 0.0
H1357 H 0.85672 0.71609 0.74557 0.0
H1358 H 0.83218 0.65408 0.73109 0.0
H1359 H 0.86409 0.72623 0.72462 0.0
Eu1360 Eu 0.35013 0.17884 0.65648 0.0
Eu1361 Eu 0.32244 0.16901 0.67996 0.0
C1362 C 0.31353 0.13517 0.65806 0.0
C1363 C 0.36757 0.18502 0.62402 0.0
C1364 C 0.34792 0.17411 0.61809 0.0
C1365 C 0.38039 0.19313 0.60402 0.0
C1366 C 0.34453 0.17261 0.60516 0.0
C1367 C 0.38376 0.19456 0.61694 0.0
C1368 C 0.36074 0.1821 0.59799 0.0
C1369 C 0.37137 0.18663 0.63756 0.0
O1370 O 0.35061 0.17012 0.68806 0.0
O1371 O 0.36223 0.16516 0.66982 0.0
C1372 C 0.36245 0.16575 0.68199 0.0
O1373 O 0.3682 0.20375 0.67163 0.0
O1374 O 0.30107 0.14786 0.69145 0.0
O1375 O 0.31069 0.17939 0.69476 0.0
O1376 O 0.34155 0.20268 0.68033 0.0
C1377 C 0.36054 0.21245 0.67832 0.0
O1378 O 0.32867 0.19023 0.65253 0.0
O1379 O 0.30327 0.16941 0.6636 0.0
O1380 O 0.31592 0.13954 0.67015 0.0
O1381 O 0.36862 0.19988 0.64382 0.0
O1382 O 0.364 0.16971 0.64252 0.0
O1383 O 0.32199 0.14929 0.65066 0.0
C1384 C 0.30378 0.16115 0.71225 0.0
C1385 C 0.29811 0.17183 0.72039 0.0
C1386 C 0.31506 0.15012 0.72999 0.0
C1387 C 0.30104 0.17183 0.73323 0.0
C1388 C 0.31232 0.1503 0.71714 0.0
C1389 C 0.30955 0.16098 0.73815 0.0
C1390 C 0.3009 0.16179 0.69876 0.0
C1391 C 0.30986 0.18177 0.65499 0.0
H1392 H 0.33523 0.16677 0.62347 0.0
H1393 H 0.39319 0.20041 0.59874 0.0
H1394 H 0.32922 0.1642 0.60078 0.0
H1395 H 0.39902 0.20304 0.62141 0.0
H1396 H 0.29149 0.18027 0.7168 0.0
H1397 H 0.32184 0.14181 0.73356 0.0
H1398 H 0.29651 0.18019 0.73931 0.0
H1399 H 0.317 0.14206 0.71107 0.0
Eu1400 Eu 0.8401 0.15432 0.67908 0.0
Eu1401 Eu 0.81833 0.1589 0.65328 0.0
C1402 C 0.84494 0.19616 0.67345 0.0
C1403 C 0.85166 0.15122 0.71302 0.0
C1404 C 0.8414 0.16107 0.71679 0.0
C1405 C 0.8529 0.14205 0.73395 0.0
C1406 C 0.83703 0.16152 0.7291 0.0
C1407 C 0.85738 0.14173 0.72165 0.0
C1408 C 0.84266 0.15195 0.7378 0.0
C1409 C 0.85548 0.14989 0.69997 0.0
O1410 O 0.84568 0.15816 0.64766 0.0
O1411 O 0.86484 0.16808 0.66655 0.0
C1412 C 0.86311 0.16543 0.65434 0.0
O1413 O 0.83046 0.12693 0.6657 0.0
O1414 O 0.8101 0.17593 0.6412 0.0
O1415 O 0.80128 0.14513 0.63523 0.0
O1416 O 0.80277 0.12647 0.65684 0.0
C1417 C 0.81244 0.11708 0.65968 0.0
O1418 O 0.80838 0.14464 0.68307 0.0
O1419 O 0.79816 0.1581 0.66775 0.0
O1420 O 0.84195 0.18993 0.66157 0.0
O1421 O 0.84083 0.13504 0.69275 0.0
O1422 O 0.86338 0.16663 0.69478 0.0
O1423 O 0.84025 0.18347 0.68186 0.0
C1424 C 0.80876 0.16687 0.61976 0.0
C1425 C 0.79428 0.1607 0.60954 0.0
C1426 C 0.83503 0.17896 0.60583 0.0
C1427 C 0.80005 0.16326 0.59752 0.0
C1428 C 0.82921 0.17626 0.61788 0.0
C1429 C 0.82045 0.17207 0.59552 0.0
C1430 C 0.80218 0.16155 0.63208 0.0
C1431 C 0.79572 0.14976 0.67822 0.0
H1432 H 0.8366 0.16824 0.71019 0.0
H1433 H 0.85759 0.13471 0.74047 0.0
H1434 H 0.82892 0.16904 0.73175 0.0
H1435 H 0.86518 0.13394 0.71886 0.0
H1436 H 0.77844 0.15332 0.61083 0.0
H1437 H 0.85083 0.18564 0.60455 0.0
H1438 H 0.78852 0.15799 0.58975 0.0
H1439 H 0.84059 0.18089 0.62568 0.0
C1440 C 0.30593 0.87293 0.05316 0.0
C1441 C 0.30192 0.88387 0.06232 0.0
C1442 C 0.3232 0.88236 0.047 0.0
C1443 C 0.37449 0.92145 0.05147 0.0
H1444 H 0.37284 0.92224 0.01569 0.0
C1445 C 0.44636 0.96866 0.02841 0.0
C1446 C 0.44817 0.96211 0.01644 0.0
C1447 C 0.42828 0.95867 0.03368 0.0
C1448 C 0.37365 0.92185 0.02567 0.0
H1449 H 0.313 0.91362 0.07184 0.0
H1450 H 0.34367 0.92972 0.0615 0.0
H1451 H 0.34149 0.90562 0.02536 0.0
H1452 H 0.43256 0.93975 0.00064 0.0
H1453 H 0.40117 0.92157 0.01007 0.0
H1454 H 0.40642 0.93673 0.05194 0.0
C1455 C 0.33318 0.91385 0.05909 0.0
C1456 C 0.35566 0.91248 0.03118 0.0
C1457 C 0.31568 0.90455 0.06507 0.0
C1458 C 0.43156 0.94516 0.00988 0.0
C1459 C 0.41352 0.93486 0.01527 0.0
C1460 C 0.39245 0.9304 0.04597 0.0
C1461 C 0.33708 0.90281 0.05004 0.0
C1462 C 0.35598 0.91244 0.04413 0.0
C1463 C 0.4116 0.94154 0.02723 0.0
C1464 C 0.39233 0.931 0.03299 0.0
H1465 H 0.29606 0.85693 0.05095 0.0
H1466 H 0.32605 0.87354 0.04012 0.0
H1467 H 0.37505 0.9213 0.06148 0.0
H1468 H 0.45879 0.98187 0.03365 0.0
H1469 H 0.42737 0.9647 0.04274 0.0
C1470 C 0.13215 0.43588 0.06527 0.0
C1471 C 0.1528 0.44778 0.06409 0.0
C1472 C 0.11843 0.44116 0.06035 0.0
C1473 C 0.11546 0.48423 0.04905 0.0
H1474 H 0.06339 0.44262 0.03331 0.0
C1475 C 0.06243 0.50099 0.01865 0.0
C1476 C 0.04189 0.49047 0.02039 0.0
C1477 C 0.07578 0.49599 0.02449 0.0
C1478 C 0.0778 0.45439 0.03779 0.0
H1479 H 0.17515 0.47479 0.05692 0.0
H1480 H 0.15123 0.48357 0.04797 0.0
H1481 H 0.08702 0.43342 0.04239 0.0
H1482 H 0.01933 0.46647 0.0297 0.0
H1483 H 0.04267 0.4577 0.03981 0.0
H1484 H 0.10631 0.5052 0.0442 0.0
C1485 C 0.14563 0.47031 0.05288 0.0
C1486 C 0.09135 0.44913 0.04303 0.0
C1487 C 0.15935 0.4651 0.05787 0.0
C1488 C 0.03504 0.47489 0.02815 0.0
C1489 C 0.04838 0.46977 0.03389 0.0
C1490 C 0.10197 0.48949 0.04373 0.0
C1491 C 0.12499 0.45843 0.05407 0.0
C1492 C 0.11039 0.46399 0.04869 0.0
C1493 C 0.06888 0.48025 0.03211 0.0
C1494 C 0.08302 0.47463 0.03802 0.0
H1495 H 0.1265 0.42231 0.06988 0.0
H1496 H 0.10269 0.43177 0.06157 0.0
H1497 H 0.12982 0.49606 0.05354 0.0
H1498 H 0.06823 0.51309 0.01275 0.0
H1499 H 0.09146 0.50422 0.02284 0.0
C1500 C 0.57988 0.70239 0.05474 0.0
C1501 C 0.58843 0.7178 0.04693 0.0
C1502 C 0.5713 0.68235 0.04997 0.0
C1503 C 0.57035 0.64953 0.02339 0.0
H1504 H 0.52093 0.61029 0.03555 0.0
C1505 C 0.52557 0.56613 0.00293 0.0
C1506 C 0.51886 0.55197 0.01165 0.0
C1507 C 0.53372 0.58654 0.00674 0.0
C1508 C 0.53481 0.62106 0.03213 0.0
H1509 H 0.59494 0.7242 0.02801 0.0
H1510 H 0.57953 0.68908 0.01961 0.0
H1511 H 0.53593 0.64565 0.04306 0.0
H1512 H 0.51533 0.54814 0.03119 0.0
H1513 H 0.52952 0.58368 0.0378 0.0
H1514 H 0.56913 0.62482 0.01244 0.0
C1515 C 0.57967 0.69257 0.02946 0.0
C1516 C 0.54343 0.64131 0.03645 0.0
C1517 C 0.58831 0.71267 0.03424 0.0
C1518 C 0.52033 0.55864 0.02423 0.0
C1519 C 0.52836 0.57899 0.02802 0.0
C1520 C 0.56166 0.62925 0.01903 0.0
C1521 C 0.57096 0.67717 0.03727 0.0
C1522 C 0.56142 0.65576 0.03224 0.0
C1523 C 0.53517 0.59316 0.01933 0.0
C1524 C 0.54392 0.61479 0.02346 0.0
H1525 H 0.57947 0.70578 0.06453 0.0
H1526 H 0.56498 0.67088 0.05628 0.0
H1527 H 0.58432 0.66026 0.02006 0.0
H1528 H 0.52465 0.56149 0.99316 0.0
H1529 H 0.5387 0.59711 0.99983 0.0
C1530 C 0.85919 0.28765 0.9578 0.0
C1531 C 0.85581 0.282 0.94491 0.0
C1532 C 0.87293 0.3074 0.96262 0.0
C1533 C 0.90067 0.35916 0.95303 0.0
H1534 H 0.93018 0.37073 0.98557 0.0
C1535 C 0.9655 0.43798 0.97351 0.0
C1536 C 0.96263 0.44462 0.98516 0.0
C1537 C 0.95292 0.41811 0.9684 0.0
C1538 C 0.92198 0.36765 0.97648 0.0
H1539 H 0.86463 0.29296 0.92702 0.0
H1540 H 0.88941 0.32683 0.93544 0.0
H1541 H 0.90807 0.33594 0.97694 0.0
H1542 H 0.94462 0.4357 0.00069 0.0
H1543 H 0.92299 0.40081 0.99187 0.0
H1544 H 0.91525 0.39104 0.95252 0.0
C1545 C 0.88097 0.31619 0.94184 0.0
C1546 C 0.9092 0.34774 0.97155 0.0
C1547 C 0.86696 0.29655 0.93701 0.0
C1548 C 0.9471 0.43102 0.99166 0.0
C1549 C 0.93482 0.41107 0.98667 0.0
C1550 C 0.91377 0.37905 0.95787 0.0
C1551 C 0.88397 0.32198 0.9547 0.0
C1552 C 0.8982 0.3432 0.9598 0.0
C1553 C 0.93759 0.40448 0.97499 0.0
C1554 C 0.92436 0.38344 0.96968 0.0
H1555 H 0.85119 0.27684 0.96422 0.0
H1556 H 0.87457 0.31125 0.97255 0.0
H1557 H 0.8922 0.35638 0.94409 0.0
H1558 H 0.97732 0.44818 0.96829 0.0
H1559 H 0.95532 0.41331 0.95938 0.0
C1560 C 0.69344 0.55935 0.9488 0.0
C1561 C 0.69352 0.55561 0.93595 0.0
C1562 C 0.67552 0.55439 0.95389 0.0
C1563 C 0.62053 0.52124 0.94759 0.0
H1564 H 0.61957 0.55507 0.97518 0.0
C1565 C 0.54732 0.50445 0.96915 0.0
C1566 C 0.54863 0.50704 0.98221 0.0
C1567 C 0.56467 0.51081 0.96306 0.0
C1568 C 0.61963 0.54537 0.96754 0.0
H1569 H 0.67479 0.54402 0.91835 0.0
H1570 H 0.64351 0.53571 0.92722 0.0
H1571 H 0.65035 0.56594 0.9652 0.0
H1572 H 0.5693 0.51829 0.99906 0.0
H1573 H 0.59944 0.52922 0.98844 0.0
H1574 H 0.5898 0.50064 0.94999 0.0
C1575 C 0.65731 0.54224 0.93338 0.0
C1576 C 0.63728 0.55161 0.96182 0.0
C1577 C 0.67528 0.54721 0.92827 0.0
C1578 C 0.56769 0.51607 0.98901 0.0
C1579 C 0.58502 0.52248 0.98291 0.0
C1580 C 0.60285 0.51503 0.9533 0.0
C1581 C 0.65719 0.54561 0.94627 0.0
C1582 C 0.63803 0.53952 0.95186 0.0
C1583 C 0.58374 0.51999 0.96986 0.0
C1584 C 0.60226 0.52693 0.96344 0.0
H1585 H 0.70725 0.56605 0.95496 0.0
H1586 H 0.676 0.55703 0.96387 0.0
H1587 H 0.62064 0.51142 0.94006 0.0
H1588 H 0.53291 0.49765 0.9636 0.0
H1589 H 0.56318 0.50884 0.95299 0.0
C1590 C 0.40437 0.09566 0.93349 0.0
C1591 C 0.39402 0.10262 0.94066 0.0
C1592 C 0.41355 0.08584 0.93886 0.0
C1593 C 0.43501 0.08222 0.96901 0.0
H1594 H 0.43294 0.03538 0.95215 0.0
C1595 C 0.46791 0.03837 0.99266 0.0
C1596 C 0.47768 0.03089 0.98536 0.0
C1597 C 0.45755 0.04699 0.98719 0.0
C1598 C 0.43388 0.04861 0.95691 0.0
H1599 H 0.38439 0.10384 0.95893 0.0
H1600 H 0.40056 0.08682 0.96832 0.0
H1601 H 0.41432 0.04988 0.94254 0.0
H1602 H 0.48457 0.02695 0.96663 0.0
H1603 H 0.46686 0.04237 0.95715 0.0
H1604 H 0.45477 0.0812 0.98329 0.0
C1605 C 0.4018 0.08925 0.95859 0.0
C1606 C 0.42315 0.05685 0.95142 0.0
C1607 C 0.39255 0.09898 0.95321 0.0
C1608 C 0.47715 0.03252 0.97251 0.0
C1609 C 0.46686 0.04122 0.96706 0.0
C1610 C 0.44581 0.07405 0.97447 0.0
C1611 C 0.41264 0.08283 0.95151 0.0
C1612 C 0.42361 0.07374 0.95742 0.0
C1613 C 0.4568 0.0484 0.97432 0.0
C1614 C 0.44538 0.05715 0.96848 0.0
H1615 H 0.40605 0.09847 0.92384 0.0
H1616 H 0.42197 0.08124 0.93321 0.0
H1617 H 0.43592 0.09545 0.97375 0.0
H1618 H 0.46792 0.03726 0.00257 0.0
H1619 H 0.44975 0.05214 0.99304 0.0
C1620 C 0.68667 0.13504 0.94129 0.0
C1621 C 0.69464 0.12474 0.93477 0.0
C1622 C 0.67009 0.12475 0.94792 0.0
C1623 C 0.64204 0.07723 0.96212 0.0
H1624 H 0.6005 0.09164 0.9625 0.0
C1625 C 0.56529 0.02691 0.97952 0.0
C1626 C 0.55701 0.03603 0.98688 0.0
C1627 C 0.58271 0.03852 0.97391 0.0
C1628 C 0.61212 0.08763 0.96262 0.0
H1629 H 0.69117 0.09542 0.92999 0.0
H1630 H 0.66187 0.07737 0.94123 0.0
H1631 H 0.62918 0.11002 0.95076 0.0
H1632 H 0.56071 0.06457 0.9942 0.0
H1633 H 0.59127 0.08494 0.9843 0.0
H1634 H 0.62477 0.0546 0.97378 0.0
C1635 C 0.66871 0.0935 0.94143 0.0
C1636 C 0.62855 0.09814 0.95589 0.0
C1637 C 0.68534 0.10381 0.93483 0.0
C1638 C 0.56672 0.05709 0.98861 0.0
C1639 C 0.58413 0.06874 0.98288 0.0
C1640 C 0.62558 0.06667 0.96879 0.0
C1641 C 0.66098 0.10387 0.94815 0.0
C1642 C 0.64365 0.09296 0.95548 0.0
C1643 C 0.59226 0.05954 0.97545 0.0
C1644 C 0.61035 0.07164 0.96902 0.0
H1645 H 0.69327 0.15112 0.9413 0.0
H1646 H 0.66466 0.13325 0.95306 0.0
H1647 H 0.65359 0.07312 0.96225 0.0
H1648 H 0.55824 0.01073 0.97798 0.0
H1649 H 0.58845 0.03098 0.96812 0.0
C1650 C 0.86296 0.54978 0.92448 0.0
C1651 C 0.85339 0.55824 0.93114 0.0
C1652 C 0.87587 0.54459 0.93069 0.0
C1653 C 0.90673 0.55481 0.96061 0.0
H1654 H 0.90615 0.50586 0.94935 0.0
C1655 C 0.94994 0.52445 0.98876 0.0
C1656 C 0.96046 0.51709 0.98211 0.0
C1657 C 0.9368 0.5293 0.9825 0.0
C1658 C 0.90663 0.51968 0.95253 0.0
H1659 H 0.85 0.56793 0.9496 0.0
H1660 H 0.87213 0.55842 0.96045 0.0
H1661 H 0.88321 0.51452 0.9386 0.0
H1662 H 0.96528 0.50896 0.96363 0.0
H1663 H 0.94236 0.51749 0.95272 0.0
H1664 H 0.93007 0.5599 0.97458 0.0
C1665 C 0.86985 0.55604 0.9504 0.0
C1666 C 0.8935 0.52466 0.94636 0.0
C1667 C 0.85696 0.56127 0.94418 0.0
C1668 C 0.95742 0.51457 0.96905 0.0
C1669 C 0.9442 0.51936 0.96279 0.0
C1670 C 0.91981 0.5498 0.96679 0.0
C1671 C 0.8795 0.54768 0.94373 0.0
C1672 C 0.89339 0.54229 0.95032 0.0
C1673 C 0.93379 0.52685 0.96945 0.0
C1674 C 0.91991 0.53218 0.96282 0.0
H1675 H 0.86036 0.54701 0.91444 0.0
H1676 H 0.8832 0.53837 0.92524 0.0
H1677 H 0.9073 0.56868 0.96378 0.0
H1678 H 0.95186 0.52654 0.99882 0.0
H1679 H 0.92881 0.53479 0.9879 0.0
C1680 C 0.38942 0.27274 0.95888 0.0
C1681 C 0.40003 0.26242 0.96034 0.0
C1682 C 0.39787 0.29268 0.96391 0.0
C1683 C 0.44713 0.33747 0.97366 0.0
H1684 H 0.41542 0.35841 0.98787 0.0
C1685 C 0.48227 0.41995 0.99451 0.0
C1686 C 0.4716 0.42971 0.99137 0.0
C1687 C 0.47353 0.39923 0.99164 0.0
C1688 C 0.42443 0.35279 0.98384 0.0
H1689 H 0.42768 0.26486 0.96848 0.0
H1690 H 0.4422 0.29948 0.9775 0.0
H1691 H 0.3999 0.32252 0.98155 0.0
H1692 H 0.44336 0.42537 0.98276 0.0
H1693 H 0.42824 0.38932 0.97767 0.0
H1694 H 0.47159 0.36775 0.97582 0.0
C1695 C 0.42745 0.29223 0.97231 0.0
C1696 C 0.41555 0.33225 0.98023 0.0
C1697 C 0.41901 0.2723 0.96728 0.0
C1698 C 0.45199 0.41832 0.98533 0.0
C1699 C 0.44325 0.39762 0.98249 0.0
C1700 C 0.45601 0.358 0.97729 0.0
C1701 C 0.41712 0.30275 0.97052 0.0
C1702 C 0.42675 0.32438 0.975 0.0
C1703 C 0.45392 0.38785 0.9856 0.0
C1704 C 0.44472 0.36591 0.98231 0.0
H1705 H 0.37468 0.26548 0.9537 0.0
H1706 H 0.38958 0.3004 0.96228 0.0
H1707 H 0.4561 0.33195 0.96947 0.0
H1708 H 0.49738 0.42828 0.99921 0.0
H1709 H 0.48205 0.39208 0.99426 0.0
C1710 C 0.12317 0.717 0.06072 0.0
C1711 C 0.14202 0.72743 0.05609 0.0
C1712 C 0.10949 0.69707 0.05619 0.0
C1713 C 0.09428 0.66056 0.0293 0.0
H1714 H 0.07576 0.61997 0.05236 0.0
C1715 C 0.05374 0.57694 0.01165 0.0
C1716 C 0.03843 0.56318 0.01818 0.0
C1717 C 0.06571 0.59694 0.01655 0.0
C1718 C 0.08044 0.6311 0.0458 0.0
H1719 H 0.16104 0.72479 0.04296 0.0
H1720 H 0.13674 0.69042 0.0347 0.0
H1721 H 0.09714 0.65529 0.06022 0.0
H1722 H 0.0236 0.55949 0.03498 0.0
H1723 H 0.04399 0.59466 0.04337 0.0
H1724 H 0.07731 0.63673 0.01488 0.0
C1725 C 0.13273 0.69775 0.0419 0.0
C1726 C 0.09275 0.6513 0.05032 0.0
C1727 C 0.14657 0.71751 0.04659 0.0
C1728 C 0.0354 0.56977 0.02979 0.0
C1729 C 0.04716 0.58993 0.0346 0.0
C1730 C 0.08168 0.64043 0.02479 0.0
C1731 C 0.11418 0.68731 0.04675 0.0
C1732 C 0.1 0.66614 0.04208 0.0
C1733 C 0.06241 0.60381 0.028 0.0
C1734 C 0.07487 0.62537 0.03295 0.0
H1735 H 0.11891 0.72419 0.06784 0.0
H1736 H 0.09516 0.68933 0.05998 0.0
H1737 H 0.09953 0.6718 0.0228 0.0
H1738 H 0.05659 0.57222 0.00274 0.0
H1739 H 0.07764 0.60696 0.01134 0.0
C1740 C 0.32346 0.44035 0.07716 0.0
C1741 C 0.30468 0.43396 0.07049 0.0
C1742 C 0.34049 0.44546 0.07093 0.0
C1743 C 0.36171 0.46342 0.0419 0.0
H1744 H 0.39694 0.44261 0.0504 0.0
C1745 C 0.42719 0.47618 0.01311 0.0
C1746 C 0.44478 0.47844 0.01939 0.0
C1747 C 0.41011 0.47086 0.01933 0.0
C1748 C 0.38749 0.44886 0.04802 0.0
H1749 H 0.28917 0.42738 0.05191 0.0
H1750 H 0.31899 0.43688 0.04114 0.0
H1751 H 0.36735 0.43317 0.0614 0.0
H1752 H 0.45848 0.47755 0.03724 0.0
H1753 H 0.42909 0.46905 0.04818 0.0
H1754 H 0.382 0.47955 0.02876 0.0
C1755 C 0.32048 0.43803 0.0512 0.0
C1756 C 0.37046 0.44334 0.05431 0.0
C1757 C 0.30341 0.43266 0.05741 0.0
C1758 C 0.44508 0.47569 0.03209 0.0
C1759 C 0.42813 0.47067 0.03835 0.0
C1760 C 0.37889 0.46918 0.03572 0.0
C1761 C 0.3392 0.44454 0.05789 0.0
C1762 C 0.35736 0.4505 0.05128 0.0
C1763 C 0.41031 0.46795 0.03204 0.0
C1764 C 0.39202 0.46194 0.03867 0.0
H1765 H 0.32516 0.44187 0.08722 0.0
H1766 H 0.35479 0.4506 0.07632 0.0
H1767 H 0.35199 0.46936 0.03948 0.0
H1768 H 0.42644 0.47806 0.0033 0.0
H1769 H 0.39663 0.46863 0.01409 0.0
C1770 C 0.59784 0.88146 0.04395 0.0
C1771 C 0.60121 0.88244 0.05696 0.0
C1772 C 0.58875 0.89141 0.03865 0.0
C1773 C 0.58036 0.93341 0.04418 0.0
H1774 H 0.53238 0.90279 0.02102 0.0
C1775 C 0.53262 0.96767 0.02846 0.0
C1776 C 0.52372 0.96279 0.01613 0.0
C1777 C 0.54166 0.95739 0.03329 0.0
C1778 C 0.54594 0.91167 0.02731 0.0
H1779 H 0.59766 0.89488 0.07453 0.0
H1780 H 0.58263 0.91289 0.0652 0.0
H1781 H 0.55002 0.88644 0.02938 0.0
H1782 H 0.51711 0.94325 0.99919 0.0
H1783 H 0.53358 0.92576 0.00744 0.0
H1784 H 0.57684 0.95879 0.04193 0.0
C1785 C 0.58697 0.90429 0.05917 0.0
C1786 C 0.55597 0.90226 0.03211 0.0
C1787 C 0.59573 0.89407 0.06449 0.0
C1788 C 0.52374 0.94721 0.00877 0.0
C1789 C 0.53313 0.93715 0.01353 0.0
C1790 C 0.57056 0.94292 0.03923 0.0
C1791 C 0.5832 0.90285 0.04622 0.0
C1792 C 0.57314 0.91301 0.04068 0.0
C1793 C 0.54239 0.94225 0.02583 0.0
C1794 C 0.55307 0.93213 0.03083 0.0
H1795 H 0.60221 0.873 0.03783 0.0
H1796 H 0.58617 0.89028 0.02862 0.0
H1797 H 0.59372 0.94205 0.05068 0.0
H1798 H 0.53259 0.97946 0.0344 0.0
H1799 H 0.5481 0.96138 0.0429 0.0
C1800 C 0.98761 0.23322 0.40183 0.0
C1801 C 0.97591 0.21218 0.40013 0.0
C1802 C 0.00481 0.24327 0.39566 0.0
C1803 C 0.04169 0.23586 0.37904 0.0
H1804 H 0.05109 0.28426 0.36476 0.0
C1805 C 0.10382 0.27615 0.34635 0.0
C1806 C 0.11538 0.29713 0.34891 0.0
C1807 C 0.08648 0.26518 0.35229 0.0
C1808 C 0.04874 0.27083 0.36876 0.0
H1809 H 0.97356 0.18518 0.39101 0.0
H1810 H 0.00323 0.20271 0.38005 0.0
H1811 H 0.02196 0.26656 0.37618 0.0
H1812 H 0.11772 0.323 0.35972 0.0
H1813 H 0.08772 0.30395 0.36997 0.0
H1814 H 0.06851 0.24019 0.37155 0.0
C1815 C 0.99923 0.21146 0.3862 0.0
C1816 C 0.0321 0.26073 0.37535 0.0
C1817 C 0.98208 0.20142 0.39238 0.0
C1818 C 0.10917 0.30687 0.35745 0.0
C1819 C 0.09187 0.29596 0.36331 0.0
C1820 C 0.05833 0.24595 0.3724 0.0
C1821 C 0.0107 0.23252 0.38766 0.0
C1822 C 0.02844 0.2432 0.38065 0.0
C1823 C 0.08033 0.27502 0.36082 0.0
C1824 C 0.06211 0.26363 0.36728 0.0
H1825 H 0.98321 0.24194 0.40769 0.0
H1826 H 0.01348 0.2595 0.39714 0.0
H1827 H 0.03943 0.22252 0.38311 0.0
H1828 H 0.10822 0.2682 0.33984 0.0
H1829 H 0.07779 0.24904 0.35014 0.0
C1830 C 0.80832 0.79018 0.40764 0.0
C1831 C 0.81717 0.78227 0.3998 0.0
C1832 C 0.79383 0.79448 0.40274 0.0
C1833 C 0.75796 0.78276 0.37491 0.0
H1834 H 0.76024 0.83242 0.38658 0.0
C1835 C 0.71556 0.8143 0.34763 0.0
C1836 C 0.70596 0.82278 0.35425 0.0
C1837 C 0.72812 0.80876 0.35389 0.0
C1838 C 0.75923 0.81836 0.38334 0.0
H1839 H 0.8174 0.77236 0.38068 0.0
H1840 H 0.79251 0.78024 0.37213 0.0
H1841 H 0.78406 0.8238 0.39619 0.0
H1842 H 0.70208 0.83205 0.37269 0.0
H1843 H 0.72412 0.82233 0.38364 0.0
H1844 H 0.73335 0.77745 0.36195 0.0
C1845 C 0.7966 0.78294 0.38208 0.0
C1846 C 0.77288 0.81341 0.38885 0.0
C1847 C 0.81108 0.77866 0.38697 0.0
C1848 C 0.70927 0.82561 0.3673 0.0
C1849 C 0.72195 0.82011 0.37358 0.0
C1850 C 0.74437 0.78771 0.36941 0.0
C1851 C 0.7878 0.79092 0.38989 0.0
C1852 C 0.77258 0.79568 0.38458 0.0
C1853 C 0.73145 0.81155 0.36692 0.0
C1854 C 0.74501 0.8057 0.37343 0.0
H1855 H 0.81279 0.7933 0.41755 0.0
H1856 H 0.78724 0.80046 0.40903 0.0
H1857 H 0.75702 0.76878 0.37157 0.0
H1858 H 0.71344 0.81193 0.33758 0.0
H1859 H 0.73545 0.80252 0.34847 0.0
C1860 C 0.25641 0.04216 0.38732 0.0
C1861 C 0.26583 0.05751 0.37957 0.0
C1862 C 0.24733 0.02206 0.38258 0.0
C1863 C 0.24549 0.9882 0.35636 0.0
H1864 H 0.19451 0.95111 0.3679 0.0
C1865 C 0.1973 0.90486 0.33604 0.0
C1866 C 0.18937 0.89083 0.34477 0.0
C1867 C 0.20653 0.92541 0.33977 0.0
C1868 C 0.20881 0.96126 0.36466 0.0
H1869 H 0.27341 0.06372 0.36078 0.0
H1870 H 0.25712 0.02847 0.35241 0.0
H1871 H 0.21101 0.98664 0.37527 0.0
H1872 H 0.18488 0.88737 0.36424 0.0
H1873 H 0.20095 0.92318 0.37072 0.0
H1874 H 0.24317 0.96267 0.34573 0.0
C1875 C 0.25698 0.03207 0.3622 0.0
C1876 C 0.21829 0.98161 0.36889 0.0
C1877 C 0.26615 0.05225 0.36697 0.0
C1878 C 0.19079 0.89777 0.35728 0.0
C1879 C 0.1999 0.91829 0.36099 0.0
C1880 C 0.23594 0.9678 0.35209 0.0
C1881 C 0.24728 0.01676 0.36994 0.0
C1882 C 0.23686 0.99529 0.36492 0.0
C1883 C 0.20788 0.93233 0.35228 0.0
C1884 C 0.21762 0.9541 0.35632 0.0
H1885 H 0.2556 0.04562 0.39703 0.0
H1886 H 0.24027 0.01065 0.38884 0.0
H1887 H 0.25987 0.99832 0.35321 0.0
H1888 H 0.19646 0.9 0.32633 0.0
H1889 H 0.2124 0.93589 0.33285 0.0
C1890 C 0.53417 0.62822 0.27576 0.0
C1891 C 0.52719 0.61265 0.28353 0.0
C1892 C 0.54679 0.64811 0.2807 0.0
C1893 C 0.58111 0.67994 0.30828 0.0
H1894 H 0.57178 0.72046 0.29498 0.0
C1895 C 0.62189 0.76282 0.32979 0.0
C1896 C 0.62917 0.77741 0.32136 0.0
C1897 C 0.60941 0.74254 0.3255 0.0
C1898 C 0.57467 0.70934 0.29872 0.0
H1899 H 0.52838 0.60582 0.30257 0.0
H1900 H 0.55008 0.64069 0.31125 0.0
H1901 H 0.55017 0.68536 0.28697 0.0
H1902 H 0.62901 0.78213 0.30181 0.0
H1903 H 0.60724 0.7468 0.29438 0.0
H1904 H 0.60558 0.70405 0.32009 0.0
C1905 C 0.54594 0.63743 0.30131 0.0
C1906 C 0.56233 0.68923 0.29412 0.0
C1907 C 0.53334 0.61747 0.29635 0.0
C1908 C 0.62366 0.7713 0.30857 0.0
C1909 C 0.61109 0.75106 0.3043 0.0
C1910 C 0.59342 0.70009 0.31293 0.0
C1911 C 0.55267 0.65299 0.29354 0.0
C1912 C 0.56551 0.6743 0.29876 0.0
C1913 C 0.60383 0.73647 0.31272 0.0
C1914 C 0.59042 0.71501 0.30811 0.0
H1915 H 0.52953 0.62511 0.26587 0.0
H1916 H 0.55194 0.65969 0.27442 0.0
H1917 H 0.5841 0.66884 0.31196 0.0
H1918 H 0.62587 0.76703 0.3397 0.0
H1919 H 0.60389 0.73164 0.33221 0.0
C1920 C 0.3594 0.89098 0.28153 0.0
C1921 C 0.35919 0.8874 0.26862 0.0
C1922 C 0.34167 0.88621 0.28681 0.0
C1923 C 0.28656 0.85387 0.28102 0.0
H1924 H 0.28675 0.88861 0.30847 0.0
C1925 C 0.21406 0.83905 0.30276 0.0
C1926 C 0.2155 0.84244 0.31578 0.0
C1927 C 0.2313 0.84473 0.29665 0.0
C1928 C 0.28648 0.87863 0.30089 0.0
H1929 H 0.34012 0.87621 0.25115 0.0
H1930 H 0.30913 0.86813 0.26037 0.0
H1931 H 0.31724 0.89866 0.29833 0.0
H1932 H 0.23629 0.85426 0.33258 0.0
H1933 H 0.26624 0.86389 0.32195 0.0
H1934 H 0.25581 0.83378 0.28365 0.0
C1935 C 0.32303 0.87443 0.26641 0.0
C1936 C 0.30397 0.88441 0.29506 0.0
C1937 C 0.34083 0.87927 0.26111 0.0
C1938 C 0.23458 0.85144 0.32254 0.0
C1939 C 0.25181 0.85712 0.31644 0.0
C1940 C 0.26905 0.84808 0.28685 0.0
C1941 C 0.32323 0.87774 0.27935 0.0
C1942 C 0.30429 0.87203 0.28512 0.0
C1943 C 0.25041 0.85395 0.30341 0.0
C1944 C 0.26884 0.86032 0.29694 0.0
H1945 H 0.37332 0.89747 0.28758 0.0
H1946 H 0.34237 0.88879 0.29681 0.0
H1947 H 0.28635 0.84384 0.2735 0.0
H1948 H 0.19962 0.83215 0.29723 0.0
H1949 H 0.22968 0.84223 0.2866 0.0
C1950 C 0.0766 0.43632 0.26868 0.0
C1951 C 0.06847 0.44531 0.27629 0.0
C1952 C 0.08628 0.42684 0.27386 0.0
C1953 C 0.11541 0.42795 0.3015 0.0
H1954 H 0.09893 0.3729 0.29007 0.0
C1955 C 0.14884 0.38436 0.32534 0.0
C1956 C 0.15009 0.36951 0.318 0.0
C1957 C 0.13949 0.39426 0.32026 0.0
C1958 C 0.10405 0.38842 0.29322 0.0
H1959 H 0.06369 0.45072 0.29538 0.0
H1960 H 0.0814 0.4349 0.3044 0.0
H1961 H 0.08114 0.38858 0.28108 0.0
H1962 H 0.14378 0.35415 0.29948 0.0
H1963 H 0.12855 0.37211 0.29043 0.0
H1964 H 0.13879 0.42821 0.3133 0.0
C1965 C 0.08017 0.43525 0.29441 0.0
C1966 C 0.0937 0.39729 0.28813 0.0
C1967 C 0.07013 0.44439 0.28923 0.0
C1968 C 0.14275 0.36538 0.30538 0.0
C1969 C 0.13384 0.37556 0.30024 0.0
C1970 C 0.12606 0.41922 0.30643 0.0
C1971 C 0.08837 0.42647 0.28677 0.0
C1972 C 0.09926 0.41709 0.29225 0.0
C1973 C 0.1316 0.38977 0.30767 0.0
C1974 C 0.1205 0.3993 0.30236 0.0
H1975 H 0.07601 0.43703 0.25873 0.0
H1976 H 0.09263 0.42025 0.26781 0.0
H1977 H 0.12005 0.44334 0.30472 0.0
H1978 H 0.15428 0.38769 0.33513 0.0
H1979 H 0.13788 0.40492 0.32634 0.0
C1980 C 0.36183 0.46507 0.27939 0.0
C1981 C 0.36755 0.45494 0.27074 0.0
C1982 C 0.34448 0.45455 0.28533 0.0
C1983 C 0.29503 0.41143 0.28154 0.0
H1984 H 0.29821 0.41376 0.3175 0.0
C1985 C 0.22582 0.36133 0.30617 0.0
C1986 C 0.22358 0.3685 0.31784 0.0
C1987 C 0.24353 0.37199 0.30063 0.0
C1988 C 0.29693 0.41321 0.30747 0.0
H1989 H 0.35918 0.42558 0.26166 0.0
H1990 H 0.32832 0.40747 0.27161 0.0
H1991 H 0.32876 0.43233 0.30736 0.0
H1992 H 0.23801 0.39257 0.33281 0.0
H1993 H 0.26865 0.41183 0.32288 0.0
H1994 H 0.26327 0.39316 0.28148 0.0
C1995 C 0.33758 0.42357 0.27382 0.0
C1996 C 0.31448 0.42372 0.30169 0.0
C1997 C 0.35518 0.43401 0.26807 0.0
C1998 C 0.23939 0.38665 0.32384 0.0
C1999 C 0.25701 0.39759 0.31816 0.0
C2000 C 0.27743 0.40127 0.28731 0.0
C2001 C 0.3322 0.43376 0.28256 0.0
C2002 C 0.31366 0.42276 0.28868 0.0
C2003 C 0.25935 0.39038 0.30647 0.0
C2004 C 0.27812 0.40183 0.30036 0.0
H2005 H 0.37056 0.48121 0.28149 0.0
H2006 H 0.34045 0.46273 0.29194 0.0
H2007 H 0.29406 0.41071 0.27149 0.0
H2008 H 0.21399 0.34723 0.30138 0.0
H2009 H 0.24486 0.36559 0.29181 0.0
C2010 C 0.53251 0.8882 0.25622 0.0
C2011 C 0.52068 0.89369 0.26304 0.0
C2012 C 0.54542 0.88281 0.26224 0.0
C2013 C 0.55301 0.86237 0.29021 0.0
H2014 H 0.60868 0.88713 0.28332 0.0
C2015 C 0.61076 0.85085 0.31946 0.0
C2016 C 0.62627 0.85027 0.31362 0.0
C2017 C 0.59781 0.85583 0.31309 0.0
C2018 C 0.59311 0.87977 0.28521 0.0
H2019 H 0.51351 0.89797 0.28166 0.0
H2020 H 0.53553 0.88787 0.29205 0.0
H2021 H 0.58616 0.89622 0.2725 0.0
H2022 H 0.6401 0.85404 0.2964 0.0
H2023 H 0.61706 0.862 0.28512 0.0
H2024 H 0.55961 0.84549 0.30265 0.0
C2025 C 0.53473 0.88779 0.28203 0.0
C2026 C 0.58025 0.88509 0.27905 0.0
C2027 C 0.52204 0.89348 0.27604 0.0
C2028 C 0.62838 0.85452 0.3012 0.0
C2029 C 0.61522 0.85921 0.29475 0.0
C2030 C 0.56576 0.8568 0.29624 0.0
C2031 C 0.54659 0.88247 0.27519 0.0
C2032 C 0.56012 0.87655 0.28155 0.0
C2033 C 0.59982 0.86006 0.30064 0.0
C2034 C 0.58605 0.86554 0.2939 0.0
H2035 H 0.53162 0.88776 0.24619 0.0
H2036 H 0.55425 0.87856 0.25673 0.0
H2037 H 0.53748 0.85536 0.29219 0.0
H2038 H 0.60885 0.84785 0.32907 0.0
H2039 H 0.58645 0.85671 0.31805 0.0
C2040 C 0.08328 0.61142 0.30059 0.0
C2041 C 0.06419 0.60042 0.29382 0.0
C2042 C 0.09075 0.63133 0.30534 0.0
C2043 C 0.08574 0.67494 0.29955 0.0
H2044 H 0.11679 0.69725 0.33175 0.0
C2045 C 0.11603 0.75726 0.31847 0.0
C2046 C 0.13576 0.76782 0.32438 0.0
C2047 C 0.10642 0.73653 0.31543 0.0
C2048 C 0.10831 0.69127 0.32268 0.0
H2049 H 0.03761 0.60142 0.28723 0.0
H2050 H 0.05072 0.63627 0.29549 0.0
H2051 H 0.10109 0.6613 0.32552 0.0
H2052 H 0.16084 0.76488 0.33181 0.0
H2053 H 0.14415 0.72871 0.32632 0.0
H2054 H 0.0932 0.70487 0.29658 0.0
C2055 C 0.05999 0.62953 0.29696 0.0
C2056 C 0.09928 0.67069 0.31914 0.0
C2057 C 0.0525 0.6096 0.29223 0.0
C2058 C 0.14563 0.75718 0.32726 0.0
C2059 C 0.13602 0.73643 0.3242 0.0
C2060 C 0.09479 0.6955 0.30307 0.0
C2061 C 0.07932 0.6407 0.30339 0.0
C2062 C 0.088 0.66233 0.3075 0.0
C2063 C 0.11632 0.72588 0.31821 0.0
C2064 C 0.10627 0.70393 0.31465 0.0
H2065 H 0.09281 0.60491 0.30181 0.0
H2066 H 0.1058 0.63961 0.31011 0.0
H2067 H 0.07744 0.66901 0.29043 0.0
H2068 H 0.10794 0.76497 0.31619 0.0
H2069 H 0.09115 0.72881 0.31098 0.0
C2070 C 0.78953 0.05557 0.38225 0.0
C2071 C 0.81015 0.06363 0.38114 0.0
C2072 C 0.77561 0.03607 0.37706 0.0
C2073 C 0.76902 0.9952 0.35412 0.0
H2074 H 0.72895 0.9607 0.37479 0.0
C2075 C 0.72448 0.90911 0.3436 0.0
C2076 C 0.70401 0.89905 0.34548 0.0
C2077 C 0.73662 0.92961 0.34736 0.0
C2078 C 0.73985 0.9702 0.36883 0.0
H2079 H 0.83226 0.0575 0.37365 0.0
H2080 H 0.80803 0.02363 0.36456 0.0
H2081 H 0.75134 0.996 0.38213 0.0
H2082 H 0.6802 0.90267 0.35269 0.0
H2083 H 0.70138 0.93846 0.35914 0.0
H2084 H 0.75768 0.96934 0.34088 0.0
C2085 C 0.80257 0.03247 0.36928 0.0
C2086 C 0.75267 0.99043 0.37303 0.0
C2087 C 0.81647 0.05191 0.37448 0.0
C2088 C 0.69593 0.90995 0.35115 0.0
C2089 C 0.70808 0.93044 0.3549 0.0
C2090 C 0.75619 0.97497 0.34991 0.0
C2091 C 0.78202 0.02424 0.37063 0.0
C2092 C 0.76753 0.00311 0.36578 0.0
C2093 C 0.72857 0.9405 0.35307 0.0
C2094 C 0.7416 0.96219 0.35728 0.0
H2095 H 0.78415 0.06431 0.38718 0.0
H2096 H 0.75984 0.03023 0.37811 0.0
H2097 H 0.78013 0.00466 0.34824 0.0
H2098 H 0.73118 0.90115 0.33929 0.0
H2099 H 0.75242 0.93685 0.34597 0.0
C2100 C 0.99103 0.78005 0.41004 0.0
C2101 C 0.97217 0.7739 0.40359 0.0
C2102 C 0.00796 0.78551 0.40365 0.0
C2103 C 0.02329 0.78195 0.37196 0.0
H2104 H 0.07521 0.82469 0.38713 0.0
C2105 C 0.09487 0.81703 0.34583 0.0
C2106 C 0.112 0.81833 0.35218 0.0
C2107 C 0.07773 0.81209 0.35193 0.0
C2108 C 0.06081 0.81268 0.38281 0.0
H2109 H 0.95645 0.76831 0.38519 0.0
H2110 H 0.98599 0.77873 0.37415 0.0
H2111 H 0.04548 0.81505 0.39803 0.0
H2112 H 0.12472 0.81595 0.36999 0.0
H2113 H 0.09499 0.80773 0.38062 0.0
H2114 H 0.03876 0.78 0.3566 0.0
C2115 C 0.98769 0.77897 0.38416 0.0
C2116 C 0.04375 0.80703 0.38908 0.0
C2117 C 0.97073 0.77327 0.39054 0.0
C2118 C 0.11176 0.815 0.3648 0.0
C2119 C 0.09477 0.81039 0.37093 0.0
C2120 C 0.04033 0.7878 0.36562 0.0
C2121 C 0.00658 0.78521 0.39061 0.0
C2122 C 0.02475 0.79147 0.3838 0.0
C2123 C 0.07752 0.80872 0.36454 0.0
C2124 C 0.05929 0.80312 0.37102 0.0
H2125 H 0.99287 0.78097 0.42009 0.0
H2126 H 0.02212 0.78988 0.40896 0.0
H2127 H 0.00905 0.76968 0.36765 0.0
H2128 H 0.09456 0.81945 0.3361 0.0
H2129 H 0.06467 0.81102 0.3468 0.0
C2130 C 0.27445 0.23624 0.39381 0.0
C2131 C 0.26655 0.21557 0.39061 0.0
C2132 C 0.26533 0.24622 0.3886 0.0
C2133 C 0.21718 0.23621 0.37155 0.0
H2134 H 0.24886 0.29235 0.36623 0.0
C2135 C 0.18926 0.28039 0.34267 0.0
C2136 C 0.19106 0.29746 0.34937 0.0
C2137 C 0.19799 0.26998 0.34779 0.0
C2138 C 0.23989 0.27668 0.36773 0.0
H2139 H 0.2428 0.18935 0.37918 0.0
H2140 H 0.22792 0.20696 0.36948 0.0
H2141 H 0.26564 0.27507 0.37436 0.0
H2142 H 0.20337 0.31709 0.36662 0.0
H2143 H 0.21919 0.29917 0.37539 0.0
H2144 H 0.19155 0.23785 0.36435 0.0
C2145 C 0.24075 0.21538 0.37637 0.0
C2146 C 0.24943 0.26677 0.37246 0.0
C2147 C 0.2496 0.20531 0.38177 0.0
C2148 C 0.20166 0.30391 0.36129 0.0
C2149 C 0.21078 0.29377 0.36627 0.0
C2150 C 0.20773 0.24603 0.36656 0.0
C2151 C 0.24828 0.23591 0.37984 0.0
C2152 C 0.2382 0.24641 0.37452 0.0
C2153 C 0.20902 0.27677 0.35955 0.0
C2154 C 0.21901 0.26635 0.3647 0.0
H2155 H 0.28768 0.24478 0.4004 0.0
H2156 H 0.27148 0.26196 0.39167 0.0
H2157 H 0.20792 0.22069 0.37325 0.0
H2158 H 0.18111 0.27508 0.33348 0.0
H2159 H 0.19651 0.2569 0.34246 0.0
C2160 C 0.6402 0.55675 0.72039 0.0
C2161 C 0.64126 0.55401 0.73307 0.0
C2162 C 0.65764 0.56608 0.71437 0.0
C2163 C 0.71054 0.57787 0.71713 0.0
H2164 H 0.71608 0.61359 0.69208 0.0
C2165 C 0.78534 0.62695 0.69678 0.0
C2166 C 0.78462 0.62885 0.68396 0.0
C2167 C 0.76765 0.61702 0.70249 0.0
C2168 C 0.71464 0.60345 0.69894 0.0
H2169 H 0.6616 0.55936 0.74942 0.0
H2170 H 0.69209 0.57619 0.73902 0.0
H2171 H 0.6859 0.5989 0.70291 0.0
H2172 H 0.76472 0.62141 0.66704 0.0
H2173 H 0.73377 0.60399 0.67704 0.0
H2174 H 0.73941 0.58264 0.71324 0.0
C2175 C 0.67771 0.57075 0.73366 0.0
C2176 C 0.69735 0.59504 0.70517 0.0
C2177 C 0.66024 0.56135 0.73967 0.0
C2178 C 0.76579 0.6202 0.67693 0.0
C2179 C 0.74807 0.61036 0.68267 0.0
C2180 C 0.72786 0.58635 0.71094 0.0
C2181 C 0.67661 0.57302 0.7209 0.0
C2182 C 0.69509 0.58217 0.71436 0.0
C2183 C 0.74883 0.60883 0.69553 0.0
C2184 C 0.73012 0.59926 0.70179 0.0
H2185 H 0.62584 0.55152 0.71505 0.0
H2186 H 0.65619 0.56742 0.70453 0.0
H2187 H 0.70914 0.56772 0.72397 0.0
H2188 H 0.79957 0.63343 0.7025 0.0
H2189 H 0.76875 0.61626 0.71243 0.0
C2190 C 0.46709 0.1088 0.73604 0.0
C2191 C 0.48702 0.11856 0.73295 0.0
C2192 C 0.45346 0.11453 0.7316 0.0
C2193 C 0.45112 0.15581 0.71648 0.0
H2194 H 0.39496 0.11537 0.70837 0.0
C2195 C 0.39454 0.16509 0.68411 0.0
C2196 C 0.37665 0.16138 0.68898 0.0
C2197 C 0.40789 0.16065 0.69049 0.0
C2198 C 0.41058 0.12682 0.71071 0.0
H2199 H 0.50811 0.14232 0.72279 0.0
H2200 H 0.48418 0.1513 0.71442 0.0
H2201 H 0.41847 0.10582 0.71722 0.0
H2202 H 0.35864 0.15002 0.70431 0.0
H2203 H 0.38184 0.14157 0.7153 0.0
H2204 H 0.44319 0.17651 0.70928 0.0
C2205 C 0.47914 0.13961 0.72061 0.0
C2206 C 0.42409 0.12142 0.71585 0.0
C2207 C 0.49286 0.13415 0.72523 0.0
C2208 C 0.37236 0.15311 0.70038 0.0
C2209 C 0.38554 0.14821 0.70662 0.0
C2210 C 0.43769 0.16109 0.7111 0.0
C2211 C 0.45925 0.12996 0.72375 0.0
C2212 C 0.44461 0.13582 0.71873 0.0
C2213 C 0.40343 0.152 0.70173 0.0
C2214 C 0.41734 0.14663 0.70812 0.0
H2215 H 0.46184 0.09654 0.7418 0.0
H2216 H 0.43841 0.10689 0.73441 0.0
H2217 H 0.46663 0.16748 0.71884 0.0
H2218 H 0.39828 0.17154 0.67538 0.0
H2219 H 0.42155 0.1636 0.68652 0.0
C2220 C 0.91816 0.3686 0.72058 0.0
C2221 C 0.92707 0.38402 0.71282 0.0
C2222 C 0.90947 0.34855 0.71581 0.0
C2223 C 0.90812 0.31531 0.68934 0.0
H2224 H 0.85799 0.27703 0.70125 0.0
C2225 C 0.86131 0.232 0.66876 0.0
C2226 C 0.85401 0.21782 0.67744 0.0
C2227 C 0.87014 0.25248 0.67261 0.0
C2228 C 0.87206 0.28752 0.6979 0.0
H2229 H 0.93414 0.39043 0.69396 0.0
H2230 H 0.91851 0.35526 0.68555 0.0
H2231 H 0.87372 0.31246 0.70873 0.0
H2232 H 0.8502 0.21402 0.69696 0.0
H2233 H 0.86555 0.2497 0.70363 0.0
H2234 H 0.90631 0.29023 0.67846 0.0
C2235 C 0.91848 0.35877 0.69538 0.0
C2236 C 0.8811 0.30782 0.7022 0.0
C2237 C 0.92726 0.37889 0.70017 0.0
C2238 C 0.85564 0.22454 0.69003 0.0
C2239 C 0.86434 0.24498 0.69385 0.0
C2240 C 0.899 0.29497 0.68499 0.0
C2241 C 0.90932 0.34337 0.70314 0.0
C2242 C 0.89936 0.32193 0.69809 0.0
C2243 C 0.8717 0.25916 0.68519 0.0
C2244 C 0.88098 0.28085 0.68934 0.0
H2245 H 0.91747 0.37196 0.73032 0.0
H2246 H 0.90283 0.33708 0.72209 0.0
H2247 H 0.92227 0.32577 0.68608 0.0
H2248 H 0.86031 0.22732 0.65899 0.0
H2249 H 0.87553 0.26307 0.66571 0.0
C2250 C 0.20429 0.9654 0.60553 0.0
C2251 C 0.19609 0.95039 0.61364 0.0
C2252 C 0.21806 0.98523 0.61013 0.0
C2253 C 0.25283 0.01689 0.63767 0.0
H2254 H 0.24668 0.05883 0.62368 0.0
C2255 C 0.29291 0.09859 0.66059 0.0
C2256 C 0.30107 0.11398 0.65274 0.0
C2257 C 0.28096 0.07859 0.65562 0.0
C2258 C 0.24876 0.04731 0.62758 0.0
H2259 H 0.19636 0.94441 0.63293 0.0
H2260 H 0.22003 0.97915 0.64099 0.0
H2261 H 0.22433 0.02395 0.61545 0.0
H2262 H 0.30318 0.1204 0.63349 0.0
H2263 H 0.2823 0.08544 0.62483 0.0
H2264 H 0.2771 0.04032 0.64994 0.0
C2265 C 0.21598 0.97552 0.63105 0.0
C2266 C 0.23596 0.02732 0.62286 0.0
C2267 C 0.20223 0.95565 0.62644 0.0
C2268 C 0.29709 0.10892 0.6398 0.0
C2269 C 0.28505 0.0889 0.63484 0.0
C2270 C 0.26559 0.0369 0.64243 0.0
C2271 C 0.22391 0.99057 0.62295 0.0
C2272 C 0.23782 0.01186 0.62786 0.0
C2273 C 0.27682 0.07353 0.6427 0.0
C2274 C 0.26365 0.05232 0.63745 0.0
H2275 H 0.19972 0.96194 0.59563 0.0
H2276 H 0.22408 0.9964 0.60361 0.0
H2277 H 0.25485 0.00537 0.64161 0.0
H2278 H 0.29567 0.10195 0.67061 0.0
H2279 H 0.27464 0.0671 0.66192 0.0
C2280 C 0.00833 0.21234 0.59395 0.0
C2281 C 0.02664 0.22094 0.60157 0.0
C2282 C 0.99034 0.20713 0.59911 0.0
C2283 C 0.97026 0.21607 0.62771 0.0
H2284 H 0.92284 0.16518 0.61565 0.0
C2285 C 0.90046 0.18019 0.65474 0.0
C2286 C 0.88145 0.1714 0.6479 0.0
C2287 C 0.91783 0.18655 0.64869 0.0
C2288 C 0.93588 0.17954 0.61904 0.0
H2289 H 0.04042 0.23149 0.62058 0.0
H2290 H 0.00916 0.22203 0.62957 0.0
H2291 H 0.95372 0.17618 0.60573 0.0
H2292 H 0.86587 0.16233 0.62925 0.0
H2293 H 0.8962 0.17341 0.61872 0.0
H2294 H 0.9525 0.21928 0.64113 0.0
C2295 C 0.00864 0.21942 0.61958 0.0
C2296 C 0.95359 0.18589 0.61332 0.0
C2297 C 0.02657 0.22463 0.61444 0.0
C2298 C 0.88024 0.16895 0.63484 0.0
C2299 C 0.89763 0.17525 0.62879 0.0
C2300 C 0.95259 0.20969 0.63344 0.0
C2301 C 0.99024 0.21045 0.61201 0.0
C2302 C 0.97107 0.20416 0.61765 0.0
C2303 C 0.91665 0.18425 0.63564 0.0
C2304 C 0.93523 0.19128 0.62925 0.0
H2305 H 0.0078 0.20917 0.58402 0.0
H2306 H 0.9765 0.20047 0.59297 0.0
H2307 H 0.98329 0.2304 0.63115 0.0
H2308 H 0.902 0.18231 0.6648 0.0
H2309 H 0.93221 0.19316 0.65425 0.0
C2310 C 0.72674 0.76604 0.62142 0.0
C2311 C 0.72764 0.76891 0.60873 0.0
C2312 C 0.73631 0.75669 0.62694 0.0
C2313 C 0.75742 0.72399 0.61993 0.0
H2314 H 0.78981 0.74904 0.65149 0.0
C2315 C 0.81249 0.70068 0.64037 0.0
C2316 C 0.81321 0.69892 0.6532 0.0
C2317 C 0.80201 0.70931 0.63509 0.0
C2318 C 0.78064 0.74172 0.64275 0.0
H2319 H 0.73916 0.76402 0.59189 0.0
H2320 H 0.75565 0.74753 0.60149 0.0
H2321 H 0.77061 0.76301 0.64202 0.0
H2322 H 0.80374 0.70511 0.67057 0.0
H2323 H 0.78527 0.71995 0.66133 0.0
H2324 H 0.7674 0.70267 0.62065 0.0
C2325 C 0.74738 0.75235 0.60714 0.0
C2326 C 0.76964 0.74971 0.63733 0.0
C2327 C 0.73789 0.76175 0.60163 0.0
C2328 C 0.80354 0.70631 0.66066 0.0
C2329 C 0.79301 0.71489 0.65537 0.0
C2330 C 0.76837 0.71595 0.62536 0.0
C2331 C 0.74691 0.74994 0.61988 0.0
C2332 C 0.75799 0.74099 0.62584 0.0
C2333 C 0.79196 0.71631 0.64251 0.0
C2334 C 0.7802 0.72478 0.6368 0.0
H2335 H 0.71871 0.77111 0.62711 0.0
H2336 H 0.73544 0.75476 0.63674 0.0
H2337 H 0.74837 0.71678 0.61114 0.0
H2338 H 0.81985 0.69522 0.63436 0.0
H2339 H 0.8018 0.7105 0.62518 0.0
C2340 C 0.02584 0.80621 0.61217 0.0
C2341 C 0.03289 0.79571 0.60492 0.0
C2342 C 0.00911 0.79591 0.61869 0.0
C2343 C 0.97858 0.74699 0.63093 0.0
H2344 H 0.93872 0.76359 0.63233 0.0
C2345 C 0.90022 0.69636 0.64596 0.0
C2346 C 0.8923 0.70502 0.65401 0.0
C2347 C 0.91797 0.70834 0.64077 0.0
C2348 C 0.94987 0.75895 0.63216 0.0
H2349 H 0.02778 0.7661 0.59887 0.0
H2350 H 0.99828 0.74813 0.60991 0.0
H2351 H 0.96836 0.78261 0.62145 0.0
H2352 H 0.89686 0.73314 0.66286 0.0
H2353 H 0.92801 0.75416 0.65367 0.0
H2354 H 0.95988 0.72311 0.64141 0.0
C2355 C 0.0059 0.76436 0.61074 0.0
C2356 C 0.96685 0.76983 0.62593 0.0
C2357 C 0.02266 0.77466 0.60425 0.0
C2358 C 0.90259 0.726 0.65673 0.0
C2359 C 0.92035 0.73804 0.65142 0.0
C2360 C 0.96158 0.73608 0.63709 0.0
C2361 C 0.99898 0.77486 0.6181 0.0
C2362 C 0.9813 0.76384 0.62512 0.0
C2363 C 0.92823 0.72929 0.64342 0.0
C2364 C 0.94693 0.74179 0.63765 0.0
H2365 H 0.03321 0.82242 0.61277 0.0
H2366 H 0.0043 0.80449 0.62434 0.0
H2367 H 0.98962 0.74222 0.63075 0.0
H2368 H 0.89271 0.68027 0.64363 0.0
H2369 H 0.92351 0.70117 0.6345 0.0
C2370 C 0.1804 0.20932 0.60326 0.0
C2371 C 0.18782 0.22633 0.59665 0.0
C2372 C 0.19356 0.20451 0.60957 0.0
C2373 C 0.24463 0.21206 0.61021 0.0
H2374 H 0.23644 0.19647 0.64365 0.0
C2375 C 0.30298 0.20194 0.64018 0.0
C2376 C 0.29582 0.18648 0.64802 0.0
C2377 C 0.28979 0.2067 0.63386 0.0
C2378 C 0.23881 0.2005 0.63425 0.0
H2379 H 0.21505 0.2518 0.59177 0.0
H2380 H 0.23792 0.24316 0.60259 0.0
H2381 H 0.21341 0.20485 0.63276 0.0
H2382 H 0.26905 0.16365 0.65516 0.0
H2383 H 0.24603 0.17161 0.64393 0.0
H2384 H 0.26982 0.20745 0.61157 0.0
C2385 C 0.22189 0.23348 0.60278 0.0
C2386 C 0.22562 0.20536 0.62803 0.0
C2387 C 0.20875 0.23839 0.59655 0.0
C2388 C 0.27512 0.17574 0.64927 0.0
C2389 C 0.26191 0.18041 0.64288 0.0
C2390 C 0.25773 0.20704 0.61639 0.0
C2391 C 0.21444 0.21648 0.60936 0.0
C2392 C 0.22841 0.21124 0.61595 0.0
C2393 C 0.26907 0.19603 0.63514 0.0
C2394 C 0.25503 0.20123 0.6285 0.0
H2395 H 0.16439 0.19948 0.60338 0.0
H2396 H 0.18735 0.19117 0.61443 0.0
H2397 H 0.24702 0.21627 0.60084 0.0
H2398 H 0.31884 0.21059 0.63905 0.0
H2399 H 0.29592 0.21901 0.62814 0.0
C2400 C 0.71956 0.93769 0.62245 0.0
C2401 C 0.73066 0.92794 0.62423 0.0
C2402 C 0.72753 0.95772 0.62714 0.0
C2403 C 0.76699 0.99816 0.64966 0.0
H2404 H 0.76164 0.0331 0.62741 0.0
C2405 C 0.81283 0.08474 0.65893 0.0
C2406 C 0.80273 0.09521 0.6562 0.0
C2407 C 0.80355 0.06407 0.65554 0.0
C2408 C 0.76306 0.02352 0.6338 0.0
H2409 H 0.75875 0.93151 0.63249 0.0
H2410 H 0.77261 0.96642 0.64072 0.0
H2411 H 0.74583 0.99734 0.6209 0.0
H2412 H 0.77487 0.09215 0.6479 0.0
H2413 H 0.75869 0.05618 0.64213 0.0
H2414 H 0.78435 0.02443 0.66253 0.0
C2415 C 0.75764 0.95851 0.63582 0.0
C2416 C 0.75397 0.00301 0.63008 0.0
C2417 C 0.74967 0.93849 0.63112 0.0
C2418 C 0.78313 0.08457 0.65009 0.0
C2419 C 0.77387 0.06395 0.64672 0.0
C2420 C 0.77607 0.0187 0.65339 0.0
C2421 C 0.74678 0.96844 0.63373 0.0
C2422 C 0.75587 0.9901 0.63794 0.0
C2423 C 0.784 0.05347 0.64936 0.0
C2424 C 0.77424 0.03161 0.64549 0.0
H2425 H 0.70474 0.92987 0.61734 0.0
H2426 H 0.71866 0.96487 0.62556 0.0
H2427 H 0.76854 0.98856 0.65598 0.0
H2428 H 0.82795 0.09249 0.66362 0.0
H2429 H 0.81184 0.05646 0.65758 0.0
C2430 C 0.48504 0.38751 0.7109 0.0
C2431 C 0.47876 0.3993 0.71751 0.0
C2432 C 0.47118 0.36783 0.70606 0.0
C2433 C 0.42187 0.32557 0.71072 0.0
H2434 H 0.42571 0.30399 0.67841 0.0
C2435 C 0.36524 0.24432 0.68927 0.0
C2436 C 0.37335 0.23387 0.68309 0.0
C2437 C 0.37727 0.26479 0.69325 0.0
C2438 C 0.42455 0.30974 0.6875 0.0
H2439 H 0.45284 0.39984 0.72384 0.0
H2440 H 0.42863 0.36535 0.71544 0.0
H2441 H 0.44804 0.33945 0.68539 0.0
H2442 H 0.40058 0.23665 0.67649 0.0
H2443 H 0.42153 0.27214 0.68358 0.0
H2444 H 0.39859 0.29578 0.71292 0.0
C2445 C 0.44435 0.37132 0.71414 0.0
C2446 C 0.43732 0.33006 0.69148 0.0
C2447 C 0.45821 0.39106 0.71895 0.0
C2448 C 0.3938 0.24425 0.68115 0.0
C2449 C 0.4058 0.26465 0.68514 0.0
C2450 C 0.40911 0.30521 0.70675 0.0
C2451 C 0.45072 0.35944 0.70775 0.0
C2452 C 0.43627 0.33815 0.70319 0.0
C2453 C 0.39766 0.27521 0.69114 0.0
C2454 C 0.41048 0.29702 0.69515 0.0
H2455 H 0.50079 0.39324 0.70981 0.0
H2456 H 0.47661 0.35897 0.70134 0.0
H2457 H 0.42087 0.33131 0.71986 0.0
H2458 H 0.34953 0.23678 0.69088 0.0
H2459 H 0.37051 0.27253 0.69777 0.0
C2460 C 0.65635 0.10806 0.74208 0.0
C2461 C 0.63754 0.10185 0.73551 0.0
C2462 C 0.67328 0.1131 0.73577 0.0
C2463 C 0.69462 0.13114 0.7068 0.0
H2464 H 0.72909 0.10941 0.71517 0.0
C2465 C 0.76057 0.14374 0.6784 0.0
C2466 C 0.77787 0.14545 0.68476 0.0
C2467 C 0.74339 0.13858 0.68449 0.0
C2468 C 0.71986 0.11592 0.71283 0.0
H2469 H 0.62192 0.09571 0.71701 0.0
H2470 H 0.65162 0.10512 0.70609 0.0
H2471 H 0.69942 0.10014 0.72605 0.0
H2472 H 0.79097 0.14382 0.70262 0.0
H2473 H 0.76144 0.13562 0.71334 0.0
H2474 H 0.71524 0.14736 0.69383 0.0
C2475 C 0.65317 0.10611 0.71614 0.0
C2476 C 0.70278 0.11049 0.71904 0.0
C2477 C 0.63617 0.1008 0.72244 0.0
C2478 C 0.7778 0.14238 0.69741 0.0
C2479 C 0.76076 0.13752 0.70354 0.0
C2480 C 0.71187 0.13681 0.7007 0.0
C2481 C 0.67189 0.11231 0.72275 0.0
C2482 C 0.68997 0.11802 0.71608 0.0
C2483 C 0.7432 0.13527 0.69714 0.0
C2484 C 0.72476 0.12928 0.70362 0.0
H2485 H 0.65816 0.10946 0.75214 0.0
H2486 H 0.68758 0.11803 0.74111 0.0
H2487 H 0.68511 0.13734 0.70443 0.0
H2488 H 0.76011 0.14588 0.66863 0.0
H2489 H 0.73013 0.13673 0.67918 0.0
C2490 C 0.91206 0.53369 0.71606 0.0
C2491 C 0.93062 0.5439 0.72349 0.0
C2492 C 0.9038 0.54429 0.71066 0.0
C2493 C 0.90457 0.5921 0.71467 0.0
H2494 H 0.88065 0.5783 0.68044 0.0
C2495 C 0.87909 0.6411 0.69046 0.0
C2496 C 0.8612 0.63147 0.6824 0.0
C2497 C 0.88746 0.63019 0.69523 0.0
C2498 C 0.88702 0.58217 0.69006 0.0
H2499 H 0.9553 0.57333 0.73074 0.0
H2500 H 0.94069 0.59181 0.72143 0.0
H2501 H 0.89572 0.55976 0.68909 0.0
H2502 H 0.83801 0.60276 0.67306 0.0
H2503 H 0.85244 0.58361 0.68161 0.0
H2504 H 0.89569 0.61428 0.71576 0.0
C2505 C 0.93249 0.57557 0.71991 0.0
C2506 C 0.89571 0.57159 0.69499 0.0
C2507 C 0.94082 0.56498 0.72525 0.0
C2508 C 0.85185 0.61064 0.67921 0.0
C2509 C 0.86018 0.59969 0.68406 0.0
C2510 C 0.89578 0.60258 0.70977 0.0
C2511 C 0.91383 0.56532 0.71262 0.0
C2512 C 0.90464 0.57652 0.70733 0.0
C2513 C 0.87808 0.60935 0.69214 0.0
C2514 C 0.887 0.59782 0.69739 0.0
H2515 H 0.90362 0.51745 0.71468 0.0
H2516 H 0.88928 0.53598 0.70521 0.0
H2517 H 0.91103 0.59599 0.72427 0.0
H2518 H 0.88679 0.65715 0.69304 0.0
H2519 H 0.90144 0.63818 0.70124 0.0
C2520 C 0.44477 0.95078 0.17056 0.0
C2521 C 0.45921 0.95818 0.18097 0.0
C2522 C 0.44994 0.95832 0.15909 0.0
C2523 C 0.49414 0.98537 0.14161 0.0
H2524 H 0.45677 0.99209 0.11966 0.0
C2525 C 0.51601 0.02215 0.0958 0.0
C2526 C 0.50182 0.0127 0.08531 0.0
C2527 C 0.51089 0.01629 0.10763 0.0
C2528 C 0.46731 0.99014 0.12564 0.0
H2529 H 0.49021 0.97984 0.18758 0.0
H2530 H 0.49918 0.99313 0.16765 0.0
H2531 H 0.44764 0.98066 0.14003 0.0
H2532 H 0.47097 0.98999 0.0791 0.0
H2533 H 0.46211 0.97963 0.0997 0.0
H2534 H 0.5138 0.99487 0.12722 0.0
C2535 C 0.48396 0.98118 0.16826 0.0
C2536 C 0.46207 0.98356 0.13732 0.0
C2537 C 0.47882 0.97359 0.1797 0.0
C2538 C 0.48233 0.99742 0.08696 0.0
C2539 C 0.47718 0.99163 0.09879 0.0
C2540 C 0.4994 0.99202 0.12995 0.0
C2541 C 0.46965 0.9735 0.15776 0.0
C2542 C 0.47538 0.981 0.14544 0.0
C2543 C 0.49141 0.00093 0.10926 0.0
C2544 C 0.48602 0.99439 0.1218 0.0
H2545 H 0.4296 0.93874 0.17118 0.0
H2546 H 0.43858 0.95184 0.15119 0.0
H2547 H 0.50463 0.98324 0.1475 0.0
H2548 H 0.53119 0.03388 0.09484 0.0
H2549 H 0.52215 0.02388 0.11552 0.0
C2550 C 0.99362 0.48491 0.18549 0.0
C2551 C 0.00449 0.50401 0.19223 0.0
C2552 C 0.99062 0.48295 0.1725 0.0
C2553 C 0.01116 0.51121 0.14547 0.0
H2554 H 0.96016 0.47086 0.12777 0.0
C2555 C 0.98979 0.51165 0.09369 0.0
C2556 C 0.9808 0.49323 0.08621 0.0
C2557 C 0.99288 0.51236 0.10658 0.0
C2558 C 0.97455 0.48206 0.1326 0.0
H2559 H 0.0208 0.536 0.19055 0.0
H2560 H 0.01493 0.5326 0.16805 0.0
H2561 H 0.96488 0.47323 0.15042 0.0
H2562 H 0.96783 0.46109 0.08634 0.0
H2563 H 0.97321 0.46232 0.10894 0.0
H2564 H 0.02066 0.52027 0.12765 0.0
C2565 C 0.00901 0.5191 0.17275 0.0
C2566 C 0.97728 0.48341 0.14556 0.0
C2567 C 0.0121 0.52106 0.18569 0.0
C2568 C 0.97493 0.47551 0.09188 0.0
C2569 C 0.97785 0.4762 0.1048 0.0
C2570 C 0.00837 0.50996 0.13253 0.0
C2571 C 0.99838 0.50003 0.16598 0.0
C2572 C 0.99558 0.4981 0.15216 0.0
C2573 C 0.98689 0.49463 0.11227 0.0
C2574 C 0.99 0.49546 0.12597 0.0
H2575 H 0.98739 0.47146 0.19023 0.0
H2576 H 0.9825 0.46802 0.16758 0.0
H2577 H 0.0256 0.52241 0.15022 0.0
H2578 H 0.9946 0.52556 0.08955 0.0
H2579 H 0.99973 0.52676 0.11211 0.0
C2580 C 0.49927 0.50454 0.18401 0.0
C2581 C 0.48086 0.50186 0.18745 0.0
C2582 C 0.50172 0.50149 0.17156 0.0
C2583 C 0.47488 0.4779 0.14056 0.0
H2584 H 0.52317 0.52014 0.129 0.0
C2585 C 0.50008 0.47241 0.09179 0.0
C2586 C 0.5071 0.48958 0.08539 0.0
C2587 C 0.496 0.47309 0.10415 0.0
C2588 C 0.50957 0.50828 0.13207 0.0
H2589 H 0.45032 0.49307 0.18052 0.0
H2590 H 0.45456 0.48751 0.15873 0.0
H2591 H 0.51749 0.52213 0.15079 0.0
H2592 H 0.51535 0.52093 0.08693 0.0
H2593 H 0.50823 0.52213 0.10851 0.0
H2594 H 0.46695 0.46414 0.12175 0.0
C2595 C 0.46708 0.49197 0.16572 0.0
C2596 C 0.50642 0.5093 0.14457 0.0
C2597 C 0.46465 0.49513 0.1782 0.0
C2598 C 0.50984 0.50742 0.09159 0.0
C2599 C 0.50592 0.50815 0.10397 0.0
C2600 C 0.47813 0.47679 0.12804 0.0
C2601 C 0.48578 0.49557 0.16225 0.0
C2602 C 0.48905 0.49414 0.14896 0.0
C2603 C 0.49903 0.49101 0.1104 0.0
C2604 C 0.49548 0.49202 0.12366 0.0
H2605 H 0.51193 0.50928 0.19094 0.0
H2606 H 0.51618 0.50398 0.1692 0.0
H2607 H 0.4614 0.46596 0.14369 0.0
H2608 H 0.49763 0.45839 0.08721 0.0
H2609 H 0.49083 0.45969 0.10889 0.0
C2610 C 0.0082 0.48675 0.81674 0.0
C2611 C 0.99342 0.49014 0.81106 0.0
C2612 C 0.01227 0.48942 0.82967 0.0
C2613 C 0.00646 0.51395 0.85816 0.0
H2614 H 0.01262 0.47355 0.87429 0.0
C2615 C 0.03185 0.52354 0.91052 0.0
C2616 C 0.02178 0.5067 0.91709 0.0
C2617 C 0.02858 0.52174 0.89758 0.0
C2618 C 0.01081 0.48488 0.86993 0.0
H2619 H 0.97138 0.49905 0.81453 0.0
H2620 H 0.9786 0.50383 0.83706 0.0
H2621 H 0.00675 0.47032 0.85168 0.0
H2622 H 0.00046 0.47474 0.91523 0.0
H2623 H 0.99457 0.47163 0.89259 0.0
H2624 H 0.01018 0.52834 0.87642 0.0
C2625 C 0.98719 0.49933 0.83151 0.0
C2626 C 0.00769 0.48316 0.85697 0.0
C2627 C 0.98308 0.49663 0.81859 0.0
C2628 C 0.00833 0.48801 0.91043 0.0
C2629 C 0.00512 0.4862 0.89747 0.0
C2630 C 0.00965 0.51571 0.87112 0.0
C2631 C 0.00169 0.49558 0.8372 0.0
C2632 C 0.00544 0.49766 0.85095 0.0
C2633 C 0.01521 0.50305 0.8909 0.0
C2634 C 0.01182 0.50117 0.87714 0.0
H2635 H 0.01664 0.48204 0.81119 0.0
H2636 H 0.02377 0.48672 0.83377 0.0
H2637 H 0.00494 0.52544 0.85379 0.0
H2638 H 0.04212 0.53819 0.9154 0.0
H2639 H 0.03672 0.53496 0.89279 0.0
C2640 C 0.53761 0.52054 0.82324 0.0
C2641 C 0.52928 0.501 0.81719 0.0
C2642 C 0.53478 0.52347 0.83569 0.0
C2643 C 0.49854 0.49913 0.85765 0.0
H2644 H 0.54111 0.53064 0.88417 0.0
C2645 C 0.48325 0.49106 0.90849 0.0
C2646 C 0.49296 0.50805 0.91725 0.0
C2647 C 0.48864 0.49207 0.8964 0.0
C2648 C 0.52901 0.52207 0.87684 0.0
H2649 H 0.51275 0.46933 0.81983 0.0
H2650 H 0.50733 0.4745 0.84127 0.0
H2651 H 0.54936 0.52954 0.86274 0.0
H2652 H 0.5161 0.5394 0.92027 0.0
H2653 H 0.5253 0.54135 0.89894 0.0
H2654 H 0.4781 0.49176 0.87148 0.0
C2655 C 0.5158 0.4875 0.83635 0.0
C2656 C 0.53377 0.52142 0.8646 0.0
C2657 C 0.51883 0.48457 0.82403 0.0
C2658 C 0.50839 0.52607 0.91369 0.0
C2659 C 0.51369 0.52714 0.90149 0.0
C2660 C 0.49376 0.49998 0.86979 0.0
C2661 C 0.52342 0.50693 0.84223 0.0
C2662 C 0.51859 0.50954 0.85497 0.0
C2663 C 0.50376 0.51016 0.89267 0.0
C2664 C 0.50895 0.51101 0.87961 0.0
H2665 H 0.5457 0.53352 0.81824 0.0
H2666 H 0.5408 0.53861 0.84006 0.0
H2667 H 0.48652 0.49014 0.85034 0.0
H2668 H 0.47161 0.47685 0.91104 0.0
H2669 H 0.48106 0.47852 0.88999 0.0
C2670 C 0.52691 0.06166 0.83192 0.0
C2671 C 0.531 0.05212 0.822 0.0
C2672 C 0.52388 0.05407 0.84346 0.0
C2673 C 0.53138 0.0198 0.86284 0.0
H2674 H 0.48913 0.02072 0.88007 0.0
C2675 C 0.50312 0.97951 0.90717 0.0
C2676 C 0.49958 0.99017 0.91674 0.0
C2677 C 0.50745 0.98683 0.89556 0.0
C2678 C 0.50111 0.02052 0.87544 0.0
H2679 H 0.53556 0.02734 0.81649 0.0
H2680 H 0.53004 0.01388 0.83665 0.0
H2681 H 0.49594 0.03389 0.86 0.0
H2682 H 0.49851 0.01727 0.92166 0.0
H2683 H 0.50579 0.02983 0.90144 0.0
H2684 H 0.53633 0.00619 0.87832 0.0
C2685 C 0.5294 0.0274 0.83554 0.0
C2686 C 0.50506 0.02811 0.86393 0.0
C2687 C 0.53255 0.03509 0.82398 0.0
C2688 C 0.50069 0.00841 0.91444 0.0
C2689 C 0.50492 0.01566 0.90285 0.0
C2690 C 0.52734 0.01209 0.87436 0.0
C2691 C 0.52476 0.03665 0.84538 0.0
C2692 C 0.52036 0.02804 0.85752 0.0
C2693 C 0.50825 0.00492 0.89324 0.0
C2694 C 0.51227 0.01253 0.88084 0.0
H2695 H 0.52601 0.07504 0.83076 0.0
H2696 H 0.52085 0.0619 0.85089 0.0
H2697 H 0.5434 0.01967 0.85823 0.0
H2698 H 0.50217 0.96531 0.90855 0.0
H2699 H 0.50975 0.9781 0.88832 0.0
C2700 C 0.14493 0.30095 0.51093 0.0
C2701 C 0.12501 0.28657 0.51249 0.0
C2702 C 0.14998 0.30859 0.49949 0.0
C2703 C 0.12829 0.31439 0.46962 0.0
H2704 H 0.17747 0.32106 0.45771 0.0
C2705 C 0.14718 0.33104 0.41924 0.0
C2706 C 0.16726 0.34454 0.41743 0.0
C2707 C 0.14199 0.32457 0.43095 0.0
C2708 C 0.16382 0.31955 0.46095 0.0
H2709 H 0.09477 0.26902 0.50316 0.0
H2710 H 0.10357 0.28236 0.4832 0.0
H2711 H 0.16845 0.30875 0.47785 0.0
H2712 H 0.19763 0.36183 0.4266 0.0
H2713 H 0.18855 0.35087 0.44705 0.0
H2714 H 0.12364 0.32514 0.45268 0.0
C2715 C 0.11526 0.28791 0.49089 0.0
C2716 C 0.15863 0.31247 0.47252 0.0
C2717 C 0.1102 0.28026 0.50235 0.0
C2718 C 0.182 0.35157 0.42767 0.0
C2719 C 0.17682 0.34509 0.43937 0.0
C2720 C 0.13349 0.32149 0.45805 0.0
C2721 C 0.13524 0.30207 0.48929 0.0
C2722 C 0.14079 0.30978 0.477 0.0
C2723 C 0.15676 0.33143 0.44115 0.0
C2724 C 0.15131 0.32414 0.45355 0.0
H2725 H 0.15665 0.30644 0.5186 0.0
H2726 H 0.16544 0.31974 0.49866 0.0
H2727 H 0.11458 0.31276 0.47286 0.0
H2728 H 0.13539 0.32549 0.41161 0.0
H2729 H 0.12644 0.31391 0.43193 0.0
C2730 C 0.67802 0.8463 0.51637 0.0
C2731 C 0.6696 0.8295 0.52312 0.0
C2732 C 0.67523 0.84399 0.50342 0.0
C2733 C 0.64305 0.80843 0.47636 0.0
H2734 H 0.68741 0.84411 0.45863 0.0
C2735 C 0.63992 0.80383 0.42241 0.0
C2736 C 0.64592 0.82229 0.41766 0.0
C2737 C 0.64324 0.80313 0.43517 0.0
C2738 C 0.67489 0.83406 0.46347 0.0
H2739 H 0.65132 0.79703 0.52147 0.0
H2740 H 0.64689 0.79294 0.49879 0.0
H2741 H 0.69218 0.84568 0.48118 0.0
H2742 H 0.66059 0.85447 0.42236 0.0
H2743 H 0.66653 0.85328 0.44456 0.0
H2744 H 0.62581 0.79686 0.45853 0.0
C2745 C 0.65547 0.80795 0.50356 0.0
C2746 C 0.67757 0.83501 0.47638 0.0
C2747 C 0.65818 0.81028 0.51657 0.0
C2748 C 0.65565 0.84003 0.42581 0.0
C2749 C 0.6592 0.83936 0.43848 0.0
C2750 C 0.64042 0.80737 0.4634 0.0
C2751 C 0.66409 0.82479 0.49684 0.0
C2752 C 0.66157 0.82253 0.48302 0.0
C2753 C 0.65293 0.82092 0.44331 0.0
C2754 C 0.65621 0.82047 0.45687 0.0
H2755 H 0.68715 0.86131 0.52108 0.0
H2756 H 0.68179 0.85731 0.49856 0.0
H2757 H 0.63036 0.7987 0.48118 0.0
H2758 H 0.63234 0.78995 0.4163 0.0
H2759 H 0.63835 0.78874 0.43867 0.0
C2760 C 0.12681 0.83038 0.51093 0.0
C2761 C 0.14199 0.83335 0.52009 0.0
C2762 C 0.12855 0.82693 0.49837 0.0
C2763 C 0.15434 0.81098 0.47685 0.0
H2764 H 0.1478 0.84571 0.45495 0.0
C2765 C 0.15819 0.80445 0.4236 0.0
C2766 C 0.17051 0.82258 0.41868 0.0
C2767 C 0.15358 0.80449 0.43588 0.0
C2768 C 0.14966 0.83592 0.46096 0.0
H2769 H 0.17035 0.83406 0.5234 0.0
H2770 H 0.1733 0.82781 0.50146 0.0
H2771 H 0.14111 0.84708 0.47664 0.0
H2772 H 0.18745 0.85494 0.42267 0.0
H2773 H 0.17925 0.85503 0.44412 0.0
H2774 H 0.16309 0.79998 0.46117 0.0
C2775 C 0.16012 0.82824 0.50397 0.0
C2776 C 0.14566 0.83656 0.47333 0.0
C2777 C 0.1585 0.83194 0.51651 0.0
C2778 C 0.17804 0.84075 0.42626 0.0
C2779 C 0.17321 0.84081 0.43848 0.0
C2780 C 0.1581 0.81016 0.46443 0.0
C2781 C 0.14537 0.82612 0.49476 0.0
C2782 C 0.14818 0.82427 0.48144 0.0
C2783 C 0.16097 0.82268 0.44341 0.0
C2784 C 0.15604 0.82281 0.45641 0.0
H2785 H 0.11399 0.83151 0.51343 0.0
H2786 H 0.1169 0.82519 0.49145 0.0
H2787 H 0.15633 0.80129 0.4829 0.0
H2788 H 0.15229 0.79022 0.41798 0.0
H2789 H 0.14403 0.79032 0.43944 0.0
C2790 C 0.65547 0.83644 0.15075 0.0
C2791 C 0.66437 0.82804 0.14337 0.0
C2792 C 0.6595 0.83925 0.16368 0.0
C2793 C 0.67543 0.81975 0.18934 0.0
H2794 H 0.68291 0.8673 0.20873 0.0
C2795 C 0.6729 0.82407 0.24246 0.0
C2796 C 0.6878 0.8418 0.24945 0.0
C2797 C 0.67048 0.82292 0.22951 0.0
C2798 C 0.68097 0.85399 0.20344 0.0
H2799 H 0.6851 0.81671 0.14377 0.0
H2800 H 0.69204 0.8215 0.16638 0.0
H2801 H 0.67897 0.86502 0.18606 0.0
H2802 H 0.71152 0.87238 0.24836 0.0
H2803 H 0.70739 0.87032 0.22572 0.0
H2804 H 0.67753 0.80876 0.2067 0.0
C2805 C 0.68173 0.82567 0.16214 0.0
C2806 C 0.67855 0.85261 0.19047 0.0
C2807 C 0.67776 0.82292 0.1492 0.0
C2808 C 0.70004 0.85844 0.24322 0.0
C2809 C 0.69755 0.85733 0.23027 0.0
C2810 C 0.67775 0.82108 0.20231 0.0
C2811 C 0.67247 0.83365 0.16952 0.0
C2812 C 0.67572 0.83546 0.18328 0.0
C2813 C 0.68283 0.83952 0.22327 0.0
C2814 C 0.68048 0.83819 0.2095 0.0
H2815 H 0.64482 0.84023 0.14659 0.0
H2816 H 0.65193 0.84519 0.16912 0.0
H2817 H 0.67306 0.80624 0.18407 0.0
H2818 H 0.66334 0.81094 0.247 0.0
H2819 H 0.65886 0.80906 0.22437 0.0
C2820 C 0.20496 0.82606 0.16242 0.0
C2821 C 0.20592 0.8386 0.15332 0.0
C2822 C 0.20372 0.83107 0.1748 0.0
C2823 C 0.18405 0.85609 0.19356 0.0
H2824 H 0.21682 0.85298 0.22094 0.0
C2825 C 0.16979 0.86608 0.24459 0.0
C2826 C 0.17171 0.85341 0.25263 0.0
C2827 C 0.17647 0.86741 0.23277 0.0
C2828 C 0.20738 0.85371 0.21342 0.0
H2829 H 0.20661 0.86627 0.14993 0.0
H2830 H 0.2039 0.87484 0.17167 0.0
H2831 H 0.22411 0.84942 0.19964 0.0
H2832 H 0.18188 0.83203 0.25461 0.0
H2833 H 0.19289 0.83377 0.23396 0.0
H2834 H 0.16657 0.85923 0.20715 0.0
C2835 C 0.20434 0.86128 0.1692 0.0
C2836 C 0.21168 0.85182 0.20124 0.0
C2837 C 0.20599 0.85645 0.15683 0.0
C2838 C 0.18051 0.84218 0.24867 0.0
C2839 C 0.18692 0.84327 0.23683 0.0
C2840 C 0.17952 0.85765 0.20573 0.0
C2841 C 0.20306 0.84854 0.17827 0.0
C2842 C 0.19988 0.8527 0.19119 0.0
C2843 C 0.18494 0.85585 0.22868 0.0
C2844 C 0.19091 0.85613 0.21582 0.0
H2845 H 0.20493 0.81224 0.15991 0.0
H2846 H 0.20258 0.82093 0.1816 0.0
H2847 H 0.1746 0.85661 0.18595 0.0
H2848 H 0.16319 0.87501 0.24746 0.0
H2849 H 0.17498 0.87749 0.22685 0.0
C2850 C 0.19581 0.36448 0.15676 0.0
C2851 C 0.19205 0.38001 0.15415 0.0
C2852 C 0.19226 0.35669 0.16828 0.0
C2853 C 0.16264 0.35235 0.19468 0.0
H2854 H 0.19955 0.33989 0.21248 0.0
C2855 C 0.15602 0.3347 0.24565 0.0
C2856 C 0.15986 0.31965 0.24929 0.0
C2857 C 0.15977 0.34127 0.23385 0.0
C2858 C 0.18894 0.34303 0.20756 0.0
H2859 H 0.18256 0.40018 0.16187 0.0
H2860 H 0.17633 0.38661 0.18185 0.0
H2861 H 0.20685 0.353 0.19231 0.0
H2862 H 0.17072 0.29975 0.24332 0.0
H2863 H 0.17687 0.31093 0.22262 0.0
H2864 H 0.14471 0.34242 0.20985 0.0
C2865 C 0.18159 0.38012 0.17491 0.0
C2866 C 0.19315 0.35057 0.196 0.0
C2867 C 0.18517 0.38791 0.16345 0.0
C2868 C 0.1674 0.31122 0.24078 0.0
C2869 C 0.17116 0.31781 0.22896 0.0
C2870 C 0.15841 0.34479 0.20619 0.0
C2871 C 0.18484 0.36425 0.17742 0.0
C2872 C 0.18014 0.35552 0.18949 0.0
C2873 C 0.16743 0.33296 0.22536 0.0
C2874 C 0.1716 0.34021 0.21285 0.0
H2875 H 0.20097 0.35796 0.14977 0.0
H2876 H 0.1948 0.34438 0.16989 0.0
H2877 H 0.15208 0.35561 0.1898 0.0
H2878 H 0.15001 0.34139 0.2519 0.0
H2879 H 0.15694 0.35313 0.23146 0.0
C2880 C 0.78942 0.6347 0.84329 0.0
C2881 C 0.79243 0.6191 0.84685 0.0
C2882 C 0.79492 0.64236 0.83188 0.0
C2883 C 0.82815 0.64582 0.80775 0.0
H2884 H 0.79401 0.65844 0.78701 0.0
C2885 C 0.84158 0.66263 0.75698 0.0
C2886 C 0.83867 0.67788 0.75261 0.0
C2887 C 0.83622 0.65622 0.76866 0.0
C2888 C 0.80385 0.65524 0.79276 0.0
H2889 H 0.80284 0.59877 0.84094 0.0
H2890 H 0.81241 0.61209 0.82112 0.0
H2891 H 0.78383 0.64573 0.80698 0.0
H2892 H 0.82776 0.69829 0.75714 0.0
H2893 H 0.81876 0.68735 0.77763 0.0
H2894 H 0.84815 0.65526 0.79356 0.0
C2895 C 0.80621 0.61872 0.82725 0.0
C2896 C 0.79799 0.64794 0.80421 0.0
C2897 C 0.8007 0.61108 0.83862 0.0
C2898 C 0.8304 0.68666 0.76027 0.0
C2899 C 0.82501 0.68022 0.77195 0.0
C2900 C 0.834 0.65313 0.79633 0.0
C2901 C 0.80357 0.63457 0.82378 0.0
C2902 C 0.81 0.64298 0.81179 0.0
C2903 C 0.82781 0.66488 0.77628 0.0
C2904 C 0.82186 0.65778 0.78864 0.0
H2905 H 0.78326 0.64135 0.84946 0.0
H2906 H 0.79284 0.65469 0.82953 0.0
H2907 H 0.83795 0.64252 0.81346 0.0
H2908 H 0.8481 0.65568 0.75139 0.0
H2909 H 0.83838 0.64422 0.77163 0.0
C2910 C 0.34579 0.18687 0.85116 0.0
C2911 C 0.33781 0.16968 0.85758 0.0
C2912 C 0.3425 0.18519 0.83824 0.0
C2913 C 0.30986 0.15018 0.81098 0.0
H2914 H 0.35325 0.18693 0.79302 0.0
C2915 C 0.3072 0.14337 0.75721 0.0
C2916 C 0.3129 0.16126 0.75178 0.0
C2917 C 0.31019 0.1437 0.7701 0.0
C2918 C 0.34097 0.17665 0.79793 0.0
H2919 H 0.31981 0.13717 0.85536 0.0
H2920 H 0.31465 0.13419 0.83274 0.0
H2921 H 0.3585 0.18859 0.81555 0.0
H2922 H 0.32647 0.19351 0.75549 0.0
H2923 H 0.3318 0.19411 0.77799 0.0
H2924 H 0.29248 0.1381 0.79322 0.0
C2925 C 0.3232 0.14903 0.83775 0.0
C2926 C 0.34393 0.17763 0.81084 0.0
C2927 C 0.32636 0.15072 0.85072 0.0
C2928 C 0.3218 0.17949 0.75945 0.0
C2929 C 0.32499 0.17985 0.7723 0.0
C2930 C 0.30698 0.14908 0.79803 0.0
C2931 C 0.33133 0.16625 0.83135 0.0
C2932 C 0.32834 0.16458 0.81755 0.0
C2933 C 0.31917 0.16196 0.77775 0.0
C2934 C 0.32244 0.16245 0.7914 0.0
H2935 H 0.35493 0.20171 0.8561 0.0
H2936 H 0.34871 0.1988 0.83365 0.0
H2937 H 0.29745 0.14006 0.81584 0.0
H2938 H 0.30021 0.1291 0.75151 0.0
H2939 H 0.30567 0.12972 0.77407 0.0
C2940 C 0.79354 0.1572 0.84309 0.0
C2941 C 0.80946 0.16372 0.85253 0.0
C2942 C 0.79623 0.15381 0.8307 0.0
C2943 C 0.83637 0.17054 0.81014 0.0
H2944 H 0.79668 0.12648 0.78675 0.0
C2945 C 0.84111 0.17017 0.75729 0.0
C2946 C 0.83791 0.1523 0.75086 0.0
C2947 C 0.83701 0.17062 0.76965 0.0
C2948 C 0.80793 0.13881 0.7932 0.0
H2949 H 0.84021 0.17038 0.85645 0.0
H2950 H 0.84493 0.16461 0.83487 0.0
H2951 H 0.79059 0.12793 0.80861 0.0
H2952 H 0.82742 0.12079 0.75224 0.0
H2953 H 0.82029 0.12161 0.77388 0.0
H2954 H 0.8537 0.18146 0.79481 0.0
C2955 C 0.83049 0.16249 0.83702 0.0
C2956 C 0.80438 0.13971 0.80568 0.0
C2957 C 0.82779 0.1658 0.84938 0.0
C2958 C 0.83024 0.13483 0.757 0.0
C2959 C 0.82597 0.13524 0.76934 0.0
C2960 C 0.83983 0.16973 0.79768 0.0
C2961 C 0.81492 0.15693 0.82751 0.0
C2962 C 0.8186 0.15557 0.81428 0.0
C2963 C 0.82946 0.15319 0.77583 0.0
C2964 C 0.82566 0.15388 0.78907 0.0
H2965 H 0.77929 0.15562 0.84519 0.0
H2966 H 0.78398 0.14963 0.82356 0.0
H2967 H 0.8475 0.18309 0.81652 0.0
H2968 H 0.84712 0.1839 0.75283 0.0
H2969 H 0.83967 0.18463 0.77438 0.0
C2970 C 0.31946 0.16909 0.48569 0.0
C2971 C 0.32996 0.1627 0.47824 0.0
C2972 C 0.32362 0.17209 0.49861 0.0
C2973 C 0.34428 0.15667 0.52429 0.0
H2974 H 0.3467 0.20215 0.54333 0.0
C2975 C 0.34362 0.16178 0.57754 0.0
C2976 C 0.35724 0.18035 0.58425 0.0
C2977 C 0.34066 0.16004 0.56458 0.0
C2978 C 0.34619 0.18944 0.53813 0.0
H2979 H 0.35346 0.15499 0.47852 0.0
H2980 H 0.36062 0.16009 0.50112 0.0
H2981 H 0.34165 0.19891 0.52066 0.0
H2982 H 0.37816 0.21174 0.58268 0.0
H2983 H 0.37312 0.20865 0.56003 0.0
H2984 H 0.34894 0.14726 0.54175 0.0
C2985 C 0.34901 0.16255 0.49694 0.0
C2986 C 0.34312 0.1875 0.52517 0.0
C2987 C 0.3449 0.15962 0.48401 0.0
C2988 C 0.36771 0.19719 0.57775 0.0
C2989 C 0.36468 0.19547 0.56479 0.0
C2990 C 0.34725 0.15856 0.53725 0.0
C2991 C 0.33831 0.16869 0.50437 0.0
C2992 C 0.3421 0.17107 0.51812 0.0
C2993 C 0.35119 0.17685 0.55807 0.0
C2994 C 0.34819 0.17494 0.54431 0.0
H2995 H 0.30761 0.17126 0.48157 0.0
H2996 H 0.31493 0.17655 0.5041 0.0
H2997 H 0.34335 0.14374 0.51911 0.0
H2998 H 0.33546 0.14851 0.58229 0.0
H2999 H 0.33001 0.14554 0.55966 0.0
C3000 C 0.8699 0.18154 0.48856 0.0
C3001 C 0.86051 0.162 0.48237 0.0
C3002 C 0.86716 0.18463 0.501 0.0
C3003 C 0.83039 0.16169 0.52302 0.0
H3004 H 0.87376 0.19219 0.54927 0.0
C3005 C 0.81574 0.15565 0.57406 0.0
C3006 C 0.82623 0.17278 0.58267 0.0
C3007 C 0.82087 0.156 0.56193 0.0
C3008 C 0.86146 0.18391 0.54202 0.0
H3009 H 0.84198 0.13039 0.48472 0.0
H3010 H 0.83676 0.13588 0.50616 0.0
H3011 H 0.88145 0.19019 0.5278 0.0
H3012 H 0.85047 0.20369 0.58538 0.0
H3013 H 0.85922 0.20451 0.56398 0.0
H3014 H 0.81032 0.15554 0.53699 0.0
C3015 C 0.84601 0.14878 0.50135 0.0
C3016 C 0.8659 0.18274 0.52975 0.0
C3017 C 0.84894 0.14567 0.48904 0.0
C3018 C 0.84216 0.19026 0.57892 0.0
C3019 C 0.84719 0.19068 0.56668 0.0
C3020 C 0.82595 0.16306 0.53519 0.0
C3021 C 0.85483 0.16827 0.5074 0.0
C3022 C 0.8504 0.17124 0.52021 0.0
C3023 C 0.83649 0.17357 0.55801 0.0
C3024 C 0.84141 0.17377 0.54492 0.0
H3025 H 0.87884 0.19447 0.4837 0.0
H3026 H 0.8741 0.19982 0.50549 0.0
H3027 H 0.81815 0.15303 0.51578 0.0
H3028 H 0.80368 0.14183 0.57677 0.0
H3029 H 0.81266 0.14235 0.55565 0.0
C3030 C 0.86574 0.70013 0.49066 0.0
C3031 C 0.86214 0.71586 0.48833 0.0
C3032 C 0.86279 0.69246 0.50223 0.0
C3033 C 0.83551 0.6897 0.52975 0.0
H3034 H 0.87164 0.6747 0.54592 0.0
C3035 C 0.83244 0.67316 0.58088 0.0
C3036 C 0.83452 0.65684 0.58402 0.0
C3037 C 0.83583 0.67964 0.56905 0.0
C3038 C 0.86128 0.67861 0.54145 0.0
H3039 H 0.85368 0.73654 0.49655 0.0
H3040 H 0.84871 0.72336 0.51665 0.0
H3041 H 0.87793 0.68756 0.52562 0.0
H3042 H 0.84199 0.63463 0.57717 0.0
H3043 H 0.84774 0.64585 0.5564 0.0
H3044 H 0.81895 0.68093 0.54557 0.0
C3045 C 0.85326 0.71653 0.50947 0.0
C3046 C 0.86488 0.68597 0.52981 0.0
C3047 C 0.85614 0.72412 0.49794 0.0
C3048 C 0.8401 0.64715 0.57501 0.0
C3049 C 0.84359 0.6537 0.56316 0.0
C3050 C 0.83195 0.6824 0.54136 0.0
C3051 C 0.85624 0.7004 0.51172 0.0
C3052 C 0.85215 0.69182 0.52388 0.0
C3053 C 0.84143 0.66999 0.56003 0.0
C3054 C 0.84488 0.67695 0.54742 0.0
H3055 H 0.87025 0.69337 0.48342 0.0
H3056 H 0.8651 0.67996 0.50362 0.0
H3057 H 0.82511 0.6936 0.52533 0.0
H3058 H 0.82796 0.68084 0.58754 0.0
H3059 H 0.83425 0.69237 0.567 0.0
loop_
_geom_bond_atom_site_label_1
_geom_bond_atom_site_label_2
_geom_bond_distance
_geom_bond_site_symmetry_2
_ccdc_geom_bond_type
C0 C1 1.391 . S
C0 C4 1.391 . S
C0 H42 0.948 . S
C1 C0 1.391 . S
C1 C2 1.391 . S
C2 C1 1.391 . S
C2 H58 0.947 . S
C2 C59 1.392 . S
C3 C4 1.391 . S
C3 C7 1.397 . S
C3 C59 1.419 . S
C4 C0 1.391 . S
C4 C3 1.391 . S
C4 C5 1.399 . S
C5 C4 1.399 . S
C5 C8 1.396 . S
C5 C17 1.453 . S
C5 C18 1.684 . S
H6 C30 0.948 . S
C7 C3 1.397 . S
C7 C8 1.394 . S
C7 C26 1.723 . S
C8 C5 1.396 . S
C8 C7 1.394 . S
C8 C38 1.723 . S
H9 C32 0.947 . S
H10 C33 0.948 . S
H11 C39 0.982 . S
H12 C40 0.979 . S
H13 C40 0.980 . S
H14 C40 0.983 . S
H15 C39 0.979 . S
H16 C39 0.977 . S
C17 C5 1.453 . S
C17 H46 0.982 . S
C17 H47 0.979 . S
C17 H48 0.977 . S
C18 C5 1.684 . S
C18 H43 0.979 . S
C18 H44 0.980 . S
C18 H45 0.983 . S
C19 C20 1.391 . S
C19 C24 1.391 . S
C19 H49 0.948 . S
C20 C19 1.391 . S
C20 C21 1.391 . S
C21 C20 1.391 . S
C21 C22 1.392 . S
C21 H50 0.947 . S
C22 C21 1.392 . S
C22 C23 1.419 . S
C22 H51 0.948 . S
C23 C22 1.419 . S
C23 C24 1.391 . S
C23 C27 1.397 . S
C24 C19 1.391 . S
C24 C23 1.391 . S
C24 C25 1.399 . S
C25 C24 1.399 . S
C25 C26 1.396 . S
C25 C28 1.453 . S
C25 C29 1.684 . S
C26 C7 1.723 . S
C26 C25 1.396 . S
C26 C27 1.394 . S
C27 C23 1.397 . S
C27 C26 1.394 . S
C27 C37 1.723 . S
C28 C25 1.453 . S
C28 H52 0.982 . S
C28 H53 0.979 . S
C28 H54 0.977 . S
C29 C25 1.684 . S
C29 H55 0.979 . S
C29 H56 0.980 . S
C29 H57 0.983 . S
C30 H6 0.948 . S
C30 C31 1.391 . S
C30 C35 1.391 . S
C31 C30 1.391 . S
C31 C32 1.391 . S
C32 H9 0.947 . S
C32 C31 1.391 . S
C32 C33 1.392 . S
C33 H10 0.948 . S
C33 C32 1.392 . S
C33 C34 1.419 . S
C34 C33 1.419 . S
C34 C35 1.391 . S
C34 C38 1.397 . S
C35 C30 1.391 . S
C35 C34 1.391 . S
C35 C36 1.399 . S
C36 C35 1.399 . S
C36 C37 1.396 . S
C36 C39 1.453 . S
C36 C40 1.684 . S
C37 C27 1.723 . S
C37 C36 1.396 . S
C37 C38 1.394 . S
C38 C8 1.723 . S
C38 C34 1.397 . S
C38 C37 1.394 . S
C39 H11 0.982 . S
C39 H15 0.979 . S
C39 H16 0.977 . S
C39 C36 1.453 . S
C40 H12 0.979 . S
C40 H13 0.980 . S
C40 H14 0.983 . S
C40 C36 1.684 . S
H41 C59 0.948 . S
H42 C0 0.948 . S
H43 C18 0.979 . S
H44 C18 0.980 . S
H45 C18 0.983 . S
H46 C17 0.982 . S
H47 C17 0.979 . S
H48 C17 0.977 . S
H49 C19 0.948 . S
H50 C21 0.947 . S
H51 C22 0.948 . S
H52 C28 0.982 . S
H53 C28 0.979 . S
H54 C28 0.977 . S
H55 C29 0.979 . S
H56 C29 0.980 . S
H57 C29 0.983 . S
H58 C2 0.947 . S
C59 C2 1.392 . S
C59 C3 1.419 . S
C59 H41 0.948 . S
C60 C61 1.391 . S
C60 C64 1.391 . S
C60 H102 0.948 . S
C61 C60 1.391 . S
C61 C62 1.391 . S
C62 C61 1.391 . S
C62 H118 0.947 . S
C62 C119 1.392 . S
C63 C64 1.391 . S
C63 C67 1.397 . S
C63 C119 1.419 . S
C64 C60 1.391 . S
C64 C63 1.391 . S
C64 C65 1.399 . S
C65 C64 1.399 . S
C65 C68 1.396 . S
C65 C77 1.453 . S
C65 C78 1.684 . S
H66 C90 0.948 . S
C67 C63 1.397 . S
C67 C68 1.394 . S
C67 C86 1.723 . S
C68 C65 1.396 . S
C68 C67 1.394 . S
C68 C98 1.723 . S
H69 C92 0.947 . S
H70 C93 0.948 . S
H71 C99 0.982 . S
H72 C100 0.979 . S
H73 C100 0.980 . S
H74 C100 0.983 . S
H75 C99 0.979 . S
H76 C99 0.977 . S
C77 C65 1.453 . S
C77 H106 0.982 . S
C77 H107 0.979 . S
C77 H108 0.977 . S
C78 C65 1.684 . S
C78 H103 0.979 . S
C78 H104 0.980 . S
C78 H105 0.983 . S
C79 C80 1.391 . S
C79 C84 1.391 . S
C79 H109 0.948 . S
C80 C79 1.391 . S
C80 C81 1.391 . S
C81 C80 1.391 . S
C81 C82 1.392 . S
C81 H110 0.947 . S
C82 C81 1.392 . S
C82 C83 1.419 . S
C82 H111 0.948 . S
C83 C82 1.419 . S
C83 C84 1.391 . S
C83 C87 1.397 . S
C84 C79 1.391 . S
C84 C83 1.391 . S
C84 C85 1.399 . S
C85 C84 1.399 . S
C85 C86 1.396 . S
C85 C88 1.453 . S
C85 C89 1.684 . S
C86 C67 1.723 . S
C86 C85 1.396 . S
C86 C87 1.394 . S
C87 C83 1.397 . S
C87 C86 1.394 . S
C87 C97 1.723 . S
C88 C85 1.453 . S
C88 H112 0.982 . S
C88 H113 0.979 . S
C88 H114 0.977 . S
C89 C85 1.684 . S
C89 H115 0.979 . S
C89 H116 0.980 . S
C89 H117 0.983 . S
C90 H66 0.948 . S
C90 C91 1.391 . S
C90 C95 1.391 . S
C91 C90 1.391 . S
C91 C92 1.391 . S
C92 H69 0.947 . S
C92 C91 1.391 . S
C92 C93 1.392 . S
C93 H70 0.948 . S
C93 C92 1.392 . S
C93 C94 1.419 . S
C94 C93 1.419 . S
C94 C95 1.391 . S
C94 C98 1.397 . S
C95 C90 1.391 . S
C95 C94 1.391 . S
C95 C96 1.399 . S
C96 C95 1.399 . S
C96 C97 1.396 . S
C96 C99 1.453 . S
C96 C100 1.684 . S
C97 C87 1.723 . S
C97 C96 1.396 . S
C97 C98 1.394 . S
C98 C68 1.723 . S
C98 C94 1.397 . S
C98 C97 1.394 . S
C99 H71 0.982 . S
C99 H75 0.979 . S
C99 H76 0.977 . S
C99 C96 1.453 . S
C100 H72 0.979 . S
C100 H73 0.980 . S
C100 H74 0.983 . S
C100 C96 1.684 . S
H101 C119 0.948 . S
H102 C60 0.948 . S
H103 C78 0.979 . S
H104 C78 0.980 . S
H105 C78 0.983 . S
H106 C77 0.982 . S
H107 C77 0.979 . S
H108 C77 0.977 . S
H109 C79 0.948 . S
H110 C81 0.947 . S
H111 C82 0.948 . S
H112 C88 0.982 . S
H113 C88 0.979 . S
H114 C88 0.977 . S
H115 C89 0.979 . S
H116 C89 0.980 . S
H117 C89 0.983 . S
H118 C62 0.947 . S
C119 C62 1.392 . S
C119 C63 1.419 . S
C119 H101 0.948 . S
C120 C121 1.391 . S
C120 C124 1.391 . S
C120 H162 0.948 . S
C121 C120 1.391 . S
C121 C122 1.391 . S
C122 C121 1.391 . S
C122 H178 0.947 . S
C122 C179 1.392 . S
C123 C124 1.391 . S
C123 C127 1.397 . S
C123 C179 1.419 . S
C124 C120 1.391 . S
C124 C123 1.391 . S
C124 C125 1.399 . S
C125 C124 1.399 . S
C125 C128 1.396 . S
C125 C137 1.453 . S
C125 C138 1.684 . S
H126 C150 0.948 . S
C127 C123 1.397 . S
C127 C128 1.394 . S
C127 C146 1.723 . S
C128 C125 1.396 . S
C128 C127 1.394 . S
C128 C158 1.723 . S
H129 C152 0.947 . S
H130 C153 0.948 . S
H131 C159 0.982 . S
H132 C160 0.979 . S
H133 C160 0.980 . S
H134 C160 0.983 . S
H135 C159 0.979 . S
H136 C159 0.977 . S
C137 C125 1.453 . S
C137 H166 0.982 . S
C137 H167 0.979 . S
C137 H168 0.977 . S
C138 C125 1.684 . S
C138 H163 0.979 . S
C138 H164 0.980 . S
C138 H165 0.983 . S
C139 C140 1.391 . S
C139 C144 1.391 . S
C139 H169 0.948 . S
C140 C139 1.391 . S
C140 C141 1.391 . S
C141 C140 1.391 . S
C141 C142 1.392 . S
C141 H170 0.947 . S
C142 C141 1.392 . S
C142 C143 1.419 . S
C142 H171 0.948 . S
C143 C142 1.419 . S
C143 C144 1.391 . S
C143 C147 1.397 . S
C144 C139 1.391 . S
C144 C143 1.391 . S
C144 C145 1.399 . S
C145 C144 1.399 . S
C145 C146 1.396 . S
C145 C148 1.453 . S
C145 C149 1.684 . S
C146 C127 1.723 . S
C146 C145 1.396 . S
C146 C147 1.394 . S
C147 C143 1.397 . S
C147 C146 1.394 . S
C147 C157 1.723 . S
C148 C145 1.453 . S
C148 H172 0.982 . S
C148 H173 0.979 . S
C148 H174 0.977 . S
C149 C145 1.684 . S
C149 H175 0.979 . S
C149 H176 0.980 . S
C149 H177 0.983 . S
C150 H126 0.948 . S
C150 C151 1.391 . S
C150 C155 1.391 . S
C151 C150 1.391 . S
C151 C152 1.391 . S
C152 H129 0.947 . S
C152 C151 1.391 . S
C152 C153 1.392 . S
C153 H130 0.948 . S
C153 C152 1.392 . S
C153 C154 1.419 . S
C154 C153 1.419 . S
C154 C155 1.391 . S
C154 C158 1.397 . S
C155 C150 1.391 . S
C155 C154 1.391 . S
C155 C156 1.399 . S
C156 C155 1.399 . S
C156 C157 1.396 . S
C156 C159 1.453 . S
C156 C160 1.684 . S
C157 C147 1.723 . S
C157 C156 1.396 . S
C157 C158 1.394 . S
C158 C128 1.723 . S
C158 C154 1.397 . S
C158 C157 1.394 . S
C159 H131 0.982 . S
C159 H135 0.979 . S
C159 H136 0.977 . S
C159 C156 1.453 . S
C160 H132 0.979 . S
C160 H133 0.980 . S
C160 H134 0.983 . S
C160 C156 1.684 . S
H161 C179 0.948 . S
H162 C120 0.948 . S
H163 C138 0.979 . S
H164 C138 0.980 . S
H165 C138 0.983 . S
H166 C137 0.982 . S
H167 C137 0.979 . S
H168 C137 0.977 . S
H169 C139 0.948 . S
H170 C141 0.947 . S
H171 C142 0.948 . S
H172 C148 0.982 . S
H173 C148 0.979 . S
H174 C148 0.977 . S
H175 C149 0.979 . S
H176 C149 0.980 . S
H177 C149 0.983 . S
H178 C122 0.947 . S
C179 C122 1.392 . S
C179 C123 1.419 . S
C179 H161 0.948 . S
C180 C181 1.391 . S
C180 C184 1.391 . S
C180 H222 0.948 . S
C181 C180 1.391 . S
C181 C182 1.391 . S
C182 C181 1.391 . S
C182 H238 0.947 . S
C182 C239 1.392 . S
C183 C184 1.391 . S
C183 C187 1.397 . S
C183 C239 1.419 . S
C184 C180 1.391 . S
C184 C183 1.391 . S
C184 C185 1.399 . S
C185 C184 1.399 . S
C185 C188 1.396 . S
C185 C197 1.453 . S
C185 C198 1.684 . S
H186 C210 0.948 . S
C187 C183 1.397 . S
C187 C188 1.394 . S
C187 C206 1.723 . S
C188 C185 1.396 . S
C188 C187 1.394 . S
C188 C218 1.723 . S
H189 C212 0.947 . S
H190 C213 0.948 . S
H191 C219 0.982 . S
H192 C220 0.979 . S
H193 C220 0.980 . S
H194 C220 0.983 . S
H195 C219 0.979 . S
H196 C219 0.977 . S
C197 C185 1.453 . S
C197 H226 0.982 . S
C197 H227 0.979 . S
C197 H228 0.977 . S
C198 C185 1.684 . S
C198 H223 0.979 . S
C198 H224 0.980 . S
C198 H225 0.983 . S
C199 C200 1.391 . S
C199 C204 1.391 . S
C199 H229 0.948 . S
C200 C199 1.391 . S
C200 C201 1.391 . S
C201 C200 1.391 . S
C201 C202 1.392 . S
C201 H230 0.947 . S
C202 C201 1.392 . S
C202 C203 1.419 . S
C202 H231 0.948 . S
C203 C202 1.419 . S
C203 C204 1.391 . S
C203 C207 1.397 . S
C204 C199 1.391 . S
C204 C203 1.391 . S
C204 C205 1.399 . S
C205 C204 1.399 . S
C205 C206 1.396 . S
C205 C208 1.453 . S
C205 C209 1.684 . S
C206 C187 1.723 . S
C206 C205 1.396 . S
C206 C207 1.394 . S
C207 C203 1.397 . S
C207 C206 1.394 . S
C207 C217 1.723 . S
C208 C205 1.453 . S
C208 H232 0.982 . S
C208 H233 0.979 . S
C208 H234 0.977 . S
C209 C205 1.684 . S
C209 H235 0.979 . S
C209 H236 0.980 . S
C209 H237 0.983 . S
C210 H186 0.948 . S
C210 C211 1.391 . S
C210 C215 1.391 . S
C211 C210 1.391 . S
C211 C212 1.391 . S
C212 H189 0.947 . S
C212 C211 1.391 . S
C212 C213 1.392 . S
C213 H190 0.948 . S
C213 C212 1.392 . S
C213 C214 1.419 . S
C214 C213 1.419 . S
C214 C215 1.391 . S
C214 C218 1.397 . S
C215 C210 1.391 . S
C215 C214 1.391 . S
C215 C216 1.399 . S
C216 C215 1.399 . S
C216 C217 1.396 . S
C216 C219 1.453 . S
C216 C220 1.684 . S
C217 C207 1.723 . S
C217 C216 1.396 . S
C217 C218 1.394 . S
C218 C188 1.723 . S
C218 C214 1.397 . S
C218 C217 1.394 . S
C219 H191 0.982 . S
C219 H195 0.979 . S
C219 H196 0.977 . S
C219 C216 1.453 . S
C220 H192 0.979 . S
C220 H193 0.980 . S
C220 H194 0.983 . S
C220 C216 1.684 . S
H221 C239 0.948 . S
H222 C180 0.948 . S
H223 C198 0.979 . S
H224 C198 0.980 . S
H225 C198 0.983 . S
H226 C197 0.982 . S
H227 C197 0.979 . S
H228 C197 0.977 . S
H229 C199 0.948 . S
H230 C201 0.947 . S
H231 C202 0.948 . S
H232 C208 0.982 . S
H233 C208 0.979 . S
H234 C208 0.977 . S
H235 C209 0.979 . S
H236 C209 0.980 . S
H237 C209 0.983 . S
H238 C182 0.947 . S
C239 C182 1.392 . S
C239 C183 1.419 . S
C239 H221 0.948 . S
C240 C241 1.391 . S
C240 C244 1.391 . S
C240 H282 0.948 . S
C241 C240 1.391 . S
C241 C242 1.391 . S
C242 C241 1.391 . S
C242 H298 0.947 . S
C242 C299 1.392 . S
C243 C244 1.391 . S
C243 C247 1.397 . S
C243 C299 1.419 . S
C244 C240 1.391 . S
C244 C243 1.391 . S
C244 C245 1.399 . S
C245 C244 1.399 . S
C245 C248 1.396 . S
C245 C257 1.453 . S
C245 C258 1.684 . S
H246 C270 0.948 . S
C247 C243 1.397 . S
C247 C248 1.394 . S
C247 C266 1.723 . S
C248 C245 1.396 . S
C248 C247 1.394 . S
C248 C278 1.723 . S
H249 C272 0.947 . S
H250 C273 0.948 . S
H251 C279 0.982 . S
H252 C280 0.979 . S
H253 C280 0.980 . S
H254 C280 0.983 . S
H255 C279 0.979 . S
H256 C279 0.977 . S
C257 C245 1.453 . S
C257 H286 0.982 . S
C257 H287 0.979 . S
C257 H288 0.977 . S
C258 C245 1.684 . S
C258 H283 0.979 . S
C258 H284 0.980 . S
C258 H285 0.983 . S
C259 C260 1.391 . S
C259 C264 1.391 . S
C259 H289 0.948 . S
C260 C259 1.391 . S
C260 C261 1.391 . S
C261 C260 1.391 . S
C261 C262 1.392 . S
C261 H290 0.947 . S
C262 C261 1.392 . S
C262 C263 1.419 . S
C262 H291 0.948 . S
C263 C262 1.419 . S
C263 C264 1.391 . S
C263 C267 1.397 . S
C264 C259 1.391 . S
C264 C263 1.391 . S
C264 C265 1.399 . S
C265 C264 1.399 . S
C265 C266 1.396 . S
C265 C268 1.453 . S
C265 C269 1.684 . S
C266 C247 1.723 . S
C266 C265 1.396 . S
C266 C267 1.394 . S
C267 C263 1.397 . S
C267 C266 1.394 . S
C267 C277 1.723 . S
C268 C265 1.453 . S
C268 H292 0.982 . S
C268 H293 0.979 . S
C268 H294 0.977 . S
C269 C265 1.684 . S
C269 H295 0.979 . S
C269 H296 0.980 . S
C269 H297 0.983 . S
C270 H246 0.948 . S
C270 C271 1.391 . S
C270 C275 1.391 . S
C271 C270 1.391 . S
C271 C272 1.391 . S
C272 H249 0.947 . S
C272 C271 1.391 . S
C272 C273 1.392 . S
C273 H250 0.948 . S
C273 C272 1.392 . S
C273 C274 1.419 . S
C274 C273 1.419 . S
C274 C275 1.391 . S
C274 C278 1.397 . S
C275 C270 1.391 . S
C275 C274 1.391 . S
C275 C276 1.399 . S
C276 C275 1.399 . S
C276 C277 1.396 . S
C276 C279 1.453 . S
C276 C280 1.684 . S
C277 C267 1.723 . S
C277 C276 1.396 . S
C277 C278 1.394 . S
C278 C248 1.723 . S
C278 C274 1.397 . S
C278 C277 1.394 . S
C279 H251 0.982 . S
C279 H255 0.979 . S
C279 H256 0.977 . S
C279 C276 1.453 . S
C280 H252 0.979 . S
C280 H253 0.980 . S
C280 H254 0.983 . S
C280 C276 1.684 . S
H281 C299 0.948 . S
H282 C240 0.948 . S
H283 C258 0.979 . S
H284 C258 0.980 . S
H285 C258 0.983 . S
H286 C257 0.982 . S
H287 C257 0.979 . S
H288 C257 0.977 . S
H289 C259 0.948 . S
H290 C261 0.947 . S
H291 C262 0.948 . S
H292 C268 0.982 . S
H293 C268 0.979 . S
H294 C268 0.977 . S
H295 C269 0.979 . S
H296 C269 0.980 . S
H297 C269 0.983 . S
H298 C242 0.947 . S
C299 C242 1.392 . S
C299 C243 1.419 . S
C299 H281 0.948 . S
C300 C301 1.391 . S
C300 C304 1.391 . S
C300 H342 0.948 . S
C301 C300 1.391 . S
C301 C302 1.391 . S
C302 C301 1.391 . S
C302 H358 0.947 . S
C302 C359 1.392 . S
C303 C304 1.391 . S
C303 C307 1.397 . S
C303 C359 1.419 . S
C304 C300 1.391 . S
C304 C303 1.391 . S
C304 C305 1.399 . S
C305 C304 1.399 . S
C305 C308 1.396 . S
C305 C317 1.453 . S
C305 C318 1.684 . S
H306 C330 0.948 . S
C307 C303 1.397 . S
C307 C308 1.394 . S
C307 C326 1.723 . S
C308 C305 1.396 . S
C308 C307 1.394 . S
C308 C338 1.723 . S
H309 C332 0.947 . S
H310 C333 0.948 . S
H311 C339 0.982 . S
H312 C340 0.979 . S
H313 C340 0.980 . S
H314 C340 0.983 . S
H315 C339 0.979 . S
H316 C339 0.977 . S
C317 C305 1.453 . S
C317 H346 0.982 . S
C317 H347 0.979 . S
C317 H348 0.977 . S
C318 C305 1.684 . S
C318 H343 0.979 . S
C318 H344 0.980 . S
C318 H345 0.983 . S
C319 C320 1.391 . S
C319 C324 1.391 . S
C319 H349 0.948 . S
C320 C319 1.391 . S
C320 C321 1.391 . S
C321 C320 1.391 . S
C321 C322 1.392 . S
C321 H350 0.947 . S
C322 C321 1.392 . S
C322 C323 1.419 . S
C322 H351 0.948 . S
C323 C322 1.419 . S
C323 C324 1.391 . S
C323 C327 1.397 . S
C324 C319 1.391 . S
C324 C323 1.391 . S
C324 C325 1.399 . S
C325 C324 1.399 . S
C325 C326 1.396 . S
C325 C328 1.453 . S
C325 C329 1.684 . S
C326 C307 1.723 . S
C326 C325 1.396 . S
C326 C327 1.394 . S
C327 C323 1.397 . S
C327 C326 1.394 . S
C327 C337 1.723 . S
C328 C325 1.453 . S
C328 H352 0.982 . S
C328 H353 0.979 . S
C328 H354 0.977 . S
C329 C325 1.684 . S
C329 H355 0.979 . S
C329 H356 0.980 . S
C329 H357 0.983 . S
C330 H306 0.948 . S
C330 C331 1.391 . S
C330 C335 1.391 . S
C331 C330 1.391 . S
C331 C332 1.391 . S
C332 H309 0.947 . S
C332 C331 1.391 . S
C332 C333 1.392 . S
C333 H310 0.948 . S
C333 C332 1.392 . S
C333 C334 1.419 . S
C334 C333 1.419 . S
C334 C335 1.391 . S
C334 C338 1.397 . S
C335 C330 1.391 . S
C335 C334 1.391 . S
C335 C336 1.399 . S
C336 C335 1.399 . S
C336 C337 1.396 . S
C336 C339 1.453 . S
C336 C340 1.684 . S
C337 C327 1.723 . S
C337 C336 1.396 . S
C337 C338 1.394 . S
C338 C308 1.723 . S
C338 C334 1.397 . S
C338 C337 1.394 . S
C339 H311 0.982 . S
C339 H315 0.979 . S
C339 H316 0.977 . S
C339 C336 1.453 . S
C340 H312 0.979 . S
C340 H313 0.980 . S
C340 H314 0.983 . S
C340 C336 1.684 . S
H341 C359 0.948 . S
H342 C300 0.948 . S
H343 C318 0.979 . S
H344 C318 0.980 . S
H345 C318 0.983 . S
H346 C317 0.982 . S
H347 C317 0.979 . S
H348 C317 0.977 . S
H349 C319 0.948 . S
H350 C321 0.947 . S
H351 C322 0.948 . S
H352 C328 0.982 . S
H353 C328 0.979 . S
H354 C328 0.977 . S
H355 C329 0.979 . S
H356 C329 0.980 . S
H357 C329 0.983 . S
H358 C302 0.947 . S
C359 C302 1.392 . S
C359 C303 1.419 . S
C359 H341 0.948 . S
C360 C361 1.391 . S
C360 C364 1.391 . S
C360 H402 0.948 . S
C361 C360 1.391 . S
C361 C362 1.391 . S
C362 C361 1.391 . S
C362 H418 0.947 . S
C362 C419 1.392 . S
C363 C364 1.391 . S
C363 C367 1.397 . S
C363 C419 1.419 . S
C364 C360 1.391 . S
C364 C363 1.391 . S
C364 C365 1.399 . S
C365 C364 1.399 . S
C365 C368 1.396 . S
C365 C377 1.453 . S
C365 C378 1.684 . S
H366 C390 0.948 . S
C367 C363 1.397 . S
C367 C368 1.394 . S
C367 C386 1.723 . S
C368 C365 1.396 . S
C368 C367 1.394 . S
C368 C398 1.723 . S
H369 C392 0.947 . S
H370 C393 0.948 . S
H371 C399 0.982 . S
H372 C400 0.979 . S
H373 C400 0.980 . S
H374 C400 0.983 . S
H375 C399 0.979 . S
H376 C399 0.977 . S
C377 C365 1.453 . S
C377 H406 0.982 . S
C377 H407 0.979 . S
C377 H408 0.977 . S
C378 C365 1.684 . S
C378 H403 0.979 . S
C378 H404 0.980 . S
C378 H405 0.983 . S
C379 C380 1.391 . S
C379 C384 1.391 . S
C379 H409 0.948 . S
C380 C379 1.391 . S
C380 C381 1.391 . S
C381 C380 1.391 . S
C381 C382 1.392 . S
C381 H410 0.947 . S
C382 C381 1.392 . S
C382 C383 1.419 . S
C382 H411 0.948 . S
C383 C382 1.419 . S
C383 C384 1.391 . S
C383 C387 1.397 . S
C384 C379 1.391 . S
C384 C383 1.391 . S
C384 C385 1.399 . S
C385 C384 1.399 . S
C385 C386 1.396 . S
C385 C388 1.453 . S
C385 C389 1.684 . S
C386 C367 1.723 . S
C386 C385 1.396 . S
C386 C387 1.394 . S
C387 C383 1.397 . S
C387 C386 1.394 . S
C387 C397 1.723 . S
C388 C385 1.453 . S
C388 H412 0.982 . S
C388 H413 0.979 . S
C388 H414 0.977 . S
C389 C385 1.684 . S
C389 H415 0.979 . S
C389 H416 0.980 . S
C389 H417 0.983 . S
C390 H366 0.948 . S
C390 C391 1.391 . S
C390 C395 1.391 . S
C391 C390 1.391 . S
C391 C392 1.391 . S
C392 H369 0.947 . S
C392 C391 1.391 . S
C392 C393 1.392 . S
C393 H370 0.948 . S
C393 C392 1.392 . S
C393 C394 1.419 . S
C394 C393 1.419 . S
C394 C395 1.391 . S
C394 C398 1.397 . S
C395 C390 1.391 . S
C395 C394 1.391 . S
C395 C396 1.399 . S
C396 C395 1.399 . S
C396 C397 1.396 . S
C396 C399 1.453 . S
C396 C400 1.684 . S
C397 C387 1.723 . S
C397 C396 1.396 . S
C397 C398 1.394 . S
C398 C368 1.723 . S
C398 C394 1.397 . S
C398 C397 1.394 . S
C399 H371 0.982 . S
C399 H375 0.979 . S
C399 H376 0.977 . S
C399 C396 1.453 . S
C400 H372 0.979 . S
C400 H373 0.980 . S
C400 H374 0.983 . S
C400 C396 1.684 . S
H401 C419 0.948 . S
H402 C360 0.948 . S
H403 C378 0.979 . S
H404 C378 0.980 . S
H405 C378 0.983 . S
H406 C377 0.982 . S
H407 C377 0.979 . S
H408 C377 0.977 . S
H409 C379 0.948 . S
H410 C381 0.947 . S
H411 C382 0.948 . S
H412 C388 0.982 . S
H413 C388 0.979 . S
H414 C388 0.977 . S
H415 C389 0.979 . S
H416 C389 0.980 . S
H417 C389 0.983 . S
H418 C362 0.947 . S
C419 C362 1.392 . S
C419 C363 1.419 . S
C419 H401 0.948 . S
C420 C421 1.391 . S
C420 C424 1.391 . S
C420 H462 0.948 . S
C421 C420 1.391 . S
C421 C422 1.391 . S
C422 C421 1.391 . S
C422 H478 0.947 . S
C422 C479 1.392 . S
C423 C424 1.391 . S
C423 C427 1.397 . S
C423 C479 1.419 . S
C424 C420 1.391 . S
C424 C423 1.391 . S
C424 C425 1.399 . S
C425 C424 1.399 . S
C425 C428 1.396 . S
C425 C437 1.453 . S
C425 C438 1.684 . S
H426 C450 0.948 . S
C427 C423 1.397 . S
C427 C428 1.394 . S
C427 C446 1.723 . S
C428 C425 1.396 . S
C428 C427 1.394 . S
C428 C458 1.723 . S
H429 C452 0.947 . S
H430 C453 0.948 . S
H431 C459 0.982 . S
H432 C460 0.979 . S
H433 C460 0.980 . S
H434 C460 0.983 . S
H435 C459 0.979 . S
H436 C459 0.977 . S
C437 C425 1.453 . S
C437 H466 0.982 . S
C437 H467 0.979 . S
C437 H468 0.977 . S
C438 C425 1.684 . S
C438 H463 0.979 . S
C438 H464 0.980 . S
C438 H465 0.983 . S
C439 C440 1.391 . S
C439 C444 1.391 . S
C439 H469 0.948 . S
C440 C439 1.391 . S
C440 C441 1.391 . S
C441 C440 1.391 . S
C441 C442 1.392 . S
C441 H470 0.947 . S
C442 C441 1.392 . S
C442 C443 1.419 . S
C442 H471 0.948 . S
C443 C442 1.419 . S
C443 C444 1.391 . S
C443 C447 1.397 . S
C444 C439 1.391 . S
C444 C443 1.391 . S
C444 C445 1.399 . S
C445 C444 1.399 . S
C445 C446 1.396 . S
C445 C448 1.453 . S
C445 C449 1.684 . S
C446 C427 1.723 . S
C446 C445 1.396 . S
C446 C447 1.394 . S
C447 C443 1.397 . S
C447 C446 1.394 . S
C447 C457 1.723 . S
C448 C445 1.453 . S
C448 H472 0.982 . S
C448 H473 0.979 . S
C448 H474 0.977 . S
C449 C445 1.684 . S
C449 H475 0.979 . S
C449 H476 0.980 . S
C449 H477 0.983 . S
C450 H426 0.948 . S
C450 C451 1.391 . S
C450 C455 1.391 . S
C451 C450 1.391 . S
C451 C452 1.391 . S
C452 H429 0.947 . S
C452 C451 1.391 . S
C452 C453 1.392 . S
C453 H430 0.948 . S
C453 C452 1.392 . S
C453 C454 1.419 . S
C454 C453 1.419 . S
C454 C455 1.391 . S
C454 C458 1.397 . S
C455 C450 1.391 . S
C455 C454 1.391 . S
C455 C456 1.399 . S
C456 C455 1.399 . S
C456 C457 1.396 . S
C456 C459 1.453 . S
C456 C460 1.684 . S
C457 C447 1.723 . S
C457 C456 1.396 . S
C457 C458 1.394 . S
C458 C428 1.723 . S
C458 C454 1.397 . S
C458 C457 1.394 . S
C459 H431 0.982 . S
C459 H435 0.979 . S
C459 H436 0.977 . S
C459 C456 1.453 . S
C460 H432 0.979 . S
C460 H433 0.980 . S
C460 H434 0.983 . S
C460 C456 1.684 . S
H461 C479 0.948 . S
H462 C420 0.948 . S
H463 C438 0.979 . S
H464 C438 0.980 . S
H465 C438 0.983 . S
H466 C437 0.982 . S
H467 C437 0.979 . S
H468 C437 0.977 . S
H469 C439 0.948 . S
H470 C441 0.947 . S
H471 C442 0.948 . S
H472 C448 0.982 . S
H473 C448 0.979 . S
H474 C448 0.977 . S
H475 C449 0.979 . S
H476 C449 0.980 . S
H477 C449 0.983 . S
H478 C422 0.947 . S
C479 C422 1.392 . S
C479 C423 1.419 . S
C479 H461 0.948 . S
C480 C481 1.391 . S
C480 C484 1.391 . S
C480 H522 0.948 . S
C481 C480 1.391 . S
C481 C482 1.391 . S
C482 C481 1.391 . S
C482 H538 0.947 . S
C482 C539 1.392 . S
C483 C484 1.391 . S
C483 C487 1.397 . S
C483 C539 1.419 . S
C484 C480 1.391 . S
C484 C483 1.391 . S
C484 C485 1.399 . S
C485 C484 1.399 . S
C485 C488 1.396 . S
C485 C497 1.453 . S
C485 C498 1.684 . S
H486 C510 0.948 . S
C487 C483 1.397 . S
C487 C488 1.394 . S
C487 C506 1.723 . S
C488 C485 1.396 . S
C488 C487 1.394 . S
C488 C518 1.723 . S
H489 C512 0.947 . S
H490 C513 0.948 . S
H491 C519 0.982 . S
H492 C520 0.979 . S
H493 C520 0.980 . S
H494 C520 0.983 . S
H495 C519 0.979 . S
H496 C519 0.977 . S
C497 C485 1.453 . S
C497 H526 0.982 . S
C497 H527 0.979 . S
C497 H528 0.977 . S
C498 C485 1.684 . S
C498 H523 0.979 . S
C498 H524 0.980 . S
C498 H525 0.983 . S
C499 C500 1.391 . S
C499 C504 1.391 . S
C499 H529 0.948 . S
C500 C499 1.391 . S
C500 C501 1.391 . S
C501 C500 1.391 . S
C501 C502 1.392 . S
C501 H530 0.947 . S
C502 C501 1.392 . S
C502 C503 1.419 . S
C502 H531 0.948 . S
C503 C502 1.419 . S
C503 C504 1.391 . S
C503 C507 1.397 . S
C504 C499 1.391 . S
C504 C503 1.391 . S
C504 C505 1.399 . S
C505 C504 1.399 . S
C505 C506 1.396 . S
C505 C508 1.453 . S
C505 C509 1.684 . S
C506 C487 1.723 . S
C506 C505 1.396 . S
C506 C507 1.394 . S
C507 C503 1.397 . S
C507 C506 1.394 . S
C507 C517 1.723 . S
C508 C505 1.453 . S
C508 H532 0.982 . S
C508 H533 0.979 . S
C508 H534 0.977 . S
C509 C505 1.684 . S
C509 H535 0.979 . S
C509 H536 0.980 . S
C509 H537 0.983 . S
C510 H486 0.948 . S
C510 C511 1.391 . S
C510 C515 1.391 . S
C511 C510 1.391 . S
C511 C512 1.391 . S
C512 H489 0.947 . S
C512 C511 1.391 . S
C512 C513 1.392 . S
C513 H490 0.948 . S
C513 C512 1.392 . S
C513 C514 1.419 . S
C514 C513 1.419 . S
C514 C515 1.391 . S
C514 C518 1.397 . S
C515 C510 1.391 . S
C515 C514 1.391 . S
C515 C516 1.399 . S
C516 C515 1.399 . S
C516 C517 1.396 . S
C516 C519 1.453 . S
C516 C520 1.684 . S
C517 C507 1.723 . S
C517 C516 1.396 . S
C517 C518 1.394 . S
C518 C488 1.723 . S
C518 C514 1.397 . S
C518 C517 1.394 . S
C519 H491 0.982 . S
C519 H495 0.979 . S
C519 H496 0.977 . S
C519 C516 1.453 . S
C520 H492 0.979 . S
C520 H493 0.980 . S
C520 H494 0.983 . S
C520 C516 1.684 . S
H521 C539 0.948 . S
H522 C480 0.948 . S
H523 C498 0.979 . S
H524 C498 0.980 . S
H525 C498 0.983 . S
H526 C497 0.982 . S
H527 C497 0.979 . S
H528 C497 0.977 . S
H529 C499 0.948 . S
H530 C501 0.947 . S
H531 C502 0.948 . S
H532 C508 0.982 . S
H533 C508 0.979 . S
H534 C508 0.977 . S
H535 C509 0.979 . S
H536 C509 0.980 . S
H537 C509 0.983 . S
H538 C482 0.947 . S
C539 C482 1.392 . S
C539 C483 1.419 . S
C539 H521 0.948 . S
C540 C541 1.391 . S
C540 C544 1.391 . S
C540 H582 0.948 . S
C541 C540 1.391 . S
C541 C542 1.391 . S
C542 C541 1.391 . S
C542 H598 0.947 . S
C542 C599 1.392 . S
C543 C544 1.391 . S
C543 C547 1.397 . S
C543 C599 1.419 . S
C544 C540 1.391 . S
C544 C543 1.391 . S
C544 C545 1.399 . S
C545 C544 1.399 . S
C545 C548 1.396 . S
C545 C557 1.453 . S
C545 C558 1.684 . S
H546 C570 0.948 . S
C547 C543 1.397 . S
C547 C548 1.394 . S
C547 C566 1.723 . S
C548 C545 1.396 . S
C548 C547 1.394 . S
C548 C578 1.723 . S
H549 C572 0.947 . S
H550 C573 0.948 . S
H551 C579 0.982 . S
H552 C580 0.979 . S
H553 C580 0.980 . S
H554 C580 0.983 . S
H555 C579 0.979 . S
H556 C579 0.977 . S
C557 C545 1.453 . S
C557 H586 0.982 . S
C557 H587 0.979 . S
C557 H588 0.977 . S
C558 C545 1.684 . S
C558 H583 0.979 . S
C558 H584 0.980 . S
C558 H585 0.983 . S
C559 C560 1.391 . S
C559 C564 1.391 . S
C559 H589 0.948 . S
C560 C559 1.391 . S
C560 C561 1.391 . S
C561 C560 1.391 . S
C561 C562 1.392 . S
C561 H590 0.947 . S
C562 C561 1.392 . S
C562 C563 1.419 . S
C562 H591 0.948 . S
C563 C562 1.419 . S
C563 C564 1.391 . S
C563 C567 1.397 . S
C564 C559 1.391 . S
C564 C563 1.391 . S
C564 C565 1.399 . S
C565 C564 1.399 . S
C565 C566 1.396 . S
C565 C568 1.453 . S
C565 C569 1.684 . S
C566 C547 1.723 . S
C566 C565 1.396 . S
C566 C567 1.394 . S
C567 C563 1.397 . S
C567 C566 1.394 . S
C567 C577 1.723 . S
C568 C565 1.453 . S
C568 H592 0.982 . S
C568 H593 0.979 . S
C568 H594 0.977 . S
C569 C565 1.684 . S
C569 H595 0.979 . S
C569 H596 0.980 . S
C569 H597 0.983 . S
C570 H546 0.948 . S
C570 C571 1.391 . S
C570 C575 1.391 . S
C571 C570 1.391 . S
C571 C572 1.391 . S
C572 H549 0.947 . S
C572 C571 1.391 . S
C572 C573 1.392 . S
C573 H550 0.948 . S
C573 C572 1.392 . S
C573 C574 1.419 . S
C574 C573 1.419 . S
C574 C575 1.391 . S
C574 C578 1.397 . S
C575 C570 1.391 . S
C575 C574 1.391 . S
C575 C576 1.399 . S
C576 C575 1.399 . S
C576 C577 1.396 . S
C576 C579 1.453 . S
C576 C580 1.684 . S
C577 C567 1.723 . S
C577 C576 1.396 . S
C577 C578 1.394 . S
C578 C548 1.723 . S
C578 C574 1.397 . S
C578 C577 1.394 . S
C579 H551 0.982 . S
C579 H555 0.979 . S
C579 H556 0.977 . S
C579 C576 1.453 . S
C580 H552 0.979 . S
C580 H553 0.980 . S
C580 H554 0.983 . S
C580 C576 1.684 . S
H581 C599 0.948 . S
H582 C540 0.948 . S
H583 C558 0.979 . S
H584 C558 0.980 . S
H585 C558 0.983 . S
H586 C557 0.982 . S
H587 C557 0.979 . S
H588 C557 0.977 . S
H589 C559 0.948 . S
H590 C561 0.947 . S
H591 C562 0.948 . S
H592 C568 0.982 . S
H593 C568 0.979 . S
H594 C568 0.977 . S
H595 C569 0.979 . S
H596 C569 0.980 . S
H597 C569 0.983 . S
H598 C542 0.947 . S
C599 C542 1.392 . S
C599 C543 1.419 . S
C599 H581 0.948 . S
C600 C601 1.391 . S
C600 C604 1.391 . S
C600 H642 0.948 . S
C601 C600 1.391 . S
C601 C602 1.391 . S
C602 C601 1.391 . S
C602 H658 0.947 . S
C602 C659 1.392 . S
C603 C604 1.391 . S
C603 C607 1.397 . S
C603 C659 1.419 . S
C604 C600 1.391 . S
C604 C603 1.391 . S
C604 C605 1.399 . S
C605 C604 1.399 . S
C605 C608 1.396 . S
C605 C617 1.453 . S
C605 C618 1.684 . S
H606 C630 0.948 . S
C607 C603 1.397 . S
C607 C608 1.394 . S
C607 C626 1.723 . S
C608 C605 1.396 . S
C608 C607 1.394 . S
C608 C638 1.723 . S
H609 C632 0.947 . S
H610 C633 0.948 . S
H611 C639 0.982 . S
H612 C640 0.979 . S
H613 C640 0.980 . S
H614 C640 0.983 . S
H615 C639 0.979 . S
H616 C639 0.977 . S
C617 C605 1.453 . S
C617 H646 0.982 . S
C617 H647 0.979 . S
C617 H648 0.977 . S
C618 C605 1.684 . S
C618 H643 0.979 . S
C618 H644 0.980 . S
C618 H645 0.983 . S
C619 C620 1.391 . S
C619 C624 1.391 . S
C619 H649 0.948 . S
C620 C619 1.391 . S
C620 C621 1.391 . S
C621 C620 1.391 . S
C621 C622 1.392 . S
C621 H650 0.947 . S
C622 C621 1.392 . S
C622 C623 1.419 . S
C622 H651 0.948 . S
C623 C622 1.419 . S
C623 C624 1.391 . S
C623 C627 1.397 . S
C624 C619 1.391 . S
C624 C623 1.391 . S
C624 C625 1.399 . S
C625 C624 1.399 . S
C625 C626 1.396 . S
C625 C628 1.453 . S
C625 C629 1.684 . S
C626 C607 1.723 . S
C626 C625 1.396 . S
C626 C627 1.394 . S
C627 C623 1.397 . S
C627 C626 1.394 . S
C627 C637 1.723 . S
C628 C625 1.453 . S
C628 H652 0.982 . S
C628 H653 0.979 . S
C628 H654 0.977 . S
C629 C625 1.684 . S
C629 H655 0.979 . S
C629 H656 0.980 . S
C629 H657 0.983 . S
C630 H606 0.948 . S
C630 C631 1.391 . S
C630 C635 1.391 . S
C631 C630 1.391 . S
C631 C632 1.391 . S
C632 H609 0.947 . S
C632 C631 1.391 . S
C632 C633 1.392 . S
C633 H610 0.948 . S
C633 C632 1.392 . S
C633 C634 1.419 . S
C634 C633 1.419 . S
C634 C635 1.391 . S
C634 C638 1.397 . S
C635 C630 1.391 . S
C635 C634 1.391 . S
C635 C636 1.399 . S
C636 C635 1.399 . S
C636 C637 1.396 . S
C636 C639 1.453 . S
C636 C640 1.684 . S
C637 C627 1.723 . S
C637 C636 1.396 . S
C637 C638 1.394 . S
C638 C608 1.723 . S
C638 C634 1.397 . S
C638 C637 1.394 . S
C639 H611 0.982 . S
C639 H615 0.979 . S
C639 H616 0.977 . S
C639 C636 1.453 . S
C640 H612 0.979 . S
C640 H613 0.980 . S
C640 H614 0.983 . S
C640 C636 1.684 . S
H641 C659 0.948 . S
H642 C600 0.948 . S
H643 C618 0.979 . S
H644 C618 0.980 . S
H645 C618 0.983 . S
H646 C617 0.982 . S
H647 C617 0.979 . S
H648 C617 0.977 . S
H649 C619 0.948 . S
H650 C621 0.947 . S
H651 C622 0.948 . S
H652 C628 0.982 . S
H653 C628 0.979 . S
H654 C628 0.977 . S
H655 C629 0.979 . S
H656 C629 0.980 . S
H657 C629 0.983 . S
H658 C602 0.947 . S
C659 C602 1.392 . S
C659 C603 1.419 . S
C659 H641 0.948 . S
C660 C661 1.391 . S
C660 C664 1.391 . S
C660 H702 0.948 . S
C661 C660 1.391 . S
C661 C662 1.391 . S
C662 C661 1.391 . S
C662 H718 0.947 . S
C662 C719 1.392 . S
C663 C664 1.391 . S
C663 C667 1.397 . S
C663 C719 1.419 . S
C664 C660 1.391 . S
C664 C663 1.391 . S
C664 C665 1.399 . S
C665 C664 1.399 . S
C665 C668 1.396 . S
C665 C677 1.453 . S
C665 C678 1.684 . S
H666 C690 0.948 . S
C667 C663 1.397 . S
C667 C668 1.394 . S
C667 C686 1.723 . S
C668 C665 1.396 . S
C668 C667 1.394 . S
C668 C698 1.723 . S
H669 C692 0.947 . S
H670 C693 0.948 . S
H671 C699 0.982 . S
H672 C700 0.979 . S
H673 C700 0.980 . S
H674 C700 0.983 . S
H675 C699 0.979 . S
H676 C699 0.977 . S
C677 C665 1.453 . S
C677 H706 0.982 . S
C677 H707 0.979 . S
C677 H708 0.977 . S
C678 C665 1.684 . S
C678 H703 0.979 . S
C678 H704 0.980 . S
C678 H705 0.983 . S
C679 C680 1.391 . S
C679 C684 1.391 . S
C679 H709 0.948 . S
C680 C679 1.391 . S
C680 C681 1.391 . S
C681 C680 1.391 . S
C681 C682 1.392 . S
C681 H710 0.947 . S
C682 C681 1.392 . S
C682 C683 1.419 . S
C682 H711 0.948 . S
C683 C682 1.419 . S
C683 C684 1.391 . S
C683 C687 1.397 . S
C684 C679 1.391 . S
C684 C683 1.391 . S
C684 C685 1.399 . S
C685 C684 1.399 . S
C685 C686 1.396 . S
C685 C688 1.453 . S
C685 C689 1.684 . S
C686 C667 1.723 . S
C686 C685 1.396 . S
C686 C687 1.394 . S
C687 C683 1.397 . S
C687 C686 1.394 . S
C687 C697 1.723 . S
C688 C685 1.453 . S
C688 H712 0.982 . S
C688 H713 0.979 . S
C688 H714 0.977 . S
C689 C685 1.684 . S
C689 H715 0.979 . S
C689 H716 0.980 . S
C689 H717 0.983 . S
C690 H666 0.948 . S
C690 C691 1.391 . S
C690 C695 1.391 . S
C691 C690 1.391 . S
C691 C692 1.391 . S
C692 H669 0.947 . S
C692 C691 1.391 . S
C692 C693 1.392 . S
C693 H670 0.948 . S
C693 C692 1.392 . S
C693 C694 1.419 . S
C694 C693 1.419 . S
C694 C695 1.391 . S
C694 C698 1.397 . S
C695 C690 1.391 . S
C695 C694 1.391 . S
C695 C696 1.399 . S
C696 C695 1.399 . S
C696 C697 1.396 . S
C696 C699 1.453 . S
C696 C700 1.684 . S
C697 C687 1.723 . S
C697 C696 1.396 . S
C697 C698 1.394 . S
C698 C668 1.723 . S
C698 C694 1.397 . S
C698 C697 1.394 . S
C699 H671 0.982 . S
C699 H675 0.979 . S
C699 H676 0.977 . S
C699 C696 1.453 . S
C700 H672 0.979 . S
C700 H673 0.980 . S
C700 H674 0.983 . S
C700 C696 1.684 . S
H701 C719 0.948 . S
H702 C660 0.948 . S
H703 C678 0.979 . S
H704 C678 0.980 . S
H705 C678 0.983 . S
H706 C677 0.982 . S
H707 C677 0.979 . S
H708 C677 0.977 . S
H709 C679 0.948 . S
H710 C681 0.947 . S
H711 C682 0.948 . S
H712 C688 0.982 . S
H713 C688 0.979 . S
H714 C688 0.977 . S
H715 C689 0.979 . S
H716 C689 0.980 . S
H717 C689 0.983 . S
H718 C662 0.947 . S
C719 C662 1.392 . S
C719 C663 1.419 . S
C719 H701 0.948 . S
C720 C721 1.391 . S
C720 C724 1.391 . S
C720 H762 0.948 . S
C721 C720 1.391 . S
C721 C722 1.391 . S
C722 C721 1.391 . S
C722 H778 0.947 . S
C722 C779 1.392 . S
C723 C724 1.391 . S
C723 C727 1.397 . S
C723 C779 1.419 . S
C724 C720 1.391 . S
C724 C723 1.391 . S
C724 C725 1.399 . S
C725 C724 1.399 . S
C725 C728 1.396 . S
C725 C737 1.453 . S
C725 C738 1.684 . S
H726 C750 0.948 . S
C727 C723 1.397 . S
C727 C728 1.394 . S
C727 C746 1.723 . S
C728 C725 1.396 . S
C728 C727 1.394 . S
C728 C758 1.723 . S
H729 C752 0.947 . S
H730 C753 0.948 . S
H731 C759 0.982 . S
H732 C760 0.979 . S
H733 C760 0.980 . S
H734 C760 0.983 . S
H735 C759 0.979 . S
H736 C759 0.977 . S
C737 C725 1.453 . S
C737 H766 0.982 . S
C737 H767 0.979 . S
C737 H768 0.977 . S
C738 C725 1.684 . S
C738 H763 0.979 . S
C738 H764 0.980 . S
C738 H765 0.983 . S
C739 C740 1.391 . S
C739 C744 1.391 . S
C739 H769 0.948 . S
C740 C739 1.391 . S
C740 C741 1.391 . S
C741 C740 1.391 . S
C741 C742 1.392 . S
C741 H770 0.947 . S
C742 C741 1.392 . S
C742 C743 1.419 . S
C742 H771 0.948 . S
C743 C742 1.419 . S
C743 C744 1.391 . S
C743 C747 1.397 . S
C744 C739 1.391 . S
C744 C743 1.391 . S
C744 C745 1.399 . S
C745 C744 1.399 . S
C745 C746 1.396 . S
C745 C748 1.453 . S
C745 C749 1.684 . S
C746 C727 1.723 . S
C746 C745 1.396 . S
C746 C747 1.394 . S
C747 C743 1.397 . S
C747 C746 1.394 . S
C747 C757 1.723 . S
C748 C745 1.453 . S
C748 H772 0.982 . S
C748 H773 0.979 . S
C748 H774 0.977 . S
C749 C745 1.684 . S
C749 H775 0.979 . S
C749 H776 0.980 . S
C749 H777 0.983 . S
C750 H726 0.948 . S
C750 C751 1.391 . S
C750 C755 1.391 . S
C751 C750 1.391 . S
C751 C752 1.391 . S
C752 H729 0.947 . S
C752 C751 1.391 . S
C752 C753 1.392 . S
C753 H730 0.948 . S
C753 C752 1.392 . S
C753 C754 1.419 . S
C754 C753 1.419 . S
C754 C755 1.391 . S
C754 C758 1.397 . S
C755 C750 1.391 . S
C755 C754 1.391 . S
C755 C756 1.399 . S
C756 C755 1.399 . S
C756 C757 1.396 . S
C756 C759 1.453 . S
C756 C760 1.684 . S
C757 C747 1.723 . S
C757 C756 1.396 . S
C757 C758 1.394 . S
C758 C728 1.723 . S
C758 C754 1.397 . S
C758 C757 1.394 . S
C759 H731 0.982 . S
C759 H735 0.979 . S
C759 H736 0.977 . S
C759 C756 1.453 . S
C760 H732 0.979 . S
C760 H733 0.980 . S
C760 H734 0.983 . S
C760 C756 1.684 . S
H761 C779 0.948 . S
H762 C720 0.948 . S
H763 C738 0.979 . S
H764 C738 0.980 . S
H765 C738 0.983 . S
H766 C737 0.982 . S
H767 C737 0.979 . S
H768 C737 0.977 . S
H769 C739 0.948 . S
H770 C741 0.947 . S
H771 C742 0.948 . S
H772 C748 0.982 . S
H773 C748 0.979 . S
H774 C748 0.977 . S
H775 C749 0.979 . S
H776 C749 0.980 . S
H777 C749 0.983 . S
H778 C722 0.947 . S
C779 C722 1.392 . S
C779 C723 1.419 . S
C779 H761 0.948 . S
C780 C781 1.391 . S
C780 C784 1.391 . S
C780 H822 0.948 . S
C781 C780 1.391 . S
C781 C782 1.391 . S
C782 C781 1.391 . S
C782 H838 0.947 . S
C782 C839 1.392 . S
C783 C784 1.391 . S
C783 C787 1.397 . S
C783 C839 1.419 . S
C784 C780 1.391 . S
C784 C783 1.391 . S
C784 C785 1.399 . S
C785 C784 1.399 . S
C785 C788 1.396 . S
C785 C797 1.453 . S
C785 C798 1.684 . S
H786 C810 0.948 . S
C787 C783 1.397 . S
C787 C788 1.394 . S
C787 C806 1.723 . S
C788 C785 1.396 . S
C788 C787 1.394 . S
C788 C818 1.723 . S
H789 C812 0.947 . S
H790 C813 0.948 . S
H791 C819 0.982 . S
H792 C820 0.979 . S
H793 C820 0.980 . S
H794 C820 0.983 . S
H795 C819 0.979 . S
H796 C819 0.977 . S
C797 C785 1.453 . S
C797 H826 0.982 . S
C797 H827 0.979 . S
C797 H828 0.977 . S
C798 C785 1.684 . S
C798 H823 0.979 . S
C798 H824 0.980 . S
C798 H825 0.983 . S
C799 C800 1.391 . S
C799 C804 1.391 . S
C799 H829 0.948 . S
C800 C799 1.391 . S
C800 C801 1.391 . S
C801 C800 1.391 . S
C801 C802 1.392 . S
C801 H830 0.947 . S
C802 C801 1.392 . S
C802 C803 1.419 . S
C802 H831 0.948 . S
C803 C802 1.419 . S
C803 C804 1.391 . S
C803 C807 1.397 . S
C804 C799 1.391 . S
C804 C803 1.391 . S
C804 C805 1.399 . S
C805 C804 1.399 . S
C805 C806 1.396 . S
C805 C808 1.453 . S
C805 C809 1.684 . S
C806 C787 1.723 . S
C806 C805 1.396 . S
C806 C807 1.394 . S
C807 C803 1.397 . S
C807 C806 1.394 . S
C807 C817 1.723 . S
C808 C805 1.453 . S
C808 H832 0.982 . S
C808 H833 0.979 . S
C808 H834 0.977 . S
C809 C805 1.684 . S
C809 H835 0.979 . S
C809 H836 0.980 . S
C809 H837 0.983 . S
C810 H786 0.948 . S
C810 C811 1.391 . S
C810 C815 1.391 . S
C811 C810 1.391 . S
C811 C812 1.391 . S
C812 H789 0.947 . S
C812 C811 1.391 . S
C812 C813 1.392 . S
C813 H790 0.948 . S
C813 C812 1.392 . S
C813 C814 1.419 . S
C814 C813 1.419 . S
C814 C815 1.391 . S
C814 C818 1.397 . S
C815 C810 1.391 . S
C815 C814 1.391 . S
C815 C816 1.399 . S
C816 C815 1.399 . S
C816 C817 1.396 . S
C816 C819 1.453 . S
C816 C820 1.684 . S
C817 C807 1.723 . S
C817 C816 1.396 . S
C817 C818 1.394 . S
C818 C788 1.723 . S
C818 C814 1.397 . S
C818 C817 1.394 . S
C819 H791 0.982 . S
C819 H795 0.979 . S
C819 H796 0.977 . S
C819 C816 1.453 . S
C820 H792 0.979 . S
C820 H793 0.980 . S
C820 H794 0.983 . S
C820 C816 1.684 . S
H821 C839 0.948 . S
H822 C780 0.948 . S
H823 C798 0.979 . S
H824 C798 0.980 . S
H825 C798 0.983 . S
H826 C797 0.982 . S
H827 C797 0.979 . S
H828 C797 0.977 . S
H829 C799 0.948 . S
H830 C801 0.947 . S
H831 C802 0.948 . S
H832 C808 0.982 . S
H833 C808 0.979 . S
H834 C808 0.977 . S
H835 C809 0.979 . S
H836 C809 0.980 . S
H837 C809 0.983 . S
H838 C782 0.947 . S
C839 C782 1.392 . S
C839 C783 1.419 . S
C839 H821 0.948 . S
C840 C841 1.391 . S
C840 C844 1.391 . S
C840 H882 0.948 . S
C841 C840 1.391 . S
C841 C842 1.391 . S
C842 C841 1.391 . S
C842 H898 0.947 . S
C842 C899 1.392 . S
C843 C844 1.391 . S
C843 C847 1.397 . S
C843 C899 1.419 . S
C844 C840 1.391 . S
C844 C843 1.391 . S
C844 C845 1.399 . S
C845 C844 1.399 . S
C845 C848 1.396 . S
C845 C857 1.453 . S
C845 C858 1.684 . S
H846 C870 0.948 . S
C847 C843 1.397 . S
C847 C848 1.394 . S
C847 C866 1.723 . S
C848 C845 1.396 . S
C848 C847 1.394 . S
C848 C878 1.723 . S
H849 C872 0.947 . S
H850 C873 0.948 . S
H851 C879 0.982 . S
H852 C880 0.979 . S
H853 C880 0.980 . S
H854 C880 0.983 . S
H855 C879 0.979 . S
H856 C879 0.977 . S
C857 C845 1.453 . S
C857 H886 0.982 . S
C857 H887 0.979 . S
C857 H888 0.977 . S
C858 C845 1.684 . S
C858 H883 0.979 . S
C858 H884 0.980 . S
C858 H885 0.983 . S
C859 C860 1.391 . S
C859 C864 1.391 . S
C859 H889 0.948 . S
C860 C859 1.391 . S
C860 C861 1.391 . S
C861 C860 1.391 . S
C861 C862 1.392 . S
C861 H890 0.947 . S
C862 C861 1.392 . S
C862 C863 1.419 . S
C862 H891 0.948 . S
C863 C862 1.419 . S
C863 C864 1.391 . S
C863 C867 1.397 . S
C864 C859 1.391 . S
C864 C863 1.391 . S
C864 C865 1.399 . S
C865 C864 1.399 . S
C865 C866 1.396 . S
C865 C868 1.453 . S
C865 C869 1.684 . S
C866 C847 1.723 . S
C866 C865 1.396 . S
C866 C867 1.394 . S
C867 C863 1.397 . S
C867 C866 1.394 . S
C867 C877 1.723 . S
C868 C865 1.453 . S
C868 H892 0.982 . S
C868 H893 0.979 . S
C868 H894 0.977 . S
C869 C865 1.684 . S
C869 H895 0.979 . S
C869 H896 0.980 . S
C869 H897 0.983 . S
C870 H846 0.948 . S
C870 C871 1.391 . S
C870 C875 1.391 . S
C871 C870 1.391 . S
C871 C872 1.391 . S
C872 H849 0.947 . S
C872 C871 1.391 . S
C872 C873 1.392 . S
C873 H850 0.948 . S
C873 C872 1.392 . S
C873 C874 1.419 . S
C874 C873 1.419 . S
C874 C875 1.391 . S
C874 C878 1.397 . S
C875 C870 1.391 . S
C875 C874 1.391 . S
C875 C876 1.399 . S
C876 C875 1.399 . S
C876 C877 1.396 . S
C876 C879 1.453 . S
C876 C880 1.684 . S
C877 C867 1.723 . S
C877 C876 1.396 . S
C877 C878 1.394 . S
C878 C848 1.723 . S
C878 C874 1.397 . S
C878 C877 1.394 . S
C879 H851 0.982 . S
C879 H855 0.979 . S
C879 H856 0.977 . S
C879 C876 1.453 . S
C880 H852 0.979 . S
C880 H853 0.980 . S
C880 H854 0.983 . S
C880 C876 1.684 . S
H881 C899 0.948 . S
H882 C840 0.948 . S
H883 C858 0.979 . S
H884 C858 0.980 . S
H885 C858 0.983 . S
H886 C857 0.982 . S
H887 C857 0.979 . S
H888 C857 0.977 . S
H889 C859 0.948 . S
H890 C861 0.947 . S
H891 C862 0.948 . S
H892 C868 0.982 . S
H893 C868 0.979 . S
H894 C868 0.977 . S
H895 C869 0.979 . S
H896 C869 0.980 . S
H897 C869 0.983 . S
H898 C842 0.947 . S
C899 C842 1.392 . S
C899 C843 1.419 . S
C899 H881 0.948 . S
C900 C901 1.391 . S
C900 C904 1.391 . S
C900 H942 0.948 . S
C901 C900 1.391 . S
C901 C902 1.391 . S
C902 C901 1.391 . S
C902 H958 0.947 . S
C902 C959 1.392 . S
C903 C904 1.391 . S
C903 C907 1.397 . S
C903 C959 1.419 . S
C904 C900 1.391 . S
C904 C903 1.391 . S
C904 C905 1.399 . S
C905 C904 1.399 . S
C905 C908 1.396 . S
C905 C917 1.453 . S
C905 C918 1.684 . S
H906 C930 0.948 . S
C907 C903 1.397 . S
C907 C908 1.394 . S
C907 C926 1.723 . S
C908 C905 1.396 . S
C908 C907 1.394 . S
C908 C938 1.723 . S
H909 C932 0.947 . S
H910 C933 0.948 . S
H911 C939 0.982 . S
H912 C940 0.979 . S
H913 C940 0.980 . S
H914 C940 0.983 . S
H915 C939 0.979 . S
H916 C939 0.977 . S
C917 C905 1.453 . S
C917 H946 0.982 . S
C917 H947 0.979 . S
C917 H948 0.977 . S
C918 C905 1.684 . S
C918 H943 0.979 . S
C918 H944 0.980 . S
C918 H945 0.983 . S
C919 C920 1.391 . S
C919 C924 1.391 . S
C919 H949 0.948 . S
C920 C919 1.391 . S
C920 C921 1.391 . S
C921 C920 1.391 . S
C921 C922 1.392 . S
C921 H950 0.947 . S
C922 C921 1.392 . S
C922 C923 1.419 . S
C922 H951 0.948 . S
C923 C922 1.419 . S
C923 C924 1.391 . S
C923 C927 1.397 . S
C924 C919 1.391 . S
C924 C923 1.391 . S
C924 C925 1.399 . S
C925 C924 1.399 . S
C925 C926 1.396 . S
C925 C928 1.453 . S
C925 C929 1.684 . S
C926 C907 1.723 . S
C926 C925 1.396 . S
C926 C927 1.394 . S
C927 C923 1.397 . S
C927 C926 1.394 . S
C927 C937 1.723 . S
C928 C925 1.453 . S
C928 H952 0.982 . S
C928 H953 0.979 . S
C928 H954 0.977 . S
C929 C925 1.684 . S
C929 H955 0.979 . S
C929 H956 0.980 . S
C929 H957 0.983 . S
C930 H906 0.948 . S
C930 C931 1.391 . S
C930 C935 1.391 . S
C931 C930 1.391 . S
C931 C932 1.391 . S
C932 H909 0.947 . S
C932 C931 1.391 . S
C932 C933 1.392 . S
C933 H910 0.948 . S
C933 C932 1.392 . S
C933 C934 1.419 . S
C934 C933 1.419 . S
C934 C935 1.391 . S
C934 C938 1.397 . S
C935 C930 1.391 . S
C935 C934 1.391 . S
C935 C936 1.399 . S
C936 C935 1.399 . S
C936 C937 1.396 . S
C936 C939 1.453 . S
C936 C940 1.684 . S
C937 C927 1.723 . S
C937 C936 1.396 . S
C937 C938 1.394 . S
C938 C908 1.723 . S
C938 C934 1.397 . S
C938 C937 1.394 . S
C939 H911 0.982 . S
C939 H915 0.979 . S
C939 H916 0.977 . S
C939 C936 1.453 . S
C940 H912 0.979 . S
C940 H913 0.980 . S
C940 H914 0.983 . S
C940 C936 1.684 . S
H941 C959 0.948 . S
H942 C900 0.948 . S
H943 C918 0.979 . S
H944 C918 0.980 . S
H945 C918 0.983 . S
H946 C917 0.982 . S
H947 C917 0.979 . S
H948 C917 0.977 . S
H949 C919 0.948 . S
H950 C921 0.947 . S
H951 C922 0.948 . S
H952 C928 0.982 . S
H953 C928 0.979 . S
H954 C928 0.977 . S
H955 C929 0.979 . S
H956 C929 0.980 . S
H957 C929 0.983 . S
H958 C902 0.947 . S
C959 C902 1.392 . S
C959 C903 1.419 . S
C959 H941 0.948 . S
C960 C961 1.391 . S
C960 C964 1.391 . S
C960 H1002 0.948 . S
C961 C960 1.391 . S
C961 C962 1.391 . S
C962 C961 1.391 . S
C962 H1018 0.947 . S
C962 C1019 1.392 . S
C963 C964 1.391 . S
C963 C967 1.397 . S
C963 C1019 1.419 . S
C964 C960 1.391 . S
C964 C963 1.391 . S
C964 C965 1.399 . S
C965 C964 1.399 . S
C965 C968 1.396 . S
C965 C977 1.453 . S
C965 C978 1.684 . S
H966 C990 0.948 . S
C967 C963 1.397 . S
C967 C968 1.394 . S
C967 C986 1.723 . S
C968 C965 1.396 . S
C968 C967 1.394 . S
C968 C998 1.723 . S
H969 C992 0.947 . S
H970 C993 0.948 . S
H971 C999 0.982 . S
H972 C1000 0.979 . S
H973 C1000 0.980 . S
H974 C1000 0.983 . S
H975 C999 0.979 . S
H976 C999 0.977 . S
C977 C965 1.453 . S
C977 H1006 0.982 . S
C977 H1007 0.979 . S
C977 H1008 0.977 . S
C978 C965 1.684 . S
C978 H1003 0.979 . S
C978 H1004 0.980 . S
C978 H1005 0.983 . S
C979 C980 1.391 . S
C979 C984 1.391 . S
C979 H1009 0.948 . S
C980 C979 1.391 . S
C980 C981 1.391 . S
C981 C980 1.391 . S
C981 C982 1.392 . S
C981 H1010 0.947 . S
C982 C981 1.392 . S
C982 C983 1.419 . S
C982 H1011 0.948 . S
C983 C982 1.419 . S
C983 C984 1.391 . S
C983 C987 1.397 . S
C984 C979 1.391 . S
C984 C983 1.391 . S
C984 C985 1.399 . S
C985 C984 1.399 . S
C985 C986 1.396 . S
C985 C988 1.453 . S
C985 C989 1.684 . S
C986 C967 1.723 . S
C986 C985 1.396 . S
C986 C987 1.394 . S
C987 C983 1.397 . S
C987 C986 1.394 . S
C987 C997 1.723 . S
C988 C985 1.453 . S
C988 H1012 0.982 . S
C988 H1013 0.979 . S
C988 H1014 0.977 . S
C989 C985 1.684 . S
C989 H1015 0.979 1_455 S
C989 H1016 0.980 . S
C989 H1017 0.983 . S
C990 H966 0.948 . S
C990 C991 1.391 . S
C990 C995 1.391 . S
C991 C990 1.391 . S
C991 C992 1.391 . S
C992 H969 0.947 . S
C992 C991 1.391 . S
C992 C993 1.392 . S
C993 H970 0.948 . S
C993 C992 1.392 . S
C993 C994 1.419 . S
C994 C993 1.419 . S
C994 C995 1.391 . S
C994 C998 1.397 . S
C995 C990 1.391 . S
C995 C994 1.391 . S
C995 C996 1.399 . S
C996 C995 1.399 . S
C996 C997 1.396 . S
C996 C999 1.453 . S
C996 C1000 1.684 . S
C997 C987 1.723 . S
C997 C996 1.396 . S
C997 C998 1.394 . S
C998 C968 1.723 . S
C998 C994 1.397 . S
C998 C997 1.394 . S
C999 H971 0.982 . S
C999 H975 0.979 . S
C999 H976 0.977 . S
C999 C996 1.453 . S
C1000 H972 0.979 . S
C1000 H973 0.980 . S
C1000 H974 0.983 . S
C1000 C996 1.684 . S
H1001 C1019 0.948 . S
H1002 C960 0.948 . S
H1003 C978 0.979 . S
H1004 C978 0.980 . S
H1005 C978 0.983 . S
H1006 C977 0.982 . S
H1007 C977 0.979 . S
H1008 C977 0.977 . S
H1009 C979 0.948 . S
H1010 C981 0.947 . S
H1011 C982 0.948 . S
H1012 C988 0.982 . S
H1013 C988 0.979 . S
H1014 C988 0.977 . S
H1015 C989 0.979 1_655 S
H1016 C989 0.980 . S
H1017 C989 0.983 . S
H1018 C962 0.947 . S
C1019 C962 1.392 . S
C1019 C963 1.419 . S
C1019 H1001 0.948 . S
C1020 C1021 1.391 . S
C1020 C1024 1.391 . S
C1020 H1062 0.948 . S
C1021 C1020 1.391 . S
C1021 C1022 1.391 . S
C1022 C1021 1.391 . S
C1022 H1078 0.947 . S
C1022 C1079 1.392 . S
C1023 C1024 1.391 . S
C1023 C1027 1.397 . S
C1023 C1079 1.419 . S
C1024 C1020 1.391 . S
C1024 C1023 1.391 . S
C1024 C1025 1.399 . S
C1025 C1024 1.399 . S
C1025 C1028 1.396 . S
C1025 C1037 1.453 . S
C1025 C1038 1.684 . S
H1026 C1050 0.948 . S
C1027 C1023 1.397 . S
C1027 C1028 1.394 . S
C1027 C1046 1.723 . S
C1028 C1025 1.396 . S
C1028 C1027 1.394 . S
C1028 C1058 1.723 . S
H1029 C1052 0.947 . S
H1030 C1053 0.948 . S
H1031 C1059 0.982 . S
H1032 C1060 0.979 . S
H1033 C1060 0.980 . S
H1034 C1060 0.983 . S
H1035 C1059 0.979 . S
H1036 C1059 0.977 . S
C1037 C1025 1.453 . S
C1037 H1066 0.982 . S
C1037 H1067 0.979 . S
C1037 H1068 0.977 . S
C1038 C1025 1.684 . S
C1038 H1063 0.979 . S
C1038 H1064 0.980 . S
C1038 H1065 0.983 . S
C1039 C1040 1.391 . S
C1039 C1044 1.391 . S
C1039 H1069 0.948 . S
C1040 C1039 1.391 . S
C1040 C1041 1.391 . S
C1041 C1040 1.391 . S
C1041 C1042 1.392 . S
C1041 H1070 0.947 . S
C1042 C1041 1.392 . S
C1042 C1043 1.419 . S
C1042 H1071 0.948 . S
C1043 C1042 1.419 . S
C1043 C1044 1.391 . S
C1043 C1047 1.397 . S
C1044 C1039 1.391 . S
C1044 C1043 1.391 . S
C1044 C1045 1.399 . S
C1045 C1044 1.399 . S
C1045 C1046 1.396 . S
C1045 C1048 1.453 . S
C1045 C1049 1.684 . S
C1046 C1027 1.723 . S
C1046 C1045 1.396 . S
C1046 C1047 1.394 . S
C1047 C1043 1.397 . S
C1047 C1046 1.394 . S
C1047 C1057 1.723 . S
C1048 C1045 1.453 . S
C1048 H1072 0.982 . S
C1048 H1073 0.979 . S
C1048 H1074 0.977 . S
C1049 C1045 1.684 . S
C1049 H1075 0.979 . S
C1049 H1076 0.980 . S
C1049 H1077 0.983 . S
C1050 H1026 0.948 . S
C1050 C1051 1.391 . S
C1050 C1055 1.391 . S
C1051 C1050 1.391 . S
C1051 C1052 1.391 . S
C1052 H1029 0.947 . S
C1052 C1051 1.391 . S
C1052 C1053 1.392 . S
C1053 H1030 0.948 . S
C1053 C1052 1.392 . S
C1053 C1054 1.419 . S
C1054 C1053 1.419 . S
C1054 C1055 1.391 . S
C1054 C1058 1.397 . S
C1055 C1050 1.391 . S
C1055 C1054 1.391 . S
C1055 C1056 1.399 . S
C1056 C1055 1.399 . S
C1056 C1057 1.396 . S
C1056 C1059 1.453 . S
C1056 C1060 1.684 . S
C1057 C1047 1.723 . S
C1057 C1056 1.396 . S
C1057 C1058 1.394 . S
C1058 C1028 1.723 . S
C1058 C1054 1.397 . S
C1058 C1057 1.394 . S
C1059 H1031 0.982 . S
C1059 H1035 0.979 . S
C1059 H1036 0.977 . S
C1059 C1056 1.453 . S
C1060 H1032 0.979 . S
C1060 H1033 0.980 . S
C1060 H1034 0.983 . S
C1060 C1056 1.684 . S
H1061 C1079 0.948 . S
H1062 C1020 0.948 . S
H1063 C1038 0.979 . S
H1064 C1038 0.980 . S
H1065 C1038 0.983 . S
H1066 C1037 0.982 . S
H1067 C1037 0.979 . S
H1068 C1037 0.977 . S
H1069 C1039 0.948 . S
H1070 C1041 0.947 . S
H1071 C1042 0.948 . S
H1072 C1048 0.982 . S
H1073 C1048 0.979 . S
H1074 C1048 0.977 . S
H1075 C1049 0.979 . S
H1076 C1049 0.980 . S
H1077 C1049 0.983 . S
H1078 C1022 0.947 . S
C1079 C1022 1.392 . S
C1079 C1023 1.419 . S
C1079 H1061 0.948 . S
Eu1080 C1089 2.828 . S
Eu1080 O1091 2.392 . S
Eu1080 O1093 2.418 . S
Eu1080 O1098 2.373 1_565 S
Eu1080 O1101 2.488 . S
Eu1080 O1102 2.438 1_565 S
Eu1080 O1103 2.349 1_565 S
Eu1081 O1090 2.373 1_545 S
Eu1081 O1094 2.488 . S
Eu1081 O1095 2.446 1_545 S
Eu1081 O1096 2.349 1_545 S
Eu1081 O1099 2.392 . S
Eu1081 O1100 2.418 . S
Eu1081 C1110 2.828 . S
C1082 O1100 1.244 1_556 S
C1082 O1103 1.265 . S
C1083 C1084 1.379 1_565 S
C1083 C1087 1.373 . S
C1083 C1089 1.505 . S
C1084 C1083 1.379 1_545 S
C1084 C1086 1.369 . S
C1084 H1112 0.930 . S
C1085 C1087 1.383 . S
C1085 C1088 1.382 1_565 S
C1085 H1113 0.930 . S
C1086 C1084 1.369 . S
C1086 C1088 1.392 . S
C1086 H1114 0.930 . S
C1087 C1083 1.373 . S
C1087 C1085 1.383 . S
C1087 H1115 0.931 . S
C1088 C1085 1.382 1_545 S
C1088 C1086 1.392 . S
C1089 Eu1080 2.828 . S
C1089 C1083 1.505 . S
C1089 O1101 1.249 . S
C1089 O1102 1.194 1_565 S
O1090 Eu1081 2.373 1_565 S
O1090 C1092 1.258 . S
O1091 Eu1080 2.392 . S
O1091 C1092 1.242 1_556 S
C1092 O1090 1.258 . S
C1092 O1091 1.242 1_554 S
O1093 Eu1080 2.418 . S
O1093 C1097 1.244 1_556 S
O1094 Eu1081 2.488 . S
O1094 C1110 1.249 . S
O1095 Eu1081 2.446 1_565 S
O1095 C1110 1.206 1_565 S
O1096 Eu1081 2.349 1_565 S
O1096 C1097 1.265 . S
C1097 O1093 1.244 1_554 S
C1097 O1096 1.265 . S
O1098 Eu1080 2.373 1_545 S
O1098 C1111 1.258 . S
O1099 Eu1081 2.392 . S
O1099 C1111 1.242 1_554 S
O1100 Eu1081 2.418 . S
O1100 C1082 1.244 1_554 S
O1101 Eu1080 2.488 . S
O1101 C1089 1.249 . S
O1102 Eu1080 2.438 1_545 S
O1102 C1089 1.194 1_545 S
O1103 Eu1080 2.349 1_545 S
O1103 C1082 1.265 . S
C1104 C1105 1.379 1_545 S
C1104 C1108 1.373 . S
C1104 C1110 1.505 . S
C1105 C1104 1.379 1_565 S
C1105 C1107 1.369 . S
C1105 H1116 0.930 . S
C1106 C1108 1.383 . S
C1106 C1109 1.382 1_545 S
C1106 H1117 0.930 . S
C1107 C1105 1.369 . S
C1107 C1109 1.392 . S
C1107 H1118 0.930 . S
C1108 C1104 1.373 . S
C1108 C1106 1.383 . S
C1108 H1119 0.931 . S
C1109 C1106 1.382 1_565 S
C1109 C1107 1.392 . S
C1110 Eu1081 2.828 . S
C1110 O1094 1.249 . S
C1110 O1095 1.206 1_545 S
C1110 C1104 1.505 . S
C1111 O1098 1.258 . S
C1111 O1099 1.242 1_556 S
H1112 C1084 0.930 . S
H1113 C1085 0.930 . S
H1114 C1086 0.930 . S
H1115 C1087 0.931 . S
H1116 C1105 0.930 . S
H1117 C1106 0.930 . S
H1118 C1107 0.930 . S
H1119 C1108 0.931 . S
Eu1120 C1129 2.828 . S
Eu1120 O1131 2.392 1_556 S
Eu1120 O1133 2.418 . S
Eu1120 O1138 2.373 1_455 S
Eu1120 O1141 2.488 . S
Eu1120 O1142 2.471 1_455 S
Eu1120 O1143 2.349 1_455 S
Eu1121 O1130 2.373 1_655 S
Eu1121 O1134 2.488 . S
Eu1121 O1135 2.471 1_655 S
Eu1121 O1136 2.349 1_655 S
Eu1121 O1139 2.392 1_554 S
Eu1121 O1140 2.418 . S
Eu1121 C1150 2.828 . S
C1122 O1140 1.244 1_556 S
C1122 O1143 1.265 . S
C1123 C1124 1.379 1_455 S
C1123 C1127 1.373 . S
C1123 C1129 1.505 . S
C1124 C1123 1.379 1_655 S
C1124 C1126 1.369 . S
C1124 H1152 0.930 . S
C1125 C1127 1.383 . S
C1125 C1128 1.382 1_455 S
C1125 H1153 0.930 . S
C1126 C1124 1.369 . S
C1126 C1128 1.392 . S
C1126 H1154 0.930 . S
C1127 C1123 1.373 . S
C1127 C1125 1.383 . S
C1127 H1155 0.931 . S
C1128 C1125 1.382 1_655 S
C1128 C1126 1.392 . S
C1129 Eu1120 2.828 . S
C1129 C1123 1.505 . S
C1129 O1141 1.249 . S
C1129 O1142 1.244 1_455 S
O1130 Eu1121 2.373 1_455 S
O1130 C1132 1.258 . S
O1131 Eu1120 2.392 1_554 S
O1131 C1132 1.242 . S
C1132 O1130 1.258 . S
C1132 O1131 1.242 . S
O1133 Eu1120 2.418 . S
O1133 C1137 1.244 1_556 S
O1134 Eu1121 2.488 . S
O1134 C1150 1.249 . S
O1135 Eu1121 2.471 1_455 S
O1135 C1150 1.244 1_455 S
O1136 Eu1121 2.349 1_455 S
O1136 C1137 1.265 . S
C1137 O1133 1.244 1_554 S
C1137 O1136 1.265 . S
O1138 Eu1120 2.373 1_655 S
O1138 C1151 1.258 . S
O1139 Eu1121 2.392 1_556 S
O1139 C1151 1.242 . S
O1140 Eu1121 2.418 . S
O1140 C1122 1.244 1_554 S
O1141 Eu1120 2.488 . S
O1141 C1129 1.249 . S
O1142 Eu1120 2.471 1_655 S
O1142 C1129 1.244 1_655 S
O1143 Eu1120 2.349 1_655 S
O1143 C1122 1.265 . S
C1144 C1145 1.379 1_655 S
C1144 C1148 1.373 . S
C1144 C1150 1.505 . S
C1145 C1144 1.379 1_455 S
C1145 C1147 1.369 . S
C1145 H1156 0.930 . S
C1146 C1148 1.383 . S
C1146 C1149 1.382 1_655 S
C1146 H1157 0.930 . S
C1147 C1145 1.369 . S
C1147 C1149 1.392 . S
C1147 H1158 0.930 . S
C1148 C1144 1.373 . S
C1148 C1146 1.383 . S
C1148 H1159 0.931 . S
C1149 C1146 1.382 1_455 S
C1149 C1147 1.392 . S
C1150 Eu1121 2.828 . S
C1150 O1134 1.249 . S
C1150 O1135 1.244 1_655 S
C1150 C1144 1.505 . S
C1151 O1138 1.258 . S
C1151 O1139 1.242 . S
H1152 C1124 0.930 . S
H1153 C1125 0.930 . S
H1154 C1126 0.930 . S
H1155 C1127 0.931 . S
H1156 C1145 0.930 . S
H1157 C1146 0.930 . S
H1158 C1147 0.930 . S
H1159 C1148 0.931 . S
Eu1160 C1169 2.828 . S
Eu1160 O1171 2.388 . S
Eu1160 O1173 2.418 . S
Eu1160 O1178 2.373 . S
Eu1160 O1181 2.488 . S
Eu1160 O1182 2.471 . S
Eu1160 O1183 2.349 . S
Eu1161 O1170 2.373 . S
Eu1161 O1174 2.488 . S
Eu1161 O1175 2.471 . S
Eu1161 O1176 2.349 . S
Eu1161 O1179 2.349 1_556 S
Eu1161 O1180 2.418 . S
Eu1161 C1190 2.828 . S
C1162 O1180 1.244 1_554 S
C1162 O1183 1.265 . S
C1163 C1164 1.379 . S
C1163 C1167 1.373 . S
C1163 C1169 1.505 . S
C1164 C1163 1.379 . S
C1164 C1166 1.369 . S
C1164 H1192 0.930 . S
C1165 C1167 1.383 . S
C1165 C1168 1.382 . S
C1165 H1193 0.930 . S
C1166 C1164 1.369 . S
C1166 C1168 1.392 . S
C1166 H1194 0.930 . S
C1167 C1163 1.373 . S
C1167 C1165 1.383 . S
C1167 H1195 0.931 . S
C1168 C1165 1.382 . S
C1168 C1166 1.392 . S
C1169 Eu1160 2.828 . S
C1169 C1163 1.505 . S
C1169 O1181 1.249 . S
C1169 O1182 1.244 . S
O1170 Eu1161 2.373 . S
O1170 C1172 1.258 . S
O1171 Eu1160 2.388 . S
O1171 C1172 1.247 1_554 S
C1172 O1170 1.258 . S
C1172 O1171 1.247 1_556 S
O1173 Eu1160 2.418 . S
O1173 C1177 1.244 1_554 S
O1174 Eu1161 2.488 . S
O1174 C1190 1.249 . S
O1175 Eu1161 2.471 . S
O1175 C1190 1.244 . S
O1176 Eu1161 2.349 . S
O1176 C1177 1.265 . S
C1177 O1173 1.244 1_556 S
C1177 O1176 1.265 . S
O1178 Eu1160 2.373 . S
O1178 C1191 1.258 . S
O1179 Eu1161 2.349 1_554 S
O1179 C1191 1.292 . S
O1180 Eu1161 2.418 . S
O1180 C1162 1.244 1_556 S
O1181 Eu1160 2.488 . S
O1181 C1169 1.249 . S
O1182 Eu1160 2.471 . S
O1182 C1169 1.244 . S
O1183 Eu1160 2.349 . S
O1183 C1162 1.265 . S
C1184 C1185 1.379 . S
C1184 C1188 1.373 . S
C1184 C1190 1.505 . S
C1185 C1184 1.379 . S
C1185 C1187 1.369 . S
C1185 H1196 0.930 . S
C1186 C1188 1.383 . S
C1186 C1189 1.382 . S
C1186 H1197 0.930 . S
C1187 C1185 1.369 . S
C1187 C1189 1.392 . S
C1187 H1198 0.930 . S
C1188 C1184 1.373 . S
C1188 C1186 1.383 . S
C1188 H1199 0.931 . S
C1189 C1186 1.382 . S
C1189 C1187 1.392 . S
C1190 Eu1161 2.828 . S
C1190 O1174 1.249 . S
C1190 O1175 1.244 . S
C1190 C1184 1.505 . S
C1191 O1178 1.258 . S
C1191 O1179 1.292 . S
H1192 C1164 0.930 . S
H1193 C1165 0.930 . S
H1194 C1166 0.930 . S
H1195 C1167 0.931 . S
H1196 C1185 0.930 . S
H1197 C1186 0.930 . S
H1198 C1187 0.930 . S
H1199 C1188 0.931 . S
Eu1200 C1209 2.828 . S
Eu1200 O1211 2.392 . S
Eu1200 O1213 2.418 . S
Eu1200 O1218 2.373 . S
Eu1200 O1221 2.488 . S
Eu1200 O1222 2.471 . S
Eu1200 O1223 2.349 . S
Eu1201 O1210 2.373 . S
Eu1201 O1214 2.488 . S
Eu1201 O1215 2.471 . S
Eu1201 O1216 2.349 . S
Eu1201 O1219 2.392 . S
Eu1201 O1220 2.418 . S
Eu1201 C1230 2.828 . S
C1202 O1220 1.244 . S
C1202 O1223 1.265 . S
C1203 C1204 1.379 . S
C1203 C1207 1.373 . S
C1203 C1209 1.505 . S
C1204 C1203 1.379 . S
C1204 C1206 1.369 . S
C1204 H1232 0.930 . S
C1205 C1207 1.383 . S
C1205 C1208 1.382 . S
C1205 H1233 0.930 . S
C1206 C1204 1.369 . S
C1206 C1208 1.392 . S
C1206 H1234 0.930 . S
C1207 C1203 1.373 . S
C1207 C1205 1.383 . S
C1207 H1235 0.931 . S
C1208 C1205 1.382 . S
C1208 C1206 1.392 . S
C1209 Eu1200 2.828 . S
C1209 C1203 1.505 . S
C1209 O1221 1.249 . S
C1209 O1222 1.244 . S
O1210 Eu1201 2.373 . S
O1210 C1212 1.258 . S
O1211 Eu1200 2.392 . S
O1211 C1212 1.242 . S
C1212 O1210 1.258 . S
C1212 O1211 1.242 . S
O1213 Eu1200 2.418 . S
O1213 C1217 1.244 . S
O1214 Eu1201 2.488 . S
O1214 C1230 1.249 . S
O1215 Eu1201 2.471 . S
O1215 C1230 1.244 . S
O1216 Eu1201 2.349 . S
O1216 C1217 1.265 . S
C1217 O1213 1.244 . S
C1217 O1216 1.265 . S
O1218 Eu1200 2.373 . S
O1218 C1231 1.258 . S
O1219 Eu1201 2.392 . S
O1219 C1231 1.242 . S
O1220 Eu1201 2.418 . S
O1220 C1202 1.244 . S
O1221 Eu1200 2.488 . S
O1221 C1209 1.249 . S
O1222 Eu1200 2.471 . S
O1222 C1209 1.244 . S
O1223 Eu1200 2.349 . S
O1223 C1202 1.265 . S
C1224 C1225 1.379 . S
C1224 C1228 1.373 . S
C1224 C1230 1.505 . S
C1225 C1224 1.379 . S
C1225 C1227 1.369 . S
C1225 H1236 0.930 . S
C1226 C1228 1.383 . S
C1226 C1229 1.382 . S
C1226 H1237 0.930 . S
C1227 C1225 1.369 . S
C1227 C1229 1.392 . S
C1227 H1238 0.930 . S
C1228 C1224 1.373 . S
C1228 C1226 1.383 . S
C1228 H1239 0.931 . S
C1229 C1226 1.382 . S
C1229 C1227 1.392 . S
C1230 Eu1201 2.828 . S
C1230 O1214 1.249 . S
C1230 O1215 1.244 . S
C1230 C1224 1.505 . S
C1231 O1218 1.258 . S
C1231 O1219 1.242 . S
H1232 C1204 0.930 . S
H1233 C1205 0.930 . S
H1234 C1206 0.930 . S
H1235 C1207 0.931 . S
H1236 C1225 0.930 . S
H1237 C1226 0.930 . S
H1238 C1227 0.930 . S
H1239 C1228 0.931 . S
Eu1240 C1249 2.828 . S
Eu1240 O1251 2.392 . S
Eu1240 O1253 2.418 . S
Eu1240 O1258 2.373 . S
Eu1240 O1261 2.488 . S
Eu1240 O1262 2.471 . S
Eu1240 O1263 2.349 . S
Eu1241 O1250 2.373 . S
Eu1241 O1254 2.488 . S
Eu1241 O1255 2.471 . S
Eu1241 O1256 2.349 . S
Eu1241 O1259 2.392 . S
Eu1241 O1260 2.418 . S
Eu1241 C1270 2.828 . S
C1242 O1260 1.244 . S
C1242 O1263 1.265 . S
C1243 C1244 1.379 . S
C1243 C1247 1.373 . S
C1243 C1249 1.505 . S
C1244 C1243 1.379 . S
C1244 C1246 1.369 . S
C1244 H1272 0.930 . S
C1245 C1247 1.383 . S
C1245 C1248 1.382 . S
C1245 H1273 0.930 . S
C1246 C1244 1.369 . S
C1246 C1248 1.392 . S
C1246 H1274 0.930 . S
C1247 C1243 1.373 . S
C1247 C1245 1.383 . S
C1247 H1275 0.931 . S
C1248 C1245 1.382 . S
C1248 C1246 1.392 . S
C1249 Eu1240 2.828 . S
C1249 C1243 1.505 . S
C1249 O1261 1.249 . S
C1249 O1262 1.244 . S
O1250 Eu1241 2.373 . S
O1250 C1252 1.258 . S
O1251 Eu1240 2.392 . S
O1251 C1252 1.242 . S
C1252 O1250 1.258 . S
C1252 O1251 1.242 . S
O1253 Eu1240 2.418 . S
O1253 C1257 1.244 . S
O1254 Eu1241 2.488 . S
O1254 C1270 1.249 . S
O1255 Eu1241 2.471 . S
O1255 C1270 1.244 . S
O1256 Eu1241 2.349 . S
O1256 C1257 1.265 . S
C1257 O1253 1.244 . S
C1257 O1256 1.265 . S
O1258 Eu1240 2.373 . S
O1258 C1271 1.258 . S
O1259 Eu1241 2.392 . S
O1259 C1271 1.242 . S
O1260 Eu1241 2.418 . S
O1260 C1242 1.244 . S
O1261 Eu1240 2.488 . S
O1261 C1249 1.249 . S
O1262 Eu1240 2.471 . S
O1262 C1249 1.244 . S
O1263 Eu1240 2.349 . S
O1263 C1242 1.265 . S
C1264 C1265 1.379 . S
C1264 C1268 1.373 . S
C1264 C1270 1.505 . S
C1265 C1264 1.379 . S
C1265 C1267 1.369 . S
C1265 H1276 0.930 . S
C1266 C1268 1.383 . S
C1266 C1269 1.382 . S
C1266 H1277 0.930 . S
C1267 C1265 1.369 . S
C1267 C1269 1.392 . S
C1267 H1278 0.930 . S
C1268 C1264 1.373 . S
C1268 C1266 1.383 . S
C1268 H1279 0.931 . S
C1269 C1266 1.382 . S
C1269 C1267 1.392 . S
C1270 Eu1241 2.828 . S
C1270 O1254 1.249 . S
C1270 O1255 1.244 . S
C1270 C1264 1.505 . S
C1271 O1258 1.258 . S
C1271 O1259 1.242 . S
H1272 C1244 0.930 . S
H1273 C1245 0.930 . S
H1274 C1246 0.930 . S
H1275 C1247 0.931 . S
H1276 C1265 0.930 . S
H1277 C1266 0.930 . S
H1278 C1267 0.930 . S
H1279 C1268 0.931 . S
Eu1280 C1289 2.828 . S
Eu1280 O1291 2.392 . S
Eu1280 O1293 2.418 . S
Eu1280 O1298 2.373 . S
Eu1280 O1301 2.488 . S
Eu1280 O1302 2.471 . S
Eu1280 O1303 2.349 . S
Eu1281 O1290 2.373 . S
Eu1281 O1294 2.488 . S
Eu1281 O1295 2.471 . S
Eu1281 O1296 2.349 . S
Eu1281 O1299 2.392 . S
Eu1281 O1300 2.418 . S
Eu1281 C1310 2.828 . S
C1282 O1300 1.244 . S
C1282 O1303 1.265 . S
C1283 C1284 1.379 . S
C1283 C1287 1.373 . S
C1283 C1289 1.505 . S
C1284 C1283 1.379 . S
C1284 C1286 1.369 . S
C1284 H1312 0.930 . S
C1285 C1287 1.383 . S
C1285 C1288 1.382 . S
C1285 H1313 0.930 . S
C1286 C1284 1.369 . S
C1286 C1288 1.392 . S
C1286 H1314 0.930 . S
C1287 C1283 1.373 . S
C1287 C1285 1.383 . S
C1287 H1315 0.931 . S
C1288 C1285 1.382 . S
C1288 C1286 1.392 . S
C1289 Eu1280 2.828 . S
C1289 C1283 1.505 . S
C1289 O1301 1.249 . S
C1289 O1302 1.244 . S
O1290 Eu1281 2.373 . S
O1290 C1292 1.258 . S
O1291 Eu1280 2.392 . S
O1291 C1292 1.242 . S
C1292 O1290 1.258 . S
C1292 O1291 1.242 . S
O1293 Eu1280 2.418 . S
O1293 C1297 1.244 . S
O1294 Eu1281 2.488 . S
O1294 C1310 1.249 . S
O1295 Eu1281 2.471 . S
O1295 C1310 1.244 . S
O1296 Eu1281 2.349 . S
O1296 C1297 1.265 . S
C1297 O1293 1.244 . S
C1297 O1296 1.265 . S
O1298 Eu1280 2.373 . S
O1298 C1311 1.258 . S
O1299 Eu1281 2.392 . S
O1299 C1311 1.242 . S
O1300 Eu1281 2.418 . S
O1300 C1282 1.244 . S
O1301 Eu1280 2.488 . S
O1301 C1289 1.249 . S
O1302 Eu1280 2.471 . S
O1302 C1289 1.244 . S
O1303 Eu1280 2.349 . S
O1303 C1282 1.265 . S
C1304 C1305 1.379 . S
C1304 C1308 1.373 . S
C1304 C1310 1.505 . S
C1305 C1304 1.379 . S
C1305 C1307 1.369 . S
C1305 H1316 0.930 . S
C1306 C1308 1.383 . S
C1306 C1309 1.382 . S
C1306 H1317 0.930 . S
C1307 C1305 1.369 . S
C1307 C1309 1.392 . S
C1307 H1318 0.930 . S
C1308 C1304 1.373 . S
C1308 C1306 1.383 . S
C1308 H1319 0.931 . S
C1309 C1306 1.382 . S
C1309 C1307 1.392 . S
C1310 Eu1281 2.828 . S
C1310 O1294 1.249 . S
C1310 O1295 1.244 . S
C1310 C1304 1.505 . S
C1311 O1298 1.258 . S
C1311 O1299 1.242 . S
H1312 C1284 0.930 . S
H1313 C1285 0.930 . S
H1314 C1286 0.930 . S
H1315 C1287 0.931 . S
H1316 C1305 0.930 . S
H1317 C1306 0.930 . S
H1318 C1307 0.930 . S
H1319 C1308 0.931 . S
Eu1320 C1329 2.828 . S
Eu1320 O1331 2.392 . S
Eu1320 O1333 2.418 . S
Eu1320 O1338 2.373 . S
Eu1320 O1341 2.488 . S
Eu1320 O1342 2.471 . S
Eu1320 O1343 2.349 . S
Eu1321 O1330 2.373 . S
Eu1321 O1334 2.488 . S
Eu1321 O1335 2.471 . S
Eu1321 O1336 2.349 . S
Eu1321 O1339 2.392 . S
Eu1321 O1340 2.418 . S
Eu1321 C1350 2.828 . S
C1322 O1340 1.244 . S
C1322 O1343 1.265 . S
C1323 C1324 1.379 . S
C1323 C1327 1.373 . S
C1323 C1329 1.505 . S
C1324 C1323 1.379 . S
C1324 C1326 1.369 . S
C1324 H1352 0.930 . S
C1325 C1327 1.383 . S
C1325 C1328 1.382 . S
C1325 H1353 0.930 . S
C1326 C1324 1.369 . S
C1326 C1328 1.392 . S
C1326 H1354 0.930 . S
C1327 C1323 1.373 . S
C1327 C1325 1.383 . S
C1327 H1355 0.931 . S
C1328 C1325 1.382 . S
C1328 C1326 1.392 . S
C1329 Eu1320 2.828 . S
C1329 C1323 1.505 . S
C1329 O1341 1.249 . S
C1329 O1342 1.244 . S
O1330 Eu1321 2.373 . S
O1330 C1332 1.258 . S
O1331 Eu1320 2.392 . S
O1331 C1332 1.242 . S
C1332 O1330 1.258 . S
C1332 O1331 1.242 . S
O1333 Eu1320 2.418 . S
O1333 C1337 1.244 . S
O1334 Eu1321 2.488 . S
O1334 C1350 1.249 . S
O1335 Eu1321 2.471 . S
O1335 C1350 1.244 . S
O1336 Eu1321 2.349 . S
O1336 C1337 1.265 . S
C1337 O1333 1.244 . S
C1337 O1336 1.265 . S
O1338 Eu1320 2.373 . S
O1338 C1351 1.258 . S
O1339 Eu1321 2.392 . S
O1339 C1351 1.242 . S
O1340 Eu1321 2.418 . S
O1340 C1322 1.244 . S
O1341 Eu1320 2.488 . S
O1341 C1329 1.249 . S
O1342 Eu1320 2.471 . S
O1342 C1329 1.244 . S
O1343 Eu1320 2.349 . S
O1343 C1322 1.265 . S
C1344 C1345 1.379 . S
C1344 C1348 1.373 . S
C1344 C1350 1.505 . S
C1345 C1344 1.379 . S
C1345 C1347 1.369 . S
C1345 H1356 0.930 . S
C1346 C1348 1.383 . S
C1346 C1349 1.382 . S
C1346 H1357 0.930 . S
C1347 C1345 1.369 . S
C1347 C1349 1.392 . S
C1347 H1358 0.930 . S
C1348 C1344 1.373 . S
C1348 C1346 1.383 . S
C1348 H1359 0.931 . S
C1349 C1346 1.382 . S
C1349 C1347 1.392 . S
C1350 Eu1321 2.828 . S
C1350 O1334 1.249 . S
C1350 O1335 1.244 . S
C1350 C1344 1.505 . S
C1351 O1338 1.258 . S
C1351 O1339 1.242 . S
H1352 C1324 0.930 . S
H1353 C1325 0.930 . S
H1354 C1326 0.930 . S
H1355 C1327 0.931 . S
H1356 C1345 0.930 . S
H1357 C1346 0.930 . S
H1358 C1347 0.930 . S
H1359 C1348 0.931 . S
Eu1360 C1369 2.828 . S
Eu1360 O1371 2.392 . S
Eu1360 O1373 2.418 . S
Eu1360 O1378 2.373 . S
Eu1360 O1381 2.488 . S
Eu1360 O1382 2.471 . S
Eu1360 O1383 2.349 . S
Eu1361 O1370 2.373 . S
Eu1361 O1374 2.488 . S
Eu1361 O1375 2.471 . S
Eu1361 O1376 2.349 . S
Eu1361 O1379 2.392 . S
Eu1361 O1380 2.418 . S
Eu1361 C1390 2.828 . S
C1362 O1380 1.244 . S
C1362 O1383 1.265 . S
C1363 C1364 1.379 . S
C1363 C1367 1.373 . S
C1363 C1369 1.505 . S
C1364 C1363 1.379 . S
C1364 C1366 1.369 . S
C1364 H1392 0.930 . S
C1365 C1367 1.383 . S
C1365 C1368 1.382 . S
C1365 H1393 0.930 . S
C1366 C1364 1.369 . S
C1366 C1368 1.392 . S
C1366 H1394 0.930 . S
C1367 C1363 1.373 . S
C1367 C1365 1.383 . S
C1367 H1395 0.931 . S
C1368 C1365 1.382 . S
C1368 C1366 1.392 . S
C1369 Eu1360 2.828 . S
C1369 C1363 1.505 . S
C1369 O1381 1.249 . S
C1369 O1382 1.244 . S
O1370 Eu1361 2.373 . S
O1370 C1372 1.258 . S
O1371 Eu1360 2.392 . S
O1371 C1372 1.242 . S
C1372 O1370 1.258 . S
C1372 O1371 1.242 . S
O1373 Eu1360 2.418 . S
O1373 C1377 1.244 . S
O1374 Eu1361 2.488 . S
O1374 C1390 1.249 . S
O1375 Eu1361 2.471 . S
O1375 C1390 1.244 . S
O1376 Eu1361 2.349 . S
O1376 C1377 1.265 . S
C1377 O1373 1.244 . S
C1377 O1376 1.265 . S
O1378 Eu1360 2.373 . S
O1378 C1391 1.258 . S
O1379 Eu1361 2.392 . S
O1379 C1391 1.242 . S
O1380 Eu1361 2.418 . S
O1380 C1362 1.244 . S
O1381 Eu1360 2.488 . S
O1381 C1369 1.249 . S
O1382 Eu1360 2.471 . S
O1382 C1369 1.244 . S
O1383 Eu1360 2.349 . S
O1383 C1362 1.265 . S
C1384 C1385 1.379 . S
C1384 C1388 1.373 . S
C1384 C1390 1.505 . S
C1385 C1384 1.379 . S
C1385 C1387 1.369 . S
C1385 H1396 0.930 . S
C1386 C1388 1.383 . S
C1386 C1389 1.382 . S
C1386 H1397 0.930 . S
C1387 C1385 1.369 . S
C1387 C1389 1.392 . S
C1387 H1398 0.930 . S
C1388 C1384 1.373 . S
C1388 C1386 1.383 . S
C1388 H1399 0.931 . S
C1389 C1386 1.382 . S
C1389 C1387 1.392 . S
C1390 Eu1361 2.828 . S
C1390 O1374 1.249 . S
C1390 O1375 1.244 . S
C1390 C1384 1.505 . S
C1391 O1378 1.258 . S
C1391 O1379 1.242 . S
H1392 C1364 0.930 . S
H1393 C1365 0.930 . S
H1394 C1366 0.930 . S
H1395 C1367 0.931 . S
H1396 C1385 0.930 . S
H1397 C1386 0.930 . S
H1398 C1387 0.930 . S
H1399 C1388 0.931 . S
Eu1400 C1409 2.828 . S
Eu1400 O1411 2.392 . S
Eu1400 O1413 2.418 . S
Eu1400 O1418 2.373 . S
Eu1400 O1421 2.488 . S
Eu1400 O1422 2.471 . S
Eu1400 O1423 2.349 . S
Eu1401 O1410 2.373 . S
Eu1401 O1414 2.488 . S
Eu1401 O1415 2.471 . S
Eu1401 O1416 2.349 . S
Eu1401 O1419 2.392 . S
Eu1401 O1420 2.418 . S
Eu1401 C1430 2.828 . S
C1402 O1420 1.244 . S
C1402 O1423 1.265 . S
C1403 C1404 1.379 . S
C1403 C1407 1.373 . S
C1403 C1409 1.505 . S
C1404 C1403 1.379 . S
C1404 C1406 1.369 . S
C1404 H1432 0.930 . S
C1405 C1407 1.383 . S
C1405 C1408 1.382 . S
C1405 H1433 0.930 . S
C1406 C1404 1.369 . S
C1406 C1408 1.392 . S
C1406 H1434 0.930 . S
C1407 C1403 1.373 . S
C1407 C1405 1.383 . S
C1407 H1435 0.931 . S
C1408 C1405 1.382 . S
C1408 C1406 1.392 . S
C1409 Eu1400 2.828 . S
C1409 C1403 1.505 . S
C1409 O1421 1.249 . S
C1409 O1422 1.244 . S
O1410 Eu1401 2.373 . S
O1410 C1412 1.258 . S
O1411 Eu1400 2.392 . S
O1411 C1412 1.242 . S
C1412 O1410 1.258 . S
C1412 O1411 1.242 . S
O1413 Eu1400 2.418 . S
O1413 C1417 1.244 . S
O1414 Eu1401 2.488 . S
O1414 C1430 1.249 . S
O1415 Eu1401 2.471 . S
O1415 C1430 1.244 . S
O1416 Eu1401 2.349 . S
O1416 C1417 1.265 . S
C1417 O1413 1.244 . S
C1417 O1416 1.265 . S
O1418 Eu1400 2.373 . S
O1418 C1431 1.258 . S
O1419 Eu1401 2.392 . S
O1419 C1431 1.242 . S
O1420 Eu1401 2.418 . S
O1420 C1402 1.244 . S
O1421 Eu1400 2.488 . S
O1421 C1409 1.249 . S
O1422 Eu1400 2.471 . S
O1422 C1409 1.244 . S
O1423 Eu1400 2.349 . S
O1423 C1402 1.265 . S
C1424 C1425 1.379 . S
C1424 C1428 1.373 . S
C1424 C1430 1.505 . S
C1425 C1424 1.379 . S
C1425 C1427 1.369 . S
C1425 H1436 0.930 . S
C1426 C1428 1.383 . S
C1426 C1429 1.382 . S
C1426 H1437 0.930 . S
C1427 C1425 1.369 . S
C1427 C1429 1.392 . S
C1427 H1438 0.930 . S
C1428 C1424 1.373 . S
C1428 C1426 1.383 . S
C1428 H1439 0.931 . S
C1429 C1426 1.382 . S
C1429 C1427 1.392 . S
C1430 Eu1401 2.828 . S
C1430 O1414 1.249 . S
C1430 O1415 1.244 . S
C1430 C1424 1.505 . S
C1431 O1418 1.258 . S
C1431 O1419 1.242 . S
H1432 C1404 0.930 . S
H1433 C1405 0.930 . S
H1434 C1406 0.930 . S
H1435 C1407 0.931 . S
H1436 C1425 0.930 . S
H1437 C1426 0.930 . S
H1438 C1427 0.930 . S
H1439 C1428 0.931 . S
C1440 C1441 1.349 . S
C1440 C1442 1.327 . S
C1440 H1465 0.950 . S
C1441 C1440 1.349 . S
C1441 C1457 1.349 . S
C1442 C1440 1.327 . S
C1442 C1461 1.429 . S
C1442 H1466 0.950 . S
C1443 C1460 1.574 . S
C1443 C1462 1.368 . S
C1443 H1467 0.949 . S
H1444 C1448 0.949 . S
C1445 C1446 1.349 . S
C1445 C1447 1.327 . S
C1445 H1468 0.950 . S
C1446 C1445 1.349 . S
C1446 C1458 1.349 . S
C1447 C1445 1.327 . S
C1447 C1463 1.429 . S
C1447 H1469 0.950 . S
C1448 H1444 0.949 . S
C1448 C1456 1.574 . S
C1448 C1464 1.368 . S
H1449 C1457 0.950 . S
H1450 C1455 0.950 . S
H1451 C1456 0.949 . S
H1452 C1458 0.950 . S
H1453 C1459 0.950 . S
H1454 C1460 0.949 . S
C1455 H1450 0.950 . S
C1455 C1457 1.327 . S
C1455 C1461 1.429 . S
C1456 C1448 1.574 . S
C1456 H1451 0.949 . S
C1456 C1462 1.368 . S
C1457 C1441 1.349 . S
C1457 H1449 0.950 . S
C1457 C1455 1.327 . S
C1458 C1446 1.349 . S
C1458 H1452 0.950 . S
C1458 C1459 1.327 . S
C1459 H1453 0.950 . S
C1459 C1458 1.327 . S
C1459 C1463 1.429 . S
C1460 C1443 1.574 . S
C1460 H1454 0.949 . S
C1460 C1464 1.368 . S
C1461 C1442 1.429 . S
C1461 C1455 1.429 . S
C1461 C1462 1.523 . S
C1462 C1443 1.368 . S
C1462 C1456 1.368 . S
C1462 C1461 1.523 . S
C1463 C1447 1.429 . S
C1463 C1459 1.429 . S
C1463 C1464 1.523 . S
C1464 C1448 1.368 . S
C1464 C1460 1.368 . S
C1464 C1463 1.523 . S
H1465 C1440 0.950 . S
H1466 C1442 0.950 . S
H1467 C1443 0.949 . S
H1468 C1445 0.950 . S
H1469 C1447 0.950 . S
C1470 C1471 1.349 . S
C1470 C1472 1.327 . S
C1470 H1495 0.950 . S
C1471 C1470 1.349 . S
C1471 C1487 1.349 . S
C1472 C1470 1.327 . S
C1472 C1491 1.429 . S
C1472 H1496 0.950 . S
C1473 C1490 1.574 . S
C1473 C1492 1.368 . S
C1473 H1497 0.949 . S
H1474 C1478 0.949 . S
C1475 C1476 1.349 . S
C1475 C1477 1.327 . S
C1475 H1498 0.950 . S
C1476 C1475 1.349 . S
C1476 C1488 1.349 . S
C1477 C1475 1.327 . S
C1477 C1493 1.429 . S
C1477 H1499 0.950 . S
C1478 H1474 0.949 . S
C1478 C1486 1.574 . S
C1478 C1494 1.368 . S
H1479 C1487 0.950 . S
H1480 C1485 0.950 . S
H1481 C1486 0.949 . S
H1482 C1488 0.950 . S
H1483 C1489 0.950 . S
H1484 C1490 0.949 . S
C1485 H1480 0.950 . S
C1485 C1487 1.327 . S
C1485 C1491 1.429 . S
C1486 C1478 1.574 . S
C1486 H1481 0.949 . S
C1486 C1492 1.368 . S
C1487 C1471 1.349 . S
C1487 H1479 0.950 . S
C1487 C1485 1.327 . S
C1488 C1476 1.349 . S
C1488 H1482 0.950 . S
C1488 C1489 1.327 . S
C1489 H1483 0.950 . S
C1489 C1488 1.327 . S
C1489 C1493 1.429 . S
C1490 C1473 1.574 . S
C1490 H1484 0.949 . S
C1490 C1494 1.368 . S
C1491 C1472 1.429 . S
C1491 C1485 1.429 . S
C1491 C1492 1.523 . S
C1492 C1473 1.368 . S
C1492 C1486 1.368 . S
C1492 C1491 1.523 . S
C1493 C1477 1.429 . S
C1493 C1489 1.429 . S
C1493 C1494 1.523 . S
C1494 C1478 1.368 . S
C1494 C1490 1.368 . S
C1494 C1493 1.523 . S
H1495 C1470 0.950 . S
H1496 C1472 0.950 . S
H1497 C1473 0.949 . S
H1498 C1475 0.950 . S
H1499 C1477 0.950 . S
C1500 C1501 1.349 . S
C1500 C1502 1.327 . S
C1500 H1525 0.950 . S
C1501 C1500 1.349 . S
C1501 C1517 1.349 . S
C1502 C1500 1.327 . S
C1502 C1521 1.429 . S
C1502 H1526 0.950 . S
C1503 C1520 1.574 . S
C1503 C1522 1.368 . S
C1503 H1527 0.949 . S
H1504 C1508 0.949 . S
C1505 C1506 1.349 . S
C1505 C1507 1.327 . S
C1505 H1528 0.950 1_554 S
C1506 C1505 1.349 . S
C1506 C1518 1.349 . S
C1507 C1505 1.327 . S
C1507 C1523 1.429 . S
C1507 H1529 0.950 . S
C1508 H1504 0.949 . S
C1508 C1516 1.574 . S
C1508 C1524 1.368 . S
H1509 C1517 0.950 . S
H1510 C1515 0.950 . S
H1511 C1516 0.949 . S
H1512 C1518 0.950 . S
H1513 C1519 0.950 . S
H1514 C1520 0.949 . S
C1515 H1510 0.950 . S
C1515 C1517 1.327 . S
C1515 C1521 1.429 . S
C1516 C1508 1.574 . S
C1516 H1511 0.949 . S
C1516 C1522 1.368 . S
C1517 C1501 1.349 . S
C1517 H1509 0.950 . S
C1517 C1515 1.327 . S
C1518 C1506 1.349 . S
C1518 H1512 0.950 . S
C1518 C1519 1.327 . S
C1519 H1513 0.950 . S
C1519 C1518 1.327 . S
C1519 C1523 1.429 . S
C1520 C1503 1.574 . S
C1520 H1514 0.949 . S
C1520 C1524 1.368 . S
C1521 C1502 1.429 . S
C1521 C1515 1.429 . S
C1521 C1522 1.523 . S
C1522 C1503 1.368 . S
C1522 C1516 1.368 . S
C1522 C1521 1.523 . S
C1523 C1507 1.429 . S
C1523 C1519 1.429 . S
C1523 C1524 1.523 . S
C1524 C1508 1.368 . S
C1524 C1520 1.368 . S
C1524 C1523 1.523 . S
H1525 C1500 0.950 . S
H1526 C1502 0.950 . S
H1527 C1503 0.949 . S
H1528 C1505 0.950 1_556 S
H1529 C1507 0.950 . S
C1530 C1531 1.349 . S
C1530 C1532 1.327 . S
C1530 H1555 0.950 . S
C1531 C1530 1.349 . S
C1531 C1547 1.349 . S
C1532 C1530 1.327 . S
C1532 C1551 1.429 . S
C1532 H1556 0.950 . S
C1533 C1550 1.574 . S
C1533 C1552 1.368 . S
C1533 H1557 0.949 . S
H1534 C1538 0.949 . S
C1535 C1536 1.349 . S
C1535 C1537 1.327 . S
C1535 H1558 0.950 . S
C1536 C1535 1.349 . S
C1536 C1548 1.349 . S
C1537 C1535 1.327 . S
C1537 C1553 1.429 . S
C1537 H1559 0.950 . S
C1538 H1534 0.949 . S
C1538 C1546 1.574 . S
C1538 C1554 1.368 . S
H1539 C1547 0.950 . S
H1540 C1545 0.950 . S
H1541 C1546 0.949 . S
H1542 C1548 0.950 1_554 S
H1543 C1549 0.950 . S
H1544 C1550 0.949 . S
C1545 H1540 0.950 . S
C1545 C1547 1.327 . S
C1545 C1551 1.429 . S
C1546 C1538 1.574 . S
C1546 H1541 0.949 . S
C1546 C1552 1.368 . S
C1547 C1531 1.349 . S
C1547 H1539 0.950 . S
C1547 C1545 1.327 . S
C1548 C1536 1.349 . S
C1548 H1542 0.950 1_556 S
C1548 C1549 1.327 . S
C1549 H1543 0.950 . S
C1549 C1548 1.327 . S
C1549 C1553 1.429 . S
C1550 C1533 1.574 . S
C1550 H1544 0.949 . S
C1550 C1554 1.368 . S
C1551 C1532 1.429 . S
C1551 C1545 1.429 . S
C1551 C1552 1.523 . S
C1552 C1533 1.368 . S
C1552 C1546 1.368 . S
C1552 C1551 1.523 . S
C1553 C1537 1.429 . S
C1553 C1549 1.429 . S
C1553 C1554 1.523 . S
C1554 C1538 1.368 . S
C1554 C1550 1.368 . S
C1554 C1553 1.523 . S
H1555 C1530 0.950 . S
H1556 C1532 0.950 . S
H1557 C1533 0.949 . S
H1558 C1535 0.950 . S
H1559 C1537 0.950 . S
C1560 C1561 1.349 . S
C1560 C1562 1.327 . S
C1560 H1585 0.950 . S
C1561 C1560 1.349 . S
C1561 C1577 1.349 . S
C1562 C1560 1.327 . S
C1562 C1581 1.429 . S
C1562 H1586 0.950 . S
C1563 C1580 1.574 . S
C1563 C1582 1.368 . S
C1563 H1587 0.949 . S
H1564 C1568 0.949 . S
C1565 C1566 1.349 . S
C1565 C1567 1.327 . S
C1565 H1588 0.950 . S
C1566 C1565 1.349 . S
C1566 C1578 1.349 . S
C1567 C1565 1.327 . S
C1567 C1583 1.429 . S
C1567 H1589 0.950 . S
C1568 H1564 0.949 . S
C1568 C1576 1.574 . S
C1568 C1584 1.368 . S
H1569 C1577 0.950 . S
H1570 C1575 0.950 . S
H1571 C1576 0.949 . S
H1572 C1578 0.950 . S
H1573 C1579 0.950 . S
H1574 C1580 0.949 . S
C1575 H1570 0.950 . S
C1575 C1577 1.327 . S
C1575 C1581 1.429 . S
C1576 C1568 1.574 . S
C1576 H1571 0.949 . S
C1576 C1582 1.368 . S
C1577 C1561 1.349 . S
C1577 H1569 0.950 . S
C1577 C1575 1.327 . S
C1578 C1566 1.349 . S
C1578 H1572 0.950 . S
C1578 C1579 1.327 . S
C1579 H1573 0.950 . S
C1579 C1578 1.327 . S
C1579 C1583 1.429 . S
C1580 C1563 1.574 . S
C1580 H1574 0.949 . S
C1580 C1584 1.368 . S
C1581 C1562 1.429 . S
C1581 C1575 1.429 . S
C1581 C1582 1.523 . S
C1582 C1563 1.368 . S
C1582 C1576 1.368 . S
C1582 C1581 1.523 . S
C1583 C1567 1.429 . S
C1583 C1579 1.429 . S
C1583 C1584 1.523 . S
C1584 C1568 1.368 . S
C1584 C1580 1.368 . S
C1584 C1583 1.523 . S
H1585 C1560 0.950 . S
H1586 C1562 0.950 . S
H1587 C1563 0.949 . S
H1588 C1565 0.950 . S
H1589 C1567 0.950 . S
C1590 C1591 1.349 . S
C1590 C1592 1.327 . S
C1590 H1615 0.950 . S
C1591 C1590 1.349 . S
C1591 C1607 1.349 . S
C1592 C1590 1.327 . S
C1592 C1611 1.429 . S
C1592 H1616 0.950 . S
C1593 C1610 1.574 . S
C1593 C1612 1.368 . S
C1593 H1617 0.949 . S
H1594 C1598 0.949 . S
C1595 C1596 1.349 1_554 S
C1595 C1597 1.327 1_554 S
C1595 H1618 0.950 . S
C1596 C1595 1.349 1_556 S
C1596 C1608 1.349 . S
C1597 C1595 1.327 1_556 S
C1597 C1613 1.429 . S
C1597 H1619 0.950 1_556 S
C1598 H1594 0.949 . S
C1598 C1606 1.574 . S
C1598 C1614 1.368 . S
H1599 C1607 0.950 . S
H1600 C1605 0.950 . S
H1601 C1606 0.949 . S
H1602 C1608 0.950 . S
H1603 C1609 0.950 . S
H1604 C1610 0.992 . S
C1605 H1600 0.950 . S
C1605 C1607 1.327 . S
C1605 C1611 1.429 . S
C1606 C1598 1.574 . S
C1606 H1601 0.949 . S
C1606 C1612 1.368 . S
C1607 C1591 1.349 . S
C1607 H1599 0.950 . S
C1607 C1605 1.327 . S
C1608 C1596 1.349 . S
C1608 H1602 0.950 . S
C1608 C1609 1.327 . S
C1609 H1603 0.950 . S
C1609 C1608 1.327 . S
C1609 C1613 1.429 . S
C1610 C1593 1.574 . S
C1610 H1604 0.992 . S
C1610 C1614 1.368 . S
C1611 C1592 1.429 . S
C1611 C1605 1.429 . S
C1611 C1612 1.523 . S
C1612 C1593 1.368 . S
C1612 C1606 1.368 . S
C1612 C1611 1.523 . S
C1613 C1597 1.429 . S
C1613 C1609 1.429 . S
C1613 C1614 1.523 . S
C1614 C1598 1.368 . S
C1614 C1610 1.368 . S
C1614 C1613 1.523 . S
H1615 C1590 0.950 . S
H1616 C1592 0.950 . S
H1617 C1593 0.949 . S
H1618 C1595 0.950 . S
H1619 C1597 0.950 1_554 S
C1620 C1621 1.349 . S
C1620 C1622 1.327 . S
C1620 H1645 0.950 . S
C1621 C1620 1.349 . S
C1621 C1637 1.349 . S
C1622 C1620 1.327 . S
C1622 C1641 1.429 . S
C1622 H1646 0.950 . S
C1623 C1640 1.574 . S
C1623 C1642 1.368 . S
C1623 H1647 0.949 . S
H1624 C1628 0.949 . S
C1625 C1626 1.349 . S
C1625 C1627 1.327 . S
C1625 H1648 0.950 . S
C1626 C1625 1.349 . S
C1626 C1638 1.349 . S
C1627 C1625 1.327 . S
C1627 C1643 1.429 . S
C1627 H1649 0.950 . S
C1628 H1624 0.949 . S
C1628 C1636 1.574 . S
C1628 C1644 1.368 . S
H1629 C1637 0.950 . S
H1630 C1635 0.950 . S
H1631 C1636 0.949 . S
H1632 C1638 0.950 . S
H1633 C1639 0.950 . S
H1634 C1640 0.949 . S
C1635 H1630 0.950 . S
C1635 C1637 1.327 . S
C1635 C1641 1.429 . S
C1636 C1628 1.574 . S
C1636 H1631 0.949 . S
C1636 C1642 1.368 . S
C1637 C1621 1.349 . S
C1637 H1629 0.950 . S
C1637 C1635 1.327 . S
C1638 C1626 1.349 . S
C1638 H1632 0.950 . S
C1638 C1639 1.327 . S
C1639 H1633 0.950 . S
C1639 C1638 1.327 . S
C1639 C1643 1.429 . S
C1640 C1623 1.574 . S
C1640 H1634 0.949 . S
C1640 C1644 1.368 . S
C1641 C1622 1.429 . S
C1641 C1635 1.429 . S
C1641 C1642 1.523 . S
C1642 C1623 1.368 . S
C1642 C1636 1.368 . S
C1642 C1641 1.523 . S
C1643 C1627 1.429 . S
C1643 C1639 1.429 . S
C1643 C1644 1.523 . S
C1644 C1628 1.368 . S
C1644 C1640 1.368 . S
C1644 C1643 1.523 . S
H1645 C1620 0.950 . S
H1646 C1622 0.950 . S
H1647 C1623 0.949 . S
H1648 C1625 0.950 . S
H1649 C1627 0.950 . S
C1650 C1651 1.349 . S
C1650 C1652 1.327 . S
C1650 H1675 0.950 . S
C1651 C1650 1.349 . S
C1651 C1667 1.349 . S
C1652 C1650 1.327 . S
C1652 C1671 1.429 . S
C1652 H1676 0.950 . S
C1653 C1670 1.574 . S
C1653 C1672 1.368 . S
C1653 H1677 0.949 . S
H1654 C1658 0.949 . S
C1655 C1656 1.349 . S
C1655 C1657 1.327 . S
C1655 H1678 0.950 . S
C1656 C1655 1.349 . S
C1656 C1668 1.349 . S
C1657 C1655 1.327 . S
C1657 C1673 1.429 . S
C1657 H1679 0.950 . S
C1658 H1654 0.949 . S
C1658 C1666 1.574 . S
C1658 C1674 1.368 . S
H1659 C1667 0.950 . S
H1660 C1665 0.950 . S
H1661 C1666 0.949 . S
H1662 C1668 0.950 . S
H1663 C1669 0.950 . S
H1664 C1670 0.949 . S
C1665 H1660 0.950 . S
C1665 C1667 1.327 . S
C1665 C1671 1.429 . S
C1666 C1658 1.574 . S
C1666 H1661 0.949 . S
C1666 C1672 1.368 . S
C1667 C1651 1.349 . S
C1667 H1659 0.950 . S
C1667 C1665 1.327 . S
C1668 C1656 1.349 . S
C1668 H1662 0.950 . S
C1668 C1669 1.327 . S
C1669 H1663 0.950 . S
C1669 C1668 1.327 . S
C1669 C1673 1.429 . S
C1670 C1653 1.574 . S
C1670 H1664 0.949 . S
C1670 C1674 1.368 . S
C1671 C1652 1.429 . S
C1671 C1665 1.429 . S
C1671 C1672 1.523 . S
C1672 C1653 1.368 . S
C1672 C1666 1.368 . S
C1672 C1671 1.523 . S
C1673 C1657 1.429 . S
C1673 C1669 1.429 . S
C1673 C1674 1.523 . S
C1674 C1658 1.368 . S
C1674 C1670 1.368 . S
C1674 C1673 1.523 . S
H1675 C1650 0.950 . S
H1676 C1652 0.950 . S
H1677 C1653 0.949 . S
H1678 C1655 0.950 . S
H1679 C1657 0.950 . S
C1680 C1681 1.349 . S
C1680 C1682 1.327 . S
C1680 H1705 0.950 . S
C1681 C1680 1.349 . S
C1681 C1697 1.349 . S
C1682 C1680 1.327 . S
C1682 C1701 1.429 . S
C1682 H1706 0.950 . S
C1683 C1700 1.574 . S
C1683 C1702 1.368 . S
C1683 H1707 0.949 . S
H1684 C1688 0.949 . S
C1685 C1686 1.349 . S
C1685 C1687 1.327 . S
C1685 H1708 0.950 . S
C1686 C1685 1.349 . S
C1686 C1698 1.349 . S
C1687 C1685 1.327 . S
C1687 C1703 1.429 . S
C1687 H1709 0.950 . S
C1688 H1684 0.949 . S
C1688 C1696 1.574 . S
C1688 C1704 1.368 . S
H1689 C1697 0.950 . S
H1690 C1695 0.950 . S
H1691 C1696 0.949 . S
H1692 C1698 0.950 . S
H1693 C1699 0.950 . S
H1694 C1700 0.949 . S
C1695 H1690 0.950 . S
C1695 C1697 1.327 . S
C1695 C1701 1.429 . S
C1696 C1688 1.574 . S
C1696 H1691 0.949 . S
C1696 C1702 1.368 . S
C1697 C1681 1.349 . S
C1697 H1689 0.950 . S
C1697 C1695 1.327 . S
C1698 C1686 1.349 . S
C1698 H1692 0.950 . S
C1698 C1699 1.327 . S
C1699 H1693 0.950 . S
C1699 C1698 1.327 . S
C1699 C1703 1.429 . S
C1700 C1683 1.574 . S
C1700 H1694 0.949 . S
C1700 C1704 1.368 . S
C1701 C1682 1.429 . S
C1701 C1695 1.429 . S
C1701 C1702 1.523 . S
C1702 C1683 1.368 . S
C1702 C1696 1.368 . S
C1702 C1701 1.523 . S
C1703 C1687 1.429 . S
C1703 C1699 1.429 . S
C1703 C1704 1.523 . S
C1704 C1688 1.368 . S
C1704 C1700 1.368 . S
C1704 C1703 1.523 . S
H1705 C1680 0.950 . S
H1706 C1682 0.950 . S
H1707 C1683 0.949 . S
H1708 C1685 0.950 . S
H1709 C1687 0.950 . S
C1710 C1711 1.349 . S
C1710 C1712 1.327 . S
C1710 H1735 0.950 . S
C1711 C1710 1.349 . S
C1711 C1727 1.349 . S
C1712 C1710 1.327 . S
C1712 C1731 1.429 . S
C1712 H1736 0.950 . S
C1713 C1730 1.574 . S
C1713 C1732 1.368 . S
C1713 H1737 0.949 . S
H1714 C1718 0.949 . S
C1715 C1716 1.349 . S
C1715 C1717 1.327 . S
C1715 H1738 0.950 1_554 S
C1716 C1715 1.349 . S
C1716 C1728 1.349 . S
C1717 C1715 1.327 . S
C1717 C1733 1.429 . S
C1717 H1739 0.950 . S
C1718 H1714 0.949 . S
C1718 C1726 1.574 . S
C1718 C1734 1.368 . S
H1719 C1727 0.950 . S
H1720 C1725 0.950 . S
H1721 C1726 0.949 . S
H1722 C1728 0.950 . S
H1723 C1729 0.950 . S
H1724 C1730 0.949 . S
C1725 H1720 0.950 . S
C1725 C1727 1.327 . S
C1725 C1731 1.429 . S
C1726 C1718 1.574 . S
C1726 H1721 0.949 . S
C1726 C1732 1.368 . S
C1727 C1711 1.349 . S
C1727 H1719 0.950 . S
C1727 C1725 1.327 . S
C1728 C1716 1.349 . S
C1728 H1722 0.950 . S
C1728 C1729 1.327 . S
C1729 H1723 0.950 . S
C1729 C1728 1.327 . S
C1729 C1733 1.429 . S
C1730 C1713 1.574 . S
C1730 H1724 0.949 . S
C1730 C1734 1.368 . S
C1731 C1712 1.429 . S
C1731 C1725 1.429 . S
C1731 C1732 1.523 . S
C1732 C1713 1.368 . S
C1732 C1726 1.368 . S
C1732 C1731 1.523 . S
C1733 C1717 1.429 . S
C1733 C1729 1.429 . S
C1733 C1734 1.523 . S
C1734 C1718 1.368 . S
C1734 C1730 1.368 . S
C1734 C1733 1.523 . S
H1735 C1710 0.950 . S
H1736 C1712 0.950 . S
H1737 C1713 0.949 . S
H1738 C1715 0.950 1_556 S
H1739 C1717 0.950 . S
C1740 C1741 1.349 . S
C1740 C1742 1.327 . S
C1740 H1765 0.950 . S
C1741 C1740 1.349 . S
C1741 C1757 1.349 . S
C1742 C1740 1.327 . S
C1742 C1761 1.429 . S
C1742 H1766 0.950 . S
C1743 C1760 1.574 . S
C1743 C1762 1.368 . S
C1743 H1767 0.949 . S
H1744 C1748 0.949 . S
C1745 C1746 1.349 . S
C1745 C1747 1.327 . S
C1745 H1768 0.950 . S
C1746 C1745 1.349 . S
C1746 C1758 1.349 . S
C1747 C1745 1.327 . S
C1747 C1763 1.429 . S
C1747 H1769 0.950 . S
C1748 H1744 0.949 . S
C1748 C1756 1.574 . S
C1748 C1764 1.368 . S
H1749 C1757 0.950 . S
H1750 C1755 0.950 . S
H1751 C1756 0.949 . S
H1752 C1758 0.950 . S
H1753 C1759 0.950 . S
H1754 C1760 0.949 . S
C1755 H1750 0.950 . S
C1755 C1757 1.327 . S
C1755 C1761 1.429 . S
C1756 C1748 1.574 . S
C1756 H1751 0.949 . S
C1756 C1762 1.368 . S
C1757 C1741 1.349 . S
C1757 H1749 0.950 . S
C1757 C1755 1.327 . S
C1758 C1746 1.349 . S
C1758 H1752 0.950 . S
C1758 C1759 1.327 . S
C1759 H1753 0.950 . S
C1759 C1758 1.327 . S
C1759 C1763 1.429 . S
C1760 C1743 1.574 . S
C1760 H1754 0.949 . S
C1760 C1764 1.368 . S
C1761 C1742 1.429 . S
C1761 C1755 1.429 . S
C1761 C1762 1.523 . S
C1762 C1743 1.368 . S
C1762 C1756 1.368 . S
C1762 C1761 1.523 . S
C1763 C1747 1.429 . S
C1763 C1759 1.429 . S
C1763 C1764 1.523 . S
C1764 C1748 1.368 . S
C1764 C1760 1.368 . S
C1764 C1763 1.523 . S
H1765 C1740 0.950 . S
H1766 C1742 0.950 . S
H1767 C1743 0.949 . S
H1768 C1745 0.950 . S
H1769 C1747 0.950 . S
C1770 C1771 1.349 . S
C1770 C1772 1.327 . S
C1770 H1795 0.950 . S
C1771 C1770 1.349 . S
C1771 C1787 1.349 . S
C1772 C1770 1.327 . S
C1772 C1791 1.429 . S
C1772 H1796 0.950 . S
C1773 C1790 1.574 . S
C1773 C1792 1.368 . S
C1773 H1797 0.949 . S
H1774 C1778 1.038 . S
C1775 C1776 1.349 . S
C1775 C1777 1.327 . S
C1775 H1798 0.950 . S
C1776 C1775 1.349 . S
C1776 C1788 1.318 1_554 S
C1777 C1775 1.327 . S
C1777 C1793 1.429 . S
C1777 H1799 0.950 . S
C1778 H1774 1.038 . S
C1778 C1786 1.574 . S
C1778 C1794 1.368 . S
H1779 C1787 0.950 . S
H1780 C1785 0.950 . S
H1781 C1786 0.949 . S
H1782 C1788 0.994 . S
H1783 C1789 0.950 1_556 S
H1784 C1790 0.949 . S
C1785 H1780 0.950 . S
C1785 C1787 1.327 . S
C1785 C1791 1.429 . S
C1786 C1778 1.574 . S
C1786 H1781 0.949 . S
C1786 C1792 1.368 . S
C1787 C1771 1.349 . S
C1787 H1779 0.950 . S
C1787 C1785 1.327 . S
C1788 C1776 1.318 1_556 S
C1788 H1782 0.994 . S
C1788 C1789 1.316 1_556 S
C1789 H1783 0.950 1_554 S
C1789 C1788 1.316 1_554 S
C1789 C1793 1.429 . S
C1790 C1773 1.574 . S
C1790 H1784 0.949 . S
C1790 C1794 1.368 . S
C1791 C1772 1.429 . S
C1791 C1785 1.429 . S
C1791 C1792 1.523 . S
C1792 C1773 1.368 . S
C1792 C1786 1.368 . S
C1792 C1791 1.523 . S
C1793 C1777 1.429 . S
C1793 C1789 1.429 . S
C1793 C1794 1.523 . S
C1794 C1778 1.368 . S
C1794 C1790 1.368 . S
C1794 C1793 1.523 . S
H1795 C1770 0.950 . S
H1796 C1772 0.950 . S
H1797 C1773 0.949 . S
H1798 C1775 0.950 . S
H1799 C1777 0.950 . S
C1800 C1801 1.349 . S
C1800 C1802 1.327 . S
C1800 H1825 0.950 . S
C1801 C1800 1.349 . S
C1801 C1817 1.349 . S
C1802 C1800 1.327 . S
C1802 C1821 1.429 . S
C1802 H1826 0.950 . S
C1803 C1820 1.574 . S
C1803 C1822 1.368 . S
C1803 H1827 0.949 . S
H1804 C1808 0.949 . S
C1805 C1806 1.349 . S
C1805 C1807 1.327 . S
C1805 H1828 0.950 . S
C1806 C1805 1.349 . S
C1806 C1818 1.349 . S
C1807 C1805 1.327 . S
C1807 C1823 1.429 . S
C1807 H1829 0.950 . S
C1808 H1804 0.949 . S
C1808 C1816 1.574 . S
C1808 C1824 1.368 . S
H1809 C1817 0.950 . S
H1810 C1815 0.950 . S
H1811 C1816 0.949 . S
H1812 C1818 0.950 . S
H1813 C1819 0.950 . S
H1814 C1820 0.949 . S
C1815 H1810 0.950 . S
C1815 C1817 1.327 . S
C1815 C1821 1.429 . S
C1816 C1808 1.574 . S
C1816 H1811 0.949 . S
C1816 C1822 1.368 . S
C1817 C1801 1.349 . S
C1817 H1809 0.950 . S
C1817 C1815 1.327 . S
C1818 C1806 1.349 . S
C1818 H1812 0.950 . S
C1818 C1819 1.327 . S
C1819 H1813 0.950 . S
C1819 C1818 1.327 . S
C1819 C1823 1.429 . S
C1820 C1803 1.574 . S
C1820 H1814 0.949 . S
C1820 C1824 1.368 . S
C1821 C1802 1.429 . S
C1821 C1815 1.429 . S
C1821 C1822 1.523 1_655 S
C1822 C1803 1.368 . S
C1822 C1816 1.368 . S
C1822 C1821 1.523 1_455 S
C1823 C1807 1.429 . S
C1823 C1819 1.429 . S
C1823 C1824 1.523 . S
C1824 C1808 1.368 . S
C1824 C1820 1.368 . S
C1824 C1823 1.523 . S
H1825 C1800 0.950 . S
H1826 C1802 0.950 . S
H1827 C1803 0.949 . S
H1828 C1805 0.950 . S
H1829 C1807 0.950 . S
C1830 C1831 1.349 . S
C1830 C1832 1.327 . S
C1830 H1855 0.950 . S
C1831 C1830 1.349 . S
C1831 C1847 1.349 . S
C1832 C1830 1.327 . S
C1832 C1851 1.429 . S
C1832 H1856 0.950 . S
C1833 C1850 1.574 . S
C1833 C1852 1.368 . S
C1833 H1857 0.949 . S
H1834 C1838 0.949 . S
C1835 C1836 1.349 . S
C1835 C1837 1.327 . S
C1835 H1858 0.950 . S
C1836 C1835 1.349 . S
C1836 C1848 1.349 . S
C1837 C1835 1.327 . S
C1837 C1853 1.429 . S
C1837 H1859 0.950 . S
C1838 H1834 0.949 . S
C1838 C1846 1.574 . S
C1838 C1854 1.368 . S
H1839 C1847 0.950 . S
H1840 C1845 0.950 . S
H1841 C1846 0.949 . S
H1842 C1848 0.950 . S
H1843 C1849 0.950 . S
H1844 C1850 0.949 . S
C1845 H1840 0.950 . S
C1845 C1847 1.327 . S
C1845 C1851 1.429 . S
C1846 C1838 1.574 . S
C1846 H1841 0.949 . S
C1846 C1852 1.368 . S
C1847 C1831 1.349 . S
C1847 H1839 0.950 . S
C1847 C1845 1.327 . S
C1848 C1836 1.349 . S
C1848 H1842 0.950 . S
C1848 C1849 1.327 . S
C1849 H1843 0.950 . S
C1849 C1848 1.327 . S
C1849 C1853 1.429 . S
C1850 C1833 1.574 . S
C1850 H1844 0.949 . S
C1850 C1854 1.368 . S
C1851 C1832 1.429 . S
C1851 C1845 1.429 . S
C1851 C1852 1.523 . S
C1852 C1833 1.368 . S
C1852 C1846 1.368 . S
C1852 C1851 1.523 . S
C1853 C1837 1.429 . S
C1853 C1849 1.429 . S
C1853 C1854 1.523 . S
C1854 C1838 1.368 . S
C1854 C1850 1.368 . S
C1854 C1853 1.523 . S
H1855 C1830 0.950 . S
H1856 C1832 0.950 . S
H1857 C1833 0.949 . S
H1858 C1835 0.950 . S
H1859 C1837 0.950 . S
C1860 C1861 1.349 . S
C1860 C1862 1.327 . S
C1860 H1885 0.950 . S
C1861 C1860 1.349 . S
C1861 C1877 1.349 . S
C1862 C1860 1.327 . S
C1862 C1881 1.429 . S
C1862 H1886 0.950 . S
C1863 C1880 1.574 . S
C1863 C1882 1.369 . S
C1863 H1887 0.949 1_565 S
H1864 C1868 0.949 . S
C1865 C1866 1.349 . S
C1865 C1867 1.327 . S
C1865 H1888 0.950 . S
C1866 C1865 1.349 . S
C1866 C1878 1.349 . S
C1867 C1865 1.327 . S
C1867 C1883 1.429 . S
C1867 H1889 0.950 . S
C1868 H1864 0.949 . S
C1868 C1876 1.574 . S
C1868 C1884 1.368 . S
H1869 C1877 0.950 . S
H1870 C1875 0.950 . S
H1871 C1876 0.949 . S
H1872 C1878 0.950 . S
H1873 C1879 0.950 . S
H1874 C1880 0.949 . S
C1875 H1870 0.950 . S
C1875 C1877 1.327 . S
C1875 C1881 1.429 . S
C1876 C1868 1.574 . S
C1876 H1871 0.949 . S
C1876 C1882 1.368 . S
C1877 C1861 1.349 . S
C1877 H1869 0.950 . S
C1877 C1875 1.327 . S
C1878 C1866 1.349 . S
C1878 H1872 0.950 . S
C1878 C1879 1.327 . S
C1879 H1873 0.950 . S
C1879 C1878 1.327 . S
C1879 C1883 1.429 . S
C1880 C1863 1.574 . S
C1880 H1874 0.949 . S
C1880 C1884 1.368 . S
C1881 C1862 1.429 . S
C1881 C1875 1.429 . S
C1881 C1882 1.522 1_545 S
C1882 C1863 1.369 . S
C1882 C1876 1.368 . S
C1882 C1881 1.522 1_565 S
C1883 C1867 1.429 . S
C1883 C1879 1.429 . S
C1883 C1884 1.523 . S
C1884 C1868 1.368 . S
C1884 C1880 1.368 . S
C1884 C1883 1.523 . S
H1885 C1860 0.950 . S
H1886 C1862 0.950 . S
H1887 C1863 0.949 1_545 S
H1888 C1865 0.950 . S
H1889 C1867 0.950 . S
C1890 C1891 1.349 . S
C1890 C1892 1.327 . S
C1890 H1915 0.950 . S
C1891 C1890 1.349 . S
C1891 C1907 1.349 . S
C1892 C1890 1.327 . S
C1892 C1911 1.429 . S
C1892 H1916 0.950 . S
C1893 C1910 1.574 . S
C1893 C1912 1.368 . S
C1893 H1917 0.949 . S
H1894 C1898 0.949 . S
C1895 C1896 1.349 . S
C1895 C1897 1.327 . S
C1895 H1918 0.950 . S
C1896 C1895 1.349 . S
C1896 C1908 1.349 . S
C1897 C1895 1.327 . S
C1897 C1913 1.429 . S
C1897 H1919 0.950 . S
C1898 H1894 0.949 . S
C1898 C1906 1.574 . S
C1898 C1914 1.368 . S
H1899 C1907 0.950 . S
H1900 C1905 0.950 . S
H1901 C1906 0.949 . S
H1902 C1908 0.950 . S
H1903 C1909 0.950 . S
H1904 C1910 0.949 . S
C1905 H1900 0.950 . S
C1905 C1907 1.327 . S
C1905 C1911 1.429 . S
C1906 C1898 1.574 . S
C1906 H1901 0.949 . S
C1906 C1912 1.368 . S
C1907 C1891 1.349 . S
C1907 H1899 0.950 . S
C1907 C1905 1.327 . S
C1908 C1896 1.349 . S
C1908 H1902 0.950 . S
C1908 C1909 1.327 . S
C1909 H1903 0.950 . S
C1909 C1908 1.327 . S
C1909 C1913 1.429 . S
C1910 C1893 1.574 . S
C1910 H1904 0.949 . S
C1910 C1914 1.368 . S
C1911 C1892 1.429 . S
C1911 C1905 1.429 . S
C1911 C1912 1.523 . S
C1912 C1893 1.368 . S
C1912 C1906 1.368 . S
C1912 C1911 1.523 . S
C1913 C1897 1.429 . S
C1913 C1909 1.429 . S
C1913 C1914 1.523 . S
C1914 C1898 1.368 . S
C1914 C1910 1.368 . S
C1914 C1913 1.523 . S
H1915 C1890 0.950 . S
H1916 C1892 0.950 . S
H1917 C1893 0.949 . S
H1918 C1895 0.950 . S
H1919 C1897 0.950 . S
C1920 C1921 1.349 . S
C1920 C1922 1.327 . S
C1920 H1945 0.950 . S
C1921 C1920 1.349 . S
C1921 C1937 1.349 . S
C1922 C1920 1.327 . S
C1922 C1941 1.429 . S
C1922 H1946 0.950 . S
C1923 C1940 1.574 . S
C1923 C1942 1.368 . S
C1923 H1947 0.949 . S
H1924 C1928 0.949 . S
C1925 C1926 1.349 . S
C1925 C1927 1.327 . S
C1925 H1948 0.950 . S
C1926 C1925 1.349 . S
C1926 C1938 1.349 . S
C1927 C1925 1.327 . S
C1927 C1943 1.429 . S
C1927 H1949 0.950 . S
C1928 H1924 0.949 . S
C1928 C1936 1.574 . S
C1928 C1944 1.368 . S
H1929 C1937 0.950 . S
H1930 C1935 0.950 . S
H1931 C1936 0.949 . S
H1932 C1938 0.950 . S
H1933 C1939 0.950 . S
H1934 C1940 0.949 . S
C1935 H1930 0.950 . S
C1935 C1937 1.327 . S
C1935 C1941 1.429 . S
C1936 C1928 1.574 . S
C1936 H1931 0.949 . S
C1936 C1942 1.368 . S
C1937 C1921 1.349 . S
C1937 H1929 0.950 . S
C1937 C1935 1.327 . S
C1938 C1926 1.349 . S
C1938 H1932 0.950 . S
C1938 C1939 1.327 . S
C1939 H1933 0.950 . S
C1939 C1938 1.327 . S
C1939 C1943 1.429 . S
C1940 C1923 1.574 . S
C1940 H1934 0.949 . S
C1940 C1944 1.368 . S
C1941 C1922 1.429 . S
C1941 C1935 1.429 . S
C1941 C1942 1.523 . S
C1942 C1923 1.368 . S
C1942 C1936 1.368 . S
C1942 C1941 1.523 . S
C1943 C1927 1.429 . S
C1943 C1939 1.429 . S
C1943 C1944 1.523 . S
C1944 C1928 1.368 . S
C1944 C1940 1.368 . S
C1944 C1943 1.523 . S
H1945 C1920 0.950 . S
H1946 C1922 0.950 . S
H1947 C1923 0.949 . S
H1948 C1925 0.950 . S
H1949 C1927 0.950 . S
C1950 C1951 1.349 . S
C1950 C1952 1.327 . S
C1950 H1975 0.950 . S
C1951 C1950 1.349 . S
C1951 C1967 1.349 . S
C1952 C1950 1.327 . S
C1952 C1971 1.429 . S
C1952 H1976 0.950 . S
C1953 C1970 1.574 . S
C1953 C1972 1.368 . S
C1953 H1977 0.949 . S
H1954 C1958 0.949 . S
C1955 C1956 1.349 . S
C1955 C1957 1.327 . S
C1955 H1978 0.950 . S
C1956 C1955 1.349 . S
C1956 C1968 1.349 . S
C1957 C1955 1.327 . S
C1957 C1973 1.429 . S
C1957 H1979 0.950 . S
C1958 H1954 0.949 . S
C1958 C1966 1.574 . S
C1958 C1974 1.368 . S
H1959 C1967 0.950 . S
H1960 C1965 0.950 . S
H1961 C1966 0.949 . S
H1962 C1968 0.950 . S
H1963 C1969 0.950 . S
H1964 C1970 0.949 . S
C1965 H1960 0.950 . S
C1965 C1967 1.327 . S
C1965 C1971 1.429 . S
C1966 C1958 1.574 . S
C1966 H1961 0.949 . S
C1966 C1972 1.368 . S
C1967 C1951 1.349 . S
C1967 H1959 0.950 . S
C1967 C1965 1.327 . S
C1968 C1956 1.349 . S
C1968 H1962 0.950 . S
C1968 C1969 1.327 . S
C1969 H1963 0.950 . S
C1969 C1968 1.327 . S
C1969 C1973 1.429 . S
C1970 C1953 1.574 . S
C1970 H1964 0.949 . S
C1970 C1974 1.368 . S
C1971 C1952 1.429 . S
C1971 C1965 1.429 . S
C1971 C1972 1.523 . S
C1972 C1953 1.368 . S
C1972 C1966 1.368 . S
C1972 C1971 1.523 . S
C1973 C1957 1.429 . S
C1973 C1969 1.429 . S
C1973 C1974 1.523 . S
C1974 C1958 1.368 . S
C1974 C1970 1.368 . S
C1974 C1973 1.523 . S
H1975 C1950 0.950 . S
H1976 C1952 0.950 . S
H1977 C1953 0.949 . S
H1978 C1955 0.950 . S
H1979 C1957 0.950 . S
C1980 C1981 1.349 . S
C1980 C1982 1.327 . S
C1980 H2005 0.950 . S
C1981 C1980 1.349 . S
C1981 C1997 1.349 . S
C1982 C1980 1.327 . S
C1982 C2001 1.429 . S
C1982 H2006 0.950 . S
C1983 C2000 1.574 . S
C1983 C2002 1.368 . S
C1983 H2007 0.949 . S
H1984 C1988 0.949 . S
C1985 C1986 1.349 . S
C1985 C1987 1.327 . S
C1985 H2008 0.950 . S
C1986 C1985 1.349 . S
C1986 C1998 1.349 . S
C1987 C1985 1.327 . S
C1987 C2003 1.429 . S
C1987 H2009 0.950 . S
C1988 H1984 0.949 . S
C1988 C1996 1.574 . S
C1988 C2004 1.368 . S
H1989 C1997 0.950 . S
H1990 C1995 0.950 . S
H1991 C1996 0.949 . S
H1992 C1998 0.950 . S
H1993 C1999 0.950 . S
H1994 C2000 0.949 . S
C1995 H1990 0.950 . S
C1995 C1997 1.327 . S
C1995 C2001 1.429 . S
C1996 C1988 1.574 . S
C1996 H1991 0.949 . S
C1996 C2002 1.368 . S
C1997 C1981 1.349 . S
C1997 H1989 0.950 . S
C1997 C1995 1.327 . S
C1998 C1986 1.349 . S
C1998 H1992 0.950 . S
C1998 C1999 1.327 . S
C1999 H1993 0.950 . S
C1999 C1998 1.327 . S
C1999 C2003 1.429 . S
C2000 C1983 1.574 . S
C2000 H1994 0.949 . S
C2000 C2004 1.368 . S
C2001 C1982 1.429 . S
C2001 C1995 1.429 . S
C2001 C2002 1.523 . S
C2002 C1983 1.368 . S
C2002 C1996 1.368 . S
C2002 C2001 1.523 . S
C2003 C1987 1.429 . S
C2003 C1999 1.429 . S
C2003 C2004 1.523 . S
C2004 C1988 1.368 . S
C2004 C2000 1.368 . S
C2004 C2003 1.523 . S
H2005 C1980 0.950 . S
H2006 C1982 0.950 . S
H2007 C1983 0.949 . S
H2008 C1985 0.950 . S
H2009 C1987 0.950 . S
C2010 C2011 1.349 . S
C2010 C2012 1.327 . S
C2010 H2035 0.950 . S
C2011 C2010 1.349 . S
C2011 C2027 1.349 . S
C2012 C2010 1.327 . S
C2012 C2031 1.429 . S
C2012 H2036 0.950 . S
C2013 C2030 1.574 . S
C2013 C2032 1.368 . S
C2013 H2037 0.949 . S
H2014 C2018 0.949 . S
C2015 C2016 1.349 . S
C2015 C2017 1.327 . S
C2015 H2038 0.950 . S
C2016 C2015 1.349 . S
C2016 C2028 1.349 . S
C2017 C2015 1.327 . S
C2017 C2033 1.429 . S
C2017 H2039 0.950 . S
C2018 H2014 0.949 . S
C2018 C2026 1.574 . S
C2018 C2034 1.368 . S
H2019 C2027 0.950 . S
H2020 C2025 0.950 . S
H2021 C2026 0.949 . S
H2022 C2028 0.950 . S
H2023 C2029 0.950 . S
H2024 C2030 0.949 . S
C2025 H2020 0.950 . S
C2025 C2027 1.327 . S
C2025 C2031 1.429 . S
C2026 C2018 1.574 . S
C2026 H2021 0.949 . S
C2026 C2032 1.368 . S
C2027 C2011 1.349 . S
C2027 H2019 0.950 . S
C2027 C2025 1.327 . S
C2028 C2016 1.349 . S
C2028 H2022 0.950 . S
C2028 C2029 1.327 . S
C2029 H2023 0.950 . S
C2029 C2028 1.327 . S
C2029 C2033 1.429 . S
C2030 C2013 1.574 . S
C2030 H2024 0.949 . S
C2030 C2034 1.368 . S
C2031 C2012 1.429 . S
C2031 C2025 1.429 . S
C2031 C2032 1.523 . S
C2032 C2013 1.368 . S
C2032 C2026 1.368 . S
C2032 C2031 1.523 . S
C2033 C2017 1.429 . S
C2033 C2029 1.429 . S
C2033 C2034 1.523 . S
C2034 C2018 1.368 . S
C2034 C2030 1.368 . S
C2034 C2033 1.523 . S
H2035 C2010 0.950 . S
H2036 C2012 0.950 . S
H2037 C2013 0.949 . S
H2038 C2015 0.950 . S
H2039 C2017 0.950 . S
C2040 C2041 1.349 . S
C2040 C2042 1.327 . S
C2040 H2065 0.950 . S
C2041 C2040 1.349 . S
C2041 C2057 1.349 . S
C2042 C2040 1.327 . S
C2042 C2061 1.429 . S
C2042 H2066 0.950 . S
C2043 C2060 1.574 . S
C2043 C2062 1.368 . S
C2043 H2067 0.949 . S
H2044 C2048 0.949 . S
C2045 C2046 1.349 . S
C2045 C2047 1.327 . S
C2045 H2068 0.950 . S
C2046 C2045 1.349 . S
C2046 C2058 1.349 . S
C2047 C2045 1.327 . S
C2047 C2063 1.429 . S
C2047 H2069 0.950 . S
C2048 H2044 0.949 . S
C2048 C2056 1.574 . S
C2048 C2064 1.368 . S
H2049 C2057 0.950 . S
H2050 C2055 0.950 . S
H2051 C2056 0.949 . S
H2052 C2058 0.950 . S
H2053 C2059 0.950 . S
H2054 C2060 0.949 . S
C2055 H2050 0.950 . S
C2055 C2057 1.327 . S
C2055 C2061 1.429 . S
C2056 C2048 1.574 . S
C2056 H2051 0.949 . S
C2056 C2062 1.368 . S
C2057 C2041 1.349 . S
C2057 H2049 0.950 . S
C2057 C2055 1.327 . S
C2058 C2046 1.349 . S
C2058 H2052 0.950 . S
C2058 C2059 1.327 . S
C2059 H2053 0.950 . S
C2059 C2058 1.327 . S
C2059 C2063 1.429 . S
C2060 C2043 1.574 . S
C2060 H2054 0.949 . S
C2060 C2064 1.368 . S
C2061 C2042 1.429 . S
C2061 C2055 1.429 . S
C2061 C2062 1.523 . S
C2062 C2043 1.368 . S
C2062 C2056 1.368 . S
C2062 C2061 1.523 . S
C2063 C2047 1.429 . S
C2063 C2059 1.429 . S
C2063 C2064 1.523 . S
C2064 C2048 1.368 . S
C2064 C2060 1.368 . S
C2064 C2063 1.523 . S
H2065 C2040 0.950 . S
H2066 C2042 0.950 . S
H2067 C2043 0.949 . S
H2068 C2045 0.950 . S
H2069 C2047 0.950 . S
C2070 C2071 1.349 . S
C2070 C2072 1.327 . S
C2070 H2095 0.950 . S
C2071 C2070 1.349 . S
C2071 C2087 1.349 . S
C2072 C2070 1.327 . S
C2072 C2091 1.429 . S
C2072 H2096 0.950 . S
C2073 C2090 1.574 . S
C2073 C2092 1.368 . S
C2073 H2097 0.972 . S
H2074 C2078 0.949 . S
C2075 C2076 1.349 . S
C2075 C2077 1.327 . S
C2075 H2098 0.950 . S
C2076 C2075 1.349 . S
C2076 C2088 1.349 . S
C2077 C2075 1.327 . S
C2077 C2093 1.429 . S
C2077 H2099 0.950 . S
C2078 H2074 0.949 . S
C2078 C2086 1.574 . S
C2078 C2094 1.368 . S
H2079 C2087 0.950 . S
H2080 C2085 0.950 . S
H2081 C2086 0.949 . S
H2082 C2088 0.950 . S
H2083 C2089 0.950 . S
H2084 C2090 0.949 . S
C2085 H2080 0.950 . S
C2085 C2087 1.327 . S
C2085 C2091 1.429 . S
C2086 C2078 1.574 . S
C2086 H2081 0.949 . S
C2086 C2092 1.368 . S
C2087 C2071 1.349 . S
C2087 H2079 0.950 . S
C2087 C2085 1.327 . S
C2088 C2076 1.349 . S
C2088 H2082 0.950 . S
C2088 C2089 1.327 . S
C2089 H2083 0.950 . S
C2089 C2088 1.327 . S
C2089 C2093 1.429 . S
C2090 C2073 1.574 . S
C2090 H2084 0.949 . S
C2090 C2094 1.368 . S
C2091 C2072 1.429 . S
C2091 C2085 1.429 . S
C2091 C2092 1.523 1_545 S
C2092 C2073 1.368 . S
C2092 C2086 1.368 . S
C2092 C2091 1.523 1_565 S
C2093 C2077 1.429 . S
C2093 C2089 1.429 . S
C2093 C2094 1.523 . S
C2094 C2078 1.368 . S
C2094 C2090 1.368 . S
C2094 C2093 1.523 . S
H2095 C2070 0.950 . S
H2096 C2072 0.950 . S
H2097 C2073 0.972 . S
H2098 C2075 0.950 . S
H2099 C2077 0.950 . S
C2100 C2101 1.349 . S
C2100 C2102 1.327 1_655 S
C2100 H2125 0.950 . S
C2101 C2100 1.349 . S
C2101 C2117 1.349 . S
C2102 C2100 1.327 1_455 S
C2102 C2121 1.429 . S
C2102 H2126 0.950 . S
C2103 C2120 1.574 . S
C2103 C2122 1.368 . S
C2103 H2127 0.949 . S
H2104 C2108 0.949 . S
C2105 C2106 1.349 . S
C2105 C2107 1.327 . S
C2105 H2128 0.950 . S
C2106 C2105 1.349 . S
C2106 C2118 1.349 . S
C2107 C2105 1.327 . S
C2107 C2123 1.429 . S
C2107 H2129 0.950 . S
C2108 H2104 0.949 . S
C2108 C2116 1.574 . S
C2108 C2124 1.368 . S
H2109 C2117 0.950 . S
H2110 C2115 0.950 . S
H2111 C2116 0.949 . S
H2112 C2118 0.950 . S
H2113 C2119 0.950 . S
H2114 C2120 0.949 . S
C2115 H2110 0.950 . S
C2115 C2117 1.327 . S
C2115 C2121 1.429 1_655 S
C2116 C2108 1.574 . S
C2116 H2111 0.949 . S
C2116 C2122 1.368 . S
C2117 C2101 1.349 . S
C2117 H2109 0.950 . S
C2117 C2115 1.327 . S
C2118 C2106 1.349 . S
C2118 H2112 0.950 . S
C2118 C2119 1.327 . S
C2119 H2113 0.950 . S
C2119 C2118 1.327 . S
C2119 C2123 1.429 . S
C2120 C2103 1.574 . S
C2120 H2114 0.949 . S
C2120 C2124 1.368 . S
C2121 C2102 1.429 . S
C2121 C2115 1.429 1_455 S
C2121 C2122 1.523 . S
C2122 C2103 1.368 . S
C2122 C2116 1.368 . S
C2122 C2121 1.523 . S
C2123 C2107 1.429 . S
C2123 C2119 1.429 . S
C2123 C2124 1.523 . S
C2124 C2108 1.368 . S
C2124 C2120 1.368 . S
C2124 C2123 1.523 . S
H2125 C2100 0.950 . S
H2126 C2102 0.950 . S
H2127 C2103 0.949 . S
H2128 C2105 0.950 . S
H2129 C2107 0.950 . S
C2130 C2131 1.349 . S
C2130 C2132 1.327 . S
C2130 H2155 0.950 . S
C2131 C2130 1.349 . S
C2131 C2147 1.349 . S
C2132 C2130 1.327 . S
C2132 C2151 1.429 . S
C2132 H2156 0.950 . S
C2133 C2150 1.574 . S
C2133 C2152 1.368 . S
C2133 H2157 0.949 . S
H2134 C2138 0.949 . S
C2135 C2136 1.349 . S
C2135 C2137 1.327 . S
C2135 H2158 0.950 . S
C2136 C2135 1.349 . S
C2136 C2148 1.349 . S
C2137 C2135 1.327 . S
C2137 C2153 1.429 . S
C2137 H2159 0.950 . S
C2138 H2134 0.949 . S
C2138 C2146 1.574 . S
C2138 C2154 1.368 . S
H2139 C2147 0.950 . S
H2140 C2145 0.950 . S
H2141 C2146 0.949 . S
H2142 C2148 0.950 . S
H2143 C2149 0.950 . S
H2144 C2150 0.949 . S
C2145 H2140 0.950 . S
C2145 C2147 1.327 . S
C2145 C2151 1.429 . S
C2146 C2138 1.574 . S
C2146 H2141 0.949 . S
C2146 C2152 1.368 . S
C2147 C2131 1.349 . S
C2147 H2139 0.950 . S
C2147 C2145 1.327 . S
C2148 C2136 1.349 . S
C2148 H2142 0.950 . S
C2148 C2149 1.327 . S
C2149 H2143 0.950 . S
C2149 C2148 1.327 . S
C2149 C2153 1.429 . S
C2150 C2133 1.574 . S
C2150 H2144 0.949 . S
C2150 C2154 1.368 . S
C2151 C2132 1.429 . S
C2151 C2145 1.429 . S
C2151 C2152 1.523 . S
C2152 C2133 1.368 . S
C2152 C2146 1.368 . S
C2152 C2151 1.523 . S
C2153 C2137 1.429 . S
C2153 C2149 1.429 . S
C2153 C2154 1.523 . S
C2154 C2138 1.368 . S
C2154 C2150 1.368 . S
C2154 C2153 1.523 . S
H2155 C2130 0.950 . S
H2156 C2132 0.950 . S
H2157 C2133 0.949 . S
H2158 C2135 0.950 . S
H2159 C2137 0.950 . S
C2160 C2161 1.349 . S
C2160 C2162 1.327 . S
C2160 H2185 0.950 . S
C2161 C2160 1.349 . S
C2161 C2177 1.349 . S
C2162 C2160 1.327 . S
C2162 C2181 1.429 . S
C2162 H2186 0.950 . S
C2163 C2180 1.574 . S
C2163 C2182 1.368 . S
C2163 H2187 0.949 . S
H2164 C2168 0.949 . S
C2165 C2166 1.349 . S
C2165 C2167 1.327 . S
C2165 H2188 0.950 . S
C2166 C2165 1.349 . S
C2166 C2178 1.349 . S
C2167 C2165 1.327 . S
C2167 C2183 1.429 . S
C2167 H2189 0.950 . S
C2168 H2164 0.949 . S
C2168 C2176 1.574 . S
C2168 C2184 1.368 . S
H2169 C2177 0.950 . S
H2170 C2175 0.950 . S
H2171 C2176 0.949 . S
H2172 C2178 0.950 . S
H2173 C2179 0.950 . S
H2174 C2180 0.949 . S
C2175 H2170 0.950 . S
C2175 C2177 1.327 . S
C2175 C2181 1.429 . S
C2176 C2168 1.574 . S
C2176 H2171 0.949 . S
C2176 C2182 1.368 . S
C2177 C2161 1.349 . S
C2177 H2169 0.950 . S
C2177 C2175 1.327 . S
C2178 C2166 1.349 . S
C2178 H2172 0.950 . S
C2178 C2179 1.327 . S
C2179 H2173 0.950 . S
C2179 C2178 1.327 . S
C2179 C2183 1.429 . S
C2180 C2163 1.574 . S
C2180 H2174 0.949 . S
C2180 C2184 1.368 . S
C2181 C2162 1.429 . S
C2181 C2175 1.429 . S
C2181 C2182 1.523 . S
C2182 C2163 1.368 . S
C2182 C2176 1.368 . S
C2182 C2181 1.523 . S
C2183 C2167 1.429 . S
C2183 C2179 1.429 . S
C2183 C2184 1.523 . S
C2184 C2168 1.368 . S
C2184 C2180 1.368 . S
C2184 C2183 1.523 . S
H2185 C2160 0.950 . S
H2186 C2162 0.950 . S
H2187 C2163 0.949 . S
H2188 C2165 0.950 . S
H2189 C2167 0.950 . S
C2190 C2191 1.349 . S
C2190 C2192 1.327 . S
C2190 H2215 0.950 . S
C2191 C2190 1.349 . S
C2191 C2207 1.349 . S
C2192 C2190 1.327 . S
C2192 C2211 1.429 . S
C2192 H2216 0.950 . S
C2193 C2210 1.574 . S
C2193 C2212 1.368 . S
C2193 H2217 0.949 . S
H2194 C2198 0.949 . S
C2195 C2196 1.349 . S
C2195 C2197 1.327 . S
C2195 H2218 0.950 . S
C2196 C2195 1.349 . S
C2196 C2208 1.349 . S
C2197 C2195 1.327 . S
C2197 C2213 1.429 . S
C2197 H2219 0.950 . S
C2198 H2194 0.949 . S
C2198 C2206 1.574 . S
C2198 C2214 1.368 . S
H2199 C2207 0.950 . S
H2200 C2205 0.950 . S
H2201 C2206 0.949 . S
H2202 C2208 0.950 . S
H2203 C2209 0.950 . S
H2204 C2210 0.949 . S
C2205 H2200 0.950 . S
C2205 C2207 1.327 . S
C2205 C2211 1.429 . S
C2206 C2198 1.574 . S
C2206 H2201 0.949 . S
C2206 C2212 1.368 . S
C2207 C2191 1.349 . S
C2207 H2199 0.950 . S
C2207 C2205 1.327 . S
C2208 C2196 1.349 . S
C2208 H2202 0.950 . S
C2208 C2209 1.327 . S
C2209 H2203 0.950 . S
C2209 C2208 1.327 . S
C2209 C2213 1.429 . S
C2210 C2193 1.574 . S
C2210 H2204 0.949 . S
C2210 C2214 1.368 . S
C2211 C2192 1.429 . S
C2211 C2205 1.429 . S
C2211 C2212 1.523 . S
C2212 C2193 1.368 . S
C2212 C2206 1.368 . S
C2212 C2211 1.523 . S
C2213 C2197 1.429 . S
C2213 C2209 1.429 . S
C2213 C2214 1.523 . S
C2214 C2198 1.368 . S
C2214 C2210 1.368 . S
C2214 C2213 1.523 . S
H2215 C2190 0.950 . S
H2216 C2192 0.950 . S
H2217 C2193 0.949 . S
H2218 C2195 0.950 . S
H2219 C2197 0.950 . S
C2220 C2221 1.349 . S
C2220 C2222 1.327 . S
C2220 H2245 0.950 . S
C2221 C2220 1.349 . S
C2221 C2237 1.349 . S
C2222 C2220 1.327 . S
C2222 C2241 1.429 . S
C2222 H2246 0.950 . S
C2223 C2240 1.574 . S
C2223 C2242 1.368 . S
C2223 H2247 0.949 . S
H2224 C2228 0.949 . S
C2225 C2226 1.349 . S
C2225 C2227 1.327 . S
C2225 H2248 0.950 . S
C2226 C2225 1.349 . S
C2226 C2238 1.349 . S
C2227 C2225 1.327 . S
C2227 C2243 1.429 . S
C2227 H2249 0.950 . S
C2228 H2224 0.949 . S
C2228 C2236 1.574 . S
C2228 C2244 1.368 . S
H2229 C2237 0.950 . S
H2230 C2235 0.950 . S
H2231 C2236 0.949 . S
H2232 C2238 0.950 . S
H2233 C2239 0.950 . S
H2234 C2240 0.949 . S
C2235 H2230 0.950 . S
C2235 C2237 1.327 . S
C2235 C2241 1.429 . S
C2236 C2228 1.574 . S
C2236 H2231 0.949 . S
C2236 C2242 1.368 . S
C2237 C2221 1.349 . S
C2237 H2229 0.950 . S
C2237 C2235 1.327 . S
C2238 C2226 1.349 . S
C2238 H2232 0.950 . S
C2238 C2239 1.327 . S
C2239 H2233 0.950 . S
C2239 C2238 1.327 . S
C2239 C2243 1.429 . S
C2240 C2223 1.574 . S
C2240 H2234 0.949 . S
C2240 C2244 1.368 . S
C2241 C2222 1.429 . S
C2241 C2235 1.429 . S
C2241 C2242 1.523 . S
C2242 C2223 1.368 . S
C2242 C2236 1.368 . S
C2242 C2241 1.523 . S
C2243 C2227 1.429 . S
C2243 C2239 1.429 . S
C2243 C2244 1.523 . S
C2244 C2228 1.368 . S
C2244 C2240 1.368 . S
C2244 C2243 1.523 . S
H2245 C2220 0.950 . S
H2246 C2222 0.950 . S
H2247 C2223 0.949 . S
H2248 C2225 0.950 . S
H2249 C2227 0.950 . S
C2250 C2251 1.349 . S
C2250 C2252 1.327 . S
C2250 H2275 0.950 . S
C2251 C2250 1.349 . S
C2251 C2267 1.349 . S
C2252 C2250 1.327 . S
C2252 C2271 1.429 . S
C2252 H2276 0.950 . S
C2253 C2270 1.574 . S
C2253 C2272 1.368 . S
C2253 H2277 0.904 1_545 S
H2254 C2258 0.949 . S
C2255 C2256 1.349 . S
C2255 C2257 1.327 . S
C2255 H2278 0.950 . S
C2256 C2255 1.349 . S
C2256 C2268 1.349 . S
C2257 C2255 1.327 . S
C2257 C2273 1.429 . S
C2257 H2279 0.950 . S
C2258 H2254 0.949 . S
C2258 C2266 1.574 . S
C2258 C2274 1.368 . S
H2259 C2267 0.950 . S
H2260 C2265 0.950 . S
H2261 C2266 0.949 . S
H2262 C2268 0.950 . S
H2263 C2269 0.950 . S
H2264 C2270 0.949 . S
C2265 H2260 0.950 . S
C2265 C2267 1.327 . S
C2265 C2271 1.429 . S
C2266 C2258 1.574 . S
C2266 H2261 0.949 . S
C2266 C2272 1.368 . S
C2267 C2251 1.349 . S
C2267 H2259 0.950 . S
C2267 C2265 1.327 . S
C2268 C2256 1.349 . S
C2268 H2262 0.950 . S
C2268 C2269 1.327 . S
C2269 H2263 0.950 . S
C2269 C2268 1.327 . S
C2269 C2273 1.429 . S
C2270 C2253 1.574 . S
C2270 H2264 0.949 . S
C2270 C2274 1.368 . S
C2271 C2252 1.429 . S
C2271 C2265 1.429 . S
C2271 C2272 1.523 1_565 S
C2272 C2253 1.368 . S
C2272 C2266 1.368 . S
C2272 C2271 1.523 1_545 S
C2273 C2257 1.429 . S
C2273 C2269 1.429 . S
C2273 C2274 1.523 . S
C2274 C2258 1.368 . S
C2274 C2270 1.368 . S
C2274 C2273 1.523 . S
H2275 C2250 0.950 . S
H2276 C2252 0.950 . S
H2277 C2253 0.904 1_565 S
H2278 C2255 0.950 . S
H2279 C2257 0.950 . S
C2280 C2281 1.349 . S
C2280 C2282 1.327 . S
C2280 H2305 0.950 . S
C2281 C2280 1.349 . S
C2281 C2297 1.349 . S
C2282 C2280 1.327 . S
C2282 C2301 1.429 1_455 S
C2282 H2306 0.950 1_455 S
C2283 C2300 1.574 . S
C2283 C2302 1.368 . S
C2283 H2307 0.949 . S
H2284 C2288 0.949 . S
C2285 C2286 1.349 . S
C2285 C2287 1.327 . S
C2285 H2308 0.950 . S
C2286 C2285 1.349 . S
C2286 C2298 1.349 . S
C2287 C2285 1.327 . S
C2287 C2303 1.429 . S
C2287 H2309 0.950 . S
C2288 H2284 0.949 . S
C2288 C2296 1.574 . S
C2288 C2304 1.368 . S
H2289 C2297 0.950 . S
H2290 C2295 0.950 . S
H2291 C2296 0.949 . S
H2292 C2298 0.950 . S
H2293 C2299 0.950 . S
H2294 C2300 0.949 . S
C2295 H2290 0.950 . S
C2295 C2297 1.327 . S
C2295 C2301 1.429 1_455 S
C2296 C2288 1.574 . S
C2296 H2291 0.949 . S
C2296 C2302 1.368 . S
C2297 C2281 1.349 . S
C2297 H2289 0.950 . S
C2297 C2295 1.327 . S
C2298 C2286 1.349 . S
C2298 H2292 0.950 . S
C2298 C2299 1.327 . S
C2299 H2293 0.950 . S
C2299 C2298 1.327 . S
C2299 C2303 1.429 . S
C2300 C2283 1.574 . S
C2300 H2294 0.949 . S
C2300 C2304 1.368 . S
C2301 C2282 1.429 1_655 S
C2301 C2295 1.429 1_655 S
C2301 C2302 1.523 . S
C2302 C2283 1.368 . S
C2302 C2296 1.368 . S
C2302 C2301 1.523 . S
C2303 C2287 1.429 . S
C2303 C2299 1.429 . S
C2303 C2304 1.523 . S
C2304 C2288 1.368 . S
C2304 C2300 1.368 . S
C2304 C2303 1.523 . S
H2305 C2280 0.950 . S
H2306 C2282 0.950 1_655 S
H2307 C2283 0.949 . S
H2308 C2285 0.950 . S
H2309 C2287 0.950 . S
C2310 C2311 1.349 . S
C2310 C2312 1.327 . S
C2310 H2335 0.950 . S
C2311 C2310 1.349 . S
C2311 C2327 1.349 . S
C2312 C2310 1.327 . S
C2312 C2331 1.429 . S
C2312 H2336 0.950 . S
C2313 C2330 1.574 . S
C2313 C2332 1.368 . S
C2313 H2337 0.949 . S
H2314 C2318 0.949 . S
C2315 C2316 1.349 . S
C2315 C2317 1.327 . S
C2315 H2338 0.950 . S
C2316 C2315 1.349 . S
C2316 C2328 1.349 . S
C2317 C2315 1.327 . S
C2317 C2333 1.429 . S
C2317 H2339 0.950 . S
C2318 H2314 0.949 . S
C2318 C2326 1.574 . S
C2318 C2334 1.368 . S
H2319 C2327 0.950 . S
H2320 C2325 0.950 . S
H2321 C2326 0.949 . S
H2322 C2328 0.950 . S
H2323 C2329 0.950 . S
H2324 C2330 0.949 . S
C2325 H2320 0.950 . S
C2325 C2327 1.327 . S
C2325 C2331 1.429 . S
C2326 C2318 1.574 . S
C2326 H2321 0.949 . S
C2326 C2332 1.368 . S
C2327 C2311 1.349 . S
C2327 H2319 0.950 . S
C2327 C2325 1.327 . S
C2328 C2316 1.349 . S
C2328 H2322 0.950 . S
C2328 C2329 1.327 . S
C2329 H2323 0.950 . S
C2329 C2328 1.327 . S
C2329 C2333 1.429 . S
C2330 C2313 1.574 . S
C2330 H2324 0.949 . S
C2330 C2334 1.368 . S
C2331 C2312 1.429 . S
C2331 C2325 1.429 . S
C2331 C2332 1.523 . S
C2332 C2313 1.368 . S
C2332 C2326 1.368 . S
C2332 C2331 1.523 . S
C2333 C2317 1.429 . S
C2333 C2329 1.429 . S
C2333 C2334 1.523 . S
C2334 C2318 1.368 . S
C2334 C2330 1.368 . S
C2334 C2333 1.523 . S
H2335 C2310 0.950 . S
H2336 C2312 0.950 . S
H2337 C2313 0.949 . S
H2338 C2315 0.950 . S
H2339 C2317 0.950 . S
C2340 C2341 1.349 . S
C2340 C2342 1.327 . S
C2340 H2365 0.950 . S
C2341 C2340 1.349 . S
C2341 C2357 1.349 . S
C2342 C2340 1.327 . S
C2342 C2361 1.429 . S
C2342 H2366 0.950 . S
C2343 C2360 1.574 . S
C2343 C2362 1.368 . S
C2343 H2367 0.949 . S
H2344 C2348 0.949 . S
C2345 C2346 1.349 . S
C2345 C2347 1.327 . S
C2345 H2368 0.950 . S
C2346 C2345 1.349 . S
C2346 C2358 1.349 . S
C2347 C2345 1.327 . S
C2347 C2363 1.429 . S
C2347 H2369 0.950 . S
C2348 H2344 0.949 . S
C2348 C2356 1.574 . S
C2348 C2364 1.368 . S
H2349 C2357 0.950 . S
H2350 C2355 0.950 . S
H2351 C2356 0.949 . S
H2352 C2358 0.950 . S
H2353 C2359 0.950 . S
H2354 C2360 0.949 . S
C2355 H2350 0.950 . S
C2355 C2357 1.327 . S
C2355 C2361 1.429 . S
C2356 C2348 1.574 . S
C2356 H2351 0.949 . S
C2356 C2362 1.368 . S
C2357 C2341 1.349 . S
C2357 H2349 0.950 . S
C2357 C2355 1.327 . S
C2358 C2346 1.349 . S
C2358 H2352 0.950 . S
C2358 C2359 1.327 . S
C2359 H2353 0.950 . S
C2359 C2358 1.327 . S
C2359 C2363 1.429 . S
C2360 C2343 1.574 . S
C2360 H2354 0.949 . S
C2360 C2364 1.368 . S
C2361 C2342 1.429 . S
C2361 C2355 1.429 . S
C2361 C2362 1.523 1_455 S
C2362 C2343 1.368 . S
C2362 C2356 1.368 . S
C2362 C2361 1.523 1_655 S
C2363 C2347 1.429 . S
C2363 C2359 1.429 . S
C2363 C2364 1.523 . S
C2364 C2348 1.368 . S
C2364 C2360 1.368 . S
C2364 C2363 1.523 . S
H2365 C2340 0.950 . S
H2366 C2342 0.950 . S
H2367 C2343 0.949 . S
H2368 C2345 0.950 . S
H2369 C2347 0.950 . S
C2370 C2371 1.349 . S
C2370 C2372 1.327 . S
C2370 H2395 0.950 . S
C2371 C2370 1.349 . S
C2371 C2387 1.349 . S
C2372 C2370 1.327 . S
C2372 C2391 1.429 . S
C2372 H2396 0.950 . S
C2373 C2390 1.574 . S
C2373 C2392 1.368 . S
C2373 H2397 0.949 . S
H2374 C2378 0.949 . S
C2375 C2376 1.349 . S
C2375 C2377 1.327 . S
C2375 H2398 0.950 . S
C2376 C2375 1.349 . S
C2376 C2388 1.349 . S
C2377 C2375 1.327 . S
C2377 C2393 1.429 . S
C2377 H2399 0.950 . S
C2378 H2374 0.949 . S
C2378 C2386 1.574 . S
C2378 C2394 1.368 . S
H2379 C2387 0.950 . S
H2380 C2385 0.950 . S
H2381 C2386 0.949 . S
H2382 C2388 0.950 . S
H2383 C2389 0.950 . S
H2384 C2390 0.949 . S
C2385 H2380 0.950 . S
C2385 C2387 1.327 . S
C2385 C2391 1.429 . S
C2386 C2378 1.574 . S
C2386 H2381 0.949 . S
C2386 C2392 1.368 . S
C2387 C2371 1.349 . S
C2387 H2379 0.950 . S
C2387 C2385 1.327 . S
C2388 C2376 1.349 . S
C2388 H2382 0.950 . S
C2388 C2389 1.327 . S
C2389 H2383 0.950 . S
C2389 C2388 1.327 . S
C2389 C2393 1.429 . S
C2390 C2373 1.574 . S
C2390 H2384 0.949 . S
C2390 C2394 1.368 . S
C2391 C2372 1.429 . S
C2391 C2385 1.429 . S
C2391 C2392 1.523 . S
C2392 C2373 1.368 . S
C2392 C2386 1.368 . S
C2392 C2391 1.523 . S
C2393 C2377 1.429 . S
C2393 C2389 1.429 . S
C2393 C2394 1.523 . S
C2394 C2378 1.368 . S
C2394 C2390 1.368 . S
C2394 C2393 1.523 . S
H2395 C2370 0.950 . S
H2396 C2372 0.950 . S
H2397 C2373 0.949 . S
H2398 C2375 0.950 . S
H2399 C2377 0.950 . S
C2400 C2401 1.349 . S
C2400 C2402 1.327 . S
C2400 H2425 0.950 . S
C2401 C2400 1.349 . S
C2401 C2417 1.349 . S
C2402 C2400 1.327 . S
C2402 C2421 1.429 . S
C2402 H2426 0.950 . S
C2403 C2420 1.574 . S
C2403 C2422 1.368 . S
C2403 H2427 0.949 1_545 S
H2404 C2408 0.949 . S
C2405 C2406 1.349 . S
C2405 C2407 1.327 . S
C2405 H2428 0.950 . S
C2406 C2405 1.349 . S
C2406 C2418 1.349 . S
C2407 C2405 1.327 . S
C2407 C2423 1.429 . S
C2407 H2429 0.950 . S
C2408 H2404 0.949 . S
C2408 C2416 1.574 . S
C2408 C2424 1.368 . S
H2409 C2417 0.950 . S
H2410 C2415 0.950 . S
H2411 C2416 0.949 . S
H2412 C2418 0.950 . S
H2413 C2419 0.950 . S
H2414 C2420 0.949 . S
C2415 H2410 0.950 . S
C2415 C2417 1.327 . S
C2415 C2421 1.429 . S
C2416 C2408 1.574 . S
C2416 H2411 0.949 . S
C2416 C2422 1.373 . S
C2417 C2401 1.349 . S
C2417 H2409 0.950 . S
C2417 C2415 1.327 . S
C2418 C2406 1.349 . S
C2418 H2412 0.950 . S
C2418 C2419 1.327 . S
C2419 H2413 0.950 . S
C2419 C2418 1.327 . S
C2419 C2423 1.429 . S
C2420 C2403 1.574 . S
C2420 H2414 0.949 . S
C2420 C2424 1.368 . S
C2421 C2402 1.429 . S
C2421 C2415 1.429 . S
C2421 C2422 1.517 1_565 S
C2422 C2403 1.368 . S
C2422 C2416 1.373 . S
C2422 C2421 1.517 1_545 S
C2423 C2407 1.429 . S
C2423 C2419 1.429 . S
C2423 C2424 1.523 . S
C2424 C2408 1.368 . S
C2424 C2420 1.368 . S
C2424 C2423 1.523 . S
H2425 C2400 0.950 . S
H2426 C2402 0.950 . S
H2427 C2403 0.949 1_565 S
H2428 C2405 0.950 . S
H2429 C2407 0.950 . S
C2430 C2431 1.349 . S
C2430 C2432 1.327 . S
C2430 H2455 0.950 . S
C2431 C2430 1.349 . S
C2431 C2447 1.349 . S
C2432 C2430 1.327 . S
C2432 C2451 1.429 . S
C2432 H2456 0.950 . S
C2433 C2450 1.574 . S
C2433 C2452 1.368 . S
C2433 H2457 0.949 . S
H2434 C2438 0.949 . S
C2435 C2436 1.349 . S
C2435 C2437 1.327 . S
C2435 H2458 0.950 . S
C2436 C2435 1.349 . S
C2436 C2448 1.349 . S
C2437 C2435 1.327 . S
C2437 C2453 1.429 . S
C2437 H2459 0.950 . S
C2438 H2434 0.949 . S
C2438 C2446 1.574 . S
C2438 C2454 1.368 . S
H2439 C2447 0.950 . S
H2440 C2445 0.950 . S
H2441 C2446 0.949 . S
H2442 C2448 0.950 . S
H2443 C2449 0.950 . S
H2444 C2450 0.949 . S
C2445 H2440 0.950 . S
C2445 C2447 1.327 . S
C2445 C2451 1.429 . S
C2446 C2438 1.574 . S
C2446 H2441 0.949 . S
C2446 C2452 1.368 . S
C2447 C2431 1.349 . S
C2447 H2439 0.950 . S
C2447 C2445 1.327 . S
C2448 C2436 1.349 . S
C2448 H2442 0.950 . S
C2448 C2449 1.327 . S
C2449 H2443 0.950 . S
C2449 C2448 1.327 . S
C2449 C2453 1.429 . S
C2450 C2433 1.574 . S
C2450 H2444 0.949 . S
C2450 C2454 1.368 . S
C2451 C2432 1.429 . S
C2451 C2445 1.429 . S
C2451 C2452 1.523 . S
C2452 C2433 1.368 . S
C2452 C2446 1.368 . S
C2452 C2451 1.523 . S
C2453 C2437 1.429 . S
C2453 C2449 1.429 . S
C2453 C2454 1.523 . S
C2454 C2438 1.368 . S
C2454 C2450 1.368 . S
C2454 C2453 1.523 . S
H2455 C2430 0.950 . S
H2456 C2432 0.950 . S
H2457 C2433 0.949 . S
H2458 C2435 0.950 . S
H2459 C2437 0.950 . S
C2460 C2461 1.349 . S
C2460 C2462 1.327 . S
C2460 H2485 0.950 . S
C2461 C2460 1.349 . S
C2461 C2477 1.349 . S
C2462 C2460 1.327 . S
C2462 C2481 1.429 . S
C2462 H2486 0.950 . S
C2463 C2480 1.574 . S
C2463 C2482 1.368 . S
C2463 H2487 0.949 . S
H2464 C2468 0.949 . S
C2465 C2466 1.349 . S
C2465 C2467 1.327 . S
C2465 H2488 0.950 . S
C2466 C2465 1.349 . S
C2466 C2478 1.349 . S
C2467 C2465 1.327 . S
C2467 C2483 1.429 . S
C2467 H2489 0.950 . S
C2468 H2464 0.949 . S
C2468 C2476 1.574 . S
C2468 C2484 1.368 . S
H2469 C2477 0.950 . S
H2470 C2475 0.950 . S
H2471 C2476 0.949 . S
H2472 C2478 0.950 . S
H2473 C2479 0.950 . S
H2474 C2480 0.949 . S
C2475 H2470 0.950 . S
C2475 C2477 1.327 . S
C2475 C2481 1.429 . S
C2476 C2468 1.574 . S
C2476 H2471 0.949 . S
C2476 C2482 1.368 . S
C2477 C2461 1.349 . S
C2477 H2469 0.950 . S
C2477 C2475 1.327 . S
C2478 C2466 1.349 . S
C2478 H2472 0.950 . S
C2478 C2479 1.327 . S
C2479 H2473 0.950 . S
C2479 C2478 1.327 . S
C2479 C2483 1.429 . S
C2480 C2463 1.574 . S
C2480 H2474 0.949 . S
C2480 C2484 1.368 . S
C2481 C2462 1.429 . S
C2481 C2475 1.429 . S
C2481 C2482 1.523 . S
C2482 C2463 1.368 . S
C2482 C2476 1.368 . S
C2482 C2481 1.523 . S
C2483 C2467 1.429 . S
C2483 C2479 1.429 . S
C2483 C2484 1.523 . S
C2484 C2468 1.368 . S
C2484 C2480 1.368 . S
C2484 C2483 1.523 . S
H2485 C2460 0.950 . S
H2486 C2462 0.950 . S
H2487 C2463 0.949 . S
H2488 C2465 0.950 . S
H2489 C2467 0.950 . S
C2490 C2491 1.349 . S
C2490 C2492 1.327 . S
C2490 H2515 0.950 . S
C2491 C2490 1.349 . S
C2491 C2507 1.349 . S
C2492 C2490 1.327 . S
C2492 C2511 1.429 . S
C2492 H2516 0.950 . S
C2493 C2510 1.574 . S
C2493 C2512 1.368 . S
C2493 H2517 0.949 . S
H2494 C2498 0.949 . S
C2495 C2496 1.349 . S
C2495 C2497 1.327 . S
C2495 H2518 0.950 . S
C2496 C2495 1.349 . S
C2496 C2508 1.349 . S
C2497 C2495 1.327 . S
C2497 C2513 1.429 . S
C2497 H2519 0.950 . S
C2498 H2494 0.949 . S
C2498 C2506 1.574 . S
C2498 C2514 1.368 . S
H2499 C2507 0.950 . S
H2500 C2505 0.950 . S
H2501 C2506 0.949 . S
H2502 C2508 0.950 . S
H2503 C2509 0.950 . S
H2504 C2510 0.949 . S
C2505 H2500 0.950 . S
C2505 C2507 1.327 . S
C2505 C2511 1.429 . S
C2506 C2498 1.574 . S
C2506 H2501 0.949 . S
C2506 C2512 1.368 . S
C2507 C2491 1.349 . S
C2507 H2499 0.950 . S
C2507 C2505 1.327 . S
C2508 C2496 1.349 . S
C2508 H2502 0.950 . S
C2508 C2509 1.327 . S
C2509 H2503 0.950 . S
C2509 C2508 1.327 . S
C2509 C2513 1.429 . S
C2510 C2493 1.574 . S
C2510 H2504 0.949 . S
C2510 C2514 1.368 . S
C2511 C2492 1.429 . S
C2511 C2505 1.429 . S
C2511 C2512 1.523 . S
C2512 C2493 1.368 . S
C2512 C2506 1.368 . S
C2512 C2511 1.523 . S
C2513 C2497 1.429 . S
C2513 C2509 1.429 . S
C2513 C2514 1.523 . S
C2514 C2498 1.368 . S
C2514 C2510 1.368 . S
C2514 C2513 1.523 . S
H2515 C2490 0.950 . S
H2516 C2492 0.950 . S
H2517 C2493 0.949 . S
H2518 C2495 0.950 . S
H2519 C2497 0.950 . S
C2520 C2521 1.349 . S
C2520 C2522 1.327 . S
C2520 H2545 0.950 . S
C2521 C2520 1.349 . S
C2521 C2537 1.349 . S
C2522 C2520 1.327 . S
C2522 C2541 1.429 . S
C2522 H2546 0.950 . S
C2523 C2540 1.574 . S
C2523 C2542 1.368 . S
C2523 H2547 0.949 . S
H2524 C2528 0.949 . S
C2525 C2526 1.349 1_545 S
C2525 C2527 1.328 1_545 S
C2525 H2548 0.950 . S
C2526 C2525 1.349 1_565 S
C2526 C2538 1.349 . S
C2527 C2525 1.328 1_565 S
C2527 C2543 1.428 . S
C2527 H2549 0.950 1_565 S
C2528 H2524 0.949 . S
C2528 C2536 1.574 . S
C2528 C2544 1.368 . S
H2529 C2537 0.950 . S
H2530 C2535 0.950 . S
H2531 C2536 0.949 . S
H2532 C2538 0.950 . S
H2533 C2539 0.950 . S
H2534 C2540 0.949 1_545 S
C2535 H2530 0.950 . S
C2535 C2537 1.327 . S
C2535 C2541 1.429 . S
C2536 C2528 1.574 . S
C2536 H2531 0.949 . S
C2536 C2542 1.368 . S
C2537 C2521 1.349 . S
C2537 H2529 0.950 . S
C2537 C2535 1.327 . S
C2538 C2526 1.349 . S
C2538 H2532 0.950 . S
C2538 C2539 1.327 . S
C2539 H2533 0.950 . S
C2539 C2538 1.327 . S
C2539 C2543 1.429 . S
C2540 C2523 1.574 . S
C2540 H2534 0.949 1_565 S
C2540 C2544 1.368 . S
C2541 C2522 1.429 . S
C2541 C2535 1.429 . S
C2541 C2542 1.523 . S
C2542 C2523 1.368 . S
C2542 C2536 1.368 . S
C2542 C2541 1.523 . S
C2543 C2527 1.428 . S
C2543 C2539 1.429 . S
C2543 C2544 1.523 . S
C2544 C2528 1.368 . S
C2544 C2540 1.368 . S
C2544 C2543 1.523 . S
H2545 C2520 0.950 . S
H2546 C2522 0.950 . S
H2547 C2523 0.949 . S
H2548 C2525 0.950 . S
H2549 C2527 0.950 1_545 S
C2550 C2551 1.349 1_655 S
C2550 C2552 1.327 . S
C2550 H2575 0.950 . S
C2551 C2550 1.349 1_455 S
C2551 C2567 1.349 . S
C2552 C2550 1.327 . S
C2552 C2571 1.429 1_655 S
C2552 H2576 0.950 . S
C2553 C2570 1.574 . S
C2553 C2572 1.368 . S
C2553 H2577 0.949 . S
H2554 C2558 0.949 . S
C2555 C2556 1.349 . S
C2555 C2557 1.327 . S
C2555 H2578 0.950 . S
C2556 C2555 1.349 . S
C2556 C2568 1.349 1_455 S
C2557 C2555 1.327 . S
C2557 C2573 1.429 . S
C2557 H2579 0.950 . S
C2558 H2554 0.949 . S
C2558 C2566 1.574 . S
C2558 C2574 1.368 1_655 S
H2559 C2567 0.950 . S
H2560 C2565 0.950 . S
H2561 C2566 0.949 . S
H2562 C2568 0.950 . S
H2563 C2569 0.950 . S
H2564 C2570 0.949 . S
C2565 H2560 0.950 . S
C2565 C2567 1.327 . S
C2565 C2571 1.429 . S
C2566 C2558 1.574 . S
C2566 H2561 0.949 . S
C2566 C2572 1.368 1_655 S
C2567 C2551 1.349 . S
C2567 H2559 0.950 . S
C2567 C2565 1.327 . S
C2568 C2556 1.349 1_655 S
C2568 H2562 0.950 . S
C2568 C2569 1.327 . S
C2569 H2563 0.950 . S
C2569 C2568 1.327 . S
C2569 C2573 1.429 1_655 S
C2570 C2553 1.574 . S
C2570 H2564 0.949 . S
C2570 C2574 1.368 . S
C2571 C2552 1.429 1_455 S
C2571 C2565 1.429 . S
C2571 C2572 1.523 . S
C2572 C2553 1.368 . S
C2572 C2566 1.368 1_455 S
C2572 C2571 1.523 . S
C2573 C2557 1.429 . S
C2573 C2569 1.429 1_455 S
C2573 C2574 1.523 . S
C2574 C2558 1.368 1_455 S
C2574 C2570 1.368 . S
C2574 C2573 1.523 . S
H2575 C2550 0.950 . S
H2576 C2552 0.950 . S
H2577 C2553 0.949 . S
H2578 C2555 0.950 . S
H2579 C2557 0.950 . S
C2580 C2581 1.349 . S
C2580 C2582 1.327 . S
C2580 H2605 0.950 . S
C2581 C2580 1.349 . S
C2581 C2597 1.349 . S
C2582 C2580 1.327 . S
C2582 C2601 1.429 . S
C2582 H2606 0.950 . S
C2583 C2600 1.574 . S
C2583 C2602 1.368 . S
C2583 H2607 0.949 . S
H2584 C2588 0.949 . S
C2585 C2586 1.349 . S
C2585 C2587 1.327 . S
C2585 H2608 0.950 . S
C2586 C2585 1.349 . S
C2586 C2598 1.349 . S
C2587 C2585 1.327 . S
C2587 C2603 1.429 . S
C2587 H2609 0.950 . S
C2588 H2584 0.949 . S
C2588 C2596 1.574 . S
C2588 C2604 1.368 . S
H2589 C2597 0.950 . S
H2590 C2595 0.950 . S
H2591 C2596 0.949 . S
H2592 C2598 0.950 . S
H2593 C2599 0.950 . S
H2594 C2600 0.949 . S
C2595 H2590 0.950 . S
C2595 C2597 1.327 . S
C2595 C2601 1.429 . S
C2596 C2588 1.574 . S
C2596 H2591 0.949 . S
C2596 C2602 1.368 . S
C2597 C2581 1.349 . S
C2597 H2589 0.950 . S
C2597 C2595 1.327 . S
C2598 C2586 1.349 . S
C2598 H2592 0.950 . S
C2598 C2599 1.327 . S
C2599 H2593 0.950 . S
C2599 C2598 1.327 . S
C2599 C2603 1.429 . S
C2600 C2583 1.574 . S
C2600 H2594 0.949 . S
C2600 C2604 1.368 . S
C2601 C2582 1.429 . S
C2601 C2595 1.429 . S
C2601 C2602 1.523 . S
C2602 C2583 1.368 . S
C2602 C2596 1.368 . S
C2602 C2601 1.523 . S
C2603 C2587 1.429 . S
C2603 C2599 1.429 . S
C2603 C2604 1.523 . S
C2604 C2588 1.368 . S
C2604 C2600 1.368 . S
C2604 C2603 1.523 . S
H2605 C2580 0.950 . S
H2606 C2582 0.950 . S
H2607 C2583 0.949 . S
H2608 C2585 0.950 . S
H2609 C2587 0.950 . S
C2610 C2611 1.349 . S
C2610 C2612 1.327 . S
C2610 H2635 0.950 . S
C2611 C2610 1.349 . S
C2611 C2627 1.349 . S
C2612 C2610 1.327 . S
C2612 C2631 1.429 . S
C2612 H2636 0.950 . S
C2613 C2630 1.574 . S
C2613 C2632 1.368 . S
C2613 H2637 0.949 . S
H2614 C2618 0.949 . S
C2615 C2616 1.349 . S
C2615 C2617 1.327 . S
C2615 H2638 0.950 . S
C2616 C2615 1.349 . S
C2616 C2628 1.349 . S
C2617 C2615 1.327 . S
C2617 C2633 1.429 . S
C2617 H2639 0.950 . S
C2618 H2614 0.949 . S
C2618 C2626 1.574 . S
C2618 C2634 1.368 . S
H2619 C2627 0.950 . S
H2620 C2625 0.950 . S
H2621 C2626 0.949 . S
H2622 C2628 0.950 . S
H2623 C2629 0.950 . S
H2624 C2630 0.949 . S
C2625 H2620 0.950 . S
C2625 C2627 1.327 . S
C2625 C2631 1.429 . S
C2626 C2618 1.574 . S
C2626 H2621 0.949 . S
C2626 C2632 1.368 . S
C2627 C2611 1.349 . S
C2627 H2619 0.950 . S
C2627 C2625 1.327 . S
C2628 C2616 1.349 . S
C2628 H2622 0.950 . S
C2628 C2629 1.327 . S
C2629 H2623 0.950 . S
C2629 C2628 1.327 . S
C2629 C2633 1.429 . S
C2630 C2613 1.574 . S
C2630 H2624 0.949 . S
C2630 C2634 1.368 . S
C2631 C2612 1.429 . S
C2631 C2625 1.429 . S
C2631 C2632 1.523 . S
C2632 C2613 1.368 . S
C2632 C2626 1.368 . S
C2632 C2631 1.523 . S
C2633 C2617 1.429 . S
C2633 C2629 1.429 . S
C2633 C2634 1.523 . S
C2634 C2618 1.368 . S
C2634 C2630 1.368 . S
C2634 C2633 1.523 . S
H2635 C2610 0.950 . S
H2636 C2612 0.950 . S
H2637 C2613 0.949 . S
H2638 C2615 0.950 . S
H2639 C2617 0.950 . S
C2640 C2641 1.349 . S
C2640 C2642 1.327 . S
C2640 H2665 0.950 . S
C2641 C2640 1.349 . S
C2641 C2657 1.349 . S
C2642 C2640 1.327 . S
C2642 C2661 1.429 . S
C2642 H2666 0.950 . S
C2643 C2660 1.574 . S
C2643 C2662 1.368 . S
C2643 H2667 0.949 . S
H2644 C2648 0.949 . S
C2645 C2646 1.349 . S
C2645 C2647 1.327 . S
C2645 H2668 0.950 . S
C2646 C2645 1.349 . S
C2646 C2658 1.349 . S
C2647 C2645 1.327 . S
C2647 C2663 1.429 . S
C2647 H2669 0.950 . S
C2648 H2644 0.949 . S
C2648 C2656 1.574 . S
C2648 C2664 1.368 . S
H2649 C2657 0.950 . S
H2650 C2655 0.950 . S
H2651 C2656 0.949 . S
H2652 C2658 0.950 . S
H2653 C2659 0.950 . S
H2654 C2660 0.949 . S
C2655 H2650 0.950 . S
C2655 C2657 1.327 . S
C2655 C2661 1.429 . S
C2656 C2648 1.574 . S
C2656 H2651 0.949 . S
C2656 C2662 1.368 . S
C2657 C2641 1.349 . S
C2657 H2649 0.950 . S
C2657 C2655 1.327 . S
C2658 C2646 1.349 . S
C2658 H2652 0.950 . S
C2658 C2659 1.327 . S
C2659 H2653 0.950 . S
C2659 C2658 1.327 . S
C2659 C2663 1.429 . S
C2660 C2643 1.574 . S
C2660 H2654 0.949 . S
C2660 C2664 1.368 . S
C2661 C2642 1.429 . S
C2661 C2655 1.429 . S
C2661 C2662 1.523 . S
C2662 C2643 1.368 . S
C2662 C2656 1.368 . S
C2662 C2661 1.523 . S
C2663 C2647 1.429 . S
C2663 C2659 1.429 . S
C2663 C2664 1.523 . S
C2664 C2648 1.368 . S
C2664 C2660 1.368 . S
C2664 C2663 1.523 . S
H2665 C2640 0.950 . S
H2666 C2642 0.950 . S
H2667 C2643 0.949 . S
H2668 C2645 0.950 . S
H2669 C2647 0.950 . S
C2670 C2671 1.349 . S
C2670 C2672 1.327 . S
C2670 H2695 0.950 . S
C2671 C2670 1.349 . S
C2671 C2687 1.349 . S
C2672 C2670 1.327 . S
C2672 C2691 1.429 . S
C2672 H2696 0.950 . S
C2673 C2690 1.574 . S
C2673 C2692 1.368 . S
C2673 H2697 0.949 . S
H2674 C2678 0.949 . S
C2675 C2676 1.349 1_565 S
C2675 C2677 1.327 . S
C2675 H2698 0.950 . S
C2676 C2675 1.349 1_545 S
C2676 C2688 1.349 . S
C2677 C2675 1.327 . S
C2677 C2693 1.429 1_565 S
C2677 H2699 0.950 . S
C2678 H2674 0.949 . S
C2678 C2686 1.574 . S
C2678 C2694 1.368 . S
H2679 C2687 0.950 . S
H2680 C2685 0.950 . S
H2681 C2686 0.949 . S
H2682 C2688 0.950 . S
H2683 C2689 0.950 . S
H2684 C2690 0.949 1_565 S
C2685 H2680 0.950 . S
C2685 C2687 1.327 . S
C2685 C2691 1.429 . S
C2686 C2678 1.574 . S
C2686 H2681 0.949 . S
C2686 C2692 1.368 . S
C2687 C2671 1.349 . S
C2687 H2679 0.950 . S
C2687 C2685 1.327 . S
C2688 C2676 1.349 . S
C2688 H2682 0.950 . S
C2688 C2689 1.327 . S
C2689 H2683 0.950 . S
C2689 C2688 1.327 . S
C2689 C2693 1.429 . S
C2690 C2673 1.574 . S
C2690 H2684 0.949 1_545 S
C2690 C2694 1.368 . S
C2691 C2672 1.429 . S
C2691 C2685 1.429 . S
C2691 C2692 1.523 . S
C2692 C2673 1.368 . S
C2692 C2686 1.368 . S
C2692 C2691 1.523 . S
C2693 C2677 1.429 1_545 S
C2693 C2689 1.429 . S
C2693 C2694 1.523 . S
C2694 C2678 1.368 . S
C2694 C2690 1.368 . S
C2694 C2693 1.523 . S
H2695 C2670 0.950 . S
H2696 C2672 0.950 . S
H2697 C2673 0.949 . S
H2698 C2675 0.950 . S
H2699 C2677 0.950 . S
C2700 C2701 1.349 . S
C2700 C2702 1.327 . S
C2700 H2725 0.950 . S
C2701 C2700 1.349 . S
C2701 C2717 1.349 . S
C2702 C2700 1.327 . S
C2702 C2721 1.429 . S
C2702 H2726 0.950 . S
C2703 C2720 1.574 . S
C2703 C2722 1.368 . S
C2703 H2727 0.949 . S
H2704 C2708 0.949 . S
C2705 C2706 1.349 . S
C2705 C2707 1.327 . S
C2705 H2728 0.950 . S
C2706 C2705 1.349 . S
C2706 C2718 1.349 . S
C2707 C2705 1.327 . S
C2707 C2723 1.429 . S
C2707 H2729 0.950 . S
C2708 H2704 0.949 . S
C2708 C2716 1.574 . S
C2708 C2724 1.368 . S
H2709 C2717 0.950 . S
H2710 C2715 0.950 . S
H2711 C2716 0.949 . S
H2712 C2718 0.950 . S
H2713 C2719 0.950 . S
H2714 C2720 0.949 . S
C2715 H2710 0.950 . S
C2715 C2717 1.327 . S
C2715 C2721 1.429 . S
C2716 C2708 1.574 . S
C2716 H2711 0.949 . S
C2716 C2722 1.368 . S
C2717 C2701 1.349 . S
C2717 H2709 0.950 . S
C2717 C2715 1.327 . S
C2718 C2706 1.349 . S
C2718 H2712 0.950 . S
C2718 C2719 1.327 . S
C2719 H2713 0.950 . S
C2719 C2718 1.327 . S
C2719 C2723 1.429 . S
C2720 C2703 1.574 . S
C2720 H2714 0.949 . S
C2720 C2724 1.368 . S
C2721 C2702 1.429 . S
C2721 C2715 1.429 . S
C2721 C2722 1.523 . S
C2722 C2703 1.368 . S
C2722 C2716 1.368 . S
C2722 C2721 1.523 . S
C2723 C2707 1.429 . S
C2723 C2719 1.429 . S
C2723 C2724 1.523 . S
C2724 C2708 1.368 . S
C2724 C2720 1.368 . S
C2724 C2723 1.523 . S
H2725 C2700 0.950 . S
H2726 C2702 0.950 . S
H2727 C2703 0.949 . S
H2728 C2705 0.950 . S
H2729 C2707 0.950 . S
C2730 C2731 1.349 . S
C2730 C2732 1.327 . S
C2730 H2755 0.950 . S
C2731 C2730 1.349 . S
C2731 C2747 1.349 . S
C2732 C2730 1.327 . S
C2732 C2751 1.429 . S
C2732 H2756 0.950 . S
C2733 C2750 1.574 . S
C2733 C2752 1.368 . S
C2733 H2757 0.949 . S
H2734 C2738 0.949 . S
C2735 C2736 1.349 . S
C2735 C2737 1.327 . S
C2735 H2758 0.950 . S
C2736 C2735 1.349 . S
C2736 C2748 1.349 . S
C2737 C2735 1.327 . S
C2737 C2753 1.429 . S
C2737 H2759 0.950 . S
C2738 H2734 0.949 . S
C2738 C2746 1.574 . S
C2738 C2754 1.368 . S
H2739 C2747 0.950 . S
H2740 C2745 0.950 . S
H2741 C2746 0.949 . S
H2742 C2748 0.950 . S
H2743 C2749 0.950 . S
H2744 C2750 0.949 . S
C2745 H2740 0.950 . S
C2745 C2747 1.327 . S
C2745 C2751 1.429 . S
C2746 C2738 1.574 . S
C2746 H2741 0.949 . S
C2746 C2752 1.368 . S
C2747 C2731 1.349 . S
C2747 H2739 0.950 . S
C2747 C2745 1.327 . S
C2748 C2736 1.349 . S
C2748 H2742 0.950 . S
C2748 C2749 1.327 . S
C2749 H2743 0.950 . S
C2749 C2748 1.327 . S
C2749 C2753 1.429 . S
C2750 C2733 1.574 . S
C2750 H2744 0.949 . S
C2750 C2754 1.368 . S
C2751 C2732 1.429 . S
C2751 C2745 1.429 . S
C2751 C2752 1.523 . S
C2752 C2733 1.368 . S
C2752 C2746 1.368 . S
C2752 C2751 1.523 . S
C2753 C2737 1.429 . S
C2753 C2749 1.429 . S
C2753 C2754 1.523 . S
C2754 C2738 1.368 . S
C2754 C2750 1.368 . S
C2754 C2753 1.523 . S
H2755 C2730 0.950 . S
H2756 C2732 0.950 . S
H2757 C2733 0.949 . S
H2758 C2735 0.950 . S
H2759 C2737 0.950 . S
C2760 C2761 1.349 . S
C2760 C2762 1.327 . S
C2760 H2785 0.950 . S
C2761 C2760 1.349 . S
C2761 C2777 1.349 . S
C2762 C2760 1.327 . S
C2762 C2781 1.429 . S
C2762 H2786 0.950 . S
C2763 C2780 1.574 . S
C2763 C2782 1.368 . S
C2763 H2787 0.949 . S
H2764 C2768 0.949 . S
C2765 C2766 1.349 . S
C2765 C2767 1.327 . S
C2765 H2788 0.950 . S
C2766 C2765 1.349 . S
C2766 C2778 1.349 . S
C2767 C2765 1.327 . S
C2767 C2783 1.429 . S
C2767 H2789 0.950 . S
C2768 H2764 0.949 . S
C2768 C2776 1.574 . S
C2768 C2784 1.368 . S
H2769 C2777 0.950 . S
H2770 C2775 0.950 . S
H2771 C2776 0.949 . S
H2772 C2778 0.950 . S
H2773 C2779 0.950 . S
H2774 C2780 0.949 . S
C2775 H2770 0.950 . S
C2775 C2777 1.327 . S
C2775 C2781 1.429 . S
C2776 C2768 1.574 . S
C2776 H2771 0.949 . S
C2776 C2782 1.368 . S
C2777 C2761 1.349 . S
C2777 H2769 0.950 . S
C2777 C2775 1.327 . S
C2778 C2766 1.349 . S
C2778 H2772 0.950 . S
C2778 C2779 1.327 . S
C2779 H2773 0.950 . S
C2779 C2778 1.327 . S
C2779 C2783 1.429 . S
C2780 C2763 1.574 . S
C2780 H2774 0.949 . S
C2780 C2784 1.368 . S
C2781 C2762 1.429 . S
C2781 C2775 1.429 . S
C2781 C2782 1.523 . S
C2782 C2763 1.368 . S
C2782 C2776 1.368 . S
C2782 C2781 1.523 . S
C2783 C2767 1.429 . S
C2783 C2779 1.429 . S
C2783 C2784 1.523 . S
C2784 C2768 1.368 . S
C2784 C2780 1.368 . S
C2784 C2783 1.523 . S
H2785 C2760 0.950 . S
H2786 C2762 0.950 . S
H2787 C2763 0.949 . S
H2788 C2765 0.950 . S
H2789 C2767 0.950 . S
C2790 C2791 1.349 . S
C2790 C2792 1.327 . S
C2790 H2815 0.950 . S
C2791 C2790 1.349 . S
C2791 C2807 1.349 . S
C2792 C2790 1.327 . S
C2792 C2811 1.429 . S
C2792 H2816 0.950 . S
C2793 C2810 1.574 . S
C2793 C2812 1.368 . S
C2793 H2817 0.949 . S
H2794 C2798 0.949 . S
C2795 C2796 1.349 . S
C2795 C2797 1.327 . S
C2795 H2818 0.950 . S
C2796 C2795 1.349 . S
C2796 C2808 1.349 . S
C2797 C2795 1.327 . S
C2797 C2813 1.429 . S
C2797 H2819 0.950 . S
C2798 H2794 0.949 . S
C2798 C2806 1.574 . S
C2798 C2814 1.368 . S
H2799 C2807 0.950 . S
H2800 C2805 0.950 . S
H2801 C2806 0.949 . S
H2802 C2808 0.950 . S
H2803 C2809 0.950 . S
H2804 C2810 0.949 . S
C2805 H2800 0.950 . S
C2805 C2807 1.327 . S
C2805 C2811 1.429 . S
C2806 C2798 1.574 . S
C2806 H2801 0.949 . S
C2806 C2812 1.368 . S
C2807 C2791 1.349 . S
C2807 H2799 0.950 . S
C2807 C2805 1.327 . S
C2808 C2796 1.349 . S
C2808 H2802 0.950 . S
C2808 C2809 1.327 . S
C2809 H2803 0.950 . S
C2809 C2808 1.327 . S
C2809 C2813 1.429 . S
C2810 C2793 1.574 . S
C2810 H2804 0.949 . S
C2810 C2814 1.368 . S
C2811 C2792 1.429 . S
C2811 C2805 1.429 . S
C2811 C2812 1.523 . S
C2812 C2793 1.368 . S
C2812 C2806 1.368 . S
C2812 C2811 1.523 . S
C2813 C2797 1.429 . S
C2813 C2809 1.429 . S
C2813 C2814 1.523 . S
C2814 C2798 1.368 . S
C2814 C2810 1.368 . S
C2814 C2813 1.523 . S
H2815 C2790 0.950 . S
H2816 C2792 0.950 . S
H2817 C2793 0.949 . S
H2818 C2795 0.950 . S
H2819 C2797 0.950 . S
C2820 C2821 1.349 . S
C2820 C2822 1.327 . S
C2820 H2845 0.950 . S
C2821 C2820 1.349 . S
C2821 C2837 1.349 . S
C2822 C2820 1.327 . S
C2822 C2841 1.429 . S
C2822 H2846 0.950 . S
C2823 C2840 1.574 . S
C2823 C2842 1.368 . S
C2823 H2847 0.949 . S
H2824 C2828 0.949 . S
C2825 C2826 1.349 . S
C2825 C2827 1.327 . S
C2825 H2848 0.950 . S
C2826 C2825 1.349 . S
C2826 C2838 1.349 . S
C2827 C2825 1.327 . S
C2827 C2843 1.429 . S
C2827 H2849 0.950 . S
C2828 H2824 0.949 . S
C2828 C2836 1.574 . S
C2828 C2844 1.368 . S
H2829 C2837 0.950 . S
H2830 C2835 0.950 . S
H2831 C2836 0.949 . S
H2832 C2838 0.950 . S
H2833 C2839 0.950 . S
H2834 C2840 0.949 . S
C2835 H2830 0.950 . S
C2835 C2837 1.327 . S
C2835 C2841 1.429 . S
C2836 C2828 1.574 . S
C2836 H2831 0.949 . S
C2836 C2842 1.368 . S
C2837 C2821 1.349 . S
C2837 H2829 0.950 . S
C2837 C2835 1.327 . S
C2838 C2826 1.349 . S
C2838 H2832 0.950 . S
C2838 C2839 1.327 . S
C2839 H2833 0.950 . S
C2839 C2838 1.327 . S
C2839 C2843 1.429 . S
C2840 C2823 1.574 . S
C2840 H2834 0.949 . S
C2840 C2844 1.368 . S
C2841 C2822 1.429 . S
C2841 C2835 1.429 . S
C2841 C2842 1.523 . S
C2842 C2823 1.368 . S
C2842 C2836 1.368 . S
C2842 C2841 1.523 . S
C2843 C2827 1.429 . S
C2843 C2839 1.429 . S
C2843 C2844 1.523 . S
C2844 C2828 1.368 . S
C2844 C2840 1.368 . S
C2844 C2843 1.523 . S
H2845 C2820 0.950 . S
H2846 C2822 0.950 . S
H2847 C2823 0.949 . S
H2848 C2825 0.950 . S
H2849 C2827 0.950 . S
C2850 C2851 1.349 . S
C2850 C2852 1.327 . S
C2850 H2875 0.950 . S
C2851 C2850 1.349 . S
C2851 C2867 1.349 . S
C2852 C2850 1.327 . S
C2852 C2871 1.429 . S
C2852 H2876 0.950 . S
C2853 C2870 1.574 . S
C2853 C2872 1.368 . S
C2853 H2877 0.949 . S
H2854 C2858 0.949 . S
C2855 C2856 1.349 . S
C2855 C2857 1.327 . S
C2855 H2878 0.950 . S
C2856 C2855 1.349 . S
C2856 C2868 1.349 . S
C2857 C2855 1.327 . S
C2857 C2873 1.429 . S
C2857 H2879 0.950 . S
C2858 H2854 0.949 . S
C2858 C2866 1.574 . S
C2858 C2874 1.368 . S
H2859 C2867 0.950 . S
H2860 C2865 0.950 . S
H2861 C2866 0.949 . S
H2862 C2868 0.950 . S
H2863 C2869 0.950 . S
H2864 C2870 0.949 . S
C2865 H2860 0.950 . S
C2865 C2867 1.327 . S
C2865 C2871 1.429 . S
C2866 C2858 1.574 . S
C2866 H2861 0.949 . S
C2866 C2872 1.368 . S
C2867 C2851 1.349 . S
C2867 H2859 0.950 . S
C2867 C2865 1.327 . S
C2868 C2856 1.349 . S
C2868 H2862 0.950 . S
C2868 C2869 1.327 . S
C2869 H2863 0.950 . S
C2869 C2868 1.327 . S
C2869 C2873 1.429 . S
C2870 C2853 1.574 . S
C2870 H2864 0.949 . S
C2870 C2874 1.368 . S
C2871 C2852 1.429 . S
C2871 C2865 1.429 . S
C2871 C2872 1.523 . S
C2872 C2853 1.368 . S
C2872 C2866 1.368 . S
C2872 C2871 1.523 . S
C2873 C2857 1.429 . S
C2873 C2869 1.429 . S
C2873 C2874 1.523 . S
C2874 C2858 1.368 . S
C2874 C2870 1.368 . S
C2874 C2873 1.523 . S
H2875 C2850 0.950 . S
H2876 C2852 0.950 . S
H2877 C2853 0.949 . S
H2878 C2855 0.950 . S
H2879 C2857 0.950 . S
C2880 C2881 1.349 . S
C2880 C2882 1.327 . S
C2880 H2905 0.950 . S
C2881 C2880 1.349 . S
C2881 C2897 1.349 . S
C2882 C2880 1.327 . S
C2882 C2901 1.429 . S
C2882 H2906 0.950 . S
C2883 C2900 1.574 . S
C2883 C2902 1.368 . S
C2883 H2907 0.949 . S
H2884 C2888 0.949 . S
C2885 C2886 1.349 . S
C2885 C2887 1.327 . S
C2885 H2908 0.950 . S
C2886 C2885 1.349 . S
C2886 C2898 1.349 . S
C2887 C2885 1.327 . S
C2887 C2903 1.429 . S
C2887 H2909 0.950 . S
C2888 H2884 0.949 . S
C2888 C2896 1.574 . S
C2888 C2904 1.368 . S
H2889 C2897 0.950 . S
H2890 C2895 0.950 . S
H2891 C2896 0.949 . S
H2892 C2898 0.950 . S
H2893 C2899 0.950 . S
H2894 C2900 0.949 . S
C2895 H2890 0.950 . S
C2895 C2897 1.327 . S
C2895 C2901 1.429 . S
C2896 C2888 1.574 . S
C2896 H2891 0.949 . S
C2896 C2902 1.368 . S
C2897 C2881 1.349 . S
C2897 H2889 0.950 . S
C2897 C2895 1.327 . S
C2898 C2886 1.349 . S
C2898 H2892 0.950 . S
C2898 C2899 1.327 . S
C2899 H2893 0.950 . S
C2899 C2898 1.327 . S
C2899 C2903 1.429 . S
C2900 C2883 1.574 . S
C2900 H2894 0.949 . S
C2900 C2904 1.368 . S
C2901 C2882 1.429 . S
C2901 C2895 1.429 . S
C2901 C2902 1.523 . S
C2902 C2883 1.368 . S
C2902 C2896 1.368 . S
C2902 C2901 1.523 . S
C2903 C2887 1.429 . S
C2903 C2899 1.429 . S
C2903 C2904 1.523 . S
C2904 C2888 1.368 . S
C2904 C2900 1.368 . S
C2904 C2903 1.523 . S
H2905 C2880 0.950 . S
H2906 C2882 0.950 . S
H2907 C2883 0.949 . S
H2908 C2885 0.950 . S
H2909 C2887 0.950 . S
C2910 C2911 1.349 . S
C2910 C2912 1.327 . S
C2910 H2935 0.950 . S
C2911 C2910 1.349 . S
C2911 C2927 1.349 . S
C2912 C2910 1.327 . S
C2912 C2931 1.429 . S
C2912 H2936 0.950 . S
C2913 C2930 1.574 . S
C2913 C2932 1.368 . S
C2913 H2937 0.949 . S
H2914 C2918 0.949 . S
C2915 C2916 1.349 . S
C2915 C2917 1.327 . S
C2915 H2938 0.950 . S
C2916 C2915 1.349 . S
C2916 C2928 1.349 . S
C2917 C2915 1.327 . S
C2917 C2933 1.429 . S
C2917 H2939 0.950 . S
C2918 H2914 0.949 . S
C2918 C2926 1.574 . S
C2918 C2934 1.368 . S
H2919 C2927 0.950 . S
H2920 C2925 0.950 . S
H2921 C2926 0.949 . S
H2922 C2928 0.950 . S
H2923 C2929 0.950 . S
H2924 C2930 0.949 . S
C2925 H2920 0.950 . S
C2925 C2927 1.327 . S
C2925 C2931 1.429 . S
C2926 C2918 1.574 . S
C2926 H2921 0.949 . S
C2926 C2932 1.368 . S
C2927 C2911 1.349 . S
C2927 H2919 0.950 . S
C2927 C2925 1.327 . S
C2928 C2916 1.349 . S
C2928 H2922 0.950 . S
C2928 C2929 1.327 . S
C2929 H2923 0.950 . S
C2929 C2928 1.327 . S
C2929 C2933 1.429 . S
C2930 C2913 1.574 . S
C2930 H2924 0.949 . S
C2930 C2934 1.368 . S
C2931 C2912 1.429 . S
C2931 C2925 1.429 . S
C2931 C2932 1.523 . S
C2932 C2913 1.368 . S
C2932 C2926 1.368 . S
C2932 C2931 1.523 . S
C2933 C2917 1.429 . S
C2933 C2929 1.429 . S
C2933 C2934 1.523 . S
C2934 C2918 1.368 . S
C2934 C2930 1.368 . S
C2934 C2933 1.523 . S
H2935 C2910 0.950 . S
H2936 C2912 0.950 . S
H2937 C2913 0.949 . S
H2938 C2915 0.950 . S
H2939 C2917 0.950 . S
C2940 C2941 1.349 . S
C2940 C2942 1.327 . S
C2940 H2965 0.950 . S
C2941 C2940 1.349 . S
C2941 C2957 1.349 . S
C2942 C2940 1.327 . S
C2942 C2961 1.429 . S
C2942 H2966 0.950 . S
C2943 C2960 1.574 . S
C2943 C2962 1.368 . S
C2943 H2967 0.949 . S
H2944 C2948 0.949 . S
C2945 C2946 1.349 . S
C2945 C2947 1.327 . S
C2945 H2968 0.950 . S
C2946 C2945 1.349 . S
C2946 C2958 1.349 . S
C2947 C2945 1.327 . S
C2947 C2963 1.429 . S
C2947 H2969 0.950 . S
C2948 H2944 0.949 . S
C2948 C2956 1.574 . S
C2948 C2964 1.368 . S
H2949 C2957 0.950 . S
H2950 C2955 0.950 . S
H2951 C2956 0.949 . S
H2952 C2958 0.950 . S
H2953 C2959 0.950 . S
H2954 C2960 0.949 . S
C2955 H2950 0.950 . S
C2955 C2957 1.327 . S
C2955 C2961 1.429 . S
C2956 C2948 1.574 . S
C2956 H2951 0.949 . S
C2956 C2962 1.368 . S
C2957 C2941 1.349 . S
C2957 H2949 0.950 . S
C2957 C2955 1.327 . S
C2958 C2946 1.349 . S
C2958 H2952 0.950 . S
C2958 C2959 1.327 . S
C2959 H2953 0.950 . S
C2959 C2958 1.327 . S
C2959 C2963 1.429 . S
C2960 C2943 1.574 . S
C2960 H2954 0.949 . S
C2960 C2964 1.368 . S
C2961 C2942 1.429 . S
C2961 C2955 1.429 . S
C2961 C2962 1.523 . S
C2962 C2943 1.368 . S
C2962 C2956 1.368 . S
C2962 C2961 1.523 . S
C2963 C2947 1.429 . S
C2963 C2959 1.429 . S
C2963 C2964 1.523 . S
C2964 C2948 1.368 . S
C2964 C2960 1.368 . S
C2964 C2963 1.523 . S
H2965 C2940 0.950 . S
H2966 C2942 0.950 . S
H2967 C2943 0.949 . S
H2968 C2945 0.950 . S
H2969 C2947 0.950 . S
C2970 C2971 1.349 . S
C2970 C2972 1.327 . S
C2970 H2995 0.950 . S
C2971 C2970 1.349 . S
C2971 C2987 1.349 . S
C2972 C2970 1.327 . S
C2972 C2991 1.429 . S
C2972 H2996 0.950 . S
C2973 C2990 1.574 . S
C2973 C2992 1.368 . S
C2973 H2997 0.949 . S
H2974 C2978 0.949 . S
C2975 C2976 1.349 . S
C2975 C2977 1.327 . S
C2975 H2998 0.950 . S
C2976 C2975 1.349 . S
C2976 C2988 1.349 . S
C2977 C2975 1.327 . S
C2977 C2993 1.429 . S
C2977 H2999 0.950 . S
C2978 H2974 0.949 . S
C2978 C2986 1.574 . S
C2978 C2994 1.368 . S
H2979 C2987 0.950 . S
H2980 C2985 0.950 . S
H2981 C2986 0.949 . S
H2982 C2988 0.950 . S
H2983 C2989 0.950 . S
H2984 C2990 0.949 . S
C2985 H2980 0.950 . S
C2985 C2987 1.327 . S
C2985 C2991 1.429 . S
C2986 C2978 1.574 . S
C2986 H2981 0.949 . S
C2986 C2992 1.368 . S
C2987 C2971 1.349 . S
C2987 H2979 0.950 . S
C2987 C2985 1.327 . S
C2988 C2976 1.349 . S
C2988 H2982 0.950 . S
C2988 C2989 1.327 . S
C2989 H2983 0.950 . S
C2989 C2988 1.327 . S
C2989 C2993 1.429 . S
C2990 C2973 1.574 . S
C2990 H2984 0.949 . S
C2990 C2994 1.368 . S
C2991 C2972 1.429 . S
C2991 C2985 1.429 . S
C2991 C2992 1.523 . S
C2992 C2973 1.368 . S
C2992 C2986 1.368 . S
C2992 C2991 1.523 . S
C2993 C2977 1.429 . S
C2993 C2989 1.429 . S
C2993 C2994 1.523 . S
C2994 C2978 1.368 . S
C2994 C2990 1.368 . S
C2994 C2993 1.523 . S
H2995 C2970 0.950 . S
H2996 C2972 0.950 . S
H2997 C2973 0.949 . S
H2998 C2975 0.950 . S
H2999 C2977 0.950 . S
C3000 C3001 1.349 . S
C3000 C3002 1.327 . S
C3000 H3025 0.950 . S
C3001 C3000 1.349 . S
C3001 C3017 1.349 . S
C3002 C3000 1.327 . S
C3002 C3021 1.429 . S
C3002 H3026 0.950 . S
C3003 C3020 1.574 . S
C3003 C3022 1.368 . S
C3003 H3027 0.949 . S
H3004 C3008 0.949 . S
C3005 C3006 1.349 . S
C3005 C3007 1.327 . S
C3005 H3028 0.950 . S
C3006 C3005 1.349 . S
C3006 C3018 1.349 . S
C3007 C3005 1.327 . S
C3007 C3023 1.429 . S
C3007 H3029 0.950 . S
C3008 H3004 0.949 . S
C3008 C3016 1.574 . S
C3008 C3024 1.368 . S
H3009 C3017 0.950 . S
H3010 C3015 0.950 . S
H3011 C3016 0.949 . S
H3012 C3018 0.950 . S
H3013 C3019 0.950 . S
H3014 C3020 0.949 . S
C3015 H3010 0.950 . S
C3015 C3017 1.327 . S
C3015 C3021 1.429 . S
C3016 C3008 1.574 . S
C3016 H3011 0.949 . S
C3016 C3022 1.368 . S
C3017 C3001 1.349 . S
C3017 H3009 0.950 . S
C3017 C3015 1.327 . S
C3018 C3006 1.349 . S
C3018 H3012 0.950 . S
C3018 C3019 1.327 . S
C3019 H3013 0.950 . S
C3019 C3018 1.327 . S
C3019 C3023 1.429 . S
C3020 C3003 1.574 . S
C3020 H3014 0.949 . S
C3020 C3024 1.368 . S
C3021 C3002 1.429 . S
C3021 C3015 1.429 . S
C3021 C3022 1.523 . S
C3022 C3003 1.368 . S
C3022 C3016 1.368 . S
C3022 C3021 1.523 . S
C3023 C3007 1.429 . S
C3023 C3019 1.429 . S
C3023 C3024 1.523 . S
C3024 C3008 1.368 . S
C3024 C3020 1.368 . S
C3024 C3023 1.523 . S
H3025 C3000 0.950 . S
H3026 C3002 0.950 . S
H3027 C3003 0.949 . S
H3028 C3005 0.950 . S
H3029 C3007 0.950 . S
C3030 C3031 1.349 . S
C3030 C3032 1.327 . S
C3030 H3055 0.950 . S
C3031 C3030 1.349 . S
C3031 C3047 1.349 . S
C3032 C3030 1.327 . S
C3032 C3051 1.429 . S
C3032 H3056 0.950 . S
C3033 C3050 1.574 . S
C3033 C3052 1.368 . S
C3033 H3057 0.949 . S
H3034 C3038 0.949 . S
C3035 C3036 1.349 . S
C3035 C3037 1.327 . S
C3035 H3058 0.950 . S
C3036 C3035 1.349 . S
C3036 C3048 1.349 . S
C3037 C3035 1.327 . S
C3037 C3053 1.429 . S
C3037 H3059 0.950 . S
C3038 H3034 0.949 . S
C3038 C3046 1.574 . S
C3038 C3054 1.368 . S
H3039 C3047 0.950 . S
H3040 C3045 0.950 . S
H3041 C3046 0.949 . S
H3042 C3048 0.950 . S
H3043 C3049 0.950 . S
H3044 C3050 0.949 . S
C3045 H3040 0.950 . S
C3045 C3047 1.327 . S
C3045 C3051 1.429 . S
C3046 C3038 1.574 . S
C3046 H3041 0.949 . S
C3046 C3052 1.368 . S
C3047 C3031 1.349 . S
C3047 H3039 0.950 . S
C3047 C3045 1.327 . S
C3048 C3036 1.349 . S
C3048 H3042 0.950 . S
C3048 C3049 1.327 . S
C3049 H3043 0.950 . S
C3049 C3048 1.327 . S
C3049 C3053 1.429 . S
C3050 C3033 1.574 . S
C3050 H3044 0.949 . S
C3050 C3054 1.368 . S
C3051 C3032 1.429 . S
C3051 C3045 1.429 . S
C3051 C3052 1.523 . S
C3052 C3033 1.368 . S
C3052 C3046 1.368 . S
C3052 C3051 1.523 . S
C3053 C3037 1.429 . S
C3053 C3049 1.429 . S
C3053 C3054 1.523 . S
C3054 C3038 1.368 . S
C3054 C3050 1.368 . S
C3054 C3053 1.523 . S
H3055 C3030 0.950 . S
H3056 C3032 0.950 . S
H3057 C3033 0.949 . S
H3058 C3035 0.950 . S
H3059 C3037 0.950 . S
C1441 C781 1.654 . S
C1446 C1092 1.665 . S
C1471 C871 1.786 . S
C1476 C1132 1.823 . S
C1501 C751 1.684 . S
C1506 C1162 1.724 . S
C1531 C691 1.504 . S
C1536 C1122 1.531 . S
C1566 C1172 1.439 . S
C1561 C571 1.384 . S
C1591 C601 1.334 . S
C1596 C1082 1.344 . S
C1626 C1111 1.665 . S
C1621 C661 1.599 . S
C1656 C1151 1.828 . S
C1651 C541 1.776 . S
C1681 C631 1.749 . S
C1686 C1177 1.724 . S
C1711 C811 1.553 . S
C1716 C1137 1.531 . S
C1741 C841 1.405 . S
C1746 C1191 1.440 . S
C1776 C1097 1.348 . S
C1771 C721 1.283 . S
C1806 C1212 1.665 . S
C1801 C61 1.655 . S
C1831 C151 1.786 . S
C1836 C1252 1.828 . S
C1861 C31 1.683 . S
C1866 C1282 1.723 . S
C1891 C1051 1.504 . S
C1896 C1242 1.531 . S
C1921 C931 1.385 . S
C1926 C1292 1.441 . S
C1951 C961 1.333 . S
C1956 C1202 1.348 . S
C1981 C1021 1.599 . S
C1986 C1231 1.664 . S
C2011 C901 1.771 . S
C2016 C1271 1.827 . S
C2046 C1297 1.724 . S
C2041 C991 1.749 . S
C2071 C91 1.553 . S
C2076 C1257 1.531 . S
C2106 C1311 1.440 . S
C2101 C121 1.406 . S
C2131 C1 1.278 . S
C2136 C1217 1.348 . S
C2166 C1332 1.665 . S
C2161 C421 1.654 . S
C2191 C511 1.786 . S
C2196 C1372 1.828 . S
C2226 C1402 1.724 . S
C2221 C391 1.684 . S
C2256 C1362 1.530 . S
C2251 C331 1.504 . S
C2286 C1412 1.440 . S
C2281 C211 1.384 . S
C2311 C241 1.334 . S
C2316 C1322 1.348 . S
C2341 C301 1.600 . S
C2346 C1351 1.665 . S
C2371 C181 1.771 . S
C2376 C1391 1.827 . S
C2406 C1417 1.723 . S
C2401 C271 1.749 . S
C2431 C451 1.553 . S
C2436 C1377 1.531 . S
C2461 C481 1.406 . S
C2466 C1431 1.441 . S
C2491 C361 1.278 . S
C2496 C1337 1.348 . S
C2521 C920 1.235 . S
C2526 C1109 1.252 . S
C2556 C1149 1.900 . S
C2551 C980 1.901 . S
C2581 C1040 1.522 . S
C2586 C1168 1.579 . S
C2611 C380 1.847 . S
C2616 C1128 1.900 . S
C2641 C440 1.555 . S
C2646 C1189 1.578 . S
C2676 C1088 1.251 . S
C2671 C500 1.230 . S
C2701 C200 1.236 . S
C2706 C1229 1.251 . S
C2731 C260 1.901 . S
C2736 C1269 1.901 . S
C2761 C320 1.522 . S
C2766 C1288 1.578 . S
C2791 C740 1.846 . S
C2796 C1248 1.900 . S
C2826 C1309 1.579 . S
C2821 C800 1.555 . S
C2851 C860 1.232 . S
C2856 C1208 1.251 . S
C2881 C560 1.236 . S
C2886 C1349 1.252 . S
C2911 C620 1.901 . S
C2916 C1389 1.901 . S
C2946 C1408 1.579 . S
C2941 C680 1.522 . S
C2971 C20 1.846 . S
C2976 C1368 1.900 . S
C3001 C80 1.555 . S
C3006 C1429 1.578 . S
C3031 C140 1.232 . S
C3036 C1328 1.251 . S
