# Generated by pormake.
# Topology rtl, (3,6)-cn, num edge types: 1
# Building blocks:
#     Node 0, Type 0, BuildingBlock: BETDAH_clean_linker_0, # of connection points: 3
#     Node 1, Type 0, BuildingBlock: BETDAH_clean_linker_0, # of connection points: 3
#     Node 2, Type 0, BuildingBlock: BETDAH_clean_linker_0, # of connection points: 3
#     Node 3, Type 0, BuildingBlock: BETDAH_clean_linker_0, # of connection points: 3
#     Node 4, Type 1, BuildingBlock: VOLQOD_clean_sbu_1, # of connection points: 6
#     Node 5, Type 1, BuildingBlock: VOLQOD_clean_sbu_1, # of connection points: 6
#     Edge 6, Type (0, 1), BuildingBlock: CIFDUS_clean_linker_0, # of connection points: 2
#     Edge 7, Type (0, 1), BuildingBlock: CIFDUS_clean_linker_0, # of connection points: 2
#     Edge 8, Type (0, 1), BuildingBlock: CIFDUS_clean_linker_0, # of connection points: 2
#     Edge 9, Type (0, 1), BuildingBlock: CIFDUS_clean_linker_0, # of connection points: 2
#     Edge 10, Type (0, 1), BuildingBlock: CIFDUS_clean_linker_0, # of connection points: 2
#     Edge 11, Type (0, 1), BuildingBlock: CIFDUS_clean_linker_0, # of connection points: 2
#     Edge 12, Type (0, 1), BuildingBlock: CIFDUS_clean_linker_0, # of connection points: 2
#     Edge 13, Type (0, 1), BuildingBlock: CIFDUS_clean_linker_0, # of connection points: 2
#     Edge 14, Type (0, 1), BuildingBlock: CIFDUS_clean_linker_0, # of connection points: 2
#     Edge 15, Type (0, 1), BuildingBlock: CIFDUS_clean_linker_0, # of connection points: 2
#     Edge 16, Type (0, 1), BuildingBlock: CIFDUS_clean_linker_0, # of connection points: 2
#     Edge 17, Type (0, 1), BuildingBlock: CIFDUS_clean_linker_0, # of connection points: 2
# Relax obj value: 0.042
# Max RMSD: 0.143
# Mean RMSD: 0.092
data_MOF--net-rtl--node1-VOLQOD_clean_sbu_1--node2-BETDAH_clean_linker_0--edge1-CIFDUS_clean_linker_0
_symmetry_space_group_name_H-M    P1
_symmetry_Int_Tables_number       1
_symmetry_cell_setting            triclinic
loop_
_symmetry_equiv_pos_as_xyz
'x, y, z'
_cell_length_a     33.19853
_cell_length_b     33.296992
_cell_length_c     19.26943
_cell_angle_alpha  91.376848
_cell_angle_beta   92.114778
_cell_angle_gamma 89.795729
loop_
_atom_site_label
_atom_site_type_symbol
_atom_site_fract_x
_atom_site_fract_y
_atom_site_fract_z
_atom_type_partial_charge
H0 H 0.14976 0.86845 0.96537 0.0
H1 H 0.18288 0.76253 0.07715 0.0
H2 H 0.15286 0.75323 0.85905 0.0
C3 C 0.15577 0.83647 0.96539 0.0
C4 C 0.14999 0.81348 0.9037 0.0
C5 C 0.16632 0.81838 0.0285 0.0
C6 C 0.17502 0.77707 0.02875 0.0
C7 C 0.17136 0.75401 0.96695 0.0
C8 C 0.15789 0.77198 0.90524 0.0
N9 N 0.17735 0.71197 0.96745 0.0
C10 C 0.21497 0.69522 0.98201 0.0
H11 H 0.61392 0.66393 0.5657 0.0
H12 H 0.69516 0.74781 0.47935 0.0
H13 H 0.69887 0.72859 0.69963 0.0
C14 C 0.63759 0.68612 0.57338 0.0
C15 C 0.65456 0.6936 0.64002 0.0
C16 C 0.65163 0.70586 0.5156 0.0
C17 C 0.68403 0.73282 0.52406 0.0
C18 C 0.70096 0.74101 0.59106 0.0
C19 C 0.68586 0.72168 0.64834 0.0
N20 N 0.73267 0.76889 0.60397 0.0
C21 C 0.75689 0.7847 0.55423 0.0
H22 H 0.90736 0.16322 0.96283 0.0
H23 H 0.81048 0.22923 0.0558 0.0
H24 H 0.82516 0.23072 0.83473 0.0
C25 C 0.8822 0.18397 0.95848 0.0
C26 C 0.86963 0.19667 0.89258 0.0
C27 C 0.86144 0.19554 0.01796 0.0
C28 C 0.82707 0.22036 0.01056 0.0
C29 C 0.81411 0.2331 0.94399 0.0
C30 C 0.83542 0.22101 0.88572 0.0
N31 N 0.7793 0.25711 0.9322 0.0
C32 C 0.75668 0.27607 0.98258 0.0
H33 H 0.39924 0.35554 0.58964 0.0
H34 H 0.28466 0.31244 0.65387 0.0
H35 H 0.30945 0.3154 0.43718 0.0
C36 C 0.37027 0.34173 0.57689 0.0
C37 C 0.35815 0.33532 0.50698 0.0
C38 C 0.344 0.33367 0.63024 0.0
C39 C 0.30581 0.31729 0.61339 0.0
C40 C 0.29393 0.30972 0.54366 0.0
C41 C 0.31995 0.31901 0.4909 0.0
N42 N 0.25379 0.2989 0.52519 0.0
C43 C 0.23795 0.26155 0.53879 0.0
O44 O 0.91546 0.97568 0.43572 0.0
Zn45 Zn 0.9539 0.02224 0.44095 0.0
O46 O 0.00986 0.00454 0.45564 0.0
Zn47 Zn 0.0319 0.02855 0.54236 0.0
Zn48 Zn 0.011 0.94595 0.46127 0.0
Zn49 Zn 0.0423 0.0215 0.3788 0.0
O50 O 0.08017 0.06322 0.52683 0.0
O51 O 0.08816 0.05721 0.41331 0.0
O52 O 0.93625 0.05814 0.5194 0.0
O53 O 0.9912 0.06387 0.58781 0.0
O54 O 0.04787 0.98599 0.61021 0.0
O55 O 0.03702 0.92838 0.55183 0.0
O56 O 0.04297 0.9215 0.38488 0.0
O57 O 0.94714 0.05472 0.35506 0.0
O58 O 0.06602 0.97336 0.32785 0.0
O59 O 0.00838 0.05511 0.31241 0.0
C60 C 0.91989 0.93804 0.44345 0.0
C61 C 0.09909 0.07167 0.47283 0.0
C62 C 0.04908 0.94779 0.60635 0.0
C63 C 0.95455 0.07257 0.57347 0.0
C64 C 0.06352 0.9356 0.33665 0.0
C65 C 0.97147 0.06599 0.30995 0.0
O66 O 0.9547 0.92267 0.45434 0.0
O67 O 0.60311 0.48147 0.06297 0.0
Zn68 Zn 0.56463 0.52817 0.06263 0.0
O69 O 0.50908 0.51075 0.07331 0.0
Zn70 Zn 0.47636 0.52415 0.99085 0.0
Zn71 Zn 0.50875 0.45224 0.08518 0.0
Zn72 Zn 0.48686 0.53907 0.15368 0.0
O73 O 0.42968 0.55948 0.01451 0.0
O74 O 0.43657 0.57128 0.12798 0.0
O75 O 0.57002 0.55729 0.97351 0.0
O76 O 0.50881 0.55447 0.9233 0.0
O77 O 0.45362 0.47449 0.94292 0.0
O78 O 0.47733 0.42405 0.0062 0.0
O79 O 0.48357 0.43884 0.17567 0.0
O80 O 0.58295 0.56621 0.13973 0.0
O81 O 0.4713 0.49881 0.22395 0.0
O82 O 0.52794 0.57672 0.19973 0.0
C83 C 0.59945 0.44412 0.0739 0.0
C84 C 0.41758 0.57613 0.07009 0.0
C85 C 0.45672 0.43709 0.95437 0.0
C86 C 0.54546 0.56563 0.92359 0.0
C87 C 0.47089 0.46057 0.22575 0.0
C88 C 0.56494 0.58364 0.18926 0.0
O89 O 0.56518 0.42891 0.08499 0.0
H90 H 0.22861 0.20683 0.43664 0.0
H91 H 0.20019 0.23316 0.64914 0.0
H92 H 0.15702 0.17343 0.64981 0.0
H93 H 0.12281 0.11767 0.58602 0.0
H94 H 0.14965 0.09325 0.3714 0.0
H95 H 0.19834 0.14797 0.37557 0.0
C96 C 0.21345 0.19888 0.48332 0.0
C97 C 0.21735 0.22376 0.54284 0.0
C98 C 0.18824 0.16512 0.48265 0.0
C99 C 0.19755 0.21394 0.60302 0.0
C100 C 0.17281 0.18001 0.6032 0.0
C101 C 0.13969 0.1239 0.54039 0.0
C102 C 0.13221 0.10152 0.47828 0.0
C103 C 0.16722 0.15591 0.54275 0.0
C104 C 0.15448 0.11011 0.41975 0.0
C105 C 0.18234 0.14146 0.422 0.0
H106 H 0.25706 0.67804 0.10036 0.0
H107 H 0.25824 0.66764 0.87717 0.0
H108 H 0.32189 0.63042 0.88459 0.0
H109 H 0.37582 0.59938 0.95419 0.0
H110 H 0.37576 0.6092 0.17801 0.0
H111 H 0.3132 0.64825 0.1709 0.0
C112 C 0.27161 0.66774 0.05365 0.0
C113 C 0.25348 0.6753 0.98831 0.0
C114 C 0.30818 0.64624 0.05846 0.0
C115 C 0.27205 0.66199 0.92787 0.0
C116 C 0.3083 0.64072 0.93213 0.0
C117 C 0.36227 0.61004 0.0016 0.0
C118 C 0.38045 0.60111 0.06657 0.0
C119 C 0.32643 0.6324 -0.00288 0.0
C120 C 0.36245 0.61556 0.12728 0.0
C121 C 0.32663 0.63786 0.12327 0.0
H122 H 0.75334 0.85884 0.50376 0.0
H123 H 0.82905 0.75418 0.52306 0.0
H124 H 0.88652 0.79179 0.48209 0.0
H125 H 0.91676 0.85663 0.45563 0.0
H126 H 0.84097 0.96195 0.43932 0.0
H127 H 0.782 0.92191 0.46317 0.0
C128 C 0.78221 0.84417 0.49696 0.0
C129 C 0.78733 0.80403 0.51568 0.0
C130 C 0.81518 0.86625 0.47489 0.0
C131 C 0.8247 0.7851 0.50803 0.0
C132 C 0.85753 0.80666 0.48522 0.0
C133 C 0.88728 0.87075 0.45624 0.0
C134 C 0.88355 0.91242 0.4468 0.0
C135 C 0.85343 0.84763 0.47077 0.0
C136 C 0.84494 0.93004 0.447 0.0
C137 C 0.8111 0.90718 0.46082 0.0
H138 H 0.76139 0.35507 0.00537 0.0
H139 H 0.68807 0.25142 0.03855 0.0
H140 H 0.63301 0.29494 0.07717 0.0
H141 H 0.60337 0.36263 0.08735 0.0
H142 H 0.67669 0.46622 0.04941 0.0
H143 H 0.73414 0.42271 0.02741 0.0
C144 C 0.73371 0.34217 0.02306 0.0
C145 C 0.72852 0.30044 0.02008 0.0
C146 C 0.70202 0.36739 0.04316 0.0
C147 C 0.69256 0.28365 0.04156 0.0
C148 C 0.66106 0.30851 0.06292 0.0
C149 C 0.63203 0.37576 0.07516 0.0
C150 C 0.63539 0.41769 0.06907 0.0
C151 C 0.66501 0.35049 0.06173 0.0
C152 C 0.67296 0.43409 0.05376 0.0
C153 C 0.70595 0.40922 0.04113 0.0
H154 H 0.12359 0.7968 0.13805 0.0
H155 H 0.19503 0.89342 0.06321 0.0
H156 H 0.17077 0.93834 0.15504 0.0
H157 H 0.12303 0.95199 0.24757 0.0
H158 H 0.0511 0.85497 0.32081 0.0
H159 H 0.08188 0.80843 0.23883 0.0
C160 C 0.1349 0.8273 0.14329 0.0
C161 C 0.16092 0.84185 0.09387 0.0
C162 C 0.12002 0.85315 0.19496 0.0
C163 C 0.17484 0.88164 0.10061 0.0
C164 C 0.16073 0.90738 0.15271 0.0
C165 C 0.11424 0.92062 0.24582 0.0
C166 C 0.08431 0.90721 0.28954 0.0
C167 C 0.13214 0.89385 0.19853 0.0
C168 C 0.07381 0.86628 0.28743 0.0
C169 C 0.09144 0.83954 0.24058 0.0
H170 H 0.57733 0.67321 0.66653 0.0
H171 H 0.69971 0.66304 0.74834 0.0
H172 H 0.67662 0.62323 0.84371 0.0
H173 H 0.62214 0.5895 0.90163 0.0
H174 H 0.50023 0.59689 0.81629 0.0
H175 H 0.52304 0.63866 0.72329 0.0
C176 C 0.59907 0.662 0.70479 0.0
C177 C 0.64023 0.67112 0.70004 0.0
C178 C 0.58577 0.63826 0.75846 0.0
C179 C 0.66778 0.65704 0.75113 0.0
C180 C 0.65467 0.63392 0.80537 0.0
C181 C 0.6005 0.60018 0.8627 0.0
C182 C 0.55953 0.58998 0.86602 0.0
C183 C 0.61379 0.62409 0.8092 0.0
C184 C 0.53198 0.60409 0.81496 0.0
C185 C 0.54496 0.62812 0.76183 0.0
H186 H 0.93833 0.18702 0.06792 0.0
H187 H 0.81512 0.16479 0.11925 0.0
H188 H 0.83855 0.12414 0.21704 0.0
H189 H 0.8939 0.08903 0.27952 0.0
H190 H 0.01659 0.10695 0.2197 0.0
H191 H 0.9933 0.15394 0.13182 0.0
C192 C 0.91652 0.17339 0.10062 0.0
C193 C 0.875 0.17847 0.08558 0.0
C194 C 0.9301 0.1484 0.15406 0.0
C195 C 0.84722 0.16158 0.12972 0.0
C196 C 0.86062 0.13783 0.18503 0.0
C197 C 0.91558 0.10322 0.24734 0.0
C198 C 0.95696 0.09405 0.25586 0.0
C199 C 0.90195 0.12998 0.19621 0.0
C200 C 0.98458 0.11296 0.21383 0.0
C201 C 0.97132 0.14008 0.16382 0.0
H202 H 0.40942 0.31465 0.71193 0.0
H203 H 0.30277 0.3888 0.70491 0.0
H204 H 0.32718 0.42632 0.80866 0.0
H205 H 0.38272 0.44314 0.89234 0.0
H206 H 0.48801 0.36718 0.90371 0.0
H207 H 0.46035 0.32497 0.80761 0.0
C208 C 0.39119 0.33835 0.73443 0.0
C209 C 0.35448 0.34912 0.70115 0.0
C210 C 0.40545 0.35976 0.79405 0.0
C211 C 0.33095 0.37985 0.73027 0.0
C212 C 0.34509 0.40153 0.78908 0.0
C213 C 0.39924 0.41697 0.87429 0.0
C214 C 0.43749 0.40846 0.90402 0.0
C215 C 0.38287 0.39259 0.81998 0.0
C216 C 0.4585 0.37422 0.88128 0.0
C217 C 0.44277 0.35023 0.82625 0.0
H218 H 0.68537 0.67102 0.40307 0.0
H219 H 0.57342 0.71769 0.47793 0.0
H220 H 0.53644 0.68651 0.37884 0.0
H221 H 0.53511 0.63857 0.28048 0.0
H222 H 0.64681 0.59018 0.20632 0.0
H223 H 0.68471 0.62949 0.29499 0.0
C224 C 0.65308 0.67534 0.39613 0.0
C225 C 0.63199 0.69649 0.44722 0.0
C226 C 0.6319 0.65631 0.34006 0.0
C227 C 0.5901 0.70155 0.43875 0.0
C228 C 0.56896 0.68345 0.38256 0.0
C229 C 0.56777 0.6369 0.28326 0.0
C230 C 0.588 0.61093 0.23766 0.0
C231 C 0.58937 0.65946 0.33448 0.0
C232 C 0.6304 0.6097 0.24116 0.0
C233 C 0.65215 0.63215 0.29193 0.0
H234 H 0.83715 0.16377 0.77314 0.0
H235 H 0.95059 0.19589 0.87568 0.0
H236 H 0.98707 0.16216 0.7831 0.0
H237 H 0.98652 0.11885 0.67901 0.0
H238 H 0.87322 0.08584 0.57636 0.0
H239 H 0.83684 0.12514 0.66263 0.0
C240 C 0.86985 0.16412 0.77427 0.0
C241 C 0.89123 0.18193 0.8312 0.0
C242 C 0.89059 0.14421 0.72139 0.0
C243 C 0.93357 0.1819 0.8326 0.0
C244 C 0.9544 0.16263 0.77982 0.0
C245 C 0.95387 0.12039 0.6752 0.0
C246 C 0.93261 0.09899 0.62192 0.0
C247 C 0.93319 0.1428 0.72501 0.0
C248 C 0.89033 0.10185 0.61713 0.0
C249 C 0.86949 0.12426 0.66648 0.0
H250 H 0.39238 0.40857 0.50208 0.0
H251 H 0.37787 0.29711 0.38545 0.0
H252 H 0.41379 0.3253 0.28904 0.0
H253 H 0.44616 0.38297 0.23608 0.0
H254 H 0.45776 0.49506 0.35253 0.0
H255 H 0.42653 0.46506 0.45125 0.0
C256 C 0.39777 0.39019 0.45609 0.0
C257 C 0.38284 0.35075 0.45096 0.0
C258 C 0.41769 0.40678 0.40075 0.0
C259 C 0.38912 0.32758 0.3904 0.0
C260 C 0.40961 0.34368 0.33541 0.0
C261 C 0.4422 0.40071 0.28329 0.0
C262 C 0.45417 0.44125 0.28674 0.0
C263 C 0.42356 0.38346 0.33966 0.0
C264 C 0.44858 0.46388 0.34821 0.0
C265 C 0.43076 0.44676 0.40479 0.0
H266 H 0.09488 0.87425 0.89527 0.0
H267 H 0.1665 0.79573 0.76701 0.0
H268 H 0.13924 0.82839 0.66314 0.0
H269 H 0.09711 0.88155 0.60907 0.0
H270 H 0.03342 0.96493 0.74042 0.0
H271 H 0.05674 0.92884 0.84328 0.0
C272 C 0.10553 0.86468 0.845 0.0
C273 C 0.13328 0.83274 0.83963 0.0
C274 C 0.09127 0.8847 0.78596 0.0
C275 C 0.14497 0.81993 0.77315 0.0
C276 C 0.12964 0.83884 0.71362 0.0
C277 C 0.08837 0.8916 0.66034 0.0
C278 C 0.06356 0.92564 0.66755 0.0
C279 C 0.10303 0.87149 0.71947 0.0
C280 C 0.05268 0.93886 0.73396 0.0
C281 C 0.06589 0.91821 0.79262 0.0
loop_
_geom_bond_atom_site_label_1
_geom_bond_atom_site_label_2
_geom_bond_distance
_geom_bond_site_symmetry_2
_ccdc_geom_bond_type
H0 C3 0.929 . S
H1 C6 0.929 . S
H2 C8 0.930 . S
C3 H0 0.929 . S
C3 C4 1.398 1_554 S
C3 C5 1.396 . S
C4 C3 1.398 1_556 S
C4 C8 1.407 . S
C5 C3 1.396 . S
C5 C6 1.394 . S
C6 H1 0.929 . S
C6 C5 1.394 . S
C6 C7 1.382 . S
C7 C6 1.382 . S
C7 C8 1.392 1_554 S
C7 N9 1.420 1_554 S
C8 H2 0.930 . S
C8 C4 1.407 . S
C8 C7 1.392 1_556 S
N9 C7 1.420 1_556 S
N9 C10 1.244 1_556 S
C10 N9 1.244 1_554 S
H11 C14 0.929 . S
H12 C17 0.929 . S
H13 C19 0.930 . S
C14 H11 0.929 . S
C14 C15 1.398 . S
C14 C16 1.396 . S
C15 C14 1.398 . S
C15 C19 1.407 . S
C16 C14 1.396 . S
C16 C17 1.394 . S
C17 H12 0.929 . S
C17 C16 1.394 . S
C17 C18 1.382 . S
C18 C17 1.382 . S
C18 C19 1.392 . S
C18 N20 1.420 . S
C19 H13 0.930 . S
C19 C15 1.407 . S
C19 C18 1.392 . S
N20 C18 1.420 . S
N20 C21 1.244 . S
C21 N20 1.244 . S
H22 C25 0.929 . S
H23 C28 0.929 . S
H24 C30 0.930 . S
C25 H22 0.929 . S
C25 C26 1.398 1_554 S
C25 C27 1.396 . S
C26 C25 1.398 1_556 S
C26 C30 1.407 . S
C27 C25 1.396 . S
C27 C28 1.394 . S
C28 H23 0.929 . S
C28 C27 1.394 . S
C28 C29 1.382 . S
C29 C28 1.382 . S
C29 C30 1.392 1_554 S
C29 N31 1.420 1_554 S
C30 H24 0.930 . S
C30 C26 1.407 . S
C30 C29 1.392 1_556 S
N31 C29 1.420 1_556 S
N31 C32 1.244 1_556 S
C32 N31 1.244 1_554 S
H33 C36 0.929 . S
H34 C39 0.929 . S
H35 C41 0.930 . S
C36 H33 0.929 . S
C36 C37 1.398 . S
C36 C38 1.396 . S
C37 C36 1.398 . S
C37 C41 1.407 . S
C38 C36 1.396 . S
C38 C39 1.394 . S
C39 H34 0.929 . S
C39 C38 1.394 . S
C39 C40 1.382 . S
C40 C39 1.382 . S
C40 C41 1.392 . S
C40 N42 1.420 . S
C41 H35 0.930 . S
C41 C37 1.407 . S
C41 C40 1.392 . S
N42 C40 1.420 . S
N42 C43 1.244 . S
C43 N42 1.244 . S
O44 Zn45 1.953 1_565 S
O44 C60 1.225 . S
Zn45 O44 1.953 1_545 S
Zn45 O46 1.949 1_655 S
Zn45 O52 1.919 . S
Zn45 O57 1.924 . S
O46 Zn45 1.949 1_455 S
O46 Zn47 1.923 . S
O46 Zn48 1.950 1_545 S
O46 Zn49 1.945 . S
Zn47 O46 1.923 . S
Zn47 O50 1.933 . S
Zn47 O53 1.941 . S
Zn47 O54 1.965 1_545 S
Zn48 O46 1.950 1_565 S
Zn48 O55 1.938 . S
Zn48 O56 1.906 . S
Zn48 O66 1.953 1_455 S
Zn49 O46 1.945 . S
Zn49 O51 1.932 . S
Zn49 O58 1.960 1_545 S
Zn49 O59 1.910 1_455 S
O50 Zn47 1.933 . S
O50 C61 1.226 . S
O51 Zn49 1.932 . S
O51 C61 1.307 . S
O52 Zn45 1.919 . S
O52 C63 1.253 . S
O53 Zn47 1.941 . S
O53 C63 1.283 1_455 S
O54 Zn47 1.965 1_565 S
O54 C62 1.303 . S
O55 Zn48 1.938 . S
O55 C62 1.247 . S
O56 Zn48 1.906 . S
O56 C64 1.304 . S
O57 Zn45 1.924 . S
O57 C65 1.311 . S
O58 Zn49 1.960 1_565 S
O58 C64 1.295 . S
O59 Zn49 1.910 1_655 S
O59 C65 1.231 . S
C60 O44 1.225 . S
C60 O66 1.298 . S
C61 O50 1.226 . S
C61 O51 1.307 . S
C62 O54 1.303 . S
C62 O55 1.247 . S
C63 O52 1.253 . S
C63 O53 1.283 1_655 S
C64 O56 1.304 . S
C64 O58 1.295 . S
C65 O57 1.311 . S
C65 O59 1.231 . S
O66 Zn48 1.953 1_655 S
O66 C60 1.298 . S
O67 Zn68 1.953 . S
O67 C83 1.225 . S
Zn68 O67 1.953 . S
Zn68 O69 1.949 . S
Zn68 O75 1.919 1_554 S
Zn68 O80 1.924 . S
O69 Zn68 1.949 . S
O69 Zn70 1.923 1_554 S
O69 Zn71 1.950 . S
O69 Zn72 1.945 . S
Zn70 O69 1.923 1_556 S
Zn70 O73 1.933 . S
Zn70 O76 1.941 . S
Zn70 O77 1.965 . S
Zn71 O69 1.950 . S
Zn71 O78 1.938 1_554 S
Zn71 O79 1.906 . S
Zn71 O89 1.953 . S
Zn72 O69 1.945 . S
Zn72 O74 1.932 . S
Zn72 O81 1.977 . S
Zn72 O82 1.910 . S
O73 Zn70 1.933 . S
O73 C84 1.226 1_556 S
O74 Zn72 1.932 . S
O74 C84 1.307 . S
O75 Zn68 1.919 1_556 S
O75 C86 1.253 . S
O76 Zn70 1.941 . S
O76 C86 1.283 . S
O77 Zn70 1.965 . S
O77 C85 1.303 . S
O78 Zn71 1.938 1_556 S
O78 C85 1.247 . S
O79 Zn71 1.906 . S
O79 C87 1.304 . S
O80 Zn68 1.924 . S
O80 C88 1.311 . S
O81 Zn72 1.977 . S
O81 C87 1.272 . S
O82 Zn72 1.910 . S
O82 C88 1.231 . S
C83 O67 1.225 . S
C83 O89 1.298 . S
C84 O73 1.226 1_554 S
C84 O74 1.307 . S
C85 O77 1.303 . S
C85 O78 1.247 . S
C86 O75 1.253 . S
C86 O76 1.283 . S
C87 O79 1.304 . S
C87 O81 1.272 . S
C88 O80 1.311 . S
C88 O82 1.231 . S
O89 Zn71 1.953 . S
O89 C83 1.298 . S
H90 C96 0.930 . S
H91 C99 0.930 . S
H92 C100 0.930 . S
H93 C101 0.930 . S
H94 C104 0.930 . S
H95 C105 0.930 . S
C96 H90 0.930 . S
C96 C97 1.355 . S
C96 C98 1.415 . S
C97 C96 1.355 . S
C97 C99 1.419 . S
C98 C96 1.415 . S
C98 C103 1.425 . S
C98 C105 1.409 . S
C99 H91 0.930 . S
C99 C97 1.419 . S
C99 C100 1.362 . S
C100 H92 0.930 . S
C100 C99 1.362 . S
C100 C103 1.409 . S
C101 H93 0.930 . S
C101 C102 1.355 . S
C101 C103 1.415 . S
C102 C101 1.355 . S
C102 C104 1.419 . S
C103 C98 1.425 . S
C103 C100 1.409 . S
C103 C101 1.415 . S
C104 H94 0.930 . S
C104 C102 1.419 . S
C104 C105 1.362 . S
C105 H95 0.930 . S
C105 C98 1.409 . S
C105 C104 1.362 . S
H106 C112 0.930 . S
H107 C115 0.930 . S
H108 C116 0.930 . S
H109 C117 0.930 1_556 S
H110 C120 0.930 . S
H111 C121 0.930 . S
C112 H106 0.930 . S
C112 C113 1.355 . S
C112 C114 1.415 . S
C113 C112 1.355 . S
C113 C115 1.419 1_554 S
C114 C112 1.415 . S
C114 C119 1.425 . S
C114 C121 1.409 . S
C115 H107 0.930 . S
C115 C113 1.419 1_556 S
C115 C116 1.362 . S
C116 H108 0.930 . S
C116 C115 1.362 . S
C116 C119 1.409 1_556 S
C117 H109 0.930 1_554 S
C117 C118 1.355 . S
C117 C119 1.415 . S
C118 C117 1.355 . S
C118 C120 1.419 . S
C119 C114 1.425 . S
C119 C116 1.409 1_554 S
C119 C117 1.415 . S
C120 H110 0.930 . S
C120 C118 1.419 . S
C120 C121 1.362 . S
C121 H111 0.930 . S
C121 C114 1.409 . S
C121 C120 1.362 . S
H122 C128 0.930 . S
H123 C131 0.930 . S
H124 C132 0.930 . S
H125 C133 0.930 . S
H126 C136 0.930 . S
H127 C137 0.930 . S
C128 H122 0.930 . S
C128 C129 1.355 . S
C128 C130 1.415 . S
C129 C128 1.355 . S
C129 C131 1.419 . S
C130 C128 1.415 . S
C130 C135 1.425 . S
C130 C137 1.409 . S
C131 H123 0.930 . S
C131 C129 1.419 . S
C131 C132 1.362 . S
C132 H124 0.930 . S
C132 C131 1.362 . S
C132 C135 1.409 . S
C133 H125 0.930 . S
C133 C134 1.355 . S
C133 C135 1.415 . S
C134 C133 1.355 . S
C134 C136 1.419 . S
C135 C130 1.425 . S
C135 C132 1.409 . S
C135 C133 1.415 . S
C136 H126 0.930 . S
C136 C134 1.419 . S
C136 C137 1.362 . S
C137 H127 0.930 . S
C137 C130 1.409 . S
C137 C136 1.362 . S
H138 C144 0.930 . S
H139 C147 0.930 . S
H140 C148 0.930 1_556 S
H141 C149 0.931 . S
H142 C152 0.930 . S
H143 C153 0.930 . S
C144 H138 0.930 . S
C144 C145 1.355 . S
C144 C146 1.415 . S
C145 C144 1.355 . S
C145 C147 1.419 . S
C146 C144 1.415 . S
C146 C151 1.425 . S
C146 C153 1.409 . S
C147 H139 0.930 . S
C147 C145 1.419 . S
C147 C148 1.362 . S
C148 H140 0.930 1_554 S
C148 C147 1.362 . S
C148 C151 1.409 . S
C149 H141 0.931 . S
C149 C150 1.355 . S
C149 C151 1.415 . S
C150 C149 1.355 . S
C150 C152 1.419 . S
C151 C146 1.425 . S
C151 C148 1.409 . S
C151 C149 1.415 . S
C152 H142 0.930 . S
C152 C150 1.419 . S
C152 C153 1.362 . S
C153 H143 0.930 . S
C153 C146 1.409 . S
C153 C152 1.362 . S
H154 C160 0.930 . S
H155 C163 0.930 . S
H156 C164 0.930 . S
H157 C165 0.930 . S
H158 C168 0.930 . S
H159 C169 0.930 . S
C160 H154 0.930 . S
C160 C161 1.355 . S
C160 C162 1.415 . S
C161 C160 1.355 . S
C161 C163 1.419 . S
C162 C160 1.415 . S
C162 C167 1.425 . S
C162 C169 1.409 . S
C163 H155 0.930 . S
C163 C161 1.419 . S
C163 C164 1.362 . S
C164 H156 0.930 . S
C164 C163 1.362 . S
C164 C167 1.409 . S
C165 H157 0.930 . S
C165 C166 1.355 . S
C165 C167 1.415 . S
C166 C165 1.355 . S
C166 C168 1.419 . S
C167 C162 1.425 . S
C167 C164 1.409 . S
C167 C165 1.415 . S
C168 H158 0.930 . S
C168 C166 1.419 . S
C168 C169 1.362 . S
C169 H159 0.930 . S
C169 C162 1.409 . S
C169 C168 1.362 . S
H170 C176 0.930 . S
H171 C179 0.930 . S
H172 C180 0.930 . S
H173 C181 0.930 . S
H174 C184 0.930 . S
H175 C185 0.930 . S
C176 H170 0.930 . S
C176 C177 1.355 . S
C176 C178 1.415 . S
C177 C176 1.355 . S
C177 C179 1.419 . S
C178 C176 1.415 . S
C178 C183 1.425 . S
C178 C185 1.409 . S
C179 H171 0.930 . S
C179 C177 1.419 . S
C179 C180 1.362 . S
C180 H172 0.930 . S
C180 C179 1.362 . S
C180 C183 1.409 . S
C181 H173 0.930 . S
C181 C182 1.355 . S
C181 C183 1.415 . S
C182 C181 1.355 . S
C182 C184 1.419 . S
C183 C178 1.425 . S
C183 C180 1.409 . S
C183 C181 1.415 . S
C184 H174 0.930 . S
C184 C182 1.419 . S
C184 C185 1.362 . S
C185 H175 0.930 . S
C185 C178 1.409 . S
C185 C184 1.362 . S
H186 C192 0.930 . S
H187 C195 0.930 . S
H188 C196 0.930 . S
H189 C197 0.930 . S
H190 C200 0.930 . S
H191 C201 0.930 . S
C192 H186 0.930 . S
C192 C193 1.355 . S
C192 C194 1.415 . S
C193 C192 1.355 . S
C193 C195 1.419 . S
C194 C192 1.415 . S
C194 C199 1.425 . S
C194 C201 1.409 . S
C195 H187 0.930 . S
C195 C193 1.419 . S
C195 C196 1.362 . S
C196 H188 0.930 . S
C196 C195 1.362 . S
C196 C199 1.409 . S
C197 H189 0.930 . S
C197 C198 1.355 . S
C197 C199 1.415 . S
C198 C197 1.355 . S
C198 C200 1.419 . S
C199 C194 1.425 . S
C199 C196 1.409 . S
C199 C197 1.415 . S
C200 H190 0.930 . S
C200 C198 1.419 . S
C200 C201 1.362 . S
C201 H191 0.930 . S
C201 C194 1.409 . S
C201 C200 1.362 . S
H202 C208 0.930 . S
H203 C211 0.930 . S
H204 C212 0.930 . S
H205 C213 0.930 . S
H206 C216 0.930 . S
H207 C217 0.930 . S
C208 H202 0.930 . S
C208 C209 1.355 . S
C208 C210 1.415 . S
C209 C208 1.355 . S
C209 C211 1.419 . S
C210 C208 1.415 . S
C210 C215 1.425 . S
C210 C217 1.409 . S
C211 H203 0.930 . S
C211 C209 1.419 . S
C211 C212 1.362 . S
C212 H204 0.930 . S
C212 C211 1.362 . S
C212 C215 1.409 . S
C213 H205 0.930 . S
C213 C214 1.355 . S
C213 C215 1.415 . S
C214 C213 1.355 . S
C214 C216 1.419 . S
C215 C210 1.425 . S
C215 C212 1.409 . S
C215 C213 1.415 . S
C216 H206 0.930 . S
C216 C214 1.419 . S
C216 C217 1.362 . S
C217 H207 0.930 . S
C217 C210 1.409 . S
C217 C216 1.362 . S
H218 C224 0.930 . S
H219 C227 0.930 . S
H220 C228 0.930 . S
H221 C229 0.930 . S
H222 C232 0.930 . S
H223 C233 0.930 . S
C224 H218 0.930 . S
C224 C225 1.355 . S
C224 C226 1.415 . S
C225 C224 1.355 . S
C225 C227 1.419 . S
C226 C224 1.415 . S
C226 C231 1.425 . S
C226 C233 1.409 . S
C227 H219 0.930 . S
C227 C225 1.419 . S
C227 C228 1.362 . S
C228 H220 0.930 . S
C228 C227 1.362 . S
C228 C231 1.409 . S
C229 H221 0.930 . S
C229 C230 1.355 . S
C229 C231 1.415 . S
C230 C229 1.355 . S
C230 C232 1.419 . S
C231 C226 1.425 . S
C231 C228 1.409 . S
C231 C229 1.415 . S
C232 H222 0.930 . S
C232 C230 1.419 . S
C232 C233 1.362 . S
C233 H223 0.930 . S
C233 C226 1.409 . S
C233 C232 1.362 . S
H234 C240 0.930 . S
H235 C243 0.930 . S
H236 C244 0.930 . S
H237 C245 0.930 . S
H238 C248 0.930 . S
H239 C249 0.930 . S
C240 H234 0.930 . S
C240 C241 1.355 . S
C240 C242 1.415 . S
C241 C240 1.355 . S
C241 C243 1.419 . S
C242 C240 1.415 . S
C242 C247 1.425 . S
C242 C249 1.409 . S
C243 H235 0.930 . S
C243 C241 1.419 . S
C243 C244 1.362 . S
C244 H236 0.930 . S
C244 C243 1.362 . S
C244 C247 1.409 . S
C245 H237 0.930 . S
C245 C246 1.355 . S
C245 C247 1.415 . S
C246 C245 1.355 . S
C246 C248 1.419 . S
C247 C242 1.425 . S
C247 C244 1.409 . S
C247 C245 1.415 . S
C248 H238 0.930 . S
C248 C246 1.419 . S
C248 C249 1.362 . S
C249 H239 0.930 . S
C249 C242 1.409 . S
C249 C248 1.362 . S
H250 C256 0.930 . S
H251 C259 0.930 . S
H252 C260 0.930 . S
H253 C261 0.930 . S
H254 C264 0.930 . S
H255 C265 0.930 . S
C256 H250 0.930 . S
C256 C257 1.355 . S
C256 C258 1.415 . S
C257 C256 1.355 . S
C257 C259 1.419 . S
C258 C256 1.415 . S
C258 C263 1.425 . S
C258 C265 1.409 . S
C259 H251 0.930 . S
C259 C257 1.419 . S
C259 C260 1.362 . S
C260 H252 0.930 . S
C260 C259 1.362 . S
C260 C263 1.409 . S
C261 H253 0.930 . S
C261 C262 1.355 . S
C261 C263 1.415 . S
C262 C261 1.355 . S
C262 C264 1.419 . S
C263 C258 1.425 . S
C263 C260 1.409 . S
C263 C261 1.415 . S
C264 H254 0.930 . S
C264 C262 1.419 . S
C264 C265 1.362 . S
C265 H255 0.930 . S
C265 C258 1.409 . S
C265 C264 1.362 . S
H266 C272 0.930 . S
H267 C275 0.930 . S
H268 C276 0.930 . S
H269 C277 0.930 . S
H270 C280 0.930 . S
H271 C281 0.930 . S
C272 H266 0.930 . S
C272 C273 1.355 . S
C272 C274 1.415 . S
C273 C272 1.355 . S
C273 C275 1.419 . S
C274 C272 1.415 . S
C274 C279 1.425 . S
C274 C281 1.409 . S
C275 H267 0.930 . S
C275 C273 1.419 . S
C275 C276 1.362 . S
C276 H268 0.930 . S
C276 C275 1.362 . S
C276 C279 1.409 . S
C277 H269 0.930 . S
C277 C278 1.355 . S
C277 C279 1.415 . S
C278 C277 1.355 . S
C278 C280 1.419 . S
C279 C274 1.425 . S
C279 C276 1.409 . S
C279 C277 1.415 . S
C280 H270 0.930 . S
C280 C278 1.419 . S
C280 C281 1.362 . S
C281 H271 0.930 . S
C281 C274 1.409 . S
C281 C280 1.362 . S
C102 C61 1.486 . S
C97 C43 1.476 . S
C113 C10 1.491 . S
C118 C84 1.488 . S
C129 C21 1.514 . S
C134 C60 1.512 . S
C145 C32 1.503 . S
C150 C83 1.507 . S
C166 C64 1.470 . S
C161 C5 1.479 . S
C182 C86 1.478 . S
C177 C15 1.553 . S
C193 C27 1.502 . S
C198 C65 1.458 . S
C209 C38 1.530 . S
C214 C85 1.518 . S
C230 C88 1.441 . S
C225 C16 1.443 . S
C246 C63 1.396 . S
C241 C26 1.461 . S
C262 C87 1.433 . S
C257 C37 1.463 . S
C273 C4 1.471 . S
C278 C62 1.438 . S
