# Generated by pormake.
# Topology zzz, (3,6)-cn, num edge types: 1
# Building blocks:
#     Node 0, Type 0, BuildingBlock: BETDAH_clean_linker_0, # of connection points: 3
#     Node 1, Type 0, BuildingBlock: BETDAH_clean_linker_0, # of connection points: 3
#     Node 2, Type 0, BuildingBlock: BETDAH_clean_linker_0, # of connection points: 3
#     Node 3, Type 0, BuildingBlock: BETDAH_clean_linker_0, # of connection points: 3
#     Node 4, Type 0, BuildingBlock: BETDAH_clean_linker_0, # of connection points: 3
#     Node 5, Type 0, BuildingBlock: BETDAH_clean_linker_0, # of connection points: 3
#     Node 6, Type 0, BuildingBlock: BETDAH_clean_linker_0, # of connection points: 3
#     Node 7, Type 0, BuildingBlock: BETDAH_clean_linker_0, # of connection points: 3
#     Node 8, Type 1, BuildingBlock: KUMJIN_clean_sbu_1, # of connection points: 6
#     Node 9, Type 1, BuildingBlock: KUMJIN_clean_sbu_1, # of connection points: 6
#     Node 10, Type 1, BuildingBlock: KUMJIN_clean_sbu_1, # of connection points: 6
#     Node 11, Type 1, BuildingBlock: KUMJIN_clean_sbu_1, # of connection points: 6
#     Edge 12, Type (0, 1), BuildingBlock: AJUNOK_clean_linker_0, # of connection points: 2
#     Edge 13, Type (0, 1), BuildingBlock: AJUNOK_clean_linker_0, # of connection points: 2
#     Edge 14, Type (0, 1), BuildingBlock: AJUNOK_clean_linker_0, # of connection points: 2
#     Edge 15, Type (0, 1), BuildingBlock: AJUNOK_clean_linker_0, # of connection points: 2
#     Edge 16, Type (0, 1), BuildingBlock: AJUNOK_clean_linker_0, # of connection points: 2
#     Edge 17, Type (0, 1), BuildingBlock: AJUNOK_clean_linker_0, # of connection points: 2
#     Edge 18, Type (0, 1), BuildingBlock: AJUNOK_clean_linker_0, # of connection points: 2
#     Edge 19, Type (0, 1), BuildingBlock: AJUNOK_clean_linker_0, # of connection points: 2
#     Edge 20, Type (0, 1), BuildingBlock: AJUNOK_clean_linker_0, # of connection points: 2
#     Edge 21, Type (0, 1), BuildingBlock: AJUNOK_clean_linker_0, # of connection points: 2
#     Edge 22, Type (0, 1), BuildingBlock: AJUNOK_clean_linker_0, # of connection points: 2
#     Edge 23, Type (0, 1), BuildingBlock: AJUNOK_clean_linker_0, # of connection points: 2
#     Edge 24, Type (0, 1), BuildingBlock: AJUNOK_clean_linker_0, # of connection points: 2
#     Edge 25, Type (0, 1), BuildingBlock: AJUNOK_clean_linker_0, # of connection points: 2
#     Edge 26, Type (0, 1), BuildingBlock: AJUNOK_clean_linker_0, # of connection points: 2
#     Edge 27, Type (0, 1), BuildingBlock: AJUNOK_clean_linker_0, # of connection points: 2
#     Edge 28, Type (0, 1), BuildingBlock: AJUNOK_clean_linker_0, # of connection points: 2
#     Edge 29, Type (0, 1), BuildingBlock: AJUNOK_clean_linker_0, # of connection points: 2
#     Edge 30, Type (0, 1), BuildingBlock: AJUNOK_clean_linker_0, # of connection points: 2
#     Edge 31, Type (0, 1), BuildingBlock: AJUNOK_clean_linker_0, # of connection points: 2
#     Edge 32, Type (0, 1), BuildingBlock: AJUNOK_clean_linker_0, # of connection points: 2
#     Edge 33, Type (0, 1), BuildingBlock: AJUNOK_clean_linker_0, # of connection points: 2
#     Edge 34, Type (0, 1), BuildingBlock: AJUNOK_clean_linker_0, # of connection points: 2
#     Edge 35, Type (0, 1), BuildingBlock: AJUNOK_clean_linker_0, # of connection points: 2
# Relax obj value: 0.241
# Max RMSD: 0.124
# Mean RMSD: 0.085
data_MOF--net-zzz--node1-KUMJIN_clean_sbu_1--node2-BETDAH_clean_linker_0--edge1-AJUNOK_clean_linker_0
_symmetry_space_group_name_H-M    P1
_symmetry_Int_Tables_number       1
_symmetry_cell_setting            triclinic
loop_
_symmetry_equiv_pos_as_xyz
'x, y, z'
_cell_length_a     36.939957
_cell_length_b     37.065622
_cell_length_c     11.809305
_cell_angle_alpha  89.373714
_cell_angle_beta   89.784715
_cell_angle_gamma 90.152201
loop_
_atom_site_label
_atom_site_type_symbol
_atom_site_fract_x
_atom_site_fract_y
_atom_site_fract_z
_atom_type_partial_charge
H0 H 0.86429 0.57748 0.28365 0.0
H1 H 0.75249 0.58334 0.18088 0.0
H2 H 0.78138 0.53151 0.49474 0.0
C3 C 0.83578 0.57288 0.29916 0.0
C4 C 0.8265 0.55655 0.40327 0.0
C5 C 0.80978 0.58032 0.21339 0.0
C6 C 0.77313 0.57432 0.23863 0.0
C7 C 0.76238 0.55464 0.33445 0.0
C8 C 0.78929 0.54615 0.41875 0.0
N9 N 0.72521 0.5423 0.34333 0.0
C10 C 0.69863 0.5436 0.25573 0.0
H11 H 0.9758 0.86106 0.30998 0.0
H12 H 0.98205 0.75289 0.1804 0.0
H13 H 0.03561 0.78004 0.48963 0.0
C14 C 0.98446 0.83333 0.31656 0.0
C15 C 1.00449 0.82403 0.41369 0.0
C16 C 0.9785 0.80903 0.2259 0.0
C17 C 0.98907 0.77293 0.24145 0.0
C18 C 1.01098 0.76206 0.33152 0.0
C19 C 0.01882 0.78797 0.41874 0.0
N20 N 0.02605 0.7259 0.3317 0.0
C21 C 0.02397 0.70005 0.24254 0.0
H22 H 0.69744 0.96088 0.3178 0.0
H23 H 0.80774 0.9678 0.20064 0.0
H24 H 0.77063 0.03479 0.47354 0.0
C25 C 0.72441 0.97186 0.32371 0.0
C26 C 0.72992 0.99823 0.40645 0.0
C27 C 0.75115 0.96271 0.24259 0.0
C28 C 0.78645 0.97604 0.25765 0.0
C29 C 0.79404 1.00257 0.33773 0.0
C30 C 0.76549 1.0136 0.41326 0.0
N31 N 0.82925 0.01978 0.33771 0.0
C32 C 0.85715 1.01606 0.25483 0.0
H33 H 0.50482 0.69778 0.32417 0.0
H34 H 0.5193 0.80424 0.19286 0.0
H35 H 0.55446 0.7789 0.5344 0.0
C36 C 0.51394 0.72511 0.33978 0.0
C37 C 0.52878 0.734 0.44527 0.0
C38 C 0.51015 0.75048 0.25226 0.0
C39 C 0.5226 0.78558 0.26332 0.0
C40 C 0.53939 0.79658 0.36283 0.0
C41 C 0.54235 0.77056 0.4556 0.0
N42 N 0.55277 0.83333 0.36912 0.0
C43 C 0.55107 0.86023 0.28131 0.0
H44 H 0.21425 0.57995 0.14761 0.0
H45 H 0.31611 0.5558 0.30087 0.0
H46 H 0.27838 0.49236 0.01867 0.0
C47 C 0.23896 0.56422 0.14669 0.0
C48 C 0.24277 0.53669 0.06686 0.0
C49 C 0.26548 0.57143 0.22821 0.0
C50 C 0.29639 0.55003 0.23582 0.0
C51 C 0.3017 0.52109 0.16269 0.0
C52 C 0.27457 0.51437 0.07696 0.0
N53 N 0.33376 0.49896 0.17565 0.0
C54 C 0.36145 0.50304 0.25884 0.0
H55 H 1.01803 0.20123 0.22121 0.0
H56 H 0.03361 0.30913 0.33474 0.0
H57 H 0.05729 0.28285 0.9859 0.0
C58 C 0.02655 0.22861 0.20118 0.0
C59 C 0.0377 0.23745 0.09025 0.0
C60 C 0.02536 0.25453 0.28694 0.0
C61 C 0.03541 0.29003 0.26609 0.0
C62 C 0.04715 0.3013 0.15943 0.0
C63 C 0.04861 0.27462 0.06994 0.0
N64 N 0.05664 0.33906 0.14339 0.0
C65 C 0.05466 0.36657 0.22779 0.0
H66 H 0.34909 0.09817 0.1755 0.0
H67 H 0.24122 0.08769 0.30524 0.0
H68 H 0.27196 0.03317 0.9982 0.0
C69 C 0.3217 0.08826 0.16605 0.0
C70 C 0.3148 0.06528 0.07504 0.0
C71 C 0.29691 0.09202 0.25629 0.0
C72 C 0.2606 0.08292 0.238 0.0
C73 C 0.25082 0.06115 0.14684 0.0
C74 C 0.27841 0.05183 0.06509 0.0
N75 N 0.21487 0.04561 0.1441 0.0
C76 C 0.18791 0.04778 0.2306 0.0
H77 H 0.53877 0.35697 0.23395 0.0
H78 H 0.5211 0.24916 0.35313 0.0
H79 H 0.51628 0.27283 0.99378 0.0
C80 C 0.53228 0.32924 0.21398 0.0
C81 C 0.52697 0.31977 0.10009 0.0
C82 C 0.53088 0.30376 0.30335 0.0
C83 C 0.52259 0.26793 0.28236 0.0
C84 C 0.51793 0.25566 0.17241 0.0
C85 C 0.51963 0.28192 0.07986 0.0
N86 N 0.51302 0.21721 0.15606 0.0
C87 C 0.51278 0.18985 0.24296 0.0
Eu88 Eu 0.98552 0.04326 0.65464 0.0
C89 C 0.13034 0.06859 0.92012 0.0
N90 N 0.1223 0.04573 0.83435 0.0
C91 C 0.18131 0.05531 0.75344 0.0
C92 C 0.16427 0.08614 0.92467 0.0
C93 C 0.14736 0.03856 0.75223 0.0
C94 C 0.18981 0.0792 0.83992 0.0
C95 C 0.11144 0.09959 0.09057 0.0
C96 C 0.1043 0.07513 1.00265 0.0
C97 C 0.14524 0.11691 0.09548 0.0
C98 C 0.17159 0.11015 1.01289 0.0
Eu99 Eu 0.06487 1.01711 0.84416 0.0
N100 N 0.07137 0.05878 0.99389 0.0
C101 C 0.08424 0.10633 0.17029 0.0
C102 C 0.04504 0.06484 0.07261 0.0
C103 C 0.05092 0.08882 0.16126 0.0
H104 H 0.14176 1.0191 0.68731 0.0
H105 H 0.02978 0.09365 0.22294 0.0
H106 H 0.91382 1.0102 0.79887 0.0
H107 H 0.03405 1.00961 0.22731 0.0
H108 H 0.01954 0.05106 0.06826 0.0
H109 H 0.08867 0.12494 0.23898 0.0
H110 H 0.0302 0.04633 0.39779 0.0
H111 H 0.20104 0.04947 0.6882 0.0
H112 H 0.15121 0.13571 0.16249 0.0
H113 H 0.19752 0.12379 0.01776 0.0
H114 H 0.86493 0.9657 0.77282 0.0
H115 H 0.21621 0.09205 0.84075 0.0
H116 H 0.98982 0.96091 0.19564 0.0
N117 N 0.93873 0.99993 0.64011 0.0
C118 C 0.9366 0.98222 0.53992 0.0
C119 C 0.88507 0.96984 0.70711 0.0
C120 C 0.90888 0.95668 0.52125 0.0
C121 C 0.91318 0.99458 0.72253 0.0
C122 C 0.88295 0.95072 0.60621 0.0
N123 N 0.98927 1.01386 0.47655 0.0
C124 C 1.01275 0.02321 0.39141 0.0
C125 C 0.96256 0.96878 0.35608 0.0
C126 C 0.96316 0.98851 0.45779 0.0
C127 C 0.98905 0.97585 0.27402 0.0
C128 C 1.014 1.00341 0.29143 0.0
H129 H 0.86128 0.93135 0.59488 0.0
H130 H 0.88763 0.91716 0.40494 0.0
H131 H 0.93497 0.92732 0.26183 0.0
O132 O 0.97292 0.08695 0.53605 0.0
O133 O 0.9922 0.98148 0.69072 0.0
O134 O 0.05302 0.97473 0.70636 0.0
O135 O 0.93054 0.06405 0.63965 0.0
O136 O 0.04311 0.05985 0.58807 0.0
O137 O 0.07691 1.01304 0.65568 0.0
O138 O 0.06593 0.98161 0.99194 0.0
O139 O 0.05941 0.07925 0.81698 0.0
O140 O 0.9988 0.08677 0.7888 0.0
O141 O 0.11138 0.9821 0.87628 0.0
O142 O 1.00729 1.00347 0.91763 0.0
O143 O 0.97118 0.04735 0.84101 0.0
C144 C 0.02135 0.96127 0.67711 0.0
C145 C 0.93262 0.12709 0.62551 0.0
C146 C 0.95237 0.18924 0.64079 0.0
C147 C 0.93097 0.19379 0.73752 0.0
C148 C 0.91114 0.13145 0.72341 0.0
C149 C 0.91005 0.16485 0.77807 0.0
C150 C 0.95168 0.1566 0.58287 0.0
C151 C 0.07237 0.03922 0.5816 0.0
C152 C 0.94041 0.09134 0.57761 0.0
C153 C 0.90848 0.93711 0.42027 0.0
C154 C 0.93549 0.94284 0.33878 0.0
C155 C 0.03032 0.0999 0.82206 0.0
C156 C 0.09104 0.92593 0.94192 0.0
C157 C 0.05103 0.87394 0.92324 0.0
C158 C 0.08171 0.85131 0.92844 0.0
C159 C 0.12114 0.90319 0.9471 0.0
C160 C 0.05663 0.91133 0.92157 0.0
C161 C 0.11649 0.86598 0.93732 0.0
C162 C 0.97707 0.02278 0.91925 0.0
C163 C 0.09497 0.96489 0.95786 0.0
H164 H 0.93081 0.21925 0.78164 0.0
H165 H 0.8961 0.10898 0.75953 0.0
H166 H 0.89373 0.16797 0.85362 0.0
H167 H 0.96778 0.1537 0.50636 0.0
H168 H 0.07909 0.82227 0.9332 0.0
H169 H 0.14802 0.91414 0.95983 0.0
H170 H 0.03373 0.92924 0.91212 0.0
H171 H 0.13972 0.84831 0.9427 0.0
Eu172 Eu 0.54129 0.06083 0.86028 0.0
C173 C 0.53074 0.90256 0.70399 0.0
N174 N 0.54254 0.93245 0.64647 0.0
C175 C 0.5879 0.8974 0.55258 0.0
C176 C 0.54741 0.86876 0.68741 0.0
C177 C 0.57057 0.93028 0.57111 0.0
C178 C 0.57627 0.86652 0.61078 0.0
C179 C 0.49166 0.87555 0.84828 0.0
C180 C 0.5031 0.90597 0.78435 0.0
C181 C 0.50756 0.84179 0.82909 0.0
C182 C 0.53534 0.83842 0.74907 0.0
Eu183 Eu 0.50799 0.98507 0.67605 0.0
N184 N 0.4891 0.9393 0.80509 0.0
C185 C 0.46532 0.88009 0.93233 0.0
C186 C 0.4629 0.9436 0.88559 0.0
C187 C 0.45098 0.91427 0.95116 0.0
H188 H 0.57918 0.95345 0.52217 0.0
H189 H 0.43046 0.91801 0.01561 0.0
H190 H 0.49011 0.07319 0.09553 0.0
H191 H 0.59762 0.16245 0.57068 0.0
H192 H 0.45076 0.96936 0.89933 0.0
H193 H 0.45607 0.85745 0.98364 0.0
H194 H 0.59192 0.1018 0.65998 0.0
H195 H 0.60995 0.89581 0.49222 0.0
H196 H 0.49905 0.81821 0.87744 0.0
H197 H 0.54774 0.81228 0.73683 0.0
H198 H 0.44906 0.11961 0.17066 0.0
H199 H 0.58979 0.84107 0.59606 0.0
H200 H 0.55833 0.21227 0.63489 0.0
N201 N 0.50525 0.10457 0.95084 0.0
C202 C 0.50517 0.13785 0.90092 0.0
C203 C 0.46431 0.12497 0.09408 0.0
C204 C 0.4834 0.16574 0.94418 0.0
C205 C 0.48731 0.09863 0.05066 0.0
C206 C 0.46174 0.15843 0.03931 0.0
N207 N 0.54929 0.1174 0.77009 0.0
C208 C 0.57479 0.12357 0.68807 0.0
C209 C 0.531 0.17969 0.76238 0.0
C210 C 0.52844 0.14473 0.81002 0.0
C211 C 0.55585 0.18585 0.67431 0.0
C212 C 0.57806 0.15777 0.63773 0.0
H213 H 0.44433 0.179 0.07442 0.0
H214 H 0.4682 0.22194 0.92585 0.0
H215 H 0.51021 0.23427 0.76797 0.0
O216 O 0.57289 0.04608 1.00911 0.0
O217 O 0.5125 0.08076 0.6969 0.0
O218 O 0.51615 0.03623 0.56363 0.0
O219 O 0.57937 0.0989 0.93659 0.0
O220 O 0.58709 0.03469 0.75344 0.0
O221 O 0.55993 1.00931 0.59799 0.0
O222 O 0.45456 0.96443 0.63776 0.0
O223 O 0.54661 0.96863 0.82102 0.0
O224 O 0.52721 1.00774 0.95217 0.0
O225 O 0.49719 0.95952 0.51465 0.0
O226 O 0.46229 0.02221 0.74645 0.0
O227 O 0.48527 0.04094 0.91479 0.0
C228 C 0.51252 0.0707 0.58989 0.0
C229 C 0.63172 0.07032 1.00234 0.0
C230 C 0.68411 0.0309 0.98218 0.0
C231 C 0.70654 0.06056 1.00924 0.0
C232 C 0.65444 0.09916 0.02974 0.0
C233 C 0.69179 0.09441 0.03089 0.0
C234 C 0.64673 0.03683 0.97333 0.0
C235 C 0.58921 0.02128 0.65014 0.0
C236 C 0.59239 0.07519 1.00612 0.0
C237 C 0.48484 0.20024 0.89387 0.0
C238 C 0.50886 0.20731 0.80416 0.0
C239 C 0.54195 0.97642 0.92829 0.0
C240 C 0.43756 0.96631 0.44848 0.0
C241 C 0.38681 1.00388 0.39631 0.0
C242 C 0.37934 0.98071 0.30574 0.0
C243 C 0.43083 0.9439 0.35608 0.0
C244 C 0.41647 0.99716 0.46542 0.0
C245 C 0.40189 0.95138 0.28403 0.0
C246 C 0.45721 0.03531 0.84909 0.0
C247 C 0.46305 0.95496 0.53543 0.0
H248 H 0.73547 0.05749 0.01962 0.0
H249 H 0.64325 0.12523 0.05097 0.0
H250 H 0.70933 0.11667 0.05294 0.0
H251 H 0.62906 1.01522 0.94717 0.0
H252 H 0.35614 0.9854 0.25173 0.0
H253 H 0.44711 0.92006 0.34217 0.0
H254 H 0.42169 1.01471 0.53644 0.0
H255 H 0.39625 0.93383 0.21357 0.0
Eu256 Eu 0.56851 0.51776 0.64316 0.0
C257 C 0.46517 0.46246 1.00214 0.0
N258 N 0.45786 0.48125 0.90574 0.0
C259 C 0.40852 0.44124 0.86536 0.0
C260 C 0.4458 0.43076 0.03024 0.0
C261 C 0.42936 0.47175 0.83877 0.0
C262 C 0.41698 0.42044 0.961 0.0
C263 C 0.50242 0.45457 0.16846 0.0
C264 C 0.49252 0.47477 0.07138 0.0
C265 C 0.48471 0.42187 0.19327 0.0
C266 C 0.45605 0.41026 0.1254 0.0
Eu267 Eu 0.49353 0.53303 0.86534 0.0
N268 N 0.50888 0.50677 0.04533 0.0
C269 C 0.52984 0.46782 0.23773 0.0
C270 C 0.53239 0.52166 0.12092 0.0
C271 C 0.54483 0.50158 0.21385 0.0
H272 H 0.42318 0.48743 0.76364 0.0
H273 H 0.5658 0.51231 0.26761 0.0
H274 H 0.64552 0.53632 0.79056 0.0
H275 H 0.51398 0.58718 0.26861 0.0
H276 H 0.54229 0.54885 0.10981 0.0
H277 H 0.5389 0.45268 0.3113 0.0
H278 H 0.51815 0.53874 0.41264 0.0
H279 H 0.38629 0.4335 0.81129 0.0
H280 H 0.49248 0.40578 0.26623 0.0
H281 H 0.44208 0.38537 0.14706 0.0
H282 H 0.69218 0.58325 0.79704 0.0
H283 H 0.40126 0.39642 0.98023 0.0
H284 H 0.55895 0.6366 0.26557 0.0
N285 N 0.61524 0.56183 0.65884 0.0
C286 C 0.61589 0.58797 0.57652 0.0
C287 C 0.67065 0.58517 0.73551 0.0
C288 C 0.64357 0.61435 0.5733 0.0
C289 C 0.64317 0.55921 0.7342 0.0
C290 C 0.67075 0.61299 0.65526 0.0
N291 N 0.56331 0.56195 0.49639 0.0
C292 C 0.53748 0.56052 0.41371 0.0
C293 C 0.5886 0.61562 0.40978 0.0
C294 C 0.58932 0.58807 0.49329 0.0
C295 C 0.56077 0.61555 0.32972 0.0
C296 C 0.53525 0.58777 0.33133 0.0
H297 H 0.69229 0.63288 0.65601 0.0
H298 H 0.66407 0.66203 0.48634 0.0
H299 H 0.6152 0.66393 0.34612 0.0
O300 O 0.57401 0.47823 0.5093 0.0
O301 O 0.53526 0.57034 0.63646 0.0
O302 O 0.52225 0.58687 0.81548 0.0
O303 O 0.62174 0.5039 0.57589 0.0
O304 O 0.51224 0.49669 0.58528 0.0
O305 O 0.47545 0.53636 0.67922 0.0
O306 O 0.46197 0.56272 0.9916 0.0
O307 O 0.50334 0.47437 0.80476 0.0
O308 O 0.56394 0.47208 0.78022 0.0
O309 O 0.44012 0.55342 0.82542 0.0
O310 O 0.551 0.5537 0.9144 0.0
O311 O 0.58673 0.51199 0.82786 0.0
C312 C 0.53213 0.59602 0.71144 0.0
C313 C 0.62697 0.44365 0.526 0.0
C314 C 0.61785 0.38011 0.56682 0.0
C315 C 0.6509 0.37284 0.51023 0.0
C316 C 0.65921 0.4363 0.46857 0.0
C317 C 0.67203 0.40098 0.46558 0.0
C318 C 0.60943 0.41628 0.5874 0.0
C319 C 0.48071 0.51351 0.59591 0.0
C320 C 0.60933 0.4786 0.51218 0.0
C321 C 0.64323 0.64141 0.48912 0.0
C322 C 0.61548 0.64241 0.40895 0.0
C323 C 0.53375 0.4562 0.81533 0.0
C324 C 0.42338 0.60725 0.90765 0.0
C325 C 0.4339 0.67164 0.9271 0.0
C326 C 0.40253 0.67886 0.86425 0.0
C327 C 0.39204 0.61472 0.84458 0.0
C328 C 0.44396 0.63577 0.94913 0.0
C329 C 0.38173 0.65039 0.823 0.0
C330 C 0.58157 0.53505 0.91027 0.0
C331 C 0.43576 0.5698 0.9208 0.0
H332 H 0.65928 0.34575 0.49047 0.0
H333 H 0.67368 0.4575 0.42338 0.0
H334 H 0.69671 0.39503 0.41984 0.0
H335 H 0.58571 0.42295 0.63671 0.0
H336 H 0.39406 0.70639 0.84801 0.0
H337 H 0.37585 0.59296 0.81074 0.0
H338 H 0.46763 0.63006 1.00017 0.0
H339 H 0.35758 0.65596 0.77427 0.0
Eu340 Eu 0.04728 0.57332 0.62213 0.0
C341 C 0.07194 0.42987 0.90224 0.0
N342 N 0.04783 0.43818 0.81922 0.0
C343 C 0.05369 0.37859 0.74358 0.0
C344 C 0.08856 0.39565 0.90717 0.0
C345 C 0.03797 0.41285 0.74178 0.0
C346 C 0.07923 0.36999 0.82624 0.0
C347 C 0.10568 0.44819 0.06828 0.0
C348 C 0.08032 0.45576 0.98228 0.0
C349 C 0.12272 0.41439 0.07195 0.0
C350 C 0.11406 0.38815 0.99202 0.0
Eu351 Eu 0.02234 0.49683 0.82538 0.0
N352 N 0.06514 0.48905 0.97225 0.0
C353 C 0.1141 0.47527 0.14567 0.0
C354 C 0.07279 0.51531 0.04866 0.0
C355 C 0.09746 0.50891 0.13604 0.0
H356 H 1.01719 0.41849 0.68022 0.0
H357 H 0.10366 0.52996 0.19581 0.0
H358 H 1.00858 0.64441 0.74999 0.0
H359 H 0.01849 0.51515 0.20449 0.0
H360 H 0.05986 0.54121 0.04283 0.0
H361 H 0.13362 0.47062 0.21235 0.0
H362 H 0.05483 0.52526 0.37383 0.0
H363 H 0.04582 0.35871 0.68178 0.0
H364 H 0.14294 0.40838 0.13546 0.0
H365 H 0.12732 0.36213 0.99644 0.0
H366 H 0.96078 0.68918 0.71058 0.0
H367 H 0.09132 0.34337 0.82748 0.0
H368 H 0.96638 0.55437 0.1625 0.0
N369 N 1.00039 0.61591 0.59681 0.0
C370 C 0.98243 0.61439 0.49638 0.0
C371 C 0.96644 0.66818 0.65009 0.0
C372 C 0.95494 0.63954 0.47066 0.0
C373 C 0.9932 0.64257 0.67278 0.0
C374 C 0.94718 0.66664 0.54876 0.0
N375 N 1.01825 0.56349 0.44522 0.0
C376 C 0.02998 0.54005 0.36436 0.0
C377 C 0.9715 0.58436 0.31798 0.0
C378 C 0.99084 0.58694 0.4206 0.0
C379 C 0.98092 0.55749 0.24139 0.0
C380 C 1.01043 0.5354 0.26453 0.0
H381 H 0.92631 0.68643 0.53176 0.0
H382 H 0.91429 0.65547 0.34825 0.0
H383 H 0.92885 0.60704 0.2155 0.0
O384 O 0.09399 0.58557 0.51224 0.0
O385 O 0.98634 0.56663 0.67119 0.0
O386 O 0.97975 0.50627 0.6853 0.0
O387 O 0.06164 0.62859 0.57836 0.0
O388 O 0.06403 0.5149 0.56698 0.0
O389 O 1.01695 0.48229 0.63888 0.0
O390 O 0.98606 0.50221 0.96923 0.0
O391 O 0.08464 0.50386 0.80308 0.0
O392 O 0.09166 0.56352 0.75598 0.0
O393 O 0.98773 0.45178 0.87889 0.0
O394 O 1.01137 0.55493 0.89489 0.0
O395 O 0.05207 0.5926 0.80474 0.0
C396 C 0.96606 0.53774 0.65597 0.0
C397 C 0.12375 0.64071 0.55806 0.0
C398 C 0.18802 0.65201 0.53215 0.0
C399 C 0.18672 0.68021 0.60971 0.0
C400 C 0.12247 0.66907 0.63668 0.0
C401 C 0.15385 0.68866 0.66202 0.0
C402 C 0.15663 0.63256 0.50633 0.0
C403 C 0.04323 0.48559 0.56452 0.0
C404 C 0.09108 0.62033 0.5256 0.0
C405 C 0.93564 0.63657 0.36913 0.0
C406 C 0.94376 0.60892 0.29369 0.0
C407 C 0.10504 0.53324 0.79842 0.0
C408 C 0.93085 0.47281 0.9349 0.0
C409 C 0.87617 0.50882 0.9121 0.0
C410 C 0.85554 0.4768 0.92535 0.0
C411 C 0.90999 0.44147 0.94745 0.0
C412 C 0.91397 0.50577 0.90921 0.0
C413 C 0.87244 0.44342 0.93972 0.0
C414 C 0.03011 0.58561 0.89029 0.0
C415 C 0.97012 0.47139 0.95077 0.0
H416 H 0.21089 0.69546 0.62952 0.0
H417 H 0.09736 0.67628 0.67815 0.0
H418 H 0.15264 0.71041 0.72233 0.0
H419 H 0.15788 0.6111 0.44458 0.0
H420 H 0.82638 0.47729 0.93242 0.0
H421 H 0.92271 0.4157 0.96479 0.0
H422 H 0.93041 0.52958 0.89445 0.0
H423 H 0.85626 0.41925 0.95115 0.0
C424 C 0.14797 0.07666 0.38134 0.0
C425 C 0.15779 0.04647 0.31562 0.0
C426 C 0.11945 0.07495 0.46335 0.0
C427 C 0.09974 0.04278 0.48496 0.0
H428 H 0.16256 0.10182 0.3699 0.0
H429 H 0.1136 0.0987 0.51269 0.0
S430 S 0.11252 0.95704 0.32975 0.0
N431 N 0.14328 0.9843 0.27338 0.0
N432 N 0.09152 0.98063 0.42793 0.0
C433 C 0.10906 1.01276 0.4182 0.0
C434 C 0.13743 1.01473 0.33374 0.0
C435 C 0.52944 0.1264 0.31115 0.0
C436 C 0.51172 0.1597 0.32942 0.0
C437 C 0.52835 0.09746 0.3922 0.0
C438 C 0.50994 0.10021 0.49731 0.0
H439 H 0.54444 0.12257 0.23322 0.0
H440 H 0.54278 0.07295 0.37299 0.0
S441 S 0.45519 0.17985 0.58133 0.0
N442 N 0.47262 0.19214 0.45776 0.0
N443 N 0.47053 0.13879 0.60785 0.0
C444 C 0.49121 0.13307 0.51448 0.0
C445 C 0.49215 0.16235 0.43177 0.0
C446 C 0.40364 0.53847 0.38601 0.0
C447 C 0.39181 0.50511 0.34258 0.0
C448 C 0.43224 0.54082 0.46627 0.0
C449 C 0.45123 0.51003 0.50609 0.0
H450 H 0.39049 0.56311 0.35842 0.0
H451 H 0.43974 0.56722 0.49701 0.0
S452 S 0.42925 0.41583 0.42706 0.0
N453 N 0.40049 0.44026 0.35168 0.0
N454 N 0.45421 0.44477 0.49844 0.0
C455 C 0.43964 0.47654 0.46321 0.0
C456 C 0.4101 0.47408 0.38297 0.0
C457 C 0.01915 0.41239 0.34232 0.0
C458 C 0.05262 0.39671 0.31211 0.0
C459 C 1.01661 0.44096 0.42193 0.0
C460 C 0.04742 0.45633 0.47428 0.0
H461 H 0.99447 0.4023 0.30472 0.0
H462 H 0.99003 0.45132 0.4422 0.0
S463 S 0.14154 0.42427 0.4303 0.0
N464 N 0.11728 0.39801 0.34735 0.0
N465 N 0.11267 0.45219 0.49063 0.0
C466 C 0.08106 0.44104 0.44421 0.0
C467 C 0.08357 0.41129 0.36532 0.0
C468 C 0.90936 0.0476 0.15654 0.0
C469 C 0.88825 1.01617 0.17337 0.0
C470 C 0.93848 0.04903 0.07753 0.0
C471 C 0.94899 1.01876 1.0134 0.0
H472 H 0.9029 0.07172 0.20343 0.0
H473 H 0.95279 0.07436 0.06579 0.0
S474 S 0.9018 0.93019 0.02058 0.0
N475 N 0.87928 0.95433 0.11416 0.0
N476 N 0.9346 0.95646 0.97122 0.0
C477 C 0.92841 0.98698 0.03066 0.0
C478 C 0.89806 0.98583 0.10888 0.0
C479 C 0.55805 0.88331 0.07845 0.0
C480 C 0.55017 0.88989 0.19354 0.0
C481 C 0.55745 0.91136 0.99479 0.0
C482 C 0.54701 0.94722 0.01993 0.0
H483 H 0.56519 0.85629 0.05263 0.0
H484 H 0.56525 0.90464 0.90949 0.0
S485 S 0.53207 0.98087 0.3094 0.0
N486 N 0.53799 0.93702 0.32897 0.0
N487 N 0.53467 0.98823 0.17229 0.0
C488 C 0.54109 0.95435 0.13516 0.0
C489 C 0.54288 0.92618 0.22097 0.0
C490 C 0.65942 0.50975 0.11687 0.0
C491 C 0.66917 0.54248 0.16885 0.0
C492 C 0.63134 0.50779 0.03492 0.0
C493 C 0.61077 0.5383 1.00149 0.0
H494 H 0.67374 0.48525 0.13939 0.0
H495 H 0.62552 0.48185 0.99781 0.0
S496 S 0.62675 0.63114 0.10561 0.0
N497 N 0.65672 0.60663 0.17578 0.0
N498 N 0.60396 0.60284 0.02534 0.0
C499 C 0.62032 0.57123 0.05287 0.0
C500 C 0.64935 0.57332 0.13516 0.0
C501 C 0.05664 0.65186 0.12995 0.0
C502 C 0.0245 0.67098 0.15458 0.0
C503 C 0.05804 0.62436 0.04644 0.0
C504 C 0.02715 0.61356 0.98456 0.0
H505 H 0.08124 0.65845 0.17497 0.0
H506 H 0.08372 0.6113 0.03033 0.0
S507 S 0.93664 0.65625 1.00989 0.0
N508 N 0.9613 0.6779 0.10404 0.0
N509 N 0.96356 0.62593 0.95225 0.0
C510 C 0.99482 0.63238 1.00868 0.0
C511 C 0.99359 0.66096 0.09192 0.0
C512 C 0.97612 0.25775 0.42889 0.0
C513 C 1.01068 0.2453 0.39865 0.0
C514 C 0.95857 0.24396 0.5251 0.0
C515 C 0.97543 0.21764 0.59258 0.0
H516 H 0.9615 0.27586 0.37291 0.0
H517 H 0.93029 0.25046 0.53831 0.0
S518 S 0.06895 0.18316 0.56273 0.0
N519 N 0.0635 0.21047 0.45259 0.0
N520 N 0.03079 0.1851 0.63582 0.0
C521 C 1.01197 0.20931 0.57214 0.0
C522 C 0.02946 0.22265 0.4731 0.0
C523 C 0.3005 0.05504 0.42654 0.0
C524 C 0.3115 0.08768 0.37366 0.0
C525 C 0.32576 0.02738 0.44047 0.0
C526 C 0.36259 0.03418 0.42048 0.0
H527 H 0.27218 0.04749 0.4304 0.0
H528 H 0.31627 1.00018 0.45776 0.0
S529 S 0.40451 0.12398 0.37662 0.0
N530 N 0.3605 0.13142 0.36885 0.0
N531 N 0.40933 0.08034 0.40264 0.0
C532 C 0.37404 0.07017 0.40874 0.0
C533 C 0.34775 0.09773 0.39145 0.0
C534 C 0.53088 0.34684 0.46196 0.0
C535 C 0.54308 0.3143 0.4171 0.0
C536 C 0.55244 0.36583 0.5373 0.0
C537 C 0.5875 0.3532 0.566 0.0
H538 H 0.50689 0.35976 0.42815 0.0
H539 H 0.54348 0.39283 0.55607 0.0
S540 S 0.62022 0.25996 0.52424 0.0
N541 N 0.58412 0.26343 0.44279 0.0
N542 N 0.62371 0.29891 0.58999 0.0
C543 C 0.59448 0.3165 0.54721 0.0
C544 C 0.57275 0.29716 0.46913 0.0
C545 C 0.25696 0.58888 0.42886 0.0
C546 C 0.25828 0.59915 0.31395 0.0
C547 C 0.23855 0.61006 0.50746 0.0
C548 C 0.22125 0.64197 0.47284 0.0
H549 H 0.26662 0.56259 0.4558 0.0
H550 H 0.23405 0.59928 0.59207 0.0
S551 S 0.22432 0.68445 0.18814 0.0
N552 N 0.24701 0.6464 0.17423 0.0
N553 N 0.21178 0.68597 0.32245 0.0
C554 C 0.22671 0.65487 0.36219 0.0
C555 C 0.24539 0.63338 0.28218 0.0
C556 C 0.96682 0.86072 0.09353 0.0
C557 C 0.96987 0.82313 0.10804 0.0
C558 C 0.99063 0.87888 0.02024 0.0
C559 C 1.01417 0.85933 0.94903 0.0
H560 H 0.95149 0.87661 0.15278 0.0
H561 H 0.99329 0.90766 0.03138 0.0
S562 S 0.99989 0.76372 0.87336 0.0
N563 N 0.97575 0.76937 0.98986 0.0
N564 N 0.019 0.80319 0.84546 0.0
C565 C 1.00551 0.82295 0.93211 0.0
C566 C 0.98252 0.80467 1.01119 0.0
C567 C 0.75694 0.96575 0.03361 0.0
C568 C 0.73995 0.94895 0.12789 0.0
C569 C 0.73673 0.98908 0.9644 0.0
C570 C 0.69944 0.99361 0.98521 0.0
H571 H 0.7861 0.96755 0.02727 0.0
H572 H 0.75113 1.00745 0.90809 0.0
S573 S 0.6429 0.92576 0.1395 0.0
N574 N 0.68502 0.91555 0.17333 0.0
N575 N 0.64553 0.96096 0.05278 0.0
C576 C 0.68197 0.96536 0.04574 0.0
C577 C 0.70317 0.94096 0.11163 0.0
C578 C 0.45487 0.74324 0.13759 0.0
C579 C 0.49246 0.73943 0.14791 0.0
C580 C 0.43597 0.72411 0.05522 0.0
C581 C 0.45437 0.70068 0.98208 0.0
H582 H 0.43979 0.75869 0.19914 0.0
H583 H 0.40666 0.72498 0.05623 0.0
S584 S 0.55352 0.68696 0.96526 0.0
N585 N 0.54795 0.7148 0.07188 0.0
N586 N 0.51269 0.67933 0.9141 0.0
C587 C 0.49242 0.7 0.98422 0.0
C588 C 0.51147 0.71919 0.06857 0.0
C589 C 0.85859 0.59266 0.07113 0.0
C590 C 0.82172 0.58586 0.09209 0.0
C591 C 0.87767 0.57087 0.99569 0.0
C592 C 0.85919 0.54488 0.93067 0.0
H593 H 0.87379 0.60973 0.12736 0.0
H594 H 0.90684 0.57136 1.00169 0.0
S595 S 0.76065 0.54528 0.877 0.0
N596 N 0.76597 0.57018 0.99083 0.0
N597 N 0.80175 0.53286 0.83884 0.0
C598 C 0.82175 0.54945 0.91953 0.0
C599 C 0.80253 0.56969 1.00196 0.0
C600 C 1.00346 0.18598 0.9915 0.0
C601 C 0.03577 0.20657 1.00276 0.0
C602 C 1.00176 0.15293 0.93066 0.0
C603 C 0.03245 0.13745 0.87816 0.0
H604 H 0.97908 0.19503 0.0336 0.0
H605 H 0.97616 0.13866 0.92866 0.0
S606 S 0.12354 0.1809 0.87203 0.0
N607 N 0.09904 0.20899 0.94821 0.0
N608 N 0.09612 0.14769 0.8358 0.0
C609 C 0.06475 0.15825 0.88537 0.0
C610 C 0.06633 0.19229 0.94639 0.0
C611 C 0.37987 0.04233 0.06952 0.0
C612 C 0.34838 0.0525 1.00864 0.0
C613 C 0.4138 0.0363 0.0171 0.0
C614 C 0.41907 0.0399 0.89909 0.0
H615 H 0.37872 0.04036 0.16079 0.0
H616 H 0.4364 0.02908 0.07086 0.0
S617 S 0.34663 0.06673 0.69733 0.0
N618 N 0.32557 0.06614 0.82099 0.0
N619 N 0.38893 0.05451 0.72189 0.0
C620 C 0.3878 0.04916 0.83564 0.0
C621 C 0.35287 0.05548 0.89001 0.0
C622 C 0.55863 0.3775 0.02299 0.0
C623 C 0.53112 0.35077 1.01045 0.0
C624 C 0.56009 0.41007 0.95749 0.0
C625 C 0.534 0.41875 0.87451 0.0
H626 H 0.57918 0.37373 0.08712 0.0
H627 H 0.58122 0.42941 0.97574 0.0
S628 S 0.45927 0.35694 0.7913 0.0
N629 N 0.47906 0.33486 0.89646 0.0
N630 N 0.48189 0.39518 0.77444 0.0
C631 C 0.50751 0.39159 0.85579 0.0
C632 C 0.50614 0.35811 0.92243 0.0
C633 C 0.19231 0.50146 0.96046 0.0
C634 C 0.21219 0.53358 0.97846 0.0
C635 C 0.1592 0.50115 0.89759 0.0
C636 C 0.14312 0.53302 0.85238 0.0
H637 H 0.20156 0.47651 0.99894 0.0
H638 H 0.14574 0.47556 0.88635 0.0
S639 S 0.18699 0.62348 0.85898 0.0
N640 N 0.21533 0.59734 0.92933 0.0
N641 N 0.1533 0.59709 0.82029 0.0
C642 C 0.16401 0.5648 0.86396 0.0
C643 C 0.19807 0.56496 0.92459 0.0
C644 C 0.9807 0.87382 0.54457 0.0
C645 C 1.01061 0.85434 0.50094 0.0
C646 C 0.9846 0.90655 0.60575 0.0
C647 C 0.01853 0.92329 0.62393 0.0
H648 H 0.95355 0.86402 0.52883 0.0
H649 H 0.96043 0.91907 0.63831 0.0
S650 S 0.10648 0.88183 0.54147 0.0
N651 N 0.07615 0.8532 0.49217 0.0
N652 N 0.08344 0.91438 0.60317 0.0
C653 C 0.04892 0.90305 0.58663 0.0
C654 C 0.04497 0.86914 0.52605 0.0
C655 C 0.69291 1.00812 0.59171 0.0
C656 C 0.6961 1.01065 0.47226 0.0
C657 C 0.65895 1.01268 0.64887 0.0
C658 C 0.62612 0.01934 0.58989 0.0
H659 H 0.71649 1.00103 0.64131 0.0
H660 H 0.65823 1.0094 0.73998 0.0
S661 S 0.61977 0.03245 0.27827 0.0
N662 N 0.66307 0.02402 0.2993 0.0
N663 N 0.60055 0.03091 0.40457 0.0
C664 C 0.62939 0.0232 0.47131 0.0
C665 C 0.66377 0.01938 0.41364 0.0
C666 C 0.49867 0.67866 0.54011 0.0
C667 C 0.52825 0.70344 0.53641 0.0
C668 C 0.49954 0.64546 0.60115 0.0
C669 C 0.52945 0.63496 0.66715 0.0
H670 H 0.47463 0.6842 0.49081 0.0
H671 H 0.47677 0.62718 0.59349 0.0
S672 S 0.6117 0.69152 0.70766 0.0
N673 N 0.58718 0.71568 0.61805 0.0
N674 N 0.58821 0.65438 0.73538 0.0
C675 C 0.55817 0.6604 0.67234 0.0
C676 C 0.55758 0.69424 0.60788 0.0
C677 C 0.87478 0.57773 0.54441 0.0
C678 C 0.85766 0.54906 0.48662 0.0
C679 C 0.90841 0.5735 0.60228 0.0
C680 C 0.92795 0.54065 0.60323 0.0
H681 H 0.86253 0.60424 0.54209 0.0
H682 H 0.91956 0.59662 0.64514 0.0
S683 S 0.8956 0.45663 0.46585 0.0
N684 N 0.86338 0.48611 0.43678 0.0
N685 N 0.92586 0.47827 0.54241 0.0
C686 C 0.91062 0.51148 0.54837 0.0
C687 C 0.87612 0.51571 0.49056 0.0
loop_
_geom_bond_atom_site_label_1
_geom_bond_atom_site_label_2
_geom_bond_distance
_geom_bond_site_symmetry_2
_ccdc_geom_bond_type
H0 C3 0.929 . S
H1 C6 0.929 . S
H2 C8 0.930 . S
C3 H0 0.929 . S
C3 C4 1.398 . S
C3 C5 1.396 . S
C4 C3 1.398 . S
C4 C8 1.407 . S
C5 C3 1.396 . S
C5 C6 1.394 . S
C6 H1 0.929 . S
C6 C5 1.394 . S
C6 C7 1.382 . S
C7 C6 1.382 . S
C7 C8 1.392 . S
C7 N9 1.420 . S
C8 H2 0.930 . S
C8 C4 1.407 . S
C8 C7 1.392 . S
N9 C7 1.420 . S
N9 C10 1.244 . S
C10 N9 1.244 . S
H11 C14 0.929 . S
H12 C17 0.929 . S
H13 C19 0.930 . S
C14 H11 0.929 . S
C14 C15 1.398 . S
C14 C16 1.396 . S
C15 C14 1.398 . S
C15 C19 1.407 . S
C16 C14 1.396 . S
C16 C17 1.394 . S
C17 H12 0.929 . S
C17 C16 1.394 . S
C17 C18 1.382 . S
C18 C17 1.382 . S
C18 C19 1.392 . S
C18 N20 1.422 . S
C19 H13 0.930 . S
C19 C15 1.407 . S
C19 C18 1.392 . S
N20 C18 1.422 . S
N20 C21 1.248 . S
C21 N20 1.248 . S
H22 C25 0.929 . S
H23 C28 0.929 . S
H24 C30 0.935 . S
C25 H22 0.929 . S
C25 C26 1.398 . S
C25 C27 1.396 . S
C26 C25 1.398 . S
C26 C30 1.407 . S
C27 C25 1.396 . S
C27 C28 1.394 . S
C28 H23 0.929 . S
C28 C27 1.394 . S
C28 C29 1.382 . S
C29 C28 1.382 . S
C29 C30 1.392 . S
C29 N31 1.420 1_565 S
C30 H24 0.935 . S
C30 C26 1.407 . S
C30 C29 1.392 . S
N31 C29 1.420 1_545 S
N31 C32 1.244 1_545 S
C32 N31 1.244 1_565 S
H33 C36 0.929 . S
H34 C39 0.929 . S
H35 C41 0.930 . S
C36 H33 0.929 . S
C36 C37 1.398 . S
C36 C38 1.396 . S
C37 C36 1.398 . S
C37 C41 1.407 . S
C38 C36 1.396 . S
C38 C39 1.394 . S
C39 H34 0.929 . S
C39 C38 1.394 . S
C39 C40 1.382 . S
C40 C39 1.382 . S
C40 C41 1.392 . S
C40 N42 1.420 . S
C41 H35 0.930 . S
C41 C37 1.407 . S
C41 C40 1.392 . S
N42 C40 1.420 . S
N42 C43 1.244 . S
C43 N42 1.244 . S
H44 C47 0.929 . S
H45 C50 0.929 . S
H46 C52 0.930 . S
C47 H44 0.929 . S
C47 C48 1.398 1_554 S
C47 C49 1.396 . S
C48 C47 1.398 1_556 S
C48 C52 1.407 . S
C49 C47 1.396 . S
C49 C50 1.394 . S
C50 H45 0.929 . S
C50 C49 1.394 . S
C50 C51 1.382 . S
C51 C50 1.382 . S
C51 C52 1.392 1_554 S
C51 N53 1.420 . S
C52 H46 0.930 . S
C52 C48 1.407 . S
C52 C51 1.392 1_556 S
N53 C51 1.420 . S
N53 C54 1.244 . S
C54 N53 1.244 . S
H55 C58 0.929 . S
H56 C61 0.929 . S
H57 C63 0.930 . S
C58 H55 0.929 . S
C58 C59 1.398 1_554 S
C58 C60 1.396 . S
C59 C58 1.398 1_556 S
C59 C63 1.407 . S
C60 C58 1.396 . S
C60 C61 1.394 . S
C61 H56 0.929 . S
C61 C60 1.394 . S
C61 C62 1.382 . S
C62 C61 1.382 . S
C62 C63 1.392 1_554 S
C62 N64 1.420 . S
C63 H57 0.930 . S
C63 C59 1.407 . S
C63 C62 1.392 1_556 S
N64 C62 1.420 . S
N64 C65 1.244 . S
C65 N64 1.244 . S
H66 C69 0.929 . S
H67 C72 0.929 . S
H68 C74 0.930 . S
C69 H66 0.929 . S
C69 C70 1.398 1_554 S
C69 C71 1.396 . S
C70 C69 1.398 1_556 S
C70 C74 1.407 . S
C71 C69 1.396 . S
C71 C72 1.394 . S
C72 H67 0.929 . S
C72 C71 1.394 . S
C72 C73 1.382 . S
C73 C72 1.382 . S
C73 C74 1.392 1_554 S
C73 N75 1.420 . S
C74 H68 0.930 . S
C74 C70 1.407 . S
C74 C73 1.392 1_556 S
N75 C73 1.420 . S
N75 C76 1.244 . S
C76 N75 1.244 . S
H77 C80 0.929 . S
H78 C83 0.929 . S
H79 C85 0.930 . S
C80 H77 0.929 . S
C80 C81 1.398 1_554 S
C80 C82 1.396 . S
C81 C80 1.398 1_556 S
C81 C85 1.407 . S
C82 C80 1.396 . S
C82 C83 1.394 . S
C83 H78 0.929 . S
C83 C82 1.394 . S
C83 C84 1.382 . S
C84 C83 1.382 . S
C84 C85 1.392 1_554 S
C84 N86 1.420 . S
C85 H79 0.930 . S
C85 C81 1.407 . S
C85 C84 1.392 1_556 S
N86 C84 1.420 . S
N86 C87 1.244 . S
C87 N86 1.244 . S
Eu88 N117 2.600 . S
Eu88 N123 2.562 . S
Eu88 O132 2.462 . S
Eu88 O133 2.373 1_545 S
Eu88 O135 2.432 . S
Eu88 O136 2.291 1_655 S
Eu88 O140 2.335 1_655 S
Eu88 O143 2.372 . S
Eu88 C152 2.787 . S
C89 N90 1.365 1_554 S
C89 C92 1.405 . S
C89 C96 1.448 . S
N90 C89 1.365 1_556 S
N90 C93 1.319 . S
N90 Eu99 2.600 1_545 S
C91 C93 1.397 . S
C91 C94 1.367 . S
C91 H111 0.931 . S
C92 C89 1.405 . S
C92 C94 1.403 1_554 S
C92 C98 1.439 . S
C93 N90 1.319 . S
C93 C91 1.397 . S
C93 H104 0.930 1_545 S
C94 C91 1.367 . S
C94 C92 1.403 1_556 S
C94 H115 0.929 . S
C95 C96 1.430 . S
C95 C97 1.387 . S
C95 C101 1.404 . S
C96 C89 1.448 . S
C96 C95 1.430 . S
C96 N100 1.351 . S
C97 C95 1.387 . S
C97 C98 1.374 . S
C97 H112 0.931 . S
C98 C92 1.439 . S
C98 C97 1.374 . S
C98 H113 0.931 . S
Eu99 N90 2.600 1_565 S
Eu99 N100 2.562 1_566 S
Eu99 O134 2.335 . S
Eu99 O137 2.372 . S
Eu99 O138 2.462 . S
Eu99 O139 2.373 1_565 S
Eu99 O141 2.432 . S
Eu99 O142 2.291 1_465 S
Eu99 C163 2.787 . S
N100 C96 1.351 . S
N100 Eu99 2.562 1_544 S
N100 C102 1.325 . S
C101 C95 1.404 . S
C101 C103 1.366 . S
C101 H109 0.930 . S
C102 N100 1.325 . S
C102 C103 1.416 . S
C102 H108 0.959 . S
C103 C101 1.366 . S
C103 C102 1.416 . S
C103 H105 0.930 . S
H104 C93 0.930 1_565 S
H105 C103 0.930 . S
H106 C121 0.930 . S
H107 C128 0.930 1_455 S
H108 C102 0.959 . S
H109 C101 0.930 . S
H110 C124 0.929 1_455 S
H111 C91 0.931 . S
H112 C97 0.931 . S
H113 C98 0.931 . S
H114 C119 0.931 . S
H115 C94 0.929 . S
H116 C127 0.930 . S
N117 Eu88 2.600 . S
N117 C118 1.365 1_545 S
N117 C121 1.319 . S
C118 N117 1.365 1_565 S
C118 C120 1.405 . S
C118 C126 1.448 . S
C119 H114 0.931 . S
C119 C121 1.397 . S
C119 C122 1.367 1_545 S
C120 C118 1.405 . S
C120 C122 1.403 . S
C120 C153 1.439 . S
C121 H106 0.930 . S
C121 N117 1.319 . S
C121 C119 1.397 . S
C122 C119 1.367 1_565 S
C122 C120 1.403 . S
C122 H129 0.929 . S
N123 Eu88 2.562 . S
N123 C124 1.325 . S
N123 C126 1.351 1_545 S
C124 H110 0.929 1_655 S
C124 N123 1.325 . S
C124 C128 1.416 1_545 S
C125 C126 1.430 . S
C125 C127 1.404 . S
C125 C154 1.387 . S
C126 C118 1.448 . S
C126 N123 1.351 1_565 S
C126 C125 1.430 . S
C127 H116 0.930 . S
C127 C125 1.404 . S
C127 C128 1.366 . S
C128 H107 0.930 1_655 S
C128 C124 1.416 1_565 S
C128 C127 1.366 . S
H129 C122 0.929 . S
H130 C153 0.931 . S
H131 C154 0.931 . S
O132 Eu88 2.462 . S
O132 C152 1.252 . S
O133 Eu88 2.373 1_565 S
O133 C144 1.249 . S
O134 Eu99 2.335 . S
O134 C144 1.264 1_455 S
O135 Eu88 2.432 . S
O135 C152 1.268 . S
O136 Eu88 2.291 1_455 S
O136 C151 1.255 . S
O137 Eu99 2.372 . S
O137 C151 1.257 1_565 S
O138 Eu99 2.462 . S
O138 C163 1.252 . S
O139 Eu99 2.373 1_545 S
O139 C155 1.249 . S
O140 Eu88 2.335 1_455 S
O140 C155 1.264 . S
O141 Eu99 2.432 . S
O141 C163 1.268 . S
O142 Eu99 2.291 1_645 S
O142 C162 1.255 . S
O143 Eu88 2.372 . S
O143 C162 1.257 . S
C144 O133 1.249 . S
C144 O134 1.264 1_655 S
C145 C148 1.382 . S
C145 C150 1.390 . S
C145 C152 1.506 . S
C146 C147 1.398 . S
C146 C150 1.392 . S
C147 C146 1.398 . S
C147 C149 1.372 . S
C147 H164 0.931 . S
C148 C145 1.382 . S
C148 C149 1.390 . S
C148 H165 0.931 . S
C149 C147 1.372 . S
C149 C148 1.390 . S
C149 H166 0.929 . S
C150 C145 1.390 . S
C150 C146 1.392 . S
C150 H167 0.930 1_655 S
C151 O136 1.255 . S
C151 O137 1.257 1_545 S
C152 Eu88 2.787 . S
C152 O132 1.252 . S
C152 O135 1.268 . S
C152 C145 1.506 . S
C153 C120 1.439 . S
C153 H130 0.931 . S
C153 C154 1.374 . S
C154 C125 1.387 . S
C154 H131 0.931 . S
C154 C153 1.374 . S
C155 O139 1.249 . S
C155 O140 1.264 . S
C156 C159 1.382 . S
C156 C160 1.390 . S
C156 C163 1.506 1_554 S
C157 C158 1.398 . S
C157 C160 1.392 . S
C158 C157 1.398 . S
C158 C161 1.372 . S
C158 H168 0.931 . S
C159 C156 1.382 . S
C159 C161 1.390 . S
C159 H169 0.931 1_554 S
C160 C156 1.390 . S
C160 C157 1.392 . S
C160 H170 0.930 . S
C161 C158 1.372 . S
C161 C159 1.390 . S
C161 H171 0.929 . S
C162 O142 1.255 . S
C162 O143 1.257 . S
C163 Eu99 2.787 . S
C163 O138 1.252 . S
C163 O141 1.268 . S
C163 C156 1.506 1_556 S
H164 C147 0.931 . S
H165 C148 0.931 . S
H166 C149 0.929 . S
H167 C150 0.930 1_455 S
H168 C158 0.931 . S
H169 C159 0.931 1_556 S
H170 C160 0.930 . S
H171 C161 0.929 . S
Eu172 N201 2.600 . S
Eu172 N207 2.562 . S
Eu172 O216 2.462 . S
Eu172 O217 2.373 . S
Eu172 O219 2.432 1_556 S
Eu172 O220 2.291 . S
Eu172 O224 2.335 1_545 S
Eu172 O227 2.372 . S
Eu172 C236 2.787 1_556 S
C173 N174 1.365 . S
C173 C176 1.405 . S
C173 C180 1.448 . S
N174 C173 1.365 . S
N174 C177 1.319 . S
N174 Eu183 2.600 . S
C175 C177 1.397 . S
C175 C178 1.367 . S
C175 H195 0.931 . S
C176 C173 1.405 . S
C176 C178 1.403 . S
C176 C182 1.439 . S
C177 N174 1.319 . S
C177 C175 1.397 . S
C177 H188 0.930 . S
C178 C175 1.367 . S
C178 C176 1.403 . S
C178 H199 0.929 . S
C179 C180 1.430 . S
C179 C181 1.387 . S
C179 C185 1.404 . S
C180 C173 1.448 . S
C180 C179 1.430 . S
C180 N184 1.351 . S
C181 C179 1.387 . S
C181 C182 1.374 . S
C181 H196 0.931 . S
C182 C176 1.439 . S
C182 C181 1.374 . S
C182 H197 0.931 . S
Eu183 N174 2.600 . S
Eu183 N184 2.562 . S
Eu183 O218 2.335 1_565 S
Eu183 O221 2.372 . S
Eu183 O222 2.462 . S
Eu183 O223 2.373 . S
Eu183 O225 2.432 . S
Eu183 O226 2.291 1_565 S
Eu183 C247 2.787 . S
N184 C180 1.351 . S
N184 Eu183 2.562 . S
N184 C186 1.325 . S
C185 C179 1.404 . S
C185 C187 1.366 . S
C185 H193 0.930 . S
C186 N184 1.325 . S
C186 C187 1.416 . S
C186 H192 0.929 . S
C187 C185 1.366 . S
C187 C186 1.416 . S
C187 H189 0.930 . S
H188 C177 0.930 . S
H189 C187 0.930 . S
H190 C205 0.930 1_554 S
H191 C212 0.930 . S
H192 C186 0.929 . S
H193 C185 0.930 . S
H194 C208 0.929 . S
H195 C175 0.931 . S
H196 C181 0.931 . S
H197 C182 0.931 . S
H198 C203 0.931 . S
H199 C178 0.929 . S
H200 C211 0.930 . S
N201 Eu172 2.600 . S
N201 C202 1.365 . S
N201 C205 1.319 . S
C202 N201 1.365 . S
C202 C204 1.405 . S
C202 C210 1.448 . S
C203 H198 0.931 . S
C203 C205 1.397 1_554 S
C203 C206 1.367 1_554 S
C204 C202 1.405 . S
C204 C206 1.403 . S
C204 C237 1.439 . S
C205 H190 0.930 1_556 S
C205 N201 1.319 . S
C205 C203 1.397 1_556 S
C206 C203 1.367 1_556 S
C206 C204 1.403 . S
C206 H213 0.929 1_556 S
N207 Eu172 2.562 . S
N207 C208 1.325 . S
N207 C210 1.351 . S
C208 H194 0.929 . S
C208 N207 1.325 . S
C208 C212 1.416 . S
C209 C210 1.430 . S
C209 C211 1.404 . S
C209 C238 1.387 . S
C210 C202 1.448 . S
C210 N207 1.351 . S
C210 C209 1.430 . S
C211 H200 0.930 . S
C211 C209 1.404 . S
C211 C212 1.366 . S
C212 H191 0.930 . S
C212 C208 1.416 . S
C212 C211 1.366 . S
H213 C206 0.929 1_554 S
H214 C237 0.931 . S
H215 C238 0.931 . S
O216 Eu172 2.462 . S
O216 C236 1.252 1_556 S
O217 Eu172 2.373 . S
O217 C228 1.249 . S
O218 Eu183 2.335 1_545 S
O218 C228 1.264 . S
O219 Eu172 2.432 1_554 S
O219 C236 1.268 . S
O220 Eu172 2.291 . S
O220 C235 1.262 . S
O221 Eu183 2.372 . S
O221 C235 1.252 1_565 S
O222 Eu183 2.462 . S
O222 C247 1.252 . S
O223 Eu183 2.373 . S
O223 C239 1.249 . S
O224 Eu172 2.335 1_565 S
O224 C239 1.264 . S
O225 Eu183 2.432 . S
O225 C247 1.268 . S
O226 Eu183 2.291 1_545 S
O226 C246 1.255 . S
O227 Eu172 2.372 . S
O227 C246 1.257 . S
C228 O217 1.249 . S
C228 O218 1.264 . S
C229 C232 1.382 . S
C229 C234 1.390 . S
C229 C236 1.506 . S
C230 C231 1.398 . S
C230 C234 1.392 . S
C231 C230 1.398 . S
C231 C233 1.372 . S
C231 H248 0.931 . S
C232 C229 1.382 . S
C232 C233 1.390 . S
C232 H249 0.931 . S
C233 C231 1.372 . S
C233 C232 1.390 . S
C233 H250 0.929 . S
C234 C229 1.390 . S
C234 C230 1.392 . S
C234 H251 0.930 . S
C235 O220 1.262 . S
C235 O221 1.252 1_545 S
C236 Eu172 2.787 1_554 S
C236 O216 1.252 1_554 S
C236 O219 1.268 . S
C236 C229 1.506 . S
C237 C204 1.439 . S
C237 H214 0.931 . S
C237 C238 1.374 . S
C238 C209 1.387 . S
C238 H215 0.931 . S
C238 C237 1.374 . S
C239 O223 1.249 . S
C239 O224 1.264 . S
C240 C243 1.382 . S
C240 C244 1.390 . S
C240 C247 1.506 . S
C241 C242 1.398 . S
C241 C244 1.392 . S
C242 C241 1.398 . S
C242 C245 1.372 . S
C242 H252 0.931 . S
C243 C240 1.382 . S
C243 C245 1.390 . S
C243 H253 0.931 . S
C244 C240 1.390 . S
C244 C241 1.392 . S
C244 H254 0.930 1_565 S
C245 C242 1.372 . S
C245 C243 1.390 . S
C245 H255 0.929 . S
C246 O226 1.255 . S
C246 O227 1.257 . S
C247 Eu183 2.787 . S
C247 O222 1.252 . S
C247 O225 1.268 . S
C247 C240 1.506 . S
H248 C231 0.931 . S
H249 C232 0.931 . S
H250 C233 0.929 . S
H251 C234 0.930 . S
H252 C242 0.931 . S
H253 C243 0.931 . S
H254 C244 0.930 1_545 S
H255 C245 0.929 . S
Eu256 N285 2.600 . S
Eu256 N291 2.562 . S
Eu256 O300 2.462 . S
Eu256 O301 2.373 . S
Eu256 O303 2.432 . S
Eu256 O304 2.291 . S
Eu256 O308 2.335 . S
Eu256 O311 2.372 . S
Eu256 C320 2.787 . S
C257 N258 1.365 1_554 S
C257 C260 1.405 . S
C257 C264 1.448 . S
N258 C257 1.365 1_556 S
N258 C261 1.319 . S
N258 Eu267 2.600 . S
C259 C261 1.397 . S
C259 C262 1.367 . S
C259 H279 0.931 . S
C260 C257 1.405 . S
C260 C262 1.403 1_554 S
C260 C266 1.439 . S
C261 N258 1.319 . S
C261 C259 1.397 . S
C261 H272 0.930 . S
C262 C259 1.367 . S
C262 C260 1.403 1_556 S
C262 H283 0.929 . S
C263 C264 1.430 . S
C263 C265 1.387 . S
C263 C269 1.404 . S
C264 C257 1.448 . S
C264 C263 1.430 . S
C264 N268 1.351 . S
C265 C263 1.387 . S
C265 C266 1.374 . S
C265 H280 0.931 . S
C266 C260 1.439 . S
C266 C265 1.374 . S
C266 H281 0.931 . S
Eu267 N258 2.600 . S
Eu267 N268 2.562 1_556 S
Eu267 O302 2.335 . S
Eu267 O305 2.372 . S
Eu267 O306 2.462 . S
Eu267 O307 2.373 . S
Eu267 O309 2.432 . S
Eu267 O310 2.291 . S
Eu267 C331 2.787 . S
N268 C264 1.351 . S
N268 Eu267 2.562 1_554 S
N268 C270 1.325 . S
C269 C263 1.404 . S
C269 C271 1.366 . S
C269 H277 0.930 . S
C270 N268 1.325 . S
C270 C271 1.416 . S
C270 H276 0.929 . S
C271 C269 1.366 . S
C271 C270 1.416 . S
C271 H273 0.930 . S
H272 C261 0.930 . S
H273 C271 0.930 . S
H274 C289 0.930 . S
H275 C296 0.930 . S
H276 C270 0.929 . S
H277 C269 0.930 . S
H278 C292 0.929 . S
H279 C259 0.931 . S
H280 C265 0.931 . S
H281 C266 0.931 . S
H282 C287 0.931 . S
H283 C262 0.929 . S
H284 C295 0.930 . S
N285 Eu256 2.600 . S
N285 C286 1.365 . S
N285 C289 1.319 . S
C286 N285 1.365 . S
C286 C288 1.405 . S
C286 C294 1.448 . S
C287 H282 0.931 . S
C287 C289 1.397 . S
C287 C290 1.367 . S
C288 C286 1.405 . S
C288 C290 1.403 . S
C288 C321 1.439 . S
C289 H274 0.930 . S
C289 N285 1.319 . S
C289 C287 1.397 . S
C290 C287 1.367 . S
C290 C288 1.403 . S
C290 H297 0.929 . S
N291 Eu256 2.562 . S
N291 C292 1.325 . S
N291 C294 1.351 . S
C292 H278 0.929 . S
C292 N291 1.325 . S
C292 C296 1.416 . S
C293 C294 1.430 . S
C293 C295 1.404 . S
C293 C322 1.387 . S
C294 C286 1.448 . S
C294 N291 1.351 . S
C294 C293 1.430 . S
C295 H284 0.930 . S
C295 C293 1.404 . S
C295 C296 1.366 . S
C296 H275 0.930 . S
C296 C292 1.416 . S
C296 C295 1.366 . S
H297 C290 0.929 . S
H298 C321 0.931 . S
H299 C322 0.931 . S
O300 Eu256 2.462 . S
O300 C320 1.252 . S
O301 Eu256 2.373 . S
O301 C312 1.249 . S
O302 Eu267 2.335 . S
O302 C312 1.264 . S
O303 Eu256 2.432 . S
O303 C320 1.268 . S
O304 Eu256 2.291 . S
O304 C319 1.255 . S
O305 Eu267 2.372 . S
O305 C319 1.257 . S
O306 Eu267 2.462 . S
O306 C331 1.252 . S
O307 Eu267 2.373 . S
O307 C323 1.249 . S
O308 Eu256 2.335 . S
O308 C323 1.264 . S
O309 Eu267 2.432 . S
O309 C331 1.268 . S
O310 Eu267 2.291 . S
O310 C330 1.255 . S
O311 Eu256 2.372 . S
O311 C330 1.257 . S
C312 O301 1.249 . S
C312 O302 1.264 . S
C313 C316 1.382 . S
C313 C318 1.390 . S
C313 C320 1.506 . S
C314 C315 1.398 . S
C314 C318 1.392 . S
C315 C314 1.398 . S
C315 C317 1.372 . S
C315 H332 0.931 . S
C316 C313 1.382 . S
C316 C317 1.390 . S
C316 H333 0.931 . S
C317 C315 1.372 . S
C317 C316 1.390 . S
C317 H334 0.929 . S
C318 C313 1.390 . S
C318 C314 1.392 . S
C318 H335 0.930 . S
C319 O304 1.255 . S
C319 O305 1.257 . S
C320 Eu256 2.787 . S
C320 O300 1.252 . S
C320 O303 1.268 . S
C320 C313 1.506 . S
C321 C288 1.439 . S
C321 H298 0.931 . S
C321 C322 1.374 . S
C322 C293 1.387 . S
C322 H299 0.931 . S
C322 C321 1.374 . S
C323 O307 1.249 . S
C323 O308 1.264 . S
C324 C327 1.382 . S
C324 C328 1.390 . S
C324 C331 1.506 1_554 S
C325 C326 1.398 . S
C325 C328 1.392 . S
C326 C325 1.398 . S
C326 C329 1.372 . S
C326 H336 0.931 . S
C327 C324 1.382 . S
C327 C329 1.390 . S
C327 H337 0.931 1_554 S
C328 C324 1.390 . S
C328 C325 1.392 . S
C328 H338 0.930 . S
C329 C326 1.372 . S
C329 C327 1.390 . S
C329 H339 0.929 . S
C330 O310 1.255 . S
C330 O311 1.257 . S
C331 Eu267 2.787 . S
C331 O306 1.252 . S
C331 O309 1.268 . S
C331 C324 1.506 1_556 S
H332 C315 0.931 . S
H333 C316 0.931 . S
H334 C317 0.929 . S
H335 C318 0.930 . S
H336 C326 0.931 . S
H337 C327 0.931 1_556 S
H338 C328 0.930 . S
H339 C329 0.929 . S
Eu340 N369 2.600 . S
Eu340 N375 2.562 . S
Eu340 O384 2.462 . S
Eu340 O385 2.373 1_455 S
Eu340 O387 2.432 . S
Eu340 O388 2.291 . S
Eu340 O392 2.335 . S
Eu340 O395 2.372 . S
Eu340 C404 2.787 . S
C341 N342 1.365 1_554 S
C341 C344 1.405 . S
C341 C348 1.448 . S
N342 C341 1.365 1_556 S
N342 C345 1.320 . S
N342 Eu351 2.600 1_455 S
C343 C345 1.400 . S
C343 C346 1.367 . S
C343 H363 0.931 . S
C344 C341 1.405 . S
C344 C346 1.403 1_554 S
C344 C350 1.439 . S
C345 N342 1.320 . S
C345 C343 1.400 . S
C345 H356 0.926 1_455 S
C346 C343 1.367 . S
C346 C344 1.403 1_556 S
C346 H367 0.929 . S
C347 C348 1.430 . S
C347 C349 1.387 . S
C347 C353 1.404 . S
C348 C341 1.448 . S
C348 C347 1.430 . S
C348 N352 1.351 . S
C349 C347 1.387 . S
C349 C350 1.374 . S
C349 H364 0.931 . S
C350 C344 1.439 . S
C350 C349 1.374 . S
C350 H365 0.931 . S
Eu351 N342 2.600 1_655 S
Eu351 N352 2.562 1_656 S
Eu351 O386 2.335 . S
Eu351 O389 2.372 . S
Eu351 O390 2.462 . S
Eu351 O391 2.373 1_655 S
Eu351 O393 2.432 . S
Eu351 O394 2.291 1_655 S
Eu351 C415 2.787 . S
N352 C348 1.351 . S
N352 Eu351 2.562 1_454 S
N352 C354 1.325 . S
C353 C347 1.404 . S
C353 C355 1.366 . S
C353 H361 0.930 . S
C354 N352 1.325 . S
C354 C355 1.416 . S
C354 H360 0.929 . S
C355 C353 1.366 . S
C355 C354 1.416 . S
C355 H357 0.930 . S
H356 C345 0.926 1_655 S
H357 C355 0.930 . S
H358 C373 0.930 . S
H359 C380 0.930 . S
H360 C354 0.929 . S
H361 C353 0.930 . S
H362 C376 0.929 . S
H363 C343 0.931 . S
H364 C349 0.931 . S
H365 C350 0.931 . S
H366 C371 0.931 . S
H367 C346 0.929 . S
H368 C379 0.930 . S
N369 Eu340 2.600 . S
N369 C370 1.365 1_455 S
N369 C373 1.319 . S
C370 N369 1.365 1_655 S
C370 C372 1.405 . S
C370 C378 1.448 . S
C371 H366 0.931 . S
C371 C373 1.397 . S
C371 C374 1.367 1_455 S
C372 C370 1.405 . S
C372 C374 1.403 . S
C372 C405 1.439 . S
C373 H358 0.930 . S
C373 N369 1.319 . S
C373 C371 1.397 . S
C374 C371 1.367 1_655 S
C374 C372 1.403 . S
C374 H381 0.929 . S
N375 Eu340 2.562 . S
N375 C376 1.325 . S
N375 C378 1.351 1_455 S
C376 H362 0.929 . S
C376 N375 1.325 . S
C376 C380 1.416 1_455 S
C377 C378 1.430 . S
C377 C379 1.404 . S
C377 C406 1.387 . S
C378 C370 1.448 . S
C378 N375 1.351 1_655 S
C378 C377 1.430 . S
C379 H368 0.930 . S
C379 C377 1.404 . S
C379 C380 1.366 . S
C380 H359 0.930 . S
C380 C376 1.416 1_655 S
C380 C379 1.366 . S
H381 C374 0.929 . S
H382 C405 0.931 . S
H383 C406 0.931 . S
O384 Eu340 2.462 . S
O384 C404 1.252 . S
O385 Eu340 2.373 1_655 S
O385 C396 1.249 . S
O386 Eu351 2.335 . S
O386 C396 1.264 . S
O387 Eu340 2.432 . S
O387 C404 1.268 . S
O388 Eu340 2.291 . S
O388 C403 1.255 . S
O389 Eu351 2.372 . S
O389 C403 1.257 1_655 S
O390 Eu351 2.462 . S
O390 C415 1.252 . S
O391 Eu351 2.373 1_455 S
O391 C407 1.249 . S
O392 Eu340 2.335 . S
O392 C407 1.264 . S
O393 Eu351 2.432 . S
O393 C415 1.268 . S
O394 Eu351 2.291 1_455 S
O394 C414 1.255 . S
O395 Eu340 2.372 . S
O395 C414 1.257 . S
C396 O385 1.249 . S
C396 O386 1.264 . S
C397 C400 1.382 . S
C397 C402 1.390 . S
C397 C404 1.506 . S
C398 C399 1.398 . S
C398 C402 1.392 . S
C399 C398 1.398 . S
C399 C401 1.372 . S
C399 H416 0.931 . S
C400 C397 1.382 . S
C400 C401 1.390 . S
C400 H417 0.931 . S
C401 C399 1.372 . S
C401 C400 1.390 . S
C401 H418 0.929 . S
C402 C397 1.390 . S
C402 C398 1.392 . S
C402 H419 0.930 . S
C403 O388 1.255 . S
C403 O389 1.257 1_455 S
C404 Eu340 2.787 . S
C404 O384 1.252 . S
C404 O387 1.268 . S
C404 C397 1.506 . S
C405 C372 1.439 . S
C405 H382 0.931 . S
C405 C406 1.374 . S
C406 C377 1.387 . S
C406 H383 0.931 . S
C406 C405 1.374 . S
C407 O391 1.249 . S
C407 O392 1.264 . S
C408 C411 1.382 . S
C408 C412 1.390 . S
C408 C415 1.506 1_554 S
C409 C410 1.398 . S
C409 C412 1.392 . S
C410 C409 1.398 . S
C410 C413 1.372 . S
C410 H420 0.931 . S
C411 C408 1.382 . S
C411 C413 1.390 . S
C411 H421 0.931 1_554 S
C412 C408 1.390 . S
C412 C409 1.392 . S
C412 H422 0.930 . S
C413 C410 1.372 . S
C413 C411 1.390 . S
C413 H423 0.929 . S
C414 O394 1.255 . S
C414 O395 1.257 . S
C415 Eu351 2.787 . S
C415 O390 1.252 . S
C415 O393 1.268 . S
C415 C408 1.506 1_556 S
H416 C399 0.931 . S
H417 C400 0.931 . S
H418 C401 0.929 . S
H419 C402 0.930 . S
H420 C410 0.931 . S
H421 C411 0.931 1_556 S
H422 C412 0.930 . S
H423 C413 0.929 . S
C424 C425 1.369 . S
C424 C426 1.419 . S
C424 H428 0.930 . S
C425 C424 1.369 . S
C425 C434 1.442 . S
C426 C424 1.419 . S
C426 C427 1.363 . S
C426 H429 0.929 . S
C427 C426 1.363 . S
C427 C433 1.428 1_545 S
H428 C424 0.930 . S
H429 C426 0.929 . S
S430 N431 1.613 . S
S430 N432 1.610 . S
N431 S430 1.613 . S
N431 C434 1.337 1_565 S
N432 S430 1.610 . S
N432 C433 1.351 . S
C433 C427 1.428 1_565 S
C433 N432 1.351 . S
C433 C434 1.432 1_565 S
C434 C425 1.442 . S
C434 N431 1.337 1_545 S
C434 C433 1.432 1_545 S
C435 C436 1.369 . S
C435 C437 1.419 . S
C435 H439 0.930 . S
C436 C435 1.369 . S
C436 C445 1.429 . S
C437 C435 1.419 . S
C437 C438 1.363 . S
C437 H440 0.929 . S
C438 C437 1.363 . S
C438 C444 1.428 . S
H439 C435 0.930 . S
H440 C437 0.929 . S
S441 N442 1.613 . S
S441 N443 1.610 . S
N442 S441 1.613 . S
N442 C445 1.350 . S
N443 S441 1.610 . S
N443 C444 1.351 . S
C444 C438 1.428 . S
C444 N443 1.351 . S
C444 C445 1.434 . S
C445 C436 1.429 . S
C445 N442 1.350 . S
C445 C444 1.434 . S
C446 C447 1.369 . S
C446 C448 1.419 . S
C446 H450 0.930 . S
C447 C446 1.369 . S
C447 C456 1.429 . S
C448 C446 1.419 . S
C448 C449 1.363 . S
C448 H451 0.929 . S
C449 C448 1.363 . S
C449 C455 1.428 . S
H450 C446 0.930 . S
H451 C448 0.929 . S
S452 N453 1.613 . S
S452 N454 1.610 . S
N453 S452 1.613 . S
N453 C456 1.350 . S
N454 S452 1.610 . S
N454 C455 1.351 . S
C455 C449 1.428 . S
C455 N454 1.351 . S
C455 C456 1.434 . S
C456 C447 1.429 . S
C456 N453 1.350 . S
C456 C455 1.434 . S
C457 C458 1.382 . S
C457 C459 1.417 1_455 S
C457 H461 0.918 1_455 S
C458 C457 1.382 . S
C458 C467 1.429 . S
C459 C457 1.417 1_655 S
C459 C460 1.363 1_655 S
C459 H462 0.929 . S
C460 C459 1.363 1_455 S
C460 C466 1.428 . S
H461 C457 0.918 1_655 S
H462 C459 0.929 . S
S463 N464 1.613 . S
S463 N465 1.610 . S
N464 S463 1.613 . S
N464 C467 1.350 . S
N465 S463 1.610 . S
N465 C466 1.351 . S
C466 C460 1.428 . S
C466 N465 1.351 . S
C466 C467 1.434 . S
C467 C458 1.429 . S
C467 N464 1.350 . S
C467 C466 1.434 . S
C468 C469 1.369 . S
C468 C470 1.419 1_565 S
C468 H472 0.930 1_565 S
C469 C468 1.369 . S
C469 C478 1.429 . S
C470 C468 1.419 1_545 S
C470 C471 1.361 1_545 S
C470 H473 0.929 . S
C471 C470 1.361 1_565 S
C471 C477 1.435 . S
H472 C468 0.930 1_545 S
H473 C470 0.929 . S
S474 N475 1.613 1_556 S
S474 N476 1.610 . S
N475 S474 1.613 1_554 S
N475 C478 1.350 . S
N476 S474 1.610 . S
N476 C477 1.351 1_556 S
C477 C471 1.435 . S
C477 N476 1.351 1_554 S
C477 C478 1.434 . S
C478 C469 1.429 . S
C478 N475 1.350 . S
C478 C477 1.434 . S
C479 C480 1.369 . S
C479 C481 1.419 . S
C479 H483 0.930 . S
C480 C479 1.369 . S
C480 C489 1.429 . S
C481 C479 1.419 . S
C481 C482 1.363 . S
C481 H484 0.929 1_554 S
C482 C481 1.363 . S
C482 C488 1.428 . S
H483 C479 0.930 . S
H484 C481 0.929 1_556 S
S485 N486 1.613 . S
S485 N487 1.610 . S
N486 S485 1.613 . S
N486 C489 1.350 . S
N487 S485 1.610 . S
N487 C488 1.351 . S
C488 C482 1.428 . S
C488 N487 1.351 . S
C488 C489 1.434 . S
C489 C480 1.429 . S
C489 N486 1.350 . S
C489 C488 1.434 . S
C490 C491 1.369 . S
C490 C492 1.419 . S
C490 H494 0.930 . S
C491 C490 1.369 . S
C491 C500 1.429 . S
C492 C490 1.419 . S
C492 C493 1.363 . S
C492 H495 0.929 . S
C493 C492 1.363 . S
C493 C499 1.428 . S
H494 C490 0.930 . S
H495 C492 0.929 . S
S496 N497 1.613 . S
S496 N498 1.610 1_554 S
N497 S496 1.613 . S
N497 C500 1.350 . S
N498 S496 1.610 1_556 S
N498 C499 1.351 1_556 S
C499 C493 1.428 . S
C499 N498 1.351 1_554 S
C499 C500 1.434 . S
C500 C491 1.429 . S
C500 N497 1.350 . S
C500 C499 1.434 . S
C501 C502 1.369 1_455 S
C501 C503 1.419 . S
C501 H505 0.930 . S
C502 C501 1.369 1_655 S
C502 C511 1.429 . S
C503 C501 1.419 . S
C503 C504 1.363 1_455 S
C503 H506 0.929 . S
C504 C503 1.363 1_655 S
C504 C510 1.428 . S
H505 C501 0.930 . S
H506 C503 0.929 . S
S507 N508 1.613 . S
S507 N509 1.610 1_554 S
N508 S507 1.613 . S
N508 C511 1.350 . S
N509 S507 1.610 1_556 S
N509 C510 1.351 1_556 S
C510 C504 1.428 . S
C510 N509 1.351 1_554 S
C510 C511 1.434 . S
C511 C502 1.429 . S
C511 N508 1.350 . S
C511 C510 1.434 . S
C512 C513 1.369 . S
C512 C514 1.419 1_455 S
C512 H516 0.930 . S
C513 C512 1.369 . S
C513 C522 1.429 . S
C514 C512 1.419 1_655 S
C514 C515 1.363 . S
C514 H517 0.929 . S
C515 C514 1.363 . S
C515 C521 1.428 1_655 S
H516 C512 0.930 . S
H517 C514 0.929 . S
S518 N519 1.613 . S
S518 N520 1.610 . S
N519 S518 1.613 . S
N519 C522 1.350 . S
N520 S518 1.610 . S
N520 C521 1.351 . S
C521 C515 1.428 1_455 S
C521 N520 1.351 . S
C521 C522 1.434 . S
C522 C513 1.429 . S
C522 N519 1.350 . S
C522 C521 1.434 . S
C523 C524 1.369 . S
C523 C525 1.419 1_545 S
C523 H527 0.930 1_545 S
C524 C523 1.369 . S
C524 C533 1.429 . S
C525 C523 1.419 1_565 S
C525 C526 1.363 1_565 S
C525 H528 0.929 . S
C526 C525 1.363 1_545 S
C526 C532 1.428 . S
H527 C523 0.930 1_565 S
H528 C525 0.929 . S
S529 N530 1.613 . S
S529 N531 1.610 . S
N530 S529 1.613 . S
N530 C533 1.350 . S
N531 S529 1.610 . S
N531 C532 1.351 . S
C532 C526 1.428 . S
C532 N531 1.351 . S
C532 C533 1.434 . S
C533 C524 1.429 . S
C533 N530 1.350 . S
C533 C532 1.434 . S
C534 C535 1.369 . S
C534 C536 1.419 . S
C534 H538 0.930 . S
C535 C534 1.369 . S
C535 C544 1.429 . S
C536 C534 1.419 . S
C536 C537 1.363 . S
C536 H539 0.929 . S
C537 C536 1.363 . S
C537 C543 1.428 . S
H538 C534 0.930 . S
H539 C536 0.929 . S
S540 N541 1.613 . S
S540 N542 1.610 . S
N541 S540 1.613 . S
N541 C544 1.350 . S
N542 S540 1.610 . S
N542 C543 1.351 . S
C543 C537 1.428 . S
C543 N542 1.351 . S
C543 C544 1.434 . S
C544 C535 1.429 . S
C544 N541 1.350 . S
C544 C543 1.434 . S
C545 C546 1.369 . S
C545 C547 1.419 . S
C545 H549 0.930 . S
C546 C545 1.369 . S
C546 C555 1.429 . S
C547 C545 1.419 . S
C547 C548 1.363 . S
C547 H550 0.929 . S
C548 C547 1.363 . S
C548 C554 1.428 . S
H549 C545 0.930 . S
H550 C547 0.929 . S
S551 N552 1.613 1_556 S
S551 N553 1.610 1_556 S
N552 S551 1.613 1_554 S
N552 C555 1.350 . S
N553 S551 1.610 1_554 S
N553 C554 1.351 . S
C554 C548 1.428 . S
C554 N553 1.351 . S
C554 C555 1.434 . S
C555 C546 1.429 . S
C555 N552 1.350 . S
C555 C554 1.434 . S
C556 C557 1.369 . S
C556 C558 1.419 1_655 S
C556 H560 0.930 . S
C557 C556 1.369 . S
C557 C566 1.429 . S
C558 C556 1.419 1_455 S
C558 C559 1.363 . S
C558 H561 0.929 . S
C559 C558 1.363 . S
C559 C565 1.428 . S
H560 C556 0.930 . S
H561 C558 0.929 . S
S562 N563 1.613 1_556 S
S562 N564 1.610 1_656 S
N563 S562 1.613 1_554 S
N563 C566 1.350 . S
N564 S562 1.610 1_454 S
N564 C565 1.351 . S
C565 C559 1.428 . S
C565 N564 1.351 . S
C565 C566 1.434 1_455 S
C566 C557 1.429 . S
C566 N563 1.350 . S
C566 C565 1.434 1_655 S
C567 C568 1.369 1_545 S
C567 C569 1.419 . S
C567 H571 0.930 . S
C568 C567 1.369 1_565 S
C568 C577 1.429 . S
C569 C567 1.419 . S
C569 C570 1.363 . S
C569 H572 0.929 . S
C570 C569 1.363 . S
C570 C576 1.428 1_545 S
H571 C567 0.930 . S
H572 C569 0.929 . S
S573 N574 1.613 . S
S573 N575 1.610 . S
N574 S573 1.613 . S
N574 C577 1.350 . S
N575 S573 1.610 . S
N575 C576 1.351 . S
C576 C570 1.428 1_565 S
C576 N575 1.351 . S
C576 C577 1.434 . S
C577 C568 1.429 . S
C577 N574 1.350 . S
C577 C576 1.434 . S
C578 C579 1.369 . S
C578 C580 1.419 . S
C578 H582 0.930 . S
C579 C578 1.369 . S
C579 C588 1.429 . S
C580 C578 1.419 . S
C580 C581 1.363 . S
C580 H583 0.929 . S
C581 C580 1.363 . S
C581 C587 1.428 . S
H582 C578 0.930 . S
H583 C580 0.929 . S
S584 N585 1.613 . S
S584 N586 1.610 . S
N585 S584 1.613 . S
N585 C588 1.350 . S
N586 S584 1.610 . S
N586 C587 1.351 . S
C587 C581 1.428 . S
C587 N586 1.351 . S
C587 C588 1.434 . S
C588 C579 1.429 . S
C588 N585 1.350 . S
C588 C587 1.434 . S
C589 C590 1.369 . S
C589 C591 1.419 . S
C589 H593 0.930 . S
C590 C589 1.369 . S
C590 C599 1.429 . S
C591 C589 1.419 . S
C591 C592 1.363 . S
C591 H594 0.929 . S
C592 C591 1.363 . S
C592 C598 1.428 . S
H593 C589 0.930 . S
H594 C591 0.929 . S
S595 N596 1.613 . S
S595 N597 1.610 . S
N596 S595 1.613 . S
N596 C599 1.350 . S
N597 S595 1.610 . S
N597 C598 1.351 . S
C598 C592 1.428 . S
C598 N597 1.351 . S
C598 C599 1.434 . S
C599 C590 1.429 . S
C599 N596 1.350 . S
C599 C598 1.434 . S
C600 C601 1.369 . S
C600 C602 1.419 . S
C600 H604 0.930 1_556 S
C601 C600 1.369 . S
C601 C610 1.429 . S
C602 C600 1.419 . S
C602 C603 1.363 . S
C602 H605 0.929 . S
C603 C602 1.363 . S
C603 C609 1.428 . S
H604 C600 0.930 1_554 S
H605 C602 0.929 . S
S606 N607 1.613 . S
S606 N608 1.610 . S
N607 S606 1.613 . S
N607 C610 1.350 . S
N608 S606 1.610 . S
N608 C609 1.351 . S
C609 C603 1.428 . S
C609 N608 1.351 . S
C609 C610 1.434 . S
C610 C601 1.429 . S
C610 N607 1.350 . S
C610 C609 1.434 . S
C611 C612 1.369 . S
C611 C613 1.419 . S
C611 H615 0.930 1_556 S
C612 C611 1.369 . S
C612 C621 1.429 . S
C613 C611 1.419 . S
C613 C614 1.363 . S
C613 H616 0.929 . S
C614 C613 1.363 . S
C614 C620 1.428 . S
H615 C611 0.930 1_554 S
H616 C613 0.929 . S
S617 N618 1.613 . S
S617 N619 1.610 . S
N618 S617 1.613 . S
N618 C621 1.350 . S
N619 S617 1.610 . S
N619 C620 1.351 . S
C620 C614 1.428 . S
C620 N619 1.351 . S
C620 C621 1.434 . S
C621 C612 1.429 . S
C621 N618 1.350 . S
C621 C620 1.434 . S
C622 C623 1.369 . S
C622 C624 1.419 . S
C622 H626 0.930 . S
C623 C622 1.369 . S
C623 C632 1.429 . S
C624 C622 1.419 . S
C624 C625 1.363 . S
C624 H627 0.929 . S
C625 C624 1.363 . S
C625 C631 1.428 . S
H626 C622 0.930 . S
H627 C624 0.929 . S
S628 N629 1.613 . S
S628 N630 1.610 . S
N629 S628 1.613 . S
N629 C632 1.350 . S
N630 S628 1.610 . S
N630 C631 1.351 . S
C631 C625 1.428 . S
C631 N630 1.351 . S
C631 C632 1.434 . S
C632 C623 1.429 . S
C632 N629 1.350 . S
C632 C631 1.434 . S
C633 C634 1.369 . S
C633 C635 1.419 . S
C633 H637 0.930 . S
C634 C633 1.369 . S
C634 C643 1.429 . S
C635 C633 1.419 . S
C635 C636 1.363 . S
C635 H638 0.929 . S
C636 C635 1.363 . S
C636 C642 1.428 . S
H637 C633 0.930 . S
H638 C635 0.929 . S
S639 N640 1.613 . S
S639 N641 1.610 . S
N640 S639 1.613 . S
N640 C643 1.350 . S
N641 S639 1.610 . S
N641 C642 1.351 . S
C642 C636 1.428 . S
C642 N641 1.351 . S
C642 C643 1.434 . S
C643 C634 1.429 . S
C643 N640 1.350 . S
C643 C642 1.434 . S
C644 C645 1.369 . S
C644 C646 1.419 . S
C644 H648 0.930 . S
C645 C644 1.369 . S
C645 C654 1.429 1_655 S
C646 C644 1.419 . S
C646 C647 1.363 . S
C646 H649 0.929 . S
C647 C646 1.363 . S
C647 C653 1.428 1_655 S
H648 C644 0.930 . S
H649 C646 0.929 . S
S650 N651 1.613 . S
S650 N652 1.610 . S
N651 S650 1.613 . S
N651 C654 1.350 . S
N652 S650 1.610 . S
N652 C653 1.351 . S
C653 C647 1.428 1_455 S
C653 N652 1.351 . S
C653 C654 1.434 . S
C654 C645 1.429 1_455 S
C654 N651 1.350 . S
C654 C653 1.434 . S
C655 C656 1.369 . S
C655 C657 1.419 . S
C655 H659 0.930 . S
C656 C655 1.369 . S
C656 C665 1.429 . S
C657 C655 1.419 . S
C657 C658 1.363 . S
C657 H660 0.929 . S
C658 C657 1.363 . S
C658 C664 1.428 . S
H659 C655 0.930 . S
H660 C657 0.929 . S
S661 N662 1.613 . S
S661 N663 1.610 . S
N662 S661 1.613 . S
N662 C665 1.350 . S
N663 S661 1.610 . S
N663 C664 1.351 . S
C664 C658 1.428 . S
C664 N663 1.351 . S
C664 C665 1.434 . S
C665 C656 1.429 . S
C665 N662 1.350 . S
C665 C664 1.434 . S
C666 C667 1.369 . S
C666 C668 1.419 . S
C666 H670 0.930 . S
C667 C666 1.369 . S
C667 C676 1.429 . S
C668 C666 1.419 . S
C668 C669 1.363 . S
C668 H671 0.929 . S
C669 C668 1.363 . S
C669 C675 1.428 . S
H670 C666 0.930 . S
H671 C668 0.929 . S
S672 N673 1.613 . S
S672 N674 1.610 . S
N673 S672 1.613 . S
N673 C676 1.350 . S
N674 S672 1.610 . S
N674 C675 1.351 . S
C675 C669 1.428 . S
C675 N674 1.351 . S
C675 C676 1.434 . S
C676 C667 1.429 . S
C676 N673 1.350 . S
C676 C675 1.434 . S
C677 C678 1.369 . S
C677 C679 1.419 . S
C677 H681 0.930 . S
C678 C677 1.369 . S
C678 C687 1.429 . S
C679 C677 1.419 . S
C679 C680 1.363 . S
C679 H682 0.929 . S
C680 C679 1.363 . S
C680 C686 1.428 . S
H681 C677 0.930 . S
H682 C679 0.929 . S
S683 N684 1.613 . S
S683 N685 1.610 . S
N684 S683 1.613 . S
N684 C687 1.350 . S
N685 S683 1.610 . S
N685 C686 1.351 . S
C686 C680 1.428 . S
C686 N685 1.351 . S
C686 C687 1.434 . S
C687 C678 1.429 . S
C687 N684 1.350 . S
C687 C686 1.434 . S
C425 C76 1.974 . S
C427 C151 2.174 . S
C438 C228 2.181 . S
C436 C87 1.961 . S
C449 C319 2.178 . S
C447 C54 1.965 . S
C460 C403 2.166 . S
C458 C65 1.958 . S
C471 C162 2.171 1_564 S
C469 C32 1.971 . S
C480 C43 1.974 . S
C482 C239 2.179 1_554 S
C491 C10 1.971 . S
C493 C330 2.178 1_554 S
C502 C21 1.965 . S
C504 C414 2.167 1_654 S
C515 C146 0.764 . S
C513 C60 0.752 . S
C526 C241 0.740 1_545 S
C524 C71 0.747 . S
C537 C314 0.757 . S
C535 C82 0.763 . S
C546 C49 0.735 . S
C548 C398 0.745 . S
C557 C16 0.762 . S
C559 C157 0.753 . S
C570 C230 0.744 . S
C568 C27 0.755 . S
C581 C325 0.764 . S
C579 C38 0.772 . S
C590 C5 0.745 . S
C592 C409 0.739 . S
C601 C59 2.028 . S
C603 C155 2.285 . S
C612 C70 2.038 . S
C614 C246 2.335 . S
C625 C323 2.299 . S
C623 C81 2.038 . S
C636 C407 2.305 . S
C634 C48 2.037 . S
C645 C15 2.015 . S
C647 C144 2.288 . S
C658 C235 2.334 1_565 S
C656 C26 2.024 . S
C669 C312 2.298 . S
C667 C37 2.035 . S
C678 C4 2.030 . S
C680 C396 2.306 . S
