# Generated by pormake.
# Topology csq, (4,8)-cn, num edge types: 1
# Building blocks:
#     Node 0, Type 0, BuildingBlock: AZAVOO_clean_linker_0, # of connection points: 4
#     Node 1, Type 0, BuildingBlock: AZAVOO_clean_linker_0, # of connection points: 4
#     Node 2, Type 0, BuildingBlock: AZAVOO_clean_linker_0, # of connection points: 4
#     Node 3, Type 0, BuildingBlock: AZAVOO_clean_linker_0, # of connection points: 4
#     Node 4, Type 0, BuildingBlock: AZAVOO_clean_linker_0, # of connection points: 4
#     Node 5, Type 0, BuildingBlock: AZAVOO_clean_linker_0, # of connection points: 4
#     Node 6, Type 1, BuildingBlock: TAGTUT_clean_sbu_3, # of connection points: 8
#     Node 7, Type 1, BuildingBlock: TAGTUT_clean_sbu_3, # of connection points: 8
#     Node 8, Type 1, BuildingBlock: TAGTUT_clean_sbu_3, # of connection points: 8
#     Edge 9, Type (0, 1), BuildingBlock: OJICUG_clean_linker_0, # of connection points: 2
#     Edge 10, Type (0, 1), BuildingBlock: OJICUG_clean_linker_0, # of connection points: 2
#     Edge 11, Type (0, 1), BuildingBlock: OJICUG_clean_linker_0, # of connection points: 2
#     Edge 12, Type (0, 1), BuildingBlock: OJICUG_clean_linker_0, # of connection points: 2
#     Edge 13, Type (0, 1), BuildingBlock: OJICUG_clean_linker_0, # of connection points: 2
#     Edge 14, Type (0, 1), BuildingBlock: OJICUG_clean_linker_0, # of connection points: 2
#     Edge 15, Type (0, 1), BuildingBlock: OJICUG_clean_linker_0, # of connection points: 2
#     Edge 16, Type (0, 1), BuildingBlock: OJICUG_clean_linker_0, # of connection points: 2
#     Edge 17, Type (0, 1), BuildingBlock: OJICUG_clean_linker_0, # of connection points: 2
#     Edge 18, Type (0, 1), BuildingBlock: OJICUG_clean_linker_0, # of connection points: 2
#     Edge 19, Type (0, 1), BuildingBlock: OJICUG_clean_linker_0, # of connection points: 2
#     Edge 20, Type (0, 1), BuildingBlock: OJICUG_clean_linker_0, # of connection points: 2
#     Edge 21, Type (0, 1), BuildingBlock: OJICUG_clean_linker_0, # of connection points: 2
#     Edge 22, Type (0, 1), BuildingBlock: OJICUG_clean_linker_0, # of connection points: 2
#     Edge 23, Type (0, 1), BuildingBlock: OJICUG_clean_linker_0, # of connection points: 2
#     Edge 24, Type (0, 1), BuildingBlock: OJICUG_clean_linker_0, # of connection points: 2
#     Edge 25, Type (0, 1), BuildingBlock: OJICUG_clean_linker_0, # of connection points: 2
#     Edge 26, Type (0, 1), BuildingBlock: OJICUG_clean_linker_0, # of connection points: 2
#     Edge 27, Type (0, 1), BuildingBlock: OJICUG_clean_linker_0, # of connection points: 2
#     Edge 28, Type (0, 1), BuildingBlock: OJICUG_clean_linker_0, # of connection points: 2
#     Edge 29, Type (0, 1), BuildingBlock: OJICUG_clean_linker_0, # of connection points: 2
#     Edge 30, Type (0, 1), BuildingBlock: OJICUG_clean_linker_0, # of connection points: 2
#     Edge 31, Type (0, 1), BuildingBlock: OJICUG_clean_linker_0, # of connection points: 2
#     Edge 32, Type (0, 1), BuildingBlock: OJICUG_clean_linker_0, # of connection points: 2
# Relax obj value: 0.150
# Max RMSD: 0.242
# Mean RMSD: 0.201
data_MOF--net-csq--node1-TAGTUT_clean_sbu_3--node2-AZAVOO_clean_linker_0--edge1-OJICUG_clean_linker_0
_symmetry_space_group_name_H-M    P1
_symmetry_Int_Tables_number       1
_symmetry_cell_setting            triclinic
loop_
_symmetry_equiv_pos_as_xyz
'x, y, z'
_cell_length_a     45.190524
_cell_length_b     44.552986
_cell_length_c     18.239664
_cell_angle_alpha  92.823747
_cell_angle_beta   92.906432
_cell_angle_gamma 120.17488
loop_
_atom_site_label
_atom_site_type_symbol
_atom_site_fract_x
_atom_site_fract_y
_atom_site_fract_z
_atom_type_partial_charge
H0 H 0.13546 0.47908 0.62353 0.0
H1 H 0.42772 0.50269 0.10955 0.0
H2 H 0.13395 0.4438 0.20851 0.0
H3 H 0.09189 0.44743 0.28052 0.0
H4 H 0.16193 0.55793 0.33058 0.0
H5 H 0.20272 0.5544 0.25349 0.0
H6 H 0.17015 0.44326 0.34066 0.0
H7 H 0.14913 0.44758 0.45939 0.0
H8 H 0.22941 0.55581 0.4953 0.0
H9 H 0.25008 0.55111 0.37605 0.0
H10 H 0.22179 0.43027 0.32186 0.0
H11 H 0.25242 0.40628 0.38808 0.0
H12 H 0.34538 0.50704 0.40375 0.0
H13 H 0.31439 0.53099 0.33793 0.0
H14 H 0.26489 0.43224 0.18883 0.0
H15 H 0.31466 0.42605 0.16754 0.0
H16 H 0.37649 0.53729 0.15416 0.0
H17 H 0.32652 0.54316 0.17656 0.0
H18 H 0.22054 0.42735 0.05706 0.0
H19 H 0.25728 0.41706 0.97959 0.0
H20 H 0.32173 0.52809 0.96724 0.0
H21 H 0.28499 0.53803 0.04693 0.0
H22 H 0.15705 0.42326 0.10709 0.0
H23 H 0.1083 0.40268 0.01394 0.0
H24 H 0.15381 0.50578 0.93861 0.0
H25 H 0.20207 0.52661 0.03403 0.0
O26 O 0.14504 0.47762 0.57814 0.0
O27 O 0.18787 0.53262 0.59607 0.0
O28 O 0.37799 0.44944 0.14716 0.0
O29 O 0.40804 0.50464 0.121 0.0
C30 C 0.2014 0.49464 0.212 0.0
C31 C 0.22177 0.49523 0.27424 0.0
C32 C 0.25074 0.49215 0.26458 0.0
C33 C 0.2613 0.49146 0.19351 0.0
C34 C 0.2403 0.48935 0.13105 0.0
C35 C 0.20922 0.48886 0.1403 0.0
C36 C 0.17148 0.49885 0.22521 0.0
C37 C 0.13929 0.46921 0.23041 0.0
C38 C 0.11562 0.47122 0.2737 0.0
C39 C 0.12408 0.50273 0.31389 0.0
C40 C 0.15451 0.53318 0.30089 0.0
C41 C 0.17784 0.53127 0.2562 0.0
C42 C 0.21146 0.49694 0.3497 0.0
C43 C 0.18333 0.46779 0.37459 0.0
C44 C 0.17132 0.47037 0.44232 0.0
C45 C 0.18738 0.50214 0.48655 0.0
C46 C 0.21634 0.531 0.46241 0.0
C47 C 0.22832 0.52837 0.39459 0.0
C48 C 0.26598 0.48231 0.32532 0.0
C49 C 0.24836 0.44754 0.34267 0.0
C50 C 0.26593 0.43376 0.37952 0.0
C51 C 0.30132 0.45465 0.39886 0.0
C52 C 0.31819 0.4903 0.38759 0.0
C53 C 0.3005 0.50415 0.35134 0.0
C54 C 0.2921 0.48811 0.18381 0.0
C55 C 0.28928 0.45526 0.18191 0.0
C56 C 0.31773 0.45181 0.16965 0.0
C57 C 0.34948 0.48117 0.15861 0.0
C58 C 0.35235 0.51415 0.16196 0.0
C59 C 0.32391 0.51759 0.17483 0.0
C60 C 0.25008 0.48341 0.05779 0.0
C61 C 0.24137 0.44934 0.03409 0.0
C62 C 0.26286 0.44359 0.99052 0.0
C63 C 0.29314 0.47186 0.96894 0.0
C64 C 0.29919 0.50581 0.98474 0.0
C65 C 0.27767 0.51151 0.02858 0.0
C66 C 0.18259 0.47653 0.07798 0.0
C67 C 0.15659 0.44133 0.07006 0.0
C68 C 0.12896 0.42957 0.01686 0.0
C69 C 0.12751 0.45266 0.96938 0.0
C70 C 0.15466 0.48748 0.97438 0.0
C71 C 0.18202 0.49943 0.02882 0.0
C72 C 0.17362 0.50516 0.55699 0.0
C73 C 0.37932 0.47736 0.14229 0.0
H74 H 0.78555 0.29434 0.60345 0.0
H75 H 0.6222 0.00263 0.9488 0.0
H76 H 0.78177 0.31864 0.18065 0.0
H77 H 0.82349 0.37015 0.26126 0.0
H78 H 0.88674 0.32391 0.29355 0.0
H79 H 0.84557 0.27307 0.21069 0.0
H80 H 0.74052 0.26605 0.28846 0.0
H81 H 0.75321 0.2822 0.4214 0.0
H82 H 0.81522 0.23343 0.43046 0.0
H83 H 0.80249 0.21772 0.29744 0.0
H84 H 0.67312 0.17962 0.1951 0.0
H85 H 0.63094 0.12557 0.23944 0.0
H86 H 0.71183 0.10478 0.3078 0.0
H87 H 0.75305 0.15703 0.25296 0.0
H88 H 0.66498 0.16671 0.04755 0.0
H89 H 0.62163 0.1076 0.9979 0.0
H90 H 0.6964 0.07488 0.02916 0.0
H91 H 0.73925 0.13393 0.08022 0.0
H92 H 0.70624 0.2266 0.95875 0.0
H93 H 0.66897 0.1844 0.85731 0.0
H94 H 0.73256 0.13732 0.86367 0.0
H95 H 0.77056 0.18096 0.961 0.0
H96 H 0.76104 0.30167 0.04669 0.0
H97 H 0.78714 0.34513 0.95717 0.0
H98 H 0.85148 0.30266 0.90193 0.0
H99 H 0.82517 0.25939 0.99131 0.0
O100 O 0.78053 0.28737 0.55112 0.0
O101 O 0.81165 0.26144 0.55293 0.0
O102 O 0.60066 0.04379 0.95664 0.0
O103 O 0.63853 0.02605 0.96959 0.0
C104 C 0.78259 0.25821 0.15485 0.0
C105 C 0.7639 0.23224 0.20266 0.0
C106 C 0.73829 0.19879 0.17335 0.0
C107 C 0.73176 0.19063 0.09667 0.0
C108 C 0.74979 0.21649 0.04848 0.0
C109 C 0.77467 0.25064 0.07743 0.0
C110 C 0.81102 0.29246 0.18815 0.0
C111 C 0.8053 0.32026 0.20254 0.0
C112 C 0.82884 0.34935 0.24959 0.0
C113 C 0.85806 0.35071 0.28436 0.0
C114 C 0.86422 0.3233 0.2682 0.0
C115 C 0.84107 0.2946 0.21995 0.0
C116 C 0.77039 0.24052 0.28369 0.0
C117 C 0.75666 0.25872 0.31945 0.0
C118 C 0.76402 0.26796 0.3953 0.0
C119 C 0.78523 0.25909 0.43661 0.0
C120 C 0.79875 0.2406 0.40037 0.0
C121 C 0.79139 0.23144 0.32452 0.0
C122 C 0.71604 0.17223 0.22132 0.0
C123 C 0.68172 0.16363 0.22101 0.0
C124 C 0.65759 0.13252 0.24679 0.0
C125 C 0.6676 0.11019 0.27738 0.0
C126 C 0.70274 0.1205 0.28273 0.0
C127 C 0.72666 0.15096 0.25355 0.0
C128 C 0.7053 0.1546 0.06679 0.0
C129 C 0.6719 0.14671 0.04364 0.0
C130 C 0.64722 0.11294 0.01532 0.0
C131 C 0.65566 0.08658 0.00885 0.0
C132 C 0.68909 0.09459 0.03295 0.0
C133 C 0.71362 0.12826 0.06211 0.0
C134 C 0.74074 0.20643 0.96818 0.0
C135 C 0.71339 0.20867 0.93471 0.0
C136 C 0.69154 0.1838 0.87796 0.0
C137 C 0.69663 0.15619 0.85467 0.0
C138 C 0.72737 0.15777 0.88018 0.0
C139 C 0.74955 0.1831 0.93574 0.0
C140 C 0.79179 0.27795 0.02642 0.0
C141 C 0.78109 0.30213 0.01581 0.0
C142 C 0.79581 0.32672 0.96435 0.0
C143 C 0.82119 0.32719 0.92207 0.0
C144 C 0.83156 0.30261 0.93262 0.0
C145 C 0.81694 0.27819 0.9843 0.0
C146 C 0.79332 0.26928 0.51702 0.0
C147 C 0.62985 0.05091 0.97682 0.0
H148 H 0.63465 0.88983 0.72144 0.0
H149 H 0.48195 0.52033 0.92127 0.0
H150 H 0.58351 0.83661 0.07301 0.0
H151 H 0.58261 0.88183 0.00467 0.0
H152 H 0.47169 0.82095 0.97644 0.0
H153 H 0.47307 0.77524 0.04207 0.0
H154 H 0.60389 0.79835 0.96085 0.0
H155 H 0.62681 0.83929 0.86579 0.0
H156 H 0.52363 0.81319 0.79138 0.0
H157 H 0.50117 0.77322 0.88801 0.0
H158 H 0.57972 0.70729 0.94271 0.0
H159 H 0.57581 0.67273 0.83108 0.0
H160 H 0.49331 0.68531 0.73677 0.0
H161 H 0.49449 0.71574 0.85187 0.0
H162 H 0.55793 0.67801 0.10316 0.0
H163 H 0.55256 0.62077 0.08257 0.0
H164 H 0.468 0.59 0.9175 0.0
H165 H 0.47315 0.64714 0.93986 0.0
H166 H 0.54263 0.71357 0.23721 0.0
H167 H 0.52336 0.66594 0.31757 0.0
H168 H 0.43107 0.60439 0.17164 0.0
H169 H 0.45024 0.65251 0.09224 0.0
H170 H 0.56857 0.80009 0.20388 0.0
H171 H 0.56428 0.82509 0.32149 0.0
H172 H 0.45636 0.74698 0.31191 0.0
H173 H 0.46071 0.72306 0.19163 0.0
O174 O 0.62507 0.87324 0.75808 0.0
O175 O 0.57153 0.85942 0.72325 0.0
O176 O 0.52582 0.55909 0.02042 0.0
O177 O 0.48386 0.54278 0.93149 0.0
C178 C 0.5296 0.76948 0.05796 0.0
C179 C 0.53741 0.75887 0.99088 0.0
C180 C 0.53247 0.72527 0.9794 0.0
C181 C 0.52004 0.70195 0.03499 0.0
C182 C 0.51242 0.71242 0.1027 0.0
C183 C 0.51818 0.74673 0.11507 0.0
C184 C 0.52843 0.80221 0.06077 0.0
C185 C 0.55893 0.83394 0.05587 0.0
C186 C 0.55836 0.85961 0.01562 0.0
C187 C 0.52712 0.85415 0.98188 0.0
C188 C 0.49627 0.82518 -0.00113 0.0
C189 C 0.49693 0.79941 0.03833 0.0
C190 C 0.55094 0.78306 0.93166 0.0
C191 C 0.58632 0.80162 0.92405 0.0
C192 C 0.59932 0.82497 0.86974 0.0
C193 C 0.57705 0.82978 0.82147 0.0
C194 C 0.5415 0.81046 0.82828 0.0
C195 C 0.5286 0.78752 0.88323 0.0
C196 C 0.53689 0.71326 0.90593 0.0
C197 C 0.56134 0.70316 0.89722 0.0
C198 C 0.55947 0.684 0.8326 0.0
C199 C 0.5335 0.67544 0.77572 0.0
C200 C 0.51296 0.69073 0.78039 0.0
C201 C 0.51379 0.7084 0.84604 0.0
C202 C 0.51597 0.66674 0.02301 0.0
C203 C 0.53808 0.65877 0.06302 0.0
C204 C 0.53502 0.6261 0.05098 0.0
C205 C 0.50989 0.60084 0.99825 0.0
C206 C 0.48764 0.60886 0.95845 0.0
C207 C 0.49056 0.64149 0.971 0.0
C208 C 0.4979 0.68662 0.15881 0.0
C209 C 0.51777 0.69029 0.22381 0.0
C210 C 0.50671 0.66295 0.26952 0.0
C211 C 0.47572 0.63127 0.25069 0.0
C212 C 0.45514 0.6283 0.18728 0.0
C213 C 0.46598 0.65585 0.14221 0.0
C214 C 0.51491 0.76 0.18868 0.0
C215 C 0.54399 0.78828 0.22723 0.0
C216 C 0.54158 0.80217 0.29531 0.0
C217 C 0.50998 0.78796 0.32687 0.0
C218 C 0.48104 0.75874 0.28916 0.0
C219 C 0.48347 0.74497 0.2205 0.0
C220 C 0.5909 0.85496 0.76452 0.0
C221 C 0.50706 0.56635 0.98436 0.0
H222 H 0.79366 0.61942 0.55743 0.0
H223 H 0.9667 0.63525 0.92455 0.0
H224 H 0.70531 0.50468 0.13246 0.0
H225 H 0.65694 0.4919 0.20483 0.0
H226 H 0.69315 0.60208 0.23976 0.0
H227 H 0.7418 0.61461 0.16756 0.0
H228 H 0.76666 0.5461 0.265 0.0
H229 H 0.77259 0.56705 0.3945 0.0
H230 H 0.82989 0.67339 0.33655 0.0
H231 H 0.82346 0.65207 0.20714 0.0
H232 H 0.83519 0.5544 0.20911 0.0
H233 H 0.89253 0.56931 0.25832 0.0
H234 H 0.93599 0.66798 0.16256 0.0
H235 H 0.87783 0.65261 0.11219 0.0
H236 H 0.83766 0.5283 0.05276 0.0
H237 H 0.88944 0.53171 0.00879 0.0
H238 H 0.9145 0.62841 0.91582 0.0
H239 H 0.86333 0.6251 0.96217 0.0
H240 H 0.77018 0.49356 0.95431 0.0
H241 H 0.7998 0.48285 0.85745 0.0
H242 H 0.82978 0.58436 0.78351 0.0
H243 H 0.79841 0.59345 0.8771 0.0
H244 H 0.70919 0.49183 0.95969 0.0
H245 H 0.65521 0.47608 0.88675 0.0
H246 H 0.67427 0.58049 0.93689 0.0
H247 H 0.72836 0.59633 0.00519 0.0
O248 O 0.79156 0.6117 0.50591 0.0
O249 O 0.82083 0.66588 0.47317 0.0
O250 O 0.9407 0.55651 0.92989 0.0
O251 O 0.96535 0.61296 0.91719 0.0
C252 C 0.75819 0.56783 0.10731 0.0
C253 C 0.79064 0.58489 0.14802 0.0
C254 C 0.81959 0.58909 0.11421 0.0
C255 C 0.81628 0.57513 0.04143 0.0
C256 C 0.78406 0.55859 -0.00014 0.0
C257 C 0.75512 0.5559 0.03215 0.0
C258 C 0.72709 0.56054 0.14487 0.0
C259 C 0.70251 0.52601 0.15485 0.0
C260 C 0.6749 0.5188 0.19624 0.0
C261 C 0.67125 0.546 0.22836 0.0
C262 C 0.69552 0.58059 0.21673 0.0
C263 C 0.72315 0.58778 0.17513 0.0
C264 C 0.79442 0.59758 0.22672 0.0
C265 C 0.78034 0.5739 0.2804 0.0
C266 C 0.78384 0.58595 0.35432 0.0
C267 C 0.80167 0.6219 0.37589 0.0
C268 C 0.81596 0.64554 0.32184 0.0
C269 C 0.81238 0.63345 0.24793 0.0
C270 C 0.85263 0.60256 0.15785 0.0
C271 C 0.85693 0.57956 0.2002 0.0
C272 C 0.88961 0.58775 0.22662 0.0
C273 C 0.91835 0.61915 0.21141 0.0
C274 C 0.91401 0.64332 0.17305 0.0
C275 C 0.88105 0.63487 0.14569 0.0
C276 C 0.84674 0.57639 0.01038 0.0
C277 C 0.85443 0.55016 0.02282 0.0
C278 C 0.88404 0.55223 0.99771 0.0
C279 C 0.90665 0.58066 0.95986 0.0
C280 C 0.89844 0.6066 0.94644 0.0
C281 C 0.86889 0.60459 0.97203 0.0
C282 C 0.78249 0.54451 0.92345 0.0
C283 C 0.78108 0.51235 0.91376 0.0
C284 C 0.79904 0.50677 0.85953 0.0
C285 C 0.81884 0.53339 0.81452 0.0
C286 C 0.81525 0.56312 0.81686 0.0
C287 C 0.79679 0.56835 0.87027 0.0
C288 C 0.7229 0.54537 0.98656 0.0
C289 C 0.70178 0.51128 0.95382 0.0
C290 C 0.67077 0.5022 0.91347 0.0
C291 C 0.66067 0.52713 0.90586 0.0
C292 C 0.6816 0.56086 0.94068 0.0
C293 C 0.71251 0.56996 0.97976 0.0
C294 C 0.80534 0.63462 0.45446 0.0
C295 C 0.93842 0.5827 0.93448 0.0
H296 H 0.34003 0.8912 0.5935 0.0
H297 H 0.00914 0.60426 0.07951 0.0
H298 H 0.27808 0.89391 0.20647 0.0
H299 H 0.33132 0.92714 0.28343 0.0
H300 H 0.35806 0.84855 0.22814 0.0
H301 H 0.3031 0.81443 0.15448 0.0
H302 H 0.24779 0.86291 0.32956 0.0
H303 H 0.28382 0.88215 0.44638 0.0
H304 H 0.30288 0.79678 0.41284 0.0
H305 H 0.26708 0.7781 0.29561 0.0
H306 H 0.18469 0.80622 0.34807 0.0
H307 H 0.1681 0.77911 0.46366 0.0
H308 H 0.1651 0.68701 0.36528 0.0
H309 H 0.1847 0.7157 0.25327 0.0
H310 H 0.12452 0.7696 0.19388 0.0
H311 H 0.0647 0.72192 0.17677 0.0
H312 H 0.09802 0.65335 0.08624 0.0
H313 H 0.15774 0.70116 0.10446 0.0
H314 H 0.13854 0.77961 0.02313 0.0
H315 H 0.09835 0.73144 0.93334 0.0
H316 H 0.17433 0.70089 0.90903 0.0
H317 H 0.21351 0.74778 0.0004 0.0
H318 H 0.23395 0.87471 0.07406 0.0
H319 H 0.27216 0.91815 0.99424 0.0
H320 H 0.30104 0.84558 0.90768 0.0
H321 H 0.26417 0.80285 0.99018 0.0
O322 O 0.32539 0.8828 0.54781 0.0
O323 O 0.33074 0.83596 0.53281 0.0
O324 O 0.01691 0.6604 0.13052 0.0
O325 O 0.03266 0.62324 0.08867 0.0
C326 C 0.24945 0.82482 0.16841 0.0
C327 C 0.23426 0.80848 0.23163 0.0
C328 C 0.20003 0.78087 0.22565 0.0
C329 C 0.18128 0.76866 0.15587 0.0
C330 C 0.19666 0.78485 0.09195 0.0
C331 C 0.2304 0.81398 0.09903 0.0
C332 C 0.28644 0.85148 0.17661 0.0
C333 C 0.29629 0.88483 0.20763 0.0
C334 C 0.32699 0.90376 0.25237 0.0
C335 C 0.34862 0.88985 0.26507 0.0
C336 C 0.34137 0.85933 0.22252 0.0
C337 C 0.3103 0.84014 0.17876 0.0
C338 C 0.25504 0.81927 0.3041 0.0
C339 C 0.25976 0.84841 0.34766 0.0
C340 C 0.28034 0.85933 0.41432 0.0
C341 C 0.29625 0.84102 0.43895 0.0
C342 C 0.29096 0.81144 0.39555 0.0
C343 C 0.27053 0.80069 0.32867 0.0
C344 C 0.18551 0.76274 0.2921 0.0
C345 C 0.18054 0.78022 0.352 0.0
C346 C 0.17108 0.76466 0.41803 0.0
C347 C 0.16554 0.7309 0.4247 0.0
C348 C 0.17012 0.7134 0.36367 0.0
C349 C 0.18039 0.72934 0.29852 0.0
C350 C 0.14538 0.73889 0.14988 0.0
C351 C 0.11884 0.74417 0.17096 0.0
C352 C 0.08471 0.71694 0.16084 0.0
C353 C 0.07655 0.68387 0.12961 0.0
C354 C 0.10337 0.67849 0.11019 0.0
C355 C 0.1375 0.70575 0.12047 0.0
C356 C 0.17906 0.76732 0.01844 0.0
C357 C 0.1471 0.76358 0.99563 0.0
C358 C 0.12409 0.73593 0.94461 0.0
C359 C 0.13301 0.712 0.91562 0.0
C360 C 0.16662 0.71862 0.93152 0.0
C361 C 0.18937 0.74594 0.9827 0.0
C362 C 0.24565 0.83528 0.03679 0.0
C363 C 0.24755 0.86771 0.0359 0.0
C364 C 0.26941 0.89251 0.9907 0.0
C365 C 0.28912 0.88493 0.94462 0.0
C366 C 0.2855 0.85166 0.94187 0.0
C367 C 0.26425 0.82713 0.98845 0.0
C368 C 0.31844 0.85294 0.50936 0.0
C369 C 0.04023 0.65521 0.11657 0.0
H370 H 0.53743 0.35415 0.8035 0.0
H371 H 0.50547 0.03332 0.21816 0.0
H372 H 0.51102 0.31386 0.18735 0.0
H373 H 0.50294 0.35046 0.10463 0.0
H374 H 0.39988 0.2659 0.03692 0.0
H375 H 0.40951 0.22872 0.11686 0.0
H376 H 0.54705 0.29493 0.07697 0.0
H377 H 0.55359 0.32641 0.96695 0.0
H378 H 0.4495 0.24956 0.88436 0.0
H379 H 0.44326 0.21858 0.99484 0.0
H380 H 0.56939 0.23373 0.10857 0.0
H381 H 0.59217 0.21592 0.00575 0.0
H382 H 0.4899 0.15917 0.8937 0.0
H383 H 0.46762 0.17564 0.99648 0.0
H384 H 0.55824 0.20307 0.23482 0.0
H385 H 0.571 0.15632 0.25088 0.0
H386 H 0.46699 0.08024 0.16604 0.0
H387 H 0.45481 0.12726 0.14938 0.0
H388 H 0.52709 0.216 0.36029 0.0
H389 H 0.52448 0.17278 0.44178 0.0
H390 H 0.42021 0.10104 0.35261 0.0
H391 H 0.423 0.14445 0.27155 0.0
H392 H 0.50585 0.26606 0.35991 0.0
H393 H 0.48743 0.29185 0.45431 0.0
H394 H 0.38364 0.23475 0.34958 0.0
H395 H 0.40294 0.20971 0.25354 0.0
O396 O 0.5347 0.34078 0.84547 0.0
O397 O 0.48185 0.29936 0.80324 0.0
O398 O 0.55596 0.09257 0.2428 0.0
O399 O 0.50145 0.05234 0.21018 0.0
C400 C 0.47317 0.24351 0.17024 0.0
C401 C 0.48993 0.23712 0.1134 0.0
C402 C 0.50218 0.21402 0.12196 0.0
C403 C 0.49702 0.19636 0.18614 0.0
C404 C 0.48098 0.20315 0.24397 0.0
C405 C 0.46915 0.22686 0.23622 0.0
C406 C 0.46109 0.26846 0.15767 0.0
C407 C 0.486 0.30381 0.15786 0.0
C408 C 0.48135 0.32467 0.10926 0.0
C409 C 0.45111 0.31088 0.06133 0.0
C410 C 0.42405 0.27706 0.07046 0.0
C411 C 0.42906 0.25599 0.11813 0.0
C412 C 0.49461 0.25472 0.04404 0.0
C413 C 0.52581 0.28486 0.03475 0.0
C414 C 0.52941 0.30282 0.972 0.0
C415 C 0.50196 0.29065 0.91712 0.0
C416 C 0.47109 0.25975 0.9257 0.0
C417 C 0.46746 0.24197 0.98865 0.0
C418 C 0.51689 0.20555 0.05967 0.0
C419 C 0.55221 0.21772 0.06119 0.0
C420 C 0.56521 0.20812 0.0023 0.0
C421 C 0.54298 0.18691 0.94116 0.0
C422 C 0.50793 0.17646 0.93886 0.0
C423 C 0.49498 0.18533 0.99798 0.0
C424 C 0.5057 0.16847 0.19061 0.0
C425 C 0.53846 0.17632 0.21881 0.0
C426 C 0.54559 0.14957 0.22823 0.0
C427 C 0.51994 0.11452 0.20995 0.0
C428 C 0.48728 0.1069 0.18077 0.0
C429 C 0.48029 0.13369 0.17092 0.0
C430 C 0.47523 0.18335 0.31007 0.0
C431 C 0.50312 0.19163 0.36109 0.0
C432 C 0.50163 0.16686 0.40739 0.0
C433 C 0.4723 0.13342 0.40273 0.0
C434 C 0.44322 0.12654 0.35687 0.0
C435 C 0.44463 0.15141 0.31112 0.0
C436 C 0.45587 0.23679 0.29931 0.0
C437 C 0.47896 0.25847 0.35845 0.0
C438 C 0.46818 0.27282 0.41302 0.0
C439 C 0.43403 0.26569 0.40923 0.0
C440 C 0.41022 0.24119 0.35342 0.0
C441 C 0.42116 0.227 0.29842 0.0
C442 C 0.50545 0.31038 0.8517 0.0
C443 C 0.52701 0.08593 0.22195 0.0
C444 C 0.04285 0.49856 0.55382 0.0
C445 C 0.01467 0.44312 0.79961 0.0
C446 C 0.91571 0.4348 0.75757 0.0
Mg447 Mg 0.02348 0.55016 0.48457 0.0
Mg448 Mg -0.00204 0.59524 0.58135 0.0
O449 O 0.98838 0.55051 0.54788 0.0
Mg450 Mg 0.99225 0.52255 0.62616 0.0
O451 O -0.00169 0.49391 0.69802 0.0
Mg452 Mg 0.97692 0.44763 0.63924 0.0
Mg453 Mg 0.98799 0.49519 0.79558 0.0
C454 C 0.9386 0.54826 0.68031 0.0
O455 O 0.02729 0.57108 0.7082 0.0
O456 O 0.00871 0.57967 0.40412 0.0
O457 O 0.01635 0.55132 0.82101 0.0
O458 O 0.06762 0.60331 0.53372 0.0
O459 O 0.99386 0.61185 0.47554 0.0
O460 O 0.05111 0.62815 0.61835 0.0
O461 O 0.95689 0.4721 0.55021 0.0
O462 O 0.97808 0.49594 0.44509 0.0
C463 C 0.95697 0.46999 0.47927 0.0
C464 C -0.00026 0.6027 0.41278 0.0
O465 O 0.94656 0.5242 0.67703 0.0
O466 O 0.00378 0.43251 0.73147 0.0
O467 O 0.95624 0.57753 0.6525 0.0
O468 O 0.92776 0.4261 0.70358 0.0
O469 O 0.01076 0.46635 0.8345 0.0
O470 O 0.93375 0.46367 0.79675 0.0
O471 O 0.03656 0.52298 0.56981 0.0
O472 O 0.02497 0.46867 0.57779 0.0
C473 C 0.07451 0.6279 0.58277 0.0
C474 C 0.03097 0.57615 0.77896 0.0
C475 C 0.49105 0.02399 0.51269 0.0
C476 C 0.57232 0.98819 0.40915 0.0
C477 C 0.51655 0.89369 0.52044 0.0
Mg478 Mg 0.45335 0.00728 0.66165 0.0
Mg479 Mg 0.48467 0.992 0.81026 0.0
O480 O 0.47045 0.97861 0.7104 0.0
Mg481 Mg 0.50299 0.98003 0.63841 0.0
O482 O 0.53181 0.98082 0.55869 0.0
Mg483 Mg 0.4954 0.95418 0.47531 0.0
Mg484 Mg 0.56674 0.96991 0.57175 0.0
C485 C 0.51348 0.94134 0.78041 0.0
O486 O 0.55447 0.02203 0.70322 0.0
O487 O 0.41201 0.98802 0.74718 0.0
O488 O 0.59311 0.00713 0.66805 0.0
O489 O 0.49109 0.05768 0.73417 0.0
O490 O 0.43552 0.97804 0.848 0.0
O491 O 0.51856 0.04615 0.82274 0.0
O492 O 0.45598 0.9398 0.56181 0.0
O493 O 0.41971 0.95898 0.58306 0.0
C494 C 0.42768 0.93919 0.54636 0.0
C495 C 0.41028 0.97792 0.81249 0.0
O496 O 0.50996 0.94053 0.7093 0.0
O497 O 0.5397 0.97539 0.40056 0.0
O498 O 0.50734 0.96052 0.82424 0.0
O499 O 0.4992 0.90532 0.48766 0.0
O500 O 0.58795 0.98814 0.4696 0.0
O501 O 0.54343 0.91375 0.56352 0.0
O502 O 0.49506 0.02077 0.58123 0.0
O503 O 0.49172 0.00292 0.46363 0.0
C504 C 0.51473 0.06778 0.78668 0.0
C505 C 0.58518 0.02676 0.7063 0.0
C506 C 0.48806 0.53715 0.69237 0.0
C507 C 0.39334 0.44584 0.83743 0.0
C508 C 0.44599 0.38877 0.81853 0.0
Mg509 Mg 0.52599 0.52919 0.55694 0.0
Mg510 Mg 0.48177 0.46236 0.43873 0.0
O511 O 0.5021 0.477 0.53634 0.0
Mg512 Mg 0.47033 0.4619 0.61856 0.0
O513 O 0.44062 0.45057 0.70171 0.0
Mg514 Mg 0.47409 0.47364 0.78987 0.0
Mg515 Mg 0.40439 0.40499 0.70805 0.0
C516 C 0.44719 0.39082 0.51938 0.0
O517 O 0.42166 0.44551 0.54511 0.0
O518 O 0.56266 0.53157 0.46831 0.0
O519 O 0.38158 0.39773 0.59549 0.0
O520 O 0.49503 0.53888 0.46989 0.0
O521 O 0.53017 0.48338 0.39083 0.0
O522 O 0.45887 0.49195 0.39667 0.0
O523 O 0.51509 0.4767 0.70692 0.0
O524 O 0.55528 0.52057 0.65004 0.0
C525 C 0.54634 0.50107 0.70359 0.0
C526 C 0.55874 0.51148 0.41076 0.0
O527 O 0.45668 0.40579 0.58551 0.0
O528 O 0.42606 0.46684 0.85035 0.0
O529 O 0.4517 0.4076 0.46136 0.0
O530 O 0.46446 0.42186 0.82935 0.0
O531 O 0.3806 0.42073 0.78664 0.0
O532 O 0.42196 0.37439 0.7662 0.0
O533 O 0.48502 0.51804 0.63562 0.0
O534 O 0.48327 0.52567 0.75572 0.0
C535 C 0.47142 0.5241 0.41752 0.0
C536 C 0.39107 0.41913 0.54489 0.0
C537 C 0.09071 0.47475 0.42063 0.0
C538 C 0.10385 0.50273 0.37593 0.0
H539 H 0.06205 0.45187 0.51173 0.0
C540 C 0.09913 0.53103 0.39409 0.0
H541 H 0.09497 0.45311 0.41054 0.0
C542 C 0.08069 0.53069 0.45395 0.0
C543 C 0.06624 0.50187 0.49636 0.0
H544 H 0.1092 0.55322 0.36144 0.0
H545 H 0.0773 0.55271 0.46586 0.0
C546 C 0.07215 0.47427 0.47966 0.0
C547 C 0.61104 0.07307 0.32846 0.0
C548 C 0.6414 0.0765 0.30328 0.0
H549 H 0.56444 0.0412 0.37666 0.0
C550 C 0.64649 0.04773 0.3047 0.0
H551 H 0.60646 0.09467 0.33167 0.0
C552 C 0.62289 0.01736 0.33507 0.0
C553 C 0.59301 0.01465 0.36055 0.0
H554 H 0.66901 0.0488 0.28417 0.0
H555 H 0.62836 0.99649 0.34052 0.0
C556 C 0.58678 0.04225 0.35474 0.0
C557 C 0.47133 0.60535 0.37138 0.0
C558 C 0.46665 0.60082 0.29417 0.0
H559 H 0.47521 0.58389 0.47114 0.0
C560 C 0.45689 0.56794 0.25882 0.0
H561 H 0.47822 0.63012 0.40028 0.0
C562 C 0.45483 0.54111 0.29958 0.0
C563 C 0.46274 0.54693 0.3763 0.0
H564 H 0.45338 0.56384 0.1993 0.0
H565 H 0.44991 0.51704 0.27051 0.0
C566 C 0.46935 0.57872 0.41193 0.0
C567 C 0.96746 0.65043 0.30393 0.0
C568 C 0.95207 0.62654 0.24191 0.0
H569 H 0.99576 0.66157 0.4086 0.0
C570 C 0.96192 0.60179 0.22635 0.0
H571 H 0.96026 0.66983 0.31632 0.0
C572 C 0.98188 0.59671 0.27929 0.0
C573 C 0.99175 0.61632 0.34779 0.0
H574 H 0.95039 0.58341 0.17793 0.0
H575 H 0.98574 0.57476 0.27004 0.0
C576 C 0.9873 0.64529 0.35704 0.0
C577 C 0.37992 0.88077 0.37274 0.0
C578 C 0.3743 0.90358 0.3307 0.0
H579 H 0.40176 0.87428 0.4742 0.0
C580 C 0.38953 0.93866 0.35813 0.0
H581 H 0.36836 0.85343 0.35446 0.0
C582 C 0.40679 0.94976 0.42817 0.0
C583 C 0.41074 0.92659 0.47135 0.0
H584 H 0.38705 0.95742 0.32685 0.0
H585 H 0.41675 0.97658 0.44908 0.0
C586 C 0.39856 0.89241 0.44203 0.0
C587 C 0.44267 0.30469 0.52254 0.0
C588 C 0.42607 0.28961 0.45187 0.0
H589 H 0.46234 0.34942 0.60062 0.0
C590 C 0.40859 0.30382 0.41468 0.0
H591 H 0.45559 0.29379 0.55342 0.0
C592 C 0.41227 0.33532 0.44188 0.0
C593 C 0.4334 0.35311 0.50664 0.0
H594 H 0.39541 0.293 0.36039 0.0
H595 H 0.40128 0.34737 0.4085 0.0
C596 C 0.44638 0.33641 0.54982 0.0
C597 C 0.54967 0.91247 0.93107 0.0
C598 C 0.52681 0.87635 0.92378 0.0
H599 H 0.56387 0.96139 0.8885 0.0
C600 C 0.50372 0.8614 0.85983 0.0
H601 H 0.5678 0.9249 0.97924 0.0
C602 C 0.50202 0.88236 0.80692 0.0
C603 C 0.5232 0.91861 0.81745 0.0
H604 H 0.48631 0.83352 0.85148 0.0
H605 H 0.48242 0.87049 0.76108 0.0
C606 C 0.54775 0.93334 0.87863 0.0
C607 C 0.59852 0.48839 0.85636 0.0
C608 C 0.63023 0.51962 0.85674 0.0
H609 H 0.5463 0.45794 0.80806 0.0
C610 C 0.63325 0.54452 0.80896 0.0
H611 H 0.59551 0.46885 0.89309 0.0
C612 C 0.60551 0.53857 0.76175 0.0
C613 C 0.57388 0.5073 0.76001 0.0
H614 H 0.65742 0.56857 0.80691 0.0
H615 H 0.60921 0.55853 0.72557 0.0
C616 C 0.57037 0.48232 0.80842 0.0
C617 C 0.10418 0.64722 0.90406 0.0
C618 C 0.10633 0.67759 0.87935 0.0
H619 H 0.07848 0.59156 0.89186 0.0
C620 C 0.08225 0.67439 0.823 0.0
H621 H 0.12174 0.64878 0.94883 0.0
C622 C 0.05724 0.64135 0.79042 0.0
C623 C 0.05585 0.61117 0.8142 0.0
H624 H 0.08298 0.69735 0.80381 0.0
H625 H 0.03868 0.63936 0.74771 0.0
C626 C 0.07917 0.61443 0.87211 0.0
C627 C 0.56487 0.14719 0.91765 0.0
C628 C 0.55318 0.16833 0.88871 0.0
H629 H 0.56121 0.09761 0.90743 0.0
C630 C 0.53933 0.16132 0.81501 0.0
H631 H 0.57622 0.15232 0.97394 0.0
C632 C 0.52999 0.12948 0.77712 0.0
C633 C 0.53519 0.10501 0.81249 0.0
H634 H 0.53094 0.17787 0.79103 0.0
H635 H 0.51542 0.12266 0.72388 0.0
C636 C 0.5557 0.11545 0.87979 0.0
C637 C 0.35476 0.48817 0.9555 0.0
C638 C 0.31931 0.46585 0.93545 0.0
H639 H 0.40616 0.49929 0.94155 0.0
C640 C 0.30887 0.43655 0.88594 0.0
H641 H 0.36372 0.51067 0.9947 0.0
C642 C 0.33299 0.42965 0.85706 0.0
C643 C 0.36847 0.45208 0.87597 0.0
H644 H 0.28194 0.41899 0.86856 0.0
H645 H 0.32357 0.40687 0.81841 0.0
C646 C 0.37911 0.48139 0.92596 0.0
C647 C 0.84717 0.34615 0.80234 0.0
C648 C 0.83852 0.35442 0.87035 0.0
H649 H 0.8776 0.36525 0.71131 0.0
C650 C 0.84973 0.38947 0.89193 0.0
H651 H 0.83813 0.31928 0.78327 0.0
C652 C 0.8721 0.4159 0.85033 0.0
C653 C 0.88383 0.40777 0.78649 0.0
H654 H 0.84337 0.39673 0.94381 0.0
H655 H 0.88228 0.44274 0.87145 0.0
C656 C 0.8695 0.37255 0.76064 0.0
C657 C 0.86487 0.51724 0.80286 0.0
C658 C 0.84668 0.53284 0.77419 0.0
H659 H 0.90798 0.50955 0.79552 0.0
C660 C 0.85799 0.55127 0.71137 0.0
H661 H 0.85761 0.5033 0.85182 0.0
C662 C 0.88769 0.55597 0.68132 0.0
C663 C 0.90644 0.54152 0.71171 0.0
H664 H 0.84435 0.56279 0.68592 0.0
H665 H 0.89603 0.57104 0.63399 0.0
C666 C 0.89414 0.52115 0.77128 0.0
C667 C 0.34538 0.94006 0.95215 0.0
C668 C 0.3172 0.91297 0.90847 0.0
H669 H 0.39738 0.98228 0.95542 0.0
C670 C 0.31813 0.91079 0.83171 0.0
H671 H 0.34525 0.94197 0.01158 0.0
C672 C 0.34755 0.9345 0.79937 0.0
C673 C 0.37675 0.95997 0.84368 0.0
H674 H 0.29668 0.88993 0.79724 0.0
H675 H 0.34841 0.93116 0.74041 0.0
C676 C 0.37509 0.9631 0.92011 0.0
C677 C 0.43125 0.31287 0.92979 0.0
C678 C 0.44931 0.33043 0.99831 0.0
H679 H 0.41619 0.3172 0.8188 0.0
C680 C 0.46735 0.36702 0.00467 0.0
H681 H 0.41766 0.28472 0.92169 0.0
C682 C 0.46756 0.38547 0.94495 0.0
C683 C 0.44901 0.36806 0.87701 0.0
H684 H 0.48105 0.38173 0.05629 0.0
H685 H 0.48147 0.41366 0.95329 0.0
C686 C 0.43086 0.33146 0.87008 0.0
C687 C 0.06493 0.43125 0.95275 0.0
C688 C 0.096 0.4418 0.9211 0.0
H689 H 0.01394 0.42296 0.9377 0.0
C690 C 0.09741 0.44582 0.84531 0.0
H691 H 0.06339 0.4282 0.01126 0.0
C692 C 0.06873 0.4416 0.80274 0.0
C693 C 0.03872 0.43433 0.83605 0.0
H694 H 0.12118 0.45396 0.81999 0.0
H695 H 0.07116 0.44733 0.74556 0.0
C696 C 0.03663 0.42801 0.91073 0.0
C697 C 0.67485 0.10257 0.76579 0.0
C698 C 0.6681 0.12366 0.81387 0.0
H699 H 0.65435 0.05539 0.69568 0.0
C700 C 0.63374 0.11173 0.82808 0.0
H701 H 0.7008 0.11083 0.75262 0.0
C702 C 0.60706 0.07984 0.79528 0.0
C703 C 0.61376 0.05881 0.74741 0.0
H704 H 0.62733 0.12659 0.86607 0.0
H705 H 0.58116 0.07164 0.80754 0.0
C706 C 0.64809 0.07054 0.73331 0.0
C707 C 0.54425 0.63343 0.70167 0.0
C708 C 0.52115 0.64333 0.72647 0.0
H709 H 0.55127 0.59048 0.67023 0.0
C710 C 0.4858 0.6184 0.72108 0.0
H711 H 0.57151 0.65215 0.70431 0.0
C712 C 0.47451 0.5836 0.70191 0.0
C713 C 0.49821 0.57334 0.68666 0.0
H714 H 0.46714 0.62473 0.74025 0.0
H715 H 0.44773 0.56434 0.7057 0.0
C716 C 0.53276 0.59835 0.68201 0.0
C717 C 0.48735 0.1074 0.50817 0.0
C718 C 0.47415 0.10439 0.43493 0.0
H719 H 0.50253 0.08392 0.59108 0.0
C720 C 0.46535 0.07431 0.38921 0.0
H721 H 0.49455 0.13046 0.54437 0.0
C722 C 0.47036 0.04818 0.41526 0.0
C723 C 0.48391 0.05114 0.48814 0.0
H724 H 0.4558 0.07155 0.33212 0.0
H725 H 0.46399 0.02578 0.37761 0.0
C726 C 0.49184 0.08078 0.53484 0.0
C727 C 0.31008 0.41749 0.4851 0.0
C728 C 0.32115 0.43908 0.42708 0.0
H729 H 0.3237 0.3931 0.56745 0.0
C730 C 0.35217 0.44704 0.39786 0.0
H731 H 0.28598 0.41065 0.50775 0.0
C732 C 0.3735 0.43659 0.43121 0.0
C733 C 0.36429 0.41844 0.49457 0.0
H734 H 0.36058 0.4626 0.3512 0.0
H735 H 0.39814 0.44464 0.41048 0.0
C736 C 0.33153 0.40714 0.51864 0.0
C737 C 0.89547 0.41476 0.31537 0.0
C738 C 0.88226 0.38088 0.33664 0.0
H739 H 0.92933 0.46914 0.34374 0.0
C740 C 0.89265 0.3762 0.40727 0.0
H741 H 0.88798 0.41912 0.26135 0.0
C742 C 0.91612 0.40507 0.4555 0.0
C743 C 0.9301 0.43892 0.43296 0.0
H744 H 0.88254 0.35023 0.42511 0.0
H745 H 0.92403 0.4009 0.50928 0.0
C746 C 0.91928 0.44336 0.36261 0.0
C747 C 0.47843 0.81147 0.39613 0.0
C748 C 0.5068 0.80666 0.39332 0.0
H749 H 0.45867 0.84218 0.44174 0.0
C750 C 0.53442 0.82468 0.44804 0.0
H751 H 0.45657 0.79801 0.35546 0.0
C752 C 0.53583 0.85055 0.49738 0.0
C753 C 0.50955 0.85869 0.49283 0.0
H754 H 0.5562 0.82073 0.4491 0.0
H755 H 0.55898 0.86634 0.53376 0.0
C756 C 0.47971 0.83705 0.44572 0.0
C757 C 0.60952 0.50945 0.25343 0.0
C758 C 0.6424 0.53809 0.27449 0.0
H759 H 0.55766 0.47865 0.27944 0.0
C760 C 0.64759 0.55841 0.34065 0.0
H761 H 0.60448 0.4936 0.20227 0.0
C762 C 0.62053 0.54997 0.38512 0.0
C763 C 0.58774 0.52098 0.36436 0.0
H764 H 0.67273 0.58044 0.35886 0.0
H765 H 0.62541 0.56596 0.43597 0.0
C766 C 0.5826 0.50097 0.29777 0.0
C767 C 0.12657 0.71629 0.52695 0.0
C768 C 0.15131 0.71215 0.4911 0.0
H769 H 0.08331 0.69271 0.59039 0.0
C770 C 0.15756 0.68554 0.51087 0.0
H771 H 0.12114 0.73661 0.51432 0.0
C772 C 0.13511 0.65975 0.55338 0.0
C773 C 0.10676 0.66083 0.57817 0.0
H774 H 0.1776 0.6826 0.48746 0.0
H775 H 0.13749 0.63693 0.5591 0.0
C776 C 0.10481 0.69105 0.57134 0.0
loop_
_geom_bond_atom_site_label_1
_geom_bond_atom_site_label_2
_geom_bond_distance
_geom_bond_site_symmetry_2
_ccdc_geom_bond_type
H0 O26 0.856 . S
H1 O29 0.854 . S
H2 C37 0.930 . S
H3 C38 0.930 . S
H4 C40 0.930 . S
H5 C41 0.930 . S
H6 C43 0.931 . S
H7 C44 0.930 . S
H8 C46 0.930 . S
H9 C47 0.929 . S
H10 C49 0.930 . S
H11 C50 0.931 . S
H12 C52 0.930 . S
H13 C53 0.929 . S
H14 C55 0.931 . S
H15 C56 0.930 . S
H16 C58 0.930 . S
H17 C59 0.932 . S
H18 C61 0.930 . S
H19 C62 0.929 . S
H20 C64 0.935 . S
H21 C65 0.930 . S
H22 C67 0.929 . S
H23 C68 0.931 . S
H24 C70 0.930 . S
H25 C71 0.929 . S
O26 H0 0.856 . S
O26 C72 1.300 . S
O27 C72 1.209 . S
O28 C73 1.199 . S
O29 H1 0.854 . S
O29 C73 1.297 . S
C30 C31 1.404 . S
C30 C35 1.397 . S
C30 C36 1.492 . S
C31 C30 1.404 . S
C31 C32 1.396 . S
C31 C42 1.492 . S
C32 C31 1.396 . S
C32 C33 1.397 . S
C32 C48 1.509 . S
C33 C32 1.397 . S
C33 C34 1.412 . S
C33 C54 1.485 . S
C34 C33 1.412 . S
C34 C35 1.388 . S
C34 C60 1.490 . S
C35 C30 1.397 . S
C35 C34 1.388 . S
C35 C66 1.519 . S
C36 C30 1.492 . S
C36 C37 1.363 . S
C36 C41 1.390 . S
C37 H2 0.930 . S
C37 C36 1.363 . S
C37 C38 1.372 . S
C38 H3 0.930 . S
C38 C37 1.372 . S
C38 C39 1.383 . S
C39 C38 1.383 . S
C39 C40 1.395 . S
C40 H4 0.930 . S
C40 C39 1.395 . S
C40 C41 1.362 . S
C41 H5 0.930 . S
C41 C36 1.390 . S
C41 C40 1.362 . S
C42 C31 1.492 . S
C42 C43 1.377 . S
C42 C47 1.397 . S
C43 H6 0.931 . S
C43 C42 1.377 . S
C43 C44 1.376 . S
C44 H7 0.930 . S
C44 C43 1.376 . S
C44 C45 1.376 . S
C45 C44 1.376 . S
C45 C46 1.378 . S
C45 C72 1.486 . S
C46 H8 0.930 . S
C46 C45 1.378 . S
C46 C47 1.376 . S
C47 H9 0.929 . S
C47 C42 1.397 . S
C47 C46 1.376 . S
C48 C32 1.509 . S
C48 C49 1.391 . S
C48 C53 1.386 . S
C49 H10 0.930 . S
C49 C48 1.391 . S
C49 C50 1.375 . S
C50 H11 0.931 . S
C50 C49 1.375 . S
C50 C51 1.375 . S
C51 C50 1.375 . S
C51 C52 1.361 . S
C52 H12 0.930 . S
C52 C51 1.361 . S
C52 C53 1.399 . S
C53 H13 0.929 . S
C53 C48 1.386 . S
C53 C52 1.399 . S
C54 C33 1.485 . S
C54 C55 1.394 . S
C54 C59 1.360 . S
C55 H14 0.931 . S
C55 C54 1.394 . S
C55 C56 1.372 . S
C56 H15 0.930 . S
C56 C55 1.372 . S
C56 C57 1.397 . S
C57 C56 1.397 . S
C57 C58 1.390 . S
C57 C73 1.476 . S
C58 H16 0.930 . S
C58 C57 1.390 . S
C58 C59 1.366 . S
C59 H17 0.932 . S
C59 C54 1.360 . S
C59 C58 1.366 . S
C60 C34 1.490 . S
C60 C61 1.380 . S
C60 C65 1.386 . S
C61 H18 0.930 . S
C61 C60 1.380 . S
C61 C62 1.381 1_554 S
C62 H19 0.929 . S
C62 C61 1.381 1_556 S
C62 C63 1.371 . S
C63 C62 1.371 . S
C63 C64 1.383 . S
C64 H20 0.935 . S
C64 C63 1.383 . S
C64 C65 1.379 1_556 S
C65 H21 0.930 . S
C65 C60 1.386 . S
C65 C64 1.379 1_554 S
C66 C35 1.519 . S
C66 C67 1.377 . S
C66 C71 1.361 . S
C67 H22 0.929 . S
C67 C66 1.377 . S
C67 C68 1.386 . S
C68 H23 0.931 . S
C68 C67 1.386 . S
C68 C69 1.363 . S
C69 C68 1.363 . S
C69 C70 1.385 . S
C70 H24 0.930 . S
C70 C69 1.385 . S
C70 C71 1.396 . S
C71 H25 0.929 . S
C71 C66 1.361 . S
C71 C70 1.396 . S
C72 O26 1.300 . S
C72 O27 1.209 . S
C72 C45 1.486 . S
C73 O28 1.199 . S
C73 O29 1.297 . S
C73 C57 1.476 . S
H74 O100 0.856 . S
H75 O103 0.854 1_565 S
H76 C111 0.930 . S
H77 C112 0.930 . S
H78 C114 0.930 . S
H79 C115 0.930 . S
H80 C117 0.931 . S
H81 C118 0.930 . S
H82 C120 0.930 . S
H83 C121 0.929 . S
H84 C123 0.930 . S
H85 C124 0.931 . S
H86 C126 0.930 . S
H87 C127 0.929 . S
H88 C129 0.931 . S
H89 C130 0.930 . S
H90 C132 0.930 . S
H91 C133 0.932 . S
H92 C135 0.930 . S
H93 C136 0.929 . S
H94 C138 0.931 . S
H95 C139 0.930 . S
H96 C141 0.929 . S
H97 C142 0.931 . S
H98 C144 0.930 . S
H99 C145 0.929 . S
O100 H74 0.856 . S
O100 C146 1.300 . S
O101 C146 1.209 . S
O102 C147 1.199 1_556 S
O103 H75 0.854 1_545 S
O103 C147 1.297 . S
C104 C105 1.404 . S
C104 C109 1.397 . S
C104 C110 1.492 . S
C105 C104 1.404 . S
C105 C106 1.396 . S
C105 C116 1.492 . S
C106 C105 1.396 . S
C106 C107 1.397 . S
C106 C122 1.509 . S
C107 C106 1.397 . S
C107 C108 1.412 . S
C107 C128 1.485 . S
C108 C107 1.412 . S
C108 C109 1.388 . S
C108 C134 1.490 1_554 S
C109 C104 1.397 . S
C109 C108 1.388 . S
C109 C140 1.519 . S
C110 C104 1.492 . S
C110 C111 1.363 . S
C110 C115 1.390 . S
C111 H76 0.930 . S
C111 C110 1.363 . S
C111 C112 1.372 . S
C112 H77 0.930 . S
C112 C111 1.372 . S
C112 C113 1.383 . S
C113 C112 1.383 . S
C113 C114 1.395 . S
C114 H78 0.930 . S
C114 C113 1.395 . S
C114 C115 1.362 . S
C115 H79 0.930 . S
C115 C110 1.390 . S
C115 C114 1.362 . S
C116 C105 1.492 . S
C116 C117 1.377 . S
C116 C121 1.397 . S
C117 H80 0.931 . S
C117 C116 1.377 . S
C117 C118 1.376 . S
C118 H81 0.930 . S
C118 C117 1.376 . S
C118 C119 1.376 . S
C119 C118 1.376 . S
C119 C120 1.378 . S
C119 C146 1.486 . S
C120 H82 0.930 . S
C120 C119 1.378 . S
C120 C121 1.376 . S
C121 H83 0.929 . S
C121 C116 1.397 . S
C121 C120 1.376 . S
C122 C106 1.509 . S
C122 C123 1.391 . S
C122 C127 1.386 . S
C123 H84 0.930 . S
C123 C122 1.391 . S
C123 C124 1.375 . S
C124 H85 0.931 . S
C124 C123 1.375 . S
C124 C125 1.375 . S
C125 C124 1.375 . S
C125 C126 1.361 . S
C126 H86 0.930 . S
C126 C125 1.361 . S
C126 C127 1.399 . S
C127 H87 0.929 . S
C127 C122 1.386 . S
C127 C126 1.399 . S
C128 C107 1.485 . S
C128 C129 1.394 . S
C128 C133 1.360 . S
C129 H88 0.931 . S
C129 C128 1.394 . S
C129 C130 1.372 . S
C130 H89 0.930 . S
C130 C129 1.372 . S
C130 C131 1.397 . S
C131 C130 1.397 . S
C131 C132 1.390 . S
C131 C147 1.476 . S
C132 H90 0.930 . S
C132 C131 1.390 . S
C132 C133 1.366 . S
C133 H91 0.932 . S
C133 C128 1.360 . S
C133 C132 1.366 . S
C134 C108 1.490 1_556 S
C134 C135 1.380 . S
C134 C139 1.386 . S
C135 H92 0.930 . S
C135 C134 1.380 . S
C135 C136 1.381 . S
C136 H93 0.929 . S
C136 C135 1.381 . S
C136 C137 1.371 . S
C137 C136 1.371 . S
C137 C138 1.380 . S
C138 H94 0.931 . S
C138 C137 1.380 . S
C138 C139 1.387 . S
C139 H95 0.930 . S
C139 C134 1.386 . S
C139 C138 1.387 . S
C140 C109 1.519 . S
C140 C141 1.377 . S
C140 C145 1.361 . S
C141 H96 0.929 . S
C141 C140 1.377 . S
C141 C142 1.386 1_554 S
C142 H97 0.931 . S
C142 C141 1.386 1_556 S
C142 C143 1.363 . S
C143 C142 1.363 . S
C143 C144 1.385 . S
C144 H98 0.930 . S
C144 C143 1.385 . S
C144 C145 1.396 1_556 S
C145 H99 0.929 . S
C145 C140 1.361 . S
C145 C144 1.396 1_554 S
C146 O100 1.300 . S
C146 O101 1.209 . S
C146 C119 1.486 . S
C147 O102 1.199 1_554 S
C147 O103 1.297 . S
C147 C131 1.476 . S
H148 O174 0.856 . S
H149 O177 0.854 . S
H150 C185 0.930 . S
H151 C186 0.930 . S
H152 C188 0.930 . S
H153 C189 0.930 . S
H154 C191 0.931 . S
H155 C192 0.930 . S
H156 C194 0.930 . S
H157 C195 0.929 . S
H158 C197 0.930 . S
H159 C198 0.931 . S
H160 C200 0.930 . S
H161 C201 0.929 . S
H162 C203 0.931 . S
H163 C204 0.930 . S
H164 C206 0.930 . S
H165 C207 0.932 1_556 S
H166 C209 0.930 . S
H167 C210 0.929 . S
H168 C212 0.931 . S
H169 C213 0.930 . S
H170 C215 0.929 . S
H171 C216 0.931 . S
H172 C218 0.930 . S
H173 C219 0.929 . S
O174 H148 0.856 . S
O174 C220 1.300 . S
O175 C220 1.209 . S
O176 C221 1.199 . S
O177 H149 0.854 . S
O177 C221 1.297 . S
C178 C179 1.404 . S
C178 C183 1.397 1_556 S
C178 C184 1.492 . S
C179 C178 1.404 . S
C179 C180 1.396 . S
C179 C190 1.492 . S
C180 C179 1.396 . S
C180 C181 1.397 1_556 S
C180 C196 1.509 . S
C181 C180 1.397 1_554 S
C181 C182 1.412 . S
C181 C202 1.485 . S
C182 C181 1.412 . S
C182 C183 1.388 . S
C182 C208 1.490 . S
C183 C178 1.397 1_554 S
C183 C182 1.388 . S
C183 C214 1.519 . S
C184 C178 1.492 . S
C184 C185 1.363 . S
C184 C189 1.390 . S
C185 H150 0.930 . S
C185 C184 1.363 . S
C185 C186 1.372 . S
C186 H151 0.930 . S
C186 C185 1.372 . S
C186 C187 1.383 . S
C187 C186 1.383 . S
C187 C188 1.395 . S
C188 H152 0.930 . S
C188 C187 1.395 . S
C188 C189 1.362 . S
C189 H153 0.930 . S
C189 C184 1.390 . S
C189 C188 1.362 . S
C190 C179 1.492 . S
C190 C191 1.377 . S
C190 C195 1.397 . S
C191 H154 0.931 . S
C191 C190 1.377 . S
C191 C192 1.376 . S
C192 H155 0.930 . S
C192 C191 1.376 . S
C192 C193 1.376 . S
C193 C192 1.376 . S
C193 C194 1.378 . S
C193 C220 1.486 . S
C194 H156 0.930 . S
C194 C193 1.378 . S
C194 C195 1.376 . S
C195 H157 0.929 . S
C195 C190 1.397 . S
C195 C194 1.376 . S
C196 C180 1.509 . S
C196 C197 1.391 . S
C196 C201 1.386 . S
C197 H158 0.930 . S
C197 C196 1.391 . S
C197 C198 1.375 . S
C198 H159 0.931 . S
C198 C197 1.375 . S
C198 C199 1.375 . S
C199 C198 1.375 . S
C199 C200 1.361 . S
C200 H160 0.930 . S
C200 C199 1.361 . S
C200 C201 1.399 . S
C201 H161 0.929 . S
C201 C196 1.386 . S
C201 C200 1.399 . S
C202 C181 1.485 . S
C202 C203 1.394 . S
C202 C207 1.360 . S
C203 H162 0.931 . S
C203 C202 1.394 . S
C203 C204 1.372 . S
C204 H163 0.930 . S
C204 C203 1.372 . S
C204 C205 1.397 . S
C205 C204 1.397 . S
C205 C206 1.390 . S
C205 C221 1.476 . S
C206 H164 0.930 . S
C206 C205 1.390 . S
C206 C207 1.366 . S
C207 H165 0.932 1_554 S
C207 C202 1.360 . S
C207 C206 1.366 . S
C208 C182 1.490 . S
C208 C209 1.380 . S
C208 C213 1.386 . S
C209 H166 0.930 . S
C209 C208 1.380 . S
C209 C210 1.381 . S
C210 H167 0.929 . S
C210 C209 1.381 . S
C210 C211 1.371 . S
C211 C210 1.371 . S
C211 C212 1.380 . S
C212 H168 0.931 . S
C212 C211 1.380 . S
C212 C213 1.387 . S
C213 H169 0.930 . S
C213 C208 1.386 . S
C213 C212 1.387 . S
C214 C183 1.519 . S
C214 C215 1.377 . S
C214 C219 1.361 . S
C215 H170 0.929 . S
C215 C214 1.377 . S
C215 C216 1.386 . S
C216 H171 0.931 . S
C216 C215 1.386 . S
C216 C217 1.363 . S
C217 C216 1.363 . S
C217 C218 1.385 . S
C218 H172 0.930 . S
C218 C217 1.385 . S
C218 C219 1.396 . S
C219 H173 0.929 . S
C219 C214 1.361 . S
C219 C218 1.396 . S
C220 O174 1.300 . S
C220 O175 1.209 . S
C220 C193 1.486 . S
C221 O176 1.199 . S
C221 O177 1.297 . S
C221 C205 1.476 . S
H222 O248 0.856 . S
H223 O251 0.854 1_455 S
H224 C259 0.930 . S
H225 C260 0.930 . S
H226 C262 0.930 . S
H227 C263 0.930 . S
H228 C265 0.931 . S
H229 C266 0.930 . S
H230 C268 0.930 . S
H231 C269 0.929 . S
H232 C271 0.930 . S
H233 C272 0.931 . S
H234 C274 0.930 . S
H235 C275 0.929 . S
H236 C277 0.931 1_556 S
H237 C278 0.930 . S
H238 C280 0.930 . S
H239 C281 0.932 . S
H240 C283 0.930 . S
H241 C284 0.929 . S
H242 C286 0.931 . S
H243 C287 0.930 . S
H244 C289 0.929 . S
H245 C290 0.931 . S
H246 C292 0.930 . S
H247 C293 0.929 . S
O248 H222 0.856 . S
O248 C294 1.300 . S
O249 C294 1.209 . S
O250 C295 1.199 . S
O251 H223 0.854 1_655 S
O251 C295 1.297 1_554 S
C252 C253 1.404 . S
C252 C257 1.397 . S
C252 C258 1.492 . S
C253 C252 1.404 . S
C253 C254 1.396 . S
C253 C264 1.492 . S
C254 C253 1.396 . S
C254 C255 1.397 . S
C254 C270 1.509 . S
C255 C254 1.397 . S
C255 C256 1.412 . S
C255 C276 1.485 . S
C256 C255 1.412 . S
C256 C257 1.388 . S
C256 C282 1.490 1_554 S
C257 C252 1.397 . S
C257 C256 1.388 . S
C257 C288 1.519 1_554 S
C258 C252 1.492 . S
C258 C259 1.363 . S
C258 C263 1.390 . S
C259 H224 0.930 . S
C259 C258 1.363 . S
C259 C260 1.372 . S
C260 H225 0.930 . S
C260 C259 1.372 . S
C260 C261 1.383 . S
C261 C260 1.383 . S
C261 C262 1.395 . S
C262 H226 0.930 . S
C262 C261 1.395 . S
C262 C263 1.362 . S
C263 H227 0.930 . S
C263 C258 1.390 . S
C263 C262 1.362 . S
C264 C253 1.492 . S
C264 C265 1.377 . S
C264 C269 1.397 . S
C265 H228 0.931 . S
C265 C264 1.377 . S
C265 C266 1.376 . S
C266 H229 0.930 . S
C266 C265 1.376 . S
C266 C267 1.376 . S
C267 C266 1.376 . S
C267 C268 1.378 . S
C267 C294 1.486 . S
C268 H230 0.930 . S
C268 C267 1.378 . S
C268 C269 1.376 . S
C269 H231 0.929 . S
C269 C264 1.397 . S
C269 C268 1.376 . S
C270 C254 1.509 . S
C270 C271 1.391 . S
C270 C275 1.386 . S
C271 H232 0.930 . S
C271 C270 1.391 . S
C271 C272 1.375 . S
C272 H233 0.931 . S
C272 C271 1.375 . S
C272 C273 1.375 . S
C273 C272 1.375 . S
C273 C274 1.361 . S
C274 H234 0.930 . S
C274 C273 1.361 . S
C274 C275 1.399 . S
C275 H235 0.929 . S
C275 C270 1.386 . S
C275 C274 1.399 . S
C276 C255 1.485 . S
C276 C277 1.394 . S
C276 C281 1.360 . S
C277 H236 0.931 1_554 S
C277 C276 1.394 . S
C277 C278 1.372 1_554 S
C278 H237 0.930 . S
C278 C277 1.372 1_556 S
C278 C279 1.397 1_556 S
C279 C278 1.397 1_554 S
C279 C280 1.390 . S
C279 C295 1.476 1_554 S
C280 H238 0.930 . S
C280 C279 1.390 . S
C280 C281 1.366 . S
C281 H239 0.932 . S
C281 C276 1.360 . S
C281 C280 1.366 . S
C282 C256 1.490 1_556 S
C282 C283 1.380 . S
C282 C287 1.386 . S
C283 H240 0.930 . S
C283 C282 1.380 . S
C283 C284 1.381 . S
C284 H241 0.929 . S
C284 C283 1.381 . S
C284 C285 1.371 . S
C285 C284 1.371 . S
C285 C286 1.380 . S
C286 H242 0.931 . S
C286 C285 1.380 . S
C286 C287 1.387 . S
C287 H243 0.930 . S
C287 C282 1.386 . S
C287 C286 1.387 . S
C288 C257 1.519 1_556 S
C288 C289 1.377 . S
C288 C293 1.361 . S
C289 H244 0.929 . S
C289 C288 1.377 . S
C289 C290 1.386 . S
C290 H245 0.931 . S
C290 C289 1.386 . S
C290 C291 1.363 . S
C291 C290 1.363 . S
C291 C292 1.385 . S
C292 H246 0.930 . S
C292 C291 1.385 . S
C292 C293 1.396 . S
C293 H247 0.929 . S
C293 C288 1.361 . S
C293 C292 1.396 . S
C294 O248 1.300 . S
C294 O249 1.209 . S
C294 C267 1.486 . S
C295 O250 1.199 . S
C295 O251 1.297 1_556 S
C295 C279 1.476 1_556 S
H296 O322 0.856 . S
H297 O325 0.854 . S
H298 C333 0.930 . S
H299 C334 0.930 . S
H300 C336 0.930 . S
H301 C337 0.930 . S
H302 C339 0.931 . S
H303 C340 0.930 . S
H304 C342 0.930 . S
H305 C343 0.929 . S
H306 C345 0.930 . S
H307 C346 0.931 . S
H308 C348 0.930 . S
H309 C349 0.929 . S
H310 C351 0.931 . S
H311 C352 0.930 . S
H312 C354 0.930 . S
H313 C355 0.932 . S
H314 C357 0.930 1_554 S
H315 C358 0.929 . S
H316 C360 0.931 . S
H317 C361 0.930 . S
H318 C363 0.929 . S
H319 C364 0.931 . S
H320 C366 0.930 . S
H321 C367 0.929 . S
O322 H296 0.856 . S
O322 C368 1.300 . S
O323 C368 1.209 . S
O324 C369 1.199 . S
O325 H297 0.854 . S
O325 C369 1.297 . S
C326 C327 1.404 . S
C326 C331 1.397 . S
C326 C332 1.492 . S
C327 C326 1.404 . S
C327 C328 1.396 . S
C327 C338 1.492 . S
C328 C327 1.396 . S
C328 C329 1.397 . S
C328 C344 1.509 . S
C329 C328 1.397 . S
C329 C330 1.412 . S
C329 C350 1.485 . S
C330 C329 1.412 . S
C330 C331 1.388 . S
C330 C356 1.490 . S
C331 C326 1.397 . S
C331 C330 1.388 . S
C331 C362 1.519 . S
C332 C326 1.492 . S
C332 C333 1.363 . S
C332 C337 1.390 . S
C333 H298 0.930 . S
C333 C332 1.363 . S
C333 C334 1.372 . S
C334 H299 0.930 . S
C334 C333 1.372 . S
C334 C335 1.383 . S
C335 C334 1.383 . S
C335 C336 1.395 . S
C336 H300 0.930 . S
C336 C335 1.395 . S
C336 C337 1.362 . S
C337 H301 0.930 . S
C337 C332 1.390 . S
C337 C336 1.362 . S
C338 C327 1.492 . S
C338 C339 1.377 . S
C338 C343 1.397 . S
C339 H302 0.931 . S
C339 C338 1.377 . S
C339 C340 1.376 . S
C340 H303 0.930 . S
C340 C339 1.376 . S
C340 C341 1.376 . S
C341 C340 1.376 . S
C341 C342 1.378 . S
C341 C368 1.486 . S
C342 H304 0.930 . S
C342 C341 1.378 . S
C342 C343 1.376 . S
C343 H305 0.929 . S
C343 C338 1.397 . S
C343 C342 1.376 . S
C344 C328 1.509 . S
C344 C345 1.391 . S
C344 C349 1.386 . S
C345 H306 0.930 . S
C345 C344 1.391 . S
C345 C346 1.375 . S
C346 H307 0.931 . S
C346 C345 1.375 . S
C346 C347 1.375 . S
C347 C346 1.375 . S
C347 C348 1.361 . S
C348 H308 0.930 . S
C348 C347 1.361 . S
C348 C349 1.399 . S
C349 H309 0.929 . S
C349 C344 1.386 . S
C349 C348 1.399 . S
C350 C329 1.485 . S
C350 C351 1.394 . S
C350 C355 1.360 . S
C351 H310 0.931 . S
C351 C350 1.394 . S
C351 C352 1.372 . S
C352 H311 0.930 . S
C352 C351 1.372 . S
C352 C353 1.397 . S
C353 C352 1.397 . S
C353 C354 1.390 . S
C353 C369 1.476 . S
C354 H312 0.930 . S
C354 C353 1.390 . S
C354 C355 1.366 . S
C355 H313 0.932 . S
C355 C350 1.360 . S
C355 C354 1.366 . S
C356 C330 1.490 . S
C356 C357 1.380 1_554 S
C356 C361 1.386 1_554 S
C357 H314 0.930 1_556 S
C357 C356 1.380 1_556 S
C357 C358 1.381 . S
C358 H315 0.929 . S
C358 C357 1.381 . S
C358 C359 1.371 . S
C359 C358 1.371 . S
C359 C360 1.380 . S
C360 H316 0.931 . S
C360 C359 1.380 . S
C360 C361 1.387 . S
C361 H317 0.930 . S
C361 C356 1.386 1_556 S
C361 C360 1.387 . S
C362 C331 1.519 . S
C362 C363 1.377 . S
C362 C367 1.361 . S
C363 H318 0.929 . S
C363 C362 1.377 . S
C363 C364 1.386 1_554 S
C364 H319 0.931 . S
C364 C363 1.386 1_556 S
C364 C365 1.363 . S
C365 C364 1.363 . S
C365 C366 1.385 . S
C366 H320 0.930 . S
C366 C365 1.385 . S
C366 C367 1.396 1_556 S
C367 H321 0.929 . S
C367 C362 1.361 . S
C367 C366 1.396 1_554 S
C368 O322 1.300 . S
C368 O323 1.209 . S
C368 C341 1.486 . S
C369 O324 1.199 . S
C369 O325 1.297 . S
C369 C353 1.476 . S
H370 O396 0.856 . S
H371 O399 0.854 . S
H372 C407 0.930 . S
H373 C408 0.930 . S
H374 C410 0.930 . S
H375 C411 0.930 . S
H376 C413 0.931 . S
H377 C414 0.930 . S
H378 C416 0.930 . S
H379 C417 0.929 . S
H380 C419 0.930 . S
H381 C420 0.931 . S
H382 C422 0.930 . S
H383 C423 0.929 . S
H384 C425 0.931 . S
H385 C426 0.930 . S
H386 C428 0.930 . S
H387 C429 0.932 . S
H388 C431 0.930 . S
H389 C432 0.929 . S
H390 C434 0.931 . S
H391 C435 0.930 . S
H392 C437 0.929 . S
H393 C438 0.931 . S
H394 C440 0.930 . S
H395 C441 0.929 . S
O396 H370 0.856 . S
O396 C442 1.300 . S
O397 C442 1.209 . S
O398 C443 1.199 . S
O399 H371 0.854 . S
O399 C443 1.297 . S
C400 C401 1.404 . S
C400 C405 1.397 . S
C400 C406 1.492 . S
C401 C400 1.404 . S
C401 C402 1.396 . S
C401 C412 1.492 1_554 S
C402 C401 1.396 . S
C402 C403 1.397 . S
C402 C418 1.509 . S
C403 C402 1.397 . S
C403 C404 1.412 . S
C403 C424 1.485 . S
C404 C403 1.412 . S
C404 C405 1.388 . S
C404 C430 1.490 . S
C405 C400 1.397 . S
C405 C404 1.388 . S
C405 C436 1.519 . S
C406 C400 1.492 . S
C406 C407 1.363 . S
C406 C411 1.390 . S
C407 H372 0.930 . S
C407 C406 1.363 . S
C407 C408 1.372 . S
C408 H373 0.930 . S
C408 C407 1.372 . S
C408 C409 1.383 . S
C409 C408 1.383 . S
C409 C410 1.395 . S
C410 H374 0.930 . S
C410 C409 1.395 . S
C410 C411 1.362 . S
C411 H375 0.930 . S
C411 C406 1.390 . S
C411 C410 1.362 . S
C412 C401 1.492 1_556 S
C412 C413 1.377 . S
C412 C417 1.397 . S
C413 H376 0.931 . S
C413 C412 1.377 . S
C413 C414 1.376 . S
C414 H377 0.930 . S
C414 C413 1.376 . S
C414 C415 1.376 . S
C415 C414 1.376 . S
C415 C416 1.378 . S
C415 C442 1.486 . S
C416 H378 0.930 . S
C416 C415 1.378 . S
C416 C417 1.376 . S
C417 H379 0.929 . S
C417 C412 1.397 . S
C417 C416 1.376 . S
C418 C402 1.509 . S
C418 C419 1.391 . S
C418 C423 1.386 1_554 S
C419 H380 0.930 . S
C419 C418 1.391 . S
C419 C420 1.375 1_554 S
C420 H381 0.931 . S
C420 C419 1.375 1_556 S
C420 C421 1.375 . S
C421 C420 1.375 . S
C421 C422 1.361 . S
C422 H382 0.930 . S
C422 C421 1.361 . S
C422 C423 1.399 . S
C423 H383 0.929 . S
C423 C418 1.386 1_556 S
C423 C422 1.399 . S
C424 C403 1.485 . S
C424 C425 1.394 . S
C424 C429 1.360 . S
C425 H384 0.931 . S
C425 C424 1.394 . S
C425 C426 1.372 . S
C426 H385 0.930 . S
C426 C425 1.372 . S
C426 C427 1.397 . S
C427 C426 1.397 . S
C427 C428 1.390 . S
C427 C443 1.476 . S
C428 H386 0.930 . S
C428 C427 1.390 . S
C428 C429 1.366 . S
C429 H387 0.932 . S
C429 C424 1.360 . S
C429 C428 1.366 . S
C430 C404 1.490 . S
C430 C431 1.380 . S
C430 C435 1.386 . S
C431 H388 0.930 . S
C431 C430 1.380 . S
C431 C432 1.381 . S
C432 H389 0.929 . S
C432 C431 1.381 . S
C432 C433 1.371 . S
C433 C432 1.371 . S
C433 C434 1.380 . S
C434 H390 0.931 . S
C434 C433 1.380 . S
C434 C435 1.387 . S
C435 H391 0.930 . S
C435 C430 1.386 . S
C435 C434 1.387 . S
C436 C405 1.519 . S
C436 C437 1.377 . S
C436 C441 1.361 . S
C437 H392 0.929 . S
C437 C436 1.377 . S
C437 C438 1.386 . S
C438 H393 0.931 . S
C438 C437 1.386 . S
C438 C439 1.363 . S
C439 C438 1.363 . S
C439 C440 1.385 . S
C440 H394 0.930 . S
C440 C439 1.385 . S
C440 C441 1.396 . S
C441 H395 0.929 . S
C441 C436 1.361 . S
C441 C440 1.396 . S
C442 O396 1.300 . S
C442 O397 1.209 . S
C442 C415 1.486 . S
C443 O398 1.199 . S
C443 O399 1.297 . S
C443 C427 1.476 . S
C444 O471 1.312 . S
C444 O472 1.208 . S
C445 O466 1.331 . S
C445 O469 1.244 . S
C446 O468 1.264 . S
C446 O470 1.273 . S
Mg447 O449 1.946 . S
Mg447 O456 2.101 . S
Mg447 O458 2.016 1_655 S
Mg447 O462 2.036 . S
Mg447 O471 2.276 1_655 S
Mg448 O449 1.963 . S
Mg448 O459 1.942 . S
Mg448 O460 1.955 1_655 S
Mg448 O467 1.986 . S
O449 Mg447 1.946 . S
O449 Mg448 1.963 . S
O449 Mg450 1.915 1_655 S
Mg450 O449 1.915 1_455 S
Mg450 O451 1.915 . S
Mg450 O455 2.013 . S
Mg450 O461 2.114 1_455 S
Mg450 O465 2.013 1_455 S
Mg450 O471 2.114 . S
O451 Mg450 1.915 . S
O451 Mg452 1.936 . S
O451 Mg453 1.963 . S
Mg452 O451 1.936 . S
Mg452 O461 2.291 1_455 S
Mg452 O466 2.081 . S
Mg452 O468 2.023 1_455 S
Mg452 O472 2.031 . S
Mg453 O451 1.963 . S
Mg453 O457 1.986 . S
Mg453 O469 1.942 . S
Mg453 O470 1.955 1_455 S
C454 O465 1.191 . S
C454 O467 1.307 . S
O455 Mg450 2.013 . S
O455 C474 1.191 . S
O456 Mg447 2.101 . S
O456 C464 1.331 . S
O457 Mg453 1.986 . S
O457 C474 1.307 . S
O458 Mg447 2.016 1_455 S
O458 C473 1.264 . S
O459 Mg448 1.942 . S
O459 C464 1.244 . S
O460 Mg448 1.955 1_455 S
O460 C473 1.273 . S
O461 Mg450 2.114 1_655 S
O461 Mg452 2.291 1_655 S
O461 C463 1.312 . S
O462 Mg447 2.036 . S
O462 C463 1.208 . S
C463 O461 1.312 . S
C463 O462 1.208 . S
C464 O456 1.331 . S
C464 O459 1.244 . S
O465 Mg450 2.013 1_655 S
O465 C454 1.191 . S
O466 C445 1.331 . S
O466 Mg452 2.081 . S
O467 Mg448 1.986 . S
O467 C454 1.307 . S
O468 C446 1.264 . S
O468 Mg452 2.023 1_655 S
O469 C445 1.244 . S
O469 Mg453 1.942 . S
O470 C446 1.273 . S
O470 Mg453 1.955 1_655 S
O471 C444 1.312 . S
O471 Mg447 2.276 1_455 S
O471 Mg450 2.114 . S
O472 C444 1.208 . S
O472 Mg452 2.031 . S
C473 O458 1.264 . S
C473 O460 1.273 . S
C474 O455 1.191 . S
C474 O457 1.307 . S
C475 O502 1.312 . S
C475 O503 1.208 . S
C476 O497 1.331 . S
C476 O500 1.244 . S
C477 O499 1.264 . S
C477 O501 1.273 . S
Mg478 O480 1.936 1_545 S
Mg478 O487 2.081 1_545 S
Mg478 O489 2.023 . S
Mg478 O493 2.031 1_545 S
Mg478 O502 2.291 . S
Mg479 O480 1.963 . S
Mg479 O490 1.942 . S
Mg479 O491 1.955 1_565 S
Mg479 O498 1.986 . S
O480 Mg478 1.936 1_565 S
O480 Mg479 1.963 . S
O480 Mg481 1.915 1_565 S
Mg481 O480 1.915 1_545 S
Mg481 O482 1.915 . S
Mg481 O486 2.013 . S
Mg481 O492 2.114 1_545 S
Mg481 O496 2.013 1_545 S
Mg481 O502 2.114 . S
O482 Mg481 1.915 . S
O482 Mg483 1.936 . S
O482 Mg484 1.963 . S
Mg483 O482 1.936 . S
Mg483 O492 2.291 1_545 S
Mg483 O497 2.081 . S
Mg483 O499 2.023 1_545 S
Mg483 O503 2.031 . S
Mg484 O482 1.963 . S
Mg484 O488 1.986 . S
Mg484 O500 1.942 . S
Mg484 O501 1.955 1_545 S
C485 O496 1.191 . S
C485 O498 1.307 . S
O486 Mg481 2.013 . S
O486 C505 1.191 . S
O487 Mg478 2.081 1_565 S
O487 C495 1.331 . S
O488 Mg484 1.986 . S
O488 C505 1.307 . S
O489 Mg478 2.023 . S
O489 C504 1.264 . S
O490 Mg479 1.942 . S
O490 C495 1.244 . S
O491 Mg479 1.955 1_545 S
O491 C504 1.273 . S
O492 Mg481 2.114 1_565 S
O492 Mg483 2.291 1_565 S
O492 C494 1.312 . S
O493 Mg478 2.031 1_565 S
O493 C494 1.208 . S
C494 O492 1.312 . S
C494 O493 1.208 . S
C495 O487 1.331 . S
C495 O490 1.244 . S
O496 Mg481 2.013 1_565 S
O496 C485 1.191 . S
O497 C476 1.331 . S
O497 Mg483 2.081 . S
O498 Mg479 1.986 . S
O498 C485 1.307 . S
O499 C477 1.264 . S
O499 Mg483 2.023 1_565 S
O500 C476 1.244 . S
O500 Mg484 1.942 . S
O501 C477 1.273 . S
O501 Mg484 1.955 1_565 S
O502 C475 1.312 . S
O502 Mg478 2.291 . S
O502 Mg481 2.114 . S
O503 C475 1.208 . S
O503 Mg483 2.031 . S
C504 O489 1.264 . S
C504 O491 1.273 . S
C505 O486 1.191 . S
C505 O488 1.307 . S
C506 O533 1.312 . S
C506 O534 1.208 . S
C507 O528 1.331 . S
C507 O531 1.244 . S
C508 O530 1.264 . S
C508 O532 1.273 . S
Mg509 O511 1.936 . S
Mg509 O518 2.081 . S
Mg509 O520 2.023 . S
Mg509 O524 2.031 . S
Mg509 O533 2.291 . S
Mg510 O511 1.963 . S
Mg510 O521 1.942 . S
Mg510 O522 1.955 . S
Mg510 O529 1.986 . S
O511 Mg509 1.936 . S
O511 Mg510 1.963 . S
O511 Mg512 1.915 . S
Mg512 O511 1.915 . S
Mg512 O513 1.915 . S
Mg512 O517 2.013 . S
Mg512 O523 2.114 . S
Mg512 O527 2.013 . S
Mg512 O533 2.114 . S
O513 Mg512 1.915 . S
O513 Mg514 1.936 . S
O513 Mg515 1.963 . S
Mg514 O513 1.936 . S
Mg514 O523 2.291 . S
Mg514 O528 2.081 . S
Mg514 O530 2.023 . S
Mg514 O534 2.031 . S
Mg515 O513 1.963 . S
Mg515 O519 1.986 . S
Mg515 O531 1.942 . S
Mg515 O532 1.955 . S
C516 O527 1.191 . S
C516 O529 1.307 . S
O517 Mg512 2.013 . S
O517 C536 1.191 . S
O518 Mg509 2.081 . S
O518 C526 1.331 . S
O519 Mg515 1.986 . S
O519 C536 1.307 . S
O520 Mg509 2.023 . S
O520 C535 1.264 . S
O521 Mg510 1.942 . S
O521 C526 1.244 . S
O522 Mg510 1.955 . S
O522 C535 1.273 . S
O523 Mg512 2.114 . S
O523 Mg514 2.291 . S
O523 C525 1.312 . S
O524 Mg509 2.031 . S
O524 C525 1.208 . S
C525 O523 1.312 . S
C525 O524 1.208 . S
C526 O518 1.331 . S
C526 O521 1.244 . S
O527 Mg512 2.013 . S
O527 C516 1.191 . S
O528 C507 1.331 . S
O528 Mg514 2.081 . S
O529 Mg510 1.986 . S
O529 C516 1.307 . S
O530 C508 1.264 . S
O530 Mg514 2.023 . S
O531 C507 1.244 . S
O531 Mg515 1.942 . S
O532 C508 1.273 . S
O532 Mg515 1.955 . S
O533 C506 1.312 . S
O533 Mg509 2.291 . S
O533 Mg512 2.114 . S
O534 C506 1.208 . S
O534 Mg514 2.031 . S
C535 O520 1.264 . S
C535 O522 1.273 . S
C536 O517 1.191 . S
C536 O519 1.307 . S
C537 C538 1.387 . S
C537 H541 0.950 . S
C537 C546 1.390 . S
C538 C537 1.387 . S
C538 C540 1.387 . S
H539 C546 0.950 . S
C540 C538 1.387 . S
C540 C542 1.390 . S
C540 H544 0.950 . S
H541 C537 0.950 . S
C542 C540 1.390 . S
C542 C543 1.387 . S
C542 H545 0.950 . S
C543 C542 1.387 . S
C543 C546 1.387 . S
H544 C540 0.950 . S
H545 C542 0.950 . S
C546 C537 1.390 . S
C546 H539 0.950 . S
C546 C543 1.387 . S
C547 C548 1.387 . S
C547 H551 0.950 . S
C547 C556 1.390 . S
C548 C547 1.387 . S
C548 C550 1.387 . S
H549 C556 0.950 . S
C550 C548 1.387 . S
C550 C552 1.390 . S
C550 H554 0.950 . S
H551 C547 0.950 . S
C552 C550 1.390 . S
C552 C553 1.387 . S
C552 H555 0.950 . S
C553 C552 1.387 . S
C553 C556 1.387 . S
H554 C550 0.950 . S
H555 C552 0.950 . S
C556 C547 1.390 . S
C556 H549 0.950 . S
C556 C553 1.387 . S
C557 C558 1.387 . S
C557 H561 0.950 . S
C557 C566 1.390 . S
C558 C557 1.387 . S
C558 C560 1.387 . S
H559 C566 0.950 . S
C560 C558 1.387 . S
C560 C562 1.390 . S
C560 H564 0.950 . S
H561 C557 0.950 . S
C562 C560 1.390 . S
C562 C563 1.387 . S
C562 H565 0.950 . S
C563 C562 1.387 . S
C563 C566 1.387 . S
H564 C560 0.950 . S
H565 C562 0.950 . S
C566 C557 1.390 . S
C566 H559 0.950 . S
C566 C563 1.387 . S
C567 C568 1.387 . S
C567 H571 0.950 . S
C567 C576 1.390 . S
C568 C567 1.387 . S
C568 C570 1.387 . S
H569 C576 0.950 . S
C570 C568 1.387 . S
C570 C572 1.390 . S
C570 H574 0.950 . S
H571 C567 0.950 . S
C572 C570 1.390 . S
C572 C573 1.387 . S
C572 H575 0.950 . S
C573 C572 1.387 . S
C573 C576 1.387 . S
H574 C570 0.950 . S
H575 C572 0.950 . S
C576 C567 1.390 . S
C576 H569 0.950 . S
C576 C573 1.387 . S
C577 C578 1.387 . S
C577 H581 0.950 . S
C577 C586 1.390 . S
C578 C577 1.387 . S
C578 C580 1.387 . S
H579 C586 0.950 . S
C580 C578 1.387 . S
C580 C582 1.390 . S
C580 H584 0.950 . S
H581 C577 0.950 . S
C582 C580 1.390 . S
C582 C583 1.387 . S
C582 H585 0.950 . S
C583 C582 1.387 . S
C583 C586 1.387 . S
H584 C580 0.950 . S
H585 C582 0.950 . S
C586 C577 1.390 . S
C586 H579 0.950 . S
C586 C583 1.387 . S
C587 C588 1.387 . S
C587 H591 0.950 . S
C587 C596 1.390 . S
C588 C587 1.387 . S
C588 C590 1.387 . S
H589 C596 0.950 . S
C590 C588 1.387 . S
C590 C592 1.390 . S
C590 H594 0.950 . S
H591 C587 0.950 . S
C592 C590 1.390 . S
C592 C593 1.387 . S
C592 H595 0.950 . S
C593 C592 1.387 . S
C593 C596 1.387 . S
H594 C590 0.950 . S
H595 C592 0.950 . S
C596 C587 1.390 . S
C596 H589 0.950 . S
C596 C593 1.387 . S
C597 C598 1.387 . S
C597 H601 0.950 . S
C597 C606 1.390 . S
C598 C597 1.387 . S
C598 C600 1.387 . S
H599 C606 0.950 . S
C600 C598 1.387 . S
C600 C602 1.390 . S
C600 H604 0.950 . S
H601 C597 0.950 . S
C602 C600 1.390 . S
C602 C603 1.387 . S
C602 H605 0.950 . S
C603 C602 1.387 . S
C603 C606 1.387 . S
H604 C600 0.950 . S
H605 C602 0.950 . S
C606 C597 1.390 . S
C606 H599 0.950 . S
C606 C603 1.387 . S
C607 C608 1.387 . S
C607 H611 0.950 . S
C607 C616 1.390 . S
C608 C607 1.387 . S
C608 C610 1.387 . S
H609 C616 0.950 . S
C610 C608 1.387 . S
C610 C612 1.390 . S
C610 H614 0.950 . S
H611 C607 0.950 . S
C612 C610 1.390 . S
C612 C613 1.387 . S
C612 H615 0.950 . S
C613 C612 1.387 . S
C613 C616 1.387 . S
H614 C610 0.950 . S
H615 C612 0.950 . S
C616 C607 1.390 . S
C616 H609 0.950 . S
C616 C613 1.387 . S
C617 C618 1.387 . S
C617 H621 0.950 . S
C617 C626 1.390 . S
C618 C617 1.387 . S
C618 C620 1.387 . S
H619 C626 0.950 . S
C620 C618 1.387 . S
C620 C622 1.390 . S
C620 H624 0.950 . S
H621 C617 0.950 . S
C622 C620 1.390 . S
C622 C623 1.387 . S
C622 H625 0.950 . S
C623 C622 1.387 . S
C623 C626 1.387 . S
H624 C620 0.950 . S
H625 C622 0.950 . S
C626 C617 1.390 . S
C626 H619 0.950 . S
C626 C623 1.387 . S
C627 C628 1.387 . S
C627 H631 0.950 . S
C627 C636 1.390 . S
C628 C627 1.387 . S
C628 C630 1.387 . S
H629 C636 0.950 . S
C630 C628 1.387 . S
C630 C632 1.390 . S
C630 H634 0.950 . S
H631 C627 0.950 . S
C632 C630 1.390 . S
C632 C633 1.387 . S
C632 H635 0.950 . S
C633 C632 1.387 . S
C633 C636 1.387 . S
H634 C630 0.950 . S
H635 C632 0.950 . S
C636 C627 1.390 . S
C636 H629 0.950 . S
C636 C633 1.387 . S
C637 C638 1.387 . S
C637 H641 0.950 . S
C637 C646 1.390 . S
C638 C637 1.387 . S
C638 C640 1.387 . S
H639 C646 0.950 . S
C640 C638 1.387 . S
C640 C642 1.390 . S
C640 H644 0.950 . S
H641 C637 0.950 . S
C642 C640 1.390 . S
C642 C643 1.387 . S
C642 H645 0.950 . S
C643 C642 1.387 . S
C643 C646 1.387 . S
H644 C640 0.950 . S
H645 C642 0.950 . S
C646 C637 1.390 . S
C646 H639 0.950 . S
C646 C643 1.387 . S
C647 C648 1.387 . S
C647 H651 0.950 . S
C647 C656 1.390 . S
C648 C647 1.387 . S
C648 C650 1.387 . S
H649 C656 0.950 . S
C650 C648 1.387 . S
C650 C652 1.390 . S
C650 H654 0.950 . S
H651 C647 0.950 . S
C652 C650 1.390 . S
C652 C653 1.387 . S
C652 H655 0.950 . S
C653 C652 1.387 . S
C653 C656 1.387 . S
H654 C650 0.950 . S
H655 C652 0.950 . S
C656 C647 1.390 . S
C656 H649 0.950 . S
C656 C653 1.387 . S
C657 C658 1.387 . S
C657 H661 0.950 . S
C657 C666 1.390 . S
C658 C657 1.387 . S
C658 C660 1.387 . S
H659 C666 0.950 . S
C660 C658 1.387 . S
C660 C662 1.390 . S
C660 H664 0.950 . S
H661 C657 0.950 . S
C662 C660 1.390 . S
C662 C663 1.387 . S
C662 H665 0.950 . S
C663 C662 1.387 . S
C663 C666 1.387 . S
H664 C660 0.950 . S
H665 C662 0.950 . S
C666 C657 1.390 . S
C666 H659 0.950 . S
C666 C663 1.387 . S
C667 C668 1.387 . S
C667 H671 0.950 . S
C667 C676 1.390 . S
C668 C667 1.387 . S
C668 C670 1.387 . S
H669 C676 0.950 . S
C670 C668 1.387 . S
C670 C672 1.390 . S
C670 H674 0.950 . S
H671 C667 0.950 . S
C672 C670 1.390 . S
C672 C673 1.387 . S
C672 H675 0.950 . S
C673 C672 1.387 . S
C673 C676 1.387 . S
H674 C670 0.950 . S
H675 C672 0.950 . S
C676 C667 1.390 . S
C676 H669 0.950 . S
C676 C673 1.387 . S
C677 C678 1.387 . S
C677 H681 0.950 . S
C677 C686 1.390 . S
C678 C677 1.387 . S
C678 C680 1.387 . S
H679 C686 0.950 . S
C680 C678 1.387 . S
C680 C682 1.390 . S
C680 H684 0.950 1_556 S
H681 C677 0.950 . S
C682 C680 1.390 . S
C682 C683 1.387 . S
C682 H685 0.950 . S
C683 C682 1.387 . S
C683 C686 1.387 . S
H684 C680 0.950 1_554 S
H685 C682 0.950 . S
C686 C677 1.390 . S
C686 H679 0.950 . S
C686 C683 1.387 . S
C687 C688 1.387 . S
C687 H691 0.950 . S
C687 C696 1.390 . S
C688 C687 1.387 . S
C688 C690 1.387 . S
H689 C696 0.950 . S
C690 C688 1.387 . S
C690 C692 1.390 . S
C690 H694 0.950 . S
H691 C687 0.950 . S
C692 C690 1.390 . S
C692 C693 1.387 . S
C692 H695 0.950 . S
C693 C692 1.387 . S
C693 C696 1.387 . S
H694 C690 0.950 . S
H695 C692 0.950 . S
C696 C687 1.390 . S
C696 H689 0.950 . S
C696 C693 1.387 . S
C697 C698 1.387 . S
C697 H701 0.950 . S
C697 C706 1.390 . S
C698 C697 1.387 . S
C698 C700 1.387 . S
H699 C706 0.950 . S
C700 C698 1.387 . S
C700 C702 1.390 . S
C700 H704 0.950 . S
H701 C697 0.950 . S
C702 C700 1.390 . S
C702 C703 1.387 . S
C702 H705 0.950 . S
C703 C702 1.387 . S
C703 C706 1.387 . S
H704 C700 0.950 . S
H705 C702 0.950 . S
C706 C697 1.390 . S
C706 H699 0.950 . S
C706 C703 1.387 . S
C707 C708 1.387 . S
C707 H711 0.950 . S
C707 C716 1.390 . S
C708 C707 1.387 . S
C708 C710 1.387 . S
H709 C716 0.950 . S
C710 C708 1.387 . S
C710 C712 1.390 . S
C710 H714 0.950 . S
H711 C707 0.950 . S
C712 C710 1.390 . S
C712 C713 1.387 . S
C712 H715 0.950 . S
C713 C712 1.387 . S
C713 C716 1.387 . S
H714 C710 0.950 . S
H715 C712 0.950 . S
C716 C707 1.390 . S
C716 H709 0.950 . S
C716 C713 1.387 . S
C717 C718 1.387 . S
C717 H721 0.950 . S
C717 C726 1.390 . S
C718 C717 1.387 . S
C718 C720 1.387 . S
H719 C726 0.950 . S
C720 C718 1.387 . S
C720 C722 1.390 . S
C720 H724 0.950 . S
H721 C717 0.950 . S
C722 C720 1.390 . S
C722 C723 1.387 . S
C722 H725 0.950 . S
C723 C722 1.387 . S
C723 C726 1.387 . S
H724 C720 0.950 . S
H725 C722 0.950 . S
C726 C717 1.390 . S
C726 H719 0.950 . S
C726 C723 1.387 . S
C727 C728 1.387 . S
C727 H731 0.950 . S
C727 C736 1.390 . S
C728 C727 1.387 . S
C728 C730 1.387 . S
H729 C736 0.950 . S
C730 C728 1.387 . S
C730 C732 1.390 . S
C730 H734 0.950 . S
H731 C727 0.950 . S
C732 C730 1.390 . S
C732 C733 1.387 . S
C732 H735 0.950 . S
C733 C732 1.387 . S
C733 C736 1.387 . S
H734 C730 0.950 . S
H735 C732 0.950 . S
C736 C727 1.390 . S
C736 H729 0.950 . S
C736 C733 1.387 . S
C737 C738 1.387 . S
C737 H741 0.950 . S
C737 C746 1.390 . S
C738 C737 1.387 . S
C738 C740 1.387 . S
H739 C746 0.950 . S
C740 C738 1.387 . S
C740 C742 1.390 . S
C740 H744 0.950 . S
H741 C737 0.950 . S
C742 C740 1.390 . S
C742 C743 1.387 . S
C742 H745 0.950 . S
C743 C742 1.387 . S
C743 C746 1.387 . S
H744 C740 0.950 . S
H745 C742 0.950 . S
C746 C737 1.390 . S
C746 H739 0.950 . S
C746 C743 1.387 . S
C747 C748 1.387 . S
C747 H751 0.950 . S
C747 C756 1.390 . S
C748 C747 1.387 . S
C748 C750 1.387 . S
H749 C756 0.950 . S
C750 C748 1.387 . S
C750 C752 1.390 . S
C750 H754 0.950 . S
H751 C747 0.950 . S
C752 C750 1.390 . S
C752 C753 1.387 . S
C752 H755 0.950 . S
C753 C752 1.387 . S
C753 C756 1.387 . S
H754 C750 0.950 . S
H755 C752 0.950 . S
C756 C747 1.390 . S
C756 H749 0.950 . S
C756 C753 1.387 . S
C757 C758 1.387 . S
C757 H761 0.950 . S
C757 C766 1.390 . S
C758 C757 1.387 . S
C758 C760 1.387 . S
H759 C766 0.950 . S
C760 C758 1.387 . S
C760 C762 1.390 . S
C760 H764 0.950 . S
H761 C757 0.950 . S
C762 C760 1.390 . S
C762 C763 1.387 . S
C762 H765 0.950 . S
C763 C762 1.387 . S
C763 C766 1.387 . S
H764 C760 0.950 . S
H765 C762 0.950 . S
C766 C757 1.390 . S
C766 H759 0.950 . S
C766 C763 1.387 . S
C767 C768 1.387 . S
C767 H771 0.950 . S
C767 C776 1.390 . S
C768 C767 1.387 . S
C768 C770 1.387 . S
H769 C776 0.950 . S
C770 C768 1.387 . S
C770 C772 1.390 . S
C770 H774 0.950 . S
H771 C767 0.950 . S
C772 C770 1.390 . S
C772 C773 1.387 . S
C772 H775 0.950 . S
C773 C772 1.387 . S
C773 C776 1.387 . S
H774 C770 0.950 . S
H775 C772 0.950 . S
C776 C767 1.390 . S
C776 H769 0.950 . S
C776 C773 1.387 . S
C538 C39 1.852 . S
C543 C444 1.809 . S
C548 C125 1.054 . S
C553 C476 1.059 . S
C563 C535 2.314 . S
C558 C211 2.132 . S
C573 C464 0.938 . S
C568 C273 0.955 . S
C578 C335 1.967 . S
C583 C494 1.973 . S
C593 C516 1.722 . S
C588 C439 1.692 . S
C603 C485 1.825 . S
C598 C187 1.826 . S
C608 C291 1.794 . S
C613 C525 1.734 . S
C623 C474 2.352 . S
C618 C359 2.046 . S
C628 C421 0.953 . S
C633 C504 0.935 . S
C638 C63 2.067 . S
C643 C507 2.237 . S
C653 C446 1.940 . S
C648 C143 1.946 . S
C663 C454 2.259 . S
C658 C285 2.075 . S
C673 C495 1.788 . S
C668 C365 1.830 . S
C683 C508 2.083 . S
C678 C409 2.069 1_556 S
C693 C445 1.728 . S
C688 C69 1.783 1_556 S
C703 C505 2.025 . S
C698 C137 1.912 . S
C708 C199 0.639 . S
C713 C506 0.606 . S
C723 C475 2.291 . S
C718 C433 2.032 . S
C733 C536 0.700 . S
C728 C51 0.697 . S
C743 C463 1.762 . S
C738 C113 1.867 . S
C753 C477 1.799 . S
C748 C217 1.852 . S
C758 C261 2.013 . S
C763 C526 2.025 . S
C768 C347 0.844 . S
C773 C473 0.842 . S
