# Generated by pormake.
# Topology nom, (4,4)-cn, num edge types: 1
# Building blocks:
#     Node 0, Type 0, BuildingBlock: MIFKUJ_clean_linker_1, # of connection points: 4
#     Node 1, Type 0, BuildingBlock: MIFKUJ_clean_linker_1, # of connection points: 4
#     Node 2, Type 0, BuildingBlock: MIFKUJ_clean_linker_1, # of connection points: 4
#     Node 3, Type 0, BuildingBlock: MIFKUJ_clean_linker_1, # of connection points: 4
#     Node 4, Type 0, BuildingBlock: MIFKUJ_clean_linker_1, # of connection points: 4
#     Node 5, Type 0, BuildingBlock: MIFKUJ_clean_linker_1, # of connection points: 4
#     Node 6, Type 1, BuildingBlock: KUFVIS_clean_sbu_0, # of connection points: 4
#     Node 7, Type 1, BuildingBlock: KUFVIS_clean_sbu_0, # of connection points: 4
#     Node 8, Type 1, BuildingBlock: KUFVIS_clean_sbu_0, # of connection points: 4
#     Node 9, Type 1, BuildingBlock: KUFVIS_clean_sbu_0, # of connection points: 4
#     Node 10, Type 1, BuildingBlock: KUFVIS_clean_sbu_0, # of connection points: 4
#     Node 11, Type 1, BuildingBlock: KUFVIS_clean_sbu_0, # of connection points: 4
#     Edge 12, Type (0, 1), BuildingBlock: OJICUG_clean_linker_0, # of connection points: 2
#     Edge 13, Type (0, 1), BuildingBlock: OJICUG_clean_linker_0, # of connection points: 2
#     Edge 14, Type (0, 1), BuildingBlock: OJICUG_clean_linker_0, # of connection points: 2
#     Edge 15, Type (0, 1), BuildingBlock: OJICUG_clean_linker_0, # of connection points: 2
#     Edge 16, Type (0, 1), BuildingBlock: OJICUG_clean_linker_0, # of connection points: 2
#     Edge 17, Type (0, 1), BuildingBlock: OJICUG_clean_linker_0, # of connection points: 2
#     Edge 18, Type (0, 1), BuildingBlock: OJICUG_clean_linker_0, # of connection points: 2
#     Edge 19, Type (0, 1), BuildingBlock: OJICUG_clean_linker_0, # of connection points: 2
#     Edge 20, Type (0, 1), BuildingBlock: OJICUG_clean_linker_0, # of connection points: 2
#     Edge 21, Type (0, 1), BuildingBlock: OJICUG_clean_linker_0, # of connection points: 2
#     Edge 22, Type (0, 1), BuildingBlock: OJICUG_clean_linker_0, # of connection points: 2
#     Edge 23, Type (0, 1), BuildingBlock: OJICUG_clean_linker_0, # of connection points: 2
#     Edge 24, Type (0, 1), BuildingBlock: OJICUG_clean_linker_0, # of connection points: 2
#     Edge 25, Type (0, 1), BuildingBlock: OJICUG_clean_linker_0, # of connection points: 2
#     Edge 26, Type (0, 1), BuildingBlock: OJICUG_clean_linker_0, # of connection points: 2
#     Edge 27, Type (0, 1), BuildingBlock: OJICUG_clean_linker_0, # of connection points: 2
#     Edge 28, Type (0, 1), BuildingBlock: OJICUG_clean_linker_0, # of connection points: 2
#     Edge 29, Type (0, 1), BuildingBlock: OJICUG_clean_linker_0, # of connection points: 2
#     Edge 30, Type (0, 1), BuildingBlock: OJICUG_clean_linker_0, # of connection points: 2
#     Edge 31, Type (0, 1), BuildingBlock: OJICUG_clean_linker_0, # of connection points: 2
#     Edge 32, Type (0, 1), BuildingBlock: OJICUG_clean_linker_0, # of connection points: 2
#     Edge 33, Type (0, 1), BuildingBlock: OJICUG_clean_linker_0, # of connection points: 2
#     Edge 34, Type (0, 1), BuildingBlock: OJICUG_clean_linker_0, # of connection points: 2
#     Edge 35, Type (0, 1), BuildingBlock: OJICUG_clean_linker_0, # of connection points: 2
# Relax obj value: 0.002
# Max RMSD: 0.100
# Mean RMSD: 0.062
data_MOF--net-nom--node1-KUFVIS_clean_sbu_0--node2-MIFKUJ_clean_linker_1--edge1-OJICUG_clean_linker_0
_symmetry_space_group_name_H-M    P1
_symmetry_Int_Tables_number       1
_symmetry_cell_setting            triclinic
loop_
_symmetry_equiv_pos_as_xyz
'x, y, z'
_cell_length_a     40.898506
_cell_length_b     41.327362
_cell_length_c     43.643016
_cell_angle_alpha  90.69168
_cell_angle_beta   90.692213
_cell_angle_gamma 120.03045
loop_
_atom_site_label
_atom_site_type_symbol
_atom_site_fract_x
_atom_site_fract_y
_atom_site_fract_z
_atom_type_partial_charge
H0 H 0.98754 0.48771 0.2522 0.0
H1 H 0.9472 0.46589 0.20617 0.0
H2 H 0.88476 0.51735 0.239 0.0
H3 H 0.92742 0.54252 0.28398 0.0
H4 H 0.03514 0.5524 0.27009 0.0
H5 H 0.91312 0.45865 0.31528 0.0
H6 H 0.84708 0.43451 0.3297 0.0
H7 H 0.88027 0.53811 0.37897 0.0
H8 H 0.94503 0.5624 0.36339 0.0
H9 H 0.04707 0.6074 0.39422 0.0
H10 H 0.0891 0.62661 0.43921 0.0
H11 H 0.13406 0.55744 0.40731 0.0
H12 H 0.09242 0.539 0.36224 0.0
H13 H 0.99212 0.53938 0.37713 0.0
H14 H 0.10737 0.63307 0.33794 0.0
H15 H 0.17368 0.66771 0.32376 0.0
H16 H 0.15599 0.57702 0.26292 0.0
H17 H 0.08987 0.54145 0.27821 0.0
C18 C 0.96021 0.51623 0.27208 0.0
C19 C 0.96538 0.49463 0.24958 0.0
C20 C 0.94222 0.48188 0.22337 0.0
C21 C 0.91274 0.48948 0.21954 0.0
C22 C 0.90726 0.51096 0.24182 0.0
C23 C 0.9313 0.52486 0.26766 0.0
C24 C 0.98662 0.53101 0.29904 0.0
C25 C 0.02564 0.5488 0.29355 0.0
C26 C 0.97435 0.52831 0.32965 0.0
C27 C 0.93404 0.51259 0.33788 0.0
C28 C 0.90595 0.47623 0.32886 0.0
C29 C 0.86828 0.46233 0.33739 0.0
C30 C 0.85817 0.4845 0.35521 0.0
C31 C 0.88666 0.52052 0.36461 0.0
C32 C 0.92394 0.53438 0.35596 0.0
C33 C 0.06674 0.5719 0.37483 0.0
C34 C 0.06605 0.59643 0.397 0.0
C35 C 0.08997 0.60719 0.42282 0.0
C36 C 0.11485 0.59334 0.42721 0.0
C37 C 0.1156 0.56897 0.40473 0.0
C38 C 0.09176 0.55833 0.37887 0.0
C39 C 0.04026 0.55948 0.34807 0.0
C40 C 1.00145 0.54232 0.35363 0.0
C41 C 0.05271 0.56344 0.31751 0.0
C42 C 0.09352 0.58419 0.30966 0.0
C43 C 0.11782 0.62007 0.32218 0.0
C44 C 0.15571 0.64001 0.31391 0.0
C45 C 0.16994 0.62496 0.29232 0.0
C46 C 0.14567 0.58929 0.27954 0.0
C47 C 0.10791 0.56901 0.28827 0.0
H48 H 0.39532 0.94293 0.51854 0.0
H49 H 0.36016 0.87849 0.53623 0.0
H50 H 0.45278 0.86212 0.51114 0.0
H51 H 0.48817 0.92693 0.49427 0.0
H52 H 0.47209 0.99747 0.5431 0.0
H53 H 0.41486 0.97068 0.42601 0.0
H54 H 0.39756 0.9294 0.38056 0.0
H55 H 0.49041 0.91069 0.40072 0.0
H56 H 0.50823 0.95293 0.44521 0.0
H57 H 0.56385 0.09386 0.44312 0.0
H58 H 0.59365 0.15947 0.42827 0.0
H59 H 0.52022 0.17592 0.48861 0.0
H60 H 0.48916 0.11012 0.50226 0.0
H61 H 0.4989 0.03793 0.43535 0.0
H62 H 0.57095 0.0969 0.52797 0.0
H63 H 0.5943 0.1384 0.57291 0.0
H64 H 0.47953 0.09413 0.60311 0.0
H65 H 0.45665 0.05202 0.5584 0.0
C66 C 0.44392 0.93943 0.50425 0.0
C67 C 0.4079 0.92534 0.51661 0.0
C68 C 0.38799 0.88864 0.52694 0.0
C69 C 0.40371 0.86522 0.52508 0.0
C70 C 0.43973 0.87933 0.5125 0.0
C71 C 0.45983 0.91624 0.50253 0.0
C72 C 0.46597 0.97937 0.49595 0.0
C73 C 0.47793 0.00644 0.51954 0.0
C74 C 0.47424 0.99101 0.46533 0.0
C75 C 0.46223 0.96404 0.43931 0.0
C76 C 0.43127 0.95744 0.42062 0.0
C77 C 0.42162 0.93411 0.39459 0.0
C78 C 0.44272 0.91688 0.38694 0.0
C79 C 0.47348 0.92335 0.40599 0.0
C80 C 0.48348 0.94717 0.43165 0.0
C81 C 0.52458 0.0969 0.47432 0.0
C82 C 0.55397 0.11147 0.45309 0.0
C83 C 0.57105 0.14896 0.44461 0.0
C84 C 0.55946 0.1728 0.45751 0.0
C85 C 0.53012 0.1583 0.4787 0.0
C86 C 0.51254 0.12068 0.48668 0.0
C87 C 0.50564 0.05663 0.48262 0.0
C88 C 0.49363 0.02934 0.45901 0.0
C89 C 0.49808 0.0448 0.51339 0.0
C90 C 0.51209 0.07148 0.53982 0.0
C91 C 0.55086 0.09637 0.54421 0.0
C92 C 0.56413 0.12016 0.56999 0.0
C93 C 0.53889 0.11956 0.59198 0.0
C94 C 0.49995 0.09489 0.58715 0.0
C95 C 0.48674 0.07094 0.56146 0.0
H96 H 0.52259 0.56629 0.72447 0.0
H97 H 0.50128 0.58629 0.76933 0.0
H98 H 0.38531 0.50805 0.74334 0.0
H99 H 0.40684 0.48774 0.69887 0.0
H100 H 0.50823 0.49316 0.71205 0.0
H101 H 0.48216 0.58535 0.65859 0.0
H102 H 0.44119 0.60968 0.64181 0.0
H103 H 0.35698 0.49837 0.61096 0.0
H104 H 0.39863 0.47503 0.62639 0.0
H105 H 0.46219 0.43482 0.58753 0.0
H106 H 0.48489 0.41494 0.54378 0.0
H107 H 0.59984 0.48534 0.57706 0.0
H108 H 0.5767 0.50422 0.62104 0.0
H109 H 0.47381 0.50158 0.6043 0.0
H110 H 0.49434 0.40995 0.64499 0.0
H111 H 0.5238 0.37346 0.65943 0.0
H112 H 0.60083 0.46274 0.72069 0.0
H113 H 0.57255 0.50034 0.70502 0.0
C114 C 0.46631 0.52578 0.70821 0.0
C115 C 0.49258 0.55366 0.72836 0.0
C116 C 0.48035 0.56521 0.75386 0.0
C117 C 0.44161 0.54877 0.75986 0.0
C118 C 0.41535 0.52105 0.73946 0.0
C119 C 0.42759 0.50967 0.71389 0.0
C120 C 0.47952 0.51229 0.68213 0.0
C121 C 0.50159 0.49573 0.68839 0.0
C122 C 0.46873 0.51363 0.65153 0.0
C123 C 0.4435 0.52848 0.64344 0.0
C124 C 0.4548 0.56634 0.64822 0.0
C125 C 0.43126 0.58013 0.63875 0.0
C126 C 0.39592 0.55617 0.62454 0.0
C127 C 0.38439 0.51798 0.6209 0.0
C128 C 0.40805 0.50444 0.62993 0.0
C129 C 0.51771 0.47093 0.60763 0.0
C130 C 0.4923 0.44597 0.58532 0.0
C131 C 0.50541 0.43479 0.56017 0.0
C132 C 0.54435 0.44871 0.5565 0.0
C133 C 0.56968 0.47365 0.57906 0.0
C134 C 0.55651 0.4846 0.6043 0.0
C135 C 0.50373 0.48337 0.63398 0.0
C136 C 0.48131 0.49956 0.62785 0.0
C137 C 0.51306 0.48029 0.66481 0.0
C138 C 0.53174 0.45846 0.67325 0.0
C139 C 0.51825 0.4223 0.66086 0.0
C140 C 0.53489 0.40126 0.66932 0.0
C141 C 0.5647 0.41541 0.69102 0.0
C142 C 0.57785 0.45123 0.70392 0.0
C143 C 0.56168 0.47266 0.69496 0.0
H144 H 0.04901 0.57213 0.75933 0.0
H145 H 0.0903 0.59154 0.7149 0.0
H146 H 0.12488 0.51144 0.73756 0.0
H147 H 0.08306 0.49175 0.78144 0.0
H148 H 0.98772 0.49604 0.77078 0.0
H149 H 0.11067 0.59278 0.82892 0.0
H150 H 0.17593 0.6144 0.84635 0.0
H151 H 0.14507 0.50014 0.86514 0.0
H152 H 0.08024 0.47943 0.84922 0.0
H153 H 0.98979 0.44983 0.89713 0.0
H154 H 0.94969 0.42803 0.94155 0.0
H155 H 0.88147 0.47176 0.90425 0.0
H156 H 0.92364 0.49612 0.86093 0.0
H157 H 0.03567 0.5113 0.87795 0.0
H158 H 0.93055 0.41141 0.83354 0.0
H159 H 0.8655 0.36656 0.81856 0.0
H160 H 0.8584 0.45203 0.76784 0.0
H161 H 0.92372 0.4974 0.78365 0.0
C162 C 0.06326 0.5308 0.77388 0.0
C163 C 0.06564 0.55892 0.75475 0.0
C164 C 0.08944 0.57014 0.72951 0.0
C165 C 0.11096 0.5531 0.7227 0.0
C166 C 0.1085 0.52496 0.742 0.0
C167 C 0.08487 0.5139 0.76728 0.0
C168 C 0.03725 0.51821 0.80015 0.0
C169 C 0.99808 0.50018 0.79432 0.0
C170 C 0.05062 0.52116 0.8306 0.0
C171 C 0.09077 0.53463 0.83813 0.0
C172 C 0.11826 0.57258 0.83673 0.0
C173 C 0.1555 0.5848 0.84656 0.0
C174 C 0.16567 0.55911 0.85771 0.0
C175 C 0.13813 0.52091 0.85766 0.0
C176 C 0.10107 0.50891 0.84832 0.0
C177 C 0.9599 0.47468 0.87545 0.0
C178 C 0.96644 0.45511 0.89858 0.0
C179 C 0.94299 0.44209 0.92389 0.0
C180 C 0.91197 0.44781 0.92662 0.0
C181 C 0.90527 0.46715 0.90327 0.0
C182 C 0.92913 0.4807 0.87815 0.0
C183 C 0.98575 0.4893 0.84891 0.0
C184 C 0.02491 0.50789 0.85458 0.0
C185 C 0.97217 0.48421 0.81816 0.0
C186 C 0.93191 0.45791 0.81001 0.0
C187 C 0.91486 0.42076 0.81964 0.0
C188 C 0.87776 0.39503 0.81081 0.0
C189 C 0.85688 0.40572 0.79189 0.0
C190 C 0.87369 0.44309 0.78264 0.0
C191 C 0.91103 0.46893 0.79147 0.0
H192 H 0.61527 0.08465 0.01775 0.0
H193 H 0.65976 0.14891 0.03326 0.0
H194 H 0.57696 0.18076 0.00911 0.0
H195 H 0.53307 0.11609 0.99202 0.0
H196 H 0.53859 0.04031 0.04307 0.0
H197 H 0.60686 0.08858 0.94842 0.0
H198 H 0.6297 0.13031 0.90481 0.0
H199 H 0.5147 0.09745 0.87912 0.0
H200 H 0.49207 0.05622 0.92326 0.0
H201 H 0.44199 0.93625 0.94285 0.0
H202 H 0.41644 0.87039 0.92762 0.0
H203 H 0.49847 0.86483 0.98708 0.0
H204 H 0.52509 0.93073 1.0011 0.0
H205 H 0.50601 0.99516 0.93518 0.0
H206 H 0.43962 0.93158 0.02499 0.0
H207 H 0.42138 0.88905 0.06803 0.0
H208 H 0.535 0.95283 0.10576 0.0
H209 H 0.55355 0.99321 0.06181 0.0
C210 C 0.5709 0.09568 1.004 0.0
C211 C 0.60679 0.10554 0.01568 0.0
C212 C 0.63208 0.14232 0.02477 0.0
C213 C 0.62177 0.17006 0.02309 0.0
C214 C 0.58594 0.16024 0.01065 0.0
C215 C 0.56074 0.1233 1.00104 0.0
C216 C 0.5442 0.05605 0.99589 0.0
C217 C 0.53127 0.03012 0.01954 0.0
C218 C 0.53389 0.04343 0.96523 0.0
C219 C 0.54778 0.0696 0.93928 0.0
C220 C 0.58659 0.09076 0.93366 0.0
C221 C 0.59959 0.11436 0.90855 0.0
C222 C 0.57402 0.11721 0.88846 0.0
C223 C 0.53515 0.09625 0.89435 0.0
C224 C 0.52216 0.07249 0.91942 0.0
C225 C 0.48493 0.93837 0.97374 0.0
C226 C 0.45454 0.9209 0.95256 0.0
C227 C 0.43997 0.88335 0.94386 0.0
C228 C 0.45527 0.86258 0.95648 0.0
C229 C 0.48577 0.8801 0.97744 0.0
C230 C 0.50081 0.91771 0.98562 0.0
C231 C 0.50137 0.97857 0.98242 0.0
C232 C 0.51223 0.00484 0.95888 0.0
C233 C 0.50993 0.99145 0.0134 0.0
C234 C 0.49812 0.96557 0.03982 0.0
C235 C 0.46073 0.93603 0.0423 0.0
C236 C 0.4502 0.91194 0.06722 0.0
C237 C 0.47668 0.91717 0.0905 0.0
C238 C 0.51391 0.94716 0.08808 0.0
C239 C 0.5245 0.9708 0.06305 0.0
H240 H 0.49571 0.46678 0.22377 0.0
H241 H 0.51665 0.44691 0.26904 0.0
H242 H 0.63283 0.51931 0.24442 0.0
H243 H 0.61175 0.53923 0.19938 0.0
H244 H 0.51414 0.54112 0.21162 0.0
H245 H 0.53504 0.44436 0.16406 0.0
H246 H 0.57174 0.41527 0.14775 0.0
H247 H 0.64999 0.51713 0.10283 0.0
H248 H 0.61343 0.54589 0.11912 0.0
H249 H 0.56102 0.59531 0.08879 0.0
H250 H 0.54038 0.61734 0.04506 0.0
H251 H 0.42528 0.55519 0.0761 0.0
H252 H 0.4464 0.5342 0.11993 0.0
H253 H 0.54328 0.52652 0.10409 0.0
H254 H 0.54042 0.62663 0.14938 0.0
H255 H 0.51969 0.67046 0.16403 0.0
H256 H 0.42778 0.58379 0.21416 0.0
H257 H 0.44825 0.53939 0.19866 0.0
C258 C 0.55215 0.50431 0.20812 0.0
C259 C 0.52568 0.47811 0.22802 0.0
C260 C 0.53766 0.46661 0.25375 0.0
C261 C 0.57639 0.48157 0.2603 0.0
C262 C 0.60282 0.50748 0.2401 0.0
C263 C 0.59081 0.5187 0.21425 0.0
C264 C 0.53941 0.51805 0.18188 0.0
C265 C 0.51974 0.53718 0.18804 0.0
C266 C 0.54889 0.51504 0.15128 0.0
C267 C 0.57156 0.49737 0.14293 0.0
C268 C 0.56032 0.4605 0.15098 0.0
C269 C 0.58125 0.44389 0.14157 0.0
C270 C 0.61358 0.46378 0.12373 0.0
C271 C 0.62482 0.50076 0.11598 0.0
C272 C 0.60406 0.51733 0.12545 0.0
C273 C 0.50527 0.56318 0.10764 0.0
C274 C 0.53134 0.58649 0.08607 0.0
C275 C 0.51939 0.59888 0.06095 0.0
C276 C 0.48099 0.58783 0.05664 0.0
C277 C 0.45508 0.56468 0.07857 0.0
C278 C 0.46709 0.55252 0.10375 0.0
C279 C 0.51772 0.54909 0.1338 0.0
C280 C 0.5372 0.52995 0.12766 0.0
C281 C 0.50985 0.55379 0.16448 0.0
C282 C 0.4957 0.57957 0.17266 0.0
C283 C 0.51541 0.61676 0.16309 0.0
C284 C 0.50372 0.64193 0.17172 0.0
C285 C 0.47221 0.63065 0.1904 0.0
C286 C 0.45198 0.59321 0.19956 0.0
C287 C 0.46381 0.56793 0.19093 0.0
Mn288 Mn 0.62812 0.38701 0.41519 0.0
Mn289 Mn 0.67102 0.47941 0.43235 0.0
C290 C 0.60168 0.40963 0.45007 0.0
C291 C 0.61815 0.32713 0.42465 0.0
C292 C 0.62578 0.44542 0.37357 0.0
O293 O 0.68158 0.40607 0.3995 0.0
O294 O 0.70707 0.467 0.4128 0.0
C295 C 0.72359 0.48141 0.48053 0.0
N296 N 0.69559 0.48817 0.47157 0.0
C297 C 0.69483 0.51309 0.5215 0.0
C298 C 0.72382 0.50661 0.53123 0.0
C299 C 0.73818 0.4906 0.51067 0.0
C300 C 0.68137 0.50329 0.49122 0.0
H301 H 0.73464 0.46906 0.4648 0.0
C302 C 0.70916 0.43971 0.40067 0.0
O303 O 0.6102 0.33556 0.39806 0.0
O304 O 0.63352 0.3539 0.44508 0.0
N305 N 0.63966 0.49567 0.45136 0.0
C306 C 0.61107 0.49921 0.43858 0.0
C307 C 0.59326 0.51435 0.45623 0.0
C308 C 0.60534 0.5261 0.48667 0.0
C309 C 0.63527 0.5228 0.49914 0.0
C310 C 0.65202 0.50764 0.48041 0.0
H311 H 0.6018 0.49037 0.41515 0.0
O312 O 0.58092 0.37772 0.43608 0.0
O313 O 0.63723 0.42734 0.44326 0.0
O314 O 0.61653 0.41158 0.37902 0.0
O315 O 0.64583 0.47272 0.39206 0.0
C316 C 0.64891 0.53363 0.52949 0.0
C317 C 0.6785 0.52856 0.54073 0.0
H318 H 0.73513 0.51363 0.55446 0.0
H319 H 0.76044 0.48536 0.51805 0.0
H320 H 0.57025 0.5169 0.44641 0.0
H321 H 0.59137 0.53751 0.50029 0.0
H322 H 0.63653 0.54546 0.54451 0.0
H323 H 0.68836 0.53649 0.56425 0.0
Mn324 Mn 0.25928 0.65239 0.57146 0.0
Mn325 Mn 0.2097 0.56063 0.55228 0.0
C326 C 0.20968 0.63042 0.53605 0.0
C327 C 0.30973 0.71239 0.56274 0.0
C328 C 0.20057 0.59279 0.61259 0.0
O329 O 0.29353 0.63277 0.587 0.0
O330 O 0.26053 0.57352 0.56826 0.0
C331 C 0.25534 0.56044 0.50019 0.0
N332 N 0.22139 0.55273 0.51158 0.0
C333 C 0.19021 0.52782 0.46277 0.0
C334 C 0.22474 0.53499 0.45064 0.0
C335 C 0.25748 0.55154 0.4694 0.0
C336 C 0.18982 0.53728 0.49363 0.0
H337 H 0.2806 0.57348 0.51445 0.0
C338 C 0.2896 0.60044 0.58182 0.0
O339 O 0.29332 0.70364 0.58909 0.0
O340 O 0.29809 0.68584 0.54218 0.0
N341 N 0.16007 0.54459 0.5361 0.0
C342 C 0.12949 0.54154 0.55082 0.0
C343 C 0.09472 0.52674 0.53493 0.0
C344 C 0.09167 0.51491 0.50419 0.0
C345 C 0.12342 0.51793 0.48963 0.0
C346 C 0.15729 0.53276 0.50666 0.0
H347 H 0.1316 0.55044 0.57447 0.0
O348 O 0.22128 0.66212 0.55032 0.0
O349 O 0.2275 0.61279 0.54285 0.0
O350 O 0.22311 0.62715 0.6069 0.0
O351 O 0.1949 0.56602 0.59424 0.0
C352 C 0.12292 0.50728 0.45877 0.0
C353 C 0.15632 0.51232 0.44532 0.0
H354 H 0.22653 0.52829 0.42686 0.0
H355 H 0.28431 0.55751 0.46012 0.0
H356 H 0.07034 0.52449 0.54633 0.0
H357 H 0.06487 0.50375 0.49195 0.0
H358 H 0.09715 0.49575 0.44502 0.0
H359 H 0.15573 0.50465 0.42142 0.0
Mn360 Mn 0.62544 0.26336 0.7356 0.0
Mn361 Mn 0.66738 0.21285 0.71917 0.0
C362 C 0.59735 0.21367 0.70088 0.0
C363 C 0.61665 0.31392 0.72552 0.0
C364 C 0.62538 0.20479 0.7781 0.0
O365 O 0.67958 0.2972 0.75125 0.0
O366 O 0.70536 0.26256 0.7365 0.0
C367 C 0.71595 0.25859 0.66899 0.0
N368 N 0.68846 0.22505 0.67928 0.0
C369 C 0.68303 0.19526 0.63028 0.0
C370 C 0.71144 0.22943 0.61919 0.0
C371 C 0.72788 0.26125 0.63862 0.0
C372 C 0.67228 0.19432 0.66073 0.0
H373 H 0.72863 0.28312 0.68383 0.0
C374 C 0.70781 0.29216 0.74856 0.0
O375 O 0.60913 0.29829 0.75213 0.0
O376 O 0.63051 0.30107 0.70537 0.0
N377 N 0.6339 0.16422 0.70195 0.0
C378 C 0.60586 0.13374 0.71582 0.0
C379 C 0.586 0.09974 0.6993 0.0
C380 C 0.59541 0.09734 0.66884 0.0
C381 C 0.62469 0.12895 0.65519 0.0
C382 C 0.64358 0.16203 0.67281 0.0
H383 H 0.59859 0.13538 0.73926 0.0
O384 O 0.57724 0.22564 0.71442 0.0
O385 O 0.63309 0.23109 0.70808 0.0
O386 O 0.6148 0.22835 0.77189 0.0
O387 O 0.64567 0.19772 0.76026 0.0
C388 C 0.63558 0.12904 0.62468 0.0
C389 C 0.66463 0.1622 0.61219 0.0
H390 H 0.72067 0.23162 0.59577 0.0
H391 H 0.74971 0.28777 0.63019 0.0
H392 H 0.56346 0.07546 0.71002 0.0
H393 H 0.57985 0.07114 0.6561 0.0
H394 H 0.62145 0.10388 0.61048 0.0
H395 H 0.67236 0.16205 0.58856 0.0
Mn396 Mn 0.39755 0.64926 0.91495 0.0
Mn397 Mn 0.35368 0.55769 0.93164 0.0
C398 C 0.42501 0.62748 0.94963 0.0
C399 C 0.40687 0.70895 0.9246 0.0
C400 C 0.39484 0.58899 0.87217 0.0
O401 O 0.34366 0.62979 0.89895 0.0
O402 O 0.31603 0.57077 0.91609 0.0
C403 C 0.30829 0.55828 0.98375 0.0
N404 N 0.33438 0.55044 0.97217 0.0
C405 C 0.34026 0.52562 0.0202 0.0
C406 C 0.31317 0.53309 0.03256 0.0
C407 C 0.29725 0.54965 0.01429 0.0
C408 C 0.35021 0.53493 0.98965 0.0
H409 H 0.2961 0.57112 0.96981 0.0
C410 C 0.31465 0.59778 0.90317 0.0
O411 O 0.41443 0.69981 0.89812 0.0
O412 O 0.39294 0.68314 0.94498 0.0
N413 N 0.38684 0.54137 0.94727 0.0
C414 C 0.41385 0.53759 0.93232 0.0
C415 C 0.43331 0.52243 0.94768 0.0
C416 C 0.42453 0.51092 0.9781 0.0
C417 C 0.39631 0.51466 0.99288 0.0
C418 C 0.37782 0.5299 0.9764 0.0
H419 H 0.42057 0.54617 0.90889 0.0
O420 O 0.44551 0.6591 0.93629 0.0
O421 O 0.38929 0.60994 0.94243 0.0
O422 O 0.40757 0.62344 0.87891 0.0
O423 O 0.37345 0.56243 0.88976 0.0
C424 C 0.38607 0.5042 0.02341 0.0
C425 C 0.35815 0.50979 0.0371 0.0
H426 H 0.30462 0.52651 0.05612 0.0
H427 H 0.27652 0.55573 0.02373 0.0
H428 H 0.45502 0.5196 0.9361 0.0
H429 H 0.43974 0.49943 0.98993 0.0
H430 H 0.39989 0.49235 0.03674 0.0
H431 H 0.35096 0.5022 0.06075 0.0
Mn432 Mn 0.76443 0.40042 0.07878 0.0
Mn433 Mn 0.8133 0.35703 0.09594 0.0
C434 C 0.81456 0.42771 0.11363 0.0
C435 C 0.71374 0.40978 0.08826 0.0
C436 C 0.82239 0.39837 0.03659 0.0
O437 O 0.72984 0.34713 0.06248 0.0
O438 O 0.76229 0.31992 0.07977 0.0
C439 C 0.76727 0.31195 0.14746 0.0
N440 N 0.80138 0.33754 0.1363 0.0
C441 C 0.83242 0.3427 0.18478 0.0
C442 C 0.79771 0.31602 0.19668 0.0
C443 C 0.76496 0.30074 0.17798 0.0
C444 C 0.83295 0.35286 0.15422 0.0
H445 H 0.742 0.30032 0.13323 0.0
C446 C 0.73333 0.31846 0.06672 0.0
O447 O 0.73018 0.41749 0.06191 0.0
O448 O 0.72594 0.39549 0.10856 0.0
N449 N 0.86308 0.38954 0.11229 0.0
C450 C 0.89393 0.41634 0.09778 0.0
C451 C 0.92886 0.43511 0.11358 0.0
C452 C 0.93181 0.42584 0.14395 0.0
C453 C 0.89973 0.39797 0.15833 0.0
C454 C 0.8657 0.38019 0.14143 0.0
H455 H 0.89191 0.42334 0.07435 0.0
O456 O 0.80269 0.44784 0.10018 0.0
O457 O 0.79641 0.39229 0.10657 0.0
O458 O 0.80022 0.41074 0.04308 0.0
O459 O 0.82809 0.37706 0.05419 0.0
C460 C 0.90011 0.38727 0.18882 0.0
C461 C 0.86642 0.35991 0.20212 0.0
H462 H 0.79582 0.30732 0.22022 0.0
H463 H 0.738 0.28037 0.18708 0.0
H464 H 0.95349 0.4566 0.10234 0.0
H465 H 0.95881 0.4404 0.15604 0.0
H466 H 0.92608 0.4001 0.20236 0.0
H467 H 0.86696 0.35243 0.22574 0.0
Mn468 Mn 0.38349 0.77198 0.24467 0.0
Mn469 Mn 0.47718 0.82358 0.25964 0.0
C470 C 0.40685 0.8226 0.27855 0.0
C471 C 0.32398 0.72184 0.25586 0.0
C472 C 0.44024 0.82892 0.20058 0.0
O473 O 0.40318 0.73788 0.22961 0.0
O474 O 0.46455 0.77335 0.24372 0.0
C475 C 0.4834 0.78067 0.31096 0.0
N476 N 0.48861 0.81348 0.29974 0.0
C477 C 0.51683 0.84592 0.34745 0.0
C478 C 0.51196 0.8125 0.35948 0.0
C479 C 0.49506 0.77972 0.34118 0.0
C480 C 0.50469 0.84516 0.31718 0.0
H481 H 0.47045 0.75542 0.29695 0.0
C482 C 0.43675 0.74326 0.23228 0.0
O483 O 0.33122 0.73656 0.2289 0.0
O484 O 0.35172 0.73512 0.27571 0.0
N485 N 0.49296 0.87271 0.27549 0.0
C486 C 0.49326 0.90195 0.26113 0.0
C487 C 0.50794 0.93652 0.27671 0.0
C488 C 0.52246 0.94075 0.30675 0.0
C489 C 0.5221 0.91033 0.32095 0.0
C490 C 0.50712 0.87657 0.3043 0.0
H491 H 0.48222 0.89887 0.23802 0.0
O492 O 0.3741 0.81012 0.26519 0.0
O493 O 0.42491 0.80522 0.27154 0.0
O494 O 0.40617 0.80586 0.20756 0.0
O495 O 0.46856 0.83669 0.21811 0.0
C496 C 0.53551 0.91202 0.35115 0.0
C497 C 0.53273 0.8798 0.36444 0.0
H498 H 0.52081 0.81163 0.3828 0.0
H499 H 0.49106 0.75379 0.35034 0.0
H500 H 0.50806 0.95985 0.26561 0.0
H501 H 0.53358 0.9674 0.31876 0.0
H502 H 0.54742 0.93782 0.36453 0.0
H503 H 0.54248 0.88129 0.38788 0.0
C504 C 0.23909 0.66403 0.30478 0.0
C505 C 0.20979 0.64703 0.28271 0.0
H506 H 0.29821 0.70028 0.31354 0.0
C507 C 0.21865 0.6527 0.25149 0.0
H508 H 0.23304 0.65988 0.32898 0.0
C509 C 0.25596 0.67621 0.24258 0.0
C510 C 0.28515 0.69394 0.26473 0.0
H511 H 0.19653 0.64004 0.23402 0.0
H512 H 0.26182 0.68107 0.21842 0.0
C513 C 0.2764 0.68697 0.29589 0.0
C514 C 0.59028 0.24091 0.47147 0.0
C515 C 0.57742 0.21262 0.44875 0.0
H516 H 0.61402 0.29927 0.48161 0.0
C517 C 0.58042 0.22252 0.41777 0.0
H518 H 0.58855 0.23406 0.4955 0.0
C519 C 0.59459 0.2599 0.40975 0.0
C520 C 0.6067 0.28812 0.43255 0.0
H521 H 0.57056 0.2012 0.39981 0.0
H522 H 0.59545 0.2666 0.38575 0.0
C523 C 0.60507 0.27827 0.46346 0.0
C524 C 0.36788 0.59865 0.62845 0.0
C525 C 0.37125 0.5705 0.61269 0.0
H526 H 0.33958 0.63065 0.63091 0.0
C527 C 0.34983 0.55502 0.58554 0.0
H528 H 0.38384 0.61116 0.64948 0.0
C529 C 0.3242 0.56561 0.57539 0.0
C530 C 0.31974 0.59264 0.59163 0.0
H531 H 0.35249 0.53428 0.57213 0.0
H532 H 0.30753 0.55219 0.55482 0.0
C533 C 0.3425 0.6098 0.61788 0.0
C534 C 0.78838 0.38448 0.78037 0.0
C535 C 0.81853 0.37725 0.78065 0.0
H536 H 0.72953 0.36322 0.77033 0.0
C537 C 0.81196 0.34223 0.7701 0.0
H538 H 0.79262 0.41121 0.78848 0.0
C539 C 0.77613 0.31491 0.75976 0.0
C540 C 0.74571 0.32176 0.75973 0.0
H541 H 0.83472 0.33599 0.76954 0.0
H542 H 0.7724 0.28831 0.75183 0.0
C543 C 0.75225 0.35692 0.77014 0.0
C544 C 0.43686 0.81143 0.91698 0.0
C545 C 0.43989 0.82274 0.94787 0.0
H546 H 0.42433 0.76639 0.88528 0.0
C547 C 0.42992 0.79603 0.97076 0.0
H548 H 0.44457 0.83162 0.89894 0.0
C549 C 0.41787 0.7588 0.963 0.0
C550 C 0.41617 0.74764 0.93219 0.0
H551 H 0.43182 0.80406 0.99472 0.0
H552 H 0.411 0.73902 0.98125 0.0
C553 C 0.42543 0.77422 0.9092 0.0
C554 C 0.6509 0.45263 0.08389 0.0
C555 C 0.63612 0.44658 0.11356 0.0
H556 H 0.68666 0.44538 0.05246 0.0
C557 C 0.64465 0.42562 0.13389 0.0
H558 H 0.64433 0.46814 0.06751 0.0
C559 C 0.66874 0.41241 0.1252 0.0
C560 C 0.68473 0.41979 0.09597 0.0
H561 H 0.63393 0.42067 0.15696 0.0
H562 H 0.67573 0.39739 0.14177 0.0
C563 C 0.67493 0.43936 0.07518 0.0
C564 C 0.37945 0.79641 0.51813 0.0
C565 C 0.3824 0.82621 0.53612 0.0
H566 H 0.35426 0.73706 0.51249 0.0
C567 C 0.36373 0.81834 0.56425 0.0
H568 H 0.39337 0.80156 0.4963 0.0
C569 C 0.34164 0.78141 0.57371 0.0
C570 C 0.33737 0.75152 0.55506 0.0
H571 H 0.36588 0.84078 0.5788 0.0
H572 H 0.32681 0.77624 0.59509 0.0
C573 C 0.357 0.75946 0.5274 0.0
C574 C 0.59278 0.37552 0.67799 0.0
C575 C 0.58135 0.39227 0.70036 0.0
H576 H 0.61359 0.33828 0.6685 0.0
C577 C 0.58397 0.38507 0.73142 0.0
H578 H 0.59125 0.38082 0.65391 0.0
C579 C 0.59633 0.36026 0.73984 0.0
C580 C 0.6069 0.34279 0.71736 0.0
H581 H 0.57514 0.39754 0.74908 0.0
H582 H 0.59696 0.35426 0.76386 0.0
C583 C 0.60572 0.35131 0.68641 0.0
C584 C 0.23675 0.60044 0.85689 0.0
C585 C 0.20425 0.57158 0.87036 0.0
H586 H 0.29742 0.63167 0.85683 0.0
C587 C 0.20873 0.55364 0.8959 0.0
H588 H 0.23435 0.61479 0.83715 0.0
C589 C 0.24456 0.56279 0.90671 0.0
C590 C 0.27704 0.59068 0.89271 0.0
H591 H 0.18445 0.53216 0.90754 0.0
H592 H 0.24676 0.54773 0.92603 0.0
C593 C 0.27286 0.61006 0.8681 0.0
C594 C 0.67103 0.2136 0.06118 0.0
C595 C 0.64825 0.20858 0.03514 0.0
H596 H 0.71556 0.25184 0.09121 0.0
C597 C 0.65192 0.24048 0.02064 0.0
H598 H 0.66825 0.18988 0.07364 0.0
C599 C 0.67869 0.27646 0.03139 0.0
C600 C 0.70257 0.28111 0.05652 0.0
H601 H 0.63497 0.23772 1.00047 0.0
H602 H 0.6816 0.30053 0.01939 0.0
C603 C 0.69804 0.24927 0.07148 0.0
C604 C 0.49083 0.69385 0.21218 0.0
C605 C 0.46217 0.65867 0.2015 0.0
H606 H 0.50543 0.74763 0.23015 0.0
C607 C 0.42453 0.65097 0.2014 0.0
H608 H 0.52002 0.70046 0.21307 0.0
C609 C 0.41595 0.67829 0.21127 0.0
C610 C 0.44483 0.71367 0.22171 0.0
H611 H 0.40186 0.6241 0.1932 0.0
H612 H 0.38676 0.67168 0.21071 0.0
C613 C 0.48232 0.72089 0.22216 0.0
C614 C 0.80457 0.49603 0.3647 0.0
C615 C 0.81833 0.47095 0.3641 0.0
H616 H 0.7598 0.5058 0.37662 0.0
C617 C 0.79441 0.43399 0.3735 0.0
H618 H 0.82159 0.52433 0.35676 0.0
C619 C 0.75823 0.42304 0.38455 0.0
C620 C 0.74561 0.44899 0.38664 0.0
H621 H 0.80411 0.41395 0.37338 0.0
H622 H 0.74079 0.3948 0.39247 0.0
C623 C 0.76896 0.48532 0.37602 0.0
C624 C 0.12668 0.60879 0.4838 0.0
C625 C 0.13951 0.60383 0.45524 0.0
H626 H 0.13914 0.62139 0.53191 0.0
C627 C 0.17601 0.60858 0.45377 0.0
H628 H 0.09863 0.60495 0.48599 0.0
C629 C 0.19857 0.61697 0.48021 0.0
C630 C 0.18521 0.62088 0.50864 0.0
H631 H 0.18732 0.60596 0.43217 0.0
H632 H 0.22656 0.62046 0.47846 0.0
C633 C 0.14961 0.61783 0.51018 0.0
C634 C 0.58526 0.17999 0.61878 0.0
C635 C 0.55317 0.14409 0.61999 0.0
H636 H 0.62443 0.22983 0.64371 0.0
C637 C 0.53522 0.13169 0.6483 0.0
H638 H 0.59933 0.19101 0.59738 0.0
C639 C 0.54928 0.15444 0.67469 0.0
C640 C 0.5822 0.18939 0.67345 0.0
H641 H 0.51077 0.1041 0.65033 0.0
H642 H 0.53512 0.14431 0.69622 0.0
C643 C 0.59963 0.20233 0.64526 0.0
C644 C 0.40069 0.53174 0.80601 0.0
C645 C 0.42873 0.5594 0.78797 0.0
H646 H 0.36814 0.51923 0.84658 0.0
C647 C 0.44501 0.59706 0.79744 0.0
H648 H 0.38793 0.50244 0.79954 0.0
C649 C 0.43365 0.60679 0.82449 0.0
C650 C 0.40597 0.57904 0.8428 0.0
H651 H 0.46647 0.61903 0.78388 0.0
H652 H 0.44695 0.63605 0.83119 0.0
C653 C 0.38952 0.5414 0.83312 0.0
C654 C 0.88006 0.40093 0.96826 0.0
C655 C 0.88731 0.4342 0.95398 0.0
H656 H 0.85419 0.36369 0.00536 0.0
C657 C 0.8716 0.45478 0.96662 0.0
H658 H 0.89079 0.38375 0.95891 0.0
C659 C 0.84977 0.4427 0.99297 0.0
C660 C 0.84354 0.41004 0.00762 0.0
H661 H 0.87694 0.48081 0.95669 0.0
H662 H 0.83867 0.45957 1.00234 0.0
C663 C 0.85878 0.38921 0.99485 0.0
C664 C 0.4299 0.87713 0.13048 0.0
C665 C 0.46585 0.892 0.11743 0.0
H666 H 0.39341 0.84526 0.16679 0.0
C667 C 0.49208 0.88367 0.13104 0.0
H668 H 0.40902 0.88315 0.12093 0.0
C669 C 0.48337 0.86268 0.15763 0.0
C670 C 0.4479 0.8487 0.17109 0.0
H671 H 0.51962 0.89354 0.12129 0.0
H672 H 0.50461 0.8575 0.16773 0.0
C673 C 0.42095 0.8555 0.15688 0.0
C674 C 0.57262 0.43446 0.29836 0.0
C675 C 0.58925 0.47173 0.28891 0.0
H676 H 0.57127 0.3967 0.33232 0.0
C677 C 0.61795 0.49997 0.30736 0.0
H678 H 0.55054 0.41208 0.28452 0.0
C679 C 0.62959 0.49129 0.33472 0.0
C680 C 0.61312 0.45405 0.34427 0.0
H681 H 0.63099 0.529 0.30091 0.0
H682 H 0.65168 0.51394 0.34836 0.0
C683 C 0.58461 0.42566 0.32566 0.0
C684 C 0.43359 0.85889 0.35998 0.0
C685 C 0.43312 0.89264 0.35901 0.0
H686 H 0.42512 0.81015 0.33515 0.0
C687 C 0.42371 0.90311 0.33114 0.0
H688 H 0.44001 0.84967 0.38118 0.0
C689 C 0.4154 0.8805 0.30477 0.0
C690 C 0.41699 0.84743 0.30573 0.0
H691 H 0.4233 0.92904 0.32961 0.0
H692 H 0.40829 0.88908 0.28354 0.0
C693 C 0.42525 0.83637 0.33366 0.0
C694 C 0.59084 0.43398 0.5315 0.0
C695 C 0.5585 0.43771 0.52915 0.0
H696 H 0.62989 0.42251 0.5081 0.0
C697 C 0.54009 0.43122 0.50031 0.0
H698 H 0.60529 0.43771 0.55331 0.0
C699 C 0.55388 0.42172 0.47459 0.0
C700 C 0.58704 0.41979 0.47693 0.0
H701 H 0.51543 0.43422 0.49736 0.0
H702 H 0.5393 0.41698 0.45267 0.0
C703 C 0.60495 0.42518 0.50565 0.0
C704 C 0.15723 0.60131 0.6869 0.0
C705 C 0.13489 0.56366 0.69502 0.0
H706 H 0.19577 0.64017 0.65484 0.0
C707 C 0.13505 0.53592 0.67619 0.0
H708 H 0.15799 0.62338 0.70106 0.0
C709 C 0.15663 0.54546 0.64975 0.0
C710 C 0.17886 0.58308 0.64144 0.0
H711 H 0.11783 0.50663 0.68155 0.0
H712 H 0.15561 0.52318 0.63569 0.0
C713 C 0.17908 0.61093 0.66049 0.0
C714 C 0.6157 0.1401 0.84276 0.0
C715 C 0.58779 0.14074 0.86079 0.0
H716 H 0.64929 0.15952 0.80282 0.0
C717 C 0.57281 0.16336 0.8518 0.0
H718 H 0.62749 0.12263 0.84879 0.0
C719 C 0.58538 0.18472 0.8253 0.0
C720 C 0.61297 0.18366 0.80704 0.0
H721 H 0.55148 0.16468 0.86534 0.0
H722 H 0.57309 0.20165 0.81894 0.0
C723 C 0.62803 0.16115 0.81623 0.0
C724 C 0.43707 0.60595 0.03113 0.0
C725 C 0.46782 0.5997 0.02921 0.0
H726 H 0.39931 0.61915 0.00717 0.0
C727 C 0.4852 0.60404 1.00065 0.0
H728 H 0.42354 0.60401 0.05273 0.0
C729 C 0.47175 0.6137 0.97472 0.0
C730 C 0.43993 0.61791 0.97665 0.0
H731 H 0.5086 0.59905 0.99802 0.0
H732 H 0.48536 0.61663 0.95297 0.0
C733 C 0.42322 0.6148 0.0051 0.0
C734 C 0.89934 0.49086 0.1638 0.0
C735 C 0.88745 0.47433 0.19245 0.0
H736 H 0.88498 0.48891 0.11601 0.0
C737 C 0.85174 0.44244 0.195 0.0
H738 H 0.9269 0.51549 0.16151 0.0
C739 C 0.8283 0.42693 0.16908 0.0
C740 C 0.84033 0.44311 0.14033 0.0
H741 H 0.84222 0.42931 0.21695 0.0
H742 H 0.80069 0.40238 0.17149 0.0
C743 C 0.8756 0.47567 0.13794 0.0
loop_
_geom_bond_atom_site_label_1
_geom_bond_atom_site_label_2
_geom_bond_distance
_geom_bond_site_symmetry_2
_ccdc_geom_bond_type
H0 C19 0.949 . S
H1 C20 0.950 . S
H2 C22 0.950 . S
H3 C23 0.950 . S
H4 C25 0.950 . S
H5 C28 0.950 . S
H6 C29 0.950 . S
H7 C31 0.951 . S
H8 C32 0.949 . S
H9 C34 0.949 . S
H10 C35 0.950 . S
H11 C37 0.950 . S
H12 C38 0.950 . S
H13 C40 0.950 . S
H14 C43 0.950 . S
H15 C44 0.950 . S
H16 C46 0.951 . S
H17 C47 0.949 . S
C18 C19 1.376 . S
C18 C23 1.386 . S
C18 C24 1.483 . S
C19 H0 0.949 . S
C19 C18 1.376 . S
C19 C20 1.397 . S
C20 H1 0.950 . S
C20 C19 1.397 . S
C20 C21 1.391 . S
C21 C20 1.391 . S
C21 C22 1.405 . S
C22 H2 0.950 . S
C22 C21 1.405 . S
C22 C23 1.367 . S
C23 H3 0.950 . S
C23 C18 1.386 . S
C23 C22 1.367 . S
C24 C18 1.483 . S
C24 C25 1.382 1_655 S
C24 C26 1.403 . S
C25 H4 0.950 . S
C25 C24 1.382 1_455 S
C25 C41 1.411 . S
C26 C24 1.403 . S
C26 C27 1.489 . S
C26 C40 1.411 . S
C27 C26 1.489 . S
C27 C28 1.383 . S
C27 C32 1.382 . S
C28 H5 0.950 . S
C28 C27 1.383 . S
C28 C29 1.395 . S
C29 H6 0.950 . S
C29 C28 1.395 . S
C29 C30 1.288 . S
C30 C29 1.288 . S
C30 C31 1.392 . S
C31 H7 0.951 . S
C31 C30 1.392 . S
C31 C32 1.392 . S
C32 H8 0.949 . S
C32 C27 1.382 . S
C32 C31 1.392 . S
C33 C34 1.376 . S
C33 C38 1.386 . S
C33 C39 1.483 . S
C34 H9 0.949 . S
C34 C33 1.376 . S
C34 C35 1.397 . S
C35 H10 0.950 . S
C35 C34 1.397 . S
C35 C36 1.391 . S
C36 C35 1.391 . S
C36 C37 1.405 . S
C37 H11 0.950 . S
C37 C36 1.405 . S
C37 C38 1.367 . S
C38 H12 0.950 . S
C38 C33 1.386 . S
C38 C37 1.367 . S
C39 C33 1.483 . S
C39 C40 1.382 1_455 S
C39 C41 1.403 . S
C40 H13 0.950 . S
C40 C26 1.411 . S
C40 C39 1.382 1_655 S
C41 C25 1.411 . S
C41 C39 1.403 . S
C41 C42 1.489 . S
C42 C41 1.489 . S
C42 C43 1.383 . S
C42 C47 1.382 . S
C43 H14 0.950 . S
C43 C42 1.383 . S
C43 C44 1.395 . S
C44 H15 0.950 . S
C44 C43 1.395 . S
C44 C45 1.288 . S
C45 C44 1.288 . S
C45 C46 1.392 . S
C46 H16 0.951 . S
C46 C45 1.392 . S
C46 C47 1.392 . S
C47 H17 0.949 . S
C47 C42 1.382 . S
C47 C46 1.392 . S
H48 C67 0.949 . S
H49 C68 0.950 . S
H50 C70 0.950 . S
H51 C71 0.950 . S
H52 C73 0.950 1_565 S
H53 C76 0.950 . S
H54 C77 0.950 . S
H55 C79 0.951 . S
H56 C80 0.949 . S
H57 C82 0.949 . S
H58 C83 0.950 . S
H59 C85 0.950 . S
H60 C86 0.950 . S
H61 C88 0.950 . S
H62 C91 0.950 . S
H63 C92 0.950 . S
H64 C94 0.951 . S
H65 C95 0.949 . S
C66 C67 1.376 . S
C66 C71 1.386 . S
C66 C72 1.483 . S
C67 H48 0.949 . S
C67 C66 1.376 . S
C67 C68 1.397 . S
C68 H49 0.950 . S
C68 C67 1.397 . S
C68 C69 1.391 . S
C69 C68 1.391 . S
C69 C70 1.405 . S
C70 H50 0.950 . S
C70 C69 1.405 . S
C70 C71 1.367 . S
C71 H51 0.950 . S
C71 C66 1.386 . S
C71 C70 1.367 . S
C72 C66 1.483 . S
C72 C73 1.382 1_565 S
C72 C74 1.403 . S
C73 H52 0.950 1_545 S
C73 C72 1.382 1_545 S
C73 C89 1.411 . S
C74 C72 1.403 . S
C74 C75 1.489 . S
C74 C88 1.411 1_565 S
C75 C74 1.489 . S
C75 C76 1.383 . S
C75 C80 1.382 . S
C76 H53 0.950 . S
C76 C75 1.383 . S
C76 C77 1.395 . S
C77 H54 0.950 . S
C77 C76 1.395 . S
C77 C78 1.288 . S
C78 C77 1.288 . S
C78 C79 1.392 . S
C79 H55 0.951 . S
C79 C78 1.392 . S
C79 C80 1.392 . S
C80 H56 0.949 . S
C80 C75 1.382 . S
C80 C79 1.392 . S
C81 C82 1.376 . S
C81 C86 1.386 . S
C81 C87 1.483 . S
C82 H57 0.949 . S
C82 C81 1.376 . S
C82 C83 1.397 . S
C83 H58 0.950 . S
C83 C82 1.397 . S
C83 C84 1.391 . S
C84 C83 1.391 . S
C84 C85 1.405 . S
C85 H59 0.950 . S
C85 C84 1.405 . S
C85 C86 1.367 . S
C86 H60 0.950 . S
C86 C81 1.386 . S
C86 C85 1.367 . S
C87 C81 1.483 . S
C87 C88 1.382 . S
C87 C89 1.403 . S
C88 H61 0.950 . S
C88 C74 1.411 1_545 S
C88 C87 1.382 . S
C89 C73 1.411 . S
C89 C87 1.403 . S
C89 C90 1.489 . S
C90 C89 1.489 . S
C90 C91 1.383 . S
C90 C95 1.382 . S
C91 H62 0.950 . S
C91 C90 1.383 . S
C91 C92 1.395 . S
C92 H63 0.950 . S
C92 C91 1.395 . S
C92 C93 1.288 . S
C93 C92 1.288 . S
C93 C94 1.392 . S
C94 H64 0.951 . S
C94 C93 1.392 . S
C94 C95 1.392 . S
C95 H65 0.949 . S
C95 C90 1.382 . S
C95 C94 1.392 . S
H96 C115 0.949 . S
H97 C116 0.950 . S
H98 C118 0.950 . S
H99 C119 0.950 . S
H100 C121 0.950 . S
H101 C124 0.950 . S
H102 C125 0.950 . S
H103 C127 0.951 . S
H104 C128 0.949 . S
H105 C130 0.949 . S
H106 C131 0.950 . S
H107 C133 0.950 . S
H108 C134 0.950 . S
H109 C136 0.950 . S
H110 C139 0.950 . S
H111 C140 0.950 . S
H112 C142 0.951 . S
H113 C143 0.949 . S
C114 C115 1.376 . S
C114 C119 1.386 . S
C114 C120 1.483 . S
C115 H96 0.949 . S
C115 C114 1.376 . S
C115 C116 1.397 . S
C116 H97 0.950 . S
C116 C115 1.397 . S
C116 C117 1.391 . S
C117 C116 1.391 . S
C117 C118 1.405 . S
C118 H98 0.950 . S
C118 C117 1.405 . S
C118 C119 1.367 . S
C119 H99 0.950 . S
C119 C114 1.386 . S
C119 C118 1.367 . S
C120 C114 1.483 . S
C120 C121 1.382 . S
C120 C122 1.403 . S
C121 H100 0.950 . S
C121 C120 1.382 . S
C121 C137 1.411 . S
C122 C120 1.403 . S
C122 C123 1.489 . S
C122 C136 1.411 . S
C123 C122 1.489 . S
C123 C124 1.383 . S
C123 C128 1.382 . S
C124 H101 0.950 . S
C124 C123 1.383 . S
C124 C125 1.395 . S
C125 H102 0.950 . S
C125 C124 1.395 . S
C125 C126 1.288 . S
C126 C125 1.288 . S
C126 C127 1.392 . S
C127 H103 0.951 . S
C127 C126 1.392 . S
C127 C128 1.392 . S
C128 H104 0.949 . S
C128 C123 1.382 . S
C128 C127 1.392 . S
C129 C130 1.376 . S
C129 C134 1.386 . S
C129 C135 1.483 . S
C130 H105 0.949 . S
C130 C129 1.376 . S
C130 C131 1.397 . S
C131 H106 0.950 . S
C131 C130 1.397 . S
C131 C132 1.391 . S
C132 C131 1.391 . S
C132 C133 1.405 . S
C133 H107 0.950 . S
C133 C132 1.405 . S
C133 C134 1.367 . S
C134 H108 0.950 . S
C134 C129 1.386 . S
C134 C133 1.367 . S
C135 C129 1.483 . S
C135 C136 1.382 . S
C135 C137 1.403 . S
C136 H109 0.950 . S
C136 C122 1.411 . S
C136 C135 1.382 . S
C137 C121 1.411 . S
C137 C135 1.403 . S
C137 C138 1.489 . S
C138 C137 1.489 . S
C138 C139 1.383 . S
C138 C143 1.382 . S
C139 H110 0.950 . S
C139 C138 1.383 . S
C139 C140 1.395 . S
C140 H111 0.950 . S
C140 C139 1.395 . S
C140 C141 1.288 . S
C141 C140 1.288 . S
C141 C142 1.392 . S
C142 H112 0.951 . S
C142 C141 1.392 . S
C142 C143 1.392 . S
C143 H113 0.949 . S
C143 C138 1.382 . S
C143 C142 1.392 . S
H144 C163 0.949 . S
H145 C164 0.950 . S
H146 C166 0.950 . S
H147 C167 0.950 . S
H148 C169 0.950 . S
H149 C172 0.950 . S
H150 C173 0.950 . S
H151 C175 0.951 . S
H152 C176 0.949 . S
H153 C178 0.949 . S
H154 C179 0.950 . S
H155 C181 0.950 . S
H156 C182 0.950 . S
H157 C184 0.950 . S
H158 C187 0.950 . S
H159 C188 0.950 . S
H160 C190 0.951 . S
H161 C191 0.949 . S
C162 C163 1.376 . S
C162 C167 1.386 . S
C162 C168 1.483 . S
C163 H144 0.949 . S
C163 C162 1.376 . S
C163 C164 1.397 . S
C164 H145 0.950 . S
C164 C163 1.397 . S
C164 C165 1.391 . S
C165 C164 1.391 . S
C165 C166 1.405 . S
C166 H146 0.950 . S
C166 C165 1.405 . S
C166 C167 1.367 . S
C167 H147 0.950 . S
C167 C162 1.386 . S
C167 C166 1.367 . S
C168 C162 1.483 . S
C168 C169 1.382 1_455 S
C168 C170 1.403 . S
C169 H148 0.950 . S
C169 C168 1.382 1_655 S
C169 C185 1.411 . S
C170 C168 1.403 . S
C170 C171 1.489 . S
C170 C184 1.411 . S
C171 C170 1.489 . S
C171 C172 1.383 . S
C171 C176 1.382 . S
C172 H149 0.950 . S
C172 C171 1.383 . S
C172 C173 1.395 . S
C173 H150 0.950 . S
C173 C172 1.395 . S
C173 C174 1.288 . S
C174 C173 1.288 . S
C174 C175 1.392 . S
C175 H151 0.951 . S
C175 C174 1.392 . S
C175 C176 1.392 . S
C176 H152 0.949 . S
C176 C171 1.382 . S
C176 C175 1.392 . S
C177 C178 1.376 . S
C177 C182 1.386 . S
C177 C183 1.483 . S
C178 H153 0.949 . S
C178 C177 1.376 . S
C178 C179 1.397 . S
C179 H154 0.950 . S
C179 C178 1.397 . S
C179 C180 1.391 . S
C180 C179 1.391 . S
C180 C181 1.405 . S
C181 H155 0.950 . S
C181 C180 1.405 . S
C181 C182 1.367 . S
C182 H156 0.950 . S
C182 C177 1.386 . S
C182 C181 1.367 . S
C183 C177 1.483 . S
C183 C184 1.382 1_655 S
C183 C185 1.403 . S
C184 H157 0.950 . S
C184 C170 1.411 . S
C184 C183 1.382 1_455 S
C185 C169 1.411 . S
C185 C183 1.403 . S
C185 C186 1.489 . S
C186 C185 1.489 . S
C186 C187 1.383 . S
C186 C191 1.382 . S
C187 H158 0.950 . S
C187 C186 1.383 . S
C187 C188 1.395 . S
C188 H159 0.950 . S
C188 C187 1.395 . S
C188 C189 1.288 . S
C189 C188 1.288 . S
C189 C190 1.392 . S
C190 H160 0.951 . S
C190 C189 1.392 . S
C190 C191 1.392 . S
C191 H161 0.949 . S
C191 C186 1.382 . S
C191 C190 1.392 . S
H192 C211 0.949 . S
H193 C212 0.950 . S
H194 C214 0.950 . S
H195 C215 0.967 . S
H196 C217 0.950 . S
H197 C220 0.950 . S
H198 C221 0.950 . S
H199 C223 0.951 . S
H200 C224 0.949 . S
H201 C226 0.949 . S
H202 C227 0.950 . S
H203 C229 0.950 . S
H204 C230 0.950 . S
H205 C232 0.950 1_565 S
H206 C235 0.950 . S
H207 C236 0.950 . S
H208 C238 0.951 . S
H209 C239 0.949 . S
C210 C211 1.376 . S
C210 C215 1.379 1_554 S
C210 C216 1.483 1_554 S
C211 H192 0.949 . S
C211 C210 1.376 . S
C211 C212 1.397 . S
C212 H193 0.950 . S
C212 C211 1.397 . S
C212 C213 1.391 . S
C213 C212 1.391 . S
C213 C214 1.405 . S
C214 H194 0.950 . S
C214 C213 1.405 . S
C214 C215 1.358 1_554 S
C215 H195 0.967 . S
C215 C210 1.379 1_556 S
C215 C214 1.358 1_556 S
C216 C210 1.483 1_556 S
C216 C217 1.382 1_556 S
C216 C218 1.403 . S
C217 H196 0.950 . S
C217 C216 1.382 1_554 S
C217 C233 1.411 1_545 S
C218 C216 1.403 . S
C218 C219 1.489 . S
C218 C232 1.411 . S
C219 C218 1.489 . S
C219 C220 1.383 . S
C219 C224 1.382 . S
C220 H197 0.950 . S
C220 C219 1.383 . S
C220 C221 1.395 . S
C221 H198 0.950 . S
C221 C220 1.395 . S
C221 C222 1.288 . S
C222 C221 1.288 . S
C222 C223 1.392 . S
C223 H199 0.951 . S
C223 C222 1.392 . S
C223 C224 1.392 . S
C224 H200 0.949 . S
C224 C219 1.382 . S
C224 C223 1.392 . S
C225 C226 1.376 . S
C225 C230 1.386 . S
C225 C231 1.483 . S
C226 H201 0.949 . S
C226 C225 1.376 . S
C226 C227 1.397 . S
C227 H202 0.950 . S
C227 C226 1.397 . S
C227 C228 1.391 . S
C228 C227 1.391 . S
C228 C229 1.405 . S
C229 H203 0.950 . S
C229 C228 1.405 . S
C229 C230 1.367 . S
C230 H204 0.950 . S
C230 C225 1.386 . S
C230 C229 1.367 . S
C231 C225 1.483 . S
C231 C232 1.382 1_565 S
C231 C233 1.403 1_556 S
C232 H205 0.950 1_545 S
C232 C218 1.411 . S
C232 C231 1.382 1_545 S
C233 C217 1.411 1_565 S
C233 C231 1.403 1_554 S
C233 C234 1.489 . S
C234 C233 1.489 . S
C234 C235 1.383 . S
C234 C239 1.382 . S
C235 H206 0.950 . S
C235 C234 1.383 . S
C235 C236 1.395 . S
C236 H207 0.950 . S
C236 C235 1.395 . S
C236 C237 1.288 . S
C237 C236 1.288 . S
C237 C238 1.392 . S
C238 H208 0.951 . S
C238 C237 1.392 . S
C238 C239 1.392 . S
C239 H209 0.949 . S
C239 C234 1.382 . S
C239 C238 1.392 . S
H240 C259 0.949 . S
H241 C260 0.950 . S
H242 C262 0.950 . S
H243 C263 0.950 . S
H244 C265 0.950 . S
H245 C268 0.950 . S
H246 C269 0.950 . S
H247 C271 0.951 . S
H248 C272 0.949 . S
H249 C274 0.949 . S
H250 C275 0.950 . S
H251 C277 0.950 . S
H252 C278 0.950 . S
H253 C280 0.950 . S
H254 C283 0.950 . S
H255 C284 0.950 . S
H256 C286 0.951 . S
H257 C287 0.949 . S
C258 C259 1.376 . S
C258 C263 1.386 . S
C258 C264 1.483 . S
C259 H240 0.949 . S
C259 C258 1.376 . S
C259 C260 1.397 . S
C260 H241 0.950 . S
C260 C259 1.397 . S
C260 C261 1.391 . S
C261 C260 1.391 . S
C261 C262 1.405 . S
C262 H242 0.950 . S
C262 C261 1.405 . S
C262 C263 1.367 . S
C263 H243 0.950 . S
C263 C258 1.386 . S
C263 C262 1.367 . S
C264 C258 1.483 . S
C264 C265 1.382 . S
C264 C266 1.403 . S
C265 H244 0.950 . S
C265 C264 1.382 . S
C265 C281 1.411 . S
C266 C264 1.403 . S
C266 C267 1.489 . S
C266 C280 1.411 . S
C267 C266 1.489 . S
C267 C268 1.383 . S
C267 C272 1.382 . S
C268 H245 0.950 . S
C268 C267 1.383 . S
C268 C269 1.395 . S
C269 H246 0.950 . S
C269 C268 1.395 . S
C269 C270 1.288 . S
C270 C269 1.288 . S
C270 C271 1.392 . S
C271 H247 0.951 . S
C271 C270 1.392 . S
C271 C272 1.392 . S
C272 H248 0.949 . S
C272 C267 1.382 . S
C272 C271 1.392 . S
C273 C274 1.376 . S
C273 C278 1.386 . S
C273 C279 1.483 . S
C274 H249 0.949 . S
C274 C273 1.376 . S
C274 C275 1.397 . S
C275 H250 0.950 . S
C275 C274 1.397 . S
C275 C276 1.391 . S
C276 C275 1.391 . S
C276 C277 1.405 . S
C277 H251 0.950 . S
C277 C276 1.405 . S
C277 C278 1.367 . S
C278 H252 0.950 . S
C278 C273 1.386 . S
C278 C277 1.367 . S
C279 C273 1.483 . S
C279 C280 1.382 . S
C279 C281 1.403 . S
C280 H253 0.950 . S
C280 C266 1.411 . S
C280 C279 1.382 . S
C281 C265 1.411 . S
C281 C279 1.403 . S
C281 C282 1.489 . S
C282 C281 1.489 . S
C282 C283 1.383 . S
C282 C287 1.382 . S
C283 H254 0.950 . S
C283 C282 1.383 . S
C283 C284 1.395 . S
C284 H255 0.950 . S
C284 C283 1.395 . S
C284 C285 1.288 . S
C285 C284 1.288 . S
C285 C286 1.392 . S
C286 H256 0.951 . S
C286 C285 1.392 . S
C286 C287 1.392 . S
C287 H257 0.949 . S
C287 C282 1.382 . S
C287 C286 1.392 . S
Mn288 O293 2.095 . S
Mn288 O303 2.162 . S
Mn288 O304 2.297 . S
Mn288 O312 2.385 . S
Mn288 O313 2.209 . S
Mn288 O314 2.094 . S
Mn289 O294 2.121 . S
Mn289 N296 2.257 . S
Mn289 N305 2.282 . S
Mn289 O313 2.215 . S
Mn289 O315 2.117 . S
C290 O312 1.234 . S
C290 O313 1.283 . S
C291 O303 1.281 . S
C291 O304 1.236 . S
C292 O314 1.240 . S
C292 O315 1.264 . S
O293 Mn288 2.095 . S
O293 C302 1.250 . S
O294 Mn289 2.121 . S
O294 C302 1.258 . S
C295 N296 1.326 . S
C295 C299 1.460 . S
C295 H301 0.929 . S
N296 Mn289 2.257 . S
N296 C295 1.326 . S
N296 C300 1.362 . S
C297 C298 1.258 . S
C297 C300 1.431 . S
C297 C317 1.449 . S
C298 C297 1.258 . S
C298 C299 1.477 . S
C298 H318 0.931 . S
C299 C295 1.460 . S
C299 C298 1.477 . S
C299 H319 0.930 . S
C300 N296 1.362 . S
C300 C297 1.431 . S
C300 C310 1.476 . S
H301 C295 0.929 . S
C302 O293 1.250 . S
C302 O294 1.258 . S
O303 Mn288 2.162 . S
O303 C291 1.281 . S
O304 Mn288 2.297 . S
O304 C291 1.236 . S
N305 Mn289 2.282 . S
N305 C306 1.328 . S
N305 C310 1.318 . S
C306 N305 1.328 . S
C306 C307 1.457 . S
C306 H311 0.929 . S
C307 C306 1.457 . S
C307 C308 1.291 . S
C307 H320 0.931 . S
C308 C307 1.291 . S
C308 C309 1.373 . S
C308 H321 0.929 . S
C309 C308 1.373 . S
C309 C310 1.396 . S
C309 C316 1.403 . S
C310 C300 1.476 . S
C310 N305 1.318 . S
C310 C309 1.396 . S
H311 C306 0.929 . S
O312 Mn288 2.385 . S
O312 C290 1.234 . S
O313 Mn288 2.209 . S
O313 Mn289 2.215 . S
O313 C290 1.283 . S
O314 Mn288 2.094 . S
O314 C292 1.240 . S
O315 Mn289 2.117 . S
O315 C292 1.264 . S
C316 C309 1.403 . S
C316 C317 1.399 . S
C316 H322 0.929 . S
C317 C297 1.449 . S
C317 C316 1.399 . S
C317 H323 0.930 . S
H318 C298 0.931 . S
H319 C299 0.930 . S
H320 C307 0.931 . S
H321 C308 0.929 . S
H322 C316 0.929 . S
H323 C317 0.930 . S
Mn324 O329 2.095 . S
Mn324 O339 2.162 . S
Mn324 O340 2.297 . S
Mn324 O348 2.385 . S
Mn324 O349 2.209 . S
Mn324 O350 2.094 . S
Mn325 O330 2.121 . S
Mn325 N332 2.257 . S
Mn325 N341 2.282 . S
Mn325 O349 2.215 . S
Mn325 O351 2.117 . S
C326 O348 1.234 . S
C326 O349 1.283 . S
C327 O339 1.281 . S
C327 O340 1.236 . S
C328 O350 1.240 . S
C328 O351 1.264 . S
O329 Mn324 2.095 . S
O329 C338 1.250 . S
O330 Mn325 2.121 . S
O330 C338 1.258 . S
C331 N332 1.326 . S
C331 C335 1.460 . S
C331 H337 0.929 . S
N332 Mn325 2.257 . S
N332 C331 1.326 . S
N332 C336 1.362 . S
C333 C334 1.258 . S
C333 C336 1.431 . S
C333 C353 1.449 . S
C334 C333 1.258 . S
C334 C335 1.477 . S
C334 H354 0.931 . S
C335 C331 1.460 . S
C335 C334 1.477 . S
C335 H355 0.930 . S
C336 N332 1.362 . S
C336 C333 1.431 . S
C336 C346 1.476 . S
H337 C331 0.929 . S
C338 O329 1.250 . S
C338 O330 1.258 . S
O339 Mn324 2.162 . S
O339 C327 1.281 . S
O340 Mn324 2.297 . S
O340 C327 1.236 . S
N341 Mn325 2.282 . S
N341 C342 1.328 . S
N341 C346 1.318 . S
C342 N341 1.328 . S
C342 C343 1.457 . S
C342 H347 0.929 . S
C343 C342 1.457 . S
C343 C344 1.291 . S
C343 H356 0.931 . S
C344 C343 1.291 . S
C344 C345 1.373 . S
C344 H357 0.929 . S
C345 C344 1.373 . S
C345 C346 1.396 . S
C345 C352 1.403 . S
C346 C336 1.476 . S
C346 N341 1.318 . S
C346 C345 1.396 . S
H347 C342 0.929 . S
O348 Mn324 2.385 . S
O348 C326 1.234 . S
O349 Mn324 2.209 . S
O349 Mn325 2.215 . S
O349 C326 1.283 . S
O350 Mn324 2.094 . S
O350 C328 1.240 . S
O351 Mn325 2.117 . S
O351 C328 1.264 . S
C352 C345 1.403 . S
C352 C353 1.399 . S
C352 H358 0.929 . S
C353 C333 1.449 . S
C353 C352 1.399 . S
C353 H359 0.930 . S
H354 C334 0.931 . S
H355 C335 0.930 . S
H356 C343 0.931 . S
H357 C344 0.929 . S
H358 C352 0.929 . S
H359 C353 0.930 . S
Mn360 O365 2.095 . S
Mn360 O375 2.162 . S
Mn360 O376 2.297 . S
Mn360 O384 2.385 . S
Mn360 O385 2.209 . S
Mn360 O386 2.094 . S
Mn361 O366 2.121 . S
Mn361 N368 2.257 . S
Mn361 N377 2.282 . S
Mn361 O385 2.215 . S
Mn361 O387 2.117 . S
C362 O384 1.234 . S
C362 O385 1.283 . S
C363 O375 1.281 . S
C363 O376 1.236 . S
C364 O386 1.240 . S
C364 O387 1.264 . S
O365 Mn360 2.095 . S
O365 C374 1.250 . S
O366 Mn361 2.121 . S
O366 C374 1.258 . S
C367 N368 1.326 . S
C367 C371 1.460 . S
C367 H373 0.929 . S
N368 Mn361 2.257 . S
N368 C367 1.326 . S
N368 C372 1.362 . S
C369 C370 1.258 . S
C369 C372 1.431 . S
C369 C389 1.449 . S
C370 C369 1.258 . S
C370 C371 1.477 . S
C370 H390 0.931 . S
C371 C367 1.460 . S
C371 C370 1.477 . S
C371 H391 0.930 . S
C372 N368 1.362 . S
C372 C369 1.431 . S
C372 C382 1.476 . S
H373 C367 0.929 . S
C374 O365 1.250 . S
C374 O366 1.258 . S
O375 Mn360 2.162 . S
O375 C363 1.281 . S
O376 Mn360 2.297 . S
O376 C363 1.236 . S
N377 Mn361 2.282 . S
N377 C378 1.328 . S
N377 C382 1.318 . S
C378 N377 1.328 . S
C378 C379 1.457 . S
C378 H383 0.929 . S
C379 C378 1.457 . S
C379 C380 1.291 . S
C379 H392 0.931 . S
C380 C379 1.291 . S
C380 C381 1.373 . S
C380 H393 0.929 . S
C381 C380 1.373 . S
C381 C382 1.396 . S
C381 C388 1.403 . S
C382 C372 1.476 . S
C382 N377 1.318 . S
C382 C381 1.396 . S
H383 C378 0.929 . S
O384 Mn360 2.385 . S
O384 C362 1.234 . S
O385 Mn360 2.209 . S
O385 Mn361 2.215 . S
O385 C362 1.283 . S
O386 Mn360 2.094 . S
O386 C364 1.240 . S
O387 Mn361 2.117 . S
O387 C364 1.264 . S
C388 C381 1.403 . S
C388 C389 1.399 . S
C388 H394 0.929 . S
C389 C369 1.449 . S
C389 C388 1.399 . S
C389 H395 0.930 . S
H390 C370 0.931 . S
H391 C371 0.930 . S
H392 C379 0.931 . S
H393 C380 0.929 . S
H394 C388 0.929 . S
H395 C389 0.930 . S
Mn396 O401 2.095 . S
Mn396 O411 2.162 . S
Mn396 O412 2.297 . S
Mn396 O420 2.385 . S
Mn396 O421 2.209 . S
Mn396 O422 2.094 . S
Mn397 O402 2.121 . S
Mn397 N404 2.257 . S
Mn397 N413 2.282 . S
Mn397 O421 2.215 . S
Mn397 O423 2.117 . S
C398 O420 1.234 . S
C398 O421 1.283 . S
C399 O411 1.281 . S
C399 O412 1.236 . S
C400 O422 1.240 . S
C400 O423 1.264 . S
O401 Mn396 2.095 . S
O401 C410 1.250 . S
O402 Mn397 2.121 . S
O402 C410 1.258 . S
C403 N404 1.326 . S
C403 C407 1.460 . S
C403 H409 0.929 . S
N404 Mn397 2.257 . S
N404 C403 1.326 . S
N404 C408 1.362 . S
C405 C406 1.258 . S
C405 C408 1.431 . S
C405 C425 1.449 . S
C406 C405 1.258 . S
C406 C407 1.477 . S
C406 H426 0.931 1_556 S
C407 C403 1.460 . S
C407 C406 1.477 . S
C407 H427 0.930 . S
C408 N404 1.362 . S
C408 C405 1.431 . S
C408 C418 1.476 . S
H409 C403 0.929 . S
C410 O401 1.250 . S
C410 O402 1.258 . S
O411 Mn396 2.162 . S
O411 C399 1.281 . S
O412 Mn396 2.297 . S
O412 C399 1.236 . S
N413 Mn397 2.282 . S
N413 C414 1.328 . S
N413 C418 1.318 . S
C414 N413 1.328 . S
C414 C415 1.457 . S
C414 H419 0.929 . S
C415 C414 1.457 . S
C415 C416 1.291 . S
C415 H428 0.931 . S
C416 C415 1.291 . S
C416 C417 1.373 . S
C416 H429 0.929 . S
C417 C416 1.373 . S
C417 C418 1.396 . S
C417 C424 1.403 . S
C418 C408 1.476 . S
C418 N413 1.318 . S
C418 C417 1.396 . S
H419 C414 0.929 . S
O420 Mn396 2.385 . S
O420 C398 1.234 . S
O421 Mn396 2.209 . S
O421 Mn397 2.215 . S
O421 C398 1.283 . S
O422 Mn396 2.094 . S
O422 C400 1.240 . S
O423 Mn397 2.117 . S
O423 C400 1.264 . S
C424 C417 1.403 . S
C424 C425 1.399 . S
C424 H430 0.929 . S
C425 C405 1.449 . S
C425 C424 1.399 . S
C425 H431 0.930 1_556 S
H426 C406 0.931 1_554 S
H427 C407 0.930 . S
H428 C415 0.931 . S
H429 C416 0.929 . S
H430 C424 0.929 . S
H431 C425 0.930 1_554 S
Mn432 O437 2.095 . S
Mn432 O447 2.162 . S
Mn432 O448 2.297 . S
Mn432 O456 2.385 . S
Mn432 O457 2.209 . S
Mn432 O458 2.094 . S
Mn433 O438 2.121 . S
Mn433 N440 2.257 . S
Mn433 N449 2.282 . S
Mn433 O457 2.215 . S
Mn433 O459 2.117 . S
C434 O456 1.234 . S
C434 O457 1.283 . S
C435 O447 1.281 . S
C435 O448 1.236 . S
C436 O458 1.240 . S
C436 O459 1.264 . S
O437 Mn432 2.095 . S
O437 C446 1.250 . S
O438 Mn433 2.121 . S
O438 C446 1.258 . S
C439 N440 1.326 . S
C439 C443 1.460 . S
C439 H445 0.929 . S
N440 Mn433 2.257 . S
N440 C439 1.326 . S
N440 C444 1.362 . S
C441 C442 1.258 . S
C441 C444 1.431 . S
C441 C461 1.449 . S
C442 C441 1.258 . S
C442 C443 1.477 . S
C442 H462 0.931 . S
C443 C439 1.460 . S
C443 C442 1.477 . S
C443 H463 0.930 . S
C444 N440 1.362 . S
C444 C441 1.431 . S
C444 C454 1.476 . S
H445 C439 0.929 . S
C446 O437 1.250 . S
C446 O438 1.258 . S
O447 Mn432 2.162 . S
O447 C435 1.281 . S
O448 Mn432 2.297 . S
O448 C435 1.236 . S
N449 Mn433 2.282 . S
N449 C450 1.328 . S
N449 C454 1.318 . S
C450 N449 1.328 . S
C450 C451 1.457 . S
C450 H455 0.929 . S
C451 C450 1.457 . S
C451 C452 1.291 . S
C451 H464 0.931 . S
C452 C451 1.291 . S
C452 C453 1.373 . S
C452 H465 0.929 . S
C453 C452 1.373 . S
C453 C454 1.396 . S
C453 C460 1.403 . S
C454 C444 1.476 . S
C454 N449 1.318 . S
C454 C453 1.396 . S
H455 C450 0.929 . S
O456 Mn432 2.385 . S
O456 C434 1.234 . S
O457 Mn432 2.209 . S
O457 Mn433 2.215 . S
O457 C434 1.283 . S
O458 Mn432 2.094 . S
O458 C436 1.240 . S
O459 Mn433 2.117 . S
O459 C436 1.264 . S
C460 C453 1.403 . S
C460 C461 1.399 . S
C460 H466 0.929 . S
C461 C441 1.449 . S
C461 C460 1.399 . S
C461 H467 0.930 . S
H462 C442 0.931 . S
H463 C443 0.930 . S
H464 C451 0.931 . S
H465 C452 0.929 . S
H466 C460 0.929 . S
H467 C461 0.930 . S
Mn468 O473 2.095 . S
Mn468 O483 2.162 . S
Mn468 O484 2.297 . S
Mn468 O492 2.385 . S
Mn468 O493 2.209 . S
Mn468 O494 2.094 . S
Mn469 O474 2.121 . S
Mn469 N476 2.257 . S
Mn469 N485 2.282 . S
Mn469 O493 2.215 . S
Mn469 O495 2.117 . S
C470 O492 1.234 . S
C470 O493 1.283 . S
C471 O483 1.281 . S
C471 O484 1.236 . S
C472 O494 1.240 . S
C472 O495 1.264 . S
O473 Mn468 2.095 . S
O473 C482 1.250 . S
O474 Mn469 2.121 . S
O474 C482 1.258 . S
C475 N476 1.326 . S
C475 C479 1.460 . S
C475 H481 0.929 . S
N476 Mn469 2.257 . S
N476 C475 1.326 . S
N476 C480 1.362 . S
C477 C478 1.258 . S
C477 C480 1.431 . S
C477 C497 1.449 . S
C478 C477 1.258 . S
C478 C479 1.477 . S
C478 H498 0.931 . S
C479 C475 1.460 . S
C479 C478 1.477 . S
C479 H499 0.930 . S
C480 N476 1.362 . S
C480 C477 1.431 . S
C480 C490 1.476 . S
H481 C475 0.929 . S
C482 O473 1.250 . S
C482 O474 1.258 . S
O483 Mn468 2.162 . S
O483 C471 1.281 . S
O484 Mn468 2.297 . S
O484 C471 1.236 . S
N485 Mn469 2.282 . S
N485 C486 1.328 . S
N485 C490 1.318 . S
C486 N485 1.328 . S
C486 C487 1.457 . S
C486 H491 0.929 . S
C487 C486 1.457 . S
C487 C488 1.291 . S
C487 H500 0.931 . S
C488 C487 1.291 . S
C488 C489 1.373 . S
C488 H501 0.929 . S
C489 C488 1.373 . S
C489 C490 1.396 . S
C489 C496 1.403 . S
C490 C480 1.476 . S
C490 N485 1.318 . S
C490 C489 1.396 . S
H491 C486 0.929 . S
O492 Mn468 2.385 . S
O492 C470 1.234 . S
O493 Mn468 2.209 . S
O493 Mn469 2.215 . S
O493 C470 1.283 . S
O494 Mn468 2.094 . S
O494 C472 1.240 . S
O495 Mn469 2.117 . S
O495 C472 1.264 . S
C496 C489 1.403 . S
C496 C497 1.399 . S
C496 H502 0.929 . S
C497 C477 1.449 . S
C497 C496 1.399 . S
C497 H503 0.930 . S
H498 C478 0.931 . S
H499 C479 0.930 . S
H500 C487 0.931 . S
H501 C488 0.929 . S
H502 C496 0.929 . S
H503 C497 0.930 . S
C504 C505 1.387 . S
C504 H508 0.950 . S
C504 C513 1.390 . S
C505 C504 1.387 . S
C505 C507 1.387 . S
H506 C513 0.950 . S
C507 C505 1.387 . S
C507 C509 1.390 . S
C507 H511 0.950 . S
H508 C504 0.950 . S
C509 C507 1.390 . S
C509 C510 1.387 . S
C509 H512 0.950 . S
C510 C509 1.387 . S
C510 C513 1.387 . S
H511 C507 0.950 . S
H512 C509 0.950 . S
C513 C504 1.390 . S
C513 H506 0.950 . S
C513 C510 1.387 . S
C514 C515 1.387 . S
C514 H518 0.950 . S
C514 C523 1.390 . S
C515 C514 1.387 . S
C515 C517 1.387 . S
H516 C523 0.950 . S
C517 C515 1.387 . S
C517 C519 1.390 . S
C517 H521 0.950 . S
H518 C514 0.950 . S
C519 C517 1.390 . S
C519 C520 1.387 . S
C519 H522 0.950 . S
C520 C519 1.387 . S
C520 C523 1.387 . S
H521 C517 0.950 . S
H522 C519 0.950 . S
C523 C514 1.390 . S
C523 H516 0.950 . S
C523 C520 1.387 . S
C524 C525 1.387 . S
C524 H528 0.950 . S
C524 C533 1.390 . S
C525 C524 1.387 . S
C525 C527 1.387 . S
H526 C533 0.950 . S
C527 C525 1.387 . S
C527 C529 1.390 . S
C527 H531 0.950 . S
H528 C524 0.950 . S
C529 C527 1.390 . S
C529 C530 1.387 . S
C529 H532 0.950 . S
C530 C529 1.387 . S
C530 C533 1.387 . S
H531 C527 0.950 . S
H532 C529 0.950 . S
C533 C524 1.390 . S
C533 H526 0.950 . S
C533 C530 1.387 . S
C534 C535 1.387 . S
C534 H538 0.950 . S
C534 C543 1.390 . S
C535 C534 1.387 . S
C535 C537 1.387 . S
H536 C543 0.950 . S
C537 C535 1.387 . S
C537 C539 1.390 . S
C537 H541 0.950 . S
H538 C534 0.950 . S
C539 C537 1.390 . S
C539 C540 1.387 . S
C539 H542 0.950 . S
C540 C539 1.387 . S
C540 C543 1.387 . S
H541 C537 0.950 . S
H542 C539 0.950 . S
C543 C534 1.390 . S
C543 H536 0.950 . S
C543 C540 1.387 . S
C544 C545 1.387 . S
C544 H548 0.950 . S
C544 C553 1.390 . S
C545 C544 1.387 . S
C545 C547 1.387 . S
H546 C553 0.950 . S
C547 C545 1.387 . S
C547 C549 1.390 . S
C547 H551 0.950 . S
H548 C544 0.950 . S
C549 C547 1.390 . S
C549 C550 1.387 . S
C549 H552 0.950 . S
C550 C549 1.387 . S
C550 C553 1.387 . S
H551 C547 0.950 . S
H552 C549 0.950 . S
C553 C544 1.390 . S
C553 H546 0.950 . S
C553 C550 1.387 . S
C554 C555 1.387 . S
C554 H558 0.950 . S
C554 C563 1.390 . S
C555 C554 1.387 . S
C555 C557 1.387 . S
H556 C563 0.950 . S
C557 C555 1.387 . S
C557 C559 1.390 . S
C557 H561 0.950 . S
H558 C554 0.950 . S
C559 C557 1.390 . S
C559 C560 1.387 . S
C559 H562 0.950 . S
C560 C559 1.387 . S
C560 C563 1.387 . S
H561 C557 0.950 . S
H562 C559 0.950 . S
C563 C554 1.390 . S
C563 H556 0.950 . S
C563 C560 1.387 . S
C564 C565 1.387 . S
C564 H568 0.950 . S
C564 C573 1.390 . S
C565 C564 1.387 . S
C565 C567 1.387 . S
H566 C573 0.950 . S
C567 C565 1.387 . S
C567 C569 1.390 . S
C567 H571 0.950 . S
H568 C564 0.950 . S
C569 C567 1.390 . S
C569 C570 1.387 . S
C569 H572 0.950 . S
C570 C569 1.387 . S
C570 C573 1.387 . S
H571 C567 0.950 . S
H572 C569 0.950 . S
C573 C564 1.390 . S
C573 H566 0.950 . S
C573 C570 1.387 . S
C574 C575 1.387 . S
C574 H578 0.950 . S
C574 C583 1.390 . S
C575 C574 1.387 . S
C575 C577 1.387 . S
H576 C583 0.950 . S
C577 C575 1.387 . S
C577 C579 1.390 . S
C577 H581 0.950 . S
H578 C574 0.950 . S
C579 C577 1.390 . S
C579 C580 1.387 . S
C579 H582 0.950 . S
C580 C579 1.387 . S
C580 C583 1.387 . S
H581 C577 0.950 . S
H582 C579 0.950 . S
C583 C574 1.390 . S
C583 H576 0.950 . S
C583 C580 1.387 . S
C584 C585 1.387 . S
C584 H588 0.950 . S
C584 C593 1.390 . S
C585 C584 1.387 . S
C585 C587 1.387 . S
H586 C593 0.950 . S
C587 C585 1.387 . S
C587 C589 1.390 . S
C587 H591 0.950 . S
H588 C584 0.950 . S
C589 C587 1.390 . S
C589 C590 1.387 . S
C589 H592 0.950 . S
C590 C589 1.387 . S
C590 C593 1.387 . S
H591 C587 0.950 . S
H592 C589 0.950 . S
C593 C584 1.390 . S
C593 H586 0.950 . S
C593 C590 1.387 . S
C594 C595 1.387 . S
C594 H598 0.950 . S
C594 C603 1.390 . S
C595 C594 1.387 . S
C595 C597 1.387 . S
H596 C603 0.950 . S
C597 C595 1.387 . S
C597 C599 1.390 . S
C597 H601 0.950 1_554 S
H598 C594 0.950 . S
C599 C597 1.390 . S
C599 C600 1.387 . S
C599 H602 0.950 . S
C600 C599 1.387 . S
C600 C603 1.387 . S
H601 C597 0.950 1_556 S
H602 C599 0.950 . S
C603 C594 1.390 . S
C603 H596 0.950 . S
C603 C600 1.387 . S
C604 C605 1.387 . S
C604 H608 0.950 . S
C604 C613 1.390 . S
C605 C604 1.387 . S
C605 C607 1.387 . S
H606 C613 0.950 . S
C607 C605 1.387 . S
C607 C609 1.390 . S
C607 H611 0.950 . S
H608 C604 0.950 . S
C609 C607 1.390 . S
C609 C610 1.387 . S
C609 H612 0.950 . S
C610 C609 1.387 . S
C610 C613 1.387 . S
H611 C607 0.950 . S
H612 C609 0.950 . S
C613 C604 1.390 . S
C613 H606 0.950 . S
C613 C610 1.387 . S
C614 C615 1.387 . S
C614 H618 0.950 . S
C614 C623 1.390 . S
C615 C614 1.387 . S
C615 C617 1.387 . S
H616 C623 0.950 . S
C617 C615 1.387 . S
C617 C619 1.390 . S
C617 H621 0.950 . S
H618 C614 0.950 . S
C619 C617 1.390 . S
C619 C620 1.387 . S
C619 H622 0.950 . S
C620 C619 1.387 . S
C620 C623 1.387 . S
H621 C617 0.950 . S
H622 C619 0.950 . S
C623 C614 1.390 . S
C623 H616 0.950 . S
C623 C620 1.387 . S
C624 C625 1.387 . S
C624 H628 0.950 . S
C624 C633 1.390 . S
C625 C624 1.387 . S
C625 C627 1.387 . S
H626 C633 0.950 . S
C627 C625 1.387 . S
C627 C629 1.390 . S
C627 H631 0.950 . S
H628 C624 0.950 . S
C629 C627 1.390 . S
C629 C630 1.387 . S
C629 H632 0.950 . S
C630 C629 1.387 . S
C630 C633 1.387 . S
H631 C627 0.950 . S
H632 C629 0.950 . S
C633 C624 1.390 . S
C633 H626 0.950 . S
C633 C630 1.387 . S
C634 C635 1.387 . S
C634 H638 0.950 . S
C634 C643 1.390 . S
C635 C634 1.387 . S
C635 C637 1.387 . S
H636 C643 0.950 . S
C637 C635 1.387 . S
C637 C639 1.390 . S
C637 H641 0.950 . S
H638 C634 0.950 . S
C639 C637 1.390 . S
C639 C640 1.387 . S
C639 H642 0.950 . S
C640 C639 1.387 . S
C640 C643 1.387 . S
H641 C637 0.950 . S
H642 C639 0.950 . S
C643 C634 1.390 . S
C643 H636 0.950 . S
C643 C640 1.387 . S
C644 C645 1.387 . S
C644 H648 0.950 . S
C644 C653 1.390 . S
C645 C644 1.387 . S
C645 C647 1.387 . S
H646 C653 0.950 . S
C647 C645 1.387 . S
C647 C649 1.390 . S
C647 H651 0.950 . S
H648 C644 0.950 . S
C649 C647 1.390 . S
C649 C650 1.387 . S
C649 H652 0.950 . S
C650 C649 1.387 . S
C650 C653 1.387 . S
H651 C647 0.950 . S
H652 C649 0.950 . S
C653 C644 1.390 . S
C653 H646 0.950 . S
C653 C650 1.387 . S
C654 C655 1.387 . S
C654 H658 0.950 . S
C654 C663 1.390 . S
C655 C654 1.387 . S
C655 C657 1.387 . S
H656 C663 0.950 . S
C657 C655 1.387 . S
C657 C659 1.390 . S
C657 H661 0.950 . S
H658 C654 0.950 . S
C659 C657 1.390 . S
C659 C660 1.387 . S
C659 H662 0.950 1_556 S
C660 C659 1.387 . S
C660 C663 1.387 . S
H661 C657 0.950 . S
H662 C659 0.950 1_554 S
C663 C654 1.390 . S
C663 H656 0.950 . S
C663 C660 1.387 . S
C664 C665 1.387 . S
C664 H668 0.950 . S
C664 C673 1.390 . S
C665 C664 1.387 . S
C665 C667 1.387 . S
H666 C673 0.950 . S
C667 C665 1.387 . S
C667 C669 1.390 . S
C667 H671 0.950 . S
H668 C664 0.950 . S
C669 C667 1.390 . S
C669 C670 1.387 . S
C669 H672 0.950 . S
C670 C669 1.387 . S
C670 C673 1.387 . S
H671 C667 0.950 . S
H672 C669 0.950 . S
C673 C664 1.390 . S
C673 H666 0.950 . S
C673 C670 1.387 . S
C674 C675 1.387 . S
C674 H678 0.950 . S
C674 C683 1.390 . S
C675 C674 1.387 . S
C675 C677 1.387 . S
H676 C683 0.950 . S
C677 C675 1.387 . S
C677 C679 1.390 . S
C677 H681 0.950 . S
H678 C674 0.950 . S
C679 C677 1.390 . S
C679 C680 1.387 . S
C679 H682 0.950 . S
C680 C679 1.387 . S
C680 C683 1.387 . S
H681 C677 0.950 . S
H682 C679 0.950 . S
C683 C674 1.390 . S
C683 H676 0.950 . S
C683 C680 1.387 . S
C684 C685 1.387 . S
C684 H688 0.950 . S
C684 C693 1.390 . S
C685 C684 1.387 . S
C685 C687 1.387 . S
H686 C693 0.950 . S
C687 C685 1.387 . S
C687 C689 1.390 . S
C687 H691 0.950 . S
H688 C684 0.950 . S
C689 C687 1.390 . S
C689 C690 1.387 . S
C689 H692 0.950 . S
C690 C689 1.387 . S
C690 C693 1.387 . S
H691 C687 0.950 . S
H692 C689 0.950 . S
C693 C684 1.390 . S
C693 H686 0.950 . S
C693 C690 1.387 . S
C694 C695 1.387 . S
C694 H698 0.950 . S
C694 C703 1.390 . S
C695 C694 1.387 . S
C695 C697 1.387 . S
H696 C703 0.950 . S
C697 C695 1.387 . S
C697 C699 1.390 . S
C697 H701 0.950 . S
H698 C694 0.950 . S
C699 C697 1.390 . S
C699 C700 1.387 . S
C699 H702 0.950 . S
C700 C699 1.387 . S
C700 C703 1.387 . S
H701 C697 0.950 . S
H702 C699 0.950 . S
C703 C694 1.390 . S
C703 H696 0.950 . S
C703 C700 1.387 . S
C704 C705 1.387 . S
C704 H708 0.950 . S
C704 C713 1.390 . S
C705 C704 1.387 . S
C705 C707 1.387 . S
H706 C713 0.950 . S
C707 C705 1.387 . S
C707 C709 1.390 . S
C707 H711 0.950 . S
H708 C704 0.950 . S
C709 C707 1.390 . S
C709 C710 1.387 . S
C709 H712 0.950 . S
C710 C709 1.387 . S
C710 C713 1.387 . S
H711 C707 0.950 . S
H712 C709 0.950 . S
C713 C704 1.390 . S
C713 H706 0.950 . S
C713 C710 1.387 . S
C714 C715 1.387 . S
C714 H718 0.950 . S
C714 C723 1.390 . S
C715 C714 1.387 . S
C715 C717 1.387 . S
H716 C723 0.950 . S
C717 C715 1.387 . S
C717 C719 1.390 . S
C717 H721 0.950 . S
H718 C714 0.950 . S
C719 C717 1.390 . S
C719 C720 1.387 . S
C719 H722 0.950 . S
C720 C719 1.387 . S
C720 C723 1.387 . S
H721 C717 0.950 . S
H722 C719 0.950 . S
C723 C714 1.390 . S
C723 H716 0.950 . S
C723 C720 1.387 . S
C724 C725 1.387 . S
C724 H728 0.950 . S
C724 C733 1.390 1_554 S
C725 C724 1.387 . S
C725 C727 1.387 . S
H726 C733 0.950 . S
C727 C725 1.387 . S
C727 C729 1.390 1_554 S
C727 H731 0.950 . S
H728 C724 0.950 . S
C729 C727 1.390 1_556 S
C729 C730 1.387 . S
C729 H732 0.950 . S
C730 C729 1.387 . S
C730 C733 1.387 . S
H731 C727 0.950 . S
H732 C729 0.950 . S
C733 C724 1.390 1_556 S
C733 H726 0.950 . S
C733 C730 1.387 . S
C734 C735 1.387 . S
C734 H738 0.950 . S
C734 C743 1.390 . S
C735 C734 1.387 . S
C735 C737 1.387 . S
H736 C743 0.950 . S
C737 C735 1.387 . S
C737 C739 1.390 . S
C737 H741 0.950 . S
H738 C734 0.950 . S
C739 C737 1.390 . S
C739 C740 1.387 . S
C739 H742 0.950 . S
C740 C739 1.387 . S
C740 C743 1.387 . S
H741 C737 0.950 . S
H742 C739 0.950 . S
C743 C734 1.390 . S
C743 H736 0.950 . S
C743 C740 1.387 . S
C510 C471 1.620 . S
C505 C45 1.624 . S
C515 C84 1.647 . S
C520 C291 1.660 . S
C525 C126 1.585 . S
C530 C338 1.643 . S
C535 C189 1.583 . S
C540 C374 1.578 . S
C550 C399 1.602 . S
C545 C228 1.592 . S
C555 C270 1.560 . S
C560 C435 1.607 . S
C565 C69 1.616 . S
C570 C327 1.650 . S
C575 C141 1.606 . S
C580 C363 1.603 . S
C585 C174 1.526 . S
C590 C410 1.568 . S
C600 C446 1.620 . S
C595 C213 1.587 . S
C610 C482 1.629 . S
C605 C285 1.630 . S
C620 C302 1.645 . S
C615 C30 1.588 . S
C625 C36 1.499 . S
C630 C326 1.483 . S
C635 C93 1.501 . S
C640 C362 1.491 . S
C650 C400 1.498 . S
C645 C117 1.502 . S
C655 C180 1.508 . S
C660 C436 1.500 1_556 S
C670 C472 1.467 . S
C665 C237 1.475 . S
C680 C292 1.460 . S
C675 C261 1.466 . S
C690 C470 1.474 . S
C685 C78 1.481 . S
C695 C132 1.493 . S
C700 C290 1.477 . S
C710 C328 1.483 . S
C705 C165 1.488 . S
C715 C222 1.489 . S
C720 C364 1.491 . S
C725 C276 1.531 . S
C730 C398 1.519 . S
C735 C21 1.516 . S
C740 C434 1.505 . S
