# Generated by pormake.
# Topology nom, (4,4)-cn, num edge types: 1
# Building blocks:
#     Node 0, Type 0, BuildingBlock: MUDLON_clean_linker_0, # of connection points: 4
#     Node 1, Type 0, BuildingBlock: MUDLON_clean_linker_0, # of connection points: 4
#     Node 2, Type 0, BuildingBlock: MUDLON_clean_linker_0, # of connection points: 4
#     Node 3, Type 0, BuildingBlock: MUDLON_clean_linker_0, # of connection points: 4
#     Node 4, Type 0, BuildingBlock: MUDLON_clean_linker_0, # of connection points: 4
#     Node 5, Type 0, BuildingBlock: MUDLON_clean_linker_0, # of connection points: 4
#     Node 6, Type 1, BuildingBlock: NAHDIM_clean_sbu_0, # of connection points: 4
#     Node 7, Type 1, BuildingBlock: NAHDIM_clean_sbu_0, # of connection points: 4
#     Node 8, Type 1, BuildingBlock: NAHDIM_clean_sbu_0, # of connection points: 4
#     Node 9, Type 1, BuildingBlock: NAHDIM_clean_sbu_0, # of connection points: 4
#     Node 10, Type 1, BuildingBlock: NAHDIM_clean_sbu_0, # of connection points: 4
#     Node 11, Type 1, BuildingBlock: NAHDIM_clean_sbu_0, # of connection points: 4
#     Edge 12, Type (0, 1), BuildingBlock: KIFKEQ_clean_linker_1, # of connection points: 2
#     Edge 13, Type (0, 1), BuildingBlock: KIFKEQ_clean_linker_1, # of connection points: 2
#     Edge 14, Type (0, 1), BuildingBlock: KIFKEQ_clean_linker_1, # of connection points: 2
#     Edge 15, Type (0, 1), BuildingBlock: KIFKEQ_clean_linker_1, # of connection points: 2
#     Edge 16, Type (0, 1), BuildingBlock: KIFKEQ_clean_linker_1, # of connection points: 2
#     Edge 17, Type (0, 1), BuildingBlock: KIFKEQ_clean_linker_1, # of connection points: 2
#     Edge 18, Type (0, 1), BuildingBlock: KIFKEQ_clean_linker_1, # of connection points: 2
#     Edge 19, Type (0, 1), BuildingBlock: KIFKEQ_clean_linker_1, # of connection points: 2
#     Edge 20, Type (0, 1), BuildingBlock: KIFKEQ_clean_linker_1, # of connection points: 2
#     Edge 21, Type (0, 1), BuildingBlock: KIFKEQ_clean_linker_1, # of connection points: 2
#     Edge 22, Type (0, 1), BuildingBlock: KIFKEQ_clean_linker_1, # of connection points: 2
#     Edge 23, Type (0, 1), BuildingBlock: KIFKEQ_clean_linker_1, # of connection points: 2
#     Edge 24, Type (0, 1), BuildingBlock: KIFKEQ_clean_linker_1, # of connection points: 2
#     Edge 25, Type (0, 1), BuildingBlock: KIFKEQ_clean_linker_1, # of connection points: 2
#     Edge 26, Type (0, 1), BuildingBlock: KIFKEQ_clean_linker_1, # of connection points: 2
#     Edge 27, Type (0, 1), BuildingBlock: KIFKEQ_clean_linker_1, # of connection points: 2
#     Edge 28, Type (0, 1), BuildingBlock: KIFKEQ_clean_linker_1, # of connection points: 2
#     Edge 29, Type (0, 1), BuildingBlock: KIFKEQ_clean_linker_1, # of connection points: 2
#     Edge 30, Type (0, 1), BuildingBlock: KIFKEQ_clean_linker_1, # of connection points: 2
#     Edge 31, Type (0, 1), BuildingBlock: KIFKEQ_clean_linker_1, # of connection points: 2
#     Edge 32, Type (0, 1), BuildingBlock: KIFKEQ_clean_linker_1, # of connection points: 2
#     Edge 33, Type (0, 1), BuildingBlock: KIFKEQ_clean_linker_1, # of connection points: 2
#     Edge 34, Type (0, 1), BuildingBlock: KIFKEQ_clean_linker_1, # of connection points: 2
#     Edge 35, Type (0, 1), BuildingBlock: KIFKEQ_clean_linker_1, # of connection points: 2
# Relax obj value: 0.025
# Max RMSD: 0.122
# Mean RMSD: 0.105
data_MOF--net-nom--node1-NAHDIM_clean_sbu_0--node2-MUDLON_clean_linker_0--edge1-KIFKEQ_clean_linker_1
_symmetry_space_group_name_H-M    P1
_symmetry_Int_Tables_number       1
_symmetry_cell_setting            triclinic
loop_
_symmetry_equiv_pos_as_xyz
'x, y, z'
_cell_length_a     60.275769
_cell_length_b     62.686523
_cell_length_c     61.384727
_cell_angle_alpha  90.308201
_cell_angle_beta   90.383459
_cell_angle_gamma 121.29676
loop_
_atom_site_label
_atom_site_type_symbol
_atom_site_fract_x
_atom_site_fract_y
_atom_site_fract_z
_atom_type_partial_charge
H0 H 0.13697 0.53258 0.3082 0.0
N1 N 0.09824 0.53375 0.32699 0.0
H2 H 0.17035 0.56407 0.28475 0.0
H3 H 0.09842 0.57431 0.30996 0.0
H4 H 0.13117 0.60549 0.28599 0.0
H5 H 0.10775 0.57544 0.34969 0.0
H6 H 0.12705 0.58793 0.38609 0.0
H7 H 0.10935 0.50768 0.35406 0.0
H8 H 0.12927 0.52025 0.39037 0.0
H9 H 0.06908 0.48813 0.31074 0.0
H10 H 0.06517 0.55072 0.33491 0.0
H11 H 0.02213 0.46457 0.30484 0.0
H12 H 0.01843 0.52791 0.32808 0.0
H13 H 0.87154 0.38848 0.28702 0.0
H14 H 0.84962 0.37987 0.2516 0.0
H15 H 0.89316 0.45881 0.23749 0.0
H16 H 0.9142 0.4672 0.27328 0.0
H17 H 0.8953 0.47079 0.30694 0.0
H18 H 0.86105 0.47083 0.32816 0.0
H19 H 0.84258 0.40093 0.35719 0.0
H20 H 0.87662 0.40087 0.33563 0.0
H21 H 0.94198 0.43505 0.27869 0.0
H22 H 0.9887 0.46137 0.28271 0.0
H23 H 0.97885 0.49391 0.3413 0.0
N24 N 0.90499 0.43271 0.30469 0.0
H25 H 0.93224 0.46866 0.33678 0.0
C26 C 0.1152 0.55096 0.31081 0.0
C27 C 0.1354 0.54825 0.30306 0.0
C28 C 0.15438 0.56624 0.28957 0.0
C29 C 0.15352 0.58741 0.28348 0.0
C30 C 0.13263 0.58961 0.2906 0.0
C31 C 0.1137 0.57162 0.3042 0.0
C32 C 0.10708 0.54053 0.3492 0.0
C33 C 0.11192 0.56307 0.35859 0.0
C34 C 0.12321 0.57031 0.37935 0.0
C35 C 0.12988 0.55518 0.39109 0.0
C36 C 0.12413 0.53223 0.38191 0.0
C37 C 0.11285 0.52503 0.36116 0.0
C38 C 0.07067 0.52115 0.32305 0.0
C39 C 0.05806 0.49688 0.31446 0.0
C40 C 0.03124 0.48356 0.31096 0.0
C41 C 0.01638 0.49437 0.3158 0.0
C42 C 0.02915 0.51887 0.32434 0.0
C43 C 0.05602 0.5321 0.32805 0.0
C44 C 0.8945 0.42834 0.28276 0.0
C45 C 0.87649 0.40383 0.27613 0.0
C46 C 0.8641 0.39898 0.25584 0.0
C47 C 0.86959 0.41865 0.24163 0.0
C48 C 0.88815 0.44324 0.24813 0.0
C49 C 0.90036 0.44807 0.26853 0.0
C50 C 0.88826 0.43559 0.31958 0.0
C51 C 0.88407 0.45564 0.31804 0.0
C52 C 0.86452 0.45564 0.33016 0.0
C53 C 0.84904 0.43579 0.3442 0.0
C54 C 0.85433 0.41658 0.34665 0.0
C55 C 0.87369 0.41647 0.33436 0.0
C56 C 0.93288 0.45025 0.30671 0.0
C57 C 0.9497 0.44835 0.29209 0.0
C58 C 0.9766 0.4632 0.29461 0.0
C59 C 0.98768 0.47987 0.31233 0.0
C60 C 0.97107 0.48173 0.32715 0.0
C61 C 0.94408 0.46707 0.32449 0.0
H62 H 0.49707 0.90617 0.49454 0.0
N63 N 0.48645 0.92807 0.46268 0.0
H64 H 0.46599 0.87148 0.51713 0.0
H65 H 0.43432 0.91044 0.46529 0.0
H66 H 0.40324 0.87618 0.48795 0.0
H67 H 0.45565 0.93373 0.43332 0.0
H68 H 0.44434 0.9159 0.39636 0.0
H69 H 0.50487 0.90339 0.44195 0.0
H70 H 0.49396 0.88573 0.40499 0.0
H71 H 0.53576 0.96249 0.45697 0.0
H72 H 0.46259 0.95347 0.47565 0.0
H73 H 0.55675 0.00755 0.46146 0.0
H74 H 0.48366 0.9984 0.48158 0.0
H75 H 0.61994 0.14317 0.5072 0.0
H76 H 0.62492 0.16039 0.54406 0.0
H77 H 0.54151 0.11954 0.55074 0.0
H78 H 0.53677 0.10222 0.51389 0.0
H79 H 0.54025 0.12772 0.48303 0.0
H80 H 0.54306 0.16049 0.46007 0.0
H81 H 0.60964 0.1664 0.42789 0.0
H82 H 0.6075 0.13449 0.45205 0.0
H83 H 0.59403 0.08347 0.49265 0.0
H84 H 0.57132 0.03829 0.4881 0.0
H85 H 0.50306 0.038 0.46533 0.0
N86 N 0.5761 0.11336 0.48559 0.0
H87 H 0.52561 0.08314 0.47135 0.0
C88 C 0.46814 0.91089 0.47823 0.0
C89 C 0.47666 0.90004 0.49343 0.0
C90 C 0.45886 0.88026 0.50633 0.0
C91 C 0.43208 0.87089 0.50419 0.0
C92 C 0.4237 0.88269 0.48974 0.0
C93 C 0.44152 0.90247 0.47687 0.0
C94 C 0.48098 0.91965 0.44035 0.0
C95 C 0.46409 0.92333 0.4272 0.0
C96 C 0.45765 0.91312 0.40613 0.0
C97 C 0.46825 0.89939 0.39783 0.0
C98 C 0.48571 0.89643 0.41085 0.0
C99 C 0.4919 0.9064 0.43194 0.0
C100 C 0.4978 0.95451 0.46629 0.0
C101 C 0.52433 0.97028 0.46237 0.0
C102 C 0.5363 0.99606 0.46512 0.0
C103 C 0.52206 0.00679 0.47225 0.0
C104 C 0.49527 0.99093 0.47594 0.0
C105 C 0.48319 0.96506 0.47279 0.0
C106 C 0.5781 0.12161 0.50784 0.0
C107 C 0.6028 0.13776 0.51677 0.0
C108 C 0.60557 0.14747 0.53779 0.0
C109 C 0.58359 0.14133 0.55024 0.0
C110 C 0.55877 0.12476 0.54142 0.0
C111 C 0.55604 0.11483 0.52042 0.0
C112 C 0.57406 0.12899 0.46952 0.0
C113 C 0.55531 0.13587 0.47094 0.0
C114 C 0.55683 0.15457 0.45757 0.0
C115 C 0.57687 0.16652 0.44228 0.0
C116 C 0.59437 0.15817 0.43986 0.0
C117 C 0.59303 0.13972 0.45345 0.0
C118 C 0.56178 0.08674 0.48202 0.0
C119 C 0.57416 0.07358 0.48666 0.0
C120 C 0.56114 0.04774 0.48387 0.0
C121 C 0.53538 0.03434 0.47598 0.0
C122 C 0.5228 0.04757 0.47157 0.0
C123 C 0.53579 0.07351 0.47475 0.0
H124 H 0.49029 0.629 0.64202 0.0
N125 N 0.4852 0.58776 0.65847 0.0
H126 H 0.45946 0.63273 0.61881 0.0
H127 H 0.44171 0.54884 0.63913 0.0
H128 H 0.4109 0.55226 0.61544 0.0
H129 H 0.43912 0.55657 0.67868 0.0
H130 H 0.42659 0.56243 0.7148 0.0
H131 H 0.5151 0.62211 0.68806 0.0
H132 H 0.50277 0.62802 0.72461 0.0
H133 H 0.52654 0.59941 0.63491 0.0
H134 H 0.46531 0.53903 0.67112 0.0
H135 H 0.54516 0.57373 0.62708 0.0
H136 H 0.48449 0.51373 0.66448 0.0
H137 H 0.60915 0.50483 0.60632 0.0
H138 H 0.6136 0.49243 0.56932 0.0
H139 H 0.53097 0.43993 0.5663 0.0
H140 H 0.5265 0.45293 0.60274 0.0
H141 H 0.52832 0.43673 0.63565 0.0
H142 H 0.5315 0.4071 0.65875 0.0
H143 H 0.60456 0.46696 0.6849 0.0
H144 H 0.60195 0.49617 0.66035 0.0
H145 H 0.58911 0.53422 0.63754 0.0
H146 H 0.56858 0.55837 0.64465 0.0
H147 H 0.49301 0.49089 0.63857 0.0
N148 N 0.56628 0.48575 0.62983 0.0
H149 H 0.51396 0.46684 0.63275 0.0
C150 C 0.46835 0.58877 0.64229 0.0
C151 C 0.47322 0.61221 0.6359 0.0
C152 C 0.4556 0.61425 0.62255 0.0
C153 C 0.43261 0.59278 0.61526 0.0
C154 C 0.42824 0.56918 0.62098 0.0
C155 C 0.44593 0.56717 0.6344 0.0
C156 C 0.47818 0.58896 0.68066 0.0
C157 C 0.45332 0.57197 0.68867 0.0
C158 C 0.44618 0.57531 0.70942 0.0
C159 C 0.46366 0.59574 0.72257 0.0
C160 C 0.48877 0.61225 0.71478 0.0
C161 C 0.49592 0.60882 0.69403 0.0
C162 C 0.49485 0.57146 0.65384 0.0
C163 C 0.51723 0.58065 0.64128 0.0
C164 C 0.52794 0.56597 0.63701 0.0
C165 C 0.51661 0.5417 0.64544 0.0
C166 C 0.49371 0.53223 0.6576 0.0
C167 C 0.48281 0.54687 0.66163 0.0
C168 C 0.56765 0.47967 0.60743 0.0
C169 C 0.59199 0.49095 0.59749 0.0
C170 C 0.59448 0.48389 0.57644 0.0
C171 C 0.57263 0.4651 0.56512 0.0
C172 C 0.54813 0.45428 0.57482 0.0
C173 C 0.54559 0.46169 0.59571 0.0
C174 C 0.56528 0.46865 0.6459 0.0
C175 C 0.54499 0.44355 0.64633 0.0
C176 C 0.54673 0.42657 0.65984 0.0
C177 C 0.56854 0.43443 0.67354 0.0
C178 C 0.58785 0.45999 0.67414 0.0
C179 C 0.58629 0.47681 0.66034 0.0
C180 C 0.55314 0.49891 0.63439 0.0
C181 C 0.56812 0.52472 0.63786 0.0
C182 C 0.55629 0.53848 0.64169 0.0
C183 C 0.52905 0.5267 0.64188 0.0
C184 C 0.51401 0.50062 0.63868 0.0
C185 C 0.52596 0.48682 0.63509 0.0
H186 H 0.12011 0.60147 0.82598 0.0
N187 N 0.09098 0.56745 0.79611 0.0
H188 H 0.15518 0.60355 0.84776 0.0
H189 H 0.10177 0.5302 0.79973 0.0
H190 H 0.13553 0.53116 0.82244 0.0
H191 H 0.08103 0.53111 0.76614 0.0
H192 H 0.09939 0.53778 0.72947 0.0
H193 H 0.1195 0.61062 0.77618 0.0
H194 H 0.13797 0.61757 0.7397 0.0
H195 H 0.05997 0.58531 0.79202 0.0
H196 H 0.05954 0.51832 0.80831 0.0
H197 H 0.01328 0.56378 0.79782 0.0
H198 H 0.01328 0.49707 0.81557 0.0
H199 H 0.87065 0.49619 0.84298 0.0
H200 H 0.8514 0.48411 0.87913 0.0
H201 H 0.89042 0.44336 0.88925 0.0
H202 H 0.90952 0.45555 0.85296 0.0
H203 H 0.88183 0.43156 0.82201 0.0
H204 H 0.84562 0.39989 0.8001 0.0
H205 H 0.83906 0.4576 0.76808 0.0
H206 H 0.87557 0.48933 0.7901 0.0
H207 H 0.93587 0.52877 0.83052 0.0
H208 H 0.98249 0.54898 0.82498 0.0
H209 H 0.97154 0.47921 0.80061 0.0
N210 N 0.89949 0.48165 0.82294 0.0
H211 H 0.9253 0.4589 0.80762 0.0
C212 C 0.10813 0.56567 0.81145 0.0
C213 C 0.12311 0.58587 0.82553 0.0
C214 C 0.1431 0.58692 0.83805 0.0
C215 C 0.1484 0.56755 0.83688 0.0
C216 C 0.13241 0.54665 0.82352 0.0
C217 C 0.11271 0.54586 0.81073 0.0
C218 C 0.09907 0.57048 0.7738 0.0
C219 C 0.09326 0.54998 0.76034 0.0
C220 C 0.10382 0.55383 0.73946 0.0
C221 C 0.12018 0.57821 0.7317 0.0
C222 C 0.12519 0.59858 0.74504 0.0
C223 C 0.11477 0.59469 0.76588 0.0
C224 C 0.06343 0.55372 0.8 0.0
C225 C 0.0498 0.56602 0.79713 0.0
C226 C 0.02311 0.55367 0.80066 0.0
C227 C 0.00935 0.52868 0.80753 0.0
C228 C 0.02305 0.51622 0.81014 0.0
C229 C 0.04976 0.52852 0.8062 0.0
C230 C 0.89138 0.47675 0.8453 0.0
C231 C 0.87538 0.48504 0.85321 0.0
C232 C 0.86449 0.47817 0.87387 0.0
C233 C 0.86931 0.46269 0.88703 0.0
C234 C 0.88612 0.45507 0.87938 0.0
C235 C 0.89714 0.4621 0.85871 0.0
C236 C 0.88136 0.46293 0.80775 0.0
C237 C 0.87299 0.43751 0.81002 0.0
C238 C 0.85217 0.41937 0.79755 0.0
C239 C 0.83929 0.42623 0.78254 0.0
C240 C 0.84868 0.45172 0.77939 0.0
C241 C 0.86948 0.46986 0.79194 0.0
C242 C 0.92691 0.49249 0.81925 0.0
C243 C 0.94361 0.51787 0.82405 0.0
C244 C 0.97027 0.52942 0.82066 0.0
C245 C 0.98095 0.5159 0.81199 0.0
C246 C 0.96418 0.49025 0.80747 0.0
C247 C 0.93749 0.47859 0.81127 0.0
H248 H 0.5265 0.14009 0.98418 0.0
N249 N 0.53105 0.10511 0.9641 0.0
H250 H 0.55949 0.17524 0.00598 0.0
H251 H 0.57749 0.11142 0.97802 0.0
H252 H 0.61056 0.14641 -0.00015 0.0
H253 H 0.57247 0.1132 0.93944 0.0
H254 H 0.58209 0.1295 0.90268 0.0
H255 H 0.5016 0.11434 0.93826 0.0
H256 H 0.51169 0.13192 0.90162 0.0
H257 H 0.48615 0.07626 0.9835 0.0
H258 H 0.55118 0.07523 0.95597 0.0
H259 H 0.46534 0.03179 0.99169 0.0
H260 H 0.53084 0.03105 0.96439 0.0
H261 H 0.39581 0.89262 0.01502 0.0
H262 H 0.39076 0.87345 0.05079 0.0
H263 H 0.47417 0.91175 0.05799 0.0
H264 H 0.47903 0.93111 0.02243 0.0
H265 H 0.48344 0.9193 0.9873 0.0
H266 H 0.48577 0.88712 0.96655 0.0
H267 H 0.40551 0.85467 0.94691 0.0
H268 H 0.40335 0.88688 0.96783 0.0
H269 H 0.44535 0.9583 0.02108 0.0
H270 H 0.46944 0.00297 0.015 0.0
H271 H 0.49324 0.99116 0.95218 0.0
N272 N 0.43972 0.92159 0.99384 0.0
H273 H 0.46968 0.94663 0.95819 0.0
C274 C 0.54949 0.12322 0.97942 0.0
C275 C 0.54463 0.14114 0.98796 0.0
C276 C 0.56348 0.16114 0.00044 0.0
C277 C 0.58772 0.16367 0.00456 0.0
C278 C 0.59219 0.14511 0.99673 0.0
C279 C 0.57323 0.12501 0.98431 0.0
C280 C 0.53605 0.11226 0.94158 0.0
C281 C 0.5587 0.11654 0.93118 0.0
C282 C 0.5644 0.12627 0.91017 0.0
C283 C 0.54782 0.13229 0.8992 0.0
C284 C 0.52477 0.12725 0.90942 0.0
C285 C 0.51899 0.11729 0.93037 0.0
C286 C 0.52009 0.07912 0.96909 0.0
C287 C 0.49599 0.06646 0.97938 0.0
C288 C 0.48425 0.04111 0.98416 0.0
C289 C 0.49646 0.02786 0.97873 0.0
C290 C 0.5208 0.04066 0.96858 0.0
C291 C 0.53254 0.06605 0.96382 0.0
C292 C 0.43767 0.91307 0.01599 0.0
C293 C 0.41295 0.89716 0.02453 0.0
C294 C 0.41013 0.8863 0.04492 0.0
C295 C 0.43208 0.89099 0.05708 0.0
C296 C 0.45692 0.90755 0.04882 0.0
C297 C 0.45972 0.91861 0.02851 0.0
C298 C 0.44305 0.90534 0.97922 0.0
C299 C 0.46642 0.90538 0.97842 0.0
C300 C 0.46773 0.88698 0.96654 0.0
C301 C 0.44579 0.86827 0.95519 0.0
C302 C 0.42284 0.86897 0.95526 0.0
C303 C 0.42152 0.88729 0.96722 0.0
C304 C 0.45653 0.94844 0.99082 0.0
C305 C 0.45638 0.96514 0.00624 0.0
C306 C 0.4699 0.99083 0.00262 0.0
C307 C 0.48349 0.00068 0.98319 0.0
C308 C 0.48353 0.98424 0.96759 0.0
C309 C 0.47 0.95851 0.97118 0.0
H310 H 0.5167 0.40643 0.14621 0.0
N311 N 0.52123 0.44859 0.16014 0.0
H312 H 0.54692 0.40154 0.1235 0.0
H313 H 0.56298 0.48623 0.13858 0.0
H314 H 0.59285 0.48155 0.11534 0.0
H315 H 0.56905 0.47902 0.17895 0.0
H316 H 0.58259 0.47451 0.21517 0.0
H317 H 0.49077 0.41976 0.19178 0.0
H318 H 0.50358 0.41624 0.2288 0.0
H319 H 0.47363 0.43091 0.14496 0.0
H320 H 0.5431 0.49919 0.16434 0.0
H321 H 0.45208 0.45391 0.13721 0.0
H322 H 0.52244 0.52287 0.15523 0.0
H323 H 0.38267 0.52417 0.10881 0.0
H324 H 0.37725 0.53694 0.07252 0.0
H325 H 0.46066 0.58071 0.06571 0.0
H326 H 0.46577 0.56726 0.10184 0.0
H327 H 0.46256 0.58805 0.13442 0.0
H328 H 0.45822 0.61766 0.15711 0.0
H329 H 0.38876 0.55653 0.18533 0.0
H330 H 0.39251 0.52724 0.16142 0.0
H331 H 0.42434 0.50035 0.10762 0.0
H332 H 0.44956 0.48068 0.11311 0.0
H333 H 0.49102 0.53189 0.1664 0.0
N334 N 0.42676 0.53808 0.12998 0.0
H335 H 0.46714 0.55267 0.15985 0.0
C336 C 0.53741 0.44656 0.14408 0.0
C337 C 0.53304 0.42283 0.13915 0.0
C338 C 0.55031 0.42011 0.1261 0.0
C339 C 0.57242 0.44117 0.11762 0.0
C340 C 0.57622 0.46495 0.12184 0.0
C341 C 0.55894 0.46764 0.13499 0.0
C342 C 0.52895 0.44925 0.18251 0.0
C343 C 0.55464 0.46533 0.18973 0.0
C344 C 0.5623 0.46286 0.21066 0.0
C345 C 0.54432 0.44467 0.22497 0.0
C346 C 0.51821 0.4299 0.2181 0.0
C347 C 0.51072 0.43206 0.19704 0.0
C348 C 0.50995 0.46331 0.15487 0.0
C349 C 0.48435 0.45101 0.14712 0.0
C350 C 0.47218 0.4643 0.14253 0.0
C351 C 0.48555 0.49043 0.14527 0.0
C352 C 0.51141 0.50279 0.15305 0.0
C353 C 0.52342 0.48933 0.158 0.0
C354 C 0.4245 0.54476 0.10797 0.0
C355 C 0.39971 0.53632 0.09934 0.0
C356 C 0.3967 0.5438 0.07871 0.0
C357 C 0.41853 0.56003 0.06629 0.0
C358 C 0.44345 0.56806 0.07478 0.0
C359 C 0.44643 0.56052 0.09546 0.0
C360 C 0.42748 0.55543 0.14596 0.0
C361 C 0.44648 0.58103 0.14556 0.0
C362 C 0.44409 0.59795 0.15877 0.0
C363 C 0.42287 0.58961 0.17288 0.0
C364 C 0.40496 0.56376 0.17427 0.0
C365 C 0.40719 0.54692 0.16083 0.0
C366 C 0.44372 0.52828 0.13299 0.0
C367 C 0.43925 0.50774 0.1202 0.0
C368 C 0.4535 0.49623 0.1236 0.0
C369 C 0.47219 0.50439 0.14043 0.0
C370 C 0.47706 0.52522 0.15309 0.0
C371 C 0.46311 0.53711 0.14938 0.0
C372 C 0.61386 0.33192 0.38539 0.0
O373 O 0.63072 0.34388 0.36991 0.0
O374 O 0.66065 0.39748 0.38978 0.0
Zn375 Zn 0.62196 0.38093 0.39385 0.0
O376 O 0.61499 0.39454 0.42124 0.0
C377 C 0.61324 0.40999 0.36264 0.0
O378 O 0.62926 0.42834 0.37573 0.0
O379 O 0.60663 0.3438 0.39732 0.0
C380 C 0.59804 0.40078 0.42255 0.0
O381 O 0.58381 0.3984 0.40537 0.0
C382 C 0.67398 0.39062 0.40047 0.0
O383 O 0.66243 0.37295 0.41501 0.0
O384 O 0.60694 0.38777 0.36717 0.0
C385 C 0.31245 0.70091 0.56728 0.0
O386 O 0.32217 0.69024 0.57911 0.0
O387 O 0.28869 0.6358 0.57066 0.0
Zn388 Zn 0.26648 0.65063 0.56484 0.0
O389 O 0.24419 0.63565 0.53787 0.0
C390 C 0.22809 0.62071 0.59587 0.0
O391 O 0.22845 0.60318 0.58434 0.0
O392 O 0.28924 0.68782 0.56014 0.0
C393 C 0.23713 0.61428 0.52984 0.0
O394 O 0.24473 0.60035 0.53928 0.0
C395 C 0.30455 0.63588 0.55707 0.0
O396 O 0.3066 0.64566 0.53776 0.0
O397 O 0.2431 0.64341 0.59063 0.0
C398 C 0.60068 0.30412 0.73413 0.0
O399 O 0.61743 0.30878 0.74997 0.0
O400 O 0.64682 0.28499 0.73193 0.0
Zn401 Zn 0.6082 0.26297 0.72636 0.0
O402 O 0.60106 0.24153 0.69947 0.0
C403 C 0.60325 0.22906 0.75894 0.0
O404 O 0.62359 0.23196 0.74849 0.0
O405 O 0.59311 0.28488 0.72215 0.0
C406 C 0.61858 0.23917 0.69041 0.0
O407 O 0.64221 0.25106 0.69868 0.0
C408 C 0.661 0.30527 0.72184 0.0
O409 O 0.65047 0.31216 0.70677 0.0
O410 O 0.59241 0.24067 0.7523 0.0
C411 C 0.41752 0.70363 0.90362 0.0
O412 O 0.43406 0.69642 0.90767 0.0
O413 O 0.34218 0.63508 0.8882 0.0
Zn414 Zn 0.38075 0.6509 0.89334 0.0
O415 O 0.38742 0.63796 0.92111 0.0
C416 C 0.38566 0.62584 0.85544 0.0
O417 O 0.3612 0.60957 0.85954 0.0
O418 O 0.39467 0.68763 0.89715 0.0
C419 C 0.39226 0.62049 0.92158 0.0
O420 O 0.39286 0.60996 0.90322 0.0
C421 C 0.32469 0.61266 0.89225 0.0
O422 O 0.33129 0.59728 0.90019 0.0
O423 O 0.39802 0.64506 0.86764 0.0
C424 C 0.70217 0.40107 0.05858 0.0
O425 O 0.69803 0.38869 0.04017 0.0
O426 O 0.71645 0.35108 0.05988 0.0
Zn427 Zn 0.74126 0.38797 0.06491 0.0
O428 O 0.76474 0.39402 0.09075 0.0
C429 C 0.75632 0.39321 0.01956 0.0
O430 O 0.73358 0.37258 0.01724 0.0
O431 O 0.72009 0.40366 0.07138 0.0
C432 C 0.75843 0.37856 0.1062 0.0
O433 O 0.73584 0.35757 0.10542 0.0
C434 C 0.7237 0.33557 0.05673 0.0
O435 O 0.74862 0.34353 0.05701 0.0
O436 O 0.76344 0.40336 0.03832 0.0
C437 C 0.38386 0.716 0.23381 0.0
O438 O 0.36583 0.70996 0.2485 0.0
O439 O 0.3398 0.73645 0.23523 0.0
Zn440 Zn 0.37793 0.75851 0.22908 0.0
O441 O 0.38302 0.7792 0.20239 0.0
C442 C 0.41167 0.80355 0.25552 0.0
O443 O 0.42073 0.81459 0.23679 0.0
O444 O 0.39271 0.73647 0.22371 0.0
C445 C 0.40429 0.78886 0.19211 0.0
O446 O 0.42266 0.78517 0.19915 0.0
C447 C 0.32352 0.72031 0.2218 0.0
O448 O 0.33142 0.71827 0.20242 0.0
O449 O 0.39437 0.78044 0.25578 0.0
H450 H 0.17586 0.63785 0.28943 0.0
H451 H 0.181 0.58337 0.24987 0.0
H452 H 0.21443 0.6712 0.2721 0.0
H453 H 0.22044 0.61665 0.23342 0.0
H454 H 0.28341 0.68329 0.19761 0.0
H455 H 0.23997 0.65242 0.21007 0.0
H456 H 0.25973 0.68605 0.27437 0.0
H457 H 0.30265 0.71715 0.26182 0.0
C458 C 0.18497 0.63296 0.27682 0.0
C459 C 0.17537 0.60785 0.27118 0.0
C460 C 0.20734 0.65211 0.26709 0.0
C461 C 0.22079 0.64663 0.25157 0.0
C462 C 0.21054 0.62161 0.24521 0.0
C463 C 0.18808 0.60246 0.25486 0.0
C464 C 0.27835 0.68423 0.21434 0.0
C465 C 0.29655 0.70263 0.22874 0.0
C466 C 0.25349 0.66646 0.22151 0.0
C467 C 0.24633 0.66667 0.24325 0.0
C468 C 0.26437 0.6855 0.25744 0.0
C469 C 0.28912 0.70328 0.25027 0.0
H470 H 0.53982 0.17565 0.426 0.0
H471 H 0.62293 0.20858 0.43183 0.0
H472 H 0.54682 0.21423 0.4099 0.0
H473 H 0.6297 0.24651 0.41513 0.0
H474 H 0.63346 0.30449 0.36905 0.0
H475 H 0.62285 0.26285 0.37994 0.0
H476 H 0.56522 0.25851 0.4241 0.0
H477 H 0.5758 0.30018 0.41326 0.0
C478 C 0.55955 0.19097 0.42377 0.0
C479 C 0.58079 0.18888 0.43031 0.0
C480 C 0.56353 0.21302 0.41447 0.0
C481 C 0.5888 0.23336 0.41125 0.0
C482 C 0.60999 0.23102 0.41711 0.0
C483 C 0.60605 0.20915 0.42662 0.0
C484 C 0.6183 0.29456 0.38088 0.0
C485 C 0.6056 0.30573 0.3904 0.0
C486 C 0.61232 0.27076 0.38718 0.0
C487 C 0.5933 0.25749 0.40294 0.0
C488 C 0.57983 0.26821 0.41179 0.0
C489 C 0.586 0.29214 0.40567 0.0
H490 H 0.43988 0.62625 0.58335 0.0
H491 H 0.37987 0.56522 0.62024 0.0
H492 H 0.40764 0.6342 0.56771 0.0
H493 H 0.34747 0.57237 0.60377 0.0
H494 H 0.30666 0.61684 0.59638 0.0
H495 H 0.33635 0.60375 0.60798 0.0
H496 H 0.37035 0.61962 0.54394 0.0
H497 H 0.34094 0.63338 0.53244 0.0
C498 C 0.41976 0.61431 0.5879 0.0
C499 C 0.41255 0.59527 0.60325 0.0
C500 C 0.4012 0.61868 0.57873 0.0
C501 C 0.37496 0.60408 0.58463 0.0
C502 C 0.36758 0.58425 0.59914 0.0
C503 C 0.38614 0.57993 0.60837 0.0
C504 C 0.32033 0.6174 0.58469 0.0
C505 C 0.32151 0.62632 0.56351 0.0
C506 C 0.33726 0.60969 0.59131 0.0
C507 C 0.35577 0.61059 0.5769 0.0
C508 C 0.35655 0.61896 0.55553 0.0
C509 C 0.33961 0.62674 0.54891 0.0
H510 H 0.82415 0.42383 0.73987 0.0
H511 H 0.79883 0.38523 0.80108 0.0
H512 H 0.78242 0.39335 0.72317 0.0
H513 H 0.75717 0.35524 0.78471 0.0
H514 H 0.6906 0.29371 0.74722 0.0
H515 H 0.73513 0.32151 0.75974 0.0
H516 H 0.73803 0.38213 0.72399 0.0
H517 H 0.69382 0.35404 0.71084 0.0
C518 C 0.80968 0.4088 0.74972 0.0
C519 C 0.81482 0.40687 0.77175 0.0
C520 C 0.78575 0.39139 0.7402 0.0
C521 C 0.76635 0.37179 0.75257 0.0
C522 C 0.77176 0.36972 0.77452 0.0
C523 C 0.79569 0.38697 0.78395 0.0
C524 C 0.70084 0.31293 0.74188 0.0
C525 C 0.68862 0.32172 0.72816 0.0
C526 C 0.72634 0.32892 0.74915 0.0
C527 C 0.74016 0.35418 0.74308 0.0
C528 C 0.72815 0.36276 0.72881 0.0
C529 C 0.70271 0.34667 0.72136 0.0
H530 H 0.4256 0.84655 0.9154 0.0
H531 H 0.46619 0.84162 0.97156 0.0
H532 H 0.42179 0.80869 0.90023 0.0
H533 H 0.46212 0.80369 0.95662 0.0
H534 H 0.464 0.74271 0.91879 0.0
H535 H 0.47422 0.78474 0.92847 0.0
H536 H 0.39685 0.7651 0.90875 0.0
H537 H 0.3869 0.72353 0.89861 0.0
C538 C 0.43383 0.83744 0.92444 0.0
C539 C 0.44607 0.847 0.94472 0.0
C540 C 0.43161 0.81573 0.91579 0.0
C541 C 0.44145 0.803 0.92729 0.0
C542 C 0.45461 0.81316 0.94717 0.0
C543 C 0.45693 0.83492 0.95576 0.0
C544 C 0.44929 0.74748 0.91631 0.0
C545 C 0.42458 0.7297 0.90804 0.0
C546 C 0.4551 0.77153 0.92196 0.0
C547 C 0.43634 0.77831 0.91947 0.0
C548 C 0.41191 0.7607 0.91061 0.0
C549 C 0.40613 0.73674 0.90493 0.0
H550 H 0.62536 0.47084 0.12085 0.0
H551 H 0.56453 0.40489 0.08794 0.0
H552 H 0.65782 0.46413 0.10426 0.0
H553 H 0.59695 0.39746 0.07226 0.0
H554 H 0.66233 0.39909 0.0351 0.0
H555 H 0.63212 0.41158 0.04699 0.0
H556 H 0.67222 0.43531 0.10911 0.0
H557 H 0.70273 0.4235 0.09704 0.0
C558 C 0.61889 0.45508 0.10985 0.0
C559 C 0.59227 0.43834 0.10583 0.0
C560 C 0.63752 0.45104 0.10057 0.0
C561 C 0.63003 0.4301 0.0871 0.0
C562 C 0.60347 0.41388 0.08242 0.0
C563 C 0.58483 0.41797 0.09164 0.0
C564 C 0.66484 0.40721 0.05121 0.0
C565 C 0.68489 0.41019 0.06515 0.0
C566 C 0.64743 0.41424 0.05808 0.0
C567 C 0.64964 0.42437 0.07904 0.0
C568 C 0.67012 0.42792 0.09275 0.0
C569 C 0.68755 0.42097 0.08587 0.0
H570 H 0.38725 0.83161 0.48749 0.0
H571 H 0.43391 0.85728 0.54635 0.0
H572 H 0.35765 0.79205 0.50464 0.0
H573 H 0.40403 0.81756 0.56371 0.0
H574 H 0.36453 0.73231 0.57468 0.0
H575 H 0.39231 0.77452 0.56115 0.0
H576 H 0.32541 0.77189 0.53212 0.0
H577 H 0.29774 0.72942 0.54514 0.0
C578 C 0.39089 0.82901 0.50428 0.0
C579 C 0.41294 0.84765 0.51555 0.0
C580 C 0.37388 0.80627 0.51415 0.0
C581 C 0.37842 0.80155 0.53559 0.0
C582 C 0.40015 0.82042 0.54707 0.0
C583 C 0.41724 0.8432 0.53715 0.0
C584 C 0.3557 0.74081 0.56557 0.0
C585 C 0.32894 0.72739 0.56083 0.0
C586 C 0.37163 0.7651 0.55791 0.0
C587 C 0.36116 0.7766 0.5454 0.0
C588 C 0.33422 0.76346 0.54136 0.0
C589 C 0.31832 0.73914 0.54893 0.0
H590 H 0.53121 0.3908 0.69287 0.0
H591 H 0.61391 0.43554 0.68173 0.0
H592 H 0.53709 0.35884 0.70979 0.0
H593 H 0.61964 0.40418 0.69947 0.0
H594 H 0.62313 0.3522 0.74884 0.0
H595 H 0.61391 0.38393 0.73689 0.0
H596 H 0.55227 0.3296 0.69506 0.0
H597 H 0.56157 0.2978 0.70684 0.0
C598 C 0.55062 0.39396 0.69408 0.0
C599 C 0.57206 0.41588 0.68582 0.0
C600 C 0.55395 0.37568 0.70388 0.0
C601 C 0.57881 0.3791 0.70598 0.0
C602 C 0.60029 0.40123 0.69836 0.0
C603 C 0.59696 0.4193 0.68828 0.0
C604 C 0.60738 0.3469 0.73732 0.0
C605 C 0.59318 0.32252 0.72867 0.0
C606 C 0.60219 0.36511 0.73043 0.0
C607 C 0.58246 0.35922 0.715 0.0
C608 C 0.56748 0.33459 0.70708 0.0
C609 C 0.5729 0.31644 0.71374 0.0
H610 H 0.18063 0.55176 0.82245 0.0
H611 H 0.16969 0.58973 0.8766 0.0
H612 H 0.22123 0.55993 0.83879 0.0
H613 H 0.2111 0.59888 0.89227 0.0
H614 H 0.30277 0.64097 0.88782 0.0
H615 H 0.25812 0.62712 0.87729 0.0
H616 H 0.23999 0.5509 0.874 0.0
H617 H 0.28472 0.56468 0.88493 0.0
C618 C 0.18649 0.56138 0.83804 0.0
C619 C 0.17177 0.57019 0.84809 0.0
C620 C 0.20989 0.56615 0.84733 0.0
C621 C 0.21932 0.58015 0.86669 0.0
C622 C 0.20433 0.58825 0.87718 0.0
C623 C 0.1807 0.58313 0.8681 0.0
C624 C 0.28922 0.62122 0.88504 0.0
C625 C 0.29725 0.60391 0.88711 0.0
C626 C 0.26364 0.6133 0.87918 0.0
C627 C 0.24566 0.58796 0.87488 0.0
C628 C 0.25354 0.57055 0.8772 0.0
C629 C 0.27906 0.57843 0.88351 0.0
H630 H 0.6387 0.19151 0.99305 0.0
H631 H 0.58423 0.18794 0.04042 0.0
H632 H 0.67203 0.23176 0.00801 0.0
H633 H 0.61768 0.22819 0.05554 0.0
H634 H 0.67108 0.31382 0.05361 0.0
H635 H 0.63914 0.27095 0.04346 0.0
H636 H 0.69999 0.25413 0.03894 0.0
H637 H 0.73216 0.29733 0.04867 0.0
C638 C 0.63401 0.19905 0.007 0.0
C639 C 0.60877 0.18659 0.01547 0.0
C640 C 0.65314 0.22215 0.01558 0.0
C641 C 0.64748 0.23332 0.03287 0.0
C642 C 0.62254 0.22034 0.04195 0.0
C643 C 0.60339 0.19726 0.03333 0.0
C644 C 0.67768 0.30097 0.0506 0.0
C645 C 0.70421 0.30906 0.05184 0.0
C646 C 0.65931 0.2763 0.04493 0.0
C647 C 0.66698 0.25906 0.0404 0.0
C648 C 0.69347 0.26701 0.04209 0.0
C649 C 0.71189 0.29174 0.04775 0.0
H650 H 0.37638 0.58601 0.18081 0.0
H651 H 0.45902 0.63486 0.19151 0.0
H652 H 0.36881 0.61658 0.19805 0.0
H653 H 0.45127 0.66589 0.20816 0.0
H654 H 0.4235 0.72387 0.20695 0.0
H655 H 0.43431 0.69323 0.19464 0.0
H656 H 0.37331 0.63718 0.23448 0.0
H657 H 0.36246 0.66769 0.24683 0.0
C658 C 0.39295 0.60304 0.18717 0.0
C659 C 0.41835 0.60782 0.18478 0.0
C660 C 0.38856 0.62064 0.19699 0.0
C661 C 0.40944 0.64362 0.20445 0.0
C662 C 0.43482 0.64841 0.20236 0.0
C663 C 0.43923 0.63064 0.19275 0.0
C664 C 0.41257 0.70508 0.21326 0.0
C665 C 0.392 0.69818 0.22776 0.0
C666 C 0.41887 0.68759 0.2063 0.0
C667 C 0.40456 0.6628 0.21352 0.0
C668 C 0.38449 0.6561 0.22848 0.0
C669 C 0.37837 0.67362 0.23561 0.0
H670 H 0.83337 0.42382 0.38647 0.0
H671 H 0.81224 0.44265 0.32537 0.0
H672 H 0.79295 0.41638 0.40242 0.0
H673 H 0.77161 0.43449 0.3409 0.0
H674 H 0.70587 0.43196 0.37652 0.0
H675 H 0.75024 0.44669 0.36538 0.0
H676 H 0.74823 0.38598 0.40026 0.0
H677 H 0.70438 0.37199 0.41211 0.0
C678 C 0.82011 0.42648 0.37651 0.0
C679 C 0.82595 0.43382 0.3547 0.0
C680 C 0.79688 0.42209 0.38558 0.0
C681 C 0.77882 0.42464 0.37294 0.0
C682 C 0.78514 0.43273 0.3513 0.0
C683 C 0.80846 0.43738 0.34233 0.0
C684 C 0.71505 0.42195 0.382 0.0
C685 C 0.70157 0.40073 0.3951 0.0
C686 C 0.74045 0.4303 0.3755 0.0
C687 C 0.75286 0.41743 0.38173 0.0
C688 C 0.73955 0.39662 0.39538 0.0
C689 C 0.71427 0.38847 0.40208 0.0
H690 H 0.16958 0.6021 0.40195 0.0
H691 H 0.1227 0.52788 0.42798 0.0
H692 H 0.19454 0.61605 0.43582 0.0
H693 H 0.14779 0.54187 0.46195 0.0
H694 H 0.21849 0.56978 0.50817 0.0
H695 H 0.19162 0.55542 0.47519 0.0
H696 H 0.19072 0.62387 0.47403 0.0
H697 H 0.21793 0.63842 0.50671 0.0
C698 C 0.16432 0.58884 0.41503 0.0
C699 C 0.1441 0.56387 0.41226 0.0
C700 C 0.17868 0.59684 0.43445 0.0
C701 C 0.17319 0.58007 0.45158 0.0
C702 C 0.15276 0.55516 0.44894 0.0
C703 C 0.13837 0.54716 0.42949 0.0
C704 C 0.21255 0.58175 0.50089 0.0
C705 C 0.22045 0.60529 0.51004 0.0
C706 C 0.19699 0.57345 0.48207 0.0
C707 C 0.18904 0.58851 0.47197 0.0
C708 C 0.19679 0.61195 0.48124 0.0
C709 C 0.2123 0.62024 0.50004 0.0
H710 H 0.55747 0.16271 0.5663 0.0
H711 H 0.61698 0.14671 0.58307 0.0
H712 H 0.56514 0.1852 0.60073 0.0
H713 H 0.62429 0.16864 0.61778 0.0
H714 H 0.65263 0.23534 0.664 0.0
H715 H 0.64298 0.21032 0.63096 0.0
H716 H 0.56107 0.18158 0.63936 0.0
H717 H 0.57086 0.20733 0.67206 0.0
C718 C 0.57186 0.16362 0.57756 0.0
C719 C 0.58671 0.15307 0.57198 0.0
C720 C 0.57625 0.17648 0.59732 0.0
C721 C 0.59547 0.1789 0.61202 0.0
C722 C 0.60973 0.16762 0.60667 0.0
C723 C 0.60548 0.15496 0.58684 0.0
C724 C 0.63255 0.22365 0.65883 0.0
C725 C 0.61253 0.2234 0.67063 0.0
C726 C 0.62698 0.20913 0.63994 0.0
C727 C 0.60122 0.19383 0.63247 0.0
C728 C 0.58116 0.1934 0.64444 0.0
C729 C 0.58676 0.20807 0.66326 0.0
H730 H 0.43458 0.56188 0.7539 0.0
H731 H 0.47306 0.64038 0.73894 0.0
H732 H 0.41735 0.56925 0.78705 0.0
H733 H 0.45576 0.64775 0.772 0.0
H734 H 0.43619 0.65514 0.84241 0.0
H735 H 0.45708 0.64785 0.8117 0.0
H736 H 0.38502 0.57981 0.79578 0.0
H737 H 0.36434 0.58679 0.82658 0.0
C738 C 0.43939 0.58072 0.75771 0.0
C739 C 0.45509 0.60052 0.74373 0.0
C740 C 0.42949 0.58494 0.77668 0.0
C741 C 0.435 0.60906 0.7821 0.0
C742 C 0.45137 0.62899 0.76846 0.0
C743 C 0.46131 0.62477 0.7495 0.0
C744 C 0.42485 0.6386 0.83238 0.0
C745 C 0.39859 0.62157 0.83694 0.0
C746 C 0.43679 0.63447 0.81474 0.0
C747 C 0.42275 0.61321 0.80131 0.0
C748 C 0.39654 0.59615 0.80599 0.0
C749 C 0.38462 0.60027 0.82358 0.0
H750 H 0.86088 0.48878 0.9185 0.0
H751 H 0.8459 0.41519 0.90262 0.0
H752 H 0.8343 0.47224 0.95102 0.0
H753 H 0.81992 0.39881 0.9354 0.0
H754 H 0.7486 0.37392 0.97832 0.0
H755 H 0.77747 0.39113 0.94731 0.0
H756 H 0.83266 0.45385 0.98698 0.0
H757 H 0.80362 0.43676 0.01805 0.0
C758 C 0.85209 0.46912 0.92206 0.0
C759 C 0.85542 0.45328 0.90795 0.0
C760 C 0.83704 0.45969 0.94077 0.0
C761 C 0.82487 0.43418 0.9457 0.0
C762 C 0.82878 0.41848 0.93189 0.0
C763 C 0.84392 0.42793 0.91326 0.0
C764 C 0.76686 0.3914 0.98046 0.0
C765 C 0.77378 0.40397 0.00067 0.0
C766 C 0.7835 0.40116 0.96272 0.0
C767 C 0.80741 0.42379 0.96472 0.0
C768 C 0.81429 0.43647 0.98489 0.0
C769 C 0.79768 0.42663 0.00269 0.0
H770 H 0.3998 0.88409 0.09095 0.0
H771 H 0.45715 0.86725 0.06954 0.0
H772 H 0.39362 0.8605 0.1242 0.0
H773 H 0.45052 0.84307 0.10233 0.0
H774 H 0.45016 0.81976 0.17192 0.0
H775 H 0.45756 0.84586 0.14036 0.0
H776 H 0.37547 0.81901 0.13668 0.0
H777 H 0.3683 0.79367 0.16884 0.0
C778 C 0.41101 0.87526 0.09336 0.0
C779 C 0.42902 0.87758 0.07772 0.0
C780 C 0.4074 0.86163 0.11235 0.0
C781 C 0.42152 0.84978 0.116 0.0
C782 C 0.43965 0.85229 0.10033 0.0
C783 C 0.44344 0.86612 0.08149 0.0
C784 C 0.4337 0.81946 0.16439 0.0
C785 C 0.40864 0.80461 0.17285 0.0
C786 C 0.43791 0.83434 0.14619 0.0
C787 C 0.41712 0.83454 0.13584 0.0
C788 C 0.39203 0.81969 0.14439 0.0
C789 C 0.38787 0.805 0.16275 0.0
H790 H 0.58277 0.47876 0.25275 0.0
H791 H 0.52588 0.39996 0.24573 0.0
H792 H 0.59934 0.4704 0.28572 0.0
H793 H 0.54083 0.39197 0.27965 0.0
H794 H 0.59173 0.38036 0.32661 0.0
H795 H 0.57492 0.3892 0.29398 0.0
H796 H 0.5922 0.4596 0.32237 0.0
H797 H 0.61031 0.45123 0.35449 0.0
C798 C 0.57361 0.45967 0.25827 0.0
C799 C 0.55301 0.44007 0.24634 0.0
C800 C 0.58288 0.4549 0.27745 0.0
C801 C 0.57156 0.43045 0.28544 0.0
C802 C 0.55046 0.41098 0.27386 0.0
C803 C 0.54149 0.41568 0.25452 0.0
C804 C 0.59191 0.39772 0.32585 0.0
C805 C 0.60239 0.41512 0.34307 0.0
C806 C 0.58208 0.40275 0.30718 0.0
C807 C 0.58202 0.42512 0.30544 0.0
C808 C 0.59229 0.44239 0.32287 0.0
C809 C 0.60255 0.43754 0.34138 0.0
H810 H 0.49938 0.89888 0.3659 0.0
H811 H 0.41921 0.87209 0.38078 0.0
H812 H 0.48594 0.87617 0.33114 0.0
H813 H 0.40581 0.84965 0.34593 0.0
H814 H 0.3918 0.78832 0.29624 0.0
H815 H 0.40569 0.81265 0.33003 0.0
H816 H 0.4654 0.87614 0.29532 0.0
H817 H 0.45159 0.85182 0.26143 0.0
C818 C 0.47891 0.88824 0.36166 0.0
C819 C 0.46033 0.88721 0.37605 0.0
C820 C 0.47124 0.8754 0.34173 0.0
C821 C 0.44482 0.86105 0.33589 0.0
C822 C 0.42629 0.86035 0.35012 0.0
C823 C 0.43397 0.8734 0.36994 0.0
C824 C 0.40794 0.80744 0.29579 0.0
C825 C 0.42059 0.81813 0.27613 0.0
C826 C 0.41576 0.82143 0.31512 0.0
C827 C 0.43654 0.84633 0.31528 0.0
C828 C 0.44942 0.85694 0.2957 0.0
C829 C 0.44144 0.84303 0.2763 0.0
H830 H 0.55562 0.41712 0.55338 0.0
H831 H 0.5966 0.4924 0.52896 0.0
H832 H 0.56195 0.40178 0.51859 0.0
H833 H 0.6025 0.47695 0.49394 0.0
H834 H 0.57642 0.42932 0.42836 0.0
H835 H 0.57023 0.44546 0.46276 0.0
H836 H 0.60458 0.41007 0.49787 0.0
H837 H 0.61133 0.39436 0.46351 0.0
C838 C 0.56575 0.43031 0.54046 0.0
C839 C 0.57559 0.4559 0.54375 0.0
C840 C 0.56949 0.42158 0.52068 0.0
C841 C 0.58272 0.43823 0.50369 0.0
C842 C 0.59215 0.46377 0.50681 0.0
C843 C 0.58887 0.47258 0.52678 0.0
C844 C 0.58268 0.42502 0.44342 0.0
C845 C 0.59434 0.41057 0.44327 0.0
C846 C 0.57925 0.43434 0.46303 0.0
C847 C 0.5869 0.42892 0.48287 0.0
C848 C 0.59841 0.41437 0.48276 0.0
C849 C 0.60235 0.40549 0.46312 0.0
H850 H 0.1434 0.55443 0.71448 0.0
H851 H 0.12679 0.61228 0.70077 0.0
H852 H 0.16818 0.56419 0.68098 0.0
H853 H 0.15144 0.62196 0.66714 0.0
H854 H 0.22407 0.65215 0.62454 0.0
H855 H 0.19637 0.64084 0.65641 0.0
H856 H 0.16469 0.5627 0.6417 0.0
H857 H 0.19277 0.57398 0.61016 0.0
C858 C 0.14463 0.56892 0.7041 0.0
C859 C 0.1332 0.58263 0.71031 0.0
C860 C 0.15887 0.57455 0.68489 0.0
C861 C 0.16194 0.59397 0.67142 0.0
C862 C 0.14987 0.60721 0.67735 0.0
C863 C 0.13569 0.60162 0.69658 0.0
C864 C 0.21115 0.63256 0.62808 0.0
C865 C 0.21072 0.61398 0.61485 0.0
C866 C 0.19513 0.62606 0.64627 0.0
C867 C 0.17829 0.60085 0.65163 0.0
C868 C 0.17767 0.58229 0.63822 0.0
C869 C 0.1937 0.58878 0.62007 0.0
H870 H 0.59622 0.16852 0.8861 0.0
H871 H 0.51636 0.12546 0.86387 0.0
H872 H 0.60858 0.19032 0.85158 0.0
H873 H 0.52881 0.14784 0.82937 0.0
H874 H 0.55991 0.21628 0.7829 0.0
H875 H 0.54574 0.19158 0.81616 0.0
H876 H 0.61116 0.18137 0.81247 0.0
H877 H 0.62542 0.20607 0.7794 0.0
C878 C 0.58132 0.16342 0.87376 0.0
C879 C 0.55528 0.14506 0.87777 0.0
C880 C 0.58842 0.17602 0.85398 0.0
C881 C 0.56968 0.17076 0.83775 0.0
C882 C 0.54364 0.15246 0.84168 0.0
C883 C 0.53652 0.13967 0.86145 0.0
C884 C 0.5712 0.20867 0.78914 0.0
C885 C 0.59387 0.21326 0.77856 0.0
C886 C 0.56299 0.19441 0.80811 0.0
C887 C 0.57741 0.18464 0.81695 0.0
C888 C 0.59983 0.18891 0.80618 0.0
C889 C 0.60792 0.20298 0.78717 0.0
H890 H 0.3845 0.57482 0.05566 0.0
H891 H 0.44514 0.56582 0.02853 0.0
H892 H 0.37846 0.58914 0.02061 0.0
H893 H 0.43977 0.58113 0.99356 0.0
H894 H 0.40176 0.58285 0.92862 0.0
H895 H 0.40855 0.56841 0.96345 0.0
H896 H 0.40069 0.62488 0.99697 0.0
H897 H 0.3934 0.63899 0.96226 0.0
C898 C 0.39651 0.57583 0.04219 0.0
C899 C 0.41522 0.56905 0.04488 0.0
C900 C 0.39327 0.58436 0.02215 0.0
C901 C 0.40868 0.58636 0.00429 0.0
C902 C 0.42742 0.57959 0.00695 0.0
C903 C 0.43069 0.57107 0.02704 0.0
C904 C 0.4015 0.5922 0.94342 0.0
C905 C 0.39692 0.61201 0.94265 0.0
C906 C 0.40555 0.58401 0.96337 0.0
C907 C 0.4051 0.59544 0.983 0.0
C908 C 0.40077 0.61541 0.98218 0.0
C909 C 0.39672 0.62359 0.96226 0.0
H910 H 0.85463 0.37929 0.21331 0.0
H911 H 0.85174 0.44627 0.22222 0.0
H912 H 0.82867 0.36963 0.18001 0.0
H913 H 0.82642 0.43686 0.18865 0.0
H914 H 0.8024 0.42311 0.11634 0.0
H915 H 0.83071 0.43316 0.14821 0.0
H916 H 0.7827 0.35753 0.17081 0.0
H917 H 0.75435 0.34741 0.13896 0.0
C918 C 0.84848 0.39195 0.20822 0.0
C919 C 0.85524 0.41353 0.22055 0.0
C920 C 0.83367 0.38643 0.18911 0.0
C921 C 0.8255 0.40247 0.18177 0.0
C922 C 0.83272 0.42431 0.19377 0.0
C923 C 0.84732 0.42973 0.21299 0.0
C924 C 0.79793 0.40859 0.12805 0.0
C925 C 0.77607 0.38447 0.12515 0.0
C926 C 0.81408 0.41439 0.14634 0.0
C927 C 0.80889 0.39614 0.16199 0.0
C928 C 0.78731 0.37192 0.15891 0.0
C929 C 0.77099 0.36617 0.14074 0.0
loop_
_geom_bond_atom_site_label_1
_geom_bond_atom_site_label_2
_geom_bond_distance
_geom_bond_site_symmetry_2
_ccdc_geom_bond_type
H0 C27 0.929 . S
N1 C26 1.433 . S
N1 C32 1.435 . S
N1 C38 1.423 . S
H2 C28 0.930 . S
H3 C31 0.931 . S
H4 C30 0.929 . S
H5 C33 0.930 . S
H6 C34 0.932 . S
H7 C37 0.929 . S
H8 C36 0.931 . S
H9 C39 0.929 . S
H10 C43 0.932 . S
H11 C40 0.931 . S
H12 C42 0.929 . S
H13 C45 0.929 . S
H14 C46 0.930 . S
H15 C48 0.929 . S
H16 C49 0.931 . S
H17 C51 0.930 . S
H18 C52 0.932 . S
H19 C54 0.931 . S
H20 C55 0.929 . S
H21 C57 0.929 . S
H22 C58 0.931 . S
H23 C60 0.929 . S
N24 C44 1.433 . S
N24 C50 1.435 . S
N24 C56 1.423 . S
H25 C61 0.932 . S
C26 N1 1.433 . S
C26 C27 1.363 . S
C26 C31 1.370 . S
C27 H0 0.929 . S
C27 C26 1.363 . S
C27 C28 1.385 . S
C28 H2 0.930 . S
C28 C27 1.385 . S
C28 C29 1.357 . S
C29 C28 1.357 . S
C29 C30 1.406 . S
C30 H4 0.929 . S
C30 C29 1.406 . S
C30 C31 1.391 . S
C31 H3 0.931 . S
C31 C26 1.370 . S
C31 C30 1.391 . S
C32 N1 1.435 . S
C32 C33 1.358 . S
C32 C37 1.371 . S
C33 H5 0.930 . S
C33 C32 1.358 . S
C33 C34 1.405 . S
C34 H6 0.932 . S
C34 C33 1.405 . S
C34 C35 1.383 . S
C35 C34 1.383 . S
C35 C36 1.393 . S
C36 H8 0.931 . S
C36 C35 1.393 . S
C36 C37 1.382 . S
C37 H7 0.929 . S
C37 C32 1.371 . S
C37 C36 1.382 . S
C38 N1 1.423 . S
C38 C39 1.362 . S
C38 C43 1.388 . S
C39 H9 0.929 . S
C39 C38 1.362 . S
C39 C40 1.376 . S
C40 H11 0.931 . S
C40 C39 1.376 . S
C40 C41 1.396 . S
C41 C40 1.396 . S
C41 C42 1.348 . S
C41 C59 1.472 1_455 S
C42 H12 0.929 . S
C42 C41 1.348 . S
C42 C43 1.443 . S
C43 H10 0.932 . S
C43 C38 1.388 . S
C43 C42 1.443 . S
C44 N24 1.433 . S
C44 C45 1.363 . S
C44 C49 1.370 . S
C45 H13 0.929 . S
C45 C44 1.363 . S
C45 C46 1.385 . S
C46 H14 0.930 . S
C46 C45 1.385 . S
C46 C47 1.357 . S
C47 C46 1.357 . S
C47 C48 1.406 . S
C48 H15 0.929 . S
C48 C47 1.406 . S
C48 C49 1.391 . S
C49 H16 0.931 . S
C49 C44 1.370 . S
C49 C48 1.391 . S
C50 N24 1.435 . S
C50 C51 1.358 . S
C50 C55 1.371 . S
C51 H17 0.930 . S
C51 C50 1.358 . S
C51 C52 1.405 . S
C52 H18 0.932 . S
C52 C51 1.405 . S
C52 C53 1.383 . S
C53 C52 1.383 . S
C53 C54 1.393 . S
C54 H19 0.931 . S
C54 C53 1.393 . S
C54 C55 1.382 . S
C55 H20 0.929 . S
C55 C50 1.371 . S
C55 C54 1.382 . S
C56 N24 1.423 . S
C56 C57 1.362 . S
C56 C61 1.388 . S
C57 H21 0.929 . S
C57 C56 1.362 . S
C57 C58 1.376 . S
C58 H22 0.931 . S
C58 C57 1.376 . S
C58 C59 1.396 . S
C59 C41 1.472 1_655 S
C59 C58 1.396 . S
C59 C60 1.348 . S
C60 H23 0.929 . S
C60 C59 1.348 . S
C60 C61 1.443 . S
C61 H25 0.932 . S
C61 C56 1.388 . S
C61 C60 1.443 . S
H62 C89 0.929 . S
N63 C88 1.433 . S
N63 C94 1.435 . S
N63 C100 1.423 . S
H64 C90 0.930 . S
H65 C93 0.931 . S
H66 C92 0.929 . S
H67 C95 0.930 . S
H68 C96 0.932 . S
H69 C99 0.929 . S
H70 C98 0.931 . S
H71 C101 0.929 . S
H72 C105 0.932 . S
H73 C102 0.931 . S
H74 C104 0.929 1_545 S
H75 C107 0.929 . S
H76 C108 0.930 . S
H77 C110 0.929 . S
H78 C111 0.931 . S
H79 C113 0.930 . S
H80 C114 0.932 . S
H81 C116 0.931 . S
H82 C117 0.929 . S
H83 C119 0.929 . S
H84 C120 0.931 . S
H85 C122 0.929 . S
N86 C106 1.433 . S
N86 C112 1.435 . S
N86 C118 1.423 . S
H87 C123 0.932 . S
C88 N63 1.433 . S
C88 C89 1.363 . S
C88 C93 1.370 . S
C89 H62 0.929 . S
C89 C88 1.363 . S
C89 C90 1.385 . S
C90 H64 0.930 . S
C90 C89 1.385 . S
C90 C91 1.357 . S
C91 C90 1.357 . S
C91 C92 1.406 . S
C92 H66 0.929 . S
C92 C91 1.406 . S
C92 C93 1.391 . S
C93 H65 0.931 . S
C93 C88 1.370 . S
C93 C92 1.391 . S
C94 N63 1.435 . S
C94 C95 1.358 . S
C94 C99 1.371 . S
C95 H67 0.930 . S
C95 C94 1.358 . S
C95 C96 1.405 . S
C96 H68 0.932 . S
C96 C95 1.405 . S
C96 C97 1.383 . S
C97 C96 1.383 . S
C97 C98 1.393 . S
C98 H70 0.931 . S
C98 C97 1.393 . S
C98 C99 1.382 . S
C99 H69 0.929 . S
C99 C94 1.371 . S
C99 C98 1.382 . S
C100 N63 1.423 . S
C100 C101 1.362 . S
C100 C105 1.388 . S
C101 H71 0.929 . S
C101 C100 1.362 . S
C101 C102 1.376 . S
C102 H73 0.931 . S
C102 C101 1.376 . S
C102 C103 1.396 1_565 S
C103 C102 1.396 1_545 S
C103 C104 1.348 1_545 S
C103 C121 1.472 . S
C104 H74 0.929 1_565 S
C104 C103 1.348 1_565 S
C104 C105 1.443 . S
C105 H72 0.932 . S
C105 C100 1.388 . S
C105 C104 1.443 . S
C106 N86 1.433 . S
C106 C107 1.363 . S
C106 C111 1.370 . S
C107 H75 0.929 . S
C107 C106 1.363 . S
C107 C108 1.385 . S
C108 H76 0.930 . S
C108 C107 1.385 . S
C108 C109 1.357 . S
C109 C108 1.357 . S
C109 C110 1.406 . S
C110 H77 0.929 . S
C110 C109 1.406 . S
C110 C111 1.391 . S
C111 H78 0.931 . S
C111 C106 1.370 . S
C111 C110 1.391 . S
C112 N86 1.435 . S
C112 C113 1.358 . S
C112 C117 1.371 . S
C113 H79 0.930 . S
C113 C112 1.358 . S
C113 C114 1.405 . S
C114 H80 0.932 . S
C114 C113 1.405 . S
C114 C115 1.383 . S
C115 C114 1.383 . S
C115 C116 1.393 . S
C116 H81 0.931 . S
C116 C115 1.393 . S
C116 C117 1.382 . S
C117 H82 0.929 . S
C117 C112 1.371 . S
C117 C116 1.382 . S
C118 N86 1.423 . S
C118 C119 1.362 . S
C118 C123 1.388 . S
C119 H83 0.929 . S
C119 C118 1.362 . S
C119 C120 1.376 . S
C120 H84 0.931 . S
C120 C119 1.376 . S
C120 C121 1.396 . S
C121 C103 1.472 . S
C121 C120 1.396 . S
C121 C122 1.348 . S
C122 H85 0.929 . S
C122 C121 1.348 . S
C122 C123 1.443 . S
C123 H87 0.932 . S
C123 C118 1.388 . S
C123 C122 1.443 . S
H124 C151 0.929 . S
N125 C150 1.433 . S
N125 C156 1.435 . S
N125 C162 1.423 . S
H126 C152 0.930 . S
H127 C155 0.931 . S
H128 C154 0.929 . S
H129 C157 0.930 . S
H130 C158 0.932 . S
H131 C161 0.929 . S
H132 C160 0.931 . S
H133 C163 0.929 . S
H134 C167 0.932 . S
H135 C164 0.931 . S
H136 C166 0.929 . S
H137 C169 0.929 . S
H138 C170 0.930 . S
H139 C172 0.929 . S
H140 C173 0.931 . S
H141 C175 0.930 . S
H142 C176 0.932 . S
H143 C178 0.931 . S
H144 C179 0.929 . S
H145 C181 0.929 . S
H146 C182 0.931 . S
H147 C184 0.929 . S
N148 C168 1.433 . S
N148 C174 1.435 . S
N148 C180 1.423 . S
H149 C185 0.932 . S
C150 N125 1.433 . S
C150 C151 1.363 . S
C150 C155 1.370 . S
C151 H124 0.929 . S
C151 C150 1.363 . S
C151 C152 1.385 . S
C152 H126 0.930 . S
C152 C151 1.385 . S
C152 C153 1.357 . S
C153 C152 1.357 . S
C153 C154 1.406 . S
C154 H128 0.929 . S
C154 C153 1.406 . S
C154 C155 1.391 . S
C155 H127 0.931 . S
C155 C150 1.370 . S
C155 C154 1.391 . S
C156 N125 1.435 . S
C156 C157 1.358 . S
C156 C161 1.371 . S
C157 H129 0.930 . S
C157 C156 1.358 . S
C157 C158 1.405 . S
C158 H130 0.932 . S
C158 C157 1.405 . S
C158 C159 1.383 . S
C159 C158 1.383 . S
C159 C160 1.393 . S
C160 H132 0.931 . S
C160 C159 1.393 . S
C160 C161 1.382 . S
C161 H131 0.929 . S
C161 C156 1.371 . S
C161 C160 1.382 . S
C162 N125 1.423 . S
C162 C163 1.362 . S
C162 C167 1.388 . S
C163 H133 0.929 . S
C163 C162 1.362 . S
C163 C164 1.376 . S
C164 H135 0.931 . S
C164 C163 1.376 . S
C164 C165 1.396 . S
C165 C164 1.396 . S
C165 C166 1.348 . S
C165 C183 1.472 . S
C166 H136 0.929 . S
C166 C165 1.348 . S
C166 C167 1.443 . S
C167 H134 0.932 . S
C167 C162 1.388 . S
C167 C166 1.443 . S
C168 N148 1.433 . S
C168 C169 1.363 . S
C168 C173 1.370 . S
C169 H137 0.929 . S
C169 C168 1.363 . S
C169 C170 1.385 . S
C170 H138 0.930 . S
C170 C169 1.385 . S
C170 C171 1.357 . S
C171 C170 1.357 . S
C171 C172 1.406 . S
C172 H139 0.929 . S
C172 C171 1.406 . S
C172 C173 1.391 . S
C173 H140 0.931 . S
C173 C168 1.370 . S
C173 C172 1.391 . S
C174 N148 1.435 . S
C174 C175 1.358 . S
C174 C179 1.371 . S
C175 H141 0.930 . S
C175 C174 1.358 . S
C175 C176 1.405 . S
C176 H142 0.932 . S
C176 C175 1.405 . S
C176 C177 1.383 . S
C177 C176 1.383 . S
C177 C178 1.393 . S
C178 H143 0.931 . S
C178 C177 1.393 . S
C178 C179 1.382 . S
C179 H144 0.929 . S
C179 C174 1.371 . S
C179 C178 1.382 . S
C180 N148 1.423 . S
C180 C181 1.362 . S
C180 C185 1.388 . S
C181 H145 0.929 . S
C181 C180 1.362 . S
C181 C182 1.376 . S
C182 H146 0.931 . S
C182 C181 1.376 . S
C182 C183 1.396 . S
C183 C165 1.472 . S
C183 C182 1.396 . S
C183 C184 1.348 . S
C184 H147 0.929 . S
C184 C183 1.348 . S
C184 C185 1.443 . S
C185 H149 0.932 . S
C185 C180 1.388 . S
C185 C184 1.443 . S
H186 C213 0.929 . S
N187 C212 1.433 . S
N187 C218 1.435 . S
N187 C224 1.423 . S
H188 C214 0.930 . S
H189 C217 0.931 . S
H190 C216 0.929 . S
H191 C219 0.930 . S
H192 C220 0.932 . S
H193 C223 0.929 . S
H194 C222 0.931 . S
H195 C225 0.929 . S
H196 C229 0.932 . S
H197 C226 0.931 . S
H198 C228 0.929 . S
H199 C231 0.929 . S
H200 C232 0.930 . S
H201 C234 0.929 . S
H202 C235 0.931 . S
H203 C237 0.930 . S
H204 C238 0.932 . S
H205 C240 0.931 . S
H206 C241 0.929 . S
H207 C243 0.929 . S
H208 C244 0.931 . S
H209 C246 0.929 . S
N210 C230 1.433 . S
N210 C236 1.435 . S
N210 C242 1.423 . S
H211 C247 0.932 . S
C212 N187 1.433 . S
C212 C213 1.363 . S
C212 C217 1.370 . S
C213 H186 0.929 . S
C213 C212 1.363 . S
C213 C214 1.385 . S
C214 H188 0.930 . S
C214 C213 1.385 . S
C214 C215 1.357 . S
C215 C214 1.357 . S
C215 C216 1.406 . S
C216 H190 0.929 . S
C216 C215 1.406 . S
C216 C217 1.391 . S
C217 H189 0.931 . S
C217 C212 1.370 . S
C217 C216 1.391 . S
C218 N187 1.435 . S
C218 C219 1.358 . S
C218 C223 1.371 . S
C219 H191 0.930 . S
C219 C218 1.358 . S
C219 C220 1.405 . S
C220 H192 0.932 . S
C220 C219 1.405 . S
C220 C221 1.383 . S
C221 C220 1.383 . S
C221 C222 1.393 . S
C222 H194 0.931 . S
C222 C221 1.393 . S
C222 C223 1.382 . S
C223 H193 0.929 . S
C223 C218 1.371 . S
C223 C222 1.382 . S
C224 N187 1.423 . S
C224 C225 1.362 . S
C224 C229 1.388 . S
C225 H195 0.929 . S
C225 C224 1.362 . S
C225 C226 1.376 . S
C226 H197 0.931 . S
C226 C225 1.376 . S
C226 C227 1.396 . S
C227 C226 1.396 . S
C227 C228 1.348 . S
C227 C245 1.472 1_455 S
C228 H198 0.929 . S
C228 C227 1.348 . S
C228 C229 1.443 . S
C229 H196 0.932 . S
C229 C224 1.388 . S
C229 C228 1.443 . S
C230 N210 1.433 . S
C230 C231 1.363 . S
C230 C235 1.370 . S
C231 H199 0.929 . S
C231 C230 1.363 . S
C231 C232 1.385 . S
C232 H200 0.930 . S
C232 C231 1.385 . S
C232 C233 1.357 . S
C233 C232 1.357 . S
C233 C234 1.406 . S
C234 H201 0.929 . S
C234 C233 1.406 . S
C234 C235 1.391 . S
C235 H202 0.931 . S
C235 C230 1.370 . S
C235 C234 1.391 . S
C236 N210 1.435 . S
C236 C237 1.358 . S
C236 C241 1.371 . S
C237 H203 0.930 . S
C237 C236 1.358 . S
C237 C238 1.405 . S
C238 H204 0.932 . S
C238 C237 1.405 . S
C238 C239 1.383 . S
C239 C238 1.383 . S
C239 C240 1.393 . S
C240 H205 0.931 . S
C240 C239 1.393 . S
C240 C241 1.382 . S
C241 H206 0.929 . S
C241 C236 1.371 . S
C241 C240 1.382 . S
C242 N210 1.423 . S
C242 C243 1.362 . S
C242 C247 1.388 . S
C243 H207 0.929 . S
C243 C242 1.362 . S
C243 C244 1.376 . S
C244 H208 0.931 . S
C244 C243 1.376 . S
C244 C245 1.396 . S
C245 C227 1.472 1_655 S
C245 C244 1.396 . S
C245 C246 1.348 . S
C246 H209 0.929 . S
C246 C245 1.348 . S
C246 C247 1.443 . S
C247 H211 0.932 . S
C247 C242 1.388 . S
C247 C246 1.443 . S
H248 C275 0.929 . S
N249 C274 1.433 . S
N249 C280 1.435 . S
N249 C286 1.423 . S
H250 C276 0.930 . S
H251 C279 0.931 . S
H252 C278 0.929 . S
H253 C281 0.930 . S
H254 C282 0.932 . S
H255 C285 0.929 . S
H256 C284 0.931 . S
H257 C287 0.929 . S
H258 C291 0.932 . S
H259 C288 0.931 . S
H260 C290 0.929 . S
H261 C293 0.929 . S
H262 C294 0.930 . S
H263 C296 0.929 . S
H264 C297 0.931 . S
H265 C299 0.930 1_554 S
H266 C300 0.932 . S
H267 C302 0.931 . S
H268 C303 0.929 . S
H269 C305 0.929 . S
H270 C306 0.931 1_554 S
H271 C308 0.929 . S
N272 C292 1.433 . S
N272 C298 1.435 1_554 S
N272 C304 1.423 1_554 S
H273 C309 0.932 . S
C274 N249 1.433 . S
C274 C275 1.363 . S
C274 C279 1.370 . S
C275 H248 0.929 . S
C275 C274 1.363 . S
C275 C276 1.385 . S
C276 H250 0.930 . S
C276 C275 1.385 . S
C276 C277 1.357 1_556 S
C277 C276 1.357 1_554 S
C277 C278 1.406 . S
C278 H252 0.929 . S
C278 C277 1.406 . S
C278 C279 1.391 1_554 S
C279 H251 0.931 . S
C279 C274 1.370 . S
C279 C278 1.391 1_556 S
C280 N249 1.435 . S
C280 C281 1.358 . S
C280 C285 1.371 . S
C281 H253 0.930 . S
C281 C280 1.358 . S
C281 C282 1.405 . S
C282 H254 0.932 . S
C282 C281 1.405 . S
C282 C283 1.383 . S
C283 C282 1.383 . S
C283 C284 1.393 . S
C284 H256 0.931 . S
C284 C283 1.393 . S
C284 C285 1.382 . S
C285 H255 0.929 . S
C285 C280 1.371 . S
C285 C284 1.382 . S
C286 N249 1.423 . S
C286 C287 1.362 . S
C286 C291 1.388 . S
C287 H257 0.929 . S
C287 C286 1.362 . S
C287 C288 1.376 . S
C288 H259 0.931 . S
C288 C287 1.376 . S
C288 C289 1.396 . S
C289 C288 1.396 . S
C289 C290 1.348 . S
C289 C307 1.472 1_545 S
C290 H260 0.929 . S
C290 C289 1.348 . S
C290 C291 1.443 . S
C291 H258 0.932 . S
C291 C286 1.388 . S
C291 C290 1.443 . S
C292 N272 1.433 . S
C292 C293 1.363 . S
C292 C297 1.370 . S
C293 H261 0.929 . S
C293 C292 1.363 . S
C293 C294 1.385 . S
C294 H262 0.930 . S
C294 C293 1.385 . S
C294 C295 1.357 . S
C295 C294 1.357 . S
C295 C296 1.406 . S
C296 H263 0.929 . S
C296 C295 1.406 . S
C296 C297 1.391 . S
C297 H264 0.931 . S
C297 C292 1.370 . S
C297 C296 1.391 . S
C298 N272 1.435 1_556 S
C298 C299 1.358 . S
C298 C303 1.371 . S
C299 H265 0.930 1_556 S
C299 C298 1.358 . S
C299 C300 1.405 . S
C300 H266 0.932 . S
C300 C299 1.405 . S
C300 C301 1.383 . S
C301 C300 1.383 . S
C301 C302 1.393 . S
C302 H267 0.931 . S
C302 C301 1.393 . S
C302 C303 1.382 . S
C303 H268 0.929 . S
C303 C298 1.371 . S
C303 C302 1.382 . S
C304 N272 1.423 1_556 S
C304 C305 1.362 1_556 S
C304 C309 1.388 . S
C305 H269 0.929 . S
C305 C304 1.362 1_554 S
C305 C306 1.376 1_554 S
C306 H270 0.931 1_556 S
C306 C305 1.376 1_556 S
C306 C307 1.396 . S
C307 C289 1.472 1_565 S
C307 C306 1.396 . S
C307 C308 1.348 . S
C308 H271 0.929 . S
C308 C307 1.348 . S
C308 C309 1.443 . S
C309 H273 0.932 . S
C309 C304 1.388 . S
C309 C308 1.443 . S
H310 C337 0.929 . S
N311 C336 1.433 . S
N311 C342 1.435 . S
N311 C348 1.423 . S
H312 C338 0.930 . S
H313 C341 0.931 . S
H314 C340 0.929 . S
H315 C343 0.930 . S
H316 C344 0.932 . S
H317 C347 0.929 . S
H318 C346 0.931 . S
H319 C349 0.929 . S
H320 C353 0.932 . S
H321 C350 0.931 . S
H322 C352 0.929 . S
H323 C355 0.929 . S
H324 C356 0.930 . S
H325 C358 0.929 . S
H326 C359 0.931 . S
H327 C361 0.930 . S
H328 C362 0.932 . S
H329 C364 0.931 . S
H330 C365 0.929 . S
H331 C367 0.929 . S
H332 C368 0.931 . S
H333 C370 0.929 . S
N334 C354 1.433 . S
N334 C360 1.435 . S
N334 C366 1.423 . S
H335 C371 0.932 . S
C336 N311 1.433 . S
C336 C337 1.363 . S
C336 C341 1.370 . S
C337 H310 0.929 . S
C337 C336 1.363 . S
C337 C338 1.385 . S
C338 H312 0.930 . S
C338 C337 1.385 . S
C338 C339 1.357 . S
C339 C338 1.357 . S
C339 C340 1.406 . S
C340 H314 0.929 . S
C340 C339 1.406 . S
C340 C341 1.391 . S
C341 H313 0.931 . S
C341 C336 1.370 . S
C341 C340 1.391 . S
C342 N311 1.435 . S
C342 C343 1.358 . S
C342 C347 1.371 . S
C343 H315 0.930 . S
C343 C342 1.358 . S
C343 C344 1.405 . S
C344 H316 0.932 . S
C344 C343 1.405 . S
C344 C345 1.383 . S
C345 C344 1.383 . S
C345 C346 1.393 . S
C346 H318 0.931 . S
C346 C345 1.393 . S
C346 C347 1.382 . S
C347 H317 0.929 . S
C347 C342 1.371 . S
C347 C346 1.382 . S
C348 N311 1.423 . S
C348 C349 1.362 . S
C348 C353 1.388 . S
C349 H319 0.929 . S
C349 C348 1.362 . S
C349 C350 1.376 . S
C350 H321 0.931 . S
C350 C349 1.376 . S
C350 C351 1.396 . S
C351 C350 1.396 . S
C351 C352 1.348 . S
C351 C369 1.472 . S
C352 H322 0.929 . S
C352 C351 1.348 . S
C352 C353 1.443 . S
C353 H320 0.932 . S
C353 C348 1.388 . S
C353 C352 1.443 . S
C354 N334 1.433 . S
C354 C355 1.363 . S
C354 C359 1.370 . S
C355 H323 0.929 . S
C355 C354 1.363 . S
C355 C356 1.385 . S
C356 H324 0.930 . S
C356 C355 1.385 . S
C356 C357 1.357 . S
C357 C356 1.357 . S
C357 C358 1.406 . S
C358 H325 0.929 . S
C358 C357 1.406 . S
C358 C359 1.391 . S
C359 H326 0.931 . S
C359 C354 1.370 . S
C359 C358 1.391 . S
C360 N334 1.435 . S
C360 C361 1.358 . S
C360 C365 1.371 . S
C361 H327 0.930 . S
C361 C360 1.358 . S
C361 C362 1.405 . S
C362 H328 0.932 . S
C362 C361 1.405 . S
C362 C363 1.383 . S
C363 C362 1.383 . S
C363 C364 1.393 . S
C364 H329 0.931 . S
C364 C363 1.393 . S
C364 C365 1.382 . S
C365 H330 0.929 . S
C365 C360 1.371 . S
C365 C364 1.382 . S
C366 N334 1.423 . S
C366 C367 1.362 . S
C366 C371 1.388 . S
C367 H331 0.929 . S
C367 C366 1.362 . S
C367 C368 1.376 . S
C368 H332 0.931 . S
C368 C367 1.376 . S
C368 C369 1.396 . S
C369 C351 1.472 . S
C369 C368 1.396 . S
C369 C370 1.348 . S
C370 H333 0.929 . S
C370 C369 1.348 . S
C370 C371 1.443 . S
C371 H335 0.932 . S
C371 C366 1.388 . S
C371 C370 1.443 . S
C372 O373 1.160 . S
C372 O379 1.185 . S
O373 C372 1.160 . S
O374 Zn375 1.899 . S
O374 C382 1.284 . S
Zn375 O374 1.899 . S
Zn375 O376 2.032 . S
Zn375 O379 2.086 . S
Zn375 O384 1.977 . S
O376 Zn375 2.032 . S
O376 C380 1.278 . S
C377 O378 1.203 . S
C377 O384 1.267 . S
O378 C377 1.203 . S
O379 C372 1.185 . S
O379 Zn375 2.086 . S
C380 O376 1.278 . S
C380 O381 1.211 . S
O381 C380 1.211 . S
C382 O374 1.284 . S
C382 O383 1.273 . S
O383 C382 1.273 . S
O384 Zn375 1.977 . S
O384 C377 1.267 . S
C385 O386 1.160 . S
C385 O392 1.185 . S
O386 C385 1.160 . S
O387 Zn388 1.899 . S
O387 C395 1.284 . S
Zn388 O387 1.899 . S
Zn388 O389 2.032 . S
Zn388 O392 2.086 . S
Zn388 O397 1.977 . S
O389 Zn388 2.032 . S
O389 C393 1.278 . S
C390 O391 1.203 . S
C390 O397 1.267 . S
O391 C390 1.203 . S
O392 C385 1.185 . S
O392 Zn388 2.086 . S
C393 O389 1.278 . S
C393 O394 1.211 . S
O394 C393 1.211 . S
C395 O387 1.284 . S
C395 O396 1.273 . S
O396 C395 1.273 . S
O397 Zn388 1.977 . S
O397 C390 1.267 . S
C398 O399 1.160 . S
C398 O405 1.185 . S
O399 C398 1.160 . S
O400 Zn401 1.899 . S
O400 C408 1.284 . S
Zn401 O400 1.899 . S
Zn401 O402 2.032 . S
Zn401 O405 2.086 . S
Zn401 O410 1.977 . S
O402 Zn401 2.032 . S
O402 C406 1.278 . S
C403 O404 1.203 . S
C403 O410 1.267 . S
O404 C403 1.203 . S
O405 C398 1.185 . S
O405 Zn401 2.086 . S
C406 O402 1.278 . S
C406 O407 1.211 . S
O407 C406 1.211 . S
C408 O400 1.284 . S
C408 O409 1.273 . S
O409 C408 1.273 . S
O410 Zn401 1.977 . S
O410 C403 1.267 . S
C411 O412 1.160 . S
C411 O418 1.185 . S
O412 C411 1.160 . S
O413 Zn414 1.899 . S
O413 C421 1.284 . S
Zn414 O413 1.899 . S
Zn414 O415 2.032 . S
Zn414 O418 2.086 . S
Zn414 O423 1.977 . S
O415 Zn414 2.032 . S
O415 C419 1.278 . S
C416 O417 1.203 . S
C416 O423 1.267 . S
O417 C416 1.203 . S
O418 C411 1.185 . S
O418 Zn414 2.086 . S
C419 O415 1.278 . S
C419 O420 1.211 . S
O420 C419 1.211 . S
C421 O413 1.284 . S
C421 O422 1.273 . S
O422 C421 1.273 . S
O423 Zn414 1.977 . S
O423 C416 1.267 . S
C424 O425 1.160 . S
C424 O431 1.185 . S
O425 C424 1.160 . S
O426 Zn427 1.899 . S
O426 C434 1.284 . S
Zn427 O426 1.899 . S
Zn427 O428 2.032 . S
Zn427 O431 2.086 . S
Zn427 O436 1.977 . S
O428 Zn427 2.032 . S
O428 C432 1.278 . S
C429 O430 1.203 . S
C429 O436 1.267 . S
O430 C429 1.203 . S
O431 C424 1.185 . S
O431 Zn427 2.086 . S
C432 O428 1.278 . S
C432 O433 1.211 . S
O433 C432 1.211 . S
C434 O426 1.284 . S
C434 O435 1.273 . S
O435 C434 1.273 . S
O436 Zn427 1.977 . S
O436 C429 1.267 . S
C437 O438 1.160 . S
C437 O444 1.185 . S
O438 C437 1.160 . S
O439 Zn440 1.899 . S
O439 C447 1.284 . S
Zn440 O439 1.899 . S
Zn440 O441 2.032 . S
Zn440 O444 2.086 . S
Zn440 O449 1.977 . S
O441 Zn440 2.032 . S
O441 C445 1.278 . S
C442 O443 1.203 . S
C442 O449 1.267 . S
O443 C442 1.203 . S
O444 C437 1.185 . S
O444 Zn440 2.086 . S
C445 O441 1.278 . S
C445 O446 1.211 . S
O446 C445 1.211 . S
C447 O439 1.284 . S
C447 O448 1.273 . S
O448 C447 1.273 . S
O449 Zn440 1.977 . S
O449 C442 1.267 . S
H450 C458 0.950 . S
H451 C463 0.950 . S
H452 C460 0.950 . S
H453 C462 0.950 . S
H454 C464 0.950 . S
H455 C466 0.950 . S
H456 C468 0.950 . S
H457 C469 0.950 . S
C458 H450 0.950 . S
C458 C459 1.386 . S
C458 C460 1.391 . S
C459 C458 1.386 . S
C459 C463 1.393 . S
C460 H452 0.950 . S
C460 C458 1.391 . S
C460 C461 1.400 . S
C461 C460 1.400 . S
C461 C462 1.398 . S
C461 C467 1.491 . S
C462 H453 0.950 . S
C462 C461 1.398 . S
C462 C463 1.391 . S
C463 H451 0.950 . S
C463 C459 1.393 . S
C463 C462 1.391 . S
C464 H454 0.950 . S
C464 C465 1.386 . S
C464 C466 1.391 . S
C465 C464 1.386 . S
C465 C469 1.393 . S
C466 H455 0.950 . S
C466 C464 1.391 . S
C466 C467 1.400 . S
C467 C461 1.491 . S
C467 C466 1.400 . S
C467 C468 1.398 . S
C468 H456 0.950 . S
C468 C467 1.398 . S
C468 C469 1.391 . S
C469 H457 0.950 . S
C469 C465 1.393 . S
C469 C468 1.391 . S
H470 C478 0.950 . S
H471 C483 0.950 . S
H472 C480 0.950 . S
H473 C482 0.950 . S
H474 C484 0.950 . S
H475 C486 0.950 . S
H476 C488 0.950 . S
H477 C489 0.950 . S
C478 H470 0.950 . S
C478 C479 1.386 . S
C478 C480 1.391 . S
C479 C478 1.386 . S
C479 C483 1.393 . S
C480 H472 0.950 . S
C480 C478 1.391 . S
C480 C481 1.400 . S
C481 C480 1.400 . S
C481 C482 1.398 . S
C481 C487 1.491 . S
C482 H473 0.950 . S
C482 C481 1.398 . S
C482 C483 1.391 . S
C483 H471 0.950 . S
C483 C479 1.393 . S
C483 C482 1.391 . S
C484 H474 0.950 . S
C484 C485 1.386 . S
C484 C486 1.391 . S
C485 C484 1.386 . S
C485 C489 1.393 . S
C486 H475 0.950 . S
C486 C484 1.391 . S
C486 C487 1.400 . S
C487 C481 1.491 . S
C487 C486 1.400 . S
C487 C488 1.398 . S
C488 H476 0.950 . S
C488 C487 1.398 . S
C488 C489 1.391 . S
C489 H477 0.950 . S
C489 C485 1.393 . S
C489 C488 1.391 . S
H490 C498 0.950 . S
H491 C503 0.950 . S
H492 C500 0.950 . S
H493 C502 0.950 . S
H494 C504 0.950 . S
H495 C506 0.950 . S
H496 C508 0.950 . S
H497 C509 0.950 . S
C498 H490 0.950 . S
C498 C499 1.386 . S
C498 C500 1.391 . S
C499 C498 1.386 . S
C499 C503 1.393 . S
C500 H492 0.950 . S
C500 C498 1.391 . S
C500 C501 1.400 . S
C501 C500 1.400 . S
C501 C502 1.398 . S
C501 C507 1.491 . S
C502 H493 0.950 . S
C502 C501 1.398 . S
C502 C503 1.391 . S
C503 H491 0.950 . S
C503 C499 1.393 . S
C503 C502 1.391 . S
C504 H494 0.950 . S
C504 C505 1.386 . S
C504 C506 1.391 . S
C505 C504 1.386 . S
C505 C509 1.393 . S
C506 H495 0.950 . S
C506 C504 1.391 . S
C506 C507 1.400 . S
C507 C501 1.491 . S
C507 C506 1.400 . S
C507 C508 1.398 . S
C508 H496 0.950 . S
C508 C507 1.398 . S
C508 C509 1.391 . S
C509 H497 0.950 . S
C509 C505 1.393 . S
C509 C508 1.391 . S
H510 C518 0.950 . S
H511 C523 0.950 . S
H512 C520 0.950 . S
H513 C522 0.950 . S
H514 C524 0.950 . S
H515 C526 0.950 . S
H516 C528 0.950 . S
H517 C529 0.950 . S
C518 H510 0.950 . S
C518 C519 1.386 . S
C518 C520 1.391 . S
C519 C518 1.386 . S
C519 C523 1.393 . S
C520 H512 0.950 . S
C520 C518 1.391 . S
C520 C521 1.400 . S
C521 C520 1.400 . S
C521 C522 1.398 . S
C521 C527 1.491 . S
C522 H513 0.950 . S
C522 C521 1.398 . S
C522 C523 1.391 . S
C523 H511 0.950 . S
C523 C519 1.393 . S
C523 C522 1.391 . S
C524 H514 0.950 . S
C524 C525 1.386 . S
C524 C526 1.391 . S
C525 C524 1.386 . S
C525 C529 1.393 . S
C526 H515 0.950 . S
C526 C524 1.391 . S
C526 C527 1.400 . S
C527 C521 1.491 . S
C527 C526 1.400 . S
C527 C528 1.398 . S
C528 H516 0.950 . S
C528 C527 1.398 . S
C528 C529 1.391 . S
C529 H517 0.950 . S
C529 C525 1.393 . S
C529 C528 1.391 . S
H530 C538 0.950 . S
H531 C543 0.950 . S
H532 C540 0.950 . S
H533 C542 0.950 . S
H534 C544 0.950 . S
H535 C546 0.950 . S
H536 C548 0.950 . S
H537 C549 0.950 . S
C538 H530 0.950 . S
C538 C539 1.386 . S
C538 C540 1.391 . S
C539 C538 1.386 . S
C539 C543 1.393 . S
C540 H532 0.950 . S
C540 C538 1.391 . S
C540 C541 1.400 . S
C541 C540 1.400 . S
C541 C542 1.398 . S
C541 C547 1.491 . S
C542 H533 0.950 . S
C542 C541 1.398 . S
C542 C543 1.391 . S
C543 H531 0.950 . S
C543 C539 1.393 . S
C543 C542 1.391 . S
C544 H534 0.950 . S
C544 C545 1.386 . S
C544 C546 1.391 . S
C545 C544 1.386 . S
C545 C549 1.393 . S
C546 H535 0.950 . S
C546 C544 1.391 . S
C546 C547 1.400 . S
C547 C541 1.491 . S
C547 C546 1.400 . S
C547 C548 1.398 . S
C548 H536 0.950 . S
C548 C547 1.398 . S
C548 C549 1.391 . S
C549 H537 0.950 . S
C549 C545 1.393 . S
C549 C548 1.391 . S
H550 C558 0.950 . S
H551 C563 0.950 . S
H552 C560 0.950 . S
H553 C562 0.950 . S
H554 C564 0.950 . S
H555 C566 0.950 . S
H556 C568 0.950 . S
H557 C569 0.950 . S
C558 H550 0.950 . S
C558 C559 1.386 . S
C558 C560 1.391 . S
C559 C558 1.386 . S
C559 C563 1.393 . S
C560 H552 0.950 . S
C560 C558 1.391 . S
C560 C561 1.400 . S
C561 C560 1.400 . S
C561 C562 1.398 . S
C561 C567 1.491 . S
C562 H553 0.950 . S
C562 C561 1.398 . S
C562 C563 1.391 . S
C563 H551 0.950 . S
C563 C559 1.393 . S
C563 C562 1.391 . S
C564 H554 0.950 . S
C564 C565 1.386 . S
C564 C566 1.391 . S
C565 C564 1.386 . S
C565 C569 1.393 . S
C566 H555 0.950 . S
C566 C564 1.391 . S
C566 C567 1.400 . S
C567 C561 1.491 . S
C567 C566 1.400 . S
C567 C568 1.398 . S
C568 H556 0.950 . S
C568 C567 1.398 . S
C568 C569 1.391 . S
C569 H557 0.950 . S
C569 C565 1.393 . S
C569 C568 1.391 . S
H570 C578 0.950 . S
H571 C583 0.950 . S
H572 C580 0.950 . S
H573 C582 0.950 . S
H574 C584 0.950 . S
H575 C586 0.950 . S
H576 C588 0.950 . S
H577 C589 0.950 . S
C578 H570 0.950 . S
C578 C579 1.386 . S
C578 C580 1.391 . S
C579 C578 1.386 . S
C579 C583 1.393 . S
C580 H572 0.950 . S
C580 C578 1.391 . S
C580 C581 1.400 . S
C581 C580 1.400 . S
C581 C582 1.398 . S
C581 C587 1.491 . S
C582 H573 0.950 . S
C582 C581 1.398 . S
C582 C583 1.391 . S
C583 H571 0.950 . S
C583 C579 1.393 . S
C583 C582 1.391 . S
C584 H574 0.950 . S
C584 C585 1.386 . S
C584 C586 1.391 . S
C585 C584 1.386 . S
C585 C589 1.393 . S
C586 H575 0.950 . S
C586 C584 1.391 . S
C586 C587 1.400 . S
C587 C581 1.491 . S
C587 C586 1.400 . S
C587 C588 1.398 . S
C588 H576 0.950 . S
C588 C587 1.398 . S
C588 C589 1.391 . S
C589 H577 0.950 . S
C589 C585 1.393 . S
C589 C588 1.391 . S
H590 C598 0.950 . S
H591 C603 0.950 . S
H592 C600 0.950 . S
H593 C602 0.950 . S
H594 C604 0.950 . S
H595 C606 0.950 . S
H596 C608 0.950 . S
H597 C609 0.950 . S
C598 H590 0.950 . S
C598 C599 1.386 . S
C598 C600 1.391 . S
C599 C598 1.386 . S
C599 C603 1.393 . S
C600 H592 0.950 . S
C600 C598 1.391 . S
C600 C601 1.400 . S
C601 C600 1.400 . S
C601 C602 1.398 . S
C601 C607 1.491 . S
C602 H593 0.950 . S
C602 C601 1.398 . S
C602 C603 1.391 . S
C603 H591 0.950 . S
C603 C599 1.393 . S
C603 C602 1.391 . S
C604 H594 0.950 . S
C604 C605 1.386 . S
C604 C606 1.391 . S
C605 C604 1.386 . S
C605 C609 1.393 . S
C606 H595 0.950 . S
C606 C604 1.391 . S
C606 C607 1.400 . S
C607 C601 1.491 . S
C607 C606 1.400 . S
C607 C608 1.398 . S
C608 H596 0.950 . S
C608 C607 1.398 . S
C608 C609 1.391 . S
C609 H597 0.950 . S
C609 C605 1.393 . S
C609 C608 1.391 . S
H610 C618 0.950 . S
H611 C623 0.950 . S
H612 C620 0.950 . S
H613 C622 0.950 . S
H614 C624 0.950 . S
H615 C626 0.950 . S
H616 C628 0.950 . S
H617 C629 0.950 . S
C618 H610 0.950 . S
C618 C619 1.386 . S
C618 C620 1.391 . S
C619 C618 1.386 . S
C619 C623 1.393 . S
C620 H612 0.950 . S
C620 C618 1.391 . S
C620 C621 1.400 . S
C621 C620 1.400 . S
C621 C622 1.398 . S
C621 C627 1.491 . S
C622 H613 0.950 . S
C622 C621 1.398 . S
C622 C623 1.391 . S
C623 H611 0.950 . S
C623 C619 1.393 . S
C623 C622 1.391 . S
C624 H614 0.950 . S
C624 C625 1.386 . S
C624 C626 1.391 . S
C625 C624 1.386 . S
C625 C629 1.393 . S
C626 H615 0.950 . S
C626 C624 1.391 . S
C626 C627 1.400 . S
C627 C621 1.491 . S
C627 C626 1.400 . S
C627 C628 1.398 . S
C628 H616 0.950 . S
C628 C627 1.398 . S
C628 C629 1.391 . S
C629 H617 0.950 . S
C629 C625 1.393 . S
C629 C628 1.391 . S
H630 C638 0.950 . S
H631 C643 0.950 . S
H632 C640 0.950 . S
H633 C642 0.950 . S
H634 C644 0.950 . S
H635 C646 0.950 . S
H636 C648 0.950 . S
H637 C649 0.950 . S
C638 H630 0.950 . S
C638 C639 1.386 . S
C638 C640 1.391 . S
C639 C638 1.386 . S
C639 C643 1.393 . S
C640 H632 0.950 . S
C640 C638 1.391 . S
C640 C641 1.400 . S
C641 C640 1.400 . S
C641 C642 1.398 . S
C641 C647 1.491 . S
C642 H633 0.950 . S
C642 C641 1.398 . S
C642 C643 1.391 . S
C643 H631 0.950 . S
C643 C639 1.393 . S
C643 C642 1.391 . S
C644 H634 0.950 . S
C644 C645 1.386 . S
C644 C646 1.391 . S
C645 C644 1.386 . S
C645 C649 1.393 . S
C646 H635 0.950 . S
C646 C644 1.391 . S
C646 C647 1.400 . S
C647 C641 1.491 . S
C647 C646 1.400 . S
C647 C648 1.398 . S
C648 H636 0.950 . S
C648 C647 1.398 . S
C648 C649 1.391 . S
C649 H637 0.950 . S
C649 C645 1.393 . S
C649 C648 1.391 . S
H650 C658 0.950 . S
H651 C663 0.950 . S
H652 C660 0.950 . S
H653 C662 0.950 . S
H654 C664 0.950 . S
H655 C666 0.950 . S
H656 C668 0.950 . S
H657 C669 0.950 . S
C658 H650 0.950 . S
C658 C659 1.386 . S
C658 C660 1.391 . S
C659 C658 1.386 . S
C659 C663 1.393 . S
C660 H652 0.950 . S
C660 C658 1.391 . S
C660 C661 1.400 . S
C661 C660 1.400 . S
C661 C662 1.398 . S
C661 C667 1.491 . S
C662 H653 0.950 . S
C662 C661 1.398 . S
C662 C663 1.391 . S
C663 H651 0.950 . S
C663 C659 1.393 . S
C663 C662 1.391 . S
C664 H654 0.950 . S
C664 C665 1.386 . S
C664 C666 1.391 . S
C665 C664 1.386 . S
C665 C669 1.393 . S
C666 H655 0.950 . S
C666 C664 1.391 . S
C666 C667 1.400 . S
C667 C661 1.491 . S
C667 C666 1.400 . S
C667 C668 1.398 . S
C668 H656 0.950 . S
C668 C667 1.398 . S
C668 C669 1.391 . S
C669 H657 0.950 . S
C669 C665 1.393 . S
C669 C668 1.391 . S
H670 C678 0.950 . S
H671 C683 0.950 . S
H672 C680 0.950 . S
H673 C682 0.950 . S
H674 C684 0.950 . S
H675 C686 0.950 . S
H676 C688 0.950 . S
H677 C689 0.950 . S
C678 H670 0.950 . S
C678 C679 1.386 . S
C678 C680 1.391 . S
C679 C678 1.386 . S
C679 C683 1.393 . S
C680 H672 0.950 . S
C680 C678 1.391 . S
C680 C681 1.400 . S
C681 C680 1.400 . S
C681 C682 1.398 . S
C681 C687 1.491 . S
C682 H673 0.950 . S
C682 C681 1.398 . S
C682 C683 1.391 . S
C683 H671 0.950 . S
C683 C679 1.393 . S
C683 C682 1.391 . S
C684 H674 0.950 . S
C684 C685 1.386 . S
C684 C686 1.391 . S
C685 C684 1.386 . S
C685 C689 1.393 . S
C686 H675 0.950 . S
C686 C684 1.391 . S
C686 C687 1.400 . S
C687 C681 1.491 . S
C687 C686 1.400 . S
C687 C688 1.398 . S
C688 H676 0.950 . S
C688 C687 1.398 . S
C688 C689 1.391 . S
C689 H677 0.950 . S
C689 C685 1.393 . S
C689 C688 1.391 . S
H690 C698 0.950 . S
H691 C703 0.950 . S
H692 C700 0.950 . S
H693 C702 0.950 . S
H694 C704 0.950 . S
H695 C706 0.950 . S
H696 C708 0.950 . S
H697 C709 0.950 . S
C698 H690 0.950 . S
C698 C699 1.386 . S
C698 C700 1.391 . S
C699 C698 1.386 . S
C699 C703 1.393 . S
C700 H692 0.950 . S
C700 C698 1.391 . S
C700 C701 1.400 . S
C701 C700 1.400 . S
C701 C702 1.398 . S
C701 C707 1.491 . S
C702 H693 0.950 . S
C702 C701 1.398 . S
C702 C703 1.391 . S
C703 H691 0.950 . S
C703 C699 1.393 . S
C703 C702 1.391 . S
C704 H694 0.950 . S
C704 C705 1.386 . S
C704 C706 1.391 . S
C705 C704 1.386 . S
C705 C709 1.393 . S
C706 H695 0.950 . S
C706 C704 1.391 . S
C706 C707 1.400 . S
C707 C701 1.491 . S
C707 C706 1.400 . S
C707 C708 1.398 . S
C708 H696 0.950 . S
C708 C707 1.398 . S
C708 C709 1.391 . S
C709 H697 0.950 . S
C709 C705 1.393 . S
C709 C708 1.391 . S
H710 C718 0.950 . S
H711 C723 0.950 . S
H712 C720 0.950 . S
H713 C722 0.950 . S
H714 C724 0.950 . S
H715 C726 0.950 . S
H716 C728 0.950 . S
H717 C729 0.950 . S
C718 H710 0.950 . S
C718 C719 1.386 . S
C718 C720 1.391 . S
C719 C718 1.386 . S
C719 C723 1.393 . S
C720 H712 0.950 . S
C720 C718 1.391 . S
C720 C721 1.400 . S
C721 C720 1.400 . S
C721 C722 1.398 . S
C721 C727 1.491 . S
C722 H713 0.950 . S
C722 C721 1.398 . S
C722 C723 1.391 . S
C723 H711 0.950 . S
C723 C719 1.393 . S
C723 C722 1.391 . S
C724 H714 0.950 . S
C724 C725 1.386 . S
C724 C726 1.391 . S
C725 C724 1.386 . S
C725 C729 1.393 . S
C726 H715 0.950 . S
C726 C724 1.391 . S
C726 C727 1.400 . S
C727 C721 1.491 . S
C727 C726 1.400 . S
C727 C728 1.398 . S
C728 H716 0.950 . S
C728 C727 1.398 . S
C728 C729 1.391 . S
C729 H717 0.950 . S
C729 C725 1.393 . S
C729 C728 1.391 . S
H730 C738 0.950 . S
H731 C743 0.950 . S
H732 C740 0.950 . S
H733 C742 0.950 . S
H734 C744 0.950 . S
H735 C746 0.950 . S
H736 C748 0.950 . S
H737 C749 0.950 . S
C738 H730 0.950 . S
C738 C739 1.386 . S
C738 C740 1.391 . S
C739 C738 1.386 . S
C739 C743 1.393 . S
C740 H732 0.950 . S
C740 C738 1.391 . S
C740 C741 1.400 . S
C741 C740 1.400 . S
C741 C742 1.398 . S
C741 C747 1.491 . S
C742 H733 0.950 . S
C742 C741 1.398 . S
C742 C743 1.391 . S
C743 H731 0.950 . S
C743 C739 1.393 . S
C743 C742 1.391 . S
C744 H734 0.950 . S
C744 C745 1.386 . S
C744 C746 1.391 . S
C745 C744 1.386 . S
C745 C749 1.393 . S
C746 H735 0.950 . S
C746 C744 1.391 . S
C746 C747 1.400 . S
C747 C741 1.491 . S
C747 C746 1.400 . S
C747 C748 1.398 . S
C748 H736 0.950 . S
C748 C747 1.398 . S
C748 C749 1.391 . S
C749 H737 0.950 . S
C749 C745 1.393 . S
C749 C748 1.391 . S
H750 C758 0.950 . S
H751 C763 0.950 . S
H752 C760 0.950 . S
H753 C762 0.950 . S
H754 C764 0.950 . S
H755 C766 0.950 . S
H756 C768 0.950 . S
H757 C769 0.950 . S
C758 H750 0.950 . S
C758 C759 1.386 . S
C758 C760 1.391 . S
C759 C758 1.386 . S
C759 C763 1.393 . S
C760 H752 0.950 . S
C760 C758 1.391 . S
C760 C761 1.400 . S
C761 C760 1.400 . S
C761 C762 1.398 . S
C761 C767 1.491 . S
C762 H753 0.950 . S
C762 C761 1.398 . S
C762 C763 1.391 . S
C763 H751 0.950 . S
C763 C759 1.393 . S
C763 C762 1.391 . S
C764 H754 0.950 . S
C764 C765 1.386 1_556 S
C764 C766 1.391 . S
C765 C764 1.386 1_554 S
C765 C769 1.393 . S
C766 H755 0.950 . S
C766 C764 1.391 . S
C766 C767 1.400 . S
C767 C761 1.491 . S
C767 C766 1.400 . S
C767 C768 1.398 . S
C768 H756 0.950 . S
C768 C767 1.398 . S
C768 C769 1.391 1_556 S
C769 H757 0.950 . S
C769 C765 1.393 . S
C769 C768 1.391 1_554 S
H770 C778 0.950 . S
H771 C783 0.950 . S
H772 C780 0.950 . S
H773 C782 0.950 . S
H774 C784 0.950 . S
H775 C786 0.950 . S
H776 C788 0.950 . S
H777 C789 0.950 . S
C778 H770 0.950 . S
C778 C779 1.386 . S
C778 C780 1.391 . S
C779 C778 1.386 . S
C779 C783 1.393 . S
C780 H772 0.950 . S
C780 C778 1.391 . S
C780 C781 1.400 . S
C781 C780 1.400 . S
C781 C782 1.398 . S
C781 C787 1.491 . S
C782 H773 0.950 . S
C782 C781 1.398 . S
C782 C783 1.391 . S
C783 H771 0.950 . S
C783 C779 1.393 . S
C783 C782 1.391 . S
C784 H774 0.950 . S
C784 C785 1.386 . S
C784 C786 1.391 . S
C785 C784 1.386 . S
C785 C789 1.393 . S
C786 H775 0.950 . S
C786 C784 1.391 . S
C786 C787 1.400 . S
C787 C781 1.491 . S
C787 C786 1.400 . S
C787 C788 1.398 . S
C788 H776 0.950 . S
C788 C787 1.398 . S
C788 C789 1.391 . S
C789 H777 0.950 . S
C789 C785 1.393 . S
C789 C788 1.391 . S
H790 C798 0.950 . S
H791 C803 0.950 . S
H792 C800 0.950 . S
H793 C802 0.950 . S
H794 C804 0.950 . S
H795 C806 0.950 . S
H796 C808 0.950 . S
H797 C809 0.950 . S
C798 H790 0.950 . S
C798 C799 1.386 . S
C798 C800 1.391 . S
C799 C798 1.386 . S
C799 C803 1.393 . S
C800 H792 0.950 . S
C800 C798 1.391 . S
C800 C801 1.400 . S
C801 C800 1.400 . S
C801 C802 1.398 . S
C801 C807 1.491 . S
C802 H793 0.950 . S
C802 C801 1.398 . S
C802 C803 1.391 . S
C803 H791 0.950 . S
C803 C799 1.393 . S
C803 C802 1.391 . S
C804 H794 0.950 . S
C804 C805 1.386 . S
C804 C806 1.391 . S
C805 C804 1.386 . S
C805 C809 1.393 . S
C806 H795 0.950 . S
C806 C804 1.391 . S
C806 C807 1.400 . S
C807 C801 1.491 . S
C807 C806 1.400 . S
C807 C808 1.398 . S
C808 H796 0.950 . S
C808 C807 1.398 . S
C808 C809 1.391 . S
C809 H797 0.950 . S
C809 C805 1.393 . S
C809 C808 1.391 . S
H810 C818 0.950 . S
H811 C823 0.950 . S
H812 C820 0.950 . S
H813 C822 0.950 . S
H814 C824 0.950 . S
H815 C826 0.950 . S
H816 C828 0.950 . S
H817 C829 0.950 . S
C818 H810 0.950 . S
C818 C819 1.386 . S
C818 C820 1.391 . S
C819 C818 1.386 . S
C819 C823 1.393 . S
C820 H812 0.950 . S
C820 C818 1.391 . S
C820 C821 1.400 . S
C821 C820 1.400 . S
C821 C822 1.398 . S
C821 C827 1.491 . S
C822 H813 0.950 . S
C822 C821 1.398 . S
C822 C823 1.391 . S
C823 H811 0.950 . S
C823 C819 1.393 . S
C823 C822 1.391 . S
C824 H814 0.950 . S
C824 C825 1.386 . S
C824 C826 1.391 . S
C825 C824 1.386 . S
C825 C829 1.393 . S
C826 H815 0.950 . S
C826 C824 1.391 . S
C826 C827 1.400 . S
C827 C821 1.491 . S
C827 C826 1.400 . S
C827 C828 1.398 . S
C828 H816 0.950 . S
C828 C827 1.398 . S
C828 C829 1.391 . S
C829 H817 0.950 . S
C829 C825 1.393 . S
C829 C828 1.391 . S
H830 C838 0.950 . S
H831 C843 0.950 . S
H832 C840 0.950 . S
H833 C842 0.950 . S
H834 C844 0.950 . S
H835 C846 0.950 . S
H836 C848 0.950 . S
H837 C849 0.950 . S
C838 H830 0.950 . S
C838 C839 1.386 . S
C838 C840 1.391 . S
C839 C838 1.386 . S
C839 C843 1.393 . S
C840 H832 0.950 . S
C840 C838 1.391 . S
C840 C841 1.400 . S
C841 C840 1.400 . S
C841 C842 1.398 . S
C841 C847 1.491 . S
C842 H833 0.950 . S
C842 C841 1.398 . S
C842 C843 1.391 . S
C843 H831 0.950 . S
C843 C839 1.393 . S
C843 C842 1.391 . S
C844 H834 0.950 . S
C844 C845 1.386 . S
C844 C846 1.391 . S
C845 C844 1.386 . S
C845 C849 1.393 . S
C846 H835 0.950 . S
C846 C844 1.391 . S
C846 C847 1.400 . S
C847 C841 1.491 . S
C847 C846 1.400 . S
C847 C848 1.398 . S
C848 H836 0.950 . S
C848 C847 1.398 . S
C848 C849 1.391 . S
C849 H837 0.950 . S
C849 C845 1.393 . S
C849 C848 1.391 . S
H850 C858 0.950 . S
H851 C863 0.950 . S
H852 C860 0.950 . S
H853 C862 0.950 . S
H854 C864 0.950 . S
H855 C866 0.950 . S
H856 C868 0.950 . S
H857 C869 0.950 . S
C858 H850 0.950 . S
C858 C859 1.386 . S
C858 C860 1.391 . S
C859 C858 1.386 . S
C859 C863 1.393 . S
C860 H852 0.950 . S
C860 C858 1.391 . S
C860 C861 1.400 . S
C861 C860 1.400 . S
C861 C862 1.398 . S
C861 C867 1.491 . S
C862 H853 0.950 . S
C862 C861 1.398 . S
C862 C863 1.391 . S
C863 H851 0.950 . S
C863 C859 1.393 . S
C863 C862 1.391 . S
C864 H854 0.950 . S
C864 C865 1.386 . S
C864 C866 1.391 . S
C865 C864 1.386 . S
C865 C869 1.393 . S
C866 H855 0.950 . S
C866 C864 1.391 . S
C866 C867 1.400 . S
C867 C861 1.491 . S
C867 C866 1.400 . S
C867 C868 1.398 . S
C868 H856 0.950 . S
C868 C867 1.398 . S
C868 C869 1.391 . S
C869 H857 0.950 . S
C869 C865 1.393 . S
C869 C868 1.391 . S
H870 C878 0.950 . S
H871 C883 0.950 . S
H872 C880 0.950 . S
H873 C882 0.950 . S
H874 C884 0.950 . S
H875 C886 0.950 . S
H876 C888 0.950 . S
H877 C889 0.950 . S
C878 H870 0.950 . S
C878 C879 1.386 . S
C878 C880 1.391 . S
C879 C878 1.386 . S
C879 C883 1.393 . S
C880 H872 0.950 . S
C880 C878 1.391 . S
C880 C881 1.400 . S
C881 C880 1.400 . S
C881 C882 1.398 . S
C881 C887 1.491 . S
C882 H873 0.950 . S
C882 C881 1.398 . S
C882 C883 1.391 . S
C883 H871 0.950 . S
C883 C879 1.393 . S
C883 C882 1.391 . S
C884 H874 0.950 . S
C884 C885 1.386 . S
C884 C886 1.391 . S
C885 C884 1.386 . S
C885 C889 1.393 . S
C886 H875 0.950 . S
C886 C884 1.391 . S
C886 C887 1.400 . S
C887 C881 1.491 . S
C887 C886 1.400 . S
C887 C888 1.398 . S
C888 H876 0.950 . S
C888 C887 1.398 . S
C888 C889 1.391 . S
C889 H877 0.950 . S
C889 C885 1.393 . S
C889 C888 1.391 . S
H890 C898 0.950 . S
H891 C903 0.950 . S
H892 C900 0.974 . S
H893 C902 0.950 . S
H894 C904 0.950 . S
H895 C906 0.950 . S
H896 C908 0.950 . S
H897 C909 0.950 . S
C898 H890 0.950 . S
C898 C899 1.386 . S
C898 C900 1.366 1_554 S
C899 C898 1.386 . S
C899 C903 1.393 . S
C900 H892 0.974 . S
C900 C898 1.366 1_556 S
C900 C901 1.403 . S
C901 C900 1.403 . S
C901 C902 1.398 1_556 S
C901 C907 1.491 . S
C902 H893 0.950 . S
C902 C901 1.398 1_554 S
C902 C903 1.391 . S
C903 H891 0.950 . S
C903 C899 1.393 . S
C903 C902 1.391 . S
C904 H894 0.950 . S
C904 C905 1.386 . S
C904 C906 1.391 . S
C905 C904 1.386 . S
C905 C909 1.393 . S
C906 H895 0.950 . S
C906 C904 1.391 . S
C906 C907 1.400 . S
C907 C901 1.491 . S
C907 C906 1.400 . S
C907 C908 1.398 . S
C908 H896 0.950 . S
C908 C907 1.398 . S
C908 C909 1.391 . S
C909 H897 0.950 . S
C909 C905 1.393 . S
C909 C908 1.391 . S
H910 C918 0.950 . S
H911 C923 0.950 . S
H912 C920 0.950 . S
H913 C922 0.950 . S
H914 C924 0.950 . S
H915 C926 0.950 . S
H916 C928 0.950 . S
H917 C929 0.950 . S
C918 H910 0.950 . S
C918 C919 1.386 . S
C918 C920 1.391 . S
C919 C918 1.386 . S
C919 C923 1.393 . S
C920 H912 0.950 . S
C920 C918 1.391 . S
C920 C921 1.400 . S
C921 C920 1.400 . S
C921 C922 1.398 . S
C921 C927 1.491 . S
C922 H913 0.950 . S
C922 C921 1.398 . S
C922 C923 1.391 . S
C923 H911 0.950 . S
C923 C919 1.393 . S
C923 C922 1.391 . S
C924 H914 0.950 . S
C924 C925 1.386 . S
C924 C926 1.391 . S
C925 C924 1.386 . S
C925 C929 1.393 . S
C926 H915 0.950 . S
C926 C924 1.391 . S
C926 C927 1.400 . S
C927 C921 1.491 . S
C927 C926 1.400 . S
C927 C928 1.398 . S
C928 H916 0.950 . S
C928 C927 1.398 . S
C928 C929 1.391 . S
C929 H917 0.950 . S
C929 C925 1.393 . S
C929 C928 1.391 . S
C465 C447 1.647 . S
C459 C29 1.553 . S
C479 C115 1.524 . S
C485 C372 1.475 . S
C499 C153 1.577 . S
C505 C395 1.672 . S
C519 C239 1.405 . S
C525 C408 1.422 . S
C545 C411 1.535 . S
C539 C301 1.595 . S
C559 C339 1.709 . S
C565 C424 1.767 . S
C579 C91 1.467 . S
C585 C385 1.526 . S
C599 C177 1.565 . S
C605 C398 1.517 . S
C619 C215 1.406 . S
C625 C421 1.506 . S
C645 C434 1.942 . S
C639 C277 1.813 . S
C665 C437 1.510 . S
C659 C363 1.569 . S
C685 C382 1.556 . S
C679 C53 1.532 . S
C699 C35 1.539 . S
C705 C393 1.527 . S
C719 C109 1.382 . S
C725 C406 1.440 . S
C745 C416 1.422 . S
C739 C159 1.443 . S
C759 C233 1.559 . S
C765 C429 1.652 . S
C785 C445 1.496 . S
C779 C295 1.416 . S
C805 C377 1.297 . S
C799 C345 1.333 . S
C825 C442 1.371 . S
C819 C97 1.393 . S
C839 C171 1.418 . S
C845 C380 1.480 . S
C865 C390 1.518 . S
C859 C221 1.536 . S
C879 C283 1.375 . S
C885 C403 1.355 . S
C899 C357 1.393 . S
C905 C419 1.465 . S
C919 C47 1.575 . S
C925 C432 1.653 . S
