# Generated by pormake.
# Topology tbo, (3,4)-cn, num edge types: 1
# Building blocks:
#     Node 0, Type 0, BuildingBlock: WUSLED_clean_sbu_0, # of connection points: 3
#     Node 1, Type 0, BuildingBlock: WUSLED_clean_sbu_0, # of connection points: 3
#     Node 2, Type 0, BuildingBlock: WUSLED_clean_sbu_0, # of connection points: 3
#     Node 3, Type 0, BuildingBlock: WUSLED_clean_sbu_0, # of connection points: 3
#     Node 4, Type 0, BuildingBlock: WUSLED_clean_sbu_0, # of connection points: 3
#     Node 5, Type 0, BuildingBlock: WUSLED_clean_sbu_0, # of connection points: 3
#     Node 6, Type 0, BuildingBlock: WUSLED_clean_sbu_0, # of connection points: 3
#     Node 7, Type 0, BuildingBlock: WUSLED_clean_sbu_0, # of connection points: 3
#     Node 8, Type 0, BuildingBlock: WUSLED_clean_sbu_0, # of connection points: 3
#     Node 9, Type 0, BuildingBlock: WUSLED_clean_sbu_0, # of connection points: 3
#     Node 10, Type 0, BuildingBlock: WUSLED_clean_sbu_0, # of connection points: 3
#     Node 11, Type 0, BuildingBlock: WUSLED_clean_sbu_0, # of connection points: 3
#     Node 12, Type 0, BuildingBlock: WUSLED_clean_sbu_0, # of connection points: 3
#     Node 13, Type 0, BuildingBlock: WUSLED_clean_sbu_0, # of connection points: 3
#     Node 14, Type 0, BuildingBlock: WUSLED_clean_sbu_0, # of connection points: 3
#     Node 15, Type 0, BuildingBlock: WUSLED_clean_sbu_0, # of connection points: 3
#     Node 16, Type 0, BuildingBlock: WUSLED_clean_sbu_0, # of connection points: 3
#     Node 17, Type 0, BuildingBlock: WUSLED_clean_sbu_0, # of connection points: 3
#     Node 18, Type 0, BuildingBlock: WUSLED_clean_sbu_0, # of connection points: 3
#     Node 19, Type 0, BuildingBlock: WUSLED_clean_sbu_0, # of connection points: 3
#     Node 20, Type 0, BuildingBlock: WUSLED_clean_sbu_0, # of connection points: 3
#     Node 21, Type 0, BuildingBlock: WUSLED_clean_sbu_0, # of connection points: 3
#     Node 22, Type 0, BuildingBlock: WUSLED_clean_sbu_0, # of connection points: 3
#     Node 23, Type 0, BuildingBlock: WUSLED_clean_sbu_0, # of connection points: 3
#     Node 24, Type 0, BuildingBlock: WUSLED_clean_sbu_0, # of connection points: 3
#     Node 25, Type 0, BuildingBlock: WUSLED_clean_sbu_0, # of connection points: 3
#     Node 26, Type 0, BuildingBlock: WUSLED_clean_sbu_0, # of connection points: 3
#     Node 27, Type 0, BuildingBlock: WUSLED_clean_sbu_0, # of connection points: 3
#     Node 28, Type 0, BuildingBlock: WUSLED_clean_sbu_0, # of connection points: 3
#     Node 29, Type 0, BuildingBlock: WUSLED_clean_sbu_0, # of connection points: 3
#     Node 30, Type 0, BuildingBlock: WUSLED_clean_sbu_0, # of connection points: 3
#     Node 31, Type 0, BuildingBlock: WUSLED_clean_sbu_0, # of connection points: 3
#     Node 32, Type 1, BuildingBlock: MUDLON_clean_linker_0, # of connection points: 4
#     Node 33, Type 1, BuildingBlock: MUDLON_clean_linker_0, # of connection points: 4
#     Node 34, Type 1, BuildingBlock: MUDLON_clean_linker_0, # of connection points: 4
#     Node 35, Type 1, BuildingBlock: MUDLON_clean_linker_0, # of connection points: 4
#     Node 36, Type 1, BuildingBlock: MUDLON_clean_linker_0, # of connection points: 4
#     Node 37, Type 1, BuildingBlock: MUDLON_clean_linker_0, # of connection points: 4
#     Node 38, Type 1, BuildingBlock: MUDLON_clean_linker_0, # of connection points: 4
#     Node 39, Type 1, BuildingBlock: MUDLON_clean_linker_0, # of connection points: 4
#     Node 40, Type 1, BuildingBlock: MUDLON_clean_linker_0, # of connection points: 4
#     Node 41, Type 1, BuildingBlock: MUDLON_clean_linker_0, # of connection points: 4
#     Node 42, Type 1, BuildingBlock: MUDLON_clean_linker_0, # of connection points: 4
#     Node 43, Type 1, BuildingBlock: MUDLON_clean_linker_0, # of connection points: 4
#     Node 44, Type 1, BuildingBlock: MUDLON_clean_linker_0, # of connection points: 4
#     Node 45, Type 1, BuildingBlock: MUDLON_clean_linker_0, # of connection points: 4
#     Node 46, Type 1, BuildingBlock: MUDLON_clean_linker_0, # of connection points: 4
#     Node 47, Type 1, BuildingBlock: MUDLON_clean_linker_0, # of connection points: 4
#     Node 48, Type 1, BuildingBlock: MUDLON_clean_linker_0, # of connection points: 4
#     Node 49, Type 1, BuildingBlock: MUDLON_clean_linker_0, # of connection points: 4
#     Node 50, Type 1, BuildingBlock: MUDLON_clean_linker_0, # of connection points: 4
#     Node 51, Type 1, BuildingBlock: MUDLON_clean_linker_0, # of connection points: 4
#     Node 52, Type 1, BuildingBlock: MUDLON_clean_linker_0, # of connection points: 4
#     Node 53, Type 1, BuildingBlock: MUDLON_clean_linker_0, # of connection points: 4
#     Node 54, Type 1, BuildingBlock: MUDLON_clean_linker_0, # of connection points: 4
#     Node 55, Type 1, BuildingBlock: MUDLON_clean_linker_0, # of connection points: 4
#     Edge 56, Type (0, 1), None
#     Edge 57, Type (0, 1), None
#     Edge 58, Type (0, 1), None
#     Edge 59, Type (0, 1), None
#     Edge 60, Type (0, 1), None
#     Edge 61, Type (0, 1), None
#     Edge 62, Type (0, 1), None
#     Edge 63, Type (0, 1), None
#     Edge 64, Type (0, 1), None
#     Edge 65, Type (0, 1), None
#     Edge 66, Type (0, 1), None
#     Edge 67, Type (0, 1), None
#     Edge 68, Type (0, 1), None
#     Edge 69, Type (0, 1), None
#     Edge 70, Type (0, 1), None
#     Edge 71, Type (0, 1), None
#     Edge 72, Type (0, 1), None
#     Edge 73, Type (0, 1), None
#     Edge 74, Type (0, 1), None
#     Edge 75, Type (0, 1), None
#     Edge 76, Type (0, 1), None
#     Edge 77, Type (0, 1), None
#     Edge 78, Type (0, 1), None
#     Edge 79, Type (0, 1), None
#     Edge 80, Type (0, 1), None
#     Edge 81, Type (0, 1), None
#     Edge 82, Type (0, 1), None
#     Edge 83, Type (0, 1), None
#     Edge 84, Type (0, 1), None
#     Edge 85, Type (0, 1), None
#     Edge 86, Type (0, 1), None
#     Edge 87, Type (0, 1), None
#     Edge 88, Type (0, 1), None
#     Edge 89, Type (0, 1), None
#     Edge 90, Type (0, 1), None
#     Edge 91, Type (0, 1), None
#     Edge 92, Type (0, 1), None
#     Edge 93, Type (0, 1), None
#     Edge 94, Type (0, 1), None
#     Edge 95, Type (0, 1), None
#     Edge 96, Type (0, 1), None
#     Edge 97, Type (0, 1), None
#     Edge 98, Type (0, 1), None
#     Edge 99, Type (0, 1), None
#     Edge 100, Type (0, 1), None
#     Edge 101, Type (0, 1), None
#     Edge 102, Type (0, 1), None
#     Edge 103, Type (0, 1), None
#     Edge 104, Type (0, 1), None
#     Edge 105, Type (0, 1), None
#     Edge 106, Type (0, 1), None
#     Edge 107, Type (0, 1), None
#     Edge 108, Type (0, 1), None
#     Edge 109, Type (0, 1), None
#     Edge 110, Type (0, 1), None
#     Edge 111, Type (0, 1), None
#     Edge 112, Type (0, 1), None
#     Edge 113, Type (0, 1), None
#     Edge 114, Type (0, 1), None
#     Edge 115, Type (0, 1), None
#     Edge 116, Type (0, 1), None
#     Edge 117, Type (0, 1), None
#     Edge 118, Type (0, 1), None
#     Edge 119, Type (0, 1), None
#     Edge 120, Type (0, 1), None
#     Edge 121, Type (0, 1), None
#     Edge 122, Type (0, 1), None
#     Edge 123, Type (0, 1), None
#     Edge 124, Type (0, 1), None
#     Edge 125, Type (0, 1), None
#     Edge 126, Type (0, 1), None
#     Edge 127, Type (0, 1), None
#     Edge 128, Type (0, 1), None
#     Edge 129, Type (0, 1), None
#     Edge 130, Type (0, 1), None
#     Edge 131, Type (0, 1), None
#     Edge 132, Type (0, 1), None
#     Edge 133, Type (0, 1), None
#     Edge 134, Type (0, 1), None
#     Edge 135, Type (0, 1), None
#     Edge 136, Type (0, 1), None
#     Edge 137, Type (0, 1), None
#     Edge 138, Type (0, 1), None
#     Edge 139, Type (0, 1), None
#     Edge 140, Type (0, 1), None
#     Edge 141, Type (0, 1), None
#     Edge 142, Type (0, 1), None
#     Edge 143, Type (0, 1), None
#     Edge 144, Type (0, 1), None
#     Edge 145, Type (0, 1), None
#     Edge 146, Type (0, 1), None
#     Edge 147, Type (0, 1), None
#     Edge 148, Type (0, 1), None
#     Edge 149, Type (0, 1), None
#     Edge 150, Type (0, 1), None
#     Edge 151, Type (0, 1), None
# Relax obj value: 0.002
# Max RMSD: 0.051
# Mean RMSD: 0.023
data_MOF--net-tbo--node1-WUSLED_clean_sbu_0--node2-MUDLON_clean_linker_0--edge1-none
_symmetry_space_group_name_H-M    P1
_symmetry_Int_Tables_number       1
_symmetry_cell_setting            triclinic
loop_
_symmetry_equiv_pos_as_xyz
'x, y, z'
_cell_length_a     78.017025
_cell_length_b     78.31055
_cell_length_c     78.093076
_cell_angle_alpha  89.478806
_cell_angle_beta   90.456777
_cell_angle_gamma 91.092859
loop_
_atom_site_label
_atom_site_type_symbol
_atom_site_fract_x
_atom_site_fract_y
_atom_site_fract_z
_atom_type_partial_charge
C0 C 0.20492 0.14593 0.21454 0.0
C1 C 0.22245 0.14652 0.21065 0.0
C2 C 0.22663 0.11946 0.22578 0.0
C3 C 0.2332 0.13346 0.21626 0.0
C4 C 0.20894 0.11874 0.22922 0.0
C5 C 0.19822 0.13186 0.22368 0.0
U6 U 0.1937 0.18462 0.18651 0.0
O7 O 0.16851 0.19349 0.17735 0.0
O8 O 0.18464 0.20988 0.19378 0.0
C9 C 0.16971 0.20774 0.1861 0.0
C10 C 0.19365 0.16016 0.20979 0.0
C11 C 0.15446 0.21255 0.19594 0.0
C12 C 0.14061 0.21888 0.22291 0.0
C13 C 0.15446 0.21231 0.21393 0.0
C14 C 0.12624 0.22525 0.19609 0.0
C15 C 0.12646 0.22575 0.2141 0.0
C16 C 0.14011 0.21876 0.18713 0.0
C17 C 0.22307 0.19844 0.14967 0.0
C18 C 0.22455 0.22706 0.13738 0.0
C19 C 0.23752 0.20361 0.12256 0.0
C20 C 0.23216 0.1924 0.13562 0.0
C21 C 0.23394 0.22115 0.12334 0.0
C22 C 0.21911 0.21582 0.15035 0.0
C23 C 0.21829 0.1866 0.16373 0.0
O24 O 0.20009 0.17556 0.21244 0.0
O25 O 0.18555 0.15879 0.19503 0.0
O26 O 0.20412 0.17754 0.16141 0.0
O27 O 0.21974 0.19283 0.17926 0.0
H28 H 0.2279 0.15726 0.20359 0.0
H29 H 0.24676 0.13466 0.21357 0.0
H30 H 0.20336 0.10807 0.23628 0.0
H31 H 0.1847 0.13114 0.22674 0.0
H32 H 0.14137 0.21921 0.23676 0.0
H33 H 0.16537 0.20757 0.22106 0.0
H34 H 0.11546 0.23014 0.18887 0.0
H35 H 0.13983 0.21902 0.17325 0.0
H36 H 0.22176 0.24048 0.13862 0.0
H37 H 0.24447 0.19852 0.11186 0.0
H38 H 0.23527 0.179 0.13483 0.0
H39 H 0.21207 0.22078 0.16106 0.0
C40 C 0.80786 0.19878 0.15023 0.0
C41 C 0.82037 0.20838 0.14137 0.0
C42 C 0.79818 0.22167 0.12382 0.0
C43 C 0.81558 0.21965 0.12823 0.0
C44 C 0.78575 0.21182 0.13264 0.0
C45 C 0.79056 0.20049 0.14569 0.0
U46 U 0.83735 0.18613 0.18746 0.0
O47 O 0.83085 0.17758 0.21351 0.0
O48 O 0.8449 0.16062 0.19662 0.0
C49 C 0.83702 0.16225 0.21131 0.0
C50 C 0.81249 0.18743 0.16462 0.0
C51 C 0.8256 0.14795 0.21641 0.0
C52 C 0.7975 0.134 0.21672 0.0
C53 C 0.8085 0.14704 0.21075 0.0
C54 C 0.82076 0.12233 0.2336 0.0
C55 C 0.80344 0.12162 0.22843 0.0
C56 C 0.83171 0.1354 0.22766 0.0
C57 C 0.87727 0.21322 0.1979 0.0
C58 C 0.89271 0.21082 0.22495 0.0
C59 C 0.90347 0.22984 0.20271 0.0
C60 C 0.8897 0.225 0.1921 0.0
C61 C 0.90502 0.223 0.21937 0.0
C62 C 0.87898 0.20597 0.2143 0.0
C63 C 0.86219 0.20926 0.18709 0.0
O64 O 0.82632 0.17831 0.16265 0.0
O65 O 0.8115 0.19426 0.17988 0.0
O66 O 0.8473 0.21158 0.19438 0.0
O67 O 0.86273 0.19499 0.17839 0.0
H68 H 0.83381 0.20729 0.14471 0.0
H69 H 0.82553 0.22684 0.1216 0.0
H70 H 0.77223 0.21322 0.12984 0.0
H71 H 0.78072 0.19326 0.15246 0.0
H72 H 0.78421 0.13399 0.21262 0.0
H73 H 0.80355 0.15664 0.20203 0.0
H74 H 0.82584 0.11288 0.24238 0.0
H75 H 0.84491 0.13586 0.23209 0.0
H76 H 0.89333 0.20545 0.23776 0.0
H77 H 0.91282 0.23904 0.19789 0.0
H78 H 0.88861 0.2307 0.17945 0.0
H79 H 0.86948 0.19685 0.21901 0.0
C80 C 0.80897 0.83267 0.1507 0.0
C81 C 0.80911 0.81473 0.15132 0.0
C82 C 0.79457 0.81327 0.12353 0.0
C83 C 0.80194 0.80515 0.1379 0.0
C84 C 0.79506 0.83125 0.12272 0.0
C85 C 0.80213 0.84081 0.13619 0.0
U86 U 0.83963 0.84327 0.18836 0.0
O87 O 0.84831 0.86847 0.19792 0.0
O88 O 0.83356 0.85098 0.21454 0.0
C89 C 0.84044 0.86633 0.21262 0.0
C90 C 0.81479 0.84309 0.16542 0.0
C91 C 0.83008 0.88069 0.21853 0.0
C92 C 0.80257 0.89304 0.22525 0.0
C93 C 0.81208 0.88004 0.2179 0.0
C94 C 0.82889 0.90786 0.23328 0.0
C95 C 0.81085 0.90697 0.23333 0.0
C96 C 0.83838 0.89484 0.226 0.0
C97 C 0.87841 0.81564 0.19847 0.0
C98 C 0.89323 0.8156 0.22599 0.0
C99 C 0.90505 0.80033 0.20213 0.0
C100 C 0.89134 0.80554 0.19176 0.0
C101 C 0.90606 0.80508 0.21946 0.0
C102 C 0.87958 0.82086 0.21559 0.0
C103 C 0.86348 0.82003 0.18771 0.0
O104 O 0.81343 0.83587 0.18063 0.0
O105 O 0.82916 0.8519 0.16345 0.0
O106 O 0.86466 0.83457 0.17921 0.0
O107 O 0.84844 0.81753 0.19488 0.0
H108 H 0.81433 0.80811 0.16236 0.0
H109 H 0.80163 0.79137 0.13914 0.0
H110 H 0.78979 0.83797 0.11177 0.0
H111 H 0.80194 0.85463 0.13541 0.0
H112 H 0.78872 0.89179 0.22518 0.0
H113 H 0.80537 0.86926 0.21217 0.0
H114 H 0.83572 0.91852 0.2391 0.0
H115 H 0.85226 0.89562 0.22656 0.0
H116 H 0.89338 0.81933 0.23931 0.0
H117 H 0.91479 0.79247 0.19657 0.0
H118 H 0.8907 0.80145 0.17855 0.0
H119 H 0.86973 0.82869 0.22102 0.0
C120 C 0.15553 0.80946 0.19639 0.0
C121 C 0.15507 0.81432 0.21363 0.0
C122 C 0.12751 0.79947 0.21727 0.0
C123 C 0.14127 0.80931 0.22397 0.0
C124 C 0.12784 0.79504 0.19983 0.0
C125 C 0.14174 0.79996 0.18952 0.0
U126 U 0.19493 0.8373 0.18626 0.0
O127 O 0.22113 0.83003 0.17958 0.0
O128 O 0.20601 0.84547 0.1616 0.0
C129 C 0.22036 0.8373 0.16438 0.0
C130 C 0.17057 0.81367 0.1857 0.0
C131 C 0.22707 0.82727 0.15012 0.0
C132 C 0.22354 0.80758 0.12634 0.0
C133 C 0.21648 0.81689 0.13976 0.0
C134 C 0.25173 0.81891 0.13361 0.0
C135 C 0.24128 0.8085 0.12307 0.0
C136 C 0.24469 0.82819 0.14692 0.0
C137 C 0.20611 0.87547 0.2146 0.0
C138 C 0.23398 0.88986 0.21379 0.0
C139 C 0.21141 0.90111 0.23131 0.0
C140 C 0.20038 0.88786 0.22594 0.0
C141 C 0.22843 0.90218 0.22545 0.0
C142 C 0.22292 0.87666 0.2084 0.0
C143 C 0.19467 0.86109 0.20978 0.0
O144 O 0.16978 0.82792 0.17673 0.0
O145 O 0.18555 0.81156 0.19318 0.0
O146 O 0.20096 0.84583 0.21239 0.0
O147 O 0.18677 0.86258 0.19493 0.0
H148 H 0.16558 0.82168 0.21921 0.0
H149 H 0.14169 0.81275 0.23736 0.0
H150 H 0.11741 0.7877 0.19414 0.0
H151 H 0.14182 0.79616 0.17622 0.0
H152 H 0.21509 0.79976 0.11846 0.0
H153 H 0.20282 0.81598 0.14206 0.0
H154 H 0.26548 0.81965 0.13182 0.0
H155 H 0.25309 0.83604 0.15483 0.0
H156 H 0.24704 0.89009 0.2092 0.0
H157 H 0.20661 0.91047 0.24009 0.0
H158 H 0.18741 0.88717 0.2308 0.0
H159 H 0.22758 0.86719 0.19963 0.0
C160 C 0.15562 0.8009 0.83447 0.0
C161 C 0.14534 0.81162 0.82438 0.0
C162 C 0.1273 0.78718 0.81605 0.0
C163 C 0.13127 0.80481 0.81524 0.0
C164 C 0.13777 0.77659 0.82616 0.0
C165 C 0.15172 0.7834 0.83528 0.0
U166 U 0.19328 0.8326 0.84343 0.0
O167 O 0.20371 0.84101 0.86829 0.0
O168 O 0.21971 0.82643 0.85092 0.0
C169 C 0.21819 0.83297 0.86625 0.0
C170 C 0.1706 0.80738 0.84418 0.0
C171 C 0.22347 0.82175 0.88049 0.0
C172 C 0.21756 0.7986 0.90069 0.0
C173 C 0.21204 0.80969 0.88769 0.0
C174 C 0.24597 0.81156 0.89943 0.0
C175 C 0.23466 0.7993 0.90665 0.0
C176 C 0.24041 0.82267 0.88651 0.0
C177 C 0.20294 0.87155 0.81515 0.0
C178 C 0.23056 0.88647 0.81529 0.0
C179 C 0.20681 0.89803 0.79904 0.0
C180 C 0.19634 0.88434 0.80446 0.0
C181 C 0.22415 0.89915 0.80416 0.0
C182 C 0.22004 0.87284 0.82076 0.0
C183 C 0.1921 0.85662 0.81977 0.0
O184 O 0.1854 0.80646 0.83638 0.0
O185 O 0.16876 0.82171 0.85258 0.0
O186 O 0.18395 0.85755 0.83439 0.0
O187 O 0.19911 0.8417 0.8174 0.0
H188 H 0.1482 0.82519 0.82355 0.0
H189 H 0.12346 0.81334 0.80765 0.0
H190 H 0.13543 0.76293 0.82679 0.0
H191 H 0.15958 0.77491 0.84289 0.0
H192 H 0.20845 0.78945 0.90604 0.0
H193 H 0.1989 0.80874 0.88314 0.0
H194 H 0.25929 0.81228 0.90341 0.0
H195 H 0.24945 0.8318 0.881 0.0
H196 H 0.24387 0.88674 0.81933 0.0
H197 H 0.20135 0.90767 0.79072 0.0
H198 H 0.18313 0.88361 0.80008 0.0
H199 H 0.22537 0.86309 0.82905 0.0
C200 C 0.15331 0.19478 0.81535 0.0
C201 C 0.15363 0.2123 0.81897 0.0
C202 C 0.12621 0.21579 0.80415 0.0
C203 C 0.14028 0.2227 0.81337 0.0
C204 C 0.12575 0.1981 0.80101 0.0
C205 C 0.13918 0.18773 0.80653 0.0
U206 U 0.1925 0.18451 0.8432 0.0
O207 O 0.20223 0.15974 0.85217 0.0
O208 O 0.2181 0.17623 0.83557 0.0
C209 C 0.21641 0.1613 0.84324 0.0
C210 C 0.16789 0.18391 0.82001 0.0
C211 C 0.22109 0.14651 0.83285 0.0
C212 C 0.21455 0.12533 0.81103 0.0
C213 C 0.20943 0.13885 0.82135 0.0
C214 C 0.24295 0.12695 0.82372 0.0
C215 C 0.23145 0.11928 0.81197 0.0
C216 C 0.2378 0.14038 0.83404 0.0
C217 C 0.20502 0.2147 0.88002 0.0
C218 C 0.22788 0.20945 0.90067 0.0
C219 C 0.2152 0.23739 0.89878 0.0
C220 C 0.2042 0.23155 0.88578 0.0
C221 C 0.22727 0.22646 0.90636 0.0
C222 C 0.21689 0.20363 0.88759 0.0
C223 C 0.19369 0.20916 0.86585 0.0
O224 O 0.18318 0.19072 0.81732 0.0
O225 O 0.16677 0.17572 0.83474 0.0
O226 O 0.18511 0.19472 0.8682 0.0
O227 O 0.20026 0.21065 0.85046 0.0
H228 H 0.16441 0.21803 0.82579 0.0
H229 H 0.14129 0.23627 0.81583 0.0
H230 H 0.11505 0.19226 0.79419 0.0
H231 H 0.13866 0.17421 0.80368 0.0
H232 H 0.2053 0.11966 0.80226 0.0
H233 H 0.19646 0.14345 0.82021 0.0
H234 H 0.25614 0.12294 0.82461 0.0
H235 H 0.24702 0.14622 0.84276 0.0
H236 H 0.23688 0.20061 0.90629 0.0
H237 H 0.21454 0.25064 0.90253 0.0
H238 H 0.19519 0.24031 0.88002 0.0
H239 H 0.21774 0.19056 0.88329 0.0
C240 C 0.81064 0.1494 0.83141 0.0
C241 C 0.82247 0.14231 0.82018 0.0
C242 C 0.80044 0.12252 0.80938 0.0
C243 C 0.81744 0.12896 0.8093 0.0
C244 C 0.78873 0.12963 0.82081 0.0
C245 C 0.79379 0.1429 0.8317 0.0
U246 U 0.83993 0.18733 0.84352 0.0
O247 O 0.83319 0.21318 0.85141 0.0
O248 O 0.84771 0.1968 0.86899 0.0
C249 C 0.83967 0.21128 0.86689 0.0
C250 C 0.81537 0.16392 0.84245 0.0
C251 C 0.82857 0.21641 0.88106 0.0
C252 C 0.80064 0.2174 0.89458 0.0
C253 C 0.81123 0.21135 0.88166 0.0
C254 C 0.82472 0.23321 0.90673 0.0
C255 C 0.80719 0.22861 0.90716 0.0
C256 C 0.83527 0.22718 0.89379 0.0
C257 C 0.87942 0.19826 0.81635 0.0
C258 C 0.89406 0.22594 0.81619 0.0
C259 C 0.90608 0.20233 0.80081 0.0
C260 C 0.89243 0.19177 0.80615 0.0
C261 C 0.90694 0.21964 0.80551 0.0
C262 C 0.88046 0.21534 0.82158 0.0
C263 C 0.86445 0.18733 0.82063 0.0
O264 O 0.8294 0.16231 0.85171 0.0
O265 O 0.81408 0.17907 0.83523 0.0
O266 O 0.84944 0.19427 0.81796 0.0
O267 O 0.86533 0.17883 0.83519 0.0
H268 H 0.83555 0.14721 0.81973 0.0
H269 H 0.82685 0.12372 0.8008 0.0
H270 H 0.77547 0.12529 0.82103 0.0
H271 H 0.78445 0.1483 0.84019 0.0
H272 H 0.78718 0.21375 0.89435 0.0
H273 H 0.80581 0.20302 0.87194 0.0
H274 H 0.83027 0.24158 0.91633 0.0
H275 H 0.84864 0.23117 0.89357 0.0
H276 H 0.89413 0.23923 0.81989 0.0
H277 H 0.91588 0.19695 0.79284 0.0
H278 H 0.89188 0.17859 0.80205 0.0
H279 H 0.87052 0.2206 0.82947 0.0
C280 C 0.83038 0.87713 0.81333 0.0
C281 C 0.81363 0.87821 0.81958 0.0
C282 C 0.80891 0.90379 0.80219 0.0
C283 C 0.80299 0.89139 0.81405 0.0
C284 C 0.82589 0.90286 0.79635 0.0
C285 C 0.8365 0.88964 0.80185 0.0
U286 U 0.84104 0.83853 0.84167 0.0
O287 O 0.84938 0.81295 0.83427 0.0
O288 O 0.86597 0.82901 0.85055 0.0
C289 C 0.86446 0.81485 0.84169 0.0
C290 C 0.84132 0.86266 0.81804 0.0
C291 C 0.87925 0.81035 0.8311 0.0
C292 C 0.90221 0.81806 0.81143 0.0
C293 C 0.8886 0.82279 0.82187 0.0
C294 C 0.89731 0.78842 0.81938 0.0
C295 C 0.90664 0.80077 0.8099 0.0
C296 C 0.88379 0.79318 0.82987 0.0
C297 C 0.81175 0.82638 0.8792 0.0
C298 C 0.81276 0.79905 0.89414 0.0
C299 C 0.79402 0.82107 0.90422 0.0
C300 C 0.79967 0.83193 0.89101 0.0
C301 C 0.80034 0.8044 0.90585 0.0
C302 C 0.81842 0.80995 0.88096 0.0
C303 C 0.81675 0.83764 0.86481 0.0
O304 O 0.84974 0.864 0.83263 0.0
O305 O 0.83432 0.84744 0.81576 0.0
O306 O 0.81498 0.83096 0.84951 0.0
O307 O 0.83122 0.8463 0.86676 0.0
H308 H 0.80867 0.86864 0.82845 0.0
H309 H 0.78994 0.89152 0.81866 0.0
H310 H 0.83098 0.91229 0.78743 0.0
H311 H 0.84942 0.88904 0.79693 0.0
H312 H 0.9092 0.82795 0.8045 0.0
H313 H 0.88529 0.83614 0.8226 0.0
H314 H 0.90008 0.77497 0.81832 0.0
H315 H 0.87667 0.78337 0.83683 0.0
H316 H 0.81774 0.78625 0.89484 0.0
H317 H 0.78465 0.82571 0.91312 0.0
H318 H 0.79443 0.84461 0.88988 0.0
H319 H 0.82776 0.80544 0.87194 0.0
C320 C 0.19871 0.647 0.71661 0.0
C321 C 0.21029 0.64054 0.70474 0.0
C322 C 0.22054 0.61999 0.72603 0.0
C323 C 0.22107 0.62712 0.70939 0.0
C324 C 0.20871 0.62645 0.73774 0.0
C325 C 0.19793 0.63979 0.73306 0.0
U326 U 0.18719 0.68598 0.68897 0.0
O327 O 0.16195 0.69595 0.68166 0.0
O328 O 0.1797 0.71161 0.69714 0.0
C329 C 0.16421 0.71002 0.69055 0.0
C330 C 0.1879 0.66171 0.71242 0.0
C331 C 0.15009 0.71479 0.70191 0.0
C332 C 0.12719 0.70749 0.72183 0.0
C333 C 0.14036 0.70248 0.71095 0.0
C334 C 0.13339 0.73713 0.71479 0.0
C335 C 0.12358 0.72491 0.72396 0.0
C336 C 0.14645 0.73211 0.70388 0.0
C337 C 0.21454 0.69823 0.65 0.0
C338 C 0.21455 0.7262 0.63623 0.0
C339 C 0.23054 0.70325 0.6238 0.0
C340 C 0.2251 0.69228 0.63699 0.0
C341 C 0.22558 0.72045 0.62339 0.0
C342 C 0.20906 0.71519 0.6494 0.0
C343 C 0.2101 0.68683 0.66448 0.0
O344 O 0.19535 0.67676 0.71439 0.0
O345 O 0.17867 0.6606 0.6983 0.0
O346 O 0.19541 0.67841 0.66321 0.0
O347 O 0.21285 0.69324 0.67977 0.0
H348 H 0.21112 0.646 0.69197 0.0
H349 H 0.22988 0.62239 0.69998 0.0
H350 H 0.20813 0.62158 0.75075 0.0
H351 H 0.18917 0.6447 0.74243 0.0
H352 H 0.11983 0.6977 0.72853 0.0
H353 H 0.14298 0.68902 0.70966 0.0
H354 H 0.13128 0.75065 0.71633 0.0
H355 H 0.15388 0.74181 0.6971 0.0
H356 H 0.21062 0.73939 0.63647 0.0
H357 H 0.23879 0.6983 0.61401 0.0
H358 H 0.22939 0.6792 0.63721 0.0
H359 H 0.20089 0.72002 0.65933 0.0
C360 C 0.81189 0.69776 0.65413 0.0
C361 C 0.81929 0.71409 0.65194 0.0
C362 C 0.80161 0.71889 0.6265 0.0
C363 C 0.81417 0.72456 0.6383 0.0
C364 C 0.7945 0.70233 0.62858 0.0
C365 C 0.79959 0.69188 0.64229 0.0
U366 U 0.841 0.68967 0.69226 0.0
O367 O 0.83504 0.68247 0.71888 0.0
O368 O 0.85112 0.66595 0.70341 0.0
C369 C 0.84308 0.66791 0.71798 0.0
C370 C 0.8166 0.68711 0.66901 0.0
C371 C 0.8337 0.65288 0.72487 0.0
C372 C 0.81422 0.62844 0.72165 0.0
C373 C 0.82319 0.64244 0.7145 0.0
C374 C 0.82615 0.63526 0.74954 0.0
C375 C 0.81555 0.62469 0.73931 0.0
C376 C 0.83512 0.64915 0.74238 0.0
C377 C 0.87767 0.72266 0.69955 0.0
C378 C 0.90132 0.72015 0.71987 0.0
C379 C 0.89525 0.74754 0.70675 0.0
C380 C 0.88163 0.74008 0.69761 0.0
C381 C 0.90529 0.7377 0.71802 0.0
C382 C 0.88759 0.71269 0.71074 0.0
C383 C 0.86298 0.71542 0.68994 0.0
O384 O 0.83126 0.67922 0.66785 0.0
O385 O 0.8145 0.69433 0.68396 0.0
O386 O 0.84803 0.7165 0.69741 0.0
O387 O 0.86527 0.70062 0.68255 0.0
H388 H 0.8288 0.71886 0.66097 0.0
H389 H 0.81974 0.7373 0.63733 0.0
H390 H 0.78497 0.69745 0.61964 0.0
H391 H 0.79379 0.67928 0.64376 0.0
H392 H 0.80628 0.62054 0.71335 0.0
H393 H 0.82188 0.64515 0.70093 0.0
H394 H 0.82723 0.63309 0.76321 0.0
H395 H 0.84307 0.65713 0.75062 0.0
H396 H 0.90883 0.71215 0.72833 0.0
H397 H 0.89762 0.76114 0.70525 0.0
H398 H 0.87405 0.748 0.68912 0.0
H399 H 0.88469 0.6992 0.71245 0.0
C400 C 0.81319 0.33027 0.65459 0.0
C401 C 0.82414 0.32178 0.64343 0.0
C402 C 0.79952 0.31184 0.62645 0.0
C403 C 0.81736 0.31263 0.62947 0.0
C404 C 0.7887 0.32025 0.63784 0.0
C405 C 0.79547 0.32938 0.65168 0.0
U406 U 0.84407 0.33967 0.69264 0.0
O407 O 0.85341 0.36453 0.70224 0.0
O408 O 0.83729 0.34799 0.71853 0.0
C409 C 0.84464 0.3631 0.71652 0.0
C410 C 0.81963 0.34028 0.66929 0.0
C411 C 0.83394 0.37772 0.72104 0.0
C412 C 0.81459 0.40058 0.71318 0.0
C413 C 0.82525 0.38723 0.70848 0.0
C414 C 0.82116 0.39507 0.74305 0.0
C415 C 0.81226 0.40459 0.73056 0.0
C416 C 0.83189 0.38182 0.73832 0.0
C417 C 0.88132 0.31016 0.70382 0.0
C418 C 0.90222 0.31607 0.72636 0.0
C419 C 0.90034 0.2879 0.71387 0.0
C420 C 0.88718 0.29339 0.70299 0.0
C421 C 0.90795 0.29912 0.72583 0.0
C422 C 0.88899 0.32152 0.7155 0.0
C423 C 0.86679 0.3153 0.69288 0.0
O424 O 0.81776 0.333 0.6844 0.0
O425 O 0.83446 0.34836 0.6675 0.0
O426 O 0.86879 0.32968 0.68423 0.0
O427 O 0.85161 0.31365 0.69994 0.0
H428 H 0.83789 0.32225 0.64547 0.0
H429 H 0.82607 0.30636 0.62095 0.0
H430 H 0.7749 0.31959 0.63625 0.0
H431 H 0.78679 0.33574 0.66019 0.0
H432 H 0.80813 0.40771 0.70319 0.0
H433 H 0.82656 0.38424 0.69504 0.0
H434 H 0.81948 0.39749 0.75656 0.0
H435 H 0.83838 0.37456 0.74822 0.0
H436 H 0.90789 0.32513 0.73526 0.0
H437 H 0.90415 0.2747 0.71326 0.0
H438 H 0.88133 0.28441 0.69411 0.0
H439 H 0.88461 0.33453 0.71636 0.0
C440 C 0.15324 0.30369 0.70012 0.0
C441 C 0.14551 0.31549 0.71091 0.0
C442 C 0.12672 0.293 0.7225 0.0
C443 C 0.13233 0.31021 0.72195 0.0
C444 C 0.13442 0.28131 0.71147 0.0
C445 C 0.14752 0.28663 0.7004 0.0
U446 U 0.1913 0.3332 0.68952 0.0
O447 O 0.21735 0.32673 0.68144 0.0
O448 O 0.2012 0.34247 0.66474 0.0
C449 C 0.21548 0.3339 0.66628 0.0
C450 C 0.1678 0.30872 0.68915 0.0
C451 C 0.21999 0.32309 0.65167 0.0
C452 C 0.21207 0.30272 0.6295 0.0
C453 C 0.20742 0.31361 0.64274 0.0
C454 C 0.24191 0.31072 0.63387 0.0
C455 C 0.22941 0.30094 0.62503 0.0
C456 C 0.23723 0.32168 0.64703 0.0
C457 C 0.20031 0.37073 0.72069 0.0
C458 C 0.21942 0.39542 0.71695 0.0
C459 C 0.20829 0.38831 0.74504 0.0
C460 C 0.19934 0.37435 0.73817 0.0
C461 C 0.21842 0.3991 0.73455 0.0
C462 C 0.21043 0.38133 0.71007 0.0
C463 C 0.19058 0.35584 0.71413 0.0
O464 O 0.1663 0.32313 0.68053 0.0
O465 O 0.18299 0.30699 0.69625 0.0
O466 O 0.19812 0.34104 0.71573 0.0
O467 O 0.18252 0.35775 0.6994 0.0
H468 H 0.14982 0.32872 0.71096 0.0
H469 H 0.1266 0.3196 0.7301 0.0
H470 H 0.13072 0.26792 0.71173 0.0
H471 H 0.15344 0.27731 0.69227 0.0
H472 H 0.20206 0.2956 0.62286 0.0
H473 H 0.19403 0.31444 0.64614 0.0
H474 H 0.25539 0.30951 0.63102 0.0
H475 H 0.24713 0.32881 0.65384 0.0
H476 H 0.22703 0.40347 0.70848 0.0
H477 H 0.20752 0.39043 0.75869 0.0
H478 H 0.19168 0.36626 0.74659 0.0
H479 H 0.21138 0.37873 0.69651 0.0
C480 C 0.15223 0.30152 0.32814 0.0
C481 C 0.15355 0.30501 0.31054 0.0
C482 C 0.12567 0.29127 0.30535 0.0
C483 C 0.14049 0.29985 0.29927 0.0
C484 C 0.12423 0.2882 0.32309 0.0
C485 C 0.13741 0.29323 0.33435 0.0
U486 U 0.18981 0.33044 0.34157 0.0
O487 O 0.19912 0.33807 0.36712 0.0
O488 O 0.21581 0.32383 0.3501 0.0
C489 C 0.21374 0.33019 0.36544 0.0
C490 C 0.1664 0.30596 0.34001 0.0
C491 C 0.21892 0.31903 0.37976 0.0
C492 C 0.21308 0.29599 0.40011 0.0
C493 C 0.20755 0.3069 0.38694 0.0
C494 C 0.24135 0.30927 0.39904 0.0
C495 C 0.23011 0.29695 0.40625 0.0
C496 C 0.23579 0.32019 0.38597 0.0
C497 C 0.20088 0.37002 0.31435 0.0
C498 C 0.22895 0.38393 0.31276 0.0
C499 C 0.20397 0.39847 0.30185 0.0
C500 C 0.19363 0.38442 0.3066 0.0
C501 C 0.22181 0.39834 0.30469 0.0
C502 C 0.21859 0.36996 0.31762 0.0
C503 C 0.18993 0.35499 0.31842 0.0
O504 O 0.1819 0.30461 0.33374 0.0
O505 O 0.1645 0.31986 0.34907 0.0
O506 O 0.1812 0.35573 0.33271 0.0
O507 O 0.1969 0.34005 0.31604 0.0
H508 H 0.16484 0.31144 0.30543 0.0
H509 H 0.14227 0.3022 0.28571 0.0
H510 H 0.11294 0.28188 0.3283 0.0
H511 H 0.13611 0.2905 0.34791 0.0
H512 H 0.20403 0.28678 0.40544 0.0
H513 H 0.19447 0.30578 0.38227 0.0
H514 H 0.25462 0.3102 0.40315 0.0
H515 H 0.24478 0.32939 0.38049 0.0
H516 H 0.24264 0.38318 0.31494 0.0
H517 H 0.19796 0.40941 0.29592 0.0
H518 H 0.17997 0.38474 0.30405 0.0
H519 H 0.22448 0.35899 0.32364 0.0
C520 C 0.14967 0.69969 0.31002 0.0
C521 C 0.14235 0.71133 0.32127 0.0
C522 C 0.12398 0.72206 0.29824 0.0
C523 C 0.12958 0.72237 0.31544 0.0
C524 C 0.13132 0.71021 0.28712 0.0
C525 C 0.144 0.69916 0.29297 0.0
U526 U 0.18683 0.68814 0.34017 0.0
O527 O 0.19502 0.66303 0.34977 0.0
O528 O 0.2124 0.67871 0.33393 0.0
C529 C 0.20965 0.66388 0.34153 0.0
C530 C 0.16362 0.68843 0.31559 0.0
C531 C 0.21402 0.64883 0.33137 0.0
C532 C 0.20713 0.6277 0.30961 0.0
C533 C 0.20232 0.6415 0.31971 0.0
C534 C 0.23531 0.62839 0.32283 0.0
C535 C 0.22377 0.62107 0.31091 0.0
C536 C 0.23047 0.6421 0.33294 0.0
C537 C 0.19866 0.71796 0.37745 0.0
C538 C 0.22047 0.71197 0.39899 0.0
C539 C 0.20882 0.74034 0.39655 0.0
C540 C 0.19817 0.73485 0.38313 0.0
C541 C 0.2202 0.72901 0.40463 0.0
C542 C 0.20983 0.7065 0.38549 0.0
C543 C 0.18784 0.71283 0.36275 0.0
O544 O 0.17918 0.69487 0.31381 0.0
O545 O 0.16142 0.68029 0.33023 0.0
O546 O 0.17854 0.69877 0.3647 0.0
O547 O 0.19526 0.71397 0.34774 0.0
H548 H 0.14661 0.71198 0.33449 0.0
H549 H 0.12413 0.73118 0.32442 0.0
H550 H 0.12763 0.70979 0.27373 0.0
H551 H 0.14959 0.69035 0.28407 0.0
H552 H 0.19783 0.62231 0.30071 0.0
H553 H 0.18955 0.64656 0.31827 0.0
H554 H 0.24832 0.6239 0.32399 0.0
H555 H 0.23971 0.64767 0.3418 0.0
H556 H 0.22894 0.70285 0.40499 0.0
H557 H 0.20847 0.75362 0.40025 0.0
H558 H 0.18973 0.74391 0.37699 0.0
H559 H 0.21042 0.6934 0.38123 0.0
C560 C 0.81599 0.65047 0.32937 0.0
C561 C 0.82761 0.64422 0.31742 0.0
C562 C 0.80616 0.62338 0.30746 0.0
C563 C 0.82276 0.63076 0.30661 0.0
C564 C 0.7947 0.6296 0.31967 0.0
C565 C 0.79959 0.64298 0.3305 0.0
U566 U 0.84367 0.68995 0.33995 0.0
O567 O 0.83574 0.71537 0.34825 0.0
O568 O 0.85228 0.69998 0.3649 0.0
C569 C 0.84317 0.71388 0.36333 0.0
C570 C 0.82043 0.66521 0.34022 0.0
C571 C 0.83243 0.7182 0.37805 0.0
C572 C 0.81061 0.71081 0.39909 0.0
C573 C 0.82119 0.70614 0.38555 0.0
C574 C 0.82247 0.73959 0.3978 0.0
C575 C 0.81101 0.72766 0.40532 0.0
C576 C 0.83305 0.73489 0.38434 0.0
C577 C 0.88093 0.70272 0.31028 0.0
C578 C 0.90124 0.72596 0.31596 0.0
C579 C 0.89984 0.71327 0.2878 0.0
C580 C 0.8869 0.70201 0.29344 0.0
C581 C 0.90711 0.7255 0.29894 0.0
C582 C 0.88823 0.71471 0.32156 0.0
C583 C 0.86672 0.69124 0.31557 0.0
O584 O 0.83503 0.66442 0.3487 0.0
O585 O 0.81789 0.68023 0.33312 0.0
O586 O 0.85132 0.69757 0.31388 0.0
O587 O 0.86887 0.68282 0.33006 0.0
H588 H 0.84034 0.64989 0.31633 0.0
H589 H 0.83199 0.62621 0.29751 0.0
H590 H 0.78173 0.6245 0.32051 0.0
H591 H 0.79041 0.64773 0.33956 0.0
H592 H 0.80209 0.70123 0.40464 0.0
H593 H 0.82049 0.69317 0.38083 0.0
H594 H 0.82293 0.75275 0.40196 0.0
H595 H 0.84156 0.74441 0.37863 0.0
H596 H 0.90665 0.73506 0.32496 0.0
H597 H 0.90376 0.71271 0.27456 0.0
H598 H 0.88134 0.6929 0.28452 0.0
H599 H 0.88376 0.71547 0.33463 0.0
C600 C 0.83832 0.37508 0.31054 0.0
C601 C 0.82113 0.37565 0.31559 0.0
C602 C 0.81754 0.4026 0.30009 0.0
C603 C 0.81083 0.3892 0.31036 0.0
C604 C 0.83491 0.4021 0.29536 0.0
C605 C 0.84517 0.38846 0.30052 0.0
U606 U 0.84826 0.33702 0.33959 0.0
O607 O 0.85558 0.31092 0.33326 0.0
O608 O 0.87303 0.327 0.34866 0.0
C609 C 0.87068 0.31239 0.34074 0.0
C610 C 0.84905 0.36045 0.31529 0.0
C611 C 0.88528 0.30598 0.33099 0.0
C612 C 0.89993 0.30127 0.30408 0.0
C613 C 0.88711 0.3093 0.31338 0.0
C614 C 0.90963 0.28713 0.33001 0.0
C615 C 0.91108 0.28975 0.31223 0.0
C616 C 0.89686 0.29515 0.33927 0.0
C617 C 0.8189 0.32689 0.37758 0.0
C618 C 0.82463 0.30444 0.39845 0.0
C619 C 0.7967 0.31739 0.39733 0.0
C620 C 0.80223 0.32806 0.38393 0.0
C621 C 0.80777 0.30532 0.4047 0.0
C622 C 0.83013 0.31508 0.38498 0.0
C623 C 0.8241 0.33762 0.36284 0.0
O624 O 0.85774 0.36191 0.32971 0.0
O625 O 0.84173 0.34531 0.31343 0.0
O626 O 0.82199 0.3305 0.34778 0.0
O627 O 0.83881 0.34595 0.36438 0.0
H628 H 0.81557 0.36546 0.32335 0.0
H629 H 0.79748 0.38892 0.31404 0.0
H630 H 0.8406 0.41226 0.28767 0.0
H631 H 0.85845 0.38829 0.29656 0.0
H632 H 0.90061 0.30348 0.29039 0.0
H633 H 0.87828 0.31762 0.30675 0.0
H634 H 0.91816 0.27856 0.33673 0.0
H635 H 0.89569 0.29246 0.35285 0.0
H636 H 0.83358 0.29546 0.40391 0.0
H637 H 0.78355 0.31826 0.40154 0.0
H638 H 0.79335 0.33702 0.37829 0.0
H639 H 0.84306 0.31397 0.38021 0.0
C640 C 0.70192 0.14883 0.71725 0.0
C641 C 0.71917 0.14819 0.71238 0.0
C642 C 0.72276 0.12189 0.72895 0.0
C643 C 0.72949 0.13488 0.7182 0.0
C644 C 0.70531 0.12237 0.73336 0.0
C645 C 0.69502 0.13573 0.72758 0.0
U646 U 0.69214 0.18765 0.68885 0.0
O647 O 0.66743 0.19744 0.67962 0.0
O648 O 0.68393 0.21328 0.69622 0.0
C649 C 0.66894 0.21155 0.68857 0.0
C650 C 0.69122 0.16342 0.71235 0.0
C651 C 0.65406 0.2162 0.69897 0.0
C652 C 0.63046 0.20875 0.71798 0.0
C653 C 0.64416 0.20384 0.70774 0.0
C654 C 0.63642 0.2384 0.71079 0.0
C655 C 0.62647 0.22613 0.71975 0.0
C656 C 0.65002 0.23347 0.7005 0.0
C657 C 0.7227 0.19958 0.65193 0.0
C658 C 0.71699 0.21778 0.62717 0.0
C659 C 0.74625 0.21295 0.63625 0.0
C660 C 0.74031 0.20245 0.64959 0.0
C661 C 0.73469 0.22078 0.62483 0.0
C662 C 0.71105 0.20733 0.64062 0.0
C663 C 0.71695 0.18852 0.66627 0.0
O664 O 0.69827 0.17859 0.71484 0.0
O665 O 0.68307 0.1622 0.6976 0.0
O666 O 0.70249 0.17987 0.66404 0.0
O667 O 0.71846 0.19521 0.68159 0.0
H668 H 0.72474 0.1582 0.7044 0.0
H669 H 0.7429 0.13511 0.71472 0.0
H670 H 0.69961 0.11249 0.74138 0.0
H671 H 0.68171 0.13597 0.73142 0.0
H672 H 0.62301 0.19892 0.72454 0.0
H673 H 0.6471 0.19042 0.7068 0.0
H674 H 0.63402 0.2519 0.71207 0.0
H675 H 0.65758 0.24322 0.69393 0.0
H676 H 0.7077 0.22345 0.61857 0.0
H677 H 0.75994 0.21521 0.63513 0.0
H678 H 0.74952 0.19666 0.65821 0.0
H679 H 0.69737 0.20534 0.64218 0.0
C680 C 0.30636 0.19 0.65474 0.0
C681 C 0.31658 0.20022 0.64386 0.0
C682 C 0.29132 0.20781 0.62694 0.0
C683 C 0.30913 0.20902 0.63005 0.0
C684 C 0.28123 0.19752 0.63797 0.0
C685 C 0.28868 0.1887 0.65165 0.0
U686 U 0.33966 0.18391 0.6909 0.0
O687 O 0.33532 0.17669 0.71779 0.0
O688 O 0.3501 0.15996 0.70135 0.0
C689 C 0.34244 0.16172 0.71614 0.0
C690 C 0.3136 0.18078 0.66957 0.0
C691 C 0.33181 0.14703 0.72187 0.0
C692 C 0.30438 0.13177 0.72247 0.0
C693 C 0.31473 0.14522 0.71632 0.0
C694 C 0.32821 0.12141 0.73942 0.0
C695 C 0.31093 0.11973 0.73421 0.0
C696 C 0.33853 0.13495 0.73331 0.0
C697 C 0.37669 0.21704 0.696 0.0
C698 C 0.40106 0.21512 0.71553 0.0
C699 C 0.39458 0.24208 0.70174 0.0
C700 C 0.38063 0.23437 0.69335 0.0
C701 C 0.405 0.2326 0.71298 0.0
C702 C 0.38699 0.2074 0.70713 0.0
C703 C 0.36152 0.20962 0.68729 0.0
O704 O 0.32836 0.17332 0.66727 0.0
O705 O 0.31268 0.18866 0.68429 0.0
O706 O 0.34701 0.21073 0.69559 0.0
O707 O 0.36341 0.19476 0.67987 0.0
H708 H 0.33027 0.20144 0.64608 0.0
H709 H 0.31732 0.21673 0.6218 0.0
H710 H 0.26746 0.19656 0.63629 0.0
H711 H 0.28057 0.18098 0.65998 0.0
H712 H 0.2911 0.13114 0.71837 0.0
H713 H 0.30929 0.15442 0.70746 0.0
H714 H 0.33377 0.11228 0.74824 0.0
H715 H 0.35171 0.13609 0.73768 0.0
H716 H 0.40884 0.20738 0.72399 0.0
H717 H 0.3969 0.25563 0.69973 0.0
H718 H 0.37274 0.24205 0.6849 0.0
H719 H 0.38411 0.19399 0.70939 0.0
C720 C 0.32739 0.81057 0.65118 0.0
C721 C 0.32809 0.794 0.64466 0.0
C722 C 0.30519 0.80025 0.62423 0.0
C723 C 0.31711 0.78887 0.63135 0.0
C724 C 0.30473 0.81699 0.63068 0.0
C725 C 0.3157 0.82209 0.64406 0.0
U726 U 0.33971 0.83878 0.68959 0.0
O727 O 0.31412 0.84682 0.69751 0.0
O728 O 0.33015 0.86398 0.68177 0.0
C729 C 0.31595 0.8621 0.69061 0.0
C730 C 0.33862 0.81533 0.6657 0.0
C731 C 0.31147 0.8764 0.70176 0.0
C732 C 0.28986 0.89561 0.7122 0.0
C733 C 0.29477 0.88267 0.70114 0.0
C734 C 0.31846 0.89647 0.72448 0.0
C735 C 0.30159 0.90261 0.72414 0.0
C736 C 0.32334 0.88345 0.71343 0.0
C737 C 0.37868 0.82702 0.71703 0.0
C738 C 0.40472 0.8218 0.73342 0.0
C739 C 0.39304 0.79984 0.71481 0.0
C740 C 0.37972 0.81066 0.70998 0.0
C741 C 0.40563 0.8052 0.72675 0.0
C742 C 0.39136 0.83258 0.72862 0.0
C743 C 0.36414 0.83813 0.71295 0.0
O744 O 0.3319 0.81309 0.68094 0.0
O745 O 0.34728 0.82982 0.66415 0.0
O746 O 0.34887 0.83111 0.71515 0.0
O747 O 0.36536 0.84708 0.69868 0.0
H748 H 0.33697 0.7849 0.65007 0.0
H749 H 0.31765 0.7758 0.627 0.0
H750 H 0.29586 0.82616 0.62542 0.0
H751 H 0.31495 0.83496 0.64896 0.0
H752 H 0.2767 0.89973 0.71174 0.0
H753 H 0.2854 0.87731 0.69229 0.0
H754 H 0.3279 0.90165 0.73335 0.0
H755 H 0.3363 0.87874 0.71413 0.0
H756 H 0.41429 0.82646 0.74244 0.0
H757 H 0.39315 0.78709 0.70957 0.0
H758 H 0.37003 0.80613 0.701 0.0
H759 H 0.3908 0.84519 0.73414 0.0
C760 C 0.65467 0.80721 0.69665 0.0
C761 C 0.64338 0.81891 0.70379 0.0
C762 C 0.62715 0.79561 0.71745 0.0
C763 C 0.62972 0.81316 0.71402 0.0
C764 C 0.63849 0.78397 0.71016 0.0
C765 C 0.65204 0.78972 0.69986 0.0
U766 U 0.69207 0.83816 0.68709 0.0
O767 O 0.71856 0.8329 0.67974 0.0
O768 O 0.70216 0.84774 0.66243 0.0
C769 C 0.71696 0.84024 0.66462 0.0
C770 C 0.66948 0.81287 0.68622 0.0
C771 C 0.7233 0.83046 0.65 0.0
C772 C 0.72656 0.80376 0.63474 0.0
C773 C 0.71909 0.81308 0.6479 0.0
C774 C 0.74198 0.82924 0.62531 0.0
C775 C 0.73838 0.81167 0.62349 0.0
C776 C 0.73453 0.83851 0.63844 0.0
C777 C 0.69946 0.87626 0.71761 0.0
C778 C 0.7261 0.89229 0.72233 0.0
C779 C 0.69992 0.90137 0.73566 0.0
C780 C 0.69092 0.88787 0.7279 0.0
C781 C 0.7177 0.90352 0.73332 0.0
C782 C 0.71705 0.87874 0.71455 0.0
C783 C 0.68999 0.86104 0.71137 0.0
O784 O 0.66775 0.82714 0.67739 0.0
O785 O 0.68452 0.8117 0.69378 0.0
O786 O 0.69779 0.84642 0.71334 0.0
O787 O 0.68211 0.86252 0.6965 0.0
H788 H 0.64517 0.8325 0.70157 0.0
H789 H 0.62119 0.8225 0.71923 0.0
H790 H 0.6372 0.77041 0.71275 0.0
H791 H 0.66066 0.78048 0.69457 0.0
H792 H 0.72361 0.79023 0.63381 0.0
H793 H 0.71041 0.80664 0.6567 0.0
H794 H 0.75079 0.8358 0.61673 0.0
H795 H 0.73786 0.85193 0.6398 0.0
H796 H 0.73979 0.89349 0.72034 0.0
H797 H 0.69299 0.90994 0.7438 0.0
H798 H 0.67734 0.88621 0.73036 0.0
H799 H 0.72389 0.86991 0.70662 0.0
C800 C 0.65183 0.80517 0.33046 0.0
C801 C 0.64194 0.81702 0.32133 0.0
C802 C 0.62473 0.79384 0.30886 0.0
C803 C 0.62847 0.81141 0.31069 0.0
C804 C 0.63466 0.78208 0.31817 0.0
C805 C 0.64802 0.7877 0.32886 0.0
U806 U 0.68941 0.83556 0.3415 0.0
O807 O 0.71564 0.82954 0.34966 0.0
O808 O 0.69915 0.84396 0.36671 0.0
C809 C 0.71376 0.83611 0.36494 0.0
C810 C 0.66646 0.81059 0.34132 0.0
C811 C 0.71905 0.82517 0.37941 0.0
C812 C 0.7201 0.7974 0.3935 0.0
C813 C 0.71402 0.80788 0.38027 0.0
C814 C 0.73584 0.82148 0.4055 0.0
C815 C 0.73126 0.80401 0.40619 0.0
C816 C 0.7298 0.83193 0.39221 0.0
C817 C 0.6997 0.87441 0.31315 0.0
C818 C 0.72776 0.88828 0.31133 0.0
C819 C 0.70296 0.90209 0.29905 0.0
C820 C 0.69256 0.88832 0.30442 0.0
C821 C 0.72076 0.90217 0.30225 0.0
C822 C 0.71734 0.87461 0.3168 0.0
C823 C 0.68878 0.85951 0.31775 0.0
O824 O 0.68159 0.80946 0.33421 0.0
O825 O 0.66465 0.82473 0.35004 0.0
O826 O 0.68036 0.86055 0.33221 0.0
O827 O 0.69575 0.84454 0.31557 0.0
H828 H 0.64471 0.83059 0.32233 0.0
H829 H 0.62102 0.82085 0.30387 0.0
H830 H 0.63245 0.76846 0.31686 0.0
H831 H 0.65559 0.77835 0.33571 0.0
H832 H 0.71648 0.78398 0.39345 0.0
H833 H 0.7057 0.80242 0.3705 0.0
H834 H 0.74418 0.82708 0.41516 0.0
H835 H 0.73375 0.84527 0.3918 0.0
H836 H 0.74141 0.88769 0.31381 0.0
H837 H 0.69705 0.91264 0.29235 0.0
H838 H 0.67895 0.88843 0.30155 0.0
H839 H 0.72313 0.86401 0.32356 0.0
C840 C 0.65197 0.20043 0.31278 0.0
C841 C 0.64508 0.212 0.32437 0.0
C842 C 0.62592 0.22288 0.30208 0.0
C843 C 0.63213 0.22309 0.31908 0.0
C844 C 0.63282 0.2111 0.29062 0.0
C845 C 0.64568 0.2 0.29594 0.0
U846 U 0.69003 0.1882 0.34158 0.0
O847 O 0.69859 0.16283 0.35003 0.0
O848 O 0.71543 0.17911 0.3342 0.0
C849 C 0.71294 0.16402 0.34134 0.0
C850 C 0.66612 0.18915 0.31771 0.0
C851 C 0.71697 0.14936 0.3305 0.0
C852 C 0.70928 0.12889 0.30836 0.0
C853 C 0.70485 0.14236 0.31906 0.0
C854 C 0.73793 0.12924 0.32053 0.0
C855 C 0.72595 0.12225 0.30884 0.0
C856 C 0.73347 0.14263 0.33124 0.0
C857 C 0.70325 0.21635 0.37955 0.0
C858 C 0.73127 0.21586 0.39341 0.0
C859 C 0.70867 0.23273 0.40539 0.0
C860 C 0.69755 0.22733 0.39229 0.0
C861 C 0.72578 0.22731 0.40597 0.0
C862 C 0.7201 0.21042 0.38035 0.0
C863 C 0.69176 0.21195 0.36512 0.0
O864 O 0.68159 0.19575 0.3157 0.0
O865 O 0.66434 0.1806 0.33218 0.0
O866 O 0.68254 0.19781 0.36687 0.0
O867 O 0.69848 0.21376 0.34982 0.0
H868 H 0.64982 0.21256 0.33744 0.0
H869 H 0.62703 0.23186 0.3283 0.0
H870 H 0.62866 0.21076 0.27737 0.0
H871 H 0.65094 0.19124 0.28678 0.0
H872 H 0.69966 0.12374 0.29966 0.0
H873 H 0.69204 0.14743 0.31828 0.0
H874 H 0.75097 0.12474 0.32106 0.0
H875 H 0.74303 0.14795 0.33992 0.0
H876 H 0.74438 0.21157 0.3933 0.0
H877 H 0.7039 0.24131 0.41497 0.0
H878 H 0.68456 0.23198 0.39192 0.0
H879 H 0.72475 0.20191 0.37063 0.0
C880 C 0.31552 0.14816 0.32838 0.0
C881 C 0.3274 0.14079 0.31738 0.0
C882 C 0.30509 0.1216 0.30606 0.0
C883 C 0.32224 0.1276 0.30636 0.0
C884 C 0.29332 0.12903 0.31722 0.0
C885 C 0.2985 0.14214 0.32826 0.0
U886 U 0.34435 0.18645 0.34084 0.0
O887 O 0.33721 0.21167 0.35024 0.0
O888 O 0.35283 0.19495 0.36646 0.0
C889 C 0.34414 0.20915 0.36543 0.0
C890 C 0.32042 0.16238 0.33976 0.0
C891 C 0.33306 0.21283 0.3801 0.0
C892 C 0.30515 0.21195 0.39374 0.0
C893 C 0.31585 0.20733 0.38032 0.0
C894 C 0.32889 0.22714 0.40724 0.0
C895 C 0.31147 0.22208 0.40732 0.0
C896 C 0.33955 0.22258 0.39374 0.0
C897 C 0.38217 0.19973 0.31219 0.0
C898 C 0.40228 0.22284 0.31894 0.0
C899 C 0.40157 0.21091 0.29043 0.0
C900 C 0.38855 0.19946 0.29548 0.0
C901 C 0.40851 0.22288 0.30204 0.0
C902 C 0.38919 0.2114 0.32395 0.0
C903 C 0.3677 0.18828 0.31678 0.0
O904 O 0.3349 0.16081 0.34832 0.0
O905 O 0.3184 0.17775 0.33326 0.0
O906 O 0.35247 0.19501 0.31521 0.0
O907 O 0.36949 0.17917 0.3309 0.0
H908 H 0.34061 0.14531 0.31724 0.0
H909 H 0.3317 0.1221 0.29808 0.0
H910 H 0.27995 0.12504 0.31714 0.0
H911 H 0.28913 0.14775 0.33657 0.0
H912 H 0.29178 0.20802 0.39316 0.0
H913 H 0.31057 0.19978 0.36991 0.0
H914 H 0.33428 0.23472 0.41755 0.0
H915 H 0.35283 0.22689 0.39383 0.0
H916 H 0.40744 0.23173 0.32828 0.0
H917 H 0.40578 0.21073 0.27726 0.0
H918 H 0.3832 0.1906 0.28619 0.0
H919 H 0.38439 0.21183 0.33692 0.0
C920 C 0.33773 0.87381 0.30852 0.0
C921 C 0.32034 0.87645 0.31197 0.0
C922 C 0.32041 0.90136 0.29293 0.0
C923 C 0.31175 0.89011 0.30424 0.0
C924 C 0.33802 0.89904 0.29016 0.0
C925 C 0.34656 0.88539 0.29785 0.0
U926 U 0.34345 0.83604 0.33989 0.0
O927 O 0.34914 0.80925 0.33426 0.0
O928 O 0.36713 0.82457 0.3498 0.0
C929 C 0.36408 0.80993 0.34213 0.0
C930 C 0.34662 0.85852 0.31488 0.0
C931 C 0.37847 0.8024 0.33291 0.0
C932 C 0.40261 0.80437 0.31336 0.0
C933 C 0.38911 0.81211 0.32196 0.0
C934 C 0.39488 0.77722 0.32654 0.0
C935 C 0.40567 0.78679 0.31556 0.0
C936 C 0.38149 0.78495 0.33512 0.0
C937 C 0.31324 0.82824 0.37737 0.0
C938 C 0.31172 0.80103 0.39257 0.0
C939 C 0.29613 0.82516 0.40315 0.0
C940 C 0.3024 0.83523 0.38958 0.0
C941 C 0.30055 0.80786 0.40473 0.0
C942 C 0.31804 0.81113 0.37908 0.0
C943 C 0.31904 0.83868 0.36266 0.0
O944 O 0.3548 0.86 0.32959 0.0
O945 O 0.33806 0.84398 0.3134 0.0
O946 O 0.31669 0.83164 0.34759 0.0
O947 O 0.33419 0.84614 0.36435 0.0
H948 H 0.31329 0.86765 0.3202 0.0
H949 H 0.29818 0.89142 0.30656 0.0
H950 H 0.34515 0.9076 0.28177 0.0
H951 H 0.36 0.88362 0.2951 0.0
H952 H 0.41069 0.81216 0.30509 0.0
H953 H 0.38696 0.82562 0.32005 0.0
H954 H 0.39652 0.76361 0.32827 0.0
H955 H 0.37335 0.77723 0.34343 0.0
H956 H 0.31522 0.78772 0.39316 0.0
H957 H 0.28776 0.83093 0.41237 0.0
H958 H 0.29862 0.84844 0.38851 0.0
H959 H 0.32642 0.80549 0.36978 0.0
C960 C 0.70368 0.6471 0.21892 0.0
C961 C 0.72048 0.64653 0.21268 0.0
C962 C 0.72573 0.62067 0.22947 0.0
C963 C 0.73141 0.63348 0.21793 0.0
C964 C 0.70867 0.62103 0.2352 0.0
C965 C 0.69778 0.63414 0.22999 0.0
U966 U 0.69212 0.68563 0.19105 0.0
O967 O 0.66701 0.69548 0.18311 0.0
O968 O 0.68456 0.71144 0.19853 0.0
C969 C 0.66934 0.70993 0.19132 0.0
C970 C 0.69252 0.66155 0.21469 0.0
C971 C 0.65483 0.7162 0.20133 0.0
C972 C 0.62989 0.71189 0.21956 0.0
C973 C 0.64382 0.70525 0.21067 0.0
C974 C 0.63801 0.74039 0.20999 0.0
C975 C 0.62673 0.72956 0.2192 0.0
C976 C 0.65183 0.73377 0.20115 0.0
C977 C 0.71973 0.69807 0.15258 0.0
C978 C 0.72145 0.72664 0.14021 0.0
C979 C 0.73215 0.70269 0.12439 0.0
C980 C 0.7274 0.69167 0.13785 0.0
C981 C 0.72937 0.72037 0.12544 0.0
C982 C 0.71659 0.71561 0.15357 0.0
C983 C 0.71544 0.68642 0.16695 0.0
O984 O 0.69957 0.67678 0.21675 0.0
O985 O 0.68354 0.66024 0.20043 0.0
O986 O 0.70087 0.67783 0.16552 0.0
O987 O 0.71802 0.69268 0.18234 0.0
H988 H 0.72528 0.65643 0.2041 0.0
H989 H 0.7445 0.63379 0.21341 0.0
H990 H 0.70375 0.61127 0.24386 0.0
H991 H 0.68483 0.63432 0.23488 0.0
H992 H 0.62146 0.70319 0.22651 0.0
H993 H 0.64593 0.69162 0.211 0.0
H994 H 0.63629 0.75408 0.20975 0.0
H995 H 0.66022 0.74245 0.19411 0.0
H996 H 0.71934 0.74017 0.14169 0.0
H997 H 0.73797 0.69732 0.11315 0.0
H998 H 0.72985 0.67815 0.1368 0.0
H999 H 0.71063 0.72085 0.1648 0.0
C1000 C 0.31055 0.69314 0.15362 0.0
C1001 C 0.32327 0.70246 0.14477 0.0
C1002 C 0.30154 0.71508 0.12617 0.0
C1003 C 0.31882 0.71325 0.13113 0.0
C1004 C 0.28889 0.70551 0.13498 0.0
C1005 C 0.29337 0.69465 0.14855 0.0
U1006 U 0.33895 0.68218 0.19217 0.0
O1007 O 0.33177 0.67426 0.21823 0.0
O1008 O 0.3467 0.6571 0.20235 0.0
C1009 C 0.33824 0.65898 0.21668 0.0
C1010 C 0.31483 0.6823 0.16851 0.0
C1011 C 0.32677 0.64468 0.22169 0.0
C1012 C 0.29877 0.63054 0.22127 0.0
C1013 C 0.30991 0.64348 0.21537 0.0
C1014 C 0.32141 0.61951 0.23941 0.0
C1015 C 0.3043 0.61853 0.23356 0.0
C1016 C 0.33251 0.63249 0.23354 0.0
C1017 C 0.37795 0.71071 0.20286 0.0
C1018 C 0.39977 0.70362 0.22403 0.0
C1019 C 0.39662 0.73296 0.21462 0.0
C1020 C 0.38328 0.72788 0.20362 0.0
C1021 C 0.40497 0.72092 0.2251 0.0
C1022 C 0.38634 0.69858 0.21308 0.0
C1023 C 0.3632 0.70592 0.1919 0.0
O1024 O 0.32888 0.67337 0.16731 0.0
O1025 O 0.31318 0.68955 0.18349 0.0
O1026 O 0.3481 0.70806 0.19879 0.0
O1027 O 0.36429 0.69146 0.18356 0.0
H1028 H 0.33663 0.70153 0.14852 0.0
H1029 H 0.32894 0.72023 0.12452 0.0
H1030 H 0.27544 0.70678 0.13176 0.0
H1031 H 0.28336 0.68763 0.1553 0.0
H1032 H 0.28565 0.63032 0.21663 0.0
H1033 H 0.30525 0.65279 0.20619 0.0
H1034 H 0.32619 0.61035 0.24866 0.0
H1035 H 0.34552 0.63318 0.2385 0.0
H1036 H 0.40602 0.69396 0.23173 0.0
H1037 H 0.40001 0.74641 0.21528 0.0
H1038 H 0.37688 0.73745 0.19591 0.0
H1039 H 0.38238 0.68525 0.21275 0.0
C1040 C 0.31278 0.33334 0.15304 0.0
C1041 C 0.31405 0.31547 0.15273 0.0
C1042 C 0.29931 0.31454 0.12502 0.0
C1043 C 0.30735 0.30617 0.13888 0.0
C1044 C 0.2987 0.3325 0.12513 0.0
C1045 C 0.30533 0.34177 0.13901 0.0
U1046 U 0.34215 0.34294 0.19195 0.0
O1047 O 0.35045 0.36789 0.20242 0.0
O1048 O 0.33519 0.34995 0.21811 0.0
C1049 C 0.34209 0.36535 0.2168 0.0
C1050 C 0.31807 0.34333 0.16822 0.0
C1051 C 0.33153 0.37956 0.22275 0.0
C1052 C 0.30388 0.39144 0.22976 0.0
C1053 C 0.31354 0.37858 0.22237 0.0
C1054 C 0.33002 0.40681 0.23733 0.0
C1055 C 0.312 0.40559 0.23763 0.0
C1056 C 0.33966 0.39392 0.23002 0.0
C1057 C 0.38072 0.31523 0.20258 0.0
C1058 C 0.39471 0.31467 0.23052 0.0
C1059 C 0.40733 0.29999 0.20669 0.0
C1060 C 0.39391 0.30534 0.19604 0.0
C1061 C 0.40779 0.30437 0.22415 0.0
C1062 C 0.38134 0.32008 0.21983 0.0
C1063 C 0.36612 0.31982 0.19146 0.0
O1064 O 0.31626 0.33564 0.18315 0.0
O1065 O 0.33248 0.35223 0.16696 0.0
O1066 O 0.3675 0.33456 0.18336 0.0
O1067 O 0.35087 0.31708 0.19809 0.0
H1068 H 0.31978 0.30866 0.16339 0.0
H1069 H 0.3079 0.29237 0.13938 0.0
H1070 H 0.29289 0.33942 0.11458 0.0
H1071 H 0.30428 0.35555 0.13895 0.0
H1072 H 0.29005 0.38992 0.2299 0.0
H1073 H 0.30694 0.36765 0.2168 0.0
H1074 H 0.33673 0.41764 0.24298 0.0
H1075 H 0.35353 0.39496 0.2304 0.0
H1076 H 0.39445 0.31811 0.24391 0.0
H1077 H 0.41729 0.29231 0.20126 0.0
H1078 H 0.3937 0.30155 0.18273 0.0
H1079 H 0.37128 0.32774 0.22513 0.0
C1080 C 0.65458 0.31247 0.20066 0.0
C1081 C 0.65427 0.31736 0.21789 0.0
C1082 C 0.62725 0.30167 0.22204 0.0
C1083 C 0.64081 0.31196 0.22848 0.0
C1084 C 0.62743 0.29719 0.20461 0.0
C1085 C 0.64099 0.30252 0.19405 0.0
U1086 U 0.69324 0.34121 0.1908 0.0
O1087 O 0.71945 0.33474 0.18331 0.0
O1088 O 0.70372 0.35065 0.16631 0.0
C1089 C 0.71822 0.34256 0.1684 0.0
C1090 C 0.66928 0.3172 0.18971 0.0
C1091 C 0.72459 0.33309 0.15359 0.0
C1092 C 0.72044 0.31418 0.12926 0.0
C1093 C 0.71374 0.32302 0.14319 0.0
C1094 C 0.7488 0.32535 0.13612 0.0
C1095 C 0.73809 0.31525 0.12554 0.0
C1096 C 0.74211 0.33417 0.14993 0.0
C1097 C 0.70335 0.37835 0.22146 0.0
C1098 C 0.73119 0.39212 0.2262 0.0
C1099 C 0.70564 0.40465 0.2377 0.0
C1100 C 0.69565 0.39144 0.23059 0.0
C1101 C 0.72358 0.405 0.23588 0.0
C1102 C 0.72117 0.37894 0.21903 0.0
C1103 C 0.6927 0.36381 0.21546 0.0
O1104 O 0.6681 0.33177 0.18132 0.0
O1105 O 0.68445 0.31503 0.19675 0.0
O1106 O 0.6995 0.34865 0.21719 0.0
O1107 O 0.6847 0.36591 0.20073 0.0
H1108 H 0.66463 0.32507 0.22325 0.0
H1109 H 0.64134 0.31546 0.24185 0.0
H1110 H 0.61713 0.2895 0.19912 0.0
H1111 H 0.64097 0.29869 0.18075 0.0
H1112 H 0.71179 0.3066 0.12136 0.0
H1113 H 0.70015 0.32198 0.14584 0.0
H1114 H 0.76249 0.32618 0.13398 0.0
H1115 H 0.75071 0.34178 0.15788 0.0
H1116 H 0.74496 0.39184 0.22467 0.0
H1117 H 0.6993 0.41449 0.2448 0.0
H1118 H 0.68191 0.39127 0.23254 0.0
H1119 H 0.72738 0.36897 0.21198 0.0
C1120 C 0.65378 0.30495 0.8297 0.0
C1121 C 0.64343 0.31518 0.81916 0.0
C1122 C 0.62635 0.2901 0.81078 0.0
C1123 C 0.62981 0.30782 0.80979 0.0
C1124 C 0.63689 0.28 0.82133 0.0
C1125 C 0.65039 0.28736 0.83069 0.0
U1126 U 0.69086 0.33737 0.83777 0.0
O1127 O 0.70037 0.34784 0.86222 0.0
O1128 O 0.71709 0.33211 0.84665 0.0
C1129 C 0.71493 0.33971 0.86138 0.0
C1130 C 0.66832 0.31207 0.83966 0.0
C1131 C 0.71964 0.32946 0.87656 0.0
C1132 C 0.71282 0.30764 0.89795 0.0
C1133 C 0.70781 0.31808 0.88421 0.0
C1134 C 0.74151 0.31992 0.89659 0.0
C1135 C 0.72981 0.30827 0.90421 0.0
C1136 C 0.73645 0.33039 0.88293 0.0
C1137 C 0.69983 0.37382 0.80522 0.0
C1138 C 0.71905 0.3984 0.80901 0.0
C1139 C 0.70886 0.39085 0.78065 0.0
C1140 C 0.69951 0.3771 0.78757 0.0
C1141 C 0.71873 0.40175 0.79124 0.0
C1142 C 0.70969 0.38453 0.81594 0.0
C1143 C 0.68991 0.35902 0.81189 0.0
O1144 O 0.68346 0.31064 0.83264 0.0
O1145 O 0.66613 0.32696 0.8469 0.0
O1146 O 0.68151 0.36123 0.82622 0.0
O1147 O 0.6976 0.34427 0.81125 0.0
H1148 H 0.64589 0.32882 0.81815 0.0
H1149 H 0.62193 0.316 0.80187 0.0
H1150 H 0.63495 0.26629 0.82213 0.0
H1151 H 0.65831 0.27923 0.83865 0.0
H1152 H 0.70341 0.29898 0.90358 0.0
H1153 H 0.69476 0.3171 0.8794 0.0
H1154 H 0.75477 0.32057 0.9008 0.0
H1155 H 0.74581 0.33899 0.87709 0.0
H1156 H 0.72642 0.40654 0.81757 0.0
H1157 H 0.70859 0.39272 0.76689 0.0
H1158 H 0.69209 0.36891 0.77907 0.0
H1159 H 0.71017 0.38216 0.82962 0.0
C1160 C 0.654 0.71707 0.82844 0.0
C1161 C 0.65289 0.73483 0.8267 0.0
C1162 C 0.62694 0.73173 0.8093 0.0
C1163 C 0.63959 0.74208 0.81722 0.0
C1164 C 0.62818 0.71385 0.81088 0.0
C1165 C 0.64159 0.70658 0.82038 0.0
U1166 U 0.68977 0.68488 0.83908 0.0
O1167 O 0.68006 0.66072 0.8281 0.0
O1168 O 0.6974 0.67734 0.81318 0.0
C1169 C 0.6895 0.66241 0.81428 0.0
C1170 C 0.66801 0.71009 0.83907 0.0
C1171 C 0.70002 0.64766 0.8098 0.0
C1172 C 0.71245 0.62991 0.78792 0.0
C1173 C 0.70163 0.64311 0.79258 0.0
C1174 C 0.71988 0.62531 0.81774 0.0
C1175 C 0.72189 0.62093 0.80041 0.0
C1176 C 0.70913 0.63859 0.82238 0.0
C1177 C 0.7187 0.69215 0.87879 0.0
C1178 C 0.73602 0.69308 0.90479 0.0
C1179 C 0.72257 0.7188 0.89429 0.0
C1180 C 0.71533 0.70959 0.88063 0.0
C1181 C 0.73334 0.71073 0.90632 0.0
C1182 C 0.72879 0.68392 0.89115 0.0
C1183 C 0.713 0.68258 0.86353 0.0
O1184 O 0.68347 0.71146 0.83257 0.0
O1185 O 0.66507 0.69537 0.84686 0.0
O1186 O 0.69788 0.67493 0.86436 0.0
O1187 O 0.71581 0.69021 0.84874 0.0
H1188 H 0.66235 0.74316 0.83274 0.0
H1189 H 0.63936 0.75585 0.81596 0.0
H1190 H 0.61865 0.70549 0.80501 0.0
H1191 H 0.64219 0.69281 0.8215 0.0
H1192 H 0.71385 0.62715 0.77444 0.0
H1193 H 0.6948 0.65004 0.78268 0.0
H1194 H 0.72675 0.61857 0.82775 0.0
H1195 H 0.70813 0.64194 0.83576 0.0
H1196 H 0.74401 0.6864 0.91395 0.0
H1197 H 0.72035 0.73238 0.89499 0.0
H1198 H 0.70755 0.71619 0.8712 0.0
H1199 H 0.73149 0.67046 0.88999 0.0
C1200 C 0.31217 0.64559 0.82701 0.0
C1201 C 0.3177 0.64502 0.80998 0.0
C1202 C 0.30012 0.61938 0.80507 0.0
C1203 C 0.3117 0.63208 0.7991 0.0
C1204 C 0.295 0.6198 0.82231 0.0
C1205 C 0.30095 0.6328 0.83315 0.0
U1206 U 0.34235 0.6829 0.83826 0.0
O1207 O 0.33661 0.70862 0.84732 0.0
O1208 O 0.35201 0.69157 0.86341 0.0
C1209 C 0.34392 0.70612 0.86234 0.0
C1210 C 0.31755 0.65971 0.83832 0.0
C1211 C 0.3335 0.71056 0.87726 0.0
C1212 C 0.30631 0.71017 0.89229 0.0
C1213 C 0.3164 0.70486 0.87865 0.0
C1214 C 0.33045 0.72649 0.90362 0.0
C1215 C 0.31313 0.72124 0.90485 0.0
C1216 C 0.34051 0.72121 0.88994 0.0
C1217 C 0.37996 0.69261 0.80727 0.0
C1218 C 0.39571 0.71945 0.80319 0.0
C1219 C 0.40483 0.69397 0.78874 0.0
C1220 C 0.3915 0.68461 0.79644 0.0
C1221 C 0.40687 0.71159 0.79169 0.0
C1222 C 0.38233 0.71003 0.8109 0.0
C1223 C 0.36492 0.68275 0.81345 0.0
O1224 O 0.33215 0.65772 0.84655 0.0
O1225 O 0.3159 0.67512 0.83179 0.0
O1226 O 0.3501 0.69039 0.81225 0.0
O1227 O 0.36686 0.67414 0.82785 0.0
H1228 H 0.32639 0.65478 0.805 0.0
H1229 H 0.31575 0.63235 0.78587 0.0
H1230 H 0.28632 0.61012 0.82743 0.0
H1231 H 0.29662 0.63298 0.8463 0.0
H1232 H 0.29299 0.70605 0.89264 0.0
H1233 H 0.31075 0.69662 0.86899 0.0
H1234 H 0.33623 0.73478 0.91316 0.0
H1235 H 0.35371 0.72568 0.88912 0.0
H1236 H 0.39685 0.73301 0.80565 0.0
H1237 H 0.41334 0.68747 0.78018 0.0
H1238 H 0.38992 0.67116 0.79352 0.0
H1239 H 0.37355 0.71645 0.81924 0.0
C1240 C 0.33344 0.3759 0.80744 0.0
C1241 C 0.32421 0.38482 0.81973 0.0
C1242 C 0.31145 0.40255 0.79728 0.0
C1243 C 0.31339 0.39806 0.81471 0.0
C1244 C 0.32097 0.39369 0.78508 0.0
C1245 C 0.33184 0.38053 0.79013 0.0
U1246 U 0.34495 0.33822 0.83683 0.0
O1247 O 0.35252 0.31224 0.8299 0.0
O1248 O 0.37015 0.32861 0.84475 0.0
C1249 C 0.368 0.31418 0.83644 0.0
C1250 C 0.34426 0.36136 0.81225 0.0
C1251 C 0.38213 0.30923 0.82519 0.0
C1252 C 0.4039 0.31617 0.80399 0.0
C1253 C 0.39087 0.3213 0.81494 0.0
C1254 C 0.3996 0.28687 0.81342 0.0
C1255 C 0.40835 0.29885 0.80296 0.0
C1256 C 0.38666 0.29203 0.82442 0.0
C1257 C 0.31748 0.32792 0.87628 0.0
C1258 C 0.31766 0.30074 0.89159 0.0
C1259 C 0.30124 0.32415 0.90253 0.0
C1260 C 0.30671 0.33445 0.88881 0.0
C1261 C 0.30642 0.30706 0.90396 0.0
C1262 C 0.32315 0.31108 0.87789 0.0
C1263 C 0.32198 0.33856 0.86126 0.0
O1264 O 0.35358 0.36307 0.82627 0.0
O1265 O 0.33681 0.34624 0.81098 0.0
O1266 O 0.31928 0.33137 0.84631 0.0
O1267 O 0.33665 0.34705 0.86215 0.0
H1268 H 0.32521 0.38142 0.83317 0.0
H1269 H 0.30645 0.40471 0.82449 0.0
H1270 H 0.31962 0.39652 0.77155 0.0
H1271 H 0.33878 0.37373 0.78044 0.0
H1272 H 0.41047 0.3258 0.7963 0.0
H1273 H 0.38755 0.33466 0.81531 0.0
H1274 H 0.4024 0.2734 0.81278 0.0
H1275 H 0.37999 0.28251 0.83217 0.0
H1276 H 0.32175 0.28761 0.89212 0.0
H1277 H 0.29282 0.32953 0.91193 0.0
H1278 H 0.30225 0.34744 0.88781 0.0
H1279 H 0.33149 0.30581 0.86833 0.0
H1280 H 0.28233 0.23224 0.92943 0.0
N1281 N 0.27748 0.25771 0.95095 0.0
H1282 H 0.26134 0.21907 0.91 0.0
H1283 H 0.24273 0.26262 0.9513 0.0
H1284 H 0.22153 0.24919 0.93231 0.0
H1285 H 0.2613 0.28515 0.93653 0.0
H1286 H 0.27364 0.30566 0.91632 0.0
H1287 H 0.31038 0.26141 0.9426 0.0
H1288 H 0.32306 0.28227 0.92255 0.0
H1289 H 0.28662 0.23643 0.97592 0.0
H1290 H 0.26247 0.28476 0.96702 0.0
H1291 H 0.2829 0.23968 1.0068 0.0
H1292 H 0.25932 0.28848 0.99774 0.0
H1293 H 0.27625 0.24234 0.08648 0.0
H1294 H 0.26478 0.22091 0.10643 0.0
H1295 H 0.21788 0.24921 0.10984 0.0
H1296 H 0.22991 0.27096 0.09047 0.0
H1297 H 0.25305 0.30326 0.08843 0.0
H1298 H 0.26872 0.32115 0.10896 0.0
H1299 H 0.30996 0.28504 0.10972 0.0
H1300 H 0.29394 0.26709 0.0896 0.0
H1301 H 0.28868 0.25792 0.06192 0.0
H1302 H 0.29275 0.25491 0.03113 0.0
H1303 H 0.24387 0.27854 0.0218 0.0
N1304 N 0.26132 0.27248 0.07767 0.0
H1305 H 0.24035 0.28209 0.05264 0.0
C1306 C 0.26418 0.24834 0.94186 0.0
C1307 C 0.26899 0.23572 0.93033 0.0
C1308 C 0.25694 0.22818 0.91926 0.0
C1309 C 0.2397 0.23312 0.91946 0.0
C1310 C 0.23473 0.24527 0.93158 0.0
C1311 C 0.24684 0.25285 0.94262 0.0
C1312 C 0.28496 0.27169 0.94117 0.0
C1313 C 0.27486 0.2846 0.93387 0.0
C1314 C 0.28198 0.2964 0.92227 0.0
C1315 C 0.29936 0.2956 0.91768 0.0
C1316 C 0.30958 0.28312 0.92557 0.0
C1317 C 0.30242 0.27131 0.93718 0.0
C1318 C 0.27498 0.26031 0.96908 0.0
C1319 C 0.28063 0.2478 0.98065 0.0
C1320 C 0.2786 0.24977 0.99833 0.0
C1321 C 0.27087 0.2644 1.00491 0.0
C1322 C 0.26514 0.27693 0.99323 0.0
C1323 C 0.26708 0.27489 0.97554 0.0
C1324 C 0.25394 0.25833 0.08712 0.0
C1325 C 0.26346 0.24385 0.09141 0.0
C1326 C 0.2568 0.23152 0.10277 0.0
C1327 C 0.24043 0.23337 0.10997 0.0
C1328 C 0.23066 0.2475 0.1049 0.0
C1329 C 0.2374 0.25986 0.09368 0.0
C1330 C 0.27229 0.28392 0.08735 0.0
C1331 C 0.26565 0.29944 0.09276 0.0
C1332 C 0.27467 0.30965 0.10449 0.0
C1333 C 0.29063 0.30454 0.11112 0.0
C1334 C 0.29761 0.28928 0.10511 0.0
C1335 C 0.28852 0.27905 0.09338 0.0
C1336 C 0.26424 0.27042 0.0596 0.0
C1337 C 0.27892 0.26259 0.05328 0.0
C1338 C 0.28114 0.26073 0.03558 0.0
C1339 C 0.26866 0.26651 0.02382 0.0
C1340 C 0.25394 0.27422 0.03032 0.0
C1341 C 0.25182 0.27617 0.04797 0.0
H1342 H 0.787 0.2745 0.93807 0.0
N1343 N 0.75803 0.25926 0.95126 0.0
H1344 H 0.80747 0.26144 0.91909 0.0
H1345 H 0.75974 0.22639 0.94323 0.0
H1346 H 0.78049 0.21299 0.92442 0.0
H1347 H 0.73241 0.25413 0.92927 0.0
H1348 H 0.72053 0.27456 0.90876 0.0
H1349 H 0.76466 0.29397 0.95062 0.0
H1350 H 0.75252 0.31454 0.93065 0.0
H1351 H 0.7832 0.27807 0.96776 0.0
H1352 H 0.73869 0.24575 0.97592 0.0
H1353 H 0.78635 0.28198 0.99844 0.0
H1354 H 0.74237 0.24856 1.00689 0.0
H1355 H 0.80215 0.27573 0.09866 0.0
H1356 H 0.81205 0.25364 0.11846 0.0
H1357 H 0.77218 0.21933 0.09977 0.0
H1358 H 0.76209 0.24185 0.08037 0.0
H1359 H 0.74489 0.26545 0.09424 0.0
H1360 H 0.72964 0.28273 0.11485 0.0
H1361 H 0.76373 0.32547 0.10364 0.0
H1362 H 0.77933 0.30778 0.08362 0.0
H1363 H 0.7987 0.27337 0.05429 0.0
H1364 H 0.79486 0.26908 0.02362 0.0
H1365 H 0.73992 0.26596 0.03062 0.0
N1366 N 0.77485 0.27453 0.07823 0.0
H1367 H 0.7441 0.2691 0.06144 0.0
C1368 C 0.7718 0.25137 0.94217 0.0
C1369 C 0.78566 0.261 0.9355 0.0
C1370 C 0.79741 0.25347 0.92459 0.0
C1371 C 0.79562 0.23615 0.92009 0.0
C1372 C 0.78214 0.22641 0.92737 0.0
C1373 C 0.77037 0.23397 0.93827 0.0
C1374 C 0.74936 0.27238 0.94158 0.0
C1375 C 0.73657 0.26739 0.92985 0.0
C1376 C 0.72978 0.27913 0.91815 0.0
C1377 C 0.73564 0.29624 0.91792 0.0
C1378 C 0.74791 0.30142 0.93023 0.0
C1379 C 0.75477 0.28963 0.94187 0.0
C1380 C 0.7605 0.26176 0.96944 0.0
C1381 C 0.77406 0.27177 0.97613 0.0
C1382 C 0.77599 0.2738 0.99385 0.0
C1383 C 0.76466 0.26555 1.00539 0.0
C1384 C 0.75119 0.25541 0.99857 0.0
C1385 C 0.74912 0.25365 0.98083 0.0
C1386 C 0.7815 0.26042 0.08804 0.0
C1387 C 0.79576 0.26333 0.09869 0.0
C1388 C 0.80142 0.25064 0.10994 0.0
C1389 C 0.79293 0.23464 0.11077 0.0
C1390 C 0.77889 0.23156 0.09966 0.0
C1391 C 0.77319 0.24434 0.08843 0.0
C1392 C 0.76342 0.28531 0.08752 0.0
C1393 C 0.74889 0.27862 0.09601 0.0
C1394 C 0.74012 0.28858 0.10778 0.0
C1395 C 0.74563 0.30544 0.11121 0.0
C1396 C 0.75939 0.31241 0.1017 0.0
C1397 C 0.76821 0.30242 0.09007 0.0
C1398 C 0.77177 0.27178 0.06018 0.0
C1399 C 0.78584 0.27167 0.04917 0.0
C1400 C 0.78357 0.26939 0.03155 0.0
C1401 C 0.76703 0.26741 0.02438 0.0
C1402 C 0.75288 0.26728 0.03555 0.0
C1403 C 0.75522 0.26926 0.05327 0.0
H1404 H 0.75538 0.77906 0.93625 0.0
N1405 N 0.77303 0.75327 0.95186 0.0
H1406 H 0.76706 0.80038 0.91645 0.0
H1407 H 0.80592 0.75935 0.94491 0.0
H1408 H 0.81791 0.78101 0.92531 0.0
H1409 H 0.78337 0.72575 0.93576 0.0
H1410 H 0.76683 0.70773 0.91605 0.0
H1411 H 0.73841 0.75486 0.9461 0.0
H1412 H 0.72161 0.73685 0.92631 0.0
H1413 H 0.75296 0.77744 0.96662 0.0
H1414 H 0.78489 0.73439 0.97755 0.0
H1415 H 0.74889 0.78174 0.99721 0.0
H1416 H 0.78023 0.73795 0.00821 0.0
H1417 H 0.74845 0.80286 0.08645 0.0
H1418 H 0.76484 0.82094 0.10627 0.0
H1419 H 0.80349 0.78225 0.11027 0.0
H1420 H 0.7867 0.76411 0.09104 0.0
H1421 H 0.76902 0.73996 0.08493 0.0
H1422 H 0.75847 0.71887 0.10576 0.0
H1423 H 0.71343 0.74915 0.11349 0.0
H1424 H 0.72467 0.77056 0.09333 0.0
H1425 H 0.73222 0.77605 0.05282 0.0
H1426 H 0.73569 0.77132 0.02215 0.0
H1427 H 0.78762 0.7551 0.03159 0.0
N1428 N 0.7548 0.7709 0.07783 0.0
H1429 H 0.78364 0.75904 0.06218 0.0
C1430 C 0.77982 0.76758 0.94213 0.0
C1431 C 0.76906 0.77955 0.93422 0.0
C1432 C 0.77581 0.79181 0.92286 0.0
C1433 C 0.79345 0.79238 0.91915 0.0
C1434 C 0.80424 0.78079 0.92763 0.0
C1435 C 0.79747 0.76853 0.93898 0.0
C1436 C 0.76217 0.7416 0.94237 0.0
C1437 C 0.76981 0.72799 0.93401 0.0
C1438 C 0.7603 0.71771 0.92276 0.0
C1439 C 0.74287 0.72084 0.91954 0.0
C1440 C 0.73505 0.7342 0.92837 0.0
C1441 C 0.7446 0.74445 0.93975 0.0
C1442 C 0.76945 0.75567 0.96978 0.0
C1443 C 0.75901 0.76881 0.97559 0.0
C1444 C 0.75657 0.77116 0.99318 0.0
C1445 C 0.76431 0.76027 1.00537 0.0
C1446 C 0.77437 0.74687 0.99937 0.0
C1447 C 0.77693 0.74468 0.98182 0.0
C1448 C 0.76632 0.78221 0.08707 0.0
C1449 C 0.76065 0.79848 0.09133 0.0
C1450 C 0.77009 0.8088 0.10266 0.0
C1451 C 0.78551 0.80306 0.11001 0.0
C1452 C 0.79156 0.78701 0.10511 0.0
C1453 C 0.78204 0.77667 0.09384 0.0
C1454 C 0.74768 0.75694 0.08777 0.0
C1455 C 0.75685 0.74198 0.09105 0.0
C1456 C 0.75069 0.72985 0.1029 0.0
C1457 C 0.73516 0.73236 0.11156 0.0
C1458 C 0.72563 0.74694 0.10745 0.0
C1459 C 0.73189 0.75911 0.09577 0.0
C1460 C 0.75765 0.7681 0.05983 0.0
C1461 C 0.74433 0.77145 0.04821 0.0
C1462 C 0.74641 0.76885 0.03064 0.0
C1463 C 0.762 0.7629 0.0242 0.0
C1464 C 0.77535 0.75947 0.03597 0.0
C1465 C 0.77316 0.7619 0.05358 0.0
H1466 H 0.29284 0.76555 0.93794 0.0
N1467 N 0.26456 0.74915 0.95133 0.0
H1468 H 0.31303 0.75365 0.91791 0.0
H1469 H 0.26717 0.71655 0.94262 0.0
H1470 H 0.2877 0.7043 0.9228 0.0
H1471 H 0.23895 0.74424 0.92924 0.0
H1472 H 0.22634 0.7652 0.90973 0.0
H1473 H 0.27037 0.78397 0.95198 0.0
H1474 H 0.25749 0.805 0.93305 0.0
H1475 H 0.28992 0.76754 0.968 0.0
H1476 H 0.24519 0.73545 0.97587 0.0
H1477 H 0.29277 0.77158 0.99869 0.0
H1478 H 0.24855 0.73841 1.00686 0.0
H1479 H 0.30612 0.76828 0.09932 0.0
H1480 H 0.31551 0.74687 0.12011 0.0
H1481 H 0.27621 0.71187 0.10152 0.0
H1482 H 0.26663 0.73371 0.08108 0.0
H1483 H 0.24903 0.7577 0.09372 0.0
H1484 H 0.23318 0.77563 0.1133 0.0
H1485 H 0.26744 0.81808 0.10153 0.0
H1486 H 0.28363 0.79977 0.08257 0.0
H1487 H 0.30382 0.76432 0.05495 0.0
H1488 H 0.3007 0.75916 0.02433 0.0
H1489 H 0.2456 0.75637 0.03009 0.0
N1490 N 0.27939 0.76635 0.07821 0.0
H1491 H 0.24904 0.76039 0.06087 0.0
C1492 C 0.27843 0.74189 0.94185 0.0
C1493 C 0.29182 0.75209 0.93505 0.0
C1494 C 0.30342 0.74522 0.92354 0.0
C1495 C 0.30196 0.72801 0.91857 0.0
C1496 C 0.28906 0.71767 0.92607 0.0
C1497 C 0.27743 0.72457 0.93755 0.0
C1498 C 0.25554 0.76239 0.94216 0.0
C1499 C 0.24278 0.75756 0.93034 0.0
C1500 C 0.23557 0.76959 0.91921 0.0
C1501 C 0.24097 0.78682 0.9197 0.0
C1502 C 0.25323 0.7918 0.93209 0.0
C1503 C 0.26051 0.77973 0.94314 0.0
C1504 C 0.26715 0.75131 0.96954 0.0
C1505 C 0.28073 0.76126 0.97632 0.0
C1506 C 0.28246 0.76338 0.99404 0.0
C1507 C 0.27091 0.75532 1.0055 0.0
C1508 C 0.25752 0.74514 0.99859 0.0
C1509 C 0.25564 0.74327 0.98085 0.0
C1510 C 0.28579 0.75257 0.08866 0.0
C1511 C 0.29975 0.75587 0.09959 0.0
C1512 C 0.30512 0.74357 0.11142 0.0
C1513 C 0.29662 0.72759 0.11256 0.0
C1514 C 0.28291 0.7241 0.10117 0.0
C1515 C 0.2775 0.7365 0.08936 0.0
C1516 C 0.26768 0.77739 0.08683 0.0
C1517 C 0.25295 0.77094 0.09514 0.0
C1518 C 0.24384 0.78126 0.10631 0.0
C1519 C 0.24921 0.79825 0.10929 0.0
C1520 C 0.26319 0.80495 0.09992 0.0
C1521 C 0.27235 0.79459 0.0889 0.0
C1522 C 0.27674 0.76298 0.06021 0.0
C1523 C 0.29109 0.76249 0.04956 0.0
C1524 C 0.28923 0.75971 0.03198 0.0
C1525 C 0.27286 0.75757 0.02448 0.0
C1526 C 0.25844 0.75778 0.03529 0.0
C1527 C 0.26036 0.76027 0.05298 0.0
H1528 H 0.93555 0.23818 0.29785 0.0
N1529 N 0.95281 0.24768 0.27019 0.0
H1530 H 0.91746 0.25577 0.31569 0.0
H1531 H 0.95007 0.28247 0.26786 0.0
H1532 H 0.93191 0.3003 0.28566 0.0
H1533 H 0.93803 0.26631 0.24434 0.0
H1534 H 0.9175 0.25573 0.22316 0.0
H1535 H 0.94407 0.21527 0.26424 0.0
H1536 H 0.92375 0.20438 0.24267 0.0
H1537 H 0.97781 0.23555 0.28973 0.0
H1538 H 0.96871 0.26678 0.24503 0.0
H1539 H 0.00873 0.23964 0.28625 0.0
H1540 H 0.99951 0.27025 0.24085 0.0
H1541 H 0.08616 0.25039 0.28543 0.0
H1542 H 0.10626 0.26152 0.30693 0.0
H1543 H 0.11431 0.30695 0.27588 0.0
H1544 H 0.09496 0.29512 0.25406 0.0
H1545 H 0.08959 0.27109 0.22209 0.0
H1546 H 0.10983 0.25508 0.20506 0.0
H1547 H 0.11191 0.21648 0.24491 0.0
H1548 H 0.09215 0.23284 0.26197 0.0
H1549 H 0.06308 0.23586 0.26636 0.0
H1550 H 0.03222 0.23191 0.26972 0.0
H1551 H 0.0246 0.28348 0.25126 0.0
N1552 N 0.07977 0.26454 0.25396 0.0
H1553 H 0.0555 0.28689 0.24713 0.0
C1554 C 0.94411 0.25896 0.28158 0.0
C1555 C 0.93504 0.25179 0.29535 0.0
C1556 C 0.92475 0.26189 0.30553 0.0
C1557 C 0.92321 0.27947 0.30211 0.0
C1558 C 0.93269 0.28678 0.28853 0.0
C1559 C 0.94313 0.27663 0.2784 0.0
C1560 C 0.94263 0.24154 0.25593 0.0
C1561 C 0.93525 0.25275 0.24392 0.0
C1562 C 0.92349 0.24663 0.23172 0.0
C1563 C 0.91884 0.22918 0.23124 0.0
C1564 C 0.9268 0.21792 0.24283 0.0
C1565 C 0.93855 0.22407 0.25505 0.0
C1566 C 0.97092 0.25069 0.26763 0.0
C1567 C 0.98253 0.2432 0.27908 0.0
C1568 C 1.00022 0.24543 0.27695 0.0
C1569 C 1.00679 0.25517 0.26315 0.0
C1570 C 0.99504 0.26283 0.25174 0.0
C1571 C 0.97732 0.26073 0.25402 0.0
C1572 C 0.08931 0.27187 0.26803 0.0
C1573 C 0.09222 0.26275 0.28331 0.0
C1574 C 0.10364 0.26925 0.29568 0.0
C1575 C 0.11218 0.28508 0.29309 0.0
C1576 C 0.10838 0.29454 0.27816 0.0
C1577 C 0.09716 0.28793 0.26575 0.0
C1578 C 0.08921 0.25321 0.24323 0.0
C1579 C 0.09413 0.25897 0.22694 0.0
C1580 C 0.1057 0.24975 0.21723 0.0
C1581 C 0.11263 0.23447 0.22362 0.0
C1582 C 0.10706 0.2283 0.23967 0.0
C1583 C 0.09552 0.23758 0.24939 0.0
C1584 C 0.06161 0.26164 0.25623 0.0
C1585 C 0.0548 0.24625 0.26286 0.0
C1586 C 0.03705 0.24408 0.26496 0.0
C1587 C 0.02574 0.25736 0.26075 0.0
C1588 C 0.03274 0.27281 0.25432 0.0
C1589 C 0.05043 0.27486 0.25205 0.0
H1590 H 0.78101 0.09109 0.27465 0.0
N1591 N 0.75276 0.0768 0.25885 0.0
H1592 H 0.80209 0.11031 0.26166 0.0
H1593 H 0.75586 0.08462 0.22573 0.0
H1594 H 0.77729 0.10372 0.21241 0.0
H1595 H 0.72806 0.09922 0.25414 0.0
H1596 H 0.7168 0.11905 0.27503 0.0
H1597 H 0.75886 0.07579 0.29355 0.0
H1598 H 0.74729 0.09516 0.31467 0.0
H1599 H 0.78034 0.06071 0.2737 0.0
H1600 H 0.7307 0.05193 0.25047 0.0
H1601 H 0.7841 0.0301 0.27678 0.0
H1602 H 0.73399 0.0211 0.25421 0.0
H1603 H 0.80089 0.94082 0.28087 0.0
H1604 H 0.81868 0.92195 0.26407 0.0
H1605 H 0.77998 0.92103 0.22416 0.0
H1606 H 0.76217 0.9395 0.24127 0.0
H1607 H 0.73843 0.94075 0.25974 0.0
H1608 H 0.71821 0.9197 0.27163 0.0
H1609 H 0.74921 0.91662 0.31769 0.0
H1610 H 0.76977 0.93704 0.30518 0.0
H1611 H 0.77929 0.97496 0.29509 0.0
H1612 H 0.77496 1.00569 0.29219 0.0
H1613 H 0.74887 0.99727 0.24385 0.0
N1614 N 0.76918 0.95047 0.27387 0.0
H1615 H 0.75262 0.96655 0.24735 0.0
C1616 C 0.76679 0.08632 0.25112 0.0
C1617 C 0.78022 0.09348 0.26101 0.0
C1618 C 0.79236 0.1045 0.25352 0.0
C1619 C 0.79139 0.10865 0.23597 0.0
C1620 C 0.7783 0.10099 0.226 0.0
C1621 C 0.76615 0.08995 0.23353 0.0
C1622 C 0.74424 0.08599 0.27219 0.0
C1623 C 0.732 0.09805 0.26742 0.0
C1624 C 0.72556 0.10936 0.27942 0.0
C1625 C 0.73121 0.10884 0.29657 0.0
C1626 C 0.74286 0.09615 0.30153 0.0
C1627 C 0.74936 0.08488 0.28947 0.0
C1628 C 0.75523 0.05872 0.26164 0.0
C1629 C 0.77017 0.05224 0.26931 0.0
C1630 C 0.77224 0.0346 0.27122 0.0
C1631 C 0.75938 0.02297 0.26572 0.0
C1632 C 0.74434 0.02955 0.25832 0.0
C1633 C 0.74235 0.0472 0.2563 0.0
C1634 C 0.78028 0.94168 0.26237 0.0
C1635 C 0.79645 0.93682 0.26833 0.0
C1636 C 0.8066 0.92604 0.25867 0.0
C1637 C 0.80077 0.91987 0.24273 0.0
C1638 C 0.78479 0.92533 0.23646 0.0
C1639 C 0.77463 0.9361 0.24619 0.0
C1640 C 0.75571 0.94028 0.28155 0.0
C1641 C 0.74079 0.93562 0.27242 0.0
C1642 C 0.72916 0.92365 0.27934 0.0
C1643 C 0.73214 0.91623 0.29559 0.0
C1644 C 0.74666 0.9217 0.305 0.0
C1645 C 0.75834 0.93352 0.29799 0.0
C1646 C 0.76647 0.96848 0.27141 0.0
C1647 C 0.77264 0.97982 0.28389 0.0
C1648 C 0.77024 0.9974 0.28212 0.0
C1649 C 0.76166 1.00412 0.2677 0.0
C1650 C 0.75537 0.99264 0.25522 0.0
C1651 C 0.75767 0.97499 0.2571 0.0
H1652 H 0.1022 0.77694 0.29349 0.0
N1653 N 0.08075 0.77245 0.26729 0.0
H1654 H 0.12109 0.75585 0.30656 0.0
H1655 H 0.07971 0.738 0.26134 0.0
H1656 H 0.09806 0.71671 0.27465 0.0
H1657 H 0.08997 0.757 0.23766 0.0
H1658 H 0.11042 0.76837 0.21675 0.0
H1659 H 0.09266 0.80439 0.26513 0.0
H1660 H 0.11252 0.81628 0.24386 0.0
H1661 H 0.06074 0.79132 0.28635 0.0
H1662 H 0.05914 0.7536 0.24662 0.0
H1663 H 0.02952 0.79213 0.28626 0.0
H1664 H 0.02778 0.75329 0.24719 0.0
H1665 H 0.92936 0.78096 0.29428 0.0
H1666 H 0.90989 0.7595 0.3067 0.0
H1667 H 0.93351 0.72062 0.27635 0.0
H1668 H 0.95262 0.7424 0.26368 0.0
H1669 H 0.93994 0.76113 0.24049 0.0
H1670 H 0.91996 0.77311 0.21968 0.0
H1671 H 0.9233 0.82167 0.24552 0.0
H1672 H 0.94288 0.80926 0.2667 0.0
H1673 H 0.97409 0.77987 0.29527 0.0
H1674 H 1.00516 0.77753 0.29472 0.0
H1675 H 1.0026 0.76758 0.24035 0.0
N1676 N 0.95195 0.77675 0.26951 0.0
H1677 H 0.97143 0.76879 0.24135 0.0
C1678 C 0.08948 0.75911 0.27653 0.0
C1679 C 0.10102 0.76372 0.2896 0.0
C1680 C 0.11179 0.75162 0.29707 0.0
C1681 C 0.11123 0.73453 0.29161 0.0
C1682 C 0.09908 0.72979 0.27899 0.0
C1683 C 0.08837 0.74195 0.27147 0.0
C1684 C 0.08992 0.77985 0.25303 0.0
C1685 C 0.09462 0.77003 0.23892 0.0
C1686 C 0.10631 0.77662 0.22692 0.0
C1687 C 0.1134 0.79321 0.2287 0.0
C1688 C 0.10771 0.80333 0.24226 0.0
C1689 C 0.09618 0.79667 0.25432 0.0
C1690 C 0.06227 0.77224 0.26677 0.0
C1691 C 0.05356 0.78301 0.27778 0.0
C1692 C 0.03566 0.78329 0.27779 0.0
C1693 C 0.02588 0.77255 0.26692 0.0
C1694 C 0.03473 0.76183 0.2557 0.0
C1695 C 0.05273 0.76179 0.25551 0.0
C1696 C 0.94242 0.76329 0.27814 0.0
C1697 C 0.93048 0.76774 0.29056 0.0
C1698 C 0.91941 0.75542 0.29767 0.0
C1699 C 0.92004 0.73827 0.29251 0.0
C1700 C 0.93247 0.73372 0.28045 0.0
C1701 C 0.94353 0.74612 0.27329 0.0
C1702 C 0.94289 0.78433 0.25522 0.0
C1703 C 0.93663 0.77443 0.24151 0.0
C1704 C 0.9252 0.78136 0.22954 0.0
C1705 C 0.91981 0.79836 0.23097 0.0
C1706 C 0.92687 0.80846 0.24418 0.0
C1707 C 0.93824 0.80148 0.25618 0.0
C1708 C 0.97032 0.77477 0.26841 0.0
C1709 C 0.98025 0.77707 0.28326 0.0
C1710 C 0.9981 0.7759 0.28284 0.0
C1711 C 1.00665 0.77268 0.26741 0.0
C1712 C 0.99661 0.76997 0.25253 0.0
C1713 C 0.97865 0.77084 0.25304 0.0
H1714 H 0.30715 0.92981 0.24212 0.0
N1715 N 0.28053 0.94761 0.25209 0.0
H1716 H 0.32402 0.90982 0.25916 0.0
H1717 H 0.27812 0.94265 0.28667 0.0
H1718 H 0.29503 0.92262 0.30405 0.0
H1719 H 0.25304 0.93441 0.26946 0.0
H1720 H 0.23129 0.91461 0.25816 0.0
H1721 H 0.2754 0.93946 0.21941 0.0
H1722 H 0.25331 0.92009 0.20773 0.0
H1723 H 0.30662 0.96995 0.25107 0.0
H1724 H 0.25219 0.96658 0.25999 0.0
H1725 H 0.30587 1.00087 0.25372 0.0
H1726 H 0.25107 0.99758 0.26144 0.0
H1727 H 0.30315 0.0977 0.2516 0.0
H1728 H 0.31497 0.11769 0.27269 0.0
H1729 H 0.28168 0.09535 0.31117 0.0
H1730 H 0.26963 0.07589 0.28987 0.0
H1731 H 0.24639 0.08389 0.26962 0.0
H1732 H 0.22527 0.103 0.25704 0.0
H1733 H 0.25478 0.1058 0.21043 0.0
H1734 H 0.27617 0.08718 0.2235 0.0
H1735 H 0.29736 0.05567 0.23818 0.0
H1736 H 0.29782 0.02456 0.23829 0.0
H1737 H 0.25708 0.02318 0.27558 0.0
N1738 N 0.2771 0.07577 0.25563 0.0
H1739 H 0.25602 0.05435 0.27436 0.0
C1740 C 0.29146 0.93766 0.26311 0.0
C1741 C 0.30468 0.9285 0.2557 0.0
C1742 C 0.31431 0.91712 0.2655 0.0
C1743 C 0.3109 0.91458 0.28301 0.0
C1744 C 0.29788 0.92414 0.29057 0.0
C1745 C 0.28827 0.93564 0.2807 0.0
C1746 C 0.26588 0.93837 0.24523 0.0
C1747 C 0.25303 0.93153 0.25594 0.0
C1748 C 0.24053 0.92025 0.2494 0.0
C1749 C 0.2406 0.91558 0.23202 0.0
C1750 C 0.25303 0.92312 0.22122 0.0
C1751 C 0.26554 0.93435 0.2278 0.0
C1752 C 0.27955 0.96577 0.25522 0.0
C1753 C 0.29449 0.97588 0.25363 0.0
C1754 C 0.29396 0.99366 0.25491 0.0
C1755 C 0.27833 1.00197 0.25745 0.0
C1756 C 0.26339 0.99177 0.25959 0.0
C1757 C 0.26399 0.97389 0.25863 0.0
C1758 C 0.2856 0.08524 0.2691 0.0
C1759 C 0.29868 0.09693 0.26469 0.0
C1760 C 0.30543 0.10833 0.2768 0.0
C1761 C 0.29922 0.10826 0.29367 0.0
C1762 C 0.28658 0.09599 0.29824 0.0
C1763 C 0.27978 0.08466 0.28608 0.0
C1764 C 0.26291 0.08418 0.24748 0.0
C1765 C 0.24814 0.08836 0.2566 0.0
C1766 C 0.23603 0.0993 0.24932 0.0
C1767 C 0.23838 0.10619 0.23275 0.0
C1768 C 0.2527 0.10109 0.22334 0.0
C1769 C 0.26484 0.09027 0.23068 0.0
C1770 C 0.27691 0.05736 0.25641 0.0
C1771 C 0.28855 0.0486 0.24637 0.0
C1772 C 0.28888 0.03076 0.24662 0.0
C1773 C 0.27768 0.02112 0.25718 0.0
C1774 C 0.26586 0.03001 0.2672 0.0
C1775 C 0.26538 0.04794 0.26671 0.0
H1776 H 0.09591 0.72202 0.77663 0.0
N1777 N 0.07821 0.75057 0.77486 0.0
H1778 H 0.11571 0.71109 0.75544 0.0
H1779 H 0.08197 0.76255 0.74187 0.0
H1780 H 0.10117 0.75146 0.72042 0.0
H1781 H 0.09532 0.7801 0.76584 0.0
H1782 H 0.11658 0.79538 0.78337 0.0
H1783 H 0.08426 0.74599 0.80805 0.0
H1784 H 0.10497 0.76158 0.82597 0.0
H1785 H 0.05195 0.73198 0.78645 0.0
H1786 H 0.0642 0.77836 0.75882 0.0
H1787 H 0.02145 0.7381 0.7842 0.0
H1788 H 0.03379 0.78399 0.75515 0.0
H1789 H 0.93508 0.74733 0.76906 0.0
H1790 H 0.91443 0.7314 0.75151 0.0
H1791 H 0.92797 0.76298 0.7078 0.0
H1792 H 0.94811 0.77933 0.72575 0.0
H1793 H 0.93373 0.80364 0.757 0.0
H1794 H 0.91356 0.81404 0.77806 0.0
H1795 H 0.93031 0.77529 0.81393 0.0
H1796 H 0.95011 0.76468 0.79243 0.0
H1797 H 0.96737 0.74446 0.76369 0.0
H1798 H 0.99763 0.73852 0.76693 0.0
H1799 H 0.00913 0.79279 0.76785 0.0
N1800 N 0.95303 0.77619 0.75937 0.0
H1801 H 0.97882 0.79853 0.76323 0.0
C1802 C 0.08735 0.74301 0.76092 0.0
C1803 C 0.09677 0.72827 0.76423 0.0
C1804 C 0.10807 0.72204 0.75206 0.0
C1805 C 0.11019 0.73045 0.7362 0.0
C1806 C 0.10013 0.74482 0.7326 0.0
C1807 C 0.08891 0.75109 0.74484 0.0
C1808 C 0.08835 0.76175 0.78564 0.0
C1809 C 0.09716 0.77616 0.77902 0.0
C1810 C 0.1093 0.78494 0.78911 0.0
C1811 C 0.11275 0.77954 0.80602 0.0
C1812 C 0.10299 0.76583 0.81288 0.0
C1813 C 0.09101 0.75701 0.80275 0.0
C1814 C 0.06034 0.75447 0.77255 0.0
C1815 C 0.04798 0.74334 0.77959 0.0
C1816 C 0.0305 0.74684 0.77815 0.0
C1817 C 0.02489 0.76152 0.76934 0.0
C1818 C 0.03743 0.77268 0.76225 0.0
C1819 C 0.05494 0.76932 0.76404 0.0
C1820 C 0.94302 0.7647 0.74872 0.0
C1821 C 0.93375 0.75071 0.75566 0.0
C1822 C 0.92199 0.74151 0.74554 0.0
C1823 C 0.91931 0.74603 0.72825 0.0
C1824 C 0.92938 0.75938 0.72115 0.0
C1825 C 0.94105 0.76863 0.73131 0.0
C1826 C 0.94343 0.78349 0.77314 0.0
C1827 C 0.93326 0.79764 0.76954 0.0
C1828 C 0.92176 0.80358 0.78165 0.0
C1829 C 0.92019 0.79548 0.79774 0.0
C1830 C 0.93096 0.78168 0.80159 0.0
C1831 C 0.94243 0.7757 0.7894 0.0
C1832 C 0.97072 0.77205 0.76291 0.0
C1833 C 0.97633 0.75512 0.76448 0.0
C1834 C 0.99381 0.75173 0.76654 0.0
C1835 C 1.00612 0.76514 0.76754 0.0
C1836 C 1.00028 0.78205 0.76666 0.0
C1837 C 0.98287 0.7854 0.76423 0.0
H1838 H 0.28963 0.08707 0.77977 0.0
N1839 N 0.26112 0.07362 0.76384 0.0
H1840 H 0.31041 0.10705 0.76717 0.0
H1841 H 0.26418 0.08186 0.73091 0.0
H1842 H 0.28535 0.10135 0.71791 0.0
H1843 H 0.23563 0.0949 0.75799 0.0
H1844 H 0.22311 0.11481 0.77807 0.0
H1845 H 0.26644 0.07382 0.79874 0.0
H1846 H 0.25366 0.09319 0.81897 0.0
H1847 H 0.28459 0.05645 0.78359 0.0
H1848 H 0.24252 0.04968 0.74814 0.0
H1849 H 0.28703 0.02561 0.78649 0.0
H1850 H 0.24563 0.01876 0.74983 0.0
H1851 H 0.29884 0.92395 0.77951 0.0
H1852 H 0.31053 0.90498 0.75806 0.0
H1853 H 0.27941 0.92921 0.71913 0.0
H1854 H 0.26745 0.9478 0.74088 0.0
H1855 H 0.24525 0.93286 0.7594 0.0
H1856 H 0.22465 0.91253 0.7716 0.0
H1857 H 0.25016 0.91674 0.82077 0.0
H1858 H 0.27119 0.93673 0.80816 0.0
H1859 H 0.29843 0.97004 0.77717 0.0
H1860 H 0.29588 1.0009 0.77389 0.0
H1861 H 0.24124 0.99434 0.76577 0.0
N1862 N 0.27382 0.94615 0.7754 0.0
H1863 H 0.24415 0.96365 0.76781 0.0
C1864 C 0.27524 0.08305 0.75625 0.0
C1865 C 0.28876 0.08989 0.76621 0.0
C1866 C 0.30071 0.10132 0.75893 0.0
C1867 C 0.29948 0.10605 0.74152 0.0
C1868 C 0.28649 0.09835 0.73143 0.0
C1869 C 0.27449 0.08705 0.73876 0.0
C1870 C 0.25193 0.08278 0.77673 0.0
C1871 C 0.23932 0.09423 0.77137 0.0
C1872 C 0.23216 0.10559 0.78291 0.0
C1873 C 0.23746 0.10576 0.80017 0.0
C1874 C 0.24949 0.09367 0.80572 0.0
C1875 C 0.25671 0.08237 0.79413 0.0
C1876 C 0.26306 0.05541 0.7659 0.0
C1877 C 0.2758 0.04833 0.77646 0.0
C1878 C 0.27737 0.03056 0.77786 0.0
C1879 C 0.26652 0.01942 0.76842 0.0
C1880 C 0.25398 0.0267 0.75766 0.0
C1881 C 0.25224 0.04443 0.75655 0.0
C1882 C 0.28235 0.93729 0.76184 0.0
C1883 C 0.29484 0.92537 0.76627 0.0
C1884 C 0.30152 0.91456 0.75395 0.0
C1885 C 0.29587 0.91545 0.73681 0.0
C1886 C 0.28387 0.92797 0.73223 0.0
C1887 C 0.27713 0.93875 0.74462 0.0
C1888 C 0.25986 0.93631 0.7829 0.0
C1889 C 0.24632 0.9296 0.77285 0.0
C1890 C 0.23443 0.91801 0.77991 0.0
C1891 C 0.23576 0.91285 0.79718 0.0
C1892 C 0.24889 0.92017 0.80736 0.0
C1893 C 0.26081 0.93175 0.80026 0.0
C1894 C 0.27159 0.96436 0.77292 0.0
C1895 C 0.28593 0.9753 0.77454 0.0
C1896 C 0.28438 0.99302 0.77284 0.0
C1897 C 0.26829 1.00038 0.76973 0.0
C1898 C 0.25391 0.98933 0.76792 0.0
C1899 C 0.25555 0.97157 0.76928 0.0
H1900 H 0.94041 0.24104 0.76083 0.0
N1901 N 0.95291 0.2699 0.77636 0.0
H1902 H 0.92046 0.22011 0.77319 0.0
H1903 H 0.94378 0.26716 0.80907 0.0
H1904 H 0.92418 0.24588 0.82184 0.0
H1905 H 0.93087 0.29481 0.78092 0.0
H1906 H 0.91134 0.30712 0.75978 0.0
H1907 H 0.95327 0.26402 0.7419 0.0
H1908 H 0.93406 0.27657 0.72041 0.0
H1909 H 0.97176 0.24128 0.76913 0.0
H1910 H 0.97568 0.29541 0.77836 0.0
H1911 H 1.00286 0.23973 0.76828 0.0
H1912 H 1.00677 0.29424 0.77631 0.0
H1913 H 0.08973 0.23422 0.7604 0.0
H1914 H 0.10926 0.2136 0.77316 0.0
H1915 H 0.11233 0.24394 0.81912 0.0
H1916 H 0.09334 0.26484 0.80582 0.0
H1917 H 0.10316 0.29146 0.77718 0.0
H1918 H 0.12284 0.30327 0.75573 0.0
H1919 H 0.10093 0.26892 0.71807 0.0
H1920 H 0.0818 0.25689 0.73975 0.0
H1921 H 0.05988 0.24413 0.75536 0.0
H1922 H 0.02861 0.24543 0.75429 0.0
H1923 H 0.03046 0.2859 0.79168 0.0
N1924 N 0.08161 0.26506 0.7738 0.0
H1925 H 0.06168 0.28522 0.79158 0.0
C1926 C 0.94357 0.25573 0.78406 0.0
C1927 C 0.93716 0.24204 0.77422 0.0
C1928 C 0.92577 0.23 0.78137 0.0
C1929 C 0.92055 0.23134 0.79852 0.0
C1930 C 0.92766 0.2446 0.80853 0.0
C1931 C 0.93902 0.25666 0.80133 0.0
C1932 C 0.94351 0.27858 0.763 0.0
C1933 C 0.93182 0.29104 0.76765 0.0
C1934 C 0.92069 0.29809 0.75551 0.0
C1935 C 0.92102 0.29282 0.73834 0.0
C1936 C 0.93325 0.28075 0.73355 0.0
C1937 C 0.94437 0.27367 0.74577 0.0
C1938 C 0.97125 0.26851 0.77415 0.0
C1939 C 0.97923 0.25292 0.77079 0.0
C1940 C 0.99718 0.25207 0.77014 0.0
C1941 C 0.00757 0.26681 0.77247 0.0
C1942 C 0.9994 0.28247 0.775 0.0
C1943 C 0.98155 0.28324 0.77597 0.0
C1944 C 0.09019 0.25113 0.78217 0.0
C1945 C 0.09437 0.23626 0.77332 0.0
C1946 C 0.10554 0.22443 0.78071 0.0
C1947 C 0.11264 0.22717 0.79714 0.0
C1948 C 0.10749 0.24157 0.80632 0.0
C1949 C 0.09645 0.25343 0.79886 0.0
C1950 C 0.09094 0.2734 0.76012 0.0
C1951 C 0.10242 0.28675 0.76419 0.0
C1952 C 0.11363 0.29349 0.75187 0.0
C1953 C 0.11358 0.28701 0.73512 0.0
C1954 C 0.10154 0.27405 0.73089 0.0
C1955 C 0.0904 0.26726 0.74327 0.0
C1956 C 0.06313 0.26488 0.7733 0.0
C1957 C 0.05355 0.25347 0.76307 0.0
C1958 C 0.03556 0.25409 0.76268 0.0
C1959 C 0.02678 0.26592 0.77275 0.0
C1960 C 0.03658 0.27696 0.78331 0.0
C1961 C 0.05448 0.2765 0.78344 0.0
H1962 H 0.78548 0.93589 0.75757 0.0
N1963 N 0.75851 0.9493 0.7747 0.0
H1964 H 0.80643 0.9161 0.76926 0.0
H1965 H 0.76322 0.94096 0.80751 0.0
H1966 H 0.78455 0.92157 0.81956 0.0
H1967 H 0.73116 0.93117 0.78427 0.0
H1968 H 0.71386 0.9114 0.767 0.0
H1969 H 0.76136 0.94478 0.74014 0.0
H1970 H 0.74407 0.92491 0.72257 0.0
H1971 H 0.78845 0.96753 0.76755 0.0
H1972 H 0.73375 0.97221 0.77297 0.0
H1973 H 0.79139 0.99822 0.76395 0.0
H1974 H 0.73644 1.0029 0.76814 0.0
H1975 H 0.79754 0.099 0.75479 0.0
H1976 H 0.80958 0.11899 0.77574 0.0
H1977 H 0.77788 0.09566 0.81495 0.0
H1978 H 0.76559 0.0762 0.79388 0.0
H1979 H 0.74293 0.08869 0.77429 0.0
H1980 H 0.72248 0.10819 0.76143 0.0
H1981 H 0.74903 0.10534 0.71319 0.0
H1982 H 0.7698 0.0861 0.72643 0.0
H1983 H 0.79097 0.05318 0.74486 0.0
H1984 H 0.78774 0.02213 0.74692 0.0
H1985 H 0.74471 0.02813 0.78083 0.0
N1986 N 0.77186 0.07674 0.75919 0.0
H1987 H 0.74735 0.05895 0.77759 0.0
C1988 C 0.77273 0.93988 0.78171 0.0
C1989 C 0.78531 0.93299 0.77114 0.0
C1990 C 0.79738 0.92172 0.7779 0.0
C1991 C 0.79714 0.91709 0.79537 0.0
C1992 C 0.78496 0.9246 0.80601 0.0
C1993 C 0.77288 0.93584 0.79921 0.0
C1994 C 0.74748 0.93938 0.76353 0.0
C1995 C 0.73383 0.93006 0.77074 0.0
C1996 C 0.72395 0.91881 0.76082 0.0
C1997 C 0.72756 0.91655 0.74337 0.0
C1998 C 0.74106 0.92623 0.736 0.0
C1999 C 0.75089 0.93763 0.74598 0.0
C2000 C 0.76077 0.96732 0.77063 0.0
C2001 C 0.77696 0.97502 0.76768 0.0
C2002 C 0.77864 0.99277 0.76547 0.0
C2003 C 0.76418 1.00331 0.76585 0.0
C2004 C 0.74797 0.99544 0.76819 0.0
C2005 C 0.74635 0.97778 0.77072 0.0
C2006 C 0.78072 0.08602 0.77263 0.0
C2007 C 0.79349 0.09799 0.768 0.0
C2008 C 0.80037 0.1094 0.78003 0.0
C2009 C 0.79462 0.10908 0.79706 0.0
C2010 C 0.7824 0.0965 0.80189 0.0
C2011 C 0.77546 0.08516 0.78981 0.0
C2012 C 0.75796 0.0859 0.75128 0.0
C2013 C 0.74418 0.09193 0.76086 0.0
C2014 C 0.73243 0.10313 0.75344 0.0
C2015 C 0.73414 0.10851 0.73627 0.0
C2016 C 0.74747 0.10174 0.72652 0.0
C2017 C 0.75924 0.09059 0.73398 0.0
C2018 C 0.76962 0.05847 0.7612 0.0
C2019 C 0.78084 0.04772 0.7527 0.0
C2020 C 0.77902 0.02992 0.75403 0.0
C2021 C 0.76599 0.02238 0.76414 0.0
C2022 C 0.75474 0.03328 0.77268 0.0
C2023 C 0.75639 0.05107 0.77107 0.0
H2024 H 0.2744 0.73334 0.42994 0.0
N2025 N 0.26943 0.75923 0.4509 0.0
H2026 H 0.25385 0.72056 0.40977 0.0
H2027 H 0.23472 0.76494 0.44984 0.0
H2028 H 0.21403 0.75193 0.43023 0.0
H2029 H 0.25453 0.78772 0.4373 0.0
H2030 H 0.26775 0.80799 0.41731 0.0
H2031 H 0.3024 0.76166 0.44278 0.0
H2032 H 0.31603 0.78228 0.42318 0.0
H2033 H 0.28402 0.74069 0.47535 0.0
H2034 H 0.25047 0.78311 0.46756 0.0
H2035 H 0.28169 0.74379 0.50631 0.0
H2036 H 0.2469 0.78557 0.49837 0.0
H2037 H 0.27062 0.74333 0.59134 0.0
H2038 H 0.25826 0.72213 0.61084 0.0
H2039 H 0.20912 0.74641 0.60633 0.0
H2040 H 0.22186 0.768 0.58709 0.0
H2041 H 0.25011 0.79605 0.60101 0.0
H2042 H 0.27123 0.80813 0.62098 0.0
H2043 H 0.31071 0.77862 0.59727 0.0
H2044 H 0.2893 0.76626 0.57769 0.0
H2045 H 0.26156 0.74199 0.56045 0.0
H2046 H 0.26461 0.73941 0.5298 0.0
H2047 H 0.25904 0.79401 0.52397 0.0
N2048 N 0.2547 0.77154 0.57831 0.0
H2049 H 0.25474 0.79629 0.55477 0.0
C2050 C 0.25622 0.75004 0.44149 0.0
C2051 C 0.26114 0.73716 0.43029 0.0
C2052 C 0.24934 0.72986 0.41878 0.0
C2053 C 0.23226 0.7353 0.41823 0.0
C2054 C 0.22714 0.74764 0.43006 0.0
C2055 C 0.23899 0.755 0.4415 0.0
C2056 C 0.27751 0.77309 0.44151 0.0
C2057 C 0.26802 0.78662 0.43456 0.0
C2058 C 0.27566 0.79827 0.42311 0.0
C2059 C 0.29295 0.7967 0.41842 0.0
C2060 C 0.3026 0.78369 0.42618 0.0
C2061 C 0.29492 0.77201 0.43754 0.0
C2062 C 0.26726 0.76142 0.46909 0.0
C2063 C 0.27592 0.75051 0.48037 0.0
C2064 C 0.27442 0.75225 0.49811 0.0
C2065 C 0.26395 0.76486 0.50509 0.0
C2066 C 0.25528 0.77584 0.49366 0.0
C2067 C 0.25708 0.77428 0.47589 0.0
C2068 C 0.24713 0.75732 0.58771 0.0
C2069 C 0.25714 0.744 0.59434 0.0
C2070 C 0.24999 0.73178 0.60546 0.0
C2071 C 0.23267 0.73256 0.61027 0.0
C2072 C 0.22255 0.74554 0.60312 0.0
C2073 C 0.22973 0.75778 0.59197 0.0
C2074 C 0.26808 0.78033 0.58786 0.0
C2075 C 0.26339 0.79248 0.59994 0.0
C2076 C 0.27553 0.79939 0.61131 0.0
C2077 C 0.29271 0.7943 0.61086 0.0
C2078 C 0.29755 0.78264 0.5982 0.0
C2079 C 0.28536 0.77567 0.58686 0.0
C2080 C 0.25768 0.76943 0.56013 0.0
C2081 C 0.26088 0.75347 0.55273 0.0
C2082 C 0.26283 0.75201 0.53499 0.0
C2083 C 0.26205 0.76647 0.52413 0.0
C2084 C 0.25932 0.78246 0.53168 0.0
C2085 C 0.25704 0.78385 0.54937 0.0
H2086 H 0.78857 0.79621 0.59639 0.0
N2087 N 0.77726 0.76941 0.57885 0.0
H2088 H 0.77238 0.81407 0.61572 0.0
H2089 H 0.74248 0.76808 0.5832 0.0
H2090 H 0.72598 0.78597 0.60257 0.0
H2091 H 0.75833 0.7436 0.5937 0.0
H2092 H 0.76871 0.72258 0.61438 0.0
H2093 H 0.80977 0.76326 0.58694 0.0
H2094 H 0.8205 0.74178 0.60713 0.0
H2095 H 0.77602 0.79388 0.55495 0.0
H2096 H 0.76928 0.73942 0.56171 0.0
H2097 H 0.77131 0.79086 0.52426 0.0
H2098 H 0.76581 0.73616 0.53106 0.0
H2099 H 0.77711 0.78403 0.43865 0.0
H2100 H 0.76409 0.80449 0.41908 0.0
H2101 H 0.71553 0.77734 0.42344 0.0
H2102 H 0.72893 0.75657 0.44274 0.0
H2103 H 0.75682 0.72945 0.42985 0.0
H2104 H 0.77731 0.71796 0.40966 0.0
H2105 H 0.8173 0.74992 0.43179 0.0
H2106 H 0.79667 0.76165 0.45146 0.0
H2107 H 0.78093 0.77945 0.46856 0.0
H2108 H 0.78406 0.78237 0.49938 0.0
H2109 H 0.74908 0.73944 0.50683 0.0
N2110 N 0.76185 0.75494 0.45156 0.0
H2111 H 0.74713 0.73592 0.47581 0.0
C2112 C 0.76677 0.78088 0.5884 0.0
C2113 C 0.77486 0.79413 0.59747 0.0
C2114 C 0.76555 0.80433 0.60848 0.0
C2115 C 0.74785 0.80147 0.61073 0.0
C2116 C 0.73962 0.7884 0.60127 0.0
C2117 C 0.74899 0.77823 0.59013 0.0
C2118 C 0.78331 0.75511 0.58887 0.0
C2119 C 0.77192 0.74319 0.59645 0.0
C2120 C 0.77793 0.73106 0.60821 0.0
C2121 C 0.79546 0.73055 0.61261 0.0
C2122 C 0.80689 0.74199 0.60433 0.0
C2123 C 0.80084 0.75415 0.59265 0.0
C2124 C 0.77297 0.76702 0.5609 0.0
C2125 C 0.77347 0.78126 0.54985 0.0
C2126 C 0.77102 0.77945 0.53219 0.0
C2127 C 0.76838 0.76321 0.52491 0.0
C2128 C 0.76758 0.74893 0.53604 0.0
C2129 C 0.7697 0.7508 0.55378 0.0
C2130 C 0.75395 0.76871 0.44218 0.0
C2131 C 0.7636 0.78263 0.4357 0.0
C2132 C 0.75608 0.79439 0.42447 0.0
C2133 C 0.73875 0.79253 0.41953 0.0
C2134 C 0.72897 0.77901 0.4267 0.0
C2135 C 0.73653 0.76724 0.43788 0.0
C2136 C 0.77507 0.74636 0.44226 0.0
C2137 C 0.7701 0.73367 0.43057 0.0
C2138 C 0.78187 0.72711 0.41904 0.0
C2139 C 0.79899 0.7331 0.41894 0.0
C2140 C 0.80417 0.74522 0.43126 0.0
C2141 C 0.79234 0.75184 0.44273 0.0
C2142 C 0.76403 0.75718 0.4698 0.0
C2143 C 0.77419 0.77045 0.47677 0.0
C2144 C 0.77572 0.77229 0.49456 0.0
C2145 C 0.76681 0.76117 0.50586 0.0
C2146 C 0.75646 0.74807 0.49873 0.0
C2147 C 0.75521 0.74607 0.48095 0.0
H2148 H 0.79432 0.26321 0.59251 0.0
N2149 N 0.76334 0.2702 0.57789 0.0
H2150 H 0.80946 0.28084 0.61377 0.0
H2151 H 0.75698 0.30244 0.58534 0.0
H2152 H 0.77236 0.32053 0.60592 0.0
H2153 H 0.73296 0.27136 0.59291 0.0
H2154 H 0.72072 0.25077 0.61337 0.0
H2155 H 0.77582 0.23853 0.58523 0.0
H2156 H 0.76347 0.2176 0.60507 0.0
H2157 H 0.78768 0.2516 0.56176 0.0
H2158 H 0.7457 0.28555 0.55321 0.0
H2159 H 0.79081 0.24819 0.53094 0.0
H2160 H 0.74955 0.28351 0.52233 0.0
H2161 H 0.80225 0.25067 0.42828 0.0
H2162 H 0.81494 0.27135 0.40826 0.0
H2163 H 0.78586 0.31142 0.43138 0.0
H2164 H 0.77289 0.29044 0.45104 0.0
H2165 H 0.74975 0.27219 0.43723 0.0
H2166 H 0.72827 0.26007 0.41787 0.0
H2167 H 0.75138 0.21058 0.42339 0.0
H2168 H 0.77328 0.22308 0.44246 0.0
H2169 H 0.80218 0.25534 0.47451 0.0
H2170 H 0.7997 0.25976 0.50528 0.0
H2171 H 0.74514 0.26673 0.49888 0.0
N2172 N 0.77756 0.25585 0.45074 0.0
H2173 H 0.74798 0.26359 0.46829 0.0
C2174 C 0.77441 0.2815 0.58753 0.0
C2175 C 0.78964 0.27581 0.59521 0.0
C2176 C 0.79832 0.28596 0.60732 0.0
C2177 C 0.79195 0.302 0.61186 0.0
C2178 C 0.77739 0.30807 0.60313 0.0
C2179 C 0.76869 0.29788 0.59119 0.0
C2180 C 0.75519 0.25649 0.58742 0.0
C2181 C 0.73946 0.25946 0.59527 0.0
C2182 C 0.73249 0.24765 0.60696 0.0
C2183 C 0.74115 0.23252 0.61103 0.0
C2184 C 0.75658 0.22923 0.60251 0.0
C2185 C 0.76358 0.24112 0.59092 0.0
C2186 C 0.76611 0.26848 0.55977 0.0
C2187 C 0.7791 0.25831 0.55323 0.0
C2188 C 0.78105 0.25663 0.53548 0.0
C2189 C 0.77035 0.26545 0.52386 0.0
C2190 C 0.75774 0.27607 0.53065 0.0
C2191 C 0.75559 0.27742 0.54835 0.0
C2192 C 0.7867 0.26896 0.44116 0.0
C2193 C 0.7989 0.26398 0.42922 0.0
C2194 C 0.80616 0.27586 0.41781 0.0
C2195 C 0.80138 0.29309 0.41809 0.0
C2196 C 0.78965 0.29822 0.4306 0.0
C2197 C 0.78234 0.28628 0.44199 0.0
C2198 C 0.76321 0.24851 0.44132 0.0
C2199 C 0.75012 0.2587 0.43447 0.0
C2200 C 0.73772 0.25169 0.42343 0.0
C2201 C 0.73809 0.23432 0.41896 0.0
C2202 C 0.75084 0.22404 0.42634 0.0
C2203 C 0.76326 0.23109 0.43738 0.0
C2204 C 0.77538 0.25898 0.46888 0.0
C2205 C 0.78972 0.25799 0.47978 0.0
C2206 C 0.78821 0.26034 0.49746 0.0
C2207 C 0.77217 0.2635 0.50484 0.0
C2208 C 0.7578 0.26463 0.49384 0.0
C2209 C 0.75939 0.26262 0.47612 0.0
H2210 H 0.28973 0.2642 0.44246 0.0
N2211 N 0.26006 0.24764 0.45178 0.0
H2212 H 0.31122 0.25339 0.423 0.0
H2213 H 0.26298 0.21561 0.44145 0.0
H2214 H 0.2848 0.20435 0.42249 0.0
H2215 H 0.23489 0.24214 0.42932 0.0
H2216 H 0.22222 0.26279 0.4095 0.0
H2217 H 0.26559 0.2823 0.45213 0.0
H2218 H 0.25266 0.30313 0.43284 0.0
H2219 H 0.28134 0.26671 0.47266 0.0
H2220 H 0.23937 0.23022 0.47247 0.0
H2221 H 0.27973 0.26855 0.5039 0.0
H2222 H 0.23824 0.23112 0.50364 0.0
H2223 H 0.28303 0.25772 0.59518 0.0
H2224 H 0.29918 0.24041 0.61564 0.0
H2225 H 0.26456 0.1977 0.60612 0.0
H2226 H 0.24807 0.21548 0.5863 0.0
H2227 H 0.22538 0.24719 0.60014 0.0
H2228 H 0.21559 0.26901 0.61972 0.0
H2229 H 0.2551 0.30371 0.60096 0.0
H2230 H 0.26504 0.2814 0.58172 0.0
H2231 H 0.28205 0.25455 0.56177 0.0
H2232 H 0.28461 0.25465 0.53053 0.0
H2233 H 0.22958 0.24827 0.52595 0.0
N2234 N 0.25257 0.24867 0.58003 0.0
H2235 H 0.2274 0.24719 0.55707 0.0
C2236 C 0.27469 0.24069 0.44334 0.0
C2237 C 0.28875 0.25103 0.43845 0.0
C2238 C 0.30109 0.24478 0.4273 0.0
C2239 C 0.29967 0.22802 0.42092 0.0
C2240 C 0.28613 0.21742 0.42679 0.0
C2241 C 0.27377 0.22373 0.43781 0.0
C2242 C 0.2511 0.26061 0.44225 0.0
C2243 C 0.23855 0.25551 0.43033 0.0
C2244 C 0.2313 0.26736 0.41904 0.0
C2245 C 0.23647 0.28467 0.41946 0.0
C2246 C 0.24857 0.28988 0.43194 0.0
C2247 C 0.25588 0.27797 0.44316 0.0
C2248 C 0.26022 0.24851 0.47022 0.0
C2249 C 0.27179 0.25907 0.47934 0.0
C2250 C 0.27096 0.25996 0.49728 0.0
C2251 C 0.25869 0.25016 0.50645 0.0
C2252 C 0.24753 0.23926 0.49715 0.0
C2253 C 0.24824 0.23857 0.4793 0.0
C2254 C 0.2642 0.23789 0.58939 0.0
C2255 C 0.27908 0.24456 0.59733 0.0
C2256 C 0.28836 0.23458 0.60899 0.0
C2257 C 0.28302 0.2177 0.61282 0.0
C2258 C 0.26881 0.21077 0.60387 0.0
C2259 C 0.25947 0.22081 0.59237 0.0
C2260 C 0.24582 0.26271 0.58948 0.0
C2261 C 0.23169 0.25963 0.60008 0.0
C2262 C 0.2261 0.27217 0.61122 0.0
C2263 C 0.23454 0.28819 0.612 0.0
C2264 C 0.24842 0.29146 0.60089 0.0
C2265 C 0.25404 0.27881 0.58976 0.0
C2266 C 0.25451 0.25055 0.56175 0.0
C2267 C 0.27057 0.25316 0.55401 0.0
C2268 C 0.27199 0.25334 0.53608 0.0
C2269 C 0.25734 0.25116 0.52555 0.0
C2270 C 0.24124 0.24944 0.53349 0.0
C2271 C 0.2399 0.24901 0.55132 0.0
H2272 H 0.76908 0.43427 0.785 0.0
N2273 N 0.761 0.4501 0.75471 0.0
H2274 H 0.75114 0.41326 0.80022 0.0
H2275 H 0.72797 0.44335 0.74915 0.0
H2276 H 0.70961 0.42293 0.76466 0.0
H2277 H 0.75982 0.43194 0.72621 0.0
H2278 H 0.78113 0.41208 0.71596 0.0
H2279 H 0.79364 0.44665 0.76759 0.0
H2280 H 0.81528 0.42737 0.75715 0.0
H2281 H 0.77673 0.46549 0.78219 0.0
H2282 H 0.7493 0.47528 0.73521 0.0
H2283 H 0.78005 0.49609 0.78695 0.0
H2284 H 0.75123 0.50594 0.74042 0.0
H2285 H 0.77543 0.59581 0.80442 0.0
H2286 H 0.75362 0.61526 0.81437 0.0
H2287 H 0.71914 0.59718 0.77458 0.0
H2288 H 0.74139 0.57809 0.76445 0.0
H2289 H 0.76506 0.59294 0.74735 0.0
H2290 H 0.78258 0.61395 0.73179 0.0
H2291 H 0.82556 0.60287 0.7651 0.0
H2292 H 0.8076 0.5824 0.78105 0.0
H2293 H 0.77079 0.55121 0.79994 0.0
H2294 H 0.7669 0.52067 0.79497 0.0
H2295 H 0.76817 0.53017 0.74031 0.0
N2296 N 0.77418 0.57622 0.77691 0.0
H2297 H 0.77073 0.56066 0.7455 0.0
C2298 C 0.74986 0.44023 0.76581 0.0
C2299 C 0.75603 0.43205 0.78066 0.0
C2300 C 0.7457 0.42005 0.7894 0.0
C2301 C 0.72898 0.41612 0.78351 0.0
C2302 C 0.72255 0.42526 0.76932 0.0
C2303 C 0.73292 0.4371 0.76054 0.0
C2304 C 0.77508 0.4409 0.74756 0.0
C2305 C 0.77206 0.43124 0.73279 0.0
C2306 C 0.78431 0.4199 0.72694 0.0
C2307 C 0.79997 0.41798 0.73576 0.0
C2308 C 0.80328 0.42826 0.75018 0.0
C2309 C 0.79094 0.43952 0.75608 0.0
C2310 C 0.76311 0.4681 0.75809 0.0
C2311 C 0.77148 0.47425 0.77283 0.0
C2312 C 0.77308 0.49187 0.77568 0.0
C2313 C 0.76594 0.50378 0.76408 0.0
C2314 C 0.7573 0.49741 0.74949 0.0
C2315 C 0.75604 0.47983 0.74651 0.0
C2316 C 0.76003 0.58549 0.7838 0.0
C2317 C 0.76303 0.59585 0.79808 0.0
C2318 C 0.7505 0.60692 0.80376 0.0
C2319 C 0.73456 0.60788 0.79527 0.0
C2320 C 0.73133 0.59698 0.78129 0.0
C2321 C 0.74396 0.58592 0.77557 0.0
C2322 C 0.78501 0.58622 0.76554 0.0
C2323 C 0.77831 0.59488 0.75117 0.0
C2324 C 0.78841 0.60686 0.7422 0.0
C2325 C 0.80546 0.61036 0.74732 0.0
C2326 C 0.81238 0.60084 0.76103 0.0
C2327 C 0.80223 0.58897 0.77005 0.0
C2328 C 0.77122 0.55832 0.7732 0.0
C2329 C 0.77004 0.54666 0.78689 0.0
C2330 C 0.76804 0.52912 0.78398 0.0
C2331 C 0.76743 0.52266 0.76719 0.0
C2332 C 0.76835 0.53447 0.75344 0.0
C2333 C 0.77 0.55207 0.75639 0.0
H2334 H 0.25458 0.58729 0.78254 0.0
N2335 N 0.27057 0.57468 0.75435 0.0
H2336 H 0.26716 0.60655 0.80367 0.0
H2337 H 0.30348 0.58363 0.75774 0.0
H2338 H 0.31643 0.60261 0.77922 0.0
H2339 H 0.27538 0.59761 0.72956 0.0
H2340 H 0.25449 0.6174 0.71765 0.0
H2341 H 0.23561 0.57301 0.7594 0.0
H2342 H 0.21462 0.59227 0.7472 0.0
H2343 H 0.25196 0.55721 0.77886 0.0
H2344 H 0.28495 0.55085 0.73553 0.0
H2345 H 0.24929 0.52641 0.78226 0.0
H2346 H 0.28337 0.51986 0.73948 0.0
H2347 H 0.25789 0.42762 0.79978 0.0
H2348 H 0.27962 0.40809 0.81044 0.0
H2349 H 0.31441 0.42651 0.77128 0.0
H2350 H 0.29223 0.44568 0.76044 0.0
H2351 H 0.26853 0.43149 0.74262 0.0
H2352 H 0.25112 0.41045 0.72699 0.0
H2353 H 0.2082 0.42077 0.75976 0.0
H2354 H 0.22602 0.44123 0.77575 0.0
H2355 H 0.26011 0.47163 0.79571 0.0
H2356 H 0.26338 0.50241 0.79155 0.0
H2357 H 0.26701 0.49492 0.73689 0.0
N2358 N 0.2594 0.44746 0.77213 0.0
H2359 H 0.26489 0.46408 0.74141 0.0
C2360 C 0.27813 0.584 0.76849 0.0
C2361 C 0.26814 0.59029 0.78187 0.0
C2362 C 0.2754 0.60133 0.79402 0.0
C2363 C 0.29282 0.6063 0.79313 0.0
C2364 C 0.30292 0.59934 0.78015 0.0
C2365 C 0.29561 0.58834 0.76797 0.0
C2366 C 0.25722 0.58375 0.74534 0.0
C2367 C 0.26205 0.59615 0.73315 0.0
C2368 C 0.25005 0.60745 0.72634 0.0
C2369 C 0.23284 0.60659 0.73157 0.0
C2370 C 0.22782 0.59354 0.74312 0.0
C2371 C 0.23986 0.58231 0.75 0.0
C2372 C 0.26849 0.55642 0.75671 0.0
C2373 C 0.25864 0.5492 0.77002 0.0
C2374 C 0.25734 0.53144 0.7721 0.0
C2375 C 0.26619 0.5204 0.76121 0.0
C2376 C 0.2761 0.52776 0.74796 0.0
C2377 C 0.27713 0.54552 0.74573 0.0
C2378 C 0.27346 0.4381 0.77942 0.0
C2379 C 0.27034 0.42763 0.79373 0.0
C2380 C 0.28283 0.41651 0.79982 0.0
C2381 C 0.29883 0.41563 0.79172 0.0
C2382 C 0.30217 0.42665 0.7777 0.0
C2383 C 0.28958 0.43775 0.77157 0.0
C2384 C 0.24858 0.43778 0.76052 0.0
C2385 C 0.2553 0.42941 0.74626 0.0
C2386 C 0.24527 0.41741 0.73727 0.0
C2387 C 0.22832 0.41363 0.7423 0.0
C2388 C 0.22133 0.423 0.75579 0.0
C2389 C 0.2314 0.43486 0.76483 0.0
C2390 C 0.26205 0.46552 0.76895 0.0
C2391 C 0.26176 0.47667 0.78285 0.0
C2392 C 0.26343 0.49433 0.78039 0.0
C2393 C 0.26518 0.5014 0.76382 0.0
C2394 C 0.26582 0.4901 0.74986 0.0
C2395 C 0.26445 0.47235 0.75241 0.0
H2396 H 0.28021 0.58906 0.27966 0.0
N2397 N 0.25253 0.57443 0.26318 0.0
H2398 H 0.30176 0.60799 0.26699 0.0
H2399 H 0.25687 0.58142 0.23004 0.0
H2400 H 0.2788 0.60016 0.21705 0.0
H2401 H 0.22793 0.59661 0.25699 0.0
H2402 H 0.21585 0.61693 0.2769 0.0
H2403 H 0.25734 0.57429 0.29809 0.0
H2404 H 0.24495 0.59417 0.31824 0.0
H2405 H 0.27928 0.55858 0.27974 0.0
H2406 H 0.23101 0.54942 0.2539 0.0
H2407 H 0.2831 0.52799 0.2831 0.0
H2408 H 0.23434 0.51862 0.25787 0.0
H2409 H 0.30197 0.43966 0.28501 0.0
H2410 H 0.31999 0.42112 0.26808 0.0
H2411 H 0.28067 0.41884 0.22881 0.0
H2412 H 0.26263 0.4369 0.24608 0.0
H2413 H 0.23879 0.43949 0.26436 0.0
H2414 H 0.21877 0.41772 0.27527 0.0
H2415 H 0.2505 0.41184 0.32053 0.0
H2416 H 0.27085 0.43303 0.30898 0.0
H2417 H 0.2782 0.47262 0.30058 0.0
H2418 H 0.27346 0.5033 0.29782 0.0
H2419 H 0.25008 0.49509 0.24811 0.0
N2420 N 0.26983 0.44826 0.27852 0.0
H2421 H 0.25423 0.46443 0.25141 0.0
C2422 C 0.26684 0.58376 0.25576 0.0
C2423 C 0.27992 0.59114 0.26595 0.0
C2424 C 0.29234 0.60197 0.25864 0.0
C2425 C 0.29202 0.6057 0.24098 0.0
C2426 C 0.2793 0.59778 0.23073 0.0
C2427 C 0.26686 0.58694 0.23808 0.0
C2428 C 0.24348 0.5839 0.27596 0.0
C2429 C 0.23138 0.59579 0.27043 0.0
C2430 C 0.22447 0.60738 0.28188 0.0
C2431 C 0.2295 0.60733 0.29922 0.0
C2432 C 0.241 0.5948 0.30493 0.0
C2433 C 0.24797 0.58324 0.29343 0.0
C2434 C 0.25486 0.55639 0.26636 0.0
C2435 C 0.26941 0.55003 0.27487 0.0
C2436 C 0.27151 0.5324 0.27692 0.0
C2437 C 0.25907 0.52067 0.27071 0.0
C2438 C 0.24437 0.52715 0.26254 0.0
C2439 C 0.24235 0.54477 0.26039 0.0
C2440 C 0.28104 0.43981 0.26685 0.0
C2441 C 0.29744 0.43545 0.27257 0.0
C2442 C 0.30772 0.42485 0.26283 0.0
C2443 C 0.30178 0.41837 0.24705 0.0
C2444 C 0.28557 0.42337 0.24099 0.0
C2445 C 0.27528 0.43393 0.2508 0.0
C2446 C 0.25641 0.43772 0.28583 0.0
C2447 C 0.24135 0.43361 0.27667 0.0
C2448 C 0.22983 0.42121 0.28302 0.0
C2449 C 0.23308 0.41279 0.29872 0.0
C2450 C 0.24774 0.4177 0.30823 0.0
C2451 C 0.25929 0.42996 0.30178 0.0
C2452 C 0.26676 0.46624 0.27619 0.0
C2453 C 0.27203 0.47751 0.28911 0.0
C2454 C 0.2694 0.49506 0.28743 0.0
C2455 C 0.26148 0.50183 0.27267 0.0
C2456 C 0.25605 0.49042 0.25975 0.0
C2457 C 0.25857 0.4728 0.26153 0.0
H2458 H 0.79704 0.43949 0.25766 0.0
N2459 N 0.76833 0.44991 0.27403 0.0
H2460 H 0.81756 0.4188 0.26862 0.0
H2461 H 0.77087 0.43833 0.30598 0.0
H2462 H 0.79176 0.41823 0.31744 0.0
H2463 H 0.73821 0.43718 0.28391 0.0
H2464 H 0.71918 0.4177 0.26809 0.0
H2465 H 0.77174 0.44093 0.24045 0.0
H2466 H 0.75265 0.4218 0.22434 0.0
H2467 H 0.78457 0.46696 0.24784 0.0
H2468 H 0.75704 0.47379 0.29475 0.0
H2469 H 0.78651 0.4979 0.24372 0.0
H2470 H 0.75962 0.50479 0.29132 0.0
H2471 H 0.80177 0.60125 0.2524 0.0
H2472 H 0.8137 0.62131 0.27332 0.0
H2473 H 0.78531 0.59521 0.31337 0.0
H2474 H 0.77307 0.57558 0.29223 0.0
H2475 H 0.74969 0.58926 0.27415 0.0
H2476 H 0.72807 0.60799 0.26223 0.0
H2477 H 0.75115 0.60408 0.21232 0.0
H2478 H 0.77318 0.58561 0.22461 0.0
H2479 H 0.801 0.55445 0.2493 0.0
H2480 H 0.79957 0.52345 0.25348 0.0
H2481 H 0.74915 0.52792 0.27539 0.0
N2482 N 0.77777 0.5773 0.25745 0.0
H2483 H 0.75109 0.55878 0.2719 0.0
C2484 C 0.78235 0.44033 0.28101 0.0
C2485 C 0.79594 0.43507 0.27077 0.0
C2486 C 0.80774 0.42326 0.27713 0.0
C2487 C 0.80623 0.41659 0.29389 0.0
C2488 C 0.79313 0.42272 0.30436 0.0
C2489 C 0.7813 0.43438 0.29794 0.0
C2490 C 0.75631 0.44058 0.2634 0.0
C2491 C 0.74122 0.43411 0.27079 0.0
C2492 C 0.73035 0.423 0.26168 0.0
C2493 C 0.73438 0.41809 0.24491 0.0
C2494 C 0.74926 0.4251 0.2373 0.0
C2495 C 0.76013 0.43622 0.24646 0.0
C2496 C 0.77044 0.46808 0.27153 0.0
C2497 C 0.77898 0.47512 0.2573 0.0
C2498 C 0.78023 0.4929 0.25507 0.0
C2499 C 0.77313 0.50402 0.26713 0.0
C2500 C 0.76491 0.49678 0.28153 0.0
C2501 C 0.76355 0.47904 0.28363 0.0
C2502 C 0.7866 0.58689 0.27067 0.0
C2503 C 0.79843 0.59968 0.26576 0.0
C2504 C 0.80525 0.61111 0.27778 0.0
C2505 C 0.80041 0.60999 0.29508 0.0
C2506 C 0.78912 0.59664 0.30013 0.0
C2507 C 0.78224 0.58525 0.28806 0.0
C2508 C 0.76315 0.58597 0.25024 0.0
C2509 C 0.74996 0.59212 0.26059 0.0
C2510 C 0.7375 0.60285 0.25369 0.0
C2511 C 0.73787 0.6077 0.23629 0.0
C2512 C 0.75061 0.60087 0.22582 0.0
C2513 C 0.7631 0.59015 0.23276 0.0
C2514 C 0.77618 0.55902 0.2601 0.0
C2515 C 0.78967 0.54868 0.25503 0.0
C2516 C 0.78875 0.53093 0.25732 0.0
C2517 C 0.7742 0.52302 0.26472 0.0
C2518 C 0.76068 0.53346 0.26987 0.0
C2519 C 0.76169 0.55124 0.2677 0.0
H2520 H 0.59559 0.28161 0.76 0.0
N2521 N 0.57923 0.25167 0.76896 0.0
H2522 H 0.61606 0.29765 0.77779 0.0
H2523 H 0.58477 0.24752 0.80229 0.0
H2524 H 0.60464 0.26387 0.82046 0.0
H2525 H 0.59726 0.22338 0.77158 0.0
H2526 H 0.61783 0.21251 0.7511 0.0
H2527 H 0.5838 0.26338 0.736 0.0
H2528 H 0.6038 0.25233 0.71524 0.0
H2529 H 0.56463 0.27853 0.75188 0.0
H2530 H 0.55335 0.23261 0.78065 0.0
H2531 H 0.53409 0.28306 0.74749 0.0
H2532 H 0.5227 0.23767 0.77767 0.0
H2533 H 0.43324 0.29985 0.74892 0.0
H2534 H 0.41367 0.31077 0.77029 0.0
H2535 H 0.4324 0.27374 0.807 0.0
H2536 H 0.45155 0.26259 0.78522 0.0
H2537 H 0.43624 0.24409 0.76279 0.0
H2538 H 0.41531 0.22734 0.74634 0.0
H2539 H 0.42723 0.25764 0.70128 0.0
H2540 H 0.44761 0.27482 0.71815 0.0
H2541 H 0.4785 0.29614 0.75467 0.0
H2542 H 0.50896 0.29144 0.75952 0.0
H2543 H 0.49912 0.23687 0.76008 0.0
N2544 N 0.45332 0.27299 0.75173 0.0
H2545 H 0.46866 0.24181 0.75659 0.0
C2546 C 0.5888 0.26322 0.77982 0.0
C2547 C 0.59731 0.27783 0.77325 0.0
C2548 C 0.60899 0.28704 0.78349 0.0
C2549 C 0.61228 0.28189 0.80052 0.0
C2550 C 0.6028 0.26796 0.8073 0.0
C2551 C 0.59128 0.2587 0.79703 0.0
C2552 C 0.58889 0.2441 0.75539 0.0
C2553 C 0.5984 0.22951 0.75914 0.0
C2554 C 0.61014 0.22332 0.74738 0.0
C2555 C 0.61262 0.23159 0.73149 0.0
C2556 C 0.60248 0.24579 0.72744 0.0
C2557 C 0.59081 0.25204 0.73928 0.0
C2558 C 0.56128 0.25494 0.76624 0.0
C2559 C 0.55556 0.26935 0.7572 0.0
C2560 C 0.53797 0.27209 0.75498 0.0
C2561 C 0.52565 0.26074 0.76218 0.0
C2562 C 0.53158 0.24651 0.77152 0.0
C2563 C 0.54914 0.24363 0.77339 0.0
C2564 C 0.44387 0.28051 0.76548 0.0
C2565 C 0.4333 0.29432 0.76169 0.0
C2566 C 0.42216 0.30056 0.77397 0.0
C2567 C 0.42136 0.29313 0.79042 0.0
C2568 C 0.43246 0.27963 0.7944 0.0
C2569 C 0.44356 0.27333 0.78203 0.0
C2570 C 0.44336 0.2609 0.7417 0.0
C2571 C 0.4345 0.247 0.74933 0.0
C2572 C 0.42258 0.23734 0.73984 0.0
C2573 C 0.41933 0.24128 0.7225 0.0
C2574 C 0.42906 0.25449 0.71469 0.0
C2575 C 0.44087 0.26421 0.72423 0.0
C2576 C 0.47119 0.26944 0.75509 0.0
C2577 C 0.48295 0.28317 0.75601 0.0
C2578 C 0.50045 0.28041 0.75858 0.0
C2579 C 0.50679 0.26372 0.76001 0.0
C2580 C 0.49489 0.24993 0.75929 0.0
C2581 C 0.47731 0.25275 0.75709 0.0
H2582 H 0.43361 0.7272 0.74074 0.0
N2583 N 0.452 0.75403 0.75106 0.0
H2584 H 0.41409 0.70923 0.7577 0.0
H2585 H 0.44812 0.75537 0.78583 0.0
H2586 H 0.42849 0.73743 0.80308 0.0
H2587 H 0.43862 0.77995 0.76968 0.0
H2588 H 0.41847 0.80119 0.75934 0.0
H2589 H 0.44309 0.76024 0.71865 0.0
H2590 H 0.42331 0.7819 0.70795 0.0
H2591 H 0.47527 0.72958 0.75106 0.0
H2592 H 0.47006 0.78354 0.7598 0.0
H2593 H 0.50606 0.73226 0.75602 0.0
H2594 H 0.5008 0.78656 0.76352 0.0
H2595 H 0.59167 0.73658 0.76094 0.0
H2596 H 0.61234 0.72119 0.7788 0.0
H2597 H 0.60934 0.76055 0.81707 0.0
H2598 H 0.58929 0.77608 0.79876 0.0
H2599 H 0.595 0.79906 0.76737 0.0
H2600 H 0.61567 0.81066 0.74676 0.0
H2601 H 0.60717 0.76637 0.71493 0.0
H2602 H 0.58716 0.75466 0.73593 0.0
H2603 H 0.56256 0.74437 0.74793 0.0
H2604 H 0.53161 0.7413 0.7444 0.0
H2605 H 0.52461 0.78229 0.78034 0.0
N2606 N 0.5797 0.76847 0.76703 0.0
H2607 H 0.55569 0.78607 0.78255 0.0
C2608 C 0.44226 0.74256 0.76198 0.0
C2609 C 0.43275 0.72928 0.75439 0.0
C2610 C 0.42164 0.71903 0.76414 0.0
C2611 C 0.41971 0.72188 0.78178 0.0
C2612 C 0.42957 0.735 0.7895 0.0
C2613 C 0.44083 0.74521 0.7797 0.0
C2614 C 0.44236 0.76845 0.7449 0.0
C2615 C 0.43551 0.78041 0.75617 0.0
C2616 C 0.42403 0.79265 0.75018 0.0
C2617 C 0.41911 0.79322 0.73279 0.0
C2618 C 0.42656 0.78167 0.72146 0.0
C2619 C 0.43802 0.76942 0.72748 0.0
C2620 C 0.4701 0.75623 0.75505 0.0
C2621 C 0.48075 0.74202 0.75405 0.0
C2622 C 0.49847 0.74365 0.75667 0.0
C2623 C 0.50621 0.75968 0.76004 0.0
C2624 C 0.49548 0.77392 0.76124 0.0
C2625 C 0.47768 0.77221 0.75895 0.0
C2626 C 0.5891 0.75757 0.77852 0.0
C2627 C 0.5953 0.74173 0.77328 0.0
C2628 C 0.60709 0.73292 0.78356 0.0
C2629 C 0.6128 0.73978 0.79927 0.0
C2630 C 0.60562 0.75509 0.80487 0.0
C2631 C 0.59398 0.7639 0.79456 0.0
C2632 C 0.58938 0.77611 0.7532 0.0
C2633 C 0.59736 0.79207 0.75575 0.0
C2634 C 0.60917 0.79867 0.74391 0.0
C2635 C 0.61325 0.78943 0.72916 0.0
C2636 C 0.60462 0.77373 0.72627 0.0
C2637 C 0.5929 0.76709 0.7382 0.0
C2638 C 0.56146 0.76578 0.76519 0.0
C2639 C 0.55438 0.7529 0.75477 0.0
C2640 C 0.53654 0.75098 0.75302 0.0
C2641 C 0.52533 0.76159 0.76201 0.0
C2642 C 0.53262 0.77414 0.77282 0.0
C2643 C 0.55043 0.77625 0.77425 0.0
H2644 H 0.59615 0.79504 0.25623 0.0
N2645 N 0.5782 0.766 0.25858 0.0
H2646 H 0.61641 0.80691 0.2772 0.0
H2647 H 0.58264 0.75455 0.29159 0.0
H2648 H 0.60229 0.76659 0.31285 0.0
H2649 H 0.59342 0.73611 0.26798 0.0
H2650 H 0.61457 0.72088 0.25121 0.0
H2651 H 0.58504 0.77063 0.22564 0.0
H2652 H 0.60566 0.75517 0.20853 0.0
H2653 H 0.55297 0.78476 0.24612 0.0
H2654 H 0.56267 0.73927 0.27568 0.0
H2655 H 0.52214 0.78003 0.24932 0.0
H2656 H 0.53201 0.73508 0.28025 0.0
H2657 H 0.43599 0.77566 0.26581 0.0
H2658 H 0.416 0.79242 0.28234 0.0
H2659 H 0.42682 0.76143 0.32708 0.0
H2660 H 0.44625 0.74429 0.31016 0.0
H2661 H 0.43031 0.71972 0.2793 0.0
H2662 H 0.41006 0.70894 0.25779 0.0
H2663 H 0.43001 0.74596 0.22128 0.0
H2664 H 0.44984 0.75699 0.2432 0.0
H2665 H 0.46857 0.77723 0.27135 0.0
H2666 H 0.4992 0.7816 0.26736 0.0
H2667 H 0.50605 0.7269 0.26874 0.0
N2668 N 0.45165 0.74639 0.27662 0.0
H2669 H 0.47548 0.72281 0.27404 0.0
C2670 C 0.58778 0.774 0.27229 0.0
C2671 C 0.59722 0.78899 0.26871 0.0
C2672 C 0.60878 0.79577 0.28076 0.0
C2673 C 0.61112 0.78767 0.29674 0.0
C2674 C 0.60107 0.77301 0.30058 0.0
C2675 C 0.5896 0.76619 0.28846 0.0
C2676 C 0.58777 0.75463 0.24805 0.0
C2677 C 0.59578 0.74012 0.25491 0.0
C2678 C 0.60787 0.73139 0.24527 0.0
C2679 C 0.6121 0.73699 0.22861 0.0
C2680 C 0.60307 0.75076 0.22145 0.0
C2681 C 0.59111 0.7595 0.2311 0.0
C2682 C 0.56013 0.76258 0.26086 0.0
C2683 C 0.54839 0.77386 0.25352 0.0
C2684 C 0.53073 0.77119 0.25554 0.0
C2685 C 0.52432 0.75724 0.26524 0.0
C2686 C 0.53625 0.74586 0.27251 0.0
C2687 C 0.55392 0.74838 0.27015 0.0
C2688 C 0.4425 0.75855 0.28675 0.0
C2689 C 0.43425 0.77262 0.27923 0.0
C2690 C 0.42285 0.78228 0.28876 0.0
C2691 C 0.41953 0.77813 0.30601 0.0
C2692 C 0.42871 0.76475 0.31373 0.0
C2693 C 0.43999 0.75505 0.30416 0.0
C2694 C 0.44159 0.73905 0.26285 0.0
C2695 C 0.43046 0.72529 0.26655 0.0
C2696 C 0.41894 0.71912 0.25419 0.0
C2697 C 0.41832 0.72658 0.23774 0.0
C2698 C 0.42994 0.74006 0.23387 0.0
C2699 C 0.44141 0.74628 0.24632 0.0
C2700 C 0.46965 0.74961 0.27328 0.0
C2701 C 0.47662 0.76616 0.27095 0.0
C2702 C 0.49428 0.76863 0.26844 0.0
C2703 C 0.50539 0.75463 0.26777 0.0
C2704 C 0.49818 0.73809 0.26961 0.0
C2705 C 0.48062 0.73567 0.27246 0.0
H2706 H 0.60425 0.27786 0.29829 0.0
N2707 N 0.5819 0.27355 0.27283 0.0
H2708 H 0.62346 0.25666 0.31065 0.0
H2709 H 0.5805 0.23909 0.2668 0.0
H2710 H 0.59917 0.2177 0.27941 0.0
H2711 H 0.59138 0.25819 0.24319 0.0
H2712 H 0.61118 0.27006 0.22196 0.0
H2713 H 0.59289 0.30579 0.27036 0.0
H2714 H 0.61213 0.31815 0.24877 0.0
H2715 H 0.56145 0.29104 0.29275 0.0
H2716 H 0.56069 0.25511 0.25137 0.0
H2717 H 0.53021 0.29119 0.29264 0.0
H2718 H 0.52936 0.25412 0.25187 0.0
H2719 H 0.42997 0.27873 0.29912 0.0
H2720 H 0.41066 0.25667 0.31072 0.0
H2721 H 0.4354 0.21894 0.27982 0.0
H2722 H 0.45435 0.24132 0.26796 0.0
H2723 H 0.44156 0.2603 0.24511 0.0
H2724 H 0.42188 0.2725 0.22413 0.0
H2725 H 0.42422 0.32055 0.25095 0.0
H2726 H 0.4435 0.30791 0.27228 0.0
H2727 H 0.47487 0.27778 0.30065 0.0
H2728 H 0.50599 0.27591 0.30027 0.0
H2729 H 0.50404 0.26824 0.2455 0.0
N2730 N 0.45299 0.2755 0.27458 0.0
H2731 H 0.47287 0.26895 0.24627 0.0
C2732 C 0.59088 0.26014 0.2817 0.0
C2733 C 0.60288 0.26466 0.2944 0.0
C2734 C 0.61382 0.25249 0.30147 0.0
C2735 C 0.61299 0.23543 0.29597 0.0
C2736 C 0.6004 0.23076 0.28376 0.0
C2737 C 0.58952 0.24299 0.27663 0.0
C2738 C 0.59078 0.28111 0.25845 0.0
C2739 C 0.59562 0.27136 0.24433 0.0
C2740 C 0.60695 0.27823 0.23214 0.0
C2741 C 0.61353 0.29504 0.23373 0.0
C2742 C 0.60771 0.30505 0.24732 0.0
C2743 C 0.59653 0.29811 0.25956 0.0
C2744 C 0.56342 0.2729 0.27233 0.0
C2745 C 0.55446 0.28296 0.28381 0.0
C2746 C 0.53655 0.28287 0.28381 0.0
C2747 C 0.52702 0.27245 0.27243 0.0
C2748 C 0.5361 0.26242 0.26077 0.0
C2749 C 0.55411 0.26276 0.26061 0.0
C2750 C 0.44358 0.26168 0.28276 0.0
C2751 C 0.43138 0.26563 0.29511 0.0
C2752 C 0.4204 0.25297 0.30175 0.0
C2753 C 0.42139 0.23598 0.29619 0.0
C2754 C 0.43409 0.23192 0.28422 0.0
C2755 C 0.44506 0.24466 0.27753 0.0
C2756 C 0.44398 0.28322 0.26034 0.0
C2757 C 0.43807 0.27354 0.24633 0.0
C2758 C 0.42683 0.28059 0.23427 0.0
C2759 C 0.42127 0.29751 0.23589 0.0
C2760 C 0.42794 0.3074 0.24945 0.0
C2761 C 0.43913 0.30029 0.26154 0.0
C2762 C 0.47141 0.27376 0.27356 0.0
C2763 C 0.48118 0.27556 0.28859 0.0
C2764 C 0.49905 0.27467 0.28828 0.0
C2765 C 0.50778 0.27224 0.27278 0.0
C2766 C 0.49791 0.27002 0.25772 0.0
C2767 C 0.47994 0.27059 0.25812 0.0
loop_
_geom_bond_atom_site_label_1
_geom_bond_atom_site_label_2
_geom_bond_distance
_geom_bond_site_symmetry_2
_ccdc_geom_bond_type
C0 C1 1.264 . S
C0 C5 1.479 . S
C0 C10 1.465 . S
C1 C0 1.264 . S
C1 C3 1.339 . S
C1 H28 0.931 . S
C2 C3 1.395 . S
C2 C4 1.320 . S
C3 C1 1.339 . S
C3 C2 1.395 . S
C3 H29 0.929 . S
C4 C2 1.320 . S
C4 C5 1.405 . S
C4 H30 0.930 . S
C5 C0 1.479 . S
C5 C4 1.405 . S
C5 H31 0.931 . S
U6 O7 2.454 . S
U6 O8 2.458 . S
U6 C9 2.984 . S
U6 C10 2.847 . S
U6 C23 2.882 . S
U6 O24 2.441 . S
U6 O25 2.420 . S
U6 O26 2.455 . S
U6 O27 2.449 . S
O7 U6 2.454 . S
O7 C9 1.353 . S
O8 U6 2.458 . S
O8 C9 1.286 . S
C9 U6 2.984 . S
C9 O7 1.353 . S
C9 O8 1.286 . S
C9 C11 1.363 . S
C10 C0 1.465 . S
C10 U6 2.847 . S
C10 O24 1.249 . S
C10 O25 1.202 . S
C11 C9 1.363 . S
C11 C13 1.408 . S
C11 C16 1.342 . S
C12 C13 1.310 . S
C12 C15 1.461 . S
C12 H32 0.932 . S
C13 C11 1.408 . S
C13 C12 1.310 . S
C13 H33 0.930 . S
C14 C15 1.474 . S
C14 C16 1.285 . S
C14 H34 0.929 . S
C15 C12 1.461 . S
C15 C14 1.474 . S
C16 C11 1.342 . S
C16 C14 1.285 . S
C16 H35 0.930 . S
C17 C20 1.424 . S
C17 C22 1.245 . S
C17 C23 1.428 . S
C18 C21 1.260 . S
C18 C22 1.477 . S
C18 H36 0.932 . S
C19 C20 1.384 . S
C19 C21 1.479 . S
C19 H37 0.929 . S
C20 C17 1.424 . S
C20 C19 1.384 . S
C20 H38 0.928 . S
C21 C18 1.260 . S
C21 C19 1.479 . S
C22 C17 1.245 . S
C22 C18 1.477 . S
C22 H39 0.932 . S
C23 U6 2.882 . S
C23 C17 1.428 . S
C23 O26 1.301 . S
C23 O27 1.282 . S
O24 U6 2.441 . S
O24 C10 1.249 . S
O25 U6 2.420 . S
O25 C10 1.202 . S
O26 U6 2.455 . S
O26 C23 1.301 . S
O27 U6 2.449 . S
O27 C23 1.282 . S
H28 C1 0.931 . S
H29 C3 0.929 . S
H30 C4 0.930 . S
H31 C5 0.931 . S
H32 C12 0.932 . S
H33 C13 0.930 . S
H34 C14 0.929 . S
H35 C16 0.930 . S
H36 C18 0.932 . S
H37 C19 0.929 . S
H38 C20 0.928 . S
H39 C22 0.932 . S
C40 C41 1.264 . S
C40 C45 1.479 . S
C40 C50 1.465 . S
C41 C40 1.264 . S
C41 C43 1.339 . S
C41 H68 0.931 . S
C42 C43 1.395 . S
C42 C44 1.320 . S
C43 C41 1.339 . S
C43 C42 1.395 . S
C43 H69 0.929 . S
C44 C42 1.320 . S
C44 C45 1.405 . S
C44 H70 0.930 . S
C45 C40 1.479 . S
C45 C44 1.405 . S
C45 H71 0.931 . S
U46 O47 2.454 . S
U46 O48 2.458 . S
U46 C49 2.984 . S
U46 C50 2.847 . S
U46 C63 2.882 . S
U46 O64 2.441 . S
U46 O65 2.420 . S
U46 O66 2.455 . S
U46 O67 2.449 . S
O47 U46 2.454 . S
O47 C49 1.353 . S
O48 U46 2.458 . S
O48 C49 1.286 . S
C49 U46 2.984 . S
C49 O47 1.353 . S
C49 O48 1.286 . S
C49 C51 1.363 . S
C50 C40 1.465 . S
C50 U46 2.847 . S
C50 O64 1.249 . S
C50 O65 1.202 . S
C51 C49 1.363 . S
C51 C53 1.408 . S
C51 C56 1.342 . S
C52 C53 1.310 . S
C52 C55 1.461 . S
C52 H72 0.932 . S
C53 C51 1.408 . S
C53 C52 1.310 . S
C53 H73 0.930 . S
C54 C55 1.474 . S
C54 C56 1.285 . S
C54 H74 0.929 . S
C55 C52 1.461 . S
C55 C54 1.474 . S
C56 C51 1.342 . S
C56 C54 1.285 . S
C56 H75 0.930 . S
C57 C60 1.424 . S
C57 C62 1.245 . S
C57 C63 1.428 . S
C58 C61 1.260 . S
C58 C62 1.477 . S
C58 H76 0.932 . S
C59 C60 1.384 . S
C59 C61 1.479 . S
C59 H77 0.929 . S
C60 C57 1.424 . S
C60 C59 1.384 . S
C60 H78 0.928 . S
C61 C58 1.260 . S
C61 C59 1.479 . S
C62 C57 1.245 . S
C62 C58 1.477 . S
C62 H79 0.932 . S
C63 U46 2.882 . S
C63 C57 1.428 . S
C63 O66 1.301 . S
C63 O67 1.282 . S
O64 U46 2.441 . S
O64 C50 1.249 . S
O65 U46 2.420 . S
O65 C50 1.202 . S
O66 U46 2.455 . S
O66 C63 1.301 . S
O67 U46 2.449 . S
O67 C63 1.282 . S
H68 C41 0.931 . S
H69 C43 0.929 . S
H70 C44 0.930 . S
H71 C45 0.931 . S
H72 C52 0.932 . S
H73 C53 0.930 . S
H74 C54 0.929 . S
H75 C56 0.930 . S
H76 C58 0.932 . S
H77 C59 0.929 . S
H78 C60 0.928 . S
H79 C62 0.932 . S
C80 C81 1.264 . S
C80 C85 1.479 . S
C80 C90 1.465 . S
C81 C80 1.264 . S
C81 C83 1.339 . S
C81 H108 0.931 . S
C82 C83 1.395 . S
C82 C84 1.320 . S
C83 C81 1.339 . S
C83 C82 1.395 . S
C83 H109 0.929 . S
C84 C82 1.320 . S
C84 C85 1.405 . S
C84 H110 0.930 . S
C85 C80 1.479 . S
C85 C84 1.405 . S
C85 H111 0.931 . S
U86 O87 2.454 . S
U86 O88 2.458 . S
U86 C89 2.984 . S
U86 C90 2.847 . S
U86 C103 2.882 . S
U86 O104 2.441 . S
U86 O105 2.420 . S
U86 O106 2.455 . S
U86 O107 2.449 . S
O87 U86 2.454 . S
O87 C89 1.353 . S
O88 U86 2.458 . S
O88 C89 1.286 . S
C89 U86 2.984 . S
C89 O87 1.353 . S
C89 O88 1.286 . S
C89 C91 1.363 . S
C90 C80 1.465 . S
C90 U86 2.847 . S
C90 O104 1.249 . S
C90 O105 1.202 . S
C91 C89 1.363 . S
C91 C93 1.408 . S
C91 C96 1.342 . S
C92 C93 1.310 . S
C92 C95 1.461 . S
C92 H112 0.932 . S
C93 C91 1.408 . S
C93 C92 1.310 . S
C93 H113 0.930 . S
C94 C95 1.474 . S
C94 C96 1.285 . S
C94 H114 0.929 . S
C95 C92 1.461 . S
C95 C94 1.474 . S
C96 C91 1.342 . S
C96 C94 1.285 . S
C96 H115 0.930 . S
C97 C100 1.424 . S
C97 C102 1.245 . S
C97 C103 1.428 . S
C98 C101 1.260 . S
C98 C102 1.477 . S
C98 H116 0.932 . S
C99 C100 1.384 . S
C99 C101 1.479 . S
C99 H117 0.929 . S
C100 C97 1.424 . S
C100 C99 1.384 . S
C100 H118 0.928 . S
C101 C98 1.260 . S
C101 C99 1.479 . S
C102 C97 1.245 . S
C102 C98 1.477 . S
C102 H119 0.932 . S
C103 U86 2.882 . S
C103 C97 1.428 . S
C103 O106 1.301 . S
C103 O107 1.282 . S
O104 U86 2.441 . S
O104 C90 1.249 . S
O105 U86 2.420 . S
O105 C90 1.202 . S
O106 U86 2.455 . S
O106 C103 1.301 . S
O107 U86 2.449 . S
O107 C103 1.282 . S
H108 C81 0.931 . S
H109 C83 0.929 . S
H110 C84 0.930 . S
H111 C85 0.931 . S
H112 C92 0.932 . S
H113 C93 0.930 . S
H114 C94 0.929 . S
H115 C96 0.930 . S
H116 C98 0.932 . S
H117 C99 0.929 . S
H118 C100 0.928 . S
H119 C102 0.932 . S
C120 C121 1.264 . S
C120 C125 1.479 . S
C120 C130 1.465 . S
C121 C120 1.264 . S
C121 C123 1.339 . S
C121 H148 0.931 . S
C122 C123 1.395 . S
C122 C124 1.320 . S
C123 C121 1.339 . S
C123 C122 1.395 . S
C123 H149 0.929 . S
C124 C122 1.320 . S
C124 C125 1.405 . S
C124 H150 0.930 . S
C125 C120 1.479 . S
C125 C124 1.405 . S
C125 H151 0.931 . S
U126 O127 2.454 . S
U126 O128 2.458 . S
U126 C129 2.984 . S
U126 C130 2.847 . S
U126 C143 2.882 . S
U126 O144 2.441 . S
U126 O145 2.420 . S
U126 O146 2.455 . S
U126 O147 2.449 . S
O127 U126 2.454 . S
O127 C129 1.353 . S
O128 U126 2.458 . S
O128 C129 1.286 . S
C129 U126 2.984 . S
C129 O127 1.353 . S
C129 O128 1.286 . S
C129 C131 1.363 . S
C130 C120 1.465 . S
C130 U126 2.847 . S
C130 O144 1.249 . S
C130 O145 1.202 . S
C131 C129 1.363 . S
C131 C133 1.408 . S
C131 C136 1.342 . S
C132 C133 1.310 . S
C132 C135 1.461 . S
C132 H152 0.932 . S
C133 C131 1.408 . S
C133 C132 1.310 . S
C133 H153 0.930 . S
C134 C135 1.474 . S
C134 C136 1.285 . S
C134 H154 0.929 . S
C135 C132 1.461 . S
C135 C134 1.474 . S
C136 C131 1.342 . S
C136 C134 1.285 . S
C136 H155 0.930 . S
C137 C140 1.424 . S
C137 C142 1.245 . S
C137 C143 1.428 . S
C138 C141 1.260 . S
C138 C142 1.477 . S
C138 H156 0.932 . S
C139 C140 1.384 . S
C139 C141 1.479 . S
C139 H157 0.929 . S
C140 C137 1.424 . S
C140 C139 1.384 . S
C140 H158 0.928 . S
C141 C138 1.260 . S
C141 C139 1.479 . S
C142 C137 1.245 . S
C142 C138 1.477 . S
C142 H159 0.932 . S
C143 U126 2.882 . S
C143 C137 1.428 . S
C143 O146 1.301 . S
C143 O147 1.282 . S
O144 U126 2.441 . S
O144 C130 1.249 . S
O145 U126 2.420 . S
O145 C130 1.202 . S
O146 U126 2.455 . S
O146 C143 1.301 . S
O147 U126 2.449 . S
O147 C143 1.282 . S
H148 C121 0.931 . S
H149 C123 0.929 . S
H150 C124 0.930 . S
H151 C125 0.931 . S
H152 C132 0.932 . S
H153 C133 0.930 . S
H154 C134 0.929 . S
H155 C136 0.930 . S
H156 C138 0.932 . S
H157 C139 0.929 . S
H158 C140 0.928 . S
H159 C142 0.932 . S
C160 C161 1.264 . S
C160 C165 1.479 . S
C160 C170 1.465 . S
C161 C160 1.264 . S
C161 C163 1.339 . S
C161 H188 0.931 . S
C162 C163 1.395 . S
C162 C164 1.320 . S
C163 C161 1.339 . S
C163 C162 1.395 . S
C163 H189 0.929 . S
C164 C162 1.320 . S
C164 C165 1.405 . S
C164 H190 0.930 . S
C165 C160 1.479 . S
C165 C164 1.405 . S
C165 H191 0.931 . S
U166 O167 2.454 . S
U166 O168 2.458 . S
U166 C169 2.984 . S
U166 C170 2.847 . S
U166 C183 2.882 . S
U166 O184 2.441 . S
U166 O185 2.420 . S
U166 O186 2.455 . S
U166 O187 2.449 . S
O167 U166 2.454 . S
O167 C169 1.353 . S
O168 U166 2.458 . S
O168 C169 1.286 . S
C169 U166 2.984 . S
C169 O167 1.353 . S
C169 O168 1.286 . S
C169 C171 1.363 . S
C170 C160 1.465 . S
C170 U166 2.847 . S
C170 O184 1.249 . S
C170 O185 1.202 . S
C171 C169 1.363 . S
C171 C173 1.408 . S
C171 C176 1.342 . S
C172 C173 1.310 . S
C172 C175 1.461 . S
C172 H192 0.932 . S
C173 C171 1.408 . S
C173 C172 1.310 . S
C173 H193 0.930 . S
C174 C175 1.474 . S
C174 C176 1.285 . S
C174 H194 0.929 . S
C175 C172 1.461 . S
C175 C174 1.474 . S
C176 C171 1.342 . S
C176 C174 1.285 . S
C176 H195 0.930 . S
C177 C180 1.424 . S
C177 C182 1.245 . S
C177 C183 1.428 . S
C178 C181 1.260 . S
C178 C182 1.477 . S
C178 H196 0.932 . S
C179 C180 1.384 . S
C179 C181 1.479 . S
C179 H197 0.929 . S
C180 C177 1.424 . S
C180 C179 1.384 . S
C180 H198 0.928 . S
C181 C178 1.260 . S
C181 C179 1.479 . S
C182 C177 1.245 . S
C182 C178 1.477 . S
C182 H199 0.932 . S
C183 U166 2.882 . S
C183 C177 1.428 . S
C183 O186 1.301 . S
C183 O187 1.282 . S
O184 U166 2.441 . S
O184 C170 1.249 . S
O185 U166 2.420 . S
O185 C170 1.202 . S
O186 U166 2.455 . S
O186 C183 1.301 . S
O187 U166 2.449 . S
O187 C183 1.282 . S
H188 C161 0.931 . S
H189 C163 0.929 . S
H190 C164 0.930 . S
H191 C165 0.931 . S
H192 C172 0.932 . S
H193 C173 0.930 . S
H194 C174 0.929 . S
H195 C176 0.930 . S
H196 C178 0.932 . S
H197 C179 0.929 . S
H198 C180 0.928 . S
H199 C182 0.932 . S
C200 C201 1.264 . S
C200 C205 1.479 . S
C200 C210 1.465 . S
C201 C200 1.264 . S
C201 C203 1.339 . S
C201 H228 0.931 . S
C202 C203 1.395 . S
C202 C204 1.320 . S
C203 C201 1.339 . S
C203 C202 1.395 . S
C203 H229 0.929 . S
C204 C202 1.320 . S
C204 C205 1.405 . S
C204 H230 0.930 . S
C205 C200 1.479 . S
C205 C204 1.405 . S
C205 H231 0.931 . S
U206 O207 2.454 . S
U206 O208 2.458 . S
U206 C209 2.984 . S
U206 C210 2.847 . S
U206 C223 2.882 . S
U206 O224 2.441 . S
U206 O225 2.420 . S
U206 O226 2.455 . S
U206 O227 2.449 . S
O207 U206 2.454 . S
O207 C209 1.353 . S
O208 U206 2.458 . S
O208 C209 1.286 . S
C209 U206 2.984 . S
C209 O207 1.353 . S
C209 O208 1.286 . S
C209 C211 1.363 . S
C210 C200 1.465 . S
C210 U206 2.847 . S
C210 O224 1.249 . S
C210 O225 1.202 . S
C211 C209 1.363 . S
C211 C213 1.408 . S
C211 C216 1.342 . S
C212 C213 1.310 . S
C212 C215 1.461 . S
C212 H232 0.932 . S
C213 C211 1.408 . S
C213 C212 1.310 . S
C213 H233 0.930 . S
C214 C215 1.474 . S
C214 C216 1.285 . S
C214 H234 0.929 . S
C215 C212 1.461 . S
C215 C214 1.474 . S
C216 C211 1.342 . S
C216 C214 1.285 . S
C216 H235 0.930 . S
C217 C220 1.424 . S
C217 C222 1.245 . S
C217 C223 1.428 . S
C218 C221 1.260 . S
C218 C222 1.477 . S
C218 H236 0.932 . S
C219 C220 1.384 . S
C219 C221 1.479 . S
C219 H237 0.929 . S
C220 C217 1.424 . S
C220 C219 1.384 . S
C220 H238 0.928 . S
C221 C218 1.260 . S
C221 C219 1.479 . S
C222 C217 1.245 . S
C222 C218 1.477 . S
C222 H239 0.932 . S
C223 U206 2.882 . S
C223 C217 1.428 . S
C223 O226 1.301 . S
C223 O227 1.282 . S
O224 U206 2.441 . S
O224 C210 1.249 . S
O225 U206 2.420 . S
O225 C210 1.202 . S
O226 U206 2.455 . S
O226 C223 1.301 . S
O227 U206 2.449 . S
O227 C223 1.282 . S
H228 C201 0.931 . S
H229 C203 0.929 . S
H230 C204 0.930 . S
H231 C205 0.931 . S
H232 C212 0.932 . S
H233 C213 0.930 . S
H234 C214 0.929 . S
H235 C216 0.930 . S
H236 C218 0.932 . S
H237 C219 0.929 . S
H238 C220 0.928 . S
H239 C222 0.932 . S
C240 C241 1.264 . S
C240 C245 1.479 . S
C240 C250 1.465 . S
C241 C240 1.264 . S
C241 C243 1.339 . S
C241 H268 0.931 . S
C242 C243 1.395 . S
C242 C244 1.320 . S
C243 C241 1.339 . S
C243 C242 1.395 . S
C243 H269 0.929 . S
C244 C242 1.320 . S
C244 C245 1.405 . S
C244 H270 0.930 . S
C245 C240 1.479 . S
C245 C244 1.405 . S
C245 H271 0.931 . S
U246 O247 2.454 . S
U246 O248 2.458 . S
U246 C249 2.984 . S
U246 C250 2.847 . S
U246 C263 2.882 . S
U246 O264 2.441 . S
U246 O265 2.420 . S
U246 O266 2.455 . S
U246 O267 2.449 . S
O247 U246 2.454 . S
O247 C249 1.353 . S
O248 U246 2.458 . S
O248 C249 1.286 . S
C249 U246 2.984 . S
C249 O247 1.353 . S
C249 O248 1.286 . S
C249 C251 1.363 . S
C250 C240 1.465 . S
C250 U246 2.847 . S
C250 O264 1.249 . S
C250 O265 1.202 . S
C251 C249 1.363 . S
C251 C253 1.408 . S
C251 C256 1.342 . S
C252 C253 1.310 . S
C252 C255 1.461 . S
C252 H272 0.932 . S
C253 C251 1.408 . S
C253 C252 1.310 . S
C253 H273 0.930 . S
C254 C255 1.474 . S
C254 C256 1.285 . S
C254 H274 0.929 . S
C255 C252 1.461 . S
C255 C254 1.474 . S
C256 C251 1.342 . S
C256 C254 1.285 . S
C256 H275 0.930 . S
C257 C260 1.424 . S
C257 C262 1.245 . S
C257 C263 1.428 . S
C258 C261 1.260 . S
C258 C262 1.477 . S
C258 H276 0.932 . S
C259 C260 1.384 . S
C259 C261 1.479 . S
C259 H277 0.929 . S
C260 C257 1.424 . S
C260 C259 1.384 . S
C260 H278 0.928 . S
C261 C258 1.260 . S
C261 C259 1.479 . S
C262 C257 1.245 . S
C262 C258 1.477 . S
C262 H279 0.932 . S
C263 U246 2.882 . S
C263 C257 1.428 . S
C263 O266 1.301 . S
C263 O267 1.282 . S
O264 U246 2.441 . S
O264 C250 1.249 . S
O265 U246 2.420 . S
O265 C250 1.202 . S
O266 U246 2.455 . S
O266 C263 1.301 . S
O267 U246 2.449 . S
O267 C263 1.282 . S
H268 C241 0.931 . S
H269 C243 0.929 . S
H270 C244 0.930 . S
H271 C245 0.931 . S
H272 C252 0.932 . S
H273 C253 0.930 . S
H274 C254 0.929 . S
H275 C256 0.930 . S
H276 C258 0.932 . S
H277 C259 0.929 . S
H278 C260 0.928 . S
H279 C262 0.932 . S
C280 C281 1.264 . S
C280 C285 1.479 . S
C280 C290 1.465 . S
C281 C280 1.264 . S
C281 C283 1.339 . S
C281 H308 0.931 . S
C282 C283 1.395 . S
C282 C284 1.320 . S
C283 C281 1.339 . S
C283 C282 1.395 . S
C283 H309 0.929 . S
C284 C282 1.320 . S
C284 C285 1.405 . S
C284 H310 0.930 . S
C285 C280 1.479 . S
C285 C284 1.405 . S
C285 H311 0.931 . S
U286 O287 2.454 . S
U286 O288 2.458 . S
U286 C289 2.984 . S
U286 C290 2.847 . S
U286 C303 2.882 . S
U286 O304 2.441 . S
U286 O305 2.420 . S
U286 O306 2.455 . S
U286 O307 2.449 . S
O287 U286 2.454 . S
O287 C289 1.353 . S
O288 U286 2.458 . S
O288 C289 1.286 . S
C289 U286 2.984 . S
C289 O287 1.353 . S
C289 O288 1.286 . S
C289 C291 1.363 . S
C290 C280 1.465 . S
C290 U286 2.847 . S
C290 O304 1.249 . S
C290 O305 1.202 . S
C291 C289 1.363 . S
C291 C293 1.408 . S
C291 C296 1.342 . S
C292 C293 1.310 . S
C292 C295 1.461 . S
C292 H312 0.932 . S
C293 C291 1.408 . S
C293 C292 1.310 . S
C293 H313 0.930 . S
C294 C295 1.474 . S
C294 C296 1.285 . S
C294 H314 0.929 . S
C295 C292 1.461 . S
C295 C294 1.474 . S
C296 C291 1.342 . S
C296 C294 1.285 . S
C296 H315 0.930 . S
C297 C300 1.424 . S
C297 C302 1.245 . S
C297 C303 1.428 . S
C298 C301 1.260 . S
C298 C302 1.477 . S
C298 H316 0.932 . S
C299 C300 1.384 . S
C299 C301 1.479 . S
C299 H317 0.929 . S
C300 C297 1.424 . S
C300 C299 1.384 . S
C300 H318 0.928 . S
C301 C298 1.260 . S
C301 C299 1.479 . S
C302 C297 1.245 . S
C302 C298 1.477 . S
C302 H319 0.932 . S
C303 U286 2.882 . S
C303 C297 1.428 . S
C303 O306 1.301 . S
C303 O307 1.282 . S
O304 U286 2.441 . S
O304 C290 1.249 . S
O305 U286 2.420 . S
O305 C290 1.202 . S
O306 U286 2.455 . S
O306 C303 1.301 . S
O307 U286 2.449 . S
O307 C303 1.282 . S
H308 C281 0.931 . S
H309 C283 0.929 . S
H310 C284 0.930 . S
H311 C285 0.931 . S
H312 C292 0.932 . S
H313 C293 0.930 . S
H314 C294 0.929 . S
H315 C296 0.930 . S
H316 C298 0.932 . S
H317 C299 0.929 . S
H318 C300 0.928 . S
H319 C302 0.932 . S
C320 C321 1.264 . S
C320 C325 1.479 . S
C320 C330 1.465 . S
C321 C320 1.264 . S
C321 C323 1.339 . S
C321 H348 0.931 . S
C322 C323 1.395 . S
C322 C324 1.320 . S
C323 C321 1.339 . S
C323 C322 1.395 . S
C323 H349 0.929 . S
C324 C322 1.320 . S
C324 C325 1.405 . S
C324 H350 0.930 . S
C325 C320 1.479 . S
C325 C324 1.405 . S
C325 H351 0.931 . S
U326 O327 2.454 . S
U326 O328 2.458 . S
U326 C329 2.984 . S
U326 C330 2.847 . S
U326 C343 2.882 . S
U326 O344 2.441 . S
U326 O345 2.420 . S
U326 O346 2.455 . S
U326 O347 2.449 . S
O327 U326 2.454 . S
O327 C329 1.353 . S
O328 U326 2.458 . S
O328 C329 1.286 . S
C329 U326 2.984 . S
C329 O327 1.353 . S
C329 O328 1.286 . S
C329 C331 1.363 . S
C330 C320 1.465 . S
C330 U326 2.847 . S
C330 O344 1.249 . S
C330 O345 1.202 . S
C331 C329 1.363 . S
C331 C333 1.408 . S
C331 C336 1.342 . S
C332 C333 1.310 . S
C332 C335 1.461 . S
C332 H352 0.932 . S
C333 C331 1.408 . S
C333 C332 1.310 . S
C333 H353 0.930 . S
C334 C335 1.474 . S
C334 C336 1.285 . S
C334 H354 0.929 . S
C335 C332 1.461 . S
C335 C334 1.474 . S
C336 C331 1.342 . S
C336 C334 1.285 . S
C336 H355 0.930 . S
C337 C340 1.424 . S
C337 C342 1.245 . S
C337 C343 1.428 . S
C338 C341 1.260 . S
C338 C342 1.477 . S
C338 H356 0.932 . S
C339 C340 1.384 . S
C339 C341 1.479 . S
C339 H357 0.929 . S
C340 C337 1.424 . S
C340 C339 1.384 . S
C340 H358 0.928 . S
C341 C338 1.260 . S
C341 C339 1.479 . S
C342 C337 1.245 . S
C342 C338 1.477 . S
C342 H359 0.932 . S
C343 U326 2.882 . S
C343 C337 1.428 . S
C343 O346 1.301 . S
C343 O347 1.282 . S
O344 U326 2.441 . S
O344 C330 1.249 . S
O345 U326 2.420 . S
O345 C330 1.202 . S
O346 U326 2.455 . S
O346 C343 1.301 . S
O347 U326 2.449 . S
O347 C343 1.282 . S
H348 C321 0.931 . S
H349 C323 0.929 . S
H350 C324 0.930 . S
H351 C325 0.931 . S
H352 C332 0.932 . S
H353 C333 0.930 . S
H354 C334 0.929 . S
H355 C336 0.930 . S
H356 C338 0.932 . S
H357 C339 0.929 . S
H358 C340 0.928 . S
H359 C342 0.932 . S
C360 C361 1.264 . S
C360 C365 1.479 . S
C360 C370 1.465 . S
C361 C360 1.264 . S
C361 C363 1.339 . S
C361 H388 0.931 . S
C362 C363 1.395 . S
C362 C364 1.320 . S
C363 C361 1.339 . S
C363 C362 1.395 . S
C363 H389 0.929 . S
C364 C362 1.320 . S
C364 C365 1.405 . S
C364 H390 0.930 . S
C365 C360 1.479 . S
C365 C364 1.405 . S
C365 H391 0.931 . S
U366 O367 2.454 . S
U366 O368 2.458 . S
U366 C369 2.984 . S
U366 C370 2.847 . S
U366 C383 2.882 . S
U366 O384 2.441 . S
U366 O385 2.420 . S
U366 O386 2.455 . S
U366 O387 2.449 . S
O367 U366 2.454 . S
O367 C369 1.353 . S
O368 U366 2.458 . S
O368 C369 1.286 . S
C369 U366 2.984 . S
C369 O367 1.353 . S
C369 O368 1.286 . S
C369 C371 1.363 . S
C370 C360 1.465 . S
C370 U366 2.847 . S
C370 O384 1.249 . S
C370 O385 1.202 . S
C371 C369 1.363 . S
C371 C373 1.408 . S
C371 C376 1.342 . S
C372 C373 1.310 . S
C372 C375 1.461 . S
C372 H392 0.932 . S
C373 C371 1.408 . S
C373 C372 1.310 . S
C373 H393 0.930 . S
C374 C375 1.474 . S
C374 C376 1.285 . S
C374 H394 0.929 . S
C375 C372 1.461 . S
C375 C374 1.474 . S
C376 C371 1.342 . S
C376 C374 1.285 . S
C376 H395 0.930 . S
C377 C380 1.424 . S
C377 C382 1.245 . S
C377 C383 1.428 . S
C378 C381 1.260 . S
C378 C382 1.477 . S
C378 H396 0.932 . S
C379 C380 1.384 . S
C379 C381 1.479 . S
C379 H397 0.929 . S
C380 C377 1.424 . S
C380 C379 1.384 . S
C380 H398 0.928 . S
C381 C378 1.260 . S
C381 C379 1.479 . S
C382 C377 1.245 . S
C382 C378 1.477 . S
C382 H399 0.932 . S
C383 U366 2.882 . S
C383 C377 1.428 . S
C383 O386 1.301 . S
C383 O387 1.282 . S
O384 U366 2.441 . S
O384 C370 1.249 . S
O385 U366 2.420 . S
O385 C370 1.202 . S
O386 U366 2.455 . S
O386 C383 1.301 . S
O387 U366 2.449 . S
O387 C383 1.282 . S
H388 C361 0.931 . S
H389 C363 0.929 . S
H390 C364 0.930 . S
H391 C365 0.931 . S
H392 C372 0.932 . S
H393 C373 0.930 . S
H394 C374 0.929 . S
H395 C376 0.930 . S
H396 C378 0.932 . S
H397 C379 0.929 . S
H398 C380 0.928 . S
H399 C382 0.932 . S
C400 C401 1.264 . S
C400 C405 1.479 . S
C400 C410 1.465 . S
C401 C400 1.264 . S
C401 C403 1.339 . S
C401 H428 0.931 . S
C402 C403 1.395 . S
C402 C404 1.320 . S
C403 C401 1.339 . S
C403 C402 1.395 . S
C403 H429 0.929 . S
C404 C402 1.320 . S
C404 C405 1.405 . S
C404 H430 0.930 . S
C405 C400 1.479 . S
C405 C404 1.405 . S
C405 H431 0.931 . S
U406 O407 2.454 . S
U406 O408 2.458 . S
U406 C409 2.984 . S
U406 C410 2.847 . S
U406 C423 2.882 . S
U406 O424 2.441 . S
U406 O425 2.420 . S
U406 O426 2.455 . S
U406 O427 2.449 . S
O407 U406 2.454 . S
O407 C409 1.353 . S
O408 U406 2.458 . S
O408 C409 1.286 . S
C409 U406 2.984 . S
C409 O407 1.353 . S
C409 O408 1.286 . S
C409 C411 1.363 . S
C410 C400 1.465 . S
C410 U406 2.847 . S
C410 O424 1.249 . S
C410 O425 1.202 . S
C411 C409 1.363 . S
C411 C413 1.408 . S
C411 C416 1.342 . S
C412 C413 1.310 . S
C412 C415 1.461 . S
C412 H432 0.932 . S
C413 C411 1.408 . S
C413 C412 1.310 . S
C413 H433 0.930 . S
C414 C415 1.474 . S
C414 C416 1.285 . S
C414 H434 0.929 . S
C415 C412 1.461 . S
C415 C414 1.474 . S
C416 C411 1.342 . S
C416 C414 1.285 . S
C416 H435 0.930 . S
C417 C420 1.424 . S
C417 C422 1.245 . S
C417 C423 1.428 . S
C418 C421 1.260 . S
C418 C422 1.477 . S
C418 H436 0.932 . S
C419 C420 1.384 . S
C419 C421 1.479 . S
C419 H437 0.929 . S
C420 C417 1.424 . S
C420 C419 1.384 . S
C420 H438 0.928 . S
C421 C418 1.260 . S
C421 C419 1.479 . S
C422 C417 1.245 . S
C422 C418 1.477 . S
C422 H439 0.932 . S
C423 U406 2.882 . S
C423 C417 1.428 . S
C423 O426 1.301 . S
C423 O427 1.282 . S
O424 U406 2.441 . S
O424 C410 1.249 . S
O425 U406 2.420 . S
O425 C410 1.202 . S
O426 U406 2.455 . S
O426 C423 1.301 . S
O427 U406 2.449 . S
O427 C423 1.282 . S
H428 C401 0.931 . S
H429 C403 0.929 . S
H430 C404 0.930 . S
H431 C405 0.931 . S
H432 C412 0.932 . S
H433 C413 0.930 . S
H434 C414 0.929 . S
H435 C416 0.930 . S
H436 C418 0.932 . S
H437 C419 0.929 . S
H438 C420 0.928 . S
H439 C422 0.932 . S
C440 C441 1.264 . S
C440 C445 1.479 . S
C440 C450 1.465 . S
C441 C440 1.264 . S
C441 C443 1.339 . S
C441 H468 0.931 . S
C442 C443 1.395 . S
C442 C444 1.320 . S
C443 C441 1.339 . S
C443 C442 1.395 . S
C443 H469 0.929 . S
C444 C442 1.320 . S
C444 C445 1.405 . S
C444 H470 0.930 . S
C445 C440 1.479 . S
C445 C444 1.405 . S
C445 H471 0.931 . S
U446 O447 2.454 . S
U446 O448 2.458 . S
U446 C449 2.984 . S
U446 C450 2.847 . S
U446 C463 2.882 . S
U446 O464 2.441 . S
U446 O465 2.420 . S
U446 O466 2.455 . S
U446 O467 2.449 . S
O447 U446 2.454 . S
O447 C449 1.353 . S
O448 U446 2.458 . S
O448 C449 1.286 . S
C449 U446 2.984 . S
C449 O447 1.353 . S
C449 O448 1.286 . S
C449 C451 1.363 . S
C450 C440 1.465 . S
C450 U446 2.847 . S
C450 O464 1.249 . S
C450 O465 1.202 . S
C451 C449 1.363 . S
C451 C453 1.408 . S
C451 C456 1.342 . S
C452 C453 1.310 . S
C452 C455 1.461 . S
C452 H472 0.932 . S
C453 C451 1.408 . S
C453 C452 1.310 . S
C453 H473 0.930 . S
C454 C455 1.474 . S
C454 C456 1.285 . S
C454 H474 0.929 . S
C455 C452 1.461 . S
C455 C454 1.474 . S
C456 C451 1.342 . S
C456 C454 1.285 . S
C456 H475 0.930 . S
C457 C460 1.424 . S
C457 C462 1.245 . S
C457 C463 1.428 . S
C458 C461 1.260 . S
C458 C462 1.477 . S
C458 H476 0.932 . S
C459 C460 1.384 . S
C459 C461 1.479 . S
C459 H477 0.929 . S
C460 C457 1.424 . S
C460 C459 1.384 . S
C460 H478 0.928 . S
C461 C458 1.260 . S
C461 C459 1.479 . S
C462 C457 1.245 . S
C462 C458 1.477 . S
C462 H479 0.932 . S
C463 U446 2.882 . S
C463 C457 1.428 . S
C463 O466 1.301 . S
C463 O467 1.282 . S
O464 U446 2.441 . S
O464 C450 1.249 . S
O465 U446 2.420 . S
O465 C450 1.202 . S
O466 U446 2.455 . S
O466 C463 1.301 . S
O467 U446 2.449 . S
O467 C463 1.282 . S
H468 C441 0.931 . S
H469 C443 0.929 . S
H470 C444 0.930 . S
H471 C445 0.931 . S
H472 C452 0.932 . S
H473 C453 0.930 . S
H474 C454 0.929 . S
H475 C456 0.930 . S
H476 C458 0.932 . S
H477 C459 0.929 . S
H478 C460 0.928 . S
H479 C462 0.932 . S
C480 C481 1.264 . S
C480 C485 1.479 . S
C480 C490 1.465 . S
C481 C480 1.264 . S
C481 C483 1.339 . S
C481 H508 0.931 . S
C482 C483 1.395 . S
C482 C484 1.320 . S
C483 C481 1.339 . S
C483 C482 1.395 . S
C483 H509 0.929 . S
C484 C482 1.320 . S
C484 C485 1.405 . S
C484 H510 0.930 . S
C485 C480 1.479 . S
C485 C484 1.405 . S
C485 H511 0.931 . S
U486 O487 2.454 . S
U486 O488 2.458 . S
U486 C489 2.984 . S
U486 C490 2.847 . S
U486 C503 2.882 . S
U486 O504 2.441 . S
U486 O505 2.420 . S
U486 O506 2.455 . S
U486 O507 2.449 . S
O487 U486 2.454 . S
O487 C489 1.353 . S
O488 U486 2.458 . S
O488 C489 1.286 . S
C489 U486 2.984 . S
C489 O487 1.353 . S
C489 O488 1.286 . S
C489 C491 1.363 . S
C490 C480 1.465 . S
C490 U486 2.847 . S
C490 O504 1.249 . S
C490 O505 1.202 . S
C491 C489 1.363 . S
C491 C493 1.408 . S
C491 C496 1.342 . S
C492 C493 1.310 . S
C492 C495 1.461 . S
C492 H512 0.932 . S
C493 C491 1.408 . S
C493 C492 1.310 . S
C493 H513 0.930 . S
C494 C495 1.474 . S
C494 C496 1.285 . S
C494 H514 0.929 . S
C495 C492 1.461 . S
C495 C494 1.474 . S
C496 C491 1.342 . S
C496 C494 1.285 . S
C496 H515 0.930 . S
C497 C500 1.424 . S
C497 C502 1.245 . S
C497 C503 1.428 . S
C498 C501 1.260 . S
C498 C502 1.477 . S
C498 H516 0.932 . S
C499 C500 1.384 . S
C499 C501 1.479 . S
C499 H517 0.929 . S
C500 C497 1.424 . S
C500 C499 1.384 . S
C500 H518 0.928 . S
C501 C498 1.260 . S
C501 C499 1.479 . S
C502 C497 1.245 . S
C502 C498 1.477 . S
C502 H519 0.932 . S
C503 U486 2.882 . S
C503 C497 1.428 . S
C503 O506 1.301 . S
C503 O507 1.282 . S
O504 U486 2.441 . S
O504 C490 1.249 . S
O505 U486 2.420 . S
O505 C490 1.202 . S
O506 U486 2.455 . S
O506 C503 1.301 . S
O507 U486 2.449 . S
O507 C503 1.282 . S
H508 C481 0.931 . S
H509 C483 0.929 . S
H510 C484 0.930 . S
H511 C485 0.931 . S
H512 C492 0.932 . S
H513 C493 0.930 . S
H514 C494 0.929 . S
H515 C496 0.930 . S
H516 C498 0.932 . S
H517 C499 0.929 . S
H518 C500 0.928 . S
H519 C502 0.932 . S
C520 C521 1.264 . S
C520 C525 1.479 . S
C520 C530 1.465 . S
C521 C520 1.264 . S
C521 C523 1.339 . S
C521 H548 0.931 . S
C522 C523 1.395 . S
C522 C524 1.320 . S
C523 C521 1.339 . S
C523 C522 1.395 . S
C523 H549 0.929 . S
C524 C522 1.320 . S
C524 C525 1.405 . S
C524 H550 0.930 . S
C525 C520 1.479 . S
C525 C524 1.405 . S
C525 H551 0.931 . S
U526 O527 2.454 . S
U526 O528 2.458 . S
U526 C529 2.984 . S
U526 C530 2.847 . S
U526 C543 2.882 . S
U526 O544 2.441 . S
U526 O545 2.420 . S
U526 O546 2.455 . S
U526 O547 2.449 . S
O527 U526 2.454 . S
O527 C529 1.353 . S
O528 U526 2.458 . S
O528 C529 1.286 . S
C529 U526 2.984 . S
C529 O527 1.353 . S
C529 O528 1.286 . S
C529 C531 1.363 . S
C530 C520 1.465 . S
C530 U526 2.847 . S
C530 O544 1.249 . S
C530 O545 1.202 . S
C531 C529 1.363 . S
C531 C533 1.408 . S
C531 C536 1.342 . S
C532 C533 1.310 . S
C532 C535 1.461 . S
C532 H552 0.932 . S
C533 C531 1.408 . S
C533 C532 1.310 . S
C533 H553 0.930 . S
C534 C535 1.474 . S
C534 C536 1.285 . S
C534 H554 0.929 . S
C535 C532 1.461 . S
C535 C534 1.474 . S
C536 C531 1.342 . S
C536 C534 1.285 . S
C536 H555 0.930 . S
C537 C540 1.424 . S
C537 C542 1.245 . S
C537 C543 1.428 . S
C538 C541 1.260 . S
C538 C542 1.477 . S
C538 H556 0.932 . S
C539 C540 1.384 . S
C539 C541 1.479 . S
C539 H557 0.929 . S
C540 C537 1.424 . S
C540 C539 1.384 . S
C540 H558 0.928 . S
C541 C538 1.260 . S
C541 C539 1.479 . S
C542 C537 1.245 . S
C542 C538 1.477 . S
C542 H559 0.932 . S
C543 U526 2.882 . S
C543 C537 1.428 . S
C543 O546 1.301 . S
C543 O547 1.282 . S
O544 U526 2.441 . S
O544 C530 1.249 . S
O545 U526 2.420 . S
O545 C530 1.202 . S
O546 U526 2.455 . S
O546 C543 1.301 . S
O547 U526 2.449 . S
O547 C543 1.282 . S
H548 C521 0.931 . S
H549 C523 0.929 . S
H550 C524 0.930 . S
H551 C525 0.931 . S
H552 C532 0.932 . S
H553 C533 0.930 . S
H554 C534 0.929 . S
H555 C536 0.930 . S
H556 C538 0.932 . S
H557 C539 0.929 . S
H558 C540 0.928 . S
H559 C542 0.932 . S
C560 C561 1.264 . S
C560 C565 1.479 . S
C560 C570 1.465 . S
C561 C560 1.264 . S
C561 C563 1.339 . S
C561 H588 0.931 . S
C562 C563 1.395 . S
C562 C564 1.320 . S
C563 C561 1.339 . S
C563 C562 1.395 . S
C563 H589 0.929 . S
C564 C562 1.320 . S
C564 C565 1.405 . S
C564 H590 0.930 . S
C565 C560 1.479 . S
C565 C564 1.405 . S
C565 H591 0.931 . S
U566 O567 2.454 . S
U566 O568 2.458 . S
U566 C569 2.984 . S
U566 C570 2.847 . S
U566 C583 2.882 . S
U566 O584 2.441 . S
U566 O585 2.420 . S
U566 O586 2.455 . S
U566 O587 2.449 . S
O567 U566 2.454 . S
O567 C569 1.353 . S
O568 U566 2.458 . S
O568 C569 1.286 . S
C569 U566 2.984 . S
C569 O567 1.353 . S
C569 O568 1.286 . S
C569 C571 1.363 . S
C570 C560 1.465 . S
C570 U566 2.847 . S
C570 O584 1.249 . S
C570 O585 1.202 . S
C571 C569 1.363 . S
C571 C573 1.408 . S
C571 C576 1.342 . S
C572 C573 1.310 . S
C572 C575 1.461 . S
C572 H592 0.932 . S
C573 C571 1.408 . S
C573 C572 1.310 . S
C573 H593 0.930 . S
C574 C575 1.474 . S
C574 C576 1.285 . S
C574 H594 0.929 . S
C575 C572 1.461 . S
C575 C574 1.474 . S
C576 C571 1.342 . S
C576 C574 1.285 . S
C576 H595 0.930 . S
C577 C580 1.424 . S
C577 C582 1.245 . S
C577 C583 1.428 . S
C578 C581 1.260 . S
C578 C582 1.477 . S
C578 H596 0.932 . S
C579 C580 1.384 . S
C579 C581 1.479 . S
C579 H597 0.929 . S
C580 C577 1.424 . S
C580 C579 1.384 . S
C580 H598 0.928 . S
C581 C578 1.260 . S
C581 C579 1.479 . S
C582 C577 1.245 . S
C582 C578 1.477 . S
C582 H599 0.932 . S
C583 U566 2.882 . S
C583 C577 1.428 . S
C583 O586 1.301 . S
C583 O587 1.282 . S
O584 U566 2.441 . S
O584 C570 1.249 . S
O585 U566 2.420 . S
O585 C570 1.202 . S
O586 U566 2.455 . S
O586 C583 1.301 . S
O587 U566 2.449 . S
O587 C583 1.282 . S
H588 C561 0.931 . S
H589 C563 0.929 . S
H590 C564 0.930 . S
H591 C565 0.931 . S
H592 C572 0.932 . S
H593 C573 0.930 . S
H594 C574 0.929 . S
H595 C576 0.930 . S
H596 C578 0.932 . S
H597 C579 0.929 . S
H598 C580 0.928 . S
H599 C582 0.932 . S
C600 C601 1.264 . S
C600 C605 1.479 . S
C600 C610 1.465 . S
C601 C600 1.264 . S
C601 C603 1.339 . S
C601 H628 0.931 . S
C602 C603 1.395 . S
C602 C604 1.320 . S
C603 C601 1.339 . S
C603 C602 1.395 . S
C603 H629 0.929 . S
C604 C602 1.320 . S
C604 C605 1.405 . S
C604 H630 0.930 . S
C605 C600 1.479 . S
C605 C604 1.405 . S
C605 H631 0.931 . S
U606 O607 2.454 . S
U606 O608 2.458 . S
U606 C609 2.984 . S
U606 C610 2.847 . S
U606 C623 2.882 . S
U606 O624 2.441 . S
U606 O625 2.420 . S
U606 O626 2.455 . S
U606 O627 2.449 . S
O607 U606 2.454 . S
O607 C609 1.353 . S
O608 U606 2.458 . S
O608 C609 1.286 . S
C609 U606 2.984 . S
C609 O607 1.353 . S
C609 O608 1.286 . S
C609 C611 1.363 . S
C610 C600 1.465 . S
C610 U606 2.847 . S
C610 O624 1.249 . S
C610 O625 1.202 . S
C611 C609 1.363 . S
C611 C613 1.408 . S
C611 C616 1.342 . S
C612 C613 1.310 . S
C612 C615 1.461 . S
C612 H632 0.932 . S
C613 C611 1.408 . S
C613 C612 1.310 . S
C613 H633 0.930 . S
C614 C615 1.474 . S
C614 C616 1.285 . S
C614 H634 0.929 . S
C615 C612 1.461 . S
C615 C614 1.474 . S
C616 C611 1.342 . S
C616 C614 1.285 . S
C616 H635 0.930 . S
C617 C620 1.424 . S
C617 C622 1.245 . S
C617 C623 1.428 . S
C618 C621 1.260 . S
C618 C622 1.477 . S
C618 H636 0.932 . S
C619 C620 1.384 . S
C619 C621 1.479 . S
C619 H637 0.929 . S
C620 C617 1.424 . S
C620 C619 1.384 . S
C620 H638 0.928 . S
C621 C618 1.260 . S
C621 C619 1.479 . S
C622 C617 1.245 . S
C622 C618 1.477 . S
C622 H639 0.932 . S
C623 U606 2.882 . S
C623 C617 1.428 . S
C623 O626 1.301 . S
C623 O627 1.282 . S
O624 U606 2.441 . S
O624 C610 1.249 . S
O625 U606 2.420 . S
O625 C610 1.202 . S
O626 U606 2.455 . S
O626 C623 1.301 . S
O627 U606 2.449 . S
O627 C623 1.282 . S
H628 C601 0.931 . S
H629 C603 0.929 . S
H630 C604 0.930 . S
H631 C605 0.931 . S
H632 C612 0.932 . S
H633 C613 0.930 . S
H634 C614 0.929 . S
H635 C616 0.930 . S
H636 C618 0.932 . S
H637 C619 0.929 . S
H638 C620 0.928 . S
H639 C622 0.932 . S
C640 C641 1.264 . S
C640 C645 1.479 . S
C640 C650 1.465 . S
C641 C640 1.264 . S
C641 C643 1.339 . S
C641 H668 0.931 . S
C642 C643 1.395 . S
C642 C644 1.320 . S
C643 C641 1.339 . S
C643 C642 1.395 . S
C643 H669 0.929 . S
C644 C642 1.320 . S
C644 C645 1.405 . S
C644 H670 0.930 . S
C645 C640 1.479 . S
C645 C644 1.405 . S
C645 H671 0.931 . S
U646 O647 2.454 . S
U646 O648 2.458 . S
U646 C649 2.984 . S
U646 C650 2.847 . S
U646 C663 2.882 . S
U646 O664 2.441 . S
U646 O665 2.420 . S
U646 O666 2.455 . S
U646 O667 2.449 . S
O647 U646 2.454 . S
O647 C649 1.353 . S
O648 U646 2.458 . S
O648 C649 1.286 . S
C649 U646 2.984 . S
C649 O647 1.353 . S
C649 O648 1.286 . S
C649 C651 1.363 . S
C650 C640 1.465 . S
C650 U646 2.847 . S
C650 O664 1.249 . S
C650 O665 1.202 . S
C651 C649 1.363 . S
C651 C653 1.408 . S
C651 C656 1.342 . S
C652 C653 1.310 . S
C652 C655 1.461 . S
C652 H672 0.932 . S
C653 C651 1.408 . S
C653 C652 1.310 . S
C653 H673 0.930 . S
C654 C655 1.474 . S
C654 C656 1.285 . S
C654 H674 0.929 . S
C655 C652 1.461 . S
C655 C654 1.474 . S
C656 C651 1.342 . S
C656 C654 1.285 . S
C656 H675 0.930 . S
C657 C660 1.424 . S
C657 C662 1.245 . S
C657 C663 1.428 . S
C658 C661 1.260 . S
C658 C662 1.477 . S
C658 H676 0.932 . S
C659 C660 1.384 . S
C659 C661 1.479 . S
C659 H677 0.929 . S
C660 C657 1.424 . S
C660 C659 1.384 . S
C660 H678 0.928 . S
C661 C658 1.260 . S
C661 C659 1.479 . S
C662 C657 1.245 . S
C662 C658 1.477 . S
C662 H679 0.932 . S
C663 U646 2.882 . S
C663 C657 1.428 . S
C663 O666 1.301 . S
C663 O667 1.282 . S
O664 U646 2.441 . S
O664 C650 1.249 . S
O665 U646 2.420 . S
O665 C650 1.202 . S
O666 U646 2.455 . S
O666 C663 1.301 . S
O667 U646 2.449 . S
O667 C663 1.282 . S
H668 C641 0.931 . S
H669 C643 0.929 . S
H670 C644 0.930 . S
H671 C645 0.931 . S
H672 C652 0.932 . S
H673 C653 0.930 . S
H674 C654 0.929 . S
H675 C656 0.930 . S
H676 C658 0.932 . S
H677 C659 0.929 . S
H678 C660 0.928 . S
H679 C662 0.932 . S
C680 C681 1.264 . S
C680 C685 1.479 . S
C680 C690 1.465 . S
C681 C680 1.264 . S
C681 C683 1.339 . S
C681 H708 0.931 . S
C682 C683 1.395 . S
C682 C684 1.320 . S
C683 C681 1.339 . S
C683 C682 1.395 . S
C683 H709 0.929 . S
C684 C682 1.320 . S
C684 C685 1.405 . S
C684 H710 0.930 . S
C685 C680 1.479 . S
C685 C684 1.405 . S
C685 H711 0.931 . S
U686 O687 2.454 . S
U686 O688 2.458 . S
U686 C689 2.984 . S
U686 C690 2.847 . S
U686 C703 2.882 . S
U686 O704 2.441 . S
U686 O705 2.420 . S
U686 O706 2.455 . S
U686 O707 2.449 . S
O687 U686 2.454 . S
O687 C689 1.353 . S
O688 U686 2.458 . S
O688 C689 1.286 . S
C689 U686 2.984 . S
C689 O687 1.353 . S
C689 O688 1.286 . S
C689 C691 1.363 . S
C690 C680 1.465 . S
C690 U686 2.847 . S
C690 O704 1.249 . S
C690 O705 1.202 . S
C691 C689 1.363 . S
C691 C693 1.408 . S
C691 C696 1.342 . S
C692 C693 1.310 . S
C692 C695 1.461 . S
C692 H712 0.932 . S
C693 C691 1.408 . S
C693 C692 1.310 . S
C693 H713 0.930 . S
C694 C695 1.474 . S
C694 C696 1.285 . S
C694 H714 0.929 . S
C695 C692 1.461 . S
C695 C694 1.474 . S
C696 C691 1.342 . S
C696 C694 1.285 . S
C696 H715 0.930 . S
C697 C700 1.424 . S
C697 C702 1.245 . S
C697 C703 1.428 . S
C698 C701 1.260 . S
C698 C702 1.477 . S
C698 H716 0.932 . S
C699 C700 1.384 . S
C699 C701 1.479 . S
C699 H717 0.929 . S
C700 C697 1.424 . S
C700 C699 1.384 . S
C700 H718 0.928 . S
C701 C698 1.260 . S
C701 C699 1.479 . S
C702 C697 1.245 . S
C702 C698 1.477 . S
C702 H719 0.932 . S
C703 U686 2.882 . S
C703 C697 1.428 . S
C703 O706 1.301 . S
C703 O707 1.282 . S
O704 U686 2.441 . S
O704 C690 1.249 . S
O705 U686 2.420 . S
O705 C690 1.202 . S
O706 U686 2.455 . S
O706 C703 1.301 . S
O707 U686 2.449 . S
O707 C703 1.282 . S
H708 C681 0.931 . S
H709 C683 0.929 . S
H710 C684 0.930 . S
H711 C685 0.931 . S
H712 C692 0.932 . S
H713 C693 0.930 . S
H714 C694 0.929 . S
H715 C696 0.930 . S
H716 C698 0.932 . S
H717 C699 0.929 . S
H718 C700 0.928 . S
H719 C702 0.932 . S
C720 C721 1.264 . S
C720 C725 1.479 . S
C720 C730 1.465 . S
C721 C720 1.264 . S
C721 C723 1.339 . S
C721 H748 0.931 . S
C722 C723 1.395 . S
C722 C724 1.320 . S
C723 C721 1.339 . S
C723 C722 1.395 . S
C723 H749 0.929 . S
C724 C722 1.320 . S
C724 C725 1.405 . S
C724 H750 0.930 . S
C725 C720 1.479 . S
C725 C724 1.405 . S
C725 H751 0.931 . S
U726 O727 2.454 . S
U726 O728 2.458 . S
U726 C729 2.984 . S
U726 C730 2.847 . S
U726 C743 2.882 . S
U726 O744 2.441 . S
U726 O745 2.420 . S
U726 O746 2.455 . S
U726 O747 2.449 . S
O727 U726 2.454 . S
O727 C729 1.353 . S
O728 U726 2.458 . S
O728 C729 1.286 . S
C729 U726 2.984 . S
C729 O727 1.353 . S
C729 O728 1.286 . S
C729 C731 1.363 . S
C730 C720 1.465 . S
C730 U726 2.847 . S
C730 O744 1.249 . S
C730 O745 1.202 . S
C731 C729 1.363 . S
C731 C733 1.408 . S
C731 C736 1.342 . S
C732 C733 1.310 . S
C732 C735 1.461 . S
C732 H752 0.932 . S
C733 C731 1.408 . S
C733 C732 1.310 . S
C733 H753 0.930 . S
C734 C735 1.474 . S
C734 C736 1.285 . S
C734 H754 0.929 . S
C735 C732 1.461 . S
C735 C734 1.474 . S
C736 C731 1.342 . S
C736 C734 1.285 . S
C736 H755 0.930 . S
C737 C740 1.424 . S
C737 C742 1.245 . S
C737 C743 1.428 . S
C738 C741 1.260 . S
C738 C742 1.477 . S
C738 H756 0.932 . S
C739 C740 1.384 . S
C739 C741 1.479 . S
C739 H757 0.929 . S
C740 C737 1.424 . S
C740 C739 1.384 . S
C740 H758 0.928 . S
C741 C738 1.260 . S
C741 C739 1.479 . S
C742 C737 1.245 . S
C742 C738 1.477 . S
C742 H759 0.932 . S
C743 U726 2.882 . S
C743 C737 1.428 . S
C743 O746 1.301 . S
C743 O747 1.282 . S
O744 U726 2.441 . S
O744 C730 1.249 . S
O745 U726 2.420 . S
O745 C730 1.202 . S
O746 U726 2.455 . S
O746 C743 1.301 . S
O747 U726 2.449 . S
O747 C743 1.282 . S
H748 C721 0.931 . S
H749 C723 0.929 . S
H750 C724 0.930 . S
H751 C725 0.931 . S
H752 C732 0.932 . S
H753 C733 0.930 . S
H754 C734 0.929 . S
H755 C736 0.930 . S
H756 C738 0.932 . S
H757 C739 0.929 . S
H758 C740 0.928 . S
H759 C742 0.932 . S
C760 C761 1.264 . S
C760 C765 1.479 . S
C760 C770 1.465 . S
C761 C760 1.264 . S
C761 C763 1.339 . S
C761 H788 0.931 . S
C762 C763 1.395 . S
C762 C764 1.320 . S
C763 C761 1.339 . S
C763 C762 1.395 . S
C763 H789 0.929 . S
C764 C762 1.320 . S
C764 C765 1.405 . S
C764 H790 0.930 . S
C765 C760 1.479 . S
C765 C764 1.405 . S
C765 H791 0.931 . S
U766 O767 2.454 . S
U766 O768 2.458 . S
U766 C769 2.984 . S
U766 C770 2.847 . S
U766 C783 2.882 . S
U766 O784 2.441 . S
U766 O785 2.420 . S
U766 O786 2.455 . S
U766 O787 2.449 . S
O767 U766 2.454 . S
O767 C769 1.353 . S
O768 U766 2.458 . S
O768 C769 1.286 . S
C769 U766 2.984 . S
C769 O767 1.353 . S
C769 O768 1.286 . S
C769 C771 1.363 . S
C770 C760 1.465 . S
C770 U766 2.847 . S
C770 O784 1.249 . S
C770 O785 1.202 . S
C771 C769 1.363 . S
C771 C773 1.408 . S
C771 C776 1.342 . S
C772 C773 1.310 . S
C772 C775 1.461 . S
C772 H792 0.932 . S
C773 C771 1.408 . S
C773 C772 1.310 . S
C773 H793 0.930 . S
C774 C775 1.474 . S
C774 C776 1.285 . S
C774 H794 0.929 . S
C775 C772 1.461 . S
C775 C774 1.474 . S
C776 C771 1.342 . S
C776 C774 1.285 . S
C776 H795 0.930 . S
C777 C780 1.424 . S
C777 C782 1.245 . S
C777 C783 1.428 . S
C778 C781 1.260 . S
C778 C782 1.477 . S
C778 H796 0.932 . S
C779 C780 1.384 . S
C779 C781 1.479 . S
C779 H797 0.929 . S
C780 C777 1.424 . S
C780 C779 1.384 . S
C780 H798 0.928 . S
C781 C778 1.260 . S
C781 C779 1.479 . S
C782 C777 1.245 . S
C782 C778 1.477 . S
C782 H799 0.932 . S
C783 U766 2.882 . S
C783 C777 1.428 . S
C783 O786 1.301 . S
C783 O787 1.282 . S
O784 U766 2.441 . S
O784 C770 1.249 . S
O785 U766 2.420 . S
O785 C770 1.202 . S
O786 U766 2.455 . S
O786 C783 1.301 . S
O787 U766 2.449 . S
O787 C783 1.282 . S
H788 C761 0.931 . S
H789 C763 0.929 . S
H790 C764 0.930 . S
H791 C765 0.931 . S
H792 C772 0.932 . S
H793 C773 0.930 . S
H794 C774 0.929 . S
H795 C776 0.930 . S
H796 C778 0.932 . S
H797 C779 0.929 . S
H798 C780 0.928 . S
H799 C782 0.932 . S
C800 C801 1.264 . S
C800 C805 1.479 . S
C800 C810 1.465 . S
C801 C800 1.264 . S
C801 C803 1.339 . S
C801 H828 0.931 . S
C802 C803 1.395 . S
C802 C804 1.320 . S
C803 C801 1.339 . S
C803 C802 1.395 . S
C803 H829 0.929 . S
C804 C802 1.320 . S
C804 C805 1.405 . S
C804 H830 0.930 . S
C805 C800 1.479 . S
C805 C804 1.405 . S
C805 H831 0.931 . S
U806 O807 2.454 . S
U806 O808 2.458 . S
U806 C809 2.984 . S
U806 C810 2.847 . S
U806 C823 2.882 . S
U806 O824 2.441 . S
U806 O825 2.420 . S
U806 O826 2.455 . S
U806 O827 2.449 . S
O807 U806 2.454 . S
O807 C809 1.353 . S
O808 U806 2.458 . S
O808 C809 1.286 . S
C809 U806 2.984 . S
C809 O807 1.353 . S
C809 O808 1.286 . S
C809 C811 1.363 . S
C810 C800 1.465 . S
C810 U806 2.847 . S
C810 O824 1.249 . S
C810 O825 1.202 . S
C811 C809 1.363 . S
C811 C813 1.408 . S
C811 C816 1.342 . S
C812 C813 1.310 . S
C812 C815 1.461 . S
C812 H832 0.932 . S
C813 C811 1.408 . S
C813 C812 1.310 . S
C813 H833 0.930 . S
C814 C815 1.474 . S
C814 C816 1.285 . S
C814 H834 0.929 . S
C815 C812 1.461 . S
C815 C814 1.474 . S
C816 C811 1.342 . S
C816 C814 1.285 . S
C816 H835 0.930 . S
C817 C820 1.424 . S
C817 C822 1.245 . S
C817 C823 1.428 . S
C818 C821 1.260 . S
C818 C822 1.477 . S
C818 H836 0.932 . S
C819 C820 1.384 . S
C819 C821 1.479 . S
C819 H837 0.929 . S
C820 C817 1.424 . S
C820 C819 1.384 . S
C820 H838 0.928 . S
C821 C818 1.260 . S
C821 C819 1.479 . S
C822 C817 1.245 . S
C822 C818 1.477 . S
C822 H839 0.932 . S
C823 U806 2.882 . S
C823 C817 1.428 . S
C823 O826 1.301 . S
C823 O827 1.282 . S
O824 U806 2.441 . S
O824 C810 1.249 . S
O825 U806 2.420 . S
O825 C810 1.202 . S
O826 U806 2.455 . S
O826 C823 1.301 . S
O827 U806 2.449 . S
O827 C823 1.282 . S
H828 C801 0.931 . S
H829 C803 0.929 . S
H830 C804 0.930 . S
H831 C805 0.931 . S
H832 C812 0.932 . S
H833 C813 0.930 . S
H834 C814 0.929 . S
H835 C816 0.930 . S
H836 C818 0.932 . S
H837 C819 0.929 . S
H838 C820 0.928 . S
H839 C822 0.932 . S
C840 C841 1.264 . S
C840 C845 1.479 . S
C840 C850 1.465 . S
C841 C840 1.264 . S
C841 C843 1.339 . S
C841 H868 0.931 . S
C842 C843 1.395 . S
C842 C844 1.320 . S
C843 C841 1.339 . S
C843 C842 1.395 . S
C843 H869 0.929 . S
C844 C842 1.320 . S
C844 C845 1.405 . S
C844 H870 0.930 . S
C845 C840 1.479 . S
C845 C844 1.405 . S
C845 H871 0.931 . S
U846 O847 2.454 . S
U846 O848 2.458 . S
U846 C849 2.984 . S
U846 C850 2.847 . S
U846 C863 2.882 . S
U846 O864 2.441 . S
U846 O865 2.420 . S
U846 O866 2.455 . S
U846 O867 2.449 . S
O847 U846 2.454 . S
O847 C849 1.353 . S
O848 U846 2.458 . S
O848 C849 1.286 . S
C849 U846 2.984 . S
C849 O847 1.353 . S
C849 O848 1.286 . S
C849 C851 1.363 . S
C850 C840 1.465 . S
C850 U846 2.847 . S
C850 O864 1.249 . S
C850 O865 1.202 . S
C851 C849 1.363 . S
C851 C853 1.408 . S
C851 C856 1.342 . S
C852 C853 1.310 . S
C852 C855 1.461 . S
C852 H872 0.932 . S
C853 C851 1.408 . S
C853 C852 1.310 . S
C853 H873 0.930 . S
C854 C855 1.474 . S
C854 C856 1.285 . S
C854 H874 0.929 . S
C855 C852 1.461 . S
C855 C854 1.474 . S
C856 C851 1.342 . S
C856 C854 1.285 . S
C856 H875 0.930 . S
C857 C860 1.424 . S
C857 C862 1.245 . S
C857 C863 1.428 . S
C858 C861 1.260 . S
C858 C862 1.477 . S
C858 H876 0.932 . S
C859 C860 1.384 . S
C859 C861 1.479 . S
C859 H877 0.929 . S
C860 C857 1.424 . S
C860 C859 1.384 . S
C860 H878 0.928 . S
C861 C858 1.260 . S
C861 C859 1.479 . S
C862 C857 1.245 . S
C862 C858 1.477 . S
C862 H879 0.932 . S
C863 U846 2.882 . S
C863 C857 1.428 . S
C863 O866 1.301 . S
C863 O867 1.282 . S
O864 U846 2.441 . S
O864 C850 1.249 . S
O865 U846 2.420 . S
O865 C850 1.202 . S
O866 U846 2.455 . S
O866 C863 1.301 . S
O867 U846 2.449 . S
O867 C863 1.282 . S
H868 C841 0.931 . S
H869 C843 0.929 . S
H870 C844 0.930 . S
H871 C845 0.931 . S
H872 C852 0.932 . S
H873 C853 0.930 . S
H874 C854 0.929 . S
H875 C856 0.930 . S
H876 C858 0.932 . S
H877 C859 0.929 . S
H878 C860 0.928 . S
H879 C862 0.932 . S
C880 C881 1.264 . S
C880 C885 1.479 . S
C880 C890 1.465 . S
C881 C880 1.264 . S
C881 C883 1.339 . S
C881 H908 0.931 . S
C882 C883 1.395 . S
C882 C884 1.320 . S
C883 C881 1.339 . S
C883 C882 1.395 . S
C883 H909 0.929 . S
C884 C882 1.320 . S
C884 C885 1.405 . S
C884 H910 0.930 . S
C885 C880 1.479 . S
C885 C884 1.405 . S
C885 H911 0.931 . S
U886 O887 2.454 . S
U886 O888 2.458 . S
U886 C889 2.984 . S
U886 C890 2.847 . S
U886 C903 2.882 . S
U886 O904 2.441 . S
U886 O905 2.420 . S
U886 O906 2.455 . S
U886 O907 2.449 . S
O887 U886 2.454 . S
O887 C889 1.353 . S
O888 U886 2.458 . S
O888 C889 1.286 . S
C889 U886 2.984 . S
C889 O887 1.353 . S
C889 O888 1.286 . S
C889 C891 1.363 . S
C890 C880 1.465 . S
C890 U886 2.847 . S
C890 O904 1.249 . S
C890 O905 1.202 . S
C891 C889 1.363 . S
C891 C893 1.408 . S
C891 C896 1.342 . S
C892 C893 1.310 . S
C892 C895 1.461 . S
C892 H912 0.932 . S
C893 C891 1.408 . S
C893 C892 1.310 . S
C893 H913 0.930 . S
C894 C895 1.474 . S
C894 C896 1.285 . S
C894 H914 0.929 . S
C895 C892 1.461 . S
C895 C894 1.474 . S
C896 C891 1.342 . S
C896 C894 1.285 . S
C896 H915 0.930 . S
C897 C900 1.424 . S
C897 C902 1.245 . S
C897 C903 1.428 . S
C898 C901 1.260 . S
C898 C902 1.477 . S
C898 H916 0.932 . S
C899 C900 1.384 . S
C899 C901 1.479 . S
C899 H917 0.929 . S
C900 C897 1.424 . S
C900 C899 1.384 . S
C900 H918 0.928 . S
C901 C898 1.260 . S
C901 C899 1.479 . S
C902 C897 1.245 . S
C902 C898 1.477 . S
C902 H919 0.932 . S
C903 U886 2.882 . S
C903 C897 1.428 . S
C903 O906 1.301 . S
C903 O907 1.282 . S
O904 U886 2.441 . S
O904 C890 1.249 . S
O905 U886 2.420 . S
O905 C890 1.202 . S
O906 U886 2.455 . S
O906 C903 1.301 . S
O907 U886 2.449 . S
O907 C903 1.282 . S
H908 C881 0.931 . S
H909 C883 0.929 . S
H910 C884 0.930 . S
H911 C885 0.931 . S
H912 C892 0.932 . S
H913 C893 0.930 . S
H914 C894 0.929 . S
H915 C896 0.930 . S
H916 C898 0.932 . S
H917 C899 0.929 . S
H918 C900 0.928 . S
H919 C902 0.932 . S
C920 C921 1.264 . S
C920 C925 1.479 . S
C920 C930 1.465 . S
C921 C920 1.264 . S
C921 C923 1.339 . S
C921 H948 0.931 . S
C922 C923 1.395 . S
C922 C924 1.320 . S
C923 C921 1.339 . S
C923 C922 1.395 . S
C923 H949 0.929 . S
C924 C922 1.320 . S
C924 C925 1.405 . S
C924 H950 0.930 . S
C925 C920 1.479 . S
C925 C924 1.405 . S
C925 H951 0.931 . S
U926 O927 2.454 . S
U926 O928 2.458 . S
U926 C929 2.984 . S
U926 C930 2.847 . S
U926 C943 2.882 . S
U926 O944 2.441 . S
U926 O945 2.420 . S
U926 O946 2.455 . S
U926 O947 2.449 . S
O927 U926 2.454 . S
O927 C929 1.353 . S
O928 U926 2.458 . S
O928 C929 1.286 . S
C929 U926 2.984 . S
C929 O927 1.353 . S
C929 O928 1.286 . S
C929 C931 1.363 . S
C930 C920 1.465 . S
C930 U926 2.847 . S
C930 O944 1.249 . S
C930 O945 1.202 . S
C931 C929 1.363 . S
C931 C933 1.408 . S
C931 C936 1.342 . S
C932 C933 1.310 . S
C932 C935 1.461 . S
C932 H952 0.932 . S
C933 C931 1.408 . S
C933 C932 1.310 . S
C933 H953 0.930 . S
C934 C935 1.474 . S
C934 C936 1.285 . S
C934 H954 0.929 . S
C935 C932 1.461 . S
C935 C934 1.474 . S
C936 C931 1.342 . S
C936 C934 1.285 . S
C936 H955 0.930 . S
C937 C940 1.424 . S
C937 C942 1.245 . S
C937 C943 1.428 . S
C938 C941 1.260 . S
C938 C942 1.477 . S
C938 H956 0.932 . S
C939 C940 1.384 . S
C939 C941 1.479 . S
C939 H957 0.929 . S
C940 C937 1.424 . S
C940 C939 1.384 . S
C940 H958 0.928 . S
C941 C938 1.260 . S
C941 C939 1.479 . S
C942 C937 1.245 . S
C942 C938 1.477 . S
C942 H959 0.932 . S
C943 U926 2.882 . S
C943 C937 1.428 . S
C943 O946 1.301 . S
C943 O947 1.282 . S
O944 U926 2.441 . S
O944 C930 1.249 . S
O945 U926 2.420 . S
O945 C930 1.202 . S
O946 U926 2.455 . S
O946 C943 1.301 . S
O947 U926 2.449 . S
O947 C943 1.282 . S
H948 C921 0.931 . S
H949 C923 0.929 . S
H950 C924 0.930 . S
H951 C925 0.931 . S
H952 C932 0.932 . S
H953 C933 0.930 . S
H954 C934 0.929 . S
H955 C936 0.930 . S
H956 C938 0.932 . S
H957 C939 0.929 . S
H958 C940 0.928 . S
H959 C942 0.932 . S
C960 C961 1.264 . S
C960 C965 1.479 . S
C960 C970 1.465 . S
C961 C960 1.264 . S
C961 C963 1.339 . S
C961 H988 0.931 . S
C962 C963 1.395 . S
C962 C964 1.320 . S
C963 C961 1.339 . S
C963 C962 1.395 . S
C963 H989 0.929 . S
C964 C962 1.320 . S
C964 C965 1.405 . S
C964 H990 0.930 . S
C965 C960 1.479 . S
C965 C964 1.405 . S
C965 H991 0.931 . S
U966 O967 2.454 . S
U966 O968 2.458 . S
U966 C969 2.984 . S
U966 C970 2.847 . S
U966 C983 2.882 . S
U966 O984 2.441 . S
U966 O985 2.420 . S
U966 O986 2.455 . S
U966 O987 2.449 . S
O967 U966 2.454 . S
O967 C969 1.353 . S
O968 U966 2.458 . S
O968 C969 1.286 . S
C969 U966 2.984 . S
C969 O967 1.353 . S
C969 O968 1.286 . S
C969 C971 1.363 . S
C970 C960 1.465 . S
C970 U966 2.847 . S
C970 O984 1.249 . S
C970 O985 1.202 . S
C971 C969 1.363 . S
C971 C973 1.408 . S
C971 C976 1.342 . S
C972 C973 1.310 . S
C972 C975 1.461 . S
C972 H992 0.932 . S
C973 C971 1.408 . S
C973 C972 1.310 . S
C973 H993 0.930 . S
C974 C975 1.474 . S
C974 C976 1.285 . S
C974 H994 0.929 . S
C975 C972 1.461 . S
C975 C974 1.474 . S
C976 C971 1.342 . S
C976 C974 1.285 . S
C976 H995 0.930 . S
C977 C980 1.424 . S
C977 C982 1.245 . S
C977 C983 1.428 . S
C978 C981 1.260 . S
C978 C982 1.477 . S
C978 H996 0.932 . S
C979 C980 1.384 . S
C979 C981 1.479 . S
C979 H997 0.929 . S
C980 C977 1.424 . S
C980 C979 1.384 . S
C980 H998 0.928 . S
C981 C978 1.260 . S
C981 C979 1.479 . S
C982 C977 1.245 . S
C982 C978 1.477 . S
C982 H999 0.932 . S
C983 U966 2.882 . S
C983 C977 1.428 . S
C983 O986 1.301 . S
C983 O987 1.282 . S
O984 U966 2.441 . S
O984 C970 1.249 . S
O985 U966 2.420 . S
O985 C970 1.202 . S
O986 U966 2.455 . S
O986 C983 1.301 . S
O987 U966 2.449 . S
O987 C983 1.282 . S
H988 C961 0.931 . S
H989 C963 0.929 . S
H990 C964 0.930 . S
H991 C965 0.931 . S
H992 C972 0.932 . S
H993 C973 0.930 . S
H994 C974 0.929 . S
H995 C976 0.930 . S
H996 C978 0.932 . S
H997 C979 0.929 . S
H998 C980 0.928 . S
H999 C982 0.932 . S
C1000 C1001 1.264 . S
C1000 C1005 1.479 . S
C1000 C1010 1.465 . S
C1001 C1000 1.264 . S
C1001 C1003 1.339 . S
C1001 H1028 0.931 . S
C1002 C1003 1.395 . S
C1002 C1004 1.320 . S
C1003 C1001 1.339 . S
C1003 C1002 1.395 . S
C1003 H1029 0.929 . S
C1004 C1002 1.320 . S
C1004 C1005 1.405 . S
C1004 H1030 0.930 . S
C1005 C1000 1.479 . S
C1005 C1004 1.405 . S
C1005 H1031 0.931 . S
U1006 O1007 2.454 . S
U1006 O1008 2.458 . S
U1006 C1009 2.984 . S
U1006 C1010 2.847 . S
U1006 C1023 2.882 . S
U1006 O1024 2.441 . S
U1006 O1025 2.420 . S
U1006 O1026 2.455 . S
U1006 O1027 2.449 . S
O1007 U1006 2.454 . S
O1007 C1009 1.353 . S
O1008 U1006 2.458 . S
O1008 C1009 1.286 . S
C1009 U1006 2.984 . S
C1009 O1007 1.353 . S
C1009 O1008 1.286 . S
C1009 C1011 1.363 . S
C1010 C1000 1.465 . S
C1010 U1006 2.847 . S
C1010 O1024 1.249 . S
C1010 O1025 1.202 . S
C1011 C1009 1.363 . S
C1011 C1013 1.408 . S
C1011 C1016 1.342 . S
C1012 C1013 1.310 . S
C1012 C1015 1.461 . S
C1012 H1032 0.932 . S
C1013 C1011 1.408 . S
C1013 C1012 1.310 . S
C1013 H1033 0.930 . S
C1014 C1015 1.474 . S
C1014 C1016 1.285 . S
C1014 H1034 0.929 . S
C1015 C1012 1.461 . S
C1015 C1014 1.474 . S
C1016 C1011 1.342 . S
C1016 C1014 1.285 . S
C1016 H1035 0.930 . S
C1017 C1020 1.424 . S
C1017 C1022 1.245 . S
C1017 C1023 1.428 . S
C1018 C1021 1.260 . S
C1018 C1022 1.477 . S
C1018 H1036 0.932 . S
C1019 C1020 1.384 . S
C1019 C1021 1.479 . S
C1019 H1037 0.929 . S
C1020 C1017 1.424 . S
C1020 C1019 1.384 . S
C1020 H1038 0.928 . S
C1021 C1018 1.260 . S
C1021 C1019 1.479 . S
C1022 C1017 1.245 . S
C1022 C1018 1.477 . S
C1022 H1039 0.932 . S
C1023 U1006 2.882 . S
C1023 C1017 1.428 . S
C1023 O1026 1.301 . S
C1023 O1027 1.282 . S
O1024 U1006 2.441 . S
O1024 C1010 1.249 . S
O1025 U1006 2.420 . S
O1025 C1010 1.202 . S
O1026 U1006 2.455 . S
O1026 C1023 1.301 . S
O1027 U1006 2.449 . S
O1027 C1023 1.282 . S
H1028 C1001 0.931 . S
H1029 C1003 0.929 . S
H1030 C1004 0.930 . S
H1031 C1005 0.931 . S
H1032 C1012 0.932 . S
H1033 C1013 0.930 . S
H1034 C1014 0.929 . S
H1035 C1016 0.930 . S
H1036 C1018 0.932 . S
H1037 C1019 0.929 . S
H1038 C1020 0.928 . S
H1039 C1022 0.932 . S
C1040 C1041 1.264 . S
C1040 C1045 1.479 . S
C1040 C1050 1.465 . S
C1041 C1040 1.264 . S
C1041 C1043 1.339 . S
C1041 H1068 0.931 . S
C1042 C1043 1.395 . S
C1042 C1044 1.320 . S
C1043 C1041 1.339 . S
C1043 C1042 1.395 . S
C1043 H1069 0.929 . S
C1044 C1042 1.320 . S
C1044 C1045 1.405 . S
C1044 H1070 0.930 . S
C1045 C1040 1.479 . S
C1045 C1044 1.405 . S
C1045 H1071 0.931 . S
U1046 O1047 2.454 . S
U1046 O1048 2.458 . S
U1046 C1049 2.984 . S
U1046 C1050 2.847 . S
U1046 C1063 2.882 . S
U1046 O1064 2.441 . S
U1046 O1065 2.420 . S
U1046 O1066 2.455 . S
U1046 O1067 2.449 . S
O1047 U1046 2.454 . S
O1047 C1049 1.353 . S
O1048 U1046 2.458 . S
O1048 C1049 1.286 . S
C1049 U1046 2.984 . S
C1049 O1047 1.353 . S
C1049 O1048 1.286 . S
C1049 C1051 1.363 . S
C1050 C1040 1.465 . S
C1050 U1046 2.847 . S
C1050 O1064 1.249 . S
C1050 O1065 1.202 . S
C1051 C1049 1.363 . S
C1051 C1053 1.408 . S
C1051 C1056 1.342 . S
C1052 C1053 1.310 . S
C1052 C1055 1.461 . S
C1052 H1072 0.932 . S
C1053 C1051 1.408 . S
C1053 C1052 1.310 . S
C1053 H1073 0.930 . S
C1054 C1055 1.474 . S
C1054 C1056 1.285 . S
C1054 H1074 0.929 . S
C1055 C1052 1.461 . S
C1055 C1054 1.474 . S
C1056 C1051 1.342 . S
C1056 C1054 1.285 . S
C1056 H1075 0.930 . S
C1057 C1060 1.424 . S
C1057 C1062 1.245 . S
C1057 C1063 1.428 . S
C1058 C1061 1.260 . S
C1058 C1062 1.477 . S
C1058 H1076 0.932 . S
C1059 C1060 1.384 . S
C1059 C1061 1.479 . S
C1059 H1077 0.929 . S
C1060 C1057 1.424 . S
C1060 C1059 1.384 . S
C1060 H1078 0.928 . S
C1061 C1058 1.260 . S
C1061 C1059 1.479 . S
C1062 C1057 1.245 . S
C1062 C1058 1.477 . S
C1062 H1079 0.932 . S
C1063 U1046 2.882 . S
C1063 C1057 1.428 . S
C1063 O1066 1.301 . S
C1063 O1067 1.282 . S
O1064 U1046 2.441 . S
O1064 C1050 1.249 . S
O1065 U1046 2.420 . S
O1065 C1050 1.202 . S
O1066 U1046 2.455 . S
O1066 C1063 1.301 . S
O1067 U1046 2.449 . S
O1067 C1063 1.282 . S
H1068 C1041 0.931 . S
H1069 C1043 0.929 . S
H1070 C1044 0.930 . S
H1071 C1045 0.931 . S
H1072 C1052 0.932 . S
H1073 C1053 0.930 . S
H1074 C1054 0.929 . S
H1075 C1056 0.930 . S
H1076 C1058 0.932 . S
H1077 C1059 0.929 . S
H1078 C1060 0.928 . S
H1079 C1062 0.932 . S
C1080 C1081 1.264 . S
C1080 C1085 1.479 . S
C1080 C1090 1.465 . S
C1081 C1080 1.264 . S
C1081 C1083 1.339 . S
C1081 H1108 0.931 . S
C1082 C1083 1.395 . S
C1082 C1084 1.320 . S
C1083 C1081 1.339 . S
C1083 C1082 1.395 . S
C1083 H1109 0.929 . S
C1084 C1082 1.320 . S
C1084 C1085 1.405 . S
C1084 H1110 0.930 . S
C1085 C1080 1.479 . S
C1085 C1084 1.405 . S
C1085 H1111 0.931 . S
U1086 O1087 2.454 . S
U1086 O1088 2.458 . S
U1086 C1089 2.984 . S
U1086 C1090 2.847 . S
U1086 C1103 2.882 . S
U1086 O1104 2.441 . S
U1086 O1105 2.420 . S
U1086 O1106 2.455 . S
U1086 O1107 2.449 . S
O1087 U1086 2.454 . S
O1087 C1089 1.353 . S
O1088 U1086 2.458 . S
O1088 C1089 1.286 . S
C1089 U1086 2.984 . S
C1089 O1087 1.353 . S
C1089 O1088 1.286 . S
C1089 C1091 1.363 . S
C1090 C1080 1.465 . S
C1090 U1086 2.847 . S
C1090 O1104 1.249 . S
C1090 O1105 1.202 . S
C1091 C1089 1.363 . S
C1091 C1093 1.408 . S
C1091 C1096 1.342 . S
C1092 C1093 1.310 . S
C1092 C1095 1.461 . S
C1092 H1112 0.932 . S
C1093 C1091 1.408 . S
C1093 C1092 1.310 . S
C1093 H1113 0.930 . S
C1094 C1095 1.474 . S
C1094 C1096 1.285 . S
C1094 H1114 0.929 . S
C1095 C1092 1.461 . S
C1095 C1094 1.474 . S
C1096 C1091 1.342 . S
C1096 C1094 1.285 . S
C1096 H1115 0.930 . S
C1097 C1100 1.424 . S
C1097 C1102 1.245 . S
C1097 C1103 1.428 . S
C1098 C1101 1.260 . S
C1098 C1102 1.477 . S
C1098 H1116 0.932 . S
C1099 C1100 1.384 . S
C1099 C1101 1.479 . S
C1099 H1117 0.929 . S
C1100 C1097 1.424 . S
C1100 C1099 1.384 . S
C1100 H1118 0.928 . S
C1101 C1098 1.260 . S
C1101 C1099 1.479 . S
C1102 C1097 1.245 . S
C1102 C1098 1.477 . S
C1102 H1119 0.932 . S
C1103 U1086 2.882 . S
C1103 C1097 1.428 . S
C1103 O1106 1.301 . S
C1103 O1107 1.282 . S
O1104 U1086 2.441 . S
O1104 C1090 1.249 . S
O1105 U1086 2.420 . S
O1105 C1090 1.202 . S
O1106 U1086 2.455 . S
O1106 C1103 1.301 . S
O1107 U1086 2.449 . S
O1107 C1103 1.282 . S
H1108 C1081 0.931 . S
H1109 C1083 0.929 . S
H1110 C1084 0.930 . S
H1111 C1085 0.931 . S
H1112 C1092 0.932 . S
H1113 C1093 0.930 . S
H1114 C1094 0.929 . S
H1115 C1096 0.930 . S
H1116 C1098 0.932 . S
H1117 C1099 0.929 . S
H1118 C1100 0.928 . S
H1119 C1102 0.932 . S
C1120 C1121 1.264 . S
C1120 C1125 1.479 . S
C1120 C1130 1.465 . S
C1121 C1120 1.264 . S
C1121 C1123 1.339 . S
C1121 H1148 0.931 . S
C1122 C1123 1.395 . S
C1122 C1124 1.320 . S
C1123 C1121 1.339 . S
C1123 C1122 1.395 . S
C1123 H1149 0.929 . S
C1124 C1122 1.320 . S
C1124 C1125 1.405 . S
C1124 H1150 0.930 . S
C1125 C1120 1.479 . S
C1125 C1124 1.405 . S
C1125 H1151 0.931 . S
U1126 O1127 2.454 . S
U1126 O1128 2.458 . S
U1126 C1129 2.984 . S
U1126 C1130 2.847 . S
U1126 C1143 2.882 . S
U1126 O1144 2.441 . S
U1126 O1145 2.420 . S
U1126 O1146 2.455 . S
U1126 O1147 2.449 . S
O1127 U1126 2.454 . S
O1127 C1129 1.353 . S
O1128 U1126 2.458 . S
O1128 C1129 1.286 . S
C1129 U1126 2.984 . S
C1129 O1127 1.353 . S
C1129 O1128 1.286 . S
C1129 C1131 1.363 . S
C1130 C1120 1.465 . S
C1130 U1126 2.847 . S
C1130 O1144 1.249 . S
C1130 O1145 1.202 . S
C1131 C1129 1.363 . S
C1131 C1133 1.408 . S
C1131 C1136 1.342 . S
C1132 C1133 1.310 . S
C1132 C1135 1.461 . S
C1132 H1152 0.932 . S
C1133 C1131 1.408 . S
C1133 C1132 1.310 . S
C1133 H1153 0.930 . S
C1134 C1135 1.474 . S
C1134 C1136 1.285 . S
C1134 H1154 0.929 . S
C1135 C1132 1.461 . S
C1135 C1134 1.474 . S
C1136 C1131 1.342 . S
C1136 C1134 1.285 . S
C1136 H1155 0.930 . S
C1137 C1140 1.424 . S
C1137 C1142 1.245 . S
C1137 C1143 1.428 . S
C1138 C1141 1.260 . S
C1138 C1142 1.477 . S
C1138 H1156 0.932 . S
C1139 C1140 1.384 . S
C1139 C1141 1.479 . S
C1139 H1157 0.929 . S
C1140 C1137 1.424 . S
C1140 C1139 1.384 . S
C1140 H1158 0.928 . S
C1141 C1138 1.260 . S
C1141 C1139 1.479 . S
C1142 C1137 1.245 . S
C1142 C1138 1.477 . S
C1142 H1159 0.932 . S
C1143 U1126 2.882 . S
C1143 C1137 1.428 . S
C1143 O1146 1.301 . S
C1143 O1147 1.282 . S
O1144 U1126 2.441 . S
O1144 C1130 1.249 . S
O1145 U1126 2.420 . S
O1145 C1130 1.202 . S
O1146 U1126 2.455 . S
O1146 C1143 1.301 . S
O1147 U1126 2.449 . S
O1147 C1143 1.282 . S
H1148 C1121 0.931 . S
H1149 C1123 0.929 . S
H1150 C1124 0.930 . S
H1151 C1125 0.931 . S
H1152 C1132 0.932 . S
H1153 C1133 0.930 . S
H1154 C1134 0.929 . S
H1155 C1136 0.930 . S
H1156 C1138 0.932 . S
H1157 C1139 0.929 . S
H1158 C1140 0.928 . S
H1159 C1142 0.932 . S
C1160 C1161 1.264 . S
C1160 C1165 1.479 . S
C1160 C1170 1.465 . S
C1161 C1160 1.264 . S
C1161 C1163 1.339 . S
C1161 H1188 0.931 . S
C1162 C1163 1.395 . S
C1162 C1164 1.320 . S
C1163 C1161 1.339 . S
C1163 C1162 1.395 . S
C1163 H1189 0.929 . S
C1164 C1162 1.320 . S
C1164 C1165 1.405 . S
C1164 H1190 0.930 . S
C1165 C1160 1.479 . S
C1165 C1164 1.405 . S
C1165 H1191 0.931 . S
U1166 O1167 2.454 . S
U1166 O1168 2.458 . S
U1166 C1169 2.984 . S
U1166 C1170 2.847 . S
U1166 C1183 2.882 . S
U1166 O1184 2.441 . S
U1166 O1185 2.420 . S
U1166 O1186 2.455 . S
U1166 O1187 2.449 . S
O1167 U1166 2.454 . S
O1167 C1169 1.353 . S
O1168 U1166 2.458 . S
O1168 C1169 1.286 . S
C1169 U1166 2.984 . S
C1169 O1167 1.353 . S
C1169 O1168 1.286 . S
C1169 C1171 1.363 . S
C1170 C1160 1.465 . S
C1170 U1166 2.847 . S
C1170 O1184 1.249 . S
C1170 O1185 1.202 . S
C1171 C1169 1.363 . S
C1171 C1173 1.408 . S
C1171 C1176 1.342 . S
C1172 C1173 1.310 . S
C1172 C1175 1.461 . S
C1172 H1192 0.932 . S
C1173 C1171 1.408 . S
C1173 C1172 1.310 . S
C1173 H1193 0.930 . S
C1174 C1175 1.474 . S
C1174 C1176 1.285 . S
C1174 H1194 0.929 . S
C1175 C1172 1.461 . S
C1175 C1174 1.474 . S
C1176 C1171 1.342 . S
C1176 C1174 1.285 . S
C1176 H1195 0.930 . S
C1177 C1180 1.424 . S
C1177 C1182 1.245 . S
C1177 C1183 1.428 . S
C1178 C1181 1.260 . S
C1178 C1182 1.477 . S
C1178 H1196 0.932 . S
C1179 C1180 1.384 . S
C1179 C1181 1.479 . S
C1179 H1197 0.929 . S
C1180 C1177 1.424 . S
C1180 C1179 1.384 . S
C1180 H1198 0.928 . S
C1181 C1178 1.260 . S
C1181 C1179 1.479 . S
C1182 C1177 1.245 . S
C1182 C1178 1.477 . S
C1182 H1199 0.932 . S
C1183 U1166 2.882 . S
C1183 C1177 1.428 . S
C1183 O1186 1.301 . S
C1183 O1187 1.282 . S
O1184 U1166 2.441 . S
O1184 C1170 1.249 . S
O1185 U1166 2.420 . S
O1185 C1170 1.202 . S
O1186 U1166 2.455 . S
O1186 C1183 1.301 . S
O1187 U1166 2.449 . S
O1187 C1183 1.282 . S
H1188 C1161 0.931 . S
H1189 C1163 0.929 . S
H1190 C1164 0.930 . S
H1191 C1165 0.931 . S
H1192 C1172 0.932 . S
H1193 C1173 0.930 . S
H1194 C1174 0.929 . S
H1195 C1176 0.930 . S
H1196 C1178 0.932 . S
H1197 C1179 0.929 . S
H1198 C1180 0.928 . S
H1199 C1182 0.932 . S
C1200 C1201 1.264 . S
C1200 C1205 1.479 . S
C1200 C1210 1.465 . S
C1201 C1200 1.264 . S
C1201 C1203 1.339 . S
C1201 H1228 0.931 . S
C1202 C1203 1.395 . S
C1202 C1204 1.320 . S
C1203 C1201 1.339 . S
C1203 C1202 1.395 . S
C1203 H1229 0.929 . S
C1204 C1202 1.320 . S
C1204 C1205 1.405 . S
C1204 H1230 0.930 . S
C1205 C1200 1.479 . S
C1205 C1204 1.405 . S
C1205 H1231 0.931 . S
U1206 O1207 2.454 . S
U1206 O1208 2.458 . S
U1206 C1209 2.984 . S
U1206 C1210 2.847 . S
U1206 C1223 2.882 . S
U1206 O1224 2.441 . S
U1206 O1225 2.420 . S
U1206 O1226 2.455 . S
U1206 O1227 2.449 . S
O1207 U1206 2.454 . S
O1207 C1209 1.353 . S
O1208 U1206 2.458 . S
O1208 C1209 1.286 . S
C1209 U1206 2.984 . S
C1209 O1207 1.353 . S
C1209 O1208 1.286 . S
C1209 C1211 1.363 . S
C1210 C1200 1.465 . S
C1210 U1206 2.847 . S
C1210 O1224 1.249 . S
C1210 O1225 1.202 . S
C1211 C1209 1.363 . S
C1211 C1213 1.408 . S
C1211 C1216 1.342 . S
C1212 C1213 1.310 . S
C1212 C1215 1.461 . S
C1212 H1232 0.932 . S
C1213 C1211 1.408 . S
C1213 C1212 1.310 . S
C1213 H1233 0.930 . S
C1214 C1215 1.474 . S
C1214 C1216 1.285 . S
C1214 H1234 0.929 . S
C1215 C1212 1.461 . S
C1215 C1214 1.474 . S
C1216 C1211 1.342 . S
C1216 C1214 1.285 . S
C1216 H1235 0.930 . S
C1217 C1220 1.424 . S
C1217 C1222 1.245 . S
C1217 C1223 1.428 . S
C1218 C1221 1.260 . S
C1218 C1222 1.477 . S
C1218 H1236 0.932 . S
C1219 C1220 1.384 . S
C1219 C1221 1.479 . S
C1219 H1237 0.929 . S
C1220 C1217 1.424 . S
C1220 C1219 1.384 . S
C1220 H1238 0.928 . S
C1221 C1218 1.260 . S
C1221 C1219 1.479 . S
C1222 C1217 1.245 . S
C1222 C1218 1.477 . S
C1222 H1239 0.932 . S
C1223 U1206 2.882 . S
C1223 C1217 1.428 . S
C1223 O1226 1.301 . S
C1223 O1227 1.282 . S
O1224 U1206 2.441 . S
O1224 C1210 1.249 . S
O1225 U1206 2.420 . S
O1225 C1210 1.202 . S
O1226 U1206 2.455 . S
O1226 C1223 1.301 . S
O1227 U1206 2.449 . S
O1227 C1223 1.282 . S
H1228 C1201 0.931 . S
H1229 C1203 0.929 . S
H1230 C1204 0.930 . S
H1231 C1205 0.931 . S
H1232 C1212 0.932 . S
H1233 C1213 0.930 . S
H1234 C1214 0.929 . S
H1235 C1216 0.930 . S
H1236 C1218 0.932 . S
H1237 C1219 0.929 . S
H1238 C1220 0.928 . S
H1239 C1222 0.932 . S
C1240 C1241 1.264 . S
C1240 C1245 1.479 . S
C1240 C1250 1.465 . S
C1241 C1240 1.264 . S
C1241 C1243 1.339 . S
C1241 H1268 0.931 . S
C1242 C1243 1.395 . S
C1242 C1244 1.320 . S
C1243 C1241 1.339 . S
C1243 C1242 1.395 . S
C1243 H1269 0.929 . S
C1244 C1242 1.320 . S
C1244 C1245 1.405 . S
C1244 H1270 0.930 . S
C1245 C1240 1.479 . S
C1245 C1244 1.405 . S
C1245 H1271 0.931 . S
U1246 O1247 2.454 . S
U1246 O1248 2.458 . S
U1246 C1249 2.984 . S
U1246 C1250 2.847 . S
U1246 C1263 2.882 . S
U1246 O1264 2.441 . S
U1246 O1265 2.420 . S
U1246 O1266 2.455 . S
U1246 O1267 2.449 . S
O1247 U1246 2.454 . S
O1247 C1249 1.353 . S
O1248 U1246 2.458 . S
O1248 C1249 1.286 . S
C1249 U1246 2.984 . S
C1249 O1247 1.353 . S
C1249 O1248 1.286 . S
C1249 C1251 1.363 . S
C1250 C1240 1.465 . S
C1250 U1246 2.847 . S
C1250 O1264 1.249 . S
C1250 O1265 1.202 . S
C1251 C1249 1.363 . S
C1251 C1253 1.408 . S
C1251 C1256 1.342 . S
C1252 C1253 1.310 . S
C1252 C1255 1.461 . S
C1252 H1272 0.932 . S
C1253 C1251 1.408 . S
C1253 C1252 1.310 . S
C1253 H1273 0.930 . S
C1254 C1255 1.474 . S
C1254 C1256 1.285 . S
C1254 H1274 0.929 . S
C1255 C1252 1.461 . S
C1255 C1254 1.474 . S
C1256 C1251 1.342 . S
C1256 C1254 1.285 . S
C1256 H1275 0.930 . S
C1257 C1260 1.424 . S
C1257 C1262 1.245 . S
C1257 C1263 1.428 . S
C1258 C1261 1.260 . S
C1258 C1262 1.477 . S
C1258 H1276 0.932 . S
C1259 C1260 1.384 . S
C1259 C1261 1.479 . S
C1259 H1277 0.929 . S
C1260 C1257 1.424 . S
C1260 C1259 1.384 . S
C1260 H1278 0.928 . S
C1261 C1258 1.260 . S
C1261 C1259 1.479 . S
C1262 C1257 1.245 . S
C1262 C1258 1.477 . S
C1262 H1279 0.932 . S
C1263 U1246 2.882 . S
C1263 C1257 1.428 . S
C1263 O1266 1.301 . S
C1263 O1267 1.282 . S
O1264 U1246 2.441 . S
O1264 C1250 1.249 . S
O1265 U1246 2.420 . S
O1265 C1250 1.202 . S
O1266 U1246 2.455 . S
O1266 C1263 1.301 . S
O1267 U1246 2.449 . S
O1267 C1263 1.282 . S
H1268 C1241 0.931 . S
H1269 C1243 0.929 . S
H1270 C1244 0.930 . S
H1271 C1245 0.931 . S
H1272 C1252 0.932 . S
H1273 C1253 0.930 . S
H1274 C1254 0.929 . S
H1275 C1256 0.930 . S
H1276 C1258 0.932 . S
H1277 C1259 0.929 . S
H1278 C1260 0.928 . S
H1279 C1262 0.932 . S
H1280 C1307 0.929 . S
N1281 C1306 1.433 . S
N1281 C1312 1.435 . S
N1281 C1318 1.423 . S
H1282 C1308 0.930 . S
H1283 C1311 0.931 . S
H1284 C1310 0.929 . S
H1285 C1313 0.930 . S
H1286 C1314 0.932 . S
H1287 C1317 0.929 . S
H1288 C1316 0.931 . S
H1289 C1319 0.929 . S
H1290 C1323 0.932 . S
H1291 C1320 0.931 . S
H1292 C1322 0.929 . S
H1293 C1325 0.929 . S
H1294 C1326 0.930 . S
H1295 C1328 0.929 . S
H1296 C1329 0.931 . S
H1297 C1331 0.930 . S
H1298 C1332 0.932 . S
H1299 C1334 0.931 . S
H1300 C1335 0.929 . S
H1301 C1337 0.929 . S
H1302 C1338 0.931 . S
H1303 C1340 0.929 . S
N1304 C1324 1.433 . S
N1304 C1330 1.435 . S
N1304 C1336 1.423 . S
H1305 C1341 0.932 . S
C1306 N1281 1.433 . S
C1306 C1307 1.363 . S
C1306 C1311 1.370 . S
C1307 H1280 0.929 . S
C1307 C1306 1.363 . S
C1307 C1308 1.385 . S
C1308 H1282 0.930 . S
C1308 C1307 1.385 . S
C1308 C1309 1.357 . S
C1309 C1308 1.357 . S
C1309 C1310 1.406 . S
C1310 H1284 0.929 . S
C1310 C1309 1.406 . S
C1310 C1311 1.391 . S
C1311 H1283 0.931 . S
C1311 C1306 1.370 . S
C1311 C1310 1.391 . S
C1312 N1281 1.435 . S
C1312 C1313 1.358 . S
C1312 C1317 1.371 . S
C1313 H1285 0.930 . S
C1313 C1312 1.358 . S
C1313 C1314 1.405 . S
C1314 H1286 0.932 . S
C1314 C1313 1.405 . S
C1314 C1315 1.383 . S
C1315 C1314 1.383 . S
C1315 C1316 1.393 . S
C1316 H1288 0.931 . S
C1316 C1315 1.393 . S
C1316 C1317 1.382 . S
C1317 H1287 0.929 . S
C1317 C1312 1.371 . S
C1317 C1316 1.382 . S
C1318 N1281 1.423 . S
C1318 C1319 1.362 . S
C1318 C1323 1.388 . S
C1319 H1289 0.929 . S
C1319 C1318 1.362 . S
C1319 C1320 1.376 . S
C1320 H1291 0.931 . S
C1320 C1319 1.376 . S
C1320 C1321 1.396 . S
C1321 C1320 1.396 . S
C1321 C1322 1.348 . S
C1321 C1339 1.472 1_556 S
C1322 H1292 0.929 . S
C1322 C1321 1.348 . S
C1322 C1323 1.443 . S
C1323 H1290 0.932 . S
C1323 C1318 1.388 . S
C1323 C1322 1.443 . S
C1324 N1304 1.433 . S
C1324 C1325 1.363 . S
C1324 C1329 1.370 . S
C1325 H1293 0.929 . S
C1325 C1324 1.363 . S
C1325 C1326 1.385 . S
C1326 H1294 0.930 . S
C1326 C1325 1.385 . S
C1326 C1327 1.357 . S
C1327 C1326 1.357 . S
C1327 C1328 1.406 . S
C1328 H1295 0.929 . S
C1328 C1327 1.406 . S
C1328 C1329 1.391 . S
C1329 H1296 0.931 . S
C1329 C1324 1.370 . S
C1329 C1328 1.391 . S
C1330 N1304 1.435 . S
C1330 C1331 1.358 . S
C1330 C1335 1.371 . S
C1331 H1297 0.930 . S
C1331 C1330 1.358 . S
C1331 C1332 1.405 . S
C1332 H1298 0.932 . S
C1332 C1331 1.405 . S
C1332 C1333 1.383 . S
C1333 C1332 1.383 . S
C1333 C1334 1.393 . S
C1334 H1299 0.931 . S
C1334 C1333 1.393 . S
C1334 C1335 1.382 . S
C1335 H1300 0.929 . S
C1335 C1330 1.371 . S
C1335 C1334 1.382 . S
C1336 N1304 1.423 . S
C1336 C1337 1.362 . S
C1336 C1341 1.388 . S
C1337 H1301 0.929 . S
C1337 C1336 1.362 . S
C1337 C1338 1.376 . S
C1338 H1302 0.931 . S
C1338 C1337 1.376 . S
C1338 C1339 1.396 . S
C1339 C1321 1.472 1_554 S
C1339 C1338 1.396 . S
C1339 C1340 1.348 . S
C1340 H1303 0.929 . S
C1340 C1339 1.348 . S
C1340 C1341 1.443 . S
C1341 H1305 0.932 . S
C1341 C1336 1.388 . S
C1341 C1340 1.443 . S
H1342 C1369 0.929 . S
N1343 C1368 1.433 . S
N1343 C1374 1.435 . S
N1343 C1380 1.423 . S
H1344 C1370 0.930 . S
H1345 C1373 0.931 . S
H1346 C1372 0.929 . S
H1347 C1375 0.930 . S
H1348 C1376 0.932 . S
H1349 C1379 0.929 . S
H1350 C1378 0.931 . S
H1351 C1381 0.929 . S
H1352 C1385 0.932 . S
H1353 C1382 0.931 . S
H1354 C1384 0.929 . S
H1355 C1387 0.929 . S
H1356 C1388 0.930 . S
H1357 C1390 0.929 . S
H1358 C1391 0.931 . S
H1359 C1393 0.930 . S
H1360 C1394 0.932 . S
H1361 C1396 0.931 . S
H1362 C1397 0.929 . S
H1363 C1399 0.929 . S
H1364 C1400 0.931 . S
H1365 C1402 0.929 . S
N1366 C1386 1.433 . S
N1366 C1392 1.435 . S
N1366 C1398 1.423 . S
H1367 C1403 0.932 . S
C1368 N1343 1.433 . S
C1368 C1369 1.363 . S
C1368 C1373 1.370 . S
C1369 H1342 0.929 . S
C1369 C1368 1.363 . S
C1369 C1370 1.385 . S
C1370 H1344 0.930 . S
C1370 C1369 1.385 . S
C1370 C1371 1.357 . S
C1371 C1370 1.357 . S
C1371 C1372 1.406 . S
C1372 H1346 0.929 . S
C1372 C1371 1.406 . S
C1372 C1373 1.391 . S
C1373 H1345 0.931 . S
C1373 C1368 1.370 . S
C1373 C1372 1.391 . S
C1374 N1343 1.435 . S
C1374 C1375 1.358 . S
C1374 C1379 1.371 . S
C1375 H1347 0.930 . S
C1375 C1374 1.358 . S
C1375 C1376 1.405 . S
C1376 H1348 0.932 . S
C1376 C1375 1.405 . S
C1376 C1377 1.383 . S
C1377 C1376 1.383 . S
C1377 C1378 1.393 . S
C1378 H1350 0.931 . S
C1378 C1377 1.393 . S
C1378 C1379 1.382 . S
C1379 H1349 0.929 . S
C1379 C1374 1.371 . S
C1379 C1378 1.382 . S
C1380 N1343 1.423 . S
C1380 C1381 1.362 . S
C1380 C1385 1.388 . S
C1381 H1351 0.929 . S
C1381 C1380 1.362 . S
C1381 C1382 1.376 . S
C1382 H1353 0.931 . S
C1382 C1381 1.376 . S
C1382 C1383 1.396 . S
C1383 C1382 1.396 . S
C1383 C1384 1.348 . S
C1383 C1401 1.472 1_556 S
C1384 H1354 0.929 . S
C1384 C1383 1.348 . S
C1384 C1385 1.443 . S
C1385 H1352 0.932 . S
C1385 C1380 1.388 . S
C1385 C1384 1.443 . S
C1386 N1366 1.433 . S
C1386 C1387 1.363 . S
C1386 C1391 1.370 . S
C1387 H1355 0.929 . S
C1387 C1386 1.363 . S
C1387 C1388 1.385 . S
C1388 H1356 0.930 . S
C1388 C1387 1.385 . S
C1388 C1389 1.357 . S
C1389 C1388 1.357 . S
C1389 C1390 1.406 . S
C1390 H1357 0.929 . S
C1390 C1389 1.406 . S
C1390 C1391 1.391 . S
C1391 H1358 0.931 . S
C1391 C1386 1.370 . S
C1391 C1390 1.391 . S
C1392 N1366 1.435 . S
C1392 C1393 1.358 . S
C1392 C1397 1.371 . S
C1393 H1359 0.930 . S
C1393 C1392 1.358 . S
C1393 C1394 1.405 . S
C1394 H1360 0.932 . S
C1394 C1393 1.405 . S
C1394 C1395 1.383 . S
C1395 C1394 1.383 . S
C1395 C1396 1.393 . S
C1396 H1361 0.931 . S
C1396 C1395 1.393 . S
C1396 C1397 1.382 . S
C1397 H1362 0.929 . S
C1397 C1392 1.371 . S
C1397 C1396 1.382 . S
C1398 N1366 1.423 . S
C1398 C1399 1.362 . S
C1398 C1403 1.388 . S
C1399 H1363 0.929 . S
C1399 C1398 1.362 . S
C1399 C1400 1.376 . S
C1400 H1364 0.931 . S
C1400 C1399 1.376 . S
C1400 C1401 1.396 . S
C1401 C1383 1.472 1_554 S
C1401 C1400 1.396 . S
C1401 C1402 1.348 . S
C1402 H1365 0.929 . S
C1402 C1401 1.348 . S
C1402 C1403 1.443 . S
C1403 H1367 0.932 . S
C1403 C1398 1.388 . S
C1403 C1402 1.443 . S
H1404 C1431 0.929 . S
N1405 C1430 1.433 . S
N1405 C1436 1.435 . S
N1405 C1442 1.423 . S
H1406 C1432 0.930 . S
H1407 C1435 0.931 . S
H1408 C1434 0.929 . S
H1409 C1437 0.930 . S
H1410 C1438 0.932 . S
H1411 C1441 0.929 . S
H1412 C1440 0.931 . S
H1413 C1443 0.929 . S
H1414 C1447 0.932 . S
H1415 C1444 0.931 . S
H1416 C1446 0.929 . S
H1417 C1449 0.929 . S
H1418 C1450 0.930 . S
H1419 C1452 0.929 . S
H1420 C1453 0.931 . S
H1421 C1455 0.930 . S
H1422 C1456 0.932 . S
H1423 C1458 0.931 . S
H1424 C1459 0.929 . S
H1425 C1461 0.929 . S
H1426 C1462 0.931 . S
H1427 C1464 0.929 . S
N1428 C1448 1.433 . S
N1428 C1454 1.435 . S
N1428 C1460 1.423 . S
H1429 C1465 0.932 . S
C1430 N1405 1.433 . S
C1430 C1431 1.363 . S
C1430 C1435 1.370 . S
C1431 H1404 0.929 . S
C1431 C1430 1.363 . S
C1431 C1432 1.385 . S
C1432 H1406 0.930 . S
C1432 C1431 1.385 . S
C1432 C1433 1.357 . S
C1433 C1432 1.357 . S
C1433 C1434 1.406 . S
C1434 H1408 0.929 . S
C1434 C1433 1.406 . S
C1434 C1435 1.391 . S
C1435 H1407 0.931 . S
C1435 C1430 1.370 . S
C1435 C1434 1.391 . S
C1436 N1405 1.435 . S
C1436 C1437 1.358 . S
C1436 C1441 1.371 . S
C1437 H1409 0.930 . S
C1437 C1436 1.358 . S
C1437 C1438 1.405 . S
C1438 H1410 0.932 . S
C1438 C1437 1.405 . S
C1438 C1439 1.383 . S
C1439 C1438 1.383 . S
C1439 C1440 1.393 . S
C1440 H1412 0.931 . S
C1440 C1439 1.393 . S
C1440 C1441 1.382 . S
C1441 H1411 0.929 . S
C1441 C1436 1.371 . S
C1441 C1440 1.382 . S
C1442 N1405 1.423 . S
C1442 C1443 1.362 . S
C1442 C1447 1.388 . S
C1443 H1413 0.929 . S
C1443 C1442 1.362 . S
C1443 C1444 1.376 . S
C1444 H1415 0.931 . S
C1444 C1443 1.376 . S
C1444 C1445 1.396 . S
C1445 C1444 1.396 . S
C1445 C1446 1.348 . S
C1445 C1463 1.472 1_556 S
C1446 H1416 0.929 . S
C1446 C1445 1.348 . S
C1446 C1447 1.443 . S
C1447 H1414 0.932 . S
C1447 C1442 1.388 . S
C1447 C1446 1.443 . S
C1448 N1428 1.433 . S
C1448 C1449 1.363 . S
C1448 C1453 1.370 . S
C1449 H1417 0.929 . S
C1449 C1448 1.363 . S
C1449 C1450 1.385 . S
C1450 H1418 0.930 . S
C1450 C1449 1.385 . S
C1450 C1451 1.357 . S
C1451 C1450 1.357 . S
C1451 C1452 1.406 . S
C1452 H1419 0.929 . S
C1452 C1451 1.406 . S
C1452 C1453 1.391 . S
C1453 H1420 0.931 . S
C1453 C1448 1.370 . S
C1453 C1452 1.391 . S
C1454 N1428 1.435 . S
C1454 C1455 1.358 . S
C1454 C1459 1.371 . S
C1455 H1421 0.930 . S
C1455 C1454 1.358 . S
C1455 C1456 1.405 . S
C1456 H1422 0.932 . S
C1456 C1455 1.405 . S
C1456 C1457 1.383 . S
C1457 C1456 1.383 . S
C1457 C1458 1.393 . S
C1458 H1423 0.931 . S
C1458 C1457 1.393 . S
C1458 C1459 1.382 . S
C1459 H1424 0.929 . S
C1459 C1454 1.371 . S
C1459 C1458 1.382 . S
C1460 N1428 1.423 . S
C1460 C1461 1.362 . S
C1460 C1465 1.388 . S
C1461 H1425 0.929 . S
C1461 C1460 1.362 . S
C1461 C1462 1.376 . S
C1462 H1426 0.931 . S
C1462 C1461 1.376 . S
C1462 C1463 1.396 . S
C1463 C1445 1.472 1_554 S
C1463 C1462 1.396 . S
C1463 C1464 1.348 . S
C1464 H1427 0.929 . S
C1464 C1463 1.348 . S
C1464 C1465 1.443 . S
C1465 H1429 0.932 . S
C1465 C1460 1.388 . S
C1465 C1464 1.443 . S
H1466 C1493 0.929 . S
N1467 C1492 1.433 . S
N1467 C1498 1.435 . S
N1467 C1504 1.423 . S
H1468 C1494 0.930 . S
H1469 C1497 0.931 . S
H1470 C1496 0.929 . S
H1471 C1499 0.930 . S
H1472 C1500 0.932 . S
H1473 C1503 0.929 . S
H1474 C1502 0.931 . S
H1475 C1505 0.929 . S
H1476 C1509 0.932 . S
H1477 C1506 0.931 . S
H1478 C1508 0.929 . S
H1479 C1511 0.929 . S
H1480 C1512 0.930 . S
H1481 C1514 0.929 . S
H1482 C1515 0.931 . S
H1483 C1517 0.930 . S
H1484 C1518 0.932 . S
H1485 C1520 0.931 . S
H1486 C1521 0.929 . S
H1487 C1523 0.929 . S
H1488 C1524 0.931 . S
H1489 C1526 0.929 . S
N1490 C1510 1.433 . S
N1490 C1516 1.435 . S
N1490 C1522 1.423 . S
H1491 C1527 0.932 . S
C1492 N1467 1.433 . S
C1492 C1493 1.363 . S
C1492 C1497 1.370 . S
C1493 H1466 0.929 . S
C1493 C1492 1.363 . S
C1493 C1494 1.385 . S
C1494 H1468 0.930 . S
C1494 C1493 1.385 . S
C1494 C1495 1.357 . S
C1495 C1494 1.357 . S
C1495 C1496 1.406 . S
C1496 H1470 0.929 . S
C1496 C1495 1.406 . S
C1496 C1497 1.391 . S
C1497 H1469 0.931 . S
C1497 C1492 1.370 . S
C1497 C1496 1.391 . S
C1498 N1467 1.435 . S
C1498 C1499 1.358 . S
C1498 C1503 1.371 . S
C1499 H1471 0.930 . S
C1499 C1498 1.358 . S
C1499 C1500 1.405 . S
C1500 H1472 0.932 . S
C1500 C1499 1.405 . S
C1500 C1501 1.383 . S
C1501 C1500 1.383 . S
C1501 C1502 1.393 . S
C1502 H1474 0.931 . S
C1502 C1501 1.393 . S
C1502 C1503 1.382 . S
C1503 H1473 0.929 . S
C1503 C1498 1.371 . S
C1503 C1502 1.382 . S
C1504 N1467 1.423 . S
C1504 C1505 1.362 . S
C1504 C1509 1.388 . S
C1505 H1475 0.929 . S
C1505 C1504 1.362 . S
C1505 C1506 1.376 . S
C1506 H1477 0.931 . S
C1506 C1505 1.376 . S
C1506 C1507 1.396 . S
C1507 C1506 1.396 . S
C1507 C1508 1.348 . S
C1507 C1525 1.472 1_556 S
C1508 H1478 0.929 . S
C1508 C1507 1.348 . S
C1508 C1509 1.443 . S
C1509 H1476 0.932 . S
C1509 C1504 1.388 . S
C1509 C1508 1.443 . S
C1510 N1490 1.433 . S
C1510 C1511 1.363 . S
C1510 C1515 1.370 . S
C1511 H1479 0.929 . S
C1511 C1510 1.363 . S
C1511 C1512 1.385 . S
C1512 H1480 0.930 . S
C1512 C1511 1.385 . S
C1512 C1513 1.357 . S
C1513 C1512 1.357 . S
C1513 C1514 1.406 . S
C1514 H1481 0.929 . S
C1514 C1513 1.406 . S
C1514 C1515 1.391 . S
C1515 H1482 0.931 . S
C1515 C1510 1.370 . S
C1515 C1514 1.391 . S
C1516 N1490 1.435 . S
C1516 C1517 1.358 . S
C1516 C1521 1.371 . S
C1517 H1483 0.930 . S
C1517 C1516 1.358 . S
C1517 C1518 1.405 . S
C1518 H1484 0.932 . S
C1518 C1517 1.405 . S
C1518 C1519 1.383 . S
C1519 C1518 1.383 . S
C1519 C1520 1.393 . S
C1520 H1485 0.931 . S
C1520 C1519 1.393 . S
C1520 C1521 1.382 . S
C1521 H1486 0.929 . S
C1521 C1516 1.371 . S
C1521 C1520 1.382 . S
C1522 N1490 1.423 . S
C1522 C1523 1.362 . S
C1522 C1527 1.388 . S
C1523 H1487 0.929 . S
C1523 C1522 1.362 . S
C1523 C1524 1.376 . S
C1524 H1488 0.931 . S
C1524 C1523 1.376 . S
C1524 C1525 1.396 . S
C1525 C1507 1.472 1_554 S
C1525 C1524 1.396 . S
C1525 C1526 1.348 . S
C1526 H1489 0.929 . S
C1526 C1525 1.348 . S
C1526 C1527 1.443 . S
C1527 H1491 0.932 . S
C1527 C1522 1.388 . S
C1527 C1526 1.443 . S
H1528 C1555 0.929 . S
N1529 C1554 1.433 . S
N1529 C1560 1.435 . S
N1529 C1566 1.423 . S
H1530 C1556 0.930 . S
H1531 C1559 0.931 . S
H1532 C1558 0.929 . S
H1533 C1561 0.930 . S
H1534 C1562 0.932 . S
H1535 C1565 0.929 . S
H1536 C1564 0.931 . S
H1537 C1567 0.929 . S
H1538 C1571 0.932 . S
H1539 C1568 0.931 . S
H1540 C1570 0.929 . S
H1541 C1573 0.929 . S
H1542 C1574 0.930 . S
H1543 C1576 0.929 . S
H1544 C1577 0.931 . S
H1545 C1579 0.930 . S
H1546 C1580 0.932 . S
H1547 C1582 0.931 . S
H1548 C1583 0.929 . S
H1549 C1585 0.929 . S
H1550 C1586 0.931 . S
H1551 C1588 0.929 . S
N1552 C1572 1.433 . S
N1552 C1578 1.435 . S
N1552 C1584 1.423 . S
H1553 C1589 0.932 . S
C1554 N1529 1.433 . S
C1554 C1555 1.363 . S
C1554 C1559 1.370 . S
C1555 H1528 0.929 . S
C1555 C1554 1.363 . S
C1555 C1556 1.385 . S
C1556 H1530 0.930 . S
C1556 C1555 1.385 . S
C1556 C1557 1.357 . S
C1557 C1556 1.357 . S
C1557 C1558 1.406 . S
C1558 H1532 0.929 . S
C1558 C1557 1.406 . S
C1558 C1559 1.391 . S
C1559 H1531 0.931 . S
C1559 C1554 1.370 . S
C1559 C1558 1.391 . S
C1560 N1529 1.435 . S
C1560 C1561 1.358 . S
C1560 C1565 1.371 . S
C1561 H1533 0.930 . S
C1561 C1560 1.358 . S
C1561 C1562 1.405 . S
C1562 H1534 0.932 . S
C1562 C1561 1.405 . S
C1562 C1563 1.383 . S
C1563 C1562 1.383 . S
C1563 C1564 1.393 . S
C1564 H1536 0.931 . S
C1564 C1563 1.393 . S
C1564 C1565 1.382 . S
C1565 H1535 0.929 . S
C1565 C1560 1.371 . S
C1565 C1564 1.382 . S
C1566 N1529 1.423 . S
C1566 C1567 1.362 . S
C1566 C1571 1.388 . S
C1567 H1537 0.929 . S
C1567 C1566 1.362 . S
C1567 C1568 1.376 . S
C1568 H1539 0.931 . S
C1568 C1567 1.376 . S
C1568 C1569 1.396 . S
C1569 C1568 1.396 . S
C1569 C1570 1.348 . S
C1569 C1587 1.472 1_655 S
C1570 H1540 0.929 . S
C1570 C1569 1.348 . S
C1570 C1571 1.443 . S
C1571 H1538 0.932 . S
C1571 C1566 1.388 . S
C1571 C1570 1.443 . S
C1572 N1552 1.433 . S
C1572 C1573 1.363 . S
C1572 C1577 1.370 . S
C1573 H1541 0.929 . S
C1573 C1572 1.363 . S
C1573 C1574 1.385 . S
C1574 H1542 0.930 . S
C1574 C1573 1.385 . S
C1574 C1575 1.357 . S
C1575 C1574 1.357 . S
C1575 C1576 1.406 . S
C1576 H1543 0.929 . S
C1576 C1575 1.406 . S
C1576 C1577 1.391 . S
C1577 H1544 0.931 . S
C1577 C1572 1.370 . S
C1577 C1576 1.391 . S
C1578 N1552 1.435 . S
C1578 C1579 1.358 . S
C1578 C1583 1.371 . S
C1579 H1545 0.930 . S
C1579 C1578 1.358 . S
C1579 C1580 1.405 . S
C1580 H1546 0.932 . S
C1580 C1579 1.405 . S
C1580 C1581 1.383 . S
C1581 C1580 1.383 . S
C1581 C1582 1.393 . S
C1582 H1547 0.931 . S
C1582 C1581 1.393 . S
C1582 C1583 1.382 . S
C1583 H1548 0.929 . S
C1583 C1578 1.371 . S
C1583 C1582 1.382 . S
C1584 N1552 1.423 . S
C1584 C1585 1.362 . S
C1584 C1589 1.388 . S
C1585 H1549 0.929 . S
C1585 C1584 1.362 . S
C1585 C1586 1.376 . S
C1586 H1550 0.931 . S
C1586 C1585 1.376 . S
C1586 C1587 1.396 . S
C1587 C1569 1.472 1_455 S
C1587 C1586 1.396 . S
C1587 C1588 1.348 . S
C1588 H1551 0.929 . S
C1588 C1587 1.348 . S
C1588 C1589 1.443 . S
C1589 H1553 0.932 . S
C1589 C1584 1.388 . S
C1589 C1588 1.443 . S
H1590 C1617 0.929 . S
N1591 C1616 1.433 . S
N1591 C1622 1.435 . S
N1591 C1628 1.423 . S
H1592 C1618 0.930 . S
H1593 C1621 0.931 . S
H1594 C1620 0.929 . S
H1595 C1623 0.930 . S
H1596 C1624 0.932 . S
H1597 C1627 0.929 . S
H1598 C1626 0.931 . S
H1599 C1629 0.929 . S
H1600 C1633 0.932 . S
H1601 C1630 0.931 . S
H1602 C1632 0.929 . S
H1603 C1635 0.929 . S
H1604 C1636 0.930 . S
H1605 C1638 0.929 . S
H1606 C1639 0.931 . S
H1607 C1641 0.930 . S
H1608 C1642 0.932 . S
H1609 C1644 0.931 . S
H1610 C1645 0.929 . S
H1611 C1647 0.929 . S
H1612 C1648 0.931 . S
H1613 C1650 0.929 . S
N1614 C1634 1.433 . S
N1614 C1640 1.435 . S
N1614 C1646 1.423 . S
H1615 C1651 0.932 . S
C1616 N1591 1.433 . S
C1616 C1617 1.363 . S
C1616 C1621 1.370 . S
C1617 H1590 0.929 . S
C1617 C1616 1.363 . S
C1617 C1618 1.385 . S
C1618 H1592 0.930 . S
C1618 C1617 1.385 . S
C1618 C1619 1.357 . S
C1619 C1618 1.357 . S
C1619 C1620 1.406 . S
C1620 H1594 0.929 . S
C1620 C1619 1.406 . S
C1620 C1621 1.391 . S
C1621 H1593 0.931 . S
C1621 C1616 1.370 . S
C1621 C1620 1.391 . S
C1622 N1591 1.435 . S
C1622 C1623 1.358 . S
C1622 C1627 1.371 . S
C1623 H1595 0.930 . S
C1623 C1622 1.358 . S
C1623 C1624 1.405 . S
C1624 H1596 0.932 . S
C1624 C1623 1.405 . S
C1624 C1625 1.383 . S
C1625 C1624 1.383 . S
C1625 C1626 1.393 . S
C1626 H1598 0.931 . S
C1626 C1625 1.393 . S
C1626 C1627 1.382 . S
C1627 H1597 0.929 . S
C1627 C1622 1.371 . S
C1627 C1626 1.382 . S
C1628 N1591 1.423 . S
C1628 C1629 1.362 . S
C1628 C1633 1.388 . S
C1629 H1599 0.929 . S
C1629 C1628 1.362 . S
C1629 C1630 1.376 . S
C1630 H1601 0.931 . S
C1630 C1629 1.376 . S
C1630 C1631 1.396 . S
C1631 C1630 1.396 . S
C1631 C1632 1.348 . S
C1631 C1649 1.472 1_545 S
C1632 H1602 0.929 . S
C1632 C1631 1.348 . S
C1632 C1633 1.443 . S
C1633 H1600 0.932 . S
C1633 C1628 1.388 . S
C1633 C1632 1.443 . S
C1634 N1614 1.433 . S
C1634 C1635 1.363 . S
C1634 C1639 1.370 . S
C1635 H1603 0.929 . S
C1635 C1634 1.363 . S
C1635 C1636 1.385 . S
C1636 H1604 0.930 . S
C1636 C1635 1.385 . S
C1636 C1637 1.357 . S
C1637 C1636 1.357 . S
C1637 C1638 1.406 . S
C1638 H1605 0.929 . S
C1638 C1637 1.406 . S
C1638 C1639 1.391 . S
C1639 H1606 0.931 . S
C1639 C1634 1.370 . S
C1639 C1638 1.391 . S
C1640 N1614 1.435 . S
C1640 C1641 1.358 . S
C1640 C1645 1.371 . S
C1641 H1607 0.930 . S
C1641 C1640 1.358 . S
C1641 C1642 1.405 . S
C1642 H1608 0.932 . S
C1642 C1641 1.405 . S
C1642 C1643 1.383 . S
C1643 C1642 1.383 . S
C1643 C1644 1.393 . S
C1644 H1609 0.931 . S
C1644 C1643 1.393 . S
C1644 C1645 1.382 . S
C1645 H1610 0.929 . S
C1645 C1640 1.371 . S
C1645 C1644 1.382 . S
C1646 N1614 1.423 . S
C1646 C1647 1.362 . S
C1646 C1651 1.388 . S
C1647 H1611 0.929 . S
C1647 C1646 1.362 . S
C1647 C1648 1.376 . S
C1648 H1612 0.931 . S
C1648 C1647 1.376 . S
C1648 C1649 1.396 . S
C1649 C1631 1.472 1_565 S
C1649 C1648 1.396 . S
C1649 C1650 1.348 . S
C1650 H1613 0.929 . S
C1650 C1649 1.348 . S
C1650 C1651 1.443 . S
C1651 H1615 0.932 . S
C1651 C1646 1.388 . S
C1651 C1650 1.443 . S
H1652 C1679 0.929 . S
N1653 C1678 1.433 . S
N1653 C1684 1.435 . S
N1653 C1690 1.423 . S
H1654 C1680 0.930 . S
H1655 C1683 0.931 . S
H1656 C1682 0.929 . S
H1657 C1685 0.930 . S
H1658 C1686 0.932 . S
H1659 C1689 0.929 . S
H1660 C1688 0.931 . S
H1661 C1691 0.929 . S
H1662 C1695 0.932 . S
H1663 C1692 0.931 . S
H1664 C1694 0.929 . S
H1665 C1697 0.929 . S
H1666 C1698 0.930 . S
H1667 C1700 0.929 . S
H1668 C1701 0.931 . S
H1669 C1703 0.930 . S
H1670 C1704 0.932 . S
H1671 C1706 0.931 . S
H1672 C1707 0.929 . S
H1673 C1709 0.929 . S
H1674 C1710 0.931 . S
H1675 C1712 0.929 . S
N1676 C1696 1.433 . S
N1676 C1702 1.435 . S
N1676 C1708 1.423 . S
H1677 C1713 0.932 . S
C1678 N1653 1.433 . S
C1678 C1679 1.363 . S
C1678 C1683 1.370 . S
C1679 H1652 0.929 . S
C1679 C1678 1.363 . S
C1679 C1680 1.385 . S
C1680 H1654 0.930 . S
C1680 C1679 1.385 . S
C1680 C1681 1.357 . S
C1681 C1680 1.357 . S
C1681 C1682 1.406 . S
C1682 H1656 0.929 . S
C1682 C1681 1.406 . S
C1682 C1683 1.391 . S
C1683 H1655 0.931 . S
C1683 C1678 1.370 . S
C1683 C1682 1.391 . S
C1684 N1653 1.435 . S
C1684 C1685 1.358 . S
C1684 C1689 1.371 . S
C1685 H1657 0.930 . S
C1685 C1684 1.358 . S
C1685 C1686 1.405 . S
C1686 H1658 0.932 . S
C1686 C1685 1.405 . S
C1686 C1687 1.383 . S
C1687 C1686 1.383 . S
C1687 C1688 1.393 . S
C1688 H1660 0.931 . S
C1688 C1687 1.393 . S
C1688 C1689 1.382 . S
C1689 H1659 0.929 . S
C1689 C1684 1.371 . S
C1689 C1688 1.382 . S
C1690 N1653 1.423 . S
C1690 C1691 1.362 . S
C1690 C1695 1.388 . S
C1691 H1661 0.929 . S
C1691 C1690 1.362 . S
C1691 C1692 1.376 . S
C1692 H1663 0.931 . S
C1692 C1691 1.376 . S
C1692 C1693 1.396 . S
C1693 C1692 1.396 . S
C1693 C1694 1.348 . S
C1693 C1711 1.472 1_455 S
C1694 H1664 0.929 . S
C1694 C1693 1.348 . S
C1694 C1695 1.443 . S
C1695 H1662 0.932 . S
C1695 C1690 1.388 . S
C1695 C1694 1.443 . S
C1696 N1676 1.433 . S
C1696 C1697 1.363 . S
C1696 C1701 1.370 . S
C1697 H1665 0.929 . S
C1697 C1696 1.363 . S
C1697 C1698 1.385 . S
C1698 H1666 0.930 . S
C1698 C1697 1.385 . S
C1698 C1699 1.357 . S
C1699 C1698 1.357 . S
C1699 C1700 1.406 . S
C1700 H1667 0.929 . S
C1700 C1699 1.406 . S
C1700 C1701 1.391 . S
C1701 H1668 0.931 . S
C1701 C1696 1.370 . S
C1701 C1700 1.391 . S
C1702 N1676 1.435 . S
C1702 C1703 1.358 . S
C1702 C1707 1.371 . S
C1703 H1669 0.930 . S
C1703 C1702 1.358 . S
C1703 C1704 1.405 . S
C1704 H1670 0.932 . S
C1704 C1703 1.405 . S
C1704 C1705 1.383 . S
C1705 C1704 1.383 . S
C1705 C1706 1.393 . S
C1706 H1671 0.931 . S
C1706 C1705 1.393 . S
C1706 C1707 1.382 . S
C1707 H1672 0.929 . S
C1707 C1702 1.371 . S
C1707 C1706 1.382 . S
C1708 N1676 1.423 . S
C1708 C1709 1.362 . S
C1708 C1713 1.388 . S
C1709 H1673 0.929 . S
C1709 C1708 1.362 . S
C1709 C1710 1.376 . S
C1710 H1674 0.931 . S
C1710 C1709 1.376 . S
C1710 C1711 1.396 . S
C1711 C1693 1.472 1_655 S
C1711 C1710 1.396 . S
C1711 C1712 1.348 . S
C1712 H1675 0.929 . S
C1712 C1711 1.348 . S
C1712 C1713 1.443 . S
C1713 H1677 0.932 . S
C1713 C1708 1.388 . S
C1713 C1712 1.443 . S
H1714 C1741 0.929 . S
N1715 C1740 1.433 . S
N1715 C1746 1.435 . S
N1715 C1752 1.423 . S
H1716 C1742 0.930 . S
H1717 C1745 0.931 . S
H1718 C1744 0.929 . S
H1719 C1747 0.930 . S
H1720 C1748 0.932 . S
H1721 C1751 0.929 . S
H1722 C1750 0.931 . S
H1723 C1753 0.929 . S
H1724 C1757 0.932 . S
H1725 C1754 0.931 . S
H1726 C1756 0.929 . S
H1727 C1759 0.929 . S
H1728 C1760 0.930 . S
H1729 C1762 0.929 . S
H1730 C1763 0.931 . S
H1731 C1765 0.930 . S
H1732 C1766 0.932 . S
H1733 C1768 0.931 . S
H1734 C1769 0.929 . S
H1735 C1771 0.929 . S
H1736 C1772 0.931 . S
H1737 C1774 0.929 . S
N1738 C1758 1.433 . S
N1738 C1764 1.435 . S
N1738 C1770 1.423 . S
H1739 C1775 0.932 . S
C1740 N1715 1.433 . S
C1740 C1741 1.363 . S
C1740 C1745 1.370 . S
C1741 H1714 0.929 . S
C1741 C1740 1.363 . S
C1741 C1742 1.385 . S
C1742 H1716 0.930 . S
C1742 C1741 1.385 . S
C1742 C1743 1.357 . S
C1743 C1742 1.357 . S
C1743 C1744 1.406 . S
C1744 H1718 0.929 . S
C1744 C1743 1.406 . S
C1744 C1745 1.391 . S
C1745 H1717 0.931 . S
C1745 C1740 1.370 . S
C1745 C1744 1.391 . S
C1746 N1715 1.435 . S
C1746 C1747 1.358 . S
C1746 C1751 1.371 . S
C1747 H1719 0.930 . S
C1747 C1746 1.358 . S
C1747 C1748 1.405 . S
C1748 H1720 0.932 . S
C1748 C1747 1.405 . S
C1748 C1749 1.383 . S
C1749 C1748 1.383 . S
C1749 C1750 1.393 . S
C1750 H1722 0.931 . S
C1750 C1749 1.393 . S
C1750 C1751 1.382 . S
C1751 H1721 0.929 . S
C1751 C1746 1.371 . S
C1751 C1750 1.382 . S
C1752 N1715 1.423 . S
C1752 C1753 1.362 . S
C1752 C1757 1.388 . S
C1753 H1723 0.929 . S
C1753 C1752 1.362 . S
C1753 C1754 1.376 . S
C1754 H1725 0.931 . S
C1754 C1753 1.376 . S
C1754 C1755 1.396 . S
C1755 C1754 1.396 . S
C1755 C1756 1.348 . S
C1755 C1773 1.472 1_565 S
C1756 H1726 0.929 . S
C1756 C1755 1.348 . S
C1756 C1757 1.443 . S
C1757 H1724 0.932 . S
C1757 C1752 1.388 . S
C1757 C1756 1.443 . S
C1758 N1738 1.433 . S
C1758 C1759 1.363 . S
C1758 C1763 1.370 . S
C1759 H1727 0.929 . S
C1759 C1758 1.363 . S
C1759 C1760 1.385 . S
C1760 H1728 0.930 . S
C1760 C1759 1.385 . S
C1760 C1761 1.357 . S
C1761 C1760 1.357 . S
C1761 C1762 1.406 . S
C1762 H1729 0.929 . S
C1762 C1761 1.406 . S
C1762 C1763 1.391 . S
C1763 H1730 0.931 . S
C1763 C1758 1.370 . S
C1763 C1762 1.391 . S
C1764 N1738 1.435 . S
C1764 C1765 1.358 . S
C1764 C1769 1.371 . S
C1765 H1731 0.930 . S
C1765 C1764 1.358 . S
C1765 C1766 1.405 . S
C1766 H1732 0.932 . S
C1766 C1765 1.405 . S
C1766 C1767 1.383 . S
C1767 C1766 1.383 . S
C1767 C1768 1.393 . S
C1768 H1733 0.931 . S
C1768 C1767 1.393 . S
C1768 C1769 1.382 . S
C1769 H1734 0.929 . S
C1769 C1764 1.371 . S
C1769 C1768 1.382 . S
C1770 N1738 1.423 . S
C1770 C1771 1.362 . S
C1770 C1775 1.388 . S
C1771 H1735 0.929 . S
C1771 C1770 1.362 . S
C1771 C1772 1.376 . S
C1772 H1736 0.931 . S
C1772 C1771 1.376 . S
C1772 C1773 1.396 . S
C1773 C1755 1.472 1_545 S
C1773 C1772 1.396 . S
C1773 C1774 1.348 . S
C1774 H1737 0.929 . S
C1774 C1773 1.348 . S
C1774 C1775 1.443 . S
C1775 H1739 0.932 . S
C1775 C1770 1.388 . S
C1775 C1774 1.443 . S
H1776 C1803 0.929 . S
N1777 C1802 1.433 . S
N1777 C1808 1.435 . S
N1777 C1814 1.423 . S
H1778 C1804 0.930 . S
H1779 C1807 0.931 . S
H1780 C1806 0.929 . S
H1781 C1809 0.930 . S
H1782 C1810 0.932 . S
H1783 C1813 0.929 . S
H1784 C1812 0.931 . S
H1785 C1815 0.929 . S
H1786 C1819 0.932 . S
H1787 C1816 0.931 . S
H1788 C1818 0.929 . S
H1789 C1821 0.929 . S
H1790 C1822 0.930 . S
H1791 C1824 0.929 . S
H1792 C1825 0.931 . S
H1793 C1827 0.930 . S
H1794 C1828 0.932 . S
H1795 C1830 0.931 . S
H1796 C1831 0.929 . S
H1797 C1833 0.929 . S
H1798 C1834 0.931 . S
H1799 C1836 0.929 . S
N1800 C1820 1.433 . S
N1800 C1826 1.435 . S
N1800 C1832 1.423 . S
H1801 C1837 0.932 . S
C1802 N1777 1.433 . S
C1802 C1803 1.363 . S
C1802 C1807 1.370 . S
C1803 H1776 0.929 . S
C1803 C1802 1.363 . S
C1803 C1804 1.385 . S
C1804 H1778 0.930 . S
C1804 C1803 1.385 . S
C1804 C1805 1.357 . S
C1805 C1804 1.357 . S
C1805 C1806 1.406 . S
C1806 H1780 0.929 . S
C1806 C1805 1.406 . S
C1806 C1807 1.391 . S
C1807 H1779 0.931 . S
C1807 C1802 1.370 . S
C1807 C1806 1.391 . S
C1808 N1777 1.435 . S
C1808 C1809 1.358 . S
C1808 C1813 1.371 . S
C1809 H1781 0.930 . S
C1809 C1808 1.358 . S
C1809 C1810 1.405 . S
C1810 H1782 0.932 . S
C1810 C1809 1.405 . S
C1810 C1811 1.383 . S
C1811 C1810 1.383 . S
C1811 C1812 1.393 . S
C1812 H1784 0.931 . S
C1812 C1811 1.393 . S
C1812 C1813 1.382 . S
C1813 H1783 0.929 . S
C1813 C1808 1.371 . S
C1813 C1812 1.382 . S
C1814 N1777 1.423 . S
C1814 C1815 1.362 . S
C1814 C1819 1.388 . S
C1815 H1785 0.929 . S
C1815 C1814 1.362 . S
C1815 C1816 1.376 . S
C1816 H1787 0.931 . S
C1816 C1815 1.376 . S
C1816 C1817 1.396 . S
C1817 C1816 1.396 . S
C1817 C1818 1.348 . S
C1817 C1835 1.413 1_455 S
C1818 H1788 0.929 . S
C1818 C1817 1.348 . S
C1818 C1819 1.443 . S
C1819 H1786 0.932 . S
C1819 C1814 1.388 . S
C1819 C1818 1.443 . S
C1820 N1800 1.433 . S
C1820 C1821 1.363 . S
C1820 C1825 1.370 . S
C1821 H1789 0.929 . S
C1821 C1820 1.363 . S
C1821 C1822 1.385 . S
C1822 H1790 0.930 . S
C1822 C1821 1.385 . S
C1822 C1823 1.357 . S
C1823 C1822 1.357 . S
C1823 C1824 1.406 . S
C1824 H1791 0.929 . S
C1824 C1823 1.406 . S
C1824 C1825 1.391 . S
C1825 H1792 0.931 . S
C1825 C1820 1.370 . S
C1825 C1824 1.391 . S
C1826 N1800 1.435 . S
C1826 C1827 1.358 . S
C1826 C1831 1.371 . S
C1827 H1793 0.930 . S
C1827 C1826 1.358 . S
C1827 C1828 1.405 . S
C1828 H1794 0.932 . S
C1828 C1827 1.405 . S
C1828 C1829 1.383 . S
C1829 C1828 1.383 . S
C1829 C1830 1.393 . S
C1830 H1795 0.931 . S
C1830 C1829 1.393 . S
C1830 C1831 1.382 . S
C1831 H1796 0.929 . S
C1831 C1826 1.371 . S
C1831 C1830 1.382 . S
C1832 N1800 1.423 . S
C1832 C1833 1.362 . S
C1832 C1837 1.388 . S
C1833 H1797 0.929 . S
C1833 C1832 1.362 . S
C1833 C1834 1.376 . S
C1834 H1798 0.931 . S
C1834 C1833 1.376 . S
C1834 C1835 1.430 . S
C1835 C1817 1.413 1_655 S
C1835 C1834 1.430 . S
C1835 C1836 1.378 . S
C1836 H1799 0.929 . S
C1836 C1835 1.378 . S
C1836 C1837 1.443 . S
C1837 H1801 0.932 . S
C1837 C1832 1.388 . S
C1837 C1836 1.443 . S
H1838 C1865 0.929 . S
N1839 C1864 1.433 . S
N1839 C1870 1.435 . S
N1839 C1876 1.423 . S
H1840 C1866 0.930 . S
H1841 C1869 0.931 . S
H1842 C1868 0.929 . S
H1843 C1871 0.930 . S
H1844 C1872 0.932 . S
H1845 C1875 0.929 . S
H1846 C1874 0.931 . S
H1847 C1877 0.929 . S
H1848 C1881 0.932 . S
H1849 C1878 0.931 . S
H1850 C1880 0.929 . S
H1851 C1883 0.929 . S
H1852 C1884 0.930 . S
H1853 C1886 0.929 . S
H1854 C1887 0.931 . S
H1855 C1889 0.930 . S
H1856 C1890 0.932 . S
H1857 C1892 0.931 . S
H1858 C1893 0.929 . S
H1859 C1895 0.929 . S
H1860 C1896 0.931 . S
H1861 C1898 0.929 . S
N1862 C1882 1.433 . S
N1862 C1888 1.435 . S
N1862 C1894 1.423 . S
H1863 C1899 0.932 . S
C1864 N1839 1.433 . S
C1864 C1865 1.363 . S
C1864 C1869 1.370 . S
C1865 H1838 0.929 . S
C1865 C1864 1.363 . S
C1865 C1866 1.385 . S
C1866 H1840 0.930 . S
C1866 C1865 1.385 . S
C1866 C1867 1.357 . S
C1867 C1866 1.357 . S
C1867 C1868 1.406 . S
C1868 H1842 0.929 . S
C1868 C1867 1.406 . S
C1868 C1869 1.391 . S
C1869 H1841 0.931 . S
C1869 C1864 1.370 . S
C1869 C1868 1.391 . S
C1870 N1839 1.435 . S
C1870 C1871 1.358 . S
C1870 C1875 1.371 . S
C1871 H1843 0.930 . S
C1871 C1870 1.358 . S
C1871 C1872 1.405 . S
C1872 H1844 0.932 . S
C1872 C1871 1.405 . S
C1872 C1873 1.383 . S
C1873 C1872 1.383 . S
C1873 C1874 1.393 . S
C1874 H1846 0.931 . S
C1874 C1873 1.393 . S
C1874 C1875 1.382 . S
C1875 H1845 0.929 . S
C1875 C1870 1.371 . S
C1875 C1874 1.382 . S
C1876 N1839 1.423 . S
C1876 C1877 1.362 . S
C1876 C1881 1.388 . S
C1877 H1847 0.929 . S
C1877 C1876 1.362 . S
C1877 C1878 1.376 . S
C1878 H1849 0.931 . S
C1878 C1877 1.376 . S
C1878 C1879 1.396 . S
C1879 C1878 1.396 . S
C1879 C1880 1.348 . S
C1879 C1897 1.472 1_545 S
C1880 H1850 0.929 . S
C1880 C1879 1.348 . S
C1880 C1881 1.443 . S
C1881 H1848 0.932 . S
C1881 C1876 1.388 . S
C1881 C1880 1.443 . S
C1882 N1862 1.433 . S
C1882 C1883 1.363 . S
C1882 C1887 1.370 . S
C1883 H1851 0.929 . S
C1883 C1882 1.363 . S
C1883 C1884 1.385 . S
C1884 H1852 0.930 . S
C1884 C1883 1.385 . S
C1884 C1885 1.357 . S
C1885 C1884 1.357 . S
C1885 C1886 1.406 . S
C1886 H1853 0.929 . S
C1886 C1885 1.406 . S
C1886 C1887 1.391 . S
C1887 H1854 0.931 . S
C1887 C1882 1.370 . S
C1887 C1886 1.391 . S
C1888 N1862 1.435 . S
C1888 C1889 1.358 . S
C1888 C1893 1.371 . S
C1889 H1855 0.930 . S
C1889 C1888 1.358 . S
C1889 C1890 1.405 . S
C1890 H1856 0.932 . S
C1890 C1889 1.405 . S
C1890 C1891 1.383 . S
C1891 C1890 1.383 . S
C1891 C1892 1.393 . S
C1892 H1857 0.931 . S
C1892 C1891 1.393 . S
C1892 C1893 1.382 . S
C1893 H1858 0.929 . S
C1893 C1888 1.371 . S
C1893 C1892 1.382 . S
C1894 N1862 1.423 . S
C1894 C1895 1.362 . S
C1894 C1899 1.388 . S
C1895 H1859 0.929 . S
C1895 C1894 1.362 . S
C1895 C1896 1.376 . S
C1896 H1860 0.931 . S
C1896 C1895 1.376 . S
C1896 C1897 1.396 . S
C1897 C1879 1.472 1_565 S
C1897 C1896 1.396 . S
C1897 C1898 1.348 . S
C1898 H1861 0.929 . S
C1898 C1897 1.348 . S
C1898 C1899 1.443 . S
C1899 H1863 0.932 . S
C1899 C1894 1.388 . S
C1899 C1898 1.443 . S
H1900 C1927 0.929 . S
N1901 C1926 1.433 . S
N1901 C1932 1.435 . S
N1901 C1938 1.423 . S
H1902 C1928 0.930 . S
H1903 C1931 0.931 . S
H1904 C1930 0.929 . S
H1905 C1933 0.930 . S
H1906 C1934 0.932 . S
H1907 C1937 0.929 . S
H1908 C1936 0.931 . S
H1909 C1939 0.929 . S
H1910 C1943 0.932 . S
H1911 C1940 0.931 . S
H1912 C1942 0.929 . S
H1913 C1945 0.929 . S
H1914 C1946 0.930 . S
H1915 C1948 0.929 . S
H1916 C1949 0.931 . S
H1917 C1951 0.930 . S
H1918 C1952 0.932 . S
H1919 C1954 0.931 . S
H1920 C1955 0.929 . S
H1921 C1957 0.929 . S
H1922 C1958 0.931 . S
H1923 C1960 0.929 . S
N1924 C1944 1.433 . S
N1924 C1950 1.435 . S
N1924 C1956 1.423 . S
H1925 C1961 0.932 . S
C1926 N1901 1.433 . S
C1926 C1927 1.363 . S
C1926 C1931 1.370 . S
C1927 H1900 0.929 . S
C1927 C1926 1.363 . S
C1927 C1928 1.385 . S
C1928 H1902 0.930 . S
C1928 C1927 1.385 . S
C1928 C1929 1.357 . S
C1929 C1928 1.357 . S
C1929 C1930 1.406 . S
C1930 H1904 0.929 . S
C1930 C1929 1.406 . S
C1930 C1931 1.391 . S
C1931 H1903 0.931 . S
C1931 C1926 1.370 . S
C1931 C1930 1.391 . S
C1932 N1901 1.435 . S
C1932 C1933 1.358 . S
C1932 C1937 1.371 . S
C1933 H1905 0.930 . S
C1933 C1932 1.358 . S
C1933 C1934 1.405 . S
C1934 H1906 0.932 . S
C1934 C1933 1.405 . S
C1934 C1935 1.383 . S
C1935 C1934 1.383 . S
C1935 C1936 1.393 . S
C1936 H1908 0.931 . S
C1936 C1935 1.393 . S
C1936 C1937 1.382 . S
C1937 H1907 0.929 . S
C1937 C1932 1.371 . S
C1937 C1936 1.382 . S
C1938 N1901 1.423 . S
C1938 C1939 1.362 . S
C1938 C1943 1.388 . S
C1939 H1909 0.929 . S
C1939 C1938 1.362 . S
C1939 C1940 1.376 . S
C1940 H1911 0.931 . S
C1940 C1939 1.376 . S
C1940 C1941 1.396 . S
C1941 C1940 1.396 . S
C1941 C1942 1.348 . S
C1941 C1959 1.472 1_655 S
C1942 H1912 0.929 . S
C1942 C1941 1.348 . S
C1942 C1943 1.443 . S
C1943 H1910 0.932 . S
C1943 C1938 1.388 . S
C1943 C1942 1.443 . S
C1944 N1924 1.433 . S
C1944 C1945 1.363 . S
C1944 C1949 1.370 . S
C1945 H1913 0.929 . S
C1945 C1944 1.363 . S
C1945 C1946 1.385 . S
C1946 H1914 0.930 . S
C1946 C1945 1.385 . S
C1946 C1947 1.357 . S
C1947 C1946 1.357 . S
C1947 C1948 1.406 . S
C1948 H1915 0.929 . S
C1948 C1947 1.406 . S
C1948 C1949 1.391 . S
C1949 H1916 0.931 . S
C1949 C1944 1.370 . S
C1949 C1948 1.391 . S
C1950 N1924 1.435 . S
C1950 C1951 1.358 . S
C1950 C1955 1.371 . S
C1951 H1917 0.930 . S
C1951 C1950 1.358 . S
C1951 C1952 1.405 . S
C1952 H1918 0.932 . S
C1952 C1951 1.405 . S
C1952 C1953 1.383 . S
C1953 C1952 1.383 . S
C1953 C1954 1.393 . S
C1954 H1919 0.931 . S
C1954 C1953 1.393 . S
C1954 C1955 1.382 . S
C1955 H1920 0.929 . S
C1955 C1950 1.371 . S
C1955 C1954 1.382 . S
C1956 N1924 1.423 . S
C1956 C1957 1.362 . S
C1956 C1961 1.388 . S
C1957 H1921 0.929 . S
C1957 C1956 1.362 . S
C1957 C1958 1.376 . S
C1958 H1922 0.931 . S
C1958 C1957 1.376 . S
C1958 C1959 1.396 . S
C1959 C1941 1.472 1_455 S
C1959 C1958 1.396 . S
C1959 C1960 1.348 . S
C1960 H1923 0.929 . S
C1960 C1959 1.348 . S
C1960 C1961 1.443 . S
C1961 H1925 0.932 . S
C1961 C1956 1.388 . S
C1961 C1960 1.443 . S
H1962 C1989 0.929 . S
N1963 C1988 1.433 . S
N1963 C1994 1.435 . S
N1963 C2000 1.423 . S
H1964 C1990 0.930 . S
H1965 C1993 0.931 . S
H1966 C1992 0.929 . S
H1967 C1995 0.930 . S
H1968 C1996 0.932 . S
H1969 C1999 0.929 . S
H1970 C1998 0.931 . S
H1971 C2001 0.929 . S
H1972 C2005 0.932 . S
H1973 C2002 0.931 . S
H1974 C2004 0.929 . S
H1975 C2007 0.929 . S
H1976 C2008 0.930 . S
H1977 C2010 0.929 . S
H1978 C2011 0.931 . S
H1979 C2013 0.930 . S
H1980 C2014 0.932 . S
H1981 C2016 0.931 . S
H1982 C2017 0.929 . S
H1983 C2019 0.929 . S
H1984 C2020 0.931 . S
H1985 C2022 0.929 . S
N1986 C2006 1.433 . S
N1986 C2012 1.435 . S
N1986 C2018 1.423 . S
H1987 C2023 0.932 . S
C1988 N1963 1.433 . S
C1988 C1989 1.363 . S
C1988 C1993 1.370 . S
C1989 H1962 0.929 . S
C1989 C1988 1.363 . S
C1989 C1990 1.385 . S
C1990 H1964 0.930 . S
C1990 C1989 1.385 . S
C1990 C1991 1.357 . S
C1991 C1990 1.357 . S
C1991 C1992 1.406 . S
C1992 H1966 0.929 . S
C1992 C1991 1.406 . S
C1992 C1993 1.391 . S
C1993 H1965 0.931 . S
C1993 C1988 1.370 . S
C1993 C1992 1.391 . S
C1994 N1963 1.435 . S
C1994 C1995 1.358 . S
C1994 C1999 1.371 . S
C1995 H1967 0.930 . S
C1995 C1994 1.358 . S
C1995 C1996 1.405 . S
C1996 H1968 0.932 . S
C1996 C1995 1.405 . S
C1996 C1997 1.383 . S
C1997 C1996 1.383 . S
C1997 C1998 1.393 . S
C1998 H1970 0.931 . S
C1998 C1997 1.393 . S
C1998 C1999 1.382 . S
C1999 H1969 0.929 . S
C1999 C1994 1.371 . S
C1999 C1998 1.382 . S
C2000 N1963 1.423 . S
C2000 C2001 1.362 . S
C2000 C2005 1.388 . S
C2001 H1971 0.929 . S
C2001 C2000 1.362 . S
C2001 C2002 1.376 . S
C2002 H1973 0.931 . S
C2002 C2001 1.376 . S
C2002 C2003 1.396 . S
C2003 C2002 1.396 . S
C2003 C2004 1.348 . S
C2003 C2021 1.472 1_565 S
C2004 H1974 0.929 . S
C2004 C2003 1.348 . S
C2004 C2005 1.443 . S
C2005 H1972 0.932 . S
C2005 C2000 1.388 . S
C2005 C2004 1.443 . S
C2006 N1986 1.433 . S
C2006 C2007 1.363 . S
C2006 C2011 1.370 . S
C2007 H1975 0.929 . S
C2007 C2006 1.363 . S
C2007 C2008 1.385 . S
C2008 H1976 0.930 . S
C2008 C2007 1.385 . S
C2008 C2009 1.357 . S
C2009 C2008 1.357 . S
C2009 C2010 1.406 . S
C2010 H1977 0.929 . S
C2010 C2009 1.406 . S
C2010 C2011 1.391 . S
C2011 H1978 0.931 . S
C2011 C2006 1.370 . S
C2011 C2010 1.391 . S
C2012 N1986 1.435 . S
C2012 C2013 1.358 . S
C2012 C2017 1.371 . S
C2013 H1979 0.930 . S
C2013 C2012 1.358 . S
C2013 C2014 1.405 . S
C2014 H1980 0.932 . S
C2014 C2013 1.405 . S
C2014 C2015 1.383 . S
C2015 C2014 1.383 . S
C2015 C2016 1.393 . S
C2016 H1981 0.931 . S
C2016 C2015 1.393 . S
C2016 C2017 1.382 . S
C2017 H1982 0.929 . S
C2017 C2012 1.371 . S
C2017 C2016 1.382 . S
C2018 N1986 1.423 . S
C2018 C2019 1.362 . S
C2018 C2023 1.388 . S
C2019 H1983 0.929 . S
C2019 C2018 1.362 . S
C2019 C2020 1.376 . S
C2020 H1984 0.931 . S
C2020 C2019 1.376 . S
C2020 C2021 1.396 . S
C2021 C2003 1.472 1_545 S
C2021 C2020 1.396 . S
C2021 C2022 1.348 . S
C2022 H1985 0.929 . S
C2022 C2021 1.348 . S
C2022 C2023 1.443 . S
C2023 H1987 0.932 . S
C2023 C2018 1.388 . S
C2023 C2022 1.443 . S
H2024 C2051 0.929 . S
N2025 C2050 1.433 . S
N2025 C2056 1.435 . S
N2025 C2062 1.423 . S
H2026 C2052 0.930 . S
H2027 C2055 0.931 . S
H2028 C2054 0.929 . S
H2029 C2057 0.930 . S
H2030 C2058 0.932 . S
H2031 C2061 0.929 . S
H2032 C2060 0.931 . S
H2033 C2063 0.929 . S
H2034 C2067 0.932 . S
H2035 C2064 0.931 . S
H2036 C2066 0.929 . S
H2037 C2069 0.929 . S
H2038 C2070 0.930 . S
H2039 C2072 0.929 . S
H2040 C2073 0.931 . S
H2041 C2075 0.930 . S
H2042 C2076 0.932 . S
H2043 C2078 0.931 . S
H2044 C2079 0.929 . S
H2045 C2081 0.929 . S
H2046 C2082 0.931 . S
H2047 C2084 0.929 . S
N2048 C2068 1.433 . S
N2048 C2074 1.435 . S
N2048 C2080 1.423 . S
H2049 C2085 0.932 . S
C2050 N2025 1.433 . S
C2050 C2051 1.363 . S
C2050 C2055 1.370 . S
C2051 H2024 0.929 . S
C2051 C2050 1.363 . S
C2051 C2052 1.385 . S
C2052 H2026 0.930 . S
C2052 C2051 1.385 . S
C2052 C2053 1.357 . S
C2053 C2052 1.357 . S
C2053 C2054 1.406 . S
C2054 H2028 0.929 . S
C2054 C2053 1.406 . S
C2054 C2055 1.391 . S
C2055 H2027 0.931 . S
C2055 C2050 1.370 . S
C2055 C2054 1.391 . S
C2056 N2025 1.435 . S
C2056 C2057 1.358 . S
C2056 C2061 1.371 . S
C2057 H2029 0.930 . S
C2057 C2056 1.358 . S
C2057 C2058 1.405 . S
C2058 H2030 0.932 . S
C2058 C2057 1.405 . S
C2058 C2059 1.383 . S
C2059 C2058 1.383 . S
C2059 C2060 1.393 . S
C2060 H2032 0.931 . S
C2060 C2059 1.393 . S
C2060 C2061 1.382 . S
C2061 H2031 0.929 . S
C2061 C2056 1.371 . S
C2061 C2060 1.382 . S
C2062 N2025 1.423 . S
C2062 C2063 1.362 . S
C2062 C2067 1.388 . S
C2063 H2033 0.929 . S
C2063 C2062 1.362 . S
C2063 C2064 1.376 . S
C2064 H2035 0.931 . S
C2064 C2063 1.376 . S
C2064 C2065 1.396 . S
C2065 C2064 1.396 . S
C2065 C2066 1.348 . S
C2065 C2083 1.472 . S
C2066 H2036 0.929 . S
C2066 C2065 1.348 . S
C2066 C2067 1.443 . S
C2067 H2034 0.932 . S
C2067 C2062 1.388 . S
C2067 C2066 1.443 . S
C2068 N2048 1.433 . S
C2068 C2069 1.363 . S
C2068 C2073 1.370 . S
C2069 H2037 0.929 . S
C2069 C2068 1.363 . S
C2069 C2070 1.385 . S
C2070 H2038 0.930 . S
C2070 C2069 1.385 . S
C2070 C2071 1.357 . S
C2071 C2070 1.357 . S
C2071 C2072 1.406 . S
C2072 H2039 0.929 . S
C2072 C2071 1.406 . S
C2072 C2073 1.391 . S
C2073 H2040 0.931 . S
C2073 C2068 1.370 . S
C2073 C2072 1.391 . S
C2074 N2048 1.435 . S
C2074 C2075 1.358 . S
C2074 C2079 1.371 . S
C2075 H2041 0.930 . S
C2075 C2074 1.358 . S
C2075 C2076 1.405 . S
C2076 H2042 0.932 . S
C2076 C2075 1.405 . S
C2076 C2077 1.383 . S
C2077 C2076 1.383 . S
C2077 C2078 1.393 . S
C2078 H2043 0.931 . S
C2078 C2077 1.393 . S
C2078 C2079 1.382 . S
C2079 H2044 0.929 . S
C2079 C2074 1.371 . S
C2079 C2078 1.382 . S
C2080 N2048 1.423 . S
C2080 C2081 1.362 . S
C2080 C2085 1.388 . S
C2081 H2045 0.929 . S
C2081 C2080 1.362 . S
C2081 C2082 1.376 . S
C2082 H2046 0.931 . S
C2082 C2081 1.376 . S
C2082 C2083 1.396 . S
C2083 C2065 1.472 . S
C2083 C2082 1.396 . S
C2083 C2084 1.348 . S
C2084 H2047 0.929 . S
C2084 C2083 1.348 . S
C2084 C2085 1.443 . S
C2085 H2049 0.932 . S
C2085 C2080 1.388 . S
C2085 C2084 1.443 . S
H2086 C2113 0.929 . S
N2087 C2112 1.433 . S
N2087 C2118 1.435 . S
N2087 C2124 1.423 . S
H2088 C2114 0.930 . S
H2089 C2117 0.931 . S
H2090 C2116 0.929 . S
H2091 C2119 0.930 . S
H2092 C2120 0.932 . S
H2093 C2123 0.929 . S
H2094 C2122 0.931 . S
H2095 C2125 0.929 . S
H2096 C2129 0.932 . S
H2097 C2126 0.931 . S
H2098 C2128 0.929 . S
H2099 C2131 0.929 . S
H2100 C2132 0.930 . S
H2101 C2134 0.929 . S
H2102 C2135 0.931 . S
H2103 C2137 0.930 . S
H2104 C2138 0.932 . S
H2105 C2140 0.931 . S
H2106 C2141 0.929 . S
H2107 C2143 0.929 . S
H2108 C2144 0.931 . S
H2109 C2146 0.929 . S
N2110 C2130 1.433 . S
N2110 C2136 1.435 . S
N2110 C2142 1.423 . S
H2111 C2147 0.932 . S
C2112 N2087 1.433 . S
C2112 C2113 1.363 . S
C2112 C2117 1.370 . S
C2113 H2086 0.929 . S
C2113 C2112 1.363 . S
C2113 C2114 1.385 . S
C2114 H2088 0.930 . S
C2114 C2113 1.385 . S
C2114 C2115 1.357 . S
C2115 C2114 1.357 . S
C2115 C2116 1.406 . S
C2116 H2090 0.929 . S
C2116 C2115 1.406 . S
C2116 C2117 1.391 . S
C2117 H2089 0.931 . S
C2117 C2112 1.370 . S
C2117 C2116 1.391 . S
C2118 N2087 1.435 . S
C2118 C2119 1.358 . S
C2118 C2123 1.371 . S
C2119 H2091 0.930 . S
C2119 C2118 1.358 . S
C2119 C2120 1.405 . S
C2120 H2092 0.932 . S
C2120 C2119 1.405 . S
C2120 C2121 1.383 . S
C2121 C2120 1.383 . S
C2121 C2122 1.393 . S
C2122 H2094 0.931 . S
C2122 C2121 1.393 . S
C2122 C2123 1.382 . S
C2123 H2093 0.929 . S
C2123 C2118 1.371 . S
C2123 C2122 1.382 . S
C2124 N2087 1.423 . S
C2124 C2125 1.362 . S
C2124 C2129 1.388 . S
C2125 H2095 0.929 . S
C2125 C2124 1.362 . S
C2125 C2126 1.376 . S
C2126 H2097 0.931 . S
C2126 C2125 1.376 . S
C2126 C2127 1.396 . S
C2127 C2126 1.396 . S
C2127 C2128 1.348 . S
C2127 C2145 1.472 . S
C2128 H2098 0.929 . S
C2128 C2127 1.348 . S
C2128 C2129 1.443 . S
C2129 H2096 0.932 . S
C2129 C2124 1.388 . S
C2129 C2128 1.443 . S
C2130 N2110 1.433 . S
C2130 C2131 1.363 . S
C2130 C2135 1.370 . S
C2131 H2099 0.929 . S
C2131 C2130 1.363 . S
C2131 C2132 1.385 . S
C2132 H2100 0.930 . S
C2132 C2131 1.385 . S
C2132 C2133 1.357 . S
C2133 C2132 1.357 . S
C2133 C2134 1.406 . S
C2134 H2101 0.929 . S
C2134 C2133 1.406 . S
C2134 C2135 1.391 . S
C2135 H2102 0.931 . S
C2135 C2130 1.370 . S
C2135 C2134 1.391 . S
C2136 N2110 1.435 . S
C2136 C2137 1.358 . S
C2136 C2141 1.371 . S
C2137 H2103 0.930 . S
C2137 C2136 1.358 . S
C2137 C2138 1.405 . S
C2138 H2104 0.932 . S
C2138 C2137 1.405 . S
C2138 C2139 1.383 . S
C2139 C2138 1.383 . S
C2139 C2140 1.393 . S
C2140 H2105 0.931 . S
C2140 C2139 1.393 . S
C2140 C2141 1.382 . S
C2141 H2106 0.929 . S
C2141 C2136 1.371 . S
C2141 C2140 1.382 . S
C2142 N2110 1.423 . S
C2142 C2143 1.362 . S
C2142 C2147 1.388 . S
C2143 H2107 0.929 . S
C2143 C2142 1.362 . S
C2143 C2144 1.376 . S
C2144 H2108 0.931 . S
C2144 C2143 1.376 . S
C2144 C2145 1.396 . S
C2145 C2127 1.472 . S
C2145 C2144 1.396 . S
C2145 C2146 1.348 . S
C2146 H2109 0.929 . S
C2146 C2145 1.348 . S
C2146 C2147 1.443 . S
C2147 H2111 0.932 . S
C2147 C2142 1.388 . S
C2147 C2146 1.443 . S
H2148 C2175 0.929 . S
N2149 C2174 1.433 . S
N2149 C2180 1.435 . S
N2149 C2186 1.423 . S
H2150 C2176 0.930 . S
H2151 C2179 0.931 . S
H2152 C2178 0.929 . S
H2153 C2181 0.930 . S
H2154 C2182 0.932 . S
H2155 C2185 0.929 . S
H2156 C2184 0.931 . S
H2157 C2187 0.929 . S
H2158 C2191 0.932 . S
H2159 C2188 0.931 . S
H2160 C2190 0.929 . S
H2161 C2193 0.929 . S
H2162 C2194 0.930 . S
H2163 C2196 0.929 . S
H2164 C2197 0.931 . S
H2165 C2199 0.930 . S
H2166 C2200 0.932 . S
H2167 C2202 0.931 . S
H2168 C2203 0.929 . S
H2169 C2205 0.929 . S
H2170 C2206 0.931 . S
H2171 C2208 0.929 . S
N2172 C2192 1.433 . S
N2172 C2198 1.435 . S
N2172 C2204 1.423 . S
H2173 C2209 0.932 . S
C2174 N2149 1.433 . S
C2174 C2175 1.363 . S
C2174 C2179 1.370 . S
C2175 H2148 0.929 . S
C2175 C2174 1.363 . S
C2175 C2176 1.385 . S
C2176 H2150 0.930 . S
C2176 C2175 1.385 . S
C2176 C2177 1.357 . S
C2177 C2176 1.357 . S
C2177 C2178 1.406 . S
C2178 H2152 0.929 . S
C2178 C2177 1.406 . S
C2178 C2179 1.391 . S
C2179 H2151 0.931 . S
C2179 C2174 1.370 . S
C2179 C2178 1.391 . S
C2180 N2149 1.435 . S
C2180 C2181 1.358 . S
C2180 C2185 1.371 . S
C2181 H2153 0.930 . S
C2181 C2180 1.358 . S
C2181 C2182 1.405 . S
C2182 H2154 0.932 . S
C2182 C2181 1.405 . S
C2182 C2183 1.383 . S
C2183 C2182 1.383 . S
C2183 C2184 1.393 . S
C2184 H2156 0.931 . S
C2184 C2183 1.393 . S
C2184 C2185 1.382 . S
C2185 H2155 0.929 . S
C2185 C2180 1.371 . S
C2185 C2184 1.382 . S
C2186 N2149 1.423 . S
C2186 C2187 1.362 . S
C2186 C2191 1.388 . S
C2187 H2157 0.929 . S
C2187 C2186 1.362 . S
C2187 C2188 1.376 . S
C2188 H2159 0.931 . S
C2188 C2187 1.376 . S
C2188 C2189 1.396 . S
C2189 C2188 1.396 . S
C2189 C2190 1.348 . S
C2189 C2207 1.472 . S
C2190 H2160 0.929 . S
C2190 C2189 1.348 . S
C2190 C2191 1.443 . S
C2191 H2158 0.932 . S
C2191 C2186 1.388 . S
C2191 C2190 1.443 . S
C2192 N2172 1.433 . S
C2192 C2193 1.363 . S
C2192 C2197 1.370 . S
C2193 H2161 0.929 . S
C2193 C2192 1.363 . S
C2193 C2194 1.385 . S
C2194 H2162 0.930 . S
C2194 C2193 1.385 . S
C2194 C2195 1.357 . S
C2195 C2194 1.357 . S
C2195 C2196 1.406 . S
C2196 H2163 0.929 . S
C2196 C2195 1.406 . S
C2196 C2197 1.391 . S
C2197 H2164 0.931 . S
C2197 C2192 1.370 . S
C2197 C2196 1.391 . S
C2198 N2172 1.435 . S
C2198 C2199 1.358 . S
C2198 C2203 1.371 . S
C2199 H2165 0.930 . S
C2199 C2198 1.358 . S
C2199 C2200 1.405 . S
C2200 H2166 0.932 . S
C2200 C2199 1.405 . S
C2200 C2201 1.383 . S
C2201 C2200 1.383 . S
C2201 C2202 1.393 . S
C2202 H2167 0.931 . S
C2202 C2201 1.393 . S
C2202 C2203 1.382 . S
C2203 H2168 0.929 . S
C2203 C2198 1.371 . S
C2203 C2202 1.382 . S
C2204 N2172 1.423 . S
C2204 C2205 1.362 . S
C2204 C2209 1.388 . S
C2205 H2169 0.929 . S
C2205 C2204 1.362 . S
C2205 C2206 1.376 . S
C2206 H2170 0.931 . S
C2206 C2205 1.376 . S
C2206 C2207 1.396 . S
C2207 C2189 1.472 . S
C2207 C2206 1.396 . S
C2207 C2208 1.348 . S
C2208 H2171 0.929 . S
C2208 C2207 1.348 . S
C2208 C2209 1.443 . S
C2209 H2173 0.932 . S
C2209 C2204 1.388 . S
C2209 C2208 1.443 . S
H2210 C2237 0.929 . S
N2211 C2236 1.433 . S
N2211 C2242 1.435 . S
N2211 C2248 1.423 . S
H2212 C2238 0.930 . S
H2213 C2241 0.931 . S
H2214 C2240 0.929 . S
H2215 C2243 0.930 . S
H2216 C2244 0.932 . S
H2217 C2247 0.929 . S
H2218 C2246 0.931 . S
H2219 C2249 0.929 . S
H2220 C2253 0.932 . S
H2221 C2250 0.931 . S
H2222 C2252 0.929 . S
H2223 C2255 0.929 . S
H2224 C2256 0.930 . S
H2225 C2258 0.929 . S
H2226 C2259 0.931 . S
H2227 C2261 0.930 . S
H2228 C2262 0.932 . S
H2229 C2264 0.931 . S
H2230 C2265 0.929 . S
H2231 C2267 0.929 . S
H2232 C2268 0.931 . S
H2233 C2270 0.929 . S
N2234 C2254 1.433 . S
N2234 C2260 1.435 . S
N2234 C2266 1.423 . S
H2235 C2271 0.932 . S
C2236 N2211 1.433 . S
C2236 C2237 1.363 . S
C2236 C2241 1.370 . S
C2237 H2210 0.929 . S
C2237 C2236 1.363 . S
C2237 C2238 1.385 . S
C2238 H2212 0.930 . S
C2238 C2237 1.385 . S
C2238 C2239 1.357 . S
C2239 C2238 1.357 . S
C2239 C2240 1.406 . S
C2240 H2214 0.929 . S
C2240 C2239 1.406 . S
C2240 C2241 1.391 . S
C2241 H2213 0.931 . S
C2241 C2236 1.370 . S
C2241 C2240 1.391 . S
C2242 N2211 1.435 . S
C2242 C2243 1.358 . S
C2242 C2247 1.371 . S
C2243 H2215 0.930 . S
C2243 C2242 1.358 . S
C2243 C2244 1.405 . S
C2244 H2216 0.932 . S
C2244 C2243 1.405 . S
C2244 C2245 1.383 . S
C2245 C2244 1.383 . S
C2245 C2246 1.393 . S
C2246 H2218 0.931 . S
C2246 C2245 1.393 . S
C2246 C2247 1.382 . S
C2247 H2217 0.929 . S
C2247 C2242 1.371 . S
C2247 C2246 1.382 . S
C2248 N2211 1.423 . S
C2248 C2249 1.362 . S
C2248 C2253 1.388 . S
C2249 H2219 0.929 . S
C2249 C2248 1.362 . S
C2249 C2250 1.376 . S
C2250 H2221 0.931 . S
C2250 C2249 1.376 . S
C2250 C2251 1.396 . S
C2251 C2250 1.396 . S
C2251 C2252 1.348 . S
C2251 C2269 1.472 . S
C2252 H2222 0.929 . S
C2252 C2251 1.348 . S
C2252 C2253 1.443 . S
C2253 H2220 0.932 . S
C2253 C2248 1.388 . S
C2253 C2252 1.443 . S
C2254 N2234 1.433 . S
C2254 C2255 1.363 . S
C2254 C2259 1.370 . S
C2255 H2223 0.929 . S
C2255 C2254 1.363 . S
C2255 C2256 1.385 . S
C2256 H2224 0.930 . S
C2256 C2255 1.385 . S
C2256 C2257 1.357 . S
C2257 C2256 1.357 . S
C2257 C2258 1.406 . S
C2258 H2225 0.929 . S
C2258 C2257 1.406 . S
C2258 C2259 1.391 . S
C2259 H2226 0.931 . S
C2259 C2254 1.370 . S
C2259 C2258 1.391 . S
C2260 N2234 1.435 . S
C2260 C2261 1.358 . S
C2260 C2265 1.371 . S
C2261 H2227 0.930 . S
C2261 C2260 1.358 . S
C2261 C2262 1.405 . S
C2262 H2228 0.932 . S
C2262 C2261 1.405 . S
C2262 C2263 1.383 . S
C2263 C2262 1.383 . S
C2263 C2264 1.393 . S
C2264 H2229 0.931 . S
C2264 C2263 1.393 . S
C2264 C2265 1.382 . S
C2265 H2230 0.929 . S
C2265 C2260 1.371 . S
C2265 C2264 1.382 . S
C2266 N2234 1.423 . S
C2266 C2267 1.362 . S
C2266 C2271 1.388 . S
C2267 H2231 0.929 . S
C2267 C2266 1.362 . S
C2267 C2268 1.376 . S
C2268 H2232 0.931 . S
C2268 C2267 1.376 . S
C2268 C2269 1.396 . S
C2269 C2251 1.472 . S
C2269 C2268 1.396 . S
C2269 C2270 1.348 . S
C2270 H2233 0.929 . S
C2270 C2269 1.348 . S
C2270 C2271 1.443 . S
C2271 H2235 0.932 . S
C2271 C2266 1.388 . S
C2271 C2270 1.443 . S
H2272 C2299 0.929 . S
N2273 C2298 1.433 . S
N2273 C2304 1.435 . S
N2273 C2310 1.423 . S
H2274 C2300 0.930 . S
H2275 C2303 0.931 . S
H2276 C2302 0.929 . S
H2277 C2305 0.930 . S
H2278 C2306 0.932 . S
H2279 C2309 0.929 . S
H2280 C2308 0.931 . S
H2281 C2311 0.929 . S
H2282 C2315 0.932 . S
H2283 C2312 0.931 . S
H2284 C2314 0.929 . S
H2285 C2317 0.929 . S
H2286 C2318 0.930 . S
H2287 C2320 0.929 . S
H2288 C2321 0.931 . S
H2289 C2323 0.930 . S
H2290 C2324 0.932 . S
H2291 C2326 0.931 . S
H2292 C2327 0.929 . S
H2293 C2329 0.929 . S
H2294 C2330 0.931 . S
H2295 C2332 0.929 . S
N2296 C2316 1.433 . S
N2296 C2322 1.435 . S
N2296 C2328 1.423 . S
H2297 C2333 0.932 . S
C2298 N2273 1.433 . S
C2298 C2299 1.363 . S
C2298 C2303 1.370 . S
C2299 H2272 0.929 . S
C2299 C2298 1.363 . S
C2299 C2300 1.385 . S
C2300 H2274 0.930 . S
C2300 C2299 1.385 . S
C2300 C2301 1.357 . S
C2301 C2300 1.357 . S
C2301 C2302 1.406 . S
C2302 H2276 0.929 . S
C2302 C2301 1.406 . S
C2302 C2303 1.391 . S
C2303 H2275 0.931 . S
C2303 C2298 1.370 . S
C2303 C2302 1.391 . S
C2304 N2273 1.435 . S
C2304 C2305 1.358 . S
C2304 C2309 1.371 . S
C2305 H2277 0.930 . S
C2305 C2304 1.358 . S
C2305 C2306 1.405 . S
C2306 H2278 0.932 . S
C2306 C2305 1.405 . S
C2306 C2307 1.383 . S
C2307 C2306 1.383 . S
C2307 C2308 1.393 . S
C2308 H2280 0.931 . S
C2308 C2307 1.393 . S
C2308 C2309 1.382 . S
C2309 H2279 0.929 . S
C2309 C2304 1.371 . S
C2309 C2308 1.382 . S
C2310 N2273 1.423 . S
C2310 C2311 1.362 . S
C2310 C2315 1.388 . S
C2311 H2281 0.929 . S
C2311 C2310 1.362 . S
C2311 C2312 1.376 . S
C2312 H2283 0.931 . S
C2312 C2311 1.376 . S
C2312 C2313 1.396 . S
C2313 C2312 1.396 . S
C2313 C2314 1.348 . S
C2313 C2331 1.472 . S
C2314 H2284 0.929 . S
C2314 C2313 1.348 . S
C2314 C2315 1.443 . S
C2315 H2282 0.932 . S
C2315 C2310 1.388 . S
C2315 C2314 1.443 . S
C2316 N2296 1.433 . S
C2316 C2317 1.363 . S
C2316 C2321 1.370 . S
C2317 H2285 0.929 . S
C2317 C2316 1.363 . S
C2317 C2318 1.385 . S
C2318 H2286 0.930 . S
C2318 C2317 1.385 . S
C2318 C2319 1.357 . S
C2319 C2318 1.357 . S
C2319 C2320 1.406 . S
C2320 H2287 0.929 . S
C2320 C2319 1.406 . S
C2320 C2321 1.391 . S
C2321 H2288 0.931 . S
C2321 C2316 1.370 . S
C2321 C2320 1.391 . S
C2322 N2296 1.435 . S
C2322 C2323 1.358 . S
C2322 C2327 1.371 . S
C2323 H2289 0.930 . S
C2323 C2322 1.358 . S
C2323 C2324 1.405 . S
C2324 H2290 0.932 . S
C2324 C2323 1.405 . S
C2324 C2325 1.383 . S
C2325 C2324 1.383 . S
C2325 C2326 1.393 . S
C2326 H2291 0.931 . S
C2326 C2325 1.393 . S
C2326 C2327 1.382 . S
C2327 H2292 0.929 . S
C2327 C2322 1.371 . S
C2327 C2326 1.382 . S
C2328 N2296 1.423 . S
C2328 C2329 1.362 . S
C2328 C2333 1.388 . S
C2329 H2293 0.929 . S
C2329 C2328 1.362 . S
C2329 C2330 1.376 . S
C2330 H2294 0.931 . S
C2330 C2329 1.376 . S
C2330 C2331 1.396 . S
C2331 C2313 1.472 . S
C2331 C2330 1.396 . S
C2331 C2332 1.348 . S
C2332 H2295 0.929 . S
C2332 C2331 1.348 . S
C2332 C2333 1.443 . S
C2333 H2297 0.932 . S
C2333 C2328 1.388 . S
C2333 C2332 1.443 . S
H2334 C2361 0.929 . S
N2335 C2360 1.433 . S
N2335 C2366 1.435 . S
N2335 C2372 1.423 . S
H2336 C2362 0.930 . S
H2337 C2365 0.931 . S
H2338 C2364 0.929 . S
H2339 C2367 0.930 . S
H2340 C2368 0.932 . S
H2341 C2371 0.929 . S
H2342 C2370 0.931 . S
H2343 C2373 0.929 . S
H2344 C2377 0.932 . S
H2345 C2374 0.931 . S
H2346 C2376 0.929 . S
H2347 C2379 0.929 . S
H2348 C2380 0.930 . S
H2349 C2382 0.929 . S
H2350 C2383 0.931 . S
H2351 C2385 0.930 . S
H2352 C2386 0.932 . S
H2353 C2388 0.931 . S
H2354 C2389 0.929 . S
H2355 C2391 0.929 . S
H2356 C2392 0.931 . S
H2357 C2394 0.929 . S
N2358 C2378 1.433 . S
N2358 C2384 1.435 . S
N2358 C2390 1.423 . S
H2359 C2395 0.932 . S
C2360 N2335 1.433 . S
C2360 C2361 1.363 . S
C2360 C2365 1.370 . S
C2361 H2334 0.929 . S
C2361 C2360 1.363 . S
C2361 C2362 1.385 . S
C2362 H2336 0.930 . S
C2362 C2361 1.385 . S
C2362 C2363 1.357 . S
C2363 C2362 1.357 . S
C2363 C2364 1.406 . S
C2364 H2338 0.929 . S
C2364 C2363 1.406 . S
C2364 C2365 1.391 . S
C2365 H2337 0.931 . S
C2365 C2360 1.370 . S
C2365 C2364 1.391 . S
C2366 N2335 1.435 . S
C2366 C2367 1.358 . S
C2366 C2371 1.371 . S
C2367 H2339 0.930 . S
C2367 C2366 1.358 . S
C2367 C2368 1.405 . S
C2368 H2340 0.932 . S
C2368 C2367 1.405 . S
C2368 C2369 1.383 . S
C2369 C2368 1.383 . S
C2369 C2370 1.393 . S
C2370 H2342 0.931 . S
C2370 C2369 1.393 . S
C2370 C2371 1.382 . S
C2371 H2341 0.929 . S
C2371 C2366 1.371 . S
C2371 C2370 1.382 . S
C2372 N2335 1.423 . S
C2372 C2373 1.362 . S
C2372 C2377 1.388 . S
C2373 H2343 0.929 . S
C2373 C2372 1.362 . S
C2373 C2374 1.376 . S
C2374 H2345 0.931 . S
C2374 C2373 1.376 . S
C2374 C2375 1.396 . S
C2375 C2374 1.396 . S
C2375 C2376 1.348 . S
C2375 C2393 1.472 . S
C2376 H2346 0.929 . S
C2376 C2375 1.348 . S
C2376 C2377 1.443 . S
C2377 H2344 0.932 . S
C2377 C2372 1.388 . S
C2377 C2376 1.443 . S
C2378 N2358 1.433 . S
C2378 C2379 1.363 . S
C2378 C2383 1.370 . S
C2379 H2347 0.929 . S
C2379 C2378 1.363 . S
C2379 C2380 1.385 . S
C2380 H2348 0.930 . S
C2380 C2379 1.385 . S
C2380 C2381 1.357 . S
C2381 C2380 1.357 . S
C2381 C2382 1.406 . S
C2382 H2349 0.929 . S
C2382 C2381 1.406 . S
C2382 C2383 1.391 . S
C2383 H2350 0.931 . S
C2383 C2378 1.370 . S
C2383 C2382 1.391 . S
C2384 N2358 1.435 . S
C2384 C2385 1.358 . S
C2384 C2389 1.371 . S
C2385 H2351 0.930 . S
C2385 C2384 1.358 . S
C2385 C2386 1.405 . S
C2386 H2352 0.932 . S
C2386 C2385 1.405 . S
C2386 C2387 1.383 . S
C2387 C2386 1.383 . S
C2387 C2388 1.393 . S
C2388 H2353 0.931 . S
C2388 C2387 1.393 . S
C2388 C2389 1.382 . S
C2389 H2354 0.929 . S
C2389 C2384 1.371 . S
C2389 C2388 1.382 . S
C2390 N2358 1.423 . S
C2390 C2391 1.362 . S
C2390 C2395 1.388 . S
C2391 H2355 0.929 . S
C2391 C2390 1.362 . S
C2391 C2392 1.376 . S
C2392 H2356 0.931 . S
C2392 C2391 1.376 . S
C2392 C2393 1.396 . S
C2393 C2375 1.472 . S
C2393 C2392 1.396 . S
C2393 C2394 1.348 . S
C2394 H2357 0.929 . S
C2394 C2393 1.348 . S
C2394 C2395 1.443 . S
C2395 H2359 0.932 . S
C2395 C2390 1.388 . S
C2395 C2394 1.443 . S
H2396 C2423 0.929 . S
N2397 C2422 1.433 . S
N2397 C2428 1.435 . S
N2397 C2434 1.423 . S
H2398 C2424 0.930 . S
H2399 C2427 0.931 . S
H2400 C2426 0.929 . S
H2401 C2429 0.930 . S
H2402 C2430 0.932 . S
H2403 C2433 0.929 . S
H2404 C2432 0.931 . S
H2405 C2435 0.929 . S
H2406 C2439 0.932 . S
H2407 C2436 0.931 . S
H2408 C2438 0.929 . S
H2409 C2441 0.929 . S
H2410 C2442 0.930 . S
H2411 C2444 0.929 . S
H2412 C2445 0.931 . S
H2413 C2447 0.930 . S
H2414 C2448 0.932 . S
H2415 C2450 0.931 . S
H2416 C2451 0.929 . S
H2417 C2453 0.929 . S
H2418 C2454 0.931 . S
H2419 C2456 0.929 . S
N2420 C2440 1.433 . S
N2420 C2446 1.435 . S
N2420 C2452 1.423 . S
H2421 C2457 0.932 . S
C2422 N2397 1.433 . S
C2422 C2423 1.363 . S
C2422 C2427 1.370 . S
C2423 H2396 0.929 . S
C2423 C2422 1.363 . S
C2423 C2424 1.385 . S
C2424 H2398 0.930 . S
C2424 C2423 1.385 . S
C2424 C2425 1.357 . S
C2425 C2424 1.357 . S
C2425 C2426 1.406 . S
C2426 H2400 0.929 . S
C2426 C2425 1.406 . S
C2426 C2427 1.391 . S
C2427 H2399 0.931 . S
C2427 C2422 1.370 . S
C2427 C2426 1.391 . S
C2428 N2397 1.435 . S
C2428 C2429 1.358 . S
C2428 C2433 1.371 . S
C2429 H2401 0.930 . S
C2429 C2428 1.358 . S
C2429 C2430 1.405 . S
C2430 H2402 0.932 . S
C2430 C2429 1.405 . S
C2430 C2431 1.383 . S
C2431 C2430 1.383 . S
C2431 C2432 1.393 . S
C2432 H2404 0.931 . S
C2432 C2431 1.393 . S
C2432 C2433 1.382 . S
C2433 H2403 0.929 . S
C2433 C2428 1.371 . S
C2433 C2432 1.382 . S
C2434 N2397 1.423 . S
C2434 C2435 1.362 . S
C2434 C2439 1.388 . S
C2435 H2405 0.929 . S
C2435 C2434 1.362 . S
C2435 C2436 1.376 . S
C2436 H2407 0.931 . S
C2436 C2435 1.376 . S
C2436 C2437 1.396 . S
C2437 C2436 1.396 . S
C2437 C2438 1.348 . S
C2437 C2455 1.472 . S
C2438 H2408 0.929 . S
C2438 C2437 1.348 . S
C2438 C2439 1.443 . S
C2439 H2406 0.932 . S
C2439 C2434 1.388 . S
C2439 C2438 1.443 . S
C2440 N2420 1.433 . S
C2440 C2441 1.363 . S
C2440 C2445 1.370 . S
C2441 H2409 0.929 . S
C2441 C2440 1.363 . S
C2441 C2442 1.385 . S
C2442 H2410 0.930 . S
C2442 C2441 1.385 . S
C2442 C2443 1.357 . S
C2443 C2442 1.357 . S
C2443 C2444 1.406 . S
C2444 H2411 0.929 . S
C2444 C2443 1.406 . S
C2444 C2445 1.391 . S
C2445 H2412 0.931 . S
C2445 C2440 1.370 . S
C2445 C2444 1.391 . S
C2446 N2420 1.435 . S
C2446 C2447 1.358 . S
C2446 C2451 1.371 . S
C2447 H2413 0.930 . S
C2447 C2446 1.358 . S
C2447 C2448 1.405 . S
C2448 H2414 0.932 . S
C2448 C2447 1.405 . S
C2448 C2449 1.383 . S
C2449 C2448 1.383 . S
C2449 C2450 1.393 . S
C2450 H2415 0.931 . S
C2450 C2449 1.393 . S
C2450 C2451 1.382 . S
C2451 H2416 0.929 . S
C2451 C2446 1.371 . S
C2451 C2450 1.382 . S
C2452 N2420 1.423 . S
C2452 C2453 1.362 . S
C2452 C2457 1.388 . S
C2453 H2417 0.929 . S
C2453 C2452 1.362 . S
C2453 C2454 1.376 . S
C2454 H2418 0.931 . S
C2454 C2453 1.376 . S
C2454 C2455 1.396 . S
C2455 C2437 1.472 . S
C2455 C2454 1.396 . S
C2455 C2456 1.348 . S
C2456 H2419 0.929 . S
C2456 C2455 1.348 . S
C2456 C2457 1.443 . S
C2457 H2421 0.932 . S
C2457 C2452 1.388 . S
C2457 C2456 1.443 . S
H2458 C2485 0.929 . S
N2459 C2484 1.433 . S
N2459 C2490 1.435 . S
N2459 C2496 1.423 . S
H2460 C2486 0.930 . S
H2461 C2489 0.931 . S
H2462 C2488 0.929 . S
H2463 C2491 0.930 . S
H2464 C2492 0.932 . S
H2465 C2495 0.929 . S
H2466 C2494 0.931 . S
H2467 C2497 0.929 . S
H2468 C2501 0.932 . S
H2469 C2498 0.931 . S
H2470 C2500 0.929 . S
H2471 C2503 0.929 . S
H2472 C2504 0.930 . S
H2473 C2506 0.929 . S
H2474 C2507 0.931 . S
H2475 C2509 0.930 . S
H2476 C2510 0.932 . S
H2477 C2512 0.931 . S
H2478 C2513 0.929 . S
H2479 C2515 0.929 . S
H2480 C2516 0.931 . S
H2481 C2518 0.929 . S
N2482 C2502 1.433 . S
N2482 C2508 1.435 . S
N2482 C2514 1.423 . S
H2483 C2519 0.932 . S
C2484 N2459 1.433 . S
C2484 C2485 1.363 . S
C2484 C2489 1.370 . S
C2485 H2458 0.929 . S
C2485 C2484 1.363 . S
C2485 C2486 1.385 . S
C2486 H2460 0.930 . S
C2486 C2485 1.385 . S
C2486 C2487 1.357 . S
C2487 C2486 1.357 . S
C2487 C2488 1.406 . S
C2488 H2462 0.929 . S
C2488 C2487 1.406 . S
C2488 C2489 1.391 . S
C2489 H2461 0.931 . S
C2489 C2484 1.370 . S
C2489 C2488 1.391 . S
C2490 N2459 1.435 . S
C2490 C2491 1.358 . S
C2490 C2495 1.371 . S
C2491 H2463 0.930 . S
C2491 C2490 1.358 . S
C2491 C2492 1.405 . S
C2492 H2464 0.932 . S
C2492 C2491 1.405 . S
C2492 C2493 1.383 . S
C2493 C2492 1.383 . S
C2493 C2494 1.393 . S
C2494 H2466 0.931 . S
C2494 C2493 1.393 . S
C2494 C2495 1.382 . S
C2495 H2465 0.929 . S
C2495 C2490 1.371 . S
C2495 C2494 1.382 . S
C2496 N2459 1.423 . S
C2496 C2497 1.362 . S
C2496 C2501 1.388 . S
C2497 H2467 0.929 . S
C2497 C2496 1.362 . S
C2497 C2498 1.376 . S
C2498 H2469 0.931 . S
C2498 C2497 1.376 . S
C2498 C2499 1.396 . S
C2499 C2498 1.396 . S
C2499 C2500 1.348 . S
C2499 C2517 1.472 . S
C2500 H2470 0.929 . S
C2500 C2499 1.348 . S
C2500 C2501 1.443 . S
C2501 H2468 0.932 . S
C2501 C2496 1.388 . S
C2501 C2500 1.443 . S
C2502 N2482 1.433 . S
C2502 C2503 1.363 . S
C2502 C2507 1.370 . S
C2503 H2471 0.929 . S
C2503 C2502 1.363 . S
C2503 C2504 1.385 . S
C2504 H2472 0.930 . S
C2504 C2503 1.385 . S
C2504 C2505 1.357 . S
C2505 C2504 1.357 . S
C2505 C2506 1.406 . S
C2506 H2473 0.929 . S
C2506 C2505 1.406 . S
C2506 C2507 1.391 . S
C2507 H2474 0.931 . S
C2507 C2502 1.370 . S
C2507 C2506 1.391 . S
C2508 N2482 1.435 . S
C2508 C2509 1.358 . S
C2508 C2513 1.371 . S
C2509 H2475 0.930 . S
C2509 C2508 1.358 . S
C2509 C2510 1.405 . S
C2510 H2476 0.932 . S
C2510 C2509 1.405 . S
C2510 C2511 1.383 . S
C2511 C2510 1.383 . S
C2511 C2512 1.393 . S
C2512 H2477 0.931 . S
C2512 C2511 1.393 . S
C2512 C2513 1.382 . S
C2513 H2478 0.929 . S
C2513 C2508 1.371 . S
C2513 C2512 1.382 . S
C2514 N2482 1.423 . S
C2514 C2515 1.362 . S
C2514 C2519 1.388 . S
C2515 H2479 0.929 . S
C2515 C2514 1.362 . S
C2515 C2516 1.376 . S
C2516 H2480 0.931 . S
C2516 C2515 1.376 . S
C2516 C2517 1.396 . S
C2517 C2499 1.472 . S
C2517 C2516 1.396 . S
C2517 C2518 1.348 . S
C2518 H2481 0.929 . S
C2518 C2517 1.348 . S
C2518 C2519 1.443 . S
C2519 H2483 0.932 . S
C2519 C2514 1.388 . S
C2519 C2518 1.443 . S
H2520 C2547 0.929 . S
N2521 C2546 1.433 . S
N2521 C2552 1.435 . S
N2521 C2558 1.423 . S
H2522 C2548 0.930 . S
H2523 C2551 0.931 . S
H2524 C2550 0.929 . S
H2525 C2553 0.930 . S
H2526 C2554 0.932 . S
H2527 C2557 0.929 . S
H2528 C2556 0.931 . S
H2529 C2559 0.929 . S
H2530 C2563 0.932 . S
H2531 C2560 0.931 . S
H2532 C2562 0.929 . S
H2533 C2565 0.929 . S
H2534 C2566 0.930 . S
H2535 C2568 0.929 . S
H2536 C2569 0.931 . S
H2537 C2571 0.930 . S
H2538 C2572 0.932 . S
H2539 C2574 0.931 . S
H2540 C2575 0.929 . S
H2541 C2577 0.929 . S
H2542 C2578 0.931 . S
H2543 C2580 0.929 . S
N2544 C2564 1.433 . S
N2544 C2570 1.435 . S
N2544 C2576 1.423 . S
H2545 C2581 0.932 . S
C2546 N2521 1.433 . S
C2546 C2547 1.363 . S
C2546 C2551 1.370 . S
C2547 H2520 0.929 . S
C2547 C2546 1.363 . S
C2547 C2548 1.385 . S
C2548 H2522 0.930 . S
C2548 C2547 1.385 . S
C2548 C2549 1.357 . S
C2549 C2548 1.357 . S
C2549 C2550 1.406 . S
C2550 H2524 0.929 . S
C2550 C2549 1.406 . S
C2550 C2551 1.391 . S
C2551 H2523 0.931 . S
C2551 C2546 1.370 . S
C2551 C2550 1.391 . S
C2552 N2521 1.435 . S
C2552 C2553 1.358 . S
C2552 C2557 1.371 . S
C2553 H2525 0.930 . S
C2553 C2552 1.358 . S
C2553 C2554 1.405 . S
C2554 H2526 0.932 . S
C2554 C2553 1.405 . S
C2554 C2555 1.383 . S
C2555 C2554 1.383 . S
C2555 C2556 1.393 . S
C2556 H2528 0.931 . S
C2556 C2555 1.393 . S
C2556 C2557 1.382 . S
C2557 H2527 0.929 . S
C2557 C2552 1.371 . S
C2557 C2556 1.382 . S
C2558 N2521 1.423 . S
C2558 C2559 1.362 . S
C2558 C2563 1.388 . S
C2559 H2529 0.929 . S
C2559 C2558 1.362 . S
C2559 C2560 1.376 . S
C2560 H2531 0.931 . S
C2560 C2559 1.376 . S
C2560 C2561 1.396 . S
C2561 C2560 1.396 . S
C2561 C2562 1.348 . S
C2561 C2579 1.472 . S
C2562 H2532 0.929 . S
C2562 C2561 1.348 . S
C2562 C2563 1.443 . S
C2563 H2530 0.932 . S
C2563 C2558 1.388 . S
C2563 C2562 1.443 . S
C2564 N2544 1.433 . S
C2564 C2565 1.363 . S
C2564 C2569 1.370 . S
C2565 H2533 0.929 . S
C2565 C2564 1.363 . S
C2565 C2566 1.385 . S
C2566 H2534 0.930 . S
C2566 C2565 1.385 . S
C2566 C2567 1.357 . S
C2567 C2566 1.357 . S
C2567 C2568 1.406 . S
C2568 H2535 0.929 . S
C2568 C2567 1.406 . S
C2568 C2569 1.391 . S
C2569 H2536 0.931 . S
C2569 C2564 1.370 . S
C2569 C2568 1.391 . S
C2570 N2544 1.435 . S
C2570 C2571 1.358 . S
C2570 C2575 1.371 . S
C2571 H2537 0.930 . S
C2571 C2570 1.358 . S
C2571 C2572 1.405 . S
C2572 H2538 0.932 . S
C2572 C2571 1.405 . S
C2572 C2573 1.383 . S
C2573 C2572 1.383 . S
C2573 C2574 1.393 . S
C2574 H2539 0.931 . S
C2574 C2573 1.393 . S
C2574 C2575 1.382 . S
C2575 H2540 0.929 . S
C2575 C2570 1.371 . S
C2575 C2574 1.382 . S
C2576 N2544 1.423 . S
C2576 C2577 1.362 . S
C2576 C2581 1.388 . S
C2577 H2541 0.929 . S
C2577 C2576 1.362 . S
C2577 C2578 1.376 . S
C2578 H2542 0.931 . S
C2578 C2577 1.376 . S
C2578 C2579 1.396 . S
C2579 C2561 1.472 . S
C2579 C2578 1.396 . S
C2579 C2580 1.348 . S
C2580 H2543 0.929 . S
C2580 C2579 1.348 . S
C2580 C2581 1.443 . S
C2581 H2545 0.932 . S
C2581 C2576 1.388 . S
C2581 C2580 1.443 . S
H2582 C2609 0.929 . S
N2583 C2608 1.433 . S
N2583 C2614 1.435 . S
N2583 C2620 1.423 . S
H2584 C2610 0.930 . S
H2585 C2613 0.931 . S
H2586 C2612 0.929 . S
H2587 C2615 0.930 . S
H2588 C2616 0.932 . S
H2589 C2619 0.929 . S
H2590 C2618 0.931 . S
H2591 C2621 0.929 . S
H2592 C2625 0.932 . S
H2593 C2622 0.931 . S
H2594 C2624 0.929 . S
H2595 C2627 0.929 . S
H2596 C2628 0.930 . S
H2597 C2630 0.929 . S
H2598 C2631 0.931 . S
H2599 C2633 0.930 . S
H2600 C2634 0.932 . S
H2601 C2636 0.931 . S
H2602 C2637 0.929 . S
H2603 C2639 0.929 . S
H2604 C2640 0.931 . S
H2605 C2642 0.929 . S
N2606 C2626 1.433 . S
N2606 C2632 1.435 . S
N2606 C2638 1.423 . S
H2607 C2643 0.932 . S
C2608 N2583 1.433 . S
C2608 C2609 1.363 . S
C2608 C2613 1.370 . S
C2609 H2582 0.929 . S
C2609 C2608 1.363 . S
C2609 C2610 1.385 . S
C2610 H2584 0.930 . S
C2610 C2609 1.385 . S
C2610 C2611 1.357 . S
C2611 C2610 1.357 . S
C2611 C2612 1.406 . S
C2612 H2586 0.929 . S
C2612 C2611 1.406 . S
C2612 C2613 1.391 . S
C2613 H2585 0.931 . S
C2613 C2608 1.370 . S
C2613 C2612 1.391 . S
C2614 N2583 1.435 . S
C2614 C2615 1.358 . S
C2614 C2619 1.371 . S
C2615 H2587 0.930 . S
C2615 C2614 1.358 . S
C2615 C2616 1.405 . S
C2616 H2588 0.932 . S
C2616 C2615 1.405 . S
C2616 C2617 1.383 . S
C2617 C2616 1.383 . S
C2617 C2618 1.393 . S
C2618 H2590 0.931 . S
C2618 C2617 1.393 . S
C2618 C2619 1.382 . S
C2619 H2589 0.929 . S
C2619 C2614 1.371 . S
C2619 C2618 1.382 . S
C2620 N2583 1.423 . S
C2620 C2621 1.362 . S
C2620 C2625 1.388 . S
C2621 H2591 0.929 . S
C2621 C2620 1.362 . S
C2621 C2622 1.376 . S
C2622 H2593 0.931 . S
C2622 C2621 1.376 . S
C2622 C2623 1.396 . S
C2623 C2622 1.396 . S
C2623 C2624 1.348 . S
C2623 C2641 1.472 . S
C2624 H2594 0.929 . S
C2624 C2623 1.348 . S
C2624 C2625 1.443 . S
C2625 H2592 0.932 . S
C2625 C2620 1.388 . S
C2625 C2624 1.443 . S
C2626 N2606 1.433 . S
C2626 C2627 1.363 . S
C2626 C2631 1.370 . S
C2627 H2595 0.929 . S
C2627 C2626 1.363 . S
C2627 C2628 1.385 . S
C2628 H2596 0.930 . S
C2628 C2627 1.385 . S
C2628 C2629 1.357 . S
C2629 C2628 1.357 . S
C2629 C2630 1.406 . S
C2630 H2597 0.929 . S
C2630 C2629 1.406 . S
C2630 C2631 1.391 . S
C2631 H2598 0.931 . S
C2631 C2626 1.370 . S
C2631 C2630 1.391 . S
C2632 N2606 1.435 . S
C2632 C2633 1.358 . S
C2632 C2637 1.371 . S
C2633 H2599 0.930 . S
C2633 C2632 1.358 . S
C2633 C2634 1.405 . S
C2634 H2600 0.932 . S
C2634 C2633 1.405 . S
C2634 C2635 1.383 . S
C2635 C2634 1.383 . S
C2635 C2636 1.393 . S
C2636 H2601 0.931 . S
C2636 C2635 1.393 . S
C2636 C2637 1.382 . S
C2637 H2602 0.929 . S
C2637 C2632 1.371 . S
C2637 C2636 1.382 . S
C2638 N2606 1.423 . S
C2638 C2639 1.362 . S
C2638 C2643 1.388 . S
C2639 H2603 0.929 . S
C2639 C2638 1.362 . S
C2639 C2640 1.376 . S
C2640 H2604 0.931 . S
C2640 C2639 1.376 . S
C2640 C2641 1.396 . S
C2641 C2623 1.472 . S
C2641 C2640 1.396 . S
C2641 C2642 1.348 . S
C2642 H2605 0.929 . S
C2642 C2641 1.348 . S
C2642 C2643 1.443 . S
C2643 H2607 0.932 . S
C2643 C2638 1.388 . S
C2643 C2642 1.443 . S
H2644 C2671 0.929 . S
N2645 C2670 1.433 . S
N2645 C2676 1.435 . S
N2645 C2682 1.423 . S
H2646 C2672 0.930 . S
H2647 C2675 0.931 . S
H2648 C2674 0.929 . S
H2649 C2677 0.930 . S
H2650 C2678 0.932 . S
H2651 C2681 0.929 . S
H2652 C2680 0.931 . S
H2653 C2683 0.929 . S
H2654 C2687 0.932 . S
H2655 C2684 0.931 . S
H2656 C2686 0.929 . S
H2657 C2689 0.929 . S
H2658 C2690 0.930 . S
H2659 C2692 0.929 . S
H2660 C2693 0.931 . S
H2661 C2695 0.930 . S
H2662 C2696 0.932 . S
H2663 C2698 0.931 . S
H2664 C2699 0.929 . S
H2665 C2701 0.929 . S
H2666 C2702 0.931 . S
H2667 C2704 0.929 . S
N2668 C2688 1.433 . S
N2668 C2694 1.435 . S
N2668 C2700 1.423 . S
H2669 C2705 0.932 . S
C2670 N2645 1.433 . S
C2670 C2671 1.363 . S
C2670 C2675 1.370 . S
C2671 H2644 0.929 . S
C2671 C2670 1.363 . S
C2671 C2672 1.385 . S
C2672 H2646 0.930 . S
C2672 C2671 1.385 . S
C2672 C2673 1.357 . S
C2673 C2672 1.357 . S
C2673 C2674 1.406 . S
C2674 H2648 0.929 . S
C2674 C2673 1.406 . S
C2674 C2675 1.391 . S
C2675 H2647 0.931 . S
C2675 C2670 1.370 . S
C2675 C2674 1.391 . S
C2676 N2645 1.435 . S
C2676 C2677 1.358 . S
C2676 C2681 1.371 . S
C2677 H2649 0.930 . S
C2677 C2676 1.358 . S
C2677 C2678 1.405 . S
C2678 H2650 0.932 . S
C2678 C2677 1.405 . S
C2678 C2679 1.383 . S
C2679 C2678 1.383 . S
C2679 C2680 1.393 . S
C2680 H2652 0.931 . S
C2680 C2679 1.393 . S
C2680 C2681 1.382 . S
C2681 H2651 0.929 . S
C2681 C2676 1.371 . S
C2681 C2680 1.382 . S
C2682 N2645 1.423 . S
C2682 C2683 1.362 . S
C2682 C2687 1.388 . S
C2683 H2653 0.929 . S
C2683 C2682 1.362 . S
C2683 C2684 1.376 . S
C2684 H2655 0.931 . S
C2684 C2683 1.376 . S
C2684 C2685 1.396 . S
C2685 C2684 1.396 . S
C2685 C2686 1.348 . S
C2685 C2703 1.472 . S
C2686 H2656 0.929 . S
C2686 C2685 1.348 . S
C2686 C2687 1.443 . S
C2687 H2654 0.932 . S
C2687 C2682 1.388 . S
C2687 C2686 1.443 . S
C2688 N2668 1.433 . S
C2688 C2689 1.363 . S
C2688 C2693 1.370 . S
C2689 H2657 0.929 . S
C2689 C2688 1.363 . S
C2689 C2690 1.385 . S
C2690 H2658 0.930 . S
C2690 C2689 1.385 . S
C2690 C2691 1.357 . S
C2691 C2690 1.357 . S
C2691 C2692 1.406 . S
C2692 H2659 0.929 . S
C2692 C2691 1.406 . S
C2692 C2693 1.391 . S
C2693 H2660 0.931 . S
C2693 C2688 1.370 . S
C2693 C2692 1.391 . S
C2694 N2668 1.435 . S
C2694 C2695 1.358 . S
C2694 C2699 1.371 . S
C2695 H2661 0.930 . S
C2695 C2694 1.358 . S
C2695 C2696 1.405 . S
C2696 H2662 0.932 . S
C2696 C2695 1.405 . S
C2696 C2697 1.383 . S
C2697 C2696 1.383 . S
C2697 C2698 1.393 . S
C2698 H2663 0.931 . S
C2698 C2697 1.393 . S
C2698 C2699 1.382 . S
C2699 H2664 0.929 . S
C2699 C2694 1.371 . S
C2699 C2698 1.382 . S
C2700 N2668 1.423 . S
C2700 C2701 1.362 . S
C2700 C2705 1.388 . S
C2701 H2665 0.929 . S
C2701 C2700 1.362 . S
C2701 C2702 1.376 . S
C2702 H2666 0.931 . S
C2702 C2701 1.376 . S
C2702 C2703 1.396 . S
C2703 C2685 1.472 . S
C2703 C2702 1.396 . S
C2703 C2704 1.348 . S
C2704 H2667 0.929 . S
C2704 C2703 1.348 . S
C2704 C2705 1.443 . S
C2705 H2669 0.932 . S
C2705 C2700 1.388 . S
C2705 C2704 1.443 . S
H2706 C2733 0.929 . S
N2707 C2732 1.433 . S
N2707 C2738 1.435 . S
N2707 C2744 1.423 . S
H2708 C2734 0.930 . S
H2709 C2737 0.931 . S
H2710 C2736 0.929 . S
H2711 C2739 0.930 . S
H2712 C2740 0.932 . S
H2713 C2743 0.929 . S
H2714 C2742 0.931 . S
H2715 C2745 0.929 . S
H2716 C2749 0.932 . S
H2717 C2746 0.931 . S
H2718 C2748 0.929 . S
H2719 C2751 0.929 . S
H2720 C2752 0.930 . S
H2721 C2754 0.929 . S
H2722 C2755 0.931 . S
H2723 C2757 0.930 . S
H2724 C2758 0.932 . S
H2725 C2760 0.931 . S
H2726 C2761 0.929 . S
H2727 C2763 0.929 . S
H2728 C2764 0.931 . S
H2729 C2766 0.929 . S
N2730 C2750 1.433 . S
N2730 C2756 1.435 . S
N2730 C2762 1.423 . S
H2731 C2767 0.932 . S
C2732 N2707 1.433 . S
C2732 C2733 1.363 . S
C2732 C2737 1.370 . S
C2733 H2706 0.929 . S
C2733 C2732 1.363 . S
C2733 C2734 1.385 . S
C2734 H2708 0.930 . S
C2734 C2733 1.385 . S
C2734 C2735 1.357 . S
C2735 C2734 1.357 . S
C2735 C2736 1.406 . S
C2736 H2710 0.929 . S
C2736 C2735 1.406 . S
C2736 C2737 1.391 . S
C2737 H2709 0.931 . S
C2737 C2732 1.370 . S
C2737 C2736 1.391 . S
C2738 N2707 1.435 . S
C2738 C2739 1.358 . S
C2738 C2743 1.371 . S
C2739 H2711 0.930 . S
C2739 C2738 1.358 . S
C2739 C2740 1.405 . S
C2740 H2712 0.932 . S
C2740 C2739 1.405 . S
C2740 C2741 1.383 . S
C2741 C2740 1.383 . S
C2741 C2742 1.393 . S
C2742 H2714 0.931 . S
C2742 C2741 1.393 . S
C2742 C2743 1.382 . S
C2743 H2713 0.929 . S
C2743 C2738 1.371 . S
C2743 C2742 1.382 . S
C2744 N2707 1.423 . S
C2744 C2745 1.362 . S
C2744 C2749 1.388 . S
C2745 H2715 0.929 . S
C2745 C2744 1.362 . S
C2745 C2746 1.376 . S
C2746 H2717 0.931 . S
C2746 C2745 1.376 . S
C2746 C2747 1.396 . S
C2747 C2746 1.396 . S
C2747 C2748 1.348 . S
C2747 C2765 1.472 . S
C2748 H2718 0.929 . S
C2748 C2747 1.348 . S
C2748 C2749 1.443 . S
C2749 H2716 0.932 . S
C2749 C2744 1.388 . S
C2749 C2748 1.443 . S
C2750 N2730 1.433 . S
C2750 C2751 1.363 . S
C2750 C2755 1.370 . S
C2751 H2719 0.929 . S
C2751 C2750 1.363 . S
C2751 C2752 1.385 . S
C2752 H2720 0.930 . S
C2752 C2751 1.385 . S
C2752 C2753 1.357 . S
C2753 C2752 1.357 . S
C2753 C2754 1.406 . S
C2754 H2721 0.929 . S
C2754 C2753 1.406 . S
C2754 C2755 1.391 . S
C2755 H2722 0.931 . S
C2755 C2750 1.370 . S
C2755 C2754 1.391 . S
C2756 N2730 1.435 . S
C2756 C2757 1.358 . S
C2756 C2761 1.371 . S
C2757 H2723 0.930 . S
C2757 C2756 1.358 . S
C2757 C2758 1.405 . S
C2758 H2724 0.932 . S
C2758 C2757 1.405 . S
C2758 C2759 1.383 . S
C2759 C2758 1.383 . S
C2759 C2760 1.393 . S
C2760 H2725 0.931 . S
C2760 C2759 1.393 . S
C2760 C2761 1.382 . S
C2761 H2726 0.929 . S
C2761 C2756 1.371 . S
C2761 C2760 1.382 . S
C2762 N2730 1.423 . S
C2762 C2763 1.362 . S
C2762 C2767 1.388 . S
C2763 H2727 0.929 . S
C2763 C2762 1.362 . S
C2763 C2764 1.376 . S
C2764 H2728 0.931 . S
C2764 C2763 1.376 . S
C2764 C2765 1.396 . S
C2765 C2747 1.472 . S
C2765 C2764 1.396 . S
C2765 C2766 1.348 . S
C2766 H2729 0.929 . S
C2766 C2765 1.348 . S
C2766 C2767 1.443 . S
C2767 H2731 0.932 . S
C2767 C2762 1.388 . S
C2767 C2766 1.443 . S
C1327 C21 1.359 . S
C1389 C42 1.514 . S
C82 C1451 1.342 . S
C1519 C135 1.424 . S
C175 C1501 1.414 . S
C221 C1309 1.631 . S
C255 C1371 1.572 . S
C1433 C301 1.508 . S
C1581 C15 1.570 . S
C55 C1619 1.415 . S
C101 C1705 1.674 . S
C1749 C141 1.874 . S
C162 C1811 1.380 . S
C1873 C215 1.692 . S
C261 C1929 1.491 . S
C1991 C282 1.412 . S
C2 C1767 1.661 . S
C181 C1891 1.674 . S
C1947 C202 1.347 . S
C242 C2009 1.412 . S
C1829 C295 1.459 . S
C1637 C95 1.540 . S
C122 C1687 1.736 . S
C1563 C61 1.568 . S
C2071 C341 1.554 . S
C362 C2121 1.526 . S
C402 C2177 1.537 . S
C2263 C455 1.659 . S
C495 C2245 1.447 . S
C541 C2053 1.500 . S
C575 C2139 1.547 . S
C621 C2195 1.636 . S
C1805 C335 1.469 . S
C375 C2325 1.433 . S
C1935 C421 1.617 . S
C461 C2387 1.838 . S
C482 C1575 1.294 . S
C2431 C535 1.561 . S
C581 C1699 1.605 . S
C2487 C602 1.515 . S
C322 C2369 1.875 . S
C2449 C501 1.486 . S
C522 C1681 1.354 . S
C2505 C562 1.581 . S
C615 C1557 1.792 . S
C415 C2307 1.490 . S
C442 C1953 1.607 . S
C381 C1823 1.601 . S
C661 C2183 1.456 . S
C2257 C682 1.387 . S
C722 C2077 1.438 . S
C775 C2115 1.522 . S
C815 C2133 1.565 . S
C861 C2201 1.702 . S
C2239 C895 1.493 . S
C941 C2059 1.662 . S
C2555 C655 1.542 . S
C695 C1867 1.509 . S
C2617 C741 1.588 . S
C781 C1997 1.515 . S
C802 C2673 1.297 . S
C855 C1625 1.468 . S
C2753 C901 1.731 . S
C922 C1743 1.581 . S
C2015 C642 1.432 . S
C1643 C821 1.540 . S
C842 C2735 1.567 . S
C882 C1761 1.742 . S
C2691 C935 1.541 . S
C1885 C735 1.624 . S
C2635 C762 1.496 . S
C2573 C701 1.552 . S
C981 C1457 1.486 . S
C1002 C1513 1.514 . S
C1333 C1042 1.420 . S
C1395 C1095 1.540 . S
C1377 C1135 1.610 . S
C1439 C1181 1.674 . S
C1495 C1215 1.415 . S
C1261 C1315 1.610 . S
C975 C2679 1.619 . S
C2425 C1015 1.426 . S
C2759 C1061 1.667 . S
C2493 C1101 1.561 . S
C1122 C2549 1.361 . S
C2319 C1175 1.481 . S
C2611 C1221 1.492 . S
C1242 C2381 1.419 . S
C2511 C962 1.447 . S
C2301 C1141 1.326 . S
C2629 C1162 1.434 . S
C1202 C2363 1.662 . S
C1255 C2567 1.490 . S
C1055 C2443 1.335 . S
C1082 C2741 1.888 . S
C2697 C1021 1.497 . S
