# Generated by pormake.
# Topology pyr, (3,6)-cn, num edge types: 1
# Building blocks:
#     Node 0, Type 0, BuildingBlock: VETTIZ_charged_linker_0, # of connection points: 3
#     Node 1, Type 0, BuildingBlock: VETTIZ_charged_linker_0, # of connection points: 3
#     Node 2, Type 0, BuildingBlock: VETTIZ_charged_linker_0, # of connection points: 3
#     Node 3, Type 0, BuildingBlock: VETTIZ_charged_linker_0, # of connection points: 3
#     Node 4, Type 0, BuildingBlock: VETTIZ_charged_linker_0, # of connection points: 3
#     Node 5, Type 0, BuildingBlock: VETTIZ_charged_linker_0, # of connection points: 3
#     Node 6, Type 0, BuildingBlock: VETTIZ_charged_linker_0, # of connection points: 3
#     Node 7, Type 0, BuildingBlock: VETTIZ_charged_linker_0, # of connection points: 3
#     Node 8, Type 1, BuildingBlock: PAMTUU_clean_sbu_0, # of connection points: 6
#     Node 9, Type 1, BuildingBlock: PAMTUU_clean_sbu_0, # of connection points: 6
#     Node 10, Type 1, BuildingBlock: PAMTUU_clean_sbu_0, # of connection points: 6
#     Node 11, Type 1, BuildingBlock: PAMTUU_clean_sbu_0, # of connection points: 6
#     Edge 12, Type (0, 1), BuildingBlock: MIFKUJ_clean_linker_0, # of connection points: 2
#     Edge 13, Type (0, 1), BuildingBlock: MIFKUJ_clean_linker_0, # of connection points: 2
#     Edge 14, Type (0, 1), BuildingBlock: MIFKUJ_clean_linker_0, # of connection points: 2
#     Edge 15, Type (0, 1), BuildingBlock: MIFKUJ_clean_linker_0, # of connection points: 2
#     Edge 16, Type (0, 1), BuildingBlock: MIFKUJ_clean_linker_0, # of connection points: 2
#     Edge 17, Type (0, 1), BuildingBlock: MIFKUJ_clean_linker_0, # of connection points: 2
#     Edge 18, Type (0, 1), BuildingBlock: MIFKUJ_clean_linker_0, # of connection points: 2
#     Edge 19, Type (0, 1), BuildingBlock: MIFKUJ_clean_linker_0, # of connection points: 2
#     Edge 20, Type (0, 1), BuildingBlock: MIFKUJ_clean_linker_0, # of connection points: 2
#     Edge 21, Type (0, 1), BuildingBlock: MIFKUJ_clean_linker_0, # of connection points: 2
#     Edge 22, Type (0, 1), BuildingBlock: MIFKUJ_clean_linker_0, # of connection points: 2
#     Edge 23, Type (0, 1), BuildingBlock: MIFKUJ_clean_linker_0, # of connection points: 2
#     Edge 24, Type (0, 1), BuildingBlock: MIFKUJ_clean_linker_0, # of connection points: 2
#     Edge 25, Type (0, 1), BuildingBlock: MIFKUJ_clean_linker_0, # of connection points: 2
#     Edge 26, Type (0, 1), BuildingBlock: MIFKUJ_clean_linker_0, # of connection points: 2
#     Edge 27, Type (0, 1), BuildingBlock: MIFKUJ_clean_linker_0, # of connection points: 2
#     Edge 28, Type (0, 1), BuildingBlock: MIFKUJ_clean_linker_0, # of connection points: 2
#     Edge 29, Type (0, 1), BuildingBlock: MIFKUJ_clean_linker_0, # of connection points: 2
#     Edge 30, Type (0, 1), BuildingBlock: MIFKUJ_clean_linker_0, # of connection points: 2
#     Edge 31, Type (0, 1), BuildingBlock: MIFKUJ_clean_linker_0, # of connection points: 2
#     Edge 32, Type (0, 1), BuildingBlock: MIFKUJ_clean_linker_0, # of connection points: 2
#     Edge 33, Type (0, 1), BuildingBlock: MIFKUJ_clean_linker_0, # of connection points: 2
#     Edge 34, Type (0, 1), BuildingBlock: MIFKUJ_clean_linker_0, # of connection points: 2
#     Edge 35, Type (0, 1), BuildingBlock: MIFKUJ_clean_linker_0, # of connection points: 2
# Relax obj value: 0.064
# Max RMSD: 0.112
# Mean RMSD: 0.048
data_MOF--net-pyr--node1-PAMTUU_clean_sbu_0--node2-VETTIZ_charged_linker_0--edge1-MIFKUJ_clean_linker_0
_symmetry_space_group_name_H-M    P1
_symmetry_Int_Tables_number       1
_symmetry_cell_setting            triclinic
loop_
_symmetry_equiv_pos_as_xyz
'x, y, z'
_cell_length_a     57.768003
_cell_length_b     58.712555
_cell_length_c     57.404654
_cell_angle_alpha  90.196917
_cell_angle_beta   89.079351
_cell_angle_gamma 98.620605
loop_
_atom_site_label
_atom_site_type_symbol
_atom_site_fract_x
_atom_site_fract_y
_atom_site_fract_z
_atom_type_partial_charge
C0 C 0.2628 0.22548 0.26991 0.0
C1 C 0.24432 0.23555 0.27971 0.0
C2 C 0.23886 0.25609 0.27008 0.0
C3 C 0.26811 0.25449 0.23956 0.0
C4 C 0.27437 0.23515 0.24991 0.0
C5 C 0.2933 0.2256 0.23646 0.0
H6 H 0.35293 0.21992 0.13555 0.0
C7 C 0.28174 0.25856 0.21756 0.0
C8 C 0.29664 0.24182 0.21574 0.0
H9 H 0.35794 0.18126 0.19896 0.0
H10 H 0.33213 0.20371 0.21868 0.0
H11 H 0.35888 0.26924 0.16244 0.0
H12 H 0.29839 0.22363 0.13869 0.0
H13 H 0.29522 0.25198 0.13102 0.0
H14 H 0.31946 0.23947 0.11917 0.0
H15 H 0.35119 0.26722 0.13226 0.0
H16 H 0.33906 0.28656 0.15196 0.0
C17 C 0.31545 0.22776 0.25173 0.0
C18 C 0.28357 0.20058 0.22919 0.0
C19 C 0.26251 0.31906 0.16127 0.0
C20 C 0.2696 0.32482 0.13824 0.0
C21 C 0.28681 0.31354 0.12746 0.0
C22 C 0.29655 0.29652 0.13939 0.0
C23 C 0.28875 0.29052 0.16222 0.0
C24 C 0.27218 0.30193 0.17282 0.0
C25 C 0.26506 0.29268 0.19665 0.0
C26 C 0.28047 0.2741 0.19889 0.0
C27 C 0.2942 0.27277 0.17863 0.0
C28 C 0.2714 0.31229 0.2146 0.0
C29 C 0.23864 0.28261 0.19615 0.0
C30 C 0.34875 0.2164 0.15376 0.0
C31 C 0.35712 0.19825 0.16543 0.0
C32 C 0.35117 0.1945 0.1892 0.0
C33 C 0.33628 0.20769 0.20075 0.0
C34 C 0.32721 0.22493 0.18853 0.0
C35 C 0.33411 0.22962 0.1657 0.0
C36 C 0.32383 0.24966 0.15606 0.0
C37 C 0.30917 0.25574 0.17674 0.0
C38 C 0.31083 0.24081 0.19547 0.0
C39 C 0.34417 0.26923 0.15016 0.0
C40 C 0.30849 0.24095 0.13502 0.0
H41 H 0.24532 0.28094 0.24313 0.0
H42 H 0.26763 0.20991 0.27725 0.0
H43 H 0.2656 0.19968 0.22221 0.0
H44 H 0.29396 0.19375 0.21529 0.0
H45 H 0.28263 0.18873 0.24433 0.0
H46 H 0.31539 0.24132 0.26531 0.0
H47 H 0.31673 0.21133 0.2608 0.0
H48 H 0.33175 0.23313 0.24147 0.0
H49 H 0.24884 0.32695 0.16982 0.0
H50 H 0.29247 0.31768 0.10969 0.0
H51 H 0.30938 0.28833 0.1302 0.0
H52 H 0.28807 0.32336 0.20955 0.0
H53 H 0.25754 0.32349 0.21578 0.0
H54 H 0.2745 0.30584 0.23216 0.0
H55 H 0.2338 0.27481 0.17887 0.0
H56 H 0.23366 0.26846 0.20867 0.0
H57 H 0.22754 0.29622 0.19944 0.0
H58 H 0.22468 0.26414 0.27739 0.0
C59 C 0.25071 0.26565 0.25007 0.0
C60 C 0.15908 0.81166 0.66065 0.0
C61 C 0.14873 0.82947 0.67113 0.0
C62 C 0.15387 0.8353 0.69454 0.0
C63 C 0.18012 0.80681 0.69614 0.0
C64 C 0.17467 0.80064 0.67341 0.0
C65 C 0.18806 0.78219 0.66453 0.0
H66 H 0.27421 0.71791 0.68157 0.0
C67 C 0.19758 0.79273 0.70419 0.0
C68 C 0.20211 0.77803 0.68583 0.0
H69 H 0.23515 0.72324 0.61882 0.0
H70 H 0.21026 0.7468 0.63921 0.0
H71 H 0.27884 0.77103 0.69534 0.0
H72 H 0.23129 0.71105 0.71654 0.0
H73 H 0.23333 0.72954 0.74078 0.0
H74 H 0.25914 0.71859 0.73008 0.0
H75 H 0.28708 0.74751 0.71162 0.0
H76 H 0.27641 0.77112 0.72593 0.0
C77 C 0.20394 0.79235 0.64392 0.0
C78 C 0.17031 0.76071 0.65821 0.0
C79 C 0.23716 0.80987 0.78219 0.0
C80 C 0.25457 0.79997 0.79374 0.0
C81 C 0.2613 0.77953 0.78471 0.0
C82 C 0.25228 0.77013 0.76374 0.0
C83 C 0.23639 0.78128 0.75149 0.0
C84 C 0.22823 0.80014 0.76123 0.0
C85 C 0.21022 0.80877 0.74623 0.0
C86 C 0.20988 0.79262 0.72542 0.0
C87 C 0.22566 0.77695 0.72844 0.0
C88 C 0.21944 0.83406 0.73946 0.0
C89 C 0.1865 0.80545 0.75976 0.0
C90 C 0.26025 0.72413 0.67224 0.0
C91 C 0.25687 0.71913 0.64851 0.0
C92 C 0.23814 0.72699 0.63711 0.0
C93 C 0.22389 0.74082 0.64892 0.0
C94 C 0.22852 0.74691 0.67233 0.0
C95 C 0.24608 0.73804 0.68371 0.0
C96 C 0.2489 0.7464 0.70838 0.0
C97 C 0.23053 0.76231 0.70985 0.0
C98 C 0.21872 0.7627 0.68868 0.0
C99 C 0.2741 0.75964 0.71068 0.0
C100 C 0.24305 0.72541 0.72491 0.0
H101 H 0.17284 0.82952 0.72469 0.0
H102 H 0.15536 0.80652 0.6428 0.0
H103 H 0.1555 0.75818 0.67103 0.0
H104 H 0.17797 0.74459 0.65871 0.0
H105 H 0.16288 0.76256 0.6407 0.0
H106 H 0.21083 0.81083 0.64705 0.0
H107 H 0.19408 0.79126 0.6274 0.0
H108 H 0.21967 0.784 0.64144 0.0
H109 H 0.23139 0.82545 0.78869 0.0
H110 H 0.27404 0.77106 0.79361 0.0
H111 H 0.25861 0.75495 0.75749 0.0
H112 H 0.23834 0.83604 0.73454 0.0
H113 H 0.2175 0.8459 0.75426 0.0
H114 H 0.21065 0.84003 0.72423 0.0
H115 H 0.18534 0.79097 0.7724 0.0
H116 H 0.17139 0.80069 0.74821 0.0
H117 H 0.18409 0.82118 0.76975 0.0
H118 H 0.14648 0.84913 0.70301 0.0
C119 C 0.16938 0.82401 0.70709 0.0
C120 C 0.63966 0.28537 0.87535 0.0
C121 C 0.6189 0.27143 0.8681 0.0
C122 C 0.60748 0.27915 0.84857 0.0
C123 C 0.63705 0.31355 0.84442 0.0
C124 C 0.64826 0.30605 0.86345 0.0
C125 C 0.67006 0.3224 0.8693 0.0
H126 H 0.74575 0.42124 0.85096 0.0
C127 C 0.65078 0.336 0.83614 0.0
C128 C 0.67016 0.34109 0.85092 0.0
H129 H 0.74889 0.36818 0.90235 0.0
H130 H 0.71344 0.34664 0.88782 0.0
H131 H 0.6877 0.42052 0.85426 0.0
H132 H 0.73021 0.38507 0.80812 0.0
H133 H 0.70869 0.3958 0.79181 0.0
H134 H 0.73049 0.41566 0.80657 0.0
H135 H 0.70764 0.4355 0.83315 0.0
H136 H 0.67847 0.42271 0.82534 0.0
C137 C 0.66678 0.3318 0.89422 0.0
C138 C 0.69133 0.30931 0.86626 0.0
C139 C 0.62441 0.37949 0.76542 0.0
C140 C 0.63335 0.40063 0.75422 0.0
C141 C 0.65407 0.41324 0.76337 0.0
C142 C 0.66533 0.40545 0.78282 0.0
C143 C 0.65614 0.38455 0.79379 0.0
C144 C 0.63595 0.3719 0.78506 0.0
C145 C 0.62864 0.35012 0.7992 0.0
C146 C 0.64775 0.35166 0.81757 0.0
C147 C 0.66397 0.37204 0.81433 0.0
C148 C 0.60434 0.35136 0.81035 0.0
C149 C 0.62912 0.32918 0.78294 0.0
C150 C 0.73867 0.40505 0.85914 0.0
C151 C 0.75053 0.39651 0.87795 0.0
C152 C 0.74059 0.37518 0.88777 0.0
C153 C 0.71978 0.36264 0.8793 0.0
C154 C 0.7083 0.37113 0.86048 0.0
C155 C 0.71777 0.39197 0.85058 0.0
C156 C 0.70327 0.39769 0.83014 0.0
C157 C 0.68356 0.37705 0.82965 0.0
C158 C 0.68663 0.36161 0.84767 0.0
C159 C 0.6938 0.42038 0.83579 0.0
C160 C 0.71888 0.39882 0.80791 0.0
H161 H 0.60668 0.3046 0.82223 0.0
H162 H 0.64938 0.2802 0.88989 0.0
H163 H 0.6883 0.29619 0.85217 0.0
H164 H 0.70751 0.32066 0.86078 0.0
H165 H 0.69466 0.30021 0.88252 0.0
H166 H 0.64835 0.33461 0.8973 0.0
H167 H 0.67095 0.31949 0.90762 0.0
H168 H 0.67736 0.34877 0.8973 0.0
H169 H 0.60853 0.36921 0.75933 0.0
H170 H 0.66196 0.42921 0.75527 0.0
H171 H 0.68092 0.41608 0.7886 0.0
H172 H 0.6035 0.36896 0.81724 0.0
H173 H 0.59027 0.34729 0.79735 0.0
H174 H 0.6004 0.3397 0.82538 0.0
H175 H 0.64515 0.33168 0.77168 0.0
H176 H 0.62963 0.31303 0.79255 0.0
H177 H 0.61369 0.32678 0.77139 0.0
H178 H 0.59137 0.2693 0.84247 0.0
C179 C 0.61635 0.2999 0.83682 0.0
C180 C 0.89935 0.74648 0.35737 0.0
C181 C 0.89154 0.75732 0.3776 0.0
C182 C 0.8719 0.74559 0.38985 0.0
C183 C 0.8675 0.71424 0.36173 0.0
C184 C 0.88713 0.72496 0.34985 0.0
C185 C 0.89288 0.71063 0.32904 0.0
H186 H 0.86531 0.61349 0.26206 0.0
C187 C 0.85849 0.69231 0.34961 0.0
C188 C 0.87339 0.68984 0.3304 0.0
H189 H 0.92396 0.668 0.25267 0.0
H190 H 0.91119 0.68786 0.28628 0.0
H191 H 0.8697 0.61025 0.31811 0.0
H192 H 0.82656 0.64718 0.27587 0.0
H193 H 0.80927 0.63282 0.29845 0.0
H194 H 0.82275 0.61627 0.27711 0.0
H195 H 0.8453 0.59569 0.30222 0.0
H196 H 0.84157 0.6074 0.33091 0.0
C197 C 0.91728 0.70359 0.33277 0.0
C198 C 0.89129 0.72491 0.30672 0.0
C199 C 0.7833 0.64403 0.38035 0.0
C200 C 0.77041 0.62253 0.37408 0.0
C201 C 0.77907 0.6107 0.35503 0.0
C202 C 0.79954 0.62005 0.34255 0.0
C203 C 0.81202 0.64151 0.34909 0.0
C204 C 0.8039 0.65294 0.36791 0.0
C205 C 0.81982 0.67504 0.3732 0.0
C206 C 0.83857 0.67532 0.35419 0.0
C207 C 0.83393 0.65571 0.33991 0.0
C208 C 0.82991 0.67294 0.39788 0.0
C209 C 0.80554 0.69518 0.37042 0.0
C210 C 0.87563 0.62958 0.26724 0.0
C211 C 0.89578 0.63897 0.25415 0.0
C212 C 0.9082 0.66027 0.2618 0.0
C213 C 0.90085 0.67182 0.28159 0.0
C214 C 0.88076 0.66218 0.29434 0.0
C215 C 0.86853 0.64135 0.28704 0.0
C216 C 0.84757 0.63354 0.30268 0.0
C217 C 0.84915 0.653 0.3205 0.0
C218 C 0.86873 0.66992 0.31564 0.0
C219 C 0.85096 0.61042 0.31404 0.0
C220 C 0.82526 0.63218 0.28787 0.0
H221 H 0.84507 0.71695 0.39226 0.0
H222 H 0.91437 0.75463 0.34741 0.0
H223 H 0.87555 0.73376 0.30753 0.0
H224 H 0.88939 0.71424 0.29083 0.0
H225 H 0.90693 0.73832 0.30462 0.0
H226 H 0.91927 0.69863 0.35124 0.0
H227 H 0.93141 0.71807 0.32857 0.0
H228 H 0.92017 0.6884 0.3224 0.0
H229 H 0.77751 0.65402 0.39457 0.0
H230 H 0.77028 0.59393 0.34983 0.0
H231 H 0.80496 0.61007 0.32832 0.0
H232 H 0.83029 0.65464 0.40264 0.0
H233 H 0.81925 0.68036 0.41139 0.0
H234 H 0.84837 0.68121 0.39909 0.0
H235 H 0.79422 0.69246 0.35485 0.0
H236 H 0.81662 0.71197 0.36756 0.0
H237 H 0.794 0.69654 0.38587 0.0
H238 H 0.86573 0.75257 0.40586 0.0
C239 C 0.85992 0.72449 0.38204 0.0
C240 C 0.73976 0.71142 0.88845 0.0
C241 C 0.75596 0.69813 0.87891 0.0
C242 C 0.76398 0.70237 0.85575 0.0
C243 C 0.74225 0.73439 0.85318 0.0
C244 C 0.73323 0.72946 0.87533 0.0
C245 C 0.71761 0.7464 0.88336 0.0
H246 H 0.679 0.84836 0.86714 0.0
C247 C 0.73419 0.75568 0.84521 0.0
C248 C 0.71952 0.76273 0.86269 0.0
H249 H 0.66149 0.80035 0.92383 0.0
H250 H 0.68395 0.77348 0.90524 0.0
H251 H 0.67025 0.81134 0.82739 0.0
H252 H 0.73348 0.84141 0.86124 0.0
H253 H 0.73929 0.84115 0.83109 0.0
H254 H 0.7173 0.85719 0.84222 0.0
H255 H 0.68501 0.8395 0.81986 0.0
H256 H 0.69247 0.81387 0.80593 0.0
C257 C 0.69243 0.73331 0.88672 0.0
C258 C 0.7282 0.75844 0.90565 0.0
C259 C 0.76917 0.79438 0.77106 0.0
C260 C 0.76701 0.81543 0.76036 0.0
C261 C 0.75082 0.82891 0.76968 0.0
C262 C 0.73766 0.82194 0.7898 0.0
C263 C 0.74078 0.80133 0.80087 0.0
C264 C 0.75594 0.7877 0.79119 0.0
C265 C 0.7571 0.76644 0.80537 0.0
C266 C 0.74022 0.76964 0.82525 0.0
C267 C 0.73097 0.79023 0.82265 0.0
C268 C 0.74813 0.74508 0.79027 0.0
C269 C 0.78263 0.76751 0.81379 0.0
C270 C 0.68021 0.83213 0.87562 0.0
C271 C 0.66887 0.82653 0.8971 0.0
C272 C 0.67022 0.80499 0.90731 0.0
C273 C 0.6833 0.78949 0.89653 0.0
C274 C 0.69505 0.79559 0.8753 0.0
C275 C 0.69297 0.81641 0.86499 0.0
C276 C 0.70575 0.81962 0.84197 0.0
C277 C 0.71611 0.7974 0.84025 0.0
C278 C 0.71012 0.78356 0.86 0.0
C279 C 0.6876 0.82135 0.82268 0.0
C280 C 0.72492 0.84101 0.84398 0.0
H281 H 0.76435 0.72297 0.82559 0.0
H282 H 0.73297 0.70839 0.90604 0.0
H283 H 0.74751 0.76319 0.90357 0.0
H284 H 0.72157 0.77467 0.90967 0.0
H285 H 0.72478 0.74689 0.921 0.0
H286 H 0.68908 0.71829 0.87472 0.0
H287 H 0.68943 0.72671 0.9048 0.0
H288 H 0.67888 0.74404 0.88248 0.0
H289 H 0.78122 0.78349 0.76415 0.0
H290 H 0.74895 0.8453 0.76189 0.0
H291 H 0.72601 0.83317 0.79628 0.0
H292 H 0.73476 0.74898 0.77774 0.0
H293 H 0.76264 0.73928 0.78002 0.0
H294 H 0.73911 0.73051 0.80072 0.0
H295 H 0.79023 0.78547 0.81844 0.0
H296 H 0.78408 0.75746 0.82975 0.0
H297 H 0.79398 0.76153 0.79996 0.0
H298 H 0.77665 0.69268 0.84795 0.0
C299 C 0.75708 0.72027 0.84283 0.0
C300 C 0.85793 0.21348 0.37204 0.0
C301 C 0.87194 0.19856 0.36154 0.0
C302 C 0.87009 0.1942 0.33744 0.0
C303 C 0.83933 0.21791 0.33504 0.0
C304 C 0.84194 0.22311 0.35844 0.0
C305 C 0.82562 0.23928 0.36672 0.0
H306 H 0.73345 0.29443 0.34481 0.0
C307 C 0.82026 0.22949 0.3262 0.0
C308 C 0.8124 0.2424 0.34457 0.0
H309 H 0.77175 0.29452 0.40887 0.0
H310 H 0.79868 0.2719 0.39042 0.0
H311 H 0.73322 0.24156 0.33338 0.0
H312 H 0.77815 0.30282 0.3107 0.0
H313 H 0.77451 0.28436 0.28648 0.0
H314 H 0.74931 0.29468 0.2994 0.0
H315 H 0.72397 0.26181 0.31351 0.0
H316 H 0.73844 0.23842 0.30345 0.0
C317 C 0.80941 0.22692 0.38601 0.0
C318 C 0.84054 0.26206 0.37464 0.0
C319 C 0.78776 0.20924 0.24576 0.0
C320 C 0.76872 0.21557 0.23367 0.0
C321 C 0.75677 0.23277 0.24319 0.0
C322 C 0.76294 0.24268 0.26487 0.0
C323 C 0.78114 0.23522 0.27734 0.0
C324 C 0.79364 0.21924 0.26748 0.0
C325 C 0.81258 0.21357 0.28319 0.0
C326 C 0.80884 0.22823 0.30441 0.0
C327 C 0.79026 0.24067 0.30093 0.0
C328 C 0.80748 0.18746 0.28872 0.0
C329 C 0.83663 0.22144 0.27109 0.0
C330 C 0.7476 0.28952 0.3549 0.0
C331 C 0.75033 0.29602 0.37839 0.0
C332 C 0.76931 0.28974 0.39074 0.0
C333 C 0.78482 0.2765 0.38003 0.0
C334 C 0.78132 0.26947 0.35672 0.0
C335 C 0.76318 0.27636 0.34449 0.0
C336 C 0.76201 0.26741 0.31993 0.0
C337 C 0.78246 0.25395 0.31936 0.0
C338 C 0.79358 0.25499 0.34101 0.0
C339 C 0.73818 0.25157 0.31716 0.0
C340 C 0.76601 0.28828 0.3031 0.0
H341 H 0.853 0.19949 0.306 0.0
H342 H 0.85928 0.21741 0.39046 0.0
H343 H 0.85712 0.26568 0.36427 0.0
H344 H 0.8317 0.27725 0.37186 0.0
H345 H 0.84526 0.26127 0.39327 0.0
H346 H 0.80344 0.20865 0.38114 0.0
H347 H 0.81874 0.22699 0.40279 0.0
H348 H 0.79326 0.23451 0.38889 0.0
H349 H 0.79755 0.19636 0.23872 0.0
H350 H 0.74195 0.23789 0.23435 0.0
H351 H 0.75279 0.25526 0.27139 0.0
H352 H 0.78852 0.18211 0.29264 0.0
H353 H 0.81226 0.17709 0.27365 0.0
H354 H 0.81667 0.18254 0.30416 0.0
H355 H 0.8358 0.23585 0.25873 0.0
H356 H 0.85031 0.22838 0.28359 0.0
H357 H 0.84261 0.20714 0.26105 0.0
H358 H 0.88064 0.18269 0.32901 0.0
C359 C 0.8539 0.20382 0.32415 0.0
C360 C 0.39215 0.65131 0.26026 0.0
C361 C 0.38392 0.62966 0.27075 0.0
C362 C 0.36412 0.61627 0.26076 0.0
C363 C 0.36118 0.6455 0.2311 0.0
C364 C 0.38074 0.65872 0.24045 0.0
C365 C 0.38786 0.68062 0.22645 0.0
H366 H 0.36474 0.75172 0.13783 0.0
C367 C 0.35319 0.65805 0.21065 0.0
C368 C 0.36895 0.67883 0.20786 0.0
H369 H 0.42504 0.76122 0.18258 0.0
H370 H 0.41006 0.72596 0.2028 0.0
H371 H 0.32682 0.73383 0.17597 0.0
H372 H 0.36717 0.69864 0.12818 0.0
H373 H 0.3388 0.68304 0.12866 0.0
H374 H 0.34326 0.71264 0.11914 0.0
H375 H 0.32021 0.73106 0.14557 0.0
H376 H 0.30795 0.70946 0.16647 0.0
C377 C 0.38692 0.70148 0.24269 0.0
C378 C 0.41236 0.67978 0.21554 0.0
C379 C 0.27966 0.62409 0.16437 0.0
C380 C 0.268 0.63246 0.14525 0.0
C381 C 0.27694 0.6547 0.13683 0.0
C382 C 0.29695 0.66781 0.14625 0.0
C383 C 0.30867 0.65907 0.16472 0.0
C384 C 0.29986 0.63768 0.17379 0.0
C385 C 0.31453 0.63181 0.19406 0.0
C386 C 0.33367 0.65294 0.19525 0.0
C387 C 0.33008 0.66878 0.1778 0.0
C388 C 0.29877 0.6295 0.2162 0.0
C389 C 0.32482 0.60971 0.18775 0.0
C390 C 0.37518 0.74636 0.15167 0.0
C391 C 0.39638 0.76007 0.1582 0.0
C392 C 0.40852 0.75182 0.177 0.0
C393 C 0.39989 0.73096 0.18872 0.0
C394 C 0.37886 0.71754 0.18168 0.0
C395 C 0.36707 0.7254 0.16327 0.0
C396 C 0.34546 0.70884 0.1573 0.0
C397 C 0.34608 0.68967 0.175 0.0
C398 C 0.36557 0.69475 0.18963 0.0
C399 C 0.32389 0.72133 0.16131 0.0
C400 C 0.34856 0.70036 0.13198 0.0
H401 H 0.33787 0.61281 0.23488 0.0
H402 H 0.40746 0.66205 0.26702 0.0
H403 H 0.41388 0.66208 0.20937 0.0
H404 H 0.41591 0.69085 0.20002 0.0
H405 H 0.42633 0.68482 0.22845 0.0
H406 H 0.37029 0.69915 0.25305 0.0
H407 H 0.40168 0.70346 0.25507 0.0
H408 H 0.3874 0.71776 0.23306 0.0
H409 H 0.27349 0.60724 0.17162 0.0
H410 H 0.26829 0.66233 0.12291 0.0
H411 H 0.30254 0.68442 0.13865 0.0
H412 H 0.28744 0.64325 0.21672 0.0
H413 H 0.28715 0.61261 0.21659 0.0
H414 H 0.30882 0.63158 0.23243 0.0
H415 H 0.33079 0.61018 0.16921 0.0
H416 H 0.34043 0.60774 0.19794 0.0
H417 H 0.31151 0.59413 0.19018 0.0
H418 H 0.35709 0.59971 0.26825 0.0
C419 C 0.3528 0.624 0.24132 0.0
C420 C 0.12102 0.27622 0.66937 0.0
C421 C 0.12951 0.26504 0.64973 0.0
C422 C 0.15004 0.27605 0.63842 0.0
C423 C 0.15367 0.30781 0.66609 0.0
C424 C 0.13342 0.29751 0.67727 0.0
C425 C 0.12737 0.31185 0.69794 0.0
H426 H 0.15582 0.40701 0.76754 0.0
C427 C 0.16263 0.32964 0.67842 0.0
C428 C 0.14733 0.33224 0.69725 0.0
H429 H 0.09546 0.35413 0.77409 0.0
H430 H 0.10822 0.33476 0.74001 0.0
H431 H 0.15229 0.41187 0.71175 0.0
H432 H 0.19446 0.37252 0.75253 0.0
H433 H 0.21202 0.38806 0.73075 0.0
H434 H 0.19832 0.40347 0.75292 0.0
H435 H 0.17703 0.42548 0.7278 0.0
H436 H 0.18033 0.4143 0.69881 0.0
C437 C 0.1034 0.31956 0.69346 0.0
C438 C 0.12788 0.29728 0.72024 0.0
C439 C 0.23766 0.37827 0.64791 0.0
C440 C 0.25061 0.39964 0.65442 0.0
C441 C 0.24234 0.41105 0.67396 0.0
C442 C 0.22202 0.40149 0.68657 0.0
C443 C 0.20935 0.38022 0.67969 0.0
C444 C 0.21726 0.36912 0.66053 0.0
C445 C 0.20144 0.34699 0.65517 0.0
C446 C 0.18272 0.34652 0.67421 0.0
C447 C 0.18741 0.36595 0.68877 0.0
C448 C 0.19127 0.34922 0.63057 0.0
C449 C 0.21586 0.32691 0.65779 0.0
C450 C 0.14545 0.39114 0.7618 0.0
C451 C 0.12455 0.38217 0.77388 0.0
C452 C 0.11148 0.36165 0.76526 0.0
C453 C 0.11899 0.3503 0.74542 0.0
C454 C 0.13983 0.35949 0.73358 0.0
C455 C 0.15259 0.37973 0.74175 0.0
C456 C 0.17379 0.38756 0.72643 0.0
C457 C 0.17202 0.36856 0.70807 0.0
C458 C 0.15205 0.35193 0.71232 0.0
C459 C 0.17096 0.41112 0.71567 0.0
C460 C 0.19592 0.38812 0.74133 0.0
H461 H 0.1775 0.30419 0.63683 0.0
H462 H 0.10535 0.26844 0.67861 0.0
H463 H 0.14337 0.28807 0.7199 0.0
H464 H 0.12947 0.30778 0.73625 0.0
H465 H 0.11194 0.28416 0.72176 0.0
H466 H 0.10202 0.32447 0.67489 0.0
H467 H 0.08881 0.30544 0.69744 0.0
H468 H 0.10071 0.33498 0.70358 0.0
H469 H 0.24328 0.36858 0.63336 0.0
H470 H 0.25133 0.42766 0.67941 0.0
H471 H 0.21685 0.41114 0.70117 0.0
H472 H 0.18911 0.36736 0.62683 0.0
H473 H 0.20298 0.34371 0.61681 0.0
H474 H 0.17352 0.3394 0.62871 0.0
H475 H 0.22844 0.33031 0.67232 0.0
H476 H 0.20496 0.31039 0.66235 0.0
H477 H 0.22612 0.32459 0.64166 0.0
H478 H 0.15685 0.26851 0.623 0.0
C479 C 0.16204 0.29708 0.64642 0.0
Tb480 Tb 0.03431 0.01492 0.49485 0.0
Tb481 Tb 0.98772 1.00941 0.52878 0.0
C482 C 0.99293 0.97264 0.48927 0.0
C483 C 0.08486 0.04087 0.45859 0.0
C484 C 0.11086 0.07889 0.43576 0.0
C485 C 0.1169 0.05668 0.43295 0.0
C486 C 0.10395 0.03782 0.44425 0.0
C487 C 0.07919 0.06305 0.46215 0.0
C488 C 0.09213 0.08196 0.45083 0.0
C489 C 0.07019 0.02071 0.46868 0.0
O490 O 0.01529 0.04236 0.48474 0.0
O491 O 0.97869 0.02627 0.49732 0.0
O492 O 1.00564 0.04445 0.53483 0.0
O493 O 0.04274 0.03917 0.52383 0.0
O494 O 0.95122 1.00186 0.53274 0.0
O495 O 0.97306 1.01271 0.56208 0.0
O496 O 0.01377 0.99349 0.54727 0.0
O497 O 0.03685 0.98532 0.51641 0.0
O498 O 0.00946 0.98739 0.47907 0.0
O499 O 0.98485 0.97649 0.51028 0.0
C500 C 0.99249 0.0414 0.48473 0.0
O501 O 0.07094 0.0186 0.49124 0.0
O502 O 0.04881 0.01684 0.46111 0.0
C503 C 0.02842 0.05119 0.53484 0.0
C504 C 0.93916 0.98606 0.56911 0.0
C505 C 0.91364 0.95011 0.59531 0.0
C506 C 0.90524 0.97125 0.59282 0.0
C507 C 0.91791 0.98906 0.57981 0.0
C508 C 0.94773 0.96507 0.5715 0.0
C509 C 0.93508 0.94721 0.58458 0.0
C510 C 0.95199 1.00482 0.55522 0.0
C511 C 0.02979 0.98234 0.53813 0.0
H512 H 0.13149 0.05383 0.42179 0.0
H513 H 0.10855 0.02079 0.44142 0.0
H514 H 0.06442 0.06564 0.4732 0.0
H515 H 0.08694 0.0988 0.45323 0.0
H516 H 0.889 0.97414 0.60119 0.0
H517 H 0.91112 1.0052 0.57811 0.0
H518 H 0.96413 0.9625 0.5632 0.0
H519 H 0.9419 0.93108 0.58605 0.0
Tb520 Tb 0.52609 0.02199 0.03412 0.0
Tb521 Tb 0.48624 1.01228 0.99433 0.0
C522 C 0.53212 0.99109 0.99128 0.0
C523 C 0.57922 0.04682 0.0682 0.0
C524 C 0.621 0.07547 0.08055 0.0
C525 C 0.62052 0.05158 0.07782 0.0
C526 C 0.59981 0.0374 0.07182 0.0
C527 C 0.57993 0.07081 0.0699 0.0
C528 C 0.60056 0.08495 0.07605 0.0
C529 C 0.55686 0.03135 0.06487 0.0
O530 O 0.53096 0.05363 1.01289 0.0
O531 O 0.51243 0.03972 0.97945 0.0
O532 O 0.48046 0.04193 0.01498 0.0
O533 O 0.49271 0.02829 0.04862 0.0
O534 O 0.47605 1.00537 0.95978 0.0
O535 O 0.45081 1.01145 0.98652 0.0
O536 O 0.47499 0.98559 0.02094 0.0
O537 O 0.5085 0.98718 0.04261 0.0
O538 O 0.54213 1.00873 1.00342 0.0
O539 O 0.50931 0.98677 0.98947 0.0
C540 C 0.5263 0.05597 0.99063 0.0
O541 O 0.53802 0.041 0.06356 0.0
O542 O 0.55677 0.01453 0.04995 0.0
C543 C 0.48024 0.04153 0.03769 0.0
C544 C 0.43717 0.98644 0.95614 0.0
C545 C 0.40374 0.95039 0.93964 0.0
C546 C 0.40025 0.97346 0.93732 0.0
C547 C 0.41685 0.9913 0.94548 0.0
C548 C 0.44075 0.96347 0.9587 0.0
C549 C 0.42418 0.94555 0.95038 0.0
C550 C 0.45398 1.00563 0.96489 0.0
C551 C 0.48737 0.97695 0.03702 0.0
H552 H 0.63602 0.04374 0.08083 0.0
H553 H 0.59972 0.01896 0.07067 0.0
H554 H 0.56436 0.07867 0.06729 0.0
H555 H 0.60013 0.1032 0.07831 0.0
H556 H 0.38486 0.97775 0.92883 0.0
H557 H 0.41381 1.00896 0.94344 0.0
H558 H 0.45628 0.95942 0.96714 0.0
H559 H 0.42723 0.92793 0.95254 0.0
Tb560 Tb 0.50803 0.49017 0.49798 0.0
Tb561 Tb 0.50859 0.53821 0.52672 0.0
C562 C 0.48598 0.53205 0.47582 0.0
C563 C 0.5285 0.43838 0.47351 0.0
C564 C 0.56608 0.41372 0.46487 0.0
C565 C 0.54761 0.41282 0.44902 0.0
C566 C 0.52899 0.42501 0.45334 0.0
C567 C 0.5467 0.4392 0.48956 0.0
C568 C 0.56528 0.42689 0.48533 0.0
C569 C 0.50996 0.45277 0.47666 0.0
O570 O 0.54406 0.5076 0.4936 0.0
O571 O 0.54088 0.5444 0.50584 0.0
O572 O 0.53213 0.51975 0.54681 0.0
O573 O 0.52 0.48318 0.53322 0.0
O574 O 0.51238 0.57435 0.52721 0.0
O575 O 0.50362 0.55476 0.55857 0.0
O576 O 0.47884 0.5144 0.54055 0.0
O577 O 0.47178 0.48909 0.51022 0.0
O578 O 0.49558 0.51328 0.47248 0.0
O579 O 0.48613 0.54189 0.49656 0.0
C580 C 0.55259 0.52961 0.49537 0.0
O581 O 0.50136 0.45397 0.49767 0.0
O582 O 0.51423 0.47295 0.46691 0.0
C583 C 0.53106 0.49722 0.5488 0.0
C584 C 0.48514 0.58722 0.55323 0.0
C585 C 0.44549 0.60856 0.56328 0.0
C586 C 0.46384 0.6096 0.5793 0.0
C587 C 0.48349 0.59903 0.57429 0.0
C588 C 0.46694 0.58619 0.53716 0.0
C589 C 0.44738 0.59686 0.54208 0.0
C590 C 0.50513 0.57488 0.54877 0.0
C591 C 0.46521 0.49773 0.52999 0.0
H592 H 0.54784 0.40325 0.43288 0.0
H593 H 0.51525 0.42445 0.44062 0.0
H594 H 0.54674 0.44965 0.50516 0.0
H595 H 0.57906 0.42779 0.49802 0.0
H596 H 0.46281 0.61815 0.59595 0.0
H597 H 0.49723 0.59975 0.58702 0.0
H598 H 0.46774 0.57697 0.52086 0.0
H599 H 0.43377 0.59598 0.52921 0.0
Tb600 Tb 0.00976 0.53452 0.99859 0.0
Tb601 Tb 1.00919 0.48746 0.02699 0.0
C602 C 0.03239 0.49317 0.97746 0.0
C603 C 0.98654 0.58259 0.9728 0.0
C604 C 0.94411 0.59907 0.96464 0.0
C605 C 0.96092 0.59901 0.94666 0.0
C606 C 0.982 0.59086 0.95074 0.0
C607 C 0.96999 0.58311 0.99094 0.0
C608 C 0.94903 0.59145 0.98693 0.0
C609 C 1.00683 0.57058 0.97588 0.0
O610 O 0.9731 0.51796 0.99794 0.0
O611 O 0.97961 0.48093 1.00296 0.0
O612 O 0.98498 0.50576 0.04712 0.0
O613 O 0.99837 0.5422 0.03396 0.0
O614 O 1.00597 0.45138 0.02619 0.0
O615 O 0.0119 0.46996 0.0585 0.0
O616 O 0.0385 0.51126 0.04116 0.0
O617 O 0.04598 0.53664 1.01082 0.0
O618 O 0.01908 0.50896 0.9735 0.0
O619 O 0.03538 0.48664 0.99892 0.0
C620 C 0.96616 0.49567 0.99582 0.0
O621 O 0.01527 0.5707 0.9968 0.0
O622 O 1.00462 0.55014 0.96663 0.0
C623 C 0.98664 0.52831 0.04942 0.0
C624 C 0.03222 0.43874 0.05253 0.0
C625 C 0.07333 0.42085 0.06336 0.0
C626 C 0.05484 0.41987 0.07976 0.0
C627 C 0.03443 0.42872 0.07435 0.0
C628 C 0.05051 0.43939 0.03599 0.0
C629 C 0.07083 0.43042 0.04132 0.0
C630 C 0.01187 0.45031 0.04793 0.0
C631 C 0.05225 0.52814 0.03061 0.0
H632 H 0.95763 0.605 0.92937 0.0
H633 H 0.99442 0.59029 0.93647 0.0
H634 H 0.97288 0.57634 1.00801 0.0
H635 H 0.93628 0.59111 1.00103 0.0
H636 H 0.05624 0.4124 0.09681 0.0
H637 H 0.02058 0.42824 0.08738 0.0
H638 H 0.04939 0.44734 0.01913 0.0
H639 H 0.08489 0.43166 0.02846 0.0
H640 H 0.22566 0.19042 0.28053 0.0
H641 H 0.20033 0.16985 0.31042 0.0
H642 H 0.20355 0.23233 0.35075 0.0
H643 H 0.22912 0.25323 0.3206 0.0
H644 H 0.21087 0.19124 0.37651 0.0
H645 H 0.15557 0.21705 0.32597 0.0
H646 H 0.13814 0.22413 0.28824 0.0
H647 H 0.12592 0.15143 0.27445 0.0
H648 H 0.14362 0.14392 0.31193 0.0
H649 H 0.12519 0.12331 0.45023 0.0
H650 H 0.14502 0.15558 0.42689 0.0
H651 H 0.14486 0.11066 0.36722 0.0
H652 H 0.1243 0.07879 0.39006 0.0
H653 H 0.13245 0.15067 0.3551 0.0
H654 H 0.19388 0.12552 0.40092 0.0
H655 H 0.21277 0.11724 0.43753 0.0
H656 H 0.2144 0.18752 0.45928 0.0
H657 H 0.19525 0.19612 0.42287 0.0
C658 C 0.22116 0.19976 0.29585 0.0
C659 C 0.22945 0.22337 0.29836 0.0
C660 C 0.20656 0.18804 0.3128 0.0
C661 C 0.19998 0.19965 0.33264 0.0
C662 C 0.20843 0.22316 0.33547 0.0
C663 C 0.22291 0.23504 0.31828 0.0
C664 C 0.18436 0.18675 0.35026 0.0
C665 C 0.19346 0.1828 0.37213 0.0
C666 C 0.16186 0.17554 0.34428 0.0
C667 C 0.15105 0.17994 0.32174 0.0
C668 C 0.14932 0.20258 0.31482 0.0
C669 C 0.13937 0.20667 0.29349 0.0
C670 C 0.13096 0.18824 0.27895 0.0
C671 C 0.13245 0.16569 0.28574 0.0
C672 C 0.14241 0.1615 0.30705 0.0
C673 C 0.12921 0.12043 0.43208 0.0
C674 C 0.12331 0.09849 0.42203 0.0
C675 C 0.14068 0.13881 0.41883 0.0
C676 C 0.14656 0.13547 0.39536 0.0
C677 C 0.14049 0.11363 0.38529 0.0
C678 C 0.12898 0.09535 0.39846 0.0
C679 C 0.15928 0.15443 0.38106 0.0
C680 C 0.1496 0.15953 0.35978 0.0
C681 C 0.18132 0.16653 0.38753 0.0
C682 C 0.19288 0.16139 0.40934 0.0
C683 C 0.1981 0.13915 0.4136 0.0
C684 C 0.20888 0.13441 0.43429 0.0
C685 C 0.21471 0.15182 0.45076 0.0
C686 C 0.20983 0.17403 0.44653 0.0
C687 C 0.19902 0.17886 0.42587 0.0
H688 H 0.22306 0.14812 0.46677 0.0
H689 H 0.12326 0.19145 0.26244 0.0
H690 H 0.23652 0.82315 0.82994 0.0
H691 H 0.25841 0.84568 0.86064 0.0
H692 H 0.3227 0.82611 0.83364 0.0
H693 H 0.30124 0.80411 0.80279 0.0
H694 H 0.32076 0.82527 0.88156 0.0
H695 H 0.30742 0.87642 0.81861 0.0
H696 H 0.28276 0.89445 0.79163 0.0
H697 H 0.2474 0.92127 0.84961 0.0
H698 H 0.27165 0.90309 0.87695 0.0
H699 H 0.41201 0.91326 0.91374 0.0
H700 H 0.38318 0.88449 0.89513 0.0
H701 H 0.32725 0.91649 0.9255 0.0
H702 H 0.35607 0.94546 0.94399 0.0
H703 H 0.32049 0.90972 0.88078 0.0
H704 H 0.33808 0.86305 0.94385 0.0
H705 H 0.36313 0.84524 0.97057 0.0
H706 H 0.39061 0.81005 0.9131 0.0
H707 H 0.36597 0.82792 0.88597 0.0
C708 C 0.25531 0.8236 0.83059 0.0
C709 C 0.2671 0.81183 0.81384 0.0
C710 C 0.26776 0.83637 0.8482 0.0
C711 C 0.29218 0.83763 0.84931 0.0
C712 C 0.30384 0.82522 0.8332 0.0
C713 C 0.29148 0.81256 0.81559 0.0
C714 C 0.30602 0.8531 0.8661 0.0
C715 C 0.32079 0.84375 0.88142 0.0
C716 C 0.30559 0.87712 0.86623 0.0
C717 C 0.29113 0.88817 0.84981 0.0
C718 C 0.29425 0.88601 0.8256 0.0
C719 C 0.28038 0.89628 0.81025 0.0
C720 C 0.26347 0.90894 0.8189 0.0
C721 C 0.26047 0.91142 0.84294 0.0
C722 C 0.27427 0.90114 0.85837 0.0
C723 C 0.39357 0.91389 0.91681 0.0
C724 C 0.38629 0.93165 0.93024 0.0
C725 C 0.37709 0.89741 0.9062 0.0
C726 C 0.35302 0.8982 0.90908 0.0
C727 C 0.34572 0.91556 0.92302 0.0
C728 C 0.36219 0.93212 0.93351 0.0
C729 C 0.33562 0.88199 0.89611 0.0
C730 C 0.3202 0.89121 0.88139 0.0
C731 C 0.33548 0.85786 0.89657 0.0
C732 C 0.35027 0.84697 0.91284 0.0
C733 C 0.34958 0.85165 0.93688 0.0
C734 C 0.3637 0.84151 0.9521 0.0
C735 C 0.37849 0.82655 0.94353 0.0
C736 C 0.37915 0.82165 0.91972 0.0
C737 C 0.36509 0.83175 0.90441 0.0
H738 H 0.3894 0.81873 0.95535 0.0
H739 H 0.25275 0.91688 0.80699 0.0
H740 H 0.63025 0.44594 0.74265 0.0
H741 H 0.6134 0.46111 0.70842 0.0
H742 H 0.59172 0.39206 0.68351 0.0
H743 H 0.60941 0.37666 0.71755 0.0
H744 H 0.60747 0.41796 0.64731 0.0
H745 H 0.5523 0.4274 0.7081 0.0
H746 H 0.53873 0.4399 0.74636 0.0
H747 H 0.56386 0.51042 0.72886 0.0
H748 H 0.57786 0.49831 0.6906 0.0
H749 H 0.53259 0.45142 0.55905 0.0
H750 H 0.54893 0.43487 0.593 0.0
H751 H 0.57105 0.50301 0.62016 0.0
H752 H 0.55427 0.51968 0.58636 0.0
H753 H 0.55452 0.47674 0.65511 0.0
H754 H 0.60999 0.46697 0.59422 0.0
H755 H 0.6227 0.45426 0.55571 0.0
H756 H 0.59636 0.38402 0.57327 0.0
H757 H 0.5832 0.39635 0.61178 0.0
C758 C 0.62211 0.43378 0.72992 0.0
C759 C 0.62154 0.40984 0.73329 0.0
C760 C 0.6121 0.44261 0.71024 0.0
C761 C 0.60079 0.42795 0.69303 0.0
C762 C 0.60016 0.40401 0.69626 0.0
C763 C 0.61018 0.39513 0.71605 0.0
C764 C 0.58994 0.43764 0.6718 0.0
C765 C 0.59562 0.43055 0.64918 0.0
C766 C 0.57474 0.45457 0.6736 0.0
C767 C 0.56633 0.46192 0.69657 0.0
C768 C 0.55509 0.44556 0.71248 0.0
C769 C 0.5473 0.45257 0.73416 0.0
C770 C 0.55049 0.47593 0.74006 0.0
C771 C 0.56143 0.49233 0.72427 0.0
C772 C 0.56928 0.4854 0.70258 0.0
C773 C 0.541 0.46302 0.57213 0.0
C774 C 0.54204 0.48709 0.56954 0.0
C775 C 0.55056 0.45343 0.59169 0.0
C776 C 0.56176 0.46747 0.60946 0.0
C777 C 0.56268 0.49152 0.60698 0.0
C778 C 0.55309 0.50113 0.5874 0.0
C779 C 0.57215 0.45717 0.63062 0.0
C780 C 0.56637 0.46415 0.65324 0.0
C781 C 0.58722 0.44012 0.6288 0.0
C782 C 0.59541 0.43261 0.6058 0.0
C783 C 0.60679 0.44883 0.58982 0.0
C784 C 0.61408 0.44169 0.56799 0.0
C785 C 0.61028 0.41835 0.56202 0.0
C786 C 0.59926 0.40209 0.5779 0.0
C787 C 0.5919 0.40914 0.59974 0.0
H788 H 0.61591 0.41286 0.5451 0.0
H789 H 0.54444 0.48133 0.75685 0.0
H790 H 0.89283 0.59203 0.24549 0.0
H791 H 0.90615 0.57265 0.21115 0.0
H792 H 0.93143 0.63847 0.17985 0.0
H793 H 0.91718 0.65797 0.21362 0.0
H794 H 0.91252 0.61146 0.14723 0.0
H795 H 0.96846 0.60205 0.20603 0.0
H796 H 0.98174 0.59054 0.24427 0.0
H797 H 0.95182 0.52033 0.23107 0.0
H798 H 0.9381 0.53148 0.19286 0.0
H799 H 0.9869 0.57416 0.05963 0.0
H800 H 0.97064 0.59147 0.09367 0.0
H801 H 0.94498 0.52391 0.12085 0.0
H802 H 0.96176 0.50636 0.08685 0.0
H803 H 0.96274 0.55056 0.15545 0.0
H804 H 0.90823 0.5601 0.09558 0.0
H805 H 0.89638 0.57186 0.05688 0.0
H806 H 0.92444 0.64221 0.07181 0.0
H807 H 0.93677 0.63082 0.11049 0.0
C808 C 0.90097 0.60251 0.23127 0.0
C809 C 0.9039 0.6268 0.23279 0.0
C810 C 0.90892 0.5913 0.21158 0.0
C811 C 0.92032 0.6039 0.19271 0.0
C812 C 0.92289 0.62811 0.194 0.0
C813 C 0.91489 0.63934 0.21363 0.0
C814 C 0.92952 0.59202 0.17174 0.0
C815 C 0.92372 0.59834 0.14914 0.0
C816 C 0.94378 0.5744 0.17377 0.0
C817 C 0.95204 0.56764 0.1967 0.0
C818 C 0.96456 0.58418 0.21136 0.0
C819 C 0.97219 0.57772 0.23302 0.0
C820 C 0.96757 0.55473 0.24012 0.0
C821 C 0.95536 0.53814 0.22556 0.0
C822 C 0.94766 0.54452 0.20389 0.0
C823 C 0.97773 0.56284 0.07272 0.0
C824 C 0.97567 0.5387 0.07017 0.0
C825 C 0.96825 0.57287 0.0923 0.0
C826 C 0.9561 0.55918 0.11 0.0
C827 C 0.95413 0.53504 0.1076 0.0
C828 C 0.96368 0.52496 0.08798 0.0
C829 C 0.94583 0.57008 0.13099 0.0
C830 C 0.95144 0.56359 0.15356 0.0
C831 C 0.93145 0.58759 0.12893 0.0
C832 C 0.9236 0.59457 0.10587 0.0
C833 C 0.91198 0.57806 0.09057 0.0
C834 C 0.90518 0.58466 0.06863 0.0
C835 C 0.90971 0.60775 0.06186 0.0
C836 C 0.92096 0.62432 0.07707 0.0
C837 C 0.92784 0.61781 0.09901 0.0
H838 H 0.90448 0.61282 0.04485 0.0
H839 H 0.97349 0.54975 0.25689 0.0
H840 H 0.38999 0.20932 0.13038 0.0
H841 H 0.41152 0.18313 0.1086 0.0
H842 H 0.37878 0.12625 0.15064 0.0
H843 H 0.35618 0.15183 0.17163 0.0
H844 H 0.43074 0.13114 0.14352 0.0
H845 H 0.3574 0.12841 0.10216 0.0
H846 H 0.32751 0.14626 0.08164 0.0
H847 H 0.37924 0.17542 0.03128 0.0
H848 H 0.40952 0.15802 0.05173 0.0
H849 H 0.46086 0.03573 0.08127 0.0
H850 H 0.44035 0.06274 0.10307 0.0
H851 H 0.45247 0.11109 0.04602 0.0
H852 H 0.47157 0.08349 0.0237 0.0
H853 H 0.4118 0.11215 0.06104 0.0
H854 H 0.48511 0.11609 0.09924 0.0
H855 H 0.51734 0.10124 0.11904 0.0
H856 H 0.47015 0.07421 0.17421 0.0
H857 H 0.43755 0.08864 0.15457 0.0
C858 C 0.38713 0.19122 0.13488 0.0
C859 C 0.37127 0.18277 0.15283 0.0
C860 C 0.39961 0.17634 0.12253 0.0
C861 C 0.39669 0.15285 0.12811 0.0
C862 C 0.38135 0.1444 0.14626 0.0
C863 C 0.36857 0.15914 0.15834 0.0
C864 C 0.40911 0.13686 0.1146 0.0
C865 C 0.42654 0.12676 0.12554 0.0
C866 C 0.40402 0.13185 0.091 0.0
C867 C 0.38577 0.14214 0.07862 0.0
C868 C 0.36245 0.13881 0.08684 0.0
C869 C 0.34542 0.1488 0.0752 0.0
C870 C 0.35149 0.16202 0.05521 0.0
C871 C 0.37458 0.16521 0.04679 0.0
C872 C 0.39167 0.15528 0.05839 0.0
C873 C 0.45904 0.05212 0.07344 0.0
C874 C 0.46775 0.05759 0.05087 0.0
C875 C 0.4475 0.06763 0.08594 0.0
C876 C 0.44527 0.08924 0.07643 0.0
C877 C 0.45392 0.09458 0.05378 0.0
C878 C 0.46486 0.07882 0.04104 0.0
C879 C 0.43367 0.10616 0.08987 0.0
C880 C 0.41628 0.1165 0.07896 0.0
C881 C 0.43925 0.11182 0.11336 0.0
C882 C 0.45885 0.10327 0.12532 0.0
C883 C 0.48157 0.10685 0.11552 0.0
C884 C 0.49991 0.09853 0.12673 0.0
C885 C 0.49578 0.08675 0.14785 0.0
C886 C 0.47332 0.08332 0.15784 0.0
C887 C 0.45491 0.09159 0.14669 0.0
H888 H 0.51 0.0803 0.15649 0.0
H889 H 0.33829 0.16974 0.04622 0.0
H890 H 0.15479 0.84341 0.6257 0.0
H891 H 0.13199 0.86769 0.60405 0.0
H892 H 0.08665 0.87127 0.66396 0.0
H893 H 0.10877 0.84602 0.68549 0.0
H894 H 0.06181 0.86782 0.62432 0.0
H895 H 0.13056 0.91491 0.65227 0.0
H896 H 0.17284 0.92615 0.65864 0.0
H897 H 0.18525 0.93088 0.58474 0.0
H898 H 0.14305 0.91934 0.57791 0.0
H899 H 0.01817 0.9686 0.58307 0.0
H900 H 0.03625 0.94157 0.60668 0.0
H901 H 0.0829 0.93152 0.54939 0.0
H902 H 0.06522 0.95853 0.52582 0.0
H903 H 0.10601 0.93919 0.59008 0.0
H904 H 0.03651 0.89102 0.56263 0.0
H905 H 0.99393 0.88117 0.5571 0.0
H906 H 0.98262 0.88003 0.63122 0.0
H907 H 0.02514 0.89018 0.6372 0.0
C908 C 0.13968 0.84891 0.63417 0.0
C909 C 0.13374 0.84285 0.65743 0.0
C910 C 0.1268 0.86302 0.62182 0.0
C911 C 0.10788 0.87166 0.63253 0.0
C912 C 0.10128 0.86493 0.65541 0.0
C913 C 0.11409 0.85068 0.66776 0.0
C914 C 0.09574 0.88849 0.62012 0.0
C915 C 0.07142 0.88356 0.61708 0.0
C916 C 0.10828 0.90898 0.61054 0.0
C917 C 0.13366 0.91606 0.61458 0.0
C918 C 0.14232 0.91819 0.63737 0.0
C919 C 0.16627 0.92463 0.64107 0.0
C920 C 0.18173 0.92917 0.62211 0.0
C921 C 0.17325 0.92733 0.59941 0.0
C922 C 0.14932 0.92086 0.59562 0.0
C923 C 0.03227 0.96063 0.57549 0.0
C924 C 0.04027 0.96579 0.55256 0.0
C925 C 0.0425 0.94511 0.58897 0.0
C926 C 0.06083 0.93445 0.57972 0.0
C927 C 0.0688 0.93958 0.55687 0.0
C928 C 0.0586 0.955 0.5434 0.0
C929 C 0.0722 0.91831 0.59387 0.0
C930 C 0.09639 0.92345 0.59734 0.0
C931 C 0.05949 0.89816 0.60394 0.0
C932 C 0.03399 0.89158 0.60036 0.0
C933 C 0.02494 0.8888 0.57775 0.0
C934 C 1.00082 0.88315 0.57453 0.0
C935 C 0.98558 0.88004 0.59379 0.0
C936 C 0.99445 0.88247 0.61632 0.0
C937 C 0.01856 0.88815 0.61964 0.0
H938 H 0.96691 0.87571 0.59127 0.0
H939 H 0.20026 0.93417 0.62501 0.0
H940 H 0.79023 0.37857 0.88882 0.0
H941 H 0.82555 0.39718 0.90786 0.0
H942 H 0.79801 0.46148 0.90909 0.0
H943 H 0.76264 0.44284 0.88923 0.0
H944 H 0.84306 0.47127 0.90222 0.0
H945 H 0.79788 0.42461 0.95901 0.0
H946 H 0.77507 0.38943 0.97575 0.0
H947 H 0.83539 0.35485 0.97051 0.0
H948 H 0.85849 0.38973 0.95343 0.0
H949 H 0.92997 0.51959 0.98463 0.0
H950 H 0.89314 0.50522 0.96527 0.0
H951 H 0.91365 0.43769 0.96035 0.0
H952 H 0.94991 0.45174 0.98059 0.0
H953 H 0.8702 0.43179 0.97058 0.0
H954 H 0.91498 0.48101 0.91246 0.0
H955 H 0.9364 0.5181 0.89847 0.0
H956 H 0.87491 0.55005 0.90936 0.0
H957 H 0.85317 0.51311 0.9234 0.0
C958 C 0.79161 0.39671 0.89304 0.0
C959 C 0.77323 0.40902 0.88761 0.0
C960 C 0.81194 0.40741 0.90415 0.0
C961 C 0.81456 0.43078 0.91079 0.0
C962 C 0.79665 0.44343 0.9045 0.0
C963 C 0.77633 0.43273 0.89303 0.0
C964 C 0.83571 0.44159 0.92454 0.0
C965 C 0.84877 0.46268 0.91731 0.0
C966 C 0.84363 0.43071 0.94438 0.0
C967 C 0.82985 0.40972 0.95474 0.0
C968 C 0.80624 0.40945 0.96128 0.0
C969 C 0.79327 0.38957 0.97085 0.0
C970 C 0.80376 0.3699 0.97414 0.0
C971 C 0.82728 0.37009 0.96793 0.0
C972 C 0.84032 0.38992 0.95832 0.0
C973 C 0.92665 0.50164 0.97951 0.0
C974 C 0.94318 0.48692 0.98432 0.0
C975 C 0.90551 0.49341 0.96814 0.0
C976 C 0.90038 0.47028 0.96065 0.0
C977 C 0.91682 0.45557 0.96572 0.0
C978 C 0.93775 0.46369 0.97737 0.0
C979 C 0.878 0.46113 0.94789 0.0
C980 C 0.8646 0.44035 0.95541 0.0
C981 C 0.86964 0.4725 0.92856 0.0
C982 C 0.88253 0.49441 0.91927 0.0
C983 C 0.90605 0.49596 0.91191 0.0
C984 C 0.91825 0.51695 0.90394 0.0
C985 C 0.90705 0.53644 0.90309 0.0
C986 C 0.88358 0.53496 0.91005 0.0
C987 C 0.87131 0.514 0.91797 0.0
H988 H 0.91654 0.55267 0.89698 0.0
H989 H 0.79369 0.35453 0.98155 0.0
H990 H 0.7582 0.62877 0.4205 0.0
H991 H 0.72222 0.61358 0.4412 0.0
H992 H 0.69652 0.57655 0.3796 0.0
H993 H 0.73151 0.59338 0.35807 0.0
H994 H 0.6619 0.59078 0.39781 0.0
H995 H 0.71961 0.55104 0.43159 0.0
H996 H 0.75657 0.54684 0.4509 0.0
H997 H 0.73635 0.58473 0.51004 0.0
H998 H 0.69939 0.58941 0.49095 0.0
H999 H 0.5751 0.51046 0.45942 0.0
H1000 H 0.61227 0.5259 0.43996 0.0
H1001 H 0.62087 0.58346 0.48735 0.0
H1002 H 0.5833 0.56855 0.50644 0.0
H1003 H 0.66369 0.55805 0.4772 0.0
H1004 H 0.60608 0.59784 0.44147 0.0
H1005 H 0.56857 0.59931 0.42235 0.0
H1006 H 0.58887 0.5576 0.36617 0.0
H1007 H 0.62649 0.55556 0.38531 0.0
C1008 C 0.74487 0.61773 0.41104 0.0
C1009 C 0.74829 0.61249 0.3873 0.0
C1010 C 0.72425 0.60859 0.4232 0.0
C1011 C 0.7065 0.5933 0.41236 0.0
C1012 C 0.70977 0.58812 0.38867 0.0
C1013 C 0.73018 0.59761 0.37635 0.0
C1014 C 0.68443 0.58312 0.42543 0.0
C1015 C 0.66254 0.58336 0.41502 0.0
C1016 C 0.68467 0.57359 0.44819 0.0
C1017 C 0.70684 0.57076 0.45974 0.0
C1018 C 0.72312 0.55861 0.44864 0.0
C1019 C 0.74406 0.55612 0.45956 0.0
C1020 C 0.74883 0.56556 0.48165 0.0
C1021 C 0.73264 0.57745 0.49291 0.0
C1022 C 0.71169 0.58001 0.48206 0.0
C1023 C 0.58494 0.52633 0.46585 0.0
C1024 C 0.57607 0.53823 0.48455 0.0
C1025 C 0.60622 0.53516 0.45465 0.0
C1026 C 0.61949 0.55586 0.46216 0.0
C1027 C 0.61106 0.56744 0.48125 0.0
C1028 C 0.58949 0.55891 0.49211 0.0
C1029 C 0.64161 0.56582 0.44947 0.0
C1030 C 0.66335 0.56546 0.45995 0.0
C1031 C 0.64131 0.5749 0.42669 0.0
C1032 C 0.61894 0.57632 0.41495 0.0
C1033 C 0.60245 0.5888 0.42515 0.0
C1034 C 0.58118 0.58977 0.41427 0.0
C1035 C 0.57625 0.5785 0.39304 0.0
C1036 C 0.59268 0.56629 0.38263 0.0
C1037 C 0.61399 0.56522 0.39349 0.0
H1038 H 0.55975 0.57926 0.38464 0.0
H1039 H 0.76505 0.56362 0.49008 0.0
H1040 H 0.25882 0.36627 0.15281 0.0
H1041 H 0.2297 0.38726 0.13588 0.0
H1042 H 0.22267 0.34037 0.07758 0.0
H1043 H 0.25168 0.31913 0.09452 0.0
H1044 H 0.2166 0.38821 0.06687 0.0
H1045 H 0.18923 0.32535 0.11966 0.0
H1046 H 0.19093 0.30447 0.15665 0.0
H1047 H 0.17535 0.36351 0.19478 0.0
H1048 H 0.17413 0.38495 0.15801 0.0
H1049 H 0.09886 0.39445 0.03697 0.0
H1050 H 0.13589 0.3817 0.04686 0.0
H1051 H 0.13517 0.41665 0.11309 0.0
H1052 H 0.09796 0.42908 0.10343 0.0
H1053 H 0.14644 0.37571 0.11903 0.0
H1054 H 0.17308 0.43873 0.06718 0.0
H1055 H 0.17339 0.46103 0.03079 0.0
H1056 H 0.1906 0.40332 0.99154 0.0
H1057 H 0.19026 0.38063 0.02771 0.0
C1058 C 0.25153 0.36082 0.13607 0.0
C1059 C 0.25716 0.34085 0.12517 0.0
C1060 C 0.23502 0.37288 0.12638 0.0
C1061 C 0.22384 0.36508 0.10571 0.0
C1062 C 0.23117 0.34661 0.09354 0.0
C1063 C 0.24773 0.33451 0.10325 0.0
C1064 C 0.20202 0.37355 0.09915 0.0
C1065 C 0.20117 0.38537 0.07811 0.0
C1066 C 0.18207 0.37001 0.11406 0.0
C1067 C 0.18181 0.35683 0.13611 0.0
C1068 C 0.18629 0.33392 0.13594 0.0
C1069 C 0.18719 0.32199 0.15686 0.0
C1070 C 0.1833 0.33267 0.17805 0.0
C1071 C 0.1784 0.35527 0.17835 0.0
C1072 C 0.17761 0.36733 0.15748 0.0
C1073 C 0.10668 0.39947 0.05359 0.0
C1074 C 0.09552 0.41271 0.06946 0.0
C1075 C 0.12788 0.39228 0.05918 0.0
C1076 C 0.1385 0.39851 0.08058 0.0
C1077 C 0.12729 0.41161 0.0965 0.0
C1078 C 0.10598 0.41861 0.09101 0.0
C1079 C 0.16089 0.39074 0.08674 0.0
C1080 C 0.16184 0.37879 0.10775 0.0
C1081 C 0.1809 0.39428 0.07183 0.0
C1082 C 0.18141 0.40794 0.0501 0.0
C1083 C 0.17676 0.43077 0.05076 0.0
C1084 C 0.17697 0.44347 0.03019 0.0
C1085 C 0.18189 0.43356 1.00886 0.0
C1086 C 0.18675 0.41096 1.00807 0.0
C1087 C 0.18661 0.39819 0.02861 0.0
H1088 H 0.18201 0.44342 0.99295 0.0
H1089 H 0.18404 0.32342 0.19424 0.0
H1090 H 0.62044 0.26112 0.91521 0.0
H1091 H 0.60544 0.22529 0.93544 0.0
H1092 H 0.57998 0.19481 0.87062 0.0
H1093 H 0.59511 0.23057 0.85017 0.0
H1094 H 0.54804 0.18251 0.90328 0.0
H1095 H 0.63089 0.1813 0.89876 0.0
H1096 H 0.67264 0.19637 0.90428 0.0
H1097 H 0.66103 0.19934 0.97823 0.0
H1098 H 0.61913 0.18458 0.97312 0.0
H1099 H 0.52353 0.06644 0.9439 0.0
H1100 H 0.53928 0.10202 0.92347 0.0
H1101 H 0.5675 0.13143 0.98778 0.0
H1102 H 0.55232 0.09558 1.00819 0.0
H1103 H 0.59808 0.1444 0.95539 0.0
H1104 H 0.51557 0.14614 0.96042 0.0
H1105 H 0.47365 0.13149 0.95545 0.0
H1106 H 0.48426 0.12814 0.88138 0.0
H1107 H 0.52633 0.14249 0.88594 0.0
C1108 C 0.61194 0.2468 0.90504 0.0
C1109 C 0.6093 0.24915 0.88076 0.0
C1110 C 0.60325 0.22611 0.91678 0.0
C1111 C 0.59169 0.20681 0.90474 0.0
C1112 C 0.58873 0.20919 0.88058 0.0
C1113 C 0.5974 0.22989 0.86881 0.0
C1114 C 0.58261 0.18436 0.91724 0.0
C1115 C 0.55917 0.17408 0.91439 0.0
C1116 C 0.59664 0.17326 0.93241 0.0
C1117 C 0.62183 0.18205 0.93553 0.0
C1118 C 0.63721 0.18533 0.91618 0.0
C1119 C 0.6609 0.19379 0.91924 0.0
C1120 C 0.66947 0.19887 0.94158 0.0
C1121 C 0.65436 0.19543 0.96093 0.0
C1122 C 0.63064 0.187 0.95796 0.0
C1123 C 0.53309 0.08042 0.9538 0.0
C1124 C 0.53644 0.07785 0.9779 0.0
C1125 C 0.54203 0.10102 0.94202 0.0
C1126 C 0.55439 0.12003 0.95392 0.0
C1127 C 0.55807 0.11734 0.97793 0.0
C1128 C 0.54926 0.09667 0.9897 0.0
C1129 C 0.56349 0.14251 0.94143 0.0
C1130 C 0.58693 0.15281 0.94428 0.0
C1131 C 0.54943 0.1537 0.92636 0.0
C1132 C 0.52414 0.14517 0.92355 0.0
C1133 C 0.50899 0.14213 0.94308 0.0
C1134 C 0.4852 0.1339 0.94034 0.0
C1135 C 0.47631 0.12883 0.91812 0.0
C1136 C 0.49118 0.13204 0.89859 0.0
C1137 C 0.515 0.14024 0.90124 0.0
H1138 H 0.45789 0.12247 0.91603 0.0
H1139 H 0.68782 0.20541 0.94391 0.0
H1140 H 0.87113 0.79121 0.3999 0.0
H1141 H 0.88959 0.82671 0.41749 0.0
H1142 H 0.95696 0.81391 0.39172 0.0
H1143 H 0.93864 0.77693 0.37553 0.0
H1144 H 0.96359 0.83108 0.43244 0.0
H1145 H 0.92397 0.85664 0.36785 0.0
H1146 H 0.8912 0.85936 0.34151 0.0
H1147 H 0.85213 0.88445 0.39781 0.0
H1148 H 0.88455 0.8816 0.42457 0.0
H1149 H 0.01333 0.95067 0.45365 0.0
H1150 H 0.99771 0.9147 0.43366 0.0
H1151 H 0.93491 0.90926 0.47601 0.0
H1152 H 0.95068 0.94483 0.49655 0.0
H1153 H 0.92812 0.90254 0.42496 0.0
H1154 H 0.96977 0.87566 0.48923 0.0
H1155 H 1.00455 0.8747 0.51334 0.0
H1156 H 0.04239 0.85416 0.4538 0.0
H1157 H 1.00793 0.85538 0.42922 0.0
C1158 C 0.88995 0.79553 0.39812 0.0
C1159 C 0.90324 0.78058 0.38637 0.0
C1160 C 0.90054 0.81636 0.40794 0.0
C1161 C 0.92481 0.82364 0.40577 0.0
C1162 C 0.93821 0.80899 0.39374 0.0
C1163 C 0.92761 0.78782 0.38418 0.0
C1164 C 0.93595 0.84619 0.4165 0.0
C1165 C 0.95595 0.84672 0.43037 0.0
C1166 C 0.92617 0.86692 0.4143 0.0
C1167 C 0.90663 0.86872 0.39826 0.0
C1168 C 0.90833 0.86259 0.37465 0.0
C1169 C 0.88982 0.86418 0.35964 0.0
C1170 C 0.86957 0.87202 0.36799 0.0
C1171 C 0.86782 0.87836 0.39136 0.0
C1172 C 0.88627 0.87679 0.40646 0.0
C1173 C 0.99619 0.94185 0.45875 0.0
C1174 C 0.98332 0.95079 0.47679 0.0
C1175 C 0.98729 0.92119 0.44731 0.0
C1176 C 0.96507 0.90912 0.45325 0.0
C1177 C 0.95206 0.91817 0.47102 0.0
C1178 C 0.96117 0.93853 0.48283 0.0
C1179 C 0.95537 0.88716 0.44094 0.0
C1180 C 0.93571 0.88683 0.4268 0.0
C1181 C 0.96572 0.86681 0.44253 0.0
C1182 C 0.98636 0.86587 0.45733 0.0
C1183 C 0.98557 0.87115 0.48122 0.0
C1184 C 1.00521 0.87052 0.49499 0.0
C1185 C 0.02568 0.86443 0.48509 0.0
C1186 C 0.02653 0.8589 0.46143 0.0
C1187 C 1.00695 0.85955 0.44757 0.0
H1188 H 0.04087 0.86395 0.49578 0.0
H1189 H 0.85526 0.87323 0.35634 0.0
H1190 H 0.24846 0.68292 0.61774 0.0
H1191 H 0.27775 0.66287 0.598 0.0
H1192 H 0.33309 0.70895 0.63063 0.0
H1193 H 0.30417 0.72901 0.65003 0.0
H1194 H 0.34236 0.70221 0.58447 0.0
H1195 H 0.31508 0.6562 0.65254 0.0
H1196 H 0.28524 0.6328 0.67715 0.0
H1197 H 0.2685 0.58539 0.62064 0.0
H1198 H 0.29803 0.60873 0.59556 0.0
H1199 H 0.44345 0.64972 0.58529 0.0
H1200 H 0.40875 0.66707 0.59506 0.0
H1201 H 0.36504 0.61003 0.56269 0.0
H1202 H 0.39963 0.59194 0.55389 0.0
H1203 H 0.34607 0.62029 0.60257 0.0
H1204 H 0.37661 0.66328 0.53592 0.0
H1205 H 0.40661 0.68625 0.51113 0.0
H1206 H 0.41683 0.73894 0.5636 0.0
H1207 H 0.38713 0.71615 0.58886 0.0
C1208 C 0.26689 0.68881 0.62049 0.0
C1209 C 0.27407 0.70732 0.63561 0.0
C1210 C 0.28356 0.67732 0.60932 0.0
C1211 C 0.30757 0.68434 0.61301 0.0
C1212 C 0.31467 0.70323 0.62756 0.0
C1213 C 0.29812 0.71455 0.63878 0.0
C1214 C 0.3256 0.67188 0.60241 0.0
C1215 C 0.34323 0.68431 0.58844 0.0
C1216 C 0.3263 0.64834 0.60703 0.0
C1217 C 0.30852 0.63438 0.62208 0.0
C1218 C 0.30487 0.64092 0.64529 0.0
C1219 C 0.28805 0.62764 0.65934 0.0
C1220 C 0.27492 0.60767 0.65044 0.0
C1221 C 0.27863 0.6009 0.62748 0.0
C1222 C 0.2954 0.61415 0.61335 0.0
C1223 C 0.42646 0.64073 0.58041 0.0
C1224 C 0.42438 0.61944 0.56875 0.0
C1225 C 0.40663 0.65083 0.58573 0.0
C1226 C 0.3843 0.64006 0.57923 0.0
C1227 C 0.3821 0.61874 0.56772 0.0
C1228 C 0.40193 0.60853 0.56252 0.0
C1229 C 0.36327 0.65081 0.58513 0.0
C1230 C 0.34504 0.63806 0.59817 0.0
C1231 C 0.36195 0.67405 0.57955 0.0
C1232 C 0.37973 0.68792 0.56435 0.0
C1233 C 0.38536 0.6797 0.54224 0.0
C1234 C 0.4023 0.6927 0.52809 0.0
C1235 C 0.41365 0.71402 0.5358 0.0
C1236 C 0.40803 0.72242 0.55765 0.0
C1237 C 0.39112 0.70948 0.57188 0.0
H1238 H 0.42676 0.72405 0.52482 0.0
H1239 H 0.26192 0.5974 0.66135 0.0
H1240 H 0.81387 0.81414 0.75567 0.0
H1241 H 0.84044 0.83159 0.72496 0.0
H1242 H 0.78247 0.85459 0.69021 0.0
H1243 H 0.75562 0.83665 0.72062 0.0
H1244 H 0.81391 0.83867 0.6593 0.0
H1245 H 0.81543 0.89065 0.72483 0.0
H1246 H 0.82025 0.90175 0.76613 0.0
H1247 H 0.89102 0.88748 0.76365 0.0
H1248 H 0.88648 0.87597 0.72238 0.0
H1249 H 0.86642 0.93598 0.59546 0.0
H1250 H 0.84371 0.9077 0.62113 0.0
H1251 H 0.90742 0.89325 0.65227 0.0
H1252 H 0.93028 0.92211 0.62703 0.0
H1253 H 0.87585 0.9013 0.68467 0.0
H1254 H 0.87574 0.85355 0.6175 0.0
H1255 H 0.87083 0.84306 0.57606 0.0
H1256 H 0.79787 0.84956 0.58113 0.0
H1257 H 0.8024 0.86043 0.62253 0.0
C1258 C 0.80668 0.82247 0.74123 0.0
C1259 C 0.78266 0.82414 0.74061 0.0
C1260 C 0.82191 0.83256 0.7238 0.0
C1261 C 0.81343 0.84458 0.7055 0.0
C1262 C 0.78934 0.84541 0.70424 0.0
C1263 C 0.77407 0.83535 0.72171 0.0
C1264 C 0.82983 0.85762 0.68855 0.0
C1265 C 0.82738 0.85246 0.66476 0.0
C1266 C 0.84775 0.8752 0.69583 0.0
C1267 C 0.85052 0.88219 0.72061 0.0
C1268 C 0.83195 0.88969 0.73315 0.0
C1269 C 0.83464 0.89609 0.75654 0.0
C1270 C 0.8559 0.89525 0.76753 0.0
C1271 C 0.87454 0.88808 0.75513 0.0
C1272 C 0.87192 0.88162 0.73174 0.0
C1273 C 0.87561 0.92675 0.60773 0.0
C1274 C 0.90012 0.93139 0.60936 0.0
C1275 C 0.86263 0.91039 0.6222 0.0
C1276 C 0.87389 0.89823 0.63846 0.0
C1277 C 0.89841 0.9024 0.63975 0.0
C1278 C 0.91144 0.91878 0.62525 0.0
C1279 C 0.85987 0.88255 0.65528 0.0
C1280 C 0.86268 0.88726 0.67912 0.0
C1281 C 0.84231 0.8646 0.64799 0.0
C1282 C 0.83946 0.85797 0.6231 0.0
C1283 C 0.85868 0.85292 0.60974 0.0
C1284 C 0.85596 0.84687 0.58626 0.0
C1285 C 0.83407 0.84569 0.57596 0.0
C1286 C 0.81483 0.8505 0.58913 0.0
C1287 C 0.81746 0.85657 0.61262 0.0
H1288 H 0.832 0.841 0.55778 0.0
H1289 H 0.85796 0.90023 0.78564 0.0
H1290 H 0.76357 0.16926 0.22593 0.0
H1291 H 0.74462 0.14791 0.19322 0.0
H1292 H 0.73437 0.2117 0.16067 0.0
H1293 H 0.75334 0.23326 0.19355 0.0
H1294 H 0.69483 0.18293 0.1624 0.0
H1295 H 0.77245 0.17737 0.13687 0.0
H1296 H 0.81316 0.16993 0.14011 0.0
H1297 H 0.78854 0.09906 0.15658 0.0
H1298 H 0.74766 0.10614 0.15377 0.0
H1299 H 0.63919 0.11981 0.06815 0.0
H1300 H 0.66994 0.14566 0.08789 0.0
H1301 H 0.68117 0.0905 0.13376 0.0
H1302 H 0.65013 0.06474 0.11465 0.0
H1303 H 0.72299 0.11838 0.11987 0.0
H1304 H 0.6462 0.12599 0.15138 0.0
H1305 H 0.60535 0.13319 0.14876 0.0
H1306 H 0.6291 0.20068 0.12114 0.0
H1307 H 0.67012 0.19372 0.12328 0.0
C1308 C 0.75786 0.17881 0.21153 0.0
C1309 C 0.75995 0.20297 0.21234 0.0
C1310 C 0.74701 0.16656 0.1928 0.0
C1311 C 0.73824 0.17819 0.17435 0.0
C1312 C 0.74101 0.20237 0.17471 0.0
C1313 C 0.75179 0.21465 0.19352 0.0
C1314 C 0.72424 0.16497 0.15597 0.0
C1315 C 0.70124 0.16921 0.15267 0.0
C1316 C 0.73238 0.14672 0.14362 0.0
C1317 C 0.75696 0.14233 0.14525 0.0
C1318 C 0.7757 0.16023 0.14135 0.0
C1319 C 0.79882 0.15607 0.14308 0.0
C1320 C 0.80343 0.13405 0.14858 0.0
C1321 C 0.78494 0.11612 0.15232 0.0
C1322 C 0.76179 0.12019 0.15062 0.0
C1323 C 0.64829 0.11313 0.08235 0.0
C1324 C 0.64197 0.09024 0.08996 0.0
C1325 C 0.66595 0.12789 0.09349 0.0
C1326 C 0.67764 0.12002 0.1124 0.0
C1327 C 0.6724 0.09686 0.11913 0.0
C1328 C 0.65467 0.08213 0.1081 0.0
C1329 C 0.69369 0.13628 0.12664 0.0
C1330 C 0.71691 0.13249 0.12923 0.0
C1331 C 0.68581 0.15498 0.13837 0.0
C1332 C 0.66118 0.15923 0.1372 0.0
C1333 C 0.6427 0.14229 0.14456 0.0
C1334 C 0.61952 0.14634 0.14319 0.0
C1335 C 0.61463 0.16735 0.13471 0.0
C1336 C 0.63292 0.18439 0.12765 0.0
C1337 C 0.65613 0.1804 0.12893 0.0
H1338 H 0.59667 0.17046 0.13368 0.0
H1339 H 0.82134 0.13086 0.14992 0.0
H1340 H 0.39424 0.58589 0.27844 0.0
H1341 H 0.41132 0.57052 0.31252 0.0
H1342 H 0.41662 0.63697 0.34584 0.0
H1343 H 0.40046 0.65268 0.31106 0.0
H1344 H 0.4519 0.62084 0.35888 0.0
H1345 H 0.37226 0.58499 0.35967 0.0
H1346 H 0.33594 0.56288 0.34446 0.0
H1347 H 0.37088 0.50395 0.33415 0.0
H1348 H 0.4075 0.5258 0.34902 0.0
H1349 H 0.47042 0.57451 0.47259 0.0
H1350 H 0.45357 0.59159 0.43903 0.0
H1351 H 0.45917 0.53068 0.39859 0.0
H1352 H 0.47611 0.5136 0.43199 0.0
H1353 H 0.41743 0.54462 0.39059 0.0
H1354 H 0.49754 0.58269 0.38976 0.0
H1355 H 0.53264 0.60576 0.40615 0.0
H1356 H 0.4941 0.66167 0.41933 0.0
H1357 H 0.45865 0.63886 0.40301 0.0
C1358 C 0.39897 0.59733 0.293 0.0
C1359 C 0.39561 0.62063 0.29174 0.0
C1360 C 0.40867 0.58838 0.31281 0.0
C1361 C 0.41486 0.60213 0.33265 0.0
C1362 C 0.41204 0.62561 0.33119 0.0
C1363 C 0.40272 0.6347 0.31111 0.0
C1364 C 0.42435 0.59212 0.35456 0.0
C1365 C 0.44395 0.60432 0.36587 0.0
C1366 C 0.41466 0.57032 0.36417 0.0
C1367 C 0.39268 0.55711 0.35525 0.0
C1368 C 0.37223 0.56736 0.35401 0.0
C1369 C 0.35159 0.55487 0.34547 0.0
C1370 C 0.35112 0.53205 0.33829 0.0
C1371 C 0.37128 0.52164 0.33969 0.0
C1372 C 0.39198 0.53407 0.34819 0.0
C1373 C 0.46807 0.56465 0.45661 0.0
C1374 C 0.47482 0.5425 0.45535 0.0
C1375 C 0.45848 0.57457 0.4372 0.0
C1376 C 0.4551 0.56272 0.41576 0.0
C1377 C 0.46145 0.54045 0.41464 0.0
C1378 C 0.47128 0.53063 0.43393 0.0
C1379 C 0.44493 0.57329 0.39465 0.0
C1380 C 0.42522 0.56118 0.38355 0.0
C1381 C 0.45423 0.59531 0.38551 0.0
C1382 C 0.47542 0.60899 0.39541 0.0
C1383 C 0.49651 0.59984 0.39632 0.0
C1384 C 0.51648 0.61288 0.40556 0.0
C1385 C 0.51561 0.63513 0.4139 0.0
C1386 C 0.49475 0.64442 0.41291 0.0
C1387 C 0.47472 0.63146 0.40362 0.0
H1388 H 0.53112 0.64518 0.42107 0.0
H1389 H 0.33512 0.52241 0.33168 0.0
H1390 H 0.0798 0.39006 0.78499 0.0
H1391 H 0.06598 0.40893 0.8196 0.0
H1392 H 0.13609 0.42002 0.84615 0.0
H1393 H 0.1501 0.40134 0.81135 0.0
H1394 H 0.10108 0.40326 0.88086 0.0
H1395 H 0.11558 0.46413 0.82411 0.0
H1396 H 0.11175 0.4822 0.78593 0.0
H1397 H 0.03728 0.47581 0.79637 0.0
H1398 H 0.04064 0.45739 0.83449 0.0
H1399 H 0.07417 0.47561 0.9752 0.0
H1400 H 0.09171 0.45828 0.94166 0.0
H1401 H 0.0314 0.46624 0.90073 0.0
H1402 H 0.01502 0.48536 0.9336 0.0
H1403 H 0.06371 0.47348 0.87311 0.0
H1404 H 0.04708 0.41081 0.92776 0.0
H1405 H 0.049 0.39159 0.96569 0.0
H1406 H 0.12389 0.39873 0.9591 0.0
H1407 H 0.12242 0.41822 0.92124 0.0
C1408 C 0.09234 0.39643 0.79818 0.0
C1409 C 0.11616 0.39408 0.79516 0.0
C1410 C 0.08439 0.40735 0.81803 0.0
C1411 C 0.0999 0.41605 0.83572 0.0
C1412 C 0.12365 0.41351 0.83292 0.0
C1413 C 0.1317 0.40293 0.81285 0.0
C1414 C 0.09132 0.42804 0.85683 0.0
C1415 C 0.09314 0.41877 0.87919 0.0
C1416 C 0.08037 0.44799 0.8549 0.0
C1417 C 0.07834 0.45918 0.83205 0.0
C1418 C 0.09837 0.46641 0.81818 0.0
C1419 C 0.09628 0.47675 0.79657 0.0
C1420 C 0.07428 0.4801 0.7887 0.0
C1421 C 0.05431 0.47318 0.80247 0.0
C1422 C 0.0563 0.4628 0.82409 0.0
C1423 C 0.0647 0.47369 0.95901 0.0
C1424 C 0.04313 0.48195 0.95722 0.0
C1425 C 0.07464 0.46345 0.93973 0.0
C1426 C 0.06284 0.46013 0.9183 0.0
C1427 C 0.04121 0.46841 0.9167 0.0
C1428 C 0.0317 0.47935 0.93568 0.0
C1429 C 0.0729 0.44852 0.89747 0.0
C1430 C 0.07148 0.4579 0.87502 0.0
C1431 C 0.08378 0.42837 0.89932 0.0
C1432 C 0.08465 0.41616 0.92178 0.0
C1433 C 0.06395 0.40833 0.93444 0.0
C1434 C 0.06496 0.3974 0.95593 0.0
C1435 C 0.08656 0.39401 0.96483 0.0
C1436 C 0.10718 0.40141 0.9522 0.0
C1437 C 0.10627 0.41237 0.93071 0.0
H1438 H 0.08731 0.38561 0.9815 0.0
H1439 H 0.07271 0.48811 0.77196 0.0
H1440 H 0.62411 0.81872 0.91435 0.0
H1441 H 0.60147 0.84717 0.93109 0.0
H1442 H 0.66129 0.9002 0.92259 0.0
H1443 H 0.6839 0.8719 0.90565 0.0
H1444 H 0.63657 0.90029 0.96708 0.0
H1445 H 0.6227 0.89881 0.88428 0.0
H1446 H 0.61138 0.8798 0.84694 0.0
H1447 H 0.54309 0.85469 0.87524 0.0
H1448 H 0.55416 0.87326 0.9129 0.0
H1449 H 0.57956 0.99791 0.98372 0.0
H1450 H 0.60346 0.97036 0.96776 0.0
H1451 H 0.54141 0.92009 0.95991 0.0
H1452 H 0.51739 0.94778 0.97498 0.0
H1453 H 0.56805 0.91853 0.92367 0.0
H1454 H 0.58048 0.91885 1.00604 0.0
H1455 H 0.59088 0.93623 0.04435 0.0
H1456 H 0.66024 0.96129 0.01876 0.0
H1457 H 0.65015 0.94433 0.98018 0.0
C1458 C 0.63245 0.8364 0.91631 0.0
C1459 C 0.65565 0.84321 0.90864 0.0
C1460 C 0.61953 0.8526 0.92577 0.0
C1461 C 0.62974 0.87574 0.92792 0.0
C1462 C 0.65316 0.88241 0.92104 0.0
C1463 C 0.66596 0.8663 0.91127 0.0
C1464 C 0.6157 0.89321 0.93646 0.0
C1465 C 0.62173 0.90453 0.95753 0.0
C1466 C 0.59608 0.89823 0.92416 0.0
C1467 C 0.58934 0.88722 0.90148 0.0
C1468 C 0.60534 0.88907 0.88261 0.0
C1469 C 0.59896 0.8784 0.86137 0.0
C1470 C 0.57655 0.86599 0.85874 0.0
C1471 C 0.56046 0.86428 0.87732 0.0
C1472 C 0.56677 0.87488 0.89861 0.0
C1473 C 0.57102 0.98102 0.97847 0.0
C1474 C 0.54661 0.975 0.98066 0.0
C1475 C 0.58471 0.96524 0.96949 0.0
C1476 C 0.57428 0.94298 0.96303 0.0
C1477 C 0.54986 0.93713 0.96479 0.0
C1478 C 0.53615 0.953 0.97344 0.0
C1479 C 0.58874 0.9257 0.95451 0.0
C1480 C 0.58283 0.91438 0.93336 0.0
C1481 C 0.60829 0.92046 0.96692 0.0
C1482 C 0.61448 0.93052 0.99016 0.0
C1483 C 0.5979 0.92821 1.00854 0.0
C1484 C 0.60374 0.93796 0.03031 0.0
C1485 C 0.62619 0.94991 0.03397 0.0
C1486 C 0.64285 0.95206 0.01589 0.0
C1487 C 0.63709 0.94237 0.99407 0.0
H1488 H 0.63068 0.95747 0.05083 0.0
H1489 H 0.57164 0.85775 0.84228 0.0
H1490 H 0.91764 0.19388 0.35271 0.0
H1491 H 0.94171 0.1704 0.37422 0.0
H1492 H 0.88468 0.15143 0.42323 0.0
H1493 H 0.86089 0.17542 0.40218 0.0
H1494 H 0.92409 0.15742 0.44557 0.0
H1495 H 0.89628 0.11626 0.37623 0.0
H1496 H 0.89069 0.11086 0.33396 0.0
H1497 H 0.9652 0.11961 0.32292 0.0
H1498 H 0.97122 0.12538 0.36513 0.0
H1499 H 0.94748 0.05035 0.48725 0.0
H1500 H 0.93063 0.07996 0.46644 0.0
H1501 H 0.99666 0.10114 0.43097 0.0
H1502 H 0.01385 0.07158 0.45187 0.0
H1503 H 0.95674 0.09626 0.40159 0.0
H1504 H 0.98345 0.13347 0.47274 0.0
H1505 H 0.98741 0.13664 0.51538 0.0
H1506 H 0.91293 0.13318 0.52331 0.0
H1507 H 0.90848 0.12958 0.48073 0.0
C1508 C 0.91038 0.18485 0.36821 0.0
C1509 C 0.88739 0.18634 0.37573 0.0
C1510 C 0.92409 0.17139 0.38044 0.0
C1511 C 0.91484 0.15876 0.40008 0.0
C1512 C 0.8922 0.16099 0.40812 0.0
C1513 C 0.87862 0.17471 0.3961 0.0
C1514 C 0.92825 0.14243 0.41171 0.0
C1515 C 0.93107 0.14397 0.43595 0.0
C1516 C 0.9378 0.1251 0.39914 0.0
C1517 C 0.9342 0.12151 0.37379 0.0
C1518 C 0.91147 0.11719 0.36477 0.0
C1519 C 0.90822 0.11405 0.34083 0.0
C1520 C 0.92758 0.11496 0.32576 0.0
C1521 C 0.95022 0.11895 0.33461 0.0
C1522 C 0.95357 0.12215 0.35854 0.0
C1523 C 0.95844 0.06119 0.47495 0.0
C1524 C 0.98204 0.05862 0.47125 0.0
C1525 C 0.94879 0.07818 0.46316 0.0
C1526 C 0.96248 0.09284 0.44737 0.0
C1527 C 0.98587 0.09001 0.44317 0.0
C1528 C 0.99564 0.07315 0.45515 0.0
C1529 C 0.95221 0.11113 0.43536 0.0
C1530 C 0.94997 0.10992 0.41111 0.0
C1531 C 0.94297 0.12856 0.44793 0.0
C1532 C 0.94562 0.13108 0.47354 0.0
C1533 C 0.9679 0.13322 0.48358 0.0
C1534 C 0.97023 0.13511 0.50774 0.0
C1535 C 0.95043 0.13507 0.52205 0.0
C1536 C 0.92825 0.1332 0.51221 0.0
C1537 C 0.92581 0.13125 0.48806 0.0
H1538 H 0.95227 0.13653 0.54075 0.0
H1539 H 0.92503 0.11252 0.30723 0.0
H1540 H 0.25574 0.6318 0.09886 0.0
H1541 H 0.21999 0.61336 0.08065 0.0
H1542 H 0.19585 0.5822 0.14612 0.0
H1543 H 0.23152 0.60145 0.16495 0.0
H1544 H 0.18699 0.55137 0.1068 0.0
H1545 H 0.1733 0.62762 0.12848 0.0
H1546 H 0.18258 0.66997 0.12998 0.0
H1547 H 0.18176 0.67303 0.05527 0.0
H1548 H 0.17281 0.63064 0.05332 0.0
H1549 H 0.06864 0.51717 0.07326 0.0
H1550 H 0.10476 0.53331 0.09248 0.0
H1551 H 0.12453 0.57733 0.0333 0.0
H1552 H 0.08784 0.56162 1.01417 0.0
H1553 H 0.13589 0.60136 0.07008 0.0
H1554 H 0.14999 0.52706 0.04665 0.0
H1555 H 0.14173 0.48483 0.04273 0.0
H1556 H 0.14414 0.47752 0.11699 0.0
H1557 H 0.15185 0.51981 0.12144 0.0
C1558 C 0.24285 0.62131 0.1097 0.0
C1559 C 0.24671 0.61877 0.13376 0.0
C1560 C 0.22229 0.61054 0.09906 0.0
C1561 C 0.20478 0.59652 0.1119 0.0
C1562 C 0.20892 0.59295 0.13567 0.0
C1563 C 0.2295 0.60397 0.14647 0.0
C1564 C 0.18206 0.58639 0.10049 0.0
C1565 C 0.17564 0.56232 0.09913 0.0
C1566 C 0.16741 0.60045 0.0896 0.0
C1567 C 0.17259 0.62594 0.09075 0.0
C1568 C 0.17527 0.63731 0.11236 0.0
C1569 C 0.18045 0.66133 0.1133 0.0
C1570 C 0.18282 0.67418 0.09273 0.0
C1571 C 0.17995 0.66305 0.07119 0.0
C1572 C 0.17481 0.63903 0.07016 0.0
C1573 C 0.08063 0.53023 0.06416 0.0
C1574 C 0.07508 0.53789 0.04193 0.0
C1575 C 0.10155 0.53944 0.07524 0.0
C1576 C 0.11799 0.55644 0.06441 0.0
C1577 C 0.11243 0.56425 0.04224 0.0
C1578 C 0.09135 0.55514 0.03119 0.0
C1579 C 0.14063 0.56623 0.07634 0.0
C1580 C 0.14712 0.59029 0.07778 0.0
C1581 C 0.15551 0.55211 0.08693 0.0
C1582 C 0.15126 0.52665 0.08439 0.0
C1583 C 0.1486 0.51648 0.06217 0.0
C1584 C 0.14403 0.49252 0.05985 0.0
C1585 C 0.14241 0.47851 0.07959 0.0
C1586 C 0.14538 0.48842 0.10172 0.0
C1587 C 0.14984 0.51239 0.10415 0.0
H1588 H 0.13888 0.46 0.07772 0.0
H1589 H 0.18683 0.69278 0.09349 0.0
H1590 H 0.29037 0.42741 0.67044 0.0
H1591 H 0.32524 0.44428 0.64844 0.0
H1592 H 0.29648 0.41165 0.58583 0.0
H1593 H 0.26105 0.3955 0.60734 0.0
H1594 H 0.34344 0.40664 0.59133 0.0
H1595 H 0.29703 0.46798 0.59309 0.0
H1596 H 0.27407 0.49557 0.61144 0.0
H1597 H 0.33404 0.525 0.65046 0.0
H1598 H 0.35729 0.49735 0.6326 0.0
H1599 H 0.42943 0.46563 0.51292 0.0
H1600 H 0.39269 0.44939 0.53256 0.0
H1601 H 0.41266 0.49076 0.59326 0.0
H1602 H 0.44884 0.50756 0.57348 0.0
H1603 H 0.3691 0.49104 0.58789 0.0
H1604 H 0.41533 0.4298 0.58855 0.0
H1605 H 0.4391 0.40205 0.5718 0.0
H1606 H 0.38094 0.37205 0.53059 0.0
H1607 H 0.35691 0.39984 0.54688 0.0
C1608 C 0.29109 0.42402 0.65192 0.0
C1609 C 0.27243 0.40994 0.64091 0.0
C1610 C 0.31129 0.43364 0.63933 0.0
C1611 C 0.31364 0.4294 0.61534 0.0
C1612 C 0.29528 0.41517 0.60431 0.0
C1613 C 0.27495 0.40577 0.6168 0.0
C1614 C 0.33519 0.43974 0.60181 0.0
C1615 C 0.34887 0.42512 0.59032 0.0
C1616 C 0.34279 0.46384 0.60086 0.0
C1617 C 0.32883 0.48043 0.61168 0.0
C1618 C 0.30527 0.48019 0.60575 0.0
C1619 C 0.29221 0.49587 0.61603 0.0
C1620 C 0.30257 0.51199 0.63215 0.0
C1621 C 0.32603 0.51249 0.63799 0.0
C1622 C 0.33916 0.49682 0.62779 0.0
C1623 C 0.42599 0.47134 0.53043 0.0
C1624 C 0.44233 0.48795 0.54151 0.0
C1625 C 0.40494 0.46188 0.54179 0.0
C1626 C 0.39976 0.46842 0.56474 0.0
C1627 C 0.41595 0.48525 0.57564 0.0
C1628 C 0.43683 0.49487 0.56424 0.0
C1629 C 0.37762 0.45795 0.57746 0.0
C1630 C 0.36377 0.47254 0.58883 0.0
C1631 C 0.37003 0.43379 0.57856 0.0
C1632 C 0.38441 0.41706 0.56874 0.0
C1633 C 0.40767 0.4174 0.57578 0.0
C1634 C 0.42118 0.40165 0.56639 0.0
C1635 C 0.41156 0.38534 0.55009 0.0
C1636 C 0.38838 0.38472 0.54319 0.0
C1637 C 0.3748 0.40046 0.5525 0.0
H1638 H 0.42204 0.37316 0.54284 0.0
H1639 H 0.29244 0.52413 0.64007 0.0
H1640 H 0.76897 0.70381 0.92441 0.0
H1641 H 0.79468 0.6821 0.94549 0.0
H1642 H 0.795 0.63528 0.88747 0.0
H1643 H 0.76821 0.65621 0.86667 0.0
H1644 H 0.79948 0.61338 0.92852 0.0
H1645 H 0.83512 0.68292 0.88969 0.0
H1646 H 0.84025 0.72445 0.88078 0.0
H1647 H 0.8561 0.74037 0.95238 0.0
H1648 H 0.85069 0.69888 0.96177 0.0
H1649 H 0.9154 0.58645 0.92814 0.0
H1650 H 0.87805 0.5993 0.91971 0.0
H1651 H 0.88356 0.64053 0.98231 0.0
H1652 H 0.9211 0.62786 0.99073 0.0
H1653 H 0.8742 0.66463 0.94361 0.0
H1654 H 0.84393 0.59342 0.9805 0.0
H1655 H 0.8399 0.55162 0.98755 0.0
H1656 H 0.81566 0.53828 0.91781 0.0
H1657 H 0.8199 0.58004 0.91019 0.0
C1658 C 0.77368 0.68837 0.91645 0.0
C1659 C 0.76688 0.68202 0.89362 0.0
C1660 C 0.78858 0.67608 0.92848 0.0
C1661 C 0.79724 0.65748 0.91777 0.0
C1662 C 0.7887 0.64973 0.89596 0.0
C1663 C 0.77359 0.66187 0.88399 0.0
C1664 C 0.81747 0.64827 0.92767 0.0
C1665 C 0.81585 0.62452 0.93179 0.0
C1666 C 0.83875 0.6629 0.93213 0.0
C1667 C 0.84223 0.68783 0.92648 0.0
C1668 C 0.83953 0.69528 0.90356 0.0
C1669 C 0.84251 0.71881 0.89842 0.0
C1670 C 0.84843 0.73504 0.91602 0.0
C1671 C 0.85146 0.72777 0.93878 0.0
C1672 C 0.84844 0.70426 0.94402 0.0
C1673 C 0.90864 0.59827 0.94007 0.0
C1674 C 0.9212 0.60634 0.95996 0.0
C1675 C 0.8872 0.60538 0.93539 0.0
C1676 C 0.87799 0.6207 0.9505 0.0
C1677 C 0.89036 0.6286 0.97051 0.0
C1678 C 0.91173 0.62134 0.97531 0.0
C1679 C 0.85629 0.62973 0.94447 0.0
C1680 C 0.85772 0.65349 0.94084 0.0
C1681 C 0.83502 0.61505 0.94023 0.0
C1682 C 0.83235 0.58989 0.94473 0.0
C1683 C 0.8379 0.58159 0.9666 0.0
C1684 C 0.83554 0.55789 0.97071 0.0
C1685 C 0.82749 0.54231 0.95315 0.0
C1686 C 0.82182 0.55038 0.93142 0.0
C1687 C 0.82419 0.57407 0.92719 0.0
H1688 H 0.82565 0.52397 0.95639 0.0
H1689 H 0.85073 0.75324 0.91201 0.0
H1690 H 0.3883 0.77334 0.11265 0.0
H1691 H 0.40202 0.8094 0.09293 0.0
H1692 H 0.44144 0.83415 0.15337 0.0
H1693 H 0.42598 0.79894 0.17416 0.0
H1694 H 0.42685 0.86859 0.13769 0.0
H1695 H 0.46553 0.81326 0.09736 0.0
H1696 H 0.46905 0.77764 0.07555 0.0
H1697 H 0.42675 0.79864 0.02109 0.0
H1698 H 0.42274 0.83427 0.04271 0.0
H1699 H 0.50217 0.95895 0.07755 0.0
H1700 H 0.4864 0.923 0.09745 0.0
H1701 H 0.43438 0.90796 0.04445 0.0
H1702 H 0.4499 0.94419 0.02454 0.0
H1703 H 0.45533 0.86915 0.05574 0.0
H1704 H 0.41883 0.92589 0.09727 0.0
H1705 H 0.41822 0.9619 0.11936 0.0
H1706 H 0.46052 0.93807 0.17224 0.0
H1707 H 0.46167 0.90204 0.1503 0.0
C1708 C 0.39953 0.78642 0.12219 0.0
C1709 C 0.40574 0.78252 0.14544 0.0
C1710 C 0.4079 0.80719 0.11047 0.0
C1711 C 0.42347 0.82484 0.12112 0.0
C1712 C 0.42964 0.8211 0.14434 0.0
C1713 C 0.42091 0.8005 0.15626 0.0
C1714 C 0.43297 0.84713 0.10836 0.0
C1715 C 0.43337 0.86846 0.11989 0.0
C1716 C 0.44127 0.84771 0.08481 0.0
C1717 C 0.44364 0.82631 0.07177 0.0
C1718 C 0.45685 0.8102 0.0808 0.0
C1719 C 0.45895 0.79003 0.06847 0.0
C1720 C 0.44807 0.78585 0.04698 0.0
C1721 C 0.43513 0.80188 0.03775 0.0
C1722 C 0.43295 0.82208 0.05003 0.0
C1723 C 0.48732 0.94811 0.07005 0.0
C1724 C 0.47736 0.9548 0.04933 0.0
C1725 C 0.47823 0.92743 0.08158 0.0
C1726 C 0.45898 0.91251 0.07271 0.0
C1727 C 0.44918 0.91898 0.05185 0.0
C1728 C 0.45805 0.93987 0.04047 0.0
C1729 C 0.44923 0.89029 0.08517 0.0
C1730 C 0.4488 0.86908 0.07356 0.0
C1731 C 0.44131 0.88979 0.10874 0.0
C1732 C 0.44052 0.91136 0.12203 0.0
C1733 C 0.42815 0.9284 0.11352 0.0
C1734 C 0.42768 0.94881 0.12603 0.0
C1735 C 0.43937 0.9523 0.14716 0.0
C1736 C 0.4515 0.93536 0.15586 0.0
C1737 C 0.45205 0.91493 0.1434 0.0
H1738 H 0.43899 0.9681 0.15682 0.0
H1739 H 0.44972 0.77022 0.03746 0.0
H1740 H 0.08198 0.24868 0.64599 0.0
H1741 H 0.06351 0.21275 0.62768 0.0
H1742 H 0.13157 0.19354 0.61401 0.0
H1743 H 0.14999 0.22898 0.6324 0.0
H1744 H 0.10602 0.18661 0.57589 0.0
H1745 H 0.0932 0.16722 0.65709 0.0
H1746 H 0.0788 0.17235 0.69715 0.0
H1747 H 1.0085 0.16784 0.67241 0.0
H1748 H 0.02254 0.16298 0.63213 0.0
H1749 H 0.07462 0.06984 0.54137 0.0
H1750 H 0.09022 0.10546 0.56157 0.0
H1751 H 0.01997 0.11845 0.57641 0.0
H1752 H 1.00426 0.08254 0.55672 0.0
H1753 H 0.04493 0.1295 0.61333 0.0
H1754 H 0.05651 0.14808 0.5328 0.0
H1755 H 0.06996 0.14371 0.49227 0.0
H1756 H 0.14122 0.15101 0.51478 0.0
H1757 H 0.12816 0.15506 0.55553 0.0
C1758 C 0.09303 0.23666 0.63943 0.0
C1759 C 0.11761 0.24212 0.64058 0.0
C1760 C 0.0824 0.21604 0.62884 0.0
C1761 C 0.09604 0.20018 0.61925 0.0
C1762 C 0.12051 0.20539 0.62092 0.0
C1763 C 0.13107 0.22586 0.63149 0.0
C1764 C 0.08517 0.17845 0.60701 0.0
C1765 C 0.09287 0.17403 0.58426 0.0
C1766 C 0.06742 0.16213 0.61738 0.0
C1767 C 0.05896 0.16499 0.64157 0.0
C1768 C 0.0747 0.16751 0.66017 0.0
C1769 C 0.06659 0.17033 0.68292 0.0
C1770 C 0.04276 0.17049 0.68731 0.0
C1771 C 0.02696 0.16776 0.66897 0.0
C1772 C 0.03498 0.16495 0.64618 0.0
C1773 C 0.06242 0.08022 0.54891 0.0
C1774 C 0.03809 0.07311 0.54725 0.0
C1775 C 0.07141 0.10079 0.56043 0.0
C1776 C 0.0564 0.11513 0.57041 0.0
C1777 C 0.03209 0.10792 0.56898 0.0
C1778 C 0.02308 0.08728 0.55757 0.0
C1779 C 0.066 0.13751 0.5823 0.0
C1780 C 0.05805 0.14209 0.60493 0.0
C1781 C 0.08339 0.15411 0.57174 0.0
C1782 C 0.09133 0.15167 0.54726 0.0
C1783 C 0.07503 0.14857 0.52914 0.0
C1784 C 0.08259 0.14617 0.50613 0.0
C1785 C 0.10642 0.14705 0.50097 0.0
C1786 C 0.12276 0.15032 0.51882 0.0
C1787 C 0.11529 0.15268 0.54188 0.0
H1788 H 0.11223 0.1453 0.48314 0.0
H1789 H 0.03652 0.17267 0.70494 0.0
H1790 H 0.75825 0.33352 0.40748 0.0
H1791 H 0.72897 0.35497 0.42491 0.0
H1792 H 0.67386 0.30799 0.39297 0.0
H1793 H 0.7029 0.28673 0.37548 0.0
H1794 H 0.66763 0.35105 0.38583 0.0
H1795 H 0.68565 0.30642 0.45188 0.0
H1796 H 0.71155 0.29271 0.48076 0.0
H1797 H 0.73214 0.36205 0.50468 0.0
H1798 H 0.70659 0.37621 0.47571 0.0
H1799 H 0.56563 0.37124 0.44489 0.0
H1800 H 0.59918 0.35308 0.43267 0.0
H1801 H 0.64615 0.4101 0.46094 0.0
H1802 H 0.61267 0.42881 0.47269 0.0
H1803 H 0.65912 0.36601 0.47044 0.0
H1804 H 0.63944 0.41023 0.40583 0.0
H1805 H 0.61315 0.4238 0.37728 0.0
H1806 H 0.59575 0.35503 0.35069 0.0
H1807 H 0.62166 0.34096 0.37935 0.0
C1808 C 0.73986 0.32768 0.4044 0.0
C1809 C 0.73286 0.30856 0.38998 0.0
C1810 C 0.72316 0.33993 0.41436 0.0
C1811 C 0.6992 0.33305 0.41029 0.0
C1812 C 0.69224 0.31372 0.39622 0.0
C1813 C 0.70886 0.30162 0.38619 0.0
C1814 C 0.68121 0.34623 0.41992 0.0
C1815 C 0.66567 0.35409 0.40437 0.0
C1816 C 0.67909 0.3509 0.44403 0.0
C1817 C 0.69442 0.3424 0.46146 0.0
C1818 C 0.69586 0.31876 0.46317 0.0
C1819 C 0.71044 0.31091 0.47957 0.0
C1820 C 0.72354 0.32651 0.49449 0.0
C1821 C 0.72202 0.34999 0.49308 0.0
C1822 C 0.70748 0.35794 0.47668 0.0
C1823 C 0.58307 0.38001 0.44846 0.0
C1824 C 0.58642 0.40164 0.45952 0.0
C1825 C 0.60222 0.36952 0.44159 0.0
C1826 C 0.62511 0.38039 0.44569 0.0
C1827 C 0.62859 0.40146 0.45764 0.0
C1828 C 0.60941 0.41207 0.46441 0.0
C1829 C 0.64528 0.37015 0.43638 0.0
C1830 C 0.66125 0.36302 0.45192 0.0
C1831 C 0.64784 0.3661 0.41224 0.0
C1832 C 0.63234 0.37451 0.39488 0.0
C1833 C 0.62986 0.39796 0.39403 0.0
C1834 C 0.61505 0.40575 0.3778 0.0
C1835 C 0.60274 0.39028 0.36222 0.0
C1836 C 0.60527 0.36699 0.36279 0.0
C1837 C 0.62003 0.3591 0.37901 0.0
H1838 H 0.59129 0.39634 0.34967 0.0
H1839 H 0.73481 0.32039 0.50718 0.0
loop_
_geom_bond_atom_site_label_1
_geom_bond_atom_site_label_2
_geom_bond_distance
_geom_bond_site_symmetry_2
_ccdc_geom_bond_type
C0 C1 1.391 . S
C0 C4 1.391 . S
C0 H42 0.948 . S
C1 C0 1.391 . S
C1 C2 1.391 . S
C2 C1 1.391 . S
C2 H58 0.947 . S
C2 C59 1.392 . S
C3 C4 1.391 . S
C3 C7 1.397 . S
C3 C59 1.419 . S
C4 C0 1.391 . S
C4 C3 1.391 . S
C4 C5 1.399 . S
C5 C4 1.399 . S
C5 C8 1.396 . S
C5 C17 1.453 . S
C5 C18 1.684 . S
H6 C30 0.948 . S
C7 C3 1.397 . S
C7 C8 1.394 . S
C7 C26 1.723 . S
C8 C5 1.396 . S
C8 C7 1.394 . S
C8 C38 1.723 . S
H9 C32 0.947 . S
H10 C33 0.948 . S
H11 C39 0.982 . S
H12 C40 0.979 . S
H13 C40 0.980 . S
H14 C40 0.983 . S
H15 C39 0.979 . S
H16 C39 0.977 . S
C17 C5 1.453 . S
C17 H46 0.982 . S
C17 H47 0.979 . S
C17 H48 0.977 . S
C18 C5 1.684 . S
C18 H43 0.979 . S
C18 H44 0.980 . S
C18 H45 0.983 . S
C19 C20 1.391 . S
C19 C24 1.391 . S
C19 H49 0.948 . S
C20 C19 1.391 . S
C20 C21 1.391 . S
C21 C20 1.391 . S
C21 C22 1.392 . S
C21 H50 0.947 . S
C22 C21 1.392 . S
C22 C23 1.419 . S
C22 H51 0.948 . S
C23 C22 1.419 . S
C23 C24 1.391 . S
C23 C27 1.397 . S
C24 C19 1.391 . S
C24 C23 1.391 . S
C24 C25 1.399 . S
C25 C24 1.399 . S
C25 C26 1.396 . S
C25 C28 1.453 . S
C25 C29 1.684 . S
C26 C7 1.723 . S
C26 C25 1.396 . S
C26 C27 1.394 . S
C27 C23 1.397 . S
C27 C26 1.394 . S
C27 C37 1.723 . S
C28 C25 1.453 . S
C28 H52 0.982 . S
C28 H53 0.979 . S
C28 H54 0.977 . S
C29 C25 1.684 . S
C29 H55 0.979 . S
C29 H56 0.980 . S
C29 H57 0.983 . S
C30 H6 0.948 . S
C30 C31 1.391 . S
C30 C35 1.391 . S
C31 C30 1.391 . S
C31 C32 1.391 . S
C32 H9 0.947 . S
C32 C31 1.391 . S
C32 C33 1.392 . S
C33 H10 0.948 . S
C33 C32 1.392 . S
C33 C34 1.419 . S
C34 C33 1.419 . S
C34 C35 1.391 . S
C34 C38 1.397 . S
C35 C30 1.391 . S
C35 C34 1.391 . S
C35 C36 1.399 . S
C36 C35 1.399 . S
C36 C37 1.396 . S
C36 C39 1.453 . S
C36 C40 1.684 . S
C37 C27 1.723 . S
C37 C36 1.396 . S
C37 C38 1.394 . S
C38 C8 1.723 . S
C38 C34 1.397 . S
C38 C37 1.394 . S
C39 H11 0.982 . S
C39 H15 0.979 . S
C39 H16 0.977 . S
C39 C36 1.453 . S
C40 H12 0.979 . S
C40 H13 0.980 . S
C40 H14 0.983 . S
C40 C36 1.684 . S
H41 C59 0.948 . S
H42 C0 0.948 . S
H43 C18 0.979 . S
H44 C18 0.980 . S
H45 C18 0.983 . S
H46 C17 0.982 . S
H47 C17 0.979 . S
H48 C17 0.977 . S
H49 C19 0.948 . S
H50 C21 0.947 . S
H51 C22 0.948 . S
H52 C28 0.982 . S
H53 C28 0.979 . S
H54 C28 0.977 . S
H55 C29 0.979 . S
H56 C29 0.980 . S
H57 C29 0.983 . S
H58 C2 0.947 . S
C59 C2 1.392 . S
C59 C3 1.419 . S
C59 H41 0.948 . S
C60 C61 1.391 . S
C60 C64 1.391 . S
C60 H102 0.948 . S
C61 C60 1.391 . S
C61 C62 1.391 . S
C62 C61 1.391 . S
C62 H118 0.947 . S
C62 C119 1.392 . S
C63 C64 1.391 . S
C63 C67 1.397 . S
C63 C119 1.419 . S
C64 C60 1.391 . S
C64 C63 1.391 . S
C64 C65 1.399 . S
C65 C64 1.399 . S
C65 C68 1.396 . S
C65 C77 1.453 . S
C65 C78 1.684 . S
H66 C90 0.948 . S
C67 C63 1.397 . S
C67 C68 1.394 . S
C67 C86 1.723 . S
C68 C65 1.396 . S
C68 C67 1.394 . S
C68 C98 1.723 . S
H69 C92 0.947 . S
H70 C93 0.948 . S
H71 C99 0.982 . S
H72 C100 0.979 . S
H73 C100 0.980 . S
H74 C100 0.983 . S
H75 C99 0.979 . S
H76 C99 0.977 . S
C77 C65 1.453 . S
C77 H106 0.982 . S
C77 H107 0.979 . S
C77 H108 0.977 . S
C78 C65 1.684 . S
C78 H103 0.979 . S
C78 H104 0.980 . S
C78 H105 0.983 . S
C79 C80 1.391 . S
C79 C84 1.391 . S
C79 H109 0.948 . S
C80 C79 1.391 . S
C80 C81 1.391 . S
C81 C80 1.391 . S
C81 C82 1.392 . S
C81 H110 0.947 . S
C82 C81 1.392 . S
C82 C83 1.419 . S
C82 H111 0.948 . S
C83 C82 1.419 . S
C83 C84 1.391 . S
C83 C87 1.397 . S
C84 C79 1.391 . S
C84 C83 1.391 . S
C84 C85 1.399 . S
C85 C84 1.399 . S
C85 C86 1.396 . S
C85 C88 1.453 . S
C85 C89 1.684 . S
C86 C67 1.723 . S
C86 C85 1.396 . S
C86 C87 1.394 . S
C87 C83 1.397 . S
C87 C86 1.394 . S
C87 C97 1.723 . S
C88 C85 1.453 . S
C88 H112 0.982 . S
C88 H113 0.979 . S
C88 H114 0.977 . S
C89 C85 1.684 . S
C89 H115 0.979 . S
C89 H116 0.980 . S
C89 H117 0.983 . S
C90 H66 0.948 . S
C90 C91 1.391 . S
C90 C95 1.391 . S
C91 C90 1.391 . S
C91 C92 1.391 . S
C92 H69 0.947 . S
C92 C91 1.391 . S
C92 C93 1.392 . S
C93 H70 0.948 . S
C93 C92 1.392 . S
C93 C94 1.419 . S
C94 C93 1.419 . S
C94 C95 1.391 . S
C94 C98 1.397 . S
C95 C90 1.391 . S
C95 C94 1.391 . S
C95 C96 1.399 . S
C96 C95 1.399 . S
C96 C97 1.396 . S
C96 C99 1.453 . S
C96 C100 1.684 . S
C97 C87 1.723 . S
C97 C96 1.396 . S
C97 C98 1.394 . S
C98 C68 1.723 . S
C98 C94 1.397 . S
C98 C97 1.394 . S
C99 H71 0.982 . S
C99 H75 0.979 . S
C99 H76 0.977 . S
C99 C96 1.453 . S
C100 H72 0.979 . S
C100 H73 0.980 . S
C100 H74 0.983 . S
C100 C96 1.684 . S
H101 C119 0.948 . S
H102 C60 0.948 . S
H103 C78 0.979 . S
H104 C78 0.980 . S
H105 C78 0.983 . S
H106 C77 0.982 . S
H107 C77 0.979 . S
H108 C77 0.977 . S
H109 C79 0.948 . S
H110 C81 0.947 . S
H111 C82 0.948 . S
H112 C88 0.982 . S
H113 C88 0.979 . S
H114 C88 0.977 . S
H115 C89 0.979 . S
H116 C89 0.980 . S
H117 C89 0.983 . S
H118 C62 0.947 . S
C119 C62 1.392 . S
C119 C63 1.419 . S
C119 H101 0.948 . S
C120 C121 1.391 . S
C120 C124 1.391 . S
C120 H162 0.948 . S
C121 C120 1.391 . S
C121 C122 1.391 . S
C122 C121 1.391 . S
C122 H178 0.947 . S
C122 C179 1.392 . S
C123 C124 1.391 . S
C123 C127 1.397 . S
C123 C179 1.419 . S
C124 C120 1.391 . S
C124 C123 1.391 . S
C124 C125 1.399 . S
C125 C124 1.399 . S
C125 C128 1.396 . S
C125 C137 1.453 . S
C125 C138 1.684 . S
H126 C150 0.948 . S
C127 C123 1.397 . S
C127 C128 1.394 . S
C127 C146 1.723 . S
C128 C125 1.396 . S
C128 C127 1.394 . S
C128 C158 1.723 . S
H129 C152 0.947 . S
H130 C153 0.948 . S
H131 C159 0.982 . S
H132 C160 0.979 . S
H133 C160 0.980 . S
H134 C160 0.983 . S
H135 C159 0.979 . S
H136 C159 0.977 . S
C137 C125 1.453 . S
C137 H166 0.982 . S
C137 H167 0.979 . S
C137 H168 0.977 . S
C138 C125 1.684 . S
C138 H163 0.979 . S
C138 H164 0.980 . S
C138 H165 0.983 . S
C139 C140 1.391 . S
C139 C144 1.391 . S
C139 H169 0.948 . S
C140 C139 1.391 . S
C140 C141 1.391 . S
C141 C140 1.391 . S
C141 C142 1.392 . S
C141 H170 0.947 . S
C142 C141 1.392 . S
C142 C143 1.419 . S
C142 H171 0.948 . S
C143 C142 1.419 . S
C143 C144 1.391 . S
C143 C147 1.397 . S
C144 C139 1.391 . S
C144 C143 1.391 . S
C144 C145 1.399 . S
C145 C144 1.399 . S
C145 C146 1.396 . S
C145 C148 1.453 . S
C145 C149 1.684 . S
C146 C127 1.723 . S
C146 C145 1.396 . S
C146 C147 1.394 . S
C147 C143 1.397 . S
C147 C146 1.394 . S
C147 C157 1.723 . S
C148 C145 1.453 . S
C148 H172 0.982 . S
C148 H173 0.979 . S
C148 H174 0.977 . S
C149 C145 1.684 . S
C149 H175 0.979 . S
C149 H176 0.980 . S
C149 H177 0.983 . S
C150 H126 0.948 . S
C150 C151 1.391 . S
C150 C155 1.391 . S
C151 C150 1.391 . S
C151 C152 1.391 . S
C152 H129 0.947 . S
C152 C151 1.391 . S
C152 C153 1.392 . S
C153 H130 0.948 . S
C153 C152 1.392 . S
C153 C154 1.419 . S
C154 C153 1.419 . S
C154 C155 1.391 . S
C154 C158 1.397 . S
C155 C150 1.391 . S
C155 C154 1.391 . S
C155 C156 1.399 . S
C156 C155 1.399 . S
C156 C157 1.396 . S
C156 C159 1.453 . S
C156 C160 1.684 . S
C157 C147 1.723 . S
C157 C156 1.396 . S
C157 C158 1.394 . S
C158 C128 1.723 . S
C158 C154 1.397 . S
C158 C157 1.394 . S
C159 H131 0.982 . S
C159 H135 0.979 . S
C159 H136 0.977 . S
C159 C156 1.453 . S
C160 H132 0.979 . S
C160 H133 0.980 . S
C160 H134 0.983 . S
C160 C156 1.684 . S
H161 C179 0.948 . S
H162 C120 0.948 . S
H163 C138 0.979 . S
H164 C138 0.980 . S
H165 C138 0.983 . S
H166 C137 0.982 . S
H167 C137 0.979 . S
H168 C137 0.977 . S
H169 C139 0.948 . S
H170 C141 0.947 . S
H171 C142 0.948 . S
H172 C148 0.982 . S
H173 C148 0.979 . S
H174 C148 0.977 . S
H175 C149 0.979 . S
H176 C149 0.980 . S
H177 C149 0.983 . S
H178 C122 0.947 . S
C179 C122 1.392 . S
C179 C123 1.419 . S
C179 H161 0.948 . S
C180 C181 1.391 . S
C180 C184 1.391 . S
C180 H222 0.948 . S
C181 C180 1.391 . S
C181 C182 1.391 . S
C182 C181 1.391 . S
C182 H238 0.947 . S
C182 C239 1.392 . S
C183 C184 1.391 . S
C183 C187 1.397 . S
C183 C239 1.419 . S
C184 C180 1.391 . S
C184 C183 1.391 . S
C184 C185 1.399 . S
C185 C184 1.399 . S
C185 C188 1.396 . S
C185 C197 1.453 . S
C185 C198 1.684 . S
H186 C210 0.948 . S
C187 C183 1.397 . S
C187 C188 1.394 . S
C187 C206 1.723 . S
C188 C185 1.396 . S
C188 C187 1.394 . S
C188 C218 1.723 . S
H189 C212 0.947 . S
H190 C213 0.948 . S
H191 C219 0.982 . S
H192 C220 0.979 . S
H193 C220 0.980 . S
H194 C220 0.983 . S
H195 C219 0.979 . S
H196 C219 0.977 . S
C197 C185 1.453 . S
C197 H226 0.982 . S
C197 H227 0.979 . S
C197 H228 0.977 . S
C198 C185 1.684 . S
C198 H223 0.979 . S
C198 H224 0.980 . S
C198 H225 0.983 . S
C199 C200 1.391 . S
C199 C204 1.391 . S
C199 H229 0.948 . S
C200 C199 1.391 . S
C200 C201 1.391 . S
C201 C200 1.391 . S
C201 C202 1.392 . S
C201 H230 0.947 . S
C202 C201 1.392 . S
C202 C203 1.419 . S
C202 H231 0.948 . S
C203 C202 1.419 . S
C203 C204 1.391 . S
C203 C207 1.397 . S
C204 C199 1.391 . S
C204 C203 1.391 . S
C204 C205 1.399 . S
C205 C204 1.399 . S
C205 C206 1.396 . S
C205 C208 1.453 . S
C205 C209 1.684 . S
C206 C187 1.723 . S
C206 C205 1.396 . S
C206 C207 1.394 . S
C207 C203 1.397 . S
C207 C206 1.394 . S
C207 C217 1.723 . S
C208 C205 1.453 . S
C208 H232 0.982 . S
C208 H233 0.979 . S
C208 H234 0.977 . S
C209 C205 1.684 . S
C209 H235 0.979 . S
C209 H236 0.980 . S
C209 H237 0.983 . S
C210 H186 0.948 . S
C210 C211 1.391 . S
C210 C215 1.391 . S
C211 C210 1.391 . S
C211 C212 1.391 . S
C212 H189 0.947 . S
C212 C211 1.391 . S
C212 C213 1.392 . S
C213 H190 0.948 . S
C213 C212 1.392 . S
C213 C214 1.419 . S
C214 C213 1.419 . S
C214 C215 1.391 . S
C214 C218 1.397 . S
C215 C210 1.391 . S
C215 C214 1.391 . S
C215 C216 1.399 . S
C216 C215 1.399 . S
C216 C217 1.396 . S
C216 C219 1.453 . S
C216 C220 1.684 . S
C217 C207 1.723 . S
C217 C216 1.396 . S
C217 C218 1.394 . S
C218 C188 1.723 . S
C218 C214 1.397 . S
C218 C217 1.394 . S
C219 H191 0.982 . S
C219 H195 0.979 . S
C219 H196 0.977 . S
C219 C216 1.453 . S
C220 H192 0.979 . S
C220 H193 0.980 . S
C220 H194 0.983 . S
C220 C216 1.684 . S
H221 C239 0.948 . S
H222 C180 0.948 . S
H223 C198 0.979 . S
H224 C198 0.980 . S
H225 C198 0.983 . S
H226 C197 0.982 . S
H227 C197 0.979 . S
H228 C197 0.977 . S
H229 C199 0.948 . S
H230 C201 0.947 . S
H231 C202 0.948 . S
H232 C208 0.982 . S
H233 C208 0.979 . S
H234 C208 0.977 . S
H235 C209 0.979 . S
H236 C209 0.980 . S
H237 C209 0.983 . S
H238 C182 0.947 . S
C239 C182 1.392 . S
C239 C183 1.419 . S
C239 H221 0.948 . S
C240 C241 1.391 . S
C240 C244 1.391 . S
C240 H282 0.948 . S
C241 C240 1.391 . S
C241 C242 1.391 . S
C242 C241 1.391 . S
C242 H298 0.947 . S
C242 C299 1.392 . S
C243 C244 1.391 . S
C243 C247 1.397 . S
C243 C299 1.419 . S
C244 C240 1.391 . S
C244 C243 1.391 . S
C244 C245 1.399 . S
C245 C244 1.399 . S
C245 C248 1.396 . S
C245 C257 1.453 . S
C245 C258 1.684 . S
H246 C270 0.948 . S
C247 C243 1.397 . S
C247 C248 1.394 . S
C247 C266 1.723 . S
C248 C245 1.396 . S
C248 C247 1.394 . S
C248 C278 1.723 . S
H249 C272 0.947 . S
H250 C273 0.948 . S
H251 C279 0.982 . S
H252 C280 0.979 . S
H253 C280 0.980 . S
H254 C280 0.983 . S
H255 C279 0.979 . S
H256 C279 0.977 . S
C257 C245 1.453 . S
C257 H286 0.982 . S
C257 H287 0.979 . S
C257 H288 0.977 . S
C258 C245 1.684 . S
C258 H283 0.979 . S
C258 H284 0.980 . S
C258 H285 0.983 . S
C259 C260 1.391 . S
C259 C264 1.391 . S
C259 H289 0.948 . S
C260 C259 1.391 . S
C260 C261 1.391 . S
C261 C260 1.391 . S
C261 C262 1.392 . S
C261 H290 0.947 . S
C262 C261 1.392 . S
C262 C263 1.419 . S
C262 H291 0.948 . S
C263 C262 1.419 . S
C263 C264 1.391 . S
C263 C267 1.397 . S
C264 C259 1.391 . S
C264 C263 1.391 . S
C264 C265 1.399 . S
C265 C264 1.399 . S
C265 C266 1.396 . S
C265 C268 1.453 . S
C265 C269 1.684 . S
C266 C247 1.723 . S
C266 C265 1.396 . S
C266 C267 1.394 . S
C267 C263 1.397 . S
C267 C266 1.394 . S
C267 C277 1.723 . S
C268 C265 1.453 . S
C268 H292 0.982 . S
C268 H293 0.979 . S
C268 H294 0.977 . S
C269 C265 1.684 . S
C269 H295 0.979 . S
C269 H296 0.980 . S
C269 H297 0.983 . S
C270 H246 0.948 . S
C270 C271 1.391 . S
C270 C275 1.391 . S
C271 C270 1.391 . S
C271 C272 1.391 . S
C272 H249 0.947 . S
C272 C271 1.391 . S
C272 C273 1.392 . S
C273 H250 0.948 . S
C273 C272 1.392 . S
C273 C274 1.419 . S
C274 C273 1.419 . S
C274 C275 1.391 . S
C274 C278 1.397 . S
C275 C270 1.391 . S
C275 C274 1.391 . S
C275 C276 1.399 . S
C276 C275 1.399 . S
C276 C277 1.396 . S
C276 C279 1.453 . S
C276 C280 1.684 . S
C277 C267 1.723 . S
C277 C276 1.396 . S
C277 C278 1.394 . S
C278 C248 1.723 . S
C278 C274 1.397 . S
C278 C277 1.394 . S
C279 H251 0.982 . S
C279 H255 0.979 . S
C279 H256 0.977 . S
C279 C276 1.453 . S
C280 H252 0.979 . S
C280 H253 0.980 . S
C280 H254 0.983 . S
C280 C276 1.684 . S
H281 C299 0.948 . S
H282 C240 0.948 . S
H283 C258 0.979 . S
H284 C258 0.980 . S
H285 C258 0.983 . S
H286 C257 0.982 . S
H287 C257 0.979 . S
H288 C257 0.977 . S
H289 C259 0.948 . S
H290 C261 0.947 . S
H291 C262 0.948 . S
H292 C268 0.982 . S
H293 C268 0.979 . S
H294 C268 0.977 . S
H295 C269 0.979 . S
H296 C269 0.980 . S
H297 C269 0.983 . S
H298 C242 0.947 . S
C299 C242 1.392 . S
C299 C243 1.419 . S
C299 H281 0.948 . S
C300 C301 1.391 . S
C300 C304 1.391 . S
C300 H342 0.948 . S
C301 C300 1.391 . S
C301 C302 1.391 . S
C302 C301 1.391 . S
C302 H358 0.947 . S
C302 C359 1.392 . S
C303 C304 1.391 . S
C303 C307 1.397 . S
C303 C359 1.419 . S
C304 C300 1.391 . S
C304 C303 1.391 . S
C304 C305 1.399 . S
C305 C304 1.399 . S
C305 C308 1.396 . S
C305 C317 1.453 . S
C305 C318 1.684 . S
H306 C330 0.948 . S
C307 C303 1.397 . S
C307 C308 1.394 . S
C307 C326 1.723 . S
C308 C305 1.396 . S
C308 C307 1.394 . S
C308 C338 1.723 . S
H309 C332 0.947 . S
H310 C333 0.948 . S
H311 C339 0.982 . S
H312 C340 0.979 . S
H313 C340 0.980 . S
H314 C340 0.983 . S
H315 C339 0.979 . S
H316 C339 0.977 . S
C317 C305 1.453 . S
C317 H346 0.982 . S
C317 H347 0.979 . S
C317 H348 0.977 . S
C318 C305 1.684 . S
C318 H343 0.979 . S
C318 H344 0.980 . S
C318 H345 0.983 . S
C319 C320 1.391 . S
C319 C324 1.391 . S
C319 H349 0.948 . S
C320 C319 1.391 . S
C320 C321 1.391 . S
C321 C320 1.391 . S
C321 C322 1.392 . S
C321 H350 0.947 . S
C322 C321 1.392 . S
C322 C323 1.419 . S
C322 H351 0.948 . S
C323 C322 1.419 . S
C323 C324 1.391 . S
C323 C327 1.397 . S
C324 C319 1.391 . S
C324 C323 1.391 . S
C324 C325 1.399 . S
C325 C324 1.399 . S
C325 C326 1.396 . S
C325 C328 1.453 . S
C325 C329 1.684 . S
C326 C307 1.723 . S
C326 C325 1.396 . S
C326 C327 1.394 . S
C327 C323 1.397 . S
C327 C326 1.394 . S
C327 C337 1.723 . S
C328 C325 1.453 . S
C328 H352 0.982 . S
C328 H353 0.979 . S
C328 H354 0.977 . S
C329 C325 1.684 . S
C329 H355 0.979 . S
C329 H356 0.980 . S
C329 H357 0.983 . S
C330 H306 0.948 . S
C330 C331 1.391 . S
C330 C335 1.391 . S
C331 C330 1.391 . S
C331 C332 1.391 . S
C332 H309 0.947 . S
C332 C331 1.391 . S
C332 C333 1.392 . S
C333 H310 0.948 . S
C333 C332 1.392 . S
C333 C334 1.419 . S
C334 C333 1.419 . S
C334 C335 1.391 . S
C334 C338 1.397 . S
C335 C330 1.391 . S
C335 C334 1.391 . S
C335 C336 1.399 . S
C336 C335 1.399 . S
C336 C337 1.396 . S
C336 C339 1.453 . S
C336 C340 1.684 . S
C337 C327 1.723 . S
C337 C336 1.396 . S
C337 C338 1.394 . S
C338 C308 1.723 . S
C338 C334 1.397 . S
C338 C337 1.394 . S
C339 H311 0.982 . S
C339 H315 0.979 . S
C339 H316 0.977 . S
C339 C336 1.453 . S
C340 H312 0.979 . S
C340 H313 0.980 . S
C340 H314 0.983 . S
C340 C336 1.684 . S
H341 C359 0.948 . S
H342 C300 0.948 . S
H343 C318 0.979 . S
H344 C318 0.980 . S
H345 C318 0.983 . S
H346 C317 0.982 . S
H347 C317 0.979 . S
H348 C317 0.977 . S
H349 C319 0.948 . S
H350 C321 0.947 . S
H351 C322 0.948 . S
H352 C328 0.982 . S
H353 C328 0.979 . S
H354 C328 0.977 . S
H355 C329 0.979 . S
H356 C329 0.980 . S
H357 C329 0.983 . S
H358 C302 0.947 . S
C359 C302 1.392 . S
C359 C303 1.419 . S
C359 H341 0.948 . S
C360 C361 1.391 . S
C360 C364 1.391 . S
C360 H402 0.948 . S
C361 C360 1.391 . S
C361 C362 1.391 . S
C362 C361 1.391 . S
C362 H418 0.947 . S
C362 C419 1.392 . S
C363 C364 1.391 . S
C363 C367 1.397 . S
C363 C419 1.419 . S
C364 C360 1.391 . S
C364 C363 1.391 . S
C364 C365 1.399 . S
C365 C364 1.399 . S
C365 C368 1.396 . S
C365 C377 1.453 . S
C365 C378 1.684 . S
H366 C390 0.948 . S
C367 C363 1.397 . S
C367 C368 1.394 . S
C367 C386 1.723 . S
C368 C365 1.396 . S
C368 C367 1.394 . S
C368 C398 1.723 . S
H369 C392 0.947 . S
H370 C393 0.948 . S
H371 C399 0.982 . S
H372 C400 0.979 . S
H373 C400 0.980 . S
H374 C400 0.983 . S
H375 C399 0.979 . S
H376 C399 0.977 . S
C377 C365 1.453 . S
C377 H406 0.982 . S
C377 H407 0.979 . S
C377 H408 0.977 . S
C378 C365 1.684 . S
C378 H403 0.979 . S
C378 H404 0.980 . S
C378 H405 0.983 . S
C379 C380 1.391 . S
C379 C384 1.391 . S
C379 H409 0.948 . S
C380 C379 1.391 . S
C380 C381 1.391 . S
C381 C380 1.391 . S
C381 C382 1.392 . S
C381 H410 0.947 . S
C382 C381 1.392 . S
C382 C383 1.419 . S
C382 H411 0.948 . S
C383 C382 1.419 . S
C383 C384 1.391 . S
C383 C387 1.397 . S
C384 C379 1.391 . S
C384 C383 1.391 . S
C384 C385 1.399 . S
C385 C384 1.399 . S
C385 C386 1.396 . S
C385 C388 1.453 . S
C385 C389 1.684 . S
C386 C367 1.723 . S
C386 C385 1.396 . S
C386 C387 1.394 . S
C387 C383 1.397 . S
C387 C386 1.394 . S
C387 C397 1.723 . S
C388 C385 1.453 . S
C388 H412 0.982 . S
C388 H413 0.979 . S
C388 H414 0.977 . S
C389 C385 1.684 . S
C389 H415 0.979 . S
C389 H416 0.980 . S
C389 H417 0.983 . S
C390 H366 0.948 . S
C390 C391 1.391 . S
C390 C395 1.391 . S
C391 C390 1.391 . S
C391 C392 1.391 . S
C392 H369 0.947 . S
C392 C391 1.391 . S
C392 C393 1.392 . S
C393 H370 0.948 . S
C393 C392 1.392 . S
C393 C394 1.419 . S
C394 C393 1.419 . S
C394 C395 1.391 . S
C394 C398 1.397 . S
C395 C390 1.391 . S
C395 C394 1.391 . S
C395 C396 1.399 . S
C396 C395 1.399 . S
C396 C397 1.396 . S
C396 C399 1.453 . S
C396 C400 1.684 . S
C397 C387 1.723 . S
C397 C396 1.396 . S
C397 C398 1.394 . S
C398 C368 1.723 . S
C398 C394 1.397 . S
C398 C397 1.394 . S
C399 H371 0.982 . S
C399 H375 0.979 . S
C399 H376 0.977 . S
C399 C396 1.453 . S
C400 H372 0.979 . S
C400 H373 0.980 . S
C400 H374 0.983 . S
C400 C396 1.684 . S
H401 C419 0.948 . S
H402 C360 0.948 . S
H403 C378 0.979 . S
H404 C378 0.980 . S
H405 C378 0.983 . S
H406 C377 0.982 . S
H407 C377 0.979 . S
H408 C377 0.977 . S
H409 C379 0.948 . S
H410 C381 0.947 . S
H411 C382 0.948 . S
H412 C388 0.982 . S
H413 C388 0.979 . S
H414 C388 0.977 . S
H415 C389 0.979 . S
H416 C389 0.980 . S
H417 C389 0.983 . S
H418 C362 0.947 . S
C419 C362 1.392 . S
C419 C363 1.419 . S
C419 H401 0.948 . S
C420 C421 1.391 . S
C420 C424 1.391 . S
C420 H462 0.948 . S
C421 C420 1.391 . S
C421 C422 1.391 . S
C422 C421 1.391 . S
C422 H478 0.947 . S
C422 C479 1.392 . S
C423 C424 1.391 . S
C423 C427 1.397 . S
C423 C479 1.419 . S
C424 C420 1.391 . S
C424 C423 1.391 . S
C424 C425 1.399 . S
C425 C424 1.399 . S
C425 C428 1.396 . S
C425 C437 1.453 . S
C425 C438 1.684 . S
H426 C450 0.948 . S
C427 C423 1.397 . S
C427 C428 1.394 . S
C427 C446 1.723 . S
C428 C425 1.396 . S
C428 C427 1.394 . S
C428 C458 1.723 . S
H429 C452 0.947 . S
H430 C453 0.948 . S
H431 C459 0.982 . S
H432 C460 0.979 . S
H433 C460 0.980 . S
H434 C460 0.983 . S
H435 C459 0.979 . S
H436 C459 0.977 . S
C437 C425 1.453 . S
C437 H466 0.982 . S
C437 H467 0.979 . S
C437 H468 0.977 . S
C438 C425 1.684 . S
C438 H463 0.979 . S
C438 H464 0.980 . S
C438 H465 0.983 . S
C439 C440 1.391 . S
C439 C444 1.391 . S
C439 H469 0.948 . S
C440 C439 1.391 . S
C440 C441 1.391 . S
C441 C440 1.391 . S
C441 C442 1.392 . S
C441 H470 0.947 . S
C442 C441 1.392 . S
C442 C443 1.419 . S
C442 H471 0.948 . S
C443 C442 1.419 . S
C443 C444 1.391 . S
C443 C447 1.397 . S
C444 C439 1.391 . S
C444 C443 1.391 . S
C444 C445 1.399 . S
C445 C444 1.399 . S
C445 C446 1.396 . S
C445 C448 1.453 . S
C445 C449 1.684 . S
C446 C427 1.723 . S
C446 C445 1.396 . S
C446 C447 1.394 . S
C447 C443 1.397 . S
C447 C446 1.394 . S
C447 C457 1.723 . S
C448 C445 1.453 . S
C448 H472 0.982 . S
C448 H473 0.979 . S
C448 H474 0.977 . S
C449 C445 1.684 . S
C449 H475 0.979 . S
C449 H476 0.980 . S
C449 H477 0.983 . S
C450 H426 0.948 . S
C450 C451 1.391 . S
C450 C455 1.391 . S
C451 C450 1.391 . S
C451 C452 1.391 . S
C452 H429 0.947 . S
C452 C451 1.391 . S
C452 C453 1.392 . S
C453 H430 0.948 . S
C453 C452 1.392 . S
C453 C454 1.419 . S
C454 C453 1.419 . S
C454 C455 1.391 . S
C454 C458 1.397 . S
C455 C450 1.391 . S
C455 C454 1.391 . S
C455 C456 1.399 . S
C456 C455 1.399 . S
C456 C457 1.396 . S
C456 C459 1.453 . S
C456 C460 1.684 . S
C457 C447 1.723 . S
C457 C456 1.396 . S
C457 C458 1.394 . S
C458 C428 1.723 . S
C458 C454 1.397 . S
C458 C457 1.394 . S
C459 H431 0.982 . S
C459 H435 0.979 . S
C459 H436 0.977 . S
C459 C456 1.453 . S
C460 H432 0.979 . S
C460 H433 0.980 . S
C460 H434 0.983 . S
C460 C456 1.684 . S
H461 C479 0.948 . S
H462 C420 0.948 . S
H463 C438 0.979 . S
H464 C438 0.980 . S
H465 C438 0.983 . S
H466 C437 0.982 . S
H467 C437 0.979 . S
H468 C437 0.977 . S
H469 C439 0.948 . S
H470 C441 0.947 . S
H471 C442 0.948 . S
H472 C448 0.982 . S
H473 C448 0.979 . S
H474 C448 0.977 . S
H475 C449 0.979 . S
H476 C449 0.980 . S
H477 C449 0.983 . S
H478 C422 0.947 . S
C479 C422 1.392 . S
C479 C423 1.419 . S
C479 H461 0.948 . S
Tb480 C489 2.764 . S
Tb480 O490 2.325 1_455 S
Tb480 O493 2.303 . S
Tb480 O497 2.322 1_545 S
Tb480 O498 2.349 1_545 S
Tb480 O501 2.415 . S
Tb480 O502 2.399 . S
Tb481 O491 2.322 1_565 S
Tb481 O492 2.349 1_565 S
Tb481 O494 2.415 . S
Tb481 O495 2.399 . S
Tb481 O496 2.325 1_655 S
Tb481 O499 2.303 . S
Tb481 C510 2.764 . S
C482 O498 1.261 1_655 S
C482 O499 1.257 . S
C483 C486 1.358 . S
C483 C487 1.332 . S
C483 C489 1.504 . S
C484 C485 1.373 . S
C484 C488 1.308 . S
C485 C484 1.373 . S
C485 C486 1.429 . S
C485 H512 0.932 . S
C486 C483 1.358 . S
C486 C485 1.429 . S
C486 H513 0.930 . S
C487 C483 1.332 . S
C487 C488 1.394 . S
C487 H514 0.932 . S
C488 C484 1.308 . S
C488 C487 1.394 . S
C488 H515 0.929 . S
C489 Tb480 2.764 . S
C489 C483 1.504 . S
C489 O501 1.239 . S
C489 O502 1.263 . S
O490 Tb480 2.325 1_655 S
O490 C500 1.236 . S
O491 Tb481 2.322 1_545 S
O491 C500 1.257 . S
O492 Tb481 2.349 1_545 S
O492 C503 1.261 1_655 S
O493 Tb480 2.303 . S
O493 C503 1.257 . S
O494 Tb481 2.415 . S
O494 C510 1.239 . S
O495 Tb481 2.399 . S
O495 C510 1.263 . S
O496 Tb481 2.325 1_455 S
O496 C511 1.236 . S
O497 Tb480 2.322 1_565 S
O497 C511 1.257 . S
O498 Tb480 2.349 1_565 S
O498 C482 1.261 1_455 S
O499 Tb481 2.303 . S
O499 C482 1.257 . S
C500 O490 1.236 . S
C500 O491 1.257 . S
O501 Tb480 2.415 . S
O501 C489 1.239 . S
O502 Tb480 2.399 . S
O502 C489 1.263 . S
C503 O492 1.261 1_455 S
C503 O493 1.257 . S
C504 C507 1.358 . S
C504 C508 1.332 . S
C504 C510 1.504 . S
C505 C506 1.373 . S
C505 C509 1.308 . S
C506 C505 1.373 . S
C506 C507 1.429 . S
C506 H516 0.932 . S
C507 C504 1.358 . S
C507 C506 1.429 . S
C507 H517 0.930 . S
C508 C504 1.332 . S
C508 C509 1.394 . S
C508 H518 0.932 . S
C509 C505 1.308 . S
C509 C508 1.394 . S
C509 H519 0.929 . S
C510 Tb481 2.764 . S
C510 O494 1.239 . S
C510 O495 1.263 . S
C510 C504 1.504 . S
C511 O496 1.236 . S
C511 O497 1.257 . S
H512 C485 0.932 . S
H513 C486 0.930 . S
H514 C487 0.932 . S
H515 C488 0.929 . S
H516 C506 0.932 . S
H517 C507 0.930 . S
H518 C508 0.932 . S
H519 C509 0.929 . S
Tb520 C529 2.764 . S
Tb520 O530 2.325 1_554 S
Tb520 O533 2.303 . S
Tb520 O537 2.322 1_545 S
Tb520 O538 2.355 1_545 S
Tb520 O541 2.415 . S
Tb520 O542 2.399 . S
Tb521 O531 2.322 1_565 S
Tb521 O532 2.347 1_565 S
Tb521 O534 2.415 . S
Tb521 O535 2.399 . S
Tb521 O536 2.325 1_556 S
Tb521 O539 2.303 . S
Tb521 C550 2.764 . S
C522 O538 1.254 1_556 S
C522 O539 1.257 . S
C523 C526 1.358 . S
C523 C527 1.332 . S
C523 C529 1.504 . S
C524 C525 1.373 . S
C524 C528 1.308 . S
C525 C524 1.373 . S
C525 C526 1.429 . S
C525 H552 0.932 . S
C526 C523 1.358 . S
C526 C525 1.429 . S
C526 H553 0.930 . S
C527 C523 1.332 . S
C527 C528 1.394 . S
C527 H554 0.932 . S
C528 C524 1.308 . S
C528 C527 1.394 . S
C528 H555 0.929 . S
C529 Tb520 2.764 . S
C529 C523 1.504 . S
C529 O541 1.239 . S
C529 O542 1.263 . S
O530 Tb520 2.325 1_556 S
O530 C540 1.236 . S
O531 Tb521 2.322 1_545 S
O531 C540 1.257 . S
O532 Tb521 2.347 1_545 S
O532 C543 1.264 1_556 S
O533 Tb520 2.303 . S
O533 C543 1.257 . S
O534 Tb521 2.415 . S
O534 C550 1.239 . S
O535 Tb521 2.399 . S
O535 C550 1.263 . S
O536 Tb521 2.325 1_554 S
O536 C551 1.236 . S
O537 Tb520 2.322 1_565 S
O537 C551 1.257 . S
O538 Tb520 2.355 1_565 S
O538 C522 1.254 1_554 S
O539 Tb521 2.303 . S
O539 C522 1.257 . S
C540 O530 1.236 . S
C540 O531 1.257 . S
O541 Tb520 2.415 . S
O541 C529 1.239 . S
O542 Tb520 2.399 . S
O542 C529 1.263 . S
C543 O532 1.264 1_554 S
C543 O533 1.257 . S
C544 C547 1.358 . S
C544 C548 1.332 . S
C544 C550 1.504 . S
C545 C546 1.373 . S
C545 C549 1.308 . S
C546 C545 1.373 . S
C546 C547 1.429 . S
C546 H556 0.932 . S
C547 C544 1.358 . S
C547 C546 1.429 . S
C547 H557 0.930 . S
C548 C544 1.332 . S
C548 C549 1.394 . S
C548 H558 0.932 . S
C549 C545 1.308 . S
C549 C548 1.394 . S
C549 H559 0.929 . S
C550 Tb521 2.764 . S
C550 O534 1.239 . S
C550 O535 1.263 . S
C550 C544 1.504 . S
C551 O536 1.236 . S
C551 O537 1.257 . S
H552 C525 0.932 . S
H553 C526 0.930 . S
H554 C527 0.932 . S
H555 C528 0.929 . S
H556 C546 0.932 . S
H557 C547 0.930 . S
H558 C548 0.932 . S
H559 C549 0.929 . S
Tb560 C569 2.764 . S
Tb560 O570 2.325 . S
Tb560 O573 2.303 . S
Tb560 O577 2.322 . S
Tb560 O578 2.349 . S
Tb560 O581 2.415 . S
Tb560 O582 2.399 . S
Tb561 O571 2.322 . S
Tb561 O572 2.349 . S
Tb561 O574 2.415 . S
Tb561 O575 2.399 . S
Tb561 O576 2.325 . S
Tb561 O579 2.303 . S
Tb561 C590 2.764 . S
C562 O578 1.261 . S
C562 O579 1.257 . S
C563 C566 1.358 . S
C563 C567 1.332 . S
C563 C569 1.504 . S
C564 C565 1.373 . S
C564 C568 1.308 . S
C565 C564 1.373 . S
C565 C566 1.429 . S
C565 H592 0.932 . S
C566 C563 1.358 . S
C566 C565 1.429 . S
C566 H593 0.930 . S
C567 C563 1.332 . S
C567 C568 1.394 . S
C567 H594 0.932 . S
C568 C564 1.308 . S
C568 C567 1.394 . S
C568 H595 0.929 . S
C569 Tb560 2.764 . S
C569 C563 1.504 . S
C569 O581 1.239 . S
C569 O582 1.263 . S
O570 Tb560 2.325 . S
O570 C580 1.236 . S
O571 Tb561 2.322 . S
O571 C580 1.257 . S
O572 Tb561 2.349 . S
O572 C583 1.261 . S
O573 Tb560 2.303 . S
O573 C583 1.257 . S
O574 Tb561 2.415 . S
O574 C590 1.239 . S
O575 Tb561 2.399 . S
O575 C590 1.263 . S
O576 Tb561 2.325 . S
O576 C591 1.236 . S
O577 Tb560 2.322 . S
O577 C591 1.257 . S
O578 Tb560 2.349 . S
O578 C562 1.261 . S
O579 Tb561 2.303 . S
O579 C562 1.257 . S
C580 O570 1.236 . S
C580 O571 1.257 . S
O581 Tb560 2.415 . S
O581 C569 1.239 . S
O582 Tb560 2.399 . S
O582 C569 1.263 . S
C583 O572 1.261 . S
C583 O573 1.257 . S
C584 C587 1.358 . S
C584 C588 1.332 . S
C584 C590 1.504 . S
C585 C586 1.373 . S
C585 C589 1.308 . S
C586 C585 1.373 . S
C586 C587 1.429 . S
C586 H596 0.932 . S
C587 C584 1.358 . S
C587 C586 1.429 . S
C587 H597 0.930 . S
C588 C584 1.332 . S
C588 C589 1.394 . S
C588 H598 0.932 . S
C589 C585 1.308 . S
C589 C588 1.394 . S
C589 H599 0.929 . S
C590 Tb561 2.764 . S
C590 O574 1.239 . S
C590 O575 1.263 . S
C590 C584 1.504 . S
C591 O576 1.236 . S
C591 O577 1.257 . S
H592 C565 0.932 . S
H593 C566 0.930 . S
H594 C567 0.932 . S
H595 C568 0.929 . S
H596 C586 0.932 . S
H597 C587 0.930 . S
H598 C588 0.932 . S
H599 C589 0.929 . S
Tb600 C609 2.764 . S
Tb600 O610 2.325 . S
Tb600 O613 2.303 1_556 S
Tb600 O617 2.332 1_655 S
Tb600 O618 2.349 1_655 S
Tb600 O621 2.415 . S
Tb600 O622 2.399 . S
Tb601 O611 2.337 1_455 S
Tb601 O612 2.349 1_455 S
Tb601 O614 2.415 . S
Tb601 O615 2.399 . S
Tb601 O616 2.325 . S
Tb601 O619 2.303 1_554 S
Tb601 C630 2.764 . S
C602 O618 1.261 . S
C602 O619 1.257 . S
C603 C606 1.358 . S
C603 C607 1.332 . S
C603 C609 1.504 . S
C604 C605 1.373 . S
C604 C608 1.308 . S
C605 C604 1.373 . S
C605 C606 1.429 . S
C605 H632 0.932 . S
C606 C603 1.358 . S
C606 C605 1.429 . S
C606 H633 0.930 . S
C607 C603 1.332 . S
C607 C608 1.394 . S
C607 H634 0.932 . S
C608 C604 1.308 . S
C608 C607 1.394 . S
C608 H635 0.929 . S
C609 Tb600 2.764 . S
C609 C603 1.504 . S
C609 O621 1.239 . S
C609 O622 1.263 . S
O610 Tb600 2.325 . S
O610 C620 1.236 . S
O611 Tb601 2.337 1_655 S
O611 C620 1.235 1_554 S
O612 Tb601 2.349 1_655 S
O612 C623 1.261 . S
O613 Tb600 2.303 1_554 S
O613 C623 1.257 . S
O614 Tb601 2.415 . S
O614 C630 1.239 . S
O615 Tb601 2.399 . S
O615 C630 1.263 . S
O616 Tb601 2.325 . S
O616 C631 1.236 . S
O617 Tb600 2.332 1_455 S
O617 C631 1.243 1_556 S
O618 Tb600 2.349 1_455 S
O618 C602 1.261 . S
O619 Tb601 2.303 1_556 S
O619 C602 1.257 . S
C620 O610 1.236 . S
C620 O611 1.235 1_556 S
O621 Tb600 2.415 . S
O621 C609 1.239 . S
O622 Tb600 2.399 . S
O622 C609 1.263 . S
C623 O612 1.261 . S
C623 O613 1.257 . S
C624 C627 1.358 . S
C624 C628 1.332 . S
C624 C630 1.504 . S
C625 C626 1.373 . S
C625 C629 1.308 . S
C626 C625 1.373 . S
C626 C627 1.429 . S
C626 H636 0.932 . S
C627 C624 1.358 . S
C627 C626 1.429 . S
C627 H637 0.930 . S
C628 C624 1.332 . S
C628 C629 1.394 . S
C628 H638 0.932 . S
C629 C625 1.308 . S
C629 C628 1.394 . S
C629 H639 0.929 . S
C630 Tb601 2.764 . S
C630 O614 1.239 . S
C630 O615 1.263 . S
C630 C624 1.504 . S
C631 O616 1.236 . S
C631 O617 1.243 1_554 S
H632 C605 0.932 . S
H633 C606 0.930 . S
H634 C607 0.932 . S
H635 C608 0.929 . S
H636 C626 0.932 . S
H637 C627 0.930 . S
H638 C628 0.932 . S
H639 C629 0.929 . S
H640 C658 0.951 . S
H641 C660 0.951 . S
H642 C662 0.950 . S
H643 C663 0.950 . S
H644 C665 0.950 . S
H645 C668 0.950 . S
H646 C669 0.950 . S
H647 C671 0.950 . S
H648 C672 0.950 . S
H649 C673 0.951 . S
H650 C675 0.951 . S
H651 C677 0.950 . S
H652 C678 0.950 . S
H653 C680 0.950 . S
H654 C683 0.950 . S
H655 C684 0.950 . S
H656 C686 0.950 . S
H657 C687 0.950 . S
C658 H640 0.951 . S
C658 C659 1.366 . S
C658 C660 1.388 . S
C659 C658 1.366 . S
C659 C663 1.385 . S
C660 H641 0.951 . S
C660 C658 1.388 . S
C660 C661 1.366 . S
C661 C660 1.366 . S
C661 C662 1.414 . S
C661 C664 1.499 . S
C662 H642 0.950 . S
C662 C661 1.414 . S
C662 C663 1.374 . S
C663 H643 0.950 . S
C663 C659 1.385 . S
C663 C662 1.374 . S
C664 C661 1.499 . S
C664 C665 1.373 . S
C664 C666 1.389 . S
C665 H644 0.950 . S
C665 C664 1.373 . S
C665 C681 1.377 . S
C666 C664 1.389 . S
C666 C667 1.524 . S
C666 C680 1.377 . S
C667 C666 1.524 . S
C667 C668 1.397 . S
C667 C672 1.363 . S
C668 H645 0.950 . S
C668 C667 1.397 . S
C668 C669 1.334 . S
C669 H646 0.950 . S
C669 C668 1.334 . S
C669 C670 1.287 . S
C670 C669 1.287 . S
C670 C671 1.524 . S
C670 H689 0.913 . S
C671 H647 0.950 . S
C671 C670 1.524 . S
C671 C672 1.415 . S
C672 H648 0.950 . S
C672 C667 1.363 . S
C672 C671 1.415 . S
C673 H649 0.951 . S
C673 C674 1.366 . S
C673 C675 1.388 . S
C674 C673 1.366 . S
C674 C678 1.385 . S
C675 H650 0.951 . S
C675 C673 1.388 . S
C675 C676 1.366 . S
C676 C675 1.366 . S
C676 C677 1.414 . S
C676 C679 1.499 . S
C677 H651 0.950 . S
C677 C676 1.414 . S
C677 C678 1.374 . S
C678 H652 0.950 . S
C678 C674 1.385 . S
C678 C677 1.374 . S
C679 C676 1.499 . S
C679 C680 1.373 . S
C679 C681 1.389 . S
C680 H653 0.950 . S
C680 C666 1.377 . S
C680 C679 1.373 . S
C681 C665 1.377 . S
C681 C679 1.389 . S
C681 C682 1.524 . S
C682 C681 1.524 . S
C682 C683 1.397 . S
C682 C687 1.363 . S
C683 H654 0.950 . S
C683 C682 1.397 . S
C683 C684 1.334 . S
C684 H655 0.950 . S
C684 C683 1.334 . S
C684 C685 1.287 . S
C685 C684 1.287 . S
C685 C686 1.524 . S
C685 H688 0.999 . S
C686 H656 0.950 . S
C686 C685 1.524 . S
C686 C687 1.415 . S
C687 H657 0.950 . S
C687 C682 1.363 . S
C687 C686 1.415 . S
H688 C685 0.999 . S
H689 C670 0.913 . S
H690 C708 0.951 . S
H691 C710 0.951 . S
H692 C712 0.950 . S
H693 C713 0.950 . S
H694 C715 0.950 . S
H695 C718 0.950 . S
H696 C719 0.950 . S
H697 C721 0.950 . S
H698 C722 0.950 . S
H699 C723 0.951 . S
H700 C725 0.951 . S
H701 C727 0.950 . S
H702 C728 0.950 . S
H703 C730 0.950 . S
H704 C733 0.950 . S
H705 C734 0.950 . S
H706 C736 0.950 . S
H707 C737 0.950 . S
C708 H690 0.951 . S
C708 C709 1.366 . S
C708 C710 1.388 . S
C709 C708 1.366 . S
C709 C713 1.385 . S
C710 H691 0.951 . S
C710 C708 1.388 . S
C710 C711 1.366 . S
C711 C710 1.366 . S
C711 C712 1.414 . S
C711 C714 1.499 . S
C712 H692 0.950 . S
C712 C711 1.414 . S
C712 C713 1.374 . S
C713 H693 0.950 . S
C713 C709 1.385 . S
C713 C712 1.374 . S
C714 C711 1.499 . S
C714 C715 1.373 . S
C714 C716 1.389 . S
C715 H694 0.950 . S
C715 C714 1.373 . S
C715 C731 1.377 . S
C716 C714 1.389 . S
C716 C717 1.524 . S
C716 C730 1.377 . S
C717 C716 1.524 . S
C717 C718 1.397 . S
C717 C722 1.363 . S
C718 H695 0.950 . S
C718 C717 1.397 . S
C718 C719 1.334 . S
C719 H696 0.950 . S
C719 C718 1.334 . S
C719 C720 1.287 . S
C720 C719 1.287 . S
C720 C721 1.524 . S
C720 H739 0.913 . S
C721 H697 0.950 . S
C721 C720 1.524 . S
C721 C722 1.415 . S
C722 H698 0.950 . S
C722 C717 1.363 . S
C722 C721 1.415 . S
C723 H699 0.951 . S
C723 C724 1.366 . S
C723 C725 1.388 . S
C724 C723 1.366 . S
C724 C728 1.385 . S
C725 H700 0.951 . S
C725 C723 1.388 . S
C725 C726 1.366 . S
C726 C725 1.366 . S
C726 C727 1.414 . S
C726 C729 1.499 . S
C727 H701 0.950 . S
C727 C726 1.414 . S
C727 C728 1.374 . S
C728 H702 0.950 . S
C728 C724 1.385 . S
C728 C727 1.374 . S
C729 C726 1.499 . S
C729 C730 1.373 . S
C729 C731 1.389 . S
C730 H703 0.950 . S
C730 C716 1.377 . S
C730 C729 1.373 . S
C731 C715 1.377 . S
C731 C729 1.389 . S
C731 C732 1.524 . S
C732 C731 1.524 . S
C732 C733 1.397 . S
C732 C737 1.363 . S
C733 H704 0.950 . S
C733 C732 1.397 . S
C733 C734 1.334 . S
C734 H705 0.950 . S
C734 C733 1.334 . S
C734 C735 1.287 . S
C735 C734 1.287 . S
C735 C736 1.524 . S
C735 H738 0.999 . S
C736 H706 0.950 . S
C736 C735 1.524 . S
C736 C737 1.415 . S
C737 H707 0.950 . S
C737 C732 1.363 . S
C737 C736 1.415 . S
H738 C735 0.999 . S
H739 C720 0.913 . S
H740 C758 0.951 . S
H741 C760 0.951 . S
H742 C762 0.950 . S
H743 C763 0.950 . S
H744 C765 0.950 . S
H745 C768 0.950 . S
H746 C769 0.950 . S
H747 C771 0.950 . S
H748 C772 0.950 . S
H749 C773 0.951 . S
H750 C775 0.951 . S
H751 C777 0.950 . S
H752 C778 0.950 . S
H753 C780 0.950 . S
H754 C783 0.950 . S
H755 C784 0.950 . S
H756 C786 0.950 . S
H757 C787 0.950 . S
C758 H740 0.951 . S
C758 C759 1.366 . S
C758 C760 1.388 . S
C759 C758 1.366 . S
C759 C763 1.385 . S
C760 H741 0.951 . S
C760 C758 1.388 . S
C760 C761 1.366 . S
C761 C760 1.366 . S
C761 C762 1.414 . S
C761 C764 1.499 . S
C762 H742 0.950 . S
C762 C761 1.414 . S
C762 C763 1.374 . S
C763 H743 0.950 . S
C763 C759 1.385 . S
C763 C762 1.374 . S
C764 C761 1.499 . S
C764 C765 1.373 . S
C764 C766 1.389 . S
C765 H744 0.950 . S
C765 C764 1.373 . S
C765 C781 1.377 . S
C766 C764 1.389 . S
C766 C767 1.524 . S
C766 C780 1.377 . S
C767 C766 1.524 . S
C767 C768 1.397 . S
C767 C772 1.363 . S
C768 H745 0.950 . S
C768 C767 1.397 . S
C768 C769 1.334 . S
C769 H746 0.950 . S
C769 C768 1.334 . S
C769 C770 1.287 . S
C770 C769 1.287 . S
C770 C771 1.524 . S
C770 H789 0.913 . S
C771 H747 0.950 . S
C771 C770 1.524 . S
C771 C772 1.415 . S
C772 H748 0.950 . S
C772 C767 1.363 . S
C772 C771 1.415 . S
C773 H749 0.951 . S
C773 C774 1.366 . S
C773 C775 1.388 . S
C774 C773 1.366 . S
C774 C778 1.385 . S
C775 H750 0.951 . S
C775 C773 1.388 . S
C775 C776 1.366 . S
C776 C775 1.366 . S
C776 C777 1.414 . S
C776 C779 1.499 . S
C777 H751 0.950 . S
C777 C776 1.414 . S
C777 C778 1.374 . S
C778 H752 0.950 . S
C778 C774 1.385 . S
C778 C777 1.374 . S
C779 C776 1.499 . S
C779 C780 1.373 . S
C779 C781 1.389 . S
C780 H753 0.950 . S
C780 C766 1.377 . S
C780 C779 1.373 . S
C781 C765 1.377 . S
C781 C779 1.389 . S
C781 C782 1.524 . S
C782 C781 1.524 . S
C782 C783 1.397 . S
C782 C787 1.363 . S
C783 H754 0.950 . S
C783 C782 1.397 . S
C783 C784 1.334 . S
C784 H755 0.950 . S
C784 C783 1.334 . S
C784 C785 1.287 . S
C785 C784 1.287 . S
C785 C786 1.524 . S
C785 H788 0.999 . S
C786 H756 0.950 . S
C786 C785 1.524 . S
C786 C787 1.415 . S
C787 H757 0.950 . S
C787 C782 1.363 . S
C787 C786 1.415 . S
H788 C785 0.999 . S
H789 C770 0.913 . S
H790 C808 0.951 . S
H791 C810 0.951 . S
H792 C812 0.950 . S
H793 C813 0.950 . S
H794 C815 0.950 . S
H795 C818 0.950 . S
H796 C819 0.950 . S
H797 C821 0.950 . S
H798 C822 0.950 . S
H799 C823 0.951 . S
H800 C825 0.951 . S
H801 C827 0.950 . S
H802 C828 0.950 . S
H803 C830 0.950 . S
H804 C833 0.950 . S
H805 C834 0.950 . S
H806 C836 0.950 . S
H807 C837 0.950 . S
C808 H790 0.951 . S
C808 C809 1.366 . S
C808 C810 1.388 . S
C809 C808 1.366 . S
C809 C813 1.385 . S
C810 H791 0.951 . S
C810 C808 1.388 . S
C810 C811 1.366 . S
C811 C810 1.366 . S
C811 C812 1.414 . S
C811 C814 1.499 . S
C812 H792 0.950 . S
C812 C811 1.414 . S
C812 C813 1.374 . S
C813 H793 0.950 . S
C813 C809 1.385 . S
C813 C812 1.374 . S
C814 C811 1.499 . S
C814 C815 1.373 . S
C814 C816 1.389 . S
C815 H794 0.950 . S
C815 C814 1.373 . S
C815 C831 1.377 . S
C816 C814 1.389 . S
C816 C817 1.524 . S
C816 C830 1.377 . S
C817 C816 1.524 . S
C817 C818 1.397 . S
C817 C822 1.363 . S
C818 H795 0.950 . S
C818 C817 1.397 . S
C818 C819 1.334 . S
C819 H796 0.950 . S
C819 C818 1.334 . S
C819 C820 1.287 . S
C820 C819 1.287 . S
C820 C821 1.524 . S
C820 H839 0.913 . S
C821 H797 0.950 . S
C821 C820 1.524 . S
C821 C822 1.415 . S
C822 H798 0.950 . S
C822 C817 1.363 . S
C822 C821 1.415 . S
C823 H799 0.951 . S
C823 C824 1.366 . S
C823 C825 1.388 . S
C824 C823 1.366 . S
C824 C828 1.385 . S
C825 H800 0.951 . S
C825 C823 1.388 . S
C825 C826 1.366 . S
C826 C825 1.366 . S
C826 C827 1.414 . S
C826 C829 1.499 . S
C827 H801 0.950 . S
C827 C826 1.414 . S
C827 C828 1.374 . S
C828 H802 0.950 . S
C828 C824 1.385 . S
C828 C827 1.374 . S
C829 C826 1.499 . S
C829 C830 1.373 . S
C829 C831 1.389 . S
C830 H803 0.950 . S
C830 C816 1.377 . S
C830 C829 1.373 . S
C831 C815 1.377 . S
C831 C829 1.389 . S
C831 C832 1.524 . S
C832 C831 1.524 . S
C832 C833 1.397 . S
C832 C837 1.363 . S
C833 H804 0.950 . S
C833 C832 1.397 . S
C833 C834 1.334 . S
C834 H805 0.950 . S
C834 C833 1.334 . S
C834 C835 1.287 . S
C835 C834 1.287 . S
C835 C836 1.524 . S
C835 H838 0.999 . S
C836 H806 0.950 . S
C836 C835 1.524 . S
C836 C837 1.415 . S
C837 H807 0.950 . S
C837 C832 1.363 . S
C837 C836 1.415 . S
H838 C835 0.999 . S
H839 C820 0.913 . S
H840 C858 0.951 . S
H841 C860 0.951 . S
H842 C862 0.950 . S
H843 C863 0.950 . S
H844 C865 0.950 . S
H845 C868 0.950 . S
H846 C869 0.950 . S
H847 C871 0.950 . S
H848 C872 0.950 . S
H849 C873 0.951 . S
H850 C875 0.951 . S
H851 C877 0.950 . S
H852 C878 0.950 . S
H853 C880 0.950 . S
H854 C883 0.950 . S
H855 C884 0.950 . S
H856 C886 0.950 . S
H857 C887 0.950 . S
C858 H840 0.951 . S
C858 C859 1.366 . S
C858 C860 1.388 . S
C859 C858 1.366 . S
C859 C863 1.385 . S
C860 H841 0.951 . S
C860 C858 1.388 . S
C860 C861 1.366 . S
C861 C860 1.366 . S
C861 C862 1.414 . S
C861 C864 1.499 . S
C862 H842 0.950 . S
C862 C861 1.414 . S
C862 C863 1.374 . S
C863 H843 0.950 . S
C863 C859 1.385 . S
C863 C862 1.374 . S
C864 C861 1.499 . S
C864 C865 1.373 . S
C864 C866 1.389 . S
C865 H844 0.950 . S
C865 C864 1.373 . S
C865 C881 1.377 . S
C866 C864 1.389 . S
C866 C867 1.524 . S
C866 C880 1.377 . S
C867 C866 1.524 . S
C867 C868 1.397 . S
C867 C872 1.363 . S
C868 H845 0.950 . S
C868 C867 1.397 . S
C868 C869 1.334 . S
C869 H846 0.950 . S
C869 C868 1.334 . S
C869 C870 1.287 . S
C870 C869 1.287 . S
C870 C871 1.524 . S
C870 H889 0.913 . S
C871 H847 0.950 . S
C871 C870 1.524 . S
C871 C872 1.415 . S
C872 H848 0.950 . S
C872 C867 1.363 . S
C872 C871 1.415 . S
C873 H849 0.951 . S
C873 C874 1.366 . S
C873 C875 1.388 . S
C874 C873 1.366 . S
C874 C878 1.385 . S
C875 H850 0.951 . S
C875 C873 1.388 . S
C875 C876 1.366 . S
C876 C875 1.366 . S
C876 C877 1.414 . S
C876 C879 1.499 . S
C877 H851 0.950 . S
C877 C876 1.414 . S
C877 C878 1.374 . S
C878 H852 0.950 . S
C878 C874 1.385 . S
C878 C877 1.374 . S
C879 C876 1.499 . S
C879 C880 1.373 . S
C879 C881 1.389 . S
C880 H853 0.950 . S
C880 C866 1.377 . S
C880 C879 1.373 . S
C881 C865 1.377 . S
C881 C879 1.389 . S
C881 C882 1.524 . S
C882 C881 1.524 . S
C882 C883 1.397 . S
C882 C887 1.363 . S
C883 H854 0.950 . S
C883 C882 1.397 . S
C883 C884 1.334 . S
C884 H855 0.950 . S
C884 C883 1.334 . S
C884 C885 1.287 . S
C885 C884 1.287 . S
C885 C886 1.524 . S
C885 H888 0.999 . S
C886 H856 0.950 . S
C886 C885 1.524 . S
C886 C887 1.415 . S
C887 H857 0.950 . S
C887 C882 1.363 . S
C887 C886 1.415 . S
H888 C885 0.999 . S
H889 C870 0.913 . S
H890 C908 0.951 . S
H891 C910 0.951 . S
H892 C912 0.950 . S
H893 C913 0.950 . S
H894 C915 0.950 . S
H895 C918 0.950 . S
H896 C919 0.950 . S
H897 C921 0.950 . S
H898 C922 0.950 . S
H899 C923 0.951 . S
H900 C925 0.951 . S
H901 C927 0.950 . S
H902 C928 0.950 . S
H903 C930 0.950 . S
H904 C933 0.950 . S
H905 C934 0.950 . S
H906 C936 0.950 . S
H907 C937 0.950 . S
C908 H890 0.951 . S
C908 C909 1.366 . S
C908 C910 1.388 . S
C909 C908 1.366 . S
C909 C913 1.385 . S
C910 H891 0.951 . S
C910 C908 1.388 . S
C910 C911 1.366 . S
C911 C910 1.366 . S
C911 C912 1.414 . S
C911 C914 1.499 . S
C912 H892 0.950 . S
C912 C911 1.414 . S
C912 C913 1.374 . S
C913 H893 0.950 . S
C913 C909 1.385 . S
C913 C912 1.374 . S
C914 C911 1.499 . S
C914 C915 1.373 . S
C914 C916 1.389 . S
C915 H894 0.950 . S
C915 C914 1.373 . S
C915 C931 1.377 . S
C916 C914 1.389 . S
C916 C917 1.524 . S
C916 C930 1.377 . S
C917 C916 1.524 . S
C917 C918 1.397 . S
C917 C922 1.363 . S
C918 H895 0.950 . S
C918 C917 1.397 . S
C918 C919 1.334 . S
C919 H896 0.950 . S
C919 C918 1.334 . S
C919 C920 1.287 . S
C920 C919 1.287 . S
C920 C921 1.524 . S
C920 H939 0.913 . S
C921 H897 0.950 . S
C921 C920 1.524 . S
C921 C922 1.415 . S
C922 H898 0.950 . S
C922 C917 1.363 . S
C922 C921 1.415 . S
C923 H899 0.951 . S
C923 C924 1.366 . S
C923 C925 1.388 . S
C924 C923 1.366 . S
C924 C928 1.385 . S
C925 H900 0.951 . S
C925 C923 1.388 . S
C925 C926 1.366 . S
C926 C925 1.366 . S
C926 C927 1.414 . S
C926 C929 1.499 . S
C927 H901 0.950 . S
C927 C926 1.414 . S
C927 C928 1.374 . S
C928 H902 0.950 . S
C928 C924 1.385 . S
C928 C927 1.374 . S
C929 C926 1.499 . S
C929 C930 1.373 . S
C929 C931 1.389 . S
C930 H903 0.950 . S
C930 C916 1.377 . S
C930 C929 1.373 . S
C931 C915 1.377 . S
C931 C929 1.389 . S
C931 C932 1.524 . S
C932 C931 1.524 . S
C932 C933 1.397 . S
C932 C937 1.363 . S
C933 H904 0.950 . S
C933 C932 1.397 . S
C933 C934 1.334 1_455 S
C934 H905 0.950 . S
C934 C933 1.334 1_655 S
C934 C935 1.287 . S
C935 C934 1.287 . S
C935 C936 1.524 . S
C935 H938 0.999 . S
C936 H906 0.950 . S
C936 C935 1.524 . S
C936 C937 1.415 1_655 S
C937 H907 0.950 . S
C937 C932 1.363 . S
C937 C936 1.415 1_455 S
H938 C935 0.999 . S
H939 C920 0.913 . S
H940 C958 0.951 . S
H941 C960 0.951 . S
H942 C962 0.950 . S
H943 C963 0.950 . S
H944 C965 0.950 . S
H945 C968 0.950 . S
H946 C969 0.950 . S
H947 C971 0.950 . S
H948 C972 0.950 . S
H949 C973 0.951 . S
H950 C975 0.951 . S
H951 C977 0.950 . S
H952 C978 0.950 . S
H953 C980 0.950 . S
H954 C983 0.950 . S
H955 C984 0.950 . S
H956 C986 0.950 . S
H957 C987 0.950 . S
C958 H940 0.951 . S
C958 C959 1.366 . S
C958 C960 1.388 . S
C959 C958 1.366 . S
C959 C963 1.385 . S
C960 H941 0.951 . S
C960 C958 1.388 . S
C960 C961 1.366 . S
C961 C960 1.366 . S
C961 C962 1.414 . S
C961 C964 1.499 . S
C962 H942 0.950 . S
C962 C961 1.414 . S
C962 C963 1.374 . S
C963 H943 0.950 . S
C963 C959 1.385 . S
C963 C962 1.374 . S
C964 C961 1.499 . S
C964 C965 1.373 . S
C964 C966 1.389 . S
C965 H944 0.950 . S
C965 C964 1.373 . S
C965 C981 1.377 . S
C966 C964 1.389 . S
C966 C967 1.524 . S
C966 C980 1.377 . S
C967 C966 1.524 . S
C967 C968 1.397 . S
C967 C972 1.363 . S
C968 H945 0.950 . S
C968 C967 1.397 . S
C968 C969 1.334 . S
C969 H946 0.950 . S
C969 C968 1.334 . S
C969 C970 1.287 . S
C970 C969 1.287 . S
C970 C971 1.524 . S
C970 H989 0.913 . S
C971 H947 0.950 . S
C971 C970 1.524 . S
C971 C972 1.415 . S
C972 H948 0.950 . S
C972 C967 1.363 . S
C972 C971 1.415 . S
C973 H949 0.951 . S
C973 C974 1.366 . S
C973 C975 1.388 . S
C974 C973 1.366 . S
C974 C978 1.385 . S
C975 H950 0.951 . S
C975 C973 1.388 . S
C975 C976 1.366 . S
C976 C975 1.366 . S
C976 C977 1.414 . S
C976 C979 1.499 . S
C977 H951 0.950 . S
C977 C976 1.414 . S
C977 C978 1.374 . S
C978 H952 0.950 . S
C978 C974 1.385 . S
C978 C977 1.374 . S
C979 C976 1.499 . S
C979 C980 1.373 . S
C979 C981 1.389 . S
C980 H953 0.950 . S
C980 C966 1.377 . S
C980 C979 1.373 . S
C981 C965 1.377 . S
C981 C979 1.389 . S
C981 C982 1.524 . S
C982 C981 1.524 . S
C982 C983 1.397 . S
C982 C987 1.363 . S
C983 H954 0.950 . S
C983 C982 1.397 . S
C983 C984 1.334 . S
C984 H955 0.950 . S
C984 C983 1.334 . S
C984 C985 1.287 . S
C985 C984 1.287 . S
C985 C986 1.524 . S
C985 H988 0.999 . S
C986 H956 0.950 . S
C986 C985 1.524 . S
C986 C987 1.415 . S
C987 H957 0.950 . S
C987 C982 1.363 . S
C987 C986 1.415 . S
H988 C985 0.999 . S
H989 C970 0.913 . S
H990 C1008 0.951 . S
H991 C1010 0.951 . S
H992 C1012 0.950 . S
H993 C1013 0.950 . S
H994 C1015 0.950 . S
H995 C1018 0.950 . S
H996 C1019 0.950 . S
H997 C1021 0.950 . S
H998 C1022 0.950 . S
H999 C1023 0.951 . S
H1000 C1025 0.951 . S
H1001 C1027 0.950 . S
H1002 C1028 0.950 . S
H1003 C1030 0.950 . S
H1004 C1033 0.950 . S
H1005 C1034 0.950 . S
H1006 C1036 0.950 . S
H1007 C1037 0.950 . S
C1008 H990 0.951 . S
C1008 C1009 1.366 . S
C1008 C1010 1.388 . S
C1009 C1008 1.366 . S
C1009 C1013 1.385 . S
C1010 H991 0.951 . S
C1010 C1008 1.388 . S
C1010 C1011 1.366 . S
C1011 C1010 1.366 . S
C1011 C1012 1.414 . S
C1011 C1014 1.499 . S
C1012 H992 0.950 . S
C1012 C1011 1.414 . S
C1012 C1013 1.374 . S
C1013 H993 0.950 . S
C1013 C1009 1.385 . S
C1013 C1012 1.374 . S
C1014 C1011 1.499 . S
C1014 C1015 1.373 . S
C1014 C1016 1.389 . S
C1015 H994 0.950 . S
C1015 C1014 1.373 . S
C1015 C1031 1.377 . S
C1016 C1014 1.389 . S
C1016 C1017 1.524 . S
C1016 C1030 1.377 . S
C1017 C1016 1.524 . S
C1017 C1018 1.397 . S
C1017 C1022 1.363 . S
C1018 H995 0.950 . S
C1018 C1017 1.397 . S
C1018 C1019 1.334 . S
C1019 H996 0.950 . S
C1019 C1018 1.334 . S
C1019 C1020 1.287 . S
C1020 C1019 1.287 . S
C1020 C1021 1.524 . S
C1020 H1039 0.913 . S
C1021 H997 0.950 . S
C1021 C1020 1.524 . S
C1021 C1022 1.415 . S
C1022 H998 0.950 . S
C1022 C1017 1.363 . S
C1022 C1021 1.415 . S
C1023 H999 0.951 . S
C1023 C1024 1.366 . S
C1023 C1025 1.388 . S
C1024 C1023 1.366 . S
C1024 C1028 1.385 . S
C1025 H1000 0.951 . S
C1025 C1023 1.388 . S
C1025 C1026 1.366 . S
C1026 C1025 1.366 . S
C1026 C1027 1.414 . S
C1026 C1029 1.499 . S
C1027 H1001 0.950 . S
C1027 C1026 1.414 . S
C1027 C1028 1.374 . S
C1028 H1002 0.950 . S
C1028 C1024 1.385 . S
C1028 C1027 1.374 . S
C1029 C1026 1.499 . S
C1029 C1030 1.373 . S
C1029 C1031 1.389 . S
C1030 H1003 0.950 . S
C1030 C1016 1.377 . S
C1030 C1029 1.373 . S
C1031 C1015 1.377 . S
C1031 C1029 1.389 . S
C1031 C1032 1.524 . S
C1032 C1031 1.524 . S
C1032 C1033 1.397 . S
C1032 C1037 1.363 . S
C1033 H1004 0.950 . S
C1033 C1032 1.397 . S
C1033 C1034 1.334 . S
C1034 H1005 0.950 . S
C1034 C1033 1.334 . S
C1034 C1035 1.287 . S
C1035 C1034 1.287 . S
C1035 C1036 1.524 . S
C1035 H1038 0.999 . S
C1036 H1006 0.950 . S
C1036 C1035 1.524 . S
C1036 C1037 1.415 . S
C1037 H1007 0.950 . S
C1037 C1032 1.363 . S
C1037 C1036 1.415 . S
H1038 C1035 0.999 . S
H1039 C1020 0.913 . S
H1040 C1058 0.951 . S
H1041 C1060 0.951 . S
H1042 C1062 0.950 . S
H1043 C1063 0.950 . S
H1044 C1065 0.950 . S
H1045 C1068 0.950 . S
H1046 C1069 0.950 . S
H1047 C1071 0.950 . S
H1048 C1072 0.950 . S
H1049 C1073 0.951 . S
H1050 C1075 0.951 . S
H1051 C1077 0.950 . S
H1052 C1078 0.950 . S
H1053 C1080 0.950 . S
H1054 C1083 0.950 . S
H1055 C1084 0.950 . S
H1056 C1086 0.950 1_556 S
H1057 C1087 0.950 . S
C1058 H1040 0.951 . S
C1058 C1059 1.366 . S
C1058 C1060 1.388 . S
C1059 C1058 1.366 . S
C1059 C1063 1.385 . S
C1060 H1041 0.951 . S
C1060 C1058 1.388 . S
C1060 C1061 1.366 . S
C1061 C1060 1.366 . S
C1061 C1062 1.414 . S
C1061 C1064 1.499 . S
C1062 H1042 0.950 . S
C1062 C1061 1.414 . S
C1062 C1063 1.374 . S
C1063 H1043 0.950 . S
C1063 C1059 1.385 . S
C1063 C1062 1.374 . S
C1064 C1061 1.499 . S
C1064 C1065 1.373 . S
C1064 C1066 1.389 . S
C1065 H1044 0.950 . S
C1065 C1064 1.373 . S
C1065 C1081 1.377 . S
C1066 C1064 1.389 . S
C1066 C1067 1.524 . S
C1066 C1080 1.377 . S
C1067 C1066 1.524 . S
C1067 C1068 1.397 . S
C1067 C1072 1.363 . S
C1068 H1045 0.950 . S
C1068 C1067 1.397 . S
C1068 C1069 1.334 . S
C1069 H1046 0.950 . S
C1069 C1068 1.334 . S
C1069 C1070 1.287 . S
C1070 C1069 1.287 . S
C1070 C1071 1.524 . S
C1070 H1089 0.913 . S
C1071 H1047 0.950 . S
C1071 C1070 1.524 . S
C1071 C1072 1.415 . S
C1072 H1048 0.950 . S
C1072 C1067 1.363 . S
C1072 C1071 1.415 . S
C1073 H1049 0.951 . S
C1073 C1074 1.366 . S
C1073 C1075 1.388 . S
C1074 C1073 1.366 . S
C1074 C1078 1.385 . S
C1075 H1050 0.951 . S
C1075 C1073 1.388 . S
C1075 C1076 1.366 . S
C1076 C1075 1.366 . S
C1076 C1077 1.414 . S
C1076 C1079 1.499 . S
C1077 H1051 0.950 . S
C1077 C1076 1.414 . S
C1077 C1078 1.374 . S
C1078 H1052 0.950 . S
C1078 C1074 1.385 . S
C1078 C1077 1.374 . S
C1079 C1076 1.499 . S
C1079 C1080 1.373 . S
C1079 C1081 1.389 . S
C1080 H1053 0.950 . S
C1080 C1066 1.377 . S
C1080 C1079 1.373 . S
C1081 C1065 1.377 . S
C1081 C1079 1.389 . S
C1081 C1082 1.524 . S
C1082 C1081 1.524 . S
C1082 C1083 1.397 . S
C1082 C1087 1.363 . S
C1083 H1054 0.950 . S
C1083 C1082 1.397 . S
C1083 C1084 1.334 . S
C1084 H1055 0.950 . S
C1084 C1083 1.334 . S
C1084 C1085 1.287 . S
C1085 C1084 1.287 . S
C1085 C1086 1.524 . S
C1085 H1088 0.999 1_554 S
C1086 H1056 0.950 1_554 S
C1086 C1085 1.524 . S
C1086 C1087 1.415 . S
C1087 H1057 0.950 . S
C1087 C1082 1.363 . S
C1087 C1086 1.415 . S
H1088 C1085 0.999 1_556 S
H1089 C1070 0.913 . S
H1090 C1108 0.951 . S
H1091 C1110 0.951 . S
H1092 C1112 0.950 . S
H1093 C1113 0.950 . S
H1094 C1115 0.950 . S
H1095 C1118 0.950 . S
H1096 C1119 0.950 . S
H1097 C1121 0.950 . S
H1098 C1122 0.950 . S
H1099 C1123 0.951 . S
H1100 C1125 0.951 . S
H1101 C1127 0.950 . S
H1102 C1128 0.950 . S
H1103 C1130 0.950 . S
H1104 C1133 0.950 . S
H1105 C1134 0.950 . S
H1106 C1136 0.950 . S
H1107 C1137 0.950 . S
C1108 H1090 0.951 . S
C1108 C1109 1.366 . S
C1108 C1110 1.388 . S
C1109 C1108 1.366 . S
C1109 C1113 1.385 . S
C1110 H1091 0.951 . S
C1110 C1108 1.388 . S
C1110 C1111 1.366 . S
C1111 C1110 1.366 . S
C1111 C1112 1.414 . S
C1111 C1114 1.499 . S
C1112 H1092 0.950 . S
C1112 C1111 1.414 . S
C1112 C1113 1.374 . S
C1113 H1093 0.950 . S
C1113 C1109 1.385 . S
C1113 C1112 1.374 . S
C1114 C1111 1.499 . S
C1114 C1115 1.373 . S
C1114 C1116 1.389 . S
C1115 H1094 0.950 . S
C1115 C1114 1.373 . S
C1115 C1131 1.377 . S
C1116 C1114 1.389 . S
C1116 C1117 1.524 . S
C1116 C1130 1.377 . S
C1117 C1116 1.524 . S
C1117 C1118 1.397 . S
C1117 C1122 1.363 . S
C1118 H1095 0.950 . S
C1118 C1117 1.397 . S
C1118 C1119 1.334 . S
C1119 H1096 0.950 . S
C1119 C1118 1.334 . S
C1119 C1120 1.287 . S
C1120 C1119 1.287 . S
C1120 C1121 1.524 1_556 S
C1120 H1139 0.913 1_556 S
C1121 H1097 0.950 . S
C1121 C1120 1.524 1_554 S
C1121 C1122 1.415 1_554 S
C1122 H1098 0.950 . S
C1122 C1117 1.363 . S
C1122 C1121 1.415 1_556 S
C1123 H1099 0.951 . S
C1123 C1124 1.366 . S
C1123 C1125 1.388 . S
C1124 C1123 1.366 . S
C1124 C1128 1.385 . S
C1125 H1100 0.951 . S
C1125 C1123 1.388 . S
C1125 C1126 1.366 . S
C1126 C1125 1.366 . S
C1126 C1127 1.414 . S
C1126 C1129 1.499 . S
C1127 H1101 0.950 . S
C1127 C1126 1.414 . S
C1127 C1128 1.374 . S
C1128 H1102 0.950 . S
C1128 C1124 1.385 . S
C1128 C1127 1.374 . S
C1129 C1126 1.499 . S
C1129 C1130 1.373 . S
C1129 C1131 1.389 . S
C1130 H1103 0.950 . S
C1130 C1116 1.377 . S
C1130 C1129 1.373 . S
C1131 C1115 1.377 . S
C1131 C1129 1.389 . S
C1131 C1132 1.524 . S
C1132 C1131 1.524 . S
C1132 C1133 1.397 . S
C1132 C1137 1.363 . S
C1133 H1104 0.950 . S
C1133 C1132 1.397 . S
C1133 C1134 1.334 . S
C1134 H1105 0.950 . S
C1134 C1133 1.334 . S
C1134 C1135 1.287 . S
C1135 C1134 1.287 . S
C1135 C1136 1.524 . S
C1135 H1138 0.999 . S
C1136 H1106 0.950 . S
C1136 C1135 1.524 . S
C1136 C1137 1.415 . S
C1137 H1107 0.950 . S
C1137 C1132 1.363 . S
C1137 C1136 1.415 . S
H1138 C1135 0.999 . S
H1139 C1120 0.913 1_554 S
H1140 C1158 0.951 . S
H1141 C1160 0.951 . S
H1142 C1162 0.950 . S
H1143 C1163 0.950 . S
H1144 C1165 0.950 . S
H1145 C1168 0.950 . S
H1146 C1169 0.950 . S
H1147 C1171 0.950 . S
H1148 C1172 0.950 . S
H1149 C1173 0.951 1_455 S
H1150 C1175 0.951 . S
H1151 C1177 0.950 . S
H1152 C1178 0.950 . S
H1153 C1180 0.950 . S
H1154 C1183 0.950 . S
H1155 C1184 0.950 . S
H1156 C1186 0.950 . S
H1157 C1187 0.950 . S
C1158 H1140 0.951 . S
C1158 C1159 1.366 . S
C1158 C1160 1.388 . S
C1159 C1158 1.366 . S
C1159 C1163 1.385 . S
C1160 H1141 0.951 . S
C1160 C1158 1.388 . S
C1160 C1161 1.366 . S
C1161 C1160 1.366 . S
C1161 C1162 1.414 . S
C1161 C1164 1.499 . S
C1162 H1142 0.950 . S
C1162 C1161 1.414 . S
C1162 C1163 1.374 . S
C1163 H1143 0.950 . S
C1163 C1159 1.385 . S
C1163 C1162 1.374 . S
C1164 C1161 1.499 . S
C1164 C1165 1.373 . S
C1164 C1166 1.389 . S
C1165 H1144 0.950 . S
C1165 C1164 1.373 . S
C1165 C1181 1.377 . S
C1166 C1164 1.389 . S
C1166 C1167 1.524 . S
C1166 C1180 1.377 . S
C1167 C1166 1.524 . S
C1167 C1168 1.397 . S
C1167 C1172 1.363 . S
C1168 H1145 0.950 . S
C1168 C1167 1.397 . S
C1168 C1169 1.334 . S
C1169 H1146 0.950 . S
C1169 C1168 1.334 . S
C1169 C1170 1.287 . S
C1170 C1169 1.287 . S
C1170 C1171 1.524 . S
C1170 H1189 0.913 . S
C1171 H1147 0.950 . S
C1171 C1170 1.524 . S
C1171 C1172 1.415 . S
C1172 H1148 0.950 . S
C1172 C1167 1.363 . S
C1172 C1171 1.415 . S
C1173 H1149 0.951 1_655 S
C1173 C1174 1.366 . S
C1173 C1175 1.388 . S
C1174 C1173 1.366 . S
C1174 C1178 1.385 . S
C1175 H1150 0.951 . S
C1175 C1173 1.388 . S
C1175 C1176 1.366 . S
C1176 C1175 1.366 . S
C1176 C1177 1.414 . S
C1176 C1179 1.499 . S
C1177 H1151 0.950 . S
C1177 C1176 1.414 . S
C1177 C1178 1.374 . S
C1178 H1152 0.950 . S
C1178 C1174 1.385 . S
C1178 C1177 1.374 . S
C1179 C1176 1.499 . S
C1179 C1180 1.373 . S
C1179 C1181 1.389 . S
C1180 H1153 0.950 . S
C1180 C1166 1.377 . S
C1180 C1179 1.373 . S
C1181 C1165 1.377 . S
C1181 C1179 1.389 . S
C1181 C1182 1.524 . S
C1182 C1181 1.524 . S
C1182 C1183 1.397 . S
C1182 C1187 1.363 . S
C1183 H1154 0.950 . S
C1183 C1182 1.397 . S
C1183 C1184 1.334 . S
C1184 H1155 0.950 . S
C1184 C1183 1.334 . S
C1184 C1185 1.287 1_655 S
C1185 C1184 1.287 1_455 S
C1185 C1186 1.524 . S
C1185 H1188 0.999 . S
C1186 H1156 0.950 . S
C1186 C1185 1.524 . S
C1186 C1187 1.415 1_455 S
C1187 H1157 0.950 . S
C1187 C1182 1.363 . S
C1187 C1186 1.415 1_655 S
H1188 C1185 0.999 . S
H1189 C1170 0.913 . S
H1190 C1208 0.951 . S
H1191 C1210 0.951 . S
H1192 C1212 0.950 . S
H1193 C1213 0.950 . S
H1194 C1215 0.950 . S
H1195 C1218 0.950 . S
H1196 C1219 0.950 . S
H1197 C1221 0.950 . S
H1198 C1222 0.950 . S
H1199 C1223 0.951 . S
H1200 C1225 0.951 . S
H1201 C1227 0.950 . S
H1202 C1228 0.950 . S
H1203 C1230 0.950 . S
H1204 C1233 0.950 . S
H1205 C1234 0.950 . S
H1206 C1236 0.950 . S
H1207 C1237 0.950 . S
C1208 H1190 0.951 . S
C1208 C1209 1.366 . S
C1208 C1210 1.388 . S
C1209 C1208 1.366 . S
C1209 C1213 1.385 . S
C1210 H1191 0.951 . S
C1210 C1208 1.388 . S
C1210 C1211 1.366 . S
C1211 C1210 1.366 . S
C1211 C1212 1.414 . S
C1211 C1214 1.499 . S
C1212 H1192 0.950 . S
C1212 C1211 1.414 . S
C1212 C1213 1.374 . S
C1213 H1193 0.950 . S
C1213 C1209 1.385 . S
C1213 C1212 1.374 . S
C1214 C1211 1.499 . S
C1214 C1215 1.373 . S
C1214 C1216 1.389 . S
C1215 H1194 0.950 . S
C1215 C1214 1.373 . S
C1215 C1231 1.377 . S
C1216 C1214 1.389 . S
C1216 C1217 1.524 . S
C1216 C1230 1.377 . S
C1217 C1216 1.524 . S
C1217 C1218 1.397 . S
C1217 C1222 1.363 . S
C1218 H1195 0.950 . S
C1218 C1217 1.397 . S
C1218 C1219 1.334 . S
C1219 H1196 0.950 . S
C1219 C1218 1.334 . S
C1219 C1220 1.287 . S
C1220 C1219 1.287 . S
C1220 C1221 1.524 . S
C1220 H1239 0.913 . S
C1221 H1197 0.950 . S
C1221 C1220 1.524 . S
C1221 C1222 1.415 . S
C1222 H1198 0.950 . S
C1222 C1217 1.363 . S
C1222 C1221 1.415 . S
C1223 H1199 0.951 . S
C1223 C1224 1.366 . S
C1223 C1225 1.388 . S
C1224 C1223 1.366 . S
C1224 C1228 1.385 . S
C1225 H1200 0.951 . S
C1225 C1223 1.388 . S
C1225 C1226 1.366 . S
C1226 C1225 1.366 . S
C1226 C1227 1.414 . S
C1226 C1229 1.499 . S
C1227 H1201 0.950 . S
C1227 C1226 1.414 . S
C1227 C1228 1.374 . S
C1228 H1202 0.950 . S
C1228 C1224 1.385 . S
C1228 C1227 1.374 . S
C1229 C1226 1.499 . S
C1229 C1230 1.373 . S
C1229 C1231 1.389 . S
C1230 H1203 0.950 . S
C1230 C1216 1.377 . S
C1230 C1229 1.373 . S
C1231 C1215 1.377 . S
C1231 C1229 1.389 . S
C1231 C1232 1.524 . S
C1232 C1231 1.524 . S
C1232 C1233 1.397 . S
C1232 C1237 1.363 . S
C1233 H1204 0.950 . S
C1233 C1232 1.397 . S
C1233 C1234 1.334 . S
C1234 H1205 0.950 . S
C1234 C1233 1.334 . S
C1234 C1235 1.287 . S
C1235 C1234 1.287 . S
C1235 C1236 1.524 . S
C1235 H1238 0.999 . S
C1236 H1206 0.950 . S
C1236 C1235 1.524 . S
C1236 C1237 1.415 . S
C1237 H1207 0.950 . S
C1237 C1232 1.363 . S
C1237 C1236 1.415 . S
H1238 C1235 0.999 . S
H1239 C1220 0.913 . S
H1240 C1258 0.951 . S
H1241 C1260 0.951 . S
H1242 C1262 0.950 . S
H1243 C1263 0.950 . S
H1244 C1265 0.950 . S
H1245 C1268 0.950 . S
H1246 C1269 0.950 . S
H1247 C1271 0.950 . S
H1248 C1272 0.950 . S
H1249 C1273 0.951 . S
H1250 C1275 0.951 . S
H1251 C1277 0.950 . S
H1252 C1278 0.950 . S
H1253 C1280 0.950 . S
H1254 C1283 0.950 . S
H1255 C1284 0.950 . S
H1256 C1286 0.950 . S
H1257 C1287 0.950 . S
C1258 H1240 0.951 . S
C1258 C1259 1.366 . S
C1258 C1260 1.388 . S
C1259 C1258 1.366 . S
C1259 C1263 1.385 . S
C1260 H1241 0.951 . S
C1260 C1258 1.388 . S
C1260 C1261 1.366 . S
C1261 C1260 1.366 . S
C1261 C1262 1.414 . S
C1261 C1264 1.499 . S
C1262 H1242 0.950 . S
C1262 C1261 1.414 . S
C1262 C1263 1.374 . S
C1263 H1243 0.950 . S
C1263 C1259 1.385 . S
C1263 C1262 1.374 . S
C1264 C1261 1.499 . S
C1264 C1265 1.373 . S
C1264 C1266 1.389 . S
C1265 H1244 0.950 . S
C1265 C1264 1.373 . S
C1265 C1281 1.377 . S
C1266 C1264 1.389 . S
C1266 C1267 1.524 . S
C1266 C1280 1.377 . S
C1267 C1266 1.524 . S
C1267 C1268 1.397 . S
C1267 C1272 1.363 . S
C1268 H1245 0.950 . S
C1268 C1267 1.397 . S
C1268 C1269 1.334 . S
C1269 H1246 0.950 . S
C1269 C1268 1.334 . S
C1269 C1270 1.287 . S
C1270 C1269 1.287 . S
C1270 C1271 1.524 . S
C1270 H1289 0.913 . S
C1271 H1247 0.950 . S
C1271 C1270 1.524 . S
C1271 C1272 1.415 . S
C1272 H1248 0.950 . S
C1272 C1267 1.363 . S
C1272 C1271 1.415 . S
C1273 H1249 0.951 . S
C1273 C1274 1.366 . S
C1273 C1275 1.388 . S
C1274 C1273 1.366 . S
C1274 C1278 1.385 . S
C1275 H1250 0.951 . S
C1275 C1273 1.388 . S
C1275 C1276 1.366 . S
C1276 C1275 1.366 . S
C1276 C1277 1.414 . S
C1276 C1279 1.499 . S
C1277 H1251 0.950 . S
C1277 C1276 1.414 . S
C1277 C1278 1.374 . S
C1278 H1252 0.950 . S
C1278 C1274 1.385 . S
C1278 C1277 1.374 . S
C1279 C1276 1.499 . S
C1279 C1280 1.373 . S
C1279 C1281 1.389 . S
C1280 H1253 0.950 . S
C1280 C1266 1.377 . S
C1280 C1279 1.373 . S
C1281 C1265 1.377 . S
C1281 C1279 1.389 . S
C1281 C1282 1.524 . S
C1282 C1281 1.524 . S
C1282 C1283 1.397 . S
C1282 C1287 1.363 . S
C1283 H1254 0.950 . S
C1283 C1282 1.397 . S
C1283 C1284 1.334 . S
C1284 H1255 0.950 . S
C1284 C1283 1.334 . S
C1284 C1285 1.287 . S
C1285 C1284 1.287 . S
C1285 C1286 1.524 . S
C1285 H1288 0.999 . S
C1286 H1256 0.950 . S
C1286 C1285 1.524 . S
C1286 C1287 1.415 . S
C1287 H1257 0.950 . S
C1287 C1282 1.363 . S
C1287 C1286 1.415 . S
H1288 C1285 0.999 . S
H1289 C1270 0.913 . S
H1290 C1308 0.951 . S
H1291 C1310 0.951 . S
H1292 C1312 0.950 . S
H1293 C1313 0.950 . S
H1294 C1315 0.950 . S
H1295 C1318 0.950 . S
H1296 C1319 0.950 . S
H1297 C1321 0.950 . S
H1298 C1322 0.950 . S
H1299 C1323 0.951 . S
H1300 C1325 0.951 . S
H1301 C1327 0.950 . S
H1302 C1328 0.950 . S
H1303 C1330 0.950 . S
H1304 C1333 0.950 . S
H1305 C1334 0.950 . S
H1306 C1336 0.950 . S
H1307 C1337 0.950 . S
C1308 H1290 0.951 . S
C1308 C1309 1.366 . S
C1308 C1310 1.388 . S
C1309 C1308 1.366 . S
C1309 C1313 1.385 . S
C1310 H1291 0.951 . S
C1310 C1308 1.388 . S
C1310 C1311 1.366 . S
C1311 C1310 1.366 . S
C1311 C1312 1.414 . S
C1311 C1314 1.499 . S
C1312 H1292 0.950 . S
C1312 C1311 1.414 . S
C1312 C1313 1.374 . S
C1313 H1293 0.950 . S
C1313 C1309 1.385 . S
C1313 C1312 1.374 . S
C1314 C1311 1.499 . S
C1314 C1315 1.373 . S
C1314 C1316 1.389 . S
C1315 H1294 0.950 . S
C1315 C1314 1.373 . S
C1315 C1331 1.377 . S
C1316 C1314 1.389 . S
C1316 C1317 1.524 . S
C1316 C1330 1.377 . S
C1317 C1316 1.524 . S
C1317 C1318 1.397 . S
C1317 C1322 1.363 . S
C1318 H1295 0.950 . S
C1318 C1317 1.397 . S
C1318 C1319 1.334 . S
C1319 H1296 0.950 . S
C1319 C1318 1.334 . S
C1319 C1320 1.287 . S
C1320 C1319 1.287 . S
C1320 C1321 1.524 . S
C1320 H1339 0.913 . S
C1321 H1297 0.950 . S
C1321 C1320 1.524 . S
C1321 C1322 1.415 . S
C1322 H1298 0.950 . S
C1322 C1317 1.363 . S
C1322 C1321 1.415 . S
C1323 H1299 0.951 . S
C1323 C1324 1.366 . S
C1323 C1325 1.388 . S
C1324 C1323 1.366 . S
C1324 C1328 1.385 . S
C1325 H1300 0.951 . S
C1325 C1323 1.388 . S
C1325 C1326 1.366 . S
C1326 C1325 1.366 . S
C1326 C1327 1.414 . S
C1326 C1329 1.499 . S
C1327 H1301 0.950 . S
C1327 C1326 1.414 . S
C1327 C1328 1.374 . S
C1328 H1302 0.950 . S
C1328 C1324 1.385 . S
C1328 C1327 1.374 . S
C1329 C1326 1.499 . S
C1329 C1330 1.373 . S
C1329 C1331 1.389 . S
C1330 H1303 0.950 . S
C1330 C1316 1.377 . S
C1330 C1329 1.373 . S
C1331 C1315 1.377 . S
C1331 C1329 1.389 . S
C1331 C1332 1.524 . S
C1332 C1331 1.524 . S
C1332 C1333 1.397 . S
C1332 C1337 1.363 . S
C1333 H1304 0.950 . S
C1333 C1332 1.397 . S
C1333 C1334 1.334 . S
C1334 H1305 0.950 . S
C1334 C1333 1.334 . S
C1334 C1335 1.287 . S
C1335 C1334 1.287 . S
C1335 C1336 1.524 . S
C1335 H1338 0.999 . S
C1336 H1306 0.950 . S
C1336 C1335 1.524 . S
C1336 C1337 1.415 . S
C1337 H1307 0.950 . S
C1337 C1332 1.363 . S
C1337 C1336 1.415 . S
H1338 C1335 0.999 . S
H1339 C1320 0.913 . S
H1340 C1358 0.951 . S
H1341 C1360 0.951 . S
H1342 C1362 0.950 . S
H1343 C1363 0.950 . S
H1344 C1365 0.950 . S
H1345 C1368 0.950 . S
H1346 C1369 0.950 . S
H1347 C1371 0.950 . S
H1348 C1372 0.950 . S
H1349 C1373 0.951 . S
H1350 C1375 0.951 . S
H1351 C1377 0.950 . S
H1352 C1378 0.950 . S
H1353 C1380 0.950 . S
H1354 C1383 0.950 . S
H1355 C1384 0.950 . S
H1356 C1386 0.950 . S
H1357 C1387 0.950 . S
C1358 H1340 0.951 . S
C1358 C1359 1.366 . S
C1358 C1360 1.388 . S
C1359 C1358 1.366 . S
C1359 C1363 1.385 . S
C1360 H1341 0.951 . S
C1360 C1358 1.388 . S
C1360 C1361 1.366 . S
C1361 C1360 1.366 . S
C1361 C1362 1.414 . S
C1361 C1364 1.499 . S
C1362 H1342 0.950 . S
C1362 C1361 1.414 . S
C1362 C1363 1.374 . S
C1363 H1343 0.950 . S
C1363 C1359 1.385 . S
C1363 C1362 1.374 . S
C1364 C1361 1.499 . S
C1364 C1365 1.373 . S
C1364 C1366 1.389 . S
C1365 H1344 0.950 . S
C1365 C1364 1.373 . S
C1365 C1381 1.377 . S
C1366 C1364 1.389 . S
C1366 C1367 1.524 . S
C1366 C1380 1.377 . S
C1367 C1366 1.524 . S
C1367 C1368 1.397 . S
C1367 C1372 1.363 . S
C1368 H1345 0.950 . S
C1368 C1367 1.397 . S
C1368 C1369 1.334 . S
C1369 H1346 0.950 . S
C1369 C1368 1.334 . S
C1369 C1370 1.287 . S
C1370 C1369 1.287 . S
C1370 C1371 1.524 . S
C1370 H1389 0.913 . S
C1371 H1347 0.950 . S
C1371 C1370 1.524 . S
C1371 C1372 1.415 . S
C1372 H1348 0.950 . S
C1372 C1367 1.363 . S
C1372 C1371 1.415 . S
C1373 H1349 0.951 . S
C1373 C1374 1.366 . S
C1373 C1375 1.388 . S
C1374 C1373 1.366 . S
C1374 C1378 1.385 . S
C1375 H1350 0.951 . S
C1375 C1373 1.388 . S
C1375 C1376 1.366 . S
C1376 C1375 1.366 . S
C1376 C1377 1.414 . S
C1376 C1379 1.499 . S
C1377 H1351 0.950 . S
C1377 C1376 1.414 . S
C1377 C1378 1.374 . S
C1378 H1352 0.950 . S
C1378 C1374 1.385 . S
C1378 C1377 1.374 . S
C1379 C1376 1.499 . S
C1379 C1380 1.373 . S
C1379 C1381 1.389 . S
C1380 H1353 0.950 . S
C1380 C1366 1.377 . S
C1380 C1379 1.373 . S
C1381 C1365 1.377 . S
C1381 C1379 1.389 . S
C1381 C1382 1.524 . S
C1382 C1381 1.524 . S
C1382 C1383 1.397 . S
C1382 C1387 1.363 . S
C1383 H1354 0.950 . S
C1383 C1382 1.397 . S
C1383 C1384 1.334 . S
C1384 H1355 0.950 . S
C1384 C1383 1.334 . S
C1384 C1385 1.287 . S
C1385 C1384 1.287 . S
C1385 C1386 1.524 . S
C1385 H1388 0.999 . S
C1386 H1356 0.950 . S
C1386 C1385 1.524 . S
C1386 C1387 1.415 . S
C1387 H1357 0.950 . S
C1387 C1382 1.363 . S
C1387 C1386 1.415 . S
H1388 C1385 0.999 . S
H1389 C1370 0.913 . S
H1390 C1408 0.951 . S
H1391 C1410 0.951 . S
H1392 C1412 0.950 . S
H1393 C1413 0.950 . S
H1394 C1415 0.950 . S
H1395 C1418 0.950 . S
H1396 C1419 0.950 . S
H1397 C1421 0.950 1_655 S
H1398 C1422 0.950 . S
H1399 C1423 0.951 . S
H1400 C1425 0.951 . S
H1401 C1427 0.950 . S
H1402 C1428 0.950 . S
H1403 C1430 0.950 . S
H1404 C1433 0.950 . S
H1405 C1434 0.950 . S
H1406 C1436 0.950 . S
H1407 C1437 0.950 . S
C1408 H1390 0.951 . S
C1408 C1409 1.366 . S
C1408 C1410 1.388 . S
C1409 C1408 1.366 . S
C1409 C1413 1.385 . S
C1410 H1391 0.951 . S
C1410 C1408 1.388 . S
C1410 C1411 1.366 . S
C1411 C1410 1.366 . S
C1411 C1412 1.414 . S
C1411 C1414 1.499 . S
C1412 H1392 0.950 . S
C1412 C1411 1.414 . S
C1412 C1413 1.374 . S
C1413 H1393 0.950 . S
C1413 C1409 1.385 . S
C1413 C1412 1.374 . S
C1414 C1411 1.499 . S
C1414 C1415 1.373 . S
C1414 C1416 1.389 . S
C1415 H1394 0.950 . S
C1415 C1414 1.373 . S
C1415 C1431 1.377 . S
C1416 C1414 1.389 . S
C1416 C1417 1.524 . S
C1416 C1430 1.377 . S
C1417 C1416 1.524 . S
C1417 C1418 1.397 . S
C1417 C1422 1.363 . S
C1418 H1395 0.950 . S
C1418 C1417 1.397 . S
C1418 C1419 1.334 . S
C1419 H1396 0.950 . S
C1419 C1418 1.334 . S
C1419 C1420 1.287 . S
C1420 C1419 1.287 . S
C1420 C1421 1.524 . S
C1420 H1439 0.913 . S
C1421 H1397 0.950 1_455 S
C1421 C1420 1.524 . S
C1421 C1422 1.415 . S
C1422 H1398 0.950 . S
C1422 C1417 1.363 . S
C1422 C1421 1.415 . S
C1423 H1399 0.951 . S
C1423 C1424 1.366 . S
C1423 C1425 1.388 . S
C1424 C1423 1.366 . S
C1424 C1428 1.385 . S
C1425 H1400 0.951 . S
C1425 C1423 1.388 . S
C1425 C1426 1.366 . S
C1426 C1425 1.366 . S
C1426 C1427 1.414 . S
C1426 C1429 1.499 . S
C1427 H1401 0.950 . S
C1427 C1426 1.414 . S
C1427 C1428 1.374 . S
C1428 H1402 0.950 . S
C1428 C1424 1.385 . S
C1428 C1427 1.374 . S
C1429 C1426 1.499 . S
C1429 C1430 1.373 . S
C1429 C1431 1.389 . S
C1430 H1403 0.950 . S
C1430 C1416 1.377 . S
C1430 C1429 1.373 . S
C1431 C1415 1.377 . S
C1431 C1429 1.389 . S
C1431 C1432 1.524 . S
C1432 C1431 1.524 . S
C1432 C1433 1.397 . S
C1432 C1437 1.363 . S
C1433 H1404 0.950 . S
C1433 C1432 1.397 . S
C1433 C1434 1.334 . S
C1434 H1405 0.950 . S
C1434 C1433 1.334 . S
C1434 C1435 1.287 . S
C1435 C1434 1.287 . S
C1435 C1436 1.524 . S
C1435 H1438 0.999 . S
C1436 H1406 0.950 . S
C1436 C1435 1.524 . S
C1436 C1437 1.415 . S
C1437 H1407 0.950 . S
C1437 C1432 1.363 . S
C1437 C1436 1.415 . S
H1438 C1435 0.999 . S
H1439 C1420 0.913 . S
H1440 C1458 0.951 . S
H1441 C1460 0.951 . S
H1442 C1462 0.950 . S
H1443 C1463 0.950 . S
H1444 C1465 0.950 . S
H1445 C1468 0.950 . S
H1446 C1469 0.950 . S
H1447 C1471 0.950 . S
H1448 C1472 0.950 . S
H1449 C1473 0.951 . S
H1450 C1475 0.951 . S
H1451 C1477 0.950 . S
H1452 C1478 0.950 . S
H1453 C1480 0.950 . S
H1454 C1483 0.950 . S
H1455 C1484 0.950 . S
H1456 C1486 0.950 . S
H1457 C1487 0.950 . S
C1458 H1440 0.951 . S
C1458 C1459 1.366 . S
C1458 C1460 1.388 . S
C1459 C1458 1.366 . S
C1459 C1463 1.385 . S
C1460 H1441 0.951 . S
C1460 C1458 1.388 . S
C1460 C1461 1.366 . S
C1461 C1460 1.366 . S
C1461 C1462 1.414 . S
C1461 C1464 1.499 . S
C1462 H1442 0.950 . S
C1462 C1461 1.414 . S
C1462 C1463 1.374 . S
C1463 H1443 0.950 . S
C1463 C1459 1.385 . S
C1463 C1462 1.374 . S
C1464 C1461 1.499 . S
C1464 C1465 1.373 . S
C1464 C1466 1.389 . S
C1465 H1444 0.950 . S
C1465 C1464 1.373 . S
C1465 C1481 1.377 . S
C1466 C1464 1.389 . S
C1466 C1467 1.524 . S
C1466 C1480 1.377 . S
C1467 C1466 1.524 . S
C1467 C1468 1.397 . S
C1467 C1472 1.363 . S
C1468 H1445 0.950 . S
C1468 C1467 1.397 . S
C1468 C1469 1.334 . S
C1469 H1446 0.950 . S
C1469 C1468 1.334 . S
C1469 C1470 1.287 . S
C1470 C1469 1.287 . S
C1470 C1471 1.524 . S
C1470 H1489 0.913 . S
C1471 H1447 0.950 . S
C1471 C1470 1.524 . S
C1471 C1472 1.415 . S
C1472 H1448 0.950 . S
C1472 C1467 1.363 . S
C1472 C1471 1.415 . S
C1473 H1449 0.951 . S
C1473 C1474 1.366 . S
C1473 C1475 1.388 . S
C1474 C1473 1.366 . S
C1474 C1478 1.385 . S
C1475 H1450 0.951 . S
C1475 C1473 1.388 . S
C1475 C1476 1.366 . S
C1476 C1475 1.366 . S
C1476 C1477 1.414 . S
C1476 C1479 1.499 . S
C1477 H1451 0.950 . S
C1477 C1476 1.414 . S
C1477 C1478 1.374 . S
C1478 H1452 0.950 . S
C1478 C1474 1.385 . S
C1478 C1477 1.374 . S
C1479 C1476 1.499 . S
C1479 C1480 1.373 . S
C1479 C1481 1.389 . S
C1480 H1453 0.950 . S
C1480 C1466 1.377 . S
C1480 C1479 1.373 . S
C1481 C1465 1.377 . S
C1481 C1479 1.389 . S
C1481 C1482 1.524 . S
C1482 C1481 1.524 . S
C1482 C1483 1.397 . S
C1482 C1487 1.363 . S
C1483 H1454 0.950 . S
C1483 C1482 1.397 . S
C1483 C1484 1.334 1_556 S
C1484 H1455 0.950 . S
C1484 C1483 1.334 1_554 S
C1484 C1485 1.287 . S
C1485 C1484 1.287 . S
C1485 C1486 1.524 1_554 S
C1485 H1488 0.999 . S
C1486 H1456 0.950 . S
C1486 C1485 1.524 1_556 S
C1486 C1487 1.415 . S
C1487 H1457 0.950 . S
C1487 C1482 1.363 . S
C1487 C1486 1.415 . S
H1488 C1485 0.999 . S
H1489 C1470 0.913 . S
H1490 C1508 0.951 . S
H1491 C1510 0.951 . S
H1492 C1512 0.950 . S
H1493 C1513 0.950 . S
H1494 C1515 0.950 . S
H1495 C1518 0.950 . S
H1496 C1519 0.950 . S
H1497 C1521 0.950 1_455 S
H1498 C1522 0.950 . S
H1499 C1523 0.951 . S
H1500 C1525 0.951 . S
H1501 C1527 0.950 . S
H1502 C1528 0.950 . S
H1503 C1530 0.950 . S
H1504 C1533 0.950 . S
H1505 C1534 0.950 . S
H1506 C1536 0.950 . S
H1507 C1537 0.950 . S
C1508 H1490 0.951 . S
C1508 C1509 1.366 . S
C1508 C1510 1.388 . S
C1509 C1508 1.366 . S
C1509 C1513 1.385 . S
C1510 H1491 0.951 . S
C1510 C1508 1.388 . S
C1510 C1511 1.366 . S
C1511 C1510 1.366 . S
C1511 C1512 1.414 . S
C1511 C1514 1.499 . S
C1512 H1492 0.950 . S
C1512 C1511 1.414 . S
C1512 C1513 1.374 . S
C1513 H1493 0.950 . S
C1513 C1509 1.385 . S
C1513 C1512 1.374 . S
C1514 C1511 1.499 . S
C1514 C1515 1.373 . S
C1514 C1516 1.389 . S
C1515 H1494 0.950 . S
C1515 C1514 1.373 . S
C1515 C1531 1.377 . S
C1516 C1514 1.389 . S
C1516 C1517 1.524 . S
C1516 C1530 1.377 . S
C1517 C1516 1.524 . S
C1517 C1518 1.397 . S
C1517 C1522 1.363 . S
C1518 H1495 0.950 . S
C1518 C1517 1.397 . S
C1518 C1519 1.334 . S
C1519 H1496 0.950 . S
C1519 C1518 1.334 . S
C1519 C1520 1.287 . S
C1520 C1519 1.287 . S
C1520 C1521 1.524 . S
C1520 H1539 0.913 . S
C1521 H1497 0.950 1_655 S
C1521 C1520 1.524 . S
C1521 C1522 1.415 . S
C1522 H1498 0.950 . S
C1522 C1517 1.363 . S
C1522 C1521 1.415 . S
C1523 H1499 0.951 . S
C1523 C1524 1.366 . S
C1523 C1525 1.388 . S
C1524 C1523 1.366 . S
C1524 C1528 1.385 . S
C1525 H1500 0.951 . S
C1525 C1523 1.388 . S
C1525 C1526 1.366 . S
C1526 C1525 1.366 . S
C1526 C1527 1.414 . S
C1526 C1529 1.499 . S
C1527 H1501 0.950 . S
C1527 C1526 1.414 . S
C1527 C1528 1.374 . S
C1528 H1502 0.950 . S
C1528 C1524 1.385 . S
C1528 C1527 1.374 . S
C1529 C1526 1.499 . S
C1529 C1530 1.373 . S
C1529 C1531 1.389 . S
C1530 H1503 0.950 . S
C1530 C1516 1.377 . S
C1530 C1529 1.373 . S
C1531 C1515 1.377 . S
C1531 C1529 1.389 . S
C1531 C1532 1.524 . S
C1532 C1531 1.524 . S
C1532 C1533 1.397 . S
C1532 C1537 1.363 . S
C1533 H1504 0.950 . S
C1533 C1532 1.397 . S
C1533 C1534 1.334 . S
C1534 H1505 0.950 . S
C1534 C1533 1.334 . S
C1534 C1535 1.287 . S
C1535 C1534 1.287 . S
C1535 C1536 1.524 . S
C1535 H1538 0.999 . S
C1536 H1506 0.950 . S
C1536 C1535 1.524 . S
C1536 C1537 1.415 . S
C1537 H1507 0.950 . S
C1537 C1532 1.363 . S
C1537 C1536 1.415 . S
H1538 C1535 0.999 . S
H1539 C1520 0.913 . S
H1540 C1558 0.951 . S
H1541 C1560 0.951 . S
H1542 C1562 0.950 . S
H1543 C1563 0.950 . S
H1544 C1565 0.950 . S
H1545 C1568 0.950 . S
H1546 C1569 0.950 . S
H1547 C1571 0.956 . S
H1548 C1572 0.950 . S
H1549 C1573 0.951 . S
H1550 C1575 0.951 . S
H1551 C1577 0.950 . S
H1552 C1578 0.950 1_556 S
H1553 C1580 0.950 . S
H1554 C1583 0.950 . S
H1555 C1584 0.950 . S
H1556 C1586 0.950 . S
H1557 C1587 0.950 . S
C1558 H1540 0.951 . S
C1558 C1559 1.366 . S
C1558 C1560 1.388 . S
C1559 C1558 1.366 . S
C1559 C1563 1.385 . S
C1560 H1541 0.951 . S
C1560 C1558 1.388 . S
C1560 C1561 1.366 . S
C1561 C1560 1.366 . S
C1561 C1562 1.414 . S
C1561 C1564 1.499 . S
C1562 H1542 0.950 . S
C1562 C1561 1.414 . S
C1562 C1563 1.374 . S
C1563 H1543 0.950 . S
C1563 C1559 1.385 . S
C1563 C1562 1.374 . S
C1564 C1561 1.499 . S
C1564 C1565 1.373 . S
C1564 C1566 1.389 . S
C1565 H1544 0.950 . S
C1565 C1564 1.373 . S
C1565 C1581 1.377 . S
C1566 C1564 1.389 . S
C1566 C1567 1.524 . S
C1566 C1580 1.377 . S
C1567 C1566 1.524 . S
C1567 C1568 1.397 . S
C1567 C1572 1.363 . S
C1568 H1545 0.950 . S
C1568 C1567 1.397 . S
C1568 C1569 1.334 . S
C1569 H1546 0.950 . S
C1569 C1568 1.334 . S
C1569 C1570 1.287 . S
C1570 C1569 1.287 . S
C1570 C1571 1.521 1_554 S
C1570 H1589 0.913 . S
C1571 H1547 0.956 . S
C1571 C1570 1.521 1_556 S
C1571 C1572 1.410 1_556 S
C1572 H1548 0.950 . S
C1572 C1567 1.363 . S
C1572 C1571 1.410 1_554 S
C1573 H1549 0.951 . S
C1573 C1574 1.366 . S
C1573 C1575 1.388 . S
C1574 C1573 1.366 . S
C1574 C1578 1.385 . S
C1575 H1550 0.951 . S
C1575 C1573 1.388 . S
C1575 C1576 1.366 . S
C1576 C1575 1.366 . S
C1576 C1577 1.414 . S
C1576 C1579 1.499 . S
C1577 H1551 0.950 . S
C1577 C1576 1.414 . S
C1577 C1578 1.374 . S
C1578 H1552 0.950 1_554 S
C1578 C1574 1.385 . S
C1578 C1577 1.374 . S
C1579 C1576 1.499 . S
C1579 C1580 1.373 . S
C1579 C1581 1.389 . S
C1580 H1553 0.950 . S
C1580 C1566 1.377 . S
C1580 C1579 1.373 . S
C1581 C1565 1.377 . S
C1581 C1579 1.389 . S
C1581 C1582 1.524 . S
C1582 C1581 1.524 . S
C1582 C1583 1.397 . S
C1582 C1587 1.363 . S
C1583 H1554 0.950 . S
C1583 C1582 1.397 . S
C1583 C1584 1.334 . S
C1584 H1555 0.950 . S
C1584 C1583 1.334 . S
C1584 C1585 1.287 . S
C1585 C1584 1.287 . S
C1585 C1586 1.524 . S
C1585 H1588 0.999 . S
C1586 H1556 0.950 . S
C1586 C1585 1.524 . S
C1586 C1587 1.415 . S
C1587 H1557 0.950 . S
C1587 C1582 1.363 . S
C1587 C1586 1.415 . S
H1588 C1585 0.999 . S
H1589 C1570 0.913 . S
H1590 C1608 0.951 . S
H1591 C1610 0.951 . S
H1592 C1612 0.950 . S
H1593 C1613 0.950 . S
H1594 C1615 0.950 . S
H1595 C1618 0.950 . S
H1596 C1619 0.950 . S
H1597 C1621 0.950 . S
H1598 C1622 0.950 . S
H1599 C1623 0.951 . S
H1600 C1625 0.951 . S
H1601 C1627 0.950 . S
H1602 C1628 0.950 . S
H1603 C1630 0.950 . S
H1604 C1633 0.950 . S
H1605 C1634 0.950 . S
H1606 C1636 0.950 . S
H1607 C1637 0.950 . S
C1608 H1590 0.951 . S
C1608 C1609 1.366 . S
C1608 C1610 1.388 . S
C1609 C1608 1.366 . S
C1609 C1613 1.385 . S
C1610 H1591 0.951 . S
C1610 C1608 1.388 . S
C1610 C1611 1.366 . S
C1611 C1610 1.366 . S
C1611 C1612 1.414 . S
C1611 C1614 1.499 . S
C1612 H1592 0.950 . S
C1612 C1611 1.414 . S
C1612 C1613 1.374 . S
C1613 H1593 0.950 . S
C1613 C1609 1.385 . S
C1613 C1612 1.374 . S
C1614 C1611 1.499 . S
C1614 C1615 1.373 . S
C1614 C1616 1.389 . S
C1615 H1594 0.950 . S
C1615 C1614 1.373 . S
C1615 C1631 1.377 . S
C1616 C1614 1.389 . S
C1616 C1617 1.524 . S
C1616 C1630 1.377 . S
C1617 C1616 1.524 . S
C1617 C1618 1.397 . S
C1617 C1622 1.363 . S
C1618 H1595 0.950 . S
C1618 C1617 1.397 . S
C1618 C1619 1.334 . S
C1619 H1596 0.950 . S
C1619 C1618 1.334 . S
C1619 C1620 1.287 . S
C1620 C1619 1.287 . S
C1620 C1621 1.524 . S
C1620 H1639 0.913 . S
C1621 H1597 0.950 . S
C1621 C1620 1.524 . S
C1621 C1622 1.415 . S
C1622 H1598 0.950 . S
C1622 C1617 1.363 . S
C1622 C1621 1.415 . S
C1623 H1599 0.951 . S
C1623 C1624 1.366 . S
C1623 C1625 1.388 . S
C1624 C1623 1.366 . S
C1624 C1628 1.385 . S
C1625 H1600 0.951 . S
C1625 C1623 1.388 . S
C1625 C1626 1.366 . S
C1626 C1625 1.366 . S
C1626 C1627 1.414 . S
C1626 C1629 1.499 . S
C1627 H1601 0.950 . S
C1627 C1626 1.414 . S
C1627 C1628 1.374 . S
C1628 H1602 0.950 . S
C1628 C1624 1.385 . S
C1628 C1627 1.374 . S
C1629 C1626 1.499 . S
C1629 C1630 1.373 . S
C1629 C1631 1.389 . S
C1630 H1603 0.950 . S
C1630 C1616 1.377 . S
C1630 C1629 1.373 . S
C1631 C1615 1.377 . S
C1631 C1629 1.389 . S
C1631 C1632 1.524 . S
C1632 C1631 1.524 . S
C1632 C1633 1.397 . S
C1632 C1637 1.363 . S
C1633 H1604 0.950 . S
C1633 C1632 1.397 . S
C1633 C1634 1.334 . S
C1634 H1605 0.950 . S
C1634 C1633 1.334 . S
C1634 C1635 1.287 . S
C1635 C1634 1.287 . S
C1635 C1636 1.524 . S
C1635 H1638 0.999 . S
C1636 H1606 0.950 . S
C1636 C1635 1.524 . S
C1636 C1637 1.415 . S
C1637 H1607 0.950 . S
C1637 C1632 1.363 . S
C1637 C1636 1.415 . S
H1638 C1635 0.999 . S
H1639 C1620 0.913 . S
H1640 C1658 0.951 . S
H1641 C1660 0.951 . S
H1642 C1662 0.950 . S
H1643 C1663 0.950 . S
H1644 C1665 0.950 . S
H1645 C1668 0.950 . S
H1646 C1669 0.950 . S
H1647 C1671 0.950 . S
H1648 C1672 0.950 . S
H1649 C1673 0.951 . S
H1650 C1675 0.951 . S
H1651 C1677 0.950 . S
H1652 C1678 0.950 . S
H1653 C1680 0.950 . S
H1654 C1683 0.950 . S
H1655 C1684 0.950 . S
H1656 C1686 0.950 . S
H1657 C1687 0.950 . S
C1658 H1640 0.951 . S
C1658 C1659 1.366 . S
C1658 C1660 1.388 . S
C1659 C1658 1.366 . S
C1659 C1663 1.385 . S
C1660 H1641 0.951 . S
C1660 C1658 1.388 . S
C1660 C1661 1.366 . S
C1661 C1660 1.366 . S
C1661 C1662 1.414 . S
C1661 C1664 1.499 . S
C1662 H1642 0.950 . S
C1662 C1661 1.414 . S
C1662 C1663 1.374 . S
C1663 H1643 0.950 . S
C1663 C1659 1.385 . S
C1663 C1662 1.374 . S
C1664 C1661 1.499 . S
C1664 C1665 1.373 . S
C1664 C1666 1.389 . S
C1665 H1644 0.950 . S
C1665 C1664 1.373 . S
C1665 C1681 1.377 . S
C1666 C1664 1.389 . S
C1666 C1667 1.524 . S
C1666 C1680 1.377 . S
C1667 C1666 1.524 . S
C1667 C1668 1.397 . S
C1667 C1672 1.363 . S
C1668 H1645 0.950 . S
C1668 C1667 1.397 . S
C1668 C1669 1.334 . S
C1669 H1646 0.950 . S
C1669 C1668 1.334 . S
C1669 C1670 1.287 . S
C1670 C1669 1.287 . S
C1670 C1671 1.524 . S
C1670 H1689 0.913 . S
C1671 H1647 0.950 . S
C1671 C1670 1.524 . S
C1671 C1672 1.415 . S
C1672 H1648 0.950 . S
C1672 C1667 1.363 . S
C1672 C1671 1.415 . S
C1673 H1649 0.951 . S
C1673 C1674 1.366 . S
C1673 C1675 1.388 . S
C1674 C1673 1.366 . S
C1674 C1678 1.385 . S
C1675 H1650 0.951 . S
C1675 C1673 1.388 . S
C1675 C1676 1.366 . S
C1676 C1675 1.366 . S
C1676 C1677 1.414 . S
C1676 C1679 1.499 . S
C1677 H1651 0.950 . S
C1677 C1676 1.414 . S
C1677 C1678 1.374 . S
C1678 H1652 0.950 . S
C1678 C1674 1.385 . S
C1678 C1677 1.374 . S
C1679 C1676 1.499 . S
C1679 C1680 1.373 . S
C1679 C1681 1.389 . S
C1680 H1653 0.950 . S
C1680 C1666 1.377 . S
C1680 C1679 1.373 . S
C1681 C1665 1.377 . S
C1681 C1679 1.389 . S
C1681 C1682 1.524 . S
C1682 C1681 1.524 . S
C1682 C1683 1.397 . S
C1682 C1687 1.363 . S
C1683 H1654 0.950 . S
C1683 C1682 1.397 . S
C1683 C1684 1.334 . S
C1684 H1655 0.950 . S
C1684 C1683 1.334 . S
C1684 C1685 1.287 . S
C1685 C1684 1.287 . S
C1685 C1686 1.524 . S
C1685 H1688 0.999 . S
C1686 H1656 0.950 . S
C1686 C1685 1.524 . S
C1686 C1687 1.415 . S
C1687 H1657 0.950 . S
C1687 C1682 1.363 . S
C1687 C1686 1.415 . S
H1688 C1685 0.999 . S
H1689 C1670 0.913 . S
H1690 C1708 0.951 . S
H1691 C1710 0.951 . S
H1692 C1712 0.950 . S
H1693 C1713 0.950 . S
H1694 C1715 0.950 . S
H1695 C1718 0.950 . S
H1696 C1719 0.950 . S
H1697 C1721 0.950 . S
H1698 C1722 0.950 . S
H1699 C1723 0.951 . S
H1700 C1725 0.951 . S
H1701 C1727 0.950 . S
H1702 C1728 0.950 . S
H1703 C1730 0.950 . S
H1704 C1733 0.950 . S
H1705 C1734 0.950 . S
H1706 C1736 0.950 . S
H1707 C1737 0.950 . S
C1708 H1690 0.951 . S
C1708 C1709 1.366 . S
C1708 C1710 1.388 . S
C1709 C1708 1.366 . S
C1709 C1713 1.385 . S
C1710 H1691 0.951 . S
C1710 C1708 1.388 . S
C1710 C1711 1.366 . S
C1711 C1710 1.366 . S
C1711 C1712 1.414 . S
C1711 C1714 1.499 . S
C1712 H1692 0.950 . S
C1712 C1711 1.414 . S
C1712 C1713 1.374 . S
C1713 H1693 0.950 . S
C1713 C1709 1.385 . S
C1713 C1712 1.374 . S
C1714 C1711 1.499 . S
C1714 C1715 1.373 . S
C1714 C1716 1.389 . S
C1715 H1694 0.950 . S
C1715 C1714 1.373 . S
C1715 C1731 1.377 . S
C1716 C1714 1.389 . S
C1716 C1717 1.524 . S
C1716 C1730 1.377 . S
C1717 C1716 1.524 . S
C1717 C1718 1.397 . S
C1717 C1722 1.363 . S
C1718 H1695 0.950 . S
C1718 C1717 1.397 . S
C1718 C1719 1.334 . S
C1719 H1696 0.950 . S
C1719 C1718 1.334 . S
C1719 C1720 1.287 . S
C1720 C1719 1.287 . S
C1720 C1721 1.524 1_554 S
C1720 H1739 0.913 1_554 S
C1721 H1697 0.950 . S
C1721 C1720 1.524 1_556 S
C1721 C1722 1.415 1_556 S
C1722 H1698 0.950 . S
C1722 C1717 1.363 . S
C1722 C1721 1.415 1_554 S
C1723 H1699 0.951 . S
C1723 C1724 1.366 . S
C1723 C1725 1.388 . S
C1724 C1723 1.366 . S
C1724 C1728 1.385 . S
C1725 H1700 0.951 . S
C1725 C1723 1.388 . S
C1725 C1726 1.366 . S
C1726 C1725 1.366 . S
C1726 C1727 1.414 . S
C1726 C1729 1.499 . S
C1727 H1701 0.950 . S
C1727 C1726 1.414 . S
C1727 C1728 1.374 . S
C1728 H1702 0.950 . S
C1728 C1724 1.385 . S
C1728 C1727 1.374 . S
C1729 C1726 1.499 . S
C1729 C1730 1.373 . S
C1729 C1731 1.389 . S
C1730 H1703 0.950 . S
C1730 C1716 1.377 . S
C1730 C1729 1.373 . S
C1731 C1715 1.377 . S
C1731 C1729 1.389 . S
C1731 C1732 1.524 . S
C1732 C1731 1.524 . S
C1732 C1733 1.397 . S
C1732 C1737 1.363 . S
C1733 H1704 0.950 . S
C1733 C1732 1.397 . S
C1733 C1734 1.334 . S
C1734 H1705 0.950 . S
C1734 C1733 1.334 . S
C1734 C1735 1.287 . S
C1735 C1734 1.287 . S
C1735 C1736 1.524 . S
C1735 H1738 0.999 . S
C1736 H1706 0.950 . S
C1736 C1735 1.524 . S
C1736 C1737 1.415 . S
C1737 H1707 0.950 . S
C1737 C1732 1.363 . S
C1737 C1736 1.415 . S
H1738 C1735 0.999 . S
H1739 C1720 0.913 1_556 S
H1740 C1758 0.951 . S
H1741 C1760 0.951 . S
H1742 C1762 0.950 . S
H1743 C1763 0.950 . S
H1744 C1765 0.950 . S
H1745 C1768 0.950 . S
H1746 C1769 0.950 . S
H1747 C1771 0.984 . S
H1748 C1772 0.950 . S
H1749 C1773 0.951 . S
H1750 C1775 0.951 . S
H1751 C1777 0.950 . S
H1752 C1778 0.950 1_655 S
H1753 C1780 0.950 . S
H1754 C1783 0.950 . S
H1755 C1784 0.950 . S
H1756 C1786 0.950 . S
H1757 C1787 0.950 . S
C1758 H1740 0.951 . S
C1758 C1759 1.366 . S
C1758 C1760 1.388 . S
C1759 C1758 1.366 . S
C1759 C1763 1.385 . S
C1760 H1741 0.951 . S
C1760 C1758 1.388 . S
C1760 C1761 1.366 . S
C1761 C1760 1.366 . S
C1761 C1762 1.414 . S
C1761 C1764 1.499 . S
C1762 H1742 0.950 . S
C1762 C1761 1.414 . S
C1762 C1763 1.374 . S
C1763 H1743 0.950 . S
C1763 C1759 1.385 . S
C1763 C1762 1.374 . S
C1764 C1761 1.499 . S
C1764 C1765 1.373 . S
C1764 C1766 1.389 . S
C1765 H1744 0.950 . S
C1765 C1764 1.373 . S
C1765 C1781 1.377 . S
C1766 C1764 1.389 . S
C1766 C1767 1.524 . S
C1766 C1780 1.377 . S
C1767 C1766 1.524 . S
C1767 C1768 1.397 . S
C1767 C1772 1.363 . S
C1768 H1745 0.950 . S
C1768 C1767 1.397 . S
C1768 C1769 1.334 . S
C1769 H1746 0.950 . S
C1769 C1768 1.334 . S
C1769 C1770 1.287 . S
C1770 C1769 1.287 . S
C1770 C1771 1.504 1_455 S
C1770 H1789 0.913 . S
C1771 H1747 0.984 . S
C1771 C1770 1.504 1_655 S
C1771 C1772 1.396 1_655 S
C1772 H1748 0.950 . S
C1772 C1767 1.363 . S
C1772 C1771 1.396 1_455 S
C1773 H1749 0.951 . S
C1773 C1774 1.366 . S
C1773 C1775 1.388 . S
C1774 C1773 1.366 . S
C1774 C1778 1.385 . S
C1775 H1750 0.951 . S
C1775 C1773 1.388 . S
C1775 C1776 1.366 . S
C1776 C1775 1.366 . S
C1776 C1777 1.414 . S
C1776 C1779 1.499 . S
C1777 H1751 0.950 . S
C1777 C1776 1.414 . S
C1777 C1778 1.374 . S
C1778 H1752 0.950 1_455 S
C1778 C1774 1.385 . S
C1778 C1777 1.374 . S
C1779 C1776 1.499 . S
C1779 C1780 1.373 . S
C1779 C1781 1.389 . S
C1780 H1753 0.950 . S
C1780 C1766 1.377 . S
C1780 C1779 1.373 . S
C1781 C1765 1.377 . S
C1781 C1779 1.389 . S
C1781 C1782 1.524 . S
C1782 C1781 1.524 . S
C1782 C1783 1.397 . S
C1782 C1787 1.363 . S
C1783 H1754 0.950 . S
C1783 C1782 1.397 . S
C1783 C1784 1.334 . S
C1784 H1755 0.950 . S
C1784 C1783 1.334 . S
C1784 C1785 1.287 . S
C1785 C1784 1.287 . S
C1785 C1786 1.524 . S
C1785 H1788 0.999 . S
C1786 H1756 0.950 . S
C1786 C1785 1.524 . S
C1786 C1787 1.415 . S
C1787 H1757 0.950 . S
C1787 C1782 1.363 . S
C1787 C1786 1.415 . S
H1788 C1785 0.999 . S
H1789 C1770 0.913 . S
H1790 C1808 0.951 . S
H1791 C1810 0.951 . S
H1792 C1812 0.950 . S
H1793 C1813 0.950 . S
H1794 C1815 0.950 . S
H1795 C1818 0.950 . S
H1796 C1819 0.950 . S
H1797 C1821 0.950 . S
H1798 C1822 0.950 . S
H1799 C1823 0.951 . S
H1800 C1825 0.951 . S
H1801 C1827 0.950 . S
H1802 C1828 0.950 . S
H1803 C1830 0.950 . S
H1804 C1833 0.950 . S
H1805 C1834 0.950 . S
H1806 C1836 0.950 . S
H1807 C1837 0.950 . S
C1808 H1790 0.951 . S
C1808 C1809 1.366 . S
C1808 C1810 1.388 . S
C1809 C1808 1.366 . S
C1809 C1813 1.385 . S
C1810 H1791 0.951 . S
C1810 C1808 1.388 . S
C1810 C1811 1.366 . S
C1811 C1810 1.366 . S
C1811 C1812 1.414 . S
C1811 C1814 1.499 . S
C1812 H1792 0.950 . S
C1812 C1811 1.414 . S
C1812 C1813 1.374 . S
C1813 H1793 0.950 . S
C1813 C1809 1.385 . S
C1813 C1812 1.374 . S
C1814 C1811 1.499 . S
C1814 C1815 1.373 . S
C1814 C1816 1.389 . S
C1815 H1794 0.950 . S
C1815 C1814 1.373 . S
C1815 C1831 1.377 . S
C1816 C1814 1.389 . S
C1816 C1817 1.524 . S
C1816 C1830 1.377 . S
C1817 C1816 1.524 . S
C1817 C1818 1.397 . S
C1817 C1822 1.363 . S
C1818 H1795 0.950 . S
C1818 C1817 1.397 . S
C1818 C1819 1.334 . S
C1819 H1796 0.950 . S
C1819 C1818 1.334 . S
C1819 C1820 1.287 . S
C1820 C1819 1.287 . S
C1820 C1821 1.524 . S
C1820 H1839 0.913 . S
C1821 H1797 0.950 . S
C1821 C1820 1.524 . S
C1821 C1822 1.415 . S
C1822 H1798 0.950 . S
C1822 C1817 1.363 . S
C1822 C1821 1.415 . S
C1823 H1799 0.951 . S
C1823 C1824 1.366 . S
C1823 C1825 1.388 . S
C1824 C1823 1.366 . S
C1824 C1828 1.385 . S
C1825 H1800 0.951 . S
C1825 C1823 1.388 . S
C1825 C1826 1.366 . S
C1826 C1825 1.366 . S
C1826 C1827 1.414 . S
C1826 C1829 1.499 . S
C1827 H1801 0.950 . S
C1827 C1826 1.414 . S
C1827 C1828 1.374 . S
C1828 H1802 0.950 . S
C1828 C1824 1.385 . S
C1828 C1827 1.374 . S
C1829 C1826 1.499 . S
C1829 C1830 1.373 . S
C1829 C1831 1.389 . S
C1830 H1803 0.950 . S
C1830 C1816 1.377 . S
C1830 C1829 1.373 . S
C1831 C1815 1.377 . S
C1831 C1829 1.389 . S
C1831 C1832 1.524 . S
C1832 C1831 1.524 . S
C1832 C1833 1.397 . S
C1832 C1837 1.363 . S
C1833 H1804 0.950 . S
C1833 C1832 1.397 . S
C1833 C1834 1.334 . S
C1834 H1805 0.950 . S
C1834 C1833 1.334 . S
C1834 C1835 1.287 . S
C1835 C1834 1.287 . S
C1835 C1836 1.524 . S
C1835 H1838 0.999 . S
C1836 H1806 0.950 . S
C1836 C1835 1.524 . S
C1836 C1837 1.415 . S
C1837 H1807 0.950 . S
C1837 C1832 1.363 . S
C1837 C1836 1.415 . S
H1838 C1835 0.999 . S
H1839 C1820 0.913 . S
C659 C1 0.828 . S
C674 C484 0.845 . S
C709 C80 1.195 . S
C724 C545 1.239 . S
C774 C583 2.494 . S
C759 C140 2.516 . S
C809 C211 2.254 . S
C824 C623 2.235 . S
C874 C543 1.226 . S
C859 C31 1.169 . S
C924 C511 2.131 . S
C909 C61 2.068 . S
C974 C620 1.675 . S
C959 C151 1.635 . S
C1024 C580 1.797 . S
C1009 C200 1.788 . S
C1059 C20 0.971 . S
C1074 C625 0.981 . S
C1124 C540 2.399 . S
C1109 C121 2.366 . S
C1159 C181 2.089 . S
C1174 C482 2.105 . S
C1209 C91 1.520 . S
C1224 C585 1.521 . S
C1274 C505 0.845 . S
C1259 C260 0.837 . S
C1309 C320 1.195 . S
C1324 C524 1.234 . S
C1359 C361 2.541 . S
C1374 C562 2.494 . S
C1409 C451 2.254 . S
C1424 C602 2.241 . S
C1459 C271 1.201 . S
C1474 C522 1.230 . S
C1524 C500 2.131 . S
C1509 C301 2.067 . S
C1574 C631 1.675 . S
C1559 C380 1.648 . S
C1624 C591 1.797 . S
C1609 C440 1.788 . S
C1659 C241 0.938 . S
C1674 C604 0.984 . S
C1724 C551 2.399 . S
C1709 C391 2.387 . S
C1774 C503 2.104 . S
C1759 C421 2.087 . S
C1809 C331 1.521 . S
C1824 C564 1.522 . S
