# Generated by pormake.
# Topology pth, (4,4)-cn, num edge types: 1
# Building blocks:
#     Node 0, Type 0, BuildingBlock: QUQFOY_clean_sbu_1, # of connection points: 4
#     Node 1, Type 0, BuildingBlock: QUQFOY_clean_sbu_1, # of connection points: 4
#     Node 2, Type 0, BuildingBlock: QUQFOY_clean_sbu_1, # of connection points: 4
#     Node 3, Type 1, BuildingBlock: MIFKUJ_clean_linker_1, # of connection points: 4
#     Node 4, Type 1, BuildingBlock: MIFKUJ_clean_linker_1, # of connection points: 4
#     Node 5, Type 1, BuildingBlock: MIFKUJ_clean_linker_1, # of connection points: 4
#     Edge 6, Type (0, 1), BuildingBlock: KIFKEQ_clean_linker_1, # of connection points: 2
#     Edge 7, Type (0, 1), BuildingBlock: KIFKEQ_clean_linker_1, # of connection points: 2
#     Edge 8, Type (0, 1), BuildingBlock: KIFKEQ_clean_linker_1, # of connection points: 2
#     Edge 9, Type (0, 1), BuildingBlock: KIFKEQ_clean_linker_1, # of connection points: 2
#     Edge 10, Type (0, 1), BuildingBlock: KIFKEQ_clean_linker_1, # of connection points: 2
#     Edge 11, Type (0, 1), BuildingBlock: KIFKEQ_clean_linker_1, # of connection points: 2
#     Edge 12, Type (0, 1), BuildingBlock: KIFKEQ_clean_linker_1, # of connection points: 2
#     Edge 13, Type (0, 1), BuildingBlock: KIFKEQ_clean_linker_1, # of connection points: 2
#     Edge 14, Type (0, 1), BuildingBlock: KIFKEQ_clean_linker_1, # of connection points: 2
#     Edge 15, Type (0, 1), BuildingBlock: KIFKEQ_clean_linker_1, # of connection points: 2
#     Edge 16, Type (0, 1), BuildingBlock: KIFKEQ_clean_linker_1, # of connection points: 2
#     Edge 17, Type (0, 1), BuildingBlock: KIFKEQ_clean_linker_1, # of connection points: 2
# Relax obj value: 0.028
# Max RMSD: 0.131
# Mean RMSD: 0.087
data_MOF--net-pth--node1-QUQFOY_clean_sbu_1--node2-MIFKUJ_clean_linker_1--edge1-KIFKEQ_clean_linker_1
_symmetry_space_group_name_H-M    P1
_symmetry_Int_Tables_number       1
_symmetry_cell_setting            triclinic
loop_
_symmetry_equiv_pos_as_xyz
'x, y, z'
_cell_length_a     29.159232
_cell_length_b     31.132393
_cell_length_c     65.932861
_cell_angle_alpha  89.994683
_cell_angle_beta   89.98311
_cell_angle_gamma 120.00995
loop_
_atom_site_label
_atom_site_type_symbol
_atom_site_fract_x
_atom_site_fract_y
_atom_site_fract_z
_atom_type_partial_charge
O0 O 0.02871 0.07255 0.0558 0.0
Cd1 Cd 0.96944 0.02635 0.07541 0.0
Cd2 Cd 0.02684 0.98236 0.07604 0.0
O3 O 0.08572 0.04871 0.06412 0.0
O4 O 0.93559 0.06533 0.084 0.0
O5 O 0.97998 0.04409 0.10505 0.0
C6 C 0.95472 0.06774 0.10187 0.0
C7 C 0.04027 0.94243 0.1034 0.0
C8 C 0.07491 0.07821 0.05471 0.0
C9 C 0.92179 0.92959 0.05489 0.0
O10 O 0.96779 0.9349 0.05652 0.0
O11 O 0.91107 0.95993 0.06363 0.0
O12 O 0.06065 0.94422 0.08583 0.0
O13 O 0.01449 0.96589 0.10576 0.0
O14 O 0.97135 0.0447 0.41999 0.0
Cd15 Cd 0.02991 0.05452 0.39992 0.0
Cd16 Cd 0.97428 0.95663 0.40033 0.0
O17 O 0.91518 0.9664 0.41295 0.0
O18 O 0.06238 0.12542 0.39182 0.0
O19 O 0.01941 0.06341 0.37032 0.0
C20 C 0.04372 0.11056 0.37386 0.0
C21 C 0.95975 0.90249 0.3735 0.0
C22 C 0.92593 1.00642 0.422 0.0
C23 C 0.08037 1.0054 0.42079 0.0
O24 O 0.03491 0.96679 0.41945 0.0
O25 O 0.08971 0.04502 0.41172 0.0
O26 O 0.94105 0.8863 0.39137 0.0
O27 O 0.98454 0.94989 0.37054 0.0
O28 O 0.92492 0.97385 0.72034 0.0
Cd29 Cd 0.9678 0.95349 0.73859 0.0
Cd30 Cd 0.03144 0.05299 0.74111 0.0
O31 O 0.96985 0.05443 0.726 0.0
O32 O 0.91627 0.88377 0.74616 0.0
O33 O 0.95402 0.94439 0.76867 0.0
C34 C 0.92089 0.89833 0.76474 0.0
C35 C 0.07305 0.10653 0.76839 0.0
C36 C 0.93133 0.01689 0.71767 0.0
C37 C 0.07327 0.99341 0.7196 0.0
O38 O 0.08001 0.03581 0.72427 0.0
O39 O 0.03134 0.95409 0.72482 0.0
O40 O 0.07924 0.12262 0.75001 0.0
O41 O 0.04155 0.05971 0.77145 0.0
H42 H 0.06083 0.46429 0.19601 0.0
H43 H 0.05072 0.39266 0.17683 0.0
H44 H 0.91016 0.29662 0.21142 0.0
H45 H 0.91972 0.36837 0.23011 0.0
H46 H 0.99968 0.50555 0.19966 0.0
H47 H 0.07126 0.43506 0.24343 0.0
H48 H 0.07913 0.37242 0.263 0.0
H49 H 0.94344 0.34593 0.29888 0.0
H50 H 0.93546 0.40843 0.27913 0.0
H51 H 0.92241 0.52945 0.27574 0.0
H52 H 0.91486 0.59198 0.2955 0.0
H53 H 0.05798 0.70713 0.26773 0.0
H54 H 0.06603 0.64416 0.2482 0.0
H55 H 0.99734 0.50353 0.2749 0.0
H56 H 0.93108 0.58076 0.22724 0.0
H57 H 0.94021 0.65355 0.2095 0.0
H58 H 0.08265 0.67363 0.18048 0.0
H59 H 0.07483 0.60263 0.19915 0.0
C60 C 0.9913 0.42169 0.2146 0.0
C61 C 0.02774 0.42782 0.19938 0.0
C62 C 0.02217 0.38678 0.18857 0.0
C63 C 0.97974 0.33886 0.19266 0.0
C64 C 0.94303 0.333 0.20778 0.0
C65 C 0.94869 0.37396 0.21859 0.0
C66 C 0.99753 0.46491 0.22645 0.0
C67 C 0.9998 0.50541 0.21612 0.0
C68 C 0.99828 0.46497 0.24792 0.0
C69 C 0.00246 0.42624 0.25967 0.0
C70 C 0.04273 0.41532 0.25532 0.0
C71 C 0.04719 0.37944 0.26651 0.0
C72 C 0.01188 0.35414 0.28248 0.0
C73 C 0.9716 0.36514 0.28681 0.0
C74 C 0.96697 0.40083 0.27553 0.0
C75 C 0.99449 0.58204 0.26033 0.0
C76 C 0.95244 0.56811 0.274 0.0
C77 C 0.94814 0.60388 0.28528 0.0
C78 C 0.98574 0.65446 0.28311 0.0
C79 C 0.02805 0.66847 0.26951 0.0
C80 C 0.0327 0.63253 0.25837 0.0
C81 C 0.99747 0.54331 0.24814 0.0
C82 C 0.99718 0.50365 0.25844 0.0
C83 C 0.99998 0.54478 0.22666 0.0
C84 C 0.00278 0.58668 0.21481 0.0
C85 C 0.96449 0.60111 0.21717 0.0
C86 C 0.96953 0.64255 0.20685 0.0
C87 C 0.01249 0.66995 0.19365 0.0
C88 C 0.04976 0.6543 0.19086 0.0
C89 C 0.04498 0.61323 0.20133 0.0
H90 H 0.60649 0.08506 0.53028 0.0
H91 H 0.6703 0.0825 0.50732 0.0
H92 H 0.65838 0.95721 0.54034 0.0
H93 H 0.59148 0.95786 0.56239 0.0
H94 H 0.50955 0.02255 0.53371 0.0
H95 H 0.65479 0.08635 0.57954 0.0
H96 H 0.7262 0.09422 0.60168 0.0
H97 H 0.61368 0.96523 0.63526 0.0
H98 H 0.54288 0.95567 0.61261 0.0
H99 H 0.40705 0.93859 0.61005 0.0
H100 H 0.33811 0.93199 0.63308 0.0
H101 H 0.34154 0.05759 0.6039 0.0
H102 H 0.41256 0.06591 0.58142 0.0
H103 H 0.50292 0.00924 0.60858 0.0
H104 H 0.36084 0.94134 0.5568 0.0
H105 H 0.29421 0.93908 0.53348 0.0
H106 H 0.4064 0.08748 0.5133 0.0
H107 H 0.47279 0.0889 0.53622 0.0
C108 C 0.59424 0.02184 0.54816 0.0
C109 C 0.61766 0.05706 0.53261 0.0
C110 C 0.65467 0.05583 0.51959 0.0
C111 C 0.66972 0.01964 0.52192 0.0
C112 C 0.64723 0.98515 0.53786 0.0
C113 C 0.60954 0.98598 0.55073 0.0
C114 C 0.55075 0.0203 0.56047 0.0
C115 C 0.50859 0.02021 0.55015 0.0
C116 C 0.54893 0.01668 0.58189 0.0
C117 C 0.59333 0.02013 0.59425 0.0
C118 C 0.64559 0.05901 0.59133 0.0
C119 C 0.68628 0.06379 0.60406 0.0
C120 C 0.67505 0.03059 0.62021 0.0
C121 C 0.62305 0.9916 0.62303 0.0
C122 C 0.58269 0.98617 0.61008 0.0
C123 C 0.41497 1.00259 0.59387 0.0
C124 C 0.39292 0.96467 0.60849 0.0
C125 C 0.35357 0.96083 0.62163 0.0
C126 C 0.33483 0.99432 0.6202 0.0
C127 C 0.35522 0.03112 0.60512 0.0
C128 C 0.39549 0.03563 0.5922 0.0
C129 C 0.46116 0.00951 0.58176 0.0
C130 C 0.50404 0.01116 0.59215 0.0
C131 C 0.46411 0.01521 0.56046 0.0
C132 C 0.42165 0.01529 0.54821 0.0
C133 C 0.37067 0.97356 0.54753 0.0
C134 C 0.33268 0.97239 0.53422 0.0
C135 C 0.34518 0.01293 0.52136 0.0
C136 C 0.39581 0.05524 0.52265 0.0
C137 C 0.43368 0.05627 0.53585 0.0
H138 H 0.46592 0.40028 0.87627 0.0
H139 H 0.39345 0.33588 0.85623 0.0
H140 H 0.28341 0.37072 0.88547 0.0
H141 H 0.35613 0.43564 0.90515 0.0
H142 H 0.50492 0.49865 0.8769 0.0
H143 H 0.42579 0.36632 0.92382 0.0
H144 H 0.35942 0.30032 0.94501 0.0
H145 H 0.33664 0.40851 0.97786 0.0
H146 H 0.40002 0.47359 0.95563 0.0
H147 H 0.526 0.60832 0.94882 0.0
H148 H 0.59135 0.67517 0.97019 0.0
H149 H 0.71273 0.64615 0.94805 0.0
H150 H 0.6469 0.57873 0.92693 0.0
H151 H 0.49829 0.50965 0.95178 0.0
H152 H 0.56175 0.63587 0.89766 0.0
H153 H 0.63065 0.70145 0.87659 0.0
H154 H 0.69057 0.60382 0.86114 0.0
H155 H 0.62101 0.53807 0.88194 0.0
C156 C 0.41644 0.42258 0.8923 0.0
C157 C 0.42617 0.39396 0.87837 0.0
C158 C 0.38465 0.3569 0.86707 0.0
C159 C 0.33266 0.34811 0.86931 0.0
C160 C 0.32304 0.37679 0.8833 0.0
C161 C 0.36451 0.41365 0.89466 0.0
C162 C 0.46064 0.46272 0.90398 0.0
C163 C 0.50365 0.50056 0.8933 0.0
C164 C 0.45903 0.46558 0.92539 0.0
C165 C 0.41748 0.42497 0.93788 0.0
C166 C 0.40561 0.37568 0.93528 0.0
C167 C 0.36821 0.338 0.94768 0.0
C168 C 0.34258 0.34891 0.96325 0.0
C169 C 0.35474 0.39839 0.96584 0.0
C170 C 0.39151 0.43587 0.95325 0.0
C171 C 0.58169 0.5888 0.93623 0.0
C172 C 0.5668 0.61667 0.94846 0.0
C173 C 0.6042 0.655 0.96057 0.0
C174 C 0.65713 0.66582 0.96082 0.0
C175 C 0.67213 0.63833 0.9483 0.0
C176 C 0.63472 0.60017 0.93609 0.0
C177 C 0.54095 0.54589 0.92464 0.0
C178 C 0.49904 0.50742 0.93537 0.0
C179 C 0.54371 0.54214 0.9034 0.0
C180 C 0.5864 0.58224 0.8913 0.0
C181 C 0.5899 0.62874 0.88979 0.0
C182 C 0.6291 0.66604 0.87777 0.0
C183 C 0.6659 0.65763 0.86732 0.0
C184 C 0.66296 0.61135 0.8692 0.0
C185 C 0.62316 0.57377 0.88093 0.0
H186 H 0.00522 0.09444 0.13864 0.0
H187 H 0.89816 0.11576 0.10027 0.0
H188 H 0.00852 0.15646 0.16228 0.0
H189 H 0.90197 0.1779 0.12367 0.0
H190 H 0.88841 0.2617 0.17729 0.0
H191 H 0.87807 0.19097 0.15768 0.0
H192 H 0.04653 0.24723 0.16161 0.0
H193 H 0.05664 0.31723 0.18176 0.0
C194 C 0.98183 0.11181 0.13539 0.0
C195 C 0.95156 0.10027 0.11754 0.0
C196 C 0.98408 0.14765 0.14884 0.0
C197 C 0.95581 0.17239 0.14479 0.0
C198 C 0.92387 0.15928 0.12735 0.0
C199 C 0.92185 0.12374 0.11388 0.0
C200 C 0.92315 0.25864 0.17421 0.0
C201 C 0.97339 0.29523 0.18104 0.0
C202 C 0.91727 0.21831 0.16282 0.0
C203 C 0.96147 0.21346 0.15805 0.0
C204 C 0.01158 0.24955 0.1652 0.0
C205 C 0.01749 0.29002 0.17652 0.0
H206 H 0.94562 0.07546 0.45104 0.0
H207 H 0.81905 0.94114 0.42482 0.0
H208 H 0.88427 0.07738 0.47528 0.0
H209 H 0.7565 0.94432 0.44857 0.0
H210 H 0.66886 0.93688 0.50687 0.0
H211 H 0.73034 0.93335 0.48293 0.0
H212 H 0.81493 0.09341 0.4787 0.0
H213 H 0.75637 0.09707 0.50383 0.0
C214 C 0.90439 0.04668 0.45024 0.0
C215 C 0.88717 0.00821 0.43595 0.0
C216 C 0.869 0.04793 0.46413 0.0
C217 C 0.81516 0.01118 0.4639 0.0
C218 C 0.79779 0.97286 0.44943 0.0
C219 C 0.83351 0.9712 0.4357 0.0
C220 C 0.7012 0.97139 0.50115 0.0
C221 C 0.70758 0.01729 0.5074 0.0
C222 C 0.73598 0.96932 0.4871 0.0
C223 C 0.77769 0.01306 0.47876 0.0
C224 C 0.78386 0.0589 0.48497 0.0
C225 C 0.74962 0.06099 0.49921 0.0
H226 H 0.83055 0.81005 0.75935 0.0
H227 H 0.93348 0.90821 0.80609 0.0
H228 H 0.7706 0.75432 0.78524 0.0
H229 H 0.87348 0.85129 0.83211 0.0
H230 H 0.77285 0.69384 0.86641 0.0
H231 H 0.8374 0.75438 0.84246 0.0
H232 H 0.71229 0.76715 0.81329 0.0
H233 H 0.64811 0.7075 0.83736 0.0
C234 C 0.84068 0.8195 0.77516 0.0
C235 C 0.88675 0.86356 0.78069 0.0
C236 C 0.80617 0.7877 0.78995 0.0
C237 C 0.8174 0.79873 0.8106 0.0
C238 C 0.8641 0.84204 0.81624 0.0
C239 C 0.89825 0.87454 0.80139 0.0
C240 C 0.7594 0.70997 0.85496 0.0
C241 C 0.70561 0.69609 0.85368 0.0
C242 C 0.79625 0.74466 0.84138 0.0
C243 C 0.77962 0.76515 0.82605 0.0
C244 C 0.72597 0.75167 0.82494 0.0
C245 C 0.68939 0.71781 0.83874 0.0
H246 H 0.97969 0.90907 0.13777 0.0
H247 H 0.10472 0.90248 0.1053 0.0
H248 H 0.97481 0.84682 0.16172 0.0
H249 H 0.09989 0.84059 0.1292 0.0
H250 H 0.10412 0.75699 0.1853 0.0
H251 H 0.11428 0.8277 0.16572 0.0
H252 H 0.94474 0.75555 0.15817 0.0
H253 H 0.9344 0.68414 0.17724 0.0
C254 C 0.00678 0.89505 0.13596 0.0
C255 C 0.04247 0.91057 0.1196 0.0
C256 C 0.00367 0.85914 0.14957 0.0
C257 C 0.03673 0.8386 0.14725 0.0
C258 C 0.07414 0.85593 0.13147 0.0
C259 C 0.07678 0.8913 0.11774 0.0
C260 C 0.06894 0.75591 0.17936 0.0
C261 C 0.01843 0.71444 0.18273 0.0
C262 C 0.07483 0.79662 0.16824 0.0
C263 C 0.03034 0.79718 0.16041 0.0
C264 C 0.97974 0.7565 0.16425 0.0
C265 C 0.97385 0.71554 0.17521 0.0
H266 H 0.07066 0.92918 0.44442 0.0
H267 H 0.18185 0.08067 0.42753 0.0
H268 H 0.13496 0.93012 0.46825 0.0
H269 H 0.24594 0.0816 0.45156 0.0
H270 H 0.36461 0.04627 0.48221 0.0
H271 H 0.30172 0.04362 0.45723 0.0
H272 H 0.17507 0.97111 0.50084 0.0
H273 H 0.23813 0.97423 0.52598 0.0
C274 C 0.10891 0.96261 0.44568 0.0
C275 C 0.12105 1.00492 0.43408 0.0
C276 C 0.14558 0.96321 0.45946 0.0
C277 C 0.19533 1.00602 0.46189 0.0
C278 C 0.20803 0.04793 0.44993 0.0
C279 C 0.17125 0.04743 0.4362 0.0
C280 C 0.32346 0.03025 0.48657 0.0
C281 C 0.30646 0.01073 0.50615 0.0
C282 C 0.28743 0.02865 0.47223 0.0
C283 C 0.23349 0.00721 0.47707 0.0
C284 C 0.21632 0.98729 0.49658 0.0
C285 C 0.25242 0.98907 0.51097 0.0
H286 H 0.08704 0.08303 0.80713 0.0
H287 H 0.12937 0.20742 0.7672 0.0
H288 H 0.14525 0.13996 0.83333 0.0
H289 H 0.18736 0.2639 0.7932 0.0
H290 H 0.31159 0.25417 0.86008 0.0
H291 H 0.24337 0.19443 0.83729 0.0
H292 H 0.18647 0.29685 0.82723 0.0
H293 H 0.25529 0.35692 0.84964 0.0
C294 C 0.10821 0.12249 0.80404 0.0
C295 C 0.10373 0.14071 0.78507 0.0
C296 C 0.14178 0.15502 0.81897 0.0
C297 C 0.171 0.2064 0.81531 0.0
C298 C 0.16501 0.22461 0.79659 0.0
C299 C 0.13195 0.19216 0.78164 0.0
C300 C 0.28444 0.26385 0.85301 0.0
C301 C 0.28902 0.31037 0.85657 0.0
C302 C 0.24502 0.22944 0.84014 0.0
C303 C 0.2096 0.24097 0.83044 0.0
C304 C 0.21345 0.28704 0.83436 0.0
C305 C 0.2526 0.32128 0.84733 0.0
H306 H 0.90893 0.09269 0.71631 0.0
H307 H 0.87349 0.95516 0.68712 0.0
H308 H 0.84977 0.10188 0.69236 0.0
H309 H 0.81598 0.96517 0.6631 0.0
H310 H 0.76738 0.03334 0.61085 0.0
H311 H 0.83289 0.03472 0.63463 0.0
H312 H 0.74275 0.04271 0.68494 0.0
H313 H 0.67665 0.04016 0.66121 0.0
C314 C 0.88872 0.06463 0.70478 0.0
C315 C 0.89555 0.02308 0.70365 0.0
C316 C 0.85502 0.0699 0.69114 0.0
C317 C 0.82889 0.03439 0.67588 0.0
C318 C 0.83617 0.99325 0.67464 0.0
C319 C 0.86873 0.98739 0.68849 0.0
C320 C 0.76209 0.03602 0.62698 0.0
C321 C 0.71711 0.03639 0.6343 0.0
C322 C 0.79931 0.03669 0.64052 0.0
C323 C 0.79263 0.03886 0.66153 0.0
C324 C 0.74882 0.04139 0.66879 0.0
C325 C 0.71104 0.03965 0.65528 0.0
H326 H 0.93506 0.86451 0.03134 0.0
H327 H 0.81796 0.90371 0.0491 0.0
H328 H 0.8712 0.80128 1.00873 0.0
H329 H 0.75339 0.83922 0.02684 0.0
H330 H 0.67202 0.75851 0.96797 0.0
H331 H 0.73496 0.82128 0.99124 0.0
H332 H 0.79181 0.72223 1.00862 0.0
H333 H 0.72951 0.65997 0.98513 0.0
C334 C 0.89548 0.8593 0.0306 0.0
C335 C 0.88168 0.88928 0.04203 0.0
C336 C 0.85872 0.8228 0.01768 0.0
C337 C 0.80711 0.81513 0.01593 0.0
C338 C 0.79304 0.84464 0.02758 0.0
C339 C 0.82995 0.88138 0.04046 0.0
C340 C 0.6979 0.75019 0.97683 0.0
C341 C 0.69602 0.70443 0.97466 0.0
C342 C 0.73382 0.78605 0.99022 0.0
C343 C 0.76845 0.77683 1.00183 0.0
C344 C 0.76636 0.73093 0.99968 0.0
C345 C 0.73068 0.69523 0.98621 0.0
H346 H 0.89398 0.80244 0.37237 0.0
H347 H 0.01986 0.92346 0.33909 0.0
H348 H 0.89732 0.74336 0.34916 0.0
H349 H 0.02485 0.8642 0.31625 0.0
H350 H 0.99602 0.74259 0.27022 0.0
H351 H 0.98498 0.80297 0.29024 0.0
H352 H 0.95493 0.71186 0.34358 0.0
H353 H 0.96458 0.65141 0.32348 0.0
C354 C 0.92216 0.81644 0.35998 0.0
C355 C 0.95688 0.86759 0.35764 0.0
C356 C 0.92447 0.78252 0.34676 0.0
C357 C 0.96211 0.79882 0.33103 0.0
C358 C 0.99517 0.85021 0.3281 0.0
C359 C 0.99239 0.88425 0.34122 0.0
C360 C 0.98723 0.73573 0.28625 0.0
C361 C 0.98084 0.69215 0.29527 0.0
C362 C 0.98092 0.77031 0.29773 0.0
C363 C 0.9685 0.76219 0.31853 0.0
C364 C 0.96303 0.71886 0.32752 0.0
C365 C 0.96885 0.68423 0.31603 0.0
H366 H 0.17839 0.0613 0.71601 0.0
H367 H 0.0569 0.91901 0.69355 0.0
H368 H 0.24197 0.0594 0.69228 0.0
H369 H 0.12034 0.91796 0.66948 0.0
H370 H 0.2383 0.98517 0.61286 0.0
H371 H 0.17438 0.98179 0.63803 0.0
H372 H 0.28168 0.99718 0.68623 0.0
H373 H 0.34488 0.99929 0.66114 0.0
C374 C 0.16542 0.02953 0.70611 0.0
C375 C 0.11278 0.99026 0.70664 0.0
C376 C 0.20174 0.02846 0.69259 0.0
C377 C 0.18571 0.98868 0.67907 0.0
C378 C 0.13336 0.94911 0.67973 0.0
C379 C 0.09732 0.9496 0.69358 0.0
C380 C 0.24793 0.98765 0.62884 0.0
C381 C 0.29618 0.99236 0.63516 0.0
C382 C 0.21146 0.98547 0.64318 0.0
C383 C 0.22334 0.98914 0.66397 0.0
C384 C 0.27181 0.99432 0.67026 0.0
C385 C 0.30771 0.99538 0.65597 0.0
H386 H 0.18258 0.11667 0.05477 0.0
H387 H 0.0579 0.12974 0.02524 0.0
H388 H 0.24804 0.18284 0.03326 0.0
H389 H 0.12247 0.19377 1.00318 0.0
H390 H 0.25146 0.33967 0.97951 0.0
H391 H 0.18972 0.27652 1.00257 0.0
H392 H 0.28135 0.20227 0.99986 0.0
H393 H 0.34559 0.2678 0.97807 0.0
C394 C 0.16916 0.13347 0.04361 0.0
C395 C 0.11513 0.1182 0.0418 0.0
C396 C 0.20661 0.17118 0.03117 0.0
C397 C 0.19072 0.19394 0.01646 0.0
C398 C 0.1365 0.17809 0.0146 0.0
C399 C 0.0993 0.14105 0.0272 0.0
C400 C 0.25907 0.3104 0.98407 0.0
C401 C 0.30377 0.3091 0.97689 0.0
C402 C 0.22306 0.27359 0.99709 0.0
C403 C 0.23017 0.23391 1.00305 0.0
C404 C 0.27479 0.23248 0.99583 0.0
C405 C 0.31126 0.26973 0.98301 0.0
H406 H 0.09306 0.21114 0.37736 0.0
H407 H 0.99923 0.09141 0.33586 0.0
H408 H 0.08785 0.26966 0.35437 0.0
H409 H 0.99356 0.15028 0.31286 0.0
H410 H 0.03297 0.28194 0.26959 0.0
H411 H 0.0454 0.22349 0.29044 0.0
H412 H 0.01623 0.28495 0.34437 0.0
H413 H 0.00516 0.34391 0.32366 0.0
C414 C 0.07174 0.19732 0.36323 0.0
C415 C 0.04623 0.14649 0.35852 0.0
C416 C 0.06845 0.23088 0.35011 0.0
C417 C 0.03963 0.21453 0.33194 0.0
C418 C 0.01619 0.16406 0.32673 0.0
C419 C 0.01938 0.13034 0.33992 0.0
C420 C 0.02955 0.2831 0.28591 0.0
C421 C 0.01809 0.31759 0.29497 0.0
C422 C 0.03625 0.24938 0.29782 0.0
C423 C 0.03212 0.24977 0.31906 0.0
C424 C 0.02043 0.28413 0.32807 0.0
C425 C 0.01343 0.31754 0.31618 0.0
loop_
_geom_bond_atom_site_label_1
_geom_bond_atom_site_label_2
_geom_bond_distance
_geom_bond_site_symmetry_2
_ccdc_geom_bond_type
O0 Cd1 2.223 1_455 S
O0 C8 1.315 . S
Cd1 O0 2.223 1_655 S
Cd1 O4 2.297 . S
Cd1 O5 2.439 . S
Cd1 O11 2.240 1_545 S
Cd2 O3 2.240 1_565 S
Cd2 O10 2.223 1_455 S
Cd2 O12 2.297 . S
Cd2 O13 2.439 . S
O3 Cd2 2.240 1_545 S
O3 C8 1.279 . S
O4 Cd1 2.297 . S
O4 C6 1.247 . S
O5 Cd1 2.439 . S
O5 C6 1.208 . S
C6 O4 1.247 . S
C6 O5 1.208 . S
C7 O12 1.247 . S
C7 O13 1.208 . S
C8 O0 1.315 . S
C8 O3 1.279 . S
C9 O10 1.315 . S
C9 O11 1.279 . S
O10 Cd2 2.223 1_655 S
O10 C9 1.315 . S
O11 Cd1 2.240 1_565 S
O11 C9 1.279 . S
O12 Cd2 2.297 . S
O12 C7 1.247 . S
O13 Cd2 2.439 . S
O13 C7 1.208 . S
O14 Cd15 2.223 1_655 S
O14 C22 1.315 . S
Cd15 O14 2.223 1_455 S
Cd15 O18 2.297 . S
Cd15 O19 2.439 . S
Cd15 O25 2.240 . S
Cd16 O17 2.240 . S
Cd16 O24 2.223 1_655 S
Cd16 O26 2.297 . S
Cd16 O27 2.449 . S
O17 Cd16 2.240 . S
O17 C22 1.279 1_565 S
O18 Cd15 2.297 . S
O18 C20 1.247 . S
O19 Cd15 2.439 . S
O19 C20 1.208 . S
C20 O18 1.247 . S
C20 O19 1.208 . S
C21 O26 1.247 . S
C21 O27 1.197 . S
C22 O14 1.315 . S
C22 O17 1.279 1_545 S
C23 O24 1.315 . S
C23 O25 1.279 1_565 S
O24 Cd16 2.223 1_455 S
O24 C23 1.315 . S
O25 Cd15 2.240 . S
O25 C23 1.279 1_545 S
O26 Cd16 2.297 . S
O26 C21 1.247 . S
O27 Cd16 2.449 . S
O27 C21 1.197 . S
O28 Cd29 2.223 . S
O28 C36 1.315 . S
Cd29 O28 2.223 . S
Cd29 O32 2.297 . S
Cd29 O33 2.439 . S
Cd29 O39 2.240 1_655 S
Cd30 O31 2.240 1_455 S
Cd30 O38 2.223 . S
Cd30 O40 2.297 . S
Cd30 O41 2.439 . S
O31 Cd30 2.240 1_655 S
O31 C36 1.279 1_545 S
O32 Cd29 2.297 . S
O32 C34 1.247 . S
O33 Cd29 2.439 . S
O33 C34 1.208 . S
C34 O32 1.247 . S
C34 O33 1.208 . S
C35 O40 1.247 . S
C35 O41 1.208 . S
C36 O28 1.315 . S
C36 O31 1.279 1_565 S
C37 O38 1.315 . S
C37 O39 1.279 1_545 S
O38 Cd30 2.223 . S
O38 C37 1.315 . S
O39 Cd29 2.240 1_455 S
O39 C37 1.279 1_565 S
O40 Cd30 2.297 . S
O40 C35 1.247 . S
O41 Cd30 2.439 . S
O41 C35 1.208 . S
H42 C61 0.949 . S
H43 C62 0.950 . S
H44 C64 0.950 . S
H45 C65 0.950 . S
H46 C67 0.950 . S
H47 C70 0.950 . S
H48 C71 0.950 . S
H49 C73 0.951 . S
H50 C74 0.949 . S
H51 C76 0.949 . S
H52 C77 0.950 . S
H53 C79 0.950 . S
H54 C80 0.950 . S
H55 C82 0.950 . S
H56 C85 0.950 . S
H57 C86 0.950 . S
H58 C88 0.951 . S
H59 C89 0.949 . S
C60 C61 1.376 . S
C60 C65 1.386 1_455 S
C60 C66 1.483 . S
C61 H42 0.949 . S
C61 C60 1.376 . S
C61 C62 1.397 . S
C62 H43 0.950 . S
C62 C61 1.397 . S
C62 C63 1.391 . S
C63 C62 1.391 . S
C63 C64 1.405 1_455 S
C64 H44 0.950 . S
C64 C63 1.405 1_655 S
C64 C65 1.367 . S
C65 H45 0.950 . S
C65 C60 1.386 1_655 S
C65 C64 1.367 . S
C66 C60 1.483 . S
C66 C67 1.382 . S
C66 C68 1.403 1_455 S
C67 H46 0.950 . S
C67 C66 1.382 . S
C67 C83 1.411 . S
C68 C66 1.403 1_655 S
C68 C69 1.489 . S
C68 C82 1.411 . S
C69 C68 1.489 . S
C69 C70 1.383 1_655 S
C69 C74 1.382 . S
C70 H47 0.950 . S
C70 C69 1.383 1_455 S
C70 C71 1.395 . S
C71 H48 0.950 . S
C71 C70 1.395 . S
C71 C72 1.288 1_455 S
C72 C71 1.288 1_655 S
C72 C73 1.392 . S
C73 H49 0.951 . S
C73 C72 1.392 . S
C73 C74 1.392 . S
C74 H50 0.949 . S
C74 C69 1.382 . S
C74 C73 1.392 . S
C75 C76 1.376 . S
C75 C80 1.386 1_655 S
C75 C81 1.483 . S
C76 H51 0.949 . S
C76 C75 1.376 . S
C76 C77 1.397 . S
C77 H52 0.950 . S
C77 C76 1.397 . S
C77 C78 1.391 . S
C78 C77 1.391 . S
C78 C79 1.405 1_655 S
C79 H53 0.950 . S
C79 C78 1.405 1_455 S
C79 C80 1.367 . S
C80 H54 0.950 . S
C80 C75 1.386 1_455 S
C80 C79 1.367 . S
C81 C75 1.483 . S
C81 C82 1.382 . S
C81 C83 1.403 1_655 S
C82 H55 0.950 . S
C82 C68 1.411 . S
C82 C81 1.382 . S
C83 C67 1.411 . S
C83 C81 1.403 1_455 S
C83 C84 1.489 . S
C84 C83 1.489 . S
C84 C85 1.383 1_455 S
C84 C89 1.382 . S
C85 H56 0.950 . S
C85 C84 1.383 1_655 S
C85 C86 1.395 . S
C86 H57 0.950 . S
C86 C85 1.395 . S
C86 C87 1.288 1_655 S
C87 C86 1.288 1_455 S
C87 C88 1.392 . S
C88 H58 0.951 . S
C88 C87 1.392 . S
C88 C89 1.392 . S
C89 H59 0.949 . S
C89 C84 1.382 . S
C89 C88 1.392 . S
H90 C109 0.949 . S
H91 C110 0.950 . S
H92 C112 0.950 . S
H93 C113 0.950 . S
H94 C115 0.950 . S
H95 C118 0.950 . S
H96 C119 0.950 . S
H97 C121 0.951 . S
H98 C122 0.949 . S
H99 C124 0.949 . S
H100 C125 0.950 . S
H101 C127 0.950 . S
H102 C128 0.950 . S
H103 C130 0.950 . S
H104 C133 0.950 . S
H105 C134 0.950 . S
H106 C136 0.951 . S
H107 C137 0.949 . S
C108 C109 1.376 . S
C108 C113 1.386 1_545 S
C108 C114 1.483 . S
C109 H90 0.949 . S
C109 C108 1.376 . S
C109 C110 1.397 . S
C110 H91 0.950 . S
C110 C109 1.397 . S
C110 C111 1.391 . S
C111 C110 1.391 . S
C111 C112 1.405 1_545 S
C112 H92 0.950 . S
C112 C111 1.405 1_565 S
C112 C113 1.367 . S
C113 H93 0.950 . S
C113 C108 1.386 1_565 S
C113 C112 1.367 . S
C114 C108 1.483 . S
C114 C115 1.382 . S
C114 C116 1.403 1_545 S
C115 H94 0.950 . S
C115 C114 1.382 . S
C115 C131 1.411 . S
C116 C114 1.403 1_565 S
C116 C117 1.489 . S
C116 C130 1.411 . S
C117 C116 1.489 . S
C117 C118 1.383 1_565 S
C117 C122 1.382 . S
C118 H95 0.950 . S
C118 C117 1.383 1_545 S
C118 C119 1.395 . S
C119 H96 0.950 . S
C119 C118 1.395 . S
C119 C120 1.288 1_545 S
C120 C119 1.288 1_565 S
C120 C121 1.392 . S
C121 H97 0.951 . S
C121 C120 1.392 . S
C121 C122 1.392 . S
C122 H98 0.949 . S
C122 C117 1.382 . S
C122 C121 1.392 . S
C123 C124 1.376 . S
C123 C128 1.386 1_565 S
C123 C129 1.483 . S
C124 H99 0.949 . S
C124 C123 1.376 . S
C124 C125 1.397 . S
C125 H100 0.950 . S
C125 C124 1.397 . S
C125 C126 1.418 . S
C126 C125 1.418 . S
C126 C127 1.390 1_565 S
C127 H101 0.950 . S
C127 C126 1.390 1_545 S
C127 C128 1.367 . S
C128 H102 0.950 . S
C128 C123 1.386 1_545 S
C128 C127 1.367 . S
C129 C123 1.483 . S
C129 C130 1.382 . S
C129 C131 1.403 1_565 S
C130 H103 0.950 . S
C130 C116 1.411 . S
C130 C129 1.382 . S
C131 C115 1.411 . S
C131 C129 1.403 1_545 S
C131 C132 1.489 . S
C132 C131 1.489 . S
C132 C133 1.383 1_545 S
C132 C137 1.382 . S
C133 H104 0.950 . S
C133 C132 1.383 1_565 S
C133 C134 1.395 . S
C134 H105 0.950 . S
C134 C133 1.395 . S
C134 C135 1.288 1_565 S
C135 C134 1.288 1_545 S
C135 C136 1.392 . S
C136 H106 0.951 . S
C136 C135 1.392 . S
C136 C137 1.392 . S
C137 H107 0.949 . S
C137 C132 1.382 . S
C137 C136 1.392 . S
H138 C157 0.949 . S
H139 C158 0.950 . S
H140 C160 0.950 . S
H141 C161 0.950 . S
H142 C163 0.950 . S
H143 C166 0.950 . S
H144 C167 0.950 . S
H145 C169 0.951 . S
H146 C170 0.949 . S
H147 C172 0.949 . S
H148 C173 0.950 . S
H149 C175 0.950 . S
H150 C176 0.950 . S
H151 C178 0.950 . S
H152 C181 0.950 . S
H153 C182 0.950 . S
H154 C184 0.951 . S
H155 C185 0.949 . S
C156 C157 1.376 . S
C156 C161 1.386 . S
C156 C162 1.483 . S
C157 H138 0.949 . S
C157 C156 1.376 . S
C157 C158 1.397 . S
C158 H139 0.950 . S
C158 C157 1.397 . S
C158 C159 1.391 . S
C159 C158 1.391 . S
C159 C160 1.405 . S
C160 H140 0.950 . S
C160 C159 1.405 . S
C160 C161 1.367 . S
C161 H141 0.950 . S
C161 C156 1.386 . S
C161 C160 1.367 . S
C162 C156 1.483 . S
C162 C163 1.382 . S
C162 C164 1.403 . S
C163 H142 0.950 . S
C163 C162 1.382 . S
C163 C179 1.411 . S
C164 C162 1.403 . S
C164 C165 1.489 . S
C164 C178 1.411 . S
C165 C164 1.489 . S
C165 C166 1.383 . S
C165 C170 1.382 . S
C166 H143 0.950 . S
C166 C165 1.383 . S
C166 C167 1.395 . S
C167 H144 0.950 . S
C167 C166 1.395 . S
C167 C168 1.288 . S
C168 C167 1.288 . S
C168 C169 1.392 . S
C169 H145 0.951 . S
C169 C168 1.392 . S
C169 C170 1.392 . S
C170 H146 0.949 . S
C170 C165 1.382 . S
C170 C169 1.392 . S
C171 C172 1.376 . S
C171 C176 1.386 . S
C171 C177 1.483 . S
C172 H147 0.949 . S
C172 C171 1.376 . S
C172 C173 1.397 . S
C173 H148 0.950 . S
C173 C172 1.397 . S
C173 C174 1.391 . S
C174 C173 1.391 . S
C174 C175 1.405 . S
C175 H149 0.950 . S
C175 C174 1.405 . S
C175 C176 1.367 . S
C176 H150 0.950 . S
C176 C171 1.386 . S
C176 C175 1.367 . S
C177 C171 1.483 . S
C177 C178 1.382 . S
C177 C179 1.403 . S
C178 H151 0.950 . S
C178 C164 1.411 . S
C178 C177 1.382 . S
C179 C163 1.411 . S
C179 C177 1.403 . S
C179 C180 1.489 . S
C180 C179 1.489 . S
C180 C181 1.383 . S
C180 C185 1.382 . S
C181 H152 0.950 . S
C181 C180 1.383 . S
C181 C182 1.395 . S
C182 H153 0.950 . S
C182 C181 1.395 . S
C182 C183 1.288 . S
C183 C182 1.288 . S
C183 C184 1.392 . S
C184 H154 0.951 . S
C184 C183 1.392 . S
C184 C185 1.392 . S
C185 H155 0.949 . S
C185 C180 1.382 . S
C185 C184 1.392 . S
H186 C194 0.950 . S
H187 C199 0.950 . S
H188 C196 0.950 . S
H189 C198 0.950 . S
H190 C200 0.950 . S
H191 C202 0.950 . S
H192 C204 0.950 . S
H193 C205 0.950 . S
C194 H186 0.950 . S
C194 C195 1.386 . S
C194 C196 1.391 . S
C195 C194 1.386 . S
C195 C199 1.393 1_455 S
C196 H188 0.950 . S
C196 C194 1.391 . S
C196 C197 1.400 . S
C197 C196 1.400 . S
C197 C198 1.398 1_455 S
C197 C203 1.490 . S
C198 H189 0.950 . S
C198 C197 1.398 1_655 S
C198 C199 1.391 . S
C199 H187 0.950 . S
C199 C195 1.393 1_655 S
C199 C198 1.391 . S
C200 H190 0.950 . S
C200 C201 1.396 . S
C200 C202 1.391 . S
C201 C200 1.396 . S
C201 C205 1.373 1_655 S
C202 H191 0.950 . S
C202 C200 1.391 . S
C202 C203 1.401 1_655 S
C203 C197 1.490 . S
C203 C202 1.401 1_455 S
C203 C204 1.398 . S
C204 H192 0.950 . S
C204 C203 1.398 . S
C204 C205 1.391 . S
C205 H193 0.950 . S
C205 C201 1.373 1_455 S
C205 C204 1.391 . S
H206 C214 0.950 . S
H207 C219 0.950 . S
H208 C216 0.950 . S
H209 C218 0.950 . S
H210 C220 0.950 . S
H211 C222 0.950 . S
H212 C224 0.950 . S
H213 C225 0.950 . S
C214 H206 0.950 . S
C214 C215 1.386 . S
C214 C216 1.391 . S
C215 C214 1.386 . S
C215 C219 1.393 1_545 S
C216 H208 0.950 . S
C216 C214 1.391 . S
C216 C217 1.400 . S
C217 C216 1.400 . S
C217 C218 1.398 1_545 S
C217 C223 1.491 . S
C218 H209 0.950 . S
C218 C217 1.398 1_565 S
C218 C219 1.391 . S
C219 H207 0.950 . S
C219 C215 1.393 1_565 S
C219 C218 1.391 . S
C220 H210 0.950 . S
C220 C221 1.386 1_565 S
C220 C222 1.391 . S
C221 C220 1.386 1_545 S
C221 C225 1.393 . S
C222 H211 0.950 . S
C222 C220 1.391 . S
C222 C223 1.400 1_565 S
C223 C217 1.491 . S
C223 C222 1.400 1_545 S
C223 C224 1.398 . S
C224 H212 0.950 . S
C224 C223 1.398 . S
C224 C225 1.391 . S
C225 H213 0.950 . S
C225 C221 1.393 . S
C225 C224 1.391 . S
H226 C234 0.950 . S
H227 C239 0.950 . S
H228 C236 0.950 . S
H229 C238 0.950 . S
H230 C240 0.950 . S
H231 C242 0.950 . S
H232 C244 0.950 . S
H233 C245 0.950 . S
C234 H226 0.950 . S
C234 C235 1.386 . S
C234 C236 1.391 . S
C235 C234 1.386 . S
C235 C239 1.393 . S
C236 H228 0.950 . S
C236 C234 1.391 . S
C236 C237 1.400 . S
C237 C236 1.400 . S
C237 C238 1.398 . S
C237 C243 1.491 . S
C238 H229 0.950 . S
C238 C237 1.398 . S
C238 C239 1.391 . S
C239 H227 0.950 . S
C239 C235 1.393 . S
C239 C238 1.391 . S
C240 H230 0.950 . S
C240 C241 1.386 . S
C240 C242 1.391 . S
C241 C240 1.386 . S
C241 C245 1.393 . S
C242 H231 0.950 . S
C242 C240 1.391 . S
C242 C243 1.400 . S
C243 C237 1.491 . S
C243 C242 1.400 . S
C243 C244 1.398 . S
C244 H232 0.950 . S
C244 C243 1.398 . S
C244 C245 1.391 . S
C245 H233 0.950 . S
C245 C241 1.393 . S
C245 C244 1.391 . S
H246 C254 0.950 . S
H247 C259 0.950 . S
H248 C256 0.950 . S
H249 C258 0.950 . S
H250 C260 0.950 . S
H251 C262 0.950 . S
H252 C264 0.950 . S
H253 C265 0.950 . S
C254 H246 0.950 . S
C254 C255 1.400 . S
C254 C256 1.391 . S
C255 C254 1.400 . S
C255 C259 1.369 1_655 S
C256 H248 0.950 . S
C256 C254 1.391 . S
C256 C257 1.408 . S
C257 C256 1.408 . S
C257 C258 1.394 1_655 S
C257 C263 1.481 1_655 S
C258 H249 0.950 . S
C258 C257 1.394 1_455 S
C258 C259 1.391 . S
C259 H247 0.950 . S
C259 C255 1.369 1_455 S
C259 C258 1.391 . S
C260 H250 0.950 . S
C260 C261 1.386 . S
C260 C262 1.391 . S
C261 C260 1.386 . S
C261 C265 1.393 1_455 S
C262 H251 0.950 . S
C262 C260 1.391 . S
C262 C263 1.415 . S
C263 C257 1.481 1_455 S
C263 C262 1.415 . S
C263 C264 1.390 1_455 S
C264 H252 0.950 . S
C264 C263 1.390 1_655 S
C264 C265 1.391 . S
C265 H253 0.950 . S
C265 C261 1.393 1_655 S
C265 C264 1.391 . S
H266 C274 0.950 . S
H267 C279 0.950 . S
H268 C276 0.950 . S
H269 C278 0.950 . S
H270 C280 0.950 . S
H271 C282 0.950 . S
H272 C284 0.950 . S
H273 C285 0.950 . S
C274 H266 0.950 . S
C274 C275 1.386 . S
C274 C276 1.391 . S
C275 C274 1.386 . S
C275 C279 1.393 1_565 S
C276 H268 0.950 . S
C276 C274 1.391 . S
C276 C277 1.400 . S
C277 C276 1.400 . S
C277 C278 1.398 1_565 S
C277 C283 1.490 . S
C278 H269 0.950 . S
C278 C277 1.398 1_545 S
C278 C279 1.391 . S
C279 H267 0.950 . S
C279 C275 1.393 1_545 S
C279 C278 1.391 . S
C280 H270 0.950 . S
C280 C281 1.386 . S
C280 C282 1.391 . S
C281 C280 1.386 . S
C281 C285 1.393 1_545 S
C282 H271 0.950 . S
C282 C280 1.391 . S
C282 C283 1.401 1_545 S
C283 C277 1.490 . S
C283 C282 1.401 1_565 S
C283 C284 1.399 . S
C284 H272 0.950 . S
C284 C283 1.399 . S
C284 C285 1.391 . S
C285 H273 0.950 . S
C285 C281 1.393 1_565 S
C285 C284 1.391 . S
H286 C294 0.950 . S
H287 C299 0.950 . S
H288 C296 0.950 . S
H289 C298 0.950 . S
H290 C300 0.950 . S
H291 C302 0.950 . S
H292 C304 0.950 . S
H293 C305 0.950 . S
C294 H286 0.950 . S
C294 C295 1.386 . S
C294 C296 1.391 . S
C295 C294 1.386 . S
C295 C299 1.393 . S
C296 H288 0.950 . S
C296 C294 1.391 . S
C296 C297 1.400 . S
C297 C296 1.400 . S
C297 C298 1.398 . S
C297 C303 1.491 . S
C298 H289 0.950 . S
C298 C297 1.398 . S
C298 C299 1.391 . S
C299 H287 0.950 . S
C299 C295 1.393 . S
C299 C298 1.391 . S
C300 H290 0.950 . S
C300 C301 1.386 . S
C300 C302 1.391 . S
C301 C300 1.386 . S
C301 C305 1.393 . S
C302 H291 0.950 . S
C302 C300 1.391 . S
C302 C303 1.400 . S
C303 C297 1.491 . S
C303 C302 1.400 . S
C303 C304 1.398 . S
C304 H292 0.950 . S
C304 C303 1.398 . S
C304 C305 1.391 . S
C305 H293 0.950 . S
C305 C301 1.393 . S
C305 C304 1.391 . S
H306 C314 0.950 . S
H307 C319 0.950 . S
H308 C316 0.950 . S
H309 C318 0.950 . S
H310 C320 0.950 . S
H311 C322 0.950 . S
H312 C324 0.950 . S
H313 C325 0.950 . S
C314 H306 0.950 . S
C314 C315 1.386 . S
C314 C316 1.391 . S
C315 C314 1.386 . S
C315 C319 1.393 1_565 S
C316 H308 0.950 . S
C316 C314 1.391 . S
C316 C317 1.400 . S
C317 C316 1.400 . S
C317 C318 1.398 1_565 S
C317 C323 1.491 . S
C318 H309 0.950 . S
C318 C317 1.398 1_545 S
C318 C319 1.391 . S
C319 H307 0.950 . S
C319 C315 1.393 1_545 S
C319 C318 1.391 . S
C320 H310 0.950 . S
C320 C321 1.386 1_545 S
C320 C322 1.391 . S
C321 C320 1.386 1_565 S
C321 C325 1.393 . S
C322 H311 0.950 . S
C322 C320 1.391 . S
C322 C323 1.400 1_545 S
C323 C317 1.491 . S
C323 C322 1.400 1_565 S
C323 C324 1.398 . S
C324 H312 0.950 . S
C324 C323 1.398 . S
C324 C325 1.391 . S
C325 H313 0.950 . S
C325 C321 1.393 . S
C325 C324 1.391 . S
H326 C334 0.950 . S
H327 C339 0.950 . S
H328 C336 0.950 . S
H329 C338 0.950 1_556 S
H330 C340 0.950 . S
H331 C342 0.950 . S
H332 C344 0.950 . S
H333 C345 0.950 . S
C334 H326 0.950 . S
C334 C335 1.386 . S
C334 C336 1.391 . S
C335 C334 1.386 . S
C335 C339 1.393 . S
C336 H328 0.950 . S
C336 C334 1.391 . S
C336 C337 1.400 1_554 S
C337 C336 1.400 1_556 S
C337 C338 1.398 1_556 S
C337 C343 1.491 . S
C338 H329 0.950 1_554 S
C338 C337 1.398 1_554 S
C338 C339 1.391 . S
C339 H327 0.950 . S
C339 C335 1.393 . S
C339 C338 1.391 . S
C340 H330 0.950 . S
C340 C341 1.386 . S
C340 C342 1.391 . S
C341 C340 1.386 . S
C341 C345 1.393 . S
C342 H331 0.950 . S
C342 C340 1.391 . S
C342 C343 1.400 . S
C343 C337 1.491 . S
C343 C342 1.400 . S
C343 C344 1.398 . S
C344 H332 0.950 . S
C344 C343 1.398 . S
C344 C345 1.391 . S
C345 H333 0.950 . S
C345 C341 1.393 . S
C345 C344 1.391 . S
H346 C354 0.950 . S
H347 C359 0.950 . S
H348 C356 0.950 . S
H349 C358 0.950 . S
H350 C360 0.950 . S
H351 C362 0.950 . S
H352 C364 0.950 . S
H353 C365 0.950 . S
C354 H346 0.950 . S
C354 C355 1.386 . S
C354 C356 1.391 . S
C355 C354 1.386 . S
C355 C359 1.393 1_455 S
C356 H348 0.950 . S
C356 C354 1.391 . S
C356 C357 1.400 . S
C357 C356 1.400 . S
C357 C358 1.398 1_455 S
C357 C363 1.491 . S
C358 H349 0.950 . S
C358 C357 1.398 1_655 S
C358 C359 1.391 . S
C359 H347 0.950 . S
C359 C355 1.393 1_655 S
C359 C358 1.391 . S
C360 H350 0.950 . S
C360 C361 1.386 1_655 S
C360 C362 1.391 . S
C361 C360 1.386 1_455 S
C361 C365 1.393 . S
C362 H351 0.950 . S
C362 C360 1.391 . S
C362 C363 1.400 1_655 S
C363 C357 1.491 . S
C363 C362 1.400 1_455 S
C363 C364 1.398 . S
C364 H352 0.950 . S
C364 C363 1.398 . S
C364 C365 1.391 . S
C365 H353 0.950 . S
C365 C361 1.393 . S
C365 C364 1.391 . S
H366 C374 0.950 . S
H367 C379 0.950 . S
H368 C376 0.950 . S
H369 C378 0.950 . S
H370 C380 0.950 . S
H371 C382 0.950 . S
H372 C384 0.950 . S
H373 C385 0.950 . S
C374 H366 0.950 . S
C374 C375 1.386 . S
C374 C376 1.391 . S
C375 C374 1.386 . S
C375 C379 1.393 1_545 S
C376 H368 0.950 . S
C376 C374 1.391 . S
C376 C377 1.400 . S
C377 C376 1.400 . S
C377 C378 1.398 1_545 S
C377 C383 1.491 . S
C378 H369 0.950 . S
C378 C377 1.398 1_565 S
C378 C379 1.391 . S
C379 H367 0.950 . S
C379 C375 1.393 1_565 S
C379 C378 1.391 . S
C380 H370 0.950 . S
C380 C381 1.386 1_565 S
C380 C382 1.391 . S
C381 C380 1.386 1_545 S
C381 C385 1.393 . S
C382 H371 0.950 . S
C382 C380 1.391 . S
C382 C383 1.400 1_565 S
C383 C377 1.491 . S
C383 C382 1.400 1_545 S
C383 C384 1.398 . S
C384 H372 0.950 . S
C384 C383 1.398 . S
C384 C385 1.391 . S
C385 H373 0.950 . S
C385 C381 1.393 . S
C385 C384 1.391 . S
H386 C394 0.950 . S
H387 C399 0.950 . S
H388 C396 0.950 . S
H389 C398 0.950 . S
H390 C400 0.950 . S
H391 C402 0.950 . S
H392 C404 0.950 . S
H393 C405 0.950 . S
C394 H386 0.950 . S
C394 C395 1.386 . S
C394 C396 1.391 1_554 S
C395 C394 1.386 . S
C395 C399 1.393 . S
C396 H388 0.950 . S
C396 C394 1.391 1_556 S
C396 C397 1.400 . S
C397 C396 1.400 . S
C397 C398 1.398 1_556 S
C397 C403 1.491 . S
C398 H389 0.950 . S
C398 C397 1.398 1_554 S
C398 C399 1.391 . S
C399 H387 0.950 . S
C399 C395 1.393 . S
C399 C398 1.391 . S
C400 H390 0.950 . S
C400 C401 1.386 . S
C400 C402 1.391 . S
C401 C400 1.386 . S
C401 C405 1.393 . S
C402 H391 0.950 . S
C402 C400 1.391 . S
C402 C403 1.400 . S
C403 C397 1.491 . S
C403 C402 1.400 . S
C403 C404 1.398 . S
C404 H392 0.950 . S
C404 C403 1.398 . S
C404 C405 1.391 . S
C405 H393 0.950 . S
C405 C401 1.393 . S
C405 C404 1.391 . S
H406 C414 0.950 . S
H407 C419 0.950 . S
H408 C416 0.950 . S
H409 C418 0.950 . S
H410 C420 0.950 . S
H411 C422 0.950 . S
H412 C424 0.950 . S
H413 C425 0.950 . S
C414 H406 0.950 . S
C414 C415 1.386 1_455 S
C414 C416 1.391 . S
C415 C414 1.386 1_655 S
C415 C419 1.393 . S
C416 H408 0.950 . S
C416 C414 1.391 . S
C416 C417 1.400 1_455 S
C417 C416 1.400 1_655 S
C417 C418 1.398 . S
C417 C423 1.491 . S
C418 H409 0.950 . S
C418 C417 1.398 . S
C418 C419 1.391 . S
C419 H407 0.950 . S
C419 C415 1.393 . S
C419 C418 1.391 . S
C420 H410 0.950 . S
C420 C421 1.380 1_655 S
C420 C422 1.391 . S
C421 C420 1.380 1_455 S
C421 C425 1.402 . S
C422 H411 0.950 . S
C422 C420 1.391 . S
C422 C423 1.400 . S
C423 C417 1.491 . S
C423 C422 1.400 . S
C423 C424 1.398 1_655 S
C424 H412 0.950 . S
C424 C423 1.398 1_455 S
C424 C425 1.391 . S
C425 H413 0.950 . S
C425 C421 1.402 . S
C425 C424 1.391 . S
C201 C63 1.506 1_655 S
C195 C6 1.474 1_455 S
C215 C22 1.594 . S
C221 C111 1.625 . S
C235 C34 1.248 . S
C241 C183 1.280 . S
C255 C7 1.477 1_655 S
C261 C87 1.492 . S
C281 C135 1.617 . S
C275 C23 1.593 . S
C295 C35 1.268 . S
C301 C159 1.279 . S
C321 C120 1.612 . S
C315 C36 1.612 . S
C335 C9 1.817 . S
C341 C174 1.855 . S
C361 C78 1.496 1_455 S
C355 C21 1.461 1_455 S
C381 C126 1.613 1_545 S
C375 C37 1.610 . S
C401 C168 1.851 . S
C395 C8 1.818 . S
C415 C20 1.476 1_655 S
C421 C72 1.483 1_455 S
