# Generated by pormake.
# Topology anh, (6,3)-cn, num edge types: 1
# Building blocks:
#     Node 0, Type 0, BuildingBlock: PAMTOO_clean_sbu_0, # of connection points: 6
#     Node 1, Type 0, BuildingBlock: PAMTOO_clean_sbu_0, # of connection points: 6
#     Node 2, Type 0, BuildingBlock: PAMTOO_clean_sbu_0, # of connection points: 6
#     Node 3, Type 1, BuildingBlock: ESEHIV_clean_linker_0, # of connection points: 3
#     Node 4, Type 1, BuildingBlock: ESEHIV_clean_linker_0, # of connection points: 3
#     Node 5, Type 1, BuildingBlock: ESEHIV_clean_linker_0, # of connection points: 3
#     Node 6, Type 1, BuildingBlock: ESEHIV_clean_linker_0, # of connection points: 3
#     Node 7, Type 1, BuildingBlock: ESEHIV_clean_linker_0, # of connection points: 3
#     Node 8, Type 1, BuildingBlock: ESEHIV_clean_linker_0, # of connection points: 3
#     Edge 9, Type (0, 1), BuildingBlock: TEMPAE_clean_linker_10, # of connection points: 2
#     Edge 10, Type (0, 1), BuildingBlock: TEMPAE_clean_linker_10, # of connection points: 2
#     Edge 11, Type (0, 1), BuildingBlock: TEMPAE_clean_linker_10, # of connection points: 2
#     Edge 12, Type (0, 1), BuildingBlock: TEMPAE_clean_linker_10, # of connection points: 2
#     Edge 13, Type (0, 1), BuildingBlock: TEMPAE_clean_linker_10, # of connection points: 2
#     Edge 14, Type (0, 1), BuildingBlock: TEMPAE_clean_linker_10, # of connection points: 2
#     Edge 15, Type (0, 1), BuildingBlock: TEMPAE_clean_linker_10, # of connection points: 2
#     Edge 16, Type (0, 1), BuildingBlock: TEMPAE_clean_linker_10, # of connection points: 2
#     Edge 17, Type (0, 1), BuildingBlock: TEMPAE_clean_linker_10, # of connection points: 2
#     Edge 18, Type (0, 1), BuildingBlock: TEMPAE_clean_linker_10, # of connection points: 2
#     Edge 19, Type (0, 1), BuildingBlock: TEMPAE_clean_linker_10, # of connection points: 2
#     Edge 20, Type (0, 1), BuildingBlock: TEMPAE_clean_linker_10, # of connection points: 2
#     Edge 21, Type (0, 1), BuildingBlock: TEMPAE_clean_linker_10, # of connection points: 2
#     Edge 22, Type (0, 1), BuildingBlock: TEMPAE_clean_linker_10, # of connection points: 2
#     Edge 23, Type (0, 1), BuildingBlock: TEMPAE_clean_linker_10, # of connection points: 2
#     Edge 24, Type (0, 1), BuildingBlock: TEMPAE_clean_linker_10, # of connection points: 2
#     Edge 25, Type (0, 1), BuildingBlock: TEMPAE_clean_linker_10, # of connection points: 2
#     Edge 26, Type (0, 1), BuildingBlock: TEMPAE_clean_linker_10, # of connection points: 2
# Relax obj value: 0.213
# Max RMSD: 0.209
# Mean RMSD: 0.164
data_MOF--net-anh--node1-PAMTOO_clean_sbu_0--node2-ESEHIV_clean_linker_0--edge1-TEMPAE_clean_linker_10
_symmetry_space_group_name_H-M    P1
_symmetry_Int_Tables_number       1
_symmetry_cell_setting            triclinic
loop_
_symmetry_equiv_pos_as_xyz
'x, y, z'
_cell_length_a     29.124182
_cell_length_b     27.632304
_cell_length_c     52.492196
_cell_angle_alpha  90.50818
_cell_angle_beta   95.115073
_cell_angle_gamma 102.87485
loop_
_atom_site_label
_atom_site_type_symbol
_atom_site_fract_x
_atom_site_fract_y
_atom_site_fract_z
_atom_type_partial_charge
Dy0 Dy 0.08022 0.61484 0.14915 0.0
Dy1 Dy 1.05094 0.49827 0.13529 0.0
C2 C 1.0606 0.57713 0.09276 0.0
O3 O 1.00037 0.5963 0.15436 0.0
O4 O 0.97983 0.52162 0.13212 0.0
O5 O 0.10477 0.68814 0.13513 0.0
O6 O 0.0913 0.6789 0.17494 0.0
O7 O 1.03847 0.50869 0.17615 0.0
O8 O 0.09844 0.57635 0.1844 0.0
O9 O 0.13185 0.51244 0.14339 0.0
O10 O 0.14983 0.59669 0.13879 0.0
O11 O 1.05684 0.42354 0.14371 0.0
O12 O 1.00916 0.4365 0.11168 0.0
C13 C 0.9671 0.55914 0.14338 0.0
O14 O 1.04517 0.60281 0.1097 0.0
O15 O 0.07462 0.53695 0.09974 0.0
C16 C 0.15673 0.74302 0.16514 0.0
C17 C 0.24744 0.80485 0.17817 0.0
C18 C 0.22782 0.79881 0.15258 0.0
C19 C 0.18295 0.76849 0.14617 0.0
C20 C 0.17597 0.74959 0.19079 0.0
C21 C 0.22082 0.78014 0.19722 0.0
C22 C 0.11003 0.70938 0.15782 0.0
C23 C 0.06906 0.53791 0.19247 0.0
C24 C 0.16379 0.55424 0.1409 0.0
C25 C 0.98203 0.36802 0.13723 0.0
C26 C 0.90326 0.30372 0.15599 0.0
C27 C 0.93472 0.33918 0.17233 0.0
C28 C 0.97338 0.37115 0.16304 0.0
C29 C 0.95122 0.33231 0.12089 0.0
C30 C 0.91216 0.30045 0.13016 0.0
C31 C 1.02136 0.40377 0.1271 0.0
H32 H 0.24744 0.81688 0.13739 0.0
H33 H 0.16902 0.76454 0.12624 0.0
H34 H 0.15655 0.73098 0.20593 0.0
H35 H 0.23447 0.78473 0.21718 0.0
H36 H 0.92963 0.34225 0.19242 0.0
H37 H 0.99626 0.39863 0.17608 0.0
H38 H 0.95693 0.3296 0.10086 0.0
H39 H 0.88843 0.27401 0.11696 0.0
Dy40 Dy 0.54492 0.01171 0.51537 0.0
Dy41 Dy 0.65884 0.03932 0.53114 0.0
C42 C 0.58577 0.00711 0.57332 0.0
O43 O 0.56228 0.09068 0.53036 0.0
O44 O 0.63857 0.11058 0.51984 0.0
O45 O 0.47217 1.00381 0.52363 0.0
O46 O 0.48877 0.99021 0.48511 0.0
O47 O 0.64766 0.02303 0.489 0.0
O48 O 0.5795 0.05034 0.48258 0.0
O49 O 0.63643 0.95786 0.53781 0.0
O50 O 0.57012 0.94138 0.50929 0.0
O51 O 0.72875 0.02728 0.52751 0.0
O52 O 0.71946 0.08647 0.55251 0.0
C53 C 0.60022 0.12412 0.52573 0.0
O54 O 0.5533 0.98581 0.55525 0.0
O55 O 0.6253 0.03708 0.56794 0.0
C56 C 0.41775 0.94197 0.49746 0.0
C57 C 0.34925 0.85242 0.48879 0.0
C58 C 0.37538 0.86317 0.51278 0.0
C59 C 0.40973 0.90754 0.51705 0.0
C60 C 0.39065 0.93173 0.47381 0.0
C61 C 0.35689 0.88732 0.46946 0.0
C62 C 0.45555 0.98751 0.50045 0.0
C63 C 0.61702 0.03998 0.47391 0.0
C64 C 0.60312 0.92614 0.52382 0.0
C65 C 0.78556 0.10327 0.52896 0.0
C66 C 0.84974 0.17928 0.50667 0.0
C67 C 0.81257 0.14782 0.49145 0.0
C68 C 0.7806 0.11046 0.5025 0.0
C69 C 0.82318 0.13366 0.54415 0.0
C70 C 0.855 0.17139 0.53313 0.0
C71 C 0.74945 0.06729 0.54106 0.0
H72 H 0.37016 0.83668 0.52793 0.0
H73 H 0.43045 0.91445 0.53543 0.0
H74 H 0.39626 0.95779 0.45847 0.0
H75 H 0.3368 0.88011 0.4509 0.0
H76 H 0.80787 0.15231 0.47097 0.0
H77 H 0.75148 0.08781 0.49041 0.0
H78 H 0.82718 0.12906 0.56465 0.0
H79 H 0.8828 0.19532 0.54546 0.0
Dy80 Dy 0.603 0.45098 0.84099 0.0
Dy81 Dy 0.48902 0.43064 0.83744 0.0
C82 C 0.54345 0.45242 0.78805 0.0
O83 O 0.5859 0.52438 0.83095 0.0
O84 O 0.51502 0.51162 0.84824 0.0
O85 O 0.67251 0.48885 0.85704 0.0
O86 O 0.66483 0.43303 0.82681 0.0
O87 O 0.5106 0.41796 0.87835 0.0
O88 O 0.586 0.46569 0.88052 0.0
O89 O 0.50622 0.35723 0.82871 0.0
O90 O 0.57815 0.37192 0.85216 0.0
O91 O 0.42295 0.42216 0.85441 0.0
O92 O 0.42284 0.41587 0.8133 0.0
C93 C 0.55145 0.5418 0.83953 0.0
O94 O 0.57661 0.43384 0.80001 0.0
O95 O 0.51058 0.46421 0.80064 0.0
C96 C 0.72643 0.50391 0.82606 0.0
C97 C 0.79195 0.57937 0.80468 0.0
C98 C 0.74349 0.5792 0.80174 0.0
C99 C 0.71089 0.54156 0.81229 0.0
C100 C 0.77415 0.50217 0.82763 0.0
C101 C 0.80668 0.53952 0.81698 0.0
C102 C 0.69368 0.46874 0.84034 0.0
C103 C 0.54872 0.44352 0.8917 0.0
C104 C 0.54126 0.34079 0.84054 0.0
C105 C 0.37704 0.46713 0.8291 0.0
C106 C 0.34362 0.55423 0.81978 0.0
C107 C 0.37738 0.55257 0.84042 0.0
C108 C 0.39401 0.50977 0.84494 0.0
C109 C 0.34329 0.46838 0.80844 0.0
C110 C 0.32655 0.51159 0.80384 0.0
C111 C 0.39948 0.42449 0.83225 0.0
H112 H 0.73115 0.60935 0.79239 0.0
H113 H 0.6739 0.54306 0.81072 0.0
H114 H 0.78659 0.47328 0.83814 0.0
H115 H 0.84384 0.53898 0.82003 0.0
H116 H 0.3904 0.58409 0.85355 0.0
H117 H 0.4207 0.51048 0.86078 0.0
H118 H 0.33053 0.43629 0.79564 0.0
H119 H 0.30052 0.51172 0.78778 0.0
H120 H 0.54252 1.0039 0.27997 0.0
H121 H 0.67281 0.11301 0.27791 0.0
H122 H 0.59143 0.05205 0.20779 0.0
C123 C 0.56841 0.02774 0.26936 0.0
C124 C 0.56122 0.02632 0.24256 0.0
C125 C 0.60844 0.05883 0.28248 0.0
C126 C 0.64258 0.08751 0.26812 0.0
C127 C 0.6375 0.08464 0.24115 0.0
C128 C 0.59635 0.05407 0.22851 0.0
H129 H 0.56431 0.59049 0.59885 0.0
H130 H 0.58048 0.44046 0.597 0.0
H131 H 0.59625 0.52629 0.52895 0.0
C132 C 0.57085 0.55936 0.58817 0.0
C133 C 0.57947 0.56428 0.56219 0.0
C134 C 0.57064 0.51478 0.60067 0.0
C135 C 0.5802 0.47482 0.58722 0.0
C136 C 0.59005 0.47841 0.56154 0.0
C137 C 0.5892 0.52328 0.54886 0.0
H138 H 1.04145 0.75058 0.91807 0.0
H139 H 0.18823 0.7473 0.92691 0.0
H140 H 0.11939 0.76223 0.85216 0.0
C141 C 0.07489 0.75434 0.90985 0.0
C142 C 0.07641 0.75967 0.88337 0.0
C143 C 0.11439 0.74709 0.9253 0.0
C144 C 0.15777 0.75248 0.91476 0.0
C145 C 0.16042 0.75821 0.8882 0.0
C146 C 0.11942 0.76247 0.8728 0.0
H147 H 1.0262 0.43694 0.38565 0.0
H148 H 0.11895 0.58151 0.38755 0.0
H149 H 0.0892 0.50772 0.45794 0.0
C150 C 1.04918 0.46785 0.39658 0.0
C151 C 1.05446 0.46713 0.42349 0.0
C152 C 0.07218 0.50906 0.3836 0.0
C153 C 0.10054 0.54997 0.39762 0.0
C154 C 0.10697 0.54963 0.42442 0.0
C155 C 0.08405 0.50805 0.43725 0.0
H156 H 0.55409 0.02422 0.76595 0.0
H157 H 0.5414 0.86711 0.76053 0.0
H158 H 0.54572 0.93911 0.83442 0.0
C159 C 0.5508 0.98884 0.7752 0.0
C160 C 0.55074 0.98731 0.80193 0.0
C161 C 0.54727 0.94588 0.7602 0.0
C162 C 0.54347 0.90025 0.77218 0.0
C163 C 0.54245 0.8968 0.79892 0.0
C164 C 0.54617 0.94087 0.81384 0.0
H165 H 0.48079 0.52122 0.08027 0.0
H166 H 0.62847 0.5257 0.08515 0.0
H167 H 0.56569 0.56078 0.15281 0.0
C168 C 0.5141 0.52728 0.09213 0.0
C169 C 0.51572 0.53981 0.11837 0.0
C170 C 0.55399 0.52132 0.08051 0.0
C171 C 0.59805 0.53002 0.09474 0.0
C172 C 0.60446 0.54543 0.12061 0.0
C173 C 0.56232 0.54989 0.13276 0.0
C174 C 0.24742 0.58756 0.12612 0.0
C175 C 0.21673 0.5535 0.14034 0.0
C176 C 0.29609 0.58611 0.12467 0.0
C177 C 0.31719 0.55134 0.13885 0.0
C178 C 0.28656 0.51813 0.15408 0.0
C179 C 0.23747 0.51882 0.15409 0.0
C180 C 0.32463 0.6218 0.10739 0.0
C181 C 0.30484 0.48122 0.17086 0.0
C182 C 0.42625 0.50395 0.11861 0.0
C183 C 0.46682 0.54031 0.12823 0.0
C184 C 0.37893 0.50761 0.12158 0.0
C185 C 0.36935 0.5473 0.1362 0.0
C186 C 0.41013 0.58251 0.14767 0.0
C187 C 0.45753 0.57918 0.14323 0.0
C188 C 0.3391 0.46883 0.10813 0.0
C189 C 0.40463 0.62485 0.16454 0.0
H190 H 0.23295 0.61482 0.11529 0.0
H191 H 0.21539 0.49238 0.16553 0.0
H192 H 0.34743 0.65306 0.11913 0.0
H193 H 0.34786 0.60341 0.09691 0.0
H194 H 0.30162 0.63745 0.09323 0.0
H195 H 0.29022 0.48029 0.18973 0.0
H196 H 0.29223 0.44351 0.16192 0.0
H197 H 0.34399 0.48961 0.17411 0.0
H198 H 0.43138 0.47263 0.10752 0.0
H199 H 0.4872 0.60807 0.15099 0.0
H200 H 0.30925 0.48517 0.10062 0.0
H201 H 0.32577 0.43993 0.12184 0.0
H202 H 0.35111 0.45021 0.09194 0.0
H203 H 0.41027 0.6594 0.1535 0.0
H204 H 0.43205 0.63104 0.18108 0.0
H205 H 0.36926 0.61845 0.17186 0.0
C206 C 0.86353 0.24917 0.47614 0.0
C207 C 0.88178 0.22118 0.49507 0.0
C208 C 0.89304 0.28882 0.46496 0.0
C209 C 0.94197 0.30129 0.47311 0.0
C210 C 0.96065 0.27356 0.49234 0.0
C211 C 0.93037 0.23368 0.50301 0.0
C212 C 0.8718 0.31743 0.44444 0.0
C213 C 1.01261 0.28606 0.50163 0.0
C214 C 1.02265 0.37556 0.42749 0.0
C215 C 1.02811 0.42426 0.43713 0.0
C216 C 0.99536 0.33508 0.43927 0.0
C217 C 0.97344 0.3434 0.4614 0.0
C218 C 0.9799 0.39223 0.47168 0.0
C219 C 1.00692 0.43209 0.45934 0.0
C220 C 0.98908 0.28354 0.42767 0.0
C221 C 0.95731 0.40252 0.49535 0.0
H222 H 0.82592 0.2405 0.47024 0.0
H223 H 0.94486 0.21196 0.51742 0.0
H224 H 0.8777 0.357 0.45063 0.0
H225 H 0.88946 0.31627 0.42664 0.0
H226 H 0.83319 0.30246 0.43997 0.0
H227 H 1.02142 0.26137 0.51702 0.0
H228 H 1.034 0.28285 0.4855 0.0
H229 H 1.02324 0.32508 0.50902 0.0
H230 H 1.03956 0.36906 0.41061 0.0
H231 H 1.01037 0.46959 0.46675 0.0
H232 H 0.95112 0.26814 0.42152 0.0
H233 H 1.00026 0.25844 0.44215 0.0
H234 H 1.00967 0.28319 0.41088 0.0
H235 H 0.91824 0.39267 0.49144 0.0
H236 H 0.96829 0.44213 0.50185 0.0
H237 H 0.96679 0.37916 0.51118 0.0
C238 C 0.58192 0.62626 0.82199 0.0
C239 C 0.55171 0.5958 0.83767 0.0
C240 C 0.57998 0.67629 0.81847 0.0
C241 C 0.54757 0.69701 0.83123 0.0
C242 C 0.51808 0.66688 0.84776 0.0
C243 C 0.52027 0.61672 0.85065 0.0
C244 C 0.61153 0.70652 0.8003 0.0
C245 C 0.48389 0.68751 0.86228 0.0
C246 C 0.56922 0.83915 0.83145 0.0
C247 C 0.53865 0.84665 0.81036 0.0
C248 C 0.57113 0.79074 0.83926 0.0
C249 C 0.54208 0.74877 0.82557 0.0
C250 C 0.50931 0.75635 0.80522 0.0
C251 C 0.50777 0.80489 0.79806 0.0
C252 C 0.60569 0.78449 0.86147 0.0
C253 C 0.47751 0.71313 0.78999 0.0
H254 H 0.6062 0.61059 0.81178 0.0
H255 H 0.49704 0.59377 0.863 0.0
H256 H 0.58947 0.71731 0.78392 0.0
H257 H 0.63247 0.74125 0.81005 0.0
H258 H 0.63627 0.68582 0.79274 0.0
H259 H 0.46017 0.6583 0.87237 0.0
H260 H 0.50399 0.71592 0.8766 0.0
H261 H 0.46191 0.70622 0.84914 0.0
H262 H 0.59327 0.87099 0.84108 0.0
H263 H 0.48332 0.81017 0.78206 0.0
H264 H 0.63427 0.76881 0.85442 0.0
H265 H 0.58775 0.75792 0.87513 0.0
H266 H 0.62198 0.82026 0.87185 0.0
H267 H 0.49915 0.69531 0.77811 0.0
H268 H 0.44977 0.72485 0.77716 0.0
H269 H 0.46007 0.68463 0.80287 0.0
C270 C 0.89643 0.59108 0.15911 0.0
C271 C 0.91378 0.55921 0.14305 0.0
C272 C 0.84697 0.59068 0.15884 0.0
C273 C 0.81233 0.55845 0.1417 0.0
C274 C 0.82976 0.52637 0.12542 0.0
C275 C 0.87917 0.52674 0.12649 0.0
C276 C 0.83168 0.62499 0.17717 0.0
C277 C 0.796 0.49176 0.10634 0.0
C278 C 0.67509 0.52477 0.14905 0.0
C279 C 0.65677 0.55674 0.13207 0.0
C280 C 0.72494 0.52636 0.1533 0.0
C281 C 0.75877 0.55971 0.13982 0.0
C282 C 0.74046 0.59294 0.12331 0.0
C283 C 0.69088 0.59128 0.11988 0.0
C284 C 0.74119 0.49054 0.17157 0.0
C285 C 0.77311 0.62874 0.10784 0.0
H286 H 0.92162 0.61633 0.17224 0.0
H287 H 0.89081 0.5017 0.1138 0.0
H288 H 0.8157 0.65237 0.16633 0.0
H289 H 0.80413 0.60345 0.18852 0.0
H290 H 0.86163 0.64543 0.19049 0.0
H291 H 0.81432 0.46945 0.09473 0.0
H292 H 0.76915 0.46606 0.11643 0.0
H293 H 0.77681 0.51345 0.09324 0.0
H294 H 0.65024 0.49657 0.15811 0.0
H295 H 0.67822 0.61543 0.1061 0.0
H296 H 0.77241 0.50993 0.18437 0.0
H297 H 0.75214 0.46118 0.16062 0.0
H298 H 0.71284 0.47251 0.18347 0.0
H299 H 0.80253 0.65167 0.12055 0.0
H300 H 0.75448 0.65384 0.09673 0.0
H301 H 0.78904 0.60764 0.0943 0.0
C302 C 0.31692 0.77644 0.46133 0.0
C303 C 0.31483 0.80451 0.48337 0.0
C304 C 0.2827 0.73292 0.4546 0.0
C305 C 0.24512 0.71739 0.47015 0.0
C306 C 0.24363 0.74473 0.4929 0.0
C307 C 0.27881 0.78796 0.49935 0.0
C308 C 0.28597 0.70444 0.43037 0.0
C309 C 0.20394 0.72947 0.50984 0.0
C310 C 0.13507 0.64092 0.43305 0.0
C311 C 0.13886 0.59243 0.43872 0.0
C312 C 0.16806 0.68205 0.44431 0.0
C313 C 0.20602 0.67444 0.46144 0.0
C314 C 0.20881 0.62556 0.46812 0.0
C315 C 0.17499 0.58505 0.45673 0.0
C316 C 0.16349 0.73359 0.43693 0.0
C317 C 0.24891 0.61597 0.48619 0.0
H318 H 0.34522 0.78894 0.44918 0.0
H319 H 0.27717 0.80982 0.51636 0.0
H320 H 0.28423 0.66479 0.43448 0.0
H321 H 0.25551 0.7059 0.41634 0.0
H322 H 0.31914 0.71956 0.42141 0.0
H323 H 0.21006 0.75218 0.5279 0.0
H324 H 0.17021 0.73364 0.49947 0.0
H325 H 0.19958 0.68978 0.51462 0.0
H326 H 0.10674 0.64662 0.41937 0.0
H327 H 0.17809 0.54753 0.46102 0.0
H328 H 0.19301 0.75068 0.4256 0.0
H329 H 0.16596 0.75758 0.45429 0.0
H330 H 0.12956 0.7333 0.42537 0.0
H331 H 0.28241 0.62586 0.47692 0.0
H332 H 0.24313 0.57644 0.49161 0.0
H333 H 0.25348 0.63959 0.50383 0.0
C334 C 0.51361 0.25565 0.81986 0.0
C335 C 0.54042 0.2866 0.83972 0.0
C336 C 0.51553 0.20533 0.81753 0.0
C337 C 0.54403 0.18478 0.83585 0.0
C338 C 0.56939 0.2153 0.85665 0.0
C339 C 0.56784 0.2659 0.85812 0.0
C340 C 0.48864 0.1747 0.79474 0.0
C341 C 0.59915 0.19482 0.877 0.0
C342 C 0.52053 0.04271 0.83186 0.0
C343 C 0.5551 0.0355 0.81616 0.0
C344 C 0.51815 0.09101 0.83989 0.0
C345 C 0.55064 0.133 0.83169 0.0
C346 C 0.58752 0.12543 0.81735 0.0
C347 C 0.58959 0.07699 0.81009 0.0
C348 C 0.47918 0.09719 0.85586 0.0
C349 C 0.62286 0.16867 0.80796 0.0
H350 H 0.49248 0.27125 0.8055 0.0
H351 H 0.58831 0.28935 0.87369 0.0
H352 H 0.5139 0.16289 0.78272 0.0
H353 H 0.46522 0.14055 0.80118 0.0
H354 H 0.46673 0.1955 0.78271 0.0
H355 H 0.61164 0.22125 0.89355 0.0
H356 H 0.57871 0.15941 0.88397 0.0
H357 H 0.63049 0.18666 0.86879 0.0
H358 H 0.49365 0.01097 0.83657 0.0
H359 H 0.61672 0.07166 0.79817 0.0
H360 H 0.45185 0.11099 0.84379 0.0
H361 H 0.49317 0.12505 0.87162 0.0
H362 H 0.46199 0.06162 0.86417 0.0
H363 H 0.60432 0.18971 0.79416 0.0
H364 H 0.65105 0.15653 0.79837 0.0
H365 H 0.6397 0.19457 0.8241 0.0
C366 C 0.57414 0.83758 0.50713 0.0
C367 C 0.60127 0.87183 0.5256 0.0
C368 C 0.5707 0.78606 0.50938 0.0
C369 C 0.59406 0.76806 0.53092 0.0
C370 C 0.62196 0.80257 0.54943 0.0
C371 C 0.62556 0.85382 0.54643 0.0
C372 C 0.54131 0.75083 0.48895 0.0
C373 C 0.64675 0.78529 0.57296 0.0
C374 C 0.54517 0.63964 0.55594 0.0
C375 C 0.57915 0.61321 0.55009 0.0
C376 C 0.54875 0.68927 0.54904 0.0
C377 C 0.58668 0.71332 0.53531 0.0
C378 C 0.6192 0.68585 0.52767 0.0
C379 C 0.61523 0.63625 0.53526 0.0
C380 C 0.51328 0.71679 0.55776 0.0
C381 C 0.6595 0.70957 0.5125 0.0
H382 H 0.55544 0.85101 0.49088 0.0
H383 H 0.64638 0.87978 0.56092 0.0
H384 H 0.56188 0.7246 0.48232 0.0
H385 H 0.50966 0.7284 0.49696 0.0
H386 H 0.52936 0.7707 0.4722 0.0
H387 H 0.66828 0.81674 0.58516 0.0
H388 H 0.6202 0.76271 0.58454 0.0
H389 H 0.67021 0.76123 0.56737 0.0
H390 H 0.51646 0.62193 0.56686 0.0
H391 H 0.6417 0.61638 0.53062 0.0
H392 H 0.49729 0.73418 0.5413 0.0
H393 H 0.53148 0.74711 0.57158 0.0
H394 H 0.48446 0.69213 0.56711 0.0
H395 H 0.64643 0.72943 0.49608 0.0
H396 H 0.67785 0.68186 0.50517 0.0
H397 H 0.68562 0.73744 0.52479 0.0
C398 C 0.87097 0.61982 0.79096 0.0
C399 C 0.82809 0.62448 0.79978 0.0
C400 C 0.91227 0.65659 0.7971 0.0
C401 C 0.91 0.69825 0.8124 0.0
C402 C 0.86543 0.70787 0.81628 0.0
C403 C 0.82462 0.67044 0.81007 0.0
C404 C 0.95903 0.64652 0.79116 0.0
C405 C 0.86144 0.75356 0.83104 0.0
C406 C 0.99515 0.70964 0.87168 0.0
C407 C 1.0316 0.74964 0.86637 0.0
C408 C 0.9549 0.69416 0.85461 0.0
C409 C 0.95081 0.71909 0.8313 0.0
C410 C 0.98655 0.76074 0.8261 0.0
C411 C 1.02685 0.77536 0.84368 0.0
C412 C 0.91778 0.64946 0.86119 0.0
C413 C 0.98368 0.78866 0.80167 0.0
H414 H 0.87335 0.58504 0.78201 0.0
H415 H 0.79135 0.67499 0.81638 0.0
H416 H 0.98384 0.68136 0.78665 0.0
H417 H 0.97515 0.63068 0.80817 0.0
H418 H 0.9546 0.61955 0.77481 0.0
H419 H 0.82626 0.76237 0.82652 0.0
H420 H 0.86582 0.74688 0.85185 0.0
H421 H 0.88947 0.78609 0.82683 0.0
H422 H 0.99902 0.68854 0.88874 0.0
H423 H 1.05505 0.80621 0.83943 0.0
H424 H 0.91475 0.61892 0.84684 0.0
H425 H 0.88276 0.65909 0.8609 0.0
H426 H 0.92612 0.63527 0.8804 0.0
H427 H 1.00144 0.77221 0.78707 0.0
H428 H 1.00227 0.82828 0.80469 0.0
H429 H 0.94658 0.78674 0.79394 0.0
C430 C 0.32686 0.82226 0.20357 0.0
C431 C 0.2954 0.8369 0.18497 0.0
C432 C 0.37149 0.85293 0.21089 0.0
C433 C 0.38521 0.8993 0.19924 0.0
C434 C 0.35427 0.91368 0.17991 0.0
C435 C 0.30969 0.88242 0.17307 0.0
C436 C 0.40345 0.83628 0.23161 0.0
C437 C 0.36765 0.9628 0.167 0.0
C438 C 0.47325 0.99855 0.23948 0.0
C439 C 0.51612 0.99638 0.22978 0.0
C440 C 0.4304 0.96791 0.22933 0.0
C441 C 0.43023 0.93432 0.2088 0.0
C442 C 0.47312 0.93309 0.19827 0.0
C443 C 0.51567 0.96424 0.20889 0.0
C444 C 0.38547 0.97059 0.24105 0.0
C445 C 0.47421 0.89794 0.17628 0.0
H446 H 0.31652 0.78675 0.21249 0.0
H447 H 0.2855 0.89431 0.15886 0.0
H448 H 0.43869 0.83755 0.22484 0.0
H449 H 0.40888 0.86197 0.24853 0.0
H450 H 0.38867 0.79802 0.23774 0.0
H451 H 0.34149 0.96653 0.15081 0.0
H452 H 0.37013 0.99364 0.1811 0.0
H453 H 0.40292 0.96715 0.15974 0.0
H454 H 0.47332 0.02402 0.25533 0.0
H455 H 0.54874 0.96232 0.20139 0.0
H456 H 0.37033 0.93437 0.24935 0.0
H457 H 0.3587 0.97808 0.22613 0.0
H458 H 0.39147 0.99995 0.25636 0.0
H459 H 0.46385 0.85903 0.18245 0.0
H460 H 0.5098 0.90382 0.16918 0.0
H461 H 0.44824 0.90259 0.16022 0.0
C462 C 0.56748 0.19489 0.54102 0.0
C463 C 0.59958 0.17792 0.52676 0.0
C464 C 0.56793 0.24583 0.54321 0.0
C465 C 0.60054 0.28091 0.53034 0.0
C466 C 0.63184 0.26378 0.5151 0.0
C467 C 0.63141 0.21268 0.51377 0.0
C468 C 0.53453 0.26227 0.56008 0.0
C469 C 0.66638 0.29953 0.50056 0.0
C470 C 0.57249 0.40984 0.52759 0.0
C471 C 0.60061 0.43375 0.54913 0.0
C472 C 0.57421 0.36105 0.52011 0.0
C473 C 0.60427 0.33548 0.53472 0.0
C474 C 0.63509 0.36101 0.55533 0.0
C475 C 0.63321 0.40978 0.56206 0.0
C476 C 0.54173 0.33583 0.49756 0.0
C477 C 0.66757 0.33558 0.57161 0.0
H478 H 0.54284 0.16841 0.55117 0.0
H479 H 0.65598 0.19992 0.50243 0.0
H480 H 0.55511 0.28643 0.57607 0.0
H481 H 0.51279 0.28453 0.54903 0.0
H482 H 0.51048 0.23042 0.56823 0.0
H483 H 0.68473 0.28004 0.48748 0.0
H484 H 0.64778 0.32427 0.48919 0.0
H485 H 0.69341 0.3235 0.51421 0.0
H486 H 0.54705 0.42795 0.5176 0.0
H487 H 0.65526 0.42822 0.57864 0.0
H488 H 0.51216 0.30804 0.5045 0.0
H489 H 0.56086 0.31573 0.48526 0.0
H490 H 0.52659 0.36273 0.48578 0.0
H491 H 0.64611 0.30538 0.58218 0.0
H492 H 0.69177 0.36161 0.58572 0.0
H493 H 0.68913 0.31833 0.55945 0.0
C494 C 0.27432 0.5935 0.81312 0.0
C495 C 0.32341 0.59889 0.81707 0.0
C496 C 0.25359 0.63292 0.81886 0.0
C497 C 0.28271 0.6781 0.82923 0.0
C498 C 0.33236 0.68613 0.82926 0.0
C499 C 0.35218 0.6463 0.82302 0.0
C500 C 0.20033 0.62372 0.81726 0.0
C501 C 0.36503 0.73426 0.83904 0.0
C502 C 0.21264 0.76781 0.85179 0.0
C503 C 0.2016 0.7481 0.87571 0.0
C504 C 0.24206 0.74805 0.83677 0.0
C505 C 0.26193 0.70882 0.84628 0.0
C506 C 0.25583 0.69327 0.87161 0.0
C507 C 0.22515 0.71233 0.88577 0.0
C508 C 0.24851 0.76644 0.81007 0.0
C509 C 0.27821 0.65299 0.88302 0.0
H510 H 0.25172 0.55729 0.8081 0.0
H511 H 0.39028 0.65119 0.82505 0.0
H512 H 0.18841 0.61547 0.83659 0.0
H513 H 0.18808 0.65706 0.81055 0.0
H514 H 0.18324 0.5917 0.80417 0.0
H515 H 0.39655 0.74293 0.82801 0.0
H516 H 0.34734 0.7659 0.83793 0.0
H517 H 0.37764 0.73029 0.85934 0.0
H518 H 0.19607 0.79665 0.84408 0.0
H519 H 0.21712 0.69595 0.90395 0.0
H520 H 0.22194 0.74201 0.79636 0.0
H521 H 0.28412 0.76545 0.80445 0.0
H522 H 0.24321 0.8049 0.8083 0.0
H523 H 0.26085 0.61671 0.87347 0.0
H524 H 0.27484 0.6497 0.90388 0.0
H525 H 0.31633 0.66053 0.87995 0.0
C526 C 0.83627 0.28929 0.18404 0.0
C527 C 0.86135 0.27072 0.16603 0.0
C528 C 0.79853 0.25827 0.19491 0.0
C529 C 0.78487 0.20742 0.18734 0.0
C530 C 0.80888 0.18868 0.16854 0.0
C531 C 0.84698 0.22046 0.15822 0.0
C532 C 0.77401 0.27972 0.21497 0.0
C533 C 0.79501 0.13479 0.15977 0.0
C534 C 0.72303 0.11955 0.23524 0.0
C535 C 0.67515 0.11416 0.22643 0.0
C536 C 0.75901 0.1492 0.22249 0.0
C537 C 0.74702 0.17356 0.20009 0.0
C538 C 0.69892 0.16714 0.1906 0.0
C539 C 0.66354 0.13779 0.20396 0.0
C540 C 0.80984 0.1553 0.23335 0.0
C541 C 0.68476 0.19207 0.16662 0.0
H542 H 0.84628 0.32827 0.18979 0.0
H543 H 0.86627 0.20557 0.14449 0.0
H544 H 0.7355 0.27294 0.20918 0.0
H545 H 0.77846 0.26098 0.23334 0.0
H546 H 0.78808 0.3203 0.21825 0.0
H547 H 0.81485 0.12686 0.14369 0.0
H548 H 0.80187 0.11094 0.1759 0.0
H549 H 0.75658 0.12416 0.15359 0.0
H550 H 0.7325 0.10064 0.25224 0.0
H551 H 0.62672 0.13437 0.1971 0.0
H552 H 0.82543 0.19498 0.23845 0.0
H553 H 0.83098 0.14386 0.21878 0.0
H554 H 0.8133 0.13311 0.25067 0.0
H555 H 0.69435 0.23297 0.16976 0.0
H556 H 0.6462 0.1806 0.16077 0.0
H557 H 0.70428 0.18315 0.15064 0.0
C558 C 1.04732 0.63827 0.05999 0.0
C559 C 0.06684 0.59771 0.06705 0.0
C560 C 1.05651 0.66234 0.03704 0.0
C561 C 0.08588 0.64543 0.02059 0.0
C562 C 0.10502 0.60388 0.02728 0.0
C563 C 0.09521 0.5804 0.05049 0.0
C564 C 1.03502 0.70618 0.0305 0.0
C565 C 0.13626 0.58468 0.01007 0.0
C566 C 0.06982 0.68107 0.95146 0.0
C567 C 0.10744 0.72255 0.95018 0.0
C568 C 1.06319 0.65498 0.97405 0.0
C569 C 0.09499 0.67058 -0.00398 0.0
C570 C 0.13351 0.71196 -0.00514 0.0
C571 C 0.13943 0.73739 0.97185 0.0
C572 C 1.02182 0.61095 0.97444 0.0
C573 C 0.16802 0.7297 0.01799 0.0
H574 H 1.02521 0.65185 0.07263 0.0
H575 H 0.11069 0.54934 0.05592 0.0
H576 H 1.06338 0.73948 0.02791 0.0
H577 H 1.01229 0.69849 0.01216 0.0
H578 H 1.01334 0.71498 0.04553 0.0
H579 H 0.1481 0.55183 0.01794 0.0
H580 H 0.11704 0.57431 0.99091 0.0
H581 H 0.16792 0.61433 0.00735 0.0
H582 H 1.04582 0.66835 0.93453 0.0
H583 H 0.16878 0.76907 0.97085 0.0
H584 H 0.99755 0.61836 0.98838 0.0
H585 H 1.03445 0.57758 0.98078 0.0
H586 H 1.00145 0.60244 0.9554 0.0
H587 H 0.14922 0.742 0.03345 0.0
H588 H 0.19723 0.761 0.01365 0.0
H589 H 0.18344 0.69878 0.02546 0.0
C590 C 0.62718 1.00581 0.43146 0.0
C591 C 0.62377 0.04637 0.44669 0.0
C592 C 0.62803 0.00983 0.40486 0.0
C593 C 0.62731 0.05608 0.39354 0.0
C594 C 0.62663 0.09788 0.40921 0.0
C595 C 0.62375 0.09221 0.4356 0.0
C596 C 0.62706 0.96399 0.38876 0.0
C597 C 0.6277 0.14823 0.39804 0.0
C598 C 0.65889 0.0681 0.32475 0.0
C599 C 0.61402 0.06109 0.31109 0.0
C600 C 0.66398 0.06839 0.35164 0.0
C601 C 0.62319 0.05958 0.3652 0.0
C602 C 0.57792 0.05283 0.35165 0.0
C603 C 0.574 0.05486 0.3249 0.0
C604 C 0.71296 0.07754 0.36551 0.0
C605 C 0.5334 0.04233 0.36534 0.0
H606 H 0.62675 0.97032 0.44021 0.0
H607 H 0.62139 0.12355 0.44761 0.0
H608 H 0.59375 0.9548 0.37589 0.0
H609 H 0.65676 0.97087 0.37647 0.0
H610 H 0.62935 0.93132 0.4006 0.0
H611 H 0.6333 0.17801 0.4131 0.0
H612 H 0.65627 0.15762 0.38506 0.0
H613 H 0.59376 0.14764 0.3865 0.0
H614 H 0.69015 0.07247 0.31449 0.0
H615 H 0.53923 0.05115 0.31482 0.0
H616 H 0.71808 0.04343 0.37525 0.0
H617 H 0.71729 0.10721 0.3805 0.0
H618 H 0.74109 0.08854 0.35235 0.0
H619 H 0.53221 0.00903 0.37716 0.0
H620 H 0.50082 0.0359 0.35188 0.0
H621 H 0.53328 0.07393 0.37848 0.0
C622 C 0.51212 0.48685 0.74782 0.0
C623 C 0.54487 0.46279 0.76047 0.0
C624 C 0.51397 0.49804 0.72184 0.0
C625 C 0.54929 0.48469 0.7082 0.0
C626 C 0.58246 0.46047 0.72086 0.0
C627 C 0.57988 0.44988 0.74684 0.0
C628 C 0.47814 0.52408 0.70898 0.0
C629 C 0.6206 0.44554 0.70693 0.0
C630 C 0.53181 0.4664 0.63604 0.0
C631 C 0.56157 0.50963 0.62802 0.0
C632 C 0.52637 0.45852 0.66205 0.0
C633 C 0.55113 0.49487 0.6805 0.0
C634 C 0.57975 0.5395 0.67249 0.0
C635 C 0.58466 0.54635 0.6463 0.0
C636 C 0.49539 0.41053 0.66982 0.0
C637 C 0.60656 0.57918 0.69162 0.0
H638 H 0.48511 0.49723 0.75824 0.0
H639 H 0.60544 0.43144 0.75645 0.0
H640 H 0.4965 0.55924 0.7008 0.0
H641 H 0.45723 0.50052 0.69288 0.0
H642 H 0.45342 0.5327 0.72239 0.0
H643 H 0.64399 0.42748 0.71963 0.0
H644 H 0.60426 0.41942 0.69077 0.0
H645 H 0.64267 0.47866 0.69873 0.0
H646 H 0.51328 0.43828 0.62193 0.0
H647 H 0.60797 0.57965 0.64022 0.0
H648 H 0.46888 0.41833 0.68226 0.0
H649 H 0.51735 0.38875 0.68109 0.0
H650 H 0.4765 0.38734 0.65306 0.0
H651 H 0.58231 0.58925 0.70486 0.0
H652 H 0.62425 0.61329 0.68222 0.0
H653 H 0.63388 0.56475 0.70337 0.0
C654 C 0.60853 0.02379 0.62021 0.0
C655 C 0.57836 0.99594 0.6004 0.0
C656 C 0.60217 0.01344 0.64595 0.0
C657 C 0.56497 0.97401 0.65204 0.0
C658 C 0.53458 0.94551 0.63216 0.0
C659 C 0.5415 0.95695 0.60657 0.0
C660 C 0.63506 0.04497 0.66663 0.0
C661 C 0.49478 0.90294 0.63792 0.0
C662 C 0.57691 0.92435 0.71902 0.0
C663 C 0.5487 0.94949 0.73201 0.0
C664 C 0.58145 0.93082 0.69278 0.0
C665 C 0.55746 0.96343 0.67928 0.0
C666 C 0.52786 0.98775 0.69211 0.0
C667 C 0.52366 0.98028 0.71827 0.0
C668 C 0.61307 0.90397 0.67968 0.0
C669 C 0.50168 0.0228 0.6784 0.0
H670 H 0.63703 0.05404 0.61565 0.0
H671 H 0.51819 0.935 0.5914 0.0
H672 H 0.61448 0.06327 0.67894 0.0
H673 H 0.65309 0.02125 0.67906 0.0
H674 H 0.6624 0.07409 0.65869 0.0
H675 H 0.47484 0.8838 0.62026 0.0
H676 H 0.50905 0.87542 0.64961 0.0
H677 H 0.46979 0.91674 0.64932 0.0
H678 H 0.59668 0.90086 0.72954 0.0
H679 H 0.50112 0.99912 0.72808 0.0
H680 H 0.64374 0.9313 0.67345 0.0
H681 H 0.59363 0.8835 0.66228 0.0
H682 H 0.62656 0.87729 0.6924 0.0
H683 H 0.5274 0.0547 0.67145 0.0
H684 H 0.47869 0.03733 0.69091 0.0
H685 H 0.47944 1.00372 0.66139 0.0
C686 C 0.58639 0.48398 0.93358 0.0
C687 C 0.54893 0.45033 0.91982 0.0
C688 C 0.58596 0.49365 0.95983 0.0
C689 C 0.54734 0.46878 0.97282 0.0
C690 C 0.50985 0.43399 0.95923 0.0
C691 C 0.51097 0.42533 0.93286 0.0
C692 C 0.62651 0.53125 0.97357 0.0
C693 C 0.4683 0.40637 0.97248 0.0
C694 C 0.56981 0.46723 0.04525 0.0
C695 C 0.54988 0.50608 0.05301 0.0
C696 C 0.56799 0.45369 0.01927 0.0
C697 C 0.54612 0.47997 0.00056 0.0
C698 C 0.52522 0.51869 0.00832 0.0
C699 C 0.52716 0.53113 0.03447 0.0
C700 C 0.59024 0.41186 0.01182 0.0
C701 C 0.502 0.54795 0.98895 0.0
H702 H 0.61582 0.5037 0.92374 0.0
H703 H 0.48188 0.39924 0.92245 0.0
H704 H 0.61311 0.56209 0.98168 0.0
H705 H 0.64316 0.5138 0.98979 0.0
H706 H 0.6541 0.54707 0.96076 0.0
H707 H 0.44284 0.37923 0.95943 0.0
H708 H 0.48088 0.38625 0.98893 0.0
H709 H 0.44938 0.43309 0.98023 0.0
H710 H 0.58693 0.44743 0.05958 0.0
H711 H 0.51204 0.56142 0.04039 0.0
H712 H 0.62037 0.42642 0.00042 0.0
H713 H 0.56423 0.38375 -0.00041 0.0
H714 H 0.60335 0.39325 0.02874 0.0
H715 H 0.52864 0.56791 0.97661 0.0
H716 H 0.48569 0.57552 -0.00186 0.0
H717 H 0.47425 0.52252 0.97631 0.0
C718 C 0.10832 0.55073 0.23702 0.0
C719 C 0.06874 0.52929 0.2202 0.0
C720 C 0.10795 0.54456 0.2635 0.0
C721 C 0.06663 0.51719 0.27343 0.0
C722 C 1.02667 0.49508 0.25652 0.0
C723 C 1.02839 0.50095 0.23005 0.0
C724 C 0.15163 0.56782 0.28087 0.0
C725 C 0.98169 0.46641 0.26642 0.0
C726 C 0.0789 0.47108 0.34114 0.0
C727 C 0.06756 0.50928 0.35531 0.0
C728 C 0.07821 0.47279 0.31439 0.0
C729 C 1.06492 0.51317 0.30158 0.0
C730 C 1.05189 0.55098 0.31581 0.0
C731 C 1.05389 0.54885 0.34256 0.0
C732 C 0.0932 0.43231 0.29993 0.0
C733 C 1.0366 0.5941 0.30281 0.0
H734 H 0.13972 0.57232 0.22947 0.0
H735 H 0.9976 0.48451 0.21712 0.0
H736 H 0.14371 0.59652 0.29364 0.0
H737 H 0.16266 0.53931 0.29326 0.0
H738 H 0.18173 0.58544 0.27001 0.0
H739 H 0.95421 0.45039 0.25071 0.0
H740 H 0.98914 0.43582 0.2785 0.0
H741 H 0.96724 0.49127 0.27867 0.0
H742 H 0.08986 0.44073 0.35109 0.0
H743 H 1.04483 0.57818 0.35359 0.0
H744 H 0.12532 0.44847 0.29031 0.0
H745 H 1.06509 0.41525 0.28478 0.0
H746 H 0.10102 0.40266 0.31265 0.0
H747 H 0.06647 0.6167 0.29341 0.0
H748 H 1.02456 0.61855 0.31646 0.0
H749 H 1.0074 0.58026 0.28766 0.0
loop_
_geom_bond_atom_site_label_1
_geom_bond_atom_site_label_2
_geom_bond_distance
_geom_bond_site_symmetry_2
_ccdc_geom_bond_type
Dy0 O3 2.307 1_455 S
Dy0 O5 2.395 . S
Dy0 O6 2.379 . S
Dy0 O8 2.339 . S
Dy0 O10 2.298 . S
Dy0 O14 2.275 . S
Dy0 C22 2.738 . S
Dy1 O4 2.298 . S
Dy1 O7 2.276 . S
Dy1 O9 2.307 1_655 S
Dy1 O11 2.395 . S
Dy1 O12 2.379 . S
Dy1 O15 2.339 . S
Dy1 C31 2.738 . S
C2 O14 1.254 . S
C2 O15 1.257 1_455 S
O3 Dy0 2.307 1_655 S
O3 C13 1.266 . S
O4 Dy1 2.298 . S
O4 C13 1.236 . S
O5 Dy0 2.395 . S
O5 C22 1.255 . S
O6 Dy0 2.379 . S
O6 C22 1.249 . S
O7 Dy1 2.276 . S
O7 C23 1.255 1_655 S
O8 Dy0 2.339 . S
O8 C23 1.257 . S
O9 Dy1 2.307 1_455 S
O9 C24 1.266 . S
O10 Dy0 2.298 . S
O10 C24 1.236 . S
O11 Dy1 2.395 . S
O11 C31 1.255 . S
O12 Dy1 2.379 . S
O12 C31 1.249 . S
C13 O3 1.266 . S
C13 O4 1.236 . S
O14 Dy0 2.275 . S
O14 C2 1.254 . S
O15 Dy1 2.339 . S
O15 C2 1.257 1_655 S
C16 C19 1.344 . S
C16 C20 1.328 . S
C16 C22 1.516 . S
C17 C18 1.304 . S
C17 C21 1.323 . S
C18 C17 1.304 . S
C18 C19 1.371 . S
C18 H32 0.930 . S
C19 C16 1.344 . S
C19 C18 1.371 . S
C19 H33 0.931 . S
C20 C16 1.328 . S
C20 C21 1.433 . S
C20 H34 0.931 . S
C21 C17 1.323 . S
C21 C20 1.433 . S
C21 H35 0.933 . S
C22 Dy0 2.738 . S
C22 O5 1.255 . S
C22 O6 1.249 . S
C22 C16 1.516 . S
C23 O7 1.255 1_455 S
C23 O8 1.257 . S
C24 O9 1.266 . S
C24 O10 1.236 . S
C25 C28 1.344 . S
C25 C29 1.328 . S
C25 C31 1.516 . S
C26 C27 1.304 . S
C26 C30 1.323 . S
C27 C26 1.304 . S
C27 C28 1.371 . S
C27 H36 0.930 . S
C28 C25 1.344 . S
C28 C27 1.371 . S
C28 H37 0.931 . S
C29 C25 1.328 . S
C29 C30 1.433 . S
C29 H38 0.931 . S
C30 C26 1.323 . S
C30 C29 1.433 . S
C30 H39 0.933 . S
C31 Dy1 2.738 . S
C31 O11 1.255 . S
C31 O12 1.249 . S
C31 C25 1.516 . S
H32 C18 0.930 . S
H33 C19 0.931 . S
H34 C20 0.931 . S
H35 C21 0.933 . S
H36 C27 0.930 . S
H37 C28 0.931 . S
H38 C29 0.931 . S
H39 C30 0.933 . S
Dy40 O43 2.307 1_565 S
Dy40 O45 2.395 . S
Dy40 O46 2.379 . S
Dy40 O48 2.339 1_565 S
Dy40 O50 2.298 . S
Dy40 O54 2.275 1_565 S
Dy40 C62 2.738 . S
Dy41 O44 2.298 . S
Dy41 O47 2.275 . S
Dy41 O49 2.307 1_545 S
Dy41 O51 2.395 . S
Dy41 O52 2.379 . S
Dy41 O55 2.339 . S
Dy41 C71 2.738 . S
C42 O54 1.254 . S
C42 O55 1.257 . S
O43 Dy40 2.307 1_545 S
O43 C53 1.266 . S
O44 Dy41 2.298 . S
O44 C53 1.236 . S
O45 Dy40 2.395 . S
O45 C62 1.255 . S
O46 Dy40 2.379 . S
O46 C62 1.249 . S
O47 Dy41 2.275 . S
O47 C63 1.254 . S
O48 Dy40 2.339 1_545 S
O48 C63 1.257 . S
O49 Dy41 2.307 1_565 S
O49 C64 1.266 . S
O50 Dy40 2.298 . S
O50 C64 1.236 . S
O51 Dy41 2.395 . S
O51 C71 1.255 . S
O52 Dy41 2.379 . S
O52 C71 1.249 . S
C53 O43 1.266 . S
C53 O44 1.236 . S
O54 Dy40 2.275 1_545 S
O54 C42 1.254 . S
O55 Dy41 2.339 . S
O55 C42 1.257 . S
C56 C59 1.344 . S
C56 C60 1.328 . S
C56 C62 1.516 . S
C57 C58 1.304 . S
C57 C61 1.323 . S
C58 C57 1.304 . S
C58 C59 1.371 . S
C58 H72 0.930 . S
C59 C56 1.344 . S
C59 C58 1.371 . S
C59 H73 0.931 . S
C60 C56 1.328 . S
C60 C61 1.433 . S
C60 H74 0.931 . S
C61 C57 1.323 . S
C61 C60 1.433 . S
C61 H75 0.933 . S
C62 Dy40 2.738 . S
C62 O45 1.255 . S
C62 O46 1.249 . S
C62 C56 1.516 . S
C63 O47 1.254 . S
C63 O48 1.257 . S
C64 O49 1.266 . S
C64 O50 1.236 . S
C65 C68 1.344 . S
C65 C69 1.328 . S
C65 C71 1.516 . S
C66 C67 1.304 . S
C66 C70 1.323 . S
C67 C66 1.304 . S
C67 C68 1.371 . S
C67 H76 0.930 . S
C68 C65 1.344 . S
C68 C67 1.371 . S
C68 H77 0.931 . S
C69 C65 1.328 . S
C69 C70 1.433 . S
C69 H78 0.931 . S
C70 C66 1.323 . S
C70 C69 1.433 . S
C70 H79 0.933 . S
C71 Dy41 2.738 . S
C71 O51 1.255 . S
C71 O52 1.249 . S
C71 C65 1.516 . S
H72 C58 0.930 . S
H73 C59 0.931 . S
H74 C60 0.931 . S
H75 C61 0.933 . S
H76 C67 0.930 . S
H77 C68 0.931 . S
H78 C69 0.931 . S
H79 C70 0.933 . S
Dy80 O83 2.307 . S
Dy80 O85 2.395 . S
Dy80 O86 2.379 . S
Dy80 O88 2.339 . S
Dy80 O90 2.298 . S
Dy80 O94 2.275 . S
Dy80 C102 2.738 . S
Dy81 O84 2.298 . S
Dy81 O87 2.275 . S
Dy81 O89 2.307 . S
Dy81 O91 2.395 . S
Dy81 O92 2.379 . S
Dy81 O95 2.339 . S
Dy81 C111 2.738 . S
C82 O94 1.254 . S
C82 O95 1.257 . S
O83 Dy80 2.307 . S
O83 C93 1.266 . S
O84 Dy81 2.298 . S
O84 C93 1.236 . S
O85 Dy80 2.395 . S
O85 C102 1.255 . S
O86 Dy80 2.379 . S
O86 C102 1.249 . S
O87 Dy81 2.275 . S
O87 C103 1.254 . S
O88 Dy80 2.339 . S
O88 C103 1.257 . S
O89 Dy81 2.307 . S
O89 C104 1.266 . S
O90 Dy80 2.298 . S
O90 C104 1.236 . S
O91 Dy81 2.395 . S
O91 C111 1.255 . S
O92 Dy81 2.379 . S
O92 C111 1.249 . S
C93 O83 1.266 . S
C93 O84 1.236 . S
O94 Dy80 2.275 . S
O94 C82 1.254 . S
O95 Dy81 2.339 . S
O95 C82 1.257 . S
C96 C99 1.344 . S
C96 C100 1.328 . S
C96 C102 1.516 . S
C97 C98 1.304 . S
C97 C101 1.323 . S
C98 C97 1.304 . S
C98 C99 1.371 . S
C98 H112 0.930 . S
C99 C96 1.344 . S
C99 C98 1.371 . S
C99 H113 0.931 . S
C100 C96 1.328 . S
C100 C101 1.433 . S
C100 H114 0.931 . S
C101 C97 1.323 . S
C101 C100 1.433 . S
C101 H115 0.933 . S
C102 Dy80 2.738 . S
C102 O85 1.255 . S
C102 O86 1.249 . S
C102 C96 1.516 . S
C103 O87 1.254 . S
C103 O88 1.257 . S
C104 O89 1.266 . S
C104 O90 1.236 . S
C105 C108 1.344 . S
C105 C109 1.328 . S
C105 C111 1.516 . S
C106 C107 1.304 . S
C106 C110 1.323 . S
C107 C106 1.304 . S
C107 C108 1.371 . S
C107 H116 0.930 . S
C108 C105 1.344 . S
C108 C107 1.371 . S
C108 H117 0.931 . S
C109 C105 1.328 . S
C109 C110 1.433 . S
C109 H118 0.931 . S
C110 C106 1.323 . S
C110 C109 1.433 . S
C110 H119 0.933 . S
C111 Dy81 2.738 . S
C111 O91 1.255 . S
C111 O92 1.249 . S
C111 C105 1.516 . S
H112 C98 0.930 . S
H113 C99 0.931 . S
H114 C100 0.931 . S
H115 C101 0.933 . S
H116 C107 0.930 . S
H117 C108 0.931 . S
H118 C109 0.931 . S
H119 C110 0.933 . S
H120 C123 0.931 1_565 S
H121 C126 0.928 . S
H122 C128 0.930 . S
C123 H120 0.931 1_545 S
C123 C124 1.413 . S
C123 C125 1.360 . S
C124 C123 1.413 . S
C124 C128 1.429 . S
C125 C123 1.360 . S
C125 C126 1.372 . S
C126 H121 0.928 . S
C126 C125 1.372 . S
C126 C127 1.404 . S
C127 C126 1.404 . S
C127 C128 1.391 . S
C128 H122 0.930 . S
C128 C124 1.429 . S
C128 C127 1.391 . S
H129 C132 0.931 . S
H130 C135 0.928 . S
H131 C137 0.930 . S
C132 H129 0.931 . S
C132 C133 1.413 . S
C132 C134 1.360 . S
C133 C132 1.413 . S
C133 C137 1.429 . S
C134 C132 1.360 . S
C134 C135 1.372 . S
C135 H130 0.928 . S
C135 C134 1.372 . S
C135 C136 1.404 . S
C136 C135 1.404 . S
C136 C137 1.391 . S
C137 H131 0.930 . S
C137 C133 1.429 . S
C137 C136 1.391 . S
H138 C141 0.931 . S
H139 C144 0.928 . S
H140 C146 0.930 . S
C141 H138 0.931 . S
C141 C142 1.413 . S
C141 C143 1.360 1_655 S
C142 C141 1.413 . S
C142 C146 1.429 1_655 S
C143 C141 1.360 1_455 S
C143 C144 1.372 . S
C144 H139 0.928 . S
C144 C143 1.372 . S
C144 C145 1.404 . S
C145 C144 1.404 . S
C145 C146 1.391 . S
C146 H140 0.930 . S
C146 C142 1.429 1_455 S
C146 C145 1.391 . S
H147 C150 0.931 . S
H148 C153 0.928 . S
H149 C155 0.930 . S
C150 H147 0.931 . S
C150 C151 1.413 . S
C150 C152 1.360 1_655 S
C151 C150 1.413 . S
C151 C155 1.429 1_655 S
C152 C150 1.360 1_455 S
C152 C153 1.372 . S
C153 H148 0.928 . S
C153 C152 1.372 . S
C153 C154 1.404 . S
C154 C153 1.404 . S
C154 C155 1.391 . S
C155 H149 0.930 . S
C155 C151 1.429 1_455 S
C155 C154 1.391 . S
H156 C159 0.931 . S
H157 C162 0.928 . S
H158 C164 0.930 . S
C159 H156 0.931 . S
C159 C160 1.413 . S
C159 C161 1.360 . S
C160 C159 1.413 . S
C160 C164 1.429 . S
C161 C159 1.360 . S
C161 C162 1.372 1_545 S
C162 H157 0.928 . S
C162 C161 1.372 1_565 S
C162 C163 1.404 . S
C163 C162 1.404 . S
C163 C164 1.391 1_565 S
C164 H158 0.930 . S
C164 C160 1.429 . S
C164 C163 1.391 1_545 S
H165 C168 0.931 . S
H166 C171 0.928 . S
H167 C173 0.930 . S
C168 H165 0.931 . S
C168 C169 1.413 . S
C168 C170 1.360 . S
C169 C168 1.413 . S
C169 C173 1.429 . S
C170 C168 1.360 . S
C170 C171 1.372 . S
C171 H166 0.928 . S
C171 C170 1.372 . S
C171 C172 1.404 . S
C172 C171 1.404 . S
C172 C173 1.391 . S
C173 H167 0.930 . S
C173 C169 1.429 . S
C173 C172 1.391 . S
C174 C175 1.391 . S
C174 C176 1.394 . S
C174 H190 0.931 . S
C175 C174 1.391 . S
C175 C179 1.376 . S
C176 C174 1.394 . S
C176 C177 1.369 . S
C176 C180 1.531 . S
C177 C176 1.369 . S
C177 C178 1.410 . S
C177 C185 1.503 . S
C178 C177 1.410 . S
C178 C179 1.392 . S
C178 C181 1.511 . S
C179 C175 1.376 . S
C179 C178 1.392 . S
C179 H191 0.929 . S
C180 C176 1.531 . S
C180 H192 0.960 . S
C180 H193 0.962 . S
C180 H194 0.960 . S
C181 C178 1.511 . S
C181 H195 0.961 . S
C181 H196 0.961 . S
C181 H197 0.961 . S
C182 C183 1.370 . S
C182 C184 1.363 . S
C182 H198 0.931 . S
C183 C182 1.370 . S
C183 C187 1.408 . S
C184 C182 1.363 . S
C184 C185 1.370 . S
C184 C188 1.524 . S
C185 C177 1.503 . S
C185 C184 1.370 . S
C185 C186 1.403 . S
C186 C185 1.403 . S
C186 C187 1.404 . S
C186 C189 1.539 . S
C187 C183 1.408 . S
C187 C186 1.404 . S
C187 H199 0.930 . S
C188 C184 1.524 . S
C188 H200 0.956 . S
C188 H201 0.961 . S
C188 H202 0.961 . S
C189 C186 1.539 . S
C189 H203 0.958 . S
C189 H204 0.961 . S
C189 H205 0.960 . S
H190 C174 0.931 . S
H191 C179 0.929 . S
H192 C180 0.960 . S
H193 C180 0.962 . S
H194 C180 0.960 . S
H195 C181 0.961 . S
H196 C181 0.961 . S
H197 C181 0.961 . S
H198 C182 0.931 . S
H199 C187 0.930 . S
H200 C188 0.956 . S
H201 C188 0.961 . S
H202 C188 0.961 . S
H203 C189 0.958 . S
H204 C189 0.961 . S
H205 C189 0.960 . S
C206 C207 1.391 . S
C206 C208 1.394 . S
C206 H222 0.931 . S
C207 C206 1.391 . S
C207 C211 1.376 . S
C208 C206 1.394 . S
C208 C209 1.369 . S
C208 C212 1.531 . S
C209 C208 1.369 . S
C209 C210 1.410 . S
C209 C217 1.503 . S
C210 C209 1.410 . S
C210 C211 1.392 . S
C210 C213 1.511 . S
C211 C207 1.376 . S
C211 C210 1.392 . S
C211 H223 0.929 . S
C212 C208 1.531 . S
C212 H224 0.960 . S
C212 H225 0.962 . S
C212 H226 0.960 . S
C213 C210 1.511 . S
C213 H227 0.961 . S
C213 H228 0.961 . S
C213 H229 0.961 . S
C214 C215 1.370 . S
C214 C216 1.363 . S
C214 H230 0.931 . S
C215 C214 1.370 . S
C215 C219 1.408 . S
C216 C214 1.363 . S
C216 C217 1.370 . S
C216 C220 1.524 . S
C217 C209 1.503 . S
C217 C216 1.370 . S
C217 C218 1.403 . S
C218 C217 1.403 . S
C218 C219 1.404 . S
C218 C221 1.539 . S
C219 C215 1.408 . S
C219 C218 1.404 . S
C219 H231 0.930 . S
C220 C216 1.524 . S
C220 H232 0.956 . S
C220 H233 0.961 . S
C220 H234 0.961 . S
C221 C218 1.539 . S
C221 H235 0.958 . S
C221 H236 0.961 . S
C221 H237 0.960 . S
H222 C206 0.931 . S
H223 C211 0.929 . S
H224 C212 0.960 . S
H225 C212 0.962 . S
H226 C212 0.960 . S
H227 C213 0.961 . S
H228 C213 0.961 . S
H229 C213 0.961 . S
H230 C214 0.931 . S
H231 C219 0.930 . S
H232 C220 0.956 . S
H233 C220 0.961 . S
H234 C220 0.961 . S
H235 C221 0.958 . S
H236 C221 0.961 . S
H237 C221 0.960 . S
C238 C239 1.391 . S
C238 C240 1.394 . S
C238 H254 0.931 . S
C239 C238 1.391 . S
C239 C243 1.376 . S
C240 C238 1.394 . S
C240 C241 1.369 . S
C240 C244 1.531 . S
C241 C240 1.369 . S
C241 C242 1.410 . S
C241 C249 1.503 . S
C242 C241 1.410 . S
C242 C243 1.392 . S
C242 C245 1.511 . S
C243 C239 1.376 . S
C243 C242 1.392 . S
C243 H255 0.929 . S
C244 C240 1.531 . S
C244 H256 0.960 . S
C244 H257 0.962 . S
C244 H258 0.960 . S
C245 C242 1.511 . S
C245 H259 0.961 . S
C245 H260 0.961 . S
C245 H261 0.961 . S
C246 C247 1.370 . S
C246 C248 1.363 . S
C246 H262 0.931 . S
C247 C246 1.370 . S
C247 C251 1.408 . S
C248 C246 1.363 . S
C248 C249 1.370 . S
C248 C252 1.524 . S
C249 C241 1.503 . S
C249 C248 1.370 . S
C249 C250 1.403 . S
C250 C249 1.403 . S
C250 C251 1.404 . S
C250 C253 1.539 . S
C251 C247 1.408 . S
C251 C250 1.404 . S
C251 H263 0.930 . S
C252 C248 1.524 . S
C252 H264 0.956 . S
C252 H265 0.961 . S
C252 H266 0.961 . S
C253 C250 1.539 . S
C253 H267 0.958 . S
C253 H268 0.961 . S
C253 H269 0.960 . S
H254 C238 0.931 . S
H255 C243 0.929 . S
H256 C244 0.960 . S
H257 C244 0.962 . S
H258 C244 0.960 . S
H259 C245 0.961 . S
H260 C245 0.961 . S
H261 C245 0.961 . S
H262 C246 0.931 . S
H263 C251 0.930 . S
H264 C252 0.956 . S
H265 C252 0.961 . S
H266 C252 0.961 . S
H267 C253 0.958 . S
H268 C253 0.961 . S
H269 C253 0.960 . S
C270 C271 1.391 . S
C270 C272 1.394 . S
C270 H286 0.931 . S
C271 C270 1.391 . S
C271 C275 1.376 . S
C272 C270 1.394 . S
C272 C273 1.369 . S
C272 C276 1.531 . S
C273 C272 1.369 . S
C273 C274 1.410 . S
C273 C281 1.503 . S
C274 C273 1.410 . S
C274 C275 1.392 . S
C274 C277 1.511 . S
C275 C271 1.376 . S
C275 C274 1.392 . S
C275 H287 0.929 . S
C276 C272 1.531 . S
C276 H288 0.960 . S
C276 H289 0.962 . S
C276 H290 0.960 . S
C277 C274 1.511 . S
C277 H291 0.961 . S
C277 H292 0.961 . S
C277 H293 0.961 . S
C278 C279 1.370 . S
C278 C280 1.363 . S
C278 H294 0.931 . S
C279 C278 1.370 . S
C279 C283 1.408 . S
C280 C278 1.363 . S
C280 C281 1.370 . S
C280 C284 1.524 . S
C281 C273 1.503 . S
C281 C280 1.370 . S
C281 C282 1.403 . S
C282 C281 1.403 . S
C282 C283 1.404 . S
C282 C285 1.539 . S
C283 C279 1.408 . S
C283 C282 1.404 . S
C283 H295 0.930 . S
C284 C280 1.524 . S
C284 H296 0.956 . S
C284 H297 0.961 . S
C284 H298 0.961 . S
C285 C282 1.539 . S
C285 H299 0.958 . S
C285 H300 0.961 . S
C285 H301 0.960 . S
H286 C270 0.931 . S
H287 C275 0.929 . S
H288 C276 0.960 . S
H289 C276 0.962 . S
H290 C276 0.960 . S
H291 C277 0.961 . S
H292 C277 0.961 . S
H293 C277 0.961 . S
H294 C278 0.931 . S
H295 C283 0.930 . S
H296 C284 0.956 . S
H297 C284 0.961 . S
H298 C284 0.961 . S
H299 C285 0.958 . S
H300 C285 0.961 . S
H301 C285 0.960 . S
C302 C303 1.391 . S
C302 C304 1.394 . S
C302 H318 0.931 . S
C303 C302 1.391 . S
C303 C307 1.376 . S
C304 C302 1.394 . S
C304 C305 1.369 . S
C304 C308 1.531 . S
C305 C304 1.369 . S
C305 C306 1.410 . S
C305 C313 1.503 . S
C306 C305 1.410 . S
C306 C307 1.392 . S
C306 C309 1.511 . S
C307 C303 1.376 . S
C307 C306 1.392 . S
C307 H319 0.929 . S
C308 C304 1.531 . S
C308 H320 0.960 . S
C308 H321 0.962 . S
C308 H322 0.960 . S
C309 C306 1.511 . S
C309 H323 0.961 . S
C309 H324 0.961 . S
C309 H325 0.961 . S
C310 C311 1.370 . S
C310 C312 1.363 . S
C310 H326 0.931 . S
C311 C310 1.370 . S
C311 C315 1.408 . S
C312 C310 1.363 . S
C312 C313 1.370 . S
C312 C316 1.524 . S
C313 C305 1.503 . S
C313 C312 1.370 . S
C313 C314 1.403 . S
C314 C313 1.403 . S
C314 C315 1.404 . S
C314 C317 1.539 . S
C315 C311 1.408 . S
C315 C314 1.404 . S
C315 H327 0.930 . S
C316 C312 1.524 . S
C316 H328 0.956 . S
C316 H329 0.961 . S
C316 H330 0.961 . S
C317 C314 1.539 . S
C317 H331 0.958 . S
C317 H332 0.961 . S
C317 H333 0.960 . S
H318 C302 0.931 . S
H319 C307 0.929 . S
H320 C308 0.960 . S
H321 C308 0.962 . S
H322 C308 0.960 . S
H323 C309 0.961 . S
H324 C309 0.961 . S
H325 C309 0.961 . S
H326 C310 0.931 . S
H327 C315 0.930 . S
H328 C316 0.956 . S
H329 C316 0.961 . S
H330 C316 0.961 . S
H331 C317 0.958 . S
H332 C317 0.961 . S
H333 C317 0.960 . S
C334 C335 1.391 . S
C334 C336 1.394 . S
C334 H350 0.931 . S
C335 C334 1.391 . S
C335 C339 1.376 . S
C336 C334 1.394 . S
C336 C337 1.369 . S
C336 C340 1.531 . S
C337 C336 1.369 . S
C337 C338 1.410 . S
C337 C345 1.503 . S
C338 C337 1.410 . S
C338 C339 1.392 . S
C338 C341 1.511 . S
C339 C335 1.376 . S
C339 C338 1.392 . S
C339 H351 0.929 . S
C340 C336 1.531 . S
C340 H352 0.960 . S
C340 H353 0.962 . S
C340 H354 0.960 . S
C341 C338 1.511 . S
C341 H355 0.961 . S
C341 H356 0.961 . S
C341 H357 0.961 . S
C342 C343 1.370 . S
C342 C344 1.363 . S
C342 H358 0.931 . S
C343 C342 1.370 . S
C343 C347 1.408 . S
C344 C342 1.363 . S
C344 C345 1.370 . S
C344 C348 1.524 . S
C345 C337 1.503 . S
C345 C344 1.370 . S
C345 C346 1.403 . S
C346 C345 1.403 . S
C346 C347 1.404 . S
C346 C349 1.539 . S
C347 C343 1.408 . S
C347 C346 1.404 . S
C347 H359 0.930 . S
C348 C344 1.524 . S
C348 H360 0.956 . S
C348 H361 0.961 . S
C348 H362 0.961 . S
C349 C346 1.539 . S
C349 H363 0.958 . S
C349 H364 0.961 . S
C349 H365 0.960 . S
H350 C334 0.931 . S
H351 C339 0.929 . S
H352 C340 0.960 . S
H353 C340 0.962 . S
H354 C340 0.960 . S
H355 C341 0.961 . S
H356 C341 0.961 . S
H357 C341 0.961 . S
H358 C342 0.931 . S
H359 C347 0.930 . S
H360 C348 0.956 . S
H361 C348 0.961 . S
H362 C348 0.961 . S
H363 C349 0.958 . S
H364 C349 0.961 . S
H365 C349 0.960 . S
C366 C367 1.391 . S
C366 C368 1.394 . S
C366 H382 0.931 . S
C367 C366 1.391 . S
C367 C371 1.376 . S
C368 C366 1.394 . S
C368 C369 1.369 . S
C368 C372 1.531 . S
C369 C368 1.369 . S
C369 C370 1.410 . S
C369 C377 1.503 . S
C370 C369 1.410 . S
C370 C371 1.392 . S
C370 C373 1.511 . S
C371 C367 1.376 . S
C371 C370 1.392 . S
C371 H383 0.929 . S
C372 C368 1.531 . S
C372 H384 0.960 . S
C372 H385 0.962 . S
C372 H386 0.960 . S
C373 C370 1.511 . S
C373 H387 0.961 . S
C373 H388 0.961 . S
C373 H389 0.961 . S
C374 C375 1.370 . S
C374 C376 1.363 . S
C374 H390 0.931 . S
C375 C374 1.370 . S
C375 C379 1.408 . S
C376 C374 1.363 . S
C376 C377 1.370 . S
C376 C380 1.524 . S
C377 C369 1.503 . S
C377 C376 1.370 . S
C377 C378 1.403 . S
C378 C377 1.403 . S
C378 C379 1.404 . S
C378 C381 1.539 . S
C379 C375 1.408 . S
C379 C378 1.404 . S
C379 H391 0.930 . S
C380 C376 1.524 . S
C380 H392 0.956 . S
C380 H393 0.961 . S
C380 H394 0.961 . S
C381 C378 1.539 . S
C381 H395 0.958 . S
C381 H396 0.961 . S
C381 H397 0.960 . S
H382 C366 0.931 . S
H383 C371 0.929 . S
H384 C372 0.960 . S
H385 C372 0.962 . S
H386 C372 0.960 . S
H387 C373 0.961 . S
H388 C373 0.961 . S
H389 C373 0.961 . S
H390 C374 0.931 . S
H391 C379 0.930 . S
H392 C380 0.956 . S
H393 C380 0.961 . S
H394 C380 0.961 . S
H395 C381 0.958 . S
H396 C381 0.961 . S
H397 C381 0.960 . S
C398 C399 1.391 . S
C398 C400 1.394 . S
C398 H414 0.931 . S
C399 C398 1.391 . S
C399 C403 1.376 . S
C400 C398 1.394 . S
C400 C401 1.369 . S
C400 C404 1.531 . S
C401 C400 1.369 . S
C401 C402 1.410 . S
C401 C409 1.503 . S
C402 C401 1.410 . S
C402 C403 1.392 . S
C402 C405 1.511 . S
C403 C399 1.376 . S
C403 C402 1.392 . S
C403 H415 0.929 . S
C404 C400 1.531 . S
C404 H416 0.960 . S
C404 H417 0.962 . S
C404 H418 0.960 . S
C405 C402 1.511 . S
C405 H419 0.961 . S
C405 H420 0.961 . S
C405 H421 0.961 . S
C406 C407 1.370 . S
C406 C408 1.363 . S
C406 H422 0.931 . S
C407 C406 1.370 . S
C407 C411 1.408 . S
C408 C406 1.363 . S
C408 C409 1.370 . S
C408 C412 1.524 . S
C409 C401 1.503 . S
C409 C408 1.370 . S
C409 C410 1.403 . S
C410 C409 1.403 . S
C410 C411 1.404 . S
C410 C413 1.539 . S
C411 C407 1.408 . S
C411 C410 1.404 . S
C411 H423 0.930 . S
C412 C408 1.524 . S
C412 H424 0.956 . S
C412 H425 0.961 . S
C412 H426 0.961 . S
C413 C410 1.539 . S
C413 H427 0.958 . S
C413 H428 0.961 . S
C413 H429 0.960 . S
H414 C398 0.931 . S
H415 C403 0.929 . S
H416 C404 0.960 . S
H417 C404 0.962 . S
H418 C404 0.960 . S
H419 C405 0.961 . S
H420 C405 0.961 . S
H421 C405 0.961 . S
H422 C406 0.931 . S
H423 C411 0.930 . S
H424 C412 0.956 . S
H425 C412 0.961 . S
H426 C412 0.961 . S
H427 C413 0.958 . S
H428 C413 0.961 . S
H429 C413 0.960 . S
C430 C431 1.391 . S
C430 C432 1.394 . S
C430 H446 0.931 . S
C431 C430 1.391 . S
C431 C435 1.376 . S
C432 C430 1.394 . S
C432 C433 1.369 . S
C432 C436 1.531 . S
C433 C432 1.369 . S
C433 C434 1.410 . S
C433 C441 1.503 . S
C434 C433 1.410 . S
C434 C435 1.392 . S
C434 C437 1.511 . S
C435 C431 1.376 . S
C435 C434 1.392 . S
C435 H447 0.929 . S
C436 C432 1.531 . S
C436 H448 0.960 . S
C436 H449 0.962 . S
C436 H450 0.960 . S
C437 C434 1.511 . S
C437 H451 0.961 . S
C437 H452 0.961 . S
C437 H453 0.961 . S
C438 C439 1.370 . S
C438 C440 1.363 . S
C438 H454 0.931 1_565 S
C439 C438 1.370 . S
C439 C443 1.408 . S
C440 C438 1.363 . S
C440 C441 1.370 . S
C440 C444 1.524 . S
C441 C433 1.503 . S
C441 C440 1.370 . S
C441 C442 1.403 . S
C442 C441 1.403 . S
C442 C443 1.404 . S
C442 C445 1.539 . S
C443 C439 1.408 . S
C443 C442 1.404 . S
C443 H455 0.930 . S
C444 C440 1.524 . S
C444 H456 0.956 . S
C444 H457 0.961 . S
C444 H458 0.961 1_565 S
C445 C442 1.539 . S
C445 H459 0.958 . S
C445 H460 0.961 . S
C445 H461 0.960 . S
H446 C430 0.931 . S
H447 C435 0.929 . S
H448 C436 0.960 . S
H449 C436 0.962 . S
H450 C436 0.960 . S
H451 C437 0.961 . S
H452 C437 0.961 . S
H453 C437 0.961 . S
H454 C438 0.931 1_545 S
H455 C443 0.930 . S
H456 C444 0.956 . S
H457 C444 0.961 . S
H458 C444 0.961 1_545 S
H459 C445 0.958 . S
H460 C445 0.961 . S
H461 C445 0.960 . S
C462 C463 1.391 . S
C462 C464 1.394 . S
C462 H478 0.931 . S
C463 C462 1.391 . S
C463 C467 1.376 . S
C464 C462 1.394 . S
C464 C465 1.369 . S
C464 C468 1.531 . S
C465 C464 1.369 . S
C465 C466 1.410 . S
C465 C473 1.503 . S
C466 C465 1.410 . S
C466 C467 1.392 . S
C466 C469 1.511 . S
C467 C463 1.376 . S
C467 C466 1.392 . S
C467 H479 0.929 . S
C468 C464 1.531 . S
C468 H480 0.960 . S
C468 H481 0.962 . S
C468 H482 0.960 . S
C469 C466 1.511 . S
C469 H483 0.961 . S
C469 H484 0.961 . S
C469 H485 0.961 . S
C470 C471 1.370 . S
C470 C472 1.363 . S
C470 H486 0.931 . S
C471 C470 1.370 . S
C471 C475 1.408 . S
C472 C470 1.363 . S
C472 C473 1.370 . S
C472 C476 1.524 . S
C473 C465 1.503 . S
C473 C472 1.370 . S
C473 C474 1.403 . S
C474 C473 1.403 . S
C474 C475 1.404 . S
C474 C477 1.539 . S
C475 C471 1.408 . S
C475 C474 1.404 . S
C475 H487 0.930 . S
C476 C472 1.524 . S
C476 H488 0.956 . S
C476 H489 0.961 . S
C476 H490 0.961 . S
C477 C474 1.539 . S
C477 H491 0.958 . S
C477 H492 0.961 . S
C477 H493 0.960 . S
H478 C462 0.931 . S
H479 C467 0.929 . S
H480 C468 0.960 . S
H481 C468 0.962 . S
H482 C468 0.960 . S
H483 C469 0.961 . S
H484 C469 0.961 . S
H485 C469 0.961 . S
H486 C470 0.931 . S
H487 C475 0.930 . S
H488 C476 0.956 . S
H489 C476 0.961 . S
H490 C476 0.961 . S
H491 C477 0.958 . S
H492 C477 0.961 . S
H493 C477 0.960 . S
C494 C495 1.391 . S
C494 C496 1.394 . S
C494 H510 0.931 . S
C495 C494 1.391 . S
C495 C499 1.376 . S
C496 C494 1.394 . S
C496 C497 1.369 . S
C496 C500 1.531 . S
C497 C496 1.369 . S
C497 C498 1.410 . S
C497 C505 1.503 . S
C498 C497 1.410 . S
C498 C499 1.392 . S
C498 C501 1.511 . S
C499 C495 1.376 . S
C499 C498 1.392 . S
C499 H511 0.929 . S
C500 C496 1.531 . S
C500 H512 0.960 . S
C500 H513 0.962 . S
C500 H514 0.960 . S
C501 C498 1.511 . S
C501 H515 0.961 . S
C501 H516 0.961 . S
C501 H517 0.961 . S
C502 C503 1.370 . S
C502 C504 1.363 . S
C502 H518 0.931 . S
C503 C502 1.370 . S
C503 C507 1.408 . S
C504 C502 1.363 . S
C504 C505 1.370 . S
C504 C508 1.524 . S
C505 C497 1.503 . S
C505 C504 1.370 . S
C505 C506 1.403 . S
C506 C505 1.403 . S
C506 C507 1.404 . S
C506 C509 1.539 . S
C507 C503 1.408 . S
C507 C506 1.404 . S
C507 H519 0.930 . S
C508 C504 1.524 . S
C508 H520 0.956 . S
C508 H521 0.961 . S
C508 H522 0.961 . S
C509 C506 1.539 . S
C509 H523 0.958 . S
C509 H524 0.961 . S
C509 H525 0.960 . S
H510 C494 0.931 . S
H511 C499 0.929 . S
H512 C500 0.960 . S
H513 C500 0.962 . S
H514 C500 0.960 . S
H515 C501 0.961 . S
H516 C501 0.961 . S
H517 C501 0.961 . S
H518 C502 0.931 . S
H519 C507 0.930 . S
H520 C508 0.956 . S
H521 C508 0.961 . S
H522 C508 0.961 . S
H523 C509 0.958 . S
H524 C509 0.961 . S
H525 C509 0.960 . S
C526 C527 1.391 . S
C526 C528 1.394 . S
C526 H542 0.931 . S
C527 C526 1.391 . S
C527 C531 1.376 . S
C528 C526 1.394 . S
C528 C529 1.369 . S
C528 C532 1.531 . S
C529 C528 1.369 . S
C529 C530 1.410 . S
C529 C537 1.503 . S
C530 C529 1.410 . S
C530 C531 1.392 . S
C530 C533 1.511 . S
C531 C527 1.376 . S
C531 C530 1.392 . S
C531 H543 0.929 . S
C532 C528 1.531 . S
C532 H544 0.960 . S
C532 H545 0.962 . S
C532 H546 0.960 . S
C533 C530 1.511 . S
C533 H547 0.961 . S
C533 H548 0.961 . S
C533 H549 0.961 . S
C534 C535 1.370 . S
C534 C536 1.363 . S
C534 H550 0.931 . S
C535 C534 1.370 . S
C535 C539 1.408 . S
C536 C534 1.363 . S
C536 C537 1.370 . S
C536 C540 1.524 . S
C537 C529 1.503 . S
C537 C536 1.370 . S
C537 C538 1.403 . S
C538 C537 1.403 . S
C538 C539 1.404 . S
C538 C541 1.539 . S
C539 C535 1.408 . S
C539 C538 1.404 . S
C539 H551 0.930 . S
C540 C536 1.524 . S
C540 H552 0.956 . S
C540 H553 0.961 . S
C540 H554 0.961 . S
C541 C538 1.539 . S
C541 H555 0.958 . S
C541 H556 0.961 . S
C541 H557 0.960 . S
H542 C526 0.931 . S
H543 C531 0.929 . S
H544 C532 0.960 . S
H545 C532 0.962 . S
H546 C532 0.960 . S
H547 C533 0.961 . S
H548 C533 0.961 . S
H549 C533 0.961 . S
H550 C534 0.931 . S
H551 C539 0.930 . S
H552 C540 0.956 . S
H553 C540 0.961 . S
H554 C540 0.961 . S
H555 C541 0.958 . S
H556 C541 0.961 . S
H557 C541 0.960 . S
C558 C559 1.391 . S
C558 C560 1.394 . S
C558 H574 0.931 . S
C559 C558 1.391 . S
C559 C563 1.376 . S
C560 C558 1.394 . S
C560 C561 1.369 . S
C560 C564 1.531 . S
C561 C560 1.369 . S
C561 C562 1.410 . S
C561 C569 1.503 . S
C562 C561 1.410 . S
C562 C563 1.392 . S
C562 C565 1.511 . S
C563 C559 1.376 . S
C563 C562 1.392 . S
C563 H575 0.929 . S
C564 C560 1.531 . S
C564 H576 0.960 . S
C564 H577 0.962 1_455 S
C564 H578 0.960 . S
C565 C562 1.511 . S
C565 H579 0.961 . S
C565 H580 0.961 . S
C565 H581 0.961 . S
C566 C567 1.370 1_655 S
C566 C568 1.394 . S
C566 H582 0.931 . S
C567 C566 1.370 1_455 S
C567 C571 1.408 . S
C568 C566 1.394 . S
C568 C569 1.355 1_656 S
C568 C572 1.509 1_556 S
C569 C561 1.503 . S
C569 C568 1.355 1_454 S
C569 C570 1.403 . S
C570 C569 1.403 . S
C570 C571 1.404 1_554 S
C570 C573 1.539 . S
C571 C567 1.408 . S
C571 C570 1.404 1_556 S
C571 H583 0.930 . S
C572 C568 1.509 1_554 S
C572 H584 0.956 . S
C572 H585 0.961 . S
C572 H586 0.961 1_554 S
C573 C570 1.539 . S
C573 H587 0.958 . S
C573 H588 0.961 . S
C573 H589 0.960 . S
H574 C558 0.931 . S
H575 C563 0.929 . S
H576 C564 0.960 . S
H577 C564 0.962 1_655 S
H578 C564 0.960 . S
H579 C565 0.961 . S
H580 C565 0.961 . S
H581 C565 0.961 . S
H582 C566 0.931 . S
H583 C571 0.930 . S
H584 C572 0.956 . S
H585 C572 0.961 . S
H586 C572 0.961 1_556 S
H587 C573 0.958 . S
H588 C573 0.961 . S
H589 C573 0.960 . S
C590 C591 1.391 1_565 S
C590 C592 1.394 . S
C590 H606 0.931 . S
C591 C590 1.391 1_545 S
C591 C595 1.376 . S
C592 C590 1.394 . S
C592 C593 1.369 1_565 S
C592 C596 1.531 . S
C593 C592 1.369 1_545 S
C593 C594 1.410 . S
C593 C601 1.503 . S
C594 C593 1.410 . S
C594 C595 1.392 . S
C594 C597 1.511 . S
C595 C591 1.376 . S
C595 C594 1.392 . S
C595 H607 0.929 . S
C596 C592 1.531 . S
C596 H608 0.960 . S
C596 H609 0.962 . S
C596 H610 0.960 . S
C597 C594 1.511 . S
C597 H611 0.961 . S
C597 H612 0.961 . S
C597 H613 0.961 . S
C598 C599 1.370 . S
C598 C600 1.363 . S
C598 H614 0.931 . S
C599 C598 1.370 . S
C599 C603 1.408 . S
C600 C598 1.363 . S
C600 C601 1.370 . S
C600 C604 1.524 . S
C601 C593 1.503 . S
C601 C600 1.370 . S
C601 C602 1.403 . S
C602 C601 1.403 . S
C602 C603 1.404 . S
C602 C605 1.539 1_545 S
C603 C599 1.408 . S
C603 C602 1.404 . S
C603 H615 0.930 1_545 S
C604 C600 1.524 . S
C604 H616 0.956 . S
C604 H617 0.961 . S
C604 H618 0.961 . S
C605 C602 1.539 1_565 S
C605 H619 0.958 . S
C605 H620 0.961 . S
C605 H621 0.960 . S
H606 C590 0.931 . S
H607 C595 0.929 . S
H608 C596 0.960 . S
H609 C596 0.962 . S
H610 C596 0.960 . S
H611 C597 0.961 . S
H612 C597 0.961 . S
H613 C597 0.961 . S
H614 C598 0.931 . S
H615 C603 0.930 1_565 S
H616 C604 0.956 . S
H617 C604 0.961 . S
H618 C604 0.961 . S
H619 C605 0.958 . S
H620 C605 0.961 . S
H621 C605 0.960 . S
C622 C623 1.391 . S
C622 C624 1.394 . S
C622 H638 0.931 . S
C623 C622 1.391 . S
C623 C627 1.376 . S
C624 C622 1.394 . S
C624 C625 1.369 . S
C624 C628 1.531 . S
C625 C624 1.369 . S
C625 C626 1.410 . S
C625 C633 1.503 . S
C626 C625 1.410 . S
C626 C627 1.392 . S
C626 C629 1.511 . S
C627 C623 1.376 . S
C627 C626 1.392 . S
C627 H639 0.929 . S
C628 C624 1.531 . S
C628 H640 0.960 . S
C628 H641 0.962 . S
C628 H642 0.960 . S
C629 C626 1.511 . S
C629 H643 0.961 . S
C629 H644 0.961 . S
C629 H645 0.961 . S
C630 C631 1.370 . S
C630 C632 1.363 . S
C630 H646 0.931 . S
C631 C630 1.370 . S
C631 C635 1.408 . S
C632 C630 1.363 . S
C632 C633 1.370 . S
C632 C636 1.524 . S
C633 C625 1.503 . S
C633 C632 1.370 . S
C633 C634 1.403 . S
C634 C633 1.403 . S
C634 C635 1.404 . S
C634 C637 1.539 . S
C635 C631 1.408 . S
C635 C634 1.404 . S
C635 H647 0.930 . S
C636 C632 1.524 . S
C636 H648 0.956 . S
C636 H649 0.961 . S
C636 H650 0.961 . S
C637 C634 1.539 . S
C637 H651 0.958 . S
C637 H652 0.961 . S
C637 H653 0.960 . S
H638 C622 0.931 . S
H639 C627 0.929 . S
H640 C628 0.960 . S
H641 C628 0.962 . S
H642 C628 0.960 . S
H643 C629 0.961 . S
H644 C629 0.961 . S
H645 C629 0.961 . S
H646 C630 0.931 . S
H647 C635 0.930 . S
H648 C636 0.956 . S
H649 C636 0.961 . S
H650 C636 0.961 . S
H651 C637 0.958 . S
H652 C637 0.961 . S
H653 C637 0.960 . S
C654 C655 1.391 . S
C654 C656 1.394 . S
C654 H670 0.931 . S
C655 C654 1.391 . S
C655 C659 1.376 1_545 S
C656 C654 1.394 . S
C656 C657 1.369 . S
C656 C660 1.531 . S
C657 C656 1.369 . S
C657 C658 1.410 1_545 S
C657 C665 1.503 . S
C658 C657 1.410 1_565 S
C658 C659 1.392 . S
C658 C661 1.511 . S
C659 C655 1.376 1_565 S
C659 C658 1.392 . S
C659 H671 0.929 . S
C660 C656 1.531 . S
C660 H672 0.960 . S
C660 H673 0.962 . S
C660 H674 0.960 . S
C661 C658 1.511 . S
C661 H675 0.961 . S
C661 H676 0.961 . S
C661 H677 0.961 . S
C662 C663 1.370 1_565 S
C662 C664 1.363 . S
C662 H678 0.931 . S
C663 C662 1.370 1_545 S
C663 C667 1.408 . S
C664 C662 1.363 . S
C664 C665 1.370 1_565 S
C664 C668 1.524 . S
C665 C657 1.503 . S
C665 C664 1.370 1_545 S
C665 C666 1.403 . S
C666 C665 1.403 . S
C666 C667 1.404 . S
C666 C669 1.539 . S
C667 C663 1.408 . S
C667 C666 1.404 . S
C667 H679 0.930 . S
C668 C664 1.524 . S
C668 H680 0.956 . S
C668 H681 0.961 . S
C668 H682 0.961 . S
C669 C666 1.539 . S
C669 H683 0.958 . S
C669 H684 0.961 . S
C669 H685 0.960 . S
H670 C654 0.931 . S
H671 C659 0.929 . S
H672 C660 0.960 . S
H673 C660 0.962 . S
H674 C660 0.960 . S
H675 C661 0.961 . S
H676 C661 0.961 . S
H677 C661 0.961 . S
H678 C662 0.931 . S
H679 C667 0.930 . S
H680 C668 0.956 . S
H681 C668 0.961 . S
H682 C668 0.961 . S
H683 C669 0.958 . S
H684 C669 0.961 . S
H685 C669 0.960 . S
C686 C687 1.391 . S
C686 C688 1.394 . S
C686 H702 0.931 . S
C687 C686 1.391 . S
C687 C691 1.376 . S
C688 C686 1.394 . S
C688 C689 1.369 . S
C688 C692 1.531 . S
C689 C688 1.369 . S
C689 C690 1.410 . S
C689 C697 1.503 . S
C690 C689 1.410 . S
C690 C691 1.392 . S
C690 C693 1.511 . S
C691 C687 1.376 . S
C691 C690 1.392 . S
C691 H703 0.929 . S
C692 C688 1.531 . S
C692 H704 0.960 . S
C692 H705 0.962 . S
C692 H706 0.960 . S
C693 C690 1.511 . S
C693 H707 0.961 . S
C693 H708 0.961 . S
C693 H709 0.961 . S
C694 C695 1.370 . S
C694 C696 1.363 . S
C694 H710 0.931 . S
C695 C694 1.370 . S
C695 C699 1.408 . S
C696 C694 1.363 . S
C696 C697 1.370 1_554 S
C696 C700 1.524 1_554 S
C697 C689 1.503 . S
C697 C696 1.370 1_556 S
C697 C698 1.403 1_556 S
C698 C697 1.403 1_554 S
C698 C699 1.404 . S
C698 C701 1.539 1_554 S
C699 C695 1.408 . S
C699 C698 1.404 . S
C699 H711 0.930 . S
C700 C696 1.524 1_556 S
C700 H712 0.956 . S
C700 H713 0.961 . S
C700 H714 0.951 1_556 S
C701 C698 1.539 1_556 S
C701 H715 0.958 . S
C701 H716 0.971 . S
C701 H717 0.960 . S
H702 C686 0.931 . S
H703 C691 0.929 . S
H704 C692 0.960 . S
H705 C692 0.962 . S
H706 C692 0.960 . S
H707 C693 0.961 . S
H708 C693 0.961 . S
H709 C693 0.961 . S
H710 C694 0.931 . S
H711 C699 0.930 . S
H712 C700 0.956 . S
H713 C700 0.961 . S
H714 C700 0.951 1_554 S
H715 C701 0.958 . S
H716 C701 0.971 . S
H717 C701 0.960 . S
C718 C719 1.391 . S
C718 C720 1.394 . S
C718 H734 0.931 . S
C719 C718 1.391 . S
C719 C723 1.376 1_455 S
C720 C718 1.394 . S
C720 C721 1.369 . S
C720 C724 1.531 . S
C721 C720 1.369 . S
C721 C722 1.410 1_455 S
C721 C729 1.503 . S
C722 C721 1.410 1_655 S
C722 C723 1.392 . S
C722 C725 1.511 . S
C723 C719 1.376 1_655 S
C723 C722 1.392 . S
C723 H735 0.929 . S
C724 C720 1.531 . S
C724 H736 0.960 . S
C724 H737 0.962 . S
C724 H738 0.960 . S
C725 C722 1.511 . S
C725 H739 0.961 . S
C725 H740 0.961 . S
C725 H741 0.961 . S
C726 C727 1.370 . S
C726 C728 1.363 . S
C726 H742 0.931 . S
C727 C726 1.370 . S
C727 C731 1.408 . S
C728 C726 1.363 . S
C728 C729 1.370 . S
C728 C732 1.524 . S
C729 C721 1.503 . S
C729 C728 1.370 . S
C729 C730 1.403 . S
C730 C729 1.403 . S
C730 C731 1.404 . S
C730 C733 1.539 1_455 S
C731 C727 1.408 . S
C731 C730 1.404 . S
C731 H743 0.938 . S
C732 C728 1.524 . S
C732 H744 0.956 . S
C732 H745 0.961 1_455 S
C732 H746 0.961 1_455 S
C733 C730 1.539 1_655 S
C733 H747 0.958 1_655 S
C733 H748 0.961 . S
C733 H749 0.960 . S
H734 C718 0.931 . S
H735 C723 0.929 . S
H736 C724 0.960 . S
H737 C724 0.962 . S
H738 C724 0.960 . S
H739 C725 0.961 . S
H740 C725 0.961 . S
H741 C725 0.961 . S
H742 C726 0.931 . S
H743 C731 0.938 . S
H744 C732 0.956 . S
H745 C732 0.961 1_655 S
H746 C732 0.961 1_655 S
H747 C733 0.958 1_455 S
H748 C733 0.961 . S
H749 C733 0.960 . S
C175 C24 2.889 . S
C183 C169 2.876 . S
C207 C66 1.250 . S
C215 C151 1.306 . S
C239 C93 1.706 . S
C247 C163 1.711 . S
C271 C13 2.920 . S
C279 C172 2.914 . S
C311 C154 1.347 . S
C303 C57 1.343 . S
C343 C160 1.796 . S
C335 C104 1.831 . S
C367 C64 1.804 . S
C375 C133 1.782 . S
C399 C97 0.689 . S
C407 C142 0.678 . S
C431 C17 1.372 . S
C439 C124 1.438 1_565 S
C471 C136 1.718 . S
C463 C53 1.718 . S
C503 C145 0.383 . S
C495 C106 0.486 . S
C527 C26 1.265 . S
C535 C127 1.303 . S
C567 C143 1.017 . S
C559 C2 1.024 . S
C591 C63 1.406 . S
C599 C125 1.488 . S
C623 C82 1.343 . S
C631 C134 1.372 . S
C663 C161 1.394 . S
C655 C42 1.358 . S
C695 C170 1.804 . S
C687 C103 1.752 . S
C719 C23 1.434 . S
C727 C152 1.495 . S
