# Generated by pormake.
# Topology pyr, (3,6)-cn, num edge types: 1
# Building blocks:
#     Node 0, Type 0, BuildingBlock: BETDIP_clean_linker_0, # of connection points: 3
#     Node 1, Type 0, BuildingBlock: BETDIP_clean_linker_0, # of connection points: 3
#     Node 2, Type 0, BuildingBlock: BETDIP_clean_linker_0, # of connection points: 3
#     Node 3, Type 0, BuildingBlock: BETDIP_clean_linker_0, # of connection points: 3
#     Node 4, Type 0, BuildingBlock: BETDIP_clean_linker_0, # of connection points: 3
#     Node 5, Type 0, BuildingBlock: BETDIP_clean_linker_0, # of connection points: 3
#     Node 6, Type 0, BuildingBlock: BETDIP_clean_linker_0, # of connection points: 3
#     Node 7, Type 0, BuildingBlock: BETDIP_clean_linker_0, # of connection points: 3
#     Node 8, Type 1, BuildingBlock: GEDQOX_clean_sbu_0, # of connection points: 6
#     Node 9, Type 1, BuildingBlock: GEDQOX_clean_sbu_0, # of connection points: 6
#     Node 10, Type 1, BuildingBlock: GEDQOX_clean_sbu_0, # of connection points: 6
#     Node 11, Type 1, BuildingBlock: GEDQOX_clean_sbu_0, # of connection points: 6
#     Edge 12, Type (0, 1), BuildingBlock: OJICUG_clean_linker_0, # of connection points: 2
#     Edge 13, Type (0, 1), BuildingBlock: OJICUG_clean_linker_0, # of connection points: 2
#     Edge 14, Type (0, 1), BuildingBlock: OJICUG_clean_linker_0, # of connection points: 2
#     Edge 15, Type (0, 1), BuildingBlock: OJICUG_clean_linker_0, # of connection points: 2
#     Edge 16, Type (0, 1), BuildingBlock: OJICUG_clean_linker_0, # of connection points: 2
#     Edge 17, Type (0, 1), BuildingBlock: OJICUG_clean_linker_0, # of connection points: 2
#     Edge 18, Type (0, 1), BuildingBlock: OJICUG_clean_linker_0, # of connection points: 2
#     Edge 19, Type (0, 1), BuildingBlock: OJICUG_clean_linker_0, # of connection points: 2
#     Edge 20, Type (0, 1), BuildingBlock: OJICUG_clean_linker_0, # of connection points: 2
#     Edge 21, Type (0, 1), BuildingBlock: OJICUG_clean_linker_0, # of connection points: 2
#     Edge 22, Type (0, 1), BuildingBlock: OJICUG_clean_linker_0, # of connection points: 2
#     Edge 23, Type (0, 1), BuildingBlock: OJICUG_clean_linker_0, # of connection points: 2
#     Edge 24, Type (0, 1), BuildingBlock: OJICUG_clean_linker_0, # of connection points: 2
#     Edge 25, Type (0, 1), BuildingBlock: OJICUG_clean_linker_0, # of connection points: 2
#     Edge 26, Type (0, 1), BuildingBlock: OJICUG_clean_linker_0, # of connection points: 2
#     Edge 27, Type (0, 1), BuildingBlock: OJICUG_clean_linker_0, # of connection points: 2
#     Edge 28, Type (0, 1), BuildingBlock: OJICUG_clean_linker_0, # of connection points: 2
#     Edge 29, Type (0, 1), BuildingBlock: OJICUG_clean_linker_0, # of connection points: 2
#     Edge 30, Type (0, 1), BuildingBlock: OJICUG_clean_linker_0, # of connection points: 2
#     Edge 31, Type (0, 1), BuildingBlock: OJICUG_clean_linker_0, # of connection points: 2
#     Edge 32, Type (0, 1), BuildingBlock: OJICUG_clean_linker_0, # of connection points: 2
#     Edge 33, Type (0, 1), BuildingBlock: OJICUG_clean_linker_0, # of connection points: 2
#     Edge 34, Type (0, 1), BuildingBlock: OJICUG_clean_linker_0, # of connection points: 2
#     Edge 35, Type (0, 1), BuildingBlock: OJICUG_clean_linker_0, # of connection points: 2
# Relax obj value: 0.306
# Max RMSD: 0.195
# Mean RMSD: 0.168
data_MOF--net-pyr--node1-GEDQOX_clean_sbu_0--node2-BETDIP_clean_linker_0--edge1-OJICUG_clean_linker_0
_symmetry_space_group_name_H-M    P1
_symmetry_Int_Tables_number       1
_symmetry_cell_setting            triclinic
loop_
_symmetry_equiv_pos_as_xyz
'x, y, z'
_cell_length_a     28.241319
_cell_length_b     28.069816
_cell_length_c     25.806951
_cell_angle_alpha  93.815032
_cell_angle_beta   84.875907
_cell_angle_gamma 89.512213
loop_
_atom_site_label
_atom_site_type_symbol
_atom_site_fract_x
_atom_site_fract_y
_atom_site_fract_z
_atom_type_partial_charge
H0 H 0.16197 0.20907 0.29112 0.0
H1 H 0.27553 0.20934 0.16819 0.0
H2 H 0.27647 0.1059 0.28533 0.0
H3 H 0.22893 0.26639 0.13507 0.0
C4 C 0.20006 0.27969 0.16301 0.0
C5 C 0.19529 0.19398 0.27293 0.0
C6 C 0.21626 0.15486 0.29489 0.0
C7 C 0.21539 0.21415 0.22738 0.0
C8 C 0.25899 0.19392 0.20247 0.0
C9 C 0.28239 0.15467 0.22302 0.0
C10 C 0.25979 0.13567 0.26909 0.0
N11 N 0.19047 0.25501 0.20996 0.0
H12 H 0.36363 0.84922 0.90471 0.0
H13 H 0.37142 0.72649 0.79661 0.0
H14 H 0.50023 0.78675 0.84815 0.0
H15 H 0.29124 0.72112 0.82036 0.0
C16 C 0.2843 0.75931 0.82127 0.0
C17 C 0.38496 0.82197 0.88141 0.0
C18 C 0.43481 0.82276 0.8801 0.0
C19 C 0.36192 0.78714 0.85223 0.0
C20 C 0.389 0.75201 0.82135 0.0
C21 C 0.43888 0.75076 0.81983 0.0
C22 C 0.46179 0.78655 0.84951 0.0
N23 N 0.31181 0.79109 0.85109 0.0
H24 H 0.87394 0.49586 0.82685 0.0
H25 H 0.75203 0.40994 0.80277 0.0
H26 H 0.83574 0.3851 0.93025 0.0
H27 H 0.76023 0.53848 0.80369 0.0
C28 C 0.76636 0.51476 0.76863 0.0
C29 C 0.85078 0.46713 0.83858 0.0
C30 C 0.85942 0.44194 0.88225 0.0
C31 C 0.81213 0.45524 0.81 0.0
C32 C 0.78213 0.41831 0.82489 0.0
C33 C 0.79032 0.39268 0.86814 0.0
C34 C 0.82918 0.4046 0.89667 0.0
N35 N 0.80315 0.47975 0.76567 0.0
H36 H 0.83534 0.86119 0.2407 0.0
H37 H 0.94169 0.96488 0.27306 0.0
H38 H 0.88054 0.87989 0.39444 0.0
H39 H 0.87541 0.90709 0.1188 0.0
C40 C 0.88617 0.89216 0.15374 0.0
C41 C 0.85832 0.87841 0.26733 0.0
C42 C 0.8566 0.86451 0.31849 0.0
C43 C 0.89057 0.91307 0.25008 0.0
C44 C 0.91756 0.93747 0.28621 0.0
C45 C 0.9142 0.92587 0.33873 0.0
C46 C 0.88405 0.88884 0.35409 0.0
N47 N 0.89617 0.92407 0.19674 0.0
H48 H 0.83225 0.88478 0.98486 0.0
H49 H 0.94947 0.87844 0.86537 0.0
H50 H 0.83824 0.98399 0.86353 0.0
H51 H 0.9773 0.81842 0.90304 0.0
C52 C 0.95529 0.8081 0.93687 0.0
C53 C 0.85012 0.89867 0.95026 0.0
C54 C 0.82895 0.93773 0.92764 0.0
C55 C 0.89339 0.87607 0.92829 0.0
C56 C 0.91623 0.8942 0.88235 0.0
C57 C 0.89718 0.93338 0.85811 0.0
C58 C 0.85348 0.95442 0.88154 0.0
N59 N 0.91212 0.83546 0.95312 0.0
H60 H 0.75209 0.24274 0.24449 0.0
H61 H 0.74551 0.36577 0.35214 0.0
H62 H 0.61681 0.31129 0.29447 0.0
H63 H 0.82615 0.3674 0.33239 0.0
C64 C 0.83186 0.32902 0.33149 0.0
C65 C 0.73118 0.27098 0.26666 0.0
C66 C 0.6815 0.27243 0.26556 0.0
C67 C 0.7545 0.3047 0.29701 0.0
C68 C 0.72794 0.34109 0.32646 0.0
C69 C 0.67833 0.34454 0.32555 0.0
C70 C 0.65512 0.30982 0.29481 0.0
N71 N 0.80397 0.29816 0.30104 0.0
H72 H 0.24721 0.5933 0.30994 0.0
H73 H 0.36574 0.68213 0.34042 0.0
H74 H 0.28875 0.70335 0.20687 0.0
H75 H 0.35612 0.55106 0.34095 0.0
C76 C 0.35032 0.57633 0.37477 0.0
C77 C 0.27042 0.62226 0.29914 0.0
C78 C 0.26364 0.64674 0.25442 0.0
C79 C 0.30714 0.63544 0.3301 0.0
C80 C 0.33713 0.67277 0.31646 0.0
C81 C 0.33085 0.69747 0.27207 0.0
C82 C 0.2939 0.68438 0.24124 0.0
N83 N 0.31426 0.61185 0.37557 0.0
H84 H 0.18671 0.1215 0.87234 0.0
H85 H 0.29656 0.22348 0.89566 0.0
H86 H 0.24337 0.20324 0.74588 0.0
H87 H 0.26007 0.18398 1.02069 0.0
C88 C 0.24789 0.19724 0.98555 0.0
C89 C 0.2108 0.14808 0.85711 0.0
C90 C 0.21184 0.15868 0.80436 0.0
C91 C 0.23996 0.17267 0.89083 0.0
C92 C 0.27206 0.20624 0.87084 0.0
C93 C 0.27136 0.21943 0.81964 0.0
C94 C 0.24184 0.19491 0.78639 0.0
N95 N 0.23631 0.16359 0.94473 0.0
Nd96 Nd 0.08186 0.99597 0.56696 0.0
Nd97 Nd 1.03352 0.08836 0.58459 0.0
C98 C 0.1259 0.91344 0.54182 0.0
C99 C 0.15233 0.88344 0.57485 0.0
C100 C 0.13256 0.84111 0.59282 0.0
C101 C 0.15315 0.81754 0.63161 0.0
C102 C 0.1937 0.83613 0.65307 0.0
C103 C 0.21508 0.87664 0.63265 0.0
C104 C 0.19473 0.89999 0.594 0.0
C105 C 0.11487 0.05083 0.64829 0.0
C106 C 1.00212 1.00465 0.66669 0.0
C107 C 0.98913 0.17079 0.6094 0.0
C108 C 0.96325 0.20123 0.57628 0.0
C109 C 0.98412 0.24274 0.5574 0.0
C110 C 0.96364 0.26669 0.51882 0.0
C111 C 0.92209 0.24936 0.49847 0.0
C112 C 0.89973 0.20972 0.51976 0.0
C113 C 0.91996 0.186 0.55824 0.0
C114 C 1.00143 1.03378 0.50265 0.0
C115 C 0.11398 0.08011 0.48567 0.0
O116 O 0.07989 0.91693 0.55347 0.0
O117 O 0.14484 0.9545 0.5316 0.0
O118 O 0.11023 1.00512 0.64751 0.0
O119 O 0.10538 0.06631 0.60563 0.0
O120 O 1.02369 0.97411 0.6306 0.0
O121 O 1.0061 0.05117 0.6608 0.0
O122 O 1.03526 0.16736 0.59867 0.0
O123 O 0.96999 0.12962 0.61875 0.0
O124 O 1.00618 0.07947 0.50361 0.0
O125 O 1.01023 1.01813 0.54549 0.0
O126 O 0.0923 0.11044 0.52189 0.0
O127 O 0.10981 1.03352 0.49107 0.0
H128 H 0.09999 0.82748 0.57864 0.0
H129 H 0.13608 0.78621 0.64653 0.0
H130 H 0.24702 0.89108 0.64757 0.0
H131 H 0.21133 0.93223 0.58089 0.0
H132 H 1.01735 0.25543 0.57076 0.0
H133 H 0.98149 0.29734 0.50324 0.0
H134 H 0.86703 0.19629 0.50573 0.0
H135 H 0.90247 0.15449 0.57216 0.0
Nd136 Nd 0.55926 1.02196 0.11009 0.0
Nd137 Nd 0.55331 0.07566 1.03568 0.0
C138 C 0.56551 0.95001 0.1708 0.0
C139 C 0.53209 0.91373 0.19001 0.0
C140 C 0.54161 0.86533 0.17528 0.0
C141 C 0.50855 0.83067 0.18912 0.0
C142 C 0.46555 0.84377 0.21842 0.0
C143 C 0.45653 0.89206 0.23433 0.0
C144 C 0.48939 0.92681 0.22004 0.0
C145 C 0.47375 0.07619 0.13352 0.0
C146 C 0.51045 0.97679 1.0097 0.0
C147 C 0.54857 0.1477 0.97479 0.0
C148 C 0.58331 0.1829 0.95549 0.0
C149 C 0.57699 0.23128 0.97248 0.0
C150 C 0.61141 0.26457 0.95824 0.0
C151 C 0.65262 0.25019 0.92627 0.0
C152 C 0.65843 0.20198 0.90823 0.0
C153 C 0.62423 0.16858 0.92286 0.0
C154 C 0.63863 1.02112 1.01284 0.0
C155 C 0.60261 0.12057 0.13576 0.0
O156 O 0.57778 0.94651 0.12083 0.0
O157 O 0.55757 0.99412 0.18875 0.0
O158 O 0.50611 0.06947 0.16471 0.0
O159 O 0.48759 0.05586 0.08878 0.0
O160 O 0.53906 0.96717 1.045 0.0
O161 O 0.50093 1.02174 1.00391 0.0
O162 O 0.53621 0.15146 1.02475 0.0
O163 O 0.55512 0.10339 0.95693 0.0
O164 O 0.60645 1.02765 0.98141 0.0
O165 O 0.62477 0.04201 1.05723 0.0
O166 O 0.57365 0.13039 0.10089 0.0
O167 O 0.61203 0.07557 0.14128 0.0
H168 H 0.57429 0.85443 0.15214 0.0
H169 H 0.5166 0.79359 0.17692 0.0
H170 H 0.4235 0.90311 0.25666 0.0
H171 H 0.48084 0.9639 0.23166 0.0
H172 H 0.54575 0.24321 0.99758 0.0
H173 H 0.60572 0.30164 0.9721 0.0
H174 H 0.69 0.18988 0.8838 0.0
H175 H 0.63035 0.1315 0.90935 0.0
Nd176 Nd 0.52974 0.50963 0.59057 0.0
Nd177 Nd 0.58766 0.58768 0.55231 0.0
C178 C 0.46243 0.4507 0.62208 0.0
C179 C 0.43952 0.4269 0.66676 0.0
C180 C 0.39452 0.44244 0.6894 0.0
C181 C 0.36831 0.41435 0.72396 0.0
C182 C 0.38641 0.36993 0.73588 0.0
C183 C 0.43277 0.35611 0.71593 0.0
C184 C 0.45904 0.38429 0.68178 0.0
C185 C 0.61814 0.51232 0.62859 0.0
C186 C 0.52397 0.61306 0.6594 0.0
C187 C 0.65477 0.64645 0.51984 0.0
C188 C 0.67898 0.66775 0.47412 0.0
C189 C 0.7227 0.64892 0.45108 0.0
C190 C 0.75026 0.67449 0.41512 0.0
C191 C 0.73481 0.71957 0.40208 0.0
C192 C 0.68962 0.73672 0.4225 0.0
C193 C 0.66205 0.71113 0.45817 0.0
C194 C 0.49909 0.58416 0.51432 0.0
C195 C 0.59352 0.48443 0.48347 0.0
O196 O 0.45463 0.49644 0.61903 0.0
O197 O 0.50573 0.43707 0.60512 0.0
O198 O 0.59729 0.47322 0.61477 0.0
O199 O 0.5916 0.54771 0.62435 0.0
O200 O 0.50042 0.57413 0.64627 0.0
O201 O 0.56467 0.62229 0.6334 0.0
O202 O 0.66317 0.60145 0.52667 0.0
O203 O 0.61078 0.65979 0.53382 0.0
O204 O 0.51942 0.62352 0.52835 0.0
O205 O 0.52617 0.54926 0.51847 0.0
O206 O 0.61722 0.52319 0.49675 0.0
O207 O 0.55257 0.47557 0.50918 0.0
H208 H 0.37853 0.47506 0.67838 0.0
H209 H 0.33301 0.42639 0.73946 0.0
H210 H 0.44769 0.32192 0.7237 0.0
H211 H 0.49353 0.37108 0.66482 0.0
H212 H 0.73675 0.61564 0.46274 0.0
H213 H 0.78464 0.66002 0.39942 0.0
H214 H 0.67683 0.77155 0.41389 0.0
H215 H 0.62869 0.72685 0.4755 0.0
Nd216 Nd 1.02826 0.54809 0.10693 0.0
Nd217 Nd 0.10185 0.53926 1.02018 0.0
C218 C 0.95174 0.55197 0.17279 0.0
C219 C 0.9176 0.5927 0.17924 0.0
C220 C 0.89684 0.60829 0.13559 0.0
C221 C 0.88201 0.6558 0.13456 0.0
C222 C 0.88827 0.68861 0.17683 0.0
C223 C 0.9023 0.67128 0.22314 0.0
C224 C 0.91669 0.62364 0.22439 0.0
C225 C 0.11084 0.59279 0.12908 0.0
C226 C 1.03083 0.63591 1.02802 0.0
C227 C 0.17813 0.53458 0.9539 0.0
C228 C 0.21232 0.49383 0.94778 0.0
C229 C 0.23461 0.47977 0.99115 0.0
C230 C 0.25049 0.43268 0.99303 0.0
C231 C 0.24392 0.3988 0.95186 0.0
C232 C 0.22784 0.41449 0.90575 0.0
C233 C 0.21237 0.4617 0.90365 0.0
C234 C 1.0185 0.49519 0.99865 0.0
C235 C 0.10083 0.45194 0.09889 0.0
O236 O 0.95391 0.5262 0.12833 0.0
O237 O 0.99391 0.56242 0.18705 0.0
O238 O 0.06895 0.61217 0.13975 0.0
O239 O 0.10804 0.552 0.10613 0.0
O240 O 1.00492 0.61422 0.06452 0.0
O241 O 0.07233 0.61642 1.00838 0.0
O242 O 0.17616 0.56083 0.99803 0.0
O243 O 0.13585 0.52411 0.93996 0.0
O244 O 0.06015 0.47538 0.98757 0.0
O245 O 1.02208 0.53595 1.02113 0.0
O246 O 0.12553 0.47396 0.06195 0.0
O247 O 0.05946 0.47101 0.1199 0.0
H248 H 0.8965 0.58535 0.10017 0.0
H249 H 0.8704 0.66768 0.09862 0.0
H250 H 0.90568 0.69537 0.25715 0.0
H251 H 0.93194 0.61247 0.25878 0.0
H252 H 0.23552 0.50358 1.02583 0.0
H253 H 0.26308 0.42183 1.02895 0.0
H254 H 0.22377 0.38937 0.87276 0.0
H255 H 0.19585 0.47162 0.86953 0.0
C256 C 0.19166 0.08578 0.35342 0.0
C257 C 0.19211 0.13511 0.34487 0.0
H258 H 0.16722 1.02988 0.40259 0.0
C259 C 0.1674 0.16568 0.38438 0.0
H260 H 0.20956 0.06048 0.32454 0.0
C261 C 0.14298 0.14802 0.42941 0.0
C262 C 0.14173 0.09875 0.4375 0.0
H263 H 0.16702 0.20389 0.38084 0.0
H264 H 0.12462 0.17337 0.45792 0.0
C265 C 0.16687 0.06801 0.39851 0.0
C266 C 0.49188 0.85311 0.94442 0.0
C267 C 0.45733 0.86241 0.91034 0.0
H268 H 0.53503 0.88161 1.0031 0.0
C269 C 0.44134 0.90991 0.9083 0.0
H270 H 0.50463 0.81696 0.94726 0.0
C271 C 0.45864 0.94698 0.9402 0.0
C272 C 0.49217 0.93756 0.97538 0.0
H273 H 0.41498 0.9184 0.88218 0.0
H274 H 0.44527 0.98296 0.93769 0.0
C275 C 0.50888 0.89019 0.97677 0.0
C276 C 0.7257 0.47493 0.69482 0.0
C277 C 0.73193 0.51529 0.72868 0.0
H278 H 0.68414 0.4422 0.63679 0.0
C279 C 0.70229 0.55543 0.72716 0.0
H280 H 0.7478 0.44329 0.69547 0.0
C281 C 0.66651 0.55507 0.69305 0.0
C282 C 0.65893 0.51407 0.66071 0.0
H283 H 0.70634 0.58688 0.753 0.0
H284 H 0.64371 0.58635 0.69336 0.0
C285 C 0.68918 0.47418 0.66144 0.0
C286 C 0.85463 0.81066 0.13381 0.0
C287 C 0.88912 0.83955 0.15545 0.0
H288 H 0.82592 0.74035 0.12523 0.0
C289 C 0.92414 0.81845 0.18205 0.0
H290 H 0.82743 0.82629 0.11289 0.0
C291 C 0.92315 0.76972 0.18947 0.0
C292 C 0.88737 0.74081 0.17005 0.0
H293 H 0.95181 0.83984 0.198 0.0
H294 H 0.95089 0.7546 0.21 0.0
C295 C 0.85359 0.76167 0.14124 0.0
C296 C 0.36625 0.11977 0.22982 0.0
C297 C 0.33108 0.13437 0.19826 0.0
H298 H 0.43645 0.09137 0.23512 0.0
C299 C 0.34363 0.12905 0.14352 0.0
H300 H 0.3595 0.12346 0.27186 0.0
C301 C 0.38873 0.10954 0.12185 0.0
C302 C 0.42375 0.09536 0.15394 0.0
H303 H 0.31826 0.1394 0.11713 0.0
H304 H 0.39633 0.1062 0.07989 0.0
C305 C 0.41119 0.10126 0.20837 0.0
C306 C 0.24705 0.82734 0.7813 0.0
C307 C 0.25608 0.77813 0.78149 0.0
H308 H 0.21959 0.88396 0.74082 0.0
C309 C 0.24124 0.74738 0.74107 0.0
H310 H 0.25754 0.8519 0.81224 0.0
C311 C 0.21964 0.76586 0.69978 0.0
C312 C 0.21272 0.81537 0.69841 0.0
H313 H 0.2479 0.70927 0.74045 0.0
H314 H 0.21001 0.74168 0.66808 0.0
C315 C 0.22556 0.84574 0.74022 0.0
C316 C 0.93448 0.42091 0.92113 0.0
C317 C 0.89953 0.45498 0.91336 0.0
H318 H 1.00011 0.40708 0.954 0.0
C319 C 0.90285 0.50164 0.93575 0.0
H320 H 0.93251 0.38463 0.90422 0.0
C321 C 0.94066 0.51413 0.96518 0.0
C322 C 0.97644 0.48046 0.97168 0.0
H323 H 0.87607 0.52834 0.93066 0.0
H324 H 0.94247 0.5505 0.98167 0.0
C325 C 0.97294 0.43369 0.94957 0.0
C326 C 0.78014 0.81937 0.32016 0.0
C327 C 0.82665 0.82419 0.33492 0.0
H328 H 0.71486 0.78132 0.32853 0.0
C329 C 0.84432 0.79071 0.36669 0.0
H330 H 0.76558 0.84454 0.29556 0.0
C331 C 0.8152 0.75495 0.386 0.0
C332 C 0.76781 0.75166 0.37368 0.0
H333 H 0.88041 0.79286 0.37768 0.0
H334 H 0.82921 0.7315 0.41278 0.0
C335 C 0.75103 0.78335 0.33927 0.0
C336 C 0.13358 0.34574 0.18085 0.0
C337 C 0.1714 0.32272 0.14856 0.0
H338 H 0.08137 0.40366 0.19138 0.0
C339 C 0.18315 0.34169 0.09997 0.0
H340 H 0.12298 0.33258 0.21857 0.0
C341 C 0.1593 0.38197 0.08433 0.0
C342 C 0.1223 0.406 0.11648 0.0
H343 H 0.21146 0.3253 0.07365 0.0
H344 H 0.17016 0.39444 1.04641 0.0
C345 C 0.10942 0.38664 0.16504 0.0
C346 C 0.73858 0.35274 0.93585 0.0
C347 C 0.75737 0.35436 0.88375 0.0
H348 H 0.69049 0.31848 0.9901 0.0
C349 C 0.74262 0.32057 0.84606 0.0
H350 H 0.74909 0.37859 0.96558 0.0
C351 C 0.70915 0.2863 0.86002 0.0
C352 C 0.68944 0.28541 0.91186 0.0
H353 H 0.7568 0.32084 0.80567 0.0
H354 H 0.69787 0.26119 0.83001 0.0
C355 C 0.70474 0.31873 0.94973 0.0
C356 C 0.95924 0.92963 0.41891 0.0
C357 C 0.9405 0.95297 0.37836 0.0
H358 H 0.99285 0.93692 0.49034 0.0
C359 C 0.94413 1.00284 0.37814 0.0
H360 H 0.95795 0.89114 0.41977 0.0
C361 C 0.96463 1.02883 0.41823 0.0
C362 C 0.98161 1.0056 0.45962 0.0
H363 H 0.92967 1.02206 0.34797 0.0
H364 H 0.96618 0.06733 0.41738 0.0
C365 C 0.97935 0.95572 0.45928 0.0
C366 C 0.44747 0.66689 0.77803 0.0
C367 C 0.46552 0.71348 0.78403 0.0
H368 H 0.45101 0.59916 0.73409 0.0
C369 C 0.50548 0.72524 0.75114 0.0
H370 H 0.4173 0.65612 0.80327 0.0
C371 C 0.52519 0.69216 0.71167 0.0
C372 C 0.50527 0.64661 0.70387 0.0
H373 H 0.52015 0.76073 0.75419 0.0
H374 H 0.55507 0.703 0.68606 0.0
C375 C 0.46678 0.6341 0.73829 0.0
C376 C 0.92365 1.00095 0.79847 0.0
C377 C 0.92317 0.95189 0.80834 0.0
H378 H 0.94821 0.05583 0.74812 0.0
C379 C 0.94872 0.92068 0.77008 0.0
H380 H 0.90527 1.02679 0.82637 0.0
C381 C 0.97355 0.93754 0.72474 0.0
C382 C 0.97444 0.98656 0.71523 0.0
H383 H 0.94924 0.88265 0.7747 0.0
H384 H 0.9924 0.9118 0.69706 0.0
C385 C 0.94881 1.01786 0.75321 0.0
C386 C 0.62476 0.24391 0.19993 0.0
C387 C 0.65837 0.23358 0.23475 0.0
H388 H 0.58146 0.2166 0.14076 0.0
C389 C 0.67252 0.18561 0.23751 0.0
H390 H 0.61338 0.28044 0.19655 0.0
C391 C 0.65442 0.14908 0.20561 0.0
C392 C 0.62176 0.15945 0.16981 0.0
H393 H 0.69798 0.17628 0.26431 0.0
H394 H 0.66639 0.11271 0.20876 0.0
C395 C 0.60686 0.20731 0.16764 0.0
C396 C 0.41457 0.53769 0.41775 0.0
C397 C 0.38497 0.57754 0.41459 0.0
H398 H 0.4732 0.50823 0.45263 0.0
C399 C 0.39139 0.61907 0.44667 0.0
H400 H 0.41038 0.50535 0.39332 0.0
C401 C 0.42805 0.62113 0.47993 0.0
C402 C 0.45825 0.58147 0.48226 0.0
H403 H 0.3693 0.65051 0.44475 0.0
H404 H 0.4332 0.65391 0.50322 0.0
C405 C 0.4505 0.53941 0.45167 0.0
C406 C 0.2082 0.2694 0.95601 0.0
C407 C 0.24513 0.24952 0.98081 0.0
H408 H 0.17941 0.33182 0.9269 0.0
C409 C 0.28167 0.27898 0.99703 0.0
H410 H 0.17925 0.24749 0.94387 0.0
C411 C 0.28225 0.32737 0.98663 0.0
C412 C 0.24601 0.34699 0.96024 0.0
H413 H 0.31052 0.26424 1.01622 0.0
H414 H 0.31111 0.34931 0.9989 0.0
C415 C 0.20874 0.31751 0.94563 0.0
C416 C 0.76754 0.96642 1.00548 0.0
C417 C 0.78072 0.96008 0.95093 0.0
H418 H 0.71451 0.99088 0.06802 0.0
C419 C 0.74649 0.97504 0.91842 0.0
H420 H 0.79222 0.95593 1.03255 0.0
C421 C 0.70165 0.99457 0.93893 0.0
C422 C 0.68845 1.00121 0.9932 0.0
H423 H 0.75382 0.97068 0.87647 0.0
H424 H 0.67697 1.00459 0.91161 0.0
C425 C 0.72266 0.98693 1.02614 0.0
C426 C 0.86688 0.25969 0.37149 0.0
C427 C 0.85973 0.30919 0.371 0.0
H428 H 0.89281 0.20225 0.4119 0.0
C429 C 0.87625 0.33944 0.41085 0.0
H430 H 0.85503 0.23546 0.34101 0.0
C431 C 0.89777 0.32031 0.45182 0.0
C432 C 0.90292 0.27061 0.45349 0.0
H433 H 0.87106 0.37775 0.41125 0.0
H434 H 0.90879 0.34421 0.48306 0.0
C435 C 0.88826 0.24064 0.41228 0.0
C436 C 0.22276 0.5864 0.19886 0.0
C437 C 0.22517 0.63319 0.2212 0.0
H438 H 0.18539 0.53729 0.15067 0.0
C439 C 0.19108 0.66724 0.21094 0.0
H440 H 0.24897 0.5597 0.20584 0.0
C441 C 0.15434 0.65435 0.18008 0.0
C442 C 0.15171 0.60747 0.158 0.0
H443 H 0.19236 0.70358 0.2277 0.0
H444 H 0.12777 0.68094 0.1738 0.0
C445 C 0.18667 0.57378 0.16702 0.0
C446 C 0.28075 0.29284 0.77016 0.0
C447 C 0.30017 0.25993 0.80138 0.0
H448 H 0.29267 0.35313 0.72491 0.0
C449 C 0.34681 0.26637 0.81523 0.0
H450 H 0.24449 0.28956 0.75991 0.0
C451 C 0.37406 0.30383 0.79646 0.0
C452 C 0.3554 0.33532 0.76305 0.0
H453 H 0.36282 0.24169 0.8393 0.0
H454 H 0.41018 0.30738 0.80703 0.0
C455 C 0.3081 0.32995 0.751 0.0
C456 C 0.95039 0.74575 1.00759 0.0
C457 C 0.9734 0.76479 0.96286 0.0
H458 H 0.95039 0.69162 0.06331 0.0
C459 C 1.01602 0.74156 0.94123 0.0
H460 H 0.91782 0.76226 1.02602 0.0
C461 C 1.03467 0.70095 0.96256 0.0
C462 C 1.01163 0.68128 1.00677 0.0
H463 H 1.03521 0.75475 0.90699 0.0
H464 H 0.06716 0.68458 0.94374 0.0
C465 C 0.9692 0.70484 1.02904 0.0
C466 C 0.37554 0.77118 0.29575 0.0
C467 C 0.36363 0.73625 0.25772 0.0
H468 H 0.41721 0.83265 0.31303 0.0
C469 C 0.38465 0.73749 0.20643 0.0
H470 H 0.35958 0.77117 0.33551 0.0
C471 C 0.41772 0.77249 0.19366 0.0
C472 C 0.42998 0.80714 0.23182 0.0
H473 H 0.37633 0.71075 0.1765 0.0
H474 H 0.43362 0.77257 0.15387 0.0
C475 C 0.40823 0.80646 0.28285 0.0
C476 C 0.17844 0.08192 0.76858 0.0
C477 C 0.18285 0.13166 0.76727 0.0
H478 H 0.15345 1.01747 0.73187 0.0
C479 C 0.16222 0.15489 0.72785 0.0
H480 H 0.19423 0.06281 0.79798 0.0
C481 C 0.13963 0.12877 0.68939 0.0
C482 C 0.13672 0.07898 0.68991 0.0
H483 H 0.16403 0.1933 0.7263 0.0
H484 H 0.12483 0.14748 0.65902 0.0
C485 C 0.15545 0.05589 0.7304 0.0
C486 C 0.67158 0.42856 0.36711 0.0
C487 C 0.652 0.38271 0.36031 0.0
H488 H 0.66912 0.49618 0.41123 0.0
C489 C 0.61062 0.3723 0.39167 0.0
H490 H 0.70297 0.43823 0.34306 0.0
C491 C 0.59093 0.40588 0.43057 0.0
C492 C 0.61224 0.45063 0.43927 0.0
H493 H 0.59477 0.33738 0.38797 0.0
H494 H 0.55991 0.396 0.45506 0.0
C495 C 0.6522 0.4619 0.40626 0.0
loop_
_geom_bond_atom_site_label_1
_geom_bond_atom_site_label_2
_geom_bond_distance
_geom_bond_site_symmetry_2
_ccdc_geom_bond_type
H0 C5 0.930 . S
H1 C8 0.930 . S
H2 C10 0.930 . S
H3 C4 1.016 . S
C4 H3 1.016 . S
C4 N11 1.286 . S
C5 H0 0.930 . S
C5 C6 1.397 . S
C5 C7 1.361 . S
C6 C5 1.397 . S
C6 C10 1.390 . S
C7 C5 1.361 . S
C7 C8 1.393 . S
C7 N11 1.413 . S
C8 H1 0.930 . S
C8 C7 1.393 . S
C8 C9 1.399 . S
C9 C8 1.399 . S
C9 C10 1.381 . S
C10 H2 0.930 . S
C10 C6 1.390 . S
C10 C9 1.381 . S
N11 C4 1.286 . S
N11 C7 1.413 . S
H12 C17 0.930 . S
H13 C20 0.930 . S
H14 C22 0.930 . S
H15 C16 1.016 . S
C16 H15 1.016 . S
C16 N23 1.286 . S
C17 H12 0.930 . S
C17 C18 1.397 . S
C17 C19 1.361 . S
C18 C17 1.397 . S
C18 C22 1.390 . S
C19 C17 1.361 . S
C19 C20 1.393 . S
C19 N23 1.413 . S
C20 H13 0.930 . S
C20 C19 1.393 . S
C20 C21 1.399 . S
C21 C20 1.399 . S
C21 C22 1.381 . S
C22 H14 0.930 . S
C22 C18 1.390 . S
C22 C21 1.381 . S
N23 C16 1.286 . S
N23 C19 1.413 . S
H24 C29 0.930 . S
H25 C32 0.930 . S
H26 C34 0.930 . S
H27 C28 1.016 . S
C28 H27 1.016 . S
C28 N35 1.286 . S
C29 H24 0.930 . S
C29 C30 1.397 . S
C29 C31 1.361 . S
C30 C29 1.397 . S
C30 C34 1.390 . S
C31 C29 1.361 . S
C31 C32 1.393 . S
C31 N35 1.413 . S
C32 H25 0.930 . S
C32 C31 1.393 . S
C32 C33 1.399 . S
C33 C32 1.399 . S
C33 C34 1.381 . S
C34 H26 0.930 . S
C34 C30 1.390 . S
C34 C33 1.381 . S
N35 C28 1.286 . S
N35 C31 1.413 . S
H36 C41 0.930 . S
H37 C44 0.930 . S
H38 C46 0.930 . S
H39 C40 1.016 . S
C40 H39 1.016 . S
C40 N47 1.286 . S
C41 H36 0.930 . S
C41 C42 1.397 . S
C41 C43 1.361 . S
C42 C41 1.397 . S
C42 C46 1.390 . S
C43 C41 1.361 . S
C43 C44 1.393 . S
C43 N47 1.413 . S
C44 H37 0.930 . S
C44 C43 1.393 . S
C44 C45 1.399 . S
C45 C44 1.399 . S
C45 C46 1.381 . S
C46 H38 0.930 . S
C46 C42 1.390 . S
C46 C45 1.381 . S
N47 C40 1.286 . S
N47 C43 1.413 . S
H48 C53 0.930 . S
H49 C56 0.930 . S
H50 C58 0.930 . S
H51 C52 1.016 . S
C52 H51 1.016 . S
C52 N59 1.286 . S
C53 H48 0.930 . S
C53 C54 1.397 . S
C53 C55 1.361 . S
C54 C53 1.397 . S
C54 C58 1.390 . S
C55 C53 1.361 . S
C55 C56 1.393 . S
C55 N59 1.413 . S
C56 H49 0.930 . S
C56 C55 1.393 . S
C56 C57 1.399 . S
C57 C56 1.399 . S
C57 C58 1.381 . S
C58 H50 0.930 . S
C58 C54 1.390 . S
C58 C57 1.381 . S
N59 C52 1.286 . S
N59 C55 1.413 . S
H60 C65 0.930 . S
H61 C68 0.930 . S
H62 C70 0.930 . S
H63 C64 1.016 . S
C64 H63 1.016 . S
C64 N71 1.286 . S
C65 H60 0.930 . S
C65 C66 1.397 . S
C65 C67 1.361 . S
C66 C65 1.397 . S
C66 C70 1.390 . S
C67 C65 1.361 . S
C67 C68 1.393 . S
C67 N71 1.413 . S
C68 H61 0.930 . S
C68 C67 1.393 . S
C68 C69 1.399 . S
C69 C68 1.399 . S
C69 C70 1.381 . S
C70 H62 0.930 . S
C70 C66 1.390 . S
C70 C69 1.381 . S
N71 C64 1.286 . S
N71 C67 1.413 . S
H72 C77 0.930 . S
H73 C80 0.930 . S
H74 C82 0.930 . S
H75 C76 1.016 . S
C76 H75 1.016 . S
C76 N83 1.286 . S
C77 H72 0.930 . S
C77 C78 1.397 . S
C77 C79 1.361 . S
C78 C77 1.397 . S
C78 C82 1.390 . S
C79 C77 1.361 . S
C79 C80 1.393 . S
C79 N83 1.413 . S
C80 H73 0.930 . S
C80 C79 1.393 . S
C80 C81 1.399 . S
C81 C80 1.399 . S
C81 C82 1.381 . S
C82 H74 0.930 . S
C82 C78 1.390 . S
C82 C81 1.381 . S
N83 C76 1.286 . S
N83 C79 1.413 . S
H84 C89 0.930 . S
H85 C92 0.930 . S
H86 C94 0.930 . S
H87 C88 1.016 . S
C88 H87 1.016 . S
C88 N95 1.286 . S
C89 H84 0.930 . S
C89 C90 1.397 . S
C89 C91 1.361 . S
C90 C89 1.397 . S
C90 C94 1.390 . S
C91 C89 1.361 . S
C91 C92 1.393 . S
C91 N95 1.413 . S
C92 H85 0.930 . S
C92 C91 1.393 . S
C92 C93 1.399 . S
C93 C92 1.399 . S
C93 C94 1.381 . S
C94 H86 0.930 . S
C94 C90 1.390 . S
C94 C93 1.381 . S
N95 C88 1.286 . S
N95 C91 1.413 . S
Nd96 C98 2.836 . S
Nd96 O116 2.500 . S
Nd96 O117 2.492 . S
Nd96 O118 2.487 1_565 S
Nd96 O119 2.682 1_565 S
Nd96 O120 2.410 . S
Nd96 O125 2.414 1_455 S
Nd96 O127 2.424 1_565 S
Nd97 C107 2.836 . S
Nd97 O119 2.414 1_655 S
Nd97 O121 2.424 1_545 S
Nd97 O122 2.500 . S
Nd97 O123 2.492 . S
Nd97 O124 2.487 1_545 S
Nd97 O125 2.682 1_545 S
Nd97 O126 2.410 . S
C98 Nd96 2.836 . S
C98 C99 1.498 . S
C98 O116 1.258 . S
C98 O117 1.239 . S
C99 C98 1.498 . S
C99 C100 1.366 . S
C99 C104 1.407 . S
C100 C99 1.366 . S
C100 C101 1.392 . S
C100 H128 0.930 . S
C101 C100 1.392 . S
C101 C102 1.398 . S
C101 H129 0.929 . S
C102 C101 1.398 . S
C102 C103 1.352 . S
C103 C102 1.352 . S
C103 C104 1.384 . S
C103 H130 0.930 . S
C104 C99 1.407 . S
C104 C103 1.384 . S
C104 H131 0.929 . S
C105 O118 1.241 . S
C105 O119 1.273 . S
C106 O120 1.251 1_655 S
C106 O121 1.268 . S
C107 Nd97 2.836 . S
C107 C108 1.498 . S
C107 O122 1.258 . S
C107 O123 1.239 . S
C108 C107 1.498 . S
C108 C109 1.366 . S
C108 C113 1.407 . S
C109 C108 1.366 . S
C109 C110 1.392 . S
C109 H132 0.930 . S
C110 C109 1.392 . S
C110 C111 1.398 . S
C110 H133 0.929 . S
C111 C110 1.398 . S
C111 C112 1.352 . S
C112 C111 1.352 . S
C112 C113 1.384 . S
C112 H134 0.930 . S
C113 C108 1.407 . S
C113 C112 1.384 . S
C113 H135 0.929 . S
C114 O124 1.241 . S
C114 O125 1.273 . S
C115 O126 1.251 1_455 S
C115 O127 1.268 . S
O116 Nd96 2.500 . S
O116 C98 1.258 . S
O117 Nd96 2.492 . S
O117 C98 1.239 . S
O118 Nd96 2.487 1_545 S
O118 C105 1.241 . S
O119 Nd96 2.682 1_545 S
O119 Nd97 2.414 1_455 S
O119 C105 1.273 . S
O120 Nd96 2.410 . S
O120 C106 1.251 1_455 S
O121 Nd97 2.424 1_565 S
O121 C106 1.268 . S
O122 Nd97 2.500 . S
O122 C107 1.258 . S
O123 Nd97 2.492 . S
O123 C107 1.239 . S
O124 Nd97 2.487 1_565 S
O124 C114 1.241 . S
O125 Nd96 2.414 1_655 S
O125 Nd97 2.682 1_565 S
O125 C114 1.273 . S
O126 Nd97 2.410 . S
O126 C115 1.251 1_655 S
O127 Nd96 2.424 1_545 S
O127 C115 1.268 . S
H128 C100 0.930 . S
H129 C101 0.929 . S
H130 C103 0.930 . S
H131 C104 0.929 . S
H132 C109 0.930 . S
H133 C110 0.929 . S
H134 C112 0.930 . S
H135 C113 0.929 . S
Nd136 C138 2.836 . S
Nd136 O156 2.500 . S
Nd136 O157 2.492 . S
Nd136 O158 2.487 1_565 S
Nd136 O159 2.682 1_565 S
Nd136 O160 2.410 1_554 S
Nd136 O165 2.414 . S
Nd136 O167 2.424 1_565 S
Nd137 C147 2.836 . S
Nd137 O159 2.414 1_556 S
Nd137 O161 2.424 1_545 S
Nd137 O162 2.500 . S
Nd137 O163 2.492 . S
Nd137 O164 2.487 . S
Nd137 O165 2.682 1_546 S
Nd137 O166 2.410 1_556 S
C138 Nd136 2.836 . S
C138 C139 1.498 . S
C138 O156 1.258 . S
C138 O157 1.239 . S
C139 C138 1.498 . S
C139 C140 1.366 . S
C139 C144 1.407 . S
C140 C139 1.366 . S
C140 C141 1.392 . S
C140 H168 0.930 . S
C141 C140 1.392 . S
C141 C142 1.398 . S
C141 H169 0.929 . S
C142 C141 1.398 . S
C142 C143 1.352 . S
C143 C142 1.352 . S
C143 C144 1.384 . S
C143 H170 0.930 . S
C144 C139 1.407 . S
C144 C143 1.384 . S
C144 H171 0.929 . S
C145 O158 1.241 . S
C145 O159 1.273 . S
C146 O160 1.251 . S
C146 O161 1.268 . S
C147 Nd137 2.836 . S
C147 C148 1.498 . S
C147 O162 1.258 . S
C147 O163 1.239 . S
C148 C147 1.498 . S
C148 C149 1.366 . S
C148 C153 1.407 . S
C149 C148 1.366 . S
C149 C150 1.392 . S
C149 H172 0.930 . S
C150 C149 1.392 . S
C150 C151 1.398 . S
C150 H173 0.929 . S
C151 C150 1.398 . S
C151 C152 1.352 . S
C152 C151 1.352 . S
C152 C153 1.384 . S
C152 H174 0.930 . S
C153 C148 1.407 . S
C153 C152 1.384 . S
C153 H175 0.929 . S
C154 O164 1.241 1_565 S
C154 O165 1.273 1_556 S
C155 O166 1.251 . S
C155 O167 1.268 . S
O156 Nd136 2.500 . S
O156 C138 1.258 . S
O157 Nd136 2.492 . S
O157 C138 1.239 . S
O158 Nd136 2.487 1_545 S
O158 C145 1.241 . S
O159 Nd136 2.682 1_545 S
O159 Nd137 2.414 1_554 S
O159 C145 1.273 . S
O160 Nd136 2.410 1_556 S
O160 C146 1.251 . S
O161 Nd137 2.424 1_565 S
O161 C146 1.268 . S
O162 Nd137 2.500 . S
O162 C147 1.258 . S
O163 Nd137 2.492 . S
O163 C147 1.239 . S
O164 Nd137 2.487 . S
O164 C154 1.241 1_545 S
O165 Nd136 2.414 . S
O165 Nd137 2.682 1_564 S
O165 C154 1.273 1_554 S
O166 Nd137 2.410 1_554 S
O166 C155 1.251 . S
O167 Nd136 2.424 1_545 S
O167 C155 1.268 . S
H168 C140 0.930 . S
H169 C141 0.929 . S
H170 C143 0.930 . S
H171 C144 0.929 . S
H172 C149 0.930 . S
H173 C150 0.929 . S
H174 C152 0.930 . S
H175 C153 0.929 . S
Nd176 C178 2.836 . S
Nd176 O196 2.500 . S
Nd176 O197 2.492 . S
Nd176 O198 2.487 . S
Nd176 O199 2.682 . S
Nd176 O200 2.410 . S
Nd176 O205 2.414 . S
Nd176 O207 2.424 . S
Nd177 C187 2.836 . S
Nd177 O199 2.414 . S
Nd177 O201 2.424 . S
Nd177 O202 2.500 . S
Nd177 O203 2.492 . S
Nd177 O204 2.487 . S
Nd177 O205 2.682 . S
Nd177 O206 2.410 . S
C178 Nd176 2.836 . S
C178 C179 1.498 . S
C178 O196 1.258 . S
C178 O197 1.239 . S
C179 C178 1.498 . S
C179 C180 1.366 . S
C179 C184 1.407 . S
C180 C179 1.366 . S
C180 C181 1.392 . S
C180 H208 0.930 . S
C181 C180 1.392 . S
C181 C182 1.398 . S
C181 H209 0.929 . S
C182 C181 1.398 . S
C182 C183 1.352 . S
C183 C182 1.352 . S
C183 C184 1.384 . S
C183 H210 0.930 . S
C184 C179 1.407 . S
C184 C183 1.384 . S
C184 H211 0.929 . S
C185 O198 1.241 . S
C185 O199 1.273 . S
C186 O200 1.251 . S
C186 O201 1.268 . S
C187 Nd177 2.836 . S
C187 C188 1.498 . S
C187 O202 1.258 . S
C187 O203 1.239 . S
C188 C187 1.498 . S
C188 C189 1.366 . S
C188 C193 1.407 . S
C189 C188 1.366 . S
C189 C190 1.392 . S
C189 H212 0.930 . S
C190 C189 1.392 . S
C190 C191 1.398 . S
C190 H213 0.929 . S
C191 C190 1.398 . S
C191 C192 1.352 . S
C192 C191 1.352 . S
C192 C193 1.384 . S
C192 H214 0.930 . S
C193 C188 1.407 . S
C193 C192 1.384 . S
C193 H215 0.929 . S
C194 O204 1.241 . S
C194 O205 1.273 . S
C195 O206 1.251 . S
C195 O207 1.268 . S
O196 Nd176 2.500 . S
O196 C178 1.258 . S
O197 Nd176 2.492 . S
O197 C178 1.239 . S
O198 Nd176 2.487 . S
O198 C185 1.241 . S
O199 Nd176 2.682 . S
O199 Nd177 2.414 . S
O199 C185 1.273 . S
O200 Nd176 2.410 . S
O200 C186 1.251 . S
O201 Nd177 2.424 . S
O201 C186 1.268 . S
O202 Nd177 2.500 . S
O202 C187 1.258 . S
O203 Nd177 2.492 . S
O203 C187 1.239 . S
O204 Nd177 2.487 . S
O204 C194 1.241 . S
O205 Nd176 2.414 . S
O205 Nd177 2.682 . S
O205 C194 1.273 . S
O206 Nd177 2.410 . S
O206 C195 1.251 . S
O207 Nd176 2.424 . S
O207 C195 1.268 . S
H208 C180 0.930 . S
H209 C181 0.929 . S
H210 C183 0.930 . S
H211 C184 0.929 . S
H212 C189 0.930 . S
H213 C190 0.929 . S
H214 C192 0.930 . S
H215 C193 0.929 . S
Nd216 C218 2.852 . S
Nd216 O236 2.523 . S
Nd216 O237 2.497 . S
Nd216 O238 2.463 1_655 S
Nd216 O239 2.660 1_655 S
Nd216 O240 2.408 1_655 S
Nd216 O245 2.423 1_554 S
Nd216 O247 2.414 1_655 S
Nd217 C227 2.836 . S
Nd217 O239 2.414 1_556 S
Nd217 O241 2.424 . S
Nd217 O242 2.500 . S
Nd217 O243 2.492 . S
Nd217 O244 2.487 1_455 S
Nd217 O245 2.682 1_455 S
Nd217 O246 2.410 . S
C218 Nd216 2.852 . S
C218 C219 1.498 . S
C218 O236 1.258 . S
C218 O237 1.239 . S
C219 C218 1.498 . S
C219 C220 1.366 . S
C219 C224 1.407 . S
C220 C219 1.366 . S
C220 C221 1.392 . S
C220 H248 0.930 . S
C221 C220 1.392 . S
C221 C222 1.398 . S
C221 H249 0.929 . S
C222 C221 1.398 . S
C222 C223 1.352 . S
C223 C222 1.352 . S
C223 C224 1.384 . S
C223 H250 0.930 . S
C224 C219 1.407 . S
C224 C223 1.384 . S
C224 H251 0.929 . S
C225 O238 1.241 . S
C225 O239 1.273 . S
C226 O240 1.251 1_556 S
C226 O241 1.268 . S
C227 Nd217 2.836 . S
C227 C228 1.498 . S
C227 O242 1.258 . S
C227 O243 1.239 . S
C228 C227 1.498 . S
C228 C229 1.366 . S
C228 C233 1.407 . S
C229 C228 1.366 . S
C229 C230 1.392 . S
C229 H252 0.930 . S
C230 C229 1.392 . S
C230 C231 1.398 . S
C230 H253 0.929 . S
C231 C230 1.398 . S
C231 C232 1.352 . S
C232 C231 1.352 . S
C232 C233 1.384 . S
C232 H254 0.930 . S
C233 C228 1.407 . S
C233 C232 1.384 . S
C233 H255 0.929 . S
C234 O244 1.241 . S
C234 O245 1.273 . S
C235 O246 1.251 1_554 S
C235 O247 1.268 . S
O236 Nd216 2.523 . S
O236 C218 1.258 . S
O237 Nd216 2.497 . S
O237 C218 1.239 . S
O238 Nd216 2.463 1_455 S
O238 C225 1.241 . S
O239 Nd216 2.660 1_455 S
O239 Nd217 2.414 1_554 S
O239 C225 1.273 . S
O240 Nd216 2.408 1_455 S
O240 C226 1.251 1_554 S
O241 Nd217 2.424 . S
O241 C226 1.268 . S
O242 Nd217 2.500 . S
O242 C227 1.258 . S
O243 Nd217 2.492 . S
O243 C227 1.239 . S
O244 Nd217 2.487 1_655 S
O244 C234 1.241 . S
O245 Nd216 2.423 1_556 S
O245 Nd217 2.682 1_655 S
O245 C234 1.273 . S
O246 Nd217 2.410 . S
O246 C235 1.251 1_556 S
O247 Nd216 2.414 1_455 S
O247 C235 1.268 . S
H248 C220 0.930 . S
H249 C221 0.929 . S
H250 C223 0.930 . S
H251 C224 0.929 . S
H252 C229 0.930 . S
H253 C230 0.929 . S
H254 C232 0.930 . S
H255 C233 0.929 . S
C256 C257 1.387 . S
C256 H260 0.950 . S
C256 C265 1.390 . S
C257 C256 1.387 . S
C257 C259 1.387 . S
H258 C265 0.950 . S
C259 C257 1.387 . S
C259 C261 1.390 . S
C259 H263 0.950 . S
H260 C256 0.950 . S
C261 C259 1.390 . S
C261 C262 1.387 . S
C261 H264 0.950 . S
C262 C261 1.387 . S
C262 C265 1.387 . S
H263 C259 0.950 . S
H264 C261 0.950 . S
C265 C256 1.390 . S
C265 H258 0.950 . S
C265 C262 1.387 . S
C266 C267 1.387 . S
C266 H270 0.950 . S
C266 C275 1.390 . S
C267 C266 1.387 . S
C267 C269 1.387 . S
H268 C275 0.950 . S
C269 C267 1.387 . S
C269 C271 1.390 . S
C269 H273 0.950 . S
H270 C266 0.950 . S
C271 C269 1.390 . S
C271 C272 1.387 . S
C271 H274 0.950 . S
C272 C271 1.387 . S
C272 C275 1.387 . S
H273 C269 0.950 . S
H274 C271 0.950 . S
C275 C266 1.390 . S
C275 H268 0.950 . S
C275 C272 1.387 . S
C276 C277 1.387 . S
C276 H280 0.950 . S
C276 C285 1.390 . S
C277 C276 1.387 . S
C277 C279 1.387 . S
H278 C285 0.950 . S
C279 C277 1.387 . S
C279 C281 1.390 . S
C279 H283 0.950 . S
H280 C276 0.950 . S
C281 C279 1.390 . S
C281 C282 1.387 . S
C281 H284 0.950 . S
C282 C281 1.387 . S
C282 C285 1.387 . S
H283 C279 0.950 . S
H284 C281 0.950 . S
C285 C276 1.390 . S
C285 H278 0.950 . S
C285 C282 1.387 . S
C286 C287 1.387 . S
C286 H290 0.950 . S
C286 C295 1.390 . S
C287 C286 1.387 . S
C287 C289 1.387 . S
H288 C295 0.950 . S
C289 C287 1.387 . S
C289 C291 1.390 . S
C289 H293 0.950 . S
H290 C286 0.950 . S
C291 C289 1.390 . S
C291 C292 1.387 . S
C291 H294 0.950 . S
C292 C291 1.387 . S
C292 C295 1.387 . S
H293 C289 0.950 . S
H294 C291 0.950 . S
C295 C286 1.390 . S
C295 H288 0.950 . S
C295 C292 1.387 . S
C296 C297 1.387 . S
C296 H300 0.950 . S
C296 C305 1.390 . S
C297 C296 1.387 . S
C297 C299 1.387 . S
H298 C305 0.950 . S
C299 C297 1.387 . S
C299 C301 1.390 . S
C299 H303 0.950 . S
H300 C296 0.950 . S
C301 C299 1.390 . S
C301 C302 1.387 . S
C301 H304 0.950 . S
C302 C301 1.387 . S
C302 C305 1.387 . S
H303 C299 0.950 . S
H304 C301 0.950 . S
C305 C296 1.390 . S
C305 H298 0.950 . S
C305 C302 1.387 . S
C306 C307 1.387 . S
C306 H310 0.950 . S
C306 C315 1.390 . S
C307 C306 1.387 . S
C307 C309 1.387 . S
H308 C315 0.950 . S
C309 C307 1.387 . S
C309 C311 1.390 . S
C309 H313 0.950 . S
H310 C306 0.950 . S
C311 C309 1.390 . S
C311 C312 1.387 . S
C311 H314 0.950 . S
C312 C311 1.387 . S
C312 C315 1.387 . S
H313 C309 0.950 . S
H314 C311 0.950 . S
C315 C306 1.390 . S
C315 H308 0.950 . S
C315 C312 1.387 . S
C316 C317 1.387 . S
C316 H320 0.950 . S
C316 C325 1.390 . S
C317 C316 1.387 . S
C317 C319 1.387 . S
H318 C325 0.950 . S
C319 C317 1.387 . S
C319 C321 1.390 . S
C319 H323 0.950 . S
H320 C316 0.950 . S
C321 C319 1.390 . S
C321 C322 1.387 . S
C321 H324 0.950 . S
C322 C321 1.387 . S
C322 C325 1.387 . S
H323 C319 0.950 . S
H324 C321 0.950 . S
C325 C316 1.390 . S
C325 H318 0.950 . S
C325 C322 1.387 . S
C326 C327 1.387 . S
C326 H330 0.950 . S
C326 C335 1.390 . S
C327 C326 1.387 . S
C327 C329 1.387 . S
H328 C335 0.950 . S
C329 C327 1.387 . S
C329 C331 1.390 . S
C329 H333 0.950 . S
H330 C326 0.950 . S
C331 C329 1.390 . S
C331 C332 1.387 . S
C331 H334 0.950 . S
C332 C331 1.387 . S
C332 C335 1.387 . S
H333 C329 0.950 . S
H334 C331 0.950 . S
C335 C326 1.390 . S
C335 H328 0.950 . S
C335 C332 1.387 . S
C336 C337 1.387 . S
C336 H340 0.950 . S
C336 C345 1.390 . S
C337 C336 1.387 . S
C337 C339 1.387 . S
H338 C345 0.950 . S
C339 C337 1.387 . S
C339 C341 1.390 . S
C339 H343 0.950 1_554 S
H340 C336 0.950 . S
C341 C339 1.390 . S
C341 C342 1.387 . S
C341 H344 0.950 1_554 S
C342 C341 1.387 . S
C342 C345 1.387 . S
H343 C339 0.950 1_556 S
H344 C341 0.950 1_556 S
C345 C336 1.390 . S
C345 H338 0.950 . S
C345 C342 1.387 . S
C346 C347 1.387 . S
C346 H350 0.950 . S
C346 C355 1.390 . S
C347 C346 1.387 . S
C347 C349 1.387 . S
H348 C355 0.950 . S
C349 C347 1.387 . S
C349 C351 1.390 . S
C349 H353 0.950 . S
H350 C346 0.950 . S
C351 C349 1.390 . S
C351 C352 1.387 . S
C351 H354 0.950 . S
C352 C351 1.387 . S
C352 C355 1.387 . S
H353 C349 0.950 . S
H354 C351 0.950 . S
C355 C346 1.390 . S
C355 H348 0.950 . S
C355 C352 1.387 . S
C356 C357 1.387 . S
C356 H360 0.950 . S
C356 C365 1.390 . S
C357 C356 1.387 . S
C357 C359 1.387 . S
H358 C365 0.950 . S
C359 C357 1.387 . S
C359 C361 1.390 . S
C359 H363 0.950 . S
H360 C356 0.950 . S
C361 C359 1.390 . S
C361 C362 1.387 . S
C361 H364 0.950 . S
C362 C361 1.387 . S
C362 C365 1.387 . S
H363 C359 0.950 . S
H364 C361 0.950 . S
C365 C356 1.390 . S
C365 H358 0.950 . S
C365 C362 1.387 . S
C366 C367 1.387 . S
C366 H370 0.950 . S
C366 C375 1.390 . S
C367 C366 1.387 . S
C367 C369 1.387 . S
H368 C375 0.950 . S
C369 C367 1.387 . S
C369 C371 1.390 . S
C369 H373 0.950 . S
H370 C366 0.950 . S
C371 C369 1.390 . S
C371 C372 1.387 . S
C371 H374 0.950 . S
C372 C371 1.387 . S
C372 C375 1.387 . S
H373 C369 0.950 . S
H374 C371 0.950 . S
C375 C366 1.390 . S
C375 H368 0.950 . S
C375 C372 1.387 . S
C376 C377 1.387 . S
C376 H380 0.950 . S
C376 C385 1.390 . S
C377 C376 1.387 . S
C377 C379 1.387 . S
H378 C385 0.950 1_545 S
C379 C377 1.387 . S
C379 C381 1.390 . S
C379 H383 0.950 . S
H380 C376 0.950 . S
C381 C379 1.390 . S
C381 C382 1.387 . S
C381 H384 0.950 . S
C382 C381 1.387 . S
C382 C385 1.387 . S
H383 C379 0.950 . S
H384 C381 0.950 . S
C385 C376 1.390 . S
C385 H378 0.950 1_565 S
C385 C382 1.387 . S
C386 C387 1.387 . S
C386 H390 0.950 . S
C386 C395 1.390 . S
C387 C386 1.387 . S
C387 C389 1.387 . S
H388 C395 0.950 . S
C389 C387 1.387 . S
C389 C391 1.390 . S
C389 H393 0.950 . S
H390 C386 0.950 . S
C391 C389 1.390 . S
C391 C392 1.387 . S
C391 H394 0.950 . S
C392 C391 1.387 . S
C392 C395 1.387 . S
H393 C389 0.950 . S
H394 C391 0.950 . S
C395 C386 1.390 . S
C395 H388 0.950 . S
C395 C392 1.387 . S
C396 C397 1.387 . S
C396 H400 0.950 . S
C396 C405 1.390 . S
C397 C396 1.387 . S
C397 C399 1.387 . S
H398 C405 0.950 . S
C399 C397 1.387 . S
C399 C401 1.390 . S
C399 H403 0.950 . S
H400 C396 0.950 . S
C401 C399 1.390 . S
C401 C402 1.387 . S
C401 H404 0.950 . S
C402 C401 1.387 . S
C402 C405 1.387 . S
H403 C399 0.950 . S
H404 C401 0.950 . S
C405 C396 1.390 . S
C405 H398 0.950 . S
C405 C402 1.387 . S
C406 C407 1.387 . S
C406 H410 0.950 . S
C406 C415 1.390 . S
C407 C406 1.387 . S
C407 C409 1.387 . S
H408 C415 0.950 . S
C409 C407 1.387 . S
C409 C411 1.390 . S
C409 H413 0.950 . S
H410 C406 0.950 . S
C411 C409 1.390 . S
C411 C412 1.387 . S
C411 H414 0.950 . S
C412 C411 1.387 . S
C412 C415 1.387 . S
H413 C409 0.950 . S
H414 C411 0.950 . S
C415 C406 1.390 . S
C415 H408 0.950 . S
C415 C412 1.387 . S
C416 C417 1.387 . S
C416 H420 0.950 . S
C416 C425 1.390 . S
C417 C416 1.387 . S
C417 C419 1.387 . S
H418 C425 0.950 . S
C419 C417 1.387 . S
C419 C421 1.390 . S
C419 H423 0.950 . S
H420 C416 0.950 . S
C421 C419 1.390 . S
C421 C422 1.387 . S
C421 H424 0.950 . S
C422 C421 1.387 . S
C422 C425 1.387 . S
H423 C419 0.950 . S
H424 C421 0.950 . S
C425 C416 1.390 . S
C425 H418 0.950 . S
C425 C422 1.387 . S
C426 C427 1.387 . S
C426 H430 0.950 . S
C426 C435 1.390 . S
C427 C426 1.387 . S
C427 C429 1.387 . S
H428 C435 0.950 . S
C429 C427 1.387 . S
C429 C431 1.390 . S
C429 H433 0.950 . S
H430 C426 0.950 . S
C431 C429 1.390 . S
C431 C432 1.387 . S
C431 H434 0.950 . S
C432 C431 1.387 . S
C432 C435 1.387 . S
H433 C429 0.950 . S
H434 C431 0.950 . S
C435 C426 1.390 . S
C435 H428 0.950 . S
C435 C432 1.387 . S
C436 C437 1.387 . S
C436 H440 0.950 . S
C436 C445 1.390 . S
C437 C436 1.387 . S
C437 C439 1.387 . S
H438 C445 0.950 . S
C439 C437 1.387 . S
C439 C441 1.390 . S
C439 H443 0.950 . S
H440 C436 0.950 . S
C441 C439 1.390 . S
C441 C442 1.387 . S
C441 H444 0.950 . S
C442 C441 1.387 . S
C442 C445 1.387 . S
H443 C439 0.950 . S
H444 C441 0.950 . S
C445 C436 1.390 . S
C445 H438 0.950 . S
C445 C442 1.387 . S
C446 C447 1.387 . S
C446 H450 0.950 . S
C446 C455 1.390 . S
C447 C446 1.387 . S
C447 C449 1.387 . S
H448 C455 0.950 . S
C449 C447 1.387 . S
C449 C451 1.390 . S
C449 H453 0.950 . S
H450 C446 0.950 . S
C451 C449 1.390 . S
C451 C452 1.387 . S
C451 H454 0.950 . S
C452 C451 1.387 . S
C452 C455 1.387 . S
H453 C449 0.950 . S
H454 C451 0.950 . S
C455 C446 1.390 . S
C455 H448 0.950 . S
C455 C452 1.387 . S
C456 C457 1.387 . S
C456 H460 0.950 1_556 S
C456 C465 1.383 1_556 S
C457 C456 1.387 . S
C457 C459 1.387 . S
H458 C465 0.970 . S
C459 C457 1.387 . S
C459 C461 1.390 . S
C459 H463 0.950 . S
H460 C456 0.950 1_554 S
C461 C459 1.390 . S
C461 C462 1.387 . S
C461 H464 0.950 . S
C462 C461 1.387 . S
C462 C465 1.375 1_556 S
H463 C459 0.950 . S
H464 C461 0.950 . S
C465 C456 1.383 1_554 S
C465 H458 0.970 . S
C465 C462 1.375 1_554 S
C466 C467 1.387 . S
C466 H470 0.950 . S
C466 C475 1.390 . S
C467 C466 1.387 . S
C467 C469 1.387 . S
H468 C475 0.950 . S
C469 C467 1.387 . S
C469 C471 1.390 . S
C469 H473 0.950 . S
H470 C466 0.950 . S
C471 C469 1.390 . S
C471 C472 1.387 . S
C471 H474 0.950 . S
C472 C471 1.387 . S
C472 C475 1.387 . S
H473 C469 0.950 . S
H474 C471 0.950 . S
C475 C466 1.390 . S
C475 H468 0.950 . S
C475 C472 1.387 . S
C476 C477 1.387 . S
C476 H480 0.950 . S
C476 C485 1.390 . S
C477 C476 1.387 . S
C477 C479 1.387 . S
H478 C485 0.950 . S
C479 C477 1.387 . S
C479 C481 1.390 . S
C479 H483 0.950 . S
H480 C476 0.950 . S
C481 C479 1.390 . S
C481 C482 1.387 . S
C481 H484 0.950 . S
C482 C481 1.387 . S
C482 C485 1.387 . S
H483 C479 0.950 . S
H484 C481 0.950 . S
C485 C476 1.390 . S
C485 H478 0.950 . S
C485 C482 1.387 . S
C486 C487 1.387 . S
C486 H490 0.950 . S
C486 C495 1.390 . S
C487 C486 1.387 . S
C487 C489 1.387 . S
H488 C495 0.950 . S
C489 C487 1.387 . S
C489 C491 1.390 . S
C489 H493 0.950 . S
H490 C486 0.950 . S
C491 C489 1.390 . S
C491 C492 1.387 . S
C491 H494 0.950 . S
C492 C491 1.387 . S
C492 C495 1.387 . S
H493 C489 0.950 . S
H494 C491 0.950 . S
C495 C486 1.390 . S
C495 H488 0.950 . S
C495 C492 1.387 . S
C257 C6 3.023 . S
C262 C115 2.988 . S
C267 C18 2.304 . S
C272 C146 2.424 . S
C282 C185 1.515 . S
C277 C28 1.481 . S
C287 C40 0.699 . S
C292 C222 0.706 . S
C302 C145 2.995 . S
C297 C9 3.113 . S
C312 C102 1.252 . S
C307 C16 1.268 . S
C322 C234 1.581 . S
C317 C30 1.635 . S
C332 C191 1.297 . S
C327 C42 1.264 . S
C337 C4 2.399 . S
C342 C235 2.393 . S
C352 C151 1.397 . S
C347 C33 1.415 . S
C357 C45 0.662 . S
C362 C114 0.842 . S
C367 C21 2.397 . S
C372 C186 2.384 . S
C382 C106 3.021 . S
C377 C57 3.075 . S
C387 C66 2.221 . S
C392 C155 2.390 . S
C397 C76 1.511 . S
C402 C194 1.516 . S
C407 C88 0.733 . S
C412 C231 0.729 . S
C417 C54 3.063 . S
C422 C154 2.935 . S
C432 C111 1.286 . S
C427 C64 1.302 . S
C442 C225 1.434 . S
C437 C78 1.494 . S
C452 C182 1.313 . S
C447 C93 1.330 . S
C457 C52 2.311 . S
C462 C226 2.332 1_655 S
C472 C142 1.392 . S
C467 C81 1.411 . S
C482 C105 0.794 . S
C477 C90 0.685 . S
C487 C69 2.422 . S
C492 C195 2.430 . S
