# Generated by pormake.
# Topology pto, (3,4)-cn, num edge types: 1
# Building blocks:
#     Node 0, Type 0, BuildingBlock: VETTIZ_charged_linker_0, # of connection points: 3
#     Node 1, Type 0, BuildingBlock: VETTIZ_charged_linker_0, # of connection points: 3
#     Node 2, Type 0, BuildingBlock: VETTIZ_charged_linker_0, # of connection points: 3
#     Node 3, Type 0, BuildingBlock: VETTIZ_charged_linker_0, # of connection points: 3
#     Node 4, Type 0, BuildingBlock: VETTIZ_charged_linker_0, # of connection points: 3
#     Node 5, Type 0, BuildingBlock: VETTIZ_charged_linker_0, # of connection points: 3
#     Node 6, Type 0, BuildingBlock: VETTIZ_charged_linker_0, # of connection points: 3
#     Node 7, Type 0, BuildingBlock: VETTIZ_charged_linker_0, # of connection points: 3
#     Node 8, Type 1, BuildingBlock: KOZSID_clean_sbu_0, # of connection points: 4
#     Node 9, Type 1, BuildingBlock: KOZSID_clean_sbu_0, # of connection points: 4
#     Node 10, Type 1, BuildingBlock: KOZSID_clean_sbu_0, # of connection points: 4
#     Node 11, Type 1, BuildingBlock: KOZSID_clean_sbu_0, # of connection points: 4
#     Node 12, Type 1, BuildingBlock: KOZSID_clean_sbu_0, # of connection points: 4
#     Node 13, Type 1, BuildingBlock: KOZSID_clean_sbu_0, # of connection points: 4
#     Edge 14, Type (0, 1), BuildingBlock: ZUJKAS_clean_linker_0, # of connection points: 2
#     Edge 15, Type (0, 1), BuildingBlock: ZUJKAS_clean_linker_0, # of connection points: 2
#     Edge 16, Type (0, 1), BuildingBlock: ZUJKAS_clean_linker_0, # of connection points: 2
#     Edge 17, Type (0, 1), BuildingBlock: ZUJKAS_clean_linker_0, # of connection points: 2
#     Edge 18, Type (0, 1), BuildingBlock: ZUJKAS_clean_linker_0, # of connection points: 2
#     Edge 19, Type (0, 1), BuildingBlock: ZUJKAS_clean_linker_0, # of connection points: 2
#     Edge 20, Type (0, 1), BuildingBlock: ZUJKAS_clean_linker_0, # of connection points: 2
#     Edge 21, Type (0, 1), BuildingBlock: ZUJKAS_clean_linker_0, # of connection points: 2
#     Edge 22, Type (0, 1), BuildingBlock: ZUJKAS_clean_linker_0, # of connection points: 2
#     Edge 23, Type (0, 1), BuildingBlock: ZUJKAS_clean_linker_0, # of connection points: 2
#     Edge 24, Type (0, 1), BuildingBlock: ZUJKAS_clean_linker_0, # of connection points: 2
#     Edge 25, Type (0, 1), BuildingBlock: ZUJKAS_clean_linker_0, # of connection points: 2
#     Edge 26, Type (0, 1), BuildingBlock: ZUJKAS_clean_linker_0, # of connection points: 2
#     Edge 27, Type (0, 1), BuildingBlock: ZUJKAS_clean_linker_0, # of connection points: 2
#     Edge 28, Type (0, 1), BuildingBlock: ZUJKAS_clean_linker_0, # of connection points: 2
#     Edge 29, Type (0, 1), BuildingBlock: ZUJKAS_clean_linker_0, # of connection points: 2
#     Edge 30, Type (0, 1), BuildingBlock: ZUJKAS_clean_linker_0, # of connection points: 2
#     Edge 31, Type (0, 1), BuildingBlock: ZUJKAS_clean_linker_0, # of connection points: 2
#     Edge 32, Type (0, 1), BuildingBlock: ZUJKAS_clean_linker_0, # of connection points: 2
#     Edge 33, Type (0, 1), BuildingBlock: ZUJKAS_clean_linker_0, # of connection points: 2
#     Edge 34, Type (0, 1), BuildingBlock: ZUJKAS_clean_linker_0, # of connection points: 2
#     Edge 35, Type (0, 1), BuildingBlock: ZUJKAS_clean_linker_0, # of connection points: 2
#     Edge 36, Type (0, 1), BuildingBlock: ZUJKAS_clean_linker_0, # of connection points: 2
#     Edge 37, Type (0, 1), BuildingBlock: ZUJKAS_clean_linker_0, # of connection points: 2
# Relax obj value: 0.000
# Max RMSD: 0.018
# Mean RMSD: 0.008
data_MOF--net-pto--node1-KOZSID_clean_sbu_0--node2-VETTIZ_charged_linker_0--edge1-ZUJKAS_clean_linker_0
_symmetry_space_group_name_H-M    P1
_symmetry_Int_Tables_number       1
_symmetry_cell_setting            triclinic
loop_
_symmetry_equiv_pos_as_xyz
'x, y, z'
_cell_length_a     57.190287
_cell_length_b     77.239617
_cell_length_c     67.342524
_cell_angle_alpha  88.142904
_cell_angle_beta   87.830301
_cell_angle_gamma 92.091539
loop_
_atom_site_label
_atom_site_type_symbol
_atom_site_fract_x
_atom_site_fract_y
_atom_site_fract_z
_atom_type_partial_charge
C0 C 0.25335 0.21114 0.35862 0.0
C1 C 0.26527 0.19569 0.35608 0.0
C2 C 0.28107 0.19459 0.3396 0.0
C3 C 0.27247 0.22374 0.32844 0.0
C4 C 0.25716 0.22491 0.34467 0.0
C5 C 0.24558 0.24208 0.34499 0.0
H6 H 0.22784 0.31994 0.29997 0.0
C7 C 0.27193 0.2401 0.31648 0.0
C8 C 0.25617 0.2509 0.32609 0.0
H9 H 0.19764 0.29935 0.35605 0.0
H10 H 0.21969 0.27346 0.35272 0.0
H11 H 0.22329 0.28534 0.27653 0.0
H12 H 0.28048 0.3078 0.30789 0.0
H13 H 0.29221 0.29987 0.28562 0.0
H14 H 0.27116 0.31666 0.28465 0.0
H15 H 0.24085 0.30348 0.26642 0.0
H16 H 0.24897 0.28144 0.26257 0.0
C17 C 0.21882 0.23865 0.34378 0.0
C18 C 0.25305 0.25153 0.36383 0.0
C19 C 0.32174 0.24799 0.2524 0.0
C20 C 0.32386 0.26128 0.23753 0.0
C21 C 0.31029 0.27606 0.2397 0.0
C22 C 0.29516 0.27766 0.25634 0.0
C23 C 0.2933 0.26429 0.27101 0.0
C24 C 0.30633 0.24971 0.26883 0.0
C25 C 0.30138 0.23652 0.28554 0.0
C26 C 0.28353 0.24573 0.29826 0.0
C27 C 0.27898 0.26202 0.28971 0.0
C28 C 0.29073 0.21985 0.27665 0.0
C29 C 0.32438 0.23387 0.29649 0.0
C30 C 0.22587 0.3098 0.31146 0.0
C31 C 0.21089 0.31165 0.32824 0.0
C32 C 0.20919 0.29828 0.34305 0.0
C33 C 0.22191 0.28321 0.34103 0.0
C34 C 0.23658 0.28146 0.32404 0.0
C35 C 0.23856 0.29472 0.30973 0.0
C36 C 0.25536 0.2908 0.29289 0.0
C37 C 0.26301 0.27295 0.29938 0.0
C38 C 0.25185 0.26749 0.31756 0.0
C39 C 0.24162 0.29033 0.27349 0.0
C40 C 0.27588 0.30449 0.29252 0.0
H41 H 0.2969 0.20679 0.31358 0.0
H42 H 0.24134 0.21254 0.37124 0.0
H43 H 0.27114 0.24828 0.36775 0.0
H44 H 0.25369 0.26579 0.36174 0.0
H45 H 0.2412 0.24776 0.37683 0.0
H46 H 0.21501 0.22819 0.33326 0.0
H47 H 0.21083 0.23449 0.35854 0.0
H48 H 0.20962 0.24996 0.33805 0.0
H49 H 0.33193 0.23649 0.2514 0.0
H50 H 0.31104 0.28635 0.22836 0.0
H51 H 0.28536 0.28921 0.25703 0.0
H52 H 0.28048 0.223 0.26337 0.0
H53 H 0.30462 0.21101 0.27194 0.0
H54 H 0.27807 0.21273 0.287 0.0
H55 H 0.33423 0.24644 0.2978 0.0
H56 H 0.32139 0.22875 0.3119 0.0
H57 H 0.33593 0.22505 0.28829 0.0
H58 H 0.29028 0.1828 0.33709 0.0
C59 C 0.28476 0.20851 0.32583 0.0
C60 C 0.21466 0.70725 0.72615 0.0
C61 C 0.19965 0.70515 0.71026 0.0
C62 C 0.19755 0.71908 0.69646 0.0
C63 C 0.22467 0.73682 0.71466 0.0
C64 C 0.22695 0.72309 0.72803 0.0
C65 C 0.24358 0.72741 0.74408 0.0
H66 H 0.3154 0.78605 0.78627 0.0
C67 C 0.23951 0.75153 0.72108 0.0
C68 C 0.25067 0.74607 0.7383 0.0
H69 H 0.29992 0.73266 0.80506 0.0
H70 H 0.27461 0.72911 0.77753 0.0
H71 H 0.26282 0.79505 0.77613 0.0
H72 H 0.32106 0.77891 0.73983 0.0
H73 H 0.30712 0.79493 0.72604 0.0
H74 H 0.31974 0.80032 0.7493 0.0
H75 H 0.28743 0.80932 0.76917 0.0
H76 H 0.26262 0.80706 0.75357 0.0
C77 C 0.22974 0.72591 0.76434 0.0
C78 C 0.26453 0.71528 0.74235 0.0
C79 C 0.24149 0.80923 0.68224 0.0
C80 C 0.25321 0.8253 0.6849 0.0
C81 C 0.26783 0.82701 0.70119 0.0
C82 C 0.2708 0.81303 0.71451 0.0
C83 C 0.25901 0.79709 0.71165 0.0
C84 C 0.24462 0.79539 0.69575 0.0
C85 C 0.23335 0.7775 0.69517 0.0
C86 C 0.24342 0.76877 0.71331 0.0
C87 C 0.25844 0.78031 0.72288 0.0
C88 C 0.20648 0.77915 0.69756 0.0
C89 C 0.24169 0.76919 0.67563 0.0
C90 C 0.3064 0.77364 0.78454 0.0
C91 C 0.30966 0.75963 0.79789 0.0
C92 C 0.29791 0.74361 0.79488 0.0
C93 C 0.28311 0.7416 0.77893 0.0
C94 C 0.27999 0.75574 0.76575 0.0
C95 C 0.29162 0.7714 0.76863 0.0
C96 C 0.28647 0.78491 0.75297 0.0
C97 C 0.26979 0.77478 0.74026 0.0
C98 C 0.26599 0.75774 0.74786 0.0
C99 C 0.27434 0.8 0.76335 0.0
C100 C 0.30972 0.79023 0.74143 0.0
H101 H 0.20747 0.745 0.68765 0.0
H102 H 0.21696 0.69673 0.73684 0.0
H103 H 0.26842 0.71214 0.72658 0.0
H104 H 0.28101 0.7213 0.74735 0.0
H105 H 0.26078 0.70286 0.75083 0.0
H106 H 0.21181 0.73082 0.76292 0.0
H107 H 0.22794 0.71221 0.76989 0.0
H108 H 0.23769 0.7338 0.77586 0.0
H109 H 0.23031 0.80738 0.66981 0.0
H110 H 0.27676 0.83928 0.70383 0.0
H111 H 0.28212 0.81523 0.72659 0.0
H112 H 0.20207 0.78951 0.70803 0.0
H113 H 0.1988 0.78252 0.68309 0.0
H114 H 0.19741 0.76732 0.70404 0.0
H115 H 0.26025 0.77313 0.6717 0.0
H116 H 0.24145 0.75489 0.67677 0.0
H117 H 0.23096 0.77329 0.66303 0.0
H118 H 0.18595 0.71788 0.68418 0.0
C119 C 0.20995 0.73488 0.69857 0.0
C120 C 0.81446 0.71408 0.3278 0.0
C121 C 0.81247 0.69888 0.31692 0.0
C122 C 0.7972 0.69843 0.30096 0.0
C123 C 0.78676 0.72805 0.30663 0.0
C124 C 0.80147 0.72842 0.32244 0.0
C125 C 0.8015 0.74556 0.33245 0.0
H126 H 0.76415 0.82766 0.33561 0.0
C127 C 0.77621 0.74517 0.30468 0.0
C128 C 0.78473 0.75549 0.3198 0.0
H129 H 0.80927 0.80172 0.37627 0.0
H130 H 0.80649 0.77582 0.35738 0.0
H131 H 0.72719 0.79552 0.3334 0.0
H132 H 0.7864 0.813 0.29572 0.0
H133 H 0.76421 0.80626 0.28006 0.0
H134 H 0.75933 0.82404 0.29625 0.0
H135 H 0.72683 0.8146 0.3175 0.0
H136 H 0.71903 0.79344 0.30869 0.0
C137 C 0.79179 0.74242 0.35413 0.0
C138 C 0.8267 0.75367 0.33063 0.0
C139 C 0.72121 0.7573 0.24872 0.0
C140 C 0.70936 0.77211 0.24266 0.0
C141 C 0.71199 0.78732 0.25355 0.0
C142 C 0.72609 0.78777 0.27011 0.0
C143 C 0.73781 0.77287 0.27593 0.0
C144 C 0.7353 0.75799 0.26526 0.0
C145 C 0.74936 0.74348 0.27343 0.0
C146 C 0.76062 0.7521 0.29082 0.0
C147 C 0.75376 0.76929 0.29223 0.0
C148 C 0.73216 0.72833 0.28041 0.0
C149 C 0.76773 0.73879 0.25715 0.0
C150 C 0.77329 0.81637 0.34058 0.0
C151 C 0.78702 0.81685 0.35749 0.0
C152 C 0.79888 0.80187 0.36316 0.0
C153 C 0.7971 0.78676 0.35225 0.0
C154 C 0.78324 0.78651 0.33545 0.0
C155 C 0.77157 0.80114 0.32993 0.0
C156 C 0.75729 0.79842 0.31191 0.0
C157 C 0.76227 0.77973 0.30756 0.0
C158 C 0.77758 0.77284 0.32133 0.0
C159 C 0.7312 0.8007 0.31799 0.0
C160 C 0.76706 0.81111 0.29505 0.0
H161 H 0.7732 0.71174 0.28341 0.0
H162 H 0.82579 0.71477 0.3403 0.0
H163 H 0.83482 0.75147 0.31569 0.0
H164 H 0.82733 0.76787 0.33205 0.0
H165 H 0.83798 0.74781 0.3419 0.0
H166 H 0.77856 0.73147 0.35518 0.0
H167 H 0.80598 0.73918 0.36427 0.0
H168 H 0.78241 0.75359 0.35986 0.0
H169 H 0.71943 0.74533 0.24087 0.0
H170 H 0.70342 0.79902 0.24908 0.0
H171 H 0.7274 0.79976 0.27768 0.0
H172 H 0.71558 0.73331 0.28679 0.0
H173 H 0.7276 0.72006 0.26782 0.0
H174 H 0.73899 0.72013 0.29245 0.0
H175 H 0.77424 0.75056 0.24837 0.0
H176 H 0.78359 0.73329 0.26328 0.0
H177 H 0.76009 0.72957 0.24662 0.0
H178 H 0.79552 0.68697 0.2922 0.0
C179 C 0.78437 0.71289 0.29578 0.0
C180 C 0.72057 0.26799 0.80095 0.0
C181 C 0.70724 0.25288 0.8068 0.0
C182 C 0.70863 0.23821 0.79492 0.0
C183 C 0.73649 0.25368 0.77212 0.0
C184 C 0.73498 0.2681 0.78366 0.0
C185 C 0.75046 0.28303 0.77552 0.0
H186 H 0.83288 0.31444 0.70772 0.0
C187 C 0.75332 0.258 0.75532 0.0
C188 C 0.76153 0.27519 0.75721 0.0
H189 H 0.80087 0.34088 0.75689 0.0
H190 H 0.77644 0.31554 0.76548 0.0
H191 H 0.78456 0.29795 0.69297 0.0
H192 H 0.83698 0.27728 0.73037 0.0
H193 H 0.82912 0.2614 0.71343 0.0
H194 H 0.842 0.28186 0.70421 0.0
H195 H 0.81194 0.29085 0.6829 0.0
H196 H 0.78695 0.27605 0.68731 0.0
C197 C 0.73469 0.29824 0.77003 0.0
C198 C 0.76878 0.2873 0.7912 0.0
C199 C 0.77205 0.21247 0.70492 0.0
C200 C 0.78672 0.21258 0.68765 0.0
C201 C 0.79988 0.22789 0.68204 0.0
C202 C 0.7985 0.24275 0.69341 0.0
C203 C 0.78375 0.24238 0.7106 0.0
C204 C 0.77075 0.22744 0.71602 0.0
C205 C 0.7557 0.22948 0.73453 0.0
C206 C 0.76178 0.24814 0.73932 0.0
C207 C 0.77833 0.25561 0.72533 0.0
C208 C 0.72972 0.22693 0.72913 0.0
C209 C 0.76374 0.21655 0.75075 0.0
C210 C 0.82045 0.31486 0.72022 0.0
C211 C 0.81911 0.3297 0.73177 0.0
C212 C 0.80273 0.32954 0.74799 0.0
C213 C 0.7884 0.31482 0.75291 0.0
C214 C 0.79032 0.30001 0.74149 0.0
C215 C 0.80591 0.30026 0.72529 0.0
C216 C 0.80511 0.28344 0.71461 0.0
C217 C 0.78678 0.27297 0.7273 0.0
C218 C 0.77829 0.28273 0.74307 0.0
C219 C 0.79689 0.28714 0.69327 0.0
C220 C 0.82956 0.27551 0.7155 0.0
H221 H 0.72341 0.22695 0.7693 0.0
H222 H 0.72015 0.27943 0.80982 0.0
H223 H 0.77471 0.27522 0.79859 0.0
H224 H 0.78491 0.29382 0.78473 0.0
H225 H 0.76128 0.29547 0.80294 0.0
H226 H 0.71743 0.29336 0.76496 0.0
H227 H 0.7313 0.30644 0.783 0.0
H228 H 0.74209 0.30648 0.75744 0.0
H229 H 0.76189 0.20092 0.70987 0.0
H230 H 0.81104 0.2285 0.66866 0.0
H231 H 0.80894 0.25396 0.68832 0.0
H232 H 0.72694 0.23199 0.71377 0.0
H233 H 0.72414 0.21299 0.72987 0.0
H234 H 0.71766 0.23418 0.73868 0.0
H235 H 0.78308 0.21537 0.74977 0.0
H236 H 0.7599 0.22074 0.766 0.0
H237 H 0.75563 0.20343 0.74903 0.0
H238 H 0.69831 0.22649 0.79888 0.0
C239 C 0.72314 0.23854 0.77765 0.0
C240 C 0.78025 0.81381 0.6865 0.0
C241 C 0.76931 0.82957 0.68962 0.0
C242 C 0.75381 0.83083 0.70625 0.0
C243 C 0.76039 0.80105 0.71629 0.0
C244 C 0.77561 0.7998 0.70001 0.0
C245 C 0.78616 0.78225 0.69918 0.0
H246 H 0.79533 0.70147 0.73972 0.0
C247 C 0.75948 0.78423 0.72746 0.0
C248 C 0.77457 0.77315 0.71753 0.0
H249 H 0.83252 0.72442 0.68764 0.0
H250 H 0.81182 0.75078 0.69151 0.0
H251 H 0.80114 0.73466 0.7661 0.0
H252 H 0.74493 0.71653 0.73046 0.0
H253 H 0.73218 0.72426 0.75244 0.0
H254 H 0.75133 0.70624 0.75381 0.0
H255 H 0.78231 0.71632 0.77359 0.0
H256 H 0.77485 0.73811 0.77944 0.0
C257 C 0.81301 0.78469 0.70098 0.0
C258 C 0.77861 0.77374 0.6798 0.0
C259 C 0.7077 0.77603 0.79037 0.0
C260 C 0.70321 0.76195 0.80392 0.0
C261 C 0.71428 0.74623 0.80052 0.0
C262 C 0.72963 0.7446 0.78402 0.0
C263 C 0.73407 0.75883 0.77071 0.0
C264 C 0.7231 0.77418 0.77396 0.0
C265 C 0.72984 0.78791 0.75821 0.0
C266 C 0.74677 0.77829 0.74505 0.0
C267 C 0.74921 0.76128 0.75246 0.0
C268 C 0.74214 0.8033 0.76837 0.0
C269 C 0.70749 0.79264 0.74724 0.0
C270 C 0.79917 0.71219 0.7292 0.0
C271 C 0.81565 0.71075 0.71333 0.0
C272 C 0.81972 0.72501 0.69984 0.0
C273 C 0.8078 0.7404 0.7022 0.0
C274 C 0.79165 0.74168 0.71829 0.0
C275 C 0.78754 0.7277 0.73143 0.0
C276 C 0.7701 0.73147 0.74786 0.0
C277 C 0.76452 0.75006 0.74248 0.0
C278 C 0.77714 0.75597 0.72512 0.0
C279 C 0.78251 0.72998 0.76788 0.0
C280 C 0.7485 0.71896 0.74629 0.0
H281 H 0.73726 0.8185 0.73186 0.0
H282 H 0.79246 0.81248 0.674 0.0
H283 H 0.76012 0.77656 0.67676 0.0
H284 H 0.77913 0.75947 0.68057 0.0
H285 H 0.78969 0.77878 0.66682 0.0
H286 H 0.81738 0.79567 0.71065 0.0
H287 H 0.82187 0.78751 0.6862 0.0
H288 H 0.82097 0.77338 0.70811 0.0
H289 H 0.69928 0.78822 0.79237 0.0
H290 H 0.71138 0.73523 0.81082 0.0
H291 H 0.73755 0.73233 0.78235 0.0
H292 H 0.75264 0.79862 0.78091 0.0
H293 H 0.72917 0.81228 0.77448 0.0
H294 H 0.75486 0.81069 0.75834 0.0
H295 H 0.6957 0.781 0.74581 0.0
H296 H 0.71123 0.79753 0.73181 0.0
H297 H 0.69747 0.80239 0.75543 0.0
H298 H 0.74494 0.84275 0.70886 0.0
C299 C 0.74926 0.81668 0.71955 0.0
C300 C 0.78883 0.21343 0.35889 0.0
C301 C 0.77562 0.19787 0.35717 0.0
C302 C 0.75962 0.19658 0.34183 0.0
C303 C 0.77024 0.22595 0.33022 0.0
C304 C 0.78577 0.22728 0.34538 0.0
C305 C 0.79801 0.24486 0.34537 0.0
H306 H 0.81587 0.32522 0.30297 0.0
C307 C 0.77125 0.24262 0.31874 0.0
C308 C 0.7874 0.2538 0.32761 0.0
H309 H 0.84752 0.30373 0.35518 0.0
H310 H 0.82556 0.2768 0.35192 0.0
H311 H 0.76378 0.31048 0.3145 0.0
H312 H 0.81918 0.29133 0.27719 0.0
H313 H 0.79294 0.28797 0.26491 0.0
H314 H 0.80276 0.30975 0.27009 0.0
H315 H 0.77171 0.32008 0.29046 0.0
H316 H 0.75075 0.30206 0.29351 0.0
C317 C 0.79125 0.2535 0.36513 0.0
C318 C 0.82461 0.24245 0.34192 0.0
C319 C 0.72222 0.24976 0.25776 0.0
C320 C 0.71952 0.26366 0.24411 0.0
C321 C 0.73207 0.27944 0.24669 0.0
C322 C 0.74714 0.28131 0.26247 0.0
C323 C 0.74975 0.26729 0.27591 0.0
C324 C 0.73731 0.25187 0.27349 0.0
C325 C 0.74206 0.23844 0.28937 0.0
C326 C 0.75958 0.24829 0.30159 0.0
C327 C 0.76404 0.26515 0.29361 0.0
C328 C 0.71883 0.23395 0.30136 0.0
C329 C 0.7531 0.22284 0.27916 0.0
C330 C 0.81791 0.31479 0.31384 0.0
C331 C 0.83353 0.31666 0.32934 0.0
C332 C 0.83587 0.3026 0.34294 0.0
C333 C 0.82298 0.28698 0.34109 0.0
C334 C 0.80752 0.28532 0.32547 0.0
C335 C 0.80515 0.29911 0.31221 0.0
C336 C 0.78789 0.29503 0.29656 0.0
C337 C 0.78027 0.27652 0.30262 0.0
C338 C 0.79186 0.27088 0.31954 0.0
C339 C 0.76747 0.30758 0.29864 0.0
C340 C 0.80117 0.29616 0.27603 0.0
H341 H 0.7445 0.20865 0.31697 0.0
H342 H 0.80103 0.21491 0.37069 0.0
H343 H 0.82784 0.23221 0.331 0.0
H344 H 0.83403 0.25416 0.33549 0.0
H345 H 0.83281 0.23849 0.35597 0.0
H346 H 0.77296 0.2497 0.37016 0.0
H347 H 0.80293 0.24956 0.37715 0.0
H348 H 0.79149 0.26779 0.36371 0.0
H349 H 0.7126 0.23755 0.25637 0.0
H350 H 0.73051 0.29028 0.23628 0.0
H351 H 0.75626 0.29361 0.26351 0.0
H352 H 0.70758 0.24538 0.30207 0.0
H353 H 0.70865 0.22338 0.29444 0.0
H354 H 0.72157 0.23026 0.31707 0.0
H355 H 0.76552 0.22736 0.26679 0.0
H356 H 0.7636 0.21499 0.28921 0.0
H357 H 0.73945 0.2143 0.2728 0.0
H358 H 0.74939 0.18468 0.34008 0.0
C359 C 0.75689 0.21049 0.32835 0.0
C360 C 0.25855 0.20875 0.69904 0.0
C361 C 0.24446 0.20832 0.68237 0.0
C362 C 0.23198 0.22312 0.67721 0.0
C363 C 0.2475 0.23824 0.70514 0.0
C364 C 0.25984 0.22378 0.71012 0.0
C365 C 0.2741 0.22638 0.72817 0.0
H366 H 0.30875 0.27809 0.80172 0.0
C367 C 0.25259 0.25164 0.71974 0.0
C368 C 0.26823 0.24477 0.73324 0.0
H369 H 0.32853 0.22564 0.79081 0.0
H370 H 0.30434 0.22496 0.76225 0.0
H371 H 0.25509 0.2718 0.79405 0.0
H372 H 0.31222 0.29171 0.75551 0.0
H373 H 0.28809 0.30458 0.75118 0.0
H374 H 0.30013 0.30376 0.77554 0.0
H375 H 0.26743 0.29334 0.79597 0.0
H376 H 0.24412 0.28862 0.77941 0.0
C377 C 0.26503 0.21303 0.74461 0.0
C378 C 0.30029 0.22496 0.72189 0.0
C379 C 0.21313 0.30955 0.71534 0.0
C380 C 0.21391 0.32427 0.72713 0.0
C381 C 0.22875 0.3245 0.74338 0.0
C382 C 0.24234 0.31029 0.74797 0.0
C383 C 0.24111 0.29559 0.73625 0.0
C384 C 0.22676 0.29542 0.72019 0.0
C385 C 0.22755 0.27861 0.70953 0.0
C386 C 0.2446 0.2687 0.72193 0.0
C387 C 0.25249 0.27874 0.73753 0.0
C388 C 0.20265 0.26993 0.71085 0.0
C389 C 0.23741 0.28258 0.68805 0.0
C390 C 0.30806 0.26653 0.79305 0.0
C391 C 0.3206 0.2519 0.79854 0.0
C392 C 0.31886 0.23701 0.78703 0.0
C393 C 0.30488 0.23667 0.77038 0.0
C394 C 0.29236 0.25136 0.76515 0.0
C395 C 0.29407 0.26595 0.77643 0.0
C396 C 0.27919 0.28022 0.76889 0.0
C397 C 0.26841 0.27184 0.75113 0.0
C398 C 0.27621 0.25495 0.749 0.0
C399 C 0.26053 0.28388 0.78538 0.0
C400 C 0.29558 0.29601 0.76253 0.0
H401 H 0.2234 0.24882 0.68382 0.0
H402 H 0.26862 0.19771 0.70327 0.0
H403 H 0.30397 0.23066 0.70665 0.0
H404 H 0.31215 0.23226 0.73142 0.0
H405 H 0.30535 0.21121 0.72183 0.0
H406 H 0.24575 0.21073 0.74402 0.0
H407 H 0.27332 0.20036 0.74283 0.0
H408 H 0.26782 0.2175 0.75978 0.0
H409 H 0.20175 0.30888 0.70287 0.0
H410 H 0.22995 0.33575 0.75253 0.0
H411 H 0.25321 0.31129 0.76055 0.0
H412 H 0.19386 0.27208 0.72554 0.0
H413 H 0.19153 0.27536 0.69919 0.0
H414 H 0.2027 0.25571 0.7097 0.0
H415 H 0.25092 0.29334 0.68771 0.0
H416 H 0.24646 0.27156 0.68162 0.0
H417 H 0.22334 0.28653 0.67811 0.0
H418 H 0.22081 0.22307 0.66457 0.0
C419 C 0.23341 0.23804 0.68848 0.0
C420 C 0.20893 0.70899 0.32256 0.0
C421 C 0.21017 0.69405 0.31119 0.0
C422 C 0.2266 0.69399 0.29501 0.0
C423 C 0.23942 0.72348 0.30133 0.0
C424 C 0.2237 0.72346 0.31743 0.0
C425 C 0.22465 0.74035 0.32796 0.0
H426 H 0.27097 0.82192 0.33382 0.0
C427 C 0.25186 0.74062 0.29978 0.0
C428 C 0.24339 0.75053 0.31542 0.0
H429 H 0.21773 0.79598 0.37258 0.0
H430 H 0.22021 0.77022 0.35345 0.0
H431 H 0.25009 0.8084 0.29316 0.0
H432 H 0.30427 0.78979 0.33011 0.0
H433 H 0.31413 0.78792 0.30528 0.0
H434 H 0.30825 0.80905 0.31453 0.0
H435 H 0.2781 0.8195 0.29439 0.0
H436 H 0.27324 0.80236 0.2773 0.0
C437 C 0.2004 0.74854 0.32667 0.0
C438 C 0.23243 0.73667 0.34943 0.0
C439 C 0.31044 0.75452 0.24231 0.0
C440 C 0.32445 0.76935 0.23671 0.0
C441 C 0.32382 0.78389 0.24884 0.0
C442 C 0.30925 0.78375 0.26607 0.0
C443 C 0.2951 0.76891 0.2713 0.0
C444 C 0.29601 0.75458 0.25958 0.0
C445 C 0.28 0.73989 0.26757 0.0
C446 C 0.26907 0.74786 0.28586 0.0
C447 C 0.27792 0.76488 0.28793 0.0
C448 C 0.26168 0.73603 0.25177 0.0
C449 C 0.29519 0.72435 0.27308 0.0
C450 C 0.25969 0.81075 0.3381 0.0
C451 C 0.24413 0.81105 0.35478 0.0
C452 C 0.23008 0.79607 0.35998 0.0
C453 C 0.23144 0.78113 0.34876 0.0
C454 C 0.24701 0.78109 0.33211 0.0
C455 C 0.26082 0.79574 0.32705 0.0
C456 C 0.27628 0.79338 0.30884 0.0
C457 C 0.26952 0.77489 0.30384 0.0
C458 C 0.25235 0.76776 0.3175 0.0
C459 C 0.26933 0.80662 0.29251 0.0
C460 C 0.30213 0.79523 0.3148 0.0
H461 H 0.25317 0.70769 0.27752 0.0
H462 H 0.19645 0.70959 0.33499 0.0
H463 H 0.24524 0.72617 0.3498 0.0
H464 H 0.24165 0.7479 0.35576 0.0
H465 H 0.21726 0.73249 0.35945 0.0
H466 H 0.19272 0.74616 0.31202 0.0
H467 H 0.18792 0.74293 0.3384 0.0
H468 H 0.20126 0.76278 0.32773 0.0
H469 H 0.31079 0.74304 0.23351 0.0
H470 H 0.33428 0.79553 0.24479 0.0
H471 H 0.30945 0.79526 0.27456 0.0
H472 H 0.2559 0.74829 0.24468 0.0
H473 H 0.26913 0.72805 0.23983 0.0
H474 H 0.24548 0.72947 0.25807 0.0
H475 H 0.31272 0.72885 0.27791 0.0
H476 H 0.28764 0.71639 0.28585 0.0
H477 H 0.29799 0.71594 0.2602 0.0
H478 H 0.22834 0.68258 0.28623 0.0
C479 C 0.24116 0.70858 0.29003 0.0
C480 C 0.05083 0.53333 0.35784 0.0
C481 C 0.05872 0.53799 0.37624 0.0
C482 C 0.0459 0.52813 0.39019 0.0
C483 C 0.0311 0.51798 0.37956 0.0
N484 N 0.03379 0.52065 0.35964 0.0
Co485 Co 0.01622 0.50836 0.33868 0.0
N486 N 0.9962 0.4948 0.35928 0.0
C487 C 0.9965 0.49625 0.37924 0.0
C488 C 0.98069 0.48526 0.38955 0.0
C489 C 0.96974 0.47613 0.37536 0.0
C490 C 0.97965 0.48205 0.35715 0.0
N491 N 0.9991 0.49568 0.31772 0.0
C492 C 0.9827 0.48253 0.31956 0.0
C493 C 0.97636 0.4767 0.30115 0.0
C494 C 0.98925 0.48646 0.28718 0.0
C495 C 0.00277 0.49756 0.29778 0.0
N496 N 0.03577 0.52231 0.31807 0.0
C497 C 0.03432 0.52169 0.29808 0.0
C498 C 0.04891 0.53349 0.28772 0.0
C499 C 0.06025 0.54234 0.3019 0.0
C500 C 0.05202 0.53528 0.3202 0.0
N501 N 0.03956 0.48992 0.33886 0.0
C502 C 0.07045 0.46223 0.33863 0.0
C503 C 0.06594 0.47153 0.32113 0.0
C504 C 0.05056 0.48515 0.32156 0.0
C505 C 0.0597 0.4674 0.35635 0.0
C506 C 0.04457 0.48121 0.35614 0.0
N507 N 0.99286 0.52679 0.33848 0.0
C508 C 0.96879 0.54641 0.3203 0.0
C509 C 0.96147 0.55413 0.33782 0.0
C510 C 0.96976 0.54768 0.35575 0.0
C511 C 0.9853 0.53412 0.35574 0.0
C512 C 0.98427 0.53287 0.32097 0.0
H513 H 0.99116 0.52993 0.36986 0.0
H514 H 0.98913 0.52763 0.30707 0.0
H515 H 0.04771 0.4915 0.30766 0.0
H516 H 0.03689 0.48441 0.37013 0.0
C517 C 0.01331 0.50685 0.38787 0.0
C518 C 0.05964 0.5417 0.33917 0.0
C519 C 0.97333 0.47471 0.33834 0.0
C520 C 0.01904 0.50987 0.28947 0.0
H521 H 0.07209 0.54771 0.37929 0.0
H522 H 0.04685 0.52862 0.40619 0.0
H523 H 0.97797 0.4837 0.40551 0.0
H524 H 0.95632 0.46599 0.3781 0.0
H525 H 0.96394 0.46631 0.29812 0.0
H526 H 0.98903 0.48542 0.27119 0.0
H527 H 0.05085 0.53557 0.27176 0.0
H528 H 0.0729 0.55297 0.29902 0.0
H529 H 0.07422 0.46835 0.30705 0.0
H530 H 0.06243 0.46058 0.37033 0.0
H531 H 0.9625 0.55071 0.30606 0.0
H532 H 0.96469 0.5533 0.36973 0.0
C533 C 0.04812 0.5414 0.71881 0.0
C534 C 0.05645 0.54679 0.73679 0.0
C535 C 0.0442 0.53729 0.75138 0.0
C536 C 0.02924 0.52664 0.74153 0.0
N537 N 0.03135 0.52859 0.72149 0.0
Co538 Co 0.01285 0.5158 0.70144 0.0
N539 N 0.99383 0.50257 0.72298 0.0
C540 C 0.9957 0.50394 0.74285 0.0
C541 C 0.98096 0.49274 0.75395 0.0
C542 C 0.96905 0.48353 0.7404 0.0
C543 C 0.97714 0.48975 0.72171 0.0
N544 N 0.99438 0.503 0.68141 0.0
C545 C 0.97753 0.49024 0.68408 0.0
C546 C 0.96921 0.48486 0.66609 0.0
C547 C 0.98156 0.4943 0.65151 0.0
C548 C 0.99655 0.50492 0.66137 0.0
N549 N 0.03187 0.52906 0.67992 0.0
C550 C 0.03003 0.52768 0.66005 0.0
C551 C 0.04484 0.53885 0.64897 0.0
C552 C 0.05675 0.54806 0.66254 0.0
C553 C 0.04854 0.54189 0.68121 0.0
N554 N 0.03603 0.49722 0.70131 0.0
C555 C 0.06758 0.46998 0.70133 0.0
C556 C 0.05965 0.47695 0.68352 0.0
C557 C 0.04409 0.49051 0.68384 0.0
C558 C 0.05965 0.47701 0.71908 0.0
C559 C 0.04402 0.49046 0.71873 0.0
N560 N 0.9897 0.53439 0.70159 0.0
C561 C 0.96606 0.55476 0.68402 0.0
C562 C 0.95868 0.56195 0.70184 0.0
C563 C 0.9667 0.55488 0.71955 0.0
C564 C 0.98194 0.54117 0.7191 0.0
C565 C 0.9815 0.54114 0.68423 0.0
H566 H 0.98733 0.53638 0.73311 0.0
H567 H 0.98676 0.53646 0.67013 0.0
H568 H 0.03875 0.49526 0.66978 0.0
H569 H 0.03849 0.49502 0.7328 0.0
C570 C 0.01239 0.51518 0.75067 0.0
C571 C 0.05631 0.54917 0.69967 0.0
C572 C 0.96922 0.48253 0.70323 0.0
C573 C 0.01337 0.51641 0.65224 0.0
H574 H 0.0698 0.55673 0.73913 0.0
H575 H 0.04572 0.53825 0.76729 0.0
H576 H 0.97951 0.49114 0.76998 0.0
H577 H 0.95623 0.47314 0.74397 0.0
H578 H 0.95578 0.47498 0.66374 0.0
H579 H 0.98003 0.49336 0.6356 0.0
H580 H 0.04637 0.54041 0.63294 0.0
H581 H 0.06966 0.5584 0.65904 0.0
H582 H 0.06552 0.47207 0.66935 0.0
H583 H 0.06506 0.4719 0.73329 0.0
H584 H 0.96042 0.55989 0.66989 0.0
H585 H 0.96116 0.55985 0.73377 0.0
C586 C 0.25734 0.98413 0.54892 0.0
C587 C 0.27885 0.97868 0.55511 0.0
C588 C 0.2956 0.98838 0.54443 0.0
C589 C 0.28345 0.99909 0.5323 0.0
N590 N 0.25991 0.99698 0.53471 0.0
Co591 Co 0.23568 0.00921 0.51927 0.0
N592 N 0.26044 0.02278 0.50276 0.0
C593 C 0.28392 0.02189 0.50408 0.0
C594 C 0.29648 0.03328 0.49143 0.0
C595 C 0.28007 0.04214 0.48154 0.0
C596 C 0.25834 0.03554 0.48871 0.0
N597 N 0.21146 0.02136 0.50376 0.0
C598 C 0.21403 0.03416 0.48951 0.0
C599 C 0.19259 0.0391 0.48266 0.0
C600 C 0.17582 0.0293 0.49323 0.0
C601 C 0.18792 0.01893 0.5058 0.0
N602 N 0.21092 0.99574 0.53586 0.0
C603 C 0.18744 0.99687 0.53481 0.0
C604 C 0.1749 0.98588 0.54796 0.0
C605 C 0.19132 0.97704 0.55788 0.0
C606 C 0.21302 0.98313 0.55009 0.0
N607 N 0.2354 0.02801 0.53875 0.0
C608 C 0.2352 0.05609 0.56456 0.0
C609 C 0.21428 0.04852 0.5583 0.0
C610 C 0.21478 0.03462 0.54554 0.0
C611 C 0.25619 0.04907 0.558 0.0
C612 C 0.25588 0.03515 0.54528 0.0
N613 N 0.23596 0.99041 0.49979 0.0
C614 C 0.21542 0.96864 0.4813 0.0
C615 C 0.23655 0.96235 0.47396 0.0
C616 C 0.25734 0.97063 0.47943 0.0
C617 C 0.25665 0.9845 0.4922 0.0
C618 C 0.21554 0.98257 0.49404 0.0
H619 H 0.27312 0.99013 0.49582 0.0
H620 H 0.19887 0.9866 0.49923 0.0
H621 H 0.19825 0.02954 0.54125 0.0
H622 H 0.27248 0.03055 0.54073 0.0
C623 C 0.29367 0.01075 0.51797 0.0
C624 C 0.23503 0.97618 0.55634 0.0
C625 C 0.23626 0.04238 0.48239 0.0
C626 C 0.17768 0.00762 0.52052 0.0
H627 H 0.28218 0.96849 0.56593 0.0
H628 H 0.31439 0.98746 0.54509 0.0
H629 H 0.31531 0.03521 0.48992 0.0
H630 H 0.28376 0.05255 0.47061 0.0
H631 H 0.1894 0.04898 0.47143 0.0
H632 H 0.15703 0.02995 0.49222 0.0
H633 H 0.15606 0.98421 0.54979 0.0
H634 H 0.18775 0.96703 0.56933 0.0
H635 H 0.19752 0.05326 0.56324 0.0
H636 H 0.27291 0.05454 0.56224 0.0
H637 H 0.19882 0.9626 0.47763 0.0
H638 H 0.27417 0.96649 0.47383 0.0
C639 C 0.4765 0.78857 0.04685 0.0
C640 C 0.46807 0.80447 0.05216 0.0
C641 C 0.48043 0.8168 0.04074 0.0
C642 C 0.49554 0.80776 0.02908 0.0
N643 N 0.49342 0.79037 0.03221 0.0
Co644 Co 0.51188 0.77235 0.01844 0.0
N645 N 0.53159 0.79059 0.00301 0.0
C646 C 0.53048 0.80798 0.00441 0.0
C647 C 0.54602 0.81718 0.99176 0.0
C648 C 0.55764 0.80496 0.98153 0.0
C649 C 0.54845 0.78894 0.98857 0.0
N650 N 0.52995 0.75433 0.0043 0.0
C651 C 0.54654 0.75616 0.98939 0.0
C652 C 0.55404 0.74023 0.98322 0.0
C653 C 0.54146 0.72787 0.9944 0.0
C654 C 0.52709 0.73691 0.0067 0.0
N655 N 0.49256 0.75413 0.03424 0.0
C656 C 0.49445 0.73674 0.03353 0.0
C657 C 0.47978 0.72754 0.04688 0.0
C658 C 0.46801 0.73976 0.05696 0.0
C659 C 0.47611 0.75579 0.04903 0.0
N660 N 0.48901 0.77199 0.99695 0.0
C661 C 0.45862 0.77124 0.9649 0.0
C662 C 0.46419 0.75599 0.97511 0.0
C663 C 0.47926 0.75666 0.99093 0.0
C664 C 0.46814 0.78691 0.97132 0.0
C665 C 0.48309 0.78699 0.98726 0.0
N666 N 0.53476 0.77271 0.03992 0.0
C667 C 0.55884 0.75758 0.06307 0.0
C668 C 0.56529 0.77308 0.07184 0.0
C669 C 0.55657 0.78844 0.06411 0.0
C670 C 0.54157 0.78797 0.04823 0.0
C671 C 0.54367 0.75768 0.0473 0.0
H672 H 0.53558 0.80013 0.04304 0.0
H673 H 0.53919 0.74541 0.04151 0.0
H674 H 0.48289 0.74457 0.99793 0.0
H675 H 0.48988 0.79934 0.99126 0.0
C676 C 0.51323 0.81527 0.01638 0.0
C677 C 0.46846 0.77221 0.05666 0.0
C678 C 0.55535 0.77261 0.98029 0.0
C679 C 0.51055 0.72943 0.02047 0.0
H680 H 0.4547 0.80691 0.06342 0.0
H681 H 0.47907 0.83072 0.0413 0.0
H682 H 0.54809 0.83112 0.98973 0.0
H683 H 0.57092 0.80756 0.96983 0.0
H684 H 0.56708 0.73782 0.97167 0.0
H685 H 0.54244 0.71395 0.99349 0.0
H686 H 0.4782 0.71361 0.0493 0.0
H687 H 0.45526 0.73712 0.06905 0.0
H688 H 0.45691 0.74353 0.97099 0.0
H689 H 0.46455 0.79909 0.96383 0.0
H690 H 0.56501 0.74532 0.06865 0.0
H691 H 0.56138 0.80082 0.0702 0.0
C692 C 0.81648 0.98875 0.55248 0.0
C693 C 0.8379 0.983 0.55847 0.0
C694 C 0.85473 0.99264 0.54779 0.0
C695 C 0.84268 0.00363 0.53588 0.0
N696 N 0.81914 0.0018 0.53852 0.0
Co697 Co 0.795 0.01428 0.52325 0.0
N698 N 0.81978 0.02799 0.50695 0.0
C699 C 0.84323 0.02741 0.50871 0.0
C700 C 0.85581 0.03913 0.49647 0.0
C701 C 0.83943 0.04793 0.48644 0.0
C702 C 0.8177 0.04093 0.49307 0.0
N703 N 0.77084 0.02625 0.50754 0.0
C704 C 0.77344 0.03877 0.49298 0.0
C705 C 0.75204 0.04315 0.48555 0.0
C706 C 0.73527 0.03335 0.49612 0.0
C707 C 0.74734 0.02348 0.50922 0.0
N708 N 0.7702 0.00104 0.54001 0.0
C709 C 0.74675 0.00258 0.53932 0.0
C710 C 0.73417 0.99181 0.55269 0.0
C711 C 0.75054 0.98274 0.5624 0.0
C712 C 0.77223 0.98848 0.55428 0.0
N713 N 0.79474 0.03306 0.54273 0.0
C714 C 0.79465 0.06105 0.56869 0.0
C715 C 0.77395 0.05477 0.56066 0.0
C716 C 0.77436 0.04086 0.54794 0.0
C717 C 0.81535 0.05281 0.56378 0.0
C718 C 0.815 0.03899 0.55088 0.0
N719 N 0.79525 0.9955 0.50377 0.0
C720 C 0.77477 0.97299 0.48639 0.0
C721 C 0.79568 0.96783 0.4774 0.0
C722 C 0.81636 0.97695 0.48165 0.0
C723 C 0.81575 0.9906 0.49477 0.0
C724 C 0.77493 0.98676 0.49931 0.0
H725 H 0.83213 0.99691 0.49748 0.0
H726 H 0.7584 0.98994 0.50569 0.0
H727 H 0.75799 0.03681 0.54231 0.0
H728 H 0.8314 0.03342 0.54763 0.0
C729 C 0.85291 0.01578 0.5221 0.0
C730 C 0.79412 0.98102 0.55997 0.0
C731 C 0.7956 0.04742 0.48632 0.0
C732 C 0.73704 0.01278 0.52449 0.0
H733 H 0.84101 0.97273 0.56926 0.0
H734 H 0.87352 0.99161 0.54842 0.0
H735 H 0.87463 0.04122 0.49522 0.0
H736 H 0.84313 0.05849 0.47572 0.0
H737 H 0.74883 0.05274 0.47399 0.0
H738 H 0.71649 0.03377 0.49484 0.0
H739 H 0.71533 0.99028 0.55462 0.0
H740 H 0.74692 0.9727 0.57381 0.0
H741 H 0.75745 0.06078 0.56378 0.0
H742 H 0.83181 0.05693 0.56987 0.0
H743 H 0.75828 0.96624 0.48385 0.0
H744 H 0.833 0.97366 0.47484 0.0
C745 C 0.48353 0.26862 0.05237 0.0
C746 C 0.4776 0.28481 0.05896 0.0
C747 C 0.49072 0.29679 0.04768 0.0
C748 C 0.50405 0.28731 0.03504 0.0
N749 N 0.50006 0.26997 0.03734 0.0
Co750 Co 0.5174 0.25144 0.02339 0.0
N751 N 0.53738 0.26914 0.0074 0.0
C752 C 0.53621 0.28658 0.00788 0.0
C753 C 0.55145 0.29536 0.99461 0.0
C754 C 0.56281 0.28278 0.9848 0.0
C755 C 0.55377 0.267 0.9927 0.0
N756 N 0.5353 0.23291 0.00998 0.0
C757 C 0.55248 0.23424 0.99551 0.0
C758 C 0.5601 0.21809 0.99029 0.0
C759 C 0.54717 0.20611 0.00176 0.0
C760 C 0.53246 0.21558 0.01328 0.0
N761 N 0.49689 0.23374 0.03884 0.0
C762 C 0.49703 0.21632 0.03732 0.0
C763 C 0.48057 0.20753 0.04948 0.0
C764 C 0.46937 0.22006 0.05953 0.0
C765 C 0.47986 0.23584 0.05301 0.0
N766 N 0.49465 0.25147 0.0018 0.0
C767 C 0.46434 0.25175 0.96967 0.0
C768 C 0.47285 0.23623 0.97722 0.0
C769 C 0.48776 0.23638 0.99317 0.0
C770 C 0.47093 0.26708 0.97878 0.0
C771 C 0.48595 0.26665 0.99466 0.0
N772 N 0.54016 0.25143 0.04498 0.0
C773 C 0.55973 0.23631 0.07126 0.0
C774 C 0.57043 0.25177 0.07712 0.0
C775 C 0.56613 0.26698 0.06628 0.0
C776 C 0.5511 0.26652 0.05044 0.0
C777 C 0.54485 0.23642 0.05526 0.0
H778 H 0.5485 0.27859 0.04295 0.0
H779 H 0.53712 0.22422 0.05166 0.0
H780 H 0.4937 0.22413 0.99808 0.0
H781 H 0.49041 0.2788 0.0008 0.0
C782 C 0.5207 0.29433 0.02106 0.0
C783 C 0.47364 0.25234 0.06131 0.0
C784 C 0.56104 0.25038 0.98549 0.0
C785 C 0.51417 0.20857 0.02569 0.0
H786 H 0.4654 0.28775 0.07093 0.0
H787 H 0.49088 0.31074 0.04884 0.0
H788 H 0.55386 0.30925 0.99224 0.0
H789 H 0.57611 0.28496 0.97302 0.0
H790 H 0.57318 0.21522 0.97895 0.0
H791 H 0.5478 0.19214 0.00122 0.0
H792 H 0.47753 0.19364 0.05125 0.0
H793 H 0.4554 0.21782 0.07071 0.0
H794 H 0.46849 0.224 0.97059 0.0
H795 H 0.46448 0.27942 0.97377 0.0
H796 H 0.56235 0.22417 0.07923 0.0
H797 H 0.57439 0.27925 0.06992 0.0
H798 H 0.20404 0.33108 0.36112 0.0
H799 H 0.18042 0.35684 0.36409 0.0
H800 H 0.16265 0.35342 0.30267 0.0
H801 H 0.18603 0.32764 0.29959 0.0
H802 H 0.18552 0.38944 0.33781 0.0
H803 H 0.0987 0.35465 0.33663 0.0
H804 H 0.12497 0.34396 0.3434 0.0
H805 H 0.12011 0.34925 0.31778 0.0
C806 C 0.19497 0.33577 0.34829 0.0
C807 C 0.19683 0.32733 0.33013 0.0
C808 C 0.18162 0.3505 0.34999 0.0
C809 C 0.1697 0.35689 0.33364 0.0
C810 C 0.1716 0.34857 0.31548 0.0
H811 H 0.07365 0.43771 0.31026 0.0
H812 H 0.09876 0.41287 0.30956 0.0
C813 C 0.18508 0.33394 0.31372 0.0
C814 C 0.15531 0.37232 0.33545 0.0
H815 H 0.09893 0.38527 0.33502 0.0
C816 C 0.16658 0.38858 0.33734 0.0
C817 C 0.13066 0.37107 0.33473 0.0
C818 C 0.11777 0.3538 0.33317 0.0
C819 C 0.15382 0.40377 0.33797 0.0
C820 C 0.1291 0.40254 0.33721 0.0
C821 C 0.11787 0.3862 0.33558 0.0
C822 C 0.1145 0.41804 0.33758 0.0
C823 C 0.167 0.421 0.33876 0.0
C824 C 0.11489 0.42919 0.35363 0.0
C825 C 0.10081 0.44362 0.35392 0.0
C826 C 0.08581 0.44707 0.33828 0.0
C827 C 0.08531 0.43571 0.32236 0.0
C828 C 0.0995 0.42139 0.32202 0.0
H829 H 0.18563 0.4201 0.33373 0.0
H830 H 0.15887 0.43104 0.32938 0.0
H831 H 0.16664 0.42531 0.35432 0.0
H832 H 0.12594 0.42667 0.36602 0.0
H833 H 0.1018 0.45213 0.36636 0.0
H834 H 0.17614 0.68552 0.73962 0.0
H835 H 0.15335 0.65845 0.73633 0.0
H836 H 0.16924 0.66031 0.67316 0.0
H837 H 0.19206 0.68747 0.67633 0.0
H838 H 0.12278 0.653 0.68214 0.0
H839 H 0.17742 0.61036 0.72735 0.0
H840 H 0.16803 0.62897 0.74033 0.0
H841 H 0.18732 0.63183 0.71864 0.0
C842 C 0.17504 0.68006 0.72506 0.0
C843 C 0.18601 0.6886 0.70825 0.0
C844 C 0.16204 0.66457 0.72321 0.0
C845 C 0.15994 0.6572 0.70455 0.0
C846 C 0.17073 0.66574 0.68771 0.0
H847 H 0.10264 0.55232 0.68858 0.0
H848 H 0.12822 0.57863 0.68835 0.0
C849 C 0.18367 0.68128 0.68954 0.0
C850 C 0.14581 0.6409 0.70254 0.0
H851 H 0.13974 0.59878 0.7195 0.0
C852 C 0.12658 0.6411 0.69019 0.0
C853 C 0.15099 0.62533 0.71282 0.0
C854 C 0.1722 0.62401 0.72537 0.0
C855 C 0.112 0.62627 0.68828 0.0
C856 C 0.11653 0.61094 0.69932 0.0
C857 C 0.13615 0.6106 0.71122 0.0
C858 C 0.10098 0.59517 0.69894 0.0
C859 C 0.09202 0.62714 0.67432 0.0
C860 C 0.0773 0.59573 0.70514 0.0
C861 C 0.06275 0.5808 0.70514 0.0
C862 C 0.07172 0.56507 0.6991 0.0
C863 C 0.09542 0.56441 0.69311 0.0
C864 C 0.10996 0.57937 0.69303 0.0
H865 H 0.09502 0.63777 0.66289 0.0
H866 H 0.08941 0.61472 0.66668 0.0
H867 H 0.07566 0.62969 0.68295 0.0
H868 H 0.07013 0.60767 0.71022 0.0
H869 H 0.04454 0.58147 0.71001 0.0
H870 H 0.79828 0.66462 0.31864 0.0
H871 H 0.82218 0.63951 0.32486 0.0
H872 H 0.88249 0.67358 0.33206 0.0
H873 H 0.85869 0.69873 0.32592 0.0
H874 H 0.86022 0.63003 0.30293 0.0
H875 H 0.88487 0.64098 0.38045 0.0
H876 H 0.86161 0.65231 0.36889 0.0
H877 H 0.89167 0.65934 0.36395 0.0
C878 C 0.81662 0.66676 0.32162 0.0
C879 C 0.8266 0.68366 0.3218 0.0
C880 C 0.83022 0.65241 0.32525 0.0
C881 C 0.85404 0.65467 0.3292 0.0
C882 C 0.86402 0.67153 0.32955 0.0
H883 H 0.96296 0.58177 0.31138 0.0
H884 H 0.9362 0.60568 0.30983 0.0
C885 C 0.8504 0.68589 0.326 0.0
C886 C 0.86876 0.63938 0.33166 0.0
H887 H 0.9064 0.61996 0.36285 0.0
C888 C 0.87018 0.62776 0.3161 0.0
C889 C 0.88152 0.63631 0.34895 0.0
C890 C 0.8797 0.6478 0.3666 0.0
C891 C 0.88448 0.61341 0.31712 0.0
C892 C 0.89807 0.61079 0.33401 0.0
C893 C 0.89616 0.62212 0.34982 0.0
C894 C 0.91458 0.59649 0.33534 0.0
C895 C 0.88477 0.6011 0.30016 0.0
C896 C 0.91172 0.58366 0.35057 0.0
C897 C 0.92702 0.56996 0.35152 0.0
C898 C 0.94551 0.56889 0.33727 0.0
C899 C 0.9486 0.582 0.32231 0.0
C900 C 0.93334 0.59569 0.32141 0.0
H901 H 0.86889 0.60212 0.29125 0.0
H902 H 0.90027 0.60434 0.29015 0.0
H903 H 0.88593 0.58747 0.3057 0.0
H904 H 0.8974 0.5841 0.36153 0.0
H905 H 0.92409 0.56002 0.36315 0.0
H906 H 0.83364 0.34378 0.69515 0.0
H907 H 0.86031 0.3689 0.68799 0.0
H908 H 0.86602 0.37632 0.75084 0.0
H909 H 0.84046 0.35079 0.75814 0.0
H910 H 0.85617 0.40253 0.69696 0.0
H911 H 0.93393 0.3768 0.73253 0.0
H912 H 0.90853 0.36328 0.72769 0.0
H913 H 0.90882 0.37637 0.74934 0.0
C914 C 0.84086 0.35058 0.70746 0.0
C915 C 0.83495 0.34517 0.72724 0.0
C916 C 0.85596 0.36502 0.70334 0.0
C917 C 0.86549 0.37431 0.71888 0.0
C918 C 0.85932 0.36913 0.7386 0.0
H919 H 0.92343 0.47939 0.7161 0.0
H920 H 0.89823 0.45294 0.71843 0.0
C921 C 0.84438 0.35465 0.74274 0.0
C922 C 0.88144 0.38967 0.71457 0.0
H923 H 0.93491 0.40734 0.72519 0.0
C924 C 0.87348 0.40353 0.70297 0.0
C925 C 0.90419 0.39085 0.7221 0.0
C926 C 0.91448 0.37595 0.73342 0.0
C927 C 0.88734 0.41876 0.69926 0.0
C928 C 0.90953 0.42033 0.70781 0.0
C929 C 0.91778 0.40624 0.71885 0.0
C930 C 0.92441 0.4365 0.70575 0.0
C931 C 0.87815 0.43292 0.68606 0.0
C932 C 0.94767 0.43598 0.69834 0.0
C933 C 0.96214 0.45098 0.6974 0.0
C934 C 0.95359 0.46672 0.70386 0.0
C935 C 0.9303 0.46733 0.71106 0.0
C936 C 0.91589 0.45229 0.71219 0.0
H937 H 0.86505 0.42768 0.67583 0.0
H938 H 0.86937 0.44249 0.69544 0.0
H939 H 0.89253 0.43977 0.67706 0.0
H940 H 0.95466 0.42394 0.69339 0.0
H941 H 0.98008 0.4503 0.6918 0.0
H942 H 0.22347 0.18364 0.37351 0.0
H943 H 0.21646 0.15862 0.39644 0.0
H944 H 0.29004 0.1482 0.39296 0.0
H945 H 0.29736 0.17356 0.37068 0.0
H946 H 0.22433 0.12448 0.38995 0.0
H947 H 0.27617 0.14711 0.4526 0.0
H948 H 0.26826 0.16144 0.43244 0.0
H949 H 0.29275 0.14766 0.42941 0.0
C950 C 0.23824 0.17621 0.3779 0.0
C951 C 0.26101 0.18067 0.37031 0.0
C952 C 0.23416 0.16184 0.39089 0.0
C953 C 0.25276 0.15168 0.39663 0.0
C954 C 0.27549 0.15604 0.38904 0.0
H955 H 0.24886 0.04592 0.44302 0.0
H956 H 0.25118 0.07271 0.42226 0.0
C957 C 0.27959 0.17043 0.3761 0.0
C958 C 0.24832 0.13615 0.40996 0.0
H959 H 0.26448 0.11708 0.45351 0.0
C960 C 0.23296 0.12291 0.40392 0.0
C961 C 0.25931 0.13424 0.42833 0.0
C962 C 0.27485 0.14844 0.4362 0.0
C963 C 0.22883 0.10757 0.41549 0.0
C964 C 0.24075 0.1053 0.43337 0.0
C965 C 0.25556 0.11876 0.43969 0.0
C966 C 0.23843 0.08897 0.44563 0.0
C967 C 0.21161 0.09402 0.40853 0.0
C968 C 0.2309 0.08928 0.46571 0.0
C969 C 0.22985 0.07405 0.47756 0.0
C970 C 0.23642 0.05835 0.46952 0.0
C971 C 0.24368 0.05796 0.44942 0.0
C972 C 0.24483 0.07319 0.43758 0.0
H973 H 0.19907 0.09973 0.39819 0.0
H974 H 0.22129 0.08405 0.40045 0.0
H975 H 0.20156 0.08752 0.42127 0.0
H976 H 0.22598 0.10132 0.47223 0.0
H977 H 0.22422 0.07455 0.49307 0.0
H978 H 0.34189 0.73712 0.8112 0.0
H979 H 0.36701 0.74026 0.83962 0.0
H980 H 0.33819 0.78992 0.85112 0.0
H981 H 0.31269 0.78677 0.82293 0.0
H982 H 0.40085 0.76839 0.84611 0.0
H983 H 0.32991 0.76178 0.90502 0.0
H984 H 0.32595 0.75483 0.87998 0.0
H985 H 0.32576 0.77745 0.88525 0.0
C986 C 0.34074 0.74864 0.81989 0.0
C987 C 0.32521 0.76165 0.8149 0.0
C988 C 0.3552 0.75046 0.83602 0.0
C989 C 0.35424 0.76522 0.84756 0.0
C990 C 0.33896 0.77833 0.84253 0.0
H991 H 0.42465 0.79381 0.95488 0.0
H992 H 0.40015 0.79318 0.92588 0.0
C993 C 0.32457 0.77657 0.82633 0.0
C994 C 0.36941 0.76694 0.86477 0.0
H995 H 0.36814 0.76808 0.91543 0.0
C996 C 0.39375 0.76832 0.86128 0.0
C997 C 0.36001 0.76694 0.88449 0.0
C998 C 0.33399 0.76505 0.88904 0.0
C999 C 0.40901 0.76982 0.87703 0.0
C1000 C 0.39965 0.76949 0.89681 0.0
C1001 C 0.37527 0.7683 0.90026 0.0
C1002 C 0.41486 0.77003 0.91415 0.0
C1003 C 0.43497 0.77203 0.8723 0.0
C1004 C 0.43106 0.75711 0.9173 0.0
C1005 C 0.44525 0.75752 0.93373 0.0
C1006 C 0.44334 0.77076 0.9475 0.0
C1007 C 0.42685 0.78357 0.94442 0.0
C1008 C 0.41271 0.78318 0.92793 0.0
H1009 H 0.43864 0.77712 0.85683 0.0
H1010 H 0.44346 0.78097 0.88268 0.0
H1011 H 0.44309 0.75924 0.87378 0.0
H1012 H 0.43267 0.74663 0.90709 0.0
H1013 H 0.4579 0.74754 0.93551 0.0
H1014 H 0.7523 0.83919 0.36653 0.0
H1015 H 0.75518 0.86547 0.38561 0.0
H1016 H 0.82788 0.85641 0.39535 0.0
H1017 H 0.82552 0.8306 0.3754 0.0
H1018 H 0.76541 0.86891 0.42403 0.0
H1019 H 0.83146 0.90648 0.37614 0.0
H1020 H 0.81667 0.88705 0.36807 0.0
H1021 H 0.84107 0.8856 0.38407 0.0
C1022 C 0.76905 0.84294 0.37239 0.0
C1023 C 0.78873 0.83281 0.36927 0.0
C1024 C 0.7706 0.85791 0.38344 0.0
C1025 C 0.79184 0.86308 0.39164 0.0
C1026 C 0.81145 0.85291 0.38879 0.0
H1027 H 0.82841 0.94281 0.47437 0.0
H1028 H 0.82786 0.91767 0.45315 0.0
C1029 C 0.80996 0.83799 0.37761 0.0
C1030 C 0.79315 0.87878 0.40376 0.0
H1031 H 0.82209 0.91795 0.40775 0.0
C1032 C 0.77772 0.87966 0.4204 0.0
C1033 C 0.80922 0.89282 0.39899 0.0
C1034 C 0.82539 0.89306 0.38074 0.0
C1035 C 0.77812 0.8941 0.43251 0.0
C1036 C 0.7943 0.90802 0.42783 0.0
C1037 C 0.80978 0.90717 0.41128 0.0
C1038 C 0.79514 0.92365 0.43991 0.0
C1039 C 0.76143 0.89435 0.45039 0.0
C1040 C 0.77711 0.93543 0.43917 0.0
C1041 C 0.77749 0.94992 0.45106 0.0
C1042 C 0.79588 0.95285 0.46401 0.0
C1043 C 0.81413 0.9411 0.46442 0.0
C1044 C 0.8138 0.92667 0.4524 0.0
H1045 H 0.75264 0.88148 0.45378 0.0
H1046 H 0.77085 0.8985 0.46366 0.0
H1047 H 0.74777 0.90387 0.44751 0.0
H1048 H 0.7627 0.93337 0.42941 0.0
H1049 H 0.76338 0.95885 0.45005 0.0
H1050 H 0.67924 0.2782 0.8208 0.0
H1051 H 0.65493 0.27739 0.85153 0.0
H1052 H 0.67644 0.22557 0.86523 0.0
H1053 H 0.70102 0.22632 0.83466 0.0
H1054 H 0.62773 0.22976 0.86984 0.0
H1055 H 0.67856 0.28028 0.90846 0.0
H1056 H 0.66971 0.28678 0.8841 0.0
H1057 H 0.69007 0.26976 0.88681 0.0
C1058 C 0.67901 0.26669 0.83045 0.0
C1059 C 0.69216 0.25234 0.8253 0.0
C1060 C 0.6651 0.26626 0.84799 0.0
C1061 C 0.66415 0.25151 0.86076 0.0
C1062 C 0.67698 0.23709 0.85557 0.0
H1063 H 0.6075 0.2439 0.9827 0.0
H1064 H 0.63269 0.24353 0.95228 0.0
C1065 C 0.69092 0.23751 0.83805 0.0
C1066 C 0.64948 0.25101 0.87939 0.0
H1067 H 0.64214 0.27061 0.92381 0.0
C1068 C 0.6309 0.23865 0.88168 0.0
C1069 C 0.65387 0.26248 0.89488 0.0
C1070 C 0.67425 0.27549 0.8936 0.0
C1071 C 0.61627 0.23766 0.89893 0.0
C1072 C 0.62021 0.2495 0.91415 0.0
C1073 C 0.63907 0.26165 0.91203 0.0
C1074 C 0.60496 0.24949 0.93243 0.0
C1075 C 0.59692 0.22383 0.90083 0.0
C1076 C 0.58116 0.25313 0.9313 0.0
C1077 C 0.56688 0.25331 0.94858 0.0
C1078 C 0.57623 0.24991 0.9672 0.0
C1079 C 0.60003 0.24643 0.9684 0.0
C1080 C 0.61433 0.24626 0.95111 0.0
H1081 H 0.59991 0.21321 0.89039 0.0
H1082 H 0.59525 0.2182 0.91622 0.0
H1083 H 0.58006 0.22968 0.89731 0.0
H1084 H 0.5737 0.25599 0.91707 0.0
H1085 H 0.54855 0.25616 0.94747 0.0
H1086 H 0.28672 0.84904 0.67023 0.0
H1087 H 0.28153 0.8743 0.6483 0.0
H1088 H 0.20811 0.86034 0.64506 0.0
H1089 H 0.21293 0.8354 0.66767 0.0
H1090 H 0.26635 0.87619 0.61014 0.0
H1091 H 0.20691 0.91073 0.66113 0.0
H1092 H 0.22327 0.89245 0.66929 0.0
H1093 H 0.19693 0.88909 0.65596 0.0
C1094 C 0.26939 0.85144 0.66507 0.0
C1095 C 0.25019 0.84027 0.67089 0.0
C1096 C 0.2665 0.86582 0.65241 0.0
C1097 C 0.24437 0.86936 0.6453 0.0
C1098 C 0.22525 0.85804 0.65068 0.0
H1099 H 0.22283 0.9432 0.54702 0.0
H1100 H 0.22381 0.91686 0.5684 0.0
C1101 C 0.22811 0.84367 0.66342 0.0
C1102 C 0.24149 0.88484 0.63213 0.0
H1103 H 0.21343 0.92304 0.62863 0.0
C1104 C 0.25475 0.88643 0.61416 0.0
C1105 C 0.22656 0.89827 0.63754 0.0
C1106 C 0.21275 0.89769 0.65711 0.0
C1107 C 0.25349 0.90108 0.60141 0.0
C1108 C 0.2382 0.91434 0.60661 0.0
C1109 C 0.22497 0.91277 0.6246 0.0
C1110 C 0.23636 0.93024 0.59392 0.0
C1111 C 0.26904 0.90243 0.58276 0.0
C1112 C 0.24226 0.94653 0.60141 0.0
C1113 C 0.24145 0.96152 0.5893 0.0
C1114 C 0.23475 0.96042 0.56955 0.0
C1115 C 0.22822 0.94423 0.5622 0.0
C1116 C 0.22893 0.92924 0.57433 0.0
H1117 H 0.28376 0.89346 0.58349 0.0
H1118 H 0.25857 0.89898 0.56983 0.0
H1119 H 0.27638 0.91585 0.58012 0.0
H1120 H 0.2479 0.94759 0.61651 0.0
H1121 H 0.24639 0.97395 0.59521 0.0
H1122 H 0.6671 0.78711 0.23797 0.0
H1123 H 0.64313 0.78704 0.20864 0.0
H1124 H 0.69359 0.75619 0.17821 0.0
H1125 H 0.71798 0.75649 0.20727 0.0
H1126 H 0.65782 0.79909 0.16853 0.0
H1127 H 0.62947 0.72938 0.17324 0.0
H1128 H 0.64093 0.74057 0.19413 0.0
H1129 H 0.66042 0.73398 0.17451 0.0
C1130 C 0.67322 0.78041 0.225 0.0
C1131 C 0.69449 0.77179 0.22501 0.0
C1132 C 0.65942 0.78031 0.20831 0.0
C1133 C 0.66649 0.77145 0.19139 0.0
C1134 C 0.68766 0.76284 0.19128 0.0
H1135 H 0.60492 0.75489 0.07716 0.0
H1136 H 0.62991 0.75492 0.1059 0.0
C1137 C 0.70153 0.763 0.20793 0.0
C1138 C 0.65197 0.77161 0.17365 0.0
H1139 H 0.61884 0.74559 0.14482 0.0
C1140 C 0.64922 0.78743 0.16334 0.0
C1141 C 0.64094 0.75633 0.16692 0.0
C1142 C 0.64287 0.73909 0.17781 0.0
C1143 C 0.63593 0.78836 0.14626 0.0
C1144 C 0.62465 0.7731 0.13963 0.0
C1145 C 0.6275 0.75727 0.14993 0.0
C1146 C 0.60963 0.77331 0.12215 0.0
C1147 C 0.63455 0.80559 0.13524 0.0
C1148 C 0.5898 0.78348 0.12184 0.0
C1149 C 0.57554 0.78352 0.10544 0.0
C1150 C 0.58069 0.77322 0.08911 0.0
C1151 C 0.60041 0.76288 0.08956 0.0
C1152 C 0.61474 0.76292 0.10593 0.0
H1153 H 0.6493 0.81462 0.13871 0.0
H1154 H 0.6347 0.80396 0.11891 0.0
H1155 H 0.618 0.81169 0.13978 0.0
H1156 H 0.58516 0.79123 0.13441 0.0
H1157 H 0.56022 0.79136 0.10571 0.0
H1158 H 0.75119 0.18954 0.67907 0.0
H1159 H 0.75376 0.16337 0.65985 0.0
H1160 H 0.82762 0.17428 0.64843 0.0
H1161 H 0.82551 0.19998 0.66854 0.0
H1162 H 0.76603 0.1599 0.62127 0.0
H1163 H 0.82749 0.12441 0.66804 0.0
H1164 H 0.81324 0.14353 0.67623 0.0
H1165 H 0.83867 0.1455 0.65962 0.0
C1166 C 0.76809 0.18623 0.67279 0.0
C1167 C 0.78819 0.19683 0.67553 0.0
C1168 C 0.76948 0.17133 0.66166 0.0
C1169 C 0.79095 0.16668 0.65299 0.0
C1170 C 0.81097 0.17737 0.65537 0.0
H1171 H 0.82788 0.08753 0.56986 0.0
H1172 H 0.82727 0.11291 0.59067 0.0
C1173 C 0.80964 0.19222 0.66664 0.0
C1174 C 0.79216 0.15093 0.64099 0.0
H1175 H 0.81932 0.11244 0.63679 0.0
C1176 C 0.7776 0.14949 0.62474 0.0
C1177 C 0.80725 0.13733 0.64555 0.0
C1178 C 0.82238 0.13764 0.66342 0.0
C1179 C 0.77791 0.13494 0.61281 0.0
C1180 C 0.79313 0.12148 0.61727 0.0
C1181 C 0.80775 0.12287 0.63343 0.0
C1182 C 0.79388 0.10577 0.60534 0.0
C1183 C 0.76217 0.13405 0.59537 0.0
C1184 C 0.77546 0.09328 0.607 0.0
C1185 C 0.77587 0.07864 0.59535 0.0
C1186 C 0.79468 0.07626 0.58173 0.0
C1187 C 0.81327 0.08877 0.58036 0.0
C1188 C 0.81291 0.10335 0.59213 0.0
H1189 H 0.7539 0.14659 0.59221 0.0
H1190 H 0.77223 0.13029 0.58185 0.0
H1191 H 0.74808 0.12397 0.5986 0.0
H1192 H 0.76074 0.09489 0.6173 0.0
H1193 H 0.76147 0.06915 0.59709 0.0
H1194 H 0.35039 0.28704 0.21745 0.0
H1195 H 0.37505 0.28474 0.18741 0.0
H1196 H 0.35999 0.2296 0.18799 0.0
H1197 H 0.33391 0.23194 0.2172 0.0
H1198 H 0.41364 0.26829 0.18035 0.0
H1199 H 0.3455 0.24223 0.13194 0.0
H1200 H 0.33854 0.25052 0.15609 0.0
H1201 H 0.34868 0.22884 0.15385 0.0
C1202 C 0.3519 0.27445 0.21101 0.0
C1203 C 0.33984 0.25972 0.21971 0.0
C1204 C 0.36624 0.27313 0.19391 0.0
C1205 C 0.36903 0.25705 0.18517 0.0
C1206 C 0.35763 0.24223 0.19412 0.0
H1207 H 0.48243 0.23957 0.09827 0.0
H1208 H 0.45706 0.23993 0.12844 0.0
C1209 C 0.343 0.24356 0.21108 0.0
C1210 C 0.38418 0.25586 0.16688 0.0
H1211 H 0.38484 0.24203 0.11921 0.0
C1212 C 0.40731 0.2626 0.16696 0.0
C1213 C 0.37583 0.24868 0.14928 0.0
C1214 C 0.35072 0.24232 0.14767 0.0
C1215 C 0.42234 0.26231 0.15001 0.0
C1216 C 0.41428 0.2545 0.13267 0.0
C1217 C 0.39111 0.24784 0.13256 0.0
C1218 C 0.42935 0.25355 0.11431 0.0
C1219 C 0.44645 0.27086 0.15074 0.0
C1220 C 0.42177 0.26032 0.09612 0.0
C1221 C 0.43598 0.2597 0.07884 0.0
C1222 C 0.45811 0.25249 0.0795 0.0
C1223 C 0.46551 0.24537 0.09754 0.0
C1224 C 0.45114 0.24573 0.11476 0.0
H1225 H 0.44721 0.28061 0.1625 0.0
H1226 H 0.45927 0.26087 0.15422 0.0
H1227 H 0.45188 0.27738 0.13627 0.0
H1228 H 0.40495 0.26627 0.09535 0.0
H1229 H 0.42986 0.26505 0.06498 0.0
H1230 H 0.82839 0.69477 0.67892 0.0
H1231 H 0.85131 0.6688 0.6755 0.0
H1232 H 0.85563 0.66415 0.73919 0.0
H1233 H 0.83333 0.69032 0.7428 0.0
H1234 H 0.89787 0.66386 0.69046 0.0
H1235 H 0.83116 0.61538 0.72188 0.0
H1236 H 0.82371 0.63665 0.71272 0.0
H1237 H 0.83616 0.63404 0.73666 0.0
C1238 C 0.83432 0.6883 0.69221 0.0
C1239 C 0.82894 0.69465 0.71114 0.0
C1240 C 0.84728 0.6734 0.69022 0.0
C1241 C 0.85488 0.66447 0.7071 0.0
C1242 C 0.84953 0.6707 0.726 0.0
H1243 H 0.96279 0.59112 0.72349 0.0
H1244 H 0.93723 0.61586 0.7237 0.0
C1245 C 0.83671 0.68564 0.72802 0.0
C1246 C 0.86919 0.649 0.70499 0.0
H1247 H 0.86977 0.60563 0.7165 0.0
C1248 C 0.8917 0.6511 0.69603 0.0
C1249 C 0.86097 0.63237 0.71213 0.0
C1250 C 0.8366 0.62935 0.72125 0.0
C1251 C 0.90651 0.63706 0.69454 0.0
C1252 C 0.89857 0.62056 0.70227 0.0
C1253 C 0.87582 0.61834 0.71071 0.0
C1254 C 0.91389 0.60554 0.7021 0.0
C1255 C 0.93056 0.63993 0.68475 0.0
C1256 C 0.90899 0.59147 0.69008 0.0
C1257 C 0.92357 0.57731 0.68991 0.0
C1258 C 0.9431 0.57691 0.70198 0.0
C1259 C 0.94777 0.59098 0.71417 0.0
C1260 C 0.93331 0.60517 0.71419 0.0
H1261 H 0.93224 0.65241 0.67603 0.0
H1262 H 0.94381 0.64016 0.69636 0.0
H1263 H 0.9346 0.6292 0.67473 0.0
H1264 H 0.89398 0.59151 0.68074 0.0
H1265 H 0.91941 0.56659 0.68052 0.0
H1266 H 0.87952 0.32072 0.33884 0.0
H1267 H 0.90247 0.34781 0.34169 0.0
H1268 H 0.84252 0.3769 0.32607 0.0
H1269 H 0.81919 0.34991 0.3239 0.0
H1270 H 0.91267 0.37322 0.31237 0.0
H1271 H 0.86357 0.40033 0.37615 0.0
H1272 H 0.86019 0.37791 0.36961 0.0
H1273 H 0.84568 0.39446 0.3559 0.0
C1274 C 0.87109 0.33288 0.33634 0.0
C1275 C 0.84747 0.33313 0.33124 0.0
C1276 C 0.88428 0.34835 0.33783 0.0
C1277 C 0.87411 0.36437 0.33437 0.0
C1278 C 0.85059 0.36469 0.32919 0.0
H1279 H 0.92746 0.47138 0.32912 0.0
H1280 H 0.90326 0.44443 0.32817 0.0
C1281 C 0.83737 0.34924 0.32771 0.0
C1282 C 0.88839 0.38071 0.33547 0.0
H1283 H 0.89216 0.41907 0.35923 0.0
C1284 C 0.90827 0.38321 0.32268 0.0
C1285 C 0.88255 0.39373 0.34891 0.0
C1286 C 0.86196 0.39146 0.36356 0.0
C1287 C 0.92228 0.39851 0.32275 0.0
C1288 C 0.91645 0.41152 0.33618 0.0
C1289 C 0.89656 0.40906 0.34894 0.0
C1290 C 0.93086 0.42778 0.33721 0.0
C1291 C 0.94295 0.40077 0.30817 0.0
C1292 C 0.95419 0.42732 0.34294 0.0
C1293 C 0.96792 0.44263 0.34347 0.0
C1294 C 0.95846 0.45858 0.33834 0.0
C1295 C 0.93501 0.45913 0.33302 0.0
C1296 C 0.92127 0.44381 0.33251 0.0
H1297 H 0.94168 0.39166 0.29579 0.0
H1298 H 0.94441 0.41424 0.30181 0.0
H1299 H 0.95926 0.3982 0.31599 0.0
H1300 H 0.96178 0.41511 0.34697 0.0
H1301 H 0.98596 0.44204 0.34772 0.0
H1302 H 0.20551 0.33946 0.69085 0.0
H1303 H 0.18083 0.3641 0.684 0.0
H1304 H 0.16424 0.36749 0.74671 0.0
H1305 H 0.18844 0.34271 0.75365 0.0
H1306 H 0.12484 0.3686 0.72168 0.0
H1307 H 0.19697 0.41549 0.69663 0.0
H1308 H 0.19624 0.39503 0.68461 0.0
H1309 H 0.20207 0.39571 0.71058 0.0
C1310 C 0.1965 0.34541 0.70316 0.0
C1311 C 0.19903 0.3392 0.72281 0.0
C1312 C 0.18259 0.35956 0.69923 0.0
C1313 C 0.17097 0.36772 0.71487 0.0
C1314 C 0.17321 0.36142 0.73445 0.0
H1315 H 0.1057 0.46577 0.7241 0.0
H1316 H 0.13062 0.44072 0.72598 0.0
C1317 C 0.18716 0.34735 0.73839 0.0
C1318 C 0.15619 0.38271 0.71095 0.0
H1319 H 0.15838 0.42523 0.69514 0.0
C1320 C 0.13212 0.38097 0.71577 0.0
C1321 C 0.16583 0.39883 0.70342 0.0
C1322 C 0.19172 0.40153 0.69862 0.0
C1323 C 0.11739 0.39496 0.71333 0.0
C1324 C 0.12701 0.41107 0.70571 0.0
C1325 C 0.15107 0.41281 0.70083 0.0
C1326 C 0.11252 0.42649 0.70368 0.0
C1327 C 0.09179 0.39258 0.71946 0.0
C1328 C 0.09436 0.42688 0.69025 0.0
C1329 C 0.08004 0.44116 0.68917 0.0
C1330 C 0.08364 0.45528 0.70153 0.0
C1331 C 0.10226 0.45499 0.7146 0.0
C1332 C 0.1166 0.44076 0.7156 0.0
H1333 H 0.08813 0.38049 0.72862 0.0
H1334 H 0.08585 0.40375 0.72804 0.0
H1335 H 0.0813 0.39185 0.70596 0.0
H1336 H 0.09112 0.41607 0.68076 0.0
H1337 H 0.06578 0.44094 0.67905 0.0
H1338 H 0.18853 0.67284 0.2851 0.0
H1339 H 0.16286 0.64742 0.29275 0.0
H1340 H 0.16904 0.65526 0.35547 0.0
H1341 H 0.19577 0.68029 0.34797 0.0
H1342 H 0.17311 0.62148 0.34664 0.0
H1343 H 0.09501 0.64723 0.31159 0.0
H1344 H 0.11999 0.6476 0.29464 0.0
H1345 H 0.1205 0.66074 0.31624 0.0
C1346 C 0.18467 0.6691 0.30054 0.0
C1347 C 0.19424 0.67866 0.31592 0.0
C1348 C 0.16968 0.65468 0.30489 0.0
C1349 C 0.16363 0.64964 0.32468 0.0
C1350 C 0.1733 0.65902 0.34009 0.0
H1351 H 0.04902 0.5736 0.35188 0.0
H1352 H 0.07453 0.59991 0.35092 0.0
C1353 C 0.18843 0.67341 0.33576 0.0
C1354 C 0.14767 0.63433 0.32921 0.0
H1355 H 0.09402 0.61671 0.31906 0.0
C1356 C 0.15572 0.62049 0.34077 0.0
C1357 C 0.12481 0.63318 0.32188 0.0
C1358 C 0.11446 0.64806 0.31058 0.0
C1359 C 0.14186 0.60527 0.34461 0.0
C1360 C 0.11957 0.60372 0.33625 0.0
C1361 C 0.11121 0.6178 0.32527 0.0
C1362 C 0.10476 0.58751 0.33828 0.0
C1363 C 0.15118 0.5911 0.35771 0.0
C1364 C 0.11327 0.5718 0.33157 0.0
C1365 C 0.0988 0.5568 0.33233 0.0
C1366 C 0.07549 0.55734 0.33947 0.0
C1367 C 0.06699 0.57296 0.34635 0.0
C1368 C 0.08151 0.58793 0.34575 0.0
H1369 H 0.16435 0.59633 0.36788 0.0
H1370 H 0.13689 0.5842 0.36676 0.0
H1371 H 0.15993 0.58157 0.34824 0.0
H1372 H 0.13092 0.57123 0.32528 0.0
H1373 H 0.10561 0.54484 0.32693 0.0
H1374 H 0.77135 0.82993 0.64893 0.0
H1375 H 0.77787 0.85513 0.62601 0.0
H1376 H 0.78379 0.88849 0.67583 0.0
H1377 H 0.77761 0.86339 0.6988 0.0
H1378 H 0.74949 0.88548 0.62514 0.0
H1379 H 0.84272 0.90145 0.63945 0.0
H1380 H 0.82898 0.88045 0.6457 0.0
H1381 H 0.8237 0.89846 0.66126 0.0
C1382 C 0.77435 0.84261 0.65498 0.0
C1383 C 0.77397 0.84469 0.67567 0.0
C1384 C 0.77796 0.85697 0.64189 0.0
C1385 C 0.78155 0.87361 0.64925 0.0
C1386 C 0.78136 0.87572 0.66986 0.0
H1387 H 0.79974 0.97831 0.59986 0.0
H1388 H 0.79684 0.95177 0.62116 0.0
C1389 C 0.77761 0.8614 0.68295 0.0
C1390 C 0.78446 0.88891 0.63543 0.0
H1391 H 0.82271 0.92212 0.62029 0.0
C1392 C 0.76554 0.89343 0.62393 0.0
C1393 C 0.80539 0.89926 0.63402 0.0
C1394 C 0.82647 0.89464 0.64562 0.0
C1395 C 0.76676 0.90834 0.61138 0.0
C1396 C 0.78769 0.91875 0.60999 0.0
C1397 C 0.80669 0.91412 0.62138 0.0
C1398 C 0.79007 0.93466 0.59702 0.0
C1399 C 0.74538 0.9131 0.60024 0.0
C1400 C 0.78764 0.93377 0.57639 0.0
C1401 C 0.78919 0.94887 0.56433 0.0
C1402 C 0.79348 0.965 0.5727 0.0
C1403 C 0.79644 0.96591 0.59321 0.0
C1404 C 0.7948 0.95082 0.6053 0.0
H1405 H 0.72919 0.90654 0.6069 0.0
H1406 H 0.74311 0.92732 0.6 0.0
H1407 H 0.74746 0.90901 0.58465 0.0
H1408 H 0.78449 0.92141 0.56964 0.0
H1409 H 0.78695 0.94799 0.54848 0.0
H1410 H 0.71502 0.23613 0.21976 0.0
H1411 H 0.68992 0.23341 0.19126 0.0
H1412 H 0.66337 0.28398 0.20183 0.0
H1413 H 0.68843 0.28681 0.23026 0.0
H1414 H 0.64182 0.23421 0.18899 0.0
H1415 H 0.68493 0.28833 0.14359 0.0
H1416 H 0.69775 0.27917 0.16544 0.0
H1417 H 0.67503 0.29455 0.16784 0.0
C1418 C 0.70373 0.24662 0.21607 0.0
C1419 C 0.70384 0.26175 0.22716 0.0
C1420 C 0.68948 0.24508 0.19975 0.0
C1421 C 0.67512 0.25863 0.19419 0.0
C1422 C 0.67477 0.27356 0.20553 0.0
H1423 H 0.57297 0.27633 0.10547 0.0
H1424 H 0.5985 0.27723 0.13373 0.0
C1425 C 0.68908 0.27515 0.22178 0.0
C1426 C 0.66032 0.2571 0.17667 0.0
H1427 H 0.64893 0.27677 0.1321 0.0
C1428 C 0.64347 0.24343 0.17648 0.0
C1429 C 0.66259 0.26912 0.16033 0.0
C1430 C 0.6812 0.28352 0.15916 0.0
C1431 C 0.62837 0.24174 0.16062 0.0
C1432 C 0.63039 0.25394 0.14448 0.0
C1433 C 0.64739 0.26749 0.14457 0.0
C1434 C 0.61478 0.25307 0.12747 0.0
C1435 C 0.60999 0.22719 0.16146 0.0
C1436 C 0.61565 0.23924 0.11449 0.0
C1437 C 0.60123 0.23876 0.09818 0.0
C1438 C 0.58572 0.25213 0.09452 0.0
C1439 C 0.58494 0.26595 0.10763 0.0
C1440 C 0.5994 0.26644 0.12387 0.0
H1441 H 0.60759 0.22111 0.17661 0.0
H1442 H 0.59291 0.23196 0.15673 0.0
H1443 H 0.61539 0.21705 0.1511 0.0
H1444 H 0.62771 0.22895 0.11683 0.0
H1445 H 0.60255 0.22806 0.08824 0.0
H1446 H 0.24506 0.20642 0.64184 0.0
H1447 H 0.24222 0.18036 0.62218 0.0
H1448 H 0.23797 0.14847 0.67604 0.0
H1449 H 0.24027 0.17447 0.69583 0.0
H1450 H 0.27268 0.15214 0.62225 0.0
H1451 H 0.18123 0.13132 0.64476 0.0
H1452 H 0.193 0.15293 0.6485 0.0
H1453 H 0.20011 0.13531 0.66498 0.0
C1454 C 0.24323 0.19387 0.64951 0.0
C1455 C 0.24278 0.19252 0.6704 0.0
C1456 C 0.24176 0.179 0.63826 0.0
C1457 C 0.2396 0.16252 0.64767 0.0
C1458 C 0.23927 0.16109 0.6685 0.0
H1459 H 0.26356 0.06297 0.59554 0.0
H1460 H 0.26463 0.08878 0.61564 0.0
C1461 C 0.24083 0.17595 0.67977 0.0
C1462 C 0.2383 0.14681 0.63566 0.0
H1463 H 0.20305 0.11174 0.62571 0.0
C1464 C 0.25746 0.14331 0.62297 0.0
C1465 C 0.21831 0.13543 0.6365 0.0
C1466 C 0.19688 0.13895 0.64928 0.0
C1467 C 0.25731 0.12858 0.6113 0.0
C1468 C 0.23756 0.11698 0.61252 0.0
C1469 C 0.21825 0.1206 0.62497 0.0
C1470 C 0.23652 0.10114 0.60071 0.0
C1471 C 0.27813 0.12567 0.59753 0.0
C1472 C 0.22 0.09938 0.58598 0.0
C1473 C 0.21939 0.08468 0.57439 0.0
C1474 C 0.23522 0.0714 0.57743 0.0
C1475 C 0.25142 0.07308 0.59254 0.0
C1476 C 0.25203 0.0878 0.60407 0.0
H1477 H 0.28942 0.13761 0.59505 0.0
H1478 H 0.28886 0.11547 0.60419 0.0
H1479 H 0.27238 0.1212 0.58293 0.0
H1480 H 0.20785 0.10954 0.58318 0.0
H1481 H 0.20688 0.08393 0.56275 0.0
H1482 H 0.36961 0.78211 0.23114 0.0
H1483 H 0.39393 0.78314 0.20034 0.0
H1484 H 0.33767 0.75827 0.16976 0.0
H1485 H 0.31309 0.75749 0.20036 0.0
H1486 H 0.40695 0.75429 0.17666 0.0
H1487 H 0.35607 0.80227 0.13478 0.0
H1488 H 0.35329 0.7993 0.16149 0.0
H1489 H 0.33923 0.78407 0.14578 0.0
C1490 C 0.36235 0.77701 0.21781 0.0
C1491 C 0.3394 0.76978 0.21816 0.0
C1492 C 0.3763 0.77753 0.20027 0.0
C1493 C 0.36747 0.77098 0.18275 0.0
C1494 C 0.34467 0.76362 0.18308 0.0
H1495 H 0.4223 0.76239 0.06165 0.0
H1496 H 0.39799 0.76194 0.09258 0.0
C1497 C 0.33075 0.76302 0.20061 0.0
C1498 C 0.38227 0.77156 0.1642 0.0
H1499 H 0.38635 0.78876 0.1168 0.0
C1500 C 0.40255 0.76188 0.16359 0.0
C1501 C 0.37637 0.78143 0.14719 0.0
C1502 C 0.35516 0.79249 0.14728 0.0
C1503 C 0.41691 0.76153 0.14623 0.0
C1504 C 0.41107 0.77146 0.12921 0.0
C1505 C 0.39079 0.78116 0.12986 0.0
C1506 C 0.42572 0.7719 0.11055 0.0
C1507 C 0.43785 0.75019 0.14614 0.0
C1508 C 0.44921 0.77792 0.11035 0.0
C1509 C 0.46304 0.77807 0.09279 0.0
C1510 C 0.45354 0.77234 0.07516 0.0
C1511 C 0.42993 0.76672 0.07519 0.0
C1512 C 0.41611 0.7665 0.09278 0.0
H1513 H 0.43625 0.74 0.15818 0.0
H1514 H 0.44016 0.74384 0.13167 0.0
H1515 H 0.45385 0.7583 0.14852 0.0
H1516 H 0.45682 0.78254 0.12377 0.0
H1517 H 0.48119 0.78259 0.09295 0.0
H1518 H 0.7412 0.17736 0.37609 0.0
H1519 H 0.74582 0.15243 0.39875 0.0
H1520 H 0.82093 0.15955 0.39235 0.0
H1521 H 0.81639 0.18469 0.36992 0.0
H1522 H 0.76622 0.12241 0.39189 0.0
H1523 H 0.81165 0.15568 0.45201 0.0
H1524 H 0.79774 0.16735 0.43234 0.0
H1525 H 0.82637 0.15895 0.42811 0.0
C1526 C 0.7587 0.17362 0.37955 0.0
C1527 C 0.77844 0.183 0.37128 0.0
C1528 C 0.76132 0.15941 0.39254 0.0
C1529 C 0.78371 0.15426 0.39749 0.0
C1530 C 0.80347 0.16354 0.38917 0.0
H1531 H 0.81098 0.05153 0.44755 0.0
H1532 H 0.80914 0.07758 0.42582 0.0
C1533 C 0.80086 0.17787 0.37631 0.0
C1534 C 0.78628 0.13877 0.41076 0.0
H1535 H 0.81013 0.12484 0.45392 0.0
C1536 C 0.77577 0.12295 0.40548 0.0
C1537 C 0.7985 0.13953 0.42862 0.0
C1538 C 0.80901 0.15632 0.43574 0.0
C1539 C 0.77724 0.10786 0.41748 0.0
C1540 C 0.79014 0.10849 0.43498 0.0
C1541 C 0.8005 0.12433 0.44036 0.0
C1542 C 0.79244 0.09297 0.44824 0.0
C1543 C 0.76446 0.09151 0.41152 0.0
C1544 C 0.78451 0.09318 0.46822 0.0
C1545 C 0.78594 0.07845 0.48066 0.0
C1546 C 0.79537 0.0633 0.47331 0.0
C1547 C 0.80368 0.06314 0.45346 0.0
C1548 C 0.80243 0.07792 0.44105 0.0
H1549 H 0.75036 0.09435 0.40111 0.0
H1550 H 0.77701 0.0831 0.40386 0.0
H1551 H 0.75657 0.08418 0.42472 0.0
H1552 H 0.77682 0.10466 0.47411 0.0
H1553 H 0.77943 0.07879 0.49596 0.0
H1554 H 0.32361 0.22645 0.82741 0.0
H1555 H 0.3476 0.22688 0.85673 0.0
H1556 H 0.37493 0.27805 0.83892 0.0
H1557 H 0.35082 0.27777 0.80967 0.0
H1558 H 0.39504 0.22986 0.8592 0.0
H1559 H 0.35371 0.28485 0.89609 0.0
H1560 H 0.34083 0.27416 0.87549 0.0
H1561 H 0.36442 0.29005 0.87114 0.0
C1562 C 0.33478 0.23777 0.82972 0.0
C1563 C 0.33525 0.25211 0.81628 0.0
C1564 C 0.34841 0.23803 0.84651 0.0
C1565 C 0.36275 0.25261 0.85021 0.0
C1566 C 0.36352 0.26684 0.83666 0.0
H1567 H 0.46478 0.27569 0.93865 0.0
H1568 H 0.43995 0.27579 0.90987 0.0
C1569 C 0.34979 0.26665 0.81992 0.0
C1570 C 0.37735 0.2527 0.86797 0.0
H1571 H 0.38862 0.27481 0.90991 0.0
C1572 C 0.39354 0.23963 0.87034 0.0
C1573 C 0.37536 0.26547 0.8825 0.0
C1574 C 0.3575 0.27933 0.88133 0.0
C1575 C 0.40806 0.23913 0.88668 0.0
C1576 C 0.40617 0.25195 0.9011 0.0
C1577 C 0.39003 0.26503 0.89876 0.0
C1578 C 0.42081 0.25197 0.91876 0.0
C1579 C 0.42561 0.22508 0.88825 0.0
C1580 C 0.41799 0.23866 0.93342 0.0
C1581 C 0.43196 0.23865 0.95001 0.0
C1582 C 0.44904 0.25196 0.95226 0.0
C1583 C 0.45161 0.26536 0.93758 0.0
C1584 C 0.43754 0.2654 0.92104 0.0
H1585 H 0.42824 0.21843 0.87399 0.0
H1586 H 0.44277 0.23051 0.89279 0.0
H1587 H 0.41924 0.21525 0.89977 0.0
H1588 H 0.40487 0.22833 0.93207 0.0
H1589 H 0.42919 0.2283 0.96118 0.0
H1590 H 0.24004 0.81313 0.3953 0.0
H1591 H 0.2375 0.83926 0.41474 0.0
H1592 H 0.24243 0.87093 0.36072 0.0
H1593 H 0.2447 0.84488 0.34113 0.0
H1594 H 0.27256 0.88216 0.39008 0.0
H1595 H 0.18146 0.87096 0.42043 0.0
H1596 H 0.20014 0.85307 0.42445 0.0
H1597 H 0.19308 0.85945 0.39955 0.0
C1598 C 0.24026 0.82564 0.38753 0.0
C1599 C 0.24249 0.8269 0.36665 0.0
C1600 C 0.23882 0.84055 0.39867 0.0
C1601 C 0.23946 0.857 0.38915 0.0
C1602 C 0.24184 0.85834 0.36834 0.0
H1603 H 0.20735 0.95455 0.4438 0.0
H1604 H 0.20806 0.9293 0.42275 0.0
C1605 C 0.24326 0.84344 0.35719 0.0
C1606 C 0.23834 0.87285 0.40092 0.0
H1607 H 0.20394 0.89375 0.43432 0.0
C1608 C 0.25753 0.88474 0.39969 0.0
C1609 C 0.21858 0.87628 0.41325 0.0
C1610 C 0.19703 0.86437 0.41442 0.0
C1611 C 0.25771 0.8998 0.41082 0.0
C1612 C 0.2383 0.90292 0.42368 0.0
C1613 C 0.21888 0.89123 0.42457 0.0
C1614 C 0.2379 0.91817 0.43646 0.0
C1615 C 0.27858 0.91234 0.40858 0.0
C1616 C 0.25425 0.92014 0.45131 0.0
C1617 C 0.25382 0.93448 0.46342 0.0
C1618 C 0.23696 0.94712 0.46099 0.0
C1619 C 0.22044 0.945 0.4462 0.0
C1620 C 0.22088 0.93063 0.4341 0.0
H1621 H 0.28903 0.9104 0.39464 0.0
H1622 H 0.273 0.92596 0.40863 0.0
H1623 H 0.29011 0.91028 0.42127 0.0
H1624 H 0.26721 0.91048 0.45366 0.0
H1625 H 0.26648 0.93551 0.47492 0.0
H1626 H 0.67025 0.73822 0.81965 0.0
H1627 H 0.64464 0.74084 0.84926 0.0
H1628 H 0.67438 0.79202 0.8579 0.0
H1629 H 0.70019 0.78947 0.82842 0.0
H1630 H 0.6577 0.74629 0.88826 0.0
H1631 H 0.60352 0.79934 0.86015 0.0
H1632 H 0.62184 0.78694 0.84394 0.0
H1633 H 0.63455 0.80397 0.85808 0.0
C1634 C 0.67141 0.75001 0.82789 0.0
C1635 C 0.68724 0.76365 0.82164 0.0
C1636 C 0.65669 0.75151 0.84474 0.0
C1637 C 0.6574 0.7667 0.85561 0.0
C1638 C 0.67319 0.78033 0.84947 0.0
H1639 H 0.6026 0.77825 0.97673 0.0
H1640 H 0.6277 0.77712 0.94635 0.0
C1641 C 0.68793 0.77885 0.83261 0.0
C1642 C 0.64215 0.76803 0.87374 0.0
H1643 H 0.59841 0.79134 0.89444 0.0
C1644 C 0.64471 0.75612 0.88962 0.0
C1645 C 0.62507 0.78076 0.87536 0.0
C1646 C 0.62086 0.7934 0.85843 0.0
C1647 C 0.63083 0.75672 0.9072 0.0
C1648 C 0.61418 0.76973 0.90902 0.0
C1649 C 0.61138 0.7815 0.89305 0.0
C1650 C 0.59912 0.77105 0.92725 0.0
C1651 C 0.6338 0.74326 0.92356 0.0
C1652 C 0.57475 0.76843 0.92643 0.0
C1653 C 0.56051 0.76914 0.94369 0.0
C1654 C 0.57044 0.77263 0.96192 0.0
C1655 C 0.59472 0.77555 0.96273 0.0
C1656 C 0.60898 0.77481 0.94547 0.0
H1657 H 0.64328 0.73193 0.91811 0.0
H1658 H 0.64407 0.74911 0.93547 0.0
H1659 H 0.61654 0.73862 0.93022 0.0
H1660 H 0.56682 0.76555 0.9125 0.0
H1661 H 0.54178 0.76683 0.94287 0.0
loop_
_geom_bond_atom_site_label_1
_geom_bond_atom_site_label_2
_geom_bond_distance
_geom_bond_site_symmetry_2
_ccdc_geom_bond_type
C0 C1 1.391 . S
C0 C4 1.391 . S
C0 H42 0.948 . S
C1 C0 1.391 . S
C1 C2 1.391 . S
C2 C1 1.391 . S
C2 H58 0.947 . S
C2 C59 1.392 . S
C3 C4 1.391 . S
C3 C7 1.397 . S
C3 C59 1.419 . S
C4 C0 1.391 . S
C4 C3 1.391 . S
C4 C5 1.399 . S
C5 C4 1.399 . S
C5 C8 1.396 . S
C5 C17 1.453 . S
C5 C18 1.684 . S
H6 C30 0.948 . S
C7 C3 1.397 . S
C7 C8 1.394 . S
C7 C26 1.723 . S
C8 C5 1.396 . S
C8 C7 1.394 . S
C8 C38 1.723 . S
H9 C32 0.947 . S
H10 C33 0.948 . S
H11 C39 0.982 . S
H12 C40 0.979 . S
H13 C40 0.980 . S
H14 C40 0.983 . S
H15 C39 0.979 . S
H16 C39 0.977 . S
C17 C5 1.453 . S
C17 H46 0.982 . S
C17 H47 0.979 . S
C17 H48 0.977 . S
C18 C5 1.684 . S
C18 H43 0.979 . S
C18 H44 0.980 . S
C18 H45 0.983 . S
C19 C20 1.391 . S
C19 C24 1.391 . S
C19 H49 0.948 . S
C20 C19 1.391 . S
C20 C21 1.391 . S
C21 C20 1.391 . S
C21 C22 1.392 . S
C21 H50 0.947 . S
C22 C21 1.392 . S
C22 C23 1.419 . S
C22 H51 0.948 . S
C23 C22 1.419 . S
C23 C24 1.391 . S
C23 C27 1.397 . S
C24 C19 1.391 . S
C24 C23 1.391 . S
C24 C25 1.399 . S
C25 C24 1.399 . S
C25 C26 1.396 . S
C25 C28 1.453 . S
C25 C29 1.684 . S
C26 C7 1.723 . S
C26 C25 1.396 . S
C26 C27 1.394 . S
C27 C23 1.397 . S
C27 C26 1.394 . S
C27 C37 1.723 . S
C28 C25 1.453 . S
C28 H52 0.982 . S
C28 H53 0.979 . S
C28 H54 0.977 . S
C29 C25 1.684 . S
C29 H55 0.979 . S
C29 H56 0.980 . S
C29 H57 0.983 . S
C30 H6 0.948 . S
C30 C31 1.391 . S
C30 C35 1.391 . S
C31 C30 1.391 . S
C31 C32 1.391 . S
C32 H9 0.947 . S
C32 C31 1.391 . S
C32 C33 1.392 . S
C33 H10 0.948 . S
C33 C32 1.392 . S
C33 C34 1.419 . S
C34 C33 1.419 . S
C34 C35 1.391 . S
C34 C38 1.397 . S
C35 C30 1.391 . S
C35 C34 1.391 . S
C35 C36 1.399 . S
C36 C35 1.399 . S
C36 C37 1.396 . S
C36 C39 1.453 . S
C36 C40 1.684 . S
C37 C27 1.723 . S
C37 C36 1.396 . S
C37 C38 1.394 . S
C38 C8 1.723 . S
C38 C34 1.397 . S
C38 C37 1.394 . S
C39 H11 0.982 . S
C39 H15 0.979 . S
C39 H16 0.977 . S
C39 C36 1.453 . S
C40 H12 0.979 . S
C40 H13 0.980 . S
C40 H14 0.983 . S
C40 C36 1.684 . S
H41 C59 0.948 . S
H42 C0 0.948 . S
H43 C18 0.979 . S
H44 C18 0.980 . S
H45 C18 0.983 . S
H46 C17 0.982 . S
H47 C17 0.979 . S
H48 C17 0.977 . S
H49 C19 0.948 . S
H50 C21 0.947 . S
H51 C22 0.948 . S
H52 C28 0.982 . S
H53 C28 0.979 . S
H54 C28 0.977 . S
H55 C29 0.979 . S
H56 C29 0.980 . S
H57 C29 0.983 . S
H58 C2 0.947 . S
C59 C2 1.392 . S
C59 C3 1.419 . S
C59 H41 0.948 . S
C60 C61 1.391 . S
C60 C64 1.391 . S
C60 H102 0.948 . S
C61 C60 1.391 . S
C61 C62 1.391 . S
C62 C61 1.391 . S
C62 H118 0.947 . S
C62 C119 1.392 . S
C63 C64 1.391 . S
C63 C67 1.397 . S
C63 C119 1.419 . S
C64 C60 1.391 . S
C64 C63 1.391 . S
C64 C65 1.399 . S
C65 C64 1.399 . S
C65 C68 1.396 . S
C65 C77 1.453 . S
C65 C78 1.684 . S
H66 C90 0.948 . S
C67 C63 1.397 . S
C67 C68 1.394 . S
C67 C86 1.723 . S
C68 C65 1.396 . S
C68 C67 1.394 . S
C68 C98 1.723 . S
H69 C92 0.947 . S
H70 C93 0.948 . S
H71 C99 0.982 . S
H72 C100 0.979 . S
H73 C100 0.980 . S
H74 C100 0.983 . S
H75 C99 0.979 . S
H76 C99 0.977 . S
C77 C65 1.453 . S
C77 H106 0.982 . S
C77 H107 0.979 . S
C77 H108 0.977 . S
C78 C65 1.684 . S
C78 H103 0.979 . S
C78 H104 0.980 . S
C78 H105 0.983 . S
C79 C80 1.391 . S
C79 C84 1.391 . S
C79 H109 0.948 . S
C80 C79 1.391 . S
C80 C81 1.391 . S
C81 C80 1.391 . S
C81 C82 1.392 . S
C81 H110 0.947 . S
C82 C81 1.392 . S
C82 C83 1.419 . S
C82 H111 0.948 . S
C83 C82 1.419 . S
C83 C84 1.391 . S
C83 C87 1.397 . S
C84 C79 1.391 . S
C84 C83 1.391 . S
C84 C85 1.399 . S
C85 C84 1.399 . S
C85 C86 1.396 . S
C85 C88 1.453 . S
C85 C89 1.684 . S
C86 C67 1.723 . S
C86 C85 1.396 . S
C86 C87 1.394 . S
C87 C83 1.397 . S
C87 C86 1.394 . S
C87 C97 1.723 . S
C88 C85 1.453 . S
C88 H112 0.982 . S
C88 H113 0.979 . S
C88 H114 0.977 . S
C89 C85 1.684 . S
C89 H115 0.979 . S
C89 H116 0.980 . S
C89 H117 0.983 . S
C90 H66 0.948 . S
C90 C91 1.391 . S
C90 C95 1.391 . S
C91 C90 1.391 . S
C91 C92 1.391 . S
C92 H69 0.947 . S
C92 C91 1.391 . S
C92 C93 1.392 . S
C93 H70 0.948 . S
C93 C92 1.392 . S
C93 C94 1.419 . S
C94 C93 1.419 . S
C94 C95 1.391 . S
C94 C98 1.397 . S
C95 C90 1.391 . S
C95 C94 1.391 . S
C95 C96 1.399 . S
C96 C95 1.399 . S
C96 C97 1.396 . S
C96 C99 1.453 . S
C96 C100 1.684 . S
C97 C87 1.723 . S
C97 C96 1.396 . S
C97 C98 1.394 . S
C98 C68 1.723 . S
C98 C94 1.397 . S
C98 C97 1.394 . S
C99 H71 0.982 . S
C99 H75 0.979 . S
C99 H76 0.977 . S
C99 C96 1.453 . S
C100 H72 0.979 . S
C100 H73 0.980 . S
C100 H74 0.983 . S
C100 C96 1.684 . S
H101 C119 0.948 . S
H102 C60 0.948 . S
H103 C78 0.979 . S
H104 C78 0.980 . S
H105 C78 0.983 . S
H106 C77 0.982 . S
H107 C77 0.979 . S
H108 C77 0.977 . S
H109 C79 0.948 . S
H110 C81 0.947 . S
H111 C82 0.948 . S
H112 C88 0.982 . S
H113 C88 0.979 . S
H114 C88 0.977 . S
H115 C89 0.979 . S
H116 C89 0.980 . S
H117 C89 0.983 . S
H118 C62 0.947 . S
C119 C62 1.392 . S
C119 C63 1.419 . S
C119 H101 0.948 . S
C120 C121 1.391 . S
C120 C124 1.391 . S
C120 H162 0.948 . S
C121 C120 1.391 . S
C121 C122 1.391 . S
C122 C121 1.391 . S
C122 H178 0.947 . S
C122 C179 1.392 . S
C123 C124 1.391 . S
C123 C127 1.397 . S
C123 C179 1.419 . S
C124 C120 1.391 . S
C124 C123 1.391 . S
C124 C125 1.399 . S
C125 C124 1.399 . S
C125 C128 1.396 . S
C125 C137 1.453 . S
C125 C138 1.684 . S
H126 C150 0.948 . S
C127 C123 1.397 . S
C127 C128 1.394 . S
C127 C146 1.723 . S
C128 C125 1.396 . S
C128 C127 1.394 . S
C128 C158 1.723 . S
H129 C152 0.947 . S
H130 C153 0.948 . S
H131 C159 0.982 . S
H132 C160 0.979 . S
H133 C160 0.980 . S
H134 C160 0.983 . S
H135 C159 0.979 . S
H136 C159 0.977 . S
C137 C125 1.453 . S
C137 H166 0.982 . S
C137 H167 0.979 . S
C137 H168 0.977 . S
C138 C125 1.684 . S
C138 H163 0.979 . S
C138 H164 0.980 . S
C138 H165 0.983 . S
C139 C140 1.391 . S
C139 C144 1.391 . S
C139 H169 0.948 . S
C140 C139 1.391 . S
C140 C141 1.391 . S
C141 C140 1.391 . S
C141 C142 1.392 . S
C141 H170 0.947 . S
C142 C141 1.392 . S
C142 C143 1.419 . S
C142 H171 0.948 . S
C143 C142 1.419 . S
C143 C144 1.391 . S
C143 C147 1.397 . S
C144 C139 1.391 . S
C144 C143 1.391 . S
C144 C145 1.399 . S
C145 C144 1.399 . S
C145 C146 1.396 . S
C145 C148 1.453 . S
C145 C149 1.684 . S
C146 C127 1.723 . S
C146 C145 1.396 . S
C146 C147 1.394 . S
C147 C143 1.397 . S
C147 C146 1.394 . S
C147 C157 1.723 . S
C148 C145 1.453 . S
C148 H172 0.982 . S
C148 H173 0.979 . S
C148 H174 0.977 . S
C149 C145 1.684 . S
C149 H175 0.979 . S
C149 H176 0.980 . S
C149 H177 0.983 . S
C150 H126 0.948 . S
C150 C151 1.391 . S
C150 C155 1.391 . S
C151 C150 1.391 . S
C151 C152 1.391 . S
C152 H129 0.947 . S
C152 C151 1.391 . S
C152 C153 1.392 . S
C153 H130 0.948 . S
C153 C152 1.392 . S
C153 C154 1.419 . S
C154 C153 1.419 . S
C154 C155 1.391 . S
C154 C158 1.397 . S
C155 C150 1.391 . S
C155 C154 1.391 . S
C155 C156 1.399 . S
C156 C155 1.399 . S
C156 C157 1.396 . S
C156 C159 1.453 . S
C156 C160 1.684 . S
C157 C147 1.723 . S
C157 C156 1.396 . S
C157 C158 1.394 . S
C158 C128 1.723 . S
C158 C154 1.397 . S
C158 C157 1.394 . S
C159 H131 0.982 . S
C159 H135 0.979 . S
C159 H136 0.977 . S
C159 C156 1.453 . S
C160 H132 0.979 . S
C160 H133 0.980 . S
C160 H134 0.983 . S
C160 C156 1.684 . S
H161 C179 0.948 . S
H162 C120 0.948 . S
H163 C138 0.979 . S
H164 C138 0.980 . S
H165 C138 0.983 . S
H166 C137 0.982 . S
H167 C137 0.979 . S
H168 C137 0.977 . S
H169 C139 0.948 . S
H170 C141 0.947 . S
H171 C142 0.948 . S
H172 C148 0.982 . S
H173 C148 0.979 . S
H174 C148 0.977 . S
H175 C149 0.979 . S
H176 C149 0.980 . S
H177 C149 0.983 . S
H178 C122 0.947 . S
C179 C122 1.392 . S
C179 C123 1.419 . S
C179 H161 0.948 . S
C180 C181 1.391 . S
C180 C184 1.391 . S
C180 H222 0.948 . S
C181 C180 1.391 . S
C181 C182 1.391 . S
C182 C181 1.391 . S
C182 H238 0.947 . S
C182 C239 1.392 . S
C183 C184 1.391 . S
C183 C187 1.397 . S
C183 C239 1.419 . S
C184 C180 1.391 . S
C184 C183 1.391 . S
C184 C185 1.399 . S
C185 C184 1.399 . S
C185 C188 1.396 . S
C185 C197 1.453 . S
C185 C198 1.684 . S
H186 C210 0.948 . S
C187 C183 1.397 . S
C187 C188 1.394 . S
C187 C206 1.723 . S
C188 C185 1.396 . S
C188 C187 1.394 . S
C188 C218 1.723 . S
H189 C212 0.947 . S
H190 C213 0.948 . S
H191 C219 0.982 . S
H192 C220 0.979 . S
H193 C220 0.980 . S
H194 C220 0.983 . S
H195 C219 0.979 . S
H196 C219 0.977 . S
C197 C185 1.453 . S
C197 H226 0.982 . S
C197 H227 0.979 . S
C197 H228 0.977 . S
C198 C185 1.684 . S
C198 H223 0.979 . S
C198 H224 0.980 . S
C198 H225 0.983 . S
C199 C200 1.391 . S
C199 C204 1.391 . S
C199 H229 0.948 . S
C200 C199 1.391 . S
C200 C201 1.391 . S
C201 C200 1.391 . S
C201 C202 1.392 . S
C201 H230 0.947 . S
C202 C201 1.392 . S
C202 C203 1.419 . S
C202 H231 0.948 . S
C203 C202 1.419 . S
C203 C204 1.391 . S
C203 C207 1.397 . S
C204 C199 1.391 . S
C204 C203 1.391 . S
C204 C205 1.399 . S
C205 C204 1.399 . S
C205 C206 1.396 . S
C205 C208 1.453 . S
C205 C209 1.684 . S
C206 C187 1.723 . S
C206 C205 1.396 . S
C206 C207 1.394 . S
C207 C203 1.397 . S
C207 C206 1.394 . S
C207 C217 1.723 . S
C208 C205 1.453 . S
C208 H232 0.982 . S
C208 H233 0.979 . S
C208 H234 0.977 . S
C209 C205 1.684 . S
C209 H235 0.979 . S
C209 H236 0.980 . S
C209 H237 0.983 . S
C210 H186 0.948 . S
C210 C211 1.391 . S
C210 C215 1.391 . S
C211 C210 1.391 . S
C211 C212 1.391 . S
C212 H189 0.947 . S
C212 C211 1.391 . S
C212 C213 1.392 . S
C213 H190 0.948 . S
C213 C212 1.392 . S
C213 C214 1.419 . S
C214 C213 1.419 . S
C214 C215 1.391 . S
C214 C218 1.397 . S
C215 C210 1.391 . S
C215 C214 1.391 . S
C215 C216 1.399 . S
C216 C215 1.399 . S
C216 C217 1.396 . S
C216 C219 1.453 . S
C216 C220 1.684 . S
C217 C207 1.723 . S
C217 C216 1.396 . S
C217 C218 1.394 . S
C218 C188 1.723 . S
C218 C214 1.397 . S
C218 C217 1.394 . S
C219 H191 0.982 . S
C219 H195 0.979 . S
C219 H196 0.977 . S
C219 C216 1.453 . S
C220 H192 0.979 . S
C220 H193 0.980 . S
C220 H194 0.983 . S
C220 C216 1.684 . S
H221 C239 0.948 . S
H222 C180 0.948 . S
H223 C198 0.979 . S
H224 C198 0.980 . S
H225 C198 0.983 . S
H226 C197 0.982 . S
H227 C197 0.979 . S
H228 C197 0.977 . S
H229 C199 0.948 . S
H230 C201 0.947 . S
H231 C202 0.948 . S
H232 C208 0.982 . S
H233 C208 0.979 . S
H234 C208 0.977 . S
H235 C209 0.979 . S
H236 C209 0.980 . S
H237 C209 0.983 . S
H238 C182 0.947 . S
C239 C182 1.392 . S
C239 C183 1.419 . S
C239 H221 0.948 . S
C240 C241 1.391 . S
C240 C244 1.391 . S
C240 H282 0.948 . S
C241 C240 1.391 . S
C241 C242 1.391 . S
C242 C241 1.391 . S
C242 H298 0.947 . S
C242 C299 1.392 . S
C243 C244 1.391 . S
C243 C247 1.397 . S
C243 C299 1.419 . S
C244 C240 1.391 . S
C244 C243 1.391 . S
C244 C245 1.399 . S
C245 C244 1.399 . S
C245 C248 1.396 . S
C245 C257 1.453 . S
C245 C258 1.684 . S
H246 C270 0.948 . S
C247 C243 1.397 . S
C247 C248 1.394 . S
C247 C266 1.723 . S
C248 C245 1.396 . S
C248 C247 1.394 . S
C248 C278 1.723 . S
H249 C272 0.947 . S
H250 C273 0.948 . S
H251 C279 0.982 . S
H252 C280 0.979 . S
H253 C280 0.980 . S
H254 C280 0.983 . S
H255 C279 0.979 . S
H256 C279 0.977 . S
C257 C245 1.453 . S
C257 H286 0.982 . S
C257 H287 0.979 . S
C257 H288 0.977 . S
C258 C245 1.684 . S
C258 H283 0.979 . S
C258 H284 0.980 . S
C258 H285 0.983 . S
C259 C260 1.391 . S
C259 C264 1.391 . S
C259 H289 0.948 . S
C260 C259 1.391 . S
C260 C261 1.391 . S
C261 C260 1.391 . S
C261 C262 1.392 . S
C261 H290 0.947 . S
C262 C261 1.392 . S
C262 C263 1.419 . S
C262 H291 0.948 . S
C263 C262 1.419 . S
C263 C264 1.391 . S
C263 C267 1.397 . S
C264 C259 1.391 . S
C264 C263 1.391 . S
C264 C265 1.399 . S
C265 C264 1.399 . S
C265 C266 1.396 . S
C265 C268 1.453 . S
C265 C269 1.684 . S
C266 C247 1.723 . S
C266 C265 1.396 . S
C266 C267 1.394 . S
C267 C263 1.397 . S
C267 C266 1.394 . S
C267 C277 1.723 . S
C268 C265 1.453 . S
C268 H292 0.982 . S
C268 H293 0.979 . S
C268 H294 0.977 . S
C269 C265 1.684 . S
C269 H295 0.979 . S
C269 H296 0.980 . S
C269 H297 0.983 . S
C270 H246 0.948 . S
C270 C271 1.391 . S
C270 C275 1.391 . S
C271 C270 1.391 . S
C271 C272 1.391 . S
C272 H249 0.947 . S
C272 C271 1.391 . S
C272 C273 1.392 . S
C273 H250 0.948 . S
C273 C272 1.392 . S
C273 C274 1.419 . S
C274 C273 1.419 . S
C274 C275 1.391 . S
C274 C278 1.397 . S
C275 C270 1.391 . S
C275 C274 1.391 . S
C275 C276 1.399 . S
C276 C275 1.399 . S
C276 C277 1.396 . S
C276 C279 1.453 . S
C276 C280 1.684 . S
C277 C267 1.723 . S
C277 C276 1.396 . S
C277 C278 1.394 . S
C278 C248 1.723 . S
C278 C274 1.397 . S
C278 C277 1.394 . S
C279 H251 0.982 . S
C279 H255 0.979 . S
C279 H256 0.977 . S
C279 C276 1.453 . S
C280 H252 0.979 . S
C280 H253 0.980 . S
C280 H254 0.983 . S
C280 C276 1.684 . S
H281 C299 0.948 . S
H282 C240 0.948 . S
H283 C258 0.979 . S
H284 C258 0.980 . S
H285 C258 0.983 . S
H286 C257 0.982 . S
H287 C257 0.979 . S
H288 C257 0.977 . S
H289 C259 0.948 . S
H290 C261 0.947 . S
H291 C262 0.948 . S
H292 C268 0.982 . S
H293 C268 0.979 . S
H294 C268 0.977 . S
H295 C269 0.979 . S
H296 C269 0.980 . S
H297 C269 0.983 . S
H298 C242 0.947 . S
C299 C242 1.392 . S
C299 C243 1.419 . S
C299 H281 0.948 . S
C300 C301 1.391 . S
C300 C304 1.391 . S
C300 H342 0.948 . S
C301 C300 1.391 . S
C301 C302 1.391 . S
C302 C301 1.391 . S
C302 H358 0.947 . S
C302 C359 1.392 . S
C303 C304 1.391 . S
C303 C307 1.397 . S
C303 C359 1.419 . S
C304 C300 1.391 . S
C304 C303 1.391 . S
C304 C305 1.399 . S
C305 C304 1.399 . S
C305 C308 1.396 . S
C305 C317 1.453 . S
C305 C318 1.684 . S
H306 C330 0.948 . S
C307 C303 1.397 . S
C307 C308 1.394 . S
C307 C326 1.723 . S
C308 C305 1.396 . S
C308 C307 1.394 . S
C308 C338 1.723 . S
H309 C332 0.947 . S
H310 C333 0.948 . S
H311 C339 0.982 . S
H312 C340 0.979 . S
H313 C340 0.980 . S
H314 C340 0.983 . S
H315 C339 0.979 . S
H316 C339 0.977 . S
C317 C305 1.453 . S
C317 H346 0.982 . S
C317 H347 0.979 . S
C317 H348 0.977 . S
C318 C305 1.684 . S
C318 H343 0.979 . S
C318 H344 0.980 . S
C318 H345 0.983 . S
C319 C320 1.391 . S
C319 C324 1.391 . S
C319 H349 0.948 . S
C320 C319 1.391 . S
C320 C321 1.391 . S
C321 C320 1.391 . S
C321 C322 1.392 . S
C321 H350 0.947 . S
C322 C321 1.392 . S
C322 C323 1.419 . S
C322 H351 0.948 . S
C323 C322 1.419 . S
C323 C324 1.391 . S
C323 C327 1.397 . S
C324 C319 1.391 . S
C324 C323 1.391 . S
C324 C325 1.399 . S
C325 C324 1.399 . S
C325 C326 1.396 . S
C325 C328 1.453 . S
C325 C329 1.684 . S
C326 C307 1.723 . S
C326 C325 1.396 . S
C326 C327 1.394 . S
C327 C323 1.397 . S
C327 C326 1.394 . S
C327 C337 1.723 . S
C328 C325 1.453 . S
C328 H352 0.982 . S
C328 H353 0.979 . S
C328 H354 0.977 . S
C329 C325 1.684 . S
C329 H355 0.979 . S
C329 H356 0.980 . S
C329 H357 0.983 . S
C330 H306 0.948 . S
C330 C331 1.391 . S
C330 C335 1.391 . S
C331 C330 1.391 . S
C331 C332 1.391 . S
C332 H309 0.947 . S
C332 C331 1.391 . S
C332 C333 1.392 . S
C333 H310 0.948 . S
C333 C332 1.392 . S
C333 C334 1.419 . S
C334 C333 1.419 . S
C334 C335 1.391 . S
C334 C338 1.397 . S
C335 C330 1.391 . S
C335 C334 1.391 . S
C335 C336 1.399 . S
C336 C335 1.399 . S
C336 C337 1.396 . S
C336 C339 1.453 . S
C336 C340 1.684 . S
C337 C327 1.723 . S
C337 C336 1.396 . S
C337 C338 1.394 . S
C338 C308 1.723 . S
C338 C334 1.397 . S
C338 C337 1.394 . S
C339 H311 0.982 . S
C339 H315 0.979 . S
C339 H316 0.977 . S
C339 C336 1.453 . S
C340 H312 0.979 . S
C340 H313 0.980 . S
C340 H314 0.983 . S
C340 C336 1.684 . S
H341 C359 0.948 . S
H342 C300 0.948 . S
H343 C318 0.979 . S
H344 C318 0.980 . S
H345 C318 0.983 . S
H346 C317 0.982 . S
H347 C317 0.979 . S
H348 C317 0.977 . S
H349 C319 0.948 . S
H350 C321 0.947 . S
H351 C322 0.948 . S
H352 C328 0.982 . S
H353 C328 0.979 . S
H354 C328 0.977 . S
H355 C329 0.979 . S
H356 C329 0.980 . S
H357 C329 0.983 . S
H358 C302 0.947 . S
C359 C302 1.392 . S
C359 C303 1.419 . S
C359 H341 0.948 . S
C360 C361 1.391 . S
C360 C364 1.391 . S
C360 H402 0.948 . S
C361 C360 1.391 . S
C361 C362 1.391 . S
C362 C361 1.391 . S
C362 H418 0.947 . S
C362 C419 1.392 . S
C363 C364 1.391 . S
C363 C367 1.397 . S
C363 C419 1.419 . S
C364 C360 1.391 . S
C364 C363 1.391 . S
C364 C365 1.399 . S
C365 C364 1.399 . S
C365 C368 1.396 . S
C365 C377 1.453 . S
C365 C378 1.684 . S
H366 C390 0.948 . S
C367 C363 1.397 . S
C367 C368 1.394 . S
C367 C386 1.723 . S
C368 C365 1.396 . S
C368 C367 1.394 . S
C368 C398 1.723 . S
H369 C392 0.947 . S
H370 C393 0.948 . S
H371 C399 0.982 . S
H372 C400 0.979 . S
H373 C400 0.980 . S
H374 C400 0.983 . S
H375 C399 0.979 . S
H376 C399 0.977 . S
C377 C365 1.453 . S
C377 H406 0.982 . S
C377 H407 0.979 . S
C377 H408 0.977 . S
C378 C365 1.684 . S
C378 H403 0.979 . S
C378 H404 0.980 . S
C378 H405 0.983 . S
C379 C380 1.391 . S
C379 C384 1.391 . S
C379 H409 0.948 . S
C380 C379 1.391 . S
C380 C381 1.391 . S
C381 C380 1.391 . S
C381 C382 1.392 . S
C381 H410 0.947 . S
C382 C381 1.392 . S
C382 C383 1.419 . S
C382 H411 0.948 . S
C383 C382 1.419 . S
C383 C384 1.391 . S
C383 C387 1.397 . S
C384 C379 1.391 . S
C384 C383 1.391 . S
C384 C385 1.399 . S
C385 C384 1.399 . S
C385 C386 1.396 . S
C385 C388 1.453 . S
C385 C389 1.684 . S
C386 C367 1.723 . S
C386 C385 1.396 . S
C386 C387 1.394 . S
C387 C383 1.397 . S
C387 C386 1.394 . S
C387 C397 1.723 . S
C388 C385 1.453 . S
C388 H412 0.982 . S
C388 H413 0.979 . S
C388 H414 0.977 . S
C389 C385 1.684 . S
C389 H415 0.979 . S
C389 H416 0.980 . S
C389 H417 0.983 . S
C390 H366 0.948 . S
C390 C391 1.391 . S
C390 C395 1.391 . S
C391 C390 1.391 . S
C391 C392 1.391 . S
C392 H369 0.947 . S
C392 C391 1.391 . S
C392 C393 1.392 . S
C393 H370 0.948 . S
C393 C392 1.392 . S
C393 C394 1.419 . S
C394 C393 1.419 . S
C394 C395 1.391 . S
C394 C398 1.397 . S
C395 C390 1.391 . S
C395 C394 1.391 . S
C395 C396 1.399 . S
C396 C395 1.399 . S
C396 C397 1.396 . S
C396 C399 1.453 . S
C396 C400 1.684 . S
C397 C387 1.723 . S
C397 C396 1.396 . S
C397 C398 1.394 . S
C398 C368 1.723 . S
C398 C394 1.397 . S
C398 C397 1.394 . S
C399 H371 0.982 . S
C399 H375 0.979 . S
C399 H376 0.977 . S
C399 C396 1.453 . S
C400 H372 0.979 . S
C400 H373 0.980 . S
C400 H374 0.983 . S
C400 C396 1.684 . S
H401 C419 0.948 . S
H402 C360 0.948 . S
H403 C378 0.979 . S
H404 C378 0.980 . S
H405 C378 0.983 . S
H406 C377 0.982 . S
H407 C377 0.979 . S
H408 C377 0.977 . S
H409 C379 0.948 . S
H410 C381 0.947 . S
H411 C382 0.948 . S
H412 C388 0.982 . S
H413 C388 0.979 . S
H414 C388 0.977 . S
H415 C389 0.979 . S
H416 C389 0.980 . S
H417 C389 0.983 . S
H418 C362 0.947 . S
C419 C362 1.392 . S
C419 C363 1.419 . S
C419 H401 0.948 . S
C420 C421 1.391 . S
C420 C424 1.391 . S
C420 H462 0.948 . S
C421 C420 1.391 . S
C421 C422 1.391 . S
C422 C421 1.391 . S
C422 H478 0.947 . S
C422 C479 1.392 . S
C423 C424 1.391 . S
C423 C427 1.397 . S
C423 C479 1.419 . S
C424 C420 1.391 . S
C424 C423 1.391 . S
C424 C425 1.399 . S
C425 C424 1.399 . S
C425 C428 1.396 . S
C425 C437 1.453 . S
C425 C438 1.684 . S
H426 C450 0.948 . S
C427 C423 1.397 . S
C427 C428 1.394 . S
C427 C446 1.723 . S
C428 C425 1.396 . S
C428 C427 1.394 . S
C428 C458 1.723 . S
H429 C452 0.947 . S
H430 C453 0.948 . S
H431 C459 0.982 . S
H432 C460 0.979 . S
H433 C460 0.980 . S
H434 C460 0.983 . S
H435 C459 0.979 . S
H436 C459 0.977 . S
C437 C425 1.453 . S
C437 H466 0.982 . S
C437 H467 0.979 . S
C437 H468 0.977 . S
C438 C425 1.684 . S
C438 H463 0.979 . S
C438 H464 0.980 . S
C438 H465 0.983 . S
C439 C440 1.391 . S
C439 C444 1.391 . S
C439 H469 0.948 . S
C440 C439 1.391 . S
C440 C441 1.391 . S
C441 C440 1.391 . S
C441 C442 1.392 . S
C441 H470 0.947 . S
C442 C441 1.392 . S
C442 C443 1.419 . S
C442 H471 0.948 . S
C443 C442 1.419 . S
C443 C444 1.391 . S
C443 C447 1.397 . S
C444 C439 1.391 . S
C444 C443 1.391 . S
C444 C445 1.399 . S
C445 C444 1.399 . S
C445 C446 1.396 . S
C445 C448 1.453 . S
C445 C449 1.684 . S
C446 C427 1.723 . S
C446 C445 1.396 . S
C446 C447 1.394 . S
C447 C443 1.397 . S
C447 C446 1.394 . S
C447 C457 1.723 . S
C448 C445 1.453 . S
C448 H472 0.982 . S
C448 H473 0.979 . S
C448 H474 0.977 . S
C449 C445 1.684 . S
C449 H475 0.979 . S
C449 H476 0.980 . S
C449 H477 0.983 . S
C450 H426 0.948 . S
C450 C451 1.391 . S
C450 C455 1.391 . S
C451 C450 1.391 . S
C451 C452 1.391 . S
C452 H429 0.947 . S
C452 C451 1.391 . S
C452 C453 1.392 . S
C453 H430 0.948 . S
C453 C452 1.392 . S
C453 C454 1.419 . S
C454 C453 1.419 . S
C454 C455 1.391 . S
C454 C458 1.397 . S
C455 C450 1.391 . S
C455 C454 1.391 . S
C455 C456 1.399 . S
C456 C455 1.399 . S
C456 C457 1.396 . S
C456 C459 1.453 . S
C456 C460 1.684 . S
C457 C447 1.723 . S
C457 C456 1.396 . S
C457 C458 1.394 . S
C458 C428 1.723 . S
C458 C454 1.397 . S
C458 C457 1.394 . S
C459 H431 0.982 . S
C459 H435 0.979 . S
C459 H436 0.977 . S
C459 C456 1.453 . S
C460 H432 0.979 . S
C460 H433 0.980 . S
C460 H434 0.983 . S
C460 C456 1.684 . S
H461 C479 0.948 . S
H462 C420 0.948 . S
H463 C438 0.979 . S
H464 C438 0.980 . S
H465 C438 0.983 . S
H466 C437 0.982 . S
H467 C437 0.979 . S
H468 C437 0.977 . S
H469 C439 0.948 . S
H470 C441 0.947 . S
H471 C442 0.948 . S
H472 C448 0.982 . S
H473 C448 0.979 . S
H474 C448 0.977 . S
H475 C449 0.979 . S
H476 C449 0.980 . S
H477 C449 0.983 . S
H478 C422 0.947 . S
C479 C422 1.392 . S
C479 C423 1.419 . S
C479 H461 0.948 . S
C480 C481 1.443 . S
C480 N484 1.376 . S
C480 C518 1.389 . S
C481 C480 1.443 . S
C481 C482 1.340 . S
C481 H521 0.951 . S
C482 C481 1.340 . S
C482 C483 1.439 . S
C482 H522 0.950 . S
C483 C482 1.439 . S
C483 N484 1.374 . S
C483 C517 1.395 . S
N484 C480 1.376 . S
N484 C483 1.374 . S
N484 Co485 2.008 . S
Co485 N484 2.008 . S
Co485 N486 1.981 1_455 S
Co485 N491 2.008 . S
Co485 N496 1.995 . S
Co485 N501 2.282 . S
Co485 N507 2.282 1_455 S
N486 Co485 1.981 1_655 S
N486 C487 1.376 . S
N486 C490 1.399 . S
C487 N486 1.376 . S
C487 C488 1.463 . S
C487 C517 1.375 1_655 S
C488 C487 1.463 . S
C488 C489 1.339 . S
C488 H523 0.949 . S
C489 C488 1.339 . S
C489 C490 1.439 . S
C489 H524 0.950 . S
C490 N486 1.399 . S
C490 C489 1.439 . S
C490 C519 1.392 . S
N491 Co485 2.008 . S
N491 C492 1.376 1_455 S
N491 C495 1.374 . S
C492 N491 1.376 1_655 S
C492 C493 1.443 . S
C492 C519 1.389 . S
C493 C492 1.443 . S
C493 C494 1.340 . S
C493 H525 0.951 . S
C494 C493 1.340 . S
C494 C495 1.439 1_655 S
C494 H526 0.950 . S
C495 N491 1.374 . S
C495 C494 1.439 1_455 S
C495 C520 1.395 . S
N496 Co485 1.995 . S
N496 C497 1.376 . S
N496 C500 1.383 . S
C497 N496 1.376 . S
C497 C498 1.446 . S
C497 C520 1.391 . S
C498 C497 1.446 . S
C498 C499 1.339 . S
C498 H527 0.949 . S
C499 C498 1.339 . S
C499 C500 1.439 . S
C499 H528 0.950 . S
C500 N496 1.383 . S
C500 C499 1.439 . S
C500 C518 1.392 . S
N501 Co485 2.282 . S
N501 C504 1.332 . S
N501 C506 1.332 . S
C502 C503 1.386 . S
C502 C505 1.388 . S
C503 C502 1.386 . S
C503 C504 1.382 . S
C503 H529 0.950 . S
C504 N501 1.332 . S
C504 C503 1.382 . S
C504 H515 0.952 . S
C505 C502 1.388 . S
C505 C506 1.382 . S
C505 H530 0.950 . S
C506 N501 1.332 . S
C506 C505 1.382 . S
C506 H516 0.948 . S
N507 Co485 2.282 1_655 S
N507 C511 1.332 . S
N507 C512 1.332 . S
C508 C509 1.388 . S
C508 C512 1.382 . S
C508 H531 0.950 . S
C509 C508 1.388 . S
C509 C510 1.386 . S
C510 C509 1.386 . S
C510 C511 1.382 . S
C510 H532 0.950 . S
C511 N507 1.332 . S
C511 C510 1.382 . S
C511 H513 0.952 . S
C512 N507 1.332 . S
C512 C508 1.382 . S
C512 H514 0.948 . S
H513 C511 0.952 . S
H514 C512 0.948 . S
H515 C504 0.952 . S
H516 C506 0.948 . S
C517 C483 1.395 . S
C517 C487 1.375 1_455 S
C518 C480 1.389 . S
C518 C500 1.392 . S
C519 C490 1.392 . S
C519 C492 1.389 . S
C520 C495 1.395 . S
C520 C497 1.391 . S
H521 C481 0.951 . S
H522 C482 0.950 . S
H523 C488 0.949 . S
H524 C489 0.950 . S
H525 C493 0.951 . S
H526 C494 0.950 . S
H527 C498 0.949 . S
H528 C499 0.950 . S
H529 C503 0.950 . S
H530 C505 0.950 . S
H531 C508 0.950 . S
H532 C510 0.950 . S
C533 C534 1.443 . S
C533 N537 1.376 . S
C533 C571 1.389 . S
C534 C533 1.443 . S
C534 C535 1.340 . S
C534 H574 0.951 . S
C535 C534 1.340 . S
C535 C536 1.439 . S
C535 H575 0.950 . S
C536 C535 1.439 . S
C536 N537 1.374 . S
C536 C570 1.395 . S
N537 C533 1.376 . S
N537 C536 1.374 . S
N537 Co538 2.008 . S
Co538 N537 2.008 . S
Co538 N539 1.995 1_455 S
Co538 N544 2.008 1_455 S
Co538 N549 1.995 . S
Co538 N554 2.282 . S
Co538 N560 2.282 1_455 S
N539 Co538 1.995 1_655 S
N539 C540 1.376 . S
N539 C543 1.383 . S
C540 N539 1.376 . S
C540 C541 1.446 . S
C540 C570 1.391 1_655 S
C541 C540 1.446 . S
C541 C542 1.339 . S
C541 H576 0.949 . S
C542 C541 1.339 . S
C542 C543 1.439 . S
C542 H577 0.950 . S
C543 N539 1.383 . S
C543 C542 1.439 . S
C543 C572 1.392 . S
N544 Co538 2.008 1_655 S
N544 C545 1.376 . S
N544 C548 1.374 1_655 S
C545 N544 1.376 . S
C545 C546 1.443 . S
C545 C572 1.389 . S
C546 C545 1.443 . S
C546 C547 1.340 . S
C546 H578 0.951 . S
C547 C546 1.340 . S
C547 C548 1.439 1_655 S
C547 H579 0.950 . S
C548 N544 1.374 1_455 S
C548 C547 1.439 1_455 S
C548 C573 1.395 . S
N549 Co538 1.995 . S
N549 C550 1.376 . S
N549 C553 1.383 . S
C550 N549 1.376 . S
C550 C551 1.446 . S
C550 C573 1.391 . S
C551 C550 1.446 . S
C551 C552 1.339 . S
C551 H580 0.949 . S
C552 C551 1.339 . S
C552 C553 1.439 . S
C552 H581 0.950 . S
C553 N549 1.383 . S
C553 C552 1.439 . S
C553 C571 1.392 . S
N554 Co538 2.282 . S
N554 C557 1.332 . S
N554 C559 1.332 . S
C555 C556 1.386 . S
C555 C558 1.388 . S
C556 C555 1.386 . S
C556 C557 1.382 . S
C556 H582 0.950 . S
C557 N554 1.332 . S
C557 C556 1.382 . S
C557 H568 0.952 . S
C558 C555 1.388 . S
C558 C559 1.382 . S
C558 H583 0.950 . S
C559 N554 1.332 . S
C559 C558 1.382 . S
C559 H569 0.948 . S
N560 Co538 2.282 1_655 S
N560 C564 1.332 . S
N560 C565 1.332 . S
C561 C562 1.388 . S
C561 C565 1.382 . S
C561 H584 0.950 . S
C562 C561 1.388 . S
C562 C563 1.386 . S
C563 C562 1.386 . S
C563 C564 1.382 . S
C563 H585 0.950 . S
C564 N560 1.332 . S
C564 C563 1.382 . S
C564 H566 0.952 . S
C565 N560 1.332 . S
C565 C561 1.382 . S
C565 H567 0.948 . S
H566 C564 0.952 . S
H567 C565 0.948 . S
H568 C557 0.952 . S
H569 C559 0.948 . S
C570 C536 1.395 . S
C570 C540 1.391 1_455 S
C571 C533 1.389 . S
C571 C553 1.392 . S
C572 C543 1.392 . S
C572 C545 1.389 . S
C573 C548 1.395 . S
C573 C550 1.391 . S
H574 C534 0.951 . S
H575 C535 0.950 . S
H576 C541 0.949 . S
H577 C542 0.950 . S
H578 C546 0.951 . S
H579 C547 0.950 . S
H580 C551 0.949 . S
H581 C552 0.950 . S
H582 C556 0.950 . S
H583 C558 0.950 . S
H584 C561 0.950 . S
H585 C563 0.950 . S
C586 C587 1.443 . S
C586 N590 1.376 . S
C586 C624 1.389 . S
C587 C586 1.443 . S
C587 C588 1.340 . S
C587 H627 0.951 . S
C588 C587 1.340 . S
C588 C589 1.439 . S
C588 H628 0.950 . S
C589 C588 1.439 . S
C589 N590 1.374 . S
C589 C623 1.395 1_565 S
N590 C586 1.376 . S
N590 C589 1.374 . S
N590 Co591 2.008 1_565 S
Co591 N590 2.008 1_545 S
Co591 N592 1.995 . S
Co591 N597 2.008 . S
Co591 N602 1.995 1_545 S
Co591 N607 2.282 . S
Co591 N613 2.282 1_545 S
N592 Co591 1.995 . S
N592 C593 1.376 . S
N592 C596 1.383 . S
C593 N592 1.376 . S
C593 C594 1.446 . S
C593 C623 1.391 . S
C594 C593 1.446 . S
C594 C595 1.339 . S
C594 H629 0.949 . S
C595 C594 1.339 . S
C595 C596 1.439 . S
C595 H630 0.950 . S
C596 N592 1.383 . S
C596 C595 1.439 . S
C596 C625 1.392 . S
N597 Co591 2.008 . S
N597 C598 1.376 . S
N597 C601 1.374 . S
C598 N597 1.376 . S
C598 C599 1.443 . S
C598 C625 1.389 . S
C599 C598 1.443 . S
C599 C600 1.340 . S
C599 H631 0.951 . S
C600 C599 1.340 . S
C600 C601 1.439 . S
C600 H632 0.950 . S
C601 N597 1.374 . S
C601 C600 1.439 . S
C601 C626 1.395 . S
N602 Co591 1.995 1_565 S
N602 C603 1.376 . S
N602 C606 1.383 . S
C603 N602 1.376 . S
C603 C604 1.446 . S
C603 C626 1.391 1_565 S
C604 C603 1.446 . S
C604 C605 1.339 . S
C604 H633 0.949 . S
C605 C604 1.339 . S
C605 C606 1.439 . S
C605 H634 0.950 . S
C606 N602 1.383 . S
C606 C605 1.439 . S
C606 C624 1.392 . S
N607 Co591 2.282 . S
N607 C610 1.332 . S
N607 C612 1.332 . S
C608 C609 1.386 . S
C608 C611 1.388 . S
C609 C608 1.386 . S
C609 C610 1.382 . S
C609 H635 0.950 . S
C610 N607 1.332 . S
C610 C609 1.382 . S
C610 H621 0.952 . S
C611 C608 1.388 . S
C611 C612 1.382 . S
C611 H636 0.950 . S
C612 N607 1.332 . S
C612 C611 1.382 . S
C612 H622 0.948 . S
N613 Co591 2.282 1_565 S
N613 C617 1.332 . S
N613 C618 1.332 . S
C614 C615 1.388 . S
C614 C618 1.382 . S
C614 H637 0.950 . S
C615 C614 1.388 . S
C615 C616 1.386 . S
C616 C615 1.386 . S
C616 C617 1.382 . S
C616 H638 0.950 . S
C617 N613 1.332 . S
C617 C616 1.382 . S
C617 H619 0.952 . S
C618 N613 1.332 . S
C618 C614 1.382 . S
C618 H620 0.948 . S
H619 C617 0.952 . S
H620 C618 0.948 . S
H621 C610 0.952 . S
H622 C612 0.948 . S
C623 C589 1.395 1_545 S
C623 C593 1.391 . S
C624 C586 1.389 . S
C624 C606 1.392 . S
C625 C596 1.392 . S
C625 C598 1.389 . S
C626 C601 1.395 . S
C626 C603 1.391 1_545 S
H627 C587 0.951 . S
H628 C588 0.950 . S
H629 C594 0.949 . S
H630 C595 0.950 . S
H631 C599 0.951 . S
H632 C600 0.950 . S
H633 C604 0.949 . S
H634 C605 0.950 . S
H635 C609 0.950 . S
H636 C611 0.950 . S
H637 C614 0.950 . S
H638 C616 0.950 . S
C639 C640 1.443 . S
C639 N643 1.376 . S
C639 C677 1.389 . S
C640 C639 1.443 . S
C640 C641 1.340 . S
C640 H680 0.951 . S
C641 C640 1.340 . S
C641 C642 1.439 . S
C641 H681 0.950 . S
C642 C641 1.439 . S
C642 N643 1.374 . S
C642 C676 1.395 . S
N643 C639 1.376 . S
N643 C642 1.374 . S
N643 Co644 2.008 . S
Co644 N643 2.008 . S
Co644 N645 2.016 . S
Co644 N650 1.985 1_554 S
Co644 N655 1.995 . S
Co644 N660 2.282 1_554 S
Co644 N666 2.282 . S
N645 Co644 2.016 . S
N645 C646 1.384 . S
N645 C649 1.347 1_554 S
C646 N645 1.384 . S
C646 C647 1.446 1_554 S
C646 C676 1.391 . S
C647 C646 1.446 1_556 S
C647 C648 1.339 . S
C647 H682 0.949 . S
C648 C647 1.339 . S
C648 C649 1.439 . S
C648 H683 0.950 . S
C649 N645 1.347 1_556 S
C649 C648 1.439 . S
C649 C678 1.392 . S
N650 Co644 1.985 1_556 S
N650 C651 1.410 . S
N650 C654 1.374 1_556 S
C651 N650 1.410 . S
C651 C652 1.443 . S
C651 C678 1.389 . S
C652 C651 1.443 . S
C652 C653 1.340 . S
C652 H684 0.951 . S
C653 C652 1.340 . S
C653 C654 1.436 1_556 S
C653 H685 0.950 . S
C654 N650 1.374 1_554 S
C654 C653 1.436 1_554 S
C654 C679 1.398 . S
N655 Co644 1.995 . S
N655 C656 1.376 . S
N655 C659 1.383 . S
C656 N655 1.376 . S
C656 C657 1.446 . S
C656 C679 1.391 . S
C657 C656 1.446 . S
C657 C658 1.339 . S
C657 H686 0.949 . S
C658 C657 1.339 . S
C658 C659 1.439 . S
C658 H687 0.950 . S
C659 N655 1.383 . S
C659 C658 1.439 . S
C659 C677 1.392 . S
N660 Co644 2.282 1_556 S
N660 C663 1.332 . S
N660 C665 1.332 . S
C661 C662 1.386 . S
C661 C664 1.388 . S
C662 C661 1.386 . S
C662 C663 1.382 . S
C662 H688 0.950 . S
C663 N660 1.332 . S
C663 C662 1.382 . S
C663 H674 0.952 . S
C664 C661 1.388 . S
C664 C665 1.382 . S
C664 H689 0.950 . S
C665 N660 1.332 . S
C665 C664 1.382 . S
C665 H675 0.948 . S
N666 Co644 2.282 . S
N666 C670 1.332 . S
N666 C671 1.332 . S
C667 C668 1.388 . S
C667 C671 1.382 . S
C667 H690 0.950 . S
C668 C667 1.388 . S
C668 C669 1.386 . S
C669 C668 1.386 . S
C669 C670 1.382 . S
C669 H691 0.950 . S
C670 N666 1.332 . S
C670 C669 1.382 . S
C670 H672 0.952 . S
C671 N666 1.332 . S
C671 C667 1.382 . S
C671 H673 0.948 . S
H672 C670 0.952 . S
H673 C671 0.948 . S
H674 C663 0.952 . S
H675 C665 0.948 . S
C676 C642 1.395 . S
C676 C646 1.391 . S
C677 C639 1.389 . S
C677 C659 1.392 . S
C678 C649 1.392 . S
C678 C651 1.389 . S
C679 C654 1.398 . S
C679 C656 1.391 . S
H680 C640 0.951 . S
H681 C641 0.950 . S
H682 C647 0.949 . S
H683 C648 0.950 . S
H684 C652 0.951 . S
H685 C653 0.950 . S
H686 C657 0.949 . S
H687 C658 0.950 . S
H688 C662 0.950 . S
H689 C664 0.950 . S
H690 C667 0.950 . S
H691 C669 0.950 . S
C692 C693 1.443 . S
C692 N696 1.376 1_565 S
C692 C730 1.389 . S
C693 C692 1.443 . S
C693 C694 1.340 . S
C693 H733 0.951 . S
C694 C693 1.340 . S
C694 C695 1.439 1_565 S
C694 H734 0.950 . S
C695 C694 1.439 1_545 S
C695 N696 1.374 . S
C695 C729 1.395 . S
N696 C692 1.376 1_545 S
N696 C695 1.374 . S
N696 Co697 2.008 . S
Co697 N696 2.008 . S
Co697 N698 1.995 . S
Co697 N703 2.008 . S
Co697 N708 1.995 . S
Co697 N713 2.282 . S
Co697 N719 2.282 1_545 S
N698 Co697 1.995 . S
N698 C699 1.376 . S
N698 C702 1.383 . S
C699 N698 1.376 . S
C699 C700 1.446 . S
C699 C729 1.391 . S
C700 C699 1.446 . S
C700 C701 1.339 . S
C700 H735 0.949 . S
C701 C700 1.339 . S
C701 C702 1.439 . S
C701 H736 0.950 . S
C702 N698 1.383 . S
C702 C701 1.439 . S
C702 C731 1.392 . S
N703 Co697 2.008 . S
N703 C704 1.376 . S
N703 C707 1.374 . S
C704 N703 1.376 . S
C704 C705 1.443 . S
C704 C731 1.389 . S
C705 C704 1.443 . S
C705 C706 1.340 . S
C705 H737 0.951 . S
C706 C705 1.340 . S
C706 C707 1.439 . S
C706 H738 0.950 . S
C707 N703 1.374 . S
C707 C706 1.439 . S
C707 C732 1.395 . S
N708 Co697 1.995 . S
N708 C709 1.376 . S
N708 C712 1.383 1_545 S
C709 N708 1.376 . S
C709 C710 1.446 1_545 S
C709 C732 1.391 . S
C710 C709 1.446 1_565 S
C710 C711 1.339 . S
C710 H739 0.949 . S
C711 C710 1.339 . S
C711 C712 1.439 . S
C711 H740 0.950 . S
C712 N708 1.383 1_565 S
C712 C711 1.439 . S
C712 C730 1.392 . S
N713 Co697 2.282 . S
N713 C716 1.332 . S
N713 C718 1.332 . S
C714 C715 1.386 . S
C714 C717 1.388 . S
C715 C714 1.386 . S
C715 C716 1.382 . S
C715 H741 0.950 . S
C716 N713 1.332 . S
C716 C715 1.382 . S
C716 H727 0.952 . S
C717 C714 1.388 . S
C717 C718 1.382 . S
C717 H742 0.950 . S
C718 N713 1.332 . S
C718 C717 1.382 . S
C718 H728 0.948 . S
N719 Co697 2.282 1_565 S
N719 C723 1.332 . S
N719 C724 1.332 . S
C720 C721 1.388 . S
C720 C724 1.382 . S
C720 H743 0.950 . S
C721 C720 1.388 . S
C721 C722 1.386 . S
C722 C721 1.386 . S
C722 C723 1.382 . S
C722 H744 0.950 . S
C723 N719 1.332 . S
C723 C722 1.382 . S
C723 H725 0.952 . S
C724 N719 1.332 . S
C724 C720 1.382 . S
C724 H726 0.948 . S
H725 C723 0.952 . S
H726 C724 0.948 . S
H727 C716 0.952 . S
H728 C718 0.948 . S
C729 C695 1.395 . S
C729 C699 1.391 . S
C730 C692 1.389 . S
C730 C712 1.392 . S
C731 C702 1.392 . S
C731 C704 1.389 . S
C732 C707 1.395 . S
C732 C709 1.391 . S
H733 C693 0.951 . S
H734 C694 0.950 . S
H735 C700 0.949 . S
H736 C701 0.950 . S
H737 C705 0.951 . S
H738 C706 0.950 . S
H739 C710 0.949 . S
H740 C711 0.950 . S
H741 C715 0.950 . S
H742 C717 0.950 . S
H743 C720 0.950 . S
H744 C722 0.950 . S
C745 C746 1.443 . S
C745 N749 1.376 . S
C745 C783 1.389 . S
C746 C745 1.443 . S
C746 C747 1.340 . S
C746 H786 0.951 . S
C747 C746 1.340 . S
C747 C748 1.439 . S
C747 H787 0.950 . S
C748 C747 1.439 . S
C748 N749 1.374 . S
C748 C782 1.395 . S
N749 C745 1.376 . S
N749 C748 1.374 . S
N749 Co750 2.008 . S
Co750 N749 2.008 . S
Co750 N751 1.995 . S
Co750 N756 2.008 . S
Co750 N761 1.995 . S
Co750 N766 2.309 . S
Co750 N772 2.282 . S
N751 Co750 1.995 . S
N751 C752 1.376 . S
N751 C755 1.383 1_554 S
C752 N751 1.376 . S
C752 C753 1.446 1_554 S
C752 C782 1.391 . S
C753 C752 1.446 1_556 S
C753 C754 1.339 . S
C753 H788 0.949 . S
C754 C753 1.339 . S
C754 C755 1.439 . S
C754 H789 0.950 . S
C755 N751 1.383 1_556 S
C755 C754 1.439 . S
C755 C784 1.392 . S
N756 Co750 2.008 . S
N756 C757 1.376 1_554 S
N756 C760 1.374 . S
C757 N756 1.376 1_556 S
C757 C758 1.443 . S
C757 C784 1.389 . S
C758 C757 1.443 . S
C758 C759 1.340 . S
C758 H790 0.951 . S
C759 C758 1.340 . S
C759 C760 1.439 1_556 S
C759 H791 0.950 . S
C760 N756 1.374 . S
C760 C759 1.439 1_554 S
C760 C785 1.395 . S
N761 Co750 1.995 . S
N761 C762 1.376 . S
N761 C765 1.383 . S
C762 N761 1.376 . S
C762 C763 1.446 . S
C762 C785 1.391 . S
C763 C762 1.446 . S
C763 C764 1.339 . S
C763 H792 0.949 . S
C764 C763 1.339 . S
C764 C765 1.439 . S
C764 H793 0.950 . S
C765 N761 1.383 . S
C765 C764 1.439 . S
C765 C783 1.392 . S
N766 Co750 2.309 . S
N766 C769 1.321 1_554 S
N766 C771 1.312 1_554 S
C767 C768 1.386 . S
C767 C770 1.388 . S
C768 C767 1.386 . S
C768 C769 1.382 . S
C768 H794 0.950 . S
C769 N766 1.321 1_556 S
C769 C768 1.382 . S
C769 H780 0.952 1_556 S
C770 C767 1.388 . S
C770 C771 1.382 . S
C770 H795 0.950 . S
C771 N766 1.312 1_556 S
C771 C770 1.382 . S
C771 H781 0.948 . S
N772 Co750 2.282 . S
N772 C776 1.332 . S
N772 C777 1.332 . S
C773 C774 1.388 . S
C773 C777 1.382 . S
C773 H796 0.950 . S
C774 C773 1.388 . S
C774 C775 1.386 . S
C775 C774 1.386 . S
C775 C776 1.382 . S
C775 H797 0.950 . S
C776 N772 1.332 . S
C776 C775 1.382 . S
C776 H778 0.952 . S
C777 N772 1.332 . S
C777 C773 1.382 . S
C777 H779 0.948 . S
H778 C776 0.952 . S
H779 C777 0.948 . S
H780 C769 0.952 1_554 S
H781 C771 0.948 . S
C782 C748 1.395 . S
C782 C752 1.391 . S
C783 C745 1.389 . S
C783 C765 1.392 . S
C784 C755 1.392 . S
C784 C757 1.389 . S
C785 C760 1.395 . S
C785 C762 1.391 . S
H786 C746 0.951 . S
H787 C747 0.950 . S
H788 C753 0.949 . S
H789 C754 0.950 . S
H790 C758 0.951 . S
H791 C759 0.950 . S
H792 C763 0.949 . S
H793 C764 0.950 . S
H794 C768 0.950 . S
H795 C770 0.950 . S
H796 C773 0.950 . S
H797 C775 0.950 . S
H798 C806 0.929 . S
H799 C808 0.930 . S
H800 C810 0.930 . S
H801 C813 0.929 . S
H802 C816 0.930 . S
H803 C818 0.960 . S
H804 C818 0.960 . S
H805 C818 0.960 . S
C806 H798 0.929 . S
C806 C807 1.377 . S
C806 C808 1.384 . S
C807 C806 1.377 . S
C807 C813 1.390 . S
C808 H799 0.930 . S
C808 C806 1.384 . S
C808 C809 1.372 . S
C809 C808 1.372 . S
C809 C810 1.400 . S
C809 C814 1.490 . S
C810 H800 0.930 . S
C810 C809 1.400 . S
C810 C813 1.386 . S
H811 C827 0.930 . S
H812 C828 0.931 . S
C813 H801 0.929 . S
C813 C807 1.390 . S
C813 C810 1.386 . S
C814 C809 1.490 . S
C814 C816 1.395 . S
C814 C817 1.403 . S
H815 C821 0.930 . S
C816 H802 0.930 . S
C816 C814 1.395 . S
C816 C819 1.403 . S
C817 C814 1.403 . S
C817 C818 1.524 . S
C817 C821 1.400 . S
C818 H803 0.960 . S
C818 H804 0.960 . S
C818 H805 0.960 . S
C818 C817 1.524 . S
C819 C816 1.403 . S
C819 C820 1.392 . S
C819 C823 1.495 . S
C820 C819 1.392 . S
C820 C821 1.385 . S
C820 C822 1.478 . S
C821 H815 0.930 . S
C821 C817 1.400 . S
C821 C820 1.385 . S
C822 C820 1.478 . S
C822 C824 1.381 . S
C822 C828 1.383 . S
C823 C819 1.495 . S
C823 H829 0.959 . S
C823 H830 0.961 . S
C823 H831 0.960 . S
C824 C822 1.381 . S
C824 C825 1.394 . S
C824 H832 0.930 . S
C825 C824 1.394 . S
C825 C826 1.383 . S
C825 H833 0.929 . S
C826 C825 1.383 . S
C826 C827 1.377 . S
C827 H811 0.930 . S
C827 C826 1.377 . S
C827 C828 1.379 . S
C828 H812 0.931 . S
C828 C822 1.383 . S
C828 C827 1.379 . S
H829 C823 0.959 . S
H830 C823 0.961 . S
H831 C823 0.960 . S
H832 C824 0.930 . S
H833 C825 0.929 . S
H834 C842 0.929 . S
H835 C844 0.930 . S
H836 C846 0.930 . S
H837 C849 0.929 . S
H838 C852 0.930 . S
H839 C854 0.960 . S
H840 C854 0.960 . S
H841 C854 0.960 . S
C842 H834 0.929 . S
C842 C843 1.377 . S
C842 C844 1.384 . S
C843 C842 1.377 . S
C843 C849 1.390 . S
C844 H835 0.930 . S
C844 C842 1.384 . S
C844 C845 1.372 . S
C845 C844 1.372 . S
C845 C846 1.400 . S
C845 C850 1.490 . S
C846 H836 0.930 . S
C846 C845 1.400 . S
C846 C849 1.386 . S
H847 C863 0.930 . S
H848 C864 0.931 . S
C849 H837 0.929 . S
C849 C843 1.390 . S
C849 C846 1.386 . S
C850 C845 1.490 . S
C850 C852 1.395 . S
C850 C853 1.403 . S
H851 C857 0.930 . S
C852 H838 0.930 . S
C852 C850 1.395 . S
C852 C855 1.403 . S
C853 C850 1.403 . S
C853 C854 1.524 . S
C853 C857 1.400 . S
C854 H839 0.960 . S
C854 H840 0.960 . S
C854 H841 0.960 . S
C854 C853 1.524 . S
C855 C852 1.403 . S
C855 C856 1.392 . S
C855 C859 1.495 . S
C856 C855 1.392 . S
C856 C857 1.385 . S
C856 C858 1.478 . S
C857 H851 0.930 . S
C857 C853 1.400 . S
C857 C856 1.385 . S
C858 C856 1.478 . S
C858 C860 1.381 . S
C858 C864 1.383 . S
C859 C855 1.495 . S
C859 H865 0.959 . S
C859 H866 0.961 . S
C859 H867 0.960 . S
C860 C858 1.381 . S
C860 C861 1.394 . S
C860 H868 0.930 . S
C861 C860 1.394 . S
C861 C862 1.383 . S
C861 H869 0.929 . S
C862 C861 1.383 . S
C862 C863 1.377 . S
C863 H847 0.930 . S
C863 C862 1.377 . S
C863 C864 1.379 . S
C864 H848 0.931 . S
C864 C858 1.383 . S
C864 C863 1.379 . S
H865 C859 0.959 . S
H866 C859 0.961 . S
H867 C859 0.960 . S
H868 C860 0.930 . S
H869 C861 0.929 . S
H870 C878 0.929 . S
H871 C880 0.930 . S
H872 C882 0.930 . S
H873 C885 0.929 . S
H874 C888 0.930 . S
H875 C890 0.960 . S
H876 C890 0.960 . S
H877 C890 0.960 . S
C878 H870 0.929 . S
C878 C879 1.377 . S
C878 C880 1.384 . S
C879 C878 1.377 . S
C879 C885 1.390 . S
C880 H871 0.930 . S
C880 C878 1.384 . S
C880 C881 1.372 . S
C881 C880 1.372 . S
C881 C882 1.400 . S
C881 C886 1.490 . S
C882 H872 0.930 . S
C882 C881 1.400 . S
C882 C885 1.386 . S
H883 C899 0.930 . S
H884 C900 0.931 . S
C885 H873 0.929 . S
C885 C879 1.390 . S
C885 C882 1.386 . S
C886 C881 1.490 . S
C886 C888 1.395 . S
C886 C889 1.403 . S
H887 C893 0.930 . S
C888 H874 0.930 . S
C888 C886 1.395 . S
C888 C891 1.403 . S
C889 C886 1.403 . S
C889 C890 1.524 . S
C889 C893 1.400 . S
C890 H875 0.960 . S
C890 H876 0.960 . S
C890 H877 0.960 . S
C890 C889 1.524 . S
C891 C888 1.403 . S
C891 C892 1.392 . S
C891 C895 1.495 . S
C892 C891 1.392 . S
C892 C893 1.385 . S
C892 C894 1.478 . S
C893 H887 0.930 . S
C893 C889 1.400 . S
C893 C892 1.385 . S
C894 C892 1.478 . S
C894 C896 1.381 . S
C894 C900 1.383 . S
C895 C891 1.495 . S
C895 H901 0.959 . S
C895 H902 0.961 . S
C895 H903 0.960 . S
C896 C894 1.381 . S
C896 C897 1.394 . S
C896 H904 0.930 . S
C897 C896 1.394 . S
C897 C898 1.383 . S
C897 H905 0.929 . S
C898 C897 1.383 . S
C898 C899 1.377 . S
C899 H883 0.930 . S
C899 C898 1.377 . S
C899 C900 1.379 . S
C900 H884 0.931 . S
C900 C894 1.383 . S
C900 C899 1.379 . S
H901 C895 0.959 . S
H902 C895 0.961 . S
H903 C895 0.960 . S
H904 C896 0.930 . S
H905 C897 0.929 . S
H906 C914 0.929 . S
H907 C916 0.930 . S
H908 C918 0.930 . S
H909 C921 0.929 . S
H910 C924 0.930 . S
H911 C926 0.960 . S
H912 C926 0.960 . S
H913 C926 0.960 . S
C914 H906 0.929 . S
C914 C915 1.377 . S
C914 C916 1.384 . S
C915 C914 1.377 . S
C915 C921 1.390 . S
C916 H907 0.930 . S
C916 C914 1.384 . S
C916 C917 1.372 . S
C917 C916 1.372 . S
C917 C918 1.400 . S
C917 C922 1.490 . S
C918 H908 0.930 . S
C918 C917 1.400 . S
C918 C921 1.386 . S
H919 C935 0.930 . S
H920 C936 0.931 . S
C921 H909 0.929 . S
C921 C915 1.390 . S
C921 C918 1.386 . S
C922 C917 1.490 . S
C922 C924 1.395 . S
C922 C925 1.403 . S
H923 C929 0.930 . S
C924 H910 0.930 . S
C924 C922 1.395 . S
C924 C927 1.403 . S
C925 C922 1.403 . S
C925 C926 1.524 . S
C925 C929 1.400 . S
C926 H911 0.960 . S
C926 H912 0.960 . S
C926 H913 0.960 . S
C926 C925 1.524 . S
C927 C924 1.403 . S
C927 C928 1.392 . S
C927 C931 1.495 . S
C928 C927 1.392 . S
C928 C929 1.385 . S
C928 C930 1.478 . S
C929 H923 0.930 . S
C929 C925 1.400 . S
C929 C928 1.385 . S
C930 C928 1.478 . S
C930 C932 1.381 . S
C930 C936 1.383 . S
C931 C927 1.495 . S
C931 H937 0.959 . S
C931 H938 0.961 . S
C931 H939 0.960 . S
C932 C930 1.381 . S
C932 C933 1.394 . S
C932 H940 0.930 . S
C933 C932 1.394 . S
C933 C934 1.383 . S
C933 H941 0.929 . S
C934 C933 1.383 . S
C934 C935 1.377 . S
C935 H919 0.930 . S
C935 C934 1.377 . S
C935 C936 1.379 . S
C936 H920 0.931 . S
C936 C930 1.383 . S
C936 C935 1.379 . S
H937 C931 0.959 . S
H938 C931 0.961 . S
H939 C931 0.960 . S
H940 C932 0.930 . S
H941 C933 0.929 . S
H942 C950 0.929 . S
H943 C952 0.930 . S
H944 C954 0.930 . S
H945 C957 0.929 . S
H946 C960 0.930 . S
H947 C962 0.960 . S
H948 C962 0.960 . S
H949 C962 0.960 . S
C950 H942 0.929 . S
C950 C951 1.377 . S
C950 C952 1.384 . S
C951 C950 1.377 . S
C951 C957 1.390 . S
C952 H943 0.930 . S
C952 C950 1.384 . S
C952 C953 1.372 . S
C953 C952 1.372 . S
C953 C954 1.400 . S
C953 C958 1.490 . S
C954 H944 0.930 . S
C954 C953 1.400 . S
C954 C957 1.386 . S
H955 C971 0.930 . S
H956 C972 0.931 . S
C957 H945 0.929 . S
C957 C951 1.390 . S
C957 C954 1.386 . S
C958 C953 1.490 . S
C958 C960 1.395 . S
C958 C961 1.403 . S
H959 C965 0.930 . S
C960 H946 0.930 . S
C960 C958 1.395 . S
C960 C963 1.403 . S
C961 C958 1.403 . S
C961 C962 1.524 . S
C961 C965 1.400 . S
C962 H947 0.960 . S
C962 H948 0.960 . S
C962 H949 0.960 . S
C962 C961 1.524 . S
C963 C960 1.403 . S
C963 C964 1.392 . S
C963 C967 1.495 . S
C964 C963 1.392 . S
C964 C965 1.385 . S
C964 C966 1.478 . S
C965 H959 0.930 . S
C965 C961 1.400 . S
C965 C964 1.385 . S
C966 C964 1.478 . S
C966 C968 1.381 . S
C966 C972 1.383 . S
C967 C963 1.495 . S
C967 H973 0.959 . S
C967 H974 0.961 . S
C967 H975 0.960 . S
C968 C966 1.381 . S
C968 C969 1.394 . S
C968 H976 0.930 . S
C969 C968 1.394 . S
C969 C970 1.383 . S
C969 H977 0.929 . S
C970 C969 1.383 . S
C970 C971 1.377 . S
C971 H955 0.930 . S
C971 C970 1.377 . S
C971 C972 1.379 . S
C972 H956 0.931 . S
C972 C966 1.383 . S
C972 C971 1.379 . S
H973 C967 0.959 . S
H974 C967 0.961 . S
H975 C967 0.960 . S
H976 C968 0.930 . S
H977 C969 0.929 . S
H978 C986 0.929 . S
H979 C988 0.930 . S
H980 C990 0.930 . S
H981 C993 0.929 . S
H982 C996 0.930 . S
H983 C998 0.960 . S
H984 C998 0.960 . S
H985 C998 0.960 . S
C986 H978 0.929 . S
C986 C987 1.377 . S
C986 C988 1.384 . S
C987 C986 1.377 . S
C987 C993 1.390 . S
C988 H979 0.930 . S
C988 C986 1.384 . S
C988 C989 1.372 . S
C989 C988 1.372 . S
C989 C990 1.400 . S
C989 C994 1.490 . S
C990 H980 0.930 . S
C990 C989 1.400 . S
C990 C993 1.386 . S
H991 C1007 0.930 . S
H992 C1008 0.931 . S
C993 H981 0.929 . S
C993 C987 1.390 . S
C993 C990 1.386 . S
C994 C989 1.490 . S
C994 C996 1.395 . S
C994 C997 1.403 . S
H995 C1001 0.930 . S
C996 H982 0.930 . S
C996 C994 1.395 . S
C996 C999 1.403 . S
C997 C994 1.403 . S
C997 C998 1.524 . S
C997 C1001 1.400 . S
C998 H983 0.960 . S
C998 H984 0.960 . S
C998 H985 0.960 . S
C998 C997 1.524 . S
C999 C996 1.403 . S
C999 C1000 1.392 . S
C999 C1003 1.495 . S
C1000 C999 1.392 . S
C1000 C1001 1.385 . S
C1000 C1002 1.478 . S
C1001 H995 0.930 . S
C1001 C997 1.400 . S
C1001 C1000 1.385 . S
C1002 C1000 1.478 . S
C1002 C1004 1.381 . S
C1002 C1008 1.383 . S
C1003 C999 1.495 . S
C1003 H1009 0.959 . S
C1003 H1010 0.961 . S
C1003 H1011 0.960 . S
C1004 C1002 1.381 . S
C1004 C1005 1.394 . S
C1004 H1012 0.930 . S
C1005 C1004 1.394 . S
C1005 C1006 1.383 . S
C1005 H1013 0.929 . S
C1006 C1005 1.383 . S
C1006 C1007 1.377 . S
C1007 H991 0.930 . S
C1007 C1006 1.377 . S
C1007 C1008 1.379 . S
C1008 H992 0.931 . S
C1008 C1002 1.383 . S
C1008 C1007 1.379 . S
H1009 C1003 0.959 . S
H1010 C1003 0.961 . S
H1011 C1003 0.960 . S
H1012 C1004 0.930 . S
H1013 C1005 0.929 . S
H1014 C1022 0.929 . S
H1015 C1024 0.930 . S
H1016 C1026 0.930 . S
H1017 C1029 0.929 . S
H1018 C1032 0.930 . S
H1019 C1034 0.960 . S
H1020 C1034 0.960 . S
H1021 C1034 0.960 . S
C1022 H1014 0.929 . S
C1022 C1023 1.377 . S
C1022 C1024 1.384 . S
C1023 C1022 1.377 . S
C1023 C1029 1.390 . S
C1024 H1015 0.930 . S
C1024 C1022 1.384 . S
C1024 C1025 1.372 . S
C1025 C1024 1.372 . S
C1025 C1026 1.400 . S
C1025 C1030 1.490 . S
C1026 H1016 0.930 . S
C1026 C1025 1.400 . S
C1026 C1029 1.386 . S
H1027 C1043 0.930 . S
H1028 C1044 0.931 . S
C1029 H1017 0.929 . S
C1029 C1023 1.390 . S
C1029 C1026 1.386 . S
C1030 C1025 1.490 . S
C1030 C1032 1.395 . S
C1030 C1033 1.403 . S
H1031 C1037 0.930 . S
C1032 H1018 0.930 . S
C1032 C1030 1.395 . S
C1032 C1035 1.403 . S
C1033 C1030 1.403 . S
C1033 C1034 1.524 . S
C1033 C1037 1.400 . S
C1034 H1019 0.960 . S
C1034 H1020 0.960 . S
C1034 H1021 0.960 . S
C1034 C1033 1.524 . S
C1035 C1032 1.403 . S
C1035 C1036 1.392 . S
C1035 C1039 1.495 . S
C1036 C1035 1.392 . S
C1036 C1037 1.385 . S
C1036 C1038 1.478 . S
C1037 H1031 0.930 . S
C1037 C1033 1.400 . S
C1037 C1036 1.385 . S
C1038 C1036 1.478 . S
C1038 C1040 1.381 . S
C1038 C1044 1.383 . S
C1039 C1035 1.495 . S
C1039 H1045 0.959 . S
C1039 H1046 0.961 . S
C1039 H1047 0.960 . S
C1040 C1038 1.381 . S
C1040 C1041 1.394 . S
C1040 H1048 0.930 . S
C1041 C1040 1.394 . S
C1041 C1042 1.383 . S
C1041 H1049 0.929 . S
C1042 C1041 1.383 . S
C1042 C1043 1.377 . S
C1043 H1027 0.930 . S
C1043 C1042 1.377 . S
C1043 C1044 1.379 . S
C1044 H1028 0.931 . S
C1044 C1038 1.383 . S
C1044 C1043 1.379 . S
H1045 C1039 0.959 . S
H1046 C1039 0.961 . S
H1047 C1039 0.960 . S
H1048 C1040 0.930 . S
H1049 C1041 0.929 . S
H1050 C1058 0.929 . S
H1051 C1060 0.930 . S
H1052 C1062 0.930 . S
H1053 C1065 0.929 . S
H1054 C1068 0.930 . S
H1055 C1070 0.960 . S
H1056 C1070 0.960 . S
H1057 C1070 0.960 . S
C1058 H1050 0.929 . S
C1058 C1059 1.377 . S
C1058 C1060 1.384 . S
C1059 C1058 1.377 . S
C1059 C1065 1.390 . S
C1060 H1051 0.930 . S
C1060 C1058 1.384 . S
C1060 C1061 1.372 . S
C1061 C1060 1.372 . S
C1061 C1062 1.400 . S
C1061 C1066 1.490 . S
C1062 H1052 0.930 . S
C1062 C1061 1.400 . S
C1062 C1065 1.386 . S
H1063 C1079 0.930 . S
H1064 C1080 0.931 . S
C1065 H1053 0.929 . S
C1065 C1059 1.390 . S
C1065 C1062 1.386 . S
C1066 C1061 1.490 . S
C1066 C1068 1.395 . S
C1066 C1069 1.403 . S
H1067 C1073 0.930 . S
C1068 H1054 0.930 . S
C1068 C1066 1.395 . S
C1068 C1071 1.403 . S
C1069 C1066 1.403 . S
C1069 C1070 1.524 . S
C1069 C1073 1.400 . S
C1070 H1055 0.960 . S
C1070 H1056 0.960 . S
C1070 H1057 0.960 . S
C1070 C1069 1.524 . S
C1071 C1068 1.403 . S
C1071 C1072 1.392 . S
C1071 C1075 1.495 . S
C1072 C1071 1.392 . S
C1072 C1073 1.385 . S
C1072 C1074 1.478 . S
C1073 H1067 0.930 . S
C1073 C1069 1.400 . S
C1073 C1072 1.385 . S
C1074 C1072 1.478 . S
C1074 C1076 1.381 . S
C1074 C1080 1.383 . S
C1075 C1071 1.495 . S
C1075 H1081 0.959 . S
C1075 H1082 0.961 . S
C1075 H1083 0.960 . S
C1076 C1074 1.381 . S
C1076 C1077 1.394 . S
C1076 H1084 0.930 . S
C1077 C1076 1.394 . S
C1077 C1078 1.383 . S
C1077 H1085 0.929 . S
C1078 C1077 1.383 . S
C1078 C1079 1.377 . S
C1079 H1063 0.930 . S
C1079 C1078 1.377 . S
C1079 C1080 1.379 . S
C1080 H1064 0.931 . S
C1080 C1074 1.383 . S
C1080 C1079 1.379 . S
H1081 C1075 0.959 . S
H1082 C1075 0.961 . S
H1083 C1075 0.960 . S
H1084 C1076 0.930 . S
H1085 C1077 0.929 . S
H1086 C1094 0.929 . S
H1087 C1096 0.930 . S
H1088 C1098 0.930 . S
H1089 C1101 0.929 . S
H1090 C1104 0.930 . S
H1091 C1106 0.960 . S
H1092 C1106 0.960 . S
H1093 C1106 0.960 . S
C1094 H1086 0.929 . S
C1094 C1095 1.377 . S
C1094 C1096 1.384 . S
C1095 C1094 1.377 . S
C1095 C1101 1.390 . S
C1096 H1087 0.930 . S
C1096 C1094 1.384 . S
C1096 C1097 1.372 . S
C1097 C1096 1.372 . S
C1097 C1098 1.400 . S
C1097 C1102 1.490 . S
C1098 H1088 0.930 . S
C1098 C1097 1.400 . S
C1098 C1101 1.386 . S
H1099 C1115 0.930 . S
H1100 C1116 0.931 . S
C1101 H1089 0.929 . S
C1101 C1095 1.390 . S
C1101 C1098 1.386 . S
C1102 C1097 1.490 . S
C1102 C1104 1.395 . S
C1102 C1105 1.403 . S
H1103 C1109 0.930 . S
C1104 H1090 0.930 . S
C1104 C1102 1.395 . S
C1104 C1107 1.403 . S
C1105 C1102 1.403 . S
C1105 C1106 1.524 . S
C1105 C1109 1.400 . S
C1106 H1091 0.960 . S
C1106 H1092 0.960 . S
C1106 H1093 0.960 . S
C1106 C1105 1.524 . S
C1107 C1104 1.403 . S
C1107 C1108 1.392 . S
C1107 C1111 1.495 . S
C1108 C1107 1.392 . S
C1108 C1109 1.385 . S
C1108 C1110 1.478 . S
C1109 H1103 0.930 . S
C1109 C1105 1.400 . S
C1109 C1108 1.385 . S
C1110 C1108 1.478 . S
C1110 C1112 1.381 . S
C1110 C1116 1.383 . S
C1111 C1107 1.495 . S
C1111 H1117 0.959 . S
C1111 H1118 0.961 . S
C1111 H1119 0.960 . S
C1112 C1110 1.381 . S
C1112 C1113 1.394 . S
C1112 H1120 0.930 . S
C1113 C1112 1.394 . S
C1113 C1114 1.383 . S
C1113 H1121 0.929 . S
C1114 C1113 1.383 . S
C1114 C1115 1.377 . S
C1115 H1099 0.930 . S
C1115 C1114 1.377 . S
C1115 C1116 1.379 . S
C1116 H1100 0.931 . S
C1116 C1110 1.383 . S
C1116 C1115 1.379 . S
H1117 C1111 0.959 . S
H1118 C1111 0.961 . S
H1119 C1111 0.960 . S
H1120 C1112 0.930 . S
H1121 C1113 0.929 . S
H1122 C1130 0.929 . S
H1123 C1132 0.930 . S
H1124 C1134 0.930 . S
H1125 C1137 0.929 . S
H1126 C1140 0.930 . S
H1127 C1142 0.960 . S
H1128 C1142 0.960 . S
H1129 C1142 0.960 . S
C1130 H1122 0.929 . S
C1130 C1131 1.377 . S
C1130 C1132 1.384 . S
C1131 C1130 1.377 . S
C1131 C1137 1.390 . S
C1132 H1123 0.930 . S
C1132 C1130 1.384 . S
C1132 C1133 1.372 . S
C1133 C1132 1.372 . S
C1133 C1134 1.400 . S
C1133 C1138 1.490 . S
C1134 H1124 0.930 . S
C1134 C1133 1.400 . S
C1134 C1137 1.386 . S
H1135 C1151 0.930 . S
H1136 C1152 0.931 . S
C1137 H1125 0.929 . S
C1137 C1131 1.390 . S
C1137 C1134 1.386 . S
C1138 C1133 1.490 . S
C1138 C1140 1.395 . S
C1138 C1141 1.403 . S
H1139 C1145 0.930 . S
C1140 H1126 0.930 . S
C1140 C1138 1.395 . S
C1140 C1143 1.403 . S
C1141 C1138 1.403 . S
C1141 C1142 1.524 . S
C1141 C1145 1.400 . S
C1142 H1127 0.960 . S
C1142 H1128 0.960 . S
C1142 H1129 0.960 . S
C1142 C1141 1.524 . S
C1143 C1140 1.403 . S
C1143 C1144 1.392 . S
C1143 C1147 1.495 . S
C1144 C1143 1.392 . S
C1144 C1145 1.385 . S
C1144 C1146 1.478 . S
C1145 H1139 0.930 . S
C1145 C1141 1.400 . S
C1145 C1144 1.385 . S
C1146 C1144 1.478 . S
C1146 C1148 1.381 . S
C1146 C1152 1.383 . S
C1147 C1143 1.495 . S
C1147 H1153 0.959 . S
C1147 H1154 0.961 . S
C1147 H1155 0.960 . S
C1148 C1146 1.381 . S
C1148 C1149 1.394 . S
C1148 H1156 0.930 . S
C1149 C1148 1.394 . S
C1149 C1150 1.383 . S
C1149 H1157 0.929 . S
C1150 C1149 1.383 . S
C1150 C1151 1.377 . S
C1151 H1135 0.930 . S
C1151 C1150 1.377 . S
C1151 C1152 1.379 . S
C1152 H1136 0.931 . S
C1152 C1146 1.383 . S
C1152 C1151 1.379 . S
H1153 C1147 0.959 . S
H1154 C1147 0.961 . S
H1155 C1147 0.960 . S
H1156 C1148 0.930 . S
H1157 C1149 0.929 . S
H1158 C1166 0.929 . S
H1159 C1168 0.930 . S
H1160 C1170 0.930 . S
H1161 C1173 0.929 . S
H1162 C1176 0.930 . S
H1163 C1178 0.960 . S
H1164 C1178 0.960 . S
H1165 C1178 0.960 . S
C1166 H1158 0.929 . S
C1166 C1167 1.377 . S
C1166 C1168 1.384 . S
C1167 C1166 1.377 . S
C1167 C1173 1.390 . S
C1168 H1159 0.930 . S
C1168 C1166 1.384 . S
C1168 C1169 1.372 . S
C1169 C1168 1.372 . S
C1169 C1170 1.400 . S
C1169 C1174 1.490 . S
C1170 H1160 0.930 . S
C1170 C1169 1.400 . S
C1170 C1173 1.386 . S
H1171 C1187 0.930 . S
H1172 C1188 0.931 . S
C1173 H1161 0.929 . S
C1173 C1167 1.390 . S
C1173 C1170 1.386 . S
C1174 C1169 1.490 . S
C1174 C1176 1.395 . S
C1174 C1177 1.403 . S
H1175 C1181 0.930 . S
C1176 H1162 0.930 . S
C1176 C1174 1.395 . S
C1176 C1179 1.403 . S
C1177 C1174 1.403 . S
C1177 C1178 1.524 . S
C1177 C1181 1.400 . S
C1178 H1163 0.960 . S
C1178 H1164 0.960 . S
C1178 H1165 0.960 . S
C1178 C1177 1.524 . S
C1179 C1176 1.403 . S
C1179 C1180 1.392 . S
C1179 C1183 1.495 . S
C1180 C1179 1.392 . S
C1180 C1181 1.385 . S
C1180 C1182 1.478 . S
C1181 H1175 0.930 . S
C1181 C1177 1.400 . S
C1181 C1180 1.385 . S
C1182 C1180 1.478 . S
C1182 C1184 1.381 . S
C1182 C1188 1.383 . S
C1183 C1179 1.495 . S
C1183 H1189 0.959 . S
C1183 H1190 0.961 . S
C1183 H1191 0.960 . S
C1184 C1182 1.381 . S
C1184 C1185 1.394 . S
C1184 H1192 0.930 . S
C1185 C1184 1.394 . S
C1185 C1186 1.383 . S
C1185 H1193 0.929 . S
C1186 C1185 1.383 . S
C1186 C1187 1.377 . S
C1187 H1171 0.930 . S
C1187 C1186 1.377 . S
C1187 C1188 1.379 . S
C1188 H1172 0.931 . S
C1188 C1182 1.383 . S
C1188 C1187 1.379 . S
H1189 C1183 0.959 . S
H1190 C1183 0.961 . S
H1191 C1183 0.960 . S
H1192 C1184 0.930 . S
H1193 C1185 0.929 . S
H1194 C1202 0.929 . S
H1195 C1204 0.930 . S
H1196 C1206 0.930 . S
H1197 C1209 0.929 . S
H1198 C1212 0.930 . S
H1199 C1214 0.960 . S
H1200 C1214 0.960 . S
H1201 C1214 0.960 . S
C1202 H1194 0.929 . S
C1202 C1203 1.377 . S
C1202 C1204 1.384 . S
C1203 C1202 1.377 . S
C1203 C1209 1.390 . S
C1204 H1195 0.930 . S
C1204 C1202 1.384 . S
C1204 C1205 1.372 . S
C1205 C1204 1.372 . S
C1205 C1206 1.400 . S
C1205 C1210 1.490 . S
C1206 H1196 0.930 . S
C1206 C1205 1.400 . S
C1206 C1209 1.386 . S
H1207 C1223 0.930 . S
H1208 C1224 0.931 . S
C1209 H1197 0.929 . S
C1209 C1203 1.390 . S
C1209 C1206 1.386 . S
C1210 C1205 1.490 . S
C1210 C1212 1.395 . S
C1210 C1213 1.403 . S
H1211 C1217 0.930 . S
C1212 H1198 0.930 . S
C1212 C1210 1.395 . S
C1212 C1215 1.403 . S
C1213 C1210 1.403 . S
C1213 C1214 1.524 . S
C1213 C1217 1.400 . S
C1214 H1199 0.960 . S
C1214 H1200 0.960 . S
C1214 H1201 0.960 . S
C1214 C1213 1.524 . S
C1215 C1212 1.403 . S
C1215 C1216 1.392 . S
C1215 C1219 1.495 . S
C1216 C1215 1.392 . S
C1216 C1217 1.385 . S
C1216 C1218 1.478 . S
C1217 H1211 0.930 . S
C1217 C1213 1.400 . S
C1217 C1216 1.385 . S
C1218 C1216 1.478 . S
C1218 C1220 1.381 . S
C1218 C1224 1.383 . S
C1219 C1215 1.495 . S
C1219 H1225 0.959 . S
C1219 H1226 0.961 . S
C1219 H1227 0.960 . S
C1220 C1218 1.381 . S
C1220 C1221 1.394 . S
C1220 H1228 0.930 . S
C1221 C1220 1.394 . S
C1221 C1222 1.383 . S
C1221 H1229 0.929 . S
C1222 C1221 1.383 . S
C1222 C1223 1.377 . S
C1223 H1207 0.930 . S
C1223 C1222 1.377 . S
C1223 C1224 1.379 . S
C1224 H1208 0.931 . S
C1224 C1218 1.383 . S
C1224 C1223 1.379 . S
H1225 C1219 0.959 . S
H1226 C1219 0.961 . S
H1227 C1219 0.960 . S
H1228 C1220 0.930 . S
H1229 C1221 0.929 . S
H1230 C1238 0.929 . S
H1231 C1240 0.930 . S
H1232 C1242 0.930 . S
H1233 C1245 0.929 . S
H1234 C1248 0.930 . S
H1235 C1250 0.960 . S
H1236 C1250 0.960 . S
H1237 C1250 0.960 . S
C1238 H1230 0.929 . S
C1238 C1239 1.377 . S
C1238 C1240 1.384 . S
C1239 C1238 1.377 . S
C1239 C1245 1.390 . S
C1240 H1231 0.930 . S
C1240 C1238 1.384 . S
C1240 C1241 1.372 . S
C1241 C1240 1.372 . S
C1241 C1242 1.400 . S
C1241 C1246 1.490 . S
C1242 H1232 0.930 . S
C1242 C1241 1.400 . S
C1242 C1245 1.386 . S
H1243 C1259 0.930 . S
H1244 C1260 0.931 . S
C1245 H1233 0.929 . S
C1245 C1239 1.390 . S
C1245 C1242 1.386 . S
C1246 C1241 1.490 . S
C1246 C1248 1.395 . S
C1246 C1249 1.403 . S
H1247 C1253 0.930 . S
C1248 H1234 0.930 . S
C1248 C1246 1.395 . S
C1248 C1251 1.403 . S
C1249 C1246 1.403 . S
C1249 C1250 1.524 . S
C1249 C1253 1.400 . S
C1250 H1235 0.960 . S
C1250 H1236 0.960 . S
C1250 H1237 0.960 . S
C1250 C1249 1.524 . S
C1251 C1248 1.403 . S
C1251 C1252 1.392 . S
C1251 C1255 1.495 . S
C1252 C1251 1.392 . S
C1252 C1253 1.385 . S
C1252 C1254 1.478 . S
C1253 H1247 0.930 . S
C1253 C1249 1.400 . S
C1253 C1252 1.385 . S
C1254 C1252 1.478 . S
C1254 C1256 1.381 . S
C1254 C1260 1.383 . S
C1255 C1251 1.495 . S
C1255 H1261 0.959 . S
C1255 H1262 0.961 . S
C1255 H1263 0.960 . S
C1256 C1254 1.381 . S
C1256 C1257 1.394 . S
C1256 H1264 0.930 . S
C1257 C1256 1.394 . S
C1257 C1258 1.383 . S
C1257 H1265 0.929 . S
C1258 C1257 1.383 . S
C1258 C1259 1.377 . S
C1259 H1243 0.930 . S
C1259 C1258 1.377 . S
C1259 C1260 1.379 . S
C1260 H1244 0.931 . S
C1260 C1254 1.383 . S
C1260 C1259 1.379 . S
H1261 C1255 0.959 . S
H1262 C1255 0.961 . S
H1263 C1255 0.960 . S
H1264 C1256 0.930 . S
H1265 C1257 0.929 . S
H1266 C1274 0.929 . S
H1267 C1276 0.930 . S
H1268 C1278 0.930 . S
H1269 C1281 0.929 . S
H1270 C1284 0.930 . S
H1271 C1286 0.960 . S
H1272 C1286 0.960 . S
H1273 C1286 0.960 . S
C1274 H1266 0.929 . S
C1274 C1275 1.377 . S
C1274 C1276 1.384 . S
C1275 C1274 1.377 . S
C1275 C1281 1.390 . S
C1276 H1267 0.930 . S
C1276 C1274 1.384 . S
C1276 C1277 1.372 . S
C1277 C1276 1.372 . S
C1277 C1278 1.400 . S
C1277 C1282 1.490 . S
C1278 H1268 0.930 . S
C1278 C1277 1.400 . S
C1278 C1281 1.386 . S
H1279 C1295 0.930 . S
H1280 C1296 0.931 . S
C1281 H1269 0.929 . S
C1281 C1275 1.390 . S
C1281 C1278 1.386 . S
C1282 C1277 1.490 . S
C1282 C1284 1.395 . S
C1282 C1285 1.403 . S
H1283 C1289 0.930 . S
C1284 H1270 0.930 . S
C1284 C1282 1.395 . S
C1284 C1287 1.403 . S
C1285 C1282 1.403 . S
C1285 C1286 1.524 . S
C1285 C1289 1.400 . S
C1286 H1271 0.960 . S
C1286 H1272 0.960 . S
C1286 H1273 0.960 . S
C1286 C1285 1.524 . S
C1287 C1284 1.403 . S
C1287 C1288 1.392 . S
C1287 C1291 1.495 . S
C1288 C1287 1.392 . S
C1288 C1289 1.385 . S
C1288 C1290 1.478 . S
C1289 H1283 0.930 . S
C1289 C1285 1.400 . S
C1289 C1288 1.385 . S
C1290 C1288 1.478 . S
C1290 C1292 1.381 . S
C1290 C1296 1.383 . S
C1291 C1287 1.495 . S
C1291 H1297 0.959 . S
C1291 H1298 0.961 . S
C1291 H1299 0.960 . S
C1292 C1290 1.381 . S
C1292 C1293 1.394 . S
C1292 H1300 0.930 . S
C1293 C1292 1.394 . S
C1293 C1294 1.383 . S
C1293 H1301 0.929 . S
C1294 C1293 1.383 . S
C1294 C1295 1.377 . S
C1295 H1279 0.930 . S
C1295 C1294 1.377 . S
C1295 C1296 1.379 . S
C1296 H1280 0.931 . S
C1296 C1290 1.383 . S
C1296 C1295 1.379 . S
H1297 C1291 0.959 . S
H1298 C1291 0.961 . S
H1299 C1291 0.960 . S
H1300 C1292 0.930 . S
H1301 C1293 0.929 . S
H1302 C1310 0.929 . S
H1303 C1312 0.930 . S
H1304 C1314 0.930 . S
H1305 C1317 0.929 . S
H1306 C1320 0.930 . S
H1307 C1322 0.960 . S
H1308 C1322 0.960 . S
H1309 C1322 0.960 . S
C1310 H1302 0.929 . S
C1310 C1311 1.377 . S
C1310 C1312 1.384 . S
C1311 C1310 1.377 . S
C1311 C1317 1.390 . S
C1312 H1303 0.930 . S
C1312 C1310 1.384 . S
C1312 C1313 1.372 . S
C1313 C1312 1.372 . S
C1313 C1314 1.400 . S
C1313 C1318 1.490 . S
C1314 H1304 0.930 . S
C1314 C1313 1.400 . S
C1314 C1317 1.386 . S
H1315 C1331 0.930 . S
H1316 C1332 0.931 . S
C1317 H1305 0.929 . S
C1317 C1311 1.390 . S
C1317 C1314 1.386 . S
C1318 C1313 1.490 . S
C1318 C1320 1.395 . S
C1318 C1321 1.403 . S
H1319 C1325 0.930 . S
C1320 H1306 0.930 . S
C1320 C1318 1.395 . S
C1320 C1323 1.403 . S
C1321 C1318 1.403 . S
C1321 C1322 1.524 . S
C1321 C1325 1.400 . S
C1322 H1307 0.960 . S
C1322 H1308 0.960 . S
C1322 H1309 0.960 . S
C1322 C1321 1.524 . S
C1323 C1320 1.403 . S
C1323 C1324 1.392 . S
C1323 C1327 1.495 . S
C1324 C1323 1.392 . S
C1324 C1325 1.385 . S
C1324 C1326 1.478 . S
C1325 H1319 0.930 . S
C1325 C1321 1.400 . S
C1325 C1324 1.385 . S
C1326 C1324 1.478 . S
C1326 C1328 1.381 . S
C1326 C1332 1.383 . S
C1327 C1323 1.495 . S
C1327 H1333 0.959 . S
C1327 H1334 0.961 . S
C1327 H1335 0.960 . S
C1328 C1326 1.381 . S
C1328 C1329 1.394 . S
C1328 H1336 0.930 . S
C1329 C1328 1.394 . S
C1329 C1330 1.383 . S
C1329 H1337 0.929 . S
C1330 C1329 1.383 . S
C1330 C1331 1.377 . S
C1331 H1315 0.930 . S
C1331 C1330 1.377 . S
C1331 C1332 1.379 . S
C1332 H1316 0.931 . S
C1332 C1326 1.383 . S
C1332 C1331 1.379 . S
H1333 C1327 0.959 . S
H1334 C1327 0.961 . S
H1335 C1327 0.960 . S
H1336 C1328 0.930 . S
H1337 C1329 0.929 . S
H1338 C1346 0.929 . S
H1339 C1348 0.930 . S
H1340 C1350 0.930 . S
H1341 C1353 0.929 . S
H1342 C1356 0.930 . S
H1343 C1358 0.960 . S
H1344 C1358 0.960 . S
H1345 C1358 0.960 . S
C1346 H1338 0.929 . S
C1346 C1347 1.377 . S
C1346 C1348 1.384 . S
C1347 C1346 1.377 . S
C1347 C1353 1.390 . S
C1348 H1339 0.930 . S
C1348 C1346 1.384 . S
C1348 C1349 1.372 . S
C1349 C1348 1.372 . S
C1349 C1350 1.400 . S
C1349 C1354 1.490 . S
C1350 H1340 0.930 . S
C1350 C1349 1.400 . S
C1350 C1353 1.386 . S
H1351 C1367 0.930 . S
H1352 C1368 0.931 . S
C1353 H1341 0.929 . S
C1353 C1347 1.390 . S
C1353 C1350 1.386 . S
C1354 C1349 1.490 . S
C1354 C1356 1.395 . S
C1354 C1357 1.403 . S
H1355 C1361 0.930 . S
C1356 H1342 0.930 . S
C1356 C1354 1.395 . S
C1356 C1359 1.403 . S
C1357 C1354 1.403 . S
C1357 C1358 1.524 . S
C1357 C1361 1.400 . S
C1358 H1343 0.960 . S
C1358 H1344 0.960 . S
C1358 H1345 0.960 . S
C1358 C1357 1.524 . S
C1359 C1356 1.403 . S
C1359 C1360 1.392 . S
C1359 C1363 1.495 . S
C1360 C1359 1.392 . S
C1360 C1361 1.385 . S
C1360 C1362 1.478 . S
C1361 H1355 0.930 . S
C1361 C1357 1.400 . S
C1361 C1360 1.385 . S
C1362 C1360 1.478 . S
C1362 C1364 1.381 . S
C1362 C1368 1.383 . S
C1363 C1359 1.495 . S
C1363 H1369 0.959 . S
C1363 H1370 0.961 . S
C1363 H1371 0.960 . S
C1364 C1362 1.381 . S
C1364 C1365 1.394 . S
C1364 H1372 0.930 . S
C1365 C1364 1.394 . S
C1365 C1366 1.383 . S
C1365 H1373 0.929 . S
C1366 C1365 1.383 . S
C1366 C1367 1.377 . S
C1367 H1351 0.930 . S
C1367 C1366 1.377 . S
C1367 C1368 1.379 . S
C1368 H1352 0.931 . S
C1368 C1362 1.383 . S
C1368 C1367 1.379 . S
H1369 C1363 0.959 . S
H1370 C1363 0.961 . S
H1371 C1363 0.960 . S
H1372 C1364 0.930 . S
H1373 C1365 0.929 . S
H1374 C1382 0.929 . S
H1375 C1384 0.930 . S
H1376 C1386 0.930 . S
H1377 C1389 0.929 . S
H1378 C1392 0.930 . S
H1379 C1394 0.960 . S
H1380 C1394 0.960 . S
H1381 C1394 0.960 . S
C1382 H1374 0.929 . S
C1382 C1383 1.377 . S
C1382 C1384 1.384 . S
C1383 C1382 1.377 . S
C1383 C1389 1.390 . S
C1384 H1375 0.930 . S
C1384 C1382 1.384 . S
C1384 C1385 1.372 . S
C1385 C1384 1.372 . S
C1385 C1386 1.400 . S
C1385 C1390 1.490 . S
C1386 H1376 0.930 . S
C1386 C1385 1.400 . S
C1386 C1389 1.386 . S
H1387 C1403 0.930 . S
H1388 C1404 0.931 . S
C1389 H1377 0.929 . S
C1389 C1383 1.390 . S
C1389 C1386 1.386 . S
C1390 C1385 1.490 . S
C1390 C1392 1.395 . S
C1390 C1393 1.403 . S
H1391 C1397 0.930 . S
C1392 H1378 0.930 . S
C1392 C1390 1.395 . S
C1392 C1395 1.403 . S
C1393 C1390 1.403 . S
C1393 C1394 1.524 . S
C1393 C1397 1.400 . S
C1394 H1379 0.960 . S
C1394 H1380 0.960 . S
C1394 H1381 0.960 . S
C1394 C1393 1.524 . S
C1395 C1392 1.403 . S
C1395 C1396 1.392 . S
C1395 C1399 1.495 . S
C1396 C1395 1.392 . S
C1396 C1397 1.385 . S
C1396 C1398 1.478 . S
C1397 H1391 0.930 . S
C1397 C1393 1.400 . S
C1397 C1396 1.385 . S
C1398 C1396 1.478 . S
C1398 C1400 1.381 . S
C1398 C1404 1.383 . S
C1399 C1395 1.495 . S
C1399 H1405 0.959 . S
C1399 H1406 0.961 . S
C1399 H1407 0.960 . S
C1400 C1398 1.381 . S
C1400 C1401 1.394 . S
C1400 H1408 0.930 . S
C1401 C1400 1.394 . S
C1401 C1402 1.383 . S
C1401 H1409 0.929 . S
C1402 C1401 1.383 . S
C1402 C1403 1.377 . S
C1403 H1387 0.930 . S
C1403 C1402 1.377 . S
C1403 C1404 1.379 . S
C1404 H1388 0.931 . S
C1404 C1398 1.383 . S
C1404 C1403 1.379 . S
H1405 C1399 0.959 . S
H1406 C1399 0.961 . S
H1407 C1399 0.960 . S
H1408 C1400 0.930 . S
H1409 C1401 0.929 . S
H1410 C1418 0.929 . S
H1411 C1420 0.930 . S
H1412 C1422 0.930 . S
H1413 C1425 0.929 . S
H1414 C1428 0.930 . S
H1415 C1430 0.960 . S
H1416 C1430 0.960 . S
H1417 C1430 0.960 . S
C1418 H1410 0.929 . S
C1418 C1419 1.377 . S
C1418 C1420 1.384 . S
C1419 C1418 1.377 . S
C1419 C1425 1.390 . S
C1420 H1411 0.930 . S
C1420 C1418 1.384 . S
C1420 C1421 1.372 . S
C1421 C1420 1.372 . S
C1421 C1422 1.400 . S
C1421 C1426 1.490 . S
C1422 H1412 0.930 . S
C1422 C1421 1.400 . S
C1422 C1425 1.386 . S
H1423 C1439 0.930 . S
H1424 C1440 0.931 . S
C1425 H1413 0.929 . S
C1425 C1419 1.390 . S
C1425 C1422 1.386 . S
C1426 C1421 1.490 . S
C1426 C1428 1.395 . S
C1426 C1429 1.403 . S
H1427 C1433 0.930 . S
C1428 H1414 0.930 . S
C1428 C1426 1.395 . S
C1428 C1431 1.403 . S
C1429 C1426 1.403 . S
C1429 C1430 1.524 . S
C1429 C1433 1.400 . S
C1430 H1415 0.960 . S
C1430 H1416 0.960 . S
C1430 H1417 0.960 . S
C1430 C1429 1.524 . S
C1431 C1428 1.403 . S
C1431 C1432 1.392 . S
C1431 C1435 1.495 . S
C1432 C1431 1.392 . S
C1432 C1433 1.385 . S
C1432 C1434 1.478 . S
C1433 H1427 0.930 . S
C1433 C1429 1.400 . S
C1433 C1432 1.385 . S
C1434 C1432 1.478 . S
C1434 C1436 1.381 . S
C1434 C1440 1.383 . S
C1435 C1431 1.495 . S
C1435 H1441 0.959 . S
C1435 H1442 0.961 . S
C1435 H1443 0.960 . S
C1436 C1434 1.381 . S
C1436 C1437 1.394 . S
C1436 H1444 0.930 . S
C1437 C1436 1.394 . S
C1437 C1438 1.383 . S
C1437 H1445 0.929 . S
C1438 C1437 1.383 . S
C1438 C1439 1.377 . S
C1439 H1423 0.930 . S
C1439 C1438 1.377 . S
C1439 C1440 1.379 . S
C1440 H1424 0.931 . S
C1440 C1434 1.383 . S
C1440 C1439 1.379 . S
H1441 C1435 0.959 . S
H1442 C1435 0.961 . S
H1443 C1435 0.960 . S
H1444 C1436 0.930 . S
H1445 C1437 0.929 . S
H1446 C1454 0.929 . S
H1447 C1456 0.930 . S
H1448 C1458 0.930 . S
H1449 C1461 0.929 . S
H1450 C1464 0.930 . S
H1451 C1466 0.960 . S
H1452 C1466 0.960 . S
H1453 C1466 0.960 . S
C1454 H1446 0.929 . S
C1454 C1455 1.377 . S
C1454 C1456 1.384 . S
C1455 C1454 1.377 . S
C1455 C1461 1.390 . S
C1456 H1447 0.930 . S
C1456 C1454 1.384 . S
C1456 C1457 1.372 . S
C1457 C1456 1.372 . S
C1457 C1458 1.400 . S
C1457 C1462 1.490 . S
C1458 H1448 0.930 . S
C1458 C1457 1.400 . S
C1458 C1461 1.386 . S
H1459 C1475 0.930 . S
H1460 C1476 0.931 . S
C1461 H1449 0.929 . S
C1461 C1455 1.390 . S
C1461 C1458 1.386 . S
C1462 C1457 1.490 . S
C1462 C1464 1.395 . S
C1462 C1465 1.403 . S
H1463 C1469 0.930 . S
C1464 H1450 0.930 . S
C1464 C1462 1.395 . S
C1464 C1467 1.403 . S
C1465 C1462 1.403 . S
C1465 C1466 1.524 . S
C1465 C1469 1.400 . S
C1466 H1451 0.960 . S
C1466 H1452 0.960 . S
C1466 H1453 0.960 . S
C1466 C1465 1.524 . S
C1467 C1464 1.403 . S
C1467 C1468 1.392 . S
C1467 C1471 1.495 . S
C1468 C1467 1.392 . S
C1468 C1469 1.385 . S
C1468 C1470 1.478 . S
C1469 H1463 0.930 . S
C1469 C1465 1.400 . S
C1469 C1468 1.385 . S
C1470 C1468 1.478 . S
C1470 C1472 1.381 . S
C1470 C1476 1.383 . S
C1471 C1467 1.495 . S
C1471 H1477 0.959 . S
C1471 H1478 0.961 . S
C1471 H1479 0.960 . S
C1472 C1470 1.381 . S
C1472 C1473 1.394 . S
C1472 H1480 0.930 . S
C1473 C1472 1.394 . S
C1473 C1474 1.383 . S
C1473 H1481 0.929 . S
C1474 C1473 1.383 . S
C1474 C1475 1.377 . S
C1475 H1459 0.930 . S
C1475 C1474 1.377 . S
C1475 C1476 1.379 . S
C1476 H1460 0.931 . S
C1476 C1470 1.383 . S
C1476 C1475 1.379 . S
H1477 C1471 0.959 . S
H1478 C1471 0.961 . S
H1479 C1471 0.960 . S
H1480 C1472 0.930 . S
H1481 C1473 0.929 . S
H1482 C1490 0.929 . S
H1483 C1492 0.930 . S
H1484 C1494 0.930 . S
H1485 C1497 0.929 . S
H1486 C1500 0.930 . S
H1487 C1502 0.960 . S
H1488 C1502 0.960 . S
H1489 C1502 0.960 . S
C1490 H1482 0.929 . S
C1490 C1491 1.377 . S
C1490 C1492 1.384 . S
C1491 C1490 1.377 . S
C1491 C1497 1.390 . S
C1492 H1483 0.930 . S
C1492 C1490 1.384 . S
C1492 C1493 1.372 . S
C1493 C1492 1.372 . S
C1493 C1494 1.400 . S
C1493 C1498 1.490 . S
C1494 H1484 0.930 . S
C1494 C1493 1.400 . S
C1494 C1497 1.386 . S
H1495 C1511 0.930 . S
H1496 C1512 0.931 . S
C1497 H1485 0.929 . S
C1497 C1491 1.390 . S
C1497 C1494 1.386 . S
C1498 C1493 1.490 . S
C1498 C1500 1.395 . S
C1498 C1501 1.403 . S
H1499 C1505 0.930 . S
C1500 H1486 0.930 . S
C1500 C1498 1.395 . S
C1500 C1503 1.403 . S
C1501 C1498 1.403 . S
C1501 C1502 1.524 . S
C1501 C1505 1.400 . S
C1502 H1487 0.960 . S
C1502 H1488 0.960 . S
C1502 H1489 0.960 . S
C1502 C1501 1.524 . S
C1503 C1500 1.403 . S
C1503 C1504 1.392 . S
C1503 C1507 1.495 . S
C1504 C1503 1.392 . S
C1504 C1505 1.385 . S
C1504 C1506 1.478 . S
C1505 H1499 0.930 . S
C1505 C1501 1.400 . S
C1505 C1504 1.385 . S
C1506 C1504 1.478 . S
C1506 C1508 1.381 . S
C1506 C1512 1.383 . S
C1507 C1503 1.495 . S
C1507 H1513 0.959 . S
C1507 H1514 0.961 . S
C1507 H1515 0.960 . S
C1508 C1506 1.381 . S
C1508 C1509 1.394 . S
C1508 H1516 0.930 . S
C1509 C1508 1.394 . S
C1509 C1510 1.383 . S
C1509 H1517 0.929 . S
C1510 C1509 1.383 . S
C1510 C1511 1.377 . S
C1511 H1495 0.930 . S
C1511 C1510 1.377 . S
C1511 C1512 1.379 . S
C1512 H1496 0.931 . S
C1512 C1506 1.383 . S
C1512 C1511 1.379 . S
H1513 C1507 0.959 . S
H1514 C1507 0.961 . S
H1515 C1507 0.960 . S
H1516 C1508 0.930 . S
H1517 C1509 0.929 . S
H1518 C1526 0.929 . S
H1519 C1528 0.930 . S
H1520 C1530 0.930 . S
H1521 C1533 0.929 . S
H1522 C1536 0.930 . S
H1523 C1538 0.960 . S
H1524 C1538 0.960 . S
H1525 C1538 0.960 . S
C1526 H1518 0.929 . S
C1526 C1527 1.377 . S
C1526 C1528 1.384 . S
C1527 C1526 1.377 . S
C1527 C1533 1.390 . S
C1528 H1519 0.930 . S
C1528 C1526 1.384 . S
C1528 C1529 1.372 . S
C1529 C1528 1.372 . S
C1529 C1530 1.400 . S
C1529 C1534 1.490 . S
C1530 H1520 0.930 . S
C1530 C1529 1.400 . S
C1530 C1533 1.386 . S
H1531 C1547 0.930 . S
H1532 C1548 0.931 . S
C1533 H1521 0.929 . S
C1533 C1527 1.390 . S
C1533 C1530 1.386 . S
C1534 C1529 1.490 . S
C1534 C1536 1.395 . S
C1534 C1537 1.403 . S
H1535 C1541 0.930 . S
C1536 H1522 0.930 . S
C1536 C1534 1.395 . S
C1536 C1539 1.403 . S
C1537 C1534 1.403 . S
C1537 C1538 1.524 . S
C1537 C1541 1.400 . S
C1538 H1523 0.960 . S
C1538 H1524 0.960 . S
C1538 H1525 0.960 . S
C1538 C1537 1.524 . S
C1539 C1536 1.403 . S
C1539 C1540 1.392 . S
C1539 C1543 1.495 . S
C1540 C1539 1.392 . S
C1540 C1541 1.385 . S
C1540 C1542 1.478 . S
C1541 H1535 0.930 . S
C1541 C1537 1.400 . S
C1541 C1540 1.385 . S
C1542 C1540 1.478 . S
C1542 C1544 1.381 . S
C1542 C1548 1.383 . S
C1543 C1539 1.495 . S
C1543 H1549 0.959 . S
C1543 H1550 0.961 . S
C1543 H1551 0.960 . S
C1544 C1542 1.381 . S
C1544 C1545 1.394 . S
C1544 H1552 0.930 . S
C1545 C1544 1.394 . S
C1545 C1546 1.383 . S
C1545 H1553 0.929 . S
C1546 C1545 1.383 . S
C1546 C1547 1.377 . S
C1547 H1531 0.930 . S
C1547 C1546 1.377 . S
C1547 C1548 1.379 . S
C1548 H1532 0.931 . S
C1548 C1542 1.383 . S
C1548 C1547 1.379 . S
H1549 C1543 0.959 . S
H1550 C1543 0.961 . S
H1551 C1543 0.960 . S
H1552 C1544 0.930 . S
H1553 C1545 0.929 . S
H1554 C1562 0.929 . S
H1555 C1564 0.930 . S
H1556 C1566 0.930 . S
H1557 C1569 0.929 . S
H1558 C1572 0.930 . S
H1559 C1574 0.960 . S
H1560 C1574 0.960 . S
H1561 C1574 0.960 . S
C1562 H1554 0.929 . S
C1562 C1563 1.377 . S
C1562 C1564 1.384 . S
C1563 C1562 1.377 . S
C1563 C1569 1.390 . S
C1564 H1555 0.930 . S
C1564 C1562 1.384 . S
C1564 C1565 1.372 . S
C1565 C1564 1.372 . S
C1565 C1566 1.400 . S
C1565 C1570 1.490 . S
C1566 H1556 0.930 . S
C1566 C1565 1.400 . S
C1566 C1569 1.386 . S
H1567 C1583 0.930 . S
H1568 C1584 0.931 . S
C1569 H1557 0.929 . S
C1569 C1563 1.390 . S
C1569 C1566 1.386 . S
C1570 C1565 1.490 . S
C1570 C1572 1.395 . S
C1570 C1573 1.403 . S
H1571 C1577 0.930 . S
C1572 H1558 0.930 . S
C1572 C1570 1.395 . S
C1572 C1575 1.403 . S
C1573 C1570 1.403 . S
C1573 C1574 1.524 . S
C1573 C1577 1.400 . S
C1574 H1559 0.960 . S
C1574 H1560 0.960 . S
C1574 H1561 0.960 . S
C1574 C1573 1.524 . S
C1575 C1572 1.403 . S
C1575 C1576 1.392 . S
C1575 C1579 1.495 . S
C1576 C1575 1.392 . S
C1576 C1577 1.385 . S
C1576 C1578 1.478 . S
C1577 H1571 0.930 . S
C1577 C1573 1.400 . S
C1577 C1576 1.385 . S
C1578 C1576 1.478 . S
C1578 C1580 1.381 . S
C1578 C1584 1.383 . S
C1579 C1575 1.495 . S
C1579 H1585 0.959 . S
C1579 H1586 0.961 . S
C1579 H1587 0.960 . S
C1580 C1578 1.381 . S
C1580 C1581 1.394 . S
C1580 H1588 0.930 . S
C1581 C1580 1.394 . S
C1581 C1582 1.383 . S
C1581 H1589 0.929 . S
C1582 C1581 1.383 . S
C1582 C1583 1.377 . S
C1583 H1567 0.930 . S
C1583 C1582 1.377 . S
C1583 C1584 1.379 . S
C1584 H1568 0.931 . S
C1584 C1578 1.383 . S
C1584 C1583 1.379 . S
H1585 C1579 0.959 . S
H1586 C1579 0.961 . S
H1587 C1579 0.960 . S
H1588 C1580 0.930 . S
H1589 C1581 0.929 . S
H1590 C1598 0.929 . S
H1591 C1600 0.930 . S
H1592 C1602 0.930 . S
H1593 C1605 0.929 . S
H1594 C1608 0.930 . S
H1595 C1610 0.960 . S
H1596 C1610 0.960 . S
H1597 C1610 0.960 . S
C1598 H1590 0.929 . S
C1598 C1599 1.377 . S
C1598 C1600 1.384 . S
C1599 C1598 1.377 . S
C1599 C1605 1.390 . S
C1600 H1591 0.930 . S
C1600 C1598 1.384 . S
C1600 C1601 1.372 . S
C1601 C1600 1.372 . S
C1601 C1602 1.400 . S
C1601 C1606 1.490 . S
C1602 H1592 0.930 . S
C1602 C1601 1.400 . S
C1602 C1605 1.386 . S
H1603 C1619 0.930 . S
H1604 C1620 0.931 . S
C1605 H1593 0.929 . S
C1605 C1599 1.390 . S
C1605 C1602 1.386 . S
C1606 C1601 1.490 . S
C1606 C1608 1.395 . S
C1606 C1609 1.403 . S
H1607 C1613 0.930 . S
C1608 H1594 0.930 . S
C1608 C1606 1.395 . S
C1608 C1611 1.403 . S
C1609 C1606 1.403 . S
C1609 C1610 1.524 . S
C1609 C1613 1.400 . S
C1610 H1595 0.960 . S
C1610 H1596 0.960 . S
C1610 H1597 0.960 . S
C1610 C1609 1.524 . S
C1611 C1608 1.403 . S
C1611 C1612 1.392 . S
C1611 C1615 1.495 . S
C1612 C1611 1.392 . S
C1612 C1613 1.385 . S
C1612 C1614 1.478 . S
C1613 H1607 0.930 . S
C1613 C1609 1.400 . S
C1613 C1612 1.385 . S
C1614 C1612 1.478 . S
C1614 C1616 1.381 . S
C1614 C1620 1.383 . S
C1615 C1611 1.495 . S
C1615 H1621 0.959 . S
C1615 H1622 0.961 . S
C1615 H1623 0.960 . S
C1616 C1614 1.381 . S
C1616 C1617 1.394 . S
C1616 H1624 0.930 . S
C1617 C1616 1.394 . S
C1617 C1618 1.383 . S
C1617 H1625 0.929 . S
C1618 C1617 1.383 . S
C1618 C1619 1.377 . S
C1619 H1603 0.930 . S
C1619 C1618 1.377 . S
C1619 C1620 1.379 . S
C1620 H1604 0.931 . S
C1620 C1614 1.383 . S
C1620 C1619 1.379 . S
H1621 C1615 0.959 . S
H1622 C1615 0.961 . S
H1623 C1615 0.960 . S
H1624 C1616 0.930 . S
H1625 C1617 0.929 . S
H1626 C1634 0.929 . S
H1627 C1636 0.930 . S
H1628 C1638 0.930 . S
H1629 C1641 0.929 . S
H1630 C1644 0.930 . S
H1631 C1646 0.960 . S
H1632 C1646 0.960 . S
H1633 C1646 0.960 . S
C1634 H1626 0.929 . S
C1634 C1635 1.377 . S
C1634 C1636 1.384 . S
C1635 C1634 1.377 . S
C1635 C1641 1.390 . S
C1636 H1627 0.930 . S
C1636 C1634 1.384 . S
C1636 C1637 1.372 . S
C1637 C1636 1.372 . S
C1637 C1638 1.400 . S
C1637 C1642 1.490 . S
C1638 H1628 0.930 . S
C1638 C1637 1.400 . S
C1638 C1641 1.386 . S
H1639 C1655 0.930 . S
H1640 C1656 0.931 . S
C1641 H1629 0.929 . S
C1641 C1635 1.390 . S
C1641 C1638 1.386 . S
C1642 C1637 1.490 . S
C1642 C1644 1.395 . S
C1642 C1645 1.403 . S
H1643 C1649 0.930 . S
C1644 H1630 0.930 . S
C1644 C1642 1.395 . S
C1644 C1647 1.403 . S
C1645 C1642 1.403 . S
C1645 C1646 1.524 . S
C1645 C1649 1.400 . S
C1646 H1631 0.960 . S
C1646 H1632 0.960 . S
C1646 H1633 0.960 . S
C1646 C1645 1.524 . S
C1647 C1644 1.403 . S
C1647 C1648 1.392 . S
C1647 C1651 1.495 . S
C1648 C1647 1.392 . S
C1648 C1649 1.385 . S
C1648 C1650 1.478 . S
C1649 H1643 0.930 . S
C1649 C1645 1.400 . S
C1649 C1648 1.385 . S
C1650 C1648 1.478 . S
C1650 C1652 1.381 . S
C1650 C1656 1.383 . S
C1651 C1647 1.495 . S
C1651 H1657 0.959 . S
C1651 H1658 0.961 . S
C1651 H1659 0.960 . S
C1652 C1650 1.381 . S
C1652 C1653 1.394 . S
C1652 H1660 0.930 . S
C1653 C1652 1.394 . S
C1653 C1654 1.383 . S
C1653 H1661 0.929 . S
C1654 C1653 1.383 . S
C1654 C1655 1.377 . S
C1655 H1639 0.930 . S
C1655 C1654 1.377 . S
C1655 C1656 1.379 . S
C1656 H1640 0.931 . S
C1656 C1650 1.383 . S
C1656 C1655 1.379 . S
H1657 C1651 0.959 . S
H1658 C1651 0.961 . S
H1659 C1651 0.960 . S
H1660 C1652 0.930 . S
H1661 C1653 0.929 . S
C826 C502 1.558 . S
C807 C31 1.536 . S
C862 C571 1.557 . S
C843 C61 1.538 . S
C898 C509 1.547 . S
C879 C121 1.543 . S
C934 C572 1.551 . S
C915 C211 1.534 . S
C970 C625 1.557 . S
C951 C1 1.546 . S
C1006 C661 1.524 . S
C987 C91 1.506 . S
C1023 C151 1.524 . S
C1042 C721 1.545 . S
C1078 C784 1.524 . S
C1059 C181 1.496 . S
C1114 C624 1.539 . S
C1095 C80 1.539 . S
C1131 C140 1.495 . S
C1150 C668 1.527 . S
C1186 C714 1.548 . S
C1167 C200 1.524 . S
C1222 C783 1.526 . S
C1203 C20 1.511 . S
C1239 C271 1.537 . S
C1258 C562 1.562 . S
C1294 C519 1.544 . S
C1275 C331 1.524 . S
C1311 C380 1.545 . S
C1330 C555 1.556 . S
C1347 C421 1.540 . S
C1366 C518 1.548 . S
C1402 C730 1.546 . S
C1383 C241 1.546 . S
C1438 C774 1.525 . S
C1419 C320 1.495 . S
C1474 C608 1.545 . S
C1455 C361 1.537 . S
C1491 C440 1.501 . S
C1510 C677 1.520 . S
C1546 C731 1.541 . S
C1527 C301 1.529 . S
C1582 C767 1.528 . S
C1563 C391 1.509 . S
C1618 C615 1.545 . S
C1599 C451 1.534 . S
C1635 C260 1.515 . S
C1654 C678 1.519 . S
