# Generated by pormake.
# Topology eea, (3,6)-cn, num edge types: 1
# Building blocks:
#     Node 0, Type 0, BuildingBlock: CUQRIR_clean_linker_1, # of connection points: 3
#     Node 1, Type 0, BuildingBlock: CUQRIR_clean_linker_1, # of connection points: 3
#     Node 2, Type 0, BuildingBlock: CUQRIR_clean_linker_1, # of connection points: 3
#     Node 3, Type 0, BuildingBlock: CUQRIR_clean_linker_1, # of connection points: 3
#     Node 4, Type 0, BuildingBlock: CUQRIR_clean_linker_1, # of connection points: 3
#     Node 5, Type 0, BuildingBlock: CUQRIR_clean_linker_1, # of connection points: 3
#     Node 6, Type 0, BuildingBlock: CUQRIR_clean_linker_1, # of connection points: 3
#     Node 7, Type 0, BuildingBlock: CUQRIR_clean_linker_1, # of connection points: 3
#     Node 8, Type 0, BuildingBlock: CUQRIR_clean_linker_1, # of connection points: 3
#     Node 9, Type 0, BuildingBlock: CUQRIR_clean_linker_1, # of connection points: 3
#     Node 10, Type 0, BuildingBlock: CUQRIR_clean_linker_1, # of connection points: 3
#     Node 11, Type 0, BuildingBlock: CUQRIR_clean_linker_1, # of connection points: 3
#     Node 12, Type 0, BuildingBlock: CUQRIR_clean_linker_1, # of connection points: 3
#     Node 13, Type 0, BuildingBlock: CUQRIR_clean_linker_1, # of connection points: 3
#     Node 14, Type 0, BuildingBlock: CUQRIR_clean_linker_1, # of connection points: 3
#     Node 15, Type 0, BuildingBlock: CUQRIR_clean_linker_1, # of connection points: 3
#     Node 16, Type 0, BuildingBlock: CUQRIR_clean_linker_1, # of connection points: 3
#     Node 17, Type 0, BuildingBlock: CUQRIR_clean_linker_1, # of connection points: 3
#     Node 18, Type 1, BuildingBlock: CUWYAW_clean_sbu_0, # of connection points: 6
#     Node 19, Type 1, BuildingBlock: CUWYAW_clean_sbu_0, # of connection points: 6
#     Node 20, Type 1, BuildingBlock: CUWYAW_clean_sbu_0, # of connection points: 6
#     Node 21, Type 1, BuildingBlock: CUWYAW_clean_sbu_0, # of connection points: 6
#     Node 22, Type 1, BuildingBlock: CUWYAW_clean_sbu_0, # of connection points: 6
#     Node 23, Type 1, BuildingBlock: CUWYAW_clean_sbu_0, # of connection points: 6
#     Node 24, Type 1, BuildingBlock: CUWYAW_clean_sbu_0, # of connection points: 6
#     Node 25, Type 1, BuildingBlock: CUWYAW_clean_sbu_0, # of connection points: 6
#     Node 26, Type 1, BuildingBlock: CUWYAW_clean_sbu_0, # of connection points: 6
#     Edge 27, Type (0, 1), BuildingBlock: TEMPAE_clean_linker_10, # of connection points: 2
#     Edge 28, Type (0, 1), BuildingBlock: TEMPAE_clean_linker_10, # of connection points: 2
#     Edge 29, Type (0, 1), BuildingBlock: TEMPAE_clean_linker_10, # of connection points: 2
#     Edge 30, Type (0, 1), BuildingBlock: TEMPAE_clean_linker_10, # of connection points: 2
#     Edge 31, Type (0, 1), BuildingBlock: TEMPAE_clean_linker_10, # of connection points: 2
#     Edge 32, Type (0, 1), BuildingBlock: TEMPAE_clean_linker_10, # of connection points: 2
#     Edge 33, Type (0, 1), BuildingBlock: TEMPAE_clean_linker_10, # of connection points: 2
#     Edge 34, Type (0, 1), BuildingBlock: TEMPAE_clean_linker_10, # of connection points: 2
#     Edge 35, Type (0, 1), BuildingBlock: TEMPAE_clean_linker_10, # of connection points: 2
#     Edge 36, Type (0, 1), BuildingBlock: TEMPAE_clean_linker_10, # of connection points: 2
#     Edge 37, Type (0, 1), BuildingBlock: TEMPAE_clean_linker_10, # of connection points: 2
#     Edge 38, Type (0, 1), BuildingBlock: TEMPAE_clean_linker_10, # of connection points: 2
#     Edge 39, Type (0, 1), BuildingBlock: TEMPAE_clean_linker_10, # of connection points: 2
#     Edge 40, Type (0, 1), BuildingBlock: TEMPAE_clean_linker_10, # of connection points: 2
#     Edge 41, Type (0, 1), BuildingBlock: TEMPAE_clean_linker_10, # of connection points: 2
#     Edge 42, Type (0, 1), BuildingBlock: TEMPAE_clean_linker_10, # of connection points: 2
#     Edge 43, Type (0, 1), BuildingBlock: TEMPAE_clean_linker_10, # of connection points: 2
#     Edge 44, Type (0, 1), BuildingBlock: TEMPAE_clean_linker_10, # of connection points: 2
#     Edge 45, Type (0, 1), BuildingBlock: TEMPAE_clean_linker_10, # of connection points: 2
#     Edge 46, Type (0, 1), BuildingBlock: TEMPAE_clean_linker_10, # of connection points: 2
#     Edge 47, Type (0, 1), BuildingBlock: TEMPAE_clean_linker_10, # of connection points: 2
#     Edge 48, Type (0, 1), BuildingBlock: TEMPAE_clean_linker_10, # of connection points: 2
#     Edge 49, Type (0, 1), BuildingBlock: TEMPAE_clean_linker_10, # of connection points: 2
#     Edge 50, Type (0, 1), BuildingBlock: TEMPAE_clean_linker_10, # of connection points: 2
#     Edge 51, Type (0, 1), BuildingBlock: TEMPAE_clean_linker_10, # of connection points: 2
#     Edge 52, Type (0, 1), BuildingBlock: TEMPAE_clean_linker_10, # of connection points: 2
#     Edge 53, Type (0, 1), BuildingBlock: TEMPAE_clean_linker_10, # of connection points: 2
#     Edge 54, Type (0, 1), BuildingBlock: TEMPAE_clean_linker_10, # of connection points: 2
#     Edge 55, Type (0, 1), BuildingBlock: TEMPAE_clean_linker_10, # of connection points: 2
#     Edge 56, Type (0, 1), BuildingBlock: TEMPAE_clean_linker_10, # of connection points: 2
#     Edge 57, Type (0, 1), BuildingBlock: TEMPAE_clean_linker_10, # of connection points: 2
#     Edge 58, Type (0, 1), BuildingBlock: TEMPAE_clean_linker_10, # of connection points: 2
#     Edge 59, Type (0, 1), BuildingBlock: TEMPAE_clean_linker_10, # of connection points: 2
#     Edge 60, Type (0, 1), BuildingBlock: TEMPAE_clean_linker_10, # of connection points: 2
#     Edge 61, Type (0, 1), BuildingBlock: TEMPAE_clean_linker_10, # of connection points: 2
#     Edge 62, Type (0, 1), BuildingBlock: TEMPAE_clean_linker_10, # of connection points: 2
#     Edge 63, Type (0, 1), BuildingBlock: TEMPAE_clean_linker_10, # of connection points: 2
#     Edge 64, Type (0, 1), BuildingBlock: TEMPAE_clean_linker_10, # of connection points: 2
#     Edge 65, Type (0, 1), BuildingBlock: TEMPAE_clean_linker_10, # of connection points: 2
#     Edge 66, Type (0, 1), BuildingBlock: TEMPAE_clean_linker_10, # of connection points: 2
#     Edge 67, Type (0, 1), BuildingBlock: TEMPAE_clean_linker_10, # of connection points: 2
#     Edge 68, Type (0, 1), BuildingBlock: TEMPAE_clean_linker_10, # of connection points: 2
#     Edge 69, Type (0, 1), BuildingBlock: TEMPAE_clean_linker_10, # of connection points: 2
#     Edge 70, Type (0, 1), BuildingBlock: TEMPAE_clean_linker_10, # of connection points: 2
#     Edge 71, Type (0, 1), BuildingBlock: TEMPAE_clean_linker_10, # of connection points: 2
#     Edge 72, Type (0, 1), BuildingBlock: TEMPAE_clean_linker_10, # of connection points: 2
#     Edge 73, Type (0, 1), BuildingBlock: TEMPAE_clean_linker_10, # of connection points: 2
#     Edge 74, Type (0, 1), BuildingBlock: TEMPAE_clean_linker_10, # of connection points: 2
#     Edge 75, Type (0, 1), BuildingBlock: TEMPAE_clean_linker_10, # of connection points: 2
#     Edge 76, Type (0, 1), BuildingBlock: TEMPAE_clean_linker_10, # of connection points: 2
#     Edge 77, Type (0, 1), BuildingBlock: TEMPAE_clean_linker_10, # of connection points: 2
#     Edge 78, Type (0, 1), BuildingBlock: TEMPAE_clean_linker_10, # of connection points: 2
#     Edge 79, Type (0, 1), BuildingBlock: TEMPAE_clean_linker_10, # of connection points: 2
#     Edge 80, Type (0, 1), BuildingBlock: TEMPAE_clean_linker_10, # of connection points: 2
# Relax obj value: 0.105
# Max RMSD: 0.248
# Mean RMSD: 0.180
data_MOF--net-eea--node1-CUWYAW_clean_sbu_0--node2-CUQRIR_clean_linker_1--edge1-TEMPAE_clean_linker_10
_symmetry_space_group_name_H-M    P1
_symmetry_Int_Tables_number       1
_symmetry_cell_setting            triclinic
loop_
_symmetry_equiv_pos_as_xyz
'x, y, z'
_cell_length_a     49.314699
_cell_length_b     50.496623
_cell_length_c     67.287771
_cell_angle_alpha  87.205434
_cell_angle_beta   93.245095
_cell_angle_gamma 118.74137
loop_
_atom_site_label
_atom_site_type_symbol
_atom_site_fract_x
_atom_site_fract_y
_atom_site_fract_z
_atom_type_partial_charge
C0 C 0.18981 0.09869 0.39902 0.0
N1 N 0.20082 0.12205 0.4117 0.0
N2 N 0.19576 0.07647 0.40654 0.0
C3 C 0.17293 0.0976 0.37949 0.0
C4 C 0.21103 0.08734 0.42413 0.0
N5 N 0.21433 0.11508 0.42717 0.0
C6 C 0.22195 0.07043 0.43859 0.0
H7 H 0.14996 0.09527 0.38242 0.0
H8 H 0.16928 0.07838 0.3704 0.0
H9 H 0.18597 0.11912 0.37096 0.0
H10 H 0.22737 0.05486 0.43068 0.0
H11 H 0.20325 0.05685 0.44901 0.0
H12 H 0.2427 0.08603 0.44748 0.0
C13 C 0.90945 0.11713 0.404 0.0
N14 N 0.92354 0.13979 0.41721 0.0
N15 N 0.8813 0.09605 0.41029 0.0
C16 C 0.92369 0.11519 0.38528 0.0
C17 C 0.87867 0.10682 0.42769 0.0
N18 N 0.90411 0.13346 0.43184 0.0
C19 C 0.85148 0.09094 0.44094 0.0
H20 H 0.9369 0.13795 0.37823 0.0
H21 H 0.90612 0.09984 0.37441 0.0
H22 H 0.94005 0.10634 0.38919 0.0
H23 H 0.83025 0.07549 0.43232 0.0
H24 H 0.84716 0.10747 0.44856 0.0
H25 H 0.85674 0.07749 0.45252 0.0
C26 C 0.88574 0.75469 0.40141 0.0
N27 N 0.90407 0.75239 0.41636 0.0
N28 N 0.86262 0.75793 0.40881 0.0
C29 C 0.89194 0.75627 0.37964 0.0
C30 C 0.86792 0.75826 0.42873 0.0
N31 N 0.8934 0.75536 0.4333 0.0
C32 C 0.84887 0.76238 0.44379 0.0
H33 H 0.87285 0.75623 0.37008 0.0
H34 H 0.89503 0.73676 0.37588 0.0
H35 H 0.91383 0.77714 0.37646 0.0
H36 H 0.84233 0.74433 0.45545 0.0
H37 H 0.82764 0.7619 0.43703 0.0
H38 H 0.86297 0.78437 0.4511 0.0
C39 C 0.13534 0.28723 0.63483 0.0
N40 N 0.15613 0.29026 0.62149 0.0
N41 N 0.11406 0.29431 0.62634 0.0
C42 C 0.13474 0.27582 0.65597 0.0
C43 C 0.1229 0.30205 0.60729 0.0
N44 N 0.14866 0.29982 0.60442 0.0
C45 C 0.10396 0.30717 0.59075 0.0
H46 H 0.12131 0.25079 0.65639 0.0
H47 H 0.12345 0.28465 0.66555 0.0
H48 H 0.15857 0.28258 0.66192 0.0
H49 H 0.11812 0.32964 0.58358 0.0
H50 H 0.08262 0.30609 0.59613 0.0
H51 H 0.09763 0.28995 0.57923 0.0
C52 C 0.81939 0.91018 0.62859 0.0
N53 N 0.80962 0.88768 0.61531 0.0
N54 N 0.8119 0.93172 0.62185 0.0
C55 C 0.83672 0.91116 0.64793 0.0
C56 C 0.79699 0.92132 0.60409 0.0
N57 N 0.79533 0.89448 0.60019 0.0
C58 C 0.78468 0.93778 0.59028 0.0
H59 H 0.84012 0.92997 0.65735 0.0
H60 H 0.85982 0.91406 0.64473 0.0
H61 H 0.82414 0.88937 0.65626 0.0
H62 H 0.77949 0.95316 0.59858 0.0
H63 H 0.76342 0.92175 0.58198 0.0
H64 H 0.8024 0.95138 0.57927 0.0
C65 C 0.10801 0.9153 0.62704 0.0
N66 N 0.09468 0.89147 0.61464 0.0
N67 N 0.13564 0.93682 0.62023 0.0
C68 C 0.09382 0.91767 0.64563 0.0
C69 C 0.13876 0.92508 0.60338 0.0
N70 N 0.11413 0.89751 0.60007 0.0
C71 C 0.16558 0.94071 0.58981 0.0
H72 H 0.07637 0.92506 0.64145 0.0
H73 H 0.11127 0.93435 0.65597 0.0
H74 H 0.08189 0.89533 0.65341 0.0
H75 H 0.17446 0.9251 0.58631 0.0
H76 H 0.18483 0.96123 0.59649 0.0
H77 H 0.15743 0.94703 0.57556 0.0
C78 C 0.86398 0.43128 0.73035 0.0
N79 N 0.87339 0.45435 0.74319 0.0
N80 N 0.8727 0.41077 0.73741 0.0
C81 C 0.84852 0.42985 0.71022 0.0
C82 C 0.88784 0.42217 0.75492 0.0
N83 N 0.88855 0.44872 0.75836 0.0
C84 C 0.9002 0.40632 0.76924 0.0
H85 H 0.82317 0.41946 0.71194 0.0
H86 H 0.85292 0.41586 0.70001 0.0
H87 H 0.85682 0.45284 0.70351 0.0
H88 H 0.92516 0.41514 0.76675 0.0
H89 H 0.88802 0.3816 0.76694 0.0
H90 H 0.89773 0.41063 0.78488 0.0
C91 C 0.5724 0.44795 0.73997 0.0
N92 N 0.58732 0.47011 0.75348 0.0
N93 N 0.54455 0.42664 0.74661 0.0
C94 C 0.58576 0.44662 0.72072 0.0
C95 C 0.54303 0.43672 0.76457 0.0
N96 N 0.56881 0.46311 0.76874 0.0
C97 C 0.51629 0.42072 0.77814 0.0
H98 H 0.56784 0.43105 0.71009 0.0
H99 H 0.60285 0.43847 0.72391 0.0
H100 H 0.59806 0.46952 0.7137 0.0
H101 H 0.52114 0.40588 0.78877 0.0
H102 H 0.49448 0.40658 0.76957 0.0
H103 H 0.51327 0.43716 0.78686 0.0
C104 C 0.58155 0.14335 0.74337 0.0
N105 N 0.59833 0.1359 0.75678 0.0
N106 N 0.5601 0.14712 0.75259 0.0
C107 C 0.5843 0.14437 0.72117 0.0
C108 C 0.56446 0.14174 0.77206 0.0
N109 N 0.58811 0.13535 0.77468 0.0
C110 C 0.54341 0.13933 0.78817 0.0
H111 H 0.57588 0.15932 0.7138 0.0
H112 H 0.56997 0.12124 0.71546 0.0
H113 H 0.60866 0.15236 0.71731 0.0
H114 H 0.52601 0.11525 0.79042 0.0
H115 H 0.5311 0.15242 0.78401 0.0
H116 H 0.55677 0.14754 0.80243 0.0
C117 C 0.79656 0.60418 0.96798 0.0
N118 N 0.81813 0.60729 0.95524 0.0
N119 N 0.77288 0.60602 0.95806 0.0
C120 C 0.79729 0.59658 0.98981 0.0
C121 C 0.78059 0.60988 0.93877 0.0
N122 N 0.80801 0.61035 0.93706 0.0
C123 C 0.76019 0.61077 0.92155 0.0
H124 H 0.78293 0.60347 0.99808 0.0
H125 H 0.82144 0.60783 0.99602 0.0
H126 H 0.78793 0.57181 0.99179 0.0
H127 H 0.77414 0.62347 0.90861 0.0
H128 H 0.74626 0.62133 0.92583 0.0
H129 H 0.74401 0.5873 0.91705 0.0
C130 C 0.47523 0.24302 0.96377 0.0
N131 N 0.46739 0.22098 0.95037 0.0
N132 N 0.47274 0.26677 0.95535 0.0
C133 C 0.4881 0.24261 0.98455 0.0
C134 C 0.46339 0.25849 0.93626 0.0
N135 N 0.46055 0.23094 0.93317 0.0
C136 C 0.455 0.27634 0.92092 0.0
H137 H 0.46873 0.23171 0.99488 0.0
H138 H 0.50386 0.26588 0.98959 0.0
H139 H 0.50092 0.22954 0.98529 0.0
H140 H 0.44702 0.29058 0.92806 0.0
H141 H 0.43656 0.26118 0.91032 0.0
H142 H 0.47573 0.29123 0.91231 0.0
C143 C 0.77583 0.25259 0.95745 0.0
N144 N 0.76211 0.22882 0.94499 0.0
N145 N 0.80323 0.27413 0.9504 0.0
C146 C 0.7628 0.25457 0.97666 0.0
C147 C 0.8059 0.26255 0.93336 0.0
N148 N 0.7812 0.23493 0.93017 0.0
C149 C 0.83285 0.27803 0.91987 0.0
H150 H 0.74582 0.26283 0.97338 0.0
H151 H 0.78109 0.27052 0.98696 0.0
H152 H 0.75067 0.23198 0.9841 0.0
H153 H 0.84875 0.26842 0.92298 0.0
H154 H 0.8461 0.30267 0.92222 0.0
H155 H 0.8247 0.27398 0.90403 0.0
C156 C 0.53434 0.77004 0.06162 0.0
N157 N 0.54342 0.79282 0.07461 0.0
N158 N 0.53427 0.74544 0.07077 0.0
C159 C 0.52268 0.77072 0.04054 0.0
C160 C 0.54341 0.75404 0.08983 0.0
N161 N 0.54851 0.78256 0.09221 0.0
C162 C 0.54972 0.73552 0.10579 0.0
H163 H 0.5116 0.78537 0.03907 0.0
H164 H 0.50571 0.74767 0.03569 0.0
H165 H 0.54248 0.77997 0.03053 0.0
H166 H 0.56861 0.75026 0.1163 0.0
H167 H 0.55619 0.71969 0.09923 0.0
H168 H 0.52852 0.72223 0.11435 0.0
C169 C 0.24447 0.78189 0.07256 0.0
N170 N 0.25911 0.80394 0.08618 0.0
N171 N 0.21812 0.75889 0.07986 0.0
C172 C 0.25546 0.78282 0.05199 0.0
C173 C 0.21721 0.76779 0.09836 0.0
N174 N 0.24198 0.79506 0.10223 0.0
C175 C 0.19159 0.75024 0.11253 0.0
H176 H 0.24372 0.79186 0.04136 0.0
H177 H 0.24934 0.75974 0.04739 0.0
H178 H 0.28073 0.79758 0.05095 0.0
H179 H 0.16959 0.7354 0.10437 0.0
H180 H 0.18794 0.76566 0.12189 0.0
H181 H 0.19814 0.73595 0.12254 0.0
C182 C 0.20395 0.39495 0.06012 0.0
N183 N 0.22095 0.3907 0.07513 0.0
N184 N 0.17654 0.39043 0.0666 0.0
C185 C 0.21553 0.40678 0.03965 0.0
C186 C 0.17742 0.38296 0.08613 0.0
N187 N 0.20443 0.38318 0.09132 0.0
C188 C 0.15463 0.38108 0.10086 0.0
H189 H 0.23021 0.43168 0.04001 0.0
H190 H 0.19593 0.40136 0.02875 0.0
H191 H 0.22996 0.39702 0.03483 0.0
H192 H 0.13115 0.37254 0.09384 0.0
H193 H 0.16223 0.40401 0.10646 0.0
H194 H 0.15356 0.36609 0.11372 0.0
C195 C 0.4676 0.94751 0.30063 0.0
N196 N 0.48888 0.95189 0.28729 0.0
N197 N 0.44576 0.95389 0.29229 0.0
C198 C 0.46772 0.93633 0.32176 0.0
C199 C 0.45468 0.96255 0.27334 0.0
N200 N 0.48111 0.96158 0.27036 0.0
C201 C 0.43558 0.96818 0.25712 0.0
H202 H 0.45598 0.91127 0.32214 0.0
H203 H 0.45522 0.94379 0.33137 0.0
H204 H 0.49182 0.94466 0.32773 0.0
H205 H 0.44376 0.99283 0.25574 0.0
H206 H 0.41069 0.95668 0.26053 0.0
H207 H 0.43824 0.96039 0.24258 0.0
C208 C 0.15882 0.58286 0.2954 0.0
N209 N 0.14898 0.56007 0.28233 0.0
N210 N 0.15017 0.60365 0.28882 0.0
C211 C 0.17678 0.58463 0.31458 0.0
C212 C 0.13442 0.59247 0.2714 0.0
N213 N 0.13338 0.56588 0.26757 0.0
C214 C 0.11968 0.60723 0.25807 0.0
H215 H 0.1782 0.60225 0.32441 0.0
H216 H 0.20068 0.59008 0.31116 0.0
H217 H 0.16603 0.5624 0.32259 0.0
H218 H 0.12662 0.60837 0.24251 0.0
H219 H 0.12583 0.63019 0.26281 0.0
H220 H 0.09415 0.5932 0.25824 0.0
C221 C 0.44463 0.58498 0.29335 0.0
N222 N 0.43054 0.56156 0.28069 0.0
N223 N 0.47129 0.60715 0.28579 0.0
C224 C 0.43171 0.58654 0.31272 0.0
C225 C 0.47294 0.59625 0.26817 0.0
N226 N 0.4484 0.56858 0.26512 0.0
C227 C 0.49852 0.61272 0.25382 0.0
H228 H 0.41368 0.5935 0.3096 0.0
H229 H 0.44969 0.60317 0.32283 0.0
H230 H 0.4207 0.56398 0.32029 0.0
H231 H 0.52043 0.62834 0.26176 0.0
H232 H 0.49184 0.62615 0.24308 0.0
H233 H 0.50232 0.59661 0.24529 0.0
C234 C 0.54969 0.0349 0.06964 0.0
Eu235 Eu 0.52704 0.02412 0.03321 0.0
C236 C 0.54456 0.02068 0.08954 0.0
C237 C 0.56508 0.03647 0.1052 0.0
C238 C 0.56024 0.02415 0.12449 0.0
C239 C 0.53472 0.99574 0.12845 0.0
C240 C 0.51449 0.97962 0.11256 0.0
C241 C 0.51943 0.99201 0.09319 0.0
C242 C 0.51123 0.061 0.0105 0.0
C243 C 0.45372 0.97277 0.03095 0.0
C244 C 0.48133 0.99091 0.95646 0.0
Eu245 Eu 0.49721 0.99876 0.99403 0.0
C246 C 0.49704 1.00819 0.9385 0.0
C247 C 0.5035 0.99354 0.92374 0.0
C248 C 0.52082 0.00991 0.90747 0.0
C249 C 0.53173 0.04118 0.90556 0.0
C250 C 0.52509 0.05586 0.92025 0.0
C251 C 0.50809 0.03956 0.93667 0.0
C252 C 0.51192 0.96148 0.01683 0.0
C253 C 0.57008 0.05114 0.99626 0.0
O254 O 0.55912 0.02325 0.05648 0.0
O255 O 0.52883 0.04202 0.06233 0.0
O256 O 0.53576 0.07043 0.02211 0.0
O257 O 0.49496 0.03267 0.0123 0.0
O258 O 0.47984 0.98577 0.04187 0.0
O259 O 0.4535 0.97741 0.01141 0.0
O260 O 0.47106 1.00376 0.96823 0.0
O261 O 0.49506 0.9774 0.96624 0.0
O262 O 0.48722 0.95252 1.0054 0.0
O263 O 0.52896 0.98979 0.01498 0.0
O264 O 0.5441 0.03754 0.9854 0.0
O265 O 0.57034 0.04641 0.01568 0.0
H266 H 0.5846 0.05864 0.10256 0.0
H267 H 0.57592 0.03738 0.13641 0.0
H268 H 0.49475 0.95761 0.11514 0.0
H269 H 0.50349 0.97946 0.08116 0.0
H270 H 0.49549 0.96945 0.92495 0.0
H271 H 0.52531 0.99804 0.8962 0.0
H272 H 0.53336 0.07999 0.91912 0.0
H273 H 0.50396 0.05159 0.948 0.0
C274 C 0.00321 0.52164 0.07165 0.0
Eu275 Eu 0.00464 0.51677 0.03325 0.0
C276 C 0.02061 0.52403 0.0907 0.0
C277 C 0.03716 0.50805 0.0947 0.0
C278 C 0.05207 0.50984 0.11339 0.0
C279 C 0.05077 0.5277 0.12839 0.0
C280 C 0.03435 0.5438 0.12413 0.0
C281 C 0.01953 0.542 0.10553 0.0
C282 C 0.96153 0.47093 0.0108 0.0
C283 C 0.05086 0.49096 0.02195 0.0
C284 C 0.02489 0.51645 0.95195 0.0
Eu285 Eu 0.02221 0.51951 0.99037 0.0
C286 C 0.00619 0.51164 0.93318 0.0
C287 C 0.99064 0.52828 0.92792 0.0
C288 C 0.97446 0.52405 0.90949 0.0
C289 C 0.97348 0.50307 0.89604 0.0
C290 C 0.98887 0.48634 0.90153 0.0
C291 C 0.00499 0.49059 0.91986 0.0
C292 C 0.06465 0.56533 0.01335 0.0
C293 C 0.97338 0.54198 1.00077 0.0
O294 O 0.01489 0.54485 0.05926 0.0
O295 O 0.99067 0.4958 0.06264 0.0
O296 O 0.95498 0.48343 0.02485 0.0
O297 O 0.99053 0.48194 0.00999 0.0
O298 O 0.04269 0.50347 0.03563 0.0
O299 O 0.04241 0.49103 1.00306 0.0
O300 O 0.01662 0.49317 0.9642 0.0
O301 O 0.03406 0.54178 0.96114 0.0
O302 O 0.07184 0.55283 0.99964 0.0
O303 O 0.03567 0.55418 0.01353 0.0
O304 O 0.98223 0.52948 0.98758 0.0
O305 O 0.98207 0.54321 0.01977 0.0
H306 H 0.03834 0.49403 0.08347 0.0
H307 H 0.06473 0.49737 0.11607 0.0
H308 H 0.03233 0.55735 0.13535 0.0
H309 H 0.00675 0.55436 0.10281 0.0
H310 H 0.99121 0.5447 0.93792 0.0
H311 H 0.96267 0.53713 0.90581 0.0
H312 H 0.98912 0.47039 0.89144 0.0
H313 H 0.01699 0.47767 0.92352 0.0
C314 C 0.47211 0.48626 0.95772 0.0
Eu315 Eu 0.48423 0.49784 0.99571 0.0
C316 C 0.48785 0.48903 0.93902 0.0
C317 C 0.47228 0.4881 0.92076 0.0
C318 C 0.48584 0.48933 0.90277 0.0
C319 C 0.51545 0.49167 0.90257 0.0
C320 C 0.53135 0.49324 0.92093 0.0
C321 C 0.51759 0.49174 0.93899 0.0
C322 C 0.49026 0.54687 0.01434 0.0
C323 C 0.55913 0.52943 1.00569 0.0
C324 C 0.52377 0.51553 0.07703 0.0
Eu325 Eu 0.50985 0.50439 0.03919 0.0
C326 C 0.51035 0.51666 0.09579 0.0
C327 C 0.52909 0.52406 0.11325 0.0
C328 C 0.51756 0.52621 0.13125 0.0
C329 C 0.48692 0.52093 0.13221 0.0
C330 C 0.46793 0.51298 0.11471 0.0
C331 C 0.47963 0.51104 0.09659 0.0
C332 C 0.50434 0.45586 0.02009 0.0
C333 C 0.43541 0.47371 0.02988 0.0
O334 O 0.47232 0.46686 0.97125 0.0
O335 O 0.47622 0.51125 0.96544 0.0
O336 O 0.46804 0.53175 1.00143 0.0
O337 O 0.50904 0.5365 0.01594 0.0
O338 O 0.53571 0.51491 0.99285 0.0
O339 O 0.55496 0.53165 0.02459 0.0
O340 O 0.52736 0.53625 0.06343 0.0
O341 O 0.51404 0.48892 0.06952 0.0
O342 O 0.52671 0.47112 0.03285 0.0
O343 O 0.48528 0.46587 0.01888 0.0
O344 O 0.45911 0.48935 0.04223 0.0
O345 O 0.43904 0.47059 0.01095 0.0
H346 H 0.44936 0.48607 0.9204 0.0
H347 H 0.47309 0.48848 0.88895 0.0
H348 H 0.55407 0.49481 0.92135 0.0
H349 H 0.52993 0.49223 0.95291 0.0
H350 H 0.55283 0.5284 0.11294 0.0
H351 H 0.53266 0.53193 0.14447 0.0
H352 H 0.4443 0.50897 0.11492 0.0
H353 H 0.46488 0.50551 0.08323 0.0
C354 C 0.22341 0.36532 0.40548 0.0
Eu355 Eu 0.19574 0.35821 0.37067 0.0
C356 C 0.21894 0.34878 0.42457 0.0
C357 C 0.24114 0.36159 0.44004 0.0
C358 C 0.23522 0.34884 0.45923 0.0
C359 C 0.20694 0.32296 0.46325 0.0
C360 C 0.18546 0.30919 0.44736 0.0
C361 C 0.19134 0.32213 0.42818 0.0
C362 C 0.17708 0.39433 0.34874 0.0
C363 C 0.1227 0.30617 0.36568 0.0
C364 C 0.1398 0.32478 0.29042 0.0
Eu365 Eu 0.16476 0.33127 0.32609 0.0
C366 C 0.14953 0.34063 0.27116 0.0
C367 C 0.13107 0.32795 0.25405 0.0
C368 C 0.14243 0.33938 0.23523 0.0
C369 C 0.17256 0.36363 0.23321 0.0
C370 C 0.19049 0.37717 0.25047 0.0
C371 C 0.17901 0.36575 0.26931 0.0
C372 C 0.18369 0.2952 0.34777 0.0
C373 C 0.23767 0.38411 0.33111 0.0
O374 O 0.23061 0.35467 0.39038 0.0
O375 O 0.2029 0.3743 0.40073 0.0
O376 O 0.18898 0.40027 0.36676 0.0
O377 O 0.17549 0.36976 0.34434 0.0
O378 O 0.14763 0.32072 0.37761 0.0
O379 O 0.12317 0.30915 0.34587 0.0
O380 O 0.13438 0.33881 0.30432 0.0
O381 O 0.15573 0.3114 0.29707 0.0
O382 O 0.1715 0.28936 0.32984 0.0
O383 O 0.18541 0.31977 0.35237 0.0
O384 O 0.21311 0.36851 0.31914 0.0
O385 O 0.23701 0.38155 0.35088 0.0
H386 H 0.26246 0.3823 0.43748 0.0
H387 H 0.25209 0.36033 0.4711 0.0
H388 H 0.16367 0.289 0.44988 0.0
H389 H 0.17389 0.31199 0.41636 0.0
H390 H 0.10842 0.3083 0.25522 0.0
H391 H 0.12817 0.32821 0.22225 0.0
H392 H 0.21363 0.39608 0.24939 0.0
H393 H 0.19358 0.37577 0.2824 0.0
C394 C 0.66512 0.86011 0.40423 0.0
Eu395 Eu 0.66759 0.85426 0.36603 0.0
C396 C 0.68151 0.86133 0.42352 0.0
C397 C 0.70103 0.8483 0.4265 0.0
C398 C 0.7154 0.84909 0.44527 0.0
C399 C 0.7105 0.86294 0.46138 0.0
C400 C 0.69092 0.87595 0.45817 0.0
C401 C 0.6767 0.8752 0.43947 0.0
C402 C 0.62544 0.807 0.34422 0.0
C403 C 0.71529 0.82915 0.35661 0.0
C404 C 0.68809 0.84925 0.28538 0.0
Eu405 Eu 0.68578 0.85446 0.32357 0.0
C406 C 0.66953 0.84574 0.2666 0.0
C407 C 0.6754 0.87103 0.25419 0.0
C408 C 0.66018 0.8675 0.23552 0.0
C409 C 0.63898 0.83858 0.22876 0.0
C410 C 0.63245 0.81338 0.24142 0.0
C411 C 0.64757 0.8169 0.26009 0.0
C412 C 0.72769 0.90156 0.34565 0.0
C413 C 0.63779 0.87884 0.3321 0.0
O414 O 0.67868 0.88301 0.39179 0.0
O415 O 0.6514 0.83419 0.39532 0.0
O416 O 0.61819 0.82038 0.3573 0.0
O417 O 0.65447 0.81813 0.34394 0.0
O418 O 0.70654 0.84225 0.36952 0.0
O419 O 0.70654 0.82731 0.33767 0.0
O420 O 0.678 0.82635 0.29808 0.0
O421 O 0.69997 0.87526 0.29414 0.0
O422 O 0.73518 0.88832 0.33262 0.0
O423 O 0.69868 0.89045 0.34563 0.0
O424 O 0.64617 0.86488 0.3197 0.0
O425 O 0.64638 0.88115 0.35116 0.0
H426 H 0.70499 0.8374 0.41438 0.0
H427 H 0.73053 0.83908 0.4471 0.0
H428 H 0.68607 0.88631 0.47023 0.0
H429 H 0.66156 0.8852 0.43753 0.0
H430 H 0.69241 0.89353 0.25866 0.0
H431 H 0.66592 0.88733 0.22606 0.0
H432 H 0.61591 0.79082 0.23675 0.0
H433 H 0.64253 0.79689 0.2692 0.0
C434 C 0.14788 0.82469 0.29129 0.0
Eu435 Eu 0.15691 0.83395 0.32963 0.0
C436 C 0.16487 0.82537 0.27343 0.0
C437 C 0.18408 0.85268 0.26335 0.0
C438 C 0.19758 0.85272 0.24551 0.0
C439 C 0.1921 0.82545 0.23717 0.0
C440 C 0.17357 0.79823 0.24758 0.0
C441 C 0.16009 0.79819 0.2654 0.0
C442 C 0.15944 0.88057 0.34955 0.0
C443 C 0.23156 0.86753 0.34063 0.0
C444 C 0.19139 0.84742 0.41158 0.0
Eu445 Eu 0.18142 0.83875 0.37328 0.0
C446 C 0.17521 0.84811 0.42941 0.0
C447 C 0.16609 0.82466 0.44388 0.0
C448 C 0.15333 0.82621 0.46159 0.0
C449 C 0.1496 0.85141 0.46539 0.0
C450 C 0.15802 0.87454 0.45068 0.0
C451 C 0.17067 0.87294 0.43292 0.0
C452 C 0.17901 0.7924 0.35297 0.0
C453 C 0.10706 0.8073 0.36291 0.0
O454 O 0.14236 0.80322 0.30471 0.0
O455 O 0.15479 0.85043 0.29926 0.0
O456 O 0.13825 0.86574 0.33599 0.0
O457 O 0.17924 0.87141 0.35098 0.0
O458 O 0.2087 0.85234 0.32759 0.0
O459 O 0.22672 0.8686 0.35957 0.0
O460 O 0.19862 0.86929 0.39823 0.0
O461 O 0.18212 0.8212 0.40356 0.0
O462 O 0.20051 0.80742 0.36631 0.0
O463 O 0.15909 0.80136 0.3519 0.0
O464 O 0.13035 0.82207 0.3757 0.0
O465 O 0.11104 0.80584 0.34379 0.0
H466 H 0.18817 0.87407 0.26898 0.0
H467 H 0.21145 0.87412 0.2379 0.0
H468 H 0.16922 0.77679 0.24188 0.0
H469 H 0.14538 0.77673 0.27269 0.0
H470 H 0.16956 0.80539 0.44172 0.0
H471 H 0.14746 0.80816 0.47265 0.0
H472 H 0.15514 0.89411 0.45298 0.0
H473 H 0.17743 0.89148 0.42216 0.0
C474 C 0.88898 0.69952 0.73982 0.0
Eu475 Eu 0.85971 0.68916 0.70538 0.0
C476 C 0.88625 0.68692 0.76023 0.0
C477 C 0.88883 0.70531 0.77594 0.0
C478 C 0.88378 0.69369 0.79537 0.0
C479 C 0.87598 0.66338 0.7995 0.0
C480 C 0.87488 0.64529 0.78391 0.0
C481 C 0.88001 0.65703 0.76437 0.0
C482 C 0.84009 0.72421 0.68291 0.0
C483 C 0.78694 0.63607 0.70092 0.0
C484 C 0.80513 0.65436 0.6252 0.0
Eu485 Eu 0.829 0.66092 0.66114 0.0
C486 C 0.81641 0.6718 0.60661 0.0
C487 C 0.80132 0.65942 0.58848 0.0
C488 C 0.81486 0.67326 0.57054 0.0
C489 C 0.84384 0.69959 0.5705 0.0
C490 C 0.85833 0.71254 0.58872 0.0
C491 C 0.84469 0.69873 0.60662 0.0
C492 C 0.84882 0.62586 0.68305 0.0
C493 C 0.9017 0.7145 0.6658 0.0
O494 O 0.89427 0.68589 0.72555 0.0
O495 O 0.86911 0.70905 0.73444 0.0
O496 O 0.85158 0.73038 0.70099 0.0
O497 O 0.83941 0.69996 0.67871 0.0
O498 O 0.81176 0.65149 0.71281 0.0
O499 O 0.78747 0.63841 0.68106 0.0
O500 O 0.79805 0.66709 0.63913 0.0
O501 O 0.82131 0.64135 0.63208 0.0
O502 O 0.83674 0.61971 0.66511 0.0
O503 O 0.85001 0.65025 0.68763 0.0
O504 O 0.87719 0.69835 0.65397 0.0
O505 O 0.901 0.71245 0.68556 0.0
H506 H 0.89406 0.72857 0.7731 0.0
H507 H 0.88543 0.70833 0.80715 0.0
H508 H 0.86899 0.62187 0.78672 0.0
H509 H 0.87849 0.64266 0.75251 0.0
H510 H 0.77972 0.63839 0.5882 0.0
H511 H 0.80329 0.66261 0.55672 0.0
H512 H 0.88043 0.73301 0.58914 0.0
H513 H 0.85678 0.70856 0.62045 0.0
C514 C 0.32457 0.19082 0.73899 0.0
Eu515 Eu 0.32765 0.18582 0.70081 0.0
C516 C 0.34216 0.19165 0.75787 0.0
C517 C 0.33489 0.16495 0.76907 0.0
C518 C 0.34975 0.16592 0.7876 0.0
C519 C 0.37206 0.19364 0.79549 0.0
C520 C 0.37981 0.22028 0.78409 0.0
C521 C 0.36501 0.21931 0.76555 0.0
C522 C 0.28701 0.13771 0.67904 0.0
C523 C 0.37889 0.16414 0.69393 0.0
C524 C 0.35049 0.17862 0.62134 0.0
Eu525 Eu 0.34783 0.18533 0.65926 0.0
C526 C 0.33246 0.17585 0.60244 0.0
C527 C 0.3458 0.19762 0.58714 0.0
C528 C 0.33027 0.19448 0.56864 0.0
C529 C 0.30111 0.16933 0.56495 0.0
C530 C 0.28742 0.14787 0.58044 0.0
C531 C 0.30289 0.1511 0.599 0.0
C532 C 0.38872 0.23344 0.68095 0.0
C533 C 0.29958 0.21057 0.66628 0.0
O534 O 0.33712 0.21401 0.72662 0.0
O535 O 0.31036 0.16514 0.7298 0.0
O536 O 0.27887 0.15153 0.69124 0.0
O537 O 0.31613 0.14904 0.67946 0.0
O538 O 0.36783 0.17633 0.70585 0.0
O539 O 0.37125 0.16117 0.67477 0.0
O540 O 0.33908 0.15606 0.63428 0.0
O541 O 0.36353 0.20494 0.62975 0.0
O542 O 0.39674 0.22009 0.66831 0.0
O543 O 0.3596 0.22205 0.68066 0.0
O544 O 0.30878 0.19679 0.65425 0.0
O545 O 0.30715 0.21273 0.68547 0.0
H546 H 0.31719 0.14327 0.76374 0.0
H547 H 0.34297 0.14501 0.79606 0.0
H548 H 0.39718 0.24199 0.78959 0.0
H549 H 0.37113 0.24034 0.75739 0.0
H550 H 0.36863 0.21679 0.58935 0.0
H551 H 0.34162 0.21122 0.55698 0.0
H552 H 0.26483 0.1284 0.57813 0.0
H553 H 0.29188 0.13394 0.6105 0.0
C554 C 0.81518 0.1445 0.625 0.0
Eu555 Eu 0.82542 0.16337 0.66144 0.0
C556 C 0.82901 0.15293 0.60514 0.0
C557 C 0.86103 0.16488 0.60294 0.0
C558 C 0.87309 0.16877 0.58397 0.0
C559 C 0.85342 0.1608 0.56677 0.0
C560 C 0.82157 0.15013 0.56906 0.0
C561 C 0.80954 0.14616 0.58801 0.0
C562 C 0.83687 0.2169 0.6772 0.0
C563 C 0.89946 0.20178 0.67439 0.0
C564 C 0.85683 0.17365 0.74613 0.0
Eu565 Eu 0.84946 0.16806 0.70761 0.0
C566 C 0.84 0.17468 0.76338 0.0
C567 C 0.83908 0.15759 0.78066 0.0
C568 C 0.82485 0.15926 0.79762 0.0
C569 C 0.81146 0.17834 0.79774 0.0
C570 C 0.8117 0.19491 0.78025 0.0
C571 C 0.82559 0.1929 0.76317 0.0
C572 C 0.84624 0.12217 0.68642 0.0
C573 C 0.77554 0.14066 0.69536 0.0
O574 O 0.83023 0.13698 0.63881 0.0
O575 O 0.80307 0.16027 0.63183 0.0
O576 O 0.82737 0.20981 0.65879 0.0
O577 O 0.8397 0.19542 0.6854 0.0
O578 O 0.87767 0.18679 0.6606 0.0
O579 O 0.89396 0.20053 0.69354 0.0
O580 O 0.86724 0.19674 0.73351 0.0
O581 O 0.84555 0.14766 0.73738 0.0
O582 O 0.86754 0.13611 0.70013 0.0
O583 O 0.82722 0.13225 0.68526 0.0
O584 O 0.79859 0.15295 0.70877 0.0
O585 O 0.7794 0.13952 0.67613 0.0
H586 H 0.87664 0.17028 0.61591 0.0
H587 H 0.89767 0.17687 0.58288 0.0
H588 H 0.80575 0.14434 0.55619 0.0
H589 H 0.7848 0.13693 0.5893 0.0
H590 H 0.84993 0.14331 0.78117 0.0
H591 H 0.82532 0.14644 0.81089 0.0
H592 H 0.80131 0.20959 0.77983 0.0
H593 H 0.82539 0.20587 0.74993 0.0
C594 C 0.31539 0.8288 0.08209 0.0
C595 C 0.2884 0.83107 0.08379 0.0
C596 C 0.34267 0.85337 0.07506 0.0
C597 C 0.34323 0.8812 0.06992 0.0
C598 C 0.31656 0.88416 0.073 0.0
C599 C 0.28937 0.85896 0.07974 0.0
C600 C 0.37023 0.84886 0.07191 0.0
C601 C 0.3162 0.91348 0.0682 0.0
C602 C 0.42299 0.94942 0.06169 0.0
C603 C 0.4246 0.95081 0.04083 0.0
C604 C 0.39641 0.92761 0.07132 0.0
C605 C 0.3708 0.90619 0.05993 0.0
C606 C 0.37214 0.90775 0.03886 0.0
C607 C 0.39881 0.9301 0.0296 0.0
C608 C 0.39592 0.92721 0.09375 0.0
C609 C 0.34567 0.88518 0.02608 0.0
H610 H 0.31441 0.80708 0.08508 0.0
H611 H 0.26839 0.86057 0.08087 0.0
H612 H 0.37429 0.85028 0.05575 0.0
H613 H 0.3914 0.86697 0.07914 0.0
H614 H 0.36688 0.82664 0.0779 0.0
H615 H 0.29537 0.91337 0.07379 0.0
H616 H 0.33717 0.9327 0.07476 0.0
H617 H 0.31646 0.91742 0.05183 0.0
H618 H 0.44266 0.96532 0.07057 0.0
H619 H 0.39977 0.93076 0.01352 0.0
H620 H 0.39451 0.90584 0.09996 0.0
H621 H 0.3751 0.92803 0.09837 0.0
H622 H 0.41684 0.94645 0.1004 0.0
H623 H 0.34182 0.86202 0.02991 0.0
H624 H 0.35002 0.88965 0.00993 0.0
H625 H 0.32402 0.88567 0.02905 0.0
C626 C 0.12681 0.38595 0.05408 0.0
C627 C 0.15855 0.40373 0.05796 0.0
C628 C 0.10856 0.39934 0.04766 0.0
C629 C 0.1227 0.43115 0.04499 0.0
C630 C 0.15499 0.44905 0.0484 0.0
C631 C 0.1725 0.43508 0.05502 0.0
C632 C 0.07413 0.37963 0.04427 0.0
C633 C 0.17092 0.483 0.04556 0.0
C634 C 0.08138 0.4658 0.01337 0.0
C635 C 0.06948 0.47595 0.02793 0.0
C636 C 0.09854 0.45092 0.01872 0.0
C637 C 0.10373 0.44594 0.0391 0.0
C638 C 0.09172 0.456 0.05388 0.0
C639 C 0.07482 0.47102 0.04811 0.0
C640 C 0.11135 0.4408 1.00258 0.0
C641 C 0.09677 0.45096 0.07578 0.0
H642 H 0.11632 0.36171 0.05656 0.0
H643 H 0.19705 0.44866 0.05844 0.0
H644 H 0.06152 0.38575 0.05471 0.0
H645 H 0.06696 0.38347 0.02895 0.0
H646 H 0.06695 0.35522 0.04645 0.0
H647 H 0.19644 0.49338 0.04789 0.0
H648 H 0.16569 0.48918 0.03033 0.0
H649 H 0.1621 0.4929 0.05619 0.0
H650 H 0.07743 0.46957 0.99773 0.0
H651 H 0.06558 0.47867 0.05942 0.0
H652 H 0.10284 0.4161 1.00406 0.0
H653 H 0.13697 0.45206 1.0042 0.0
H654 H 0.1048 0.446 0.98741 0.0
H655 H 0.08792 0.4265 0.07912 0.0
H656 H 0.08512 0.45943 0.08537 0.0
H657 H 0.1219 0.46258 0.07979 0.0
C658 C 0.50633 0.68964 0.07185 0.0
C659 C 0.52662 0.71683 0.06229 0.0
C660 C 0.49994 0.66163 0.06438 0.0
C661 C 0.51359 0.66076 0.04662 0.0
C662 C 0.53353 0.68818 0.03665 0.0
C663 C 0.54004 0.71588 0.04473 0.0
C664 C 0.47892 0.633 0.07564 0.0
C665 C 0.54818 0.68828 0.01753 0.0
C666 C 0.52142 0.5914 0.03593 0.0
C667 C 0.49582 0.57557 0.02298 0.0
C668 C 0.52716 0.61885 0.04401 0.0
C669 C 0.50727 0.63119 0.0386 0.0
C670 C 0.4815 0.61538 0.0254 0.0
C671 C 0.47593 0.58762 0.0179 0.0
C672 C 0.55457 0.63469 0.0583 0.0
C673 C 0.46003 0.62797 0.01899 0.0
H674 H 0.49563 0.69038 0.08528 0.0
H675 H 0.55599 0.73689 0.03747 0.0
H676 H 0.45863 0.61837 0.06599 0.0
H677 H 0.4914 0.6201 0.07987 0.0
H678 H 0.47049 0.63759 0.08935 0.0
H679 H 0.56199 0.71144 0.01115 0.0
H680 H 0.56355 0.678 0.02025 0.0
H681 H 0.53002 0.67438 0.00635 0.0
H682 H 0.53711 0.58242 0.03968 0.0
H683 H 0.45619 0.57555 0.00781 0.0
H684 H 0.54685 0.63878 0.07246 0.0
H685 H 0.5711 0.65705 0.05192 0.0
H686 H 0.56697 0.62146 0.06168 0.0
H687 H 0.44946 0.63109 0.03219 0.0
H688 H 0.44121 0.61305 0.00848 0.0
H689 H 0.47333 0.65052 0.0117 0.0
C690 C 0.83003 0.32986 0.94981 0.0
C691 C 0.82507 0.30254 0.95909 0.0
C692 C 0.85246 0.35777 0.95746 0.0
C693 C 0.87016 0.35837 0.97497 0.0
C694 C 0.86493 0.33069 0.98448 0.0
C695 C 0.84256 0.30312 0.97635 0.0
C696 C 0.85735 0.38661 0.94675 0.0
C697 C 0.88299 0.33021 1.00323 0.0
C698 C 0.94694 0.42893 0.9869 0.0
C699 C 0.93825 0.44288 1.0009 0.0
C700 C 0.92499 0.4017 0.97811 0.0
C701 C 0.89365 0.38789 0.98358 0.0
C702 C 0.88478 0.40212 0.99756 0.0
C703 C 0.9071 0.42945 0.00593 0.0
C704 C 0.93541 0.38754 0.96309 0.0
C705 C 0.85174 0.38824 1.00391 0.0
H706 H 0.8165 0.32921 0.9364 0.0
H707 H 0.83878 0.2819 0.98335 0.0
H708 H 0.85276 0.40065 0.95681 0.0
H709 H 0.8818 0.4 0.94244 0.0
H710 H 0.8421 0.38227 0.93315 0.0
H711 H 0.87604 0.30686 0.00887 0.0
H712 H 0.90809 0.34175 1.0004 0.0
H713 H 0.87949 0.34275 0.01503 0.0
H714 H 0.97095 0.4392 0.98292 0.0
H715 H 0.90017 0.4401 0.01672 0.0
H716 H 0.92145 0.38396 0.94898 0.0
H717 H 0.93159 0.36505 0.96876 0.0
H718 H 0.96027 0.40167 0.95983 0.0
H719 H 0.83603 0.38522 0.99074 0.0
H720 H 0.8485 0.40225 0.01479 0.0
H721 H 0.84461 0.36551 0.01075 0.0
C722 C 0.72454 0.56678 0.97156 0.0
C723 C 0.74286 0.59677 0.96534 0.0
C724 C 0.69478 0.55693 0.97824 0.0
C725 C 0.68325 0.57773 0.97858 0.0
C726 C 0.70185 0.60818 0.97236 0.0
C727 C 0.73163 0.61737 0.96579 0.0
C728 C 0.6756 0.52428 0.98475 0.0
C729 C 0.69023 0.63089 0.97254 0.0
C730 C 0.59611 0.54334 0.97833 0.0
C731 C 0.59099 0.54329 0.99863 0.0
C732 C 0.62614 0.5552 0.97151 0.0
C733 C 0.6516 0.56734 0.98533 0.0
C734 C 0.64669 0.56808 1.00576 0.0
C735 C 0.61639 0.55603 0.01218 0.0
C736 C 0.63056 0.55409 0.94959 0.0
C737 C 0.67338 0.58085 0.0209 0.0
H738 H 0.73355 0.55104 0.97095 0.0
H739 H 0.7462 0.64056 0.96092 0.0
H740 H 0.66868 0.52291 1.00033 0.0
H741 H 0.65404 0.51343 0.97531 0.0
H742 H 0.68824 0.5112 0.9838 0.0
H743 H 0.70775 0.65375 0.96739 0.0
H744 H 0.66906 0.62338 0.96278 0.0
H745 H 0.6838 0.63246 0.9878 0.0
H746 H 0.57666 0.53387 0.96773 0.0
H747 H 0.61265 0.55617 0.02788 0.0
H748 H 0.64116 0.53947 0.94737 0.0
H749 H 0.64666 0.577 0.94374 0.0
H750 H 0.6084 0.54519 0.94068 0.0
H751 H 0.68546 0.5671 0.02155 0.0
H752 H 0.66572 0.5812 0.03605 0.0
H753 H 0.69048 0.60421 0.01642 0.0
C754 C 0.45117 0.17443 0.97069 0.0
C755 C 0.46673 0.19229 0.95423 0.0
C756 C 0.45571 0.15015 0.97766 0.0
C757 C 0.4758 0.14305 0.96763 0.0
C758 C 0.48933 0.15932 0.94988 0.0
C759 C 0.48483 0.18399 0.94346 0.0
C760 C 0.44095 0.13373 0.9967 0.0
C761 C 0.5102 0.15201 0.9384 0.0
C762 C 0.52015 0.1128 1.00093 0.0
C763 C 0.50236 0.08149 0.99875 0.0
C764 C 0.51204 0.13295 0.99059 0.0
C765 C 0.4858 0.12166 0.9773 0.0
C766 C 0.46833 0.09008 0.97447 0.0
C767 C 0.47654 0.07032 0.98547 0.0
C768 C 0.53113 0.16636 0.99435 0.0
C769 C 0.44072 0.07714 0.96007 0.0
H770 H 0.43682 0.18069 0.97879 0.0
H771 H 0.49691 0.19783 0.93075 0.0
H772 H 0.42932 0.10895 0.99481 0.0
H773 H 0.45915 0.13927 0.00868 0.0
H774 H 0.42374 0.14004 1.00163 0.0
H775 H 0.51416 0.16269 0.92325 0.0
H776 H 0.53293 0.16038 0.94651 0.0
H777 H 0.50021 0.12721 0.93702 0.0
H778 H 0.5402 0.12163 0.01112 0.0
H779 H 0.46269 0.04616 0.98372 0.0
H780 H 0.51639 0.17489 1.00042 0.0
H781 H 0.54017 0.17895 0.98017 0.0
H782 H 0.55099 0.17151 1.00499 0.0
H783 H 0.42175 0.08009 0.96585 0.0
H784 H 0.432 0.05269 0.95772 0.0
H785 H 0.4468 0.08938 0.94548 0.0
C786 C 0.73229 0.17311 0.9487 0.0
C787 C 0.73325 0.20133 0.94794 0.0
C788 C 0.70541 0.14671 0.95442 0.0
C789 C 0.67896 0.14864 0.95969 0.0
C790 C 0.67943 0.17695 0.95793 0.0
C791 C 0.70643 0.20282 0.95194 0.0
C792 C 0.70583 0.117 0.9557 0.0
C793 C 0.65193 0.18025 0.96336 0.0
C794 C 0.5996 0.079 0.96585 0.0
C795 C 0.59884 0.07429 0.98664 0.0
C796 C 0.62581 0.10239 0.95677 0.0
C797 C 0.65188 0.12188 0.96872 0.0
C798 C 0.65147 0.11679 0.98964 0.0
C799 C 0.62514 0.09308 0.9983 0.0
C800 C 0.62526 0.10666 0.93441 0.0
C801 C 0.67855 0.13708 1.00302 0.0
H802 H 0.75302 0.17193 0.94568 0.0
H803 H 0.707 0.22455 0.95098 0.0
H804 H 0.70588 0.10985 0.97155 0.0
H805 H 0.68471 0.09915 0.94824 0.0
H806 H 0.7265 0.11853 0.94882 0.0
H807 H 0.65522 0.20334 0.95996 0.0
H808 H 0.6307 0.16374 0.95524 0.0
H809 H 0.64803 0.17531 0.97952 0.0
H810 H 0.57951 0.06466 0.95664 0.0
H811 H 0.6249 0.08982 0.01434 0.0
H812 H 0.64626 0.10791 0.92826 0.0
H813 H 0.62543 0.12833 0.93048 0.0
H814 H 0.60447 0.08809 0.9271 0.0
H815 H 0.70004 0.13762 0.99836 0.0
H816 H 0.67507 0.12962 0.01891 0.0
H817 H 0.68215 0.16053 1.00167 0.0
C818 C 0.87209 0.62221 0.96483 0.0
C819 C 0.84227 0.5997 0.95973 0.0
C820 C 0.89516 0.61463 0.97105 0.0
C821 C 0.88776 0.58381 0.97236 0.0
C822 C 0.85759 0.56108 0.96683 0.0
C823 C 0.83517 0.5694 0.96051 0.0
C824 C 0.92717 0.63944 0.9766 0.0
C825 C 0.84881 0.52799 0.96808 0.0
C826 C 0.95016 0.56057 0.97348 0.0
C827 C 0.95267 0.55427 0.99383 0.0
C828 C 0.9298 0.57111 0.96634 0.0
C829 C 0.91124 0.5751 0.97988 0.0
C830 C 0.91401 0.5693 1.0005 0.0
C831 C 0.93491 0.55913 0.00726 0.0
C832 C 0.92772 0.57742 0.94428 0.0
C833 C 0.89426 0.573 0.01531 0.0
H834 H 0.87703 0.64559 0.96428 0.0
H835 H 0.81178 0.55229 0.95662 0.0
H836 H 0.93255 0.63713 0.99262 0.0
H837 H 0.94469 0.63749 0.96804 0.0
H838 H 0.9295 0.66229 0.97376 0.0
H839 H 0.82448 0.51326 0.96288 0.0
H840 H 0.8643 0.52373 0.95896 0.0
H841 H 0.85178 0.5214 0.98369 0.0
H842 H 0.96412 0.5572 0.96305 0.0
H843 H 0.93674 0.55422 0.023 0.0
H844 H 0.93138 0.60076 0.94164 0.0
H845 H 0.90424 0.56181 0.93817 0.0
H846 H 0.94496 0.57469 0.9359 0.0
H847 H 0.90001 0.56858 0.03089 0.0
H848 H 0.86947 0.55719 0.01191 0.0
H849 H 0.89722 0.59623 0.01413 0.0
C850 C 0.4644 0.29259 0.98272 0.0
C851 C 0.47791 0.29409 0.96465 0.0
C852 C 0.46899 0.31893 0.99189 0.0
C853 C 0.48695 0.34747 0.9825 0.0
C854 C 0.50045 0.34909 0.96413 0.0
C855 C 0.49608 0.3224 0.95557 0.0
C856 C 0.45459 0.3162 0.01161 0.0
C857 C 0.51933 0.37898 0.95346 0.0
C858 C 0.47413 0.41224 0.9976 0.0
C859 C 0.50001 0.4284 0.01026 0.0
C860 C 0.46991 0.38623 0.98814 0.0
C861 C 0.49163 0.37561 0.99191 0.0
C862 C 0.51762 0.39167 1.00491 0.0
C863 C 0.52164 0.41802 0.01377 0.0
C864 C 0.44219 0.37012 0.97413 0.0
C865 C 0.541 0.38081 0.00963 0.0
H866 H 0.45001 0.27069 0.9896 0.0
H867 H 0.50685 0.3236 0.94173 0.0
H868 H 0.47275 0.32993 0.02285 0.0
H869 H 0.43798 0.32517 0.01008 0.0
H870 H 0.44221 0.29244 0.01728 0.0
H871 H 0.52748 0.37629 0.93902 0.0
H872 H 0.50533 0.39072 0.95065 0.0
H873 H 0.53977 0.3938 0.96293 0.0
H874 H 0.45706 0.41985 0.99512 0.0
H875 H 0.54161 0.43034 0.02364 0.0
H876 H 0.42707 0.34692 0.97996 0.0
H877 H 0.44983 0.36795 0.95938 0.0
H878 H 0.4283 0.3821 0.97204 0.0
H879 H 0.5293 0.35756 0.01616 0.0
H880 H 0.55972 0.39565 0.02022 0.0
H881 H 0.55161 0.37987 0.99576 0.0
C882 C 0.18221 0.73135 0.05188 0.0
C883 C 0.19643 0.73097 0.07044 0.0
C884 C 0.16074 0.7043 0.04272 0.0
C885 C 0.15312 0.67613 0.05241 0.0
C886 C 0.16744 0.67571 0.07121 0.0
C887 C 0.18898 0.7031 0.07993 0.0
C888 C 0.14614 0.70587 0.02268 0.0
C889 C 0.16 0.64631 0.08212 0.0
C890 C 0.07714 0.60738 0.03668 0.0
C891 C 0.08722 0.59301 0.02392 0.0
C892 C 0.0983 0.6342 0.04623 0.0
C893 C 0.13036 0.64716 0.04282 0.0
C894 C 0.14064 0.63255 0.03006 0.0
C895 C 0.119 0.60566 0.02084 0.0
C896 C 0.08631 0.64882 0.05982 0.0
C897 C 0.17453 0.64553 0.02597 0.0
H898 H 0.18766 0.75289 0.04467 0.0
H899 H 0.20017 0.70284 0.09421 0.0
H900 H 0.15107 0.69323 0.01167 0.0
H901 H 0.12063 0.69501 0.02371 0.0
H902 H 0.15471 0.72949 0.01703 0.0
H903 H 0.17279 0.64984 0.09673 0.0
H904 H 0.13482 0.63331 0.08465 0.0
H905 H 0.1659 0.63226 0.07294 0.0
H906 H 0.05262 0.59783 0.03907 0.0
H907 H 0.12697 0.59468 0.011 0.0
H908 H 0.09197 0.67174 0.05394 0.0
H909 H 0.0978 0.65153 0.07481 0.0
H910 H 0.06087 0.63547 0.06139 0.0
H911 H 0.18341 0.6685 0.01913 0.0
H912 H 0.17884 0.63131 0.01586 0.0
H913 H 0.18804 0.64779 0.04014 0.0
C914 C 0.27395 0.43181 0.07385 0.0
C915 C 0.25345 0.40081 0.07461 0.0
C916 C 0.30445 0.44275 0.06815 0.0
C917 C 0.3145 0.42201 0.06322 0.0
C918 C 0.29435 0.39053 0.06532 0.0
C919 C 0.26382 0.38028 0.07091 0.0
C920 C 0.32516 0.47646 0.06611 0.0
C921 C 0.3044 0.36776 0.0605 0.0
C922 C 0.37774 0.45052 0.02561 0.0
C923 C 0.40417 0.45901 0.03806 0.0
C924 C 0.34827 0.43791 0.03361 0.0
C925 C 0.34526 0.43339 0.05451 0.0
C926 C 0.3718 0.44111 0.06708 0.0
C927 C 0.40092 0.45391 0.05871 0.0
C928 C 0.32042 0.43019 0.01977 0.0
C929 C 0.3695 0.43633 0.08939 0.0
H930 H 0.26536 0.44741 0.0765 0.0
H931 H 0.2475 0.35632 0.07129 0.0
H932 H 0.34776 0.48321 0.07406 0.0
H933 H 0.32982 0.48287 0.05016 0.0
H934 H 0.31461 0.48942 0.07203 0.0
H935 H 0.28736 0.34443 0.06517 0.0
H936 H 0.30714 0.36823 0.04421 0.0
H937 H 0.32719 0.37354 0.0679 0.0
H938 H 0.38014 0.45441 0.00966 0.0
H939 H 0.42121 0.45988 0.06841 0.0
H940 H 0.30931 0.44387 0.02335 0.0
H941 H 0.30302 0.40608 0.02187 0.0
H942 H 0.32658 0.43439 1.00387 0.0
H943 H 0.36009 0.45015 0.09547 0.0
H944 H 0.39228 0.44249 0.097 0.0
H945 H 0.35324 0.41233 0.09307 0.0
C946 C 0.52973 0.83254 0.08136 0.0
C947 C 0.54591 0.82221 0.07036 0.0
C948 C 0.528 0.85879 0.0753 0.0
C949 C 0.54239 0.8747 0.05766 0.0
C950 C 0.56054 0.86541 0.04734 0.0
C951 C 0.56226 0.83943 0.05394 0.0
C952 C 0.50896 0.8682 0.08699 0.0
C953 C 0.57613 0.88144 0.02842 0.0
C954 C 0.50114 0.909 0.02533 0.0
C955 C 0.52012 0.94008 0.02795 0.0
C956 C 0.50806 0.88771 0.03509 0.0
C957 C 0.53441 0.89758 0.04819 0.0
C958 C 0.55332 0.92895 0.05136 0.0
C959 C 0.54612 0.94991 0.04101 0.0
C960 C 0.48737 0.85457 0.03105 0.0
C961 C 0.58122 0.94032 0.06551 0.0
H962 H 0.51704 0.81919 0.09404 0.0
H963 H 0.57523 0.83166 0.0457 0.0
H964 H 0.52091 0.89308 0.08861 0.0
H965 H 0.48651 0.86174 0.07888 0.0
H966 H 0.50418 0.85722 0.10203 0.0
H967 H 0.59225 0.8737 0.02353 0.0
H968 H 0.55827 0.87709 0.01637 0.0
H969 H 0.58917 0.90621 0.03044 0.0
H970 H 0.48092 0.90118 0.01531 0.0
H971 H 0.56078 0.97389 0.04315 0.0
H972 H 0.47781 0.84198 0.04515 0.0
H973 H 0.501 0.84495 0.02481 0.0
H974 H 0.46777 0.85066 0.02045 0.0
H975 H 0.57465 0.92844 0.08019 0.0
H976 H 0.59186 0.96504 0.06772 0.0
H977 H 0.59885 0.93539 0.05966 0.0
C978 C 0.97962 0.16237 0.41279 0.0
C979 C 0.95362 0.16604 0.41529 0.0
C980 C 0.0076 0.18659 0.40641 0.0
C981 C 0.00981 0.21541 0.4026 0.0
C982 C 0.98418 0.21968 0.40644 0.0
C983 C 0.95633 0.19488 0.41268 0.0
C984 C 0.03419 0.18084 0.40261 0.0
C985 C 0.98557 0.25003 0.40289 0.0
C986 C 0.09108 0.28172 0.39596 0.0
C987 C 0.09307 0.28435 0.37511 0.0
C988 C 0.06395 0.26005 0.40511 0.0
C989 C 0.03806 0.24022 0.39321 0.0
C990 C 0.03969 0.2431 0.37218 0.0
C991 C 0.06703 0.26511 0.36341 0.0
C992 C 0.06322 0.25798 0.42755 0.0
C993 C 0.01277 0.22234 0.35889 0.0
H994 H 0.97748 0.14005 0.41495 0.0
H995 H 0.93611 0.19761 0.41443 0.0
H996 H 0.03838 0.18332 0.38643 0.0
H997 H 0.05572 0.1977 0.41028 0.0
H998 H 0.02961 0.15785 0.40771 0.0
H999 H 0.96526 0.25056 0.4088 0.0
H1000 H 0.00699 0.26807 0.40995 0.0
H1001 H 0.98626 0.25531 0.38667 0.0
H1002 H 0.11089 0.29641 0.40525 0.0
H1003 H 0.06814 0.26675 0.34733 0.0
H1004 H 0.06064 0.23578 0.43289 0.0
H1005 H 0.04294 0.25946 0.43254 0.0
H1006 H 0.08456 0.27609 0.43469 0.0
H1007 H 0.00782 0.19863 0.36172 0.0
H1008 H 0.01729 0.22801 0.34283 0.0
H1009 H 0.99167 0.22356 0.36232 0.0
C1010 C 0.85214 0.79426 0.38933 0.0
C1011 C 0.84133 0.7656 0.39826 0.0
C1012 C 0.83136 0.80378 0.38133 0.0
C1013 C 0.79917 0.78403 0.38249 0.0
C1014 C 0.78824 0.75454 0.39083 0.0
C1015 C 0.80962 0.74564 0.39863 0.0
C1016 C 0.8438 0.83532 0.37245 0.0
C1017 C 0.75407 0.73294 0.39231 0.0
C1018 C 0.74778 0.8204 0.38313 0.0
C1019 C 0.73614 0.81696 0.3634 0.0
C1020 C 0.76809 0.80945 0.3896 0.0
C1021 C 0.77701 0.79485 0.37596 0.0
C1022 C 0.7652 0.79109 0.35607 0.0
C1023 C 0.74485 0.80217 0.35002 0.0
C1024 C 0.78027 0.81379 0.41098 0.0
C1025 C 0.77432 0.77564 0.34117 0.0
H1026 H 0.87685 0.80949 0.38932 0.0
H1027 H 0.80173 0.72356 0.40573 0.0
H1028 H 0.83333 0.83461 0.35732 0.0
H1029 H 0.83741 0.84892 0.3817 0.0
H1030 H 0.86939 0.84699 0.37146 0.0
H1031 H 0.74949 0.71019 0.39799 0.0
H1032 H 0.74379 0.74204 0.40249 0.0
H1033 H 0.74209 0.7306 0.37753 0.0
H1034 H 0.74129 0.83191 0.39352 0.0
H1035 H 0.73592 0.79936 0.33473 0.0
H1036 H 0.80582 0.82793 0.41146 0.0
H1037 H 0.77491 0.79166 0.41818 0.0
H1038 H 0.77027 0.82479 0.41983 0.0
H1039 H 0.79971 0.78824 0.33935 0.0
H1040 H 0.76257 0.77401 0.32634 0.0
H1041 H 0.76856 0.75253 0.34667 0.0
C1042 C 0.17015 0.02078 0.40834 0.0
C1043 C 0.18827 0.04795 0.398 0.0
C1044 C 0.16458 0.99291 0.401 0.0
C1045 C 0.17729 0.99221 0.38278 0.0
C1046 C 0.19531 0.01967 0.37217 0.0
C1047 C 0.20075 0.04721 0.38 0.0
C1048 C 0.14548 0.96428 0.41288 0.0
C1049 C 0.20919 0.01999 0.35268 0.0
C1050 C 0.1888 0.92497 0.37164 0.0
C1051 C 0.16332 0.90834 0.35878 0.0
C1052 C 0.1933 0.95196 0.37986 0.0
C1053 C 0.17204 0.96284 0.3749 0.0
C1054 C 0.14609 0.94594 0.36206 0.0
C1055 C 0.14198 0.91885 0.35424 0.0
C1056 C 0.22106 0.96903 0.39366 0.0
C1057 C 0.12292 0.95672 0.35633 0.0
H1058 H 0.16067 0.02149 0.42232 0.0
H1059 H 0.21518 0.06833 0.37223 0.0
H1060 H 0.12519 0.94843 0.40371 0.0
H1061 H 0.15943 0.95282 0.41702 0.0
H1062 H 0.13712 0.96867 0.42669 0.0
H1063 H 0.22183 0.0431 0.34599 0.0
H1064 H 0.22548 0.01071 0.35502 0.0
H1065 H 0.19073 1.00533 0.34192 0.0
H1066 H 0.20548 0.91709 0.37511 0.0
H1067 H 0.12222 0.9061 0.34432 0.0
H1068 H 0.21354 0.97274 0.40802 0.0
H1069 H 0.23641 0.99159 0.38701 0.0
H1070 H 0.23467 0.9569 0.39672 0.0
H1071 H 0.11298 0.95976 0.36987 0.0
H1072 H 0.1037 0.94073 0.34648 0.0
H1073 H 0.13465 0.97904 0.34852 0.0
C1074 C 0.50915 0.63767 0.31199 0.0
C1075 C 0.49273 0.63607 0.29402 0.0
C1076 C 0.53093 0.66571 0.3198 0.0
C1077 C 0.53672 0.69282 0.30924 0.0
C1078 C 0.52035 0.6912 0.29093 0.0
C1079 C 0.49852 0.66284 0.28358 0.0
C1080 C 0.54775 0.66633 0.33937 0.0
C1081 C 0.52591 0.71943 0.2791 0.0
C1082 C 0.57127 0.76542 0.33851 0.0
C1083 C 0.60279 0.77856 0.33449 0.0
C1084 C 0.54956 0.73771 0.33028 0.0
C1085 C 0.55949 0.72281 0.31753 0.0
C1086 C 0.59123 0.73634 0.31305 0.0
C1087 C 0.61251 0.76396 0.32166 0.0
C1088 C 0.51603 0.72414 0.3355 0.0
C1089 C 0.60278 0.72146 0.29935 0.0
H1090 H 0.50504 0.61687 0.3198 0.0
H1091 H 0.4859 0.66145 0.26961 0.0
H1092 H 0.57307 0.6778 0.33728 0.0
H1093 H 0.54334 0.67948 0.35027 0.0
H1094 H 0.54053 0.6433 0.34576 0.0
H1095 H 0.51175 0.71429 0.26496 0.0
H1096 H 0.52034 0.73391 0.28808 0.0
H1097 H 0.55071 0.73273 0.27555 0.0
H1098 H 0.56358 0.77659 0.34839 0.0
H1099 H 0.63682 0.77399 0.31849 0.0
H1100 H 0.50848 0.70182 0.34309 0.0
H1101 H 0.50125 0.7203 0.32175 0.0
H1102 H 0.51194 0.73877 0.34538 0.0
H1103 H 0.59872 0.6993 0.30587 0.0
H1104 H 0.62786 0.7355 0.29667 0.0
H1105 H 0.58975 0.71705 0.28482 0.0
C1106 C 0.40434 0.96443 0.30127 0.0
C1107 C 0.41564 0.94404 0.29966 0.0
C1108 C 0.3745 0.95454 0.30805 0.0
C1109 C 0.35596 0.92363 0.31329 0.0
C1110 C 0.36748 0.90305 0.31167 0.0
C1111 C 0.39716 0.91353 0.30473 0.0
C1112 C 0.36274 0.97697 0.30946 0.0
C1113 C 0.34839 0.86991 0.3171 0.0
C1114 C 0.28871 0.89653 0.34726 0.0
C1115 C 0.26345 0.8837 0.33362 0.0
C1116 C 0.3191 0.91079 0.34076 0.0
C1117 C 0.32423 0.91233 0.32017 0.0
C1118 C 0.29885 0.90042 0.30628 0.0
C1119 C 0.26873 0.88615 0.31318 0.0
C1120 C 0.34571 0.92311 0.35598 0.0
C1121 C 0.30349 0.90177 0.28417 0.0
H1122 H 0.41887 0.98796 0.29714 0.0
H1123 H 0.40595 0.89784 0.30299 0.0
H1124 H 0.34161 0.97012 0.29974 0.0
H1125 H 0.35617 0.97719 0.32492 0.0
H1126 H 0.38022 1.00024 0.30501 0.0
H1127 H 0.36121 0.85714 0.31546 0.0
H1128 H 0.34121 0.8672 0.33273 0.0
H1129 H 0.327 0.85966 0.30747 0.0
H1130 H 0.2848 0.89484 0.36307 0.0
H1131 H 0.24933 0.8766 0.30252 0.0
H1132 H 0.36254 0.94681 0.35204 0.0
H1133 H 0.35814 0.90971 0.35602 0.0
H1134 H 0.33786 0.92233 0.37125 0.0
H1135 H 0.31976 0.9252 0.27928 0.0
H1136 H 0.28141 0.89389 0.27527 0.0
H1137 H 0.31393 0.8874 0.28083 0.0
C1138 C 0.12485 0.50494 0.28804 0.0
C1139 C 0.15146 0.53279 0.28533 0.0
C1140 C 0.12703 0.47938 0.29537 0.0
C1141 C 0.15655 0.48183 0.3001 0.0
C1142 C 0.18347 0.50937 0.29576 0.0
C1143 C 0.18056 0.5345 0.28846 0.0
C1144 C 0.09776 0.45036 0.29935 0.0
C1145 C 0.21538 0.51293 0.30015 0.0
C1146 C 0.16585 0.43735 0.34479 0.0
C1147 C 0.16918 0.4146 0.33591 0.0
C1148 C 0.16091 0.45869 0.33326 0.0
C1149 C 0.15937 0.45749 0.3122 0.0
C1150 C 0.16204 0.4341 0.30311 0.0
C1151 C 0.16711 0.41303 0.31509 0.0
C1152 C 0.15814 0.48307 0.34369 0.0
C1153 C 0.16082 0.4319 0.28077 0.0
H1154 H 0.10236 0.50372 0.28563 0.0
H1155 H 0.20109 0.556 0.28608 0.0
H1156 H 0.0992 0.43089 0.29356 0.0
H1157 H 0.09485 0.44662 0.31566 0.0
H1158 H 0.07696 0.4508 0.29247 0.0
H1159 H 0.23378 0.53449 0.29389 0.0
H1160 H 0.21963 0.51247 0.31651 0.0
H1161 H 0.21719 0.49389 0.29398 0.0
H1162 H 0.16755 0.43875 0.36088 0.0
H1163 H 0.17058 0.39607 0.30814 0.0
H1164 H 0.13619 0.48297 0.33889 0.0
H1165 H 0.1774 0.50557 0.33955 0.0
H1166 H 0.15871 0.48022 0.36016 0.0
H1167 H 0.14376 0.4381 0.2736 0.0
H1168 H 0.15478 0.40878 0.27627 0.0
H1169 H 0.18389 0.44781 0.27501 0.0
C1170 C 0.40133 0.50615 0.28551 0.0
C1171 C 0.40178 0.5341 0.28367 0.0
C1172 C 0.37455 0.47987 0.29142 0.0
C1173 C 0.34765 0.48167 0.29572 0.0
C1174 C 0.34769 0.50971 0.29296 0.0
C1175 C 0.37471 0.53551 0.28692 0.0
C1176 C 0.37553 0.45049 0.29397 0.0
C1177 C 0.31964 0.51279 0.29728 0.0
C1178 C 0.26898 0.41112 0.30112 0.0
C1179 C 0.26688 0.40728 0.32192 0.0
C1180 C 0.29536 0.43467 0.29234 0.0
C1181 C 0.32038 0.45503 0.3046 0.0
C1182 C 0.31879 0.45079 0.32556 0.0
C1183 C 0.2922 0.42703 0.33394 0.0
C1184 C 0.2961 0.43819 0.26994 0.0
C1185 C 0.34486 0.47194 0.33923 0.0
H1186 H 0.42239 0.50518 0.28324 0.0
H1187 H 0.37509 0.55714 0.28532 0.0
H1188 H 0.37479 0.44412 0.31003 0.0
H1189 H 0.35502 0.43207 0.2864 0.0
H1190 H 0.39679 0.45206 0.28796 0.0
H1191 H 0.32264 0.53557 0.29306 0.0
H1192 H 0.29885 0.49563 0.28914 0.0
H1193 H 0.31515 0.50868 0.31341 0.0
H1194 H 0.24976 0.39604 0.2916 0.0
H1195 H 0.29103 0.42446 0.35 0.0
H1196 H 0.3176 0.43946 0.26463 0.0
H1197 H 0.29624 0.45964 0.2653 0.0
H1198 H 0.27586 0.41927 0.26246 0.0
H1199 H 0.36692 0.47293 0.33541 0.0
H1200 H 0.34062 0.46496 0.35516 0.0
H1201 H 0.34787 0.49513 0.33724 0.0
C1202 C 0.54338 0.96369 0.2896 0.0
C1203 C 0.51201 0.94246 0.2899 0.0
C1204 C 0.56601 0.9551 0.29499 0.0
C1205 C 0.55669 0.92462 0.3007 0.0
C1206 C 0.52494 0.90288 0.29993 0.0
C1207 C 0.50298 0.91214 0.29448 0.0
C1208 C 0.59969 0.97876 0.29544 0.0
C1209 C 0.51406 0.87013 0.3057 0.0
C1210 C 0.61192 0.89231 0.3035 0.0
C1211 C 0.61826 0.89202 0.3241 0.0
C1212 C 0.59286 0.90397 0.29555 0.0
C1213 C 0.57971 0.91546 0.30854 0.0
C1214 C 0.58659 0.91594 0.32929 0.0
C1215 C 0.60588 0.90425 0.33683 0.0
C1216 C 0.58607 0.90316 0.27335 0.0
C1217 C 0.57281 0.92796 0.34357 0.0
H1218 H 0.54998 0.98711 0.28597 0.0
H1219 H 0.47853 0.8959 0.29435 0.0
H1220 H 0.6089 0.98237 0.31107 0.0
H1221 H 0.61344 0.97103 0.28728 0.0
H1222 H 0.6032 1.00071 0.2888 0.0
H1223 H 0.48868 0.85589 0.3032 0.0
H1224 H 0.52601 0.86095 0.29703 0.0
H1225 H 0.51997 0.86824 0.32168 0.0
H1226 H 0.62164 0.88319 0.29348 0.0
H1227 H 0.61079 0.90423 0.35274 0.0
H1228 H 0.59059 0.92579 0.26751 0.0
H1229 H 0.56124 0.88733 0.27013 0.0
H1230 H 0.60016 0.89582 0.26515 0.0
H1231 H 0.57778 0.95119 0.33894 0.0
H1232 H 0.58188 0.92835 0.35911 0.0
H1233 H 0.54728 0.91366 0.34329 0.0
C1234 C 0.17366 0.6592 0.28897 0.0
C1235 C 0.15576 0.631 0.29823 0.0
C1236 C 0.17797 0.68597 0.29741 0.0
C1237 C 0.16449 0.68451 0.31577 0.0
C1238 C 0.14681 0.65601 0.32533 0.0
C1239 C 0.14245 0.62959 0.31634 0.0
C1240 C 0.19658 0.71575 0.28656 0.0
C1241 C 0.13233 0.65339 0.345 0.0
C1242 C 0.19766 0.75541 0.34681 0.0
C1243 C 0.17568 0.76532 0.34303 0.0
C1244 C 0.19434 0.72922 0.33804 0.0
C1245 C 0.16865 0.71273 0.32492 0.0
C1246 C 0.14667 0.72296 0.3208 0.0
C1247 C 0.15025 0.74888 0.33009 0.0
C1248 C 0.21812 0.71896 0.34303 0.0
C1249 C 0.11922 0.70641 0.30666 0.0
H1250 H 0.18386 0.66011 0.27493 0.0
H1251 H 0.12845 0.60768 0.32336 0.0
H1252 H 0.1821 0.72687 0.28319 0.0
H1253 H 0.21654 0.73114 0.29615 0.0
H1254 H 0.2054 0.71301 0.2724 0.0
H1255 H 0.12014 0.62971 0.3508 0.0
H1256 H 0.15039 0.66741 0.3562 0.0
H1257 H 0.11551 0.66212 0.3433 0.0
H1258 H 0.21733 0.76795 0.35685 0.0
H1259 H 0.13295 0.75613 0.32733 0.0
H1260 H 0.22879 0.71781 0.32924 0.0
H1261 H 0.20676 0.69588 0.34984 0.0
H1262 H 0.23676 0.73427 0.35349 0.0
H1263 H 0.12719 0.70424 0.29203 0.0
H1264 H 0.10505 0.71807 0.30431 0.0
H1265 H 0.10429 0.68321 0.31257 0.0
C1266 C 0.84541 0.06785 0.38263 0.0
C1267 C 0.85962 0.06791 0.40124 0.0
C1268 C 0.82377 0.04059 0.37383 0.0
C1269 C 0.81585 0.01274 0.38405 0.0
C1270 C 0.82995 0.0128 0.40302 0.0
C1271 C 0.85172 0.04041 0.41135 0.0
C1272 C 0.80941 0.04161 0.35359 0.0
C1273 C 0.82204 0.98372 0.4145 0.0
C1274 C 0.7399 0.94418 0.36835 0.0
C1275 C 0.75011 0.92933 0.3561 0.0
C1276 C 0.76104 0.97106 0.3778 0.0
C1277 C 0.79315 0.98358 0.37476 0.0
C1278 C 0.80355 0.96848 0.36253 0.0
C1279 C 0.78194 0.94151 0.35342 0.0
C1280 C 0.74897 0.98625 0.39086 0.0
C1281 C 0.83751 0.98103 0.35883 0.0
H1282 H 0.85121 0.08924 0.37505 0.0
H1283 H 0.86268 0.04064 0.42581 0.0
H1284 H 0.8144 0.02854 0.34294 0.0
H1285 H 0.78389 0.03089 0.35447 0.0
H1286 H 0.81815 0.06506 0.34758 0.0
H1287 H 0.83459 0.98767 0.42921 0.0
H1288 H 0.79679 0.97106 0.41688 0.0
H1289 H 0.82786 0.96914 0.4058 0.0
H1290 H 0.71533 0.93495 0.37041 0.0
H1291 H 0.78998 0.93012 0.34398 0.0
H1292 H 0.75474 1.00899 0.38456 0.0
H1293 H 0.76029 0.98945 0.40593 0.0
H1294 H 0.7235 0.97303 0.39234 0.0
H1295 H 0.84671 1.00383 0.35167 0.0
H1296 H 0.84189 0.96639 0.34914 0.0
H1297 H 0.85069 0.9836 0.37317 0.0
C1298 C 0.96015 0.78299 0.41631 0.0
C1299 C 0.93385 0.75493 0.41388 0.0
C1300 C 0.98845 0.7886 0.40891 0.0
C1301 C 0.99027 0.76531 0.39911 0.0
C1302 C 0.96418 0.73619 0.39803 0.0
C1303 C 0.93607 0.73143 0.40532 0.0
C1304 C 0.01573 0.81999 0.41032 0.0
C1305 C 0.96545 0.71063 0.38816 0.0
C1306 C 0.05089 0.79251 0.35985 0.0
C1307 C 0.07586 0.79264 0.37086 0.0
C1308 C 0.0224 0.78271 0.36873 0.0
C1309 C 0.01887 0.77223 0.38886 0.0
C1310 C 0.04351 0.77059 0.39958 0.0
C1311 C 0.07184 0.78115 0.39051 0.0
C1312 C 0.99667 0.78511 0.35693 0.0
C1313 C 0.04041 0.75891 0.42088 0.0
H1314 H 0.95789 0.80109 0.42271 0.0
H1315 H 0.91535 0.70986 0.40341 0.0
H1316 H 0.03637 0.81901 0.41691 0.0
H1317 H 0.02159 0.83031 0.39516 0.0
H1318 H 0.01097 0.83494 0.41945 0.0
H1319 H 0.94456 0.68858 0.39093 0.0
H1320 H 0.96719 0.7151 0.37185 0.0
H1321 H 0.98627 0.70897 0.39358 0.0
H1322 H 0.05413 0.80158 0.34472 0.0
H1323 H 0.09115 0.78097 0.39896 0.0
H1324 H 0.99177 0.80181 0.36384 0.0
H1325 H 0.9751 0.7631 0.35721 0.0
H1326 H 1.00255 0.79223 0.34118 0.0
H1327 H 0.03886 0.77513 0.43069 0.0
H1328 H 0.06038 0.75571 0.42626 0.0
H1329 H 0.01884 0.73707 0.42241 0.0
C1330 C 0.17236 0.15074 0.40539 0.0
C1331 C 0.20048 0.15033 0.40828 0.0
C1332 C 0.17156 0.17722 0.39878 0.0
C1333 C 0.19958 0.20383 0.39474 0.0
C1334 C 0.22814 0.20402 0.39913 0.0
C1335 C 0.22824 0.17722 0.40588 0.0
C1336 C 0.14066 0.17629 0.39503 0.0
C1337 C 0.2585 0.23208 0.3956 0.0
C1338 C 0.19275 0.25093 0.35098 0.0
C1339 C 0.19127 0.27443 0.36026 0.0
C1340 C 0.19653 0.22862 0.36208 0.0
C1341 C 0.1987 0.22952 0.38315 0.0
C1342 C 0.19834 0.25386 0.39265 0.0
C1343 C 0.19454 0.27603 0.38106 0.0
C1344 C 0.19721 0.20347 0.3512 0.0
C1345 C 0.20058 0.25619 0.41501 0.0
H1346 H 0.15096 0.13 0.40766 0.0
H1347 H 0.24995 0.17681 0.40825 0.0
H1348 H 0.14079 0.19583 0.402 0.0
H1349 H 0.13634 0.17803 0.37878 0.0
H1350 H 0.12131 0.1551 0.40096 0.0
H1351 H 0.27856 0.22963 0.40182 0.0
H1352 H 0.26125 0.23694 0.37935 0.0
H1353 H 0.25877 0.2518 0.40239 0.0
H1354 H 0.19033 0.24961 0.33489 0.0
H1355 H 0.19303 0.29391 0.38833 0.0
H1356 H 0.17687 0.18157 0.35508 0.0
H1357 H 0.21827 0.20175 0.35585 0.0
H1358 H 0.19688 0.2069 0.33477 0.0
H1359 H 0.17699 0.24764 0.4206 0.0
H1360 H 0.2145 0.28016 0.41933 0.0
H1361 H 0.21107 0.24304 0.42248 0.0
C1362 C 0.62048 0.52511 0.74845 0.0
C1363 C 0.61753 0.4962 0.75134 0.0
C1364 C 0.64835 0.54966 0.74193 0.0
C1365 C 0.67382 0.54512 0.73807 0.0
C1366 C 0.67132 0.5162 0.74203 0.0
C1367 C 0.64329 0.49221 0.74865 0.0
C1368 C 0.64994 0.58005 0.73816 0.0
C1369 C 0.69768 0.51011 0.73823 0.0
C1370 C 0.73128 0.59461 0.69877 0.0
C1371 C 0.75733 0.61404 0.71042 0.0
C1372 C 0.70393 0.57258 0.70757 0.0
C1373 C 0.70223 0.5698 0.72861 0.0
C1374 C 0.72815 0.58975 0.74046 0.0
C1375 C 0.75529 0.61146 0.73127 0.0
C1376 C 0.67701 0.55178 0.6943 0.0
C1377 C 0.72742 0.5878 0.76289 0.0
H1378 H 0.60042 0.52808 0.7502 0.0
H1379 H 0.64093 0.4698 0.75085 0.0
H1380 H 0.6714 0.5981 0.74517 0.0
H1381 H 0.65071 0.58515 0.72191 0.0
H1382 H 0.62968 0.58082 0.74396 0.0
H1383 H 0.69293 0.48712 0.74343 0.0
H1384 H 0.70175 0.51239 0.72203 0.0
H1385 H 0.71933 0.52695 0.74581 0.0
H1386 H 0.73238 0.59616 0.68269 0.0
H1387 H 0.77507 0.62625 0.74054 0.0
H1388 H 0.65594 0.55312 0.69766 0.0
H1389 H 0.67196 0.52806 0.69724 0.0
H1390 H 0.68157 0.55731 0.67824 0.0
H1391 H 0.70714 0.58933 0.76784 0.0
H1392 H 0.74875 0.60595 0.77 0.0
H1393 H 0.72482 0.56562 0.76829 0.0
C1394 C 0.53593 0.17467 0.73542 0.0
C1395 C 0.53354 0.14766 0.74341 0.0
C1396 C 0.50991 0.17553 0.72667 0.0
C1397 C 0.48112 0.1486 0.72592 0.0
C1398 C 0.47889 0.12113 0.73374 0.0
C1399 C 0.50527 0.12104 0.74249 0.0
C1400 C 0.51305 0.20527 0.7186 0.0
C1401 C 0.44861 0.09202 0.73313 0.0
C1402 C 0.41027 0.15923 0.7227 0.0
C1403 C 0.40281 0.15668 0.70219 0.0
C1404 C 0.43525 0.15584 0.73068 0.0
C1405 C 0.4531 0.1496 0.71785 0.0
C1406 C 0.44496 0.1457 0.69728 0.0
C1407 C 0.41983 0.14931 0.68966 0.0
C1408 C 0.44321 0.16006 0.75272 0.0
C1409 C 0.46344 0.1388 0.68324 0.0
H1410 H 0.55812 0.19504 0.73627 0.0
H1411 H 0.50399 0.10028 0.74871 0.0
H1412 H 0.505 0.20317 0.70274 0.0
H1413 H 0.4982 0.2115 0.72689 0.0
H1414 H 0.53729 0.22387 0.71979 0.0
H1415 H 0.45122 0.07239 0.73902 0.0
H1416 H 0.4315 0.09406 0.74206 0.0
H1417 H 0.43896 0.08747 0.71762 0.0
H1418 H 0.39709 0.16468 0.73254 0.0
H1419 H 0.41417 0.14727 0.67382 0.0
H1420 H 0.46629 0.18009 0.75507 0.0
H1421 H 0.44457 0.1402 0.75943 0.0
H1422 H 0.42601 0.16329 0.76079 0.0
H1423 H 0.48718 0.15819 0.68248 0.0
H1424 H 0.45276 0.1343 0.66795 0.0
H1425 H 0.46567 0.11888 0.68885 0.0
C1426 C 0.89298 0.37954 0.7239 0.0
C1427 C 0.86772 0.38336 0.72839 0.0
C1428 C 0.8886 0.35256 0.71576 0.0
C1429 C 0.85817 0.32864 0.71229 0.0
C1430 C 0.83257 0.33242 0.71696 0.0
C1431 C 0.83767 0.35987 0.7248 0.0
C1432 C 0.91653 0.34959 0.71096 0.0
C1433 C 0.7998 0.30735 0.71387 0.0
C1434 C 0.84436 0.26943 0.67428 0.0
C1435 C 0.84304 0.24547 0.6864 0.0
C1436 C 0.84955 0.29662 0.68251 0.0
C1437 C 0.85317 0.29992 0.70343 0.0
C1438 C 0.852 0.27579 0.71575 0.0
C1439 C 0.84691 0.24885 0.70707 0.0
C1440 C 0.85117 0.32186 0.66877 0.0
C1441 C 0.85528 0.27799 0.73813 0.0
H1442 H 0.91618 0.39782 0.72674 0.0
H1443 H 0.81823 0.36286 0.72852 0.0
H1444 H 0.91659 0.33039 0.71967 0.0
H1445 H 0.91547 0.34462 0.69496 0.0
H1446 H 0.93861 0.37039 0.71429 0.0
H1447 H 0.78246 0.31371 0.71846 0.0
H1448 H 0.79517 0.30126 0.69795 0.0
H1449 H 0.79667 0.28688 0.72255 0.0
H1450 H 0.84142 0.26696 0.65827 0.0
H1451 H 0.84541 0.23025 0.71648 0.0
H1452 H 0.87367 0.34257 0.6712 0.0
H1453 H 0.83271 0.32736 0.67216 0.0
H1454 H 0.84854 0.31598 0.65283 0.0
H1455 H 0.87372 0.30059 0.74274 0.0
H1456 H 0.86069 0.26063 0.74516 0.0
H1457 H 0.83321 0.27459 0.74398 0.0
C1458 C 0.16304 0.99255 0.61776 0.0
C1459 C 0.15667 0.96586 0.62852 0.0
C1460 C 0.18458 0.02099 0.62517 0.0
C1461 C 0.19997 0.0228 0.64392 0.0
C1462 C 0.19348 0.99578 0.65485 0.0
C1463 C 0.17206 0.96765 0.64694 0.0
C1464 C 0.19092 0.04909 0.61293 0.0
C1465 C 0.20917 0.99658 0.6749 0.0
C1466 C 0.2753 0.09402 0.6573 0.0
C1467 C 0.26491 0.10898 0.66932 0.0
C1468 C 0.25443 0.06626 0.64864 0.0
C1469 C 0.2224 0.05291 0.65229 0.0
C1470 C 0.21181 0.06813 0.66428 0.0
C1471 C 0.23313 0.09598 0.67254 0.0
C1472 C 0.2667 0.05107 0.63576 0.0
C1473 C 0.17797 0.05477 0.66863 0.0
H1474 H 0.15122 0.991 0.60343 0.0
H1475 H 0.16742 0.94693 0.65506 0.0
H1476 H 0.1849 0.06378 0.62135 0.0
H1477 H 0.21595 0.06225 0.60996 0.0
H1478 H 0.17757 0.04381 0.59848 0.0
H1479 H 0.20149 0.97362 0.68155 0.0
H1480 H 0.23462 1.00791 0.67343 0.0
H1481 H 0.2042 0.00996 0.6853 0.0
H1482 H 0.29981 0.1039 0.65477 0.0
H1483 H 0.22488 0.1074 0.6818 0.0
H1484 H 0.25457 0.0466 0.62091 0.0
H1485 H 0.26208 0.02892 0.64259 0.0
H1486 H 0.29198 0.06492 0.63369 0.0
H1487 H 0.16398 0.05087 0.65452 0.0
H1488 H 0.17339 0.06956 0.67804 0.0
H1489 H 0.1699 0.0325 0.6764 0.0
C1490 C 0.06449 0.25322 0.63683 0.0
C1491 C 0.08371 0.28412 0.63347 0.0
C1492 C 0.03491 0.24243 0.64403 0.0
C1493 C 0.02425 0.26317 0.6477 0.0
C1494 C 0.04357 0.29452 0.64418 0.0
C1495 C 0.07331 0.30468 0.6371 0.0
C1496 C 0.01502 0.20884 0.64758 0.0
C1497 C 0.03277 0.31715 0.64779 0.0
C1498 C 0.93709 0.22629 0.64745 0.0
C1499 C 0.93147 0.22032 0.66783 0.0
C1500 C 0.96732 0.24184 0.64075 0.0
C1501 C 0.99251 0.25153 0.65475 0.0
C1502 C 0.98706 0.24683 0.67538 0.0
C1503 C 0.95652 0.23132 0.68169 0.0
C1504 C 0.97224 0.24657 0.61862 0.0
C1505 C 0.01344 0.25675 0.69071 0.0
H1506 H 0.07276 0.23753 0.63371 0.0
H1507 H 0.08849 0.32857 0.63436 0.0
H1508 H 0.00787 0.20414 0.66326 0.0
H1509 H 0.99364 0.20035 0.63796 0.0
H1510 H 0.02722 0.19594 0.64446 0.0
H1511 H 0.05078 0.34073 0.64453 0.0
H1512 H 0.01178 0.31214 0.63831 0.0
H1513 H 0.02627 0.31537 0.66351 0.0
H1514 H 0.91787 0.21831 0.63663 0.0
H1515 H 0.95237 0.22694 0.69746 0.0
H1516 H 0.98213 0.23246 0.6137 0.0
H1517 H 0.98904 0.27047 0.61514 0.0
H1518 H 0.95035 0.24049 0.60985 0.0
H1519 H 0.02519 0.2429 0.68958 0.0
H1520 H 0.00544 0.25432 0.70613 0.0
H1521 H 0.03088 0.28065 0.6879 0.0
C1522 C 0.78524 0.83272 0.62174 0.0
C1523 C 0.81181 0.86025 0.61816 0.0
C1524 C 0.78752 0.80733 0.62934 0.0
C1525 C 0.81711 0.80965 0.63349 0.0
C1526 C 0.84388 0.83676 0.62823 0.0
C1527 C 0.84088 0.86172 0.62067 0.0
C1528 C 0.75837 0.77867 0.6342 0.0
C1529 C 0.87584 0.84012 0.63192 0.0
C1530 C 0.82866 0.76715 0.67861 0.0
C1531 C 0.83139 0.74388 0.66998 0.0
C1532 C 0.82317 0.78801 0.66689 0.0
C1533 C 0.82037 0.78575 0.64588 0.0
C1534 C 0.82231 0.76176 0.63706 0.0
C1535 C 0.82802 0.74126 0.64924 0.0
C1536 C 0.82125 0.81307 0.67704 0.0
C1537 C 0.81971 0.75829 0.61479 0.0
H1538 H 0.76279 0.83171 0.61982 0.0
H1539 H 0.86136 0.88302 0.61769 0.0
H1540 H 0.75922 0.75882 0.62852 0.0
H1541 H 0.75648 0.77564 0.6506 0.0
H1542 H 0.73732 0.77908 0.62777 0.0
H1543 H 0.89399 0.86133 0.62514 0.0
H1544 H 0.88102 0.84022 0.6482 0.0
H1545 H 0.87698 0.82067 0.62582 0.0
H1546 H 0.83134 0.76939 0.69464 0.0
H1547 H 0.83089 0.72387 0.64246 0.0
H1548 H 0.79915 0.81291 0.67264 0.0
H1549 H 0.84033 0.83528 0.67223 0.0
H1550 H 0.8228 0.81107 0.69353 0.0
H1551 H 0.80382 0.76596 0.60759 0.0
H1552 H 0.81141 0.73443 0.61085 0.0
H1553 H 0.84292 0.77218 0.60855 0.0
C1554 C 0.0654 0.836 0.61952 0.0
C1555 C 0.06583 0.86394 0.61744 0.0
C1556 C 0.03859 0.80976 0.62552 0.0
C1557 C 0.01158 0.81153 0.62958 0.0
C1558 C 0.01152 0.83947 0.62639 0.0
C1559 C 0.03857 0.86524 0.62031 0.0
C1560 C 0.03966 0.78047 0.62845 0.0
C1561 C 0.98333 0.84253 0.63034 0.0
C1562 C 0.93294 0.74086 0.63559 0.0
C1563 C 0.93085 0.73761 0.65642 0.0
C1564 C 0.9593 0.7642 0.62661 0.0
C1565 C 0.98431 0.78503 0.63868 0.0
C1566 C 0.98269 0.7814 0.65969 0.0
C1567 C 0.95615 0.75782 0.66826 0.0
C1568 C 0.95995 0.76704 0.60418 0.0
C1569 C 0.00872 0.80302 0.67318 0.0
H1570 H 0.08652 0.83504 0.61739 0.0
H1571 H 0.03882 0.88677 0.6184 0.0
H1572 H 0.03873 0.77436 0.64456 0.0
H1573 H 0.01927 0.76189 0.62089 0.0
H1574 H 0.06104 0.782 0.62267 0.0
H1575 H 0.98624 0.86517 0.62578 0.0
H1576 H 0.96265 0.82509 0.62228 0.0
H1577 H 0.97874 0.83883 0.64647 0.0
H1578 H 0.91375 0.72545 0.6262 0.0
H1579 H 0.955 0.75572 0.68433 0.0
H1580 H 0.98204 0.76957 0.59898 0.0
H1581 H 0.95852 0.78761 0.59918 0.0
H1582 H 0.94044 0.74722 0.59692 0.0
H1583 H 0.03082 0.80393 0.66952 0.0
H1584 H 0.0045 0.79652 0.68917 0.0
H1585 H 0.01165 0.82613 0.6708 0.0
C1586 C 0.16753 0.24873 0.62907 0.0
C1587 C 0.17799 0.2792 0.62409 0.0
C1588 C 0.18846 0.238 0.63407 0.0
C1589 C 0.22059 0.25837 0.63395 0.0
C1590 C 0.23125 0.2889 0.62775 0.0
C1591 C 0.20964 0.29899 0.62283 0.0
C1592 C 0.17616 0.20525 0.64041 0.0
C1593 C 0.26535 0.31114 0.62726 0.0
C1594 C 0.26911 0.23756 0.6703 0.0
C1595 C 0.28028 0.22378 0.65788 0.0
C1596 C 0.25037 0.24971 0.66254 0.0
C1597 C 0.2427 0.24809 0.64188 0.0
C1598 C 0.25442 0.23481 0.62918 0.0
C1599 C 0.27305 0.22275 0.63734 0.0
C1600 C 0.23814 0.26364 0.67655 0.0
C1601 C 0.24671 0.23274 0.60707 0.0
H1602 H 0.14286 0.23354 0.62955 0.0
H1603 H 0.21735 0.3225 0.61878 0.0
H1604 H 0.18691 0.1947 0.63188 0.0
H1605 H 0.18231 0.20373 0.6564 0.0
H1606 H 0.15061 0.19199 0.63826 0.0
H1607 H 0.26975 0.33307 0.62009 0.0
H1608 H 0.27542 0.31535 0.64268 0.0
H1609 H 0.27763 0.30175 0.61912 0.0
H1610 H 0.27468 0.23858 0.68615 0.0
H1611 H 0.28175 0.21231 0.62759 0.0
H1612 H 0.21252 0.25043 0.67659 0.0
H1613 H 0.24421 0.28698 0.67141 0.0
H1614 H 0.24744 0.26439 0.69206 0.0
H1615 H 0.22152 0.21779 0.60441 0.0
H1616 H 0.25946 0.22368 0.59906 0.0
H1617 H 0.25225 0.25533 0.6006 0.0
C1618 C 0.83517 0.98729 0.6214 0.0
C1619 C 0.81814 0.95935 0.63118 0.0
C1620 C 0.84018 0.01431 0.62983 0.0
C1621 C 0.8281 0.01337 0.64864 0.0
C1622 C 0.81105 0.98512 0.65863 0.0
C1623 C 0.80606 0.95844 0.64969 0.0
C1624 C 0.85815 0.04382 0.61855 0.0
C1625 C 0.79795 0.98304 0.67874 0.0
C1626 C 0.86395 0.08484 0.67921 0.0
C1627 C 0.8421 0.09503 0.67613 0.0
C1628 C 0.85976 0.05842 0.67031 0.0
C1629 C 0.8332 0.04188 0.65784 0.0
C1630 C 0.81128 0.05235 0.65446 0.0
C1631 C 0.81584 0.0786 0.66379 0.0
C1632 C 0.88356 0.04796 0.67448 0.0
C1633 C 0.78285 0.03567 0.6411 0.0
H1634 H 0.84438 0.98787 0.60705 0.0
H1635 H 0.79249 0.93673 0.65706 0.0
H1636 H 0.84371 0.05512 0.61582 0.0
H1637 H 0.8789 0.05926 0.62756 0.0
H1638 H 0.86571 0.04067 0.60402 0.0
H1639 H 0.78593 0.95947 0.68476 0.0
H1640 H 0.81678 0.99714 0.68949 0.0
H1641 H 0.78131 0.992 0.6776 0.0
H1642 H 0.88423 0.09736 0.68881 0.0
H1643 H 0.79867 0.08614 0.66153 0.0
H1644 H 0.89307 0.04629 0.66033 0.0
H1645 H 0.8725 0.02506 0.68158 0.0
H1646 H 0.90301 0.06342 0.68441 0.0
H1647 H 0.78966 0.03305 0.62618 0.0
H1648 H 0.76877 0.04748 0.63927 0.0
H1649 H 0.7682 0.01265 0.64737 0.0
C1650 C 0.5075 0.39927 0.71911 0.0
C1651 C 0.52222 0.39879 0.73744 0.0
C1652 C 0.48522 0.37231 0.71025 0.0
C1653 C 0.4771 0.34414 0.72011 0.0
C1654 C 0.49161 0.34365 0.73883 0.0
C1655 C 0.51404 0.37097 0.74721 0.0
C1656 C 0.4705 0.37394 0.69027 0.0
C1657 C 0.48355 0.31427 0.74996 0.0
C1658 C 0.40086 0.27579 0.70407 0.0
C1659 C 0.41101 0.26125 0.69149 0.0
C1660 C 0.42208 0.30251 0.71373 0.0
C1661 C 0.4542 0.31522 0.71054 0.0
C1662 C 0.46449 0.30044 0.69795 0.0
C1663 C 0.44284 0.27363 0.68869 0.0
C1664 C 0.41011 0.31724 0.72723 0.0
C1665 C 0.49842 0.31313 0.69407 0.0
H1666 H 0.51344 0.42086 0.71179 0.0
H1667 H 0.52535 0.3707 0.76145 0.0
H1668 H 0.47526 0.36122 0.67923 0.0
H1669 H 0.44501 0.36319 0.69138 0.0
H1670 H 0.47916 0.39756 0.68462 0.0
H1671 H 0.49608 0.31781 0.76466 0.0
H1672 H 0.4583 0.3016 0.75231 0.0
H1673 H 0.48932 0.2999 0.74101 0.0
H1674 H 0.37631 0.26637 0.70628 0.0
H1675 H 0.45089 0.2625 0.67904 0.0
H1676 H 0.41593 0.34018 0.72134 0.0
H1677 H 0.42148 0.3199 0.74226 0.0
H1678 H 0.38465 0.30399 0.72872 0.0
H1679 H 0.50762 0.33617 0.68729 0.0
H1680 H 0.5027 0.29886 0.68399 0.0
H1681 H 0.51168 0.31515 0.70831 0.0
C1682 C 0.61413 0.10246 0.74194 0.0
C1683 C 0.62197 0.12869 0.75227 0.0
C1684 C 0.63696 0.09857 0.73305 0.0
C1685 C 0.66806 0.12185 0.73429 0.0
C1686 C 0.67618 0.14758 0.7458 0.0
C1687 C 0.65288 0.15056 0.75478 0.0
C1688 C 0.62757 0.07047 0.72141 0.0
C1689 C 0.70911 0.17292 0.74749 0.0
C1690 C 0.73774 0.11473 0.72158 0.0
C1691 C 0.7444 0.12932 0.70284 0.0
C1692 C 0.71145 0.10992 0.73142 0.0
C1693 C 0.69189 0.12068 0.72245 0.0
C1694 C 0.6974 0.1336 0.70292 0.0
C1695 C 0.72358 0.1375 0.69321 0.0
C1696 C 0.70594 0.09535 0.75198 0.0
C1697 C 0.67713 0.14558 0.69296 0.0
H1698 H 0.58994 0.08582 0.74001 0.0
H1699 H 0.65844 0.17092 0.76262 0.0
H1700 H 0.62909 0.07624 0.70525 0.0
H1701 H 0.64349 0.06104 0.72513 0.0
H1702 H 0.60351 0.05279 0.72434 0.0
H1703 H 0.71169 0.19062 0.75777 0.0
H1704 H 0.72489 0.164 0.75288 0.0
H1705 H 0.7167 0.18358 0.73258 0.0
H1706 H 0.75394 0.10832 0.72896 0.0
H1707 H 0.72901 0.14907 0.6788 0.0
H1708 H 0.68108 0.079 0.75368 0.0
H1709 H 0.71262 0.11295 0.76326 0.0
H1710 H 0.71972 0.08344 0.75524 0.0
H1711 H 0.68288 0.1525 0.67717 0.0
H1712 H 0.68009 0.16548 0.70107 0.0
H1713 H 0.65239 0.1283 0.69353 0.0
C1714 C 0.89666 0.51002 0.74082 0.0
C1715 C 0.87044 0.48141 0.74006 0.0
C1716 C 0.89474 0.53622 0.73487 0.0
C1717 C 0.86599 0.53368 0.72774 0.0
C1718 C 0.8391 0.505 0.72829 0.0
C1719 C 0.84165 0.47929 0.73453 0.0
C1720 C 0.92376 0.56641 0.73511 0.0
C1721 C 0.80789 0.50122 0.72118 0.0
C1722 C 0.85415 0.60265 0.7161 0.0
C1723 C 0.8572 0.60561 0.69542 0.0
C1724 C 0.85746 0.5797 0.72706 0.0
C1725 C 0.86462 0.55979 0.71709 0.0
C1726 C 0.86877 0.5636 0.69628 0.0
C1727 C 0.8648 0.58623 0.68576 0.0
C1728 C 0.85277 0.57652 0.74919 0.0
C1729 C 0.8762 0.54294 0.68493 0.0
H1730 H 0.91893 0.51171 0.74511 0.0
H1731 H 0.82129 0.45723 0.73438 0.0
H1732 H 0.93055 0.57435 0.7196 0.0
H1733 H 0.91949 0.58346 0.7421 0.0
H1734 H 0.94336 0.56522 0.74331 0.0
H1735 H 0.78886 0.47808 0.72432 0.0
H1736 H 0.80308 0.51774 0.7284 0.0
H1737 H 0.80791 0.50579 0.70487 0.0
H1738 H 0.84765 0.61723 0.7235 0.0
H1739 H 0.86702 0.58838 0.66974 0.0
H1740 H 0.84057 0.55247 0.75418 0.0
H1741 H 0.83935 0.58759 0.75363 0.0
H1742 H 0.87571 0.58738 0.75716 0.0
H1743 H 0.89737 0.543 0.69151 0.0
H1744 H 0.87985 0.54963 0.66892 0.0
H1745 H 0.85698 0.51942 0.68604 0.0
C1746 C 0.49408 0.94032 0.24263 0.0
C1747 C 0.49493 0.96517 0.25154 0.0
C1748 C 0.50284 0.94237 0.22288 0.0
C1749 C 0.5124 0.9699 0.21195 0.0
C1750 C 0.51473 0.99547 0.22134 0.0
C1751 C 0.50588 0.99272 0.24107 0.0
C1752 C 0.50016 0.91468 0.21343 0.0
C1753 C 0.52499 0.02529 0.21026 0.0
C1754 C 0.55244 0.98802 0.16287 0.0
C1755 C 0.52822 0.98437 0.14934 0.0
C1756 C 0.54735 0.98174 0.18327 0.0
C1757 C 0.51734 0.97159 0.19026 0.0
C1758 C 0.49243 0.96602 0.17653 0.0
C1759 C 0.49818 0.97251 0.15623 0.0
C1760 C 0.57439 0.9876 0.19744 0.0
C1761 C 0.46002 0.95499 0.18341 0.0
H1762 H 0.48506 0.91892 0.25078 0.0
H1763 H 0.50629 0.01173 0.24816 0.0
H1764 H 0.4801 0.9057 0.20264 0.0
H1765 H 0.52111 0.92043 0.20506 0.0
H1766 H 0.49681 0.89657 0.22465 0.0
H1767 H 0.52779 0.04349 0.22016 0.0
H1768 H 0.54729 0.03239 0.20315 0.0
H1769 H 0.50764 0.02276 0.19822 0.0
H1770 H 0.57562 0.99667 0.15756 0.0
H1771 H 0.4794 0.96984 0.1459 0.0
H1772 H 0.56832 0.96822 0.20804 0.0
H1773 H 0.58022 1.00772 0.20633 0.0
H1774 H 0.59527 0.99174 0.18949 0.0
H1775 H 0.45304 0.93485 0.19344 0.0
H1776 H 0.44279 0.94907 0.17076 0.0
H1777 H 0.45935 0.97284 0.19202 0.0
C1778 C 0.08964 0.53806 0.24419 0.0
C1779 C 0.12105 0.54942 0.24945 0.0
C1780 C 0.07858 0.53007 0.22452 0.0
C1781 C 0.0995 0.53341 0.20977 0.0
C1782 C 0.13076 0.5422 0.2155 0.0
C1783 C 0.14119 0.5502 0.23533 0.0
C1784 C 0.04508 0.5207 0.21921 0.0
C1785 C 0.15377 0.54561 0.2004 0.0
C1786 C 0.06406 0.50338 0.15836 0.0
C1787 C 0.06581 0.52935 0.14857 0.0
C1788 C 0.0759 0.50443 0.17805 0.0
C1789 C 0.08966 0.53205 0.18824 0.0
C1790 C 0.09244 0.55851 0.17818 0.0
C1791 C 0.08067 0.55686 0.15852 0.0
C1792 C 0.07272 0.47579 0.18815 0.0
C1793 C 0.10704 0.58851 0.18841 0.0
H1794 H 0.0742 0.53747 0.25525 0.0
H1795 H 0.16553 0.55923 0.23947 0.0
H1796 H 0.04358 0.53927 0.21057 0.0
H1797 H 0.03476 0.50058 0.2097 0.0
H1798 H 0.03109 0.51548 0.23264 0.0
H1799 H 0.17535 0.54731 0.20763 0.0
H1800 H 0.14364 0.52626 0.19022 0.0
H1801 H 0.15989 0.56642 0.1912 0.0
H1802 H 0.05248 0.48196 0.1509 0.0
H1803 H 0.08279 0.57719 0.15098 0.0
H1804 H 0.05584 0.4687 0.20012 0.0
H1805 H 0.09517 0.47973 0.19526 0.0
H1806 H 0.0647 0.45701 0.17759 0.0
H1807 H 0.09339 0.58694 0.20139 0.0
H1808 H 0.10838 0.60715 0.17832 0.0
H1809 H 0.13076 0.59437 0.19412 0.0
C1810 C 0.45418 0.53249 0.24508 0.0
C1811 C 0.44175 0.55188 0.24716 0.0
C1812 C 0.45635 0.52307 0.22619 0.0
C1813 C 0.4463 0.5338 0.20899 0.0
C1814 C 0.43158 0.55159 0.21124 0.0
C1815 C 0.42956 0.56046 0.23034 0.0
C1816 C 0.47197 0.50392 0.22457 0.0
C1817 C 0.42055 0.5636 0.1934 0.0
C1818 C 0.49429 0.54929 0.16335 0.0
C1819 C 0.47545 0.52452 0.15142 0.0
C1820 C 0.4848 0.55263 0.18191 0.0
C1821 C 0.45568 0.53061 0.18888 0.0
C1822 C 0.43624 0.50578 0.17678 0.0
C1823 C 0.4463 0.50308 0.15815 0.0
C1824 C 0.50618 0.57968 0.19417 0.0
C1825 C 0.40511 0.48181 0.18369 0.0
H1826 H 0.46428 0.52657 0.25811 0.0
H1827 H 0.42058 0.57601 0.23206 0.0
H1828 H 0.45909 0.48573 0.21374 0.0
H1829 H 0.49562 0.51819 0.21907 0.0
H1830 H 0.47388 0.49353 0.23916 0.0
H1831 H 0.40532 0.57279 0.19766 0.0
H1832 H 0.44084 0.58197 0.18596 0.0
H1833 H 0.40778 0.54565 0.18239 0.0
H1834 H 0.51659 0.56623 0.15811 0.0
H1835 H 0.43168 0.48378 0.14907 0.0
H1836 H 0.51267 0.57206 0.20853 0.0
H1837 H 0.4942 0.59259 0.19768 0.0
H1838 H 0.5277 0.59513 0.18641 0.0
H1839 H 0.40827 0.47025 0.19737 0.0
H1840 H 0.39217 0.46462 0.17222 0.0
H1841 H 0.39091 0.4923 0.18758 0.0
C1842 C 0.93206 0.47583 0.78202 0.0
C1843 C 0.90111 0.46601 0.77613 0.0
C1844 C 0.94313 0.48618 0.8013 0.0
C1845 C 0.92266 0.48679 0.81501 0.0
C1846 C 0.892 0.47933 0.80852 0.0
C1847 C 0.88154 0.46893 0.78909 0.0
C1848 C 0.97602 0.49409 0.80745 0.0
C1849 C 0.86958 0.4801 0.82252 0.0
C1850 C 0.94028 0.46993 0.86829 0.0
C1851 C 0.95733 0.49894 0.87609 0.0
C1852 C 0.92782 0.46569 0.84871 0.0
C1853 C 0.93223 0.49107 0.83656 0.0
C1854 C 0.94796 0.5203 0.84465 0.0
C1855 C 0.96041 0.52391 0.8643 0.0
C1856 C 0.91103 0.43407 0.84077 0.0
C1857 C 0.95287 0.54788 0.83227 0.0
H1858 H 0.94707 0.47364 0.77181 0.0
H1859 H 0.85756 0.46119 0.78445 0.0
H1860 H 0.98761 0.51585 0.81528 0.0
H1861 H 0.97593 0.47642 0.81797 0.0
H1862 H 0.98985 0.49577 0.79451 0.0
H1863 H 0.84876 0.47891 0.81442 0.0
H1864 H 0.86196 0.46057 0.83315 0.0
H1865 H 0.88083 0.50095 0.83135 0.0
H1866 H 0.93717 0.45045 0.87742 0.0
H1867 H 0.97365 0.54644 0.87015 0.0
H1868 H 0.92414 0.43214 0.82855 0.0
H1869 H 0.88785 0.42914 0.83445 0.0
H1870 H 0.90808 0.41664 0.85243 0.0
H1871 H 0.96991 0.55229 0.82078 0.0
H1872 H 0.96162 0.5683 0.84144 0.0
H1873 H 0.93097 0.54409 0.82438 0.0
C1874 C 0.56622 0.49957 0.79031 0.0
C1875 C 0.57557 0.47791 0.78756 0.0
C1876 C 0.56162 0.50625 0.80952 0.0
C1877 C 0.56602 0.49048 0.82636 0.0
C1878 C 0.57802 0.47046 0.82366 0.0
C1879 C 0.58265 0.46447 0.8043 0.0
C1880 C 0.54926 0.52806 0.8116 0.0
C1881 C 0.583 0.45299 0.84101 0.0
C1882 C 0.56007 0.51163 0.87929 0.0
C1883 C 0.52899 0.49147 0.88323 0.0
C1884 C 0.57251 0.51185 0.86085 0.0
C1885 C 0.55358 0.49119 0.84605 0.0
C1886 C 0.52232 0.47056 0.8501 0.0
C1887 C 0.51046 0.47104 0.86851 0.0
C1888 C 0.60582 0.53435 0.85712 0.0
C1889 C 0.5013 0.44781 0.83494 0.0
H1890 H 0.55996 0.50933 0.77733 0.0
H1891 H 0.58913 0.44716 0.80208 0.0
H1892 H 0.52422 0.51523 0.81459 0.0
H1893 H 0.56104 0.54309 0.82433 0.0
H1894 H 0.5522 0.54219 0.79787 0.0
H1895 H 0.59679 0.44211 0.83696 0.0
H1896 H 0.59492 0.46794 0.85376 0.0
H1897 H 0.56022 0.43508 0.84607 0.0
H1898 H 0.57452 0.52765 0.89049 0.0
H1899 H 0.48659 0.45504 0.8715 0.0
H1900 H 0.60701 0.54903 0.84402 0.0
H1901 H 0.61873 0.52234 0.8536 0.0
H1902 H 0.61757 0.54884 0.87013 0.0
H1903 H 0.49928 0.45967 0.82109 0.0
H1904 H 0.47771 0.43307 0.84046 0.0
H1905 H 0.5113 0.43331 0.83099 0.0
C1906 C 0.57483 0.09036 0.79544 0.0
C1907 C 0.59367 0.12135 0.7923 0.0
C1908 C 0.57109 0.0775 0.81468 0.0
C1909 C 0.587 0.09624 0.83101 0.0
C1910 C 0.60902 0.1269 0.8275 0.0
C1911 C 0.61178 0.13924 0.80809 0.0
C1912 C 0.54733 0.04476 0.81768 0.0
C1913 C 0.62726 0.14738 0.84439 0.0
C1914 C 0.53827 0.07576 0.87642 0.0
C1915 C 0.54852 0.05804 0.8877 0.0
C1916 C 0.5515 0.08924 0.85828 0.0
C1917 C 0.57597 0.08531 0.85142 0.0
C1918 C 0.58761 0.06885 0.86332 0.0
C1919 C 0.57345 0.05505 0.88125 0.0
C1920 C 0.53824 0.10648 0.846 0.0
C1921 C 0.6142 0.06492 0.85679 0.0
H1922 H 0.56067 0.07688 0.78307 0.0
H1923 H 0.62614 0.16331 0.80547 0.0
H1924 H 0.55632 0.03317 0.82837 0.0
H1925 H 0.5264 0.04344 0.82402 0.0
H1926 H 0.54035 0.03242 0.80348 0.0
H1927 H 0.64806 0.16782 0.83903 0.0
H1928 H 0.61247 0.1548 0.85163 0.0
H1929 H 0.63466 0.13536 0.85585 0.0
H1930 H 0.51889 0.07793 0.88137 0.0
H1931 H 0.58161 0.04163 0.89015 0.0
H1932 H 0.52835 0.09516 0.83163 0.0
H1933 H 0.55677 0.12968 0.84252 0.0
H1934 H 0.51979 0.10811 0.85372 0.0
H1935 H 0.60621 0.04895 0.84434 0.0
H1936 H 0.62372 0.05591 0.86907 0.0
H1937 H 0.63307 0.08674 0.85126 0.0
C1938 C 0.15743 0.27458 0.57712 0.0
C1939 C 0.16135 0.30105 0.58551 0.0
C1940 C 0.16643 0.27493 0.55765 0.0
C1941 C 0.17949 0.30245 0.54645 0.0
C1942 C 0.18465 0.32947 0.5553 0.0
C1943 C 0.17536 0.32837 0.57476 0.0
C1944 C 0.16051 0.24568 0.54876 0.0
C1945 C 0.19872 0.35932 0.54393 0.0
C1946 C 0.22108 0.31387 0.49847 0.0
C1947 C 0.19865 0.31276 0.48421 0.0
C1948 C 0.21476 0.30907 0.51881 0.0
C1949 C 0.18527 0.30285 0.52498 0.0
C1950 C 0.16195 0.29979 0.51058 0.0
C1951 C 0.16896 0.30491 0.4904 0.0
C1952 C 0.24013 0.3123 0.53374 0.0
C1953 C 0.1301 0.29288 0.51656 0.0
H1954 H 0.14618 0.25346 0.58555 0.0
H1955 H 0.17823 0.34868 0.58148 0.0
H1956 H 0.14149 0.2388 0.53725 0.0
H1957 H 0.18132 0.24862 0.54131 0.0
H1958 H 0.15391 0.22715 0.56015 0.0
H1959 H 0.20335 0.37851 0.55347 0.0
H1960 H 0.22074 0.36367 0.53749 0.0
H1961 H 0.18277 0.35854 0.53138 0.0
H1962 H 0.24391 0.3194 0.49378 0.0
H1963 H 0.15155 0.30434 0.47959 0.0
H1964 H 0.23142 0.29301 0.5446 0.0
H1965 H 0.24789 0.33316 0.54226 0.0
H1966 H 0.26044 0.31363 0.52648 0.0
H1967 H 0.1204 0.27299 0.52691 0.0
H1968 H 0.11375 0.28833 0.50351 0.0
H1969 H 0.13169 0.31234 0.52453 0.0
C1970 C 0.752 0.8638 0.57734 0.0
C1971 C 0.78387 0.87881 0.58175 0.0
C1972 C 0.74042 0.85682 0.55763 0.0
C1973 C 0.76133 0.86498 0.54199 0.0
C1974 C 0.79348 0.87758 0.54672 0.0
C1975 C 0.80437 0.88449 0.56658 0.0
C1976 C 0.70602 0.84338 0.5534 0.0
C1977 C 0.8166 0.88624 0.53064 0.0
C1978 C 0.72754 0.83864 0.48961 0.0
C1979 C 0.72536 0.86379 0.48155 0.0
C1980 C 0.73981 0.8388 0.50908 0.0
C1981 C 0.75002 0.86465 0.52084 0.0
C1982 C 0.74853 0.89031 0.51261 0.0
C1983 C 0.73643 0.88962 0.49312 0.0
C1984 C 0.74121 0.81109 0.51722 0.0
C1985 C 0.75923 0.91844 0.52455 0.0
H1986 H 0.73633 0.85985 0.58916 0.0
H1987 H 0.82904 0.89646 0.57009 0.0
H1988 H 0.7009 0.86102 0.54655 0.0
H1989 H 0.69784 0.82486 0.54265 0.0
H1990 H 0.69272 0.83445 0.56715 0.0
H1991 H 0.83975 0.89076 0.53686 0.0
H1992 H 0.80853 0.86816 0.51957 0.0
H1993 H 0.81907 0.90698 0.52264 0.0
H1994 H 0.71887 0.81847 0.4809 0.0
H1995 H 0.73553 0.90942 0.48695 0.0
H1996 H 0.72532 0.80094 0.52972 0.0
H1997 H 0.76488 0.81733 0.52323 0.0
H1998 H 0.73464 0.79374 0.50573 0.0
H1999 H 0.74547 0.91294 0.53809 0.0
H2000 H 0.75693 0.93662 0.51591 0.0
H2001 H 0.78381 0.92723 0.52956 0.0
C2002 C 0.12733 0.8668 0.57961 0.0
C2003 C 0.10885 0.88022 0.58251 0.0
C2004 C 0.12972 0.85788 0.56061 0.0
C2005 C 0.11313 0.86251 0.54413 0.0
C2006 C 0.09232 0.87367 0.54739 0.0
C2007 C 0.09053 0.88251 0.56659 0.0
C2008 C 0.1521 0.84602 0.55794 0.0
C2009 C 0.07388 0.87864 0.53037 0.0
C2010 C 0.15367 0.882 0.49485 0.0
C2011 C 0.13875 0.85437 0.48505 0.0
C2012 C 0.14511 0.88496 0.51385 0.0
C2013 C 0.12086 0.85971 0.5234 0.0
C2014 C 0.1052 0.8319 0.51345 0.0
C2015 C 0.1144 0.82952 0.49445 0.0
C2016 C 0.16261 0.91502 0.52392 0.0
C2017 C 0.07904 0.80456 0.523 0.0
H2018 H 0.14168 0.86541 0.59199 0.0
H2019 H 0.07658 0.89329 0.56891 0.0
H2020 H 0.14134 0.8258 0.54852 0.0
H2021 H 0.17266 0.86354 0.55023 0.0
H2022 H 0.16004 0.84003 0.57241 0.0
H2023 H 0.05525 0.8826 0.53571 0.0
H2024 H 0.08952 0.89865 0.52131 0.0
H2025 H 0.06336 0.85895 0.52047 0.0
H2026 H 0.17278 0.90121 0.48789 0.0
H2027 H 0.1025 0.80816 0.48693 0.0
H2028 H 0.17427 0.91245 0.53791 0.0
H2029 H 0.14632 0.923 0.52801 0.0
H2030 H 0.18036 0.93264 0.51432 0.0
H2031 H 0.08782 0.79768 0.53673 0.0
H2032 H 0.06809 0.78507 0.5129 0.0
H2033 H 0.06108 0.81013 0.52745 0.0
C2034 C 0.58916 0.82239 0.11264 0.0
C2035 C 0.55885 0.79885 0.11044 0.0
C2036 C 0.60204 0.83331 0.13162 0.0
C2037 C 0.58397 0.8203 0.14861 0.0
C2038 C 0.55246 0.79828 0.14611 0.0
C2039 C 0.54035 0.78772 0.12702 0.0
C2040 C 0.63566 0.85686 0.13359 0.0
C2041 C 0.53225 0.78399 0.16373 0.0
C2042 C 0.6238 0.81163 0.19647 0.0
C2043 C 0.62505 0.83444 0.20818 0.0
C2044 C 0.61097 0.80725 0.177 0.0
C2045 C 0.59895 0.8261 0.16896 0.0
C2046 C 0.60035 0.84938 0.18059 0.0
C2047 C 0.61349 0.85335 0.20007 0.0
C2048 C 0.6101 0.78223 0.16508 0.0
C2049 C 0.58758 0.86976 0.17257 0.0
H2050 H 0.60335 0.83066 0.0997 0.0
H2051 H 0.51691 0.76941 0.12511 0.0
H2052 H 0.63887 0.87437 0.1442 0.0
H2053 H 0.64944 0.84599 0.13958 0.0
H2054 H 0.64498 0.86802 0.11905 0.0
H2055 H 0.5074 0.77071 0.15912 0.0
H2056 H 0.5394 0.76861 0.17193 0.0
H2057 H 0.53497 0.80147 0.17421 0.0
H2058 H 0.63323 0.79733 0.20249 0.0
H2059 H 0.61425 0.87093 0.20908 0.0
H2060 H 0.62213 0.79161 0.15094 0.0
H2061 H 0.58577 0.76564 0.16114 0.0
H2062 H 0.62115 0.7701 0.17333 0.0
H2063 H 0.59837 0.88074 0.15833 0.0
H2064 H 0.59158 0.88759 0.18318 0.0
H2065 H 0.56232 0.85618 0.16936 0.0
C2066 C 0.23692 0.83059 0.12334 0.0
C2067 C 0.2482 0.81034 0.12083 0.0
C2068 C 0.23222 0.83742 0.14249 0.0
C2069 C 0.23879 0.82345 0.15953 0.0
C2070 C 0.25267 0.80497 0.15701 0.0
C2071 C 0.25708 0.79858 0.13769 0.0
C2072 C 0.21758 0.85738 0.14435 0.0
C2073 C 0.26023 0.78965 0.1746 0.0
C2074 C 0.23436 0.84717 0.212 0.0
C2075 C 0.20449 0.8252 0.21734 0.0
C2076 C 0.24588 0.84709 0.19328 0.0
C2077 C 0.22716 0.82454 0.17946 0.0
C2078 C 0.19699 0.8024 0.18474 0.0
C2079 C 0.18609 0.80303 0.20349 0.0
C2080 C 0.27816 0.87103 0.18832 0.0
C2081 C 0.17609 0.77794 0.17051 0.0
H2082 H 0.22929 0.839 0.11028 0.0
H2083 H 0.26508 0.78234 0.13567 0.0
H2084 H 0.19298 0.84322 0.14814 0.0
H2085 H 0.22925 0.8736 0.15652 0.0
H2086 H 0.21847 0.87021 0.13029 0.0
H2087 H 0.27506 0.77991 0.1705 0.0
H2088 H 0.27217 0.80577 0.18678 0.0
H2089 H 0.23844 0.77111 0.18047 0.0
H2090 H 0.24896 0.86427 0.22258 0.0
H2091 H 0.1628 0.78628 0.20719 0.0
H2092 H 0.27739 0.88364 0.17452 0.0
H2093 H 0.29252 0.86027 0.18542 0.0
H2094 H 0.28964 0.88734 0.20049 0.0
H2095 H 0.17215 0.78826 0.15647 0.0
H2096 H 0.15328 0.7624 0.17683 0.0
H2097 H 0.1873 0.76448 0.16665 0.0
C2098 C 0.20564 0.35667 0.12229 0.0
C2099 C 0.21584 0.38385 0.11146 0.0
C2100 C 0.2057 0.35617 0.14314 0.0
C2101 C 0.21613 0.3836 0.15321 0.0
C2102 C 0.22982 0.4114 0.14234 0.0
C2103 C 0.2294 0.41116 0.12147 0.0
C2104 C 0.19126 0.32604 0.15414 0.0
C2105 C 0.24159 0.44116 0.15246 0.0
C2106 C 0.16744 0.37501 0.19705 0.0
C2107 C 0.1857 0.37303 0.21316 0.0
C2108 C 0.17775 0.37972 0.17757 0.0
C2109 C 0.20715 0.38261 0.17408 0.0
C2110 C 0.22645 0.38233 0.19037 0.0
C2111 C 0.21546 0.37746 0.20976 0.0
C2112 C 0.15643 0.38007 0.16064 0.0
C2113 C 0.25802 0.38565 0.18728 0.0
H2114 H 0.19482 0.33567 0.11433 0.0
H2115 H 0.23683 0.43207 0.1129 0.0
H2116 H 0.20518 0.32677 0.16784 0.0
H2117 H 0.16784 0.32067 0.15871 0.0
H2118 H 0.18894 0.30752 0.14474 0.0
H2119 H 0.25709 0.46046 0.1428 0.0
H2120 H 0.22166 0.44436 0.15598 0.0
H2121 H 0.25428 0.4415 0.16668 0.0
H2122 H 0.14465 0.37209 0.19965 0.0
H2123 H 0.22963 0.37575 0.22214 0.0
H2124 H 0.14861 0.35966 0.15162 0.0
H2125 H 0.1688 0.4001 0.15069 0.0
H2126 H 0.13566 0.38033 0.166 0.0
H2127 H 0.25536 0.36464 0.18091 0.0
H2128 H 0.27201 0.38986 0.20145 0.0
H2129 H 0.2709 0.40443 0.17654 0.0
C2130 C 0.80654 0.58974 0.90448 0.0
C2131 C 0.82253 0.61146 0.91893 0.0
C2132 C 0.81768 0.59381 0.88526 0.0
C2133 C 0.84541 0.62025 0.88056 0.0
C2134 C 0.86312 0.64068 0.89577 0.0
C2135 C 0.85136 0.636 0.91486 0.0
C2136 C 0.79829 0.57129 0.86958 0.0
C2137 C 0.89293 0.669 0.89143 0.0
C2138 C 0.87924 0.63284 0.82931 0.0
C2139 C 0.86731 0.65064 0.81988 0.0
C2140 C 0.87203 0.62222 0.84905 0.0
C2141 C 0.85244 0.6296 0.85941 0.0
C2142 C 0.83968 0.64683 0.84969 0.0
C2143 C 0.84722 0.65704 0.83007 0.0
C2144 C 0.88586 0.60376 0.85895 0.0
C2145 C 0.81838 0.65492 0.86011 0.0
H2146 H 0.78447 0.57048 0.90797 0.0
H2147 H 0.86358 0.65258 0.92622 0.0
H2148 H 0.78579 0.5807 0.85997 0.0
H2149 H 0.81305 0.56683 0.8599 0.0
H2150 H 0.78093 0.54954 0.8763 0.0
H2151 H 0.90637 0.6796 0.90531 0.0
H2152 H 0.90756 0.66405 0.88197 0.0
H2153 H 0.88757 0.68557 0.88313 0.0
H2154 H 0.8948 0.62789 0.82144 0.0
H2155 H 0.8374 0.67021 0.82265 0.0
H2156 H 0.86753 0.58271 0.86573 0.0
H2157 H 0.90236 0.61675 0.87115 0.0
H2158 H 0.89832 0.59768 0.84833 0.0
H2159 H 0.79797 0.63411 0.8654 0.0
H2160 H 0.81007 0.66807 0.85029 0.0
H2161 H 0.83061 0.6685 0.87338 0.0
C2162 C 0.46988 0.22703 0.89844 0.0
C2163 C 0.4506 0.2154 0.91465 0.0
C2164 C 0.45802 0.21927 0.87888 0.0
C2165 C 0.42597 0.19964 0.8755 0.0
C2166 C 0.40694 0.18584 0.89201 0.0
C2167 C 0.41957 0.19394 0.91145 0.0
C2168 C 0.47927 0.23435 0.86183 0.0
C2169 C 0.37272 0.16473 0.88915 0.0
C2170 C 0.38956 0.21732 0.82896 0.0
C2171 C 0.3861 0.19496 0.81592 0.0
C2172 C 0.40221 0.21881 0.84836 0.0
C2173 C 0.41176 0.1974 0.85502 0.0
C2174 C 0.4083 0.17469 0.84199 0.0
C2175 C 0.39546 0.17369 0.82262 0.0
C2176 C 0.40536 0.24338 0.86175 0.0
C2177 C 0.41839 0.15163 0.84847 0.0
H2178 H 0.49379 0.244 0.90107 0.0
H2179 H 0.40469 0.18546 0.92406 0.0
H2180 H 0.47509 0.21784 0.8502 0.0
H2181 H 0.47452 0.25216 0.85487 0.0
H2182 H 0.50404 0.24501 0.86685 0.0
H2183 H 0.36228 0.15228 0.90315 0.0
H2184 H 0.3609 0.17797 0.8841 0.0
H2185 H 0.36827 0.14817 0.87749 0.0
H2186 H 0.38189 0.2335 0.82408 0.0
H2187 H 0.39311 0.15647 0.8126 0.0
H2188 H 0.43004 0.25779 0.86628 0.0
H2189 H 0.39254 0.2332 0.87553 0.0
H2190 H 0.39646 0.25801 0.85441 0.0
H2191 H 0.44358 0.16316 0.85227 0.0
H2192 H 0.41351 0.13499 0.83675 0.0
H2193 H 0.40639 0.13928 0.8621 0.0
C2194 C 0.79875 0.20823 0.90918 0.0
C2195 C 0.77642 0.21661 0.9132 0.0
C2196 C 0.79975 0.19794 0.89039 0.0
C2197 C 0.77745 0.19545 0.8753 0.0
C2198 C 0.75301 0.20111 0.87994 0.0
C2199 C 0.75293 0.21188 0.89887 0.0
C2200 C 0.82623 0.1922 0.88623 0.0
C2201 C 0.72825 0.19789 0.86453 0.0
C2202 C 0.80867 0.21149 0.82318 0.0
C2203 C 0.79931 0.18237 0.81651 0.0
C2204 C 0.80058 0.21595 0.84194 0.0
C2205 C 0.78224 0.19066 0.8543 0.0
C2206 C 0.7713 0.16115 0.84719 0.0
C2207 C 0.78023 0.15736 0.82848 0.0
C2208 C 0.81304 0.24783 0.84896 0.0
C2209 C 0.75111 0.13361 0.85964 0.0
H2210 H 0.81672 0.21176 0.92042 0.0
H2211 H 0.73573 0.21847 0.90203 0.0
H2212 H 0.81749 0.17008 0.87911 0.0
H2213 H 0.84188 0.20987 0.87571 0.0
H2214 H 0.83992 0.19248 0.89999 0.0
H2215 H 0.70808 0.19752 0.87137 0.0
H2216 H 0.73796 0.21724 0.85374 0.0
H2217 H 0.72013 0.17693 0.85606 0.0
H2218 H 0.82361 0.23091 0.81409 0.0
H2219 H 0.77263 0.13477 0.8233 0.0
H2220 H 0.8291 0.25162 0.86206 0.0
H2221 H 0.79387 0.25133 0.85376 0.0
H2222 H 0.82564 0.26502 0.83722 0.0
H2223 H 0.76497 0.13131 0.87251 0.0
H2224 H 0.74112 0.11257 0.851 0.0
H2225 H 0.73194 0.136 0.86569 0.0
C2226 C 0.20675 0.13068 0.45942 0.0
C2227 C 0.22677 0.132 0.44504 0.0
C2228 C 0.21793 0.14057 0.47883 0.0
C2229 C 0.24983 0.15183 0.48385 0.0
C2230 C 0.2704 0.1553 0.46882 0.0
C2231 C 0.25855 0.14535 0.44955 0.0
C2232 C 0.19526 0.13682 0.49429 0.0
C2233 C 0.30454 0.16723 0.47344 0.0
C2234 C 0.28568 0.18874 0.53352 0.0
C2235 C 0.286 0.16464 0.54467 0.0
C2236 C 0.27322 0.18483 0.51387 0.0
C2237 C 0.26108 0.15621 0.50511 0.0
C2238 C 0.26081 0.13169 0.51644 0.0
C2239 C 0.27316 0.13618 0.53606 0.0
C2240 C 0.27358 0.2114 0.50237 0.0
C2241 C 0.24824 0.10082 0.50765 0.0
H2242 H 0.18214 0.12011 0.45577 0.0
H2243 H 0.27378 0.1461 0.43828 0.0
H2244 H 0.19172 0.11759 0.50451 0.0
H2245 H 0.20445 0.1573 0.50339 0.0
H2246 H 0.17244 0.13228 0.48744 0.0
H2247 H 0.31782 0.17191 0.45973 0.0
H2248 H 0.31414 0.18828 0.482 0.0
H2249 H 0.30804 0.15035 0.48282 0.0
H2250 H 0.29527 0.21073 0.54015 0.0
H2251 H 0.27369 0.11755 0.54446 0.0
H2252 H 0.25002 0.2054 0.49625 0.0
H2253 H 0.28883 0.21738 0.48954 0.0
H2254 H 0.28196 0.23161 0.51171 0.0
H2255 H 0.22395 0.09257 0.50215 0.0
H2256 H 0.24895 0.08394 0.5186 0.0
H2257 H 0.26191 0.10225 0.49471 0.0
C2258 C 0.92115 0.1396 0.46697 0.0
C2259 C 0.90987 0.14919 0.45017 0.0
C2260 C 0.91682 0.14609 0.48627 0.0
C2261 C 0.9006 0.16242 0.48877 0.0
C2262 C 0.89166 0.17445 0.47172 0.0
C2263 C 0.89634 0.16758 0.45261 0.0
C2264 C 0.92697 0.13295 0.50392 0.0
C2265 C 0.87445 0.19206 0.47357 0.0
C2266 C 0.84858 0.13873 0.53319 0.0
C2267 C 0.86564 0.16195 0.54666 0.0
C2268 C 0.85967 0.13886 0.51438 0.0
C2269 C 0.88877 0.16272 0.50874 0.0
C2270 C 0.9062 0.18627 0.52221 0.0
C2271 C 0.89447 0.18562 0.54098 0.0
C2272 C 0.84025 0.11319 0.50057 0.0
C2273 C 0.93727 0.21211 0.51679 0.0
H2274 H 0.93099 0.12483 0.46499 0.0
H2275 H 0.88704 0.17436 0.43956 0.0
H2276 H 0.93804 0.14977 0.51581 0.0
H2277 H 0.90641 0.11331 0.51022 0.0
H2278 H 0.94345 0.12521 0.49973 0.0
H2279 H 0.87374 0.20398 0.45939 0.0
H2280 H 0.85031 0.17634 0.47769 0.0
H2281 H 0.88527 0.20886 0.48549 0.0
H2282 H 0.82663 0.12 0.53748 0.0
H2283 H 0.90779 0.20382 0.55115 0.0
H2284 H 0.85331 0.10137 0.49695 0.0
H2285 H 0.83497 0.12216 0.48635 0.0
H2286 H 0.81808 0.09643 0.50712 0.0
H2287 H 0.95325 0.20332 0.51355 0.0
H2288 H 0.94798 0.22873 0.52886 0.0
H2289 H 0.93471 0.22395 0.50308 0.0
C2290 C 0.89693 0.72353 0.46055 0.0
C2291 C 0.90422 0.75236 0.45306 0.0
C2292 C 0.89489 0.7173 0.48112 0.0
C2293 C 0.90028 0.7406 0.49425 0.0
C2294 C 0.91199 0.77065 0.48679 0.0
C2295 C 0.91383 0.77617 0.46616 0.0
C2296 C 0.883 0.68506 0.48847 0.0
C2297 C 0.91875 0.7963 0.50026 0.0
C2298 C 0.84233 0.71528 0.53493 0.0
C2299 C 0.85935 0.71259 0.5515 0.0
C2300 C 0.85577 0.72513 0.5164 0.0
C2301 C 0.88711 0.73248 0.51435 0.0
C2302 C 0.90482 0.73089 0.5312 0.0
C2303 C 0.89068 0.72089 0.54962 0.0
C2304 C 0.83615 0.72707 0.49892 0.0
C2305 C 0.93827 0.73868 0.52968 0.0
H2306 H 0.88948 0.70525 0.45025 0.0
H2307 H 0.9196 0.79849 0.46015 0.0
H2308 H 0.89543 0.68404 0.5025 0.0
H2309 H 0.85809 0.67513 0.49164 0.0
H2310 H 0.88549 0.671 0.47726 0.0
H2311 H 0.93385 0.81859 0.49311 0.0
H2312 H 0.89667 0.79563 0.50369 0.0
H2313 H 0.93 0.79423 0.51456 0.0
H2314 H 0.81829 0.7094 0.53644 0.0
H2315 H 0.90388 0.71862 0.56241 0.0
H2316 H 0.83462 0.71179 0.4871 0.0
H2317 H 0.84701 0.75042 0.49254 0.0
H2318 H 0.8123 0.72082 0.5031 0.0
H2319 H 0.93949 0.72036 0.522 0.0
H2320 H 0.95014 0.74139 0.54457 0.0
H2321 H 0.95102 0.75981 0.52074 0.0
loop_
_geom_bond_atom_site_label_1
_geom_bond_atom_site_label_2
_geom_bond_distance
_geom_bond_site_symmetry_2
_ccdc_geom_bond_type
C0 N1 1.317 . S
C0 N2 1.348 . S
C0 C3 1.485 . S
N1 C0 1.317 . S
N1 N5 1.370 . S
N2 C0 1.348 . S
N2 C4 1.346 . S
C3 C0 1.485 . S
C3 H7 0.960 . S
C3 H8 0.961 . S
C3 H9 0.960 . S
C4 N2 1.346 . S
C4 N5 1.307 . S
C4 C6 1.486 . S
N5 N1 1.370 . S
N5 C4 1.307 . S
C6 C4 1.486 . S
C6 H10 0.960 . S
C6 H11 0.960 . S
C6 H12 0.959 . S
H7 C3 0.960 . S
H8 C3 0.961 . S
H9 C3 0.960 . S
H10 C6 0.960 . S
H11 C6 0.960 . S
H12 C6 0.959 . S
C13 N14 1.317 . S
C13 N15 1.348 . S
C13 C16 1.485 . S
N14 C13 1.317 . S
N14 N18 1.370 . S
N15 C13 1.348 . S
N15 C17 1.346 . S
C16 C13 1.485 . S
C16 H20 0.960 . S
C16 H21 0.961 . S
C16 H22 0.960 . S
C17 N15 1.346 . S
C17 N18 1.307 . S
C17 C19 1.486 . S
N18 N14 1.370 . S
N18 C17 1.307 . S
C19 C17 1.486 . S
C19 H23 0.960 . S
C19 H24 0.960 . S
C19 H25 0.959 . S
H20 C16 0.960 . S
H21 C16 0.961 . S
H22 C16 0.960 . S
H23 C19 0.960 . S
H24 C19 0.960 . S
H25 C19 0.959 . S
C26 N27 1.317 . S
C26 N28 1.348 . S
C26 C29 1.485 . S
N27 C26 1.317 . S
N27 N31 1.370 . S
N28 C26 1.348 . S
N28 C30 1.346 . S
C29 C26 1.485 . S
C29 H33 0.960 . S
C29 H34 0.961 . S
C29 H35 0.960 . S
C30 N28 1.346 . S
C30 N31 1.307 . S
C30 C32 1.486 . S
N31 N27 1.370 . S
N31 C30 1.307 . S
C32 C30 1.486 . S
C32 H36 0.960 . S
C32 H37 0.960 . S
C32 H38 0.959 . S
H33 C29 0.960 . S
H34 C29 0.961 . S
H35 C29 0.960 . S
H36 C32 0.960 . S
H37 C32 0.960 . S
H38 C32 0.959 . S
C39 N40 1.317 . S
C39 N41 1.348 . S
C39 C42 1.485 . S
N40 C39 1.317 . S
N40 N44 1.370 . S
N41 C39 1.348 . S
N41 C43 1.346 . S
C42 C39 1.485 . S
C42 H46 0.960 . S
C42 H47 0.961 . S
C42 H48 0.960 . S
C43 N41 1.346 . S
C43 N44 1.307 . S
C43 C45 1.486 . S
N44 N40 1.370 . S
N44 C43 1.307 . S
C45 C43 1.486 . S
C45 H49 0.960 . S
C45 H50 0.960 . S
C45 H51 0.959 . S
H46 C42 0.960 . S
H47 C42 0.961 . S
H48 C42 0.960 . S
H49 C45 0.960 . S
H50 C45 0.960 . S
H51 C45 0.959 . S
C52 N53 1.317 . S
C52 N54 1.348 . S
C52 C55 1.485 . S
N53 C52 1.317 . S
N53 N57 1.370 . S
N54 C52 1.348 . S
N54 C56 1.346 . S
C55 C52 1.485 . S
C55 H59 0.960 . S
C55 H60 0.961 . S
C55 H61 0.960 . S
C56 N54 1.346 . S
C56 N57 1.307 . S
C56 C58 1.486 . S
N57 N53 1.370 . S
N57 C56 1.307 . S
C58 C56 1.486 . S
C58 H62 0.960 . S
C58 H63 0.960 . S
C58 H64 0.959 . S
H59 C55 0.960 . S
H60 C55 0.961 . S
H61 C55 0.960 . S
H62 C58 0.960 . S
H63 C58 0.960 . S
H64 C58 0.959 . S
C65 N66 1.317 . S
C65 N67 1.348 . S
C65 C68 1.485 . S
N66 C65 1.317 . S
N66 N70 1.370 . S
N67 C65 1.348 . S
N67 C69 1.346 . S
C68 C65 1.485 . S
C68 H72 0.960 . S
C68 H73 0.961 . S
C68 H74 0.960 . S
C69 N67 1.346 . S
C69 N70 1.307 . S
C69 C71 1.486 . S
N70 N66 1.370 . S
N70 C69 1.307 . S
C71 C69 1.486 . S
C71 H75 0.960 . S
C71 H76 0.960 . S
C71 H77 0.959 . S
H72 C68 0.960 . S
H73 C68 0.961 . S
H74 C68 0.960 . S
H75 C71 0.960 . S
H76 C71 0.960 . S
H77 C71 0.959 . S
C78 N79 1.317 . S
C78 N80 1.348 . S
C78 C81 1.485 . S
N79 C78 1.317 . S
N79 N83 1.370 . S
N80 C78 1.348 . S
N80 C82 1.346 . S
C81 C78 1.485 . S
C81 H85 0.960 . S
C81 H86 0.961 . S
C81 H87 0.960 . S
C82 N80 1.346 . S
C82 N83 1.307 . S
C82 C84 1.486 . S
N83 N79 1.370 . S
N83 C82 1.307 . S
C84 C82 1.486 . S
C84 H88 0.960 . S
C84 H89 0.960 . S
C84 H90 0.959 . S
H85 C81 0.960 . S
H86 C81 0.961 . S
H87 C81 0.960 . S
H88 C84 0.960 . S
H89 C84 0.960 . S
H90 C84 0.959 . S
C91 N92 1.317 . S
C91 N93 1.348 . S
C91 C94 1.485 . S
N92 C91 1.317 . S
N92 N96 1.370 . S
N93 C91 1.348 . S
N93 C95 1.346 . S
C94 C91 1.485 . S
C94 H98 0.960 . S
C94 H99 0.961 . S
C94 H100 0.960 . S
C95 N93 1.346 . S
C95 N96 1.307 . S
C95 C97 1.486 . S
N96 N92 1.370 . S
N96 C95 1.307 . S
C97 C95 1.486 . S
C97 H101 0.960 . S
C97 H102 0.960 . S
C97 H103 0.959 . S
H98 C94 0.960 . S
H99 C94 0.961 . S
H100 C94 0.960 . S
H101 C97 0.960 . S
H102 C97 0.960 . S
H103 C97 0.959 . S
C104 N105 1.317 . S
C104 N106 1.348 . S
C104 C107 1.485 . S
N105 C104 1.317 . S
N105 N109 1.370 . S
N106 C104 1.348 . S
N106 C108 1.346 . S
C107 C104 1.485 . S
C107 H111 0.960 . S
C107 H112 0.961 . S
C107 H113 0.960 . S
C108 N106 1.346 . S
C108 N109 1.307 . S
C108 C110 1.486 . S
N109 N105 1.370 . S
N109 C108 1.307 . S
C110 C108 1.486 . S
C110 H114 0.960 . S
C110 H115 0.960 . S
C110 H116 0.959 . S
H111 C107 0.960 . S
H112 C107 0.961 . S
H113 C107 0.960 . S
H114 C110 0.960 . S
H115 C110 0.960 . S
H116 C110 0.959 . S
C117 N118 1.317 . S
C117 N119 1.348 . S
C117 C120 1.485 . S
N118 C117 1.317 . S
N118 N122 1.370 . S
N119 C117 1.348 . S
N119 C121 1.346 . S
C120 C117 1.485 . S
C120 H124 0.960 . S
C120 H125 0.961 . S
C120 H126 0.960 . S
C121 N119 1.346 . S
C121 N122 1.307 . S
C121 C123 1.486 . S
N122 N118 1.370 . S
N122 C121 1.307 . S
C123 C121 1.486 . S
C123 H127 0.960 . S
C123 H128 0.960 . S
C123 H129 0.959 . S
H124 C120 0.960 . S
H125 C120 0.961 . S
H126 C120 0.960 . S
H127 C123 0.960 . S
H128 C123 0.960 . S
H129 C123 0.959 . S
C130 N131 1.317 . S
C130 N132 1.348 . S
C130 C133 1.485 1_556 S
N131 C130 1.317 . S
N131 N135 1.370 . S
N132 C130 1.348 . S
N132 C134 1.346 . S
C133 C130 1.485 1_554 S
C133 H137 0.960 . S
C133 H138 0.961 . S
C133 H139 0.960 . S
C134 N132 1.346 . S
C134 N135 1.307 . S
C134 C136 1.486 . S
N135 N131 1.370 . S
N135 C134 1.307 . S
C136 C134 1.486 . S
C136 H140 0.960 . S
C136 H141 0.960 . S
C136 H142 0.959 . S
H137 C133 0.960 . S
H138 C133 0.961 . S
H139 C133 0.960 . S
H140 C136 0.960 . S
H141 C136 0.960 . S
H142 C136 0.959 . S
C143 N144 1.317 . S
C143 N145 1.348 . S
C143 C146 1.485 1_556 S
N144 C143 1.317 . S
N144 N148 1.370 . S
N145 C143 1.348 . S
N145 C147 1.346 . S
C146 C143 1.485 1_554 S
C146 H150 0.960 . S
C146 H151 0.961 . S
C146 H152 0.960 . S
C147 N145 1.346 . S
C147 N148 1.307 . S
C147 C149 1.486 . S
N148 N144 1.370 . S
N148 C147 1.307 . S
C149 C147 1.486 . S
C149 H153 0.960 . S
C149 H154 0.960 . S
C149 H155 0.959 . S
H150 C146 0.960 . S
H151 C146 0.961 . S
H152 C146 0.960 . S
H153 C149 0.960 . S
H154 C149 0.960 . S
H155 C149 0.959 . S
C156 N157 1.317 . S
C156 N158 1.348 . S
C156 C159 1.485 . S
N157 C156 1.317 . S
N157 N161 1.370 . S
N158 C156 1.348 . S
N158 C160 1.346 . S
C159 C156 1.485 . S
C159 H163 0.960 . S
C159 H164 0.927 1_554 S
C159 H165 0.960 . S
C160 N158 1.346 . S
C160 N161 1.307 . S
C160 C162 1.486 . S
N161 N157 1.370 . S
N161 C160 1.307 . S
C162 C160 1.486 . S
C162 H166 0.960 . S
C162 H167 0.960 . S
C162 H168 0.959 . S
H163 C159 0.960 . S
H164 C159 0.927 1_556 S
H165 C159 0.960 . S
H166 C162 0.960 . S
H167 C162 0.960 . S
H168 C162 0.959 . S
C169 N170 1.317 . S
C169 N171 1.348 . S
C169 C172 1.485 . S
N170 C169 1.317 . S
N170 N174 1.370 . S
N171 C169 1.348 . S
N171 C173 1.346 . S
C172 C169 1.485 . S
C172 H176 0.960 . S
C172 H177 0.961 . S
C172 H178 0.960 . S
C173 N171 1.346 . S
C173 N174 1.307 . S
C173 C175 1.486 . S
N174 N170 1.370 . S
N174 C173 1.307 . S
C175 C173 1.486 . S
C175 H179 0.960 . S
C175 H180 0.960 . S
C175 H181 0.959 . S
H176 C172 0.960 . S
H177 C172 0.961 . S
H178 C172 0.960 . S
H179 C175 0.960 . S
H180 C175 0.960 . S
H181 C175 0.959 . S
C182 N183 1.317 . S
C182 N184 1.348 . S
C182 C185 1.485 . S
N183 C182 1.317 . S
N183 N187 1.370 . S
N184 C182 1.348 . S
N184 C186 1.346 . S
C185 C182 1.485 . S
C185 H189 0.960 . S
C185 H190 0.961 . S
C185 H191 0.960 . S
C186 N184 1.346 . S
C186 N187 1.307 . S
C186 C188 1.486 . S
N187 N183 1.370 . S
N187 C186 1.307 . S
C188 C186 1.486 . S
C188 H192 0.960 . S
C188 H193 0.960 . S
C188 H194 0.959 . S
H189 C185 0.960 . S
H190 C185 0.961 . S
H191 C185 0.960 . S
H192 C188 0.960 . S
H193 C188 0.960 . S
H194 C188 0.959 . S
C195 N196 1.317 . S
C195 N197 1.348 . S
C195 C198 1.485 . S
N196 C195 1.317 . S
N196 N200 1.370 . S
N197 C195 1.348 . S
N197 C199 1.346 . S
C198 C195 1.485 . S
C198 H202 0.960 . S
C198 H203 0.961 . S
C198 H204 0.960 . S
C199 N197 1.346 . S
C199 N200 1.307 . S
C199 C201 1.486 . S
N200 N196 1.370 . S
N200 C199 1.307 . S
C201 C199 1.486 . S
C201 H205 0.960 . S
C201 H206 0.960 . S
C201 H207 0.959 . S
H202 C198 0.960 . S
H203 C198 0.961 . S
H204 C198 0.960 . S
H205 C201 0.960 . S
H206 C201 0.960 . S
H207 C201 0.959 . S
C208 N209 1.317 . S
C208 N210 1.348 . S
C208 C211 1.485 . S
N209 C208 1.317 . S
N209 N213 1.370 . S
N210 C208 1.348 . S
N210 C212 1.346 . S
C211 C208 1.485 . S
C211 H215 0.960 . S
C211 H216 0.961 . S
C211 H217 0.960 . S
C212 N210 1.346 . S
C212 N213 1.307 . S
C212 C214 1.486 . S
N213 N209 1.370 . S
N213 C212 1.307 . S
C214 C212 1.486 . S
C214 H218 0.960 . S
C214 H219 0.960 . S
C214 H220 0.959 . S
H215 C211 0.960 . S
H216 C211 0.961 . S
H217 C211 0.960 . S
H218 C214 0.960 . S
H219 C214 0.960 . S
H220 C214 0.959 . S
C221 N222 1.317 . S
C221 N223 1.348 . S
C221 C224 1.485 . S
N222 C221 1.317 . S
N222 N226 1.370 . S
N223 C221 1.348 . S
N223 C225 1.346 . S
C224 C221 1.485 . S
C224 H228 0.960 . S
C224 H229 0.961 . S
C224 H230 0.960 . S
C225 N223 1.346 . S
C225 N226 1.307 . S
C225 C227 1.486 . S
N226 N222 1.370 . S
N226 C225 1.307 . S
C227 C225 1.486 . S
C227 H231 0.960 . S
C227 H232 0.960 . S
C227 H233 0.959 . S
H228 C224 0.960 . S
H229 C224 0.961 . S
H230 C224 0.960 . S
H231 C227 0.960 . S
H232 C227 0.960 . S
H233 C227 0.959 . S
C234 Eu235 2.835 1_565 S
C234 C236 1.500 . S
C234 O254 1.257 . S
C234 O255 1.260 1_565 S
Eu235 C234 2.835 1_545 S
Eu235 O254 2.473 1_545 S
Eu235 O255 2.480 . S
Eu235 O256 2.430 . S
Eu235 O257 2.670 . S
Eu235 O258 2.394 1_545 S
Eu235 O263 2.355 1_545 S
Eu235 O265 2.374 . S
C236 C234 1.500 . S
C236 C237 1.377 . S
C236 C241 1.377 . S
C237 C236 1.377 . S
C237 C238 1.395 . S
C237 H266 0.931 1_565 S
C238 C237 1.395 . S
C238 C239 1.383 . S
C238 H267 0.931 . S
C239 C238 1.383 . S
C239 C240 1.394 . S
C240 C239 1.394 . S
C240 C241 1.378 . S
C240 H268 0.931 . S
C241 C236 1.377 . S
C241 C240 1.378 . S
C241 H269 0.931 . S
C242 O256 1.259 . S
C242 O257 1.270 . S
C243 O258 1.251 . S
C243 O259 1.251 . S
C244 Eu245 2.835 1_545 S
C244 C246 1.500 . S
C244 O260 1.257 . S
C244 O261 1.260 1_545 S
Eu245 C244 2.835 1_565 S
Eu245 O257 2.355 1_566 S
Eu245 O259 2.374 1_556 S
Eu245 O260 2.473 1_565 S
Eu245 O261 2.480 . S
Eu245 O262 2.430 . S
Eu245 O263 2.670 1_556 S
Eu245 O264 2.394 1_565 S
C246 C244 1.500 . S
C246 C247 1.377 . S
C246 C251 1.377 . S
C247 C246 1.377 . S
C247 C248 1.395 . S
C247 H270 0.931 1_545 S
C248 C247 1.395 . S
C248 C249 1.383 . S
C248 H271 0.931 . S
C249 C248 1.383 . S
C249 C250 1.394 . S
C250 C249 1.394 . S
C250 C251 1.378 . S
C250 H272 0.931 . S
C251 C246 1.377 . S
C251 C250 1.378 . S
C251 H273 0.931 . S
C252 O262 1.259 1_554 S
C252 O263 1.270 . S
C253 O264 1.217 1_554 S
C253 O265 1.304 . S
O254 C234 1.257 . S
O254 Eu235 2.473 1_565 S
O255 C234 1.260 1_545 S
O255 Eu235 2.480 . S
O256 Eu235 2.430 . S
O256 C242 1.259 . S
O257 Eu235 2.670 . S
O257 C242 1.270 . S
O257 Eu245 2.355 1_544 S
O258 Eu235 2.394 1_565 S
O258 C243 1.251 . S
O259 C243 1.251 . S
O259 Eu245 2.374 1_554 S
O260 C244 1.257 . S
O260 Eu245 2.473 1_545 S
O261 C244 1.260 1_565 S
O261 Eu245 2.480 . S
O262 Eu245 2.430 . S
O262 C252 1.259 1_556 S
O263 Eu235 2.355 1_565 S
O263 Eu245 2.670 1_554 S
O263 C252 1.270 . S
O264 Eu245 2.394 1_545 S
O264 C253 1.217 1_556 S
O265 Eu235 2.374 . S
O265 C253 1.304 . S
H266 C237 0.931 1_545 S
H267 C238 0.931 . S
H268 C240 0.931 . S
H269 C241 0.931 . S
H270 C247 0.931 1_565 S
H271 C248 0.931 . S
H272 C250 0.931 . S
H273 C251 0.931 . S
C274 Eu275 2.835 1_455 S
C274 C276 1.500 . S
C274 O294 1.257 . S
C274 O295 1.260 1_455 S
Eu275 C274 2.835 1_655 S
Eu275 O294 2.473 1_655 S
Eu275 O295 2.480 . S
Eu275 O296 2.430 . S
Eu275 O297 2.670 1_554 S
Eu275 O298 2.394 1_655 S
Eu275 O303 2.355 1_655 S
Eu275 O305 2.374 . S
C276 C274 1.500 . S
C276 C277 1.377 . S
C276 C281 1.377 . S
C277 C276 1.377 . S
C277 C278 1.395 . S
C277 H306 0.931 1_455 S
C278 C277 1.395 . S
C278 C279 1.383 . S
C278 H307 0.931 . S
C279 C278 1.383 . S
C279 C280 1.394 . S
C280 C279 1.394 . S
C280 C281 1.378 . S
C280 H308 0.931 . S
C281 C276 1.377 . S
C281 C280 1.378 . S
C281 H309 0.931 . S
C282 O296 1.259 . S
C282 O297 1.270 1_554 S
C283 O298 1.251 . S
C283 O299 1.251 . S
C284 Eu285 2.835 . S
C284 C286 1.500 1_455 S
C284 O300 1.257 1_455 S
C284 O301 1.260 . S
Eu285 C284 2.835 . S
Eu285 O297 2.355 1_455 S
Eu285 O299 2.374 1_556 S
Eu285 O300 2.473 1_455 S
Eu285 O301 2.480 . S
Eu285 O302 2.430 . S
Eu285 O303 2.670 1_556 S
Eu285 O304 2.394 1_455 S
C286 C284 1.500 1_655 S
C286 C287 1.377 1_655 S
C286 C291 1.377 . S
C287 C286 1.377 1_455 S
C287 C288 1.395 . S
C287 H310 0.931 . S
C288 C287 1.395 . S
C288 C289 1.383 1_455 S
C288 H311 0.931 . S
C289 C288 1.383 1_655 S
C289 C290 1.394 . S
C290 C289 1.394 . S
C290 C291 1.378 . S
C290 H312 0.931 . S
C291 C286 1.377 . S
C291 C290 1.378 . S
C291 H313 0.931 . S
C292 O302 1.259 1_554 S
C292 O303 1.270 . S
C293 O304 1.251 . S
C293 O305 1.251 1_556 S
O294 C274 1.257 . S
O294 Eu275 2.473 1_455 S
O295 C274 1.260 1_655 S
O295 Eu275 2.480 . S
O296 Eu275 2.430 . S
O296 C282 1.259 . S
O297 Eu275 2.670 1_556 S
O297 C282 1.270 1_556 S
O297 Eu285 2.355 1_655 S
O298 Eu275 2.394 1_455 S
O298 C283 1.251 . S
O299 C283 1.251 . S
O299 Eu285 2.374 1_554 S
O300 C284 1.257 1_655 S
O300 Eu285 2.473 1_655 S
O301 C284 1.260 . S
O301 Eu285 2.480 . S
O302 Eu285 2.430 . S
O302 C292 1.259 1_556 S
O303 Eu275 2.355 1_455 S
O303 Eu285 2.670 1_554 S
O303 C292 1.270 . S
O304 Eu285 2.394 1_655 S
O304 C293 1.251 . S
O305 Eu275 2.374 . S
O305 C293 1.251 1_554 S
H306 C277 0.931 1_655 S
H307 C278 0.931 . S
H308 C280 0.931 . S
H309 C281 0.931 . S
H310 C287 0.931 . S
H311 C288 0.931 . S
H312 C290 0.931 . S
H313 C291 0.931 . S
C314 Eu315 2.835 . S
C314 C316 1.500 . S
C314 O334 1.257 . S
C314 O335 1.260 . S
Eu315 C314 2.835 . S
Eu315 O334 2.473 . S
Eu315 O335 2.480 . S
Eu315 O336 2.430 . S
Eu315 O337 2.670 1_556 S
Eu315 O338 2.394 . S
Eu315 O343 2.355 1_556 S
Eu315 O345 2.374 1_556 S
C316 C314 1.500 . S
C316 C317 1.377 . S
C316 C321 1.377 . S
C317 C316 1.377 . S
C317 C318 1.395 . S
C317 H346 0.931 . S
C318 C317 1.395 . S
C318 C319 1.383 . S
C318 H347 0.931 . S
C319 C318 1.383 . S
C319 C320 1.394 . S
C320 C319 1.394 . S
C320 C321 1.378 . S
C320 H348 0.931 . S
C321 C316 1.377 . S
C321 C320 1.378 . S
C321 H349 0.931 . S
C322 O336 1.259 1_554 S
C322 O337 1.270 . S
C323 O338 1.251 1_554 S
C323 O339 1.251 . S
C324 Eu325 2.835 . S
C324 C326 1.500 . S
C324 O340 1.257 . S
C324 O341 1.260 . S
Eu325 C324 2.835 . S
Eu325 O337 2.355 . S
Eu325 O339 2.374 . S
Eu325 O340 2.473 . S
Eu325 O341 2.480 . S
Eu325 O342 2.430 . S
Eu325 O343 2.670 . S
Eu325 O344 2.394 . S
C326 C324 1.500 . S
C326 C327 1.377 . S
C326 C331 1.377 . S
C327 C326 1.377 . S
C327 C328 1.395 . S
C327 H350 0.931 . S
C328 C327 1.395 . S
C328 C329 1.383 . S
C328 H351 0.931 . S
C329 C328 1.383 . S
C329 C330 1.394 . S
C330 C329 1.394 . S
C330 C331 1.378 . S
C330 H352 0.931 . S
C331 C326 1.377 . S
C331 C330 1.378 . S
C331 H353 0.931 . S
C332 O342 1.259 . S
C332 O343 1.270 . S
C333 O344 1.251 . S
C333 O345 1.251 . S
O334 C314 1.257 . S
O334 Eu315 2.473 . S
O335 C314 1.260 . S
O335 Eu315 2.480 . S
O336 Eu315 2.430 . S
O336 C322 1.259 1_556 S
O337 Eu315 2.670 1_554 S
O337 C322 1.270 . S
O337 Eu325 2.355 . S
O338 Eu315 2.394 . S
O338 C323 1.251 1_556 S
O339 C323 1.251 . S
O339 Eu325 2.374 . S
O340 C324 1.257 . S
O340 Eu325 2.473 . S
O341 C324 1.260 . S
O341 Eu325 2.480 . S
O342 Eu325 2.430 . S
O342 C332 1.259 . S
O343 Eu315 2.355 1_554 S
O343 Eu325 2.670 . S
O343 C332 1.270 . S
O344 Eu325 2.394 . S
O344 C333 1.251 . S
O345 Eu315 2.374 1_554 S
O345 C333 1.251 . S
H346 C317 0.931 . S
H347 C318 0.931 . S
H348 C320 0.931 . S
H349 C321 0.931 . S
H350 C327 0.931 . S
H351 C328 0.931 . S
H352 C330 0.931 . S
H353 C331 0.931 . S
C354 Eu355 2.835 . S
C354 C356 1.500 . S
C354 O374 1.257 . S
C354 O375 1.260 . S
Eu355 C354 2.835 . S
Eu355 O374 2.473 . S
Eu355 O375 2.480 . S
Eu355 O376 2.430 . S
Eu355 O377 2.670 . S
Eu355 O378 2.394 . S
Eu355 O383 2.355 . S
Eu355 O385 2.374 . S
C356 C354 1.500 . S
C356 C357 1.377 . S
C356 C361 1.377 . S
C357 C356 1.377 . S
C357 C358 1.395 . S
C357 H386 0.931 . S
C358 C357 1.395 . S
C358 C359 1.383 . S
C358 H387 0.931 . S
C359 C358 1.383 . S
C359 C360 1.394 . S
C360 C359 1.394 . S
C360 C361 1.378 . S
C360 H388 0.931 . S
C361 C356 1.377 . S
C361 C360 1.378 . S
C361 H389 0.931 . S
C362 O376 1.259 . S
C362 O377 1.270 . S
C363 O378 1.251 . S
C363 O379 1.251 . S
C364 Eu365 2.835 . S
C364 C366 1.500 . S
C364 O380 1.257 . S
C364 O381 1.260 . S
Eu365 C364 2.835 . S
Eu365 O377 2.355 . S
Eu365 O379 2.374 . S
Eu365 O380 2.473 . S
Eu365 O381 2.480 . S
Eu365 O382 2.430 . S
Eu365 O383 2.670 . S
Eu365 O384 2.394 . S
C366 C364 1.500 . S
C366 C367 1.377 . S
C366 C371 1.377 . S
C367 C366 1.377 . S
C367 C368 1.395 . S
C367 H390 0.931 . S
C368 C367 1.395 . S
C368 C369 1.383 . S
C368 H391 0.931 . S
C369 C368 1.383 . S
C369 C370 1.394 . S
C370 C369 1.394 . S
C370 C371 1.378 . S
C370 H392 0.931 . S
C371 C366 1.377 . S
C371 C370 1.378 . S
C371 H393 0.931 . S
C372 O382 1.259 . S
C372 O383 1.270 . S
C373 O384 1.251 . S
C373 O385 1.251 . S
O374 C354 1.257 . S
O374 Eu355 2.473 . S
O375 C354 1.260 . S
O375 Eu355 2.480 . S
O376 Eu355 2.430 . S
O376 C362 1.259 . S
O377 Eu355 2.670 . S
O377 C362 1.270 . S
O377 Eu365 2.355 . S
O378 Eu355 2.394 . S
O378 C363 1.251 . S
O379 C363 1.251 . S
O379 Eu365 2.374 . S
O380 C364 1.257 . S
O380 Eu365 2.473 . S
O381 C364 1.260 . S
O381 Eu365 2.480 . S
O382 Eu365 2.430 . S
O382 C372 1.259 . S
O383 Eu355 2.355 . S
O383 Eu365 2.670 . S
O383 C372 1.270 . S
O384 Eu365 2.394 . S
O384 C373 1.251 . S
O385 Eu355 2.374 . S
O385 C373 1.251 . S
H386 C357 0.931 . S
H387 C358 0.931 . S
H388 C360 0.931 . S
H389 C361 0.931 . S
H390 C367 0.931 . S
H391 C368 0.931 . S
H392 C370 0.931 . S
H393 C371 0.931 . S
C394 Eu395 2.835 . S
C394 C396 1.500 . S
C394 O414 1.257 . S
C394 O415 1.260 . S
Eu395 C394 2.835 . S
Eu395 O414 2.473 . S
Eu395 O415 2.480 . S
Eu395 O416 2.430 . S
Eu395 O417 2.670 . S
Eu395 O418 2.394 . S
Eu395 O423 2.355 . S
Eu395 O425 2.374 . S
C396 C394 1.500 . S
C396 C397 1.377 . S
C396 C401 1.377 . S
C397 C396 1.377 . S
C397 C398 1.395 . S
C397 H426 0.931 . S
C398 C397 1.395 . S
C398 C399 1.383 . S
C398 H427 0.931 . S
C399 C398 1.383 . S
C399 C400 1.394 . S
C400 C399 1.394 . S
C400 C401 1.378 . S
C400 H428 0.931 . S
C401 C396 1.377 . S
C401 C400 1.378 . S
C401 H429 0.931 . S
C402 O416 1.259 . S
C402 O417 1.270 . S
C403 O418 1.251 . S
C403 O419 1.251 . S
C404 Eu405 2.835 . S
C404 C406 1.500 . S
C404 O420 1.257 . S
C404 O421 1.260 . S
Eu405 C404 2.835 . S
Eu405 O417 2.355 . S
Eu405 O419 2.374 . S
Eu405 O420 2.473 . S
Eu405 O421 2.480 . S
Eu405 O422 2.430 . S
Eu405 O423 2.670 . S
Eu405 O424 2.394 . S
C406 C404 1.500 . S
C406 C407 1.377 . S
C406 C411 1.377 . S
C407 C406 1.377 . S
C407 C408 1.395 . S
C407 H430 0.931 . S
C408 C407 1.395 . S
C408 C409 1.383 . S
C408 H431 0.931 . S
C409 C408 1.383 . S
C409 C410 1.394 . S
C410 C409 1.394 . S
C410 C411 1.378 . S
C410 H432 0.931 . S
C411 C406 1.377 . S
C411 C410 1.378 . S
C411 H433 0.931 . S
C412 O422 1.259 . S
C412 O423 1.270 . S
C413 O424 1.251 . S
C413 O425 1.251 . S
O414 C394 1.257 . S
O414 Eu395 2.473 . S
O415 C394 1.260 . S
O415 Eu395 2.480 . S
O416 Eu395 2.430 . S
O416 C402 1.259 . S
O417 Eu395 2.670 . S
O417 C402 1.270 . S
O417 Eu405 2.355 . S
O418 Eu395 2.394 . S
O418 C403 1.251 . S
O419 C403 1.251 . S
O419 Eu405 2.374 . S
O420 C404 1.257 . S
O420 Eu405 2.473 . S
O421 C404 1.260 . S
O421 Eu405 2.480 . S
O422 Eu405 2.430 . S
O422 C412 1.259 . S
O423 Eu395 2.355 . S
O423 Eu405 2.670 . S
O423 C412 1.270 . S
O424 Eu405 2.394 . S
O424 C413 1.251 . S
O425 Eu395 2.374 . S
O425 C413 1.251 . S
H426 C397 0.931 . S
H427 C398 0.931 . S
H428 C400 0.931 . S
H429 C401 0.931 . S
H430 C407 0.931 . S
H431 C408 0.931 . S
H432 C410 0.931 . S
H433 C411 0.931 . S
C434 Eu435 2.835 . S
C434 C436 1.500 . S
C434 O454 1.257 . S
C434 O455 1.260 . S
Eu435 C434 2.835 . S
Eu435 O454 2.473 . S
Eu435 O455 2.480 . S
Eu435 O456 2.430 . S
Eu435 O457 2.670 . S
Eu435 O458 2.394 . S
Eu435 O463 2.355 . S
Eu435 O465 2.374 . S
C436 C434 1.500 . S
C436 C437 1.377 . S
C436 C441 1.377 . S
C437 C436 1.377 . S
C437 C438 1.395 . S
C437 H466 0.931 . S
C438 C437 1.395 . S
C438 C439 1.383 . S
C438 H467 0.931 . S
C439 C438 1.383 . S
C439 C440 1.394 . S
C440 C439 1.394 . S
C440 C441 1.378 . S
C440 H468 0.931 . S
C441 C436 1.377 . S
C441 C440 1.378 . S
C441 H469 0.931 . S
C442 O456 1.259 . S
C442 O457 1.270 . S
C443 O458 1.251 . S
C443 O459 1.251 . S
C444 Eu445 2.835 . S
C444 C446 1.500 . S
C444 O460 1.257 . S
C444 O461 1.260 . S
Eu445 C444 2.835 . S
Eu445 O457 2.355 . S
Eu445 O459 2.374 . S
Eu445 O460 2.473 . S
Eu445 O461 2.480 . S
Eu445 O462 2.430 . S
Eu445 O463 2.670 . S
Eu445 O464 2.394 . S
C446 C444 1.500 . S
C446 C447 1.377 . S
C446 C451 1.377 . S
C447 C446 1.377 . S
C447 C448 1.395 . S
C447 H470 0.931 . S
C448 C447 1.395 . S
C448 C449 1.383 . S
C448 H471 0.931 . S
C449 C448 1.383 . S
C449 C450 1.394 . S
C450 C449 1.394 . S
C450 C451 1.378 . S
C450 H472 0.931 . S
C451 C446 1.377 . S
C451 C450 1.378 . S
C451 H473 0.931 . S
C452 O462 1.259 . S
C452 O463 1.270 . S
C453 O464 1.251 . S
C453 O465 1.251 . S
O454 C434 1.257 . S
O454 Eu435 2.473 . S
O455 C434 1.260 . S
O455 Eu435 2.480 . S
O456 Eu435 2.430 . S
O456 C442 1.259 . S
O457 Eu435 2.670 . S
O457 C442 1.270 . S
O457 Eu445 2.355 . S
O458 Eu435 2.394 . S
O458 C443 1.251 . S
O459 C443 1.251 . S
O459 Eu445 2.374 . S
O460 C444 1.257 . S
O460 Eu445 2.473 . S
O461 C444 1.260 . S
O461 Eu445 2.480 . S
O462 Eu445 2.430 . S
O462 C452 1.259 . S
O463 Eu435 2.355 . S
O463 Eu445 2.670 . S
O463 C452 1.270 . S
O464 Eu445 2.394 . S
O464 C453 1.251 . S
O465 Eu435 2.374 . S
O465 C453 1.251 . S
H466 C437 0.931 . S
H467 C438 0.931 . S
H468 C440 0.931 . S
H469 C441 0.931 . S
H470 C447 0.931 . S
H471 C448 0.931 . S
H472 C450 0.931 . S
H473 C451 0.931 . S
C474 Eu475 2.835 . S
C474 C476 1.500 . S
C474 O494 1.257 . S
C474 O495 1.260 . S
Eu475 C474 2.835 . S
Eu475 O494 2.473 . S
Eu475 O495 2.480 . S
Eu475 O496 2.430 . S
Eu475 O497 2.670 . S
Eu475 O498 2.394 . S
Eu475 O503 2.355 . S
Eu475 O505 2.374 . S
C476 C474 1.500 . S
C476 C477 1.377 . S
C476 C481 1.377 . S
C477 C476 1.377 . S
C477 C478 1.395 . S
C477 H506 0.931 . S
C478 C477 1.395 . S
C478 C479 1.383 . S
C478 H507 0.931 . S
C479 C478 1.383 . S
C479 C480 1.394 . S
C480 C479 1.394 . S
C480 C481 1.378 . S
C480 H508 0.931 . S
C481 C476 1.377 . S
C481 C480 1.378 . S
C481 H509 0.931 . S
C482 O496 1.259 . S
C482 O497 1.270 . S
C483 O498 1.251 . S
C483 O499 1.251 . S
C484 Eu485 2.835 . S
C484 C486 1.500 . S
C484 O500 1.257 . S
C484 O501 1.260 . S
Eu485 C484 2.835 . S
Eu485 O497 2.355 . S
Eu485 O499 2.374 . S
Eu485 O500 2.473 . S
Eu485 O501 2.480 . S
Eu485 O502 2.430 . S
Eu485 O503 2.670 . S
Eu485 O504 2.394 . S
C486 C484 1.500 . S
C486 C487 1.377 . S
C486 C491 1.377 . S
C487 C486 1.377 . S
C487 C488 1.395 . S
C487 H510 0.931 . S
C488 C487 1.395 . S
C488 C489 1.383 . S
C488 H511 0.931 . S
C489 C488 1.383 . S
C489 C490 1.394 . S
C490 C489 1.394 . S
C490 C491 1.378 . S
C490 H512 0.931 . S
C491 C486 1.377 . S
C491 C490 1.378 . S
C491 H513 0.931 . S
C492 O502 1.259 . S
C492 O503 1.270 . S
C493 O504 1.251 . S
C493 O505 1.251 . S
O494 C474 1.257 . S
O494 Eu475 2.473 . S
O495 C474 1.260 . S
O495 Eu475 2.480 . S
O496 Eu475 2.430 . S
O496 C482 1.259 . S
O497 Eu475 2.670 . S
O497 C482 1.270 . S
O497 Eu485 2.355 . S
O498 Eu475 2.394 . S
O498 C483 1.251 . S
O499 C483 1.251 . S
O499 Eu485 2.374 . S
O500 C484 1.257 . S
O500 Eu485 2.473 . S
O501 C484 1.260 . S
O501 Eu485 2.480 . S
O502 Eu485 2.430 . S
O502 C492 1.259 . S
O503 Eu475 2.355 . S
O503 Eu485 2.670 . S
O503 C492 1.270 . S
O504 Eu485 2.394 . S
O504 C493 1.251 . S
O505 Eu475 2.374 . S
O505 C493 1.251 . S
H506 C477 0.931 . S
H507 C478 0.931 . S
H508 C480 0.931 . S
H509 C481 0.931 . S
H510 C487 0.931 . S
H511 C488 0.931 . S
H512 C490 0.931 . S
H513 C491 0.931 . S
C514 Eu515 2.835 . S
C514 C516 1.500 . S
C514 O534 1.257 . S
C514 O535 1.260 . S
Eu515 C514 2.835 . S
Eu515 O534 2.473 . S
Eu515 O535 2.480 . S
Eu515 O536 2.430 . S
Eu515 O537 2.670 . S
Eu515 O538 2.394 . S
Eu515 O543 2.355 . S
Eu515 O545 2.374 . S
C516 C514 1.500 . S
C516 C517 1.377 . S
C516 C521 1.377 . S
C517 C516 1.377 . S
C517 C518 1.395 . S
C517 H546 0.931 . S
C518 C517 1.395 . S
C518 C519 1.383 . S
C518 H547 0.931 . S
C519 C518 1.383 . S
C519 C520 1.394 . S
C520 C519 1.394 . S
C520 C521 1.378 . S
C520 H548 0.931 . S
C521 C516 1.377 . S
C521 C520 1.378 . S
C521 H549 0.931 . S
C522 O536 1.259 . S
C522 O537 1.270 . S
C523 O538 1.251 . S
C523 O539 1.251 . S
C524 Eu525 2.835 . S
C524 C526 1.500 . S
C524 O540 1.257 . S
C524 O541 1.260 . S
Eu525 C524 2.835 . S
Eu525 O537 2.355 . S
Eu525 O539 2.374 . S
Eu525 O540 2.473 . S
Eu525 O541 2.480 . S
Eu525 O542 2.430 . S
Eu525 O543 2.670 . S
Eu525 O544 2.394 . S
C526 C524 1.500 . S
C526 C527 1.377 . S
C526 C531 1.377 . S
C527 C526 1.377 . S
C527 C528 1.395 . S
C527 H550 0.931 . S
C528 C527 1.395 . S
C528 C529 1.383 . S
C528 H551 0.931 . S
C529 C528 1.383 . S
C529 C530 1.394 . S
C530 C529 1.394 . S
C530 C531 1.378 . S
C530 H552 0.931 . S
C531 C526 1.377 . S
C531 C530 1.378 . S
C531 H553 0.931 . S
C532 O542 1.259 . S
C532 O543 1.270 . S
C533 O544 1.251 . S
C533 O545 1.251 . S
O534 C514 1.257 . S
O534 Eu515 2.473 . S
O535 C514 1.260 . S
O535 Eu515 2.480 . S
O536 Eu515 2.430 . S
O536 C522 1.259 . S
O537 Eu515 2.670 . S
O537 C522 1.270 . S
O537 Eu525 2.355 . S
O538 Eu515 2.394 . S
O538 C523 1.251 . S
O539 C523 1.251 . S
O539 Eu525 2.374 . S
O540 C524 1.257 . S
O540 Eu525 2.473 . S
O541 C524 1.260 . S
O541 Eu525 2.480 . S
O542 Eu525 2.430 . S
O542 C532 1.259 . S
O543 Eu515 2.355 . S
O543 Eu525 2.670 . S
O543 C532 1.270 . S
O544 Eu525 2.394 . S
O544 C533 1.251 . S
O545 Eu515 2.374 . S
O545 C533 1.251 . S
H546 C517 0.931 . S
H547 C518 0.931 . S
H548 C520 0.931 . S
H549 C521 0.931 . S
H550 C527 0.931 . S
H551 C528 0.931 . S
H552 C530 0.931 . S
H553 C531 0.931 . S
C554 Eu555 2.835 . S
C554 C556 1.500 . S
C554 O574 1.257 . S
C554 O575 1.260 . S
Eu555 C554 2.835 . S
Eu555 O574 2.473 . S
Eu555 O575 2.480 . S
Eu555 O576 2.430 . S
Eu555 O577 2.670 . S
Eu555 O578 2.394 . S
Eu555 O583 2.355 . S
Eu555 O585 2.374 . S
C556 C554 1.500 . S
C556 C557 1.377 . S
C556 C561 1.377 . S
C557 C556 1.377 . S
C557 C558 1.395 . S
C557 H586 0.931 . S
C558 C557 1.395 . S
C558 C559 1.383 . S
C558 H587 0.931 . S
C559 C558 1.383 . S
C559 C560 1.394 . S
C560 C559 1.394 . S
C560 C561 1.378 . S
C560 H588 0.931 . S
C561 C556 1.377 . S
C561 C560 1.378 . S
C561 H589 0.931 . S
C562 O576 1.259 . S
C562 O577 1.270 . S
C563 O578 1.251 . S
C563 O579 1.251 . S
C564 Eu565 2.835 . S
C564 C566 1.500 . S
C564 O580 1.257 . S
C564 O581 1.260 . S
Eu565 C564 2.835 . S
Eu565 O577 2.355 . S
Eu565 O579 2.374 . S
Eu565 O580 2.473 . S
Eu565 O581 2.480 . S
Eu565 O582 2.430 . S
Eu565 O583 2.670 . S
Eu565 O584 2.394 . S
C566 C564 1.500 . S
C566 C567 1.377 . S
C566 C571 1.377 . S
C567 C566 1.377 . S
C567 C568 1.395 . S
C567 H590 0.931 . S
C568 C567 1.395 . S
C568 C569 1.383 . S
C568 H591 0.931 . S
C569 C568 1.383 . S
C569 C570 1.394 . S
C570 C569 1.394 . S
C570 C571 1.378 . S
C570 H592 0.931 . S
C571 C566 1.377 . S
C571 C570 1.378 . S
C571 H593 0.931 . S
C572 O582 1.259 . S
C572 O583 1.270 . S
C573 O584 1.251 . S
C573 O585 1.251 . S
O574 C554 1.257 . S
O574 Eu555 2.473 . S
O575 C554 1.260 . S
O575 Eu555 2.480 . S
O576 Eu555 2.430 . S
O576 C562 1.259 . S
O577 Eu555 2.670 . S
O577 C562 1.270 . S
O577 Eu565 2.355 . S
O578 Eu555 2.394 . S
O578 C563 1.251 . S
O579 C563 1.251 . S
O579 Eu565 2.374 . S
O580 C564 1.257 . S
O580 Eu565 2.473 . S
O581 C564 1.260 . S
O581 Eu565 2.480 . S
O582 Eu565 2.430 . S
O582 C572 1.259 . S
O583 Eu555 2.355 . S
O583 Eu565 2.670 . S
O583 C572 1.270 . S
O584 Eu565 2.394 . S
O584 C573 1.251 . S
O585 Eu555 2.374 . S
O585 C573 1.251 . S
H586 C557 0.931 . S
H587 C558 0.931 . S
H588 C560 0.931 . S
H589 C561 0.931 . S
H590 C567 0.931 . S
H591 C568 0.931 . S
H592 C570 0.931 . S
H593 C571 0.931 . S
C594 C595 1.391 . S
C594 C596 1.394 . S
C594 H610 0.931 . S
C595 C594 1.391 . S
C595 C599 1.376 . S
C596 C594 1.394 . S
C596 C597 1.369 . S
C596 C600 1.531 . S
C597 C596 1.369 . S
C597 C598 1.410 . S
C597 C605 1.503 . S
C598 C597 1.410 . S
C598 C599 1.392 . S
C598 C601 1.511 . S
C599 C595 1.376 . S
C599 C598 1.392 . S
C599 H611 0.929 . S
C600 C596 1.531 . S
C600 H612 0.960 . S
C600 H613 0.962 . S
C600 H614 0.960 . S
C601 C598 1.511 . S
C601 H615 0.961 . S
C601 H616 0.961 . S
C601 H617 0.961 . S
C602 C603 1.370 . S
C602 C604 1.363 . S
C602 H618 0.931 . S
C603 C602 1.370 . S
C603 C607 1.408 . S
C604 C602 1.363 . S
C604 C605 1.370 . S
C604 C608 1.524 . S
C605 C597 1.503 . S
C605 C604 1.370 . S
C605 C606 1.403 . S
C606 C605 1.403 . S
C606 C607 1.404 . S
C606 C609 1.539 . S
C607 C603 1.408 . S
C607 C606 1.404 . S
C607 H619 0.930 . S
C608 C604 1.524 . S
C608 H620 0.956 . S
C608 H621 0.961 . S
C608 H622 0.961 . S
C609 C606 1.539 . S
C609 H623 0.958 . S
C609 H624 0.961 . S
C609 H625 0.960 . S
H610 C594 0.931 . S
H611 C599 0.929 . S
H612 C600 0.960 . S
H613 C600 0.962 . S
H614 C600 0.960 . S
H615 C601 0.961 . S
H616 C601 0.961 . S
H617 C601 0.961 . S
H618 C602 0.931 . S
H619 C607 0.930 . S
H620 C608 0.956 . S
H621 C608 0.961 . S
H622 C608 0.961 . S
H623 C609 0.958 . S
H624 C609 0.961 . S
H625 C609 0.960 . S
C626 C627 1.391 . S
C626 C628 1.394 . S
C626 H642 0.931 . S
C627 C626 1.391 . S
C627 C631 1.376 . S
C628 C626 1.394 . S
C628 C629 1.369 . S
C628 C632 1.531 . S
C629 C628 1.369 . S
C629 C630 1.410 . S
C629 C637 1.503 . S
C630 C629 1.410 . S
C630 C631 1.392 . S
C630 C633 1.511 . S
C631 C627 1.376 . S
C631 C630 1.392 . S
C631 H643 0.929 . S
C632 C628 1.531 . S
C632 H644 0.960 . S
C632 H645 0.962 . S
C632 H646 0.960 . S
C633 C630 1.511 . S
C633 H647 0.961 . S
C633 H648 0.961 . S
C633 H649 0.961 . S
C634 C635 1.370 . S
C634 C636 1.363 . S
C634 H650 0.931 . S
C635 C634 1.370 . S
C635 C639 1.408 . S
C636 C634 1.363 . S
C636 C637 1.370 . S
C636 C640 1.524 . S
C637 C629 1.503 . S
C637 C636 1.370 . S
C637 C638 1.403 . S
C638 C637 1.403 . S
C638 C639 1.404 . S
C638 C641 1.539 . S
C639 C635 1.408 . S
C639 C638 1.404 . S
C639 H651 0.930 . S
C640 C636 1.524 . S
C640 H652 0.956 . S
C640 H653 0.961 . S
C640 H654 0.961 . S
C641 C638 1.539 . S
C641 H655 0.958 . S
C641 H656 0.961 . S
C641 H657 0.960 . S
H642 C626 0.931 . S
H643 C631 0.929 . S
H644 C632 0.960 . S
H645 C632 0.962 . S
H646 C632 0.960 . S
H647 C633 0.961 . S
H648 C633 0.961 . S
H649 C633 0.961 . S
H650 C634 0.931 . S
H651 C639 0.930 . S
H652 C640 0.956 . S
H653 C640 0.961 . S
H654 C640 0.961 . S
H655 C641 0.958 . S
H656 C641 0.961 . S
H657 C641 0.960 . S
C658 C659 1.391 . S
C658 C660 1.394 . S
C658 H674 0.931 . S
C659 C658 1.391 . S
C659 C663 1.376 . S
C660 C658 1.394 . S
C660 C661 1.369 . S
C660 C664 1.531 . S
C661 C660 1.369 . S
C661 C662 1.410 . S
C661 C669 1.503 . S
C662 C661 1.410 . S
C662 C663 1.392 . S
C662 C665 1.511 . S
C663 C659 1.376 . S
C663 C662 1.392 . S
C663 H675 0.929 . S
C664 C660 1.531 . S
C664 H676 0.960 . S
C664 H677 0.962 . S
C664 H678 0.960 . S
C665 C662 1.511 . S
C665 H679 0.961 . S
C665 H680 0.961 . S
C665 H681 0.961 . S
C666 C667 1.370 . S
C666 C668 1.363 . S
C666 H682 0.931 . S
C667 C666 1.370 . S
C667 C671 1.408 . S
C668 C666 1.363 . S
C668 C669 1.370 . S
C668 C672 1.524 . S
C669 C661 1.503 . S
C669 C668 1.370 . S
C669 C670 1.403 . S
C670 C669 1.403 . S
C670 C671 1.404 . S
C670 C673 1.539 1_554 S
C671 C667 1.408 . S
C671 C670 1.404 . S
C671 H683 0.930 1_554 S
C672 C668 1.524 . S
C672 H684 0.956 . S
C672 H685 0.961 . S
C672 H686 0.961 . S
C673 C670 1.539 1_556 S
C673 H687 0.958 . S
C673 H688 0.961 . S
C673 H689 0.960 . S
H674 C658 0.931 . S
H675 C663 0.929 . S
H676 C664 0.960 . S
H677 C664 0.962 . S
H678 C664 0.960 . S
H679 C665 0.961 . S
H680 C665 0.961 . S
H681 C665 0.961 . S
H682 C666 0.931 . S
H683 C671 0.930 1_556 S
H684 C672 0.956 . S
H685 C672 0.961 . S
H686 C672 0.961 . S
H687 C673 0.958 . S
H688 C673 0.961 . S
H689 C673 0.960 . S
C690 C691 1.391 . S
C690 C692 1.394 . S
C690 H706 0.931 1_556 S
C691 C690 1.391 . S
C691 C695 1.376 . S
C692 C690 1.394 . S
C692 C693 1.369 . S
C692 C696 1.531 1_556 S
C693 C692 1.369 . S
C693 C694 1.410 . S
C693 C701 1.503 . S
C694 C693 1.410 . S
C694 C695 1.392 . S
C694 C697 1.511 . S
C695 C691 1.376 . S
C695 C694 1.392 . S
C695 H707 0.929 . S
C696 C692 1.531 1_554 S
C696 H708 0.960 . S
C696 H709 0.962 . S
C696 H710 0.960 . S
C697 C694 1.511 . S
C697 H711 0.961 . S
C697 H712 0.961 . S
C697 H713 0.961 . S
C698 C699 1.370 . S
C698 C700 1.363 . S
C698 H714 0.931 . S
C699 C698 1.370 . S
C699 C703 1.408 1_556 S
C700 C698 1.363 . S
C700 C701 1.370 . S
C700 C704 1.524 . S
C701 C693 1.503 . S
C701 C700 1.370 . S
C701 C702 1.403 1_556 S
C702 C701 1.403 1_554 S
C702 C703 1.404 . S
C702 C705 1.539 . S
C703 C699 1.408 1_554 S
C703 C702 1.404 . S
C703 H715 0.930 . S
C704 C700 1.524 . S
C704 H716 0.956 . S
C704 H717 0.961 . S
C704 H718 0.961 . S
C705 C702 1.539 . S
C705 H719 0.958 . S
C705 H720 0.961 . S
C705 H721 0.960 . S
H706 C690 0.931 1_554 S
H707 C695 0.929 . S
H708 C696 0.960 . S
H709 C696 0.962 . S
H710 C696 0.960 . S
H711 C697 0.961 . S
H712 C697 0.961 . S
H713 C697 0.961 . S
H714 C698 0.931 . S
H715 C703 0.930 . S
H716 C704 0.956 . S
H717 C704 0.961 . S
H718 C704 0.961 . S
H719 C705 0.958 . S
H720 C705 0.961 . S
H721 C705 0.960 . S
C722 C723 1.391 . S
C722 C724 1.394 . S
C722 H738 0.931 . S
C723 C722 1.391 . S
C723 C727 1.376 . S
C724 C722 1.394 . S
C724 C725 1.369 . S
C724 C728 1.531 . S
C725 C724 1.369 . S
C725 C726 1.410 . S
C725 C733 1.503 . S
C726 C725 1.410 . S
C726 C727 1.392 . S
C726 C729 1.511 . S
C727 C723 1.376 . S
C727 C726 1.392 . S
C727 H739 0.929 . S
C728 C724 1.531 . S
C728 H740 0.960 . S
C728 H741 0.962 . S
C728 H742 0.960 . S
C729 C726 1.511 . S
C729 H743 0.961 . S
C729 H744 0.961 . S
C729 H745 0.961 . S
C730 C731 1.370 . S
C730 C732 1.363 . S
C730 H746 0.931 . S
C731 C730 1.370 . S
C731 C735 1.408 1_556 S
C732 C730 1.363 . S
C732 C733 1.370 . S
C732 C736 1.524 . S
C733 C725 1.503 . S
C733 C732 1.370 . S
C733 C734 1.403 1_556 S
C734 C733 1.403 1_554 S
C734 C735 1.404 . S
C734 C737 1.539 . S
C735 C731 1.408 1_554 S
C735 C734 1.404 . S
C735 H747 0.930 . S
C736 C732 1.524 . S
C736 H748 0.956 . S
C736 H749 0.961 . S
C736 H750 0.961 . S
C737 C734 1.539 . S
C737 H751 0.958 . S
C737 H752 0.961 . S
C737 H753 0.960 . S
H738 C722 0.931 . S
H739 C727 0.929 . S
H740 C728 0.960 . S
H741 C728 0.962 . S
H742 C728 0.960 . S
H743 C729 0.961 . S
H744 C729 0.961 . S
H745 C729 0.961 . S
H746 C730 0.931 . S
H747 C735 0.930 . S
H748 C736 0.956 . S
H749 C736 0.961 . S
H750 C736 0.961 . S
H751 C737 0.958 . S
H752 C737 0.961 . S
H753 C737 0.960 . S
C754 C755 1.391 . S
C754 C756 1.394 . S
C754 H770 0.931 1_556 S
C755 C754 1.391 . S
C755 C759 1.376 . S
C756 C754 1.394 . S
C756 C757 1.369 . S
C756 C760 1.531 1_556 S
C757 C756 1.369 . S
C757 C758 1.410 . S
C757 C765 1.503 . S
C758 C757 1.410 . S
C758 C759 1.392 . S
C758 C761 1.511 . S
C759 C755 1.376 . S
C759 C758 1.392 . S
C759 H771 0.929 . S
C760 C756 1.531 1_554 S
C760 H772 0.960 . S
C760 H773 0.962 . S
C760 H774 0.960 . S
C761 C758 1.511 . S
C761 H775 0.961 . S
C761 H776 0.961 . S
C761 H777 0.961 . S
C762 C763 1.382 . S
C762 C764 1.363 . S
C762 H778 0.931 . S
C763 C762 1.382 . S
C763 C767 1.392 1_554 S
C764 C762 1.363 . S
C764 C765 1.370 1_554 S
C764 C768 1.524 . S
C765 C757 1.503 . S
C765 C764 1.370 1_556 S
C765 C766 1.403 . S
C766 C765 1.403 . S
C766 C767 1.404 . S
C766 C769 1.539 . S
C767 C763 1.392 1_556 S
C767 C766 1.404 . S
C767 H779 0.930 . S
C768 C764 1.524 . S
C768 H780 0.956 . S
C768 H781 0.961 1_554 S
C768 H782 0.961 . S
C769 C766 1.539 . S
C769 H783 0.958 . S
C769 H784 0.961 . S
C769 H785 0.960 . S
H770 C754 0.931 1_554 S
H771 C759 0.929 . S
H772 C760 0.960 . S
H773 C760 0.962 . S
H774 C760 0.960 . S
H775 C761 0.961 . S
H776 C761 0.961 . S
H777 C761 0.961 . S
H778 C762 0.931 . S
H779 C767 0.930 . S
H780 C768 0.956 . S
H781 C768 0.961 1_556 S
H782 C768 0.961 . S
H783 C769 0.958 . S
H784 C769 0.961 . S
H785 C769 0.960 . S
C786 C787 1.391 . S
C786 C788 1.394 . S
C786 H802 0.931 . S
C787 C786 1.391 . S
C787 C791 1.376 . S
C788 C786 1.394 . S
C788 C789 1.369 . S
C788 C792 1.531 1_556 S
C789 C788 1.369 . S
C789 C790 1.410 . S
C789 C797 1.503 . S
C790 C789 1.410 . S
C790 C791 1.392 . S
C790 C793 1.511 . S
C791 C787 1.376 . S
C791 C790 1.392 . S
C791 H803 0.929 . S
C792 C788 1.531 1_554 S
C792 H804 0.960 . S
C792 H805 0.955 1_554 S
C792 H806 0.960 . S
C793 C790 1.511 . S
C793 H807 0.961 . S
C793 H808 0.961 . S
C793 H809 0.961 . S
C794 C795 1.370 . S
C794 C796 1.363 . S
C794 H810 0.931 . S
C795 C794 1.370 . S
C795 C799 1.408 1_556 S
C796 C794 1.363 . S
C796 C797 1.370 . S
C796 C800 1.524 . S
C797 C789 1.503 . S
C797 C796 1.370 . S
C797 C798 1.403 1_556 S
C798 C797 1.403 1_554 S
C798 C799 1.404 . S
C798 C801 1.539 . S
C799 C795 1.408 1_554 S
C799 C798 1.404 . S
C799 H811 0.930 . S
C800 C796 1.524 . S
C800 H812 0.956 . S
C800 H813 0.961 . S
C800 H814 0.961 . S
C801 C798 1.539 . S
C801 H815 0.958 . S
C801 H816 0.961 . S
C801 H817 0.960 . S
H802 C786 0.931 . S
H803 C791 0.929 . S
H804 C792 0.960 . S
H805 C792 0.955 1_556 S
H806 C792 0.960 . S
H807 C793 0.961 . S
H808 C793 0.961 . S
H809 C793 0.961 . S
H810 C794 0.931 . S
H811 C799 0.930 . S
H812 C800 0.956 . S
H813 C800 0.961 . S
H814 C800 0.961 . S
H815 C801 0.958 . S
H816 C801 0.961 . S
H817 C801 0.960 . S
C818 C819 1.391 . S
C818 C820 1.394 . S
C818 H834 0.931 . S
C819 C818 1.391 . S
C819 C823 1.376 . S
C820 C818 1.394 . S
C820 C821 1.369 . S
C820 C824 1.531 . S
C821 C820 1.369 . S
C821 C822 1.410 . S
C821 C829 1.503 . S
C822 C821 1.410 . S
C822 C823 1.392 . S
C822 C825 1.511 . S
C823 C819 1.376 . S
C823 C822 1.392 . S
C823 H835 0.929 . S
C824 C820 1.531 . S
C824 H836 0.960 . S
C824 H837 0.962 . S
C824 H838 0.960 1_556 S
C825 C822 1.511 . S
C825 H839 0.961 . S
C825 H840 0.961 . S
C825 H841 0.961 . S
C826 C827 1.370 . S
C826 C828 1.363 . S
C826 H842 0.931 . S
C827 C826 1.370 . S
C827 C831 1.408 . S
C828 C826 1.363 . S
C828 C829 1.370 . S
C828 C832 1.524 . S
C829 C821 1.503 . S
C829 C828 1.370 . S
C829 C830 1.403 . S
C830 C829 1.403 . S
C830 C831 1.404 . S
C830 C833 1.539 . S
C831 C827 1.408 . S
C831 C830 1.404 . S
C831 H843 0.930 . S
C832 C828 1.524 . S
C832 H844 0.956 . S
C832 H845 0.961 . S
C832 H846 0.961 . S
C833 C830 1.539 . S
C833 H847 0.958 . S
C833 H848 0.961 . S
C833 H849 0.960 . S
H834 C818 0.931 . S
H835 C823 0.929 . S
H836 C824 0.960 . S
H837 C824 0.962 . S
H838 C824 0.960 1_554 S
H839 C825 0.961 . S
H840 C825 0.961 . S
H841 C825 0.961 . S
H842 C826 0.931 . S
H843 C831 0.930 . S
H844 C832 0.956 . S
H845 C832 0.961 . S
H846 C832 0.961 . S
H847 C833 0.958 . S
H848 C833 0.961 . S
H849 C833 0.960 . S
C850 C851 1.391 1_554 S
C850 C852 1.394 . S
C850 H866 0.931 . S
C851 C850 1.391 1_556 S
C851 C855 1.376 . S
C852 C850 1.394 . S
C852 C853 1.363 1_554 S
C852 C856 1.531 . S
C853 C852 1.363 1_556 S
C853 C854 1.419 . S
C853 C861 1.501 1_556 S
C854 C853 1.419 . S
C854 C855 1.392 . S
C854 C857 1.511 . S
C855 C851 1.376 . S
C855 C854 1.392 . S
C855 H867 0.929 . S
C856 C852 1.531 . S
C856 H868 0.960 . S
C856 H869 0.962 . S
C856 H870 0.960 . S
C857 C854 1.511 . S
C857 H871 0.961 . S
C857 H872 0.961 . S
C857 H873 0.961 . S
C858 C859 1.370 1_556 S
C858 C860 1.363 . S
C858 H874 0.931 . S
C859 C858 1.370 1_554 S
C859 C863 1.408 . S
C860 C858 1.363 . S
C860 C861 1.370 1_556 S
C860 C864 1.524 . S
C861 C853 1.501 1_554 S
C861 C860 1.370 1_554 S
C861 C862 1.403 . S
C862 C861 1.403 . S
C862 C863 1.404 . S
C862 C865 1.539 . S
C863 C859 1.408 . S
C863 C862 1.404 . S
C863 H875 0.930 . S
C864 C860 1.524 . S
C864 H876 0.956 . S
C864 H877 0.961 . S
C864 H878 0.961 . S
C865 C862 1.539 . S
C865 H879 0.958 . S
C865 H880 0.961 . S
C865 H881 0.960 . S
H866 C850 0.931 . S
H867 C855 0.929 . S
H868 C856 0.960 . S
H869 C856 0.962 . S
H870 C856 0.960 . S
H871 C857 0.961 . S
H872 C857 0.961 . S
H873 C857 0.961 . S
H874 C858 0.931 . S
H875 C863 0.930 . S
H876 C864 0.956 . S
H877 C864 0.961 . S
H878 C864 0.961 . S
H879 C865 0.958 . S
H880 C865 0.961 . S
H881 C865 0.960 . S
C882 C883 1.391 . S
C882 C884 1.394 . S
C882 H898 0.931 . S
C883 C882 1.391 . S
C883 C887 1.376 . S
C884 C882 1.394 . S
C884 C885 1.369 . S
C884 C888 1.531 . S
C885 C884 1.369 . S
C885 C886 1.410 . S
C885 C893 1.503 . S
C886 C885 1.410 . S
C886 C887 1.392 . S
C886 C889 1.511 . S
C887 C883 1.376 . S
C887 C886 1.392 . S
C887 H899 0.929 . S
C888 C884 1.531 . S
C888 H900 0.960 1_554 S
C888 H901 0.962 . S
C888 H902 0.960 1_554 S
C889 C886 1.511 . S
C889 H903 0.961 . S
C889 H904 0.961 . S
C889 H905 0.961 . S
C890 C891 1.370 . S
C890 C892 1.363 . S
C890 H906 0.931 . S
C891 C890 1.370 . S
C891 C895 1.372 1_554 S
C892 C890 1.363 . S
C892 C893 1.370 . S
C892 C896 1.524 . S
C893 C885 1.503 . S
C893 C892 1.370 . S
C893 C894 1.403 . S
C894 C893 1.403 . S
C894 C895 1.391 1_554 S
C894 C897 1.539 1_554 S
C895 C891 1.372 1_556 S
C895 C894 1.391 1_556 S
C895 H907 0.980 . S
C896 C892 1.524 . S
C896 H908 0.956 . S
C896 H909 0.961 . S
C896 H910 0.961 . S
C897 C894 1.539 1_556 S
C897 H911 0.958 . S
C897 H912 0.961 . S
C897 H913 0.960 . S
H898 C882 0.931 . S
H899 C887 0.929 . S
H900 C888 0.960 1_556 S
H901 C888 0.962 . S
H902 C888 0.960 1_556 S
H903 C889 0.961 . S
H904 C889 0.961 . S
H905 C889 0.961 . S
H906 C890 0.931 . S
H907 C895 0.980 . S
H908 C896 0.956 . S
H909 C896 0.961 . S
H910 C896 0.961 . S
H911 C897 0.958 . S
H912 C897 0.961 . S
H913 C897 0.960 . S
C914 C915 1.391 . S
C914 C916 1.394 . S
C914 H930 0.931 . S
C915 C914 1.391 . S
C915 C919 1.376 . S
C916 C914 1.394 . S
C916 C917 1.369 . S
C916 C920 1.531 . S
C917 C916 1.369 . S
C917 C918 1.410 . S
C917 C925 1.503 . S
C918 C917 1.410 . S
C918 C919 1.392 . S
C918 C921 1.511 . S
C919 C915 1.376 . S
C919 C918 1.392 . S
C919 H931 0.929 . S
C920 C916 1.531 . S
C920 H932 0.960 . S
C920 H933 0.962 . S
C920 H934 0.960 . S
C921 C918 1.511 . S
C921 H935 0.961 . S
C921 H936 0.961 . S
C921 H937 0.961 . S
C922 C923 1.370 . S
C922 C924 1.363 . S
C922 H938 0.931 . S
C923 C922 1.370 . S
C923 C927 1.408 . S
C924 C922 1.363 . S
C924 C925 1.370 . S
C924 C928 1.524 . S
C925 C917 1.503 . S
C925 C924 1.370 . S
C925 C926 1.403 . S
C926 C925 1.403 . S
C926 C927 1.404 . S
C926 C929 1.539 . S
C927 C923 1.408 . S
C927 C926 1.404 . S
C927 H939 0.930 . S
C928 C924 1.524 . S
C928 H940 0.956 . S
C928 H941 0.961 . S
C928 H942 0.961 . S
C929 C926 1.539 . S
C929 H943 0.958 . S
C929 H944 0.961 . S
C929 H945 0.960 . S
H930 C914 0.931 . S
H931 C919 0.929 . S
H932 C920 0.960 . S
H933 C920 0.962 . S
H934 C920 0.960 . S
H935 C921 0.961 . S
H936 C921 0.961 . S
H937 C921 0.961 . S
H938 C922 0.931 . S
H939 C927 0.930 . S
H940 C928 0.956 . S
H941 C928 0.961 . S
H942 C928 0.961 . S
H943 C929 0.958 . S
H944 C929 0.961 . S
H945 C929 0.960 . S
C946 C947 1.391 . S
C946 C948 1.394 . S
C946 H962 0.931 . S
C947 C946 1.391 . S
C947 C951 1.376 . S
C948 C946 1.394 . S
C948 C949 1.369 . S
C948 C952 1.531 . S
C949 C948 1.369 . S
C949 C950 1.410 . S
C949 C957 1.503 . S
C950 C949 1.410 . S
C950 C951 1.392 . S
C950 C953 1.511 . S
C951 C947 1.376 . S
C951 C950 1.392 . S
C951 H963 0.929 . S
C952 C948 1.531 . S
C952 H964 0.960 . S
C952 H965 0.962 . S
C952 H966 0.960 . S
C953 C950 1.511 . S
C953 H967 0.961 . S
C953 H968 0.961 . S
C953 H969 0.961 . S
C954 C955 1.370 . S
C954 C956 1.363 . S
C954 H970 0.931 1_554 S
C955 C954 1.370 . S
C955 C959 1.408 . S
C956 C954 1.363 . S
C956 C957 1.370 . S
C956 C960 1.527 1_554 S
C957 C949 1.503 . S
C957 C956 1.370 . S
C957 C958 1.403 . S
C958 C957 1.403 . S
C958 C959 1.404 . S
C958 C961 1.539 . S
C959 C955 1.408 . S
C959 C958 1.404 . S
C959 H971 0.930 . S
C960 C956 1.527 1_556 S
C960 H972 0.959 1_556 S
C960 H973 0.959 . S
C960 H974 0.957 . S
C961 C958 1.539 . S
C961 H975 0.958 . S
C961 H976 0.961 . S
C961 H977 0.960 . S
H962 C946 0.931 . S
H963 C951 0.929 . S
H964 C952 0.960 . S
H965 C952 0.962 . S
H966 C952 0.960 . S
H967 C953 0.961 . S
H968 C953 0.961 . S
H969 C953 0.961 . S
H970 C954 0.931 1_556 S
H971 C959 0.930 . S
H972 C960 0.959 1_554 S
H973 C960 0.959 . S
H974 C960 0.957 . S
H975 C961 0.958 . S
H976 C961 0.961 . S
H977 C961 0.960 . S
C978 C979 1.391 . S
C978 C980 1.394 . S
C978 H994 0.931 . S
C979 C978 1.391 . S
C979 C983 1.376 . S
C980 C978 1.394 . S
C980 C981 1.369 . S
C980 C984 1.531 1_655 S
C981 C980 1.369 . S
C981 C982 1.410 . S
C981 C989 1.503 1_655 S
C982 C981 1.410 . S
C982 C983 1.392 . S
C982 C985 1.511 . S
C983 C979 1.376 . S
C983 C982 1.392 . S
C983 H995 0.929 . S
C984 C980 1.531 1_455 S
C984 H996 0.960 . S
C984 H997 0.962 . S
C984 H998 0.960 1_455 S
C985 C982 1.511 . S
C985 H999 0.961 . S
C985 H1000 0.961 . S
C985 H1001 0.961 . S
C986 C987 1.370 . S
C986 C988 1.363 . S
C986 H1002 0.931 . S
C987 C986 1.370 . S
C987 C991 1.408 . S
C988 C986 1.363 . S
C988 C989 1.370 . S
C988 C992 1.524 . S
C989 C981 1.503 1_455 S
C989 C988 1.370 . S
C989 C990 1.403 . S
C990 C989 1.403 . S
C990 C991 1.404 . S
C990 C993 1.539 . S
C991 C987 1.408 . S
C991 C990 1.404 . S
C991 H1003 0.930 . S
C992 C988 1.524 . S
C992 H1004 0.956 . S
C992 H1005 0.961 . S
C992 H1006 0.961 . S
C993 C990 1.539 . S
C993 H1007 0.958 . S
C993 H1008 0.961 . S
C993 H1009 0.960 1_455 S
H994 C978 0.931 . S
H995 C983 0.929 . S
H996 C984 0.960 . S
H997 C984 0.962 . S
H998 C984 0.960 1_655 S
H999 C985 0.961 . S
H1000 C985 0.961 . S
H1001 C985 0.961 . S
H1002 C986 0.931 . S
H1003 C991 0.930 . S
H1004 C992 0.956 . S
H1005 C992 0.961 . S
H1006 C992 0.961 . S
H1007 C993 0.958 . S
H1008 C993 0.961 . S
H1009 C993 0.960 1_655 S
C1010 C1011 1.391 . S
C1010 C1012 1.394 . S
C1010 H1026 0.931 . S
C1011 C1010 1.391 . S
C1011 C1015 1.376 . S
C1012 C1010 1.394 . S
C1012 C1013 1.369 . S
C1012 C1016 1.531 . S
C1013 C1012 1.369 . S
C1013 C1014 1.410 . S
C1013 C1021 1.503 . S
C1014 C1013 1.410 . S
C1014 C1015 1.392 . S
C1014 C1017 1.511 . S
C1015 C1011 1.376 . S
C1015 C1014 1.392 . S
C1015 H1027 0.929 . S
C1016 C1012 1.531 . S
C1016 H1028 0.960 . S
C1016 H1029 0.962 . S
C1016 H1030 0.960 . S
C1017 C1014 1.511 . S
C1017 H1031 0.961 . S
C1017 H1032 0.961 . S
C1017 H1033 0.961 . S
C1018 C1019 1.370 . S
C1018 C1020 1.363 . S
C1018 H1034 0.931 . S
C1019 C1018 1.370 . S
C1019 C1023 1.408 . S
C1020 C1018 1.363 . S
C1020 C1021 1.370 . S
C1020 C1024 1.524 . S
C1021 C1013 1.503 . S
C1021 C1020 1.370 . S
C1021 C1022 1.403 . S
C1022 C1021 1.403 . S
C1022 C1023 1.404 . S
C1022 C1025 1.539 . S
C1023 C1019 1.408 . S
C1023 C1022 1.404 . S
C1023 H1035 0.930 . S
C1024 C1020 1.524 . S
C1024 H1036 0.956 . S
C1024 H1037 0.961 . S
C1024 H1038 0.961 . S
C1025 C1022 1.539 . S
C1025 H1039 0.958 . S
C1025 H1040 0.961 . S
C1025 H1041 0.960 . S
H1026 C1010 0.931 . S
H1027 C1015 0.929 . S
H1028 C1016 0.960 . S
H1029 C1016 0.962 . S
H1030 C1016 0.960 . S
H1031 C1017 0.961 . S
H1032 C1017 0.961 . S
H1033 C1017 0.961 . S
H1034 C1018 0.931 . S
H1035 C1023 0.930 . S
H1036 C1024 0.956 . S
H1037 C1024 0.961 . S
H1038 C1024 0.961 . S
H1039 C1025 0.958 . S
H1040 C1025 0.961 . S
H1041 C1025 0.960 . S
C1042 C1043 1.391 . S
C1042 C1044 1.394 . S
C1042 H1058 0.931 . S
C1043 C1042 1.391 . S
C1043 C1047 1.376 . S
C1044 C1042 1.394 . S
C1044 C1045 1.369 . S
C1044 C1048 1.535 . S
C1045 C1044 1.369 . S
C1045 C1046 1.410 . S
C1045 C1053 1.503 1_545 S
C1046 C1045 1.410 . S
C1046 C1047 1.392 . S
C1046 C1049 1.511 . S
C1047 C1043 1.376 . S
C1047 C1046 1.392 . S
C1047 H1059 0.929 . S
C1048 C1044 1.535 . S
C1048 H1060 0.955 1_545 S
C1048 H1061 0.956 1_545 S
C1048 H1062 0.967 . S
C1049 C1046 1.511 . S
C1049 H1063 0.961 . S
C1049 H1064 0.961 1_545 S
C1049 H1065 0.961 . S
C1050 C1051 1.370 . S
C1050 C1052 1.363 . S
C1050 H1066 0.931 . S
C1051 C1050 1.370 . S
C1051 C1055 1.408 . S
C1052 C1050 1.363 . S
C1052 C1053 1.370 . S
C1052 C1056 1.524 . S
C1053 C1045 1.503 1_565 S
C1053 C1052 1.370 . S
C1053 C1054 1.403 . S
C1054 C1053 1.403 . S
C1054 C1055 1.404 . S
C1054 C1057 1.539 . S
C1055 C1051 1.408 . S
C1055 C1054 1.404 . S
C1055 H1067 0.930 . S
C1056 C1052 1.524 . S
C1056 H1068 0.956 . S
C1056 H1069 0.979 . S
C1056 H1070 0.961 . S
C1057 C1054 1.539 . S
C1057 H1071 0.958 . S
C1057 H1072 0.961 . S
C1057 H1073 0.960 . S
H1058 C1042 0.931 . S
H1059 C1047 0.929 . S
H1060 C1048 0.955 1_565 S
H1061 C1048 0.956 1_565 S
H1062 C1048 0.967 . S
H1063 C1049 0.961 . S
H1064 C1049 0.961 1_565 S
H1065 C1049 0.961 . S
H1066 C1050 0.931 . S
H1067 C1055 0.930 . S
H1068 C1056 0.956 . S
H1069 C1056 0.979 . S
H1070 C1056 0.961 . S
H1071 C1057 0.958 . S
H1072 C1057 0.961 . S
H1073 C1057 0.960 . S
C1074 C1075 1.391 . S
C1074 C1076 1.394 . S
C1074 H1090 0.931 . S
C1075 C1074 1.391 . S
C1075 C1079 1.376 . S
C1076 C1074 1.394 . S
C1076 C1077 1.369 . S
C1076 C1080 1.531 . S
C1077 C1076 1.369 . S
C1077 C1078 1.410 . S
C1077 C1085 1.503 . S
C1078 C1077 1.410 . S
C1078 C1079 1.392 . S
C1078 C1081 1.511 . S
C1079 C1075 1.376 . S
C1079 C1078 1.392 . S
C1079 H1091 0.929 . S
C1080 C1076 1.531 . S
C1080 H1092 0.960 . S
C1080 H1093 0.962 . S
C1080 H1094 0.960 . S
C1081 C1078 1.511 . S
C1081 H1095 0.961 . S
C1081 H1096 0.961 . S
C1081 H1097 0.961 . S
C1082 C1083 1.370 . S
C1082 C1084 1.363 . S
C1082 H1098 0.931 . S
C1083 C1082 1.370 . S
C1083 C1087 1.408 . S
C1084 C1082 1.363 . S
C1084 C1085 1.370 . S
C1084 C1088 1.524 . S
C1085 C1077 1.503 . S
C1085 C1084 1.370 . S
C1085 C1086 1.403 . S
C1086 C1085 1.403 . S
C1086 C1087 1.404 . S
C1086 C1089 1.539 . S
C1087 C1083 1.408 . S
C1087 C1086 1.404 . S
C1087 H1099 0.930 . S
C1088 C1084 1.524 . S
C1088 H1100 0.956 . S
C1088 H1101 0.961 . S
C1088 H1102 0.961 . S
C1089 C1086 1.539 . S
C1089 H1103 0.958 . S
C1089 H1104 0.961 . S
C1089 H1105 0.960 . S
H1090 C1074 0.931 . S
H1091 C1079 0.929 . S
H1092 C1080 0.960 . S
H1093 C1080 0.962 . S
H1094 C1080 0.960 . S
H1095 C1081 0.961 . S
H1096 C1081 0.961 . S
H1097 C1081 0.961 . S
H1098 C1082 0.931 . S
H1099 C1087 0.930 . S
H1100 C1088 0.956 . S
H1101 C1088 0.961 . S
H1102 C1088 0.961 . S
H1103 C1089 0.958 . S
H1104 C1089 0.961 . S
H1105 C1089 0.960 . S
C1106 C1107 1.391 . S
C1106 C1108 1.394 . S
C1106 H1122 0.931 . S
C1107 C1106 1.391 . S
C1107 C1111 1.376 . S
C1108 C1106 1.394 . S
C1108 C1109 1.369 . S
C1108 C1112 1.531 . S
C1109 C1108 1.369 . S
C1109 C1110 1.410 . S
C1109 C1117 1.503 . S
C1110 C1109 1.410 . S
C1110 C1111 1.392 . S
C1110 C1113 1.511 . S
C1111 C1107 1.376 . S
C1111 C1110 1.392 . S
C1111 H1123 0.929 . S
C1112 C1108 1.531 . S
C1112 H1124 0.960 . S
C1112 H1125 0.962 . S
C1112 H1126 0.960 . S
C1113 C1110 1.511 . S
C1113 H1127 0.961 . S
C1113 H1128 0.961 . S
C1113 H1129 0.961 . S
C1114 C1115 1.370 . S
C1114 C1116 1.363 . S
C1114 H1130 0.931 . S
C1115 C1114 1.370 . S
C1115 C1119 1.408 . S
C1116 C1114 1.363 . S
C1116 C1117 1.370 . S
C1116 C1120 1.524 . S
C1117 C1109 1.503 . S
C1117 C1116 1.370 . S
C1117 C1118 1.403 . S
C1118 C1117 1.403 . S
C1118 C1119 1.404 . S
C1118 C1121 1.539 . S
C1119 C1115 1.408 . S
C1119 C1118 1.404 . S
C1119 H1131 0.930 . S
C1120 C1116 1.524 . S
C1120 H1132 0.956 . S
C1120 H1133 0.961 . S
C1120 H1134 0.961 . S
C1121 C1118 1.539 . S
C1121 H1135 0.958 . S
C1121 H1136 0.961 . S
C1121 H1137 0.960 . S
H1122 C1106 0.931 . S
H1123 C1111 0.929 . S
H1124 C1112 0.960 . S
H1125 C1112 0.962 . S
H1126 C1112 0.960 . S
H1127 C1113 0.961 . S
H1128 C1113 0.961 . S
H1129 C1113 0.961 . S
H1130 C1114 0.931 . S
H1131 C1119 0.930 . S
H1132 C1120 0.956 . S
H1133 C1120 0.961 . S
H1134 C1120 0.961 . S
H1135 C1121 0.958 . S
H1136 C1121 0.961 . S
H1137 C1121 0.960 . S
C1138 C1139 1.391 . S
C1138 C1140 1.394 . S
C1138 H1154 0.931 . S
C1139 C1138 1.391 . S
C1139 C1143 1.376 . S
C1140 C1138 1.394 . S
C1140 C1141 1.369 . S
C1140 C1144 1.531 . S
C1141 C1140 1.369 . S
C1141 C1142 1.410 . S
C1141 C1149 1.503 . S
C1142 C1141 1.410 . S
C1142 C1143 1.392 . S
C1142 C1145 1.511 . S
C1143 C1139 1.376 . S
C1143 C1142 1.392 . S
C1143 H1155 0.929 . S
C1144 C1140 1.531 . S
C1144 H1156 0.960 . S
C1144 H1157 0.962 . S
C1144 H1158 0.960 . S
C1145 C1142 1.511 . S
C1145 H1159 0.961 . S
C1145 H1160 0.961 . S
C1145 H1161 0.961 . S
C1146 C1147 1.370 . S
C1146 C1148 1.363 . S
C1146 H1162 0.931 . S
C1147 C1146 1.370 . S
C1147 C1151 1.408 . S
C1148 C1146 1.363 . S
C1148 C1149 1.370 . S
C1148 C1152 1.524 . S
C1149 C1141 1.503 . S
C1149 C1148 1.370 . S
C1149 C1150 1.403 . S
C1150 C1149 1.403 . S
C1150 C1151 1.404 . S
C1150 C1153 1.539 . S
C1151 C1147 1.408 . S
C1151 C1150 1.404 . S
C1151 H1163 0.930 . S
C1152 C1148 1.524 . S
C1152 H1164 0.956 . S
C1152 H1165 0.961 . S
C1152 H1166 0.961 . S
C1153 C1150 1.539 . S
C1153 H1167 0.958 . S
C1153 H1168 0.961 . S
C1153 H1169 0.960 . S
H1154 C1138 0.931 . S
H1155 C1143 0.929 . S
H1156 C1144 0.960 . S
H1157 C1144 0.962 . S
H1158 C1144 0.960 . S
H1159 C1145 0.961 . S
H1160 C1145 0.961 . S
H1161 C1145 0.961 . S
H1162 C1146 0.931 . S
H1163 C1151 0.930 . S
H1164 C1152 0.956 . S
H1165 C1152 0.961 . S
H1166 C1152 0.961 . S
H1167 C1153 0.958 . S
H1168 C1153 0.961 . S
H1169 C1153 0.960 . S
C1170 C1171 1.391 . S
C1170 C1172 1.394 . S
C1170 H1186 0.931 . S
C1171 C1170 1.391 . S
C1171 C1175 1.376 . S
C1172 C1170 1.394 . S
C1172 C1173 1.369 . S
C1172 C1176 1.531 . S
C1173 C1172 1.369 . S
C1173 C1174 1.410 . S
C1173 C1181 1.503 . S
C1174 C1173 1.410 . S
C1174 C1175 1.392 . S
C1174 C1177 1.511 . S
C1175 C1171 1.376 . S
C1175 C1174 1.392 . S
C1175 H1187 0.929 . S
C1176 C1172 1.531 . S
C1176 H1188 0.960 . S
C1176 H1189 0.962 . S
C1176 H1190 0.960 . S
C1177 C1174 1.511 . S
C1177 H1191 0.961 . S
C1177 H1192 0.961 . S
C1177 H1193 0.961 . S
C1178 C1179 1.370 . S
C1178 C1180 1.363 . S
C1178 H1194 0.931 . S
C1179 C1178 1.370 . S
C1179 C1183 1.408 . S
C1180 C1178 1.363 . S
C1180 C1181 1.370 . S
C1180 C1184 1.524 . S
C1181 C1173 1.503 . S
C1181 C1180 1.370 . S
C1181 C1182 1.403 . S
C1182 C1181 1.403 . S
C1182 C1183 1.404 . S
C1182 C1185 1.539 . S
C1183 C1179 1.408 . S
C1183 C1182 1.404 . S
C1183 H1195 0.930 . S
C1184 C1180 1.524 . S
C1184 H1196 0.956 . S
C1184 H1197 0.961 . S
C1184 H1198 0.961 . S
C1185 C1182 1.539 . S
C1185 H1199 0.958 . S
C1185 H1200 0.961 . S
C1185 H1201 0.960 . S
H1186 C1170 0.931 . S
H1187 C1175 0.929 . S
H1188 C1176 0.960 . S
H1189 C1176 0.962 . S
H1190 C1176 0.960 . S
H1191 C1177 0.961 . S
H1192 C1177 0.961 . S
H1193 C1177 0.961 . S
H1194 C1178 0.931 . S
H1195 C1183 0.930 . S
H1196 C1184 0.956 . S
H1197 C1184 0.961 . S
H1198 C1184 0.961 . S
H1199 C1185 0.958 . S
H1200 C1185 0.961 . S
H1201 C1185 0.960 . S
C1202 C1203 1.391 . S
C1202 C1204 1.394 . S
C1202 H1218 0.931 . S
C1203 C1202 1.391 . S
C1203 C1207 1.376 . S
C1204 C1202 1.394 . S
C1204 C1205 1.369 . S
C1204 C1208 1.531 . S
C1205 C1204 1.369 . S
C1205 C1206 1.410 . S
C1205 C1213 1.503 . S
C1206 C1205 1.410 . S
C1206 C1207 1.392 . S
C1206 C1209 1.511 . S
C1207 C1203 1.376 . S
C1207 C1206 1.392 . S
C1207 H1219 0.929 . S
C1208 C1204 1.531 . S
C1208 H1220 0.960 . S
C1208 H1221 0.962 . S
C1208 H1222 0.960 . S
C1209 C1206 1.511 . S
C1209 H1223 0.961 . S
C1209 H1224 0.961 . S
C1209 H1225 0.961 . S
C1210 C1211 1.370 . S
C1210 C1212 1.363 . S
C1210 H1226 0.931 . S
C1211 C1210 1.370 . S
C1211 C1215 1.408 . S
C1212 C1210 1.363 . S
C1212 C1213 1.370 . S
C1212 C1216 1.524 . S
C1213 C1205 1.503 . S
C1213 C1212 1.370 . S
C1213 C1214 1.403 . S
C1214 C1213 1.403 . S
C1214 C1215 1.404 . S
C1214 C1217 1.539 . S
C1215 C1211 1.408 . S
C1215 C1214 1.404 . S
C1215 H1227 0.930 . S
C1216 C1212 1.524 . S
C1216 H1228 0.956 . S
C1216 H1229 0.961 . S
C1216 H1230 0.961 . S
C1217 C1214 1.539 . S
C1217 H1231 0.958 . S
C1217 H1232 0.961 . S
C1217 H1233 0.960 . S
H1218 C1202 0.931 . S
H1219 C1207 0.929 . S
H1220 C1208 0.960 . S
H1221 C1208 0.962 . S
H1222 C1208 0.960 . S
H1223 C1209 0.961 . S
H1224 C1209 0.961 . S
H1225 C1209 0.961 . S
H1226 C1210 0.931 . S
H1227 C1215 0.930 . S
H1228 C1216 0.956 . S
H1229 C1216 0.961 . S
H1230 C1216 0.961 . S
H1231 C1217 0.958 . S
H1232 C1217 0.961 . S
H1233 C1217 0.960 . S
C1234 C1235 1.391 . S
C1234 C1236 1.394 . S
C1234 H1250 0.931 . S
C1235 C1234 1.391 . S
C1235 C1239 1.376 . S
C1236 C1234 1.394 . S
C1236 C1237 1.369 . S
C1236 C1240 1.531 . S
C1237 C1236 1.369 . S
C1237 C1238 1.410 . S
C1237 C1245 1.503 . S
C1238 C1237 1.410 . S
C1238 C1239 1.392 . S
C1238 C1241 1.511 . S
C1239 C1235 1.376 . S
C1239 C1238 1.392 . S
C1239 H1251 0.929 . S
C1240 C1236 1.531 . S
C1240 H1252 0.960 . S
C1240 H1253 0.962 . S
C1240 H1254 0.960 . S
C1241 C1238 1.511 . S
C1241 H1255 0.961 . S
C1241 H1256 0.961 . S
C1241 H1257 0.961 . S
C1242 C1243 1.370 . S
C1242 C1244 1.363 . S
C1242 H1258 0.931 . S
C1243 C1242 1.370 . S
C1243 C1247 1.408 . S
C1244 C1242 1.363 . S
C1244 C1245 1.370 . S
C1244 C1248 1.524 . S
C1245 C1237 1.503 . S
C1245 C1244 1.370 . S
C1245 C1246 1.403 . S
C1246 C1245 1.403 . S
C1246 C1247 1.404 . S
C1246 C1249 1.539 . S
C1247 C1243 1.408 . S
C1247 C1246 1.404 . S
C1247 H1259 0.930 . S
C1248 C1244 1.524 . S
C1248 H1260 0.956 . S
C1248 H1261 0.961 . S
C1248 H1262 0.961 . S
C1249 C1246 1.539 . S
C1249 H1263 0.958 . S
C1249 H1264 0.961 . S
C1249 H1265 0.960 . S
H1250 C1234 0.931 . S
H1251 C1239 0.929 . S
H1252 C1240 0.960 . S
H1253 C1240 0.962 . S
H1254 C1240 0.960 . S
H1255 C1241 0.961 . S
H1256 C1241 0.961 . S
H1257 C1241 0.961 . S
H1258 C1242 0.931 . S
H1259 C1247 0.930 . S
H1260 C1248 0.956 . S
H1261 C1248 0.961 . S
H1262 C1248 0.961 . S
H1263 C1249 0.958 . S
H1264 C1249 0.961 . S
H1265 C1249 0.960 . S
C1266 C1267 1.391 . S
C1266 C1268 1.394 . S
C1266 H1282 0.931 . S
C1267 C1266 1.391 . S
C1267 C1271 1.376 . S
C1268 C1266 1.394 . S
C1268 C1269 1.369 . S
C1268 C1272 1.531 . S
C1269 C1268 1.369 . S
C1269 C1270 1.410 . S
C1269 C1277 1.503 1_545 S
C1270 C1269 1.410 . S
C1270 C1271 1.392 . S
C1270 C1273 1.511 . S
C1271 C1267 1.376 . S
C1271 C1270 1.392 . S
C1271 H1283 0.929 . S
C1272 C1268 1.531 . S
C1272 H1284 0.960 . S
C1272 H1285 0.962 . S
C1272 H1286 0.960 . S
C1273 C1270 1.511 . S
C1273 H1287 0.961 . S
C1273 H1288 0.993 . S
C1273 H1289 0.961 . S
C1274 C1275 1.370 . S
C1274 C1276 1.363 . S
C1274 H1290 0.931 . S
C1275 C1274 1.370 . S
C1275 C1279 1.408 . S
C1276 C1274 1.363 . S
C1276 C1277 1.370 . S
C1276 C1280 1.524 . S
C1277 C1269 1.503 1_565 S
C1277 C1276 1.370 . S
C1277 C1278 1.403 . S
C1278 C1277 1.403 . S
C1278 C1279 1.404 . S
C1278 C1281 1.539 1_565 S
C1279 C1275 1.408 . S
C1279 C1278 1.404 . S
C1279 H1291 0.930 . S
C1280 C1276 1.524 . S
C1280 H1292 0.956 . S
C1280 H1293 0.961 . S
C1280 H1294 0.961 . S
C1281 C1278 1.539 1_545 S
C1281 H1295 0.958 . S
C1281 H1296 0.959 . S
C1281 H1297 0.960 . S
H1282 C1266 0.931 . S
H1283 C1271 0.929 . S
H1284 C1272 0.960 . S
H1285 C1272 0.962 . S
H1286 C1272 0.960 . S
H1287 C1273 0.961 . S
H1288 C1273 0.993 . S
H1289 C1273 0.961 . S
H1290 C1274 0.931 . S
H1291 C1279 0.930 . S
H1292 C1280 0.956 . S
H1293 C1280 0.961 . S
H1294 C1280 0.961 . S
H1295 C1281 0.958 . S
H1296 C1281 0.959 . S
H1297 C1281 0.960 . S
C1298 C1299 1.391 . S
C1298 C1300 1.386 1_655 S
C1298 H1314 0.931 . S
C1299 C1298 1.391 . S
C1299 C1303 1.376 . S
C1300 C1298 1.386 1_455 S
C1300 C1301 1.359 . S
C1300 C1304 1.535 . S
C1301 C1300 1.359 . S
C1301 C1302 1.391 1_455 S
C1301 C1309 1.534 . S
C1302 C1301 1.391 1_655 S
C1302 C1303 1.392 . S
C1302 C1305 1.511 . S
C1303 C1299 1.376 . S
C1303 C1302 1.392 . S
C1303 H1315 0.929 . S
C1304 C1300 1.535 . S
C1304 H1316 0.960 . S
C1304 H1317 0.962 . S
C1304 H1318 0.960 . S
C1305 C1302 1.511 . S
C1305 H1319 0.961 . S
C1305 H1320 0.961 . S
C1305 H1321 0.961 . S
C1306 C1307 1.370 . S
C1306 C1308 1.363 . S
C1306 H1322 0.931 . S
C1307 C1306 1.370 . S
C1307 C1311 1.408 . S
C1308 C1306 1.363 . S
C1308 C1309 1.370 . S
C1308 C1312 1.524 . S
C1309 C1301 1.534 . S
C1309 C1308 1.370 . S
C1309 C1310 1.403 . S
C1310 C1309 1.403 . S
C1310 C1311 1.404 . S
C1310 C1313 1.539 . S
C1311 C1307 1.408 . S
C1311 C1310 1.404 . S
C1311 H1323 0.930 . S
C1312 C1308 1.524 . S
C1312 H1324 0.956 . S
C1312 H1325 0.961 . S
C1312 H1326 0.961 . S
C1313 C1310 1.539 . S
C1313 H1327 0.958 . S
C1313 H1328 0.961 . S
C1313 H1329 0.960 . S
H1314 C1298 0.931 . S
H1315 C1303 0.929 . S
H1316 C1304 0.960 . S
H1317 C1304 0.962 . S
H1318 C1304 0.960 . S
H1319 C1305 0.961 . S
H1320 C1305 0.961 . S
H1321 C1305 0.961 . S
H1322 C1306 0.931 . S
H1323 C1311 0.930 . S
H1324 C1312 0.956 . S
H1325 C1312 0.961 . S
H1326 C1312 0.961 . S
H1327 C1313 0.958 . S
H1328 C1313 0.961 . S
H1329 C1313 0.960 . S
C1330 C1331 1.391 . S
C1330 C1332 1.394 . S
C1330 H1346 0.931 . S
C1331 C1330 1.391 . S
C1331 C1335 1.376 . S
C1332 C1330 1.394 . S
C1332 C1333 1.369 . S
C1332 C1336 1.531 . S
C1333 C1332 1.369 . S
C1333 C1334 1.410 . S
C1333 C1341 1.503 . S
C1334 C1333 1.410 . S
C1334 C1335 1.392 . S
C1334 C1337 1.511 . S
C1335 C1331 1.376 . S
C1335 C1334 1.392 . S
C1335 H1347 0.929 . S
C1336 C1332 1.531 . S
C1336 H1348 0.960 . S
C1336 H1349 0.962 . S
C1336 H1350 0.960 . S
C1337 C1334 1.511 . S
C1337 H1351 0.961 . S
C1337 H1352 0.961 . S
C1337 H1353 0.961 . S
C1338 C1339 1.370 . S
C1338 C1340 1.363 . S
C1338 H1354 0.931 . S
C1339 C1338 1.370 . S
C1339 C1343 1.408 . S
C1340 C1338 1.363 . S
C1340 C1341 1.370 . S
C1340 C1344 1.524 . S
C1341 C1333 1.503 . S
C1341 C1340 1.370 . S
C1341 C1342 1.403 . S
C1342 C1341 1.403 . S
C1342 C1343 1.404 . S
C1342 C1345 1.539 . S
C1343 C1339 1.408 . S
C1343 C1342 1.404 . S
C1343 H1355 0.930 . S
C1344 C1340 1.524 . S
C1344 H1356 0.956 . S
C1344 H1357 0.961 . S
C1344 H1358 0.961 . S
C1345 C1342 1.539 . S
C1345 H1359 0.958 . S
C1345 H1360 0.961 . S
C1345 H1361 0.960 . S
H1346 C1330 0.931 . S
H1347 C1335 0.929 . S
H1348 C1336 0.960 . S
H1349 C1336 0.962 . S
H1350 C1336 0.960 . S
H1351 C1337 0.961 . S
H1352 C1337 0.961 . S
H1353 C1337 0.961 . S
H1354 C1338 0.931 . S
H1355 C1343 0.930 . S
H1356 C1344 0.956 . S
H1357 C1344 0.961 . S
H1358 C1344 0.961 . S
H1359 C1345 0.958 . S
H1360 C1345 0.961 . S
H1361 C1345 0.960 . S
C1362 C1363 1.391 . S
C1362 C1364 1.394 . S
C1362 H1378 0.931 . S
C1363 C1362 1.391 . S
C1363 C1367 1.376 . S
C1364 C1362 1.394 . S
C1364 C1365 1.369 . S
C1364 C1368 1.531 . S
C1365 C1364 1.369 . S
C1365 C1366 1.410 . S
C1365 C1373 1.503 . S
C1366 C1365 1.410 . S
C1366 C1367 1.392 . S
C1366 C1369 1.511 . S
C1367 C1363 1.376 . S
C1367 C1366 1.392 . S
C1367 H1379 0.929 . S
C1368 C1364 1.531 . S
C1368 H1380 0.960 . S
C1368 H1381 0.962 . S
C1368 H1382 0.960 . S
C1369 C1366 1.511 . S
C1369 H1383 0.961 . S
C1369 H1384 0.961 . S
C1369 H1385 0.961 . S
C1370 C1371 1.370 . S
C1370 C1372 1.363 . S
C1370 H1386 0.931 . S
C1371 C1370 1.370 . S
C1371 C1375 1.408 . S
C1372 C1370 1.363 . S
C1372 C1373 1.370 . S
C1372 C1376 1.524 . S
C1373 C1365 1.503 . S
C1373 C1372 1.370 . S
C1373 C1374 1.403 . S
C1374 C1373 1.403 . S
C1374 C1375 1.404 . S
C1374 C1377 1.539 . S
C1375 C1371 1.408 . S
C1375 C1374 1.404 . S
C1375 H1387 0.930 . S
C1376 C1372 1.524 . S
C1376 H1388 0.956 . S
C1376 H1389 0.961 . S
C1376 H1390 0.961 . S
C1377 C1374 1.539 . S
C1377 H1391 0.958 . S
C1377 H1392 0.961 . S
C1377 H1393 0.960 . S
H1378 C1362 0.931 . S
H1379 C1367 0.929 . S
H1380 C1368 0.960 . S
H1381 C1368 0.962 . S
H1382 C1368 0.960 . S
H1383 C1369 0.961 . S
H1384 C1369 0.961 . S
H1385 C1369 0.961 . S
H1386 C1370 0.931 . S
H1387 C1375 0.930 . S
H1388 C1376 0.956 . S
H1389 C1376 0.961 . S
H1390 C1376 0.961 . S
H1391 C1377 0.958 . S
H1392 C1377 0.961 . S
H1393 C1377 0.960 . S
C1394 C1395 1.391 . S
C1394 C1396 1.394 . S
C1394 H1410 0.931 . S
C1395 C1394 1.391 . S
C1395 C1399 1.376 . S
C1396 C1394 1.394 . S
C1396 C1397 1.369 . S
C1396 C1400 1.531 . S
C1397 C1396 1.369 . S
C1397 C1398 1.410 . S
C1397 C1405 1.503 . S
C1398 C1397 1.410 . S
C1398 C1399 1.392 . S
C1398 C1401 1.511 . S
C1399 C1395 1.376 . S
C1399 C1398 1.392 . S
C1399 H1411 0.929 . S
C1400 C1396 1.531 . S
C1400 H1412 0.960 . S
C1400 H1413 0.962 . S
C1400 H1414 0.960 . S
C1401 C1398 1.511 . S
C1401 H1415 0.961 . S
C1401 H1416 0.961 . S
C1401 H1417 0.961 . S
C1402 C1403 1.370 . S
C1402 C1404 1.363 . S
C1402 H1418 0.931 . S
C1403 C1402 1.370 . S
C1403 C1407 1.408 . S
C1404 C1402 1.363 . S
C1404 C1405 1.370 . S
C1404 C1408 1.524 . S
C1405 C1397 1.503 . S
C1405 C1404 1.370 . S
C1405 C1406 1.403 . S
C1406 C1405 1.403 . S
C1406 C1407 1.404 . S
C1406 C1409 1.539 . S
C1407 C1403 1.408 . S
C1407 C1406 1.404 . S
C1407 H1419 0.930 . S
C1408 C1404 1.524 . S
C1408 H1420 0.956 . S
C1408 H1421 0.961 . S
C1408 H1422 0.961 . S
C1409 C1406 1.539 . S
C1409 H1423 0.958 . S
C1409 H1424 0.961 . S
C1409 H1425 0.960 . S
H1410 C1394 0.931 . S
H1411 C1399 0.929 . S
H1412 C1400 0.960 . S
H1413 C1400 0.962 . S
H1414 C1400 0.960 . S
H1415 C1401 0.961 . S
H1416 C1401 0.961 . S
H1417 C1401 0.961 . S
H1418 C1402 0.931 . S
H1419 C1407 0.930 . S
H1420 C1408 0.956 . S
H1421 C1408 0.961 . S
H1422 C1408 0.961 . S
H1423 C1409 0.958 . S
H1424 C1409 0.961 . S
H1425 C1409 0.960 . S
C1426 C1427 1.391 . S
C1426 C1428 1.394 . S
C1426 H1442 0.931 . S
C1427 C1426 1.391 . S
C1427 C1431 1.376 . S
C1428 C1426 1.394 . S
C1428 C1429 1.369 . S
C1428 C1432 1.531 . S
C1429 C1428 1.369 . S
C1429 C1430 1.410 . S
C1429 C1437 1.503 . S
C1430 C1429 1.410 . S
C1430 C1431 1.392 . S
C1430 C1433 1.511 . S
C1431 C1427 1.376 . S
C1431 C1430 1.392 . S
C1431 H1443 0.929 . S
C1432 C1428 1.531 . S
C1432 H1444 0.960 . S
C1432 H1445 0.962 . S
C1432 H1446 0.960 . S
C1433 C1430 1.511 . S
C1433 H1447 0.961 . S
C1433 H1448 0.961 . S
C1433 H1449 0.961 . S
C1434 C1435 1.370 . S
C1434 C1436 1.363 . S
C1434 H1450 0.931 . S
C1435 C1434 1.370 . S
C1435 C1439 1.408 . S
C1436 C1434 1.363 . S
C1436 C1437 1.370 . S
C1436 C1440 1.524 . S
C1437 C1429 1.503 . S
C1437 C1436 1.370 . S
C1437 C1438 1.403 . S
C1438 C1437 1.403 . S
C1438 C1439 1.404 . S
C1438 C1441 1.539 . S
C1439 C1435 1.408 . S
C1439 C1438 1.404 . S
C1439 H1451 0.930 . S
C1440 C1436 1.524 . S
C1440 H1452 0.956 . S
C1440 H1453 0.961 . S
C1440 H1454 0.961 . S
C1441 C1438 1.539 . S
C1441 H1455 0.958 . S
C1441 H1456 0.961 . S
C1441 H1457 0.960 . S
H1442 C1426 0.931 . S
H1443 C1431 0.929 . S
H1444 C1432 0.960 . S
H1445 C1432 0.962 . S
H1446 C1432 0.960 . S
H1447 C1433 0.961 . S
H1448 C1433 0.961 . S
H1449 C1433 0.961 . S
H1450 C1434 0.931 . S
H1451 C1439 0.930 . S
H1452 C1440 0.956 . S
H1453 C1440 0.961 . S
H1454 C1440 0.961 . S
H1455 C1441 0.958 . S
H1456 C1441 0.961 . S
H1457 C1441 0.960 . S
C1458 C1459 1.391 . S
C1458 C1460 1.394 . S
C1458 H1474 0.931 . S
C1459 C1458 1.391 . S
C1459 C1463 1.376 . S
C1460 C1458 1.394 . S
C1460 C1461 1.369 . S
C1460 C1464 1.531 . S
C1461 C1460 1.369 . S
C1461 C1462 1.411 . S
C1461 C1469 1.502 1_565 S
C1462 C1461 1.411 . S
C1462 C1463 1.392 . S
C1462 C1465 1.511 1_565 S
C1463 C1459 1.376 . S
C1463 C1462 1.392 . S
C1463 H1475 0.929 . S
C1464 C1460 1.531 . S
C1464 H1476 0.960 1_565 S
C1464 H1477 0.962 1_565 S
C1464 H1478 0.960 . S
C1465 C1462 1.511 1_545 S
C1465 H1479 0.961 1_545 S
C1465 H1480 0.961 . S
C1465 H1481 0.961 . S
C1466 C1467 1.370 . S
C1466 C1468 1.363 . S
C1466 H1482 0.931 . S
C1467 C1466 1.370 . S
C1467 C1471 1.408 . S
C1468 C1466 1.363 . S
C1468 C1469 1.370 . S
C1468 C1472 1.524 . S
C1469 C1461 1.502 1_545 S
C1469 C1468 1.370 . S
C1469 C1470 1.403 . S
C1470 C1469 1.403 . S
C1470 C1471 1.404 . S
C1470 C1473 1.539 . S
C1471 C1467 1.408 . S
C1471 C1470 1.404 . S
C1471 H1483 0.930 . S
C1472 C1468 1.524 . S
C1472 H1484 0.956 . S
C1472 H1485 0.961 . S
C1472 H1486 0.961 . S
C1473 C1470 1.539 . S
C1473 H1487 0.958 . S
C1473 H1488 0.961 . S
C1473 H1489 0.960 . S
H1474 C1458 0.931 . S
H1475 C1463 0.929 . S
H1476 C1464 0.960 1_545 S
H1477 C1464 0.962 1_545 S
H1478 C1464 0.960 . S
H1479 C1465 0.961 1_565 S
H1480 C1465 0.961 . S
H1481 C1465 0.961 . S
H1482 C1466 0.931 . S
H1483 C1471 0.930 . S
H1484 C1472 0.956 . S
H1485 C1472 0.961 . S
H1486 C1472 0.961 . S
H1487 C1473 0.958 . S
H1488 C1473 0.961 . S
H1489 C1473 0.960 . S
C1490 C1491 1.391 . S
C1490 C1492 1.394 . S
C1490 H1506 0.931 . S
C1491 C1490 1.391 . S
C1491 C1495 1.376 . S
C1492 C1490 1.394 . S
C1492 C1493 1.369 1_455 S
C1492 C1496 1.531 . S
C1493 C1492 1.369 1_655 S
C1493 C1494 1.409 1_655 S
C1493 C1501 1.503 . S
C1494 C1493 1.409 1_455 S
C1494 C1495 1.399 . S
C1494 C1497 1.505 1_455 S
C1495 C1491 1.376 . S
C1495 C1494 1.399 . S
C1495 H1507 0.929 . S
C1496 C1492 1.531 . S
C1496 H1508 0.941 1_455 S
C1496 H1509 0.959 1_455 S
C1496 H1510 0.983 . S
C1497 C1494 1.505 1_655 S
C1497 H1511 0.961 . S
C1497 H1512 0.961 . S
C1497 H1513 0.961 . S
C1498 C1499 1.370 . S
C1498 C1500 1.363 . S
C1498 H1514 0.931 . S
C1499 C1498 1.370 . S
C1499 C1503 1.408 . S
C1500 C1498 1.363 . S
C1500 C1501 1.370 . S
C1500 C1504 1.524 . S
C1501 C1493 1.503 . S
C1501 C1500 1.370 . S
C1501 C1502 1.403 . S
C1502 C1501 1.403 . S
C1502 C1503 1.404 . S
C1502 C1505 1.539 . S
C1503 C1499 1.408 . S
C1503 C1502 1.404 . S
C1503 H1515 0.930 . S
C1504 C1500 1.524 . S
C1504 H1516 0.956 . S
C1504 H1517 0.961 . S
C1504 H1518 0.961 . S
C1505 C1502 1.539 . S
C1505 H1519 0.958 . S
C1505 H1520 0.961 . S
C1505 H1521 0.948 1_655 S
H1506 C1490 0.931 . S
H1507 C1495 0.929 . S
H1508 C1496 0.941 1_655 S
H1509 C1496 0.959 1_655 S
H1510 C1496 0.983 . S
H1511 C1497 0.961 . S
H1512 C1497 0.961 . S
H1513 C1497 0.961 . S
H1514 C1498 0.931 . S
H1515 C1503 0.930 . S
H1516 C1504 0.956 . S
H1517 C1504 0.961 . S
H1518 C1504 0.961 . S
H1519 C1505 0.958 . S
H1520 C1505 0.961 . S
H1521 C1505 0.948 1_455 S
C1522 C1523 1.391 . S
C1522 C1524 1.394 . S
C1522 H1538 0.931 . S
C1523 C1522 1.391 . S
C1523 C1527 1.376 . S
C1524 C1522 1.394 . S
C1524 C1525 1.369 . S
C1524 C1528 1.531 . S
C1525 C1524 1.369 . S
C1525 C1526 1.410 . S
C1525 C1533 1.503 . S
C1526 C1525 1.410 . S
C1526 C1527 1.392 . S
C1526 C1529 1.511 . S
C1527 C1523 1.376 . S
C1527 C1526 1.392 . S
C1527 H1539 0.929 . S
C1528 C1524 1.531 . S
C1528 H1540 0.960 . S
C1528 H1541 0.962 . S
C1528 H1542 0.960 . S
C1529 C1526 1.511 . S
C1529 H1543 0.961 . S
C1529 H1544 0.961 . S
C1529 H1545 0.961 . S
C1530 C1531 1.370 . S
C1530 C1532 1.363 . S
C1530 H1546 0.931 . S
C1531 C1530 1.370 . S
C1531 C1535 1.408 . S
C1532 C1530 1.363 . S
C1532 C1533 1.370 . S
C1532 C1536 1.524 . S
C1533 C1525 1.503 . S
C1533 C1532 1.370 . S
C1533 C1534 1.403 . S
C1534 C1533 1.403 . S
C1534 C1535 1.404 . S
C1534 C1537 1.539 . S
C1535 C1531 1.408 . S
C1535 C1534 1.404 . S
C1535 H1547 0.930 . S
C1536 C1532 1.524 . S
C1536 H1548 0.956 . S
C1536 H1549 0.961 . S
C1536 H1550 0.961 . S
C1537 C1534 1.539 . S
C1537 H1551 0.958 . S
C1537 H1552 0.961 . S
C1537 H1553 0.960 . S
H1538 C1522 0.931 . S
H1539 C1527 0.929 . S
H1540 C1528 0.960 . S
H1541 C1528 0.962 . S
H1542 C1528 0.960 . S
H1543 C1529 0.961 . S
H1544 C1529 0.961 . S
H1545 C1529 0.961 . S
H1546 C1530 0.931 . S
H1547 C1535 0.930 . S
H1548 C1536 0.956 . S
H1549 C1536 0.961 . S
H1550 C1536 0.961 . S
H1551 C1537 0.958 . S
H1552 C1537 0.961 . S
H1553 C1537 0.960 . S
C1554 C1555 1.391 . S
C1554 C1556 1.394 . S
C1554 H1570 0.931 . S
C1555 C1554 1.391 . S
C1555 C1559 1.376 . S
C1556 C1554 1.394 . S
C1556 C1557 1.369 . S
C1556 C1560 1.531 . S
C1557 C1556 1.369 . S
C1557 C1558 1.410 . S
C1557 C1565 1.503 . S
C1558 C1557 1.410 . S
C1558 C1559 1.392 . S
C1558 C1561 1.511 . S
C1559 C1555 1.376 . S
C1559 C1558 1.392 . S
C1559 H1571 0.929 . S
C1560 C1556 1.531 . S
C1560 H1572 0.960 . S
C1560 H1573 0.962 . S
C1560 H1574 0.960 . S
C1561 C1558 1.511 . S
C1561 H1575 0.961 . S
C1561 H1576 0.961 . S
C1561 H1577 0.961 . S
C1562 C1563 1.370 . S
C1562 C1564 1.363 . S
C1562 H1578 0.931 . S
C1563 C1562 1.370 . S
C1563 C1567 1.408 . S
C1564 C1562 1.363 . S
C1564 C1565 1.370 1_655 S
C1564 C1568 1.524 1_655 S
C1565 C1557 1.503 . S
C1565 C1564 1.370 1_455 S
C1565 C1566 1.403 1_455 S
C1566 C1565 1.403 1_655 S
C1566 C1567 1.404 . S
C1566 C1569 1.539 1_655 S
C1567 C1563 1.408 . S
C1567 C1566 1.404 . S
C1567 H1579 0.930 . S
C1568 C1564 1.524 1_455 S
C1568 H1580 0.956 . S
C1568 H1581 0.961 . S
C1568 H1582 0.961 1_455 S
C1569 C1566 1.539 1_455 S
C1569 H1583 0.958 . S
C1569 H1584 0.961 1_455 S
C1569 H1585 0.960 . S
H1570 C1554 0.931 . S
H1571 C1559 0.929 . S
H1572 C1560 0.960 . S
H1573 C1560 0.962 . S
H1574 C1560 0.960 . S
H1575 C1561 0.961 . S
H1576 C1561 0.961 . S
H1577 C1561 0.961 . S
H1578 C1562 0.931 . S
H1579 C1567 0.930 . S
H1580 C1568 0.956 . S
H1581 C1568 0.961 . S
H1582 C1568 0.961 1_655 S
H1583 C1569 0.958 . S
H1584 C1569 0.961 1_655 S
H1585 C1569 0.960 . S
C1586 C1587 1.391 . S
C1586 C1588 1.394 . S
C1586 H1602 0.931 . S
C1587 C1586 1.391 . S
C1587 C1591 1.376 . S
C1588 C1586 1.394 . S
C1588 C1589 1.369 . S
C1588 C1592 1.531 . S
C1589 C1588 1.369 . S
C1589 C1590 1.410 . S
C1589 C1597 1.503 . S
C1590 C1589 1.410 . S
C1590 C1591 1.392 . S
C1590 C1593 1.511 . S
C1591 C1587 1.376 . S
C1591 C1590 1.392 . S
C1591 H1603 0.929 . S
C1592 C1588 1.531 . S
C1592 H1604 0.960 . S
C1592 H1605 0.962 . S
C1592 H1606 0.960 . S
C1593 C1590 1.511 . S
C1593 H1607 0.961 . S
C1593 H1608 0.961 . S
C1593 H1609 0.961 . S
C1594 C1595 1.370 . S
C1594 C1596 1.363 . S
C1594 H1610 0.931 . S
C1595 C1594 1.370 . S
C1595 C1599 1.408 . S
C1596 C1594 1.363 . S
C1596 C1597 1.370 . S
C1596 C1600 1.524 . S
C1597 C1589 1.503 . S
C1597 C1596 1.370 . S
C1597 C1598 1.403 . S
C1598 C1597 1.403 . S
C1598 C1599 1.404 . S
C1598 C1601 1.539 . S
C1599 C1595 1.408 . S
C1599 C1598 1.404 . S
C1599 H1611 0.930 . S
C1600 C1596 1.524 . S
C1600 H1612 0.956 . S
C1600 H1613 0.961 . S
C1600 H1614 0.961 . S
C1601 C1598 1.539 . S
C1601 H1615 0.958 . S
C1601 H1616 0.961 . S
C1601 H1617 0.960 . S
H1602 C1586 0.931 . S
H1603 C1591 0.929 . S
H1604 C1592 0.960 . S
H1605 C1592 0.962 . S
H1606 C1592 0.960 . S
H1607 C1593 0.961 . S
H1608 C1593 0.961 . S
H1609 C1593 0.961 . S
H1610 C1594 0.931 . S
H1611 C1599 0.930 . S
H1612 C1600 0.956 . S
H1613 C1600 0.961 . S
H1614 C1600 0.961 . S
H1615 C1601 0.958 . S
H1616 C1601 0.961 . S
H1617 C1601 0.960 . S
C1618 C1619 1.391 . S
C1618 C1620 1.394 . S
C1618 H1634 0.931 . S
C1619 C1618 1.391 . S
C1619 C1623 1.376 . S
C1620 C1618 1.394 . S
C1620 C1621 1.369 . S
C1620 C1624 1.531 . S
C1621 C1620 1.369 . S
C1621 C1622 1.410 . S
C1621 C1629 1.503 1_565 S
C1622 C1621 1.410 . S
C1622 C1623 1.392 . S
C1622 C1625 1.511 . S
C1623 C1619 1.376 . S
C1623 C1622 1.392 . S
C1623 H1635 0.929 . S
C1624 C1620 1.531 . S
C1624 H1636 0.960 1_565 S
C1624 H1637 0.962 . S
C1624 H1638 0.960 . S
C1625 C1622 1.511 . S
C1625 H1639 0.961 . S
C1625 H1640 0.961 . S
C1625 H1641 0.961 . S
C1626 C1627 1.370 . S
C1626 C1628 1.363 . S
C1626 H1642 0.931 . S
C1627 C1626 1.370 . S
C1627 C1631 1.408 . S
C1628 C1626 1.363 . S
C1628 C1629 1.370 . S
C1628 C1632 1.492 1_545 S
C1629 C1621 1.503 1_545 S
C1629 C1628 1.370 . S
C1629 C1630 1.403 . S
C1630 C1629 1.403 . S
C1630 C1631 1.404 . S
C1630 C1633 1.539 . S
C1631 C1627 1.408 . S
C1631 C1630 1.404 . S
C1631 H1643 0.930 . S
C1632 C1628 1.492 1_565 S
C1632 H1644 0.987 . S
C1632 H1645 0.979 . S
C1632 H1646 0.947 1_565 S
C1633 C1630 1.539 . S
C1633 H1647 0.958 . S
C1633 H1648 0.961 . S
C1633 H1649 0.960 . S
H1634 C1618 0.931 . S
H1635 C1623 0.929 . S
H1636 C1624 0.960 1_545 S
H1637 C1624 0.962 . S
H1638 C1624 0.960 . S
H1639 C1625 0.961 . S
H1640 C1625 0.961 . S
H1641 C1625 0.961 . S
H1642 C1626 0.931 . S
H1643 C1631 0.930 . S
H1644 C1632 0.987 . S
H1645 C1632 0.979 . S
H1646 C1632 0.947 1_545 S
H1647 C1633 0.958 . S
H1648 C1633 0.961 . S
H1649 C1633 0.960 . S
C1650 C1651 1.391 . S
C1650 C1652 1.394 . S
C1650 H1666 0.931 . S
C1651 C1650 1.391 . S
C1651 C1655 1.376 . S
C1652 C1650 1.394 . S
C1652 C1653 1.369 . S
C1652 C1656 1.531 . S
C1653 C1652 1.369 . S
C1653 C1654 1.410 . S
C1653 C1661 1.503 . S
C1654 C1653 1.410 . S
C1654 C1655 1.392 . S
C1654 C1657 1.511 . S
C1655 C1651 1.376 . S
C1655 C1654 1.392 . S
C1655 H1667 0.929 . S
C1656 C1652 1.531 . S
C1656 H1668 0.960 . S
C1656 H1669 0.962 . S
C1656 H1670 0.960 . S
C1657 C1654 1.511 . S
C1657 H1671 0.961 . S
C1657 H1672 0.961 . S
C1657 H1673 0.961 . S
C1658 C1659 1.370 . S
C1658 C1660 1.363 . S
C1658 H1674 0.931 . S
C1659 C1658 1.370 . S
C1659 C1663 1.408 . S
C1660 C1658 1.363 . S
C1660 C1661 1.370 . S
C1660 C1664 1.524 . S
C1661 C1653 1.503 . S
C1661 C1660 1.370 . S
C1661 C1662 1.403 . S
C1662 C1661 1.403 . S
C1662 C1663 1.404 . S
C1662 C1665 1.539 . S
C1663 C1659 1.408 . S
C1663 C1662 1.404 . S
C1663 H1675 0.930 . S
C1664 C1660 1.524 . S
C1664 H1676 0.956 . S
C1664 H1677 0.961 . S
C1664 H1678 0.961 . S
C1665 C1662 1.539 . S
C1665 H1679 0.958 . S
C1665 H1680 0.961 . S
C1665 H1681 0.960 . S
H1666 C1650 0.931 . S
H1667 C1655 0.929 . S
H1668 C1656 0.960 . S
H1669 C1656 0.962 . S
H1670 C1656 0.960 . S
H1671 C1657 0.961 . S
H1672 C1657 0.961 . S
H1673 C1657 0.961 . S
H1674 C1658 0.931 . S
H1675 C1663 0.930 . S
H1676 C1664 0.956 . S
H1677 C1664 0.961 . S
H1678 C1664 0.961 . S
H1679 C1665 0.958 . S
H1680 C1665 0.961 . S
H1681 C1665 0.960 . S
C1682 C1683 1.391 . S
C1682 C1684 1.394 . S
C1682 H1698 0.931 . S
C1683 C1682 1.391 . S
C1683 C1687 1.376 . S
C1684 C1682 1.394 . S
C1684 C1685 1.369 . S
C1684 C1688 1.531 . S
C1685 C1684 1.369 . S
C1685 C1686 1.410 . S
C1685 C1693 1.503 . S
C1686 C1685 1.410 . S
C1686 C1687 1.392 . S
C1686 C1689 1.511 . S
C1687 C1683 1.376 . S
C1687 C1686 1.392 . S
C1687 H1699 0.929 . S
C1688 C1684 1.531 . S
C1688 H1700 0.960 . S
C1688 H1701 0.962 . S
C1688 H1702 0.960 . S
C1689 C1686 1.511 . S
C1689 H1703 0.961 . S
C1689 H1704 0.961 . S
C1689 H1705 0.961 . S
C1690 C1691 1.370 . S
C1690 C1692 1.363 . S
C1690 H1706 0.931 . S
C1691 C1690 1.370 . S
C1691 C1695 1.408 . S
C1692 C1690 1.363 . S
C1692 C1693 1.370 . S
C1692 C1696 1.524 . S
C1693 C1685 1.503 . S
C1693 C1692 1.370 . S
C1693 C1694 1.403 . S
C1694 C1693 1.403 . S
C1694 C1695 1.404 . S
C1694 C1697 1.539 . S
C1695 C1691 1.408 . S
C1695 C1694 1.404 . S
C1695 H1707 0.930 . S
C1696 C1692 1.524 . S
C1696 H1708 0.956 . S
C1696 H1709 0.961 . S
C1696 H1710 0.961 . S
C1697 C1694 1.539 . S
C1697 H1711 0.958 . S
C1697 H1712 0.961 . S
C1697 H1713 0.960 . S
H1698 C1682 0.931 . S
H1699 C1687 0.929 . S
H1700 C1688 0.960 . S
H1701 C1688 0.962 . S
H1702 C1688 0.960 . S
H1703 C1689 0.961 . S
H1704 C1689 0.961 . S
H1705 C1689 0.961 . S
H1706 C1690 0.931 . S
H1707 C1695 0.930 . S
H1708 C1696 0.956 . S
H1709 C1696 0.961 . S
H1710 C1696 0.961 . S
H1711 C1697 0.958 . S
H1712 C1697 0.961 . S
H1713 C1697 0.960 . S
C1714 C1715 1.391 . S
C1714 C1716 1.394 . S
C1714 H1730 0.931 . S
C1715 C1714 1.391 . S
C1715 C1719 1.376 . S
C1716 C1714 1.394 . S
C1716 C1717 1.369 . S
C1716 C1720 1.531 . S
C1717 C1716 1.369 . S
C1717 C1718 1.410 . S
C1717 C1725 1.503 . S
C1718 C1717 1.410 . S
C1718 C1719 1.392 . S
C1718 C1721 1.511 . S
C1719 C1715 1.376 . S
C1719 C1718 1.392 . S
C1719 H1731 0.929 . S
C1720 C1716 1.531 . S
C1720 H1732 0.960 . S
C1720 H1733 0.962 . S
C1720 H1734 0.960 . S
C1721 C1718 1.511 . S
C1721 H1735 0.961 . S
C1721 H1736 0.961 . S
C1721 H1737 0.961 . S
C1722 C1723 1.370 . S
C1722 C1724 1.363 . S
C1722 H1738 0.931 . S
C1723 C1722 1.370 . S
C1723 C1727 1.408 . S
C1724 C1722 1.363 . S
C1724 C1725 1.370 . S
C1724 C1728 1.524 . S
C1725 C1717 1.503 . S
C1725 C1724 1.370 . S
C1725 C1726 1.403 . S
C1726 C1725 1.403 . S
C1726 C1727 1.404 . S
C1726 C1729 1.539 . S
C1727 C1723 1.408 . S
C1727 C1726 1.404 . S
C1727 H1739 0.930 . S
C1728 C1724 1.524 . S
C1728 H1740 0.956 . S
C1728 H1741 0.961 . S
C1728 H1742 0.961 . S
C1729 C1726 1.539 . S
C1729 H1743 0.958 . S
C1729 H1744 0.961 . S
C1729 H1745 0.960 . S
H1730 C1714 0.931 . S
H1731 C1719 0.929 . S
H1732 C1720 0.960 . S
H1733 C1720 0.962 . S
H1734 C1720 0.960 . S
H1735 C1721 0.961 . S
H1736 C1721 0.961 . S
H1737 C1721 0.961 . S
H1738 C1722 0.931 . S
H1739 C1727 0.930 . S
H1740 C1728 0.956 . S
H1741 C1728 0.961 . S
H1742 C1728 0.961 . S
H1743 C1729 0.958 . S
H1744 C1729 0.961 . S
H1745 C1729 0.960 . S
C1746 C1747 1.391 . S
C1746 C1748 1.394 . S
C1746 H1762 0.931 . S
C1747 C1746 1.391 . S
C1747 C1751 1.376 . S
C1748 C1746 1.394 . S
C1748 C1749 1.369 . S
C1748 C1752 1.531 . S
C1749 C1748 1.369 . S
C1749 C1750 1.410 . S
C1749 C1757 1.503 . S
C1750 C1749 1.410 . S
C1750 C1751 1.392 . S
C1750 C1753 1.511 . S
C1751 C1747 1.376 . S
C1751 C1750 1.392 . S
C1751 H1763 0.929 . S
C1752 C1748 1.531 . S
C1752 H1764 0.960 . S
C1752 H1765 0.962 . S
C1752 H1766 0.960 . S
C1753 C1750 1.511 . S
C1753 H1767 0.961 . S
C1753 H1768 0.961 . S
C1753 H1769 0.961 . S
C1754 C1755 1.370 . S
C1754 C1756 1.363 . S
C1754 H1770 0.931 . S
C1755 C1754 1.370 . S
C1755 C1759 1.408 . S
C1756 C1754 1.363 . S
C1756 C1757 1.370 . S
C1756 C1760 1.524 . S
C1757 C1749 1.503 . S
C1757 C1756 1.370 . S
C1757 C1758 1.403 . S
C1758 C1757 1.403 . S
C1758 C1759 1.404 . S
C1758 C1761 1.539 . S
C1759 C1755 1.408 . S
C1759 C1758 1.404 . S
C1759 H1771 0.930 . S
C1760 C1756 1.524 . S
C1760 H1772 0.956 . S
C1760 H1773 0.961 . S
C1760 H1774 0.961 . S
C1761 C1758 1.539 . S
C1761 H1775 0.958 . S
C1761 H1776 0.961 . S
C1761 H1777 0.960 . S
H1762 C1746 0.931 . S
H1763 C1751 0.929 . S
H1764 C1752 0.960 . S
H1765 C1752 0.962 . S
H1766 C1752 0.960 . S
H1767 C1753 0.961 . S
H1768 C1753 0.961 . S
H1769 C1753 0.961 . S
H1770 C1754 0.931 . S
H1771 C1759 0.930 . S
H1772 C1760 0.956 . S
H1773 C1760 0.961 . S
H1774 C1760 0.961 . S
H1775 C1761 0.958 . S
H1776 C1761 0.961 . S
H1777 C1761 0.960 . S
C1778 C1779 1.391 . S
C1778 C1780 1.394 . S
C1778 H1794 0.931 . S
C1779 C1778 1.391 . S
C1779 C1783 1.376 . S
C1780 C1778 1.394 . S
C1780 C1781 1.369 . S
C1780 C1784 1.531 . S
C1781 C1780 1.369 . S
C1781 C1782 1.410 . S
C1781 C1789 1.503 . S
C1782 C1781 1.410 . S
C1782 C1783 1.392 . S
C1782 C1785 1.511 . S
C1783 C1779 1.376 . S
C1783 C1782 1.392 . S
C1783 H1795 0.929 . S
C1784 C1780 1.531 . S
C1784 H1796 0.960 . S
C1784 H1797 0.962 . S
C1784 H1798 0.960 . S
C1785 C1782 1.511 . S
C1785 H1799 0.961 . S
C1785 H1800 0.961 . S
C1785 H1801 0.961 . S
C1786 C1787 1.370 . S
C1786 C1788 1.363 . S
C1786 H1802 0.931 . S
C1787 C1786 1.370 . S
C1787 C1791 1.408 . S
C1788 C1786 1.363 . S
C1788 C1789 1.370 . S
C1788 C1792 1.525 . S
C1789 C1781 1.503 . S
C1789 C1788 1.370 . S
C1789 C1790 1.403 . S
C1790 C1789 1.403 . S
C1790 C1791 1.404 . S
C1790 C1793 1.539 . S
C1791 C1787 1.408 . S
C1791 C1790 1.404 . S
C1791 H1803 0.930 . S
C1792 C1788 1.525 . S
C1792 H1804 0.954 1_455 S
C1792 H1805 0.962 . S
C1792 H1806 0.960 1_455 S
C1793 C1790 1.539 . S
C1793 H1807 0.958 . S
C1793 H1808 0.961 . S
C1793 H1809 0.960 . S
H1794 C1778 0.931 . S
H1795 C1783 0.929 . S
H1796 C1784 0.960 . S
H1797 C1784 0.962 . S
H1798 C1784 0.960 . S
H1799 C1785 0.961 . S
H1800 C1785 0.961 . S
H1801 C1785 0.961 . S
H1802 C1786 0.931 . S
H1803 C1791 0.930 . S
H1804 C1792 0.954 1_655 S
H1805 C1792 0.962 . S
H1806 C1792 0.960 1_655 S
H1807 C1793 0.958 . S
H1808 C1793 0.961 . S
H1809 C1793 0.960 . S
C1810 C1811 1.391 . S
C1810 C1812 1.394 . S
C1810 H1826 0.931 . S
C1811 C1810 1.391 . S
C1811 C1815 1.376 . S
C1812 C1810 1.394 . S
C1812 C1813 1.369 . S
C1812 C1816 1.531 . S
C1813 C1812 1.369 . S
C1813 C1814 1.410 . S
C1813 C1821 1.503 . S
C1814 C1813 1.410 . S
C1814 C1815 1.392 . S
C1814 C1817 1.511 . S
C1815 C1811 1.376 . S
C1815 C1814 1.392 . S
C1815 H1827 0.929 . S
C1816 C1812 1.531 . S
C1816 H1828 0.960 . S
C1816 H1829 0.962 . S
C1816 H1830 0.960 . S
C1817 C1814 1.511 . S
C1817 H1831 0.961 . S
C1817 H1832 0.961 . S
C1817 H1833 0.961 . S
C1818 C1819 1.370 . S
C1818 C1820 1.363 . S
C1818 H1834 0.931 . S
C1819 C1818 1.370 . S
C1819 C1823 1.408 . S
C1820 C1818 1.363 . S
C1820 C1821 1.370 . S
C1820 C1824 1.524 . S
C1821 C1813 1.503 . S
C1821 C1820 1.370 . S
C1821 C1822 1.403 . S
C1822 C1821 1.403 . S
C1822 C1823 1.404 . S
C1822 C1825 1.539 . S
C1823 C1819 1.408 . S
C1823 C1822 1.404 . S
C1823 H1835 0.930 . S
C1824 C1820 1.524 . S
C1824 H1836 0.956 . S
C1824 H1837 0.961 . S
C1824 H1838 0.961 . S
C1825 C1822 1.539 . S
C1825 H1839 0.958 . S
C1825 H1840 0.961 . S
C1825 H1841 0.960 . S
H1826 C1810 0.931 . S
H1827 C1815 0.929 . S
H1828 C1816 0.960 . S
H1829 C1816 0.962 . S
H1830 C1816 0.960 . S
H1831 C1817 0.961 . S
H1832 C1817 0.961 . S
H1833 C1817 0.961 . S
H1834 C1818 0.931 . S
H1835 C1823 0.930 . S
H1836 C1824 0.956 . S
H1837 C1824 0.961 . S
H1838 C1824 0.961 . S
H1839 C1825 0.958 . S
H1840 C1825 0.961 . S
H1841 C1825 0.960 . S
C1842 C1843 1.391 . S
C1842 C1844 1.394 . S
C1842 H1858 0.931 . S
C1843 C1842 1.391 . S
C1843 C1847 1.376 . S
C1844 C1842 1.394 . S
C1844 C1845 1.369 . S
C1844 C1848 1.503 1_655 S
C1845 C1844 1.369 . S
C1845 C1846 1.410 . S
C1845 C1853 1.503 . S
C1846 C1845 1.410 . S
C1846 C1847 1.392 . S
C1846 C1849 1.511 . S
C1847 C1843 1.376 . S
C1847 C1846 1.392 . S
C1847 H1859 0.929 . S
C1848 C1844 1.503 1_455 S
C1848 H1860 0.966 . S
C1848 H1861 0.949 1_455 S
C1848 H1862 0.997 . S
C1849 C1846 1.511 . S
C1849 H1863 0.961 . S
C1849 H1864 0.961 . S
C1849 H1865 0.961 . S
C1850 C1851 1.370 . S
C1850 C1852 1.363 . S
C1850 H1866 0.931 . S
C1851 C1850 1.370 . S
C1851 C1855 1.410 . S
C1852 C1850 1.363 . S
C1852 C1853 1.370 . S
C1852 C1856 1.524 . S
C1853 C1845 1.503 . S
C1853 C1852 1.370 . S
C1853 C1854 1.413 . S
C1854 C1853 1.413 . S
C1854 C1855 1.407 . S
C1854 C1857 1.527 1_655 S
C1855 C1851 1.410 . S
C1855 C1854 1.407 . S
C1855 H1867 0.928 1_655 S
C1856 C1852 1.524 . S
C1856 H1868 0.956 . S
C1856 H1869 0.961 . S
C1856 H1870 0.961 . S
C1857 C1854 1.527 1_455 S
C1857 H1871 0.958 . S
C1857 H1872 0.961 . S
C1857 H1873 0.960 . S
H1858 C1842 0.931 . S
H1859 C1847 0.929 . S
H1860 C1848 0.966 . S
H1861 C1848 0.949 1_655 S
H1862 C1848 0.997 . S
H1863 C1849 0.961 . S
H1864 C1849 0.961 . S
H1865 C1849 0.961 . S
H1866 C1850 0.931 . S
H1867 C1855 0.928 1_455 S
H1868 C1856 0.956 . S
H1869 C1856 0.961 . S
H1870 C1856 0.961 . S
H1871 C1857 0.958 . S
H1872 C1857 0.961 . S
H1873 C1857 0.960 . S
C1874 C1875 1.391 . S
C1874 C1876 1.394 . S
C1874 H1890 0.931 . S
C1875 C1874 1.391 . S
C1875 C1879 1.376 . S
C1876 C1874 1.394 . S
C1876 C1877 1.369 . S
C1876 C1880 1.531 . S
C1877 C1876 1.369 . S
C1877 C1878 1.410 . S
C1877 C1885 1.503 . S
C1878 C1877 1.410 . S
C1878 C1879 1.392 . S
C1878 C1881 1.511 . S
C1879 C1875 1.376 . S
C1879 C1878 1.392 . S
C1879 H1891 0.929 . S
C1880 C1876 1.531 . S
C1880 H1892 0.960 . S
C1880 H1893 0.962 . S
C1880 H1894 0.960 . S
C1881 C1878 1.511 . S
C1881 H1895 0.961 . S
C1881 H1896 0.961 . S
C1881 H1897 0.961 . S
C1882 C1883 1.370 . S
C1882 C1884 1.363 . S
C1882 H1898 0.931 . S
C1883 C1882 1.370 . S
C1883 C1887 1.408 . S
C1884 C1882 1.363 . S
C1884 C1885 1.370 . S
C1884 C1888 1.524 . S
C1885 C1877 1.503 . S
C1885 C1884 1.370 . S
C1885 C1886 1.403 . S
C1886 C1885 1.403 . S
C1886 C1887 1.404 . S
C1886 C1889 1.539 . S
C1887 C1883 1.408 . S
C1887 C1886 1.404 . S
C1887 H1899 0.930 . S
C1888 C1884 1.524 . S
C1888 H1900 0.956 . S
C1888 H1901 0.961 . S
C1888 H1902 0.961 . S
C1889 C1886 1.539 . S
C1889 H1903 0.958 . S
C1889 H1904 0.961 . S
C1889 H1905 0.960 . S
H1890 C1874 0.931 . S
H1891 C1879 0.929 . S
H1892 C1880 0.960 . S
H1893 C1880 0.962 . S
H1894 C1880 0.960 . S
H1895 C1881 0.961 . S
H1896 C1881 0.961 . S
H1897 C1881 0.961 . S
H1898 C1882 0.931 . S
H1899 C1887 0.930 . S
H1900 C1888 0.956 . S
H1901 C1888 0.961 . S
H1902 C1888 0.961 . S
H1903 C1889 0.958 . S
H1904 C1889 0.961 . S
H1905 C1889 0.960 . S
C1906 C1907 1.391 . S
C1906 C1908 1.394 . S
C1906 H1922 0.931 . S
C1907 C1906 1.391 . S
C1907 C1911 1.376 . S
C1908 C1906 1.394 . S
C1908 C1909 1.369 . S
C1908 C1912 1.531 . S
C1909 C1908 1.369 . S
C1909 C1910 1.410 . S
C1909 C1917 1.503 . S
C1910 C1909 1.410 . S
C1910 C1911 1.392 . S
C1910 C1913 1.511 . S
C1911 C1907 1.376 . S
C1911 C1910 1.392 . S
C1911 H1923 0.929 . S
C1912 C1908 1.531 . S
C1912 H1924 0.960 . S
C1912 H1925 0.962 . S
C1912 H1926 0.960 . S
C1913 C1910 1.511 . S
C1913 H1927 0.961 . S
C1913 H1928 0.961 . S
C1913 H1929 0.961 . S
C1914 C1915 1.370 . S
C1914 C1916 1.363 . S
C1914 H1930 0.931 . S
C1915 C1914 1.370 . S
C1915 C1919 1.408 . S
C1916 C1914 1.363 . S
C1916 C1917 1.370 . S
C1916 C1920 1.524 . S
C1917 C1909 1.503 . S
C1917 C1916 1.370 . S
C1917 C1918 1.403 . S
C1918 C1917 1.403 . S
C1918 C1919 1.404 . S
C1918 C1921 1.539 . S
C1919 C1915 1.408 . S
C1919 C1918 1.404 . S
C1919 H1931 0.930 . S
C1920 C1916 1.524 . S
C1920 H1932 0.956 . S
C1920 H1933 0.961 . S
C1920 H1934 0.961 . S
C1921 C1918 1.539 . S
C1921 H1935 0.958 . S
C1921 H1936 0.961 . S
C1921 H1937 0.960 . S
H1922 C1906 0.931 . S
H1923 C1911 0.929 . S
H1924 C1912 0.960 . S
H1925 C1912 0.962 . S
H1926 C1912 0.960 . S
H1927 C1913 0.961 . S
H1928 C1913 0.961 . S
H1929 C1913 0.961 . S
H1930 C1914 0.931 . S
H1931 C1919 0.930 . S
H1932 C1920 0.956 . S
H1933 C1920 0.961 . S
H1934 C1920 0.961 . S
H1935 C1921 0.958 . S
H1936 C1921 0.961 . S
H1937 C1921 0.960 . S
C1938 C1939 1.391 . S
C1938 C1940 1.394 . S
C1938 H1954 0.931 . S
C1939 C1938 1.391 . S
C1939 C1943 1.376 . S
C1940 C1938 1.394 . S
C1940 C1941 1.369 . S
C1940 C1944 1.531 . S
C1941 C1940 1.369 . S
C1941 C1942 1.410 . S
C1941 C1949 1.503 . S
C1942 C1941 1.410 . S
C1942 C1943 1.392 . S
C1942 C1945 1.511 . S
C1943 C1939 1.376 . S
C1943 C1942 1.392 . S
C1943 H1955 0.929 . S
C1944 C1940 1.531 . S
C1944 H1956 0.960 . S
C1944 H1957 0.962 . S
C1944 H1958 0.960 . S
C1945 C1942 1.511 . S
C1945 H1959 0.961 . S
C1945 H1960 0.961 . S
C1945 H1961 0.961 . S
C1946 C1947 1.370 . S
C1946 C1948 1.363 . S
C1946 H1962 0.931 . S
C1947 C1946 1.370 . S
C1947 C1951 1.408 . S
C1948 C1946 1.363 . S
C1948 C1949 1.370 . S
C1948 C1952 1.524 . S
C1949 C1941 1.503 . S
C1949 C1948 1.370 . S
C1949 C1950 1.403 . S
C1950 C1949 1.403 . S
C1950 C1951 1.404 . S
C1950 C1953 1.539 . S
C1951 C1947 1.408 . S
C1951 C1950 1.404 . S
C1951 H1963 0.930 . S
C1952 C1948 1.524 . S
C1952 H1964 0.956 . S
C1952 H1965 0.961 . S
C1952 H1966 0.961 . S
C1953 C1950 1.539 . S
C1953 H1967 0.958 . S
C1953 H1968 0.961 . S
C1953 H1969 0.960 . S
H1954 C1938 0.931 . S
H1955 C1943 0.929 . S
H1956 C1944 0.960 . S
H1957 C1944 0.962 . S
H1958 C1944 0.960 . S
H1959 C1945 0.961 . S
H1960 C1945 0.961 . S
H1961 C1945 0.961 . S
H1962 C1946 0.931 . S
H1963 C1951 0.930 . S
H1964 C1952 0.956 . S
H1965 C1952 0.961 . S
H1966 C1952 0.961 . S
H1967 C1953 0.958 . S
H1968 C1953 0.961 . S
H1969 C1953 0.960 . S
C1970 C1971 1.391 . S
C1970 C1972 1.394 . S
C1970 H1986 0.931 . S
C1971 C1970 1.391 . S
C1971 C1975 1.376 . S
C1972 C1970 1.394 . S
C1972 C1973 1.369 . S
C1972 C1976 1.531 . S
C1973 C1972 1.369 . S
C1973 C1974 1.410 . S
C1973 C1981 1.503 . S
C1974 C1973 1.410 . S
C1974 C1975 1.392 . S
C1974 C1977 1.511 . S
C1975 C1971 1.376 . S
C1975 C1974 1.392 . S
C1975 H1987 0.929 . S
C1976 C1972 1.531 . S
C1976 H1988 0.960 . S
C1976 H1989 0.962 . S
C1976 H1990 0.960 . S
C1977 C1974 1.511 . S
C1977 H1991 0.961 . S
C1977 H1992 0.961 . S
C1977 H1993 0.961 . S
C1978 C1979 1.370 . S
C1978 C1980 1.363 . S
C1978 H1994 0.931 . S
C1979 C1978 1.370 . S
C1979 C1983 1.408 . S
C1980 C1978 1.363 . S
C1980 C1981 1.370 . S
C1980 C1984 1.524 . S
C1981 C1973 1.503 . S
C1981 C1980 1.370 . S
C1981 C1982 1.403 . S
C1982 C1981 1.403 . S
C1982 C1983 1.404 . S
C1982 C1985 1.539 . S
C1983 C1979 1.408 . S
C1983 C1982 1.404 . S
C1983 H1995 0.930 . S
C1984 C1980 1.524 . S
C1984 H1996 0.956 . S
C1984 H1997 0.961 . S
C1984 H1998 0.961 . S
C1985 C1982 1.539 . S
C1985 H1999 0.958 . S
C1985 H2000 0.961 . S
C1985 H2001 0.960 . S
H1986 C1970 0.931 . S
H1987 C1975 0.929 . S
H1988 C1976 0.960 . S
H1989 C1976 0.962 . S
H1990 C1976 0.960 . S
H1991 C1977 0.961 . S
H1992 C1977 0.961 . S
H1993 C1977 0.961 . S
H1994 C1978 0.931 . S
H1995 C1983 0.930 . S
H1996 C1984 0.956 . S
H1997 C1984 0.961 . S
H1998 C1984 0.961 . S
H1999 C1985 0.958 . S
H2000 C1985 0.961 . S
H2001 C1985 0.960 . S
C2002 C2003 1.391 . S
C2002 C2004 1.394 . S
C2002 H2018 0.931 . S
C2003 C2002 1.391 . S
C2003 C2007 1.376 . S
C2004 C2002 1.394 . S
C2004 C2005 1.369 . S
C2004 C2008 1.531 . S
C2005 C2004 1.369 . S
C2005 C2006 1.410 . S
C2005 C2013 1.503 . S
C2006 C2005 1.410 . S
C2006 C2007 1.392 . S
C2006 C2009 1.511 . S
C2007 C2003 1.376 . S
C2007 C2006 1.392 . S
C2007 H2019 0.929 . S
C2008 C2004 1.531 . S
C2008 H2020 0.960 . S
C2008 H2021 0.962 . S
C2008 H2022 0.960 . S
C2009 C2006 1.511 . S
C2009 H2023 0.961 . S
C2009 H2024 0.961 . S
C2009 H2025 0.961 . S
C2010 C2011 1.370 . S
C2010 C2012 1.363 . S
C2010 H2026 0.931 . S
C2011 C2010 1.370 . S
C2011 C2015 1.408 . S
C2012 C2010 1.363 . S
C2012 C2013 1.370 . S
C2012 C2016 1.524 . S
C2013 C2005 1.503 . S
C2013 C2012 1.370 . S
C2013 C2014 1.403 . S
C2014 C2013 1.403 . S
C2014 C2015 1.404 . S
C2014 C2017 1.539 . S
C2015 C2011 1.408 . S
C2015 C2014 1.404 . S
C2015 H2027 0.930 . S
C2016 C2012 1.524 . S
C2016 H2028 0.956 . S
C2016 H2029 0.961 . S
C2016 H2030 0.961 . S
C2017 C2014 1.539 . S
C2017 H2031 0.958 . S
C2017 H2032 0.961 . S
C2017 H2033 0.960 . S
H2018 C2002 0.931 . S
H2019 C2007 0.929 . S
H2020 C2008 0.960 . S
H2021 C2008 0.962 . S
H2022 C2008 0.960 . S
H2023 C2009 0.961 . S
H2024 C2009 0.961 . S
H2025 C2009 0.961 . S
H2026 C2010 0.931 . S
H2027 C2015 0.930 . S
H2028 C2016 0.956 . S
H2029 C2016 0.961 . S
H2030 C2016 0.961 . S
H2031 C2017 0.958 . S
H2032 C2017 0.961 . S
H2033 C2017 0.960 . S
C2034 C2035 1.391 . S
C2034 C2036 1.394 . S
C2034 H2050 0.931 . S
C2035 C2034 1.391 . S
C2035 C2039 1.376 . S
C2036 C2034 1.394 . S
C2036 C2037 1.369 . S
C2036 C2040 1.531 . S
C2037 C2036 1.369 . S
C2037 C2038 1.410 . S
C2037 C2045 1.503 . S
C2038 C2037 1.410 . S
C2038 C2039 1.392 . S
C2038 C2041 1.511 . S
C2039 C2035 1.376 . S
C2039 C2038 1.392 . S
C2039 H2051 0.929 . S
C2040 C2036 1.531 . S
C2040 H2052 0.960 . S
C2040 H2053 0.962 . S
C2040 H2054 0.960 . S
C2041 C2038 1.511 . S
C2041 H2055 0.961 . S
C2041 H2056 0.961 . S
C2041 H2057 0.961 . S
C2042 C2043 1.370 . S
C2042 C2044 1.363 . S
C2042 H2058 0.931 . S
C2043 C2042 1.370 . S
C2043 C2047 1.408 . S
C2044 C2042 1.363 . S
C2044 C2045 1.370 . S
C2044 C2048 1.524 . S
C2045 C2037 1.503 . S
C2045 C2044 1.370 . S
C2045 C2046 1.403 . S
C2046 C2045 1.403 . S
C2046 C2047 1.404 . S
C2046 C2049 1.539 . S
C2047 C2043 1.408 . S
C2047 C2046 1.404 . S
C2047 H2059 0.930 . S
C2048 C2044 1.524 . S
C2048 H2060 0.956 . S
C2048 H2061 0.961 . S
C2048 H2062 0.961 . S
C2049 C2046 1.539 . S
C2049 H2063 0.958 . S
C2049 H2064 0.961 . S
C2049 H2065 0.960 . S
H2050 C2034 0.931 . S
H2051 C2039 0.929 . S
H2052 C2040 0.960 . S
H2053 C2040 0.962 . S
H2054 C2040 0.960 . S
H2055 C2041 0.961 . S
H2056 C2041 0.961 . S
H2057 C2041 0.961 . S
H2058 C2042 0.931 . S
H2059 C2047 0.930 . S
H2060 C2048 0.956 . S
H2061 C2048 0.961 . S
H2062 C2048 0.961 . S
H2063 C2049 0.958 . S
H2064 C2049 0.961 . S
H2065 C2049 0.960 . S
C2066 C2067 1.391 . S
C2066 C2068 1.394 . S
C2066 H2082 0.931 . S
C2067 C2066 1.391 . S
C2067 C2071 1.376 . S
C2068 C2066 1.394 . S
C2068 C2069 1.369 . S
C2068 C2072 1.531 . S
C2069 C2068 1.369 . S
C2069 C2070 1.410 . S
C2069 C2077 1.503 . S
C2070 C2069 1.410 . S
C2070 C2071 1.392 . S
C2070 C2073 1.511 . S
C2071 C2067 1.376 . S
C2071 C2070 1.392 . S
C2071 H2083 0.929 . S
C2072 C2068 1.531 . S
C2072 H2084 0.960 . S
C2072 H2085 0.962 . S
C2072 H2086 0.960 . S
C2073 C2070 1.511 . S
C2073 H2087 0.961 . S
C2073 H2088 0.961 . S
C2073 H2089 0.961 . S
C2074 C2075 1.370 . S
C2074 C2076 1.363 . S
C2074 H2090 0.931 . S
C2075 C2074 1.370 . S
C2075 C2079 1.408 . S
C2076 C2074 1.363 . S
C2076 C2077 1.370 . S
C2076 C2080 1.524 . S
C2077 C2069 1.503 . S
C2077 C2076 1.370 . S
C2077 C2078 1.403 . S
C2078 C2077 1.403 . S
C2078 C2079 1.404 . S
C2078 C2081 1.539 . S
C2079 C2075 1.408 . S
C2079 C2078 1.404 . S
C2079 H2091 0.930 . S
C2080 C2076 1.524 . S
C2080 H2092 0.956 . S
C2080 H2093 0.961 . S
C2080 H2094 0.961 . S
C2081 C2078 1.539 . S
C2081 H2095 0.958 . S
C2081 H2096 0.961 . S
C2081 H2097 0.960 . S
H2082 C2066 0.931 . S
H2083 C2071 0.929 . S
H2084 C2072 0.960 . S
H2085 C2072 0.962 . S
H2086 C2072 0.960 . S
H2087 C2073 0.961 . S
H2088 C2073 0.961 . S
H2089 C2073 0.961 . S
H2090 C2074 0.931 . S
H2091 C2079 0.930 . S
H2092 C2080 0.956 . S
H2093 C2080 0.961 . S
H2094 C2080 0.961 . S
H2095 C2081 0.958 . S
H2096 C2081 0.961 . S
H2097 C2081 0.960 . S
C2098 C2099 1.391 . S
C2098 C2100 1.394 . S
C2098 H2114 0.931 . S
C2099 C2098 1.391 . S
C2099 C2103 1.376 . S
C2100 C2098 1.394 . S
C2100 C2101 1.369 . S
C2100 C2104 1.531 . S
C2101 C2100 1.369 . S
C2101 C2102 1.410 . S
C2101 C2109 1.503 . S
C2102 C2101 1.410 . S
C2102 C2103 1.392 . S
C2102 C2105 1.511 . S
C2103 C2099 1.376 . S
C2103 C2102 1.392 . S
C2103 H2115 0.929 . S
C2104 C2100 1.531 . S
C2104 H2116 0.960 . S
C2104 H2117 0.962 . S
C2104 H2118 0.960 . S
C2105 C2102 1.511 . S
C2105 H2119 0.961 . S
C2105 H2120 0.961 . S
C2105 H2121 0.961 . S
C2106 C2107 1.370 . S
C2106 C2108 1.363 . S
C2106 H2122 0.931 . S
C2107 C2106 1.370 . S
C2107 C2111 1.408 . S
C2108 C2106 1.363 . S
C2108 C2109 1.370 . S
C2108 C2112 1.524 . S
C2109 C2101 1.503 . S
C2109 C2108 1.370 . S
C2109 C2110 1.403 . S
C2110 C2109 1.403 . S
C2110 C2111 1.404 . S
C2110 C2113 1.539 . S
C2111 C2107 1.408 . S
C2111 C2110 1.404 . S
C2111 H2123 0.930 . S
C2112 C2108 1.524 . S
C2112 H2124 0.956 . S
C2112 H2125 0.961 . S
C2112 H2126 0.961 . S
C2113 C2110 1.539 . S
C2113 H2127 0.958 . S
C2113 H2128 0.961 . S
C2113 H2129 0.960 . S
H2114 C2098 0.931 . S
H2115 C2103 0.929 . S
H2116 C2104 0.960 . S
H2117 C2104 0.962 . S
H2118 C2104 0.960 . S
H2119 C2105 0.961 . S
H2120 C2105 0.961 . S
H2121 C2105 0.961 . S
H2122 C2106 0.931 . S
H2123 C2111 0.930 . S
H2124 C2112 0.956 . S
H2125 C2112 0.961 . S
H2126 C2112 0.961 . S
H2127 C2113 0.958 . S
H2128 C2113 0.961 . S
H2129 C2113 0.960 . S
C2130 C2131 1.391 . S
C2130 C2132 1.394 . S
C2130 H2146 0.931 . S
C2131 C2130 1.391 . S
C2131 C2135 1.376 . S
C2132 C2130 1.394 . S
C2132 C2133 1.369 . S
C2132 C2136 1.531 . S
C2133 C2132 1.369 . S
C2133 C2134 1.410 . S
C2133 C2141 1.503 . S
C2134 C2133 1.410 . S
C2134 C2135 1.392 . S
C2134 C2137 1.511 . S
C2135 C2131 1.376 . S
C2135 C2134 1.392 . S
C2135 H2147 0.929 . S
C2136 C2132 1.531 . S
C2136 H2148 0.960 . S
C2136 H2149 0.962 . S
C2136 H2150 0.960 . S
C2137 C2134 1.511 . S
C2137 H2151 0.961 . S
C2137 H2152 0.961 . S
C2137 H2153 0.961 . S
C2138 C2139 1.370 . S
C2138 C2140 1.363 . S
C2138 H2154 0.931 . S
C2139 C2138 1.370 . S
C2139 C2143 1.408 . S
C2140 C2138 1.363 . S
C2140 C2141 1.370 . S
C2140 C2144 1.524 . S
C2141 C2133 1.503 . S
C2141 C2140 1.370 . S
C2141 C2142 1.403 . S
C2142 C2141 1.403 . S
C2142 C2143 1.404 . S
C2142 C2145 1.539 . S
C2143 C2139 1.408 . S
C2143 C2142 1.404 . S
C2143 H2155 0.930 . S
C2144 C2140 1.524 . S
C2144 H2156 0.956 . S
C2144 H2157 0.961 . S
C2144 H2158 0.961 . S
C2145 C2142 1.539 . S
C2145 H2159 0.958 . S
C2145 H2160 0.961 . S
C2145 H2161 0.960 . S
H2146 C2130 0.931 . S
H2147 C2135 0.929 . S
H2148 C2136 0.960 . S
H2149 C2136 0.962 . S
H2150 C2136 0.960 . S
H2151 C2137 0.961 . S
H2152 C2137 0.961 . S
H2153 C2137 0.961 . S
H2154 C2138 0.931 . S
H2155 C2143 0.930 . S
H2156 C2144 0.956 . S
H2157 C2144 0.961 . S
H2158 C2144 0.961 . S
H2159 C2145 0.958 . S
H2160 C2145 0.961 . S
H2161 C2145 0.960 . S
C2162 C2163 1.391 . S
C2162 C2164 1.394 . S
C2162 H2178 0.931 . S
C2163 C2162 1.391 . S
C2163 C2167 1.376 . S
C2164 C2162 1.394 . S
C2164 C2165 1.369 . S
C2164 C2168 1.531 . S
C2165 C2164 1.369 . S
C2165 C2166 1.410 . S
C2165 C2173 1.503 . S
C2166 C2165 1.410 . S
C2166 C2167 1.392 . S
C2166 C2169 1.511 . S
C2167 C2163 1.376 . S
C2167 C2166 1.392 . S
C2167 H2179 0.929 . S
C2168 C2164 1.531 . S
C2168 H2180 0.960 . S
C2168 H2181 0.962 . S
C2168 H2182 0.960 . S
C2169 C2166 1.511 . S
C2169 H2183 0.961 . S
C2169 H2184 0.961 . S
C2169 H2185 0.961 . S
C2170 C2171 1.370 . S
C2170 C2172 1.363 . S
C2170 H2186 0.931 . S
C2171 C2170 1.370 . S
C2171 C2175 1.408 . S
C2172 C2170 1.363 . S
C2172 C2173 1.370 . S
C2172 C2176 1.524 . S
C2173 C2165 1.503 . S
C2173 C2172 1.370 . S
C2173 C2174 1.403 . S
C2174 C2173 1.403 . S
C2174 C2175 1.404 . S
C2174 C2177 1.539 . S
C2175 C2171 1.408 . S
C2175 C2174 1.404 . S
C2175 H2187 0.930 . S
C2176 C2172 1.524 . S
C2176 H2188 0.956 . S
C2176 H2189 0.961 . S
C2176 H2190 0.961 . S
C2177 C2174 1.539 . S
C2177 H2191 0.958 . S
C2177 H2192 0.961 . S
C2177 H2193 0.960 . S
H2178 C2162 0.931 . S
H2179 C2167 0.929 . S
H2180 C2168 0.960 . S
H2181 C2168 0.962 . S
H2182 C2168 0.960 . S
H2183 C2169 0.961 . S
H2184 C2169 0.961 . S
H2185 C2169 0.961 . S
H2186 C2170 0.931 . S
H2187 C2175 0.930 . S
H2188 C2176 0.956 . S
H2189 C2176 0.961 . S
H2190 C2176 0.961 . S
H2191 C2177 0.958 . S
H2192 C2177 0.961 . S
H2193 C2177 0.960 . S
C2194 C2195 1.391 . S
C2194 C2196 1.394 . S
C2194 H2210 0.931 . S
C2195 C2194 1.391 . S
C2195 C2199 1.376 . S
C2196 C2194 1.394 . S
C2196 C2197 1.369 . S
C2196 C2200 1.531 . S
C2197 C2196 1.369 . S
C2197 C2198 1.410 . S
C2197 C2205 1.503 . S
C2198 C2197 1.410 . S
C2198 C2199 1.392 . S
C2198 C2201 1.511 . S
C2199 C2195 1.376 . S
C2199 C2198 1.392 . S
C2199 H2211 0.929 . S
C2200 C2196 1.531 . S
C2200 H2212 0.960 . S
C2200 H2213 0.962 . S
C2200 H2214 0.960 . S
C2201 C2198 1.511 . S
C2201 H2215 0.961 . S
C2201 H2216 0.961 . S
C2201 H2217 0.961 . S
C2202 C2203 1.370 . S
C2202 C2204 1.363 . S
C2202 H2218 0.931 . S
C2203 C2202 1.370 . S
C2203 C2207 1.408 . S
C2204 C2202 1.363 . S
C2204 C2205 1.370 . S
C2204 C2208 1.524 . S
C2205 C2197 1.503 . S
C2205 C2204 1.370 . S
C2205 C2206 1.403 . S
C2206 C2205 1.403 . S
C2206 C2207 1.404 . S
C2206 C2209 1.539 . S
C2207 C2203 1.408 . S
C2207 C2206 1.404 . S
C2207 H2219 0.930 . S
C2208 C2204 1.524 . S
C2208 H2220 0.956 . S
C2208 H2221 0.961 . S
C2208 H2222 0.961 . S
C2209 C2206 1.539 . S
C2209 H2223 0.958 . S
C2209 H2224 0.961 . S
C2209 H2225 0.960 . S
H2210 C2194 0.931 . S
H2211 C2199 0.929 . S
H2212 C2200 0.960 . S
H2213 C2200 0.962 . S
H2214 C2200 0.960 . S
H2215 C2201 0.961 . S
H2216 C2201 0.961 . S
H2217 C2201 0.961 . S
H2218 C2202 0.931 . S
H2219 C2207 0.930 . S
H2220 C2208 0.956 . S
H2221 C2208 0.961 . S
H2222 C2208 0.961 . S
H2223 C2209 0.958 . S
H2224 C2209 0.961 . S
H2225 C2209 0.960 . S
C2226 C2227 1.391 . S
C2226 C2228 1.394 . S
C2226 H2242 0.931 . S
C2227 C2226 1.391 . S
C2227 C2231 1.376 . S
C2228 C2226 1.394 . S
C2228 C2229 1.369 . S
C2228 C2232 1.531 . S
C2229 C2228 1.369 . S
C2229 C2230 1.410 . S
C2229 C2237 1.503 . S
C2230 C2229 1.410 . S
C2230 C2231 1.392 . S
C2230 C2233 1.511 . S
C2231 C2227 1.376 . S
C2231 C2230 1.392 . S
C2231 H2243 0.929 . S
C2232 C2228 1.531 . S
C2232 H2244 0.960 . S
C2232 H2245 0.962 . S
C2232 H2246 0.960 . S
C2233 C2230 1.511 . S
C2233 H2247 0.961 . S
C2233 H2248 0.961 . S
C2233 H2249 0.961 . S
C2234 C2235 1.370 . S
C2234 C2236 1.363 . S
C2234 H2250 0.931 . S
C2235 C2234 1.370 . S
C2235 C2239 1.408 . S
C2236 C2234 1.363 . S
C2236 C2237 1.370 . S
C2236 C2240 1.524 . S
C2237 C2229 1.503 . S
C2237 C2236 1.370 . S
C2237 C2238 1.403 . S
C2238 C2237 1.403 . S
C2238 C2239 1.404 . S
C2238 C2241 1.539 . S
C2239 C2235 1.408 . S
C2239 C2238 1.404 . S
C2239 H2251 0.930 . S
C2240 C2236 1.524 . S
C2240 H2252 0.956 . S
C2240 H2253 0.961 . S
C2240 H2254 0.961 . S
C2241 C2238 1.539 . S
C2241 H2255 0.958 . S
C2241 H2256 0.961 . S
C2241 H2257 0.960 . S
H2242 C2226 0.931 . S
H2243 C2231 0.929 . S
H2244 C2232 0.960 . S
H2245 C2232 0.962 . S
H2246 C2232 0.960 . S
H2247 C2233 0.961 . S
H2248 C2233 0.961 . S
H2249 C2233 0.961 . S
H2250 C2234 0.931 . S
H2251 C2239 0.930 . S
H2252 C2240 0.956 . S
H2253 C2240 0.961 . S
H2254 C2240 0.961 . S
H2255 C2241 0.958 . S
H2256 C2241 0.961 . S
H2257 C2241 0.960 . S
C2258 C2259 1.391 . S
C2258 C2260 1.394 . S
C2258 H2274 0.931 . S
C2259 C2258 1.391 . S
C2259 C2263 1.376 . S
C2260 C2258 1.394 . S
C2260 C2261 1.369 . S
C2260 C2264 1.531 . S
C2261 C2260 1.369 . S
C2261 C2262 1.410 . S
C2261 C2269 1.503 . S
C2262 C2261 1.410 . S
C2262 C2263 1.392 . S
C2262 C2265 1.511 . S
C2263 C2259 1.376 . S
C2263 C2262 1.392 . S
C2263 H2275 0.929 . S
C2264 C2260 1.531 . S
C2264 H2276 0.960 . S
C2264 H2277 0.962 . S
C2264 H2278 0.960 . S
C2265 C2262 1.511 . S
C2265 H2279 0.961 . S
C2265 H2280 0.961 . S
C2265 H2281 0.961 . S
C2266 C2267 1.370 . S
C2266 C2268 1.363 . S
C2266 H2282 0.931 . S
C2267 C2266 1.370 . S
C2267 C2271 1.408 . S
C2268 C2266 1.363 . S
C2268 C2269 1.370 . S
C2268 C2272 1.524 . S
C2269 C2261 1.503 . S
C2269 C2268 1.370 . S
C2269 C2270 1.403 . S
C2270 C2269 1.403 . S
C2270 C2271 1.404 . S
C2270 C2273 1.539 . S
C2271 C2267 1.408 . S
C2271 C2270 1.404 . S
C2271 H2283 0.930 . S
C2272 C2268 1.524 . S
C2272 H2284 0.956 . S
C2272 H2285 0.961 . S
C2272 H2286 0.961 . S
C2273 C2270 1.539 . S
C2273 H2287 0.958 . S
C2273 H2288 0.961 . S
C2273 H2289 0.960 . S
H2274 C2258 0.931 . S
H2275 C2263 0.929 . S
H2276 C2264 0.960 . S
H2277 C2264 0.962 . S
H2278 C2264 0.960 . S
H2279 C2265 0.961 . S
H2280 C2265 0.961 . S
H2281 C2265 0.961 . S
H2282 C2266 0.931 . S
H2283 C2271 0.930 . S
H2284 C2272 0.956 . S
H2285 C2272 0.961 . S
H2286 C2272 0.961 . S
H2287 C2273 0.958 . S
H2288 C2273 0.961 . S
H2289 C2273 0.960 . S
C2290 C2291 1.391 . S
C2290 C2292 1.394 . S
C2290 H2306 0.931 . S
C2291 C2290 1.391 . S
C2291 C2295 1.376 . S
C2292 C2290 1.394 . S
C2292 C2293 1.369 . S
C2292 C2296 1.531 . S
C2293 C2292 1.369 . S
C2293 C2294 1.410 . S
C2293 C2301 1.503 . S
C2294 C2293 1.410 . S
C2294 C2295 1.392 . S
C2294 C2297 1.511 . S
C2295 C2291 1.376 . S
C2295 C2294 1.392 . S
C2295 H2307 0.929 . S
C2296 C2292 1.531 . S
C2296 H2308 0.960 . S
C2296 H2309 0.962 . S
C2296 H2310 0.960 . S
C2297 C2294 1.511 . S
C2297 H2311 0.961 . S
C2297 H2312 0.961 . S
C2297 H2313 0.961 . S
C2298 C2299 1.370 . S
C2298 C2300 1.363 . S
C2298 H2314 0.931 . S
C2299 C2298 1.370 . S
C2299 C2303 1.408 . S
C2300 C2298 1.363 . S
C2300 C2301 1.370 . S
C2300 C2304 1.524 . S
C2301 C2293 1.503 . S
C2301 C2300 1.370 . S
C2301 C2302 1.403 . S
C2302 C2301 1.403 . S
C2302 C2303 1.404 . S
C2302 C2305 1.539 . S
C2303 C2299 1.408 . S
C2303 C2302 1.404 . S
C2303 H2315 0.930 . S
C2304 C2300 1.524 . S
C2304 H2316 0.956 . S
C2304 H2317 0.961 . S
C2304 H2318 0.961 . S
C2305 C2302 1.539 . S
C2305 H2319 0.958 . S
C2305 H2320 0.961 . S
C2305 H2321 0.960 . S
H2306 C2290 0.931 . S
H2307 C2295 0.929 . S
H2308 C2296 0.960 . S
H2309 C2296 0.962 . S
H2310 C2296 0.960 . S
H2311 C2297 0.961 . S
H2312 C2297 0.961 . S
H2313 C2297 0.961 . S
H2314 C2298 0.931 . S
H2315 C2303 0.930 . S
H2316 C2304 0.956 . S
H2317 C2304 0.961 . S
H2318 C2304 0.961 . S
H2319 C2305 0.958 . S
H2320 C2305 0.961 . S
H2321 C2305 0.960 . S
C595 N170 2.055 . S
C603 C243 2.096 . S
C627 N184 1.138 . S
C635 C283 1.146 . S
C659 N158 1.687 . S
C667 C322 1.642 . S
C691 N145 1.568 . S
C699 C282 1.524 1_556 S
C731 C323 0.834 1_556 S
C723 N119 0.840 . S
C755 N131 1.854 . S
C763 C242 1.878 . S
C795 C253 1.736 1_556 S
C787 N144 1.742 . S
C827 C293 1.648 . S
C819 N118 1.654 . S
C851 N132 1.556 . S
C859 C332 1.546 . S
C883 N171 1.474 . S
C891 C292 1.449 . S
C915 N183 1.341 . S
C923 C333 1.332 . S
C955 C252 1.458 . S
C947 N157 1.480 . S
C987 C363 2.090 . S
C979 N14 2.055 . S
C1011 N28 1.151 . S
C1019 C403 1.125 . S
C1043 N2 1.664 . S
C1051 C442 1.639 . S
C1075 N223 1.535 . S
C1083 C402 1.527 . S
C1107 N197 0.845 . S
C1115 C443 0.827 . S
C1139 N209 1.827 . S
C1147 C362 1.866 . S
C1171 N222 1.749 . S
C1179 C373 1.746 . S
C1203 N196 1.651 . S
C1211 C413 1.638 . S
C1243 C452 1.565 . S
C1235 N210 1.547 . S
C1267 N15 1.489 . S
C1275 C412 1.455 . S
C1307 C453 1.328 . S
C1299 N27 1.338 . S
C1331 N1 1.464 . S
C1339 C372 1.455 . S
C1371 C483 2.096 . S
C1363 N92 2.058 . S
C1395 N106 1.151 . S
C1403 C523 1.139 . S
C1435 C562 1.646 . S
C1427 N80 1.653 . S
C1467 C522 1.528 . S
C1459 N67 1.567 . S
C1499 C563 0.826 . S
C1491 N41 0.843 . S
C1523 N53 1.835 . S
C1531 C482 1.868 . S
C1555 N66 1.742 . S
C1563 C493 1.750 . S
C1587 N40 1.657 . S
C1595 C533 1.650 . S
C1627 C572 1.565 . S
C1619 N54 1.546 . S
C1651 N93 1.475 . S
C1659 C532 1.449 . S
C1683 N105 1.313 . S
C1691 C573 1.330 . S
C1715 N79 1.461 . S
C1723 C492 1.437 . S
C1747 N200 1.018 . S
C1755 C239 1.046 . S
C1787 C279 2.021 . S
C1779 N213 1.963 . S
C1811 N226 1.569 . S
C1819 C329 1.593 . S
C1843 N83 1.807 . S
C1851 C289 1.800 . S
C1875 N96 1.813 . S
C1883 C319 1.851 . S
C1915 C249 1.185 . S
C1907 N109 1.190 . S
C1939 N44 1.011 . S
C1947 C359 1.047 . S
C1971 N57 1.962 . S
C1979 C399 2.020 . S
C2003 N70 1.594 . S
C2011 C449 1.598 . S
C2035 N161 1.802 . S
C2043 C409 1.805 . S
C2075 C439 1.852 . S
C2067 N174 1.784 . S
C2099 N187 1.188 . S
C2107 C369 1.181 . S
C2131 N122 1.004 . S
C2139 C479 1.047 . S
C2163 N135 1.997 . S
C2171 C519 2.018 . S
C2203 C569 1.597 . S
C2195 N148 1.594 . S
C2227 N5 1.790 . S
C2235 C529 1.793 . S
C2259 N18 1.820 . S
C2267 C559 1.852 . S
C2291 N31 1.198 . S
C2299 C489 1.188 . S
