# Generated by pormake.
# Topology zzz, (3,6)-cn, num edge types: 1
# Building blocks:
#     Node 0, Type 0, BuildingBlock: KAKCAD_clean_linker_0, # of connection points: 3
#     Node 1, Type 0, BuildingBlock: KAKCAD_clean_linker_0, # of connection points: 3
#     Node 2, Type 0, BuildingBlock: KAKCAD_clean_linker_0, # of connection points: 3
#     Node 3, Type 0, BuildingBlock: KAKCAD_clean_linker_0, # of connection points: 3
#     Node 4, Type 0, BuildingBlock: KAKCAD_clean_linker_0, # of connection points: 3
#     Node 5, Type 0, BuildingBlock: KAKCAD_clean_linker_0, # of connection points: 3
#     Node 6, Type 0, BuildingBlock: KAKCAD_clean_linker_0, # of connection points: 3
#     Node 7, Type 0, BuildingBlock: KAKCAD_clean_linker_0, # of connection points: 3
#     Node 8, Type 1, BuildingBlock: KUMBOL_clean_sbu_0, # of connection points: 6
#     Node 9, Type 1, BuildingBlock: KUMBOL_clean_sbu_0, # of connection points: 6
#     Node 10, Type 1, BuildingBlock: KUMBOL_clean_sbu_0, # of connection points: 6
#     Node 11, Type 1, BuildingBlock: KUMBOL_clean_sbu_0, # of connection points: 6
#     Edge 12, Type (0, 1), BuildingBlock: EZIPEK_clean_linker_0, # of connection points: 2
#     Edge 13, Type (0, 1), BuildingBlock: EZIPEK_clean_linker_0, # of connection points: 2
#     Edge 14, Type (0, 1), BuildingBlock: EZIPEK_clean_linker_0, # of connection points: 2
#     Edge 15, Type (0, 1), BuildingBlock: EZIPEK_clean_linker_0, # of connection points: 2
#     Edge 16, Type (0, 1), BuildingBlock: EZIPEK_clean_linker_0, # of connection points: 2
#     Edge 17, Type (0, 1), BuildingBlock: EZIPEK_clean_linker_0, # of connection points: 2
#     Edge 18, Type (0, 1), BuildingBlock: EZIPEK_clean_linker_0, # of connection points: 2
#     Edge 19, Type (0, 1), BuildingBlock: EZIPEK_clean_linker_0, # of connection points: 2
#     Edge 20, Type (0, 1), BuildingBlock: EZIPEK_clean_linker_0, # of connection points: 2
#     Edge 21, Type (0, 1), BuildingBlock: EZIPEK_clean_linker_0, # of connection points: 2
#     Edge 22, Type (0, 1), BuildingBlock: EZIPEK_clean_linker_0, # of connection points: 2
#     Edge 23, Type (0, 1), BuildingBlock: EZIPEK_clean_linker_0, # of connection points: 2
#     Edge 24, Type (0, 1), BuildingBlock: EZIPEK_clean_linker_0, # of connection points: 2
#     Edge 25, Type (0, 1), BuildingBlock: EZIPEK_clean_linker_0, # of connection points: 2
#     Edge 26, Type (0, 1), BuildingBlock: EZIPEK_clean_linker_0, # of connection points: 2
#     Edge 27, Type (0, 1), BuildingBlock: EZIPEK_clean_linker_0, # of connection points: 2
#     Edge 28, Type (0, 1), BuildingBlock: EZIPEK_clean_linker_0, # of connection points: 2
#     Edge 29, Type (0, 1), BuildingBlock: EZIPEK_clean_linker_0, # of connection points: 2
#     Edge 30, Type (0, 1), BuildingBlock: EZIPEK_clean_linker_0, # of connection points: 2
#     Edge 31, Type (0, 1), BuildingBlock: EZIPEK_clean_linker_0, # of connection points: 2
#     Edge 32, Type (0, 1), BuildingBlock: EZIPEK_clean_linker_0, # of connection points: 2
#     Edge 33, Type (0, 1), BuildingBlock: EZIPEK_clean_linker_0, # of connection points: 2
#     Edge 34, Type (0, 1), BuildingBlock: EZIPEK_clean_linker_0, # of connection points: 2
#     Edge 35, Type (0, 1), BuildingBlock: EZIPEK_clean_linker_0, # of connection points: 2
# Relax obj value: 0.333
# Max RMSD: 0.222
# Mean RMSD: 0.214
data_MOF--net-zzz--node1-KUMBOL_clean_sbu_0--node2-KAKCAD_clean_linker_0--edge1-EZIPEK_clean_linker_0
_symmetry_space_group_name_H-M    P1
_symmetry_Int_Tables_number       1
_symmetry_cell_setting            triclinic
loop_
_symmetry_equiv_pos_as_xyz
'x, y, z'
_cell_length_a     44.067392
_cell_length_b     44.179943
_cell_length_c     15.629789
_cell_angle_alpha  90.452511
_cell_angle_beta   89.968819
_cell_angle_gamma 90.085069
loop_
_atom_site_label
_atom_site_type_symbol
_atom_site_fract_x
_atom_site_fract_y
_atom_site_fract_z
_atom_type_partial_charge
C0 C 0.81752 0.61074 0.03482 0.0
C1 C 0.84048 0.59051 0.05857 0.0
C2 C 0.79332 0.6163 0.09104 0.0
C3 C 0.79252 0.60199 0.17113 0.0
C4 C 0.81683 0.58342 0.19566 0.0
C5 C 0.84044 0.57781 0.14014 0.0
C6 C 0.76488 0.60096 0.22421 0.0
C7 C 0.73803 0.59032 0.18775 0.0
C8 C 0.71512 0.57635 0.23703 0.0
C9 C 0.72385 0.56767 0.32272 0.0
C10 C 0.7519 0.57882 0.35937 0.0
C11 C 0.76858 0.59975 0.31225 0.0
C12 C 0.77022 0.56547 0.4323 0.0
C13 C 0.7825 0.58525 0.49529 0.0
C14 C 0.78612 0.53819 0.41755 0.0
C15 C 0.81435 0.5323 0.45769 0.0
C16 C 0.82797 0.55352 0.51398 0.0
C17 C 0.68493 0.5695 0.19067 0.0
C18 C 0.67749 0.586 0.1159 0.0
C19 C 0.66382 0.54689 0.21471 0.0
C20 C 0.63796 0.54007 0.16276 0.0
C21 C 0.6331 0.55456 0.08297 0.0
C22 C 0.65336 0.5779 0.06212 0.0
C23 C 0.81087 0.57955 0.53458 0.0
H24 H 0.81753 0.6208 0.97187 0.0
H25 H 0.7747 0.63051 0.07077 0.0
H26 H 0.81666 0.57123 0.25555 0.0
H27 H 0.85796 0.562 0.15918 0.0
H28 H 0.73648 0.59043 0.11868 0.0
H29 H 0.78954 0.60883 0.33863 0.0
H30 H 0.70965 0.55255 0.35935 0.0
H31 H 0.77178 0.60694 0.50699 0.0
H32 H 0.77839 0.52279 0.3679 0.0
H33 H 0.82658 0.51193 0.4402 0.0
H34 H 0.69063 0.60546 0.09654 0.0
H35 H 0.66739 0.53414 0.27265 0.0
H36 H 0.82032 0.5965 0.57738 0.0
H37 H 0.6504 0.59041 1.00337 0.0
H38 H 0.6222 0.52285 0.18394 0.0
C39 C 0.92751 0.81858 0.04436 0.0
C40 C 0.95835 0.82174 0.02275 0.0
C41 C 0.91874 0.79696 0.10514 0.0
C42 C 0.94087 0.77856 0.14291 0.0
C43 C 0.9714 0.78163 0.11834 0.0
C44 C 0.97993 0.8026 0.05843 0.0
C45 C 0.93479 0.75877 0.21632 0.0
C46 C 0.9441 0.72892 0.20272 0.0
C47 C 0.97084 0.71855 0.24147 0.0
C48 C 0.98365 0.73698 0.30931 0.0
C49 C 0.9682 0.76405 0.33843 0.0
C50 C 0.94187 0.77264 0.29437 0.0
C51 C 0.98118 0.78865 0.39664 0.0
C52 C 0.96761 0.79562 0.47664 0.0
C53 C 0.99978 0.81122 0.36073 0.0
C54 C 1.00412 0.83961 0.40146 0.0
C55 C 0.99035 0.8469 0.48083 0.0
C56 C 0.9867 0.69316 0.1924 0.0
C57 C 0.99929 0.69943 0.11108 0.0
C58 C 0.98083 0.66243 0.21046 0.0
C59 C 0.98646 0.63923 0.14886 0.0
C60 C 0.99707 0.64597 0.06553 0.0
C61 C 1.00423 0.67646 0.04909 0.0
C62 C 0.9726 0.8239 0.51876 0.0
H63 H 0.91073 0.83368 0.01765 0.0
H64 H 0.89523 0.79538 0.1248 0.0
H65 H 0.9892 0.76899 0.1494 0.0
H66 H 1.00385 0.80517 0.0437 0.0
H67 H 0.93613 0.71753 0.14512 0.0
H68 H 0.93234 0.79487 0.3072 0.0
H69 H 1.00553 0.7312 0.33593 0.0
H70 H 0.95207 0.77958 0.50515 0.0
H71 H 1.00951 0.80762 0.29781 0.0
H72 H 0.01804 0.85632 0.36966 0.0
H73 H 1.00337 0.7226 0.09261 0.0
H74 H 0.97027 0.65646 0.27058 0.0
H75 H 0.96193 0.82804 0.58016 0.0
H76 H 1.01251 0.68276 0.98644 0.0
H77 H 0.98128 0.61611 0.16565 0.0
C78 C 0.72378 0.93823 0.04161 0.0
C79 C 0.70314 0.96092 0.06588 0.0
C80 C 0.74333 0.92603 0.10313 0.0
C81 C 0.74146 0.93587 0.18901 0.0
C82 C 0.71658 0.95393 0.21376 0.0
C83 C 0.69813 0.96671 0.15286 0.0
C84 C 0.76851 0.93629 0.24585 0.0
C85 C 0.79623 0.94566 0.21134 0.0
C86 C 0.81626 0.96442 0.25787 0.0
C87 C 0.80558 0.97637 0.33826 0.0
C88 C 0.77833 0.96441 0.37585 0.0
C89 C 0.76367 0.94054 0.33319 0.0
C90 C 0.75938 0.97895 0.44578 0.0
C91 C 0.74676 0.96032 0.50988 0.0
C92 C 0.74456 1.00665 0.42989 0.0
C93 C 0.71673 1.01399 0.47047 0.0
C94 C 0.70263 0.9937 0.52746 0.0
C95 C 0.84581 0.97238 0.2129 0.0
C96 C 0.86081 0.94954 0.16509 0.0
C97 C 0.85663 1.00224 0.20397 0.0
C98 C 0.88015 1.00904 0.14485 0.0
C99 C 0.89296 0.98633 0.09126 0.0
C100 C 0.88327 0.9564 0.10453 0.0
C101 C 0.71873 0.96731 0.54886 0.0
H102 H 0.72692 0.93244 0.97473 0.0
H103 H 0.76159 0.91134 0.08234 0.0
H104 H 0.71355 0.96204 0.27872 0.0
H105 H 0.68173 0.9835 0.17377 0.0
H106 H 0.8008 0.94128 0.14426 0.0
H107 H 0.743 0.93119 0.36013 0.0
H108 H 0.81799 0.99426 0.37055 0.0
H109 H 0.75692 0.93853 0.52293 0.0
H110 H 0.75286 0.02128 0.37974 0.0
H111 H 0.70511 0.03457 0.45259 0.0
H112 H 0.8538 0.92613 0.17086 0.0
H113 H 0.84591 0.02054 0.23909 0.0
H114 H 0.70874 0.95112 0.59235 0.0
H115 H 0.89248 0.93815 0.06584 0.0
H116 H 0.88729 0.03235 0.13786 0.0
C117 C 0.54379 0.72689 0.47241 0.0
C118 C 0.56516 0.70494 0.49865 0.0
C119 C 0.5531 0.75336 0.4287 0.0
C120 C 0.58407 0.75882 0.41178 0.0
C121 C 0.6053 0.7385 0.44715 0.0
C122 C 0.59606 0.71195 0.48868 0.0
C123 C 0.59459 0.7804 0.34282 0.0
C124 C 0.58403 0.81071 0.33082 0.0
C125 C 0.59593 0.8285 0.26219 0.0
C126 C 0.61752 0.81554 0.20741 0.0
C127 C 0.62126 0.78435 0.20596 0.0
C128 C 0.61321 0.76781 0.27856 0.0
C129 C 0.61632 0.76903 0.12289 0.0
C130 C 0.58934 0.77658 0.0797 0.0
C131 C 0.63044 0.74129 0.10424 0.0
C132 C 0.61479 0.71938 0.0564 0.0
C133 C 0.58454 0.72491 0.03243 0.0
C134 C 0.58226 0.85699 0.22802 0.0
C135 C 0.60133 0.88205 0.21256 0.0
C136 C 0.55497 0.85503 0.1814 0.0
C137 C 0.54811 0.87612 0.11702 0.0
C138 C 0.56815 0.90005 0.09788 0.0
C139 C 0.59427 0.90335 0.14907 0.0
C140 C 0.57316 0.75437 0.03665 0.0
H141 H 0.51977 0.72249 0.48021 0.0
H142 H 0.53599 0.76825 0.40274 0.0
H143 H 0.62936 0.74196 0.4367 0.0
H144 H 0.6132 0.69597 0.50881 0.0
H145 H 0.5668 0.82004 0.37277 0.0
H146 H 0.61713 0.74358 0.27802 0.0
H147 H 0.6247 0.82794 0.15112 0.0
H148 H 0.57793 0.79791 0.09142 0.0
H149 H 0.65137 0.73514 0.13592 0.0
H150 H 0.62417 0.6968 0.05098 0.0
H151 H 0.62292 0.88391 0.24535 0.0
H152 H 0.54028 0.83556 0.18916 0.0
H153 H 0.55014 0.7593 0.01668 0.0
H154 H 0.60985 0.92175 0.13811 0.0
H155 H 0.5277 0.87295 0.07941 0.0
C156 C 0.25506 0.45705 0.38206 0.0
C157 C 0.22454 0.45224 0.36159 0.0
C158 C 0.27743 0.44514 0.32877 0.0
C159 C 0.26892 0.42868 0.25484 0.0
C160 C 0.23947 0.41622 0.25254 0.0
C161 C 0.21686 0.42902 0.30394 0.0
C162 C 0.28437 0.43644 0.17279 0.0
C163 C 0.31493 0.44457 0.17308 0.0
C164 C 0.32635 0.46559 0.11463 0.0
C165 C 0.30765 0.47433 0.04354 0.0
C166 C 0.27762 0.46194 0.03399 0.0
C167 C 0.26653 0.44448 0.10221 0.0
C168 C 0.25498 0.46819 0.96162 0.0
C169 C 0.25292 0.49594 0.91784 0.0
C170 C 0.23187 0.44663 0.9438 0.0
C171 C 0.20584 0.45388 0.89654 0.0
C172 C 0.20265 0.48207 0.85652 0.0
C173 C 0.35537 0.48063 0.14371 0.0
C174 C 0.35331 0.50649 0.19704 0.0
C175 C 0.38216 0.46322 0.14936 0.0
C176 C 0.40498 0.47022 0.20993 0.0
C177 C 0.40169 0.49472 0.26745 0.0
C178 C 0.37603 0.51338 0.25805 0.0
C179 C 0.2276 0.50238 0.86433 0.0
H180 H 0.26136 0.47436 0.42831 0.0
H181 H 0.30016 0.45399 0.33692 0.0
H182 H 0.23263 0.40152 0.20016 0.0
H183 H 0.19329 0.42439 0.28904 0.0
H184 H 0.32892 0.43796 0.22688 0.0
H185 H 0.24252 0.4396 0.10428 0.0
H186 H 0.31622 0.49041 0.99755 0.0
H187 H 0.27011 0.51315 0.92737 0.0
H188 H 0.23292 0.42415 0.97068 0.0
H189 H 0.18783 0.43723 0.89239 0.0
H190 H 0.33266 0.51976 0.19746 0.0
H191 H 0.3842 0.44252 0.11219 0.0
H192 H 0.22686 0.52402 0.83236 0.0
H193 H 0.37271 0.53235 0.30132 0.0
H194 H 0.42436 0.45531 0.21546 0.0
C195 C 0.08373 0.252 0.34531 0.0
C196 C 0.09548 0.22298 0.33134 0.0
C197 C 0.09274 0.2757 0.29352 0.0
C198 C 0.1127 0.27019 0.22489 0.0
C199 C 0.12944 0.243 0.22422 0.0
C200 C 0.12082 0.21926 0.27792 0.0
C201 C 0.10576 0.28581 0.14344 0.0
C202 C 0.09687 0.31606 0.14569 0.0
C203 C 0.07385 0.3267 0.09186 0.0
C204 C 0.06358 0.30719 0.02296 0.0
C205 C 0.07685 0.27756 1.01069 0.0
C206 C 0.09726 0.26773 0.07373 0.0
C207 C 0.06865 0.25351 0.94287 0.0
C208 C 0.03863 0.24663 0.91779 0.0
C209 C 0.0913 0.23264 0.91615 0.0
C210 C 0.0841 0.20442 0.87887 0.0
C211 C 0.05404 0.19648 0.85822 0.0
C212 C 0.05824 0.35493 0.12646 0.0
C213 C 0.04281 0.35231 0.20523 0.0
C214 C 0.06748 0.38439 0.10287 0.0
C215 C 0.0625 0.40983 0.15784 0.0
C216 C 0.04992 0.40639 0.24078 0.0
C217 C 0.03927 0.37717 0.26142 0.0
C218 C 0.0316 0.21895 0.87447 0.0
H219 H 0.06493 0.25555 0.38902 0.0
H220 H 0.07995 0.29656 0.29842 0.0
H221 H 0.14573 0.23849 0.17379 0.0
H222 H 0.1309 0.19711 0.26901 0.0
H223 H 0.10399 0.32988 0.19986 0.0
H224 H 0.10373 0.24409 0.07437 0.0
H225 H 0.04545 0.3146 0.98145 0.0
H226 H 0.02033 0.2617 0.93585 0.0
H227 H 0.11495 0.23704 0.93061 0.0
H228 H 0.10227 0.18832 0.86848 0.0
H229 H 0.03606 0.33013 0.22749 0.0
H230 H 0.08018 0.38754 0.04428 0.0
H231 H 1.00814 0.21422 0.85861 0.0
H232 H 0.02922 0.37313 0.32356 0.0
H233 H 0.07017 0.43191 0.13739 0.0
C234 C 0.29798 0.08572 0.34606 0.0
C235 C 0.32885 0.09035 0.33073 0.0
C236 C 0.27663 0.10084 0.29754 0.0
C237 C 0.28616 0.11977 0.23046 0.0
C238 C 0.31665 0.12965 0.23005 0.0
C239 C 0.33821 0.11442 0.27916 0.0
C240 C 0.26898 0.11742 0.14869 0.0
C241 C 0.23788 0.11161 0.15138 0.0
C242 C 0.22485 0.09003 0.09649 0.0
C243 C 0.24256 0.07881 0.02564 0.0
C244 C 0.27275 0.09016 1.01162 0.0
C245 C 0.28518 0.109 0.07536 0.0
C246 C 0.29485 0.08092 0.94099 0.0
C247 C 0.30051 0.0505 0.91841 0.0
C248 C 0.31598 0.10268 0.91133 0.0
C249 C 0.34367 0.09427 0.87348 0.0
C250 C 0.35046 0.0638 0.85545 0.0
C251 C 0.19574 0.07661 0.13034 0.0
C252 C 0.19752 0.05171 0.18587 0.0
C253 C 0.1694 0.09469 0.13578 0.0
C254 C 0.14601 0.08843 0.19522 0.0
C255 C 0.14889 0.06485 0.25516 0.0
C256 C 0.17481 0.04618 0.24766 0.0
C257 C 0.32755 0.0422 0.87457 0.0
H258 H 0.29045 0.06802 0.3888 0.0
H259 H 0.25334 0.09336 0.30363 0.0
H260 H 0.32451 0.14554 0.18246 0.0
H261 H 0.36213 0.11904 0.26976 0.0
H262 H 0.22513 0.11934 0.20682 0.0
H263 H 0.30926 0.11375 0.07301 0.0
H264 H 0.23319 0.0617 0.98327 0.0
H265 H 0.28517 0.03291 0.93952 0.0
H266 H 0.31243 0.12648 0.92521 0.0
H267 H 0.36034 0.11175 0.86123 0.0
H268 H 0.21792 0.03806 0.18689 0.0
H269 H 0.16783 0.115 0.09769 0.0
H270 H 0.33155 0.01847 0.86094 0.0
H271 H 0.17814 0.02782 0.29216 0.0
H272 H 0.12643 0.10321 0.19766 0.0
C273 C 0.45929 0.31871 0.81555 0.0
C274 C 0.48479 0.33604 0.83925 0.0
C275 C 0.45186 0.29198 0.85962 0.0
C276 C 0.46983 0.28165 0.92826 0.0
C277 C 0.49649 0.29788 0.94765 0.0
C278 C 0.50383 0.32472 0.90392 0.0
C279 C 0.45581 0.2618 0.99532 0.0
C280 C 0.46848 0.23424 0.02547 0.0
C281 C 0.4551 0.21931 0.09667 0.0
C282 C 0.43099 0.2334 0.13984 0.0
C283 C 0.4227 0.2633 0.12115 0.0
C284 C 0.43188 0.27489 0.04157 0.0
C285 C 0.41628 0.28516 0.19344 0.0
C286 C 0.42548 0.27754 0.27746 0.0
C287 C 0.41301 0.31628 0.17564 0.0
C288 C 0.42829 0.3376 0.22575 0.0
C289 C 0.44435 0.32825 0.29807 0.0
C290 C 0.46852 0.19238 0.14022 0.0
C291 C 0.45368 0.16415 0.13668 0.0
C292 C 0.49044 0.19696 0.20448 0.0
C293 C 0.49672 0.17435 0.26487 0.0
C294 C 0.48165 0.14616 0.26215 0.0
C295 C 0.46067 0.1411 0.19535 0.0
C296 C 0.43996 0.29903 0.32912 0.0
H297 H 0.44408 0.32685 0.76645 0.0
H298 H 0.43069 0.28065 0.84454 0.0
H299 H 0.51027 0.29132 1.00179 0.0
H300 H 0.52353 0.33762 0.92398 0.0
H301 H 0.48846 0.22483 0.99498 0.0
H302 H 0.42407 0.29682 0.02092 0.0
H303 H 0.42181 0.22247 0.19595 0.0
H304 H 0.42595 0.25446 0.29951 0.0
H305 H 0.40267 0.32401 0.11706 0.0
H306 H 0.43 0.36074 0.20364 0.0
H307 H 0.43548 0.16053 0.09132 0.0
H308 H 0.5013 0.21886 0.21151 0.0
H309 H 0.45082 0.29197 0.3878 0.0
H310 H 0.4486 0.11977 0.19111 0.0
H311 H 0.51286 0.17918 0.31542 0.0
Gd312 Gd 0.99007 0.03498 0.60447 0.0
Gd313 Gd 0.05134 1.01011 0.73543 0.0
C314 C 0.09091 0.07417 0.93867 0.0
C315 C 0.14407 0.0757 0.89919 0.0
C316 C 0.10781 0.04795 0.81033 0.0
C317 C 0.08454 0.05587 0.86611 0.0
C318 C 0.13794 0.0574 0.82757 0.0
C319 C 0.12054 0.08432 0.95391 0.0
C320 C 0.06751 0.08121 0.99559 0.0
C321 C 0.03866 0.06968 0.98076 0.0
N322 N 0.05607 0.04494 0.85167 0.0
C323 C 0.03338 0.05137 0.90911 0.0
H324 H 1.01067 0.04334 0.90075 0.0
C325 C 0.12478 0.01872 0.69247 0.0
N326 N 0.10145 0.02981 0.74197 0.0
C327 C 0.15471 0.02781 0.70649 0.0
C328 C 0.16132 0.04738 0.77406 0.0
H329 H 0.12045 1.00217 0.64265 0.0
H330 H 0.12547 0.09853 1.00877 0.0
H331 H 0.03596 0.9973 0.46088 0.0
H332 H 0.07158 0.09514 0.05183 0.0
H333 H 0.02034 0.07485 0.02466 0.0
H334 H 0.16702 0.08303 0.91344 0.0
H335 H 0.91888 0.03965 0.68635 0.0
H336 H 0.97901 0.95827 0.2703 0.0
H337 H 0.03014 0.97065 0.32499 0.0
H338 H 0.87892 0.97378 0.379 0.0
H339 H 0.17276 0.01908 0.66633 0.0
H340 H 0.18467 0.05394 0.78584 0.0
H341 H 0.92282 0.96006 0.29025 0.0
H342 H 0.86729 0.02545 0.64618 0.0
N343 N 0.98861 1.00039 0.48723 0.0
C344 C 0.98142 0.96974 0.33147 0.0
C345 C 1.01025 0.9768 0.36188 0.0
C346 C 0.95603 0.97741 0.38053 0.0
C347 C 0.96038 0.99243 0.4599 0.0
C348 C 1.01342 0.99234 0.43953 0.0
N349 N 0.94036 1.01517 0.58498 0.0
C350 C 0.9356 0.99995 0.51024 0.0
C351 C 0.88626 0.01761 0.60802 0.0
C352 C 0.88118 1.00171 0.53226 0.0
C353 C 0.9159 0.02481 0.63223 0.0
C354 C 0.90588 0.99305 0.4817 0.0
H355 H 0.8581 0.99699 0.51219 0.0
O356 O 0.95763 0.07174 0.59929 0.0
O357 O 0.02964 0.05216 0.68464 0.0
O358 O 1.007 1.00256 0.81182 0.0
O359 O 0.96697 0.0179 0.72542 0.0
O360 O 0.98897 0.07367 0.70082 0.0
O361 O 0.98411 0.0598 0.48685 0.0
O362 O 0.08374 0.9734 0.74058 0.0
O363 O 1.01123 0.99225 0.65738 0.0
O364 O 0.0335 0.04557 0.52808 0.0
O365 O 0.07322 0.02879 0.61316 0.0
O366 O 0.05213 0.97097 0.64273 0.0
O367 O 0.05859 0.98619 0.85453 0.0
C368 C 1.01691 0.07416 0.7248 0.0
C369 C 0.90156 0.97873 0.40223 0.0
C370 C 0.92655 0.97096 0.35171 0.0
C371 C 0.96415 0.07825 0.5204 0.0
C372 C 0.96734 0.11047 0.50155 0.0
C373 C 0.94173 0.12928 0.50636 0.0
C374 C 0.99533 0.12257 0.47691 0.0
C375 C 0.99763 0.15313 0.45571 0.0
C376 C 0.94411 0.15991 0.48584 0.0
C377 C 0.97198 0.17185 0.46018 0.0
C378 C 0.97751 1.00805 0.7995 0.0
C379 C 0.02415 0.96969 0.61954 0.0
C380 C 0.0791 0.96826 0.82119 0.0
C381 C 0.07853 0.93643 0.84552 0.0
C382 C 0.10593 0.92116 0.85996 0.0
C383 C 0.05104 0.92136 0.85677 0.0
C384 C 0.05065 0.89176 0.88723 0.0
C385 C 0.10563 0.89111 0.88732 0.0
C386 C 0.078 0.87646 0.90187 0.0
C387 C 0.06292 0.04083 0.5413 0.0
H388 H 0.9199 0.12021 0.52529 0.0
H389 H 1.01511 0.10821 0.47199 0.0
H390 H 0.92429 0.17432 0.48909 0.0
H391 H 0.97356 0.19553 0.44325 0.0
H392 H 0.12746 0.93258 0.85097 0.0
H393 H 0.03004 0.93302 0.84518 0.0
H394 H 0.12678 0.87945 0.89918 0.0
H395 H 0.07792 0.85359 0.92638 0.0
Gd396 Gd 0.50949 0.98844 0.61407 0.0
Gd397 Gd 0.5361 0.05189 0.73395 0.0
C398 C 0.46575 0.0949 0.91314 0.0
C399 C 0.46295 0.14621 0.86005 0.0
C400 C 0.4952 0.10902 0.78816 0.0
C401 C 0.48656 0.0873 0.84738 0.0
C402 C 0.48403 0.13895 0.79585 0.0
C403 C 0.45356 0.12414 0.91776 0.0
C404 C 0.45841 0.07322 0.97435 0.0
C405 C 0.47261 0.04517 0.97149 0.0
N406 N 0.49943 0.05932 0.84347 0.0
C407 C 0.49351 0.03886 0.90664 0.0
H408 H 0.50477 0.01763 0.90871 0.0
C409 C 0.52816 0.1239 0.67674 0.0
N410 N 0.51567 0.10152 0.72629 0.0
C411 C 0.5176 0.15362 0.68169 0.0
C412 C 0.49518 0.16113 0.74082 0.0
H413 H 0.54651 0.11881 0.63292 0.0
H414 H 0.43736 0.13008 0.96713 0.0
H415 H 0.5511 0.03016 0.46628 0.0
H416 H 0.44251 0.0782 0.02544 0.0
H417 H 0.46776 0.02843 0.01984 0.0
H418 H 0.45417 0.16901 0.8666 0.0
H419 H 0.5121 0.91931 0.71198 0.0
H420 H 0.56458 0.97077 0.25343 0.0
H421 H 0.56728 0.02203 0.31794 0.0
H422 H 0.54396 0.87311 0.36958 0.0
H423 H 0.52723 0.17086 0.64097 0.0
H424 H 0.48736 0.18433 0.74545 0.0
H425 H 0.5534 0.91571 0.27258 0.0
H426 H 0.52037 0.86675 0.66764 0.0
N427 N 0.5382 0.98439 0.48678 0.0
C428 C 0.55732 0.97431 0.31902 0.0
C429 C 0.55891 1.00323 0.35519 0.0
C430 C 0.54797 0.95003 0.36954 0.0
C431 C 0.539 0.95573 0.45462 0.0
C432 C 0.54937 1.00784 0.43961 0.0
N433 N 0.52653 0.93822 0.59286 0.0
C434 C 0.53357 0.93185 0.50989 0.0
C435 C 0.52465 0.88486 0.62296 0.0
C436 C 0.53216 0.87815 0.53832 0.0
C437 C 0.52106 0.91501 0.64869 0.0
C438 C 0.53638 0.90172 0.48043 0.0
H439 H 0.53422 0.85472 0.51804 0.0
O440 O 0.47216 0.95623 0.6236 0.0
O441 O 0.49293 0.02986 0.68699 0.0
O442 O 0.54458 1.00984 0.81772 0.0
O443 O 0.5319 0.96812 0.73259 0.0
O444 O 0.47125 0.98984 0.70863 0.0
O445 O 0.48153 0.97942 0.50392 0.0
O446 O 0.57408 0.08338 0.73874 0.0
O447 O 0.55299 1.00921 0.66549 0.0
O448 O 0.50045 0.02998 0.53057 0.0
O449 O 0.51978 0.07084 0.60744 0.0
O450 O 0.57626 0.04798 0.64277 0.0
O451 O 0.55448 0.06627 0.85599 0.0
C452 C 0.47064 0.01808 0.72811 0.0
C453 C 0.54289 0.89607 0.39398 0.0
C454 C 0.54836 0.92022 0.3387 0.0
C455 C 0.46439 0.9599 0.54382 0.0
C456 C 0.43201 0.96056 0.52382 0.0
C457 C 0.41465 0.93404 0.53099 0.0
C458 C 0.41886 0.98666 0.49042 0.0
C459 C 0.3887 0.98635 0.46368 0.0
C460 C 0.38434 0.93375 0.50454 0.0
C461 C 0.37132 0.95987 0.47064 0.0
C462 C 0.54138 0.98007 0.80606 0.0
C463 C 0.57625 0.01936 0.62539 0.0
C464 C 0.57398 0.08491 0.82191 0.0
C465 C 0.60326 0.08833 0.86452 0.0
C466 C 0.61746 0.11672 0.86933 0.0
C467 C 0.61702 0.06342 0.90127 0.0
C468 C 0.64588 0.06572 0.93779 0.0
C469 C 0.64544 0.11975 0.91088 0.0
C470 C 0.65969 0.09432 0.94525 0.0
C471 C 0.50696 0.05921 0.53831 0.0
H472 H 0.42469 0.91349 0.55556 0.0
H473 H 0.43213 1.00711 0.4835 0.0
H474 H 0.37105 0.91322 0.50959 0.0
H475 H 0.34788 0.95947 0.4498 0.0
H476 H 0.60684 0.13645 0.84162 0.0
H477 H 0.60541 0.04183 0.89988 0.0
H478 H 0.6563 0.14169 0.91518 0.0
H479 H 0.68174 0.09673 0.97518 0.0
Gd480 Gd 0.49723 0.53333 0.72407 0.0
Gd481 Gd 0.55439 0.50432 0.59336 0.0
C482 C 0.64418 0.4831 0.73242 0.0
C483 C 0.67734 0.52284 0.68176 0.0
C484 C 0.62429 0.52111 0.6362 0.0
C485 C 0.6197 0.49528 0.68487 0.0
C486 C 0.65358 0.53444 0.63241 0.0
C487 C 0.67261 0.49736 0.73196 0.0
C488 C 0.64006 0.456 0.77599 0.0
C489 C 0.61277 0.44063 0.76794 0.0
N490 N 0.59239 0.48071 0.68069 0.0
C491 C 0.58953 0.45279 0.7184 0.0
H492 H 0.56993 0.43867 0.71127 0.0
C493 C 0.60757 0.55281 0.52495 0.0
N494 N 0.60126 0.53151 0.58641 0.0
C495 C 0.63586 0.56687 0.52038 0.0
C496 C 0.65885 0.55802 0.57533 0.0
H497 H 0.59102 0.55906 0.47729 0.0
H498 H 0.69148 0.48812 0.76768 0.0
H499 H 0.47772 0.57871 0.55908 0.0
H500 H 0.65826 0.44609 0.813 0.0
H501 H 0.60975 0.41894 0.79862 0.0
H502 H 0.69981 0.53282 0.67923 0.0
H503 H 0.46844 0.49481 0.89438 0.0
H504 H 0.38513 0.56327 0.49634 0.0
H505 H 0.43392 0.58894 0.46834 0.0
H506 H 0.35081 0.49741 0.71682 0.0
H507 H 0.64012 0.58402 0.47274 0.0
H508 H 0.68103 0.56849 0.57019 0.0
H509 H 0.35446 0.52923 0.58921 0.0
H510 H 0.42031 0.47223 0.93954 0.0
N511 N 0.45576 0.54552 0.63452 0.0
C512 C 0.40466 0.55831 0.5359 0.0
C513 C 0.4321 0.57282 0.51991 0.0
C514 C 0.40246 0.53841 0.60467 0.0
C515 C 0.42871 0.5324 0.65382 0.0
C516 C 0.45723 0.56666 0.57126 0.0
N517 N 0.45213 0.50913 0.77259 0.0
C518 C 0.42681 0.51382 0.7248 0.0
C519 C 0.42189 0.48334 0.8782 0.0
C520 C 0.39641 0.4857 0.82616 0.0
C521 C 0.44935 0.49595 0.85158 0.0
C522 C 0.39842 0.50165 0.7495 0.0
H523 H 0.37502 0.47623 0.84744 0.0
O524 O 0.49698 0.53981 0.8622 0.0
O525 O 0.54617 0.52021 0.7297 0.0
O526 O 0.5313 0.46354 0.65578 0.0
O527 O 0.49131 0.48234 0.73758 0.0
O528 O 0.54586 0.52045 0.73027 0.0
O529 O 0.48634 0.57762 0.7768 0.0
O530 O 0.56438 0.5096 0.45859 0.0
O531 O 0.50617 0.52305 0.58555 0.0
O532 O 0.51537 0.57672 0.66652 0.0
O533 O 0.55056 0.55606 0.57211 0.0
O534 O 0.51427 0.48138 0.53051 0.0
O535 O 0.57654 0.46814 0.52226 0.0
C536 C 0.5669 0.53515 0.77218 0.0
C537 C 0.37264 0.50678 0.69905 0.0
C538 C 0.37469 0.52498 0.62657 0.0
C539 C 0.48706 0.56732 0.85449 0.0
C540 C 0.48133 0.58659 0.92832 0.0
C541 C 0.45967 0.57898 0.99036 0.0
C542 C 0.49683 0.61384 0.93415 0.0
C543 C 0.49243 0.63303 1.0039 0.0
C544 C 0.45356 0.59921 0.05763 0.0
C545 C 0.46986 0.62635 0.06447 0.0
C546 C 0.50813 0.4595 0.70908 0.0
C547 C 0.4938 0.50164 0.5423 0.0
C548 C 0.57388 0.48196 0.44923 0.0
C549 C 0.56005 0.46495 0.37789 0.0
C550 C 0.5603 0.47746 0.29555 0.0
C551 C 0.54446 0.43765 0.39199 0.0
C552 C 0.5281 0.42387 0.32539 0.0
C553 C 0.54471 0.46325 0.22864 0.0
C554 C 0.52849 0.43666 0.24352 0.0
C555 C 0.53651 0.57977 0.60702 0.0
H556 H 0.44717 0.55789 0.98573 0.0
H557 H 0.51306 0.61994 0.88524 0.0
H558 H 0.43666 0.5936 0.10523 0.0
H559 H 0.46601 0.64131 0.11861 0.0
H560 H 0.57207 0.49856 0.28347 0.0
H561 H 0.54388 0.42769 0.45509 0.0
H562 H 0.54477 0.47316 0.16551 0.0
H563 H 0.51593 0.4262 0.19151 0.0
Gd564 Gd 1.00591 0.49158 0.73233 0.0
Gd565 Gd 0.03003 0.54801 0.60541 0.0
C566 C 0.03971 0.64137 0.73202 0.0
C567 C 1.00675 0.67221 0.64458 0.0
C568 C 1.01086 0.61793 0.61651 0.0
C569 C 0.03158 0.61541 0.68336 0.0
C570 C 0.99894 0.64666 0.59545 0.0
C571 C 0.02695 0.66954 0.71285 0.0
C572 C 0.06084 0.63849 0.79807 0.0
C573 C 0.0735 0.61035 0.81451 0.0
N574 N 0.0442 0.58799 0.70006 0.0
C575 C 0.06488 0.58536 0.76505 0.0
H576 H 0.07358 0.56368 0.78322 0.0
C577 C 0.98736 0.59607 0.49479 0.0
N578 N 1.00355 0.59288 0.56935 0.0
C579 C 0.97489 0.62391 0.4723 0.0
C580 C 0.98036 0.64925 0.52344 0.0
H581 H 0.98358 0.57687 0.45294 0.0
H582 H 0.03302 0.68957 0.74954 0.0
H583 H 0.95742 0.48405 0.55475 0.0
H584 H 0.06749 0.65783 0.83682 0.0
H585 H 0.0895 0.6077 0.86644 0.0
H586 H 0.99773 0.69431 0.62923 0.0
H587 H 0.06343 0.45314 0.83012 0.0
H588 H 0.92516 0.39336 0.55638 0.0
H589 H 0.92196 0.44571 0.50292 0.0
H590 H 0.99836 0.34236 0.72785 0.0
H591 H 0.96144 0.62587 0.4147 0.0
H592 H 0.971 0.67092 0.50511 0.0
H593 H 0.95426 0.35489 0.63906 0.0
H594 H 0.07694 0.40091 0.85972 0.0
N595 N 0.97819 0.45575 0.64789 0.0
C596 C 0.94015 0.41059 0.58237 0.0
C597 C 0.93824 0.44009 0.55213 0.0
C598 C 0.96311 0.40314 0.64014 0.0
C599 C 0.98213 0.42645 0.67195 0.0
C600 C 0.95803 0.46222 0.58389 0.0
N601 N 0.02627 0.44212 0.74681 0.0
C602 C 1.00758 0.4193 0.72021 0.0
C603 C 0.05772 0.40568 0.81891 0.0
C604 C 0.03939 0.38217 0.78934 0.0
C605 C 0.0504 0.43556 0.799 0.0
C606 C 1.01376 0.38879 0.74043 0.0
H607 H 0.04484 0.35907 0.80628 0.0
O608 O 1.01516 0.48634 0.86891 0.0
O609 O 0.02276 0.53998 0.74462 0.0
O610 O 0.07583 0.53314 0.65422 0.0
O611 O 0.05907 0.49393 0.73979 0.0
O612 O 0.98122 0.53059 0.79665 0.0
O613 O 0.97562 0.46565 0.81142 0.0
O614 O 0.03238 0.54898 0.46598 0.0
O615 O 0.02197 0.49793 0.59286 0.0
O616 O 0.9611 0.51221 0.68411 0.0
O617 O 0.97807 0.55154 0.5988 0.0
O618 O 0.02212 0.49804 0.59263 0.0
O619 O 0.06937 0.56645 0.54249 0.0
C620 C 1.00126 0.55141 0.78943 0.0
C621 C 0.99404 0.36582 0.71227 0.0
C622 C 0.96875 0.37298 0.66242 0.0
C623 C 0.99044 0.47077 0.88185 0.0
C624 C 0.97127 0.47966 0.95406 0.0
C625 C 0.97581 0.4672 0.03528 0.0
C626 C 0.94707 0.49949 0.9408 0.0
C627 C 0.92857 0.50835 1.00841 0.0
C628 C 0.95648 0.47516 0.1029 0.0
C629 C 0.93309 0.49602 0.0899 0.0
C630 C 0.08159 0.51066 0.70704 0.0
C631 C 0.04314 0.48066 0.55935 0.0
C632 C 0.05897 0.56174 0.46566 0.0
C633 C 0.08073 0.55256 0.39917 0.0
C634 C 0.07177 0.5529 0.31336 0.0
C635 C 0.11086 0.54562 0.42012 0.0
C636 C 0.1323 0.53805 0.35659 0.0
C637 C 0.09237 0.54525 0.24942 0.0
C638 C 0.12206 0.53737 0.27058 0.0
C639 C 0.95569 0.53506 0.63114 0.0
H640 H 0.99403 0.45124 0.04609 0.0
H641 H 0.94222 0.50821 0.87795 0.0
H642 H 0.95993 0.46554 0.16562 0.0
H643 H 0.91894 0.50296 0.14324 0.0
H644 H 0.0488 0.55905 0.29587 0.0
H645 H 0.1166 0.54558 0.48657 0.0
H646 H 0.08522 0.54504 0.18314 0.0
H647 H 0.13663 0.53006 0.21873 0.0
C648 C 0.11632 0.08365 0.3838 0.0
C649 C 0.12565 0.05985 0.32686 0.0
C650 C 0.09906 0.0241 0.42145 0.0
C651 C 0.08546 0.04793 0.46966 0.0
N652 N 0.07882 0.10175 0.48649 0.0
N653 N 0.1167 1.00821 0.28177 0.0
C654 C 0.09314 0.07815 0.44699 0.0
C655 C 0.11415 0.03035 0.34271 0.0
N656 N 0.13083 0.11097 0.38204 0.0
N657 N 0.09921 0.99547 0.45254 0.0
H658 H 0.12583 1.01222 0.22131 0.0
H659 H 0.10642 0.98706 0.2881 0.0
H660 H 0.09194 0.99088 0.51429 0.0
H661 H 0.11051 0.97763 0.42227 0.0
H662 H 0.12691 0.12806 0.42699 0.0
H663 H 0.14922 0.11533 0.34207 0.0
H664 H 0.0815 0.12413 0.46745 0.0
H665 H 0.06244 0.09858 0.53364 0.0
C666 C 0.51768 0.11243 0.34597 0.0
C667 C 0.48759 0.12253 0.33028 0.0
C668 C 0.46964 0.08726 0.44198 0.0
C669 C 0.50011 0.08041 0.4652 0.0
N670 N 0.55341 0.09231 0.4481 0.0
N671 N 0.43544 0.12371 0.37825 0.0
C672 C 0.52417 0.09484 0.42008 0.0
C673 C 0.46363 0.11093 0.38208 0.0
N674 N 0.54006 0.11845 0.28798 0.0
N675 N 0.44624 0.07145 0.47752 0.0
H676 H 0.43038 0.14202 0.33917 0.0
H677 H 0.41794 0.11829 0.42032 0.0
H678 H 0.4495 0.05484 0.52344 0.0
H679 H 0.42391 0.07312 0.45632 0.0
H680 H 0.5617 0.10907 0.29164 0.0
H681 H 0.53607 0.12995 0.23107 0.0
H682 H 0.57117 0.10511 0.42315 0.0
H683 H 0.55964 0.07964 0.50107 0.0
C684 C 0.41985 0.48259 0.41882 0.0
C685 C 0.42367 0.49915 0.34166 0.0
C686 C 0.47228 0.5191 0.39793 0.0
C687 C 0.46796 0.50394 0.47742 0.0
N688 N 0.4369 0.47131 0.56351 0.0
N689 N 0.45086 0.53748 0.26468 0.0
C690 C 0.44127 0.48603 0.48792 0.0
C691 C 0.44901 0.51879 0.33375 0.0
N692 N 0.39631 0.46249 0.42453 0.0
N693 N 0.49962 0.53213 0.38073 0.0
H694 H 0.43493 0.53721 0.2153 0.0
H695 H 0.46669 0.55491 0.25979 0.0
H696 H 0.51688 0.53339 0.42573 0.0
H697 H 0.50594 0.53982 0.32047 0.0
H698 H 0.39371 0.44695 0.47361 0.0
H699 H 0.37981 0.46011 0.37712 0.0
H700 H 0.41682 0.46056 0.58065 0.0
H701 H 0.45307 0.4712 0.61201 0.0
C702 C 0.07393 0.44755 0.34243 0.0
C703 C 0.04788 0.4319 0.30868 0.0
C704 C 0.02073 0.44659 0.43869 0.0
C705 C 0.04341 0.46691 0.46766 0.0
N706 N 0.09629 0.47923 0.45582 0.0
N707 N 0.99343 0.42659 0.31817 0.0
C708 C 0.07132 0.46579 0.42039 0.0
C709 C 0.02013 0.4362 0.35281 0.0
N710 N 0.10121 0.44451 0.30174 0.0
N711 N 1.00783 0.42814 0.49648 0.0
H712 H 0.99187 0.41873 0.25514 0.0
H713 H 0.97297 0.42896 0.35139 0.0
H714 H 0.01896 0.42551 0.55449 0.0
H715 H 0.99331 0.4105 0.47849 0.0
H716 H 0.12036 0.45747 0.31504 0.0
H717 H 0.1049 0.42907 0.25233 0.0
H718 H 0.11823 0.47655 0.4331 0.0
H719 H 0.09536 0.49222 0.51175 0.0
C720 C 0.90811 1.01509 0.95458 0.0
C721 C 0.9151 0.99335 0.01846 0.0
C722 C 0.95865 0.97768 0.92862 0.0
C723 C 0.95503 1.0027 0.87309 0.0
N724 N 0.92801 0.04977 0.85005 0.0
N725 N 0.95319 0.95931 0.0731 0.0
C726 C 0.93026 0.02274 0.89089 0.0
C727 C 0.94229 0.97634 1.00762 0.0
N728 N 0.87976 0.02743 0.95076 0.0
N729 N 0.9757 0.95364 0.90295 0.0
H730 H 0.94283 0.95867 0.13308 0.0
H731 H 0.9744 0.94893 0.07004 0.0
H732 H 0.98418 0.95201 0.84084 0.0
H733 H 0.97683 0.93376 0.93805 0.0
H734 H 0.87278 0.04112 0.90042 0.0
H735 H 0.86218 0.0212 0.99163 0.0
H736 H 0.91232 0.06631 0.86784 0.0
H737 H 0.94341 0.05689 0.80425 0.0
C738 C 0.58204 0.92184 0.95095 0.0
C739 C 0.56207 0.92089 0.02299 0.0
C740 C 0.52687 0.95373 0.94451 0.0
C741 C 0.54866 0.95884 0.87916 0.0
N742 N 0.59818 0.9481 0.822 0.0
N743 N 0.51771 0.94146 0.09276 0.0
C744 C 0.57669 0.94302 0.88314 0.0
C745 C 0.53519 0.93852 0.02102 0.0
N746 N 0.60535 0.90157 0.94516 0.0
N747 N 0.49741 0.96143 0.93101 0.0
H748 H 0.52323 0.93132 0.15068 0.0
H749 H 0.49949 0.95643 0.09671 0.0
H750 H 0.49053 0.97041 0.87302 0.0
H751 H 0.47981 0.95573 0.97253 0.0
H752 H 0.61887 0.89907 0.89093 0.0
H753 H 0.60955 0.88533 0.99168 0.0
H754 H 0.62039 0.94023 0.82637 0.0
H755 H 0.59418 0.96178 0.76913 0.0
C756 C 0.60264 0.51736 0.98486 0.0
C757 C 0.60726 0.54703 0.01987 0.0
C758 C 0.57387 0.56696 0.90544 0.0
C759 C 0.57 0.53767 0.8691 0.0
N760 N 0.57201 0.4843 0.89415 0.0
N761 N 0.58814 0.59802 0.02804 0.0
C762 C 0.58129 0.51269 0.91612 0.0
C763 C 0.58975 0.57109 0.98486 0.0
N764 N 0.62028 0.49387 1.01144 0.0
N765 N 0.56305 0.59124 0.86199 0.0
H766 H 0.59782 0.60119 0.08839 0.0
H767 H 0.57498 0.61612 1.00796 0.0
H768 H 0.54867 0.58857 0.8095 0.0
H769 H 0.56889 0.61356 0.87627 0.0
H770 H 0.62014 0.47266 0.98189 0.0
H771 H 0.63713 0.49611 0.05759 0.0
H772 H 0.57678 0.46523 0.93051 0.0
H773 H 0.55678 0.4806 0.84435 0.0
C774 C 0.02174 0.59899 0.9947 0.0
C775 C 0.99906 0.62194 0.99385 0.0
C776 C 0.9815 0.60139 0.85316 0.0
C777 C 1.00278 0.57712 0.85662 0.0
N778 N 0.04047 0.55086 0.9396 0.0
N779 N 0.9541 0.64167 0.92703 0.0
C780 C 0.02208 0.57543 0.93009 0.0
C781 C 0.97821 0.62226 0.92395 0.0
N782 N 0.04385 0.60027 0.05585 0.0
N783 N 0.96472 0.60507 0.78055 0.0
H784 H 0.95076 0.65714 0.97686 0.0
H785 H 0.93589 0.64061 0.88471 0.0
H786 H 0.96612 0.5903 0.72847 0.0
H787 H 0.95159 0.62412 0.76847 0.0
H788 H 0.0631 0.58664 0.05502 0.0
H789 H 0.04426 0.61677 0.10395 0.0
H790 H 0.05178 0.54586 0.99621 0.0
H791 H 0.04333 0.53456 0.89195 0.0
C792 C 0.05801 0.18099 0.3048 0.0
C793 C 0.0773 0.19713 0.36244 0.0
C794 C 0.04628 0.1807 0.48331 0.0
C795 C 0.0268 0.16535 0.42539 0.0
N796 N 1.01579 0.14737 0.28229 0.0
N797 N 0.09469 0.20585 0.50591 0.0
C798 C 0.03367 0.16381 0.33709 0.0
C799 C 0.07306 0.19459 0.45178 0.0
N800 N 0.06084 0.18284 0.21818 0.0
N801 N 0.03828 0.18346 0.56742 0.0
H802 H 0.11476 0.21555 0.48342 0.0
H803 H 0.09399 0.20337 0.57196 0.0
H804 H 0.01979 0.1721 0.59393 0.0
H805 H 0.0486 0.1988 0.60911 0.0
H806 H 0.07721 0.19555 0.18639 0.0
H807 H 0.07721 0.19555 0.18639 0.0
H808 H 0.02005 0.14603 0.21664 0.0
H809 H 0.99722 0.13463 0.30253 0.0
C810 C 0.35405 0.06469 0.45132 0.0
C811 C 0.35013 0.06726 0.36194 0.0
C812 C 0.37428 0.01803 0.33895 0.0
C813 C 0.37564 1.01427 0.42866 0.0
N814 N 0.36504 0.03206 0.57168 0.0
N815 N 0.35607 0.04527 0.21915 0.0
C816 C 0.36523 0.03719 0.48549 0.0
C817 C 0.36035 0.04402 0.30542 0.0
N818 N 0.34678 0.08875 0.50279 0.0
N819 N 0.38554 0.99633 0.28478 0.0
H820 H 0.3454 0.06301 0.18747 0.0
H821 H 0.3454 0.06301 0.18747 0.0
H822 H 0.39605 0.97664 0.30616 0.0
H823 H 0.38475 0.99839 0.2183 0.0
H824 H 0.34869 0.08886 0.5688 0.0
H825 H 0.34005 0.10963 0.47843 0.0
H826 H 0.35413 0.04595 0.6159 0.0
H827 H 0.37387 1.01252 0.59911 0.0
C828 C 0.46051 0.37393 0.3793 0.0
C829 C 0.46874 0.34792 0.33192 0.0
C830 C 0.51985 0.36822 0.30959 0.0
C831 C 0.50952 0.39647 0.34091 0.0
N832 N 0.47262 0.42565 0.41901 0.0
N833 N 0.50642 0.31839 0.25615 0.0
C834 C 0.48073 0.39903 0.38106 0.0
C835 C 0.49877 0.34413 0.30027 0.0
N836 N 0.43265 0.37479 0.41805 0.0
N837 N 0.54982 0.36462 0.28924 0.0
H838 H 0.49198 0.29982 0.24998 0.0
H839 H 0.5266 0.31577 0.22228 0.0
H840 H 0.56564 0.38209 0.2958 0.0
H841 H 0.55957 0.34388 0.27341 0.0
H842 H 0.42377 0.39319 0.45132 0.0
H843 H 0.41827 0.35599 0.41894 0.0
H844 H 0.45316 0.42828 0.4553 0.0
H845 H 0.48598 0.44506 0.41665 0.0
C846 C 0.20481 0.50053 0.305 0.0
C847 C 0.20403 0.47844 0.37033 0.0
C848 C 0.16995 0.51046 0.45275 0.0
C849 C 0.164 0.52738 0.37786 0.0
N850 N 0.18909 0.55083 0.25992 0.0
N851 N 0.18662 0.46251 0.50887 0.0
C852 C 0.18596 0.52643 0.31213 0.0
C853 C 0.18691 0.48341 0.44528 0.0
N854 N 0.22272 0.49515 0.23541 0.0
N855 N 0.16458 0.52275 0.53145 0.0
H856 H 0.1994 0.44266 0.50593 0.0
H857 H 0.17179 0.46418 0.56062 0.0
H858 H 0.16003 0.5458 0.53871 0.0
H859 H 0.17024 0.51187 0.58822 0.0
H860 H 0.22339 0.50864 0.181 0.0
H861 H 0.22339 0.50864 0.181 0.0
H862 H 0.20623 0.55311 0.2146 0.0
H863 H 0.1758 0.57018 0.26881 0.0
C864 C 0.98168 0.84065 0.8896 0.0
C865 C 0.97049 0.84709 0.97267 0.0
C866 C 1.00931 0.88571 0.99471 0.0
C867 C 0.02153 0.87823 0.91318 0.0
N868 N 1.01589 0.85458 0.77456 0.0
N869 N 0.96713 0.88062 0.09377 0.0
C870 C 1.00639 0.85777 0.85742 0.0
C871 C 0.98189 0.8718 0.02082 0.0
N872 N 0.97 0.81665 0.84488 0.0
N873 N 0.02459 0.90508 0.04826 0.0
H874 H 0.94684 0.87059 0.11309 0.0
H875 H 0.97335 0.89915 0.13127 0.0
H876 H 0.04461 0.91608 0.03104 0.0
H877 H 0.01855 0.90905 0.11171 0.0
H878 H 0.97952 0.80802 0.78883 0.0
H879 H 0.95107 0.80468 0.86654 0.0
H880 H 1.00427 0.84188 0.72871 0.0
H881 H 0.03431 0.86656 0.74985 0.0
C882 C 0.65706 0.98612 0.01645 0.0
C883 C 0.68844 0.98173 1.00483 0.0
C884 C 0.69074 0.03017 0.93036 0.0
C885 C 0.6615 0.03745 0.96315 0.0
N886 N 0.61994 0.02346 0.05637 0.0
N887 N 0.73653 1.00166 0.95401 0.0
C888 C 0.64534 1.01563 1.01122 0.0
C889 C 0.70576 1.00412 0.96159 0.0
N890 N 0.6391 0.96241 0.03901 0.0
N891 N 0.7037 0.04713 0.86734 0.0
H892 H 0.74881 0.98295 0.97407 0.0
H893 H 0.75013 0.01931 0.93213 0.0
H894 H 0.69258 0.06499 0.83768 0.0
H895 H 0.72386 0.04094 0.83698 0.0
H896 H 0.61564 0.96441 0.04492 0.0
H897 H 0.64776 0.94046 0.04295 0.0
H898 H 0.60889 1.00858 0.09747 0.0
H899 H 0.6121 0.0457 0.06048 0.0
C900 C 0.5571 0.68008 0.09265 0.0
C901 C 0.56235 0.69999 0.02299 0.0
C902 C 0.51726 0.68012 0.95094 0.0
C903 C 0.51437 0.65791 1.0156 0.0
N904 N 0.53631 0.6338 0.14119 0.0
N905 N 0.5509 0.71492 0.87845 0.0
C906 C 0.53549 0.65692 0.08393 0.0
C907 C 0.54343 0.6988 0.94972 0.0
N908 N 0.57224 0.68318 0.1686 0.0
N909 N 0.49467 0.68376 0.89204 0.0
H910 H 0.57048 0.72817 0.8749 0.0
H911 H 0.5394 0.71281 0.82049 0.0
H912 H 0.47481 0.67086 0.89268 0.0
H913 H 0.4943 0.7014 0.84824 0.0
H914 H 0.5691 0.66824 0.21926 0.0
H915 H 0.58581 0.70169 0.18427 0.0
H916 H 0.52278 0.61444 0.13802 0.0
H917 H 0.52278 0.61444 0.13802 0.0
C918 C 0.89392 0.58642 0.02206 0.0
C919 C 0.86384 0.57918 0.99928 0.0
C920 C 0.87903 0.52848 0.95363 0.0
C921 C 0.90724 0.53357 0.99507 0.0
N922 N 0.945 0.56826 0.04888 0.0
N923 N 0.82828 0.54763 0.92473 0.0
C924 C 0.91597 0.56307 0.02185 0.0
C925 C 0.85694 0.55185 0.95589 0.0
N926 N 0.9 0.615 0.05139 0.0
N927 N 0.87338 0.50134 0.91409 0.0
H928 H 0.8125 0.5652 0.92358 0.0
H929 H 0.82006 0.52732 0.8999 0.0
H930 H 0.88877 0.48344 0.9145 0.0
H931 H 0.85418 0.49676 0.87757 0.0
H932 H 0.92078 0.62227 0.07532 0.0
H933 H 0.88344 0.6319 0.0501 0.0
H934 H 0.95263 0.58886 0.07228 0.0
H935 H 0.96201 0.55188 0.04658 0.0
C936 C 0.02314 0.14703 0.86816 0.0
C937 C 0.04617 0.16414 0.82679 0.0
C938 C 0.05731 0.11776 0.7396 0.0
C939 C 0.0303 0.10303 0.76824 0.0
N940 N 0.98683 0.1062 0.86258 0.0
N941 N 0.08326 0.16524 0.7129 0.0
C942 C 1.01297 0.11871 0.83251 0.0
C943 C 0.06286 0.1492 0.76018 0.0
N944 N 1.01241 0.15645 0.94603 0.0
N945 N 0.07836 0.10188 0.69434 0.0
H946 H 0.08674 0.1884 0.72115 0.0
H947 H 0.09394 0.15643 0.65869 0.0
H948 H 0.07556 0.07925 0.6792 0.0
H949 H 0.09998 0.11014 0.68068 0.0
H950 H 0.99795 0.14343 0.98359 0.0
H951 H 0.02091 0.17532 0.9785 0.0
H952 H 0.97081 0.11839 0.8978 0.0
H953 H 0.98115 0.08374 0.85161 0.0
C954 C 0.39756 0.06865 0.75546 0.0
C955 C 0.38219 0.05433 0.82471 0.0
C956 C 0.42331 0.01665 0.82773 0.0
C957 C 0.44101 0.03239 0.76425 0.0
N958 N 0.44472 0.07855 0.68165 0.0
N959 N 0.3893 0.02281 0.94793 0.0
C960 C 0.42818 0.06009 0.73308 0.0
C961 C 0.39782 0.03093 0.86723 0.0
N962 N 0.38261 0.08961 0.70768 0.0
N963 N 0.42941 0.9875 0.85029 0.0
H964 H 0.37229 0.034 0.98205 0.0
H965 H 0.4019 1.00778 0.98482 0.0
H966 H 0.44575 0.97392 0.82261 0.0
H967 H 0.41511 0.97517 0.89026 0.0
H968 H 0.39163 0.09916 0.65252 0.0
H969 H 0.35982 0.0949 0.71694 0.0
H970 H 0.43835 0.10061 0.66703 0.0
H971 H 0.46626 0.07329 0.66068 0.0
C972 C 0.48443 0.39322 0.85579 0.0
C973 C 0.4898 0.36742 0.80344 0.0
C974 C 0.50272 0.40181 0.68466 0.0
C975 C 0.50134 0.42754 0.74069 0.0
N976 N 0.49982 0.44431 0.88843 0.0
N977 N 0.50881 0.34721 0.67048 0.0
C978 C 0.49446 0.42233 0.82861 0.0
C979 C 0.5004 0.37175 0.71854 0.0
N980 N 0.46928 0.39021 0.93153 0.0
N981 N 0.50471 0.40586 0.59845 0.0
H982 H 0.50698 0.32507 0.69266 0.0
H983 H 0.51997 0.34898 0.61194 0.0
H984 H 0.50405 0.42712 0.57063 0.0
H985 H 0.50344 0.38816 0.55421 0.0
H986 H 0.46197 0.40877 0.96761 0.0
H987 H 0.46132 0.36943 0.95365 0.0
H988 H 0.49781 0.44063 0.954 0.0
H989 H 0.50969 0.46498 0.87356 0.0
C990 C 0.15778 0.46863 0.75516 0.0
C991 C 0.17294 0.49001 0.80985 0.0
C992 C 0.13389 0.52697 0.76773 0.0
C993 C 0.11466 0.50402 0.73258 0.0
N994 N 0.11059 0.45161 0.68955 0.0
N995 N 0.16802 0.53813 0.88408 0.0
C996 C 0.12718 0.47429 0.72644 0.0
C997 C 0.15887 0.51877 0.82073 0.0
N998 N 0.17318 0.44385 0.7257 0.0
N999 N 0.13024 0.55656 0.74659 0.0
H1000 H 0.18385 0.53221 0.93049 0.0
H1001 H 0.15678 0.55846 0.89662 0.0
H1002 H 0.1164 0.56331 0.69647 0.0
H1003 H 0.14488 0.57349 0.76862 0.0
H1004 H 0.16422 0.42852 0.68147 0.0
H1005 H 0.19626 0.44068 0.73711 0.0
H1006 H 0.11678 0.4289 0.69261 0.0
H1007 H 0.08996 0.45543 0.65902 0.0
C1008 C 0.97338 0.89908 0.54798 0.0
C1009 C 0.99655 0.87787 0.52381 0.0
C1010 C 0.03348 0.919 0.54324 0.0
C1011 C 1.01181 0.93944 0.58038 0.0
N1012 N 0.96015 0.9441 0.63113 0.0
N1013 N 0.04996 0.86706 0.53184 0.0
C1014 C 0.98139 0.92808 0.58672 0.0
C1015 C 0.02691 0.88765 0.5329 0.0
N1016 N 0.94376 0.89229 0.53137 0.0
N1017 N 0.05997 0.92968 0.51067 0.0
H1018 H 0.04611 0.84376 0.52837 0.0
H1019 H 0.0724 0.87315 0.5447 0.0
H1020 H 0.0632 0.9526 0.50181 0.0
H1021 H 0.07566 0.91595 0.4789 0.0
H1022 H 0.92627 0.90793 0.53923 0.0
H1023 H 0.93712 0.87203 0.50232 0.0
H1024 H 0.93859 0.93567 0.64462 0.0
H1025 H 0.96495 0.9647 0.66035 0.0
C1026 C 0.66301 1.00391 0.6458 0.0
C1027 C 0.67005 0.99822 0.55802 0.0
C1028 C 0.61561 0.98882 0.53686 0.0
C1029 C 0.6076 1.00396 0.61325 0.0
N1030 N 0.62506 0.01776 0.75243 0.0
N1031 N 0.65017 0.98459 0.41833 0.0
C1032 C 0.63189 1.00904 0.67145 0.0
C1033 C 0.64538 0.99154 0.50236 0.0
N1034 N 0.68579 1.00359 0.70486 0.0
N1035 N 0.59936 0.96408 0.51499 0.0
H1036 H 0.67163 0.9844 0.3902 0.0
H1037 H 0.63207 0.98042 0.37673 0.0
H1038 H 0.58415 0.95546 0.55966 0.0
H1039 H 0.60564 0.94958 0.46492 0.0
H1040 H 0.68184 1.00145 0.77011 0.0
H1041 H 0.70867 1.00259 0.68813 0.0
H1042 H 0.64151 0.02329 0.79728 0.0
H1043 H 0.60265 0.01873 0.77354 0.0
C1044 C 0.5658 0.66223 0.60851 0.0
C1045 C 0.55595 0.6734 0.52792 0.0
C1046 C 0.5332 0.62299 0.49775 0.0
C1047 C 0.54458 0.61148 0.57636 0.0
N1048 N 0.58118 0.61808 0.68876 0.0
N1049 N 0.53561 0.66161 0.38809 0.0
C1050 C 0.56345 0.63059 0.62699 0.0
C1051 C 0.54087 0.65304 0.47067 0.0
N1052 N 0.57701 0.6819 0.66848 0.0
N1053 N 0.51536 0.60499 0.44763 0.0
H1054 H 0.54168 0.68268 0.36408 0.0
H1055 H 0.52776 0.64695 0.34055 0.0
H1056 H 0.51249 0.58216 0.46003 0.0
H1057 H 0.50252 0.61286 0.39655 0.0
H1058 H 0.58189 0.67549 0.73103 0.0
H1059 H 0.57847 0.70516 0.65812 0.0
H1060 H 0.59739 0.6303 0.72317 0.0
H1061 H 0.58235 0.59472 0.69727 0.0
C1062 C 0.86794 0.54715 0.63377 0.0
C1063 C 0.86083 0.54972 0.54509 0.0
C1064 C 0.9155 0.54145 0.51278 0.0
C1065 C 0.92303 0.54111 0.60175 0.0
N1066 N 0.90603 0.55081 0.74588 0.0
N1067 N 0.88012 0.55707 0.4024 0.0
C1068 C 0.89908 0.54592 0.66184 0.0
C1069 C 0.88532 0.54908 0.48541 0.0
N1070 N 0.8449 0.54473 0.69174 0.0
N1071 N 0.93676 0.53311 0.45347 0.0
H1072 H 0.85885 0.56362 0.38007 0.0
H1073 H 0.89745 0.56034 0.35803 0.0
H1074 H 0.95887 0.52703 0.46922 0.0
H1075 H 0.93165 0.52945 0.38914 0.0
H1076 H 0.84846 0.53942 0.7557 0.0
H1077 H 0.82207 0.54522 0.67436 0.0
H1078 H 0.89025 0.55847 0.79065 0.0
H1079 H 0.92817 0.55047 0.76891 0.0
loop_
_geom_bond_atom_site_label_1
_geom_bond_atom_site_label_2
_geom_bond_distance
_geom_bond_site_symmetry_2
_ccdc_geom_bond_type
C0 C1 1.386 . S
C0 C2 1.397 . S
C0 H24 0.931 1_554 S
C1 C0 1.386 . S
C1 C5 1.397 . S
C2 C0 1.397 . S
C2 C3 1.384 . S
C2 H25 0.930 . S
C3 C2 1.384 . S
C3 C4 1.377 . S
C3 C6 1.481 . S
C4 C3 1.377 . S
C4 C5 1.389 . S
C4 H26 0.929 . S
C5 C1 1.397 . S
C5 C4 1.389 . S
C5 H27 0.931 . S
C6 C3 1.481 . S
C6 C7 1.387 . S
C6 C11 1.390 . S
C7 C6 1.387 . S
C7 C8 1.401 . S
C7 H28 0.930 . S
C8 C7 1.401 . S
C8 C9 1.376 . S
C8 C17 1.511 . S
C9 C8 1.376 . S
C9 C10 1.392 . S
C9 H30 0.931 . S
C10 C9 1.392 . S
C10 C11 1.361 . S
C10 C12 1.500 . S
C11 C6 1.390 . S
C11 C10 1.361 . S
C11 H29 0.931 . S
C12 C10 1.500 . S
C12 C13 1.371 . S
C12 C14 1.365 . S
C13 C12 1.371 . S
C13 C23 1.386 . S
C13 H31 0.931 . S
C14 C12 1.365 . S
C14 C15 1.409 . S
C14 H32 0.929 . S
C15 C14 1.409 . S
C15 C16 1.380 . S
C15 H33 0.930 . S
C16 C15 1.380 . S
C16 C23 1.357 . S
C17 C8 1.511 . S
C17 C18 1.341 . S
C17 C19 1.371 . S
C18 C17 1.341 . S
C18 C22 1.394 . S
C18 H34 0.930 . S
C19 C17 1.371 . S
C19 C20 1.392 . S
C19 H35 0.931 . S
C20 C19 1.392 . S
C20 C21 1.331 . S
C20 H38 0.932 . S
C21 C20 1.331 . S
C21 C22 1.336 . S
C22 C18 1.394 . S
C22 C21 1.336 . S
C22 H37 0.929 . S
C23 C13 1.386 . S
C23 C16 1.357 . S
C23 H36 0.928 . S
H24 C0 0.931 1_556 S
H25 C2 0.930 . S
H26 C4 0.929 . S
H27 C5 0.931 . S
H28 C7 0.930 . S
H29 C11 0.931 . S
H30 C9 0.931 . S
H31 C13 0.931 . S
H32 C14 0.929 . S
H33 C15 0.930 . S
H34 C18 0.930 . S
H35 C19 0.931 . S
H36 C23 0.928 . S
H37 C22 0.929 . S
H38 C20 0.932 . S
C39 C40 1.386 . S
C39 C41 1.397 . S
C39 H63 0.931 1_554 S
C40 C39 1.386 . S
C40 C44 1.397 . S
C41 C39 1.397 . S
C41 C42 1.384 . S
C41 H64 0.930 . S
C42 C41 1.384 . S
C42 C43 1.377 . S
C42 C45 1.481 . S
C43 C42 1.377 . S
C43 C44 1.389 . S
C43 H65 0.929 . S
C44 C40 1.397 . S
C44 C43 1.389 . S
C44 H66 0.931 . S
C45 C42 1.481 . S
C45 C46 1.387 . S
C45 C50 1.390 . S
C46 C45 1.387 . S
C46 C47 1.401 . S
C46 H67 0.930 . S
C47 C46 1.401 . S
C47 C48 1.376 . S
C47 C56 1.511 . S
C48 C47 1.376 . S
C48 C49 1.392 . S
C48 H69 0.931 . S
C49 C48 1.392 . S
C49 C50 1.361 . S
C49 C51 1.500 . S
C50 C45 1.390 . S
C50 C49 1.361 . S
C50 H68 0.931 . S
C51 C49 1.500 . S
C51 C52 1.371 . S
C51 C53 1.365 . S
C52 C51 1.371 . S
C52 C62 1.386 . S
C52 H70 0.931 . S
C53 C51 1.365 . S
C53 C54 1.409 . S
C53 H71 0.929 . S
C54 C53 1.409 . S
C54 C55 1.380 . S
C54 H72 0.930 . S
C55 C54 1.380 . S
C55 C62 1.357 . S
C56 C47 1.511 . S
C56 C57 1.341 . S
C56 C58 1.371 . S
C57 C56 1.341 . S
C57 C61 1.394 . S
C57 H73 0.930 . S
C58 C56 1.371 . S
C58 C59 1.392 . S
C58 H74 0.931 . S
C59 C58 1.392 . S
C59 C60 1.331 . S
C59 H77 0.932 . S
C60 C59 1.331 . S
C60 C61 1.336 . S
C61 C57 1.394 . S
C61 C60 1.336 . S
C61 H76 0.929 . S
C62 C52 1.386 . S
C62 C55 1.357 . S
C62 H75 0.928 . S
H63 C39 0.931 1_556 S
H64 C41 0.930 . S
H65 C43 0.929 . S
H66 C44 0.931 . S
H67 C46 0.930 . S
H68 C50 0.931 . S
H69 C48 0.931 . S
H70 C52 0.931 . S
H71 C53 0.929 . S
H72 C54 0.930 . S
H73 C57 0.930 . S
H74 C58 0.931 . S
H75 C62 0.928 . S
H76 C61 0.929 . S
H77 C59 0.932 . S
C78 C79 1.386 . S
C78 C80 1.397 . S
C78 H102 0.931 1_554 S
C79 C78 1.386 . S
C79 C83 1.397 . S
C80 C78 1.397 . S
C80 C81 1.384 . S
C80 H103 0.930 . S
C81 C80 1.384 . S
C81 C82 1.377 . S
C81 C84 1.481 . S
C82 C81 1.377 . S
C82 C83 1.389 . S
C82 H104 0.929 . S
C83 C79 1.397 . S
C83 C82 1.389 . S
C83 H105 0.931 . S
C84 C81 1.481 . S
C84 C85 1.387 . S
C84 C89 1.390 . S
C85 C84 1.387 . S
C85 C86 1.401 . S
C85 H106 0.930 . S
C86 C85 1.401 . S
C86 C87 1.376 . S
C86 C95 1.511 . S
C87 C86 1.376 . S
C87 C88 1.392 . S
C87 H108 0.931 . S
C88 C87 1.392 . S
C88 C89 1.361 . S
C88 C90 1.500 . S
C89 C84 1.390 . S
C89 C88 1.361 . S
C89 H107 0.931 . S
C90 C88 1.500 . S
C90 C91 1.371 . S
C90 C92 1.365 . S
C91 C90 1.371 . S
C91 C101 1.386 . S
C91 H109 0.931 . S
C92 C90 1.365 . S
C92 C93 1.409 . S
C92 H110 0.929 . S
C93 C92 1.409 . S
C93 C94 1.380 . S
C93 H111 0.930 . S
C94 C93 1.380 . S
C94 C101 1.357 . S
C95 C86 1.511 . S
C95 C96 1.341 . S
C95 C97 1.371 . S
C96 C95 1.341 . S
C96 C100 1.394 . S
C96 H112 0.930 . S
C97 C95 1.371 . S
C97 C98 1.392 . S
C97 H113 0.931 . S
C98 C97 1.392 . S
C98 C99 1.331 . S
C98 H116 0.932 . S
C99 C98 1.331 . S
C99 C100 1.336 . S
C100 C96 1.394 . S
C100 C99 1.336 . S
C100 H115 0.929 . S
C101 C91 1.386 . S
C101 C94 1.357 . S
C101 H114 0.928 . S
H102 C78 0.931 1_556 S
H103 C80 0.930 . S
H104 C82 0.929 . S
H105 C83 0.931 . S
H106 C85 0.930 . S
H107 C89 0.931 . S
H108 C87 0.931 . S
H109 C91 0.931 . S
H110 C92 0.929 . S
H111 C93 0.930 . S
H112 C96 0.930 . S
H113 C97 0.931 . S
H114 C101 0.928 . S
H115 C100 0.929 . S
H116 C98 0.932 . S
C117 C118 1.386 . S
C117 C119 1.397 . S
C117 H141 0.931 . S
C118 C117 1.386 . S
C118 C122 1.397 . S
C119 C117 1.397 . S
C119 C120 1.384 . S
C119 H142 0.930 . S
C120 C119 1.384 . S
C120 C121 1.377 . S
C120 C123 1.481 . S
C121 C120 1.377 . S
C121 C122 1.389 . S
C121 H143 0.929 . S
C122 C118 1.397 . S
C122 C121 1.389 . S
C122 H144 0.931 . S
C123 C120 1.481 . S
C123 C124 1.387 . S
C123 C128 1.390 . S
C124 C123 1.387 . S
C124 C125 1.401 . S
C124 H145 0.930 . S
C125 C124 1.401 . S
C125 C126 1.376 . S
C125 C134 1.511 . S
C126 C125 1.376 . S
C126 C127 1.392 . S
C126 H147 0.931 . S
C127 C126 1.392 . S
C127 C128 1.361 . S
C127 C129 1.500 . S
C128 C123 1.390 . S
C128 C127 1.361 . S
C128 H146 0.931 . S
C129 C127 1.500 . S
C129 C130 1.371 . S
C129 C131 1.365 . S
C130 C129 1.371 . S
C130 C140 1.386 . S
C130 H148 0.931 . S
C131 C129 1.365 . S
C131 C132 1.409 . S
C131 H149 0.929 . S
C132 C131 1.409 . S
C132 C133 1.380 . S
C132 H150 0.930 . S
C133 C132 1.380 . S
C133 C140 1.357 . S
C134 C125 1.511 . S
C134 C135 1.341 . S
C134 C136 1.371 . S
C135 C134 1.341 . S
C135 C139 1.394 . S
C135 H151 0.930 . S
C136 C134 1.371 . S
C136 C137 1.392 . S
C136 H152 0.931 . S
C137 C136 1.392 . S
C137 C138 1.331 . S
C137 H155 0.932 . S
C138 C137 1.331 . S
C138 C139 1.336 . S
C139 C135 1.394 . S
C139 C138 1.336 . S
C139 H154 0.929 . S
C140 C130 1.386 . S
C140 C133 1.357 . S
C140 H153 0.928 1_554 S
H141 C117 0.931 . S
H142 C119 0.930 . S
H143 C121 0.929 . S
H144 C122 0.931 . S
H145 C124 0.930 . S
H146 C128 0.931 . S
H147 C126 0.931 . S
H148 C130 0.931 . S
H149 C131 0.929 . S
H150 C132 0.930 . S
H151 C135 0.930 . S
H152 C136 0.931 . S
H153 C140 0.928 1_556 S
H154 C139 0.929 . S
H155 C137 0.932 . S
C156 C157 1.386 . S
C156 C158 1.397 . S
C156 H180 0.931 . S
C157 C156 1.386 . S
C157 C161 1.397 . S
C158 C156 1.397 . S
C158 C159 1.384 . S
C158 H181 0.930 . S
C159 C158 1.384 . S
C159 C160 1.377 . S
C159 C162 1.481 . S
C160 C159 1.377 . S
C160 C161 1.389 . S
C160 H182 0.929 . S
C161 C157 1.397 . S
C161 C160 1.389 . S
C161 H183 0.931 . S
C162 C159 1.481 . S
C162 C163 1.387 . S
C162 C167 1.390 . S
C163 C162 1.387 . S
C163 C164 1.401 . S
C163 H184 0.930 . S
C164 C163 1.401 . S
C164 C165 1.376 1_554 S
C164 C173 1.511 . S
C165 C164 1.376 1_556 S
C165 C166 1.392 . S
C165 H186 0.931 . S
C166 C165 1.392 . S
C166 C167 1.361 1_556 S
C166 C168 1.500 . S
C167 C162 1.390 . S
C167 C166 1.361 1_554 S
C167 H185 0.931 1_554 S
C168 C166 1.500 . S
C168 C169 1.371 . S
C168 C170 1.365 . S
C169 C168 1.371 . S
C169 C179 1.386 . S
C169 H187 0.931 . S
C170 C168 1.365 . S
C170 C171 1.409 . S
C170 H188 0.929 . S
C171 C170 1.409 . S
C171 C172 1.380 . S
C171 H189 0.930 . S
C172 C171 1.380 . S
C172 C179 1.357 . S
C173 C164 1.511 . S
C173 C174 1.341 . S
C173 C175 1.371 . S
C174 C173 1.341 . S
C174 C178 1.394 . S
C174 H190 0.930 . S
C175 C173 1.371 . S
C175 C176 1.392 . S
C175 H191 0.931 1_554 S
C176 C175 1.392 . S
C176 C177 1.331 . S
C176 H194 0.932 1_554 S
C177 C176 1.331 . S
C177 C178 1.336 . S
C178 C174 1.394 . S
C178 C177 1.336 . S
C178 H193 0.929 . S
C179 C169 1.386 . S
C179 C172 1.357 . S
C179 H192 0.928 . S
H180 C156 0.931 . S
H181 C158 0.930 . S
H182 C160 0.929 . S
H183 C161 0.931 . S
H184 C163 0.930 . S
H185 C167 0.931 1_556 S
H186 C165 0.931 . S
H187 C169 0.931 . S
H188 C170 0.929 . S
H189 C171 0.930 . S
H190 C174 0.930 . S
H191 C175 0.931 1_556 S
H192 C179 0.928 . S
H193 C178 0.929 . S
H194 C176 0.932 1_556 S
C195 C196 1.386 . S
C195 C197 1.397 . S
C195 H219 0.931 . S
C196 C195 1.386 . S
C196 C200 1.397 . S
C197 C195 1.397 . S
C197 C198 1.384 . S
C197 H220 0.930 . S
C198 C197 1.384 . S
C198 C199 1.377 . S
C198 C201 1.481 . S
C199 C198 1.377 . S
C199 C200 1.389 . S
C199 H221 0.929 . S
C200 C196 1.397 . S
C200 C199 1.389 . S
C200 H222 0.931 . S
C201 C198 1.481 . S
C201 C202 1.387 . S
C201 C206 1.390 . S
C202 C201 1.387 . S
C202 C203 1.401 . S
C202 H223 0.930 . S
C203 C202 1.401 . S
C203 C204 1.376 1_554 S
C203 C212 1.511 . S
C204 C203 1.376 1_556 S
C204 C205 1.392 . S
C204 H225 0.931 . S
C205 C204 1.392 . S
C205 C206 1.361 1_556 S
C205 C207 1.500 . S
C206 C201 1.390 . S
C206 C205 1.361 1_554 S
C206 H224 0.931 1_554 S
C207 C205 1.500 . S
C207 C208 1.371 . S
C207 C209 1.365 . S
C208 C207 1.371 . S
C208 C218 1.386 . S
C208 H226 0.931 . S
C209 C207 1.365 . S
C209 C210 1.409 . S
C209 H227 0.929 . S
C210 C209 1.409 . S
C210 C211 1.380 . S
C210 H228 0.930 . S
C211 C210 1.380 . S
C211 C218 1.357 . S
C212 C203 1.511 . S
C212 C213 1.341 . S
C212 C214 1.371 . S
C213 C212 1.341 . S
C213 C217 1.394 . S
C213 H229 0.930 . S
C214 C212 1.371 . S
C214 C215 1.392 . S
C214 H230 0.931 1_554 S
C215 C214 1.392 . S
C215 C216 1.331 . S
C215 H233 0.932 1_554 S
C216 C215 1.331 . S
C216 C217 1.336 . S
C217 C213 1.394 . S
C217 C216 1.336 . S
C217 H232 0.929 . S
C218 C208 1.386 . S
C218 C211 1.357 . S
C218 H231 0.928 . S
H219 C195 0.931 . S
H220 C197 0.930 . S
H221 C199 0.929 . S
H222 C200 0.931 . S
H223 C202 0.930 . S
H224 C206 0.931 1_556 S
H225 C204 0.931 . S
H226 C208 0.931 . S
H227 C209 0.929 . S
H228 C210 0.930 . S
H229 C213 0.930 . S
H230 C214 0.931 1_556 S
H231 C218 0.928 . S
H232 C217 0.929 . S
H233 C215 0.932 1_556 S
C234 C235 1.386 . S
C234 C236 1.397 . S
C234 H258 0.931 . S
C235 C234 1.386 . S
C235 C239 1.397 . S
C236 C234 1.397 . S
C236 C237 1.384 . S
C236 H259 0.930 . S
C237 C236 1.384 . S
C237 C238 1.377 . S
C237 C240 1.481 . S
C238 C237 1.377 . S
C238 C239 1.389 . S
C238 H260 0.929 . S
C239 C235 1.397 . S
C239 C238 1.389 . S
C239 H261 0.931 . S
C240 C237 1.481 . S
C240 C241 1.387 . S
C240 C245 1.390 1_554 S
C241 C240 1.387 . S
C241 C242 1.401 . S
C241 H262 0.930 . S
C242 C241 1.401 . S
C242 C243 1.376 1_554 S
C242 C251 1.511 . S
C243 C242 1.376 1_556 S
C243 C244 1.392 . S
C243 H264 0.931 . S
C244 C243 1.392 . S
C244 C245 1.362 . S
C244 C246 1.500 . S
C245 C240 1.390 1_556 S
C245 C244 1.362 . S
C245 H263 0.931 . S
C246 C244 1.500 . S
C246 C247 1.371 . S
C246 C248 1.365 . S
C247 C246 1.371 . S
C247 C257 1.386 . S
C247 H265 0.931 . S
C248 C246 1.365 . S
C248 C249 1.409 . S
C248 H266 0.929 . S
C249 C248 1.409 . S
C249 C250 1.380 . S
C249 H267 0.930 . S
C250 C249 1.380 . S
C250 C257 1.357 . S
C251 C242 1.511 . S
C251 C252 1.341 . S
C251 C253 1.371 . S
C252 C251 1.341 . S
C252 C256 1.394 . S
C252 H268 0.930 . S
C253 C251 1.371 . S
C253 C254 1.392 . S
C253 H269 0.931 1_554 S
C254 C253 1.392 . S
C254 C255 1.331 . S
C254 H272 0.932 1_554 S
C255 C254 1.331 . S
C255 C256 1.336 . S
C256 C252 1.394 . S
C256 C255 1.336 . S
C256 H271 0.929 . S
C257 C247 1.386 . S
C257 C250 1.357 . S
C257 H270 0.928 . S
H258 C234 0.931 . S
H259 C236 0.930 . S
H260 C238 0.929 . S
H261 C239 0.931 . S
H262 C241 0.930 . S
H263 C245 0.931 . S
H264 C243 0.931 . S
H265 C247 0.931 . S
H266 C248 0.929 . S
H267 C249 0.930 . S
H268 C252 0.930 . S
H269 C253 0.931 1_556 S
H270 C257 0.928 . S
H271 C256 0.929 . S
H272 C254 0.932 1_556 S
C273 C274 1.386 . S
C273 C275 1.397 . S
C273 H297 0.931 . S
C274 C273 1.386 . S
C274 C278 1.397 . S
C275 C273 1.397 . S
C275 C276 1.384 . S
C275 H298 0.930 . S
C276 C275 1.384 . S
C276 C277 1.377 . S
C276 C279 1.481 . S
C277 C276 1.377 . S
C277 C278 1.389 . S
C277 H299 0.929 . S
C278 C274 1.397 . S
C278 C277 1.389 . S
C278 H300 0.931 . S
C279 C276 1.481 . S
C279 C280 1.387 . S
C279 C284 1.390 1_556 S
C280 C279 1.387 . S
C280 C281 1.401 1_556 S
C280 H301 0.930 . S
C281 C280 1.401 1_554 S
C281 C282 1.376 . S
C281 C290 1.511 . S
C282 C281 1.376 . S
C282 C283 1.392 . S
C282 H303 0.931 . S
C283 C282 1.392 . S
C283 C284 1.361 . S
C283 C285 1.500 . S
C284 C279 1.390 1_554 S
C284 C283 1.361 . S
C284 H302 0.931 1_554 S
C285 C283 1.500 . S
C285 C286 1.371 . S
C285 C287 1.365 . S
C286 C285 1.371 . S
C286 C296 1.386 . S
C286 H304 0.931 . S
C287 C285 1.365 . S
C287 C288 1.409 . S
C287 H305 0.929 . S
C288 C287 1.409 . S
C288 C289 1.380 . S
C288 H306 0.930 . S
C289 C288 1.380 . S
C289 C296 1.357 . S
C290 C281 1.511 . S
C290 C291 1.341 . S
C290 C292 1.371 . S
C291 C290 1.341 . S
C291 C295 1.394 . S
C291 H307 0.930 1_554 S
C292 C290 1.371 . S
C292 C293 1.392 . S
C292 H308 0.931 . S
C293 C292 1.392 . S
C293 C294 1.331 . S
C293 H311 0.932 . S
C294 C293 1.331 . S
C294 C295 1.336 . S
C295 C291 1.394 . S
C295 C294 1.336 . S
C295 H310 0.929 1_554 S
C296 C286 1.386 . S
C296 C289 1.357 . S
C296 H309 0.928 . S
H297 C273 0.931 . S
H298 C275 0.930 . S
H299 C277 0.929 . S
H300 C278 0.931 . S
H301 C280 0.930 . S
H302 C284 0.931 1_556 S
H303 C282 0.931 . S
H304 C286 0.931 . S
H305 C287 0.929 . S
H306 C288 0.930 . S
H307 C291 0.930 1_556 S
H308 C292 0.931 . S
H309 C296 0.928 . S
H310 C295 0.929 1_556 S
H311 C293 0.932 . S
Gd312 N343 2.661 1_545 S
Gd312 N349 2.601 . S
Gd312 O356 2.545 . S
Gd312 O357 2.606 1_655 S
Gd312 O359 2.429 . S
Gd312 O360 2.537 1_655 S
Gd312 O361 2.412 . S
Gd312 O363 2.362 1_545 S
Gd312 O364 2.324 1_655 S
Gd312 C371 2.828 . S
Gd313 N322 2.661 1_565 S
Gd313 N326 2.601 . S
Gd313 O357 2.362 1_565 S
Gd313 O358 2.324 1_455 S
Gd313 O362 2.545 . S
Gd313 O363 2.606 1_455 S
Gd313 O365 2.429 . S
Gd313 O366 2.545 . S
Gd313 O367 2.412 . S
Gd313 C380 2.828 . S
C314 C317 1.417 . S
C314 C319 1.431 1_556 S
C314 C320 1.412 1_556 S
C315 C318 1.437 . S
C315 C319 1.317 1_556 S
C315 H334 0.929 . S
C316 C317 1.426 . S
C316 C318 1.413 . S
C316 N326 1.359 1_545 S
C317 C314 1.417 . S
C317 C316 1.426 . S
C317 N322 1.350 . S
C318 C315 1.437 . S
C318 C316 1.413 . S
C318 C328 1.391 . S
C319 C314 1.431 1_554 S
C319 C315 1.317 1_554 S
C319 H330 0.930 . S
C320 C314 1.412 1_554 S
C320 C321 1.355 1_554 S
C320 H332 0.930 . S
C321 C320 1.355 1_556 S
C321 C323 1.402 . S
C321 H333 0.930 1_456 S
N322 Gd313 2.661 1_545 S
N322 C317 1.350 . S
N322 C323 1.307 . S
C323 C321 1.402 . S
C323 N322 1.307 . S
C323 H324 0.930 1_455 S
H324 C323 0.930 1_655 S
C325 N326 1.334 . S
C325 C327 1.394 . S
C325 H329 0.930 . S
N326 Gd313 2.601 . S
N326 C316 1.359 1_565 S
N326 C325 1.334 . S
C327 C325 1.394 . S
C327 C328 1.359 1_565 S
C327 H339 0.930 . S
C328 C318 1.391 . S
C328 C327 1.359 1_545 S
C328 H340 0.929 . S
H329 C325 0.930 . S
H330 C319 0.930 . S
H331 C348 0.930 1_455 S
H332 C320 0.930 . S
H333 C321 0.930 1_654 S
H334 C315 0.929 . S
H335 C353 0.930 . S
H336 C344 0.930 . S
H337 C345 0.930 1_455 S
H338 C369 0.929 . S
H339 C327 0.930 . S
H340 C328 0.929 . S
H341 C370 0.930 . S
H342 C351 0.930 . S
N343 Gd312 2.661 1_565 S
N343 C347 1.350 . S
N343 C348 1.307 . S
C344 H336 0.930 . S
C344 C345 1.355 . S
C344 C346 1.412 . S
C345 H337 0.930 1_655 S
C345 C344 1.355 . S
C345 C348 1.402 . S
C346 C344 1.412 . S
C346 C347 1.417 . S
C346 C370 1.431 . S
C347 N343 1.350 . S
C347 C346 1.417 . S
C347 C350 1.426 1_565 S
C348 H331 0.930 1_655 S
C348 N343 1.307 . S
C348 C345 1.402 . S
N349 Gd312 2.601 . S
N349 C350 1.359 . S
N349 C353 1.334 . S
C350 C347 1.426 1_545 S
C350 N349 1.359 . S
C350 C354 1.413 1_545 S
C351 H342 0.930 . S
C351 C352 1.359 . S
C351 C353 1.394 . S
C352 C351 1.359 . S
C352 C354 1.391 1_545 S
C352 H355 0.929 . S
C353 H335 0.930 . S
C353 N349 1.334 . S
C353 C351 1.394 . S
C354 C350 1.413 1_565 S
C354 C352 1.391 1_565 S
C354 C369 1.437 . S
H355 C352 0.929 . S
O356 Gd312 2.545 . S
O356 C371 1.258 . S
O357 Gd312 2.606 1_455 S
O357 Gd313 2.362 1_545 S
O357 C368 1.284 . S
O358 Gd313 2.324 1_655 S
O358 C378 1.254 1_565 S
O359 Gd312 2.429 . S
O359 C378 1.268 . S
O360 Gd312 2.537 1_455 S
O360 C368 1.264 . S
O361 Gd312 2.412 . S
O361 C371 1.252 . S
O362 Gd313 2.545 . S
O362 C380 1.258 . S
O363 Gd312 2.362 1_565 S
O363 Gd313 2.606 1_655 S
O363 C379 1.284 . S
O364 Gd312 2.324 1_455 S
O364 C387 1.254 . S
O365 Gd313 2.429 . S
O365 C387 1.268 1_565 S
O366 Gd313 2.545 . S
O366 C379 1.250 1_455 S
O367 Gd313 2.412 . S
O367 C380 1.252 . S
C368 O357 1.284 . S
C368 O360 1.264 . S
C369 H338 0.929 . S
C369 C354 1.437 . S
C369 C370 1.317 . S
C370 H341 0.930 . S
C370 C346 1.431 . S
C370 C369 1.317 . S
C371 Gd312 2.828 . S
C371 O356 1.258 . S
C371 O361 1.252 . S
C371 C372 1.497 . S
C372 C371 1.497 . S
C372 C373 1.395 . S
C372 C374 1.380 . S
C373 C372 1.395 . S
C373 C376 1.398 . S
C373 H388 0.930 . S
C374 C372 1.380 . S
C374 C375 1.391 . S
C374 H389 0.930 1_655 S
C375 C374 1.391 . S
C375 C377 1.387 . S
C376 C373 1.398 . S
C376 C377 1.380 . S
C376 H390 0.930 . S
C377 C375 1.387 . S
C377 C376 1.380 . S
C377 H391 0.930 . S
C378 O358 1.254 1_545 S
C378 O359 1.268 . S
C379 O363 1.284 . S
C379 O366 1.250 1_655 S
C380 Gd313 2.828 . S
C380 O362 1.258 . S
C380 O367 1.252 . S
C380 C381 1.497 . S
C381 C380 1.497 . S
C381 C382 1.395 . S
C381 C383 1.380 . S
C382 C381 1.395 . S
C382 C385 1.398 . S
C382 H392 0.930 . S
C383 C381 1.380 . S
C383 C384 1.391 . S
C383 H393 0.930 . S
C384 C383 1.391 . S
C384 C386 1.387 . S
C385 C382 1.398 . S
C385 C386 1.380 . S
C385 H394 0.930 . S
C386 C384 1.387 . S
C386 C385 1.380 . S
C386 H395 0.923 1_556 S
C387 O364 1.254 . S
C387 O365 1.268 1_545 S
H388 C373 0.930 . S
H389 C374 0.930 1_455 S
H390 C376 0.930 . S
H391 C377 0.930 . S
H392 C382 0.930 . S
H393 C383 0.930 . S
H394 C385 0.930 . S
H395 C386 0.923 1_554 S
Gd396 N427 2.661 . S
Gd396 N433 2.601 . S
Gd396 O440 2.545 . S
Gd396 O441 2.606 1_565 S
Gd396 O443 2.429 . S
Gd396 O444 2.545 1_565 S
Gd396 O445 2.412 . S
Gd396 O447 2.362 . S
Gd396 O448 2.324 1_565 S
Gd396 C455 2.828 . S
Gd397 N406 2.661 . S
Gd397 N410 2.601 . S
Gd397 O441 2.362 . S
Gd397 O442 2.324 1_545 S
Gd397 O446 2.545 . S
Gd397 O447 2.606 1_545 S
Gd397 O449 2.429 . S
Gd397 O450 2.545 . S
Gd397 O451 2.412 . S
Gd397 C464 2.828 . S
C398 C401 1.417 . S
C398 C403 1.431 1_556 S
C398 C404 1.412 1_556 S
C399 C402 1.437 . S
C399 C403 1.317 1_556 S
C399 H418 0.929 . S
C400 C401 1.426 . S
C400 C402 1.413 . S
C400 N410 1.359 . S
C401 C398 1.417 . S
C401 C400 1.426 . S
C401 N406 1.350 . S
C402 C399 1.437 . S
C402 C400 1.413 . S
C402 C412 1.391 . S
C403 C398 1.431 1_554 S
C403 C399 1.317 1_554 S
C403 H414 0.930 . S
C404 C398 1.412 1_554 S
C404 C405 1.355 1_554 S
C404 H416 0.930 . S
C405 C404 1.355 1_556 S
C405 C407 1.402 . S
C405 H417 0.930 1_546 S
N406 Gd397 2.661 . S
N406 C401 1.350 . S
N406 C407 1.307 . S
C407 C405 1.402 . S
C407 N406 1.307 . S
C407 H408 0.930 1_545 S
H408 C407 0.930 1_565 S
C409 N410 1.334 . S
C409 C411 1.394 . S
C409 H413 0.930 . S
N410 Gd397 2.601 . S
N410 C400 1.359 . S
N410 C409 1.334 . S
C411 C409 1.394 . S
C411 C412 1.359 . S
C411 H423 0.930 . S
C412 C402 1.391 . S
C412 C411 1.359 . S
C412 H424 0.929 . S
H413 C409 0.930 . S
H414 C403 0.930 . S
H415 C432 0.930 . S
H416 C404 0.930 . S
H417 C405 0.930 1_564 S
H418 C399 0.929 . S
H419 C437 0.930 . S
H420 C428 0.930 . S
H421 C429 0.933 . S
H422 C453 0.929 . S
H423 C411 0.930 . S
H424 C412 0.929 . S
H425 C454 0.930 . S
H426 C435 0.930 . S
N427 Gd396 2.661 . S
N427 C431 1.350 . S
N427 C432 1.307 1_565 S
C428 H420 0.930 . S
C428 C429 1.351 1_565 S
C428 C430 1.412 . S
C429 H421 0.933 . S
C429 C428 1.351 1_545 S
C429 C432 1.403 . S
C430 C428 1.412 . S
C430 C431 1.417 . S
C430 C454 1.431 . S
C431 N427 1.350 . S
C431 C430 1.417 . S
C431 C434 1.426 . S
C432 H415 0.930 . S
C432 N427 1.307 1_545 S
C432 C429 1.403 . S
N433 Gd396 2.601 . S
N433 C434 1.359 . S
N433 C437 1.334 . S
C434 C431 1.426 . S
C434 N433 1.359 . S
C434 C438 1.413 . S
C435 H426 0.930 . S
C435 C436 1.359 . S
C435 C437 1.394 . S
C436 C435 1.359 . S
C436 C438 1.391 . S
C436 H439 0.929 . S
C437 H419 0.930 . S
C437 N433 1.334 . S
C437 C435 1.394 . S
C438 C434 1.413 . S
C438 C436 1.391 . S
C438 C453 1.437 . S
H439 C436 0.929 . S
O440 Gd396 2.545 . S
O440 C455 1.258 . S
O441 Gd396 2.606 1_545 S
O441 Gd397 2.362 . S
O441 C452 1.284 . S
O442 Gd397 2.324 1_565 S
O442 C462 1.254 . S
O443 Gd396 2.429 . S
O443 C462 1.268 . S
O444 Gd396 2.545 1_545 S
O444 C452 1.250 . S
O445 Gd396 2.412 . S
O445 C455 1.252 . S
O446 Gd397 2.545 . S
O446 C464 1.258 . S
O447 Gd396 2.362 . S
O447 Gd397 2.606 1_565 S
O447 C463 1.284 . S
O448 Gd396 2.324 1_545 S
O448 C471 1.254 . S
O449 Gd397 2.429 . S
O449 C471 1.268 . S
O450 Gd397 2.545 . S
O450 C463 1.250 1_545 S
O451 Gd397 2.412 . S
O451 C464 1.252 . S
C452 O441 1.284 . S
C452 O444 1.250 . S
C453 H422 0.929 . S
C453 C438 1.437 . S
C453 C454 1.317 . S
C454 H425 0.930 . S
C454 C430 1.431 . S
C454 C453 1.317 . S
C455 Gd396 2.828 . S
C455 O440 1.258 . S
C455 O445 1.252 . S
C455 C456 1.497 . S
C456 C455 1.497 . S
C456 C457 1.395 . S
C456 C458 1.380 . S
C457 C456 1.395 . S
C457 C460 1.398 . S
C457 H472 0.930 . S
C458 C456 1.380 . S
C458 C459 1.391 . S
C458 H473 0.930 1_565 S
C459 C458 1.391 . S
C459 C461 1.387 . S
C460 C457 1.398 . S
C460 C461 1.380 . S
C460 H474 0.930 . S
C461 C459 1.387 . S
C461 C460 1.380 . S
C461 H475 0.930 . S
C462 O442 1.254 . S
C462 O443 1.268 . S
C463 O447 1.284 . S
C463 O450 1.250 1_565 S
C464 Gd397 2.828 . S
C464 O446 1.258 . S
C464 O451 1.252 . S
C464 C465 1.497 . S
C465 C464 1.497 . S
C465 C466 1.395 . S
C465 C467 1.380 . S
C466 C465 1.395 . S
C466 C469 1.398 . S
C466 H476 0.930 . S
C467 C465 1.380 . S
C467 C468 1.391 . S
C467 H477 0.930 . S
C468 C467 1.391 . S
C468 C470 1.387 . S
C469 C466 1.398 . S
C469 C470 1.380 . S
C469 H478 0.930 . S
C470 C468 1.387 . S
C470 C469 1.380 . S
C470 H479 0.930 1_556 S
C471 O448 1.254 . S
C471 O449 1.268 . S
H472 C457 0.930 . S
H473 C458 0.930 1_545 S
H474 C460 0.930 . S
H475 C461 0.930 . S
H476 C466 0.930 . S
H477 C467 0.930 . S
H478 C469 0.930 . S
H479 C470 0.930 1_554 S
Gd480 N511 2.661 . S
Gd480 N517 2.601 . S
Gd480 O524 2.545 . S
Gd480 O525 2.606 . S
Gd480 O527 2.429 . S
Gd480 O528 2.545 . S
Gd480 O529 2.412 . S
Gd480 O531 2.362 . S
Gd480 O532 2.324 . S
Gd480 C539 2.828 . S
Gd481 N490 2.661 . S
Gd481 N494 2.601 . S
Gd481 O525 2.362 . S
Gd481 O526 2.324 . S
Gd481 O530 2.545 . S
Gd481 O531 2.606 . S
Gd481 O533 2.429 . S
Gd481 O534 2.545 . S
Gd481 O535 2.412 . S
Gd481 C548 2.828 . S
C482 C485 1.417 . S
C482 C487 1.431 . S
C482 C488 1.412 . S
C483 C486 1.437 . S
C483 C487 1.317 . S
C483 H502 0.929 . S
C484 C485 1.426 . S
C484 C486 1.413 . S
C484 N494 1.359 . S
C485 C482 1.417 . S
C485 C484 1.426 . S
C485 N490 1.350 . S
C486 C483 1.437 . S
C486 C484 1.413 . S
C486 C496 1.391 . S
C487 C482 1.431 . S
C487 C483 1.317 . S
C487 H498 0.930 . S
C488 C482 1.412 . S
C488 C489 1.355 . S
C488 H500 0.930 . S
C489 C488 1.355 . S
C489 C491 1.402 . S
C489 H501 0.930 . S
N490 Gd481 2.661 . S
N490 C485 1.350 . S
N490 C491 1.307 . S
C491 C489 1.402 . S
C491 N490 1.307 . S
C491 H492 0.930 . S
H492 C491 0.930 . S
C493 N494 1.334 . S
C493 C495 1.394 . S
C493 H497 0.930 . S
N494 Gd481 2.601 . S
N494 C484 1.359 . S
N494 C493 1.334 . S
C495 C493 1.394 . S
C495 C496 1.359 . S
C495 H507 0.930 . S
C496 C486 1.391 . S
C496 C495 1.359 . S
C496 H508 0.929 . S
H497 C493 0.930 . S
H498 C487 0.930 . S
H499 C516 0.930 . S
H500 C488 0.930 . S
H501 C489 0.930 . S
H502 C483 0.929 . S
H503 C521 0.930 . S
H504 C512 0.930 . S
H505 C513 0.930 . S
H506 C537 0.929 . S
H507 C495 0.930 . S
H508 C496 0.929 . S
H509 C538 0.930 . S
H510 C519 0.930 . S
N511 Gd480 2.661 . S
N511 C515 1.350 . S
N511 C516 1.307 . S
C512 H504 0.930 . S
C512 C513 1.355 . S
C512 C514 1.412 . S
C513 H505 0.930 . S
C513 C512 1.355 . S
C513 C516 1.402 . S
C514 C512 1.412 . S
C514 C515 1.417 . S
C514 C538 1.431 . S
C515 N511 1.350 . S
C515 C514 1.417 . S
C515 C518 1.426 . S
C516 H499 0.930 . S
C516 N511 1.307 . S
C516 C513 1.402 . S
N517 Gd480 2.601 . S
N517 C518 1.359 . S
N517 C521 1.334 . S
C518 C515 1.426 . S
C518 N517 1.359 . S
C518 C522 1.413 . S
C519 H510 0.930 . S
C519 C520 1.359 . S
C519 C521 1.394 . S
C520 C519 1.359 . S
C520 C522 1.391 . S
C520 H523 0.929 . S
C521 H503 0.930 . S
C521 N517 1.334 . S
C521 C519 1.394 . S
C522 C518 1.413 . S
C522 C520 1.391 . S
C522 C537 1.437 . S
H523 C520 0.929 . S
O524 Gd480 2.545 . S
O524 C539 1.258 . S
O525 Gd480 2.606 . S
O525 Gd481 2.362 . S
O525 C536 1.284 . S
O526 Gd481 2.324 . S
O526 C546 1.254 . S
O527 Gd480 2.429 . S
O527 C546 1.268 . S
O528 Gd480 2.545 . S
O528 C536 1.250 . S
O529 Gd480 2.412 . S
O529 C539 1.252 . S
O530 Gd481 2.545 . S
O530 C548 1.258 . S
O531 Gd480 2.362 . S
O531 Gd481 2.606 . S
O531 C547 1.284 . S
O532 Gd480 2.324 . S
O532 C555 1.254 . S
O533 Gd481 2.429 . S
O533 C555 1.268 . S
O534 Gd481 2.545 . S
O534 C547 1.250 . S
O535 Gd481 2.412 . S
O535 C548 1.252 . S
C536 O525 1.284 . S
C536 O528 1.250 . S
C537 H506 0.929 . S
C537 C522 1.437 . S
C537 C538 1.317 . S
C538 H509 0.930 . S
C538 C514 1.431 . S
C538 C537 1.317 . S
C539 Gd480 2.828 . S
C539 O524 1.258 . S
C539 O529 1.252 . S
C539 C540 1.497 . S
C540 C539 1.497 . S
C540 C541 1.395 1_556 S
C540 C542 1.380 . S
C541 C540 1.395 1_554 S
C541 C544 1.398 . S
C541 H556 0.930 . S
C542 C540 1.380 . S
C542 C543 1.391 . S
C542 H557 0.930 . S
C543 C542 1.391 . S
C543 C545 1.387 1_556 S
C544 C541 1.398 . S
C544 C545 1.380 . S
C544 H558 0.930 . S
C545 C543 1.387 1_554 S
C545 C544 1.380 . S
C545 H559 0.930 . S
C546 O526 1.254 . S
C546 O527 1.268 . S
C547 O531 1.284 . S
C547 O534 1.250 . S
C548 Gd481 2.828 . S
C548 O530 1.258 . S
C548 O535 1.252 . S
C548 C549 1.497 . S
C549 C548 1.497 . S
C549 C550 1.395 . S
C549 C551 1.380 . S
C550 C549 1.395 . S
C550 C553 1.398 . S
C550 H560 0.930 . S
C551 C549 1.380 . S
C551 C552 1.391 . S
C551 H561 0.930 . S
C552 C551 1.391 . S
C552 C554 1.387 . S
C553 C550 1.398 . S
C553 C554 1.380 . S
C553 H562 0.930 . S
C554 C552 1.387 . S
C554 C553 1.380 . S
C554 H563 0.930 . S
C555 O532 1.254 . S
C555 O533 1.268 . S
H556 C541 0.930 . S
H557 C542 0.930 . S
H558 C544 0.930 . S
H559 C545 0.930 . S
H560 C550 0.930 . S
H561 C551 0.930 . S
H562 C553 0.930 . S
H563 C554 0.930 . S
Gd564 N595 2.661 . S
Gd564 N601 2.601 . S
Gd564 O608 2.545 . S
Gd564 O609 2.615 . S
Gd564 O611 2.429 1_655 S
Gd564 O612 2.545 . S
Gd564 O613 2.412 . S
Gd564 O615 2.362 1_655 S
Gd564 O616 2.324 . S
Gd564 C623 2.828 . S
Gd565 N574 2.661 . S
Gd565 N578 2.601 . S
Gd565 O609 2.348 1_455 S
Gd565 O610 2.324 . S
Gd565 O614 2.545 . S
Gd565 O615 2.606 . S
Gd565 O617 2.429 1_455 S
Gd565 O618 2.545 . S
Gd565 O619 2.412 . S
Gd565 C632 2.828 . S
C566 C569 1.417 . S
C566 C571 1.431 . S
C566 C572 1.412 . S
C567 C570 1.437 . S
C567 C571 1.317 . S
C567 H586 0.929 . S
C568 C569 1.426 . S
C568 C570 1.413 . S
C568 N578 1.359 . S
C569 C566 1.417 . S
C569 C568 1.426 . S
C569 N574 1.350 . S
C570 C567 1.437 . S
C570 C568 1.413 . S
C570 C580 1.391 . S
C571 C566 1.431 . S
C571 C567 1.317 . S
C571 H582 0.930 . S
C572 C566 1.412 . S
C572 C573 1.355 . S
C572 H584 0.930 . S
C573 C572 1.355 . S
C573 C575 1.402 . S
C573 H585 0.930 . S
N574 Gd565 2.661 . S
N574 C569 1.350 . S
N574 C575 1.307 . S
C575 C573 1.402 . S
C575 N574 1.307 . S
C575 H576 0.930 . S
H576 C575 0.930 . S
C577 N578 1.334 1_655 S
C577 C579 1.394 . S
C577 H581 0.930 . S
N578 Gd565 2.601 . S
N578 C568 1.359 . S
N578 C577 1.334 1_455 S
C579 C577 1.394 . S
C579 C580 1.359 1_655 S
C579 H591 0.930 . S
C580 C570 1.391 . S
C580 C579 1.359 1_455 S
C580 H592 0.929 . S
H581 C577 0.930 . S
H582 C571 0.930 . S
H583 C600 0.930 . S
H584 C572 0.930 . S
H585 C573 0.930 . S
H586 C567 0.929 . S
H587 C605 0.930 . S
H588 C596 0.930 . S
H589 C597 0.930 . S
H590 C621 0.929 . S
H591 C579 0.930 . S
H592 C580 0.929 . S
H593 C622 0.930 . S
H594 C603 0.930 . S
N595 Gd564 2.661 . S
N595 C599 1.350 . S
N595 C600 1.307 . S
C596 H588 0.930 . S
C596 C597 1.355 . S
C596 C598 1.412 . S
C597 H589 0.930 . S
C597 C596 1.355 . S
C597 C600 1.402 . S
C598 C596 1.412 . S
C598 C599 1.417 . S
C598 C622 1.431 . S
C599 N595 1.350 . S
C599 C598 1.417 . S
C599 C602 1.426 . S
C600 H583 0.930 . S
C600 N595 1.307 . S
C600 C597 1.402 . S
N601 Gd564 2.601 . S
N601 C602 1.359 . S
N601 C605 1.334 1_655 S
C602 C599 1.426 . S
C602 N601 1.359 . S
C602 C606 1.413 . S
C603 H594 0.930 . S
C603 C604 1.369 . S
C603 C605 1.394 . S
C604 C603 1.369 . S
C604 C606 1.379 1_455 S
C604 H607 0.933 . S
C605 H587 0.930 . S
C605 N601 1.334 1_455 S
C605 C603 1.394 . S
C606 C602 1.413 . S
C606 C604 1.379 1_655 S
C606 C621 1.437 . S
H607 C604 0.933 . S
O608 Gd564 2.545 . S
O608 C623 1.258 . S
O609 Gd564 2.615 . S
O609 Gd565 2.348 1_655 S
O609 C620 1.295 . S
O610 Gd565 2.324 . S
O610 C630 1.254 . S
O611 Gd564 2.429 1_455 S
O611 C630 1.268 . S
O612 Gd564 2.545 . S
O612 C620 1.250 . S
O613 Gd564 2.412 . S
O613 C623 1.252 . S
O614 Gd565 2.545 . S
O614 C632 1.258 . S
O615 Gd564 2.362 1_455 S
O615 Gd565 2.606 . S
O615 C631 1.284 . S
O616 Gd564 2.324 . S
O616 C639 1.254 . S
O617 Gd565 2.429 1_655 S
O617 C639 1.268 . S
O618 Gd565 2.545 . S
O618 C631 1.250 . S
O619 Gd565 2.412 . S
O619 C632 1.252 . S
C620 O609 1.295 . S
C620 O612 1.250 . S
C621 H590 0.929 . S
C621 C606 1.437 . S
C621 C622 1.317 . S
C622 H593 0.930 . S
C622 C598 1.431 . S
C622 C621 1.317 . S
C623 Gd564 2.828 . S
C623 O608 1.258 . S
C623 O613 1.252 . S
C623 C624 1.497 . S
C624 C623 1.497 . S
C624 C625 1.395 1_556 S
C624 C626 1.380 . S
C625 C624 1.395 1_554 S
C625 C628 1.398 . S
C625 H640 0.930 . S
C626 C624 1.380 . S
C626 C627 1.391 . S
C626 H641 0.930 . S
C627 C626 1.391 . S
C627 C629 1.387 1_556 S
C628 C625 1.398 . S
C628 C629 1.380 . S
C628 H642 0.930 . S
C629 C627 1.387 1_554 S
C629 C628 1.380 . S
C629 H643 0.930 . S
C630 O610 1.254 . S
C630 O611 1.268 . S
C631 O615 1.284 . S
C631 O618 1.250 . S
C632 Gd565 2.828 . S
C632 O614 1.258 . S
C632 O619 1.252 . S
C632 C633 1.497 . S
C633 C632 1.497 . S
C633 C634 1.395 . S
C633 C635 1.380 . S
C634 C633 1.395 . S
C634 C637 1.398 . S
C634 H644 0.930 . S
C635 C633 1.380 . S
C635 C636 1.391 . S
C635 H645 0.930 . S
C636 C635 1.391 . S
C636 C638 1.387 . S
C637 C634 1.398 . S
C637 C638 1.380 . S
C637 H646 0.930 . S
C638 C636 1.387 . S
C638 C637 1.380 . S
C638 H647 0.930 . S
C639 O616 1.254 . S
C639 O617 1.268 . S
H640 C625 0.930 . S
H641 C626 0.930 . S
H642 C628 0.930 . S
H643 C629 0.930 . S
H644 C634 0.930 . S
H645 C635 0.930 . S
H646 C637 0.930 . S
H647 C638 0.930 . S
C648 C649 1.363 . S
C648 C654 1.379 . S
C648 N656 1.356 . S
C649 C648 1.363 . S
C649 C655 1.363 . S
C650 C651 1.363 . S
C650 C655 1.379 . S
C650 N657 1.356 1_545 S
C651 C650 1.363 . S
C651 C654 1.363 . S
N652 C654 1.356 . S
N652 H664 0.984 . S
N652 H665 0.985 . S
N653 C655 1.356 . S
N653 H658 0.984 . S
N653 H659 0.985 1_545 S
C654 C648 1.379 . S
C654 C651 1.363 . S
C654 N652 1.356 . S
C655 C649 1.363 . S
C655 C650 1.379 . S
C655 N653 1.356 . S
N656 C648 1.356 . S
N656 H662 0.984 . S
N656 H663 0.984 . S
N657 C650 1.356 1_565 S
N657 H660 0.984 . S
N657 H661 0.985 . S
H658 N653 0.984 . S
H659 N653 0.985 1_565 S
H660 N657 0.984 . S
H661 N657 0.985 . S
H662 N656 0.984 . S
H663 N656 0.984 . S
H664 N652 0.984 . S
H665 N652 0.985 . S
C666 C667 1.363 . S
C666 C672 1.379 . S
C666 N674 1.356 . S
C667 C666 1.363 . S
C667 C673 1.363 . S
C668 C669 1.363 . S
C668 C673 1.379 . S
C668 N675 1.356 . S
C669 C668 1.363 . S
C669 C672 1.363 . S
N670 C672 1.356 . S
N670 H682 0.984 . S
N670 H683 0.985 . S
N671 C673 1.356 . S
N671 H676 0.984 . S
N671 H677 0.985 . S
C672 C666 1.379 . S
C672 C669 1.363 . S
C672 N670 1.356 . S
C673 C667 1.363 . S
C673 C668 1.379 . S
C673 N671 1.356 . S
N674 C666 1.356 . S
N674 H680 0.984 . S
N674 H681 0.984 . S
N675 C668 1.356 . S
N675 H678 0.984 . S
N675 H679 0.985 . S
H676 N671 0.984 . S
H677 N671 0.985 . S
H678 N675 0.984 . S
H679 N675 0.985 . S
H680 N674 0.984 . S
H681 N674 0.984 . S
H682 N670 0.984 . S
H683 N670 0.985 . S
C684 C685 1.363 . S
C684 C690 1.379 . S
C684 N692 1.356 . S
C685 C684 1.363 . S
C685 C691 1.363 . S
C686 C687 1.363 . S
C686 C691 1.379 . S
C686 N693 1.356 . S
C687 C686 1.363 . S
C687 C690 1.363 . S
N688 C690 1.356 . S
N688 H700 0.984 . S
N688 H701 0.985 . S
N689 C691 1.356 . S
N689 H694 0.984 . S
N689 H695 0.985 . S
C690 C684 1.379 . S
C690 C687 1.363 . S
C690 N688 1.356 . S
C691 C685 1.363 . S
C691 C686 1.379 . S
C691 N689 1.356 . S
N692 C684 1.356 . S
N692 H698 0.984 . S
N692 H699 0.984 . S
N693 C686 1.356 . S
N693 H696 0.984 . S
N693 H697 0.985 . S
H694 N689 0.984 . S
H695 N689 0.985 . S
H696 N693 0.984 . S
H697 N693 0.985 . S
H698 N692 0.984 . S
H699 N692 0.984 . S
H700 N688 0.984 . S
H701 N688 0.985 . S
C702 C703 1.363 . S
C702 C708 1.379 . S
C702 N710 1.356 . S
C703 C702 1.363 . S
C703 C709 1.363 . S
C704 C705 1.363 . S
C704 C709 1.379 . S
C704 N711 1.356 . S
C705 C704 1.363 . S
C705 C708 1.363 . S
N706 C708 1.356 . S
N706 H718 0.984 . S
N706 H719 0.985 . S
N707 C709 1.356 . S
N707 H712 0.984 . S
N707 H713 0.985 . S
C708 C702 1.379 . S
C708 C705 1.363 . S
C708 N706 1.356 . S
C709 C703 1.363 . S
C709 C704 1.379 . S
C709 N707 1.356 . S
N710 C702 1.356 . S
N710 H716 0.984 . S
N710 H717 0.984 . S
N711 C704 1.356 . S
N711 H714 0.984 . S
N711 H715 0.995 . S
H712 N707 0.984 . S
H713 N707 0.985 . S
H714 N711 0.984 . S
H715 N711 0.995 . S
H716 N710 0.984 . S
H717 N710 0.984 . S
H718 N706 0.984 . S
H719 N706 0.985 . S
C720 C721 1.363 . S
C720 C726 1.379 1_554 S
C720 N728 1.356 . S
C721 C720 1.363 . S
C721 C727 1.363 . S
C722 C723 1.363 . S
C722 C727 1.379 1_556 S
C722 N729 1.356 . S
C723 C722 1.363 . S
C723 C726 1.363 . S
N724 C726 1.356 1_545 S
N724 H736 0.984 . S
N724 H737 0.985 . S
N725 C727 1.356 . S
N725 H730 0.984 . S
N725 H731 0.985 . S
C726 C720 1.379 1_556 S
C726 C723 1.363 . S
C726 N724 1.356 1_565 S
C727 C721 1.363 . S
C727 C722 1.379 1_554 S
C727 N725 1.356 . S
N728 C720 1.356 . S
N728 H734 0.984 1_565 S
N728 H735 0.984 . S
N729 C722 1.356 . S
N729 H732 0.984 . S
N729 H733 0.985 . S
H730 N725 0.984 . S
H731 N725 0.985 . S
H732 N729 0.984 . S
H733 N729 0.985 . S
H734 N728 0.984 1_545 S
H735 N728 0.984 . S
H736 N724 0.984 . S
H737 N724 0.985 . S
C738 C739 1.363 . S
C738 C744 1.379 1_554 S
C738 N746 1.356 . S
C739 C738 1.363 . S
C739 C745 1.363 . S
C740 C741 1.363 . S
C740 C745 1.379 1_556 S
C740 N747 1.356 . S
C741 C740 1.363 . S
C741 C744 1.363 . S
N742 C744 1.356 . S
N742 H754 0.984 . S
N742 H755 0.985 . S
N743 C745 1.356 . S
N743 H748 0.984 . S
N743 H749 0.985 . S
C744 C738 1.379 1_556 S
C744 C741 1.363 . S
C744 N742 1.356 . S
C745 C739 1.363 . S
C745 C740 1.379 1_554 S
C745 N743 1.356 . S
N746 C738 1.356 . S
N746 H752 0.984 . S
N746 H753 0.984 . S
N747 C740 1.356 . S
N747 H750 0.984 . S
N747 H751 0.985 . S
H748 N743 0.984 . S
H749 N743 0.985 . S
H750 N747 0.984 . S
H751 N747 0.985 . S
H752 N746 0.984 . S
H753 N746 0.984 . S
H754 N742 0.984 . S
H755 N742 0.985 . S
C756 C757 1.363 . S
C756 C762 1.379 1_554 S
C756 N764 1.356 . S
C757 C756 1.363 . S
C757 C763 1.363 . S
C758 C759 1.363 . S
C758 C763 1.379 1_556 S
C758 N765 1.356 . S
C759 C758 1.363 . S
C759 C762 1.363 . S
N760 C762 1.356 . S
N760 H772 0.984 . S
N760 H773 0.985 . S
N761 C763 1.356 . S
N761 H766 0.984 . S
N761 H767 0.985 . S
C762 C756 1.379 1_556 S
C762 C759 1.363 . S
C762 N760 1.356 . S
C763 C757 1.363 . S
C763 C758 1.379 1_554 S
C763 N761 1.356 . S
N764 C756 1.356 . S
N764 H770 0.984 . S
N764 H771 0.984 . S
N765 C758 1.356 . S
N765 H768 0.984 . S
N765 H769 0.985 . S
H766 N761 0.984 . S
H767 N761 0.985 . S
H768 N765 0.984 . S
H769 N765 0.985 . S
H770 N764 0.984 . S
H771 N764 0.984 . S
H772 N760 0.984 . S
H773 N760 0.985 . S
C774 C775 1.363 . S
C774 C780 1.379 1_554 S
C774 N782 1.356 . S
C775 C774 1.363 . S
C775 C781 1.363 . S
C776 C777 1.363 . S
C776 C781 1.379 1_556 S
C776 N783 1.356 . S
C777 C776 1.363 . S
C777 C780 1.363 . S
N778 C780 1.356 1_455 S
N778 H790 0.984 . S
N778 H791 0.985 . S
N779 C781 1.356 . S
N779 H784 0.984 . S
N779 H785 0.985 . S
C780 C774 1.379 1_556 S
C780 C777 1.363 . S
C780 N778 1.356 1_655 S
C781 C775 1.363 . S
C781 C776 1.379 1_554 S
C781 N779 1.356 . S
N782 C774 1.356 . S
N782 H788 0.984 1_655 S
N782 H789 0.984 . S
N783 C776 1.356 . S
N783 H786 0.984 . S
N783 H787 0.985 . S
H784 N779 0.984 . S
H785 N779 0.985 . S
H786 N783 0.984 . S
H787 N783 0.985 . S
H788 N782 0.984 1_455 S
H789 N782 0.984 . S
H790 N778 0.984 . S
H791 N778 0.985 . S
C792 C793 1.363 . S
C792 C798 1.379 . S
C792 N800 1.356 . S
C793 C792 1.363 . S
C793 C799 1.363 . S
C794 C795 1.363 . S
C794 C799 1.379 . S
C794 N801 1.356 . S
C795 C794 1.363 . S
C795 C798 1.363 . S
N796 C798 1.356 1_655 S
N796 H808 0.984 . S
N796 H809 0.985 . S
N797 C799 1.356 . S
N797 H802 0.984 . S
N797 H803 0.985 . S
C798 C792 1.379 . S
C798 C795 1.363 . S
C798 N796 1.356 1_455 S
C799 C793 1.363 . S
C799 C794 1.379 . S
C799 N797 1.356 . S
N800 C792 1.356 . S
N800 H806 0.984 . S
N800 H807 0.984 . S
N801 C794 1.356 . S
N801 H804 0.984 1_455 S
N801 H805 0.985 . S
H802 N797 0.984 . S
H803 N797 0.985 . S
H804 N801 0.984 1_655 S
H805 N801 0.985 . S
H806 N800 0.984 . S
H807 N800 0.984 . S
H808 N796 0.984 . S
H809 N796 0.985 . S
C810 C811 1.363 . S
C810 C816 1.379 . S
C810 N818 1.356 . S
C811 C810 1.363 . S
C811 C817 1.363 . S
C812 C813 1.363 . S
C812 C817 1.379 . S
C812 N819 1.356 1_545 S
C813 C812 1.363 . S
C813 C816 1.363 . S
N814 C816 1.356 . S
N814 H826 0.984 . S
N814 H827 0.985 1_545 S
N815 C817 1.356 . S
N815 H820 0.984 . S
N815 H821 0.985 . S
C816 C810 1.379 . S
C816 C813 1.363 . S
C816 N814 1.356 . S
C817 C811 1.363 . S
C817 C812 1.379 . S
C817 N815 1.356 . S
N818 C810 1.356 . S
N818 H824 0.984 . S
N818 H825 0.984 . S
N819 C812 1.356 1_565 S
N819 H822 0.984 . S
N819 H823 0.985 . S
H820 N815 0.984 . S
H821 N815 0.985 . S
H822 N819 0.984 . S
H823 N819 0.985 . S
H824 N818 0.984 . S
H825 N818 0.984 . S
H826 N814 0.984 . S
H827 N814 0.985 1_565 S
C828 C829 1.363 . S
C828 C834 1.379 . S
C828 N836 1.356 . S
C829 C828 1.363 . S
C829 C835 1.363 . S
C830 C831 1.363 . S
C830 C835 1.379 . S
C830 N837 1.356 . S
C831 C830 1.363 . S
C831 C834 1.363 . S
N832 C834 1.356 . S
N832 H844 0.984 . S
N832 H845 0.985 . S
N833 C835 1.356 . S
N833 H838 0.984 . S
N833 H839 0.985 . S
C834 C828 1.379 . S
C834 C831 1.363 . S
C834 N832 1.356 . S
C835 C829 1.363 . S
C835 C830 1.379 . S
C835 N833 1.356 . S
N836 C828 1.356 . S
N836 H842 0.984 . S
N836 H843 0.984 . S
N837 C830 1.356 . S
N837 H840 0.984 . S
N837 H841 0.985 . S
H838 N833 0.984 . S
H839 N833 0.985 . S
H840 N837 0.984 . S
H841 N837 0.985 . S
H842 N836 0.984 . S
H843 N836 0.984 . S
H844 N832 0.984 . S
H845 N832 0.985 . S
C846 C847 1.363 . S
C846 C852 1.379 . S
C846 N854 1.356 . S
C847 C846 1.363 . S
C847 C853 1.363 . S
C848 C849 1.363 . S
C848 C853 1.379 . S
C848 N855 1.356 . S
C849 C848 1.363 . S
C849 C852 1.363 . S
N850 C852 1.356 . S
N850 H862 0.984 . S
N850 H863 0.985 . S
N851 C853 1.356 . S
N851 H856 0.984 . S
N851 H857 0.985 . S
C852 C846 1.379 . S
C852 C849 1.363 . S
C852 N850 1.356 . S
C853 C847 1.363 . S
C853 C848 1.379 . S
C853 N851 1.356 . S
N854 C846 1.356 . S
N854 H860 0.984 . S
N854 H861 0.984 . S
N855 C848 1.356 . S
N855 H858 0.984 . S
N855 H859 0.985 . S
H856 N851 0.984 . S
H857 N851 0.985 . S
H858 N855 0.984 . S
H859 N855 0.985 . S
H860 N854 0.984 . S
H861 N854 0.984 . S
H862 N850 0.984 . S
H863 N850 0.985 . S
C864 C865 1.363 1_556 S
C864 C870 1.379 . S
C864 N872 1.356 . S
C865 C864 1.363 1_554 S
C865 C871 1.363 . S
C866 C867 1.363 1_654 S
C866 C871 1.379 . S
C866 N873 1.356 . S
C867 C866 1.363 1_456 S
C867 C870 1.363 1_455 S
N868 C870 1.356 1_455 S
N868 H880 0.984 . S
N868 H881 0.985 . S
N869 C871 1.356 . S
N869 H874 0.984 . S
N869 H875 0.985 . S
C870 C864 1.379 . S
C870 C867 1.363 1_655 S
C870 N868 1.356 1_655 S
C871 C865 1.363 . S
C871 C866 1.379 . S
C871 N869 1.356 . S
N872 C864 1.356 . S
N872 H878 0.984 . S
N872 H879 0.984 . S
N873 C866 1.356 . S
N873 H876 0.984 1_655 S
N873 H877 0.985 . S
H874 N869 0.984 . S
H875 N869 0.985 . S
H876 N873 0.984 1_455 S
H877 N873 0.985 . S
H878 N872 0.984 . S
H879 N872 0.984 . S
H880 N868 0.984 . S
H881 N868 0.985 . S
C882 C883 1.363 . S
C882 C888 1.379 . S
C882 N890 1.356 . S
C883 C882 1.363 . S
C883 C889 1.363 1_554 S
C884 C885 1.363 . S
C884 C889 1.379 1_545 S
C884 N891 1.356 . S
C885 C884 1.363 . S
C885 C888 1.363 1_546 S
N886 C888 1.356 1_545 S
N886 H898 0.984 1_545 S
N886 H899 0.985 . S
N887 C889 1.356 . S
N887 H892 0.984 . S
N887 H893 0.985 . S
C888 C882 1.379 . S
C888 C885 1.363 1_564 S
C888 N886 1.356 1_565 S
C889 C883 1.363 1_556 S
C889 C884 1.379 1_565 S
C889 N887 1.356 . S
N890 C882 1.356 . S
N890 H896 0.984 . S
N890 H897 0.984 . S
N891 C884 1.356 . S
N891 H894 0.984 . S
N891 H895 0.985 . S
H892 N887 0.984 . S
H893 N887 0.985 . S
H894 N891 0.984 . S
H895 N891 0.985 . S
H896 N890 0.984 . S
H897 N890 0.984 . S
H898 N886 0.984 1_565 S
H899 N886 0.985 . S
C900 C901 1.363 . S
C900 C906 1.379 . S
C900 N908 1.356 . S
C901 C900 1.363 . S
C901 C907 1.363 1_554 S
C902 C903 1.363 . S
C902 C907 1.379 . S
C902 N909 1.356 . S
C903 C902 1.363 . S
C903 C906 1.363 1_556 S
N904 C906 1.356 . S
N904 H916 0.984 . S
N904 H917 0.985 . S
N905 C907 1.356 . S
N905 H910 0.984 . S
N905 H911 0.985 . S
C906 C900 1.379 . S
C906 C903 1.363 1_554 S
C906 N904 1.356 . S
C907 C901 1.363 1_556 S
C907 C902 1.379 . S
C907 N905 1.356 . S
N908 C900 1.356 . S
N908 H914 0.984 . S
N908 H915 0.984 . S
N909 C902 1.356 . S
N909 H912 0.984 . S
N909 H913 0.985 . S
H910 N905 0.984 . S
H911 N905 0.985 . S
H912 N909 0.984 . S
H913 N909 0.985 . S
H914 N908 0.984 . S
H915 N908 0.984 . S
H916 N904 0.984 . S
H917 N904 0.985 . S
C918 C919 1.371 . S
C918 C924 1.379 . S
C918 N926 1.356 . S
C919 C918 1.371 . S
C919 C925 1.355 1_554 S
C920 C921 1.363 . S
C920 C925 1.379 . S
C920 N927 1.356 . S
C921 C920 1.363 . S
C921 C924 1.363 1_556 S
N922 C924 1.356 . S
N922 H934 0.984 . S
N922 H935 0.985 . S
N923 C925 1.356 . S
N923 H928 0.984 . S
N923 H929 0.985 . S
C924 C918 1.379 . S
C924 C921 1.363 1_554 S
C924 N922 1.356 . S
C925 C919 1.355 1_556 S
C925 C920 1.379 . S
C925 N923 1.356 . S
N926 C918 1.356 . S
N926 H932 0.984 . S
N926 H933 0.984 . S
N927 C920 1.356 . S
N927 H930 0.984 . S
N927 H931 0.985 . S
H928 N923 0.984 . S
H929 N923 0.985 . S
H930 N927 0.984 . S
H931 N927 0.985 . S
H932 N926 0.984 . S
H933 N926 0.984 . S
H934 N922 0.984 . S
H935 N922 0.985 . S
C936 C937 1.363 . S
C936 C942 1.379 . S
C936 N944 1.356 . S
C937 C936 1.363 . S
C937 C943 1.363 . S
C938 C939 1.363 . S
C938 C943 1.379 . S
C938 N945 1.356 . S
C939 C938 1.363 . S
C939 C942 1.363 . S
N940 C942 1.330 1_655 S
N940 H952 1.014 . S
N940 H953 0.982 1_655 S
N941 C943 1.356 . S
N941 H946 0.984 . S
N941 H947 0.985 . S
C942 C936 1.379 . S
C942 C939 1.363 . S
C942 N940 1.330 1_455 S
C943 C937 1.363 . S
C943 C938 1.379 . S
C943 N941 1.356 . S
N944 C936 1.356 . S
N944 H950 0.984 1_455 S
N944 H951 0.984 . S
N945 C938 1.356 . S
N945 H948 0.984 . S
N945 H949 0.985 . S
H946 N941 0.984 . S
H947 N941 0.985 . S
H948 N945 0.984 . S
H949 N945 0.985 . S
H950 N944 0.984 1_655 S
H951 N944 0.984 . S
H952 N940 1.014 . S
H953 N940 0.982 1_455 S
C954 C955 1.363 . S
C954 C960 1.379 . S
C954 N962 1.356 . S
C955 C954 1.363 . S
C955 C961 1.363 . S
C956 C957 1.363 . S
C956 C961 1.379 . S
C956 N963 1.356 . S
C957 C956 1.363 . S
C957 C960 1.363 . S
N958 C960 1.356 . S
N958 H970 0.984 . S
N958 H971 0.985 . S
N959 C961 1.356 . S
N959 H964 0.984 . S
N959 H965 0.985 . S
C960 C954 1.379 . S
C960 C957 1.363 . S
C960 N958 1.356 . S
C961 C955 1.363 . S
C961 C956 1.379 . S
C961 N959 1.356 . S
N962 C954 1.356 . S
N962 H968 0.984 . S
N962 H969 0.984 . S
N963 C956 1.356 . S
N963 H966 0.984 . S
N963 H967 0.985 1_545 S
H964 N959 0.984 . S
H965 N959 0.985 . S
H966 N963 0.984 . S
H967 N963 0.985 1_565 S
H968 N962 0.984 . S
H969 N962 0.984 . S
H970 N958 0.984 . S
H971 N958 0.985 . S
C972 C973 1.363 . S
C972 C978 1.379 . S
C972 N980 1.356 . S
C973 C972 1.363 . S
C973 C979 1.363 . S
C974 C975 1.363 . S
C974 C979 1.379 . S
C974 N981 1.356 . S
C975 C974 1.363 . S
C975 C978 1.363 . S
N976 C978 1.356 . S
N976 H988 0.984 . S
N976 H989 0.985 . S
N977 C979 1.356 . S
N977 H982 0.984 . S
N977 H983 0.985 . S
C978 C972 1.379 . S
C978 C975 1.363 . S
C978 N976 1.356 . S
C979 C973 1.363 . S
C979 C974 1.379 . S
C979 N977 1.356 . S
N980 C972 1.356 . S
N980 H986 0.984 . S
N980 H987 0.984 . S
N981 C974 1.356 . S
N981 H984 0.984 . S
N981 H985 0.985 . S
H982 N977 0.984 . S
H983 N977 0.985 . S
H984 N981 0.984 . S
H985 N981 0.985 . S
H986 N980 0.984 . S
H987 N980 0.984 . S
H988 N976 0.984 . S
H989 N976 0.985 . S
C990 C991 1.363 . S
C990 C996 1.379 . S
C990 N998 1.356 . S
C991 C990 1.363 . S
C991 C997 1.363 . S
C992 C993 1.363 . S
C992 C997 1.379 . S
C992 N999 1.356 . S
C993 C992 1.363 . S
C993 C996 1.363 . S
N994 C996 1.356 . S
N994 H1006 0.984 . S
N994 H1007 0.985 . S
N995 C997 1.356 . S
N995 H1000 0.984 . S
N995 H1001 0.985 . S
C996 C990 1.379 . S
C996 C993 1.363 . S
C996 N994 1.356 . S
C997 C991 1.363 . S
C997 C992 1.379 . S
C997 N995 1.356 . S
N998 C990 1.356 . S
N998 H1004 0.984 . S
N998 H1005 0.984 . S
N999 C992 1.356 . S
N999 H1002 0.984 . S
N999 H1003 0.985 . S
H1000 N995 0.984 . S
H1001 N995 0.985 . S
H1002 N999 0.984 . S
H1003 N999 0.985 . S
H1004 N998 0.984 . S
H1005 N998 0.984 . S
H1006 N994 0.984 . S
H1007 N994 0.985 . S
C1008 C1009 1.363 . S
C1008 C1014 1.379 . S
C1008 N1016 1.356 . S
C1009 C1008 1.363 . S
C1009 C1015 1.363 . S
C1010 C1011 1.363 . S
C1010 C1015 1.379 . S
C1010 N1017 1.356 . S
C1011 C1010 1.363 . S
C1011 C1014 1.363 . S
N1012 C1014 1.356 . S
N1012 H1024 0.984 . S
N1012 H1025 0.985 . S
N1013 C1015 1.356 . S
N1013 H1018 0.984 . S
N1013 H1019 0.985 . S
C1014 C1008 1.379 . S
C1014 C1011 1.363 . S
C1014 N1012 1.356 . S
C1015 C1009 1.363 . S
C1015 C1010 1.379 . S
C1015 N1013 1.356 . S
N1016 C1008 1.356 . S
N1016 H1022 0.984 . S
N1016 H1023 0.984 . S
N1017 C1010 1.356 . S
N1017 H1020 0.984 . S
N1017 H1021 0.985 1_655 S
H1018 N1013 0.984 . S
H1019 N1013 0.985 . S
H1020 N1017 0.984 . S
H1021 N1017 0.985 1_455 S
H1022 N1016 0.984 . S
H1023 N1016 0.984 . S
H1024 N1012 0.984 . S
H1025 N1012 0.985 . S
C1026 C1027 1.363 . S
C1026 C1032 1.379 . S
C1026 N1034 1.356 . S
C1027 C1026 1.363 . S
C1027 C1033 1.363 . S
C1028 C1029 1.363 . S
C1028 C1033 1.379 . S
C1028 N1035 1.356 . S
C1029 C1028 1.363 . S
C1029 C1032 1.363 . S
N1030 C1032 1.356 . S
N1030 H1042 0.984 . S
N1030 H1043 0.985 . S
N1031 C1033 1.356 . S
N1031 H1036 0.984 . S
N1031 H1037 0.985 . S
C1032 C1026 1.379 . S
C1032 C1029 1.363 . S
C1032 N1030 1.356 . S
C1033 C1027 1.363 . S
C1033 C1028 1.379 . S
C1033 N1031 1.356 . S
N1034 C1026 1.356 . S
N1034 H1040 0.984 . S
N1034 H1041 0.984 . S
N1035 C1028 1.356 . S
N1035 H1038 0.984 . S
N1035 H1039 0.985 . S
H1036 N1031 0.984 . S
H1037 N1031 0.985 . S
H1038 N1035 0.984 . S
H1039 N1035 0.985 . S
H1040 N1034 0.984 . S
H1041 N1034 0.984 . S
H1042 N1030 0.984 . S
H1043 N1030 0.985 . S
C1044 C1045 1.363 . S
C1044 C1050 1.379 . S
C1044 N1052 1.356 . S
C1045 C1044 1.363 . S
C1045 C1051 1.363 . S
C1046 C1047 1.363 . S
C1046 C1051 1.379 . S
C1046 N1053 1.356 . S
C1047 C1046 1.363 . S
C1047 C1050 1.363 . S
N1048 C1050 1.356 . S
N1048 H1060 0.984 . S
N1048 H1061 0.985 . S
N1049 C1051 1.356 . S
N1049 H1054 0.984 . S
N1049 H1055 0.985 . S
C1050 C1044 1.379 . S
C1050 C1047 1.363 . S
C1050 N1048 1.356 . S
C1051 C1045 1.363 . S
C1051 C1046 1.379 . S
C1051 N1049 1.356 . S
N1052 C1044 1.356 . S
N1052 H1058 0.984 . S
N1052 H1059 0.984 . S
N1053 C1046 1.356 . S
N1053 H1056 0.984 . S
N1053 H1057 0.985 . S
H1054 N1049 0.984 . S
H1055 N1049 0.985 . S
H1056 N1053 0.984 . S
H1057 N1053 0.985 . S
H1058 N1052 0.984 . S
H1059 N1052 0.984 . S
H1060 N1048 0.984 . S
H1061 N1048 0.985 . S
C1062 C1063 1.363 . S
C1062 C1068 1.379 . S
C1062 N1070 1.356 . S
C1063 C1062 1.363 . S
C1063 C1069 1.363 . S
C1064 C1065 1.363 . S
C1064 C1069 1.379 . S
C1064 N1071 1.356 . S
C1065 C1064 1.363 . S
C1065 C1068 1.363 . S
N1066 C1068 1.356 . S
N1066 H1078 0.984 . S
N1066 H1079 0.985 . S
N1067 C1069 1.356 . S
N1067 H1072 0.984 . S
N1067 H1073 0.985 . S
C1068 C1062 1.379 . S
C1068 C1065 1.363 . S
C1068 N1066 1.356 . S
C1069 C1063 1.363 . S
C1069 C1064 1.379 . S
C1069 N1067 1.356 . S
N1070 C1062 1.356 . S
N1070 H1076 0.984 . S
N1070 H1077 0.984 . S
N1071 C1064 1.356 . S
N1071 H1074 0.984 . S
N1071 H1075 0.985 . S
H1072 N1067 0.984 . S
H1073 N1067 0.985 . S
H1074 N1071 0.984 . S
H1075 N1071 0.985 . S
H1076 N1070 0.984 . S
H1077 N1070 0.984 . S
H1078 N1066 0.984 . S
H1079 N1066 0.985 . S
C649 C255 2.589 . S
C651 C387 2.733 . S
C669 C471 2.751 . S
C667 C294 2.580 . S
C687 C547 2.538 . S
C685 C177 2.663 . S
C705 C631 2.542 . S
C703 C216 2.667 . S
C723 C378 2.734 1_565 S
C721 C99 2.603 . S
C739 C138 2.565 . S
C741 C462 2.751 . S
C757 C21 2.678 . S
C759 C536 2.538 . S
C775 C60 2.682 . S
C777 C620 2.542 . S
C795 C375 1.172 1_455 S
C793 C196 1.005 . S
C813 C459 1.105 1_545 S
C811 C235 0.963 . S
C831 C552 1.087 . S
C829 C289 0.947 . S
C847 C157 0.991 . S
C849 C636 1.156 . S
C865 C40 1.016 . S
C867 C384 1.172 . S
C885 C468 1.105 . S
C883 C79 0.972 . S
C903 C543 1.087 . S
C901 C133 0.953 . S
C919 C1 1.008 . S
C921 C627 1.155 . S
C937 C211 3.026 . S
C939 C368 3.250 . S
C955 C250 2.998 . S
C957 C452 3.221 . S
C975 C546 3.406 . S
C973 C274 2.922 . S
C993 C630 3.421 . S
C991 C172 2.930 . S
C1009 C55 3.023 . S
C1011 C379 3.250 . S
C1029 C463 3.221 . S
C1027 C94 2.995 . S
C1047 C555 3.405 . S
C1045 C118 2.916 . S
C1063 C16 2.925 . S
C1065 C639 3.421 . S
