# Generated by pormake.
# Topology pto, (3,4)-cn, num edge types: 1
# Building blocks:
#     Node 0, Type 0, BuildingBlock: PAMTOO_clean_linker_0, # of connection points: 3
#     Node 1, Type 0, BuildingBlock: PAMTOO_clean_linker_0, # of connection points: 3
#     Node 2, Type 0, BuildingBlock: PAMTOO_clean_linker_0, # of connection points: 3
#     Node 3, Type 0, BuildingBlock: PAMTOO_clean_linker_0, # of connection points: 3
#     Node 4, Type 0, BuildingBlock: PAMTOO_clean_linker_0, # of connection points: 3
#     Node 5, Type 0, BuildingBlock: PAMTOO_clean_linker_0, # of connection points: 3
#     Node 6, Type 0, BuildingBlock: PAMTOO_clean_linker_0, # of connection points: 3
#     Node 7, Type 0, BuildingBlock: PAMTOO_clean_linker_0, # of connection points: 3
#     Node 8, Type 1, BuildingBlock: KOZSID_clean_sbu_0, # of connection points: 4
#     Node 9, Type 1, BuildingBlock: KOZSID_clean_sbu_0, # of connection points: 4
#     Node 10, Type 1, BuildingBlock: KOZSID_clean_sbu_0, # of connection points: 4
#     Node 11, Type 1, BuildingBlock: KOZSID_clean_sbu_0, # of connection points: 4
#     Node 12, Type 1, BuildingBlock: KOZSID_clean_sbu_0, # of connection points: 4
#     Node 13, Type 1, BuildingBlock: KOZSID_clean_sbu_0, # of connection points: 4
#     Edge 14, Type (0, 1), BuildingBlock: AJUNOK_clean_linker_0, # of connection points: 2
#     Edge 15, Type (0, 1), BuildingBlock: AJUNOK_clean_linker_0, # of connection points: 2
#     Edge 16, Type (0, 1), BuildingBlock: AJUNOK_clean_linker_0, # of connection points: 2
#     Edge 17, Type (0, 1), BuildingBlock: AJUNOK_clean_linker_0, # of connection points: 2
#     Edge 18, Type (0, 1), BuildingBlock: AJUNOK_clean_linker_0, # of connection points: 2
#     Edge 19, Type (0, 1), BuildingBlock: AJUNOK_clean_linker_0, # of connection points: 2
#     Edge 20, Type (0, 1), BuildingBlock: AJUNOK_clean_linker_0, # of connection points: 2
#     Edge 21, Type (0, 1), BuildingBlock: AJUNOK_clean_linker_0, # of connection points: 2
#     Edge 22, Type (0, 1), BuildingBlock: AJUNOK_clean_linker_0, # of connection points: 2
#     Edge 23, Type (0, 1), BuildingBlock: AJUNOK_clean_linker_0, # of connection points: 2
#     Edge 24, Type (0, 1), BuildingBlock: AJUNOK_clean_linker_0, # of connection points: 2
#     Edge 25, Type (0, 1), BuildingBlock: AJUNOK_clean_linker_0, # of connection points: 2
#     Edge 26, Type (0, 1), BuildingBlock: AJUNOK_clean_linker_0, # of connection points: 2
#     Edge 27, Type (0, 1), BuildingBlock: AJUNOK_clean_linker_0, # of connection points: 2
#     Edge 28, Type (0, 1), BuildingBlock: AJUNOK_clean_linker_0, # of connection points: 2
#     Edge 29, Type (0, 1), BuildingBlock: AJUNOK_clean_linker_0, # of connection points: 2
#     Edge 30, Type (0, 1), BuildingBlock: AJUNOK_clean_linker_0, # of connection points: 2
#     Edge 31, Type (0, 1), BuildingBlock: AJUNOK_clean_linker_0, # of connection points: 2
#     Edge 32, Type (0, 1), BuildingBlock: AJUNOK_clean_linker_0, # of connection points: 2
#     Edge 33, Type (0, 1), BuildingBlock: AJUNOK_clean_linker_0, # of connection points: 2
#     Edge 34, Type (0, 1), BuildingBlock: AJUNOK_clean_linker_0, # of connection points: 2
#     Edge 35, Type (0, 1), BuildingBlock: AJUNOK_clean_linker_0, # of connection points: 2
#     Edge 36, Type (0, 1), BuildingBlock: AJUNOK_clean_linker_0, # of connection points: 2
#     Edge 37, Type (0, 1), BuildingBlock: AJUNOK_clean_linker_0, # of connection points: 2
# Relax obj value: 0.027
# Max RMSD: 0.179
# Mean RMSD: 0.071
data_MOF--net-pto--node1-KOZSID_clean_sbu_0--node2-PAMTOO_clean_linker_0--edge1-AJUNOK_clean_linker_0
_symmetry_space_group_name_H-M    P1
_symmetry_Int_Tables_number       1
_symmetry_cell_setting            triclinic
loop_
_symmetry_equiv_pos_as_xyz
'x, y, z'
_cell_length_a     29.556182
_cell_length_b     36.970695
_cell_length_c     34.079941
_cell_angle_alpha  81.422851
_cell_angle_beta   79.48675
_cell_angle_gamma 103.75303
loop_
_atom_site_label
_atom_site_type_symbol
_atom_site_fract_x
_atom_site_fract_y
_atom_site_fract_z
_atom_type_partial_charge
H0 H 0.16987 0.28372 0.41665 0.0
H1 H 0.26384 0.24359 0.33164 0.0
H2 H 0.2367 0.35093 0.29606 0.0
H3 H 0.24233 0.30678 0.2305 0.0
C4 C 0.26483 0.28893 0.2412 0.0
O5 O 0.282 0.3024 0.27282 0.0
H6 H 0.24235 0.25902 0.25184 0.0
C7 C 0.19368 0.2879 0.38713 0.0
C8 C 0.20085 0.32103 0.35765 0.0
C9 C 0.21557 0.25938 0.37768 0.0
C10 C 0.246 0.26493 0.33918 0.0
C11 C 0.25332 0.29775 0.30994 0.0
C12 C 0.2308 0.32564 0.31911 0.0
H13 H 0.22123 0.81499 0.70199 0.0
H14 H 0.26849 0.75743 0.79874 0.0
H15 H 0.28652 0.87662 0.7852 0.0
H16 H 0.37447 0.85385 0.78845 0.0
C17 C 0.35896 0.82571 0.80955 0.0
O18 O 0.3099 0.8194 0.82095 0.0
H19 H 0.36734 0.80333 0.79326 0.0
C20 C 0.23657 0.8163 0.72839 0.0
C21 C 0.25354 0.85159 0.73965 0.0
C22 C 0.2394 0.78199 0.75069 0.0
C23 C 0.26416 0.78329 0.78212 0.0
C24 C 0.28303 0.81793 0.79272 0.0
C25 C 0.27524 0.85133 0.77333 0.0
H26 H 0.70828 0.84079 0.30227 0.0
H27 H 0.7377 0.73577 0.28097 0.0
H28 H 0.79002 0.78802 0.37401 0.0
H29 H 0.85935 0.76347 0.31634 0.0
C30 C 0.83506 0.73647 0.31329 0.0
O31 O 0.78933 0.73203 0.33516 0.0
H32 H 0.83509 0.73827 0.28038 0.0
C33 C 0.72468 0.81806 0.30942 0.0
C34 C 0.74937 0.81789 0.34103 0.0
C35 C 0.71979 0.78819 0.28797 0.0
C36 C 0.74051 0.75862 0.29775 0.0
C37 C 0.76643 0.75902 0.32818 0.0
C38 C 0.77015 0.78818 0.35024 0.0
H39 H 0.77443 0.3551 0.80589 0.0
H40 H 0.71841 0.24346 0.78359 0.0
H41 H 0.83588 0.32365 0.6958 0.0
H42 H 0.77285 0.27731 0.65729 0.0
C43 C 0.75582 0.25183 0.68208 0.0
O44 O 0.77923 0.25424 0.71357 0.0
H45 H 0.71778 0.25113 0.69353 0.0
C46 C 0.77488 0.33458 0.78628 0.0
C47 C 0.80834 0.34438 0.74883 0.0
C48 C 0.74248 0.29833 0.7992 0.0
C49 C 0.74325 0.27157 0.77402 0.0
C50 C 0.77715 0.28068 0.73688 0.0
C51 C 0.80974 0.31693 0.72447 0.0
H52 H 0.69893 0.82671 0.77157 0.0
H53 H 0.77529 0.75761 0.8321 0.0
H54 H 0.8289 0.81195 0.70701 0.0
H55 H 0.82263 0.73245 0.71822 0.0
C56 C 0.82452 0.72571 0.75071 0.0
O57 O 0.83469 0.75911 0.76516 0.0
H58 H 0.78862 0.7074 0.76776 0.0
C59 C 0.72965 0.81609 0.77298 0.0
C60 C 0.76583 0.82541 0.73726 0.0
C61 C 0.73332 0.79402 0.80923 0.0
C62 C 0.7705 0.77561 0.80606 0.0
C63 C 0.80284 0.78021 0.76868 0.0
C64 C 0.8018 0.80647 0.7349 0.0
H65 H 0.83194 0.27674 0.38788 0.0
H66 H 0.73342 0.22395 0.32065 0.0
H67 H 0.80065 0.34374 0.28684 0.0
H68 H 0.70308 0.32511 0.27967 0.0
C69 C 0.69803 0.29544 0.27483 0.0
O70 O 0.74131 0.28667 0.26992 0.0
H71 H 0.67251 0.27611 0.30226 0.0
C72 C 0.81273 0.27878 0.36378 0.0
C73 C 0.81926 0.31441 0.33891 0.0
C74 C 0.78163 0.24586 0.35768 0.0
C75 C 0.75763 0.24889 0.32584 0.0
C76 C 0.76439 0.28414 0.30058 0.0
C77 C 0.79532 0.31671 0.30695 0.0
H78 H 0.22489 0.3126 0.66858 0.0
H79 H 0.26362 0.35244 0.77363 0.0
H80 H 0.29536 0.25141 0.74516 0.0
H81 H 0.26275 0.24923 0.83049 0.0
C82 C 0.27994 0.27914 0.83182 0.0
O83 O 0.30445 0.29932 0.79341 0.0
H84 H 0.25117 0.292 0.84379 0.0
C85 C 0.24134 0.30957 0.69437 0.0
C86 C 0.26157 0.27888 0.70235 0.0
C87 C 0.24133 0.33594 0.72039 0.0
C88 C 0.26288 0.33219 0.75363 0.0
C89 C 0.28305 0.3022 0.76173 0.0
C90 C 0.28159 0.27539 0.73678 0.0
H91 H 0.18288 0.78079 0.42374 0.0
H92 H 0.25793 0.76035 0.31178 0.0
H93 H 0.27343 0.87448 0.3297 0.0
H94 H 0.28066 0.86043 0.23356 0.0
C95 C 0.28671 0.83225 0.24339 0.0
O96 O 0.30029 0.83161 0.28017 0.0
H97 H 0.25275 0.80993 0.24657 0.0
C98 C 0.2067 0.79126 0.39384 0.0
C99 C 0.22684 0.83068 0.37965 0.0
C100 C 0.21774 0.7654 0.36959 0.0
C101 C 0.24945 0.77959 0.33126 0.0
C102 C 0.26887 0.81873 0.3167 0.0
C103 C 0.25737 0.84423 0.34075 0.0
C104 C 0.08259 0.58222 0.42362 0.0
C105 C 0.08181 0.58838 0.46291 0.0
C106 C 0.03983 0.56502 0.48709 0.0
C107 C 0.01755 0.54573 0.46142 0.0
N108 N 0.04315 0.55491 0.42259 0.0
Co109 Co 0.0223 0.5347 0.37576 0.0
N110 N 0.96874 0.49347 0.41257 0.0
C111 C 0.95055 0.49192 0.45217 0.0
C112 C 0.91387 0.45978 0.46978 0.0
C113 C 0.90854 0.43986 0.43933 0.0
C114 C 0.94242 0.4611 0.40476 0.0
N115 N 1.00138 0.51445 0.32914 0.0
C116 C 0.97246 0.48021 0.3285 0.0
C117 C 0.96714 0.47767 0.28927 0.0
C118 C 0.99357 0.51164 0.26457 0.0
C119 C 0.01345 0.53289 0.29 0.0
N120 N 0.07559 0.57616 0.33859 0.0
C121 C 0.08021 0.58729 0.29818 0.0
C122 C 0.11933 0.61738 0.28026 0.0
C123 C 0.14025 0.6265 0.31134 0.0
C124 C 0.11253 0.60137 0.34679 0.0
N125 N 0.06427 0.50103 0.37746 0.0
C126 C 0.11247 0.44428 0.37669 0.0
C127 C 0.11669 0.47038 0.34101 0.0
C128 C 0.09237 0.49836 0.34203 0.0
C129 C 0.0857 0.44859 0.41327 0.0
C130 C 0.06231 0.47739 0.41305 0.0
N131 N 0.97982 0.56796 0.37369 0.0
C132 C 0.96772 0.63019 0.37175 0.0
C133 C 0.92235 0.61734 0.3641 0.0
C134 C 0.90571 0.579 0.36234 0.0
C135 C 0.93486 0.55472 0.36752 0.0
C136 C 0.99568 0.60513 0.37651 0.0
H137 H 0.92135 0.52545 0.36554 0.0
H138 H 0.03067 0.6163 0.38129 0.0
H139 H 0.09481 0.5168 0.3137 0.0
H140 H 0.04096 0.47941 0.44142 0.0
C141 C 0.97422 0.5173 0.4731 0.0
C142 C 0.11764 0.60694 0.38777 0.0
C143 C 0.94682 0.45077 0.36464 0.0
C144 C 0.04949 0.56701 0.27753 0.0
H145 H 0.10795 0.60886 0.47268 0.0
H146 H 0.02695 0.56264 0.51943 0.0
H147 H 0.8947 0.45104 0.50138 0.0
H148 H 0.88278 0.4128 0.44223 0.0
H149 H 0.9462 0.45383 0.27956 0.0
H150 H 0.99911 0.51931 0.2318 0.0
H151 H 0.13116 0.63116 0.24841 0.0
H152 H 0.17117 0.65015 0.30834 0.0
H153 H 0.13766 0.46856 0.31214 0.0
H154 H 0.08105 0.42892 0.44156 0.0
H155 H 0.98239 0.65981 0.37247 0.0
H156 H 0.87075 0.568 0.35645 0.0
C157 C 0.12811 0.60172 0.76302 0.0
C158 C 0.14354 0.60294 0.79898 0.0
C159 C 0.12009 0.56866 0.82472 0.0
C160 C 0.09174 0.54862 0.80307 0.0
N161 N 0.09607 0.56816 0.76538 0.0
Co162 Co 0.06104 0.55092 0.7242 0.0
N163 N 0.01099 0.51171 0.76643 0.0
C164 C 0.01458 0.4989 0.80461 0.0
C165 C 0.9747 0.47127 0.82694 0.0
C166 C 0.94448 0.4658 0.80103 0.0
C167 C 0.96778 0.49043 0.76406 0.0
N168 N 0.02669 0.53358 0.68252 0.0
C169 C 0.98265 0.5097 0.68706 0.0
C170 C 0.97374 0.50387 0.64954 0.0
C171 C 0.01405 0.52413 0.62068 0.0
C172 C 0.04518 0.5413 0.64201 0.0
N173 N 0.11116 0.59039 0.68247 0.0
C174 C 0.1211 0.59183 0.64209 0.0
C175 C 0.15686 0.62361 0.62111 0.0
C176 C 0.17001 0.64331 0.65024 0.0
C177 C 0.14138 0.62233 0.68732 0.0
N178 N 0.09812 0.51372 0.71679 0.0
C179 C 0.14824 0.45832 0.71071 0.0
C180 C 0.17239 0.49609 0.70995 0.0
C181 C 0.1466 0.52335 0.71325 0.0
C182 C 0.09899 0.44918 0.71351 0.0
C183 C 0.07486 0.47715 0.71614 0.0
N184 N 0.02356 0.5877 0.73171 0.0
C185 C 0.98641 0.63384 0.70364 0.0
C186 C 0.96523 0.63711 0.74281 0.0
C187 C 0.97562 0.61618 0.77622 0.0
C188 C 1.00451 0.59159 0.77006 0.0
C189 C 0.0154 0.60912 0.69876 0.0
H190 H 0.01091 0.57535 0.79645 0.0
H191 H 0.03056 0.60688 0.66827 0.0
H192 H 0.16568 0.55203 0.71366 0.0
H193 H 0.03703 0.46871 0.71839 0.0
C194 C 0.05369 0.51604 0.81958 0.0
C195 C 0.14482 0.63227 0.72682 0.0
C196 C 0.95123 0.48802 0.72614 0.0
C197 C 0.0898 0.56762 0.62492 0.0
H198 H 0.16848 0.62625 0.80609 0.0
H199 H 0.12139 0.56035 0.85623 0.0
H200 H 0.96822 0.45694 0.85836 0.0
H201 H 0.91001 0.44496 0.80806 0.0
H202 H 0.94202 0.48582 0.64379 0.0
H203 H 0.01983 0.52617 0.58807 0.0
H204 H 0.17 0.6325 0.58843 0.0
H205 H 0.19717 0.67007 0.6449 0.0
H206 H 0.21053 0.50417 0.70817 0.0
H207 H 0.07906 0.42036 0.71407 0.0
H208 H 0.97952 0.64943 0.67687 0.0
H209 H 0.96124 0.6185 0.80704 0.0
C210 C 0.27274 1.00513 0.60222 0.0
C211 C 0.31623 0.99592 0.59653 0.0
C212 C 0.34114 0.01315 0.5578 0.0
C213 C 0.3117 0.03149 0.54155 0.0
N214 N 0.26989 0.0276 0.56785 0.0
Co215 Co 0.21466 0.04375 0.55277 0.0
N216 N 0.25562 0.07771 0.50159 0.0
C217 C 0.29888 0.07616 0.48251 0.0
C218 C 0.31882 0.10405 0.44805 0.0
C219 C 0.2859 0.12442 0.44541 0.0
C220 C 0.24773 0.10766 0.47856 0.0
N221 N 0.15988 0.0597 0.53699 0.0
C222 C 0.1601 0.09103 0.51064 0.0
C223 C 0.11393 0.09234 0.50917 0.0
C224 C 0.08381 0.06064 0.53584 0.0
C225 C 0.11323 0.04187 0.55202 0.0
N226 N 0.17325 0.01001 0.60407 0.0
C227 C 0.12501 0.99934 0.61348 0.0
C228 C 0.10601 0.97838 0.65226 0.0
C229 C 0.14458 0.97479 0.66789 0.0
C230 C 0.18523 0.99311 0.63732 0.0
N231 N 0.22672 0.0863 0.5813 0.0
C232 C 0.24225 0.15095 0.61709 0.0
C233 C 0.19722 0.12431 0.62625 0.0
C234 C 0.19008 0.09274 0.60771 0.0
C235 C 0.27934 0.1441 0.58949 0.0
C236 C 0.27118 0.11129 0.57292 0.0
N237 N 0.20293 1.00131 0.52387 0.0
C238 C 0.20204 0.93647 0.52059 0.0
C239 C 0.20229 0.94329 0.47902 0.0
C240 C 0.19888 0.97901 0.46118 0.0
C241 C 0.19877 1.00748 0.48422 0.0
C242 C 0.2027 0.96571 0.54223 0.0
H243 H 0.19721 0.03494 0.46945 0.0
H244 H 0.20466 0.95951 0.57356 0.0
H245 H 0.15458 0.07386 0.61445 0.0
H246 H 0.3007 0.10672 0.5524 0.0
C247 C 0.32276 0.05334 0.5021 0.0
C248 C 0.2329 0.98764 0.63827 0.0
C249 C 0.20353 0.11934 0.48631 0.0
C250 C 0.09903 0.01359 0.58738 0.0
H251 H 0.32829 0.97706 0.61704 0.0
H252 H 0.3761 0.01165 0.54294 0.0
H253 H 0.354 0.11007 0.42837 0.0
H254 H 0.28963 0.14884 0.42195 0.0
H255 H 0.10318 0.11424 0.49134 0.0
H256 H 0.04516 0.05355 0.54437 0.0
H257 H 0.06862 0.96751 0.66762 0.0
H258 H 0.14288 0.95891 0.69774 0.0
H259 H 0.16734 0.12775 0.64761 0.0
H260 H 0.31438 0.16416 0.57982 0.0
H261 H 0.20249 0.90887 0.53626 0.0
H262 H 0.19818 0.98546 0.42927 0.0
C263 C 0.47348 0.8384 0.09805 0.0
C264 C 0.47942 0.87396 0.10839 0.0
C265 C 0.52635 0.89364 0.09268 0.0
C266 C 0.5465 0.86924 0.07366 0.0
N267 N 0.51502 0.83557 0.07579 0.0
Co268 Co 0.53088 0.79179 0.05456 0.0
N269 N 0.59203 0.82467 0.01924 0.0
C270 C 0.61611 0.85865 0.02458 0.0
C271 C 0.65959 0.87338 0.99751 0.0
C272 C 0.66297 0.84692 0.97368 0.0
C273 C 0.62087 0.8177 0.98729 0.0
N274 N 0.54744 0.74831 0.03301 0.0
C275 C 0.57703 0.74852 0.99739 0.0
C276 C 0.57314 0.71166 0.99138 0.0
C277 C 0.54169 0.68784 0.02508 0.0
C278 C 0.52712 0.71121 0.04942 0.0
N279 N 0.46972 0.75865 0.09024 0.0
C280 C 0.4578 0.72041 0.10034 0.0
C281 C 0.41273 0.70501 0.12468 0.0
C282 C 0.39551 0.73546 0.13088 0.0
C283 C 0.43142 0.76793 0.11028 0.0
N284 N 0.4981 0.80058 0.0106 0.0
C285 C 0.45206 0.81246 0.94679 0.0
C286 C 0.44387 0.77603 0.97006 0.0
C287 C 0.46719 0.77071 1.00167 0.0
C288 C 0.48343 0.84297 0.95649 0.0
C289 C 0.50611 0.83642 0.98844 0.0
N290 N 0.56367 0.78316 0.09867 0.0
C291 C 0.5677 0.78338 0.16854 0.0
C292 C 0.61476 0.78095 0.15992 0.0
C293 C 0.63516 0.77778 0.12062 0.0
C294 C 0.60871 0.77836 0.09054 0.0
C295 C 0.54292 0.78468 0.1375 0.0
H296 H 0.62525 0.77609 0.0604 0.0
H297 H 0.50748 0.78814 0.14481 0.0
H298 H 0.46041 0.74226 0.01864 0.0
H299 H 0.53026 0.86032 0.99518 0.0
C300 C 0.59355 0.87794 0.05085 0.0
C301 C 0.43019 0.80665 0.11494 0.0
C302 C 0.61 0.78325 0.97017 0.0
C303 C 0.48653 0.70001 0.08146 0.0
H304 H 0.45313 0.88419 0.12672 0.0
H305 H 0.54365 0.92233 0.09488 0.0
H306 H 0.68506 0.90061 0.99452 0.0
H307 H 0.69285 0.84898 0.949 0.0
H308 H 0.58964 0.70243 0.96515 0.0
H309 H 0.52817 0.65726 0.02964 0.0
H310 H 0.39409 0.6752 0.13572 0.0
H311 H 0.36097 0.73397 0.1494 0.0
H312 H 0.4202 0.75161 0.96344 0.0
H313 H 0.49021 0.87172 0.93969 0.0
H314 H 0.55077 0.78568 0.19873 0.0
H315 H 0.67137 0.77527 0.11316 0.0
C316 C 0.81128 0.97279 0.58278 0.0
C317 C 0.85546 0.9693 0.58858 0.0
C318 C 0.88921 0.99773 0.56074 0.0
C319 C 0.86385 0.01694 0.5397 0.0
N320 N 0.81587 1.0027 0.55255 0.0
Co321 Co 0.76577 0.02189 0.53015 0.0
N322 N 0.81568 0.062 0.48732 0.0
C323 C 0.86367 0.06796 0.48061 0.0
C324 C 0.88882 0.09816 0.44975 0.0
C325 C 0.85495 0.11274 0.43617 0.0
C326 C 0.8109 0.09043 0.45968 0.0
N327 N 0.7157 0.0415 0.5082 0.0
C328 C 0.72055 0.07252 0.47929 0.0
C329 C 0.67654 0.07729 0.47462 0.0
C330 C 0.64258 0.04859 0.50203 0.0
C331 C 0.66769 0.02803 0.52177 0.0
N332 N 0.71587 0.98122 0.57253 0.0
C333 C 0.6678 0.97431 0.57824 0.0
C334 C 0.64272 0.94366 0.60865 0.0
C335 C 0.67673 0.92985 0.62302 0.0
C336 C 0.72078 0.95304 0.6005 0.0
N337 N 0.76668 0.05822 0.56786 0.0
C338 C 0.76465 0.11819 0.61003 0.0
C339 C 0.72307 0.08967 0.6125 0.0
C340 C 0.72486 0.06029 0.59139 0.0
C341 C 0.80794 0.11443 0.58884 0.0
C342 C 0.80819 0.08422 0.56841 0.0
N343 N 0.76452 0.98592 0.49208 0.0
C344 C 0.71976 0.93822 0.46179 0.0
C345 C 0.76183 0.93357 0.43978 0.0
C346 C 0.8054 0.95569 0.44388 0.0
C347 C 0.80594 0.98133 0.47029 0.0
C348 C 0.7219 0.96461 0.48716 0.0
H349 H 0.84023 0.99683 0.47285 0.0
H350 H 0.68849 0.96705 0.50261 0.0
H351 H 0.69161 0.04024 0.59371 0.0
H352 H 0.84217 0.08312 0.55227 0.0
C353 C 0.88408 0.04678 0.50611 0.0
C354 C 0.76614 0.94667 0.60644 0.0
C355 C 0.76589 0.09889 0.45645 0.0
C356 C 0.64733 0.99693 0.55417 0.0
H357 H 0.86254 0.94806 0.61034 0.0
H358 H 0.92767 1.00323 0.55582 0.0
H359 H 0.92726 0.10913 0.43936 0.0
H360 H 0.862 0.13769 0.41249 0.0
H361 H 0.6698 0.09962 0.45399 0.0
H362 H 0.60417 0.04378 0.50754 0.0
H363 H 0.6043 0.93244 0.61882 0.0
H364 H 0.66991 0.90522 0.64708 0.0
H365 H 0.68893 0.09039 0.63003 0.0
H366 H 0.84128 0.13544 0.58674 0.0
H367 H 0.68524 0.92165 0.45926 0.0
H368 H 0.83886 0.95261 0.42749 0.0
C369 C 0.45453 0.32221 0.08635 0.0
C370 C 0.45019 0.35763 0.09261 0.0
C371 C 0.48605 0.38405 0.0644 0.0
C372 C 0.51029 0.3634 0.04276 0.0
N373 N 0.49218 0.3253 0.05542 0.0
Co374 Co 0.51711 0.2848 0.0329 0.0
N375 N 0.5693 0.3238 0.99088 0.0
C376 C 0.57862 0.36207 0.98586 0.0
C377 C 0.61569 0.38148 0.95359 0.0
C378 C 0.63079 0.35403 0.93667 0.0
C379 C 0.602 0.31928 0.95983 0.0
N380 N 0.54188 0.24431 0.01015 0.0
C381 C 0.57714 0.24736 0.9772 0.0
C382 C 0.58225 0.21205 0.97139 0.0
C383 C 0.54855 0.18564 1.00142 0.0
C384 C 0.525 0.20625 0.02378 0.0
N385 N 0.46488 0.24577 0.07489 0.0
C386 C 0.45657 0.20752 0.0807 0.0
C387 C 0.41779 0.18805 0.11147 0.0
C388 C 0.40021 0.21543 0.12634 0.0
C389 C 0.4296 0.25021 0.1038 0.0
N390 N 0.47426 0.28368 0.99424 0.0
C391 C 0.41296 0.28204 0.93975 0.0
C392 C 0.41695 0.24841 0.96183 0.0
C393 C 0.44759 0.24986 0.98864 0.0
C394 C 0.43999 0.31651 0.94551 0.0
C395 C 0.47029 0.31669 0.97257 0.0
N396 N 0.55986 0.28594 0.07195 0.0
C397 C 0.58899 0.25322 0.12488 0.0
C398 C 0.61292 0.28767 0.13306 0.0
C399 C 0.61117 0.32124 0.10919 0.0
C400 C 0.58508 0.31973 0.07887 0.0
C401 C 0.5631 0.25301 0.09438 0.0
H402 H 0.5851 0.34635 0.06208 0.0
H403 H 0.54541 0.2258 0.09008 0.0
H404 H 0.44895 0.22325 0.00464 0.0
H405 H 0.49014 0.34386 0.97546 0.0
C406 C 0.55023 0.37896 0.0105 0.0
C407 C 0.42225 0.28657 0.11086 0.0
C408 C 0.60615 0.28286 0.95023 0.0
C409 C 0.4854 0.19068 0.05636 0.0
H410 H 0.4239 0.36379 0.1153 0.0
H411 H 0.49366 0.41467 0.06024 0.0
H412 H 0.62933 0.41195 0.94301 0.0
H413 H 0.65922 0.35909 0.90984 0.0
H414 H 0.60735 0.20602 0.94757 0.0
H415 H 0.54142 0.15503 0.00592 0.0
H416 H 0.40378 0.15756 0.1217 0.0
H417 H 0.36913 0.21032 0.15092 0.0
H418 H 0.39595 0.22102 0.95894 0.0
H419 H 0.43808 0.34329 0.92894 0.0
H420 H 0.58975 0.22642 0.14228 0.0
H421 H 0.62851 0.3487 0.11468 0.0
C422 C 0.1486 0.36147 0.33865 0.0
C423 C 0.17575 0.35039 0.36569 0.0
C424 C 0.12766 0.39125 0.34311 0.0
C425 C 0.13335 0.41149 0.37458 0.0
H426 H 0.14383 0.34715 0.31358 0.0
H427 H 0.10697 0.3986 0.3215 0.0
S428 S 0.20145 0.39358 0.45338 0.0
N429 N 0.20691 0.36141 0.42532 0.0
N430 N 0.16821 0.41806 0.43342 0.0
C431 C 0.15972 0.40021 0.40236 0.0
C432 C 0.18079 0.36953 0.39796 0.0
C433 C 0.24047 0.71671 0.73823 0.0
C434 C 0.21575 0.74474 0.74171 0.0
C435 C 0.21781 0.68065 0.73224 0.0
C436 C 0.16961 0.67134 0.72978 0.0
H437 H 0.27753 0.72263 0.74039 0.0
H438 H 0.23775 0.65965 0.73027 0.0
S439 S 0.08855 0.73363 0.73737 0.0
N440 N 0.13993 0.76012 0.74237 0.0
N441 N 0.09787 0.69236 0.73095 0.0
C442 C 0.14466 0.69899 0.73257 0.0
C443 C 0.16759 0.7357 0.73857 0.0
C444 C 0.85762 0.67574 0.30577 0.0
C445 C 0.85329 0.70374 0.32887 0.0
C446 C 0.87805 0.64674 0.3184 0.0
C447 C 0.89469 0.64476 0.35458 0.0
H448 H 0.84645 0.6769 0.27716 0.0
H449 H 0.88264 0.6267 0.29885 0.0
S450 S 0.88564 0.70845 0.42835 0.0
N451 N 0.86306 0.72581 0.39121 0.0
N452 N 0.90124 0.67111 0.41522 0.0
C453 C 0.8882 0.67145 0.37897 0.0
C454 C 0.86741 0.70092 0.36609 0.0
C455 C 0.89278 0.38522 0.72543 0.0
C456 C 0.8437 0.38244 0.73709 0.0
C457 C 0.92728 0.41999 0.72006 0.0
C458 C 0.91389 0.45314 0.72606 0.0
H459 H 0.90472 0.36004 0.72237 0.0
H460 H 0.96475 0.42067 0.71274 0.0
S461 S 0.79065 0.46229 0.75211 0.0
N462 N 0.78362 0.41684 0.75067 0.0
N463 N 0.84898 0.482 0.7413 0.0
C464 C 0.86523 0.4513 0.73575 0.0
C465 C 0.82999 0.41598 0.74108 0.0
C466 C 0.21698 0.22365 0.44593 0.0
C467 C 0.20659 0.22329 0.40727 0.0
C468 C 0.21435 0.18966 0.47215 0.0
C469 C 0.20059 0.15443 0.46066 0.0
H470 H 0.2291 0.25041 0.45521 0.0
H471 H 0.22434 0.19096 0.50107 0.0
S472 S 0.16632 0.13784 0.36435 0.0
N473 N 0.17939 0.18447 0.36 0.0
N474 N 0.17455 0.12083 0.40935 0.0
C475 C 0.1884 0.15357 0.42291 0.0
C476 C 0.19132 0.18798 0.39619 0.0
C477 C 0.3564 0.8041 0.88477 0.0
C478 C 0.38201 0.82496 0.84577 0.0
C479 C 0.37908 0.80097 0.91743 0.0
C480 C 0.42832 0.8181 0.91228 0.0
H481 H 0.31872 0.78969 0.89009 0.0
H482 H 0.35793 0.78473 0.94692 0.0
S483 S 0.51221 0.87278 0.81548 0.0
N484 N 0.45969 0.86127 0.80347 0.0
N485 N 0.50236 0.85488 0.86461 0.0
C486 C 0.45439 0.83859 0.87338 0.0
C487 C 0.43129 0.84192 0.84021 0.0
C488 C 0.73418 0.83838 0.40761 0.0
C489 C 0.75276 0.8481 0.36525 0.0
C490 C 0.73719 0.86629 0.43143 0.0
C491 C 0.75977 0.90476 0.41382 0.0
H492 H 0.7168 0.80899 0.42234 0.0
H493 H 0.7221 0.85771 0.46394 0.0
S494 S 0.81474 0.94484 0.30444 0.0
N495 N 0.79446 0.89872 0.30665 0.0
N496 N 0.80106 0.95121 0.35168 0.0
C497 C 0.77889 0.91483 0.3716 0.0
C498 C 0.77507 0.88648 0.34722 0.0
C499 C 0.6585 0.2783 0.84129 0.0
C500 C 0.708 0.28919 0.8391 0.0
C501 C 0.62546 0.275 0.87783 0.0
C502 C 0.64104 0.28224 0.91317 0.0
H503 H 0.64536 0.27399 0.8142 0.0
H504 H 0.58763 0.26798 0.87817 0.0
S505 S 0.76616 0.30744 0.92458 0.0
N506 N 0.77062 0.30417 0.87627 0.0
N507 N 0.70835 0.29776 0.94483 0.0
C508 C 0.69013 0.2912 0.91193 0.0
C509 C 0.72369 0.29475 0.87486 0.0
C510 C 0.21075 0.88591 0.69508 0.0
C511 C 0.24787 0.8878 0.7163 0.0
C512 C 0.20641 0.91802 0.6702 0.0
C513 C 0.23637 0.95442 0.66768 0.0
H514 H 0.18458 0.85935 0.697 0.0
H515 H 0.17932 0.91412 0.6525 0.0
S516 S 0.33739 0.97751 0.71809 0.0
N517 N 0.31681 0.9308 0.73103 0.0
N518 N 0.3021 0.9916 0.6904 0.0
C519 C 0.27153 0.95765 0.69057 0.0
C520 C 0.27869 0.92446 0.71347 0.0
C521 C 0.65274 0.75687 0.25877 0.0
C522 C 0.69307 0.7874 0.25529 0.0
C523 C 0.62755 0.7549 0.2277 0.0
C524 C 0.64261 0.78293 0.19177 0.0
H525 H 0.64044 0.73452 0.28586 0.0
H526 H 0.5963 0.73119 0.23162 0.0
S527 S 0.74618 0.86834 0.1677 0.0
N528 N 0.74683 0.84623 0.21337 0.0
N529 N 0.70002 0.84211 0.15448 0.0
C530 C 0.68304 0.81342 0.1878 0.0
C531 C 0.70814 0.81579 0.21974 0.0
C532 C 0.79251 0.19718 0.66972 0.0
C533 C 0.75767 0.21667 0.66458 0.0
C534 C 0.79463 0.16539 0.65207 0.0
C535 C 0.76234 0.15208 0.62835 0.0
H536 H 0.81835 0.20643 0.68746 0.0
H537 H 0.8215 0.15094 0.65732 0.0
S538 S 0.6683 0.19584 0.60172 0.0
N539 N 0.69274 0.22203 0.6316 0.0
N540 N 0.69702 0.16283 0.5981 0.0
C541 C 0.7284 0.17205 0.62201 0.0
C542 C 0.72618 0.20424 0.64002 0.0
C543 C 0.34568 0.27831 0.21591 0.0
C544 C 0.3058 0.28971 0.20706 0.0
C545 C 0.38336 0.27756 0.18465 0.0
C546 C 0.38193 0.28739 0.14358 0.0
H547 H 0.34777 0.26993 0.24723 0.0
H548 H 0.41372 0.26907 0.19258 0.0
S549 S 0.28455 0.31632 0.10399 0.0
N550 N 0.26647 0.3093 0.15403 0.0
N551 N 0.33717 0.30725 0.09541 0.0
C552 C 0.34202 0.29794 0.13423 0.0
C553 C 0.30385 0.29905 0.16596 0.0
C554 C 0.90796 0.71904 0.7267 0.0
C555 C 0.86255 0.70471 0.75336 0.0
C556 C 0.94147 0.69757 0.72427 0.0
C557 C 0.93097 0.66091 0.74853 0.0
H558 H 0.91699 0.74657 0.70656 0.0
H559 H 0.97562 0.70953 0.70273 0.0
S560 S 0.81749 0.61088 0.82427 0.0
N561 N 0.80954 0.65219 0.80567 0.0
N562 N 0.8718 0.61165 0.80066 0.0
C563 C 0.88619 0.64682 0.77628 0.0
C564 C 0.85221 0.66873 0.77881 0.0
C565 C 0.8979 0.34999 0.35041 0.0
C566 C 0.85107 0.34919 0.34635 0.0
C567 C 0.92872 0.38284 0.35672 0.0
C568 C 0.91349 0.41571 0.35954 0.0
H569 H 0.91106 0.32526 0.348 0.0
H570 H 0.96473 0.38267 0.35911 0.0
S571 S 0.79422 0.42807 0.35308 0.0
N572 N 0.79076 0.38401 0.3472 0.0
N573 N 0.84892 0.44563 0.35881 0.0
C574 C 0.8668 0.41523 0.35612 0.0
C575 C 0.83552 0.38198 0.34957 0.0
C576 C 0.17855 0.36657 0.74657 0.0
C577 C 0.21666 0.36637 0.71521 0.0
C578 C 0.15677 0.39639 0.74463 0.0
C579 C 0.17282 0.42758 0.71161 0.0
H580 H 0.16568 0.34353 0.77301 0.0
H581 H 0.1275 0.39532 0.7695 0.0
S582 S 0.27108 0.44058 0.62148 0.0
N583 N 0.26915 0.39962 0.64985 0.0
N584 N 0.22863 0.45618 0.64648 0.0
C585 C 0.21081 0.42775 0.67996 0.0
C586 C 0.23255 0.39697 0.68164 0.0
C587 C 0.14354 0.71117 0.39434 0.0
C588 C 0.19373 0.72387 0.38222 0.0
C589 C 0.1193 0.67273 0.39873 0.0
C590 C 0.14436 0.64557 0.39138 0.0
H591 H 0.12267 0.73139 0.39802 0.0
H592 H 0.08058 0.66458 0.40592 0.0
S593 S 0.27584 0.66294 0.36491 0.0
N594 N 0.26776 0.7053 0.36756 0.0
N595 N 0.22182 0.63309 0.37556 0.0
C596 C 0.19445 0.65731 0.38213 0.0
C597 C 0.21923 0.69645 0.37756 0.0
C598 C 0.773 0.8518 0.66295 0.0
C599 C 0.76672 0.85656 0.70365 0.0
C600 C 0.77273 0.88102 0.63147 0.0
C601 C 0.76638 0.91585 0.63976 0.0
H602 H 0.77742 0.82518 0.65551 0.0
H603 H 0.77731 0.87638 0.60052 0.0
S604 S 0.75209 0.94386 0.74009 0.0
N605 N 0.75679 0.89996 0.74974 0.0
N606 N 0.75566 0.95424 0.69059 0.0
C607 C 0.76093 0.92124 0.67993 0.0
C608 C 0.76126 0.89174 0.71188 0.0
C609 C 0.63314 0.26708 0.24026 0.0
C610 C 0.67818 0.29215 0.23732 0.0
C611 C 0.61292 0.26527 0.2062 0.0
C612 C 0.6369 0.28849 0.16787 0.0
H613 H 0.61297 0.24917 0.26927 0.0
H614 H 0.5776 0.24623 0.21021 0.0
S615 S 0.75717 0.35717 0.14372 0.0
N616 N 0.74694 0.33967 0.193 0.0
N617 N 0.70948 0.33582 0.12867 0.0
C618 C 0.68251 0.31304 0.16437 0.0
C619 C 0.70299 0.31494 0.19913 0.0
C620 C 0.21777 0.23466 0.66338 0.0
C621 C 0.25961 0.24911 0.67669 0.0
C622 C 0.21312 0.20381 0.64334 0.0
C623 C 0.24975 0.18545 0.63617 0.0
H624 H 0.18761 0.24645 0.66958 0.0
H625 H 0.18011 0.19409 0.63377 0.0
S626 S 0.36825 0.21406 0.66229 0.0
N627 N 0.34044 0.24501 0.67743 0.0
N628 N 0.33011 0.18513 0.64348 0.0
C629 C 0.29232 0.20029 0.64843 0.0
C630 C 0.29756 0.23241 0.66778 0.0
C631 C 0.32769 0.8395 0.16975 0.0
C632 C 0.32464 0.82526 0.21116 0.0
C633 C 0.36128 0.8329 0.1387 0.0
C634 C 0.39288 0.81167 0.14797 0.0
H635 H 0.30391 0.85598 0.16131 0.0
H636 H 0.36287 0.84471 0.10725 0.0
S637 S 0.39885 0.76656 0.25095 0.0
N638 N 0.35492 0.78688 0.25929 0.0
N639 N 0.41942 0.77639 0.20109 0.0
C640 C 0.39009 0.79697 0.18908 0.0
C641 C 0.35544 0.80306 0.22063 0.0
C642 C 0.77849 0.17671 0.36568 0.0
C643 C 0.77512 0.20813 0.38378 0.0
C644 C 0.77441 0.14117 0.3894 0.0
C645 C 0.76671 0.13587 0.43198 0.0
H646 H 0.78546 0.17983 0.33285 0.0
H647 H 0.77814 0.11784 0.37439 0.0
S648 S 0.75236 0.20767 0.49468 0.0
N649 N 0.7611 0.23068 0.44731 0.0
N650 N 0.75428 0.16387 0.49162 0.0
C651 C 0.76224 0.16654 0.45061 0.0
C652 C 0.76633 0.20272 0.42657 0.0
C653 C 0.31552 0.30296 0.88835 0.0
C654 C 0.31438 0.27947 0.85946 0.0
C655 C 0.3477 0.30379 0.91401 0.0
C656 C 0.37999 0.28125 0.91159 0.0
H657 H 0.29119 0.32069 0.89127 0.0
H658 H 0.34686 0.32184 0.93628 0.0
S659 S 0.39395 0.2175 0.83851 0.0
N660 N 0.34985 0.23485 0.82827 0.0
N661 N 0.41068 0.23654 0.87623 0.0
C662 C 0.37987 0.25829 0.88218 0.0
C663 C 0.34711 0.25748 0.8561 0.0
C664 C 0.18508 0.87825 0.40236 0.0
C665 C 0.21905 0.85783 0.40633 0.0
C666 C 0.17958 0.90571 0.42604 0.0
C667 C 0.20803 0.91377 0.45435 0.0
H668 H 0.16287 0.87309 0.38068 0.0
H669 H 0.15274 0.92061 0.42226 0.0
S670 S 0.30451 0.86948 0.47351 0.0
N671 N 0.28245 0.84808 0.43922 0.0
N672 N 0.27335 0.90008 0.48294 0.0
C673 C 0.24254 0.89362 0.45801 0.0
C674 C 0.24776 0.8656 0.43416 0.0
C675 C 0.6936 0.76074 0.88291 0.0
C676 C 0.69937 0.7908 0.84975 0.0
C677 C 0.66518 0.75837 0.92152 0.0
C678 C 0.63736 0.78375 0.92832 0.0
H679 H 0.71161 0.73877 0.8799 0.0
H680 H 0.66626 0.73693 0.9464 0.0
S681 S 0.63887 0.86879 0.85482 0.0
N682 N 0.67753 0.84987 0.82997 0.0
N683 N 0.61671 0.83988 0.89955 0.0
C684 C 0.64101 0.81313 0.89572 0.0
C685 C 0.67331 0.81783 0.85733 0.0
loop_
_geom_bond_atom_site_label_1
_geom_bond_atom_site_label_2
_geom_bond_distance
_geom_bond_site_symmetry_2
_ccdc_geom_bond_type
H0 C7 0.929 . S
H1 C10 0.930 . S
H2 C12 0.929 . S
H3 C4 0.969 . S
C4 H3 0.969 . S
C4 O5 1.550 . S
C4 H6 0.973 . S
O5 C4 1.550 . S
O5 C11 1.412 . S
H6 C4 0.973 . S
C7 H0 0.929 . S
C7 C8 1.400 . S
C7 C9 1.364 . S
C8 C7 1.400 . S
C8 C12 1.377 . S
C9 C7 1.364 . S
C9 C10 1.374 . S
C10 H1 0.930 . S
C10 C9 1.374 . S
C10 C11 1.383 . S
C11 O5 1.412 . S
C11 C10 1.383 . S
C11 C12 1.394 . S
C12 H2 0.929 . S
C12 C8 1.377 . S
C12 C11 1.394 . S
H13 C20 0.929 . S
H14 C23 0.930 . S
H15 C25 0.929 . S
H16 C17 0.969 . S
C17 H16 0.969 . S
C17 O18 1.550 . S
C17 H19 0.973 . S
O18 C17 1.550 . S
O18 C24 1.412 . S
H19 C17 0.973 . S
C20 H13 0.929 . S
C20 C21 1.400 . S
C20 C22 1.364 . S
C21 C20 1.400 . S
C21 C25 1.377 . S
C22 C20 1.364 . S
C22 C23 1.374 . S
C23 H14 0.930 . S
C23 C22 1.374 . S
C23 C24 1.383 . S
C24 O18 1.412 . S
C24 C23 1.383 . S
C24 C25 1.394 . S
C25 H15 0.929 . S
C25 C21 1.377 . S
C25 C24 1.394 . S
H26 C33 0.929 . S
H27 C36 0.930 . S
H28 C38 0.929 . S
H29 C30 0.969 . S
C30 H29 0.969 . S
C30 O31 1.550 . S
C30 H32 0.973 . S
O31 C30 1.550 . S
O31 C37 1.412 . S
H32 C30 0.973 . S
C33 H26 0.929 . S
C33 C34 1.400 . S
C33 C35 1.364 . S
C34 C33 1.400 . S
C34 C38 1.377 . S
C35 C33 1.364 . S
C35 C36 1.374 . S
C36 H27 0.930 . S
C36 C35 1.374 . S
C36 C37 1.383 . S
C37 O31 1.412 . S
C37 C36 1.383 . S
C37 C38 1.394 . S
C38 H28 0.929 . S
C38 C34 1.377 . S
C38 C37 1.394 . S
H39 C46 0.929 . S
H40 C49 0.930 . S
H41 C51 0.929 . S
H42 C43 0.969 . S
C43 H42 0.969 . S
C43 O44 1.550 . S
C43 H45 0.973 . S
O44 C43 1.550 . S
O44 C50 1.412 . S
H45 C43 0.973 . S
C46 H39 0.929 . S
C46 C47 1.400 . S
C46 C48 1.364 . S
C47 C46 1.400 . S
C47 C51 1.377 . S
C48 C46 1.364 . S
C48 C49 1.374 . S
C49 H40 0.930 . S
C49 C48 1.374 . S
C49 C50 1.383 . S
C50 O44 1.412 . S
C50 C49 1.383 . S
C50 C51 1.394 . S
C51 H41 0.929 . S
C51 C47 1.377 . S
C51 C50 1.394 . S
H52 C59 0.929 . S
H53 C62 0.930 . S
H54 C64 0.929 . S
H55 C56 0.969 . S
C56 H55 0.969 . S
C56 O57 1.550 . S
C56 H58 0.973 . S
O57 C56 1.550 . S
O57 C63 1.412 . S
H58 C56 0.973 . S
C59 H52 0.929 . S
C59 C60 1.400 . S
C59 C61 1.364 . S
C60 C59 1.400 . S
C60 C64 1.377 . S
C61 C59 1.364 . S
C61 C62 1.374 . S
C62 H53 0.930 . S
C62 C61 1.374 . S
C62 C63 1.383 . S
C63 O57 1.412 . S
C63 C62 1.383 . S
C63 C64 1.394 . S
C64 H54 0.929 . S
C64 C60 1.377 . S
C64 C63 1.394 . S
H65 C72 0.929 . S
H66 C75 0.930 . S
H67 C77 0.929 . S
H68 C69 0.969 . S
C69 H68 0.969 . S
C69 O70 1.550 . S
C69 H71 0.973 . S
O70 C69 1.550 . S
O70 C76 1.412 . S
H71 C69 0.973 . S
C72 H65 0.929 . S
C72 C73 1.400 . S
C72 C74 1.364 . S
C73 C72 1.400 . S
C73 C77 1.377 . S
C74 C72 1.364 . S
C74 C75 1.374 . S
C75 H66 0.930 . S
C75 C74 1.374 . S
C75 C76 1.383 . S
C76 O70 1.412 . S
C76 C75 1.383 . S
C76 C77 1.394 . S
C77 H67 0.929 . S
C77 C73 1.377 . S
C77 C76 1.394 . S
H78 C85 0.929 . S
H79 C88 0.930 . S
H80 C90 0.929 . S
H81 C82 0.969 . S
C82 H81 0.969 . S
C82 O83 1.550 . S
C82 H84 0.973 . S
O83 C82 1.550 . S
O83 C89 1.412 . S
H84 C82 0.973 . S
C85 H78 0.929 . S
C85 C86 1.400 . S
C85 C87 1.364 . S
C86 C85 1.400 . S
C86 C90 1.377 . S
C87 C85 1.364 . S
C87 C88 1.374 . S
C88 H79 0.930 . S
C88 C87 1.374 . S
C88 C89 1.383 . S
C89 O83 1.412 . S
C89 C88 1.383 . S
C89 C90 1.394 . S
C90 H80 0.929 . S
C90 C86 1.377 . S
C90 C89 1.394 . S
H91 C98 0.929 . S
H92 C101 0.930 . S
H93 C103 0.929 . S
H94 C95 0.969 . S
C95 H94 0.969 . S
C95 O96 1.550 . S
C95 H97 0.973 . S
O96 C95 1.550 . S
O96 C102 1.412 . S
H97 C95 0.973 . S
C98 H91 0.929 . S
C98 C99 1.400 . S
C98 C100 1.364 . S
C99 C98 1.400 . S
C99 C103 1.377 . S
C100 C98 1.364 . S
C100 C101 1.374 . S
C101 H92 0.930 . S
C101 C100 1.374 . S
C101 C102 1.383 . S
C102 O96 1.412 . S
C102 C101 1.383 . S
C102 C103 1.394 . S
C103 H93 0.929 . S
C103 C99 1.377 . S
C103 C102 1.394 . S
C104 C105 1.443 . S
C104 N108 1.376 . S
C104 C142 1.389 . S
C105 C104 1.443 . S
C105 C106 1.340 . S
C105 H145 0.951 . S
C106 C105 1.340 . S
C106 C107 1.439 1_455 S
C106 H146 0.952 . S
C107 C106 1.439 1_655 S
C107 N108 1.374 1_655 S
C107 C141 1.395 . S
N108 C104 1.376 . S
N108 C107 1.374 1_455 S
N108 Co109 2.009 . S
Co109 N108 2.009 . S
Co109 N110 1.994 1_455 S
Co109 N115 2.008 1_455 S
Co109 N120 1.995 . S
Co109 N125 2.284 . S
Co109 N131 2.281 1_455 S
N110 Co109 1.994 1_655 S
N110 C111 1.376 . S
N110 C114 1.383 . S
C111 N110 1.376 . S
C111 C112 1.446 . S
C111 C141 1.391 . S
C112 C111 1.446 . S
C112 C113 1.339 . S
C112 H147 0.949 . S
C113 C112 1.339 . S
C113 C114 1.439 . S
C113 H148 0.950 . S
C114 N110 1.383 . S
C114 C113 1.439 . S
C114 C143 1.392 . S
N115 Co109 2.008 1_655 S
N115 C116 1.376 . S
N115 C119 1.374 1_655 S
C116 N115 1.376 . S
C116 C117 1.443 . S
C116 C143 1.389 . S
C117 C116 1.443 . S
C117 C118 1.340 . S
C117 H149 0.951 . S
C118 C117 1.340 . S
C118 C119 1.439 1_655 S
C118 H150 0.951 . S
C119 N115 1.374 1_455 S
C119 C118 1.439 1_455 S
C119 C144 1.395 . S
N120 Co109 1.995 . S
N120 C121 1.376 . S
N120 C124 1.383 . S
C121 N120 1.376 . S
C121 C122 1.446 . S
C121 C144 1.391 . S
C122 C121 1.446 . S
C122 C123 1.339 . S
C122 H151 0.949 . S
C123 C122 1.339 . S
C123 C124 1.439 . S
C123 H152 0.950 . S
C124 N120 1.383 . S
C124 C123 1.439 . S
C124 C142 1.392 . S
N125 Co109 2.284 . S
N125 C128 1.332 . S
N125 C130 1.332 . S
C126 C127 1.386 . S
C126 C129 1.388 . S
C127 C126 1.386 . S
C127 C128 1.382 . S
C127 H153 0.950 . S
C128 N125 1.332 . S
C128 C127 1.382 . S
C128 H139 0.952 . S
C129 C126 1.388 . S
C129 C130 1.382 . S
C129 H154 0.950 . S
C130 N125 1.332 . S
C130 C129 1.382 . S
C130 H140 0.948 . S
N131 Co109 2.281 1_655 S
N131 C135 1.332 . S
N131 C136 1.332 . S
C132 C133 1.388 . S
C132 C136 1.382 . S
C132 H155 0.950 . S
C133 C132 1.388 . S
C133 C134 1.386 . S
C134 C133 1.386 . S
C134 C135 1.382 . S
C134 H156 0.950 . S
C135 N131 1.332 . S
C135 C134 1.382 . S
C135 H137 0.952 . S
C136 N131 1.332 . S
C136 C132 1.382 . S
C136 H138 0.948 . S
H137 C135 0.952 . S
H138 C136 0.948 . S
H139 C128 0.952 . S
H140 C130 0.948 . S
C141 C107 1.395 . S
C141 C111 1.391 . S
C142 C104 1.389 . S
C142 C124 1.392 . S
C143 C114 1.392 . S
C143 C116 1.389 . S
C144 C119 1.395 . S
C144 C121 1.391 . S
H145 C105 0.951 . S
H146 C106 0.952 . S
H147 C112 0.949 . S
H148 C113 0.950 . S
H149 C117 0.951 . S
H150 C118 0.951 . S
H151 C122 0.949 . S
H152 C123 0.950 . S
H153 C127 0.950 . S
H154 C129 0.950 . S
H155 C132 0.950 . S
H156 C134 0.950 . S
C157 C158 1.443 . S
C157 N161 1.376 . S
C157 C195 1.389 . S
C158 C157 1.443 . S
C158 C159 1.340 . S
C158 H198 0.951 . S
C159 C158 1.340 . S
C159 C160 1.439 . S
C159 H199 0.950 . S
C160 C159 1.439 . S
C160 N161 1.374 . S
C160 C194 1.395 . S
N161 C157 1.376 . S
N161 C160 1.374 . S
N161 Co162 2.008 . S
Co162 N161 2.008 . S
Co162 N163 1.995 . S
Co162 N168 2.008 . S
Co162 N173 1.995 . S
Co162 N178 2.282 . S
Co162 N184 2.282 . S
N163 Co162 1.995 . S
N163 C164 1.376 1_455 S
N163 C167 1.383 1_455 S
C164 N163 1.376 1_655 S
C164 C165 1.446 . S
C164 C194 1.391 1_655 S
C165 C164 1.446 . S
C165 C166 1.339 . S
C165 H200 0.949 . S
C166 C165 1.339 . S
C166 C167 1.439 . S
C166 H201 0.950 . S
C167 N163 1.383 1_655 S
C167 C166 1.439 . S
C167 C196 1.392 . S
N168 Co162 2.008 . S
N168 C169 1.376 . S
N168 C172 1.374 . S
C169 N168 1.376 . S
C169 C170 1.443 . S
C169 C196 1.389 1_455 S
C170 C169 1.443 . S
C170 C171 1.340 . S
C170 H202 0.951 1_455 S
C171 C170 1.340 . S
C171 C172 1.439 . S
C171 H203 0.950 . S
C172 N168 1.374 . S
C172 C171 1.439 . S
C172 C197 1.395 . S
N173 Co162 1.995 . S
N173 C174 1.376 . S
N173 C177 1.383 . S
C174 N173 1.376 . S
C174 C175 1.446 . S
C174 C197 1.391 . S
C175 C174 1.446 . S
C175 C176 1.339 . S
C175 H204 0.949 . S
C176 C175 1.339 . S
C176 C177 1.439 . S
C176 H205 0.950 . S
C177 N173 1.383 . S
C177 C176 1.439 . S
C177 C195 1.392 . S
N178 Co162 2.282 . S
N178 C181 1.332 . S
N178 C183 1.332 . S
C179 C180 1.386 . S
C179 C182 1.388 . S
C180 C179 1.386 . S
C180 C181 1.382 . S
C180 H206 0.950 . S
C181 N178 1.332 . S
C181 C180 1.382 . S
C181 H192 0.952 . S
C182 C179 1.388 . S
C182 C183 1.382 . S
C182 H207 0.950 . S
C183 N178 1.332 . S
C183 C182 1.382 . S
C183 H193 0.948 . S
N184 Co162 2.282 . S
N184 C188 1.332 1_455 S
N184 C189 1.332 . S
C185 C186 1.388 . S
C185 C189 1.382 1_655 S
C185 H208 0.950 . S
C186 C185 1.388 . S
C186 C187 1.386 . S
C187 C186 1.386 . S
C187 C188 1.382 . S
C187 H209 0.950 . S
C188 N184 1.332 1_655 S
C188 C187 1.382 . S
C188 H190 0.952 . S
C189 N184 1.332 . S
C189 C185 1.382 1_455 S
C189 H191 0.948 . S
H190 C188 0.952 . S
H191 C189 0.948 . S
H192 C181 0.952 . S
H193 C183 0.948 . S
C194 C160 1.395 . S
C194 C164 1.391 1_455 S
C195 C157 1.389 . S
C195 C177 1.392 . S
C196 C167 1.392 . S
C196 C169 1.389 1_655 S
C197 C172 1.395 . S
C197 C174 1.391 . S
H198 C158 0.951 . S
H199 C159 0.950 . S
H200 C165 0.949 . S
H201 C166 0.950 . S
H202 C170 0.951 1_655 S
H203 C171 0.950 . S
H204 C175 0.949 . S
H205 C176 0.950 . S
H206 C180 0.950 . S
H207 C182 0.950 . S
H208 C185 0.950 . S
H209 C187 0.950 . S
C210 C211 1.443 . S
C210 N214 1.376 . S
C210 C248 1.389 . S
C211 C210 1.443 . S
C211 C212 1.340 . S
C211 H251 0.951 . S
C212 C211 1.340 . S
C212 C213 1.439 1_565 S
C212 H252 0.950 . S
C213 C212 1.439 1_545 S
C213 N214 1.374 1_545 S
C213 C247 1.395 . S
N214 C210 1.376 . S
N214 C213 1.374 1_565 S
N214 Co215 2.008 1_565 S
Co215 N214 2.008 1_545 S
Co215 N216 1.995 . S
Co215 N221 2.008 . S
Co215 N226 1.995 1_545 S
Co215 N231 2.282 . S
Co215 N237 2.282 1_545 S
N216 Co215 1.995 . S
N216 C217 1.376 . S
N216 C220 1.383 . S
C217 N216 1.376 . S
C217 C218 1.446 . S
C217 C247 1.391 . S
C218 C217 1.446 . S
C218 C219 1.339 . S
C218 H253 0.949 . S
C219 C218 1.339 . S
C219 C220 1.439 . S
C219 H254 0.950 . S
C220 N216 1.383 . S
C220 C219 1.439 . S
C220 C249 1.392 . S
N221 Co215 2.008 . S
N221 C222 1.376 . S
N221 C225 1.374 . S
C222 N221 1.376 . S
C222 C223 1.443 . S
C222 C249 1.389 . S
C223 C222 1.443 . S
C223 C224 1.340 . S
C223 H255 0.951 . S
C224 C223 1.340 . S
C224 C225 1.439 . S
C224 H256 0.950 1_455 S
C225 N221 1.374 . S
C225 C224 1.439 . S
C225 C250 1.395 1_545 S
N226 Co215 1.995 1_565 S
N226 C227 1.376 . S
N226 C230 1.383 . S
C227 N226 1.376 . S
C227 C228 1.446 . S
C227 C250 1.391 . S
C228 C227 1.446 . S
C228 C229 1.339 . S
C228 H257 0.949 1_455 S
C229 C228 1.339 . S
C229 C230 1.439 . S
C229 H258 0.950 . S
C230 N226 1.383 . S
C230 C229 1.439 . S
C230 C248 1.392 . S
N231 Co215 2.282 . S
N231 C234 1.332 . S
N231 C236 1.332 . S
C232 C233 1.386 . S
C232 C235 1.388 . S
C233 C232 1.386 . S
C233 C234 1.382 . S
C233 H259 0.950 . S
C234 N231 1.332 . S
C234 C233 1.382 . S
C234 H245 0.952 . S
C235 C232 1.388 . S
C235 C236 1.382 . S
C235 H260 0.950 . S
C236 N231 1.332 . S
C236 C235 1.382 . S
C236 H246 0.948 . S
N237 Co215 2.282 1_565 S
N237 C241 1.332 . S
N237 C242 1.332 . S
C238 C239 1.388 . S
C238 C242 1.382 . S
C238 H261 0.950 . S
C239 C238 1.388 . S
C239 C240 1.386 . S
C240 C239 1.386 . S
C240 C241 1.382 . S
C240 H262 0.950 . S
C241 N237 1.332 . S
C241 C240 1.382 . S
C241 H243 0.952 . S
C242 N237 1.332 . S
C242 C238 1.382 . S
C242 H244 0.948 . S
H243 C241 0.952 . S
H244 C242 0.948 . S
H245 C234 0.952 . S
H246 C236 0.948 . S
C247 C213 1.395 . S
C247 C217 1.391 . S
C248 C210 1.389 . S
C248 C230 1.392 . S
C249 C220 1.392 . S
C249 C222 1.389 . S
C250 C225 1.395 1_565 S
C250 C227 1.391 . S
H251 C211 0.951 . S
H252 C212 0.950 . S
H253 C218 0.949 . S
H254 C219 0.950 . S
H255 C223 0.951 . S
H256 C224 0.950 1_655 S
H257 C228 0.949 1_655 S
H258 C229 0.950 . S
H259 C233 0.950 . S
H260 C235 0.950 . S
H261 C238 0.950 . S
H262 C240 0.950 . S
C263 C264 1.443 . S
C263 N267 1.376 . S
C263 C301 1.389 . S
C264 C263 1.443 . S
C264 C265 1.340 . S
C264 H304 0.951 . S
C265 C264 1.340 . S
C265 C266 1.439 . S
C265 H305 0.950 . S
C266 C265 1.439 . S
C266 N267 1.374 . S
C266 C300 1.395 . S
N267 C263 1.376 . S
N267 C266 1.374 . S
N267 Co268 2.008 . S
Co268 N267 2.008 . S
Co268 N269 1.995 1_554 S
Co268 N274 2.008 . S
Co268 N279 1.995 . S
Co268 N284 2.282 1_554 S
Co268 N290 2.282 . S
N269 Co268 1.995 1_556 S
N269 C270 1.376 . S
N269 C273 1.383 . S
C270 N269 1.376 . S
C270 C271 1.446 . S
C270 C300 1.391 1_556 S
C271 C270 1.446 . S
C271 C272 1.339 . S
C271 H306 0.949 . S
C272 C271 1.339 . S
C272 C273 1.439 . S
C272 H307 0.950 . S
C273 N269 1.383 . S
C273 C272 1.439 . S
C273 C302 1.392 . S
N274 Co268 2.008 . S
N274 C275 1.376 1_554 S
N274 C278 1.374 . S
C275 N274 1.376 1_556 S
C275 C276 1.443 . S
C275 C302 1.389 . S
C276 C275 1.443 . S
C276 C277 1.340 . S
C276 H308 0.951 . S
C277 C276 1.340 . S
C277 C278 1.439 1_556 S
C277 H309 0.950 . S
C278 N274 1.374 . S
C278 C277 1.439 1_554 S
C278 C303 1.395 . S
N279 Co268 1.995 . S
N279 C280 1.376 . S
N279 C283 1.383 . S
C280 N279 1.376 . S
C280 C281 1.446 . S
C280 C303 1.391 . S
C281 C280 1.446 . S
C281 C282 1.339 . S
C281 H310 0.949 . S
C282 C281 1.339 . S
C282 C283 1.439 . S
C282 H311 0.950 . S
C283 N279 1.383 . S
C283 C282 1.439 . S
C283 C301 1.392 . S
N284 Co268 2.282 1_556 S
N284 C287 1.332 . S
N284 C289 1.332 . S
C285 C286 1.386 . S
C285 C288 1.388 . S
C286 C285 1.386 . S
C286 C287 1.382 . S
C286 H312 0.950 . S
C287 N284 1.332 . S
C287 C286 1.382 . S
C287 H298 0.952 1_556 S
C288 C285 1.388 . S
C288 C289 1.382 . S
C288 H313 0.950 . S
C289 N284 1.332 . S
C289 C288 1.382 . S
C289 H299 0.948 . S
N290 Co268 2.282 . S
N290 C294 1.332 . S
N290 C295 1.332 . S
C291 C292 1.388 . S
C291 C295 1.382 . S
C291 H314 0.950 . S
C292 C291 1.388 . S
C292 C293 1.386 . S
C293 C292 1.386 . S
C293 C294 1.382 . S
C293 H315 0.950 . S
C294 N290 1.332 . S
C294 C293 1.382 . S
C294 H296 0.952 . S
C295 N290 1.332 . S
C295 C291 1.382 . S
C295 H297 0.948 . S
H296 C294 0.952 . S
H297 C295 0.948 . S
H298 C287 0.952 1_554 S
H299 C289 0.948 . S
C300 C266 1.395 . S
C300 C270 1.391 1_554 S
C301 C263 1.389 . S
C301 C283 1.392 . S
C302 C273 1.392 . S
C302 C275 1.389 . S
C303 C278 1.395 . S
C303 C280 1.391 . S
H304 C264 0.951 . S
H305 C265 0.950 . S
H306 C271 0.949 . S
H307 C272 0.950 . S
H308 C276 0.951 . S
H309 C277 0.950 . S
H310 C281 0.949 . S
H311 C282 0.950 . S
H312 C286 0.950 . S
H313 C288 0.950 . S
H314 C291 0.950 . S
H315 C293 0.950 . S
C316 C317 1.443 . S
C316 N320 1.376 . S
C316 C354 1.389 . S
C317 C316 1.443 . S
C317 C318 1.340 . S
C317 H357 0.951 . S
C318 C317 1.340 . S
C318 C319 1.439 . S
C318 H358 0.950 . S
C319 C318 1.439 . S
C319 N320 1.374 . S
C319 C353 1.395 1_565 S
N320 C316 1.376 . S
N320 C319 1.374 . S
N320 Co321 2.008 1_565 S
Co321 N320 2.008 1_545 S
Co321 N322 1.995 . S
Co321 N327 2.008 . S
Co321 N332 1.995 1_545 S
Co321 N337 2.282 . S
Co321 N343 2.282 1_545 S
N322 Co321 1.995 . S
N322 C323 1.376 . S
N322 C326 1.383 . S
C323 N322 1.376 . S
C323 C324 1.446 . S
C323 C353 1.391 . S
C324 C323 1.446 . S
C324 C325 1.339 . S
C324 H359 0.949 . S
C325 C324 1.339 . S
C325 C326 1.439 . S
C325 H360 0.950 . S
C326 N322 1.383 . S
C326 C325 1.439 . S
C326 C355 1.392 . S
N327 Co321 2.008 . S
N327 C328 1.376 . S
N327 C331 1.374 . S
C328 N327 1.376 . S
C328 C329 1.443 . S
C328 C355 1.389 . S
C329 C328 1.443 . S
C329 C330 1.340 . S
C329 H361 0.951 . S
C330 C329 1.340 . S
C330 C331 1.439 . S
C330 H362 0.950 . S
C331 N327 1.374 . S
C331 C330 1.439 . S
C331 C356 1.395 1_545 S
N332 Co321 1.995 1_565 S
N332 C333 1.376 . S
N332 C336 1.383 . S
C333 N332 1.376 . S
C333 C334 1.446 . S
C333 C356 1.391 . S
C334 C333 1.446 . S
C334 C335 1.339 . S
C334 H363 0.949 . S
C335 C334 1.339 . S
C335 C336 1.439 . S
C335 H364 0.950 . S
C336 N332 1.383 . S
C336 C335 1.439 . S
C336 C354 1.392 . S
N337 Co321 2.282 . S
N337 C340 1.332 . S
N337 C342 1.332 . S
C338 C339 1.386 . S
C338 C341 1.388 . S
C339 C338 1.386 . S
C339 C340 1.382 . S
C339 H365 0.950 . S
C340 N337 1.332 . S
C340 C339 1.382 . S
C340 H351 0.952 . S
C341 C338 1.388 . S
C341 C342 1.382 . S
C341 H366 0.950 . S
C342 N337 1.332 . S
C342 C341 1.382 . S
C342 H352 0.948 . S
N343 Co321 2.282 1_565 S
N343 C347 1.332 . S
N343 C348 1.332 . S
C344 C345 1.388 . S
C344 C348 1.382 . S
C344 H367 0.950 . S
C345 C344 1.388 . S
C345 C346 1.386 . S
C346 C345 1.386 . S
C346 C347 1.382 . S
C346 H368 0.950 . S
C347 N343 1.332 . S
C347 C346 1.382 . S
C347 H349 0.952 . S
C348 N343 1.332 . S
C348 C344 1.382 . S
C348 H350 0.948 . S
H349 C347 0.952 . S
H350 C348 0.948 . S
H351 C340 0.952 . S
H352 C342 0.948 . S
C353 C319 1.395 1_545 S
C353 C323 1.391 . S
C354 C316 1.389 . S
C354 C336 1.392 . S
C355 C326 1.392 . S
C355 C328 1.389 . S
C356 C331 1.395 1_565 S
C356 C333 1.391 . S
H357 C317 0.951 . S
H358 C318 0.950 . S
H359 C324 0.949 . S
H360 C325 0.950 . S
H361 C329 0.951 . S
H362 C330 0.950 . S
H363 C334 0.949 . S
H364 C335 0.950 . S
H365 C339 0.950 . S
H366 C341 0.950 . S
H367 C344 0.950 . S
H368 C346 0.950 . S
C369 C370 1.443 . S
C369 N373 1.376 . S
C369 C407 1.389 . S
C370 C369 1.443 . S
C370 C371 1.340 . S
C370 H410 0.951 . S
C371 C370 1.340 . S
C371 C372 1.439 . S
C371 H411 0.950 . S
C372 C371 1.439 . S
C372 N373 1.374 . S
C372 C406 1.395 1_554 S
N373 C369 1.376 . S
N373 C372 1.374 . S
N373 Co374 2.008 . S
Co374 N373 2.008 . S
Co374 N375 1.995 1_554 S
Co374 N380 2.008 1_554 S
Co374 N385 1.995 . S
Co374 N390 2.282 1_554 S
Co374 N396 2.282 . S
N375 Co374 1.995 1_556 S
N375 C376 1.376 . S
N375 C379 1.383 . S
C376 N375 1.376 . S
C376 C377 1.446 . S
C376 C406 1.391 . S
C377 C376 1.446 . S
C377 C378 1.339 . S
C377 H412 0.949 . S
C378 C377 1.339 . S
C378 C379 1.439 . S
C378 H413 0.950 . S
C379 N375 1.383 . S
C379 C378 1.439 . S
C379 C408 1.392 . S
N380 Co374 2.008 1_556 S
N380 C381 1.376 . S
N380 C384 1.374 . S
C381 N380 1.376 . S
C381 C382 1.443 . S
C381 C408 1.389 . S
C382 C381 1.443 . S
C382 C383 1.340 . S
C382 H414 0.951 . S
C383 C382 1.340 . S
C383 C384 1.439 . S
C383 H415 0.950 . S
C384 N380 1.374 . S
C384 C383 1.439 . S
C384 C409 1.395 1_556 S
N385 Co374 1.995 . S
N385 C386 1.376 . S
N385 C389 1.383 . S
C386 N385 1.376 . S
C386 C387 1.446 . S
C386 C409 1.391 . S
C387 C386 1.446 . S
C387 C388 1.339 . S
C387 H416 0.949 . S
C388 C387 1.339 . S
C388 C389 1.439 . S
C388 H417 0.950 . S
C389 N385 1.383 . S
C389 C388 1.439 . S
C389 C407 1.392 . S
N390 Co374 2.282 1_556 S
N390 C393 1.332 . S
N390 C395 1.332 . S
C391 C392 1.386 . S
C391 C394 1.388 . S
C392 C391 1.386 . S
C392 C393 1.382 . S
C392 H418 0.950 . S
C393 N390 1.332 . S
C393 C392 1.382 . S
C393 H404 0.952 . S
C394 C391 1.388 . S
C394 C395 1.382 . S
C394 H419 0.950 . S
C395 N390 1.332 . S
C395 C394 1.382 . S
C395 H405 0.948 . S
N396 Co374 2.282 . S
N396 C400 1.332 . S
N396 C401 1.332 . S
C397 C398 1.388 . S
C397 C401 1.382 . S
C397 H420 0.950 . S
C398 C397 1.388 . S
C398 C399 1.386 . S
C399 C398 1.386 . S
C399 C400 1.382 . S
C399 H421 0.950 . S
C400 N396 1.332 . S
C400 C399 1.382 . S
C400 H402 0.952 . S
C401 N396 1.332 . S
C401 C397 1.382 . S
C401 H403 0.948 . S
H402 C400 0.952 . S
H403 C401 0.948 . S
H404 C393 0.952 . S
H405 C395 0.948 . S
C406 C372 1.395 1_556 S
C406 C376 1.391 . S
C407 C369 1.389 . S
C407 C389 1.392 . S
C408 C379 1.392 . S
C408 C381 1.389 . S
C409 C384 1.395 1_554 S
C409 C386 1.391 . S
H410 C370 0.951 . S
H411 C371 0.950 . S
H412 C377 0.949 . S
H413 C378 0.950 . S
H414 C382 0.951 . S
H415 C383 0.950 . S
H416 C387 0.949 . S
H417 C388 0.950 . S
H418 C392 0.950 . S
H419 C394 0.950 . S
H420 C397 0.950 . S
H421 C399 0.950 . S
C422 C423 1.369 . S
C422 C424 1.419 . S
C422 H426 0.930 . S
C423 C422 1.369 . S
C423 C432 1.429 . S
C424 C422 1.419 . S
C424 C425 1.363 . S
C424 H427 0.929 . S
C425 C424 1.363 . S
C425 C431 1.428 . S
H426 C422 0.930 . S
H427 C424 0.929 . S
S428 N429 1.613 . S
S428 N430 1.610 . S
N429 S428 1.613 . S
N429 C432 1.350 . S
N430 S428 1.610 . S
N430 C431 1.351 . S
C431 C425 1.428 . S
C431 N430 1.351 . S
C431 C432 1.434 . S
C432 C423 1.429 . S
C432 N429 1.350 . S
C432 C431 1.434 . S
C433 C434 1.369 . S
C433 C435 1.419 . S
C433 H437 0.930 . S
C434 C433 1.369 . S
C434 C443 1.429 . S
C435 C433 1.419 . S
C435 C436 1.363 . S
C435 H438 0.929 . S
C436 C435 1.363 . S
C436 C442 1.428 . S
H437 C433 0.930 . S
H438 C435 0.929 . S
S439 N440 1.613 . S
S439 N441 1.610 . S
N440 S439 1.613 . S
N440 C443 1.350 . S
N441 S439 1.610 . S
N441 C442 1.351 . S
C442 C436 1.428 . S
C442 N441 1.351 . S
C442 C443 1.434 . S
C443 C434 1.429 . S
C443 N440 1.350 . S
C443 C442 1.434 . S
C444 C445 1.369 . S
C444 C446 1.419 . S
C444 H448 0.930 . S
C445 C444 1.369 . S
C445 C454 1.429 . S
C446 C444 1.419 . S
C446 C447 1.363 . S
C446 H449 0.929 . S
C447 C446 1.363 . S
C447 C453 1.428 . S
H448 C444 0.930 . S
H449 C446 0.929 . S
S450 N451 1.613 . S
S450 N452 1.610 . S
N451 S450 1.613 . S
N451 C454 1.350 . S
N452 S450 1.610 . S
N452 C453 1.351 . S
C453 C447 1.428 . S
C453 N452 1.351 . S
C453 C454 1.434 . S
C454 C445 1.429 . S
C454 N451 1.350 . S
C454 C453 1.434 . S
C455 C456 1.369 . S
C455 C457 1.419 . S
C455 H459 0.930 . S
C456 C455 1.369 . S
C456 C465 1.429 . S
C457 C455 1.419 . S
C457 C458 1.363 . S
C457 H460 0.929 . S
C458 C457 1.363 . S
C458 C464 1.428 . S
H459 C455 0.930 . S
H460 C457 0.929 . S
S461 N462 1.613 . S
S461 N463 1.610 . S
N462 S461 1.613 . S
N462 C465 1.350 . S
N463 S461 1.610 . S
N463 C464 1.351 . S
C464 C458 1.428 . S
C464 N463 1.351 . S
C464 C465 1.434 . S
C465 C456 1.429 . S
C465 N462 1.350 . S
C465 C464 1.434 . S
C466 C467 1.369 . S
C466 C468 1.419 . S
C466 H470 0.930 . S
C467 C466 1.369 . S
C467 C476 1.429 . S
C468 C466 1.419 . S
C468 C469 1.363 . S
C468 H471 0.929 . S
C469 C468 1.363 . S
C469 C475 1.428 . S
H470 C466 0.930 . S
H471 C468 0.929 . S
S472 N473 1.613 . S
S472 N474 1.610 . S
N473 S472 1.613 . S
N473 C476 1.350 . S
N474 S472 1.610 . S
N474 C475 1.351 . S
C475 C469 1.428 . S
C475 N474 1.351 . S
C475 C476 1.434 . S
C476 C467 1.429 . S
C476 N473 1.350 . S
C476 C475 1.434 . S
C477 C478 1.369 . S
C477 C479 1.419 . S
C477 H481 0.930 . S
C478 C477 1.369 . S
C478 C487 1.429 . S
C479 C477 1.419 . S
C479 C480 1.363 . S
C479 H482 0.929 . S
C480 C479 1.363 . S
C480 C486 1.428 . S
H481 C477 0.930 . S
H482 C479 0.929 . S
S483 N484 1.613 . S
S483 N485 1.610 . S
N484 S483 1.613 . S
N484 C487 1.350 . S
N485 S483 1.610 . S
N485 C486 1.351 . S
C486 C480 1.428 . S
C486 N485 1.351 . S
C486 C487 1.434 . S
C487 C478 1.429 . S
C487 N484 1.350 . S
C487 C486 1.434 . S
C488 C489 1.369 . S
C488 C490 1.419 . S
C488 H492 0.930 . S
C489 C488 1.369 . S
C489 C498 1.429 . S
C490 C488 1.419 . S
C490 C491 1.363 . S
C490 H493 0.929 . S
C491 C490 1.363 . S
C491 C497 1.428 . S
H492 C488 0.930 . S
H493 C490 0.929 . S
S494 N495 1.613 . S
S494 N496 1.610 . S
N495 S494 1.613 . S
N495 C498 1.350 . S
N496 S494 1.610 . S
N496 C497 1.351 . S
C497 C491 1.428 . S
C497 N496 1.351 . S
C497 C498 1.434 . S
C498 C489 1.429 . S
C498 N495 1.350 . S
C498 C497 1.434 . S
C499 C500 1.369 . S
C499 C501 1.419 . S
C499 H503 0.930 . S
C500 C499 1.369 . S
C500 C509 1.429 . S
C501 C499 1.419 . S
C501 C502 1.363 . S
C501 H504 0.929 . S
C502 C501 1.363 . S
C502 C508 1.428 . S
H503 C499 0.930 . S
H504 C501 0.929 . S
S505 N506 1.613 . S
S505 N507 1.610 . S
N506 S505 1.613 . S
N506 C509 1.350 . S
N507 S505 1.610 . S
N507 C508 1.351 . S
C508 C502 1.428 . S
C508 N507 1.351 . S
C508 C509 1.434 . S
C509 C500 1.429 . S
C509 N506 1.350 . S
C509 C508 1.434 . S
C510 C511 1.369 . S
C510 C512 1.419 . S
C510 H514 0.930 . S
C511 C510 1.369 . S
C511 C520 1.429 . S
C512 C510 1.419 . S
C512 C513 1.363 . S
C512 H515 0.929 . S
C513 C512 1.363 . S
C513 C519 1.428 . S
H514 C510 0.930 . S
H515 C512 0.929 . S
S516 N517 1.613 . S
S516 N518 1.610 . S
N517 S516 1.613 . S
N517 C520 1.350 . S
N518 S516 1.610 . S
N518 C519 1.351 . S
C519 C513 1.428 . S
C519 N518 1.351 . S
C519 C520 1.434 . S
C520 C511 1.429 . S
C520 N517 1.350 . S
C520 C519 1.434 . S
C521 C522 1.369 . S
C521 C523 1.419 . S
C521 H525 0.930 . S
C522 C521 1.369 . S
C522 C531 1.429 . S
C523 C521 1.419 . S
C523 C524 1.363 . S
C523 H526 0.929 . S
C524 C523 1.363 . S
C524 C530 1.428 . S
H525 C521 0.930 . S
H526 C523 0.929 . S
S527 N528 1.613 . S
S527 N529 1.610 . S
N528 S527 1.613 . S
N528 C531 1.350 . S
N529 S527 1.610 . S
N529 C530 1.351 . S
C530 C524 1.428 . S
C530 N529 1.351 . S
C530 C531 1.434 . S
C531 C522 1.429 . S
C531 N528 1.350 . S
C531 C530 1.434 . S
C532 C533 1.369 . S
C532 C534 1.419 . S
C532 H536 0.930 . S
C533 C532 1.369 . S
C533 C542 1.429 . S
C534 C532 1.419 . S
C534 C535 1.363 . S
C534 H537 0.929 . S
C535 C534 1.363 . S
C535 C541 1.428 . S
H536 C532 0.930 . S
H537 C534 0.929 . S
S538 N539 1.613 . S
S538 N540 1.610 . S
N539 S538 1.613 . S
N539 C542 1.350 . S
N540 S538 1.610 . S
N540 C541 1.351 . S
C541 C535 1.428 . S
C541 N540 1.351 . S
C541 C542 1.434 . S
C542 C533 1.429 . S
C542 N539 1.350 . S
C542 C541 1.434 . S
C543 C544 1.369 . S
C543 C545 1.419 . S
C543 H547 0.930 . S
C544 C543 1.369 . S
C544 C553 1.429 . S
C545 C543 1.419 . S
C545 C546 1.363 . S
C545 H548 0.929 . S
C546 C545 1.363 . S
C546 C552 1.428 . S
H547 C543 0.930 . S
H548 C545 0.929 . S
S549 N550 1.613 . S
S549 N551 1.610 . S
N550 S549 1.613 . S
N550 C553 1.350 . S
N551 S549 1.610 . S
N551 C552 1.351 . S
C552 C546 1.428 . S
C552 N551 1.351 . S
C552 C553 1.434 . S
C553 C544 1.429 . S
C553 N550 1.350 . S
C553 C552 1.434 . S
C554 C555 1.369 . S
C554 C556 1.419 . S
C554 H558 0.930 . S
C555 C554 1.369 . S
C555 C564 1.429 . S
C556 C554 1.419 . S
C556 C557 1.363 . S
C556 H559 0.929 . S
C557 C556 1.363 . S
C557 C563 1.428 . S
H558 C554 0.930 . S
H559 C556 0.929 . S
S560 N561 1.613 . S
S560 N562 1.610 . S
N561 S560 1.613 . S
N561 C564 1.350 . S
N562 S560 1.610 . S
N562 C563 1.351 . S
C563 C557 1.428 . S
C563 N562 1.351 . S
C563 C564 1.434 . S
C564 C555 1.429 . S
C564 N561 1.350 . S
C564 C563 1.434 . S
C565 C566 1.369 . S
C565 C567 1.419 . S
C565 H569 0.930 . S
C566 C565 1.369 . S
C566 C575 1.429 . S
C567 C565 1.419 . S
C567 C568 1.363 . S
C567 H570 0.929 . S
C568 C567 1.363 . S
C568 C574 1.428 . S
H569 C565 0.930 . S
H570 C567 0.929 . S
S571 N572 1.613 . S
S571 N573 1.610 . S
N572 S571 1.613 . S
N572 C575 1.350 . S
N573 S571 1.610 . S
N573 C574 1.351 . S
C574 C568 1.428 . S
C574 N573 1.351 . S
C574 C575 1.434 . S
C575 C566 1.429 . S
C575 N572 1.350 . S
C575 C574 1.434 . S
C576 C577 1.369 . S
C576 C578 1.419 . S
C576 H580 0.930 . S
C577 C576 1.369 . S
C577 C586 1.429 . S
C578 C576 1.419 . S
C578 C579 1.363 . S
C578 H581 0.929 . S
C579 C578 1.363 . S
C579 C585 1.428 . S
H580 C576 0.930 . S
H581 C578 0.929 . S
S582 N583 1.613 . S
S582 N584 1.610 . S
N583 S582 1.613 . S
N583 C586 1.350 . S
N584 S582 1.610 . S
N584 C585 1.351 . S
C585 C579 1.428 . S
C585 N584 1.351 . S
C585 C586 1.434 . S
C586 C577 1.429 . S
C586 N583 1.350 . S
C586 C585 1.434 . S
C587 C588 1.369 . S
C587 C589 1.419 . S
C587 H591 0.930 . S
C588 C587 1.369 . S
C588 C597 1.429 . S
C589 C587 1.419 . S
C589 C590 1.363 . S
C589 H592 0.929 . S
C590 C589 1.363 . S
C590 C596 1.428 . S
H591 C587 0.930 . S
H592 C589 0.929 . S
S593 N594 1.613 . S
S593 N595 1.610 . S
N594 S593 1.613 . S
N594 C597 1.350 . S
N595 S593 1.610 . S
N595 C596 1.351 . S
C596 C590 1.428 . S
C596 N595 1.351 . S
C596 C597 1.434 . S
C597 C588 1.429 . S
C597 N594 1.350 . S
C597 C596 1.434 . S
C598 C599 1.369 . S
C598 C600 1.419 . S
C598 H602 0.930 . S
C599 C598 1.369 . S
C599 C608 1.429 . S
C600 C598 1.419 . S
C600 C601 1.363 . S
C600 H603 0.929 . S
C601 C600 1.363 . S
C601 C607 1.428 . S
H602 C598 0.930 . S
H603 C600 0.929 . S
S604 N605 1.613 . S
S604 N606 1.610 . S
N605 S604 1.613 . S
N605 C608 1.350 . S
N606 S604 1.610 . S
N606 C607 1.351 . S
C607 C601 1.428 . S
C607 N606 1.351 . S
C607 C608 1.434 . S
C608 C599 1.429 . S
C608 N605 1.350 . S
C608 C607 1.434 . S
C609 C610 1.369 . S
C609 C611 1.419 . S
C609 H613 0.930 . S
C610 C609 1.369 . S
C610 C619 1.429 . S
C611 C609 1.419 . S
C611 C612 1.363 . S
C611 H614 0.929 . S
C612 C611 1.363 . S
C612 C618 1.428 . S
H613 C609 0.930 . S
H614 C611 0.929 . S
S615 N616 1.613 . S
S615 N617 1.610 . S
N616 S615 1.613 . S
N616 C619 1.350 . S
N617 S615 1.610 . S
N617 C618 1.351 . S
C618 C612 1.428 . S
C618 N617 1.351 . S
C618 C619 1.434 . S
C619 C610 1.429 . S
C619 N616 1.350 . S
C619 C618 1.434 . S
C620 C621 1.369 . S
C620 C622 1.419 . S
C620 H624 0.930 . S
C621 C620 1.369 . S
C621 C630 1.429 . S
C622 C620 1.419 . S
C622 C623 1.363 . S
C622 H625 0.929 . S
C623 C622 1.363 . S
C623 C629 1.428 . S
H624 C620 0.930 . S
H625 C622 0.929 . S
S626 N627 1.613 . S
S626 N628 1.610 . S
N627 S626 1.613 . S
N627 C630 1.350 . S
N628 S626 1.610 . S
N628 C629 1.351 . S
C629 C623 1.428 . S
C629 N628 1.351 . S
C629 C630 1.434 . S
C630 C621 1.429 . S
C630 N627 1.350 . S
C630 C629 1.434 . S
C631 C632 1.369 . S
C631 C633 1.419 . S
C631 H635 0.930 . S
C632 C631 1.369 . S
C632 C641 1.429 . S
C633 C631 1.419 . S
C633 C634 1.363 . S
C633 H636 0.929 . S
C634 C633 1.363 . S
C634 C640 1.428 . S
H635 C631 0.930 . S
H636 C633 0.929 . S
S637 N638 1.613 . S
S637 N639 1.610 . S
N638 S637 1.613 . S
N638 C641 1.350 . S
N639 S637 1.610 . S
N639 C640 1.351 . S
C640 C634 1.428 . S
C640 N639 1.351 . S
C640 C641 1.434 . S
C641 C632 1.429 . S
C641 N638 1.350 . S
C641 C640 1.434 . S
C642 C643 1.369 . S
C642 C644 1.419 . S
C642 H646 0.930 . S
C643 C642 1.369 . S
C643 C652 1.429 . S
C644 C642 1.419 . S
C644 C645 1.363 . S
C644 H647 0.929 . S
C645 C644 1.363 . S
C645 C651 1.428 . S
H646 C642 0.930 . S
H647 C644 0.929 . S
S648 N649 1.613 . S
S648 N650 1.610 . S
N649 S648 1.613 . S
N649 C652 1.350 . S
N650 S648 1.610 . S
N650 C651 1.351 . S
C651 C645 1.428 . S
C651 N650 1.351 . S
C651 C652 1.434 . S
C652 C643 1.429 . S
C652 N649 1.350 . S
C652 C651 1.434 . S
C653 C654 1.369 . S
C653 C655 1.419 . S
C653 H657 0.930 . S
C654 C653 1.369 . S
C654 C663 1.429 . S
C655 C653 1.419 . S
C655 C656 1.363 . S
C655 H658 0.929 . S
C656 C655 1.363 . S
C656 C662 1.428 . S
H657 C653 0.930 . S
H658 C655 0.929 . S
S659 N660 1.613 . S
S659 N661 1.610 . S
N660 S659 1.613 . S
N660 C663 1.350 . S
N661 S659 1.610 . S
N661 C662 1.351 . S
C662 C656 1.428 . S
C662 N661 1.351 . S
C662 C663 1.434 . S
C663 C654 1.429 . S
C663 N660 1.350 . S
C663 C662 1.434 . S
C664 C665 1.369 . S
C664 C666 1.419 . S
C664 H668 0.930 . S
C665 C664 1.369 . S
C665 C674 1.429 . S
C666 C664 1.419 . S
C666 C667 1.363 . S
C666 H669 0.929 . S
C667 C666 1.363 . S
C667 C673 1.428 . S
H668 C664 0.930 . S
H669 C666 0.929 . S
S670 N671 1.613 . S
S670 N672 1.610 . S
N671 S670 1.613 . S
N671 C674 1.350 . S
N672 S670 1.610 . S
N672 C673 1.351 . S
C673 C667 1.428 . S
C673 N672 1.351 . S
C673 C674 1.434 . S
C674 C665 1.429 . S
C674 N671 1.350 . S
C674 C673 1.434 . S
C675 C676 1.369 . S
C675 C677 1.419 . S
C675 H679 0.930 . S
C676 C675 1.369 . S
C676 C685 1.429 . S
C677 C675 1.419 . S
C677 C678 1.363 . S
C677 H680 0.929 . S
C678 C677 1.363 . S
C678 C684 1.428 . S
H679 C675 0.930 . S
H680 C677 0.929 . S
S681 N682 1.613 . S
S681 N683 1.610 . S
N682 S681 1.613 . S
N682 C685 1.350 . S
N683 S681 1.610 . S
N683 C684 1.351 . S
C684 C678 1.428 . S
C684 N683 1.351 . S
C684 C685 1.434 . S
C685 C676 1.429 . S
C685 N682 1.350 . S
C685 C684 1.434 . S
C425 C126 1.809 . S
C423 C8 1.847 . S
C436 C195 1.695 . S
C434 C22 1.686 . S
C447 C133 1.743 . S
C445 C30 1.839 . S
C458 C196 1.394 . S
C456 C47 1.424 . S
C469 C249 1.807 . S
C467 C9 1.829 . S
C480 C285 1.690 . S
C478 C17 1.669 . S
C489 C34 1.640 . S
C491 C345 1.615 . S
C502 C408 1.510 . S
C500 C48 1.496 . S
C513 C248 1.840 . S
C511 C21 1.904 . S
C522 C35 1.773 . S
C524 C292 1.789 . S
C535 C338 1.397 . S
C533 C43 1.320 . S
C546 C407 1.570 . S
C544 C4 1.528 . S
C555 C56 1.559 . S
C557 C186 1.548 . S
C568 C143 1.732 . S
C566 C73 1.775 . S
C577 C87 1.721 . S
C579 C179 1.710 . S
C588 C100 1.946 . S
C590 C142 1.905 . S
C601 C354 1.653 . S
C599 C60 1.686 . S
C612 C398 1.456 . S
C610 C69 1.425 . S
C623 C232 1.854 . S
C621 C86 1.910 . S
C632 C95 1.474 . S
C634 C301 1.536 . S
C645 C355 1.676 . S
C643 C74 1.707 . S
C656 C391 1.439 . S
C654 C82 1.386 . S
C667 C239 1.926 . S
C665 C99 1.960 . S
C676 C61 1.651 . S
C678 C302 1.666 . S
