# Generated by pormake.
# Topology pth, (4,4)-cn, num edge types: 1
# Building blocks:
#     Node 0, Type 0, BuildingBlock: UXUYUI_clean_sbu_0, # of connection points: 4
#     Node 1, Type 0, BuildingBlock: UXUYUI_clean_sbu_0, # of connection points: 4
#     Node 2, Type 0, BuildingBlock: UXUYUI_clean_sbu_0, # of connection points: 4
#     Node 3, Type 1, BuildingBlock: NAHDIM_clean_linker_0, # of connection points: 4
#     Node 4, Type 1, BuildingBlock: NAHDIM_clean_linker_0, # of connection points: 4
#     Node 5, Type 1, BuildingBlock: NAHDIM_clean_linker_0, # of connection points: 4
#     Edge 6, Type (0, 1), BuildingBlock: EZIPEK_clean_linker_0, # of connection points: 2
#     Edge 7, Type (0, 1), BuildingBlock: EZIPEK_clean_linker_0, # of connection points: 2
#     Edge 8, Type (0, 1), BuildingBlock: EZIPEK_clean_linker_0, # of connection points: 2
#     Edge 9, Type (0, 1), BuildingBlock: EZIPEK_clean_linker_0, # of connection points: 2
#     Edge 10, Type (0, 1), BuildingBlock: EZIPEK_clean_linker_0, # of connection points: 2
#     Edge 11, Type (0, 1), BuildingBlock: EZIPEK_clean_linker_0, # of connection points: 2
#     Edge 12, Type (0, 1), BuildingBlock: EZIPEK_clean_linker_0, # of connection points: 2
#     Edge 13, Type (0, 1), BuildingBlock: EZIPEK_clean_linker_0, # of connection points: 2
#     Edge 14, Type (0, 1), BuildingBlock: EZIPEK_clean_linker_0, # of connection points: 2
#     Edge 15, Type (0, 1), BuildingBlock: EZIPEK_clean_linker_0, # of connection points: 2
#     Edge 16, Type (0, 1), BuildingBlock: EZIPEK_clean_linker_0, # of connection points: 2
#     Edge 17, Type (0, 1), BuildingBlock: EZIPEK_clean_linker_0, # of connection points: 2
# Relax obj value: 0.093
# Max RMSD: 0.220
# Mean RMSD: 0.135
data_MOF--net-pth--node1-UXUYUI_clean_sbu_0--node2-NAHDIM_clean_linker_0--edge1-EZIPEK_clean_linker_0
_symmetry_space_group_name_H-M    P1
_symmetry_Int_Tables_number       1
_symmetry_cell_setting            triclinic
loop_
_symmetry_equiv_pos_as_xyz
'x, y, z'
_cell_length_a     30.879088
_cell_length_b     30.86773
_cell_length_c     78.623376
_cell_angle_alpha  89.620176
_cell_angle_beta   90.430799
_cell_angle_gamma 120.03706
loop_
_atom_site_label
_atom_site_type_symbol
_atom_site_fract_x
_atom_site_fract_y
_atom_site_fract_z
_atom_type_partial_charge
Li0 Li 0.06406 0.06603 0.03468 0.0
Li1 Li 0.01012 0.06521 0.05725 0.0
Li2 Li 0.03456 0.00051 0.05688 0.0
Li3 Li 0.97511 0.99925 0.03598 0.0
C4 C 0.1149 0.12039 0.06434 0.0
N5 N 0.18843 0.21495 0.07409 0.0
C6 C 0.1141 0.1626 0.05825 0.0
C7 C 0.15294 0.12621 0.07546 0.0
C8 C 0.15165 0.2101 0.06329 0.0
C9 C 0.18983 0.17436 0.08023 0.0
C10 C 0.98349 0.09924 0.02643 0.0
C11 C 0.91209 0.10667 0.01817 0.0
N12 N 0.94319 0.15561 0.01414 0.0
C13 C 0.01479 0.14944 0.02197 0.0
C14 C 0.93176 0.07748 0.02431 0.0
C15 C 0.99367 0.17736 0.01588 0.0
C16 C 0.09696 0.11507 0.00416 0.0
N17 N 0.11456 0.10947 0.01942 0.0
C18 C 0.1959 0.1783 0.01342 0.0
C19 C 0.16343 0.13876 0.02396 0.0
C20 C 0.17739 0.18711 0.99822 0.0
C21 C 0.12798 0.154 0.99328 0.0
H22 H 0.05788 0.09123 0.00095 0.0
H23 H 0.1765 0.13334 0.03614 0.0
C24 C 0.01759 0.10553 0.08875 0.0
N25 N 0.00156 0.10732 0.07276 0.0
C26 C 0.02276 0.14059 0.10085 0.0
C27 C 0.9916 0.1768 0.08014 0.0
C28 C 0.98724 0.14106 0.06837 0.0
C29 C 0.01111 0.17754 0.09637 0.0
H30 H 0.02895 0.07842 0.0918 0.0
H31 H 0.97451 0.14178 0.05563 0.0
C32 C 0.02024 0.94357 0.02784 0.0
N33 N 0.98955 0.84515 0.02005 0.0
C34 C 0.98198 0.90462 0.03716 0.0
C35 C 0.04257 0.93242 0.01448 0.0
C36 C 0.96721 0.85515 0.03309 0.0
C37 C 0.02651 0.88241 0.01073 0.0
C38 C 0.92024 0.97367 0.06699 0.0
C39 C 0.89672 0.92788 0.07564 0.0
C40 C 0.8949 9e-05 0.06448 0.0
C41 C 0.84792 0.90907 0.08151 0.0
C42 C 0.84614 0.98003 0.07054 0.0
N43 N 0.82384 0.9353 0.07885 0.0
C44 C 0.02487 0.94948 0.08662 0.0
C45 C 0.06968 0.93297 0.06567 0.0
C46 C 0.021 0.91054 0.09675 0.0
N47 N 0.04723 0.9586 0.07117 0.0
C48 C 0.06651 0.89342 0.0754 0.0
C49 C 0.04031 0.88102 0.09081 0.0
H50 H 0.00727 0.97048 0.09058 0.0
H51 H 0.08707 0.94099 0.05329 0.0
C52 C 0.93389 0.9606 0.00477 0.0
N53 N 0.92137 0.9557 0.02149 0.0
C54 C 0.90273 0.92427 0.99311 0.0
C55 C 0.84467 0.88013 0.0159 0.0
C56 C 0.87721 0.91715 0.02718 0.0
C57 C 0.85841 0.88278 0.99881 0.0
H58 H 0.96966 0.99118 0.00071 0.0
H59 H 0.86839 0.9133 0.04053 0.0
O60 O 0.07857 0.07345 0.05959 0.0
O61 O 0.00346 0.07118 0.03235 0.0
O62 O 0.03572 0.99243 0.03165 0.0
O63 O 0.96796 0.99244 0.06116 0.0
H64 H 0.08474 0.15866 0.04976 0.0
H65 H 0.15398 0.09384 0.08032 0.0
H66 H 0.15151 0.24309 0.05864 0.0
H67 H 0.21958 0.17944 0.0888 0.0
H68 H 0.87211 0.09038 0.01656 0.0
H69 H 0.05498 0.16678 0.02318 0.0
H70 H 0.90702 0.03842 0.02733 0.0
H71 H 0.01743 0.21631 0.01249 0.0
H72 H 0.23401 0.20342 0.0175 0.0
H73 H 0.11279 0.16003 0.98162 0.0
H74 H 0.03796 0.14041 0.11329 0.0
H75 H 0.98229 0.205 0.07639 0.0
H76 H 0.96402 0.91241 0.04749 0.0
H77 H 0.07204 0.96213 0.00709 0.0
H78 H 0.93783 0.82469 0.04024 0.0
H79 H 0.0435 0.87324 0.00042 0.0
H80 H 0.91582 0.90691 0.07767 0.0
H81 H 0.91268 0.03573 0.05797 0.0
H82 H 0.82917 0.87359 0.08816 0.0
H83 H 0.82605 6e-05 0.06865 0.0
H84 H 0.0005 0.90159 0.10859 0.0
H85 H 0.08159 0.87097 0.07054 0.0
H86 H 0.91431 0.92712 0.97999 0.0
H87 H 0.81069 0.84829 0.02063 0.0
Li88 Li 0.01417 0.99818 0.36717 0.0
Li89 Li 0.07707 0.05847 0.38653 0.0
Li90 Li 0.99123 0.0414 0.38718 0.0
Li91 Li 0.0465 0.08773 0.36363 0.0
C92 C 0.00444 0.94691 0.39485 0.0
N93 N 0.98234 0.84887 0.39857 0.0
C94 C 0.04273 0.93613 0.3979 0.0
C95 C 0.9549 0.90787 0.39379 0.0
C96 C 0.03078 0.88631 0.39974 0.0
C97 C 0.94451 0.85854 0.39566 0.0
C98 C 0.112 0.07122 0.3479 0.0
C99 C 0.18132 0.14012 0.33361 0.0
N100 N 0.16726 0.11376 0.31884 0.0
C101 C 0.09835 0.0447 0.3326 0.0
C102 C 0.15395 0.1192 0.34845 0.0
C103 C 0.12675 0.06689 0.31804 0.0
C104 C 0.95207 0.91761 0.34544 0.0
N105 N 0.99476 0.93871 0.35491 0.0
C106 C 0.0187 0.88228 0.34358 0.0
C107 C 0.02762 0.92159 0.35436 0.0
C108 C 0.97586 0.86106 0.33325 0.0
C109 C 0.94173 0.87825 0.33443 0.0
H110 H 0.92722 0.93274 0.34588 0.0
H111 H 0.06187 0.94006 0.36171 0.0
C112 C 0.12044 0.06025 0.41768 0.0
N113 N 0.13102 0.06945 0.40085 0.0
C114 C 0.15588 0.06092 0.4289 0.0
C115 C 0.21279 0.08119 0.40528 0.0
C116 C 0.17619 0.0803 0.39449 0.0
C117 C 0.20222 0.07069 0.42263 0.0
H118 H 0.08369 0.05044 0.42225 0.0
H119 H 0.18308 0.08636 0.38098 0.0
C120 C 0.93034 0.02841 0.3618 0.0
N121 N 0.83784 0.02204 0.36172 0.0
C122 C 0.92555 0.06885 0.35616 0.0
C123 C 0.88803 0.98458 0.36728 0.0
C124 C 0.87847 0.06491 0.35623 0.0
C125 C 0.84163 0.98216 0.3672 0.0
C126 C 0.08332 0.13905 0.39992 0.0
C127 C 0.06591 0.13367 0.41659 0.0
C128 C 0.13223 0.1761 0.39609 0.0
C129 C 0.09802 0.16525 0.42923 0.0
C130 C 0.16322 0.20687 0.4091 0.0
N131 N 0.14562 0.20084 0.42526 0.0
C132 C 0.92302 0.00481 0.41448 0.0
C133 C 0.93127 0.07702 0.40054 0.0
C134 C 0.89175 0.00735 0.42667 0.0
N135 N 0.94224 0.0396 0.40186 0.0
C136 C 0.89971 0.08061 0.41231 0.0
C137 C 0.8805 0.046 0.4257 0.0
H138 H 0.93338 0.97621 0.41542 0.0
H139 H 0.94836 0.10496 0.39064 0.0
C140 C 0.04709 0.12373 0.33084 0.0
N141 N 0.05859 0.1379 0.34736 0.0
C142 C 0.04468 0.15621 0.31897 0.0
C143 C 0.06646 0.2174 0.34128 0.0
C144 C 0.06928 0.18403 0.3527 0.0
C145 C 0.05305 0.20287 0.32435 0.0
H146 H 0.03648 0.08604 0.32713 0.0
H147 H 0.07663 0.19358 0.36602 0.0
O148 O 0.0154 0.99537 0.39273 0.0
O149 O 0.08447 0.05037 0.36227 0.0
O150 O 0.97624 0.0318 0.36208 0.0
O151 O 0.05279 0.10797 0.38741 0.0
H152 H 0.08132 0.96578 0.39865 0.0
H153 H 0.92485 0.91557 0.39142 0.0
H154 H 0.06005 0.87741 0.40204 0.0
H155 H 0.90637 0.82793 0.39478 0.0
H156 H 0.21372 0.17734 0.33383 0.0
H157 H 0.06588 0.00763 0.3319 0.0
H158 H 0.16503 0.14018 0.36019 0.0
H159 H 0.11647 0.0469 0.3061 0.0
H160 H 0.04593 0.87004 0.34273 0.0
H161 H 0.90866 0.86278 0.32643 0.0
H162 H 0.14668 0.05222 0.44222 0.0
H163 H 0.24822 0.08837 0.40013 0.0
H164 H 0.95785 0.10309 0.35193 0.0
H165 H 0.8911 0.95297 0.3717 0.0
H166 H 0.87426 0.096 0.35196 0.0
H167 H 0.80863 0.9486 0.37151 0.0
H168 H 0.02822 0.10512 0.4198 0.0
H169 H 0.14617 0.18083 0.38324 0.0
H170 H 0.08515 0.16137 0.44221 0.0
H171 H 0.20126 0.23553 0.40635 0.0
H172 H 0.87747 0.9803 0.43695 0.0
H173 H 0.89175 0.11097 0.41137 0.0
H174 H 0.03299 0.14369 0.30603 0.0
H175 H 0.07197 0.25291 0.34579 0.0
Li176 Li 0.03637 0.02626 0.70445 0.0
Li177 Li 0.04238 0.0805 0.7284 0.0
Li178 Li 0.97425 0.99161 0.72715 0.0
Li179 Li 0.97329 0.0527 0.70815 0.0
C180 C 0.07161 0.99497 0.73345 0.0
N181 N 0.12079 0.94473 0.74327 0.0
C182 C 0.11656 0.01991 0.74254 0.0
C183 C 0.05149 0.94442 0.72947 0.0
C184 C 0.14094 0.99389 0.74735 0.0
C185 C 0.07694 0.91968 0.73452 0.0
C186 C 0.0577 0.14374 0.70069 0.0
C187 C 0.0531 0.2165 0.70884 0.0
N188 N 0.07916 0.24076 0.69466 0.0
C189 C 0.08445 0.16936 0.68621 0.0
C190 C 0.04191 0.16745 0.71212 0.0
C191 C 0.09494 0.21841 0.68339 0.0
C192 C 0.06211 0.99311 0.67419 0.0
N193 N 0.07775 0.01498 0.68969 0.0
C194 C 0.15829 0.02379 0.68571 0.0
C195 C 0.12501 0.03109 0.69541 0.0
C196 C 0.14324 0.00105 0.66975 0.0
C197 C 0.09475 0.98612 0.66383 0.0
H198 H 0.02454 0.98149 0.66985 0.0
H199 H 0.13701 0.05001 0.70749 0.0
C200 C 0.07958 0.13721 0.75865 0.0
N201 N 0.09052 0.13125 0.74242 0.0
C202 C 0.11741 0.17127 0.7694 0.0
C203 C 0.1764 0.1928 0.74639 0.0
C204 C 0.13754 0.15848 0.73609 0.0
C205 C 0.16645 0.19878 0.76329 0.0
H206 H 0.04191 0.11438 0.76337 0.0
H207 H 0.14507 0.15219 0.7232 0.0
C208 C 0.92907 0.9395 0.69625 0.0
N209 N 0.86072 0.84556 0.68421 0.0
C210 C 0.88027 0.92794 0.6922 0.0
C211 C 0.94339 0.90363 0.6938 0.0
C212 C 0.84619 0.88015 0.68623 0.0
C213 C 0.90821 0.85626 0.68781 0.0
C214 C 0.92443 0.0413 0.73963 0.0
C215 C 0.88093 0.00175 0.7327 0.0
C216 C 0.9209 0.07035 0.75251 0.0
C217 C 0.83443 0.99162 0.73882 0.0
C218 C 0.8737 0.05913 0.75828 0.0
N219 N 0.8318 0.0203 0.75138 0.0
C220 C 0.96393 0.9345 0.75563 0.0
C221 C 0.8923 0.89512 0.73802 0.0
C222 C 0.9446 0.89325 0.7665 0.0
N223 N 0.93857 0.93421 0.74144 0.0
C224 C 0.8704 0.85398 0.74904 0.0
C225 C 0.89696 0.85137 0.7634 0.0
H226 H 9e-05 0.96665 0.75836 0.0
H227 H 0.87212 0.89577 0.72685 0.0
C228 C 0.92175 0.05897 0.67949 0.0
N229 N 0.93257 0.07258 0.69609 0.0
C230 C 0.8921 0.07294 0.67009 0.0
C231 C 0.88568 0.11492 0.69501 0.0
C232 C 0.91564 0.10043 0.70389 0.0
C233 C 0.87369 0.10102 0.67796 0.0
H234 H 0.93621 0.03726 0.67359 0.0
H235 H 0.9256 0.11167 0.71698 0.0
O236 O 0.04703 0.01984 0.72882 0.0
O237 O 0.047 0.09562 0.70354 0.0
O238 O 0.96309 0.98633 0.70193 0.0
O239 O 0.97034 0.05247 0.73363 0.0
H240 H 0.13244 0.05898 0.74584 0.0
H241 H 0.01621 0.92429 0.72281 0.0
H242 H 0.17582 0.01274 0.75436 0.0
H243 H 0.06168 0.8805 0.73157 0.0
H244 H 0.04104 0.23528 0.71756 0.0
H245 H 0.09694 0.15148 0.67724 0.0
H246 H 0.02116 0.14824 0.7234 0.0
H247 H 0.11561 0.23871 0.67223 0.0
H248 H 0.19575 0.03648 0.69049 0.0
H249 H 0.08243 0.96923 0.6514 0.0
H250 H 0.10887 0.17497 0.78247 0.0
H251 H 0.2141 0.21304 0.74143 0.0
H252 H 0.86876 0.95555 0.69361 0.0
H253 H 0.98138 0.91239 0.69627 0.0
H254 H 0.80823 0.87063 0.68316 0.0
H255 H 0.91875 0.82808 0.68591 0.0
H256 H 0.88312 0.97938 0.72265 0.0
H257 H 0.95427 0.10145 0.7579 0.0
H258 H 0.80044 0.96106 0.73356 0.0
H259 H 0.87039 0.08136 0.76822 0.0
H260 H 0.96857 0.89556 0.77674 0.0
H261 H 0.83282 0.82421 0.74619 0.0
H262 H 0.88352 0.06197 0.65689 0.0
H263 H 0.87221 0.13698 0.70133 0.0
C264 C 0.89447 0.70901 0.27064 0.0
C265 C 0.93866 0.71317 0.28114 0.0
C266 C 0.98859 0.68727 0.26414 0.0
C267 C 0.03713 0.70419 0.25836 0.0
C268 C 0.0507 0.67112 0.25129 0.0
C269 C 0.01426 0.61995 0.24961 0.0
C270 C 0.96478 0.60259 0.25521 0.0
C271 C 0.95247 0.63638 0.26251 0.0
C272 C 0.10391 0.69087 0.24559 0.0
C273 C 0.92485 0.54831 0.25352 0.0
C274 C 0.04069 0.31055 0.3079 0.0
C275 C 0.02573 0.34302 0.29852 0.0
C276 C 0.06071 0.41803 0.28086 0.0
C277 C 0.01411 0.40792 0.27424 0.0
C278 C 0.01057 0.44086 0.26275 0.0
C279 C 0.05433 0.48542 0.25799 0.0
C280 C 0.10128 0.49607 0.26468 0.0
C281 C 0.10387 0.46192 0.27596 0.0
C282 C 0.95991 0.4279 0.25566 0.0
C283 C 0.14857 0.54332 0.25983 0.0
C284 C 0.10155 0.40019 0.15452 0.0
C285 C 0.05078 0.38328 0.15751 0.0
C286 C 0.03542 0.41598 0.1637 0.0
C287 C 0.07157 0.4666 0.16678 0.0
C288 C 0.12246 0.48417 0.1631 0.0
C289 C 0.13672 0.45064 0.15695 0.0
C290 C 0.98071 0.39639 0.16717 0.0
C291 C 0.16183 0.53811 0.166 0.0
C292 C 0.90639 0.69709 0.13543 0.0
C293 C 0.95937 0.70522 0.13341 0.0
C294 C 0.9749 0.63649 0.13807 0.0
C295 C 0.9423 0.58769 0.14351 0.0
C296 C 0.95948 0.5621 0.1538 0.0
C297 C 0.01067 0.58592 0.15843 0.0
C298 C 0.04423 0.63452 0.15224 0.0
C299 C 0.02587 0.65931 0.14204 0.0
C300 C 0.92279 0.51012 0.16004 0.0
C301 C 0.09917 0.66044 0.15665 0.0
C302 C 0.02774 0.58475 0.24175 0.0
C303 C 0.03853 0.55514 0.25251 0.0
C304 C 0.05035 0.5204 0.24593 0.0
C305 C 0.05321 0.51607 0.22814 0.0
C306 C 0.0663 0.48243 0.22112 0.0
C307 C 0.06811 0.4778 0.20359 0.0
C308 C 0.05596 0.50594 0.1924 0.0
C309 C 0.05658 0.5007 0.17456 0.0
C310 C 0.04267 0.52793 0.16381 0.0
C311 C 0.02837 0.56078 0.17042 0.0
C312 C 0.02883 0.56761 0.1882 0.0
C313 C 0.01539 0.601 0.19523 0.0
C314 C 0.01542 0.60702 0.21274 0.0
C315 C 0.02843 0.57956 0.22392 0.0
C316 C 0.04174 0.54545 0.2171 0.0
C317 C 0.04243 0.53986 0.19922 0.0
C318 C 0.13288 0.30159 0.15177 0.0
C319 C 0.09365 0.31784 0.14997 0.0
O320 O 0.97834 0.72157 0.27084 0.0
O321 O 0.9565 0.66066 0.12877 0.0
O322 O 0.11829 0.36949 0.14912 0.0
O323 O 0.06538 0.3862 0.29179 0.0
H324 H 0.92282 0.6761 0.28734 0.0
H325 H 0.87949 0.67598 0.26215 0.0
H326 H 0.90454 0.74206 0.26252 0.0
H327 H 0.86388 0.70375 0.27929 0.0
H328 H 0.06464 0.74357 0.25958 0.0
H329 H 0.91447 0.62279 0.26662 0.0
H330 H 0.11914 0.6683 0.25137 0.0
H331 H 0.12868 0.73076 0.24906 0.0
H332 H 0.1047 0.68735 0.23157 0.0
H333 H 0.88694 0.54207 0.25632 0.0
H334 H 0.93311 0.5256 0.26255 0.0
H335 H 0.92476 0.53465 0.24048 0.0
H336 H 0.99883 0.35078 0.3054 0.0
H337 H 0.00884 0.24545 0.29358 0.0
H338 H 0.03003 0.31125 0.32151 0.0
H339 H 0.0822 0.33378 0.31026 0.0
H340 H 0.98021 0.37422 0.27787 0.0
H341 H 0.13966 0.46945 0.28108 0.0
H342 H 0.96088 0.42836 0.24154 0.0
H343 H 0.95037 0.45643 0.25973 0.0
H344 H 0.92982 0.39054 0.25996 0.0
H345 H 0.18201 0.54687 0.26652 0.0
H346 H 0.14488 0.57641 0.26287 0.0
H347 H 0.15443 0.54373 0.2459 0.0
H348 H 0.07311 0.30633 0.16213 0.0
H349 H 0.02306 0.34485 0.15498 0.0
H350 H 0.17572 0.46348 0.15431 0.0
H351 H 0.97546 0.40101 0.18086 0.0
H352 H 0.95709 0.35625 0.1638 0.0
H353 H 0.96757 0.41846 0.1598 0.0
H354 H 0.19955 0.54629 0.16189 0.0
H355 H 0.16346 0.54711 0.17972 0.0
H356 H 0.15171 0.56306 0.15892 0.0
H357 H 0.97456 0.71522 0.14648 0.0
H358 H 0.90825 0.73282 0.13892 0.0
H359 H 0.88667 0.66952 0.14577 0.0
H360 H 0.88368 0.68249 0.12368 0.0
H361 H 0.90309 0.57028 0.14005 0.0
H362 H 0.05117 0.69622 0.13706 0.0
H363 H 0.9222 0.50961 0.17417 0.0
H364 H 0.9349 0.48354 0.15589 0.0
H365 H 0.88423 0.49683 0.15525 0.0
H366 H 0.12078 0.69708 0.15007 0.0
H367 H 0.11486 0.63626 0.15317 0.0
H368 H 0.10409 0.66671 0.17059 0.0
H369 H 0.03637 0.5582 0.26618 0.0
H370 H 0.07551 0.45945 0.2291 0.0
H371 H 0.07861 0.45143 0.19893 0.0
H372 H 0.04243 0.52306 0.15015 0.0
H373 H 0.00474 0.62293 0.18728 0.0
H374 H 0.00467 0.6332 0.21741 0.0
H375 H 0.11441 0.26017 0.15282 0.0
H376 H 0.15567 0.31816 0.16343 0.0
H377 H 0.15843 0.31426 0.14066 0.0
C378 C 0.30313 0.93901 0.65358 0.0
C379 C 0.30354 0.97919 0.64179 0.0
C380 C 0.34879 0.98681 0.61612 0.0
C381 C 0.37263 0.03641 0.61042 0.0
C382 C 0.41867 0.05723 0.60199 0.0
C383 C 0.44033 0.02709 0.59887 0.0
C384 C 0.41536 0.97639 0.60418 0.0
C385 C 0.36966 0.95681 0.61276 0.0
C386 C 0.44413 0.11127 0.59642 0.0
C387 C 0.43717 0.9431 0.60086 0.0
C388 C 0.77826 0.23183 0.66102 0.0
C389 C 0.75349 0.18198 0.65138 0.0
C390 C 0.70922 0.16471 0.62431 0.0
C391 C 0.68478 0.11242 0.62331 0.0
C392 C 0.64238 0.08608 0.61288 0.0
C393 C 0.62456 0.11288 0.60324 0.0
C394 C 0.64994 0.16581 0.60401 0.0
C395 C 0.69244 0.19105 0.6144 0.0
C396 C 0.6169 0.02981 0.61201 0.0
C397 C 0.63195 0.19571 0.59398 0.0
C398 C 0.71782 0.07754 0.49633 0.0
C399 C 0.68203 0.03349 0.50451 0.0
C400 C 0.64058 0.03122 0.51252 0.0
C401 C 0.6351 0.07406 0.51263 0.0
C402 C 0.67136 0.1187 0.50469 0.0
C403 C 0.71235 0.11982 0.49665 0.0
C404 C 0.60246 0.98287 0.52086 0.0
C405 C 0.66675 0.16509 0.50473 0.0
C406 C 0.27579 0.02291 0.49025 0.0
C407 C 0.31733 0.05175 0.47715 0.0
C408 C 0.38521 0.03652 0.48572 0.0
C409 C 0.39307 0.99606 0.48808 0.0
C410 C 0.43155 -6e-05 0.49873 0.0
C411 C 0.4635 0.04587 0.5069 0.0
C412 C 0.45679 0.08749 0.50412 0.0
C413 C 0.41771 0.0824 0.49357 0.0
C414 C 0.43784 0.95495 0.50137 0.0
C415 C 0.49123 0.13756 0.51221 0.0
C416 C 0.48896 0.04825 0.59 0.0
C417 C 0.53256 0.06816 0.59987 0.0
C418 C 0.57937 0.08609 0.59233 0.0
C419 C 0.5827 0.0819 0.57456 0.0
C420 C 0.62852 0.0953 0.56671 0.0
C421 C 0.63128 0.09117 0.54918 0.0
C422 C 0.5887 0.07536 0.53882 0.0
C423 C 0.59099 0.07139 0.52099 0.0
C424 C 0.54941 0.06082 0.51091 0.0
C425 C 0.50434 0.05105 0.51827 0.0
C426 C 0.49972 0.04919 0.53617 0.0
C427 C 0.45354 0.03406 0.54403 0.0
C428 C 0.44959 0.0325 0.56167 0.0
C429 C 0.4921 0.04815 0.57208 0.0
C430 C 0.53908 0.06421 0.56438 0.0
C431 C 0.5425 0.0629 0.54644 0.0
C432 C 0.79397 0.03192 0.49841 0.0
C433 C 0.76672 0.04256 0.48392 0.0
O434 O 0.3056 0.96761 0.62494 0.0
O435 O 0.34704 0.03014 0.47537 0.0
O436 O 0.75809 0.08113 0.4881 0.0
O437 O 0.75007 0.1909 0.63428 0.0
H438 H 0.33885 0.01312 0.64552 0.0
H439 H 0.33967 0.94029 0.65277 0.0
H440 H 0.27377 0.90061 0.65012 0.0
H441 H 0.29762 0.94628 0.66699 0.0
H442 H 0.35509 0.05868 0.61253 0.0
H443 H 0.35038 0.91827 0.61711 0.0
H444 H 0.48253 0.13182 0.60184 0.0
H445 H 0.42331 0.13019 0.60042 0.0
H446 H 0.44762 0.11352 0.58235 0.0
H447 H 0.41243 0.90416 0.60539 0.0
H448 H 0.47399 0.95853 0.60735 0.0
H449 H 0.44359 0.9423 0.58701 0.0
H450 H 0.71546 0.16259 0.65682 0.0
H451 H 0.78136 0.22523 0.67478 0.0
H452 H 0.75501 0.24988 0.65969 0.0
H453 H 0.81607 0.25839 0.65611 0.0
H454 H 0.69949 0.09236 0.63035 0.0
H455 H 0.71224 0.23155 0.6151 0.0
H456 H 0.61448 0.01785 0.59858 0.0
H457 H 0.57809 0.01324 0.61684 0.0
H458 H 0.63689 0.01467 0.6196 0.0
H459 H 0.65363 0.23628 0.59699 0.0
H460 H 0.59182 0.18175 0.59666 0.0
H461 H 0.63537 0.1909 0.58017 0.0
H462 H 0.73087 0.00691 0.48255 0.0
H463 H 0.68599 0.00065 0.50482 0.0
H464 H 0.74027 0.15376 0.49043 0.0
H465 H 0.60265 0.98843 0.5348 0.0
H466 H 0.61006 0.95183 0.51853 0.0
H467 H 0.56437 0.97161 0.51605 0.0
H468 H 0.69963 0.19771 0.49887 0.0
H469 H 0.66262 0.17469 0.51798 0.0
H470 H 0.6326 0.15778 0.49759 0.0
H471 H 0.3387 0.08941 0.48282 0.0
H472 H 0.25108 0.0394 0.49104 0.0
H473 H 0.29279 0.0259 0.50301 0.0
H474 H 0.2525 0.98263 0.48727 0.0
H475 H 0.36829 0.96104 0.48176 0.0
H476 H 0.41382 0.11482 0.49125 0.0
H477 H 0.43763 0.94705 0.51518 0.0
H478 H 0.47458 0.963 0.49627 0.0
H479 H 0.40789 0.92102 0.49498 0.0
H480 H 0.4836 0.16727 0.50768 0.0
H481 H 0.53081 0.14926 0.50941 0.0
H482 H 0.48665 0.13426 0.52623 0.0
H483 H 0.53008 0.07028 0.61357 0.0
H484 H 0.66257 0.10839 0.57408 0.0
H485 H 0.66738 0.10149 0.5438 0.0
H486 H 0.55207 0.05992 0.49717 0.0
H487 H 0.41982 0.02247 0.53662 0.0
H488 H 0.41299 0.01987 0.56705 0.0
H489 H 0.80354 0.00334 0.49431 0.0
H490 H 0.76928 0.01687 0.50967 0.0
H491 H 0.82862 0.06567 0.50262 0.0
C492 C 0.78041 0.67922 0.82084 0.0
C493 C 0.75378 0.68912 0.80587 0.0
C494 C 0.67423 0.66992 0.81953 0.0
C495 C 0.6478 0.69182 0.82606 0.0
C496 C 0.60314 0.66343 0.83505 0.0
C497 C 0.58493 0.61183 0.8378 0.0
C498 C 0.61088 0.58906 0.83091 0.0
C499 C 0.65491 0.6182 0.82164 0.0
C500 C 0.57582 0.68877 0.8418 0.0
C501 C 0.59242 0.53403 0.8335 0.0
C502 C 0.23627 0.28357 0.79987 0.0
C503 C 0.27377 0.31365 0.81318 0.0
C504 C 0.32596 0.40025 0.82229 0.0
C505 C 0.35924 0.3908 0.83174 0.0
C506 C 0.40051 0.42952 0.84011 0.0
C507 C 0.408 0.47865 0.83951 0.0
C508 C 0.37451 0.4884 0.83013 0.0
C509 C 0.33401 0.449 0.82153 0.0
C510 C 0.43613 0.41768 0.84959 0.0
C511 C 0.3814 0.5403 0.8293 0.0
C512 C 0.3186 0.43028 0.9478 0.0
C513 C 0.34833 0.41039 0.94255 0.0
C514 C 0.3937 0.44049 0.93411 0.0
C515 C 0.40963 0.49153 0.93103 0.0
C516 C 0.38078 0.51214 0.93703 0.0
C517 C 0.3357 0.48119 0.94547 0.0
C518 C 0.42428 0.41766 0.92825 0.0
C519 C 0.39698 0.56653 0.93413 0.0
C520 C 0.82 0.72487 0.94205 0.0
C521 C 0.77324 0.72671 0.9474 0.0
C522 C 0.68831 0.65542 0.94496 0.0
C523 C 0.66604 0.60459 0.9412 0.0
C524 C 0.61868 0.57905 0.9335 0.0
C525 C 0.59278 0.60505 0.92985 0.0
C526 C 0.61395 0.65585 0.93458 0.0
C527 C 0.66162 0.68054 0.94213 0.0
C528 C 0.59687 0.52465 0.92888 0.0
C529 C 0.58659 0.68415 0.93133 0.0
C530 C 0.53943 0.5819 0.84819 0.0
C531 C 0.49461 0.54996 0.83977 0.0
C532 C 0.45096 0.51921 0.84885 0.0
C533 C 0.45105 0.52233 0.86677 0.0
C534 C 0.40704 0.49413 0.8762 0.0
C535 C 0.40802 0.495 0.89388 0.0
C536 C 0.45321 0.52356 0.90281 0.0
C537 C 0.45507 0.5227 0.92078 0.0
C538 C 0.50073 0.55063 0.92927 0.0
C539 C 0.54496 0.57969 0.92024 0.0
C540 C 0.54377 0.58176 0.90227 0.0
C541 C 0.58757 0.6108 0.8928 0.0
C542 C 0.58619 0.6115 0.87512 0.0
C543 C 0.54104 0.58281 0.86619 0.0
C544 C 0.49651 0.5533 0.87549 0.0
C545 C 0.49776 0.55325 0.89354 0.0
C546 C 0.18701 0.34467 0.95247 0.0
C547 C 0.23985 0.3519 0.95257 0.0
O548 O 0.71804 0.7003 0.81144 0.0
O549 O 0.73537 0.67888 0.95145 0.0
O550 O 0.27372 0.40195 0.95542 0.0
O551 O 0.28648 0.36358 0.81356 0.0
H552 H 0.73538 0.65347 0.79879 0.0
H553 H 0.75509 0.64273 0.82697 0.0
H554 H 0.79298 0.7081 0.83086 0.0
H555 H 0.81336 0.67749 0.81614 0.0
H556 H 0.66267 0.73162 0.82421 0.0
H557 H 0.67393 0.6002 0.81624 0.0
H558 H 0.53546 0.66671 0.83847 0.0
H559 H 0.59128 0.72739 0.83674 0.0
H560 H 0.57885 0.69071 0.85589 0.0
H561 H 0.61966 0.52321 0.82896 0.0
H562 H 0.55672 0.51171 0.82646 0.0
H563 H 0.58488 0.52409 0.84718 0.0
H564 H 0.26558 0.29642 0.82613 0.0
H565 H 0.27557 0.2626 0.78393 0.0
H566 H 0.21914 0.3064 0.79537 0.0
H567 H 0.20224 0.25553 0.80708 0.0
H568 H 0.35359 0.35333 0.83257 0.0
H569 H 0.30832 0.45606 0.8142 0.0
H570 H 0.43118 0.41945 0.86348 0.0
H571 H 0.47551 0.44559 0.8465 0.0
H572 H 0.42963 0.37977 0.84655 0.0
H573 H 0.35016 0.54108 0.82247 0.0
H574 H 0.41691 0.56574 0.82266 0.0
H575 H 0.38425 0.55503 0.84236 0.0
H576 H 0.24459 0.34293 0.93938 0.0
H577 H 0.33655 0.37171 0.94521 0.0
H578 H 0.31283 0.49632 0.94991 0.0
H579 H 0.42655 0.41913 0.91415 0.0
H580 H 0.40808 0.3781 0.93241 0.0
H581 H 0.46303 0.43963 0.93329 0.0
H582 H 0.3707 0.57699 0.93984 0.0
H583 H 0.39955 0.57444 0.92026 0.0
H584 H 0.43478 0.59053 0.93969 0.0
H585 H 0.763 0.73872 0.93555 0.0
H586 H 0.85055 0.76302 0.93866 0.0
H587 H 0.8113 0.7006 0.93069 0.0
H588 H 0.83368 0.70959 0.95221 0.0
H589 H 0.68668 0.58537 0.9438 0.0
H590 H 0.67781 0.71917 0.94593 0.0
H591 H 0.58967 0.51982 0.91497 0.0
H592 H 0.56047 0.50192 0.93539 0.0
H593 H 0.62199 0.50995 0.93247 0.0
H594 H 0.60649 0.72235 0.93686 0.0
H595 H 0.5484 0.66326 0.9368 0.0
H596 H 0.58247 0.68737 0.91742 0.0
H597 H 0.49424 0.5474 0.826 0.0
H598 H 0.37135 0.47094 0.86998 0.0
H599 H 0.373 0.47231 0.90044 0.0
H600 H 0.50199 0.549 0.94304 0.0
H601 H 0.62352 0.63323 0.89895 0.0
H602 H 0.62116 0.63429 0.86853 0.0
H603 H 0.15883 0.30478 0.95011 0.0
H604 H 0.18358 0.36764 0.94218 0.0
H605 H 0.17852 0.35635 0.96475 0.0
C606 C 0.9943 0.21174 0.12273 0.0
C607 C 0.02416 0.21942 0.10824 0.0
C608 C 0.0824 0.30446 0.11775 0.0
C609 C 0.06049 0.29223 0.13425 0.0
N610 N 0.98894 0.236 0.15145 0.0
N611 N 0.09868 0.27238 0.09212 0.0
C612 C 0.01389 0.24674 0.13635 0.0
C613 C 0.06847 0.26579 0.10568 0.0
N614 N 0.94709 0.17114 0.12335 0.0
N615 N 0.1155 0.35281 0.11333 0.0
H616 H 0.08974 0.24534 0.08278 0.0
H617 H 0.13455 0.30319 0.0909 0.0
H618 H 0.12277 0.38334 0.1208 0.0
H619 H 0.12959 0.36335 0.10106 0.0
H620 H 0.92124 0.16562 0.13275 0.0
H621 H 0.93216 0.14498 0.11354 0.0
H622 H 0.9603 0.20039 0.15475 0.0
H623 H 0.99627 0.26259 0.16077 0.0
C624 C 0.79759 0.02146 0.43891 0.0
C625 C 0.85046 0.05153 0.43918 0.0
C626 C 0.84663 0.08986 0.46581 0.0
C627 C 0.79474 0.05417 0.46699 0.0
N628 N 0.71897 0.00664 0.45067 0.0
N629 N 0.92562 0.1181 0.45209 0.0
C630 C 0.76944 0.02601 0.45229 0.0
C631 C 0.87489 0.0871 0.45228 0.0
N632 N 0.77443 0.98779 0.42607 0.0
N633 N 0.87006 0.12824 0.47703 0.0
H634 H 0.94859 0.11724 0.4426 0.0
H635 H 0.94471 0.14416 0.46169 0.0
H636 H 0.85176 0.1363 0.48652 0.0
H637 H 0.85176 0.1363 0.48652 0.0
H638 H 0.73672 0.96049 0.42627 0.0
H639 H 0.79363 0.98523 0.41562 0.0
H640 H 0.69881 0.989 0.43972 0.0
H641 H 0.6983 0.0142 0.45939 0.0
C642 C 0.83827 0.75891 0.76765 0.0
C643 C 0.8721 0.80586 0.77495 0.0
C644 C 0.82652 0.77889 0.80174 0.0
C645 C 0.79141 0.73199 0.79449 0.0
N646 N 0.75556 0.68615 0.7684 0.0
N647 N 0.91347 0.83996 0.80178 0.0
C648 C 0.79518 0.72394 0.77685 0.0
C649 C 0.87073 0.81103 0.79279 0.0
N650 N 0.84873 0.74736 0.75204 0.0
N651 N 0.8178 0.79391 0.817 0.0
H652 H 0.94814 0.84878 0.79693 0.0
H653 H 0.91406 0.84332 0.81498 0.0
H654 H 0.78467 0.77373 0.82375 0.0
H655 H 0.8413 0.82964 0.82186 0.0
H656 H 0.82842 0.71203 0.74657 0.0
H657 H 0.88144 0.77191 0.74555 0.0
H658 H 0.75497 0.6813 0.75528 0.0
H659 H 0.72046 0.66434 0.77386 0.0
C660 C 0.9854 0.78857 0.09425 0.0
C661 C 0.02723 0.83376 0.09981 0.0
C662 C 0.03384 0.79214 0.12552 0.0
C663 C 0.98977 0.74701 0.12043 0.0
N664 N 0.93829 0.69874 0.09645 0.0
N665 N 0.09936 0.87619 0.11788 0.0
C666 C 0.97047 0.74397 0.10363 0.0
C667 C 0.05404 0.83472 0.11456 0.0
N668 N 0.95809 0.78857 0.08046 0.0
N669 N 0.05618 0.79511 0.14089 0.0
H670 H 0.11471 0.90786 0.11008 0.0
H671 H 0.12376 0.87784 0.1274 0.0
H672 H 0.04971 0.76423 0.14816 0.0
H673 H 0.08184 0.82883 0.14654 0.0
H674 H 0.92334 0.75821 0.07725 0.0
H675 H 0.96805 0.82012 0.07294 0.0
H676 H 0.92795 0.69476 0.08366 0.0
H677 H 0.92566 0.66451 0.1025 0.0
C678 C 0.27901 0.10926 0.44116 0.0
C679 C 0.23788 0.06601 0.43411 0.0
C680 C 0.25903 0.01247 0.45111 0.0
C681 C 0.2964 0.05558 0.4598 0.0
N682 N 0.3576 0.14315 0.45643 0.0
N683 N 0.19275 0.97631 0.43034 0.0
C684 C 0.31129 0.10362 0.4528 0.0
C685 C 0.22951 0.01777 0.43836 0.0
N686 N 0.28615 0.15561 0.43729 0.0
N687 N 0.25144 0.96575 0.45422 0.0
H688 H 0.17065 0.97816 0.42057 0.0
H689 H 0.18491 0.94012 0.43336 0.0
H690 H 0.27334 0.95784 0.4624 0.0
H691 H 0.27334 0.95784 0.4624 0.0
H692 H 0.3119 0.188 0.44364 0.0
H693 H 0.26383 0.16127 0.42856 0.0
H694 H 0.37194 0.17815 0.45068 0.0
H695 H 0.38437 0.13903 0.46329 0.0
C696 C 0.24971 0.29563 0.76934 0.0
C697 C 0.20795 0.2302 0.7748 0.0
C698 C 0.27367 0.23636 0.80652 0.0
C699 C 0.30642 0.30516 0.80312 0.0
N700 N 0.33653 0.38264 0.779 0.0
N701 N 0.19162 0.15041 0.79514 0.0
C702 C 0.30376 0.33426 0.78259 0.0
C703 C 0.22057 0.20023 0.79266 0.0
N704 N 0.24036 0.31547 0.7554 0.0
N705 N 0.28476 0.21615 0.81994 0.0
H706 H 0.16217 0.12845 0.7869 0.0
H707 H 0.19855 0.13254 0.8052 0.0
H708 H 0.31408 0.23918 0.82809 0.0
H709 H 0.26475 0.1778 0.82235 0.0
H710 H 0.26382 0.35282 0.75206 0.0
H711 H 0.2088 0.29414 0.74788 0.0
H712 H 0.3336 0.39935 0.76782 0.0
H713 H 0.36586 0.40383 0.78741 0.0
C714 C 0.86488 0.16169 0.659 0.0
C715 C 0.84213 0.11655 0.66841 0.0
C716 C 0.75928 0.10662 0.66316 0.0
C717 C 0.78224 0.15365 0.65434 0.0
N718 N 0.85502 0.21432 0.63841 0.0
N719 N 0.76829 0.03936 0.67574 0.0
C720 C 0.83438 0.17736 0.65044 0.0
C721 C 0.78946 0.08692 0.6693 0.0
N722 N 0.91588 0.19085 0.6588 0.0
N723 N 0.70886 0.08083 0.66603 0.0
H724 H 0.78936 0.02418 0.68061 0.0
H725 H 0.73025 0.01336 0.67497 0.0
H726 H 0.68311 0.08698 0.65943 0.0
H727 H 0.69204 0.05243 0.67506 0.0
H728 H 0.93453 0.22739 0.65414 0.0
H729 H 0.93967 0.17997 0.66442 0.0
H730 H 0.89121 0.22841 0.63383 0.0
H731 H 0.83523 0.22785 0.63165 0.0
C732 C 0.80152 0.84452 0.97368 0.0
C733 C 0.82945 0.83999 0.98717 0.0
C734 C 0.80452 0.75509 0.97794 0.0
C735 C 0.78515 0.76311 0.96237 0.0
N736 N 0.76533 0.81846 0.94582 0.0
N737 N 0.86357 0.79364 0.001 0.0
C738 C 0.78319 0.80841 0.9604 0.0
C739 C 0.83222 0.79587 0.98909 0.0
N740 N 0.79143 0.88291 0.97379 0.0
N741 N 0.79671 0.70879 0.98236 0.0
H742 H 0.88483 0.8226 0.00944 0.0
H743 H 0.87202 0.76492 0.00146 0.0
H744 H 0.77799 0.677 0.97488 0.0
H745 H 0.80497 0.70071 0.99444 0.0
H746 H 0.76631 0.8852 0.96544 0.0
H747 H 0.80445 0.90999 0.98333 0.0
H748 H 0.7722 0.85422 0.94271 0.0
H749 H 0.74442 0.79251 0.93652 0.0
C750 C 0.95406 0.77453 0.32457 0.0
C751 C 0.96968 0.82455 0.31999 0.0
C752 C 0.97449 0.80557 0.29004 0.0
C753 C 0.95707 0.75456 0.29463 0.0
N754 N 0.95659 0.70025 0.31711 0.0
N755 N 0.00719 0.89133 0.2994 0.0
C756 C 0.95455 0.74172 0.31216 0.0
C757 C 0.98353 0.84118 0.303 0.0
N758 N 0.93827 0.75807 0.34076 0.0
N759 N 0.98288 0.82038 0.27339 0.0
H760 H 0.0141 0.91849 0.30851 0.0
H761 H 0.02368 0.90674 0.28775 0.0
H762 H 0.98475 0.79869 0.26368 0.0
H763 H 0.98706 0.85418 0.26903 0.0
H764 H 0.92149 0.72047 0.34424 0.0
H765 H 0.93799 0.78126 0.3503 0.0
H766 H 0.95845 0.69147 0.32982 0.0
H767 H 0.96445 0.67911 0.30872 0.0
C768 C 0.17238 0.94775 0.65509 0.0
C769 C 0.17983 0.99565 0.65913 0.0
C770 C 0.26507 0.03503 0.64786 0.0
C771 C 0.25843 0.98655 0.64466 0.0
N772 N 0.19735 0.90134 0.63703 0.0
N773 N 0.22576 0.08442 0.65395 0.0
C774 C 0.20931 0.94428 0.64557 0.0
C775 C 0.22392 0.03921 0.6538 0.0
N776 N 0.1315 0.90546 0.66102 0.0
N777 N 0.3104 0.07723 0.64547 0.0
H778 H 0.19569 0.08838 0.65784 0.0
H779 H 0.25476 0.11692 0.64862 0.0
H780 H 0.33957 0.07805 0.63871 0.0
H781 H 0.31935 0.11197 0.65042 0.0
H782 H 0.12745 0.86998 0.65988 0.0
H783 H 0.10387 0.90611 0.66837 0.0
H784 H 0.16093 0.87115 0.63629 0.0
H785 H 0.22225 0.89822 0.62897 0.0
C786 C 0.22801 0.23217 0.97262 0.0
C787 C 0.20708 0.23381 0.98833 0.0
C788 C 0.23398 0.32204 0.98348 0.0
C789 C 0.24326 0.31702 0.96602 0.0
N790 N 0.25528 0.26738 0.94461 0.0
N791 N 0.1871 0.27934 0.00864 0.0
C792 C 0.24297 0.27243 0.96085 0.0
C793 C 0.20993 0.27867 0.99387 0.0
N794 N 0.23387 0.19211 0.96905 0.0
N795 N 0.24789 0.36779 0.99033 0.0
H796 H 0.16951 0.24873 0.01684 0.0
H797 H 0.18207 0.30907 0.01208 0.0
H798 H 0.26708 0.40143 0.9838 0.0
H799 H 0.24607 0.37316 0.00331 0.0
H800 H 0.25356 0.19055 0.9586 0.0
H801 H 0.22291 0.16215 0.97747 0.0
H802 H 0.24679 0.23311 0.93937 0.0
H803 H 0.27404 0.29703 0.93617 0.0
C804 C 0.07955 0.26649 0.29539 0.0
C805 C 0.03933 0.23203 0.3131 0.0
C806 C 0.95669 0.25737 0.30166 0.0
C807 C 0.00477 0.30303 0.28688 0.0
N808 N 0.08896 0.32515 0.26703 0.0
N809 N 0.94789 0.19595 0.32843 0.0
C810 C 0.061 0.29952 0.28055 0.0
C811 C 0.97805 0.22562 0.3159 0.0
N812 N 0.12284 0.2665 0.29315 0.0
N813 N 0.91167 0.2541 0.30321 0.0
H814 H 0.95953 0.17697 0.33659 0.0
H815 H 0.91243 0.19135 0.33022 0.0
H816 H 0.90236 0.27552 0.2953 0.0
H817 H 0.88567 0.23033 0.31212 0.0
H818 H 0.14648 0.28574 0.28304 0.0
H819 H 0.13353 0.24733 0.30161 0.0
H820 H 0.12159 0.32483 0.26401 0.0
H821 H 0.07771 0.34542 0.25932 0.0
loop_
_geom_bond_atom_site_label_1
_geom_bond_atom_site_label_2
_geom_bond_distance
_geom_bond_site_symmetry_2
_ccdc_geom_bond_type
Li0 N17 1.990 . S
Li0 O60 1.956 . S
Li0 O61 1.947 1_455 S
Li0 O62 1.961 1_545 S
Li1 N25 1.990 . S
Li1 O60 1.970 1_655 S
Li1 O61 1.956 . S
Li1 O63 1.961 1_545 S
Li2 N47 1.990 . S
Li2 O60 1.961 1_565 S
Li2 O62 1.956 . S
Li2 O63 1.970 1_455 S
Li3 N53 1.990 . S
Li3 O61 1.961 1_565 S
Li3 O62 1.970 1_655 S
Li3 O63 1.956 . S
C4 C6 1.348 . S
C4 C7 1.356 . S
C4 O60 1.325 . S
N5 C8 1.314 . S
N5 C9 1.279 . S
C6 C4 1.348 . S
C6 C8 1.353 . S
C6 H64 0.929 . S
C7 C4 1.356 . S
C7 C9 1.358 . S
C7 H65 0.930 . S
C8 N5 1.314 . S
C8 C6 1.353 . S
C8 H66 0.930 . S
C9 N5 1.279 . S
C9 C7 1.358 . S
C9 H67 0.930 . S
C10 C13 1.348 1_655 S
C10 C14 1.356 . S
C10 O61 1.339 . S
C11 N12 1.279 . S
C11 C14 1.358 . S
C11 H68 0.930 . S
N12 C11 1.279 . S
N12 C15 1.314 1_655 S
C13 C10 1.348 1_455 S
C13 C15 1.353 . S
C13 H69 0.929 . S
C14 C10 1.356 . S
C14 C11 1.358 . S
C14 H70 0.930 . S
C15 N12 1.314 1_455 S
C15 C13 1.353 . S
C15 H71 0.930 . S
C16 N17 1.314 . S
C16 C21 1.353 1_554 S
C16 H22 0.930 . S
N17 Li0 1.990 . S
N17 C16 1.314 . S
N17 C19 1.279 . S
C18 C19 1.358 . S
C18 C20 1.356 . S
C18 H72 0.930 . S
C19 N17 1.279 . S
C19 C18 1.358 . S
C19 H23 0.930 . S
C20 C18 1.356 . S
C20 C21 1.348 1_554 S
C21 C16 1.353 1_556 S
C21 C20 1.348 1_556 S
C21 H73 0.929 . S
H22 C16 0.930 . S
H23 C19 0.930 . S
C24 N25 1.314 . S
C24 C26 1.353 . S
C24 H30 0.930 . S
N25 Li1 1.990 . S
N25 C24 1.314 . S
N25 C28 1.279 . S
C26 C24 1.353 . S
C26 C29 1.348 . S
C26 H74 0.929 . S
C27 C28 1.358 . S
C27 C29 1.356 . S
C27 H75 0.930 . S
C28 N25 1.279 . S
C28 C27 1.358 . S
C28 H31 0.930 . S
C29 C26 1.348 . S
C29 C27 1.356 . S
H30 C24 0.930 . S
H31 C28 0.930 . S
C32 C34 1.348 . S
C32 C35 1.356 . S
C32 O62 1.325 . S
N33 C36 1.314 . S
N33 C37 1.279 . S
C34 C32 1.348 . S
C34 C36 1.353 . S
C34 H76 0.929 1_455 S
C35 C32 1.356 . S
C35 C37 1.358 . S
C35 H77 0.930 . S
C36 N33 1.314 . S
C36 C34 1.353 . S
C36 H78 0.930 1_455 S
C37 N33 1.279 . S
C37 C35 1.358 . S
C37 H79 0.930 . S
C38 C39 1.348 . S
C38 C40 1.356 . S
C38 O63 1.325 . S
C39 C38 1.348 . S
C39 C41 1.353 . S
C39 H80 0.929 . S
C40 C38 1.356 . S
C40 C42 1.358 . S
C40 H81 0.930 . S
C41 C39 1.353 . S
C41 N43 1.314 . S
C41 H82 0.930 . S
C42 C40 1.358 . S
C42 N43 1.279 . S
C42 H83 0.930 . S
N43 C41 1.314 . S
N43 C42 1.279 . S
C44 C46 1.353 . S
C44 N47 1.314 . S
C44 H50 0.930 . S
C45 N47 1.279 . S
C45 C48 1.358 . S
C45 H51 0.930 . S
C46 C44 1.353 . S
C46 C49 1.348 . S
C46 H84 0.929 . S
N47 Li2 1.990 . S
N47 C44 1.314 . S
N47 C45 1.279 . S
C48 C45 1.358 . S
C48 C49 1.356 . S
C48 H85 0.930 . S
C49 C46 1.348 . S
C49 C48 1.356 . S
H50 C44 0.930 . S
H51 C45 0.930 . S
C52 N53 1.314 . S
C52 C54 1.353 1_554 S
C52 H58 0.930 . S
N53 Li3 1.990 . S
N53 C52 1.314 . S
N53 C56 1.279 . S
C54 C52 1.353 1_556 S
C54 C57 1.348 1_556 S
C54 H86 0.929 . S
C55 C56 1.358 . S
C55 C57 1.356 . S
C55 H87 0.930 . S
C56 N53 1.279 . S
C56 C55 1.358 . S
C56 H59 0.930 . S
C57 C54 1.348 1_554 S
C57 C55 1.356 . S
H58 C52 0.930 . S
H59 C56 0.930 . S
O60 Li0 1.956 . S
O60 Li1 1.970 1_455 S
O60 Li2 1.961 1_545 S
O60 C4 1.325 . S
O61 Li0 1.947 1_655 S
O61 Li1 1.956 . S
O61 Li3 1.961 1_545 S
O61 C10 1.339 . S
O62 Li0 1.961 1_565 S
O62 Li2 1.956 . S
O62 Li3 1.970 1_455 S
O62 C32 1.325 . S
O63 Li1 1.961 1_565 S
O63 Li2 1.970 1_655 S
O63 Li3 1.956 . S
O63 C38 1.325 . S
H64 C6 0.929 . S
H65 C7 0.930 . S
H66 C8 0.930 . S
H67 C9 0.930 . S
H68 C11 0.930 . S
H69 C13 0.929 . S
H70 C14 0.930 . S
H71 C15 0.930 . S
H72 C18 0.930 . S
H73 C21 0.929 . S
H74 C26 0.929 . S
H75 C27 0.930 . S
H76 C34 0.929 1_655 S
H77 C35 0.930 . S
H78 C36 0.930 1_655 S
H79 C37 0.930 . S
H80 C39 0.929 . S
H81 C40 0.930 . S
H82 C41 0.930 . S
H83 C42 0.930 . S
H84 C46 0.929 . S
H85 C48 0.930 . S
H86 C54 0.929 . S
H87 C55 0.930 . S
Li88 N105 1.990 1_455 S
Li88 O148 1.956 . S
Li88 O149 1.970 1_565 S
Li88 O150 1.961 1_465 S
Li89 N113 1.990 . S
Li89 O148 1.970 1_545 S
Li89 O149 1.956 . S
Li89 O151 1.961 . S
Li90 N135 1.990 . S
Li90 O148 1.961 1_645 S
Li90 O150 1.956 . S
Li90 O151 1.970 1_655 S
Li91 N141 1.990 . S
Li91 O149 1.961 . S
Li91 O150 1.970 1_455 S
Li91 O151 1.956 . S
C92 C94 1.348 . S
C92 C95 1.356 1_455 S
C92 O148 1.325 . S
N93 C96 1.314 1_655 S
N93 C97 1.279 . S
C94 C92 1.348 . S
C94 C96 1.353 . S
C94 H152 0.929 . S
C95 C92 1.356 1_655 S
C95 C97 1.358 . S
C95 H153 0.930 . S
C96 N93 1.314 1_455 S
C96 C94 1.353 . S
C96 H154 0.930 . S
C97 N93 1.279 . S
C97 C95 1.358 . S
C97 H155 0.930 . S
C98 C101 1.348 . S
C98 C102 1.356 . S
C98 O149 1.325 . S
C99 N100 1.279 . S
C99 C102 1.358 . S
C99 H156 0.930 . S
N100 C99 1.279 . S
N100 C103 1.314 . S
C101 C98 1.348 . S
C101 C103 1.353 . S
C101 H157 0.929 1_545 S
C102 C98 1.356 . S
C102 C99 1.358 . S
C102 H158 0.930 . S
C103 N100 1.314 . S
C103 C101 1.353 . S
C103 H159 0.930 . S
C104 N105 1.314 . S
C104 C109 1.353 . S
C104 H110 0.930 . S
N105 Li88 1.990 1_655 S
N105 C104 1.314 . S
N105 C107 1.279 . S
C106 C107 1.358 . S
C106 C108 1.356 . S
C106 H160 0.930 . S
C107 N105 1.279 . S
C107 C106 1.358 . S
C107 H111 0.931 . S
C108 C106 1.356 . S
C108 C109 1.348 . S
C109 C104 1.353 . S
C109 C108 1.348 . S
C109 H161 0.929 . S
H110 C104 0.930 . S
H111 C107 0.931 . S
C112 N113 1.314 . S
C112 C114 1.353 . S
C112 H118 0.930 . S
N113 Li89 1.990 . S
N113 C112 1.314 . S
N113 C116 1.279 . S
C114 C112 1.353 . S
C114 C117 1.348 . S
C114 H162 0.929 . S
C115 C116 1.358 . S
C115 C117 1.356 . S
C115 H163 0.930 . S
C116 N113 1.279 . S
C116 C115 1.358 . S
C116 H119 0.930 . S
C117 C114 1.348 . S
C117 C115 1.356 . S
H118 C112 0.930 . S
H119 C116 0.930 . S
C120 C122 1.348 . S
C120 C123 1.356 1_545 S
C120 O150 1.325 . S
N121 C124 1.314 1_565 S
N121 C125 1.279 . S
C122 C120 1.348 . S
C122 C124 1.353 . S
C122 H164 0.929 . S
C123 C120 1.356 1_565 S
C123 C125 1.358 . S
C123 H165 0.930 . S
C124 N121 1.314 1_545 S
C124 C122 1.353 . S
C124 H166 0.930 . S
C125 N121 1.279 . S
C125 C123 1.358 . S
C125 H167 0.930 . S
C126 C127 1.348 . S
C126 C128 1.356 . S
C126 O151 1.325 . S
C127 C126 1.348 . S
C127 C129 1.353 . S
C127 H168 0.929 1_455 S
C128 C126 1.356 . S
C128 C130 1.358 . S
C128 H169 0.930 . S
C129 C127 1.353 . S
C129 N131 1.314 . S
C129 H170 0.930 . S
C130 C128 1.358 . S
C130 N131 1.279 . S
C130 H171 0.930 . S
N131 C129 1.314 . S
N131 C130 1.279 . S
C132 C134 1.356 1_545 S
C132 N135 1.317 . S
C132 H138 0.928 . S
C133 N135 1.279 . S
C133 C136 1.356 . S
C133 H139 0.930 . S
C134 C132 1.356 1_565 S
C134 C137 1.348 . S
C134 H172 0.929 . S
N135 Li90 1.990 . S
N135 C132 1.317 . S
N135 C133 1.279 . S
C136 C133 1.356 . S
C136 C137 1.355 1_545 S
C136 H173 0.943 1_545 S
C137 C134 1.348 . S
C137 C136 1.355 1_565 S
H138 C132 0.928 . S
H139 C133 0.930 . S
C140 N141 1.314 . S
C140 C142 1.353 . S
C140 H146 0.930 . S
N141 Li91 1.990 . S
N141 C140 1.314 . S
N141 C144 1.279 . S
C142 C140 1.353 . S
C142 C145 1.348 . S
C142 H174 0.929 . S
C143 C144 1.358 . S
C143 C145 1.356 . S
C143 H175 0.930 . S
C144 N141 1.279 . S
C144 C143 1.358 . S
C144 H147 0.930 . S
C145 C142 1.348 . S
C145 C143 1.356 . S
H146 C140 0.930 . S
H147 C144 0.930 . S
O148 Li88 1.956 . S
O148 Li89 1.970 1_565 S
O148 Li90 1.961 1_465 S
O148 C92 1.325 . S
O149 Li88 1.970 1_545 S
O149 Li89 1.956 . S
O149 Li91 1.961 . S
O149 C98 1.325 . S
O150 Li88 1.961 1_645 S
O150 Li90 1.956 . S
O150 Li91 1.970 1_655 S
O150 C120 1.325 . S
O151 Li89 1.961 . S
O151 Li90 1.970 1_455 S
O151 Li91 1.956 . S
O151 C126 1.325 . S
H152 C94 0.929 . S
H153 C95 0.930 . S
H154 C96 0.930 . S
H155 C97 0.930 . S
H156 C99 0.930 . S
H157 C101 0.929 1_565 S
H158 C102 0.930 . S
H159 C103 0.930 . S
H160 C106 0.930 . S
H161 C109 0.929 . S
H162 C114 0.929 . S
H163 C115 0.930 . S
H164 C122 0.929 . S
H165 C123 0.930 . S
H166 C124 0.930 . S
H167 C125 0.930 . S
H168 C127 0.929 1_655 S
H169 C128 0.930 . S
H170 C129 0.930 . S
H171 C130 0.930 . S
H172 C134 0.929 . S
H173 C136 0.943 1_565 S
H174 C142 0.929 . S
H175 C143 0.930 . S
Li176 N193 1.990 . S
Li176 O236 1.956 . S
Li176 O237 1.970 . S
Li176 O238 1.961 1_445 S
Li177 N201 1.990 . S
Li177 O236 1.970 . S
Li177 O237 1.956 . S
Li177 O239 1.961 1_455 S
Li178 N223 1.990 . S
Li178 O236 1.961 1_665 S
Li178 O238 1.956 . S
Li178 O239 1.970 1_565 S
Li179 N229 1.990 . S
Li179 O237 1.961 1_655 S
Li179 O238 1.970 1_545 S
Li179 O239 1.956 . S
C180 C182 1.348 . S
C180 C183 1.356 1_545 S
C180 O236 1.325 . S
N181 C184 1.314 1_565 S
N181 C185 1.279 . S
C182 C180 1.348 . S
C182 C184 1.353 . S
C182 H240 0.929 . S
C183 C180 1.356 1_565 S
C183 C185 1.358 . S
C183 H241 0.930 . S
C184 N181 1.314 1_545 S
C184 C182 1.353 . S
C184 H242 0.930 . S
C185 N181 1.279 . S
C185 C183 1.358 . S
C185 H243 0.930 . S
C186 C189 1.348 . S
C186 C190 1.356 . S
C186 O237 1.325 . S
C187 N188 1.279 . S
C187 C190 1.358 . S
C187 H244 0.930 . S
N188 C187 1.279 . S
N188 C191 1.314 . S
C189 C186 1.348 . S
C189 C191 1.353 . S
C189 H245 0.929 . S
C190 C186 1.356 . S
C190 C187 1.358 . S
C190 H246 0.930 . S
C191 N188 1.314 . S
C191 C189 1.353 . S
C191 H247 0.930 . S
C192 N193 1.314 . S
C192 C197 1.353 1_545 S
C192 H198 0.930 . S
N193 Li176 1.990 . S
N193 C192 1.314 . S
N193 C195 1.279 . S
C194 C195 1.358 . S
C194 C196 1.356 1_545 S
C194 H248 0.930 . S
C195 N193 1.279 . S
C195 C194 1.358 . S
C195 H199 0.930 . S
C196 C194 1.356 1_565 S
C196 C197 1.348 . S
C197 C192 1.353 1_565 S
C197 C196 1.348 . S
C197 H249 0.929 . S
H198 C192 0.930 . S
H199 C195 0.930 . S
C200 N201 1.314 . S
C200 C202 1.353 . S
C200 H206 0.930 . S
N201 Li177 1.990 . S
N201 C200 1.314 . S
N201 C204 1.279 . S
C202 C200 1.353 . S
C202 C205 1.348 . S
C202 H250 0.929 . S
C203 C204 1.358 . S
C203 C205 1.356 . S
C203 H251 0.930 . S
C204 N201 1.279 . S
C204 C203 1.358 . S
C204 H207 0.930 . S
C205 C202 1.348 . S
C205 C203 1.356 . S
H206 C200 0.930 . S
H207 C204 0.930 . S
C208 C210 1.348 . S
C208 C211 1.356 . S
C208 O238 1.325 . S
N209 C212 1.314 . S
N209 C213 1.279 . S
C210 C208 1.348 . S
C210 C212 1.353 . S
C210 H252 0.929 . S
C211 C208 1.356 . S
C211 C213 1.358 . S
C211 H253 0.930 . S
C212 N209 1.314 . S
C212 C210 1.353 . S
C212 H254 0.930 . S
C213 N209 1.279 . S
C213 C211 1.358 . S
C213 H255 0.930 . S
C214 C215 1.348 . S
C214 C216 1.356 . S
C214 O239 1.325 . S
C215 C214 1.348 . S
C215 C217 1.353 . S
C215 H256 0.929 1_545 S
C216 C214 1.356 . S
C216 C218 1.358 . S
C216 H257 0.930 . S
C217 C215 1.353 . S
C217 N219 1.314 . S
C217 H258 0.930 . S
C218 C216 1.358 . S
C218 N219 1.279 . S
C218 H259 0.930 . S
N219 C217 1.314 . S
N219 C218 1.279 . S
C220 C222 1.353 . S
C220 N223 1.314 . S
C220 H226 0.930 . S
C221 N223 1.279 . S
C221 C224 1.358 . S
C221 H227 0.930 . S
C222 C220 1.353 . S
C222 C225 1.348 . S
C222 H260 0.929 . S
N223 Li178 1.990 . S
N223 C220 1.314 . S
N223 C221 1.279 . S
C224 C221 1.358 . S
C224 C225 1.356 . S
C224 H261 0.930 . S
C225 C222 1.348 . S
C225 C224 1.356 . S
H226 C220 0.930 . S
H227 C221 0.930 . S
C228 N229 1.314 . S
C228 C230 1.353 . S
C228 H234 0.930 . S
N229 Li179 1.990 . S
N229 C228 1.314 . S
N229 C232 1.279 . S
C230 C228 1.353 . S
C230 C233 1.348 . S
C230 H262 0.929 . S
C231 C232 1.358 . S
C231 C233 1.356 . S
C231 H263 0.930 . S
C232 N229 1.279 . S
C232 C231 1.358 . S
C232 H235 0.930 . S
C233 C230 1.348 . S
C233 C231 1.356 . S
H234 C228 0.930 . S
H235 C232 0.930 . S
O236 Li176 1.956 . S
O236 Li177 1.970 . S
O236 Li178 1.961 1_445 S
O236 C180 1.325 . S
O237 Li176 1.970 . S
O237 Li177 1.956 . S
O237 Li179 1.961 1_455 S
O237 C186 1.325 . S
O238 Li176 1.961 1_665 S
O238 Li178 1.956 . S
O238 Li179 1.970 1_565 S
O238 C208 1.325 . S
O239 Li177 1.961 1_655 S
O239 Li178 1.970 1_545 S
O239 Li179 1.956 . S
O239 C214 1.325 . S
H240 C182 0.929 . S
H241 C183 0.930 . S
H242 C184 0.930 . S
H243 C185 0.930 . S
H244 C187 0.930 . S
H245 C189 0.929 . S
H246 C190 0.930 . S
H247 C191 0.930 . S
H248 C194 0.930 . S
H249 C197 0.929 . S
H250 C202 0.929 . S
H251 C203 0.930 . S
H252 C210 0.929 . S
H253 C211 0.930 . S
H254 C212 0.930 . S
H255 C213 0.930 . S
H256 C215 0.929 1_565 S
H257 C216 0.930 . S
H258 C217 0.930 . S
H259 C218 0.930 . S
H260 C222 0.929 . S
H261 C224 0.930 . S
H262 C230 0.929 . S
H263 C231 0.930 . S
C264 C265 1.560 . S
C264 H325 0.959 . S
C264 H326 0.959 . S
C264 H327 0.960 . S
C265 C264 1.560 . S
C265 O320 1.426 . S
C265 H324 0.980 1_655 S
C266 C267 1.407 1_655 S
C266 C271 1.418 . S
C266 O320 1.334 . S
C267 C266 1.407 1_455 S
C267 C268 1.360 . S
C267 H328 0.929 . S
C268 C267 1.360 . S
C268 C269 1.401 . S
C268 C272 1.527 . S
C269 C268 1.401 . S
C269 C270 1.405 1_455 S
C269 C302 1.587 . S
C270 C269 1.405 1_655 S
C270 C271 1.332 . S
C270 C273 1.496 . S
C271 C266 1.418 . S
C271 C270 1.332 . S
C271 H329 0.929 . S
C272 C268 1.527 . S
C272 H330 0.959 . S
C272 H331 0.961 . S
C272 H332 0.961 . S
C273 C270 1.496 . S
C273 H333 0.960 . S
C273 H334 0.960 . S
C273 H335 0.961 . S
C274 C275 1.517 . S
C274 H337 0.961 . S
C274 H338 0.960 . S
C274 H339 0.959 . S
C275 C274 1.517 . S
C275 O323 1.468 . S
C275 H336 0.980 . S
C276 C277 1.349 . S
C276 C281 1.367 . S
C276 O323 1.408 . S
C277 C276 1.349 . S
C277 C278 1.407 . S
C277 H340 0.930 . S
C278 C277 1.407 . S
C278 C279 1.449 . S
C278 C282 1.535 1_455 S
C279 C278 1.449 . S
C279 C280 1.384 . S
C279 C304 1.553 . S
C280 C279 1.384 . S
C280 C281 1.364 . S
C280 C283 1.450 . S
C281 C276 1.367 . S
C281 C280 1.364 . S
C281 H341 0.931 . S
C282 C278 1.535 1_655 S
C282 H342 0.959 . S
C282 H343 0.961 . S
C282 H344 0.959 . S
C283 C280 1.450 . S
C283 H345 0.960 . S
C283 H346 0.960 . S
C283 H347 0.960 . S
C284 C285 1.309 . S
C284 C289 1.304 . S
C284 O322 1.435 . S
C285 C284 1.309 . S
C285 C286 1.476 . S
C285 H349 0.930 1_455 S
C286 C285 1.476 . S
C286 C287 1.400 . S
C286 C290 1.567 1_455 S
C287 C286 1.400 . S
C287 C288 1.373 . S
C287 C309 1.432 . S
C288 C287 1.373 . S
C288 C289 1.339 . S
C288 C291 1.530 . S
C289 C284 1.304 . S
C289 C288 1.339 . S
C289 H350 0.930 . S
C290 C286 1.567 1_655 S
C290 H351 0.961 . S
C290 H352 0.960 . S
C290 H353 0.958 . S
C291 C288 1.530 . S
C291 H354 0.961 . S
C291 H355 0.960 . S
C291 H356 0.960 . S
C292 C293 1.530 1_655 S
C292 H358 0.961 . S
C292 H359 0.961 . S
C292 H360 0.959 . S
C293 C292 1.530 1_455 S
C293 O321 1.412 1_455 S
C293 H357 0.980 . S
C294 C295 1.288 . S
C294 C299 1.377 1_655 S
C294 O321 1.393 . S
C295 C294 1.288 . S
C295 C296 1.369 . S
C295 H361 0.932 . S
C296 C295 1.369 . S
C296 C297 1.398 1_655 S
C296 C300 1.527 . S
C297 C296 1.398 1_455 S
C297 C298 1.380 . S
C297 C311 1.497 . S
C298 C297 1.380 . S
C298 C299 1.383 . S
C298 C301 1.603 . S
C299 C294 1.377 1_455 S
C299 C298 1.383 . S
C299 H362 0.929 . S
C300 C296 1.527 . S
C300 H363 0.961 . S
C300 H364 0.959 . S
C300 H365 0.959 . S
C301 C298 1.603 . S
C301 H366 0.960 . S
C301 H367 0.962 . S
C301 H368 0.961 . S
C302 C269 1.587 . S
C302 C303 1.360 . S
C302 C315 1.412 . S
C303 C302 1.360 . S
C303 C304 1.365 . S
C303 H369 0.929 . S
C304 C279 1.553 . S
C304 C303 1.365 . S
C304 C305 1.404 . S
C305 C304 1.404 . S
C305 C306 1.395 . S
C305 C316 1.451 . S
C306 C305 1.395 . S
C306 C307 1.322 . S
C306 H370 0.930 . S
C307 C306 1.322 . S
C307 C308 1.459 . S
C307 H371 0.929 . S
C308 C307 1.459 . S
C308 C309 1.445 . S
C308 C317 1.395 . S
C309 C287 1.432 . S
C309 C308 1.445 . S
C309 C310 1.370 . S
C310 C309 1.370 . S
C310 C311 1.438 . S
C310 H372 0.930 . S
C311 C297 1.497 . S
C311 C310 1.438 . S
C311 C312 1.360 . S
C312 C311 1.360 . S
C312 C313 1.401 . S
C312 C317 1.446 . S
C313 C312 1.401 . S
C313 C314 1.347 . S
C313 H373 0.929 . S
C314 C313 1.347 . S
C314 C315 1.455 . S
C314 H374 0.930 . S
C315 C302 1.412 . S
C315 C314 1.455 . S
C315 C316 1.331 . S
C316 C305 1.451 . S
C316 C315 1.331 . S
C316 C317 1.497 . S
C317 C308 1.395 . S
C317 C312 1.446 . S
C317 C316 1.497 . S
C318 C319 1.582 . S
C318 H375 0.962 . S
C318 H376 0.959 . S
C318 H377 0.958 . S
C319 C318 1.582 . S
C319 O322 1.458 . S
C319 H348 0.980 . S
O320 C265 1.426 . S
O320 C266 1.334 . S
O321 C293 1.412 1_655 S
O321 C294 1.393 . S
O322 C284 1.435 . S
O322 C319 1.458 . S
O323 C275 1.468 . S
O323 C276 1.408 . S
H324 C265 0.980 1_455 S
H325 C264 0.959 . S
H326 C264 0.959 . S
H327 C264 0.960 . S
H328 C267 0.929 . S
H329 C271 0.929 . S
H330 C272 0.959 . S
H331 C272 0.961 . S
H332 C272 0.961 . S
H333 C273 0.960 . S
H334 C273 0.960 . S
H335 C273 0.961 . S
H336 C275 0.980 . S
H337 C274 0.961 . S
H338 C274 0.960 . S
H339 C274 0.959 . S
H340 C277 0.930 . S
H341 C281 0.931 . S
H342 C282 0.959 . S
H343 C282 0.961 . S
H344 C282 0.959 . S
H345 C283 0.960 . S
H346 C283 0.960 . S
H347 C283 0.960 . S
H348 C319 0.980 . S
H349 C285 0.930 1_655 S
H350 C289 0.930 . S
H351 C290 0.961 . S
H352 C290 0.960 . S
H353 C290 0.958 . S
H354 C291 0.961 . S
H355 C291 0.960 . S
H356 C291 0.960 . S
H357 C293 0.980 . S
H358 C292 0.961 . S
H359 C292 0.961 . S
H360 C292 0.959 . S
H361 C295 0.932 . S
H362 C299 0.929 . S
H363 C300 0.961 . S
H364 C300 0.959 . S
H365 C300 0.959 . S
H366 C301 0.960 . S
H367 C301 0.962 . S
H368 C301 0.961 . S
H369 C303 0.929 . S
H370 C306 0.930 . S
H371 C307 0.929 . S
H372 C310 0.930 . S
H373 C313 0.929 . S
H374 C314 0.930 . S
H375 C318 0.962 . S
H376 C318 0.959 . S
H377 C318 0.958 . S
C378 C379 1.560 1_565 S
C378 H439 0.959 . S
C378 H440 0.959 . S
C378 H441 0.960 . S
C379 C378 1.560 1_545 S
C379 O434 1.426 1_545 S
C379 H438 0.980 . S
C380 C381 1.407 . S
C380 C385 1.418 1_545 S
C380 O434 1.334 1_545 S
C381 C380 1.407 . S
C381 C382 1.360 . S
C381 H442 0.929 . S
C382 C381 1.360 . S
C382 C383 1.401 . S
C382 C386 1.527 . S
C383 C382 1.401 . S
C383 C384 1.405 1_545 S
C383 C416 1.587 . S
C384 C383 1.405 1_565 S
C384 C385 1.332 . S
C384 C387 1.496 . S
C385 C380 1.418 1_565 S
C385 C384 1.332 . S
C385 H443 0.929 . S
C386 C382 1.527 . S
C386 H444 0.959 . S
C386 H445 0.961 . S
C386 H446 0.961 . S
C387 C384 1.496 . S
C387 H447 0.960 . S
C387 H448 0.960 . S
C387 H449 0.961 . S
C388 C389 1.517 . S
C388 H451 0.961 . S
C388 H452 0.960 . S
C388 H453 0.959 . S
C389 C388 1.517 . S
C389 O437 1.468 . S
C389 H450 0.980 . S
C390 C391 1.349 . S
C390 C395 1.367 . S
C390 O437 1.408 . S
C391 C390 1.349 . S
C391 C392 1.407 . S
C391 H454 0.930 . S
C392 C391 1.407 . S
C392 C393 1.449 . S
C392 C396 1.535 1_545 S
C393 C392 1.449 . S
C393 C394 1.384 . S
C393 C418 1.553 . S
C394 C393 1.384 . S
C394 C395 1.364 . S
C394 C397 1.450 . S
C395 C390 1.367 . S
C395 C394 1.364 . S
C395 H455 0.931 . S
C396 C392 1.535 1_565 S
C396 H456 0.959 . S
C396 H457 0.961 . S
C396 H458 0.959 . S
C397 C394 1.450 . S
C397 H459 0.960 . S
C397 H460 0.960 . S
C397 H461 0.960 . S
C398 C399 1.309 . S
C398 C403 1.304 . S
C398 O436 1.435 . S
C399 C398 1.309 . S
C399 C400 1.476 . S
C399 H463 0.930 . S
C400 C399 1.476 . S
C400 C401 1.400 . S
C400 C404 1.567 1_545 S
C401 C400 1.400 . S
C401 C402 1.373 . S
C401 C423 1.432 . S
C402 C401 1.373 . S
C402 C403 1.339 . S
C402 C405 1.530 . S
C403 C398 1.304 . S
C403 C402 1.339 . S
C403 H464 0.930 . S
C404 C400 1.567 1_565 S
C404 H465 0.961 . S
C404 H466 0.960 . S
C404 H467 0.958 . S
C405 C402 1.530 . S
C405 H468 0.961 . S
C405 H469 0.960 . S
C405 H470 0.960 . S
C406 C407 1.530 1_565 S
C406 H472 0.958 1_565 S
C406 H473 0.962 . S
C406 H474 0.961 . S
C407 C406 1.530 1_545 S
C407 O435 1.420 . S
C407 H471 0.980 . S
C408 C409 1.288 1_545 S
C408 C413 1.377 . S
C408 O435 1.391 . S
C409 C408 1.288 1_565 S
C409 C410 1.369 . S
C409 H475 0.932 . S
C410 C409 1.369 . S
C410 C411 1.398 1_565 S
C410 C414 1.527 . S
C411 C410 1.398 1_545 S
C411 C412 1.380 . S
C411 C425 1.497 . S
C412 C411 1.380 . S
C412 C413 1.383 . S
C412 C415 1.603 . S
C413 C408 1.377 . S
C413 C412 1.383 . S
C413 H476 0.929 . S
C414 C410 1.527 . S
C414 H477 0.961 . S
C414 H478 0.959 . S
C414 H479 0.959 . S
C415 C412 1.603 . S
C415 H480 0.960 . S
C415 H481 0.962 . S
C415 H482 0.961 . S
C416 C383 1.587 . S
C416 C417 1.360 . S
C416 C429 1.412 . S
C417 C416 1.360 . S
C417 C418 1.365 . S
C417 H483 0.929 . S
C418 C393 1.553 . S
C418 C417 1.365 . S
C418 C419 1.404 . S
C419 C418 1.404 . S
C419 C420 1.395 . S
C419 C430 1.451 . S
C420 C419 1.395 . S
C420 C421 1.322 . S
C420 H484 0.930 . S
C421 C420 1.322 . S
C421 C422 1.459 . S
C421 H485 0.929 . S
C422 C421 1.459 . S
C422 C423 1.445 . S
C422 C431 1.395 . S
C423 C401 1.432 . S
C423 C422 1.445 . S
C423 C424 1.370 . S
C424 C423 1.370 . S
C424 C425 1.438 . S
C424 H486 0.930 . S
C425 C411 1.497 . S
C425 C424 1.438 . S
C425 C426 1.360 . S
C426 C425 1.360 . S
C426 C427 1.401 . S
C426 C431 1.446 . S
C427 C426 1.401 . S
C427 C428 1.347 . S
C427 H487 0.929 . S
C428 C427 1.347 . S
C428 C429 1.455 . S
C428 H488 0.930 . S
C429 C416 1.412 . S
C429 C428 1.455 . S
C429 C430 1.331 . S
C430 C419 1.451 . S
C430 C429 1.331 . S
C430 C431 1.497 . S
C431 C422 1.395 . S
C431 C426 1.446 . S
C431 C430 1.497 . S
C432 C433 1.582 . S
C432 H489 0.962 . S
C432 H490 0.959 . S
C432 H491 0.958 . S
C433 C432 1.582 . S
C433 O436 1.458 . S
C433 H462 0.980 . S
O434 C379 1.426 1_565 S
O434 C380 1.334 1_565 S
O435 C407 1.420 . S
O435 C408 1.391 . S
O436 C398 1.435 . S
O436 C433 1.458 . S
O437 C389 1.468 . S
O437 C390 1.408 . S
H438 C379 0.980 . S
H439 C378 0.959 . S
H440 C378 0.959 . S
H441 C378 0.960 . S
H442 C381 0.929 . S
H443 C385 0.929 . S
H444 C386 0.959 . S
H445 C386 0.961 . S
H446 C386 0.961 . S
H447 C387 0.960 . S
H448 C387 0.960 . S
H449 C387 0.961 . S
H450 C389 0.980 . S
H451 C388 0.961 . S
H452 C388 0.960 . S
H453 C388 0.959 . S
H454 C391 0.930 . S
H455 C395 0.931 . S
H456 C396 0.959 . S
H457 C396 0.961 . S
H458 C396 0.959 . S
H459 C397 0.960 . S
H460 C397 0.960 . S
H461 C397 0.960 . S
H462 C433 0.980 . S
H463 C399 0.930 . S
H464 C403 0.930 . S
H465 C404 0.961 . S
H466 C404 0.960 . S
H467 C404 0.958 . S
H468 C405 0.961 . S
H469 C405 0.960 . S
H470 C405 0.960 . S
H471 C407 0.980 . S
H472 C406 0.958 1_545 S
H473 C406 0.962 . S
H474 C406 0.961 . S
H475 C409 0.932 . S
H476 C413 0.929 . S
H477 C414 0.961 . S
H478 C414 0.959 . S
H479 C414 0.959 . S
H480 C415 0.960 . S
H481 C415 0.962 . S
H482 C415 0.961 . S
H483 C417 0.929 . S
H484 C420 0.930 . S
H485 C421 0.929 . S
H486 C424 0.930 . S
H487 C427 0.929 . S
H488 C428 0.930 . S
H489 C432 0.962 . S
H490 C432 0.959 . S
H491 C432 0.958 . S
C492 C493 1.560 . S
C492 H553 0.959 . S
C492 H554 0.959 . S
C492 H555 0.960 . S
C493 C492 1.560 . S
C493 O548 1.426 . S
C493 H552 0.980 . S
C494 C495 1.407 . S
C494 C499 1.418 . S
C494 O548 1.334 . S
C495 C494 1.407 . S
C495 C496 1.360 . S
C495 H556 0.929 . S
C496 C495 1.360 . S
C496 C497 1.401 . S
C496 C500 1.527 . S
C497 C496 1.401 . S
C497 C498 1.405 . S
C497 C530 1.587 . S
C498 C497 1.405 . S
C498 C499 1.332 . S
C498 C501 1.496 . S
C499 C494 1.418 . S
C499 C498 1.332 . S
C499 H557 0.929 . S
C500 C496 1.527 . S
C500 H558 0.959 . S
C500 H559 0.961 . S
C500 H560 0.961 . S
C501 C498 1.496 . S
C501 H561 0.960 . S
C501 H562 0.960 . S
C501 H563 0.961 . S
C502 C503 1.517 . S
C502 H565 0.961 . S
C502 H566 0.960 . S
C502 H567 0.959 . S
C503 C502 1.517 . S
C503 O551 1.468 . S
C503 H564 0.980 . S
C504 C505 1.349 . S
C504 C509 1.367 . S
C504 O551 1.408 . S
C505 C504 1.349 . S
C505 C506 1.407 . S
C505 H568 0.930 . S
C506 C505 1.407 . S
C506 C507 1.449 . S
C506 C510 1.535 . S
C507 C506 1.449 . S
C507 C508 1.384 . S
C507 C532 1.553 . S
C508 C507 1.384 . S
C508 C509 1.364 . S
C508 C511 1.450 . S
C509 C504 1.367 . S
C509 C508 1.364 . S
C509 H569 0.931 . S
C510 C506 1.535 . S
C510 H570 0.959 . S
C510 H571 0.961 . S
C510 H572 0.959 . S
C511 C508 1.450 . S
C511 H573 0.960 . S
C511 H574 0.960 . S
C511 H575 0.960 . S
C512 C513 1.309 . S
C512 C517 1.304 . S
C512 O550 1.435 . S
C513 C512 1.309 . S
C513 C514 1.476 . S
C513 H577 0.930 . S
C514 C513 1.476 . S
C514 C515 1.400 . S
C514 C518 1.567 . S
C515 C514 1.400 . S
C515 C516 1.373 . S
C515 C537 1.432 . S
C516 C515 1.373 . S
C516 C517 1.339 . S
C516 C519 1.530 . S
C517 C512 1.304 . S
C517 C516 1.339 . S
C517 H578 0.930 . S
C518 C514 1.567 . S
C518 H579 0.961 . S
C518 H580 0.960 . S
C518 H581 0.958 . S
C519 C516 1.530 . S
C519 H582 0.961 . S
C519 H583 0.960 . S
C519 H584 0.960 . S
C520 C521 1.530 . S
C520 H586 0.961 . S
C520 H587 0.961 . S
C520 H588 0.959 . S
C521 C520 1.530 . S
C521 O549 1.412 . S
C521 H585 0.980 . S
C522 C523 1.288 . S
C522 C527 1.377 . S
C522 O549 1.393 . S
C523 C522 1.288 . S
C523 C524 1.369 . S
C523 H589 0.932 . S
C524 C523 1.369 . S
C524 C525 1.398 . S
C524 C528 1.527 . S
C525 C524 1.398 . S
C525 C526 1.380 . S
C525 C539 1.497 . S
C526 C525 1.380 . S
C526 C527 1.383 . S
C526 C529 1.603 . S
C527 C522 1.377 . S
C527 C526 1.383 . S
C527 H590 0.929 . S
C528 C524 1.527 . S
C528 H591 0.961 . S
C528 H592 0.959 . S
C528 H593 0.959 . S
C529 C526 1.603 . S
C529 H594 0.960 . S
C529 H595 0.962 . S
C529 H596 0.961 . S
C530 C497 1.587 . S
C530 C531 1.360 . S
C530 C543 1.412 . S
C531 C530 1.360 . S
C531 C532 1.365 . S
C531 H597 0.929 . S
C532 C507 1.553 . S
C532 C531 1.365 . S
C532 C533 1.404 . S
C533 C532 1.404 . S
C533 C534 1.395 . S
C533 C544 1.451 . S
C534 C533 1.395 . S
C534 C535 1.322 . S
C534 H598 0.930 . S
C535 C534 1.322 . S
C535 C536 1.459 . S
C535 H599 0.929 . S
C536 C535 1.459 . S
C536 C537 1.445 . S
C536 C545 1.395 . S
C537 C515 1.432 . S
C537 C536 1.445 . S
C537 C538 1.370 . S
C538 C537 1.370 . S
C538 C539 1.438 . S
C538 H600 0.930 . S
C539 C525 1.497 . S
C539 C538 1.438 . S
C539 C540 1.360 . S
C540 C539 1.360 . S
C540 C541 1.401 . S
C540 C545 1.446 . S
C541 C540 1.401 . S
C541 C542 1.347 . S
C541 H601 0.929 . S
C542 C541 1.347 . S
C542 C543 1.455 . S
C542 H602 0.930 . S
C543 C530 1.412 . S
C543 C542 1.455 . S
C543 C544 1.331 . S
C544 C533 1.451 . S
C544 C543 1.331 . S
C544 C545 1.497 . S
C545 C536 1.395 . S
C545 C540 1.446 . S
C545 C544 1.497 . S
C546 C547 1.582 . S
C546 H603 0.962 . S
C546 H604 0.959 . S
C546 H605 0.958 . S
C547 C546 1.582 . S
C547 O550 1.458 . S
C547 H576 0.980 . S
O548 C493 1.426 . S
O548 C494 1.334 . S
O549 C521 1.412 . S
O549 C522 1.393 . S
O550 C512 1.435 . S
O550 C547 1.458 . S
O551 C503 1.468 . S
O551 C504 1.408 . S
H552 C493 0.980 . S
H553 C492 0.959 . S
H554 C492 0.959 . S
H555 C492 0.960 . S
H556 C495 0.929 . S
H557 C499 0.929 . S
H558 C500 0.959 . S
H559 C500 0.961 . S
H560 C500 0.961 . S
H561 C501 0.960 . S
H562 C501 0.960 . S
H563 C501 0.961 . S
H564 C503 0.980 . S
H565 C502 0.961 . S
H566 C502 0.960 . S
H567 C502 0.959 . S
H568 C505 0.930 . S
H569 C509 0.931 . S
H570 C510 0.959 . S
H571 C510 0.961 . S
H572 C510 0.959 . S
H573 C511 0.960 . S
H574 C511 0.960 . S
H575 C511 0.960 . S
H576 C547 0.980 . S
H577 C513 0.930 . S
H578 C517 0.930 . S
H579 C518 0.961 . S
H580 C518 0.960 . S
H581 C518 0.958 . S
H582 C519 0.961 . S
H583 C519 0.960 . S
H584 C519 0.960 . S
H585 C521 0.980 . S
H586 C520 0.961 . S
H587 C520 0.961 . S
H588 C520 0.959 . S
H589 C523 0.932 . S
H590 C527 0.929 . S
H591 C528 0.961 . S
H592 C528 0.959 . S
H593 C528 0.959 . S
H594 C529 0.960 . S
H595 C529 0.962 . S
H596 C529 0.961 . S
H597 C531 0.929 . S
H598 C534 0.930 . S
H599 C535 0.929 . S
H600 C538 0.930 . S
H601 C541 0.929 . S
H602 C542 0.930 . S
H603 C546 0.962 . S
H604 C546 0.959 . S
H605 C546 0.958 . S
C606 C607 1.363 . S
C606 C612 1.379 . S
C606 N614 1.356 . S
C607 C606 1.363 . S
C607 C613 1.363 1_655 S
C608 C609 1.363 1_455 S
C608 C613 1.379 . S
C608 N615 1.356 . S
C609 C608 1.363 1_655 S
C609 C612 1.363 . S
N610 C612 1.356 . S
N610 H622 0.984 . S
N610 H623 0.985 . S
N611 C613 1.356 . S
N611 H616 0.984 . S
N611 H617 0.985 . S
C612 C606 1.379 . S
C612 C609 1.363 . S
C612 N610 1.356 . S
C613 C607 1.363 1_455 S
C613 C608 1.379 . S
C613 N611 1.356 . S
N614 C606 1.356 . S
N614 H620 0.984 . S
N614 H621 0.984 . S
N615 C608 1.356 . S
N615 H618 0.984 . S
N615 H619 0.985 . S
H616 N611 0.984 . S
H617 N611 0.985 . S
H618 N615 0.984 . S
H619 N615 0.985 . S
H620 N614 0.984 . S
H621 N614 0.984 . S
H622 N610 0.984 . S
H623 N610 0.985 . S
C624 C625 1.363 . S
C624 C630 1.379 . S
C624 N632 1.356 . S
C625 C624 1.363 . S
C625 C631 1.363 1_565 S
C626 C627 1.363 . S
C626 C631 1.379 . S
C626 N633 1.356 . S
C627 C626 1.363 . S
C627 C630 1.363 1_545 S
N628 C630 1.356 . S
N628 H640 0.984 . S
N628 H641 0.985 . S
N629 C631 1.356 . S
N629 H634 0.984 . S
N629 H635 0.985 . S
C630 C624 1.379 . S
C630 C627 1.363 1_565 S
C630 N628 1.356 . S
C631 C625 1.363 1_545 S
C631 C626 1.379 . S
C631 N629 1.356 . S
N632 C624 1.356 . S
N632 H638 0.984 . S
N632 H639 0.984 . S
N633 C626 1.356 . S
N633 H636 0.984 . S
N633 H637 0.985 . S
H634 N629 0.984 . S
H635 N629 0.985 . S
H636 N633 0.984 . S
H637 N633 0.985 . S
H638 N632 0.984 . S
H639 N632 0.984 . S
H640 N628 0.984 . S
H641 N628 0.985 . S
C642 C643 1.363 . S
C642 C648 1.379 . S
C642 N650 1.356 . S
C643 C642 1.363 . S
C643 C649 1.363 . S
C644 C645 1.363 . S
C644 C649 1.379 . S
C644 N651 1.356 . S
C645 C644 1.363 . S
C645 C648 1.363 . S
N646 C648 1.356 . S
N646 H658 0.984 . S
N646 H659 0.985 . S
N647 C649 1.356 . S
N647 H652 0.984 . S
N647 H653 0.985 . S
C648 C642 1.379 . S
C648 C645 1.363 . S
C648 N646 1.356 . S
C649 C643 1.363 . S
C649 C644 1.379 . S
C649 N647 1.356 . S
N650 C642 1.356 . S
N650 H656 0.984 . S
N650 H657 0.984 . S
N651 C644 1.356 . S
N651 H654 0.984 . S
N651 H655 0.985 . S
H652 N647 0.984 . S
H653 N647 0.985 . S
H654 N651 0.984 . S
H655 N651 0.985 . S
H656 N650 0.984 . S
H657 N650 0.984 . S
H658 N646 0.984 . S
H659 N646 0.985 . S
C660 C661 1.363 . S
C660 C666 1.379 . S
C660 N668 1.356 . S
C661 C660 1.363 . S
C661 C667 1.363 . S
C662 C663 1.363 . S
C662 C667 1.379 . S
C662 N669 1.356 . S
C663 C662 1.363 . S
C663 C666 1.363 . S
N664 C666 1.356 1_655 S
N664 H676 0.984 . S
N664 H677 0.985 . S
N665 C667 1.356 . S
N665 H670 0.984 . S
N665 H671 0.985 . S
C666 C660 1.379 . S
C666 C663 1.363 . S
C666 N664 1.356 1_455 S
C667 C661 1.363 . S
C667 C662 1.379 . S
C667 N665 1.356 . S
N668 C660 1.356 . S
N668 H674 0.984 1_455 S
N668 H675 0.984 . S
N669 C662 1.356 . S
N669 H672 0.984 . S
N669 H673 0.985 . S
H670 N665 0.984 . S
H671 N665 0.985 . S
H672 N669 0.984 . S
H673 N669 0.985 . S
H674 N668 0.984 1_655 S
H675 N668 0.984 . S
H676 N664 0.984 . S
H677 N664 0.985 . S
C678 C679 1.363 . S
C678 C684 1.379 . S
C678 N686 1.356 . S
C679 C678 1.363 . S
C679 C685 1.363 . S
C680 C681 1.363 . S
C680 C685 1.379 . S
C680 N687 1.356 1_545 S
C681 C680 1.363 . S
C681 C684 1.363 . S
N682 C684 1.356 . S
N682 H694 0.984 . S
N682 H695 0.985 . S
N683 C685 1.356 . S
N683 H688 0.984 . S
N683 H689 0.985 1_545 S
C684 C678 1.379 . S
C684 C681 1.363 . S
C684 N682 1.356 . S
C685 C679 1.363 . S
C685 C680 1.379 . S
C685 N683 1.356 . S
N686 C678 1.356 . S
N686 H692 0.984 . S
N686 H693 0.984 . S
N687 C680 1.356 1_565 S
N687 H690 0.984 . S
N687 H691 0.985 . S
H688 N683 0.984 . S
H689 N683 0.985 1_565 S
H690 N687 0.984 . S
H691 N687 0.985 . S
H692 N686 0.984 . S
H693 N686 0.984 . S
H694 N682 0.984 . S
H695 N682 0.985 . S
C696 C697 1.363 . S
C696 C702 1.379 . S
C696 N704 1.356 . S
C697 C696 1.363 . S
C697 C703 1.363 . S
C698 C699 1.363 . S
C698 C703 1.379 . S
C698 N705 1.356 . S
C699 C698 1.363 . S
C699 C702 1.363 . S
N700 C702 1.356 . S
N700 H712 0.984 . S
N700 H713 0.985 . S
N701 C703 1.356 . S
N701 H706 0.984 . S
N701 H707 0.985 . S
C702 C696 1.379 . S
C702 C699 1.363 . S
C702 N700 1.356 . S
C703 C697 1.363 . S
C703 C698 1.379 . S
C703 N701 1.356 . S
N704 C696 1.356 . S
N704 H710 0.984 . S
N704 H711 0.984 . S
N705 C698 1.356 . S
N705 H708 0.984 . S
N705 H709 0.985 . S
H706 N701 0.984 . S
H707 N701 0.985 . S
H708 N705 0.984 . S
H709 N705 0.985 . S
H710 N704 0.984 . S
H711 N704 0.984 . S
H712 N700 0.984 . S
H713 N700 0.985 . S
C714 C715 1.363 . S
C714 C720 1.379 . S
C714 N722 1.356 . S
C715 C714 1.363 . S
C715 C721 1.363 . S
C716 C717 1.363 . S
C716 C721 1.379 . S
C716 N723 1.356 1_545 S
C717 C716 1.363 . S
C717 C720 1.363 . S
N718 C720 1.356 . S
N718 H730 0.984 . S
N718 H731 0.985 . S
N719 C721 1.356 . S
N719 H724 0.984 . S
N719 H725 0.985 1_545 S
C720 C714 1.379 . S
C720 C717 1.363 . S
C720 N718 1.356 . S
C721 C715 1.363 . S
C721 C716 1.379 . S
C721 N719 1.356 . S
N722 C714 1.356 . S
N722 H728 0.984 . S
N722 H729 0.984 . S
N723 C716 1.356 1_565 S
N723 H726 0.984 . S
N723 H727 0.985 . S
H724 N719 0.984 . S
H725 N719 0.985 1_565 S
H726 N723 0.984 . S
H727 N723 0.985 . S
H728 N722 0.984 . S
H729 N722 0.984 . S
H730 N718 0.984 . S
H731 N718 0.985 . S
C732 C733 1.363 . S
C732 C738 1.379 . S
C732 N740 1.356 . S
C733 C732 1.363 . S
C733 C739 1.363 . S
C734 C735 1.363 . S
C734 C739 1.379 . S
C734 N741 1.356 . S
C735 C734 1.363 . S
C735 C738 1.363 . S
N736 C738 1.356 . S
N736 H748 0.984 . S
N736 H749 0.985 . S
N737 C739 1.356 1_554 S
N737 H742 0.984 . S
N737 H743 0.985 . S
C738 C732 1.379 . S
C738 C735 1.363 . S
C738 N736 1.356 . S
C739 C733 1.363 . S
C739 C734 1.379 . S
C739 N737 1.356 1_556 S
N740 C732 1.356 . S
N740 H746 0.984 . S
N740 H747 0.984 . S
N741 C734 1.356 . S
N741 H744 0.984 . S
N741 H745 0.985 . S
H742 N737 0.984 . S
H743 N737 0.985 . S
H744 N741 0.984 . S
H745 N741 0.985 . S
H746 N740 0.984 . S
H747 N740 0.984 . S
H748 N736 0.984 . S
H749 N736 0.985 . S
C750 C751 1.363 . S
C750 C756 1.379 . S
C750 N758 1.356 . S
C751 C750 1.363 . S
C751 C757 1.363 . S
C752 C753 1.360 1_655 S
C752 C757 1.382 . S
C752 N759 1.355 1_655 S
C753 C752 1.360 1_455 S
C753 C756 1.363 1_455 S
N754 C756 1.350 1_455 S
N754 H766 0.986 1_455 S
N754 H767 0.990 . S
N755 C757 1.356 . S
N755 H760 0.984 . S
N755 H761 0.985 . S
C756 C750 1.379 . S
C756 C753 1.363 1_655 S
C756 N754 1.350 1_655 S
C757 C751 1.363 . S
C757 C752 1.382 . S
C757 N755 1.356 . S
N758 C750 1.356 . S
N758 H764 0.984 . S
N758 H765 0.984 . S
N759 C752 1.355 1_455 S
N759 H762 0.984 . S
N759 H763 0.985 . S
H760 N755 0.984 . S
H761 N755 0.985 . S
H762 N759 0.984 . S
H763 N759 0.985 . S
H764 N758 0.984 . S
H765 N758 0.984 . S
H766 N754 0.986 1_655 S
H767 N754 0.990 . S
C768 C769 1.363 . S
C768 C774 1.379 . S
C768 N776 1.356 . S
C769 C768 1.363 . S
C769 C775 1.363 1_565 S
C770 C771 1.363 . S
C770 C775 1.379 . S
C770 N777 1.356 . S
C771 C770 1.363 . S
C771 C774 1.363 1_545 S
N772 C774 1.356 . S
N772 H784 0.984 . S
N772 H785 0.985 . S
N773 C775 1.356 . S
N773 H778 0.984 . S
N773 H779 0.985 . S
C774 C768 1.379 . S
C774 C771 1.363 1_565 S
C774 N772 1.356 . S
C775 C769 1.363 1_545 S
C775 C770 1.379 . S
C775 N773 1.356 . S
N776 C768 1.356 . S
N776 H782 0.984 . S
N776 H783 0.984 . S
N777 C770 1.356 . S
N777 H780 0.984 . S
N777 H781 0.985 . S
H778 N773 0.984 . S
H779 N773 0.985 . S
H780 N777 0.984 . S
H781 N777 0.985 . S
H782 N776 0.984 . S
H783 N776 0.984 . S
H784 N772 0.984 . S
H785 N772 0.985 . S
C786 C787 1.363 . S
C786 C792 1.379 . S
C786 N794 1.356 . S
C787 C786 1.363 . S
C787 C793 1.363 . S
C788 C789 1.363 . S
C788 C793 1.379 . S
C788 N795 1.356 . S
C789 C788 1.363 . S
C789 C792 1.363 . S
N790 C792 1.356 . S
N790 H802 0.984 . S
N790 H803 0.985 . S
N791 C793 1.356 1_554 S
N791 H796 0.984 . S
N791 H797 0.985 . S
C792 C786 1.379 . S
C792 C789 1.363 . S
C792 N790 1.356 . S
C793 C787 1.363 . S
C793 C788 1.379 . S
C793 N791 1.356 1_556 S
N794 C786 1.356 . S
N794 H800 0.984 . S
N794 H801 0.984 . S
N795 C788 1.356 . S
N795 H798 0.984 . S
N795 H799 0.985 . S
H796 N791 0.984 . S
H797 N791 0.985 . S
H798 N795 0.984 . S
H799 N795 0.985 . S
H800 N794 0.984 . S
H801 N794 0.984 . S
H802 N790 0.984 . S
H803 N790 0.985 . S
C804 C805 1.363 . S
C804 C810 1.379 . S
C804 N812 1.356 . S
C805 C804 1.363 . S
C805 C811 1.363 . S
C806 C807 1.363 . S
C806 C811 1.379 . S
C806 N813 1.356 . S
C807 C806 1.363 . S
C807 C810 1.363 . S
N808 C810 1.356 . S
N808 H820 0.984 . S
N808 H821 0.985 . S
N809 C811 1.356 . S
N809 H814 0.984 . S
N809 H815 0.985 . S
C810 C804 1.379 . S
C810 C807 1.363 . S
C810 N808 1.356 . S
C811 C805 1.363 . S
C811 C806 1.379 . S
C811 N809 1.356 . S
N812 C804 1.356 . S
N812 H818 0.984 . S
N812 H819 0.984 . S
N813 C806 1.356 . S
N813 H816 0.982 1_455 S
N813 H817 0.985 1_455 S
H814 N809 0.984 . S
H815 N809 0.985 . S
H816 N813 0.982 1_655 S
H817 N813 0.985 1_655 S
H818 N812 0.984 . S
H819 N812 0.984 . S
H820 N808 0.984 . S
H821 N808 0.985 . S
C609 C319 1.303 1_655 S
C607 C29 1.546 . S
C625 C137 1.547 . S
C627 C433 1.305 . S
C643 C225 1.318 . S
C645 C493 0.987 . S
C661 C49 1.401 . S
C663 C293 1.239 . S
C681 C407 1.237 . S
C679 C117 1.400 . S
C697 C205 1.480 . S
C699 C503 0.755 . S
C717 C389 0.756 . S
C715 C233 1.478 . S
C733 C57 1.398 1_556 S
C735 C521 1.233 . S
C753 C265 0.983 1_455 S
C751 C108 1.309 . S
C771 C379 0.987 . S
C769 C196 1.320 . S
C789 C547 1.309 . S
C787 C20 1.549 1_556 S
C805 C145 1.488 . S
C807 C275 0.755 . S
