# Generated by pormake.
# Topology anh, (6,3)-cn, num edge types: 1
# Building blocks:
#     Node 0, Type 0, BuildingBlock: VOLQOD_clean_sbu_1, # of connection points: 6
#     Node 1, Type 0, BuildingBlock: VOLQOD_clean_sbu_1, # of connection points: 6
#     Node 2, Type 0, BuildingBlock: VOLQOD_clean_sbu_1, # of connection points: 6
#     Node 3, Type 1, BuildingBlock: BETDAH_clean_linker_0, # of connection points: 3
#     Node 4, Type 1, BuildingBlock: BETDAH_clean_linker_0, # of connection points: 3
#     Node 5, Type 1, BuildingBlock: BETDAH_clean_linker_0, # of connection points: 3
#     Node 6, Type 1, BuildingBlock: BETDAH_clean_linker_0, # of connection points: 3
#     Node 7, Type 1, BuildingBlock: BETDAH_clean_linker_0, # of connection points: 3
#     Node 8, Type 1, BuildingBlock: BETDAH_clean_linker_0, # of connection points: 3
#     Edge 9, Type (0, 1), BuildingBlock: XIVTED_clean_linker_0, # of connection points: 2
#     Edge 10, Type (0, 1), BuildingBlock: XIVTED_clean_linker_0, # of connection points: 2
#     Edge 11, Type (0, 1), BuildingBlock: XIVTED_clean_linker_0, # of connection points: 2
#     Edge 12, Type (0, 1), BuildingBlock: XIVTED_clean_linker_0, # of connection points: 2
#     Edge 13, Type (0, 1), BuildingBlock: XIVTED_clean_linker_0, # of connection points: 2
#     Edge 14, Type (0, 1), BuildingBlock: XIVTED_clean_linker_0, # of connection points: 2
#     Edge 15, Type (0, 1), BuildingBlock: XIVTED_clean_linker_0, # of connection points: 2
#     Edge 16, Type (0, 1), BuildingBlock: XIVTED_clean_linker_0, # of connection points: 2
#     Edge 17, Type (0, 1), BuildingBlock: XIVTED_clean_linker_0, # of connection points: 2
#     Edge 18, Type (0, 1), BuildingBlock: XIVTED_clean_linker_0, # of connection points: 2
#     Edge 19, Type (0, 1), BuildingBlock: XIVTED_clean_linker_0, # of connection points: 2
#     Edge 20, Type (0, 1), BuildingBlock: XIVTED_clean_linker_0, # of connection points: 2
#     Edge 21, Type (0, 1), BuildingBlock: XIVTED_clean_linker_0, # of connection points: 2
#     Edge 22, Type (0, 1), BuildingBlock: XIVTED_clean_linker_0, # of connection points: 2
#     Edge 23, Type (0, 1), BuildingBlock: XIVTED_clean_linker_0, # of connection points: 2
#     Edge 24, Type (0, 1), BuildingBlock: XIVTED_clean_linker_0, # of connection points: 2
#     Edge 25, Type (0, 1), BuildingBlock: XIVTED_clean_linker_0, # of connection points: 2
#     Edge 26, Type (0, 1), BuildingBlock: XIVTED_clean_linker_0, # of connection points: 2
# Relax obj value: 0.158
# Max RMSD: 0.216
# Mean RMSD: 0.136
data_MOF--net-anh--node1-VOLQOD_clean_sbu_1--node2-BETDAH_clean_linker_0--edge1-XIVTED_clean_linker_0
_symmetry_space_group_name_H-M    P1
_symmetry_Int_Tables_number       1
_symmetry_cell_setting            triclinic
loop_
_symmetry_equiv_pos_as_xyz
'x, y, z'
_cell_length_a     29.676891
_cell_length_b     29.530248
_cell_length_c     56.541685
_cell_angle_alpha  92.397448
_cell_angle_beta   92.231708
_cell_angle_gamma 120.28405
loop_
_atom_site_label
_atom_site_type_symbol
_atom_site_fract_x
_atom_site_fract_y
_atom_site_fract_z
_atom_type_partial_charge
O0 O -0.00146 0.5462 0.21603 0.0
Zn1 Zn 0.00292 0.56296 0.18163 0.0
O2 O 0.01257 0.51294 0.16201 0.0
Zn3 Zn 0.95239 0.47011 0.14018 0.0
Zn4 Zn 0.02377 0.46751 0.18244 0.0
Zn5 Zn 0.07084 0.55104 0.14269 0.0
O6 O 0.97155 0.46674 0.1065 0.0
O7 O 0.04969 0.5389 0.10769 0.0
O8 O 0.93904 0.56473 0.16939 0.0
O9 O 0.9087 0.50363 0.13923 0.0
O10 O 0.9091 0.39702 0.15089 0.0
O11 O 0.96113 0.39418 0.17933 0.0
O12 O 0.08809 0.46487 0.17406 0.0
O13 O 0.06537 0.63603 0.18087 0.0
O14 O 0.12005 0.52465 0.14734 0.0
O15 O 0.11039 0.62821 0.15215 0.0
C16 C 0.01435 0.52002 0.22755 0.0
C17 C 0.0105 0.50053 0.09602 0.0
C18 C 0.91818 0.37234 0.16656 0.0
C19 C 0.90681 0.53956 0.15161 0.0
C20 C 0.12264 0.49087 0.15968 0.0
C21 C 0.10424 0.65611 0.16801 0.0
O22 O 0.0297 0.49178 0.21692 0.0
O23 O 0.51678 0.08928 0.44796 0.0
Zn24 Zn 0.50092 0.08828 0.48223 0.0
O25 O 0.54986 0.07841 0.50232 0.0
Zn26 Zn 0.59033 0.13867 0.52473 0.0
Zn27 Zn 0.59717 0.06917 0.48229 0.0
Zn28 Zn 0.51151 0.01796 0.52083 0.0
O29 O 0.58974 0.11806 0.55825 0.0
O30 O 0.52087 0.03728 0.55609 0.0
O31 O 0.50239 0.15539 0.49246 0.0
O32 O 0.5591 0.18476 0.52421 0.0
O33 O 0.6649 0.18186 0.51593 0.0
O34 O 0.66958 0.13176 0.48692 0.0
O35 O 0.60044 0.00502 0.49036 0.0
O36 O 0.4278 0.0267 0.48314 0.0
O37 O 0.53982 0.96962 0.51643 0.0
O38 O 0.43519 0.97796 0.5102 0.0
C39 C 0.54575 0.07685 0.4367 0.0
C40 C 0.55708 0.07747 0.56822 0.0
C41 C 0.69068 0.1737 0.50053 0.0
C42 C 0.52628 0.18803 0.5103 0.0
C43 C 0.57493 0.96922 0.50433 0.0
C44 C 0.40773 0.98599 0.49495 0.0
O45 O 0.57645 0.06494 0.44748 0.0
O46 O 0.50811 0.57074 0.78031 0.0
Zn47 Zn 0.48563 0.54364 0.81263 0.0
O48 O 0.53789 0.58966 0.83789 0.0
Zn49 Zn 0.51209 0.62636 0.85749 0.0
Zn50 Zn 0.60143 0.63982 0.82376 0.0
Zn51 Zn 0.55268 0.54764 0.85851 0.0
O52 O 0.5147 0.61409 0.89259 0.0
O53 O 0.52512 0.54476 0.89032 0.0
O54 O 0.41542 0.53594 0.81868 0.0
O55 O 0.43596 0.59659 0.84828 0.0
O56 O 0.551 0.70385 0.85249 0.0
O57 O 0.61569 0.71349 0.83073 0.0
O58 O 0.66347 0.63383 0.8353 0.0
O59 O 0.4784 0.47175 0.81118 0.0
O60 O 0.62988 0.5769 0.86314 0.0
O61 O 0.5227 0.47424 0.84422 0.0
C62 C 0.55325 0.6023 0.77342 0.0
C63 C 0.51514 0.57591 0.9021 0.0
C64 C 0.5917 0.73277 0.84163 0.0
C65 C 0.4024 0.56054 0.83341 0.0
C66 C 0.66857 0.60865 0.85195 0.0
C67 C 0.49502 0.44991 0.82522 0.0
O68 O 0.59263 0.62839 0.78823 0.0
H69 H 0.42366 0.98887 0.25734 0.0
H70 H 0.58436 0.02747 0.25594 0.0
H71 H 0.47527 0.93625 0.19769 0.0
C72 C 0.45441 0.98667 0.24864 0.0
C73 C 0.44258 0.95883 0.22636 0.0
C74 C 0.50476 0.00972 0.26021 0.0
C75 C 0.54518 0.01035 0.24768 0.0
C76 C 0.53444 0.98531 0.22481 0.0
C77 C 0.48319 0.95828 0.21464 0.0
N78 N 0.57428 0.98416 0.21234 0.0
C79 C 0.61948 0.03018 0.20798 0.0
H80 H 0.57051 0.51386 0.59938 0.0
H81 H 0.66798 0.68138 0.59722 0.0
H82 H 0.65101 0.58064 0.53681 0.0
C83 C 0.59499 0.54762 0.58963 0.0
C84 C 0.60665 0.54021 0.56639 0.0
C85 C 0.61655 0.59826 0.60095 0.0
C86 C 0.65091 0.64199 0.58886 0.0
C87 C 0.66387 0.63497 0.56594 0.0
C88 C 0.64164 0.58457 0.55481 0.0
N89 N 0.69918 0.67838 0.55372 0.0
C90 C 0.68827 0.71748 0.54876 0.0
H91 H 0.93037 0.52093 0.92509 0.0
H92 H 0.00076 0.42866 0.90762 0.0
H93 H 0.92746 0.46906 0.85225 0.0
C94 C 0.94106 0.50133 0.91174 0.0
C95 C 0.9258 0.49928 0.88765 0.0
C96 C 0.96818 0.47623 0.91909 0.0
C97 C 0.98002 0.44838 0.90216 0.0
C98 C 0.96465 0.44562 0.8781 0.0
C99 C 0.93772 0.47081 0.87099 0.0
N100 N 0.97584 0.41751 0.86073 0.0
C101 C 0.02676 0.42932 0.85802 0.0
H102 H 0.09851 0.65306 0.40075 0.0
H103 H 0.04264 0.49147 0.41467 0.0
H104 H 0.13491 0.61383 0.4686 0.0
C105 C 0.09481 0.62393 0.41276 0.0
C106 C 0.11851 0.64029 0.43594 0.0
C107 C 0.06827 0.57043 0.40464 0.0
C108 C 0.06334 0.53289 0.42048 0.0
C109 C 0.08708 0.54892 0.4436 0.0
C110 C 0.11524 0.60226 0.45099 0.0
N111 N 0.08511 0.51227 0.45946 0.0
C112 C 0.03874 0.46679 0.46305 0.0
H113 H 0.52785 0.14573 0.73857 0.0
H114 H 0.63358 0.09078 0.75637 0.0
H115 H 0.6085 0.18492 0.80797 0.0
C116 C 0.55404 0.14269 0.75144 0.0
C117 C 0.56386 0.16788 0.77426 0.0
C118 C 0.5797 0.11566 0.74468 0.0
C119 C 0.61346 0.11142 0.7614 0.0
C120 C 0.62285 0.1357 0.78438 0.0
C121 C 0.59903 0.16462 0.79049 0.0
N122 N 0.65793 0.13354 0.80135 0.0
C123 C 0.65561 0.08664 0.80587 0.0
H124 H 0.59331 0.56757 0.07103 0.0
H125 H 0.43198 0.45246 0.07859 0.0
H126 H 0.55111 0.46663 0.12887 0.0
C127 C 0.56356 0.53729 0.0809 0.0
C128 C 0.5786 0.52126 0.10129 0.0
C129 C 0.51085 0.51227 0.07234 0.0
C130 C 0.47275 0.47233 0.08508 0.0
C131 C 0.48748 0.45662 0.10572 0.0
C132 C 0.54019 0.48052 0.11346 0.0
N133 N 0.45 0.4162 0.11876 0.0
C134 C 0.40342 0.41402 0.12314 0.0
H135 H 0.2073 0.54615 0.13417 0.0
H136 H 0.32595 0.3586 0.15205 0.0
H137 H 0.13593 0.4118 0.17651 0.0
H138 H 0.38459 0.486 0.10591 0.0
H139 H 0.25665 0.37713 0.16232 0.0
H140 H 0.27455 0.5257 0.12536 0.0
C141 C 0.20582 0.51234 0.14172 0.0
C142 C 0.16563 0.48043 0.156 0.0
C143 C 0.28448 0.40075 0.14984 0.0
C144 C 0.24287 0.45652 0.14579 0.0
C145 C 0.32364 0.39004 0.14394 0.0
C146 C 0.36007 0.42069 0.12803 0.0
C147 C 0.2826 0.44257 0.13978 0.0
C148 C 0.35657 0.46134 0.1181 0.0
C149 C 0.24431 0.50059 0.13661 0.0
C150 C 0.16617 0.43742 0.1654 0.0
N151 N 0.31849 0.47121 0.12418 0.0
N152 N 0.20417 0.42653 0.16003 0.0
H153 H 0.74928 0.26975 0.52526 0.0
H154 H 0.98686 0.36957 0.44048 0.0
H155 H 0.75595 0.17241 0.4679 0.0
H156 H 0.98147 0.46467 0.49892 0.0
H157 H 0.90339 0.29538 0.45101 0.0
H158 H 0.83614 0.34022 0.51702 0.0
C159 C 0.76911 0.26299 0.51105 0.0
C160 C 0.74507 0.21512 0.49718 0.0
C161 C 0.9205 0.33238 0.4616 0.0
C162 C 0.84445 0.29586 0.48753 0.0
C163 C 0.9679 0.37451 0.45556 0.0
C164 C 0.99028 0.42264 0.46892 0.0
C165 C 0.8957 0.33895 0.48108 0.0
C166 C 0.96489 0.42778 0.48826 0.0
C167 C 0.81871 0.30332 0.50632 0.0
C168 C 0.7728 0.20868 0.47902 0.0
N169 N 0.91875 0.38639 0.49377 0.0
N170 N 0.82086 0.24869 0.47465 0.0
H171 H 0.67152 0.80511 0.81693 0.0
H172 H 0.5911 0.02436 0.83722 0.0
H173 H 0.54933 0.7882 0.86123 0.0
H174 H 0.70706 0.03862 0.78984 0.0
H175 H 0.58021 0.94048 0.84867 0.0
H176 H 0.69102 0.89393 0.8097 0.0
C177 C 0.64915 0.82021 0.82538 0.0
C178 C 0.60838 0.78883 0.83958 0.0
C179 C 0.60817 0.96188 0.83582 0.0
C180 C 0.63032 0.89049 0.83116 0.0
C181 C 0.61426 0.00956 0.82929 0.0
C182 C 0.64976 0.03764 0.81259 0.0
C183 C 0.63788 0.94236 0.82547 0.0
C184 C 0.67915 0.01754 0.80277 0.0
C185 C 0.66021 0.87092 0.82114 0.0
C186 C 0.58088 0.81071 0.85005 0.0
N187 N 0.67247 0.97084 0.80932 0.0
N188 N 0.59213 0.86001 0.8455 0.0
H189 H 0.86048 0.58072 0.17955 0.0
H190 H 0.65745 0.54102 0.0726 0.0
H191 H 0.86221 0.52789 0.10742 0.0
H192 H 0.62689 0.5493 0.14623 0.0
H193 H 0.74582 0.56211 0.08483 0.0
H194 H 0.78704 0.59274 0.16712 0.0
C195 C 0.84585 0.57235 0.16109 0.0
C196 C 0.86653 0.55233 0.14454 0.0
C197 C 0.72003 0.56004 0.09832 0.0
C198 C 0.78385 0.56657 0.13028 0.0
C199 C 0.66968 0.54846 0.09134 0.0
C200 C 0.63454 0.54268 0.10845 0.0
C201 C 0.73526 0.5655 0.12257 0.0
C202 C 0.6525 0.55227 0.1325 0.0
C203 C 0.80409 0.57915 0.15404 0.0
C204 C 0.84658 0.54235 0.12083 0.0
N205 N 0.70153 0.56254 0.1389 0.0
N206 N 0.80619 0.54931 0.11445 0.0
H207 H 0.3427 0.90647 0.5217 0.0
H208 H 0.18232 0.72382 0.41027 0.0
H209 H 0.35013 0.96789 0.4531 0.0
H210 H 0.12649 0.68656 0.48031 0.0
H211 H 0.24145 0.81447 0.42539 0.0
H212 H 0.26116 0.82693 0.5075 0.0
C213 C 0.32661 0.90364 0.5038 0.0
C214 C 0.35352 0.94349 0.48846 0.0
C215 C 0.2156 0.78662 0.43735 0.0
C216 C 0.26106 0.85235 0.47199 0.0
C217 C 0.18157 0.73474 0.42871 0.0
C218 C 0.14975 0.69702 0.44409 0.0
C219 C 0.21864 0.80073 0.46162 0.0
C220 C 0.15137 0.7138 0.46792 0.0
C221 C 0.28005 0.85831 0.49572 0.0
C222 C 0.33076 0.938 0.46549 0.0
N223 N 0.18596 0.76417 0.47605 0.0
N224 N 0.2864 0.89267 0.45776 0.0
H225 H 0.50357 0.38157 0.85358 0.0
H226 H 0.54622 0.23197 0.74622 0.0
H227 H 0.47171 0.40046 0.78064 0.0
H228 H 0.52799 0.17851 0.81706 0.0
H229 H 0.51473 0.29076 0.75814 0.0
H230 H 0.50799 0.30407 0.84067 0.0
C231 C 0.49665 0.36889 0.83488 0.0
C232 C 0.48787 0.39785 0.81813 0.0
C233 C 0.51694 0.26564 0.77099 0.0
C234 C 0.49377 0.30975 0.8032 0.0
C235 C 0.53474 0.23179 0.76417 0.0
C236 C 0.54025 0.20037 0.7807 0.0
C237 C 0.50527 0.26882 0.79461 0.0
C238 C 0.52558 0.20282 0.80384 0.0
C239 C 0.49913 0.3246 0.82751 0.0
C240 C 0.47877 0.3794 0.79415 0.0
N241 N 0.50941 0.23694 0.81018 0.0
N242 N 0.4829 0.33703 0.78734 0.0
H243 H 0.65462 0.9602 0.48594 0.0
H244 H 0.60658 0.72219 0.56452 0.0
H245 H 0.52774 0.88592 0.53195 0.0
H246 H 0.73273 0.79374 0.51831 0.0
H247 H 0.57611 0.78128 0.55204 0.0
H248 H 0.6821 0.89769 0.49614 0.0
C249 C 0.63223 0.93049 0.49799 0.0
C250 C 0.58899 0.92857 0.50822 0.0
C251 C 0.61054 0.78428 0.54463 0.0
C252 C 0.62053 0.85733 0.52012 0.0
C253 C 0.62793 0.75081 0.55184 0.0
C254 C 0.67219 0.75398 0.54248 0.0
C255 C 0.63776 0.8209 0.52792 0.0
C256 C 0.69856 0.79086 0.52597 0.0
C257 C 0.64808 0.89495 0.50388 0.0
C258 C 0.5615 0.88918 0.52373 0.0
N259 N 0.68094 0.82312 0.51917 0.0
N260 N 0.57791 0.85536 0.52929 0.0
H261 H 0.71717 0.61548 0.89484 0.0
H262 H 0.85121 0.46914 0.85035 0.0
H263 H 0.73086 0.60245 0.81956 0.0
H264 H 0.93221 0.5896 0.90764 0.0
H265 H 0.80011 0.50986 0.83988 0.0
H266 H 0.79017 0.5998 0.90208 0.0
C267 C 0.73645 0.61052 0.8799 0.0
C268 C 0.71847 0.61043 0.85661 0.0
C269 C 0.82962 0.52753 0.85456 0.0
C270 C 0.79982 0.5906 0.86468 0.0
C271 C 0.85912 0.50449 0.86057 0.0
C272 C 0.89625 0.52546 0.88013 0.0
C273 C 0.83601 0.57087 0.86856 0.0
C274 C 0.90314 0.57078 0.8929 0.0
C275 C 0.77788 0.60163 0.88402 0.0
C276 C 0.74413 0.60328 0.83777 0.0
N277 N 0.87257 0.59136 0.88719 0.0
N278 N 0.78281 0.59227 0.84219 0.0
H279 H 0.18485 0.71729 0.14085 0.0
H280 H 0.35488 0.90384 0.25088 0.0
H281 H 0.12025 0.72037 0.20762 0.0
H282 H 0.40353 0.93726 0.17952 0.0
H283 H 0.26682 0.84136 0.23475 0.0
H284 H 0.26264 0.80162 0.15346 0.0
C285 C 0.18662 0.73611 0.15801 0.0
C286 C 0.14638 0.71127 0.17339 0.0
C287 C 0.29651 0.86296 0.22259 0.0
C288 C 0.23555 0.80739 0.188 0.0
C289 C 0.34704 0.89912 0.2318 0.0
C290 C 0.38728 0.92586 0.21658 0.0
C291 C 0.28605 0.85238 0.19796 0.0
C292 C 0.37428 0.9167 0.19198 0.0
C293 C 0.23102 0.78434 0.16516 0.0
C294 C 0.15052 0.73779 0.19527 0.0
N295 N 0.32499 0.88008 0.18343 0.0
N296 N 0.1948 0.78394 0.20212 0.0
H297 H 0.5426 0.26229 0.47965 0.0
H298 H 0.51042 0.4523 0.57189 0.0
H299 H 0.49795 0.21773 0.55038 0.0
H300 H 0.64986 0.50405 0.53361 0.0
H301 H 0.47787 0.36267 0.55507 0.0
H302 H 0.55197 0.34856 0.49011 0.0
C303 C 0.53301 0.27013 0.49707 0.0
C304 C 0.51963 0.2335 0.51427 0.0
C305 C 0.51513 0.39422 0.55017 0.0
C306 C 0.52954 0.3305 0.52608 0.0
C307 C 0.53425 0.44529 0.55997 0.0
C308 C 0.58365 0.4863 0.55458 0.0
C309 C 0.54473 0.38438 0.53432 0.0
C310 C 0.61142 0.47448 0.5382 0.0
C311 C 0.53865 0.31914 0.50302 0.0
C312 C 0.50841 0.24536 0.53674 0.0
N313 N 0.59158 0.42461 0.52869 0.0
N314 N 0.51379 0.29315 0.54209 0.0
H315 H 0.36133 0.60747 0.86074 0.0
H316 H 0.06305 0.3845 0.82739 0.0
H317 H 0.31613 0.47598 0.80987 0.0
H318 H 0.11134 0.51343 0.87979 0.0
H319 H 0.15518 0.41799 0.81971 0.0
H320 H 0.2695 0.57541 0.86634 0.0
C321 C 0.3321 0.57202 0.85058 0.0
C322 C 0.34661 0.54425 0.83488 0.0
C323 C 0.14569 0.4389 0.83294 0.0
C324 C 0.24096 0.50697 0.84143 0.0
C325 C 0.09334 0.41968 0.83736 0.0
C326 C 0.08043 0.44633 0.85431 0.0
C327 C 0.18492 0.48511 0.84555 0.0
C328 C 0.12032 0.49185 0.86668 0.0
C329 C 0.27955 0.55362 0.85387 0.0
C330 C 0.30681 0.49867 0.82217 0.0
N331 N 0.17093 0.50992 0.86205 0.0
N332 N 0.25576 0.48127 0.82582 0.0
H333 H 0.92036 0.30936 0.2004 0.0
H334 H 0.62077 0.08518 0.17125 0.0
H335 H 0.82084 0.31293 0.14358 0.0
H336 H 0.71732 0.0829 0.22952 0.0
H337 H 0.69534 0.16681 0.15967 0.0
H338 H 0.84855 0.22409 0.20993 0.0
C339 C 0.88359 0.29209 0.18978 0.0
C340 C 0.87663 0.3186 0.17121 0.0
C341 C 0.70043 0.14855 0.17496 0.0
C342 C 0.79411 0.22101 0.18217 0.0
C343 C 0.65794 0.10213 0.18154 0.0
C344 C 0.66348 0.078 0.20129 0.0
C345 C 0.74867 0.17079 0.18831 0.0
C346 C 0.71197 0.10085 0.21416 0.0
C347 C 0.84254 0.24342 0.1953 0.0
C348 C 0.82805 0.29414 0.1581 0.0
N349 N 0.7529 0.14622 0.20746 0.0
N350 N 0.78863 0.2469 0.16391 0.0
H351 H 0.07304 0.5758 0.06685 0.0
H352 H 0.94512 0.39393 0.94643 0.0
H353 H 0.94652 0.41482 0.06542 0.0
H354 H 0.02198 0.56308 0.94979 0.0
H355 H 0.95997 0.39826 0.98977 0.0
H356 H 0.06875 0.5688 0.02348 0.0
C357 C 0.04459 0.53885 0.05744 0.0
C358 C 0.00979 0.49593 0.0698 0.0
C359 C 0.97395 0.43438 0.98095 0.0
C360 C 0.00509 0.48765 0.02018 0.0
C361 C 0.96587 0.43194 0.95629 0.0
C362 C 0.98223 0.47823 0.94467 0.0
C363 C -0.00075 0.48348 0.99392 0.0
C364 C 0.00851 0.52652 0.95819 0.0
C365 C 0.04211 0.53498 0.0327 0.0
C366 C 0.97377 0.44905 0.05663 0.0
N367 N 0.0162 0.52793 0.9821 0.0
N368 N 0.97236 0.44613 0.03251 0.0
H369 H 0.46291 0.0604 0.40746 0.0
H370 H 0.59496 0.08825 0.28547 0.0
H371 H 0.61997 0.08749 0.40637 0.0
H372 H 0.434 0.97086 0.29453 0.0
H373 H 0.60774 0.10995 0.32847 0.0
H374 H 0.455 0.05086 0.36406 0.0
C375 C 0.49593 0.06492 0.39809 0.0
C376 C 0.54201 0.07427 0.4105 0.0
C377 C 0.56964 0.0799 0.32076 0.0
C378 C 0.53338 0.06425 0.36099 0.0
C379 C 0.56222 0.06718 0.29624 0.0
C380 C 0.51314 0.02765 0.28597 0.0
C381 C 0.52746 0.05385 0.33498 0.0
C382 C 0.47217 0.00265 0.30112 0.0
C383 C 0.4913 0.05934 0.37338 0.0
C384 C 0.58357 0.07969 0.39744 0.0
N385 N 0.48023 0.01636 0.32474 0.0
N386 N 0.57835 0.0747 0.3733 0.0
H387 H 0.64289 0.66822 0.75238 0.0
H388 H 0.52181 0.54694 0.62058 0.0
H389 H 0.4814 0.54817 0.73574 0.0
H390 H 0.68399 0.6638 0.63783 0.0
H391 H 0.50447 0.55202 0.66221 0.0
H392 H 0.65669 0.67235 0.71014 0.0
C393 C 0.61018 0.64287 0.73986 0.0
C394 C 0.56094 0.60748 0.74771 0.0
C395 C 0.54378 0.57682 0.65687 0.0
C396 C 0.57667 0.61201 0.69914 0.0
C397 C 0.55376 0.57381 0.63312 0.0
C398 C 0.60455 0.60466 0.62572 0.0
C399 C 0.5849 0.61086 0.67344 0.0
C400 C 0.6442 0.6395 0.64268 0.0
C401 C 0.61815 0.64529 0.71569 0.0
C402 C 0.52007 0.5759 0.73056 0.0
N403 N 0.63361 0.64135 0.66575 0.0
N404 N 0.52894 0.57869 0.7071 0.0
H405 H 0.64203 0.14116 0.59867 0.0
H406 H 0.49073 0.05593 0.71561 0.0
H407 H 0.48242 0.01296 0.59731 0.0
H408 H 0.65898 0.13626 0.71626 0.0
H409 H 0.48549 0.04005 0.67239 0.0
H410 H 0.64813 0.14194 0.6419 0.0
C411 C 0.60826 0.11312 0.60746 0.0
C412 C 0.56152 0.07715 0.59436 0.0
C413 C 0.5235 0.06037 0.68205 0.0
C414 C 0.56824 0.078 0.64388 0.0
C415 C 0.52649 0.06941 0.70665 0.0
C416 C 0.57535 0.09749 0.71943 0.0
C417 C 0.56975 0.08054 0.67015 0.0
C418 C 0.62054 0.11413 0.70706 0.0
C419 C 0.6119 0.11336 0.63214 0.0
C420 C 0.51918 0.0414 0.60671 0.0
N421 N 0.61669 0.10612 0.68304 0.0
N422 N 0.52334 0.04312 0.63082 0.0
H423 H 0.47597 0.4831 0.92261 0.0
H424 H 0.54449 0.60838 0.05432 0.0
H425 H 0.52803 0.64701 0.93865 0.0
H426 H 0.44808 0.44174 0.03611 0.0
H427 H 0.53582 0.62467 0.01269 0.0
H428 H 0.46311 0.46788 0.96441 0.0
C429 C 0.48451 0.51593 0.93497 0.0
C430 C 0.50367 0.56654 0.9272 0.0
C431 C 0.51572 0.58463 0.01791 0.0
C432 C 0.4893 0.54941 0.97528 0.0
C433 C 0.52073 0.57531 0.04163 0.0
C434 C 0.49737 0.52359 0.04862 0.0
C435 C 0.48784 0.54187 0.00106 0.0
C436 C 0.46662 0.48221 0.03154 0.0
C437 C 0.47682 0.50713 0.95884 0.0
C438 C 0.51336 0.60743 0.94395 0.0
N439 N 0.46347 0.49221 0.0085 0.0
N440 N 0.50685 0.59815 0.96733 0.0
H441 H 0.98695 0.57746 0.25687 0.0
H442 H 0.07691 0.49868 0.37586 0.0
H443 H 0.04444 0.46918 0.25829 0.0
H444 H 0.02001 0.6074 0.37507 0.0
H445 H 0.05734 0.48122 0.33306 0.0
H446 H -0.00761 0.58394 0.30022 0.0
C447 C 0.00054 0.55488 0.26625 0.0
C448 C 0.0156 0.52298 0.25384 0.0
C449 C 0.0487 0.50859 0.34225 0.0
C450 C 0.02185 0.53024 0.30356 0.0
C451 C 0.05942 0.51822 0.36677 0.0
C452 C 0.05037 0.55481 0.37913 0.0
C453 C 0.02892 0.53583 0.32988 0.0
C454 C 0.02845 0.57954 0.36624 0.0
C455 C 0.00357 0.55858 0.29104 0.0
C456 C 0.03269 0.49451 0.26703 0.0
N457 N 0.01883 0.56989 0.34231 0.0
N458 N 0.03555 0.49901 0.29113 0.0
loop_
_geom_bond_atom_site_label_1
_geom_bond_atom_site_label_2
_geom_bond_distance
_geom_bond_site_symmetry_2
_ccdc_geom_bond_type
O0 Zn1 1.953 . S
O0 C16 1.225 . S
Zn1 O0 1.953 . S
Zn1 O2 1.949 . S
Zn1 O8 1.919 1_455 S
Zn1 O13 1.924 . S
O2 Zn1 1.949 . S
O2 Zn3 1.923 1_455 S
O2 Zn4 1.950 . S
O2 Zn5 1.945 . S
Zn3 O2 1.923 1_655 S
Zn3 O6 1.933 1_655 S
Zn3 O9 1.941 . S
Zn3 O10 1.965 . S
Zn4 O2 1.950 . S
Zn4 O11 1.938 1_455 S
Zn4 O12 1.906 . S
Zn4 O22 1.953 . S
Zn5 O2 1.945 . S
Zn5 O7 1.932 . S
Zn5 O14 1.977 . S
Zn5 O15 1.910 . S
O6 Zn3 1.933 1_455 S
O6 C17 1.226 . S
O7 Zn5 1.932 . S
O7 C17 1.307 . S
O8 Zn1 1.919 1_655 S
O8 C19 1.253 . S
O9 Zn3 1.941 . S
O9 C19 1.283 . S
O10 Zn3 1.965 . S
O10 C18 1.303 . S
O11 Zn4 1.938 1_655 S
O11 C18 1.247 . S
O12 Zn4 1.906 . S
O12 C20 1.304 . S
O13 Zn1 1.924 . S
O13 C21 1.311 . S
O14 Zn5 1.977 . S
O14 C20 1.272 . S
O15 Zn5 1.910 . S
O15 C21 1.231 . S
C16 O0 1.225 . S
C16 O22 1.298 . S
C17 O6 1.226 . S
C17 O7 1.307 . S
C18 O10 1.303 . S
C18 O11 1.247 . S
C19 O8 1.253 . S
C19 O9 1.283 . S
C20 O12 1.304 . S
C20 O14 1.272 . S
C21 O13 1.311 . S
C21 O15 1.231 . S
O22 Zn4 1.953 . S
O22 C16 1.298 . S
O23 Zn24 1.953 . S
O23 C39 1.225 . S
Zn24 O23 1.953 . S
Zn24 O25 1.949 . S
Zn24 O31 1.919 . S
Zn24 O36 1.924 . S
O25 Zn24 1.949 . S
O25 Zn26 1.923 . S
O25 Zn27 1.950 . S
O25 Zn28 1.945 1_545 S
Zn26 O25 1.923 . S
Zn26 O29 1.933 . S
Zn26 O32 1.941 . S
Zn26 O33 1.965 . S
Zn27 O25 1.950 . S
Zn27 O34 1.938 . S
Zn27 O35 1.906 1_545 S
Zn27 O45 1.953 . S
Zn28 O25 1.945 1_565 S
Zn28 O30 1.932 1_565 S
Zn28 O37 1.977 . S
Zn28 O38 1.910 . S
O29 Zn26 1.933 . S
O29 C40 1.226 . S
O30 Zn28 1.932 1_545 S
O30 C40 1.307 . S
O31 Zn24 1.919 . S
O31 C42 1.253 . S
O32 Zn26 1.941 . S
O32 C42 1.283 . S
O33 Zn26 1.965 . S
O33 C41 1.303 . S
O34 Zn27 1.938 . S
O34 C41 1.247 . S
O35 Zn27 1.906 1_565 S
O35 C43 1.304 . S
O36 Zn24 1.924 . S
O36 C44 1.311 1_545 S
O37 Zn28 1.977 . S
O37 C43 1.272 . S
O38 Zn28 1.910 . S
O38 C44 1.231 . S
C39 O23 1.225 . S
C39 O45 1.298 . S
C40 O29 1.226 . S
C40 O30 1.307 . S
C41 O33 1.303 . S
C41 O34 1.247 . S
C42 O31 1.253 . S
C42 O32 1.283 . S
C43 O35 1.304 . S
C43 O37 1.272 . S
C44 O36 1.311 1_565 S
C44 O38 1.231 . S
O45 Zn27 1.953 . S
O45 C39 1.298 . S
O46 Zn47 1.953 . S
O46 C62 1.225 . S
Zn47 O46 1.953 . S
Zn47 O48 1.949 . S
Zn47 O54 1.919 . S
Zn47 O59 1.924 . S
O48 Zn47 1.949 . S
O48 Zn49 1.923 . S
O48 Zn50 1.950 . S
O48 Zn51 1.945 . S
Zn49 O48 1.923 . S
Zn49 O52 1.933 . S
Zn49 O55 1.941 . S
Zn49 O56 1.965 . S
Zn50 O48 1.950 . S
Zn50 O57 1.938 . S
Zn50 O58 1.906 . S
Zn50 O68 1.953 . S
Zn51 O48 1.945 . S
Zn51 O53 1.932 . S
Zn51 O60 1.977 . S
Zn51 O61 1.910 . S
O52 Zn49 1.933 . S
O52 C63 1.226 . S
O53 Zn51 1.932 . S
O53 C63 1.307 . S
O54 Zn47 1.919 . S
O54 C65 1.253 . S
O55 Zn49 1.941 . S
O55 C65 1.283 . S
O56 Zn49 1.965 . S
O56 C64 1.303 . S
O57 Zn50 1.938 . S
O57 C64 1.247 . S
O58 Zn50 1.906 . S
O58 C66 1.304 . S
O59 Zn47 1.924 . S
O59 C67 1.311 . S
O60 Zn51 1.977 . S
O60 C66 1.272 . S
O61 Zn51 1.910 . S
O61 C67 1.231 . S
C62 O46 1.225 . S
C62 O68 1.298 . S
C63 O52 1.226 . S
C63 O53 1.307 . S
C64 O56 1.303 . S
C64 O57 1.247 . S
C65 O54 1.253 . S
C65 O55 1.283 . S
C66 O58 1.304 . S
C66 O60 1.272 . S
C67 O59 1.311 . S
C67 O61 1.231 . S
O68 Zn50 1.953 . S
O68 C62 1.298 . S
H69 C72 0.926 1_565 S
H70 C75 0.929 . S
H71 C77 0.930 . S
C72 H69 0.926 1_545 S
C72 C73 1.398 . S
C72 C74 1.396 . S
C73 C72 1.398 . S
C73 C77 1.407 . S
C74 C72 1.396 . S
C74 C75 1.394 . S
C75 H70 0.929 . S
C75 C74 1.394 . S
C75 C76 1.382 . S
C76 C75 1.382 . S
C76 C77 1.392 . S
C76 N78 1.420 . S
C77 H71 0.930 . S
C77 C73 1.407 . S
C77 C76 1.392 . S
N78 C76 1.420 . S
N78 C79 1.244 . S
C79 N78 1.244 . S
H80 C83 0.929 . S
H81 C86 0.929 . S
H82 C88 0.930 . S
C83 H80 0.929 . S
C83 C84 1.398 . S
C83 C85 1.396 . S
C84 C83 1.398 . S
C84 C88 1.407 . S
C85 C83 1.396 . S
C85 C86 1.394 . S
C86 H81 0.929 . S
C86 C85 1.394 . S
C86 C87 1.382 . S
C87 C86 1.382 . S
C87 C88 1.392 . S
C87 N89 1.420 . S
C88 H82 0.930 . S
C88 C84 1.407 . S
C88 C87 1.392 . S
N89 C87 1.420 . S
N89 C90 1.244 . S
C90 N89 1.244 . S
H91 C94 0.929 1_655 S
H92 C97 0.929 . S
H93 C99 0.930 . S
C94 H91 0.929 1_455 S
C94 C95 1.398 . S
C94 C96 1.396 . S
C95 C94 1.398 . S
C95 C99 1.407 . S
C96 C94 1.396 . S
C96 C97 1.394 . S
C97 H92 0.929 . S
C97 C96 1.394 . S
C97 C98 1.382 . S
C98 C97 1.382 . S
C98 C99 1.392 . S
C98 N100 1.420 . S
C99 H93 0.930 . S
C99 C95 1.407 . S
C99 C98 1.392 . S
N100 C98 1.420 . S
N100 C101 1.244 . S
C101 N100 1.244 . S
H102 C105 0.929 . S
H103 C108 0.929 1_655 S
H104 C110 0.930 . S
C105 H102 0.929 . S
C105 C106 1.398 . S
C105 C107 1.396 . S
C106 C105 1.398 . S
C106 C110 1.407 . S
C107 C105 1.396 . S
C107 C108 1.394 . S
C108 H103 0.929 1_455 S
C108 C107 1.394 . S
C108 C109 1.382 . S
C109 C108 1.382 . S
C109 C110 1.392 . S
C109 N111 1.420 1_455 S
C110 H104 0.930 . S
C110 C106 1.407 . S
C110 C109 1.392 . S
N111 C109 1.420 1_655 S
N111 C112 1.244 . S
C112 N111 1.244 . S
H113 C116 0.929 . S
H114 C119 0.929 1_565 S
H115 C121 0.930 . S
C116 H113 0.929 . S
C116 C117 1.398 . S
C116 C118 1.396 . S
C117 C116 1.398 . S
C117 C121 1.407 . S
C118 C116 1.396 . S
C118 C119 1.394 . S
C119 H114 0.929 1_545 S
C119 C118 1.394 . S
C119 C120 1.382 . S
C120 C119 1.382 . S
C120 C121 1.392 . S
C120 N122 1.420 1_545 S
C121 H115 0.930 . S
C121 C117 1.407 . S
C121 C120 1.392 . S
N122 C120 1.420 1_565 S
N122 C123 1.244 . S
C123 N122 1.244 . S
H124 C127 0.929 . S
H125 C130 0.929 . S
H126 C132 0.930 . S
C127 H124 0.929 . S
C127 C128 1.398 . S
C127 C129 1.396 . S
C128 C127 1.398 . S
C128 C132 1.407 . S
C129 C127 1.396 . S
C129 C130 1.394 . S
C130 H125 0.929 . S
C130 C129 1.394 . S
C130 C131 1.382 . S
C131 C130 1.382 . S
C131 C132 1.392 . S
C131 N133 1.420 . S
C132 H126 0.930 . S
C132 C128 1.407 . S
C132 C131 1.392 . S
N133 C131 1.420 . S
N133 C134 1.244 . S
C134 N133 1.244 . S
H135 C141 0.930 . S
H136 C145 0.930 . S
H137 C150 0.929 . S
H138 C148 0.929 . S
H139 C143 0.929 . S
H140 C149 0.929 . S
C141 H135 0.930 . S
C141 C142 1.367 . S
C141 C149 1.378 . S
C142 C141 1.367 . S
C142 C150 1.433 . S
C143 H139 0.929 . S
C143 C145 1.378 . S
C143 C147 1.350 . S
C144 C147 1.463 . S
C144 C149 1.350 . S
C144 N152 1.427 . S
C145 H136 0.930 . S
C145 C143 1.378 . S
C145 C146 1.367 . S
C146 C145 1.367 . S
C146 C148 1.433 . S
C147 C143 1.350 . S
C147 C144 1.463 . S
C147 N151 1.427 . S
C148 H138 0.929 . S
C148 C146 1.433 . S
C148 N151 1.384 . S
C149 H140 0.929 . S
C149 C141 1.378 . S
C149 C144 1.350 . S
C150 H137 0.929 . S
C150 C142 1.433 . S
C150 N152 1.384 . S
N151 C147 1.427 . S
N151 C148 1.384 . S
N152 C144 1.427 . S
N152 C150 1.384 . S
H153 C159 0.930 . S
H154 C163 0.930 . S
H155 C168 0.929 . S
H156 C166 0.929 . S
H157 C161 0.929 . S
H158 C167 0.929 . S
C159 H153 0.930 . S
C159 C160 1.367 . S
C159 C167 1.378 . S
C160 C159 1.367 . S
C160 C168 1.433 . S
C161 H157 0.929 . S
C161 C163 1.378 . S
C161 C165 1.350 . S
C162 C165 1.463 . S
C162 C167 1.350 . S
C162 N170 1.427 . S
C163 H154 0.930 . S
C163 C161 1.378 . S
C163 C164 1.367 . S
C164 C163 1.367 . S
C164 C166 1.433 . S
C165 C161 1.350 . S
C165 C162 1.463 . S
C165 N169 1.427 . S
C166 H156 0.929 . S
C166 C164 1.433 . S
C166 N169 1.384 . S
C167 H158 0.929 . S
C167 C159 1.378 . S
C167 C162 1.350 . S
C168 H155 0.929 . S
C168 C160 1.433 . S
C168 N170 1.384 . S
N169 C165 1.427 . S
N169 C166 1.384 . S
N170 C162 1.427 . S
N170 C168 1.384 . S
H171 C177 0.930 . S
H172 C181 0.930 . S
H173 C186 0.929 . S
H174 C184 0.929 . S
H175 C179 0.929 . S
H176 C185 0.929 . S
C177 H171 0.930 . S
C177 C178 1.367 . S
C177 C185 1.378 . S
C178 C177 1.367 . S
C178 C186 1.433 . S
C179 H175 0.929 . S
C179 C181 1.378 . S
C179 C183 1.350 . S
C180 C183 1.463 . S
C180 C185 1.350 . S
C180 N188 1.427 . S
C181 H172 0.930 . S
C181 C179 1.378 . S
C181 C182 1.367 . S
C182 C181 1.367 . S
C182 C184 1.433 . S
C183 C179 1.350 . S
C183 C180 1.463 . S
C183 N187 1.427 . S
C184 H174 0.929 . S
C184 C182 1.433 . S
C184 N187 1.384 . S
C185 H176 0.929 . S
C185 C177 1.378 . S
C185 C180 1.350 . S
C186 H173 0.929 . S
C186 C178 1.433 . S
C186 N188 1.384 . S
N187 C183 1.427 . S
N187 C184 1.384 . S
N188 C180 1.427 . S
N188 C186 1.384 . S
H189 C195 0.930 . S
H190 C199 0.930 . S
H191 C204 0.929 . S
H192 C202 0.929 . S
H193 C197 0.929 . S
H194 C203 0.929 . S
C195 H189 0.930 . S
C195 C196 1.367 . S
C195 C203 1.378 . S
C196 C195 1.367 . S
C196 C204 1.433 . S
C197 H193 0.929 . S
C197 C199 1.378 . S
C197 C201 1.350 . S
C198 C201 1.463 . S
C198 C203 1.350 . S
C198 N206 1.427 . S
C199 H190 0.930 . S
C199 C197 1.378 . S
C199 C200 1.367 . S
C200 C199 1.367 . S
C200 C202 1.433 . S
C201 C197 1.350 . S
C201 C198 1.463 . S
C201 N205 1.427 . S
C202 H192 0.929 . S
C202 C200 1.433 . S
C202 N205 1.384 . S
C203 H194 0.929 . S
C203 C195 1.378 . S
C203 C198 1.350 . S
C204 H191 0.929 . S
C204 C196 1.433 . S
C204 N206 1.384 . S
N205 C201 1.427 . S
N205 C202 1.384 . S
N206 C198 1.427 . S
N206 C204 1.384 . S
H207 C213 0.930 . S
H208 C217 0.930 . S
H209 C222 0.929 . S
H210 C220 0.929 . S
H211 C215 0.929 . S
H212 C221 0.929 . S
C213 H207 0.930 . S
C213 C214 1.367 . S
C213 C221 1.378 . S
C214 C213 1.367 . S
C214 C222 1.433 . S
C215 H211 0.929 . S
C215 C217 1.378 . S
C215 C219 1.350 . S
C216 C219 1.463 . S
C216 C221 1.350 . S
C216 N224 1.427 . S
C217 H208 0.930 . S
C217 C215 1.378 . S
C217 C218 1.367 . S
C218 C217 1.367 . S
C218 C220 1.433 . S
C219 C215 1.350 . S
C219 C216 1.463 . S
C219 N223 1.427 . S
C220 H210 0.929 . S
C220 C218 1.433 . S
C220 N223 1.384 . S
C221 H212 0.929 . S
C221 C213 1.378 . S
C221 C216 1.350 . S
C222 H209 0.929 . S
C222 C214 1.433 . S
C222 N224 1.384 . S
N223 C219 1.427 . S
N223 C220 1.384 . S
N224 C216 1.427 . S
N224 C222 1.384 . S
H225 C231 0.930 . S
H226 C235 0.930 . S
H227 C240 0.929 . S
H228 C238 0.929 . S
H229 C233 0.929 . S
H230 C239 0.929 . S
C231 H225 0.930 . S
C231 C232 1.367 . S
C231 C239 1.378 . S
C232 C231 1.367 . S
C232 C240 1.433 . S
C233 H229 0.929 . S
C233 C235 1.378 . S
C233 C237 1.350 . S
C234 C237 1.463 . S
C234 C239 1.350 . S
C234 N242 1.427 . S
C235 H226 0.930 . S
C235 C233 1.378 . S
C235 C236 1.367 . S
C236 C235 1.367 . S
C236 C238 1.433 . S
C237 C233 1.350 . S
C237 C234 1.463 . S
C237 N241 1.427 . S
C238 H228 0.929 . S
C238 C236 1.433 . S
C238 N241 1.384 . S
C239 H230 0.929 . S
C239 C231 1.378 . S
C239 C234 1.350 . S
C240 H227 0.929 . S
C240 C232 1.433 . S
C240 N242 1.384 . S
N241 C237 1.427 . S
N241 C238 1.384 . S
N242 C234 1.427 . S
N242 C240 1.384 . S
H243 C249 0.930 . S
H244 C253 0.930 . S
H245 C258 0.929 . S
H246 C256 0.929 . S
H247 C251 0.929 . S
H248 C257 0.929 . S
C249 H243 0.930 . S
C249 C250 1.367 . S
C249 C257 1.378 . S
C250 C249 1.367 . S
C250 C258 1.433 . S
C251 H247 0.929 . S
C251 C253 1.378 . S
C251 C255 1.350 . S
C252 C255 1.463 . S
C252 C257 1.350 . S
C252 N260 1.427 . S
C253 H244 0.930 . S
C253 C251 1.378 . S
C253 C254 1.367 . S
C254 C253 1.367 . S
C254 C256 1.433 . S
C255 C251 1.350 . S
C255 C252 1.463 . S
C255 N259 1.427 . S
C256 H246 0.929 . S
C256 C254 1.433 . S
C256 N259 1.384 . S
C257 H248 0.929 . S
C257 C249 1.378 . S
C257 C252 1.350 . S
C258 H245 0.929 . S
C258 C250 1.433 . S
C258 N260 1.384 . S
N259 C255 1.427 . S
N259 C256 1.384 . S
N260 C252 1.427 . S
N260 C258 1.384 . S
H261 C267 0.930 . S
H262 C271 0.930 . S
H263 C276 0.929 . S
H264 C274 0.929 . S
H265 C269 0.929 . S
H266 C275 0.929 . S
C267 H261 0.930 . S
C267 C268 1.367 . S
C267 C275 1.378 . S
C268 C267 1.367 . S
C268 C276 1.433 . S
C269 H265 0.929 . S
C269 C271 1.378 . S
C269 C273 1.350 . S
C270 C273 1.463 . S
C270 C275 1.350 . S
C270 N278 1.427 . S
C271 H262 0.930 . S
C271 C269 1.378 . S
C271 C272 1.367 . S
C272 C271 1.367 . S
C272 C274 1.433 . S
C273 C269 1.350 . S
C273 C270 1.463 . S
C273 N277 1.427 . S
C274 H264 0.929 . S
C274 C272 1.433 . S
C274 N277 1.384 . S
C275 H266 0.929 . S
C275 C267 1.378 . S
C275 C270 1.350 . S
C276 H263 0.929 . S
C276 C268 1.433 . S
C276 N278 1.384 . S
N277 C273 1.427 . S
N277 C274 1.384 . S
N278 C270 1.427 . S
N278 C276 1.384 . S
H279 C285 0.930 . S
H280 C289 0.930 . S
H281 C294 0.929 . S
H282 C292 0.929 1_545 S
H283 C287 0.929 . S
H284 C293 0.929 . S
C285 H279 0.930 . S
C285 C286 1.367 . S
C285 C293 1.378 . S
C286 C285 1.367 . S
C286 C294 1.433 . S
C287 H283 0.929 . S
C287 C289 1.378 . S
C287 C291 1.350 . S
C288 C291 1.463 . S
C288 C293 1.350 . S
C288 N296 1.427 . S
C289 H280 0.930 . S
C289 C287 1.378 . S
C289 C290 1.367 . S
C290 C289 1.367 . S
C290 C292 1.433 . S
C291 C287 1.350 . S
C291 C288 1.463 . S
C291 N295 1.427 . S
C292 H282 0.929 1_565 S
C292 C290 1.433 . S
C292 N295 1.384 . S
C293 H284 0.929 . S
C293 C285 1.378 . S
C293 C288 1.350 . S
C294 H281 0.929 . S
C294 C286 1.433 . S
C294 N296 1.384 . S
N295 C291 1.427 . S
N295 C292 1.384 . S
N296 C288 1.427 . S
N296 C294 1.384 . S
H297 C303 0.930 . S
H298 C307 0.930 . S
H299 C312 0.929 . S
H300 C310 0.929 . S
H301 C305 0.929 . S
H302 C311 0.929 . S
C303 H297 0.930 . S
C303 C304 1.367 . S
C303 C311 1.378 . S
C304 C303 1.367 . S
C304 C312 1.433 . S
C305 H301 0.929 . S
C305 C307 1.378 . S
C305 C309 1.350 . S
C306 C309 1.463 . S
C306 C311 1.350 . S
C306 N314 1.427 . S
C307 H298 0.930 . S
C307 C305 1.378 . S
C307 C308 1.367 . S
C308 C307 1.367 . S
C308 C310 1.433 . S
C309 C305 1.350 . S
C309 C306 1.463 . S
C309 N313 1.427 . S
C310 H300 0.929 . S
C310 C308 1.433 . S
C310 N313 1.384 . S
C311 H302 0.929 . S
C311 C303 1.378 . S
C311 C306 1.350 . S
C312 H299 0.929 . S
C312 C304 1.433 . S
C312 N314 1.384 . S
N313 C309 1.427 . S
N313 C310 1.384 . S
N314 C306 1.427 . S
N314 C312 1.384 . S
H315 C321 0.930 . S
H316 C325 0.930 . S
H317 C330 0.929 . S
H318 C328 0.929 . S
H319 C323 0.929 . S
H320 C329 0.929 . S
C321 H315 0.930 . S
C321 C322 1.367 . S
C321 C329 1.378 . S
C322 C321 1.367 . S
C322 C330 1.433 . S
C323 H319 0.929 . S
C323 C325 1.378 . S
C323 C327 1.350 . S
C324 C327 1.463 . S
C324 C329 1.350 . S
C324 N332 1.427 . S
C325 H316 0.930 . S
C325 C323 1.378 . S
C325 C326 1.367 . S
C326 C325 1.367 . S
C326 C328 1.433 . S
C327 C323 1.350 . S
C327 C324 1.463 . S
C327 N331 1.427 . S
C328 H318 0.929 . S
C328 C326 1.433 . S
C328 N331 1.384 . S
C329 H320 0.929 . S
C329 C321 1.378 . S
C329 C324 1.350 . S
C330 H317 0.929 . S
C330 C322 1.433 . S
C330 N332 1.384 . S
N331 C327 1.427 . S
N331 C328 1.384 . S
N332 C324 1.427 . S
N332 C330 1.384 . S
H333 C339 0.930 . S
H334 C343 0.930 . S
H335 C348 0.929 . S
H336 C346 0.929 . S
H337 C341 0.929 . S
H338 C347 0.929 . S
C339 H333 0.930 . S
C339 C340 1.367 . S
C339 C347 1.378 . S
C340 C339 1.367 . S
C340 C348 1.433 . S
C341 H337 0.929 . S
C341 C343 1.378 . S
C341 C345 1.350 . S
C342 C345 1.463 . S
C342 C347 1.350 . S
C342 N350 1.427 . S
C343 H334 0.930 . S
C343 C341 1.378 . S
C343 C344 1.367 . S
C344 C343 1.367 . S
C344 C346 1.433 . S
C345 C341 1.350 . S
C345 C342 1.463 . S
C345 N349 1.427 . S
C346 H336 0.929 . S
C346 C344 1.433 . S
C346 N349 1.384 . S
C347 H338 0.929 . S
C347 C339 1.378 . S
C347 C342 1.350 . S
C348 H335 0.929 . S
C348 C340 1.433 . S
C348 N350 1.384 . S
N349 C345 1.427 . S
N349 C346 1.384 . S
N350 C342 1.427 . S
N350 C348 1.384 . S
H351 C357 0.930 . S
H352 C361 0.930 1_655 S
H353 C366 0.923 1_655 S
H354 C364 0.929 . S
H355 C359 0.929 1_655 S
H356 C365 0.929 . S
C357 H351 0.930 . S
C357 C358 1.367 . S
C357 C365 1.378 . S
C358 C357 1.367 . S
C358 C366 1.438 . S
C359 H355 0.929 1_455 S
C359 C361 1.378 . S
C359 C363 1.350 1_556 S
C360 C363 1.463 . S
C360 C365 1.350 . S
C360 N368 1.427 . S
C361 H352 0.930 1_455 S
C361 C359 1.378 . S
C361 C362 1.367 . S
C362 C361 1.367 . S
C362 C364 1.433 . S
C363 C359 1.350 1_554 S
C363 C360 1.463 . S
C363 N367 1.427 1_554 S
C364 H354 0.929 . S
C364 C362 1.433 . S
C364 N367 1.384 . S
C365 H356 0.929 . S
C365 C357 1.378 . S
C365 C360 1.350 . S
C366 H353 0.923 1_455 S
C366 C358 1.438 . S
C366 N368 1.386 . S
N367 C363 1.427 1_556 S
N367 C364 1.384 . S
N368 C360 1.427 . S
N368 C366 1.386 . S
H369 C375 0.930 1_565 S
H370 C379 0.930 . S
H371 C384 0.929 . S
H372 C382 0.929 1_565 S
H373 C377 0.929 . S
H374 C383 0.929 1_565 S
C375 H369 0.930 1_545 S
C375 C376 1.367 . S
C375 C383 1.378 . S
C376 C375 1.367 . S
C376 C384 1.433 . S
C377 H373 0.929 . S
C377 C379 1.378 . S
C377 C381 1.350 . S
C378 C381 1.463 . S
C378 C383 1.350 . S
C378 N386 1.427 . S
C379 H370 0.930 . S
C379 C377 1.378 . S
C379 C380 1.367 . S
C380 C379 1.367 . S
C380 C382 1.433 . S
C381 C377 1.350 . S
C381 C378 1.463 . S
C381 N385 1.427 . S
C382 H372 0.929 1_545 S
C382 C380 1.433 . S
C382 N385 1.384 . S
C383 H374 0.929 1_545 S
C383 C375 1.378 . S
C383 C378 1.350 . S
C384 H371 0.929 . S
C384 C376 1.433 . S
C384 N386 1.384 . S
N385 C381 1.427 . S
N385 C382 1.384 . S
N386 C378 1.427 . S
N386 C384 1.384 . S
H387 C393 0.930 . S
H388 C397 0.930 . S
H389 C402 0.929 . S
H390 C400 0.929 . S
H391 C395 0.929 . S
H392 C401 0.929 . S
C393 H387 0.930 . S
C393 C394 1.367 . S
C393 C401 1.378 . S
C394 C393 1.367 . S
C394 C402 1.433 . S
C395 H391 0.929 . S
C395 C397 1.378 . S
C395 C399 1.350 . S
C396 C399 1.463 . S
C396 C401 1.350 . S
C396 N404 1.427 . S
C397 H388 0.930 . S
C397 C395 1.378 . S
C397 C398 1.367 . S
C398 C397 1.367 . S
C398 C400 1.433 . S
C399 C395 1.350 . S
C399 C396 1.463 . S
C399 N403 1.427 . S
C400 H390 0.929 . S
C400 C398 1.433 . S
C400 N403 1.384 . S
C401 H392 0.929 . S
C401 C393 1.378 . S
C401 C396 1.350 . S
C402 H389 0.929 . S
C402 C394 1.433 . S
C402 N404 1.384 . S
N403 C399 1.427 . S
N403 C400 1.384 . S
N404 C396 1.427 . S
N404 C402 1.384 . S
H405 C411 0.930 . S
H406 C415 0.930 1_565 S
H407 C420 0.929 1_565 S
H408 C418 0.929 . S
H409 C413 0.929 1_565 S
H410 C419 0.929 . S
C411 H405 0.930 . S
C411 C412 1.367 . S
C411 C419 1.378 . S
C412 C411 1.367 . S
C412 C420 1.433 . S
C413 H409 0.929 1_545 S
C413 C415 1.378 . S
C413 C417 1.350 . S
C414 C417 1.463 . S
C414 C419 1.350 . S
C414 N422 1.427 . S
C415 H406 0.930 1_545 S
C415 C413 1.378 . S
C415 C416 1.367 . S
C416 C415 1.367 . S
C416 C418 1.433 . S
C417 C413 1.350 . S
C417 C414 1.463 . S
C417 N421 1.427 . S
C418 H408 0.929 . S
C418 C416 1.433 . S
C418 N421 1.384 . S
C419 H410 0.929 . S
C419 C411 1.378 . S
C419 C414 1.350 . S
C420 H407 0.929 1_545 S
C420 C412 1.433 . S
C420 N422 1.384 . S
N421 C417 1.427 . S
N421 C418 1.384 . S
N422 C414 1.427 . S
N422 C420 1.384 . S
H423 C429 0.930 . S
H424 C433 0.930 . S
H425 C438 0.929 . S
H426 C436 0.929 . S
H427 C431 0.925 1_556 S
H428 C437 0.929 . S
C429 H423 0.930 . S
C429 C430 1.367 . S
C429 C437 1.378 . S
C430 C429 1.367 . S
C430 C438 1.433 . S
C431 H427 0.925 1_554 S
C431 C433 1.378 . S
C431 C435 1.350 1_554 S
C432 C435 1.463 . S
C432 C437 1.350 . S
C432 N440 1.427 . S
C433 H424 0.930 . S
C433 C431 1.378 . S
C433 C434 1.367 . S
C434 C433 1.367 . S
C434 C436 1.433 . S
C435 C431 1.350 1_556 S
C435 C432 1.463 . S
C435 N439 1.427 1_556 S
C436 H426 0.929 . S
C436 C434 1.433 . S
C436 N439 1.384 . S
C437 H428 0.929 . S
C437 C429 1.378 . S
C437 C432 1.350 . S
C438 H425 0.929 . S
C438 C430 1.433 . S
C438 N440 1.384 . S
N439 C435 1.427 1_554 S
N439 C436 1.384 . S
N440 C432 1.427 . S
N440 C438 1.384 . S
H441 C447 0.930 . S
H442 C451 0.930 . S
H443 C456 0.929 . S
H444 C454 0.929 . S
H445 C449 0.929 . S
H446 C455 0.929 . S
C447 H441 0.930 . S
C447 C448 1.367 . S
C447 C455 1.378 . S
C448 C447 1.367 . S
C448 C456 1.433 . S
C449 H445 0.929 . S
C449 C451 1.378 . S
C449 C453 1.350 . S
C450 C453 1.463 . S
C450 C455 1.350 . S
C450 N458 1.427 . S
C451 H442 0.930 . S
C451 C449 1.378 . S
C451 C452 1.367 . S
C452 C451 1.367 . S
C452 C454 1.433 . S
C453 C449 1.350 . S
C453 C450 1.463 . S
C453 N457 1.427 . S
C454 H444 0.929 . S
C454 C452 1.433 . S
C454 N457 1.384 . S
C455 H446 0.929 . S
C455 C447 1.378 . S
C455 C450 1.350 . S
C456 H443 0.929 . S
C456 C448 1.433 . S
C456 N458 1.384 . S
N457 C453 1.427 . S
N457 C454 1.384 . S
N458 C450 1.427 . S
N458 C456 1.384 . S
C142 C20 1.279 . S
C146 C134 1.298 . S
C160 C41 1.317 . S
C164 C112 1.301 . S
C178 C64 1.341 . S
C182 C123 1.328 . S
C196 C19 1.262 . S
C200 C128 1.325 . S
C218 C106 1.288 . S
C214 C44 1.280 . S
C236 C117 1.244 . S
C232 C67 1.243 . S
C250 C43 1.281 . S
C254 C90 1.288 . S
C268 C66 1.201 . S
C272 C95 1.234 1_655 S
C286 C21 1.280 . S
C290 C73 1.287 1_565 S
C308 C84 1.307 . S
C304 C42 1.246 . S
C326 C101 1.325 . S
C322 C65 1.288 . S
C340 C18 1.318 . S
C344 C79 1.306 . S
C362 C96 1.517 . S
C358 C17 1.520 . S
C376 C39 1.532 . S
C380 C74 1.527 . S
C394 C62 1.533 . S
C398 C85 1.526 . S
C416 C118 1.515 . S
C412 C40 1.513 . S
C434 C129 1.516 . S
C430 C63 1.523 . S
C448 C16 1.530 . S
C452 C107 1.524 . S
