# Generated by pormake.
# Topology anh, (6,3)-cn, num edge types: 1
# Building blocks:
#     Node 0, Type 0, BuildingBlock: VOLQOD_clean_sbu_1, # of connection points: 6
#     Node 1, Type 0, BuildingBlock: VOLQOD_clean_sbu_1, # of connection points: 6
#     Node 2, Type 0, BuildingBlock: VOLQOD_clean_sbu_1, # of connection points: 6
#     Node 3, Type 1, BuildingBlock: BETDAH_clean_linker_0, # of connection points: 3
#     Node 4, Type 1, BuildingBlock: BETDAH_clean_linker_0, # of connection points: 3
#     Node 5, Type 1, BuildingBlock: BETDAH_clean_linker_0, # of connection points: 3
#     Node 6, Type 1, BuildingBlock: BETDAH_clean_linker_0, # of connection points: 3
#     Node 7, Type 1, BuildingBlock: BETDAH_clean_linker_0, # of connection points: 3
#     Node 8, Type 1, BuildingBlock: BETDAH_clean_linker_0, # of connection points: 3
#     Edge 9, Type (0, 1), BuildingBlock: OJICUG_clean_linker_0, # of connection points: 2
#     Edge 10, Type (0, 1), BuildingBlock: OJICUG_clean_linker_0, # of connection points: 2
#     Edge 11, Type (0, 1), BuildingBlock: OJICUG_clean_linker_0, # of connection points: 2
#     Edge 12, Type (0, 1), BuildingBlock: OJICUG_clean_linker_0, # of connection points: 2
#     Edge 13, Type (0, 1), BuildingBlock: OJICUG_clean_linker_0, # of connection points: 2
#     Edge 14, Type (0, 1), BuildingBlock: OJICUG_clean_linker_0, # of connection points: 2
#     Edge 15, Type (0, 1), BuildingBlock: OJICUG_clean_linker_0, # of connection points: 2
#     Edge 16, Type (0, 1), BuildingBlock: OJICUG_clean_linker_0, # of connection points: 2
#     Edge 17, Type (0, 1), BuildingBlock: OJICUG_clean_linker_0, # of connection points: 2
#     Edge 18, Type (0, 1), BuildingBlock: OJICUG_clean_linker_0, # of connection points: 2
#     Edge 19, Type (0, 1), BuildingBlock: OJICUG_clean_linker_0, # of connection points: 2
#     Edge 20, Type (0, 1), BuildingBlock: OJICUG_clean_linker_0, # of connection points: 2
#     Edge 21, Type (0, 1), BuildingBlock: OJICUG_clean_linker_0, # of connection points: 2
#     Edge 22, Type (0, 1), BuildingBlock: OJICUG_clean_linker_0, # of connection points: 2
#     Edge 23, Type (0, 1), BuildingBlock: OJICUG_clean_linker_0, # of connection points: 2
#     Edge 24, Type (0, 1), BuildingBlock: OJICUG_clean_linker_0, # of connection points: 2
#     Edge 25, Type (0, 1), BuildingBlock: OJICUG_clean_linker_0, # of connection points: 2
#     Edge 26, Type (0, 1), BuildingBlock: OJICUG_clean_linker_0, # of connection points: 2
# Relax obj value: 0.160
# Max RMSD: 0.217
# Mean RMSD: 0.133
data_MOF--net-anh--node1-VOLQOD_clean_sbu_1--node2-BETDAH_clean_linker_0--edge1-OJICUG_clean_linker_0
_symmetry_space_group_name_H-M    P1
_symmetry_Int_Tables_number       1
_symmetry_cell_setting            triclinic
loop_
_symmetry_equiv_pos_as_xyz
'x, y, z'
_cell_length_a     22.135937
_cell_length_b     21.997435
_cell_length_c     40.977103
_cell_angle_alpha  92.587716
_cell_angle_beta   92.305767
_cell_angle_gamma 120.33044
loop_
_atom_site_label
_atom_site_type_symbol
_atom_site_fract_x
_atom_site_fract_y
_atom_site_fract_z
_atom_type_partial_charge
O0 O -0.0031 0.59259 0.2415 0.0
Zn1 Zn 0.00085 0.61479 0.19357 0.0
O2 O 0.00609 0.54214 0.16617 0.0
Zn3 Zn 0.92391 0.48494 0.1371 0.0
Zn4 Zn 0.0218 0.48185 0.19414 0.0
Zn5 Zn 0.08023 0.58605 0.1374 0.0
O6 O 0.94396 0.48427 0.08926 0.0
O7 O 0.04828 0.58152 0.0903 0.0
O8 O 0.91359 0.61844 0.1786 0.0
O9 O 0.86272 0.52545 0.14174 0.0
O10 O 0.86917 0.38605 0.15051 0.0
O11 O 0.93667 0.38518 0.19174 0.0
O12 O 0.10233 0.47139 0.17999 0.0
O13 O 0.09152 0.70971 0.19292 0.0
O14 O 0.13601 0.53806 0.13774 0.0
O15 O 0.14481 0.68439 0.15441 0.0
C16 C 0.01785 0.55654 0.25683 0.0
C17 C -0.0058 0.53116 0.07441 0.0
C18 C 0.88031 0.35451 0.17319 0.0
C19 C 0.86334 0.57666 0.15775 0.0
C20 C 0.14093 0.49549 0.15612 0.0
C21 C 0.14466 0.72715 0.17629 0.0
O22 O 0.03586 0.51716 0.24148 0.0
O23 O 0.51629 0.08619 0.43348 0.0
Zn24 Zn 0.49633 0.08433 0.48158 0.0
O25 O 0.56113 0.06703 0.50773 0.0
Zn26 Zn 0.62189 0.14341 0.53938 0.0
Zn27 Zn 0.62061 0.05292 0.47895 0.0
Zn28 Zn 0.50903 0.98676 0.53282 0.0
O29 O 0.6143 0.1148 0.58602 0.0
O30 O 0.5119 0.01443 0.5806 0.0
O31 O 0.50321 0.17655 0.49901 0.0
O32 O 0.59083 0.21268 0.53765 0.0
O33 O 0.72185 0.19722 0.527 0.0
O34 O 0.7161 0.14072 0.47979 0.0
O35 O 0.63231 0.9731 0.49335 0.0
O36 O 0.39783 -9e-05 0.48088 0.0
O37 O 0.55399 0.92776 0.53073 0.0
O38 O 0.40943 0.92893 0.51433 0.0
C39 C 0.54486 0.05721 0.41764 0.0
C40 C 0.56236 0.06447 0.59858 0.0
C41 C 0.74982 0.19245 0.50118 0.0
C42 C 0.5457 0.22141 0.52171 0.0
C43 C 0.60217 0.9284 0.51452 0.0
C44 C 0.37245 0.94148 0.49423 0.0
O45 O 0.58069 0.03471 0.43241 0.0
O46 O 0.47913 0.54094 0.75878 0.0
Zn47 Zn 0.45255 0.50407 0.80355 0.0
O48 O 0.52466 0.5651 0.83791 0.0
Zn49 Zn 0.49322 0.61294 0.86746 0.0
Zn50 Zn 0.60797 0.63529 0.8179 0.0
Zn51 Zn 0.54349 0.50535 0.86435 0.0
O52 O 0.51225 0.60444 0.91569 0.0
O53 O 0.52287 0.50944 0.91126 0.0
O54 O 0.35883 0.49152 0.81522 0.0
O55 O 0.38914 0.56642 0.85944 0.0
O56 O 0.53634 0.71511 0.85818 0.0
O57 O 0.62175 0.73326 0.82618 0.0
O58 O 0.69411 0.63071 0.8333 0.0
O59 O 0.44582 0.4087 0.79892 0.0
O60 O 0.64437 0.5376 0.86323 0.0
O61 O 0.4959 0.40492 0.84609 0.0
C62 C 0.53972 0.58086 0.7487 0.0
C63 C 0.51679 0.55515 0.92865 0.0
C64 C 0.58725 0.75583 0.84169 0.0
C65 C 0.34266 0.5199 0.83858 0.0
C66 C 0.69771 0.5861 0.85087 0.0
C67 C 0.46345 0.37598 0.81844 0.0
O68 O 0.59361 0.61562 0.76876 0.0
H69 H 0.38841 0.94962 0.27688 0.0
H70 H 0.61146 0.05542 0.26773 0.0
H71 H 0.47149 0.95727 0.18258 0.0
C72 C 0.43213 0.96818 0.26153 0.0
C73 C 0.41993 0.94811 0.22764 0.0
C74 C 0.50112 0.00766 0.27627 0.0
C75 C 0.55809 0.0269 0.25677 0.0
C76 C 0.54626 0.00658 0.22323 0.0
C77 C 0.47817 0.96987 0.20879 0.0
N78 N 0.60155 0.01616 0.20402 0.0
C79 C 0.65912 0.08216 0.20094 0.0
H80 H 0.53461 0.45353 0.60936 0.0
H81 H 0.65161 0.68019 0.60607 0.0
H82 H 0.65344 0.54798 0.52679 0.0
C83 C 0.56637 0.50005 0.59644 0.0
C84 C 0.58951 0.4924 0.56588 0.0
C85 C 0.58929 0.5678 0.61156 0.0
C86 C 0.63338 0.62763 0.59494 0.0
C87 C 0.65659 0.61989 0.56451 0.0
C88 C 0.63471 0.55283 0.55026 0.0
N89 N 0.70416 0.67901 0.54825 0.0
C90 C 0.69196 0.73379 0.54354 0.0
H91 H 0.91985 0.57238 0.93464 0.0
H92 H 0.01773 0.44696 0.92393 0.0
H93 H 0.92038 0.48068 0.83956 0.0
C94 C 0.9367 0.54357 0.91894 0.0
C95 C 0.91677 0.53176 0.88522 0.0
C96 C 0.97254 0.51273 0.9331 0.0
C97 C -0.00892 0.47196 0.91313 0.0
C98 C 0.97262 0.46122 0.8793 0.0
C99 C 0.93542 0.49066 0.86561 0.0
N100 N -0.01267 0.4175 0.85886 0.0
C101 C 0.05547 0.43206 0.85633 0.0
H102 H 0.11524 0.7029 0.39657 0.0
H103 H 0.0172 0.48 0.40847 0.0
H104 H 0.15332 0.62848 0.48624 0.0
C105 C 0.1054 0.66022 0.41171 0.0
C106 C 0.13809 0.67563 0.44363 0.0
C107 C 0.0635 0.58995 0.39832 0.0
C108 C 0.04963 0.5344 0.41826 0.0
C109 C 0.08123 0.54902 0.45023 0.0
C110 C 0.12634 0.61897 0.46228 0.0
N111 N 0.07357 0.49456 0.46993 0.0
C112 C 0.01023 0.43255 0.47227 0.0
H113 H 0.4848 0.13893 0.7278 0.0
H114 H 0.61289 0.05179 0.75581 0.0
H115 H 0.56845 0.16807 0.82795 0.0
C116 C 0.51421 0.12979 0.74675 0.0
C117 C 0.52076 0.15774 0.77914 0.0
C118 C 0.54876 0.09331 0.73805 0.0
C119 C 0.58599 0.07977 0.7624 0.0
C120 C 0.59094 0.10511 0.79505 0.0
C121 C 0.56025 0.14549 0.803 0.0
N122 N 0.62976 0.09417 0.8201 0.0
C123 C 0.62781 0.0304 0.82239 0.0
H124 H 0.63738 0.5879 0.07153 0.0
H125 H 0.41261 0.46146 0.07138 0.0
H126 H 0.54015 0.48503 0.15764 0.0
C127 C 0.59101 0.55767 0.0847 0.0
C128 C 0.59774 0.54099 0.11694 0.0
C129 C 0.52432 0.52937 0.06813 0.0
C130 C 0.46408 0.48552 0.08429 0.0
C131 C 0.47057 0.46961 0.11654 0.0
C132 C 0.5367 0.49815 0.13272 0.0
N133 N 0.41169 0.42071 0.13244 0.0
C134 C 0.35233 0.42618 0.13361 0.0
C135 C 0.23536 0.50045 0.12294 0.0
C136 C 0.19293 0.47423 0.14943 0.0
H137 H 0.31964 0.50471 0.09711 0.0
C138 C 0.20148 0.42847 0.16947 0.0
H139 H 0.23003 0.5356 0.10695 0.0
C140 C 0.25259 0.41077 0.16358 0.0
C141 C 0.29531 0.43832 0.13758 0.0
H142 H 0.16957 0.40726 0.18998 0.0
H143 H 0.25972 0.37683 0.17972 0.0
C144 C 0.28632 0.48265 0.11713 0.0
C145 C 0.85674 0.31021 0.51748 0.0
C146 C 0.81986 0.25161 0.4945 0.0
H147 H 0.9464 0.41397 0.52799 0.0
C148 C 0.84806 0.25296 0.46412 0.0
H149 H 0.83668 0.3112 0.54105 0.0
C150 C 0.91079 0.31223 0.45668 0.0
C151 C 0.94611 0.37073 0.47952 0.0
H152 H 0.82094 0.20895 0.44578 0.0
H153 H 0.93121 0.31263 0.43305 0.0
C154 C 0.91931 0.36918 0.51001 0.0
C155 C 0.56533 0.85478 0.85577 0.0
C156 C 0.60243 0.82907 0.83838 0.0
H157 H 0.54467 0.93939 0.86397 0.0
C158 C 0.65018 0.87225 0.8162 0.0
H159 H 0.52818 0.82317 0.87302 0.0
C160 C 0.65917 0.93877 0.811 0.0
C161 C 0.62078 0.963 0.82796 0.0
H162 H 0.6794 0.85407 0.8023 0.0
H163 H 0.69535 0.97079 0.79349 0.0
C164 C 0.57449 0.92114 0.85057 0.0
C165 C 0.73669 0.51805 0.16131 0.0
C166 C 0.79852 0.5789 0.15457 0.0
H167 H 0.62596 0.45744 0.15398 0.0
C168 C 0.79483 0.63192 0.13842 0.0
H169 H 0.73867 0.47599 0.17322 0.0
C170 C 0.72926 0.62181 0.12745 0.0
C171 C 0.66712 0.55845 0.13242 0.0
H172 H 0.84232 0.67867 0.13248 0.0
H173 H 0.72737 0.66219 0.11403 0.0
C174 C 0.6719 0.5077 0.15027 0.0
C175 C 0.25872 0.83363 0.50296 0.0
C176 C 0.30355 0.88198 0.4817 0.0
H177 H 0.16834 0.73271 0.50768 0.0
C178 C 0.28832 0.86631 0.44778 0.0
H179 H 0.2695 0.84481 0.52925 0.0
C180 C 0.23271 0.8006 0.43529 0.0
C181 C 0.18979 0.74985 0.4565 0.0
H182 H 0.32293 0.90244 0.43089 0.0
H183 H 0.22678 0.78847 0.40907 0.0
C184 C 0.2015 0.76891 0.49049 0.0
C185 C 0.457 0.26192 0.82884 0.0
C186 C 0.46022 0.30998 0.8066 0.0
H187 H 0.46972 0.17377 0.83726 0.0
C188 C 0.47413 0.30168 0.77411 0.0
H189 H 0.44615 0.26708 0.85404 0.0
C190 C 0.4908 0.25032 0.76479 0.0
C191 C 0.49216 0.20478 0.78756 0.0
H192 H 0.47801 0.33866 0.75655 0.0
H193 H 0.50703 0.24982 0.74027 0.0
C194 C 0.47169 0.20918 0.81929 0.0
C195 C 0.5942 0.83008 0.54583 0.0
C196 C 0.62551 0.87803 0.5217 0.0
H197 H 0.592 0.74662 0.57181 0.0
C198 C 0.68055 0.87866 0.50539 0.0
H199 H 0.55183 0.82826 0.55893 0.0
C200 C 0.7035 0.83205 0.51303 0.0
C201 C 0.67187 0.7847 0.53705 0.0
H202 H 0.70587 0.91502 0.48678 0.0
H203 H 0.74542 0.8326 0.50001 0.0
C204 C 0.61726 0.78369 0.5534 0.0
C205 C 0.75704 0.51889 0.84199 0.0
C206 C 0.76157 0.582 0.85365 0.0
H207 H 0.80227 0.45356 0.84291 0.0
C208 C 0.82162 0.63308 0.8726 0.0
H209 H 0.71052 0.47855 0.82761 0.0
C210 C 0.87473 0.61878 0.88157 0.0
C211 C 0.86811 0.55344 0.8715 0.0
H212 H 0.82535 0.68169 0.88214 0.0
H213 H 0.91943 0.65745 0.89742 0.0
C214 C 0.80978 0.50478 0.8507 0.0
C215 C 0.27309 0.79973 0.17259 0.0
C216 C 0.21257 0.79205 0.1861 0.0
H217 H 0.38335 0.84922 0.17615 0.0
C218 C 0.22009 0.8405 0.2118 0.0
H219 H 0.26993 0.76338 0.15293 0.0
C220 C 0.28722 0.89356 0.22454 0.0
C221 C 0.34788 0.89796 0.2123 0.0
H222 H 0.17442 0.83599 0.22276 0.0
H223 H 0.29134 0.9298 0.24445 0.0
C224 C 0.33927 0.85045 0.18588 0.0
C225 C 0.61803 0.35029 0.52858 0.0
C226 C 0.55108 0.29009 0.52796 0.0
H227 H 0.68252 0.46041 0.54158 0.0
C228 C 0.49471 0.29645 0.53825 0.0
H229 H 0.66238 0.34627 0.52106 0.0
C230 C 0.50634 0.36254 0.55035 0.0
C231 C 0.57419 0.42249 0.5518 0.0
H232 H 0.44292 0.25018 0.53845 0.0
H233 H 0.46284 0.36668 0.55896 0.0
C234 C 0.62949 0.41562 0.54033 0.0
C235 C 0.21405 0.44311 0.82157 0.0
C236 C 0.26819 0.49703 0.84268 0.0
H237 H 0.10282 0.37969 0.8097 0.0
C238 C 0.25051 0.52804 0.86862 0.0
H239 H 0.22579 0.41802 0.80145 0.0
C240 C 0.18049 0.50575 0.87331 0.0
C241 C 0.12711 0.45217 0.85224 0.0
H242 H 0.29071 0.56961 0.88541 0.0
H243 H 0.16809 0.5307 0.89328 0.0
C244 C 0.14387 0.42091 0.82634 0.0
C245 C 0.76089 0.24885 0.16012 0.0
C246 C 0.82478 0.28259 0.1795 0.0
H247 H 0.65763 0.1579 0.15224 0.0
C248 C 0.8335 0.24841 0.20599 0.0
H249 H 0.75235 0.27366 0.13961 0.0
C250 C 0.77902 0.18233 0.21317 0.0
C251 C 0.71549 0.14986 0.19396 0.0
H252 H 0.88197 0.27302 0.22145 0.0
H253 H 0.78637 0.15688 0.23375 0.0
C254 C 0.70665 0.18291 0.16735 0.0
C255 C 0.02791 0.5873 0.0212 0.0
C256 C -0.00945 0.52633 0.03819 0.0
H257 H 0.05083 0.63066 0.9743 0.0
C258 C 0.95027 0.46057 0.02026 0.0
H259 H 0.05933 0.63868 0.03438 0.0
C260 C 0.94715 0.45594 0.98603 0.0
C261 C 0.98303 0.5171 0.96914 0.0
H262 H 0.92139 0.41265 0.0327 0.0
H263 H 0.91496 0.40484 0.97269 0.0
C264 C 0.02336 0.58282 0.98694 0.0
C265 C 0.48649 0.05976 0.3641 0.0
C266 C 0.53517 0.04759 0.38137 0.0
H267 H 0.43757 0.05677 0.31727 0.0
C268 C 0.57335 0.02377 0.36367 0.0
H269 H 0.45606 0.07793 0.37697 0.0
C270 C 0.56278 0.01178 0.32965 0.0
C271 C 0.51361 0.02308 0.31239 0.0
H272 H 0.61121 0.01373 0.3761 0.0
H273 H 0.59212 0.99207 0.31692 0.0
C274 C 0.47559 0.0473 0.32995 0.0
C275 C 0.6148 0.62974 0.70161 0.0
C276 C 0.54919 0.58274 0.713 0.0
H277 H 0.67884 0.66157 0.66099 0.0
C278 C 0.49494 0.53415 0.6902 0.0
H279 H 0.65781 0.66792 0.7184 0.0
C280 C 0.50704 0.53065 0.65705 0.0
C281 C 0.57349 0.57597 0.64594 0.0
H282 H 0.44373 0.49716 0.69809 0.0
H283 H 0.46471 0.49165 0.64021 0.0
C284 C 0.62675 0.62643 0.66854 0.0
C285 C 0.49415 0.03131 0.64854 0.0
C286 C 0.55922 0.06572 0.63458 0.0
H287 H 0.43984 0.01349 0.69254 0.0
C288 C 0.62092 0.10375 0.65531 0.0
H289 H 0.4457 0.00173 0.63319 0.0
C290 C 0.61748 0.10889 0.68924 0.0
C291 C 0.55228 0.07732 0.70299 0.0
H292 H 0.67179 0.13042 0.64527 0.0
H293 H 0.66562 0.14034 0.70464 0.0
C294 C 0.49068 0.03784 0.68243 0.0
C295 C 0.48604 0.48295 0.97698 0.0
C296 C 0.51481 0.54972 0.96448 0.0
H297 H 0.46537 0.42459 0.01964 0.0
C298 C 0.54401 0.61024 0.98645 0.0
H299 H 0.46294 0.43539 0.96062 0.0
C300 C 0.54667 0.60401 0.02033 0.0
C301 C 0.51825 0.5371 0.03265 0.0
H302 H 0.56686 0.66233 0.97743 0.0
H303 H 0.57121 0.65129 0.0369 0.0
C304 C 0.48705 0.47668 0.0107 0.0
C305 C 0.04231 0.51855 0.31012 0.0
C306 C 0.02293 0.56111 0.29323 0.0
H307 H 0.06999 0.49417 0.35623 0.0
C308 C 0.0107 0.60904 0.31151 0.0
H309 H 0.05178 0.48071 0.29695 0.0
C310 C 0.02055 0.61627 0.34577 0.0
C311 C 0.04261 0.57556 0.36252 0.0
H312 H -0.00481 0.64228 0.29935 0.0
H313 H 0.01226 0.65475 0.35911 0.0
C314 C 0.05199 0.52567 0.34427 0.0
loop_
_geom_bond_atom_site_label_1
_geom_bond_atom_site_label_2
_geom_bond_distance
_geom_bond_site_symmetry_2
_ccdc_geom_bond_type
O0 Zn1 1.953 . S
O0 C16 1.225 . S
Zn1 O0 1.953 . S
Zn1 O2 1.949 . S
Zn1 O8 1.919 1_455 S
Zn1 O13 1.924 . S
O2 Zn1 1.949 . S
O2 Zn3 1.923 1_455 S
O2 Zn4 1.950 . S
O2 Zn5 1.945 . S
Zn3 O2 1.923 1_655 S
Zn3 O6 1.933 . S
Zn3 O9 1.941 . S
Zn3 O10 1.965 . S
Zn4 O2 1.950 . S
Zn4 O11 1.938 1_455 S
Zn4 O12 1.906 . S
Zn4 O22 1.953 . S
Zn5 O2 1.945 . S
Zn5 O7 1.932 . S
Zn5 O14 1.977 . S
Zn5 O15 1.910 . S
O6 Zn3 1.933 . S
O6 C17 1.226 1_655 S
O7 Zn5 1.932 . S
O7 C17 1.307 . S
O8 Zn1 1.919 1_655 S
O8 C19 1.253 . S
O9 Zn3 1.941 . S
O9 C19 1.283 . S
O10 Zn3 1.965 . S
O10 C18 1.303 . S
O11 Zn4 1.938 1_655 S
O11 C18 1.247 . S
O12 Zn4 1.906 . S
O12 C20 1.304 . S
O13 Zn1 1.924 . S
O13 C21 1.311 . S
O14 Zn5 1.977 . S
O14 C20 1.272 . S
O15 Zn5 1.910 . S
O15 C21 1.231 . S
C16 O0 1.225 . S
C16 O22 1.298 . S
C17 O6 1.226 1_455 S
C17 O7 1.307 . S
C18 O10 1.303 . S
C18 O11 1.247 . S
C19 O8 1.253 . S
C19 O9 1.283 . S
C20 O12 1.304 . S
C20 O14 1.272 . S
C21 O13 1.311 . S
C21 O15 1.231 . S
O22 Zn4 1.953 . S
O22 C16 1.298 . S
O23 Zn24 1.953 . S
O23 C39 1.225 . S
Zn24 O23 1.953 . S
Zn24 O25 1.949 . S
Zn24 O31 1.919 . S
Zn24 O36 1.924 1_545 S
O25 Zn24 1.949 . S
O25 Zn26 1.923 . S
O25 Zn27 1.950 . S
O25 Zn28 1.945 1_545 S
Zn26 O25 1.923 . S
Zn26 O29 1.933 . S
Zn26 O32 1.941 . S
Zn26 O33 1.965 . S
Zn27 O25 1.950 . S
Zn27 O34 1.938 . S
Zn27 O35 1.906 1_545 S
Zn27 O45 1.953 . S
Zn28 O25 1.945 1_565 S
Zn28 O30 1.932 1_565 S
Zn28 O37 1.977 . S
Zn28 O38 1.910 . S
O29 Zn26 1.933 . S
O29 C40 1.226 . S
O30 Zn28 1.932 1_545 S
O30 C40 1.307 . S
O31 Zn24 1.919 . S
O31 C42 1.253 . S
O32 Zn26 1.941 . S
O32 C42 1.283 . S
O33 Zn26 1.965 . S
O33 C41 1.303 . S
O34 Zn27 1.938 . S
O34 C41 1.247 . S
O35 Zn27 1.906 1_565 S
O35 C43 1.304 . S
O36 Zn24 1.924 1_565 S
O36 C44 1.311 . S
O37 Zn28 1.977 . S
O37 C43 1.272 . S
O38 Zn28 1.910 . S
O38 C44 1.231 . S
C39 O23 1.225 . S
C39 O45 1.298 . S
C40 O29 1.226 . S
C40 O30 1.307 . S
C41 O33 1.303 . S
C41 O34 1.247 . S
C42 O31 1.253 . S
C42 O32 1.283 . S
C43 O35 1.304 . S
C43 O37 1.272 . S
C44 O36 1.311 . S
C44 O38 1.231 . S
O45 Zn27 1.953 . S
O45 C39 1.298 . S
O46 Zn47 1.953 . S
O46 C62 1.225 . S
Zn47 O46 1.953 . S
Zn47 O48 1.949 . S
Zn47 O54 1.919 . S
Zn47 O59 1.924 . S
O48 Zn47 1.949 . S
O48 Zn49 1.923 . S
O48 Zn50 1.950 . S
O48 Zn51 1.945 . S
Zn49 O48 1.923 . S
Zn49 O52 1.933 . S
Zn49 O55 1.941 . S
Zn49 O56 1.965 . S
Zn50 O48 1.950 . S
Zn50 O57 1.938 . S
Zn50 O58 1.906 . S
Zn50 O68 1.953 . S
Zn51 O48 1.945 . S
Zn51 O53 1.932 . S
Zn51 O60 1.977 . S
Zn51 O61 1.910 . S
O52 Zn49 1.933 . S
O52 C63 1.226 . S
O53 Zn51 1.932 . S
O53 C63 1.307 . S
O54 Zn47 1.919 . S
O54 C65 1.253 . S
O55 Zn49 1.941 . S
O55 C65 1.283 . S
O56 Zn49 1.965 . S
O56 C64 1.303 . S
O57 Zn50 1.938 . S
O57 C64 1.247 . S
O58 Zn50 1.906 . S
O58 C66 1.304 . S
O59 Zn47 1.924 . S
O59 C67 1.311 . S
O60 Zn51 1.977 . S
O60 C66 1.272 . S
O61 Zn51 1.910 . S
O61 C67 1.231 . S
C62 O46 1.225 . S
C62 O68 1.298 . S
C63 O52 1.226 . S
C63 O53 1.307 . S
C64 O56 1.303 . S
C64 O57 1.247 . S
C65 O54 1.253 . S
C65 O55 1.283 . S
C66 O58 1.304 . S
C66 O60 1.272 . S
C67 O59 1.311 . S
C67 O61 1.231 . S
O68 Zn50 1.953 . S
O68 C62 1.298 . S
H69 C72 0.929 . S
H70 C75 0.929 . S
H71 C77 0.930 . S
C72 H69 0.929 . S
C72 C73 1.398 . S
C72 C74 1.396 1_565 S
C73 C72 1.398 . S
C73 C77 1.407 1_565 S
C74 C72 1.396 1_545 S
C74 C75 1.394 . S
C75 H70 0.929 . S
C75 C74 1.394 . S
C75 C76 1.382 . S
C76 C75 1.382 . S
C76 C77 1.392 . S
C76 N78 1.420 . S
C77 H71 0.930 . S
C77 C73 1.407 1_545 S
C77 C76 1.392 . S
N78 C76 1.420 . S
N78 C79 1.244 . S
C79 N78 1.244 . S
H80 C83 0.929 . S
H81 C86 0.929 . S
H82 C88 0.930 . S
C83 H80 0.929 . S
C83 C84 1.398 . S
C83 C85 1.396 . S
C84 C83 1.398 . S
C84 C88 1.407 . S
C85 C83 1.396 . S
C85 C86 1.394 . S
C86 H81 0.929 . S
C86 C85 1.394 . S
C86 C87 1.382 . S
C87 C86 1.382 . S
C87 C88 1.392 . S
C87 N89 1.420 . S
C88 H82 0.930 . S
C88 C84 1.407 . S
C88 C87 1.392 . S
N89 C87 1.420 . S
N89 C90 1.244 . S
C90 N89 1.244 . S
H91 C94 0.929 . S
H92 C97 0.929 . S
H93 C99 0.930 . S
C94 H91 0.929 . S
C94 C95 1.398 . S
C94 C96 1.396 1_655 S
C95 C94 1.398 . S
C95 C99 1.407 1_655 S
C96 C94 1.396 1_455 S
C96 C97 1.394 . S
C97 H92 0.929 . S
C97 C96 1.394 . S
C97 C98 1.382 . S
C98 C97 1.382 . S
C98 C99 1.392 . S
C98 N100 1.420 . S
C99 H93 0.930 . S
C99 C95 1.407 1_455 S
C99 C98 1.392 . S
N100 C98 1.420 . S
N100 C101 1.244 . S
C101 N100 1.244 . S
H102 C105 0.929 . S
H103 C108 0.929 1_655 S
H104 C110 0.930 . S
C105 H102 0.929 . S
C105 C106 1.398 . S
C105 C107 1.396 . S
C106 C105 1.398 . S
C106 C110 1.407 . S
C107 C105 1.396 . S
C107 C108 1.394 . S
C108 H103 0.929 1_455 S
C108 C107 1.394 . S
C108 C109 1.382 . S
C109 C108 1.382 . S
C109 C110 1.392 . S
C109 N111 1.420 1_455 S
C110 H104 0.930 . S
C110 C106 1.407 . S
C110 C109 1.392 . S
N111 C109 1.420 1_655 S
N111 C112 1.244 . S
C112 N111 1.244 . S
H113 C116 0.929 . S
H114 C119 0.929 1_565 S
H115 C121 0.930 . S
C116 H113 0.929 . S
C116 C117 1.398 . S
C116 C118 1.396 . S
C117 C116 1.398 . S
C117 C121 1.407 . S
C118 C116 1.396 . S
C118 C119 1.394 . S
C119 H114 0.929 1_545 S
C119 C118 1.394 . S
C119 C120 1.382 . S
C120 C119 1.382 . S
C120 C121 1.392 . S
C120 N122 1.420 1_545 S
C121 H115 0.930 . S
C121 C117 1.407 . S
C121 C120 1.392 . S
N122 C120 1.420 1_565 S
N122 C123 1.244 . S
C123 N122 1.244 . S
H124 C127 0.929 . S
H125 C130 0.929 . S
H126 C132 0.930 . S
C127 H124 0.929 . S
C127 C128 1.398 . S
C127 C129 1.396 . S
C128 C127 1.398 . S
C128 C132 1.407 . S
C129 C127 1.396 . S
C129 C130 1.394 . S
C130 H125 0.929 . S
C130 C129 1.394 . S
C130 C131 1.382 . S
C131 C130 1.382 . S
C131 C132 1.392 . S
C131 N133 1.420 . S
C132 H126 0.930 . S
C132 C128 1.407 . S
C132 C131 1.392 . S
N133 C131 1.420 . S
N133 C134 1.244 . S
C134 N133 1.244 . S
C135 C136 1.387 . S
C135 H139 0.950 . S
C135 C144 1.390 . S
C136 C135 1.387 . S
C136 C138 1.387 . S
H137 C144 0.950 . S
C138 C136 1.387 . S
C138 C140 1.390 . S
C138 H142 0.950 . S
H139 C135 0.950 . S
C140 C138 1.390 . S
C140 C141 1.387 . S
C140 H143 0.950 . S
C141 C140 1.387 . S
C141 C144 1.387 . S
H142 C138 0.950 . S
H143 C140 0.950 . S
C144 C135 1.390 . S
C144 H137 0.950 . S
C144 C141 1.387 . S
C145 C146 1.387 . S
C145 H149 0.950 . S
C145 C154 1.390 . S
C146 C145 1.387 . S
C146 C148 1.387 . S
H147 C154 0.950 . S
C148 C146 1.387 . S
C148 C150 1.390 . S
C148 H152 0.950 . S
H149 C145 0.950 . S
C150 C148 1.390 . S
C150 C151 1.387 . S
C150 H153 0.950 . S
C151 C150 1.387 . S
C151 C154 1.387 . S
H152 C148 0.950 . S
H153 C150 0.950 . S
C154 C145 1.390 . S
C154 H147 0.950 . S
C154 C151 1.387 . S
C155 C156 1.387 . S
C155 H159 0.950 . S
C155 C164 1.390 . S
C156 C155 1.387 . S
C156 C158 1.387 . S
H157 C164 0.950 . S
C158 C156 1.387 . S
C158 C160 1.390 . S
C158 H162 0.950 . S
H159 C155 0.950 . S
C160 C158 1.390 . S
C160 C161 1.387 . S
C160 H163 0.950 . S
C161 C160 1.387 . S
C161 C164 1.387 . S
H162 C158 0.950 . S
H163 C160 0.950 . S
C164 C155 1.390 . S
C164 H157 0.950 . S
C164 C161 1.387 . S
C165 C166 1.387 . S
C165 H169 0.950 . S
C165 C174 1.390 . S
C166 C165 1.387 . S
C166 C168 1.387 . S
H167 C174 0.950 . S
C168 C166 1.387 . S
C168 C170 1.390 . S
C168 H172 0.950 . S
H169 C165 0.950 . S
C170 C168 1.390 . S
C170 C171 1.387 . S
C170 H173 0.950 . S
C171 C170 1.387 . S
C171 C174 1.387 . S
H172 C168 0.950 . S
H173 C170 0.950 . S
C174 C165 1.390 . S
C174 H167 0.950 . S
C174 C171 1.387 . S
C175 C176 1.387 . S
C175 H179 0.950 . S
C175 C184 1.390 . S
C176 C175 1.387 . S
C176 C178 1.387 . S
H177 C184 0.950 . S
C178 C176 1.387 . S
C178 C180 1.390 . S
C178 H182 0.950 . S
H179 C175 0.950 . S
C180 C178 1.390 . S
C180 C181 1.387 . S
C180 H183 0.950 . S
C181 C180 1.387 . S
C181 C184 1.387 . S
H182 C178 0.950 . S
H183 C180 0.950 . S
C184 C175 1.390 . S
C184 H177 0.950 . S
C184 C181 1.387 . S
C185 C186 1.387 . S
C185 H189 0.950 . S
C185 C194 1.390 . S
C186 C185 1.387 . S
C186 C188 1.387 . S
H187 C194 0.950 . S
C188 C186 1.387 . S
C188 C190 1.390 . S
C188 H192 0.950 . S
H189 C185 0.950 . S
C190 C188 1.390 . S
C190 C191 1.387 . S
C190 H193 0.950 . S
C191 C190 1.387 . S
C191 C194 1.387 . S
H192 C188 0.950 . S
H193 C190 0.950 . S
C194 C185 1.390 . S
C194 H187 0.950 . S
C194 C191 1.387 . S
C195 C196 1.387 . S
C195 H199 0.950 . S
C195 C204 1.390 . S
C196 C195 1.387 . S
C196 C198 1.387 . S
H197 C204 0.950 . S
C198 C196 1.387 . S
C198 C200 1.390 . S
C198 H202 0.950 . S
H199 C195 0.950 . S
C200 C198 1.390 . S
C200 C201 1.387 . S
C200 H203 0.950 . S
C201 C200 1.387 . S
C201 C204 1.387 . S
H202 C198 0.950 . S
H203 C200 0.950 . S
C204 C195 1.390 . S
C204 H197 0.950 . S
C204 C201 1.387 . S
C205 C206 1.387 . S
C205 H209 0.950 . S
C205 C214 1.390 . S
C206 C205 1.387 . S
C206 C208 1.387 . S
H207 C214 0.950 . S
C208 C206 1.387 . S
C208 C210 1.390 . S
C208 H212 0.950 . S
H209 C205 0.950 . S
C210 C208 1.390 . S
C210 C211 1.387 . S
C210 H213 0.950 . S
C211 C210 1.387 . S
C211 C214 1.387 . S
H212 C208 0.950 . S
H213 C210 0.950 . S
C214 C205 1.390 . S
C214 H207 0.950 . S
C214 C211 1.387 . S
C215 C216 1.387 . S
C215 H219 0.950 . S
C215 C224 1.390 . S
C216 C215 1.387 . S
C216 C218 1.387 . S
H217 C224 0.950 . S
C218 C216 1.387 . S
C218 C220 1.390 . S
C218 H222 0.950 . S
H219 C215 0.950 . S
C220 C218 1.390 . S
C220 C221 1.387 . S
C220 H223 0.950 . S
C221 C220 1.387 . S
C221 C224 1.387 . S
H222 C218 0.950 . S
H223 C220 0.950 . S
C224 C215 1.390 . S
C224 H217 0.950 . S
C224 C221 1.387 . S
C225 C226 1.387 . S
C225 H229 0.950 . S
C225 C234 1.390 . S
C226 C225 1.387 . S
C226 C228 1.387 . S
H227 C234 0.950 . S
C228 C226 1.387 . S
C228 C230 1.390 . S
C228 H232 0.950 . S
H229 C225 0.950 . S
C230 C228 1.390 . S
C230 C231 1.387 . S
C230 H233 0.950 . S
C231 C230 1.387 . S
C231 C234 1.387 . S
H232 C228 0.950 . S
H233 C230 0.950 . S
C234 C225 1.390 . S
C234 H227 0.950 . S
C234 C231 1.387 . S
C235 C236 1.387 . S
C235 H239 0.950 . S
C235 C244 1.390 . S
C236 C235 1.387 . S
C236 C238 1.387 . S
H237 C244 0.950 . S
C238 C236 1.387 . S
C238 C240 1.390 . S
C238 H242 0.950 . S
H239 C235 0.950 . S
C240 C238 1.390 . S
C240 C241 1.387 . S
C240 H243 0.950 . S
C241 C240 1.387 . S
C241 C244 1.387 . S
H242 C238 0.950 . S
H243 C240 0.950 . S
C244 C235 1.390 . S
C244 H237 0.950 . S
C244 C241 1.387 . S
C245 C246 1.387 . S
C245 H249 0.950 . S
C245 C254 1.390 . S
C246 C245 1.387 . S
C246 C248 1.387 . S
H247 C254 0.950 . S
C248 C246 1.387 . S
C248 C250 1.390 . S
C248 H252 0.950 . S
H249 C245 0.950 . S
C250 C248 1.390 . S
C250 C251 1.387 . S
C250 H253 0.950 . S
C251 C250 1.387 . S
C251 C254 1.387 . S
H252 C248 0.950 . S
H253 C250 0.950 . S
C254 C245 1.390 . S
C254 H247 0.950 . S
C254 C251 1.387 . S
C255 C256 1.387 . S
C255 H259 0.950 . S
C255 C264 1.390 1_554 S
C256 C255 1.387 . S
C256 C258 1.387 1_455 S
H257 C264 0.950 . S
C258 C256 1.387 1_655 S
C258 C260 1.390 1_554 S
C258 H262 0.950 . S
H259 C255 0.950 . S
C260 C258 1.390 1_556 S
C260 C261 1.387 1_655 S
C260 H263 0.950 . S
C261 C260 1.387 1_455 S
C261 C264 1.387 . S
H262 C258 0.950 . S
H263 C260 0.950 . S
C264 C255 1.390 1_556 S
C264 H257 0.950 . S
C264 C261 1.387 . S
C265 C266 1.387 . S
C265 H269 0.950 . S
C265 C274 1.390 . S
C266 C265 1.387 . S
C266 C268 1.387 . S
H267 C274 0.950 . S
C268 C266 1.387 . S
C268 C270 1.390 . S
C268 H272 0.950 1_545 S
H269 C265 0.950 . S
C270 C268 1.390 . S
C270 C271 1.387 . S
C270 H273 0.950 1_545 S
C271 C270 1.387 . S
C271 C274 1.387 . S
H272 C268 0.950 1_565 S
H273 C270 0.950 1_565 S
C274 C265 1.390 . S
C274 H267 0.950 . S
C274 C271 1.387 . S
C275 C276 1.387 . S
C275 H279 0.950 . S
C275 C284 1.390 . S
C276 C275 1.387 . S
C276 C278 1.387 . S
H277 C284 0.950 . S
C278 C276 1.387 . S
C278 C280 1.390 . S
C278 H282 0.950 . S
H279 C275 0.950 . S
C280 C278 1.390 . S
C280 C281 1.387 . S
C280 H283 0.950 . S
C281 C280 1.387 . S
C281 C284 1.387 . S
H282 C278 0.950 . S
H283 C280 0.950 . S
C284 C275 1.390 . S
C284 H277 0.950 . S
C284 C281 1.387 . S
C285 C286 1.380 1_565 S
C285 H289 0.956 . S
C285 C294 1.392 . S
C286 C285 1.380 1_545 S
C286 C288 1.387 . S
H287 C294 0.950 . S
C288 C286 1.387 . S
C288 C290 1.390 . S
C288 H292 0.950 . S
H289 C285 0.956 . S
C290 C288 1.390 . S
C290 C291 1.387 . S
C290 H293 0.950 . S
C291 C290 1.387 . S
C291 C294 1.387 1_545 S
H292 C288 0.950 . S
H293 C290 0.950 . S
C294 C285 1.392 . S
C294 H287 0.950 . S
C294 C291 1.387 1_565 S
C295 C296 1.387 . S
C295 H299 0.950 . S
C295 C304 1.390 1_556 S
C296 C295 1.387 . S
C296 C298 1.387 . S
H297 C304 0.950 . S
C298 C296 1.387 . S
C298 C300 1.390 1_556 S
C298 H302 0.950 . S
H299 C295 0.950 . S
C300 C298 1.390 1_554 S
C300 C301 1.387 . S
C300 H303 0.950 . S
C301 C300 1.387 . S
C301 C304 1.387 . S
H302 C298 0.950 . S
H303 C300 0.950 . S
C304 C295 1.390 1_554 S
C304 H297 0.950 . S
C304 C301 1.387 . S
C305 C306 1.387 . S
C305 H309 0.950 . S
C305 C314 1.390 . S
C306 C305 1.387 . S
C306 C308 1.387 . S
H307 C314 0.950 . S
C308 C306 1.387 . S
C308 C310 1.390 . S
C308 H312 0.950 1_455 S
H309 C305 0.950 . S
C310 C308 1.390 . S
C310 C311 1.387 . S
C310 H313 0.950 1_455 S
C311 C310 1.387 . S
C311 C314 1.387 . S
H312 C308 0.950 1_655 S
H313 C310 0.950 1_655 S
C314 C305 1.390 . S
C314 H307 0.950 . S
C314 C311 1.387 . S
C136 C20 1.352 . S
C141 C134 1.374 . S
C146 C41 1.400 . S
C151 C112 1.382 . S
C156 C64 1.435 . S
C161 C123 1.419 . S
C166 C19 1.368 . S
C171 C128 1.468 . S
C181 C106 1.424 . S
C176 C44 1.403 . S
C191 C117 1.365 . S
C186 C67 1.356 . S
C196 C43 1.349 . S
C201 C90 1.373 . S
C206 C66 1.286 . S
C211 C95 1.352 . S
C216 C21 1.402 . S
C221 C73 1.423 . S
C231 C84 1.447 . S
C226 C42 1.352 . S
C241 C101 1.416 . S
C236 C65 1.367 . S
C246 C18 1.402 . S
C251 C79 1.384 . S
C261 C96 1.524 . S
C256 C17 1.523 . S
C266 C39 1.537 . S
C271 C74 1.531 . S
C276 C62 1.533 . S
C281 C85 1.525 . S
C291 C118 1.519 . S
C286 C40 1.516 . S
C301 C129 1.515 . S
C296 C63 1.523 . S
C306 C16 1.533 . S
C311 C107 1.526 . S
