# Generated by pormake.
# Topology apo, (3,6)-cn, num edge types: 1
# Building blocks:
#     Node 0, Type 0, BuildingBlock: QEWDON_clean_linker_0, # of connection points: 3
#     Node 1, Type 0, BuildingBlock: QEWDON_clean_linker_0, # of connection points: 3
#     Node 2, Type 0, BuildingBlock: QEWDON_clean_linker_0, # of connection points: 3
#     Node 3, Type 0, BuildingBlock: QEWDON_clean_linker_0, # of connection points: 3
#     Node 4, Type 0, BuildingBlock: QEWDON_clean_linker_0, # of connection points: 3
#     Node 5, Type 0, BuildingBlock: QEWDON_clean_linker_0, # of connection points: 3
#     Node 6, Type 0, BuildingBlock: QEWDON_clean_linker_0, # of connection points: 3
#     Node 7, Type 0, BuildingBlock: QEWDON_clean_linker_0, # of connection points: 3
#     Node 8, Type 1, BuildingBlock: KUMBOL_clean_sbu_1, # of connection points: 6
#     Node 9, Type 1, BuildingBlock: KUMBOL_clean_sbu_1, # of connection points: 6
#     Node 10, Type 1, BuildingBlock: KUMBOL_clean_sbu_1, # of connection points: 6
#     Node 11, Type 1, BuildingBlock: KUMBOL_clean_sbu_1, # of connection points: 6
#     Edge 12, Type (0, 1), BuildingBlock: XUDNAN_clean_linker_2, # of connection points: 2
#     Edge 13, Type (0, 1), BuildingBlock: XUDNAN_clean_linker_2, # of connection points: 2
#     Edge 14, Type (0, 1), BuildingBlock: XUDNAN_clean_linker_2, # of connection points: 2
#     Edge 15, Type (0, 1), BuildingBlock: XUDNAN_clean_linker_2, # of connection points: 2
#     Edge 16, Type (0, 1), BuildingBlock: XUDNAN_clean_linker_2, # of connection points: 2
#     Edge 17, Type (0, 1), BuildingBlock: XUDNAN_clean_linker_2, # of connection points: 2
#     Edge 18, Type (0, 1), BuildingBlock: XUDNAN_clean_linker_2, # of connection points: 2
#     Edge 19, Type (0, 1), BuildingBlock: XUDNAN_clean_linker_2, # of connection points: 2
#     Edge 20, Type (0, 1), BuildingBlock: XUDNAN_clean_linker_2, # of connection points: 2
#     Edge 21, Type (0, 1), BuildingBlock: XUDNAN_clean_linker_2, # of connection points: 2
#     Edge 22, Type (0, 1), BuildingBlock: XUDNAN_clean_linker_2, # of connection points: 2
#     Edge 23, Type (0, 1), BuildingBlock: XUDNAN_clean_linker_2, # of connection points: 2
#     Edge 24, Type (0, 1), BuildingBlock: XUDNAN_clean_linker_2, # of connection points: 2
#     Edge 25, Type (0, 1), BuildingBlock: XUDNAN_clean_linker_2, # of connection points: 2
#     Edge 26, Type (0, 1), BuildingBlock: XUDNAN_clean_linker_2, # of connection points: 2
#     Edge 27, Type (0, 1), BuildingBlock: XUDNAN_clean_linker_2, # of connection points: 2
#     Edge 28, Type (0, 1), BuildingBlock: XUDNAN_clean_linker_2, # of connection points: 2
#     Edge 29, Type (0, 1), BuildingBlock: XUDNAN_clean_linker_2, # of connection points: 2
#     Edge 30, Type (0, 1), BuildingBlock: XUDNAN_clean_linker_2, # of connection points: 2
#     Edge 31, Type (0, 1), BuildingBlock: XUDNAN_clean_linker_2, # of connection points: 2
#     Edge 32, Type (0, 1), BuildingBlock: XUDNAN_clean_linker_2, # of connection points: 2
#     Edge 33, Type (0, 1), BuildingBlock: XUDNAN_clean_linker_2, # of connection points: 2
#     Edge 34, Type (0, 1), BuildingBlock: XUDNAN_clean_linker_2, # of connection points: 2
#     Edge 35, Type (0, 1), BuildingBlock: XUDNAN_clean_linker_2, # of connection points: 2
# Relax obj value: 0.074
# Max RMSD: 0.260
# Mean RMSD: 0.207
data_MOF--net-apo--node1-KUMBOL_clean_sbu_1--node2-QEWDON_clean_linker_0--edge1-XUDNAN_clean_linker_2
_symmetry_space_group_name_H-M    P1
_symmetry_Int_Tables_number       1
_symmetry_cell_setting            triclinic
loop_
_symmetry_equiv_pos_as_xyz
'x, y, z'
_cell_length_a     30.11442
_cell_length_b     43.209267
_cell_length_c     51.651985
_cell_angle_alpha  89.929198
_cell_angle_beta   90.1076
_cell_angle_gamma 90.255596
loop_
_atom_site_label
_atom_site_type_symbol
_atom_site_fract_x
_atom_site_fract_y
_atom_site_fract_z
_atom_type_partial_charge
H0 H 0.26944 0.42269 0.3785 0.0
C1 C 0.28586 0.41816 0.39683 0.0
C2 C 0.32322 0.43567 0.40389 0.0
C3 C 0.2686 0.39552 0.4135 0.0
H4 H 0.37168 0.44461 0.43372 0.0
C5 C 0.34331 0.4306 0.42809 0.0
C6 C 0.32588 0.40841 0.44539 0.0
C7 C 0.28877 0.39057 0.4377 0.0
C8 C 0.22564 0.38082 0.40692 0.0
H9 H 0.27406 0.37409 0.45105 0.0
C10 C 0.22318 0.35082 0.39629 0.0
C11 C 0.18205 0.33893 0.38757 0.0
C12 C 0.18681 0.39837 0.40941 0.0
H13 H 0.18819 0.42154 0.41739 0.0
C14 C 0.14605 0.38644 0.40127 0.0
H15 H 0.25317 0.33732 0.39401 0.0
C16 C 0.14365 0.35704 0.39025 0.0
H17 H 0.11162 0.34829 0.38398 0.0
H18 H 0.11627 0.40016 0.40324 0.0
H19 H 0.22689 0.10605 0.87616 0.0
C20 C 0.2175 0.11003 0.89614 0.0
C21 C 0.17729 0.09801 0.90553 0.0
C22 C 0.24566 0.12726 0.91234 0.0
H23 H 0.1348 0.09339 0.93882 0.0
C24 C 0.16576 0.10288 0.93157 0.0
C25 C 0.19429 0.11926 0.94838 0.0
C26 C 0.23403 0.13183 0.93839 0.0
C27 C 0.28938 0.13753 0.90255 0.0
H28 H 0.25695 0.14394 0.95107 0.0
C29 C 0.29641 0.16804 0.89374 0.0
C30 C 0.33773 0.17674 0.88296 0.0
C31 C 0.32385 0.11594 0.90093 0.0
H32 H 0.31886 0.09236 0.90751 0.0
C33 C 0.3649 0.12453 0.8907 0.0
H34 H 0.26952 0.18459 0.89463 0.0
C35 C 0.37184 0.15463 0.88173 0.0
H36 H 0.40416 0.16069 0.87401 0.0
H37 H 0.39141 0.10776 0.88962 0.0
H38 H 0.75506 0.11272 0.6591 0.0
C39 C 0.76413 0.1151 0.63891 0.0
C40 C 0.8028 0.10082 0.6293 0.0
C41 C 0.73615 0.1319 0.62226 0.0
H42 H 0.84123 0.09246 0.59448 0.0
C43 C 0.81275 0.10403 0.60272 0.0
C44 C 0.78623 0.12202 0.58629 0.0
C45 C 0.74788 0.13581 0.59617 0.0
C46 C 0.69224 0.14272 0.63108 0.0
H47 H 0.72634 0.14884 0.58335 0.0
C48 C 0.688 0.16688 0.64917 0.0
C49 C 0.64557 0.17815 0.65573 0.0
C50 C 0.65397 0.12938 0.62018 0.0
H51 H 0.65665 0.11078 0.60623 0.0
C52 C 0.612 0.1399 0.62714 0.0
H53 H 0.71754 0.17757 0.65726 0.0
C54 C 0.60774 0.16417 0.64469 0.0
H55 H 0.57472 0.17196 0.64972 0.0
H56 H 0.58266 0.12937 0.61873 0.0
H57 H 0.75904 0.39148 0.15986 0.0
C58 C 0.74439 0.39091 0.14068 0.0
C59 C 0.70544 0.40787 0.1355 0.0
C60 C 0.76601 0.37476 0.12076 0.0
H61 H 0.65739 0.42025 0.10608 0.0
C62 C 0.68749 0.40751 0.11027 0.0
C63 C 0.70859 0.39126 0.09028 0.0
C64 C 0.74774 0.37506 0.09571 0.0
C65 C 0.80905 0.35888 0.12525 0.0
H66 H 0.76391 0.36231 0.08034 0.0
C67 C 0.81495 0.33774 0.14582 0.0
C68 C 0.85489 0.32098 0.14808 0.0
C69 C 0.84416 0.36396 0.1078 0.0
H70 H 0.84077 0.38038 0.09206 0.0
C71 C 0.88392 0.34789 0.11036 0.0
H72 H 0.78809 0.33341 0.1593 0.0
C73 C 0.88919 0.32636 0.1302 0.0
H74 H 0.92034 0.31402 0.13173 0.0
H75 H 0.91066 0.35197 0.09679 0.0
H76 H 0.67787 0.63741 0.66321 0.0
C77 C 0.67132 0.63311 0.64289 0.0
C78 C 0.65837 0.60327 0.63464 0.0
C79 C 0.67393 0.6576 0.62495 0.0
H80 H 0.63603 0.57557 0.60228 0.0
C81 C 0.6478 0.59816 0.6084 0.0
C82 C 0.64917 0.6226 0.5905 0.0
C83 C 0.66356 0.65183 0.59884 0.0
C84 C 0.68155 0.69025 0.63306 0.0
H85 H 0.66515 0.67069 0.58498 0.0
C86 C 0.71968 0.69986 0.64702 0.0
C87 C 0.72771 0.73181 0.65158 0.0
C88 C 0.65087 0.71259 0.62475 0.0
H89 H 0.62103 0.70584 0.6144 0.0
C90 C 0.65872 0.74385 0.62893 0.0
H91 H 0.74302 0.68266 0.65381 0.0
C92 C 0.69699 0.75344 0.64171 0.0
H93 H 0.70256 0.77811 0.64346 0.0
H94 H 0.63535 0.76083 0.62179 0.0
H95 H 0.83964 0.87408 0.16306 0.0
C96 C 0.83922 0.88235 0.14325 0.0
C97 C 0.85675 0.91179 0.13706 0.0
C98 C 0.8232 0.86263 0.12379 0.0
H99 H 0.87143 0.9434 0.1056 0.0
C100 C 0.85681 0.92135 0.11096 0.0
C101 C 0.83974 0.90204 0.09142 0.0
C102 C 0.82287 0.87277 0.09802 0.0
C103 C 0.81566 0.82953 0.12942 0.0
H104 H 0.81196 0.85707 0.08289 0.0
C105 C 0.77447 0.8182 0.13832 0.0
C106 C 0.76852 0.78618 0.14227 0.0
C107 C 0.85063 0.80884 0.12498 0.0
H108 H 0.88249 0.81723 0.11813 0.0
C109 C 0.84479 0.77723 0.12918 0.0
H110 H 0.74721 0.834 0.14164 0.0
C111 C 0.80394 0.76591 0.13766 0.0
H112 H 0.79987 0.74122 0.14063 0.0
H113 H 0.87192 0.76143 0.12568 0.0
H114 H 0.20203 0.86202 0.37326 0.0
C115 C 0.19084 0.86567 0.3929 0.0
C116 C 0.1693 0.89354 0.39983 0.0
C117 C 0.19642 0.84165 0.41094 0.0
H118 H 0.13671 0.91761 0.43142 0.0
C119 C 0.15501 0.89722 0.42575 0.0
C120 C 0.16182 0.87376 0.44423 0.0
C121 C 0.1832 0.84647 0.43665 0.0
C122 C 0.21133 0.8102 0.40285 0.0
H123 H 0.18885 0.82842 0.45086 0.0
C124 C 0.24752 0.80557 0.38587 0.0
C125 C 0.26118 0.77524 0.37953 0.0
C126 C 0.18828 0.78416 0.41241 0.0
H127 H 0.15961 0.78682 0.42484 0.0
C128 C 0.2014 0.75435 0.40591 0.0
H129 H 0.26567 0.82527 0.37826 0.0
C130 C 0.23763 0.74986 0.38973 0.0
H131 H 0.2469 0.72638 0.38485 0.0
H132 H 0.18329 0.73459 0.41342 0.0
H133 H 0.30315 0.63538 0.86953 0.0
C134 C 0.30528 0.63336 0.89042 0.0
C135 C 0.3159 0.60485 0.9018 0.0
C136 C 0.29776 0.65956 0.90572 0.0
H137 H 0.33014 0.58149 0.9376 0.0
C138 C 0.31944 0.60304 0.92896 0.0
C139 C 0.31144 0.62902 0.94485 0.0
C140 C 0.30014 0.65728 0.93282 0.0
C141 C 0.2928 0.68988 0.89288 0.0
H142 H 0.29398 0.67776 0.94431 0.0
C143 C 0.25093 0.70379 0.88966 0.0
C144 C 0.24712 0.73124 0.8751 0.0
C145 C 0.33056 0.70389 0.88201 0.0
H146 H 0.36294 0.69334 0.88417 0.0
C147 C 0.32679 0.73132 0.86796 0.0
H148 H 0.22154 0.69292 0.89772 0.0
C149 C 0.28529 0.74485 0.86436 0.0
H150 H 0.2829 0.76601 0.85316 0.0
H151 H 0.35606 0.74194 0.85958 0.0
C152 C 0.90162 0.06855 0.28022 0.0
C153 C 0.90956 0.01503 0.29403 0.0
C154 C 0.92433 0.04601 0.29411 0.0
C155 C 0.87167 1.00691 0.27964 0.0
C156 C 0.86258 0.06062 0.26658 0.0
C157 C 0.84824 0.02964 0.26596 0.0
N158 N 0.91687 0.09832 0.2808 0.0
C159 C 0.89079 0.1216 0.27149 0.0
C160 C 0.83847 0.0842 0.25454 0.0
C161 C 0.85205 0.1149 0.25757 0.0
Gd162 Gd 0.07 0.12043 0.24347 0.0
Gd163 Gd 0.98461 0.10618 0.30323 0.0
N164 N 0.96202 0.05434 0.30696 0.0
C165 C 0.93372 0.9931 0.30816 0.0
C166 C 0.98509 0.03329 0.32128 0.0
C167 C 0.97145 1.00232 0.322 0.0
H168 H 0.01416 0.04043 0.33201 0.0
H169 H 0.99015 0.98559 0.33312 0.0
H170 H 0.03007 0.17399 0.20323 0.0
H171 H 0.89873 0.14546 0.27534 0.0
H172 H 0.04833 0.22738 0.18938 0.0
H173 H 0.92347 0.96903 0.30856 0.0
H174 H 0.86003 0.98316 0.27911 0.0
H175 H 0.15646 0.09687 0.28122 0.0
H176 H 0.80831 0.07909 0.24386 0.0
H177 H 0.83224 0.13348 0.24962 0.0
H178 H 0.18474 0.25046 0.23355 0.0
H179 H 0.81865 0.0231 0.25528 0.0
H180 H 0.24677 0.17263 0.28869 0.0
H181 H 0.22443 0.11909 0.29965 0.0
N182 N 0.13775 0.13801 0.26128 0.0
C183 C 0.15074 0.16696 0.2539 0.0
C184 C 0.16449 0.12054 0.27683 0.0
C185 C 0.21635 0.16311 0.2807 0.0
C186 C 0.20373 0.13294 0.28704 0.0
C187 C 0.19008 0.18041 0.26371 0.0
H188 H 0.23203 0.22129 0.2637 0.0
N189 N 0.0859 0.1702 0.22803 0.0
C190 C 0.12399 0.18351 0.23687 0.0
C191 C 0.10812 0.22974 0.21221 0.0
C192 C 0.13596 0.21379 0.22931 0.0
C193 C 0.05908 0.18536 0.21099 0.0
C194 C 0.06965 0.21539 0.2029 0.0
O195 O 0.99802 0.06888 0.27359 0.0
O196 O 0.00469 0.0961 0.23599 0.0
O197 O 0.08355 0.12223 0.20161 0.0
O198 O 0.10955 0.08468 0.2257 0.0
O199 O 0.05507 0.09102 0.31093 0.0
O200 O 0.08247 0.07919 0.27014 0.0
O201 O 0.06691 0.15731 0.27469 0.0
O202 O 0.04796 0.13227 0.31269 0.0
O203 O 0.97723 0.09642 0.34432 0.0
O204 O 0.94034 0.13371 0.32716 0.0
O205 O 0.99903 0.13593 0.23835 0.0
O206 O 0.97867 0.15052 0.27965 0.0
C207 C 0.99338 0.07088 0.24846 0.0
C208 C 0.07965 0.0741 0.29537 0.0
C209 C 0.12794 0.08222 0.17991 0.0
C210 C 0.14716 0.08121 0.13374 0.0
C211 C 0.16813 0.03856 0.16199 0.0
C212 C 0.14849 0.0533 0.18298 0.0
C213 C 0.16753 0.05232 0.1376 0.0
C214 C 0.12754 0.09624 0.15516 0.0
C215 C 0.10652 0.09682 0.20264 0.0
C216 C 0.17509 0.22719 0.23908 0.0
C217 C 0.20201 0.21058 0.25627 0.0
H218 H 0.11617 0.25304 0.20594 0.0
C219 C 0.06834 0.15458 0.3 0.0
C220 C 0.97838 0.15477 0.25431 0.0
C221 C 0.90713 0.10696 0.36213 0.0
C222 C 0.86429 0.10466 0.40222 0.0
C223 C 0.8393 0.07649 0.36415 0.0
C224 C 0.87574 0.08756 0.35025 0.0
C225 C 0.83369 0.0848 0.39003 0.0
C226 C 0.90105 0.11579 0.38809 0.0
C227 C 0.94692 0.11723 0.3479 0.0
H228 H 0.18397 0.01634 0.16465 0.0
H229 H 0.1493 0.04189 0.20166 0.0
H230 H 0.18368 0.04045 0.12176 0.0
H231 H 0.11158 0.11844 0.15249 0.0
H232 H 0.81534 0.06142 0.35482 0.0
H233 H 0.87939 0.08088 0.33029 0.0
H234 H 0.80501 0.0761 0.40042 0.0
H235 H 0.9252 0.1308 0.39738 0.0
C236 C 0.61968 0.45293 0.78745 0.0
C237 C 0.59933 0.50474 0.80052 0.0
C238 C 0.58955 0.47286 0.7988 0.0
C239 C 0.63843 0.5164 0.78926 0.0
C240 C 0.6598 0.46426 0.77704 0.0
C241 C 0.6686 0.4962 0.77753 0.0
N242 N 0.60959 0.42231 0.78657 0.0
C243 C 0.63938 0.40137 0.77732 0.0
C244 C 0.68989 0.44308 0.76657 0.0
C245 C 0.67986 0.41145 0.767 0.0
Gd246 Gd 0.44969 0.40101 0.74382 0.0
Gd247 Gd 0.53993 0.40748 0.8026 0.0
N248 N 0.55181 0.46086 0.80927 0.0
C249 C 0.57033 0.52374 0.81433 0.0
C250 C 0.52547 0.47885 0.82454 0.0
C251 C 0.53396 0.51055 0.82698 0.0
H252 H 0.49837 0.46882 0.83536 0.0
H253 H 0.51293 0.52466 0.83902 0.0
H254 H 0.45004 0.32722 0.7258 0.0
H255 H 0.63141 0.37698 0.7775 0.0
H256 H 0.40175 0.28078 0.72958 0.0
H257 H 0.57679 0.54832 0.81631 0.0
H258 H 0.64615 0.5409 0.79007 0.0
H259 H 0.38039 0.46192 0.75085 0.0
H260 H 0.72111 0.45085 0.75837 0.0
H261 H 0.70315 0.39487 0.75926 0.0
H262 H 0.27156 0.31818 0.77304 0.0
H263 H 0.69897 0.50543 0.76932 0.0
H264 H 0.25815 0.42809 0.78244 0.0
H265 H 0.30586 0.47187 0.76866 0.0
N266 N 0.37684 0.41321 0.75703 0.0
C267 C 0.34991 0.38883 0.76261 0.0
C268 C 0.36049 0.44266 0.75759 0.0
C269 C 0.29124 0.42363 0.77518 0.0
C270 C 0.31802 0.44839 0.76737 0.0
C271 C 0.3065 0.39332 0.77203 0.0
H272 H 0.24581 0.37048 0.7843 0.0
N273 N 0.40527 0.35634 0.74596 0.0
C274 C 0.36434 0.35943 0.75648 0.0
C275 C 0.35001 0.30497 0.74995 0.0
C276 C 0.33589 0.33369 0.75931 0.0
C277 C 0.41818 0.3289 0.73529 0.0
C278 C 0.39102 0.30269 0.73747 0.0
O279 O 0.55528 0.41954 0.76069 0.0
O280 O 0.49286 0.44364 0.74645 0.0
O281 O 0.4742 0.39371 0.70484 0.0
O282 O 0.4089 0.41266 0.71024 0.0
O283 O 0.47103 0.42627 0.80892 0.0
O284 O 0.45081 0.44463 0.76877 0.0
O285 O 0.45492 0.36243 0.77367 0.0
O286 O 0.47174 0.38789 0.81128 0.0
O287 O 0.56126 0.41531 0.84233 0.0
O288 O 0.56957 0.37024 0.82495 0.0
O289 O 0.51272 0.37256 0.73938 0.0
O290 O 0.54515 0.36303 0.77984 0.0
C291 C 0.53621 0.44196 0.74771 0.0
C292 C 0.44762 0.4449 0.79419 0.0
C293 C 0.44604 0.42461 0.67099 0.0
C294 C 0.43826 0.43318 0.62422 0.0
C295 C 0.47976 0.4697 0.65108 0.0
C296 C 0.47107 0.45189 0.67309 0.0
C297 C 0.46371 0.46045 0.62685 0.0
C298 C 0.42945 0.41548 0.64666 0.0
C299 C 0.43883 0.4044 0.69357 0.0
C300 C 0.29369 0.33774 0.77031 0.0
C301 C 0.27906 0.36753 0.77674 0.0
H302 H 0.3289 0.28469 0.75149 0.0
C303 C 0.45246 0.36495 0.79892 0.0
C304 C 0.5392 0.35671 0.75503 0.0
C305 C 0.61758 0.38359 0.85997 0.0
C306 C 0.65489 0.38121 0.90218 0.0
C307 C 0.69568 0.37071 0.86238 0.0
C308 C 0.65741 0.37575 0.84769 0.0
C309 C 0.69448 0.37315 0.88937 0.0
C310 C 0.61666 0.38672 0.88705 0.0
C311 C 0.57584 0.38731 0.84541 0.0
H312 H 0.49958 0.49054 0.65272 0.0
H313 H 0.48429 0.45917 0.69163 0.0
H314 H 0.4721 0.4744 0.61012 0.0
H315 H 0.40974 0.3945 0.64533 0.0
H316 H 0.72629 0.36438 0.85284 0.0
H317 H 0.65884 0.37314 0.82688 0.0
H318 H 0.72443 0.36805 0.90015 0.0
H319 H 0.58584 0.39337 0.89625 0.0
C320 C 0.83501 0.88733 0.78764 0.0
C321 C 0.82929 0.83163 0.79307 0.0
C322 C 0.85527 0.85877 0.79123 0.0
C323 C 0.78281 0.83365 0.79174 0.0
C324 C 0.78841 0.88932 0.78554 0.0
C325 C 0.76244 0.86238 0.78782 0.0
N326 N 0.86074 0.9132 0.78661 0.0
C327 C 0.84226 0.9417 0.78333 0.0
C328 C 0.76924 0.91842 0.78158 0.0
C329 C 0.79632 0.94472 0.7804 0.0
Gd330 Gd 0.03823 0.90217 0.74329 0.0
Gd331 Gd 0.93651 0.90573 0.79395 0.0
N332 N 0.90032 0.85757 0.79305 0.0
C333 C 0.85079 0.80326 0.79652 0.0
C334 C 0.92129 0.83014 0.79747 0.0
C335 C 0.89698 0.80254 0.79873 0.0
H336 H 0.95666 0.82939 0.80006 0.0
H337 H 0.91384 0.78077 0.80183 0.0
H338 H 0.02776 0.97944 0.73805 0.0
H339 H 0.86287 0.96223 0.78376 0.0
H340 H 0.07507 0.02604 0.74104 0.0
H341 H 0.83201 0.78187 0.79782 0.0
H342 H 0.76231 0.81307 0.79334 0.0
H343 H 0.10594 0.84175 0.75219 0.0
H344 H 0.73358 0.92087 0.77972 0.0
H345 H 0.78177 0.96736 0.77773 0.0
H346 H 0.21883 0.98641 0.76309 0.0
H347 H 0.72657 0.86349 0.78649 0.0
H348 H 0.23596 0.87657 0.76939 0.0
H349 H 0.18508 0.8325 0.76232 0.0
N350 N 0.11201 0.89067 0.75414 0.0
C351 C 0.13982 0.91532 0.75701 0.0
C352 C 0.12768 0.86116 0.75596 0.0
C353 C 0.20123 0.88083 0.76523 0.0
C354 C 0.17246 0.85583 0.7615 0.0
C355 C 0.1852 0.91103 0.76275 0.0
H356 H 0.24827 0.93399 0.76961 0.0
N357 N 0.07951 0.94834 0.74735 0.0
C358 C 0.12326 0.94496 0.75332 0.0
C359 C 0.13384 1.00039 0.75104 0.0
C360 C 0.15156 0.97094 0.75537 0.0
C361 C 0.06243 0.97693 0.74231 0.0
C362 C 0.08911 1.00337 0.74441 0.0
O363 O 0.92472 0.87917 0.75686 0.0
O364 O 0.99288 0.86 0.74432 0.0
O365 O 0.02832 0.91503 0.70295 0.0
O366 O 0.07625 0.87998 0.71276 0.0
O367 O 1.00392 0.88626 0.80492 0.0
O368 O 0.03207 0.86088 0.76972 0.0
O369 O 0.04623 0.93187 0.78005 0.0
O370 O 0.97611 0.94919 0.79001 0.0
O371 O 0.94735 0.89209 0.83386 0.0
O372 O 0.90068 0.92857 0.82503 0.0
O373 O 0.97364 0.92426 0.73065 0.0
O374 O 0.93657 0.94595 0.76543 0.0
C375 C 0.94912 0.8599 0.74328 0.0
C376 C 0.0266 0.86334 0.79486 0.0
C377 C 0.09009 0.90959 0.67501 0.0
C378 C 0.1159 0.91279 0.62999 0.0
C379 C 0.15506 0.94036 0.66435 0.0
C380 C 0.12499 0.9291 0.6826 0.0
C381 C 0.15086 0.93216 0.63833 0.0
C382 C 0.08533 0.90179 0.64869 0.0
C383 C 0.05905 0.89663 0.69433 0.0
C384 C 0.1966 0.96672 0.76141 0.0
C385 C 0.21334 0.93687 0.76517 0.0
H386 H 0.15445 0.02092 0.75263 0.0
C387 C 0.01934 0.95145 0.79179 0.0
C388 C 0.94798 0.94563 0.7407 0.0
C389 C 0.93627 0.93017 0.86578 0.0
C390 C 0.92893 0.94342 0.91162 0.0
C391 C 0.98851 0.96579 0.88565 0.0
C392 C 0.97384 0.94922 0.86407 0.0
C393 C 0.9662 0.96305 0.90925 0.0
C394 C 0.91414 0.92712 0.88955 0.0
C395 C 0.92027 0.91274 0.84317 0.0
H396 H 0.18218 0.95518 0.67048 0.0
H397 H 0.12933 0.93541 0.70261 0.0
H398 H 0.17577 0.94049 0.62492 0.0
H399 H 0.05779 0.88711 0.64291 0.0
H400 H 0.01737 0.98071 0.88409 0.0
H401 H 0.99186 0.95101 0.84612 0.0
H402 H 0.97809 0.97642 0.92559 0.0
H403 H 0.88599 0.91149 0.89086 0.0
C404 C 0.66739 0.62904 0.27714 0.0
C405 C 0.6824 0.68294 0.28749 0.0
C406 C 0.65261 0.65781 0.28538 0.0
C407 C 0.72684 0.67918 0.27999 0.0
C408 C 0.7124 0.62502 0.27036 0.0
C409 C 0.74168 0.6504 0.27117 0.0
N410 N 0.6388 0.60455 0.2778 0.0
C411 C 0.65446 0.57518 0.2745 0.0
C412 C 0.72724 0.59529 0.26426 0.0
C413 C 0.6983 0.57019 0.2668 0.0
Gd414 Gd 0.47891 0.61386 0.2299 0.0
Gd415 Gd 0.56573 0.61621 0.29077 0.0
N416 N 0.60947 0.66087 0.29252 0.0
C417 C 0.66681 0.71095 0.29758 0.0
C418 C 0.59446 0.68764 0.30338 0.0
C419 C 0.62271 0.71326 0.30566 0.0
H420 H 0.5606 0.68915 0.31014 0.0
H421 H 0.6106 0.73464 0.31387 0.0
H422 H 0.50966 0.54973 0.19693 0.0
H423 H 0.63389 0.55534 0.27861 0.0
H424 H 0.48529 0.49549 0.19274 0.0
H425 H 0.68871 0.73078 0.29952 0.0
H426 H 0.75016 0.69829 0.28127 0.0
H427 H 0.39183 0.65351 0.2511 0.0
H428 H 0.76149 0.59127 0.25888 0.0
H429 H 0.71009 0.54688 0.26359 0.0
H430 H 0.34386 0.49303 0.2354 0.0
H431 H 0.77627 0.64773 0.26593 0.0
H432 H 0.28531 0.58964 0.26538 0.0
H433 H 0.31498 0.64319 0.26588 0.0
N434 N 0.40529 0.60632 0.24304 0.0
C435 C 0.38892 0.57707 0.24126 0.0
C436 C 0.37899 0.63015 0.2509 0.0
C437 C 0.3189 0.59409 0.25885 0.0
C438 C 0.33554 0.62435 0.25918 0.0
C439 C 0.34549 0.57002 0.24955 0.0
H440 H 0.29679 0.53343 0.2545 0.0
N441 N 0.45644 0.56249 0.22164 0.0
C442 C 0.41563 0.55435 0.23066 0.0
C443 C 0.42555 0.50223 0.2149 0.0
C444 C 0.3993 0.5239 0.22784 0.0
C445 C 0.48013 0.54224 0.20691 0.0
C446 C 0.46574 0.51164 0.20391 0.0
O447 O 0.56937 0.65422 0.26013 0.0
O448 O 0.5513 0.62464 0.22559 0.0
O449 O 0.45718 0.60893 0.18979 0.0
O450 O 0.46517 0.6544 0.20645 0.0
O451 O 0.50436 0.64606 0.29464 0.0
O452 O 0.47832 0.65841 0.25324 0.0
O453 O 0.45655 0.60238 0.27079 0.0
O454 O 0.51659 0.57689 0.28729 0.0
O455 O 0.54177 0.62031 0.33054 0.0
O456 O 0.60771 0.6034 0.32308 0.0
O457 O 0.54337 0.58693 0.22622 0.0
O458 O 0.5611 0.57116 0.26778 0.0
C459 C 0.56842 0.65005 0.23499 0.0
C460 C 0.48082 0.66327 0.27849 0.0
C461 C 0.41199 0.64891 0.1725 0.0
C462 C 0.36865 0.6512 0.1324 0.0
C463 C 0.34646 0.68141 0.1698 0.0
C464 C 0.38229 0.6698 0.18396 0.0
C465 C 0.33986 0.67243 0.1441 0.0
C466 C 0.40456 0.63934 0.14675 0.0
C467 C 0.45234 0.63851 0.18635 0.0
C468 C 0.35676 0.51638 0.23714 0.0
C469 C 0.32989 0.53941 0.24795 0.0
H470 H 0.41423 0.4786 0.21232 0.0
C471 C 0.47355 0.58113 0.28602 0.0
C472 C 0.5614 0.56693 0.24245 0.0
C473 C 0.57407 0.58663 0.36172 0.0
C474 C 0.57726 0.57555 0.40821 0.0
C475 C 0.57288 0.53354 0.37693 0.0
C476 C 0.57189 0.55481 0.35654 0.0
C477 C 0.57529 0.54373 0.40256 0.0
C478 C 0.57658 0.59687 0.3875 0.0
C479 C 0.57812 0.60936 0.34058 0.0
H480 H 0.32389 0.69763 0.17872 0.0
H481 H 0.38706 0.67754 0.20372 0.0
H482 H 0.31196 0.68177 0.13342 0.0
H483 H 0.4273 0.62328 0.13768 0.0
H484 H 0.57235 0.50899 0.37289 0.0
H485 H 0.5705 0.54646 0.33678 0.0
H486 H 0.57547 0.52668 0.41793 0.0
H487 H 0.57953 0.62146 0.39133 0.0
H488 H 0.16017 0.95734 0.40599 0.0
H489 H 0.15292 0.88497 0.34757 0.0
H490 H 0.13669 0.924 0.31455 0.0
H491 H 0.06527 0.99821 0.38114 0.0
H492 H 0.08713 0.03588 0.38922 0.0
H493 H 0.10289 1.00263 0.40811 0.0
H494 H 0.18586 0.01501 0.39932 0.0
H495 H 0.1702 0.04812 0.38016 0.0
H496 H 0.20497 0.01858 0.36638 0.0
H497 H 0.12004 0.97058 0.28743 0.0
H498 H 0.09622 0.02066 0.26927 0.0
H499 H 0.10606 0.06227 0.34551 0.0
C500 C 0.15505 0.94942 0.38635 0.0
C501 C 0.15919 0.91768 0.37968 0.0
C502 C 0.15207 0.90896 0.35345 0.0
C503 C 0.14226 0.93104 0.33439 0.0
C504 C 0.13862 0.96189 0.34171 0.0
C505 C 0.14404 0.97107 0.36711 0.0
C506 C 0.13486 1.00541 0.37008 0.0
C507 C 0.09518 0.01084 0.38821 0.0
C508 C 0.17646 0.0228 0.37955 0.0
C509 C 0.12355 0.01402 0.34236 0.0
C510 C 0.12655 0.98861 0.32627 0.0
C511 C 0.11757 0.99065 0.29985 0.0
C512 C 0.10434 0.01927 0.28967 0.0
C513 C 0.09943 0.0454 0.30594 0.0
C514 C 0.10968 0.04272 0.33259 0.0
H515 H 0.36228 0.60192 0.85578 0.0
H516 H 0.28975 0.54498 0.91076 0.0
H517 H 0.30803 0.49853 0.8853 0.0
H518 H 0.33204 0.55489 0.79672 0.0
H519 H 0.38604 0.56109 0.78258 0.0
H520 H 0.362 0.59029 0.80309 0.0
H521 H 0.43211 0.58925 0.83124 0.0
H522 H 0.45656 0.55879 0.81244 0.0
H523 H 0.44852 0.55387 0.84687 0.0
H524 H 0.34006 0.45809 0.85703 0.0
H525 H 0.38631 0.42583 0.82849 0.0
H526 H 0.4373 0.50813 0.79069 0.0
C527 C 0.34914 0.57981 0.86208 0.0
C528 C 0.32453 0.57717 0.88535 0.0
C529 C 0.30908 0.54761 0.89323 0.0
C530 C 0.31885 0.52112 0.87872 0.0
C531 C 0.34366 0.52449 0.85613 0.0
C532 C 0.35834 0.55309 0.84769 0.0
C533 C 0.38759 0.54994 0.8239 0.0
C534 C 0.36559 0.56495 0.80017 0.0
C535 C 0.43398 0.56374 0.8289 0.0
C536 C 0.38895 0.51497 0.82113 0.0
C537 C 0.36247 0.50088 0.83962 0.0
C538 C 0.36031 0.46884 0.84222 0.0
C539 C 0.38671 0.45071 0.826 0.0
C540 C 0.41479 0.46457 0.80734 0.0
C541 C 0.41515 0.49706 0.8044 0.0
H542 H 0.59711 0.59915 0.67359 0.0
H543 H 0.70363 0.54897 0.63651 0.0
H544 H 0.68747 0.50328 0.66401 0.0
H545 H 0.60902 0.56342 0.73939 0.0
H546 H 0.54983 0.56228 0.74434 0.0
H547 H 0.57419 0.59245 0.72475 0.0
H548 H 0.52189 0.57728 0.68709 0.0
H549 H 0.49801 0.54643 0.706 0.0
H550 H 0.52239 0.53824 0.67493 0.0
H551 H 0.65715 0.46223 0.69384 0.0
H552 H 0.61216 0.42781 0.72181 0.0
H553 H 0.52176 0.50329 0.73733 0.0
C554 C 0.61777 0.5788 0.6719 0.0
C555 C 0.65224 0.57762 0.65341 0.0
C556 C 0.67761 0.55033 0.65091 0.0
C557 C 0.66865 0.52435 0.66644 0.0
C558 C 0.63388 0.52596 0.68419 0.0
C559 C 0.60878 0.55247 0.68701 0.0
C560 C 0.57079 0.54717 0.70582 0.0
C561 C 0.5763 0.56755 0.73 0.0
C562 C 0.5256 0.55259 0.69267 0.0
C563 C 0.57752 0.5133 0.71239 0.0
C564 C 0.61478 0.50174 0.70024 0.0
C565 C 0.62795 0.47107 0.70346 0.0
C566 C 0.60225 0.4517 0.71937 0.0
C567 C 0.56346 0.4629 0.73153 0.0
C568 C 0.55107 0.49412 0.72802 0.0
H569 H 0.85732 0.97574 0.14148 0.0
H570 H 0.90692 0.89226 0.17841 0.0
H571 H 0.94485 0.924 0.21118 0.0
H572 H 0.95704 0.01956 0.14897 0.0
H573 H 0.9295 0.05575 0.15518 0.0
H574 H 0.90264 0.02665 0.13564 0.0
H575 H 0.8344 0.02733 0.16623 0.0
H576 H 0.86106 0.05655 0.18578 0.0
H577 H 0.84234 0.02098 0.20044 0.0
H578 H 0.97841 0.96426 0.2397 0.0
H579 H 0.00772 0.01095 0.26129 0.0
H580 H 0.94157 0.06883 0.20454 0.0
C581 C 0.87614 0.96405 0.15643 0.0
C582 C 0.87839 0.9313 0.1574 0.0
C583 C 0.90337 0.91715 0.17748 0.0
C584 C 0.92547 0.93502 0.19614 0.0
C585 C 0.92277 0.9671 0.19445 0.0
C586 C 0.89889 0.98157 0.1751 0.0
C587 C 0.90291 0.01652 0.17722 0.0
C588 C 0.9243 0.03043 0.1528 0.0
C589 C 0.85747 0.0312 0.18274 0.0
C590 C 0.93348 0.01934 0.20046 0.0
C591 C 0.94391 0.9905 0.2103 0.0
C592 C 0.97069 0.98695 0.23209 0.0
C593 C 0.98721 0.01359 0.24419 0.0
C594 C 0.9773 0.04338 0.23435 0.0
C595 C 0.95027 0.04627 0.21213 0.0
H596 H 0.7808 0.06526 0.67274 0.0
H597 H 0.89325 0.09378 0.6254 0.0
H598 H 0.94071 0.05728 0.64867 0.0
H599 H 0.84873 0.05958 0.7331 0.0
H600 H 0.81694 0.02727 0.7453 0.0
H601 H 0.79072 0.05582 0.72496 0.0
H602 H 0.76543 0.01242 0.69362 0.0
H603 H 0.79203 0.98386 0.7137 0.0
H604 H 0.8063 0.98688 0.67991 0.0
H605 H 0.97252 0.01227 0.67131 0.0
H606 H 0.99343 0.96956 0.69985 0.0
H607 H 0.86697 0.97644 0.7395 0.0
C608 C 0.81556 0.06449 0.66755 0.0
C609 C 0.83249 0.08186 0.64633 0.0
C610 C 0.87846 0.07982 0.64053 0.0
C611 C 0.90606 0.05935 0.65388 0.0
C612 C 0.88791 0.04183 0.67382 0.0
C613 C 0.84425 0.0449 0.68138 0.0
C614 C 0.83409 0.02377 0.70424 0.0
C615 C 0.8219 0.04275 0.72833 0.0
C616 C 0.79728 1.00035 0.69745 0.0
C617 C 0.8786 1.00783 0.70768 0.0
C618 C 0.90868 0.01832 0.68949 0.0
C619 C 0.95006 1.00479 0.68642 0.0
C620 C 0.96163 0.98044 0.70286 0.0
C621 C 0.93296 0.97064 0.72304 0.0
C622 C 0.89056 0.98439 0.72524 0.0
H623 H 0.67546 0.46744 0.13115 0.0
H624 H 0.68885 0.39218 0.18622 0.0
H625 H 0.65428 0.42467 0.22008 0.0
H626 H 0.70046 0.52892 0.17551 0.0
H627 H 0.66101 0.55529 0.16138 0.0
H628 H 0.68641 0.52596 0.14165 0.0
H629 H 0.60846 0.50551 0.12838 0.0
H630 H 0.58295 0.53487 0.14803 0.0
H631 H 0.56932 0.4947 0.15321 0.0
H632 H 0.6158 0.46559 0.24765 0.0
H633 H 0.57925 0.51156 0.26656 0.0
H634 H 0.59432 0.56006 0.19349 0.0
C635 C 0.67079 0.45766 0.15027 0.0
C636 C 0.6846 0.42717 0.156 0.0
C637 C 0.67869 0.41551 0.18143 0.0
C638 C 0.65895 0.43376 0.20074 0.0
C639 C 0.64561 0.46371 0.19438 0.0
C640 C 0.6515 0.47558 0.16976 0.0
C641 C 0.63489 0.50853 0.16788 0.0
C642 C 0.67297 0.53099 0.16122 0.0
C643 C 0.59664 0.51103 0.14821 0.0
C644 C 0.61858 0.51339 0.19524 0.0
C645 C 0.62476 0.48728 0.21027 0.0
C646 C 0.61113 0.48621 0.23607 0.0
C647 C 0.59055 0.51245 0.24668 0.0
C648 C 0.5841 0.53946 0.23156 0.0
C649 C 0.59869 0.53979 0.20558 0.0
H650 H 0.40364 0.44095 0.37935 0.0
H651 H 0.27713 0.48669 0.38946 0.0
H652 H 0.30152 0.52886 0.36016 0.0
H653 H 0.47388 0.50851 0.37572 0.0
H654 H 0.50809 0.49235 0.35051 0.0
H655 H 0.48047 0.46714 0.37313 0.0
H656 H 0.44526 0.43837 0.33383 0.0
H657 H 0.47228 0.46471 0.31178 0.0
H658 H 0.41284 0.45994 0.31069 0.0
H659 H 0.34021 0.56639 0.33048 0.0
H660 H 0.39 0.59635 0.30192 0.0
H661 H 0.49061 0.52534 0.30952 0.0
C662 C 0.38137 0.46001 0.37545 0.0
C663 C 0.33873 0.46091 0.38672 0.0
C664 C 0.30997 0.4858 0.38097 0.0
C665 C 0.32352 0.50977 0.36439 0.0
C666 C 0.36572 0.50822 0.35344 0.0
C667 C 0.3941 0.48388 0.35855 0.0
C668 C 0.43708 0.48736 0.34358 0.0
C669 C 0.47723 0.48896 0.36189 0.0
C670 C 0.44214 0.46103 0.3238 0.0
C671 C 0.42923 0.51807 0.33014 0.0
C672 C 0.38762 0.52951 0.33585 0.0
C673 C 0.37275 0.55754 0.32575 0.0
C674 C 0.40118 0.57432 0.30941 0.0
C675 C 0.44396 0.56306 0.30326 0.0
C676 C 0.45809 0.53457 0.31388 0.0
H677 H 0.19693 0.04622 0.87702 0.0
H678 H 0.09025 0.10953 0.89528 0.0
H679 H 0.03986 0.08041 0.86618 0.0
H680 H 0.1686 0.03226 0.80922 0.0
H681 H 0.18278 0.99184 0.81123 0.0
H682 H 0.21025 0.01941 0.83192 0.0
H683 H 0.18597 0.98612 0.87161 0.0
H684 H 0.15766 0.95944 0.85042 0.0
H685 H 0.12781 0.97784 0.87636 0.0
H686 H 1.00154 0.045 0.83527 0.0
H687 H 0.97482 1.00294 0.80726 0.0
H688 H 0.10505 0.96019 0.8102 0.0
C689 C 0.16303 0.054 0.87465 0.0
C690 C 0.14738 0.08024 0.88815 0.0
C691 C 0.1027 0.0895 0.88506 0.0
C692 C 0.074 0.07319 0.86851 0.0
C693 C 0.09041 0.04747 0.85542 0.0
C694 C 0.13368 0.03764 0.8585 0.0
C695 C 0.142 1.00818 0.84328 0.0
C696 C 0.17804 0.01328 0.82268 0.0
C697 C 0.15407 0.98131 0.86151 0.0
C698 C 0.09677 1.00317 0.83095 0.0
C699 C 0.06771 0.02629 0.83813 0.0
C700 C 0.02394 0.02674 0.82956 0.0
C701 C 0.00911 1.00266 0.8136 0.0
C702 C 0.03774 0.97809 0.80653 0.0
C703 C 0.08241 0.97868 0.81508 0.0
H704 H 0.16131 0.07373 0.98015 0.0
H705 H 0.20488 0.16955 0.98066 0.0
H706 H 0.19133 0.17194 0.02788 0.0
H707 H 0.07378 0.08164 0.02922 0.0
H708 H 0.08524 0.0442 0.04307 0.0
H709 H 0.09506 0.05103 1.00913 0.0
H710 H 0.17671 0.03349 1.0147 0.0
H711 H 0.16718 0.02663 0.04859 0.0
H712 H 0.21133 0.05223 0.03855 0.0
H713 H 0.17662 0.16258 0.07599 0.0
H714 H 0.16593 0.14154 0.12021 0.0
H715 H 0.13099 0.05232 0.08743 0.0
C716 C 0.16706 0.09548 0.99003 0.0
C717 C 0.18387 0.12154 0.97657 0.0
C718 C 0.19218 0.14923 0.99051 0.0
C719 C 0.18428 0.15087 1.01731 0.0
C720 C 0.16796 0.12464 0.02998 0.0
C721 C 0.15945 0.09748 1.01671 0.0
C722 C 0.14459 0.07197 0.03491 0.0
C723 C 0.09683 0.06161 0.02871 0.0
C724 C 0.17689 0.04447 0.03414 0.0
C725 C 0.14694 0.08876 0.06059 0.0
C726 C 0.15995 0.11923 0.05741 0.0
C727 C 0.16604 0.13882 0.07863 0.0
C728 C 0.15964 0.12674 0.10369 0.0
C729 C 0.14771 0.09528 0.10734 0.0
C730 C 0.14038 0.07642 0.08535 0.0
H731 H 0.34732 0.45512 0.47927 0.0
H732 H 0.34522 0.35513 0.47208 0.0
H733 H 0.37399 0.35038 0.51686 0.0
H734 H 0.44782 0.4611 0.51742 0.0
H735 H 0.42723 0.49233 0.53707 0.0
H736 H 0.4076 0.48768 0.50433 0.0
H737 H 0.32646 0.48571 0.52088 0.0
H738 H 0.34583 0.49029 0.55366 0.0
H739 H 0.31116 0.45771 0.54522 0.0
H740 H 0.4039 0.35685 0.56252 0.0
H741 H 0.43053 0.37363 0.60545 0.0
H742 H 0.40941 0.46951 0.58337 0.0
C743 C 0.35345 0.43222 0.48699 0.0
C744 C 0.34436 0.40546 0.47208 0.0
C745 C 0.35186 0.37592 0.48315 0.0
C746 C 0.36832 0.37302 0.50853 0.0
C747 C 0.37679 0.39988 0.52271 0.0
C748 C 0.36943 0.42891 0.51235 0.0
C749 C 0.38004 0.45411 0.53185 0.0
C750 C 0.41793 0.47503 0.52208 0.0
C751 C 0.33839 0.47306 0.53828 0.0
C752 C 0.39471 0.43476 0.5548 0.0
C753 C 0.39277 0.40355 0.54912 0.0
C754 C 0.40519 0.38123 0.56722 0.0
C755 C 0.41995 0.39105 0.59171 0.0
C756 C 0.42194 0.42297 0.59814 0.0
C757 C 0.40893 0.44496 0.57923 0.0
H758 H 0.75285 0.40404 0.04524 0.0
H759 H 0.62347 0.37803 0.07505 0.0
H760 H 0.59463 0.37417 0.03019 0.0
H761 H 0.71145 0.45074 0.99116 0.0
H762 H 0.75554 0.43894 0.96984 0.0
H763 H 0.76506 0.44076 1.00425 0.0
H764 H 0.7902 0.38348 1.00403 0.0
H765 H 0.78047 0.38141 0.96968 0.0
H766 H 0.75353 0.35424 0.99107 0.0
H767 H 0.58216 0.36886 0.98193 0.0
H768 H 0.58492 0.36619 0.93439 0.0
H769 H 0.72127 0.39962 0.93613 0.0
C770 C 0.71837 0.39772 0.04228 0.0
C771 C 0.69033 0.39121 0.06354 0.0
C772 C 0.64534 0.38328 0.05899 0.0
C773 C 0.62878 0.38092 0.03361 0.0
C774 C 0.65751 0.38703 1.01305 0.0
C775 C 0.70119 0.3957 1.01713 0.0
C776 C 0.72522 0.40093 0.99174 0.0
C777 C 0.74019 0.43486 0.9891 0.0
C778 C 0.76468 0.37868 0.98898 0.0
C779 C 0.68855 0.39319 0.97267 0.0
C780 C 0.64981 0.38516 0.98534 0.0
C781 C 0.61208 0.37569 0.97182 0.0
C782 C 0.61394 0.3745 0.94468 0.0
C783 C 0.65314 0.38305 0.93112 0.0
C784 C 0.69078 0.39266 0.94559 0.0
H785 H 0.80294 0.07664 0.55075 0.0
H786 H 0.79692 0.17624 0.55976 0.0
H787 H 0.81981 0.18297 0.51401 0.0
H788 H 0.89757 0.07407 0.50813 0.0
H789 H 0.87545 0.04294 0.48874 0.0
H790 H 0.86019 0.04614 0.52233 0.0
H791 H 0.77692 0.04673 0.50954 0.0
H792 H 0.79191 0.04338 0.47594 0.0
H793 H 0.75746 0.07495 0.48647 0.0
H794 H 0.84513 0.17848 0.46734 0.0
H795 H 0.86321 0.16319 0.42234 0.0
H796 H 0.84876 0.06659 0.44358 0.0
C797 C 0.80666 0.09984 0.54306 0.0
C798 C 0.7985 0.12597 0.5587 0.0
C799 C 0.80297 0.15598 0.54797 0.0
C800 C 0.81618 0.15999 0.52211 0.0
C801 C 0.82425 0.13372 0.5072 0.0
C802 C 0.81911 0.10422 0.51722 0.0
C803 C 0.82782 0.07982 0.49686 0.0
C804 C 0.86763 0.05955 0.50448 0.0
C805 C 0.78604 0.06006 0.49191 0.0
C806 C 0.83865 0.10014 0.4738 0.0
C807 C 0.83704 0.13116 0.48022 0.0
C808 C 0.84633 0.15426 0.46209 0.0
C809 C 0.85678 0.1454 0.43666 0.0
C810 C 0.8572 0.11378 0.42956 0.0
C811 C 0.84836 0.09095 0.44848 0.0
H812 H 0.91416 0.92018 0.06514 0.0
H813 H 0.77328 0.9028 0.05539 0.0
H814 H 0.77981 0.91439 1.00856 0.0
H815 H 0.92497 0.98254 1.01745 0.0
H816 H 0.97831 0.96934 1.0063 0.0
H817 H 0.96163 0.96239 0.03929 0.0
H818 H 0.97486 0.90364 0.0331 0.0
H819 H 0.99147 0.9104 1.00011 0.0
H820 H 0.94704 0.88359 1.00708 0.0
H821 H 0.80239 0.92649 0.96264 0.0
H822 H 0.83942 0.93585 0.9208 0.0
H823 H 0.96665 0.94183 0.96033 0.0
C824 C 0.88459 0.91946 0.05318 0.0
C825 C 0.84306 0.91107 0.0638 0.0
C826 C 0.80527 0.90942 0.04753 0.0
C827 C 0.80868 0.91602 0.02099 0.0
C828 C 0.85023 0.92392 1.01103 0.0
C829 C 0.88756 0.92552 0.0266 0.0
C830 C 0.92878 0.93248 1.01082 0.0
C831 C 0.94964 0.96354 0.01895 0.0
C832 C 0.96251 0.90594 1.0129 0.0
C833 C 0.90887 0.93438 0.98392 0.0
C834 C 0.86349 0.9297 0.98448 0.0
C835 C 0.83796 0.93009 0.96196 0.0
C836 C 0.85942 0.93518 0.93823 0.0
C837 C 0.90613 0.93944 0.93706 0.0
C838 C 0.93089 0.93916 0.96039 0.0
H839 H 0.6675 0.57672 0.55475 0.0
H840 H 0.59051 0.66028 0.56591 0.0
H841 H 0.56235 0.65644 0.52119 0.0
H842 H 0.69945 0.59279 0.4895 0.0
H843 H 0.6953 0.55322 0.47872 0.0
H844 H 0.70798 0.56152 0.51208 0.0
H845 H 0.64077 0.52816 0.52661 0.0
H846 H 0.62791 0.51974 0.49326 0.0
H847 H 0.58633 0.53656 0.51391 0.0
H848 H 0.54381 0.64463 0.47512 0.0
H849 H 0.53638 0.62558 0.43032 0.0
H850 H 0.62649 0.55025 0.44812 0.0
C851 C 0.64437 0.59398 0.5478 0.0
C852 C 0.63144 0.61893 0.56376 0.0
C853 C 0.60137 0.64122 0.55392 0.0
C854 C 0.58497 0.63915 0.52859 0.0
C855 C 0.59883 0.61461 0.51322 0.0
C856 C 0.62781 0.59238 0.52238 0.0
C857 C 0.63835 0.56895 0.50143 0.0
C858 C 0.68823 0.56915 0.49506 0.0
C859 C 0.62238 0.53643 0.50927 0.0
C860 C 0.61107 0.58168 0.47911 0.0
C861 C 0.58837 0.60793 0.48641 0.0
C862 C 0.56144 0.62409 0.46914 0.0
C863 C 0.55769 0.6132 0.44365 0.0
C864 C 0.58089 0.58645 0.43554 0.0
C865 C 0.6078 0.57051 0.45369 0.0
H866 H 0.33972 0.67414 0.97966 0.0
H867 H 0.29434 0.57854 0.97625 0.0
H868 H 0.30758 0.5733 0.02302 0.0
H869 H 0.42347 0.66515 0.02767 0.0
H870 H 0.41132 0.70093 0.04405 0.0
H871 H 0.40003 0.69714 1.00994 0.0
H872 H 0.31791 0.71217 1.01757 0.0
H873 H 0.32904 0.71631 0.05167 0.0
H874 H 0.28538 0.69075 0.04081 0.0
H875 H 0.3287 0.57764 0.07029 0.0
H876 H 0.34752 0.59341 0.11517 0.0
H877 H 0.37127 0.68721 0.08875 0.0
C878 C 0.3318 0.65216 0.98862 0.0
C879 C 0.31661 0.62662 0.97373 0.0
C880 C 0.30734 0.5983 0.9867 0.0
C881 C 0.31442 0.59509 1.01344 0.0
C882 C 0.33 0.62055 0.0273 0.0
C883 C 0.33777 0.6487 1.01543 0.0
C884 C 0.35265 0.67282 0.03498 0.0
C885 C 0.39966 0.6847 0.02878 0.0
C886 C 0.31924 0.69959 0.03634 0.0
C887 C 0.35223 0.65377 0.05966 0.0
C888 C 0.33968 0.62353 0.05475 0.0
C889 C 0.33817 0.60132 0.07439 0.0
C890 C 0.34909 0.61038 0.09974 0.0
C891 C 0.36063 0.64144 0.10528 0.0
C892 C 0.36232 0.66334 0.08495 0.0
H893 H 0.16808 0.9234 0.47791 0.0
H894 H 0.11673 0.8297 0.47164 0.0
H895 H 0.09499 0.83087 0.51757 0.0
H896 H 0.2143 0.91588 0.53987 0.0
H897 H 0.19954 0.95396 0.55108 0.0
H898 H 0.20767 0.94714 0.51705 0.0
H899 H 0.12886 0.96795 0.50728 0.0
H900 H 0.1206 0.97508 0.54131 0.0
H901 H 0.08167 0.95127 0.52368 0.0
H902 H 0.08585 0.83986 0.56498 0.0
H903 H 0.08692 0.85691 0.61036 0.0
H904 H 0.13921 0.9463 0.58609 0.0
C905 C 0.15139 0.90342 0.48609 0.0
C906 C 0.14453 0.87635 0.47119 0.0
C907 C 0.12304 0.85052 0.48274 0.0
C908 C 0.11028 0.85102 0.5088 0.0
C909 C 0.11865 0.87765 0.52315 0.0
C910 C 0.13821 0.90355 0.5122 0.0
C911 C 0.14505 0.92867 0.53236 0.0
C912 C 0.19458 0.93688 0.53525 0.0
C913 C 0.11739 0.95745 0.52576 0.0
C914 C 0.12742 0.91248 0.55638 0.0
C915 C 0.11218 0.88314 0.55057 0.0
C916 C 0.09683 0.86305 0.56972 0.0
C917 C 0.09728 0.87311 0.59554 0.0
C918 C 0.11276 0.90315 0.60216 0.0
C919 C 0.12744 0.92311 0.58202 0.0
H920 H 0.14382 0.32423 0.34116 0.0
H921 H 0.20968 0.28354 0.40755 0.0
H922 H 0.19253 0.23113 0.39065 0.0
H923 H 0.05576 0.27266 0.33752 0.0
H924 H 0.05314 0.27101 0.30268 0.0
H925 H 0.07487 0.30499 0.31839 0.0
H926 H 0.14827 0.30017 0.29255 0.0
H927 H 0.12613 0.26647 0.27649 0.0
H928 H 0.1785 0.26427 0.29339 0.0
H929 H 0.15827 0.18371 0.36967 0.0
H930 H 0.11664 0.14484 0.34398 0.0
H931 H 0.07759 0.21637 0.28972 0.0
C932 C 0.15546 0.30423 0.35182 0.0
C933 C 0.17812 0.3078 0.37563 0.0
C934 C 0.1927 0.28121 0.38915 0.0
C935 C 0.18294 0.25142 0.37973 0.0
C936 C 0.15936 0.24869 0.35653 0.0
C937 C 0.14662 0.27442 0.34248 0.0
C938 C 0.1201 0.26533 0.31867 0.0
C939 C 0.0732 0.27933 0.31938 0.0
C940 C 0.14475 0.2746 0.2938 0.0
C941 C 0.11861 0.23052 0.32192 0.0
C942 C 0.14133 0.22134 0.34391 0.0
C943 C 0.14117 0.19058 0.35215 0.0
C944 C 0.11719 0.16873 0.33758 0.0
C945 C 0.09415 0.17766 0.31489 0.0
C946 C 0.09549 0.20887 0.30681 0.0
H947 H 0.37953 0.19341 0.83786 0.0
H948 H 0.31513 0.2321 0.90546 0.0
H949 H 0.33429 0.28487 0.89026 0.0
H950 H 0.47037 0.24588 0.83628 0.0
H951 H 0.47265 0.24796 0.80146 0.0
H952 H 0.45168 0.21358 0.817 0.0
H953 H 0.37791 0.21801 0.79124 0.0
H954 H 0.39957 0.2519 0.77534 0.0
H955 H 0.34722 0.2537 0.79225 0.0
H956 H 0.3673 0.33306 0.86968 0.0
H957 H 0.4061 0.37299 0.84373 0.0
H958 H 0.44578 0.30291 0.78855 0.0
C959 C 0.36925 0.21299 0.84944 0.0
C960 C 0.34589 0.20861 0.87292 0.0
C961 C 0.33265 0.23487 0.88731 0.0
C962 C 0.34361 0.26491 0.87888 0.0
C963 C 0.36739 0.26832 0.85587 0.0
C964 C 0.37964 0.24304 0.84124 0.0
C965 C 0.40574 0.25281 0.81751 0.0
C966 C 0.4529 0.23925 0.81812 0.0
C967 C 0.3811 0.24359 0.7926 0.0
C968 C 0.40664 0.2876 0.82112 0.0
C969 C 0.38467 0.29608 0.84349 0.0
C970 C 0.38391 0.32673 0.85191 0.0
C971 C 0.40616 0.34923 0.83711 0.0
C972 C 0.4283 0.34109 0.81397 0.0
C973 C 0.4282 0.30989 0.80584 0.0
H974 H 0.59157 0.22818 0.64906 0.0
H975 H 0.68652 0.18823 0.70261 0.0
H976 H 0.67204 0.23082 0.73356 0.0
H977 H 0.61727 0.30903 0.66282 0.0
H978 H 0.5602 0.32089 0.65969 0.0
H979 H 0.58024 0.28832 0.64145 0.0
H980 H 0.51784 0.25395 0.66093 0.0
H981 H 0.49781 0.28636 0.67932 0.0
H982 H 0.51257 0.25094 0.69561 0.0
H983 H 0.64222 0.27589 0.75992 0.0
H984 H 0.60328 0.32091 0.77838 0.0
H985 H 0.52927 0.33134 0.70665 0.0
C986 C 0.60949 0.22844 0.66726 0.0
C987 C 0.64003 0.20484 0.67353 0.0
C988 C 0.66322 0.20621 0.69738 0.0
C989 C 0.65504 0.23022 0.71509 0.0
C990 C 0.62396 0.25278 0.70848 0.0
C991 C 0.60193 0.25222 0.685 0.0
C992 C 0.56952 0.27875 0.68264 0.0
C993 C 0.58261 0.30054 0.66033 0.0
C994 C 0.52161 0.26677 0.67944 0.0
C995 C 0.57615 0.29413 0.70865 0.0
C996 C 0.60762 0.27886 0.72332 0.0
C997 C 0.6179 0.2882 0.74846 0.0
C998 C 0.5955 0.31381 0.75879 0.0
C999 C 0.5633 0.32992 0.74396 0.0
C1000 C 0.55386 0.31984 0.71851 0.0
H1001 H 0.88011 0.26093 0.14202 0.0
H1002 H 0.84689 0.32877 0.20048 0.0
H1003 H 0.87005 0.29196 0.23481 0.0
H1004 H 0.84514 0.19143 0.18015 0.0
H1005 H 0.88987 0.1686 0.16724 0.0
H1006 H 0.86561 0.19898 0.14797 0.0
H1007 H 0.94347 0.22283 0.14193 0.0
H1008 H 0.96861 0.19385 0.16218 0.0
H1009 H 0.97531 0.2343 0.16988 0.0
H1010 H 0.90608 0.25002 0.26208 0.0
H1011 H 0.9464 0.20528 0.28029 0.0
H1012 H 0.952 0.16386 0.20387 0.0
C1013 C 0.87677 0.26771 0.16211 0.0
C1014 C 0.86169 0.29759 0.16872 0.0
C1015 C 0.85794 0.30584 0.19512 0.0
C1016 C 0.87117 0.28513 0.21467 0.0
C1017 C 0.88723 0.25613 0.20745 0.0
C1018 C 0.88917 0.24721 0.18178 0.0
C1019 C 0.90948 0.21539 0.17896 0.0
C1020 C 0.87549 0.19223 0.16793 0.0
C1021 C 0.95173 0.21666 0.16226 0.0
C1022 C 0.92023 0.20819 0.20694 0.0
C1023 C 0.90702 0.23187 0.22312 0.0
C1024 C 0.91588 0.23114 0.24962 0.0
C1025 C 0.93887 0.20562 0.25978 0.0
C1026 C 0.95277 0.18112 0.2435 0.0
C1027 C 0.94243 0.18234 0.21682 0.0
H1028 H 0.73347 0.78325 0.68258 0.0
H1029 H 0.81345 0.70758 0.65343 0.0
H1030 H 0.87976 0.73084 0.67441 0.0
H1031 H 0.81577 0.84111 0.66771 0.0
H1032 H 0.8004 0.86497 0.69482 0.0
H1033 H 0.75945 0.84062 0.67947 0.0
H1034 H 0.74199 0.81368 0.7235 0.0
H1035 H 0.78156 0.83951 0.73811 0.0
H1036 H 0.78724 0.79816 0.74234 0.0
H1037 H 0.93886 0.76539 0.69817 0.0
H1038 H 0.98178 0.80578 0.72175 0.0
H1039 H 0.86118 0.85921 0.73083 0.0
C1040 C 0.76479 0.77144 0.68015 0.0
C1041 C 0.76778 0.74354 0.66596 0.0
C1042 C 0.80973 0.72876 0.66435 0.0
C1043 C 0.84779 0.74201 0.67603 0.0
C1044 C 0.84357 0.77024 0.68898 0.0
C1045 C 0.80292 0.78472 0.69082 0.0
C1046 C 0.80665 0.81567 0.70415 0.0
C1047 C 0.79488 0.84214 0.68542 0.0
C1048 C 0.77763 0.81671 0.72852 0.0
C1049 C 0.85549 0.81602 0.71075 0.0
C1050 C 0.8767 0.7899 0.70168 0.0
C1051 C 0.92234 0.78585 0.70533 0.0
C1052 C 0.94651 0.80895 0.71869 0.0
C1053 C 0.92495 0.83566 0.72832 0.0
C1054 C 0.87886 0.83902 0.72403 0.0
H1055 H 0.73478 0.78434 0.19119 0.0
H1056 H 0.70916 0.75536 0.11241 0.0
H1057 H 0.64741 0.72207 0.12755 0.0
H1058 H 0.72276 0.71296 0.21897 0.0
H1059 H 0.69717 0.72702 0.24815 0.0
H1060 H 0.73266 0.75207 0.2299 0.0
H1061 H 0.66741 0.79158 0.22836 0.0
H1062 H 0.63233 0.76493 0.24591 0.0
H1063 H 0.61471 0.77975 0.21493 0.0
H1064 H 0.59798 0.6859 0.15154 0.0
H1065 H 0.56205 0.65036 0.18235 0.0
H1066 H 0.61923 0.70196 0.2464 0.0
C1067 C 0.71461 0.77207 0.17714 0.0
C1068 C 0.72566 0.77285 0.15062 0.0
C1069 C 0.70024 0.7555 0.13272 0.0
C1070 C 0.66526 0.73653 0.14118 0.0
C1071 C 0.65614 0.73524 0.16762 0.0
C1072 C 0.6796 0.7529 0.18534 0.0
C1073 C 0.6667 0.74446 0.21284 0.0
C1074 C 0.70731 0.73342 0.22831 0.0
C1075 C 0.64392 0.77181 0.2263 0.0
C1076 C 0.63406 0.71824 0.20789 0.0
C1077 C 0.62793 0.71373 0.18164 0.0
C1078 C 0.60189 0.68957 0.17214 0.0
C1079 C 0.58179 0.66935 0.18987 0.0
C1080 C 0.58788 0.67318 0.21691 0.0
C1081 C 0.61381 0.69836 0.22595 0.0
H1082 H 0.33015 0.73601 0.38836 0.0
H1083 H 0.27693 0.79915 0.33108 0.0
H1084 H 0.33277 0.78086 0.29937 0.0
H1085 H 0.44851 0.74115 0.36786 0.0
H1086 H 0.45744 0.70066 0.37439 0.0
H1087 H 0.41768 0.72206 0.3932 0.0
H1088 H 0.35673 0.68199 0.38113 0.0
H1089 H 0.39612 0.66069 0.36214 0.0
H1090 H 0.34538 0.67415 0.34748 0.0
H1091 H 0.38756 0.74964 0.27228 0.0
H1092 H 0.43931 0.71151 0.2534 0.0
H1093 H 0.45675 0.66988 0.32922 0.0
C1094 C 0.33101 0.74656 0.36933 0.0
C1095 C 0.29938 0.76907 0.36214 0.0
C1096 C 0.30128 0.7822 0.33705 0.0
C1097 C 0.33271 0.7718 0.31891 0.0
C1098 C 0.36236 0.74863 0.32636 0.0
C1099 C 0.36217 0.73658 0.35116 0.0
C1100 C 0.39527 0.71053 0.35402 0.0
C1101 C 0.4319 0.71913 0.37352 0.0
C1102 C 0.37197 0.68005 0.36163 0.0
C1103 C 0.41331 0.70906 0.32675 0.0
C1104 C 0.39416 0.73124 0.31102 0.0
C1105 C 0.40336 0.73262 0.28457 0.0
C1106 C 0.43271 0.71079 0.274 0.0
C1107 C 0.45257 0.68785 0.28984 0.0
C1108 C 0.44294 0.68742 0.31661 0.0
H1109 H 0.19956 0.73115 0.83038 0.0
H1110 H 0.20007 0.76675 0.90864 0.0
H1111 H 0.13674 0.8009 0.89777 0.0
H1112 H 0.18269 0.79813 0.79941 0.0
H1113 H 0.14538 0.78442 0.77444 0.0
H1114 H 0.18409 0.75827 0.78924 0.0
H1115 H 0.12051 0.72139 0.80255 0.0
H1116 H 0.08124 0.74684 0.78708 0.0
H1117 H 0.074 0.73619 0.82056 0.0
H1118 H 0.08209 0.83659 0.87643 0.0
H1119 H 0.03769 0.86936 0.84725 0.0
H1120 H 0.07066 0.80935 0.78279 0.0
C1121 C 0.18497 0.74526 0.84542 0.0
C1122 C 0.20381 0.74612 0.87044 0.0
C1123 C 0.18522 0.76545 0.88956 0.0
C1124 C 0.14942 0.78492 0.8835 0.0
C1125 C 0.13235 0.78432 0.85835 0.0
C1126 C 0.14887 0.76447 0.83976 0.0
C1127 C 0.12715 0.77008 0.81368 0.0
C1128 C 0.16191 0.77824 0.79297 0.0
C1129 C 0.09905 0.74195 0.80549 0.0
C1130 C 0.09798 0.79751 0.82005 0.0
C1131 C 0.10083 0.80498 0.84602 0.0
C1132 C 0.07901 0.83059 0.85617 0.0
C1133 C 0.0539 0.84915 0.83936 0.0
C1134 C 0.051 0.84222 0.81257 0.0
C1135 C 0.07269 0.81562 0.80303 0.0
loop_
_geom_bond_atom_site_label_1
_geom_bond_atom_site_label_2
_geom_bond_distance
_geom_bond_site_symmetry_2
_ccdc_geom_bond_type
H0 C1 0.949 . S
C1 H0 0.949 . S
C1 C2 1.395 . S
C1 C3 1.391 . S
C2 C1 1.395 . S
C2 C5 1.390 . S
C3 C1 1.391 . S
C3 C7 1.387 . S
C3 C8 1.491 . S
H4 C5 0.950 . S
C5 C2 1.390 . S
C5 H4 0.950 . S
C5 C6 1.378 . S
C6 C5 1.378 . S
C6 C7 1.409 . S
C7 C3 1.387 . S
C7 C6 1.409 . S
C7 H9 0.951 . S
C8 C3 1.491 . S
C8 C10 1.382 . S
C8 C12 1.404 . S
H9 C7 0.951 . S
C10 C8 1.382 . S
C10 C11 1.390 . S
C10 H15 0.949 . S
C11 C10 1.390 . S
C11 C16 1.399 . S
C12 C8 1.404 . S
C12 H13 0.950 . S
C12 C14 1.375 . S
H13 C12 0.950 . S
C14 C12 1.375 . S
C14 C16 1.382 . S
C14 H18 0.950 . S
H15 C10 0.949 . S
C16 C11 1.399 . S
C16 C14 1.382 . S
C16 H17 0.952 . S
H17 C16 0.952 . S
H18 C14 0.950 . S
H19 C20 0.949 . S
C20 H19 0.949 . S
C20 C21 1.395 . S
C20 C22 1.391 . S
C21 C20 1.395 . S
C21 C24 1.390 . S
C22 C20 1.391 . S
C22 C26 1.387 . S
C22 C27 1.491 . S
H23 C24 0.950 . S
C24 C21 1.390 . S
C24 H23 0.950 . S
C24 C25 1.378 . S
C25 C24 1.378 . S
C25 C26 1.409 . S
C26 C22 1.387 . S
C26 C25 1.409 . S
C26 H28 0.951 . S
C27 C22 1.491 . S
C27 C29 1.382 . S
C27 C31 1.404 . S
H28 C26 0.951 . S
C29 C27 1.382 . S
C29 C30 1.390 . S
C29 H34 0.949 . S
C30 C29 1.390 . S
C30 C35 1.399 . S
C31 C27 1.404 . S
C31 H32 0.950 . S
C31 C33 1.375 . S
H32 C31 0.950 . S
C33 C31 1.375 . S
C33 C35 1.382 . S
C33 H37 0.950 . S
H34 C29 0.949 . S
C35 C30 1.399 . S
C35 C33 1.382 . S
C35 H36 0.952 . S
H36 C35 0.952 . S
H37 C33 0.950 . S
H38 C39 0.949 . S
C39 H38 0.949 . S
C39 C40 1.395 . S
C39 C41 1.391 . S
C40 C39 1.395 . S
C40 C43 1.390 . S
C41 C39 1.391 . S
C41 C45 1.387 . S
C41 C46 1.491 . S
H42 C43 0.950 . S
C43 C40 1.390 . S
C43 H42 0.950 . S
C43 C44 1.378 . S
C44 C43 1.378 . S
C44 C45 1.409 . S
C45 C41 1.387 . S
C45 C44 1.409 . S
C45 H47 0.951 . S
C46 C41 1.491 . S
C46 C48 1.382 . S
C46 C50 1.404 . S
H47 C45 0.951 . S
C48 C46 1.382 . S
C48 C49 1.390 . S
C48 H53 0.949 . S
C49 C48 1.390 . S
C49 C54 1.399 . S
C50 C46 1.404 . S
C50 H51 0.950 . S
C50 C52 1.375 . S
H51 C50 0.950 . S
C52 C50 1.375 . S
C52 C54 1.382 . S
C52 H56 0.950 . S
H53 C48 0.949 . S
C54 C49 1.399 . S
C54 C52 1.382 . S
C54 H55 0.952 . S
H55 C54 0.952 . S
H56 C52 0.950 . S
H57 C58 0.949 . S
C58 H57 0.949 . S
C58 C59 1.395 . S
C58 C60 1.391 . S
C59 C58 1.395 . S
C59 C62 1.390 . S
C60 C58 1.391 . S
C60 C64 1.387 . S
C60 C65 1.491 . S
H61 C62 0.950 . S
C62 C59 1.390 . S
C62 H61 0.950 . S
C62 C63 1.378 . S
C63 C62 1.378 . S
C63 C64 1.409 . S
C64 C60 1.387 . S
C64 C63 1.409 . S
C64 H66 0.951 . S
C65 C60 1.491 . S
C65 C67 1.382 . S
C65 C69 1.404 . S
H66 C64 0.951 . S
C67 C65 1.382 . S
C67 C68 1.390 . S
C67 H72 0.949 . S
C68 C67 1.390 . S
C68 C73 1.399 . S
C69 C65 1.404 . S
C69 H70 0.950 . S
C69 C71 1.375 . S
H70 C69 0.950 . S
C71 C69 1.375 . S
C71 C73 1.382 . S
C71 H75 0.950 . S
H72 C67 0.949 . S
C73 C68 1.399 . S
C73 C71 1.382 . S
C73 H74 0.952 . S
H74 C73 0.952 . S
H75 C71 0.950 . S
H76 C77 0.949 . S
C77 H76 0.949 . S
C77 C78 1.395 . S
C77 C79 1.391 . S
C78 C77 1.395 . S
C78 C81 1.390 . S
C79 C77 1.391 . S
C79 C83 1.387 . S
C79 C84 1.491 . S
H80 C81 0.950 . S
C81 C78 1.390 . S
C81 H80 0.950 . S
C81 C82 1.378 . S
C82 C81 1.378 . S
C82 C83 1.409 . S
C83 C79 1.387 . S
C83 C82 1.409 . S
C83 H85 0.951 . S
C84 C79 1.491 . S
C84 C86 1.382 . S
C84 C88 1.404 . S
H85 C83 0.951 . S
C86 C84 1.382 . S
C86 C87 1.390 . S
C86 H91 0.949 . S
C87 C86 1.390 . S
C87 C92 1.399 . S
C88 C84 1.404 . S
C88 H89 0.950 . S
C88 C90 1.375 . S
H89 C88 0.950 . S
C90 C88 1.375 . S
C90 C92 1.382 . S
C90 H94 0.950 . S
H91 C86 0.949 . S
C92 C87 1.399 . S
C92 C90 1.382 . S
C92 H93 0.952 . S
H93 C92 0.952 . S
H94 C90 0.950 . S
H95 C96 0.949 . S
C96 H95 0.949 . S
C96 C97 1.395 . S
C96 C98 1.391 . S
C97 C96 1.395 . S
C97 C100 1.390 . S
C98 C96 1.391 . S
C98 C102 1.387 . S
C98 C103 1.491 . S
H99 C100 0.950 . S
C100 C97 1.390 . S
C100 H99 0.950 . S
C100 C101 1.378 . S
C101 C100 1.378 . S
C101 C102 1.409 . S
C102 C98 1.387 . S
C102 C101 1.409 . S
C102 H104 0.951 . S
C103 C98 1.491 . S
C103 C105 1.382 . S
C103 C107 1.404 . S
H104 C102 0.951 . S
C105 C103 1.382 . S
C105 C106 1.390 . S
C105 H110 0.949 . S
C106 C105 1.390 . S
C106 C111 1.399 . S
C107 C103 1.404 . S
C107 H108 0.950 . S
C107 C109 1.375 . S
H108 C107 0.950 . S
C109 C107 1.375 . S
C109 C111 1.382 . S
C109 H113 0.950 . S
H110 C105 0.949 . S
C111 C106 1.399 . S
C111 C109 1.382 . S
C111 H112 0.952 . S
H112 C111 0.952 . S
H113 C109 0.950 . S
H114 C115 0.949 . S
C115 H114 0.949 . S
C115 C116 1.395 . S
C115 C117 1.391 . S
C116 C115 1.395 . S
C116 C119 1.390 . S
C117 C115 1.391 . S
C117 C121 1.387 . S
C117 C122 1.491 . S
H118 C119 0.950 . S
C119 C116 1.390 . S
C119 H118 0.950 . S
C119 C120 1.378 . S
C120 C119 1.378 . S
C120 C121 1.409 . S
C121 C117 1.387 . S
C121 C120 1.409 . S
C121 H123 0.951 . S
C122 C117 1.491 . S
C122 C124 1.382 . S
C122 C126 1.404 . S
H123 C121 0.951 . S
C124 C122 1.382 . S
C124 C125 1.390 . S
C124 H129 0.949 . S
C125 C124 1.390 . S
C125 C130 1.399 . S
C126 C122 1.404 . S
C126 H127 0.950 . S
C126 C128 1.375 . S
H127 C126 0.950 . S
C128 C126 1.375 . S
C128 C130 1.382 . S
C128 H132 0.950 . S
H129 C124 0.949 . S
C130 C125 1.399 . S
C130 C128 1.382 . S
C130 H131 0.952 . S
H131 C130 0.952 . S
H132 C128 0.950 . S
H133 C134 0.949 . S
C134 H133 0.949 . S
C134 C135 1.395 . S
C134 C136 1.391 . S
C135 C134 1.395 . S
C135 C138 1.390 . S
C136 C134 1.391 . S
C136 C140 1.387 . S
C136 C141 1.491 . S
H137 C138 0.950 . S
C138 C135 1.390 . S
C138 H137 0.950 . S
C138 C139 1.378 . S
C139 C138 1.378 . S
C139 C140 1.409 . S
C140 C136 1.387 . S
C140 C139 1.409 . S
C140 H142 0.951 . S
C141 C136 1.491 . S
C141 C143 1.382 . S
C141 C145 1.404 . S
H142 C140 0.951 . S
C143 C141 1.382 . S
C143 C144 1.390 . S
C143 H148 0.949 . S
C144 C143 1.390 . S
C144 C149 1.399 . S
C145 C141 1.404 . S
C145 H146 0.950 . S
C145 C147 1.375 . S
H146 C145 0.950 . S
C147 C145 1.375 . S
C147 C149 1.382 . S
C147 H151 0.950 . S
H148 C143 0.949 . S
C149 C144 1.399 . S
C149 C147 1.382 . S
C149 H150 0.952 . S
H150 C149 0.952 . S
H151 C147 0.950 . S
C152 C154 1.422 . S
C152 C156 1.415 . S
C152 N158 1.369 . S
C153 C154 1.421 . S
C153 C155 1.417 . S
C153 C165 1.422 1_545 S
C154 C152 1.422 . S
C154 C153 1.421 . S
C154 N164 1.359 . S
C155 C153 1.417 . S
C155 C157 1.329 . S
C155 H174 0.930 1_545 S
C156 C152 1.415 . S
C156 C157 1.437 . S
C156 C160 1.413 . S
C157 C155 1.329 . S
C157 C156 1.437 . S
C157 H179 0.929 . S
N158 C152 1.369 . S
N158 C159 1.338 . S
N158 Gd163 2.622 . S
C159 N158 1.338 . S
C159 C161 1.378 . S
C159 H171 0.929 . S
C160 C156 1.413 . S
C160 C161 1.348 . S
C160 H176 0.931 . S
C161 C159 1.378 . S
C161 C160 1.348 . S
C161 H177 0.930 . S
Gd162 N182 2.622 . S
Gd162 N189 2.570 . S
Gd162 O196 2.334 1_455 S
Gd162 O197 2.468 . S
Gd162 O198 2.427 . S
Gd162 O200 2.388 . S
Gd162 O201 2.386 . S
Gd162 O205 2.307 1_455 S
Gd162 C215 2.805 . S
Gd163 N158 2.622 . S
Gd163 N164 2.570 . S
Gd163 O195 2.386 . S
Gd163 O199 2.307 1_655 S
Gd163 O202 2.353 1_655 S
Gd163 O203 2.468 . S
Gd163 O204 2.427 . S
Gd163 O206 2.388 . S
Gd163 C227 2.805 . S
N164 C154 1.359 . S
N164 Gd163 2.570 . S
N164 C166 1.343 . S
C165 C153 1.422 1_565 S
C165 C167 1.321 . S
C165 H173 0.931 . S
C166 N164 1.343 . S
C166 C167 1.390 1_545 S
C166 H168 0.931 . S
C167 C165 1.321 . S
C167 C166 1.390 1_565 S
C167 H169 0.930 . S
H168 C166 0.931 . S
H169 C167 0.930 . S
H170 C193 0.931 . S
H171 C159 0.929 . S
H172 C194 0.930 . S
H173 C165 0.931 . S
H174 C155 0.930 1_565 S
H175 C184 0.929 . S
H176 C160 0.931 . S
H177 C161 0.930 . S
H178 C216 0.930 . S
H179 C157 0.929 . S
H180 C185 0.931 . S
H181 C186 0.930 . S
N182 Gd162 2.622 . S
N182 C183 1.369 . S
N182 C184 1.338 . S
C183 N182 1.369 . S
C183 C187 1.415 . S
C183 C190 1.422 . S
C184 H175 0.929 . S
C184 N182 1.338 . S
C184 C186 1.378 . S
C185 H180 0.931 . S
C185 C186 1.348 . S
C185 C187 1.413 . S
C186 H181 0.930 . S
C186 C184 1.378 . S
C186 C185 1.348 . S
C187 C183 1.415 . S
C187 C185 1.413 . S
C187 C217 1.437 . S
H188 C217 0.929 . S
N189 Gd162 2.570 . S
N189 C190 1.359 . S
N189 C193 1.343 . S
C190 C183 1.422 . S
C190 N189 1.359 . S
C190 C192 1.421 . S
C191 C192 1.422 . S
C191 C194 1.321 . S
C191 H218 0.931 . S
C192 C190 1.421 . S
C192 C191 1.422 . S
C192 C216 1.417 . S
C193 H170 0.931 . S
C193 N189 1.343 . S
C193 C194 1.390 . S
C194 H172 0.930 . S
C194 C191 1.321 . S
C194 C193 1.390 . S
O195 Gd163 2.386 . S
O195 C207 1.265 . S
O196 Gd162 2.334 1_655 S
O196 C207 1.266 . S
O197 Gd162 2.468 . S
O197 C215 1.263 . S
O198 Gd162 2.427 . S
O198 C215 1.252 . S
O199 Gd163 2.307 1_455 S
O199 C208 1.261 . S
O200 Gd162 2.388 . S
O200 C208 1.252 . S
O201 Gd162 2.386 . S
O201 C219 1.265 . S
O202 Gd163 2.353 1_455 S
O202 C219 1.242 . S
O203 Gd163 2.468 . S
O203 C227 1.263 . S
O204 Gd163 2.427 . S
O204 C227 1.252 . S
O205 Gd162 2.307 1_655 S
O205 C220 1.261 . S
O206 Gd163 2.388 . S
O206 C220 1.252 . S
C207 O195 1.265 . S
C207 O196 1.266 . S
C208 O199 1.261 . S
C208 O200 1.252 . S
C209 C212 1.394 . S
C209 C214 1.370 . S
C209 C215 1.500 . S
C210 C213 1.383 . S
C210 C214 1.395 . S
C211 C212 1.396 . S
C211 C213 1.365 . S
C211 H228 0.929 . S
C212 C209 1.394 . S
C212 C211 1.396 . S
C212 H229 0.930 . S
C213 C210 1.383 . S
C213 C211 1.365 . S
C213 H230 0.931 . S
C214 C209 1.370 . S
C214 C210 1.395 . S
C214 H231 0.930 . S
C215 Gd162 2.805 . S
C215 O197 1.263 . S
C215 O198 1.252 . S
C215 C209 1.500 . S
C216 H178 0.930 . S
C216 C192 1.417 . S
C216 C217 1.329 . S
C217 C187 1.437 . S
C217 H188 0.929 . S
C217 C216 1.329 . S
H218 C191 0.931 . S
C219 O201 1.265 . S
C219 O202 1.242 . S
C220 O205 1.261 . S
C220 O206 1.252 . S
C221 C224 1.394 . S
C221 C226 1.370 . S
C221 C227 1.500 . S
C222 C225 1.383 . S
C222 C226 1.395 . S
C223 C224 1.396 . S
C223 C225 1.365 . S
C223 H232 0.929 . S
C224 C221 1.394 . S
C224 C223 1.396 . S
C224 H233 0.930 . S
C225 C222 1.383 . S
C225 C223 1.365 . S
C225 H234 0.931 . S
C226 C221 1.370 . S
C226 C222 1.395 . S
C226 H235 0.930 . S
C227 Gd163 2.805 . S
C227 O203 1.263 . S
C227 O204 1.252 . S
C227 C221 1.500 . S
H228 C211 0.929 . S
H229 C212 0.930 . S
H230 C213 0.931 . S
H231 C214 0.930 . S
H232 C223 0.929 . S
H233 C224 0.930 . S
H234 C225 0.931 . S
H235 C226 0.930 . S
C236 C238 1.422 . S
C236 C240 1.415 . S
C236 N242 1.369 . S
C237 C238 1.421 . S
C237 C239 1.417 . S
C237 C249 1.422 . S
C238 C236 1.422 . S
C238 C237 1.421 . S
C238 N248 1.359 . S
C239 C237 1.417 . S
C239 C241 1.329 . S
C239 H258 0.930 . S
C240 C236 1.415 . S
C240 C241 1.437 . S
C240 C244 1.413 . S
C241 C239 1.329 . S
C241 C240 1.437 . S
C241 H263 0.929 . S
N242 C236 1.369 . S
N242 C243 1.338 . S
N242 Gd247 2.622 . S
C243 N242 1.338 . S
C243 C245 1.378 . S
C243 H255 0.929 . S
C244 C240 1.413 . S
C244 C245 1.348 . S
C244 H260 0.931 . S
C245 C243 1.378 . S
C245 C244 1.348 . S
C245 H261 0.930 . S
Gd246 N266 2.622 . S
Gd246 N273 2.570 . S
Gd246 O280 2.353 . S
Gd246 O281 2.468 . S
Gd246 O282 2.427 . S
Gd246 O284 2.388 . S
Gd246 O285 2.386 . S
Gd246 O289 2.307 . S
Gd246 C299 2.805 . S
Gd247 N242 2.622 . S
Gd247 N248 2.570 . S
Gd247 O279 2.386 . S
Gd247 O283 2.307 . S
Gd247 O286 2.353 . S
Gd247 O287 2.468 . S
Gd247 O288 2.427 . S
Gd247 O290 2.388 . S
Gd247 C311 2.805 . S
N248 C238 1.359 . S
N248 Gd247 2.570 . S
N248 C250 1.343 . S
C249 C237 1.422 . S
C249 C251 1.321 . S
C249 H257 0.931 . S
C250 N248 1.343 . S
C250 C251 1.390 . S
C250 H252 0.931 . S
C251 C249 1.321 . S
C251 C250 1.390 . S
C251 H253 0.930 . S
H252 C250 0.931 . S
H253 C251 0.930 . S
H254 C277 0.931 . S
H255 C243 0.929 . S
H256 C278 0.930 . S
H257 C249 0.931 . S
H258 C239 0.930 . S
H259 C268 0.929 . S
H260 C244 0.931 . S
H261 C245 0.930 . S
H262 C300 0.930 . S
H263 C241 0.929 . S
H264 C269 0.931 . S
H265 C270 0.930 . S
N266 Gd246 2.622 . S
N266 C267 1.369 . S
N266 C268 1.338 . S
C267 N266 1.369 . S
C267 C271 1.415 . S
C267 C274 1.422 . S
C268 H259 0.929 . S
C268 N266 1.338 . S
C268 C270 1.378 . S
C269 H264 0.931 . S
C269 C270 1.348 . S
C269 C271 1.413 . S
C270 H265 0.930 . S
C270 C268 1.378 . S
C270 C269 1.348 . S
C271 C267 1.415 . S
C271 C269 1.413 . S
C271 C301 1.437 . S
H272 C301 0.929 . S
N273 Gd246 2.570 . S
N273 C274 1.359 . S
N273 C277 1.343 . S
C274 C267 1.422 . S
C274 N273 1.359 . S
C274 C276 1.421 . S
C275 C276 1.422 . S
C275 C278 1.321 . S
C275 H302 0.931 . S
C276 C274 1.421 . S
C276 C275 1.422 . S
C276 C300 1.417 . S
C277 H254 0.931 . S
C277 N273 1.343 . S
C277 C278 1.390 . S
C278 H256 0.930 . S
C278 C275 1.321 . S
C278 C277 1.390 . S
O279 Gd247 2.386 . S
O279 C291 1.265 . S
O280 Gd246 2.353 . S
O280 C291 1.242 . S
O281 Gd246 2.468 . S
O281 C299 1.263 . S
O282 Gd246 2.427 . S
O282 C299 1.252 . S
O283 Gd247 2.307 . S
O283 C292 1.261 . S
O284 Gd246 2.388 . S
O284 C292 1.252 . S
O285 Gd246 2.386 . S
O285 C303 1.265 . S
O286 Gd247 2.353 . S
O286 C303 1.242 . S
O287 Gd247 2.468 . S
O287 C311 1.263 . S
O288 Gd247 2.427 . S
O288 C311 1.252 . S
O289 Gd246 2.307 . S
O289 C304 1.261 . S
O290 Gd247 2.388 . S
O290 C304 1.252 . S
C291 O279 1.265 . S
C291 O280 1.242 . S
C292 O283 1.261 . S
C292 O284 1.252 . S
C293 C296 1.394 . S
C293 C298 1.370 . S
C293 C299 1.500 . S
C294 C297 1.383 . S
C294 C298 1.395 . S
C295 C296 1.396 . S
C295 C297 1.365 . S
C295 H312 0.929 . S
C296 C293 1.394 . S
C296 C295 1.396 . S
C296 H313 0.930 . S
C297 C294 1.383 . S
C297 C295 1.365 . S
C297 H314 0.931 . S
C298 C293 1.370 . S
C298 C294 1.395 . S
C298 H315 0.930 . S
C299 Gd246 2.805 . S
C299 O281 1.263 . S
C299 O282 1.252 . S
C299 C293 1.500 . S
C300 H262 0.930 . S
C300 C276 1.417 . S
C300 C301 1.329 . S
C301 C271 1.437 . S
C301 H272 0.929 . S
C301 C300 1.329 . S
H302 C275 0.931 . S
C303 O285 1.265 . S
C303 O286 1.242 . S
C304 O289 1.261 . S
C304 O290 1.252 . S
C305 C308 1.394 . S
C305 C310 1.370 . S
C305 C311 1.500 . S
C306 C309 1.383 . S
C306 C310 1.395 . S
C307 C308 1.396 . S
C307 C309 1.365 . S
C307 H316 0.929 . S
C308 C305 1.394 . S
C308 C307 1.396 . S
C308 H317 0.930 . S
C309 C306 1.383 . S
C309 C307 1.365 . S
C309 H318 0.931 . S
C310 C305 1.370 . S
C310 C306 1.395 . S
C310 H319 0.930 . S
C311 Gd247 2.805 . S
C311 O287 1.263 . S
C311 O288 1.252 . S
C311 C305 1.500 . S
H312 C295 0.929 . S
H313 C296 0.930 . S
H314 C297 0.931 . S
H315 C298 0.930 . S
H316 C307 0.929 . S
H317 C308 0.930 . S
H318 C309 0.931 . S
H319 C310 0.930 . S
C320 C322 1.422 . S
C320 C324 1.415 . S
C320 N326 1.369 . S
C321 C322 1.421 . S
C321 C323 1.417 . S
C321 C333 1.422 . S
C322 C320 1.422 . S
C322 C321 1.421 . S
C322 N332 1.359 . S
C323 C321 1.417 . S
C323 C325 1.329 . S
C323 H342 0.930 . S
C324 C320 1.415 . S
C324 C325 1.437 . S
C324 C328 1.413 . S
C325 C323 1.329 . S
C325 C324 1.437 . S
C325 H347 0.929 . S
N326 C320 1.369 . S
N326 C327 1.338 . S
N326 Gd331 2.622 . S
C327 N326 1.338 . S
C327 C329 1.378 . S
C327 H339 0.929 . S
C328 C324 1.413 . S
C328 C329 1.348 . S
C328 H344 0.931 . S
C329 C327 1.378 . S
C329 C328 1.348 . S
C329 H345 0.930 . S
Gd330 N350 2.622 . S
Gd330 N357 2.570 . S
Gd330 O364 2.353 . S
Gd330 O365 2.468 . S
Gd330 O366 2.427 . S
Gd330 O368 2.388 . S
Gd330 O369 2.386 . S
Gd330 O373 2.327 . S
Gd330 C383 2.805 . S
Gd331 N326 2.622 . S
Gd331 N332 2.570 . S
Gd331 O363 2.386 . S
Gd331 O367 2.307 1_655 S
Gd331 O370 2.353 1_655 S
Gd331 O371 2.468 . S
Gd331 O372 2.427 . S
Gd331 O374 2.388 . S
Gd331 C395 2.805 . S
N332 C322 1.359 . S
N332 Gd331 2.570 . S
N332 C334 1.343 . S
C333 C321 1.422 . S
C333 C335 1.321 . S
C333 H341 0.931 . S
C334 N332 1.343 . S
C334 C335 1.390 . S
C334 H336 0.931 . S
C335 C333 1.321 . S
C335 C334 1.390 . S
C335 H337 0.930 . S
H336 C334 0.931 . S
H337 C335 0.930 . S
H338 C361 0.931 . S
H339 C327 0.929 . S
H340 C362 0.930 . S
H341 C333 0.931 . S
H342 C323 0.930 . S
H343 C352 0.929 . S
H344 C328 0.931 . S
H345 C329 0.930 . S
H346 C384 0.930 1_545 S
H347 C325 0.929 . S
H348 C353 0.931 . S
H349 C354 0.930 . S
N350 Gd330 2.622 . S
N350 C351 1.369 . S
N350 C352 1.338 . S
C351 N350 1.369 . S
C351 C355 1.415 . S
C351 C358 1.422 . S
C352 H343 0.929 . S
C352 N350 1.338 . S
C352 C354 1.378 . S
C353 H348 0.931 . S
C353 C354 1.348 . S
C353 C355 1.413 . S
C354 H349 0.930 . S
C354 C352 1.378 . S
C354 C353 1.348 . S
C355 C351 1.415 . S
C355 C353 1.413 . S
C355 C385 1.437 . S
H356 C385 0.929 . S
N357 Gd330 2.570 . S
N357 C358 1.359 . S
N357 C361 1.343 . S
C358 C351 1.422 . S
C358 N357 1.359 . S
C358 C360 1.421 . S
C359 C360 1.422 1_545 S
C359 C362 1.321 . S
C359 H386 0.931 . S
C360 C358 1.421 . S
C360 C359 1.422 1_565 S
C360 C384 1.417 . S
C361 H338 0.931 . S
C361 N357 1.343 . S
C361 C362 1.390 1_565 S
C362 H340 0.930 . S
C362 C359 1.321 . S
C362 C361 1.390 1_545 S
O363 Gd331 2.386 . S
O363 C375 1.265 . S
O364 Gd330 2.353 . S
O364 C375 1.242 1_455 S
O365 Gd330 2.468 . S
O365 C383 1.263 . S
O366 Gd330 2.427 . S
O366 C383 1.252 . S
O367 Gd331 2.307 1_455 S
O367 C376 1.261 . S
O368 Gd330 2.388 . S
O368 C376 1.252 . S
O369 Gd330 2.386 . S
O369 C387 1.265 . S
O370 Gd331 2.353 1_455 S
O370 C387 1.242 . S
O371 Gd331 2.468 . S
O371 C395 1.263 . S
O372 Gd331 2.427 . S
O372 C395 1.252 . S
O373 Gd330 2.327 . S
O373 C388 1.238 1_455 S
O374 Gd331 2.388 . S
O374 C388 1.252 . S
C375 O363 1.265 . S
C375 O364 1.242 1_655 S
C376 O367 1.261 . S
C376 O368 1.252 . S
C377 C380 1.394 . S
C377 C382 1.370 . S
C377 C383 1.500 . S
C378 C381 1.383 . S
C378 C382 1.395 . S
C379 C380 1.396 . S
C379 C381 1.365 . S
C379 H396 0.929 . S
C380 C377 1.394 . S
C380 C379 1.396 . S
C380 H397 0.930 . S
C381 C378 1.383 . S
C381 C379 1.365 . S
C381 H398 0.931 . S
C382 C377 1.370 . S
C382 C378 1.395 . S
C382 H399 0.930 . S
C383 Gd330 2.805 . S
C383 O365 1.263 . S
C383 O366 1.252 . S
C383 C377 1.500 . S
C384 H346 0.930 1_565 S
C384 C360 1.417 . S
C384 C385 1.329 . S
C385 C355 1.437 . S
C385 H356 0.929 . S
C385 C384 1.329 . S
H386 C359 0.931 . S
C387 O369 1.265 . S
C387 O370 1.242 . S
C388 O373 1.238 1_655 S
C388 O374 1.252 . S
C389 C392 1.394 . S
C389 C394 1.370 . S
C389 C395 1.500 . S
C390 C393 1.383 . S
C390 C394 1.395 . S
C391 C392 1.396 . S
C391 C393 1.365 . S
C391 H400 0.929 . S
C392 C389 1.394 . S
C392 C391 1.396 . S
C392 H401 0.930 . S
C393 C390 1.383 . S
C393 C391 1.365 . S
C393 H402 0.931 . S
C394 C389 1.370 . S
C394 C390 1.395 . S
C394 H403 0.930 . S
C395 Gd331 2.805 . S
C395 O371 1.263 . S
C395 O372 1.252 . S
C395 C389 1.500 . S
H396 C379 0.929 . S
H397 C380 0.930 . S
H398 C381 0.931 . S
H399 C382 0.930 . S
H400 C391 0.929 . S
H401 C392 0.930 . S
H402 C393 0.931 . S
H403 C394 0.930 . S
C404 C406 1.422 . S
C404 C408 1.415 . S
C404 N410 1.369 . S
C405 C406 1.421 . S
C405 C407 1.417 . S
C405 C417 1.422 . S
C406 C404 1.422 . S
C406 C405 1.421 . S
C406 N416 1.359 . S
C407 C405 1.417 . S
C407 C409 1.329 . S
C407 H426 0.930 . S
C408 C404 1.415 . S
C408 C409 1.437 . S
C408 C412 1.413 . S
C409 C407 1.329 . S
C409 C408 1.437 . S
C409 H431 0.929 . S
N410 C404 1.369 . S
N410 C411 1.338 . S
N410 Gd415 2.622 . S
C411 N410 1.338 . S
C411 C413 1.378 . S
C411 H423 0.929 . S
C412 C408 1.413 . S
C412 C413 1.348 . S
C412 H428 0.931 . S
C413 C411 1.378 . S
C413 C412 1.348 . S
C413 H429 0.930 . S
Gd414 N434 2.622 . S
Gd414 N441 2.570 . S
Gd414 O448 2.353 . S
Gd414 O449 2.468 . S
Gd414 O450 2.427 . S
Gd414 O452 2.388 . S
Gd414 O453 2.386 . S
Gd414 O457 2.307 . S
Gd414 C467 2.805 . S
Gd415 N410 2.622 . S
Gd415 N416 2.570 . S
Gd415 O447 2.386 . S
Gd415 O451 2.307 . S
Gd415 O454 2.353 . S
Gd415 O455 2.468 . S
Gd415 O456 2.427 . S
Gd415 O458 2.388 . S
Gd415 C479 2.805 . S
N416 C406 1.359 . S
N416 Gd415 2.570 . S
N416 C418 1.343 . S
C417 C405 1.422 . S
C417 C419 1.321 . S
C417 H425 0.931 . S
C418 N416 1.343 . S
C418 C419 1.390 . S
C418 H420 0.931 . S
C419 C417 1.321 . S
C419 C418 1.390 . S
C419 H421 0.930 . S
H420 C418 0.931 . S
H421 C419 0.930 . S
H422 C445 0.931 . S
H423 C411 0.929 . S
H424 C446 0.930 . S
H425 C417 0.931 . S
H426 C407 0.930 . S
H427 C436 0.929 . S
H428 C412 0.931 . S
H429 C413 0.930 . S
H430 C468 0.930 . S
H431 C409 0.929 . S
H432 C437 0.931 . S
H433 C438 0.930 . S
N434 Gd414 2.622 . S
N434 C435 1.369 . S
N434 C436 1.338 . S
C435 N434 1.369 . S
C435 C439 1.415 . S
C435 C442 1.422 . S
C436 H427 0.929 . S
C436 N434 1.338 . S
C436 C438 1.378 . S
C437 H432 0.931 . S
C437 C438 1.348 . S
C437 C439 1.413 . S
C438 H433 0.930 . S
C438 C436 1.378 . S
C438 C437 1.348 . S
C439 C435 1.415 . S
C439 C437 1.413 . S
C439 C469 1.437 . S
H440 C469 0.929 . S
N441 Gd414 2.570 . S
N441 C442 1.359 . S
N441 C445 1.343 . S
C442 C435 1.422 . S
C442 N441 1.359 . S
C442 C444 1.421 . S
C443 C444 1.422 . S
C443 C446 1.321 . S
C443 H470 0.931 . S
C444 C442 1.421 . S
C444 C443 1.422 . S
C444 C468 1.417 . S
C445 H422 0.931 . S
C445 N441 1.343 . S
C445 C446 1.390 . S
C446 H424 0.930 . S
C446 C443 1.321 . S
C446 C445 1.390 . S
O447 Gd415 2.386 . S
O447 C459 1.265 . S
O448 Gd414 2.353 . S
O448 C459 1.242 . S
O449 Gd414 2.468 . S
O449 C467 1.263 . S
O450 Gd414 2.427 . S
O450 C467 1.252 . S
O451 Gd415 2.307 . S
O451 C460 1.261 . S
O452 Gd414 2.388 . S
O452 C460 1.252 . S
O453 Gd414 2.386 . S
O453 C471 1.265 . S
O454 Gd415 2.353 . S
O454 C471 1.242 . S
O455 Gd415 2.468 . S
O455 C479 1.263 . S
O456 Gd415 2.427 . S
O456 C479 1.252 . S
O457 Gd414 2.307 . S
O457 C472 1.261 . S
O458 Gd415 2.388 . S
O458 C472 1.252 . S
C459 O447 1.265 . S
C459 O448 1.242 . S
C460 O451 1.261 . S
C460 O452 1.252 . S
C461 C464 1.394 . S
C461 C466 1.370 . S
C461 C467 1.500 . S
C462 C465 1.383 . S
C462 C466 1.395 . S
C463 C464 1.396 . S
C463 C465 1.365 . S
C463 H480 0.929 . S
C464 C461 1.394 . S
C464 C463 1.396 . S
C464 H481 0.930 . S
C465 C462 1.383 . S
C465 C463 1.365 . S
C465 H482 0.931 . S
C466 C461 1.370 . S
C466 C462 1.395 . S
C466 H483 0.930 . S
C467 Gd414 2.805 . S
C467 O449 1.263 . S
C467 O450 1.252 . S
C467 C461 1.500 . S
C468 H430 0.930 . S
C468 C444 1.417 . S
C468 C469 1.329 . S
C469 C439 1.437 . S
C469 H440 0.929 . S
C469 C468 1.329 . S
H470 C443 0.931 . S
C471 O453 1.265 . S
C471 O454 1.242 . S
C472 O457 1.261 . S
C472 O458 1.252 . S
C473 C476 1.394 . S
C473 C478 1.370 . S
C473 C479 1.500 . S
C474 C477 1.383 . S
C474 C478 1.395 . S
C475 C476 1.396 . S
C475 C477 1.365 . S
C475 H484 0.929 . S
C476 C473 1.394 . S
C476 C475 1.396 . S
C476 H485 0.930 . S
C477 C474 1.383 . S
C477 C475 1.365 . S
C477 H486 0.931 . S
C478 C473 1.370 . S
C478 C474 1.395 . S
C478 H487 0.930 . S
C479 Gd415 2.805 . S
C479 O455 1.263 . S
C479 O456 1.252 . S
C479 C473 1.500 . S
H480 C463 0.929 . S
H481 C464 0.930 . S
H482 C465 0.931 . S
H483 C466 0.930 . S
H484 C475 0.929 . S
H485 C476 0.930 . S
H486 C477 0.931 . S
H487 C478 0.930 . S
H488 C500 0.930 . S
H489 C502 0.930 . S
H490 C503 0.930 . S
H491 C507 0.959 . S
H492 C507 0.959 1_545 S
H493 C507 0.961 . S
H494 C508 0.960 . S
H495 C508 0.961 . S
H496 C508 0.959 . S
H497 C511 0.929 . S
H498 C512 0.931 . S
H499 C514 0.930 . S
C500 H488 0.930 . S
C500 C501 1.399 . S
C500 C505 1.399 . S
C501 C500 1.399 . S
C501 C502 1.376 . S
C502 H489 0.930 . S
C502 C501 1.376 . S
C502 C503 1.388 . S
C503 H490 0.930 . S
C503 C502 1.388 . S
C503 C504 1.390 . S
C504 C503 1.390 . S
C504 C505 1.394 . S
C504 C510 1.465 . S
C505 C500 1.399 . S
C505 C504 1.394 . S
C505 C506 1.516 . S
C506 C505 1.516 . S
C506 C507 1.502 . S
C506 C508 1.561 1_565 S
C506 C509 1.526 . S
C507 H491 0.959 . S
C507 H492 0.959 1_565 S
C507 H493 0.961 . S
C507 C506 1.502 . S
C508 H494 0.960 . S
C508 H495 0.961 . S
C508 H496 0.959 . S
C508 C506 1.561 1_545 S
C509 C506 1.526 . S
C509 C510 1.396 . S
C509 C514 1.390 1_565 S
C510 C504 1.465 . S
C510 C509 1.396 . S
C510 C511 1.399 . S
C511 H497 0.929 . S
C511 C510 1.399 . S
C511 C512 1.385 . S
C512 H498 0.931 . S
C512 C511 1.385 . S
C512 C513 1.389 1_565 S
C513 C512 1.389 1_545 S
C513 C514 1.387 . S
C514 H499 0.930 . S
C514 C509 1.390 1_545 S
C514 C513 1.387 . S
H515 C527 0.930 . S
H516 C529 0.930 . S
H517 C530 0.930 . S
H518 C534 0.959 . S
H519 C534 0.959 . S
H520 C534 0.961 . S
H521 C535 0.960 . S
H522 C535 0.961 . S
H523 C535 0.959 . S
H524 C538 0.929 . S
H525 C539 0.931 . S
H526 C541 0.930 . S
C527 H515 0.930 . S
C527 C528 1.399 . S
C527 C532 1.399 . S
C528 C527 1.399 . S
C528 C529 1.376 . S
C529 H516 0.930 . S
C529 C528 1.376 . S
C529 C530 1.388 . S
C530 H517 0.930 . S
C530 C529 1.388 . S
C530 C531 1.390 . S
C531 C530 1.390 . S
C531 C532 1.394 . S
C531 C537 1.465 . S
C532 C527 1.399 . S
C532 C531 1.394 . S
C532 C533 1.516 . S
C533 C532 1.516 . S
C533 C534 1.502 . S
C533 C535 1.561 . S
C533 C536 1.526 . S
C534 H518 0.959 . S
C534 H519 0.959 . S
C534 H520 0.961 . S
C534 C533 1.502 . S
C535 H521 0.960 . S
C535 H522 0.961 . S
C535 H523 0.959 . S
C535 C533 1.561 . S
C536 C533 1.526 . S
C536 C537 1.396 . S
C536 C541 1.390 . S
C537 C531 1.465 . S
C537 C536 1.396 . S
C537 C538 1.399 . S
C538 H524 0.929 . S
C538 C537 1.399 . S
C538 C539 1.385 . S
C539 H525 0.931 . S
C539 C538 1.385 . S
C539 C540 1.389 . S
C540 C539 1.389 . S
C540 C541 1.387 . S
C541 H526 0.930 . S
C541 C536 1.390 . S
C541 C540 1.387 . S
H542 C554 0.930 . S
H543 C556 0.930 . S
H544 C557 0.930 . S
H545 C561 0.959 . S
H546 C561 0.959 . S
H547 C561 0.961 . S
H548 C562 0.960 . S
H549 C562 0.961 . S
H550 C562 0.959 . S
H551 C565 0.929 . S
H552 C566 0.931 . S
H553 C568 0.930 . S
C554 H542 0.930 . S
C554 C555 1.399 . S
C554 C559 1.399 . S
C555 C554 1.399 . S
C555 C556 1.376 . S
C556 H543 0.930 . S
C556 C555 1.376 . S
C556 C557 1.388 . S
C557 H544 0.930 . S
C557 C556 1.388 . S
C557 C558 1.390 . S
C558 C557 1.390 . S
C558 C559 1.394 . S
C558 C564 1.465 . S
C559 C554 1.399 . S
C559 C558 1.394 . S
C559 C560 1.516 . S
C560 C559 1.516 . S
C560 C561 1.502 . S
C560 C562 1.561 . S
C560 C563 1.526 . S
C561 H545 0.959 . S
C561 H546 0.959 . S
C561 H547 0.961 . S
C561 C560 1.502 . S
C562 H548 0.960 . S
C562 H549 0.961 . S
C562 H550 0.959 . S
C562 C560 1.561 . S
C563 C560 1.526 . S
C563 C564 1.396 . S
C563 C568 1.390 . S
C564 C558 1.465 . S
C564 C563 1.396 . S
C564 C565 1.399 . S
C565 H551 0.929 . S
C565 C564 1.399 . S
C565 C566 1.385 . S
C566 H552 0.931 . S
C566 C565 1.385 . S
C566 C567 1.389 . S
C567 C566 1.389 . S
C567 C568 1.387 . S
C568 H553 0.930 . S
C568 C563 1.390 . S
C568 C567 1.387 . S
H569 C581 0.930 . S
H570 C583 0.930 . S
H571 C584 0.930 . S
H572 C588 0.959 1_565 S
H573 C588 0.959 . S
H574 C588 0.961 . S
H575 C589 0.960 . S
H576 C589 0.961 . S
H577 C589 0.959 . S
H578 C592 0.929 . S
H579 C593 0.931 . S
H580 C595 0.930 . S
C581 H569 0.930 . S
C581 C582 1.399 . S
C581 C586 1.399 . S
C582 C581 1.399 . S
C582 C583 1.376 . S
C583 H570 0.930 . S
C583 C582 1.376 . S
C583 C584 1.388 . S
C584 H571 0.930 . S
C584 C583 1.388 . S
C584 C585 1.390 . S
C585 C584 1.390 . S
C585 C586 1.394 . S
C585 C591 1.465 . S
C586 C581 1.399 . S
C586 C585 1.394 . S
C586 C587 1.516 . S
C587 C586 1.516 . S
C587 C588 1.502 1_565 S
C587 C589 1.561 1_565 S
C587 C590 1.526 . S
C588 H572 0.959 1_545 S
C588 H573 0.959 . S
C588 H574 0.961 . S
C588 C587 1.502 1_545 S
C589 H575 0.960 . S
C589 H576 0.961 . S
C589 H577 0.959 . S
C589 C587 1.561 1_545 S
C590 C587 1.526 . S
C590 C591 1.396 . S
C590 C595 1.390 1_565 S
C591 C585 1.465 . S
C591 C590 1.396 . S
C591 C592 1.399 . S
C592 H578 0.929 . S
C592 C591 1.399 . S
C592 C593 1.385 . S
C593 H579 0.931 . S
C593 C592 1.385 . S
C593 C594 1.389 1_565 S
C594 C593 1.389 1_545 S
C594 C595 1.387 . S
C595 H580 0.930 . S
C595 C590 1.390 1_545 S
C595 C594 1.387 . S
H596 C608 0.930 . S
H597 C610 0.930 . S
H598 C611 0.930 . S
H599 C615 0.959 . S
H600 C615 0.959 . S
H601 C615 0.961 . S
H602 C616 0.960 . S
H603 C616 0.961 1_565 S
H604 C616 0.959 1_565 S
H605 C619 0.929 . S
H606 C620 0.931 . S
H607 C622 0.930 . S
C608 H596 0.930 . S
C608 C609 1.399 . S
C608 C613 1.399 . S
C609 C608 1.399 . S
C609 C610 1.376 . S
C610 H597 0.930 . S
C610 C609 1.376 . S
C610 C611 1.388 . S
C611 H598 0.930 . S
C611 C610 1.388 . S
C611 C612 1.390 . S
C612 C611 1.390 . S
C612 C613 1.394 . S
C612 C618 1.465 . S
C613 C608 1.399 . S
C613 C612 1.394 . S
C613 C614 1.516 . S
C614 C613 1.516 . S
C614 C615 1.502 . S
C614 C616 1.561 . S
C614 C617 1.526 . S
C615 H599 0.959 . S
C615 H600 0.959 . S
C615 H601 0.961 . S
C615 C614 1.502 . S
C616 H602 0.960 . S
C616 H603 0.961 1_545 S
C616 H604 0.959 1_545 S
C616 C614 1.561 . S
C617 C614 1.526 . S
C617 C618 1.396 . S
C617 C622 1.390 1_545 S
C618 C612 1.465 . S
C618 C617 1.396 . S
C618 C619 1.399 . S
C619 H605 0.929 . S
C619 C618 1.399 . S
C619 C620 1.385 1_545 S
C620 H606 0.931 . S
C620 C619 1.385 1_565 S
C620 C621 1.389 . S
C621 C620 1.389 . S
C621 C622 1.387 . S
C622 H607 0.930 . S
C622 C617 1.390 1_565 S
C622 C621 1.387 . S
H623 C635 0.930 . S
H624 C637 0.930 . S
H625 C638 0.930 . S
H626 C642 0.959 . S
H627 C642 0.959 . S
H628 C642 0.961 . S
H629 C643 0.960 . S
H630 C643 0.961 . S
H631 C643 0.959 . S
H632 C646 0.929 . S
H633 C647 0.931 . S
H634 C649 0.930 . S
C635 H623 0.930 . S
C635 C636 1.399 . S
C635 C640 1.399 . S
C636 C635 1.399 . S
C636 C637 1.376 . S
C637 H624 0.930 . S
C637 C636 1.376 . S
C637 C638 1.388 . S
C638 H625 0.930 . S
C638 C637 1.388 . S
C638 C639 1.390 . S
C639 C638 1.390 . S
C639 C640 1.394 . S
C639 C645 1.465 . S
C640 C635 1.399 . S
C640 C639 1.394 . S
C640 C641 1.516 . S
C641 C640 1.516 . S
C641 C642 1.502 . S
C641 C643 1.561 . S
C641 C644 1.526 . S
C642 H626 0.959 . S
C642 H627 0.959 . S
C642 H628 0.961 . S
C642 C641 1.502 . S
C643 H629 0.960 . S
C643 H630 0.961 . S
C643 H631 0.959 . S
C643 C641 1.561 . S
C644 C641 1.526 . S
C644 C645 1.396 . S
C644 C649 1.390 . S
C645 C639 1.465 . S
C645 C644 1.396 . S
C645 C646 1.399 . S
C646 H632 0.929 . S
C646 C645 1.399 . S
C646 C647 1.385 . S
C647 H633 0.931 . S
C647 C646 1.385 . S
C647 C648 1.389 . S
C648 C647 1.389 . S
C648 C649 1.387 . S
C649 H634 0.930 . S
C649 C644 1.390 . S
C649 C648 1.387 . S
H650 C662 0.930 . S
H651 C664 0.930 . S
H652 C665 0.930 . S
H653 C669 0.959 . S
H654 C669 0.959 . S
H655 C669 0.961 . S
H656 C670 0.960 . S
H657 C670 0.961 . S
H658 C670 0.959 . S
H659 C673 0.929 . S
H660 C674 0.931 . S
H661 C676 0.930 . S
C662 H650 0.930 . S
C662 C663 1.399 . S
C662 C667 1.399 . S
C663 C662 1.399 . S
C663 C664 1.376 . S
C664 H651 0.930 . S
C664 C663 1.376 . S
C664 C665 1.388 . S
C665 H652 0.930 . S
C665 C664 1.388 . S
C665 C666 1.390 . S
C666 C665 1.390 . S
C666 C667 1.394 . S
C666 C672 1.465 . S
C667 C662 1.399 . S
C667 C666 1.394 . S
C667 C668 1.516 . S
C668 C667 1.516 . S
C668 C669 1.502 . S
C668 C670 1.561 . S
C668 C671 1.526 . S
C669 H653 0.959 . S
C669 H654 0.959 . S
C669 H655 0.961 . S
C669 C668 1.502 . S
C670 H656 0.960 . S
C670 H657 0.961 . S
C670 H658 0.959 . S
C670 C668 1.561 . S
C671 C668 1.526 . S
C671 C672 1.396 . S
C671 C676 1.390 . S
C672 C666 1.465 . S
C672 C671 1.396 . S
C672 C673 1.399 . S
C673 H659 0.929 . S
C673 C672 1.399 . S
C673 C674 1.385 . S
C674 H660 0.931 . S
C674 C673 1.385 . S
C674 C675 1.389 . S
C675 C674 1.389 . S
C675 C676 1.387 . S
C676 H661 0.930 . S
C676 C671 1.390 . S
C676 C675 1.387 . S
H677 C689 0.930 . S
H678 C691 0.930 . S
H679 C692 0.930 . S
H680 C696 0.959 . S
H681 C696 0.959 . S
H682 C696 0.961 . S
H683 C697 0.960 . S
H684 C697 0.961 . S
H685 C697 0.959 . S
H686 C700 0.929 . S
H687 C701 0.931 . S
H688 C703 0.930 . S
C689 H677 0.930 . S
C689 C690 1.399 . S
C689 C694 1.399 . S
C690 C689 1.399 . S
C690 C691 1.376 . S
C691 H678 0.930 . S
C691 C690 1.376 . S
C691 C692 1.388 . S
C692 H679 0.930 . S
C692 C691 1.388 . S
C692 C693 1.390 . S
C693 C692 1.390 . S
C693 C694 1.394 . S
C693 C699 1.465 . S
C694 C689 1.399 . S
C694 C693 1.394 . S
C694 C695 1.516 . S
C695 C694 1.516 . S
C695 C696 1.502 . S
C695 C697 1.561 . S
C695 C698 1.526 . S
C696 H680 0.959 . S
C696 H681 0.959 . S
C696 H682 0.961 . S
C696 C695 1.502 . S
C697 H683 0.960 . S
C697 H684 0.961 . S
C697 H685 0.959 . S
C697 C695 1.561 . S
C698 C695 1.526 . S
C698 C699 1.396 . S
C698 C703 1.390 . S
C699 C693 1.465 . S
C699 C698 1.396 . S
C699 C700 1.399 . S
C700 H686 0.929 . S
C700 C699 1.399 . S
C700 C701 1.385 1_545 S
C701 H687 0.931 . S
C701 C700 1.385 1_565 S
C701 C702 1.389 . S
C702 C701 1.389 . S
C702 C703 1.387 1_565 S
C703 H688 0.930 . S
C703 C698 1.390 . S
C703 C702 1.387 1_545 S
H704 C716 0.930 . S
H705 C718 0.930 . S
H706 C719 0.930 . S
H707 C723 0.960 . S
H708 C723 0.959 1_554 S
H709 C723 0.961 . S
H710 C724 0.960 1_556 S
H711 C724 0.961 . S
H712 C724 0.959 . S
H713 C727 0.929 . S
H714 C728 0.931 . S
H715 C730 0.930 . S
C716 H704 0.930 . S
C716 C717 1.399 . S
C716 C721 1.404 . S
C717 C716 1.399 . S
C717 C718 1.376 . S
C718 H705 0.930 . S
C718 C717 1.376 . S
C718 C719 1.388 1_556 S
C719 H706 0.930 . S
C719 C718 1.388 1_554 S
C719 C720 1.390 . S
C720 C719 1.390 . S
C720 C721 1.390 1_554 S
C720 C726 1.465 . S
C721 C716 1.404 . S
C721 C720 1.390 1_556 S
C721 C722 1.514 1_556 S
C722 C721 1.514 1_554 S
C722 C723 1.502 1_554 S
C722 C724 1.561 . S
C722 C725 1.526 . S
C723 H707 0.960 . S
C723 H708 0.959 1_556 S
C723 H709 0.961 . S
C723 C722 1.502 1_556 S
C724 H710 0.960 1_554 S
C724 H711 0.961 . S
C724 H712 0.959 . S
C724 C722 1.561 . S
C725 C722 1.526 . S
C725 C726 1.396 . S
C725 C730 1.390 . S
C726 C720 1.465 . S
C726 C725 1.396 . S
C726 C727 1.399 . S
C727 H713 0.929 . S
C727 C726 1.399 . S
C727 C728 1.385 . S
C728 H714 0.931 . S
C728 C727 1.385 . S
C728 C729 1.389 . S
C729 C728 1.389 . S
C729 C730 1.387 . S
C730 H715 0.930 . S
C730 C725 1.390 . S
C730 C729 1.387 . S
H731 C743 0.930 . S
H732 C745 0.930 . S
H733 C746 0.930 . S
H734 C750 0.959 . S
H735 C750 0.959 . S
H736 C750 0.961 . S
H737 C751 0.960 . S
H738 C751 0.961 . S
H739 C751 0.959 . S
H740 C754 0.929 . S
H741 C755 0.931 . S
H742 C757 0.930 . S
C743 H731 0.930 . S
C743 C744 1.399 . S
C743 C748 1.399 . S
C744 C743 1.399 . S
C744 C745 1.376 . S
C745 H732 0.930 . S
C745 C744 1.376 . S
C745 C746 1.388 . S
C746 H733 0.930 . S
C746 C745 1.388 . S
C746 C747 1.390 . S
C747 C746 1.390 . S
C747 C748 1.394 . S
C747 C753 1.465 . S
C748 C743 1.399 . S
C748 C747 1.394 . S
C748 C749 1.516 . S
C749 C748 1.516 . S
C749 C750 1.502 . S
C749 C751 1.561 . S
C749 C752 1.526 . S
C750 H734 0.959 . S
C750 H735 0.959 . S
C750 H736 0.961 . S
C750 C749 1.502 . S
C751 H737 0.960 . S
C751 H738 0.961 . S
C751 H739 0.959 . S
C751 C749 1.561 . S
C752 C749 1.526 . S
C752 C753 1.396 . S
C752 C757 1.390 . S
C753 C747 1.465 . S
C753 C752 1.396 . S
C753 C754 1.399 . S
C754 H740 0.929 . S
C754 C753 1.399 . S
C754 C755 1.385 . S
C755 H741 0.931 . S
C755 C754 1.385 . S
C755 C756 1.389 . S
C756 C755 1.389 . S
C756 C757 1.387 . S
C757 H742 0.930 . S
C757 C752 1.390 . S
C757 C756 1.387 . S
H758 C770 0.930 . S
H759 C772 0.930 . S
H760 C773 0.930 . S
H761 C777 0.959 . S
H762 C777 0.959 1_556 S
H763 C777 0.961 . S
H764 C778 0.960 1_554 S
H765 C778 0.961 . S
H766 C778 0.959 . S
H767 C781 0.929 . S
H768 C782 0.931 . S
H769 C784 0.930 . S
C770 H758 0.930 . S
C770 C771 1.399 . S
C770 C775 1.399 . S
C771 C770 1.399 . S
C771 C772 1.376 . S
C772 H759 0.930 . S
C772 C771 1.376 . S
C772 C773 1.388 1_554 S
C773 H760 0.930 . S
C773 C772 1.388 1_556 S
C773 C774 1.390 . S
C774 C773 1.390 . S
C774 C775 1.394 1_556 S
C774 C780 1.465 . S
C775 C770 1.399 . S
C775 C774 1.394 1_554 S
C775 C776 1.516 1_554 S
C776 C775 1.516 1_556 S
C776 C777 1.502 1_556 S
C776 C778 1.561 . S
C776 C779 1.526 . S
C777 H761 0.959 . S
C777 H762 0.959 1_554 S
C777 H763 0.961 . S
C777 C776 1.502 1_554 S
C778 H764 0.960 1_556 S
C778 H765 0.961 . S
C778 H766 0.959 . S
C778 C776 1.561 . S
C779 C776 1.526 . S
C779 C780 1.396 . S
C779 C784 1.390 . S
C780 C774 1.465 . S
C780 C779 1.396 . S
C780 C781 1.399 . S
C781 H767 0.929 . S
C781 C780 1.399 . S
C781 C782 1.385 . S
C782 H768 0.931 . S
C782 C781 1.385 . S
C782 C783 1.389 . S
C783 C782 1.389 . S
C783 C784 1.387 . S
C784 H769 0.930 . S
C784 C779 1.390 . S
C784 C783 1.387 . S
H785 C797 0.930 . S
H786 C799 0.930 . S
H787 C800 0.930 . S
H788 C804 0.959 . S
H789 C804 0.959 . S
H790 C804 0.961 . S
H791 C805 0.960 . S
H792 C805 0.961 . S
H793 C805 0.959 . S
H794 C808 0.929 . S
H795 C809 0.931 . S
H796 C811 0.930 . S
C797 H785 0.930 . S
C797 C798 1.399 . S
C797 C802 1.399 . S
C798 C797 1.399 . S
C798 C799 1.376 . S
C799 H786 0.930 . S
C799 C798 1.376 . S
C799 C800 1.388 . S
C800 H787 0.930 . S
C800 C799 1.388 . S
C800 C801 1.390 . S
C801 C800 1.390 . S
C801 C802 1.394 . S
C801 C807 1.465 . S
C802 C797 1.399 . S
C802 C801 1.394 . S
C802 C803 1.516 . S
C803 C802 1.516 . S
C803 C804 1.502 . S
C803 C805 1.561 . S
C803 C806 1.526 . S
C804 H788 0.959 . S
C804 H789 0.959 . S
C804 H790 0.961 . S
C804 C803 1.502 . S
C805 H791 0.960 . S
C805 H792 0.961 . S
C805 H793 0.959 . S
C805 C803 1.561 . S
C806 C803 1.526 . S
C806 C807 1.396 . S
C806 C811 1.390 . S
C807 C801 1.465 . S
C807 C806 1.396 . S
C807 C808 1.399 . S
C808 H794 0.929 . S
C808 C807 1.399 . S
C808 C809 1.385 . S
C809 H795 0.931 . S
C809 C808 1.385 . S
C809 C810 1.389 . S
C810 C809 1.389 . S
C810 C811 1.387 . S
C811 H796 0.930 . S
C811 C806 1.390 . S
C811 C810 1.387 . S
H812 C824 0.930 . S
H813 C826 0.930 . S
H814 C827 0.930 . S
H815 C831 0.959 . S
H816 C831 0.959 . S
H817 C831 0.961 1_554 S
H818 C832 0.960 . S
H819 C832 0.961 . S
H820 C832 0.959 . S
H821 C835 0.929 . S
H822 C836 0.931 . S
H823 C838 0.930 . S
C824 H812 0.930 . S
C824 C825 1.399 . S
C824 C829 1.399 1_554 S
C825 C824 1.399 . S
C825 C826 1.376 . S
C826 H813 0.930 . S
C826 C825 1.376 . S
C826 C827 1.388 1_554 S
C827 H814 0.930 . S
C827 C826 1.388 1_556 S
C827 C828 1.390 . S
C828 C827 1.390 . S
C828 C829 1.394 . S
C828 C834 1.465 . S
C829 C824 1.399 1_556 S
C829 C828 1.394 . S
C829 C830 1.516 . S
C830 C829 1.516 . S
C830 C831 1.502 . S
C830 C832 1.561 . S
C830 C833 1.526 . S
C831 H815 0.959 . S
C831 H816 0.959 . S
C831 H817 0.961 1_556 S
C831 C830 1.502 . S
C832 H818 0.960 . S
C832 H819 0.961 . S
C832 H820 0.959 . S
C832 C830 1.561 . S
C833 C830 1.526 . S
C833 C834 1.396 . S
C833 C838 1.390 . S
C834 C828 1.465 . S
C834 C833 1.396 . S
C834 C835 1.399 . S
C835 H821 0.929 . S
C835 C834 1.399 . S
C835 C836 1.385 . S
C836 H822 0.931 . S
C836 C835 1.385 . S
C836 C837 1.389 . S
C837 C836 1.389 . S
C837 C838 1.387 . S
C838 H823 0.930 . S
C838 C833 1.390 . S
C838 C837 1.387 . S
H839 C851 0.930 . S
H840 C853 0.930 . S
H841 C854 0.930 . S
H842 C858 0.959 . S
H843 C858 0.959 . S
H844 C858 0.961 . S
H845 C859 0.960 . S
H846 C859 0.961 . S
H847 C859 0.959 . S
H848 C862 0.929 . S
H849 C863 0.931 . S
H850 C865 0.930 . S
C851 H839 0.930 . S
C851 C852 1.399 . S
C851 C856 1.399 . S
C852 C851 1.399 . S
C852 C853 1.376 . S
C853 H840 0.930 . S
C853 C852 1.376 . S
C853 C854 1.388 . S
C854 H841 0.930 . S
C854 C853 1.388 . S
C854 C855 1.390 . S
C855 C854 1.390 . S
C855 C856 1.394 . S
C855 C861 1.465 . S
C856 C851 1.399 . S
C856 C855 1.394 . S
C856 C857 1.516 . S
C857 C856 1.516 . S
C857 C858 1.502 . S
C857 C859 1.561 . S
C857 C860 1.526 . S
C858 H842 0.959 . S
C858 H843 0.959 . S
C858 H844 0.961 . S
C858 C857 1.502 . S
C859 H845 0.960 . S
C859 H846 0.961 . S
C859 H847 0.959 . S
C859 C857 1.561 . S
C860 C857 1.526 . S
C860 C861 1.396 . S
C860 C865 1.390 . S
C861 C855 1.465 . S
C861 C860 1.396 . S
C861 C862 1.399 . S
C862 H848 0.929 . S
C862 C861 1.399 . S
C862 C863 1.385 . S
C863 H849 0.931 . S
C863 C862 1.385 . S
C863 C864 1.389 . S
C864 C863 1.389 . S
C864 C865 1.387 . S
C865 H850 0.930 . S
C865 C860 1.390 . S
C865 C864 1.387 . S
H866 C878 0.930 . S
H867 C880 0.930 . S
H868 C881 0.930 1_554 S
H869 C885 0.959 . S
H870 C885 0.959 . S
H871 C885 0.961 1_556 S
H872 C886 0.960 . S
H873 C886 0.961 . S
H874 C886 0.959 . S
H875 C889 0.929 . S
H876 C890 0.931 . S
H877 C892 0.930 . S
C878 H866 0.930 . S
C878 C879 1.399 . S
C878 C883 1.399 1_556 S
C879 C878 1.399 . S
C879 C880 1.376 . S
C880 H867 0.930 . S
C880 C879 1.376 . S
C880 C881 1.388 . S
C881 H868 0.930 1_556 S
C881 C880 1.388 . S
C881 C882 1.390 1_556 S
C882 C881 1.390 1_554 S
C882 C883 1.394 . S
C882 C888 1.465 . S
C883 C878 1.399 1_554 S
C883 C882 1.394 . S
C883 C884 1.516 . S
C884 C883 1.516 . S
C884 C885 1.502 . S
C884 C886 1.561 . S
C884 C887 1.526 . S
C885 H869 0.959 . S
C885 H870 0.959 . S
C885 H871 0.961 1_554 S
C885 C884 1.502 . S
C886 H872 0.960 . S
C886 H873 0.961 . S
C886 H874 0.959 . S
C886 C884 1.561 . S
C887 C884 1.526 . S
C887 C888 1.396 . S
C887 C892 1.390 . S
C888 C882 1.465 . S
C888 C887 1.396 . S
C888 C889 1.399 . S
C889 H875 0.929 . S
C889 C888 1.399 . S
C889 C890 1.385 . S
C890 H876 0.931 . S
C890 C889 1.385 . S
C890 C891 1.389 . S
C891 C890 1.389 . S
C891 C892 1.387 . S
C892 H877 0.930 . S
C892 C887 1.390 . S
C892 C891 1.387 . S
H893 C905 0.930 . S
H894 C907 0.930 . S
H895 C908 0.930 . S
H896 C912 0.959 . S
H897 C912 0.959 . S
H898 C912 0.961 . S
H899 C913 0.960 . S
H900 C913 0.961 . S
H901 C913 0.959 . S
H902 C916 0.929 . S
H903 C917 0.931 . S
H904 C919 0.930 . S
C905 H893 0.930 . S
C905 C906 1.399 . S
C905 C910 1.399 . S
C906 C905 1.399 . S
C906 C907 1.376 . S
C907 H894 0.930 . S
C907 C906 1.376 . S
C907 C908 1.388 . S
C908 H895 0.930 . S
C908 C907 1.388 . S
C908 C909 1.390 . S
C909 C908 1.390 . S
C909 C910 1.394 . S
C909 C915 1.465 . S
C910 C905 1.399 . S
C910 C909 1.394 . S
C910 C911 1.516 . S
C911 C910 1.516 . S
C911 C912 1.502 . S
C911 C913 1.561 . S
C911 C914 1.526 . S
C912 H896 0.959 . S
C912 H897 0.959 . S
C912 H898 0.961 . S
C912 C911 1.502 . S
C913 H899 0.960 . S
C913 H900 0.961 . S
C913 H901 0.959 . S
C913 C911 1.561 . S
C914 C911 1.526 . S
C914 C915 1.396 . S
C914 C919 1.390 . S
C915 C909 1.465 . S
C915 C914 1.396 . S
C915 C916 1.399 . S
C916 H902 0.929 . S
C916 C915 1.399 . S
C916 C917 1.385 . S
C917 H903 0.931 . S
C917 C916 1.385 . S
C917 C918 1.389 . S
C918 C917 1.389 . S
C918 C919 1.387 . S
C919 H904 0.930 . S
C919 C914 1.390 . S
C919 C918 1.387 . S
H920 C932 0.930 . S
H921 C934 0.930 . S
H922 C935 0.930 . S
H923 C939 0.959 . S
H924 C939 0.959 . S
H925 C939 0.961 . S
H926 C940 0.960 . S
H927 C940 0.961 . S
H928 C940 0.959 . S
H929 C943 0.929 . S
H930 C944 0.931 . S
H931 C946 0.930 . S
C932 H920 0.930 . S
C932 C933 1.399 . S
C932 C937 1.399 . S
C933 C932 1.399 . S
C933 C934 1.376 . S
C934 H921 0.930 . S
C934 C933 1.376 . S
C934 C935 1.388 . S
C935 H922 0.930 . S
C935 C934 1.388 . S
C935 C936 1.390 . S
C936 C935 1.390 . S
C936 C937 1.394 . S
C936 C942 1.465 . S
C937 C932 1.399 . S
C937 C936 1.394 . S
C937 C938 1.516 . S
C938 C937 1.516 . S
C938 C939 1.502 . S
C938 C940 1.561 . S
C938 C941 1.526 . S
C939 H923 0.959 . S
C939 H924 0.959 . S
C939 H925 0.961 . S
C939 C938 1.502 . S
C940 H926 0.960 . S
C940 H927 0.961 . S
C940 H928 0.959 . S
C940 C938 1.561 . S
C941 C938 1.526 . S
C941 C942 1.396 . S
C941 C946 1.390 . S
C942 C936 1.465 . S
C942 C941 1.396 . S
C942 C943 1.399 . S
C943 H929 0.929 . S
C943 C942 1.399 . S
C943 C944 1.385 . S
C944 H930 0.931 . S
C944 C943 1.385 . S
C944 C945 1.389 . S
C945 C944 1.389 . S
C945 C946 1.387 . S
C946 H931 0.930 . S
C946 C941 1.390 . S
C946 C945 1.387 . S
H947 C959 0.930 . S
H948 C961 0.930 . S
H949 C962 0.930 . S
H950 C966 0.959 . S
H951 C966 0.959 . S
H952 C966 0.961 . S
H953 C967 0.960 . S
H954 C967 0.961 . S
H955 C967 0.959 . S
H956 C970 0.929 . S
H957 C971 0.931 . S
H958 C973 0.930 . S
C959 H947 0.930 . S
C959 C960 1.399 . S
C959 C964 1.399 . S
C960 C959 1.399 . S
C960 C961 1.376 . S
C961 H948 0.930 . S
C961 C960 1.376 . S
C961 C962 1.388 . S
C962 H949 0.930 . S
C962 C961 1.388 . S
C962 C963 1.390 . S
C963 C962 1.390 . S
C963 C964 1.394 . S
C963 C969 1.465 . S
C964 C959 1.399 . S
C964 C963 1.394 . S
C964 C965 1.516 . S
C965 C964 1.516 . S
C965 C966 1.502 . S
C965 C967 1.561 . S
C965 C968 1.526 . S
C966 H950 0.959 . S
C966 H951 0.959 . S
C966 H952 0.961 . S
C966 C965 1.502 . S
C967 H953 0.960 . S
C967 H954 0.961 . S
C967 H955 0.959 . S
C967 C965 1.561 . S
C968 C965 1.526 . S
C968 C969 1.396 . S
C968 C973 1.390 . S
C969 C963 1.465 . S
C969 C968 1.396 . S
C969 C970 1.399 . S
C970 H956 0.929 . S
C970 C969 1.399 . S
C970 C971 1.385 . S
C971 H957 0.931 . S
C971 C970 1.385 . S
C971 C972 1.389 . S
C972 C971 1.389 . S
C972 C973 1.387 . S
C973 H958 0.930 . S
C973 C968 1.390 . S
C973 C972 1.387 . S
H974 C986 0.930 . S
H975 C988 0.930 . S
H976 C989 0.930 . S
H977 C993 0.959 . S
H978 C993 0.959 . S
H979 C993 0.961 . S
H980 C994 0.960 . S
H981 C994 0.961 . S
H982 C994 0.959 . S
H983 C997 0.929 . S
H984 C998 0.931 . S
H985 C1000 0.930 . S
C986 H974 0.930 . S
C986 C987 1.399 . S
C986 C991 1.399 . S
C987 C986 1.399 . S
C987 C988 1.376 . S
C988 H975 0.930 . S
C988 C987 1.376 . S
C988 C989 1.388 . S
C989 H976 0.930 . S
C989 C988 1.388 . S
C989 C990 1.390 . S
C990 C989 1.390 . S
C990 C991 1.394 . S
C990 C996 1.465 . S
C991 C986 1.399 . S
C991 C990 1.394 . S
C991 C992 1.516 . S
C992 C991 1.516 . S
C992 C993 1.502 . S
C992 C994 1.561 . S
C992 C995 1.526 . S
C993 H977 0.959 . S
C993 H978 0.959 . S
C993 H979 0.961 . S
C993 C992 1.502 . S
C994 H980 0.960 . S
C994 H981 0.961 . S
C994 H982 0.959 . S
C994 C992 1.561 . S
C995 C992 1.526 . S
C995 C996 1.396 . S
C995 C1000 1.390 . S
C996 C990 1.465 . S
C996 C995 1.396 . S
C996 C997 1.399 . S
C997 H983 0.929 . S
C997 C996 1.399 . S
C997 C998 1.385 . S
C998 H984 0.931 . S
C998 C997 1.385 . S
C998 C999 1.389 . S
C999 C998 1.389 . S
C999 C1000 1.387 . S
C1000 H985 0.930 . S
C1000 C995 1.390 . S
C1000 C999 1.387 . S
H1001 C1013 0.930 . S
H1002 C1015 0.930 . S
H1003 C1016 0.930 . S
H1004 C1020 0.959 . S
H1005 C1020 0.959 . S
H1006 C1020 0.961 . S
H1007 C1021 0.960 . S
H1008 C1021 0.961 . S
H1009 C1021 0.959 . S
H1010 C1024 0.929 . S
H1011 C1025 0.931 . S
H1012 C1027 0.930 . S
C1013 H1001 0.930 . S
C1013 C1014 1.399 . S
C1013 C1018 1.399 . S
C1014 C1013 1.399 . S
C1014 C1015 1.376 . S
C1015 H1002 0.930 . S
C1015 C1014 1.376 . S
C1015 C1016 1.388 . S
C1016 H1003 0.930 . S
C1016 C1015 1.388 . S
C1016 C1017 1.390 . S
C1017 C1016 1.390 . S
C1017 C1018 1.394 . S
C1017 C1023 1.465 . S
C1018 C1013 1.399 . S
C1018 C1017 1.394 . S
C1018 C1019 1.516 . S
C1019 C1018 1.516 . S
C1019 C1020 1.502 . S
C1019 C1021 1.561 . S
C1019 C1022 1.526 . S
C1020 H1004 0.959 . S
C1020 H1005 0.959 . S
C1020 H1006 0.961 . S
C1020 C1019 1.502 . S
C1021 H1007 0.960 . S
C1021 H1008 0.961 . S
C1021 H1009 0.959 . S
C1021 C1019 1.561 . S
C1022 C1019 1.526 . S
C1022 C1023 1.396 . S
C1022 C1027 1.390 . S
C1023 C1017 1.465 . S
C1023 C1022 1.396 . S
C1023 C1024 1.399 . S
C1024 H1010 0.929 . S
C1024 C1023 1.399 . S
C1024 C1025 1.385 . S
C1025 H1011 0.931 . S
C1025 C1024 1.385 . S
C1025 C1026 1.389 . S
C1026 C1025 1.389 . S
C1026 C1027 1.387 . S
C1027 H1012 0.930 . S
C1027 C1022 1.390 . S
C1027 C1026 1.387 . S
H1028 C1040 0.930 . S
H1029 C1042 0.930 . S
H1030 C1043 0.930 . S
H1031 C1047 0.959 . S
H1032 C1047 0.959 . S
H1033 C1047 0.961 . S
H1034 C1048 0.960 . S
H1035 C1048 0.961 . S
H1036 C1048 0.959 . S
H1037 C1051 0.929 . S
H1038 C1052 0.931 1_455 S
H1039 C1054 0.930 . S
C1040 H1028 0.930 . S
C1040 C1041 1.399 . S
C1040 C1045 1.399 . S
C1041 C1040 1.399 . S
C1041 C1042 1.376 . S
C1042 H1029 0.930 . S
C1042 C1041 1.376 . S
C1042 C1043 1.388 . S
C1043 H1030 0.930 . S
C1043 C1042 1.388 . S
C1043 C1044 1.390 . S
C1044 C1043 1.390 . S
C1044 C1045 1.394 . S
C1044 C1050 1.465 . S
C1045 C1040 1.399 . S
C1045 C1044 1.394 . S
C1045 C1046 1.516 . S
C1046 C1045 1.516 . S
C1046 C1047 1.502 . S
C1046 C1048 1.561 . S
C1046 C1049 1.526 . S
C1047 H1031 0.959 . S
C1047 H1032 0.959 . S
C1047 H1033 0.961 . S
C1047 C1046 1.502 . S
C1048 H1034 0.960 . S
C1048 H1035 0.961 . S
C1048 H1036 0.959 . S
C1048 C1046 1.561 . S
C1049 C1046 1.526 . S
C1049 C1050 1.396 . S
C1049 C1054 1.390 . S
C1050 C1044 1.465 . S
C1050 C1049 1.396 . S
C1050 C1051 1.399 . S
C1051 H1037 0.929 . S
C1051 C1050 1.399 . S
C1051 C1052 1.385 . S
C1052 H1038 0.931 1_655 S
C1052 C1051 1.385 . S
C1052 C1053 1.389 . S
C1053 C1052 1.389 . S
C1053 C1054 1.387 . S
C1054 H1039 0.930 . S
C1054 C1049 1.390 . S
C1054 C1053 1.387 . S
H1055 C1067 0.930 . S
H1056 C1069 0.930 . S
H1057 C1070 0.930 . S
H1058 C1074 0.959 . S
H1059 C1074 0.959 . S
H1060 C1074 0.961 . S
H1061 C1075 0.960 . S
H1062 C1075 0.961 . S
H1063 C1075 0.959 . S
H1064 C1078 0.929 . S
H1065 C1079 0.931 . S
H1066 C1081 0.930 . S
C1067 H1055 0.930 . S
C1067 C1068 1.399 . S
C1067 C1072 1.399 . S
C1068 C1067 1.399 . S
C1068 C1069 1.376 . S
C1069 H1056 0.930 . S
C1069 C1068 1.376 . S
C1069 C1070 1.388 . S
C1070 H1057 0.930 . S
C1070 C1069 1.388 . S
C1070 C1071 1.390 . S
C1071 C1070 1.390 . S
C1071 C1072 1.394 . S
C1071 C1077 1.465 . S
C1072 C1067 1.399 . S
C1072 C1071 1.394 . S
C1072 C1073 1.516 . S
C1073 C1072 1.516 . S
C1073 C1074 1.502 . S
C1073 C1075 1.561 . S
C1073 C1076 1.526 . S
C1074 H1058 0.959 . S
C1074 H1059 0.959 . S
C1074 H1060 0.961 . S
C1074 C1073 1.502 . S
C1075 H1061 0.960 . S
C1075 H1062 0.961 . S
C1075 H1063 0.959 . S
C1075 C1073 1.561 . S
C1076 C1073 1.526 . S
C1076 C1077 1.396 . S
C1076 C1081 1.390 . S
C1077 C1071 1.465 . S
C1077 C1076 1.396 . S
C1077 C1078 1.399 . S
C1078 H1064 0.929 . S
C1078 C1077 1.399 . S
C1078 C1079 1.385 . S
C1079 H1065 0.931 . S
C1079 C1078 1.385 . S
C1079 C1080 1.389 . S
C1080 C1079 1.389 . S
C1080 C1081 1.387 . S
C1081 H1066 0.930 . S
C1081 C1076 1.390 . S
C1081 C1080 1.387 . S
H1082 C1094 0.930 . S
H1083 C1096 0.930 . S
H1084 C1097 0.930 . S
H1085 C1101 0.959 . S
H1086 C1101 0.959 . S
H1087 C1101 0.961 . S
H1088 C1102 0.960 . S
H1089 C1102 0.961 . S
H1090 C1102 0.959 . S
H1091 C1105 0.929 . S
H1092 C1106 0.931 . S
H1093 C1108 0.930 . S
C1094 H1082 0.930 . S
C1094 C1095 1.399 . S
C1094 C1099 1.399 . S
C1095 C1094 1.399 . S
C1095 C1096 1.376 . S
C1096 H1083 0.930 . S
C1096 C1095 1.376 . S
C1096 C1097 1.388 . S
C1097 H1084 0.930 . S
C1097 C1096 1.388 . S
C1097 C1098 1.390 . S
C1098 C1097 1.390 . S
C1098 C1099 1.394 . S
C1098 C1104 1.465 . S
C1099 C1094 1.399 . S
C1099 C1098 1.394 . S
C1099 C1100 1.516 . S
C1100 C1099 1.516 . S
C1100 C1101 1.502 . S
C1100 C1102 1.561 . S
C1100 C1103 1.526 . S
C1101 H1085 0.959 . S
C1101 H1086 0.959 . S
C1101 H1087 0.961 . S
C1101 C1100 1.502 . S
C1102 H1088 0.960 . S
C1102 H1089 0.961 . S
C1102 H1090 0.959 . S
C1102 C1100 1.561 . S
C1103 C1100 1.526 . S
C1103 C1104 1.396 . S
C1103 C1108 1.390 . S
C1104 C1098 1.465 . S
C1104 C1103 1.396 . S
C1104 C1105 1.399 . S
C1105 H1091 0.929 . S
C1105 C1104 1.399 . S
C1105 C1106 1.385 . S
C1106 H1092 0.931 . S
C1106 C1105 1.385 . S
C1106 C1107 1.389 . S
C1107 C1106 1.389 . S
C1107 C1108 1.387 . S
C1108 H1093 0.930 . S
C1108 C1103 1.390 . S
C1108 C1107 1.387 . S
H1109 C1121 0.930 . S
H1110 C1123 0.930 . S
H1111 C1124 0.930 . S
H1112 C1128 0.959 . S
H1113 C1128 0.959 . S
H1114 C1128 0.961 . S
H1115 C1129 0.960 . S
H1116 C1129 0.961 . S
H1117 C1129 0.959 . S
H1118 C1132 0.929 . S
H1119 C1133 0.931 . S
H1120 C1135 0.930 . S
C1121 H1109 0.930 . S
C1121 C1122 1.399 . S
C1121 C1126 1.399 . S
C1122 C1121 1.399 . S
C1122 C1123 1.376 . S
C1123 H1110 0.930 . S
C1123 C1122 1.376 . S
C1123 C1124 1.388 . S
C1124 H1111 0.930 . S
C1124 C1123 1.388 . S
C1124 C1125 1.390 . S
C1125 C1124 1.390 . S
C1125 C1126 1.394 . S
C1125 C1131 1.465 . S
C1126 C1121 1.399 . S
C1126 C1125 1.394 . S
C1126 C1127 1.516 . S
C1127 C1126 1.516 . S
C1127 C1128 1.502 . S
C1127 C1129 1.561 . S
C1127 C1130 1.526 . S
C1128 H1112 0.959 . S
C1128 H1113 0.959 . S
C1128 H1114 0.961 . S
C1128 C1127 1.502 . S
C1129 H1115 0.960 . S
C1129 H1116 0.961 . S
C1129 H1117 0.959 . S
C1129 C1127 1.561 . S
C1130 C1127 1.526 . S
C1130 C1131 1.396 . S
C1130 C1135 1.390 . S
C1131 C1125 1.465 . S
C1131 C1130 1.396 . S
C1131 C1132 1.399 . S
C1132 H1118 0.929 . S
C1132 C1131 1.399 . S
C1132 C1133 1.385 . S
C1133 H1119 0.931 . S
C1133 C1132 1.385 . S
C1133 C1134 1.389 . S
C1134 C1133 1.389 . S
C1134 C1135 1.387 . S
C1135 H1120 0.930 . S
C1135 C1130 1.390 . S
C1135 C1134 1.387 . S
C501 C116 1.821 . S
C513 C208 1.783 . S
C540 C292 1.819 . S
C528 C135 1.791 . S
C567 C291 1.797 . S
C555 C78 1.790 . S
C582 C97 1.812 . S
C594 C207 1.819 . S
C621 C388 1.817 . S
C609 C40 1.793 . S
C648 C472 1.788 . S
C636 C59 1.808 . S
C663 C2 1.819 . S
C675 C471 1.796 . S
C690 C21 1.792 . S
C702 C387 1.804 . S
C729 C210 1.549 . S
C717 C25 1.743 . S
C756 C294 1.602 . S
C744 C6 1.724 . S
C783 C306 1.400 . S
C771 C63 1.742 . S
C810 C222 1.432 . S
C798 C44 1.738 . S
C837 C390 1.507 . S
C825 C101 1.740 . S
C852 C82 1.721 . S
C864 C474 1.589 . S
C891 C462 1.473 . S
C879 C139 1.739 . S
C906 C120 1.729 . S
C918 C378 1.428 . S
C945 C219 1.519 . S
C933 C11 1.401 . S
C972 C303 1.513 . S
C960 C30 1.430 . S
C987 C49 1.430 . S
C999 C304 1.460 . S
C1026 C220 1.457 . S
C1014 C68 1.440 . S
C1053 C375 1.522 . S
C1041 C87 1.433 . S
C1068 C106 1.399 . S
C1080 C459 1.518 . S
C1095 C125 1.415 . S
C1107 C460 1.453 . S
C1122 C144 1.368 . S
C1134 C376 1.510 . S
