# Generated by pormake.
# Topology eea, (3,6)-cn, num edge types: 1
# Building blocks:
#     Node 0, Type 0, BuildingBlock: CUQRIR_clean_linker_1, # of connection points: 3
#     Node 1, Type 0, BuildingBlock: CUQRIR_clean_linker_1, # of connection points: 3
#     Node 2, Type 0, BuildingBlock: CUQRIR_clean_linker_1, # of connection points: 3
#     Node 3, Type 0, BuildingBlock: CUQRIR_clean_linker_1, # of connection points: 3
#     Node 4, Type 0, BuildingBlock: CUQRIR_clean_linker_1, # of connection points: 3
#     Node 5, Type 0, BuildingBlock: CUQRIR_clean_linker_1, # of connection points: 3
#     Node 6, Type 0, BuildingBlock: CUQRIR_clean_linker_1, # of connection points: 3
#     Node 7, Type 0, BuildingBlock: CUQRIR_clean_linker_1, # of connection points: 3
#     Node 8, Type 0, BuildingBlock: CUQRIR_clean_linker_1, # of connection points: 3
#     Node 9, Type 0, BuildingBlock: CUQRIR_clean_linker_1, # of connection points: 3
#     Node 10, Type 0, BuildingBlock: CUQRIR_clean_linker_1, # of connection points: 3
#     Node 11, Type 0, BuildingBlock: CUQRIR_clean_linker_1, # of connection points: 3
#     Node 12, Type 0, BuildingBlock: CUQRIR_clean_linker_1, # of connection points: 3
#     Node 13, Type 0, BuildingBlock: CUQRIR_clean_linker_1, # of connection points: 3
#     Node 14, Type 0, BuildingBlock: CUQRIR_clean_linker_1, # of connection points: 3
#     Node 15, Type 0, BuildingBlock: CUQRIR_clean_linker_1, # of connection points: 3
#     Node 16, Type 0, BuildingBlock: CUQRIR_clean_linker_1, # of connection points: 3
#     Node 17, Type 0, BuildingBlock: CUQRIR_clean_linker_1, # of connection points: 3
#     Node 18, Type 1, BuildingBlock: KUMBUR_clean_sbu_0, # of connection points: 6
#     Node 19, Type 1, BuildingBlock: KUMBUR_clean_sbu_0, # of connection points: 6
#     Node 20, Type 1, BuildingBlock: KUMBUR_clean_sbu_0, # of connection points: 6
#     Node 21, Type 1, BuildingBlock: KUMBUR_clean_sbu_0, # of connection points: 6
#     Node 22, Type 1, BuildingBlock: KUMBUR_clean_sbu_0, # of connection points: 6
#     Node 23, Type 1, BuildingBlock: KUMBUR_clean_sbu_0, # of connection points: 6
#     Node 24, Type 1, BuildingBlock: KUMBUR_clean_sbu_0, # of connection points: 6
#     Node 25, Type 1, BuildingBlock: KUMBUR_clean_sbu_0, # of connection points: 6
#     Node 26, Type 1, BuildingBlock: KUMBUR_clean_sbu_0, # of connection points: 6
#     Edge 27, Type (0, 1), BuildingBlock: ZUJKAS_clean_linker_0, # of connection points: 2
#     Edge 28, Type (0, 1), BuildingBlock: ZUJKAS_clean_linker_0, # of connection points: 2
#     Edge 29, Type (0, 1), BuildingBlock: ZUJKAS_clean_linker_0, # of connection points: 2
#     Edge 30, Type (0, 1), BuildingBlock: ZUJKAS_clean_linker_0, # of connection points: 2
#     Edge 31, Type (0, 1), BuildingBlock: ZUJKAS_clean_linker_0, # of connection points: 2
#     Edge 32, Type (0, 1), BuildingBlock: ZUJKAS_clean_linker_0, # of connection points: 2
#     Edge 33, Type (0, 1), BuildingBlock: ZUJKAS_clean_linker_0, # of connection points: 2
#     Edge 34, Type (0, 1), BuildingBlock: ZUJKAS_clean_linker_0, # of connection points: 2
#     Edge 35, Type (0, 1), BuildingBlock: ZUJKAS_clean_linker_0, # of connection points: 2
#     Edge 36, Type (0, 1), BuildingBlock: ZUJKAS_clean_linker_0, # of connection points: 2
#     Edge 37, Type (0, 1), BuildingBlock: ZUJKAS_clean_linker_0, # of connection points: 2
#     Edge 38, Type (0, 1), BuildingBlock: ZUJKAS_clean_linker_0, # of connection points: 2
#     Edge 39, Type (0, 1), BuildingBlock: ZUJKAS_clean_linker_0, # of connection points: 2
#     Edge 40, Type (0, 1), BuildingBlock: ZUJKAS_clean_linker_0, # of connection points: 2
#     Edge 41, Type (0, 1), BuildingBlock: ZUJKAS_clean_linker_0, # of connection points: 2
#     Edge 42, Type (0, 1), BuildingBlock: ZUJKAS_clean_linker_0, # of connection points: 2
#     Edge 43, Type (0, 1), BuildingBlock: ZUJKAS_clean_linker_0, # of connection points: 2
#     Edge 44, Type (0, 1), BuildingBlock: ZUJKAS_clean_linker_0, # of connection points: 2
#     Edge 45, Type (0, 1), BuildingBlock: ZUJKAS_clean_linker_0, # of connection points: 2
#     Edge 46, Type (0, 1), BuildingBlock: ZUJKAS_clean_linker_0, # of connection points: 2
#     Edge 47, Type (0, 1), BuildingBlock: ZUJKAS_clean_linker_0, # of connection points: 2
#     Edge 48, Type (0, 1), BuildingBlock: ZUJKAS_clean_linker_0, # of connection points: 2
#     Edge 49, Type (0, 1), BuildingBlock: ZUJKAS_clean_linker_0, # of connection points: 2
#     Edge 50, Type (0, 1), BuildingBlock: ZUJKAS_clean_linker_0, # of connection points: 2
#     Edge 51, Type (0, 1), BuildingBlock: ZUJKAS_clean_linker_0, # of connection points: 2
#     Edge 52, Type (0, 1), BuildingBlock: ZUJKAS_clean_linker_0, # of connection points: 2
#     Edge 53, Type (0, 1), BuildingBlock: ZUJKAS_clean_linker_0, # of connection points: 2
#     Edge 54, Type (0, 1), BuildingBlock: ZUJKAS_clean_linker_0, # of connection points: 2
#     Edge 55, Type (0, 1), BuildingBlock: ZUJKAS_clean_linker_0, # of connection points: 2
#     Edge 56, Type (0, 1), BuildingBlock: ZUJKAS_clean_linker_0, # of connection points: 2
#     Edge 57, Type (0, 1), BuildingBlock: ZUJKAS_clean_linker_0, # of connection points: 2
#     Edge 58, Type (0, 1), BuildingBlock: ZUJKAS_clean_linker_0, # of connection points: 2
#     Edge 59, Type (0, 1), BuildingBlock: ZUJKAS_clean_linker_0, # of connection points: 2
#     Edge 60, Type (0, 1), BuildingBlock: ZUJKAS_clean_linker_0, # of connection points: 2
#     Edge 61, Type (0, 1), BuildingBlock: ZUJKAS_clean_linker_0, # of connection points: 2
#     Edge 62, Type (0, 1), BuildingBlock: ZUJKAS_clean_linker_0, # of connection points: 2
#     Edge 63, Type (0, 1), BuildingBlock: ZUJKAS_clean_linker_0, # of connection points: 2
#     Edge 64, Type (0, 1), BuildingBlock: ZUJKAS_clean_linker_0, # of connection points: 2
#     Edge 65, Type (0, 1), BuildingBlock: ZUJKAS_clean_linker_0, # of connection points: 2
#     Edge 66, Type (0, 1), BuildingBlock: ZUJKAS_clean_linker_0, # of connection points: 2
#     Edge 67, Type (0, 1), BuildingBlock: ZUJKAS_clean_linker_0, # of connection points: 2
#     Edge 68, Type (0, 1), BuildingBlock: ZUJKAS_clean_linker_0, # of connection points: 2
#     Edge 69, Type (0, 1), BuildingBlock: ZUJKAS_clean_linker_0, # of connection points: 2
#     Edge 70, Type (0, 1), BuildingBlock: ZUJKAS_clean_linker_0, # of connection points: 2
#     Edge 71, Type (0, 1), BuildingBlock: ZUJKAS_clean_linker_0, # of connection points: 2
#     Edge 72, Type (0, 1), BuildingBlock: ZUJKAS_clean_linker_0, # of connection points: 2
#     Edge 73, Type (0, 1), BuildingBlock: ZUJKAS_clean_linker_0, # of connection points: 2
#     Edge 74, Type (0, 1), BuildingBlock: ZUJKAS_clean_linker_0, # of connection points: 2
#     Edge 75, Type (0, 1), BuildingBlock: ZUJKAS_clean_linker_0, # of connection points: 2
#     Edge 76, Type (0, 1), BuildingBlock: ZUJKAS_clean_linker_0, # of connection points: 2
#     Edge 77, Type (0, 1), BuildingBlock: ZUJKAS_clean_linker_0, # of connection points: 2
#     Edge 78, Type (0, 1), BuildingBlock: ZUJKAS_clean_linker_0, # of connection points: 2
#     Edge 79, Type (0, 1), BuildingBlock: ZUJKAS_clean_linker_0, # of connection points: 2
#     Edge 80, Type (0, 1), BuildingBlock: ZUJKAS_clean_linker_0, # of connection points: 2
# Relax obj value: 0.039
# Max RMSD: 0.194
# Mean RMSD: 0.139
data_MOF--net-eea--node1-KUMBUR_clean_sbu_0--node2-CUQRIR_clean_linker_1--edge1-ZUJKAS_clean_linker_0
_symmetry_space_group_name_H-M    P1
_symmetry_Int_Tables_number       1
_symmetry_cell_setting            triclinic
loop_
_symmetry_equiv_pos_as_xyz
'x, y, z'
_cell_length_a     63.794869
_cell_length_b     68.2127
_cell_length_c     79.660157
_cell_angle_alpha  83.323544
_cell_angle_beta   90.227388
_cell_angle_gamma 118.45631
loop_
_atom_site_label
_atom_site_type_symbol
_atom_site_fract_x
_atom_site_fract_y
_atom_site_fract_z
_atom_type_partial_charge
C0 C 0.21086 0.10117 0.41313 0.0
N1 N 0.21914 0.11793 0.42307 0.0
N2 N 0.21714 0.08527 0.41885 0.0
C3 C 0.1967 0.10041 0.39785 0.0
C4 C 0.2297 0.09307 0.43254 0.0
N5 N 0.23114 0.113 0.43501 0.0
C6 C 0.24078 0.08138 0.44349 0.0
H7 H 0.17802 0.09511 0.40212 0.0
H8 H 0.19644 0.08834 0.38957 0.0
H9 H 0.20415 0.11739 0.39048 0.0
H10 H 0.23359 0.06357 0.44148 0.0
H11 H 0.23786 0.08227 0.45705 0.0
H12 H 0.26032 0.09014 0.44041 0.0
C13 C 0.90429 0.11056 0.41319 0.0
N14 N 0.91467 0.12708 0.42339 0.0
N15 N 0.88344 0.09335 0.42053 0.0
C16 C 0.91567 0.10989 0.39689 0.0
C17 C 0.88159 0.09984 0.43566 0.0
N18 N 0.90056 0.12008 0.43754 0.0
C19 C 0.86032 0.08718 0.44813 0.0
H20 H 0.90987 0.11769 0.38616 0.0
H21 H 0.91005 0.09229 0.39487 0.0
H22 H 0.93543 0.11922 0.39693 0.0
H23 H 0.8636 0.07561 0.45738 0.0
H24 H 0.84389 0.07709 0.44163 0.0
H25 H 0.85741 0.09887 0.45517 0.0
C26 C 0.92602 0.84959 0.41873 0.0
N27 N 0.9385 0.84228 0.42896 0.0
N28 N 0.90821 0.84981 0.42768 0.0
C29 C 0.92951 0.85428 0.39973 0.0
C30 C 0.91052 0.84258 0.44379 0.0
N31 N 0.92909 0.83819 0.44463 0.0
C32 C 0.89239 0.83644 0.45818 0.0
H33 H 0.9248 0.86751 0.39487 0.0
H34 H 0.91753 0.83874 0.39426 0.0
H35 H 0.94825 0.85969 0.39553 0.0
H36 H 0.88168 0.81785 0.46078 0.0
H37 H 0.88026 0.84365 0.45516 0.0
H38 H 0.90154 0.84263 0.46982 0.0
C39 C 0.08542 0.16784 0.62286 0.0
N40 N 0.10478 0.17701 0.61186 0.0
N41 N 0.0672 0.16994 0.61574 0.0
C42 C 0.0855 0.16006 0.64131 0.0
C43 C 0.07625 0.18078 0.60003 0.0
N44 N 0.09909 0.18511 0.59767 0.0
C45 C 0.06328 0.18859 0.58746 0.0
H46 H 0.06793 0.14555 0.64583 0.0
H47 H 0.08879 0.17395 0.64873 0.0
H48 H 0.09969 0.15521 0.6436 0.0
H49 H 0.06745 0.20597 0.58914 0.0
H50 H 0.04368 0.17758 0.58948 0.0
H51 H 0.06914 0.18872 0.57432 0.0
C52 C 0.79727 0.90898 0.62886 0.0
N53 N 0.79187 0.89336 0.61809 0.0
N54 N 0.79487 0.92671 0.62149 0.0
C55 C 0.80705 0.90798 0.64598 0.0
C56 C 0.78801 0.92142 0.60579 0.0
N57 N 0.78645 0.90135 0.60364 0.0
C58 C 0.78114 0.93505 0.59295 0.0
H59 H 0.79199 0.89899 0.65568 0.0
H60 H 0.81865 0.92513 0.6493 0.0
H61 H 0.81751 0.89881 0.64628 0.0
H62 H 0.79705 0.9468 0.58449 0.0
H63 H 0.77462 0.945 0.5992 0.0
H64 H 0.76704 0.92406 0.58503 0.0
C65 C 0.1124 0.91255 0.63163 0.0
N66 N 0.10233 0.89613 0.6214 0.0
N67 N 0.13294 0.93015 0.62416 0.0
C68 C 0.10201 0.91153 0.64881 0.0
C69 C 0.13489 0.92373 0.60898 0.0
N70 N 0.11637 0.90321 0.60728 0.0
C71 C 0.15556 0.93698 0.59612 0.0
H72 H 0.10693 0.92866 0.65172 0.0
H73 H 0.1093 0.90371 0.65846 0.0
H74 H 0.08229 0.90115 0.64967 0.0
H75 H 0.17211 0.94755 0.60231 0.0
H76 H 0.15134 0.94811 0.58711 0.0
H77 H 0.15873 0.92564 0.58882 0.0
C78 C 0.87683 0.43316 0.74748 0.0
N79 N 0.88488 0.45003 0.75732 0.0
N80 N 0.88395 0.41782 0.75305 0.0
C81 C 0.86339 0.43242 0.73182 0.0
C82 C 0.8966 0.42597 0.76663 0.0
N83 N 0.8974 0.44565 0.76914 0.0
C84 C 0.90646 0.41372 0.77825 0.0
H85 H 0.84402 0.42422 0.73549 0.0
H86 H 0.86633 0.42262 0.7228 0.0
H87 H 0.8689 0.44966 0.72546 0.0
H88 H 0.92539 0.41978 0.77418 0.0
H89 H 0.89638 0.39532 0.77778 0.0
H90 H 0.90572 0.41696 0.7915 0.0
C91 C 0.57094 0.44528 0.74526 0.0
N92 N 0.58159 0.46106 0.75596 0.0
N93 N 0.55039 0.42762 0.75259 0.0
C94 C 0.58158 0.44615 0.72819 0.0
C95 C 0.54896 0.43322 0.76817 0.0
N96 N 0.56799 0.45329 0.77038 0.0
C97 C 0.52775 0.42007 0.78065 0.0
H98 H 0.57547 0.45497 0.71843 0.0
H99 H 0.57576 0.42897 0.72499 0.0
H100 H 0.60138 0.45545 0.72786 0.0
H101 H 0.53115 0.40832 0.78962 0.0
H102 H 0.51131 0.41013 0.77413 0.0
H103 H 0.52474 0.43144 0.78802 0.0
C104 C 0.59477 0.18454 0.75154 0.0
N105 N 0.60417 0.17513 0.76301 0.0
N106 N 0.57342 0.18131 0.75756 0.0
C107 C 0.60444 0.19339 0.73348 0.0
C108 C 0.57022 0.16961 0.77309 0.0
N109 N 0.58867 0.16547 0.77634 0.0
C110 C 0.54818 0.16115 0.78459 0.0
H111 H 0.62328 0.20681 0.7332 0.0
H112 H 0.59393 0.2003 0.72634 0.0
H113 H 0.60415 0.17962 0.72714 0.0
H114 H 0.53434 0.1447 0.78128 0.0
H115 H 0.54083 0.17304 0.78285 0.0
H116 H 0.55218 0.159 0.79804 0.0
C117 C 0.75062 0.49495 0.96001 0.0
N118 N 0.76911 0.50376 0.94834 0.0
N119 N 0.73151 0.49593 0.95347 0.0
C120 C 0.75178 0.48688 0.97821 0.0
C121 C 0.73904 0.50547 0.93724 0.0
N122 N 0.76191 0.51013 0.9341 0.0
C123 C 0.72548 0.51384 0.92564 0.0
H124 H 0.73364 0.47495 0.98397 0.0
H125 H 0.75989 0.50147 0.98544 0.0
H126 H 0.76319 0.47862 0.97914 0.0
H127 H 0.72291 0.52661 0.93146 0.0
H128 H 0.70752 0.4997 0.92414 0.0
H129 H 0.73476 0.52137 0.91297 0.0
C130 C 0.46802 0.2443 0.96175 0.0
N131 N 0.46059 0.22812 0.9513 0.0
N132 N 0.46064 0.2596 0.95672 0.0
C133 C 0.48093 0.24427 0.97759 0.0
C134 C 0.44841 0.25212 0.94284 0.0
N135 N 0.44811 0.23288 0.93963 0.0
C136 C 0.43835 0.26459 0.93168 0.0
H137 H 0.47528 0.22682 0.98351 0.0
H138 H 0.4776 0.25352 0.98689 0.0
H139 H 0.5004 0.25265 0.97424 0.0
H140 H 0.44787 0.28283 0.93285 0.0
H141 H 0.41922 0.25783 0.93557 0.0
H142 H 0.43965 0.26234 0.91822 0.0
C143 C 0.78074 0.24771 0.96506 0.0
N144 N 0.77104 0.23069 0.95527 0.0
N145 N 0.80298 0.26353 0.95883 0.0
C146 C 0.76944 0.24814 0.98145 0.0
C147 C 0.80652 0.25555 0.94492 0.0
N148 N 0.78732 0.23559 0.94278 0.0
C149 C 0.82822 0.26805 0.93282 0.0
H150 H 0.75757 0.25568 0.97869 0.0
H151 H 0.78319 0.25847 0.98985 0.0
H152 H 0.75857 0.23086 0.98813 0.0
H153 H 0.84124 0.26204 0.93628 0.0
H154 H 0.83693 0.28641 0.93347 0.0
H155 H 0.8234 0.26496 0.91963 0.0
C156 C 0.54554 0.76907 0.07954 0.0
N157 N 0.55376 0.78584 0.08949 0.0
N158 N 0.5519 0.75321 0.08523 0.0
C159 C 0.53285 0.76897 0.06358 0.0
C160 C 0.56428 0.76095 0.099 0.0
N161 N 0.56562 0.78084 0.10152 0.0
C162 C 0.57346 0.74817 0.11072 0.0
H163 H 0.51341 0.76122 0.06685 0.0
H164 H 0.53573 0.75904 0.05464 0.0
H165 H 0.53908 0.78636 0.05727 0.0
H166 H 0.59235 0.7538 0.10682 0.0
H167 H 0.56297 0.72982 0.11016 0.0
H168 H 0.57266 0.7514 0.12398 0.0
C169 C 0.2402 0.77916 0.07896 0.0
N170 N 0.2502 0.79554 0.08927 0.0
N171 N 0.21759 0.76371 0.08473 0.0
C172 C 0.25168 0.77917 0.0625 0.0
C173 C 0.21414 0.77133 0.0989 0.0
N174 N 0.23375 0.79068 0.10161 0.0
C175 C 0.19205 0.75919 0.11064 0.0
H176 H 0.26334 0.79661 0.05637 0.0
H177 H 0.23801 0.76987 0.05366 0.0
H178 H 0.26281 0.77079 0.06504 0.0
H179 H 0.1827 0.7409 0.10968 0.0
H180 H 0.17975 0.76605 0.10711 0.0
H181 H 0.19652 0.76175 0.12396 0.0
C182 C 0.26621 0.52105 0.09021 0.0
N183 N 0.27477 0.50944 0.10025 0.0
N184 N 0.24406 0.51615 0.09601 0.0
C185 C 0.27907 0.53618 0.07418 0.0
C186 C 0.23961 0.50119 0.11008 0.0
N187 N 0.2582 0.49711 0.11255 0.0
C188 C 0.21614 0.48885 0.12041 0.0
H189 H 0.2716 0.54757 0.07004 0.0
H190 H 0.27746 0.52574 0.06406 0.0
H191 H 0.29835 0.54639 0.07616 0.0
H192 H 0.2011 0.48231 0.11195 0.0
H193 H 0.21408 0.50071 0.12779 0.0
H194 H 0.21495 0.47469 0.12945 0.0
C195 C 0.41646 0.83157 0.29068 0.0
N196 N 0.43641 0.83996 0.28037 0.0
N197 N 0.39834 0.83203 0.28214 0.0
C198 C 0.41531 0.82534 0.30953 0.0
C199 C 0.40797 0.84074 0.26615 0.0
N200 N 0.43109 0.84544 0.26502 0.0
C201 C 0.39598 0.84806 0.2524 0.0
H202 H 0.3973 0.8115 0.31402 0.0
H203 H 0.41867 0.84012 0.3159 0.0
H204 H 0.4289 0.8201 0.31314 0.0
H205 H 0.40435 0.86669 0.25062 0.0
H206 H 0.37657 0.8408 0.25557 0.0
H207 H 0.39853 0.84277 0.24026 0.0
C208 C 0.12866 0.574 0.29706 0.0
N209 N 0.12357 0.55895 0.2859 0.0
N210 N 0.12649 0.59199 0.29002 0.0
C211 C 0.13724 0.57179 0.31444 0.0
C212 C 0.11988 0.58729 0.27416 0.0
N213 N 0.11846 0.56738 0.27152 0.0
C214 C 0.11238 0.60101 0.2619 0.0
H215 H 0.14874 0.58855 0.31844 0.0
H216 H 0.14736 0.5623 0.31478 0.0
H217 H 0.12154 0.56241 0.32359 0.0
H218 H 0.12794 0.6131 0.25327 0.0
H219 H 0.10593 0.61063 0.26865 0.0
H220 H 0.09797 0.59008 0.25415 0.0
C221 C 0.4453 0.57913 0.29827 0.0
N222 N 0.43581 0.562 0.28858 0.0
N223 N 0.46715 0.59546 0.29168 0.0
C224 C 0.43334 0.57985 0.31424 0.0
C225 C 0.47071 0.58754 0.27772 0.0
N226 N 0.45189 0.5672 0.2759 0.0
C227 C 0.49273 0.5995 0.26588 0.0
H228 H 0.42052 0.58613 0.31085 0.0
H229 H 0.4464 0.59129 0.32247 0.0
H230 H 0.42328 0.56276 0.32141 0.0
H231 H 0.5041 0.59139 0.26848 0.0
H232 H 0.50346 0.61749 0.26745 0.0
H233 H 0.4877 0.59802 0.25255 0.0
Tb234 Tb 0.50413 0.99876 1.0025 0.0
C235 C 0.5481 0.07292 0.0482 0.0
C236 C 0.59037 0.08488 0.0463 0.0
C237 C 0.5767 0.11129 0.05207 0.0
C238 C 0.56646 0.06829 0.04535 0.0
C239 C 0.55291 0.0943 0.05195 0.0
C240 C 0.59543 0.10657 0.04926 0.0
C241 C 0.51043 0.07983 0.05674 0.0
N242 N 0.52544 0.05593 0.04828 0.0
C243 C 0.50662 0.05886 0.05306 0.0
C244 C 0.53367 0.09773 0.05599 0.0
Tb245 Tb 0.52087 0.0223 0.04168 0.0
N246 N 0.56075 0.04707 0.04274 0.0
C247 C 0.57824 0.04093 0.04216 0.0
C248 C 0.60838 0.07894 0.04485 0.0
C249 C 0.60226 0.05681 0.04294 0.0
H250 H 0.48857 0.0452 0.05359 0.0
H251 H 0.61604 0.05194 0.04208 0.0
H252 H 0.6137 0.11961 0.04986 0.0
H253 H 0.49545 0.08218 0.06014 0.0
H254 H 0.57394 0.02393 0.04067 0.0
H255 H 0.40861 0.96785 1.00319 0.0
H256 H 0.62696 0.09115 0.04565 0.0
H257 H 0.53683 0.9765 0.98999 0.0
H258 H 0.45065 0.99653 1.00357 0.0
H259 H 0.53028 0.93958 0.98354 0.0
H260 H 0.5808 0.12791 0.05477 0.0
H261 H 0.39813 0.92851 1.00049 0.0
H262 H 0.41194 0.90049 0.99591 0.0
H263 H 0.53659 0.11392 0.05894 0.0
H264 H 0.44512 0.89279 0.9904 0.0
N265 N 0.4643 0.97371 1.0016 0.0
C266 C 0.44656 0.97952 1.00232 0.0
C267 C 0.41672 0.94106 1.00065 0.0
C268 C 0.43498 0.93551 0.99882 0.0
C269 C 0.42257 0.96325 1.00212 0.0
C270 C 0.45885 0.95247 0.99923 0.0
H271 H 0.48935 0.9074 0.98544 0.0
N272 N 0.50001 0.96527 0.99601 0.0
C273 C 0.51524 0.94171 0.98721 0.0
C274 C 0.47738 0.94809 0.99626 0.0
C275 C 0.51888 0.96264 0.99086 0.0
C276 C 0.49212 0.92357 0.98832 0.0
C277 C 0.47278 0.92671 0.99264 0.0
O278 O 0.52491 0.01166 0.97954 0.0
O279 O 0.53066 0.02523 0.01538 0.0
O280 O 0.51667 0.04709 0.02385 0.0
O281 O 0.49193 0.02387 1.00488 0.0
O282 O 0.54298 0.01198 0.99896 0.0
O283 O 0.48933 0.00753 0.98108 0.0
O284 O 0.50363 0.01385 0.06596 0.0
O285 O 0.4941 0.99632 0.02874 0.0
O286 O 0.50778 0.9737 0.02013 0.0
O287 O 0.53261 0.99677 0.03912 0.0
O288 O 0.48211 0.00876 0.046 0.0
O289 O 0.53356 0.00828 0.06134 0.0
C290 C 0.5497 0.0273 0.0088 0.0
C291 C 0.50421 1.00447 0.9548 0.0
C292 C 0.51523 0.01153 0.92463 0.0
C293 C 0.51641 0.01946 0.94027 0.0
C294 C 0.50161 0.98845 0.92357 0.0
C295 C 0.49022 0.98148 0.95354 0.0
C296 C 0.48897 0.97353 0.93796 0.0
C297 C 0.50174 0.04314 0.01147 0.0
C298 C 0.50807 0.01311 0.97121 0.0
C299 C 0.44906 0.90942 0.99297 0.0
C300 C 0.43017 0.91381 0.9961 0.0
C301 C 0.47516 0.994 0.03571 0.0
C302 C 0.52782 0.01503 0.08879 0.0
C303 C 0.52133 0.99922 0.10333 0.0
C304 C 0.53064 1.0059 0.11896 0.0
C305 C 0.54665 0.02872 0.11979 0.0
C306 C 0.54372 0.03771 0.08985 0.0
C307 C 0.55308 0.04449 0.1053 0.0
C308 C 0.52249 0.97743 0.03258 0.0
C309 C 0.51824 0.00723 0.07264 0.0
H310 H 0.5273 0.03724 0.9412 0.0
H311 H 0.5005 0.98205 0.91158 0.0
H312 H 0.4805 0.96969 0.96453 0.0
H313 H 0.4783 0.95576 0.93707 0.0
H314 H 0.50929 0.98164 0.10239 0.0
H315 H 0.55392 0.03442 0.13168 0.0
H316 H 0.54896 0.05011 0.0788 0.0
H317 H 0.56534 0.06203 0.10605 0.0
Tb318 Tb 0.02461 0.52373 0.99696 0.0
C319 C 0.94118 0.48576 0.05012 0.0
C320 C 0.9279 0.51364 0.04609 0.0
C321 C 0.89938 0.47468 0.05594 0.0
C322 C 0.94611 0.50758 0.04532 0.0
C323 C 0.91796 0.46913 0.05607 0.0
C324 C 0.90435 0.49694 0.0509 0.0
C325 C 0.93392 0.44376 0.06374 0.0
N326 N 0.95969 0.48128 0.05024 0.0
C327 C 0.95664 0.46092 0.05771 0.0
C328 C 0.91438 0.44775 0.06261 0.0
Tb329 Tb 0.99612 0.5099 0.03941 0.0
N330 N 0.96916 0.52315 0.04107 0.0
C331 C 0.9755 0.54553 0.03893 0.0
C332 C 0.9341 0.53638 0.04266 0.0
C333 C 0.95808 0.55242 0.0394 0.0
H334 H 0.97163 0.45764 0.05843 0.0
H335 H 0.96318 0.57012 0.03716 0.0
H336 H 0.89004 0.50119 0.05136 0.0
H337 H 0.93149 0.42747 0.06917 0.0
H338 H 0.99386 0.55826 0.03625 0.0
H339 H 0.05779 0.46386 0.99876 0.0
H340 H 0.92066 0.54176 0.04305 0.0
H341 H 0.04909 0.57708 0.98011 0.0
H342 H 0.02715 0.47567 1.00093 0.0
H343 H 0.08897 0.60739 0.96906 0.0
H344 H 0.88132 0.46209 0.06024 0.0
H345 H 0.09984 0.49219 0.99082 0.0
H346 H 0.13 0.53267 0.98165 0.0
H347 H 0.89682 0.43448 0.06734 0.0
H348 H 0.13859 0.57189 0.97368 0.0
N349 N 0.05152 0.51065 0.99475 0.0
C350 C 0.04534 0.48833 0.99741 0.0
C351 C 0.08643 0.49753 0.99176 0.0
C352 C 0.09243 0.52021 0.98815 0.0
C353 C 0.06271 0.4815 0.99622 0.0
C354 C 0.0743 0.52624 0.98967 0.0
H355 H 0.1233 0.5999 0.9687 0.0
N356 N 0.0609 0.55289 0.98648 0.0
C357 C 0.08652 0.59085 0.97375 0.0
C358 C 0.07922 0.54822 0.98549 0.0
C359 C 0.06395 0.57364 0.98 0.0
C360 C 0.10586 0.58657 0.97361 0.0
C361 C 0.10227 0.56492 0.97924 0.0
O362 O 0.01449 0.53479 0.97406 0.0
O363 O 0.99536 0.51971 0.01285 0.0
O364 O 0.97289 0.48159 0.02583 0.0
O365 O 0.99735 0.48761 1.00172 0.0
O366 O 0.00932 0.54649 0.99428 0.0
O367 O 0.01471 0.50319 0.97742 0.0
O368 O 0.00529 0.49875 0.06276 0.0
O369 O 0.02515 0.51363 0.02347 0.0
O370 O 0.04837 0.55103 0.01117 0.0
O371 O 0.02291 0.54613 0.03422 0.0
O372 O 0.01204 0.48758 0.04245 0.0
O373 O 0.0078 0.53145 0.05822 0.0
C374 C 0.99257 0.53581 0.006 0.0
C375 C 0.02167 0.52203 0.94949 0.0
C376 C 0.01643 0.5198 0.91911 0.0
C377 C 0.00665 0.51535 0.93589 0.0
C378 C 0.04147 0.53137 0.91627 0.0
C379 C 0.04648 0.53313 0.94624 0.0
C380 C 0.05629 0.53787 0.92973 0.0
C381 C 0.97779 0.47512 0.01191 0.0
C382 C 0.01127 0.5174 0.96694 0.0
C383 C 0.12067 0.55926 0.97827 0.0
C384 C 0.11577 0.53693 0.98277 0.0
C385 C 0.0286 0.49805 0.03057 0.0
C386 C 0.99946 0.51384 0.08648 0.0
C387 C 0.01376 0.5168 0.1005 0.0
C388 C 0.00438 0.51537 0.11687 0.0
C389 C 0.98044 0.51048 0.11904 0.0
C390 C 0.9756 0.50888 0.089 0.0
C391 C 0.96616 0.50711 0.10521 0.0
C392 C 0.04324 0.558 0.02471 0.0
C393 C 0.00985 0.5169 0.06925 0.0
H394 H 0.98745 0.50643 0.93842 0.0
H395 H 0.04969 0.53562 0.90358 0.0
H396 H 0.05832 0.53818 0.9564 0.0
H397 H 0.0755 0.54665 0.92736 0.0
H398 H 0.03227 0.52084 0.09861 0.0
H399 H 0.97276 0.50919 0.13149 0.0
H400 H 0.96438 0.50667 0.07843 0.0
H401 H 0.94774 0.50334 0.10703 0.0
Tb402 Tb 0.50742 0.49597 0.04584 0.0
C403 C 0.47007 0.53745 0.98891 0.0
C404 C 0.42801 0.51072 0.99005 0.0
C405 C 0.44149 0.55031 0.98072 0.0
C406 C 0.45186 0.51577 0.99257 0.0
C407 C 0.46528 0.55495 0.98249 0.0
C408 C 0.42285 0.5282 0.98455 0.0
C409 C 0.50787 0.57969 0.97872 0.0
N410 N 0.49271 0.54111 0.99076 0.0
C411 C 0.51166 0.56172 0.98516 0.0
C412 C 0.48456 0.57637 0.9776 0.0
Tb413 Tb 0.49731 0.51103 1.00213 0.0
N414 N 0.45773 0.49943 0.99765 0.0
C415 C 0.44061 0.47731 0.99904 0.0
C416 C 0.41024 0.48821 0.99261 0.0
C417 C 0.41664 0.47141 0.99684 0.0
H418 H 0.52972 0.56447 0.98615 0.0
H419 H 0.40311 0.4539 0.99846 0.0
H420 H 0.40461 0.52472 0.98274 0.0
H421 H 0.52291 0.59608 0.97469 0.0
H422 H 0.44508 0.46404 1.00241 0.0
H423 H 0.6011 0.55356 0.05094 0.0
H424 H 0.39168 0.4836 0.99088 0.0
H425 H 0.4752 0.44218 0.06116 0.0
H426 H 0.5593 0.54309 0.04595 0.0
H427 H 0.48223 0.41064 0.07238 0.0
H428 H 0.43736 0.56356 0.97601 0.0
H429 H 0.61272 0.52411 0.059 0.0
H430 H 0.60018 0.483 0.06657 0.0
H431 H 0.48167 0.59029 0.97259 0.0
H432 H 0.56773 0.4439 0.07232 0.0
N433 N 0.54694 0.50774 0.0506 0.0
C434 C 0.56386 0.52991 0.04946 0.0
C435 C 0.59425 0.51933 0.05673 0.0
C436 C 0.5767 0.49674 0.05878 0.0
C437 C 0.58774 0.536 0.05226 0.0
C438 C 0.55292 0.49148 0.05571 0.0
H439 H 0.52355 0.41677 0.07484 0.0
N440 N 0.51218 0.46579 0.05675 0.0
C441 C 0.49721 0.42713 0.06852 0.0
C442 C 0.53486 0.46964 0.05886 0.0
C443 C 0.4933 0.44506 0.06219 0.0
C444 C 0.52056 0.43064 0.06984 0.0
C445 C 0.53975 0.45221 0.06529 0.0
O446 O 0.48424 0.48486 0.06778 0.0
O447 O 0.48388 0.50036 0.02821 0.0
O448 O 0.49957 0.53758 0.01635 0.0
O449 O 0.51878 0.5324 0.04024 0.0
O450 O 0.46889 0.4736 0.04667 0.0
O451 O 0.51644 0.51644 0.06544 0.0
O452 O 0.51971 0.52231 0.97973 0.0
O453 O 0.52073 0.50691 0.01988 0.0
O454 O 0.5053 0.4696 0.03146 0.0
O455 O 0.4857 0.4746 0.00776 0.0
O456 O 0.53617 0.53287 1.00099 0.0
O457 O 0.48875 0.4897 0.98321 0.0
C458 C 0.46413 0.48429 0.0342 0.0
C459 C 0.50248 0.49731 0.09317 0.0
C460 C 0.49867 0.49984 0.12347 0.0
C461 C 0.49415 0.50445 0.10643 0.0
C462 C 0.51117 0.48761 0.12689 0.0
C463 C 0.51519 0.48554 0.09708 0.0
C464 C 0.51938 0.48063 0.11381 0.0
C465 C 0.51117 0.54443 0.03018 0.0
C466 C 0.49793 0.50215 0.07532 0.0
C467 C 0.56352 0.45709 0.06757 0.0
C468 C 0.58199 0.47934 0.06431 0.0
C469 C 0.54066 0.52244 0.01378 0.0
C470 C 0.50087 0.50746 0.95502 0.0
C471 C 0.51253 0.50357 0.94172 0.0
C472 C 0.50592 0.50523 0.92486 0.0
C473 C 0.48793 0.51123 0.92151 0.0
C474 C 0.4831 0.51355 0.95122 0.0
C475 C 0.47677 0.5155 0.93457 0.0
C476 C 0.49364 0.46273 0.01765 0.0
C477 C 0.50652 0.50424 0.97284 0.0
H478 H 0.48457 0.51381 0.10344 0.0
H479 H 0.51447 0.48319 0.13976 0.0
H480 H 0.52188 0.48006 0.08724 0.0
H481 H 0.52904 0.47133 0.11667 0.0
H482 H 0.52617 0.4987 0.94454 0.0
H483 H 0.48256 0.51269 0.90871 0.0
H484 H 0.4739 0.51654 0.96115 0.0
H485 H 0.46297 0.52014 0.9318 0.0
Tb486 Tb 0.16721 0.33017 0.33629 0.0
C487 C 0.21778 0.40576 0.37956 0.0
C488 C 0.25965 0.41684 0.37541 0.0
C489 C 0.24773 0.44442 0.38129 0.0
C490 C 0.23539 0.40042 0.376 0.0
C491 C 0.22367 0.42768 0.38262 0.0
C492 C 0.26571 0.439 0.37768 0.0
C493 C 0.18181 0.4143 0.38951 0.0
N494 N 0.19485 0.38904 0.38089 0.0
C495 C 0.17692 0.39278 0.38645 0.0
C496 C 0.20526 0.43191 0.38739 0.0
Tb497 Tb 0.1884 0.35463 0.37476 0.0
N498 N 0.22873 0.3788 0.37399 0.0
C499 C 0.2457 0.37212 0.37263 0.0
C500 C 0.27705 0.41033 0.37303 0.0
C501 C 0.27002 0.38779 0.37191 0.0
H502 H 0.15871 0.37932 0.38799 0.0
H503 H 0.28333 0.38248 0.37038 0.0
H504 H 0.28424 0.45192 0.37708 0.0
H505 H 0.16749 0.41729 0.39348 0.0
H506 H 0.24072 0.35485 0.3716 0.0
H507 H 0.07194 0.3007 0.34067 0.0
H508 H 0.29589 0.42243 0.37242 0.0
H509 H 0.19823 0.30693 0.32272 0.0
H510 H 0.11428 0.32862 0.3405 0.0
H511 H 0.1903 0.27 0.31535 0.0
H512 H 0.25264 0.46144 0.38343 0.0
H513 H 0.06024 0.26155 0.3364 0.0
H514 H 0.07277 0.23325 0.32997 0.0
H515 H 0.20902 0.44853 0.38984 0.0
H516 H 0.10501 0.22488 0.32301 0.0
N517 N 0.12704 0.30559 0.33662 0.0
C518 C 0.10971 0.3117 0.33858 0.0
C519 C 0.07899 0.27377 0.33632 0.0
C520 C 0.09675 0.26789 0.33341 0.0
C521 C 0.08552 0.29585 0.3387 0.0
C522 C 0.12087 0.28443 0.33354 0.0
H523 H 0.14891 0.23857 0.3173 0.0
N524 N 0.16173 0.29647 0.32927 0.0
C525 C 0.17567 0.27246 0.31944 0.0
C526 C 0.13888 0.2797 0.32968 0.0
C527 C 0.18008 0.29341 0.32361 0.0
C528 C 0.15229 0.25476 0.32059 0.0
C529 C 0.13349 0.25833 0.32553 0.0
O530 O 0.18501 0.34088 0.31216 0.0
O531 O 0.19539 0.35658 0.34815 0.0
O532 O 0.18328 0.37916 0.35735 0.0
O533 O 0.15565 0.35536 0.34002 0.0
O534 O 0.20578 0.34354 0.33042 0.0
O535 O 0.15174 0.34104 0.31648 0.0
O536 O 0.1736 0.34748 0.39971 0.0
O537 O 0.15993 0.32839 0.363 0.0
O538 O 0.17167 0.30514 0.35342 0.0
O539 O 0.19902 0.32865 0.3711 0.0
O540 O 0.1501 0.34133 0.38119 0.0
O541 O 0.20243 0.34092 0.39368 0.0
C542 C 0.21369 0.35873 0.34039 0.0
C543 C 0.1605 0.33507 0.28923 0.0
C544 C 0.16689 0.33976 0.2585 0.0
C545 C 0.17338 0.34799 0.27416 0.0
C546 C 0.14728 0.31823 0.25819 0.0
C547 C 0.14093 0.31369 0.28867 0.0
C548 C 0.13443 0.30532 0.27321 0.0
C549 C 0.16685 0.37497 0.34605 0.0
C550 C 0.16828 0.34422 0.30528 0.0
C551 C 0.10954 0.24148 0.32602 0.0
C552 C 0.09119 0.24625 0.32998 0.0
C553 C 0.14184 0.32627 0.37112 0.0
C554 C 0.19985 0.34922 0.42119 0.0
C555 C 0.19513 0.33389 0.43583 0.0
C556 C 0.20575 0.3413 0.45098 0.0
C557 C 0.22128 0.36437 0.45121 0.0
C558 C 0.21539 0.37214 0.42162 0.0
C559 C 0.22606 0.37965 0.43659 0.0
C560 C 0.18769 0.30906 0.365 0.0
C561 C 0.18848 0.34074 0.40564 0.0
H562 H 0.18825 0.36466 0.27464 0.0
H563 H 0.14196 0.31133 0.24637 0.0
H564 H 0.13067 0.30352 0.30011 0.0
H565 H 0.11937 0.28878 0.27285 0.0
H566 H 0.18285 0.31622 0.43547 0.0
H567 H 0.22987 0.37057 0.46264 0.0
H568 H 0.21927 0.38419 0.41048 0.0
H569 H 0.23808 0.39737 0.43685 0.0
Tb570 Tb 0.68886 0.85565 0.33089 0.0
C571 C 0.60488 0.81425 0.38387 0.0
C572 C 0.59059 0.84145 0.38161 0.0
C573 C 0.56288 0.80188 0.39019 0.0
C574 C 0.60923 0.8361 0.3801 0.0
C575 C 0.58184 0.79693 0.38949 0.0
C576 C 0.56724 0.82413 0.3862 0.0
C577 C 0.5986 0.7718 0.39492 0.0
N578 N 0.62373 0.8103 0.38315 0.0
C579 C 0.62113 0.7896 0.38925 0.0
C580 C 0.57878 0.77538 0.39479 0.0
Tb581 Tb 0.65983 0.84028 0.37326 0.0
N582 N 0.63209 0.85228 0.37599 0.0
C583 C 0.63781 0.87447 0.37461 0.0
C584 C 0.59614 0.86407 0.37902 0.0
C585 C 0.61992 0.88067 0.37581 0.0
H586 H 0.63632 0.78665 0.38929 0.0
H587 H 0.62451 0.89826 0.37419 0.0
H588 H 0.55261 0.82785 0.38724 0.0
H589 H 0.59653 0.75533 0.39934 0.0
H590 H 0.65604 0.88757 0.37201 0.0
H591 H 0.72185 0.79607 0.32873 0.0
H592 H 0.58233 0.86891 0.37999 0.0
H593 H 0.71377 0.90972 0.31586 0.0
H594 H 0.69127 0.80768 0.33192 0.0
H595 H 0.75396 0.94057 0.30614 0.0
H596 H 0.54495 0.78877 0.39427 0.0
H597 H 0.76414 0.82468 0.32229 0.0
H598 H 0.79471 0.86554 0.31554 0.0
H599 H 0.56137 0.76159 0.39923 0.0
H600 H 0.80356 0.90506 0.3095 0.0
N601 N 0.71587 0.84284 0.32787 0.0
C602 C 0.70956 0.8205 0.32911 0.0
C603 C 0.75078 0.82996 0.32378 0.0
C604 C 0.75698 0.85275 0.32163 0.0
C605 C 0.72691 0.81377 0.32734 0.0
C606 C 0.73884 0.85866 0.32364 0.0
H607 H 0.78836 0.9332 0.30564 0.0
N608 N 0.72542 0.88526 0.32138 0.0
C609 C 0.7514 0.92384 0.3102 0.0
C610 C 0.74384 0.88074 0.32034 0.0
C611 C 0.72864 0.9063 0.31568 0.0
C612 C 0.77078 0.91963 0.30999 0.0
C613 C 0.76706 0.89776 0.31478 0.0
O614 O 0.67954 0.86785 0.30813 0.0
O615 O 0.65978 0.85168 0.34694 0.0
O616 O 0.63599 0.8141 0.35829 0.0
O617 O 0.66188 0.81931 0.33542 0.0
O618 O 0.67387 0.87872 0.32868 0.0
O619 O 0.67828 0.83562 0.31103 0.0
O620 O 0.67002 0.8289 0.396 0.0
O621 O 0.68878 0.84425 0.35713 0.0
O622 O 0.71266 0.88154 0.34617 0.0
O623 O 0.68639 0.87667 0.36865 0.0
O624 O 0.67553 0.81766 0.37565 0.0
O625 O 0.66966 0.86042 0.39305 0.0
C626 C 0.65724 0.86808 0.34048 0.0
C627 C 0.68644 0.8553 0.28336 0.0
C628 C 0.68183 0.85311 0.25292 0.0
C629 C 0.67171 0.84853 0.26961 0.0
C630 C 0.70689 0.86484 0.25032 0.0
C631 C 0.7113 0.86664 0.28034 0.0
C632 C 0.72143 0.87145 0.26392 0.0
C633 C 0.64135 0.80733 0.34473 0.0
C634 C 0.67572 0.85051 0.30073 0.0
C635 C 0.78552 0.8922 0.31357 0.0
C636 C 0.78048 0.8697 0.31699 0.0
C637 C 0.69183 0.82819 0.36363 0.0
C638 C 0.66233 0.84091 0.42076 0.0
C639 C 0.67702 0.84609 0.43463 0.0
C640 C 0.66693 0.84128 0.45135 0.0
C641 C 0.64189 0.83086 0.45385 0.0
C642 C 0.63751 0.83086 0.42368 0.0
C643 C 0.62738 0.82577 0.44013 0.0
C644 C 0.70717 0.8884 0.35963 0.0
C645 C 0.67303 0.84603 0.40336 0.0
H646 H 0.65248 0.83947 0.27197 0.0
H647 H 0.71536 0.86916 0.2377 0.0
H648 H 0.72292 0.87185 0.29063 0.0
H649 H 0.74066 0.8804 0.26172 0.0
H650 H 0.69624 0.85419 0.43235 0.0
H651 H 0.63342 0.82644 0.46648 0.0
H652 H 0.62593 0.82696 0.41328 0.0
H653 H 0.60817 0.81785 0.44225 0.0
Tb654 Tb 0.17411 0.8292 0.37864 0.0
C655 C 0.13591 0.86992 0.3217 0.0
C656 C 0.09388 0.8431 0.32281 0.0
C657 C 0.10729 0.88263 0.31327 0.0
C658 C 0.11773 0.84823 0.32543 0.0
C659 C 0.13108 0.88735 0.31514 0.0
C660 C 0.08868 0.86052 0.31714 0.0
C661 C 0.17366 0.91213 0.31135 0.0
N662 N 0.15857 0.87364 0.32357 0.0
C663 C 0.17749 0.89423 0.3179 0.0
C664 C 0.15034 0.90876 0.31018 0.0
Tb665 Tb 0.16323 0.84361 0.33499 0.0
N666 N 0.12363 0.83194 0.3306 0.0
C667 C 0.10656 0.8098 0.33206 0.0
C668 C 0.07615 0.82057 0.32542 0.0
C669 C 0.08259 0.80383 0.32979 0.0
H670 H 0.19557 0.89704 0.31888 0.0
H671 H 0.06909 0.78631 0.33145 0.0
H672 H 0.07045 0.85697 0.31522 0.0
H673 H 0.18868 0.92852 0.30725 0.0
H674 H 0.11108 0.79658 0.33551 0.0
H675 H 0.2681 0.88705 0.38225 0.0
H676 H 0.05759 0.8159 0.32362 0.0
H677 H 0.14228 0.77576 0.39495 0.0
H678 H 0.22605 0.87646 0.37823 0.0
H679 H 0.14959 0.74443 0.40627 0.0
H680 H 0.10313 0.89582 0.30842 0.0
H681 H 0.28001 0.85768 0.3898 0.0
H682 H 0.2676 0.81663 0.39767 0.0
H683 H 0.1474 0.92263 0.30506 0.0
H684 H 0.2352 0.77762 0.40431 0.0
N685 N 0.21379 0.84114 0.38298 0.0
C686 C 0.23071 0.86333 0.38158 0.0
C687 C 0.26141 0.85287 0.38802 0.0
C688 C 0.24385 0.83027 0.39048 0.0
C689 C 0.25474 0.86948 0.38383 0.0
C690 C 0.21993 0.82496 0.38797 0.0
H691 H 0.191 0.75056 0.40794 0.0
N692 N 0.17917 0.7993 0.38986 0.0
C693 C 0.16449 0.76085 0.40207 0.0
C694 C 0.20191 0.80318 0.39155 0.0
C695 C 0.16042 0.77867 0.39569 0.0
C696 C 0.18788 0.76436 0.40295 0.0
C697 C 0.20699 0.78585 0.39793 0.0
O698 O 0.15144 0.81843 0.40084 0.0
O699 O 0.15014 0.83307 0.36113 0.0
O700 O 0.16528 0.87012 0.34916 0.0
O701 O 0.18538 0.86555 0.37269 0.0
O702 O 0.13559 0.80662 0.37987 0.0
O703 O 0.18331 0.85031 0.39781 0.0
O704 O 0.18564 0.85457 0.31261 0.0
O705 O 0.18699 0.83975 0.35256 0.0
O706 O 0.17169 0.80254 0.36449 0.0
O707 O 0.1518 0.80726 0.34086 0.0
O708 O 0.202 0.86573 0.33364 0.0
O709 O 0.1543 0.82226 0.31604 0.0
C710 C 0.13055 0.81695 0.36731 0.0
C711 C 0.17024 0.83204 0.42581 0.0
C712 C 0.16699 0.83557 0.45595 0.0
C713 C 0.16162 0.83909 0.43895 0.0
C714 C 0.18064 0.82449 0.45947 0.0
C715 C 0.184 0.82131 0.4298 0.0
C716 C 0.18904 0.81747 0.44651 0.0
C717 C 0.1773 0.87728 0.36277 0.0
C718 C 0.16512 0.83611 0.40798 0.0
C719 C 0.23086 0.79074 0.39964 0.0
C720 C 0.2493 0.81294 0.39588 0.0
C721 C 0.20677 0.8554 0.34634 0.0
C722 C 0.16675 0.84003 0.28784 0.0
C723 C 0.17792 0.83556 0.27456 0.0
C724 C 0.1717 0.83779 0.25762 0.0
C725 C 0.15462 0.845 0.25425 0.0
C726 C 0.1498 0.84716 0.28399 0.0
C727 C 0.14388 0.84972 0.26731 0.0
C728 C 0.1598 0.79549 0.3508 0.0
C729 C 0.17223 0.83659 0.30569 0.0
H730 H 0.15122 0.84763 0.43591 0.0
H731 H 0.18472 0.82106 0.47234 0.0
H732 H 0.19092 0.81593 0.42001 0.0
H733 H 0.19956 0.80904 0.44944 0.0
H734 H 0.1909 0.82986 0.27745 0.0
H735 H 0.14964 0.84715 0.24142 0.0
H736 H 0.14097 0.85058 0.29389 0.0
H737 H 0.13078 0.85525 0.26449 0.0
Tb738 Tb 0.83734 0.66459 0.66801 0.0
C739 C 0.88103 0.73656 0.71517 0.0
C740 C 0.9228 0.7464 0.71454 0.0
C741 C 0.91083 0.77402 0.7202 0.0
C742 C 0.8987 0.73086 0.71274 0.0
C743 C 0.88676 0.75801 0.71935 0.0
C744 C 0.92884 0.7682 0.71784 0.0
C745 C 0.84451 0.74524 0.72351 0.0
N746 N 0.85803 0.72041 0.71472 0.0
C747 C 0.83975 0.72414 0.71947 0.0
C748 C 0.86812 0.76236 0.72322 0.0
Tb749 Tb 0.85193 0.68642 0.70793 0.0
N750 N 0.89207 0.70954 0.70982 0.0
C751 C 0.90872 0.70232 0.70952 0.0
C752 C 0.93994 0.73926 0.71366 0.0
C753 C 0.93285 0.7171 0.71121 0.0
H754 H 0.82144 0.71101 0.71966 0.0
H755 H 0.94595 0.71134 0.71072 0.0
H756 H 0.94728 0.78046 0.71906 0.0
H757 H 0.82997 0.74827 0.72685 0.0
H758 H 0.90371 0.68527 0.70768 0.0
H759 H 0.74258 0.63758 0.66673 0.0
H760 H 0.95857 0.7505 0.71536 0.0
H761 H 0.86813 0.64216 0.65322 0.0
H762 H 0.7847 0.66444 0.66891 0.0
H763 H 0.86037 0.60551 0.64516 0.0
H764 H 0.91565 0.79068 0.72323 0.0
H765 H 0.73062 0.59848 0.66229 0.0
H766 H 0.74279 0.56936 0.65767 0.0
H767 H 0.87177 0.77863 0.72649 0.0
H768 H 0.77502 0.56044 0.65196 0.0
N769 N 0.79716 0.64077 0.66652 0.0
C770 C 0.78009 0.64747 0.66713 0.0
C771 C 0.74927 0.61012 0.66353 0.0
C772 C 0.76682 0.60358 0.66209 0.0
C773 C 0.75597 0.63222 0.66591 0.0
C774 C 0.79088 0.61957 0.66347 0.0
H775 H 0.81903 0.57401 0.64689 0.0
N776 N 0.83169 0.63123 0.66018 0.0
C777 C 0.8457 0.60777 0.6495 0.0
C778 C 0.80885 0.61459 0.66022 0.0
C779 C 0.85003 0.62852 0.65406 0.0
C780 C 0.82236 0.59001 0.65056 0.0
C781 C 0.8035 0.59345 0.65558 0.0
O782 O 0.85842 0.67672 0.64511 0.0
O783 O 0.86308 0.69027 0.68182 0.0
O784 O 0.8487 0.71202 0.69042 0.0
O785 O 0.82555 0.68992 0.67038 0.0
O786 O 0.87627 0.67786 0.66531 0.0
O787 O 0.82471 0.67658 0.64698 0.0
O788 O 0.83313 0.67814 0.7316 0.0
O789 O 0.82606 0.66064 0.69429 0.0
O790 O 0.84232 0.6393 0.68443 0.0
O791 O 0.86231 0.6599 0.70634 0.0
O792 O 0.81317 0.67345 0.71076 0.0
O793 O 0.86295 0.67197 0.7284 0.0
C794 C 0.88243 0.69266 0.67557 0.0
C795 C 0.83739 0.6725 0.62037 0.0
C796 C 0.84627 0.68007 0.58981 0.0
C797 C 0.85082 0.68703 0.60599 0.0
C798 C 0.82815 0.65816 0.58828 0.0
C799 C 0.81933 0.65075 0.61862 0.0
C800 C 0.81483 0.64362 0.60263 0.0
C801 C 0.8347 0.70871 0.67753 0.0
C802 C 0.84276 0.68052 0.63699 0.0
C803 C 0.77954 0.5769 0.6553 0.0
C804 C 0.76119 0.58197 0.65854 0.0
C805 C 0.80684 0.65846 0.70066 0.0
C806 C 0.85547 0.67862 0.75548 0.0
C807 C 0.84874 0.66248 0.76983 0.0
C808 C 0.85695 0.66885 0.78576 0.0
C809 C 0.87211 0.69172 0.78708 0.0
C810 C 0.87055 0.70132 0.75703 0.0
C811 C 0.87882 0.70781 0.77278 0.0
C812 C 0.8548 0.64203 0.69812 0.0
C813 C 0.84702 0.67113 0.73903 0.0
H814 H 0.86449 0.70396 0.60739 0.0
H815 H 0.82434 0.65226 0.57601 0.0
H816 H 0.80866 0.63935 0.62953 0.0
H817 H 0.8009 0.6268 0.60134 0.0
H818 H 0.83738 0.64489 0.76851 0.0
H819 H 0.8785 0.6972 0.7992 0.0
H820 H 0.876 0.71399 0.74616 0.0
H821 H 0.89043 0.72538 0.77391 0.0
Tb822 Tb 0.35407 0.18933 0.66469 0.0
C823 C 0.27087 0.1479 0.71828 0.0
C824 C 0.25651 0.17504 0.71638 0.0
C825 C 0.22893 0.13544 0.72496 0.0
C826 C 0.27516 0.16975 0.71464 0.0
C827 C 0.24789 0.13053 0.72398 0.0
C828 C 0.23323 0.15769 0.72112 0.0
C829 C 0.26471 0.10539 0.7289 0.0
N830 N 0.28971 0.14398 0.71729 0.0
C831 C 0.28719 0.12325 0.72318 0.0
C832 C 0.24489 0.10896 0.72906 0.0
Tb833 Tb 0.32569 0.17405 0.7073 0.0
N834 N 0.29795 0.18597 0.71037 0.0
C835 C 0.30363 0.20815 0.709 0.0
C836 C 0.262 0.19765 0.71386 0.0
C837 C 0.28574 0.21429 0.71043 0.0
H838 H 0.30238 0.12032 0.72299 0.0
H839 H 0.29028 0.23187 0.70884 0.0
H840 H 0.2186 0.16137 0.72236 0.0
H841 H 0.26269 0.08889 0.73314 0.0
H842 H 0.32182 0.22127 0.70626 0.0
H843 H 0.388 0.13051 0.66193 0.0
H844 H 0.2482 0.20246 0.715 0.0
H845 H 0.37827 0.24322 0.6492 0.0
H846 H 0.35701 0.14168 0.66494 0.0
H847 H 0.41825 0.27435 0.63937 0.0
H848 H 0.21105 0.12229 0.72912 0.0
H849 H 0.43033 0.15948 0.65621 0.0
H850 H 0.46055 0.20048 0.64958 0.0
H851 H 0.22752 0.09512 0.73354 0.0
H852 H 0.46884 0.23983 0.64328 0.0
N853 N 0.38136 0.1769 0.66131 0.0
C854 C 0.37528 0.15464 0.66232 0.0
C855 C 0.41675 0.16454 0.65748 0.0
C856 C 0.42266 0.18726 0.65535 0.0
C857 C 0.39287 0.14816 0.66065 0.0
C858 C 0.40429 0.19289 0.65721 0.0
H859 H 0.45303 0.26752 0.63903 0.0
N860 N 0.39035 0.21908 0.65477 0.0
C861 C 0.41593 0.25771 0.64349 0.0
C862 C 0.40898 0.21486 0.6538 0.0
C863 C 0.39328 0.24 0.64902 0.0
C864 C 0.43553 0.25381 0.64337 0.0
C865 C 0.43212 0.23207 0.64828 0.0
O866 O 0.34422 0.20128 0.64205 0.0
O867 O 0.32521 0.1854 0.68101 0.0
O868 O 0.30163 0.14792 0.69234 0.0
O869 O 0.32746 0.1529 0.66951 0.0
O870 O 0.33914 0.21242 0.66275 0.0
O871 O 0.3428 0.16897 0.64507 0.0
O872 O 0.33617 0.1627 0.7299 0.0
O873 O 0.35431 0.17801 0.69088 0.0
O874 O 0.37812 0.21528 0.6798 0.0
O875 O 0.35223 0.21047 0.70253 0.0
O876 O 0.34162 0.15161 0.70957 0.0
O877 O 0.33576 0.19419 0.7271 0.0
C878 C 0.32267 0.20185 0.67465 0.0
C879 C 0.35047 0.18828 0.61732 0.0
C880 C 0.34523 0.1875 0.58686 0.0
C881 C 0.3355 0.18311 0.60363 0.0
C882 C 0.37016 0.19705 0.58412 0.0
C883 C 0.3752 0.1977 0.61421 0.0
C884 C 0.38495 0.20208 0.5977 0.0
C885 C 0.30693 0.14102 0.67884 0.0
C886 C 0.34012 0.18378 0.63476 0.0
C887 C 0.45084 0.22682 0.64728 0.0
C888 C 0.44612 0.20442 0.65086 0.0
C889 C 0.35758 0.16207 0.69732 0.0
C890 C 0.3289 0.17471 0.75483 0.0
C891 C 0.34385 0.18036 0.76856 0.0
C892 C 0.33398 0.17555 0.78535 0.0
C893 C 0.30894 0.16462 0.78807 0.0
C894 C 0.30409 0.16416 0.75797 0.0
C895 C 0.2942 0.15905 0.77449 0.0
C896 C 0.37284 0.22221 0.6933 0.0
C897 C 0.33932 0.17984 0.73732 0.0
H898 H 0.31638 0.17589 0.60603 0.0
H899 H 0.37824 0.20028 0.57148 0.0
H900 H 0.38697 0.20158 0.6245 0.0
H901 H 0.40407 0.20929 0.59542 0.0
H902 H 0.36306 0.18881 0.76613 0.0
H903 H 0.30066 0.1602 0.80076 0.0
H904 H 0.29232 0.15986 0.74768 0.0
H905 H 0.27499 0.15073 0.77678 0.0
Tb906 Tb 0.83862 0.1608 0.71274 0.0
C907 C 0.80505 0.20543 0.6557 0.0
C908 C 0.76265 0.18001 0.65626 0.0
C909 C 0.77793 0.21997 0.64727 0.0
C910 C 0.78612 0.18404 0.65907 0.0
C911 C 0.80135 0.22361 0.64932 0.0
C912 C 0.75859 0.19819 0.65077 0.0
C913 C 0.84421 0.247 0.64607 0.0
N914 N 0.82732 0.20812 0.65775 0.0
C915 C 0.84692 0.22837 0.65241 0.0
C916 C 0.82131 0.24469 0.64473 0.0
Tb917 Tb 0.83007 0.17694 0.66886 0.0
N918 N 0.79095 0.167 0.66404 0.0
C919 C 0.77316 0.14518 0.66507 0.0
C920 C 0.74416 0.1578 0.65847 0.0
C921 C 0.74951 0.14029 0.6626 0.0
H922 H 0.86467 0.23033 0.65354 0.0
H923 H 0.73542 0.123 0.66395 0.0
H924 H 0.74065 0.19548 0.6487 0.0
H925 H 0.85977 0.26312 0.64225 0.0
H926 H 0.77685 0.13139 0.66835 0.0
H927 H 0.93301 0.21544 0.71814 0.0
H928 H 0.72585 0.15396 0.65651 0.0
H929 H 0.80443 0.10732 0.72814 0.0
H930 H 0.89163 0.20663 0.71316 0.0
H931 H 0.80967 0.07478 0.7395 0.0
H932 H 0.77464 0.23376 0.64256 0.0
H933 H 0.94289 0.18479 0.72616 0.0
H934 H 0.92854 0.14334 0.73376 0.0
H935 H 0.81925 0.25911 0.63977 0.0
H936 H 0.89484 0.10486 0.73959 0.0
N937 N 0.87778 0.17106 0.71776 0.0
C938 C 0.89542 0.19296 0.71666 0.0
C939 C 0.92459 0.18076 0.7239 0.0
C940 C 0.90629 0.15846 0.72597 0.0
C941 C 0.91906 0.19809 0.71946 0.0
C942 C 0.8828 0.15418 0.7229 0.0
H943 H 0.85032 0.07916 0.74209 0.0
N944 N 0.84174 0.12978 0.72385 0.0
C945 C 0.82514 0.09096 0.73565 0.0
C946 C 0.86406 0.13269 0.72603 0.0
C947 C 0.82224 0.10945 0.72925 0.0
C948 C 0.84811 0.09348 0.73705 0.0
C949 C 0.86795 0.11464 0.73251 0.0
O950 O 0.81526 0.15046 0.73452 0.0
O951 O 0.81599 0.1662 0.69479 0.0
O952 O 0.83285 0.20349 0.68322 0.0
O953 O 0.85153 0.19752 0.70713 0.0
O954 O 0.7999 0.13954 0.71322 0.0
O955 O 0.84819 0.18136 0.73231 0.0
O956 O 0.85315 0.18759 0.64687 0.0
O957 O 0.85246 0.17145 0.68686 0.0
O958 O 0.83529 0.13399 0.69842 0.0
O959 O 0.81715 0.14027 0.67425 0.0
O960 O 0.86912 0.19744 0.66815 0.0
O961 O 0.8204 0.15643 0.6493 0.0
C962 C 0.79588 0.15056 0.70058 0.0
C963 C 0.83355 0.16246 0.76 0.0
C964 C 0.82998 0.16531 0.79028 0.0
C965 C 0.82571 0.1701 0.7732 0.0
C966 C 0.8417 0.15237 0.79379 0.0
C967 C 0.8455 0.14998 0.76402 0.0
C968 C 0.84941 0.14488 0.78078 0.0
C969 C 0.84441 0.20998 0.6971 0.0
C970 C 0.82938 0.16755 0.74209 0.0
C971 C 0.89141 0.11854 0.73481 0.0
C972 C 0.91058 0.14044 0.73151 0.0
C973 C 0.87279 0.18639 0.68096 0.0
C974 C 0.83447 0.17547 0.62152 0.0
C975 C 0.84656 0.17255 0.60794 0.0
C976 C 0.84227 0.1776 0.59091 0.0
C977 C 0.82549 0.1853 0.58788 0.0
C978 C 0.81794 0.1832 0.61794 0.0
C979 C 0.81351 0.18806 0.60126 0.0
C980 C 0.82403 0.1277 0.68437 0.0
C981 C 0.839 0.17045 0.63936 0.0
H982 H 0.81673 0.18001 0.77014 0.0
H983 H 0.84478 0.14782 0.80668 0.0
H984 H 0.85182 0.14412 0.75423 0.0
H985 H 0.85848 0.13504 0.78372 0.0
H986 H 0.85941 0.16663 0.61063 0.0
H987 H 0.82127 0.18889 0.57509 0.0
H988 H 0.80831 0.18534 0.62805 0.0
H989 H 0.80061 0.19391 0.59868 0.0
H990 H 0.26051 0.8392 0.08766 0.0
H991 H 0.29921 0.87263 0.07877 0.0
H992 H 0.33126 0.83 0.07521 0.0
H993 H 0.29272 0.79675 0.08421 0.0
H994 H 0.34498 0.8897 0.09178 0.0
H995 H 0.34706 0.86583 0.02781 0.0
H996 H 0.3204 0.85249 0.04176 0.0
H997 H 0.34348 0.84465 0.04491 0.0
C998 C 0.27596 0.83707 0.08529 0.0
C999 C 0.27355 0.81536 0.08651 0.0
C1000 C 0.29804 0.85615 0.08007 0.0
C1001 C 0.31816 0.85392 0.07585 0.0
C1002 C 0.31598 0.83226 0.0779 0.0
H1003 H 0.46561 0.94966 0.03713 0.0
H1004 H 0.42773 0.91567 0.04649 0.0
C1005 C 0.29398 0.81325 0.08315 0.0
C1006 C 0.34131 0.87412 0.0692 0.0
H1007 H 0.38186 0.89741 0.03499 0.0
C1008 C 0.35296 0.89139 0.07934 0.0
C1009 C 0.35197 0.87643 0.05297 0.0
C1010 C 0.34003 0.85899 0.04114 0.0
C1011 C 0.37496 0.91057 0.07387 0.0
C1012 C 0.38551 0.913 0.05758 0.0
C1013 C 0.37392 0.89568 0.04746 0.0
C1014 C 0.40827 0.93356 0.05077 0.0
C1015 C 0.38697 0.92782 0.08585 0.0
C1016 C 0.40997 0.955 0.04947 0.0
C1017 C 0.43155 0.97438 0.04406 0.0
C1018 C 0.45193 0.97289 0.0394 0.0
C1019 C 0.45016 0.95142 0.04025 0.0
C1020 C 0.42849 0.93196 0.04572 0.0
H1021 H 0.38062 0.92052 0.09922 0.0
H1022 H 0.40668 0.93496 0.08474 0.0
H1023 H 0.38268 0.94174 0.08272 0.0
H1024 H 0.39461 0.95681 0.05285 0.0
H1025 H 0.43238 0.99067 0.04365 0.0
H1026 H 0.21432 0.52975 0.10806 0.0
H1027 H 0.17885 0.52764 0.09474 0.0
H1028 H 0.20045 0.51163 0.04918 0.0
H1029 H 0.23377 0.51046 0.0634 0.0
H1030 H 0.16802 0.54655 0.07064 0.0
H1031 H 0.13668 0.46007 0.05579 0.0
H1032 H 0.16232 0.4739 0.06797 0.0
H1033 H 0.16511 0.47893 0.04512 0.0
C1034 C 0.21127 0.52558 0.09526 0.0
C1035 C 0.22652 0.5199 0.08689 0.0
C1036 C 0.19115 0.52457 0.08757 0.0
C1037 C 0.18641 0.51861 0.07112 0.0
C1038 C 0.20303 0.51521 0.06214 0.0
H1039 H 0.07259 0.53522 0.02266 0.0
H1040 H 0.11119 0.53948 0.02987 0.0
C1041 C 0.22251 0.51519 0.07011 0.0
C1042 C 0.16376 0.51531 0.06368 0.0
H1043 H 0.11629 0.47905 0.0434 0.0
C1044 C 0.15662 0.53168 0.06482 0.0
C1045 C 0.14853 0.49566 0.05639 0.0
C1046 C 0.15343 0.47606 0.05643 0.0
C1047 C 0.1347 0.5289 0.05908 0.0
C1048 C 0.12025 0.50998 0.05079 0.0
C1049 C 0.12748 0.49372 0.04951 0.0
C1050 C 0.09712 0.50623 0.044 0.0
C1051 C 0.12698 0.54583 0.06278 0.0
C1052 C 0.07641 0.48538 0.04805 0.0
C1053 C 0.05432 0.48236 0.04268 0.0
C1054 C 0.05246 0.50024 0.03347 0.0
C1055 C 0.07326 0.52088 0.02923 0.0
C1056 C 0.09545 0.52355 0.03382 0.0
H1057 H 0.13557 0.55405 0.07401 0.0
H1058 H 0.13255 0.55925 0.05184 0.0
H1059 H 0.10733 0.53787 0.06518 0.0
H1060 H 0.07717 0.47164 0.05584 0.0
H1061 H 0.03853 0.46634 0.04635 0.0
H1062 H 0.58445 0.74145 0.0757 0.0
H1063 H 0.5767 0.7063 0.06514 0.0
H1064 H 0.50106 0.6841 0.06837 0.0
H1065 H 0.50893 0.7193 0.07909 0.0
H1066 H 0.51402 0.65145 0.08317 0.0
H1067 H 0.55516 0.68686 0.01803 0.0
H1068 H 0.57397 0.70031 0.03453 0.0
H1069 H 0.54706 0.7022 0.03134 0.0
C1070 C 0.56621 0.72907 0.07405 0.0
C1071 C 0.54727 0.73303 0.07815 0.0
C1072 C 0.56179 0.70908 0.06793 0.0
C1073 C 0.5383 0.69261 0.06577 0.0
C1074 C 0.51933 0.69658 0.06984 0.0
H1075 H 0.49397 0.57221 0.01581 0.0
H1076 H 0.50032 0.60794 0.02416 0.0
C1077 C 0.5238 0.71668 0.07587 0.0
C1078 C 0.53356 0.67095 0.05987 0.0
H1079 H 0.54463 0.64861 0.02684 0.0
C1080 C 0.52063 0.65083 0.07083 0.0
C1081 C 0.54198 0.67006 0.0437 0.0
C1082 C 0.55514 0.69096 0.03113 0.0
C1083 C 0.5164 0.62998 0.06622 0.0
C1084 C 0.52546 0.62919 0.05025 0.0
C1085 C 0.53788 0.64923 0.03913 0.0
C1086 C 0.52218 0.60769 0.04491 0.0
C1087 C 0.50208 0.60891 0.07841 0.0
C1088 C 0.53266 0.59575 0.0536 0.0
C1089 C 0.52933 0.57541 0.04871 0.0
C1090 C 0.51544 0.5665 0.03497 0.0
C1091 C 0.5051 0.57863 0.02623 0.0
C1092 C 0.50859 0.59905 0.03106 0.0
H1093 H 0.49185 0.61162 0.0883 0.0
H1094 H 0.48943 0.59497 0.07162 0.0
H1095 H 0.51439 0.60362 0.08481 0.0
H1096 H 0.54349 0.60221 0.06418 0.0
H1097 H 0.53762 0.56666 0.05577 0.0
H1098 H 0.7965 0.29918 0.96289 0.0
H1099 H 0.8259 0.33516 0.97186 0.0
H1100 H 0.8759 0.30958 0.97929 0.0
H1101 H 0.84684 0.27417 0.96958 0.0
H1102 H 0.84747 0.34837 0.99916 0.0
H1103 H 0.91817 0.3666 0.95067 0.0
H1104 H 0.88832 0.34365 0.95037 0.0
H1105 H 0.90972 0.34041 0.96365 0.0
C1106 C 0.81379 0.30136 0.96648 0.0
C1107 C 0.81951 0.28402 0.96543 0.0
C1108 C 0.83065 0.32192 0.97159 0.0
C1109 C 0.8536 0.32558 0.97588 0.0
C1110 C 0.85882 0.30775 0.97549 0.0
H1111 H 0.94921 0.43544 0.03225 0.0
H1112 H 0.91931 0.39974 0.0238 0.0
C1113 C 0.84212 0.28738 0.97012 0.0
C1114 C 0.87188 0.34786 0.98085 0.0
H1115 H 0.93007 0.38921 0.97317 0.0
C1116 C 0.86548 0.35731 0.99338 0.0
C1117 C 0.8954 0.36005 0.97317 0.0
C1118 C 0.90324 0.35228 0.9586 0.0
C1119 C 0.88182 0.37812 0.99859 0.0
C1120 C 0.90573 0.38969 0.99157 0.0
C1121 C 0.91198 0.38041 0.97884 0.0
C1122 C 0.92437 0.41155 0.99692 0.0
C1123 C 0.87292 0.38772 0.01123 0.0
C1124 C 0.93831 0.43015 0.98475 0.0
C1125 C 0.95585 0.45055 0.98963 0.0
C1126 C 0.95982 0.45306 0.00683 0.0
C1127 C 0.94618 0.4344 0.01897 0.0
C1128 C 0.92892 0.41388 0.01409 0.0
H1129 H 0.8533 0.3811 0.01096 0.0
H1130 H 0.87673 0.38277 0.02417 0.0
H1131 H 0.88176 0.40636 0.00876 0.0
H1132 H 0.93547 0.42901 0.97141 0.0
H1133 H 0.96597 0.46455 0.9799 0.0
H1134 H 0.68426 0.47163 0.94991 0.0
H1135 H 0.65245 0.47573 0.96394 0.0
H1136 H 0.70503 0.52558 0.9919 0.0
H1137 H 0.73664 0.52179 0.9777 0.0
H1138 H 0.66003 0.4912 0.01116 0.0
H1139 H 0.64872 0.53603 0.95173 0.0
H1140 H 0.64728 0.50933 0.9501 0.0
H1141 H 0.67482 0.53248 0.95495 0.0
C1142 C 0.68878 0.48318 0.95922 0.0
C1143 C 0.71263 0.49623 0.96294 0.0
C1144 C 0.67077 0.48553 0.96718 0.0
C1145 C 0.67656 0.501 0.97887 0.0
C1146 C 0.70029 0.51347 0.983 0.0
H1147 H 0.58579 0.55633 0.00663 0.0
H1148 H 0.62158 0.55283 1.00086 0.0
C1149 C 0.71824 0.51121 0.97499 0.0
C1150 C 0.65819 0.50541 0.98596 0.0
H1151 H 0.62212 0.52839 0.9751 0.0
C1152 C 0.6517 0.49934 1.00334 0.0
C1153 C 0.64789 0.51649 0.97571 0.0
C1154 C 0.65509 0.52417 0.9571 0.0
C1155 C 0.6345 0.5035 0.01068 0.0
C1156 C 0.62363 0.51391 1.0003 0.0
C1157 C 0.63062 0.52049 0.98301 0.0
C1158 C 0.60358 0.51656 0.00667 0.0
C1159 C 0.62815 0.49686 0.02943 0.0
C1160 C 0.58186 0.49738 0.01197 0.0
C1161 C 0.56156 0.49936 0.01512 0.0
C1162 C 0.56268 0.52057 0.01326 0.0
C1163 C 0.58461 0.53984 0.00843 0.0
C1164 C 0.60498 0.53786 1.00518 0.0
H1165 H 0.64214 0.49443 0.03623 0.0
H1166 H 0.62557 0.50982 0.03494 0.0
H1167 H 0.61117 0.48078 0.03158 0.0
H1168 H 0.58024 0.48075 0.0127 0.0
H1169 H 0.54489 0.48415 0.01815 0.0
H1170 H 0.42578 0.18482 0.95587 0.0
H1171 H 0.43088 0.15147 0.96425 0.0
H1172 H 0.50733 0.1936 0.96071 0.0
H1173 H 0.50213 0.22681 0.95236 0.0
H1174 H 0.48915 0.15022 0.9467 0.0
H1175 H 0.45461 0.14206 0.01261 0.0
H1176 H 0.43632 0.14383 0.99586 0.0
H1177 H 0.46482 0.16761 0.99803 0.0
C1178 C 0.44362 0.18677 0.95655 0.0
C1179 C 0.46358 0.20828 0.95352 0.0
C1180 C 0.44654 0.16781 0.96147 0.0
C1181 C 0.4695 0.17006 0.96333 0.0
C1182 C 0.48946 0.19144 0.95943 0.0
H1183 H 0.52117 0.08645 0.01909 0.0
H1184 H 0.51235 0.11622 0.00723 0.0
C1185 C 0.48652 0.21037 0.95465 0.0
C1186 C 0.4728 0.15047 0.97018 0.0
H1187 H 0.46567 0.11514 0.00647 0.0
C1188 C 0.48387 0.14243 0.95973 0.0
C1189 C 0.46621 0.14052 0.98725 0.0
C1190 C 0.45497 0.14895 0.9992 0.0
C1191 C 0.48838 0.12464 0.96587 0.0
C1192 C 0.48165 0.11461 0.98292 0.0
C1193 C 0.47068 0.12273 0.99338 0.0
C1194 C 0.48654 0.09616 0.99027 0.0
C1195 C 0.50083 0.11703 0.95421 0.0
C1196 C 0.47476 0.0748 0.98486 0.0
C1197 C 0.4795 0.05755 0.99183 0.0
C1198 C 0.49618 0.06127 1.00436 0.0
C1199 C 0.50792 0.08274 0.00972 0.0
C1200 C 0.50301 0.09989 1.00287 0.0
H1201 H 0.50865 0.12902 0.94244 0.0
H1202 H 0.51526 0.11502 0.96071 0.0
H1203 H 0.48779 0.10043 0.95063 0.0
H1204 H 0.4618 0.07143 0.97528 0.0
H1205 H 0.47011 0.0413 0.98733 0.0
H1206 H 0.76279 0.18761 0.95681 0.0
H1207 H 0.72488 0.1531 0.96497 0.0
H1208 H 0.6902 0.1931 0.97069 0.0
H1209 H 0.72772 0.22737 0.96171 0.0
H1210 H 0.69891 0.13869 0.99402 0.0
H1211 H 0.64182 0.14749 0.94459 0.0
H1212 H 0.67381 0.165 0.94317 0.0
H1213 H 0.65513 0.17151 0.95579 0.0
C1214 C 0.7469 0.18895 0.95938 0.0
C1215 C 0.74825 0.21023 0.95857 0.0
C1216 C 0.72524 0.16921 0.96422 0.0
C1217 C 0.70434 0.17024 0.96831 0.0
C1218 C 0.7057 0.19157 0.96726 0.0
H1219 H 0.5587 0.07138 0.00787 0.0
H1220 H 0.59634 0.10579 0.99913 0.0
C1221 C 0.72728 0.21124 0.96231 0.0
C1222 C 0.68157 0.14922 0.97453 0.0
H1223 H 0.62164 0.12004 0.96854 0.0
C1224 C 0.68208 0.13459 0.98833 0.0
C1225 C 0.65939 0.14364 0.96725 0.0
C1226 C 0.6575 0.15762 0.95178 0.0
C1227 C 0.66124 0.11501 0.99518 0.0
C1228 C 0.63902 0.10957 0.98802 0.0
C1229 C 0.63849 0.12418 0.97422 0.0
C1230 C 0.61632 0.08857 0.99428 0.0
C1231 C 0.66329 0.10058 0.01026 0.0
C1232 C 0.6147 0.06724 0.99451 0.0
C1233 C 0.59323 0.04756 0.9997 0.0
C1234 C 0.57276 0.0486 1.00486 0.0
C1235 C 0.57424 0.06991 1.00448 0.0
C1236 C 0.59577 0.08964 0.99931 0.0
H1237 H 0.67885 0.1105 0.01761 0.0
H1238 H 0.64694 0.09263 0.01882 0.0
H1239 H 0.6659 0.08706 1.00575 0.0
H1240 H 0.62993 0.06574 0.9903 0.0
H1241 H 0.59256 0.03142 0.9995 0.0
H1242 H 0.79634 0.4867 0.93796 0.0
H1243 H 0.83585 0.49449 0.94805 0.0
H1244 H 0.83539 0.54391 0.97711 0.0
H1245 H 0.79594 0.5358 0.96717 0.0
H1246 H 0.88031 0.53476 0.94699 0.0
H1247 H 0.84175 0.49833 0.01269 0.0
H1248 H 0.82354 0.49431 0.99467 0.0
H1249 H 0.83563 0.5203 1.0036 0.0
C1250 C 0.80504 0.49942 0.94628 0.0
C1251 C 0.79342 0.51055 0.95203 0.0
C1252 C 0.8274 0.50383 0.95206 0.0
C1253 C 0.83817 0.51941 0.96361 0.0
C1254 C 0.82709 0.53149 0.96851 0.0
H1255 H 0.98371 0.57008 0.99531 0.0
H1256 H 0.94576 0.56724 0.98597 0.0
C1257 C 0.80477 0.527 0.9628 0.0
C1258 C 0.86051 0.5224 0.97112 0.0
H1259 H 0.88393 0.51611 0.0087 0.0
C1260 C 0.88116 0.53072 0.96046 0.0
C1261 C 0.86135 0.51681 0.9887 0.0
C1262 C 0.83936 0.50674 1.00059 0.0
C1263 C 0.90283 0.53383 0.96697 0.0
C1264 C 0.9038 0.52879 0.9846 0.0
C1265 C 0.8831 0.52026 0.99523 0.0
C1266 C 0.92589 0.53104 0.99206 0.0
C1267 C 0.92435 0.54195 0.9549 0.0
C1268 C 0.92686 0.51174 0.99919 0.0
C1269 C 0.94838 0.51335 1.00455 0.0
C1270 C 0.96911 0.53434 1.00312 0.0
C1271 C 0.96786 0.55375 0.99663 0.0
C1272 C 0.94632 0.55214 0.99124 0.0
H1273 H 0.91936 0.54047 0.94155 0.0
H1274 H 0.93677 0.55991 0.95587 0.0
H1275 H 0.93405 0.53228 0.95816 0.0
H1276 H 0.91121 0.49532 0.99993 0.0
H1277 H 0.94889 0.49807 0.00917 0.0
H1278 H 0.50293 0.29409 0.96323 0.0
H1279 H 0.5094 0.32818 0.97512 0.0
H1280 H 0.43329 0.30341 0.97896 0.0
H1281 H 0.42693 0.26935 0.96723 0.0
H1282 H 0.49495 0.36013 0.96172 0.0
H1283 H 0.45427 0.32105 0.02652 0.0
H1284 H 0.46311 0.30697 0.01248 0.0
H1285 H 0.43568 0.30803 0.00979 0.0
C1286 C 0.48766 0.29591 0.96683 0.0
C1287 C 0.46445 0.27915 0.96439 0.0
C1288 C 0.49133 0.31536 0.97354 0.0
C1289 C 0.47183 0.31829 0.97813 0.0
C1290 C 0.44861 0.30142 0.97579 0.0
H1291 H 0.46709 0.44055 0.99211 0.0
H1292 H 0.46249 0.40585 0.98287 0.0
C1293 C 0.44497 0.28206 0.969 0.0
C1294 C 0.47573 0.33931 0.98473 0.0
H1295 H 0.4634 0.35917 0.01882 0.0
C1296 C 0.48814 0.35992 0.97423 0.0
C1297 C 0.46706 0.33911 1.00112 0.0
C1298 C 0.45446 0.31766 0.01323 0.0
C1299 C 0.49157 0.38019 0.97951 0.0
C1300 C 0.48223 0.37989 0.99569 0.0
C1301 C 0.47036 0.35938 0.00636 0.0
C1302 C 0.48456 0.40073 1.00168 0.0
C1303 C 0.50534 0.40184 0.96777 0.0
C1304 C 0.4981 0.40923 0.01557 0.0
C1305 C 0.50086 0.42919 0.02088 0.0
C1306 C 0.48985 0.44094 0.01257 0.0
C1307 C 0.47591 0.43209 0.99884 0.0
C1308 C 0.47331 0.41223 0.99348 0.0
H1309 H 0.51594 0.40003 0.95761 0.0
H1310 H 0.49263 0.40685 0.9617 0.0
H1311 H 0.51761 0.41559 0.97489 0.0
H1312 H 0.50695 0.40066 0.02211 0.0
H1313 H 0.51203 0.43559 0.0313 0.0
H1314 H 0.22474 0.72943 0.07754 0.0
H1315 H 0.19598 0.69492 0.06632 0.0
H1316 H 0.14381 0.71816 0.06486 0.0
H1317 H 0.17264 0.75265 0.07598 0.0
H1318 H 0.14961 0.66184 0.08064 0.0
H1319 H 0.14432 0.70094 0.01676 0.0
H1320 H 0.16832 0.71524 0.03029 0.0
H1321 H 0.13967 0.71346 0.03404 0.0
C1322 C 0.2072 0.7272 0.07464 0.0
C1323 C 0.20094 0.74373 0.07757 0.0
C1324 C 0.19073 0.70745 0.06831 0.0
C1325 C 0.16771 0.70392 0.06454 0.0
C1326 C 0.1615 0.72053 0.0674 0.0
H1327 H 0.03908 0.57971 0.05053 0.0
H1328 H 0.06941 0.61458 0.05995 0.0
C1329 C 0.17791 0.74018 0.07385 0.0
C1330 C 0.15001 0.68269 0.05805 0.0
H1331 H 0.11611 0.66241 0.02438 0.0
C1332 C 0.14235 0.66199 0.06832 0.0
C1333 C 0.14061 0.68272 0.0419 0.0
C1334 C 0.14875 0.70423 0.03 0.0
C1335 C 0.12527 0.64154 0.06305 0.0
C1336 C 0.11542 0.64165 0.0471 0.0
C1337 C 0.12346 0.66227 0.03666 0.0
C1338 C 0.09676 0.62052 0.04107 0.0
C1339 C 0.11801 0.61987 0.07455 0.0
C1340 C 0.10176 0.61226 0.02712 0.0
C1341 C 0.08444 0.59214 0.02172 0.0
C1342 C 0.06147 0.57992 0.02997 0.0
C1343 C 0.05645 0.5885 0.0438 0.0
C1344 C 0.07386 0.60848 0.04928 0.0
H1345 H 0.13061 0.62202 0.08473 0.0
H1346 H 0.1 0.61395 0.08059 0.0
H1347 H 0.11705 0.6066 0.06721 0.0
H1348 H 0.11927 0.62117 0.02057 0.0
H1349 H 0.08925 0.58601 0.01126 0.0
H1350 H 0.2683 0.47389 0.08568 0.0
H1351 H 0.29947 0.46809 0.07268 0.0
H1352 H 0.35358 0.5295 0.08902 0.0
H1353 H 0.32216 0.53524 0.10198 0.0
H1354 H 0.33919 0.5063 0.04665 0.0
H1355 H 0.36887 0.47393 0.10429 0.0
H1356 H 0.33901 0.47045 0.10321 0.0
H1357 H 0.36365 0.49756 0.10518 0.0
C1358 C 0.28691 0.48576 0.08678 0.0
C1359 C 0.29315 0.50475 0.09494 0.0
C1360 C 0.30458 0.4826 0.07926 0.0
C1361 C 0.32868 0.49839 0.07994 0.0
C1362 C 0.335 0.51714 0.08848 0.0
H1363 H 0.4583 0.52183 0.02966 0.0
H1364 H 0.42298 0.52415 0.03808 0.0
C1365 C 0.31724 0.52035 0.09592 0.0
C1366 C 0.34715 0.49554 0.07122 0.0
H1367 H 0.38969 0.47938 0.07832 0.0
C1368 C 0.35026 0.5004 0.05351 0.0
C1369 C 0.36127 0.48767 0.08029 0.0
C1370 C 0.35812 0.48196 0.0993 0.0
C1371 C 0.36757 0.49785 0.0446 0.0
C1372 C 0.3819 0.49025 0.05372 0.0
C1373 C 0.37852 0.48511 0.07141 0.0
C1374 C 0.40127 0.48831 0.04537 0.0
C1375 C 0.37039 0.50315 0.02556 0.0
C1376 C 0.4005 0.46733 0.04628 0.0
C1377 C 0.42064 0.46595 0.04131 0.0
C1378 C 0.44181 0.48554 0.03542 0.0
C1379 C 0.44214 0.50641 0.03373 0.0
C1380 C 0.42195 0.50777 0.03859 0.0
H1381 H 0.35495 0.50447 0.0202 0.0
H1382 H 0.38678 0.51943 0.02191 0.0
H1383 H 0.37242 0.49003 0.01981 0.0
H1384 H 0.38469 0.45217 0.0516 0.0
H1385 H 0.42009 0.44972 0.0429 0.0
H1386 H 0.59014 0.82839 0.08481 0.0
H1387 H 0.58724 0.86305 0.07725 0.0
H1388 H 0.51044 0.82389 0.07982 0.0
H1389 H 0.51344 0.78935 0.08736 0.0
H1390 H 0.5635 0.871 0.04774 0.0
H1391 H 0.52474 0.87653 0.10819 0.0
H1392 H 0.54034 0.86044 0.10708 0.0
H1393 H 0.51017 0.84946 0.10078 0.0
C1394 C 0.5727 0.82735 0.08403 0.0
C1395 C 0.552 0.80632 0.08668 0.0
C1396 C 0.57103 0.84707 0.07964 0.0
C1397 C 0.54861 0.84612 0.07808 0.0
C1398 C 0.52791 0.82511 0.08115 0.0
H1399 H 0.50185 0.93423 0.02486 0.0
H1400 H 0.51012 0.90394 0.03594 0.0
C1401 C 0.5296 0.8054 0.08537 0.0
C1402 C 0.54681 0.86683 0.07227 0.0
H1403 H 0.52508 0.90074 0.08401 0.0
C1404 C 0.55528 0.87761 0.05572 0.0
C1405 C 0.5362 0.87554 0.0827 0.0
C1406 C 0.52748 0.86506 0.10074 0.0
C1407 C 0.55273 0.89639 0.04916 0.0
C1408 C 0.54144 0.90466 0.0594 0.0
C1409 C 0.53364 0.89434 0.07614 0.0
C1410 C 0.53675 0.92344 0.05267 0.0
C1411 C 0.56199 0.90722 0.03125 0.0
C1412 C 0.5488 0.94453 0.05849 0.0
C1413 C 0.54438 0.96216 0.05194 0.0
C1414 C 0.52763 0.95897 0.03954 0.0
C1415 C 0.5153 0.93762 0.03403 0.0
C1416 C 0.51991 0.92015 0.04044 0.0
H1417 H 0.57439 0.90185 0.02621 0.0
H1418 H 0.54672 0.90237 0.02298 0.0
H1419 H 0.57138 0.92583 0.03057 0.0
H1420 H 0.56178 0.9474 0.068 0.0
H1421 H 0.55411 0.97826 0.0566 0.0
H1422 H 0.9272 0.15542 0.3941 0.0
H1423 H 0.96587 0.18785 0.38532 0.0
H1424 H 0.98997 0.18171 0.4354 0.0
H1425 H 0.95205 0.14738 0.44347 0.0
H1426 H 0.98939 0.22609 0.39108 0.0
H1427 H 0.0461 0.18792 0.41156 0.0
H1428 H 0.01405 0.17161 0.41235 0.0
H1429 H 0.02881 0.18783 0.42923 0.0
C1430 C 0.94093 0.16067 0.40314 0.0
C1431 C 0.93661 0.14832 0.41934 0.0
C1432 C 0.96311 0.17952 0.39817 0.0
C1433 C 0.98162 0.18724 0.40942 0.0
C1434 C 0.97671 0.17581 0.42608 0.0
H1435 H 0.10171 0.32375 0.38456 0.0
H1436 H 0.06386 0.29049 0.39404 0.0
C1437 C 0.95467 0.15638 0.43088 0.0
C1438 C 0.00557 0.20733 0.40358 0.0
H1439 H 0.06618 0.22764 0.40384 0.0
C1440 C 0.0061 0.22617 0.39381 0.0
C1441 C 0.02777 0.20776 0.40662 0.0
C1442 C 0.02918 0.18759 0.41534 0.0
C1443 C 0.02766 0.24504 0.38713 0.0
C1444 C 0.04986 0.24614 0.3912 0.0
C1445 C 0.04941 0.22726 0.40084 0.0
C1446 C 0.07358 0.26662 0.38569 0.0
C1447 C 0.0261 0.26314 0.3752 0.0
C1448 C 0.09273 0.26468 0.37874 0.0
C1449 C 0.11493 0.28385 0.37391 0.0
C1450 C 0.11833 0.30553 0.37536 0.0
C1451 C 0.09945 0.30739 0.38268 0.0
C1452 C 0.07758 0.28827 0.38796 0.0
H1453 H 0.0093 0.2561 0.36844 0.0
H1454 H 0.02598 0.27593 0.38256 0.0
H1455 H 0.04134 0.2715 0.3656 0.0
H1456 H 0.09057 0.24832 0.37702 0.0
H1457 H 0.12938 0.28164 0.36909 0.0
H1458 H 0.90049 0.8832 0.413 0.0
H1459 H 0.86359 0.87883 0.39998 0.0
H1460 H 0.83136 0.80686 0.41323 0.0
H1461 H 0.86801 0.81141 0.42633 0.0
H1462 H 0.84061 0.85376 0.37333 0.0
H1463 H 0.78226 0.82205 0.43248 0.0
H1464 H 0.81443 0.83574 0.43254 0.0
H1465 H 0.79793 0.80672 0.42919 0.0
C1466 C 0.8853 0.86659 0.41322 0.0
C1467 C 0.88657 0.84764 0.42079 0.0
C1468 C 0.86442 0.86406 0.40578 0.0
C1469 C 0.8447 0.84254 0.40591 0.0
C1470 C 0.84619 0.82361 0.41334 0.0
H1471 H 0.70068 0.79337 0.37214 0.0
H1472 H 0.73893 0.79553 0.38001 0.0
C1473 C 0.86697 0.82617 0.42078 0.0
C1474 C 0.82263 0.83969 0.39804 0.0
H1475 H 0.76309 0.81959 0.40667 0.0
C1476 C 0.82365 0.84637 0.38059 0.0
C1477 C 0.80059 0.82995 0.40759 0.0
C1478 C 0.79869 0.82338 0.42651 0.0
C1479 C 0.80303 0.84335 0.37238 0.0
C1480 C 0.78101 0.83356 0.38194 0.0
C1481 C 0.78 0.8268 0.39936 0.0
C1482 C 0.75906 0.83179 0.37453 0.0
C1483 C 0.80484 0.85034 0.35355 0.0
C1484 C 0.75789 0.85141 0.36877 0.0
C1485 C 0.73619 0.85019 0.36441 0.0
C1486 C 0.71533 0.82932 0.36555 0.0
C1487 C 0.71663 0.80962 0.37089 0.0
C1488 C 0.73838 0.81083 0.37534 0.0
H1489 H 0.82152 0.85237 0.34745 0.0
H1490 H 0.78932 0.83776 0.34751 0.0
H1491 H 0.80485 0.86669 0.35114 0.0
H1492 H 0.77348 0.86778 0.36854 0.0
H1493 H 0.73573 0.86571 0.36098 0.0
H1494 H 0.2343 0.08182 0.3891 0.0
H1495 H 0.22656 0.04699 0.37786 0.0
H1496 H 0.18149 0.00796 0.42258 0.0
H1497 H 0.18865 0.04282 0.43338 0.0
H1498 H 0.23697 0.01491 0.38985 0.0
H1499 H 0.13891 0.97624 0.38662 0.0
H1500 H 0.1571 1.00515 0.39009 0.0
H1501 H 0.14818 0.98283 0.40744 0.0
C1502 C 0.22247 0.06572 0.39631 0.0
C1503 C 0.21189 0.06484 0.41198 0.0
C1504 C 0.21812 0.04586 0.38997 0.0
C1505 C 0.20309 0.02471 0.39921 0.0
C1506 C 0.19261 0.02393 0.41495 0.0
H1507 H 0.20398 0.89965 0.38819 0.0
H1508 H 0.21028 0.93535 0.39636 0.0
C1509 C 0.19683 0.04379 0.4212 0.0
C1510 C 0.19923 1.00359 0.39273 0.0
H1511 H 0.15595 0.95205 0.38436 0.0
C1512 C 0.21924 1.00125 0.38855 0.0
C1513 C 0.17613 0.98579 0.39071 0.0
C1514 C 0.15387 0.98769 0.39378 0.0
C1515 C 0.21681 0.98153 0.38284 0.0
C1516 C 0.19369 0.96328 0.38168 0.0
C1517 C 0.17369 0.96584 0.38544 0.0
C1518 C 0.18985 0.94142 0.37663 0.0
C1519 C 0.23912 0.98068 0.37783 0.0
C1520 C 0.17552 0.93233 0.36317 0.0
C1521 C 0.17151 0.91161 0.35863 0.0
C1522 C 0.18182 0.89949 0.36739 0.0
C1523 C 0.19595 0.90854 0.38098 0.0
C1524 C 0.19977 0.92914 0.3856 0.0
H1525 H 0.25436 0.99782 0.37428 0.0
H1526 H 0.24419 0.97247 0.38875 0.0
H1527 H 0.23628 0.97093 0.36703 0.0
H1528 H 0.16742 0.94128 0.35614 0.0
H1529 H 0.16009 0.90503 0.34837 0.0
H1530 H 0.47963 0.63745 0.27681 0.0
H1531 H 0.50917 0.67316 0.28597 0.0
H1532 H 0.51978 0.63654 0.33011 0.0
H1533 H 0.49096 0.60088 0.32044 0.0
H1534 H 0.51205 0.69394 0.31222 0.0
H1535 H 0.58759 0.67544 0.31304 0.0
H1536 H 0.55969 0.65786 0.30425 0.0
H1537 H 0.56271 0.65493 0.32677 0.0
C1538 C 0.48834 0.63715 0.28846 0.0
C1539 C 0.48313 0.61646 0.29789 0.0
C1540 C 0.50522 0.65754 0.29372 0.0
C1541 C 0.51731 0.65778 0.3086 0.0
C1542 C 0.5114 0.63702 0.31834 0.0
H1543 H 0.59541 0.77944 0.35808 0.0
H1544 H 0.56603 0.74351 0.34984 0.0
C1545 C 0.49468 0.61661 0.31296 0.0
C1546 C 0.53583 0.67971 0.31388 0.0
H1547 H 0.59369 0.70785 0.32525 0.0
C1548 C 0.52991 0.69694 0.31502 0.0
C1549 C 0.55943 0.68406 0.31726 0.0
C1550 C 0.56785 0.6672 0.3151 0.0
C1551 C 0.54658 0.71802 0.31961 0.0
C1552 C 0.56984 0.72201 0.32373 0.0
C1553 C 0.57587 0.7049 0.32235 0.0
C1554 C 0.58825 0.74383 0.32922 0.0
C1555 C 0.53917 0.736 0.3195 0.0
C1556 C 0.61117 0.7559 0.32097 0.0
C1557 C 0.62841 0.77633 0.32602 0.0
C1558 C 0.62324 0.78529 0.33953 0.0
C1559 C 0.60032 0.77309 0.34782 0.0
C1560 C 0.58322 0.75257 0.34289 0.0
H1561 H 0.52433 0.73302 0.31104 0.0
H1562 H 0.53273 0.73576 0.33248 0.0
H1563 H 0.55433 0.75297 0.31531 0.0
H1564 H 0.61571 0.74963 0.31044 0.0
H1565 H 0.64576 0.78512 0.31926 0.0
H1566 H 0.35668 0.79815 0.29645 0.0
H1567 H 0.32468 0.80204 0.31055 0.0
H1568 H 0.36632 0.87426 0.29969 0.0
H1569 H 0.3979 0.87023 0.28559 0.0
H1570 H 0.32787 0.82686 0.33857 0.0
H1571 H 0.30143 0.85916 0.27958 0.0
H1572 H 0.31912 0.84495 0.27943 0.0
H1573 H 0.33282 0.87399 0.2828 0.0
C1574 C 0.35865 0.81472 0.29703 0.0
C1575 C 0.37921 0.83391 0.28978 0.0
C1576 C 0.34062 0.81697 0.3051 0.0
C1577 C 0.34312 0.83843 0.30592 0.0
C1578 C 0.36393 0.85757 0.2989 0.0
H1579 H 0.25155 0.8895 0.33866 0.0
H1580 H 0.28719 0.88632 0.33176 0.0
C1581 C 0.38183 0.85531 0.29086 0.0
C1582 C 0.32398 0.84106 0.31392 0.0
H1583 H 0.28525 0.86165 0.30544 0.0
C1584 C 0.31843 0.83436 0.33137 0.0
C1585 C 0.31185 0.85091 0.30442 0.0
C1586 C 0.3164 0.85749 0.28549 0.0
C1587 C 0.30119 0.83764 0.33967 0.0
C1588 C 0.28924 0.84768 0.33016 0.0
C1589 C 0.29478 0.85429 0.31271 0.0
C1590 C 0.26961 0.85007 0.33761 0.0
C1591 C 0.2961 0.83069 0.35851 0.0
C1592 C 0.2482 0.83079 0.34342 0.0
C1593 C 0.22796 0.83259 0.34724 0.0
C1594 C 0.22886 0.8537 0.3455 0.0
C1595 C 0.25056 0.87308 0.34033 0.0
C1596 C 0.27084 0.87128 0.33644 0.0
H1597 H 0.31075 0.82859 0.36457 0.0
H1598 H 0.29349 0.84327 0.3646 0.0
H1599 H 0.27943 0.81436 0.36094 0.0
H1600 H 0.24671 0.81423 0.34395 0.0
H1601 H 0.21144 0.81731 0.35062 0.0
H1602 H 0.09583 0.52302 0.30833 0.0
H1603 H 0.10159 0.49027 0.31709 0.0
H1604 H 0.16073 0.51623 0.27997 0.0
H1605 H 0.15422 0.54861 0.27086 0.0
H1606 H 0.13544 0.47118 0.28206 0.0
H1607 H 0.15406 0.49454 0.34683 0.0
H1608 H 0.12498 0.48978 0.34103 0.0
H1609 H 0.15118 0.51271 0.32972 0.0
C1610 C 0.10972 0.52138 0.30187 0.0
C1611 C 0.12461 0.53818 0.28897 0.0
C1612 C 0.11322 0.50287 0.30699 0.0
C1613 C 0.13208 0.50105 0.29957 0.0
C1614 C 0.14619 0.5173 0.28601 0.0
H1615 H 0.19265 0.41994 0.34883 0.0
H1616 H 0.1845 0.45013 0.337 0.0
C1617 C 0.14245 0.53571 0.28075 0.0
C1618 C 0.13755 0.48271 0.30635 0.0
H1619 H 0.14953 0.45879 0.34271 0.0
C1620 C 0.13859 0.46852 0.29531 0.0
C1621 C 0.14221 0.47945 0.32359 0.0
C1622 C 0.14332 0.49507 0.33594 0.0
C1623 C 0.14365 0.45097 0.30106 0.0
C1624 C 0.14716 0.44704 0.31847 0.0
C1625 C 0.14654 0.4615 0.32942 0.0
C1626 C 0.15202 0.4284 0.32558 0.0
C1627 C 0.14579 0.43722 0.2883 0.0
C1628 C 0.13635 0.40594 0.32341 0.0
C1629 C 0.14108 0.38859 0.33008 0.0
C1630 C 0.16137 0.39323 0.33938 0.0
C1631 C 0.17676 0.41566 0.34186 0.0
C1632 C 0.17215 0.43301 0.33504 0.0
H1633 H 0.15002 0.44651 0.27529 0.0
H1634 H 0.15986 0.43244 0.29145 0.0
H1635 H 0.1285 0.42162 0.28824 0.0
H1636 H 0.12031 0.40175 0.31664 0.0
H1637 H 0.12873 0.37152 0.32803 0.0
H1638 H 0.39196 0.55806 0.29381 0.0
H1639 H 0.35454 0.52349 0.3027 0.0
H1640 H 0.39082 0.4844 0.2993 0.0
H1641 H 0.42848 0.51917 0.29104 0.0
H1642 H 0.32726 0.48639 0.28822 0.0
H1643 H 0.36054 0.46122 0.34671 0.0
H1644 H 0.377 0.4886 0.33449 0.0
H1645 H 0.378 0.46469 0.32791 0.0
C1646 C 0.39193 0.54208 0.29506 0.0
C1647 C 0.41323 0.54136 0.29197 0.0
C1648 C 0.37049 0.52227 0.30007 0.0
C1649 C 0.36976 0.50118 0.30214 0.0
C1650 C 0.39088 0.50039 0.29831 0.0
H1651 H 0.25654 0.36288 0.33077 0.0
H1652 H 0.294 0.3974 0.32172 0.0
C1653 C 0.41237 0.52025 0.29334 0.0
C1654 C 0.34694 0.4802 0.30825 0.0
H1655 H 0.32223 0.43469 0.33914 0.0
C1656 C 0.3262 0.47518 0.2994 0.0
C1657 C 0.34529 0.46543 0.32291 0.0
C1658 C 0.36631 0.47032 0.33367 0.0
C1659 C 0.30424 0.45576 0.30452 0.0
C1660 C 0.30268 0.44094 0.31908 0.0
C1661 C 0.32335 0.44595 0.32797 0.0
C1662 C 0.27989 0.41999 0.3251 0.0
C1663 C 0.28298 0.45101 0.29405 0.0
C1664 C 0.25939 0.42102 0.33025 0.0
C1665 C 0.23797 0.40126 0.3355 0.0
C1666 C 0.23662 0.37999 0.33597 0.0
C1667 C 0.2571 0.37901 0.33078 0.0
C1668 C 0.27854 0.39875 0.32561 0.0
H1669 H 0.28836 0.46087 0.28124 0.0
H1670 H 0.27278 0.43285 0.29266 0.0
H1671 H 0.2709 0.45565 0.3005 0.0
H1672 H 0.25993 0.43713 0.33021 0.0
H1673 H 0.22244 0.40269 0.33898 0.0
H1674 H 0.46562 0.82491 0.27025 0.0
H1675 H 0.5044 0.83263 0.28167 0.0
H1676 H 0.49887 0.87732 0.3134 0.0
H1677 H 0.46016 0.86935 0.3021 0.0
H1678 H 0.54701 0.87276 0.28272 0.0
H1679 H 0.50661 0.83143 0.34731 0.0
H1680 H 0.48899 0.82825 0.32904 0.0
H1681 H 0.49999 0.85338 0.33902 0.0
C1682 C 0.47295 0.83646 0.27957 0.0
C1683 C 0.46002 0.8462 0.28567 0.0
C1684 C 0.49493 0.84085 0.28608 0.0
C1685 C 0.50412 0.8551 0.29867 0.0
C1686 C 0.49174 0.86581 0.30404 0.0
H1687 H 0.64937 0.9034 0.33175 0.0
H1688 H 0.61181 0.90206 0.32301 0.0
C1689 C 0.46978 0.86132 0.2976 0.0
C1690 C 0.5264 0.85839 0.30647 0.0
H1691 H 0.54881 0.84984 0.34396 0.0
C1692 C 0.54748 0.86784 0.29611 0.0
C1693 C 0.52676 0.85168 0.32392 0.0
C1694 C 0.50436 0.84043 0.33547 0.0
C1695 C 0.56901 0.87076 0.30274 0.0
C1696 C 0.56945 0.86442 0.32024 0.0
C1697 C 0.54839 0.85499 0.33061 0.0
C1698 C 0.59123 0.86577 0.32767 0.0
C1699 C 0.59092 0.8799 0.29087 0.0
C1700 C 0.59169 0.8459 0.33387 0.0
C1701 C 0.61297 0.84666 0.3389 0.0
C1702 C 0.63401 0.86733 0.33809 0.0
C1703 C 0.63328 0.88729 0.3326 0.0
C1704 C 0.61196 0.88654 0.32755 0.0
H1705 H 0.5864 0.87955 0.27738 0.0
H1706 H 0.60318 0.89761 0.29268 0.0
H1707 H 0.60061 0.87011 0.29358 0.0
H1708 H 0.57584 0.82972 0.33404 0.0
H1709 H 0.61305 0.83099 0.34268 0.0
H1710 H 0.1081 0.59342 0.32018 0.0
H1711 H 0.1141 0.62711 0.33229 0.0
H1712 H 0.15909 0.66892 0.28829 0.0
H1713 H 0.15403 0.63528 0.27667 0.0
H1714 H 0.17786 0.68654 0.3162 0.0
H1715 H 0.08221 0.66444 0.31849 0.0
H1716 H 0.08778 0.64358 0.33041 0.0
H1717 H 0.09339 0.64912 0.30778 0.0
C1718 C 0.11947 0.60984 0.31324 0.0
C1719 C 0.1305 0.61178 0.29746 0.0
C1720 C 0.12264 0.62909 0.32004 0.0
C1721 C 0.13663 0.65064 0.31105 0.0
C1722 C 0.14807 0.65254 0.29544 0.0
H1723 H 0.13357 0.77345 0.32513 0.0
H1724 H 0.12857 0.73854 0.31619 0.0
C1725 C 0.14507 0.63334 0.28874 0.0
C1726 C 0.13949 0.67126 0.31783 0.0
H1727 H 0.10843 0.69641 0.33129 0.0
C1728 C 0.16266 0.68868 0.3195 0.0
C1729 C 0.1197 0.67429 0.32191 0.0
C1730 C 0.09438 0.65698 0.31941 0.0
C1731 C 0.1666 0.70892 0.32512 0.0
C1732 C 0.1468 0.71168 0.32968 0.0
C1733 C 0.12363 0.69427 0.32799 0.0
C1734 C 0.14968 0.73282 0.33554 0.0
C1735 C 0.19199 0.72741 0.32555 0.0
C1736 C 0.16294 0.74124 0.34958 0.0
C1737 C 0.16612 0.76146 0.35461 0.0
C1738 C 0.15568 0.77352 0.34595 0.0
C1739 C 0.14192 0.76473 0.33214 0.0
C1740 C 0.13897 0.74466 0.32702 0.0
H1741 H 0.20444 0.72522 0.31722 0.0
H1742 H 0.19349 0.7442 0.32155 0.0
H1743 H 0.19785 0.72705 0.33866 0.0
H1744 H 0.17095 0.73223 0.35665 0.0
H1745 H 0.17706 0.76775 0.36515 0.0
H1746 H 0.86436 0.09006 0.38981 0.0
H1747 H 0.83523 0.05573 0.37876 0.0
H1748 H 0.83489 0.01613 0.42518 0.0
H1749 H 0.86476 0.05039 0.43589 0.0
H1750 H 0.83515 0.99558 0.39865 0.0
H1751 H 0.76474 0.02089 0.39108 0.0
H1752 H 0.7922 0.04054 0.37939 0.0
H1753 H 0.79125 0.03627 0.40216 0.0
C1754 C 0.85821 0.07399 0.39756 0.0
C1755 C 0.86675 0.07297 0.41377 0.0
C1756 C 0.84128 0.05435 0.39133 0.0
C1757 C 0.83227 0.03319 0.40123 0.0
C1758 C 0.84127 0.03214 0.41728 0.0
H1759 H 0.70212 0.91091 0.38457 0.0
H1760 H 0.73247 0.94543 0.39444 0.0
C1761 C 0.85826 0.05176 0.42347 0.0
C1762 C 0.81369 0.01214 0.39488 0.0
H1763 H 0.75782 0.98787 0.37954 0.0
C1764 C 0.81825 0.99394 0.3945 0.0
C1765 C 0.79134 0.00962 0.38968 0.0
C1766 C 0.78443 0.02777 0.39074 0.0
C1767 C 0.8014 0.97362 0.38891 0.0
C1768 C 0.77939 0.9714 0.38314 0.0
C1769 C 0.77471 0.98949 0.38373 0.0
C1770 C 0.7608 0.95034 0.37682 0.0
C1771 C 0.80716 0.9545 0.38972 0.0
C1772 C 0.76625 0.9415 0.3634 0.0
C1773 C 0.74891 0.92158 0.35779 0.0
C1774 C 0.72544 0.91007 0.36523 0.0
C1775 C 0.71991 0.91918 0.37846 0.0
C1776 C 0.73731 0.93904 0.38413 0.0
H1777 H 0.82094 0.95636 0.3989 0.0
H1778 H 0.79099 0.93803 0.39339 0.0
H1779 H 0.81429 0.95439 0.37707 0.0
H1780 H 0.78398 0.95001 0.3572 0.0
H1781 H 0.75406 0.91508 0.34773 0.0
H1782 H 0.98399 0.85958 0.43758 0.0
H1783 H 0.01517 0.85298 0.4254 0.0
H1784 H 0.96271 0.80467 0.39632 0.0
H1785 H 0.9318 0.81146 0.40845 0.0
H1786 H 0.01888 0.81356 0.42484 0.0
H1787 H 0.01359 0.85085 0.36018 0.0
H1788 H 1.00032 0.85432 0.37881 0.0
H1789 H 0.98567 0.82848 0.36969 0.0
C1790 C 0.97929 0.84742 0.42874 0.0
C1791 C 0.9559 0.83632 0.4236 0.0
C1792 C 0.99695 0.84369 0.42177 0.0
C1793 C 0.99127 0.82877 0.40964 0.0
C1794 C 0.96753 0.81669 0.4053 0.0
H1795 H 0.08662 0.78177 0.37521 0.0
H1796 H 0.05056 0.78334 0.3836 0.0
C1797 C 0.94996 0.82047 0.41223 0.0
C1798 C 0.01025 0.82617 0.40129 0.0
H1799 H 0.03868 0.834 0.3629 0.0
C1800 C 0.02319 0.81796 0.41131 0.0
C1801 C 0.01595 0.83222 0.38365 0.0
C1802 C 0.00333 0.84216 0.37244 0.0
C1803 C 0.04169 0.81551 0.40412 0.0
C1804 C 0.04701 0.82106 0.38642 0.0
C1805 C 0.0342 0.82943 0.37641 0.0
C1806 C 0.0669 0.81958 0.37838 0.0
C1807 C 0.0558 0.80758 0.41558 0.0
C1808 C 0.08744 0.83933 0.37181 0.0
C1809 C 0.10793 0.83845 0.36697 0.0
C1810 C 0.10799 0.81777 0.36842 0.0
C1811 C 0.0869 0.79789 0.37392 0.0
C1812 C 0.0664 0.79877 0.37876 0.0
H1813 H 0.05272 0.80852 0.4291 0.0
H1814 H 0.05034 0.7898 0.4142 0.0
H1815 H 0.07523 0.81775 0.41207 0.0
H1816 H 0.08809 0.85554 0.37142 0.0
H1817 H 0.12399 0.85406 0.36311 0.0
H1818 H 0.17875 0.12141 0.42205 0.0
H1819 H 0.17557 0.15573 0.41378 0.0
H1820 H 0.25238 0.19484 0.40932 0.0
H1821 H 0.25546 0.16039 0.41755 0.0
H1822 H 0.19694 0.19929 0.42814 0.0
H1823 H 0.22805 0.20595 0.3615 0.0
H1824 H 0.21683 0.18017 0.37593 0.0
H1825 H 0.24623 0.20283 0.37782 0.0
C1826 C 0.19488 0.1374 0.41943 0.0
C1827 C 0.21733 0.13836 0.42029 0.0
C1828 C 0.19309 0.15697 0.41477 0.0
C1829 C 0.21373 0.17782 0.41073 0.0
C1830 C 0.23622 0.17891 0.41222 0.0
H1831 H 0.22054 0.31007 0.3879 0.0
H1832 H 0.22766 0.279 0.39946 0.0
C1833 C 0.23799 0.15933 0.41701 0.0
C1834 C 0.21161 0.19814 0.40423 0.0
H1835 H 0.21941 0.23417 0.36827 0.0
C1836 C 0.20201 0.20703 0.41509 0.0
C1837 C 0.21797 0.20805 0.38715 0.0
C1838 C 0.22771 0.19877 0.37482 0.0
C1839 C 0.19867 0.22562 0.40932 0.0
C1840 C 0.20509 0.23556 0.39224 0.0
C1841 C 0.21466 0.22663 0.38138 0.0
C1842 C 0.20103 0.2546 0.3852 0.0
C1843 C 0.18774 0.23419 0.42137 0.0
C1844 C 0.1839 0.25131 0.37319 0.0
C1845 C 0.17966 0.26897 0.36663 0.0
C1846 C 0.19274 0.29049 0.37172 0.0
C1847 C 0.21012 0.29379 0.38365 0.0
C1848 C 0.21419 0.27601 0.39033 0.0
H1849 H 0.1802 0.22248 0.43331 0.0
H1850 H 0.20163 0.25067 0.4246 0.0
H1851 H 0.17336 0.23677 0.41535 0.0
H1852 H 0.17352 0.23493 0.36906 0.0
H1853 H 0.16588 0.26558 0.35772 0.0
H1854 H 0.62142 0.47613 0.77397 0.0
H1855 H 0.66056 0.50922 0.7654 0.0
H1856 H 0.63107 0.526 0.72069 0.0
H1857 H 0.59213 0.49318 0.72935 0.0
H1858 H 0.67384 0.52572 0.71355 0.0
H1859 H 0.68385 0.57676 0.76546 0.0
H1860 H 0.67751 0.54828 0.77209 0.0
H1861 H 0.65552 0.55359 0.76141 0.0
C1862 C 0.62325 0.48723 0.76254 0.0
C1863 C 0.60373 0.48207 0.75232 0.0
C1864 C 0.64563 0.50611 0.75759 0.0
C1865 C 0.64892 0.52028 0.74235 0.0
C1866 C 0.62917 0.5154 0.73243 0.0
H1867 H 0.7638 0.65447 0.70888 0.0
H1868 H 0.72644 0.62037 0.71834 0.0
C1869 C 0.60688 0.49665 0.7374 0.0
C1870 C 0.67296 0.53964 0.73626 0.0
H1871 H 0.71658 0.59057 0.74553 0.0
C1872 C 0.68322 0.53988 0.72058 0.0
C1873 C 0.68527 0.55824 0.74531 0.0
C1874 C 0.67498 0.55943 0.76194 0.0
C1875 C 0.70516 0.55811 0.71369 0.0
C1876 C 0.71752 0.57678 0.72272 0.0
C1877 C 0.70731 0.5764 0.7385 0.0
C1878 C 0.74032 0.59738 0.71579 0.0
C1879 C 0.71438 0.55745 0.69649 0.0
C1880 C 0.76087 0.59616 0.7109 0.0
C1881 C 0.78232 0.6158 0.70524 0.0
C1882 C 0.78375 0.63714 0.70438 0.0
C1883 C 0.76322 0.63829 0.70919 0.0
C1884 C 0.74183 0.61875 0.71471 0.0
H1885 H 0.70006 0.5452 0.68936 0.0
H1886 H 0.72226 0.57425 0.68889 0.0
H1887 H 0.72847 0.55235 0.69802 0.0
H1888 H 0.76059 0.58008 0.71195 0.0
H1889 H 0.79794 0.61432 0.70207 0.0
H1890 H 0.53974 0.14467 0.7461 0.0
H1891 H 0.50477 0.14131 0.73105 0.0
H1892 H 0.52945 0.21216 0.73143 0.0
H1893 H 0.56455 0.21538 0.74664 0.0
H1894 H 0.47279 0.15568 0.74695 0.0
H1895 H 0.50803 0.19708 0.68124 0.0
H1896 H 0.52269 0.18474 0.69475 0.0
H1897 H 0.52459 0.21091 0.69856 0.0
C1898 C 0.53771 0.15949 0.74271 0.0
C1899 C 0.55439 0.18022 0.74747 0.0
C1900 C 0.51794 0.15762 0.73411 0.0
C1901 C 0.51477 0.17653 0.73005 0.0
C1902 C 0.5319 0.19749 0.73428 0.0
H1903 H 0.40109 0.1997 0.6957 0.0
H1904 H 0.43937 0.20164 0.70146 0.0
C1905 C 0.55172 0.19933 0.74298 0.0
C1906 C 0.49214 0.1736 0.72324 0.0
H1907 H 0.4673 0.18519 0.68808 0.0
C1908 C 0.47148 0.16198 0.73405 0.0
C1909 C 0.49077 0.18199 0.70647 0.0
C1910 C 0.51263 0.19431 0.69446 0.0
C1911 C 0.44937 0.15892 0.72864 0.0
C1912 C 0.44786 0.16715 0.7118 0.0
C1913 C 0.46855 0.17867 0.70092 0.0
C1914 C 0.42527 0.16556 0.70581 0.0
C1915 C 0.42804 0.14768 0.74123 0.0
C1916 C 0.40477 0.1446 0.70588 0.0
C1917 C 0.38273 0.14347 0.7026 0.0
C1918 C 0.38112 0.16327 0.69871 0.0
C1919 C 0.40183 0.18418 0.69808 0.0
C1920 C 0.42377 0.18531 0.70146 0.0
H1921 H 0.43341 0.14709 0.75448 0.0
H1922 H 0.41728 0.15659 0.74007 0.0
H1923 H 0.41649 0.13013 0.7387 0.0
H1924 H 0.4057 0.12916 0.70903 0.0
H1925 H 0.3669 0.12718 0.7033 0.0
H1926 H 0.84121 0.38323 0.74738 0.0
H1927 H 0.83396 0.34807 0.73691 0.0
H1928 H 0.90988 0.37183 0.7328 0.0
H1929 H 0.91702 0.40699 0.74308 0.0
H1930 H 0.88506 0.3517 0.7042 0.0
H1931 H 0.84267 0.29754 0.76507 0.0
H1932 H 0.82993 0.31494 0.75686 0.0
H1933 H 0.85996 0.32778 0.76356 0.0
C1934 C 0.85626 0.38092 0.74408 0.0
C1935 C 0.87965 0.39768 0.74607 0.0
C1936 C 0.85215 0.36082 0.73825 0.0
C1937 C 0.87137 0.35716 0.73428 0.0
C1938 C 0.89477 0.3742 0.73585 0.0
H1939 H 0.87146 0.23194 0.72258 0.0
H1940 H 0.87807 0.2677 0.73106 0.0
C1941 C 0.89885 0.39421 0.74176 0.0
C1942 C 0.8672 0.33555 0.72866 0.0
H1943 H 0.84324 0.27915 0.74181 0.0
C1944 C 0.87587 0.33582 0.7124 0.0
C1945 C 0.85548 0.31487 0.73944 0.0
C1946 C 0.84661 0.31364 0.75727 0.0
C1947 C 0.8729 0.31598 0.70658 0.0
C1948 C 0.86081 0.29525 0.71726 0.0
C1949 C 0.85237 0.29501 0.73358 0.0
C1950 C 0.85701 0.27365 0.71182 0.0
C1951 C 0.88312 0.31741 0.68916 0.0
C1952 C 0.84278 0.26493 0.69827 0.0
C1953 C 0.83886 0.2444 0.69342 0.0
C1954 C 0.84916 0.23212 0.70197 0.0
C1955 C 0.86333 0.2409 0.71561 0.0
C1956 C 0.86713 0.26138 0.7205 0.0
H1957 H 0.89644 0.33493 0.68413 0.0
H1958 H 0.89175 0.30659 0.68933 0.0
H1959 H 0.86847 0.31138 0.68035 0.0
H1960 H 0.83436 0.27382 0.69159 0.0
H1961 H 0.82738 0.238 0.68315 0.0
H1962 H 0.1489 0.97254 0.60847 0.0
H1963 H 0.17833 0.00774 0.61822 0.0
H1964 H 0.18234 0.97036 0.66453 0.0
H1965 H 0.15366 0.93507 0.65436 0.0
H1966 H 0.17874 0.02882 0.64424 0.0
H1967 H 0.25203 0.00722 0.65042 0.0
H1968 H 0.22506 0.99051 0.64024 0.0
H1969 H 0.22548 0.98734 0.66297 0.0
C1970 C 0.15623 0.97186 0.62067 0.0
C1971 C 0.1491 0.951 0.63057 0.0
C1972 C 0.17299 0.99202 0.6263 0.0
C1973 C 0.18312 0.9919 0.64202 0.0
C1974 C 0.17542 0.97106 0.65217 0.0
H1975 H 0.2606 0.11371 0.69167 0.0
H1976 H 0.23112 0.07779 0.68338 0.0
C1977 C 0.15873 0.95086 0.64648 0.0
C1978 C 0.2015 0.01359 0.64771 0.0
H1979 H 0.25832 0.04051 0.66123 0.0
C1980 C 0.19613 0.03132 0.64794 0.0
C1981 C 0.22449 0.01725 0.6523 0.0
C1982 C 0.23225 0.99967 0.65132 0.0
C1983 C 0.21279 0.05227 0.65274 0.0
C1984 C 0.23546 0.05565 0.65791 0.0
C1985 C 0.24094 0.03801 0.65749 0.0
C1986 C 0.25387 0.07741 0.66347 0.0
C1987 C 0.20607 0.07079 0.65174 0.0
C1988 C 0.27703 0.0891 0.65558 0.0
C1989 C 0.29423 0.10957 0.66059 0.0
C1990 C 0.28882 0.11892 0.67372 0.0
C1991 C 0.26568 0.10707 0.68169 0.0
C1992 C 0.24856 0.08655 0.67675 0.0
H1993 H 0.19168 0.06797 0.64289 0.0
H1994 H 0.19934 0.07118 0.66445 0.0
H1995 H 0.22169 0.08746 0.64752 0.0
H1996 H 0.28176 0.08252 0.64535 0.0
H1997 H 0.31178 0.11808 0.6541 0.0
H1998 H 0.02842 0.13306 0.63059 0.0
H1999 H 0.99513 0.13231 0.64678 0.0
H2000 H 0.02896 0.20476 0.6373 0.0
H2001 H 0.0623 0.20539 0.6216 0.0
H2002 H 0.01117 0.18671 0.67124 0.0
H2003 H 0.94393 0.14528 0.62447 0.0
H2004 H 0.95983 0.13079 0.63266 0.0
H2005 H 0.97562 0.15747 0.61963 0.0
C2006 C 0.02852 0.14869 0.63203 0.0
C2007 C 0.04743 0.16924 0.62476 0.0
C2008 C 0.00964 0.1483 0.64119 0.0
C2009 C 0.00956 0.16849 0.64304 0.0
C2010 C 0.02872 0.18903 0.63597 0.0
H2011 H 0.9187 0.21869 0.67388 0.0
H2012 H 0.95309 0.21312 0.66801 0.0
C2013 C 0.04753 0.18939 0.62689 0.0
C2014 C 0.98929 0.16846 0.6519 0.0
H2015 H 0.93082 0.15473 0.64821 0.0
C2016 C 0.99351 0.17957 0.66632 0.0
C2017 C 0.96636 0.1591 0.6454 0.0
C2018 C 0.96107 0.14762 0.62962 0.0
C2019 C 0.97539 0.18188 0.67429 0.0
C2020 C 0.95271 0.17311 0.66748 0.0
C2021 C 0.9483 0.1614 0.65338 0.0
C2022 C 0.93349 0.17687 0.67401 0.0
C2023 C 0.98059 0.19367 0.68988 0.0
C2024 C 0.91126 0.15839 0.67936 0.0
C2025 C 0.8917 0.16154 0.68246 0.0
C2026 C 0.89407 0.18325 0.68053 0.0
C2027 C 0.91655 0.20182 0.67575 0.0
C2028 C 0.93618 0.19867 0.67254 0.0
H2029 H 0.99654 0.19424 0.69596 0.0
H2030 H 0.9841 0.21122 0.68628 0.0
H2031 H 0.96506 0.18516 0.69925 0.0
H2032 H 0.90879 0.14143 0.68035 0.0
H2033 H 0.87462 0.14684 0.68555 0.0
H2034 H 0.77086 0.86139 0.64489 0.0
H2035 H 0.77735 0.8291 0.65323 0.0
H2036 H 0.82019 0.84492 0.60686 0.0
H2037 H 0.81483 0.87813 0.59907 0.0
H2038 H 0.76784 0.79186 0.64132 0.0
H2039 H 0.86629 0.8435 0.64037 0.0
H2040 H 0.84681 0.85585 0.63797 0.0
H2041 H 0.85445 0.84586 0.62023 0.0
C2042 C 0.7817 0.85795 0.63652 0.0
C2043 C 0.79269 0.87245 0.62149 0.0
C2044 C 0.78531 0.83942 0.64123 0.0
C2045 C 0.79984 0.83481 0.63093 0.0
C2046 C 0.80955 0.84846 0.61532 0.0
H2047 H 0.8054 0.70796 0.65197 0.0
H2048 H 0.79709 0.73798 0.64009 0.0
C2049 C 0.80616 0.86722 0.61071 0.0
C2050 C 0.80511 0.81606 0.63687 0.0
H2051 H 0.85065 0.80404 0.64553 0.0
C2052 C 0.78597 0.79455 0.64222 0.0
C2053 C 0.82876 0.81954 0.63839 0.0
C2054 C 0.85026 0.84247 0.63411 0.0
C2055 C 0.78974 0.77656 0.64903 0.0
C2056 C 0.81338 0.77986 0.65004 0.0
C2057 C 0.83252 0.80136 0.64465 0.0
C2058 C 0.81873 0.76151 0.65707 0.0
C2059 C 0.76829 0.75446 0.65565 0.0
C2060 C 0.83452 0.76486 0.67014 0.0
C2061 C 0.83979 0.74784 0.67671 0.0
C2062 C 0.82919 0.7269 0.67054 0.0
C2063 C 0.81366 0.72369 0.65728 0.0
C2064 C 0.80868 0.74084 0.65053 0.0
H2065 H 0.75268 0.75671 0.65879 0.0
H2066 H 0.76313 0.74306 0.64575 0.0
H2067 H 0.77224 0.7462 0.66714 0.0
H2068 H 0.84278 0.78069 0.67532 0.0
H2069 H 0.85234 0.75124 0.68655 0.0
H2070 H 0.09696 0.85505 0.63268 0.0
H2071 H 0.05925 0.82042 0.64145 0.0
H2072 H 0.02001 0.85626 0.62793 0.0
H2073 H 0.05776 0.89063 0.61891 0.0
H2074 H 0.02629 0.81279 0.66653 0.0
H2075 H 0.98218 0.80022 0.60568 0.0
H2076 H 0.01354 0.81942 0.60688 0.0
H2077 H 0.9915 0.82757 0.61176 0.0
C2078 C 0.08018 0.85526 0.63125 0.0
C2079 C 0.08013 0.8753 0.62487 0.0
C2080 C 0.05864 0.83556 0.63637 0.0
C2081 C 0.03654 0.83545 0.63518 0.0
C2082 C 0.03659 0.85557 0.62864 0.0
H2083 H 0.89043 0.73647 0.67454 0.0
H2084 H 0.92773 0.77131 0.66573 0.0
C2085 C 0.05814 0.87524 0.62351 0.0
C2086 C 0.01369 0.8147 0.6416 0.0
H2087 H 0.95801 0.77751 0.63034 0.0
C2088 C 0.01149 0.80501 0.65853 0.0
C2089 C 0.99409 0.8045 0.63131 0.0
C2090 C 0.99544 0.81331 0.61286 0.0
C2091 C 0.9904 0.78572 0.66539 0.0
C2092 C 0.97083 0.77566 0.65516 0.0
C2093 C 0.97292 0.78529 0.63825 0.0
C2094 C 0.94844 0.75462 0.6616 0.0
C2095 C 0.98875 0.77661 0.68376 0.0
C2096 C 0.9476 0.73358 0.66238 0.0
C2097 C 0.92631 0.71365 0.66745 0.0
C2098 C 0.90537 0.71422 0.67209 0.0
C2099 C 0.90629 0.73534 0.67148 0.0
C2100 C 0.9276 0.75532 0.6663 0.0
H2101 H 0.00585 0.78561 0.6899 0.0
H2102 H 0.97472 0.7784 0.69053 0.0
H2103 H 0.98347 0.75844 0.68506 0.0
H2104 H 0.96335 0.73254 0.65873 0.0
H2105 H 0.92613 0.69767 0.66755 0.0
H2106 H 0.13018 0.15648 0.60538 0.0
H2107 H 0.16861 0.16355 0.61712 0.0
H2108 H 0.17049 0.21804 0.64089 0.0
H2109 H 0.1321 0.2108 0.62915 0.0
H2110 H 0.21453 0.20442 0.61473 0.0
H2111 H 0.1731 0.17323 0.68029 0.0
H2112 H 0.15572 0.1676 0.66179 0.0
H2113 H 0.16792 0.19474 0.66891 0.0
C2114 C 0.1392 0.17018 0.61284 0.0
C2115 C 0.12861 0.18317 0.61648 0.0
C2116 C 0.16093 0.17416 0.61957 0.0
C2117 C 0.17206 0.19107 0.63007 0.0
C2118 C 0.16194 0.20472 0.63302 0.0
H2119 H 0.31524 0.2373 0.66558 0.0
H2120 H 0.27802 0.23617 0.65623 0.0
C2121 C 0.14027 0.20074 0.62627 0.0
C2122 C 0.19381 0.19388 0.63843 0.0
H2123 H 0.21495 0.18785 0.67707 0.0
C2124 C 0.21471 0.20092 0.62835 0.0
C2125 C 0.19374 0.18901 0.65619 0.0
C2126 C 0.1714 0.18054 0.66748 0.0
C2127 C 0.23571 0.20332 0.6356 0.0
C2128 C 0.23574 0.19876 0.65338 0.0
C2129 C 0.21482 0.19161 0.66347 0.0
C2130 C 0.25704 0.19997 0.6615 0.0
C2131 C 0.25756 0.21014 0.62419 0.0
C2132 C 0.25713 0.18008 0.66816 0.0
C2133 C 0.27828 0.1807 0.67343 0.0
C2134 C 0.29949 0.20127 0.67242 0.0
C2135 C 0.29903 0.22128 0.6666 0.0
C2136 C 0.27789 0.22065 0.66124 0.0
H2137 H 0.25334 0.20918 0.61067 0.0
H2138 H 0.27097 0.22773 0.62547 0.0
H2139 H 0.26579 0.19925 0.62789 0.0
H2140 H 0.24116 0.16397 0.6684 0.0
H2141 H 0.27816 0.16498 0.67747 0.0
H2142 H 0.7759 0.92791 0.65141 0.0
H2143 H 0.78095 0.96139 0.66336 0.0
H2144 H 0.82593 1.00358 0.61946 0.0
H2145 H 0.82173 0.97012 0.60795 0.0
H2146 H 0.84416 0.02115 0.64781 0.0
H2147 H 0.74824 0.99799 0.64895 0.0
H2148 H 0.75383 0.97713 0.66085 0.0
H2149 H 0.76006 0.98314 0.63827 0.0
C2150 C 0.78704 0.94437 0.64444 0.0
C2151 C 0.79831 0.94646 0.62872 0.0
C2152 C 0.78968 0.96349 0.65115 0.0
C2153 C 0.8034 0.98507 0.64216 0.0
C2154 C 0.81509 0.98716 0.6266 0.0
H2155 H 0.79882 0.10697 0.65788 0.0
H2156 H 0.79428 0.07258 0.64815 0.0
C2157 C 0.81258 0.96806 0.61997 0.0
C2158 C 0.80576 1.0055 0.64894 0.0
H2159 H 0.77367 0.02964 0.66246 0.0
C2160 C 0.82873 0.023 0.65099 0.0
C2161 C 0.78568 0.00815 0.65288 0.0
C2162 C 0.76058 0.99072 0.64998 0.0
C2163 C 0.83217 0.0429 0.65695 0.0
C2164 C 0.81206 0.04523 0.66142 0.0
C2165 C 0.7891 0.0278 0.65925 0.0
C2166 C 0.81444 0.0659 0.66779 0.0
C2167 C 0.85738 0.0615 0.65791 0.0
C2168 C 0.82692 0.07351 0.68228 0.0
C2169 C 0.82977 0.09337 0.6878 0.0
C2170 C 0.81983 0.10589 0.67915 0.0
C2171 C 0.80677 0.09786 0.6649 0.0
C2172 C 0.8041 0.07812 0.65931 0.0
H2173 H 0.87023 0.05977 0.64964 0.0
H2174 H 0.85873 0.07828 0.65417 0.0
H2175 H 0.86282 0.06075 0.67112 0.0
H2176 H 0.83461 0.06418 0.6893 0.0
H2177 H 0.84015 0.09906 0.69869 0.0
H2178 H 0.53316 0.38454 0.76716 0.0
H2179 H 0.50348 0.35036 0.75638 0.0
H2180 H 0.50072 0.39043 0.71124 0.0
H2181 H 0.52973 0.42475 0.72246 0.0
H2182 H 0.45664 0.35924 0.72255 0.0
H2183 H 0.51208 0.31709 0.72115 0.0
H2184 H 0.50956 0.32402 0.74181 0.0
H2185 H 0.52443 0.34615 0.72449 0.0
C2186 C 0.52619 0.38602 0.75495 0.0
C2187 C 0.53384 0.40735 0.74565 0.0
C2188 C 0.50939 0.36642 0.74867 0.0
C2189 C 0.50001 0.36756 0.73278 0.0
C2190 C 0.50769 0.38892 0.72346 0.0
H2191 H 0.41937 0.24902 0.68076 0.0
H2192 H 0.44929 0.28449 0.68948 0.0
C2193 C 0.52443 0.40856 0.7298 0.0
C2194 C 0.48171 0.34661 0.72618 0.0
H2195 H 0.47036 0.29429 0.71811 0.0
C2196 C 0.45975 0.34511 0.7215 0.0
C2197 C 0.48566 0.32813 0.72448 0.0
C2198 C 0.5093 0.32897 0.72807 0.0
C2199 C 0.44163 0.32568 0.71559 0.0
C2200 C 0.44517 0.30681 0.71466 0.0
C2201 C 0.46733 0.3085 0.71899 0.0
C2202 C 0.42637 0.2853 0.70904 0.0
C2203 C 0.41907 0.32585 0.71006 0.0
C2204 C 0.40332 0.27351 0.71711 0.0
C2205 C 0.38593 0.25328 0.71191 0.0
C2206 C 0.39115 0.24408 0.6986 0.0
C2207 C 0.41436 0.25571 0.69075 0.0
C2208 C 0.43167 0.27601 0.69586 0.0
H2209 H 0.42205 0.34328 0.70654 0.0
H2210 H 0.41205 0.31642 0.69908 0.0
H2211 H 0.40526 0.31782 0.72069 0.0
H2212 H 0.3988 0.27979 0.72764 0.0
H2213 H 0.36842 0.24478 0.71846 0.0
H2214 H 0.60171 0.13548 0.75926 0.0
H2215 H 0.63412 0.12991 0.74812 0.0
H2216 H 0.68238 0.20105 0.74599 0.0
H2217 H 0.65008 0.20633 0.75755 0.0
H2218 H 0.65799 0.1497 0.71669 0.0
H2219 H 0.7216 0.17342 0.76774 0.0
H2220 H 0.69086 0.16691 0.77103 0.0
H2221 H 0.71265 0.19421 0.76098 0.0
C2222 C 0.6195 0.14967 0.75693 0.0
C2223 C 0.62377 0.17125 0.7594 0.0
C2224 C 0.63785 0.14658 0.75043 0.0
C2225 C 0.66066 0.16505 0.74637 0.0
C2226 C 0.66505 0.18652 0.74935 0.0
H2227 H 0.79213 0.18916 0.69743 0.0
H2228 H 0.75735 0.19243 0.70585 0.0
C2229 C 0.64671 0.18956 0.7559 0.0
C2230 C 0.67942 0.16224 0.73787 0.0
H2231 H 0.73653 0.17117 0.74104 0.0
C2232 C 0.6751 0.15419 0.72206 0.0
C2233 C 0.70171 0.16822 0.74491 0.0
C2234 C 0.70695 0.17597 0.76217 0.0
C2235 C 0.69274 0.15238 0.71296 0.0
C2236 C 0.71508 0.1587 0.71991 0.0
C2237 C 0.71936 0.16659 0.73573 0.0
C2238 C 0.73417 0.15655 0.71137 0.0
C2239 C 0.6877 0.14415 0.69586 0.0
C2240 C 0.7323 0.13525 0.7112 0.0
C2241 C 0.75218 0.13335 0.70637 0.0
C2242 C 0.77406 0.1527 0.70151 0.0
C2243 C 0.77545 0.17396 0.70073 0.0
C2244 C 0.75561 0.17586 0.70564 0.0
H2245 H 0.67091 0.14323 0.69109 0.0
H2246 H 0.70272 0.1554 0.68651 0.0
H2247 H 0.68608 0.12711 0.69683 0.0
H2248 H 0.71593 0.12019 0.71582 0.0
H2249 H 0.75083 0.11681 0.70726 0.0
H2250 H 0.92017 0.49275 0.75021 0.0
H2251 H 0.91565 0.52632 0.74195 0.0
H2252 H 0.83913 0.48578 0.74995 0.0
H2253 H 0.84385 0.4522 0.75749 0.0
H2254 H 0.84876 0.51105 0.72135 0.0
H2255 H 0.90273 0.56595 0.76799 0.0
H2256 H 0.91993 0.55725 0.75611 0.0
H2257 H 0.89482 0.53661 0.76982 0.0
C2258 C 0.90249 0.49124 0.75046 0.0
C2259 C 0.88235 0.47007 0.75452 0.0
C2260 C 0.89987 0.5104 0.74584 0.0
C2261 C 0.87703 0.50881 0.74555 0.0
C2262 C 0.85694 0.48759 0.75007 0.0
H2263 H 0.85191 0.62535 0.73137 0.0
H2264 H 0.85693 0.59306 0.74311 0.0
C2265 C 0.85959 0.46843 0.75444 0.0
C2266 C 0.87389 0.52879 0.73941 0.0
H2267 H 0.89266 0.58387 0.74405 0.0
C2268 C 0.85825 0.5269 0.72645 0.0
C2269 C 0.88593 0.5495 0.74614 0.0
C2270 C 0.90158 0.5524 0.7609 0.0
C2271 C 0.85463 0.54503 0.71988 0.0
C2272 C 0.86765 0.56609 0.72595 0.0
C2273 C 0.88293 0.5679 0.73915 0.0
C2274 C 0.86548 0.5863 0.71888 0.0
C2275 C 0.83639 0.54116 0.70674 0.0
C2276 C 0.86923 0.59379 0.7014 0.0
C2277 C 0.86606 0.61204 0.69468 0.0
C2278 C 0.85956 0.62356 0.70529 0.0
C2279 C 0.8569 0.61678 0.72285 0.0
C2280 C 0.85973 0.59829 0.72957 0.0
H2281 H 0.82286 0.5231 0.70757 0.0
H2282 H 0.82697 0.55104 0.70817 0.0
H2283 H 0.84552 0.54634 0.69393 0.0
H2284 H 0.8746 0.5855 0.69289 0.0
H2285 H 0.86911 0.61735 0.68122 0.0
H2286 H 0.43462 0.83667 0.23344 0.0
H2287 H 0.45775 0.86448 0.20909 0.0
H2288 H 0.48823 0.91588 0.24215 0.0
H2289 H 0.46458 0.88812 0.26631 0.0
H2290 H 0.46595 0.92628 0.21594 0.0
H2291 H 0.5278 0.89896 0.19152 0.0
H2292 H 0.49737 0.87695 0.19472 0.0
H2293 H 0.51355 0.88915 0.2126 0.0
C2294 C 0.44685 0.85379 0.23545 0.0
C2295 C 0.44815 0.86038 0.25161 0.0
C2296 C 0.4601 0.86962 0.22162 0.0
C2297 C 0.47491 0.89221 0.22384 0.0
C2298 C 0.47707 0.89851 0.24019 0.0
H2299 H 0.55905 1.00195 0.14357 0.0
H2300 H 0.54667 0.97475 0.16936 0.0
C2301 C 0.46377 0.88269 0.25397 0.0
C2302 C 0.4855 0.9097 0.20896 0.0
H2303 H 0.52148 0.92564 0.17286 0.0
C2304 C 0.4783 0.92628 0.20663 0.0
C2305 C 0.50167 0.90971 0.19685 0.0
C2306 C 0.51076 0.89287 0.19909 0.0
C2307 C 0.48631 0.94251 0.19229 0.0
C2308 C 0.50167 0.94196 0.17984 0.0
C2309 C 0.5095 0.92584 0.18237 0.0
C2310 C 0.50934 0.95781 0.16398 0.0
C2311 C 0.47822 0.96011 0.19056 0.0
C2312 C 0.49246 0.95703 0.15237 0.0
C2313 C 0.49941 0.97254 0.13772 0.0
C2314 C 0.52342 0.98911 0.13438 0.0
C2315 C 0.54037 0.98959 0.14591 0.0
C2316 C 0.53339 0.97398 0.16056 0.0
H2317 H 0.4714 0.96161 0.20289 0.0
H2318 H 0.49305 0.97681 0.18529 0.0
H2319 H 0.46357 0.95536 0.18174 0.0
H2320 H 0.47384 0.9445 0.15472 0.0
H2321 H 0.4859 0.97182 0.12916 0.0
H2322 H 0.13758 0.58589 0.23994 0.0
H2323 H 0.11969 0.57248 0.21358 0.0
H2324 H 0.06567 0.5112 0.24206 0.0
H2325 H 0.08283 0.52548 0.26856 0.0
H2326 H 0.1093 0.53917 0.19616 0.0
H2327 H 0.02422 0.53345 0.21892 0.0
H2328 H 0.05082 0.5452 0.23053 0.0
H2329 H 0.03254 0.51516 0.23175 0.0
C2330 C 0.12203 0.56946 0.2405 0.0
C2331 C 0.11129 0.55691 0.25624 0.0
C2332 C 0.11183 0.56173 0.22544 0.0
C2333 C 0.09079 0.5411 0.22577 0.0
C2334 C 0.08139 0.52752 0.24145 0.0
H2335 H 0.03016 0.49445 0.12861 0.0
H2336 H 0.05144 0.49899 0.15485 0.0
C2337 C 0.09141 0.53547 0.25658 0.0
C2338 C 0.07806 0.53491 0.20984 0.0
H2339 H 0.02521 0.52313 0.19195 0.0
C2340 C 0.09087 0.53556 0.19526 0.0
C2341 C 0.0541 0.53059 0.2085 0.0
C2342 C 0.03966 0.53126 0.22319 0.0
C2343 C 0.08063 0.53246 0.17942 0.0
C2344 C 0.05656 0.5278 0.17816 0.0
C2345 C 0.04362 0.52662 0.19283 0.0
C2346 C 0.04466 0.52537 0.16173 0.0
C2347 C 0.09611 0.53525 0.1641 0.0
C2348 C 0.03332 0.53831 0.15688 0.0
C2349 C 0.02073 0.53532 0.14215 0.0
C2350 C 0.01938 0.51953 0.13176 0.0
C2351 C 0.03118 0.50695 0.13629 0.0
C2352 C 0.04345 0.50963 0.15126 0.0
H2353 H 0.11541 0.54506 0.16628 0.0
H2354 H 0.09262 0.51843 0.16132 0.0
H2355 H 0.09217 0.54385 0.15281 0.0
H2356 H 0.03397 0.55061 0.16462 0.0
H2357 H 0.01187 0.5453 0.13893 0.0
H2358 H 0.48002 0.54987 0.2679 0.0
H2359 H 0.48182 0.53594 0.24122 0.0
H2360 H 0.42017 0.54213 0.22561 0.0
H2361 H 0.41899 0.55681 0.25225 0.0
H2362 H 0.45225 0.50091 0.22525 0.0
H2363 H 0.46817 0.58067 0.18679 0.0
H2364 H 0.46889 0.57788 0.20955 0.0
H2365 H 0.44078 0.56654 0.19974 0.0
C2366 C 0.46669 0.54794 0.25883 0.0
C2367 C 0.4495 0.55454 0.262 0.0
C2368 C 0.46771 0.54 0.24358 0.0
C2369 C 0.45153 0.5385 0.23111 0.0
C2370 C 0.43328 0.54369 0.23477 0.0
H2371 H 0.45601 0.50032 0.12867 0.0
H2372 H 0.44203 0.50931 0.154 0.0
C2373 C 0.43234 0.55173 0.25008 0.0
C2374 C 0.45462 0.5323 0.21422 0.0
H2375 H 0.46776 0.55253 0.17199 0.0
C2376 C 0.4554 0.51214 0.21362 0.0
C2377 C 0.45886 0.54693 0.19892 0.0
C2378 C 0.45936 0.56931 0.1987 0.0
C2379 C 0.46072 0.50647 0.19835 0.0
C2380 C 0.46553 0.52133 0.18319 0.0
C2381 C 0.46396 0.54111 0.18361 0.0
C2382 C 0.47426 0.51744 0.16722 0.0
C2383 C 0.46162 0.48475 0.19854 0.0
C2384 C 0.49726 0.51972 0.16601 0.0
C2385 C 0.50537 0.5149 0.15156 0.0
C2386 C 0.49064 0.50745 0.13791 0.0
C2387 C 0.46789 0.50605 0.13886 0.0
C2388 C 0.45981 0.51105 0.15338 0.0
H2389 H 0.45266 0.47299 0.21026 0.0
H2390 H 0.45306 0.4763 0.1874 0.0
H2391 H 0.48056 0.48845 0.19786 0.0
H2392 H 0.50888 0.52499 0.17639 0.0
H2393 H 0.5232 0.51676 0.15118 0.0
H2394 H 0.94316 0.46203 0.77724 0.0
H2395 H 0.9601 0.47776 0.80325 0.0
H2396 H 0.89329 0.47432 0.81798 0.0
H2397 H 0.87614 0.45778 0.7921 0.0
H2398 H 0.96706 0.51489 0.81718 0.0
H2399 H 0.90245 0.43745 0.85828 0.0
H2400 H 0.9055 0.43857 0.83563 0.0
H2401 H 0.88935 0.45086 0.84452 0.0
C2402 C 0.93224 0.46485 0.786 0.0
C2403 C 0.90833 0.45851 0.78285 0.0
C2404 C 0.94189 0.47386 0.80083 0.0
C2405 C 0.92782 0.47674 0.81281 0.0
C2406 C 0.90433 0.47173 0.80915 0.0
H2407 H 0.97386 0.52013 0.91334 0.0
H2408 H 0.9504 0.51046 0.88816 0.0
C2409 C 0.89463 0.4626 0.7943 0.0
C2410 C 0.93774 0.48413 0.8293 0.0
H2411 H 0.93159 0.46654 0.87191 0.0
C2412 C 0.95914 0.5044 0.82915 0.0
C2413 C 0.92746 0.47043 0.84497 0.0
C2414 C 0.90504 0.44802 0.84595 0.0
C2415 C 0.97079 0.51106 0.84411 0.0
C2416 C 0.96089 0.49707 0.85964 0.0
C2417 C 0.93906 0.47725 0.85996 0.0
C2418 C 0.97413 0.50186 0.87534 0.0
C2419 C 0.9939 0.53285 0.84318 0.0
C2420 C 0.9948 0.49961 0.87666 0.0
C2421 C 0.00802 0.5048 0.89105 0.0
C2422 C 1.00099 0.51256 0.90446 0.0
C2423 C 0.97977 0.51413 0.90333 0.0
C2424 C 0.96642 0.50875 0.88891 0.0
H2425 H 0.99645 0.54398 0.83116 0.0
H2426 H 0.99448 0.54199 0.85399 0.0
H2427 H 0.00905 0.52912 0.84392 0.0
H2428 H 1.00082 0.49394 0.86647 0.0
H2429 H 0.02387 0.5028 0.8916 0.0
H2430 H 0.57051 0.43602 0.80192 0.0
H2431 H 0.56574 0.44902 0.82827 0.0
H2432 H 0.56949 0.50845 0.79967 0.0
H2433 H 0.57291 0.49458 0.77316 0.0
H2434 H 0.58777 0.48255 0.84562 0.0
H2435 H 0.50576 0.48381 0.82367 0.0
H2436 H 0.52124 0.47313 0.81188 0.0
H2437 H 0.53206 0.50297 0.81061 0.0
C2438 C 0.57071 0.45205 0.80132 0.0
C2439 C 0.57174 0.46414 0.78553 0.0
C2440 C 0.56796 0.4595 0.8164 0.0
C2441 C 0.56641 0.47942 0.81609 0.0
C2442 C 0.56975 0.49263 0.80032 0.0
H2443 H 0.55304 0.52621 0.91322 0.0
H2444 H 0.56958 0.52143 0.88713 0.0
C2445 C 0.57216 0.48495 0.78516 0.0
C2446 C 0.55971 0.4852 0.83216 0.0
H2447 H 0.51762 0.49485 0.85049 0.0
C2448 C 0.57247 0.48533 0.84665 0.0
C2449 C 0.53946 0.48843 0.83374 0.0
C2450 C 0.52368 0.48687 0.81922 0.0
C2451 C 0.56543 0.48823 0.86256 0.0
C2452 C 0.54543 0.49187 0.86405 0.0
C2453 C 0.53298 0.49216 0.84948 0.0
C2454 C 0.53617 0.49425 0.8806 0.0
C2455 C 0.57894 0.48637 0.87772 0.0
C2456 C 0.51181 0.48089 0.88573 0.0
C2457 C 0.50232 0.48397 0.90041 0.0
C2458 C 0.51694 0.50029 0.91055 0.0
C2459 C 0.54144 0.51324 0.9058 0.0
C2460 C 0.55091 0.51043 0.89088 0.0
H2461 H 0.58877 0.47705 0.8755 0.0
H2462 H 0.59225 0.50349 0.8802 0.0
H2463 H 0.56674 0.47771 0.88919 0.0
H2464 H 0.49995 0.46824 0.87818 0.0
H2465 H 0.48336 0.47381 0.90371 0.0
H2466 H 0.55515 0.12238 0.78412 0.0
H2467 H 0.55178 0.09714 0.80951 0.0
H2468 H 0.62078 0.1465 0.82345 0.0
H2469 H 0.62319 0.17252 0.79837 0.0
H2470 H 0.57486 0.07692 0.82238 0.0
H2471 H 0.58115 0.13865 0.86477 0.0
H2472 H 0.57924 0.14336 0.84224 0.0
H2473 H 0.607 0.1476 0.85085 0.0
C2474 C 0.56946 0.12785 0.79272 0.0
C2475 C 0.58894 0.1496 0.7898 0.0
C2476 C 0.56771 0.11336 0.80711 0.0
C2477 C 0.58569 0.12013 0.81872 0.0
C2478 C 0.60628 0.14119 0.81501 0.0
H2479 H 0.55183 0.01382 0.9055 0.0
H2480 H 0.57365 0.04107 0.88057 0.0
C2481 C 0.60781 0.15593 0.80066 0.0
C2482 C 0.58162 0.10543 0.83501 0.0
H2483 H 0.57229 0.10279 0.87759 0.0
C2484 C 0.57452 0.0826 0.8345 0.0
C2485 C 0.58107 0.11285 0.85081 0.0
C2486 C 0.58732 0.13689 0.85228 0.0
C2487 C 0.56541 0.06675 0.84908 0.0
C2488 C 0.56441 0.07411 0.86483 0.0
C2489 C 0.57298 0.09716 0.86551 0.0
C2490 C 0.55238 0.05814 0.8804 0.0
C2491 C 0.55549 0.04218 0.84719 0.0
C2492 C 0.53387 0.05922 0.88906 0.0
C2493 C 0.52197 0.04416 0.90352 0.0
C2494 C 0.52808 0.02749 0.90943 0.0
C2495 C 0.54666 0.0264 0.90094 0.0
C2496 C 0.55898 0.04184 0.88667 0.0
H2497 H 0.55203 0.03905 0.83382 0.0
H2498 H 0.56863 0.03662 0.85141 0.0
H2499 H 0.53856 0.03167 0.85501 0.0
H2500 H 0.52841 0.07161 0.88451 0.0
H2501 H 0.50772 0.04529 0.90995 0.0
H2502 H 0.11358 0.2292 0.59075 0.0
H2503 H 0.13819 0.25451 0.56584 0.0
H2504 H 0.14681 0.20049 0.54951 0.0
H2505 H 0.12186 0.17512 0.57451 0.0
H2506 H 0.18609 0.2668 0.55295 0.0
H2507 H 0.11471 0.22024 0.51014 0.0
H2508 H 0.10907 0.21679 0.53276 0.0
H2509 H 0.12488 0.20416 0.52401 0.0
C2510 C 0.12098 0.22293 0.58185 0.0
C2511 C 0.11577 0.20035 0.5842 0.0
C2512 C 0.13504 0.23731 0.56774 0.0
C2513 C 0.14401 0.22925 0.55576 0.0
C2514 C 0.13978 0.20691 0.55854 0.0
H2515 H 0.20243 0.29948 0.45398 0.0
H2516 H 0.1907 0.27183 0.4794 0.0
C2517 C 0.12572 0.19252 0.57275 0.0
C2518 C 0.15641 0.24402 0.53991 0.0
H2519 H 0.14839 0.25298 0.4979 0.0
C2520 C 0.17804 0.26369 0.54085 0.0
C2521 C 0.14582 0.23985 0.52419 0.0
C2522 C 0.12227 0.21922 0.52259 0.0
C2523 C 0.18916 0.27958 0.5265 0.0
C2524 C 0.17802 0.27589 0.51093 0.0
C2525 C 0.15687 0.25579 0.50986 0.0
C2526 C 0.18702 0.29323 0.49586 0.0
C2527 C 0.21262 0.30022 0.52818 0.0
C2528 C 0.18873 0.31439 0.49668 0.0
C2529 C 0.19536 0.33018 0.48219 0.0
C2530 C 0.20014 0.32502 0.46655 0.0
C2531 C 0.19863 0.30388 0.46581 0.0
C2532 C 0.19207 0.28811 0.48032 0.0
H2533 H 0.22236 0.2971 0.53887 0.0
H2534 H 0.22426 0.30581 0.51638 0.0
H2535 H 0.20915 0.31408 0.53079 0.0
H2536 H 0.18425 0.31847 0.50842 0.0
H2537 H 0.19595 0.34615 0.48313 0.0
H2538 H 0.80979 0.91504 0.5731 0.0
H2539 H 0.79281 0.90229 0.54622 0.0
H2540 H 0.7277 0.85135 0.57349 0.0
H2541 H 0.74513 0.86393 0.60042 0.0
H2542 H 0.73973 0.83701 0.54483 0.0
H2543 H 0.74295 0.91985 0.52885 0.0
H2544 H 0.77145 0.92159 0.53289 0.0
H2545 H 0.74846 0.91042 0.54967 0.0
C2546 C 0.79217 0.90066 0.57329 0.0
C2547 C 0.77872 0.89036 0.58869 0.0
C2548 C 0.78237 0.89353 0.55798 0.0
C2549 C 0.75875 0.87621 0.55779 0.0
C2550 C 0.74591 0.86481 0.5733 0.0
H2551 H 0.66073 0.85848 0.47914 0.0
H2552 H 0.68369 0.86597 0.50434 0.0
C2553 C 0.75584 0.87186 0.58866 0.0
C2554 C 0.74682 0.87142 0.54151 0.0
H2555 H 0.72973 0.89542 0.50791 0.0
C2556 C 0.7376 0.84977 0.53671 0.0
C2557 C 0.74371 0.888 0.53103 0.0
C2558 C 0.75194 0.91121 0.5359 0.0
C2559 C 0.72544 0.84431 0.52172 0.0
C2560 C 0.72273 0.86103 0.5111 0.0
C2561 C 0.732 0.88265 0.51592 0.0
C2562 C 0.70898 0.85621 0.49553 0.0
C2563 C 0.71494 0.82049 0.51767 0.0
C2564 C 0.71569 0.84853 0.48194 0.0
C2565 C 0.70237 0.84401 0.46745 0.0
C2566 C 0.6821 0.84714 0.46625 0.0
C2567 C 0.67588 0.85539 0.47972 0.0
C2568 C 0.68912 0.85984 0.49414 0.0
H2569 H 0.71361 0.8086 0.52893 0.0
H2570 H 0.69688 0.81478 0.51281 0.0
H2571 H 0.72657 0.81973 0.50773 0.0
H2572 H 0.73125 0.84608 0.4825 0.0
H2573 H 0.70767 0.83764 0.45736 0.0
H2574 H 0.12209 0.86707 0.60407 0.0
H2575 H 0.12564 0.85388 0.57726 0.0
H2576 H 0.10743 0.90168 0.55015 0.0
H2577 H 0.10426 0.91493 0.57694 0.0
H2578 H 0.09634 0.83694 0.54989 0.0
H2579 H 0.17427 0.92081 0.52991 0.0
H2580 H 0.16124 0.91207 0.5513 0.0
H2581 H 0.14726 0.92148 0.53503 0.0
C2582 C 0.11805 0.87412 0.59242 0.0
C2583 C 0.11262 0.89177 0.59251 0.0
C2584 C 0.12026 0.86676 0.57709 0.0
C2585 C 0.11725 0.87706 0.56159 0.0
C2586 C 0.11026 0.89371 0.56186 0.0
H2587 H 0.12296 0.83277 0.46212 0.0
H2588 H 0.10937 0.84302 0.4869 0.0
C2589 C 0.10815 0.90109 0.57715 0.0
C2590 C 0.12321 0.8717 0.54517 0.0
H2591 H 0.16185 0.89489 0.51005 0.0
C2592 C 0.11058 0.84962 0.54113 0.0
C2593 C 0.14203 0.88817 0.5338 0.0
C2594 C 0.15716 0.91192 0.53774 0.0
C2595 C 0.11622 0.8436 0.52608 0.0
C2596 C 0.13485 0.86016 0.51462 0.0
C2597 C 0.14741 0.88223 0.51868 0.0
C2598 C 0.14291 0.85468 0.49904 0.0
C2599 C 0.10273 0.81939 0.52287 0.0
C2600 C 0.16653 0.8586 0.4972 0.0
C2601 C 0.17437 0.85301 0.48302 0.0
C2602 C 0.15885 0.84335 0.47019 0.0
C2603 C 0.1354 0.84017 0.47172 0.0
C2604 C 0.12752 0.84576 0.486 0.0
H2605 H 0.09275 0.80797 0.5345 0.0
H2606 H 0.08966 0.81771 0.51316 0.0
H2607 H 0.11508 0.81384 0.51803 0.0
H2608 H 0.17887 0.86566 0.50693 0.0
H2609 H 0.19266 0.85612 0.48217 0.0
H2610 H 0.54463 0.79304 0.12462 0.0
H2611 H 0.562 0.80956 0.15048 0.0
H2612 H 0.62835 0.81209 0.13574 0.0
H2613 H 0.61116 0.79626 0.10985 0.0
H2614 H 0.57796 0.7909 0.17604 0.0
H2615 H 0.65236 0.87358 0.14995 0.0
H2616 H 0.62845 0.85665 0.13728 0.0
H2617 H 0.65327 0.85125 0.14069 0.0
C2618 C 0.56311 0.79776 0.12677 0.0
C2619 C 0.57665 0.79348 0.11533 0.0
C2620 C 0.57297 0.80701 0.14156 0.0
C2621 C 0.59661 0.81232 0.14503 0.0
C2622 C 0.61029 0.80864 0.13325 0.0
H2623 H 0.68992 0.83629 0.22553 0.0
H2624 H 0.6673 0.82736 0.2002 0.0
C2625 C 0.60046 0.79946 0.11852 0.0
C2626 C 0.60653 0.81998 0.16146 0.0
H2627 H 0.65578 0.85937 0.17846 0.0
C2628 C 0.59474 0.80611 0.1766 0.0
C2629 C 0.62841 0.83986 0.16225 0.0
C2630 C 0.64121 0.8563 0.14667 0.0
C2631 C 0.60488 0.81094 0.19233 0.0
C2632 C 0.62732 0.83018 0.19295 0.0
C2633 C 0.63865 0.84452 0.17794 0.0
C2634 C 0.64019 0.83492 0.20883 0.0
C2635 C 0.59213 0.79494 0.2081 0.0
C2636 C 0.63237 0.84201 0.22221 0.0
C2637 C 0.64548 0.84741 0.23674 0.0
C2638 C 0.66668 0.84585 0.23813 0.0
C2639 C 0.67401 0.83818 0.22481 0.0
C2640 C 0.66102 0.83293 0.21032 0.0
H2641 H 0.57618 0.77945 0.20523 0.0
H2642 H 0.60444 0.79011 0.21506 0.0
H2643 H 0.58628 0.80343 0.2166 0.0
H2644 H 0.61643 0.84383 0.22125 0.0
H2645 H 0.6394 0.85346 0.24664 0.0
H2646 H 0.2115 0.814 0.10849 0.0
H2647 H 0.20788 0.8253 0.13604 0.0
H2648 H 0.25653 0.80243 0.15601 0.0
H2649 H 0.26017 0.7913 0.12825 0.0
H2650 H 0.2123 0.78358 0.17519 0.0
H2651 H 0.25239 0.87636 0.16298 0.0
H2652 H 0.23138 0.86185 0.14785 0.0
H2653 H 0.25868 0.86028 0.14923 0.0
C2654 C 0.22212 0.81227 0.11861 0.0
C2655 C 0.2365 0.80227 0.11621 0.0
C2656 C 0.22 0.81862 0.13438 0.0
C2657 C 0.23207 0.81492 0.14816 0.0
C2658 C 0.24717 0.80565 0.14558 0.0
H2659 H 0.21921 0.85235 0.24922 0.0
H2660 H 0.23624 0.84664 0.22367 0.0
C2661 C 0.24948 0.79952 0.12971 0.0
C2662 C 0.22697 0.81864 0.16551 0.0
H2663 H 0.22707 0.85831 0.18827 0.0
C2664 C 0.21584 0.79999 0.1781 0.0
C2665 C 0.23165 0.84004 0.16944 0.0
C2666 C 0.24438 0.86084 0.15673 0.0
C2667 C 0.20839 0.80198 0.19416 0.0
C2668 C 0.21206 0.82318 0.19781 0.0
C2669 C 0.22412 0.84202 0.18549 0.0
C2670 C 0.20205 0.82578 0.21385 0.0
C2671 C 0.19631 0.7813 0.20706 0.0
C2672 C 0.17722 0.81589 0.21692 0.0
C2673 C 0.16752 0.81923 0.23139 0.0
C2674 C 0.18238 0.83247 0.24326 0.0
C2675 C 0.20728 0.8419 0.24043 0.0
C2676 C 0.21702 0.83877 0.22578 0.0
H2677 H 0.20007 0.76775 0.20402 0.0
H2678 H 0.20217 0.78534 0.21994 0.0
H2679 H 0.1767 0.77478 0.20722 0.0
H2680 H 0.16527 0.80598 0.20789 0.0
H2681 H 0.14829 0.81167 0.23318 0.0
H2682 H 0.23884 0.45259 0.11219 0.0
H2683 H 0.23022 0.42457 0.13719 0.0
H2684 H 0.26956 0.47798 0.16733 0.0
H2685 H 0.27804 0.50588 0.14224 0.0
H2686 H 0.25844 0.41572 0.16521 0.0
H2687 H 0.19634 0.44657 0.1838 0.0
H2688 H 0.20938 0.45258 0.16253 0.0
H2689 H 0.22705 0.46746 0.17896 0.0
C2690 C 0.24646 0.45812 0.12403 0.0
C2691 C 0.25914 0.48114 0.12549 0.0
C2692 C 0.24151 0.44223 0.13826 0.0
C2693 C 0.24909 0.44928 0.15409 0.0
C2694 C 0.26355 0.47227 0.15521 0.0
H2695 H 0.21529 0.36636 0.25248 0.0
H2696 H 0.23652 0.39222 0.22694 0.0
C2697 C 0.26849 0.48813 0.14095 0.0
C2698 C 0.2387 0.43307 0.16962 0.0
H2699 H 0.1973 0.41763 0.20233 0.0
C2700 C 0.24519 0.41615 0.17342 0.0
C2701 C 0.22113 0.43355 0.18008 0.0
C2702 C 0.21285 0.45088 0.17616 0.0
C2703 C 0.23454 0.39966 0.18757 0.0
C2704 C 0.21711 0.40029 0.19809 0.0
C2705 C 0.2107 0.41725 0.19424 0.0
C2706 C 0.20474 0.38331 0.21299 0.0
C2707 C 0.24155 0.38141 0.19092 0.0
C2708 C 0.17984 0.36986 0.21364 0.0
C2709 C 0.16764 0.35528 0.22824 0.0
C2710 C 0.1801 0.35397 0.24255 0.0
C2711 C 0.20514 0.36714 0.24173 0.0
C2712 C 0.21735 0.38172 0.22709 0.0
H2713 H 0.25122 0.38047 0.17973 0.0
H2714 H 0.25348 0.38494 0.20162 0.0
H2715 H 0.22555 0.36478 0.19452 0.0
H2716 H 0.16978 0.37099 0.20292 0.0
H2717 H 0.14835 0.34561 0.22852 0.0
H2718 H 0.79459 0.55347 0.93365 0.0
H2719 H 0.81549 0.58046 0.90837 0.0
H2720 H 0.78325 0.52697 0.87721 0.0
H2721 H 0.76262 0.50001 0.90264 0.0
H2722 H 0.8336 0.56058 0.86773 0.0
H2723 H 0.77298 0.5968 0.87569 0.0
H2724 H 0.7893 0.59539 0.89383 0.0
H2725 H 0.76728 0.56988 0.88664 0.0
C2726 C 0.79268 0.54751 0.92143 0.0
C2727 C 0.7773 0.52486 0.9199 0.0
C2728 C 0.80439 0.56285 0.90704 0.0
C2729 C 0.80066 0.55569 0.89095 0.0
C2730 C 0.78635 0.53278 0.88954 0.0
H2731 H 0.81248 0.63348 0.79465 0.0
H2732 H 0.8 0.60546 0.81981 0.0
C2733 C 0.77466 0.51744 0.90395 0.0
C2734 C 0.80976 0.57233 0.87555 0.0
H2735 H 0.80275 0.61454 0.85339 0.0
C2736 C 0.82696 0.57245 0.86457 0.0
C2737 C 0.8007 0.58749 0.87141 0.0
C2738 C 0.7814 0.58737 0.8824 0.0
C2739 C 0.83558 0.58759 0.84957 0.0
C2740 C 0.82685 0.60304 0.84561 0.0
C2741 C 0.8095 0.60276 0.85654 0.0
C2742 C 0.83497 0.61937 0.82998 0.0
C2743 C 0.85355 0.58665 0.83789 0.0
C2744 C 0.85876 0.63652 0.82742 0.0
C2745 C 0.86597 0.65253 0.81302 0.0
C2746 C 0.84949 0.65169 0.80095 0.0
C2747 C 0.82568 0.63442 0.80357 0.0
C2748 C 0.81849 0.61847 0.81798 0.0
H2749 H 0.85433 0.57069 0.84079 0.0
H2750 H 0.84921 0.58839 0.82447 0.0
H2751 H 0.87153 0.60079 0.83938 0.0
H2752 H 0.87165 0.63772 0.83669 0.0
H2753 H 0.88447 0.66552 0.81129 0.0
H2754 H 0.40223 0.21521 0.93174 0.0
H2755 H 0.38642 0.20315 0.90444 0.0
H2756 H 0.45513 0.21269 0.88753 0.0
H2757 H 0.47102 0.22503 0.91492 0.0
H2758 H 0.41678 0.23729 0.87108 0.0
H2759 H 0.39556 0.14758 0.8748 0.0
H2760 H 0.39285 0.15906 0.89351 0.0
H2761 H 0.42183 0.16769 0.88402 0.0
C2762 C 0.41371 0.21414 0.92232 0.0
C2763 C 0.43778 0.22103 0.92534 0.0
C2764 C 0.40474 0.20733 0.90676 0.0
C2765 C 0.41961 0.20708 0.89396 0.0
C2766 C 0.44333 0.21265 0.89729 0.0
H2767 H 0.37499 0.17241 0.79149 0.0
H2768 H 0.39857 0.18126 0.81668 0.0
C2769 C 0.45234 0.21953 0.91292 0.0
C2770 C 0.41086 0.20336 0.87669 0.0
H2771 H 0.38461 0.16298 0.85043 0.0
C2772 C 0.40995 0.22111 0.86648 0.0
C2773 C 0.40225 0.18235 0.87066 0.0
C2774 C 0.40306 0.16294 0.88122 0.0
C2775 C 0.40006 0.21824 0.85057 0.0
C2776 C 0.39022 0.19686 0.84485 0.0
C2777 C 0.39201 0.17933 0.8548 0.0
C2778 C 0.37657 0.19207 0.82923 0.0
C2779 C 0.40023 0.23821 0.84006 0.0
C2780 C 0.35633 0.19511 0.82788 0.0
C2781 C 0.34301 0.19027 0.81351 0.0
C2782 C 0.34934 0.18195 0.80013 0.0
C2783 C 0.36973 0.17901 0.80144 0.0
C2784 C 0.38312 0.18389 0.81589 0.0
H2785 H 0.41493 0.2543 0.84332 0.0
H2786 H 0.40221 0.23761 0.82631 0.0
H2787 H 0.38313 0.23817 0.84264 0.0
H2788 H 0.3506 0.20099 0.83808 0.0
H2789 H 0.32763 0.19301 0.81292 0.0
H2790 H 0.81597 0.21914 0.93409 0.0
H2791 H 0.81712 0.20484 0.90747 0.0
H2792 H 0.75422 0.20945 0.893 0.0
H2793 H 0.75362 0.22444 0.91961 0.0
H2794 H 0.78698 0.16895 0.89234 0.0
H2795 H 0.80066 0.24753 0.85315 0.0
H2796 H 0.80237 0.24543 0.87585 0.0
H2797 H 0.77381 0.23343 0.86668 0.0
C2798 C 0.80223 0.21678 0.92529 0.0
C2799 C 0.78482 0.223 0.9288 0.0
C2800 C 0.80288 0.20864 0.91007 0.0
C2801 C 0.78612 0.20655 0.89793 0.0
C2802 C 0.76775 0.21145 0.9019 0.0
H2803 H 0.78809 0.16716 0.79554 0.0
H2804 H 0.7749 0.17678 0.82091 0.0
C2805 C 0.76715 0.21967 0.91719 0.0
C2806 C 0.78868 0.19997 0.88107 0.0
H2807 H 0.80027 0.21919 0.83863 0.0
C2808 C 0.78965 0.17988 0.8806 0.0
C2809 C 0.79225 0.21419 0.86565 0.0
C2810 C 0.79244 0.23644 0.86527 0.0
C2811 C 0.79454 0.17389 0.86534 0.0
C2812 C 0.79877 0.18838 0.85005 0.0
C2813 C 0.79696 0.20806 0.85034 0.0
C2814 C 0.80708 0.18419 0.83402 0.0
C2815 C 0.79554 0.15219 0.8657 0.0
C2816 C 0.82983 0.18591 0.8327 0.0
C2817 C 0.83748 0.18071 0.81823 0.0
C2818 C 0.82254 0.17346 0.80467 0.0
C2819 C 0.8001 0.1727 0.80568 0.0
C2820 C 0.79247 0.17806 0.82022 0.0
H2821 H 0.78655 0.14053 0.87746 0.0
H2822 H 0.78707 0.1436 0.85459 0.0
H2823 H 0.8145 0.15596 0.86514 0.0
H2824 H 0.8416 0.19101 0.84302 0.0
H2825 H 0.8551 0.18208 0.8178 0.0
H2826 H 0.2773 0.13122 0.44249 0.0
H2827 H 0.29396 0.14598 0.46891 0.0
H2828 H 0.22536 0.13688 0.48574 0.0
H2829 H 0.20877 0.12213 0.45916 0.0
H2830 H 0.26497 0.17731 0.49398 0.0
H2831 H 0.27647 0.1024 0.51327 0.0
H2832 H 0.29076 0.11727 0.49297 0.0
H2833 H 0.25876 0.10383 0.49592 0.0
C2834 C 0.26596 0.1327 0.45177 0.0
C2835 C 0.24177 0.12539 0.44899 0.0
C2836 C 0.2754 0.14101 0.46686 0.0
C2837 C 0.26076 0.14203 0.47948 0.0
C2838 C 0.23693 0.13608 0.47624 0.0
H2839 H 0.3025 0.14951 0.58452 0.0
H2840 H 0.27924 0.13884 0.55943 0.0
C2841 C 0.22749 0.12778 0.46108 0.0
C2842 C 0.2701 0.14815 0.49633 0.0
H2843 H 0.29476 0.13245 0.5299 0.0
C2844 C 0.27136 0.16744 0.5019 0.0
C2845 C 0.27795 0.135 0.50684 0.0
C2846 C 0.27573 0.11334 0.50206 0.0
C2847 C 0.28112 0.17442 0.51739 0.0
C2848 C 0.29016 0.16191 0.52746 0.0
C2849 C 0.28805 0.14216 0.52215 0.0
C2850 C 0.30279 0.1694 0.54316 0.0
C2851 C 0.28157 0.19505 0.52285 0.0
C2852 C 0.32367 0.19019 0.54246 0.0
C2853 C 0.3369 0.19636 0.55679 0.0
C2854 C 0.32972 0.1818 0.57216 0.0
C2855 C 0.30844 0.16122 0.57297 0.0
C2856 C 0.2952 0.15505 0.55859 0.0
H2857 H 0.26764 0.19837 0.51682 0.0
H2858 H 0.27881 0.19331 0.53681 0.0
H2859 H 0.2992 0.20987 0.51892 0.0
H2860 H 0.3302 0.2014 0.53067 0.0
H2861 H 0.35305 0.21243 0.55573 0.0
H2862 H 0.90095 0.15957 0.43991 0.0
H2863 H 0.89752 0.17368 0.46634 0.0
H2864 H 0.90211 0.11844 0.49524 0.0
H2865 H 0.90611 0.10493 0.46892 0.0
H2866 H 0.86138 0.15179 0.48982 0.0
H2867 H 0.94432 0.16802 0.52146 0.0
H2868 H 0.94103 0.16413 0.4994 0.0
H2869 H 0.92926 0.14018 0.51559 0.0
C2870 C 0.90216 0.15107 0.45193 0.0
C2871 C 0.90411 0.13136 0.45243 0.0
C2872 C 0.89996 0.15894 0.46704 0.0
C2873 C 0.89979 0.14732 0.48293 0.0
C2874 C 0.90279 0.12815 0.4833 0.0
H2875 H 0.85198 0.14293 0.58689 0.0
H2876 H 0.86745 0.13647 0.56103 0.0
C2877 C 0.90503 0.12037 0.46824 0.0
C2878 C 0.89397 0.15365 0.49903 0.0
H2879 H 0.91174 0.16398 0.53922 0.0
C2880 C 0.87261 0.15474 0.50051 0.0
C2881 C 0.90839 0.15732 0.51317 0.0
C2882 C 0.93214 0.15758 0.51229 0.0
C2883 C 0.86504 0.15882 0.5157 0.0
C2884 C 0.87928 0.1622 0.52988 0.0
C2885 C 0.90072 0.16126 0.52842 0.0
C2886 C 0.87221 0.16707 0.54614 0.0
C2887 C 0.84146 0.15892 0.51659 0.0
C2888 C 0.87055 0.18679 0.54664 0.0
C2889 C 0.86189 0.19057 0.56138 0.0
C2890 C 0.85458 0.17473 0.5761 0.0
C2891 C 0.85745 0.15552 0.57587 0.0
C2892 C 0.8662 0.15175 0.56104 0.0
H2893 H 0.83015 0.15095 0.50614 0.0
H2894 H 0.83139 0.14995 0.52886 0.0
H2895 H 0.84481 0.17655 0.51556 0.0
H2896 H 0.87554 0.19911 0.53547 0.0
H2897 H 0.8605 0.20582 0.56114 0.0
H2898 H 0.94628 0.85078 0.4746 0.0
H2899 H 0.94175 0.82529 0.50046 0.0
H2900 H 0.91228 0.76908 0.47168 0.0
H2901 H 0.9172 0.79471 0.44595 0.0
H2902 H 0.89752 0.79385 0.51223 0.0
H2903 H 0.95202 0.752 0.50388 0.0
H2904 H 0.95743 0.77779 0.49104 0.0
H2905 H 0.93433 0.75112 0.48613 0.0
C2906 C 0.9398 0.83309 0.47382 0.0
C2907 C 0.93226 0.82456 0.45846 0.0
C2908 C 0.93711 0.81855 0.48851 0.0
C2909 C 0.92684 0.79528 0.48799 0.0
C2910 C 0.92078 0.78699 0.47235 0.0
H2911 H 0.82872 0.6872 0.55973 0.0
H2912 H 0.85048 0.71537 0.53542 0.0
C2913 C 0.92356 0.80157 0.45767 0.0
C2914 C 0.9187 0.77947 0.50393 0.0
H2915 H 0.91859 0.7326 0.52456 0.0
C2916 C 0.90247 0.78071 0.51505 0.0
C2917 C 0.92517 0.76234 0.50764 0.0
C2918 C 0.94339 0.76084 0.49662 0.0
C2919 C 0.8918 0.76476 0.52938 0.0
C2920 C 0.89723 0.74692 0.53256 0.0
C2921 C 0.91423 0.74616 0.52191 0.0
C2922 C 0.88473 0.72862 0.54664 0.0
C2923 C 0.8745 0.76694 0.54091 0.0
C2924 C 0.89698 0.72638 0.56075 0.0
C2925 C 0.8846 0.71025 0.57465 0.0
C2926 C 0.85981 0.696 0.57458 0.0
C2927 C 0.84782 0.69779 0.56013 0.0
C2928 C 0.86018 0.71396 0.54629 0.0
H2929 H 0.87652 0.78417 0.539 0.0
H2930 H 0.85596 0.75497 0.53818 0.0
H2931 H 0.87706 0.76279 0.5544 0.0
H2932 H 0.91596 0.73752 0.56119 0.0
H2933 H 0.89438 0.70907 0.58552 0.0
loop_
_geom_bond_atom_site_label_1
_geom_bond_atom_site_label_2
_geom_bond_distance
_geom_bond_site_symmetry_2
_ccdc_geom_bond_type
C0 N1 1.317 . S
C0 N2 1.348 . S
C0 C3 1.485 . S
N1 C0 1.317 . S
N1 N5 1.370 . S
N2 C0 1.348 . S
N2 C4 1.346 . S
C3 C0 1.485 . S
C3 H7 0.960 . S
C3 H8 0.961 . S
C3 H9 0.960 . S
C4 N2 1.346 . S
C4 N5 1.307 . S
C4 C6 1.486 . S
N5 N1 1.370 . S
N5 C4 1.307 . S
C6 C4 1.486 . S
C6 H10 0.960 . S
C6 H11 0.960 . S
C6 H12 0.959 . S
H7 C3 0.960 . S
H8 C3 0.961 . S
H9 C3 0.960 . S
H10 C6 0.960 . S
H11 C6 0.960 . S
H12 C6 0.959 . S
C13 N14 1.317 . S
C13 N15 1.348 . S
C13 C16 1.485 . S
N14 C13 1.317 . S
N14 N18 1.370 . S
N15 C13 1.348 . S
N15 C17 1.346 . S
C16 C13 1.485 . S
C16 H20 0.960 . S
C16 H21 0.961 . S
C16 H22 0.960 . S
C17 N15 1.346 . S
C17 N18 1.307 . S
C17 C19 1.486 . S
N18 N14 1.370 . S
N18 C17 1.307 . S
C19 C17 1.486 . S
C19 H23 0.960 . S
C19 H24 0.960 . S
C19 H25 0.959 . S
H20 C16 0.960 . S
H21 C16 0.961 . S
H22 C16 0.960 . S
H23 C19 0.960 . S
H24 C19 0.960 . S
H25 C19 0.959 . S
C26 N27 1.317 . S
C26 N28 1.348 . S
C26 C29 1.485 . S
N27 C26 1.317 . S
N27 N31 1.370 . S
N28 C26 1.348 . S
N28 C30 1.346 . S
C29 C26 1.485 . S
C29 H33 0.960 . S
C29 H34 0.961 . S
C29 H35 0.960 . S
C30 N28 1.346 . S
C30 N31 1.307 . S
C30 C32 1.486 . S
N31 N27 1.370 . S
N31 C30 1.307 . S
C32 C30 1.486 . S
C32 H36 0.960 . S
C32 H37 0.960 . S
C32 H38 0.959 . S
H33 C29 0.960 . S
H34 C29 0.961 . S
H35 C29 0.960 . S
H36 C32 0.960 . S
H37 C32 0.960 . S
H38 C32 0.959 . S
C39 N40 1.317 . S
C39 N41 1.348 . S
C39 C42 1.485 . S
N40 C39 1.317 . S
N40 N44 1.370 . S
N41 C39 1.348 . S
N41 C43 1.346 . S
C42 C39 1.485 . S
C42 H46 0.960 . S
C42 H47 0.961 . S
C42 H48 0.960 . S
C43 N41 1.346 . S
C43 N44 1.307 . S
C43 C45 1.486 . S
N44 N40 1.370 . S
N44 C43 1.307 . S
C45 C43 1.486 . S
C45 H49 0.960 . S
C45 H50 0.960 . S
C45 H51 0.959 . S
H46 C42 0.960 . S
H47 C42 0.961 . S
H48 C42 0.960 . S
H49 C45 0.960 . S
H50 C45 0.960 . S
H51 C45 0.959 . S
C52 N53 1.317 . S
C52 N54 1.348 . S
C52 C55 1.485 . S
N53 C52 1.317 . S
N53 N57 1.370 . S
N54 C52 1.348 . S
N54 C56 1.346 . S
C55 C52 1.485 . S
C55 H59 0.960 . S
C55 H60 0.961 . S
C55 H61 0.960 . S
C56 N54 1.346 . S
C56 N57 1.307 . S
C56 C58 1.486 . S
N57 N53 1.370 . S
N57 C56 1.307 . S
C58 C56 1.486 . S
C58 H62 0.960 . S
C58 H63 0.960 . S
C58 H64 0.959 . S
H59 C55 0.960 . S
H60 C55 0.961 . S
H61 C55 0.960 . S
H62 C58 0.960 . S
H63 C58 0.960 . S
H64 C58 0.959 . S
C65 N66 1.317 . S
C65 N67 1.348 . S
C65 C68 1.485 . S
N66 C65 1.317 . S
N66 N70 1.370 . S
N67 C65 1.348 . S
N67 C69 1.346 . S
C68 C65 1.485 . S
C68 H72 0.960 . S
C68 H73 0.961 . S
C68 H74 0.960 . S
C69 N67 1.346 . S
C69 N70 1.307 . S
C69 C71 1.486 . S
N70 N66 1.370 . S
N70 C69 1.307 . S
C71 C69 1.486 . S
C71 H75 0.960 . S
C71 H76 0.960 . S
C71 H77 0.959 . S
H72 C68 0.960 . S
H73 C68 0.961 . S
H74 C68 0.960 . S
H75 C71 0.960 . S
H76 C71 0.960 . S
H77 C71 0.959 . S
C78 N79 1.317 . S
C78 N80 1.348 . S
C78 C81 1.485 . S
N79 C78 1.317 . S
N79 N83 1.370 . S
N80 C78 1.348 . S
N80 C82 1.346 . S
C81 C78 1.485 . S
C81 H85 0.960 . S
C81 H86 0.961 . S
C81 H87 0.960 . S
C82 N80 1.346 . S
C82 N83 1.307 . S
C82 C84 1.486 . S
N83 N79 1.370 . S
N83 C82 1.307 . S
C84 C82 1.486 . S
C84 H88 0.960 . S
C84 H89 0.960 . S
C84 H90 0.959 . S
H85 C81 0.960 . S
H86 C81 0.961 . S
H87 C81 0.960 . S
H88 C84 0.960 . S
H89 C84 0.960 . S
H90 C84 0.959 . S
C91 N92 1.317 . S
C91 N93 1.348 . S
C91 C94 1.485 . S
N92 C91 1.317 . S
N92 N96 1.370 . S
N93 C91 1.348 . S
N93 C95 1.346 . S
C94 C91 1.485 . S
C94 H98 0.960 . S
C94 H99 0.961 . S
C94 H100 0.960 . S
C95 N93 1.346 . S
C95 N96 1.307 . S
C95 C97 1.486 . S
N96 N92 1.370 . S
N96 C95 1.307 . S
C97 C95 1.486 . S
C97 H101 0.960 . S
C97 H102 0.960 . S
C97 H103 0.959 . S
H98 C94 0.960 . S
H99 C94 0.961 . S
H100 C94 0.960 . S
H101 C97 0.960 . S
H102 C97 0.960 . S
H103 C97 0.959 . S
C104 N105 1.317 . S
C104 N106 1.348 . S
C104 C107 1.485 . S
N105 C104 1.317 . S
N105 N109 1.370 . S
N106 C104 1.348 . S
N106 C108 1.346 . S
C107 C104 1.485 . S
C107 H111 0.960 . S
C107 H112 0.961 . S
C107 H113 0.960 . S
C108 N106 1.346 . S
C108 N109 1.307 . S
C108 C110 1.486 . S
N109 N105 1.370 . S
N109 C108 1.307 . S
C110 C108 1.486 . S
C110 H114 0.960 . S
C110 H115 0.960 . S
C110 H116 0.959 . S
H111 C107 0.960 . S
H112 C107 0.961 . S
H113 C107 0.960 . S
H114 C110 0.960 . S
H115 C110 0.960 . S
H116 C110 0.959 . S
C117 N118 1.317 . S
C117 N119 1.348 . S
C117 C120 1.485 . S
N118 C117 1.317 . S
N118 N122 1.370 . S
N119 C117 1.348 . S
N119 C121 1.346 . S
C120 C117 1.485 . S
C120 H124 0.960 . S
C120 H125 0.961 . S
C120 H126 0.960 . S
C121 N119 1.346 . S
C121 N122 1.307 . S
C121 C123 1.486 . S
N122 N118 1.370 . S
N122 C121 1.307 . S
C123 C121 1.486 . S
C123 H127 0.960 . S
C123 H128 0.960 . S
C123 H129 0.959 . S
H124 C120 0.960 . S
H125 C120 0.961 . S
H126 C120 0.960 . S
H127 C123 0.960 . S
H128 C123 0.960 . S
H129 C123 0.959 . S
C130 N131 1.317 . S
C130 N132 1.348 . S
C130 C133 1.485 . S
N131 C130 1.317 . S
N131 N135 1.370 . S
N132 C130 1.348 . S
N132 C134 1.346 . S
C133 C130 1.485 . S
C133 H137 0.960 . S
C133 H138 0.961 . S
C133 H139 0.960 . S
C134 N132 1.346 . S
C134 N135 1.307 . S
C134 C136 1.486 . S
N135 N131 1.370 . S
N135 C134 1.307 . S
C136 C134 1.486 . S
C136 H140 0.960 . S
C136 H141 0.960 . S
C136 H142 0.959 . S
H137 C133 0.960 . S
H138 C133 0.961 . S
H139 C133 0.960 . S
H140 C136 0.960 . S
H141 C136 0.960 . S
H142 C136 0.959 . S
C143 N144 1.317 . S
C143 N145 1.348 . S
C143 C146 1.485 . S
N144 C143 1.317 . S
N144 N148 1.370 . S
N145 C143 1.348 . S
N145 C147 1.346 . S
C146 C143 1.485 . S
C146 H150 0.960 . S
C146 H151 0.961 . S
C146 H152 0.960 . S
C147 N145 1.346 . S
C147 N148 1.307 . S
C147 C149 1.486 . S
N148 N144 1.370 . S
N148 C147 1.307 . S
C149 C147 1.486 . S
C149 H153 0.960 . S
C149 H154 0.960 . S
C149 H155 0.959 . S
H150 C146 0.960 . S
H151 C146 0.961 . S
H152 C146 0.960 . S
H153 C149 0.960 . S
H154 C149 0.960 . S
H155 C149 0.959 . S
C156 N157 1.317 . S
C156 N158 1.348 . S
C156 C159 1.485 . S
N157 C156 1.317 . S
N157 N161 1.370 . S
N158 C156 1.348 . S
N158 C160 1.346 . S
C159 C156 1.485 . S
C159 H163 0.960 . S
C159 H164 0.961 . S
C159 H165 0.960 . S
C160 N158 1.346 . S
C160 N161 1.307 . S
C160 C162 1.486 . S
N161 N157 1.370 . S
N161 C160 1.307 . S
C162 C160 1.486 . S
C162 H166 0.960 . S
C162 H167 0.960 . S
C162 H168 0.959 . S
H163 C159 0.960 . S
H164 C159 0.961 . S
H165 C159 0.960 . S
H166 C162 0.960 . S
H167 C162 0.960 . S
H168 C162 0.959 . S
C169 N170 1.317 . S
C169 N171 1.348 . S
C169 C172 1.485 . S
N170 C169 1.317 . S
N170 N174 1.370 . S
N171 C169 1.348 . S
N171 C173 1.346 . S
C172 C169 1.485 . S
C172 H176 0.960 . S
C172 H177 0.961 . S
C172 H178 0.960 . S
C173 N171 1.346 . S
C173 N174 1.307 . S
C173 C175 1.486 . S
N174 N170 1.370 . S
N174 C173 1.307 . S
C175 C173 1.486 . S
C175 H179 0.960 . S
C175 H180 0.960 . S
C175 H181 0.959 . S
H176 C172 0.960 . S
H177 C172 0.961 . S
H178 C172 0.960 . S
H179 C175 0.960 . S
H180 C175 0.960 . S
H181 C175 0.959 . S
C182 N183 1.317 . S
C182 N184 1.348 . S
C182 C185 1.485 . S
N183 C182 1.317 . S
N183 N187 1.370 . S
N184 C182 1.348 . S
N184 C186 1.346 . S
C185 C182 1.485 . S
C185 H189 0.960 . S
C185 H190 0.961 . S
C185 H191 0.960 . S
C186 N184 1.346 . S
C186 N187 1.307 . S
C186 C188 1.486 . S
N187 N183 1.370 . S
N187 C186 1.307 . S
C188 C186 1.486 . S
C188 H192 0.960 . S
C188 H193 0.960 . S
C188 H194 0.959 . S
H189 C185 0.960 . S
H190 C185 0.961 . S
H191 C185 0.960 . S
H192 C188 0.960 . S
H193 C188 0.960 . S
H194 C188 0.959 . S
C195 N196 1.317 . S
C195 N197 1.348 . S
C195 C198 1.485 . S
N196 C195 1.317 . S
N196 N200 1.370 . S
N197 C195 1.348 . S
N197 C199 1.346 . S
C198 C195 1.485 . S
C198 H202 0.960 . S
C198 H203 0.961 . S
C198 H204 0.960 . S
C199 N197 1.346 . S
C199 N200 1.307 . S
C199 C201 1.486 . S
N200 N196 1.370 . S
N200 C199 1.307 . S
C201 C199 1.486 . S
C201 H205 0.960 . S
C201 H206 0.960 . S
C201 H207 0.959 . S
H202 C198 0.960 . S
H203 C198 0.961 . S
H204 C198 0.960 . S
H205 C201 0.960 . S
H206 C201 0.960 . S
H207 C201 0.959 . S
C208 N209 1.317 . S
C208 N210 1.348 . S
C208 C211 1.485 . S
N209 C208 1.317 . S
N209 N213 1.370 . S
N210 C208 1.348 . S
N210 C212 1.346 . S
C211 C208 1.485 . S
C211 H215 0.960 . S
C211 H216 0.961 . S
C211 H217 0.960 . S
C212 N210 1.346 . S
C212 N213 1.307 . S
C212 C214 1.486 . S
N213 N209 1.370 . S
N213 C212 1.307 . S
C214 C212 1.486 . S
C214 H218 0.960 . S
C214 H219 0.960 . S
C214 H220 0.959 . S
H215 C211 0.960 . S
H216 C211 0.961 . S
H217 C211 0.960 . S
H218 C214 0.960 . S
H219 C214 0.960 . S
H220 C214 0.959 . S
C221 N222 1.317 . S
C221 N223 1.348 . S
C221 C224 1.485 . S
N222 C221 1.317 . S
N222 N226 1.370 . S
N223 C221 1.348 . S
N223 C225 1.346 . S
C224 C221 1.485 . S
C224 H228 0.960 . S
C224 H229 0.961 . S
C224 H230 0.960 . S
C225 N223 1.346 . S
C225 N226 1.307 . S
C225 C227 1.486 . S
N226 N222 1.370 . S
N226 C225 1.307 . S
C227 C225 1.486 . S
C227 H231 0.960 . S
C227 H232 0.960 . S
C227 H233 0.959 . S
H228 C224 0.960 . S
H229 C224 0.961 . S
H230 C224 0.960 . S
H231 C227 0.960 . S
H232 C227 0.960 . S
H233 C227 0.959 . S
Tb234 N265 2.660 . S
Tb234 N272 2.600 . S
Tb234 O278 2.546 . S
Tb234 O279 2.610 1_566 S
Tb234 O281 2.320 1_565 S
Tb234 O282 2.552 1_565 S
Tb234 O283 2.413 1_565 S
Tb234 O285 2.362 1_556 S
Tb234 O286 2.421 1_556 S
Tb234 C298 2.833 1_565 S
C235 C238 1.432 . S
C235 C239 1.414 . S
C235 N242 1.359 . S
C236 C238 1.417 . S
C236 C240 1.432 . S
C236 C248 1.410 . S
C237 C239 1.444 . S
C237 C240 1.317 . S
C237 H260 0.929 . S
C238 C235 1.432 . S
C238 C236 1.417 . S
C238 N246 1.360 . S
C239 C235 1.414 . S
C239 C237 1.444 . S
C239 C244 1.385 . S
C240 C236 1.432 . S
C240 C237 1.317 . S
C240 H252 0.930 . S
C241 C243 1.392 . S
C241 C244 1.370 . S
C241 H253 0.931 . S
N242 C235 1.359 . S
N242 C243 1.327 . S
N242 Tb245 2.600 . S
C243 C241 1.392 . S
C243 N242 1.327 . S
C243 H250 0.930 . S
C244 C239 1.385 . S
C244 C241 1.370 . S
C244 H263 0.930 . S
Tb245 N242 2.600 . S
Tb245 N246 2.660 . S
Tb245 O279 2.362 . S
Tb245 O280 2.421 . S
Tb245 O284 2.546 . S
Tb245 O285 2.610 1_545 S
Tb245 O287 2.320 1_545 S
Tb245 O288 2.552 1_545 S
Tb245 O289 2.413 1_545 S
Tb245 C309 2.833 1_545 S
N246 C238 1.360 . S
N246 Tb245 2.660 . S
N246 C247 1.305 . S
C247 N246 1.305 . S
C247 C249 1.407 . S
C247 H254 0.930 . S
C248 C236 1.410 . S
C248 C249 1.345 . S
C248 H256 0.930 . S
C249 C247 1.407 . S
C249 C248 1.345 . S
C249 H251 0.930 . S
H250 C243 0.930 . S
H251 C249 0.930 . S
H252 C240 0.930 . S
H253 C241 0.931 . S
H254 C247 0.930 . S
H255 C269 0.930 . S
H256 C248 0.930 . S
H257 C275 0.930 . S
H258 C266 0.930 1_545 S
H259 C273 0.931 . S
H260 C237 0.929 . S
H261 C267 0.930 . S
H262 C300 0.930 . S
H263 C244 0.930 . S
H264 C299 0.929 . S
N265 Tb234 2.660 . S
N265 C266 1.305 . S
N265 C270 1.360 . S
C266 H258 0.930 1_565 S
C266 N265 1.305 . S
C266 C269 1.407 . S
C267 H261 0.930 . S
C267 C268 1.410 . S
C267 C269 1.345 . S
C268 C267 1.410 . S
C268 C270 1.417 . S
C268 C300 1.432 . S
C269 H255 0.930 . S
C269 C266 1.407 . S
C269 C267 1.345 . S
C270 N265 1.360 . S
C270 C268 1.417 . S
C270 C274 1.432 . S
H271 C276 0.930 . S
N272 Tb234 2.600 . S
N272 C274 1.359 . S
N272 C275 1.327 . S
C273 H259 0.931 . S
C273 C275 1.392 . S
C273 C276 1.370 . S
C274 C270 1.432 . S
C274 N272 1.359 . S
C274 C277 1.414 . S
C275 H257 0.930 . S
C275 N272 1.327 . S
C275 C273 1.392 . S
C276 H271 0.930 . S
C276 C273 1.370 . S
C276 C277 1.385 . S
C277 C274 1.414 . S
C277 C276 1.385 . S
C277 C299 1.444 . S
O278 Tb234 2.546 . S
O278 C298 1.251 1_565 S
O279 Tb234 2.610 1_544 S
O279 Tb245 2.362 . S
O279 C290 1.283 . S
O280 Tb245 2.421 . S
O280 C297 1.262 . S
O281 Tb234 2.320 1_545 S
O281 C297 1.260 1_556 S
O282 Tb234 2.552 1_545 S
O282 C290 1.243 1_556 S
O283 Tb234 2.413 1_545 S
O283 C298 1.256 . S
O284 Tb245 2.546 . S
O284 C309 1.251 1_545 S
O285 Tb234 2.362 1_554 S
O285 Tb245 2.610 1_565 S
O285 C301 1.283 . S
O286 Tb234 2.421 1_554 S
O286 C308 1.262 . S
O287 Tb245 2.320 1_565 S
O287 C308 1.260 . S
O288 Tb245 2.552 1_565 S
O288 C301 1.243 . S
O289 Tb245 2.413 1_565 S
O289 C309 1.256 . S
C290 O279 1.283 . S
C290 O282 1.243 1_554 S
C291 C293 1.382 . S
C291 C295 1.393 . S
C291 C298 1.500 . S
C292 C293 1.400 . S
C292 C294 1.384 . S
C293 C291 1.382 . S
C293 C292 1.400 . S
C293 H310 0.930 . S
C294 C292 1.384 . S
C294 C296 1.392 . S
C294 H311 0.931 . S
C295 C291 1.393 . S
C295 C296 1.401 . S
C295 H312 0.930 1_545 S
C296 C294 1.392 . S
C296 C295 1.401 . S
C296 H313 0.930 . S
C297 O280 1.262 . S
C297 O281 1.260 1_554 S
C298 Tb234 2.833 1_545 S
C298 O278 1.251 1_545 S
C298 O283 1.256 . S
C298 C291 1.500 . S
C299 H264 0.929 . S
C299 C277 1.444 . S
C299 C300 1.317 . S
C300 H262 0.930 . S
C300 C268 1.432 . S
C300 C299 1.317 . S
C301 O285 1.283 . S
C301 O288 1.243 . S
C302 C303 1.382 . S
C302 C306 1.393 . S
C302 C309 1.500 . S
C303 C302 1.382 . S
C303 C304 1.400 . S
C303 H314 0.930 . S
C304 C303 1.400 . S
C304 C305 1.384 . S
C305 C304 1.384 . S
C305 C307 1.392 . S
C305 H315 0.931 . S
C306 C302 1.393 . S
C306 C307 1.401 . S
C306 H316 0.930 1_565 S
C307 C305 1.392 . S
C307 C306 1.401 . S
C307 H317 0.930 . S
C308 O286 1.262 . S
C308 O287 1.260 . S
C309 Tb245 2.833 1_565 S
C309 O284 1.251 1_565 S
C309 O289 1.256 . S
C309 C302 1.500 . S
H310 C293 0.930 . S
H311 C294 0.931 . S
H312 C295 0.930 1_565 S
H313 C296 0.930 . S
H314 C303 0.930 . S
H315 C305 0.931 . S
H316 C306 0.930 1_545 S
H317 C307 0.930 . S
Tb318 N349 2.660 . S
Tb318 N356 2.600 . S
Tb318 O362 2.546 . S
Tb318 O363 2.610 1_456 S
Tb318 O365 2.320 1_455 S
Tb318 O366 2.552 1_455 S
Tb318 O367 2.413 . S
Tb318 O369 2.362 1_556 S
Tb318 O370 2.421 . S
Tb318 C382 2.833 . S
C319 C322 1.432 . S
C319 C323 1.414 . S
C319 N326 1.359 . S
C320 C322 1.417 . S
C320 C324 1.432 . S
C320 C332 1.410 . S
C321 C323 1.444 . S
C321 C324 1.317 . S
C321 H344 0.929 . S
C322 C319 1.432 . S
C322 C320 1.417 . S
C322 N330 1.360 . S
C323 C319 1.414 . S
C323 C321 1.444 . S
C323 C328 1.385 . S
C324 C320 1.432 . S
C324 C321 1.317 . S
C324 H336 0.930 . S
C325 C327 1.392 . S
C325 C328 1.370 . S
C325 H337 0.931 . S
N326 C319 1.359 . S
N326 C327 1.327 . S
N326 Tb329 2.600 . S
C327 C325 1.392 . S
C327 N326 1.327 . S
C327 H334 0.930 . S
C328 C323 1.385 . S
C328 C325 1.370 . S
C328 H347 0.930 . S
Tb329 N326 2.600 . S
Tb329 N330 2.660 . S
Tb329 O363 2.362 . S
Tb329 O364 2.421 . S
Tb329 O368 2.546 . S
Tb329 O369 2.610 1_655 S
Tb329 O371 2.320 1_655 S
Tb329 O372 2.552 1_655 S
Tb329 O373 2.413 1_655 S
Tb329 C393 2.833 . S
N330 C322 1.360 . S
N330 Tb329 2.660 . S
N330 C331 1.305 . S
C331 N330 1.305 . S
C331 C333 1.407 . S
C331 H338 0.930 . S
C332 C320 1.410 . S
C332 C333 1.345 . S
C332 H340 0.930 . S
C333 C331 1.407 . S
C333 C332 1.345 . S
C333 H335 0.930 . S
H334 C327 0.930 . S
H335 C333 0.930 . S
H336 C324 0.930 . S
H337 C325 0.931 . S
H338 C331 0.930 . S
H339 C353 0.930 . S
H340 C332 0.930 . S
H341 C359 0.930 . S
H342 C350 0.930 . S
H343 C357 0.931 . S
H344 C321 0.929 . S
H345 C351 0.930 . S
H346 C384 0.930 . S
H347 C328 0.930 . S
H348 C383 0.929 . S
N349 Tb318 2.660 . S
N349 C350 1.305 . S
N349 C354 1.360 . S
C350 H342 0.930 . S
C350 N349 1.305 . S
C350 C353 1.407 . S
C351 H345 0.930 . S
C351 C352 1.410 . S
C351 C353 1.345 . S
C352 C351 1.410 . S
C352 C354 1.417 . S
C352 C384 1.432 . S
C353 H339 0.930 . S
C353 C350 1.407 . S
C353 C351 1.345 . S
C354 N349 1.360 . S
C354 C352 1.417 . S
C354 C358 1.432 . S
H355 C360 0.930 . S
N356 Tb318 2.600 . S
N356 C358 1.359 . S
N356 C359 1.327 . S
C357 H343 0.931 . S
C357 C359 1.392 . S
C357 C360 1.370 . S
C358 C354 1.432 . S
C358 N356 1.359 . S
C358 C361 1.414 . S
C359 H341 0.930 . S
C359 N356 1.327 . S
C359 C357 1.392 . S
C360 H355 0.930 . S
C360 C357 1.370 . S
C360 C361 1.385 . S
C361 C358 1.414 . S
C361 C360 1.385 . S
C361 C383 1.444 . S
O362 Tb318 2.546 . S
O362 C382 1.251 . S
O363 Tb318 2.610 1_654 S
O363 Tb329 2.362 . S
O363 C374 1.283 1_554 S
O364 Tb329 2.421 . S
O364 C381 1.310 . S
O365 Tb318 2.320 1_655 S
O365 C381 1.230 1_556 S
O366 Tb318 2.552 1_655 S
O366 C374 1.243 . S
O367 Tb318 2.413 . S
O367 C382 1.256 . S
O368 Tb329 2.546 . S
O368 C393 1.251 . S
O369 Tb318 2.362 1_554 S
O369 Tb329 2.610 1_455 S
O369 C385 1.283 . S
O370 Tb318 2.421 . S
O370 C392 1.262 1_556 S
O371 Tb329 2.320 1_455 S
O371 C392 1.260 . S
O372 Tb329 2.552 1_455 S
O372 C385 1.243 . S
O373 Tb329 2.413 1_455 S
O373 C393 1.256 1_455 S
C374 O363 1.283 1_556 S
C374 O366 1.243 . S
C375 C377 1.382 1_455 S
C375 C379 1.393 . S
C375 C382 1.500 . S
C376 C377 1.400 . S
C376 C378 1.384 1_655 S
C377 C375 1.382 1_655 S
C377 C376 1.400 . S
C377 H394 0.930 . S
C378 C376 1.384 1_455 S
C378 C380 1.392 . S
C378 H395 0.931 . S
C379 C375 1.393 . S
C379 C380 1.401 . S
C379 H396 0.930 . S
C380 C378 1.392 . S
C380 C379 1.401 . S
C380 H397 0.930 . S
C381 O364 1.310 . S
C381 O365 1.230 1_554 S
C382 Tb318 2.833 . S
C382 O362 1.251 . S
C382 O367 1.256 . S
C382 C375 1.500 . S
C383 H348 0.929 . S
C383 C361 1.444 . S
C383 C384 1.317 . S
C384 H346 0.930 . S
C384 C352 1.432 . S
C384 C383 1.317 . S
C385 O369 1.283 . S
C385 O372 1.243 . S
C386 C387 1.382 . S
C386 C390 1.393 1_455 S
C386 C393 1.500 1_455 S
C387 C386 1.382 . S
C387 C388 1.400 . S
C387 H398 0.930 . S
C388 C387 1.400 . S
C388 C389 1.384 . S
C389 C388 1.384 . S
C389 C391 1.392 1_455 S
C389 H399 0.931 . S
C390 C386 1.393 1_655 S
C390 C391 1.401 . S
C390 H400 0.930 . S
C391 C389 1.392 1_655 S
C391 C390 1.401 . S
C391 H401 0.930 . S
C392 O370 1.262 1_554 S
C392 O371 1.260 . S
C393 Tb329 2.833 . S
C393 O368 1.251 . S
C393 O373 1.256 1_655 S
C393 C386 1.500 1_655 S
H394 C377 0.930 . S
H395 C378 0.931 . S
H396 C379 0.930 . S
H397 C380 0.930 . S
H398 C387 0.930 . S
H399 C389 0.931 . S
H400 C390 0.930 . S
H401 C391 0.930 . S
Tb402 N433 2.660 . S
Tb402 N440 2.600 . S
Tb402 O446 2.546 . S
Tb402 O447 2.610 . S
Tb402 O449 2.320 . S
Tb402 O450 2.552 . S
Tb402 O451 2.413 . S
Tb402 O453 2.362 . S
Tb402 O454 2.421 . S
Tb402 C466 2.833 . S
C403 C406 1.432 . S
C403 C407 1.414 . S
C403 N410 1.359 . S
C404 C406 1.417 . S
C404 C408 1.432 . S
C404 C416 1.410 . S
C405 C407 1.444 . S
C405 C408 1.317 . S
C405 H428 0.929 . S
C406 C403 1.432 . S
C406 C404 1.417 . S
C406 N414 1.380 . S
C407 C403 1.414 . S
C407 C405 1.444 . S
C407 C412 1.385 . S
C408 C404 1.432 . S
C408 C405 1.317 . S
C408 H420 0.930 . S
C409 C411 1.392 . S
C409 C412 1.370 . S
C409 H421 0.931 . S
N410 C403 1.359 . S
N410 C411 1.327 . S
N410 Tb413 2.600 1_556 S
C411 C409 1.392 . S
C411 N410 1.327 . S
C411 H418 0.930 . S
C412 C407 1.385 . S
C412 C409 1.370 . S
C412 H431 0.930 . S
Tb413 N410 2.600 1_554 S
Tb413 N414 2.651 1_554 S
Tb413 O447 2.362 . S
Tb413 O448 2.421 . S
Tb413 O452 2.546 1_554 S
Tb413 O453 2.610 . S
Tb413 O455 2.320 . S
Tb413 O456 2.552 1_554 S
Tb413 O457 2.413 1_554 S
Tb413 C477 2.833 1_554 S
N414 C406 1.380 . S
N414 Tb413 2.651 1_556 S
N414 C415 1.296 1_556 S
C415 N414 1.296 1_554 S
C415 C417 1.407 . S
C415 H422 0.930 . S
C416 C404 1.410 . S
C416 C417 1.345 1_556 S
C416 H424 0.930 . S
C417 C415 1.407 . S
C417 C416 1.345 1_554 S
C417 H419 0.930 . S
H418 C411 0.930 . S
H419 C417 0.930 . S
H420 C408 0.930 . S
H421 C409 0.931 . S
H422 C415 0.930 . S
H423 C437 0.930 . S
H424 C416 0.930 . S
H425 C443 0.930 . S
H426 C434 0.930 . S
H427 C441 0.931 . S
H428 C405 0.929 . S
H429 C435 0.930 . S
H430 C468 0.930 . S
H431 C412 0.930 . S
H432 C467 0.929 . S
N433 Tb402 2.660 . S
N433 C434 1.305 . S
N433 C438 1.360 . S
C434 H426 0.930 . S
C434 N433 1.305 . S
C434 C437 1.407 . S
C435 H429 0.930 . S
C435 C436 1.410 . S
C435 C437 1.345 . S
C436 C435 1.410 . S
C436 C438 1.417 . S
C436 C468 1.432 . S
C437 H423 0.930 . S
C437 C434 1.407 . S
C437 C435 1.345 . S
C438 N433 1.360 . S
C438 C436 1.417 . S
C438 C442 1.432 . S
H439 C444 0.930 . S
N440 Tb402 2.600 . S
N440 C442 1.359 . S
N440 C443 1.327 . S
C441 H427 0.931 . S
C441 C443 1.392 . S
C441 C444 1.370 . S
C442 C438 1.432 . S
C442 N440 1.359 . S
C442 C445 1.414 . S
C443 H425 0.930 . S
C443 N440 1.327 . S
C443 C441 1.392 . S
C444 H439 0.930 . S
C444 C441 1.370 . S
C444 C445 1.385 . S
C445 C442 1.414 . S
C445 C444 1.385 . S
C445 C467 1.444 . S
O446 Tb402 2.546 . S
O446 C466 1.251 . S
O447 Tb402 2.610 . S
O447 Tb413 2.362 . S
O447 C458 1.283 . S
O448 Tb413 2.421 . S
O448 C465 1.262 . S
O449 Tb402 2.320 . S
O449 C465 1.260 . S
O450 Tb402 2.552 . S
O450 C458 1.243 . S
O451 Tb402 2.413 . S
O451 C466 1.256 . S
O452 Tb413 2.546 1_556 S
O452 C477 1.251 . S
O453 Tb402 2.362 . S
O453 Tb413 2.610 . S
O453 C469 1.283 . S
O454 Tb402 2.421 . S
O454 C476 1.262 . S
O455 Tb413 2.320 . S
O455 C476 1.260 . S
O456 Tb413 2.552 1_556 S
O456 C469 1.243 1_556 S
O457 Tb413 2.413 1_556 S
O457 C477 1.256 . S
C458 O447 1.283 . S
C458 O450 1.243 . S
C459 C461 1.382 . S
C459 C463 1.393 . S
C459 C466 1.500 . S
C460 C461 1.400 . S
C460 C462 1.384 . S
C461 C459 1.382 . S
C461 C460 1.400 . S
C461 H478 0.930 . S
C462 C460 1.384 . S
C462 C464 1.392 . S
C462 H479 0.931 . S
C463 C459 1.393 . S
C463 C464 1.401 . S
C463 H480 0.930 . S
C464 C462 1.392 . S
C464 C463 1.401 . S
C464 H481 0.930 . S
C465 O448 1.262 . S
C465 O449 1.260 . S
C466 Tb402 2.833 . S
C466 O446 1.251 . S
C466 O451 1.256 . S
C466 C459 1.500 . S
C467 H432 0.929 . S
C467 C445 1.444 . S
C467 C468 1.317 . S
C468 H430 0.930 . S
C468 C436 1.432 . S
C468 C467 1.317 . S
C469 O453 1.283 . S
C469 O456 1.243 1_554 S
C470 C471 1.382 . S
C470 C474 1.393 . S
C470 C477 1.500 . S
C471 C470 1.382 . S
C471 C472 1.400 . S
C471 H482 0.930 . S
C472 C471 1.400 . S
C472 C473 1.384 . S
C473 C472 1.384 . S
C473 C475 1.392 . S
C473 H483 0.931 . S
C474 C470 1.393 . S
C474 C475 1.401 . S
C474 H484 0.930 . S
C475 C473 1.392 . S
C475 C474 1.401 . S
C475 H485 0.930 . S
C476 O454 1.262 . S
C476 O455 1.260 . S
C477 Tb413 2.833 1_556 S
C477 O452 1.251 . S
C477 O457 1.256 . S
C477 C470 1.500 . S
H478 C461 0.930 . S
H479 C462 0.931 . S
H480 C463 0.930 . S
H481 C464 0.930 . S
H482 C471 0.930 . S
H483 C473 0.931 . S
H484 C474 0.930 . S
H485 C475 0.930 . S
Tb486 N517 2.660 . S
Tb486 N524 2.600 . S
Tb486 O530 2.546 . S
Tb486 O531 2.610 . S
Tb486 O533 2.320 . S
Tb486 O534 2.552 . S
Tb486 O535 2.413 . S
Tb486 O537 2.362 . S
Tb486 O538 2.421 . S
Tb486 C550 2.833 . S
C487 C490 1.432 . S
C487 C491 1.414 . S
C487 N494 1.359 . S
C488 C490 1.417 . S
C488 C492 1.432 . S
C488 C500 1.410 . S
C489 C491 1.444 . S
C489 C492 1.317 . S
C489 H512 0.929 . S
C490 C487 1.432 . S
C490 C488 1.417 . S
C490 N498 1.360 . S
C491 C487 1.414 . S
C491 C489 1.444 . S
C491 C496 1.385 . S
C492 C488 1.432 . S
C492 C489 1.317 . S
C492 H504 0.930 . S
C493 C495 1.392 . S
C493 C496 1.370 . S
C493 H505 0.931 . S
N494 C487 1.359 . S
N494 C495 1.327 . S
N494 Tb497 2.600 . S
C495 C493 1.392 . S
C495 N494 1.327 . S
C495 H502 0.930 . S
C496 C491 1.385 . S
C496 C493 1.370 . S
C496 H515 0.930 . S
Tb497 N494 2.600 . S
Tb497 N498 2.660 . S
Tb497 O531 2.362 . S
Tb497 O532 2.421 . S
Tb497 O536 2.546 . S
Tb497 O537 2.610 . S
Tb497 O539 2.320 . S
Tb497 O540 2.552 . S
Tb497 O541 2.413 . S
Tb497 C561 2.833 . S
N498 C490 1.360 . S
N498 Tb497 2.660 . S
N498 C499 1.305 . S
C499 N498 1.305 . S
C499 C501 1.407 . S
C499 H506 0.930 . S
C500 C488 1.410 . S
C500 C501 1.345 . S
C500 H508 0.930 . S
C501 C499 1.407 . S
C501 C500 1.345 . S
C501 H503 0.930 . S
H502 C495 0.930 . S
H503 C501 0.930 . S
H504 C492 0.930 . S
H505 C493 0.931 . S
H506 C499 0.930 . S
H507 C521 0.930 . S
H508 C500 0.930 . S
H509 C527 0.930 . S
H510 C518 0.930 . S
H511 C525 0.931 . S
H512 C489 0.929 . S
H513 C519 0.930 . S
H514 C552 0.930 . S
H515 C496 0.930 . S
H516 C551 0.929 . S
N517 Tb486 2.660 . S
N517 C518 1.305 . S
N517 C522 1.360 . S
C518 H510 0.930 . S
C518 N517 1.305 . S
C518 C521 1.407 . S
C519 H513 0.930 . S
C519 C520 1.410 . S
C519 C521 1.345 . S
C520 C519 1.410 . S
C520 C522 1.417 . S
C520 C552 1.432 . S
C521 H507 0.930 . S
C521 C518 1.407 . S
C521 C519 1.345 . S
C522 N517 1.360 . S
C522 C520 1.417 . S
C522 C526 1.432 . S
H523 C528 0.930 . S
N524 Tb486 2.600 . S
N524 C526 1.359 . S
N524 C527 1.327 . S
C525 H511 0.931 . S
C525 C527 1.392 . S
C525 C528 1.370 . S
C526 C522 1.432 . S
C526 N524 1.359 . S
C526 C529 1.414 . S
C527 H509 0.930 . S
C527 N524 1.327 . S
C527 C525 1.392 . S
C528 H523 0.930 . S
C528 C525 1.370 . S
C528 C529 1.385 . S
C529 C526 1.414 . S
C529 C528 1.385 . S
C529 C551 1.444 . S
O530 Tb486 2.546 . S
O530 C550 1.251 . S
O531 Tb486 2.610 . S
O531 Tb497 2.362 . S
O531 C542 1.283 . S
O532 Tb497 2.421 . S
O532 C549 1.262 . S
O533 Tb486 2.320 . S
O533 C549 1.260 . S
O534 Tb486 2.552 . S
O534 C542 1.243 . S
O535 Tb486 2.413 . S
O535 C550 1.256 . S
O536 Tb497 2.546 . S
O536 C561 1.251 . S
O537 Tb486 2.362 . S
O537 Tb497 2.610 . S
O537 C553 1.283 . S
O538 Tb486 2.421 . S
O538 C560 1.262 . S
O539 Tb497 2.320 . S
O539 C560 1.260 . S
O540 Tb497 2.552 . S
O540 C553 1.243 . S
O541 Tb497 2.413 . S
O541 C561 1.256 . S
C542 O531 1.283 . S
C542 O534 1.243 . S
C543 C545 1.382 . S
C543 C547 1.393 . S
C543 C550 1.500 . S
C544 C545 1.400 . S
C544 C546 1.384 . S
C545 C543 1.382 . S
C545 C544 1.400 . S
C545 H562 0.930 . S
C546 C544 1.384 . S
C546 C548 1.392 . S
C546 H563 0.931 . S
C547 C543 1.393 . S
C547 C548 1.401 . S
C547 H564 0.930 . S
C548 C546 1.392 . S
C548 C547 1.401 . S
C548 H565 0.930 . S
C549 O532 1.262 . S
C549 O533 1.260 . S
C550 Tb486 2.833 . S
C550 O530 1.251 . S
C550 O535 1.256 . S
C550 C543 1.500 . S
C551 H516 0.929 . S
C551 C529 1.444 . S
C551 C552 1.317 . S
C552 H514 0.930 . S
C552 C520 1.432 . S
C552 C551 1.317 . S
C553 O537 1.283 . S
C553 O540 1.243 . S
C554 C555 1.382 . S
C554 C558 1.393 . S
C554 C561 1.500 . S
C555 C554 1.382 . S
C555 C556 1.400 . S
C555 H566 0.930 . S
C556 C555 1.400 . S
C556 C557 1.384 . S
C557 C556 1.384 . S
C557 C559 1.392 . S
C557 H567 0.931 . S
C558 C554 1.393 . S
C558 C559 1.401 . S
C558 H568 0.930 . S
C559 C557 1.392 . S
C559 C558 1.401 . S
C559 H569 0.930 . S
C560 O538 1.262 . S
C560 O539 1.260 . S
C561 Tb497 2.833 . S
C561 O536 1.251 . S
C561 O541 1.256 . S
C561 C554 1.500 . S
H562 C545 0.930 . S
H563 C546 0.931 . S
H564 C547 0.930 . S
H565 C548 0.930 . S
H566 C555 0.930 . S
H567 C557 0.931 . S
H568 C558 0.930 . S
H569 C559 0.930 . S
Tb570 N601 2.660 . S
Tb570 N608 2.600 . S
Tb570 O614 2.546 . S
Tb570 O615 2.610 . S
Tb570 O617 2.320 . S
Tb570 O618 2.552 . S
Tb570 O619 2.413 . S
Tb570 O621 2.362 . S
Tb570 O622 2.421 . S
Tb570 C634 2.833 . S
C571 C574 1.432 . S
C571 C575 1.414 . S
C571 N578 1.359 . S
C572 C574 1.417 . S
C572 C576 1.432 . S
C572 C584 1.410 . S
C573 C575 1.444 . S
C573 C576 1.317 . S
C573 H596 0.929 . S
C574 C571 1.432 . S
C574 C572 1.417 . S
C574 N582 1.360 . S
C575 C571 1.414 . S
C575 C573 1.444 . S
C575 C580 1.385 . S
C576 C572 1.432 . S
C576 C573 1.317 . S
C576 H588 0.930 . S
C577 C579 1.392 . S
C577 C580 1.370 . S
C577 H589 0.931 . S
N578 C571 1.359 . S
N578 C579 1.327 . S
N578 Tb581 2.600 . S
C579 C577 1.392 . S
C579 N578 1.327 . S
C579 H586 0.930 . S
C580 C575 1.385 . S
C580 C577 1.370 . S
C580 H599 0.930 . S
Tb581 N578 2.600 . S
Tb581 N582 2.660 . S
Tb581 O615 2.362 . S
Tb581 O616 2.421 . S
Tb581 O620 2.546 . S
Tb581 O621 2.610 . S
Tb581 O623 2.320 . S
Tb581 O624 2.552 . S
Tb581 O625 2.413 . S
Tb581 C645 2.833 . S
N582 C574 1.360 . S
N582 Tb581 2.660 . S
N582 C583 1.305 . S
C583 N582 1.305 . S
C583 C585 1.407 . S
C583 H590 0.930 . S
C584 C572 1.410 . S
C584 C585 1.345 . S
C584 H592 0.930 . S
C585 C583 1.407 . S
C585 C584 1.345 . S
C585 H587 0.930 . S
H586 C579 0.930 . S
H587 C585 0.930 . S
H588 C576 0.930 . S
H589 C577 0.931 . S
H590 C583 0.930 . S
H591 C605 0.930 . S
H592 C584 0.930 . S
H593 C611 0.930 . S
H594 C602 0.930 . S
H595 C609 0.931 . S
H596 C573 0.929 . S
H597 C603 0.930 . S
H598 C636 0.930 . S
H599 C580 0.930 . S
H600 C635 0.929 . S
N601 Tb570 2.660 . S
N601 C602 1.305 . S
N601 C606 1.360 . S
C602 H594 0.930 . S
C602 N601 1.305 . S
C602 C605 1.407 . S
C603 H597 0.930 . S
C603 C604 1.410 . S
C603 C605 1.345 . S
C604 C603 1.410 . S
C604 C606 1.417 . S
C604 C636 1.432 . S
C605 H591 0.930 . S
C605 C602 1.407 . S
C605 C603 1.345 . S
C606 N601 1.360 . S
C606 C604 1.417 . S
C606 C610 1.432 . S
H607 C612 0.930 . S
N608 Tb570 2.600 . S
N608 C610 1.359 . S
N608 C611 1.327 . S
C609 H595 0.931 . S
C609 C611 1.392 . S
C609 C612 1.370 . S
C610 C606 1.432 . S
C610 N608 1.359 . S
C610 C613 1.414 . S
C611 H593 0.930 . S
C611 N608 1.327 . S
C611 C609 1.392 . S
C612 H607 0.930 . S
C612 C609 1.370 . S
C612 C613 1.385 . S
C613 C610 1.414 . S
C613 C612 1.385 . S
C613 C635 1.444 . S
O614 Tb570 2.546 . S
O614 C634 1.251 . S
O615 Tb570 2.610 . S
O615 Tb581 2.362 . S
O615 C626 1.283 . S
O616 Tb581 2.421 . S
O616 C633 1.262 . S
O617 Tb570 2.320 . S
O617 C633 1.260 . S
O618 Tb570 2.552 . S
O618 C626 1.243 . S
O619 Tb570 2.413 . S
O619 C634 1.256 . S
O620 Tb581 2.546 . S
O620 C645 1.251 . S
O621 Tb570 2.362 . S
O621 Tb581 2.610 . S
O621 C637 1.283 . S
O622 Tb570 2.421 . S
O622 C644 1.262 . S
O623 Tb581 2.320 . S
O623 C644 1.260 . S
O624 Tb581 2.552 . S
O624 C637 1.243 . S
O625 Tb581 2.413 . S
O625 C645 1.256 . S
C626 O615 1.283 . S
C626 O618 1.243 . S
C627 C629 1.382 . S
C627 C631 1.393 . S
C627 C634 1.500 . S
C628 C629 1.400 . S
C628 C630 1.384 . S
C629 C627 1.382 . S
C629 C628 1.400 . S
C629 H646 0.930 . S
C630 C628 1.384 . S
C630 C632 1.392 . S
C630 H647 0.931 . S
C631 C627 1.393 . S
C631 C632 1.401 . S
C631 H648 0.930 . S
C632 C630 1.392 . S
C632 C631 1.401 . S
C632 H649 0.930 . S
C633 O616 1.262 . S
C633 O617 1.260 . S
C634 Tb570 2.833 . S
C634 O614 1.251 . S
C634 O619 1.256 . S
C634 C627 1.500 . S
C635 H600 0.929 . S
C635 C613 1.444 . S
C635 C636 1.317 . S
C636 H598 0.930 . S
C636 C604 1.432 . S
C636 C635 1.317 . S
C637 O621 1.283 . S
C637 O624 1.243 . S
C638 C639 1.382 . S
C638 C642 1.393 . S
C638 C645 1.500 . S
C639 C638 1.382 . S
C639 C640 1.400 . S
C639 H650 0.930 . S
C640 C639 1.400 . S
C640 C641 1.384 . S
C641 C640 1.384 . S
C641 C643 1.392 . S
C641 H651 0.931 . S
C642 C638 1.393 . S
C642 C643 1.401 . S
C642 H652 0.930 . S
C643 C641 1.392 . S
C643 C642 1.401 . S
C643 H653 0.930 . S
C644 O622 1.262 . S
C644 O623 1.260 . S
C645 Tb581 2.833 . S
C645 O620 1.251 . S
C645 O625 1.256 . S
C645 C638 1.500 . S
H646 C629 0.930 . S
H647 C630 0.931 . S
H648 C631 0.930 . S
H649 C632 0.930 . S
H650 C639 0.930 . S
H651 C641 0.931 . S
H652 C642 0.930 . S
H653 C643 0.930 . S
Tb654 N685 2.660 . S
Tb654 N692 2.600 . S
Tb654 O698 2.546 . S
Tb654 O699 2.610 . S
Tb654 O701 2.320 . S
Tb654 O702 2.552 . S
Tb654 O703 2.413 . S
Tb654 O705 2.362 . S
Tb654 O706 2.421 . S
Tb654 C718 2.833 . S
C655 C658 1.432 . S
C655 C659 1.414 . S
C655 N662 1.359 . S
C656 C658 1.417 . S
C656 C660 1.432 . S
C656 C668 1.410 . S
C657 C659 1.444 . S
C657 C660 1.317 . S
C657 H680 0.929 . S
C658 C655 1.432 . S
C658 C656 1.417 . S
C658 N666 1.360 . S
C659 C655 1.414 . S
C659 C657 1.444 . S
C659 C664 1.385 . S
C660 C656 1.432 . S
C660 C657 1.317 . S
C660 H672 0.930 . S
C661 C663 1.392 . S
C661 C664 1.370 . S
C661 H673 0.931 . S
N662 C655 1.359 . S
N662 C663 1.327 . S
N662 Tb665 2.600 . S
C663 C661 1.392 . S
C663 N662 1.327 . S
C663 H670 0.930 . S
C664 C659 1.385 . S
C664 C661 1.370 . S
C664 H683 0.930 . S
Tb665 N662 2.600 . S
Tb665 N666 2.660 . S
Tb665 O699 2.362 . S
Tb665 O700 2.421 . S
Tb665 O704 2.546 . S
Tb665 O705 2.610 . S
Tb665 O707 2.320 . S
Tb665 O708 2.552 . S
Tb665 O709 2.413 . S
Tb665 C729 2.833 . S
N666 C658 1.360 . S
N666 Tb665 2.660 . S
N666 C667 1.305 . S
C667 N666 1.305 . S
C667 C669 1.407 . S
C667 H674 0.930 . S
C668 C656 1.410 . S
C668 C669 1.345 . S
C668 H676 0.930 . S
C669 C667 1.407 . S
C669 C668 1.345 . S
C669 H671 0.930 . S
H670 C663 0.930 . S
H671 C669 0.930 . S
H672 C660 0.930 . S
H673 C661 0.931 . S
H674 C667 0.930 . S
H675 C689 0.930 . S
H676 C668 0.930 . S
H677 C695 0.930 . S
H678 C686 0.930 . S
H679 C693 0.931 . S
H680 C657 0.929 . S
H681 C687 0.930 . S
H682 C720 0.930 . S
H683 C664 0.930 . S
H684 C719 0.929 . S
N685 Tb654 2.660 . S
N685 C686 1.305 . S
N685 C690 1.360 . S
C686 H678 0.930 . S
C686 N685 1.305 . S
C686 C689 1.407 . S
C687 H681 0.930 . S
C687 C688 1.410 . S
C687 C689 1.345 . S
C688 C687 1.410 . S
C688 C690 1.417 . S
C688 C720 1.432 . S
C689 H675 0.930 . S
C689 C686 1.407 . S
C689 C687 1.345 . S
C690 N685 1.360 . S
C690 C688 1.417 . S
C690 C694 1.432 . S
H691 C696 0.930 . S
N692 Tb654 2.600 . S
N692 C694 1.359 . S
N692 C695 1.327 . S
C693 H679 0.931 . S
C693 C695 1.392 . S
C693 C696 1.370 . S
C694 C690 1.432 . S
C694 N692 1.359 . S
C694 C697 1.414 . S
C695 H677 0.930 . S
C695 N692 1.327 . S
C695 C693 1.392 . S
C696 H691 0.930 . S
C696 C693 1.370 . S
C696 C697 1.385 . S
C697 C694 1.414 . S
C697 C696 1.385 . S
C697 C719 1.444 . S
O698 Tb654 2.546 . S
O698 C718 1.251 . S
O699 Tb654 2.610 . S
O699 Tb665 2.362 . S
O699 C710 1.283 . S
O700 Tb665 2.421 . S
O700 C717 1.262 . S
O701 Tb654 2.320 . S
O701 C717 1.260 . S
O702 Tb654 2.552 . S
O702 C710 1.243 . S
O703 Tb654 2.413 . S
O703 C718 1.256 . S
O704 Tb665 2.546 . S
O704 C729 1.251 . S
O705 Tb654 2.362 . S
O705 Tb665 2.610 . S
O705 C721 1.283 . S
O706 Tb654 2.421 . S
O706 C728 1.262 . S
O707 Tb665 2.320 . S
O707 C728 1.260 . S
O708 Tb665 2.552 . S
O708 C721 1.243 . S
O709 Tb665 2.413 . S
O709 C729 1.256 . S
C710 O699 1.283 . S
C710 O702 1.243 . S
C711 C713 1.382 . S
C711 C715 1.393 . S
C711 C718 1.500 . S
C712 C713 1.400 . S
C712 C714 1.384 . S
C713 C711 1.382 . S
C713 C712 1.400 . S
C713 H730 0.930 . S
C714 C712 1.384 . S
C714 C716 1.392 . S
C714 H731 0.931 . S
C715 C711 1.393 . S
C715 C716 1.401 . S
C715 H732 0.930 . S
C716 C714 1.392 . S
C716 C715 1.401 . S
C716 H733 0.930 . S
C717 O700 1.262 . S
C717 O701 1.260 . S
C718 Tb654 2.833 . S
C718 O698 1.251 . S
C718 O703 1.256 . S
C718 C711 1.500 . S
C719 H684 0.929 . S
C719 C697 1.444 . S
C719 C720 1.317 . S
C720 H682 0.930 . S
C720 C688 1.432 . S
C720 C719 1.317 . S
C721 O705 1.283 . S
C721 O708 1.243 . S
C722 C723 1.382 . S
C722 C726 1.393 . S
C722 C729 1.500 . S
C723 C722 1.382 . S
C723 C724 1.400 . S
C723 H734 0.930 . S
C724 C723 1.400 . S
C724 C725 1.384 . S
C725 C724 1.384 . S
C725 C727 1.392 . S
C725 H735 0.931 . S
C726 C722 1.393 . S
C726 C727 1.401 . S
C726 H736 0.930 . S
C727 C725 1.392 . S
C727 C726 1.401 . S
C727 H737 0.930 . S
C728 O706 1.262 . S
C728 O707 1.260 . S
C729 Tb665 2.833 . S
C729 O704 1.251 . S
C729 O709 1.256 . S
C729 C722 1.500 . S
H730 C713 0.930 . S
H731 C714 0.931 . S
H732 C715 0.930 . S
H733 C716 0.930 . S
H734 C723 0.930 . S
H735 C725 0.931 . S
H736 C726 0.930 . S
H737 C727 0.930 . S
Tb738 N769 2.660 . S
Tb738 N776 2.600 . S
Tb738 O782 2.546 . S
Tb738 O783 2.610 . S
Tb738 O785 2.320 . S
Tb738 O786 2.552 . S
Tb738 O787 2.413 . S
Tb738 O789 2.362 . S
Tb738 O790 2.421 . S
Tb738 C802 2.833 . S
C739 C742 1.432 . S
C739 C743 1.414 . S
C739 N746 1.359 . S
C740 C742 1.417 . S
C740 C744 1.432 . S
C740 C752 1.410 . S
C741 C743 1.444 . S
C741 C744 1.317 . S
C741 H764 0.929 . S
C742 C739 1.432 . S
C742 C740 1.417 . S
C742 N750 1.360 . S
C743 C739 1.414 . S
C743 C741 1.444 . S
C743 C748 1.385 . S
C744 C740 1.432 . S
C744 C741 1.317 . S
C744 H756 0.930 . S
C745 C747 1.392 . S
C745 C748 1.370 . S
C745 H757 0.931 . S
N746 C739 1.359 . S
N746 C747 1.327 . S
N746 Tb749 2.600 . S
C747 C745 1.392 . S
C747 N746 1.327 . S
C747 H754 0.930 . S
C748 C743 1.385 . S
C748 C745 1.370 . S
C748 H767 0.930 . S
Tb749 N746 2.600 . S
Tb749 N750 2.660 . S
Tb749 O783 2.362 . S
Tb749 O784 2.421 . S
Tb749 O788 2.546 . S
Tb749 O789 2.610 . S
Tb749 O791 2.320 . S
Tb749 O792 2.552 . S
Tb749 O793 2.413 . S
Tb749 C813 2.833 . S
N750 C742 1.360 . S
N750 Tb749 2.660 . S
N750 C751 1.305 . S
C751 N750 1.305 . S
C751 C753 1.407 . S
C751 H758 0.930 . S
C752 C740 1.410 . S
C752 C753 1.345 . S
C752 H760 0.930 . S
C753 C751 1.407 . S
C753 C752 1.345 . S
C753 H755 0.930 . S
H754 C747 0.930 . S
H755 C753 0.930 . S
H756 C744 0.930 . S
H757 C745 0.931 . S
H758 C751 0.930 . S
H759 C773 0.930 . S
H760 C752 0.930 . S
H761 C779 0.930 . S
H762 C770 0.930 . S
H763 C777 0.931 . S
H764 C741 0.929 . S
H765 C771 0.930 . S
H766 C804 0.930 . S
H767 C748 0.930 . S
H768 C803 0.929 . S
N769 Tb738 2.660 . S
N769 C770 1.305 . S
N769 C774 1.360 . S
C770 H762 0.930 . S
C770 N769 1.305 . S
C770 C773 1.407 . S
C771 H765 0.930 . S
C771 C772 1.410 . S
C771 C773 1.345 . S
C772 C771 1.410 . S
C772 C774 1.417 . S
C772 C804 1.432 . S
C773 H759 0.930 . S
C773 C770 1.407 . S
C773 C771 1.345 . S
C774 N769 1.360 . S
C774 C772 1.417 . S
C774 C778 1.432 . S
H775 C780 0.930 . S
N776 Tb738 2.600 . S
N776 C778 1.359 . S
N776 C779 1.327 . S
C777 H763 0.931 . S
C777 C779 1.392 . S
C777 C780 1.370 . S
C778 C774 1.432 . S
C778 N776 1.359 . S
C778 C781 1.414 . S
C779 H761 0.930 . S
C779 N776 1.327 . S
C779 C777 1.392 . S
C780 H775 0.930 . S
C780 C777 1.370 . S
C780 C781 1.385 . S
C781 C778 1.414 . S
C781 C780 1.385 . S
C781 C803 1.444 . S
O782 Tb738 2.546 . S
O782 C802 1.251 . S
O783 Tb738 2.610 . S
O783 Tb749 2.362 . S
O783 C794 1.283 . S
O784 Tb749 2.421 . S
O784 C801 1.262 . S
O785 Tb738 2.320 . S
O785 C801 1.260 . S
O786 Tb738 2.552 . S
O786 C794 1.243 . S
O787 Tb738 2.413 . S
O787 C802 1.256 . S
O788 Tb749 2.546 . S
O788 C813 1.251 . S
O789 Tb738 2.362 . S
O789 Tb749 2.610 . S
O789 C805 1.283 . S
O790 Tb738 2.421 . S
O790 C812 1.262 . S
O791 Tb749 2.320 . S
O791 C812 1.260 . S
O792 Tb749 2.552 . S
O792 C805 1.243 . S
O793 Tb749 2.413 . S
O793 C813 1.256 . S
C794 O783 1.283 . S
C794 O786 1.243 . S
C795 C797 1.382 . S
C795 C799 1.393 . S
C795 C802 1.500 . S
C796 C797 1.400 . S
C796 C798 1.384 . S
C797 C795 1.382 . S
C797 C796 1.400 . S
C797 H814 0.930 . S
C798 C796 1.384 . S
C798 C800 1.392 . S
C798 H815 0.931 . S
C799 C795 1.393 . S
C799 C800 1.401 . S
C799 H816 0.930 . S
C800 C798 1.392 . S
C800 C799 1.401 . S
C800 H817 0.930 . S
C801 O784 1.262 . S
C801 O785 1.260 . S
C802 Tb738 2.833 . S
C802 O782 1.251 . S
C802 O787 1.256 . S
C802 C795 1.500 . S
C803 H768 0.929 . S
C803 C781 1.444 . S
C803 C804 1.317 . S
C804 H766 0.930 . S
C804 C772 1.432 . S
C804 C803 1.317 . S
C805 O789 1.283 . S
C805 O792 1.243 . S
C806 C807 1.382 . S
C806 C810 1.393 . S
C806 C813 1.500 . S
C807 C806 1.382 . S
C807 C808 1.400 . S
C807 H818 0.930 . S
C808 C807 1.400 . S
C808 C809 1.384 . S
C809 C808 1.384 . S
C809 C811 1.392 . S
C809 H819 0.931 . S
C810 C806 1.393 . S
C810 C811 1.401 . S
C810 H820 0.930 . S
C811 C809 1.392 . S
C811 C810 1.401 . S
C811 H821 0.930 . S
C812 O790 1.262 . S
C812 O791 1.260 . S
C813 Tb749 2.833 . S
C813 O788 1.251 . S
C813 O793 1.256 . S
C813 C806 1.500 . S
H814 C797 0.930 . S
H815 C798 0.931 . S
H816 C799 0.930 . S
H817 C800 0.930 . S
H818 C807 0.930 . S
H819 C809 0.931 . S
H820 C810 0.930 . S
H821 C811 0.930 . S
Tb822 N853 2.660 . S
Tb822 N860 2.600 . S
Tb822 O866 2.546 . S
Tb822 O867 2.610 . S
Tb822 O869 2.320 . S
Tb822 O870 2.552 . S
Tb822 O871 2.413 . S
Tb822 O873 2.362 . S
Tb822 O874 2.421 . S
Tb822 C886 2.833 . S
C823 C826 1.432 . S
C823 C827 1.414 . S
C823 N830 1.359 . S
C824 C826 1.417 . S
C824 C828 1.432 . S
C824 C836 1.410 . S
C825 C827 1.444 . S
C825 C828 1.317 . S
C825 H848 0.929 . S
C826 C823 1.432 . S
C826 C824 1.417 . S
C826 N834 1.360 . S
C827 C823 1.414 . S
C827 C825 1.444 . S
C827 C832 1.385 . S
C828 C824 1.432 . S
C828 C825 1.317 . S
C828 H840 0.930 . S
C829 C831 1.392 . S
C829 C832 1.370 . S
C829 H841 0.931 . S
N830 C823 1.359 . S
N830 C831 1.327 . S
N830 Tb833 2.600 . S
C831 C829 1.392 . S
C831 N830 1.327 . S
C831 H838 0.930 . S
C832 C827 1.385 . S
C832 C829 1.370 . S
C832 H851 0.930 . S
Tb833 N830 2.600 . S
Tb833 N834 2.660 . S
Tb833 O867 2.362 . S
Tb833 O868 2.421 . S
Tb833 O872 2.546 . S
Tb833 O873 2.610 . S
Tb833 O875 2.320 . S
Tb833 O876 2.552 . S
Tb833 O877 2.413 . S
Tb833 C897 2.833 . S
N834 C826 1.360 . S
N834 Tb833 2.660 . S
N834 C835 1.305 . S
C835 N834 1.305 . S
C835 C837 1.407 . S
C835 H842 0.930 . S
C836 C824 1.410 . S
C836 C837 1.345 . S
C836 H844 0.930 . S
C837 C835 1.407 . S
C837 C836 1.345 . S
C837 H839 0.930 . S
H838 C831 0.930 . S
H839 C837 0.930 . S
H840 C828 0.930 . S
H841 C829 0.931 . S
H842 C835 0.930 . S
H843 C857 0.930 . S
H844 C836 0.930 . S
H845 C863 0.930 . S
H846 C854 0.930 . S
H847 C861 0.931 . S
H848 C825 0.929 . S
H849 C855 0.930 . S
H850 C888 0.930 . S
H851 C832 0.930 . S
H852 C887 0.929 . S
N853 Tb822 2.660 . S
N853 C854 1.305 . S
N853 C858 1.360 . S
C854 H846 0.930 . S
C854 N853 1.305 . S
C854 C857 1.407 . S
C855 H849 0.930 . S
C855 C856 1.410 . S
C855 C857 1.345 . S
C856 C855 1.410 . S
C856 C858 1.417 . S
C856 C888 1.432 . S
C857 H843 0.930 . S
C857 C854 1.407 . S
C857 C855 1.345 . S
C858 N853 1.360 . S
C858 C856 1.417 . S
C858 C862 1.432 . S
H859 C864 0.930 . S
N860 Tb822 2.600 . S
N860 C862 1.359 . S
N860 C863 1.327 . S
C861 H847 0.931 . S
C861 C863 1.392 . S
C861 C864 1.370 . S
C862 C858 1.432 . S
C862 N860 1.359 . S
C862 C865 1.414 . S
C863 H845 0.930 . S
C863 N860 1.327 . S
C863 C861 1.392 . S
C864 H859 0.930 . S
C864 C861 1.370 . S
C864 C865 1.385 . S
C865 C862 1.414 . S
C865 C864 1.385 . S
C865 C887 1.444 . S
O866 Tb822 2.546 . S
O866 C886 1.251 . S
O867 Tb822 2.610 . S
O867 Tb833 2.362 . S
O867 C878 1.283 . S
O868 Tb833 2.421 . S
O868 C885 1.262 . S
O869 Tb822 2.320 . S
O869 C885 1.260 . S
O870 Tb822 2.552 . S
O870 C878 1.243 . S
O871 Tb822 2.413 . S
O871 C886 1.256 . S
O872 Tb833 2.546 . S
O872 C897 1.251 . S
O873 Tb822 2.362 . S
O873 Tb833 2.610 . S
O873 C889 1.283 . S
O874 Tb822 2.421 . S
O874 C896 1.262 . S
O875 Tb833 2.320 . S
O875 C896 1.260 . S
O876 Tb833 2.552 . S
O876 C889 1.243 . S
O877 Tb833 2.413 . S
O877 C897 1.256 . S
C878 O867 1.283 . S
C878 O870 1.243 . S
C879 C881 1.382 . S
C879 C883 1.393 . S
C879 C886 1.500 . S
C880 C881 1.400 . S
C880 C882 1.384 . S
C881 C879 1.382 . S
C881 C880 1.400 . S
C881 H898 0.930 . S
C882 C880 1.384 . S
C882 C884 1.392 . S
C882 H899 0.931 . S
C883 C879 1.393 . S
C883 C884 1.401 . S
C883 H900 0.930 . S
C884 C882 1.392 . S
C884 C883 1.401 . S
C884 H901 0.930 . S
C885 O868 1.262 . S
C885 O869 1.260 . S
C886 Tb822 2.833 . S
C886 O866 1.251 . S
C886 O871 1.256 . S
C886 C879 1.500 . S
C887 H852 0.929 . S
C887 C865 1.444 . S
C887 C888 1.317 . S
C888 H850 0.930 . S
C888 C856 1.432 . S
C888 C887 1.317 . S
C889 O873 1.283 . S
C889 O876 1.243 . S
C890 C891 1.382 . S
C890 C894 1.393 . S
C890 C897 1.500 . S
C891 C890 1.382 . S
C891 C892 1.400 . S
C891 H902 0.930 . S
C892 C891 1.400 . S
C892 C893 1.384 . S
C893 C892 1.384 . S
C893 C895 1.392 . S
C893 H903 0.931 . S
C894 C890 1.393 . S
C894 C895 1.401 . S
C894 H904 0.930 . S
C895 C893 1.392 . S
C895 C894 1.401 . S
C895 H905 0.930 . S
C896 O874 1.262 . S
C896 O875 1.260 . S
C897 Tb833 2.833 . S
C897 O872 1.251 . S
C897 O877 1.256 . S
C897 C890 1.500 . S
H898 C881 0.930 . S
H899 C882 0.931 . S
H900 C883 0.930 . S
H901 C884 0.930 . S
H902 C891 0.930 . S
H903 C893 0.931 . S
H904 C894 0.930 . S
H905 C895 0.930 . S
Tb906 N937 2.660 . S
Tb906 N944 2.600 . S
Tb906 O950 2.546 . S
Tb906 O951 2.610 . S
Tb906 O953 2.320 . S
Tb906 O954 2.552 . S
Tb906 O955 2.413 . S
Tb906 O957 2.362 . S
Tb906 O958 2.421 . S
Tb906 C970 2.833 . S
C907 C910 1.432 . S
C907 C911 1.414 . S
C907 N914 1.359 . S
C908 C910 1.417 . S
C908 C912 1.432 . S
C908 C920 1.410 . S
C909 C911 1.444 . S
C909 C912 1.317 . S
C909 H932 0.929 . S
C910 C907 1.432 . S
C910 C908 1.417 . S
C910 N918 1.360 . S
C911 C907 1.414 . S
C911 C909 1.444 . S
C911 C916 1.385 . S
C912 C908 1.432 . S
C912 C909 1.317 . S
C912 H924 0.930 . S
C913 C915 1.392 . S
C913 C916 1.370 . S
C913 H925 0.931 . S
N914 C907 1.359 . S
N914 C915 1.327 . S
N914 Tb917 2.600 . S
C915 C913 1.392 . S
C915 N914 1.327 . S
C915 H922 0.930 . S
C916 C911 1.385 . S
C916 C913 1.370 . S
C916 H935 0.930 . S
Tb917 N914 2.600 . S
Tb917 N918 2.660 . S
Tb917 O951 2.362 . S
Tb917 O952 2.421 . S
Tb917 O956 2.546 . S
Tb917 O957 2.610 . S
Tb917 O959 2.320 . S
Tb917 O960 2.552 . S
Tb917 O961 2.413 . S
Tb917 C981 2.833 . S
N918 C910 1.360 . S
N918 Tb917 2.660 . S
N918 C919 1.305 . S
C919 N918 1.305 . S
C919 C921 1.407 . S
C919 H926 0.930 . S
C920 C908 1.410 . S
C920 C921 1.345 . S
C920 H928 0.930 . S
C921 C919 1.407 . S
C921 C920 1.345 . S
C921 H923 0.930 . S
H922 C915 0.930 . S
H923 C921 0.930 . S
H924 C912 0.930 . S
H925 C913 0.931 . S
H926 C919 0.930 . S
H927 C941 0.930 . S
H928 C920 0.930 . S
H929 C947 0.930 . S
H930 C938 0.930 . S
H931 C945 0.931 . S
H932 C909 0.929 . S
H933 C939 0.930 . S
H934 C972 0.930 . S
H935 C916 0.930 . S
H936 C971 0.929 . S
N937 Tb906 2.660 . S
N937 C938 1.305 . S
N937 C942 1.360 . S
C938 H930 0.930 . S
C938 N937 1.305 . S
C938 C941 1.407 . S
C939 H933 0.930 . S
C939 C940 1.410 . S
C939 C941 1.345 . S
C940 C939 1.410 . S
C940 C942 1.417 . S
C940 C972 1.432 . S
C941 H927 0.930 . S
C941 C938 1.407 . S
C941 C939 1.345 . S
C942 N937 1.360 . S
C942 C940 1.417 . S
C942 C946 1.432 . S
H943 C948 0.930 . S
N944 Tb906 2.600 . S
N944 C946 1.359 . S
N944 C947 1.327 . S
C945 H931 0.931 . S
C945 C947 1.392 . S
C945 C948 1.370 . S
C946 C942 1.432 . S
C946 N944 1.359 . S
C946 C949 1.414 . S
C947 H929 0.930 . S
C947 N944 1.327 . S
C947 C945 1.392 . S
C948 H943 0.930 . S
C948 C945 1.370 . S
C948 C949 1.385 . S
C949 C946 1.414 . S
C949 C948 1.385 . S
C949 C971 1.444 . S
O950 Tb906 2.546 . S
O950 C970 1.251 . S
O951 Tb906 2.610 . S
O951 Tb917 2.362 . S
O951 C962 1.283 . S
O952 Tb917 2.421 . S
O952 C969 1.262 . S
O953 Tb906 2.320 . S
O953 C969 1.260 . S
O954 Tb906 2.552 . S
O954 C962 1.243 . S
O955 Tb906 2.413 . S
O955 C970 1.256 . S
O956 Tb917 2.546 . S
O956 C981 1.251 . S
O957 Tb906 2.362 . S
O957 Tb917 2.610 . S
O957 C973 1.283 . S
O958 Tb906 2.421 . S
O958 C980 1.262 . S
O959 Tb917 2.320 . S
O959 C980 1.260 . S
O960 Tb917 2.552 . S
O960 C973 1.243 . S
O961 Tb917 2.413 . S
O961 C981 1.256 . S
C962 O951 1.283 . S
C962 O954 1.243 . S
C963 C965 1.382 . S
C963 C967 1.393 . S
C963 C970 1.500 . S
C964 C965 1.400 . S
C964 C966 1.384 . S
C965 C963 1.382 . S
C965 C964 1.400 . S
C965 H982 0.930 . S
C966 C964 1.384 . S
C966 C968 1.392 . S
C966 H983 0.931 . S
C967 C963 1.393 . S
C967 C968 1.401 . S
C967 H984 0.930 . S
C968 C966 1.392 . S
C968 C967 1.401 . S
C968 H985 0.930 . S
C969 O952 1.262 . S
C969 O953 1.260 . S
C970 Tb906 2.833 . S
C970 O950 1.251 . S
C970 O955 1.256 . S
C970 C963 1.500 . S
C971 H936 0.929 . S
C971 C949 1.444 . S
C971 C972 1.317 . S
C972 H934 0.930 . S
C972 C940 1.432 . S
C972 C971 1.317 . S
C973 O957 1.283 . S
C973 O960 1.243 . S
C974 C975 1.382 . S
C974 C978 1.393 . S
C974 C981 1.500 . S
C975 C974 1.382 . S
C975 C976 1.400 . S
C975 H986 0.930 . S
C976 C975 1.400 . S
C976 C977 1.384 . S
C977 C976 1.384 . S
C977 C979 1.392 . S
C977 H987 0.931 . S
C978 C974 1.393 . S
C978 C979 1.401 . S
C978 H988 0.930 . S
C979 C977 1.392 . S
C979 C978 1.401 . S
C979 H989 0.930 . S
C980 O958 1.262 . S
C980 O959 1.260 . S
C981 Tb917 2.833 . S
C981 O956 1.251 . S
C981 O961 1.256 . S
C981 C974 1.500 . S
H982 C965 0.930 . S
H983 C966 0.931 . S
H984 C967 0.930 . S
H985 C968 0.930 . S
H986 C975 0.930 . S
H987 C977 0.931 . S
H988 C978 0.930 . S
H989 C979 0.930 . S
H990 C998 0.929 . S
H991 C1000 0.930 . S
H992 C1002 0.930 . S
H993 C1005 0.929 . S
H994 C1008 0.930 . S
H995 C1010 0.960 . S
H996 C1010 0.960 . S
H997 C1010 0.960 . S
C998 H990 0.929 . S
C998 C999 1.377 . S
C998 C1000 1.384 . S
C999 C998 1.377 . S
C999 C1005 1.390 . S
C1000 H991 0.930 . S
C1000 C998 1.384 . S
C1000 C1001 1.372 . S
C1001 C1000 1.372 . S
C1001 C1002 1.400 . S
C1001 C1006 1.490 . S
C1002 H992 0.930 . S
C1002 C1001 1.400 . S
C1002 C1005 1.386 . S
H1003 C1019 0.930 . S
H1004 C1020 0.931 . S
C1005 H993 0.929 . S
C1005 C999 1.390 . S
C1005 C1002 1.386 . S
C1006 C1001 1.490 . S
C1006 C1008 1.395 . S
C1006 C1009 1.403 . S
H1007 C1013 0.930 . S
C1008 H994 0.930 . S
C1008 C1006 1.395 . S
C1008 C1011 1.403 . S
C1009 C1006 1.403 . S
C1009 C1010 1.524 . S
C1009 C1013 1.400 . S
C1010 H995 0.960 . S
C1010 H996 0.960 . S
C1010 H997 0.960 . S
C1010 C1009 1.524 . S
C1011 C1008 1.403 . S
C1011 C1012 1.392 . S
C1011 C1015 1.495 . S
C1012 C1011 1.392 . S
C1012 C1013 1.385 . S
C1012 C1014 1.478 . S
C1013 H1007 0.930 . S
C1013 C1009 1.400 . S
C1013 C1012 1.385 . S
C1014 C1012 1.478 . S
C1014 C1016 1.381 . S
C1014 C1020 1.383 . S
C1015 C1011 1.495 . S
C1015 H1021 0.959 . S
C1015 H1022 0.961 . S
C1015 H1023 0.960 . S
C1016 C1014 1.381 . S
C1016 C1017 1.394 . S
C1016 H1024 0.930 . S
C1017 C1016 1.394 . S
C1017 C1018 1.383 . S
C1017 H1025 0.929 . S
C1018 C1017 1.383 . S
C1018 C1019 1.377 . S
C1019 H1003 0.930 . S
C1019 C1018 1.377 . S
C1019 C1020 1.379 . S
C1020 H1004 0.931 . S
C1020 C1014 1.383 . S
C1020 C1019 1.379 . S
H1021 C1015 0.959 . S
H1022 C1015 0.961 . S
H1023 C1015 0.960 . S
H1024 C1016 0.930 . S
H1025 C1017 0.929 . S
H1026 C1034 0.929 . S
H1027 C1036 0.930 . S
H1028 C1038 0.930 . S
H1029 C1041 0.929 . S
H1030 C1044 0.930 . S
H1031 C1046 0.960 . S
H1032 C1046 0.960 . S
H1033 C1046 0.960 . S
C1034 H1026 0.929 . S
C1034 C1035 1.377 . S
C1034 C1036 1.384 . S
C1035 C1034 1.377 . S
C1035 C1041 1.390 . S
C1036 H1027 0.930 . S
C1036 C1034 1.384 . S
C1036 C1037 1.372 . S
C1037 C1036 1.372 . S
C1037 C1038 1.400 . S
C1037 C1042 1.490 . S
C1038 H1028 0.930 . S
C1038 C1037 1.400 . S
C1038 C1041 1.386 . S
H1039 C1055 0.930 1_556 S
H1040 C1056 0.931 . S
C1041 H1029 0.929 . S
C1041 C1035 1.390 . S
C1041 C1038 1.386 . S
C1042 C1037 1.490 . S
C1042 C1044 1.395 . S
C1042 C1045 1.403 . S
H1043 C1049 0.930 . S
C1044 H1030 0.930 . S
C1044 C1042 1.395 . S
C1044 C1047 1.403 . S
C1045 C1042 1.403 . S
C1045 C1046 1.524 . S
C1045 C1049 1.400 . S
C1046 H1031 0.960 . S
C1046 H1032 0.960 . S
C1046 H1033 0.960 . S
C1046 C1045 1.524 . S
C1047 C1044 1.403 . S
C1047 C1048 1.392 . S
C1047 C1051 1.495 . S
C1048 C1047 1.392 . S
C1048 C1049 1.385 . S
C1048 C1050 1.478 . S
C1049 H1043 0.930 . S
C1049 C1045 1.400 . S
C1049 C1048 1.385 . S
C1050 C1048 1.478 . S
C1050 C1052 1.381 . S
C1050 C1056 1.383 . S
C1051 C1047 1.495 . S
C1051 H1057 0.959 . S
C1051 H1058 0.961 . S
C1051 H1059 0.960 . S
C1052 C1050 1.381 . S
C1052 C1053 1.394 . S
C1052 H1060 0.930 . S
C1053 C1052 1.394 . S
C1053 C1054 1.383 . S
C1053 H1061 0.929 . S
C1054 C1053 1.383 . S
C1054 C1055 1.377 . S
C1055 H1039 0.930 1_554 S
C1055 C1054 1.377 . S
C1055 C1056 1.379 . S
C1056 H1040 0.931 . S
C1056 C1050 1.383 . S
C1056 C1055 1.379 . S
H1057 C1051 0.959 . S
H1058 C1051 0.961 . S
H1059 C1051 0.960 . S
H1060 C1052 0.930 . S
H1061 C1053 0.929 . S
H1062 C1070 0.929 . S
H1063 C1072 0.930 . S
H1064 C1074 0.930 . S
H1065 C1077 0.929 . S
H1066 C1080 0.930 . S
H1067 C1082 0.960 . S
H1068 C1082 0.960 . S
H1069 C1082 0.960 . S
C1070 H1062 0.929 . S
C1070 C1071 1.377 . S
C1070 C1072 1.384 . S
C1071 C1070 1.377 . S
C1071 C1077 1.390 . S
C1072 H1063 0.930 . S
C1072 C1070 1.384 . S
C1072 C1073 1.372 . S
C1073 C1072 1.372 . S
C1073 C1074 1.400 . S
C1073 C1078 1.490 . S
C1074 H1064 0.930 . S
C1074 C1073 1.400 . S
C1074 C1077 1.386 . S
H1075 C1091 0.930 . S
H1076 C1092 0.931 . S
C1077 H1065 0.929 . S
C1077 C1071 1.390 . S
C1077 C1074 1.386 . S
C1078 C1073 1.490 . S
C1078 C1080 1.395 . S
C1078 C1081 1.403 . S
H1079 C1085 0.930 . S
C1080 H1066 0.930 . S
C1080 C1078 1.395 . S
C1080 C1083 1.403 . S
C1081 C1078 1.403 . S
C1081 C1082 1.524 . S
C1081 C1085 1.400 . S
C1082 H1067 0.960 . S
C1082 H1068 0.960 . S
C1082 H1069 0.960 . S
C1082 C1081 1.524 . S
C1083 C1080 1.403 . S
C1083 C1084 1.392 . S
C1083 C1087 1.495 . S
C1084 C1083 1.392 . S
C1084 C1085 1.385 . S
C1084 C1086 1.478 . S
C1085 H1079 0.930 . S
C1085 C1081 1.400 . S
C1085 C1084 1.385 . S
C1086 C1084 1.478 . S
C1086 C1088 1.381 . S
C1086 C1092 1.383 . S
C1087 C1083 1.495 . S
C1087 H1093 0.959 . S
C1087 H1094 0.961 . S
C1087 H1095 0.960 . S
C1088 C1086 1.381 . S
C1088 C1089 1.394 . S
C1088 H1096 0.930 . S
C1089 C1088 1.394 . S
C1089 C1090 1.383 . S
C1089 H1097 0.929 . S
C1090 C1089 1.383 . S
C1090 C1091 1.377 . S
C1091 H1075 0.930 . S
C1091 C1090 1.377 . S
C1091 C1092 1.379 . S
C1092 H1076 0.931 . S
C1092 C1086 1.383 . S
C1092 C1091 1.379 . S
H1093 C1087 0.959 . S
H1094 C1087 0.961 . S
H1095 C1087 0.960 . S
H1096 C1088 0.930 . S
H1097 C1089 0.929 . S
H1098 C1106 0.929 . S
H1099 C1108 0.930 . S
H1100 C1110 0.930 . S
H1101 C1113 0.929 . S
H1102 C1116 0.930 . S
H1103 C1118 0.960 . S
H1104 C1118 0.960 . S
H1105 C1118 0.960 . S
C1106 H1098 0.929 . S
C1106 C1107 1.377 . S
C1106 C1108 1.384 . S
C1107 C1106 1.377 . S
C1107 C1113 1.390 . S
C1108 H1099 0.930 . S
C1108 C1106 1.384 . S
C1108 C1109 1.372 . S
C1109 C1108 1.372 . S
C1109 C1110 1.400 . S
C1109 C1114 1.490 . S
C1110 H1100 0.930 . S
C1110 C1109 1.400 . S
C1110 C1113 1.386 . S
H1111 C1127 0.930 . S
H1112 C1128 0.922 1_554 S
C1113 H1101 0.929 . S
C1113 C1107 1.390 . S
C1113 C1110 1.386 . S
C1114 C1109 1.490 . S
C1114 C1116 1.395 . S
C1114 C1117 1.403 . S
H1115 C1121 0.930 . S
C1116 H1102 0.930 . S
C1116 C1114 1.395 . S
C1116 C1119 1.403 . S
C1117 C1114 1.403 . S
C1117 C1118 1.524 . S
C1117 C1121 1.400 . S
C1118 H1103 0.960 . S
C1118 H1104 0.960 . S
C1118 H1105 0.960 . S
C1118 C1117 1.524 . S
C1119 C1116 1.403 . S
C1119 C1120 1.392 . S
C1119 C1123 1.495 1_556 S
C1120 C1119 1.392 . S
C1120 C1121 1.385 . S
C1120 C1122 1.478 . S
C1121 H1115 0.930 . S
C1121 C1117 1.400 . S
C1121 C1120 1.385 . S
C1122 C1120 1.478 . S
C1122 C1124 1.381 . S
C1122 C1128 1.407 . S
C1123 C1119 1.495 1_554 S
C1123 H1129 0.959 . S
C1123 H1130 0.961 . S
C1123 H1131 0.960 . S
C1124 C1122 1.381 . S
C1124 C1125 1.394 . S
C1124 H1132 0.930 . S
C1125 C1124 1.394 . S
C1125 C1126 1.383 . S
C1125 H1133 0.929 . S
C1126 C1125 1.383 . S
C1126 C1127 1.377 1_556 S
C1127 H1111 0.930 . S
C1127 C1126 1.377 1_554 S
C1127 C1128 1.367 1_554 S
C1128 H1112 0.922 1_556 S
C1128 C1122 1.407 . S
C1128 C1127 1.367 1_556 S
H1129 C1123 0.959 . S
H1130 C1123 0.961 . S
H1131 C1123 0.960 . S
H1132 C1124 0.930 . S
H1133 C1125 0.929 . S
H1134 C1142 0.929 . S
H1135 C1144 0.930 . S
H1136 C1146 0.930 . S
H1137 C1149 0.929 . S
H1138 C1152 0.930 . S
H1139 C1154 0.960 . S
H1140 C1154 0.960 . S
H1141 C1154 0.960 . S
C1142 H1134 0.929 . S
C1142 C1143 1.377 . S
C1142 C1144 1.384 . S
C1143 C1142 1.377 . S
C1143 C1149 1.390 . S
C1144 H1135 0.930 . S
C1144 C1142 1.384 . S
C1144 C1145 1.372 . S
C1145 C1144 1.372 . S
C1145 C1146 1.400 . S
C1145 C1150 1.490 . S
C1146 H1136 0.930 . S
C1146 C1145 1.400 . S
C1146 C1149 1.386 . S
H1147 C1163 0.930 . S
H1148 C1164 0.931 . S
C1149 H1137 0.929 . S
C1149 C1143 1.390 . S
C1149 C1146 1.386 . S
C1150 C1145 1.490 . S
C1150 C1152 1.395 . S
C1150 C1153 1.403 . S
H1151 C1157 0.930 . S
C1152 H1138 0.930 . S
C1152 C1150 1.395 . S
C1152 C1155 1.403 . S
C1153 C1150 1.403 . S
C1153 C1154 1.524 . S
C1153 C1157 1.400 . S
C1154 H1139 0.960 . S
C1154 H1140 0.960 . S
C1154 H1141 0.960 . S
C1154 C1153 1.524 . S
C1155 C1152 1.403 . S
C1155 C1156 1.392 . S
C1155 C1159 1.495 . S
C1156 C1155 1.392 . S
C1156 C1157 1.385 . S
C1156 C1158 1.478 . S
C1157 H1151 0.930 . S
C1157 C1153 1.400 . S
C1157 C1156 1.385 . S
C1158 C1156 1.478 . S
C1158 C1160 1.381 . S
C1158 C1164 1.383 1_556 S
C1159 C1155 1.495 . S
C1159 H1165 0.959 . S
C1159 H1166 0.961 . S
C1159 H1167 0.960 . S
C1160 C1158 1.381 . S
C1160 C1161 1.394 . S
C1160 H1168 0.930 . S
C1161 C1160 1.394 . S
C1161 C1162 1.383 1_556 S
C1161 H1169 0.929 . S
C1162 C1161 1.383 1_554 S
C1162 C1163 1.377 . S
C1163 H1147 0.930 . S
C1163 C1162 1.377 . S
C1163 C1164 1.379 . S
C1164 H1148 0.931 . S
C1164 C1158 1.383 1_554 S
C1164 C1163 1.379 . S
H1165 C1159 0.959 . S
H1166 C1159 0.961 . S
H1167 C1159 0.960 . S
H1168 C1160 0.930 . S
H1169 C1161 0.929 . S
H1170 C1178 0.929 . S
H1171 C1180 0.930 . S
H1172 C1182 0.930 . S
H1173 C1185 0.929 . S
H1174 C1188 0.930 . S
H1175 C1190 0.960 . S
H1176 C1190 0.957 . S
H1177 C1190 0.960 . S
C1178 H1170 0.929 . S
C1178 C1179 1.377 . S
C1178 C1180 1.384 . S
C1179 C1178 1.377 . S
C1179 C1185 1.390 . S
C1180 H1171 0.930 . S
C1180 C1178 1.384 . S
C1180 C1181 1.372 . S
C1181 C1180 1.372 . S
C1181 C1182 1.400 . S
C1181 C1186 1.490 . S
C1182 H1172 0.930 . S
C1182 C1181 1.400 . S
C1182 C1185 1.386 . S
H1183 C1199 0.930 . S
H1184 C1200 0.931 . S
C1185 H1173 0.929 . S
C1185 C1179 1.390 . S
C1185 C1182 1.386 . S
C1186 C1181 1.490 . S
C1186 C1188 1.395 . S
C1186 C1189 1.403 . S
H1187 C1193 0.930 1_554 S
C1188 H1174 0.930 . S
C1188 C1186 1.395 . S
C1188 C1191 1.403 . S
C1189 C1186 1.403 . S
C1189 C1190 1.524 1_556 S
C1189 C1193 1.400 . S
C1190 H1175 0.960 . S
C1190 H1176 0.957 . S
C1190 H1177 0.960 . S
C1190 C1189 1.524 1_554 S
C1191 C1188 1.403 . S
C1191 C1192 1.392 . S
C1191 C1195 1.495 . S
C1192 C1191 1.392 . S
C1192 C1193 1.385 . S
C1192 C1194 1.478 . S
C1193 H1187 0.930 1_556 S
C1193 C1189 1.400 . S
C1193 C1192 1.385 . S
C1194 C1192 1.478 . S
C1194 C1196 1.381 . S
C1194 C1200 1.383 1_556 S
C1195 C1191 1.495 . S
C1195 H1201 0.959 . S
C1195 H1202 0.961 . S
C1195 H1203 0.960 . S
C1196 C1194 1.381 . S
C1196 C1197 1.394 . S
C1196 H1204 0.930 . S
C1197 C1196 1.394 . S
C1197 C1198 1.324 1_556 S
C1197 H1205 0.929 . S
C1198 C1197 1.324 1_554 S
C1198 C1199 1.422 . S
C1199 H1183 0.930 . S
C1199 C1198 1.422 . S
C1199 C1200 1.379 . S
C1200 H1184 0.931 . S
C1200 C1194 1.383 1_554 S
C1200 C1199 1.379 . S
H1201 C1195 0.959 . S
H1202 C1195 0.961 . S
H1203 C1195 0.960 . S
H1204 C1196 0.930 . S
H1205 C1197 0.929 . S
H1206 C1214 0.929 . S
H1207 C1216 0.930 . S
H1208 C1218 0.930 . S
H1209 C1221 0.929 . S
H1210 C1224 0.930 1_554 S
H1211 C1226 0.960 . S
H1212 C1226 0.960 . S
H1213 C1226 0.960 . S
C1214 H1206 0.929 . S
C1214 C1215 1.377 . S
C1214 C1216 1.384 . S
C1215 C1214 1.377 . S
C1215 C1221 1.390 . S
C1216 H1207 0.930 . S
C1216 C1214 1.384 . S
C1216 C1217 1.372 . S
C1217 C1216 1.372 . S
C1217 C1218 1.400 . S
C1217 C1222 1.490 . S
C1218 H1208 0.930 . S
C1218 C1217 1.400 . S
C1218 C1221 1.386 . S
H1219 C1235 0.930 . S
H1220 C1236 0.931 . S
C1221 H1209 0.929 . S
C1221 C1215 1.390 . S
C1221 C1218 1.386 . S
C1222 C1217 1.490 . S
C1222 C1224 1.395 . S
C1222 C1225 1.403 . S
H1223 C1229 0.930 . S
C1224 H1210 0.930 1_556 S
C1224 C1222 1.395 . S
C1224 C1227 1.403 1_556 S
C1225 C1222 1.403 . S
C1225 C1226 1.524 . S
C1225 C1229 1.400 . S
C1226 H1211 0.960 . S
C1226 H1212 0.960 . S
C1226 H1213 0.960 . S
C1226 C1225 1.524 . S
C1227 C1224 1.403 1_554 S
C1227 C1228 1.392 1_554 S
C1227 C1231 1.495 . S
C1228 C1227 1.392 1_556 S
C1228 C1229 1.385 . S
C1228 C1230 1.478 . S
C1229 H1223 0.930 . S
C1229 C1225 1.400 . S
C1229 C1228 1.385 . S
C1230 C1228 1.478 . S
C1230 C1232 1.381 . S
C1230 C1236 1.383 . S
C1231 C1227 1.495 . S
C1231 H1237 0.959 . S
C1231 H1238 0.961 . S
C1231 H1239 0.960 . S
C1232 C1230 1.381 . S
C1232 C1233 1.394 1_556 S
C1232 H1240 0.930 . S
C1233 C1232 1.394 1_554 S
C1233 C1234 1.383 . S
C1233 H1241 0.929 . S
C1234 C1233 1.383 . S
C1234 C1235 1.377 . S
C1235 H1219 0.930 . S
C1235 C1234 1.377 . S
C1235 C1236 1.379 1_554 S
C1236 H1220 0.931 . S
C1236 C1230 1.383 . S
C1236 C1235 1.379 1_556 S
H1237 C1231 0.959 . S
H1238 C1231 0.961 . S
H1239 C1231 0.960 . S
H1240 C1232 0.930 . S
H1241 C1233 0.929 . S
H1242 C1250 0.929 . S
H1243 C1252 0.930 . S
H1244 C1254 0.930 . S
H1245 C1257 0.929 . S
H1246 C1260 0.930 . S
H1247 C1262 0.960 1_554 S
H1248 C1262 0.960 . S
H1249 C1262 0.960 . S
C1250 H1242 0.929 . S
C1250 C1251 1.377 . S
C1250 C1252 1.384 . S
C1251 C1250 1.377 . S
C1251 C1257 1.390 . S
C1252 H1243 0.930 . S
C1252 C1250 1.384 . S
C1252 C1253 1.372 . S
C1253 C1252 1.372 . S
C1253 C1254 1.400 . S
C1253 C1258 1.490 . S
C1254 H1244 0.930 . S
C1254 C1253 1.400 . S
C1254 C1257 1.386 . S
H1255 C1271 0.930 . S
H1256 C1272 0.931 . S
C1257 H1245 0.929 . S
C1257 C1251 1.390 . S
C1257 C1254 1.386 . S
C1258 C1253 1.490 . S
C1258 C1260 1.395 . S
C1258 C1261 1.403 . S
H1259 C1265 0.930 . S
C1260 H1246 0.930 . S
C1260 C1258 1.395 . S
C1260 C1263 1.403 . S
C1261 C1258 1.403 . S
C1261 C1262 1.524 . S
C1261 C1265 1.400 . S
C1262 H1247 0.960 1_556 S
C1262 H1248 0.960 . S
C1262 H1249 0.960 . S
C1262 C1261 1.524 . S
C1263 C1260 1.403 . S
C1263 C1264 1.392 . S
C1263 C1267 1.495 . S
C1264 C1263 1.392 . S
C1264 C1265 1.385 . S
C1264 C1266 1.478 . S
C1265 H1259 0.930 . S
C1265 C1261 1.400 . S
C1265 C1264 1.385 . S
C1266 C1264 1.478 . S
C1266 C1268 1.381 . S
C1266 C1272 1.383 . S
C1267 C1263 1.495 . S
C1267 H1273 0.959 . S
C1267 H1274 0.961 . S
C1267 H1275 0.960 . S
C1268 C1266 1.381 . S
C1268 C1269 1.394 . S
C1268 H1276 0.930 . S
C1269 C1268 1.394 . S
C1269 C1270 1.383 . S
C1269 H1277 0.929 . S
C1270 C1269 1.383 . S
C1270 C1271 1.377 . S
C1271 H1255 0.930 . S
C1271 C1270 1.377 . S
C1271 C1272 1.379 . S
C1272 H1256 0.931 . S
C1272 C1266 1.383 . S
C1272 C1271 1.379 . S
H1273 C1267 0.959 . S
H1274 C1267 0.961 . S
H1275 C1267 0.960 . S
H1276 C1268 0.930 . S
H1277 C1269 0.929 . S
H1278 C1286 0.929 . S
H1279 C1288 0.930 . S
H1280 C1290 0.930 . S
H1281 C1293 0.929 . S
H1282 C1296 0.930 . S
H1283 C1298 0.965 . S
H1284 C1298 0.965 . S
H1285 C1298 0.952 1_556 S
C1286 H1278 0.929 . S
C1286 C1287 1.377 . S
C1286 C1288 1.384 . S
C1287 C1286 1.377 . S
C1287 C1293 1.390 . S
C1288 H1279 0.930 . S
C1288 C1286 1.384 . S
C1288 C1289 1.372 . S
C1289 C1288 1.372 . S
C1289 C1290 1.400 . S
C1289 C1294 1.490 . S
C1290 H1280 0.930 . S
C1290 C1289 1.400 . S
C1290 C1293 1.386 . S
H1291 C1307 0.930 1_556 S
H1292 C1308 0.931 . S
C1293 H1281 0.929 . S
C1293 C1287 1.390 . S
C1293 C1290 1.386 . S
C1294 C1289 1.490 . S
C1294 C1296 1.395 . S
C1294 C1297 1.403 . S
H1295 C1301 0.959 . S
C1296 H1282 0.930 . S
C1296 C1294 1.395 . S
C1296 C1299 1.403 . S
C1297 C1294 1.403 . S
C1297 C1298 1.523 1_556 S
C1297 C1301 1.378 1_556 S
C1298 H1283 0.965 . S
C1298 H1284 0.965 . S
C1298 H1285 0.952 1_554 S
C1298 C1297 1.523 1_554 S
C1299 C1296 1.403 . S
C1299 C1300 1.392 . S
C1299 C1303 1.495 . S
C1300 C1299 1.392 . S
C1300 C1301 1.384 1_556 S
C1300 C1302 1.478 1_556 S
C1301 H1295 0.959 . S
C1301 C1297 1.378 1_554 S
C1301 C1300 1.384 1_554 S
C1302 C1300 1.478 1_554 S
C1302 C1304 1.381 . S
C1302 C1308 1.383 1_554 S
C1303 C1299 1.495 . S
C1303 H1309 0.959 . S
C1303 H1310 0.961 . S
C1303 H1311 0.960 . S
C1304 C1302 1.381 . S
C1304 C1305 1.394 . S
C1304 H1312 0.930 . S
C1305 C1304 1.394 . S
C1305 C1306 1.383 . S
C1305 H1313 0.929 . S
C1306 C1305 1.383 . S
C1306 C1307 1.377 . S
C1307 H1291 0.930 1_554 S
C1307 C1306 1.377 . S
C1307 C1308 1.379 1_554 S
C1308 H1292 0.931 . S
C1308 C1302 1.383 1_556 S
C1308 C1307 1.379 1_556 S
H1309 C1303 0.959 . S
H1310 C1303 0.961 . S
H1311 C1303 0.960 . S
H1312 C1304 0.930 . S
H1313 C1305 0.929 . S
H1314 C1322 0.929 . S
H1315 C1324 0.930 . S
H1316 C1326 0.930 . S
H1317 C1329 0.929 . S
H1318 C1332 0.930 . S
H1319 C1334 0.960 . S
H1320 C1334 0.960 . S
H1321 C1334 0.960 . S
C1322 H1314 0.929 . S
C1322 C1323 1.377 . S
C1322 C1324 1.384 . S
C1323 C1322 1.377 . S
C1323 C1329 1.390 . S
C1324 H1315 0.930 . S
C1324 C1322 1.384 . S
C1324 C1325 1.372 . S
C1325 C1324 1.372 . S
C1325 C1326 1.400 . S
C1325 C1330 1.490 . S
C1326 H1316 0.930 . S
C1326 C1325 1.400 . S
C1326 C1329 1.386 . S
H1327 C1343 0.930 . S
H1328 C1344 0.931 . S
C1329 H1317 0.929 . S
C1329 C1323 1.390 . S
C1329 C1326 1.386 . S
C1330 C1325 1.490 . S
C1330 C1332 1.395 . S
C1330 C1333 1.403 . S
H1331 C1337 0.930 . S
C1332 H1318 0.930 . S
C1332 C1330 1.395 . S
C1332 C1335 1.403 . S
C1333 C1330 1.403 . S
C1333 C1334 1.524 . S
C1333 C1337 1.400 . S
C1334 H1319 0.960 . S
C1334 H1320 0.960 . S
C1334 H1321 0.960 . S
C1334 C1333 1.524 . S
C1335 C1332 1.403 . S
C1335 C1336 1.392 . S
C1335 C1339 1.495 . S
C1336 C1335 1.392 . S
C1336 C1337 1.385 . S
C1336 C1338 1.478 . S
C1337 H1331 0.930 . S
C1337 C1333 1.400 . S
C1337 C1336 1.385 . S
C1338 C1336 1.478 . S
C1338 C1340 1.381 . S
C1338 C1344 1.383 . S
C1339 C1335 1.495 . S
C1339 H1345 0.959 . S
C1339 H1346 0.961 . S
C1339 H1347 0.960 . S
C1340 C1338 1.381 . S
C1340 C1341 1.394 . S
C1340 H1348 0.930 . S
C1341 C1340 1.394 . S
C1341 C1342 1.383 . S
C1341 H1349 0.929 . S
C1342 C1341 1.383 . S
C1342 C1343 1.377 . S
C1343 H1327 0.930 . S
C1343 C1342 1.377 . S
C1343 C1344 1.379 . S
C1344 H1328 0.931 . S
C1344 C1338 1.383 . S
C1344 C1343 1.379 . S
H1345 C1339 0.959 . S
H1346 C1339 0.961 . S
H1347 C1339 0.960 . S
H1348 C1340 0.930 . S
H1349 C1341 0.929 . S
H1350 C1358 0.929 . S
H1351 C1360 0.930 . S
H1352 C1362 0.930 . S
H1353 C1365 0.929 . S
H1354 C1368 0.930 . S
H1355 C1370 0.960 . S
H1356 C1370 0.960 . S
H1357 C1370 0.960 . S
C1358 H1350 0.929 . S
C1358 C1359 1.377 . S
C1358 C1360 1.384 . S
C1359 C1358 1.377 . S
C1359 C1365 1.390 . S
C1360 H1351 0.930 . S
C1360 C1358 1.384 . S
C1360 C1361 1.372 . S
C1361 C1360 1.372 . S
C1361 C1362 1.400 . S
C1361 C1366 1.490 . S
C1362 H1352 0.930 . S
C1362 C1361 1.400 . S
C1362 C1365 1.386 . S
H1363 C1379 0.930 . S
H1364 C1380 0.931 . S
C1365 H1353 0.929 . S
C1365 C1359 1.390 . S
C1365 C1362 1.386 . S
C1366 C1361 1.490 . S
C1366 C1368 1.395 . S
C1366 C1369 1.403 . S
H1367 C1373 0.930 . S
C1368 H1354 0.930 . S
C1368 C1366 1.395 . S
C1368 C1371 1.403 . S
C1369 C1366 1.403 . S
C1369 C1370 1.524 . S
C1369 C1373 1.400 . S
C1370 H1355 0.960 . S
C1370 H1356 0.960 . S
C1370 H1357 0.960 . S
C1370 C1369 1.524 . S
C1371 C1368 1.403 . S
C1371 C1372 1.392 . S
C1371 C1375 1.495 . S
C1372 C1371 1.392 . S
C1372 C1373 1.385 . S
C1372 C1374 1.478 . S
C1373 H1367 0.930 . S
C1373 C1369 1.400 . S
C1373 C1372 1.385 . S
C1374 C1372 1.478 . S
C1374 C1376 1.381 . S
C1374 C1380 1.383 . S
C1375 C1371 1.495 . S
C1375 H1381 0.959 . S
C1375 H1382 0.961 . S
C1375 H1383 0.960 . S
C1376 C1374 1.381 . S
C1376 C1377 1.394 . S
C1376 H1384 0.930 . S
C1377 C1376 1.394 . S
C1377 C1378 1.383 . S
C1377 H1385 0.929 . S
C1378 C1377 1.383 . S
C1378 C1379 1.377 . S
C1379 H1363 0.930 . S
C1379 C1378 1.377 . S
C1379 C1380 1.379 . S
C1380 H1364 0.931 . S
C1380 C1374 1.383 . S
C1380 C1379 1.379 . S
H1381 C1375 0.959 . S
H1382 C1375 0.961 . S
H1383 C1375 0.960 . S
H1384 C1376 0.930 . S
H1385 C1377 0.929 . S
H1386 C1394 0.929 . S
H1387 C1396 0.930 . S
H1388 C1398 0.930 . S
H1389 C1401 0.929 . S
H1390 C1404 0.930 . S
H1391 C1406 0.960 . S
H1392 C1406 0.960 . S
H1393 C1406 0.960 . S
C1394 H1386 0.929 . S
C1394 C1395 1.377 . S
C1394 C1396 1.384 . S
C1395 C1394 1.377 . S
C1395 C1401 1.390 . S
C1396 H1387 0.930 . S
C1396 C1394 1.384 . S
C1396 C1397 1.372 . S
C1397 C1396 1.372 . S
C1397 C1398 1.400 . S
C1397 C1402 1.490 . S
C1398 H1388 0.930 . S
C1398 C1397 1.400 . S
C1398 C1401 1.386 . S
H1399 C1415 0.930 . S
H1400 C1416 0.931 . S
C1401 H1389 0.929 . S
C1401 C1395 1.390 . S
C1401 C1398 1.386 . S
C1402 C1397 1.490 . S
C1402 C1404 1.395 . S
C1402 C1405 1.403 . S
H1403 C1409 0.930 . S
C1404 H1390 0.930 . S
C1404 C1402 1.395 . S
C1404 C1407 1.403 . S
C1405 C1402 1.403 . S
C1405 C1406 1.524 . S
C1405 C1409 1.400 . S
C1406 H1391 0.960 . S
C1406 H1392 0.960 . S
C1406 H1393 0.960 . S
C1406 C1405 1.524 . S
C1407 C1404 1.403 . S
C1407 C1408 1.392 . S
C1407 C1411 1.495 . S
C1408 C1407 1.392 . S
C1408 C1409 1.385 . S
C1408 C1410 1.478 . S
C1409 H1403 0.930 . S
C1409 C1405 1.400 . S
C1409 C1408 1.385 . S
C1410 C1408 1.478 . S
C1410 C1412 1.381 . S
C1410 C1416 1.383 . S
C1411 C1407 1.495 . S
C1411 H1417 0.959 . S
C1411 H1418 0.961 . S
C1411 H1419 0.960 . S
C1412 C1410 1.381 . S
C1412 C1413 1.394 . S
C1412 H1420 0.930 . S
C1413 C1412 1.394 . S
C1413 C1414 1.383 . S
C1413 H1421 0.929 . S
C1414 C1413 1.383 . S
C1414 C1415 1.377 . S
C1415 H1399 0.930 . S
C1415 C1414 1.377 . S
C1415 C1416 1.379 . S
C1416 H1400 0.931 . S
C1416 C1410 1.383 . S
C1416 C1415 1.379 . S
H1417 C1411 0.959 . S
H1418 C1411 0.961 . S
H1419 C1411 0.960 . S
H1420 C1412 0.930 . S
H1421 C1413 0.929 . S
H1422 C1430 0.929 . S
H1423 C1432 0.930 . S
H1424 C1434 0.930 . S
H1425 C1437 0.929 . S
H1426 C1440 0.930 . S
H1427 C1442 0.960 . S
H1428 C1442 0.960 . S
H1429 C1442 0.960 . S
C1430 H1422 0.929 . S
C1430 C1431 1.377 . S
C1430 C1432 1.384 . S
C1431 C1430 1.377 . S
C1431 C1437 1.390 . S
C1432 H1423 0.930 . S
C1432 C1430 1.384 . S
C1432 C1433 1.372 . S
C1433 C1432 1.372 . S
C1433 C1434 1.400 . S
C1433 C1438 1.490 . S
C1434 H1424 0.930 . S
C1434 C1433 1.400 . S
C1434 C1437 1.386 . S
H1435 C1451 0.930 . S
H1436 C1452 0.931 . S
C1437 H1425 0.929 . S
C1437 C1431 1.390 . S
C1437 C1434 1.386 . S
C1438 C1433 1.490 . S
C1438 C1440 1.395 . S
C1438 C1441 1.403 1_655 S
H1439 C1445 0.930 . S
C1440 H1426 0.930 . S
C1440 C1438 1.395 . S
C1440 C1443 1.403 1_655 S
C1441 C1438 1.403 1_455 S
C1441 C1442 1.524 . S
C1441 C1445 1.400 . S
C1442 H1427 0.960 . S
C1442 H1428 0.960 . S
C1442 H1429 0.960 . S
C1442 C1441 1.524 . S
C1443 C1440 1.403 1_455 S
C1443 C1444 1.392 . S
C1443 C1447 1.495 . S
C1444 C1443 1.392 . S
C1444 C1445 1.385 . S
C1444 C1446 1.478 . S
C1445 H1439 0.930 . S
C1445 C1441 1.400 . S
C1445 C1444 1.385 . S
C1446 C1444 1.478 . S
C1446 C1448 1.381 . S
C1446 C1452 1.383 . S
C1447 C1443 1.495 . S
C1447 H1453 0.959 . S
C1447 H1454 0.961 . S
C1447 H1455 0.960 . S
C1448 C1446 1.381 . S
C1448 C1449 1.394 . S
C1448 H1456 0.930 . S
C1449 C1448 1.394 . S
C1449 C1450 1.383 . S
C1449 H1457 0.929 . S
C1450 C1449 1.383 . S
C1450 C1451 1.377 . S
C1451 H1435 0.930 . S
C1451 C1450 1.377 . S
C1451 C1452 1.379 . S
C1452 H1436 0.931 . S
C1452 C1446 1.383 . S
C1452 C1451 1.379 . S
H1453 C1447 0.959 . S
H1454 C1447 0.961 . S
H1455 C1447 0.960 . S
H1456 C1448 0.930 . S
H1457 C1449 0.929 . S
H1458 C1466 0.929 . S
H1459 C1468 0.930 . S
H1460 C1470 0.930 . S
H1461 C1473 0.929 . S
H1462 C1476 0.930 . S
H1463 C1478 0.960 . S
H1464 C1478 0.960 . S
H1465 C1478 0.960 . S
C1466 H1458 0.929 . S
C1466 C1467 1.377 . S
C1466 C1468 1.384 . S
C1467 C1466 1.377 . S
C1467 C1473 1.390 . S
C1468 H1459 0.930 . S
C1468 C1466 1.384 . S
C1468 C1469 1.372 . S
C1469 C1468 1.372 . S
C1469 C1470 1.400 . S
C1469 C1474 1.490 . S
C1470 H1460 0.930 . S
C1470 C1469 1.400 . S
C1470 C1473 1.386 . S
H1471 C1487 0.930 . S
H1472 C1488 0.931 . S
C1473 H1461 0.929 . S
C1473 C1467 1.390 . S
C1473 C1470 1.386 . S
C1474 C1469 1.490 . S
C1474 C1476 1.395 . S
C1474 C1477 1.403 . S
H1475 C1481 0.930 . S
C1476 H1462 0.930 . S
C1476 C1474 1.395 . S
C1476 C1479 1.403 . S
C1477 C1474 1.403 . S
C1477 C1478 1.524 . S
C1477 C1481 1.400 . S
C1478 H1463 0.960 . S
C1478 H1464 0.960 . S
C1478 H1465 0.960 . S
C1478 C1477 1.524 . S
C1479 C1476 1.403 . S
C1479 C1480 1.392 . S
C1479 C1483 1.495 . S
C1480 C1479 1.392 . S
C1480 C1481 1.385 . S
C1480 C1482 1.478 . S
C1481 H1475 0.930 . S
C1481 C1477 1.400 . S
C1481 C1480 1.385 . S
C1482 C1480 1.478 . S
C1482 C1484 1.381 . S
C1482 C1488 1.383 . S
C1483 C1479 1.495 . S
C1483 H1489 0.959 . S
C1483 H1490 0.961 . S
C1483 H1491 0.960 . S
C1484 C1482 1.381 . S
C1484 C1485 1.394 . S
C1484 H1492 0.930 . S
C1485 C1484 1.394 . S
C1485 C1486 1.383 . S
C1485 H1493 0.929 . S
C1486 C1485 1.383 . S
C1486 C1487 1.377 . S
C1487 H1471 0.930 . S
C1487 C1486 1.377 . S
C1487 C1488 1.379 . S
C1488 H1472 0.931 . S
C1488 C1482 1.383 . S
C1488 C1487 1.379 . S
H1489 C1483 0.959 . S
H1490 C1483 0.961 . S
H1491 C1483 0.960 . S
H1492 C1484 0.930 . S
H1493 C1485 0.929 . S
H1494 C1502 0.929 . S
H1495 C1504 0.930 . S
H1496 C1506 0.930 . S
H1497 C1509 0.929 . S
H1498 C1512 0.930 1_545 S
H1499 C1514 0.960 . S
H1500 C1514 0.960 . S
H1501 C1514 0.960 . S
C1502 H1494 0.929 . S
C1502 C1503 1.377 . S
C1502 C1504 1.384 . S
C1503 C1502 1.377 . S
C1503 C1509 1.390 . S
C1504 H1495 0.930 . S
C1504 C1502 1.384 . S
C1504 C1505 1.372 . S
C1505 C1504 1.372 . S
C1505 C1506 1.400 . S
C1505 C1510 1.490 1_545 S
C1506 H1496 0.930 . S
C1506 C1505 1.400 . S
C1506 C1509 1.386 . S
H1507 C1523 0.930 . S
H1508 C1524 0.931 . S
C1509 H1497 0.929 . S
C1509 C1503 1.390 . S
C1509 C1506 1.386 . S
C1510 C1505 1.490 1_565 S
C1510 C1512 1.395 . S
C1510 C1513 1.403 . S
H1511 C1517 0.930 . S
C1512 H1498 0.930 1_565 S
C1512 C1510 1.395 . S
C1512 C1515 1.403 . S
C1513 C1510 1.403 . S
C1513 C1514 1.524 . S
C1513 C1517 1.400 . S
C1514 H1499 0.960 . S
C1514 H1500 0.960 . S
C1514 H1501 0.960 . S
C1514 C1513 1.524 . S
C1515 C1512 1.403 . S
C1515 C1516 1.392 . S
C1515 C1519 1.495 . S
C1516 C1515 1.392 . S
C1516 C1517 1.385 . S
C1516 C1518 1.478 . S
C1517 H1511 0.930 . S
C1517 C1513 1.400 . S
C1517 C1516 1.385 . S
C1518 C1516 1.478 . S
C1518 C1520 1.381 . S
C1518 C1524 1.383 . S
C1519 C1515 1.495 . S
C1519 H1525 0.959 . S
C1519 H1526 0.961 . S
C1519 H1527 0.960 . S
C1520 C1518 1.381 . S
C1520 C1521 1.394 . S
C1520 H1528 0.930 . S
C1521 C1520 1.394 . S
C1521 C1522 1.383 . S
C1521 H1529 0.929 . S
C1522 C1521 1.383 . S
C1522 C1523 1.377 . S
C1523 H1507 0.930 . S
C1523 C1522 1.377 . S
C1523 C1524 1.379 . S
C1524 H1508 0.931 . S
C1524 C1518 1.383 . S
C1524 C1523 1.379 . S
H1525 C1519 0.959 . S
H1526 C1519 0.961 . S
H1527 C1519 0.960 . S
H1528 C1520 0.930 . S
H1529 C1521 0.929 . S
H1530 C1538 0.929 . S
H1531 C1540 0.930 . S
H1532 C1542 0.930 . S
H1533 C1545 0.929 . S
H1534 C1548 0.930 . S
H1535 C1550 0.960 . S
H1536 C1550 0.960 . S
H1537 C1550 0.960 . S
C1538 H1530 0.929 . S
C1538 C1539 1.377 . S
C1538 C1540 1.384 . S
C1539 C1538 1.377 . S
C1539 C1545 1.390 . S
C1540 H1531 0.930 . S
C1540 C1538 1.384 . S
C1540 C1541 1.372 . S
C1541 C1540 1.372 . S
C1541 C1542 1.400 . S
C1541 C1546 1.490 . S
C1542 H1532 0.930 . S
C1542 C1541 1.400 . S
C1542 C1545 1.386 . S
H1543 C1559 0.930 . S
H1544 C1560 0.931 . S
C1545 H1533 0.929 . S
C1545 C1539 1.390 . S
C1545 C1542 1.386 . S
C1546 C1541 1.490 . S
C1546 C1548 1.395 . S
C1546 C1549 1.403 . S
H1547 C1553 0.930 . S
C1548 H1534 0.930 . S
C1548 C1546 1.395 . S
C1548 C1551 1.403 . S
C1549 C1546 1.403 . S
C1549 C1550 1.524 . S
C1549 C1553 1.400 . S
C1550 H1535 0.960 . S
C1550 H1536 0.960 . S
C1550 H1537 0.960 . S
C1550 C1549 1.524 . S
C1551 C1548 1.403 . S
C1551 C1552 1.392 . S
C1551 C1555 1.495 . S
C1552 C1551 1.392 . S
C1552 C1553 1.385 . S
C1552 C1554 1.478 . S
C1553 H1547 0.930 . S
C1553 C1549 1.400 . S
C1553 C1552 1.385 . S
C1554 C1552 1.478 . S
C1554 C1556 1.381 . S
C1554 C1560 1.383 . S
C1555 C1551 1.495 . S
C1555 H1561 0.959 . S
C1555 H1562 0.961 . S
C1555 H1563 0.960 . S
C1556 C1554 1.381 . S
C1556 C1557 1.394 . S
C1556 H1564 0.930 . S
C1557 C1556 1.394 . S
C1557 C1558 1.383 . S
C1557 H1565 0.929 . S
C1558 C1557 1.383 . S
C1558 C1559 1.377 . S
C1559 H1543 0.930 . S
C1559 C1558 1.377 . S
C1559 C1560 1.379 . S
C1560 H1544 0.931 . S
C1560 C1554 1.383 . S
C1560 C1559 1.379 . S
H1561 C1555 0.959 . S
H1562 C1555 0.961 . S
H1563 C1555 0.960 . S
H1564 C1556 0.930 . S
H1565 C1557 0.929 . S
H1566 C1574 0.929 . S
H1567 C1576 0.930 . S
H1568 C1578 0.930 . S
H1569 C1581 0.929 . S
H1570 C1584 0.930 . S
H1571 C1586 0.960 . S
H1572 C1586 0.960 . S
H1573 C1586 0.960 . S
C1574 H1566 0.929 . S
C1574 C1575 1.377 . S
C1574 C1576 1.384 . S
C1575 C1574 1.377 . S
C1575 C1581 1.390 . S
C1576 H1567 0.930 . S
C1576 C1574 1.384 . S
C1576 C1577 1.372 . S
C1577 C1576 1.372 . S
C1577 C1578 1.400 . S
C1577 C1582 1.490 . S
C1578 H1568 0.930 . S
C1578 C1577 1.400 . S
C1578 C1581 1.386 . S
H1579 C1595 0.930 . S
H1580 C1596 0.931 . S
C1581 H1569 0.929 . S
C1581 C1575 1.390 . S
C1581 C1578 1.386 . S
C1582 C1577 1.490 . S
C1582 C1584 1.395 . S
C1582 C1585 1.403 . S
H1583 C1589 0.930 . S
C1584 H1570 0.930 . S
C1584 C1582 1.395 . S
C1584 C1587 1.403 . S
C1585 C1582 1.403 . S
C1585 C1586 1.524 . S
C1585 C1589 1.400 . S
C1586 H1571 0.960 . S
C1586 H1572 0.960 . S
C1586 H1573 0.960 . S
C1586 C1585 1.524 . S
C1587 C1584 1.403 . S
C1587 C1588 1.392 . S
C1587 C1591 1.495 . S
C1588 C1587 1.392 . S
C1588 C1589 1.385 . S
C1588 C1590 1.478 . S
C1589 H1583 0.930 . S
C1589 C1585 1.400 . S
C1589 C1588 1.385 . S
C1590 C1588 1.478 . S
C1590 C1592 1.381 . S
C1590 C1596 1.383 . S
C1591 C1587 1.495 . S
C1591 H1597 0.959 . S
C1591 H1598 0.961 . S
C1591 H1599 0.960 . S
C1592 C1590 1.381 . S
C1592 C1593 1.394 . S
C1592 H1600 0.930 . S
C1593 C1592 1.394 . S
C1593 C1594 1.383 . S
C1593 H1601 0.929 . S
C1594 C1593 1.383 . S
C1594 C1595 1.377 . S
C1595 H1579 0.930 . S
C1595 C1594 1.377 . S
C1595 C1596 1.379 . S
C1596 H1580 0.931 . S
C1596 C1590 1.383 . S
C1596 C1595 1.379 . S
H1597 C1591 0.959 . S
H1598 C1591 0.961 . S
H1599 C1591 0.960 . S
H1600 C1592 0.930 . S
H1601 C1593 0.929 . S
H1602 C1610 0.929 . S
H1603 C1612 0.930 . S
H1604 C1614 0.930 . S
H1605 C1617 0.929 . S
H1606 C1620 0.930 . S
H1607 C1622 0.960 . S
H1608 C1622 0.960 . S
H1609 C1622 0.960 . S
C1610 H1602 0.929 . S
C1610 C1611 1.377 . S
C1610 C1612 1.384 . S
C1611 C1610 1.377 . S
C1611 C1617 1.390 . S
C1612 H1603 0.930 . S
C1612 C1610 1.384 . S
C1612 C1613 1.372 . S
C1613 C1612 1.372 . S
C1613 C1614 1.400 . S
C1613 C1618 1.490 . S
C1614 H1604 0.930 . S
C1614 C1613 1.400 . S
C1614 C1617 1.386 . S
H1615 C1631 0.930 . S
H1616 C1632 0.931 . S
C1617 H1605 0.929 . S
C1617 C1611 1.390 . S
C1617 C1614 1.386 . S
C1618 C1613 1.490 . S
C1618 C1620 1.395 . S
C1618 C1621 1.403 . S
H1619 C1625 0.930 . S
C1620 H1606 0.930 . S
C1620 C1618 1.395 . S
C1620 C1623 1.403 . S
C1621 C1618 1.403 . S
C1621 C1622 1.524 . S
C1621 C1625 1.400 . S
C1622 H1607 0.960 . S
C1622 H1608 0.960 . S
C1622 H1609 0.960 . S
C1622 C1621 1.524 . S
C1623 C1620 1.403 . S
C1623 C1624 1.392 . S
C1623 C1627 1.495 . S
C1624 C1623 1.392 . S
C1624 C1625 1.385 . S
C1624 C1626 1.478 . S
C1625 H1619 0.930 . S
C1625 C1621 1.400 . S
C1625 C1624 1.385 . S
C1626 C1624 1.478 . S
C1626 C1628 1.381 . S
C1626 C1632 1.383 . S
C1627 C1623 1.495 . S
C1627 H1633 0.959 . S
C1627 H1634 0.961 . S
C1627 H1635 0.960 . S
C1628 C1626 1.381 . S
C1628 C1629 1.394 . S
C1628 H1636 0.930 . S
C1629 C1628 1.394 . S
C1629 C1630 1.383 . S
C1629 H1637 0.929 . S
C1630 C1629 1.383 . S
C1630 C1631 1.377 . S
C1631 H1615 0.930 . S
C1631 C1630 1.377 . S
C1631 C1632 1.379 . S
C1632 H1616 0.931 . S
C1632 C1626 1.383 . S
C1632 C1631 1.379 . S
H1633 C1627 0.959 . S
H1634 C1627 0.961 . S
H1635 C1627 0.960 . S
H1636 C1628 0.930 . S
H1637 C1629 0.929 . S
H1638 C1646 0.929 . S
H1639 C1648 0.930 . S
H1640 C1650 0.930 . S
H1641 C1653 0.929 . S
H1642 C1656 0.930 . S
H1643 C1658 0.960 . S
H1644 C1658 0.960 . S
H1645 C1658 0.960 . S
C1646 H1638 0.929 . S
C1646 C1647 1.377 . S
C1646 C1648 1.384 . S
C1647 C1646 1.377 . S
C1647 C1653 1.390 . S
C1648 H1639 0.930 . S
C1648 C1646 1.384 . S
C1648 C1649 1.372 . S
C1649 C1648 1.372 . S
C1649 C1650 1.400 . S
C1649 C1654 1.490 . S
C1650 H1640 0.930 . S
C1650 C1649 1.400 . S
C1650 C1653 1.386 . S
H1651 C1667 0.930 . S
H1652 C1668 0.931 . S
C1653 H1641 0.929 . S
C1653 C1647 1.390 . S
C1653 C1650 1.386 . S
C1654 C1649 1.490 . S
C1654 C1656 1.395 . S
C1654 C1657 1.403 . S
H1655 C1661 0.930 . S
C1656 H1642 0.930 . S
C1656 C1654 1.395 . S
C1656 C1659 1.403 . S
C1657 C1654 1.403 . S
C1657 C1658 1.524 . S
C1657 C1661 1.400 . S
C1658 H1643 0.960 . S
C1658 H1644 0.960 . S
C1658 H1645 0.960 . S
C1658 C1657 1.524 . S
C1659 C1656 1.403 . S
C1659 C1660 1.392 . S
C1659 C1663 1.495 . S
C1660 C1659 1.392 . S
C1660 C1661 1.385 . S
C1660 C1662 1.478 . S
C1661 H1655 0.930 . S
C1661 C1657 1.400 . S
C1661 C1660 1.385 . S
C1662 C1660 1.478 . S
C1662 C1664 1.381 . S
C1662 C1668 1.383 . S
C1663 C1659 1.495 . S
C1663 H1669 0.959 . S
C1663 H1670 0.961 . S
C1663 H1671 0.960 . S
C1664 C1662 1.381 . S
C1664 C1665 1.394 . S
C1664 H1672 0.930 . S
C1665 C1664 1.394 . S
C1665 C1666 1.383 . S
C1665 H1673 0.929 . S
C1666 C1665 1.383 . S
C1666 C1667 1.377 . S
C1667 H1651 0.930 . S
C1667 C1666 1.377 . S
C1667 C1668 1.379 . S
C1668 H1652 0.931 . S
C1668 C1662 1.383 . S
C1668 C1667 1.379 . S
H1669 C1663 0.959 . S
H1670 C1663 0.961 . S
H1671 C1663 0.960 . S
H1672 C1664 0.930 . S
H1673 C1665 0.929 . S
H1674 C1682 0.929 . S
H1675 C1684 0.930 . S
H1676 C1686 0.930 . S
H1677 C1689 0.929 . S
H1678 C1692 0.930 . S
H1679 C1694 0.960 . S
H1680 C1694 0.960 . S
H1681 C1694 0.960 . S
C1682 H1674 0.929 . S
C1682 C1683 1.377 . S
C1682 C1684 1.384 . S
C1683 C1682 1.377 . S
C1683 C1689 1.390 . S
C1684 H1675 0.930 . S
C1684 C1682 1.384 . S
C1684 C1685 1.372 . S
C1685 C1684 1.372 . S
C1685 C1686 1.400 . S
C1685 C1690 1.490 . S
C1686 H1676 0.930 . S
C1686 C1685 1.400 . S
C1686 C1689 1.386 . S
H1687 C1703 0.930 . S
H1688 C1704 0.931 . S
C1689 H1677 0.929 . S
C1689 C1683 1.390 . S
C1689 C1686 1.386 . S
C1690 C1685 1.490 . S
C1690 C1692 1.395 . S
C1690 C1693 1.403 . S
H1691 C1697 0.930 . S
C1692 H1678 0.930 . S
C1692 C1690 1.395 . S
C1692 C1695 1.403 . S
C1693 C1690 1.403 . S
C1693 C1694 1.524 . S
C1693 C1697 1.400 . S
C1694 H1679 0.960 . S
C1694 H1680 0.960 . S
C1694 H1681 0.960 . S
C1694 C1693 1.524 . S
C1695 C1692 1.403 . S
C1695 C1696 1.392 . S
C1695 C1699 1.495 . S
C1696 C1695 1.392 . S
C1696 C1697 1.385 . S
C1696 C1698 1.478 . S
C1697 H1691 0.930 . S
C1697 C1693 1.400 . S
C1697 C1696 1.385 . S
C1698 C1696 1.478 . S
C1698 C1700 1.381 . S
C1698 C1704 1.383 . S
C1699 C1695 1.495 . S
C1699 H1705 0.959 . S
C1699 H1706 0.961 . S
C1699 H1707 0.960 . S
C1700 C1698 1.381 . S
C1700 C1701 1.394 . S
C1700 H1708 0.930 . S
C1701 C1700 1.394 . S
C1701 C1702 1.383 . S
C1701 H1709 0.929 . S
C1702 C1701 1.383 . S
C1702 C1703 1.377 . S
C1703 H1687 0.930 . S
C1703 C1702 1.377 . S
C1703 C1704 1.379 . S
C1704 H1688 0.931 . S
C1704 C1698 1.383 . S
C1704 C1703 1.379 . S
H1705 C1699 0.959 . S
H1706 C1699 0.961 . S
H1707 C1699 0.960 . S
H1708 C1700 0.930 . S
H1709 C1701 0.929 . S
H1710 C1718 0.929 . S
H1711 C1720 0.930 . S
H1712 C1722 0.930 . S
H1713 C1725 0.929 . S
H1714 C1728 0.930 . S
H1715 C1730 0.960 . S
H1716 C1730 0.960 . S
H1717 C1730 0.960 . S
C1718 H1710 0.929 . S
C1718 C1719 1.377 . S
C1718 C1720 1.384 . S
C1719 C1718 1.377 . S
C1719 C1725 1.390 . S
C1720 H1711 0.930 . S
C1720 C1718 1.384 . S
C1720 C1721 1.372 . S
C1721 C1720 1.372 . S
C1721 C1722 1.400 . S
C1721 C1726 1.490 . S
C1722 H1712 0.930 . S
C1722 C1721 1.400 . S
C1722 C1725 1.386 . S
H1723 C1739 0.930 . S
H1724 C1740 0.931 . S
C1725 H1713 0.929 . S
C1725 C1719 1.390 . S
C1725 C1722 1.386 . S
C1726 C1721 1.490 . S
C1726 C1728 1.395 . S
C1726 C1729 1.403 . S
H1727 C1733 0.930 . S
C1728 H1714 0.930 . S
C1728 C1726 1.395 . S
C1728 C1731 1.403 . S
C1729 C1726 1.403 . S
C1729 C1730 1.524 . S
C1729 C1733 1.400 . S
C1730 H1715 0.960 . S
C1730 H1716 0.960 . S
C1730 H1717 0.960 . S
C1730 C1729 1.524 . S
C1731 C1728 1.403 . S
C1731 C1732 1.392 . S
C1731 C1735 1.495 . S
C1732 C1731 1.392 . S
C1732 C1733 1.385 . S
C1732 C1734 1.478 . S
C1733 H1727 0.930 . S
C1733 C1729 1.400 . S
C1733 C1732 1.385 . S
C1734 C1732 1.478 . S
C1734 C1736 1.381 . S
C1734 C1740 1.383 . S
C1735 C1731 1.495 . S
C1735 H1741 0.959 . S
C1735 H1742 0.961 . S
C1735 H1743 0.960 . S
C1736 C1734 1.381 . S
C1736 C1737 1.394 . S
C1736 H1744 0.930 . S
C1737 C1736 1.394 . S
C1737 C1738 1.383 . S
C1737 H1745 0.929 . S
C1738 C1737 1.383 . S
C1738 C1739 1.377 . S
C1739 H1723 0.930 . S
C1739 C1738 1.377 . S
C1739 C1740 1.379 . S
C1740 H1724 0.931 . S
C1740 C1734 1.383 . S
C1740 C1739 1.379 . S
H1741 C1735 0.959 . S
H1742 C1735 0.961 . S
H1743 C1735 0.960 . S
H1744 C1736 0.930 . S
H1745 C1737 0.929 . S
H1746 C1754 0.929 . S
H1747 C1756 0.930 . S
H1748 C1758 0.930 . S
H1749 C1761 0.929 . S
H1750 C1764 0.930 . S
H1751 C1766 0.960 . S
H1752 C1766 0.960 . S
H1753 C1766 0.960 . S
C1754 H1746 0.929 . S
C1754 C1755 1.377 . S
C1754 C1756 1.384 . S
C1755 C1754 1.377 . S
C1755 C1761 1.390 . S
C1756 H1747 0.930 . S
C1756 C1754 1.384 . S
C1756 C1757 1.372 . S
C1757 C1756 1.372 . S
C1757 C1758 1.400 . S
C1757 C1762 1.490 . S
C1758 H1748 0.930 . S
C1758 C1757 1.400 . S
C1758 C1761 1.386 . S
H1759 C1775 0.930 . S
H1760 C1776 0.931 . S
C1761 H1749 0.929 . S
C1761 C1755 1.390 . S
C1761 C1758 1.386 . S
C1762 C1757 1.490 . S
C1762 C1764 1.395 . S
C1762 C1765 1.403 . S
H1763 C1769 0.930 . S
C1764 H1750 0.930 . S
C1764 C1762 1.395 . S
C1764 C1767 1.403 1_545 S
C1765 C1762 1.403 . S
C1765 C1766 1.524 . S
C1765 C1769 1.400 1_545 S
C1766 H1751 0.960 . S
C1766 H1752 0.960 . S
C1766 H1753 0.960 . S
C1766 C1765 1.524 . S
C1767 C1764 1.403 1_565 S
C1767 C1768 1.392 . S
C1767 C1771 1.495 . S
C1768 C1767 1.392 . S
C1768 C1769 1.385 . S
C1768 C1770 1.478 . S
C1769 H1763 0.930 . S
C1769 C1765 1.400 1_565 S
C1769 C1768 1.385 . S
C1770 C1768 1.478 . S
C1770 C1772 1.381 . S
C1770 C1776 1.383 . S
C1771 C1767 1.495 . S
C1771 H1777 0.959 . S
C1771 H1778 0.961 . S
C1771 H1779 0.960 . S
C1772 C1770 1.381 . S
C1772 C1773 1.394 . S
C1772 H1780 0.930 . S
C1773 C1772 1.394 . S
C1773 C1774 1.383 . S
C1773 H1781 0.929 . S
C1774 C1773 1.383 . S
C1774 C1775 1.377 . S
C1775 H1759 0.930 . S
C1775 C1774 1.377 . S
C1775 C1776 1.379 . S
C1776 H1760 0.931 . S
C1776 C1770 1.383 . S
C1776 C1775 1.379 . S
H1777 C1771 0.959 . S
H1778 C1771 0.961 . S
H1779 C1771 0.960 . S
H1780 C1772 0.930 . S
H1781 C1773 0.929 . S
H1782 C1790 0.929 . S
H1783 C1792 0.930 1_455 S
H1784 C1794 0.930 . S
H1785 C1797 0.929 . S
H1786 C1800 0.930 . S
H1787 C1802 0.960 . S
H1788 C1802 0.960 . S
H1789 C1802 0.960 1_655 S
C1790 H1782 0.929 . S
C1790 C1791 1.377 . S
C1790 C1792 1.384 . S
C1791 C1790 1.377 . S
C1791 C1797 1.390 . S
C1792 H1783 0.930 1_655 S
C1792 C1790 1.384 . S
C1792 C1793 1.372 . S
C1793 C1792 1.372 . S
C1793 C1794 1.400 . S
C1793 C1798 1.490 1_655 S
C1794 H1784 0.930 . S
C1794 C1793 1.400 . S
C1794 C1797 1.386 . S
H1795 C1811 0.930 . S
H1796 C1812 0.931 . S
C1797 H1785 0.929 . S
C1797 C1791 1.390 . S
C1797 C1794 1.386 . S
C1798 C1793 1.490 1_455 S
C1798 C1800 1.395 . S
C1798 C1801 1.403 . S
H1799 C1805 0.930 . S
C1800 H1786 0.930 . S
C1800 C1798 1.395 . S
C1800 C1803 1.403 . S
C1801 C1798 1.403 . S
C1801 C1802 1.524 . S
C1801 C1805 1.400 . S
C1802 H1787 0.960 . S
C1802 H1788 0.960 . S
C1802 H1789 0.960 1_455 S
C1802 C1801 1.524 . S
C1803 C1800 1.403 . S
C1803 C1804 1.392 . S
C1803 C1807 1.495 . S
C1804 C1803 1.392 . S
C1804 C1805 1.385 . S
C1804 C1806 1.478 . S
C1805 H1799 0.930 . S
C1805 C1801 1.400 . S
C1805 C1804 1.385 . S
C1806 C1804 1.478 . S
C1806 C1808 1.381 . S
C1806 C1812 1.383 . S
C1807 C1803 1.495 . S
C1807 H1813 0.959 . S
C1807 H1814 0.961 . S
C1807 H1815 0.960 . S
C1808 C1806 1.381 . S
C1808 C1809 1.394 . S
C1808 H1816 0.930 . S
C1809 C1808 1.394 . S
C1809 C1810 1.383 . S
C1809 H1817 0.929 . S
C1810 C1809 1.383 . S
C1810 C1811 1.377 . S
C1811 H1795 0.930 . S
C1811 C1810 1.377 . S
C1811 C1812 1.379 . S
C1812 H1796 0.931 . S
C1812 C1806 1.383 . S
C1812 C1811 1.379 . S
H1813 C1807 0.959 . S
H1814 C1807 0.961 . S
H1815 C1807 0.960 . S
H1816 C1808 0.930 . S
H1817 C1809 0.929 . S
H1818 C1826 0.929 . S
H1819 C1828 0.930 . S
H1820 C1830 0.930 . S
H1821 C1833 0.929 . S
H1822 C1836 0.930 . S
H1823 C1838 0.960 . S
H1824 C1838 0.960 . S
H1825 C1838 0.960 . S
C1826 H1818 0.929 . S
C1826 C1827 1.377 . S
C1826 C1828 1.384 . S
C1827 C1826 1.377 . S
C1827 C1833 1.390 . S
C1828 H1819 0.930 . S
C1828 C1826 1.384 . S
C1828 C1829 1.372 . S
C1829 C1828 1.372 . S
C1829 C1830 1.400 . S
C1829 C1834 1.490 . S
C1830 H1820 0.930 . S
C1830 C1829 1.400 . S
C1830 C1833 1.386 . S
H1831 C1847 0.930 . S
H1832 C1848 0.931 . S
C1833 H1821 0.929 . S
C1833 C1827 1.390 . S
C1833 C1830 1.386 . S
C1834 C1829 1.490 . S
C1834 C1836 1.395 . S
C1834 C1837 1.403 . S
H1835 C1841 0.930 . S
C1836 H1822 0.930 . S
C1836 C1834 1.395 . S
C1836 C1839 1.403 . S
C1837 C1834 1.403 . S
C1837 C1838 1.524 . S
C1837 C1841 1.400 . S
C1838 H1823 0.960 . S
C1838 H1824 0.960 . S
C1838 H1825 0.960 . S
C1838 C1837 1.524 . S
C1839 C1836 1.403 . S
C1839 C1840 1.392 . S
C1839 C1843 1.495 . S
C1840 C1839 1.392 . S
C1840 C1841 1.385 . S
C1840 C1842 1.478 . S
C1841 H1835 0.930 . S
C1841 C1837 1.400 . S
C1841 C1840 1.385 . S
C1842 C1840 1.478 . S
C1842 C1844 1.381 . S
C1842 C1848 1.383 . S
C1843 C1839 1.495 . S
C1843 H1849 0.959 . S
C1843 H1850 0.961 . S
C1843 H1851 0.960 . S
C1844 C1842 1.381 . S
C1844 C1845 1.394 . S
C1844 H1852 0.930 . S
C1845 C1844 1.394 . S
C1845 C1846 1.383 . S
C1845 H1853 0.929 . S
C1846 C1845 1.383 . S
C1846 C1847 1.377 . S
C1847 H1831 0.930 . S
C1847 C1846 1.377 . S
C1847 C1848 1.379 . S
C1848 H1832 0.931 . S
C1848 C1842 1.383 . S
C1848 C1847 1.379 . S
H1849 C1843 0.959 . S
H1850 C1843 0.961 . S
H1851 C1843 0.960 . S
H1852 C1844 0.930 . S
H1853 C1845 0.929 . S
H1854 C1862 0.929 . S
H1855 C1864 0.930 . S
H1856 C1866 0.930 . S
H1857 C1869 0.929 . S
H1858 C1872 0.930 . S
H1859 C1874 0.960 . S
H1860 C1874 0.960 . S
H1861 C1874 0.960 . S
C1862 H1854 0.929 . S
C1862 C1863 1.377 . S
C1862 C1864 1.384 . S
C1863 C1862 1.377 . S
C1863 C1869 1.390 . S
C1864 H1855 0.930 . S
C1864 C1862 1.384 . S
C1864 C1865 1.372 . S
C1865 C1864 1.372 . S
C1865 C1866 1.400 . S
C1865 C1870 1.490 . S
C1866 H1856 0.930 . S
C1866 C1865 1.400 . S
C1866 C1869 1.386 . S
H1867 C1883 0.930 . S
H1868 C1884 0.931 . S
C1869 H1857 0.929 . S
C1869 C1863 1.390 . S
C1869 C1866 1.386 . S
C1870 C1865 1.490 . S
C1870 C1872 1.395 . S
C1870 C1873 1.403 . S
H1871 C1877 0.930 . S
C1872 H1858 0.930 . S
C1872 C1870 1.395 . S
C1872 C1875 1.403 . S
C1873 C1870 1.403 . S
C1873 C1874 1.524 . S
C1873 C1877 1.400 . S
C1874 H1859 0.960 . S
C1874 H1860 0.960 . S
C1874 H1861 0.960 . S
C1874 C1873 1.524 . S
C1875 C1872 1.403 . S
C1875 C1876 1.392 . S
C1875 C1879 1.495 . S
C1876 C1875 1.392 . S
C1876 C1877 1.385 . S
C1876 C1878 1.478 . S
C1877 H1871 0.930 . S
C1877 C1873 1.400 . S
C1877 C1876 1.385 . S
C1878 C1876 1.478 . S
C1878 C1880 1.381 . S
C1878 C1884 1.383 . S
C1879 C1875 1.495 . S
C1879 H1885 0.959 . S
C1879 H1886 0.961 . S
C1879 H1887 0.960 . S
C1880 C1878 1.381 . S
C1880 C1881 1.394 . S
C1880 H1888 0.930 . S
C1881 C1880 1.394 . S
C1881 C1882 1.383 . S
C1881 H1889 0.929 . S
C1882 C1881 1.383 . S
C1882 C1883 1.377 . S
C1883 H1867 0.930 . S
C1883 C1882 1.377 . S
C1883 C1884 1.379 . S
C1884 H1868 0.931 . S
C1884 C1878 1.383 . S
C1884 C1883 1.379 . S
H1885 C1879 0.959 . S
H1886 C1879 0.961 . S
H1887 C1879 0.960 . S
H1888 C1880 0.930 . S
H1889 C1881 0.929 . S
H1890 C1898 0.929 . S
H1891 C1900 0.930 . S
H1892 C1902 0.930 . S
H1893 C1905 0.929 . S
H1894 C1908 0.930 . S
H1895 C1910 0.960 . S
H1896 C1910 0.960 . S
H1897 C1910 0.960 . S
C1898 H1890 0.929 . S
C1898 C1899 1.377 . S
C1898 C1900 1.384 . S
C1899 C1898 1.377 . S
C1899 C1905 1.390 . S
C1900 H1891 0.930 . S
C1900 C1898 1.384 . S
C1900 C1901 1.372 . S
C1901 C1900 1.372 . S
C1901 C1902 1.400 . S
C1901 C1906 1.490 . S
C1902 H1892 0.930 . S
C1902 C1901 1.400 . S
C1902 C1905 1.386 . S
H1903 C1919 0.930 . S
H1904 C1920 0.931 . S
C1905 H1893 0.929 . S
C1905 C1899 1.390 . S
C1905 C1902 1.386 . S
C1906 C1901 1.490 . S
C1906 C1908 1.395 . S
C1906 C1909 1.403 . S
H1907 C1913 0.930 . S
C1908 H1894 0.930 . S
C1908 C1906 1.395 . S
C1908 C1911 1.403 . S
C1909 C1906 1.403 . S
C1909 C1910 1.524 . S
C1909 C1913 1.400 . S
C1910 H1895 0.960 . S
C1910 H1896 0.960 . S
C1910 H1897 0.960 . S
C1910 C1909 1.524 . S
C1911 C1908 1.403 . S
C1911 C1912 1.392 . S
C1911 C1915 1.495 . S
C1912 C1911 1.392 . S
C1912 C1913 1.385 . S
C1912 C1914 1.478 . S
C1913 H1907 0.930 . S
C1913 C1909 1.400 . S
C1913 C1912 1.385 . S
C1914 C1912 1.478 . S
C1914 C1916 1.381 . S
C1914 C1920 1.383 . S
C1915 C1911 1.495 . S
C1915 H1921 0.959 . S
C1915 H1922 0.961 . S
C1915 H1923 0.960 . S
C1916 C1914 1.381 . S
C1916 C1917 1.394 . S
C1916 H1924 0.930 . S
C1917 C1916 1.394 . S
C1917 C1918 1.383 . S
C1917 H1925 0.929 . S
C1918 C1917 1.383 . S
C1918 C1919 1.377 . S
C1919 H1903 0.930 . S
C1919 C1918 1.377 . S
C1919 C1920 1.379 . S
C1920 H1904 0.931 . S
C1920 C1914 1.383 . S
C1920 C1919 1.379 . S
H1921 C1915 0.959 . S
H1922 C1915 0.961 . S
H1923 C1915 0.960 . S
H1924 C1916 0.930 . S
H1925 C1917 0.929 . S
H1926 C1934 0.929 . S
H1927 C1936 0.930 . S
H1928 C1938 0.930 . S
H1929 C1941 0.929 . S
H1930 C1944 0.930 . S
H1931 C1946 0.960 . S
H1932 C1946 0.960 . S
H1933 C1946 0.960 . S
C1934 H1926 0.929 . S
C1934 C1935 1.377 . S
C1934 C1936 1.384 . S
C1935 C1934 1.377 . S
C1935 C1941 1.390 . S
C1936 H1927 0.930 . S
C1936 C1934 1.384 . S
C1936 C1937 1.372 . S
C1937 C1936 1.372 . S
C1937 C1938 1.400 . S
C1937 C1942 1.490 . S
C1938 H1928 0.930 . S
C1938 C1937 1.400 . S
C1938 C1941 1.386 . S
H1939 C1955 0.930 . S
H1940 C1956 0.931 . S
C1941 H1929 0.929 . S
C1941 C1935 1.390 . S
C1941 C1938 1.386 . S
C1942 C1937 1.490 . S
C1942 C1944 1.395 . S
C1942 C1945 1.403 . S
H1943 C1949 0.930 . S
C1944 H1930 0.930 . S
C1944 C1942 1.395 . S
C1944 C1947 1.403 . S
C1945 C1942 1.403 . S
C1945 C1946 1.524 . S
C1945 C1949 1.400 . S
C1946 H1931 0.960 . S
C1946 H1932 0.960 . S
C1946 H1933 0.960 . S
C1946 C1945 1.524 . S
C1947 C1944 1.403 . S
C1947 C1948 1.392 . S
C1947 C1951 1.495 . S
C1948 C1947 1.392 . S
C1948 C1949 1.385 . S
C1948 C1950 1.478 . S
C1949 H1943 0.930 . S
C1949 C1945 1.400 . S
C1949 C1948 1.385 . S
C1950 C1948 1.478 . S
C1950 C1952 1.381 . S
C1950 C1956 1.383 . S
C1951 C1947 1.495 . S
C1951 H1957 0.959 . S
C1951 H1958 0.961 . S
C1951 H1959 0.960 . S
C1952 C1950 1.381 . S
C1952 C1953 1.394 . S
C1952 H1960 0.930 . S
C1953 C1952 1.394 . S
C1953 C1954 1.383 . S
C1953 H1961 0.929 . S
C1954 C1953 1.383 . S
C1954 C1955 1.377 . S
C1955 H1939 0.930 . S
C1955 C1954 1.377 . S
C1955 C1956 1.379 . S
C1956 H1940 0.931 . S
C1956 C1950 1.383 . S
C1956 C1955 1.379 . S
H1957 C1951 0.959 . S
H1958 C1951 0.961 . S
H1959 C1951 0.960 . S
H1960 C1952 0.930 . S
H1961 C1953 0.929 . S
H1962 C1970 0.929 . S
H1963 C1972 0.930 . S
H1964 C1974 0.930 . S
H1965 C1977 0.929 . S
H1966 C1980 0.930 . S
H1967 C1982 0.960 . S
H1968 C1982 0.960 . S
H1969 C1982 0.960 1_565 S
C1970 H1962 0.929 . S
C1970 C1971 1.377 . S
C1970 C1972 1.384 . S
C1971 C1970 1.377 . S
C1971 C1977 1.390 . S
C1972 H1963 0.930 . S
C1972 C1970 1.384 . S
C1972 C1973 1.372 . S
C1973 C1972 1.372 . S
C1973 C1974 1.400 . S
C1973 C1978 1.490 1_565 S
C1974 H1964 0.930 . S
C1974 C1973 1.400 . S
C1974 C1977 1.386 . S
H1975 C1991 0.930 . S
H1976 C1992 0.931 . S
C1977 H1965 0.929 . S
C1977 C1971 1.390 . S
C1977 C1974 1.386 . S
C1978 C1973 1.490 1_545 S
C1978 C1980 1.395 . S
C1978 C1981 1.403 . S
H1979 C1985 0.930 . S
C1980 H1966 0.930 . S
C1980 C1978 1.395 . S
C1980 C1983 1.403 . S
C1981 C1978 1.403 . S
C1981 C1982 1.524 . S
C1981 C1985 1.400 . S
C1982 H1967 0.960 . S
C1982 H1968 0.960 . S
C1982 H1969 0.960 1_545 S
C1982 C1981 1.524 . S
C1983 C1980 1.403 . S
C1983 C1984 1.392 . S
C1983 C1987 1.495 . S
C1984 C1983 1.392 . S
C1984 C1985 1.385 . S
C1984 C1986 1.478 . S
C1985 H1979 0.930 . S
C1985 C1981 1.400 . S
C1985 C1984 1.385 . S
C1986 C1984 1.478 . S
C1986 C1988 1.381 . S
C1986 C1992 1.383 . S
C1987 C1983 1.495 . S
C1987 H1993 0.959 . S
C1987 H1994 0.961 . S
C1987 H1995 0.960 . S
C1988 C1986 1.381 . S
C1988 C1989 1.394 . S
C1988 H1996 0.930 . S
C1989 C1988 1.394 . S
C1989 C1990 1.383 . S
C1989 H1997 0.929 . S
C1990 C1989 1.383 . S
C1990 C1991 1.377 . S
C1991 H1975 0.930 . S
C1991 C1990 1.377 . S
C1991 C1992 1.379 . S
C1992 H1976 0.931 . S
C1992 C1986 1.383 . S
C1992 C1991 1.379 . S
H1993 C1987 0.959 . S
H1994 C1987 0.961 . S
H1995 C1987 0.960 . S
H1996 C1988 0.930 . S
H1997 C1989 0.929 . S
H1998 C2006 0.929 . S
H1999 C2008 0.930 . S
H2000 C2010 0.930 1_655 S
H2001 C2013 0.929 . S
H2002 C2016 0.930 . S
H2003 C2018 0.960 . S
H2004 C2018 0.960 . S
H2005 C2018 0.960 . S
C2006 H1998 0.929 . S
C2006 C2007 1.377 . S
C2006 C2008 1.384 . S
C2007 C2006 1.377 . S
C2007 C2013 1.390 . S
C2008 H1999 0.930 . S
C2008 C2006 1.384 . S
C2008 C2009 1.372 1_455 S
C2009 C2008 1.372 1_655 S
C2009 C2010 1.400 1_655 S
C2009 C2014 1.490 . S
C2010 H2000 0.930 1_455 S
C2010 C2009 1.400 1_455 S
C2010 C2013 1.386 . S
H2011 C2027 0.930 . S
H2012 C2028 0.931 . S
C2013 H2001 0.929 . S
C2013 C2007 1.390 . S
C2013 C2010 1.386 . S
C2014 C2009 1.490 . S
C2014 C2016 1.395 . S
C2014 C2017 1.403 . S
H2015 C2021 0.930 . S
C2016 H2002 0.930 . S
C2016 C2014 1.395 . S
C2016 C2019 1.403 . S
C2017 C2014 1.403 . S
C2017 C2018 1.524 . S
C2017 C2021 1.400 . S
C2018 H2003 0.960 . S
C2018 H2004 0.960 . S
C2018 H2005 0.960 . S
C2018 C2017 1.524 . S
C2019 C2016 1.403 . S
C2019 C2020 1.392 . S
C2019 C2023 1.495 . S
C2020 C2019 1.392 . S
C2020 C2021 1.385 . S
C2020 C2022 1.478 . S
C2021 H2015 0.930 . S
C2021 C2017 1.400 . S
C2021 C2020 1.385 . S
C2022 C2020 1.478 . S
C2022 C2024 1.381 . S
C2022 C2028 1.383 . S
C2023 C2019 1.495 . S
C2023 H2029 0.959 . S
C2023 H2030 0.961 . S
C2023 H2031 0.960 . S
C2024 C2022 1.381 . S
C2024 C2025 1.394 . S
C2024 H2032 0.930 . S
C2025 C2024 1.394 . S
C2025 C2026 1.383 . S
C2025 H2033 0.929 . S
C2026 C2025 1.383 . S
C2026 C2027 1.377 . S
C2027 H2011 0.930 . S
C2027 C2026 1.377 . S
C2027 C2028 1.379 . S
C2028 H2012 0.931 . S
C2028 C2022 1.383 . S
C2028 C2027 1.379 . S
H2029 C2023 0.959 . S
H2030 C2023 0.961 . S
H2031 C2023 0.960 . S
H2032 C2024 0.930 . S
H2033 C2025 0.929 . S
H2034 C2042 0.929 . S
H2035 C2044 0.930 . S
H2036 C2046 0.930 . S
H2037 C2049 0.929 . S
H2038 C2052 0.930 . S
H2039 C2054 0.960 . S
H2040 C2054 0.960 . S
H2041 C2054 0.960 . S
C2042 H2034 0.929 . S
C2042 C2043 1.377 . S
C2042 C2044 1.384 . S
C2043 C2042 1.377 . S
C2043 C2049 1.390 . S
C2044 H2035 0.930 . S
C2044 C2042 1.384 . S
C2044 C2045 1.372 . S
C2045 C2044 1.372 . S
C2045 C2046 1.400 . S
C2045 C2050 1.490 . S
C2046 H2036 0.930 . S
C2046 C2045 1.400 . S
C2046 C2049 1.386 . S
H2047 C2063 0.930 . S
H2048 C2064 0.931 . S
C2049 H2037 0.929 . S
C2049 C2043 1.390 . S
C2049 C2046 1.386 . S
C2050 C2045 1.490 . S
C2050 C2052 1.395 . S
C2050 C2053 1.403 . S
H2051 C2057 0.930 . S
C2052 H2038 0.930 . S
C2052 C2050 1.395 . S
C2052 C2055 1.403 . S
C2053 C2050 1.403 . S
C2053 C2054 1.524 . S
C2053 C2057 1.400 . S
C2054 H2039 0.960 . S
C2054 H2040 0.960 . S
C2054 H2041 0.960 . S
C2054 C2053 1.524 . S
C2055 C2052 1.403 . S
C2055 C2056 1.392 . S
C2055 C2059 1.495 . S
C2056 C2055 1.392 . S
C2056 C2057 1.385 . S
C2056 C2058 1.478 . S
C2057 H2051 0.930 . S
C2057 C2053 1.400 . S
C2057 C2056 1.385 . S
C2058 C2056 1.478 . S
C2058 C2060 1.381 . S
C2058 C2064 1.383 . S
C2059 C2055 1.495 . S
C2059 H2065 0.959 . S
C2059 H2066 0.961 . S
C2059 H2067 0.960 . S
C2060 C2058 1.381 . S
C2060 C2061 1.394 . S
C2060 H2068 0.930 . S
C2061 C2060 1.394 . S
C2061 C2062 1.383 . S
C2061 H2069 0.929 . S
C2062 C2061 1.383 . S
C2062 C2063 1.377 . S
C2063 H2047 0.930 . S
C2063 C2062 1.377 . S
C2063 C2064 1.379 . S
C2064 H2048 0.931 . S
C2064 C2058 1.383 . S
C2064 C2063 1.379 . S
H2065 C2059 0.959 . S
H2066 C2059 0.961 . S
H2067 C2059 0.960 . S
H2068 C2060 0.930 . S
H2069 C2061 0.929 . S
H2070 C2078 0.929 . S
H2071 C2080 0.930 . S
H2072 C2082 0.930 . S
H2073 C2085 0.929 . S
H2074 C2088 0.930 . S
H2075 C2090 0.960 . S
H2076 C2090 0.960 . S
H2077 C2090 0.960 . S
C2078 H2070 0.929 . S
C2078 C2079 1.377 . S
C2078 C2080 1.384 . S
C2079 C2078 1.377 . S
C2079 C2085 1.390 . S
C2080 H2071 0.930 . S
C2080 C2078 1.384 . S
C2080 C2081 1.372 . S
C2081 C2080 1.372 . S
C2081 C2082 1.400 . S
C2081 C2086 1.490 . S
C2082 H2072 0.930 . S
C2082 C2081 1.400 . S
C2082 C2085 1.386 . S
H2083 C2099 0.930 . S
H2084 C2100 0.931 . S
C2085 H2073 0.929 . S
C2085 C2079 1.390 . S
C2085 C2082 1.386 . S
C2086 C2081 1.490 . S
C2086 C2088 1.395 . S
C2086 C2089 1.403 . S
H2087 C2093 0.930 . S
C2088 H2074 0.930 . S
C2088 C2086 1.395 . S
C2088 C2091 1.403 . S
C2089 C2086 1.403 . S
C2089 C2090 1.524 . S
C2089 C2093 1.400 1_455 S
C2090 H2075 0.960 . S
C2090 H2076 0.960 . S
C2090 H2077 0.960 . S
C2090 C2089 1.524 . S
C2091 C2088 1.403 . S
C2091 C2092 1.392 1_455 S
C2091 C2095 1.495 . S
C2092 C2091 1.392 1_655 S
C2092 C2093 1.385 . S
C2092 C2094 1.478 . S
C2093 H2087 0.930 . S
C2093 C2089 1.400 1_655 S
C2093 C2092 1.385 . S
C2094 C2092 1.478 . S
C2094 C2096 1.381 . S
C2094 C2100 1.383 . S
C2095 C2091 1.495 . S
C2095 H2101 0.959 . S
C2095 H2102 0.961 1_455 S
C2095 H2103 0.960 1_455 S
C2096 C2094 1.381 . S
C2096 C2097 1.394 . S
C2096 H2104 0.930 . S
C2097 C2096 1.394 . S
C2097 C2098 1.383 . S
C2097 H2105 0.929 . S
C2098 C2097 1.383 . S
C2098 C2099 1.377 . S
C2099 H2083 0.930 . S
C2099 C2098 1.377 . S
C2099 C2100 1.379 . S
C2100 H2084 0.931 . S
C2100 C2094 1.383 . S
C2100 C2099 1.379 . S
H2101 C2095 0.959 . S
H2102 C2095 0.961 1_655 S
H2103 C2095 0.960 1_655 S
H2104 C2096 0.930 . S
H2105 C2097 0.929 . S
H2106 C2114 0.929 . S
H2107 C2116 0.930 . S
H2108 C2118 0.930 . S
H2109 C2121 0.929 . S
H2110 C2124 0.930 . S
H2111 C2126 0.960 . S
H2112 C2126 0.960 . S
H2113 C2126 0.960 . S
C2114 H2106 0.929 . S
C2114 C2115 1.377 . S
C2114 C2116 1.384 . S
C2115 C2114 1.377 . S
C2115 C2121 1.390 . S
C2116 H2107 0.930 . S
C2116 C2114 1.384 . S
C2116 C2117 1.372 . S
C2117 C2116 1.372 . S
C2117 C2118 1.400 . S
C2117 C2122 1.490 . S
C2118 H2108 0.930 . S
C2118 C2117 1.400 . S
C2118 C2121 1.386 . S
H2119 C2135 0.930 . S
H2120 C2136 0.931 . S
C2121 H2109 0.929 . S
C2121 C2115 1.390 . S
C2121 C2118 1.386 . S
C2122 C2117 1.490 . S
C2122 C2124 1.395 . S
C2122 C2125 1.403 . S
H2123 C2129 0.930 . S
C2124 H2110 0.930 . S
C2124 C2122 1.395 . S
C2124 C2127 1.403 . S
C2125 C2122 1.403 . S
C2125 C2126 1.524 . S
C2125 C2129 1.400 . S
C2126 H2111 0.960 . S
C2126 H2112 0.960 . S
C2126 H2113 0.960 . S
C2126 C2125 1.524 . S
C2127 C2124 1.403 . S
C2127 C2128 1.392 . S
C2127 C2131 1.495 . S
C2128 C2127 1.392 . S
C2128 C2129 1.385 . S
C2128 C2130 1.478 . S
C2129 H2123 0.930 . S
C2129 C2125 1.400 . S
C2129 C2128 1.385 . S
C2130 C2128 1.478 . S
C2130 C2132 1.381 . S
C2130 C2136 1.383 . S
C2131 C2127 1.495 . S
C2131 H2137 0.959 . S
C2131 H2138 0.961 . S
C2131 H2139 0.960 . S
C2132 C2130 1.381 . S
C2132 C2133 1.394 . S
C2132 H2140 0.930 . S
C2133 C2132 1.394 . S
C2133 C2134 1.383 . S
C2133 H2141 0.929 . S
C2134 C2133 1.383 . S
C2134 C2135 1.377 . S
C2135 H2119 0.930 . S
C2135 C2134 1.377 . S
C2135 C2136 1.379 . S
C2136 H2120 0.931 . S
C2136 C2130 1.383 . S
C2136 C2135 1.379 . S
H2137 C2131 0.959 . S
H2138 C2131 0.961 . S
H2139 C2131 0.960 . S
H2140 C2132 0.930 . S
H2141 C2133 0.929 . S
H2142 C2150 0.929 . S
H2143 C2152 0.930 . S
H2144 C2154 0.930 . S
H2145 C2157 0.929 . S
H2146 C2160 0.930 . S
H2147 C2162 0.960 . S
H2148 C2162 0.960 1_565 S
H2149 C2162 0.964 . S
C2150 H2142 0.929 . S
C2150 C2151 1.377 . S
C2150 C2152 1.384 . S
C2151 C2150 1.377 . S
C2151 C2157 1.390 . S
C2152 H2143 0.930 . S
C2152 C2150 1.384 . S
C2152 C2153 1.372 . S
C2153 C2152 1.372 . S
C2153 C2154 1.400 . S
C2153 C2158 1.490 . S
C2154 H2144 0.930 . S
C2154 C2153 1.400 . S
C2154 C2157 1.386 . S
H2155 C2171 0.930 . S
H2156 C2172 0.931 . S
C2157 H2145 0.929 . S
C2157 C2151 1.390 . S
C2157 C2154 1.386 . S
C2158 C2153 1.490 . S
C2158 C2160 1.395 . S
C2158 C2161 1.403 1_565 S
H2159 C2165 0.930 . S
C2160 H2146 0.930 . S
C2160 C2158 1.395 . S
C2160 C2163 1.403 1_565 S
C2161 C2158 1.403 1_545 S
C2161 C2162 1.524 . S
C2161 C2165 1.400 . S
C2162 H2147 0.960 . S
C2162 H2148 0.960 1_545 S
C2162 H2149 0.964 . S
C2162 C2161 1.524 . S
C2163 C2160 1.403 1_545 S
C2163 C2164 1.392 . S
C2163 C2167 1.495 . S
C2164 C2163 1.392 . S
C2164 C2165 1.385 . S
C2164 C2166 1.478 . S
C2165 H2159 0.930 . S
C2165 C2161 1.400 . S
C2165 C2164 1.385 . S
C2166 C2164 1.478 . S
C2166 C2168 1.381 . S
C2166 C2172 1.383 . S
C2167 C2163 1.495 . S
C2167 H2173 0.959 . S
C2167 H2174 0.961 . S
C2167 H2175 0.960 . S
C2168 C2166 1.381 . S
C2168 C2169 1.394 . S
C2168 H2176 0.930 . S
C2169 C2168 1.394 . S
C2169 C2170 1.383 . S
C2169 H2177 0.929 . S
C2170 C2169 1.383 . S
C2170 C2171 1.377 . S
C2171 H2155 0.930 . S
C2171 C2170 1.377 . S
C2171 C2172 1.379 . S
C2172 H2156 0.931 . S
C2172 C2166 1.383 . S
C2172 C2171 1.379 . S
H2173 C2167 0.959 . S
H2174 C2167 0.961 . S
H2175 C2167 0.960 . S
H2176 C2168 0.930 . S
H2177 C2169 0.929 . S
H2178 C2186 0.929 . S
H2179 C2188 0.930 . S
H2180 C2190 0.930 . S
H2181 C2193 0.929 . S
H2182 C2196 0.930 . S
H2183 C2198 0.960 . S
H2184 C2198 0.960 . S
H2185 C2198 0.960 . S
C2186 H2178 0.929 . S
C2186 C2187 1.377 . S
C2186 C2188 1.384 . S
C2187 C2186 1.377 . S
C2187 C2193 1.390 . S
C2188 H2179 0.930 . S
C2188 C2186 1.384 . S
C2188 C2189 1.372 . S
C2189 C2188 1.372 . S
C2189 C2190 1.400 . S
C2189 C2194 1.490 . S
C2190 H2180 0.930 . S
C2190 C2189 1.400 . S
C2190 C2193 1.386 . S
H2191 C2207 0.930 . S
H2192 C2208 0.931 . S
C2193 H2181 0.929 . S
C2193 C2187 1.390 . S
C2193 C2190 1.386 . S
C2194 C2189 1.490 . S
C2194 C2196 1.395 . S
C2194 C2197 1.403 . S
H2195 C2201 0.930 . S
C2196 H2182 0.930 . S
C2196 C2194 1.395 . S
C2196 C2199 1.403 . S
C2197 C2194 1.403 . S
C2197 C2198 1.524 . S
C2197 C2201 1.400 . S
C2198 H2183 0.960 . S
C2198 H2184 0.960 . S
C2198 H2185 0.960 . S
C2198 C2197 1.524 . S
C2199 C2196 1.403 . S
C2199 C2200 1.392 . S
C2199 C2203 1.495 . S
C2200 C2199 1.392 . S
C2200 C2201 1.385 . S
C2200 C2202 1.478 . S
C2201 H2195 0.930 . S
C2201 C2197 1.400 . S
C2201 C2200 1.385 . S
C2202 C2200 1.478 . S
C2202 C2204 1.381 . S
C2202 C2208 1.383 . S
C2203 C2199 1.495 . S
C2203 H2209 0.959 . S
C2203 H2210 0.961 . S
C2203 H2211 0.960 . S
C2204 C2202 1.381 . S
C2204 C2205 1.394 . S
C2204 H2212 0.930 . S
C2205 C2204 1.394 . S
C2205 C2206 1.383 . S
C2205 H2213 0.929 . S
C2206 C2205 1.383 . S
C2206 C2207 1.377 . S
C2207 H2191 0.930 . S
C2207 C2206 1.377 . S
C2207 C2208 1.379 . S
C2208 H2192 0.931 . S
C2208 C2202 1.383 . S
C2208 C2207 1.379 . S
H2209 C2203 0.959 . S
H2210 C2203 0.961 . S
H2211 C2203 0.960 . S
H2212 C2204 0.930 . S
H2213 C2205 0.929 . S
H2214 C2222 0.929 . S
H2215 C2224 0.930 . S
H2216 C2226 0.930 . S
H2217 C2229 0.929 . S
H2218 C2232 0.930 . S
H2219 C2234 0.960 . S
H2220 C2234 0.960 . S
H2221 C2234 0.960 . S
C2222 H2214 0.929 . S
C2222 C2223 1.377 . S
C2222 C2224 1.384 . S
C2223 C2222 1.377 . S
C2223 C2229 1.390 . S
C2224 H2215 0.930 . S
C2224 C2222 1.384 . S
C2224 C2225 1.372 . S
C2225 C2224 1.372 . S
C2225 C2226 1.400 . S
C2225 C2230 1.490 . S
C2226 H2216 0.930 . S
C2226 C2225 1.400 . S
C2226 C2229 1.386 . S
H2227 C2243 0.930 . S
H2228 C2244 0.931 . S
C2229 H2217 0.929 . S
C2229 C2223 1.390 . S
C2229 C2226 1.386 . S
C2230 C2225 1.490 . S
C2230 C2232 1.395 . S
C2230 C2233 1.403 . S
H2231 C2237 0.930 . S
C2232 H2218 0.930 . S
C2232 C2230 1.395 . S
C2232 C2235 1.403 . S
C2233 C2230 1.403 . S
C2233 C2234 1.524 . S
C2233 C2237 1.400 . S
C2234 H2219 0.960 . S
C2234 H2220 0.960 . S
C2234 H2221 0.960 . S
C2234 C2233 1.524 . S
C2235 C2232 1.403 . S
C2235 C2236 1.392 . S
C2235 C2239 1.495 . S
C2236 C2235 1.392 . S
C2236 C2237 1.385 . S
C2236 C2238 1.478 . S
C2237 H2231 0.930 . S
C2237 C2233 1.400 . S
C2237 C2236 1.385 . S
C2238 C2236 1.478 . S
C2238 C2240 1.381 . S
C2238 C2244 1.383 . S
C2239 C2235 1.495 . S
C2239 H2245 0.959 . S
C2239 H2246 0.961 . S
C2239 H2247 0.960 . S
C2240 C2238 1.381 . S
C2240 C2241 1.394 . S
C2240 H2248 0.930 . S
C2241 C2240 1.394 . S
C2241 C2242 1.383 . S
C2241 H2249 0.929 . S
C2242 C2241 1.383 . S
C2242 C2243 1.377 . S
C2243 H2227 0.930 . S
C2243 C2242 1.377 . S
C2243 C2244 1.379 . S
C2244 H2228 0.931 . S
C2244 C2238 1.383 . S
C2244 C2243 1.379 . S
H2245 C2239 0.959 . S
H2246 C2239 0.961 . S
H2247 C2239 0.960 . S
H2248 C2240 0.930 . S
H2249 C2241 0.929 . S
H2250 C2258 0.929 . S
H2251 C2260 0.930 . S
H2252 C2262 0.930 . S
H2253 C2265 0.929 . S
H2254 C2268 0.930 . S
H2255 C2270 0.960 . S
H2256 C2270 0.960 . S
H2257 C2270 0.960 . S
C2258 H2250 0.929 . S
C2258 C2259 1.377 . S
C2258 C2260 1.384 . S
C2259 C2258 1.377 . S
C2259 C2265 1.390 . S
C2260 H2251 0.930 . S
C2260 C2258 1.384 . S
C2260 C2261 1.372 . S
C2261 C2260 1.372 . S
C2261 C2262 1.400 . S
C2261 C2266 1.490 . S
C2262 H2252 0.930 . S
C2262 C2261 1.400 . S
C2262 C2265 1.386 . S
H2263 C2279 0.930 . S
H2264 C2280 0.931 . S
C2265 H2253 0.929 . S
C2265 C2259 1.390 . S
C2265 C2262 1.386 . S
C2266 C2261 1.490 . S
C2266 C2268 1.395 . S
C2266 C2269 1.403 . S
H2267 C2273 0.930 . S
C2268 H2254 0.930 . S
C2268 C2266 1.395 . S
C2268 C2271 1.403 . S
C2269 C2266 1.403 . S
C2269 C2270 1.524 . S
C2269 C2273 1.400 . S
C2270 H2255 0.960 . S
C2270 H2256 0.960 . S
C2270 H2257 0.960 . S
C2270 C2269 1.524 . S
C2271 C2268 1.403 . S
C2271 C2272 1.392 . S
C2271 C2275 1.495 . S
C2272 C2271 1.392 . S
C2272 C2273 1.385 . S
C2272 C2274 1.478 . S
C2273 H2267 0.930 . S
C2273 C2269 1.400 . S
C2273 C2272 1.385 . S
C2274 C2272 1.478 . S
C2274 C2276 1.381 . S
C2274 C2280 1.383 . S
C2275 C2271 1.495 . S
C2275 H2281 0.959 . S
C2275 H2282 0.961 . S
C2275 H2283 0.960 . S
C2276 C2274 1.381 . S
C2276 C2277 1.394 . S
C2276 H2284 0.930 . S
C2277 C2276 1.394 . S
C2277 C2278 1.383 . S
C2277 H2285 0.929 . S
C2278 C2277 1.383 . S
C2278 C2279 1.377 . S
C2279 H2263 0.930 . S
C2279 C2278 1.377 . S
C2279 C2280 1.379 . S
C2280 H2264 0.931 . S
C2280 C2274 1.383 . S
C2280 C2279 1.379 . S
H2281 C2275 0.959 . S
H2282 C2275 0.961 . S
H2283 C2275 0.960 . S
H2284 C2276 0.930 . S
H2285 C2277 0.929 . S
H2286 C2294 0.929 . S
H2287 C2296 0.930 . S
H2288 C2298 0.930 . S
H2289 C2301 0.929 . S
H2290 C2304 0.930 . S
H2291 C2306 0.960 . S
H2292 C2306 0.960 . S
H2293 C2306 0.960 . S
C2294 H2286 0.929 . S
C2294 C2295 1.377 . S
C2294 C2296 1.384 . S
C2295 C2294 1.377 . S
C2295 C2301 1.390 . S
C2296 H2287 0.930 . S
C2296 C2294 1.384 . S
C2296 C2297 1.372 . S
C2297 C2296 1.372 . S
C2297 C2298 1.400 . S
C2297 C2302 1.490 . S
C2298 H2288 0.930 . S
C2298 C2297 1.400 . S
C2298 C2301 1.386 . S
H2299 C2315 0.930 . S
H2300 C2316 0.931 . S
C2301 H2289 0.929 . S
C2301 C2295 1.390 . S
C2301 C2298 1.386 . S
C2302 C2297 1.490 . S
C2302 C2304 1.395 . S
C2302 C2305 1.403 . S
H2303 C2309 0.930 . S
C2304 H2290 0.930 . S
C2304 C2302 1.395 . S
C2304 C2307 1.403 . S
C2305 C2302 1.403 . S
C2305 C2306 1.524 . S
C2305 C2309 1.400 . S
C2306 H2291 0.960 . S
C2306 H2292 0.960 . S
C2306 H2293 0.960 . S
C2306 C2305 1.524 . S
C2307 C2304 1.403 . S
C2307 C2308 1.392 . S
C2307 C2311 1.495 . S
C2308 C2307 1.392 . S
C2308 C2309 1.385 . S
C2308 C2310 1.478 . S
C2309 H2303 0.930 . S
C2309 C2305 1.400 . S
C2309 C2308 1.385 . S
C2310 C2308 1.478 . S
C2310 C2312 1.381 . S
C2310 C2316 1.383 . S
C2311 C2307 1.495 . S
C2311 H2317 0.959 . S
C2311 H2318 0.961 . S
C2311 H2319 0.960 . S
C2312 C2310 1.381 . S
C2312 C2313 1.394 . S
C2312 H2320 0.930 . S
C2313 C2312 1.394 . S
C2313 C2314 1.383 . S
C2313 H2321 0.929 . S
C2314 C2313 1.383 . S
C2314 C2315 1.377 . S
C2315 H2299 0.930 . S
C2315 C2314 1.377 . S
C2315 C2316 1.379 . S
C2316 H2300 0.931 . S
C2316 C2310 1.383 . S
C2316 C2315 1.379 . S
H2317 C2311 0.959 . S
H2318 C2311 0.961 . S
H2319 C2311 0.960 . S
H2320 C2312 0.930 . S
H2321 C2313 0.929 . S
H2322 C2330 0.929 . S
H2323 C2332 0.930 . S
H2324 C2334 0.930 . S
H2325 C2337 0.929 . S
H2326 C2340 0.930 . S
H2327 C2342 0.960 . S
H2328 C2342 0.960 . S
H2329 C2342 0.960 . S
C2330 H2322 0.929 . S
C2330 C2331 1.377 . S
C2330 C2332 1.384 . S
C2331 C2330 1.377 . S
C2331 C2337 1.390 . S
C2332 H2323 0.930 . S
C2332 C2330 1.384 . S
C2332 C2333 1.372 . S
C2333 C2332 1.372 . S
C2333 C2334 1.400 . S
C2333 C2338 1.490 . S
C2334 H2324 0.930 . S
C2334 C2333 1.400 . S
C2334 C2337 1.386 . S
H2335 C2351 0.930 . S
H2336 C2352 0.931 . S
C2337 H2325 0.929 . S
C2337 C2331 1.390 . S
C2337 C2334 1.386 . S
C2338 C2333 1.490 . S
C2338 C2340 1.395 . S
C2338 C2341 1.403 . S
H2339 C2345 0.930 . S
C2340 H2326 0.930 . S
C2340 C2338 1.395 . S
C2340 C2343 1.403 . S
C2341 C2338 1.403 . S
C2341 C2342 1.524 . S
C2341 C2345 1.400 . S
C2342 H2327 0.960 . S
C2342 H2328 0.960 . S
C2342 H2329 0.960 . S
C2342 C2341 1.524 . S
C2343 C2340 1.403 . S
C2343 C2344 1.392 . S
C2343 C2347 1.495 . S
C2344 C2343 1.392 . S
C2344 C2345 1.385 . S
C2344 C2346 1.478 . S
C2345 H2339 0.930 . S
C2345 C2341 1.400 . S
C2345 C2344 1.385 . S
C2346 C2344 1.478 . S
C2346 C2348 1.381 . S
C2346 C2352 1.383 . S
C2347 C2343 1.495 . S
C2347 H2353 0.959 . S
C2347 H2354 0.961 . S
C2347 H2355 0.960 . S
C2348 C2346 1.381 . S
C2348 C2349 1.394 . S
C2348 H2356 0.930 . S
C2349 C2348 1.394 . S
C2349 C2350 1.383 . S
C2349 H2357 0.929 . S
C2350 C2349 1.383 . S
C2350 C2351 1.377 . S
C2351 H2335 0.930 . S
C2351 C2350 1.377 . S
C2351 C2352 1.379 . S
C2352 H2336 0.931 . S
C2352 C2346 1.383 . S
C2352 C2351 1.379 . S
H2353 C2347 0.959 . S
H2354 C2347 0.961 . S
H2355 C2347 0.960 . S
H2356 C2348 0.930 . S
H2357 C2349 0.929 . S
H2358 C2366 0.929 . S
H2359 C2368 0.930 . S
H2360 C2370 0.930 . S
H2361 C2373 0.929 . S
H2362 C2376 0.930 . S
H2363 C2378 0.960 . S
H2364 C2378 0.960 . S
H2365 C2378 0.960 . S
C2366 H2358 0.929 . S
C2366 C2367 1.377 . S
C2366 C2368 1.384 . S
C2367 C2366 1.377 . S
C2367 C2373 1.390 . S
C2368 H2359 0.930 . S
C2368 C2366 1.384 . S
C2368 C2369 1.372 . S
C2369 C2368 1.372 . S
C2369 C2370 1.400 . S
C2369 C2374 1.490 . S
C2370 H2360 0.930 . S
C2370 C2369 1.400 . S
C2370 C2373 1.386 . S
H2371 C2387 0.930 . S
H2372 C2388 0.931 . S
C2373 H2361 0.929 . S
C2373 C2367 1.390 . S
C2373 C2370 1.386 . S
C2374 C2369 1.490 . S
C2374 C2376 1.395 . S
C2374 C2377 1.403 . S
H2375 C2381 0.930 . S
C2376 H2362 0.930 . S
C2376 C2374 1.395 . S
C2376 C2379 1.403 . S
C2377 C2374 1.403 . S
C2377 C2378 1.524 . S
C2377 C2381 1.400 . S
C2378 H2363 0.960 . S
C2378 H2364 0.960 . S
C2378 H2365 0.960 . S
C2378 C2377 1.524 . S
C2379 C2376 1.403 . S
C2379 C2380 1.392 . S
C2379 C2383 1.495 . S
C2380 C2379 1.392 . S
C2380 C2381 1.385 . S
C2380 C2382 1.478 . S
C2381 H2375 0.930 . S
C2381 C2377 1.400 . S
C2381 C2380 1.385 . S
C2382 C2380 1.478 . S
C2382 C2384 1.381 . S
C2382 C2388 1.383 . S
C2383 C2379 1.495 . S
C2383 H2389 0.959 . S
C2383 H2390 0.961 . S
C2383 H2391 0.960 . S
C2384 C2382 1.381 . S
C2384 C2385 1.394 . S
C2384 H2392 0.930 . S
C2385 C2384 1.394 . S
C2385 C2386 1.383 . S
C2385 H2393 0.929 . S
C2386 C2385 1.383 . S
C2386 C2387 1.377 . S
C2387 H2371 0.930 . S
C2387 C2386 1.377 . S
C2387 C2388 1.379 . S
C2388 H2372 0.931 . S
C2388 C2382 1.383 . S
C2388 C2387 1.379 . S
H2389 C2383 0.959 . S
H2390 C2383 0.961 . S
H2391 C2383 0.960 . S
H2392 C2384 0.930 . S
H2393 C2385 0.929 . S
H2394 C2402 0.929 . S
H2395 C2404 0.930 . S
H2396 C2406 0.930 . S
H2397 C2409 0.929 . S
H2398 C2412 0.930 . S
H2399 C2414 0.960 . S
H2400 C2414 0.960 . S
H2401 C2414 0.960 . S
C2402 H2394 0.929 . S
C2402 C2403 1.377 . S
C2402 C2404 1.384 . S
C2403 C2402 1.377 . S
C2403 C2409 1.390 . S
C2404 H2395 0.930 . S
C2404 C2402 1.384 . S
C2404 C2405 1.372 . S
C2405 C2404 1.372 . S
C2405 C2406 1.400 . S
C2405 C2410 1.490 . S
C2406 H2396 0.930 . S
C2406 C2405 1.400 . S
C2406 C2409 1.386 . S
H2407 C2423 0.930 . S
H2408 C2424 0.931 . S
C2409 H2397 0.929 . S
C2409 C2403 1.390 . S
C2409 C2406 1.386 . S
C2410 C2405 1.490 . S
C2410 C2412 1.395 . S
C2410 C2413 1.403 . S
H2411 C2417 0.930 . S
C2412 H2398 0.930 . S
C2412 C2410 1.395 . S
C2412 C2415 1.403 . S
C2413 C2410 1.403 . S
C2413 C2414 1.524 . S
C2413 C2417 1.400 . S
C2414 H2399 0.960 . S
C2414 H2400 0.960 . S
C2414 H2401 0.960 . S
C2414 C2413 1.524 . S
C2415 C2412 1.403 . S
C2415 C2416 1.392 . S
C2415 C2419 1.495 1_655 S
C2416 C2415 1.392 . S
C2416 C2417 1.385 . S
C2416 C2418 1.478 . S
C2417 H2411 0.930 . S
C2417 C2413 1.400 . S
C2417 C2416 1.385 . S
C2418 C2416 1.478 . S
C2418 C2420 1.381 . S
C2418 C2424 1.383 . S
C2419 C2415 1.495 1_455 S
C2419 H2425 0.959 . S
C2419 H2426 0.961 . S
C2419 H2427 0.960 . S
C2420 C2418 1.381 . S
C2420 C2421 1.394 . S
C2420 H2428 0.930 . S
C2421 C2420 1.394 . S
C2421 C2422 1.383 . S
C2421 H2429 0.929 . S
C2422 C2421 1.383 . S
C2422 C2423 1.377 . S
C2423 H2407 0.930 . S
C2423 C2422 1.377 . S
C2423 C2424 1.379 . S
C2424 H2408 0.931 . S
C2424 C2418 1.383 . S
C2424 C2423 1.379 . S
H2425 C2419 0.959 . S
H2426 C2419 0.961 . S
H2427 C2419 0.960 . S
H2428 C2420 0.930 . S
H2429 C2421 0.929 . S
H2430 C2438 0.929 . S
H2431 C2440 0.930 . S
H2432 C2442 0.930 . S
H2433 C2445 0.929 . S
H2434 C2448 0.930 . S
H2435 C2450 0.960 . S
H2436 C2450 0.960 . S
H2437 C2450 0.960 . S
C2438 H2430 0.929 . S
C2438 C2439 1.377 . S
C2438 C2440 1.384 . S
C2439 C2438 1.377 . S
C2439 C2445 1.390 . S
C2440 H2431 0.930 . S
C2440 C2438 1.384 . S
C2440 C2441 1.372 . S
C2441 C2440 1.372 . S
C2441 C2442 1.400 . S
C2441 C2446 1.490 . S
C2442 H2432 0.930 . S
C2442 C2441 1.400 . S
C2442 C2445 1.386 . S
H2443 C2459 0.930 . S
H2444 C2460 0.931 . S
C2445 H2433 0.929 . S
C2445 C2439 1.390 . S
C2445 C2442 1.386 . S
C2446 C2441 1.490 . S
C2446 C2448 1.395 . S
C2446 C2449 1.403 . S
H2447 C2453 0.930 . S
C2448 H2434 0.930 . S
C2448 C2446 1.395 . S
C2448 C2451 1.403 . S
C2449 C2446 1.403 . S
C2449 C2450 1.524 . S
C2449 C2453 1.400 . S
C2450 H2435 0.960 . S
C2450 H2436 0.960 . S
C2450 H2437 0.960 . S
C2450 C2449 1.524 . S
C2451 C2448 1.403 . S
C2451 C2452 1.392 . S
C2451 C2455 1.495 . S
C2452 C2451 1.392 . S
C2452 C2453 1.385 . S
C2452 C2454 1.478 . S
C2453 H2447 0.930 . S
C2453 C2449 1.400 . S
C2453 C2452 1.385 . S
C2454 C2452 1.478 . S
C2454 C2456 1.381 . S
C2454 C2460 1.383 . S
C2455 C2451 1.495 . S
C2455 H2461 0.959 . S
C2455 H2462 0.961 . S
C2455 H2463 0.960 . S
C2456 C2454 1.381 . S
C2456 C2457 1.394 . S
C2456 H2464 0.930 . S
C2457 C2456 1.394 . S
C2457 C2458 1.383 . S
C2457 H2465 0.929 . S
C2458 C2457 1.383 . S
C2458 C2459 1.377 . S
C2459 H2443 0.930 . S
C2459 C2458 1.377 . S
C2459 C2460 1.379 . S
C2460 H2444 0.931 . S
C2460 C2454 1.383 . S
C2460 C2459 1.379 . S
H2461 C2455 0.959 . S
H2462 C2455 0.961 . S
H2463 C2455 0.960 . S
H2464 C2456 0.930 . S
H2465 C2457 0.929 . S
H2466 C2474 0.929 . S
H2467 C2476 0.930 . S
H2468 C2478 0.930 . S
H2469 C2481 0.929 . S
H2470 C2484 0.930 . S
H2471 C2486 0.960 . S
H2472 C2486 0.960 . S
H2473 C2486 0.960 . S
C2474 H2466 0.929 . S
C2474 C2475 1.377 . S
C2474 C2476 1.384 . S
C2475 C2474 1.377 . S
C2475 C2481 1.390 . S
C2476 H2467 0.930 . S
C2476 C2474 1.384 . S
C2476 C2477 1.372 . S
C2477 C2476 1.372 . S
C2477 C2478 1.400 . S
C2477 C2482 1.490 . S
C2478 H2468 0.930 . S
C2478 C2477 1.400 . S
C2478 C2481 1.386 . S
H2479 C2495 0.930 . S
H2480 C2496 0.931 . S
C2481 H2469 0.929 . S
C2481 C2475 1.390 . S
C2481 C2478 1.386 . S
C2482 C2477 1.490 . S
C2482 C2484 1.395 . S
C2482 C2485 1.403 . S
H2483 C2489 0.930 . S
C2484 H2470 0.930 . S
C2484 C2482 1.395 . S
C2484 C2487 1.403 . S
C2485 C2482 1.403 . S
C2485 C2486 1.524 . S
C2485 C2489 1.400 . S
C2486 H2471 0.960 . S
C2486 H2472 0.960 . S
C2486 H2473 0.960 . S
C2486 C2485 1.524 . S
C2487 C2484 1.403 . S
C2487 C2488 1.392 . S
C2487 C2491 1.495 . S
C2488 C2487 1.392 . S
C2488 C2489 1.385 . S
C2488 C2490 1.478 . S
C2489 H2483 0.930 . S
C2489 C2485 1.400 . S
C2489 C2488 1.385 . S
C2490 C2488 1.478 . S
C2490 C2492 1.381 . S
C2490 C2496 1.383 . S
C2491 C2487 1.495 . S
C2491 H2497 0.959 . S
C2491 H2498 0.961 . S
C2491 H2499 0.960 . S
C2492 C2490 1.381 . S
C2492 C2493 1.394 . S
C2492 H2500 0.930 . S
C2493 C2492 1.394 . S
C2493 C2494 1.383 . S
C2493 H2501 0.929 . S
C2494 C2493 1.383 . S
C2494 C2495 1.377 . S
C2495 H2479 0.930 . S
C2495 C2494 1.377 . S
C2495 C2496 1.379 . S
C2496 H2480 0.931 . S
C2496 C2490 1.383 . S
C2496 C2495 1.379 . S
H2497 C2491 0.959 . S
H2498 C2491 0.961 . S
H2499 C2491 0.960 . S
H2500 C2492 0.930 . S
H2501 C2493 0.929 . S
H2502 C2510 0.929 . S
H2503 C2512 0.930 . S
H2504 C2514 0.930 . S
H2505 C2517 0.929 . S
H2506 C2520 0.930 . S
H2507 C2522 0.960 . S
H2508 C2522 0.960 . S
H2509 C2522 0.960 . S
C2510 H2502 0.929 . S
C2510 C2511 1.377 . S
C2510 C2512 1.384 . S
C2511 C2510 1.377 . S
C2511 C2517 1.390 . S
C2512 H2503 0.930 . S
C2512 C2510 1.384 . S
C2512 C2513 1.372 . S
C2513 C2512 1.372 . S
C2513 C2514 1.400 . S
C2513 C2518 1.490 . S
C2514 H2504 0.930 . S
C2514 C2513 1.400 . S
C2514 C2517 1.386 . S
H2515 C2531 0.930 . S
H2516 C2532 0.931 . S
C2517 H2505 0.929 . S
C2517 C2511 1.390 . S
C2517 C2514 1.386 . S
C2518 C2513 1.490 . S
C2518 C2520 1.395 . S
C2518 C2521 1.403 . S
H2519 C2525 0.930 . S
C2520 H2506 0.930 . S
C2520 C2518 1.395 . S
C2520 C2523 1.403 . S
C2521 C2518 1.403 . S
C2521 C2522 1.524 . S
C2521 C2525 1.400 . S
C2522 H2507 0.960 . S
C2522 H2508 0.960 . S
C2522 H2509 0.960 . S
C2522 C2521 1.524 . S
C2523 C2520 1.403 . S
C2523 C2524 1.392 . S
C2523 C2527 1.495 . S
C2524 C2523 1.392 . S
C2524 C2525 1.385 . S
C2524 C2526 1.478 . S
C2525 H2519 0.930 . S
C2525 C2521 1.400 . S
C2525 C2524 1.385 . S
C2526 C2524 1.478 . S
C2526 C2528 1.381 . S
C2526 C2532 1.383 . S
C2527 C2523 1.495 . S
C2527 H2533 0.959 . S
C2527 H2534 0.961 . S
C2527 H2535 0.960 . S
C2528 C2526 1.381 . S
C2528 C2529 1.394 . S
C2528 H2536 0.930 . S
C2529 C2528 1.394 . S
C2529 C2530 1.383 . S
C2529 H2537 0.929 . S
C2530 C2529 1.383 . S
C2530 C2531 1.377 . S
C2531 H2515 0.930 . S
C2531 C2530 1.377 . S
C2531 C2532 1.379 . S
C2532 H2516 0.931 . S
C2532 C2526 1.383 . S
C2532 C2531 1.379 . S
H2533 C2527 0.959 . S
H2534 C2527 0.961 . S
H2535 C2527 0.960 . S
H2536 C2528 0.930 . S
H2537 C2529 0.929 . S
H2538 C2546 0.929 . S
H2539 C2548 0.930 . S
H2540 C2550 0.930 . S
H2541 C2553 0.929 . S
H2542 C2556 0.930 . S
H2543 C2558 0.960 . S
H2544 C2558 0.960 . S
H2545 C2558 0.960 . S
C2546 H2538 0.929 . S
C2546 C2547 1.377 . S
C2546 C2548 1.384 . S
C2547 C2546 1.377 . S
C2547 C2553 1.390 . S
C2548 H2539 0.930 . S
C2548 C2546 1.384 . S
C2548 C2549 1.372 . S
C2549 C2548 1.372 . S
C2549 C2550 1.400 . S
C2549 C2554 1.490 . S
C2550 H2540 0.930 . S
C2550 C2549 1.400 . S
C2550 C2553 1.386 . S
H2551 C2567 0.930 . S
H2552 C2568 0.931 . S
C2553 H2541 0.929 . S
C2553 C2547 1.390 . S
C2553 C2550 1.386 . S
C2554 C2549 1.490 . S
C2554 C2556 1.395 . S
C2554 C2557 1.403 . S
H2555 C2561 0.930 . S
C2556 H2542 0.930 . S
C2556 C2554 1.395 . S
C2556 C2559 1.403 . S
C2557 C2554 1.403 . S
C2557 C2558 1.524 . S
C2557 C2561 1.400 . S
C2558 H2543 0.960 . S
C2558 H2544 0.960 . S
C2558 H2545 0.960 . S
C2558 C2557 1.524 . S
C2559 C2556 1.403 . S
C2559 C2560 1.392 . S
C2559 C2563 1.495 . S
C2560 C2559 1.392 . S
C2560 C2561 1.385 . S
C2560 C2562 1.478 . S
C2561 H2555 0.930 . S
C2561 C2557 1.400 . S
C2561 C2560 1.385 . S
C2562 C2560 1.478 . S
C2562 C2564 1.381 . S
C2562 C2568 1.383 . S
C2563 C2559 1.495 . S
C2563 H2569 0.959 . S
C2563 H2570 0.961 . S
C2563 H2571 0.960 . S
C2564 C2562 1.381 . S
C2564 C2565 1.394 . S
C2564 H2572 0.930 . S
C2565 C2564 1.394 . S
C2565 C2566 1.383 . S
C2565 H2573 0.929 . S
C2566 C2565 1.383 . S
C2566 C2567 1.377 . S
C2567 H2551 0.930 . S
C2567 C2566 1.377 . S
C2567 C2568 1.379 . S
C2568 H2552 0.931 . S
C2568 C2562 1.383 . S
C2568 C2567 1.379 . S
H2569 C2563 0.959 . S
H2570 C2563 0.961 . S
H2571 C2563 0.960 . S
H2572 C2564 0.930 . S
H2573 C2565 0.929 . S
H2574 C2582 0.929 . S
H2575 C2584 0.930 . S
H2576 C2586 0.930 . S
H2577 C2589 0.929 . S
H2578 C2592 0.930 . S
H2579 C2594 0.960 . S
H2580 C2594 0.960 . S
H2581 C2594 0.960 . S
C2582 H2574 0.929 . S
C2582 C2583 1.377 . S
C2582 C2584 1.384 . S
C2583 C2582 1.377 . S
C2583 C2589 1.390 . S
C2584 H2575 0.930 . S
C2584 C2582 1.384 . S
C2584 C2585 1.372 . S
C2585 C2584 1.372 . S
C2585 C2586 1.400 . S
C2585 C2590 1.490 . S
C2586 H2576 0.930 . S
C2586 C2585 1.400 . S
C2586 C2589 1.386 . S
H2587 C2603 0.930 . S
H2588 C2604 0.931 . S
C2589 H2577 0.929 . S
C2589 C2583 1.390 . S
C2589 C2586 1.386 . S
C2590 C2585 1.490 . S
C2590 C2592 1.395 . S
C2590 C2593 1.403 . S
H2591 C2597 0.930 . S
C2592 H2578 0.930 . S
C2592 C2590 1.395 . S
C2592 C2595 1.403 . S
C2593 C2590 1.403 . S
C2593 C2594 1.524 . S
C2593 C2597 1.400 . S
C2594 H2579 0.960 . S
C2594 H2580 0.960 . S
C2594 H2581 0.960 . S
C2594 C2593 1.524 . S
C2595 C2592 1.403 . S
C2595 C2596 1.392 . S
C2595 C2599 1.495 . S
C2596 C2595 1.392 . S
C2596 C2597 1.385 . S
C2596 C2598 1.478 . S
C2597 H2591 0.930 . S
C2597 C2593 1.400 . S
C2597 C2596 1.385 . S
C2598 C2596 1.478 . S
C2598 C2600 1.381 . S
C2598 C2604 1.383 . S
C2599 C2595 1.495 . S
C2599 H2605 0.959 . S
C2599 H2606 0.961 . S
C2599 H2607 0.960 . S
C2600 C2598 1.381 . S
C2600 C2601 1.394 . S
C2600 H2608 0.930 . S
C2601 C2600 1.394 . S
C2601 C2602 1.383 . S
C2601 H2609 0.929 . S
C2602 C2601 1.383 . S
C2602 C2603 1.377 . S
C2603 H2587 0.930 . S
C2603 C2602 1.377 . S
C2603 C2604 1.379 . S
C2604 H2588 0.931 . S
C2604 C2598 1.383 . S
C2604 C2603 1.379 . S
H2605 C2599 0.959 . S
H2606 C2599 0.961 . S
H2607 C2599 0.960 . S
H2608 C2600 0.930 . S
H2609 C2601 0.929 . S
H2610 C2618 0.929 . S
H2611 C2620 0.930 . S
H2612 C2622 0.930 . S
H2613 C2625 0.929 . S
H2614 C2628 0.930 . S
H2615 C2630 0.960 . S
H2616 C2630 0.960 . S
H2617 C2630 0.960 . S
C2618 H2610 0.929 . S
C2618 C2619 1.377 . S
C2618 C2620 1.384 . S
C2619 C2618 1.377 . S
C2619 C2625 1.390 . S
C2620 H2611 0.930 . S
C2620 C2618 1.384 . S
C2620 C2621 1.372 . S
C2621 C2620 1.372 . S
C2621 C2622 1.400 . S
C2621 C2626 1.490 . S
C2622 H2612 0.930 . S
C2622 C2621 1.400 . S
C2622 C2625 1.386 . S
H2623 C2639 0.930 . S
H2624 C2640 0.931 . S
C2625 H2613 0.929 . S
C2625 C2619 1.390 . S
C2625 C2622 1.386 . S
C2626 C2621 1.490 . S
C2626 C2628 1.395 . S
C2626 C2629 1.403 . S
H2627 C2633 0.930 . S
C2628 H2614 0.930 . S
C2628 C2626 1.395 . S
C2628 C2631 1.403 . S
C2629 C2626 1.403 . S
C2629 C2630 1.524 . S
C2629 C2633 1.400 . S
C2630 H2615 0.960 . S
C2630 H2616 0.960 . S
C2630 H2617 0.960 . S
C2630 C2629 1.524 . S
C2631 C2628 1.403 . S
C2631 C2632 1.392 . S
C2631 C2635 1.495 . S
C2632 C2631 1.392 . S
C2632 C2633 1.385 . S
C2632 C2634 1.478 . S
C2633 H2627 0.930 . S
C2633 C2629 1.400 . S
C2633 C2632 1.385 . S
C2634 C2632 1.478 . S
C2634 C2636 1.381 . S
C2634 C2640 1.383 . S
C2635 C2631 1.495 . S
C2635 H2641 0.959 . S
C2635 H2642 0.961 . S
C2635 H2643 0.960 . S
C2636 C2634 1.381 . S
C2636 C2637 1.394 . S
C2636 H2644 0.930 . S
C2637 C2636 1.394 . S
C2637 C2638 1.383 . S
C2637 H2645 0.929 . S
C2638 C2637 1.383 . S
C2638 C2639 1.377 . S
C2639 H2623 0.930 . S
C2639 C2638 1.377 . S
C2639 C2640 1.379 . S
C2640 H2624 0.931 . S
C2640 C2634 1.383 . S
C2640 C2639 1.379 . S
H2641 C2635 0.959 . S
H2642 C2635 0.961 . S
H2643 C2635 0.960 . S
H2644 C2636 0.930 . S
H2645 C2637 0.929 . S
H2646 C2654 0.929 . S
H2647 C2656 0.930 . S
H2648 C2658 0.930 . S
H2649 C2661 0.929 . S
H2650 C2664 0.930 . S
H2651 C2666 0.960 . S
H2652 C2666 0.960 . S
H2653 C2666 0.960 . S
C2654 H2646 0.929 . S
C2654 C2655 1.377 . S
C2654 C2656 1.384 . S
C2655 C2654 1.377 . S
C2655 C2661 1.390 . S
C2656 H2647 0.930 . S
C2656 C2654 1.384 . S
C2656 C2657 1.372 . S
C2657 C2656 1.372 . S
C2657 C2658 1.400 . S
C2657 C2662 1.490 . S
C2658 H2648 0.930 . S
C2658 C2657 1.400 . S
C2658 C2661 1.386 . S
H2659 C2675 0.930 . S
H2660 C2676 0.931 . S
C2661 H2649 0.929 . S
C2661 C2655 1.390 . S
C2661 C2658 1.386 . S
C2662 C2657 1.490 . S
C2662 C2664 1.395 . S
C2662 C2665 1.403 . S
H2663 C2669 0.930 . S
C2664 H2650 0.930 . S
C2664 C2662 1.395 . S
C2664 C2667 1.403 . S
C2665 C2662 1.403 . S
C2665 C2666 1.524 . S
C2665 C2669 1.400 . S
C2666 H2651 0.960 . S
C2666 H2652 0.960 . S
C2666 H2653 0.960 . S
C2666 C2665 1.524 . S
C2667 C2664 1.403 . S
C2667 C2668 1.392 . S
C2667 C2671 1.495 . S
C2668 C2667 1.392 . S
C2668 C2669 1.385 . S
C2668 C2670 1.478 . S
C2669 H2663 0.930 . S
C2669 C2665 1.400 . S
C2669 C2668 1.385 . S
C2670 C2668 1.478 . S
C2670 C2672 1.381 . S
C2670 C2676 1.383 . S
C2671 C2667 1.495 . S
C2671 H2677 0.959 . S
C2671 H2678 0.961 . S
C2671 H2679 0.960 . S
C2672 C2670 1.381 . S
C2672 C2673 1.394 . S
C2672 H2680 0.930 . S
C2673 C2672 1.394 . S
C2673 C2674 1.383 . S
C2673 H2681 0.929 . S
C2674 C2673 1.383 . S
C2674 C2675 1.377 . S
C2675 H2659 0.930 . S
C2675 C2674 1.377 . S
C2675 C2676 1.379 . S
C2676 H2660 0.931 . S
C2676 C2670 1.383 . S
C2676 C2675 1.379 . S
H2677 C2671 0.959 . S
H2678 C2671 0.961 . S
H2679 C2671 0.960 . S
H2680 C2672 0.930 . S
H2681 C2673 0.929 . S
H2682 C2690 0.929 . S
H2683 C2692 0.930 . S
H2684 C2694 0.930 . S
H2685 C2697 0.929 . S
H2686 C2700 0.930 . S
H2687 C2702 0.960 . S
H2688 C2702 0.960 . S
H2689 C2702 0.960 . S
C2690 H2682 0.929 . S
C2690 C2691 1.377 . S
C2690 C2692 1.384 . S
C2691 C2690 1.377 . S
C2691 C2697 1.390 . S
C2692 H2683 0.930 . S
C2692 C2690 1.384 . S
C2692 C2693 1.372 . S
C2693 C2692 1.372 . S
C2693 C2694 1.400 . S
C2693 C2698 1.490 . S
C2694 H2684 0.930 . S
C2694 C2693 1.400 . S
C2694 C2697 1.386 . S
H2695 C2711 0.930 . S
H2696 C2712 0.931 . S
C2697 H2685 0.929 . S
C2697 C2691 1.390 . S
C2697 C2694 1.386 . S
C2698 C2693 1.490 . S
C2698 C2700 1.395 . S
C2698 C2701 1.403 . S
H2699 C2705 0.930 . S
C2700 H2686 0.930 . S
C2700 C2698 1.395 . S
C2700 C2703 1.403 . S
C2701 C2698 1.403 . S
C2701 C2702 1.524 . S
C2701 C2705 1.400 . S
C2702 H2687 0.960 . S
C2702 H2688 0.960 . S
C2702 H2689 0.960 . S
C2702 C2701 1.524 . S
C2703 C2700 1.403 . S
C2703 C2704 1.392 . S
C2703 C2707 1.495 . S
C2704 C2703 1.392 . S
C2704 C2705 1.385 . S
C2704 C2706 1.478 . S
C2705 H2699 0.930 . S
C2705 C2701 1.400 . S
C2705 C2704 1.385 . S
C2706 C2704 1.478 . S
C2706 C2708 1.381 . S
C2706 C2712 1.383 . S
C2707 C2703 1.495 . S
C2707 H2713 0.959 . S
C2707 H2714 0.961 . S
C2707 H2715 0.960 . S
C2708 C2706 1.381 . S
C2708 C2709 1.394 . S
C2708 H2716 0.930 . S
C2709 C2708 1.394 . S
C2709 C2710 1.383 . S
C2709 H2717 0.929 . S
C2710 C2709 1.383 . S
C2710 C2711 1.377 . S
C2711 H2695 0.930 . S
C2711 C2710 1.377 . S
C2711 C2712 1.379 . S
C2712 H2696 0.931 . S
C2712 C2706 1.383 . S
C2712 C2711 1.379 . S
H2713 C2707 0.959 . S
H2714 C2707 0.961 . S
H2715 C2707 0.960 . S
H2716 C2708 0.930 . S
H2717 C2709 0.929 . S
H2718 C2726 0.929 . S
H2719 C2728 0.930 . S
H2720 C2730 0.930 . S
H2721 C2733 0.929 . S
H2722 C2736 0.930 . S
H2723 C2738 0.960 . S
H2724 C2738 0.960 . S
H2725 C2738 0.960 . S
C2726 H2718 0.929 . S
C2726 C2727 1.377 . S
C2726 C2728 1.384 . S
C2727 C2726 1.377 . S
C2727 C2733 1.390 . S
C2728 H2719 0.930 . S
C2728 C2726 1.384 . S
C2728 C2729 1.372 . S
C2729 C2728 1.372 . S
C2729 C2730 1.400 . S
C2729 C2734 1.490 . S
C2730 H2720 0.930 . S
C2730 C2729 1.400 . S
C2730 C2733 1.386 . S
H2731 C2747 0.930 . S
H2732 C2748 0.931 . S
C2733 H2721 0.929 . S
C2733 C2727 1.390 . S
C2733 C2730 1.386 . S
C2734 C2729 1.490 . S
C2734 C2736 1.395 . S
C2734 C2737 1.403 . S
H2735 C2741 0.930 . S
C2736 H2722 0.930 . S
C2736 C2734 1.395 . S
C2736 C2739 1.403 . S
C2737 C2734 1.403 . S
C2737 C2738 1.524 . S
C2737 C2741 1.400 . S
C2738 H2723 0.960 . S
C2738 H2724 0.960 . S
C2738 H2725 0.960 . S
C2738 C2737 1.524 . S
C2739 C2736 1.403 . S
C2739 C2740 1.392 . S
C2739 C2743 1.495 . S
C2740 C2739 1.392 . S
C2740 C2741 1.385 . S
C2740 C2742 1.478 . S
C2741 H2735 0.930 . S
C2741 C2737 1.400 . S
C2741 C2740 1.385 . S
C2742 C2740 1.478 . S
C2742 C2744 1.381 . S
C2742 C2748 1.383 . S
C2743 C2739 1.495 . S
C2743 H2749 0.959 . S
C2743 H2750 0.961 . S
C2743 H2751 0.960 . S
C2744 C2742 1.381 . S
C2744 C2745 1.394 . S
C2744 H2752 0.930 . S
C2745 C2744 1.394 . S
C2745 C2746 1.383 . S
C2745 H2753 0.929 . S
C2746 C2745 1.383 . S
C2746 C2747 1.377 . S
C2747 H2731 0.930 . S
C2747 C2746 1.377 . S
C2747 C2748 1.379 . S
C2748 H2732 0.931 . S
C2748 C2742 1.383 . S
C2748 C2747 1.379 . S
H2749 C2743 0.959 . S
H2750 C2743 0.961 . S
H2751 C2743 0.960 . S
H2752 C2744 0.930 . S
H2753 C2745 0.929 . S
H2754 C2762 0.929 . S
H2755 C2764 0.930 . S
H2756 C2766 0.930 . S
H2757 C2769 0.929 . S
H2758 C2772 0.930 . S
H2759 C2774 0.960 . S
H2760 C2774 0.960 . S
H2761 C2774 0.960 . S
C2762 H2754 0.929 . S
C2762 C2763 1.377 . S
C2762 C2764 1.384 . S
C2763 C2762 1.377 . S
C2763 C2769 1.390 . S
C2764 H2755 0.930 . S
C2764 C2762 1.384 . S
C2764 C2765 1.372 . S
C2765 C2764 1.372 . S
C2765 C2766 1.400 . S
C2765 C2770 1.490 . S
C2766 H2756 0.930 . S
C2766 C2765 1.400 . S
C2766 C2769 1.386 . S
H2767 C2783 0.930 . S
H2768 C2784 0.931 . S
C2769 H2757 0.929 . S
C2769 C2763 1.390 . S
C2769 C2766 1.386 . S
C2770 C2765 1.490 . S
C2770 C2772 1.395 . S
C2770 C2773 1.403 . S
H2771 C2777 0.930 . S
C2772 H2758 0.930 . S
C2772 C2770 1.395 . S
C2772 C2775 1.403 . S
C2773 C2770 1.403 . S
C2773 C2774 1.524 . S
C2773 C2777 1.400 . S
C2774 H2759 0.960 . S
C2774 H2760 0.960 . S
C2774 H2761 0.960 . S
C2774 C2773 1.524 . S
C2775 C2772 1.403 . S
C2775 C2776 1.392 . S
C2775 C2779 1.495 . S
C2776 C2775 1.392 . S
C2776 C2777 1.385 . S
C2776 C2778 1.478 . S
C2777 H2771 0.930 . S
C2777 C2773 1.400 . S
C2777 C2776 1.385 . S
C2778 C2776 1.478 . S
C2778 C2780 1.381 . S
C2778 C2784 1.383 . S
C2779 C2775 1.495 . S
C2779 H2785 0.959 . S
C2779 H2786 0.961 . S
C2779 H2787 0.960 . S
C2780 C2778 1.381 . S
C2780 C2781 1.394 . S
C2780 H2788 0.930 . S
C2781 C2780 1.394 . S
C2781 C2782 1.383 . S
C2781 H2789 0.929 . S
C2782 C2781 1.383 . S
C2782 C2783 1.377 . S
C2783 H2767 0.930 . S
C2783 C2782 1.377 . S
C2783 C2784 1.379 . S
C2784 H2768 0.931 . S
C2784 C2778 1.383 . S
C2784 C2783 1.379 . S
H2785 C2779 0.959 . S
H2786 C2779 0.961 . S
H2787 C2779 0.960 . S
H2788 C2780 0.930 . S
H2789 C2781 0.929 . S
H2790 C2798 0.929 . S
H2791 C2800 0.930 . S
H2792 C2802 0.930 . S
H2793 C2805 0.929 . S
H2794 C2808 0.930 . S
H2795 C2810 0.960 . S
H2796 C2810 0.960 . S
H2797 C2810 0.960 . S
C2798 H2790 0.929 . S
C2798 C2799 1.377 . S
C2798 C2800 1.384 . S
C2799 C2798 1.377 . S
C2799 C2805 1.390 . S
C2800 H2791 0.930 . S
C2800 C2798 1.384 . S
C2800 C2801 1.372 . S
C2801 C2800 1.372 . S
C2801 C2802 1.400 . S
C2801 C2806 1.490 . S
C2802 H2792 0.930 . S
C2802 C2801 1.400 . S
C2802 C2805 1.386 . S
H2803 C2819 0.930 . S
H2804 C2820 0.931 . S
C2805 H2793 0.929 . S
C2805 C2799 1.390 . S
C2805 C2802 1.386 . S
C2806 C2801 1.490 . S
C2806 C2808 1.395 . S
C2806 C2809 1.403 . S
H2807 C2813 0.930 . S
C2808 H2794 0.930 . S
C2808 C2806 1.395 . S
C2808 C2811 1.403 . S
C2809 C2806 1.403 . S
C2809 C2810 1.524 . S
C2809 C2813 1.400 . S
C2810 H2795 0.960 . S
C2810 H2796 0.960 . S
C2810 H2797 0.960 . S
C2810 C2809 1.524 . S
C2811 C2808 1.403 . S
C2811 C2812 1.392 . S
C2811 C2815 1.495 . S
C2812 C2811 1.392 . S
C2812 C2813 1.385 . S
C2812 C2814 1.478 . S
C2813 H2807 0.930 . S
C2813 C2809 1.400 . S
C2813 C2812 1.385 . S
C2814 C2812 1.478 . S
C2814 C2816 1.381 . S
C2814 C2820 1.383 . S
C2815 C2811 1.495 . S
C2815 H2821 0.959 . S
C2815 H2822 0.961 . S
C2815 H2823 0.960 . S
C2816 C2814 1.381 . S
C2816 C2817 1.394 . S
C2816 H2824 0.930 . S
C2817 C2816 1.394 . S
C2817 C2818 1.383 . S
C2817 H2825 0.929 . S
C2818 C2817 1.383 . S
C2818 C2819 1.377 . S
C2819 H2803 0.930 . S
C2819 C2818 1.377 . S
C2819 C2820 1.379 . S
C2820 H2804 0.931 . S
C2820 C2814 1.383 . S
C2820 C2819 1.379 . S
H2821 C2815 0.959 . S
H2822 C2815 0.961 . S
H2823 C2815 0.960 . S
H2824 C2816 0.930 . S
H2825 C2817 0.929 . S
H2826 C2834 0.929 . S
H2827 C2836 0.930 . S
H2828 C2838 0.930 . S
H2829 C2841 0.929 . S
H2830 C2844 0.930 . S
H2831 C2846 0.960 . S
H2832 C2846 0.960 . S
H2833 C2846 0.960 . S
C2834 H2826 0.929 . S
C2834 C2835 1.377 . S
C2834 C2836 1.384 . S
C2835 C2834 1.377 . S
C2835 C2841 1.390 . S
C2836 H2827 0.930 . S
C2836 C2834 1.384 . S
C2836 C2837 1.372 . S
C2837 C2836 1.372 . S
C2837 C2838 1.400 . S
C2837 C2842 1.490 . S
C2838 H2828 0.930 . S
C2838 C2837 1.400 . S
C2838 C2841 1.386 . S
H2839 C2855 0.930 . S
H2840 C2856 0.931 . S
C2841 H2829 0.929 . S
C2841 C2835 1.390 . S
C2841 C2838 1.386 . S
C2842 C2837 1.490 . S
C2842 C2844 1.395 . S
C2842 C2845 1.403 . S
H2843 C2849 0.930 . S
C2844 H2830 0.930 . S
C2844 C2842 1.395 . S
C2844 C2847 1.403 . S
C2845 C2842 1.403 . S
C2845 C2846 1.524 . S
C2845 C2849 1.400 . S
C2846 H2831 0.960 . S
C2846 H2832 0.960 . S
C2846 H2833 0.960 . S
C2846 C2845 1.524 . S
C2847 C2844 1.403 . S
C2847 C2848 1.392 . S
C2847 C2851 1.495 . S
C2848 C2847 1.392 . S
C2848 C2849 1.385 . S
C2848 C2850 1.478 . S
C2849 H2843 0.930 . S
C2849 C2845 1.400 . S
C2849 C2848 1.385 . S
C2850 C2848 1.478 . S
C2850 C2852 1.381 . S
C2850 C2856 1.383 . S
C2851 C2847 1.495 . S
C2851 H2857 0.959 . S
C2851 H2858 0.961 . S
C2851 H2859 0.960 . S
C2852 C2850 1.381 . S
C2852 C2853 1.394 . S
C2852 H2860 0.930 . S
C2853 C2852 1.394 . S
C2853 C2854 1.383 . S
C2853 H2861 0.929 . S
C2854 C2853 1.383 . S
C2854 C2855 1.377 . S
C2855 H2839 0.930 . S
C2855 C2854 1.377 . S
C2855 C2856 1.379 . S
C2856 H2840 0.931 . S
C2856 C2850 1.383 . S
C2856 C2855 1.379 . S
H2857 C2851 0.959 . S
H2858 C2851 0.961 . S
H2859 C2851 0.960 . S
H2860 C2852 0.930 . S
H2861 C2853 0.929 . S
H2862 C2870 0.929 . S
H2863 C2872 0.930 . S
H2864 C2874 0.930 . S
H2865 C2877 0.929 . S
H2866 C2880 0.930 . S
H2867 C2882 0.960 . S
H2868 C2882 0.960 . S
H2869 C2882 0.960 . S
C2870 H2862 0.929 . S
C2870 C2871 1.377 . S
C2870 C2872 1.384 . S
C2871 C2870 1.377 . S
C2871 C2877 1.390 . S
C2872 H2863 0.930 . S
C2872 C2870 1.384 . S
C2872 C2873 1.372 . S
C2873 C2872 1.372 . S
C2873 C2874 1.400 . S
C2873 C2878 1.490 . S
C2874 H2864 0.930 . S
C2874 C2873 1.400 . S
C2874 C2877 1.386 . S
H2875 C2891 0.930 . S
H2876 C2892 0.931 . S
C2877 H2865 0.929 . S
C2877 C2871 1.390 . S
C2877 C2874 1.386 . S
C2878 C2873 1.490 . S
C2878 C2880 1.395 . S
C2878 C2881 1.403 . S
H2879 C2885 0.930 . S
C2880 H2866 0.930 . S
C2880 C2878 1.395 . S
C2880 C2883 1.403 . S
C2881 C2878 1.403 . S
C2881 C2882 1.524 . S
C2881 C2885 1.400 . S
C2882 H2867 0.960 . S
C2882 H2868 0.960 . S
C2882 H2869 0.960 . S
C2882 C2881 1.524 . S
C2883 C2880 1.403 . S
C2883 C2884 1.392 . S
C2883 C2887 1.495 . S
C2884 C2883 1.392 . S
C2884 C2885 1.385 . S
C2884 C2886 1.478 . S
C2885 H2879 0.930 . S
C2885 C2881 1.400 . S
C2885 C2884 1.385 . S
C2886 C2884 1.478 . S
C2886 C2888 1.381 . S
C2886 C2892 1.383 . S
C2887 C2883 1.495 . S
C2887 H2893 0.959 . S
C2887 H2894 0.961 . S
C2887 H2895 0.960 . S
C2888 C2886 1.381 . S
C2888 C2889 1.394 . S
C2888 H2896 0.930 . S
C2889 C2888 1.394 . S
C2889 C2890 1.383 . S
C2889 H2897 0.929 . S
C2890 C2889 1.383 . S
C2890 C2891 1.377 . S
C2891 H2875 0.930 . S
C2891 C2890 1.377 . S
C2891 C2892 1.379 . S
C2892 H2876 0.931 . S
C2892 C2886 1.383 . S
C2892 C2891 1.379 . S
H2893 C2887 0.959 . S
H2894 C2887 0.961 . S
H2895 C2887 0.960 . S
H2896 C2888 0.930 . S
H2897 C2889 0.929 . S
H2898 C2906 0.929 . S
H2899 C2908 0.930 . S
H2900 C2910 0.930 . S
H2901 C2913 0.929 . S
H2902 C2916 0.930 . S
H2903 C2918 0.960 . S
H2904 C2918 0.960 . S
H2905 C2918 0.960 . S
C2906 H2898 0.929 . S
C2906 C2907 1.377 . S
C2906 C2908 1.384 . S
C2907 C2906 1.377 . S
C2907 C2913 1.390 . S
C2908 H2899 0.930 . S
C2908 C2906 1.384 . S
C2908 C2909 1.372 . S
C2909 C2908 1.372 . S
C2909 C2910 1.400 . S
C2909 C2914 1.490 . S
C2910 H2900 0.930 . S
C2910 C2909 1.400 . S
C2910 C2913 1.386 . S
H2911 C2927 0.930 . S
H2912 C2928 0.931 . S
C2913 H2901 0.929 . S
C2913 C2907 1.390 . S
C2913 C2910 1.386 . S
C2914 C2909 1.490 . S
C2914 C2916 1.395 . S
C2914 C2917 1.403 . S
H2915 C2921 0.930 . S
C2916 H2902 0.930 . S
C2916 C2914 1.395 . S
C2916 C2919 1.403 . S
C2917 C2914 1.403 . S
C2917 C2918 1.524 . S
C2917 C2921 1.400 . S
C2918 H2903 0.960 . S
C2918 H2904 0.960 . S
C2918 H2905 0.960 . S
C2918 C2917 1.524 . S
C2919 C2916 1.403 . S
C2919 C2920 1.392 . S
C2919 C2923 1.495 . S
C2920 C2919 1.392 . S
C2920 C2921 1.385 . S
C2920 C2922 1.478 . S
C2921 H2915 0.930 . S
C2921 C2917 1.400 . S
C2921 C2920 1.385 . S
C2922 C2920 1.478 . S
C2922 C2924 1.381 . S
C2922 C2928 1.383 . S
C2923 C2919 1.495 . S
C2923 H2929 0.959 . S
C2923 H2930 0.961 . S
C2923 H2931 0.960 . S
C2924 C2922 1.381 . S
C2924 C2925 1.394 . S
C2924 H2932 0.930 . S
C2925 C2924 1.394 . S
C2925 C2926 1.383 . S
C2925 H2933 0.929 . S
C2926 C2925 1.383 . S
C2926 C2927 1.377 . S
C2927 H2911 0.930 . S
C2927 C2926 1.377 . S
C2927 C2928 1.379 . S
C2928 H2912 0.931 . S
C2928 C2922 1.383 . S
C2928 C2927 1.379 . S
H2929 C2923 0.959 . S
H2930 C2923 0.961 . S
H2931 C2923 0.960 . S
H2932 C2924 0.930 . S
H2933 C2925 0.929 . S
C999 N170 2.072 . S
C1018 C301 1.973 . S
C1035 N184 0.815 . S
C1054 C385 0.808 . S
C1071 N158 1.562 . S
C1090 C465 1.547 . S
C1107 N145 1.528 . S
C1126 C381 1.490 1_556 S
C1162 C469 0.764 . S
C1143 N119 0.754 . S
C1179 N131 2.023 . S
C1198 C297 2.010 . S
C1234 C290 1.609 . S
C1215 N144 1.666 . S
C1270 C374 1.263 . S
C1251 N118 1.317 . S
C1287 N132 1.414 . S
C1306 C476 1.416 . S
C1323 N171 1.388 . S
C1342 C392 1.380 . S
C1359 N183 1.253 . S
C1378 C458 1.252 . S
C1414 C308 1.558 . S
C1395 N157 1.612 . S
C1450 C553 1.985 . S
C1431 N14 2.071 . S
C1467 N28 0.823 . S
C1486 C637 0.860 . S
C1503 N2 1.563 . S
C1522 C717 1.514 . S
C1539 N223 1.528 . S
C1558 C633 1.514 . S
C1575 N197 0.762 . S
C1594 C721 0.808 . S
C1611 N209 2.023 . S
C1630 C549 1.986 . S
C1647 N222 1.663 . S
C1666 C542 1.565 . S
C1683 N196 1.317 . S
C1702 C626 1.263 . S
C1738 C728 1.405 . S
C1719 N210 1.413 . S
C1755 N15 1.391 . S
C1774 C644 1.392 . S
C1810 C710 1.199 . S
C1791 N27 1.259 . S
C1827 N1 1.612 . S
C1846 C560 1.594 . S
C1882 C805 2.006 . S
C1863 N92 2.075 . S
C1899 N106 0.816 . S
C1918 C889 0.759 . S
C1954 C969 1.527 . S
C1935 N80 1.560 . S
C1990 C885 1.516 . S
C1971 N67 1.528 . S
C2026 C973 0.771 . S
C2007 N41 0.763 . S
C2043 N53 2.020 . S
C2062 C801 1.963 . S
C2079 N66 1.666 . S
C2098 C794 1.615 . S
C2115 N40 1.318 . S
C2134 C878 1.261 . S
C2170 C980 1.407 . S
C2151 N54 1.413 . S
C2187 N93 1.387 . S
C2206 C896 1.370 . S
C2223 N105 1.259 . S
C2242 C962 1.235 . S
C2259 N79 1.613 . S
C2278 C812 1.578 . S
C2295 N200 1.159 . S
C2314 C304 1.002 . S
C2350 C388 1.709 . S
C2331 N213 1.868 . S
C2367 N226 1.481 . S
C2386 C460 1.328 . S
C2403 N83 1.520 . S
C2422 C376 1.354 . S
C2439 N96 1.838 . S
C2458 C472 1.694 . S
C2494 C292 1.042 . S
C2475 N109 1.177 . S
C2511 N44 1.155 . S
C2530 C556 1.014 . S
C2547 N57 1.867 . S
C2566 C640 1.674 . S
C2583 N70 1.482 . S
C2602 C712 1.332 . S
C2619 N161 1.525 . S
C2638 C628 1.429 . S
C2674 C724 1.693 . S
C2655 N174 1.840 . S
C2691 N187 1.176 . S
C2710 C544 1.082 . S
C2727 N122 1.155 . S
C2746 C808 1.083 . S
C2763 N135 1.873 . S
C2782 C892 1.671 . S
C2818 C964 1.317 . S
C2799 N148 1.481 . S
C2835 N5 1.524 . S
C2854 C880 1.401 . S
C2871 N18 1.842 . S
C2890 C976 1.622 . S
C2907 N31 1.182 . S
C2926 C796 1.142 . S
