# Generated by pormake.
# Topology dag, (6,3)-cn, num edge types: 1
# Building blocks:
#     Node 0, Type 0, BuildingBlock: IZENUY_clean_sbu_0, # of connection points: 6
#     Node 1, Type 0, BuildingBlock: IZENUY_clean_sbu_0, # of connection points: 6
#     Node 2, Type 0, BuildingBlock: IZENUY_clean_sbu_0, # of connection points: 6
#     Node 3, Type 0, BuildingBlock: IZENUY_clean_sbu_0, # of connection points: 6
#     Node 4, Type 1, BuildingBlock: QEWDON_clean_linker_0, # of connection points: 3
#     Node 5, Type 1, BuildingBlock: QEWDON_clean_linker_0, # of connection points: 3
#     Node 6, Type 1, BuildingBlock: QEWDON_clean_linker_0, # of connection points: 3
#     Node 7, Type 1, BuildingBlock: QEWDON_clean_linker_0, # of connection points: 3
#     Node 8, Type 1, BuildingBlock: QEWDON_clean_linker_0, # of connection points: 3
#     Node 9, Type 1, BuildingBlock: QEWDON_clean_linker_0, # of connection points: 3
#     Node 10, Type 1, BuildingBlock: QEWDON_clean_linker_0, # of connection points: 3
#     Node 11, Type 1, BuildingBlock: QEWDON_clean_linker_0, # of connection points: 3
#     Edge 12, Type (0, 1), BuildingBlock: KIFKEQ_clean_linker_1, # of connection points: 2
#     Edge 13, Type (0, 1), BuildingBlock: KIFKEQ_clean_linker_1, # of connection points: 2
#     Edge 14, Type (0, 1), BuildingBlock: KIFKEQ_clean_linker_1, # of connection points: 2
#     Edge 15, Type (0, 1), BuildingBlock: KIFKEQ_clean_linker_1, # of connection points: 2
#     Edge 16, Type (0, 1), BuildingBlock: KIFKEQ_clean_linker_1, # of connection points: 2
#     Edge 17, Type (0, 1), BuildingBlock: KIFKEQ_clean_linker_1, # of connection points: 2
#     Edge 18, Type (0, 1), BuildingBlock: KIFKEQ_clean_linker_1, # of connection points: 2
#     Edge 19, Type (0, 1), BuildingBlock: KIFKEQ_clean_linker_1, # of connection points: 2
#     Edge 20, Type (0, 1), BuildingBlock: KIFKEQ_clean_linker_1, # of connection points: 2
#     Edge 21, Type (0, 1), BuildingBlock: KIFKEQ_clean_linker_1, # of connection points: 2
#     Edge 22, Type (0, 1), BuildingBlock: KIFKEQ_clean_linker_1, # of connection points: 2
#     Edge 23, Type (0, 1), BuildingBlock: KIFKEQ_clean_linker_1, # of connection points: 2
#     Edge 24, Type (0, 1), BuildingBlock: KIFKEQ_clean_linker_1, # of connection points: 2
#     Edge 25, Type (0, 1), BuildingBlock: KIFKEQ_clean_linker_1, # of connection points: 2
#     Edge 26, Type (0, 1), BuildingBlock: KIFKEQ_clean_linker_1, # of connection points: 2
#     Edge 27, Type (0, 1), BuildingBlock: KIFKEQ_clean_linker_1, # of connection points: 2
#     Edge 28, Type (0, 1), BuildingBlock: KIFKEQ_clean_linker_1, # of connection points: 2
#     Edge 29, Type (0, 1), BuildingBlock: KIFKEQ_clean_linker_1, # of connection points: 2
#     Edge 30, Type (0, 1), BuildingBlock: KIFKEQ_clean_linker_1, # of connection points: 2
#     Edge 31, Type (0, 1), BuildingBlock: KIFKEQ_clean_linker_1, # of connection points: 2
#     Edge 32, Type (0, 1), BuildingBlock: KIFKEQ_clean_linker_1, # of connection points: 2
#     Edge 33, Type (0, 1), BuildingBlock: KIFKEQ_clean_linker_1, # of connection points: 2
#     Edge 34, Type (0, 1), BuildingBlock: KIFKEQ_clean_linker_1, # of connection points: 2
#     Edge 35, Type (0, 1), BuildingBlock: KIFKEQ_clean_linker_1, # of connection points: 2
# Relax obj value: 0.042
# Max RMSD: 0.066
# Mean RMSD: 0.060
data_MOF--net-dag--node1-IZENUY_clean_sbu_0--node2-QEWDON_clean_linker_0--edge1-KIFKEQ_clean_linker_1
_symmetry_space_group_name_H-M    P1
_symmetry_Int_Tables_number       1
_symmetry_cell_setting            triclinic
loop_
_symmetry_equiv_pos_as_xyz
'x, y, z'
_cell_length_a     41.976322
_cell_length_b     42.108834
_cell_length_c     38.443221
_cell_angle_alpha  91.137232
_cell_angle_beta   89.960477
_cell_angle_gamma 89.948677
loop_
_atom_site_label
_atom_site_type_symbol
_atom_site_fract_x
_atom_site_fract_y
_atom_site_fract_z
_atom_type_partial_charge
Fe0 Fe 0.1943 0.87521 0.02378 0.0
Fe1 Fe 0.12419 0.89451 0.01944 0.0
O2 O 0.15349 0.86439 0.02158 0.0
Fe3 Fe 0.14139 0.82397 0.02161 0.0
O4 O 0.16102 0.81717 0.06281 0.0
O5 O 0.2057 0.84287 0.05266 0.0
O6 O 0.18832 0.89981 0.06301 0.0
C7 C 0.16949 0.92312 0.0642 0.0
C8 C 0.1975 0.82284 0.97971 0.0
O9 O 0.14717 0.925 0.04246 0.0
C10 C 0.09767 0.84648 0.97596 0.0
O11 O 0.18973 0.90931 0.99468 0.0
O12 O 0.13951 0.90726 0.97788 0.0
O13 O 0.17601 0.80907 0.99697 0.0
O14 O 0.20394 0.85175 0.98519 0.0
C15 C 0.09706 0.85541 0.06652 0.0
O16 O 0.09486 0.87053 0.99579 0.0
O17 O 0.12046 0.82736 0.98006 0.0
C18 C 0.16795 0.91613 0.97307 0.0
O19 O 0.10767 0.88296 0.06102 0.0
O20 O 0.10474 0.83202 0.04685 0.0
C21 C 0.18952 0.82374 0.07056 0.0
Fe22 Fe 0.68779 0.63191 0.51058 0.0
Fe23 Fe 0.63594 0.68387 0.50711 0.0
O24 O 0.64712 0.64331 0.50962 0.0
Fe25 Fe 0.61727 0.61381 0.51114 0.0
O26 O 0.63041 0.60156 0.55362 0.0
O27 O 0.68119 0.59809 0.53974 0.0
O28 O 0.69511 0.65589 0.54936 0.0
C29 C 0.68946 0.6852 0.55288 0.0
C30 C 0.66444 0.58398 0.46929 0.0
O31 O 0.66987 0.69891 0.53302 0.0
C32 C 0.59222 0.65177 0.46166 0.0
O33 O 0.70141 0.6637 0.48192 0.0
O34 O 0.65749 0.68847 0.46674 0.0
O35 O 0.64086 0.58263 0.48959 0.0
O36 O 0.68369 0.60689 0.47153 0.0
C37 C 0.59033 0.66363 0.55193 0.0
O38 O 0.6001 0.67586 0.48024 0.0
O39 O 0.60258 0.6245 0.46875 0.0
C40 C 0.68644 0.68183 0.46163 0.0
O41 O 0.61332 0.6824 0.54763 0.0
O42 O 0.58759 0.63895 0.53299 0.0
C43 C 0.65813 0.59148 0.55982 0.0
Fe44 Fe 0.8701 0.17953 0.00852 0.0
Fe45 Fe 0.88547 0.10882 0.01306 0.0
O46 O 0.85698 0.13951 0.00968 0.0
Fe47 Fe 0.81592 0.12959 0.00742 0.0
O48 O 0.80539 0.16164 0.97758 0.0
O49 O 0.85091 0.18572 0.96717 0.0
O50 O 0.90661 0.16998 0.98341 0.0
C51 C 0.91388 0.14571 0.96479 0.0
C52 C 0.81393 0.18289 0.05027 0.0
O53 O 0.90246 0.11874 0.97145 0.0
C54 C 0.84111 0.089 0.05933 0.0
O55 O 0.89071 0.17675 0.05026 0.0
O56 O 0.91532 0.13262 0.03616 0.0
O57 O 0.80667 0.15408 0.04538 0.0
O58 O 0.83577 0.19578 0.03268 0.0
C59 C 0.84001 0.08036 0.96838 0.0
O60 O 0.86959 0.09771 0.05477 0.0
O61 O 0.81956 0.09587 0.03742 0.0
C62 C 0.91292 0.1572 0.05523 0.0
O63 O 0.86187 0.07831 0.99067 0.0
O64 O 0.82169 0.10409 0.96881 0.0
C65 C 0.82228 0.18 0.95942 0.0
Fe66 Fe 0.3905 0.38644 0.52099 0.0
Fe67 Fe 0.32026 0.36866 0.52772 0.0
O68 O 0.36061 0.35705 0.52332 0.0
Fe69 Fe 0.37136 0.31632 0.52156 0.0
O70 O 0.39654 0.32065 0.55994 0.0
O71 O 0.42168 0.36264 0.54133 0.0
O72 O 0.38046 0.40177 0.56401 0.0
C73 C 0.35324 0.41236 0.57209 0.0
C74 C 0.41176 0.34476 0.47127 0.0
O75 O 0.32899 0.40484 0.55398 0.0
C76 C 0.31754 0.31504 0.48142 0.0
O77 O 0.36519 0.41604 0.50016 0.0
O78 O 0.32125 0.3903 0.4871 0.0
O79 O 0.4053 0.32217 0.49158 0.0
O80 O 0.40203 0.3726 0.47793 0.0
C81 C 0.32292 0.31912 0.57296 0.0
O82 O 0.30443 0.33456 0.50254 0.0
O83 O 0.34692 0.30897 0.48343 0.0
C84 C 0.34028 0.41289 0.48197 0.0
O85 O 0.31668 0.34806 0.56849 0.0
O86 O 0.33939 0.30341 0.55096 0.0
C87 C 0.41971 0.33959 0.56176 0.0
H88 H 0.16541 0.10831 0.26569 0.0
C89 C 0.14717 0.12048 0.25107 0.0
C90 C 0.14209 0.11233 0.21594 0.0
C91 C 0.12802 0.14362 0.26767 0.0
H92 H 0.1134 0.12087 0.17067 0.0
C93 C 0.11803 0.1279 0.19749 0.0
C94 C 0.09821 0.15052 0.21394 0.0
C95 C 0.10324 0.15817 0.24923 0.0
C96 C 0.13216 0.15055 0.30513 0.0
H97 H 0.08783 0.17525 0.26239 0.0
C98 C 0.15771 0.16931 0.31727 0.0
C99 C 0.16191 0.17487 0.35321 0.0
C100 C 0.11068 0.13769 0.32896 0.0
H101 H 0.09088 0.12322 0.31996 0.0
C102 C 0.11486 0.14304 0.3646 0.0
H103 H 0.1743 0.17932 0.29886 0.0
C104 C 0.14037 0.16138 0.37672 0.0
H105 H 0.14301 0.16546 0.40448 0.0
H106 H 0.09828 0.13293 0.38289 0.0
H107 H 0.4169 0.68174 0.76157 0.0
C108 C 0.40443 0.66198 0.74925 0.0
C109 C 0.41047 0.65407 0.71423 0.0
C110 C 0.38311 0.64374 0.76872 0.0
H111 H 0.40049 0.62095 0.67225 0.0
C112 C 0.39481 0.62791 0.69886 0.0
C113 C 0.37428 0.60886 0.71829 0.0
C114 C 0.36845 0.61695 0.75335 0.0
C115 C 0.37893 0.65064 0.80615 0.0
H116 H 0.35309 0.60212 0.76884 0.0
C117 C 0.35627 0.67297 0.81805 0.0
C118 C 0.35334 0.68004 0.85389 0.0
C119 C 0.39834 0.63512 0.83012 0.0
H120 H 0.41588 0.61786 0.82128 0.0
C121 C 0.39543 0.64194 0.86562 0.0
H122 H 0.34138 0.68508 0.79947 0.0
C123 C 0.37319 0.66431 0.87749 0.0
H124 H 0.37123 0.66905 0.90521 0.0
H125 H 0.4105 0.6299 0.88402 0.0
H126 H 0.8812 0.81137 0.21119 0.0
C127 C 0.87167 0.83498 0.20747 0.0
C128 C 0.89202 0.86002 0.19818 0.0
C129 C 0.8386 0.83977 0.21015 0.0
H130 H 0.89339 0.90957 0.18446 0.0
C131 C 0.87862 0.89023 0.19327 0.0
C132 C 0.84571 0.89535 0.1961 0.0
C133 C 0.82566 0.86993 0.20417 0.0
C134 C 0.81736 0.81213 0.21346 0.0
H135 H 0.80005 0.87334 0.20467 0.0
C136 C 0.80742 0.80148 0.24619 0.0
C137 C 0.78816 0.77417 0.24856 0.0
C138 C 0.80768 0.79573 0.18319 0.0
H139 H 0.81519 0.80366 0.15783 0.0
C140 C 0.78843 0.76889 0.1854 0.0
H141 H 0.81511 0.81404 0.2696 0.0
C142 C 0.77879 0.75809 0.21781 0.0
H143 H 0.76364 0.73731 0.21881 0.0
H144 H 0.78101 0.75637 0.16192 0.0
H145 H 0.70772 0.37776 0.70042 0.0
C146 C 0.68315 0.36981 0.69992 0.0
C147 C 0.65864 0.3915 0.69287 0.0
C148 C 0.6762 0.33756 0.70472 0.0
H149 H 0.6084 0.39684 0.68335 0.0
C150 C 0.6271 0.38055 0.69084 0.0
C151 C 0.61998 0.34817 0.69415 0.0
C152 C 0.64466 0.32682 0.70163 0.0
C153 C 0.70233 0.3143 0.70713 0.0
H154 H 0.63962 0.30164 0.70323 0.0
C155 C 0.71202 0.30235 0.73936 0.0
C156 C 0.73699 0.27993 0.74096 0.0
C157 C 0.71738 0.3037 0.67649 0.0
H158 H 0.71006 0.31265 0.65149 0.0
C159 C 0.74173 0.28126 0.67783 0.0
H160 H 0.70055 0.31094 0.763 0.0
C161 C 0.75146 0.26939 0.70973 0.0
H162 H 0.77018 0.25168 0.70986 0.0
H163 H 0.75308 0.27297 0.65403 0.0
H164 H 0.6715 0.39864 0.26739 0.0
C165 C 0.65258 0.38697 0.28147 0.0
C166 C 0.64679 0.39522 0.31651 0.0
C167 C 0.63307 0.36459 0.26423 0.0
H168 H 0.61622 0.38798 0.36068 0.0
C169 C 0.62157 0.38062 0.33411 0.0
C170 C 0.60136 0.35892 0.31695 0.0
C171 C 0.60731 0.35096 0.28191 0.0
C172 C 0.63706 0.35804 0.22665 0.0
H173 H 0.59157 0.33463 0.26816 0.0
C174 C 0.66063 0.33691 0.21414 0.0
C175 C 0.66242 0.32918 0.17833 0.0
C176 C 0.61587 0.37196 0.20324 0.0
H177 H 0.59755 0.38818 0.21254 0.0
C178 C 0.61804 0.36494 0.16774 0.0
H179 H 0.67666 0.32573 0.2323 0.0
C180 C 0.64102 0.34361 0.15532 0.0
H181 H 0.64211 0.33841 0.12764 0.0
H182 H 0.60166 0.37584 0.14979 0.0
H183 H 0.21442 0.12888 0.82238 0.0
C184 C 0.18892 0.13151 0.82581 0.0
C185 C 0.17004 0.10463 0.83193 0.0
C186 C 0.17504 0.16197 0.82634 0.0
H187 H 0.12294 0.08769 0.84294 0.0
C188 C 0.1373 0.10847 0.8378 0.0
C189 C 0.12349 0.13873 0.84079 0.0
C190 C 0.14242 0.16541 0.83418 0.0
C191 C 0.19506 0.1907 0.82333 0.0
H192 H 0.13227 0.18901 0.83686 0.0
C193 C 0.21214 0.19697 0.79266 0.0
C194 C 0.22946 0.22555 0.78957 0.0
C195 C 0.19599 0.2127 0.8512 0.0
H196 H 0.18309 0.20825 0.87504 0.0
C197 C 0.21341 0.24066 0.84857 0.0
H198 H 0.21144 0.1799 0.77122 0.0
C199 C 0.2298 0.24721 0.81801 0.0
H200 H 0.2421 0.26973 0.81645 0.0
H201 H 0.21381 0.25759 0.87012 0.0
H202 H 0.37111 0.69207 0.3245 0.0
C203 C 0.36316 0.66784 0.32799 0.0
C204 C 0.38534 0.64419 0.33644 0.0
C205 C 0.33051 0.6607 0.3261 0.0
H206 H 0.39142 0.59527 0.35035 0.0
C207 C 0.37455 0.61317 0.34217 0.0
C208 C 0.34191 0.60591 0.34146 0.0
C209 C 0.31998 0.62985 0.33327 0.0
C210 C 0.30708 0.68654 0.32226 0.0
H211 H 0.29465 0.6248 0.33368 0.0
C212 C 0.30002 0.69918 0.28951 0.0
C213 C 0.27806 0.7244 0.28677 0.0
C214 C 0.29195 0.69895 0.3521 0.0
H215 H 0.29712 0.68943 0.37746 0.0
C216 C 0.27029 0.7239 0.34949 0.0
H217 H 0.31169 0.68961 0.26643 0.0
C218 C 0.26342 0.73664 0.31712 0.0
H219 H 0.24624 0.75578 0.31574 0.0
H220 H 0.25875 0.7334 0.37265 0.0
H221 H 0.92022 0.827 0.77172 0.0
C222 C 0.90472 0.8442 0.78457 0.0
C223 C 0.91 0.85261 0.81959 0.0
C224 C 0.87969 0.85814 0.7659 0.0
H225 H 0.89488 0.8829 0.8623 0.0
C226 C 0.89009 0.87534 0.83568 0.0
C227 C 0.86574 0.89033 0.81706 0.0
C228 C 0.86045 0.88146 0.78211 0.0
C229 C 0.87591 0.85036 0.72851 0.0
H230 H 0.84206 0.89324 0.76733 0.0
C231 C 0.85032 0.8316 0.71629 0.0
C232 C 0.84871 0.82229 0.68088 0.0
C233 C 0.89924 0.8605 0.7051 0.0
H234 H 0.9191 0.87486 0.71414 0.0
C235 C 0.89724 0.85207 0.66993 0.0
H236 H 0.83258 0.82325 0.73445 0.0
C237 C 0.87229 0.83297 0.65788 0.0
H238 H 0.87143 0.8265 0.63048 0.0
H239 H 0.91529 0.86007 0.65199 0.0
H240 H 0.1525 0.98378 0.05268 0.0
H241 H 0.19863 0.92531 0.12877 0.0
H242 H 0.15551 0.02913 0.09191 0.0
H243 H 0.20198 0.97168 0.16876 0.0
H244 H 0.14687 0.05126 0.23787 0.0
H245 H 0.16252 1.00481 0.20254 0.0
H246 H 0.19123 0.06657 0.1198 0.0
H247 H 0.17464 0.11271 0.15474 0.0
C248 C 0.16369 0.9807 0.07779 0.0
C249 C 0.1751 0.95084 0.08773 0.0
C250 C 0.16576 0.00692 0.10022 0.0
C251 C 0.17921 1.0042 0.13346 0.0
C252 C 0.19146 0.97452 0.1433 0.0
C253 C 0.1897 0.94806 0.12043 0.0
C254 C 0.1575 0.05485 0.21256 0.0
C255 C 0.1592 0.08547 0.19878 0.0
C256 C 0.16651 0.02826 0.19233 0.0
C257 C 0.17753 0.03194 0.15807 0.0
C258 C 0.18215 0.06287 0.14579 0.0
C259 C 0.17282 0.08932 0.1658 0.0
H260 H 0.52927 0.64406 0.54638 0.0
H261 H 0.59135 0.70129 0.6116 0.0
H262 H 0.48599 0.65242 0.58699 0.0
H263 H 0.54717 0.70992 0.65296 0.0
H264 H 0.47259 0.66268 0.73281 0.0
H265 H 0.5168 0.67444 0.69362 0.0
H266 H 0.4497 0.69245 0.61118 0.0
H267 H 0.40572 0.67991 0.65014 0.0
C268 C 0.5336 0.65876 0.56934 0.0
C269 C 0.56385 0.67179 0.57593 0.0
C270 C 0.50857 0.66389 0.5925 0.0
C271 C 0.513 0.68207 0.62312 0.0
C272 C 0.54307 0.69582 0.62953 0.0
C273 C 0.56826 0.69098 0.60589 0.0
C274 C 0.46733 0.6703 0.70668 0.0
C275 C 0.43584 0.67001 0.69427 0.0
C276 C 0.49264 0.67705 0.68423 0.0
C277 C 0.48676 0.68372 0.64911 0.0
C278 C 0.45501 0.68672 0.63791 0.0
C279 C 0.42983 0.67971 0.6602 0.0
H280 H 0.78611 0.05526 0.07072 0.0
H281 H 0.88138 0.06988 0.11043 0.0
H282 H 0.77859 0.01188 0.11123 0.0
H283 H 0.87434 0.02631 0.14973 0.0
H284 H 0.85841 0.95319 0.22539 0.0
H285 H 0.84956 1.00474 0.19905 0.0
H286 H 0.79824 0.95855 0.11472 0.0
H287 H 0.80601 0.90736 0.14214 0.0
C288 C 0.80528 0.04954 0.08837 0.0
C289 C 0.8345 0.06581 0.08697 0.0
C290 C 0.80103 0.02455 0.11146 0.0
C291 C 0.82588 0.01536 0.13369 0.0
C292 C 0.85442 0.03286 0.13348 0.0
C293 C 0.85862 0.05777 0.11056 0.0
C294 C 0.84422 0.95438 0.20191 0.0
C295 C 0.83292 0.92647 0.18568 0.0
C296 C 0.83944 0.98379 0.18657 0.0
C297 C 0.82385 0.98579 0.15427 0.0
C298 C 0.8102 0.95805 0.13965 0.0
C299 C 0.81461 0.92865 0.15532 0.0
H300 H 0.4197 0.3203 0.62947 0.0
H301 H 0.48174 0.34375 0.54418 0.0
H302 H 0.46654 0.31462 0.66756 0.0
H303 H 0.52809 0.33717 0.58153 0.0
H304 H 0.60654 0.30113 0.64702 0.0
H305 H 0.55554 0.29138 0.61817 0.0
H306 H 0.51042 0.36022 0.68669 0.0
H307 H 0.56162 0.37027 0.71549 0.0
C308 C 0.44333 0.32357 0.61879 0.0
C309 C 0.44726 0.33259 0.58406 0.0
C310 C 0.46998 0.32041 0.64049 0.0
C311 C 0.50082 0.32524 0.62732 0.0
C312 C 0.50461 0.33293 0.5922 0.0
C313 C 0.47811 0.3369 0.57092 0.0
C314 C 0.58553 0.31331 0.65682 0.0
C315 C 0.58804 0.33657 0.68339 0.0
C316 C 0.55642 0.30784 0.64017 0.0
C317 C 0.5292 0.32519 0.65014 0.0
C318 C 0.53104 0.34639 0.67872 0.0
C319 C 0.5603 0.35223 0.69506 0.0
H320 H 0.64414 0.52376 0.47796 0.0
H321 H 0.69907 0.58139 0.40817 0.0
H322 H 0.65035 0.47836 0.43903 0.0
H323 H 0.70538 0.53513 0.36851 0.0
H324 H 0.65397 0.45592 0.29423 0.0
H325 H 0.66729 0.50243 0.33056 0.0
H326 H 0.6903 0.4409 0.41552 0.0
H327 H 0.67639 0.39463 0.37941 0.0
C328 C 0.65783 0.52667 0.45433 0.0
C329 C 0.67093 0.55626 0.44604 0.0
C330 C 0.66171 0.50045 0.43214 0.0
C331 C 0.67862 0.503 0.40079 0.0
C332 C 0.69228 0.53246 0.39255 0.0
C333 C 0.68875 0.55884 0.41523 0.0
C334 C 0.66306 0.45236 0.32023 0.0
C335 C 0.6638 0.42178 0.33423 0.0
C336 C 0.67067 0.47898 0.34105 0.0
C337 C 0.6792 0.47534 0.37613 0.0
C338 C 0.68317 0.44448 0.38881 0.0
C339 C 0.67539 0.41799 0.36813 0.0
H340 H 0.94949 0.19789 0.94755 0.0
H341 H 0.93831 0.09759 0.9243 0.0
H342 H 0.99828 0.19834 0.91252 0.0
H343 H 0.98687 0.09827 0.88976 0.0
H344 H 0.097 0.10484 0.89299 0.0
H345 H 0.04356 0.10837 0.9164 0.0
H346 H 0.02224 0.18542 0.84784 0.0
H347 H 0.07606 0.18106 0.82274 0.0
C348 C 0.95705 0.17612 0.93452 0.0
C349 C 0.94031 0.14756 0.93932 0.0
C350 C 0.98485 0.17648 0.91434 0.0
C351 C 0.9964 0.14827 0.89886 0.0
C352 C 0.97858 0.12026 0.90178 0.0
C353 C 0.95078 0.11992 0.92163 0.0
C354 C 0.08087 0.12207 0.88206 0.0
C355 C 0.09068 0.14208 0.8552 0.0
C356 C 0.05026 0.12419 0.89573 0.0
C357 C 0.02869 0.14679 0.8835 0.0
C358 C 0.03849 0.16766 0.8575 0.0
C359 C 0.06924 0.1652 0.84328 0.0
H360 H 0.31897 0.40963 0.41454 0.0
H361 H 0.34219 0.47532 0.49827 0.0
H362 H 0.31128 0.45467 0.37532 0.0
H363 H 0.33374 0.51989 0.45983 0.0
H364 H 0.29757 0.59546 0.39165 0.0
H365 H 0.28894 0.54628 0.42302 0.0
H366 H 0.35425 0.49722 0.35385 0.0
H367 H 0.36308 0.54654 0.3225 0.0
C368 C 0.32166 0.43368 0.42466 0.0
C369 C 0.33125 0.43917 0.45924 0.0
C370 C 0.31739 0.45932 0.40231 0.0
C371 C 0.32175 0.49071 0.41466 0.0
C372 C 0.32983 0.496 0.44972 0.0
C373 C 0.33485 0.47052 0.47165 0.0
C374 C 0.30923 0.57395 0.38238 0.0
C375 C 0.33113 0.57484 0.35475 0.0
C376 C 0.30442 0.54587 0.40045 0.0
C377 C 0.32107 0.51805 0.39095 0.0
C378 C 0.34094 0.51827 0.36155 0.0
C379 C 0.34612 0.54649 0.34375 0.0
H380 H 0.09783 0.81224 0.91364 0.0
H381 H 0.03639 0.86402 0.98491 0.0
H382 H 0.05252 0.80491 0.87344 0.0
H383 H 0.99209 0.85703 0.94551 0.0
H384 H 0.91014 0.82747 0.88431 0.0
H385 H 0.95629 0.81723 0.92096 0.0
H386 H 0.01889 0.8408 0.8361 0.0
H387 H 0.97248 0.85039 0.79915 0.0
C388 C 0.07469 0.82165 0.92088 0.0
C389 C 0.07076 0.83892 0.95227 0.0
C390 C 0.04884 0.81761 0.89789 0.0
C391 C 0.01861 0.83021 0.90637 0.0
C392 C 0.01477 0.8465 0.9383 0.0
C393 C 0.04039 0.85084 0.96081 0.0
C394 C 0.93377 0.82975 0.87328 0.0
C395 C 0.93774 0.84014 0.83908 0.0
C396 C 0.96021 0.82397 0.89425 0.0
C397 C 0.99129 0.82881 0.88166 0.0
C398 C 0.99531 0.83673 0.84655 0.0
C399 C 0.96873 0.84228 0.82541 0.0
H400 H 0.81096 0.07817 0.90375 0.0
H401 H 0.85699 0.01959 0.97982 0.0
H402 H 0.80738 0.03179 0.86382 0.0
H403 H 0.8537 0.9742 0.94063 0.0
H404 H 0.83311 0.89055 0.87819 0.0
H405 H 0.81734 0.93702 0.91305 0.0
H406 H 0.84645 0.9981 0.82988 0.0
H407 H 0.86134 0.9513 0.79464 0.0
C408 C 0.81984 0.0554 0.91211 0.0
C409 C 0.83443 0.0526 0.94483 0.0
C410 C 0.81794 0.02893 0.88925 0.0
C411 C 0.83004 0.99919 0.8991 0.0
C412 C 0.84356 0.99646 0.93231 0.0
C413 C 0.84578 0.02271 0.95474 0.0
C414 C 0.83514 0.91387 0.86699 0.0
C415 C 0.84867 0.9174 0.83391 0.0
C416 C 0.82632 0.94051 0.88698 0.0
C417 C 0.83132 0.97134 0.87457 0.0
C418 C 0.84219 0.97474 0.8402 0.0
C419 C 0.85074 0.94795 0.82 0.0
H420 H 0.45468 0.29605 0.463 0.0
H421 H 0.42349 0.38335 0.41655 0.0
H422 H 0.49891 0.29277 0.42163 0.0
H423 H 0.46761 0.38007 0.37544 0.0
H424 H 0.54021 0.35871 0.29271 0.0
H425 H 0.49154 0.34915 0.32593 0.0
H426 H 0.54819 0.32568 0.41557 0.0
H427 H 0.59676 0.33491 0.38225 0.0
C428 C 0.45688 0.3142 0.44357 0.0
C429 C 0.4357 0.34011 0.44325 0.0
C430 C 0.48232 0.31241 0.42002 0.0
C431 C 0.48684 0.33622 0.39537 0.0
C432 C 0.46464 0.36117 0.39387 0.0
C433 C 0.43946 0.36317 0.41762 0.0
C434 C 0.54223 0.35066 0.31921 0.0
C435 C 0.57226 0.34769 0.33496 0.0
C436 C 0.51438 0.34547 0.33831 0.0
C437 C 0.51602 0.3369 0.37344 0.0
C438 C 0.5461 0.33204 0.3885 0.0
C439 C 0.57391 0.33751 0.36951 0.0
H440 H 0.12689 0.93822 0.92391 0.0
H441 H 0.22482 0.94493 0.95787 0.0
H442 H 0.13643 0.97936 0.8819 0.0
H443 H 0.23461 0.98582 0.91501 0.0
H444 H 0.15574 0.04717 0.8019 0.0
H445 H 0.16215 0.99589 0.82966 0.0
H446 H 0.21932 0.04074 0.91012 0.0
H447 H 0.21357 0.09157 0.88167 0.0
C448 C 0.15064 0.94808 0.92204 0.0
C449 C 0.17493 0.93853 0.94469 0.0
C450 C 0.15625 0.97152 0.89758 0.0
C451 C 0.18635 0.98602 0.89497 0.0
C452 C 0.21107 0.97542 0.91654 0.0
C453 C 0.20545 0.95192 0.94107 0.0
C454 C 0.17093 0.04564 0.82458 0.0
C455 C 0.18404 0.07328 0.83976 0.0
C456 C 0.17423 0.0164 0.84081 0.0
C457 C 0.19045 0.01433 0.87271 0.0
C458 C 0.20667 0.04135 0.88561 0.0
C459 C 0.20356 0.07055 0.86919 0.0
H460 H 0.56124 0.70556 0.44025 0.0
H461 H 0.56428 0.60377 0.4239 0.0
H462 H 0.51476 0.70849 0.40226 0.0
H463 H 0.51748 0.60648 0.38742 0.0
H464 H 0.43937 0.61502 0.3123 0.0
H465 H 0.49326 0.62104 0.33536 0.0
H466 H 0.46003 0.69577 0.40518 0.0
H467 H 0.4067 0.69052 0.38091 0.0
C468 C 0.55219 0.68385 0.42836 0.0
C469 C 0.56638 0.65441 0.43546 0.0
C470 C 0.52538 0.68549 0.40673 0.0
C471 C 0.51203 0.65772 0.39183 0.0
C472 C 0.52717 0.6285 0.39783 0.0
C473 C 0.55402 0.62689 0.41915 0.0
C474 C 0.44393 0.63329 0.33192 0.0
C475 C 0.4189 0.65224 0.34488 0.0
C476 C 0.47471 0.63657 0.34543 0.0
C477 C 0.48105 0.65848 0.37272 0.0
C478 C 0.45632 0.67884 0.38402 0.0
C479 C 0.42564 0.67585 0.37012 0.0
H480 H 0.30402 0.45413 0.58315 0.0
H481 H 0.39697 0.42855 0.62198 0.0
H482 H 0.30283 0.49993 0.62318 0.0
H483 H 0.39571 0.47429 0.66186 0.0
H484 H 0.3781 0.54924 0.74453 0.0
H485 H 0.3678 0.49892 0.71355 0.0
H486 H 0.33442 0.5505 0.62467 0.0
H487 H 0.34457 0.60064 0.6557 0.0
C488 C 0.32397 0.45796 0.60058 0.0
C489 C 0.35073 0.43784 0.59914 0.0
C490 C 0.32331 0.48427 0.62339 0.0
C491 C 0.3492 0.49077 0.64558 0.0
C492 C 0.37525 0.46976 0.64534 0.0
C493 C 0.37608 0.44368 0.62228 0.0
C494 C 0.3677 0.54974 0.71877 0.0
C495 C 0.3622 0.57879 0.70244 0.0
C496 C 0.36211 0.52098 0.70092 0.0
C497 C 0.35055 0.52076 0.66658 0.0
C498 C 0.34312 0.54985 0.65117 0.0
C499 C 0.34905 0.57855 0.66884 0.0
H500 H 0.04468 0.8184 0.05875 0.0
H501 H 0.08993 0.88433 0.13027 0.0
H502 H 0.99845 0.81615 0.09627 0.0
H503 H 0.04474 0.88023 0.16986 0.0
H504 H 0.94292 0.90074 0.20648 0.0
H505 H 0.99424 0.89686 0.17844 0.0
H506 H 0.97221 0.80083 0.14425 0.0
H507 H 0.91929 0.80637 0.16845 0.0
C508 C 0.04501 0.83176 0.08314 0.0
C509 C 0.07073 0.85168 0.09156 0.0
C510 C 0.01851 0.83029 0.10502 0.0
C511 C 0.01737 0.84802 0.1365 0.0
C512 C 0.04405 0.86681 0.14558 0.0
C513 C 0.07017 0.86902 0.12307 0.0
C514 C 0.94883 0.87884 0.19272 0.0
C515 C 0.92622 0.85435 0.18887 0.0
C516 C 0.97879 0.87633 0.17704 0.0
C517 C 0.98755 0.84877 0.158 0.0
C518 C 0.96613 0.823 0.15734 0.0
C519 C 0.93576 0.82591 0.17207 0.0
H520 H 0.61222 0.56574 0.60104 0.0
H521 H 0.71325 0.56163 0.5797 0.0
H522 H 0.61711 0.52078 0.63894 0.0
H523 H 0.71843 0.51706 0.61897 0.0
H524 H 0.70148 0.41045 0.64429 0.0
H525 H 0.70505 0.4624 0.61789 0.0
H526 H 0.63526 0.49905 0.69113 0.0
H527 H 0.63094 0.44654 0.71653 0.0
C528 C 0.63567 0.55567 0.60499 0.0
C529 C 0.66227 0.56713 0.58688 0.0
C530 C 0.63854 0.52991 0.62708 0.0
C531 C 0.66817 0.515 0.63203 0.0
C532 C 0.69512 0.52753 0.61534 0.0
C533 C 0.6922 0.55325 0.59297 0.0
C534 C 0.68757 0.42985 0.65532 0.0
C535 C 0.6658 0.42445 0.68231 0.0
C536 C 0.6896 0.45974 0.6402 0.0
C537 C 0.67009 0.48498 0.65196 0.0
C538 C 0.65006 0.48003 0.68076 0.0
C539 C 0.64775 0.45005 0.69556 0.0
H540 H 0.97395 0.13815 0.04809 0.0
H541 H 0.91226 0.19269 0.1166 0.0
H542 H 0.01777 0.1455 0.0882 0.0
H543 H 0.95698 0.20016 0.15757 0.0
H544 H 0.03557 0.15322 0.23375 0.0
H545 H 0.98965 0.16316 0.19619 0.0
H546 H 0.05332 0.18688 0.11237 0.0
H547 H 0.09901 0.17654 0.14968 0.0
C548 C 0.9698 0.15199 0.07173 0.0
C549 C 0.93954 0.16466 0.07929 0.0
C550 C 0.99511 0.1565 0.09462 0.0
C551 C 0.99098 0.17363 0.12599 0.0
C552 C 0.96085 0.18686 0.13354 0.0
C553 C 0.93536 0.18272 0.11012 0.0
C554 C 0.03966 0.16152 0.20764 0.0
C555 C 0.07082 0.16363 0.19441 0.0
C556 C 0.01338 0.16726 0.18615 0.0
C557 C 0.01788 0.17525 0.15114 0.0
C558 C 0.04909 0.18015 0.13903 0.0
C559 C 0.07525 0.17428 0.16037 0.0
H560 H 0.24607 0.83882 0.10224 0.0
H561 H 0.16756 0.77268 0.10668 0.0
H562 H 0.27051 0.81358 0.15227 0.0
H563 H 0.19212 0.74751 0.15668 0.0
H564 H 0.26023 0.69253 0.22717 0.0
H565 H 0.24084 0.71543 0.17295 0.0
H566 H 0.2569 0.80968 0.21563 0.0
H567 H 0.27626 0.78682 0.26956 0.0
C568 C 0.23408 0.8188 0.11373 0.0
C569 C 0.20477 0.80786 0.10045 0.0
C570 C 0.24806 0.80443 0.14247 0.0
C571 C 0.23326 0.77854 0.15839 0.0
C572 C 0.20427 0.76719 0.14475 0.0
C573 C 0.19009 0.7818 0.11625 0.0
C574 C 0.26006 0.7181 0.22466 0.0
C575 C 0.26965 0.73791 0.25257 0.0
C576 C 0.24871 0.73121 0.19381 0.0
C577 C 0.24721 0.76436 0.1901 0.0
C578 C 0.25795 0.78407 0.21758 0.0
C579 C 0.26887 0.771 0.24852 0.0
H580 H 0.68621 0.74937 0.5671 0.0
H581 H 0.73764 0.66456 0.59478 0.0
H582 H 0.72269 0.78136 0.60279 0.0
H583 H 0.77379 0.69653 0.63043 0.0
H584 H 0.78396 0.82676 0.69031 0.0
H585 H 0.74264 0.79271 0.66393 0.0
H586 H 0.81572 0.73508 0.61488 0.0
H587 H 0.8566 0.76878 0.6412 0.0
C588 C 0.70498 0.73748 0.58111 0.0
C589 C 0.70916 0.70439 0.57764 0.0
C590 C 0.72578 0.75582 0.60174 0.0
C591 C 0.75132 0.74151 0.61917 0.0
C592 C 0.75463 0.70831 0.61691 0.0
C593 C 0.73378 0.68999 0.59652 0.0
C594 C 0.79105 0.80655 0.67424 0.0
C595 C 0.82345 0.80051 0.66761 0.0
C596 C 0.76746 0.78722 0.65896 0.0
C597 C 0.77591 0.7612 0.6373 0.0
C598 C 0.80838 0.75471 0.63169 0.0
C599 C 0.83181 0.77416 0.64653 0.0
H600 H 0.82247 0.24553 0.0691 0.0
H601 H 0.76073 0.16524 0.08637 0.0
H602 H 0.78721 0.27919 0.10444 0.0
H603 H 0.72574 0.19889 0.12178 0.0
H604 H 0.65082 0.27936 0.13409 0.0
H605 H 0.68915 0.24286 0.10741 0.0
H606 H 0.76526 0.28879 0.16472 0.0
H607 H 0.7266 0.32572 0.19135 0.0
C608 C 0.80162 0.23495 0.08071 0.0
C609 C 0.79431 0.20271 0.0745 0.0
C610 C 0.78151 0.25422 0.10117 0.0
C611 C 0.75355 0.24176 0.11569 0.0
C612 C 0.74688 0.2093 0.11056 0.0
C613 C 0.76705 0.18999 0.09033 0.0
C614 C 0.67572 0.28159 0.14112 0.0
C615 C 0.68576 0.30553 0.1646 0.0
C616 C 0.69765 0.2605 0.12607 0.0
C617 C 0.73026 0.26293 0.13393 0.0
C618 C 0.74031 0.28648 0.15798 0.0
C619 C 0.71821 0.30743 0.1734 0.0
H620 H 0.30524 0.34644 0.63477 0.0
H621 H 0.31092 0.25563 0.58082 0.0
H622 H 0.28455 0.32032 0.68625 0.0
H623 H 0.28946 0.22959 0.63238 0.0
H624 H 0.20998 0.21381 0.72206 0.0
H625 H 0.23397 0.23368 0.66868 0.0
H626 H 0.30915 0.27764 0.72889 0.0
H627 H 0.28634 0.2567 0.78201 0.0
C628 C 0.30188 0.32093 0.63383 0.0
C629 C 0.30972 0.3031 0.60375 0.0
C630 C 0.29021 0.30599 0.66335 0.0
C631 C 0.28554 0.27296 0.66325 0.0
C632 C 0.29283 0.25509 0.63304 0.0
C633 C 0.30519 0.26998 0.60367 0.0
C634 C 0.23208 0.22697 0.72392 0.0
C635 C 0.2459 0.234 0.75655 0.0
C636 C 0.24569 0.23847 0.69333 0.0
C637 C 0.27311 0.25755 0.69482 0.0
C638 C 0.28769 0.26342 0.72713 0.0
C639 C 0.27447 0.25152 0.75755 0.0
H640 H 0.74645 0.66844 0.43725 0.0
H641 H 0.66531 0.72938 0.41988 0.0
H642 H 0.774 0.69244 0.38836 0.0
H643 H 0.69284 0.75315 0.37101 0.0
H644 H 0.76211 0.80803 0.30313 0.0
H645 H 0.73976 0.78711 0.35693 0.0
H646 H 0.76708 0.69222 0.3242 0.0
H647 H 0.78965 0.71314 0.27086 0.0
C648 C 0.73452 0.68703 0.42314 0.0
C649 C 0.7036 0.69688 0.43247 0.0
C650 C 0.75029 0.7007 0.39506 0.0
C651 C 0.73562 0.72472 0.37584 0.0
C652 C 0.70495 0.73497 0.38555 0.0
C653 C 0.68907 0.72113 0.41341 0.0
C654 C 0.76376 0.7828 0.30777 0.0
C655 C 0.77744 0.7622 0.28272 0.0
C656 C 0.75073 0.77078 0.33838 0.0
C657 C 0.7515 0.73798 0.34472 0.0
C658 C 0.76629 0.71761 0.32023 0.0
C659 C 0.77899 0.72956 0.28955 0.0
H660 H 0.76541 0.16736 0.92657 0.0
H661 H 0.84694 0.22983 0.92401 0.0
H662 H 0.74376 0.19299 0.87521 0.0
H663 H 0.82494 0.256 0.87373 0.0
H664 H 0.7984 0.26864 0.76064 0.0
H665 H 0.81734 0.24508 0.81381 0.0
H666 H 0.72075 0.24091 0.85243 0.0
H667 H 0.70152 0.2631 0.79801 0.0
C668 C 0.77855 0.18675 0.91529 0.0
C669 C 0.80807 0.1963 0.92925 0.0
C670 C 0.76604 0.2016 0.88597 0.0
C671 C 0.78269 0.22645 0.87007 0.0
C672 C 0.81176 0.2365 0.88472 0.0
C673 C 0.82435 0.22155 0.91375 0.0
C674 C 0.78109 0.26248 0.78029 0.0
C675 C 0.74837 0.26753 0.77482 0.0
C676 C 0.79203 0.24933 0.8111 0.0
C677 C 0.77063 0.24109 0.83759 0.0
C678 C 0.7379 0.24662 0.83245 0.0
C679 C 0.72689 0.25972 0.80143 0.0
H680 H 0.33225 0.25869 0.44842 0.0
H681 H 0.25705 0.3283 0.45967 0.0
H682 H 0.29708 0.22503 0.41301 0.0
H683 H 0.22208 0.29469 0.4239 0.0
H684 H 0.17706 0.23528 0.3346 0.0
H685 H 0.2171 0.27046 0.36145 0.0
H686 H 0.24578 0.19496 0.42905 0.0
H687 H 0.20563 0.16008 0.40256 0.0
C688 C 0.3084 0.26704 0.44295 0.0
C689 C 0.29737 0.2961 0.4571 0.0
C690 C 0.28825 0.24769 0.42278 0.0
C691 C 0.25685 0.25722 0.41581 0.0
C692 C 0.24625 0.28686 0.42867 0.0
C693 C 0.26621 0.30599 0.44932 0.0
C694 C 0.19229 0.22617 0.35484 0.0
C695 C 0.18828 0.19505 0.36662 0.0
C696 C 0.215 0.2463 0.37031 0.0
C697 C 0.23449 0.23542 0.39733 0.0
C698 C 0.23127 0.20389 0.4081 0.0
C699 C 0.20822 0.18401 0.3931 0.0
H700 H 0.25163 0.84189 0.94623 0.0
H701 H 0.18983 0.76077 0.95834 0.0
H702 H 0.28807 0.80935 0.9113 0.0
H703 H 0.22647 0.72828 0.92341 0.0
H704 H 0.36353 0.72861 0.90034 0.0
H705 H 0.32427 0.76467 0.92626 0.0
H706 H 0.25048 0.72093 0.86351 0.0
H707 H 0.28999 0.68455 0.83761 0.0
C708 C 0.24559 0.81722 0.94117 0.0
C709 C 0.21789 0.8039 0.95546 0.0
C710 C 0.26658 0.79856 0.92124 0.0
C711 C 0.26027 0.76621 0.91483 0.0
C712 C 0.2319 0.75319 0.92772 0.0
C713 C 0.21099 0.77179 0.94792 0.0
C714 C 0.33896 0.72683 0.89192 0.0
C715 C 0.32977 0.70368 0.86711 0.0
C716 C 0.31652 0.74765 0.90655 0.0
C717 C 0.28427 0.74563 0.89695 0.0
C718 C 0.27513 0.7229 0.87156 0.0
C719 C 0.29774 0.70227 0.85657 0.0
loop_
_geom_bond_atom_site_label_1
_geom_bond_atom_site_label_2
_geom_bond_distance
_geom_bond_site_symmetry_2
_ccdc_geom_bond_type
Fe0 O2 1.918 . S
Fe0 O5 1.997 . S
Fe0 O6 2.002 . S
Fe0 O11 1.976 1_554 S
Fe0 O14 1.996 1_554 S
Fe1 O2 1.918 . S
Fe1 O9 1.997 . S
Fe1 O12 1.996 1_554 S
Fe1 O16 1.976 1_554 S
Fe1 O19 2.002 . S
O2 Fe0 1.918 . S
O2 Fe1 1.918 . S
O2 Fe3 1.918 . S
Fe3 O2 1.918 . S
Fe3 O4 2.002 . S
Fe3 O13 1.976 1_554 S
Fe3 O17 1.996 1_554 S
Fe3 O20 1.997 . S
O4 Fe3 2.002 . S
O4 C21 1.295 . S
O5 Fe0 1.997 . S
O5 C21 1.235 . S
O6 Fe0 2.002 . S
O6 C7 1.295 . S
C7 O6 1.295 . S
C7 O9 1.235 . S
C8 O13 1.287 . S
C8 O14 1.255 . S
O9 Fe1 1.997 . S
O9 C7 1.235 . S
C10 O16 1.287 . S
C10 O17 1.255 . S
O11 Fe0 1.976 1_556 S
O11 C18 1.287 . S
O12 Fe1 1.996 1_556 S
O12 C18 1.255 . S
O13 Fe3 1.976 1_556 S
O13 C8 1.287 . S
O14 Fe0 1.996 1_556 S
O14 C8 1.255 . S
C15 O19 1.295 . S
C15 O20 1.235 . S
O16 Fe1 1.976 1_556 S
O16 C10 1.287 . S
O17 Fe3 1.996 1_556 S
O17 C10 1.255 . S
C18 O11 1.287 . S
C18 O12 1.255 . S
O19 Fe1 2.002 . S
O19 C15 1.295 . S
O20 Fe3 1.997 . S
O20 C15 1.235 . S
C21 O4 1.295 . S
C21 O5 1.235 . S
Fe22 O24 1.918 . S
Fe22 O27 1.997 . S
Fe22 O28 2.002 . S
Fe22 O33 1.976 . S
Fe22 O36 1.996 . S
Fe23 O24 1.918 . S
Fe23 O31 1.997 . S
Fe23 O34 1.996 . S
Fe23 O38 1.976 . S
Fe23 O41 2.002 . S
O24 Fe22 1.918 . S
O24 Fe23 1.918 . S
O24 Fe25 1.918 . S
Fe25 O24 1.918 . S
Fe25 O26 2.002 . S
Fe25 O35 1.976 . S
Fe25 O39 1.996 . S
Fe25 O42 1.997 . S
O26 Fe25 2.002 . S
O26 C43 1.295 . S
O27 Fe22 1.997 . S
O27 C43 1.235 . S
O28 Fe22 2.002 . S
O28 C29 1.295 . S
C29 O28 1.295 . S
C29 O31 1.235 . S
C30 O35 1.287 . S
C30 O36 1.255 . S
O31 Fe23 1.997 . S
O31 C29 1.235 . S
C32 O38 1.287 . S
C32 O39 1.255 . S
O33 Fe22 1.976 . S
O33 C40 1.287 . S
O34 Fe23 1.996 . S
O34 C40 1.255 . S
O35 Fe25 1.976 . S
O35 C30 1.287 . S
O36 Fe22 1.996 . S
O36 C30 1.255 . S
C37 O41 1.295 . S
C37 O42 1.235 . S
O38 Fe23 1.976 . S
O38 C32 1.287 . S
O39 Fe25 1.996 . S
O39 C32 1.255 . S
C40 O33 1.287 . S
C40 O34 1.255 . S
O41 Fe23 2.002 . S
O41 C37 1.295 . S
O42 Fe25 1.997 . S
O42 C37 1.235 . S
C43 O26 1.295 . S
C43 O27 1.235 . S
Fe44 O46 1.918 . S
Fe44 O49 1.997 1_554 S
Fe44 O50 2.002 1_554 S
Fe44 O55 1.976 . S
Fe44 O58 1.996 . S
Fe45 O46 1.918 . S
Fe45 O53 1.997 1_554 S
Fe45 O56 1.996 . S
Fe45 O60 1.976 . S
Fe45 O63 2.002 1_554 S
O46 Fe44 1.918 . S
O46 Fe45 1.918 . S
O46 Fe47 1.917 1_554 S
Fe47 O46 1.917 1_556 S
Fe47 O48 2.009 . S
Fe47 O57 1.969 1_556 S
Fe47 O61 1.989 1_556 S
Fe47 O64 2.003 . S
O48 Fe47 2.009 . S
O48 C65 1.295 . S
O49 Fe44 1.997 1_556 S
O49 C65 1.235 . S
O50 Fe44 2.002 1_556 S
O50 C51 1.295 . S
C51 O50 1.295 . S
C51 O53 1.235 . S
C52 O57 1.287 . S
C52 O58 1.255 . S
O53 Fe45 1.997 1_556 S
O53 C51 1.235 . S
C54 O60 1.287 . S
C54 O61 1.255 . S
O55 Fe44 1.976 . S
O55 C62 1.287 . S
O56 Fe45 1.996 . S
O56 C62 1.255 . S
O57 Fe47 1.969 1_554 S
O57 C52 1.287 . S
O58 Fe44 1.996 . S
O58 C52 1.255 . S
C59 O63 1.295 . S
C59 O64 1.235 . S
O60 Fe45 1.976 . S
O60 C54 1.287 . S
O61 Fe47 1.989 1_554 S
O61 C54 1.255 . S
C62 O55 1.287 . S
C62 O56 1.255 . S
O63 Fe45 2.002 1_556 S
O63 C59 1.295 . S
O64 Fe47 2.003 . S
O64 C59 1.235 . S
C65 O48 1.295 . S
C65 O49 1.235 . S
Fe66 O68 1.918 . S
Fe66 O71 1.997 . S
Fe66 O72 2.002 . S
Fe66 O77 1.976 . S
Fe66 O80 1.996 . S
Fe67 O68 1.918 . S
Fe67 O75 1.997 . S
Fe67 O78 1.996 . S
Fe67 O82 1.976 . S
Fe67 O85 2.002 . S
O68 Fe66 1.918 . S
O68 Fe67 1.918 . S
O68 Fe69 1.918 . S
Fe69 O68 1.918 . S
Fe69 O70 2.002 . S
Fe69 O79 1.976 . S
Fe69 O83 1.996 . S
Fe69 O86 1.997 . S
O70 Fe69 2.002 . S
O70 C87 1.295 . S
O71 Fe66 1.997 . S
O71 C87 1.235 . S
O72 Fe66 2.002 . S
O72 C73 1.295 . S
C73 O72 1.295 . S
C73 O75 1.235 . S
C74 O79 1.287 . S
C74 O80 1.255 . S
O75 Fe67 1.997 . S
O75 C73 1.235 . S
C76 O82 1.287 . S
C76 O83 1.255 . S
O77 Fe66 1.976 . S
O77 C84 1.287 . S
O78 Fe67 1.996 . S
O78 C84 1.255 . S
O79 Fe69 1.976 . S
O79 C74 1.287 . S
O80 Fe66 1.996 . S
O80 C74 1.255 . S
C81 O85 1.295 . S
C81 O86 1.235 . S
O82 Fe67 1.976 . S
O82 C76 1.287 . S
O83 Fe69 1.996 . S
O83 C76 1.255 . S
C84 O77 1.287 . S
C84 O78 1.255 . S
O85 Fe67 2.002 . S
O85 C81 1.295 . S
O86 Fe69 1.997 . S
O86 C81 1.235 . S
C87 O70 1.295 . S
C87 O71 1.235 . S
H88 C89 0.949 . S
C89 H88 0.949 . S
C89 C90 1.395 . S
C89 C91 1.391 . S
C90 C89 1.395 . S
C90 C93 1.390 . S
C91 C89 1.391 . S
C91 C95 1.387 . S
C91 C96 1.491 . S
H92 C93 0.950 . S
C93 C90 1.390 . S
C93 H92 0.950 . S
C93 C94 1.378 . S
C94 C93 1.378 . S
C94 C95 1.409 . S
C95 C91 1.387 . S
C95 C94 1.409 . S
C95 H97 0.951 . S
C96 C91 1.491 . S
C96 C98 1.382 . S
C96 C100 1.404 . S
H97 C95 0.951 . S
C98 C96 1.382 . S
C98 C99 1.390 . S
C98 H103 0.949 . S
C99 C98 1.390 . S
C99 C104 1.399 . S
C100 C96 1.404 . S
C100 H101 0.950 . S
C100 C102 1.375 . S
H101 C100 0.950 . S
C102 C100 1.375 . S
C102 C104 1.382 . S
C102 H106 0.950 . S
H103 C98 0.949 . S
C104 C99 1.399 . S
C104 C102 1.382 . S
C104 H105 0.952 . S
H105 C104 0.952 . S
H106 C102 0.950 . S
H107 C108 0.949 . S
C108 H107 0.949 . S
C108 C109 1.395 . S
C108 C110 1.391 . S
C109 C108 1.395 . S
C109 C112 1.390 . S
C110 C108 1.391 . S
C110 C114 1.387 . S
C110 C115 1.491 . S
H111 C112 0.950 . S
C112 C109 1.390 . S
C112 H111 0.950 . S
C112 C113 1.378 . S
C113 C112 1.378 . S
C113 C114 1.409 . S
C114 C110 1.387 . S
C114 C113 1.409 . S
C114 H116 0.951 . S
C115 C110 1.491 . S
C115 C117 1.382 . S
C115 C119 1.404 . S
H116 C114 0.951 . S
C117 C115 1.382 . S
C117 C118 1.390 . S
C117 H122 0.949 . S
C118 C117 1.390 . S
C118 C123 1.399 . S
C119 C115 1.404 . S
C119 H120 0.950 . S
C119 C121 1.375 . S
H120 C119 0.950 . S
C121 C119 1.375 . S
C121 C123 1.382 . S
C121 H125 0.950 . S
H122 C117 0.949 . S
C123 C118 1.399 . S
C123 C121 1.382 . S
C123 H124 0.952 . S
H124 C123 0.952 . S
H125 C121 0.950 . S
H126 C127 0.949 . S
C127 H126 0.949 . S
C127 C128 1.395 . S
C127 C129 1.391 . S
C128 C127 1.395 . S
C128 C131 1.390 . S
C129 C127 1.391 . S
C129 C133 1.387 . S
C129 C134 1.491 . S
H130 C131 0.950 . S
C131 C128 1.390 . S
C131 H130 0.950 . S
C131 C132 1.378 . S
C132 C131 1.378 . S
C132 C133 1.409 . S
C133 C129 1.387 . S
C133 C132 1.409 . S
C133 H135 0.951 . S
C134 C129 1.491 . S
C134 C136 1.382 . S
C134 C138 1.404 . S
H135 C133 0.951 . S
C136 C134 1.382 . S
C136 C137 1.390 . S
C136 H141 0.949 . S
C137 C136 1.390 . S
C137 C142 1.399 . S
C138 C134 1.404 . S
C138 H139 0.950 . S
C138 C140 1.375 . S
H139 C138 0.950 . S
C140 C138 1.375 . S
C140 C142 1.382 . S
C140 H144 0.950 . S
H141 C136 0.949 . S
C142 C137 1.399 . S
C142 C140 1.382 . S
C142 H143 0.952 . S
H143 C142 0.952 . S
H144 C140 0.950 . S
H145 C146 0.949 . S
C146 H145 0.949 . S
C146 C147 1.395 . S
C146 C148 1.391 . S
C147 C146 1.395 . S
C147 C150 1.390 . S
C148 C146 1.391 . S
C148 C152 1.387 . S
C148 C153 1.491 . S
H149 C150 0.950 . S
C150 C147 1.390 . S
C150 H149 0.950 . S
C150 C151 1.378 . S
C151 C150 1.378 . S
C151 C152 1.409 . S
C152 C148 1.387 . S
C152 C151 1.409 . S
C152 H154 0.951 . S
C153 C148 1.491 . S
C153 C155 1.382 . S
C153 C157 1.404 . S
H154 C152 0.951 . S
C155 C153 1.382 . S
C155 C156 1.390 . S
C155 H160 0.949 . S
C156 C155 1.390 . S
C156 C161 1.399 . S
C157 C153 1.404 . S
C157 H158 0.950 . S
C157 C159 1.375 . S
H158 C157 0.950 . S
C159 C157 1.375 . S
C159 C161 1.382 . S
C159 H163 0.950 . S
H160 C155 0.949 . S
C161 C156 1.399 . S
C161 C159 1.382 . S
C161 H162 0.952 . S
H162 C161 0.952 . S
H163 C159 0.950 . S
H164 C165 0.949 . S
C165 H164 0.949 . S
C165 C166 1.395 . S
C165 C167 1.391 . S
C166 C165 1.395 . S
C166 C169 1.390 . S
C167 C165 1.391 . S
C167 C171 1.387 . S
C167 C172 1.491 . S
H168 C169 0.950 . S
C169 C166 1.390 . S
C169 H168 0.950 . S
C169 C170 1.378 . S
C170 C169 1.378 . S
C170 C171 1.409 . S
C171 C167 1.387 . S
C171 C170 1.409 . S
C171 H173 0.951 . S
C172 C167 1.491 . S
C172 C174 1.382 . S
C172 C176 1.404 . S
H173 C171 0.951 . S
C174 C172 1.382 . S
C174 C175 1.390 . S
C174 H179 0.949 . S
C175 C174 1.390 . S
C175 C180 1.399 . S
C176 C172 1.404 . S
C176 H177 0.950 . S
C176 C178 1.375 . S
H177 C176 0.950 . S
C178 C176 1.375 . S
C178 C180 1.382 . S
C178 H182 0.950 . S
H179 C174 0.949 . S
C180 C175 1.399 . S
C180 C178 1.382 . S
C180 H181 0.952 . S
H181 C180 0.952 . S
H182 C178 0.950 . S
H183 C184 0.949 . S
C184 H183 0.949 . S
C184 C185 1.395 . S
C184 C186 1.391 . S
C185 C184 1.395 . S
C185 C188 1.390 . S
C186 C184 1.391 . S
C186 C190 1.387 . S
C186 C191 1.491 . S
H187 C188 0.950 . S
C188 C185 1.390 . S
C188 H187 0.950 . S
C188 C189 1.378 . S
C189 C188 1.378 . S
C189 C190 1.409 . S
C190 C186 1.387 . S
C190 C189 1.409 . S
C190 H192 0.951 . S
C191 C186 1.491 . S
C191 C193 1.382 . S
C191 C195 1.404 . S
H192 C190 0.951 . S
C193 C191 1.382 . S
C193 C194 1.390 . S
C193 H198 0.949 . S
C194 C193 1.390 . S
C194 C199 1.399 . S
C195 C191 1.404 . S
C195 H196 0.950 . S
C195 C197 1.375 . S
H196 C195 0.950 . S
C197 C195 1.375 . S
C197 C199 1.382 . S
C197 H201 0.950 . S
H198 C193 0.949 . S
C199 C194 1.399 . S
C199 C197 1.382 . S
C199 H200 0.952 . S
H200 C199 0.952 . S
H201 C197 0.950 . S
H202 C203 0.949 . S
C203 H202 0.949 . S
C203 C204 1.395 . S
C203 C205 1.391 . S
C204 C203 1.395 . S
C204 C207 1.390 . S
C205 C203 1.391 . S
C205 C209 1.387 . S
C205 C210 1.491 . S
H206 C207 0.950 . S
C207 C204 1.390 . S
C207 H206 0.950 . S
C207 C208 1.378 . S
C208 C207 1.378 . S
C208 C209 1.409 . S
C209 C205 1.387 . S
C209 C208 1.409 . S
C209 H211 0.951 . S
C210 C205 1.491 . S
C210 C212 1.382 . S
C210 C214 1.404 . S
H211 C209 0.951 . S
C212 C210 1.382 . S
C212 C213 1.390 . S
C212 H217 0.949 . S
C213 C212 1.390 . S
C213 C218 1.399 . S
C214 C210 1.404 . S
C214 H215 0.950 . S
C214 C216 1.375 . S
H215 C214 0.950 . S
C216 C214 1.375 . S
C216 C218 1.382 . S
C216 H220 0.950 . S
H217 C212 0.949 . S
C218 C213 1.399 . S
C218 C216 1.382 . S
C218 H219 0.952 . S
H219 C218 0.952 . S
H220 C216 0.950 . S
H221 C222 0.949 . S
C222 H221 0.949 . S
C222 C223 1.395 . S
C222 C224 1.391 . S
C223 C222 1.395 . S
C223 C226 1.390 . S
C224 C222 1.391 . S
C224 C228 1.387 . S
C224 C229 1.491 . S
H225 C226 0.950 . S
C226 C223 1.390 . S
C226 H225 0.950 . S
C226 C227 1.378 . S
C227 C226 1.378 . S
C227 C228 1.409 . S
C228 C224 1.387 . S
C228 C227 1.409 . S
C228 H230 0.951 . S
C229 C224 1.491 . S
C229 C231 1.382 . S
C229 C233 1.404 . S
H230 C228 0.951 . S
C231 C229 1.382 . S
C231 C232 1.390 . S
C231 H236 0.949 . S
C232 C231 1.390 . S
C232 C237 1.399 . S
C233 C229 1.404 . S
C233 H234 0.950 . S
C233 C235 1.375 . S
H234 C233 0.950 . S
C235 C233 1.375 . S
C235 C237 1.382 . S
C235 H239 0.950 . S
H236 C231 0.949 . S
C237 C232 1.399 . S
C237 C235 1.382 . S
C237 H238 0.952 . S
H238 C237 0.952 . S
H239 C235 0.950 . S
H240 C248 0.950 . S
H241 C253 0.950 . S
H242 C250 0.950 . S
H243 C252 0.950 . S
H244 C254 0.950 . S
H245 C256 0.950 . S
H246 C258 0.950 . S
H247 C259 0.950 . S
C248 H240 0.950 . S
C248 C249 1.386 . S
C248 C250 1.391 1_565 S
C249 C248 1.386 . S
C249 C253 1.393 . S
C250 H242 0.950 . S
C250 C248 1.391 1_545 S
C250 C251 1.400 . S
C251 C250 1.400 . S
C251 C252 1.398 1_545 S
C251 C257 1.491 . S
C252 H243 0.950 . S
C252 C251 1.398 1_565 S
C252 C253 1.391 . S
C253 H241 0.950 . S
C253 C249 1.393 . S
C253 C252 1.391 . S
C254 H244 0.950 . S
C254 C255 1.386 . S
C254 C256 1.391 . S
C255 C254 1.386 . S
C255 C259 1.393 . S
C256 H245 0.950 . S
C256 C254 1.391 . S
C256 C257 1.400 . S
C257 C251 1.491 . S
C257 C256 1.400 . S
C257 C258 1.398 . S
C258 H246 0.950 . S
C258 C257 1.398 . S
C258 C259 1.391 . S
C259 H247 0.950 . S
C259 C255 1.393 . S
C259 C258 1.391 . S
H260 C268 0.950 . S
H261 C273 0.950 . S
H262 C270 0.950 . S
H263 C272 0.950 . S
H264 C274 0.950 . S
H265 C276 0.950 . S
H266 C278 0.950 . S
H267 C279 0.950 . S
C268 H260 0.950 . S
C268 C269 1.386 . S
C268 C270 1.391 . S
C269 C268 1.386 . S
C269 C273 1.393 . S
C270 H262 0.950 . S
C270 C268 1.391 . S
C270 C271 1.400 . S
C271 C270 1.400 . S
C271 C272 1.398 . S
C271 C277 1.491 . S
C272 H263 0.950 . S
C272 C271 1.398 . S
C272 C273 1.391 . S
C273 H261 0.950 . S
C273 C269 1.393 . S
C273 C272 1.391 . S
C274 H264 0.950 . S
C274 C275 1.386 . S
C274 C276 1.391 . S
C275 C274 1.386 . S
C275 C279 1.393 . S
C276 H265 0.950 . S
C276 C274 1.391 . S
C276 C277 1.400 . S
C277 C271 1.491 . S
C277 C276 1.400 . S
C277 C278 1.398 . S
C278 H266 0.950 . S
C278 C277 1.398 . S
C278 C279 1.391 . S
C279 H267 0.950 . S
C279 C275 1.393 . S
C279 C278 1.391 . S
H280 C288 0.950 . S
H281 C293 0.950 . S
H282 C290 0.950 . S
H283 C292 0.950 . S
H284 C294 0.950 . S
H285 C296 0.950 . S
H286 C298 0.950 . S
H287 C299 0.950 . S
C288 H280 0.950 . S
C288 C289 1.386 . S
C288 C290 1.391 . S
C289 C288 1.386 . S
C289 C293 1.393 . S
C290 H282 0.950 . S
C290 C288 1.391 . S
C290 C291 1.400 1_545 S
C291 C290 1.400 1_565 S
C291 C292 1.398 . S
C291 C297 1.491 . S
C292 H283 0.950 . S
C292 C291 1.398 . S
C292 C293 1.391 1_565 S
C293 H281 0.950 . S
C293 C289 1.393 . S
C293 C292 1.391 1_545 S
C294 H284 0.950 . S
C294 C295 1.386 . S
C294 C296 1.391 . S
C295 C294 1.386 . S
C295 C299 1.393 . S
C296 H285 0.950 . S
C296 C294 1.391 . S
C296 C297 1.400 . S
C297 C291 1.491 . S
C297 C296 1.400 . S
C297 C298 1.398 . S
C298 H286 0.950 . S
C298 C297 1.398 . S
C298 C299 1.391 . S
C299 H287 0.950 . S
C299 C295 1.393 . S
C299 C298 1.391 . S
H300 C308 0.950 . S
H301 C313 0.950 . S
H302 C310 0.950 . S
H303 C312 0.950 . S
H304 C314 0.950 . S
H305 C316 0.950 . S
H306 C318 0.950 . S
H307 C319 0.950 . S
C308 H300 0.950 . S
C308 C309 1.386 . S
C308 C310 1.391 . S
C309 C308 1.386 . S
C309 C313 1.393 . S
C310 H302 0.950 . S
C310 C308 1.391 . S
C310 C311 1.400 . S
C311 C310 1.400 . S
C311 C312 1.398 . S
C311 C317 1.491 . S
C312 H303 0.950 . S
C312 C311 1.398 . S
C312 C313 1.391 . S
C313 H301 0.950 . S
C313 C309 1.393 . S
C313 C312 1.391 . S
C314 H304 0.950 . S
C314 C315 1.386 . S
C314 C316 1.391 . S
C315 C314 1.386 . S
C315 C319 1.393 . S
C316 H305 0.950 . S
C316 C314 1.391 . S
C316 C317 1.400 . S
C317 C311 1.491 . S
C317 C316 1.400 . S
C317 C318 1.398 . S
C318 H306 0.950 . S
C318 C317 1.398 . S
C318 C319 1.391 . S
C319 H307 0.950 . S
C319 C315 1.393 . S
C319 C318 1.391 . S
H320 C328 0.950 . S
H321 C333 0.950 . S
H322 C330 0.950 . S
H323 C332 0.950 . S
H324 C334 0.950 . S
H325 C336 0.950 . S
H326 C338 0.950 . S
H327 C339 0.950 . S
C328 H320 0.950 . S
C328 C329 1.386 . S
C328 C330 1.391 . S
C329 C328 1.386 . S
C329 C333 1.393 . S
C330 H322 0.950 . S
C330 C328 1.391 . S
C330 C331 1.400 . S
C331 C330 1.400 . S
C331 C332 1.398 . S
C331 C337 1.491 . S
C332 H323 0.950 . S
C332 C331 1.398 . S
C332 C333 1.391 . S
C333 H321 0.950 . S
C333 C329 1.393 . S
C333 C332 1.391 . S
C334 H324 0.950 . S
C334 C335 1.386 . S
C334 C336 1.391 . S
C335 C334 1.386 . S
C335 C339 1.393 . S
C336 H325 0.950 . S
C336 C334 1.391 . S
C336 C337 1.400 . S
C337 C331 1.491 . S
C337 C336 1.400 . S
C337 C338 1.398 . S
C338 H326 0.950 . S
C338 C337 1.398 . S
C338 C339 1.391 . S
C339 H327 0.950 . S
C339 C335 1.393 . S
C339 C338 1.391 . S
H340 C348 0.950 . S
H341 C353 0.950 . S
H342 C350 0.955 . S
H343 C352 0.950 . S
H344 C354 0.950 . S
H345 C356 0.950 . S
H346 C358 0.950 . S
H347 C359 0.950 . S
C348 H340 0.950 . S
C348 C349 1.386 . S
C348 C350 1.362 1_655 S
C349 C348 1.386 . S
C349 C353 1.393 . S
C350 H342 0.955 . S
C350 C348 1.362 1_455 S
C350 C351 1.425 . S
C351 C350 1.425 . S
C351 C352 1.398 . S
C351 C357 1.491 . S
C352 H343 0.950 . S
C352 C351 1.398 . S
C352 C353 1.391 1_455 S
C353 H341 0.950 . S
C353 C349 1.393 . S
C353 C352 1.391 1_655 S
C354 H344 0.950 . S
C354 C355 1.386 . S
C354 C356 1.391 . S
C355 C354 1.386 . S
C355 C359 1.393 . S
C356 H345 0.950 . S
C356 C354 1.391 . S
C356 C357 1.400 . S
C357 C351 1.491 . S
C357 C356 1.400 . S
C357 C358 1.398 . S
C358 H346 0.950 . S
C358 C357 1.398 . S
C358 C359 1.391 . S
C359 H347 0.950 . S
C359 C355 1.393 . S
C359 C358 1.391 . S
H360 C368 0.950 . S
H361 C373 0.950 . S
H362 C370 0.950 . S
H363 C372 0.950 . S
H364 C374 0.950 . S
H365 C376 0.950 . S
H366 C378 0.950 . S
H367 C379 0.950 . S
C368 H360 0.950 . S
C368 C369 1.386 . S
C368 C370 1.391 . S
C369 C368 1.386 . S
C369 C373 1.393 . S
C370 H362 0.950 . S
C370 C368 1.391 . S
C370 C371 1.400 . S
C371 C370 1.400 . S
C371 C372 1.398 . S
C371 C377 1.491 . S
C372 H363 0.950 . S
C372 C371 1.398 . S
C372 C373 1.391 . S
C373 H361 0.950 . S
C373 C369 1.393 . S
C373 C372 1.391 . S
C374 H364 0.950 . S
C374 C375 1.386 . S
C374 C376 1.391 . S
C375 C374 1.386 . S
C375 C379 1.393 . S
C376 H365 0.950 . S
C376 C374 1.391 . S
C376 C377 1.400 . S
C377 C371 1.491 . S
C377 C376 1.400 . S
C377 C378 1.398 . S
C378 H366 0.950 . S
C378 C377 1.398 . S
C378 C379 1.391 . S
C379 H367 0.950 . S
C379 C375 1.393 . S
C379 C378 1.391 . S
H380 C388 0.950 . S
H381 C393 0.950 . S
H382 C390 0.950 . S
H383 C392 0.950 . S
H384 C394 0.950 . S
H385 C396 0.950 . S
H386 C398 0.950 . S
H387 C399 0.950 . S
C388 H380 0.950 . S
C388 C389 1.386 . S
C388 C390 1.391 . S
C389 C388 1.386 . S
C389 C393 1.393 . S
C390 H382 0.950 . S
C390 C388 1.391 . S
C390 C391 1.400 1_455 S
C391 C390 1.400 1_655 S
C391 C392 1.398 . S
C391 C397 1.491 . S
C392 H383 0.950 . S
C392 C391 1.398 . S
C392 C393 1.391 1_655 S
C393 H381 0.950 . S
C393 C389 1.393 . S
C393 C392 1.391 1_455 S
C394 H384 0.950 . S
C394 C395 1.386 . S
C394 C396 1.391 . S
C395 C394 1.386 . S
C395 C399 1.393 . S
C396 H385 0.950 . S
C396 C394 1.391 . S
C396 C397 1.400 . S
C397 C391 1.491 . S
C397 C396 1.400 . S
C397 C398 1.398 . S
C398 H386 0.950 . S
C398 C397 1.398 . S
C398 C399 1.391 . S
C399 H387 0.950 . S
C399 C395 1.393 . S
C399 C398 1.391 . S
H400 C408 0.950 . S
H401 C413 0.950 . S
H402 C410 0.950 1_565 S
H403 C412 0.950 . S
H404 C414 0.950 . S
H405 C416 0.950 . S
H406 C418 0.950 . S
H407 C419 0.950 . S
C408 H400 0.950 . S
C408 C409 1.386 . S
C408 C410 1.391 . S
C409 C408 1.386 . S
C409 C413 1.393 . S
C410 H402 0.950 1_545 S
C410 C408 1.391 . S
C410 C411 1.400 1_545 S
C411 C410 1.400 1_565 S
C411 C412 1.398 . S
C411 C417 1.491 . S
C412 H403 0.950 . S
C412 C411 1.398 . S
C412 C413 1.391 1_565 S
C413 H401 0.950 . S
C413 C409 1.393 . S
C413 C412 1.391 1_545 S
C414 H404 0.950 . S
C414 C415 1.386 . S
C414 C416 1.391 . S
C415 C414 1.386 . S
C415 C419 1.393 . S
C416 H405 0.950 . S
C416 C414 1.391 . S
C416 C417 1.400 . S
C417 C411 1.491 . S
C417 C416 1.400 . S
C417 C418 1.398 . S
C418 H406 0.950 . S
C418 C417 1.398 . S
C418 C419 1.391 . S
C419 H407 0.950 . S
C419 C415 1.393 . S
C419 C418 1.391 . S
H420 C428 0.950 . S
H421 C433 0.950 . S
H422 C430 0.950 . S
H423 C432 0.950 . S
H424 C434 0.950 . S
H425 C436 0.950 . S
H426 C438 0.950 . S
H427 C439 0.950 . S
C428 H420 0.950 . S
C428 C429 1.386 . S
C428 C430 1.391 . S
C429 C428 1.386 . S
C429 C433 1.393 . S
C430 H422 0.950 . S
C430 C428 1.391 . S
C430 C431 1.400 . S
C431 C430 1.400 . S
C431 C432 1.398 . S
C431 C437 1.491 . S
C432 H423 0.950 . S
C432 C431 1.398 . S
C432 C433 1.391 . S
C433 H421 0.950 . S
C433 C429 1.393 . S
C433 C432 1.391 . S
C434 H424 0.950 . S
C434 C435 1.386 . S
C434 C436 1.391 . S
C435 C434 1.386 . S
C435 C439 1.393 . S
C436 H425 0.950 . S
C436 C434 1.391 . S
C436 C437 1.400 . S
C437 C431 1.491 . S
C437 C436 1.400 . S
C437 C438 1.398 . S
C438 H426 0.950 . S
C438 C437 1.398 . S
C438 C439 1.391 . S
C439 H427 0.950 . S
C439 C435 1.393 . S
C439 C438 1.391 . S
H440 C448 0.950 . S
H441 C453 0.950 . S
H442 C450 0.950 . S
H443 C452 0.950 . S
H444 C454 0.950 . S
H445 C456 0.950 . S
H446 C458 0.950 . S
H447 C459 0.950 . S
C448 H440 0.950 . S
C448 C449 1.386 . S
C448 C450 1.391 1_565 S
C449 C448 1.386 . S
C449 C453 1.393 . S
C450 H442 0.950 . S
C450 C448 1.391 1_545 S
C450 C451 1.400 . S
C451 C450 1.400 . S
C451 C452 1.398 1_545 S
C451 C457 1.491 . S
C452 H443 0.950 . S
C452 C451 1.398 1_565 S
C452 C453 1.391 . S
C453 H441 0.950 . S
C453 C449 1.393 . S
C453 C452 1.391 . S
C454 H444 0.950 . S
C454 C455 1.386 . S
C454 C456 1.391 . S
C455 C454 1.386 . S
C455 C459 1.393 . S
C456 H445 0.950 . S
C456 C454 1.391 . S
C456 C457 1.400 . S
C457 C451 1.491 . S
C457 C456 1.400 . S
C457 C458 1.398 . S
C458 H446 0.950 . S
C458 C457 1.398 . S
C458 C459 1.391 . S
C459 H447 0.950 . S
C459 C455 1.393 . S
C459 C458 1.391 . S
H460 C468 0.950 . S
H461 C473 0.950 . S
H462 C470 0.950 . S
H463 C472 0.950 . S
H464 C474 0.950 . S
H465 C476 0.950 . S
H466 C478 0.950 . S
H467 C479 0.950 . S
C468 H460 0.950 . S
C468 C469 1.386 . S
C468 C470 1.391 . S
C469 C468 1.386 . S
C469 C473 1.393 . S
C470 H462 0.950 . S
C470 C468 1.391 . S
C470 C471 1.400 . S
C471 C470 1.400 . S
C471 C472 1.398 . S
C471 C477 1.491 . S
C472 H463 0.950 . S
C472 C471 1.398 . S
C472 C473 1.391 . S
C473 H461 0.950 . S
C473 C469 1.393 . S
C473 C472 1.391 . S
C474 H464 0.950 . S
C474 C475 1.386 . S
C474 C476 1.391 . S
C475 C474 1.386 . S
C475 C479 1.393 . S
C476 H465 0.950 . S
C476 C474 1.391 . S
C476 C477 1.400 . S
C477 C471 1.491 . S
C477 C476 1.400 . S
C477 C478 1.398 . S
C478 H466 0.950 . S
C478 C477 1.398 . S
C478 C479 1.391 . S
C479 H467 0.950 . S
C479 C475 1.393 . S
C479 C478 1.391 . S
H480 C488 0.950 . S
H481 C493 0.950 . S
H482 C490 0.950 . S
H483 C492 0.950 . S
H484 C494 0.950 . S
H485 C496 0.950 . S
H486 C498 0.950 . S
H487 C499 0.950 . S
C488 H480 0.950 . S
C488 C489 1.386 . S
C488 C490 1.391 . S
C489 C488 1.386 . S
C489 C493 1.393 . S
C490 H482 0.950 . S
C490 C488 1.391 . S
C490 C491 1.400 . S
C491 C490 1.400 . S
C491 C492 1.398 . S
C491 C497 1.491 . S
C492 H483 0.950 . S
C492 C491 1.398 . S
C492 C493 1.391 . S
C493 H481 0.950 . S
C493 C489 1.393 . S
C493 C492 1.391 . S
C494 H484 0.950 . S
C494 C495 1.386 . S
C494 C496 1.391 . S
C495 C494 1.386 . S
C495 C499 1.393 . S
C496 H485 0.950 . S
C496 C494 1.391 . S
C496 C497 1.400 . S
C497 C491 1.491 . S
C497 C496 1.400 . S
C497 C498 1.398 . S
C498 H486 0.950 . S
C498 C497 1.398 . S
C498 C499 1.391 . S
C499 H487 0.950 . S
C499 C495 1.393 . S
C499 C498 1.391 . S
H500 C508 0.950 . S
H501 C513 0.950 . S
H502 C510 0.950 . S
H503 C512 0.950 . S
H504 C514 0.950 . S
H505 C516 0.950 . S
H506 C518 0.950 . S
H507 C519 0.950 . S
C508 H500 0.950 . S
C508 C509 1.386 . S
C508 C510 1.391 1_455 S
C509 C508 1.386 . S
C509 C513 1.393 . S
C510 H502 0.950 . S
C510 C508 1.391 1_655 S
C510 C511 1.400 . S
C511 C510 1.400 . S
C511 C512 1.398 1_655 S
C511 C517 1.491 . S
C512 H503 0.950 . S
C512 C511 1.398 1_455 S
C512 C513 1.391 . S
C513 H501 0.950 . S
C513 C509 1.393 . S
C513 C512 1.391 . S
C514 H504 0.950 . S
C514 C515 1.386 . S
C514 C516 1.391 . S
C515 C514 1.386 . S
C515 C519 1.393 . S
C516 H505 0.950 . S
C516 C514 1.391 . S
C516 C517 1.400 . S
C517 C511 1.491 . S
C517 C516 1.400 . S
C517 C518 1.398 . S
C518 H506 0.950 . S
C518 C517 1.398 . S
C518 C519 1.391 . S
C519 H507 0.950 . S
C519 C515 1.393 . S
C519 C518 1.391 . S
H520 C528 0.950 . S
H521 C533 0.950 . S
H522 C530 0.950 . S
H523 C532 0.950 . S
H524 C534 0.950 . S
H525 C536 0.950 . S
H526 C538 0.950 . S
H527 C539 0.950 . S
C528 H520 0.950 . S
C528 C529 1.386 . S
C528 C530 1.391 . S
C529 C528 1.386 . S
C529 C533 1.393 . S
C530 H522 0.950 . S
C530 C528 1.391 . S
C530 C531 1.400 . S
C531 C530 1.400 . S
C531 C532 1.398 . S
C531 C537 1.491 . S
C532 H523 0.950 . S
C532 C531 1.398 . S
C532 C533 1.391 . S
C533 H521 0.950 . S
C533 C529 1.393 . S
C533 C532 1.391 . S
C534 H524 0.950 . S
C534 C535 1.386 . S
C534 C536 1.391 . S
C535 C534 1.386 . S
C535 C539 1.393 . S
C536 H525 0.950 . S
C536 C534 1.391 . S
C536 C537 1.400 . S
C537 C531 1.491 . S
C537 C536 1.400 . S
C537 C538 1.398 . S
C538 H526 0.950 . S
C538 C537 1.398 . S
C538 C539 1.391 . S
C539 H527 0.950 . S
C539 C535 1.393 . S
C539 C538 1.391 . S
H540 C548 0.950 . S
H541 C553 0.950 . S
H542 C550 0.950 . S
H543 C552 0.950 . S
H544 C554 0.950 . S
H545 C556 0.950 . S
H546 C558 0.950 . S
H547 C559 0.950 . S
C548 H540 0.950 . S
C548 C549 1.386 . S
C548 C550 1.391 1_655 S
C549 C548 1.386 . S
C549 C553 1.393 . S
C550 H542 0.950 . S
C550 C548 1.391 1_455 S
C550 C551 1.400 . S
C551 C550 1.400 . S
C551 C552 1.398 1_455 S
C551 C557 1.491 . S
C552 H543 0.950 . S
C552 C551 1.398 1_655 S
C552 C553 1.391 . S
C553 H541 0.950 . S
C553 C549 1.393 . S
C553 C552 1.391 . S
C554 H544 0.950 . S
C554 C555 1.386 . S
C554 C556 1.391 . S
C555 C554 1.386 . S
C555 C559 1.393 . S
C556 H545 0.950 . S
C556 C554 1.391 . S
C556 C557 1.400 . S
C557 C551 1.491 . S
C557 C556 1.400 . S
C557 C558 1.398 . S
C558 H546 0.950 . S
C558 C557 1.398 . S
C558 C559 1.391 . S
C559 H547 0.950 . S
C559 C555 1.393 . S
C559 C558 1.391 . S
H560 C568 0.950 . S
H561 C573 0.950 . S
H562 C570 0.950 . S
H563 C572 0.950 . S
H564 C574 0.950 . S
H565 C576 0.950 . S
H566 C578 0.950 . S
H567 C579 0.950 . S
C568 H560 0.950 . S
C568 C569 1.386 . S
C568 C570 1.391 . S
C569 C568 1.386 . S
C569 C573 1.393 . S
C570 H562 0.950 . S
C570 C568 1.391 . S
C570 C571 1.400 . S
C571 C570 1.400 . S
C571 C572 1.398 . S
C571 C577 1.491 . S
C572 H563 0.950 . S
C572 C571 1.398 . S
C572 C573 1.391 . S
C573 H561 0.950 . S
C573 C569 1.393 . S
C573 C572 1.391 . S
C574 H564 0.950 . S
C574 C575 1.386 . S
C574 C576 1.391 . S
C575 C574 1.386 . S
C575 C579 1.393 . S
C576 H565 0.950 . S
C576 C574 1.391 . S
C576 C577 1.400 . S
C577 C571 1.491 . S
C577 C576 1.400 . S
C577 C578 1.398 . S
C578 H566 0.950 . S
C578 C577 1.398 . S
C578 C579 1.391 . S
C579 H567 0.950 . S
C579 C575 1.393 . S
C579 C578 1.391 . S
H580 C588 0.950 . S
H581 C593 0.950 . S
H582 C590 0.950 . S
H583 C592 0.950 . S
H584 C594 0.950 . S
H585 C596 0.950 . S
H586 C598 0.950 . S
H587 C599 0.950 . S
C588 H580 0.950 . S
C588 C589 1.386 . S
C588 C590 1.391 . S
C589 C588 1.386 . S
C589 C593 1.393 . S
C590 H582 0.950 . S
C590 C588 1.391 . S
C590 C591 1.400 . S
C591 C590 1.400 . S
C591 C592 1.398 . S
C591 C597 1.491 . S
C592 H583 0.950 . S
C592 C591 1.398 . S
C592 C593 1.391 . S
C593 H581 0.950 . S
C593 C589 1.393 . S
C593 C592 1.391 . S
C594 H584 0.950 . S
C594 C595 1.386 . S
C594 C596 1.391 . S
C595 C594 1.386 . S
C595 C599 1.393 . S
C596 H585 0.950 . S
C596 C594 1.391 . S
C596 C597 1.400 . S
C597 C591 1.491 . S
C597 C596 1.400 . S
C597 C598 1.398 . S
C598 H586 0.950 . S
C598 C597 1.398 . S
C598 C599 1.391 . S
C599 H587 0.950 . S
C599 C595 1.393 . S
C599 C598 1.391 . S
H600 C608 0.950 . S
H601 C613 0.950 . S
H602 C610 0.950 . S
H603 C612 0.950 . S
H604 C614 0.950 . S
H605 C616 0.950 . S
H606 C618 0.950 . S
H607 C619 0.950 . S
C608 H600 0.950 . S
C608 C609 1.386 . S
C608 C610 1.391 . S
C609 C608 1.386 . S
C609 C613 1.393 . S
C610 H602 0.950 . S
C610 C608 1.391 . S
C610 C611 1.400 . S
C611 C610 1.400 . S
C611 C612 1.398 . S
C611 C617 1.491 . S
C612 H603 0.950 . S
C612 C611 1.398 . S
C612 C613 1.391 . S
C613 H601 0.950 . S
C613 C609 1.393 . S
C613 C612 1.391 . S
C614 H604 0.950 . S
C614 C615 1.386 . S
C614 C616 1.391 . S
C615 C614 1.386 . S
C615 C619 1.393 . S
C616 H605 0.950 . S
C616 C614 1.391 . S
C616 C617 1.400 . S
C617 C611 1.491 . S
C617 C616 1.400 . S
C617 C618 1.398 . S
C618 H606 0.950 . S
C618 C617 1.398 . S
C618 C619 1.391 . S
C619 H607 0.950 . S
C619 C615 1.393 . S
C619 C618 1.391 . S
H620 C628 0.950 . S
H621 C633 0.950 . S
H622 C630 0.950 . S
H623 C632 0.950 . S
H624 C634 0.950 . S
H625 C636 0.950 . S
H626 C638 0.950 . S
H627 C639 0.950 . S
C628 H620 0.950 . S
C628 C629 1.386 . S
C628 C630 1.391 . S
C629 C628 1.386 . S
C629 C633 1.393 . S
C630 H622 0.950 . S
C630 C628 1.391 . S
C630 C631 1.400 . S
C631 C630 1.400 . S
C631 C632 1.398 . S
C631 C637 1.491 . S
C632 H623 0.950 . S
C632 C631 1.398 . S
C632 C633 1.391 . S
C633 H621 0.950 . S
C633 C629 1.393 . S
C633 C632 1.391 . S
C634 H624 0.950 . S
C634 C635 1.386 . S
C634 C636 1.391 . S
C635 C634 1.386 . S
C635 C639 1.393 . S
C636 H625 0.950 . S
C636 C634 1.391 . S
C636 C637 1.400 . S
C637 C631 1.491 . S
C637 C636 1.400 . S
C637 C638 1.398 . S
C638 H626 0.950 . S
C638 C637 1.398 . S
C638 C639 1.391 . S
C639 H627 0.950 . S
C639 C635 1.393 . S
C639 C638 1.391 . S
H640 C648 0.950 . S
H641 C653 0.950 . S
H642 C650 0.950 . S
H643 C652 0.950 . S
H644 C654 0.950 . S
H645 C656 0.950 . S
H646 C658 0.950 . S
H647 C659 0.950 . S
C648 H640 0.950 . S
C648 C649 1.386 . S
C648 C650 1.391 . S
C649 C648 1.386 . S
C649 C653 1.393 . S
C650 H642 0.950 . S
C650 C648 1.391 . S
C650 C651 1.400 . S
C651 C650 1.400 . S
C651 C652 1.398 . S
C651 C657 1.491 . S
C652 H643 0.950 . S
C652 C651 1.398 . S
C652 C653 1.391 . S
C653 H641 0.950 . S
C653 C649 1.393 . S
C653 C652 1.391 . S
C654 H644 0.950 . S
C654 C655 1.386 . S
C654 C656 1.391 . S
C655 C654 1.386 . S
C655 C659 1.393 . S
C656 H645 0.950 . S
C656 C654 1.391 . S
C656 C657 1.400 . S
C657 C651 1.491 . S
C657 C656 1.400 . S
C657 C658 1.398 . S
C658 H646 0.950 . S
C658 C657 1.398 . S
C658 C659 1.391 . S
C659 H647 0.950 . S
C659 C655 1.393 . S
C659 C658 1.391 . S
H660 C668 0.950 . S
H661 C673 0.950 . S
H662 C670 0.950 . S
H663 C672 0.950 . S
H664 C674 0.950 . S
H665 C676 0.950 . S
H666 C678 0.950 . S
H667 C679 0.950 . S
C668 H660 0.950 . S
C668 C669 1.386 . S
C668 C670 1.391 . S
C669 C668 1.386 . S
C669 C673 1.393 . S
C670 H662 0.950 . S
C670 C668 1.391 . S
C670 C671 1.400 . S
C671 C670 1.400 . S
C671 C672 1.398 . S
C671 C677 1.491 . S
C672 H663 0.950 . S
C672 C671 1.398 . S
C672 C673 1.391 . S
C673 H661 0.950 . S
C673 C669 1.393 . S
C673 C672 1.391 . S
C674 H664 0.950 . S
C674 C675 1.386 . S
C674 C676 1.391 . S
C675 C674 1.386 . S
C675 C679 1.393 . S
C676 H665 0.950 . S
C676 C674 1.391 . S
C676 C677 1.400 . S
C677 C671 1.491 . S
C677 C676 1.400 . S
C677 C678 1.398 . S
C678 H666 0.950 . S
C678 C677 1.398 . S
C678 C679 1.391 . S
C679 H667 0.950 . S
C679 C675 1.393 . S
C679 C678 1.391 . S
H680 C688 0.950 . S
H681 C693 0.950 . S
H682 C690 0.950 . S
H683 C692 0.950 . S
H684 C694 0.950 . S
H685 C696 0.950 . S
H686 C698 0.950 . S
H687 C699 0.950 . S
C688 H680 0.950 . S
C688 C689 1.386 . S
C688 C690 1.391 . S
C689 C688 1.386 . S
C689 C693 1.393 . S
C690 H682 0.950 . S
C690 C688 1.391 . S
C690 C691 1.400 . S
C691 C690 1.400 . S
C691 C692 1.398 . S
C691 C697 1.491 . S
C692 H683 0.950 . S
C692 C691 1.398 . S
C692 C693 1.391 . S
C693 H681 0.950 . S
C693 C689 1.393 . S
C693 C692 1.391 . S
C694 H684 0.950 . S
C694 C695 1.386 . S
C694 C696 1.391 . S
C695 C694 1.386 . S
C695 C699 1.393 . S
C696 H685 0.950 . S
C696 C694 1.391 . S
C696 C697 1.400 . S
C697 C691 1.491 . S
C697 C696 1.400 . S
C697 C698 1.398 . S
C698 H686 0.950 . S
C698 C697 1.398 . S
C698 C699 1.391 . S
C699 H687 0.950 . S
C699 C695 1.393 . S
C699 C698 1.391 . S
H700 C708 0.950 . S
H701 C713 0.950 . S
H702 C710 0.950 . S
H703 C712 0.950 . S
H704 C714 0.950 . S
H705 C716 0.950 . S
H706 C718 0.950 . S
H707 C719 0.950 . S
C708 H700 0.950 . S
C708 C709 1.386 . S
C708 C710 1.391 . S
C709 C708 1.386 . S
C709 C713 1.393 . S
C710 H702 0.950 . S
C710 C708 1.391 . S
C710 C711 1.400 . S
C711 C710 1.400 . S
C711 C712 1.398 . S
C711 C717 1.491 . S
C712 H703 0.950 . S
C712 C711 1.398 . S
C712 C713 1.391 . S
C713 H701 0.950 . S
C713 C709 1.393 . S
C713 C712 1.391 . S
C714 H704 0.950 . S
C714 C715 1.386 . S
C714 C716 1.391 . S
C715 C714 1.386 . S
C715 C719 1.393 . S
C716 H705 0.950 . S
C716 C714 1.391 . S
C716 C717 1.400 . S
C717 C711 1.491 . S
C717 C716 1.400 . S
C717 C718 1.398 . S
C718 H706 0.950 . S
C718 C717 1.398 . S
C718 C719 1.391 . S
C719 H707 0.950 . S
C719 C715 1.393 . S
C719 C718 1.391 . S
C249 C7 1.466 . S
C255 C90 1.406 . S
C269 C37 1.492 . S
C275 C109 1.400 . S
C289 C54 1.201 . S
C295 C132 1.185 . S
C315 C151 1.223 . S
C309 C87 1.224 . S
C335 C166 1.350 . S
C329 C30 1.440 . S
C349 C51 1.228 . S
C355 C189 1.235 . S
C369 C84 1.245 . S
C375 C208 1.221 . S
C389 C10 1.456 . S
C395 C223 1.350 . S
C409 C59 1.306 . S
C415 C227 1.289 . S
C435 C170 1.134 . S
C429 C74 1.174 . S
C455 C185 1.310 . S
C449 C18 1.423 . S
C469 C32 1.529 . S
C475 C204 1.424 . S
C495 C113 1.269 . S
C489 C73 1.297 . S
C509 C15 1.532 . S
C515 C128 1.441 . S
C535 C147 1.375 . S
C529 C43 1.455 . S
C555 C94 1.118 . S
C549 C62 1.157 . S
C575 C213 1.365 . S
C569 C21 1.454 . S
C595 C232 1.351 . S
C589 C29 1.459 . S
C609 C52 1.335 . S
C615 C175 1.270 . S
C635 C194 1.270 . S
C629 C81 1.368 . S
C655 C137 1.340 . S
C649 C40 1.422 . S
C669 C65 1.384 . S
C675 C156 1.258 . S
C695 C99 1.265 . S
C689 C76 1.330 . S
C715 C118 1.351 . S
C709 C8 1.471 . S
