# Generated by pormake.
# Topology zzz, (3,6)-cn, num edge types: 1
# Building blocks:
#     Node 0, Type 0, BuildingBlock: BETDIP_clean_linker_0, # of connection points: 3
#     Node 1, Type 0, BuildingBlock: BETDIP_clean_linker_0, # of connection points: 3
#     Node 2, Type 0, BuildingBlock: BETDIP_clean_linker_0, # of connection points: 3
#     Node 3, Type 0, BuildingBlock: BETDIP_clean_linker_0, # of connection points: 3
#     Node 4, Type 0, BuildingBlock: BETDIP_clean_linker_0, # of connection points: 3
#     Node 5, Type 0, BuildingBlock: BETDIP_clean_linker_0, # of connection points: 3
#     Node 6, Type 0, BuildingBlock: BETDIP_clean_linker_0, # of connection points: 3
#     Node 7, Type 0, BuildingBlock: BETDIP_clean_linker_0, # of connection points: 3
#     Node 8, Type 1, BuildingBlock: VOLQOD_clean_sbu_1, # of connection points: 6
#     Node 9, Type 1, BuildingBlock: VOLQOD_clean_sbu_1, # of connection points: 6
#     Node 10, Type 1, BuildingBlock: VOLQOD_clean_sbu_1, # of connection points: 6
#     Node 11, Type 1, BuildingBlock: VOLQOD_clean_sbu_1, # of connection points: 6
#     Edge 12, Type (0, 1), BuildingBlock: AJUNOK_clean_linker_0, # of connection points: 2
#     Edge 13, Type (0, 1), BuildingBlock: AJUNOK_clean_linker_0, # of connection points: 2
#     Edge 14, Type (0, 1), BuildingBlock: AJUNOK_clean_linker_0, # of connection points: 2
#     Edge 15, Type (0, 1), BuildingBlock: AJUNOK_clean_linker_0, # of connection points: 2
#     Edge 16, Type (0, 1), BuildingBlock: AJUNOK_clean_linker_0, # of connection points: 2
#     Edge 17, Type (0, 1), BuildingBlock: AJUNOK_clean_linker_0, # of connection points: 2
#     Edge 18, Type (0, 1), BuildingBlock: AJUNOK_clean_linker_0, # of connection points: 2
#     Edge 19, Type (0, 1), BuildingBlock: AJUNOK_clean_linker_0, # of connection points: 2
#     Edge 20, Type (0, 1), BuildingBlock: AJUNOK_clean_linker_0, # of connection points: 2
#     Edge 21, Type (0, 1), BuildingBlock: AJUNOK_clean_linker_0, # of connection points: 2
#     Edge 22, Type (0, 1), BuildingBlock: AJUNOK_clean_linker_0, # of connection points: 2
#     Edge 23, Type (0, 1), BuildingBlock: AJUNOK_clean_linker_0, # of connection points: 2
#     Edge 24, Type (0, 1), BuildingBlock: AJUNOK_clean_linker_0, # of connection points: 2
#     Edge 25, Type (0, 1), BuildingBlock: AJUNOK_clean_linker_0, # of connection points: 2
#     Edge 26, Type (0, 1), BuildingBlock: AJUNOK_clean_linker_0, # of connection points: 2
#     Edge 27, Type (0, 1), BuildingBlock: AJUNOK_clean_linker_0, # of connection points: 2
#     Edge 28, Type (0, 1), BuildingBlock: AJUNOK_clean_linker_0, # of connection points: 2
#     Edge 29, Type (0, 1), BuildingBlock: AJUNOK_clean_linker_0, # of connection points: 2
#     Edge 30, Type (0, 1), BuildingBlock: AJUNOK_clean_linker_0, # of connection points: 2
#     Edge 31, Type (0, 1), BuildingBlock: AJUNOK_clean_linker_0, # of connection points: 2
#     Edge 32, Type (0, 1), BuildingBlock: AJUNOK_clean_linker_0, # of connection points: 2
#     Edge 33, Type (0, 1), BuildingBlock: AJUNOK_clean_linker_0, # of connection points: 2
#     Edge 34, Type (0, 1), BuildingBlock: AJUNOK_clean_linker_0, # of connection points: 2
#     Edge 35, Type (0, 1), BuildingBlock: AJUNOK_clean_linker_0, # of connection points: 2
# Relax obj value: 0.187
# Max RMSD: 0.233
# Mean RMSD: 0.111
data_MOF--net-zzz--node1-VOLQOD_clean_sbu_1--node2-BETDIP_clean_linker_0--edge1-AJUNOK_clean_linker_0
_symmetry_space_group_name_H-M    P1
_symmetry_Int_Tables_number       1
_symmetry_cell_setting            triclinic
loop_
_symmetry_equiv_pos_as_xyz
'x, y, z'
_cell_length_a     38.110333
_cell_length_b     37.937343
_cell_length_c     13.082369
_cell_angle_alpha  90.445095
_cell_angle_beta   89.508698
_cell_angle_gamma 90.794956
loop_
_atom_site_label
_atom_site_type_symbol
_atom_site_fract_x
_atom_site_fract_y
_atom_site_fract_z
_atom_type_partial_charge
H0 H 0.77876 0.56011 0.30213 0.0
H1 H 0.7892 0.50709 0.01018 0.0
H2 H 0.87856 0.52002 0.20432 0.0
H3 H 0.7518 0.56891 -0.00856 0.0
C4 C 0.73308 0.55365 0.0368 0.0
C5 C 0.79471 0.54659 0.24564 0.0
C6 C 0.83075 0.54207 0.26224 0.0
C7 C 0.77972 0.53454 0.15336 0.0
C8 C 0.80062 0.51657 0.08098 0.0
C9 C 0.83615 0.51066 0.1006 0.0
C10 C 0.85079 0.52373 0.19043 0.0
N11 N 0.74378 0.54056 0.13298 0.0
H12 H 1.00303 0.75991 0.27659 0.0
H13 H 0.0545 0.80068 0.00675 0.0
H14 H 0.04951 0.86355 0.27964 0.0
H15 H 0.02214 0.75895 0.93288 0.0
C16 C 0.02401 0.7362 0.98215 0.0
C17 C 0.0188 0.78013 0.23942 0.0
C18 C 0.02507 0.81249 0.28934 0.0
C19 C 0.03115 0.77475 0.1387 0.0
C20 C 0.04763 0.80318 0.08665 0.0
C21 C 0.05319 0.83581 0.13638 0.0
C22 C 0.04516 0.83853 0.24049 0.0
N23 N 0.02498 0.74139 0.09015 0.0
H24 H 0.75361 0.99029 0.24992 0.0
H25 H 0.71514 0.0479 -0.00549 0.0
H26 H 0.65658 0.04576 0.27599 0.0
H27 H 0.77221 0.06141 0.96738 0.0
C28 C 0.78615 0.03772 -0.01262 0.0
C29 C 0.73489 0.00845 0.21865 0.0
C30 C 0.70407 0.01626 0.27323 0.0
C31 C 0.74085 0.02329 0.12168 0.0
C32 C 0.71338 0.04186 0.07496 0.0
C33 C 0.68221 0.0492 0.1294 0.0
C34 C 0.68018 0.03985 0.23243 0.0
N35 N 0.77317 0.01666 0.0695 0.0
H36 H 0.5397 0.74026 0.2421 0.0
H37 H 0.45489 0.73124 0.02717 0.0
H38 H 0.48415 0.64217 0.20595 0.0
H39 H 0.50114 0.75591 0.93049 0.0
C40 C 0.50626 0.77839 0.98046 0.0
C41 C 0.51825 0.72522 0.20872 0.0
C42 C 0.51247 0.68997 0.23665 0.0
C43 C 0.49811 0.73991 0.13069 0.0
C44 C 0.47061 0.71984 0.0867 0.0
C45 C 0.46578 0.68409 0.11066 0.0
C46 C 0.48621 0.66998 0.18833 0.0
N47 N 0.50828 0.77291 0.08781 0.0
H48 H 0.26231 0.48856 0.04868 0.0
H49 H 0.2538 0.55436 0.31781 0.0
H50 H 0.16434 0.53651 0.12649 0.0
H51 H 0.27921 0.4994 0.37514 0.0
C52 C 0.30185 0.50195 0.3244 0.0
C53 C 0.24732 0.50619 0.09718 0.0
C54 C 0.21206 0.51311 0.07471 0.0
C55 C 0.26234 0.52057 0.18658 0.0
C56 C 0.24218 0.54293 0.24977 0.0
C57 C 0.20633 0.54767 0.23134 0.0
C58 C 0.19215 0.53386 0.14131 0.0
N59 N 0.29601 0.50951 0.21933 0.0
H60 H 0.06025 0.24983 0.05174 0.0
H61 H 1.00178 0.21502 0.31666 0.0
H62 H 0.00941 0.14812 0.05217 0.0
H63 H 0.97997 0.27257 0.29903 0.0
C64 C 1.00507 0.28644 0.29494 0.0
C65 C 0.04383 0.23033 0.08968 0.0
C66 C 0.03749 0.19731 0.04318 0.0
C67 C 0.02819 0.23798 0.1855 0.0
C68 C 0.00983 0.21087 0.23804 0.0
C69 C 1.0037 0.17795 0.19107 0.0
C70 C 0.01514 0.17296 0.09081 0.0
N71 N 0.0317 0.27237 0.22975 0.0
H72 H 0.26399 0.02854 0.02747 0.0
H73 H 0.29242 0.98519 0.32045 0.0
H74 H 0.37169 0.00748 0.09761 0.0
H75 H 0.23954 0.95961 0.3103 0.0
C76 C 0.22336 0.98067 0.28182 0.0
C77 C 0.28348 0.01878 0.07956 0.0
C78 C 0.31937 0.02049 0.05281 0.0
C79 C 0.27303 1.00441 0.1749 0.0
C80 C 0.29912 0.99337 0.24364 0.0
C81 C 0.33451 0.9948 0.21522 0.0
C82 C 0.34406 1.00689 0.11908 0.0
N83 N 0.23672 1.00303 0.20296 0.0
H84 H 0.49005 0.26453 0.06094 0.0
H85 H 0.54438 0.28083 0.34694 0.0
H86 H 0.51529 0.36923 0.16842 0.0
H87 H 0.567 0.22868 0.30473 0.0
C88 C 0.54339 0.2142 0.28309 0.0
C89 C 0.5011 0.28192 0.11871 0.0
C90 C 0.49987 0.31876 0.10641 0.0
C91 C 0.51758 0.26769 0.20513 0.0
C92 C 0.53263 0.29079 0.27815 0.0
C93 C 0.53237 0.3272 0.26351 0.0
C94 C 0.51557 0.34086 0.17899 0.0
N95 N 0.51837 0.23046 0.21899 0.0
O96 O 0.09453 1.00497 0.6065 0.0
Zn97 Zn 0.05731 0.01182 0.71663 0.0
O98 O 0.00973 1.0051 0.65902 0.0
Zn99 Zn 0.98317 0.04794 0.67494 0.0
Zn100 Zn 0.01314 0.99311 0.51389 0.0
Zn101 Zn 0.98331 0.96788 0.72942 0.0
O102 O 0.93771 0.0406 0.75036 0.0
O103 O 0.9354 0.98349 0.78436 0.0
O104 O 0.06387 0.06224 0.77433 0.0
O105 O 0.01175 0.08515 0.74384 0.0
O106 O 0.97252 0.06898 0.54119 0.0
O107 O 0.98974 0.02924 0.42711 0.0
O108 O 0.99522 0.94357 0.48699 0.0
O109 O 0.06552 0.97502 0.82698 0.0
O110 O 0.97867 0.9242 0.64027 0.0
O111 O 0.01178 0.9517 0.84519 0.0
C112 C 0.09302 0.99886 0.51062 0.0
C113 C 0.92162 0.01395 0.78743 0.0
C114 C 0.97631 0.05894 0.44915 0.0
C115 C 0.04296 0.0883 0.77654 0.0
C116 C 0.98391 0.91903 0.54516 0.0
C117 C 0.04374 0.95429 0.87161 0.0
O118 O 0.06375 0.99414 0.46611 0.0
O119 O 0.51132 0.08826 0.61058 0.0
Zn120 Zn 0.50495 0.05109 0.72071 0.0
O121 O 0.5146 1.00365 0.66302 0.0
Zn122 Zn 0.47411 0.97273 0.68143 0.0
Zn123 Zn 0.52489 1.00653 0.51754 0.0
Zn124 Zn 0.55415 0.98174 0.72895 0.0
O125 O 0.48567 0.92757 0.75058 0.0
O126 O 0.54176 0.93441 0.79211 0.0
O127 O 0.45416 0.05328 0.77658 0.0
O128 O 0.43678 0.99745 0.75887 0.0
O129 O 0.44974 0.96248 0.55121 0.0
O130 O 0.48489 0.9873 0.43588 0.0
O131 O 0.57158 0.9852 0.48019 0.0
O132 O 0.54035 0.06319 0.83332 0.0
O133 O 0.59536 0.97648 0.63226 0.0
O134 O 0.57097 0.01356 0.83789 0.0
C135 C 0.52047 0.08643 0.51666 0.0
C136 C 0.51336 0.9163 0.79212 0.0
C137 C 0.45636 0.97158 0.46006 0.0
C138 C 0.43074 0.02903 0.78627 0.0
C139 C 0.59764 0.977 0.53521 0.0
C140 C 0.56475 0.04452 0.87008 0.0
O141 O 0.52731 0.05709 0.47382 0.0
O142 O 0.43534 0.49792 0.63117 0.0
Zn143 Zn 0.47146 0.50034 0.74392 0.0
O144 O 0.51836 0.51093 0.68308 0.0
Zn145 Zn 0.55181 0.47605 0.72658 0.0
Zn146 Zn 0.51564 0.51122 0.5341 0.0
Zn147 Zn 0.53653 0.55631 0.72677 0.0
O148 O 0.592 0.49609 0.80967 0.0
O149 O 0.58077 0.55331 0.81025 0.0
O150 O 0.47088 0.45237 0.81749 0.0
O151 O 0.52742 0.43944 0.80796 0.0
O152 O 0.56888 0.44725 0.60874 0.0
O153 O 0.53903 0.46841 0.47802 0.0
O154 O 0.53627 0.55582 0.47329 0.0
O155 O 0.45556 0.54097 0.83725 0.0
O156 O 0.54612 0.58907 0.61038 0.0
O157 O 0.49942 0.57904 0.80781 0.0
C158 C 0.43627 0.50189 0.53439 0.0
C159 C 0.59963 0.52755 0.83683 0.0
C160 C 0.5595 0.44586 0.51583 0.0
C161 C 0.4962 0.43151 0.83446 0.0
C162 C 0.54581 0.58502 0.51394 0.0
C163 C 0.46961 0.57155 0.84681 0.0
O164 O 0.46513 0.50783 0.4875 0.0
O165 O 0.97066 0.55661 0.52234 0.0
Zn166 Zn 0.01812 0.55208 0.59443 0.0
O167 O 0.02109 0.50659 0.66797 0.0
Zn168 Zn 0.02448 0.51593 0.8152 0.0
Zn169 Zn 0.98047 0.47752 0.63885 0.0
Zn170 Zn 0.06043 0.47837 0.62151 0.0
O171 O 0.07081 0.49784 0.86852 0.0
O172 O 0.09481 0.47082 0.73405 0.0
O173 O 0.0198 0.59281 0.69447 0.0
O174 O 0.02475 0.56869 0.84695 0.0
O175 O 0.98086 0.49656 0.88618 0.0
O176 O 0.95346 0.46638 0.76352 0.0
O177 O 0.99036 0.43301 0.56058 0.0
O178 O 0.06143 0.55935 0.50242 0.0
O179 O 0.04813 0.43211 0.54718 0.0
O180 O 0.08796 0.50843 0.52939 0.0
C181 C 0.94427 0.53545 0.52305 0.0
C182 C 0.09597 0.48096 0.8268 0.0
C183 C 0.95518 0.47755 0.85489 0.0
C184 C 0.02255 0.59592 0.79104 0.0
C185 C 0.01818 0.41806 0.52956 0.0
C186 C 0.0876 0.539 0.49074 0.0
O187 O 0.94628 0.50511 0.56234 0.0
C188 C 0.18716 0.97733 0.44013 0.0
C189 C 0.18997 0.98742 0.33714 0.0
C190 C 0.15602 0.98198 0.49611 0.0
C191 C 0.12607 0.99597 0.4504 0.0
H192 H 0.20935 0.96578 0.47807 0.0
H193 H 0.15516 0.97369 0.5752 0.0
S194 S 0.1196 0.02642 0.18216 0.0
N195 N 0.16036 0.01257 0.19163 0.0
N196 N 0.10126 0.02024 0.29565 0.0
C197 C 0.12846 1.00615 0.34711 0.0
C198 C 0.16057 1.0022 0.29077 0.0
C199 C 0.54306 0.18074 0.44523 0.0
C200 C 0.53494 0.18186 0.34071 0.0
C201 C 0.53715 0.15011 0.50244 0.0
C202 C 0.52411 0.11911 0.45613 0.0
H203 H 0.55406 0.20382 0.48313 0.0
H204 H 0.54391 0.15038 0.58273 0.0
S205 S 0.4992 0.10836 0.18364 0.0
N206 N 0.5126 0.14986 0.19317 0.0
N207 N 0.50321 0.09149 0.29897 0.0
C208 C 0.51598 0.1199 0.35124 0.0
C209 C 0.52093 0.15151 0.29389 0.0
C210 C 0.33882 0.50646 0.47865 0.0
C211 C 0.337 0.50162 0.37219 0.0
C212 C 0.37092 0.50628 0.52978 0.0
C213 C 0.40272 0.5011 0.47677 0.0
H214 H 0.31512 0.51074 0.52313 0.0
H215 H 0.3707 0.51064 0.61177 0.0
S216 S 0.4119 0.48318 0.19812 0.0
N217 N 0.3694 0.48914 0.21563 0.0
N218 N 0.43002 0.48856 0.31159 0.0
C219 C 0.40127 0.49551 0.37 0.0
C220 C 0.36835 0.49583 0.31776 0.0
C221 C 0.04083 0.33924 0.35708 0.0
C222 C 1.00903 0.31993 0.35418 0.0
C223 C 0.04386 0.37069 0.41485 0.0
C224 C 0.01517 0.38409 0.47128 0.0
H225 H 0.0635 0.33006 0.31473 0.0
H226 H 0.06877 0.38478 0.41427 0.0
S227 S 0.92642 0.34245 0.4905 0.0
N228 N 0.94864 0.31596 0.41406 0.0
N229 N 0.95408 0.37452 0.52155 0.0
C230 C 0.98335 0.36466 0.46911 0.0
C231 C 0.98039 0.33278 0.41092 0.0
C232 C 0.84048 1.00115 0.95791 0.0
C233 C 0.82008 0.03063 0.93443 0.0
C234 C 0.87297 0.99537 0.90868 0.0
C235 C 0.88634 0.01904 0.83495 0.0
H236 H 0.83152 0.98253 0.01511 0.0
H237 H 0.88801 0.97262 0.93013 0.0
S238 S 0.84175 0.09905 0.74189 0.0
N239 N 0.81476 0.08275 0.82936 0.0
N240 N 0.87541 0.07218 0.73766 0.0
C241 C 0.8657 0.04821 0.80969 0.0
C242 C 0.83272 0.0539 0.85915 0.0
C243 C 0.52579 0.84212 0.98164 0.0
C244 C 0.50822 0.81371 0.93377 0.0
C245 C 0.52821 0.87525 0.93431 0.0
C246 C 0.51233 0.88109 0.83925 0.0
H247 H 0.53809 0.83864 0.05514 0.0
H248 H 0.54195 0.89658 0.97316 0.0
S249 S 0.46369 0.81509 0.68289 0.0
N250 N 0.47548 0.79334 0.78558 0.0
N251 N 0.47898 0.85568 0.69876 0.0
C252 C 0.49465 0.85288 0.79126 0.0
C253 C 0.4929 0.81915 0.83803 0.0
C254 C 0.68472 0.571 0.9223 0.0
C255 C 0.69735 0.54762 -0.00422 0.0
C256 C 0.65245 0.56493 0.87415 0.0
C257 C 0.63207 0.53465 0.89548 0.0
H258 H 0.70013 0.59404 0.90091 0.0
H259 H 0.64403 0.58346 0.81704 0.0
S260 S 0.65275 0.4657 0.08438 0.0
N261 N 0.68629 0.49367 0.09078 0.0
N262 N 0.62611 0.48164 -0.00226 0.0
C263 C 0.64411 0.51128 0.96999 0.0
C264 C 0.67663 0.51792 0.02092 0.0
C265 C 0.02435 0.6696 -0.0072 0.0
C266 C 0.02353 0.70048 0.93398 0.0
C267 C 0.02409 0.63601 0.9462 0.0
C268 C 0.02301 0.63191 0.83885 0.0
H269 H 0.02519 0.67129 0.07543 0.0
H270 H 0.02467 0.6131 -0.00505 0.0
S271 S 0.02112 0.70498 0.65089 0.0
N272 N 0.02195 0.72499 0.76329 0.0
N273 N 0.02148 0.6624 0.67558 0.0
C274 C 0.0223 0.6628 0.77951 0.0
C275 C 0.02256 0.69687 0.82702 0.0
C276 C 1.00788 0.11411 0.23183 0.0
C277 C 0.99098 0.14654 0.24864 0.0
C278 C 0.99957 0.08445 0.28944 0.0
C279 C 0.97494 0.08613 0.36948 0.0
H280 H 0.0293 0.11182 0.17729 0.0
H281 H 0.01499 0.06101 0.27673 0.0
S282 S 0.91955 0.16273 0.43669 0.0
N283 N 0.94493 0.17704 0.34232 0.0
N284 N 0.93076 0.12142 0.4562 0.0
C285 C 0.95623 0.11757 0.38378 0.0
C286 C 0.96409 0.14779 0.32274 0.0
C287 C 0.37067 0.95474 0.32202 0.0
C288 C 0.363 0.98876 0.28763 0.0
C289 C 0.40171 0.94859 0.37602 0.0
C290 C 0.42612 0.9761 0.39339 0.0
H291 H 0.35308 0.93284 0.30504 0.0
H292 H 0.40683 0.9223 0.40342 0.0
S293 S 0.41562 0.0704 0.32839 0.0
N294 N 0.38023 0.05056 0.2828 0.0
N295 N 0.43886 0.03897 0.38049 0.0
C296 C 0.41804 0.01028 0.36147 0.0
C297 C 0.38633 0.01662 0.30959 0.0
C298 C 0.57031 0.3792 0.3051 0.0
C299 C 0.5474 0.35208 0.33856 0.0
C300 C 0.57691 0.40893 0.36648 0.0
C301 C 0.56132 0.41181 0.46345 0.0
H302 H 0.58108 0.37857 0.22818 0.0
H303 H 0.59248 0.43056 0.33579 0.0
S304 S 0.49952 0.3482 0.58526 0.0
N305 N 0.50984 0.32977 0.47459 0.0
N306 N 0.52233 0.38549 0.59025 0.0
C307 C 0.54011 0.38396 0.49987 0.0
C308 C 0.53323 0.35393 0.43737 0.0
C309 C 0.15011 0.57548 0.29025 0.0
C310 C 0.18139 0.5578 0.3143 0.0
C311 C 0.11984 0.5719 0.35169 0.0
C312 C 0.12027 0.55086 0.43932 0.0
H313 H 0.14803 0.58928 0.21841 0.0
H314 H 0.09551 0.58314 0.32601 0.0
S315 S 0.19769 0.50744 0.55131 0.0
N316 N 0.21222 0.52438 0.44312 0.0
N317 N 0.15615 0.51874 0.5591 0.0
C318 C 0.1526 0.53748 0.47163 0.0
C319 C 0.18311 0.54089 0.40932 0.0
C320 C 0.03572 0.89756 0.10121 0.0
C321 C 0.05801 0.86912 0.07766 0.0
C322 C 0.03437 0.9272 0.0393 0.0
C323 C 0.05505 0.9298 0.95075 0.0
H324 H 0.0171 0.89606 0.16411 0.0
H325 H 0.01502 0.94709 0.05678 0.0
S326 S 0.12031 0.86512 0.85866 0.0
N327 N 0.10377 0.84733 0.96379 0.0
N328 N 0.10036 0.90319 0.84505 0.0
C329 C 0.07915 0.903 0.92903 0.0
C330 C 0.08068 0.87253 -0.0073 0.0
C331 C 0.61807 0.03842 0.10262 0.0
C332 C 0.64889 0.05749 0.07557 0.0
C333 C 0.58823 0.03881 0.04186 0.0
C334 C 0.58788 0.05785 0.95081 0.0
H335 H 0.61766 0.02034 0.16625 0.0
H336 H 0.56656 0.02115 0.06087 0.0
S337 S 0.65856 0.11669 0.85239 0.0
N338 N 0.67478 0.10029 0.95842 0.0
N339 N 0.6187 0.09944 0.84107 0.0
C340 C 0.61691 0.07952 0.92683 0.0
C341 C 0.64747 0.07956 -0.01032 0.0
C342 C 0.4562 0.66377 0.93233 0.0
C343 C 0.44855 0.65929 0.0369 0.0
C344 C 0.45794 0.63478 0.86656 0.0
C345 C 0.45226 0.60037 0.90286 0.0
H346 H 0.46571 0.68879 0.90314 0.0
H347 H 0.46787 0.639 0.78963 0.0
S348 S 0.41654 0.57655 0.15731 0.0
N349 N 0.42312 0.61964 0.16395 0.0
N350 N 0.42855 0.56443 0.04062 0.0
C351 C 0.43796 0.59621 0.0011 0.0
C352 C 0.43541 0.62604 0.06801 0.0
C353 C 0.88433 0.46923 0.0571 0.0
C354 C 0.86025 0.49479 0.02498 0.0
C355 C 0.9149 0.46233 0.00041 0.0
C356 C 0.92168 0.48035 0.90934 0.0
H357 H 0.88073 0.45644 0.1303 0.0
H358 H 0.93383 0.444 0.0297 0.0
S359 S 0.8665 0.54812 0.78969 0.0
N360 N 0.84481 0.53681 0.89442 0.0
N361 N 0.90176 0.52333 0.78669 0.0
C362 C 0.8968 0.50415 0.87313 0.0
C363 C 0.86599 0.51135 0.93097 0.0
C364 C 0.03464 0.1832 0.86091 0.0
C365 C 0.05505 0.18415 0.94964 0.0
C366 C 0.03361 0.15298 0.79857 0.0
C367 C 0.05335 0.12292 0.82214 0.0
H368 H 0.01534 0.20342 0.84858 0.0
H369 H 0.01471 0.15202 0.73719 0.0
S370 S 0.11907 0.11714 0.02811 0.0
N371 N 0.10168 0.15648 0.04367 0.0
N372 N 0.09994 0.09957 0.92658 0.0
C373 C 0.07841 0.12615 0.89986 0.0
C374 C 0.07957 0.15713 0.9628 0.0
C375 C 0.3374 0.01175 0.87439 0.0
C376 C 0.334 0.03523 0.95699 0.0
C377 C 0.36773 0.01216 0.81301 0.0
C378 C 0.39562 0.03622 0.83176 0.0
H379 H 0.31901 0.98988 0.86613 0.0
H380 H 0.37057 0.99146 0.75611 0.0
S381 S 0.39484 0.10895 0.02227 0.0
N382 N 0.35718 0.08778 0.04083 0.0
N383 N 0.41438 0.08855 0.92584 0.0
C384 C 0.38997 0.06326 0.90364 0.0
C385 C 0.35884 0.06299 0.96546 0.0
C386 C 0.46229 0.36209 0.01974 0.0
C387 C 0.48843 0.33619 0.01214 0.0
C388 C 0.46303 0.39186 0.95624 0.0
C389 C 0.49036 0.39689 0.88476 0.0
H390 H 0.44357 0.36129 0.08252 0.0
H391 H 0.44403 0.4124 0.96966 0.0
S392 S 0.56117 0.33327 0.82381 0.0
N393 N 0.53855 0.31457 0.91729 0.0
N394 N 0.54128 0.37071 0.80098 0.0
C395 C 0.51436 0.36921 0.86972 0.0
C396 C 0.51285 0.33864 0.93214 0.0
C397 C 0.17138 0.4671 0.00869 0.0
C398 C 0.19278 0.49694 -0.01127 0.0
C399 C 0.14062 0.46045 0.95254 0.0
C400 C 0.13068 0.48343 0.8748 0.0
H401 H 0.17654 0.45089 0.07456 0.0
H402 H 0.12358 0.43859 0.97393 0.0
S403 S 0.17839 0.56397 0.7902 0.0
N404 N 0.20276 0.5482 0.88259 0.0
N405 N 0.14506 0.53602 0.77782 0.0
C406 C 0.15305 0.51186 0.84984 0.0
C407 C 0.18426 0.51843 0.90626 0.0
C408 C 0.97472 0.84558 0.35365 0.0
C409 C 1.00395 0.8249 0.3774 0.0
C410 C 0.96553 0.8746 0.41478 0.0
C411 C 0.98418 0.88273 0.50407 0.0
H412 H 0.96226 0.84257 0.27985 0.0
H413 H 0.94588 0.89252 0.38732 0.0
S414 S 0.0573 0.8319 0.61182 0.0
N415 N 0.04787 0.81131 0.50349 0.0
N416 N 0.02906 0.86442 0.6225 0.0
C417 C 0.00991 0.85915 0.53644 0.0
C418 C 0.02005 0.83033 0.47231 0.0
C419 C 0.68745 0.00799 0.45513 0.0
C420 C 0.69005 0.99376 0.35593 0.0
C421 C 0.65929 0.99857 0.51983 0.0
C422 C 0.63251 0.9755 0.48568 0.0
H423 H 0.70477 0.02945 0.47809 0.0
H424 H 0.65633 0.01265 0.59172 0.0
S425 S 0.6308 0.92667 0.23983 0.0
N426 N 0.66695 0.95111 0.23376 0.0
N427 N 0.61313 0.93484 0.35316 0.0
C428 C 0.63706 0.95817 0.39166 0.0
C429 C 0.66628 0.96681 0.32753 0.0
C430 C 0.5289 0.67593 0.41452 0.0
C431 C 0.5349 0.6713 0.3094 0.0
C432 C 0.53653 0.64896 0.48334 0.0
C433 C 0.54971 0.61641 0.44837 0.0
H434 H 0.51481 0.69875 0.44223 0.0
H435 H 0.52852 0.6523 0.56245 0.0
S436 S 0.5774 0.595 0.18319 0.0
N437 N 0.561 0.63498 0.17611 0.0
N438 N 0.5744 0.58385 0.30482 0.0
C439 C 0.5598 0.61337 0.34533 0.0
C440 C 0.55273 0.64105 0.27594 0.0
C441 C 0.87857 0.57605 0.34423 0.0
C442 C 0.84931 0.5532 0.35564 0.0
C443 C 0.90866 0.5721 0.40401 0.0
C444 C 0.91027 0.54522 0.47705 0.0
H445 H 0.87992 0.59393 0.28005 0.0
H446 H 0.93168 0.58808 0.38655 0.0
S447 S 0.83666 0.48528 0.55395 0.0
N448 N 0.82098 0.50812 0.45811 0.0
N449 N 0.87698 0.50044 0.57151 0.0
C450 C 0.87921 0.5257 0.4985 0.0
C451 C 0.84868 0.53002 0.43808 0.0
loop_
_geom_bond_atom_site_label_1
_geom_bond_atom_site_label_2
_geom_bond_distance
_geom_bond_site_symmetry_2
_ccdc_geom_bond_type
H0 C5 0.930 . S
H1 C8 0.930 . S
H2 C10 0.930 . S
H3 C4 1.016 . S
C4 H3 1.016 . S
C4 N11 1.286 1_556 S
C5 H0 0.930 . S
C5 C6 1.397 . S
C5 C7 1.361 . S
C6 C5 1.397 . S
C6 C10 1.390 . S
C7 C5 1.361 . S
C7 C8 1.393 1_554 S
C7 N11 1.413 . S
C8 H1 0.930 . S
C8 C7 1.393 1_556 S
C8 C9 1.399 . S
C9 C8 1.399 . S
C9 C10 1.381 1_556 S
C10 H2 0.930 . S
C10 C6 1.390 . S
C10 C9 1.381 1_554 S
N11 C4 1.286 1_554 S
N11 C7 1.413 . S
H12 C17 0.930 . S
H13 C20 0.930 1_556 S
H14 C22 0.930 . S
H15 C16 1.016 1_556 S
C16 H15 1.016 1_554 S
C16 N23 1.286 1_655 S
C17 H12 0.930 . S
C17 C18 1.397 . S
C17 C19 1.361 . S
C18 C17 1.397 . S
C18 C22 1.390 1_455 S
C19 C17 1.361 . S
C19 C20 1.393 . S
C19 N23 1.413 . S
C20 H13 0.930 1_554 S
C20 C19 1.393 . S
C20 C21 1.399 . S
C21 C20 1.399 . S
C21 C22 1.381 1_455 S
C22 H14 0.930 . S
C22 C18 1.390 1_655 S
C22 C21 1.381 1_655 S
N23 C16 1.286 1_455 S
N23 C19 1.413 . S
H24 C29 0.930 . S
H25 C32 0.930 . S
H26 C34 0.930 . S
H27 C28 1.016 . S
C28 H27 1.016 . S
C28 N35 1.286 1_566 S
C29 H24 0.930 . S
C29 C30 1.397 . S
C29 C31 1.361 . S
C30 C29 1.397 . S
C30 C34 1.390 1_545 S
C31 C29 1.361 . S
C31 C32 1.393 1_554 S
C31 N35 1.413 . S
C32 H25 0.930 . S
C32 C31 1.393 1_556 S
C32 C33 1.399 . S
C33 C32 1.399 . S
C33 C34 1.377 1_546 S
C34 H26 0.930 . S
C34 C30 1.390 1_565 S
C34 C33 1.377 1_564 S
N35 C28 1.286 1_544 S
N35 C31 1.413 . S
H36 C41 0.930 . S
H37 C44 0.930 . S
H38 C46 0.930 . S
H39 C40 1.016 . S
C40 H39 1.016 . S
C40 N47 1.286 1_556 S
C41 H36 0.930 . S
C41 C42 1.397 . S
C41 C43 1.361 . S
C42 C41 1.397 . S
C42 C46 1.390 . S
C43 C41 1.361 . S
C43 C44 1.393 1_554 S
C43 N47 1.413 . S
C44 H37 0.930 . S
C44 C43 1.393 1_556 S
C44 C45 1.399 . S
C45 C44 1.399 . S
C45 C46 1.381 1_556 S
C46 H38 0.930 . S
C46 C42 1.390 . S
C46 C45 1.381 1_554 S
N47 C40 1.286 1_554 S
N47 C43 1.413 . S
H48 C53 0.930 . S
H49 C56 0.930 . S
H50 C58 0.930 . S
H51 C52 1.016 . S
C52 H51 1.016 . S
C52 N59 1.286 . S
C53 H48 0.930 . S
C53 C54 1.397 . S
C53 C55 1.361 . S
C54 C53 1.397 . S
C54 C58 1.390 . S
C55 C53 1.361 . S
C55 C56 1.393 . S
C55 N59 1.413 . S
C56 H49 0.930 . S
C56 C55 1.393 . S
C56 C57 1.399 . S
C57 C56 1.399 . S
C57 C58 1.381 . S
C58 H50 0.930 . S
C58 C54 1.390 . S
C58 C57 1.381 . S
N59 C52 1.286 . S
N59 C55 1.413 . S
H60 C65 0.930 . S
H61 C68 0.930 . S
H62 C70 0.930 . S
H63 C64 1.016 . S
C64 H63 1.016 . S
C64 N71 1.286 . S
C65 H60 0.930 . S
C65 C66 1.397 . S
C65 C67 1.361 . S
C66 C65 1.397 . S
C66 C70 1.390 . S
C67 C65 1.361 . S
C67 C68 1.393 . S
C67 N71 1.413 . S
C68 H61 0.930 . S
C68 C67 1.393 . S
C68 C69 1.399 . S
C69 C68 1.399 . S
C69 C70 1.381 . S
C70 H62 0.930 . S
C70 C66 1.390 . S
C70 C69 1.381 . S
N71 C64 1.286 . S
N71 C67 1.413 . S
H72 C77 0.930 . S
H73 C80 0.930 . S
H74 C82 0.930 . S
H75 C76 1.007 1_565 S
C76 H75 1.007 1_545 S
C76 N83 1.286 . S
C77 H72 0.930 . S
C77 C78 1.397 . S
C77 C79 1.361 . S
C78 C77 1.397 . S
C78 C82 1.390 . S
C79 C77 1.361 . S
C79 C80 1.393 . S
C79 N83 1.413 . S
C80 H73 0.930 . S
C80 C79 1.393 . S
C80 C81 1.399 . S
C81 C80 1.399 . S
C81 C82 1.381 . S
C82 H74 0.930 . S
C82 C78 1.390 . S
C82 C81 1.381 . S
N83 C76 1.286 . S
N83 C79 1.413 . S
H84 C89 0.930 . S
H85 C92 0.930 . S
H86 C94 0.930 . S
H87 C88 1.016 . S
C88 H87 1.016 . S
C88 N95 1.286 . S
C89 H84 0.930 . S
C89 C90 1.397 . S
C89 C91 1.361 . S
C90 C89 1.397 . S
C90 C94 1.390 . S
C91 C89 1.361 . S
C91 C92 1.393 . S
C91 N95 1.413 . S
C92 H85 0.930 . S
C92 C91 1.393 . S
C92 C93 1.399 . S
C93 C92 1.399 . S
C93 C94 1.381 . S
C94 H86 0.930 . S
C94 C90 1.390 . S
C94 C93 1.381 . S
N95 C88 1.286 . S
N95 C91 1.413 . S
O96 Zn97 1.953 . S
O96 C112 1.225 1_545 S
Zn97 O96 1.953 . S
Zn97 O98 1.948 1_545 S
Zn97 O104 1.919 . S
Zn97 O109 1.924 1_545 S
O98 Zn97 1.948 1_565 S
O98 Zn99 1.899 1_465 S
O98 Zn100 1.952 . S
O98 Zn101 1.967 1_455 S
Zn99 O98 1.899 1_645 S
Zn99 O102 1.933 . S
Zn99 O105 1.941 1_655 S
Zn99 O106 1.965 . S
Zn100 O98 1.952 . S
Zn100 O107 1.938 1_565 S
Zn100 O108 1.906 . S
Zn100 O118 1.953 . S
Zn101 O98 1.967 1_655 S
Zn101 O103 1.932 . S
Zn101 O110 1.977 . S
Zn101 O111 1.910 1_655 S
O102 Zn99 1.933 . S
O102 C113 1.226 . S
O103 Zn101 1.932 . S
O103 C113 1.307 1_565 S
O104 Zn97 1.919 . S
O104 C115 1.253 . S
O105 Zn99 1.941 1_455 S
O105 C115 1.283 . S
O106 Zn99 1.965 . S
O106 C114 1.303 1_655 S
O107 Zn100 1.938 1_545 S
O107 C114 1.247 . S
O108 Zn100 1.906 . S
O108 C116 1.304 1_455 S
O109 Zn97 1.924 1_565 S
O109 C117 1.311 . S
O110 Zn101 1.977 . S
O110 C116 1.272 . S
O111 Zn101 1.910 1_455 S
O111 C117 1.231 . S
C112 O96 1.225 1_565 S
C112 O118 1.298 . S
C113 O102 1.226 . S
C113 O103 1.307 1_545 S
C114 O106 1.303 1_455 S
C114 O107 1.247 . S
C115 O104 1.253 . S
C115 O105 1.283 . S
C116 O108 1.304 1_655 S
C116 O110 1.272 . S
C117 O109 1.311 . S
C117 O111 1.231 . S
O118 Zn100 1.953 . S
O118 C112 1.298 . S
O119 Zn120 1.953 . S
O119 C135 1.225 . S
Zn120 O119 1.953 . S
Zn120 O121 1.949 . S
Zn120 O127 1.919 . S
Zn120 O132 1.924 . S
O121 Zn120 1.949 . S
O121 Zn122 1.923 1_545 S
O121 Zn123 1.950 . S
O121 Zn124 1.945 1_545 S
Zn122 O121 1.923 1_565 S
Zn122 O125 1.933 . S
Zn122 O128 1.941 . S
Zn122 O129 1.965 . S
Zn123 O121 1.950 . S
Zn123 O130 1.938 . S
Zn123 O131 1.906 . S
Zn123 O141 1.953 . S
Zn124 O121 1.945 1_565 S
Zn124 O126 1.932 . S
Zn124 O133 1.977 . S
Zn124 O134 1.910 1_565 S
O125 Zn122 1.933 . S
O125 C136 1.226 . S
O126 Zn124 1.932 . S
O126 C136 1.307 . S
O127 Zn120 1.919 . S
O127 C138 1.253 . S
O128 Zn122 1.941 . S
O128 C138 1.283 1_565 S
O129 Zn122 1.965 . S
O129 C137 1.303 1_565 S
O130 Zn123 1.938 . S
O130 C137 1.247 . S
O131 Zn123 1.906 . S
O131 C139 1.304 1_545 S
O132 Zn120 1.924 . S
O132 C140 1.311 . S
O133 Zn124 1.977 . S
O133 C139 1.272 . S
O134 Zn124 1.910 1_545 S
O134 C140 1.231 . S
C135 O119 1.225 . S
C135 O141 1.298 . S
C136 O125 1.226 . S
C136 O126 1.307 . S
C137 O129 1.303 1_545 S
C137 O130 1.247 . S
C138 O127 1.253 . S
C138 O128 1.283 1_545 S
C139 O131 1.304 1_565 S
C139 O133 1.272 . S
C140 O132 1.311 . S
C140 O134 1.231 . S
O141 Zn123 1.953 . S
O141 C135 1.298 . S
O142 Zn143 1.953 . S
O142 C158 1.225 . S
Zn143 O142 1.953 . S
Zn143 O144 1.949 . S
Zn143 O150 1.919 . S
Zn143 O155 1.924 . S
O144 Zn143 1.949 . S
O144 Zn145 1.923 . S
O144 Zn146 1.950 . S
O144 Zn147 1.945 . S
Zn145 O144 1.923 . S
Zn145 O148 1.933 . S
Zn145 O151 1.941 . S
Zn145 O152 1.965 . S
Zn146 O144 1.950 . S
Zn146 O153 1.938 . S
Zn146 O154 1.906 . S
Zn146 O164 1.953 . S
Zn147 O144 1.945 . S
Zn147 O149 1.932 . S
Zn147 O156 1.977 . S
Zn147 O157 1.910 . S
O148 Zn145 1.933 . S
O148 C159 1.226 . S
O149 Zn147 1.932 . S
O149 C159 1.307 . S
O150 Zn143 1.919 . S
O150 C161 1.253 . S
O151 Zn145 1.941 . S
O151 C161 1.283 . S
O152 Zn145 1.965 . S
O152 C160 1.303 . S
O153 Zn146 1.938 . S
O153 C160 1.247 . S
O154 Zn146 1.906 . S
O154 C162 1.304 . S
O155 Zn143 1.924 . S
O155 C163 1.311 . S
O156 Zn147 1.977 . S
O156 C162 1.272 . S
O157 Zn147 1.910 . S
O157 C163 1.231 . S
C158 O142 1.225 . S
C158 O164 1.298 . S
C159 O148 1.226 . S
C159 O149 1.307 . S
C160 O152 1.303 . S
C160 O153 1.247 . S
C161 O150 1.253 . S
C161 O151 1.283 . S
C162 O154 1.304 . S
C162 O156 1.272 . S
C163 O155 1.311 . S
C163 O157 1.231 . S
O164 Zn146 1.953 . S
O164 C158 1.298 . S
O165 Zn166 1.953 1_655 S
O165 C181 1.225 . S
Zn166 O165 1.953 1_455 S
Zn166 O167 1.949 . S
Zn166 O173 1.919 . S
Zn166 O178 1.924 . S
O167 Zn166 1.949 . S
O167 Zn168 1.917 1_455 S
O167 Zn169 1.929 1_455 S
O167 Zn170 1.973 . S
Zn168 O167 1.917 1_655 S
Zn168 O171 1.933 1_655 S
Zn168 O174 1.941 . S
Zn168 O175 1.965 . S
Zn169 O167 1.929 1_655 S
Zn169 O176 1.938 . S
Zn169 O177 1.906 . S
Zn169 O187 1.953 . S
Zn170 O167 1.973 . S
Zn170 O172 1.932 . S
Zn170 O179 1.977 . S
Zn170 O180 1.910 . S
O171 Zn168 1.933 1_455 S
O171 C182 1.226 . S
O172 Zn170 1.932 . S
O172 C182 1.307 . S
O173 Zn166 1.919 . S
O173 C184 1.253 . S
O174 Zn168 1.941 . S
O174 C184 1.283 1_655 S
O175 Zn168 1.965 . S
O175 C183 1.303 . S
O176 Zn169 1.938 . S
O176 C183 1.247 . S
O177 Zn169 1.906 . S
O177 C185 1.304 1_655 S
O178 Zn166 1.924 . S
O178 C186 1.311 . S
O179 Zn170 1.977 . S
O179 C185 1.272 . S
O180 Zn170 1.910 . S
O180 C186 1.231 . S
C181 O165 1.225 . S
C181 O187 1.298 . S
C182 O171 1.226 . S
C182 O172 1.307 . S
C183 O175 1.303 . S
C183 O176 1.247 . S
C184 O173 1.253 . S
C184 O174 1.283 1_455 S
C185 O177 1.304 1_455 S
C185 O179 1.272 . S
C186 O178 1.311 . S
C186 O180 1.231 . S
O187 Zn169 1.953 . S
O187 C181 1.298 . S
C188 C189 1.369 1_565 S
C188 C190 1.419 . S
C188 H192 0.930 . S
C189 C188 1.369 1_545 S
C189 C198 1.429 . S
C190 C188 1.419 . S
C190 C191 1.373 . S
C190 H193 0.929 . S
C191 C190 1.373 . S
C191 C197 1.416 1_565 S
H192 C188 0.930 . S
H193 C190 0.929 . S
S194 N195 1.613 . S
S194 N196 1.610 . S
N195 S194 1.613 . S
N195 C198 1.350 . S
N196 S194 1.610 . S
N196 C197 1.351 . S
C197 C191 1.416 1_545 S
C197 N196 1.351 . S
C197 C198 1.434 . S
C198 C189 1.429 . S
C198 N195 1.350 . S
C198 C197 1.434 . S
C199 C200 1.369 . S
C199 C201 1.419 . S
C199 H203 0.930 . S
C200 C199 1.369 . S
C200 C209 1.429 . S
C201 C199 1.419 . S
C201 C202 1.363 . S
C201 H204 0.929 . S
C202 C201 1.363 . S
C202 C208 1.428 . S
H203 C199 0.930 . S
H204 C201 0.929 . S
S205 N206 1.613 . S
S205 N207 1.610 . S
N206 S205 1.613 . S
N206 C209 1.350 . S
N207 S205 1.610 . S
N207 C208 1.351 . S
C208 C202 1.428 . S
C208 N207 1.351 . S
C208 C209 1.434 . S
C209 C200 1.429 . S
C209 N206 1.350 . S
C209 C208 1.434 . S
C210 C211 1.369 . S
C210 C212 1.419 . S
C210 H214 0.930 . S
C211 C210 1.369 . S
C211 C220 1.429 . S
C212 C210 1.419 . S
C212 C213 1.363 . S
C212 H215 0.929 . S
C213 C212 1.363 . S
C213 C219 1.428 . S
H214 C210 0.930 . S
H215 C212 0.929 . S
S216 N217 1.613 . S
S216 N218 1.610 . S
N217 S216 1.613 . S
N217 C220 1.350 . S
N218 S216 1.610 . S
N218 C219 1.351 . S
C219 C213 1.428 . S
C219 N218 1.351 . S
C219 C220 1.434 . S
C220 C211 1.429 . S
C220 N217 1.350 . S
C220 C219 1.434 . S
C221 C222 1.369 . S
C221 C223 1.419 . S
C221 H225 0.930 . S
C222 C221 1.369 . S
C222 C231 1.429 . S
C223 C221 1.419 . S
C223 C224 1.363 . S
C223 H226 0.929 . S
C224 C223 1.363 . S
C224 C230 1.439 . S
H225 C221 0.930 . S
H226 C223 0.929 . S
S227 N228 1.613 . S
S227 N229 1.610 . S
N228 S227 1.613 . S
N228 C231 1.350 1_655 S
N229 S227 1.610 . S
N229 C230 1.334 1_655 S
C230 C224 1.439 . S
C230 N229 1.334 1_455 S
C230 C231 1.439 . S
C231 C222 1.429 . S
C231 N228 1.350 1_455 S
C231 C230 1.439 . S
C232 C233 1.369 1_544 S
C232 C234 1.419 1_554 S
C232 H236 0.930 . S
C233 C232 1.369 1_566 S
C233 C242 1.429 . S
C234 C232 1.419 1_556 S
C234 C235 1.363 . S
C234 H237 0.929 . S
C235 C234 1.363 . S
C235 C241 1.429 . S
H236 C232 0.930 . S
H237 C234 0.929 . S
S238 N239 1.613 . S
S238 N240 1.613 . S
N239 S238 1.613 . S
N239 C242 1.352 . S
N240 S238 1.613 . S
N240 C241 1.350 1_565 S
C241 C235 1.429 . S
C241 N240 1.350 1_545 S
C241 C242 1.433 1_545 S
C242 C233 1.429 . S
C242 N239 1.352 . S
C242 C241 1.433 1_565 S
C243 C244 1.369 . S
C243 C245 1.419 . S
C243 H247 0.930 1_556 S
C244 C243 1.369 . S
C244 C253 1.429 . S
C245 C243 1.419 . S
C245 C246 1.363 . S
C245 H248 0.929 . S
C246 C245 1.363 . S
C246 C252 1.428 . S
H247 C243 0.930 1_554 S
H248 C245 0.929 . S
S249 N250 1.613 . S
S249 N251 1.610 . S
N250 S249 1.613 . S
N250 C253 1.350 . S
N251 S249 1.610 . S
N251 C252 1.351 . S
C252 C246 1.428 . S
C252 N251 1.351 . S
C252 C253 1.434 . S
C253 C244 1.429 . S
C253 N250 1.350 . S
C253 C252 1.434 . S
C254 C255 1.369 . S
C254 C256 1.419 . S
C254 H258 0.930 . S
C255 C254 1.369 . S
C255 C264 1.429 . S
C256 C254 1.419 . S
C256 C257 1.363 . S
C256 H259 0.929 . S
C257 C256 1.363 . S
C257 C263 1.428 . S
H258 C254 0.930 . S
H259 C256 0.929 . S
S260 N261 1.613 . S
S260 N262 1.610 1_554 S
N261 S260 1.613 . S
N261 C264 1.350 1_554 S
N262 S260 1.610 1_556 S
N262 C263 1.351 . S
C263 C257 1.428 . S
C263 N262 1.351 . S
C263 C264 1.434 . S
C264 C255 1.429 . S
C264 N261 1.350 1_556 S
C264 C263 1.434 . S
C265 C266 1.369 1_554 S
C265 C267 1.419 1_554 S
C265 H269 0.930 . S
C266 C265 1.369 1_556 S
C266 C275 1.429 1_655 S
C267 C265 1.419 1_556 S
C267 C268 1.363 1_655 S
C267 H270 0.929 . S
C268 C267 1.363 1_455 S
C268 C274 1.428 . S
H269 C265 0.930 . S
H270 C267 0.929 . S
S271 N272 1.613 . S
S271 N273 1.610 . S
N272 S271 1.613 . S
N272 C275 1.350 . S
N273 S271 1.610 . S
N273 C274 1.351 . S
C274 C268 1.428 . S
C274 N273 1.351 . S
C274 C275 1.434 . S
C275 C266 1.429 1_455 S
C275 N272 1.350 . S
C275 C274 1.434 . S
C276 C277 1.369 . S
C276 C278 1.419 . S
C276 H280 0.930 . S
C277 C276 1.369 . S
C277 C286 1.429 . S
C278 C276 1.419 . S
C278 C279 1.363 . S
C278 H281 0.929 . S
C279 C278 1.363 . S
C279 C285 1.428 . S
H280 C276 0.930 . S
H281 C278 0.929 . S
S282 N283 1.613 1_655 S
S282 N284 1.610 . S
N283 S282 1.613 1_455 S
N283 C286 1.350 . S
N284 S282 1.610 . S
N284 C285 1.351 1_655 S
C285 C279 1.428 . S
C285 N284 1.351 1_455 S
C285 C286 1.434 . S
C286 C277 1.429 . S
C286 N283 1.350 . S
C286 C285 1.434 . S
C287 C288 1.369 1_565 S
C287 C289 1.419 . S
C287 H291 0.930 . S
C288 C287 1.369 1_545 S
C288 C297 1.429 . S
C289 C287 1.419 . S
C289 C290 1.363 1_565 S
C289 H292 0.929 . S
C290 C289 1.363 1_545 S
C290 C296 1.428 . S
H291 C287 0.930 . S
H292 C289 0.929 . S
S293 N294 1.613 . S
S293 N295 1.610 . S
N294 S293 1.613 . S
N294 C297 1.350 . S
N295 S293 1.610 . S
N295 C296 1.351 . S
C296 C290 1.428 . S
C296 N295 1.351 . S
C296 C297 1.434 . S
C297 C288 1.429 . S
C297 N294 1.350 . S
C297 C296 1.434 . S
C298 C299 1.369 . S
C298 C300 1.419 . S
C298 H302 0.930 . S
C299 C298 1.369 . S
C299 C308 1.429 . S
C300 C298 1.419 . S
C300 C301 1.363 . S
C300 H303 0.929 . S
C301 C300 1.363 . S
C301 C307 1.428 . S
H302 C298 0.930 . S
H303 C300 0.929 . S
S304 N305 1.613 . S
S304 N306 1.610 . S
N305 S304 1.613 . S
N305 C308 1.350 . S
N306 S304 1.610 . S
N306 C307 1.351 . S
C307 C301 1.428 . S
C307 N306 1.351 . S
C307 C308 1.434 . S
C308 C299 1.429 . S
C308 N305 1.350 . S
C308 C307 1.434 . S
C309 C310 1.369 . S
C309 C311 1.419 . S
C309 H313 0.930 . S
C310 C309 1.369 . S
C310 C319 1.429 . S
C311 C309 1.419 . S
C311 C312 1.363 . S
C311 H314 0.929 . S
C312 C311 1.363 . S
C312 C318 1.428 . S
H313 C309 0.930 . S
H314 C311 0.929 . S
S315 N316 1.613 . S
S315 N317 1.610 . S
N316 S315 1.613 . S
N316 C319 1.350 . S
N317 S315 1.610 . S
N317 C318 1.351 . S
C318 C312 1.428 . S
C318 N317 1.351 . S
C318 C319 1.434 . S
C319 C310 1.429 . S
C319 N316 1.350 . S
C319 C318 1.434 . S
C320 C321 1.368 1_654 S
C320 C322 1.415 1_654 S
C320 H324 0.935 . S
C321 C320 1.368 1_456 S
C321 C330 1.429 . S
C322 C320 1.415 1_456 S
C322 C323 1.363 . S
C322 H325 0.929 1_556 S
C323 C322 1.363 . S
C323 C329 1.428 . S
H324 C320 0.935 . S
H325 C322 0.929 1_554 S
S326 N327 1.613 . S
S326 N328 1.610 . S
N327 S326 1.613 . S
N327 C330 1.350 . S
N328 S326 1.610 . S
N328 C329 1.351 . S
C329 C323 1.428 . S
C329 N328 1.351 . S
C329 C330 1.434 . S
C330 C321 1.429 . S
C330 N327 1.350 . S
C330 C329 1.434 . S
C331 C332 1.369 1_565 S
C331 C333 1.419 1_565 S
C331 H335 0.930 . S
C332 C331 1.369 1_545 S
C332 C341 1.429 . S
C333 C331 1.419 1_545 S
C333 C334 1.363 . S
C333 H336 0.929 1_545 S
C334 C333 1.363 . S
C334 C340 1.428 . S
H335 C331 0.930 . S
H336 C333 0.929 1_565 S
S337 N338 1.613 . S
S337 N339 1.610 . S
N338 S337 1.613 . S
N338 C341 1.350 . S
N339 S337 1.610 . S
N339 C340 1.351 . S
C340 C334 1.428 . S
C340 N339 1.351 . S
C340 C341 1.434 . S
C341 C332 1.429 . S
C341 N338 1.350 . S
C341 C340 1.434 . S
C342 C343 1.369 . S
C342 C344 1.419 . S
C342 H346 0.930 . S
C343 C342 1.369 . S
C343 C352 1.429 . S
C344 C342 1.419 . S
C344 C345 1.363 . S
C344 H347 0.929 . S
C345 C344 1.363 . S
C345 C351 1.428 . S
H346 C342 0.930 . S
H347 C344 0.929 . S
S348 N349 1.613 . S
S348 N350 1.610 . S
N349 S348 1.613 . S
N349 C352 1.350 1_554 S
N350 S348 1.610 . S
N350 C351 1.351 1_554 S
C351 C345 1.428 . S
C351 N350 1.351 1_556 S
C351 C352 1.434 . S
C352 C343 1.429 . S
C352 N349 1.350 1_556 S
C352 C351 1.434 . S
C353 C354 1.369 . S
C353 C355 1.419 . S
C353 H357 0.930 . S
C354 C353 1.369 . S
C354 C363 1.429 . S
C355 C353 1.419 . S
C355 C356 1.363 . S
C355 H358 0.929 . S
C356 C355 1.363 . S
C356 C362 1.428 . S
H357 C353 0.930 . S
H358 C355 0.929 . S
S359 N360 1.613 . S
S359 N361 1.610 . S
N360 S359 1.613 . S
N360 C363 1.350 . S
N361 S359 1.610 . S
N361 C362 1.351 . S
C362 C356 1.428 . S
C362 N361 1.351 . S
C362 C363 1.434 . S
C363 C354 1.429 . S
C363 N360 1.350 . S
C363 C362 1.434 . S
C364 C365 1.369 . S
C364 C366 1.419 1_554 S
C364 H368 0.930 . S
C365 C364 1.369 . S
C365 C374 1.429 . S
C366 C364 1.419 1_556 S
C366 C367 1.363 1_556 S
C366 H369 0.929 1_455 S
C367 C366 1.363 1_554 S
C367 C373 1.428 . S
H368 C364 0.930 . S
H369 C366 0.929 1_655 S
S370 N371 1.613 . S
S370 N372 1.610 . S
N371 S370 1.613 . S
N371 C374 1.350 . S
N372 S370 1.610 . S
N372 C373 1.351 . S
C373 C367 1.428 . S
C373 N372 1.351 . S
C373 C374 1.434 . S
C374 C365 1.429 . S
C374 N371 1.350 . S
C374 C373 1.434 . S
C375 C376 1.369 1_565 S
C375 C377 1.419 1_554 S
C375 H379 0.930 . S
C376 C375 1.369 1_545 S
C376 C385 1.429 . S
C377 C375 1.419 1_556 S
C377 C378 1.363 1_565 S
C377 H380 0.929 . S
C378 C377 1.363 1_545 S
C378 C384 1.428 1_556 S
H379 C375 0.930 . S
H380 C377 0.929 . S
S381 N382 1.613 . S
S381 N383 1.610 . S
N382 S381 1.613 . S
N382 C385 1.350 . S
N383 S381 1.610 . S
N383 C384 1.351 . S
C384 C378 1.428 1_554 S
C384 N383 1.351 . S
C384 C385 1.434 . S
C385 C376 1.429 . S
C385 N382 1.350 . S
C385 C384 1.434 . S
C386 C387 1.369 1_556 S
C386 C388 1.419 . S
C386 H390 0.930 . S
C387 C386 1.369 1_554 S
C387 C396 1.429 . S
C388 C386 1.419 . S
C388 C389 1.363 . S
C388 H391 0.929 . S
C389 C388 1.363 . S
C389 C395 1.428 1_556 S
H390 C386 0.930 . S
H391 C388 0.929 . S
S392 N393 1.613 . S
S392 N394 1.610 . S
N393 S392 1.613 . S
N393 C396 1.350 . S
N394 S392 1.610 . S
N394 C395 1.351 . S
C395 C389 1.428 1_554 S
C395 N394 1.351 . S
C395 C396 1.434 . S
C396 C387 1.429 . S
C396 N393 1.350 . S
C396 C395 1.434 . S
C397 C398 1.369 . S
C397 C399 1.419 . S
C397 H401 0.930 . S
C398 C397 1.369 . S
C398 C407 1.429 1_554 S
C399 C397 1.419 . S
C399 C400 1.363 1_554 S
C399 H402 0.929 . S
C400 C399 1.363 1_556 S
C400 C406 1.428 . S
H401 C397 0.930 . S
H402 C399 0.929 . S
S403 N404 1.613 . S
S403 N405 1.610 . S
N404 S403 1.613 . S
N404 C407 1.350 . S
N405 S403 1.610 . S
N405 C406 1.351 . S
C406 C400 1.428 . S
C406 N405 1.351 . S
C406 C407 1.434 . S
C407 C398 1.429 1_556 S
C407 N404 1.350 . S
C407 C406 1.434 . S
C408 C409 1.369 . S
C408 C410 1.419 . S
C408 H412 0.930 . S
C409 C408 1.369 . S
C409 C418 1.429 . S
C410 C408 1.419 . S
C410 C411 1.363 . S
C410 H413 0.929 . S
C411 C410 1.363 . S
C411 C417 1.428 . S
H412 C408 0.930 . S
H413 C410 0.929 . S
S414 N415 1.613 . S
S414 N416 1.610 . S
N415 S414 1.613 . S
N415 C418 1.350 . S
N416 S414 1.610 . S
N416 C417 1.351 . S
C417 C411 1.428 . S
C417 N416 1.351 . S
C417 C418 1.434 . S
C418 C409 1.429 . S
C418 N415 1.350 . S
C418 C417 1.434 . S
C419 C420 1.369 1_545 S
C419 C421 1.419 . S
C419 H423 0.930 . S
C420 C419 1.369 1_565 S
C420 C429 1.429 . S
C421 C419 1.419 . S
C421 C422 1.363 1_545 S
C421 H424 0.929 . S
C422 C421 1.363 1_565 S
C422 C428 1.428 . S
H423 C419 0.930 . S
H424 C421 0.929 . S
S425 N426 1.613 . S
S425 N427 1.610 . S
N426 S425 1.613 . S
N426 C429 1.350 . S
N427 S425 1.610 . S
N427 C428 1.351 . S
C428 C422 1.428 . S
C428 N427 1.351 . S
C428 C429 1.434 . S
C429 C420 1.429 . S
C429 N426 1.350 . S
C429 C428 1.434 . S
C430 C431 1.369 . S
C430 C432 1.419 . S
C430 H434 0.930 . S
C431 C430 1.369 . S
C431 C440 1.429 . S
C432 C430 1.419 . S
C432 C433 1.363 . S
C432 H435 0.929 . S
C433 C432 1.363 . S
C433 C439 1.428 . S
H434 C430 0.930 . S
H435 C432 0.929 . S
S436 N437 1.613 . S
S436 N438 1.610 . S
N437 S436 1.613 . S
N437 C440 1.350 . S
N438 S436 1.610 . S
N438 C439 1.351 . S
C439 C433 1.428 . S
C439 N438 1.351 . S
C439 C440 1.434 . S
C440 C431 1.429 . S
C440 N437 1.350 . S
C440 C439 1.434 . S
C441 C442 1.369 . S
C441 C443 1.419 . S
C441 H445 0.930 . S
C442 C441 1.369 . S
C442 C451 1.429 . S
C443 C441 1.419 . S
C443 C444 1.363 . S
C443 H446 0.929 . S
C444 C443 1.363 . S
C444 C450 1.428 . S
H445 C441 0.930 . S
H446 C443 0.929 . S
S447 N448 1.613 . S
S447 N449 1.610 . S
N448 S447 1.613 . S
N448 C451 1.350 . S
N449 S447 1.610 . S
N449 C450 1.351 . S
C450 C444 1.428 . S
C450 N449 1.351 . S
C450 C451 1.434 . S
C451 C442 1.429 . S
C451 N448 1.350 . S
C451 C450 1.434 . S
C189 C76 1.580 . S
C191 C112 1.621 . S
C202 C135 1.644 . S
C200 C88 1.600 . S
C213 C158 1.643 . S
C211 C52 1.602 . S
C224 C185 1.526 . S
C222 C64 1.568 . S
C235 C113 1.572 . S
C233 C28 1.527 . S
C244 C40 1.487 . S
C246 C136 1.537 . S
C255 C4 1.495 . S
C257 C159 1.526 . S
C266 C16 1.557 1_556 S
C268 C184 1.597 . S
C279 C114 0.742 . S
C277 C69 0.754 . S
C290 C137 0.716 . S
C288 C81 0.710 . S
C301 C160 0.737 . S
C299 C93 0.729 . S
C310 C57 0.887 . S
C312 C186 0.863 . S
C321 C21 0.986 1_556 S
C323 C117 0.951 . S
C334 C140 0.943 . S
C332 C33 0.980 . S
C345 C163 0.908 . S
C343 C45 0.949 . S
C354 C9 0.725 . S
C356 C183 0.715 . S
C365 C66 1.575 . S
C367 C115 1.548 1_554 S
C376 C78 1.532 . S
C378 C138 1.533 . S
C389 C161 1.550 . S
C387 C90 1.545 . S
C400 C182 1.461 . S
C398 C54 1.410 . S
C409 C18 1.662 1_655 S
C411 C116 1.568 . S
C422 C139 1.526 . S
C420 C30 1.612 1_565 S
C433 C162 1.511 . S
C431 C42 1.587 . S
C442 C6 1.651 . S
C444 C181 1.702 . S
