# Generated by pormake.
# Topology eea, (3,6)-cn, num edge types: 1
# Building blocks:
#     Node 0, Type 0, BuildingBlock: BETDAH_clean_linker_0, # of connection points: 3
#     Node 1, Type 0, BuildingBlock: BETDAH_clean_linker_0, # of connection points: 3
#     Node 2, Type 0, BuildingBlock: BETDAH_clean_linker_0, # of connection points: 3
#     Node 3, Type 0, BuildingBlock: BETDAH_clean_linker_0, # of connection points: 3
#     Node 4, Type 0, BuildingBlock: BETDAH_clean_linker_0, # of connection points: 3
#     Node 5, Type 0, BuildingBlock: BETDAH_clean_linker_0, # of connection points: 3
#     Node 6, Type 0, BuildingBlock: BETDAH_clean_linker_0, # of connection points: 3
#     Node 7, Type 0, BuildingBlock: BETDAH_clean_linker_0, # of connection points: 3
#     Node 8, Type 0, BuildingBlock: BETDAH_clean_linker_0, # of connection points: 3
#     Node 9, Type 0, BuildingBlock: BETDAH_clean_linker_0, # of connection points: 3
#     Node 10, Type 0, BuildingBlock: BETDAH_clean_linker_0, # of connection points: 3
#     Node 11, Type 0, BuildingBlock: BETDAH_clean_linker_0, # of connection points: 3
#     Node 12, Type 0, BuildingBlock: BETDAH_clean_linker_0, # of connection points: 3
#     Node 13, Type 0, BuildingBlock: BETDAH_clean_linker_0, # of connection points: 3
#     Node 14, Type 0, BuildingBlock: BETDAH_clean_linker_0, # of connection points: 3
#     Node 15, Type 0, BuildingBlock: BETDAH_clean_linker_0, # of connection points: 3
#     Node 16, Type 0, BuildingBlock: BETDAH_clean_linker_0, # of connection points: 3
#     Node 17, Type 0, BuildingBlock: BETDAH_clean_linker_0, # of connection points: 3
#     Node 18, Type 1, BuildingBlock: HISSIN_clean_sbu_0, # of connection points: 6
#     Node 19, Type 1, BuildingBlock: HISSIN_clean_sbu_0, # of connection points: 6
#     Node 20, Type 1, BuildingBlock: HISSIN_clean_sbu_0, # of connection points: 6
#     Node 21, Type 1, BuildingBlock: HISSIN_clean_sbu_0, # of connection points: 6
#     Node 22, Type 1, BuildingBlock: HISSIN_clean_sbu_0, # of connection points: 6
#     Node 23, Type 1, BuildingBlock: HISSIN_clean_sbu_0, # of connection points: 6
#     Node 24, Type 1, BuildingBlock: HISSIN_clean_sbu_0, # of connection points: 6
#     Node 25, Type 1, BuildingBlock: HISSIN_clean_sbu_0, # of connection points: 6
#     Node 26, Type 1, BuildingBlock: HISSIN_clean_sbu_0, # of connection points: 6
#     Edge 27, Type (0, 1), BuildingBlock: MIFKUJ_clean_linker_0, # of connection points: 2
#     Edge 28, Type (0, 1), BuildingBlock: MIFKUJ_clean_linker_0, # of connection points: 2
#     Edge 29, Type (0, 1), BuildingBlock: MIFKUJ_clean_linker_0, # of connection points: 2
#     Edge 30, Type (0, 1), BuildingBlock: MIFKUJ_clean_linker_0, # of connection points: 2
#     Edge 31, Type (0, 1), BuildingBlock: MIFKUJ_clean_linker_0, # of connection points: 2
#     Edge 32, Type (0, 1), BuildingBlock: MIFKUJ_clean_linker_0, # of connection points: 2
#     Edge 33, Type (0, 1), BuildingBlock: MIFKUJ_clean_linker_0, # of connection points: 2
#     Edge 34, Type (0, 1), BuildingBlock: MIFKUJ_clean_linker_0, # of connection points: 2
#     Edge 35, Type (0, 1), BuildingBlock: MIFKUJ_clean_linker_0, # of connection points: 2
#     Edge 36, Type (0, 1), BuildingBlock: MIFKUJ_clean_linker_0, # of connection points: 2
#     Edge 37, Type (0, 1), BuildingBlock: MIFKUJ_clean_linker_0, # of connection points: 2
#     Edge 38, Type (0, 1), BuildingBlock: MIFKUJ_clean_linker_0, # of connection points: 2
#     Edge 39, Type (0, 1), BuildingBlock: MIFKUJ_clean_linker_0, # of connection points: 2
#     Edge 40, Type (0, 1), BuildingBlock: MIFKUJ_clean_linker_0, # of connection points: 2
#     Edge 41, Type (0, 1), BuildingBlock: MIFKUJ_clean_linker_0, # of connection points: 2
#     Edge 42, Type (0, 1), BuildingBlock: MIFKUJ_clean_linker_0, # of connection points: 2
#     Edge 43, Type (0, 1), BuildingBlock: MIFKUJ_clean_linker_0, # of connection points: 2
#     Edge 44, Type (0, 1), BuildingBlock: MIFKUJ_clean_linker_0, # of connection points: 2
#     Edge 45, Type (0, 1), BuildingBlock: MIFKUJ_clean_linker_0, # of connection points: 2
#     Edge 46, Type (0, 1), BuildingBlock: MIFKUJ_clean_linker_0, # of connection points: 2
#     Edge 47, Type (0, 1), BuildingBlock: MIFKUJ_clean_linker_0, # of connection points: 2
#     Edge 48, Type (0, 1), BuildingBlock: MIFKUJ_clean_linker_0, # of connection points: 2
#     Edge 49, Type (0, 1), BuildingBlock: MIFKUJ_clean_linker_0, # of connection points: 2
#     Edge 50, Type (0, 1), BuildingBlock: MIFKUJ_clean_linker_0, # of connection points: 2
#     Edge 51, Type (0, 1), BuildingBlock: MIFKUJ_clean_linker_0, # of connection points: 2
#     Edge 52, Type (0, 1), BuildingBlock: MIFKUJ_clean_linker_0, # of connection points: 2
#     Edge 53, Type (0, 1), BuildingBlock: MIFKUJ_clean_linker_0, # of connection points: 2
#     Edge 54, Type (0, 1), BuildingBlock: MIFKUJ_clean_linker_0, # of connection points: 2
#     Edge 55, Type (0, 1), BuildingBlock: MIFKUJ_clean_linker_0, # of connection points: 2
#     Edge 56, Type (0, 1), BuildingBlock: MIFKUJ_clean_linker_0, # of connection points: 2
#     Edge 57, Type (0, 1), BuildingBlock: MIFKUJ_clean_linker_0, # of connection points: 2
#     Edge 58, Type (0, 1), BuildingBlock: MIFKUJ_clean_linker_0, # of connection points: 2
#     Edge 59, Type (0, 1), BuildingBlock: MIFKUJ_clean_linker_0, # of connection points: 2
#     Edge 60, Type (0, 1), BuildingBlock: MIFKUJ_clean_linker_0, # of connection points: 2
#     Edge 61, Type (0, 1), BuildingBlock: MIFKUJ_clean_linker_0, # of connection points: 2
#     Edge 62, Type (0, 1), BuildingBlock: MIFKUJ_clean_linker_0, # of connection points: 2
#     Edge 63, Type (0, 1), BuildingBlock: MIFKUJ_clean_linker_0, # of connection points: 2
#     Edge 64, Type (0, 1), BuildingBlock: MIFKUJ_clean_linker_0, # of connection points: 2
#     Edge 65, Type (0, 1), BuildingBlock: MIFKUJ_clean_linker_0, # of connection points: 2
#     Edge 66, Type (0, 1), BuildingBlock: MIFKUJ_clean_linker_0, # of connection points: 2
#     Edge 67, Type (0, 1), BuildingBlock: MIFKUJ_clean_linker_0, # of connection points: 2
#     Edge 68, Type (0, 1), BuildingBlock: MIFKUJ_clean_linker_0, # of connection points: 2
#     Edge 69, Type (0, 1), BuildingBlock: MIFKUJ_clean_linker_0, # of connection points: 2
#     Edge 70, Type (0, 1), BuildingBlock: MIFKUJ_clean_linker_0, # of connection points: 2
#     Edge 71, Type (0, 1), BuildingBlock: MIFKUJ_clean_linker_0, # of connection points: 2
#     Edge 72, Type (0, 1), BuildingBlock: MIFKUJ_clean_linker_0, # of connection points: 2
#     Edge 73, Type (0, 1), BuildingBlock: MIFKUJ_clean_linker_0, # of connection points: 2
#     Edge 74, Type (0, 1), BuildingBlock: MIFKUJ_clean_linker_0, # of connection points: 2
#     Edge 75, Type (0, 1), BuildingBlock: MIFKUJ_clean_linker_0, # of connection points: 2
#     Edge 76, Type (0, 1), BuildingBlock: MIFKUJ_clean_linker_0, # of connection points: 2
#     Edge 77, Type (0, 1), BuildingBlock: MIFKUJ_clean_linker_0, # of connection points: 2
#     Edge 78, Type (0, 1), BuildingBlock: MIFKUJ_clean_linker_0, # of connection points: 2
#     Edge 79, Type (0, 1), BuildingBlock: MIFKUJ_clean_linker_0, # of connection points: 2
#     Edge 80, Type (0, 1), BuildingBlock: MIFKUJ_clean_linker_0, # of connection points: 2
# Relax obj value: 0.056
# Max RMSD: 0.194
# Mean RMSD: 0.136
data_MOF--net-eea--node1-HISSIN_clean_sbu_0--node2-BETDAH_clean_linker_0--edge1-MIFKUJ_clean_linker_0
_symmetry_space_group_name_H-M    P1
_symmetry_Int_Tables_number       1
_symmetry_cell_setting            triclinic
loop_
_symmetry_equiv_pos_as_xyz
'x, y, z'
_cell_length_a     71.93555
_cell_length_b     72.355224
_cell_length_c     84.944954
_cell_angle_alpha  93.306614
_cell_angle_beta   93.652811
_cell_angle_gamma 119.81117
loop_
_atom_site_label
_atom_site_type_symbol
_atom_site_fract_x
_atom_site_fract_y
_atom_site_fract_z
_atom_type_partial_charge
H0 H 0.26181 0.1049 0.43603 0.0
H1 H 0.26982 0.1648 0.42296 0.0
H2 H 0.25367 0.1137 0.38687 0.0
C3 C 0.26134 0.11465 0.42697 0.0
C4 C 0.25681 0.10639 0.41092 0.0
C5 C 0.26599 0.13565 0.43144 0.0
C6 C 0.26622 0.14859 0.41964 0.0
C7 C 0.262 0.14059 0.40354 0.0
C8 C 0.25743 0.1197 0.39932 0.0
N9 N 0.26239 0.15314 0.39123 0.0
C10 C 0.25829 0.1699 0.39307 0.0
H11 H 0.92263 0.16706 0.43909 0.0
H12 H 0.85882 0.11283 0.42652 0.0
H13 H 0.90201 0.13815 0.39085 0.0
C14 C 0.91034 0.15512 0.43023 0.0
C15 C 0.91502 0.15433 0.41447 0.0
C16 C 0.89005 0.14031 0.43474 0.0
C17 C 0.87455 0.12419 0.42329 0.0
C18 C 0.87904 0.12347 0.40747 0.0
C19 C 0.89901 0.13866 0.40317 0.0
N20 N 0.86368 0.10823 0.39534 0.0
C21 C 0.84644 0.08851 0.39781 0.0
H22 H 0.85091 0.76237 0.45057 0.0
H23 H 0.9124 0.76813 0.44424 0.0
H24 H 0.88357 0.79056 0.41016 0.0
C25 C 0.86434 0.76706 0.44354 0.0
C26 C 0.86495 0.777 0.4297 0.0
C27 C 0.88122 0.76361 0.44879 0.0
C28 C 0.89928 0.77059 0.44019 0.0
C29 C 0.90002 0.78044 0.42623 0.0
C30 C 0.88287 0.78339 0.42111 0.0
N31 N 0.91752 0.78779 0.41683 0.0
C32 C 0.93548 0.78535 0.41894 0.0
H33 H 0.07287 0.23159 0.59288 0.0
H34 H 0.13512 0.23723 0.603 0.0
H35 H 0.09201 0.22114 0.639 0.0
C36 C 0.08466 0.23094 0.60107 0.0
C37 C 0.07966 0.22541 0.61647 0.0
C38 C 0.1047 0.23548 0.59606 0.0
C39 C 0.11952 0.2335 0.60652 0.0
C40 C 0.11472 0.22815 0.62198 0.0
C41 C 0.0951 0.22452 0.62687 0.0
N42 N 0.12979 0.22782 0.6334 0.0
C43 C 0.14484 0.22176 0.63024 0.0
H44 H 0.73906 0.83075 0.61052 0.0
H45 H 0.74482 0.89245 0.62076 0.0
H46 H 0.76427 0.86486 0.65707 0.0
C47 C 0.74347 0.84458 0.61882 0.0
C48 C 0.75186 0.84552 0.63444 0.0
C49 C 0.741 0.86148 0.61373 0.0
C50 C 0.74686 0.87946 0.62454 0.0
C51 C 0.75493 0.88038 0.64027 0.0
C52 C 0.7574 0.86352 0.64505 0.0
N53 N 0.76083 0.89795 0.65172 0.0
C54 C 0.76211 0.91709 0.64849 0.0
H55 H 0.14575 0.90418 0.59792 0.0
H56 H 0.09287 0.84408 0.60836 0.0
H57 H 0.12893 0.89518 0.6456 0.0
C58 C 0.13542 0.89421 0.60632 0.0
C59 C 0.1391 0.90238 0.62228 0.0
C60 C 0.1188 0.87322 0.60112 0.0
C61 C 0.10559 0.86033 0.61218 0.0
C62 C 0.10924 0.86843 0.62825 0.0
C63 C 0.126 0.88927 0.63315 0.0
N64 N 0.09716 0.85599 0.64008 0.0
C65 C 0.07646 0.83837 0.63752 0.0
H66 H 0.93536 0.43767 0.76389 0.0
H67 H 0.94602 0.50041 0.75643 0.0
H68 H 0.92901 0.4535 0.71661 0.0
C69 C 0.9362 0.44914 0.75589 0.0
C70 C 0.93132 0.44294 0.73953 0.0
C71 C 0.94177 0.46987 0.76211 0.0
C72 C 0.94165 0.48434 0.75178 0.0
C73 C 0.93707 0.47833 0.73531 0.0
C74 C 0.93221 0.45783 0.72932 0.0
N75 N 0.93812 0.49271 0.72431 0.0
C76 C 0.93323 0.50876 0.72732 0.0
H77 H 0.59256 0.50142 0.77417 0.0
H78 H 0.52842 0.44745 0.7623 0.0
H79 H 0.57097 0.47182 0.72614 0.0
C80 C 0.5801 0.48939 0.76546 0.0
C81 C 0.58448 0.48825 0.74963 0.0
C82 C 0.55989 0.47477 0.77018 0.0
C83 C 0.54412 0.45862 0.75889 0.0
C84 C 0.54825 0.45764 0.743 0.0
C85 C 0.5682 0.47255 0.7385 0.0
N86 N 0.53255 0.44243 0.73102 0.0
C87 C 0.5153 0.42282 0.73367 0.0
H88 H 0.51962 0.09913 0.78243 0.0
H89 H 0.57026 0.08505 0.77555 0.0
H90 H 0.54339 0.10289 0.73681 0.0
C91 C 0.53052 0.09785 0.77479 0.0
C92 C 0.52988 0.10225 0.75894 0.0
C93 C 0.54477 0.09136 0.78091 0.0
C94 C 0.55956 0.09056 0.77119 0.0
C95 C 0.55919 0.09504 0.75533 0.0
C96 C 0.54422 0.10056 0.74927 0.0
N97 N 0.57121 0.09075 0.74463 0.0
C98 C 0.59358 0.10182 0.74567 0.0
H99 H 0.74421 0.57466 0.92892 0.0
H100 H 0.79911 0.56593 0.93682 0.0
H101 H 0.75479 0.55104 0.97189 0.0
C102 C 0.75353 0.56966 0.93617 0.0
C103 C 0.74701 0.56254 0.95098 0.0
C104 C 0.77236 0.57104 0.93089 0.0
C105 C 0.78469 0.5651 0.94071 0.0
C106 C 0.77831 0.55808 0.95558 0.0
C107 C 0.75965 0.55689 0.96053 0.0
N108 N 0.79019 0.55229 0.96615 0.0
C109 C 0.80673 0.54861 0.9626 0.0
H110 H 0.41512 0.17031 0.94663 0.0
H111 H 0.40176 0.22153 0.95565 0.0
H112 H 0.41867 0.19549 0.99453 0.0
C113 C 0.41346 0.18125 0.9549 0.0
C114 C 0.41776 0.18119 0.97125 0.0
C115 C 0.40752 0.19561 0.94911 0.0
C116 C 0.40651 0.21051 0.95993 0.0
C117 C 0.4106 0.2104 0.97633 0.0
C118 C 0.41589 0.19561 0.98185 0.0
N119 N 0.40894 0.22451 0.98767 0.0
C120 C 0.4121 0.24448 0.98476 0.0
H121 H 0.8168 0.23354 0.92954 0.0
H122 H 0.7616 0.17539 0.94 0.0
H123 H 0.79637 0.22764 0.97645 0.0
C124 C 0.80559 0.22455 0.93784 0.0
C125 C 0.80872 0.23354 0.95358 0.0
C126 C 0.78862 0.20367 0.93279 0.0
C127 C 0.77457 0.19155 0.94372 0.0
C128 C 0.77762 0.20032 0.95952 0.0
C129 C 0.7946 0.2211 0.9643 0.0
N130 N 0.76456 0.1886 0.97122 0.0
C131 C 0.74322 0.17224 0.96834 0.0
H132 H 0.59486 0.77147 0.10294 0.0
H133 H 0.60319 0.8312 0.08911 0.0
H134 H 0.58712 0.77952 0.05358 0.0
C135 C 0.59445 0.78106 0.09374 0.0
C136 C 0.59001 0.77256 0.07777 0.0
C137 C 0.59914 0.80214 0.09798 0.0
C138 C 0.59948 0.81491 0.08599 0.0
C139 C 0.59535 0.80665 0.06997 0.0
C140 C 0.59074 0.78569 0.06599 0.0
N141 N 0.59611 0.81904 0.05745 0.0
C142 C 0.5914 0.83545 0.05864 0.0
H143 H 0.25608 0.8403 0.10922 0.0
H144 H 0.20381 0.7749 0.101 0.0
H145 H 0.24991 0.80054 0.06728 0.0
C146 C 0.24751 0.82512 0.10189 0.0
C147 C 0.25506 0.82281 0.08744 0.0
C148 C 0.22911 0.80787 0.107 0.0
C149 C 0.21811 0.7882 0.09733 0.0
C150 C 0.22566 0.78574 0.08294 0.0
C151 C 0.24405 0.80292 0.07822 0.0
N152 N 0.21559 0.7662 0.07291 0.0
C153 C 0.19585 0.74832 0.07454 0.0
H154 H 0.18408 0.42895 0.11446 0.0
H155 H 0.23514 0.4159 0.10646 0.0
H156 H 0.20756 0.43447 0.06863 0.0
C157 C 0.19501 0.42809 0.10663 0.0
C158 C 0.19424 0.43302 0.09094 0.0
C159 C 0.2095 0.42168 0.11234 0.0
C160 C 0.22426 0.42133 0.10238 0.0
C161 C 0.22361 0.42617 0.08664 0.0
C162 C 0.2085 0.43173 0.08099 0.0
N163 N 0.2356 0.42237 0.07563 0.0
C164 C 0.25797 0.4331 0.07684 0.0
H165 H 0.413 0.91111 0.2636 0.0
H166 H 0.46079 0.89155 0.26505 0.0
H167 H 0.4156 0.8729 0.29966 0.0
C168 C 0.42021 0.9026 0.26893 0.0
C169 C 0.41211 0.89211 0.28243 0.0
C170 C 0.43771 0.90245 0.2624 0.0
C171 C 0.44756 0.89214 0.26998 0.0
C172 C 0.43964 0.88174 0.28355 0.0
C173 C 0.42191 0.88159 0.28949 0.0
N174 N 0.44842 0.87052 0.29136 0.0
C175 C 0.46818 0.87214 0.28936 0.0
H176 H 0.07998 0.50292 0.27882 0.0
H177 H 0.07028 0.55617 0.29028 0.0
H178 H 0.08332 0.52528 0.3275 0.0
C179 C 0.07918 0.51401 0.28751 0.0
C180 C 0.08277 0.51256 0.30372 0.0
C181 C 0.07448 0.52958 0.28247 0.0
C182 C 0.07369 0.54397 0.29394 0.0
C183 C 0.07687 0.54231 0.31017 0.0
C184 C 0.08108 0.5265 0.31493 0.0
N185 N 0.07549 0.556 0.32204 0.0
C186 C 0.08233 0.57738 0.32057 0.0
H187 H 0.48688 0.56433 0.26781 0.0
H188 H 0.42765 0.50792 0.27509 0.0
H189 H 0.45938 0.56042 0.31184 0.0
C190 C 0.47446 0.55557 0.27542 0.0
C191 C 0.47521 0.56515 0.29046 0.0
C192 C 0.45747 0.53496 0.26983 0.0
C193 C 0.44078 0.5238 0.27936 0.0
C194 C 0.44164 0.53315 0.29462 0.0
C195 C 0.45883 0.55359 0.3 0.0
N196 N 0.42599 0.52272 0.30522 0.0
C197 C 0.40676 0.50338 0.30201 0.0
Eu198 Eu 0.48717 0.99281 1.00531 0.0
Eu199 Eu 0.50412 0.01436 0.04279 0.0
C200 C 0.48363 0.03331 0.01874 0.0
C201 C 0.48312 0.98862 0.96034 0.0
C202 C 0.49784 0.01062 0.96075 0.0
C203 C 0.48143 0.98546 0.93159 0.0
C204 C 0.50447 0.01996 0.94668 0.0
C205 C 0.47491 0.97612 0.94568 0.0
C206 C 0.49638 0.00748 0.93192 0.0
C207 C 0.47696 0.97856 0.97515 0.0
O208 O 0.46824 0.99215 0.04174 0.0
O209 O 0.46125 0.96951 0.01913 0.0
C210 C 0.45567 0.97425 0.03257 0.0
O211 O 0.50666 0.97912 0.01601 0.0
O212 O 0.50065 0.02948 0.06457 0.0
O213 O 0.52713 0.02331 0.06375 0.0
O214 O 0.50067 0.98178 0.0419 0.0
C215 C 0.50651 0.97354 0.03044 0.0
O216 O 0.51716 0.02456 1.00471 0.0
O217 O 0.53364 0.02745 0.02941 0.0
O218 O 0.49923 0.03827 0.03 0.0
O219 O 0.49238 0.97846 0.98399 0.0
O220 O 0.4654 0.98382 0.9835 0.0
O221 O 0.47388 0.01464 0.01018 0.0
C222 C 0.51124 0.0192 0.08805 0.0
C223 C 0.51917 0.00597 0.09306 0.0
C224 C 0.49311 0.01402 0.11206 0.0
C225 C 0.51409 -0.00314 0.10739 0.0
C226 C 0.49831 0.02324 0.09778 0.0
C227 C 0.50091 0.00068 0.11702 0.0
C228 C 0.5162 0.02872 0.07276 0.0
C229 C 0.53458 0.03247 0.01473 0.0
H230 H 0.50429 0.02053 0.97197 0.0
H231 H 0.47505 0.97535 0.92044 0.0
H232 H 0.51577 0.037 0.94735 0.0
H233 H 0.46363 0.95908 0.94515 0.0
H234 H 0.52919 0.00249 0.08589 0.0
H235 H 0.48315 0.0175 0.1193 0.0
H236 H 0.52018 0.9865 0.1108 0.0
H237 H 0.49211 0.03351 0.09431 0.0
Eu238 Eu 0.01218 0.49689 1.00491 0.0
Eu239 Eu 0.99124 0.48675 0.03955 0.0
C240 C 0.9715 0.45019 0.00997 0.0
C241 C 0.01968 0.50125 0.96109 0.0
C242 C -0.00229 0.49378 0.957 0.0
C243 C 0.02545 0.50334 0.93328 0.0
C244 C 0.98967 0.49125 0.94111 0.0
C245 C 0.03346 0.50592 0.94916 0.0
C246 C 0.00348 0.49608 0.92907 0.0
C247 C 0.02846 0.50495 0.97777 0.0
O248 O 0.01447 0.47436 0.03925 0.0
O249 O 0.03687 0.49581 0.02192 0.0
C250 C 0.03292 0.48297 0.03312 0.0
O251 O 0.02368 0.52864 0.01903 0.0
O252 O 0.97935 0.46664 0.05891 0.0
O253 O 0.98021 0.49705 0.05975 0.0
O254 O 0.02213 0.51838 0.0441 0.0
C255 C 0.02934 0.53327 0.03436 0.0
O256 O 0.9808 0.49601 0.99994 0.0
O257 O 0.9725 0.49892 0.02547 0.0
O258 O 0.96785 0.45808 0.02294 0.0
O259 O 0.02563 0.51844 0.98667 0.0
O260 O 0.02463 0.488 0.98477 0.0
O261 O 0.98864 0.46124 1.00255 0.0
C262 C 0.98603 0.48574 0.08401 0.0
C263 C 0.00837 0.49835 0.08808 0.0
C264 C 0.9808 0.48359 0.1119 0.0
C265 C 0.01688 0.50364 0.10402 0.0
C266 C 0.97234 0.47832 0.09598 0.0
C267 C 0.00316 0.49643 0.11613 0.0
C268 C 0.97678 0.48068 0.06737 0.0
C269 C 0.96948 0.49926 0.01008 0.0
H270 H 0.98683 0.49007 0.9661 0.0
H271 H 0.03655 0.50745 0.92431 0.0
H272 H 0.97264 0.4854 0.93825 0.0
H273 H 0.05048 0.51181 0.95215 0.0
H274 H 0.01916 0.50426 0.07893 0.0
H275 H 0.96983 0.47749 0.12091 0.0
H276 H 0.03414 0.51371 0.10688 0.0
H277 H 0.95506 0.46852 0.09301 0.0
Eu278 Eu 0.51526 0.50681 0.03775 0.0
Eu279 Eu 0.49945 0.51267 1.00118 0.0
C280 C 0.52035 0.55222 0.02895 0.0
C281 C 0.51911 0.50261 0.08223 0.0
C282 C 0.50951 0.51501 0.08545 0.0
C283 C 0.51534 0.49249 0.10911 0.0
C284 C 0.50295 0.51624 0.10046 0.0
C285 C 0.52195 0.49136 0.09414 0.0
C286 C 0.50575 0.50495 0.11249 0.0
C287 C 0.52525 0.50042 0.06634 0.0
O288 O 0.53472 0.52412 1.00129 0.0
O289 O 0.54116 0.50922 0.0228 0.0
C290 C 0.54682 0.51864 0.00972 0.0
O291 O 0.49248 0.4743 0.02485 0.0
O292 O 0.50328 0.53121 0.98101 0.0
O293 O 0.47684 0.49854 0.97975 0.0
O294 O 0.5004 0.48206 0.9997 0.0
C295 C 0.49283 0.46816 0.01012 0.0
O296 O 0.48553 0.50881 0.04066 0.0
O297 O 0.4701 0.50055 0.01471 0.0
O298 O 0.50791 0.5434 0.01553 0.0
O299 O 0.50997 0.48555 0.05628 0.0
O300 O 0.53668 0.51806 0.05988 0.0
O301 O 0.52676 0.54196 0.03808 0.0
C302 C 0.49314 0.51051 0.95633 0.0
C303 C 0.50283 0.4979 0.95453 0.0
C304 C 0.49494 0.51571 0.92835 0.0
C305 C 0.50842 0.49411 0.9397 0.0
C306 C 0.48924 0.51938 0.94317 0.0
C307 C 0.50461 0.50304 0.92645 0.0
C308 C 0.4877 0.51504 0.97195 0.0
C309 C 0.46898 0.50288 0.03006 0.0
H310 H 0.50701 0.52368 0.07634 0.0
H311 H 0.51743 0.4833 0.11796 0.0
H312 H 0.49588 0.52619 0.10267 0.0
H313 H 0.52909 0.4815 0.09179 0.0
H314 H 0.5062 0.49112 0.96461 0.0
H315 H 0.4916 0.52263 0.91835 0.0
H316 H 0.51609 0.48452 0.93867 0.0
H317 H 0.48185 0.52922 0.94436 0.0
Eu318 Eu 0.15194 0.32311 0.33676 0.0
Eu319 Eu 0.16641 0.34371 0.37431 0.0
C320 C 0.14683 0.36286 0.34988 0.0
C321 C 0.14926 0.31919 0.29182 0.0
C322 C 0.16393 0.34122 0.29229 0.0
C323 C 0.14737 0.31621 0.26307 0.0
C324 C 0.17039 0.35067 0.27823 0.0
C325 C 0.14099 0.30677 0.27714 0.0
C326 C 0.16221 0.33827 0.26343 0.0
C327 C 0.14314 0.30901 0.30659 0.0
O328 O 0.13034 0.32209 0.37145 0.0
O329 O 0.12628 0.29879 0.35023 0.0
C330 C 0.11897 0.30365 0.36268 0.0
O331 O 0.17294 0.31142 0.348 0.0
O332 O 0.16114 0.35727 0.39611 0.0
O333 O 0.18835 0.35219 0.39585 0.0
O334 O 0.16334 0.31126 0.37304 0.0
C335 C 0.1714 0.30471 0.36213 0.0
O336 O 0.1812 0.35554 0.33682 0.0
O337 O 0.19674 0.35799 0.36178 0.0
O338 O 0.16196 0.36785 0.36154 0.0
O339 O 0.1588 0.30979 0.31573 0.0
O340 O 0.13067 0.31335 0.3146 0.0
O341 O 0.1378 0.34438 0.34108 0.0
C342 C 0.17101 0.34625 0.41923 0.0
C343 C 0.16246 0.32404 0.41889 0.0
C344 C 0.16841 0.34822 0.4476 0.0
C345 C 0.15706 0.314 0.43284 0.0
C346 C 0.17392 0.35825 0.43365 0.0
C347 C 0.15995 0.32597 0.44737 0.0
C348 C 0.17671 0.35692 0.40459 0.0
C349 C 0.19824 0.3635 0.34722 0.0
H350 H 0.17047 0.35107 0.30353 0.0
H351 H 0.14097 0.30614 0.2519 0.0
H352 H 0.18161 0.36773 0.27894 0.0
H353 H 0.12976 0.28972 0.27657 0.0
H354 H 0.15992 0.31445 0.40784 0.0
H355 H 0.17104 0.35793 0.4586 0.0
H356 H 0.15031 0.29682 0.43221 0.0
H357 H 0.18047 0.37541 0.43413 0.0
Eu358 Eu 0.67651 0.82641 0.33695 0.0
Eu359 Eu 0.6567 0.82206 0.37131 0.0
C360 C 0.63799 0.78221 0.34538 0.0
C361 C 0.68372 0.83288 0.29324 0.0
C362 C 0.66306 0.83009 0.28996 0.0
C363 C 0.69033 0.8396 0.26592 0.0
C364 C 0.65599 0.83182 0.27469 0.0
C365 C 0.69736 0.83779 0.28118 0.0
C366 C 0.6695 0.83646 0.26247 0.0
C367 C 0.69103 0.8304 0.3091 0.0
O368 O 0.6796 0.80923 0.37357 0.0
O369 O 0.70133 0.82606 0.35424 0.0
C370 C 0.69756 0.81562 0.3669 0.0
O371 O 0.68706 0.85951 0.34854 0.0
O372 O 0.64183 0.80343 0.39086 0.0
O373 O 0.64814 0.83602 0.39098 0.0
O374 O 0.6889 0.85221 0.37411 0.0
C375 C 0.6948 0.86594 0.36349 0.0
O376 O 0.6445 0.8243 0.33146 0.0
O377 O 0.64174 0.83694 0.35607 0.0
O378 O 0.63262 0.79319 0.355 0.0
O379 O 0.69711 0.84642 0.31988 0.0
O380 O 0.679 0.81206 0.31448 0.0
O381 O 0.65707 0.79127 0.34021 0.0
C382 C 0.65068 0.82379 0.41566 0.0
C383 C 0.67301 0.83478 0.42003 0.0
C384 C 0.64465 0.82118 0.44342 0.0
C385 C 0.68111 0.83902 0.43605 0.0
C386 C 0.63658 0.81702 0.42742 0.0
C387 C 0.66701 0.83223 0.44793 0.0
C388 C 0.6419 0.81937 0.39893 0.0
C389 C 0.63606 0.83266 0.34068 0.0
H390 H 0.65236 0.82641 0.29917 0.0
H391 H 0.70103 0.84294 0.25673 0.0
H392 H 0.63996 0.82956 0.27245 0.0
H393 H 0.71335 0.83998 0.28353 0.0
H394 H 0.68413 0.84005 0.41105 0.0
H395 H 0.63336 0.81597 0.45227 0.0
H396 H 0.6984 0.84733 0.43912 0.0
H397 H 0.6193 0.80856 0.42423 0.0
Eu398 Eu 0.18558 0.84258 0.37362 0.0
Eu399 Eu 0.16711 0.84529 0.33715 0.0
C400 C 0.18823 0.88607 0.36349 0.0
C401 C 0.18969 0.84135 0.41818 0.0
C402 C 0.17465 0.84822 0.41934 0.0
C403 C 0.1891 0.83645 0.44622 0.0
C404 C 0.16673 0.84902 0.43382 0.0
C405 C 0.19696 0.83561 0.43171 0.0
C406 C 0.17372 0.84298 0.44743 0.0
C407 C 0.19669 0.83883 0.40272 0.0
O408 O 0.20275 0.8583 0.33666 0.0
O409 O 0.21125 0.84524 0.35846 0.0
C410 C 0.21595 0.85409 0.34508 0.0
O411 O 0.16527 0.8091 0.36152 0.0
O412 O 0.16881 0.86316 0.31693 0.0
O413 O 0.14398 0.82986 0.31607 0.0
O414 O 0.17005 0.81582 0.33569 0.0
C415 C 0.16497 0.80269 0.3467 0.0
O416 O 0.15556 0.84414 0.37632 0.0
O417 O 0.13826 0.8303 0.35127 0.0
O418 O 0.1736 0.8755 0.35137 0.0
O419 O 0.18213 0.8229 0.39294 0.0
O420 O 0.20713 0.85617 0.3957 0.0
O421 O 0.1973 0.87742 0.37187 0.0
C422 C 0.15863 0.84244 0.29225 0.0
C423 C 0.17142 0.83303 0.29023 0.0
C424 C 0.15634 0.84523 0.26392 0.0
C425 C 0.1766 0.82968 0.27512 0.0
C426 C 0.15111 0.8485 0.27902 0.0
C427 C 0.16917 0.83581 0.26178 0.0
C428 C 0.1535 0.84647 0.30812 0.0
C429 C 0.13791 0.83484 0.36644 0.0
H430 H 0.16876 0.85258 0.40898 0.0
H431 H 0.19507 0.832 0.45649 0.0
H432 H 0.15473 0.85386 0.43426 0.0
H433 H 0.20852 0.83022 0.431 0.0
H434 H 0.17752 0.82842 0.30036 0.0
H435 H 0.15018 0.84992 0.25388 0.0
H436 H 0.18673 0.82265 0.27393 0.0
H437 H 0.14125 0.85582 0.28038 0.0
Eu438 Eu 0.82113 0.65594 0.66996 0.0
Eu439 Eu 0.834 0.67685 0.70768 0.0
C440 C 0.81518 0.69585 0.68198 0.0
C441 C 0.81885 0.65144 0.62499 0.0
C442 C 0.82873 0.67375 0.62499 0.0
C443 C 0.82051 0.64819 0.59656 0.0
C444 C 0.83453 0.68323 0.61085 0.0
C445 C 0.81473 0.63874 0.6107 0.0
C446 C 0.83058 0.67057 0.59645 0.0
C447 C 0.81384 0.64144 0.63993 0.0
O448 O 0.79805 0.65497 0.70428 0.0
O449 O 0.79471 0.63184 0.68315 0.0
C450 C 0.78697 0.6366 0.69539 0.0
O451 O 0.84196 0.6447 0.68213 0.0
O452 O 0.82816 0.69029 0.72924 0.0
O453 O 0.85568 0.6857 0.72945 0.0
O454 O 0.8314 0.6446 0.70684 0.0
C455 C 0.84006 0.63817 0.69634 0.0
O456 O 0.84979 0.68884 0.67026 0.0
O457 O 0.86469 0.69194 0.69559 0.0
O458 O 0.8284 0.70032 0.69488 0.0
O459 O 0.83044 0.64455 0.64926 0.0
O460 O 0.79989 0.64367 0.64771 0.0
O461 O 0.80789 0.6782 0.6724 0.0
C462 C 0.83834 0.68016 0.75312 0.0
C463 C 0.85191 0.67396 0.76091 0.0
C464 C 0.81505 0.66779 0.77438 0.0
C465 C 0.84705 0.66468 0.77518 0.0
C466 C 0.81991 0.67708 0.7601 0.0
C467 C 0.82854 0.66144 0.78211 0.0
C468 C 0.84363 0.69008 0.73798 0.0
C469 C 0.86646 0.69745 0.68103 0.0
H470 H 0.83211 0.68384 0.63595 0.0
H471 H 0.8175 0.63796 0.58577 0.0
H472 H 0.842 0.70047 0.6112 0.0
H473 H 0.8073 0.62151 0.61051 0.0
H474 H 0.86633 0.67624 0.75595 0.0
H475 H 0.80086 0.66588 0.77949 0.0
H476 H 0.85769 0.6598 0.7807 0.0
H477 H 0.80923 0.6819 0.75455 0.0
Eu478 Eu 0.34588 0.16229 0.6702 0.0
Eu479 Eu 0.32713 0.15538 0.70525 0.0
C480 C 0.3064 0.11737 0.67755 0.0
C481 C 0.35131 0.16991 0.62653 0.0
C482 C 0.32999 0.16554 0.62374 0.0
C483 C 0.35661 0.17762 0.59924 0.0
C484 C 0.32195 0.167 0.60872 0.0
C485 C 0.3646 0.17609 0.61424 0.0
C486 C 0.33516 0.17295 0.59627 0.0
C487 C 0.35971 0.16779 0.64212 0.0
O488 O 0.34968 0.14206 0.70512 0.0
O489 O 0.37123 0.16137 0.68651 0.0
C490 C 0.36766 0.14953 0.69835 0.0
O491 O 0.35641 0.19473 0.68297 0.0
O492 O 0.31457 0.1359 0.72488 0.0
O493 O 0.31862 0.16774 0.72584 0.0
O494 O 0.35887 0.18616 0.70809 0.0
C495 C 0.36429 0.20045 0.69792 0.0
O496 O 0.31477 0.16216 0.66577 0.0
O497 O 0.30955 0.169 0.69147 0.0
O498 O 0.30209 0.12755 0.68868 0.0
O499 O 0.36513 0.18343 0.65309 0.0
O500 O 0.34896 0.14915 0.6474 0.0
O501 O 0.32495 0.12669 0.67155 0.0
C502 C 0.3237 0.15565 0.75002 0.0
C503 C 0.34561 0.17067 0.75416 0.0
C504 C 0.31954 0.1496 0.7777 0.0
C505 C 0.35438 0.17528 0.77003 0.0
C506 C 0.31077 0.14509 0.76186 0.0
C507 C 0.34142 0.16482 0.78198 0.0
C508 C 0.31401 0.15111 0.7335 0.0
C509 C 0.30512 0.16776 0.67603 0.0
H510 H 0.31953 0.16083 0.63314 0.0
H511 H 0.36709 0.18194 0.58985 0.0
H512 H 0.30543 0.16349 0.60685 0.0
H513 H 0.38108 0.17949 0.61621 0.0
H514 H 0.35587 0.17891 0.74514 0.0
H515 H 0.30909 0.14145 0.78663 0.0
H516 H 0.37134 0.18689 0.77294 0.0
H517 H 0.29383 0.13348 0.75885 0.0
Eu518 Eu 0.85006 0.17671 0.7036 0.0
Eu519 Eu 0.83417 0.18126 0.66717 0.0
C520 C 0.85575 0.22095 0.69317 0.0
C521 C 0.85095 0.17057 0.74771 0.0
C522 C 0.83306 0.1733 0.74878 0.0
C523 C 0.85054 0.16403 0.77546 0.0
C524 C 0.82415 0.17171 0.76314 0.0
C525 C 0.8595 0.16571 0.76108 0.0
C526 C 0.83293 0.16728 0.7767 0.0
C527 C 0.86115 0.17351 0.73287 0.0
O528 O 0.87016 0.19486 0.66854 0.0
O529 O 0.87507 0.17724 0.68861 0.0
C530 C 0.88172 0.18815 0.6763 0.0
O531 O 0.82695 0.14364 0.69155 0.0
O532 O 0.83864 0.19985 0.64694 0.0
O533 O 0.81228 0.16706 0.64542 0.0
O534 O 0.83585 0.15109 0.66653 0.0
C535 C 0.82797 0.13733 0.67702 0.0
O536 O 0.81911 0.17652 0.70608 0.0
O537 O 0.80414 0.16838 0.68 0.0
O538 O 0.83931 0.21011 0.68235 0.0
O539 O 0.85195 0.15739 0.72188 0.0
O540 O 0.86674 0.19163 0.7271 0.0
O541 O 0.8655 0.2118 0.70005 0.0
C542 C 0.829 0.17924 0.62218 0.0
C543 C 0.83787 0.16589 0.6203 0.0
C544 C 0.8314 0.1848 0.59429 0.0
C545 C 0.8433 0.16189 0.60546 0.0
C546 C 0.82585 0.18869 0.60911 0.0
C547 C 0.84016 0.17133 0.59228 0.0
C548 C 0.82329 0.18364 0.63773 0.0
C549 C 0.80264 0.17025 0.69533 0.0
H550 H 0.82618 0.177 0.73856 0.0
H551 H 0.85781 0.16081 0.78571 0.0
H552 H 0.81043 0.17402 0.76364 0.0
H553 H 0.87333 0.16358 0.76047 0.0
H554 H 0.84062 0.1586 0.63031 0.0
H555 H 0.82857 0.19214 0.58435 0.0
H556 H 0.85025 0.15166 0.60435 0.0
H557 H 0.81907 0.19906 0.61035 0.0
H558 H 0.29301 0.85211 0.10518 0.0
H559 H 0.3261 0.87943 0.09556 0.0
H560 H 0.29492 0.86089 0.04768 0.0
H561 H 0.26163 0.83408 0.0572 0.0
H562 H 0.33459 0.8622 0.05101 0.0
H563 H 0.30481 0.90667 0.06527 0.0
H564 H 0.28946 0.92234 0.08318 0.0
H565 H 0.34728 0.9502 0.11542 0.0
H566 H 0.36287 0.93443 0.0978 0.0
H567 H 0.41922 0.94357 0.0143 0.0
H568 H 0.38428 0.91916 0.0232 0.0
H569 H 0.40997 0.94567 0.07166 0.0
H570 H 0.4445 0.9707 0.06274 0.0
H571 H 0.37213 0.94023 0.06763 0.0
H572 H 0.4017 0.89518 0.05503 0.0
H573 H 0.41756 0.87884 0.03825 0.0
H574 H 0.36121 0.85122 1.00452 0.0
H575 H 0.34513 0.86762 0.02101 0.0
C576 C 0.29303 0.85414 0.09265 0.0
C577 C 0.27467 0.84074 0.08196 0.0
C578 C 0.31199 0.86969 0.08716 0.0
C579 C 0.31296 0.8721 0.0709 0.0
C580 C 0.29455 0.85916 0.06026 0.0
C581 C 0.27557 0.84378 0.06574 0.0
C582 C 0.33343 0.88742 0.06484 0.0
C583 C 0.34269 0.87932 0.05446 0.0
C584 C 0.34423 0.90963 0.0697 0.0
C585 C 0.33492 0.91919 0.08028 0.0
C586 C 0.31418 0.91598 0.07624 0.0
C587 C 0.30545 0.92491 0.08633 0.0
C588 C 0.31737 0.93721 0.10045 0.0
C589 C 0.33806 0.94065 0.10449 0.0
C590 C 0.34686 0.93173 0.09445 0.0
C591 C 0.4174 0.94412 0.02684 0.0
C592 C 0.43462 0.95901 0.03781 0.0
C593 C 0.39743 0.93011 0.03195 0.0
C594 C 0.39449 0.93028 0.04817 0.0
C595 C 0.41174 0.94519 0.0591 0.0
C596 C 0.43152 0.95947 0.05398 0.0
C597 C 0.37352 0.91505 0.05382 0.0
C598 C 0.36411 0.92314 0.06413 0.0
C599 C 0.36271 0.89274 0.04908 0.0
C600 C 0.37231 0.8828 0.03918 0.0
C601 C 0.39276 0.88574 0.04398 0.0
C602 C 0.40178 0.87645 0.03453 0.0
C603 C 0.39042 0.86405 0.02031 0.0
C604 C 0.37 0.86086 0.01553 0.0
C605 C 0.36092 0.87013 0.02493 0.0
H606 H 0.39744 0.85688 0.01301 0.0
H607 H 0.31059 0.94412 0.10824 0.0
H608 H 0.19913 0.46305 0.07071 0.0
H609 H 0.17202 0.47156 0.06047 0.0
H610 H 0.12538 0.42434 0.08733 0.0
H611 H 0.15204 0.41505 0.097 0.0
H612 H 0.10743 0.42149 0.0587 0.0
H613 H 0.15104 0.47886 0.09938 0.0
H614 H 0.18477 0.50878 0.11325 0.0
H615 H 0.19594 0.54276 0.07187 0.0
H616 H 0.1624 0.5129 0.05767 0.0
H617 H 0.03004 0.45526 0.0548 0.0
H618 H 0.05772 0.44712 0.06423 0.0
H619 H 0.10155 0.4914 0.03429 0.0
H620 H 0.07404 0.49978 0.02484 0.0
H621 H 0.12113 0.496 0.064 0.0
H622 H 0.07674 0.43836 0.02361 0.0
H623 H 0.04268 0.40839 0.01019 0.0
H624 H 0.03264 0.37484 0.05173 0.0
H625 H 0.0665 0.40476 0.06549 0.0
C626 C 0.18306 0.45434 0.07433 0.0
C627 C 0.17786 0.43846 0.08478 0.0
C628 C 0.16762 0.45938 0.0686 0.0
C629 C 0.14672 0.44882 0.07331 0.0
C630 C 0.14142 0.4328 0.08358 0.0
C631 C 0.15678 0.42767 0.08925 0.0
C632 C 0.13026 0.45427 0.06746 0.0
C633 C 0.11035 0.43775 0.06005 0.0
C634 C 0.13418 0.47555 0.06889 0.0
C635 C 0.15432 0.49355 0.07741 0.0
C636 C 0.16077 0.49264 0.0932 0.0
C637 C 0.17984 0.5096 0.10112 0.0
C638 C 0.19252 0.52764 0.09343 0.0
C639 C 0.18612 0.52877 0.07781 0.0
C640 C 0.16707 0.51184 0.06982 0.0
C641 C 0.04555 0.4633 0.0502 0.0
C642 C 0.04975 0.47812 0.03899 0.0
C643 C 0.06134 0.45855 0.05557 0.0
C644 C 0.08163 0.46848 0.04984 0.0
C645 C 0.086 0.48352 0.03885 0.0
C646 C 0.0702 0.48823 0.03342 0.0
C647 C 0.09832 0.46321 0.05533 0.0
C648 C 0.11826 0.47975 0.06265 0.0
C649 C 0.09439 0.44194 0.0539 0.0
C650 C 0.07405 0.4239 0.04563 0.0
C651 C 0.06718 0.42467 0.02993 0.0
C652 C 0.04793 0.40768 0.02225 0.0
C653 C 0.03547 0.38975 0.03012 0.0
C654 C 0.04228 0.38876 0.04566 0.0
C655 C 0.06151 0.40572 0.0534 0.0
H656 H 0.02057 0.37661 0.02415 0.0
H657 H 0.20728 0.54075 0.09959 0.0
H658 H 0.60051 0.75634 0.05189 0.0
H659 H 0.58891 0.71891 0.04382 0.0
H660 H 0.55623 0.70021 0.08583 0.0
H661 H 0.56651 0.73737 0.0936 0.0
H662 H 0.58639 0.68286 0.0763 0.0
H663 H 0.52497 0.69046 0.05795 0.0
H664 H 0.50856 0.70822 0.04339 0.0
H665 H 0.53081 0.69628 1.00033 0.0
H666 H 0.54765 0.67873 0.01472 0.0
H667 H 0.52678 0.57069 0.05909 0.0
H668 H 0.53899 0.60816 0.06758 0.0
H669 H 0.54385 0.62231 0.01879 0.0
H670 H 0.53019 0.5845 0.01025 0.0
H671 H 0.52893 0.64315 0.03171 0.0
H672 H 0.58935 0.63545 0.04737 0.0
H673 H 0.60922 0.61977 0.06025 0.0
H674 H 0.59399 0.63403 0.1058 0.0
H675 H 0.57379 0.64956 0.09317 0.0
C676 C 0.59063 0.74431 0.05936 0.0
C677 C 0.58432 0.74998 0.07336 0.0
C678 C 0.58421 0.72296 0.05478 0.0
C679 C 0.57173 0.70694 0.06424 0.0
C680 C 0.56597 0.71247 0.07845 0.0
C681 C 0.572 0.73376 0.0829 0.0
C682 C 0.56409 0.68427 0.05902 0.0
C683 C 0.57365 0.67399 0.06669 0.0
C684 C 0.54809 0.67317 0.0461 0.0
C685 C 0.53777 0.6835 0.03744 0.0
C686 C 0.52654 0.69181 0.04541 0.0
C687 C 0.51712 0.70179 0.03718 0.0
C688 C 0.51869 0.70343 0.02095 0.0
C689 C 0.52963 0.69503 0.01291 0.0
C690 C 0.5391 0.68505 0.02109 0.0
C691 C 0.53044 0.58185 0.05021 0.0
C692 C 0.52763 0.5748 0.03403 0.0
C693 C 0.53759 0.6033 0.05506 0.0
C694 C 0.54288 0.61829 0.04388 0.0
C695 C 0.53992 0.61115 0.02768 0.0
C696 C 0.53215 0.58956 0.02279 0.0
C697 C 0.55111 0.6413 0.04902 0.0
C698 C 0.5417 0.6518 0.04132 0.0
C699 C 0.56771 0.65277 0.06166 0.0
C700 C 0.57988 0.64348 0.0693 0.0
C701 C 0.59011 0.63511 0.06012 0.0
C702 C 0.60145 0.62627 0.06738 0.0
C703 C 0.60282 0.62586 0.08382 0.0
C704 C 0.5929 0.63434 0.09306 0.0
C705 C 0.58152 0.64318 0.08586 0.0
H706 H 0.61161 0.61901 0.08942 0.0
H707 H 0.51139 0.71117 0.0146 0.0
H708 H 0.8253 0.26855 0.93647 0.0
H709 H 0.85429 0.30502 0.94529 0.0
H710 H 0.86085 0.28618 0.99155 0.0
H711 H 0.83296 0.24934 0.98266 0.0
H712 H 0.85412 0.32634 0.98662 0.0
H713 H 0.89748 0.29287 0.97693 0.0
H714 H 0.90834 0.27166 0.96014 0.0
H715 H 0.92445 0.3164 0.92521 0.0
H716 H 0.91335 0.3377 0.94171 0.0
H717 H 0.94377 0.41808 0.02625 0.0
H718 H 0.9172 0.3814 0.01592 0.0
H719 H 0.93615 0.39525 0.96887 0.0
H720 H 0.96359 0.43184 0.97936 0.0
H721 H 0.92918 0.35748 0.97277 0.0
H722 H 0.88883 0.39234 0.98142 0.0
H723 H 0.87669 0.41407 0.99617 0.0
H724 H 0.85281 0.36803 0.03016 0.0
H725 H 0.8651 0.34618 0.01574 0.0
C726 C 0.83315 0.27193 0.94842 0.0
C727 C 0.82661 0.25581 0.95882 0.0
C728 C 0.84961 0.29287 0.95346 0.0
C729 C 0.8596 0.29818 0.96904 0.0
C730 C 0.8532 0.28231 0.97949 0.0
C731 C 0.83709 0.26129 0.97438 0.0
C732 C 0.87636 0.32047 0.97459 0.0
C733 C 0.87062 0.33316 0.98379 0.0
C734 C 0.89757 0.32943 0.97032 0.0
C735 C 0.90432 0.3167 0.96045 0.0
C736 C 0.9031 0.29804 0.96559 0.0
C737 C 0.90936 0.28604 0.95615 0.0
C738 C 0.91701 0.29263 0.94159 0.0
C739 C 0.91848 0.31128 0.93647 0.0
C740 C 0.91222 0.32333 0.94587 0.0
C741 C 0.94228 0.41333 0.0137 0.0
C742 C 0.95564 0.4279 1.00358 0.0
C743 C 0.92699 0.39235 1.00778 0.0
C744 C 0.92424 0.38562 0.99152 0.0
C745 C 0.93786 0.40005 0.98144 0.0
C746 C 0.95351 0.42097 0.98743 0.0
C747 C 0.90715 0.36355 0.98515 0.0
C748 C 0.91273 0.35085 0.97566 0.0
C749 C 0.88561 0.35469 0.98891 0.0
C750 C 0.87806 0.36771 0.99757 0.0
C751 C 0.88112 0.38692 0.9921 0.0
C752 C 0.87419 0.39925 1.00039 0.0
C753 C 0.86402 0.39245 0.01411 0.0
C754 C 0.86071 0.37328 0.01954 0.0
C755 C 0.86763 0.36091 0.0113 0.0
H756 H 0.85868 0.40202 0.02052 0.0
H757 H 0.92185 0.28332 0.9343 0.0
H758 H 0.74045 0.57247 0.981 0.0
H759 H 0.7066 0.56566 0.99069 0.0
H760 H 0.67416 0.54188 0.94336 0.0
H761 H 0.70791 0.54807 0.93357 0.0
H762 H 0.66262 0.56917 0.95999 0.0
H763 H 0.66889 0.50698 0.96796 0.0
H764 H 0.68736 0.48824 0.97776 0.0
H765 H 0.69028 0.51306 0.02557 0.0
H766 H 0.6721 0.53223 0.01602 0.0
H767 H 0.55557 0.51918 0.97906 0.0
H768 H 0.58948 0.52706 0.96902 0.0
H769 H 0.61885 0.53684 0.01698 0.0
H770 H 0.58437 0.52766 0.02702 0.0
H771 H 0.63264 0.51729 0.99997 0.0
H772 H 0.6271 0.57974 0.9929 0.0
H773 H 0.60999 0.60005 0.98375 0.0
H774 H 0.60715 0.57696 0.93543 0.0
H775 H 0.62402 0.55633 0.9443 0.0
C776 C 0.72612 0.56569 0.97262 0.0
C777 C 0.72688 0.56054 0.95652 0.0
C778 C 0.7068 0.56191 0.97819 0.0
C779 C 0.68782 0.553 0.96778 0.0
C780 C 0.68865 0.54874 0.95159 0.0
C781 C 0.70797 0.55238 0.94601 0.0
C782 C 0.66701 0.54749 0.97394 0.0
C783 C 0.65588 0.55764 0.96859 0.0
C784 C 0.65859 0.5329 0.98549 0.0
C785 C 0.66932 0.5212 0.99126 0.0
C786 C 0.67362 0.50858 0.98055 0.0
C787 C 0.68401 0.49785 0.98606 0.0
C788 C 0.69004 0.4995 1.00228 0.0
C789 C 0.68562 0.51182 0.01302 0.0
C790 C 0.67526 0.52261 1.00756 0.0
C791 C 0.56926 0.52301 0.98747 0.0
C792 C 0.5674 0.52298 1.00384 0.0
C793 C 0.58874 0.52768 0.98172 0.0
C794 C 0.60703 0.53319 0.99222 0.0
C795 C 0.60506 0.53279 1.0086 0.0
C796 C 0.58537 0.52756 0.01435 0.0
C797 C 0.62806 0.53903 0.9861 0.0
C798 C 0.63929 0.5289 0.99142 0.0
C799 C 0.63671 0.55387 0.97466 0.0
C800 C 0.62666 0.56635 0.96929 0.0
C801 C 0.62271 0.5789 0.98033 0.0
C802 C 0.61307 0.59048 0.97519 0.0
C803 C 0.60745 0.58976 0.95902 0.0
C804 C 0.6115 0.5775 0.94795 0.0
C805 C 0.62113 0.56588 0.95303 0.0
H806 H 0.59998 0.59873 0.95507 0.0
H807 H 0.69808 0.49118 1.00652 0.0
H808 H 0.44955 0.18986 0.9948 0.0
H809 H 0.46059 0.16528 1.0046 0.0
H810 H 0.4124 0.11436 0.97088 0.0
H811 H 0.40084 0.13871 0.96132 0.0
H812 H 0.41319 0.10089 1.0 0.0
H813 H 0.46463 0.14026 0.96392 0.0
H814 H 0.49192 0.17278 0.9533 0.0
H815 H 0.53222 0.19166 0.99748 0.0
H816 H 0.50503 0.15938 1.00844 0.0
H817 H 0.45082 0.02768 0.99735 0.0
H818 H 0.43985 0.0536 0.99136 0.0
H819 H 0.48973 0.10047 0.02638 0.0
H820 H 0.50105 0.0746 0.03241 0.0
H821 H 0.48868 0.11714 0.99864 0.0
H822 H 0.43807 0.07641 0.03416 0.0
H823 H 0.41079 0.04373 0.0446 0.0
H824 H 0.36886 0.02725 1.0015 0.0
H825 H 0.39602 0.05969 0.9907 0.0
C826 C 0.44115 0.17337 0.98958 0.0
C827 C 0.42436 0.16622 0.97726 0.0
C828 C 0.4476 0.1594 0.9951 0.0
C829 C 0.43746 0.13806 0.98835 0.0
C830 C 0.42047 0.13079 0.97622 0.0
C831 C 0.41402 0.14475 0.97068 0.0
C832 C 0.44468 0.12335 0.99382 0.0
C833 C 0.42963 0.10432 0.99955 0.0
C834 C 0.46629 0.12816 0.99365 0.0
C835 C 0.48269 0.14752 0.98705 0.0
C836 C 0.47924 0.15143 0.97141 0.0
C837 C 0.4947 0.1698 0.96532 0.0
C838 C 0.51376 0.18431 0.97472 0.0
C839 C 0.51743 0.18043 0.99022 0.0
C840 C 0.50201 0.16209 0.99637 0.0
C841 C 0.45947 0.04346 1.00385 0.0
C842 C 0.47681 0.04904 0.0154 0.0
C843 C 0.45308 0.05823 1.00045 0.0
C844 C 0.4638 0.07886 1.00856 0.0
C845 C 0.4812 0.08458 0.02004 0.0
C846 C 0.4876 0.06976 0.02349 0.0
C847 C 0.45713 0.09455 1.00466 0.0
C848 C 0.47227 0.11378 0.99921 0.0
C849 C 0.4356 0.08991 1.00509 0.0
C850 C 0.41918 0.0704 0.01156 0.0
C851 C 0.4231 0.06574 0.02685 0.0
C852 C 0.40765 0.04727 0.03284 0.0
C853 C 0.38812 0.0334 0.0237 0.0
C854 C 0.384 0.038 1.00856 0.0
C855 C 0.39941 0.05644 1.0025 0.0
H856 H 0.37618 0.01911 0.02837 0.0
H857 H 0.52572 0.19852 0.96999 0.0
H858 H 0.72653 0.13052 0.97277 0.0
H859 H 0.68949 0.10586 0.97832 0.0
H860 H 0.67289 0.15471 0.97121 0.0
H861 H 0.70997 0.17935 0.96581 0.0
H862 H 0.6609 0.13845 0.99858 0.0
H863 H 0.65294 0.11039 0.94467 0.0
H864 H 0.66194 0.0956 0.9214 0.0
H865 H 0.65269 0.04176 0.94577 0.0
H866 H 0.64393 0.05638 0.96929 0.0
H867 H 0.54237 0.04474 0.98489 0.0
H868 H 0.57694 0.06803 0.9753 0.0
H869 H 0.60934 0.0762 0.02184 0.0
H870 H 0.57467 0.05294 0.03164 0.0
H871 H 0.61223 0.06442 0.97338 0.0
H872 H 0.65239 0.12729 0.02809 0.0
H873 H 0.64188 0.14294 0.04995 0.0
H874 H 0.58429 0.12909 0.02118 0.0
H875 H 0.5946 0.11363 0.99909 0.0
C876 C 0.71475 0.1357 0.97199 0.0
C877 C 0.7208 0.15659 0.96869 0.0
C878 C 0.69365 0.12167 0.97519 0.0
C879 C 0.67838 0.12842 0.97515 0.0
C880 C 0.68438 0.14916 0.97132 0.0
C881 C 0.70545 0.16314 0.96811 0.0
C882 C 0.65666 0.11445 0.9802 0.0
C883 C 0.65027 0.12227 0.99304 0.0
C884 C 0.64267 0.09341 0.97291 0.0
C885 C 0.64798 0.08459 0.9588 0.0
C886 C 0.65301 0.09549 0.94512 0.0
C887 C 0.65803 0.08712 0.93187 0.0
C888 C 0.65794 0.06779 0.93212 0.0
C889 C 0.65279 0.05676 0.94561 0.0
C890 C 0.64777 0.06507 0.9589 0.0
C891 C 0.55679 0.0515 0.99315 0.0
C892 C 0.55568 0.04701 0.00909 0.0
C893 C 0.57659 0.06475 0.98759 0.0
C894 C 0.59572 0.07395 0.99785 0.0
C895 C 0.59474 0.06945 0.01375 0.0
C896 C 0.57491 0.05613 0.01933 0.0
C897 C 0.61665 0.08835 0.99187 0.0
C898 C 0.62291 0.08059 0.97891 0.0
C899 C 0.63039 0.10958 0.99887 0.0
C900 C 0.62418 0.11911 0.01201 0.0
C901 C 0.63753 0.12766 0.02642 0.0
C902 C 0.6316 0.13649 0.03885 0.0
C903 C 0.6124 0.13694 0.03697 0.0
C904 C 0.59912 0.12865 0.02264 0.0
C905 C 0.60499 0.11983 0.01017 0.0
H906 H 0.60783 0.14377 0.04662 0.0
H907 H 0.66182 0.06133 0.92185 0.0
H908 H 0.80107 0.50968 0.96583 0.0
H909 H 0.82938 0.50072 0.9713 0.0
H910 H 0.87777 0.56563 0.96571 0.0
H911 H 0.8493 0.57463 0.96029 0.0
H912 H 0.88634 0.53273 0.95268 0.0
H913 H 0.86761 0.55498 1.00113 0.0
H914 H 0.84222 0.55357 0.01986 0.0
H915 H 0.82167 0.48755 0.0246 0.0
H916 H 0.84673 0.48849 1.00571 0.0
H917 H 0.97534 0.53186 0.99304 0.0
H918 H 0.94813 0.5404 0.98302 0.0
H919 H 0.89897 0.48462 1.00201 0.0
H920 H 0.92665 0.47732 0.0132 0.0
H921 H 0.89065 0.5134 1.00736 0.0
H922 H 0.90923 0.49016 0.9596 0.0
H923 H 0.93333 0.49031 0.94011 0.0
H924 H 0.95254 0.55541 0.93293 0.0
H925 H 0.92885 0.55577 0.95254 0.0
C926 C 0.81774 0.52184 0.96535 0.0
C927 C 0.82317 0.54275 0.96256 0.0
C928 C 0.83386 0.51676 0.96855 0.0
C929 C 0.85566 0.53257 0.96906 0.0
C930 C 0.86104 0.55321 0.96533 0.0
C931 C 0.84485 0.55833 0.96222 0.0
C932 C 0.87268 0.528 0.97489 0.0
C933 C 0.88749 0.52867 0.96467 0.0
C934 C 0.87379 0.52226 0.99041 0.0
C935 C 0.85889 0.52175 1.0019 0.0
C936 C 0.85756 0.54012 1.00607 0.0
C937 C 0.84325 0.53941 0.01673 0.0
C938 C 0.8303 0.52047 0.02339 0.0
C939 C 0.83168 0.50221 0.01943 0.0
C940 C 0.84595 0.50282 1.00876 0.0
C941 C 0.95869 0.52153 0.99506 0.0
C942 C 0.95295 0.50399 1.00385 0.0
C943 C 0.94307 0.52623 0.98918 0.0
C944 C 0.92126 0.51288 0.99135 0.0
C945 C 0.91561 0.49522 1.00012 0.0
C946 C 0.93137 0.49099 1.00649 0.0
C947 C 0.90442 0.5177 0.98508 0.0
C948 C 0.88959 0.51722 0.99529 0.0
C949 C 0.90316 0.5233 0.96945 0.0
C950 C 0.91737 0.52303 0.95763 0.0
C951 C 0.9187 0.50454 0.95394 0.0
C952 C 0.93228 0.50454 0.94287 0.0
C953 C 0.94445 0.52287 0.93531 0.0
C954 C 0.9431 0.54123 0.9388 0.0
C955 C 0.92959 0.54134 0.94988 0.0
H956 H 0.95489 0.52285 0.92671 0.0
H957 H 0.81923 0.51995 0.03164 0.0
H958 H 0.41037 0.26946 1.00827 0.0
H959 H 0.42161 0.30741 1.00855 0.0
H960 H 0.43615 0.30639 0.96006 0.0
H961 H 0.42521 0.26824 0.95997 0.0
H962 H 0.46829 0.34005 0.9779 0.0
H963 H 0.3925 0.31085 0.96919 0.0
H964 H 0.35436 0.28795 0.97345 0.0
H965 H 0.36699 0.31918 0.02062 0.0
H966 H 0.40528 0.34207 0.01673 0.0
H967 H 0.49098 0.44912 0.98071 0.0
H968 H 0.47513 0.41078 0.97263 0.0
H969 H 0.45836 0.39688 0.0201 0.0
H970 H 0.47394 0.43496 0.02825 0.0
H971 H 0.42504 0.37085 0.99773 0.0
H972 H 0.50156 0.39616 1.00733 0.0
H973 H 0.53975 0.41897 1.00314 0.0
H974 H 0.52524 0.39493 0.95386 0.0
H975 H 0.48688 0.37217 0.95772 0.0
C976 C 0.41567 0.27733 0.99762 0.0
C977 C 0.41683 0.26618 0.98406 0.0
C978 C 0.422 0.29894 0.99775 0.0
C979 C 0.42941 0.30969 0.98424 0.0
C980 C 0.43036 0.29838 0.97057 0.0
C981 C 0.42406 0.27668 0.97048 0.0
C982 C 0.43734 0.333 0.98491 0.0
C983 C 0.45866 0.34677 0.98188 0.0
C984 C 0.42488 0.3418 0.9903 0.0
C985 C 0.40181 0.32811 0.99269 0.0
C986 C 0.38719 0.31274 0.98051 0.0
C987 C 0.36553 0.29978 0.98285 0.0
C988 C 0.35827 0.30209 0.9973 0.0
C989 C 0.37264 0.31741 0.00943 0.0
C990 C 0.39432 0.33041 1.00715 0.0
C991 C 0.48395 0.4379 0.98944 0.0
C992 C 0.48375 0.44511 1.00514 0.0
C993 C 0.47493 0.41602 0.9848 0.0
C994 C 0.46563 0.40102 0.99579 0.0
C995 C 0.46539 0.40819 0.01143 0.0
C996 C 0.4744 0.43 0.01608 0.0
C997 C 0.45611 0.37779 0.99118 0.0
C998 C 0.43449 0.36407 0.99346 0.0
C999 C 0.46827 0.36907 0.98507 0.0
C1000 C 0.49133 0.38267 0.98277 0.0
C1001 C 0.50649 0.39588 0.99557 0.0
C1002 C 0.52817 0.40877 0.99326 0.0
C1003 C 0.53491 0.40846 0.97823 0.0
C1004 C 0.51999 0.39519 0.96549 0.0
C1005 C 0.49828 0.38229 0.96773 0.0
H1006 H 0.5517 0.41845 0.97647 0.0
H1007 H 0.3415 0.29203 0.99909 0.0
H1008 H 0.17299 0.72569 0.04748 0.0
H1009 H 0.14101 0.69 0.04416 0.0
H1010 H 0.1418 0.6899 0.09503 0.0
H1011 H 0.17438 0.72574 0.0983 0.0
H1012 H 0.13658 0.65326 0.08179 0.0
H1013 H 0.10207 0.69366 0.07258 0.0
H1014 H 0.09596 0.721 0.06115 0.0
H1015 H 0.08557 0.68938 0.01441 0.0
H1016 H 0.09191 0.66202 0.02551 0.0
H1017 H 0.04042 0.55042 0.06548 0.0
H1018 H 0.06523 0.58781 0.07574 0.0
H1019 H 0.07723 0.60433 0.02797 0.0
H1020 H 0.05212 0.56726 0.01763 0.0
H1021 H 0.07213 0.63333 0.04439 0.0
H1022 H 0.11278 0.59682 0.05374 0.0
H1023 H 0.11897 0.56952 0.06521 0.0
H1024 H 0.11732 0.59405 0.11204 0.0
H1025 H 0.11089 0.62136 0.10082 0.0
C1026 C 0.16609 0.71814 0.05793 0.0
C1027 C 0.17582 0.72829 0.07311 0.0
C1028 C 0.14778 0.69781 0.05605 0.0
C1029 C 0.13874 0.68736 0.06935 0.0
C1030 C 0.14841 0.69771 0.08461 0.0
C1031 C 0.16688 0.71812 0.08648 0.0
C1032 C 0.12012 0.66512 0.06706 0.0
C1033 C 0.12225 0.64896 0.0739 0.0
C1034 C 0.1015 0.65943 0.05664 0.0
C1035 C 0.09758 0.67582 0.04989 0.0
C1036 C 0.09862 0.6926 0.05985 0.0
C1037 C 0.09509 0.7081 0.05343 0.0
C1038 C 0.0904 0.70694 0.03706 0.0
C1039 C 0.08919 0.69026 0.02708 0.0
C1040 C 0.09272 0.67473 0.03344 0.0
C1041 C 0.04834 0.56203 0.05716 0.0
C1042 C 0.04433 0.55583 0.04072 0.0
C1043 C 0.06256 0.58339 0.06305 0.0
C1044 C 0.07327 0.59887 0.05264 0.0
C1045 C 0.06912 0.59271 0.03624 0.0
C1046 C 0.05479 0.57146 0.03034 0.0
C1047 C 0.08902 0.62149 0.05861 0.0
C1048 C 0.08629 0.6377 0.05251 0.0
C1049 C 0.10704 0.62722 0.06971 0.0
C1050 C 0.11113 0.61096 0.07644 0.0
C1051 C 0.11361 0.5963 0.06648 0.0
C1052 C 0.11719 0.58085 0.07293 0.0
C1053 C 0.11848 0.58002 0.08933 0.0
C1054 C 0.11628 0.59469 0.09933 0.0
C1055 C 0.1127 0.61017 0.09293 0.0
H1056 H 0.12123 0.56803 0.09431 0.0
H1057 H 0.08768 0.71896 0.03212 0.0
H1058 H 0.28971 0.43053 0.09393 0.0
H1059 H 0.32704 0.44483 0.08746 0.0
H1060 H 0.31369 0.47247 0.04766 0.0
H1061 H 0.27658 0.45823 0.05413 0.0
H1062 H 0.3318 0.44819 0.03944 0.0
H1063 H 0.34524 0.504 0.08037 0.0
H1064 H 0.34439 0.51817 0.10727 0.0
H1065 H 0.38149 0.49177 0.12697 0.0
H1066 H 0.3823 0.47719 0.1002 0.0
H1067 H 0.43547 0.50447 0.01433 0.0
H1068 H 0.40069 0.49515 0.02367 0.0
H1069 H 0.42014 0.47936 0.06767 0.0
H1070 H 0.45534 0.48988 0.05873 0.0
H1071 H 0.39879 0.49727 0.07439 0.0
H1072 H 0.38509 0.44031 0.03541 0.0
H1073 H 0.38571 0.42388 0.00933 0.0
H1074 H 0.34864 0.4487 0.98703 0.0
H1075 H 0.34802 0.46551 0.01296 0.0
C1076 C 0.295 0.44003 0.08401 0.0
C1077 C 0.28055 0.44351 0.07456 0.0
C1078 C 0.31624 0.44817 0.08031 0.0
C1079 C 0.32317 0.45977 0.06709 0.0
C1080 C 0.30872 0.46358 0.0579 0.0
C1081 C 0.2876 0.45556 0.06164 0.0
C1082 C 0.34499 0.46686 0.06214 0.0
C1083 C 0.34647 0.45915 0.047 0.0
C1084 C 0.36409 0.48051 0.07221 0.0
C1085 C 0.36363 0.48932 0.0883 0.0
C1086 C 0.35305 0.50106 0.09045 0.0
C1087 C 0.35261 0.5092 0.10567 0.0
C1088 C 0.36283 0.50582 0.11882 0.0
C1089 C 0.37356 0.49435 0.11677 0.0
C1090 C 0.37402 0.48616 0.10158 0.0
C1091 C 0.43233 0.49908 0.02601 0.0
C1092 C 0.44808 0.49778 0.03575 0.0
C1093 C 0.41237 0.49362 0.03133 0.0
C1094 C 0.40746 0.48601 0.04627 0.0
C1095 C 0.4234 0.48512 0.0561 0.0
C1096 C 0.44353 0.49109 0.05095 0.0
C1097 C 0.3857 0.47873 0.05158 0.0
C1098 C 0.38417 0.48631 0.06679 0.0
C1099 C 0.36648 0.46456 0.0417 0.0
C1100 C 0.36668 0.45432 0.0261 0.0
C1101 C 0.37717 0.44236 0.02493 0.0
C1102 C 0.37752 0.43298 0.01018 0.0
C1103 C 0.36727 0.43529 0.99653 0.0
C1104 C 0.35659 0.44694 0.99761 0.0
C1105 C 0.35622 0.45639 0.01233 0.0
H1106 H 0.36756 0.42802 0.98512 0.0
H1107 H 0.36247 0.51214 0.13059 0.0
H1108 H 0.5796 0.85315 0.0821 0.0
H1109 H 0.56609 0.87819 0.07911 0.0
H1110 H 0.57459 0.8773 0.02925 0.0
H1111 H 0.58841 0.85273 0.03237 0.0
H1112 H 0.58756 0.91687 0.04159 0.0
H1113 H 0.52504 0.84694 0.04268 0.0
H1114 H 0.50228 0.8132 0.0541 0.0
H1115 H 0.49815 0.84848 0.09483 0.0
H1116 H 0.52115 0.88246 0.08374 0.0
H1117 H 0.52008 0.95322 0.00998 0.0
H1118 H 0.53505 0.93047 0.01645 0.0
H1119 H 0.52591 0.93763 0.06565 0.0
H1120 H 0.51064 0.96019 0.05929 0.0
H1121 H 0.51442 0.89661 0.0558 0.0
H1122 H 0.57512 0.9666 0.05355 0.0
H1123 H 0.59701 -0.0 0.04147 0.0
H1124 H 0.60412 0.96436 1.00245 0.0
H1125 H 0.58198 0.9307 0.01418 0.0
C1126 C 0.57876 0.8586 0.0706 0.0
C1127 C 0.58499 0.85127 0.05745 0.0
C1128 C 0.57096 0.87273 0.06886 0.0
C1129 C 0.56911 0.87943 0.0539 0.0
C1130 C 0.5759 0.87239 0.04089 0.0
C1131 C 0.58375 0.85838 0.04265 0.0
C1132 C 0.55961 0.8933 0.05157 0.0
C1133 C 0.5715 0.91236 0.04459 0.0
C1134 C 0.53885 0.88765 0.0558 0.0
C1135 C 0.52502 0.86724 0.06247 0.0
C1136 C 0.51942 0.84751 0.05413 0.0
C1137 C 0.50645 0.82834 0.06053 0.0
C1138 C 0.49883 0.8287 0.07521 0.0
C1139 C 0.50411 0.84823 0.08349 0.0
C1140 C 0.5171 0.86744 0.07714 0.0
C1141 C 0.52113 0.94988 0.02217 0.0
C1142 C 0.5143 0.95865 0.03413 0.0
C1143 C 0.52977 0.93694 0.02586 0.0
C1144 C 0.53191 0.93266 0.04158 0.0
C1145 C 0.52448 0.94081 0.05346 0.0
C1146 C 0.51579 0.95374 0.04979 0.0
C1147 C 0.54225 0.91998 0.04562 0.0
C1148 C 0.53055 0.9012 0.05293 0.0
C1149 C 0.56316 0.92584 0.04166 0.0
C1150 C 0.57675 0.9461 0.03469 0.0
C1151 C 0.58124 0.96587 0.04234 0.0
C1152 C 0.5937 0.98485 0.03557 0.0
C1153 C 0.60192 0.9843 0.02119 0.0
C1154 C 0.59774 0.96476 0.01358 0.0
C1155 C 0.58525 0.94573 0.0203 0.0
H1156 H 0.61156 -0.00099 0.01595 0.0
H1157 H 0.48879 0.81385 0.08014 0.0
H1158 H 0.9386 0.14607 0.39414 0.0
H1159 H 0.97288 0.17143 0.38511 0.0
H1160 H 0.97493 0.22267 0.4152 0.0
H1161 H 0.94001 0.19746 0.42378 0.0
H1162 H 0.98585 0.23492 0.38659 0.0
H1163 H 0.00671 0.20085 0.42506 0.0
H1164 H 0.00546 0.17042 0.43762 0.0
H1165 H 0.02188 0.14986 0.39491 0.0
H1166 H 0.02295 0.18002 0.38202 0.0
H1167 H 0.09645 0.31067 0.3846 0.0
H1168 H 0.06159 0.28505 0.3927 0.0
H1169 H 0.05788 0.23578 0.35936 0.0
H1170 H 0.09295 0.2614 0.35112 0.0
H1171 H 0.04783 0.22247 0.38923 0.0
H1172 H 0.02739 0.25689 0.35095 0.0
H1173 H 0.02878 0.28742 0.33848 0.0
H1174 H 0.01196 0.30766 0.38111 0.0
H1175 H 0.01074 0.27737 0.39393 0.0
C1176 C 0.94623 0.16276 0.39877 0.0
C1177 C 0.93649 0.16973 0.40966 0.0
C1178 C 0.96598 0.17722 0.39372 0.0
C1179 C 0.97663 0.19893 0.39961 0.0
C1180 C 0.96703 0.20597 0.41053 0.0
C1181 C 0.94717 0.19151 0.41554 0.0
C1182 C -0.00241 0.21429 0.39413 0.0
C1183 C -0.0005 0.23236 0.3874 0.0
C1184 C 0.01524 0.21068 0.39478 0.0
C1185 C 0.01471 0.19258 0.40253 0.0
C1186 C 0.0099 0.18975 0.41831 0.0
C1187 C 0.00925 0.17257 0.42549 0.0
C1188 C 0.01354 0.15818 0.41705 0.0
C1189 C 0.01854 0.161 0.40143 0.0
C1190 C 0.01919 0.17815 0.39418 0.0
C1191 C 0.08825 0.29441 0.37892 0.0
C1192 C 0.0975 0.28809 0.36718 0.0
C1193 C 0.06825 0.27981 0.38353 0.0
C1194 C 0.05708 0.25857 0.37654 0.0
C1195 C 0.06625 0.25213 0.36487 0.0
C1196 C 0.08624 0.2668 0.36014 0.0
C1197 C 0.03605 0.24305 0.38175 0.0
C1198 C 0.03415 0.22499 0.38843 0.0
C1199 C 0.01845 0.24671 0.3811 0.0
C1200 C 0.01916 0.26496 0.37345 0.0
C1201 C 0.02417 0.26795 0.35772 0.0
C1202 C 0.02489 0.28519 0.35058 0.0
C1203 C 0.02049 0.29949 0.35901 0.0
C1204 C 0.01536 0.29657 0.3746 0.0
C1205 C 0.01463 0.27935 0.38181 0.0
H1206 H 0.02098 0.31277 0.35343 0.0
H1207 H 0.01302 0.14489 0.42264 0.0
H1208 H 0.82144 0.75189 0.43222 0.0
H1209 H 0.79252 0.75833 0.42322 0.0
H1210 H 0.83847 0.81614 0.40456 0.0
H1211 H 0.86768 0.81091 0.4148 0.0
H1212 H 0.81162 0.82372 0.41683 0.0
H1213 H 0.80342 0.76581 0.38087 0.0
H1214 H 0.79895 0.73034 0.37309 0.0
H1215 H 0.73946 0.69998 0.39419 0.0
H1216 H 0.74372 0.7353 0.40228 0.0
H1217 H 0.73974 0.83368 0.36114 0.0
H1218 H 0.76714 0.82652 0.37293 0.0
H1219 H 0.72039 0.78015 0.40017 0.0
H1220 H 0.69285 0.78734 0.38855 0.0
H1221 H 0.74614 0.76614 0.38448 0.0
H1222 H 0.75466 0.82589 0.41866 0.0
H1223 H 0.75951 0.86193 0.4243 0.0
H1224 H 0.81963 0.88956 0.40397 0.0
H1225 H 0.81494 0.85362 0.39794 0.0
C1226 C 0.82553 0.7662 0.42647 0.0
C1227 C 0.84706 0.78077 0.42418 0.0
C1228 C 0.80884 0.76968 0.42107 0.0
C1229 C 0.81315 0.78748 0.41284 0.0
C1230 C 0.83462 0.80219 0.41076 0.0
C1231 C 0.85135 0.79898 0.41645 0.0
C1232 C 0.79542 0.7909 0.40642 0.0
C1233 C 0.79745 0.81115 0.40961 0.0
C1234 C 0.77663 0.77446 0.39721 0.0
C1235 C 0.77401 0.7532 0.39232 0.0
C1236 C 0.78947 0.75157 0.38395 0.0
C1237 C 0.78696 0.73149 0.37947 0.0
C1238 C 0.76897 0.71292 0.38318 0.0
C1239 C 0.75341 0.71438 0.39134 0.0
C1240 C 0.75585 0.73442 0.39587 0.0
C1241 C 0.73524 0.82192 0.36962 0.0
C1242 C 0.7141 0.81111 0.37392 0.0
C1243 C 0.75094 0.81791 0.37637 0.0
C1244 C 0.7458 0.80289 0.38747 0.0
C1245 C 0.72466 0.79181 0.39162 0.0
C1246 C 0.70899 0.79601 0.38502 0.0
C1247 C 0.76259 0.79891 0.39478 0.0
C1248 C 0.76033 0.7786 0.39176 0.0
C1249 C 0.78133 0.81537 0.40389 0.0
C1250 C 0.78435 0.83703 0.40773 0.0
C1251 C 0.76883 0.83963 0.41528 0.0
C1252 C 0.77156 0.86004 0.41855 0.0
C1253 C 0.78984 0.87801 0.41445 0.0
C1254 C 0.80546 0.87562 0.40711 0.0
C1255 C 0.80278 0.85523 0.40377 0.0
H1256 H 0.79191 0.89379 0.417 0.0
H1257 H 0.76705 0.69739 0.3797 0.0
H1258 H 0.26693 0.09047 0.38465 0.0
H1259 H 0.25531 0.05311 0.37627 0.0
H1260 H 0.22324 0.0339 0.41849 0.0
H1261 H 0.23349 0.07096 0.42656 0.0
H1262 H 0.25458 0.01762 0.40795 0.0
H1263 H 0.19129 0.02367 0.39167 0.0
H1264 H 0.17385 0.0409 0.37765 0.0
H1265 H 0.19465 0.02908 0.33383 0.0
H1266 H 0.21251 0.01207 0.34766 0.0
H1267 H 0.19613 0.90571 0.39327 0.0
H1268 H 0.20786 0.94323 0.40105 0.0
H1269 H 0.20834 0.95489 0.35172 0.0
H1270 H 0.19498 0.91688 0.34396 0.0
H1271 H 0.19468 0.97646 0.36518 0.0
H1272 H 0.25615 0.96971 0.37843 0.0
H1273 H 0.27723 0.95471 0.39041 0.0
H1274 H 0.26543 0.97028 0.43689 0.0
H1275 H 0.24404 0.98513 0.42517 0.0
C1276 C 0.25716 0.07834 0.3921 0.0
C1277 C 0.25105 0.08385 0.40627 0.0
C1278 C 0.25073 0.05703 0.38734 0.0
C1279 C 0.23844 0.0409 0.39678 0.0
C1280 C 0.23283 0.04626 0.41112 0.0
C1281 C 0.23886 0.06749 0.41575 0.0
C1282 C 0.23101 0.01831 0.39151 0.0
C1283 C 0.24133 0.00844 0.39874 0.0
C1284 C 0.21438 0.00684 0.37904 0.0
C1285 C 0.20343 0.01683 0.37073 0.0
C1286 C 0.19232 0.02494 0.37907 0.0
C1287 C 0.18232 0.03462 0.37115 0.0
C1288 C 0.1832 0.03615 0.35486 0.0
C1289 C 0.19402 0.02792 0.34645 0.0
C1290 C 0.20406 0.01825 0.35432 0.0
C1291 C 0.19867 0.91633 0.38412 0.0
C1292 C 0.19481 0.90857 0.36804 0.0
C1293 C 0.20557 0.93781 0.38856 0.0
C1294 C 0.20963 0.95215 0.37701 0.0
C1295 C 0.20543 0.94424 0.36089 0.0
C1296 C 0.19783 0.92256 0.35644 0.0
C1297 C 0.21803 0.97529 0.38175 0.0
C1298 C 0.20798 0.98543 0.37439 0.0
C1299 C 0.23541 0.98721 0.39379 0.0
C1300 C 0.24833 0.97836 0.4009 0.0
C1301 C 0.25793 0.96981 0.3912 0.0
C1302 C 0.26995 0.96135 0.39794 0.0
C1303 C 0.27262 0.96149 0.4144 0.0
C1304 C 0.26333 0.97016 0.42414 0.0
C1305 C 0.25127 0.97862 0.41746 0.0
H1306 H 0.28193 0.95493 0.4196 0.0
H1307 H 0.17545 0.04365 0.34875 0.0
H1308 H 0.47208 0.59668 0.30738 0.0
H1309 H 0.50077 0.63293 0.31667 0.0
H1310 H 0.54673 0.62063 0.29503 0.0
H1311 H 0.51825 0.58383 0.28641 0.0
H1312 H 0.56361 0.64232 0.3233 0.0
H1313 H 0.52658 0.64994 0.27762 0.0
H1314 H 0.49518 0.64516 0.26052 0.0
H1315 H 0.4816 0.67895 0.29703 0.0
H1316 H 0.51276 0.68368 0.31445 0.0
H1317 H 0.64411 0.75344 0.32731 0.0
H1318 H 0.61742 0.71621 0.31794 0.0
H1319 H 0.56939 0.72242 0.34188 0.0
H1320 H 0.59587 0.75959 0.35124 0.0
H1321 H 0.5547 0.70396 0.31133 0.0
H1322 H 0.59183 0.69545 0.35712 0.0
H1323 H 0.62362 0.70029 0.37374 0.0
H1324 H 0.63768 0.66847 0.33608 0.0
H1325 H 0.60613 0.6637 0.31914 0.0
C1326 C 0.48833 0.60152 0.30477 0.0
C1327 C 0.49281 0.58729 0.29611 0.0
C1328 C 0.50469 0.62239 0.30993 0.0
C1329 C 0.52585 0.62964 0.30631 0.0
C1330 C 0.5305 0.61542 0.29787 0.0
C1331 C 0.51414 0.59445 0.29281 0.0
C1332 C 0.54306 0.65208 0.31135 0.0
C1333 C 0.56181 0.65581 0.32047 0.0
C1334 C 0.54059 0.6697 0.30787 0.0
C1335 C 0.52191 0.667 0.29739 0.0
C1336 C 0.51681 0.65622 0.28205 0.0
C1337 C 0.49907 0.65354 0.27229 0.0
C1338 C 0.48637 0.6617 0.2777 0.0
C1339 C 0.49144 0.67262 0.29286 0.0
C1340 C 0.50915 0.67533 0.30268 0.0
C1341 C 0.62789 0.74687 0.33063 0.0
C1342 C 0.62213 0.7595 0.34004 0.0
C1343 C 0.61268 0.72557 0.32531 0.0
C1344 C 0.59147 0.71654 0.3293 0.0
C1345 C 0.58569 0.72909 0.33867 0.0
C1346 C 0.60088 0.75033 0.34406 0.0
C1347 C 0.57508 0.69414 0.32341 0.0
C1348 C 0.55651 0.69045 0.31409 0.0
C1349 C 0.57781 0.67661 0.32661 0.0
C1350 C 0.59675 0.67943 0.3368 0.0
C1351 C 0.60181 0.68965 0.35233 0.0
C1352 C 0.61976 0.69235 0.36182 0.0
C1353 C 0.6327 0.68475 0.35595 0.0
C1354 C 0.62767 0.67438 0.3406 0.0
C1355 C 0.60974 0.67166 0.33105 0.0
H1356 H 0.64659 0.68685 0.36332 0.0
H1357 H 0.47264 0.65961 0.27013 0.0
H1358 H 0.40565 0.89556 0.31368 0.0
H1359 H 0.37309 0.89091 0.32447 0.0
H1360 H 0.34302 0.88311 0.27713 0.0
H1361 H 0.37538 0.88718 0.26616 0.0
H1362 H 0.33571 0.90925 0.29911 0.0
H1363 H 0.33069 0.84009 0.29469 0.0
H1364 H 0.34379 0.81495 0.29919 0.0
H1365 H 0.34707 0.82813 0.34954 0.0
H1366 H 0.33429 0.85361 0.34534 0.0
H1367 H 0.22701 0.86237 0.31504 0.0
H1368 H 0.26097 0.87066 0.30489 0.0
H1369 H 0.28622 0.86656 0.35121 0.0
H1370 H 0.2519 0.85751 0.36133 0.0
H1371 H 0.29684 0.84741 0.3301 0.0
H1372 H 0.30168 0.91581 0.33541 0.0
H1373 H 0.28985 0.9421 0.33179 0.0
H1374 H 0.28832 0.9321 0.28129 0.0
H1375 H 0.29987 0.90553 0.28459 0.0
C1376 C 0.39211 0.89278 0.30552 0.0
C1377 C 0.39309 0.89147 0.28902 0.0
C1378 C 0.37355 0.89024 0.31173 0.0
C1379 C 0.35555 0.8864 0.30159 0.0
C1380 C 0.35675 0.88604 0.28516 0.0
C1381 C 0.3753 0.88846 0.27891 0.0
C1382 C 0.33521 0.88185 0.30814 0.0
C1383 C 0.32704 0.8956 0.30573 0.0
C1384 C 0.32426 0.86438 0.31715 0.0
C1385 C 0.33174 0.84891 0.31969 0.0
C1386 C 0.33436 0.83775 0.30672 0.0
C1387 C 0.3417 0.82342 0.30922 0.0
C1388 C 0.34631 0.81999 0.32464 0.0
C1389 C 0.34352 0.83083 0.3376 0.0
C1390 C 0.33622 0.84521 0.33517 0.0
C1391 C 0.23981 0.86332 0.32312 0.0
C1392 C 0.23676 0.85937 0.33904 0.0
C1393 C 0.25931 0.86819 0.3173 0.0
C1394 C 0.27639 0.86966 0.32733 0.0
C1395 C 0.27334 0.86559 0.34322 0.0
C1396 C 0.2537 0.86044 0.34901 0.0
C1397 C 0.29719 0.87483 0.32112 0.0
C1398 C 0.30547 0.86115 0.32356 0.0
C1399 C 0.30836 0.89252 0.31228 0.0
C1400 C 0.30146 0.90853 0.31025 0.0
C1401 C 0.29867 0.9191 0.32353 0.0
C1402 C 0.29204 0.93407 0.32153 0.0
C1403 C 0.28829 0.93873 0.30632 0.0
C1404 C 0.29121 0.92846 0.29307 0.0
C1405 C 0.29782 0.91346 0.295 0.0
H1406 H 0.28316 0.95033 0.30481 0.0
H1407 H 0.35199 0.80889 0.32655 0.0
H1408 H 0.11456 0.51962 0.32658 0.0
H1409 H 0.12469 0.49397 0.33539 0.0
H1410 H 0.07492 0.44454 0.30165 0.0
H1411 H 0.06442 0.47011 0.29292 0.0
H1412 H 0.07646 0.43084 0.33153 0.0
H1413 H 0.12524 0.46761 0.29324 0.0
H1414 H 0.15203 0.4993 0.2815 0.0
H1415 H 0.19529 0.51865 0.32419 0.0
H1416 H 0.16861 0.48722 0.33628 0.0
H1417 H 0.11277 0.35607 0.32934 0.0
H1418 H 0.10146 0.38168 0.323 0.0
H1419 H 0.15327 0.43021 0.35601 0.0
H1420 H 0.16483 0.40465 0.36243 0.0
H1421 H 0.15078 0.4448 0.32742 0.0
H1422 H 0.10316 0.40816 0.36565 0.0
H1423 H 0.07659 0.37711 0.37808 0.0
H1424 H 0.03148 0.35801 0.3365 0.0
H1425 H 0.05792 0.38881 0.32371 0.0
C1426 C 0.10564 0.50323 0.32113 0.0
C1427 C 0.08871 0.49685 0.30905 0.0
C1428 C 0.11154 0.48865 0.32611 0.0
C1429 C 0.10066 0.46743 0.31908 0.0
C1430 C 0.08352 0.46088 0.30719 0.0
C1431 C 0.07767 0.47551 0.30213 0.0
C1432 C 0.10745 0.4522 0.32401 0.0
C1433 C 0.0926 0.43371 0.33045 0.0
C1434 C 0.12872 0.45634 0.323 0.0
C1435 C 0.14484 0.47517 0.31572 0.0
C1436 C 0.1404 0.47871 0.30017 0.0
C1437 C 0.15557 0.49661 0.29345 0.0
C1438 C 0.17532 0.51101 0.30211 0.0
C1439 C 0.17997 0.5075 0.3175 0.0
C1440 C 0.16483 0.48964 0.32429 0.0
C1441 C 0.12176 0.37216 0.33531 0.0
C1442 C 0.13973 0.37832 0.3464 0.0
C1443 C 0.11519 0.38674 0.33173 0.0
C1444 C 0.12642 0.40777 0.33914 0.0
C1445 C 0.14437 0.41402 0.35019 0.0
C1446 C 0.1509 0.39938 0.35387 0.0
C1447 C 0.11977 0.42336 0.3349 0.0
C1448 C 0.13464 0.44193 0.32856 0.0
C1449 C 0.09856 0.41932 0.33607 0.0
C1450 C 0.08261 0.4007 0.34367 0.0
C1451 C 0.08765 0.39723 0.35909 0.0
C1452 C 0.0726 0.3797 0.36621 0.0
C1453 C 0.05238 0.36558 0.35807 0.0
C1454 C 0.04716 0.36896 0.34278 0.0
C1455 C 0.06217 0.38647 0.3356 0.0
H1456 H 0.04072 0.35208 0.36364 0.0
H1457 H 0.18705 0.52485 0.29688 0.0
H1458 H 0.37029 0.48989 0.2823 0.0
H1459 H 0.33369 0.46305 0.28741 0.0
H1460 H 0.35996 0.45002 0.32967 0.0
H1461 H 0.39638 0.47629 0.32427 0.0
H1462 H 0.32636 0.41425 0.31633 0.0
H1463 H 0.34159 0.48629 0.33067 0.0
H1464 H 0.35194 0.52336 0.32595 0.0
H1465 H 0.29815 0.49996 0.29024 0.0
H1466 H 0.28764 0.46272 0.29462 0.0
H1467 H 0.23822 0.37748 0.36286 0.0
H1468 H 0.27325 0.39937 0.35306 0.0
H1469 H 0.24152 0.40397 0.30989 0.0
H1470 H 0.20654 0.38226 0.31956 0.0
H1471 H 0.2766 0.44257 0.32188 0.0
H1472 H 0.25994 0.36999 0.30967 0.0
H1473 H 0.2495 0.3334 0.31585 0.0
H1474 H 0.30616 0.35831 0.34899 0.0
H1475 H 0.31678 0.3951 0.34319 0.0
C1476 C 0.36815 0.48075 0.29238 0.0
C1477 C 0.38593 0.48486 0.30286 0.0
C1478 C 0.3473 0.46561 0.29539 0.0
C1479 C 0.34402 0.4548 0.30912 0.0
C1480 C 0.36202 0.45812 0.31903 0.0
C1481 C 0.38281 0.47309 0.31594 0.0
C1482 C 0.32202 0.44139 0.31392 0.0
C1483 C 0.31555 0.4205 0.31763 0.0
C1484 C 0.30772 0.44939 0.31545 0.0
C1485 C 0.31398 0.47174 0.31284 0.0
C1486 C 0.33207 0.48906 0.32173 0.0
C1487 C 0.33795 0.51009 0.31913 0.0
C1488 C 0.32575 0.51401 0.30777 0.0
C1489 C 0.30761 0.4969 0.29901 0.0
C1490 C 0.30168 0.47583 0.30155 0.0
C1491 C 0.2387 0.3833 0.35134 0.0
C1492 C 0.21957 0.37805 0.34198 0.0
C1493 C 0.25872 0.39568 0.34571 0.0
C1494 C 0.25996 0.40306 0.33066 0.0
C1495 C 0.24093 0.39838 0.32151 0.0
C1496 C 0.22094 0.38592 0.32707 0.0
C1497 C 0.28107 0.41555 0.32438 0.0
C1498 C 0.28735 0.43626 0.32043 0.0
C1499 C 0.29523 0.40745 0.32276 0.0
C1500 C 0.28906 0.38532 0.32609 0.0
C1501 C 0.2701 0.36768 0.31836 0.0
C1502 C 0.26416 0.3469 0.32178 0.0
C1503 C 0.27713 0.34354 0.33283 0.0
C1504 C 0.29612 0.36094 0.34044 0.0
C1505 C 0.30212 0.38176 0.33708 0.0
H1506 H 0.27249 0.32744 0.33548 0.0
H1507 H 0.33033 0.53031 0.30578 0.0
H1508 H 0.4756 0.84381 0.27301 0.0
H1509 H 0.50645 0.83845 0.27842 0.0
H1510 H 0.53522 0.89282 0.314 0.0
H1511 H 0.50454 0.89834 0.30836 0.0
H1512 H 0.56587 0.89097 0.29844 0.0
H1513 H 0.50501 0.84255 0.32424 0.0
H1514 H 0.46732 0.81461 0.3258 0.0
H1515 H 0.4753 0.77084 0.29454 0.0
H1516 H 0.51299 0.79865 0.29263 0.0
H1517 H 0.6247 0.86114 0.35259 0.0
H1518 H 0.59803 0.86918 0.34045 0.0
H1519 H 0.5838 0.82283 0.30062 0.0
H1520 H 0.61083 0.81506 0.31245 0.0
H1521 H 0.54662 0.81999 0.31615 0.0
H1522 H 0.60928 0.86877 0.29249 0.0
H1523 H 0.64726 0.89693 0.2926 0.0
H1524 H 0.63609 0.9403 0.32164 0.0
H1525 H 0.59808 0.91225 0.3219 0.0
C1526 C 0.48885 0.85493 0.28164 0.0
C1527 C 0.48795 0.87154 0.29022 0.0
C1528 C 0.50635 0.85178 0.28482 0.0
C1529 C 0.52299 0.86503 0.2968 0.0
C1530 C 0.5226 0.88241 0.30471 0.0
C1531 C 0.50512 0.88558 0.30149 0.0
C1532 C 0.53982 0.85979 0.30203 0.0
C1533 C 0.56164 0.87549 0.30238 0.0
C1534 C 0.53436 0.83949 0.30702 0.0
C1535 C 0.51172 0.82276 0.30813 0.0
C1536 C 0.49867 0.82702 0.31759 0.0
C1537 C 0.47732 0.81121 0.31856 0.0
C1538 C 0.4689 0.79099 0.31023 0.0
C1539 C 0.48183 0.78653 0.30095 0.0
C1540 C 0.50319 0.80231 0.29992 0.0
C1541 C 0.61591 0.85267 0.34124 0.0
C1542 C 0.61984 0.83744 0.33348 0.0
C1543 C 0.60077 0.85735 0.3343 0.0
C1544 C 0.58904 0.84663 0.31963 0.0
C1545 C 0.59274 0.83127 0.31193 0.0
C1546 C 0.6082 0.8269 0.3187 0.0
C1547 C 0.57255 0.85116 0.31257 0.0
C1548 C 0.5508 0.83535 0.31199 0.0
C1549 C 0.57808 0.87139 0.30754 0.0
C1550 C 0.60089 0.88834 0.30735 0.0
C1551 C 0.61497 0.88424 0.29903 0.0
C1552 C 0.63649 0.9002 0.299 0.0
C1553 C 0.6441 0.92038 0.30716 0.0
C1554 C 0.63018 0.92465 0.31534 0.0
C1555 C 0.60864 0.90874 0.31542 0.0
H1556 H 0.66077 0.93271 0.30712 0.0
H1557 H 0.45237 0.77876 0.311 0.0
H1558 H 0.10693 0.60597 0.34496 0.0
H1559 H 0.12087 0.64465 0.34713 0.0
H1560 H 0.09075 0.63851 0.30003 0.0
H1561 H 0.0769 0.59958 0.29782 0.0
H1562 H 0.13285 0.67391 0.30594 0.0
H1563 H 0.06695 0.64373 0.33047 0.0
H1564 H 0.04134 0.62125 0.34861 0.0
H1565 H 0.08825 0.65698 0.38855 0.0
H1566 H 0.11425 0.6795 0.37064 0.0
H1567 H 0.14843 0.77989 0.31753 0.0
H1568 H 0.13406 0.7415 0.31094 0.0
H1569 H 0.15159 0.73603 0.3593 0.0
H1570 H 0.16507 0.7741 0.36606 0.0
H1571 H 0.11301 0.70576 0.35048 0.0
H1572 H 0.1798 0.73436 0.32669 0.0
H1573 H 0.20641 0.7568 0.30912 0.0
H1574 H 0.15955 0.72447 0.26859 0.0
H1575 H 0.13256 0.70201 0.28596 0.0
C1576 C 0.10339 0.61296 0.33508 0.0
C1577 C 0.09084 0.6001 0.32129 0.0
C1578 C 0.11129 0.63497 0.33632 0.0
C1579 C 0.1066 0.64437 0.32381 0.0
C1580 C 0.09447 0.63151 0.30981 0.0
C1581 C 0.08654 0.6094 0.30857 0.0
C1582 C 0.11398 0.66753 0.32571 0.0
C1583 C 0.12829 0.68091 0.31551 0.0
C1584 C 0.10828 0.6766 0.33838 0.0
C1585 C 0.09259 0.6632 0.34919 0.0
C1586 C 0.07185 0.6467 0.34311 0.0
C1587 C 0.05726 0.63397 0.35336 0.0
C1588 C 0.06318 0.63766 0.36971 0.0
C1589 C 0.08369 0.65414 0.37587 0.0
C1590 C 0.09835 0.6669 0.36568 0.0
C1591 C 0.14936 0.77049 0.3267 0.0
C1592 C 0.15778 0.77993 0.34232 0.0
C1593 C 0.14123 0.74858 0.32291 0.0
C1594 C 0.14189 0.73587 0.33459 0.0
C1595 C 0.15079 0.74546 0.3501 0.0
C1596 C 0.15853 0.76723 0.35395 0.0
C1597 C 0.13247 0.7124 0.33099 0.0
C1598 C 0.11759 0.69887 0.34084 0.0
C1599 C 0.13784 0.70329 0.3181 0.0
C1600 C 0.1541 0.71666 0.30764 0.0
C1601 C 0.17513 0.73213 0.31404 0.0
C1602 C 0.19029 0.74484 0.30412 0.0
C1603 C 0.18466 0.7421 0.28775 0.0
C1604 C 0.16388 0.7266 0.28127 0.0
C1605 C 0.14865 0.71386 0.29115 0.0
H1606 H 0.19641 0.75196 0.28009 0.0
H1607 H 0.05186 0.62778 0.37762 0.0
H1608 H 0.81321 0.06808 0.37532 0.0
H1609 H 0.78572 0.03009 0.37251 0.0
H1610 H 0.81291 0.02223 0.41669 0.0
H1611 H 0.84083 0.06039 0.41926 0.0
H1612 H 0.80645 0.99189 0.3947 0.0
H1613 H 0.76319 0.01938 0.41335 0.0
H1614 H 0.74728 0.04267 0.41475 0.0
H1615 H 0.71692 0.01866 0.36714 0.0
H1616 H 0.7329 0.99543 0.36536 0.0
H1617 H 0.71903 0.88395 0.39208 0.0
H1618 H 0.74373 0.92197 0.40045 0.0
H1619 H 0.72917 0.93788 0.35488 0.0
H1620 H 0.70451 0.89988 0.34636 0.0
H1621 H 0.7283 0.96351 0.38073 0.0
H1622 H 0.77444 0.93808 0.36202 0.0
H1623 H 0.78982 0.9143 0.36133 0.0
H1624 H 0.81431 0.93431 0.41044 0.0
H1625 H 0.7987 0.95793 0.4115 0.0
C1626 C 0.81298 0.05827 0.38456 0.0
C1627 C 0.8288 0.06694 0.39756 0.0
C1628 C 0.79728 0.0366 0.38299 0.0
C1629 C 0.79705 0.02331 0.39449 0.0
C1630 C 0.81271 0.03219 0.40771 0.0
C1631 C 0.82852 0.05392 0.40924 0.0
C1632 C 0.78137 -7e-05 0.39202 0.0
C1633 C 0.7893 0.98568 0.39198 0.0
C1634 C 0.75903 0.99179 0.38819 0.0
C1635 C 0.74939 0.00577 0.38919 0.0
C1636 C 0.75326 0.01918 0.40313 0.0
C1637 C 0.7442 0.03236 0.404 0.0
C1638 C 0.73113 0.03218 0.39103 0.0
C1639 C 0.72706 0.01879 0.37717 0.0
C1640 C 0.73609 0.0056 0.37624 0.0
C1641 C 0.72107 0.89552 0.38383 0.0
C1642 C 0.70985 0.8889 0.36853 0.0
C1643 C 0.73522 0.91723 0.38863 0.0
C1644 C 0.7383 0.93269 0.37826 0.0
C1645 C 0.72697 0.92616 0.36306 0.0
C1646 C 0.71297 0.90445 0.35818 0.0
C1647 C 0.75348 0.95569 0.38318 0.0
C1648 C 0.74543 0.9698 0.38366 0.0
C1649 C 0.77566 0.96367 0.38754 0.0
C1650 C 0.78518 0.94958 0.38689 0.0
C1651 C 0.78292 0.93726 0.37271 0.0
C1652 C 0.7917 0.92382 0.37225 0.0
C1653 C 0.80296 0.92273 0.38585 0.0
C1654 C 0.80552 0.93512 0.39993 0.0
C1655 C 0.79671 0.94854 0.40047 0.0
H1656 H 0.80976 0.91234 0.38545 0.0
H1657 H 0.72412 0.04238 0.39173 0.0
H1658 H 0.94304 0.76483 0.39523 0.0
H1659 H 0.9782 0.7709 0.38889 0.0
H1660 H 0.00823 0.81314 0.43217 0.0
H1661 H 0.97288 0.80744 0.43822 0.0
H1662 H 0.02886 0.83202 0.40887 0.0
H1663 H 0.00597 0.76337 0.42594 0.0
H1664 H 0.98194 0.72487 0.42786 0.0
H1665 H 0.98344 0.71113 0.37826 0.0
H1666 H 0.00724 0.7496 0.37598 0.0
H1667 H 0.13183 0.84597 0.39619 0.0
H1668 H 0.09784 0.83548 0.40715 0.0
H1669 H 0.06281 0.79976 0.36249 0.0
H1670 H 0.09688 0.81011 0.35138 0.0
H1671 H 0.04618 0.77724 0.38868 0.0
H1672 H 0.06763 0.84739 0.37222 0.0
H1673 H 0.09274 0.88597 0.37146 0.0
H1674 H 0.09503 0.89651 0.42199 0.0
H1675 H 0.07015 0.85791 0.42307 0.0
C1676 C 0.9571 0.77489 0.4036 0.0
C1677 C 0.95538 0.78545 0.41729 0.0
C1678 C 0.97721 0.77836 0.39999 0.0
C1679 C 0.99597 0.79236 0.41011 0.0
C1680 C 0.99404 0.80224 0.42418 0.0
C1681 C 0.97387 0.79886 0.42773 0.0
C1682 C 0.0176 0.7982 0.40516 0.0
C1683 C 0.03274 0.81999 0.40478 0.0
C1684 C 0.02268 0.78259 0.39949 0.0
C1685 C 0.00826 0.75942 0.40077 0.0
C1686 C 0.00103 0.75217 0.41541 0.0
C1687 C 0.98747 0.73034 0.41657 0.0
C1688 C 0.98113 0.71557 0.40318 0.0
C1689 C 0.98835 0.7226 0.38861 0.0
C1690 C 0.0019 0.74442 0.38738 0.0
C1691 C 0.11694 0.83591 0.38864 0.0
C1692 C 0.11714 0.82895 0.37285 0.0
C1693 C 0.09749 0.82996 0.39494 0.0
C1694 C 0.07778 0.81693 0.38562 0.0
C1695 C 0.07785 0.80981 0.3699 0.0
C1696 C 0.09735 0.81586 0.36353 0.0
C1697 C 0.05711 0.81092 0.39226 0.0
C1698 C 0.04223 0.78916 0.39293 0.0
C1699 C 0.05236 0.82653 0.39839 0.0
C1700 C 0.06719 0.84974 0.39774 0.0
C1701 C 0.07361 0.85791 0.38318 0.0
C1702 C 0.08778 0.87978 0.38269 0.0
C1703 C 0.09552 0.89367 0.39667 0.0
C1704 C 0.08905 0.88572 0.41117 0.0
C1705 C 0.0749 0.86386 0.41173 0.0
H1706 H 0.10649 0.9106 0.39627 0.0
H1707 H 0.97064 0.69867 0.40411 0.0
H1708 H 0.27128 0.20151 0.37415 0.0
H1709 H 0.25757 0.22627 0.37162 0.0
H1710 H 0.21772 0.19902 0.40934 0.0
H1711 H 0.23127 0.17397 0.41164 0.0
H1712 H 0.1948 0.20106 0.38455 0.0
H1713 H 0.26135 0.24997 0.41482 0.0
H1714 H 0.30061 0.26944 0.42228 0.0
H1715 H 0.31072 0.29767 0.37826 0.0
H1716 H 0.27152 0.27812 0.37041 0.0
H1717 H 0.16386 0.28129 0.38748 0.0
H1718 H 0.1794 0.25918 0.39472 0.0
H1719 H 0.21432 0.27468 0.3535 0.0
H1720 H 0.19869 0.29664 0.34605 0.0
H1721 H 0.23961 0.27948 0.38247 0.0
H1722 H 0.17261 0.22798 0.35189 0.0
H1723 H 0.13321 0.20895 0.34516 0.0
H1724 H 0.12412 0.18622 0.39122 0.0
H1725 H 0.16351 0.20539 0.39831 0.0
C1726 C 0.25991 0.20118 0.38208 0.0
C1727 C 0.25235 0.18615 0.39315 0.0
C1728 C 0.25213 0.21531 0.38067 0.0
C1729 C 0.23676 0.21464 0.3904 0.0
C1730 C 0.22961 0.19985 0.40176 0.0
C1731 C 0.23739 0.18567 0.40313 0.0
C1732 C 0.22706 0.22828 0.38783 0.0
C1733 C 0.20459 0.21827 0.38442 0.0
C1734 C 0.23985 0.25068 0.38735 0.0
C1735 C 0.26348 0.26241 0.39197 0.0
C1736 C 0.27194 0.26017 0.40666 0.0
C1737 C 0.29419 0.27126 0.41097 0.0
C1738 C 0.30815 0.28474 0.40073 0.0
C1739 C 0.29989 0.2872 0.38617 0.0
C1740 C 0.27765 0.27613 0.38179 0.0
C1741 C 0.17476 0.27991 0.37991 0.0
C1742 C 0.18001 0.29064 0.36616 0.0
C1743 C 0.1836 0.26728 0.38406 0.0
C1744 C 0.19796 0.26534 0.37462 0.0
C1745 C 0.20327 0.27605 0.36092 0.0
C1746 C 0.19423 0.28845 0.35664 0.0
C1747 C 0.20752 0.25217 0.37905 0.0
C1748 C 0.22991 0.26229 0.38279 0.0
C1749 C 0.19467 0.22992 0.37996 0.0
C1750 C 0.171 0.21832 0.3757 0.0
C1751 C 0.16221 0.21909 0.36064 0.0
C1752 C 0.13988 0.20825 0.35675 0.0
C1753 C 0.12617 0.19644 0.36778 0.0
C1754 C 0.13476 0.1954 0.3827 0.0
C1755 C 0.15709 0.20624 0.38666 0.0
H1756 H 0.10888 0.18805 0.36474 0.0
H1757 H 0.32538 0.29333 0.4041 0.0
H1758 H 0.60754 0.47909 0.72939 0.0
H1759 H 0.64152 0.50394 0.71968 0.0
H1760 H 0.64436 0.55625 0.74891 0.0
H1761 H 0.60979 0.53151 0.75822 0.0
H1762 H 0.65399 0.56712 0.71981 0.0
H1763 H 0.67653 0.53498 0.75879 0.0
H1764 H 0.67614 0.50533 0.77197 0.0
H1765 H 0.69165 0.48343 0.7294 0.0
H1766 H 0.69183 0.5128 0.71589 0.0
H1767 H 0.76383 0.64351 0.71679 0.0
H1768 H 0.72912 0.61772 0.72492 0.0
H1769 H 0.72636 0.56832 0.69224 0.0
H1770 H 0.76136 0.59417 0.68398 0.0
H1771 H 0.71645 0.55544 0.72218 0.0
H1772 H 0.69491 0.58864 0.68356 0.0
H1773 H 0.69569 0.61874 0.67081 0.0
H1774 H 0.67876 0.63916 0.71331 0.0
H1775 H 0.67819 0.60935 0.72641 0.0
C1776 C 0.61531 0.4959 0.7337 0.0
C1777 C 0.60588 0.50332 0.74454 0.0
C1778 C 0.63488 0.51007 0.72826 0.0
C1779 C 0.64563 0.53195 0.73367 0.0
C1780 C 0.63637 0.53942 0.74459 0.0
C1781 C 0.61672 0.52524 0.75002 0.0
C1782 C 0.66627 0.54706 0.72764 0.0
C1783 C 0.66775 0.56473 0.72054 0.0
C1784 C 0.68403 0.54362 0.72817 0.0
C1785 C 0.68399 0.52597 0.73628 0.0
C1786 C 0.67969 0.52374 0.7522 0.0
C1787 C 0.67954 0.50701 0.75974 0.0
C1788 C 0.68381 0.49247 0.75152 0.0
C1789 C 0.68831 0.49468 0.73575 0.0
C1790 C 0.68846 0.51138 0.72815 0.0
C1791 C 0.75587 0.6272 0.71123 0.0
C1792 C 0.76541 0.62092 0.6997 0.0
C1793 C 0.73594 0.61248 0.71587 0.0
C1794 C 0.72507 0.59115 0.7091 0.0
C1795 C 0.73448 0.58475 0.69758 0.0
C1796 C 0.75442 0.59955 0.69283 0.0
C1797 C 0.70417 0.57551 0.71446 0.0
C1798 C 0.70265 0.55777 0.72143 0.0
C1799 C 0.68641 0.57893 0.71387 0.0
C1800 C 0.6867 0.59687 0.70602 0.0
C1801 C 0.69153 0.59966 0.69024 0.0
C1802 C 0.6919 0.61665 0.68294 0.0
C1803 C 0.68733 0.63089 0.69126 0.0
C1804 C 0.68233 0.62813 0.70689 0.0
C1805 C 0.68195 0.61118 0.71425 0.0
H1806 H 0.68762 0.64403 0.68558 0.0
H1807 H 0.68369 0.47952 0.75738 0.0
H1808 H 0.48775 0.08479 0.76509 0.0
H1809 H 0.46092 0.09328 0.7545 0.0
H1810 H 0.5072 0.13876 0.72646 0.0
H1811 H 0.53459 0.13115 0.73767 0.0
H1812 H 0.48532 0.155 0.73927 0.0
H1813 H 0.46636 0.08858 0.70989 0.0
H1814 H 0.45753 0.05094 0.70604 0.0
H1815 H 0.40213 0.03194 0.73148 0.0
H1816 H 0.4108 0.06953 0.73568 0.0
H1817 H 0.40809 0.16464 0.68906 0.0
H1818 H 0.4357 0.15665 0.69893 0.0
H1819 H 0.393 0.11528 0.73083 0.0
H1820 H 0.36519 0.12309 0.721 0.0
H1821 H 0.41334 0.09711 0.71525 0.0
H1822 H 0.43321 0.16428 0.74475 0.0
H1823 H 0.44213 0.20199 0.74783 0.0
H1824 H 0.49616 0.21955 0.72107 0.0
H1825 H 0.48736 0.18187 0.71762 0.0
C1826 C 0.49239 0.09684 0.75684 0.0
C1827 C 0.51344 0.10735 0.7523 0.0
C1828 C 0.47689 0.10146 0.75062 0.0
C1829 C 0.48189 0.11642 0.73947 0.0
C1830 C 0.5029 0.12708 0.73498 0.0
C1831 C 0.5185 0.12257 0.7413 0.0
C1832 C 0.46523 0.12106 0.73267 0.0
C1833 C 0.46971 0.14236 0.7338 0.0
C1834 C 0.44467 0.10456 0.72578 0.0
C1835 C 0.43934 0.08191 0.72322 0.0
C1836 C 0.45238 0.0764 0.71476 0.0
C1837 C 0.44739 0.05507 0.7125 0.0
C1838 C 0.42931 0.03907 0.71854 0.0
C1839 C 0.41614 0.04436 0.72682 0.0
C1840 C 0.42108 0.06567 0.72913 0.0
C1841 C 0.40451 0.15382 0.69817 0.0
C1842 C 0.3844 0.14456 0.70426 0.0
C1843 C 0.42038 0.14933 0.70384 0.0
C1844 C 0.41649 0.13552 0.71572 0.0
C1845 C 0.39635 0.12601 0.72167 0.0
C1846 C 0.3805 0.13056 0.71606 0.0
C1847 C 0.43344 0.13099 0.72194 0.0
C1848 C 0.42899 0.10972 0.72069 0.0
C1849 C 0.45407 0.14752 0.72861 0.0
C1850 C 0.4595 0.17022 0.7308 0.0
C1851 C 0.44689 0.17616 0.73942 0.0
C1852 C 0.45194 0.19753 0.74125 0.0
C1853 C 0.46966 0.21315 0.73461 0.0
C1854 C 0.48242 0.20743 0.72618 0.0
C1855 C 0.47742 0.18607 0.7243 0.0
H1856 H 0.47354 0.22969 0.73604 0.0
H1857 H 0.42547 0.02256 0.71678 0.0
H1858 H 0.89883 0.41678 0.71647 0.0
H1859 H 0.887 0.37959 0.70721 0.0
H1860 H 0.93701 0.38165 0.73942 0.0
H1861 H 0.94939 0.41908 0.74836 0.0
H1862 H 0.93309 0.36064 0.71086 0.0
H1863 H 0.88599 0.35937 0.74903 0.0
H1864 H 0.86073 0.3687 0.76053 0.0
H1865 H 0.81666 0.33982 0.7182 0.0
H1866 H 0.84181 0.33058 0.70636 0.0
H1867 H 0.89041 0.24904 0.71411 0.0
H1868 H 0.90391 0.28721 0.72069 0.0
H1869 H 0.8533 0.28334 0.6881 0.0
H1870 H 0.83952 0.24512 0.68156 0.0
H1871 H 0.8575 0.30543 0.71606 0.0
H1872 H 0.90425 0.30553 0.67825 0.0
H1873 H 0.92957 0.29613 0.66696 0.0
H1874 H 0.97436 0.32702 0.70873 0.0
H1875 H 0.94916 0.33634 0.72039 0.0
C1876 C 0.90753 0.40943 0.72139 0.0
C1877 C 0.92495 0.42081 0.73323 0.0
C1878 C 0.90063 0.38813 0.7162 0.0
C1879 C 0.91093 0.37779 0.72281 0.0
C1880 C 0.92878 0.38931 0.73422 0.0
C1881 C 0.9357 0.41062 0.73941 0.0
C1882 C 0.90267 0.35476 0.71822 0.0
C1883 C 0.91663 0.34852 0.71215 0.0
C1884 C 0.88108 0.33905 0.71962 0.0
C1885 C 0.86588 0.34448 0.72675 0.0
C1886 C 0.87099 0.35516 0.74213 0.0
C1887 C 0.85668 0.36041 0.74871 0.0
C1888 C 0.83713 0.35491 0.74008 0.0
C1889 C 0.83182 0.3441 0.72486 0.0
C1890 C 0.84609 0.33884 0.71821 0.0
C1891 C 0.88214 0.25628 0.70832 0.0
C1892 C 0.86391 0.24403 0.69728 0.0
C1893 C 0.88995 0.27813 0.71205 0.0
C1894 C 0.87974 0.28813 0.70474 0.0
C1895 C 0.86143 0.27592 0.69384 0.0
C1896 C 0.85361 0.25408 0.6901 0.0
C1897 C 0.88792 0.31127 0.70871 0.0
C1898 C 0.87394 0.31753 0.7147 0.0
C1899 C 0.9095 0.32698 0.70726 0.0
C1900 C 0.92472 0.32145 0.70026 0.0
C1901 C 0.91942 0.31017 0.68509 0.0
C1902 C 0.93377 0.30488 0.67861 0.0
C1903 C 0.95354 0.31092 0.68714 0.0
C1904 C 0.95902 0.32232 0.70215 0.0
C1905 C 0.94472 0.32763 0.70869 0.0
H1906 H 0.96462 0.30682 0.6821 0.0
H1907 H 0.82607 0.35899 0.7452 0.0
H1908 H 0.1806 0.92217 0.6146 0.0
H1909 H 0.20964 0.95868 0.62353 0.0
H1910 H 0.1667 0.9689 0.65119 0.0
H1911 H 0.13749 0.93254 0.6421 0.0
H1912 H 0.19005 0.00266 0.6344 0.0
H1913 H 0.20353 0.95971 0.66916 0.0
H1914 H 0.20963 0.93035 0.67598 0.0
H1915 H 0.26632 0.95643 0.6514 0.0
H1916 H 0.26038 0.9858 0.64423 0.0
H1917 H 0.26487 0.09484 0.68472 0.0
H1918 H 0.23741 0.05833 0.67463 0.0
H1919 H 0.28284 0.05265 0.64691 0.0
H1920 H 0.31057 0.0893 0.65699 0.0
H1921 H 0.25906 0.01677 0.66274 0.0
H1922 H 0.24595 0.0605 0.62872 0.0
H1923 H 0.23992 0.09008 0.62249 0.0
H1924 H 0.18241 0.0626 0.64613 0.0
H1925 H 0.18827 0.03298 0.6527 0.0
C1926 C 0.17732 0.93226 0.6225 0.0
C1927 C 0.15678 0.9245 0.62767 0.0
C1928 C 0.19396 0.95304 0.62768 0.0
C1929 C 0.19036 0.96643 0.63812 0.0
C1930 C 0.16982 0.95881 0.64316 0.0
C1931 C 0.15321 0.938 0.63805 0.0
C1932 C 0.20799 0.98844 0.64375 0.0
C1933 C 0.20504 0.00573 0.64075 0.0
C1934 C 0.22775 0.99246 0.65171 0.0
C1935 C 0.23137 0.97482 0.656 0.0
C1936 C 0.21719 0.95908 0.66508 0.0
C1937 C 0.22064 0.94246 0.66904 0.0
C1938 C 0.23832 0.94149 0.66408 0.0
C1939 C 0.25261 0.95718 0.6552 0.0
C1940 C 0.24922 0.97383 0.6512 0.0
C1941 C 0.26911 0.08587 0.67651 0.0
C1942 C 0.28993 0.09505 0.67162 0.0
C1943 C 0.25334 0.065 0.67071 0.0
C1944 C 0.25804 0.05287 0.65991 0.0
C1945 C 0.2789 0.06179 0.65522 0.0
C1946 C 0.29468 0.08275 0.66095 0.0
C1947 C 0.24104 0.03094 0.65347 0.0
C1948 C 0.2441 0.01369 0.65632 0.0
C1949 C 0.22136 0.02694 0.6454 0.0
C1950 C 0.21766 0.04462 0.64133 0.0
C1951 C 0.2321 0.06084 0.63269 0.0
C1952 C 0.2287 0.07761 0.62909 0.0
C1953 C 0.21082 0.07826 0.63395 0.0
C1954 C 0.19627 0.06209 0.64239 0.0
C1955 C 0.19961 0.04529 0.64604 0.0
H1956 H 0.20821 0.09125 0.63116 0.0
H1957 H 0.24097 0.92861 0.66716 0.0
H1958 H 0.05685 0.24581 0.60983 0.0
H1959 H 0.0231 0.23928 0.6196 0.0
H1960 H 0.02166 0.18943 0.64593 0.0
H1961 H 0.05472 0.19504 0.63552 0.0
H1962 H 0.98278 0.17704 0.63311 0.0
H1963 H 0.0384 0.24092 0.66377 0.0
H1964 H 0.06973 0.27755 0.66813 0.0
H1965 H 0.03308 0.3015 0.64396 0.0
H1966 H 0.00161 0.26496 0.63926 0.0
H1967 H 0.90717 0.17151 0.68546 0.0
H1968 H 0.94085 0.17817 0.67535 0.0
H1969 H 0.93728 0.22183 0.64449 0.0
H1970 H 0.90363 0.21528 0.65448 0.0
H1971 H 0.97849 0.23746 0.65979 0.0
H1972 H 0.9231 0.17341 0.62907 0.0
H1973 H 0.89149 0.13694 0.62551 0.0
H1974 H 0.92782 0.11346 0.65075 0.0
H1975 H 0.95962 0.14991 0.65465 0.0
C1976 C 0.0492 0.23322 0.61749 0.0
C1977 C 0.05867 0.22106 0.62195 0.0
C1978 C 0.03001 0.22968 0.62325 0.0
C1979 C 0.01999 0.21413 0.63377 0.0
C1980 C 0.02911 0.20162 0.63792 0.0
C1981 C 0.04818 0.20502 0.63207 0.0
C1982 C 0.00012 0.21094 0.64055 0.0
C1983 C 0.98199 0.19023 0.63912 0.0
C1984 C -0.00117 0.22817 0.64817 0.0
C1985 C 0.01772 0.25017 0.65103 0.0
C1986 C 0.03707 0.25397 0.65928 0.0
C1987 C 0.05485 0.27472 0.66183 0.0
C1988 C 0.05342 0.29183 0.65629 0.0
C1989 C 0.03418 0.28823 0.64822 0.0
C1990 C 0.01636 0.26751 0.64563 0.0
C1991 C 0.91359 0.18262 0.67659 0.0
C1992 C 0.90262 0.19279 0.67075 0.0
C1993 C 0.93281 0.18636 0.67079 0.0
C1994 C 0.94148 0.20037 0.65908 0.0
C1995 C 0.93087 0.21095 0.65352 0.0
C1996 C 0.91157 0.2071 0.65921 0.0
C1997 C 0.96133 0.20364 0.65235 0.0
C1998 C 0.97939 0.22432 0.65379 0.0
C1999 C 0.9626 0.1864 0.64482 0.0
C2000 C 0.94368 0.16441 0.64226 0.0
C2001 C 0.92432 0.16049 0.63394 0.0
C2002 C 0.90638 0.13984 0.63185 0.0
C2003 C 0.90765 0.12291 0.63792 0.0
C2004 C 0.92688 0.1266 0.64606 0.0
C2005 C 0.94487 0.14725 0.6482 0.0
H2006 H 0.89373 0.10695 0.63626 0.0
H2007 H 0.0672 0.30788 0.65827 0.0
H2008 H 0.76586 0.82235 0.61724 0.0
H2009 H 0.77391 0.7954 0.62625 0.0
H2010 H 0.75598 0.80343 0.67251 0.0
H2011 H 0.7467 0.82956 0.66343 0.0
H2012 H 0.79879 0.80695 0.67107 0.0
H2013 H 0.72339 0.76079 0.65311 0.0
H2014 H 0.69116 0.74609 0.63373 0.0
H2015 H 0.72129 0.72463 0.60103 0.0
H2016 H 0.75386 0.73951 0.62014 0.0
H2017 H 0.8103 0.72363 0.70208 0.0
H2018 H 0.79748 0.748 0.69497 0.0
H2019 H 0.79277 0.72763 0.64536 0.0
H2020 H 0.80441 0.70249 0.65248 0.0
H2021 H 0.75975 0.73035 0.64971 0.0
H2022 H 0.83533 0.77746 0.66523 0.0
H2023 H 0.86934 0.79357 0.68287 0.0
H2024 H 0.8417 0.8149 0.71785 0.0
H2025 H 0.80742 0.79867 0.70049 0.0
C2026 C 0.7631 0.81807 0.62922 0.0
C2027 C 0.75565 0.82824 0.6396 0.0
C2028 C 0.76789 0.80279 0.63437 0.0
C2029 C 0.76557 0.79755 0.65003 0.0
C2030 C 0.75797 0.80741 0.6604 0.0
C2031 C 0.75281 0.82243 0.65519 0.0
C2032 C 0.7718 0.78227 0.65568 0.0
C2033 C 0.79012 0.7901 0.66663 0.0
C2034 C 0.76077 0.76053 0.64946 0.0
C2035 C 0.74114 0.75144 0.638 0.0
C2036 C 0.72323 0.75311 0.64173 0.0
C2037 C 0.70488 0.74471 0.63081 0.0
C2038 C 0.7042 0.73448 0.61614 0.0
C2039 C 0.72185 0.73258 0.61239 0.0
C2040 C 0.74025 0.74097 0.62327 0.0
C2041 C 0.80658 0.72446 0.68967 0.0
C2042 C 0.80835 0.71123 0.67783 0.0
C2043 C 0.79934 0.73844 0.6856 0.0
C2044 C 0.79443 0.73993 0.66959 0.0
C2045 C 0.79636 0.72676 0.65778 0.0
C2046 C 0.80308 0.71244 0.66186 0.0
C2047 C 0.78707 0.75498 0.66505 0.0
C2048 C 0.76848 0.74714 0.65428 0.0
C2049 C 0.79814 0.77685 0.6712 0.0
C2050 C 0.81874 0.78665 0.68164 0.0
C2051 C 0.83646 0.78545 0.67673 0.0
C2052 C 0.85579 0.79462 0.68667 0.0
C2053 C 0.85765 0.80519 0.70149 0.0
C2054 C 0.84021 0.80667 0.70638 0.0
C2055 C 0.82084 0.7975 0.6965 0.0
H2056 H 0.87263 0.81229 0.70916 0.0
H2057 H 0.68998 0.72799 0.60769 0.0
H2058 H 0.03979 0.83058 0.62036 0.0
H2059 H 0.00281 0.80486 0.62551 0.0
H2060 H 0.02798 0.78304 0.66308 0.0
H2061 H 0.06475 0.8083 0.65762 0.0
H2062 H 0.99298 0.75018 0.64796 0.0
H2063 H 0.01271 0.82088 0.67047 0.0
H2064 H 0.02518 0.85936 0.67024 0.0
H2065 H 0.97124 0.84454 0.63666 0.0
H2066 H 0.9586 0.80596 0.63654 0.0
H2067 H 0.90629 0.70981 0.69609 0.0
H2068 H 0.9414 0.73283 0.68674 0.0
H2069 H 0.90998 0.74264 0.64579 0.0
H2070 H 0.87485 0.7195 0.65492 0.0
H2071 H 0.94675 0.78067 0.661 0.0
H2072 H 0.92613 0.7091 0.64031 0.0
H2073 H 0.91367 0.67089 0.6422 0.0
H2074 H 0.96976 0.68784 0.67412 0.0
H2075 H 0.98239 0.72619 0.67262 0.0
C2076 C 0.03727 0.81987 0.62943 0.0
C2077 C 0.05487 0.82115 0.63856 0.0
C2078 C 0.01623 0.80535 0.63248 0.0
C2079 C 0.0126 0.79225 0.64489 0.0
C2080 C 0.03032 0.79294 0.65347 0.0
C2081 C 0.0513 0.80733 0.65035 0.0
C2082 C 0.99057 0.77874 0.64963 0.0
C2083 C 0.98297 0.75692 0.65091 0.0
C2084 C 0.9773 0.78739 0.65331 0.0
C2085 C 0.98486 0.81056 0.65336 0.0
C2086 C 0.0036 0.82584 0.66294 0.0
C2087 C 0.01068 0.84767 0.66289 0.0
C2088 C -0.00096 0.8544 0.6534 0.0
C2089 C 0.98026 0.83931 0.64398 0.0
C2090 C 0.97313 0.81746 0.64397 0.0
C2091 C 0.90687 0.71704 0.68518 0.0
C2092 C 0.88779 0.71278 0.67623 0.0
C2093 C 0.92691 0.73008 0.67982 0.0
C2094 C 0.92823 0.73927 0.66551 0.0
C2095 C 0.90928 0.73566 0.65684 0.0
C2096 C 0.88924 0.72239 0.66207 0.0
C2097 C 0.94936 0.75227 0.65942 0.0
C2098 C 0.95675 0.77397 0.65791 0.0
C2099 C 0.96251 0.74356 0.6557 0.0
C2100 C 0.9551 0.72052 0.65647 0.0
C2101 C 0.93573 0.70468 0.64783 0.0
C2102 C 0.92864 0.683 0.64882 0.0
C2103 C 0.94089 0.67694 0.65831 0.0
C2104 C 0.96028 0.69256 0.66679 0.0
C2105 C 0.96742 0.71427 0.66587 0.0
H2106 H 0.93538 0.66014 0.65906 0.0
H2107 H 0.00455 0.8713 0.65339 0.0
H2108 H 0.14251 0.19083 0.64699 0.0
H2109 H 0.17042 0.1813 0.65211 0.0
H2110 H 0.20978 0.2268 0.62085 0.0
H2111 H 0.18171 0.23653 0.6158 0.0
H2112 H 0.20901 0.18476 0.61901 0.0
H2113 H 0.22225 0.24396 0.65639 0.0
H2114 H 0.21189 0.2627 0.67604 0.0
H2115 H 0.19419 0.21165 0.70573 0.0
H2116 H 0.20415 0.19245 0.68613 0.0
H2117 H 0.30448 0.186 0.649 0.0
H2118 H 0.27806 0.19559 0.63911 0.0
H2119 H 0.24192 0.16978 0.67885 0.0
H2120 H 0.26919 0.16159 0.6893 0.0
H2121 H 0.24237 0.20395 0.67481 0.0
H2122 H 0.22758 0.14371 0.63791 0.0
H2123 H 0.23747 0.12406 0.61867 0.0
H2124 H 0.25663 0.1746 0.58836 0.0
H2125 H 0.24713 0.19472 0.60752 0.0
C2126 C 0.15694 0.19845 0.64096 0.0
C2127 C 0.16008 0.2143 0.63099 0.0
C2128 C 0.17286 0.19304 0.64391 0.0
C2129 C 0.1922 0.20342 0.63692 0.0
C2130 C 0.19492 0.21856 0.62629 0.0
C2131 C 0.17897 0.22411 0.62342 0.0
C2132 C 0.21009 0.19969 0.64196 0.0
C2133 C 0.21656 0.18917 0.63114 0.0
C2134 C 0.21957 0.20508 0.65786 0.0
C2135 C 0.21376 0.21669 0.66973 0.0
C2136 C 0.21598 0.23665 0.66705 0.0
C2137 C 0.21022 0.24737 0.67819 0.0
C2138 C 0.20234 0.23835 0.69211 0.0
C2139 C 0.20027 0.21861 0.69494 0.0
C2140 C 0.20599 0.20781 0.68382 0.0
C2141 C 0.29086 0.18237 0.65559 0.0
C2142 C 0.28883 0.17304 0.6699 0.0
C2143 C 0.27564 0.1877 0.64987 0.0
C2144 C 0.25762 0.18302 0.65801 0.0
C2145 C 0.25562 0.17359 0.6723 0.0
C2146 C 0.27118 0.16887 0.67828 0.0
C2147 C 0.24117 0.18846 0.65199 0.0
C2148 C 0.23494 0.19944 0.66264 0.0
C2149 C 0.23177 0.18321 0.63598 0.0
C2150 C 0.23681 0.1708 0.62421 0.0
C2151 C 0.23396 0.15066 0.62716 0.0
C2152 C 0.2395 0.13944 0.61627 0.0
C2153 C 0.24772 0.14809 0.60232 0.0
C2154 C 0.25029 0.16793 0.59918 0.0
C2155 C 0.2448 0.17924 0.61004 0.0
H2156 H 0.25207 0.13941 0.59394 0.0
H2157 H 0.19789 0.24667 0.70072 0.0
H2158 H 0.74518 0.93574 0.66605 0.0
H2159 H 0.75447 0.97329 0.66727 0.0
H2160 H 0.79565 0.98339 0.62998 0.0
H2161 H 0.78655 0.94574 0.62901 0.0
H2162 H 0.81641 0.01299 0.65409 0.0
H2163 H 0.74877 0.98497 0.62359 0.0
H2164 H 0.70982 0.96114 0.61604 0.0
H2165 H 0.69618 0.9833 0.65939 0.0
H2166 H 0.73508 0.00705 0.66733 0.0
H2167 H 0.83653 0.12012 0.65097 0.0
H2168 H 0.82382 0.08228 0.64325 0.0
H2169 H 0.78898 0.06514 0.68446 0.0
H2170 H 0.80182 0.10299 0.6924 0.0
H2171 H 0.76499 0.03979 0.65527 0.0
H2172 H 0.83396 0.06648 0.68582 0.0
H2173 H 0.87308 0.09064 0.69224 0.0
H2174 H 0.88426 0.07075 0.64695 0.0
H2175 H 0.84514 0.04691 0.64005 0.0
C2176 C 0.75583 0.94593 0.6579 0.0
C2177 C 0.76509 0.93811 0.64737 0.0
C2178 C 0.76109 0.96733 0.65856 0.0
C2179 C 0.77562 0.98113 0.64861 0.0
C2180 C 0.78437 0.97301 0.63772 0.0
C2181 C 0.77912 0.95158 0.6371 0.0
C2182 C 0.783 0.00434 0.65063 0.0
C2183 C 0.80518 0.01888 0.654 0.0
C2184 C 0.76832 0.01199 0.6508 0.0
C2185 C 0.74488 -0.00232 0.64611 0.0
C2186 C 0.73748 0.98464 0.63159 0.0
C2187 C 0.7154 0.97116 0.62722 0.0
C2188 C 0.70053 0.97067 0.63725 0.0
C2189 C 0.70771 0.98368 0.65165 0.0
C2190 C 0.72978 -0.00282 0.65607 0.0
C2191 C 0.82613 0.1083 0.65838 0.0
C2192 C 0.82021 0.1145 0.67232 0.0
C2193 C 0.81892 0.08672 0.65396 0.0
C2194 C 0.80552 0.07101 0.66331 0.0
C2195 C 0.7993 0.0771 0.67709 0.0
C2196 C 0.80674 0.0987 0.68165 0.0
C2197 C 0.79826 0.04821 0.6589 0.0
C2198 C 0.77616 0.03382 0.65513 0.0
C2199 C 0.81302 0.04072 0.65818 0.0
C2200 C 0.83656 0.05513 0.66232 0.0
C2201 C 0.84472 0.06747 0.67713 0.0
C2202 C 0.86691 0.0811 0.68086 0.0
C2203 C 0.88114 0.08233 0.66997 0.0
C2204 C 0.87321 0.06987 0.65534 0.0
C2205 C 0.85103 0.05633 0.6515 0.0
H2206 H 0.89831 0.09287 0.67289 0.0
H2207 H 0.68344 0.96023 0.63384 0.0
H2208 H 0.51144 0.39409 0.7541 0.0
H2209 H 0.48387 0.35585 0.75132 0.0
H2210 H 0.45294 0.36495 0.70963 0.0
H2211 H 0.48018 0.4031 0.71266 0.0
H2212 H 0.4234 0.33756 0.72646 0.0
H2213 H 0.48845 0.34655 0.70694 0.0
H2214 H 0.52716 0.35828 0.70841 0.0
H2215 H 0.52035 0.31924 0.74628 0.0
H2216 H 0.48162 0.30749 0.74517 0.0
H2217 H 0.37204 0.2352 0.68236 0.0
H2218 H 0.39633 0.273 0.69166 0.0
H2219 H 0.41457 0.25529 0.73513 0.0
H2220 H 0.39013 0.21739 0.72599 0.0
H2221 H 0.44977 0.28614 0.72033 0.0
H2222 H 0.38271 0.27439 0.73713 0.0
H2223 H 0.34386 0.26204 0.73365 0.0
H2224 H 0.35442 0.30595 0.69874 0.0
H2225 H 0.39332 0.31835 0.70184 0.0
C2226 C 0.49843 0.38788 0.74459 0.0
C2227 C 0.49767 0.40127 0.73361 0.0
C2228 C 0.48282 0.36609 0.74293 0.0
C2229 C 0.46651 0.35746 0.73012 0.0
C2230 C 0.46533 0.37121 0.7196 0.0
C2231 C 0.48085 0.39296 0.72131 0.0
C2232 C 0.45145 0.33401 0.72701 0.0
C2233 C 0.42919 0.32635 0.72506 0.0
C2234 C 0.45895 0.31929 0.72539 0.0
C2235 C 0.48222 0.32637 0.72612 0.0
C2236 C 0.49525 0.34062 0.71568 0.0
C2237 C 0.51718 0.34724 0.71643 0.0
C2238 C 0.52622 0.33957 0.72747 0.0
C2239 C 0.51333 0.32521 0.73776 0.0
C2240 C 0.4914 0.31856 0.73708 0.0
C2241 C 0.38121 0.23933 0.6939 0.0
C2242 C 0.37914 0.22331 0.70345 0.0
C2243 C 0.395 0.26093 0.69922 0.0
C2244 C 0.40709 0.2669 0.71413 0.0
C2245 C 0.40531 0.25097 0.72361 0.0
C2246 C 0.3913 0.22936 0.71838 0.0
C2247 C 0.42183 0.28982 0.71965 0.0
C2248 C 0.44401 0.29735 0.72199 0.0
C2249 C 0.41428 0.30443 0.72142 0.0
C2250 C 0.39092 0.29717 0.71963 0.0
C2251 C 0.37674 0.2813 0.72863 0.0
C2252 C 0.35471 0.27431 0.72673 0.0
C2253 C 0.34667 0.28318 0.71596 0.0
C2254 C 0.36067 0.29909 0.70708 0.0
C2255 C 0.38271 0.30612 0.70891 0.0
H2256 H 0.32961 0.27774 0.71451 0.0
H2257 H 0.5432 0.3447 0.72803 0.0
H2258 H 0.62423 0.09494 0.75973 0.0
H2259 H 0.66122 0.10919 0.75258 0.0
H2260 H 0.65011 0.14573 0.71865 0.0
H2261 H 0.61326 0.13147 0.72579 0.0
H2262 H 0.66583 0.12157 0.70566 0.0
H2263 H 0.68318 0.17031 0.75273 0.0
H2264 H 0.68374 0.18004 0.78113 0.0
H2265 H 0.71729 0.14682 0.79348 0.0
H2266 H 0.71664 0.13662 0.76515 0.0
H2267 H 0.77067 0.17575 0.68124 0.0
H2268 H 0.73622 0.16689 0.69109 0.0
H2269 H 0.75229 0.14186 0.73144 0.0
H2270 H 0.78724 0.15211 0.72219 0.0
H2271 H 0.73384 0.16073 0.74154 0.0
H2272 H 0.71516 0.10946 0.6964 0.0
H2273 H 0.71421 0.09716 0.66851 0.0
H2274 H 0.68241 0.13092 0.65317 0.0
H2275 H 0.6834 0.14363 0.68097 0.0
C2276 C 0.62996 0.10639 0.75102 0.0
C2277 C 0.61618 0.11235 0.74338 0.0
C2278 C 0.65102 0.11451 0.74693 0.0
C2279 C 0.65848 0.1286 0.7351 0.0
C2280 C 0.64474 0.13491 0.7278 0.0
C2281 C 0.62378 0.12689 0.73193 0.0
C2282 C 0.67995 0.13559 0.72948 0.0
C2283 C 0.68075 0.1304 0.71345 0.0
C2284 C 0.69934 0.14642 0.73977 0.0
C2285 C 0.69966 0.15252 0.75681 0.0
C2286 C 0.69049 0.16491 0.7615 0.0
C2287 C 0.69086 0.17054 0.77759 0.0
C2288 C 0.70049 0.164 0.7891 0.0
C2289 C 0.70981 0.15185 0.78455 0.0
C2290 C 0.70945 0.14615 0.76848 0.0
C2291 C 0.76678 0.16835 0.69221 0.0
C2292 C 0.78156 0.16454 0.70092 0.0
C2293 C 0.74701 0.16315 0.6978 0.0
C2294 C 0.74127 0.15321 0.71189 0.0
C2295 C 0.75618 0.14951 0.72058 0.0
C2296 C 0.77617 0.1553 0.71524 0.0
C2297 C 0.71983 0.14668 0.71763 0.0
C2298 C 0.71898 0.15191 0.73369 0.0
C2299 C 0.7003 0.13541 0.70746 0.0
C2300 C 0.69954 0.12765 0.69075 0.0
C2301 C 0.70808 0.11435 0.68707 0.0
C2302 C 0.70752 0.1073 0.67128 0.0
C2303 C 0.69831 0.1133 0.65908 0.0
C2304 C 0.68957 0.12631 0.66264 0.0
C2305 C 0.6901 0.13342 0.6784 0.0
H2306 H 0.6979 0.10783 0.64686 0.0
H2307 H 0.70078 0.1684 0.80155 0.0
H2308 H 0.93856 0.53477 0.70492 0.0
H2309 H 0.92396 0.55878 0.70293 0.0
H2310 H 0.89821 0.54206 0.74784 0.0
H2311 H 0.91253 0.5175 0.74958 0.0
H2312 H 0.86862 0.54003 0.72659 0.0
H2313 H 0.94134 0.59236 0.74407 0.0
H2314 H 0.9809 0.61121 0.74465 0.0
H2315 H 0.97624 0.62739 0.69728 0.0
H2316 H 0.93662 0.60837 0.69631 0.0
H2317 H 0.83757 0.62025 0.72422 0.0
H2318 H 0.85426 0.59947 0.73227 0.0
H2319 H 0.87981 0.60475 0.68712 0.0
H2320 H 0.86328 0.62559 0.67896 0.0
H2321 H 0.91026 0.61446 0.71235 0.0
H2322 H 0.83712 0.55874 0.6945 0.0
H2323 H 0.79762 0.54028 0.69439 0.0
H2324 H 0.8036 0.53134 0.7436 0.0
H2325 H 0.84319 0.55003 0.74405 0.0
C2326 C 0.93011 0.53658 0.71447 0.0
C2327 C 0.92676 0.52464 0.72746 0.0
C2328 C 0.92184 0.55032 0.71338 0.0
C2329 C 0.91024 0.55249 0.72535 0.0
C2330 C 0.9072 0.54072 0.73851 0.0
C2331 C 0.91544 0.52684 0.73956 0.0
C2332 C 0.90019 0.56597 0.72344 0.0
C2333 C 0.87782 0.55647 0.72383 0.0
C2334 C 0.91211 0.58731 0.71957 0.0
C2335 C 0.93597 0.59879 0.72009 0.0
C2336 C 0.94873 0.59979 0.73373 0.0
C2337 C 0.97117 0.61053 0.73413 0.0
C2338 C 0.98108 0.62046 0.721 0.0
C2339 C 0.96855 0.61969 0.70744 0.0
C2340 C 0.94609 0.60895 0.70697 0.0
C2341 C 0.84662 0.61689 0.71595 0.0
C2342 C 0.84907 0.62456 0.70093 0.0
C2343 C 0.85612 0.60498 0.72058 0.0
C2344 C 0.86821 0.60054 0.71027 0.0
C2345 C 0.87057 0.60806 0.69525 0.0
C2346 C 0.86101 0.61988 0.69059 0.0
C2347 C 0.87874 0.58834 0.71516 0.0
C2348 C 0.90118 0.59812 0.71534 0.0
C2349 C 0.86692 0.56734 0.71965 0.0
C2350 C 0.84312 0.55599 0.71935 0.0
C2351 C 0.83002 0.553 0.70533 0.0
C2352 C 0.80761 0.54246 0.7052 0.0
C2353 C 0.7981 0.5347 0.71899 0.0
C2354 C 0.81099 0.5374 0.73293 0.0
C2355 C 0.83341 0.54795 0.73313 0.0
H2356 H 0.78075 0.52655 0.71887 0.0
H2357 H -0.00154 0.62877 0.72134 0.0
H2358 H 0.47922 0.92473 0.25418 0.0
H2359 H 0.49098 0.94074 0.22954 0.0
H2360 H 0.42512 0.92 0.21243 0.0
H2361 H 0.41311 0.9028 0.23651 0.0
H2362 H 0.4435 0.91342 0.18948 0.0
H2363 H 0.46325 0.97344 0.22778 0.0
H2364 H 0.48094 -0.00305 0.25269 0.0
H2365 H 0.54279 0.01049 0.23949 0.0
H2366 H 0.52542 0.98683 0.21457 0.0
H2367 H 0.4615 0.98162 0.12842 0.0
H2368 H 0.45204 0.96494 0.15314 0.0
H2369 H 0.51772 0.98006 0.16441 0.0
H2370 H 0.52738 -0.00291 0.13979 0.0
H2371 H 0.50095 0.98931 0.19011 0.0
H2372 H 0.48023 0.93002 0.15091 0.0
H2373 H 0.46175 0.90728 0.1258 0.0
H2374 H 0.40054 0.89323 0.14072 0.0
H2375 H 0.41868 0.91613 0.16584 0.0
C2376 C 0.46718 0.92334 0.24511 0.0
C2377 C 0.44518 0.91255 0.24747 0.0
C2378 C 0.47398 0.93277 0.23108 0.0
C2379 C 0.459 0.93194 0.21918 0.0
C2380 C 0.43704 0.92099 0.22143 0.0
C2381 C 0.43022 0.91136 0.23534 0.0
C2382 C 0.46602 0.94229 0.20431 0.0
C2383 C 0.45589 0.93009 0.18967 0.0
C2384 C 0.48254 0.96393 0.20444 0.0
C2385 C 0.49301 0.97818 0.21939 0.0
C2386 C 0.4806 0.9813 0.23024 0.0
C2387 C 0.49058 0.99467 0.24436 0.0
C2388 C 0.51297 0.00515 0.24769 0.0
C2389 C 0.52544 0.00233 0.2369 0.0
C2390 C 0.51555 0.98895 0.22278 0.0
C2391 C 0.47397 0.98155 0.13621 0.0
C2392 C 0.49519 0.99066 0.13212 0.0
C2393 C 0.46851 0.97186 0.15028 0.0
C2394 C 0.48413 0.97107 0.16056 0.0
C2395 C 0.50539 0.98042 0.15663 0.0
C2396 C 0.51085 0.99001 0.14251 0.0
C2397 C 0.47824 0.96049 0.17539 0.0
C2398 C 0.48861 0.97263 0.18999 0.0
C2399 C 0.4618 0.93887 0.17524 0.0
C2400 C 0.45084 0.92495 0.16019 0.0
C2401 C 0.46284 0.92221 0.14879 0.0
C2402 C 0.45242 0.90927 0.13456 0.0
C2403 C 0.42999 0.89886 0.13166 0.0
C2404 C 0.41792 0.90132 0.14299 0.0
C2405 C 0.42826 0.91426 0.15722 0.0
H2406 H 0.42195 0.88885 0.12064 0.0
H2407 H 0.52066 0.0155 0.25862 0.0
H2408 H 0.04277 0.53541 0.26832 0.0
H2409 H 0.0327 0.5332 0.23997 0.0
H2410 H 0.08428 0.52191 0.22933 0.0
H2411 H 0.09497 0.52491 0.2577 0.0
H2412 H 0.08035 0.54784 0.20923 0.0
H2413 H 0.03347 0.48046 0.22847 0.0
H2414 H 0.00786 0.45673 0.24608 0.0
H2415 H 0.96316 0.47704 0.23146 0.0
H2416 H 0.98866 0.50114 0.21392 0.0
H2417 H 0.03917 0.4976 0.13019 0.0
H2418 H 0.053 0.50634 0.15829 0.0
H2419 H 0.00101 0.51718 0.16855 0.0
H2420 H 0.98717 0.50858 0.14049 0.0
H2421 H 0.00551 0.49234 0.18884 0.0
H2422 H 0.05227 0.55887 0.16861 0.0
H2423 H 0.0779 0.58193 0.15073 0.0
H2424 H 0.12289 0.56265 0.16684 0.0
H2425 H 0.09739 0.53922 0.18465 0.0
C2426 C 0.05227 0.5329 0.25997 0.0
C2427 C 0.06956 0.53014 0.26528 0.0
C2428 C 0.04636 0.53145 0.24376 0.0
C2429 C 0.05751 0.52701 0.23254 0.0
C2430 C 0.07537 0.52521 0.23778 0.0
C2431 C 0.08133 0.52673 0.254 0.0
C2432 C 0.04984 0.52314 0.21538 0.0
C2433 C 0.06406 0.53557 0.20473 0.0
C2434 C 0.02847 0.50734 0.20955 0.0
C2435 C 0.01306 0.49276 0.22001 0.0
C2436 C 0.01825 0.47998 0.2291 0.0
C2437 C 0.00375 0.46645 0.23905 0.0
C2438 C 0.98392 0.46542 0.23992 0.0
C2439 C 0.97854 0.47788 0.2308 0.0
C2440 C 0.993 0.49147 0.22084 0.0
C2441 C 0.03084 0.50211 0.1384 0.0
C2442 C 0.01203 0.50233 0.1331 0.0
C2443 C 0.03876 0.50709 0.15446 0.0
C2444 C 0.02812 0.51257 0.16551 0.0
C2445 C 0.00944 0.51294 0.16024 0.0
C2446 C 0.00151 0.50794 0.1442 0.0
C2447 C 0.03596 0.51712 0.18265 0.0
C2448 C 0.02177 0.50471 0.19331 0.0
C2449 C 0.05736 0.53288 0.18844 0.0
C2450 C 0.07282 0.54713 0.17786 0.0
C2451 C 0.06756 0.55942 0.16825 0.0
C2452 C 0.08208 0.57258 0.15815 0.0
C2453 C 0.10199 0.57371 0.15762 0.0
C2454 C 0.10745 0.56174 0.16724 0.0
C2455 C 0.09298 0.54853 0.17736 0.0
H2456 H 0.1132 0.5839 0.14977 0.0
H2457 H 0.97272 0.45493 0.24763 0.0
H2458 H 0.42871 0.52374 0.24349 0.0
H2459 H 0.43386 0.51547 0.21619 0.0
H2460 H 0.49267 0.51747 0.23341 0.0
H2461 H 0.48784 0.52637 0.26048 0.0
H2462 H 0.49995 0.54214 0.21076 0.0
H2463 H 0.44531 0.46996 0.2175 0.0
H2464 H 0.40967 0.44185 0.22358 0.0
H2465 H 0.37897 0.45732 0.18572 0.0
H2466 H 0.41443 0.48573 0.17955 0.0
H2467 H 0.52629 0.507 0.14141 0.0
H2468 H 0.51498 0.50894 0.16761 0.0
H2469 H 0.45871 0.50856 0.14634 0.0
H2470 H 0.46942 0.50561 0.11995 0.0
H2471 H 0.44856 0.48358 0.17024 0.0
H2472 H 0.50263 0.55516 0.16329 0.0
H2473 H 0.53801 0.58364 0.1571 0.0
H2474 H 0.56944 0.56979 0.19549 0.0
H2475 H 0.53425 0.54102 0.20178 0.0
C2476 C 0.44239 0.52182 0.2414 0.0
C2477 C 0.45787 0.52561 0.254 0.0
C2478 C 0.44535 0.51712 0.22583 0.0
C2479 C 0.46368 0.51584 0.2227 0.0
C2480 C 0.47848 0.51849 0.23547 0.0
C2481 C 0.47566 0.52342 0.25094 0.0
C2482 C 0.46865 0.5137 0.20617 0.0
C2483 C 0.4888 0.52911 0.202 0.0
C2484 C 0.45383 0.49723 0.19449 0.0
C2485 C 0.43252 0.48012 0.19817 0.0
C2486 C 0.43095 0.46749 0.21056 0.0
C2487 C 0.41079 0.45148 0.214 0.0
C2488 C 0.39207 0.44784 0.20507 0.0
C2489 C 0.39348 0.46017 0.19265 0.0
C2490 C 0.41361 0.47621 0.18916 0.0
C2491 C 0.51135 0.50704 0.14224 0.0
C2492 C 0.49882 0.50621 0.12851 0.0
C2493 C 0.505 0.50837 0.15727 0.0
C2494 C 0.48614 0.50921 0.15898 0.0
C2495 C 0.47337 0.50803 0.14532 0.0
C2496 C 0.47966 0.50659 0.13024 0.0
C2497 C 0.48004 0.5117 0.17505 0.0
C2498 C 0.45968 0.49653 0.17906 0.0
C2499 C 0.49462 0.52844 0.18663 0.0
C2500 C 0.51581 0.54581 0.18292 0.0
C2501 C 0.5171 0.55809 0.17034 0.0
C2502 C 0.53712 0.5743 0.16683 0.0
C2503 C 0.55596 0.57849 0.17588 0.0
C2504 C 0.55483 0.56651 0.18848 0.0
C2505 C 0.53485 0.55027 0.19204 0.0
H2506 H 0.57145 0.59105 0.17314 0.0
H2507 H 0.37647 0.43544 0.20776 0.0
H2508 H 0.92795 0.48983 0.78295 0.0
H2509 H 0.93616 0.49604 0.81199 0.0
H2510 H 0.97852 0.47007 0.80889 0.0
H2511 H 0.97034 0.46381 0.78014 0.0
H2512 H 0.95032 0.45157 0.83012 0.0
H2513 H -0.00224 0.52382 0.81722 0.0
H2514 H 0.00598 0.55726 0.80571 0.0
H2515 H 0.96382 0.56544 0.83528 0.0
H2516 H 0.95513 0.53189 0.84683 0.0
H2517 H 0.0133 0.47966 0.90317 0.0
H2518 H 0.0002 0.47662 0.87538 0.0
H2519 H 0.9613 0.50374 0.88891 0.0
H2520 H 0.97488 0.50737 0.91678 0.0
H2521 H 0.98226 0.52112 0.86333 0.0
H2522 H 0.93747 0.45113 0.87811 0.0
H2523 H 0.92876 0.41769 0.88978 0.0
H2524 H 0.96462 0.40478 0.85671 0.0
H2525 H 0.97382 0.43832 0.84498 0.0
C2526 C 0.93926 0.4858 0.78851 0.0
C2527 C 0.94833 0.47612 0.77936 0.0
C2528 C 0.94391 0.4893 0.80506 0.0
C2529 C 0.95786 0.48338 0.8126 0.0
C2530 C 0.96753 0.47453 0.80336 0.0
C2531 C 0.96285 0.47097 0.78693 0.0
C2532 C 0.96184 0.48533 0.83014 0.0
C2533 C 0.95747 0.46681 0.83736 0.0
C2534 C 0.97034 0.50505 0.83966 0.0
C2535 C 0.9756 0.52522 0.83274 0.0
C2536 C 0.9901 0.53266 0.82117 0.0
C2537 C 0.99487 0.55165 0.81466 0.0
C2538 C 0.98537 0.56343 0.81972 0.0
C2539 C 0.97113 0.55628 0.83134 0.0
C2540 C 0.96629 0.53728 0.83788 0.0
C2541 C 0.00207 0.48511 0.90024 0.0
C2542 C 0.9951 0.49374 0.91219 0.0
C2543 C 0.99445 0.4832 0.88436 0.0
C2544 C 0.97959 0.48974 0.88009 0.0
C2545 C 0.97269 0.49852 0.89195 0.0
C2546 C 0.98031 0.50041 0.90787 0.0
C2547 C 0.97149 0.48748 0.86318 0.0
C2548 C 0.97492 0.50584 0.85611 0.0
C2549 C 0.96201 0.46758 0.85375 0.0
C2550 C 0.95647 0.44734 0.86074 0.0
C2551 C 0.94364 0.44125 0.8734 0.0
C2552 C 0.93859 0.42226 0.88001 0.0
C2553 C 0.94616 0.40914 0.87401 0.0
C2554 C 0.95877 0.41497 0.86135 0.0
C2555 C 0.96389 0.43395 0.85471 0.0
H2556 H 0.94223 0.39444 0.87914 0.0
H2557 H 0.98909 0.57813 0.81467 0.0
H2558 H 0.53952 0.44291 0.78947 0.0
H2559 H 0.53095 0.44652 0.81652 0.0
H2560 H 0.56051 0.51486 0.81527 0.0
H2561 H 0.56934 0.51137 0.78836 0.0
H2562 H 0.57158 0.50667 0.84302 0.0
H2563 H 0.50488 0.48077 0.80994 0.0
H2564 H 0.47497 0.45603 0.7899 0.0
H2565 H 0.45894 0.40448 0.81886 0.0
H2566 H 0.48895 0.42887 0.83899 0.0
H2567 H 0.52459 0.53226 0.90537 0.0
H2568 H 0.53455 0.52609 0.87941 0.0
H2569 H 0.509 0.45941 0.88601 0.0
H2570 H 0.49866 0.46539 0.91194 0.0
H2571 H 0.49628 0.46514 0.85627 0.0
H2572 H 0.56207 0.49223 0.89019 0.0
H2573 H 0.5913 0.51772 0.91037 0.0
H2574 H 0.6086 0.56783 0.87983 0.0
H2575 H 0.57925 0.54271 0.85955 0.0
C2576 C 0.54413 0.45869 0.79496 0.0
C2577 C 0.55507 0.47685 0.78676 0.0
C2578 C 0.53922 0.46074 0.81042 0.0
C2579 C 0.54484 0.48095 0.8179 0.0
C2580 C 0.55605 0.49911 0.8098 0.0
C2581 C 0.56111 0.49709 0.79441 0.0
C2582 C 0.53887 0.48324 0.83407 0.0
C2583 C 0.55507 0.49774 0.84585 0.0
C2584 C 0.51741 0.47125 0.83793 0.0
C2585 C 0.4993 0.45659 0.82588 0.0
C2586 C 0.49507 0.46413 0.81198 0.0
C2587 C 0.47809 0.45017 0.80061 0.0
C2588 C 0.46511 0.42869 0.80308 0.0
C2589 C 0.46904 0.42112 0.81695 0.0
C2590 C 0.48602 0.435 0.82834 0.0
C2591 C 0.52097 0.51625 0.90126 0.0
C2592 C 0.51083 0.49931 0.91072 0.0
C2593 C 0.52683 0.51279 0.88648 0.0
C2594 C 0.52269 0.49233 0.88083 0.0
C2595 C 0.5124 0.47533 0.89016 0.0
C2596 C 0.50665 0.47881 0.90501 0.0
C2597 C 0.52894 0.4887 0.86511 0.0
C2598 C 0.51279 0.47396 0.85344 0.0
C2599 C 0.55042 0.50054 0.86133 0.0
C2600 C 0.56832 0.51562 0.8734 0.0
C2601 C 0.57201 0.50872 0.88781 0.0
C2602 C 0.58861 0.52309 0.89927 0.0
C2603 C 0.60176 0.54439 0.8964 0.0
C2604 C 0.59839 0.55133 0.88204 0.0
C2605 C 0.58178 0.53702 0.87055 0.0
H2606 H 0.61458 0.5555 0.9053 0.0
H2607 H 0.45197 0.41791 0.79427 0.0
H2608 H 0.57654 0.10083 0.80511 0.0
H2609 H 0.57168 0.0887 0.83178 0.0
H2610 H 0.50292 0.05169 0.81901 0.0
H2611 H 0.50767 0.0639 0.79268 0.0
H2612 H 0.51111 0.07343 0.84675 0.0
H2613 H 0.53591 0.02889 0.82187 0.0
H2614 H 0.56145 0.02207 0.80816 0.0
H2615 H 0.61039 0.05706 0.84712 0.0
H2616 H 0.58519 0.06432 0.86097 0.0
H2617 H 0.47151 0.00046 0.90403 0.0
H2618 H 0.48302 0.01674 0.87943 0.0
H2619 H 0.5486 0.05342 0.90122 0.0
H2620 H 0.53724 0.03685 0.92584 0.0
H2621 H 0.54604 0.03598 0.87086 0.0
H2622 H 0.52007 0.07777 0.89665 0.0
H2623 H 0.49432 0.08419 0.9104 0.0
H2624 H 0.44747 0.05427 0.86961 0.0
H2625 H 0.47284 0.04739 0.8557 0.0
C2626 C 0.56045 0.09001 0.80803 0.0
C2627 C 0.54248 0.08353 0.79688 0.0
C2628 C 0.55766 0.08306 0.82324 0.0
C2629 C 0.5369 0.06925 0.82744 0.0
C2630 C 0.51907 0.06249 0.81616 0.0
C2631 C 0.52181 0.06952 0.80109 0.0
C2632 C 0.53332 0.06203 0.84361 0.0
C2633 C 0.51863 0.06507 0.85193 0.0
C2634 C 0.54364 0.05175 0.85067 0.0
C2635 C 0.55875 0.04736 0.84237 0.0
C2636 C 0.55217 0.03527 0.82745 0.0
C2637 C 0.56657 0.0313 0.81967 0.0
C2638 C 0.58755 0.03918 0.82674 0.0
C2639 C 0.59415 0.051 0.84164 0.0
C2640 C 0.57981 0.05504 0.84946 0.0
C2641 C 0.48841 0.01186 0.90357 0.0
C2642 C 0.50344 0.01739 0.91693 0.0
C2643 C 0.49495 0.02128 0.88953 0.0
C2644 C 0.51665 0.03647 0.88853 0.0
C2645 C 0.53177 0.0418 0.90175 0.0
C2646 C 0.52522 0.03244 0.91584 0.0
C2647 C 0.52335 0.04682 0.87369 0.0
C2648 C 0.53867 0.04448 0.86569 0.0
C2649 C 0.51359 0.05772 0.86687 0.0
C2650 C 0.49831 0.06191 0.87518 0.0
C2651 C 0.50422 0.07241 0.89065 0.0
C2652 C 0.4897 0.07616 0.89847 0.0
C2653 C 0.46926 0.0696 0.89089 0.0
C2654 C 0.46331 0.05932 0.87547 0.0
C2655 C 0.47776 0.05552 0.86761 0.0
H2656 H 0.45804 0.07252 0.89697 0.0
H2657 H 0.59867 0.03609 0.82069 0.0
H2658 H 0.12562 0.22478 0.57443 0.0
H2659 H 0.13497 0.23822 0.54856 0.0
H2660 H 0.10626 0.27758 0.5562 0.0
H2661 H 0.09694 0.26431 0.58195 0.0
H2662 H 0.09437 0.25801 0.52688 0.0
H2663 H 0.16136 0.29851 0.56067 0.0
H2664 H 0.19148 0.30317 0.57928 0.0
H2665 H 0.20741 0.26901 0.54474 0.0
H2666 H 0.17719 0.2639 0.526 0.0
H2667 H 0.13902 0.33294 0.4708 0.0
H2668 H 0.1296 0.31559 0.49524 0.0
H2669 H 0.15778 0.27726 0.48195 0.0
H2670 H 0.16765 0.29487 0.45758 0.0
H2671 H 0.1696 0.29357 0.51301 0.0
H2672 H 0.10399 0.255 0.47861 0.0
H2673 H 0.0739 0.25035 0.45999 0.0
H2674 H 0.05531 0.28074 0.49559 0.0
H2675 H 0.08549 0.28584 0.51437 0.0
C2676 C 0.12141 0.23638 0.57062 0.0
C2677 C 0.11043 0.24337 0.58025 0.0
C2678 C 0.12676 0.24405 0.55582 0.0
C2679 C 0.12144 0.25903 0.55044 0.0
C2680 C 0.11043 0.26595 0.56002 0.0
C2681 C 0.10504 0.25827 0.57475 0.0
C2682 C 0.12724 0.26761 0.53486 0.0
C2683 C 0.11086 0.26597 0.52393 0.0
C2684 C 0.14866 0.27748 0.53077 0.0
C2685 C 0.16687 0.28062 0.542 0.0
C2686 C 0.17118 0.29185 0.55709 0.0
C2687 C 0.18829 0.2946 0.56765 0.0
C2688 C 0.20131 0.28634 0.56321 0.0
C2689 C 0.19729 0.27537 0.54818 0.0
C2690 C 0.18018 0.27255 0.53758 0.0
C2691 C 0.14335 0.32092 0.47311 0.0
C2692 C 0.15408 0.31529 0.46222 0.0
C2693 C 0.13778 0.31088 0.48703 0.0
C2694 C 0.14278 0.29495 0.49037 0.0
C2695 C 0.15369 0.28944 0.47961 0.0
C2696 C 0.15917 0.29941 0.46563 0.0
C2697 C 0.13678 0.28427 0.50517 0.0
C2698 C 0.1531 0.28548 0.51593 0.0
C2699 C 0.11531 0.27401 0.50911 0.0
C2700 C 0.09713 0.27098 0.49785 0.0
C2701 C 0.0936 0.26085 0.48243 0.0
C2702 C 0.0765 0.25811 0.47185 0.0
C2703 C 0.06273 0.26529 0.47659 0.0
C2704 C 0.066 0.2752 0.49193 0.0
C2705 C 0.08309 0.27801 0.50255 0.0
H2706 H 0.0495 0.26314 0.46839 0.0
H2707 H 0.21455 0.28848 0.57141 0.0
H2708 H 0.75643 0.89292 0.59361 0.0
H2709 H 0.74441 0.88986 0.56546 0.0
H2710 H 0.695 0.82433 0.56796 0.0
H2711 H 0.70692 0.82729 0.59603 0.0
H2712 H 0.71702 0.82758 0.54313 0.0
H2713 H 0.68305 0.86458 0.56538 0.0
H2714 H 0.68205 0.89362 0.58129 0.0
H2715 H 0.72542 0.93955 0.55234 0.0
H2716 H 0.72691 0.91081 0.53638 0.0
H2717 H 0.65233 0.80491 0.47092 0.0
H2718 H 0.66587 0.81195 0.49898 0.0
H2719 H 0.71461 0.87595 0.49159 0.0
H2720 H 0.70078 0.86918 0.46347 0.0
H2721 H 0.69528 0.87541 0.51845 0.0
H2722 H 0.72841 0.83861 0.49569 0.0
H2723 H 0.72985 0.80984 0.47978 0.0
H2724 H 0.68873 0.76391 0.50975 0.0
H2725 H 0.68679 0.79237 0.52571 0.0
C2726 C 0.74278 0.87798 0.58821 0.0
C2727 C 0.73269 0.86031 0.59702 0.0
C2728 C 0.73595 0.87624 0.57212 0.0
C2729 C 0.71876 0.85687 0.5646 0.0
C2730 C 0.70837 0.83939 0.57348 0.0
C2731 C 0.71522 0.84109 0.58951 0.0
C2732 C 0.71208 0.85441 0.54735 0.0
C2733 C 0.712 0.83788 0.53778 0.0
C2734 C 0.70624 0.86829 0.54027 0.0
C2735 C 0.70527 0.88557 0.54979 0.0
C2736 C 0.69251 0.8809 0.56248 0.0
C2737 C 0.69183 0.8973 0.5715 0.0
C2738 C 0.70372 0.91843 0.56786 0.0
C2739 C 0.71625 0.92319 0.55516 0.0
C2740 C 0.717 0.90684 0.54612 0.0
C2741 C 0.66583 0.82055 0.47527 0.0
C2742 C 0.67549 0.83648 0.46496 0.0
C2743 C 0.67366 0.82449 0.49129 0.0
C2744 C 0.69138 0.84441 0.49734 0.0
C2745 C 0.70096 0.86045 0.48714 0.0
C2746 C 0.69316 0.85649 0.47107 0.0
C2747 C 0.69984 0.84834 0.51433 0.0
C2748 C 0.70035 0.86517 0.52382 0.0
C2749 C 0.70614 0.83477 0.52137 0.0
C2750 C 0.7073 0.8176 0.51181 0.0
C2751 C 0.71953 0.82235 0.49881 0.0
C2752 C 0.72046 0.8061 0.48979 0.0
C2753 C 0.70934 0.78505 0.49373 0.0
C2754 C 0.69731 0.78022 0.50671 0.0
C2755 C 0.69631 0.79641 0.51575 0.0
H2756 H 0.71009 0.77249 0.48674 0.0
H2757 H 0.70318 0.93111 0.57485 0.0
H2758 H 0.11424 0.83487 0.5896 0.0
H2759 H 0.1175 0.8244 0.5624 0.0
H2760 H 0.12254 0.88265 0.54767 0.0
H2761 H 0.11871 0.89287 0.57466 0.0
H2762 H 0.10068 0.85004 0.52449 0.0
H2763 H 0.1673 0.88028 0.55893 0.0
H2764 H 0.19033 0.88244 0.58256 0.0
H2765 H 0.17834 0.81919 0.56839 0.0
H2766 H 0.15496 0.81654 0.54478 0.0
H2767 H 0.16484 0.87292 0.46048 0.0
H2768 H 0.15008 0.87311 0.48557 0.0
H2769 H 0.14776 0.81389 0.49425 0.0
H2770 H 0.16232 0.81345 0.46908 0.0
H2771 H 0.16511 0.8425 0.52009 0.0
H2772 H 0.10176 0.8145 0.48348 0.0
H2773 H 0.07986 0.81365 0.45961 0.0
H2774 H 0.08642 0.87358 0.47743 0.0
H2775 H 0.10864 0.87495 0.50132 0.0
C2776 C 0.1154 0.84512 0.58046 0.0
C2777 C 0.11652 0.86483 0.5843 0.0
C2778 C 0.11744 0.83921 0.56495 0.0
C2779 C 0.12071 0.85296 0.55306 0.0
C2780 C 0.12016 0.87184 0.55664 0.0
C2781 C 0.11812 0.87773 0.5721 0.0
C2782 C 0.12679 0.84889 0.53738 0.0
C2783 C 0.11479 0.84845 0.52351 0.0
C2784 C 0.14503 0.84649 0.53608 0.0
C2785 C 0.15919 0.84812 0.5502 0.0
C2786 C 0.16945 0.86678 0.56092 0.0
C2787 C 0.18258 0.8681 0.5743 0.0
C2788 C 0.18574 0.85094 0.577 0.0
C2789 C 0.17583 0.83245 0.5663 0.0
C2790 C 0.16264 0.83103 0.55292 0.0
C2791 C 0.16095 0.85979 0.46762 0.0
C2792 C 0.16477 0.84317 0.46274 0.0
C2793 C 0.1525 0.85992 0.48198 0.0
C2794 C 0.14756 0.84337 0.49172 0.0
C2795 C 0.15143 0.82681 0.48692 0.0
C2796 C 0.15988 0.82666 0.47257 0.0
C2797 C 0.13911 0.84381 0.50717 0.0
C2798 C 0.15076 0.84369 0.52102 0.0
C2799 C 0.12063 0.84581 0.50841 0.0
C2800 C 0.10701 0.8449 0.49415 0.0
C2801 C 0.09865 0.82757 0.48227 0.0
C2802 C 0.08617 0.82698 0.46874 0.0
C2803 C 0.08179 0.84357 0.46699 0.0
C2804 C 0.08983 0.86074 0.4788 0.0
C2805 C 0.10235 0.86142 0.49235 0.0
H2806 H 0.07214 0.8431 0.45649 0.0
H2807 H 0.19592 0.85199 0.58737 0.0
H2808 H 0.63272 0.84072 0.11134 0.0
H2809 H 0.64421 0.85248 0.13968 0.0
H2810 H 0.58946 0.79448 0.1512 0.0
H2811 H 0.57773 0.78286 0.12296 0.0
H2812 H 0.59827 0.82942 0.17178 0.0
H2813 H 0.63677 0.79685 0.14933 0.0
H2814 H 0.65978 0.79334 0.13046 0.0
H2815 H 0.71063 0.85732 0.14633 0.0
H2816 H 0.68777 0.8613 0.16514 0.0
H2817 H 0.63021 0.80906 0.2461 0.0
H2818 H 0.61807 0.80903 0.2186 0.0
H2819 H 0.67893 0.86551 0.21409 0.0
H2820 H 0.69124 0.86552 0.24164 0.0
H2821 H 0.66879 0.83673 0.1899 0.0
H2822 H 0.63188 0.86747 0.2152 0.0
H2823 H 0.60885 0.87059 0.23422 0.0
H2824 H 0.5552 0.81063 0.21342 0.0
H2825 H 0.57799 0.80698 0.19441 0.0
C2826 C 0.62288 0.83074 0.11993 0.0
C2827 C 0.60447 0.81077 0.11496 0.0
C2828 C 0.62951 0.83741 0.13609 0.0
C2829 C 0.61784 0.8242 0.14753 0.0
C2830 C 0.59873 0.80489 0.14258 0.0
C2831 C 0.59215 0.7982 0.12645 0.0
C2832 C 0.6264 0.82941 0.16453 0.0
C2833 C 0.61365 0.83098 0.17579 0.0
C2834 C 0.64668 0.8319 0.1697 0.0
C2835 C 0.66048 0.82946 0.15849 0.0
C2836 C 0.6528 0.81022 0.1487 0.0
C2837 C 0.66582 0.80814 0.13803 0.0
C2838 C 0.68663 0.82512 0.13716 0.0
C2839 C 0.69449 0.8442 0.14699 0.0
C2840 C 0.68151 0.84638 0.15766 0.0
C2841 C 0.64087 0.82169 0.23935 0.0
C2842 C 0.66168 0.8373 0.24605 0.0
C2843 C 0.6339 0.82168 0.22362 0.0
C2844 C 0.64748 0.83743 0.21431 0.0
C2845 C 0.66816 0.85321 0.22104 0.0
C2846 C 0.6752 0.85316 0.23676 0.0
C2847 C 0.64056 0.83652 0.19728 0.0
C2848 C 0.65359 0.83564 0.18597 0.0
C2849 C 0.62055 0.83469 0.1921 0.0
C2850 C 0.60671 0.83688 0.20344 0.0
C2851 C 0.61521 0.85487 0.21474 0.0
C2852 C 0.60219 0.85675 0.22551 0.0
C2853 C 0.58058 0.8408 0.22504 0.0
C2854 C 0.57194 0.82297 0.21377 0.0
C2855 C 0.5849 0.821 0.20298 0.0
H2856 H 0.57053 0.84228 0.2334 0.0
H2857 H 0.6967 0.82348 0.1289 0.0
H2858 H 0.2147 0.77909 0.12917 0.0
H2859 H 0.20362 0.78347 0.15507 0.0
H2860 H 0.2161 0.84655 0.14627 0.0
H2861 H 0.22702 0.84222 0.12026 0.0
H2862 H 0.23299 0.84678 0.17557 0.0
H2863 H 0.16474 0.80467 0.14423 0.0
H2864 H 0.13712 0.77413 0.12598 0.0
H2865 H 0.13392 0.73066 0.15948 0.0
H2866 H 0.16177 0.76094 0.17784 0.0
H2867 H 0.18163 0.86358 0.23891 0.0
H2868 H 0.19108 0.8583 0.21254 0.0
H2869 H 0.17968 0.79577 0.22201 0.0
H2870 H 0.16974 0.80076 0.24831 0.0
H2871 H 0.16212 0.79507 0.19241 0.0
H2872 H 0.23034 0.83699 0.22368 0.0
H2873 H 0.25809 0.8674 0.24195 0.0
H2874 H 0.26146 0.91109 0.20859 0.0
H2875 H 0.23347 0.88094 0.19021 0.0
C2876 C 0.2148 0.79379 0.13263 0.0
C2877 C 0.22173 0.81029 0.1226 0.0
C2878 C 0.20851 0.79629 0.14748 0.0
C2879 C 0.20886 0.81528 0.15259 0.0
C2880 C 0.21574 0.83178 0.14261 0.0
C2881 C 0.22204 0.82929 0.12775 0.0
C2882 C 0.2025 0.81812 0.16847 0.0
C2883 C 0.21737 0.83564 0.17916 0.0
C2884 C 0.18233 0.80329 0.17333 0.0
C2885 C 0.1655 0.78506 0.16234 0.0
C2886 C 0.15827 0.78858 0.14765 0.0
C2887 C 0.14255 0.77132 0.1373 0.0
C2888 C 0.13381 0.75046 0.14155 0.0
C2889 C 0.14073 0.74683 0.15619 0.0
C2890 C 0.15647 0.76403 0.16658 0.0
C2891 C 0.18096 0.84862 0.23534 0.0
C2892 C 0.17495 0.8326 0.24573 0.0
C2893 C 0.18654 0.8457 0.22031 0.0
C2894 C 0.1863 0.82672 0.21535 0.0
C2895 C 0.18005 0.81057 0.2256 0.0
C2896 C 0.17454 0.81352 0.24068 0.0
C2897 C 0.19258 0.82376 0.19947 0.0
C2898 C 0.17772 0.80621 0.1888 0.0
C2899 C 0.21277 0.83855 0.19463 0.0
C2900 C 0.22964 0.85672 0.20564 0.0
C2901 C 0.23686 0.8531 0.2203 0.0
C2902 C 0.25266 0.87028 0.23066 0.0
C2903 C 0.26149 0.89117 0.22645 0.0
C2904 C 0.25458 0.89491 0.21185 0.0
C2905 C 0.23876 0.87777 0.20145 0.0
H2906 H 0.27372 0.90446 0.23449 0.0
H2907 H 0.12165 0.73712 0.13352 0.0
H2908 H 0.17298 0.39221 0.12354 0.0
H2909 H 0.16844 0.38014 0.14995 0.0
H2910 H 0.23673 0.42058 0.16349 0.0
H2911 H 0.24142 0.43246 0.13668 0.0
H2912 H 0.22143 0.38245 0.17559 0.0
H2913 H 0.20176 0.43627 0.17504 0.0
H2914 H 0.18327 0.45466 0.16455 0.0
H2915 H 0.12187 0.39936 0.16875 0.0
H2916 H 0.13999 0.3805 0.17904 0.0
H2917 H 0.20284 0.36835 0.25736 0.0
H2918 H 0.21395 0.38465 0.23265 0.0
H2919 H 0.14846 0.34681 0.21083 0.0
H2920 H 0.13715 0.33089 0.23557 0.0
H2921 H 0.16635 0.38806 0.20454 0.0
H2922 H 0.18687 0.3336 0.20317 0.0
H2923 H 0.2059 0.31568 0.21361 0.0
H2924 H 0.26664 0.37358 0.21363 0.0
H2925 H 0.24793 0.39193 0.20337 0.0
C2926 C 0.18705 0.39855 0.13214 0.0
C2927 C 0.20751 0.41356 0.12816 0.0
C2928 C 0.18444 0.39167 0.14724 0.0
C2929 C 0.20215 0.39986 0.15885 0.0
C2930 C 0.2228 0.41419 0.15475 0.0
C2931 C 0.22547 0.42096 0.13948 0.0
C2932 C 0.19871 0.39363 0.17527 0.0
C2933 C 0.20968 0.38404 0.18206 0.0
C2934 C 0.18324 0.39553 0.18368 0.0
C2935 C 0.17225 0.40693 0.17772 0.0
C2936 C 0.18432 0.42799 0.17365 0.0
C2937 C 0.1739 0.4385 0.16774 0.0
C2938 C 0.15141 0.42817 0.16596 0.0
C2939 C 0.13929 0.40733 0.17013 0.0
C2940 C 0.14963 0.39674 0.17602 0.0
C2941 C 0.19077 0.36362 0.24734 0.0
C2942 C 0.1691 0.34825 0.24844 0.0
C2943 C 0.19719 0.37282 0.23318 0.0
C2944 C 0.18208 0.36681 0.21983 0.0
C2945 C 0.16042 0.35165 0.22095 0.0
C2946 C 0.15401 0.34243 0.23507 0.0
C2947 C 0.18862 0.37635 0.20467 0.0
C2948 C 0.17826 0.38667 0.19815 0.0
C2949 C 0.20475 0.37526 0.19661 0.0
C2950 C 0.21599 0.3642 0.20268 0.0
C2951 C 0.20427 0.34256 0.20552 0.0
C2952 C 0.215 0.33232 0.21138 0.0
C2953 C 0.23746 0.3435 0.21433 0.0
C2954 C 0.24924 0.36494 0.21137 0.0
C2955 C 0.23859 0.37527 0.20552 0.0
H2956 H 0.24573 0.33555 0.21886 0.0
H2957 H 0.14337 0.43633 0.16138 0.0
H2958 H 0.74686 0.562 0.9029 0.0
H2959 H 0.75762 0.57677 0.87775 0.0
H2960 H 0.82398 0.61248 0.89802 0.0
H2961 H 0.81321 0.59839 0.92346 0.0
H2962 H 0.814 0.63723 0.88181 0.0
H2963 H 0.80516 0.56752 0.87131 0.0
H2964 H 0.78643 0.52813 0.87003 0.0
H2965 H 0.73593 0.5235 0.83729 0.0
H2966 H 0.75422 0.5629 0.83854 0.0
H2967 H 0.85643 0.66847 0.80834 0.0
H2968 H 0.84795 0.65228 0.83328 0.0
H2969 H 0.78056 0.61644 0.81563 0.0
H2970 H 0.789 0.63201 0.79043 0.0
H2971 H 0.79249 0.59165 0.83059 0.0
H2972 H 0.80081 0.66144 0.84199 0.0
H2973 H 0.81964 0.70084 0.84331 0.0
H2974 H 0.8714 0.70519 0.87444 0.0
H2975 H 0.853 0.66577 0.87313 0.0
C2976 C 0.76375 0.57306 0.90205 0.0
C2977 C 0.77916 0.57903 0.91526 0.0
C2978 C 0.76992 0.58133 0.88759 0.0
C2979 C 0.79166 0.59558 0.88589 0.0
C2980 C 0.80712 0.60146 0.899 0.0
C2981 C 0.80095 0.59323 0.91351 0.0
C2982 C 0.79811 0.60486 0.8706 0.0
C2983 C 0.8096 0.62724 0.87065 0.0
C2984 C 0.79199 0.59188 0.85596 0.0
C2985 C 0.78098 0.56818 0.85513 0.0
C2986 C 0.78998 0.55811 0.86393 0.0
C2987 C 0.77945 0.53578 0.8632 0.0
C2988 C 0.75998 0.52332 0.85362 0.0
C2989 C 0.75101 0.53317 0.84472 0.0
C2990 C 0.76146 0.5555 0.84542 0.0
C2991 C 0.83982 0.65698 0.80968 0.0
C2992 C 0.8234 0.65161 0.79736 0.0
C2993 C 0.83497 0.64788 0.82403 0.0
C2994 C 0.81357 0.63332 0.82643 0.0
C2995 C 0.79718 0.62769 0.81409 0.0
C2996 C 0.80201 0.63677 0.79973 0.0
C2997 C 0.80825 0.62398 0.84182 0.0
C2998 C 0.79697 0.60161 0.84178 0.0
C2999 C 0.81459 0.63696 0.85647 0.0
C3000 C 0.82563 0.66065 0.85733 0.0
C3001 C 0.81629 0.67079 0.84902 0.0
C3002 C 0.82687 0.69313 0.84978 0.0
C3003 C 0.84673 0.70551 0.85892 0.0
C3004 C 0.85603 0.69558 0.86735 0.0
C3005 C 0.84552 0.67324 0.86661 0.0
H3006 H 0.8549 0.7228 0.85949 0.0
H3007 H 0.75185 0.50603 0.85307 0.0
H3008 H 0.41896 0.22884 0.93062 0.0
H3009 H 0.41014 0.2264 0.90193 0.0
H3010 H 0.37445 0.15747 0.89998 0.0
H3011 H 0.38312 0.15977 0.92851 0.0
H3012 H 0.40035 0.17019 0.87683 0.0
H3013 H 0.34909 0.18685 0.89816 0.0
H3014 H 0.33806 0.20835 0.91445 0.0
H3015 H 0.37455 0.26246 0.88886 0.0
H3016 H 0.38604 0.24135 0.87255 0.0
H3017 H 0.33469 0.13668 0.80404 0.0
H3018 H 0.34865 0.14488 0.83206 0.0
H3019 H 0.38296 0.21232 0.82621 0.0
H3020 H 0.36864 0.20423 0.79815 0.0
H3021 H 0.36164 0.20412 0.85275 0.0
H3022 H 0.41036 0.1864 0.82988 0.0
H3023 H 0.42117 0.16478 0.81352 0.0
H3024 H 0.3896 0.11271 0.84198 0.0
H3025 H 0.37832 0.13391 0.85837 0.0
C3026 C 0.40908 0.21319 0.92407 0.0
C3027 C 0.40185 0.19449 0.93182 0.0
C3028 C 0.40408 0.21182 0.90769 0.0
C3029 C 0.39159 0.19174 0.89881 0.0
C3030 C 0.38425 0.17312 0.90656 0.0
C3031 C 0.38926 0.17447 0.92287 0.0
C3032 C 0.38623 0.18989 0.88141 0.0
C3033 C 0.39172 0.17746 0.87158 0.0
C3034 C 0.37559 0.19994 0.87451 0.0
C3035 C 0.36863 0.21261 0.88427 0.0
C3036 C 0.35491 0.20339 0.8961 0.0
C3037 C 0.34854 0.21549 0.90532 0.0
C3038 C 0.35565 0.23678 0.90272 0.0
C3039 C 0.36909 0.24599 0.89087 0.0
C3040 C 0.37552 0.23396 0.88163 0.0
C3041 C 0.34514 0.15326 0.80872 0.0
C3042 C 0.35056 0.16981 0.79888 0.0
C3043 C 0.35326 0.15792 0.82471 0.0
C3044 C 0.36701 0.1792 0.83119 0.0
C3045 C 0.37243 0.19578 0.82143 0.0
C3046 C 0.36438 0.19112 0.80539 0.0
C3047 C 0.37533 0.18401 0.84824 0.0
C3048 C 0.37045 0.19703 0.85799 0.0
C3049 C 0.38654 0.1745 0.85509 0.0
C3050 C 0.39334 0.1617 0.84528 0.0
C3051 C 0.40557 0.17028 0.83257 0.0
C3052 C 0.41181 0.15811 0.82331 0.0
C3053 C 0.40604 0.13737 0.82669 0.0
C3054 C 0.39405 0.12877 0.83937 0.0
C3055 C 0.38775 0.14087 0.84866 0.0
H3056 H 0.41089 0.12798 0.8195 0.0
H3057 H 0.35071 0.24612 0.90987 0.0
H3058 H 0.78861 0.22219 0.90579 0.0
H3059 H 0.79026 0.20987 0.87878 0.0
H3060 H 0.78598 0.15272 0.89525 0.0
H3061 H 0.78442 0.16511 0.92242 0.0
H3062 H 0.81997 0.17352 0.87788 0.0
H3063 H 0.74484 0.14889 0.87169 0.0
H3064 H 0.71173 0.15083 0.87317 0.0
H3065 H 0.73402 0.20035 0.84181 0.0
H3066 H 0.76744 0.19899 0.84035 0.0
H3067 H 0.82494 0.13873 0.79882 0.0
H3068 H 0.81222 0.13932 0.82482 0.0
H3069 H 0.80912 0.19583 0.81571 0.0
H3070 H 0.82156 0.19517 0.78972 0.0
H3071 H 0.77511 0.1695 0.82953 0.0
H3072 H 0.85195 0.19807 0.83902 0.0
H3073 H 0.88575 0.19736 0.83773 0.0
H3074 H 0.86069 0.14161 0.86311 0.0
H3075 H 0.82662 0.14184 0.86437 0.0
C3076 C 0.78769 0.20684 0.9036 0.0
C3077 C 0.78644 0.19462 0.91619 0.0
C3078 C 0.78851 0.19975 0.88816 0.0
C3079 C 0.78815 0.18032 0.88497 0.0
C3080 C 0.78621 0.16773 0.89744 0.0
C3081 C 0.78518 0.17474 0.91292 0.0
C3082 C 0.79169 0.17425 0.86889 0.0
C3083 C 0.80987 0.17214 0.86731 0.0
C3084 C 0.77881 0.17297 0.8551 0.0
C3085 C 0.75876 0.17394 0.85601 0.0
C3086 C 0.74279 0.16034 0.86522 0.0
C3087 C 0.72394 0.16131 0.86604 0.0
C3088 C 0.72079 0.17573 0.85762 0.0
C3089 C 0.73648 0.1892 0.84834 0.0
C3090 C 0.75538 0.18832 0.84751 0.0
C3091 C 0.82154 0.15128 0.80238 0.0
C3092 C 0.82433 0.16695 0.79222 0.0
C3093 C 0.81426 0.1516 0.81724 0.0
C3094 C 0.80994 0.16778 0.82233 0.0
C3095 C 0.81226 0.18314 0.81205 0.0
C3096 C 0.81937 0.18273 0.79717 0.0
C3097 C 0.80365 0.16925 0.83851 0.0
C3098 C 0.785 0.17053 0.84011 0.0
C3099 C 0.81618 0.16995 0.85234 0.0
C3100 C 0.83666 0.16982 0.85162 0.0
C3101 C 0.85359 0.18557 0.84421 0.0
C3102 C 0.87281 0.18527 0.84351 0.0
C3103 C 0.87534 0.16941 0.85029 0.0
C3104 C 0.85869 0.15385 0.85783 0.0
C3105 C 0.83943 0.15406 0.85855 0.0
H3106 H 0.89023 0.1692 0.84973 0.0
H3107 H 0.70618 0.17644 0.85825 0.0
H3108 H 0.24459 0.11576 0.45626 0.0
H3109 H 0.25542 0.1276 0.48454 0.0
H3110 H 0.30983 0.1862 0.47345 0.0
H3111 H 0.29924 0.17423 0.44507 0.0
H3112 H 0.32155 0.16626 0.49455 0.0
H3113 H 0.26857 0.1874 0.48947 0.0
H3114 H 0.233 0.18324 0.48163 0.0
H3115 H 0.2037 0.13272 0.5117 0.0
H3116 H 0.23906 0.13635 0.51955 0.0
H3117 H 0.3545 0.20314 0.57569 0.0
H3118 H 0.34167 0.20193 0.54808 0.0
H3119 H 0.28348 0.14263 0.55256 0.0
H3120 H 0.29613 0.14383 0.5802 0.0
H3121 H 0.27487 0.16752 0.53467 0.0
H3122 H 0.32613 0.14292 0.53681 0.0
H3123 H 0.36117 0.14573 0.54443 0.0
H3124 H 0.39299 0.20146 0.51942 0.0
H3125 H 0.35813 0.19914 0.51184 0.0
C3126 C 0.25875 0.13125 0.45985 0.0
C3127 C 0.27115 0.14401 0.44847 0.0
C3128 C 0.26481 0.13809 0.47601 0.0
C3129 C 0.28336 0.15785 0.48111 0.0
C3130 C 0.29542 0.17093 0.46976 0.0
C3131 C 0.28929 0.16413 0.45357 0.0
C3132 C 0.2911 0.16385 0.49825 0.0
C3133 C 0.31153 0.16703 0.50329 0.0
C3134 C 0.27779 0.16427 0.50968 0.0
C3135 C 0.25647 0.16205 0.50501 0.0
C3136 C 0.25453 0.17528 0.49432 0.0
C3137 C 0.2344 0.17304 0.48989 0.0
C3138 C 0.21609 0.1577 0.49614 0.0
C3139 C 0.21789 0.14459 0.50686 0.0
C3140 C 0.23798 0.14675 0.51132 0.0
C3141 C 0.33893 0.1899 0.57081 0.0
C3142 C 0.32645 0.17343 0.58006 0.0
C3143 C 0.33159 0.18926 0.55504 0.0
C3144 C 0.31178 0.17199 0.54817 0.0
C3145 C 0.29882 0.15609 0.55761 0.0
C3146 C 0.30608 0.1568 0.57341 0.0
C3147 C 0.3052 0.16971 0.53092 0.0
C3148 C 0.285 0.16712 0.52588 0.0
C3149 C 0.31863 0.16966 0.51945 0.0
C3150 C 0.33957 0.171 0.52392 0.0
C3151 C 0.34062 0.15587 0.53304 0.0
C3152 C 0.36044 0.15736 0.53733 0.0
C3153 C 0.3793 0.1738 0.53245 0.0
C3154 C 0.37837 0.18875 0.52322 0.0
C3155 C 0.35859 0.18736 0.51891 0.0
H3156 H 0.39464 0.17493 0.53578 0.0
H3157 H 0.20053 0.15599 0.4927 0.0
H3158 H 0.89958 0.17676 0.45312 0.0
H3159 H 0.89157 0.18018 0.48025 0.0
H3160 H 0.86078 0.11168 0.48097 0.0
H3161 H 0.86874 0.10813 0.45368 0.0
H3162 H 0.83727 0.12663 0.49382 0.0
H3163 H 0.91094 0.14489 0.50057 0.0
H3164 H 0.94919 0.1637 0.4957 0.0
H3165 H 0.95498 0.22397 0.51149 0.0
H3166 H 0.91666 0.20555 0.51624 0.0
H3167 H 0.83238 0.13304 0.57762 0.0
H3168 H 0.84134 0.12623 0.55138 0.0
H3169 H 0.8697 0.19327 0.54492 0.0
H3170 H 0.86111 0.20024 0.57123 0.0
H3171 H 0.89484 0.17676 0.53563 0.0
H3172 H 0.82027 0.15799 0.52737 0.0
H3173 H 0.78204 0.13873 0.53227 0.0
H3174 H 0.7783 0.07857 0.51957 0.0
H3175 H 0.81662 0.09748 0.51481 0.0
C3176 C 0.89131 0.16242 0.45909 0.0
C3177 C 0.88499 0.14218 0.45127 0.0
C3178 C 0.88672 0.1644 0.47462 0.0
C3179 C 0.87588 0.14622 0.48277 0.0
C3180 C 0.86922 0.12594 0.47494 0.0
C3181 C 0.87374 0.12393 0.45934 0.0
C3182 C 0.87133 0.14851 0.49939 0.0
C3183 C 0.84992 0.1373 0.50302 0.0
C3184 C 0.88777 0.16269 0.51138 0.0
C3185 C 0.91087 0.17384 0.50864 0.0
C3186 C 0.92033 0.16217 0.5029 0.0
C3187 C 0.94202 0.17276 0.50018 0.0
C3188 C 0.95449 0.19502 0.50325 0.0
C3189 C 0.94529 0.20673 0.5091 0.0
C3190 C 0.92359 0.19622 0.51182 0.0
C3191 C 0.84069 0.14635 0.57067 0.0
C3192 C 0.84595 0.16717 0.57648 0.0
C3193 C 0.84566 0.14241 0.55563 0.0
C3194 C 0.85601 0.15921 0.54613 0.0
C3195 C 0.86166 0.18006 0.55203 0.0
C3196 C 0.85658 0.18399 0.56702 0.0
C3197 C 0.86079 0.1551 0.52996 0.0
C3198 C 0.88225 0.16596 0.52643 0.0
C3199 C 0.84442 0.14052 0.51811 0.0
C3200 C 0.82137 0.12914 0.5209 0.0
C3201 C 0.81135 0.14065 0.52575 0.0
C3202 C 0.78965 0.1298 0.52848 0.0
C3203 C 0.77777 0.10744 0.52627 0.0
C3204 C 0.78754 0.09589 0.52129 0.0
C3205 C 0.80924 0.10666 0.51857 0.0
H3206 H 0.76097 0.09907 0.52839 0.0
H3207 H 0.97129 0.2032 0.50113 0.0
H3208 H 0.8487 0.72494 0.45466 0.0
H3209 H 0.84269 0.70919 0.47985 0.0
H3210 H 0.9032 0.7625 0.50127 0.0
H3211 H 0.90954 0.778 0.47578 0.0
H3212 H 0.8962 0.72597 0.51289 0.0
H3213 H 0.85566 0.76141 0.50538 0.0
H3214 H 0.83047 0.76981 0.4908 0.0
H3215 H 0.77961 0.70458 0.49014 0.0
H3216 H 0.80459 0.69571 0.5045 0.0
H3217 H 0.86758 0.70755 0.59196 0.0
H3218 H 0.87817 0.72379 0.5672 0.0
H3219 H 0.81937 0.67233 0.54202 0.0
H3220 H 0.80832 0.65642 0.56678 0.0
H3221 H 0.82705 0.71002 0.5331 0.0
H3222 H 0.86851 0.67474 0.54024 0.0
H3223 H 0.89415 0.66691 0.55481 0.0
H3224 H 0.94367 0.7329 0.55672 0.0
H3225 H 0.91823 0.74118 0.54233 0.0
C3226 C 0.86087 0.73309 0.46469 0.0
C3227 C 0.87949 0.75275 0.46335 0.0
C3228 C 0.85739 0.72416 0.4791 0.0
C3229 C 0.87221 0.73493 0.4926 0.0
C3230 C 0.89146 0.75397 0.49106 0.0
C3231 C 0.8951 0.76279 0.47652 0.0
C3232 C 0.86688 0.72688 0.50839 0.0
C3233 C 0.88122 0.72276 0.51741 0.0
C3234 C 0.84723 0.72248 0.51427 0.0
C3235 C 0.83205 0.72786 0.50591 0.0
C3236 C 0.83913 0.74883 0.50206 0.0
C3237 C 0.82489 0.75368 0.49383 0.0
C3238 C 0.80347 0.73773 0.48952 0.0
C3239 C 0.79622 0.71692 0.49348 0.0
C3240 C 0.8104 0.71197 0.50167 0.0
C3241 C 0.85679 0.69978 0.58119 0.0
C3242 C 0.83709 0.68061 0.58139 0.0
C3243 C 0.86299 0.70898 0.56699 0.0
C3244 C 0.84971 0.69915 0.55267 0.0
C3245 C 0.82995 0.68017 0.55288 0.0
C3246 C 0.82373 0.67099 0.56705 0.0
C3247 C 0.85616 0.70871 0.53748 0.0
C3248 C 0.84205 0.71325 0.5286 0.0
C3249 C 0.87606 0.71361 0.53182 0.0
C3250 C 0.89141 0.70861 0.54035 0.0
C3251 C 0.88483 0.68761 0.54386 0.0
C3252 C 0.89933 0.68308 0.55207 0.0
C3253 C 0.92051 0.69941 0.55672 0.0
C3254 C 0.92725 0.72028 0.55313 0.0
C3255 C 0.9128 0.72489 0.54493 0.0
H3256 H 0.93171 0.69588 0.56308 0.0
H3257 H 0.79247 0.74151 0.48314 0.0
loop_
_geom_bond_atom_site_label_1
_geom_bond_atom_site_label_2
_geom_bond_distance
_geom_bond_site_symmetry_2
_ccdc_geom_bond_type
H0 C3 0.929 . S
H1 C6 0.929 . S
H2 C8 0.930 . S
C3 H0 0.929 . S
C3 C4 1.398 . S
C3 C5 1.396 . S
C4 C3 1.398 . S
C4 C8 1.407 . S
C5 C3 1.396 . S
C5 C6 1.394 . S
C6 H1 0.929 . S
C6 C5 1.394 . S
C6 C7 1.382 . S
C7 C6 1.382 . S
C7 C8 1.392 . S
C7 N9 1.420 . S
C8 H2 0.930 . S
C8 C4 1.407 . S
C8 C7 1.392 . S
N9 C7 1.420 . S
N9 C10 1.244 . S
C10 N9 1.244 . S
H11 C14 0.929 . S
H12 C17 0.929 . S
H13 C19 0.930 . S
C14 H11 0.929 . S
C14 C15 1.398 . S
C14 C16 1.396 . S
C15 C14 1.398 . S
C15 C19 1.407 . S
C16 C14 1.396 . S
C16 C17 1.394 . S
C17 H12 0.929 . S
C17 C16 1.394 . S
C17 C18 1.382 . S
C18 C17 1.382 . S
C18 C19 1.392 . S
C18 N20 1.420 . S
C19 H13 0.930 . S
C19 C15 1.407 . S
C19 C18 1.392 . S
N20 C18 1.420 . S
N20 C21 1.244 . S
C21 N20 1.244 . S
H22 C25 0.929 . S
H23 C28 0.929 . S
H24 C30 0.930 . S
C25 H22 0.929 . S
C25 C26 1.398 . S
C25 C27 1.396 . S
C26 C25 1.398 . S
C26 C30 1.407 . S
C27 C25 1.396 . S
C27 C28 1.394 . S
C28 H23 0.929 . S
C28 C27 1.394 . S
C28 C29 1.382 . S
C29 C28 1.382 . S
C29 C30 1.392 . S
C29 N31 1.420 . S
C30 H24 0.930 . S
C30 C26 1.407 . S
C30 C29 1.392 . S
N31 C29 1.420 . S
N31 C32 1.244 . S
C32 N31 1.244 . S
H33 C36 0.929 . S
H34 C39 0.929 . S
H35 C41 0.930 . S
C36 H33 0.929 . S
C36 C37 1.398 . S
C36 C38 1.396 . S
C37 C36 1.398 . S
C37 C41 1.407 . S
C38 C36 1.396 . S
C38 C39 1.394 . S
C39 H34 0.929 . S
C39 C38 1.394 . S
C39 C40 1.382 . S
C40 C39 1.382 . S
C40 C41 1.392 . S
C40 N42 1.420 . S
C41 H35 0.930 . S
C41 C37 1.407 . S
C41 C40 1.392 . S
N42 C40 1.420 . S
N42 C43 1.244 . S
C43 N42 1.244 . S
H44 C47 0.929 . S
H45 C50 0.929 . S
H46 C52 0.930 . S
C47 H44 0.929 . S
C47 C48 1.398 . S
C47 C49 1.396 . S
C48 C47 1.398 . S
C48 C52 1.407 . S
C49 C47 1.396 . S
C49 C50 1.394 . S
C50 H45 0.929 . S
C50 C49 1.394 . S
C50 C51 1.382 . S
C51 C50 1.382 . S
C51 C52 1.392 . S
C51 N53 1.420 . S
C52 H46 0.930 . S
C52 C48 1.407 . S
C52 C51 1.392 . S
N53 C51 1.420 . S
N53 C54 1.244 . S
C54 N53 1.244 . S
H55 C58 0.929 . S
H56 C61 0.929 . S
H57 C63 0.930 . S
C58 H55 0.929 . S
C58 C59 1.398 . S
C58 C60 1.396 . S
C59 C58 1.398 . S
C59 C63 1.407 . S
C60 C58 1.396 . S
C60 C61 1.394 . S
C61 H56 0.929 . S
C61 C60 1.394 . S
C61 C62 1.382 . S
C62 C61 1.382 . S
C62 C63 1.392 . S
C62 N64 1.420 . S
C63 H57 0.930 . S
C63 C59 1.407 . S
C63 C62 1.392 . S
N64 C62 1.420 . S
N64 C65 1.244 . S
C65 N64 1.244 . S
H66 C69 0.929 . S
H67 C72 0.929 . S
H68 C74 0.930 . S
C69 H66 0.929 . S
C69 C70 1.398 . S
C69 C71 1.396 . S
C70 C69 1.398 . S
C70 C74 1.407 . S
C71 C69 1.396 . S
C71 C72 1.394 . S
C72 H67 0.929 . S
C72 C71 1.394 . S
C72 C73 1.382 . S
C73 C72 1.382 . S
C73 C74 1.392 . S
C73 N75 1.420 . S
C74 H68 0.930 . S
C74 C70 1.407 . S
C74 C73 1.392 . S
N75 C73 1.420 . S
N75 C76 1.244 . S
C76 N75 1.244 . S
H77 C80 0.929 . S
H78 C83 0.929 . S
H79 C85 0.930 . S
C80 H77 0.929 . S
C80 C81 1.398 . S
C80 C82 1.396 . S
C81 C80 1.398 . S
C81 C85 1.407 . S
C82 C80 1.396 . S
C82 C83 1.394 . S
C83 H78 0.929 . S
C83 C82 1.394 . S
C83 C84 1.382 . S
C84 C83 1.382 . S
C84 C85 1.392 . S
C84 N86 1.420 . S
C85 H79 0.930 . S
C85 C81 1.407 . S
C85 C84 1.392 . S
N86 C84 1.420 . S
N86 C87 1.244 . S
C87 N86 1.244 . S
H88 C91 0.929 . S
H89 C94 0.929 . S
H90 C96 0.930 . S
C91 H88 0.929 . S
C91 C92 1.398 . S
C91 C93 1.396 . S
C92 C91 1.398 . S
C92 C96 1.407 . S
C93 C91 1.396 . S
C93 C94 1.394 . S
C94 H89 0.929 . S
C94 C93 1.394 . S
C94 C95 1.382 . S
C95 C94 1.382 . S
C95 C96 1.392 . S
C95 N97 1.420 . S
C96 H90 0.930 . S
C96 C92 1.407 . S
C96 C95 1.392 . S
N97 C95 1.420 . S
N97 C98 1.244 . S
C98 N97 1.244 . S
H99 C102 0.929 . S
H100 C105 0.929 . S
H101 C107 0.930 . S
C102 H99 0.929 . S
C102 C103 1.398 . S
C102 C104 1.396 . S
C103 C102 1.398 . S
C103 C107 1.407 . S
C104 C102 1.396 . S
C104 C105 1.394 . S
C105 H100 0.929 . S
C105 C104 1.394 . S
C105 C106 1.382 . S
C106 C105 1.382 . S
C106 C107 1.392 . S
C106 N108 1.420 . S
C107 H101 0.930 . S
C107 C103 1.407 . S
C107 C106 1.392 . S
N108 C106 1.420 . S
N108 C109 1.244 . S
C109 N108 1.244 . S
H110 C113 0.929 . S
H111 C116 0.929 . S
H112 C118 0.930 . S
C113 H110 0.929 . S
C113 C114 1.398 . S
C113 C115 1.396 . S
C114 C113 1.398 . S
C114 C118 1.407 . S
C115 C113 1.396 . S
C115 C116 1.394 . S
C116 H111 0.929 . S
C116 C115 1.394 . S
C116 C117 1.382 . S
C117 C116 1.382 . S
C117 C118 1.392 . S
C117 N119 1.420 . S
C118 H112 0.930 . S
C118 C114 1.407 . S
C118 C117 1.392 . S
N119 C117 1.420 . S
N119 C120 1.244 . S
C120 N119 1.244 . S
H121 C124 0.929 . S
H122 C127 0.929 . S
H123 C129 0.930 . S
C124 H121 0.929 . S
C124 C125 1.398 . S
C124 C126 1.396 . S
C125 C124 1.398 . S
C125 C129 1.407 . S
C126 C124 1.396 . S
C126 C127 1.394 . S
C127 H122 0.929 . S
C127 C126 1.394 . S
C127 C128 1.382 . S
C128 C127 1.382 . S
C128 C129 1.392 . S
C128 N130 1.420 . S
C129 H123 0.930 . S
C129 C125 1.407 . S
C129 C128 1.392 . S
N130 C128 1.420 . S
N130 C131 1.244 . S
C131 N130 1.244 . S
H132 C135 0.929 . S
H133 C138 0.929 . S
H134 C140 0.930 . S
C135 H132 0.929 . S
C135 C136 1.398 . S
C135 C137 1.396 . S
C136 C135 1.398 . S
C136 C140 1.407 . S
C137 C135 1.396 . S
C137 C138 1.394 . S
C138 H133 0.929 . S
C138 C137 1.394 . S
C138 C139 1.382 . S
C139 C138 1.382 . S
C139 C140 1.392 . S
C139 N141 1.420 . S
C140 H134 0.930 . S
C140 C136 1.407 . S
C140 C139 1.392 . S
N141 C139 1.420 . S
N141 C142 1.244 . S
C142 N141 1.244 . S
H143 C146 0.929 . S
H144 C149 0.929 . S
H145 C151 0.930 . S
C146 H143 0.929 . S
C146 C147 1.398 . S
C146 C148 1.396 . S
C147 C146 1.398 . S
C147 C151 1.407 . S
C148 C146 1.396 . S
C148 C149 1.394 . S
C149 H144 0.929 . S
C149 C148 1.394 . S
C149 C150 1.382 . S
C150 C149 1.382 . S
C150 C151 1.392 . S
C150 N152 1.420 . S
C151 H145 0.930 . S
C151 C147 1.407 . S
C151 C150 1.392 . S
N152 C150 1.420 . S
N152 C153 1.244 . S
C153 N152 1.244 . S
H154 C157 0.929 . S
H155 C160 0.929 . S
H156 C162 0.930 . S
C157 H154 0.929 . S
C157 C158 1.398 . S
C157 C159 1.396 . S
C158 C157 1.398 . S
C158 C162 1.407 . S
C159 C157 1.396 . S
C159 C160 1.394 . S
C160 H155 0.929 . S
C160 C159 1.394 . S
C160 C161 1.382 . S
C161 C160 1.382 . S
C161 C162 1.392 . S
C161 N163 1.420 . S
C162 H156 0.930 . S
C162 C158 1.407 . S
C162 C161 1.392 . S
N163 C161 1.420 . S
N163 C164 1.244 . S
C164 N163 1.244 . S
H165 C168 0.929 . S
H166 C171 0.929 . S
H167 C173 0.930 . S
C168 H165 0.929 . S
C168 C169 1.398 . S
C168 C170 1.396 . S
C169 C168 1.398 . S
C169 C173 1.407 . S
C170 C168 1.396 . S
C170 C171 1.394 . S
C171 H166 0.929 . S
C171 C170 1.394 . S
C171 C172 1.382 . S
C172 C171 1.382 . S
C172 C173 1.392 . S
C172 N174 1.420 . S
C173 H167 0.930 . S
C173 C169 1.407 . S
C173 C172 1.392 . S
N174 C172 1.420 . S
N174 C175 1.244 . S
C175 N174 1.244 . S
H176 C179 0.929 . S
H177 C182 0.929 . S
H178 C184 0.930 . S
C179 H176 0.929 . S
C179 C180 1.398 . S
C179 C181 1.396 . S
C180 C179 1.398 . S
C180 C184 1.407 . S
C181 C179 1.396 . S
C181 C182 1.394 . S
C182 H177 0.929 . S
C182 C181 1.394 . S
C182 C183 1.382 . S
C183 C182 1.382 . S
C183 C184 1.392 . S
C183 N185 1.420 . S
C184 H178 0.930 . S
C184 C180 1.407 . S
C184 C183 1.392 . S
N185 C183 1.420 . S
N185 C186 1.244 . S
C186 N185 1.244 . S
H187 C190 0.929 . S
H188 C193 0.929 . S
H189 C195 0.930 . S
C190 H187 0.929 . S
C190 C191 1.398 . S
C190 C192 1.396 . S
C191 C190 1.398 . S
C191 C195 1.407 . S
C192 C190 1.396 . S
C192 C193 1.394 . S
C193 H188 0.929 . S
C193 C192 1.394 . S
C193 C194 1.382 . S
C194 C193 1.382 . S
C194 C195 1.392 . S
C194 N196 1.420 . S
C195 H189 0.930 . S
C195 C191 1.407 . S
C195 C194 1.392 . S
N196 C194 1.420 . S
N196 C197 1.244 . S
C197 N196 1.244 . S
Eu198 C207 2.828 1_565 S
Eu198 O209 2.392 1_556 S
Eu198 O211 2.418 . S
Eu198 O216 2.373 1_565 S
Eu198 O219 2.488 . S
Eu198 O220 2.471 1_565 S
Eu198 O221 2.349 1_566 S
Eu199 O208 2.373 1_545 S
Eu199 O212 2.488 . S
Eu199 O213 2.471 1_545 S
Eu199 O214 2.349 1_545 S
Eu199 O217 2.392 . S
Eu199 O218 2.418 . S
Eu199 C228 2.828 . S
C200 O218 1.244 . S
C200 O221 1.265 . S
C201 C202 1.379 . S
C201 C205 1.410 . S
C201 C207 1.505 . S
C202 C201 1.379 . S
C202 C204 1.369 . S
C202 H230 0.930 . S
C203 C205 1.397 . S
C203 C206 1.382 . S
C203 H231 0.913 1_545 S
C204 C202 1.369 . S
C204 C206 1.392 . S
C204 H232 0.930 . S
C205 C201 1.410 . S
C205 C203 1.397 . S
C205 H233 0.881 1_545 S
C206 C203 1.382 . S
C206 C204 1.392 . S
C207 Eu198 2.828 1_545 S
C207 C201 1.505 . S
C207 O219 1.249 1_545 S
C207 O220 1.244 . S
O208 Eu199 2.373 1_565 S
O208 C210 1.258 . S
O209 Eu198 2.392 1_554 S
O209 C210 1.242 . S
C210 O208 1.258 . S
C210 O209 1.242 . S
O211 Eu198 2.418 . S
O211 C215 1.244 1_556 S
O212 Eu199 2.488 . S
O212 C228 1.249 . S
O213 Eu199 2.471 1_565 S
O213 C228 1.244 1_565 S
O214 Eu199 2.349 1_565 S
O214 C215 1.265 . S
C215 O211 1.244 1_554 S
C215 O214 1.265 . S
O216 Eu198 2.373 1_545 S
O216 C229 1.258 1_556 S
O217 Eu199 2.392 . S
O217 C229 1.242 . S
O218 Eu199 2.418 . S
O218 C200 1.244 . S
O219 Eu198 2.488 . S
O219 C207 1.249 1_565 S
O220 Eu198 2.471 1_545 S
O220 C207 1.244 . S
O221 Eu198 2.349 1_544 S
O221 C200 1.265 . S
C222 C223 1.379 . S
C222 C226 1.373 1_565 S
C222 C228 1.505 1_565 S
C223 C222 1.379 . S
C223 C225 1.369 . S
C223 H234 0.930 . S
C224 C226 1.383 . S
C224 C227 1.382 1_545 S
C224 H235 0.930 . S
C225 C223 1.369 . S
C225 C227 1.392 . S
C225 H236 0.930 . S
C226 C222 1.373 1_545 S
C226 C224 1.383 . S
C226 H237 0.931 . S
C227 C224 1.382 1_565 S
C227 C225 1.392 . S
C228 Eu199 2.828 . S
C228 O212 1.249 . S
C228 O213 1.244 1_545 S
C228 C222 1.505 1_545 S
C229 O216 1.258 1_554 S
C229 O217 1.242 . S
H230 C202 0.930 . S
H231 C203 0.913 1_565 S
H232 C204 0.930 . S
H233 C205 0.881 1_565 S
H234 C223 0.930 . S
H235 C224 0.930 . S
H236 C225 0.930 . S
H237 C226 0.931 . S
Eu238 C247 2.828 . S
Eu238 O249 2.392 1_556 S
Eu238 O251 2.420 . S
Eu238 O256 2.373 1_455 S
Eu238 O259 2.488 . S
Eu238 O260 2.471 1_455 S
Eu238 O261 2.349 1_456 S
Eu239 O248 2.373 1_655 S
Eu239 O252 2.488 . S
Eu239 O253 2.471 1_655 S
Eu239 O254 2.349 1_655 S
Eu239 O257 2.392 . S
Eu239 O258 2.418 . S
Eu239 C268 2.828 1_655 S
C240 O258 1.244 . S
C240 O261 1.265 . S
C241 C242 1.379 . S
C241 C245 1.373 1_655 S
C241 C247 1.505 1_655 S
C242 C241 1.379 . S
C242 C244 1.369 . S
C242 H270 0.930 . S
C243 C245 1.383 1_655 S
C243 C246 1.382 . S
C243 H271 0.930 1_655 S
C244 C242 1.369 . S
C244 C246 1.392 . S
C244 H272 0.930 . S
C245 C241 1.373 1_455 S
C245 C243 1.383 1_455 S
C245 H273 0.931 . S
C246 C243 1.382 . S
C246 C244 1.392 . S
C247 Eu238 2.828 . S
C247 C241 1.505 1_455 S
C247 O259 1.249 . S
C247 O260 1.244 1_455 S
O248 Eu239 2.373 1_455 S
O248 C250 1.258 . S
O249 Eu238 2.392 1_554 S
O249 C250 1.242 . S
C250 O248 1.258 . S
C250 O249 1.242 . S
O251 Eu238 2.420 . S
O251 C255 1.235 1_556 S
O252 Eu239 2.488 . S
O252 C268 1.249 1_655 S
O253 Eu239 2.471 1_455 S
O253 C268 1.244 . S
O254 Eu239 2.349 1_455 S
O254 C255 1.265 . S
C255 O251 1.235 1_554 S
C255 O254 1.265 . S
O256 Eu238 2.373 1_655 S
O256 C269 1.258 . S
O257 Eu239 2.392 . S
O257 C269 1.242 1_554 S
O258 Eu239 2.418 . S
O258 C240 1.244 . S
O259 Eu238 2.488 . S
O259 C247 1.249 . S
O260 Eu238 2.471 1_655 S
O260 C247 1.244 1_655 S
O261 Eu238 2.349 1_654 S
O261 C240 1.265 . S
C262 C263 1.379 . S
C262 C266 1.373 . S
C262 C268 1.505 . S
C263 C262 1.379 . S
C263 C265 1.369 . S
C263 H274 0.930 . S
C264 C266 1.383 . S
C264 C267 1.382 . S
C264 H275 0.930 . S
C265 C263 1.369 . S
C265 C267 1.392 . S
C265 H276 0.930 . S
C266 C262 1.373 . S
C266 C264 1.383 . S
C266 H277 0.931 1_455 S
C267 C264 1.382 . S
C267 C265 1.392 . S
C268 Eu239 2.828 1_455 S
C268 O252 1.249 1_455 S
C268 O253 1.244 . S
C268 C262 1.505 . S
C269 O256 1.258 . S
C269 O257 1.242 1_556 S
H270 C242 0.930 . S
H271 C243 0.930 1_455 S
H272 C244 0.930 . S
H273 C245 0.931 . S
H274 C263 0.930 . S
H275 C264 0.930 . S
H276 C265 0.930 . S
H277 C266 0.931 1_655 S
Eu278 C287 2.828 . S
Eu278 O289 2.392 . S
Eu278 O291 2.418 . S
Eu278 O296 2.373 . S
Eu278 O299 2.488 . S
Eu278 O300 2.471 . S
Eu278 O301 2.349 . S
Eu279 O288 2.373 . S
Eu279 O292 2.488 . S
Eu279 O293 2.471 . S
Eu279 O294 2.349 1_556 S
Eu279 O297 2.392 1_556 S
Eu279 O298 2.418 1_556 S
Eu279 C308 2.828 . S
C280 O298 1.244 . S
C280 O301 1.265 . S
C281 C282 1.379 . S
C281 C285 1.373 . S
C281 C287 1.505 . S
C282 C281 1.379 . S
C282 C284 1.369 . S
C282 H310 0.930 . S
C283 C285 1.383 . S
C283 C286 1.382 . S
C283 H311 0.930 . S
C284 C282 1.369 . S
C284 C286 1.392 . S
C284 H312 0.930 . S
C285 C281 1.373 . S
C285 C283 1.383 . S
C285 H313 0.931 . S
C286 C283 1.382 . S
C286 C284 1.392 . S
C287 Eu278 2.828 . S
C287 C281 1.505 . S
C287 O299 1.249 . S
C287 O300 1.244 . S
O288 Eu279 2.373 . S
O288 C290 1.258 1_556 S
O289 Eu278 2.392 . S
O289 C290 1.242 . S
C290 O288 1.258 1_554 S
C290 O289 1.242 . S
O291 Eu278 2.418 . S
O291 C295 1.244 . S
O292 Eu279 2.488 . S
O292 C308 1.249 . S
O293 Eu279 2.471 . S
O293 C308 1.244 . S
O294 Eu279 2.349 1_554 S
O294 C295 1.265 . S
C295 O291 1.244 . S
C295 O294 1.265 . S
O296 Eu278 2.373 . S
O296 C309 1.258 . S
O297 Eu279 2.392 1_554 S
O297 C309 1.242 . S
O298 Eu279 2.418 1_554 S
O298 C280 1.244 . S
O299 Eu278 2.488 . S
O299 C287 1.249 . S
O300 Eu278 2.471 . S
O300 C287 1.244 . S
O301 Eu278 2.349 . S
O301 C280 1.265 . S
C302 C303 1.379 . S
C302 C306 1.373 . S
C302 C308 1.505 . S
C303 C302 1.379 . S
C303 C305 1.369 . S
C303 H314 0.930 . S
C304 C306 1.383 . S
C304 C307 1.382 . S
C304 H315 0.930 . S
C305 C303 1.369 . S
C305 C307 1.392 . S
C305 H316 0.930 . S
C306 C302 1.373 . S
C306 C304 1.383 . S
C306 H317 0.931 . S
C307 C304 1.382 . S
C307 C305 1.392 . S
C308 Eu279 2.828 . S
C308 O292 1.249 . S
C308 O293 1.244 . S
C308 C302 1.505 . S
C309 O296 1.258 . S
C309 O297 1.242 . S
H310 C282 0.930 . S
H311 C283 0.930 . S
H312 C284 0.930 . S
H313 C285 0.931 . S
H314 C303 0.930 . S
H315 C304 0.930 . S
H316 C305 0.930 . S
H317 C306 0.931 . S
Eu318 C327 2.828 . S
Eu318 O329 2.392 . S
Eu318 O331 2.418 . S
Eu318 O336 2.373 . S
Eu318 O339 2.488 . S
Eu318 O340 2.471 . S
Eu318 O341 2.349 . S
Eu319 O328 2.373 . S
Eu319 O332 2.488 . S
Eu319 O333 2.471 . S
Eu319 O334 2.349 . S
Eu319 O337 2.392 . S
Eu319 O338 2.418 . S
Eu319 C348 2.828 . S
C320 O338 1.244 . S
C320 O341 1.265 . S
C321 C322 1.379 . S
C321 C325 1.373 . S
C321 C327 1.505 . S
C322 C321 1.379 . S
C322 C324 1.369 . S
C322 H350 0.930 . S
C323 C325 1.383 . S
C323 C326 1.382 . S
C323 H351 0.930 . S
C324 C322 1.369 . S
C324 C326 1.392 . S
C324 H352 0.930 . S
C325 C321 1.373 . S
C325 C323 1.383 . S
C325 H353 0.931 . S
C326 C323 1.382 . S
C326 C324 1.392 . S
C327 Eu318 2.828 . S
C327 C321 1.505 . S
C327 O339 1.249 . S
C327 O340 1.244 . S
O328 Eu319 2.373 . S
O328 C330 1.258 . S
O329 Eu318 2.392 . S
O329 C330 1.242 . S
C330 O328 1.258 . S
C330 O329 1.242 . S
O331 Eu318 2.418 . S
O331 C335 1.244 . S
O332 Eu319 2.488 . S
O332 C348 1.249 . S
O333 Eu319 2.471 . S
O333 C348 1.244 . S
O334 Eu319 2.349 . S
O334 C335 1.265 . S
C335 O331 1.244 . S
C335 O334 1.265 . S
O336 Eu318 2.373 . S
O336 C349 1.258 . S
O337 Eu319 2.392 . S
O337 C349 1.242 . S
O338 Eu319 2.418 . S
O338 C320 1.244 . S
O339 Eu318 2.488 . S
O339 C327 1.249 . S
O340 Eu318 2.471 . S
O340 C327 1.244 . S
O341 Eu318 2.349 . S
O341 C320 1.265 . S
C342 C343 1.379 . S
C342 C346 1.373 . S
C342 C348 1.505 . S
C343 C342 1.379 . S
C343 C345 1.369 . S
C343 H354 0.930 . S
C344 C346 1.383 . S
C344 C347 1.382 . S
C344 H355 0.930 . S
C345 C343 1.369 . S
C345 C347 1.392 . S
C345 H356 0.930 . S
C346 C342 1.373 . S
C346 C344 1.383 . S
C346 H357 0.931 . S
C347 C344 1.382 . S
C347 C345 1.392 . S
C348 Eu319 2.828 . S
C348 O332 1.249 . S
C348 O333 1.244 . S
C348 C342 1.505 . S
C349 O336 1.258 . S
C349 O337 1.242 . S
H350 C322 0.930 . S
H351 C323 0.930 . S
H352 C324 0.930 . S
H353 C325 0.931 . S
H354 C343 0.930 . S
H355 C344 0.930 . S
H356 C345 0.930 . S
H357 C346 0.931 . S
Eu358 C367 2.828 . S
Eu358 O369 2.392 . S
Eu358 O371 2.418 . S
Eu358 O376 2.373 . S
Eu358 O379 2.488 . S
Eu358 O380 2.471 . S
Eu358 O381 2.349 . S
Eu359 O368 2.373 . S
Eu359 O372 2.488 . S
Eu359 O373 2.471 . S
Eu359 O374 2.349 . S
Eu359 O377 2.392 . S
Eu359 O378 2.418 . S
Eu359 C388 2.828 . S
C360 O378 1.244 . S
C360 O381 1.265 . S
C361 C362 1.379 . S
C361 C365 1.373 . S
C361 C367 1.505 . S
C362 C361 1.379 . S
C362 C364 1.369 . S
C362 H390 0.930 . S
C363 C365 1.383 . S
C363 C366 1.382 . S
C363 H391 0.930 . S
C364 C362 1.369 . S
C364 C366 1.392 . S
C364 H392 0.930 . S
C365 C361 1.373 . S
C365 C363 1.383 . S
C365 H393 0.931 . S
C366 C363 1.382 . S
C366 C364 1.392 . S
C367 Eu358 2.828 . S
C367 C361 1.505 . S
C367 O379 1.249 . S
C367 O380 1.244 . S
O368 Eu359 2.373 . S
O368 C370 1.258 . S
O369 Eu358 2.392 . S
O369 C370 1.242 . S
C370 O368 1.258 . S
C370 O369 1.242 . S
O371 Eu358 2.418 . S
O371 C375 1.244 . S
O372 Eu359 2.488 . S
O372 C388 1.249 . S
O373 Eu359 2.471 . S
O373 C388 1.244 . S
O374 Eu359 2.349 . S
O374 C375 1.265 . S
C375 O371 1.244 . S
C375 O374 1.265 . S
O376 Eu358 2.373 . S
O376 C389 1.258 . S
O377 Eu359 2.392 . S
O377 C389 1.242 . S
O378 Eu359 2.418 . S
O378 C360 1.244 . S
O379 Eu358 2.488 . S
O379 C367 1.249 . S
O380 Eu358 2.471 . S
O380 C367 1.244 . S
O381 Eu358 2.349 . S
O381 C360 1.265 . S
C382 C383 1.379 . S
C382 C386 1.373 . S
C382 C388 1.505 . S
C383 C382 1.379 . S
C383 C385 1.369 . S
C383 H394 0.930 . S
C384 C386 1.383 . S
C384 C387 1.382 . S
C384 H395 0.930 . S
C385 C383 1.369 . S
C385 C387 1.392 . S
C385 H396 0.930 . S
C386 C382 1.373 . S
C386 C384 1.383 . S
C386 H397 0.931 . S
C387 C384 1.382 . S
C387 C385 1.392 . S
C388 Eu359 2.828 . S
C388 O372 1.249 . S
C388 O373 1.244 . S
C388 C382 1.505 . S
C389 O376 1.258 . S
C389 O377 1.242 . S
H390 C362 0.930 . S
H391 C363 0.930 . S
H392 C364 0.930 . S
H393 C365 0.931 . S
H394 C383 0.930 . S
H395 C384 0.930 . S
H396 C385 0.930 . S
H397 C386 0.931 . S
Eu398 C407 2.828 . S
Eu398 O409 2.392 . S
Eu398 O411 2.418 . S
Eu398 O416 2.373 . S
Eu398 O419 2.488 . S
Eu398 O420 2.471 . S
Eu398 O421 2.349 . S
Eu399 O408 2.373 . S
Eu399 O412 2.488 . S
Eu399 O413 2.471 . S
Eu399 O414 2.349 . S
Eu399 O417 2.392 . S
Eu399 O418 2.418 . S
Eu399 C428 2.828 . S
C400 O418 1.244 . S
C400 O421 1.265 . S
C401 C402 1.379 . S
C401 C405 1.373 . S
C401 C407 1.505 . S
C402 C401 1.379 . S
C402 C404 1.369 . S
C402 H430 0.930 . S
C403 C405 1.383 . S
C403 C406 1.382 . S
C403 H431 0.930 . S
C404 C402 1.369 . S
C404 C406 1.392 . S
C404 H432 0.930 . S
C405 C401 1.373 . S
C405 C403 1.383 . S
C405 H433 0.931 . S
C406 C403 1.382 . S
C406 C404 1.392 . S
C407 Eu398 2.828 . S
C407 C401 1.505 . S
C407 O419 1.249 . S
C407 O420 1.244 . S
O408 Eu399 2.373 . S
O408 C410 1.258 . S
O409 Eu398 2.392 . S
O409 C410 1.242 . S
C410 O408 1.258 . S
C410 O409 1.242 . S
O411 Eu398 2.418 . S
O411 C415 1.244 . S
O412 Eu399 2.488 . S
O412 C428 1.249 . S
O413 Eu399 2.471 . S
O413 C428 1.244 . S
O414 Eu399 2.349 . S
O414 C415 1.265 . S
C415 O411 1.244 . S
C415 O414 1.265 . S
O416 Eu398 2.373 . S
O416 C429 1.258 . S
O417 Eu399 2.392 . S
O417 C429 1.242 . S
O418 Eu399 2.418 . S
O418 C400 1.244 . S
O419 Eu398 2.488 . S
O419 C407 1.249 . S
O420 Eu398 2.471 . S
O420 C407 1.244 . S
O421 Eu398 2.349 . S
O421 C400 1.265 . S
C422 C423 1.379 . S
C422 C426 1.373 . S
C422 C428 1.505 . S
C423 C422 1.379 . S
C423 C425 1.369 . S
C423 H434 0.930 . S
C424 C426 1.383 . S
C424 C427 1.382 . S
C424 H435 0.930 . S
C425 C423 1.369 . S
C425 C427 1.392 . S
C425 H436 0.930 . S
C426 C422 1.373 . S
C426 C424 1.383 . S
C426 H437 0.931 . S
C427 C424 1.382 . S
C427 C425 1.392 . S
C428 Eu399 2.828 . S
C428 O412 1.249 . S
C428 O413 1.244 . S
C428 C422 1.505 . S
C429 O416 1.258 . S
C429 O417 1.242 . S
H430 C402 0.930 . S
H431 C403 0.930 . S
H432 C404 0.930 . S
H433 C405 0.931 . S
H434 C423 0.930 . S
H435 C424 0.930 . S
H436 C425 0.930 . S
H437 C426 0.931 . S
Eu438 C447 2.828 . S
Eu438 O449 2.392 . S
Eu438 O451 2.418 . S
Eu438 O456 2.373 . S
Eu438 O459 2.488 . S
Eu438 O460 2.471 . S
Eu438 O461 2.349 . S
Eu439 O448 2.373 . S
Eu439 O452 2.488 . S
Eu439 O453 2.471 . S
Eu439 O454 2.349 . S
Eu439 O457 2.392 . S
Eu439 O458 2.418 . S
Eu439 C468 2.828 . S
C440 O458 1.244 . S
C440 O461 1.265 . S
C441 C442 1.379 . S
C441 C445 1.373 . S
C441 C447 1.505 . S
C442 C441 1.379 . S
C442 C444 1.369 . S
C442 H470 0.930 . S
C443 C445 1.383 . S
C443 C446 1.382 . S
C443 H471 0.930 . S
C444 C442 1.369 . S
C444 C446 1.392 . S
C444 H472 0.930 . S
C445 C441 1.373 . S
C445 C443 1.383 . S
C445 H473 0.931 . S
C446 C443 1.382 . S
C446 C444 1.392 . S
C447 Eu438 2.828 . S
C447 C441 1.505 . S
C447 O459 1.249 . S
C447 O460 1.244 . S
O448 Eu439 2.373 . S
O448 C450 1.258 . S
O449 Eu438 2.392 . S
O449 C450 1.242 . S
C450 O448 1.258 . S
C450 O449 1.242 . S
O451 Eu438 2.418 . S
O451 C455 1.244 . S
O452 Eu439 2.488 . S
O452 C468 1.249 . S
O453 Eu439 2.471 . S
O453 C468 1.244 . S
O454 Eu439 2.349 . S
O454 C455 1.265 . S
C455 O451 1.244 . S
C455 O454 1.265 . S
O456 Eu438 2.373 . S
O456 C469 1.258 . S
O457 Eu439 2.392 . S
O457 C469 1.242 . S
O458 Eu439 2.418 . S
O458 C440 1.244 . S
O459 Eu438 2.488 . S
O459 C447 1.249 . S
O460 Eu438 2.471 . S
O460 C447 1.244 . S
O461 Eu438 2.349 . S
O461 C440 1.265 . S
C462 C463 1.379 . S
C462 C466 1.373 . S
C462 C468 1.505 . S
C463 C462 1.379 . S
C463 C465 1.369 . S
C463 H474 0.930 . S
C464 C466 1.383 . S
C464 C467 1.382 . S
C464 H475 0.930 . S
C465 C463 1.369 . S
C465 C467 1.392 . S
C465 H476 0.930 . S
C466 C462 1.373 . S
C466 C464 1.383 . S
C466 H477 0.931 . S
C467 C464 1.382 . S
C467 C465 1.392 . S
C468 Eu439 2.828 . S
C468 O452 1.249 . S
C468 O453 1.244 . S
C468 C462 1.505 . S
C469 O456 1.258 . S
C469 O457 1.242 . S
H470 C442 0.930 . S
H471 C443 0.930 . S
H472 C444 0.930 . S
H473 C445 0.931 . S
H474 C463 0.930 . S
H475 C464 0.930 . S
H476 C465 0.930 . S
H477 C466 0.931 . S
Eu478 C487 2.828 . S
Eu478 O489 2.392 . S
Eu478 O491 2.418 . S
Eu478 O496 2.373 . S
Eu478 O499 2.488 . S
Eu478 O500 2.471 . S
Eu478 O501 2.349 . S
Eu479 O488 2.373 . S
Eu479 O492 2.488 . S
Eu479 O493 2.471 . S
Eu479 O494 2.349 . S
Eu479 O497 2.392 . S
Eu479 O498 2.418 . S
Eu479 C508 2.828 . S
C480 O498 1.244 . S
C480 O501 1.265 . S
C481 C482 1.379 . S
C481 C485 1.373 . S
C481 C487 1.505 . S
C482 C481 1.379 . S
C482 C484 1.369 . S
C482 H510 0.930 . S
C483 C485 1.383 . S
C483 C486 1.382 . S
C483 H511 0.930 . S
C484 C482 1.369 . S
C484 C486 1.392 . S
C484 H512 0.930 . S
C485 C481 1.373 . S
C485 C483 1.383 . S
C485 H513 0.931 . S
C486 C483 1.382 . S
C486 C484 1.392 . S
C487 Eu478 2.828 . S
C487 C481 1.505 . S
C487 O499 1.249 . S
C487 O500 1.244 . S
O488 Eu479 2.373 . S
O488 C490 1.258 . S
O489 Eu478 2.392 . S
O489 C490 1.242 . S
C490 O488 1.258 . S
C490 O489 1.242 . S
O491 Eu478 2.418 . S
O491 C495 1.244 . S
O492 Eu479 2.488 . S
O492 C508 1.249 . S
O493 Eu479 2.471 . S
O493 C508 1.244 . S
O494 Eu479 2.349 . S
O494 C495 1.265 . S
C495 O491 1.244 . S
C495 O494 1.265 . S
O496 Eu478 2.373 . S
O496 C509 1.258 . S
O497 Eu479 2.392 . S
O497 C509 1.242 . S
O498 Eu479 2.418 . S
O498 C480 1.244 . S
O499 Eu478 2.488 . S
O499 C487 1.249 . S
O500 Eu478 2.471 . S
O500 C487 1.244 . S
O501 Eu478 2.349 . S
O501 C480 1.265 . S
C502 C503 1.379 . S
C502 C506 1.373 . S
C502 C508 1.505 . S
C503 C502 1.379 . S
C503 C505 1.369 . S
C503 H514 0.930 . S
C504 C506 1.383 . S
C504 C507 1.382 . S
C504 H515 0.930 . S
C505 C503 1.369 . S
C505 C507 1.392 . S
C505 H516 0.930 . S
C506 C502 1.373 . S
C506 C504 1.383 . S
C506 H517 0.931 . S
C507 C504 1.382 . S
C507 C505 1.392 . S
C508 Eu479 2.828 . S
C508 O492 1.249 . S
C508 O493 1.244 . S
C508 C502 1.505 . S
C509 O496 1.258 . S
C509 O497 1.242 . S
H510 C482 0.930 . S
H511 C483 0.930 . S
H512 C484 0.930 . S
H513 C485 0.931 . S
H514 C503 0.930 . S
H515 C504 0.930 . S
H516 C505 0.930 . S
H517 C506 0.931 . S
Eu518 C527 2.828 . S
Eu518 O529 2.392 . S
Eu518 O531 2.418 . S
Eu518 O536 2.373 . S
Eu518 O539 2.488 . S
Eu518 O540 2.471 . S
Eu518 O541 2.349 . S
Eu519 O528 2.373 . S
Eu519 O532 2.488 . S
Eu519 O533 2.471 . S
Eu519 O534 2.349 . S
Eu519 O537 2.392 . S
Eu519 O538 2.418 . S
Eu519 C548 2.828 . S
C520 O538 1.244 . S
C520 O541 1.265 . S
C521 C522 1.379 . S
C521 C525 1.373 . S
C521 C527 1.505 . S
C522 C521 1.379 . S
C522 C524 1.369 . S
C522 H550 0.930 . S
C523 C525 1.383 . S
C523 C526 1.382 . S
C523 H551 0.930 . S
C524 C522 1.369 . S
C524 C526 1.392 . S
C524 H552 0.930 . S
C525 C521 1.373 . S
C525 C523 1.383 . S
C525 H553 0.931 . S
C526 C523 1.382 . S
C526 C524 1.392 . S
C527 Eu518 2.828 . S
C527 C521 1.505 . S
C527 O539 1.249 . S
C527 O540 1.244 . S
O528 Eu519 2.373 . S
O528 C530 1.258 . S
O529 Eu518 2.392 . S
O529 C530 1.242 . S
C530 O528 1.258 . S
C530 O529 1.242 . S
O531 Eu518 2.418 . S
O531 C535 1.244 . S
O532 Eu519 2.488 . S
O532 C548 1.249 . S
O533 Eu519 2.471 . S
O533 C548 1.244 . S
O534 Eu519 2.349 . S
O534 C535 1.265 . S
C535 O531 1.244 . S
C535 O534 1.265 . S
O536 Eu518 2.373 . S
O536 C549 1.258 . S
O537 Eu519 2.392 . S
O537 C549 1.242 . S
O538 Eu519 2.418 . S
O538 C520 1.244 . S
O539 Eu518 2.488 . S
O539 C527 1.249 . S
O540 Eu518 2.471 . S
O540 C527 1.244 . S
O541 Eu518 2.349 . S
O541 C520 1.265 . S
C542 C543 1.379 . S
C542 C546 1.373 . S
C542 C548 1.505 . S
C543 C542 1.379 . S
C543 C545 1.369 . S
C543 H554 0.930 . S
C544 C546 1.383 . S
C544 C547 1.382 . S
C544 H555 0.930 . S
C545 C543 1.369 . S
C545 C547 1.392 . S
C545 H556 0.930 . S
C546 C542 1.373 . S
C546 C544 1.383 . S
C546 H557 0.931 . S
C547 C544 1.382 . S
C547 C545 1.392 . S
C548 Eu519 2.828 . S
C548 O532 1.249 . S
C548 O533 1.244 . S
C548 C542 1.505 . S
C549 O536 1.258 . S
C549 O537 1.242 . S
H550 C522 0.930 . S
H551 C523 0.930 . S
H552 C524 0.930 . S
H553 C525 0.931 . S
H554 C543 0.930 . S
H555 C544 0.930 . S
H556 C545 0.930 . S
H557 C546 0.931 . S
H558 C576 0.951 . S
H559 C578 0.951 . S
H560 C580 0.950 . S
H561 C581 0.950 . S
H562 C583 0.950 . S
H563 C586 0.950 . S
H564 C587 0.950 . S
H565 C589 0.950 . S
H566 C590 0.950 . S
H567 C591 0.951 . S
H568 C593 0.951 . S
H569 C595 0.950 . S
H570 C596 0.950 . S
H571 C598 0.950 . S
H572 C601 0.950 . S
H573 C602 0.950 . S
H574 C604 0.950 . S
H575 C605 0.960 . S
C576 H558 0.951 . S
C576 C577 1.366 . S
C576 C578 1.388 . S
C577 C576 1.366 . S
C577 C581 1.385 . S
C578 H559 0.951 . S
C578 C576 1.388 . S
C578 C579 1.366 . S
C579 C578 1.366 . S
C579 C580 1.414 . S
C579 C582 1.499 . S
C580 H560 0.950 . S
C580 C579 1.414 . S
C580 C581 1.374 . S
C581 H561 0.950 . S
C581 C577 1.385 . S
C581 C580 1.374 . S
C582 C579 1.499 . S
C582 C583 1.373 . S
C582 C584 1.389 . S
C583 H562 0.950 . S
C583 C582 1.373 . S
C583 C599 1.377 . S
C584 C582 1.389 . S
C584 C585 1.524 . S
C584 C598 1.377 . S
C585 C584 1.524 . S
C585 C586 1.397 . S
C585 C590 1.363 . S
C586 H563 0.950 . S
C586 C585 1.397 . S
C586 C587 1.334 . S
C587 H564 0.950 . S
C587 C586 1.334 . S
C587 C588 1.287 . S
C588 C587 1.287 . S
C588 C589 1.524 . S
C588 H607 0.913 . S
C589 H565 0.950 . S
C589 C588 1.524 . S
C589 C590 1.415 . S
C590 H566 0.950 . S
C590 C585 1.363 . S
C590 C589 1.415 . S
C591 H567 0.951 . S
C591 C592 1.366 . S
C591 C593 1.388 . S
C592 C591 1.366 . S
C592 C596 1.385 . S
C593 H568 0.951 . S
C593 C591 1.388 . S
C593 C594 1.366 . S
C594 C593 1.366 . S
C594 C595 1.414 . S
C594 C597 1.499 . S
C595 H569 0.950 . S
C595 C594 1.414 . S
C595 C596 1.374 . S
C596 H570 0.950 . S
C596 C592 1.385 . S
C596 C595 1.374 . S
C597 C594 1.499 . S
C597 C598 1.373 . S
C597 C599 1.389 . S
C598 H571 0.950 . S
C598 C584 1.377 . S
C598 C597 1.373 . S
C599 C583 1.377 . S
C599 C597 1.389 . S
C599 C600 1.524 . S
C600 C599 1.524 . S
C600 C601 1.397 . S
C600 C605 1.363 . S
C601 H572 0.950 . S
C601 C600 1.397 . S
C601 C602 1.334 . S
C602 H573 0.950 . S
C602 C601 1.334 . S
C602 C603 1.287 . S
C603 C602 1.287 . S
C603 C604 1.524 1_554 S
C603 H606 0.999 1_554 S
C604 H574 0.950 . S
C604 C603 1.524 1_556 S
C604 C605 1.415 1_556 S
C605 H575 0.960 . S
C605 C600 1.363 . S
C605 C604 1.415 1_554 S
H606 C603 0.999 1_556 S
H607 C588 0.913 . S
H608 C626 0.951 . S
H609 C628 0.951 . S
H610 C630 0.950 . S
H611 C631 0.950 . S
H612 C633 0.950 . S
H613 C636 0.950 . S
H614 C637 0.950 . S
H615 C639 0.950 . S
H616 C640 0.950 . S
H617 C641 0.951 . S
H618 C643 0.951 . S
H619 C645 0.950 . S
H620 C646 0.950 . S
H621 C648 0.950 . S
H622 C651 0.950 . S
H623 C652 0.950 . S
H624 C654 0.950 . S
H625 C655 0.950 . S
C626 H608 0.951 . S
C626 C627 1.366 . S
C626 C628 1.388 . S
C627 C626 1.366 . S
C627 C631 1.385 . S
C628 H609 0.951 . S
C628 C626 1.388 . S
C628 C629 1.366 . S
C629 C628 1.366 . S
C629 C630 1.414 . S
C629 C632 1.499 . S
C630 H610 0.950 . S
C630 C629 1.414 . S
C630 C631 1.374 . S
C631 H611 0.950 . S
C631 C627 1.385 . S
C631 C630 1.374 . S
C632 C629 1.499 . S
C632 C633 1.373 . S
C632 C634 1.389 . S
C633 H612 0.950 . S
C633 C632 1.373 . S
C633 C649 1.377 . S
C634 C632 1.389 . S
C634 C635 1.524 . S
C634 C648 1.377 . S
C635 C634 1.524 . S
C635 C636 1.397 . S
C635 C640 1.363 . S
C636 H613 0.950 . S
C636 C635 1.397 . S
C636 C637 1.334 . S
C637 H614 0.950 . S
C637 C636 1.334 . S
C637 C638 1.287 . S
C638 C637 1.287 . S
C638 C639 1.524 . S
C638 H657 0.913 . S
C639 H615 0.950 . S
C639 C638 1.524 . S
C639 C640 1.415 . S
C640 H616 0.950 . S
C640 C635 1.363 . S
C640 C639 1.415 . S
C641 H617 0.951 . S
C641 C642 1.366 . S
C641 C643 1.388 . S
C642 C641 1.366 . S
C642 C646 1.385 . S
C643 H618 0.951 . S
C643 C641 1.388 . S
C643 C644 1.366 . S
C644 C643 1.366 . S
C644 C645 1.414 . S
C644 C647 1.499 . S
C645 H619 0.950 . S
C645 C644 1.414 . S
C645 C646 1.374 . S
C646 H620 0.950 . S
C646 C642 1.385 . S
C646 C645 1.374 . S
C647 C644 1.499 . S
C647 C648 1.373 . S
C647 C649 1.389 . S
C648 H621 0.950 . S
C648 C634 1.377 . S
C648 C647 1.373 . S
C649 C633 1.377 . S
C649 C647 1.389 . S
C649 C650 1.524 . S
C650 C649 1.524 . S
C650 C651 1.397 . S
C650 C655 1.363 . S
C651 H622 0.950 . S
C651 C650 1.397 . S
C651 C652 1.334 . S
C652 H623 0.950 . S
C652 C651 1.334 . S
C652 C653 1.287 . S
C653 C652 1.287 . S
C653 C654 1.524 . S
C653 H656 0.999 . S
C654 H624 0.950 . S
C654 C653 1.524 . S
C654 C655 1.415 . S
C655 H625 0.950 . S
C655 C650 1.363 . S
C655 C654 1.415 . S
H656 C653 0.999 . S
H657 C638 0.913 . S
H658 C676 0.951 . S
H659 C678 0.951 . S
H660 C680 0.950 . S
H661 C681 0.950 . S
H662 C683 0.950 . S
H663 C686 0.950 . S
H664 C687 0.933 1_554 S
H665 C689 0.950 . S
H666 C690 0.950 . S
H667 C691 0.951 . S
H668 C693 0.951 . S
H669 C695 0.950 . S
H670 C696 0.950 . S
H671 C698 0.950 . S
H672 C701 0.950 . S
H673 C702 0.950 . S
H674 C704 0.950 . S
H675 C705 0.950 . S
C676 H658 0.951 . S
C676 C677 1.366 . S
C676 C678 1.388 . S
C677 C676 1.366 . S
C677 C681 1.385 . S
C678 H659 0.951 . S
C678 C676 1.388 . S
C678 C679 1.366 . S
C679 C678 1.366 . S
C679 C680 1.414 . S
C679 C682 1.499 . S
C680 H660 0.950 . S
C680 C679 1.414 . S
C680 C681 1.374 . S
C681 H661 0.950 . S
C681 C677 1.385 . S
C681 C680 1.374 . S
C682 C679 1.499 . S
C682 C683 1.373 . S
C682 C684 1.389 . S
C683 H662 0.950 . S
C683 C682 1.373 . S
C683 C699 1.377 . S
C684 C682 1.389 . S
C684 C685 1.524 . S
C684 C698 1.377 . S
C685 C684 1.524 . S
C685 C686 1.397 . S
C685 C690 1.363 1_554 S
C686 H663 0.950 . S
C686 C685 1.397 . S
C686 C687 1.278 1_554 S
C687 H664 0.933 1_556 S
C687 C686 1.278 1_556 S
C687 C688 1.359 . S
C688 C687 1.359 . S
C688 C689 1.524 . S
C688 H707 0.913 . S
C689 H665 0.950 . S
C689 C688 1.524 . S
C689 C690 1.415 . S
C690 H666 0.950 . S
C690 C685 1.363 1_556 S
C690 C689 1.415 . S
C691 H667 0.951 . S
C691 C692 1.366 . S
C691 C693 1.388 . S
C692 C691 1.366 . S
C692 C696 1.385 . S
C693 H668 0.951 . S
C693 C691 1.388 . S
C693 C694 1.366 . S
C694 C693 1.366 . S
C694 C695 1.414 . S
C694 C697 1.499 . S
C695 H669 0.950 . S
C695 C694 1.414 . S
C695 C696 1.374 . S
C696 H670 0.950 . S
C696 C692 1.385 . S
C696 C695 1.374 . S
C697 C694 1.499 . S
C697 C698 1.373 . S
C697 C699 1.389 . S
C698 H671 0.950 . S
C698 C684 1.377 . S
C698 C697 1.373 . S
C699 C683 1.377 . S
C699 C697 1.389 . S
C699 C700 1.524 . S
C700 C699 1.524 . S
C700 C701 1.397 . S
C700 C705 1.363 . S
C701 H672 0.950 . S
C701 C700 1.397 . S
C701 C702 1.334 . S
C702 H673 0.950 . S
C702 C701 1.334 . S
C702 C703 1.287 . S
C703 C702 1.287 . S
C703 C704 1.524 . S
C703 H706 0.999 . S
C704 H674 0.950 . S
C704 C703 1.524 . S
C704 C705 1.415 . S
C705 H675 0.950 . S
C705 C700 1.363 . S
C705 C704 1.415 . S
H706 C703 0.999 . S
H707 C688 0.913 . S
H708 C726 0.951 . S
H709 C728 0.951 . S
H710 C730 0.950 . S
H711 C731 0.950 . S
H712 C733 0.950 . S
H713 C736 0.950 . S
H714 C737 0.950 . S
H715 C739 0.950 . S
H716 C740 0.950 . S
H717 C741 0.951 . S
H718 C743 0.951 . S
H719 C745 0.950 . S
H720 C746 0.950 . S
H721 C748 0.950 . S
H722 C751 0.914 1_556 S
H723 C752 0.950 . S
H724 C754 0.950 . S
H725 C755 0.950 . S
C726 H708 0.951 . S
C726 C727 1.366 . S
C726 C728 1.388 . S
C727 C726 1.366 . S
C727 C731 1.385 . S
C728 H709 0.951 . S
C728 C726 1.388 . S
C728 C729 1.366 . S
C729 C728 1.366 . S
C729 C730 1.414 . S
C729 C732 1.499 . S
C730 H710 0.950 . S
C730 C729 1.414 . S
C730 C731 1.374 . S
C731 H711 0.950 . S
C731 C727 1.385 . S
C731 C730 1.374 . S
C732 C729 1.499 . S
C732 C733 1.373 . S
C732 C734 1.389 . S
C733 H712 0.950 . S
C733 C732 1.373 . S
C733 C749 1.377 . S
C734 C732 1.389 . S
C734 C735 1.524 . S
C734 C748 1.377 . S
C735 C734 1.524 . S
C735 C736 1.397 . S
C735 C740 1.363 . S
C736 H713 0.950 . S
C736 C735 1.397 . S
C736 C737 1.334 . S
C737 H714 0.950 . S
C737 C736 1.334 . S
C737 C738 1.287 . S
C738 C737 1.287 . S
C738 C739 1.524 . S
C738 H757 0.913 . S
C739 H715 0.950 . S
C739 C738 1.524 . S
C739 C740 1.415 . S
C740 H716 0.950 . S
C740 C735 1.363 . S
C740 C739 1.415 . S
C741 H717 0.951 . S
C741 C742 1.421 . S
C741 C743 1.388 . S
C742 C741 1.421 . S
C742 C746 1.321 1_554 S
C743 H718 0.951 . S
C743 C741 1.388 . S
C743 C744 1.366 1_554 S
C744 C743 1.366 1_556 S
C744 C745 1.414 . S
C744 C747 1.499 . S
C745 H719 0.950 . S
C745 C744 1.414 . S
C745 C746 1.374 . S
C746 H720 0.950 . S
C746 C742 1.321 1_556 S
C746 C745 1.374 . S
C747 C744 1.499 . S
C747 C748 1.373 . S
C747 C749 1.389 . S
C748 H721 0.950 . S
C748 C734 1.377 . S
C748 C747 1.373 . S
C749 C733 1.377 . S
C749 C747 1.389 . S
C749 C750 1.524 1_556 S
C750 C749 1.524 1_554 S
C750 C751 1.412 . S
C750 C755 1.363 . S
C751 H722 0.914 1_554 S
C751 C750 1.412 . S
C751 C752 1.354 . S
C752 H723 0.950 . S
C752 C751 1.354 . S
C752 C753 1.287 . S
C753 C752 1.287 . S
C753 C754 1.524 . S
C753 H756 0.999 . S
C754 H724 0.950 . S
C754 C753 1.524 . S
C754 C755 1.415 . S
C755 H725 0.950 . S
C755 C750 1.363 . S
C755 C754 1.415 . S
H756 C753 0.999 . S
H757 C738 0.913 . S
H758 C776 0.951 . S
H759 C778 0.951 . S
H760 C780 0.950 . S
H761 C781 0.950 . S
H762 C783 0.950 . S
H763 C786 0.950 . S
H764 C787 0.950 . S
H765 C789 0.950 . S
H766 C790 0.950 . S
H767 C791 0.951 . S
H768 C793 0.951 . S
H769 C795 0.950 . S
H770 C796 0.950 . S
H771 C798 0.950 . S
H772 C801 0.950 . S
H773 C802 0.950 . S
H774 C804 0.950 . S
H775 C805 0.950 . S
C776 H758 0.951 . S
C776 C777 1.366 . S
C776 C778 1.388 . S
C777 C776 1.366 . S
C777 C781 1.385 . S
C778 H759 0.951 . S
C778 C776 1.388 . S
C778 C779 1.366 . S
C779 C778 1.366 . S
C779 C780 1.414 . S
C779 C782 1.499 . S
C780 H760 0.950 . S
C780 C779 1.414 . S
C780 C781 1.374 . S
C781 H761 0.950 . S
C781 C777 1.385 . S
C781 C780 1.374 . S
C782 C779 1.499 . S
C782 C783 1.373 . S
C782 C784 1.389 . S
C783 H762 0.950 . S
C783 C782 1.373 . S
C783 C799 1.377 . S
C784 C782 1.389 . S
C784 C785 1.524 . S
C784 C798 1.377 . S
C785 C784 1.524 . S
C785 C786 1.397 . S
C785 C790 1.363 1_556 S
C786 H763 0.950 . S
C786 C785 1.397 . S
C786 C787 1.334 . S
C787 H764 0.950 . S
C787 C786 1.334 . S
C787 C788 1.287 . S
C788 C787 1.287 . S
C788 C789 1.524 1_556 S
C788 H807 0.913 . S
C789 H765 0.950 . S
C789 C788 1.524 1_554 S
C789 C790 1.415 . S
C790 H766 0.950 . S
C790 C785 1.363 1_554 S
C790 C789 1.415 . S
C791 H767 0.951 . S
C791 C792 1.366 . S
C791 C793 1.388 . S
C792 C791 1.366 . S
C792 C796 1.385 1_556 S
C793 H768 0.951 . S
C793 C791 1.388 . S
C793 C794 1.366 . S
C794 C793 1.366 . S
C794 C795 1.414 1_556 S
C794 C797 1.499 . S
C795 H769 0.950 . S
C795 C794 1.414 1_554 S
C795 C796 1.374 . S
C796 H770 0.950 . S
C796 C792 1.385 1_554 S
C796 C795 1.374 . S
C797 C794 1.499 . S
C797 C798 1.373 . S
C797 C799 1.389 . S
C798 H771 0.950 . S
C798 C784 1.377 . S
C798 C797 1.373 . S
C799 C783 1.377 . S
C799 C797 1.389 . S
C799 C800 1.524 . S
C800 C799 1.524 . S
C800 C801 1.397 . S
C800 C805 1.363 . S
C801 H772 0.950 . S
C801 C800 1.397 . S
C801 C802 1.334 . S
C802 H773 0.950 . S
C802 C801 1.334 . S
C802 C803 1.287 . S
C803 C802 1.287 . S
C803 C804 1.524 . S
C803 H806 0.999 . S
C804 H774 0.950 . S
C804 C803 1.524 . S
C804 C805 1.415 . S
C805 H775 0.950 . S
C805 C800 1.363 . S
C805 C804 1.415 . S
H806 C803 0.999 . S
H807 C788 0.913 . S
H808 C826 0.951 . S
H809 C828 0.951 . S
H810 C830 0.950 . S
H811 C831 0.950 . S
H812 C833 0.946 1_554 S
H813 C836 0.950 . S
H814 C837 0.950 . S
H815 C839 0.950 . S
H816 C840 0.950 . S
H817 C841 0.957 . S
H818 C843 0.951 . S
H819 C845 0.950 . S
H820 C846 0.950 . S
H821 C848 0.950 . S
H822 C851 0.950 . S
H823 C852 0.950 . S
H824 C854 0.950 . S
H825 C855 0.950 1_556 S
C826 H808 0.951 . S
C826 C827 1.366 . S
C826 C828 1.388 . S
C827 C826 1.366 . S
C827 C831 1.385 . S
C828 H809 0.951 . S
C828 C826 1.388 . S
C828 C829 1.366 . S
C829 C828 1.366 . S
C829 C830 1.414 . S
C829 C832 1.499 . S
C830 H810 0.950 . S
C830 C829 1.414 . S
C830 C831 1.374 . S
C831 H811 0.950 . S
C831 C827 1.385 . S
C831 C830 1.374 . S
C832 C829 1.499 . S
C832 C833 1.373 . S
C832 C834 1.389 . S
C833 H812 0.946 1_556 S
C833 C832 1.373 . S
C833 C849 1.377 1_556 S
C834 C832 1.389 . S
C834 C835 1.524 . S
C834 C848 1.377 . S
C835 C834 1.524 . S
C835 C836 1.397 . S
C835 C840 1.363 . S
C836 H813 0.950 . S
C836 C835 1.397 . S
C836 C837 1.334 . S
C837 H814 0.950 . S
C837 C836 1.334 . S
C837 C838 1.287 . S
C838 C837 1.287 . S
C838 C839 1.524 . S
C838 H857 0.913 . S
C839 H815 0.950 . S
C839 C838 1.524 . S
C839 C840 1.415 . S
C840 H816 0.950 . S
C840 C835 1.363 . S
C840 C839 1.415 . S
C841 H817 0.957 . S
C841 C842 1.353 1_556 S
C841 C843 1.397 . S
C842 C841 1.353 1_554 S
C842 C846 1.385 . S
C843 H818 0.951 . S
C843 C841 1.397 . S
C843 C844 1.363 1_556 S
C844 C843 1.363 1_554 S
C844 C845 1.420 . S
C844 C847 1.494 1_554 S
C845 H819 0.950 . S
C845 C844 1.420 . S
C845 C846 1.374 . S
C846 H820 0.950 . S
C846 C842 1.385 . S
C846 C845 1.374 . S
C847 C844 1.494 1_556 S
C847 C848 1.373 . S
C847 C849 1.389 1_556 S
C848 H821 0.950 . S
C848 C834 1.377 . S
C848 C847 1.373 . S
C849 C833 1.377 1_554 S
C849 C847 1.389 1_554 S
C849 C850 1.524 . S
C850 C849 1.524 . S
C850 C851 1.397 . S
C850 C855 1.363 . S
C851 H822 0.950 . S
C851 C850 1.397 . S
C851 C852 1.334 . S
C852 H823 0.950 . S
C852 C851 1.334 . S
C852 C853 1.287 . S
C853 C852 1.287 . S
C853 C854 1.524 . S
C853 H856 0.999 . S
C854 H824 0.950 . S
C854 C853 1.524 . S
C854 C855 1.415 . S
C855 H825 0.950 1_554 S
C855 C850 1.363 . S
C855 C854 1.415 . S
H856 C853 0.999 . S
H857 C838 0.913 . S
H858 C876 0.951 . S
H859 C878 0.951 . S
H860 C880 0.950 . S
H861 C881 0.950 . S
H862 C883 0.950 . S
H863 C886 0.950 . S
H864 C887 0.950 . S
H865 C889 0.950 . S
H866 C890 0.950 . S
H867 C891 0.951 . S
H868 C893 0.951 . S
H869 C895 0.950 . S
H870 C896 0.950 . S
H871 C898 0.950 . S
H872 C901 0.950 . S
H873 C902 0.950 . S
H874 C904 0.950 . S
H875 C905 0.950 . S
C876 H858 0.951 . S
C876 C877 1.366 . S
C876 C878 1.388 . S
C877 C876 1.366 . S
C877 C881 1.385 . S
C878 H859 0.951 . S
C878 C876 1.388 . S
C878 C879 1.366 . S
C879 C878 1.366 . S
C879 C880 1.414 . S
C879 C882 1.499 . S
C880 H860 0.950 . S
C880 C879 1.414 . S
C880 C881 1.374 . S
C881 H861 0.950 . S
C881 C877 1.385 . S
C881 C880 1.374 . S
C882 C879 1.499 . S
C882 C883 1.373 . S
C882 C884 1.389 . S
C883 H862 0.950 . S
C883 C882 1.373 . S
C883 C899 1.377 . S
C884 C882 1.389 . S
C884 C885 1.524 . S
C884 C898 1.377 . S
C885 C884 1.524 . S
C885 C886 1.397 . S
C885 C890 1.363 . S
C886 H863 0.950 . S
C886 C885 1.397 . S
C886 C887 1.334 . S
C887 H864 0.950 . S
C887 C886 1.334 . S
C887 C888 1.287 . S
C888 C887 1.287 . S
C888 C889 1.524 . S
C888 H907 0.913 . S
C889 H865 0.950 . S
C889 C888 1.524 . S
C889 C890 1.415 . S
C890 H866 0.950 . S
C890 C885 1.363 . S
C890 C889 1.415 . S
C891 H867 0.951 . S
C891 C892 1.366 . S
C891 C893 1.388 . S
C892 C891 1.366 . S
C892 C896 1.385 . S
C893 H868 0.951 . S
C893 C891 1.388 . S
C893 C894 1.366 . S
C894 C893 1.366 . S
C894 C895 1.414 . S
C894 C897 1.499 . S
C895 H869 0.950 . S
C895 C894 1.414 . S
C895 C896 1.374 . S
C896 H870 0.950 . S
C896 C892 1.385 . S
C896 C895 1.374 . S
C897 C894 1.499 . S
C897 C898 1.373 . S
C897 C899 1.389 . S
C898 H871 0.950 . S
C898 C884 1.377 . S
C898 C897 1.373 . S
C899 C883 1.377 . S
C899 C897 1.389 . S
C899 C900 1.524 1_556 S
C900 C899 1.524 1_554 S
C900 C901 1.397 . S
C900 C905 1.363 . S
C901 H872 0.950 . S
C901 C900 1.397 . S
C901 C902 1.334 . S
C902 H873 0.950 . S
C902 C901 1.334 . S
C902 C903 1.287 . S
C903 C902 1.287 . S
C903 C904 1.524 . S
C903 H906 0.999 . S
C904 H874 0.950 . S
C904 C903 1.524 . S
C904 C905 1.415 . S
C905 H875 0.950 . S
C905 C900 1.363 . S
C905 C904 1.415 . S
H906 C903 0.999 . S
H907 C888 0.913 . S
H908 C926 0.951 . S
H909 C928 0.951 . S
H910 C930 0.950 . S
H911 C931 0.950 . S
H912 C933 0.950 . S
H913 C936 0.950 1_556 S
H914 C937 0.950 . S
H915 C939 0.950 . S
H916 C940 0.950 . S
H917 C941 0.951 . S
H918 C943 0.951 . S
H919 C945 0.950 . S
H920 C946 0.950 . S
H921 C948 0.950 . S
H922 C951 0.950 . S
H923 C952 0.950 . S
H924 C954 0.950 . S
H925 C955 0.950 . S
C926 H908 0.951 . S
C926 C927 1.366 . S
C926 C928 1.388 . S
C927 C926 1.366 . S
C927 C931 1.385 . S
C928 H909 0.951 . S
C928 C926 1.388 . S
C928 C929 1.366 . S
C929 C928 1.366 . S
C929 C930 1.414 . S
C929 C932 1.499 . S
C930 H910 0.950 . S
C930 C929 1.414 . S
C930 C931 1.374 . S
C931 H911 0.950 . S
C931 C927 1.385 . S
C931 C930 1.374 . S
C932 C929 1.499 . S
C932 C933 1.373 . S
C932 C934 1.389 . S
C933 H912 0.950 . S
C933 C932 1.373 . S
C933 C949 1.377 . S
C934 C932 1.389 . S
C934 C935 1.524 . S
C934 C948 1.377 . S
C935 C934 1.524 . S
C935 C936 1.397 1_556 S
C935 C940 1.363 1_556 S
C936 H913 0.950 1_554 S
C936 C935 1.397 1_554 S
C936 C937 1.334 . S
C937 H914 0.950 . S
C937 C936 1.334 . S
C937 C938 1.287 . S
C938 C937 1.287 . S
C938 C939 1.524 . S
C938 H957 0.913 . S
C939 H915 0.950 . S
C939 C938 1.524 . S
C939 C940 1.415 . S
C940 H916 0.950 . S
C940 C935 1.363 1_554 S
C940 C939 1.415 . S
C941 H917 0.951 . S
C941 C942 1.366 . S
C941 C943 1.388 . S
C942 C941 1.366 . S
C942 C946 1.385 . S
C943 H918 0.951 . S
C943 C941 1.388 . S
C943 C944 1.366 . S
C944 C943 1.366 . S
C944 C945 1.414 . S
C944 C947 1.499 . S
C945 H919 0.950 . S
C945 C944 1.414 . S
C945 C946 1.374 . S
C946 H920 0.950 . S
C946 C942 1.385 . S
C946 C945 1.374 . S
C947 C944 1.499 . S
C947 C948 1.373 . S
C947 C949 1.389 . S
C948 H921 0.950 . S
C948 C934 1.377 . S
C948 C947 1.373 . S
C949 C933 1.377 . S
C949 C947 1.389 . S
C949 C950 1.524 . S
C950 C949 1.524 . S
C950 C951 1.397 . S
C950 C955 1.363 . S
C951 H922 0.950 . S
C951 C950 1.397 . S
C951 C952 1.334 . S
C952 H923 0.950 . S
C952 C951 1.334 . S
C952 C953 1.287 . S
C953 C952 1.287 . S
C953 C954 1.524 . S
C953 H956 0.999 . S
C954 H924 0.950 . S
C954 C953 1.524 . S
C954 C955 1.415 . S
C955 H925 0.950 . S
C955 C950 1.363 . S
C955 C954 1.415 . S
H956 C953 0.999 . S
H957 C938 0.913 . S
H958 C976 0.951 . S
H959 C978 0.951 . S
H960 C980 0.950 . S
H961 C981 0.950 . S
H962 C983 0.950 . S
H963 C986 0.950 . S
H964 C987 0.925 1_556 S
H965 C989 0.950 . S
H966 C990 0.950 . S
H967 C991 0.951 . S
H968 C993 0.951 . S
H969 C995 0.950 . S
H970 C996 0.950 . S
H971 C998 0.950 . S
H972 C1001 0.966 . S
H973 C1002 0.950 1_554 S
H974 C1004 0.950 . S
H975 C1005 0.950 . S
C976 H958 0.951 . S
C976 C977 1.366 1_554 S
C976 C978 1.388 . S
C977 C976 1.366 1_556 S
C977 C981 1.385 . S
C978 H959 0.951 . S
C978 C976 1.388 . S
C978 C979 1.366 1_554 S
C979 C978 1.366 1_556 S
C979 C980 1.414 . S
C979 C982 1.499 . S
C980 H960 0.950 . S
C980 C979 1.414 . S
C980 C981 1.374 . S
C981 H961 0.950 . S
C981 C977 1.385 . S
C981 C980 1.374 . S
C982 C979 1.499 . S
C982 C983 1.373 . S
C982 C984 1.389 1_556 S
C983 H962 0.950 . S
C983 C982 1.373 . S
C983 C999 1.377 . S
C984 C982 1.389 1_554 S
C984 C985 1.524 . S
C984 C998 1.377 . S
C985 C984 1.524 . S
C985 C986 1.397 1_554 S
C985 C990 1.363 . S
C986 H963 0.950 . S
C986 C985 1.397 1_556 S
C986 C987 1.321 1_556 S
C987 H964 0.925 1_554 S
C987 C986 1.321 1_554 S
C987 C988 1.327 . S
C988 C987 1.327 . S
C988 C989 1.524 . S
C988 H1007 0.913 . S
C989 H965 0.950 . S
C989 C988 1.524 . S
C989 C990 1.415 . S
C990 H966 0.950 . S
C990 C985 1.363 . S
C990 C989 1.415 . S
C991 H967 0.951 . S
C991 C992 1.366 1_556 S
C991 C993 1.388 . S
C992 C991 1.366 1_554 S
C992 C996 1.385 . S
C993 H968 0.951 . S
C993 C991 1.388 . S
C993 C994 1.366 1_556 S
C994 C993 1.366 1_554 S
C994 C995 1.414 . S
C994 C997 1.499 . S
C995 H969 0.950 . S
C995 C994 1.414 . S
C995 C996 1.374 . S
C996 H970 0.950 . S
C996 C992 1.385 . S
C996 C995 1.374 . S
C997 C994 1.499 . S
C997 C998 1.373 . S
C997 C999 1.389 1_554 S
C998 H971 0.950 . S
C998 C984 1.377 . S
C998 C997 1.373 . S
C999 C983 1.377 . S
C999 C997 1.389 1_556 S
C999 C1000 1.524 . S
C1000 C999 1.524 . S
C1000 C1001 1.386 1_556 S
C1000 C1005 1.363 . S
C1001 H972 0.966 . S
C1001 C1000 1.386 1_554 S
C1001 C1002 1.329 1_554 S
C1002 H973 0.950 1_556 S
C1002 C1001 1.329 1_556 S
C1002 C1003 1.287 . S
C1003 C1002 1.287 . S
C1003 C1004 1.524 . S
C1003 H1006 0.999 . S
C1004 H974 0.950 . S
C1004 C1003 1.524 . S
C1004 C1005 1.415 . S
C1005 H975 0.950 . S
C1005 C1000 1.363 . S
C1005 C1004 1.415 . S
H1006 C1003 0.999 . S
H1007 C988 0.913 . S
H1008 C1026 0.951 . S
H1009 C1028 0.951 . S
H1010 C1030 0.950 . S
H1011 C1031 0.950 . S
H1012 C1033 0.950 . S
H1013 C1036 0.950 . S
H1014 C1037 0.950 . S
H1015 C1039 0.950 . S
H1016 C1040 0.950 . S
H1017 C1041 0.951 . S
H1018 C1043 0.951 . S
H1019 C1045 0.950 . S
H1020 C1046 0.979 . S
H1021 C1048 0.950 . S
H1022 C1051 0.950 . S
H1023 C1052 0.950 . S
H1024 C1054 0.950 . S
H1025 C1055 0.950 . S
C1026 H1008 0.951 . S
C1026 C1027 1.366 . S
C1026 C1028 1.388 . S
C1027 C1026 1.366 . S
C1027 C1031 1.385 . S
C1028 H1009 0.951 . S
C1028 C1026 1.388 . S
C1028 C1029 1.366 . S
C1029 C1028 1.366 . S
C1029 C1030 1.414 . S
C1029 C1032 1.499 . S
C1030 H1010 0.950 . S
C1030 C1029 1.414 . S
C1030 C1031 1.374 . S
C1031 H1011 0.950 . S
C1031 C1027 1.385 . S
C1031 C1030 1.374 . S
C1032 C1029 1.499 . S
C1032 C1033 1.373 . S
C1032 C1034 1.389 . S
C1033 H1012 0.950 . S
C1033 C1032 1.373 . S
C1033 C1049 1.377 . S
C1034 C1032 1.389 . S
C1034 C1035 1.524 . S
C1034 C1048 1.377 . S
C1035 C1034 1.524 . S
C1035 C1036 1.397 . S
C1035 C1040 1.363 1_554 S
C1036 H1013 0.950 . S
C1036 C1035 1.397 . S
C1036 C1037 1.334 . S
C1037 H1014 0.950 . S
C1037 C1036 1.334 . S
C1037 C1038 1.287 1_554 S
C1038 C1037 1.287 1_556 S
C1038 C1039 1.524 . S
C1038 H1057 0.913 . S
C1039 H1015 0.950 . S
C1039 C1038 1.524 . S
C1039 C1040 1.415 . S
C1040 H1016 0.950 . S
C1040 C1035 1.363 1_556 S
C1040 C1039 1.415 . S
C1041 H1017 0.951 . S
C1041 C1042 1.366 . S
C1041 C1043 1.388 . S
C1042 C1041 1.366 . S
C1042 C1046 1.385 . S
C1043 H1018 0.951 . S
C1043 C1041 1.388 . S
C1043 C1044 1.366 . S
C1044 C1043 1.366 . S
C1044 C1045 1.414 . S
C1044 C1047 1.499 . S
C1045 H1019 0.950 . S
C1045 C1044 1.414 . S
C1045 C1046 1.374 . S
C1046 H1020 0.979 . S
C1046 C1042 1.385 . S
C1046 C1045 1.374 . S
C1047 C1044 1.499 . S
C1047 C1048 1.373 . S
C1047 C1049 1.389 . S
C1048 H1021 0.950 . S
C1048 C1034 1.377 . S
C1048 C1047 1.373 . S
C1049 C1033 1.377 . S
C1049 C1047 1.389 . S
C1049 C1050 1.524 . S
C1050 C1049 1.524 . S
C1050 C1051 1.397 . S
C1050 C1055 1.363 . S
C1051 H1022 0.950 . S
C1051 C1050 1.397 . S
C1051 C1052 1.334 . S
C1052 H1023 0.950 . S
C1052 C1051 1.334 . S
C1052 C1053 1.287 . S
C1053 C1052 1.287 . S
C1053 C1054 1.524 . S
C1053 H1056 0.999 . S
C1054 H1024 0.950 . S
C1054 C1053 1.524 . S
C1054 C1055 1.415 . S
C1055 H1025 0.950 . S
C1055 C1050 1.363 . S
C1055 C1054 1.415 . S
H1056 C1053 0.999 . S
H1057 C1038 0.913 . S
H1058 C1076 0.951 . S
H1059 C1078 0.951 . S
H1060 C1080 0.950 . S
H1061 C1081 0.950 . S
H1062 C1083 0.950 . S
H1063 C1086 0.950 . S
H1064 C1087 0.950 . S
H1065 C1089 0.950 . S
H1066 C1090 0.950 . S
H1067 C1091 0.951 . S
H1068 C1093 0.951 . S
H1069 C1095 0.950 . S
H1070 C1096 0.950 . S
H1071 C1098 0.950 . S
H1072 C1101 0.950 . S
H1073 C1102 0.950 . S
H1074 C1104 0.950 . S
H1075 C1105 0.950 . S
C1076 H1058 0.951 . S
C1076 C1077 1.366 . S
C1076 C1078 1.388 . S
C1077 C1076 1.366 . S
C1077 C1081 1.385 . S
C1078 H1059 0.951 . S
C1078 C1076 1.388 . S
C1078 C1079 1.366 . S
C1079 C1078 1.366 . S
C1079 C1080 1.414 . S
C1079 C1082 1.499 . S
C1080 H1060 0.950 . S
C1080 C1079 1.414 . S
C1080 C1081 1.374 . S
C1081 H1061 0.950 . S
C1081 C1077 1.385 . S
C1081 C1080 1.374 . S
C1082 C1079 1.499 . S
C1082 C1083 1.373 . S
C1082 C1084 1.389 . S
C1083 H1062 0.950 . S
C1083 C1082 1.373 . S
C1083 C1099 1.377 . S
C1084 C1082 1.389 . S
C1084 C1085 1.524 . S
C1084 C1098 1.377 . S
C1085 C1084 1.524 . S
C1085 C1086 1.397 . S
C1085 C1090 1.363 . S
C1086 H1063 0.950 . S
C1086 C1085 1.397 . S
C1086 C1087 1.334 . S
C1087 H1064 0.950 . S
C1087 C1086 1.334 . S
C1087 C1088 1.287 . S
C1088 C1087 1.287 . S
C1088 C1089 1.524 . S
C1088 H1107 0.913 . S
C1089 H1065 0.950 . S
C1089 C1088 1.524 . S
C1089 C1090 1.415 . S
C1090 H1066 0.950 . S
C1090 C1085 1.363 . S
C1090 C1089 1.415 . S
C1091 H1067 0.951 . S
C1091 C1092 1.366 . S
C1091 C1093 1.388 . S
C1092 C1091 1.366 . S
C1092 C1096 1.385 . S
C1093 H1068 0.951 . S
C1093 C1091 1.388 . S
C1093 C1094 1.366 . S
C1094 C1093 1.366 . S
C1094 C1095 1.414 . S
C1094 C1097 1.499 . S
C1095 H1069 0.950 . S
C1095 C1094 1.414 . S
C1095 C1096 1.374 . S
C1096 H1070 0.950 . S
C1096 C1092 1.385 . S
C1096 C1095 1.374 . S
C1097 C1094 1.499 . S
C1097 C1098 1.373 . S
C1097 C1099 1.389 . S
C1098 H1071 0.950 . S
C1098 C1084 1.377 . S
C1098 C1097 1.373 . S
C1099 C1083 1.377 . S
C1099 C1097 1.389 . S
C1099 C1100 1.524 . S
C1100 C1099 1.524 . S
C1100 C1101 1.397 . S
C1100 C1105 1.363 . S
C1101 H1072 0.950 . S
C1101 C1100 1.397 . S
C1101 C1102 1.334 1_554 S
C1102 H1073 0.950 . S
C1102 C1101 1.334 1_556 S
C1102 C1103 1.287 . S
C1103 C1102 1.287 . S
C1103 C1104 1.524 . S
C1103 H1106 0.999 . S
C1104 H1074 0.950 . S
C1104 C1103 1.524 . S
C1104 C1105 1.415 1_556 S
C1105 H1075 0.950 . S
C1105 C1100 1.363 . S
C1105 C1104 1.415 1_554 S
H1106 C1103 0.999 . S
H1107 C1088 0.913 . S
H1108 C1126 0.951 . S
H1109 C1128 0.951 . S
H1110 C1130 0.950 . S
H1111 C1131 0.950 . S
H1112 C1133 0.950 . S
H1113 C1136 0.950 . S
H1114 C1137 0.950 . S
H1115 C1139 0.950 . S
H1116 C1140 0.950 . S
H1117 C1141 0.951 1_556 S
H1118 C1143 0.951 1_556 S
H1119 C1145 0.950 . S
H1120 C1146 0.950 . S
H1121 C1148 0.950 . S
H1122 C1151 0.950 . S
H1123 C1152 0.944 1_545 S
H1124 C1154 0.950 . S
H1125 C1155 0.950 . S
C1126 H1108 0.951 . S
C1126 C1127 1.366 . S
C1126 C1128 1.388 . S
C1127 C1126 1.366 . S
C1127 C1131 1.385 . S
C1128 H1109 0.951 . S
C1128 C1126 1.388 . S
C1128 C1129 1.366 . S
C1129 C1128 1.366 . S
C1129 C1130 1.414 . S
C1129 C1132 1.499 . S
C1130 H1110 0.950 . S
C1130 C1129 1.414 . S
C1130 C1131 1.374 . S
C1131 H1111 0.950 . S
C1131 C1127 1.385 . S
C1131 C1130 1.374 . S
C1132 C1129 1.499 . S
C1132 C1133 1.373 . S
C1132 C1134 1.389 . S
C1133 H1112 0.950 . S
C1133 C1132 1.373 . S
C1133 C1149 1.377 . S
C1134 C1132 1.389 . S
C1134 C1135 1.524 . S
C1134 C1148 1.377 . S
C1135 C1134 1.524 . S
C1135 C1136 1.397 . S
C1135 C1140 1.363 . S
C1136 H1113 0.950 . S
C1136 C1135 1.397 . S
C1136 C1137 1.334 . S
C1137 H1114 0.950 . S
C1137 C1136 1.334 . S
C1137 C1138 1.287 . S
C1138 C1137 1.287 . S
C1138 C1139 1.524 . S
C1138 H1157 0.913 . S
C1139 H1115 0.950 . S
C1139 C1138 1.524 . S
C1139 C1140 1.415 . S
C1140 H1116 0.950 . S
C1140 C1135 1.363 . S
C1140 C1139 1.415 . S
C1141 H1117 0.951 1_554 S
C1141 C1142 1.366 . S
C1141 C1143 1.388 . S
C1142 C1141 1.366 . S
C1142 C1146 1.385 . S
C1143 H1118 0.951 1_554 S
C1143 C1141 1.388 . S
C1143 C1144 1.366 . S
C1144 C1143 1.366 . S
C1144 C1145 1.414 . S
C1144 C1147 1.499 . S
C1145 H1119 0.950 . S
C1145 C1144 1.414 . S
C1145 C1146 1.374 . S
C1146 H1120 0.950 . S
C1146 C1142 1.385 . S
C1146 C1145 1.374 . S
C1147 C1144 1.499 . S
C1147 C1148 1.373 . S
C1147 C1149 1.389 . S
C1148 H1121 0.950 . S
C1148 C1134 1.377 . S
C1148 C1147 1.373 . S
C1149 C1133 1.377 . S
C1149 C1147 1.389 . S
C1149 C1150 1.524 . S
C1150 C1149 1.524 . S
C1150 C1151 1.397 . S
C1150 C1155 1.363 1_554 S
C1151 H1122 0.950 . S
C1151 C1150 1.397 . S
C1151 C1152 1.334 . S
C1152 H1123 0.944 1_565 S
C1152 C1151 1.334 . S
C1152 C1153 1.287 1_554 S
C1153 C1152 1.287 1_556 S
C1153 C1154 1.524 . S
C1153 H1156 0.999 . S
C1154 H1124 0.950 . S
C1154 C1153 1.524 . S
C1154 C1155 1.415 . S
C1155 H1125 0.950 . S
C1155 C1150 1.363 1_556 S
C1155 C1154 1.415 . S
H1156 C1153 0.999 . S
H1157 C1138 0.913 . S
H1158 C1176 0.951 . S
H1159 C1178 0.951 . S
H1160 C1180 0.950 . S
H1161 C1181 0.950 . S
H1162 C1183 0.950 . S
H1163 C1186 0.950 . S
H1164 C1187 0.950 . S
H1165 C1189 0.950 . S
H1166 C1190 0.950 1_455 S
H1167 C1191 0.951 . S
H1168 C1193 0.951 . S
H1169 C1195 0.950 . S
H1170 C1196 0.950 . S
H1171 C1198 0.950 . S
H1172 C1201 0.950 . S
H1173 C1202 0.950 . S
H1174 C1204 0.966 . S
H1175 C1205 0.950 . S
C1176 H1158 0.951 . S
C1176 C1177 1.366 . S
C1176 C1178 1.388 . S
C1177 C1176 1.366 . S
C1177 C1181 1.385 . S
C1178 H1159 0.951 . S
C1178 C1176 1.388 . S
C1178 C1179 1.366 . S
C1179 C1178 1.366 . S
C1179 C1180 1.414 . S
C1179 C1182 1.499 . S
C1180 H1160 0.950 . S
C1180 C1179 1.414 . S
C1180 C1181 1.374 . S
C1181 H1161 0.950 . S
C1181 C1177 1.385 . S
C1181 C1180 1.374 . S
C1182 C1179 1.499 . S
C1182 C1183 1.373 . S
C1182 C1184 1.389 . S
C1183 H1162 0.950 . S
C1183 C1182 1.373 . S
C1183 C1199 1.377 1_655 S
C1184 C1182 1.389 . S
C1184 C1185 1.524 . S
C1184 C1198 1.377 1_655 S
C1185 C1184 1.524 . S
C1185 C1186 1.397 . S
C1185 C1190 1.363 . S
C1186 H1163 0.950 . S
C1186 C1185 1.397 . S
C1186 C1187 1.334 . S
C1187 H1164 0.950 . S
C1187 C1186 1.334 . S
C1187 C1188 1.287 . S
C1188 C1187 1.287 . S
C1188 C1189 1.524 . S
C1188 H1207 0.913 . S
C1189 H1165 0.950 . S
C1189 C1188 1.524 . S
C1189 C1190 1.415 . S
C1190 H1166 0.950 1_655 S
C1190 C1185 1.363 . S
C1190 C1189 1.415 . S
C1191 H1167 0.951 . S
C1191 C1192 1.366 . S
C1191 C1193 1.388 . S
C1192 C1191 1.366 . S
C1192 C1196 1.385 . S
C1193 H1168 0.951 . S
C1193 C1191 1.388 . S
C1193 C1194 1.366 . S
C1194 C1193 1.366 . S
C1194 C1195 1.414 . S
C1194 C1197 1.499 . S
C1195 H1169 0.950 . S
C1195 C1194 1.414 . S
C1195 C1196 1.374 . S
C1196 H1170 0.950 . S
C1196 C1192 1.385 . S
C1196 C1195 1.374 . S
C1197 C1194 1.499 . S
C1197 C1198 1.373 . S
C1197 C1199 1.389 . S
C1198 H1171 0.950 . S
C1198 C1184 1.377 1_455 S
C1198 C1197 1.373 . S
C1199 C1183 1.377 1_455 S
C1199 C1197 1.389 . S
C1199 C1200 1.524 . S
C1200 C1199 1.524 . S
C1200 C1201 1.397 . S
C1200 C1205 1.363 1_455 S
C1201 H1172 0.950 . S
C1201 C1200 1.397 . S
C1201 C1202 1.334 . S
C1202 H1173 0.950 . S
C1202 C1201 1.334 . S
C1202 C1203 1.287 . S
C1203 C1202 1.287 . S
C1203 C1204 1.517 1_455 S
C1203 H1206 0.999 . S
C1204 H1174 0.966 . S
C1204 C1203 1.517 1_655 S
C1204 C1205 1.403 . S
C1205 H1175 0.950 . S
C1205 C1200 1.363 1_655 S
C1205 C1204 1.403 . S
H1206 C1203 0.999 . S
H1207 C1188 0.913 . S
H1208 C1226 0.951 . S
H1209 C1228 0.951 . S
H1210 C1230 0.950 . S
H1211 C1231 0.950 . S
H1212 C1233 0.950 . S
H1213 C1236 0.950 . S
H1214 C1237 0.950 . S
H1215 C1239 0.950 . S
H1216 C1240 0.950 . S
H1217 C1241 0.951 . S
H1218 C1243 0.951 . S
H1219 C1245 0.950 . S
H1220 C1246 0.950 . S
H1221 C1248 0.950 . S
H1222 C1251 0.950 . S
H1223 C1252 0.950 . S
H1224 C1254 0.950 . S
H1225 C1255 0.950 . S
C1226 H1208 0.951 . S
C1226 C1227 1.366 . S
C1226 C1228 1.388 . S
C1227 C1226 1.366 . S
C1227 C1231 1.385 . S
C1228 H1209 0.951 . S
C1228 C1226 1.388 . S
C1228 C1229 1.366 . S
C1229 C1228 1.366 . S
C1229 C1230 1.414 . S
C1229 C1232 1.499 . S
C1230 H1210 0.950 . S
C1230 C1229 1.414 . S
C1230 C1231 1.374 . S
C1231 H1211 0.950 . S
C1231 C1227 1.385 . S
C1231 C1230 1.374 . S
C1232 C1229 1.499 . S
C1232 C1233 1.373 . S
C1232 C1234 1.389 . S
C1233 H1212 0.950 . S
C1233 C1232 1.373 . S
C1233 C1249 1.377 . S
C1234 C1232 1.389 . S
C1234 C1235 1.524 . S
C1234 C1248 1.377 . S
C1235 C1234 1.524 . S
C1235 C1236 1.397 . S
C1235 C1240 1.363 . S
C1236 H1213 0.950 . S
C1236 C1235 1.397 . S
C1236 C1237 1.334 . S
C1237 H1214 0.950 . S
C1237 C1236 1.334 . S
C1237 C1238 1.287 . S
C1238 C1237 1.287 . S
C1238 C1239 1.524 . S
C1238 H1257 0.913 . S
C1239 H1215 0.950 . S
C1239 C1238 1.524 . S
C1239 C1240 1.415 . S
C1240 H1216 0.950 . S
C1240 C1235 1.363 . S
C1240 C1239 1.415 . S
C1241 H1217 0.951 . S
C1241 C1242 1.366 . S
C1241 C1243 1.388 . S
C1242 C1241 1.366 . S
C1242 C1246 1.385 . S
C1243 H1218 0.951 . S
C1243 C1241 1.388 . S
C1243 C1244 1.366 . S
C1244 C1243 1.366 . S
C1244 C1245 1.414 . S
C1244 C1247 1.499 . S
C1245 H1219 0.950 . S
C1245 C1244 1.414 . S
C1245 C1246 1.374 . S
C1246 H1220 0.950 . S
C1246 C1242 1.385 . S
C1246 C1245 1.374 . S
C1247 C1244 1.499 . S
C1247 C1248 1.373 . S
C1247 C1249 1.389 . S
C1248 H1221 0.950 . S
C1248 C1234 1.377 . S
C1248 C1247 1.373 . S
C1249 C1233 1.377 . S
C1249 C1247 1.389 . S
C1249 C1250 1.524 . S
C1250 C1249 1.524 . S
C1250 C1251 1.397 . S
C1250 C1255 1.363 . S
C1251 H1222 0.950 . S
C1251 C1250 1.397 . S
C1251 C1252 1.334 . S
C1252 H1223 0.950 . S
C1252 C1251 1.334 . S
C1252 C1253 1.287 . S
C1253 C1252 1.287 . S
C1253 C1254 1.524 . S
C1253 H1256 0.999 . S
C1254 H1224 0.950 . S
C1254 C1253 1.524 . S
C1254 C1255 1.415 . S
C1255 H1225 0.950 . S
C1255 C1250 1.363 . S
C1255 C1254 1.415 . S
H1256 C1253 0.999 . S
H1257 C1238 0.913 . S
H1258 C1276 0.951 . S
H1259 C1278 0.951 . S
H1260 C1280 0.950 . S
H1261 C1281 0.950 . S
H1262 C1283 0.950 . S
H1263 C1286 0.950 . S
H1264 C1287 0.950 . S
H1265 C1289 0.950 . S
H1266 C1290 0.950 . S
H1267 C1291 0.951 . S
H1268 C1293 0.951 . S
H1269 C1295 0.950 . S
H1270 C1296 0.950 . S
H1271 C1298 0.943 1_565 S
H1272 C1301 0.950 . S
H1273 C1302 0.950 . S
H1274 C1304 0.950 . S
H1275 C1305 0.950 . S
C1276 H1258 0.951 . S
C1276 C1277 1.366 . S
C1276 C1278 1.388 . S
C1277 C1276 1.366 . S
C1277 C1281 1.385 . S
C1278 H1259 0.951 . S
C1278 C1276 1.388 . S
C1278 C1279 1.366 . S
C1279 C1278 1.366 . S
C1279 C1280 1.414 . S
C1279 C1282 1.499 . S
C1280 H1260 0.950 . S
C1280 C1279 1.414 . S
C1280 C1281 1.374 . S
C1281 H1261 0.950 . S
C1281 C1277 1.385 . S
C1281 C1280 1.374 . S
C1282 C1279 1.499 . S
C1282 C1283 1.373 . S
C1282 C1284 1.389 . S
C1283 H1262 0.950 . S
C1283 C1282 1.373 . S
C1283 C1299 1.377 . S
C1284 C1282 1.389 . S
C1284 C1285 1.524 . S
C1284 C1298 1.377 . S
C1285 C1284 1.524 . S
C1285 C1286 1.397 . S
C1285 C1290 1.363 . S
C1286 H1263 0.950 . S
C1286 C1285 1.397 . S
C1286 C1287 1.334 . S
C1287 H1264 0.950 . S
C1287 C1286 1.334 . S
C1287 C1288 1.287 . S
C1288 C1287 1.287 . S
C1288 C1289 1.524 . S
C1288 H1307 0.913 . S
C1289 H1265 0.950 . S
C1289 C1288 1.524 . S
C1289 C1290 1.415 . S
C1290 H1266 0.950 . S
C1290 C1285 1.363 . S
C1290 C1289 1.415 . S
C1291 H1267 0.951 . S
C1291 C1292 1.366 . S
C1291 C1293 1.388 . S
C1292 C1291 1.366 . S
C1292 C1296 1.385 . S
C1293 H1268 0.951 . S
C1293 C1291 1.388 . S
C1293 C1294 1.366 . S
C1294 C1293 1.366 . S
C1294 C1295 1.414 . S
C1294 C1297 1.499 . S
C1295 H1269 0.950 . S
C1295 C1294 1.414 . S
C1295 C1296 1.374 . S
C1296 H1270 0.950 . S
C1296 C1292 1.385 . S
C1296 C1295 1.374 . S
C1297 C1294 1.499 . S
C1297 C1298 1.373 1_565 S
C1297 C1299 1.389 1_565 S
C1298 H1271 0.943 1_545 S
C1298 C1284 1.377 . S
C1298 C1297 1.373 1_545 S
C1299 C1283 1.377 . S
C1299 C1297 1.389 1_545 S
C1299 C1300 1.513 1_545 S
C1300 C1299 1.513 1_565 S
C1300 C1301 1.411 . S
C1300 C1305 1.359 1_565 S
C1301 H1272 0.950 . S
C1301 C1300 1.411 . S
C1301 C1302 1.334 . S
C1302 H1273 0.950 . S
C1302 C1301 1.334 . S
C1302 C1303 1.287 . S
C1303 C1302 1.287 . S
C1303 C1304 1.524 . S
C1303 H1306 0.999 . S
C1304 H1274 0.950 . S
C1304 C1303 1.524 . S
C1304 C1305 1.415 1_565 S
C1305 H1275 0.950 . S
C1305 C1300 1.359 1_545 S
C1305 C1304 1.415 1_545 S
H1306 C1303 0.999 . S
H1307 C1288 0.913 . S
H1308 C1326 0.951 . S
H1309 C1328 0.951 . S
H1310 C1330 0.950 . S
H1311 C1331 0.950 . S
H1312 C1333 0.950 . S
H1313 C1336 0.950 . S
H1314 C1337 0.950 . S
H1315 C1339 0.950 . S
H1316 C1340 0.950 . S
H1317 C1341 0.951 . S
H1318 C1343 0.951 . S
H1319 C1345 0.950 . S
H1320 C1346 0.950 . S
H1321 C1348 0.950 . S
H1322 C1351 0.950 . S
H1323 C1352 0.950 . S
H1324 C1354 0.950 . S
H1325 C1355 0.950 . S
C1326 H1308 0.951 . S
C1326 C1327 1.366 . S
C1326 C1328 1.388 . S
C1327 C1326 1.366 . S
C1327 C1331 1.385 . S
C1328 H1309 0.951 . S
C1328 C1326 1.388 . S
C1328 C1329 1.366 . S
C1329 C1328 1.366 . S
C1329 C1330 1.414 . S
C1329 C1332 1.499 . S
C1330 H1310 0.950 . S
C1330 C1329 1.414 . S
C1330 C1331 1.374 . S
C1331 H1311 0.950 . S
C1331 C1327 1.385 . S
C1331 C1330 1.374 . S
C1332 C1329 1.499 . S
C1332 C1333 1.373 . S
C1332 C1334 1.389 . S
C1333 H1312 0.950 . S
C1333 C1332 1.373 . S
C1333 C1349 1.377 . S
C1334 C1332 1.389 . S
C1334 C1335 1.524 . S
C1334 C1348 1.377 . S
C1335 C1334 1.524 . S
C1335 C1336 1.397 . S
C1335 C1340 1.363 . S
C1336 H1313 0.950 . S
C1336 C1335 1.397 . S
C1336 C1337 1.334 . S
C1337 H1314 0.950 . S
C1337 C1336 1.334 . S
C1337 C1338 1.287 . S
C1338 C1337 1.287 . S
C1338 C1339 1.524 . S
C1338 H1357 0.913 . S
C1339 H1315 0.950 . S
C1339 C1338 1.524 . S
C1339 C1340 1.415 . S
C1340 H1316 0.950 . S
C1340 C1335 1.363 . S
C1340 C1339 1.415 . S
C1341 H1317 0.951 . S
C1341 C1342 1.366 . S
C1341 C1343 1.388 . S
C1342 C1341 1.366 . S
C1342 C1346 1.385 . S
C1343 H1318 0.951 . S
C1343 C1341 1.388 . S
C1343 C1344 1.366 . S
C1344 C1343 1.366 . S
C1344 C1345 1.414 . S
C1344 C1347 1.499 . S
C1345 H1319 0.950 . S
C1345 C1344 1.414 . S
C1345 C1346 1.374 . S
C1346 H1320 0.950 . S
C1346 C1342 1.385 . S
C1346 C1345 1.374 . S
C1347 C1344 1.499 . S
C1347 C1348 1.373 . S
C1347 C1349 1.389 . S
C1348 H1321 0.950 . S
C1348 C1334 1.377 . S
C1348 C1347 1.373 . S
C1349 C1333 1.377 . S
C1349 C1347 1.389 . S
C1349 C1350 1.524 . S
C1350 C1349 1.524 . S
C1350 C1351 1.397 . S
C1350 C1355 1.363 . S
C1351 H1322 0.950 . S
C1351 C1350 1.397 . S
C1351 C1352 1.334 . S
C1352 H1323 0.950 . S
C1352 C1351 1.334 . S
C1352 C1353 1.287 . S
C1353 C1352 1.287 . S
C1353 C1354 1.524 . S
C1353 H1356 0.999 . S
C1354 H1324 0.950 . S
C1354 C1353 1.524 . S
C1354 C1355 1.415 . S
C1355 H1325 0.950 . S
C1355 C1350 1.363 . S
C1355 C1354 1.415 . S
H1356 C1353 0.999 . S
H1357 C1338 0.913 . S
H1358 C1376 0.951 . S
H1359 C1378 0.951 . S
H1360 C1380 0.950 . S
H1361 C1381 0.950 . S
H1362 C1383 0.950 . S
H1363 C1386 0.950 . S
H1364 C1387 0.950 . S
H1365 C1389 0.950 . S
H1366 C1390 0.950 . S
H1367 C1391 0.951 . S
H1368 C1393 0.951 . S
H1369 C1395 0.950 . S
H1370 C1396 0.950 . S
H1371 C1398 0.950 . S
H1372 C1401 0.950 . S
H1373 C1402 0.950 . S
H1374 C1404 0.950 . S
H1375 C1405 0.950 . S
C1376 H1358 0.951 . S
C1376 C1377 1.366 . S
C1376 C1378 1.388 . S
C1377 C1376 1.366 . S
C1377 C1381 1.385 . S
C1378 H1359 0.951 . S
C1378 C1376 1.388 . S
C1378 C1379 1.366 . S
C1379 C1378 1.366 . S
C1379 C1380 1.414 . S
C1379 C1382 1.499 . S
C1380 H1360 0.950 . S
C1380 C1379 1.414 . S
C1380 C1381 1.374 . S
C1381 H1361 0.950 . S
C1381 C1377 1.385 . S
C1381 C1380 1.374 . S
C1382 C1379 1.499 . S
C1382 C1383 1.373 . S
C1382 C1384 1.389 . S
C1383 H1362 0.950 . S
C1383 C1382 1.373 . S
C1383 C1399 1.377 . S
C1384 C1382 1.389 . S
C1384 C1385 1.524 . S
C1384 C1398 1.377 . S
C1385 C1384 1.524 . S
C1385 C1386 1.397 . S
C1385 C1390 1.363 . S
C1386 H1363 0.950 . S
C1386 C1385 1.397 . S
C1386 C1387 1.334 . S
C1387 H1364 0.950 . S
C1387 C1386 1.334 . S
C1387 C1388 1.287 . S
C1388 C1387 1.287 . S
C1388 C1389 1.524 . S
C1388 H1407 0.913 . S
C1389 H1365 0.950 . S
C1389 C1388 1.524 . S
C1389 C1390 1.415 . S
C1390 H1366 0.950 . S
C1390 C1385 1.363 . S
C1390 C1389 1.415 . S
C1391 H1367 0.951 . S
C1391 C1392 1.366 . S
C1391 C1393 1.388 . S
C1392 C1391 1.366 . S
C1392 C1396 1.385 . S
C1393 H1368 0.951 . S
C1393 C1391 1.388 . S
C1393 C1394 1.366 . S
C1394 C1393 1.366 . S
C1394 C1395 1.414 . S
C1394 C1397 1.499 . S
C1395 H1369 0.950 . S
C1395 C1394 1.414 . S
C1395 C1396 1.374 . S
C1396 H1370 0.950 . S
C1396 C1392 1.385 . S
C1396 C1395 1.374 . S
C1397 C1394 1.499 . S
C1397 C1398 1.373 . S
C1397 C1399 1.389 . S
C1398 H1371 0.950 . S
C1398 C1384 1.377 . S
C1398 C1397 1.373 . S
C1399 C1383 1.377 . S
C1399 C1397 1.389 . S
C1399 C1400 1.524 . S
C1400 C1399 1.524 . S
C1400 C1401 1.397 . S
C1400 C1405 1.363 . S
C1401 H1372 0.950 . S
C1401 C1400 1.397 . S
C1401 C1402 1.334 . S
C1402 H1373 0.950 . S
C1402 C1401 1.334 . S
C1402 C1403 1.287 . S
C1403 C1402 1.287 . S
C1403 C1404 1.524 . S
C1403 H1406 0.999 . S
C1404 H1374 0.950 . S
C1404 C1403 1.524 . S
C1404 C1405 1.415 . S
C1405 H1375 0.950 . S
C1405 C1400 1.363 . S
C1405 C1404 1.415 . S
H1406 C1403 0.999 . S
H1407 C1388 0.913 . S
H1408 C1426 0.951 . S
H1409 C1428 0.951 . S
H1410 C1430 0.950 . S
H1411 C1431 0.950 . S
H1412 C1433 0.950 . S
H1413 C1436 0.950 . S
H1414 C1437 0.950 . S
H1415 C1439 0.950 . S
H1416 C1440 0.950 . S
H1417 C1441 0.951 . S
H1418 C1443 0.951 . S
H1419 C1445 0.950 . S
H1420 C1446 0.950 . S
H1421 C1448 0.950 . S
H1422 C1451 0.950 . S
H1423 C1452 0.950 . S
H1424 C1454 0.950 . S
H1425 C1455 0.950 . S
C1426 H1408 0.951 . S
C1426 C1427 1.366 . S
C1426 C1428 1.388 . S
C1427 C1426 1.366 . S
C1427 C1431 1.385 . S
C1428 H1409 0.951 . S
C1428 C1426 1.388 . S
C1428 C1429 1.366 . S
C1429 C1428 1.366 . S
C1429 C1430 1.414 . S
C1429 C1432 1.499 . S
C1430 H1410 0.950 . S
C1430 C1429 1.414 . S
C1430 C1431 1.374 . S
C1431 H1411 0.950 . S
C1431 C1427 1.385 . S
C1431 C1430 1.374 . S
C1432 C1429 1.499 . S
C1432 C1433 1.373 . S
C1432 C1434 1.389 . S
C1433 H1412 0.950 . S
C1433 C1432 1.373 . S
C1433 C1449 1.377 . S
C1434 C1432 1.389 . S
C1434 C1435 1.524 . S
C1434 C1448 1.377 . S
C1435 C1434 1.524 . S
C1435 C1436 1.397 . S
C1435 C1440 1.363 . S
C1436 H1413 0.950 . S
C1436 C1435 1.397 . S
C1436 C1437 1.334 . S
C1437 H1414 0.950 . S
C1437 C1436 1.334 . S
C1437 C1438 1.287 . S
C1438 C1437 1.287 . S
C1438 C1439 1.524 . S
C1438 H1457 0.913 . S
C1439 H1415 0.950 . S
C1439 C1438 1.524 . S
C1439 C1440 1.415 . S
C1440 H1416 0.950 . S
C1440 C1435 1.363 . S
C1440 C1439 1.415 . S
C1441 H1417 0.951 . S
C1441 C1442 1.366 . S
C1441 C1443 1.388 . S
C1442 C1441 1.366 . S
C1442 C1446 1.385 . S
C1443 H1418 0.951 . S
C1443 C1441 1.388 . S
C1443 C1444 1.366 . S
C1444 C1443 1.366 . S
C1444 C1445 1.414 . S
C1444 C1447 1.499 . S
C1445 H1419 0.950 . S
C1445 C1444 1.414 . S
C1445 C1446 1.374 . S
C1446 H1420 0.950 . S
C1446 C1442 1.385 . S
C1446 C1445 1.374 . S
C1447 C1444 1.499 . S
C1447 C1448 1.373 . S
C1447 C1449 1.389 . S
C1448 H1421 0.950 . S
C1448 C1434 1.377 . S
C1448 C1447 1.373 . S
C1449 C1433 1.377 . S
C1449 C1447 1.389 . S
C1449 C1450 1.524 . S
C1450 C1449 1.524 . S
C1450 C1451 1.397 . S
C1450 C1455 1.363 . S
C1451 H1422 0.950 . S
C1451 C1450 1.397 . S
C1451 C1452 1.334 . S
C1452 H1423 0.950 . S
C1452 C1451 1.334 . S
C1452 C1453 1.287 . S
C1453 C1452 1.287 . S
C1453 C1454 1.524 . S
C1453 H1456 0.999 . S
C1454 H1424 0.950 . S
C1454 C1453 1.524 . S
C1454 C1455 1.415 . S
C1455 H1425 0.950 . S
C1455 C1450 1.363 . S
C1455 C1454 1.415 . S
H1456 C1453 0.999 . S
H1457 C1438 0.913 . S
H1458 C1476 0.951 . S
H1459 C1478 0.951 . S
H1460 C1480 0.950 . S
H1461 C1481 0.950 . S
H1462 C1483 0.950 . S
H1463 C1486 0.950 . S
H1464 C1487 0.950 . S
H1465 C1489 0.950 . S
H1466 C1490 0.950 . S
H1467 C1491 0.951 . S
H1468 C1493 0.951 . S
H1469 C1495 0.950 . S
H1470 C1496 0.950 . S
H1471 C1498 0.950 . S
H1472 C1501 0.950 . S
H1473 C1502 0.950 . S
H1474 C1504 0.950 . S
H1475 C1505 0.950 . S
C1476 H1458 0.951 . S
C1476 C1477 1.366 . S
C1476 C1478 1.388 . S
C1477 C1476 1.366 . S
C1477 C1481 1.385 . S
C1478 H1459 0.951 . S
C1478 C1476 1.388 . S
C1478 C1479 1.366 . S
C1479 C1478 1.366 . S
C1479 C1480 1.414 . S
C1479 C1482 1.499 . S
C1480 H1460 0.950 . S
C1480 C1479 1.414 . S
C1480 C1481 1.374 . S
C1481 H1461 0.950 . S
C1481 C1477 1.385 . S
C1481 C1480 1.374 . S
C1482 C1479 1.499 . S
C1482 C1483 1.373 . S
C1482 C1484 1.389 . S
C1483 H1462 0.950 . S
C1483 C1482 1.373 . S
C1483 C1499 1.377 . S
C1484 C1482 1.389 . S
C1484 C1485 1.524 . S
C1484 C1498 1.377 . S
C1485 C1484 1.524 . S
C1485 C1486 1.397 . S
C1485 C1490 1.363 . S
C1486 H1463 0.950 . S
C1486 C1485 1.397 . S
C1486 C1487 1.334 . S
C1487 H1464 0.950 . S
C1487 C1486 1.334 . S
C1487 C1488 1.287 . S
C1488 C1487 1.287 . S
C1488 C1489 1.524 . S
C1488 H1507 0.913 . S
C1489 H1465 0.950 . S
C1489 C1488 1.524 . S
C1489 C1490 1.415 . S
C1490 H1466 0.950 . S
C1490 C1485 1.363 . S
C1490 C1489 1.415 . S
C1491 H1467 0.951 . S
C1491 C1492 1.366 . S
C1491 C1493 1.388 . S
C1492 C1491 1.366 . S
C1492 C1496 1.385 . S
C1493 H1468 0.951 . S
C1493 C1491 1.388 . S
C1493 C1494 1.366 . S
C1494 C1493 1.366 . S
C1494 C1495 1.414 . S
C1494 C1497 1.499 . S
C1495 H1469 0.950 . S
C1495 C1494 1.414 . S
C1495 C1496 1.374 . S
C1496 H1470 0.950 . S
C1496 C1492 1.385 . S
C1496 C1495 1.374 . S
C1497 C1494 1.499 . S
C1497 C1498 1.373 . S
C1497 C1499 1.389 . S
C1498 H1471 0.950 . S
C1498 C1484 1.377 . S
C1498 C1497 1.373 . S
C1499 C1483 1.377 . S
C1499 C1497 1.389 . S
C1499 C1500 1.524 . S
C1500 C1499 1.524 . S
C1500 C1501 1.397 . S
C1500 C1505 1.363 . S
C1501 H1472 0.950 . S
C1501 C1500 1.397 . S
C1501 C1502 1.334 . S
C1502 H1473 0.950 . S
C1502 C1501 1.334 . S
C1502 C1503 1.287 . S
C1503 C1502 1.287 . S
C1503 C1504 1.524 . S
C1503 H1506 0.999 . S
C1504 H1474 0.950 . S
C1504 C1503 1.524 . S
C1504 C1505 1.415 . S
C1505 H1475 0.950 . S
C1505 C1500 1.363 . S
C1505 C1504 1.415 . S
H1506 C1503 0.999 . S
H1507 C1488 0.913 . S
H1508 C1526 0.951 . S
H1509 C1528 0.951 . S
H1510 C1530 0.950 . S
H1511 C1531 0.950 . S
H1512 C1533 0.950 . S
H1513 C1536 0.950 . S
H1514 C1537 0.950 . S
H1515 C1539 0.950 . S
H1516 C1540 0.950 . S
H1517 C1541 0.951 . S
H1518 C1543 0.951 . S
H1519 C1545 0.950 . S
H1520 C1546 0.950 . S
H1521 C1548 0.950 . S
H1522 C1551 0.950 . S
H1523 C1552 0.950 . S
H1524 C1554 0.950 . S
H1525 C1555 0.950 . S
C1526 H1508 0.951 . S
C1526 C1527 1.366 . S
C1526 C1528 1.388 . S
C1527 C1526 1.366 . S
C1527 C1531 1.385 . S
C1528 H1509 0.951 . S
C1528 C1526 1.388 . S
C1528 C1529 1.366 . S
C1529 C1528 1.366 . S
C1529 C1530 1.414 . S
C1529 C1532 1.499 . S
C1530 H1510 0.950 . S
C1530 C1529 1.414 . S
C1530 C1531 1.374 . S
C1531 H1511 0.950 . S
C1531 C1527 1.385 . S
C1531 C1530 1.374 . S
C1532 C1529 1.499 . S
C1532 C1533 1.373 . S
C1532 C1534 1.389 . S
C1533 H1512 0.950 . S
C1533 C1532 1.373 . S
C1533 C1549 1.377 . S
C1534 C1532 1.389 . S
C1534 C1535 1.524 . S
C1534 C1548 1.377 . S
C1535 C1534 1.524 . S
C1535 C1536 1.397 . S
C1535 C1540 1.363 . S
C1536 H1513 0.950 . S
C1536 C1535 1.397 . S
C1536 C1537 1.334 . S
C1537 H1514 0.950 . S
C1537 C1536 1.334 . S
C1537 C1538 1.287 . S
C1538 C1537 1.287 . S
C1538 C1539 1.524 . S
C1538 H1557 0.913 . S
C1539 H1515 0.950 . S
C1539 C1538 1.524 . S
C1539 C1540 1.415 . S
C1540 H1516 0.950 . S
C1540 C1535 1.363 . S
C1540 C1539 1.415 . S
C1541 H1517 0.951 . S
C1541 C1542 1.366 . S
C1541 C1543 1.388 . S
C1542 C1541 1.366 . S
C1542 C1546 1.385 . S
C1543 H1518 0.951 . S
C1543 C1541 1.388 . S
C1543 C1544 1.366 . S
C1544 C1543 1.366 . S
C1544 C1545 1.414 . S
C1544 C1547 1.499 . S
C1545 H1519 0.950 . S
C1545 C1544 1.414 . S
C1545 C1546 1.374 . S
C1546 H1520 0.950 . S
C1546 C1542 1.385 . S
C1546 C1545 1.374 . S
C1547 C1544 1.499 . S
C1547 C1548 1.373 . S
C1547 C1549 1.389 . S
C1548 H1521 0.950 . S
C1548 C1534 1.377 . S
C1548 C1547 1.373 . S
C1549 C1533 1.377 . S
C1549 C1547 1.389 . S
C1549 C1550 1.524 . S
C1550 C1549 1.524 . S
C1550 C1551 1.397 . S
C1550 C1555 1.363 . S
C1551 H1522 0.950 . S
C1551 C1550 1.397 . S
C1551 C1552 1.334 . S
C1552 H1523 0.950 . S
C1552 C1551 1.334 . S
C1552 C1553 1.287 . S
C1553 C1552 1.287 . S
C1553 C1554 1.524 . S
C1553 H1556 0.999 . S
C1554 H1524 0.950 . S
C1554 C1553 1.524 . S
C1554 C1555 1.415 . S
C1555 H1525 0.950 . S
C1555 C1550 1.363 . S
C1555 C1554 1.415 . S
H1556 C1553 0.999 . S
H1557 C1538 0.913 . S
H1558 C1576 0.951 . S
H1559 C1578 0.951 . S
H1560 C1580 0.950 . S
H1561 C1581 0.950 . S
H1562 C1583 0.950 . S
H1563 C1586 0.950 . S
H1564 C1587 0.950 . S
H1565 C1589 0.950 . S
H1566 C1590 0.950 . S
H1567 C1591 0.951 . S
H1568 C1593 0.951 . S
H1569 C1595 0.950 . S
H1570 C1596 0.950 . S
H1571 C1598 0.950 . S
H1572 C1601 0.950 . S
H1573 C1602 0.950 . S
H1574 C1604 0.950 . S
H1575 C1605 0.950 . S
C1576 H1558 0.951 . S
C1576 C1577 1.366 . S
C1576 C1578 1.388 . S
C1577 C1576 1.366 . S
C1577 C1581 1.385 . S
C1578 H1559 0.951 . S
C1578 C1576 1.388 . S
C1578 C1579 1.366 . S
C1579 C1578 1.366 . S
C1579 C1580 1.414 . S
C1579 C1582 1.499 . S
C1580 H1560 0.950 . S
C1580 C1579 1.414 . S
C1580 C1581 1.374 . S
C1581 H1561 0.950 . S
C1581 C1577 1.385 . S
C1581 C1580 1.374 . S
C1582 C1579 1.499 . S
C1582 C1583 1.373 . S
C1582 C1584 1.389 . S
C1583 H1562 0.950 . S
C1583 C1582 1.373 . S
C1583 C1599 1.377 . S
C1584 C1582 1.389 . S
C1584 C1585 1.524 . S
C1584 C1598 1.377 . S
C1585 C1584 1.524 . S
C1585 C1586 1.397 . S
C1585 C1590 1.363 . S
C1586 H1563 0.950 . S
C1586 C1585 1.397 . S
C1586 C1587 1.334 . S
C1587 H1564 0.950 . S
C1587 C1586 1.334 . S
C1587 C1588 1.287 . S
C1588 C1587 1.287 . S
C1588 C1589 1.524 . S
C1588 H1607 0.913 . S
C1589 H1565 0.950 . S
C1589 C1588 1.524 . S
C1589 C1590 1.415 . S
C1590 H1566 0.950 . S
C1590 C1585 1.363 . S
C1590 C1589 1.415 . S
C1591 H1567 0.951 . S
C1591 C1592 1.366 . S
C1591 C1593 1.388 . S
C1592 C1591 1.366 . S
C1592 C1596 1.385 . S
C1593 H1568 0.951 . S
C1593 C1591 1.388 . S
C1593 C1594 1.366 . S
C1594 C1593 1.366 . S
C1594 C1595 1.414 . S
C1594 C1597 1.499 . S
C1595 H1569 0.950 . S
C1595 C1594 1.414 . S
C1595 C1596 1.374 . S
C1596 H1570 0.950 . S
C1596 C1592 1.385 . S
C1596 C1595 1.374 . S
C1597 C1594 1.499 . S
C1597 C1598 1.373 . S
C1597 C1599 1.389 . S
C1598 H1571 0.950 . S
C1598 C1584 1.377 . S
C1598 C1597 1.373 . S
C1599 C1583 1.377 . S
C1599 C1597 1.389 . S
C1599 C1600 1.524 . S
C1600 C1599 1.524 . S
C1600 C1601 1.397 . S
C1600 C1605 1.363 . S
C1601 H1572 0.950 . S
C1601 C1600 1.397 . S
C1601 C1602 1.334 . S
C1602 H1573 0.950 . S
C1602 C1601 1.334 . S
C1602 C1603 1.287 . S
C1603 C1602 1.287 . S
C1603 C1604 1.524 . S
C1603 H1606 0.999 . S
C1604 H1574 0.950 . S
C1604 C1603 1.524 . S
C1604 C1605 1.415 . S
C1605 H1575 0.950 . S
C1605 C1600 1.363 . S
C1605 C1604 1.415 . S
H1606 C1603 0.999 . S
H1607 C1588 0.913 . S
H1608 C1626 0.951 . S
H1609 C1628 0.951 . S
H1610 C1630 0.950 . S
H1611 C1631 0.950 . S
H1612 C1633 0.950 . S
H1613 C1636 0.950 . S
H1614 C1637 0.950 . S
H1615 C1639 0.950 . S
H1616 C1640 0.950 . S
H1617 C1641 0.951 . S
H1618 C1643 0.951 . S
H1619 C1645 0.950 . S
H1620 C1646 0.950 . S
H1621 C1648 0.950 . S
H1622 C1651 0.950 . S
H1623 C1652 0.950 . S
H1624 C1654 0.950 . S
H1625 C1655 0.950 . S
C1626 H1608 0.951 . S
C1626 C1627 1.366 . S
C1626 C1628 1.388 . S
C1627 C1626 1.366 . S
C1627 C1631 1.385 . S
C1628 H1609 0.951 . S
C1628 C1626 1.388 . S
C1628 C1629 1.366 . S
C1629 C1628 1.366 . S
C1629 C1630 1.414 . S
C1629 C1632 1.499 1_545 S
C1630 H1610 0.950 . S
C1630 C1629 1.414 . S
C1630 C1631 1.374 . S
C1631 H1611 0.950 . S
C1631 C1627 1.385 . S
C1631 C1630 1.374 . S
C1632 C1629 1.499 1_565 S
C1632 C1633 1.373 . S
C1632 C1634 1.389 . S
C1633 H1612 0.950 . S
C1633 C1632 1.373 . S
C1633 C1649 1.377 . S
C1634 C1632 1.389 . S
C1634 C1635 1.524 . S
C1634 C1648 1.377 . S
C1635 C1634 1.524 . S
C1635 C1636 1.397 1_565 S
C1635 C1640 1.363 . S
C1636 H1613 0.950 . S
C1636 C1635 1.397 1_545 S
C1636 C1637 1.334 . S
C1637 H1614 0.950 . S
C1637 C1636 1.334 . S
C1637 C1638 1.287 . S
C1638 C1637 1.287 . S
C1638 C1639 1.524 1_545 S
C1638 H1657 0.913 . S
C1639 H1615 0.950 . S
C1639 C1638 1.524 1_565 S
C1639 C1640 1.415 . S
C1640 H1616 0.950 . S
C1640 C1635 1.363 . S
C1640 C1639 1.415 . S
C1641 H1617 0.951 . S
C1641 C1642 1.366 . S
C1641 C1643 1.388 . S
C1642 C1641 1.366 . S
C1642 C1646 1.385 . S
C1643 H1618 0.951 . S
C1643 C1641 1.388 . S
C1643 C1644 1.366 . S
C1644 C1643 1.366 . S
C1644 C1645 1.414 . S
C1644 C1647 1.499 . S
C1645 H1619 0.950 . S
C1645 C1644 1.414 . S
C1645 C1646 1.374 . S
C1646 H1620 0.950 . S
C1646 C1642 1.385 . S
C1646 C1645 1.374 . S
C1647 C1644 1.499 . S
C1647 C1648 1.373 . S
C1647 C1649 1.389 . S
C1648 H1621 0.950 . S
C1648 C1634 1.377 . S
C1648 C1647 1.373 . S
C1649 C1633 1.377 . S
C1649 C1647 1.389 . S
C1649 C1650 1.524 . S
C1650 C1649 1.524 . S
C1650 C1651 1.397 . S
C1650 C1655 1.363 . S
C1651 H1622 0.950 . S
C1651 C1650 1.397 . S
C1651 C1652 1.334 . S
C1652 H1623 0.950 . S
C1652 C1651 1.334 . S
C1652 C1653 1.287 . S
C1653 C1652 1.287 . S
C1653 C1654 1.524 . S
C1653 H1656 0.999 . S
C1654 H1624 0.950 . S
C1654 C1653 1.524 . S
C1654 C1655 1.415 . S
C1655 H1625 0.950 . S
C1655 C1650 1.363 . S
C1655 C1654 1.415 . S
H1656 C1653 0.999 . S
H1657 C1638 0.913 . S
H1658 C1676 0.951 . S
H1659 C1678 0.951 . S
H1660 C1680 0.950 . S
H1661 C1681 0.950 . S
H1662 C1683 0.950 . S
H1663 C1686 0.950 . S
H1664 C1687 0.950 . S
H1665 C1689 0.950 . S
H1666 C1690 0.950 . S
H1667 C1691 0.951 . S
H1668 C1693 0.951 . S
H1669 C1695 0.950 . S
H1670 C1696 0.950 . S
H1671 C1698 0.950 . S
H1672 C1701 0.950 . S
H1673 C1702 0.950 . S
H1674 C1704 0.950 . S
H1675 C1705 0.950 . S
C1676 H1658 0.951 . S
C1676 C1677 1.366 . S
C1676 C1678 1.388 . S
C1677 C1676 1.366 . S
C1677 C1681 1.385 . S
C1678 H1659 0.951 . S
C1678 C1676 1.388 . S
C1678 C1679 1.366 1_655 S
C1679 C1678 1.366 1_455 S
C1679 C1680 1.414 . S
C1679 C1682 1.499 . S
C1680 H1660 0.950 . S
C1680 C1679 1.414 . S
C1680 C1681 1.374 1_455 S
C1681 H1661 0.950 . S
C1681 C1677 1.385 . S
C1681 C1680 1.374 1_655 S
C1682 C1679 1.499 . S
C1682 C1683 1.373 . S
C1682 C1684 1.389 . S
C1683 H1662 0.950 . S
C1683 C1682 1.373 . S
C1683 C1699 1.377 . S
C1684 C1682 1.389 . S
C1684 C1685 1.524 . S
C1684 C1698 1.377 . S
C1685 C1684 1.524 . S
C1685 C1686 1.397 . S
C1685 C1690 1.363 . S
C1686 H1663 0.950 . S
C1686 C1685 1.397 . S
C1686 C1687 1.334 . S
C1687 H1664 0.950 . S
C1687 C1686 1.334 . S
C1687 C1688 1.287 . S
C1688 C1687 1.287 . S
C1688 C1689 1.524 . S
C1688 H1707 0.913 . S
C1689 H1665 0.950 . S
C1689 C1688 1.524 . S
C1689 C1690 1.415 . S
C1690 H1666 0.950 . S
C1690 C1685 1.363 . S
C1690 C1689 1.415 . S
C1691 H1667 0.951 . S
C1691 C1692 1.366 . S
C1691 C1693 1.388 . S
C1692 C1691 1.366 . S
C1692 C1696 1.385 . S
C1693 H1668 0.951 . S
C1693 C1691 1.388 . S
C1693 C1694 1.366 . S
C1694 C1693 1.366 . S
C1694 C1695 1.414 . S
C1694 C1697 1.499 . S
C1695 H1669 0.950 . S
C1695 C1694 1.414 . S
C1695 C1696 1.374 . S
C1696 H1670 0.950 . S
C1696 C1692 1.385 . S
C1696 C1695 1.374 . S
C1697 C1694 1.499 . S
C1697 C1698 1.373 . S
C1697 C1699 1.389 . S
C1698 H1671 0.950 . S
C1698 C1684 1.377 . S
C1698 C1697 1.373 . S
C1699 C1683 1.377 . S
C1699 C1697 1.389 . S
C1699 C1700 1.524 . S
C1700 C1699 1.524 . S
C1700 C1701 1.397 . S
C1700 C1705 1.363 . S
C1701 H1672 0.950 . S
C1701 C1700 1.397 . S
C1701 C1702 1.334 . S
C1702 H1673 0.950 . S
C1702 C1701 1.334 . S
C1702 C1703 1.287 . S
C1703 C1702 1.287 . S
C1703 C1704 1.524 . S
C1703 H1706 0.999 . S
C1704 H1674 0.950 . S
C1704 C1703 1.524 . S
C1704 C1705 1.415 . S
C1705 H1675 0.950 . S
C1705 C1700 1.363 . S
C1705 C1704 1.415 . S
H1706 C1703 0.999 . S
H1707 C1688 0.913 . S
H1708 C1726 0.951 . S
H1709 C1728 0.951 . S
H1710 C1730 0.950 . S
H1711 C1731 0.950 . S
H1712 C1733 0.950 . S
H1713 C1736 0.950 . S
H1714 C1737 0.950 . S
H1715 C1739 0.950 . S
H1716 C1740 0.950 . S
H1717 C1741 0.951 . S
H1718 C1743 0.951 . S
H1719 C1745 0.950 . S
H1720 C1746 0.950 . S
H1721 C1748 0.950 . S
H1722 C1751 0.950 . S
H1723 C1752 0.950 . S
H1724 C1754 0.950 . S
H1725 C1755 0.950 . S
C1726 H1708 0.951 . S
C1726 C1727 1.366 . S
C1726 C1728 1.388 . S
C1727 C1726 1.366 . S
C1727 C1731 1.385 . S
C1728 H1709 0.951 . S
C1728 C1726 1.388 . S
C1728 C1729 1.366 . S
C1729 C1728 1.366 . S
C1729 C1730 1.414 . S
C1729 C1732 1.499 . S
C1730 H1710 0.950 . S
C1730 C1729 1.414 . S
C1730 C1731 1.374 . S
C1731 H1711 0.950 . S
C1731 C1727 1.385 . S
C1731 C1730 1.374 . S
C1732 C1729 1.499 . S
C1732 C1733 1.373 . S
C1732 C1734 1.389 . S
C1733 H1712 0.950 . S
C1733 C1732 1.373 . S
C1733 C1749 1.377 . S
C1734 C1732 1.389 . S
C1734 C1735 1.524 . S
C1734 C1748 1.377 . S
C1735 C1734 1.524 . S
C1735 C1736 1.397 . S
C1735 C1740 1.363 . S
C1736 H1713 0.950 . S
C1736 C1735 1.397 . S
C1736 C1737 1.334 . S
C1737 H1714 0.950 . S
C1737 C1736 1.334 . S
C1737 C1738 1.287 . S
C1738 C1737 1.287 . S
C1738 C1739 1.524 . S
C1738 H1757 0.913 . S
C1739 H1715 0.950 . S
C1739 C1738 1.524 . S
C1739 C1740 1.415 . S
C1740 H1716 0.950 . S
C1740 C1735 1.363 . S
C1740 C1739 1.415 . S
C1741 H1717 0.951 . S
C1741 C1742 1.366 . S
C1741 C1743 1.388 . S
C1742 C1741 1.366 . S
C1742 C1746 1.385 . S
C1743 H1718 0.951 . S
C1743 C1741 1.388 . S
C1743 C1744 1.366 . S
C1744 C1743 1.366 . S
C1744 C1745 1.414 . S
C1744 C1747 1.499 . S
C1745 H1719 0.950 . S
C1745 C1744 1.414 . S
C1745 C1746 1.374 . S
C1746 H1720 0.950 . S
C1746 C1742 1.385 . S
C1746 C1745 1.374 . S
C1747 C1744 1.499 . S
C1747 C1748 1.373 . S
C1747 C1749 1.389 . S
C1748 H1721 0.950 . S
C1748 C1734 1.377 . S
C1748 C1747 1.373 . S
C1749 C1733 1.377 . S
C1749 C1747 1.389 . S
C1749 C1750 1.524 . S
C1750 C1749 1.524 . S
C1750 C1751 1.397 . S
C1750 C1755 1.363 . S
C1751 H1722 0.950 . S
C1751 C1750 1.397 . S
C1751 C1752 1.334 . S
C1752 H1723 0.950 . S
C1752 C1751 1.334 . S
C1752 C1753 1.287 . S
C1753 C1752 1.287 . S
C1753 C1754 1.524 . S
C1753 H1756 0.999 . S
C1754 H1724 0.950 . S
C1754 C1753 1.524 . S
C1754 C1755 1.415 . S
C1755 H1725 0.950 . S
C1755 C1750 1.363 . S
C1755 C1754 1.415 . S
H1756 C1753 0.999 . S
H1757 C1738 0.913 . S
H1758 C1776 0.951 . S
H1759 C1778 0.951 . S
H1760 C1780 0.950 . S
H1761 C1781 0.950 . S
H1762 C1783 0.950 . S
H1763 C1786 0.950 . S
H1764 C1787 0.950 . S
H1765 C1789 0.950 . S
H1766 C1790 0.950 . S
H1767 C1791 0.951 . S
H1768 C1793 0.951 . S
H1769 C1795 0.950 . S
H1770 C1796 0.950 . S
H1771 C1798 0.950 . S
H1772 C1801 0.950 . S
H1773 C1802 0.950 . S
H1774 C1804 0.950 . S
H1775 C1805 0.950 . S
C1776 H1758 0.951 . S
C1776 C1777 1.366 . S
C1776 C1778 1.388 . S
C1777 C1776 1.366 . S
C1777 C1781 1.385 . S
C1778 H1759 0.951 . S
C1778 C1776 1.388 . S
C1778 C1779 1.366 . S
C1779 C1778 1.366 . S
C1779 C1780 1.414 . S
C1779 C1782 1.499 . S
C1780 H1760 0.950 . S
C1780 C1779 1.414 . S
C1780 C1781 1.374 . S
C1781 H1761 0.950 . S
C1781 C1777 1.385 . S
C1781 C1780 1.374 . S
C1782 C1779 1.499 . S
C1782 C1783 1.373 . S
C1782 C1784 1.389 . S
C1783 H1762 0.950 . S
C1783 C1782 1.373 . S
C1783 C1799 1.377 . S
C1784 C1782 1.389 . S
C1784 C1785 1.524 . S
C1784 C1798 1.377 . S
C1785 C1784 1.524 . S
C1785 C1786 1.397 . S
C1785 C1790 1.363 . S
C1786 H1763 0.950 . S
C1786 C1785 1.397 . S
C1786 C1787 1.334 . S
C1787 H1764 0.950 . S
C1787 C1786 1.334 . S
C1787 C1788 1.287 . S
C1788 C1787 1.287 . S
C1788 C1789 1.524 . S
C1788 H1807 0.913 . S
C1789 H1765 0.950 . S
C1789 C1788 1.524 . S
C1789 C1790 1.415 . S
C1790 H1766 0.950 . S
C1790 C1785 1.363 . S
C1790 C1789 1.415 . S
C1791 H1767 0.951 . S
C1791 C1792 1.366 . S
C1791 C1793 1.388 . S
C1792 C1791 1.366 . S
C1792 C1796 1.385 . S
C1793 H1768 0.951 . S
C1793 C1791 1.388 . S
C1793 C1794 1.366 . S
C1794 C1793 1.366 . S
C1794 C1795 1.414 . S
C1794 C1797 1.499 . S
C1795 H1769 0.950 . S
C1795 C1794 1.414 . S
C1795 C1796 1.374 . S
C1796 H1770 0.950 . S
C1796 C1792 1.385 . S
C1796 C1795 1.374 . S
C1797 C1794 1.499 . S
C1797 C1798 1.373 . S
C1797 C1799 1.389 . S
C1798 H1771 0.950 . S
C1798 C1784 1.377 . S
C1798 C1797 1.373 . S
C1799 C1783 1.377 . S
C1799 C1797 1.389 . S
C1799 C1800 1.524 . S
C1800 C1799 1.524 . S
C1800 C1801 1.397 . S
C1800 C1805 1.363 . S
C1801 H1772 0.950 . S
C1801 C1800 1.397 . S
C1801 C1802 1.334 . S
C1802 H1773 0.950 . S
C1802 C1801 1.334 . S
C1802 C1803 1.287 . S
C1803 C1802 1.287 . S
C1803 C1804 1.524 . S
C1803 H1806 0.999 . S
C1804 H1774 0.950 . S
C1804 C1803 1.524 . S
C1804 C1805 1.415 . S
C1805 H1775 0.950 . S
C1805 C1800 1.363 . S
C1805 C1804 1.415 . S
H1806 C1803 0.999 . S
H1807 C1788 0.913 . S
H1808 C1826 0.951 . S
H1809 C1828 0.951 . S
H1810 C1830 0.950 . S
H1811 C1831 0.950 . S
H1812 C1833 0.950 . S
H1813 C1836 0.950 . S
H1814 C1837 0.950 . S
H1815 C1839 0.950 . S
H1816 C1840 0.950 . S
H1817 C1841 0.951 . S
H1818 C1843 0.951 . S
H1819 C1845 0.950 . S
H1820 C1846 0.950 . S
H1821 C1848 0.950 . S
H1822 C1851 0.950 . S
H1823 C1852 0.950 . S
H1824 C1854 0.950 . S
H1825 C1855 0.950 . S
C1826 H1808 0.951 . S
C1826 C1827 1.366 . S
C1826 C1828 1.388 . S
C1827 C1826 1.366 . S
C1827 C1831 1.385 . S
C1828 H1809 0.951 . S
C1828 C1826 1.388 . S
C1828 C1829 1.366 . S
C1829 C1828 1.366 . S
C1829 C1830 1.414 . S
C1829 C1832 1.499 . S
C1830 H1810 0.950 . S
C1830 C1829 1.414 . S
C1830 C1831 1.374 . S
C1831 H1811 0.950 . S
C1831 C1827 1.385 . S
C1831 C1830 1.374 . S
C1832 C1829 1.499 . S
C1832 C1833 1.373 . S
C1832 C1834 1.389 . S
C1833 H1812 0.950 . S
C1833 C1832 1.373 . S
C1833 C1849 1.377 . S
C1834 C1832 1.389 . S
C1834 C1835 1.524 . S
C1834 C1848 1.377 . S
C1835 C1834 1.524 . S
C1835 C1836 1.397 . S
C1835 C1840 1.363 . S
C1836 H1813 0.950 . S
C1836 C1835 1.397 . S
C1836 C1837 1.334 . S
C1837 H1814 0.950 . S
C1837 C1836 1.334 . S
C1837 C1838 1.287 . S
C1838 C1837 1.287 . S
C1838 C1839 1.524 . S
C1838 H1857 0.913 . S
C1839 H1815 0.950 . S
C1839 C1838 1.524 . S
C1839 C1840 1.415 . S
C1840 H1816 0.950 . S
C1840 C1835 1.363 . S
C1840 C1839 1.415 . S
C1841 H1817 0.951 . S
C1841 C1842 1.366 . S
C1841 C1843 1.388 . S
C1842 C1841 1.366 . S
C1842 C1846 1.385 . S
C1843 H1818 0.951 . S
C1843 C1841 1.388 . S
C1843 C1844 1.366 . S
C1844 C1843 1.366 . S
C1844 C1845 1.414 . S
C1844 C1847 1.499 . S
C1845 H1819 0.950 . S
C1845 C1844 1.414 . S
C1845 C1846 1.374 . S
C1846 H1820 0.950 . S
C1846 C1842 1.385 . S
C1846 C1845 1.374 . S
C1847 C1844 1.499 . S
C1847 C1848 1.373 . S
C1847 C1849 1.389 . S
C1848 H1821 0.950 . S
C1848 C1834 1.377 . S
C1848 C1847 1.373 . S
C1849 C1833 1.377 . S
C1849 C1847 1.389 . S
C1849 C1850 1.524 . S
C1850 C1849 1.524 . S
C1850 C1851 1.397 . S
C1850 C1855 1.363 . S
C1851 H1822 0.950 . S
C1851 C1850 1.397 . S
C1851 C1852 1.334 . S
C1852 H1823 0.950 . S
C1852 C1851 1.334 . S
C1852 C1853 1.287 . S
C1853 C1852 1.287 . S
C1853 C1854 1.524 . S
C1853 H1856 0.999 . S
C1854 H1824 0.950 . S
C1854 C1853 1.524 . S
C1854 C1855 1.415 . S
C1855 H1825 0.950 . S
C1855 C1850 1.363 . S
C1855 C1854 1.415 . S
H1856 C1853 0.999 . S
H1857 C1838 0.913 . S
H1858 C1876 0.951 . S
H1859 C1878 0.951 . S
H1860 C1880 0.950 . S
H1861 C1881 0.950 . S
H1862 C1883 0.950 . S
H1863 C1886 0.950 . S
H1864 C1887 0.950 . S
H1865 C1889 0.950 . S
H1866 C1890 0.950 . S
H1867 C1891 0.951 . S
H1868 C1893 0.951 . S
H1869 C1895 0.950 . S
H1870 C1896 0.950 . S
H1871 C1898 0.950 . S
H1872 C1901 0.950 . S
H1873 C1902 0.950 . S
H1874 C1904 0.950 . S
H1875 C1905 0.950 . S
C1876 H1858 0.951 . S
C1876 C1877 1.366 . S
C1876 C1878 1.388 . S
C1877 C1876 1.366 . S
C1877 C1881 1.385 . S
C1878 H1859 0.951 . S
C1878 C1876 1.388 . S
C1878 C1879 1.366 . S
C1879 C1878 1.366 . S
C1879 C1880 1.414 . S
C1879 C1882 1.499 . S
C1880 H1860 0.950 . S
C1880 C1879 1.414 . S
C1880 C1881 1.374 . S
C1881 H1861 0.950 . S
C1881 C1877 1.385 . S
C1881 C1880 1.374 . S
C1882 C1879 1.499 . S
C1882 C1883 1.373 . S
C1882 C1884 1.389 . S
C1883 H1862 0.950 . S
C1883 C1882 1.373 . S
C1883 C1899 1.377 . S
C1884 C1882 1.389 . S
C1884 C1885 1.524 . S
C1884 C1898 1.377 . S
C1885 C1884 1.524 . S
C1885 C1886 1.397 . S
C1885 C1890 1.363 . S
C1886 H1863 0.950 . S
C1886 C1885 1.397 . S
C1886 C1887 1.334 . S
C1887 H1864 0.950 . S
C1887 C1886 1.334 . S
C1887 C1888 1.287 . S
C1888 C1887 1.287 . S
C1888 C1889 1.524 . S
C1888 H1907 0.913 . S
C1889 H1865 0.950 . S
C1889 C1888 1.524 . S
C1889 C1890 1.415 . S
C1890 H1866 0.950 . S
C1890 C1885 1.363 . S
C1890 C1889 1.415 . S
C1891 H1867 0.951 . S
C1891 C1892 1.366 . S
C1891 C1893 1.388 . S
C1892 C1891 1.366 . S
C1892 C1896 1.385 . S
C1893 H1868 0.951 . S
C1893 C1891 1.388 . S
C1893 C1894 1.366 . S
C1894 C1893 1.366 . S
C1894 C1895 1.414 . S
C1894 C1897 1.499 . S
C1895 H1869 0.950 . S
C1895 C1894 1.414 . S
C1895 C1896 1.374 . S
C1896 H1870 0.950 . S
C1896 C1892 1.385 . S
C1896 C1895 1.374 . S
C1897 C1894 1.499 . S
C1897 C1898 1.373 . S
C1897 C1899 1.389 . S
C1898 H1871 0.950 . S
C1898 C1884 1.377 . S
C1898 C1897 1.373 . S
C1899 C1883 1.377 . S
C1899 C1897 1.389 . S
C1899 C1900 1.524 . S
C1900 C1899 1.524 . S
C1900 C1901 1.397 . S
C1900 C1905 1.363 . S
C1901 H1872 0.950 . S
C1901 C1900 1.397 . S
C1901 C1902 1.334 . S
C1902 H1873 0.950 . S
C1902 C1901 1.334 . S
C1902 C1903 1.287 . S
C1903 C1902 1.287 . S
C1903 C1904 1.524 . S
C1903 H1906 0.999 . S
C1904 H1874 0.950 . S
C1904 C1903 1.524 . S
C1904 C1905 1.415 . S
C1905 H1875 0.950 . S
C1905 C1900 1.363 . S
C1905 C1904 1.415 . S
H1906 C1903 0.999 . S
H1907 C1888 0.913 . S
H1908 C1926 0.951 . S
H1909 C1928 0.951 . S
H1910 C1930 0.950 . S
H1911 C1931 0.950 . S
H1912 C1933 0.950 . S
H1913 C1936 0.950 . S
H1914 C1937 0.950 . S
H1915 C1939 0.950 . S
H1916 C1940 0.950 . S
H1917 C1941 0.951 . S
H1918 C1943 0.951 . S
H1919 C1945 0.950 . S
H1920 C1946 0.950 . S
H1921 C1948 0.950 . S
H1922 C1951 0.950 . S
H1923 C1952 0.950 . S
H1924 C1954 0.950 . S
H1925 C1955 0.950 . S
C1926 H1908 0.951 . S
C1926 C1927 1.366 . S
C1926 C1928 1.388 . S
C1927 C1926 1.366 . S
C1927 C1931 1.385 . S
C1928 H1909 0.951 . S
C1928 C1926 1.388 . S
C1928 C1929 1.366 . S
C1929 C1928 1.366 . S
C1929 C1930 1.414 . S
C1929 C1932 1.499 . S
C1930 H1910 0.950 . S
C1930 C1929 1.414 . S
C1930 C1931 1.374 . S
C1931 H1911 0.950 . S
C1931 C1927 1.385 . S
C1931 C1930 1.374 . S
C1932 C1929 1.499 . S
C1932 C1933 1.373 . S
C1932 C1934 1.389 . S
C1933 H1912 0.950 . S
C1933 C1932 1.373 . S
C1933 C1949 1.377 1_565 S
C1934 C1932 1.389 . S
C1934 C1935 1.524 . S
C1934 C1948 1.377 1_565 S
C1935 C1934 1.524 . S
C1935 C1936 1.397 . S
C1935 C1940 1.363 . S
C1936 H1913 0.950 . S
C1936 C1935 1.397 . S
C1936 C1937 1.334 . S
C1937 H1914 0.950 . S
C1937 C1936 1.334 . S
C1937 C1938 1.287 . S
C1938 C1937 1.287 . S
C1938 C1939 1.524 . S
C1938 H1957 0.913 . S
C1939 H1915 0.950 . S
C1939 C1938 1.524 . S
C1939 C1940 1.415 . S
C1940 H1916 0.950 . S
C1940 C1935 1.363 . S
C1940 C1939 1.415 . S
C1941 H1917 0.951 . S
C1941 C1942 1.366 . S
C1941 C1943 1.388 . S
C1942 C1941 1.366 . S
C1942 C1946 1.385 . S
C1943 H1918 0.951 . S
C1943 C1941 1.388 . S
C1943 C1944 1.366 . S
C1944 C1943 1.366 . S
C1944 C1945 1.414 . S
C1944 C1947 1.499 . S
C1945 H1919 0.950 . S
C1945 C1944 1.414 . S
C1945 C1946 1.374 . S
C1946 H1920 0.950 . S
C1946 C1942 1.385 . S
C1946 C1945 1.374 . S
C1947 C1944 1.499 . S
C1947 C1948 1.373 . S
C1947 C1949 1.389 . S
C1948 H1921 0.950 . S
C1948 C1934 1.377 1_545 S
C1948 C1947 1.373 . S
C1949 C1933 1.377 1_545 S
C1949 C1947 1.389 . S
C1949 C1950 1.524 . S
C1950 C1949 1.524 . S
C1950 C1951 1.397 . S
C1950 C1955 1.363 . S
C1951 H1922 0.950 . S
C1951 C1950 1.397 . S
C1951 C1952 1.334 . S
C1952 H1923 0.950 . S
C1952 C1951 1.334 . S
C1952 C1953 1.287 . S
C1953 C1952 1.287 . S
C1953 C1954 1.524 . S
C1953 H1956 0.999 . S
C1954 H1924 0.950 . S
C1954 C1953 1.524 . S
C1954 C1955 1.415 . S
C1955 H1925 0.950 . S
C1955 C1950 1.363 . S
C1955 C1954 1.415 . S
H1956 C1953 0.999 . S
H1957 C1938 0.913 . S
H1958 C1976 0.951 . S
H1959 C1978 0.951 . S
H1960 C1980 0.950 . S
H1961 C1981 0.950 . S
H1962 C1983 0.950 . S
H1963 C1986 0.950 . S
H1964 C1987 0.950 . S
H1965 C1989 0.950 . S
H1966 C1990 0.950 . S
H1967 C1991 0.951 . S
H1968 C1993 0.951 . S
H1969 C1995 0.950 . S
H1970 C1996 0.950 . S
H1971 C1998 0.950 . S
H1972 C2001 0.950 . S
H1973 C2002 0.950 . S
H1974 C2004 0.950 . S
H1975 C2005 0.950 . S
C1976 H1958 0.951 . S
C1976 C1977 1.366 . S
C1976 C1978 1.388 . S
C1977 C1976 1.366 . S
C1977 C1981 1.385 . S
C1978 H1959 0.951 . S
C1978 C1976 1.388 . S
C1978 C1979 1.366 . S
C1979 C1978 1.366 . S
C1979 C1980 1.414 . S
C1979 C1982 1.499 . S
C1980 H1960 0.950 . S
C1980 C1979 1.414 . S
C1980 C1981 1.374 . S
C1981 H1961 0.950 . S
C1981 C1977 1.385 . S
C1981 C1980 1.374 . S
C1982 C1979 1.499 . S
C1982 C1983 1.373 . S
C1982 C1984 1.389 . S
C1983 H1962 0.950 . S
C1983 C1982 1.373 . S
C1983 C1999 1.377 1_455 S
C1984 C1982 1.389 . S
C1984 C1985 1.524 . S
C1984 C1998 1.377 1_455 S
C1985 C1984 1.524 . S
C1985 C1986 1.397 . S
C1985 C1990 1.363 . S
C1986 H1963 0.950 . S
C1986 C1985 1.397 . S
C1986 C1987 1.334 . S
C1987 H1964 0.950 . S
C1987 C1986 1.334 . S
C1987 C1988 1.287 . S
C1988 C1987 1.287 . S
C1988 C1989 1.524 . S
C1988 H2007 0.913 . S
C1989 H1965 0.950 . S
C1989 C1988 1.524 . S
C1989 C1990 1.415 . S
C1990 H1966 0.950 . S
C1990 C1985 1.363 . S
C1990 C1989 1.415 . S
C1991 H1967 0.951 . S
C1991 C1992 1.366 . S
C1991 C1993 1.388 . S
C1992 C1991 1.366 . S
C1992 C1996 1.385 . S
C1993 H1968 0.951 . S
C1993 C1991 1.388 . S
C1993 C1994 1.366 . S
C1994 C1993 1.366 . S
C1994 C1995 1.414 . S
C1994 C1997 1.499 . S
C1995 H1969 0.950 . S
C1995 C1994 1.414 . S
C1995 C1996 1.374 . S
C1996 H1970 0.950 . S
C1996 C1992 1.385 . S
C1996 C1995 1.374 . S
C1997 C1994 1.499 . S
C1997 C1998 1.373 . S
C1997 C1999 1.389 . S
C1998 H1971 0.950 . S
C1998 C1984 1.377 1_655 S
C1998 C1997 1.373 . S
C1999 C1983 1.377 1_655 S
C1999 C1997 1.389 . S
C1999 C2000 1.524 . S
C2000 C1999 1.524 . S
C2000 C2001 1.397 . S
C2000 C2005 1.363 . S
C2001 H1972 0.950 . S
C2001 C2000 1.397 . S
C2001 C2002 1.334 . S
C2002 H1973 0.950 . S
C2002 C2001 1.334 . S
C2002 C2003 1.287 . S
C2003 C2002 1.287 . S
C2003 C2004 1.524 . S
C2003 H2006 0.999 . S
C2004 H1974 0.950 . S
C2004 C2003 1.524 . S
C2004 C2005 1.415 . S
C2005 H1975 0.950 . S
C2005 C2000 1.363 . S
C2005 C2004 1.415 . S
H2006 C2003 0.999 . S
H2007 C1988 0.913 . S
H2008 C2026 0.951 . S
H2009 C2028 0.951 . S
H2010 C2030 0.950 . S
H2011 C2031 0.950 . S
H2012 C2033 0.950 . S
H2013 C2036 0.950 . S
H2014 C2037 0.950 . S
H2015 C2039 0.950 . S
H2016 C2040 0.950 . S
H2017 C2041 0.951 . S
H2018 C2043 0.951 . S
H2019 C2045 0.950 . S
H2020 C2046 0.950 . S
H2021 C2048 0.950 . S
H2022 C2051 0.950 . S
H2023 C2052 0.950 . S
H2024 C2054 0.950 . S
H2025 C2055 0.950 . S
C2026 H2008 0.951 . S
C2026 C2027 1.366 . S
C2026 C2028 1.388 . S
C2027 C2026 1.366 . S
C2027 C2031 1.385 . S
C2028 H2009 0.951 . S
C2028 C2026 1.388 . S
C2028 C2029 1.366 . S
C2029 C2028 1.366 . S
C2029 C2030 1.414 . S
C2029 C2032 1.499 . S
C2030 H2010 0.950 . S
C2030 C2029 1.414 . S
C2030 C2031 1.374 . S
C2031 H2011 0.950 . S
C2031 C2027 1.385 . S
C2031 C2030 1.374 . S
C2032 C2029 1.499 . S
C2032 C2033 1.373 . S
C2032 C2034 1.389 . S
C2033 H2012 0.950 . S
C2033 C2032 1.373 . S
C2033 C2049 1.377 . S
C2034 C2032 1.389 . S
C2034 C2035 1.524 . S
C2034 C2048 1.377 . S
C2035 C2034 1.524 . S
C2035 C2036 1.397 . S
C2035 C2040 1.363 . S
C2036 H2013 0.950 . S
C2036 C2035 1.397 . S
C2036 C2037 1.334 . S
C2037 H2014 0.950 . S
C2037 C2036 1.334 . S
C2037 C2038 1.287 . S
C2038 C2037 1.287 . S
C2038 C2039 1.524 . S
C2038 H2057 0.913 . S
C2039 H2015 0.950 . S
C2039 C2038 1.524 . S
C2039 C2040 1.415 . S
C2040 H2016 0.950 . S
C2040 C2035 1.363 . S
C2040 C2039 1.415 . S
C2041 H2017 0.951 . S
C2041 C2042 1.366 . S
C2041 C2043 1.388 . S
C2042 C2041 1.366 . S
C2042 C2046 1.385 . S
C2043 H2018 0.951 . S
C2043 C2041 1.388 . S
C2043 C2044 1.366 . S
C2044 C2043 1.366 . S
C2044 C2045 1.414 . S
C2044 C2047 1.499 . S
C2045 H2019 0.950 . S
C2045 C2044 1.414 . S
C2045 C2046 1.374 . S
C2046 H2020 0.950 . S
C2046 C2042 1.385 . S
C2046 C2045 1.374 . S
C2047 C2044 1.499 . S
C2047 C2048 1.373 . S
C2047 C2049 1.389 . S
C2048 H2021 0.950 . S
C2048 C2034 1.377 . S
C2048 C2047 1.373 . S
C2049 C2033 1.377 . S
C2049 C2047 1.389 . S
C2049 C2050 1.524 . S
C2050 C2049 1.524 . S
C2050 C2051 1.397 . S
C2050 C2055 1.363 . S
C2051 H2022 0.950 . S
C2051 C2050 1.397 . S
C2051 C2052 1.334 . S
C2052 H2023 0.950 . S
C2052 C2051 1.334 . S
C2052 C2053 1.287 . S
C2053 C2052 1.287 . S
C2053 C2054 1.524 . S
C2053 H2056 0.999 . S
C2054 H2024 0.950 . S
C2054 C2053 1.524 . S
C2054 C2055 1.415 . S
C2055 H2025 0.950 . S
C2055 C2050 1.363 . S
C2055 C2054 1.415 . S
H2056 C2053 0.999 . S
H2057 C2038 0.913 . S
H2058 C2076 0.951 . S
H2059 C2078 0.951 . S
H2060 C2080 0.950 . S
H2061 C2081 0.950 . S
H2062 C2083 0.950 . S
H2063 C2086 0.950 . S
H2064 C2087 0.950 . S
H2065 C2089 0.950 . S
H2066 C2090 0.950 . S
H2067 C2091 0.951 . S
H2068 C2093 0.951 . S
H2069 C2095 0.950 . S
H2070 C2096 0.950 . S
H2071 C2098 0.950 . S
H2072 C2101 0.950 . S
H2073 C2102 0.950 . S
H2074 C2104 0.950 . S
H2075 C2105 0.950 . S
C2076 H2058 0.951 . S
C2076 C2077 1.366 . S
C2076 C2078 1.388 . S
C2077 C2076 1.366 . S
C2077 C2081 1.385 . S
C2078 H2059 0.951 . S
C2078 C2076 1.388 . S
C2078 C2079 1.366 . S
C2079 C2078 1.366 . S
C2079 C2080 1.414 . S
C2079 C2082 1.499 1_455 S
C2080 H2060 0.950 . S
C2080 C2079 1.414 . S
C2080 C2081 1.374 . S
C2081 H2061 0.950 . S
C2081 C2077 1.385 . S
C2081 C2080 1.374 . S
C2082 C2079 1.499 1_655 S
C2082 C2083 1.373 . S
C2082 C2084 1.389 . S
C2083 H2062 0.950 . S
C2083 C2082 1.373 . S
C2083 C2099 1.377 . S
C2084 C2082 1.389 . S
C2084 C2085 1.524 . S
C2084 C2098 1.377 . S
C2085 C2084 1.524 . S
C2085 C2086 1.397 1_655 S
C2085 C2090 1.363 . S
C2086 H2063 0.950 . S
C2086 C2085 1.397 1_455 S
C2086 C2087 1.334 . S
C2087 H2064 0.950 . S
C2087 C2086 1.334 . S
C2087 C2088 1.287 . S
C2088 C2087 1.287 . S
C2088 C2089 1.524 1_455 S
C2088 H2107 0.913 . S
C2089 H2065 0.950 . S
C2089 C2088 1.524 1_655 S
C2089 C2090 1.415 . S
C2090 H2066 0.950 . S
C2090 C2085 1.363 . S
C2090 C2089 1.415 . S
C2091 H2067 0.951 . S
C2091 C2092 1.366 . S
C2091 C2093 1.388 . S
C2092 C2091 1.366 . S
C2092 C2096 1.385 . S
C2093 H2068 0.951 . S
C2093 C2091 1.388 . S
C2093 C2094 1.366 . S
C2094 C2093 1.366 . S
C2094 C2095 1.414 . S
C2094 C2097 1.499 . S
C2095 H2069 0.950 . S
C2095 C2094 1.414 . S
C2095 C2096 1.374 . S
C2096 H2070 0.950 . S
C2096 C2092 1.385 . S
C2096 C2095 1.374 . S
C2097 C2094 1.499 . S
C2097 C2098 1.373 . S
C2097 C2099 1.389 . S
C2098 H2071 0.950 . S
C2098 C2084 1.377 . S
C2098 C2097 1.373 . S
C2099 C2083 1.377 . S
C2099 C2097 1.389 . S
C2099 C2100 1.524 . S
C2100 C2099 1.524 . S
C2100 C2101 1.397 . S
C2100 C2105 1.363 . S
C2101 H2072 0.950 . S
C2101 C2100 1.397 . S
C2101 C2102 1.334 . S
C2102 H2073 0.950 . S
C2102 C2101 1.334 . S
C2102 C2103 1.287 . S
C2103 C2102 1.287 . S
C2103 C2104 1.524 . S
C2103 H2106 0.999 . S
C2104 H2074 0.950 . S
C2104 C2103 1.524 . S
C2104 C2105 1.415 . S
C2105 H2075 0.950 . S
C2105 C2100 1.363 . S
C2105 C2104 1.415 . S
H2106 C2103 0.999 . S
H2107 C2088 0.913 . S
H2108 C2126 0.951 . S
H2109 C2128 0.951 . S
H2110 C2130 0.950 . S
H2111 C2131 0.950 . S
H2112 C2133 0.950 . S
H2113 C2136 0.950 . S
H2114 C2137 0.950 . S
H2115 C2139 0.950 . S
H2116 C2140 0.950 . S
H2117 C2141 0.951 . S
H2118 C2143 0.951 . S
H2119 C2145 0.950 . S
H2120 C2146 0.950 . S
H2121 C2148 0.950 . S
H2122 C2151 0.950 . S
H2123 C2152 0.950 . S
H2124 C2154 0.950 . S
H2125 C2155 0.950 . S
C2126 H2108 0.951 . S
C2126 C2127 1.366 . S
C2126 C2128 1.388 . S
C2127 C2126 1.366 . S
C2127 C2131 1.385 . S
C2128 H2109 0.951 . S
C2128 C2126 1.388 . S
C2128 C2129 1.366 . S
C2129 C2128 1.366 . S
C2129 C2130 1.414 . S
C2129 C2132 1.499 . S
C2130 H2110 0.950 . S
C2130 C2129 1.414 . S
C2130 C2131 1.374 . S
C2131 H2111 0.950 . S
C2131 C2127 1.385 . S
C2131 C2130 1.374 . S
C2132 C2129 1.499 . S
C2132 C2133 1.373 . S
C2132 C2134 1.389 . S
C2133 H2112 0.950 . S
C2133 C2132 1.373 . S
C2133 C2149 1.377 . S
C2134 C2132 1.389 . S
C2134 C2135 1.524 . S
C2134 C2148 1.377 . S
C2135 C2134 1.524 . S
C2135 C2136 1.397 . S
C2135 C2140 1.363 . S
C2136 H2113 0.950 . S
C2136 C2135 1.397 . S
C2136 C2137 1.334 . S
C2137 H2114 0.950 . S
C2137 C2136 1.334 . S
C2137 C2138 1.287 . S
C2138 C2137 1.287 . S
C2138 C2139 1.524 . S
C2138 H2157 0.913 . S
C2139 H2115 0.950 . S
C2139 C2138 1.524 . S
C2139 C2140 1.415 . S
C2140 H2116 0.950 . S
C2140 C2135 1.363 . S
C2140 C2139 1.415 . S
C2141 H2117 0.951 . S
C2141 C2142 1.366 . S
C2141 C2143 1.388 . S
C2142 C2141 1.366 . S
C2142 C2146 1.385 . S
C2143 H2118 0.951 . S
C2143 C2141 1.388 . S
C2143 C2144 1.366 . S
C2144 C2143 1.366 . S
C2144 C2145 1.414 . S
C2144 C2147 1.499 . S
C2145 H2119 0.950 . S
C2145 C2144 1.414 . S
C2145 C2146 1.374 . S
C2146 H2120 0.950 . S
C2146 C2142 1.385 . S
C2146 C2145 1.374 . S
C2147 C2144 1.499 . S
C2147 C2148 1.373 . S
C2147 C2149 1.389 . S
C2148 H2121 0.950 . S
C2148 C2134 1.377 . S
C2148 C2147 1.373 . S
C2149 C2133 1.377 . S
C2149 C2147 1.389 . S
C2149 C2150 1.524 . S
C2150 C2149 1.524 . S
C2150 C2151 1.397 . S
C2150 C2155 1.363 . S
C2151 H2122 0.950 . S
C2151 C2150 1.397 . S
C2151 C2152 1.334 . S
C2152 H2123 0.950 . S
C2152 C2151 1.334 . S
C2152 C2153 1.287 . S
C2153 C2152 1.287 . S
C2153 C2154 1.524 . S
C2153 H2156 0.999 . S
C2154 H2124 0.950 . S
C2154 C2153 1.524 . S
C2154 C2155 1.415 . S
C2155 H2125 0.950 . S
C2155 C2150 1.363 . S
C2155 C2154 1.415 . S
H2156 C2153 0.999 . S
H2157 C2138 0.913 . S
H2158 C2176 0.951 . S
H2159 C2178 0.951 . S
H2160 C2180 0.950 . S
H2161 C2181 0.950 . S
H2162 C2183 0.950 . S
H2163 C2186 0.950 . S
H2164 C2187 0.950 . S
H2165 C2189 0.950 . S
H2166 C2190 0.950 . S
H2167 C2191 0.951 . S
H2168 C2193 0.951 . S
H2169 C2195 0.950 . S
H2170 C2196 0.950 . S
H2171 C2198 0.950 . S
H2172 C2201 0.950 . S
H2173 C2202 0.950 . S
H2174 C2204 0.950 . S
H2175 C2205 0.950 . S
C2176 H2158 0.951 . S
C2176 C2177 1.366 . S
C2176 C2178 1.388 . S
C2177 C2176 1.366 . S
C2177 C2181 1.385 . S
C2178 H2159 0.951 . S
C2178 C2176 1.388 . S
C2178 C2179 1.366 . S
C2179 C2178 1.366 . S
C2179 C2180 1.414 . S
C2179 C2182 1.499 1_565 S
C2180 H2160 0.950 . S
C2180 C2179 1.414 . S
C2180 C2181 1.374 . S
C2181 H2161 0.950 . S
C2181 C2177 1.385 . S
C2181 C2180 1.374 . S
C2182 C2179 1.499 1_545 S
C2182 C2183 1.373 . S
C2182 C2184 1.389 . S
C2183 H2162 0.950 . S
C2183 C2182 1.373 . S
C2183 C2199 1.377 . S
C2184 C2182 1.389 . S
C2184 C2185 1.524 . S
C2184 C2198 1.377 . S
C2185 C2184 1.524 . S
C2185 C2186 1.397 . S
C2185 C2190 1.363 . S
C2186 H2163 0.950 . S
C2186 C2185 1.397 . S
C2186 C2187 1.334 1_545 S
C2187 H2164 0.950 . S
C2187 C2186 1.334 1_565 S
C2187 C2188 1.287 . S
C2188 C2187 1.287 . S
C2188 C2189 1.524 1_565 S
C2188 H2207 0.913 . S
C2189 H2165 0.950 . S
C2189 C2188 1.524 1_545 S
C2189 C2190 1.415 . S
C2190 H2166 0.950 . S
C2190 C2185 1.363 . S
C2190 C2189 1.415 . S
C2191 H2167 0.951 . S
C2191 C2192 1.366 . S
C2191 C2193 1.388 . S
C2192 C2191 1.366 . S
C2192 C2196 1.385 . S
C2193 H2168 0.951 . S
C2193 C2191 1.388 . S
C2193 C2194 1.366 . S
C2194 C2193 1.366 . S
C2194 C2195 1.414 . S
C2194 C2197 1.499 . S
C2195 H2169 0.950 . S
C2195 C2194 1.414 . S
C2195 C2196 1.374 . S
C2196 H2170 0.950 . S
C2196 C2192 1.385 . S
C2196 C2195 1.374 . S
C2197 C2194 1.499 . S
C2197 C2198 1.373 . S
C2197 C2199 1.389 . S
C2198 H2171 0.950 . S
C2198 C2184 1.377 . S
C2198 C2197 1.373 . S
C2199 C2183 1.377 . S
C2199 C2197 1.389 . S
C2199 C2200 1.524 . S
C2200 C2199 1.524 . S
C2200 C2201 1.397 . S
C2200 C2205 1.363 . S
C2201 H2172 0.950 . S
C2201 C2200 1.397 . S
C2201 C2202 1.334 . S
C2202 H2173 0.950 . S
C2202 C2201 1.334 . S
C2202 C2203 1.287 . S
C2203 C2202 1.287 . S
C2203 C2204 1.524 . S
C2203 H2206 0.999 . S
C2204 H2174 0.950 . S
C2204 C2203 1.524 . S
C2204 C2205 1.415 . S
C2205 H2175 0.950 . S
C2205 C2200 1.363 . S
C2205 C2204 1.415 . S
H2206 C2203 0.999 . S
H2207 C2188 0.913 . S
H2208 C2226 0.951 . S
H2209 C2228 0.951 . S
H2210 C2230 0.950 . S
H2211 C2231 0.950 . S
H2212 C2233 0.950 . S
H2213 C2236 0.950 . S
H2214 C2237 0.950 . S
H2215 C2239 0.950 . S
H2216 C2240 0.950 . S
H2217 C2241 0.951 . S
H2218 C2243 0.951 . S
H2219 C2245 0.950 . S
H2220 C2246 0.950 . S
H2221 C2248 0.950 . S
H2222 C2251 0.950 . S
H2223 C2252 0.950 . S
H2224 C2254 0.950 . S
H2225 C2255 0.950 . S
C2226 H2208 0.951 . S
C2226 C2227 1.366 . S
C2226 C2228 1.388 . S
C2227 C2226 1.366 . S
C2227 C2231 1.385 . S
C2228 H2209 0.951 . S
C2228 C2226 1.388 . S
C2228 C2229 1.366 . S
C2229 C2228 1.366 . S
C2229 C2230 1.414 . S
C2229 C2232 1.499 . S
C2230 H2210 0.950 . S
C2230 C2229 1.414 . S
C2230 C2231 1.374 . S
C2231 H2211 0.950 . S
C2231 C2227 1.385 . S
C2231 C2230 1.374 . S
C2232 C2229 1.499 . S
C2232 C2233 1.373 . S
C2232 C2234 1.389 . S
C2233 H2212 0.950 . S
C2233 C2232 1.373 . S
C2233 C2249 1.377 . S
C2234 C2232 1.389 . S
C2234 C2235 1.524 . S
C2234 C2248 1.377 . S
C2235 C2234 1.524 . S
C2235 C2236 1.397 . S
C2235 C2240 1.363 . S
C2236 H2213 0.950 . S
C2236 C2235 1.397 . S
C2236 C2237 1.334 . S
C2237 H2214 0.950 . S
C2237 C2236 1.334 . S
C2237 C2238 1.287 . S
C2238 C2237 1.287 . S
C2238 C2239 1.524 . S
C2238 H2257 0.913 . S
C2239 H2215 0.950 . S
C2239 C2238 1.524 . S
C2239 C2240 1.415 . S
C2240 H2216 0.950 . S
C2240 C2235 1.363 . S
C2240 C2239 1.415 . S
C2241 H2217 0.951 . S
C2241 C2242 1.366 . S
C2241 C2243 1.388 . S
C2242 C2241 1.366 . S
C2242 C2246 1.385 . S
C2243 H2218 0.951 . S
C2243 C2241 1.388 . S
C2243 C2244 1.366 . S
C2244 C2243 1.366 . S
C2244 C2245 1.414 . S
C2244 C2247 1.499 . S
C2245 H2219 0.950 . S
C2245 C2244 1.414 . S
C2245 C2246 1.374 . S
C2246 H2220 0.950 . S
C2246 C2242 1.385 . S
C2246 C2245 1.374 . S
C2247 C2244 1.499 . S
C2247 C2248 1.373 . S
C2247 C2249 1.389 . S
C2248 H2221 0.950 . S
C2248 C2234 1.377 . S
C2248 C2247 1.373 . S
C2249 C2233 1.377 . S
C2249 C2247 1.389 . S
C2249 C2250 1.524 . S
C2250 C2249 1.524 . S
C2250 C2251 1.397 . S
C2250 C2255 1.363 . S
C2251 H2222 0.950 . S
C2251 C2250 1.397 . S
C2251 C2252 1.334 . S
C2252 H2223 0.950 . S
C2252 C2251 1.334 . S
C2252 C2253 1.287 . S
C2253 C2252 1.287 . S
C2253 C2254 1.524 . S
C2253 H2256 0.999 . S
C2254 H2224 0.950 . S
C2254 C2253 1.524 . S
C2254 C2255 1.415 . S
C2255 H2225 0.950 . S
C2255 C2250 1.363 . S
C2255 C2254 1.415 . S
H2256 C2253 0.999 . S
H2257 C2238 0.913 . S
H2258 C2276 0.951 . S
H2259 C2278 0.951 . S
H2260 C2280 0.950 . S
H2261 C2281 0.950 . S
H2262 C2283 0.950 . S
H2263 C2286 0.950 . S
H2264 C2287 0.950 . S
H2265 C2289 0.950 . S
H2266 C2290 0.950 . S
H2267 C2291 0.951 . S
H2268 C2293 0.951 . S
H2269 C2295 0.950 . S
H2270 C2296 0.950 . S
H2271 C2298 0.950 . S
H2272 C2301 0.950 . S
H2273 C2302 0.950 . S
H2274 C2304 0.950 . S
H2275 C2305 0.950 . S
C2276 H2258 0.951 . S
C2276 C2277 1.366 . S
C2276 C2278 1.388 . S
C2277 C2276 1.366 . S
C2277 C2281 1.385 . S
C2278 H2259 0.951 . S
C2278 C2276 1.388 . S
C2278 C2279 1.366 . S
C2279 C2278 1.366 . S
C2279 C2280 1.414 . S
C2279 C2282 1.499 . S
C2280 H2260 0.950 . S
C2280 C2279 1.414 . S
C2280 C2281 1.374 . S
C2281 H2261 0.950 . S
C2281 C2277 1.385 . S
C2281 C2280 1.374 . S
C2282 C2279 1.499 . S
C2282 C2283 1.373 . S
C2282 C2284 1.389 . S
C2283 H2262 0.950 . S
C2283 C2282 1.373 . S
C2283 C2299 1.377 . S
C2284 C2282 1.389 . S
C2284 C2285 1.524 . S
C2284 C2298 1.377 . S
C2285 C2284 1.524 . S
C2285 C2286 1.397 . S
C2285 C2290 1.363 . S
C2286 H2263 0.950 . S
C2286 C2285 1.397 . S
C2286 C2287 1.334 . S
C2287 H2264 0.950 . S
C2287 C2286 1.334 . S
C2287 C2288 1.287 . S
C2288 C2287 1.287 . S
C2288 C2289 1.524 . S
C2288 H2307 0.913 . S
C2289 H2265 0.950 . S
C2289 C2288 1.524 . S
C2289 C2290 1.415 . S
C2290 H2266 0.950 . S
C2290 C2285 1.363 . S
C2290 C2289 1.415 . S
C2291 H2267 0.951 . S
C2291 C2292 1.366 . S
C2291 C2293 1.388 . S
C2292 C2291 1.366 . S
C2292 C2296 1.385 . S
C2293 H2268 0.951 . S
C2293 C2291 1.388 . S
C2293 C2294 1.366 . S
C2294 C2293 1.366 . S
C2294 C2295 1.414 . S
C2294 C2297 1.499 . S
C2295 H2269 0.950 . S
C2295 C2294 1.414 . S
C2295 C2296 1.374 . S
C2296 H2270 0.950 . S
C2296 C2292 1.385 . S
C2296 C2295 1.374 . S
C2297 C2294 1.499 . S
C2297 C2298 1.373 . S
C2297 C2299 1.389 . S
C2298 H2271 0.950 . S
C2298 C2284 1.377 . S
C2298 C2297 1.373 . S
C2299 C2283 1.377 . S
C2299 C2297 1.389 . S
C2299 C2300 1.524 . S
C2300 C2299 1.524 . S
C2300 C2301 1.397 . S
C2300 C2305 1.363 . S
C2301 H2272 0.950 . S
C2301 C2300 1.397 . S
C2301 C2302 1.334 . S
C2302 H2273 0.950 . S
C2302 C2301 1.334 . S
C2302 C2303 1.287 . S
C2303 C2302 1.287 . S
C2303 C2304 1.524 . S
C2303 H2306 0.999 . S
C2304 H2274 0.950 . S
C2304 C2303 1.524 . S
C2304 C2305 1.415 . S
C2305 H2275 0.950 . S
C2305 C2300 1.363 . S
C2305 C2304 1.415 . S
H2306 C2303 0.999 . S
H2307 C2288 0.913 . S
H2308 C2326 0.951 . S
H2309 C2328 0.951 . S
H2310 C2330 0.950 . S
H2311 C2331 0.950 . S
H2312 C2333 0.950 . S
H2313 C2336 0.950 . S
H2314 C2337 0.950 . S
H2315 C2339 0.950 . S
H2316 C2340 0.950 . S
H2317 C2341 0.951 . S
H2318 C2343 0.951 . S
H2319 C2345 0.950 . S
H2320 C2346 0.950 . S
H2321 C2348 0.950 . S
H2322 C2351 0.950 . S
H2323 C2352 0.950 . S
H2324 C2354 0.950 . S
H2325 C2355 0.950 . S
C2326 H2308 0.951 . S
C2326 C2327 1.366 . S
C2326 C2328 1.388 . S
C2327 C2326 1.366 . S
C2327 C2331 1.385 . S
C2328 H2309 0.951 . S
C2328 C2326 1.388 . S
C2328 C2329 1.366 . S
C2329 C2328 1.366 . S
C2329 C2330 1.414 . S
C2329 C2332 1.499 . S
C2330 H2310 0.950 . S
C2330 C2329 1.414 . S
C2330 C2331 1.374 . S
C2331 H2311 0.950 . S
C2331 C2327 1.385 . S
C2331 C2330 1.374 . S
C2332 C2329 1.499 . S
C2332 C2333 1.373 . S
C2332 C2334 1.389 . S
C2333 H2312 0.950 . S
C2333 C2332 1.373 . S
C2333 C2349 1.377 . S
C2334 C2332 1.389 . S
C2334 C2335 1.524 . S
C2334 C2348 1.377 . S
C2335 C2334 1.524 . S
C2335 C2336 1.397 . S
C2335 C2340 1.363 . S
C2336 H2313 0.950 . S
C2336 C2335 1.397 . S
C2336 C2337 1.334 . S
C2337 H2314 0.950 . S
C2337 C2336 1.334 . S
C2337 C2338 1.287 . S
C2338 C2337 1.287 . S
C2338 C2339 1.524 . S
C2338 H2357 0.913 . S
C2339 H2315 0.950 . S
C2339 C2338 1.524 . S
C2339 C2340 1.415 . S
C2340 H2316 0.950 . S
C2340 C2335 1.363 . S
C2340 C2339 1.415 . S
C2341 H2317 0.951 . S
C2341 C2342 1.366 . S
C2341 C2343 1.388 . S
C2342 C2341 1.366 . S
C2342 C2346 1.385 . S
C2343 H2318 0.951 . S
C2343 C2341 1.388 . S
C2343 C2344 1.366 . S
C2344 C2343 1.366 . S
C2344 C2345 1.414 . S
C2344 C2347 1.499 . S
C2345 H2319 0.950 . S
C2345 C2344 1.414 . S
C2345 C2346 1.374 . S
C2346 H2320 0.950 . S
C2346 C2342 1.385 . S
C2346 C2345 1.374 . S
C2347 C2344 1.499 . S
C2347 C2348 1.373 . S
C2347 C2349 1.389 . S
C2348 H2321 0.950 . S
C2348 C2334 1.377 . S
C2348 C2347 1.373 . S
C2349 C2333 1.377 . S
C2349 C2347 1.389 . S
C2349 C2350 1.524 . S
C2350 C2349 1.524 . S
C2350 C2351 1.397 . S
C2350 C2355 1.363 . S
C2351 H2322 0.950 . S
C2351 C2350 1.397 . S
C2351 C2352 1.334 . S
C2352 H2323 0.950 . S
C2352 C2351 1.334 . S
C2352 C2353 1.287 . S
C2353 C2352 1.287 . S
C2353 C2354 1.524 . S
C2353 H2356 0.999 . S
C2354 H2324 0.950 . S
C2354 C2353 1.524 . S
C2354 C2355 1.415 . S
C2355 H2325 0.950 . S
C2355 C2350 1.363 . S
C2355 C2354 1.415 . S
H2356 C2353 0.999 . S
H2357 C2338 0.913 . S
H2358 C2376 0.951 . S
H2359 C2378 0.951 . S
H2360 C2380 0.950 . S
H2361 C2381 0.950 . S
H2362 C2383 0.950 . S
H2363 C2386 0.950 . S
H2364 C2387 0.950 . S
H2365 C2389 0.950 . S
H2366 C2390 0.950 . S
H2367 C2391 0.951 . S
H2368 C2393 0.951 . S
H2369 C2395 0.950 . S
H2370 C2396 0.950 . S
H2371 C2398 0.950 . S
H2372 C2401 0.950 . S
H2373 C2402 0.950 . S
H2374 C2404 0.950 . S
H2375 C2405 0.950 . S
C2376 H2358 0.951 . S
C2376 C2377 1.366 . S
C2376 C2378 1.388 . S
C2377 C2376 1.366 . S
C2377 C2381 1.385 . S
C2378 H2359 0.951 . S
C2378 C2376 1.388 . S
C2378 C2379 1.366 . S
C2379 C2378 1.366 . S
C2379 C2380 1.414 . S
C2379 C2382 1.499 . S
C2380 H2360 0.950 . S
C2380 C2379 1.414 . S
C2380 C2381 1.374 . S
C2381 H2361 0.950 . S
C2381 C2377 1.385 . S
C2381 C2380 1.374 . S
C2382 C2379 1.499 . S
C2382 C2383 1.373 . S
C2382 C2384 1.389 . S
C2383 H2362 0.950 . S
C2383 C2382 1.373 . S
C2383 C2399 1.377 . S
C2384 C2382 1.389 . S
C2384 C2385 1.524 . S
C2384 C2398 1.377 . S
C2385 C2384 1.524 . S
C2385 C2386 1.397 . S
C2385 C2390 1.363 . S
C2386 H2363 0.950 . S
C2386 C2385 1.397 . S
C2386 C2387 1.334 1_565 S
C2387 H2364 0.950 . S
C2387 C2386 1.334 1_545 S
C2387 C2388 1.287 . S
C2388 C2387 1.287 . S
C2388 C2389 1.524 . S
C2388 H2407 0.913 . S
C2389 H2365 0.950 . S
C2389 C2388 1.524 . S
C2389 C2390 1.415 1_545 S
C2390 H2366 0.950 . S
C2390 C2385 1.363 . S
C2390 C2389 1.415 1_565 S
C2391 H2367 0.951 . S
C2391 C2392 1.366 . S
C2391 C2393 1.388 . S
C2392 C2391 1.366 . S
C2392 C2396 1.385 . S
C2393 H2368 0.951 . S
C2393 C2391 1.388 . S
C2393 C2394 1.366 . S
C2394 C2393 1.366 . S
C2394 C2395 1.414 . S
C2394 C2397 1.499 . S
C2395 H2369 0.950 . S
C2395 C2394 1.414 . S
C2395 C2396 1.374 . S
C2396 H2370 0.950 . S
C2396 C2392 1.385 . S
C2396 C2395 1.374 . S
C2397 C2394 1.499 . S
C2397 C2398 1.373 . S
C2397 C2399 1.389 . S
C2398 H2371 0.950 . S
C2398 C2384 1.377 . S
C2398 C2397 1.373 . S
C2399 C2383 1.377 . S
C2399 C2397 1.389 . S
C2399 C2400 1.524 . S
C2400 C2399 1.524 . S
C2400 C2401 1.397 . S
C2400 C2405 1.363 . S
C2401 H2372 0.950 . S
C2401 C2400 1.397 . S
C2401 C2402 1.334 . S
C2402 H2373 0.950 . S
C2402 C2401 1.334 . S
C2402 C2403 1.287 . S
C2403 C2402 1.287 . S
C2403 C2404 1.524 . S
C2403 H2406 0.999 . S
C2404 H2374 0.950 . S
C2404 C2403 1.524 . S
C2404 C2405 1.415 . S
C2405 H2375 0.950 . S
C2405 C2400 1.363 . S
C2405 C2404 1.415 . S
H2406 C2403 0.999 . S
H2407 C2388 0.913 . S
H2408 C2426 0.951 . S
H2409 C2428 0.951 . S
H2410 C2430 0.950 . S
H2411 C2431 0.950 . S
H2412 C2433 0.950 . S
H2413 C2436 0.950 . S
H2414 C2437 0.950 . S
H2415 C2439 0.950 . S
H2416 C2440 0.950 . S
H2417 C2441 0.951 . S
H2418 C2443 0.951 . S
H2419 C2445 0.950 . S
H2420 C2446 0.950 . S
H2421 C2448 0.950 . S
H2422 C2451 0.950 . S
H2423 C2452 0.950 . S
H2424 C2454 0.950 . S
H2425 C2455 0.950 . S
C2426 H2408 0.951 . S
C2426 C2427 1.366 . S
C2426 C2428 1.388 . S
C2427 C2426 1.366 . S
C2427 C2431 1.385 . S
C2428 H2409 0.951 . S
C2428 C2426 1.388 . S
C2428 C2429 1.366 . S
C2429 C2428 1.366 . S
C2429 C2430 1.414 . S
C2429 C2432 1.499 . S
C2430 H2410 0.950 . S
C2430 C2429 1.414 . S
C2430 C2431 1.374 . S
C2431 H2411 0.950 . S
C2431 C2427 1.385 . S
C2431 C2430 1.374 . S
C2432 C2429 1.499 . S
C2432 C2433 1.373 . S
C2432 C2434 1.389 . S
C2433 H2412 0.950 . S
C2433 C2432 1.373 . S
C2433 C2449 1.377 . S
C2434 C2432 1.389 . S
C2434 C2435 1.524 . S
C2434 C2448 1.377 . S
C2435 C2434 1.524 . S
C2435 C2436 1.397 . S
C2435 C2440 1.363 1_455 S
C2436 H2413 0.950 . S
C2436 C2435 1.397 . S
C2436 C2437 1.334 . S
C2437 H2414 0.950 . S
C2437 C2436 1.334 . S
C2437 C2438 1.287 1_455 S
C2438 C2437 1.287 1_655 S
C2438 C2439 1.524 . S
C2438 H2457 0.913 . S
C2439 H2415 0.950 . S
C2439 C2438 1.524 . S
C2439 C2440 1.415 . S
C2440 H2416 0.950 . S
C2440 C2435 1.363 1_655 S
C2440 C2439 1.415 . S
C2441 H2417 0.951 . S
C2441 C2442 1.366 . S
C2441 C2443 1.388 . S
C2442 C2441 1.366 . S
C2442 C2446 1.385 . S
C2443 H2418 0.951 . S
C2443 C2441 1.388 . S
C2443 C2444 1.366 . S
C2444 C2443 1.366 . S
C2444 C2445 1.414 . S
C2444 C2447 1.499 . S
C2445 H2419 0.950 . S
C2445 C2444 1.414 . S
C2445 C2446 1.374 . S
C2446 H2420 0.950 . S
C2446 C2442 1.385 . S
C2446 C2445 1.374 . S
C2447 C2444 1.499 . S
C2447 C2448 1.373 . S
C2447 C2449 1.389 . S
C2448 H2421 0.950 . S
C2448 C2434 1.377 . S
C2448 C2447 1.373 . S
C2449 C2433 1.377 . S
C2449 C2447 1.389 . S
C2449 C2450 1.524 . S
C2450 C2449 1.524 . S
C2450 C2451 1.397 . S
C2450 C2455 1.363 . S
C2451 H2422 0.950 . S
C2451 C2450 1.397 . S
C2451 C2452 1.334 . S
C2452 H2423 0.950 . S
C2452 C2451 1.334 . S
C2452 C2453 1.287 . S
C2453 C2452 1.287 . S
C2453 C2454 1.524 . S
C2453 H2456 0.999 . S
C2454 H2424 0.950 . S
C2454 C2453 1.524 . S
C2454 C2455 1.415 . S
C2455 H2425 0.950 . S
C2455 C2450 1.363 . S
C2455 C2454 1.415 . S
H2456 C2453 0.999 . S
H2457 C2438 0.913 . S
H2458 C2476 0.951 . S
H2459 C2478 0.951 . S
H2460 C2480 0.950 . S
H2461 C2481 0.950 . S
H2462 C2483 0.950 . S
H2463 C2486 0.950 . S
H2464 C2487 0.950 . S
H2465 C2489 0.950 . S
H2466 C2490 0.950 . S
H2467 C2491 0.951 . S
H2468 C2493 0.951 . S
H2469 C2495 0.950 . S
H2470 C2496 0.950 . S
H2471 C2498 0.950 . S
H2472 C2501 0.950 . S
H2473 C2502 0.950 . S
H2474 C2504 0.950 . S
H2475 C2505 0.950 . S
C2476 H2458 0.951 . S
C2476 C2477 1.366 . S
C2476 C2478 1.388 . S
C2477 C2476 1.366 . S
C2477 C2481 1.385 . S
C2478 H2459 0.951 . S
C2478 C2476 1.388 . S
C2478 C2479 1.366 . S
C2479 C2478 1.366 . S
C2479 C2480 1.414 . S
C2479 C2482 1.499 . S
C2480 H2460 0.950 . S
C2480 C2479 1.414 . S
C2480 C2481 1.374 . S
C2481 H2461 0.950 . S
C2481 C2477 1.385 . S
C2481 C2480 1.374 . S
C2482 C2479 1.499 . S
C2482 C2483 1.373 . S
C2482 C2484 1.389 . S
C2483 H2462 0.950 . S
C2483 C2482 1.373 . S
C2483 C2499 1.377 . S
C2484 C2482 1.389 . S
C2484 C2485 1.524 . S
C2484 C2498 1.377 . S
C2485 C2484 1.524 . S
C2485 C2486 1.397 . S
C2485 C2490 1.363 . S
C2486 H2463 0.950 . S
C2486 C2485 1.397 . S
C2486 C2487 1.334 . S
C2487 H2464 0.950 . S
C2487 C2486 1.334 . S
C2487 C2488 1.287 . S
C2488 C2487 1.287 . S
C2488 C2489 1.524 . S
C2488 H2507 0.913 . S
C2489 H2465 0.950 . S
C2489 C2488 1.524 . S
C2489 C2490 1.415 . S
C2490 H2466 0.950 . S
C2490 C2485 1.363 . S
C2490 C2489 1.415 . S
C2491 H2467 0.951 . S
C2491 C2492 1.366 . S
C2491 C2493 1.388 . S
C2492 C2491 1.366 . S
C2492 C2496 1.385 . S
C2493 H2468 0.951 . S
C2493 C2491 1.388 . S
C2493 C2494 1.366 . S
C2494 C2493 1.366 . S
C2494 C2495 1.414 . S
C2494 C2497 1.499 . S
C2495 H2469 0.950 . S
C2495 C2494 1.414 . S
C2495 C2496 1.374 . S
C2496 H2470 0.950 . S
C2496 C2492 1.385 . S
C2496 C2495 1.374 . S
C2497 C2494 1.499 . S
C2497 C2498 1.373 . S
C2497 C2499 1.389 . S
C2498 H2471 0.950 . S
C2498 C2484 1.377 . S
C2498 C2497 1.373 . S
C2499 C2483 1.377 . S
C2499 C2497 1.389 . S
C2499 C2500 1.524 . S
C2500 C2499 1.524 . S
C2500 C2501 1.397 . S
C2500 C2505 1.363 . S
C2501 H2472 0.950 . S
C2501 C2500 1.397 . S
C2501 C2502 1.334 . S
C2502 H2473 0.950 . S
C2502 C2501 1.334 . S
C2502 C2503 1.287 . S
C2503 C2502 1.287 . S
C2503 C2504 1.524 . S
C2503 H2506 0.999 . S
C2504 H2474 0.950 . S
C2504 C2503 1.524 . S
C2504 C2505 1.415 . S
C2505 H2475 0.950 . S
C2505 C2500 1.363 . S
C2505 C2504 1.415 . S
H2506 C2503 0.999 . S
H2507 C2488 0.913 . S
H2508 C2526 0.951 . S
H2509 C2528 0.951 . S
H2510 C2530 0.950 . S
H2511 C2531 0.950 . S
H2512 C2533 0.950 . S
H2513 C2536 0.950 . S
H2514 C2537 0.950 1_455 S
H2515 C2539 0.950 . S
H2516 C2540 0.950 . S
H2517 C2541 0.951 . S
H2518 C2543 0.951 . S
H2519 C2545 0.950 . S
H2520 C2546 0.950 . S
H2521 C2548 0.950 . S
H2522 C2551 0.950 . S
H2523 C2552 0.950 . S
H2524 C2554 0.950 . S
H2525 C2555 0.950 . S
C2526 H2508 0.951 . S
C2526 C2527 1.366 . S
C2526 C2528 1.388 . S
C2527 C2526 1.366 . S
C2527 C2531 1.385 . S
C2528 H2509 0.951 . S
C2528 C2526 1.388 . S
C2528 C2529 1.366 . S
C2529 C2528 1.366 . S
C2529 C2530 1.414 . S
C2529 C2532 1.499 . S
C2530 H2510 0.950 . S
C2530 C2529 1.414 . S
C2530 C2531 1.374 . S
C2531 H2511 0.950 . S
C2531 C2527 1.385 . S
C2531 C2530 1.374 . S
C2532 C2529 1.499 . S
C2532 C2533 1.373 . S
C2532 C2534 1.389 . S
C2533 H2512 0.950 . S
C2533 C2532 1.373 . S
C2533 C2549 1.377 . S
C2534 C2532 1.389 . S
C2534 C2535 1.524 . S
C2534 C2548 1.377 . S
C2535 C2534 1.524 . S
C2535 C2536 1.397 . S
C2535 C2540 1.363 . S
C2536 H2513 0.950 . S
C2536 C2535 1.397 . S
C2536 C2537 1.334 . S
C2537 H2514 0.950 1_655 S
C2537 C2536 1.334 . S
C2537 C2538 1.287 . S
C2538 C2537 1.287 . S
C2538 C2539 1.524 . S
C2538 H2557 0.913 . S
C2539 H2515 0.950 . S
C2539 C2538 1.524 . S
C2539 C2540 1.415 . S
C2540 H2516 0.950 . S
C2540 C2535 1.363 . S
C2540 C2539 1.415 . S
C2541 H2517 0.951 . S
C2541 C2542 1.366 . S
C2541 C2543 1.388 . S
C2542 C2541 1.366 . S
C2542 C2546 1.385 . S
C2543 H2518 0.951 . S
C2543 C2541 1.388 . S
C2543 C2544 1.366 . S
C2544 C2543 1.366 . S
C2544 C2545 1.414 . S
C2544 C2547 1.499 . S
C2545 H2519 0.950 . S
C2545 C2544 1.414 . S
C2545 C2546 1.374 . S
C2546 H2520 0.950 . S
C2546 C2542 1.385 . S
C2546 C2545 1.374 . S
C2547 C2544 1.499 . S
C2547 C2548 1.373 . S
C2547 C2549 1.389 . S
C2548 H2521 0.950 . S
C2548 C2534 1.377 . S
C2548 C2547 1.373 . S
C2549 C2533 1.377 . S
C2549 C2547 1.389 . S
C2549 C2550 1.524 . S
C2550 C2549 1.524 . S
C2550 C2551 1.397 . S
C2550 C2555 1.363 . S
C2551 H2522 0.950 . S
C2551 C2550 1.397 . S
C2551 C2552 1.334 . S
C2552 H2523 0.950 . S
C2552 C2551 1.334 . S
C2552 C2553 1.287 . S
C2553 C2552 1.287 . S
C2553 C2554 1.524 . S
C2553 H2556 0.999 . S
C2554 H2524 0.950 . S
C2554 C2553 1.524 . S
C2554 C2555 1.415 . S
C2555 H2525 0.950 . S
C2555 C2550 1.363 . S
C2555 C2554 1.415 . S
H2556 C2553 0.999 . S
H2557 C2538 0.913 . S
H2558 C2576 0.951 . S
H2559 C2578 0.951 . S
H2560 C2580 0.950 . S
H2561 C2581 0.950 . S
H2562 C2583 0.950 . S
H2563 C2586 0.950 . S
H2564 C2587 0.950 . S
H2565 C2589 0.950 . S
H2566 C2590 0.950 . S
H2567 C2591 0.951 . S
H2568 C2593 0.951 . S
H2569 C2595 0.950 . S
H2570 C2596 0.950 . S
H2571 C2598 0.950 . S
H2572 C2601 0.950 . S
H2573 C2602 0.950 . S
H2574 C2604 0.950 . S
H2575 C2605 0.950 . S
C2576 H2558 0.951 . S
C2576 C2577 1.366 . S
C2576 C2578 1.388 . S
C2577 C2576 1.366 . S
C2577 C2581 1.385 . S
C2578 H2559 0.951 . S
C2578 C2576 1.388 . S
C2578 C2579 1.366 . S
C2579 C2578 1.366 . S
C2579 C2580 1.414 . S
C2579 C2582 1.499 . S
C2580 H2560 0.950 . S
C2580 C2579 1.414 . S
C2580 C2581 1.374 . S
C2581 H2561 0.950 . S
C2581 C2577 1.385 . S
C2581 C2580 1.374 . S
C2582 C2579 1.499 . S
C2582 C2583 1.373 . S
C2582 C2584 1.389 . S
C2583 H2562 0.950 . S
C2583 C2582 1.373 . S
C2583 C2599 1.377 . S
C2584 C2582 1.389 . S
C2584 C2585 1.524 . S
C2584 C2598 1.377 . S
C2585 C2584 1.524 . S
C2585 C2586 1.397 . S
C2585 C2590 1.363 . S
C2586 H2563 0.950 . S
C2586 C2585 1.397 . S
C2586 C2587 1.334 . S
C2587 H2564 0.950 . S
C2587 C2586 1.334 . S
C2587 C2588 1.287 . S
C2588 C2587 1.287 . S
C2588 C2589 1.524 . S
C2588 H2607 0.913 . S
C2589 H2565 0.950 . S
C2589 C2588 1.524 . S
C2589 C2590 1.415 . S
C2590 H2566 0.950 . S
C2590 C2585 1.363 . S
C2590 C2589 1.415 . S
C2591 H2567 0.951 . S
C2591 C2592 1.366 . S
C2591 C2593 1.388 . S
C2592 C2591 1.366 . S
C2592 C2596 1.385 . S
C2593 H2568 0.951 . S
C2593 C2591 1.388 . S
C2593 C2594 1.366 . S
C2594 C2593 1.366 . S
C2594 C2595 1.414 . S
C2594 C2597 1.499 . S
C2595 H2569 0.950 . S
C2595 C2594 1.414 . S
C2595 C2596 1.374 . S
C2596 H2570 0.950 . S
C2596 C2592 1.385 . S
C2596 C2595 1.374 . S
C2597 C2594 1.499 . S
C2597 C2598 1.373 . S
C2597 C2599 1.389 . S
C2598 H2571 0.950 . S
C2598 C2584 1.377 . S
C2598 C2597 1.373 . S
C2599 C2583 1.377 . S
C2599 C2597 1.389 . S
C2599 C2600 1.524 . S
C2600 C2599 1.524 . S
C2600 C2601 1.397 . S
C2600 C2605 1.363 . S
C2601 H2572 0.950 . S
C2601 C2600 1.397 . S
C2601 C2602 1.334 . S
C2602 H2573 0.950 . S
C2602 C2601 1.334 . S
C2602 C2603 1.287 . S
C2603 C2602 1.287 . S
C2603 C2604 1.524 . S
C2603 H2606 0.999 . S
C2604 H2574 0.950 . S
C2604 C2603 1.524 . S
C2604 C2605 1.415 . S
C2605 H2575 0.950 . S
C2605 C2600 1.363 . S
C2605 C2604 1.415 . S
H2606 C2603 0.999 . S
H2607 C2588 0.913 . S
H2608 C2626 0.951 . S
H2609 C2628 0.951 . S
H2610 C2630 0.950 . S
H2611 C2631 0.950 . S
H2612 C2633 0.950 . S
H2613 C2636 0.950 . S
H2614 C2637 0.950 . S
H2615 C2639 0.950 . S
H2616 C2640 0.950 . S
H2617 C2641 0.951 . S
H2618 C2643 0.951 . S
H2619 C2645 0.950 . S
H2620 C2646 0.950 . S
H2621 C2648 0.950 . S
H2622 C2651 0.950 . S
H2623 C2652 0.950 . S
H2624 C2654 0.950 . S
H2625 C2655 0.950 . S
C2626 H2608 0.951 . S
C2626 C2627 1.366 . S
C2626 C2628 1.388 . S
C2627 C2626 1.366 . S
C2627 C2631 1.385 . S
C2628 H2609 0.951 . S
C2628 C2626 1.388 . S
C2628 C2629 1.366 . S
C2629 C2628 1.366 . S
C2629 C2630 1.414 . S
C2629 C2632 1.499 . S
C2630 H2610 0.950 . S
C2630 C2629 1.414 . S
C2630 C2631 1.374 . S
C2631 H2611 0.950 . S
C2631 C2627 1.385 . S
C2631 C2630 1.374 . S
C2632 C2629 1.499 . S
C2632 C2633 1.373 . S
C2632 C2634 1.389 . S
C2633 H2612 0.950 . S
C2633 C2632 1.373 . S
C2633 C2649 1.377 . S
C2634 C2632 1.389 . S
C2634 C2635 1.524 . S
C2634 C2648 1.377 . S
C2635 C2634 1.524 . S
C2635 C2636 1.397 . S
C2635 C2640 1.363 . S
C2636 H2613 0.950 . S
C2636 C2635 1.397 . S
C2636 C2637 1.334 . S
C2637 H2614 0.950 . S
C2637 C2636 1.334 . S
C2637 C2638 1.287 . S
C2638 C2637 1.287 . S
C2638 C2639 1.524 . S
C2638 H2657 0.913 . S
C2639 H2615 0.950 . S
C2639 C2638 1.524 . S
C2639 C2640 1.415 . S
C2640 H2616 0.950 . S
C2640 C2635 1.363 . S
C2640 C2639 1.415 . S
C2641 H2617 0.951 . S
C2641 C2642 1.366 . S
C2641 C2643 1.388 . S
C2642 C2641 1.366 . S
C2642 C2646 1.385 . S
C2643 H2618 0.951 . S
C2643 C2641 1.388 . S
C2643 C2644 1.366 . S
C2644 C2643 1.366 . S
C2644 C2645 1.414 . S
C2644 C2647 1.499 . S
C2645 H2619 0.950 . S
C2645 C2644 1.414 . S
C2645 C2646 1.374 . S
C2646 H2620 0.950 . S
C2646 C2642 1.385 . S
C2646 C2645 1.374 . S
C2647 C2644 1.499 . S
C2647 C2648 1.373 . S
C2647 C2649 1.389 . S
C2648 H2621 0.950 . S
C2648 C2634 1.377 . S
C2648 C2647 1.373 . S
C2649 C2633 1.377 . S
C2649 C2647 1.389 . S
C2649 C2650 1.524 . S
C2650 C2649 1.524 . S
C2650 C2651 1.397 . S
C2650 C2655 1.363 . S
C2651 H2622 0.950 . S
C2651 C2650 1.397 . S
C2651 C2652 1.334 . S
C2652 H2623 0.950 . S
C2652 C2651 1.334 . S
C2652 C2653 1.287 . S
C2653 C2652 1.287 . S
C2653 C2654 1.524 . S
C2653 H2656 0.999 . S
C2654 H2624 0.950 . S
C2654 C2653 1.524 . S
C2654 C2655 1.415 . S
C2655 H2625 0.950 . S
C2655 C2650 1.363 . S
C2655 C2654 1.415 . S
H2656 C2653 0.999 . S
H2657 C2638 0.913 . S
H2658 C2676 0.951 . S
H2659 C2678 0.951 . S
H2660 C2680 0.950 . S
H2661 C2681 0.950 . S
H2662 C2683 0.950 . S
H2663 C2686 0.950 . S
H2664 C2687 0.950 . S
H2665 C2689 0.950 . S
H2666 C2690 0.950 . S
H2667 C2691 0.951 . S
H2668 C2693 0.951 . S
H2669 C2695 0.950 . S
H2670 C2696 0.950 . S
H2671 C2698 0.950 . S
H2672 C2701 0.950 . S
H2673 C2702 0.950 . S
H2674 C2704 0.950 . S
H2675 C2705 0.950 . S
C2676 H2658 0.951 . S
C2676 C2677 1.366 . S
C2676 C2678 1.388 . S
C2677 C2676 1.366 . S
C2677 C2681 1.385 . S
C2678 H2659 0.951 . S
C2678 C2676 1.388 . S
C2678 C2679 1.366 . S
C2679 C2678 1.366 . S
C2679 C2680 1.414 . S
C2679 C2682 1.499 . S
C2680 H2660 0.950 . S
C2680 C2679 1.414 . S
C2680 C2681 1.374 . S
C2681 H2661 0.950 . S
C2681 C2677 1.385 . S
C2681 C2680 1.374 . S
C2682 C2679 1.499 . S
C2682 C2683 1.373 . S
C2682 C2684 1.389 . S
C2683 H2662 0.950 . S
C2683 C2682 1.373 . S
C2683 C2699 1.377 . S
C2684 C2682 1.389 . S
C2684 C2685 1.524 . S
C2684 C2698 1.377 . S
C2685 C2684 1.524 . S
C2685 C2686 1.397 . S
C2685 C2690 1.363 . S
C2686 H2663 0.950 . S
C2686 C2685 1.397 . S
C2686 C2687 1.334 . S
C2687 H2664 0.950 . S
C2687 C2686 1.334 . S
C2687 C2688 1.287 . S
C2688 C2687 1.287 . S
C2688 C2689 1.524 . S
C2688 H2707 0.913 . S
C2689 H2665 0.950 . S
C2689 C2688 1.524 . S
C2689 C2690 1.415 . S
C2690 H2666 0.950 . S
C2690 C2685 1.363 . S
C2690 C2689 1.415 . S
C2691 H2667 0.951 . S
C2691 C2692 1.366 . S
C2691 C2693 1.388 . S
C2692 C2691 1.366 . S
C2692 C2696 1.385 . S
C2693 H2668 0.951 . S
C2693 C2691 1.388 . S
C2693 C2694 1.366 . S
C2694 C2693 1.366 . S
C2694 C2695 1.414 . S
C2694 C2697 1.499 . S
C2695 H2669 0.950 . S
C2695 C2694 1.414 . S
C2695 C2696 1.374 . S
C2696 H2670 0.950 . S
C2696 C2692 1.385 . S
C2696 C2695 1.374 . S
C2697 C2694 1.499 . S
C2697 C2698 1.373 . S
C2697 C2699 1.389 . S
C2698 H2671 0.950 . S
C2698 C2684 1.377 . S
C2698 C2697 1.373 . S
C2699 C2683 1.377 . S
C2699 C2697 1.389 . S
C2699 C2700 1.524 . S
C2700 C2699 1.524 . S
C2700 C2701 1.397 . S
C2700 C2705 1.363 . S
C2701 H2672 0.950 . S
C2701 C2700 1.397 . S
C2701 C2702 1.334 . S
C2702 H2673 0.950 . S
C2702 C2701 1.334 . S
C2702 C2703 1.287 . S
C2703 C2702 1.287 . S
C2703 C2704 1.524 . S
C2703 H2706 0.999 . S
C2704 H2674 0.950 . S
C2704 C2703 1.524 . S
C2704 C2705 1.415 . S
C2705 H2675 0.950 . S
C2705 C2700 1.363 . S
C2705 C2704 1.415 . S
H2706 C2703 0.999 . S
H2707 C2688 0.913 . S
H2708 C2726 0.951 . S
H2709 C2728 0.951 . S
H2710 C2730 0.950 . S
H2711 C2731 0.950 . S
H2712 C2733 0.950 . S
H2713 C2736 0.950 . S
H2714 C2737 0.950 . S
H2715 C2739 0.950 . S
H2716 C2740 0.950 . S
H2717 C2741 0.951 . S
H2718 C2743 0.951 . S
H2719 C2745 0.950 . S
H2720 C2746 0.950 . S
H2721 C2748 0.950 . S
H2722 C2751 0.950 . S
H2723 C2752 0.950 . S
H2724 C2754 0.950 . S
H2725 C2755 0.950 . S
C2726 H2708 0.951 . S
C2726 C2727 1.366 . S
C2726 C2728 1.388 . S
C2727 C2726 1.366 . S
C2727 C2731 1.385 . S
C2728 H2709 0.951 . S
C2728 C2726 1.388 . S
C2728 C2729 1.366 . S
C2729 C2728 1.366 . S
C2729 C2730 1.414 . S
C2729 C2732 1.499 . S
C2730 H2710 0.950 . S
C2730 C2729 1.414 . S
C2730 C2731 1.374 . S
C2731 H2711 0.950 . S
C2731 C2727 1.385 . S
C2731 C2730 1.374 . S
C2732 C2729 1.499 . S
C2732 C2733 1.373 . S
C2732 C2734 1.389 . S
C2733 H2712 0.950 . S
C2733 C2732 1.373 . S
C2733 C2749 1.377 . S
C2734 C2732 1.389 . S
C2734 C2735 1.524 . S
C2734 C2748 1.377 . S
C2735 C2734 1.524 . S
C2735 C2736 1.397 . S
C2735 C2740 1.363 . S
C2736 H2713 0.950 . S
C2736 C2735 1.397 . S
C2736 C2737 1.334 . S
C2737 H2714 0.950 . S
C2737 C2736 1.334 . S
C2737 C2738 1.287 . S
C2738 C2737 1.287 . S
C2738 C2739 1.524 . S
C2738 H2757 0.913 . S
C2739 H2715 0.950 . S
C2739 C2738 1.524 . S
C2739 C2740 1.415 . S
C2740 H2716 0.950 . S
C2740 C2735 1.363 . S
C2740 C2739 1.415 . S
C2741 H2717 0.951 . S
C2741 C2742 1.366 . S
C2741 C2743 1.388 . S
C2742 C2741 1.366 . S
C2742 C2746 1.385 . S
C2743 H2718 0.951 . S
C2743 C2741 1.388 . S
C2743 C2744 1.366 . S
C2744 C2743 1.366 . S
C2744 C2745 1.414 . S
C2744 C2747 1.499 . S
C2745 H2719 0.950 . S
C2745 C2744 1.414 . S
C2745 C2746 1.374 . S
C2746 H2720 0.950 . S
C2746 C2742 1.385 . S
C2746 C2745 1.374 . S
C2747 C2744 1.499 . S
C2747 C2748 1.373 . S
C2747 C2749 1.389 . S
C2748 H2721 0.950 . S
C2748 C2734 1.377 . S
C2748 C2747 1.373 . S
C2749 C2733 1.377 . S
C2749 C2747 1.389 . S
C2749 C2750 1.524 . S
C2750 C2749 1.524 . S
C2750 C2751 1.397 . S
C2750 C2755 1.363 . S
C2751 H2722 0.950 . S
C2751 C2750 1.397 . S
C2751 C2752 1.334 . S
C2752 H2723 0.950 . S
C2752 C2751 1.334 . S
C2752 C2753 1.287 . S
C2753 C2752 1.287 . S
C2753 C2754 1.524 . S
C2753 H2756 0.999 . S
C2754 H2724 0.950 . S
C2754 C2753 1.524 . S
C2754 C2755 1.415 . S
C2755 H2725 0.950 . S
C2755 C2750 1.363 . S
C2755 C2754 1.415 . S
H2756 C2753 0.999 . S
H2757 C2738 0.913 . S
H2758 C2776 0.951 . S
H2759 C2778 0.951 . S
H2760 C2780 0.950 . S
H2761 C2781 0.950 . S
H2762 C2783 0.950 . S
H2763 C2786 0.950 . S
H2764 C2787 0.950 . S
H2765 C2789 0.950 . S
H2766 C2790 0.950 . S
H2767 C2791 0.951 . S
H2768 C2793 0.951 . S
H2769 C2795 0.950 . S
H2770 C2796 0.950 . S
H2771 C2798 0.950 . S
H2772 C2801 0.950 . S
H2773 C2802 0.950 . S
H2774 C2804 0.950 . S
H2775 C2805 0.950 . S
C2776 H2758 0.951 . S
C2776 C2777 1.366 . S
C2776 C2778 1.388 . S
C2777 C2776 1.366 . S
C2777 C2781 1.385 . S
C2778 H2759 0.951 . S
C2778 C2776 1.388 . S
C2778 C2779 1.366 . S
C2779 C2778 1.366 . S
C2779 C2780 1.414 . S
C2779 C2782 1.499 . S
C2780 H2760 0.950 . S
C2780 C2779 1.414 . S
C2780 C2781 1.374 . S
C2781 H2761 0.950 . S
C2781 C2777 1.385 . S
C2781 C2780 1.374 . S
C2782 C2779 1.499 . S
C2782 C2783 1.373 . S
C2782 C2784 1.389 . S
C2783 H2762 0.950 . S
C2783 C2782 1.373 . S
C2783 C2799 1.377 . S
C2784 C2782 1.389 . S
C2784 C2785 1.524 . S
C2784 C2798 1.377 . S
C2785 C2784 1.524 . S
C2785 C2786 1.397 . S
C2785 C2790 1.363 . S
C2786 H2763 0.950 . S
C2786 C2785 1.397 . S
C2786 C2787 1.334 . S
C2787 H2764 0.950 . S
C2787 C2786 1.334 . S
C2787 C2788 1.287 . S
C2788 C2787 1.287 . S
C2788 C2789 1.524 . S
C2788 H2807 0.913 . S
C2789 H2765 0.950 . S
C2789 C2788 1.524 . S
C2789 C2790 1.415 . S
C2790 H2766 0.950 . S
C2790 C2785 1.363 . S
C2790 C2789 1.415 . S
C2791 H2767 0.951 . S
C2791 C2792 1.366 . S
C2791 C2793 1.388 . S
C2792 C2791 1.366 . S
C2792 C2796 1.385 . S
C2793 H2768 0.951 . S
C2793 C2791 1.388 . S
C2793 C2794 1.366 . S
C2794 C2793 1.366 . S
C2794 C2795 1.414 . S
C2794 C2797 1.499 . S
C2795 H2769 0.950 . S
C2795 C2794 1.414 . S
C2795 C2796 1.374 . S
C2796 H2770 0.950 . S
C2796 C2792 1.385 . S
C2796 C2795 1.374 . S
C2797 C2794 1.499 . S
C2797 C2798 1.373 . S
C2797 C2799 1.389 . S
C2798 H2771 0.950 . S
C2798 C2784 1.377 . S
C2798 C2797 1.373 . S
C2799 C2783 1.377 . S
C2799 C2797 1.389 . S
C2799 C2800 1.524 . S
C2800 C2799 1.524 . S
C2800 C2801 1.397 . S
C2800 C2805 1.363 . S
C2801 H2772 0.950 . S
C2801 C2800 1.397 . S
C2801 C2802 1.334 . S
C2802 H2773 0.950 . S
C2802 C2801 1.334 . S
C2802 C2803 1.287 . S
C2803 C2802 1.287 . S
C2803 C2804 1.524 . S
C2803 H2806 0.999 . S
C2804 H2774 0.950 . S
C2804 C2803 1.524 . S
C2804 C2805 1.415 . S
C2805 H2775 0.950 . S
C2805 C2800 1.363 . S
C2805 C2804 1.415 . S
H2806 C2803 0.999 . S
H2807 C2788 0.913 . S
H2808 C2826 0.951 . S
H2809 C2828 0.951 . S
H2810 C2830 0.950 . S
H2811 C2831 0.950 . S
H2812 C2833 0.950 . S
H2813 C2836 0.950 . S
H2814 C2837 0.950 . S
H2815 C2839 0.950 . S
H2816 C2840 0.950 . S
H2817 C2841 0.951 . S
H2818 C2843 0.951 . S
H2819 C2845 0.950 . S
H2820 C2846 0.950 . S
H2821 C2848 0.950 . S
H2822 C2851 0.950 . S
H2823 C2852 0.950 . S
H2824 C2854 0.950 . S
H2825 C2855 0.950 . S
C2826 H2808 0.951 . S
C2826 C2827 1.366 . S
C2826 C2828 1.388 . S
C2827 C2826 1.366 . S
C2827 C2831 1.385 . S
C2828 H2809 0.951 . S
C2828 C2826 1.388 . S
C2828 C2829 1.366 . S
C2829 C2828 1.366 . S
C2829 C2830 1.414 . S
C2829 C2832 1.499 . S
C2830 H2810 0.950 . S
C2830 C2829 1.414 . S
C2830 C2831 1.374 . S
C2831 H2811 0.950 . S
C2831 C2827 1.385 . S
C2831 C2830 1.374 . S
C2832 C2829 1.499 . S
C2832 C2833 1.373 . S
C2832 C2834 1.389 . S
C2833 H2812 0.950 . S
C2833 C2832 1.373 . S
C2833 C2849 1.377 . S
C2834 C2832 1.389 . S
C2834 C2835 1.524 . S
C2834 C2848 1.377 . S
C2835 C2834 1.524 . S
C2835 C2836 1.397 . S
C2835 C2840 1.363 . S
C2836 H2813 0.950 . S
C2836 C2835 1.397 . S
C2836 C2837 1.334 . S
C2837 H2814 0.950 . S
C2837 C2836 1.334 . S
C2837 C2838 1.287 . S
C2838 C2837 1.287 . S
C2838 C2839 1.524 . S
C2838 H2857 0.913 . S
C2839 H2815 0.950 . S
C2839 C2838 1.524 . S
C2839 C2840 1.415 . S
C2840 H2816 0.950 . S
C2840 C2835 1.363 . S
C2840 C2839 1.415 . S
C2841 H2817 0.951 . S
C2841 C2842 1.366 . S
C2841 C2843 1.388 . S
C2842 C2841 1.366 . S
C2842 C2846 1.385 . S
C2843 H2818 0.951 . S
C2843 C2841 1.388 . S
C2843 C2844 1.366 . S
C2844 C2843 1.366 . S
C2844 C2845 1.414 . S
C2844 C2847 1.499 . S
C2845 H2819 0.950 . S
C2845 C2844 1.414 . S
C2845 C2846 1.374 . S
C2846 H2820 0.950 . S
C2846 C2842 1.385 . S
C2846 C2845 1.374 . S
C2847 C2844 1.499 . S
C2847 C2848 1.373 . S
C2847 C2849 1.389 . S
C2848 H2821 0.950 . S
C2848 C2834 1.377 . S
C2848 C2847 1.373 . S
C2849 C2833 1.377 . S
C2849 C2847 1.389 . S
C2849 C2850 1.524 . S
C2850 C2849 1.524 . S
C2850 C2851 1.397 . S
C2850 C2855 1.363 . S
C2851 H2822 0.950 . S
C2851 C2850 1.397 . S
C2851 C2852 1.334 . S
C2852 H2823 0.950 . S
C2852 C2851 1.334 . S
C2852 C2853 1.287 . S
C2853 C2852 1.287 . S
C2853 C2854 1.524 . S
C2853 H2856 0.999 . S
C2854 H2824 0.950 . S
C2854 C2853 1.524 . S
C2854 C2855 1.415 . S
C2855 H2825 0.950 . S
C2855 C2850 1.363 . S
C2855 C2854 1.415 . S
H2856 C2853 0.999 . S
H2857 C2838 0.913 . S
H2858 C2876 0.951 . S
H2859 C2878 0.951 . S
H2860 C2880 0.950 . S
H2861 C2881 0.950 . S
H2862 C2883 0.950 . S
H2863 C2886 0.950 . S
H2864 C2887 0.950 . S
H2865 C2889 0.950 . S
H2866 C2890 0.950 . S
H2867 C2891 0.951 . S
H2868 C2893 0.951 . S
H2869 C2895 0.950 . S
H2870 C2896 0.950 . S
H2871 C2898 0.950 . S
H2872 C2901 0.950 . S
H2873 C2902 0.950 . S
H2874 C2904 0.950 . S
H2875 C2905 0.950 . S
C2876 H2858 0.951 . S
C2876 C2877 1.366 . S
C2876 C2878 1.388 . S
C2877 C2876 1.366 . S
C2877 C2881 1.385 . S
C2878 H2859 0.951 . S
C2878 C2876 1.388 . S
C2878 C2879 1.366 . S
C2879 C2878 1.366 . S
C2879 C2880 1.414 . S
C2879 C2882 1.499 . S
C2880 H2860 0.950 . S
C2880 C2879 1.414 . S
C2880 C2881 1.374 . S
C2881 H2861 0.950 . S
C2881 C2877 1.385 . S
C2881 C2880 1.374 . S
C2882 C2879 1.499 . S
C2882 C2883 1.373 . S
C2882 C2884 1.389 . S
C2883 H2862 0.950 . S
C2883 C2882 1.373 . S
C2883 C2899 1.377 . S
C2884 C2882 1.389 . S
C2884 C2885 1.524 . S
C2884 C2898 1.377 . S
C2885 C2884 1.524 . S
C2885 C2886 1.397 . S
C2885 C2890 1.363 . S
C2886 H2863 0.950 . S
C2886 C2885 1.397 . S
C2886 C2887 1.334 . S
C2887 H2864 0.950 . S
C2887 C2886 1.334 . S
C2887 C2888 1.287 . S
C2888 C2887 1.287 . S
C2888 C2889 1.524 . S
C2888 H2907 0.913 . S
C2889 H2865 0.950 . S
C2889 C2888 1.524 . S
C2889 C2890 1.415 . S
C2890 H2866 0.950 . S
C2890 C2885 1.363 . S
C2890 C2889 1.415 . S
C2891 H2867 0.951 . S
C2891 C2892 1.366 . S
C2891 C2893 1.388 . S
C2892 C2891 1.366 . S
C2892 C2896 1.385 . S
C2893 H2868 0.951 . S
C2893 C2891 1.388 . S
C2893 C2894 1.366 . S
C2894 C2893 1.366 . S
C2894 C2895 1.414 . S
C2894 C2897 1.499 . S
C2895 H2869 0.950 . S
C2895 C2894 1.414 . S
C2895 C2896 1.374 . S
C2896 H2870 0.950 . S
C2896 C2892 1.385 . S
C2896 C2895 1.374 . S
C2897 C2894 1.499 . S
C2897 C2898 1.373 . S
C2897 C2899 1.389 . S
C2898 H2871 0.950 . S
C2898 C2884 1.377 . S
C2898 C2897 1.373 . S
C2899 C2883 1.377 . S
C2899 C2897 1.389 . S
C2899 C2900 1.524 . S
C2900 C2899 1.524 . S
C2900 C2901 1.397 . S
C2900 C2905 1.363 . S
C2901 H2872 0.950 . S
C2901 C2900 1.397 . S
C2901 C2902 1.334 . S
C2902 H2873 0.950 . S
C2902 C2901 1.334 . S
C2902 C2903 1.287 . S
C2903 C2902 1.287 . S
C2903 C2904 1.524 . S
C2903 H2906 0.999 . S
C2904 H2874 0.950 . S
C2904 C2903 1.524 . S
C2904 C2905 1.415 . S
C2905 H2875 0.950 . S
C2905 C2900 1.363 . S
C2905 C2904 1.415 . S
H2906 C2903 0.999 . S
H2907 C2888 0.913 . S
H2908 C2926 0.951 . S
H2909 C2928 0.951 . S
H2910 C2930 0.950 . S
H2911 C2931 0.950 . S
H2912 C2933 0.950 . S
H2913 C2936 0.950 . S
H2914 C2937 0.950 . S
H2915 C2939 0.950 . S
H2916 C2940 0.950 . S
H2917 C2941 0.951 . S
H2918 C2943 0.951 . S
H2919 C2945 0.950 . S
H2920 C2946 0.950 . S
H2921 C2948 0.950 . S
H2922 C2951 0.950 . S
H2923 C2952 0.950 . S
H2924 C2954 0.950 . S
H2925 C2955 0.950 . S
C2926 H2908 0.951 . S
C2926 C2927 1.366 . S
C2926 C2928 1.388 . S
C2927 C2926 1.366 . S
C2927 C2931 1.385 . S
C2928 H2909 0.951 . S
C2928 C2926 1.388 . S
C2928 C2929 1.366 . S
C2929 C2928 1.366 . S
C2929 C2930 1.414 . S
C2929 C2932 1.499 . S
C2930 H2910 0.950 . S
C2930 C2929 1.414 . S
C2930 C2931 1.374 . S
C2931 H2911 0.950 . S
C2931 C2927 1.385 . S
C2931 C2930 1.374 . S
C2932 C2929 1.499 . S
C2932 C2933 1.373 . S
C2932 C2934 1.389 . S
C2933 H2912 0.950 . S
C2933 C2932 1.373 . S
C2933 C2949 1.377 . S
C2934 C2932 1.389 . S
C2934 C2935 1.524 . S
C2934 C2948 1.377 . S
C2935 C2934 1.524 . S
C2935 C2936 1.397 . S
C2935 C2940 1.363 . S
C2936 H2913 0.950 . S
C2936 C2935 1.397 . S
C2936 C2937 1.334 . S
C2937 H2914 0.950 . S
C2937 C2936 1.334 . S
C2937 C2938 1.287 . S
C2938 C2937 1.287 . S
C2938 C2939 1.524 . S
C2938 H2957 0.913 . S
C2939 H2915 0.950 . S
C2939 C2938 1.524 . S
C2939 C2940 1.415 . S
C2940 H2916 0.950 . S
C2940 C2935 1.363 . S
C2940 C2939 1.415 . S
C2941 H2917 0.951 . S
C2941 C2942 1.366 . S
C2941 C2943 1.388 . S
C2942 C2941 1.366 . S
C2942 C2946 1.385 . S
C2943 H2918 0.951 . S
C2943 C2941 1.388 . S
C2943 C2944 1.366 . S
C2944 C2943 1.366 . S
C2944 C2945 1.414 . S
C2944 C2947 1.499 . S
C2945 H2919 0.950 . S
C2945 C2944 1.414 . S
C2945 C2946 1.374 . S
C2946 H2920 0.950 . S
C2946 C2942 1.385 . S
C2946 C2945 1.374 . S
C2947 C2944 1.499 . S
C2947 C2948 1.373 . S
C2947 C2949 1.389 . S
C2948 H2921 0.950 . S
C2948 C2934 1.377 . S
C2948 C2947 1.373 . S
C2949 C2933 1.377 . S
C2949 C2947 1.389 . S
C2949 C2950 1.524 . S
C2950 C2949 1.524 . S
C2950 C2951 1.397 . S
C2950 C2955 1.363 . S
C2951 H2922 0.950 . S
C2951 C2950 1.397 . S
C2951 C2952 1.334 . S
C2952 H2923 0.950 . S
C2952 C2951 1.334 . S
C2952 C2953 1.287 . S
C2953 C2952 1.287 . S
C2953 C2954 1.524 . S
C2953 H2956 0.999 . S
C2954 H2924 0.950 . S
C2954 C2953 1.524 . S
C2954 C2955 1.415 . S
C2955 H2925 0.950 . S
C2955 C2950 1.363 . S
C2955 C2954 1.415 . S
H2956 C2953 0.999 . S
H2957 C2938 0.913 . S
H2958 C2976 0.951 . S
H2959 C2978 0.951 . S
H2960 C2980 0.950 . S
H2961 C2981 0.950 . S
H2962 C2983 0.950 . S
H2963 C2986 0.950 . S
H2964 C2987 0.950 . S
H2965 C2989 0.950 . S
H2966 C2990 0.950 . S
H2967 C2991 0.951 . S
H2968 C2993 0.951 . S
H2969 C2995 0.950 . S
H2970 C2996 0.950 . S
H2971 C2998 0.950 . S
H2972 C3001 0.950 . S
H2973 C3002 0.950 . S
H2974 C3004 0.950 . S
H2975 C3005 0.950 . S
C2976 H2958 0.951 . S
C2976 C2977 1.366 . S
C2976 C2978 1.388 . S
C2977 C2976 1.366 . S
C2977 C2981 1.385 . S
C2978 H2959 0.951 . S
C2978 C2976 1.388 . S
C2978 C2979 1.366 . S
C2979 C2978 1.366 . S
C2979 C2980 1.414 . S
C2979 C2982 1.499 . S
C2980 H2960 0.950 . S
C2980 C2979 1.414 . S
C2980 C2981 1.374 . S
C2981 H2961 0.950 . S
C2981 C2977 1.385 . S
C2981 C2980 1.374 . S
C2982 C2979 1.499 . S
C2982 C2983 1.373 . S
C2982 C2984 1.389 . S
C2983 H2962 0.950 . S
C2983 C2982 1.373 . S
C2983 C2999 1.377 . S
C2984 C2982 1.389 . S
C2984 C2985 1.524 . S
C2984 C2998 1.377 . S
C2985 C2984 1.524 . S
C2985 C2986 1.397 . S
C2985 C2990 1.363 . S
C2986 H2963 0.950 . S
C2986 C2985 1.397 . S
C2986 C2987 1.334 . S
C2987 H2964 0.950 . S
C2987 C2986 1.334 . S
C2987 C2988 1.287 . S
C2988 C2987 1.287 . S
C2988 C2989 1.524 . S
C2988 H3007 0.913 . S
C2989 H2965 0.950 . S
C2989 C2988 1.524 . S
C2989 C2990 1.415 . S
C2990 H2966 0.950 . S
C2990 C2985 1.363 . S
C2990 C2989 1.415 . S
C2991 H2967 0.951 . S
C2991 C2992 1.366 . S
C2991 C2993 1.388 . S
C2992 C2991 1.366 . S
C2992 C2996 1.385 . S
C2993 H2968 0.951 . S
C2993 C2991 1.388 . S
C2993 C2994 1.366 . S
C2994 C2993 1.366 . S
C2994 C2995 1.414 . S
C2994 C2997 1.499 . S
C2995 H2969 0.950 . S
C2995 C2994 1.414 . S
C2995 C2996 1.374 . S
C2996 H2970 0.950 . S
C2996 C2992 1.385 . S
C2996 C2995 1.374 . S
C2997 C2994 1.499 . S
C2997 C2998 1.373 . S
C2997 C2999 1.389 . S
C2998 H2971 0.950 . S
C2998 C2984 1.377 . S
C2998 C2997 1.373 . S
C2999 C2983 1.377 . S
C2999 C2997 1.389 . S
C2999 C3000 1.524 . S
C3000 C2999 1.524 . S
C3000 C3001 1.397 . S
C3000 C3005 1.363 . S
C3001 H2972 0.950 . S
C3001 C3000 1.397 . S
C3001 C3002 1.334 . S
C3002 H2973 0.950 . S
C3002 C3001 1.334 . S
C3002 C3003 1.287 . S
C3003 C3002 1.287 . S
C3003 C3004 1.524 . S
C3003 H3006 0.999 . S
C3004 H2974 0.950 . S
C3004 C3003 1.524 . S
C3004 C3005 1.415 . S
C3005 H2975 0.950 . S
C3005 C3000 1.363 . S
C3005 C3004 1.415 . S
H3006 C3003 0.999 . S
H3007 C2988 0.913 . S
H3008 C3026 0.951 . S
H3009 C3028 0.951 . S
H3010 C3030 0.950 . S
H3011 C3031 0.950 . S
H3012 C3033 0.950 . S
H3013 C3036 0.950 . S
H3014 C3037 0.950 . S
H3015 C3039 0.950 . S
H3016 C3040 0.950 . S
H3017 C3041 0.951 . S
H3018 C3043 0.951 . S
H3019 C3045 0.950 . S
H3020 C3046 0.950 . S
H3021 C3048 0.950 . S
H3022 C3051 0.950 . S
H3023 C3052 0.950 . S
H3024 C3054 0.950 . S
H3025 C3055 0.950 . S
C3026 H3008 0.951 . S
C3026 C3027 1.366 . S
C3026 C3028 1.388 . S
C3027 C3026 1.366 . S
C3027 C3031 1.385 . S
C3028 H3009 0.951 . S
C3028 C3026 1.388 . S
C3028 C3029 1.366 . S
C3029 C3028 1.366 . S
C3029 C3030 1.414 . S
C3029 C3032 1.499 . S
C3030 H3010 0.950 . S
C3030 C3029 1.414 . S
C3030 C3031 1.374 . S
C3031 H3011 0.950 . S
C3031 C3027 1.385 . S
C3031 C3030 1.374 . S
C3032 C3029 1.499 . S
C3032 C3033 1.373 . S
C3032 C3034 1.389 . S
C3033 H3012 0.950 . S
C3033 C3032 1.373 . S
C3033 C3049 1.377 . S
C3034 C3032 1.389 . S
C3034 C3035 1.524 . S
C3034 C3048 1.377 . S
C3035 C3034 1.524 . S
C3035 C3036 1.397 . S
C3035 C3040 1.363 . S
C3036 H3013 0.950 . S
C3036 C3035 1.397 . S
C3036 C3037 1.334 . S
C3037 H3014 0.950 . S
C3037 C3036 1.334 . S
C3037 C3038 1.287 . S
C3038 C3037 1.287 . S
C3038 C3039 1.524 . S
C3038 H3057 0.913 . S
C3039 H3015 0.950 . S
C3039 C3038 1.524 . S
C3039 C3040 1.415 . S
C3040 H3016 0.950 . S
C3040 C3035 1.363 . S
C3040 C3039 1.415 . S
C3041 H3017 0.951 . S
C3041 C3042 1.366 . S
C3041 C3043 1.388 . S
C3042 C3041 1.366 . S
C3042 C3046 1.385 . S
C3043 H3018 0.951 . S
C3043 C3041 1.388 . S
C3043 C3044 1.366 . S
C3044 C3043 1.366 . S
C3044 C3045 1.414 . S
C3044 C3047 1.499 . S
C3045 H3019 0.950 . S
C3045 C3044 1.414 . S
C3045 C3046 1.374 . S
C3046 H3020 0.950 . S
C3046 C3042 1.385 . S
C3046 C3045 1.374 . S
C3047 C3044 1.499 . S
C3047 C3048 1.373 . S
C3047 C3049 1.389 . S
C3048 H3021 0.950 . S
C3048 C3034 1.377 . S
C3048 C3047 1.373 . S
C3049 C3033 1.377 . S
C3049 C3047 1.389 . S
C3049 C3050 1.524 . S
C3050 C3049 1.524 . S
C3050 C3051 1.397 . S
C3050 C3055 1.363 . S
C3051 H3022 0.950 . S
C3051 C3050 1.397 . S
C3051 C3052 1.334 . S
C3052 H3023 0.950 . S
C3052 C3051 1.334 . S
C3052 C3053 1.287 . S
C3053 C3052 1.287 . S
C3053 C3054 1.524 . S
C3053 H3056 0.999 . S
C3054 H3024 0.950 . S
C3054 C3053 1.524 . S
C3054 C3055 1.415 . S
C3055 H3025 0.950 . S
C3055 C3050 1.363 . S
C3055 C3054 1.415 . S
H3056 C3053 0.999 . S
H3057 C3038 0.913 . S
H3058 C3076 0.951 . S
H3059 C3078 0.951 . S
H3060 C3080 0.950 . S
H3061 C3081 0.950 . S
H3062 C3083 0.950 . S
H3063 C3086 0.950 . S
H3064 C3087 0.950 . S
H3065 C3089 0.950 . S
H3066 C3090 0.950 . S
H3067 C3091 0.951 . S
H3068 C3093 0.951 . S
H3069 C3095 0.950 . S
H3070 C3096 0.950 . S
H3071 C3098 0.950 . S
H3072 C3101 0.950 . S
H3073 C3102 0.950 . S
H3074 C3104 0.950 . S
H3075 C3105 0.950 . S
C3076 H3058 0.951 . S
C3076 C3077 1.366 . S
C3076 C3078 1.388 . S
C3077 C3076 1.366 . S
C3077 C3081 1.385 . S
C3078 H3059 0.951 . S
C3078 C3076 1.388 . S
C3078 C3079 1.366 . S
C3079 C3078 1.366 . S
C3079 C3080 1.414 . S
C3079 C3082 1.499 . S
C3080 H3060 0.950 . S
C3080 C3079 1.414 . S
C3080 C3081 1.374 . S
C3081 H3061 0.950 . S
C3081 C3077 1.385 . S
C3081 C3080 1.374 . S
C3082 C3079 1.499 . S
C3082 C3083 1.373 . S
C3082 C3084 1.389 . S
C3083 H3062 0.950 . S
C3083 C3082 1.373 . S
C3083 C3099 1.377 . S
C3084 C3082 1.389 . S
C3084 C3085 1.524 . S
C3084 C3098 1.377 . S
C3085 C3084 1.524 . S
C3085 C3086 1.397 . S
C3085 C3090 1.363 . S
C3086 H3063 0.950 . S
C3086 C3085 1.397 . S
C3086 C3087 1.334 . S
C3087 H3064 0.950 . S
C3087 C3086 1.334 . S
C3087 C3088 1.287 . S
C3088 C3087 1.287 . S
C3088 C3089 1.524 . S
C3088 H3107 0.913 . S
C3089 H3065 0.950 . S
C3089 C3088 1.524 . S
C3089 C3090 1.415 . S
C3090 H3066 0.950 . S
C3090 C3085 1.363 . S
C3090 C3089 1.415 . S
C3091 H3067 0.951 . S
C3091 C3092 1.366 . S
C3091 C3093 1.388 . S
C3092 C3091 1.366 . S
C3092 C3096 1.385 . S
C3093 H3068 0.951 . S
C3093 C3091 1.388 . S
C3093 C3094 1.366 . S
C3094 C3093 1.366 . S
C3094 C3095 1.414 . S
C3094 C3097 1.499 . S
C3095 H3069 0.950 . S
C3095 C3094 1.414 . S
C3095 C3096 1.374 . S
C3096 H3070 0.950 . S
C3096 C3092 1.385 . S
C3096 C3095 1.374 . S
C3097 C3094 1.499 . S
C3097 C3098 1.373 . S
C3097 C3099 1.389 . S
C3098 H3071 0.950 . S
C3098 C3084 1.377 . S
C3098 C3097 1.373 . S
C3099 C3083 1.377 . S
C3099 C3097 1.389 . S
C3099 C3100 1.524 . S
C3100 C3099 1.524 . S
C3100 C3101 1.397 . S
C3100 C3105 1.363 . S
C3101 H3072 0.950 . S
C3101 C3100 1.397 . S
C3101 C3102 1.334 . S
C3102 H3073 0.950 . S
C3102 C3101 1.334 . S
C3102 C3103 1.287 . S
C3103 C3102 1.287 . S
C3103 C3104 1.524 . S
C3103 H3106 0.999 . S
C3104 H3074 0.950 . S
C3104 C3103 1.524 . S
C3104 C3105 1.415 . S
C3105 H3075 0.950 . S
C3105 C3100 1.363 . S
C3105 C3104 1.415 . S
H3106 C3103 0.999 . S
H3107 C3088 0.913 . S
H3108 C3126 0.951 . S
H3109 C3128 0.951 . S
H3110 C3130 0.950 . S
H3111 C3131 0.950 . S
H3112 C3133 0.950 . S
H3113 C3136 0.950 . S
H3114 C3137 0.950 . S
H3115 C3139 0.950 . S
H3116 C3140 0.950 . S
H3117 C3141 0.951 . S
H3118 C3143 0.951 . S
H3119 C3145 0.950 . S
H3120 C3146 0.950 . S
H3121 C3148 0.950 . S
H3122 C3151 0.950 . S
H3123 C3152 0.950 . S
H3124 C3154 0.950 . S
H3125 C3155 0.950 . S
C3126 H3108 0.951 . S
C3126 C3127 1.366 . S
C3126 C3128 1.388 . S
C3127 C3126 1.366 . S
C3127 C3131 1.385 . S
C3128 H3109 0.951 . S
C3128 C3126 1.388 . S
C3128 C3129 1.366 . S
C3129 C3128 1.366 . S
C3129 C3130 1.414 . S
C3129 C3132 1.499 . S
C3130 H3110 0.950 . S
C3130 C3129 1.414 . S
C3130 C3131 1.374 . S
C3131 H3111 0.950 . S
C3131 C3127 1.385 . S
C3131 C3130 1.374 . S
C3132 C3129 1.499 . S
C3132 C3133 1.373 . S
C3132 C3134 1.389 . S
C3133 H3112 0.950 . S
C3133 C3132 1.373 . S
C3133 C3149 1.377 . S
C3134 C3132 1.389 . S
C3134 C3135 1.524 . S
C3134 C3148 1.377 . S
C3135 C3134 1.524 . S
C3135 C3136 1.397 . S
C3135 C3140 1.363 . S
C3136 H3113 0.950 . S
C3136 C3135 1.397 . S
C3136 C3137 1.334 . S
C3137 H3114 0.950 . S
C3137 C3136 1.334 . S
C3137 C3138 1.287 . S
C3138 C3137 1.287 . S
C3138 C3139 1.524 . S
C3138 H3157 0.913 . S
C3139 H3115 0.950 . S
C3139 C3138 1.524 . S
C3139 C3140 1.415 . S
C3140 H3116 0.950 . S
C3140 C3135 1.363 . S
C3140 C3139 1.415 . S
C3141 H3117 0.951 . S
C3141 C3142 1.366 . S
C3141 C3143 1.388 . S
C3142 C3141 1.366 . S
C3142 C3146 1.385 . S
C3143 H3118 0.951 . S
C3143 C3141 1.388 . S
C3143 C3144 1.366 . S
C3144 C3143 1.366 . S
C3144 C3145 1.414 . S
C3144 C3147 1.499 . S
C3145 H3119 0.950 . S
C3145 C3144 1.414 . S
C3145 C3146 1.374 . S
C3146 H3120 0.950 . S
C3146 C3142 1.385 . S
C3146 C3145 1.374 . S
C3147 C3144 1.499 . S
C3147 C3148 1.373 . S
C3147 C3149 1.389 . S
C3148 H3121 0.950 . S
C3148 C3134 1.377 . S
C3148 C3147 1.373 . S
C3149 C3133 1.377 . S
C3149 C3147 1.389 . S
C3149 C3150 1.524 . S
C3150 C3149 1.524 . S
C3150 C3151 1.397 . S
C3150 C3155 1.363 . S
C3151 H3122 0.950 . S
C3151 C3150 1.397 . S
C3151 C3152 1.334 . S
C3152 H3123 0.950 . S
C3152 C3151 1.334 . S
C3152 C3153 1.287 . S
C3153 C3152 1.287 . S
C3153 C3154 1.524 . S
C3153 H3156 0.999 . S
C3154 H3124 0.950 . S
C3154 C3153 1.524 . S
C3154 C3155 1.415 . S
C3155 H3125 0.950 . S
C3155 C3150 1.363 . S
C3155 C3154 1.415 . S
H3156 C3153 0.999 . S
H3157 C3138 0.913 . S
H3158 C3176 0.951 . S
H3159 C3178 0.951 . S
H3160 C3180 0.950 . S
H3161 C3181 0.950 . S
H3162 C3183 0.950 . S
H3163 C3186 0.950 . S
H3164 C3187 0.950 . S
H3165 C3189 0.950 . S
H3166 C3190 0.950 . S
H3167 C3191 0.951 . S
H3168 C3193 0.951 . S
H3169 C3195 0.950 . S
H3170 C3196 0.950 . S
H3171 C3198 0.950 . S
H3172 C3201 0.950 . S
H3173 C3202 0.950 . S
H3174 C3204 0.950 . S
H3175 C3205 0.950 . S
C3176 H3158 0.951 . S
C3176 C3177 1.366 . S
C3176 C3178 1.388 . S
C3177 C3176 1.366 . S
C3177 C3181 1.385 . S
C3178 H3159 0.951 . S
C3178 C3176 1.388 . S
C3178 C3179 1.366 . S
C3179 C3178 1.366 . S
C3179 C3180 1.414 . S
C3179 C3182 1.499 . S
C3180 H3160 0.950 . S
C3180 C3179 1.414 . S
C3180 C3181 1.374 . S
C3181 H3161 0.950 . S
C3181 C3177 1.385 . S
C3181 C3180 1.374 . S
C3182 C3179 1.499 . S
C3182 C3183 1.373 . S
C3182 C3184 1.389 . S
C3183 H3162 0.950 . S
C3183 C3182 1.373 . S
C3183 C3199 1.377 . S
C3184 C3182 1.389 . S
C3184 C3185 1.524 . S
C3184 C3198 1.377 . S
C3185 C3184 1.524 . S
C3185 C3186 1.397 . S
C3185 C3190 1.363 . S
C3186 H3163 0.950 . S
C3186 C3185 1.397 . S
C3186 C3187 1.334 . S
C3187 H3164 0.950 . S
C3187 C3186 1.334 . S
C3187 C3188 1.287 . S
C3188 C3187 1.287 . S
C3188 C3189 1.524 . S
C3188 H3207 0.913 . S
C3189 H3165 0.950 . S
C3189 C3188 1.524 . S
C3189 C3190 1.415 . S
C3190 H3166 0.950 . S
C3190 C3185 1.363 . S
C3190 C3189 1.415 . S
C3191 H3167 0.951 . S
C3191 C3192 1.366 . S
C3191 C3193 1.388 . S
C3192 C3191 1.366 . S
C3192 C3196 1.385 . S
C3193 H3168 0.951 . S
C3193 C3191 1.388 . S
C3193 C3194 1.366 . S
C3194 C3193 1.366 . S
C3194 C3195 1.414 . S
C3194 C3197 1.499 . S
C3195 H3169 0.950 . S
C3195 C3194 1.414 . S
C3195 C3196 1.374 . S
C3196 H3170 0.950 . S
C3196 C3192 1.385 . S
C3196 C3195 1.374 . S
C3197 C3194 1.499 . S
C3197 C3198 1.373 . S
C3197 C3199 1.389 . S
C3198 H3171 0.950 . S
C3198 C3184 1.377 . S
C3198 C3197 1.373 . S
C3199 C3183 1.377 . S
C3199 C3197 1.389 . S
C3199 C3200 1.524 . S
C3200 C3199 1.524 . S
C3200 C3201 1.397 . S
C3200 C3205 1.363 . S
C3201 H3172 0.950 . S
C3201 C3200 1.397 . S
C3201 C3202 1.334 . S
C3202 H3173 0.950 . S
C3202 C3201 1.334 . S
C3202 C3203 1.287 . S
C3203 C3202 1.287 . S
C3203 C3204 1.524 . S
C3203 H3206 0.999 . S
C3204 H3174 0.950 . S
C3204 C3203 1.524 . S
C3204 C3205 1.415 . S
C3205 H3175 0.950 . S
C3205 C3200 1.363 . S
C3205 C3204 1.415 . S
H3206 C3203 0.999 . S
H3207 C3188 0.913 . S
H3208 C3226 0.951 . S
H3209 C3228 0.951 . S
H3210 C3230 0.950 . S
H3211 C3231 0.950 . S
H3212 C3233 0.950 . S
H3213 C3236 0.950 . S
H3214 C3237 0.950 . S
H3215 C3239 0.950 . S
H3216 C3240 0.950 . S
H3217 C3241 0.951 . S
H3218 C3243 0.951 . S
H3219 C3245 0.950 . S
H3220 C3246 0.950 . S
H3221 C3248 0.950 . S
H3222 C3251 0.950 . S
H3223 C3252 0.950 . S
H3224 C3254 0.950 . S
H3225 C3255 0.950 . S
C3226 H3208 0.951 . S
C3226 C3227 1.366 . S
C3226 C3228 1.388 . S
C3227 C3226 1.366 . S
C3227 C3231 1.385 . S
C3228 H3209 0.951 . S
C3228 C3226 1.388 . S
C3228 C3229 1.366 . S
C3229 C3228 1.366 . S
C3229 C3230 1.414 . S
C3229 C3232 1.499 . S
C3230 H3210 0.950 . S
C3230 C3229 1.414 . S
C3230 C3231 1.374 . S
C3231 H3211 0.950 . S
C3231 C3227 1.385 . S
C3231 C3230 1.374 . S
C3232 C3229 1.499 . S
C3232 C3233 1.373 . S
C3232 C3234 1.389 . S
C3233 H3212 0.950 . S
C3233 C3232 1.373 . S
C3233 C3249 1.377 . S
C3234 C3232 1.389 . S
C3234 C3235 1.524 . S
C3234 C3248 1.377 . S
C3235 C3234 1.524 . S
C3235 C3236 1.397 . S
C3235 C3240 1.363 . S
C3236 H3213 0.950 . S
C3236 C3235 1.397 . S
C3236 C3237 1.334 . S
C3237 H3214 0.950 . S
C3237 C3236 1.334 . S
C3237 C3238 1.287 . S
C3238 C3237 1.287 . S
C3238 C3239 1.524 . S
C3238 H3257 0.913 . S
C3239 H3215 0.950 . S
C3239 C3238 1.524 . S
C3239 C3240 1.415 . S
C3240 H3216 0.950 . S
C3240 C3235 1.363 . S
C3240 C3239 1.415 . S
C3241 H3217 0.951 . S
C3241 C3242 1.366 . S
C3241 C3243 1.388 . S
C3242 C3241 1.366 . S
C3242 C3246 1.385 . S
C3243 H3218 0.951 . S
C3243 C3241 1.388 . S
C3243 C3244 1.366 . S
C3244 C3243 1.366 . S
C3244 C3245 1.414 . S
C3244 C3247 1.499 . S
C3245 H3219 0.950 . S
C3245 C3244 1.414 . S
C3245 C3246 1.374 . S
C3246 H3220 0.950 . S
C3246 C3242 1.385 . S
C3246 C3245 1.374 . S
C3247 C3244 1.499 . S
C3247 C3248 1.373 . S
C3247 C3249 1.389 . S
C3248 H3221 0.950 . S
C3248 C3234 1.377 . S
C3248 C3247 1.373 . S
C3249 C3233 1.377 . S
C3249 C3247 1.389 . S
C3249 C3250 1.524 . S
C3250 C3249 1.524 . S
C3250 C3251 1.397 . S
C3250 C3255 1.363 . S
C3251 H3222 0.950 . S
C3251 C3250 1.397 . S
C3251 C3252 1.334 . S
C3252 H3223 0.950 . S
C3252 C3251 1.334 . S
C3252 C3253 1.287 . S
C3253 C3252 1.287 . S
C3253 C3254 1.524 . S
C3253 H3256 0.999 . S
C3254 H3224 0.950 . S
C3254 C3253 1.524 . S
C3254 C3255 1.415 . S
C3255 H3225 0.950 . S
C3255 C3250 1.363 . S
C3255 C3254 1.415 . S
H3256 C3253 0.999 . S
H3257 C3238 0.913 . S
C577 C147 1.688 . S
C592 C210 1.696 . S
C627 C158 1.847 . S
C642 C250 1.846 . S
C677 C136 1.609 . S
C692 C280 1.594 . S
C727 C125 1.465 . S
C742 C240 1.467 . S
C792 C290 1.491 1_556 S
C777 C103 1.492 . S
C827 C114 1.312 . S
C842 C200 1.306 . S
C892 C229 1.682 1_556 S
C877 C131 1.665 . S
C942 C269 1.711 . S
C927 C109 1.702 . S
C977 C120 1.672 . S
C992 C295 1.689 . S
C1027 C153 1.491 . S
C1042 C255 1.494 . S
C1077 C164 1.437 . S
C1092 C309 1.442 . S
C1142 C215 1.429 . S
C1127 C142 1.414 . S
C1192 C330 1.696 . S
C1177 C15 1.689 . S
C1227 C26 1.847 . S
C1242 C370 1.846 . S
C1277 C4 1.608 . S
C1292 C400 1.594 . S
C1327 C191 1.466 . S
C1342 C360 1.444 . S
C1377 C169 1.492 . S
C1392 C410 1.491 . S
C1427 C180 1.312 . S
C1442 C320 1.306 . S
C1477 C197 1.665 . S
C1492 C349 1.682 . S
C1527 C175 1.702 . S
C1542 C389 1.711 . S
C1592 C415 1.689 . S
C1577 C186 1.672 . S
C1627 C21 1.491 . S
C1642 C375 1.494 . S
C1692 C429 1.442 . S
C1677 C32 1.437 . S
C1727 C10 1.413 . S
C1742 C335 1.429 . S
C1792 C450 1.696 . S
C1777 C81 1.688 . S
C1827 C92 1.847 . S
C1842 C490 1.846 . S
C1892 C520 1.594 . S
C1877 C70 1.609 . S
C1942 C480 1.443 . S
C1927 C59 1.465 . S
C1992 C530 1.491 . S
C1977 C37 1.492 . S
C2027 C48 1.312 . S
C2042 C440 1.306 . S
C2077 C65 1.665 . S
C2092 C469 1.682 . S
C2127 C43 1.702 . S
C2142 C509 1.711 . S
C2192 C535 1.689 . S
C2177 C54 1.673 . S
C2227 C87 1.491 . S
C2242 C495 1.494 . S
C2277 C98 1.437 . S
C2292 C549 1.442 . S
C2327 C76 1.413 . S
C2342 C455 1.429 . S
C2377 C170 1.410 . S
C2392 C227 1.390 . S
C2442 C267 1.964 . S
C2427 C181 1.993 . S
C2477 C192 1.565 . S
C2492 C286 1.580 . S
C2527 C71 1.838 . S
C2542 C246 1.841 . S
C2577 C82 1.691 . S
C2592 C307 1.674 . S
C2642 C206 1.249 . S
C2627 C93 1.240 . S
C2677 C38 1.410 . S
C2692 C347 1.389 . S
C2727 C49 1.993 . S
C2742 C387 1.963 . S
C2777 C60 1.565 . S
C2792 C406 1.579 . S
C2827 C137 1.838 . S
C2842 C366 1.841 . S
C2892 C427 1.674 . S
C2877 C148 1.691 . S
C2927 C159 1.241 . S
C2942 C326 1.249 . S
C2977 C104 1.410 . S
C2992 C467 1.390 . S
C3027 C115 1.993 . S
C3042 C507 1.963 . S
C3092 C526 1.580 . S
C3077 C126 1.565 . S
C3127 C5 1.838 . S
C3142 C486 1.842 . S
C3177 C16 1.691 . S
C3192 C547 1.675 . S
C3227 C27 1.241 . S
C3242 C446 1.249 . S
