# Generated by pormake.
# Topology nom, (4,4)-cn, num edge types: 1
# Building blocks:
#     Node 0, Type 0, BuildingBlock: MUDLON_clean_linker_0, # of connection points: 4
#     Node 1, Type 0, BuildingBlock: MUDLON_clean_linker_0, # of connection points: 4
#     Node 2, Type 0, BuildingBlock: MUDLON_clean_linker_0, # of connection points: 4
#     Node 3, Type 0, BuildingBlock: MUDLON_clean_linker_0, # of connection points: 4
#     Node 4, Type 0, BuildingBlock: MUDLON_clean_linker_0, # of connection points: 4
#     Node 5, Type 0, BuildingBlock: MUDLON_clean_linker_0, # of connection points: 4
#     Node 6, Type 1, BuildingBlock: QUQFOY_clean_sbu_1, # of connection points: 4
#     Node 7, Type 1, BuildingBlock: QUQFOY_clean_sbu_1, # of connection points: 4
#     Node 8, Type 1, BuildingBlock: QUQFOY_clean_sbu_1, # of connection points: 4
#     Node 9, Type 1, BuildingBlock: QUQFOY_clean_sbu_1, # of connection points: 4
#     Node 10, Type 1, BuildingBlock: QUQFOY_clean_sbu_1, # of connection points: 4
#     Node 11, Type 1, BuildingBlock: QUQFOY_clean_sbu_1, # of connection points: 4
#     Edge 12, Type (0, 1), BuildingBlock: XUDNAN_clean_linker_2, # of connection points: 2
#     Edge 13, Type (0, 1), BuildingBlock: XUDNAN_clean_linker_2, # of connection points: 2
#     Edge 14, Type (0, 1), BuildingBlock: XUDNAN_clean_linker_2, # of connection points: 2
#     Edge 15, Type (0, 1), BuildingBlock: XUDNAN_clean_linker_2, # of connection points: 2
#     Edge 16, Type (0, 1), BuildingBlock: XUDNAN_clean_linker_2, # of connection points: 2
#     Edge 17, Type (0, 1), BuildingBlock: XUDNAN_clean_linker_2, # of connection points: 2
#     Edge 18, Type (0, 1), BuildingBlock: XUDNAN_clean_linker_2, # of connection points: 2
#     Edge 19, Type (0, 1), BuildingBlock: XUDNAN_clean_linker_2, # of connection points: 2
#     Edge 20, Type (0, 1), BuildingBlock: XUDNAN_clean_linker_2, # of connection points: 2
#     Edge 21, Type (0, 1), BuildingBlock: XUDNAN_clean_linker_2, # of connection points: 2
#     Edge 22, Type (0, 1), BuildingBlock: XUDNAN_clean_linker_2, # of connection points: 2
#     Edge 23, Type (0, 1), BuildingBlock: XUDNAN_clean_linker_2, # of connection points: 2
#     Edge 24, Type (0, 1), BuildingBlock: XUDNAN_clean_linker_2, # of connection points: 2
#     Edge 25, Type (0, 1), BuildingBlock: XUDNAN_clean_linker_2, # of connection points: 2
#     Edge 26, Type (0, 1), BuildingBlock: XUDNAN_clean_linker_2, # of connection points: 2
#     Edge 27, Type (0, 1), BuildingBlock: XUDNAN_clean_linker_2, # of connection points: 2
#     Edge 28, Type (0, 1), BuildingBlock: XUDNAN_clean_linker_2, # of connection points: 2
#     Edge 29, Type (0, 1), BuildingBlock: XUDNAN_clean_linker_2, # of connection points: 2
#     Edge 30, Type (0, 1), BuildingBlock: XUDNAN_clean_linker_2, # of connection points: 2
#     Edge 31, Type (0, 1), BuildingBlock: XUDNAN_clean_linker_2, # of connection points: 2
#     Edge 32, Type (0, 1), BuildingBlock: XUDNAN_clean_linker_2, # of connection points: 2
#     Edge 33, Type (0, 1), BuildingBlock: XUDNAN_clean_linker_2, # of connection points: 2
#     Edge 34, Type (0, 1), BuildingBlock: XUDNAN_clean_linker_2, # of connection points: 2
#     Edge 35, Type (0, 1), BuildingBlock: XUDNAN_clean_linker_2, # of connection points: 2
# Relax obj value: 0.009
# Max RMSD: 0.107
# Mean RMSD: 0.097
data_MOF--net-nom--node1-QUQFOY_clean_sbu_1--node2-MUDLON_clean_linker_0--edge1-XUDNAN_clean_linker_2
_symmetry_space_group_name_H-M    P1
_symmetry_Int_Tables_number       1
_symmetry_cell_setting            triclinic
loop_
_symmetry_equiv_pos_as_xyz
'x, y, z'
_cell_length_a     63.041431
_cell_length_b     63.923359
_cell_length_c     57.29669
_cell_angle_alpha  90.356696
_cell_angle_beta   89.804689
_cell_angle_gamma 120.429
loop_
_atom_site_label
_atom_site_type_symbol
_atom_site_fract_x
_atom_site_fract_y
_atom_site_fract_z
_atom_type_partial_charge
H0 H 0.1329 0.56354 0.30693 0.0
N1 N 0.08885 0.55736 0.31658 0.0
H2 H 0.16615 0.59595 0.28531 0.0
H3 H 0.08599 0.59254 0.29064 0.0
H4 H 0.11841 0.62369 0.26708 0.0
H5 H 0.10356 0.59428 0.3483 0.0
H6 H 0.12124 0.59664 0.38665 0.0
H7 H 0.09505 0.5238 0.33696 0.0
H8 H 0.11495 0.5268 0.37411 0.0
H9 H 0.05341 0.51629 0.29826 0.0
H10 H 0.06654 0.58263 0.3311 0.0
H11 H 0.00926 0.50187 0.29686 0.0
H12 H 0.02253 0.56826 0.33014 0.0
H13 H 0.88334 0.50961 0.27553 0.0
H14 H 0.86475 0.49114 0.23816 0.0
H15 H 0.89875 0.44699 0.24156 0.0
H16 H 0.91573 0.46439 0.27961 0.0
H17 H 0.88351 0.51405 0.32636 0.0
H18 H 0.84498 0.49003 0.34707 0.0
H19 H 0.85387 0.42729 0.34129 0.0
H20 H 0.89043 0.4508 0.31803 0.0
H21 H 0.93079 0.47288 0.32066 0.0
H22 H 0.97463 0.48851 0.32442 0.0
H23 H 0.98943 0.5589 0.30154 0.0
N24 N 0.90888 0.49779 0.30362 0.0
H25 H 0.94512 0.54306 0.29794 0.0
C26 C 0.10695 0.57563 0.30117 0.0
C27 C 0.1296 0.57668 0.29836 0.0
C28 C 0.14862 0.59519 0.28558 0.0
C29 C 0.14531 0.61283 0.27432 0.0
C30 C 0.12209 0.611 0.27601 0.0
C31 C 0.10324 0.59285 0.28949 0.0
C32 C 0.09741 0.55851 0.34008 0.0
C33 C 0.10507 0.57908 0.35431 0.0
C34 C 0.11576 0.58062 0.37607 0.0
C35 C 0.11973 0.56196 0.38373 0.0
C36 C 0.11173 0.54132 0.36936 0.0
C37 C 0.10046 0.53955 0.34796 0.0
C38 C 0.0633 0.55047 0.31466 0.0
C39 C 0.04675 0.52776 0.30505 0.0
C40 C 0.02156 0.51949 0.3045 0.0
C41 C 0.01238 0.53385 0.31357 0.0
C42 C 0.02903 0.55682 0.32293 0.0
C43 C 0.05424 0.565 0.32361 0.0
C44 C 0.90109 0.48865 0.28028 0.0
C45 C 0.88698 0.49615 0.268 0.0
C46 C 0.87649 0.48563 0.24654 0.0
C47 C 0.88021 0.4675 0.23667 0.0
C48 C 0.89509 0.46056 0.24873 0.0
C49 C 0.90517 0.47079 0.27044 0.0
C50 C 0.89036 0.48461 0.32108 0.0
C51 C 0.8774 0.49526 0.33017 0.0
C52 C 0.85525 0.48133 0.34213 0.0
C53 C 0.84574 0.45634 0.34583 0.0
C54 C 0.85996 0.4462 0.33834 0.0
C55 C 0.8816 0.45996 0.32558 0.0
C56 C 0.93445 0.50685 0.30902 0.0
C57 C 0.94318 0.49173 0.31676 0.0
C58 C 0.96844 0.50066 0.31871 0.0
C59 C 0.98554 0.52488 0.31306 0.0
C60 C 0.97676 0.5402 0.30617 0.0
C61 C 0.95148 0.5312 0.30412 0.0
H62 H 0.44984 0.86557 0.4784 0.0
N63 N 0.45149 0.90742 0.4719 0.0
H64 H 0.41939 0.83058 0.49991 0.0
H65 H 0.41776 0.90721 0.50344 0.0
H66 H 0.3888 0.87316 0.52675 0.0
H67 H 0.40534 0.88626 0.45304 0.0
H68 H 0.39374 0.87173 0.41311 0.0
H69 H 0.48119 0.91032 0.43719 0.0
H70 H 0.46966 0.89581 0.39681 0.0
H71 H 0.49255 0.94231 0.49162 0.0
H72 H 0.42374 0.9285 0.46214 0.0
H73 H 0.50519 0.98526 0.49677 0.0
H74 H 0.4364 0.97113 0.4668 0.0
H75 H 0.54321 0.09199 0.50541 0.0
H76 H 0.56838 0.11948 0.53654 0.0
H77 H 0.50865 0.13137 0.55499 0.0
H78 H 0.48321 0.10257 0.5248 0.0
H79 H 0.47898 0.10867 0.47817 0.0
H80 H 0.4989 0.14336 0.4523 0.0
H81 H 0.55485 0.12523 0.4363 0.0
H82 H 0.53528 0.0912 0.46339 0.0
H83 H 0.50197 0.05232 0.52521 0.0
H84 H 0.49164 0.01064 0.52014 0.0
H85 H 0.46867 0.01105 0.44944 0.0
N86 N 0.49696 0.0815 0.49286 0.0
H87 H 0.4794 0.05318 0.45411 0.0
C88 C 0.43618 0.88909 0.48882 0.0
C89 C 0.43671 0.86741 0.48917 0.0
C90 C 0.41925 0.84735 0.50173 0.0
C91 C 0.40108 0.8486 0.51502 0.0
C92 C 0.40179 0.871 0.51614 0.0
C93 C 0.41879 0.89085 0.50292 0.0
C94 C 0.44426 0.89953 0.44806 0.0
C95 C 0.41957 0.88869 0.44086 0.0
C96 C 0.41296 0.88043 0.41798 0.0
C97 C 0.43081 0.88274 0.40179 0.0
C98 C 0.45549 0.89365 0.40896 0.0
C99 C 0.46213 0.90205 0.4319 0.0
C100 C 0.45738 0.93212 0.47631 0.0
C101 C 0.48014 0.94848 0.48639 0.0
C102 C 0.48733 0.97296 0.48927 0.0
C103 C 0.4719 0.98159 0.48188 0.0
C104 C 0.44888 0.96511 0.47222 0.0
C105 C 0.4416 0.94063 0.46959 0.0
C106 C 0.51114 0.09498 0.51302 0.0
C107 C 0.5354 0.10012 0.51654 0.0
C108 C 0.54989 0.11613 0.53419 0.0
C109 C 0.54074 0.12797 0.54826 0.0
C110 C 0.51629 0.12237 0.54491 0.0
C111 C 0.50167 0.10595 0.5276 0.0
C112 C 0.50558 0.09739 0.47283 0.0
C113 C 0.49515 0.1118 0.46854 0.0
C114 C 0.50663 0.13168 0.45361 0.0
C115 C 0.5288 0.13747 0.44227 0.0
C116 C 0.53817 0.12177 0.44513 0.0
C117 C 0.52683 0.10206 0.46041 0.0
C118 C 0.49323 0.05719 0.4895 0.0
C119 C 0.49573 0.04418 0.50816 0.0
C120 C 0.48954 0.01999 0.50542 0.0
C121 C 0.47966 0.00766 0.48433 0.0
C122 C 0.47642 0.02015 0.46589 0.0
C123 C 0.48292 0.04446 0.4685 0.0
H124 H 0.4912 0.61245 0.62517 0.0
N125 N 0.48532 0.57498 0.64993 0.0
H126 H 0.46169 0.61368 0.5984 0.0
H127 H 0.44253 0.53575 0.63477 0.0
H128 H 0.41245 0.53681 0.60862 0.0
H129 H 0.44236 0.55055 0.67472 0.0
H130 H 0.43229 0.56476 0.71029 0.0
H131 H 0.51629 0.6117 0.67693 0.0
H132 H 0.50683 0.6255 0.71333 0.0
H133 H 0.52069 0.58005 0.62145 0.0
H134 H 0.47 0.53215 0.67334 0.0
H135 H 0.53904 0.55453 0.61833 0.0
H136 H 0.48927 0.50727 0.67155 0.0
H137 H 0.60642 0.48253 0.61422 0.0
H138 H 0.60683 0.46189 0.57835 0.0
H139 H 0.52771 0.42802 0.57381 0.0
H140 H 0.52746 0.44786 0.6101 0.0
H141 H 0.53711 0.42765 0.64544 0.0
H142 H 0.54748 0.40269 0.66907 0.0
H143 H 0.60937 0.46753 0.69804 0.0
H144 H 0.59994 0.49222 0.67255 0.0
H145 H 0.58661 0.52369 0.63609 0.0
H146 H 0.56544 0.54659 0.63964 0.0
H147 H 0.49661 0.47963 0.6503 0.0
N148 N 0.56742 0.47623 0.63793 0.0
H149 H 0.51856 0.45711 0.6482 0.0
C150 C 0.46902 0.57411 0.63192 0.0
C151 C 0.47423 0.59582 0.62118 0.0
C152 C 0.45725 0.5965 0.60611 0.0
C153 C 0.43457 0.5754 0.60156 0.0
C154 C 0.42982 0.55336 0.61156 0.0
C155 C 0.44693 0.5527 0.6266 0.0
C156 C 0.48006 0.58038 0.67296 0.0
C157 C 0.4566 0.5668 0.68312 0.0
C158 C 0.45091 0.57488 0.70364 0.0
C159 C 0.46863 0.59653 0.71452 0.0
C160 C 0.49254 0.60911 0.7051 0.0
C161 C 0.49811 0.60114 0.68447 0.0
C162 C 0.49435 0.55836 0.64784 0.0
C163 C 0.51362 0.56403 0.63225 0.0
C164 C 0.52425 0.54953 0.63073 0.0
C165 C 0.51612 0.52908 0.64513 0.0
C166 C 0.49606 0.52283 0.66018 0.0
C167 C 0.48512 0.53721 0.66138 0.0
C168 C 0.56705 0.46697 0.61482 0.0
C169 C 0.58926 0.47101 0.60518 0.0
C170 C 0.58942 0.45922 0.58464 0.0
C171 C 0.56727 0.44314 0.57321 0.0
C172 C 0.54507 0.43994 0.58236 0.0
C173 C 0.54493 0.4516 0.60303 0.0
C174 C 0.56827 0.46182 0.65674 0.0
C175 C 0.55265 0.4365 0.65718 0.0
C176 C 0.55858 0.42219 0.67094 0.0
C177 C 0.57983 0.43297 0.68505 0.0
C178 C 0.59348 0.45847 0.68672 0.0
C179 C 0.5879 0.4727 0.67247 0.0
C180 C 0.55415 0.48882 0.64154 0.0
C181 C 0.56699 0.51406 0.63939 0.0
C182 C 0.55473 0.52704 0.64115 0.0
C183 C 0.52911 0.51498 0.64471 0.0
C184 C 0.51631 0.48958 0.64757 0.0
C185 C 0.52877 0.47662 0.64618 0.0
H186 H 0.13417 0.55603 0.80181 0.0
N187 N 0.09486 0.50974 0.79841 0.0
H188 H 0.1686 0.56884 0.82818 0.0
H189 H 0.09351 0.48847 0.83869 0.0
H190 H 0.12684 0.50216 0.86696 0.0
H191 H 0.11805 0.48934 0.77873 0.0
H192 H 0.14055 0.50015 0.74195 0.0
H193 H 0.09723 0.54304 0.76723 0.0
H194 H 0.11855 0.5532 0.72957 0.0
H195 H 0.08017 0.54129 0.81277 0.0
H196 H 0.05432 0.46865 0.78787 0.0
H197 H 0.03754 0.5325 0.81564 0.0
H198 H 0.01195 0.45993 0.78946 0.0
H199 H 0.89595 0.49576 0.81659 0.0
H200 H 0.87461 0.49489 0.85261 0.0
H201 H 0.90307 0.45366 0.88591 0.0
H202 H 0.92358 0.45398 0.84986 0.0
H203 H 0.89709 0.42441 0.81888 0.0
H204 H 0.8635 0.39121 0.79756 0.0
H205 H 0.86621 0.4417 0.74634 0.0
H206 H 0.90093 0.47513 0.76737 0.0
H207 H 0.95931 0.51489 0.79599 0.0
H208 H 0.00233 0.52509 0.79363 0.0
H209 H 0.9807 0.45248 0.81598 0.0
N210 N 0.92027 0.4728 0.80777 0.0
H211 H 0.93821 0.44227 0.81711 0.0
C212 C 0.11159 0.52081 0.81776 0.0
C213 C 0.13228 0.54428 0.81615 0.0
C214 C 0.15203 0.55171 0.83154 0.0
C215 C 0.15112 0.5362 0.84939 0.0
C216 C 0.12886 0.51418 0.85282 0.0
C217 C 0.10951 0.50643 0.83692 0.0
C218 C 0.10573 0.51507 0.77549 0.0
C219 C 0.1179 0.50309 0.76789 0.0
C220 C 0.13065 0.50927 0.74679 0.0
C221 C 0.13124 0.52745 0.73257 0.0
C222 C 0.11871 0.53929 0.74013 0.0
C223 C 0.1062 0.53328 0.76149 0.0
C224 C 0.07021 0.5054 0.80046 0.0
C225 C 0.06526 0.52346 0.80794 0.0
C226 C 0.0409 0.51844 0.80932 0.0
C227 C 0.02116 0.49539 0.80297 0.0
C228 C 0.02648 0.47765 0.79509 0.0
C229 C 0.05068 0.4826 0.79399 0.0
C230 C 0.91147 0.4751 0.83037 0.0
C231 C 0.89793 0.48696 0.83184 0.0
C232 C 0.88579 0.48645 0.85245 0.0
C233 C 0.88697 0.47404 0.87212 0.0
C234 C 0.90142 0.46302 0.87095 0.0
C235 C 0.91345 0.46344 0.85029 0.0
C236 C 0.90214 0.45237 0.79435 0.0
C237 C 0.8913 0.42841 0.80262 0.0
C238 C 0.87185 0.40938 0.79053 0.0
C239 C 0.86238 0.41392 0.77028 0.0
C240 C 0.87324 0.43777 0.76191 0.0
C241 C 0.89309 0.45677 0.77377 0.0
C242 C 0.94535 0.47787 0.80661 0.0
C243 C 0.96395 0.5012 0.80023 0.0
C244 C 0.98855 0.50704 0.79912 0.0
C245 C 0.99511 0.48961 0.80456 0.0
C246 C 0.9764 0.46628 0.81119 0.0
C247 C 0.95185 0.46041 0.81202 0.0
H248 H 0.58015 0.13014 0.97322 0.0
N249 N 0.60832 0.11066 0.95995 0.0
H250 H 0.59427 0.16654 0.99691 0.0
H251 H 0.64693 0.12994 0.9883 0.0
H252 H 0.66066 0.16554 0.01343 0.0
H253 H 0.64305 0.1404 0.9307 0.0
H254 H 0.63797 0.15864 0.89544 0.0
H255 H 0.56433 0.09837 0.93909 0.0
H256 H 0.55895 0.1156 0.90334 0.0
H257 H 0.56278 0.08533 0.98044 0.0
H258 H 0.62208 0.07868 0.95103 0.0
H259 H 0.53939 0.04144 0.98745 0.0
H260 H 0.59892 0.03493 0.95781 0.0
H261 H 0.52139 0.89918 0.0099 0.0
H262 H 0.49612 0.87542 0.04285 0.0
H263 H 0.45919 0.91687 0.04265 0.0
H264 H 0.48408 0.94002 0.00936 0.0
H265 H 0.53659 0.91799 0.95176 0.0
H266 H 0.51479 0.88534 0.92336 0.0
H267 H 0.44574 0.8774 0.94669 0.0
H268 H 0.46792 0.91138 0.97326 0.0
H269 H 0.49667 0.95816 0.96931 0.0
H270 H 0.51855 0.00238 0.96452 0.0
H271 H 0.58488 0.00696 0.99101 0.0
N272 N 0.51655 0.93142 0.98518 0.0
H273 H 0.56293 0.96285 0.99548 0.0
C274 C 0.61283 0.12766 0.97858 0.0
C275 C 0.59752 0.13747 0.98229 0.0
C276 C 0.60562 0.15831 0.99602 0.0
C277 C 0.62896 0.16946 0.00668 0.0
C278 C 0.64296 0.15798 0.00489 0.0
C279 C 0.63503 0.13742 0.99082 0.0
C280 C 0.60421 0.11797 0.93746 0.0
C281 C 0.62466 0.13463 0.92452 0.0
C282 C 0.62167 0.14495 0.90433 0.0
C283 C 0.59801 0.13865 0.89653 0.0
C284 C 0.57743 0.12115 0.90903 0.0
C285 C 0.58048 0.11101 0.92938 0.0
C286 C 0.59426 0.0852 0.9653 0.0
C287 C 0.57079 0.07444 0.97558 0.0
C288 C 0.55739 0.04936 0.97944 0.0
C289 C 0.56735 0.03474 0.97325 0.0
C290 C 0.59087 0.0457 0.96309 0.0
C291 C 0.60411 0.07064 0.95914 0.0
C292 C 0.50473 0.92136 0.0072 0.0
C293 C 0.50824 0.90348 0.01738 0.0
C294 C 0.49379 0.88995 0.03621 0.0
C295 C 0.47546 0.8941 0.04524 0.0
C296 C 0.47287 0.91296 0.03583 0.0
C297 C 0.48733 0.92645 0.01695 0.0
C298 C 0.50393 0.91663 0.96511 0.0
C299 C 0.51684 0.90973 0.95006 0.0
C300 C 0.50424 0.89079 0.93409 0.0
C301 C 0.47832 0.87792 0.93332 0.0
C302 C 0.46563 0.88663 0.94674 0.0
C303 C 0.47834 0.90604 0.96224 0.0
C304 C 0.52836 0.95731 0.98261 0.0
C305 C 0.51588 0.96873 0.97413 0.0
C306 C 0.52836 0.99399 0.97154 0.0
C307 C 0.55348 0.00814 0.97726 0.0
C308 C 0.56565 0.99656 0.98612 0.0
C309 C 0.55317 0.97143 0.98877 0.0
H310 H 0.54999 0.45791 0.14411 0.0
N311 N 0.57516 0.50205 0.16642 0.0
H312 H 0.56738 0.44061 0.11812 0.0
H313 H 0.6198 0.52445 0.14794 0.0
H314 H 0.63838 0.50633 0.12422 0.0
H315 H 0.61 0.51161 0.19741 0.0
H316 H 0.60813 0.48627 0.22984 0.0
H317 H 0.53317 0.46268 0.18317 0.0
H318 H 0.53064 0.43784 0.21637 0.0
H319 H 0.52989 0.47771 0.14448 0.0
H320 H 0.58161 0.5451 0.17801 0.0
H321 H 0.50174 0.49254 0.13866 0.0
H322 H 0.55331 0.56032 0.17198 0.0
H323 H 0.41372 0.54112 0.11544 0.0
H324 H 0.40941 0.55869 0.07927 0.0
H325 H 0.48705 0.61216 0.08131 0.0
H326 H 0.49089 0.59485 0.11788 0.0
H327 H 0.4865 0.60306 0.15872 0.0
H328 H 0.47661 0.62872 0.18261 0.0
H329 H 0.40095 0.57013 0.1866 0.0
H330 H 0.4116 0.54437 0.16412 0.0
H331 H 0.46715 0.53463 0.11133 0.0
H332 H 0.4975 0.52231 0.11624 0.0
H333 H 0.51273 0.55234 0.18594 0.0
N334 N 0.4535 0.5576 0.14211 0.0
H335 H 0.48265 0.56494 0.18115 0.0
C336 C 0.5834 0.49297 0.14744 0.0
C337 C 0.56888 0.46923 0.1387 0.0
C338 C 0.5792 0.45898 0.12432 0.0
C339 C 0.60457 0.4717 0.11924 0.0
C340 C 0.61876 0.49586 0.12721 0.0
C341 C 0.60818 0.50637 0.14091 0.0
C342 C 0.57182 0.48921 0.18795 0.0
C343 C 0.59252 0.49579 0.20183 0.0
C344 C 0.59134 0.48125 0.22043 0.0
C345 C 0.56923 0.45982 0.22576 0.0
C346 C 0.5481 0.45392 0.21253 0.0
C347 C 0.54942 0.46834 0.19368 0.0
C348 C 0.55822 0.51041 0.16156 0.0
C349 C 0.53549 0.49582 0.15037 0.0
C350 C 0.51927 0.50439 0.14698 0.0
C351 C 0.52528 0.52768 0.15476 0.0
C352 C 0.548 0.54223 0.16594 0.0
C353 C 0.56426 0.53365 0.16925 0.0
C354 C 0.45252 0.56661 0.11931 0.0
C355 C 0.42982 0.55642 0.10784 0.0
C356 C 0.42746 0.56645 0.08713 0.0
C357 C 0.44787 0.58693 0.07739 0.0
C358 C 0.47086 0.59666 0.08853 0.0
C359 C 0.47315 0.58669 0.10935 0.0
C360 C 0.44977 0.5716 0.15987 0.0
C361 C 0.46799 0.59557 0.1654 0.0
C362 C 0.46216 0.61035 0.17883 0.0
C363 C 0.43783 0.60178 0.18642 0.0
C364 C 0.41997 0.57745 0.18159 0.0
C365 C 0.42597 0.56258 0.16864 0.0
C366 C 0.47314 0.55213 0.1452 0.0
C367 C 0.47741 0.53926 0.12751 0.0
C368 C 0.4946 0.53185 0.13044 0.0
C369 C 0.50774 0.53654 0.15139 0.0
C370 C 0.50335 0.54898 0.16933 0.0
C371 C 0.48606 0.55638 0.16645 0.0
O372 O 0.58597 0.35409 0.42251 0.0
Cd373 Cd 0.59344 0.34201 0.39168 0.0
Cd374 Cd 0.63472 0.38621 0.3937 0.0
O375 O 0.62114 0.38867 0.42565 0.0
O376 O 0.5703 0.30617 0.39103 0.0
O377 O 0.61069 0.32281 0.39319 0.0
C378 C 0.58918 0.30349 0.39271 0.0
C379 C 0.67381 0.3911 0.39015 0.0
C380 C 0.60002 0.37355 0.43365 0.0
C381 C 0.60075 0.3772 0.35361 0.0
O382 O 0.61969 0.39276 0.36476 0.0
O383 O 0.58837 0.35541 0.36071 0.0
O384 O 0.67094 0.40951 0.39348 0.0
O385 O 0.65437 0.36977 0.3893 0.0
O386 O 0.24644 0.59102 0.58192 0.0
Cd387 Cd 0.26642 0.60355 0.55177 0.0
Cd388 Cd 0.25445 0.6394 0.55896 0.0
O389 O 0.23912 0.62064 0.58975 0.0
O390 O 0.27852 0.58045 0.54703 0.0
O391 O 0.30355 0.61962 0.55302 0.0
C392 C 0.30059 0.59831 0.54968 0.0
C393 C 0.27993 0.68165 0.55908 0.0
C394 C 0.23702 0.60034 0.59492 0.0
C395 C 0.23341 0.60728 0.51653 0.0
O396 O 0.23431 0.62439 0.52872 0.0
O397 O 0.24568 0.59735 0.52225 0.0
O398 O 0.25647 0.67142 0.562 0.0
O399 O 0.28921 0.66777 0.55684 0.0
O400 O 0.63675 0.24256 0.74886 0.0
Cd401 Cd 0.65323 0.264 0.71988 0.0
Cd402 Cd 0.61023 0.26477 0.72088 0.0
O403 O 0.60389 0.24626 0.75166 0.0
O404 O 0.68663 0.26787 0.72014 0.0
O405 O 0.68059 0.29884 0.72407 0.0
C406 C 0.69571 0.29082 0.72316 0.0
C407 C 0.61145 0.30173 0.72024 0.0
C408 C 0.61709 0.23805 0.75939 0.0
C409 C 0.61863 0.24185 0.67908 0.0
O410 O 0.60313 0.24514 0.69031 0.0
O411 O 0.64003 0.24937 0.68725 0.0
O412 O 0.59078 0.28147 0.72083 0.0
O413 O 0.63155 0.30093 0.72021 0.0
O414 O 0.40771 0.65551 0.92433 0.0
Cd415 Cd 0.39994 0.66626 0.89313 0.0
Cd416 Cd 0.36573 0.61542 0.89197 0.0
O417 O 0.38197 0.61599 0.92331 0.0
O418 O 0.42518 0.70132 0.89438 0.0
O419 O 0.38549 0.68838 0.89287 0.0
C420 C 0.40783 0.7063 0.89402 0.0
C421 C 0.3229 0.59644 0.89076 0.0
C422 C 0.39897 0.63468 0.93346 0.0
C423 C 0.40156 0.63588 0.85248 0.0
O424 O 0.38419 0.61678 0.86164 0.0
O425 O 0.40943 0.65644 0.86218 0.0
O426 O 0.33399 0.58415 0.89131 0.0
O427 O 0.33626 0.61984 0.89085 0.0
O428 O 0.7775 0.4029 0.01787 0.0
Cd429 Cd 0.75958 0.38383 0.04764 0.0
Cd430 Cd 0.75832 0.42496 0.0568 0.0
O431 O 0.77569 0.43589 0.02505 0.0
O432 O 0.75164 0.34999 0.0411 0.0
O433 O 0.72313 0.35966 0.04805 0.0
C434 C 0.72871 0.34321 0.04347 0.0
C435 C 0.72236 0.42589 0.06348 0.0
C436 C 0.78227 0.42402 0.01204 0.0
C437 C 0.7855 0.41201 0.09101 0.0
O438 O 0.77949 0.42748 0.08518 0.0
O439 O 0.77893 0.39314 0.07862 0.0
O440 O 0.74357 0.44553 0.06338 0.0
O441 O 0.72153 0.40555 0.05954 0.0
O442 O 0.40152 0.78135 0.18737 0.0
Cd443 Cd 0.39505 0.76367 0.21896 0.0
Cd444 Cd 0.35053 0.76214 0.21424 0.0
O445 O 0.36454 0.77617 0.18186 0.0
O446 O 0.41802 0.75086 0.21981 0.0
O447 O 0.37742 0.72728 0.22059 0.0
C448 C 0.39892 0.72935 0.22039 0.0
C449 C 0.30801 0.7356 0.21769 0.0
C450 C 0.38642 0.78398 0.17487 0.0
C451 C 0.38493 0.79135 0.25437 0.0
O452 O 0.36562 0.7851 0.24247 0.0
O453 O 0.39944 0.78379 0.2488 0.0
O454 O 0.31717 0.75833 0.2136 0.0
O455 O 0.32303 0.72749 0.21905 0.0
H456 H 0.18503 0.61392 0.25196 0.0
H457 H 0.15435 0.6596 0.26941 0.0
H458 H 0.19053 0.69452 0.25217 0.0
H459 H 0.24464 0.65647 0.27036 0.0
H460 H 0.26006 0.6488 0.24831 0.0
H461 H 0.22987 0.6263 0.25809 0.0
H462 H 0.21395 0.61941 0.21548 0.0
H463 H 0.24416 0.64194 0.20555 0.0
H464 H 0.21791 0.64486 0.1986 0.0
H465 H 0.23125 0.72529 0.23598 0.0
H466 H 0.27474 0.75025 0.22458 0.0
H467 H 0.28109 0.68575 0.22157 0.0
C468 C 0.18569 0.63116 0.25223 0.0
C469 C 0.16637 0.63362 0.26204 0.0
C470 C 0.16829 0.65673 0.26152 0.0
C471 C 0.18896 0.67686 0.25187 0.0
C472 C 0.20781 0.6738 0.243 0.0
C473 C 0.20647 0.65158 0.24324 0.0
C474 C 0.23035 0.65371 0.2349 0.0
C475 C 0.24191 0.64586 0.25406 0.0
C476 C 0.22634 0.63911 0.21229 0.0
C477 C 0.24553 0.68075 0.23047 0.0
C478 C 0.23194 0.69186 0.23476 0.0
C479 C 0.24204 0.71678 0.23245 0.0
C480 C 0.26679 0.7308 0.22594 0.0
C481 C 0.28135 0.71996 0.2222 0.0
C482 C 0.27043 0.69454 0.22425 0.0
H483 H 0.51125 0.16207 0.41665 0.0
H484 H 0.57911 0.16726 0.44053 0.0
H485 H 0.60256 0.20871 0.42507 0.0
H486 H 0.53666 0.20152 0.36438 0.0
H487 H 0.51795 0.21505 0.36941 0.0
H488 H 0.50692 0.18413 0.37801 0.0
H489 H 0.50056 0.19466 0.42025 0.0
H490 H 0.51163 0.22554 0.41183 0.0
H491 H 0.52609 0.21911 0.4356 0.0
H492 H 0.6183 0.25152 0.41183 0.0
H493 H 0.62461 0.29202 0.40266 0.0
H494 H 0.54635 0.25967 0.38974 0.0
C495 C 0.53107 0.17169 0.41837 0.0
C496 C 0.54319 0.16107 0.42975 0.0
C497 C 0.56925 0.17451 0.43142 0.0
C498 C 0.58281 0.19825 0.4228 0.0
C499 C 0.57015 0.20842 0.41252 0.0
C500 C 0.54485 0.19552 0.41019 0.0
C501 C 0.53539 0.21141 0.40087 0.0
C502 C 0.52353 0.20249 0.37673 0.0
C503 C 0.51737 0.21276 0.41818 0.0
C504 C 0.55921 0.23548 0.39917 0.0
C505 C 0.57913 0.23329 0.4055 0.0
C506 C 0.60288 0.25338 0.40653 0.0
C507 C 0.60629 0.27632 0.40131 0.0
C508 C 0.586 0.27903 0.39545 0.0
C509 C 0.56227 0.25821 0.394 0.0
H510 H 0.42227 0.61086 0.60331 0.0
H511 H 0.40288 0.54266 0.56914 0.0
H512 H 0.36876 0.54342 0.54883 0.0
H513 H 0.36286 0.59839 0.61384 0.0
H514 H 0.36894 0.62869 0.60842 0.0
H515 H 0.3933 0.62408 0.61831 0.0
H516 H 0.41967 0.64746 0.58245 0.0
H517 H 0.39534 0.65219 0.57245 0.0
H518 H 0.40723 0.6379 0.5535 0.0
H519 H 0.33443 0.54944 0.5356 0.0
H520 H 0.30235 0.56027 0.53022 0.0
H521 H 0.34504 0.62548 0.57167 0.0
C522 C 0.41133 0.59641 0.59105 0.0
C523 C 0.41536 0.57674 0.58774 0.0
C524 C 0.40006 0.55783 0.57209 0.0
C525 C 0.38077 0.55821 0.56033 0.0
C526 C 0.37714 0.57773 0.56425 0.0
C527 C 0.39209 0.59657 0.57912 0.0
C528 C 0.38329 0.61458 0.58152 0.0
C529 C 0.3767 0.61653 0.60703 0.0
C530 C 0.40253 0.63951 0.5719 0.0
C531 C 0.36061 0.60257 0.5662 0.0
C532 C 0.35752 0.58143 0.55626 0.0
C533 C 0.33689 0.56617 0.54293 0.0
C534 C 0.31875 0.57244 0.54002 0.0
C535 C 0.32138 0.59384 0.55031 0.0
C536 C 0.34284 0.60932 0.56315 0.0
H537 H 0.81926 0.41219 0.75953 0.0
H538 H 0.85575 0.37017 0.75628 0.0
H539 H 0.81772 0.33509 0.74068 0.0
H540 H 0.76287 0.36503 0.77998 0.0
H541 H 0.74392 0.37348 0.76377 0.0
H542 H 0.77472 0.39623 0.77187 0.0
H543 H 0.7852 0.40867 0.72854 0.0
H544 H 0.75434 0.38601 0.7203 0.0
H545 H 0.78026 0.38597 0.70699 0.0
H546 H 0.77537 0.30399 0.72831 0.0
H547 H 0.731 0.2782 0.72074 0.0
H548 H 0.72118 0.33991 0.73291 0.0
C549 C 0.81935 0.39578 0.75494 0.0
C550 C 0.84043 0.39386 0.7588 0.0
C551 C 0.83976 0.37193 0.75331 0.0
C552 C 0.81831 0.352 0.74439 0.0
C553 C 0.79768 0.3543 0.74118 0.0
C554 C 0.79797 0.3756 0.74627 0.0
C555 C 0.77271 0.37262 0.74298 0.0
C556 C 0.76299 0.3771 0.76602 0.0
C557 C 0.77316 0.38931 0.72354 0.0
C558 C 0.75808 0.34618 0.73566 0.0
C559 C 0.77295 0.33608 0.73448 0.0
C560 C 0.76358 0.31173 0.72897 0.0
C561 C 0.7383 0.29722 0.72474 0.0
C562 C 0.72258 0.30702 0.72619 0.0
C563 C 0.73273 0.33192 0.7315 0.0
H564 H 0.49254 0.84409 0.92888 0.0
H565 H 0.43264 0.85631 0.9116 0.0
H566 H 0.40809 0.81384 0.89784 0.0
H567 H 0.48397 0.80422 0.87846 0.0
H568 H 0.49246 0.78602 0.89556 0.0
H569 H 0.50558 0.81782 0.90213 0.0
H570 H 0.49026 0.80704 0.94482 0.0
H571 H 0.47675 0.77525 0.93835 0.0
H572 H 0.45801 0.78659 0.95034 0.0
H573 H 0.38853 0.76812 0.89005 0.0
H574 H 0.37754 0.72507 0.88607 0.0
H575 H 0.45175 0.74515 0.90632 0.0
C576 C 0.47466 0.83837 0.92143 0.0
C577 C 0.46469 0.85382 0.92137 0.0
C578 C 0.44071 0.84488 0.91216 0.0
C579 C 0.42664 0.82078 0.90415 0.0
C580 C 0.43693 0.80595 0.9051 0.0
C581 C 0.4606 0.81464 0.91313 0.0
C582 C 0.46729 0.79506 0.91332 0.0
C583 C 0.48858 0.80115 0.89635 0.0
C584 C 0.47343 0.79074 0.93818 0.0
C585 C 0.44349 0.77376 0.90468 0.0
C586 C 0.42609 0.78023 0.90001 0.0
C587 C 0.40219 0.76299 0.89326 0.0
C588 C 0.39606 0.73859 0.89115 0.0
C589 C 0.41384 0.73182 0.89567 0.0
C590 C 0.43782 0.74976 0.90238 0.0
H591 H 0.64665 0.49156 0.09173 0.0
H592 H 0.59066 0.42327 0.12182 0.0
H593 H 0.61221 0.4033 0.10632 0.0
H594 H 0.66173 0.46688 0.04028 0.0
H595 H 0.69421 0.48833 0.04283 0.0
H596 H 0.67218 0.49657 0.05256 0.0
H597 H 0.69247 0.50719 0.09348 0.0
H598 H 0.71451 0.49899 0.08391 0.0
H599 H 0.69578 0.48468 0.10924 0.0
H600 H 0.64153 0.39106 0.09047 0.0
H601 H 0.67772 0.38854 0.07779 0.0
H602 H 0.71645 0.4654 0.06177 0.0
C603 C 0.63868 0.47237 0.09503 0.0
C604 C 0.61654 0.45914 0.10784 0.0
C605 C 0.60701 0.43394 0.11145 0.0
C606 C 0.61928 0.42233 0.10285 0.0
C607 C 0.64128 0.43609 0.09085 0.0
C608 C 0.65098 0.4606 0.08706 0.0
C609 C 0.67621 0.4718 0.0759 0.0
C610 C 0.67606 0.48146 0.05144 0.0
C611 C 0.69589 0.49184 0.09158 0.0
C612 C 0.6794 0.44988 0.07459 0.0
C613 C 0.65882 0.42934 0.08281 0.0
C614 C 0.6577 0.407 0.08385 0.0
C615 C 0.67831 0.40573 0.0766 0.0
C616 C 0.69988 0.42677 0.06887 0.0
C617 C 0.70022 0.44901 0.06762 0.0
H618 H 0.40139 0.80792 0.53171 0.0
H619 H 0.35323 0.83756 0.52245 0.0
H620 H 0.3186 0.79979 0.53734 0.0
H621 H 0.3591 0.75055 0.50901 0.0
H622 H 0.36763 0.73385 0.52827 0.0
H623 H 0.38982 0.76466 0.52077 0.0
H624 H 0.39684 0.77625 0.56463 0.0
H625 H 0.37463 0.74542 0.57229 0.0
H626 H 0.37095 0.77 0.58288 0.0
H627 H 0.28822 0.75788 0.55009 0.0
H628 H 0.26386 0.714 0.55758 0.0
H629 H 0.33046 0.70979 0.55507 0.0
C630 C 0.38368 0.8067 0.53283 0.0
C631 C 0.3805 0.82627 0.52604 0.0
C632 C 0.35674 0.82349 0.52814 0.0
C633 C 0.33672 0.80189 0.53644 0.0
C634 C 0.34049 0.78295 0.5424 0.0
C635 C 0.36332 0.78504 0.54057 0.0
C636 C 0.36185 0.7611 0.54588 0.0
C637 C 0.37008 0.75201 0.52472 0.0
C638 C 0.37697 0.76334 0.56772 0.0
C639 C 0.33451 0.74511 0.55042 0.0
C640 C 0.32265 0.75825 0.54876 0.0
C641 C 0.29731 0.74743 0.55158 0.0
C642 C 0.28362 0.72244 0.55583 0.0
C643 C 0.29521 0.70839 0.55692 0.0
C644 C 0.32107 0.72002 0.55445 0.0
H645 H 0.55349 0.38587 0.70188 0.0
H646 H 0.62813 0.44535 0.69051 0.0
H647 H 0.64422 0.41937 0.70274 0.0
H648 H 0.56692 0.35715 0.7512 0.0
H649 H 0.54577 0.32696 0.74069 0.0
H650 H 0.54002 0.35135 0.73496 0.0
H651 H 0.53767 0.34207 0.69065 0.0
H652 H 0.54353 0.31779 0.69621 0.0
H653 H 0.56315 0.34182 0.67653 0.0
H654 H 0.65246 0.38596 0.71175 0.0
H655 H 0.65186 0.34733 0.71678 0.0
H656 H 0.57208 0.30892 0.72017 0.0
C657 C 0.57324 0.39362 0.70222 0.0
C658 C 0.5894 0.41795 0.69544 0.0
C659 C 0.61517 0.42713 0.69625 0.0
C660 C 0.62459 0.4124 0.70301 0.0
C661 C 0.60812 0.38841 0.70887 0.0
C662 C 0.58299 0.37906 0.70861 0.0
C663 C 0.56924 0.35208 0.71358 0.0
C664 C 0.55463 0.34656 0.73647 0.0
C665 C 0.55242 0.3376 0.69301 0.0
C666 C 0.59058 0.34764 0.71595 0.0
C667 C 0.61286 0.3689 0.71352 0.0
C668 C 0.63513 0.36922 0.71396 0.0
C669 C 0.63461 0.34717 0.71677 0.0
C670 C 0.61195 0.3251 0.7189 0.0
C671 C 0.58972 0.32549 0.71874 0.0
H672 H 0.19203 0.58084 0.86103 0.0
H673 H 0.16322 0.50307 0.86526 0.0
H674 H 0.20252 0.51076 0.88098 0.0
H675 H 0.24874 0.59429 0.83863 0.0
H676 H 0.26658 0.62277 0.85382 0.0
H677 H 0.23476 0.61176 0.84719 0.0
H678 H 0.22581 0.61449 0.89091 0.0
H679 H 0.25771 0.62568 0.8977 0.0
H680 H 0.23397 0.5992 0.9123 0.0
H681 H 0.24593 0.52593 0.8912 0.0
H682 H 0.29094 0.54798 0.8956 0.0
H683 H 0.29333 0.61605 0.88289 0.0
C684 C 0.19374 0.56535 0.86553 0.0
C685 C 0.174 0.54128 0.86206 0.0
C686 C 0.17742 0.52171 0.86833 0.0
C687 C 0.19991 0.52586 0.87714 0.0
C688 C 0.21906 0.54968 0.87955 0.0
C689 C 0.21628 0.56915 0.87402 0.0
C690 C 0.24061 0.59286 0.87605 0.0
C691 C 0.2481 0.60619 0.85252 0.0
C692 C 0.23945 0.60901 0.8954 0.0
C693 C 0.25758 0.58351 0.88277 0.0
C694 C 0.24461 0.55857 0.88503 0.0
C695 C 0.25626 0.5455 0.88981 0.0
C696 C 0.28189 0.55822 0.89217 0.0
C697 C 0.29569 0.58376 0.88964 0.0
C698 C 0.28327 0.59656 0.88517 0.0
H699 H 0.67694 0.20646 0.00437 0.0
H700 H 0.60561 0.18909 0.03194 0.0
H701 H 0.62327 0.23167 0.04494 0.0
H702 H 0.71342 0.24833 0.05137 0.0
H703 H 0.73771 0.26785 0.03165 0.0
H704 H 0.71941 0.23581 0.0256 0.0
H705 H 0.70849 0.24525 0.98492 0.0
H706 H 0.72645 0.27728 0.99093 0.0
H707 H 0.69452 0.26378 0.98293 0.0
H708 H 0.64861 0.27734 0.05236 0.0
H709 H 0.67992 0.321 0.05602 0.0
H710 H 0.73448 0.30689 0.02528 0.0
C711 C 0.66505 0.21125 0.01374 0.0
C712 C 0.63981 0.19422 0.01714 0.0
C713 C 0.62493 0.20176 0.02886 0.0
C714 C 0.63483 0.22591 0.03642 0.0
C715 C 0.65969 0.24225 0.03235 0.0
C716 C 0.67464 0.23509 0.02156 0.0
C717 C 0.70063 0.2561 0.01877 0.0
C718 C 0.71887 0.25176 0.03268 0.0
C719 C 0.70793 0.26087 0.99285 0.0
C720 C 0.69797 0.27636 0.02938 0.0
C721 C 0.67424 0.26812 0.03707 0.0
C722 C 0.6673 0.2839 0.04663 0.0
C723 C 0.68516 0.30866 0.04855 0.0
C724 C 0.70965 0.3173 0.04106 0.0
C725 C 0.71598 0.30083 0.03138 0.0
H726 H 0.45715 0.65069 0.17833 0.0
H727 H 0.40165 0.59099 0.2195 0.0
H728 H 0.38611 0.61729 0.2334 0.0
H729 H 0.46947 0.698 0.22241 0.0
H730 H 0.47465 0.7201 0.20036 0.0
H731 H 0.48187 0.69668 0.1944 0.0
H732 H 0.45388 0.68368 0.15784 0.0
H733 H 0.4463 0.7068 0.16382 0.0
H734 H 0.42214 0.67557 0.16093 0.0
H735 H 0.37364 0.64896 0.2392 0.0
H736 H 0.36876 0.68509 0.24031 0.0
H737 H 0.43512 0.72493 0.19904 0.0
C738 C 0.44221 0.64316 0.19081 0.0
C739 C 0.43055 0.61848 0.1975 0.0
C740 C 0.41063 0.60957 0.21352 0.0
C741 C 0.40174 0.62444 0.22172 0.0
C742 C 0.41328 0.64842 0.21422 0.0
C743 C 0.43344 0.65787 0.19955 0.0
C744 C 0.44248 0.68419 0.19396 0.0
C745 C 0.46867 0.70072 0.20335 0.0
C746 C 0.4411 0.68775 0.16758 0.0
C747 C 0.42389 0.68792 0.20732 0.0
C748 C 0.40705 0.66703 0.21876 0.0
C749 C 0.38703 0.66558 0.23074 0.0
C750 C 0.38432 0.68609 0.23119 0.0
C751 C 0.40176 0.7078 0.22007 0.0
C752 C 0.42182 0.70869 0.20813 0.0
H753 H 0.81917 0.4688 0.37603 0.0
H754 H 0.81314 0.40805 0.33578 0.0
H755 H 0.77008 0.38334 0.34762 0.0
H756 H 0.77476 0.43403 0.4225 0.0
H757 H 0.76223 0.45388 0.42284 0.0
H758 H 0.79403 0.4656 0.41517 0.0
H759 H 0.78712 0.48148 0.37609 0.0
H760 H 0.75537 0.46981 0.38362 0.0
H761 H 0.76317 0.46067 0.35663 0.0
H762 H 0.72641 0.36597 0.36055 0.0
H763 H 0.68521 0.3586 0.37132 0.0
H764 H 0.71838 0.43173 0.39937 0.0
C765 C 0.80904 0.45029 0.36973 0.0
C766 C 0.82019 0.44057 0.35512 0.0
C767 C 0.80578 0.41603 0.34761 0.0
C768 C 0.78102 0.40174 0.35409 0.0
C769 C 0.7706 0.41216 0.3679 0.0
C770 C 0.7841 0.43593 0.37551 0.0
C771 C 0.76782 0.44365 0.38782 0.0
C772 C 0.77515 0.44964 0.41362 0.0
C773 C 0.7684 0.46517 0.37528 0.0
C774 C 0.74298 0.42072 0.38533 0.0
C775 C 0.74507 0.40258 0.37428 0.0
C776 C 0.72456 0.37998 0.36938 0.0
C777 C 0.70123 0.37595 0.37557 0.0
C778 C 0.69859 0.39459 0.38613 0.0
C779 C 0.71982 0.41712 0.39134 0.0
H780 H 0.15661 0.60389 0.40466 0.0
H781 H 0.11358 0.5256 0.41359 0.0
H782 H 0.13892 0.52903 0.44747 0.0
H783 H 0.2143 0.61336 0.42129 0.0
H784 H 0.22348 0.64085 0.4376 0.0
H785 H 0.20219 0.63262 0.4137 0.0
H786 H 0.17043 0.63466 0.441 0.0
H787 H 0.19177 0.64325 0.46493 0.0
H788 H 0.16125 0.61723 0.46754 0.0
H789 H 0.17105 0.54032 0.47797 0.0
H790 H 0.20375 0.55946 0.50771 0.0
H791 H 0.22233 0.63069 0.48274 0.0
C792 C 0.152 0.58742 0.41392 0.0
C793 C 0.13324 0.56438 0.40588 0.0
C794 C 0.1283 0.54342 0.41867 0.0
C795 C 0.14248 0.54516 0.43813 0.0
C796 C 0.16114 0.56804 0.44509 0.0
C797 C 0.16551 0.58886 0.43381 0.0
C798 C 0.18622 0.61129 0.44543 0.0
C799 C 0.20782 0.62535 0.42849 0.0
C800 C 0.17685 0.62757 0.45532 0.0
C801 C 0.19305 0.59972 0.46477 0.0
C802 C 0.17856 0.57472 0.46397 0.0
C803 C 0.18225 0.55988 0.47905 0.0
C804 C 0.20096 0.57089 0.49572 0.0
C805 C 0.21538 0.59647 0.49748 0.0
C806 C 0.21136 0.61108 0.48182 0.0
H807 H 0.52777 0.13865 0.5909 0.0
H808 H 0.59043 0.16062 0.54482 0.0
H809 H 0.61702 0.19209 0.57314 0.0
H810 H 0.54455 0.19955 0.60816 0.0
H811 H 0.53352 0.19103 0.63762 0.0
H812 H 0.51951 0.16939 0.61418 0.0
H813 H 0.52821 0.13915 0.63607 0.0
H814 H 0.5422 0.16067 0.65959 0.0
H815 H 0.5592 0.14867 0.64505 0.0
H816 H 0.63711 0.22061 0.60695 0.0
H817 H 0.64878 0.24512 0.6432 0.0
H818 H 0.57242 0.20709 0.66531 0.0
C819 C 0.547 0.15016 0.58654 0.0
C820 C 0.55691 0.14681 0.56559 0.0
C821 C 0.58236 0.16223 0.56094 0.0
C822 C 0.59764 0.1804 0.57683 0.0
C823 C 0.58719 0.18322 0.59717 0.0
C824 C 0.56243 0.16867 0.60198 0.0
C825 C 0.55569 0.17581 0.62485 0.0
C826 C 0.53723 0.18446 0.62096 0.0
C827 C 0.54574 0.15483 0.64242 0.0
C828 C 0.58058 0.19657 0.63223 0.0
C829 C 0.59855 0.20044 0.6161 0.0
C830 C 0.62317 0.21792 0.6196 0.0
C831 C 0.62963 0.23172 0.64022 0.0
C832 C 0.61146 0.22816 0.65688 0.0
C833 C 0.58662 0.2105 0.65267 0.0
H834 H 0.43731 0.57232 0.75132 0.0
H835 H 0.48379 0.64434 0.7226 0.0
H836 H 0.47167 0.66186 0.75467 0.0
H837 H 0.38781 0.58183 0.76854 0.0
H838 H 0.38086 0.56422 0.79485 0.0
H839 H 0.39384 0.55715 0.7701 0.0
H840 H 0.42966 0.56171 0.79587 0.0
H841 H 0.41674 0.56871 0.82073 0.0
H842 H 0.44803 0.58946 0.81203 0.0
H843 H 0.45453 0.67177 0.78935 0.0
H844 H 0.43345 0.67352 0.82492 0.0
H845 H 0.39659 0.59504 0.83065 0.0
C846 C 0.4449 0.59177 0.75171 0.0
C847 C 0.46177 0.60693 0.73449 0.0
C848 C 0.47134 0.63233 0.73582 0.0
C849 C 0.46438 0.64248 0.75387 0.0
C850 C 0.44768 0.62702 0.77042 0.0
C851 C 0.43802 0.60223 0.76955 0.0
C852 C 0.42014 0.58973 0.78946 0.0
C853 C 0.39412 0.5722 0.78017 0.0
C854 C 0.42919 0.57664 0.80547 0.0
C855 C 0.42133 0.61143 0.80163 0.0
C856 C 0.43737 0.63274 0.79033 0.0
C857 C 0.44188 0.65522 0.79835 0.0
C858 C 0.42981 0.656 0.8186 0.0
C859 C 0.41331 0.63442 0.83059 0.0
C860 C 0.40894 0.61184 0.82182 0.0
H861 H 0.86122 0.43363 0.89935 0.0
H862 H 0.87884 0.50837 0.89262 0.0
H863 H 0.85268 0.50324 0.92681 0.0
H864 H 0.79857 0.40865 0.91687 0.0
H865 H 0.79925 0.38771 0.93735 0.0
H866 H 0.81913 0.39717 0.91219 0.0
H867 H 0.85717 0.41184 0.939 0.0
H868 H 0.8374 0.40224 0.96422 0.0
H869 H 0.86244 0.43314 0.96219 0.0
H870 H 0.82458 0.48986 0.96177 0.0
H871 H 0.79806 0.46988 0.99585 0.0
H872 H 0.79974 0.40417 0.98007 0.0
C873 C 0.85989 0.44906 0.90521 0.0
C874 C 0.87213 0.47143 0.89327 0.0
C875 C 0.86943 0.49098 0.9013 0.0
C876 C 0.85468 0.48826 0.92075 0.0
C877 C 0.84279 0.46591 0.93199 0.0
C878 C 0.84534 0.44669 0.92459 0.0
C879 C 0.83084 0.42465 0.93986 0.0
C880 C 0.81076 0.40329 0.92572 0.0
C881 C 0.84799 0.41756 0.95204 0.0
C882 C 0.81978 0.43449 0.9571 0.0
C883 C 0.82679 0.45827 0.95219 0.0
C884 C 0.81898 0.47124 0.96578 0.0
C885 C 0.80386 0.4597 0.98509 0.0
C886 C 0.79678 0.43543 0.99068 0.0
C887 C 0.80474 0.4227 0.97629 0.0
H888 H 0.48567 0.87491 0.08356 0.0
H889 H 0.42568 0.87557 0.0472 0.0
H890 H 0.39625 0.8466 0.07574 0.0
H891 H 0.45272 0.81119 0.09693 0.0
H892 H 0.46674 0.81519 0.12522 0.0
H893 H 0.48327 0.8364 0.1022 0.0
H894 H 0.48902 0.87196 0.12865 0.0
H895 H 0.47269 0.85088 0.15179 0.0
H896 H 0.46241 0.87092 0.14165 0.0
H897 H 0.3733 0.81733 0.10798 0.0
H898 H 0.35861 0.79116 0.14277 0.0
H899 H 0.43346 0.80881 0.15747 0.0
C900 C 0.46634 0.86892 0.08155 0.0
C901 C 0.45803 0.87765 0.06319 0.0
C902 C 0.43258 0.86952 0.06135 0.0
C903 C 0.41567 0.85287 0.07734 0.0
C904 C 0.42447 0.84446 0.09504 0.0
C905 C 0.4492 0.85227 0.0973 0.0
C906 C 0.45387 0.84052 0.11799 0.0
C907 C 0.46479 0.8249 0.11011 0.0
C908 C 0.47047 0.85972 0.13609 0.0
C909 C 0.42789 0.82496 0.12706 0.0
C910 C 0.41121 0.82743 0.11353 0.0
C911 C 0.38617 0.8152 0.1187 0.0
C912 C 0.37802 0.80035 0.13848 0.0
C913 C 0.39486 0.79786 0.15285 0.0
C914 C 0.42008 0.81015 0.14679 0.0
H915 H 0.59489 0.47145 0.26729 0.0
H916 H 0.54316 0.4099 0.22514 0.0
H917 H 0.54459 0.38208 0.25379 0.0
H918 H 0.63283 0.44704 0.28167 0.0
H919 H 0.63951 0.45956 0.31079 0.0
H920 H 0.63277 0.47466 0.28807 0.0
H921 H 0.59755 0.47283 0.3131 0.0
H922 H 0.60426 0.45783 0.33596 0.0
H923 H 0.57365 0.444 0.32398 0.0
H924 H 0.5527 0.36085 0.28649 0.0
H925 H 0.56711 0.34803 0.32063 0.0
H926 H 0.61554 0.42356 0.33974 0.0
C927 C 0.58383 0.45214 0.26398 0.0
C928 C 0.56877 0.44299 0.24392 0.0
C929 C 0.55443 0.4175 0.24057 0.0
C930 C 0.55528 0.40149 0.25666 0.0
C931 C 0.57067 0.41119 0.27596 0.0
C932 C 0.5847 0.43593 0.27967 0.0
C933 C 0.60053 0.44175 0.30127 0.0
C934 C 0.62804 0.45663 0.29507 0.0
C935 C 0.59357 0.45488 0.31967 0.0
C936 C 0.59331 0.41642 0.30905 0.0
C937 C 0.57593 0.39902 0.29434 0.0
C938 C 0.56632 0.37432 0.29813 0.0
C939 C 0.57463 0.36722 0.31755 0.0
C940 C 0.59254 0.38478 0.33279 0.0
C941 C 0.602 0.40968 0.32832 0.0
H942 H 0.44555 0.85597 0.3759 0.0
H943 H 0.39899 0.88782 0.37345 0.0
H944 H 0.38372 0.86925 0.33472 0.0
H945 H 0.46109 0.86273 0.31321 0.0
H946 H 0.46039 0.83421 0.31161 0.0
H947 H 0.46898 0.85138 0.33847 0.0
H948 H 0.4348 0.81404 0.3603 0.0
H949 H 0.42599 0.79682 0.33352 0.0
H950 H 0.40348 0.80005 0.35014 0.0
H951 H 0.37132 0.84517 0.29807 0.0
H952 H 0.36336 0.81801 0.26451 0.0
H953 H 0.4186 0.80214 0.2898 0.0
C954 C 0.43254 0.85945 0.36698 0.0
C955 C 0.4234 0.8733 0.37769 0.0
C956 C 0.40602 0.87705 0.36567 0.0
C957 C 0.39735 0.8667 0.34363 0.0
C958 C 0.40635 0.85276 0.33378 0.0
C959 C 0.42369 0.84924 0.34492 0.0
C960 C 0.42952 0.83263 0.3308 0.0
C961 C 0.45661 0.84604 0.32306 0.0
C962 C 0.42305 0.80952 0.34451 0.0
C963 C 0.41241 0.82704 0.3102 0.0
C964 C 0.39931 0.83894 0.31231 0.0
C965 C 0.38163 0.83594 0.29607 0.0
C966 C 0.37718 0.82035 0.27712 0.0
C967 C 0.39039 0.80795 0.27447 0.0
C968 C 0.40836 0.81152 0.29121 0.0
H969 H 0.60091 0.45789 0.53729 0.0
H970 H 0.5339 0.39552 0.56293 0.0
H971 H 0.53479 0.37105 0.52994 0.0
H972 H 0.58794 0.44593 0.47588 0.0
H973 H 0.61937 0.45574 0.46827 0.0
H974 H 0.61278 0.46863 0.49334 0.0
H975 H 0.63801 0.45613 0.51943 0.0
H976 H 0.64458 0.4431 0.49446 0.0
H977 H 0.63028 0.42485 0.51993 0.0
H978 H 0.54334 0.35309 0.49449 0.0
H979 H 0.55883 0.34316 0.45895 0.0
H980 H 0.62119 0.41677 0.45761 0.0
C981 C 0.58643 0.43908 0.53605 0.0
C982 C 0.56724 0.42874 0.55269 0.0
C983 C 0.54853 0.40407 0.55019 0.0
C984 C 0.54898 0.38992 0.53161 0.0
C985 C 0.56831 0.40064 0.51571 0.0
C986 C 0.58668 0.42465 0.51773 0.0
C987 C 0.60563 0.43167 0.49854 0.0
C988 C 0.60646 0.45167 0.48309 0.0
C989 C 0.63113 0.43939 0.5087 0.0
C990 C 0.59507 0.40782 0.48545 0.0
C991 C 0.5735 0.39017 0.49558 0.0
C992 C 0.56024 0.36676 0.48641 0.0
C993 C 0.5692 0.36129 0.46623 0.0
C994 C 0.59127 0.37914 0.45553 0.0
C995 C 0.60437 0.40265 0.46545 0.0
H996 H 0.15839 0.57291 0.71266 0.0
H997 H 0.13583 0.49708 0.70162 0.0
H998 H 0.16155 0.50813 0.66639 0.0
H999 H 0.15723 0.58618 0.65096 0.0
H1000 H 0.18338 0.61647 0.65331 0.0
H1001 H 0.16346 0.60275 0.67806 0.0
H1002 H 0.20099 0.61042 0.70294 0.0
H1003 H 0.221 0.62392 0.6782 0.0
H1004 H 0.22021 0.59875 0.69304 0.0
H1005 H 0.19081 0.52706 0.63376 0.0
H1006 H 0.21867 0.55226 0.60255 0.0
H1007 H 0.22031 0.61579 0.63227 0.0
C1008 C 0.15852 0.55854 0.70268 0.0
C1009 C 0.1453 0.53411 0.71026 0.0
C1010 C 0.14625 0.51599 0.69667 0.0
C1011 C 0.16071 0.52205 0.6765 0.0
C1012 C 0.17384 0.54627 0.66986 0.0
C1013 C 0.1726 0.56421 0.68224 0.0
C1014 C 0.18817 0.58877 0.67081 0.0
C1015 C 0.17209 0.59915 0.66281 0.0
C1016 C 0.20881 0.6065 0.68723 0.0
C1017 C 0.19843 0.58176 0.65016 0.0
C1018 C 0.19006 0.55717 0.65019 0.0
C1019 C 0.19735 0.54631 0.6334 0.0
C1020 C 0.21332 0.56087 0.6158 0.0
C1021 C 0.22168 0.58604 0.6149 0.0
C1022 C 0.21417 0.59661 0.63243 0.0
H1023 H 0.62525 0.15332 0.85604 0.0
H1024 H 0.56444 0.15365 0.89157 0.0
H1025 H 0.56137 0.17743 0.85943 0.0
H1026 H 0.65413 0.21422 0.83725 0.0
H1027 H 0.66416 0.20856 0.80965 0.0
H1028 H 0.66006 0.18954 0.8343 0.0
H1029 H 0.62997 0.15145 0.81026 0.0
H1030 H 0.63408 0.17035 0.78547 0.0
H1031 H 0.60362 0.1502 0.7966 0.0
H1032 H 0.56638 0.20311 0.82442 0.0
H1033 H 0.57903 0.22858 0.78908 0.0
H1034 H 0.63773 0.21289 0.77758 0.0
C1035 C 0.61122 0.1583 0.85709 0.0
C1036 C 0.59499 0.15142 0.87634 0.0
C1037 C 0.57677 0.15821 0.87683 0.0
C1038 C 0.57499 0.17189 0.85872 0.0
C1039 C 0.59158 0.17872 0.84027 0.0
C1040 C 0.60931 0.17211 0.8393 0.0
C1041 C 0.62563 0.18268 0.81809 0.0
C1042 C 0.65259 0.19976 0.82526 0.0
C1043 C 0.62317 0.16246 0.80163 0.0
C1044 C 0.61452 0.19655 0.80744 0.0
C1045 C 0.59478 0.19389 0.82038 0.0
C1046 C 0.58176 0.20526 0.81409 0.0
C1047 C 0.58911 0.21971 0.79401 0.0
C1048 C 0.60941 0.22279 0.78057 0.0
C1049 C 0.62219 0.21098 0.78748 0.0
H1050 H 0.41895 0.56503 0.03872 0.0
H1051 H 0.46947 0.63568 0.06874 0.0
H1052 H 0.46302 0.65543 0.0349 0.0
H1053 H 0.43553 0.58114 0.97828 0.0
H1054 H 0.4044 0.56284 0.96789 0.0
H1055 H 0.41398 0.55425 0.99393 0.0
H1056 H 0.37842 0.55399 0.017 0.0
H1057 H 0.36878 0.56268 0.99107 0.0
H1058 H 0.37576 0.58078 0.01725 0.0
H1059 H 0.45022 0.66756 -0.00154 0.0
H1060 H 0.43233 0.67128 0.96162 0.0
H1061 H 0.38898 0.59271 0.95596 0.0
C1062 C 0.42865 0.58466 0.03823 0.0
C1063 C 0.44485 0.59877 0.0564 0.0
C1064 C 0.45735 0.62443 0.05488 0.0
C1065 C 0.45366 0.63584 0.0358 0.0
C1066 C 0.43736 0.62138 0.01839 0.0
C1067 C 0.42509 0.59636 0.01939 0.0
C1068 C 0.40816 0.58503 -0.00138 0.0
C1069 C 0.416 0.56993 0.9838 0.0
C1070 C 0.38118 0.56972 0.00646 0.0
C1071 C 0.41274 0.60761 0.98585 0.0
C1072 C 0.42971 0.62838 0.99752 0.0
C1073 C 0.43694 0.65143 0.98914 0.0
C1074 C 0.42664 0.65334 0.96819 0.0
C1075 C 0.4092 0.6323 0.95587 0.0
C1076 C 0.40218 0.60916 0.96496 0.0
H1077 H 0.86984 0.48719 0.19873 0.0
H1078 H 0.86123 0.41952 0.22457 0.0
H1079 H 0.83841 0.39863 0.18895 0.0
H1080 H 0.80919 0.46101 0.17673 0.0
H1081 H 0.81774 0.48079 0.15184 0.0
H1082 H 0.83582 0.49108 0.17812 0.0
H1083 H 0.87491 0.50063 0.15463 0.0
H1084 H 0.85695 0.4904 0.12823 0.0
H1085 H 0.87495 0.47714 0.13709 0.0
H1086 H 0.81497 0.38464 0.15121 0.0
H1087 H 0.79141 0.37837 0.11491 0.0
H1088 H 0.81264 0.45446 0.11542 0.0
C1089 C 0.86319 0.46798 0.19702 0.0
C1090 C 0.86762 0.45515 0.21454 0.0
C1091 C 0.85871 0.43001 0.21126 0.0
C1092 C 0.84552 0.41789 0.19113 0.0
C1093 C 0.84118 0.43105 0.17448 0.0
C1094 C 0.84966 0.45551 0.17725 0.0
C1095 C 0.84124 0.46516 0.15747 0.0
C1096 C 0.82503 0.47509 0.16659 0.0
C1097 C 0.86333 0.48447 0.14353 0.0
C1098 C 0.82641 0.44221 0.14328 0.0
C1099 C 0.82688 0.4228 0.15321 0.0
C1100 C 0.81449 0.3997 0.14325 0.0
C1101 C 0.80118 0.39633 0.12264 0.0
C1102 C 0.80011 0.4159 0.1124 0.0
C1103 C 0.81298 0.43911 0.1229 0.0
loop_
_geom_bond_atom_site_label_1
_geom_bond_atom_site_label_2
_geom_bond_distance
_geom_bond_site_symmetry_2
_ccdc_geom_bond_type
H0 C27 0.929 . S
N1 C26 1.433 . S
N1 C32 1.435 . S
N1 C38 1.423 . S
H2 C28 0.930 . S
H3 C31 0.931 . S
H4 C30 0.929 . S
H5 C33 0.930 . S
H6 C34 0.932 . S
H7 C37 0.929 . S
H8 C36 0.931 . S
H9 C39 0.929 . S
H10 C43 0.932 . S
H11 C40 0.931 . S
H12 C42 0.929 . S
H13 C45 0.929 . S
H14 C46 0.930 . S
H15 C48 0.929 . S
H16 C49 0.931 . S
H17 C51 0.930 . S
H18 C52 0.932 . S
H19 C54 0.931 . S
H20 C55 0.929 . S
H21 C57 0.929 . S
H22 C58 0.931 . S
H23 C60 0.929 . S
N24 C44 1.433 . S
N24 C50 1.435 . S
N24 C56 1.423 . S
H25 C61 0.932 . S
C26 N1 1.433 . S
C26 C27 1.363 . S
C26 C31 1.370 . S
C27 H0 0.929 . S
C27 C26 1.363 . S
C27 C28 1.385 . S
C28 H2 0.930 . S
C28 C27 1.385 . S
C28 C29 1.357 . S
C29 C28 1.357 . S
C29 C30 1.406 . S
C30 H4 0.929 . S
C30 C29 1.406 . S
C30 C31 1.391 . S
C31 H3 0.931 . S
C31 C26 1.370 . S
C31 C30 1.391 . S
C32 N1 1.435 . S
C32 C33 1.358 . S
C32 C37 1.371 . S
C33 H5 0.930 . S
C33 C32 1.358 . S
C33 C34 1.405 . S
C34 H6 0.932 . S
C34 C33 1.405 . S
C34 C35 1.383 . S
C35 C34 1.383 . S
C35 C36 1.393 . S
C36 H8 0.931 . S
C36 C35 1.393 . S
C36 C37 1.382 . S
C37 H7 0.929 . S
C37 C32 1.371 . S
C37 C36 1.382 . S
C38 N1 1.423 . S
C38 C39 1.362 . S
C38 C43 1.388 . S
C39 H9 0.929 . S
C39 C38 1.362 . S
C39 C40 1.376 . S
C40 H11 0.931 . S
C40 C39 1.376 . S
C40 C41 1.396 . S
C41 C40 1.396 . S
C41 C42 1.348 . S
C41 C59 1.472 1_455 S
C42 H12 0.929 . S
C42 C41 1.348 . S
C42 C43 1.443 . S
C43 H10 0.932 . S
C43 C38 1.388 . S
C43 C42 1.443 . S
C44 N24 1.433 . S
C44 C45 1.363 . S
C44 C49 1.370 . S
C45 H13 0.929 . S
C45 C44 1.363 . S
C45 C46 1.385 . S
C46 H14 0.930 . S
C46 C45 1.385 . S
C46 C47 1.357 . S
C47 C46 1.357 . S
C47 C48 1.406 . S
C48 H15 0.929 . S
C48 C47 1.406 . S
C48 C49 1.391 . S
C49 H16 0.931 . S
C49 C44 1.370 . S
C49 C48 1.391 . S
C50 N24 1.435 . S
C50 C51 1.358 . S
C50 C55 1.371 . S
C51 H17 0.930 . S
C51 C50 1.358 . S
C51 C52 1.405 . S
C52 H18 0.932 . S
C52 C51 1.405 . S
C52 C53 1.383 . S
C53 C52 1.383 . S
C53 C54 1.393 . S
C54 H19 0.931 . S
C54 C53 1.393 . S
C54 C55 1.382 . S
C55 H20 0.929 . S
C55 C50 1.371 . S
C55 C54 1.382 . S
C56 N24 1.423 . S
C56 C57 1.362 . S
C56 C61 1.388 . S
C57 H21 0.929 . S
C57 C56 1.362 . S
C57 C58 1.376 . S
C58 H22 0.931 . S
C58 C57 1.376 . S
C58 C59 1.396 . S
C59 C41 1.472 1_655 S
C59 C58 1.396 . S
C59 C60 1.348 . S
C60 H23 0.929 . S
C60 C59 1.348 . S
C60 C61 1.443 . S
C61 H25 0.932 . S
C61 C56 1.388 . S
C61 C60 1.443 . S
H62 C89 0.929 . S
N63 C88 1.433 . S
N63 C94 1.435 . S
N63 C100 1.423 . S
H64 C90 0.930 . S
H65 C93 0.931 . S
H66 C92 0.929 . S
H67 C95 0.930 . S
H68 C96 0.932 . S
H69 C99 0.929 . S
H70 C98 0.931 . S
H71 C101 0.929 . S
H72 C105 0.932 . S
H73 C102 0.931 . S
H74 C104 0.929 1_545 S
H75 C107 0.929 . S
H76 C108 0.930 . S
H77 C110 0.929 . S
H78 C111 0.931 . S
H79 C113 0.930 . S
H80 C114 0.932 . S
H81 C116 0.931 . S
H82 C117 0.929 . S
H83 C119 0.929 . S
H84 C120 0.931 . S
H85 C122 0.929 . S
N86 C106 1.433 . S
N86 C112 1.435 . S
N86 C118 1.423 . S
H87 C123 0.932 . S
C88 N63 1.433 . S
C88 C89 1.363 . S
C88 C93 1.370 . S
C89 H62 0.929 . S
C89 C88 1.363 . S
C89 C90 1.385 . S
C90 H64 0.930 . S
C90 C89 1.385 . S
C90 C91 1.357 . S
C91 C90 1.357 . S
C91 C92 1.406 . S
C92 H66 0.929 . S
C92 C91 1.406 . S
C92 C93 1.391 . S
C93 H65 0.931 . S
C93 C88 1.370 . S
C93 C92 1.391 . S
C94 N63 1.435 . S
C94 C95 1.358 . S
C94 C99 1.371 . S
C95 H67 0.930 . S
C95 C94 1.358 . S
C95 C96 1.405 . S
C96 H68 0.932 . S
C96 C95 1.405 . S
C96 C97 1.383 . S
C97 C96 1.383 . S
C97 C98 1.393 . S
C98 H70 0.931 . S
C98 C97 1.393 . S
C98 C99 1.382 . S
C99 H69 0.929 . S
C99 C94 1.371 . S
C99 C98 1.382 . S
C100 N63 1.423 . S
C100 C101 1.362 . S
C100 C105 1.388 . S
C101 H71 0.929 . S
C101 C100 1.362 . S
C101 C102 1.376 . S
C102 H73 0.931 . S
C102 C101 1.376 . S
C102 C103 1.396 1_565 S
C103 C102 1.396 1_545 S
C103 C104 1.348 1_545 S
C103 C121 1.472 . S
C104 H74 0.929 1_565 S
C104 C103 1.348 1_565 S
C104 C105 1.443 . S
C105 H72 0.932 . S
C105 C100 1.388 . S
C105 C104 1.443 . S
C106 N86 1.433 . S
C106 C107 1.363 . S
C106 C111 1.370 . S
C107 H75 0.929 . S
C107 C106 1.363 . S
C107 C108 1.385 . S
C108 H76 0.930 . S
C108 C107 1.385 . S
C108 C109 1.357 . S
C109 C108 1.357 . S
C109 C110 1.406 . S
C110 H77 0.929 . S
C110 C109 1.406 . S
C110 C111 1.391 . S
C111 H78 0.931 . S
C111 C106 1.370 . S
C111 C110 1.391 . S
C112 N86 1.435 . S
C112 C113 1.358 . S
C112 C117 1.371 . S
C113 H79 0.930 . S
C113 C112 1.358 . S
C113 C114 1.405 . S
C114 H80 0.932 . S
C114 C113 1.405 . S
C114 C115 1.383 . S
C115 C114 1.383 . S
C115 C116 1.393 . S
C116 H81 0.931 . S
C116 C115 1.393 . S
C116 C117 1.382 . S
C117 H82 0.929 . S
C117 C112 1.371 . S
C117 C116 1.382 . S
C118 N86 1.423 . S
C118 C119 1.362 . S
C118 C123 1.388 . S
C119 H83 0.929 . S
C119 C118 1.362 . S
C119 C120 1.376 . S
C120 H84 0.931 . S
C120 C119 1.376 . S
C120 C121 1.396 . S
C121 C103 1.472 . S
C121 C120 1.396 . S
C121 C122 1.348 . S
C122 H85 0.929 . S
C122 C121 1.348 . S
C122 C123 1.443 . S
C123 H87 0.932 . S
C123 C118 1.388 . S
C123 C122 1.443 . S
H124 C151 0.929 . S
N125 C150 1.433 . S
N125 C156 1.435 . S
N125 C162 1.423 . S
H126 C152 0.930 . S
H127 C155 0.931 . S
H128 C154 0.929 . S
H129 C157 0.930 . S
H130 C158 0.932 . S
H131 C161 0.929 . S
H132 C160 0.931 . S
H133 C163 0.929 . S
H134 C167 0.932 . S
H135 C164 0.931 . S
H136 C166 0.929 . S
H137 C169 0.929 . S
H138 C170 0.930 . S
H139 C172 0.929 . S
H140 C173 0.931 . S
H141 C175 0.930 . S
H142 C176 0.932 . S
H143 C178 0.931 . S
H144 C179 0.929 . S
H145 C181 0.929 . S
H146 C182 0.931 . S
H147 C184 0.929 . S
N148 C168 1.433 . S
N148 C174 1.435 . S
N148 C180 1.423 . S
H149 C185 0.932 . S
C150 N125 1.433 . S
C150 C151 1.363 . S
C150 C155 1.370 . S
C151 H124 0.929 . S
C151 C150 1.363 . S
C151 C152 1.385 . S
C152 H126 0.930 . S
C152 C151 1.385 . S
C152 C153 1.357 . S
C153 C152 1.357 . S
C153 C154 1.406 . S
C154 H128 0.929 . S
C154 C153 1.406 . S
C154 C155 1.391 . S
C155 H127 0.931 . S
C155 C150 1.370 . S
C155 C154 1.391 . S
C156 N125 1.435 . S
C156 C157 1.358 . S
C156 C161 1.371 . S
C157 H129 0.930 . S
C157 C156 1.358 . S
C157 C158 1.405 . S
C158 H130 0.932 . S
C158 C157 1.405 . S
C158 C159 1.383 . S
C159 C158 1.383 . S
C159 C160 1.393 . S
C160 H132 0.931 . S
C160 C159 1.393 . S
C160 C161 1.382 . S
C161 H131 0.929 . S
C161 C156 1.371 . S
C161 C160 1.382 . S
C162 N125 1.423 . S
C162 C163 1.362 . S
C162 C167 1.388 . S
C163 H133 0.929 . S
C163 C162 1.362 . S
C163 C164 1.376 . S
C164 H135 0.931 . S
C164 C163 1.376 . S
C164 C165 1.396 . S
C165 C164 1.396 . S
C165 C166 1.348 . S
C165 C183 1.472 . S
C166 H136 0.929 . S
C166 C165 1.348 . S
C166 C167 1.443 . S
C167 H134 0.932 . S
C167 C162 1.388 . S
C167 C166 1.443 . S
C168 N148 1.433 . S
C168 C169 1.363 . S
C168 C173 1.370 . S
C169 H137 0.929 . S
C169 C168 1.363 . S
C169 C170 1.385 . S
C170 H138 0.930 . S
C170 C169 1.385 . S
C170 C171 1.357 . S
C171 C170 1.357 . S
C171 C172 1.406 . S
C172 H139 0.929 . S
C172 C171 1.406 . S
C172 C173 1.391 . S
C173 H140 0.931 . S
C173 C168 1.370 . S
C173 C172 1.391 . S
C174 N148 1.435 . S
C174 C175 1.358 . S
C174 C179 1.371 . S
C175 H141 0.930 . S
C175 C174 1.358 . S
C175 C176 1.405 . S
C176 H142 0.932 . S
C176 C175 1.405 . S
C176 C177 1.383 . S
C177 C176 1.383 . S
C177 C178 1.393 . S
C178 H143 0.931 . S
C178 C177 1.393 . S
C178 C179 1.382 . S
C179 H144 0.929 . S
C179 C174 1.371 . S
C179 C178 1.382 . S
C180 N148 1.423 . S
C180 C181 1.362 . S
C180 C185 1.388 . S
C181 H145 0.929 . S
C181 C180 1.362 . S
C181 C182 1.376 . S
C182 H146 0.931 . S
C182 C181 1.376 . S
C182 C183 1.396 . S
C183 C165 1.472 . S
C183 C182 1.396 . S
C183 C184 1.348 . S
C184 H147 0.929 . S
C184 C183 1.348 . S
C184 C185 1.443 . S
C185 H149 0.932 . S
C185 C180 1.388 . S
C185 C184 1.443 . S
H186 C213 0.929 . S
N187 C212 1.433 . S
N187 C218 1.435 . S
N187 C224 1.423 . S
H188 C214 0.930 . S
H189 C217 0.931 . S
H190 C216 0.929 . S
H191 C219 0.930 . S
H192 C220 0.932 . S
H193 C223 0.929 . S
H194 C222 0.931 . S
H195 C225 0.929 . S
H196 C229 0.932 . S
H197 C226 0.931 . S
H198 C228 0.929 . S
H199 C231 0.929 . S
H200 C232 0.930 . S
H201 C234 0.929 . S
H202 C235 0.931 . S
H203 C237 0.930 . S
H204 C238 0.932 . S
H205 C240 0.931 . S
H206 C241 0.929 . S
H207 C243 0.929 . S
H208 C244 0.931 . S
H209 C246 0.929 . S
N210 C230 1.433 . S
N210 C236 1.435 . S
N210 C242 1.423 . S
H211 C247 0.932 . S
C212 N187 1.433 . S
C212 C213 1.363 . S
C212 C217 1.370 . S
C213 H186 0.929 . S
C213 C212 1.363 . S
C213 C214 1.385 . S
C214 H188 0.930 . S
C214 C213 1.385 . S
C214 C215 1.357 . S
C215 C214 1.357 . S
C215 C216 1.406 . S
C216 H190 0.929 . S
C216 C215 1.406 . S
C216 C217 1.391 . S
C217 H189 0.931 . S
C217 C212 1.370 . S
C217 C216 1.391 . S
C218 N187 1.435 . S
C218 C219 1.358 . S
C218 C223 1.371 . S
C219 H191 0.930 . S
C219 C218 1.358 . S
C219 C220 1.405 . S
C220 H192 0.932 . S
C220 C219 1.405 . S
C220 C221 1.383 . S
C221 C220 1.383 . S
C221 C222 1.393 . S
C222 H194 0.931 . S
C222 C221 1.393 . S
C222 C223 1.382 . S
C223 H193 0.929 . S
C223 C218 1.371 . S
C223 C222 1.382 . S
C224 N187 1.423 . S
C224 C225 1.362 . S
C224 C229 1.388 . S
C225 H195 0.929 . S
C225 C224 1.362 . S
C225 C226 1.376 . S
C226 H197 0.931 . S
C226 C225 1.376 . S
C226 C227 1.396 . S
C227 C226 1.396 . S
C227 C228 1.348 . S
C227 C245 1.472 1_455 S
C228 H198 0.929 . S
C228 C227 1.348 . S
C228 C229 1.443 . S
C229 H196 0.932 . S
C229 C224 1.388 . S
C229 C228 1.443 . S
C230 N210 1.433 . S
C230 C231 1.363 . S
C230 C235 1.370 . S
C231 H199 0.929 . S
C231 C230 1.363 . S
C231 C232 1.385 . S
C232 H200 0.930 . S
C232 C231 1.385 . S
C232 C233 1.357 . S
C233 C232 1.357 . S
C233 C234 1.406 . S
C234 H201 0.929 . S
C234 C233 1.406 . S
C234 C235 1.391 . S
C235 H202 0.931 . S
C235 C230 1.370 . S
C235 C234 1.391 . S
C236 N210 1.435 . S
C236 C237 1.358 . S
C236 C241 1.371 . S
C237 H203 0.930 . S
C237 C236 1.358 . S
C237 C238 1.405 . S
C238 H204 0.932 . S
C238 C237 1.405 . S
C238 C239 1.383 . S
C239 C238 1.383 . S
C239 C240 1.393 . S
C240 H205 0.931 . S
C240 C239 1.393 . S
C240 C241 1.382 . S
C241 H206 0.929 . S
C241 C236 1.371 . S
C241 C240 1.382 . S
C242 N210 1.423 . S
C242 C243 1.362 . S
C242 C247 1.388 . S
C243 H207 0.929 . S
C243 C242 1.362 . S
C243 C244 1.376 . S
C244 H208 0.931 . S
C244 C243 1.376 . S
C244 C245 1.396 . S
C245 C227 1.472 1_655 S
C245 C244 1.396 . S
C245 C246 1.348 . S
C246 H209 0.929 . S
C246 C245 1.348 . S
C246 C247 1.443 . S
C247 H211 0.932 . S
C247 C242 1.388 . S
C247 C246 1.443 . S
H248 C275 0.929 . S
N249 C274 1.433 . S
N249 C280 1.435 . S
N249 C286 1.423 . S
H250 C276 0.930 . S
H251 C279 0.931 . S
H252 C278 0.929 . S
H253 C281 0.930 . S
H254 C282 0.932 . S
H255 C285 0.929 . S
H256 C284 0.931 . S
H257 C287 0.929 . S
H258 C291 0.932 . S
H259 C288 0.931 . S
H260 C290 0.929 . S
H261 C293 0.929 . S
H262 C294 0.930 . S
H263 C296 0.929 . S
H264 C297 0.931 . S
H265 C299 0.930 1_554 S
H266 C300 0.932 . S
H267 C302 0.931 . S
H268 C303 0.929 . S
H269 C305 0.929 . S
H270 C306 0.912 1_554 S
H271 C308 0.929 . S
N272 C292 1.433 . S
N272 C298 1.435 1_554 S
N272 C304 1.423 1_554 S
H273 C309 0.932 . S
C274 N249 1.433 . S
C274 C275 1.363 . S
C274 C279 1.370 . S
C275 H248 0.929 . S
C275 C274 1.363 . S
C275 C276 1.385 . S
C276 H250 0.930 . S
C276 C275 1.385 . S
C276 C277 1.357 1_556 S
C277 C276 1.357 1_554 S
C277 C278 1.406 . S
C278 H252 0.929 . S
C278 C277 1.406 . S
C278 C279 1.391 1_554 S
C279 H251 0.931 . S
C279 C274 1.370 . S
C279 C278 1.391 1_556 S
C280 N249 1.435 . S
C280 C281 1.358 . S
C280 C285 1.371 . S
C281 H253 0.930 . S
C281 C280 1.358 . S
C281 C282 1.405 . S
C282 H254 0.932 . S
C282 C281 1.405 . S
C282 C283 1.383 . S
C283 C282 1.383 . S
C283 C284 1.393 . S
C284 H256 0.931 . S
C284 C283 1.393 . S
C284 C285 1.382 . S
C285 H255 0.929 . S
C285 C280 1.371 . S
C285 C284 1.382 . S
C286 N249 1.423 . S
C286 C287 1.362 . S
C286 C291 1.388 . S
C287 H257 0.929 . S
C287 C286 1.362 . S
C287 C288 1.376 . S
C288 H259 0.931 . S
C288 C287 1.376 . S
C288 C289 1.396 . S
C289 C288 1.396 . S
C289 C290 1.348 . S
C289 C307 1.472 1_545 S
C290 H260 0.929 . S
C290 C289 1.348 . S
C290 C291 1.443 . S
C291 H258 0.932 . S
C291 C286 1.388 . S
C291 C290 1.443 . S
C292 N272 1.433 . S
C292 C293 1.363 . S
C292 C297 1.370 . S
C293 H261 0.929 . S
C293 C292 1.363 . S
C293 C294 1.385 . S
C294 H262 0.930 . S
C294 C293 1.385 . S
C294 C295 1.357 . S
C295 C294 1.357 . S
C295 C296 1.406 . S
C296 H263 0.929 . S
C296 C295 1.406 . S
C296 C297 1.391 . S
C297 H264 0.931 . S
C297 C292 1.370 . S
C297 C296 1.391 . S
C298 N272 1.435 1_556 S
C298 C299 1.358 . S
C298 C303 1.371 . S
C299 H265 0.930 1_556 S
C299 C298 1.358 . S
C299 C300 1.405 . S
C300 H266 0.932 . S
C300 C299 1.405 . S
C300 C301 1.383 . S
C301 C300 1.383 . S
C301 C302 1.393 . S
C302 H267 0.931 . S
C302 C301 1.393 . S
C302 C303 1.382 . S
C303 H268 0.929 . S
C303 C298 1.371 . S
C303 C302 1.382 . S
C304 N272 1.423 1_556 S
C304 C305 1.362 1_556 S
C304 C309 1.388 . S
C305 H269 0.929 . S
C305 C304 1.362 1_554 S
C305 C306 1.376 1_554 S
C306 H270 0.912 1_556 S
C306 C305 1.376 1_556 S
C306 C307 1.396 . S
C307 C289 1.472 1_565 S
C307 C306 1.396 . S
C307 C308 1.348 . S
C308 H271 0.929 . S
C308 C307 1.348 . S
C308 C309 1.443 . S
C309 H273 0.932 . S
C309 C304 1.388 . S
C309 C308 1.443 . S
H310 C337 0.929 . S
N311 C336 1.433 . S
N311 C342 1.435 . S
N311 C348 1.423 . S
H312 C338 0.930 . S
H313 C341 0.931 . S
H314 C340 0.929 . S
H315 C343 0.930 . S
H316 C344 0.932 . S
H317 C347 0.929 . S
H318 C346 0.931 . S
H319 C349 0.929 . S
H320 C353 0.932 . S
H321 C350 0.931 . S
H322 C352 0.929 . S
H323 C355 0.929 . S
H324 C356 0.930 . S
H325 C358 0.929 . S
H326 C359 0.931 . S
H327 C361 0.930 . S
H328 C362 0.932 . S
H329 C364 0.931 . S
H330 C365 0.929 . S
H331 C367 0.929 . S
H332 C368 0.931 . S
H333 C370 0.929 . S
N334 C354 1.433 . S
N334 C360 1.435 . S
N334 C366 1.423 . S
H335 C371 0.932 . S
C336 N311 1.433 . S
C336 C337 1.363 . S
C336 C341 1.370 . S
C337 H310 0.929 . S
C337 C336 1.363 . S
C337 C338 1.385 . S
C338 H312 0.930 . S
C338 C337 1.385 . S
C338 C339 1.357 . S
C339 C338 1.357 . S
C339 C340 1.406 . S
C340 H314 0.929 . S
C340 C339 1.406 . S
C340 C341 1.391 . S
C341 H313 0.931 . S
C341 C336 1.370 . S
C341 C340 1.391 . S
C342 N311 1.435 . S
C342 C343 1.358 . S
C342 C347 1.371 . S
C343 H315 0.930 . S
C343 C342 1.358 . S
C343 C344 1.405 . S
C344 H316 0.932 . S
C344 C343 1.405 . S
C344 C345 1.383 . S
C345 C344 1.383 . S
C345 C346 1.393 . S
C346 H318 0.931 . S
C346 C345 1.393 . S
C346 C347 1.382 . S
C347 H317 0.929 . S
C347 C342 1.371 . S
C347 C346 1.382 . S
C348 N311 1.423 . S
C348 C349 1.362 . S
C348 C353 1.388 . S
C349 H319 0.929 . S
C349 C348 1.362 . S
C349 C350 1.376 . S
C350 H321 0.931 . S
C350 C349 1.376 . S
C350 C351 1.396 . S
C351 C350 1.396 . S
C351 C352 1.348 . S
C351 C369 1.472 . S
C352 H322 0.929 . S
C352 C351 1.348 . S
C352 C353 1.443 . S
C353 H320 0.932 . S
C353 C348 1.388 . S
C353 C352 1.443 . S
C354 N334 1.433 . S
C354 C355 1.363 . S
C354 C359 1.370 . S
C355 H323 0.929 . S
C355 C354 1.363 . S
C355 C356 1.385 . S
C356 H324 0.930 . S
C356 C355 1.385 . S
C356 C357 1.357 . S
C357 C356 1.357 . S
C357 C358 1.406 . S
C358 H325 0.929 . S
C358 C357 1.406 . S
C358 C359 1.391 . S
C359 H326 0.931 . S
C359 C354 1.370 . S
C359 C358 1.391 . S
C360 N334 1.435 . S
C360 C361 1.358 . S
C360 C365 1.371 . S
C361 H327 0.930 . S
C361 C360 1.358 . S
C361 C362 1.405 . S
C362 H328 0.932 . S
C362 C361 1.405 . S
C362 C363 1.383 . S
C363 C362 1.383 . S
C363 C364 1.393 . S
C364 H329 0.931 . S
C364 C363 1.393 . S
C364 C365 1.382 . S
C365 H330 0.929 . S
C365 C360 1.371 . S
C365 C364 1.382 . S
C366 N334 1.423 . S
C366 C367 1.362 . S
C366 C371 1.388 . S
C367 H331 0.929 . S
C367 C366 1.362 . S
C367 C368 1.376 . S
C368 H332 0.931 . S
C368 C367 1.376 . S
C368 C369 1.396 . S
C369 C351 1.472 . S
C369 C368 1.396 . S
C369 C370 1.348 . S
C370 H333 0.929 . S
C370 C369 1.348 . S
C370 C371 1.443 . S
C371 H335 0.932 . S
C371 C366 1.388 . S
C371 C370 1.443 . S
O372 Cd373 2.223 . S
O372 C380 1.315 . S
Cd373 O372 2.223 . S
Cd373 O376 2.297 . S
Cd373 O377 2.439 . S
Cd373 O383 2.240 . S
Cd374 O375 2.240 . S
Cd374 O382 2.223 . S
Cd374 O384 2.297 . S
Cd374 O385 2.439 . S
O375 Cd374 2.240 . S
O375 C380 1.279 . S
O376 Cd373 2.297 . S
O376 C378 1.247 . S
O377 Cd373 2.439 . S
O377 C378 1.208 . S
C378 O376 1.247 . S
C378 O377 1.208 . S
C379 O384 1.247 . S
C379 O385 1.208 . S
C380 O372 1.315 . S
C380 O375 1.279 . S
C381 O382 1.315 . S
C381 O383 1.279 . S
O382 Cd374 2.223 . S
O382 C381 1.315 . S
O383 Cd373 2.240 . S
O383 C381 1.279 . S
O384 Cd374 2.297 . S
O384 C379 1.247 . S
O385 Cd374 2.439 . S
O385 C379 1.208 . S
O386 Cd387 2.223 . S
O386 C394 1.315 . S
Cd387 O386 2.223 . S
Cd387 O390 2.297 . S
Cd387 O391 2.439 . S
Cd387 O397 2.240 . S
Cd388 O389 2.240 . S
Cd388 O396 2.223 . S
Cd388 O398 2.297 . S
Cd388 O399 2.439 . S
O389 Cd388 2.240 . S
O389 C394 1.279 . S
O390 Cd387 2.297 . S
O390 C392 1.247 . S
O391 Cd387 2.439 . S
O391 C392 1.208 . S
C392 O390 1.247 . S
C392 O391 1.208 . S
C393 O398 1.247 . S
C393 O399 1.208 . S
C394 O386 1.315 . S
C394 O389 1.279 . S
C395 O396 1.315 . S
C395 O397 1.279 . S
O396 Cd388 2.223 . S
O396 C395 1.315 . S
O397 Cd387 2.240 . S
O397 C395 1.279 . S
O398 Cd388 2.297 . S
O398 C393 1.247 . S
O399 Cd388 2.439 . S
O399 C393 1.208 . S
O400 Cd401 2.223 . S
O400 C408 1.315 . S
Cd401 O400 2.223 . S
Cd401 O404 2.297 . S
Cd401 O405 2.439 . S
Cd401 O411 2.240 . S
Cd402 O403 2.240 . S
Cd402 O410 2.223 . S
Cd402 O412 2.297 . S
Cd402 O413 2.439 . S
O403 Cd402 2.240 . S
O403 C408 1.279 . S
O404 Cd401 2.297 . S
O404 C406 1.247 . S
O405 Cd401 2.439 . S
O405 C406 1.208 . S
C406 O404 1.247 . S
C406 O405 1.208 . S
C407 O412 1.247 . S
C407 O413 1.208 . S
C408 O400 1.315 . S
C408 O403 1.279 . S
C409 O410 1.315 . S
C409 O411 1.279 . S
O410 Cd402 2.223 . S
O410 C409 1.315 . S
O411 Cd401 2.240 . S
O411 C409 1.279 . S
O412 Cd402 2.297 . S
O412 C407 1.247 . S
O413 Cd402 2.439 . S
O413 C407 1.208 . S
O414 Cd415 2.223 . S
O414 C422 1.315 . S
Cd415 O414 2.223 . S
Cd415 O418 2.297 . S
Cd415 O419 2.439 . S
Cd415 O425 2.240 . S
Cd416 O417 2.240 . S
Cd416 O424 2.223 . S
Cd416 O426 2.297 . S
Cd416 O427 2.439 . S
O417 Cd416 2.240 . S
O417 C422 1.279 . S
O418 Cd415 2.297 . S
O418 C420 1.247 . S
O419 Cd415 2.439 . S
O419 C420 1.208 . S
C420 O418 1.247 . S
C420 O419 1.208 . S
C421 O426 1.247 . S
C421 O427 1.208 . S
C422 O414 1.315 . S
C422 O417 1.279 . S
C423 O424 1.315 . S
C423 O425 1.279 . S
O424 Cd416 2.223 . S
O424 C423 1.315 . S
O425 Cd415 2.240 . S
O425 C423 1.279 . S
O426 Cd416 2.297 . S
O426 C421 1.247 . S
O427 Cd416 2.439 . S
O427 C421 1.208 . S
O428 Cd429 2.223 . S
O428 C436 1.315 . S
Cd429 O428 2.223 . S
Cd429 O432 2.297 . S
Cd429 O433 2.439 . S
Cd429 O439 2.240 . S
Cd430 O431 2.240 . S
Cd430 O438 2.223 . S
Cd430 O440 2.297 . S
Cd430 O441 2.439 . S
O431 Cd430 2.240 . S
O431 C436 1.279 . S
O432 Cd429 2.297 . S
O432 C434 1.247 . S
O433 Cd429 2.439 . S
O433 C434 1.208 . S
C434 O432 1.247 . S
C434 O433 1.208 . S
C435 O440 1.247 . S
C435 O441 1.208 . S
C436 O428 1.315 . S
C436 O431 1.279 . S
C437 O438 1.315 . S
C437 O439 1.279 . S
O438 Cd430 2.223 . S
O438 C437 1.315 . S
O439 Cd429 2.240 . S
O439 C437 1.279 . S
O440 Cd430 2.297 . S
O440 C435 1.247 . S
O441 Cd430 2.439 . S
O441 C435 1.208 . S
O442 Cd443 2.223 . S
O442 C450 1.315 . S
Cd443 O442 2.223 . S
Cd443 O446 2.297 . S
Cd443 O447 2.439 . S
Cd443 O453 2.240 . S
Cd444 O445 2.240 . S
Cd444 O452 2.223 . S
Cd444 O454 2.297 . S
Cd444 O455 2.439 . S
O445 Cd444 2.240 . S
O445 C450 1.279 . S
O446 Cd443 2.297 . S
O446 C448 1.247 . S
O447 Cd443 2.439 . S
O447 C448 1.208 . S
C448 O446 1.247 . S
C448 O447 1.208 . S
C449 O454 1.247 . S
C449 O455 1.208 . S
C450 O442 1.315 . S
C450 O445 1.279 . S
C451 O452 1.315 . S
C451 O453 1.279 . S
O452 Cd444 2.223 . S
O452 C451 1.315 . S
O453 Cd443 2.240 . S
O453 C451 1.279 . S
O454 Cd444 2.297 . S
O454 C449 1.247 . S
O455 Cd444 2.439 . S
O455 C449 1.208 . S
H456 C468 0.930 . S
H457 C470 0.930 . S
H458 C471 0.930 . S
H459 C475 0.959 . S
H460 C475 0.959 . S
H461 C475 0.961 . S
H462 C476 0.960 . S
H463 C476 0.961 . S
H464 C476 0.959 . S
H465 C479 0.929 . S
H466 C480 0.931 . S
H467 C482 0.930 . S
C468 H456 0.930 . S
C468 C469 1.399 . S
C468 C473 1.399 . S
C469 C468 1.399 . S
C469 C470 1.376 . S
C470 H457 0.930 . S
C470 C469 1.376 . S
C470 C471 1.388 . S
C471 H458 0.930 . S
C471 C470 1.388 . S
C471 C472 1.390 . S
C472 C471 1.390 . S
C472 C473 1.394 . S
C472 C478 1.465 . S
C473 C468 1.399 . S
C473 C472 1.394 . S
C473 C474 1.516 . S
C474 C473 1.516 . S
C474 C475 1.502 . S
C474 C476 1.561 . S
C474 C477 1.526 . S
C475 H459 0.959 . S
C475 H460 0.959 . S
C475 H461 0.961 . S
C475 C474 1.502 . S
C476 H462 0.960 . S
C476 H463 0.961 . S
C476 H464 0.959 . S
C476 C474 1.561 . S
C477 C474 1.526 . S
C477 C478 1.396 . S
C477 C482 1.390 . S
C478 C472 1.465 . S
C478 C477 1.396 . S
C478 C479 1.399 . S
C479 H465 0.929 . S
C479 C478 1.399 . S
C479 C480 1.385 . S
C480 H466 0.931 . S
C480 C479 1.385 . S
C480 C481 1.389 . S
C481 C480 1.389 . S
C481 C482 1.387 . S
C482 H467 0.930 . S
C482 C477 1.390 . S
C482 C481 1.387 . S
H483 C495 0.930 . S
H484 C497 0.930 . S
H485 C498 0.930 . S
H486 C502 0.959 . S
H487 C502 0.959 . S
H488 C502 0.961 . S
H489 C503 0.960 . S
H490 C503 0.961 . S
H491 C503 0.959 . S
H492 C506 0.929 . S
H493 C507 0.931 . S
H494 C509 0.930 . S
C495 H483 0.930 . S
C495 C496 1.399 . S
C495 C500 1.399 . S
C496 C495 1.399 . S
C496 C497 1.376 . S
C497 H484 0.930 . S
C497 C496 1.376 . S
C497 C498 1.388 . S
C498 H485 0.930 . S
C498 C497 1.388 . S
C498 C499 1.390 . S
C499 C498 1.390 . S
C499 C500 1.394 . S
C499 C505 1.465 . S
C500 C495 1.399 . S
C500 C499 1.394 . S
C500 C501 1.516 . S
C501 C500 1.516 . S
C501 C502 1.502 . S
C501 C503 1.561 . S
C501 C504 1.526 . S
C502 H486 0.959 . S
C502 H487 0.959 . S
C502 H488 0.961 . S
C502 C501 1.502 . S
C503 H489 0.960 . S
C503 H490 0.961 . S
C503 H491 0.959 . S
C503 C501 1.561 . S
C504 C501 1.526 . S
C504 C505 1.396 . S
C504 C509 1.390 . S
C505 C499 1.465 . S
C505 C504 1.396 . S
C505 C506 1.399 . S
C506 H492 0.929 . S
C506 C505 1.399 . S
C506 C507 1.385 . S
C507 H493 0.931 . S
C507 C506 1.385 . S
C507 C508 1.389 . S
C508 C507 1.389 . S
C508 C509 1.387 . S
C509 H494 0.930 . S
C509 C504 1.390 . S
C509 C508 1.387 . S
H510 C522 0.930 . S
H511 C524 0.930 . S
H512 C525 0.930 . S
H513 C529 0.959 . S
H514 C529 0.959 . S
H515 C529 0.961 . S
H516 C530 0.960 . S
H517 C530 0.961 . S
H518 C530 0.959 . S
H519 C533 0.929 . S
H520 C534 0.931 . S
H521 C536 0.930 . S
C522 H510 0.930 . S
C522 C523 1.399 . S
C522 C527 1.399 . S
C523 C522 1.399 . S
C523 C524 1.376 . S
C524 H511 0.930 . S
C524 C523 1.376 . S
C524 C525 1.388 . S
C525 H512 0.930 . S
C525 C524 1.388 . S
C525 C526 1.390 . S
C526 C525 1.390 . S
C526 C527 1.394 . S
C526 C532 1.465 . S
C527 C522 1.399 . S
C527 C526 1.394 . S
C527 C528 1.516 . S
C528 C527 1.516 . S
C528 C529 1.502 . S
C528 C530 1.561 . S
C528 C531 1.526 . S
C529 H513 0.959 . S
C529 H514 0.959 . S
C529 H515 0.961 . S
C529 C528 1.502 . S
C530 H516 0.960 . S
C530 H517 0.961 . S
C530 H518 0.959 . S
C530 C528 1.561 . S
C531 C528 1.526 . S
C531 C532 1.396 . S
C531 C536 1.390 . S
C532 C526 1.465 . S
C532 C531 1.396 . S
C532 C533 1.399 . S
C533 H519 0.929 . S
C533 C532 1.399 . S
C533 C534 1.385 . S
C534 H520 0.931 . S
C534 C533 1.385 . S
C534 C535 1.389 . S
C535 C534 1.389 . S
C535 C536 1.387 . S
C536 H521 0.930 . S
C536 C531 1.390 . S
C536 C535 1.387 . S
H537 C549 0.930 . S
H538 C551 0.930 . S
H539 C552 0.930 . S
H540 C556 0.959 . S
H541 C556 0.959 . S
H542 C556 0.961 . S
H543 C557 0.960 . S
H544 C557 0.961 . S
H545 C557 0.959 . S
H546 C560 0.929 . S
H547 C561 0.931 . S
H548 C563 0.930 . S
C549 H537 0.930 . S
C549 C550 1.399 . S
C549 C554 1.399 . S
C550 C549 1.399 . S
C550 C551 1.376 . S
C551 H538 0.930 . S
C551 C550 1.376 . S
C551 C552 1.388 . S
C552 H539 0.930 . S
C552 C551 1.388 . S
C552 C553 1.390 . S
C553 C552 1.390 . S
C553 C554 1.394 . S
C553 C559 1.465 . S
C554 C549 1.399 . S
C554 C553 1.394 . S
C554 C555 1.516 . S
C555 C554 1.516 . S
C555 C556 1.502 . S
C555 C557 1.561 . S
C555 C558 1.526 . S
C556 H540 0.959 . S
C556 H541 0.959 . S
C556 H542 0.961 . S
C556 C555 1.502 . S
C557 H543 0.960 . S
C557 H544 0.961 . S
C557 H545 0.959 . S
C557 C555 1.561 . S
C558 C555 1.526 . S
C558 C559 1.396 . S
C558 C563 1.390 . S
C559 C553 1.465 . S
C559 C558 1.396 . S
C559 C560 1.399 . S
C560 H546 0.929 . S
C560 C559 1.399 . S
C560 C561 1.385 . S
C561 H547 0.931 . S
C561 C560 1.385 . S
C561 C562 1.389 . S
C562 C561 1.389 . S
C562 C563 1.387 . S
C563 H548 0.930 . S
C563 C558 1.390 . S
C563 C562 1.387 . S
H564 C576 0.930 . S
H565 C578 0.930 . S
H566 C579 0.930 . S
H567 C583 0.959 . S
H568 C583 0.959 . S
H569 C583 0.961 . S
H570 C584 0.960 . S
H571 C584 0.961 . S
H572 C584 0.959 . S
H573 C587 0.929 . S
H574 C588 0.931 . S
H575 C590 0.930 . S
C576 H564 0.930 . S
C576 C577 1.399 . S
C576 C581 1.399 . S
C577 C576 1.399 . S
C577 C578 1.376 . S
C578 H565 0.930 . S
C578 C577 1.376 . S
C578 C579 1.388 . S
C579 H566 0.930 . S
C579 C578 1.388 . S
C579 C580 1.390 . S
C580 C579 1.390 . S
C580 C581 1.394 . S
C580 C586 1.465 . S
C581 C576 1.399 . S
C581 C580 1.394 . S
C581 C582 1.516 . S
C582 C581 1.516 . S
C582 C583 1.502 . S
C582 C584 1.561 . S
C582 C585 1.526 . S
C583 H567 0.959 . S
C583 H568 0.959 . S
C583 H569 0.961 . S
C583 C582 1.502 . S
C584 H570 0.960 . S
C584 H571 0.961 . S
C584 H572 0.959 . S
C584 C582 1.561 . S
C585 C582 1.526 . S
C585 C586 1.396 . S
C585 C590 1.390 . S
C586 C580 1.465 . S
C586 C585 1.396 . S
C586 C587 1.399 . S
C587 H573 0.929 . S
C587 C586 1.399 . S
C587 C588 1.385 . S
C588 H574 0.931 . S
C588 C587 1.385 . S
C588 C589 1.389 . S
C589 C588 1.389 . S
C589 C590 1.387 . S
C590 H575 0.930 . S
C590 C585 1.390 . S
C590 C589 1.387 . S
H591 C603 0.930 . S
H592 C605 0.930 . S
H593 C606 0.930 . S
H594 C610 0.959 . S
H595 C610 0.959 . S
H596 C610 0.961 . S
H597 C611 0.960 . S
H598 C611 0.961 . S
H599 C611 0.959 . S
H600 C614 0.929 . S
H601 C615 0.931 . S
H602 C617 0.930 . S
C603 H591 0.930 . S
C603 C604 1.399 . S
C603 C608 1.399 . S
C604 C603 1.399 . S
C604 C605 1.376 . S
C605 H592 0.930 . S
C605 C604 1.376 . S
C605 C606 1.388 . S
C606 H593 0.930 . S
C606 C605 1.388 . S
C606 C607 1.390 . S
C607 C606 1.390 . S
C607 C608 1.394 . S
C607 C613 1.465 . S
C608 C603 1.399 . S
C608 C607 1.394 . S
C608 C609 1.516 . S
C609 C608 1.516 . S
C609 C610 1.502 . S
C609 C611 1.561 . S
C609 C612 1.526 . S
C610 H594 0.959 . S
C610 H595 0.959 . S
C610 H596 0.961 . S
C610 C609 1.502 . S
C611 H597 0.960 . S
C611 H598 0.961 . S
C611 H599 0.959 . S
C611 C609 1.561 . S
C612 C609 1.526 . S
C612 C613 1.396 . S
C612 C617 1.390 . S
C613 C607 1.465 . S
C613 C612 1.396 . S
C613 C614 1.399 . S
C614 H600 0.929 . S
C614 C613 1.399 . S
C614 C615 1.385 . S
C615 H601 0.931 . S
C615 C614 1.385 . S
C615 C616 1.389 . S
C616 C615 1.389 . S
C616 C617 1.387 . S
C617 H602 0.930 . S
C617 C612 1.390 . S
C617 C616 1.387 . S
H618 C630 0.930 . S
H619 C632 0.930 . S
H620 C633 0.930 . S
H621 C637 0.959 . S
H622 C637 0.959 . S
H623 C637 0.961 . S
H624 C638 0.960 . S
H625 C638 0.961 . S
H626 C638 0.959 . S
H627 C641 0.929 . S
H628 C642 0.931 . S
H629 C644 0.930 . S
C630 H618 0.930 . S
C630 C631 1.399 . S
C630 C635 1.399 . S
C631 C630 1.399 . S
C631 C632 1.376 . S
C632 H619 0.930 . S
C632 C631 1.376 . S
C632 C633 1.388 . S
C633 H620 0.930 . S
C633 C632 1.388 . S
C633 C634 1.390 . S
C634 C633 1.390 . S
C634 C635 1.394 . S
C634 C640 1.465 . S
C635 C630 1.399 . S
C635 C634 1.394 . S
C635 C636 1.516 . S
C636 C635 1.516 . S
C636 C637 1.502 . S
C636 C638 1.561 . S
C636 C639 1.526 . S
C637 H621 0.959 . S
C637 H622 0.959 . S
C637 H623 0.961 . S
C637 C636 1.502 . S
C638 H624 0.960 . S
C638 H625 0.961 . S
C638 H626 0.959 . S
C638 C636 1.561 . S
C639 C636 1.526 . S
C639 C640 1.396 . S
C639 C644 1.390 . S
C640 C634 1.465 . S
C640 C639 1.396 . S
C640 C641 1.399 . S
C641 H627 0.929 . S
C641 C640 1.399 . S
C641 C642 1.385 . S
C642 H628 0.931 . S
C642 C641 1.385 . S
C642 C643 1.389 . S
C643 C642 1.389 . S
C643 C644 1.387 . S
C644 H629 0.930 . S
C644 C639 1.390 . S
C644 C643 1.387 . S
H645 C657 0.930 . S
H646 C659 0.930 . S
H647 C660 0.930 . S
H648 C664 0.959 . S
H649 C664 0.959 . S
H650 C664 0.961 . S
H651 C665 0.960 . S
H652 C665 0.961 . S
H653 C665 0.959 . S
H654 C668 0.929 . S
H655 C669 0.931 . S
H656 C671 0.930 . S
C657 H645 0.930 . S
C657 C658 1.399 . S
C657 C662 1.399 . S
C658 C657 1.399 . S
C658 C659 1.376 . S
C659 H646 0.930 . S
C659 C658 1.376 . S
C659 C660 1.388 . S
C660 H647 0.930 . S
C660 C659 1.388 . S
C660 C661 1.390 . S
C661 C660 1.390 . S
C661 C662 1.394 . S
C661 C667 1.465 . S
C662 C657 1.399 . S
C662 C661 1.394 . S
C662 C663 1.516 . S
C663 C662 1.516 . S
C663 C664 1.502 . S
C663 C665 1.561 . S
C663 C666 1.526 . S
C664 H648 0.959 . S
C664 H649 0.959 . S
C664 H650 0.961 . S
C664 C663 1.502 . S
C665 H651 0.960 . S
C665 H652 0.961 . S
C665 H653 0.959 . S
C665 C663 1.561 . S
C666 C663 1.526 . S
C666 C667 1.396 . S
C666 C671 1.390 . S
C667 C661 1.465 . S
C667 C666 1.396 . S
C667 C668 1.399 . S
C668 H654 0.929 . S
C668 C667 1.399 . S
C668 C669 1.385 . S
C669 H655 0.931 . S
C669 C668 1.385 . S
C669 C670 1.389 . S
C670 C669 1.389 . S
C670 C671 1.387 . S
C671 H656 0.930 . S
C671 C666 1.390 . S
C671 C670 1.387 . S
H672 C684 0.930 . S
H673 C686 0.930 . S
H674 C687 0.930 . S
H675 C691 0.959 . S
H676 C691 0.959 . S
H677 C691 0.961 . S
H678 C692 0.960 . S
H679 C692 0.961 . S
H680 C692 0.959 . S
H681 C695 0.929 . S
H682 C696 0.931 . S
H683 C698 0.930 . S
C684 H672 0.930 . S
C684 C685 1.399 . S
C684 C689 1.399 . S
C685 C684 1.399 . S
C685 C686 1.376 . S
C686 H673 0.930 . S
C686 C685 1.376 . S
C686 C687 1.388 . S
C687 H674 0.930 . S
C687 C686 1.388 . S
C687 C688 1.390 . S
C688 C687 1.390 . S
C688 C689 1.394 . S
C688 C694 1.465 . S
C689 C684 1.399 . S
C689 C688 1.394 . S
C689 C690 1.516 . S
C690 C689 1.516 . S
C690 C691 1.502 . S
C690 C692 1.561 . S
C690 C693 1.526 . S
C691 H675 0.959 . S
C691 H676 0.959 . S
C691 H677 0.961 . S
C691 C690 1.502 . S
C692 H678 0.960 . S
C692 H679 0.961 . S
C692 H680 0.959 . S
C692 C690 1.561 . S
C693 C690 1.526 . S
C693 C694 1.396 . S
C693 C698 1.390 . S
C694 C688 1.465 . S
C694 C693 1.396 . S
C694 C695 1.399 . S
C695 H681 0.929 . S
C695 C694 1.399 . S
C695 C696 1.385 . S
C696 H682 0.931 . S
C696 C695 1.385 . S
C696 C697 1.389 . S
C697 C696 1.389 . S
C697 C698 1.387 . S
C698 H683 0.930 . S
C698 C693 1.390 . S
C698 C697 1.387 . S
H699 C711 0.930 . S
H700 C713 0.930 . S
H701 C714 0.930 . S
H702 C718 0.959 . S
H703 C718 0.959 . S
H704 C718 0.961 . S
H705 C719 0.960 . S
H706 C719 0.961 . S
H707 C719 0.959 . S
H708 C722 0.929 . S
H709 C723 0.931 . S
H710 C725 0.930 . S
C711 H699 0.930 . S
C711 C712 1.399 . S
C711 C716 1.399 . S
C712 C711 1.399 . S
C712 C713 1.376 . S
C713 H700 0.930 . S
C713 C712 1.376 . S
C713 C714 1.388 . S
C714 H701 0.930 . S
C714 C713 1.388 . S
C714 C715 1.390 . S
C715 C714 1.390 . S
C715 C716 1.394 . S
C715 C721 1.465 . S
C716 C711 1.399 . S
C716 C715 1.394 . S
C716 C717 1.516 . S
C717 C716 1.516 . S
C717 C718 1.502 . S
C717 C719 1.561 . S
C717 C720 1.526 . S
C718 H702 0.959 . S
C718 H703 0.959 . S
C718 H704 0.961 . S
C718 C717 1.502 . S
C719 H705 0.960 . S
C719 H706 0.961 . S
C719 H707 0.959 . S
C719 C717 1.561 . S
C720 C717 1.526 . S
C720 C721 1.396 . S
C720 C725 1.390 . S
C721 C715 1.465 . S
C721 C720 1.396 . S
C721 C722 1.399 . S
C722 H708 0.929 . S
C722 C721 1.399 . S
C722 C723 1.385 . S
C723 H709 0.931 . S
C723 C722 1.385 . S
C723 C724 1.389 . S
C724 C723 1.389 . S
C724 C725 1.387 . S
C725 H710 0.930 . S
C725 C720 1.390 . S
C725 C724 1.387 . S
H726 C738 0.930 . S
H727 C740 0.930 . S
H728 C741 0.930 . S
H729 C745 0.959 . S
H730 C745 0.959 . S
H731 C745 0.961 . S
H732 C746 0.960 . S
H733 C746 0.961 . S
H734 C746 0.959 . S
H735 C749 0.929 . S
H736 C750 0.931 . S
H737 C752 0.930 . S
C738 H726 0.930 . S
C738 C739 1.399 . S
C738 C743 1.399 . S
C739 C738 1.399 . S
C739 C740 1.376 . S
C740 H727 0.930 . S
C740 C739 1.376 . S
C740 C741 1.388 . S
C741 H728 0.930 . S
C741 C740 1.388 . S
C741 C742 1.390 . S
C742 C741 1.390 . S
C742 C743 1.394 . S
C742 C748 1.465 . S
C743 C738 1.399 . S
C743 C742 1.394 . S
C743 C744 1.516 . S
C744 C743 1.516 . S
C744 C745 1.502 . S
C744 C746 1.561 . S
C744 C747 1.526 . S
C745 H729 0.959 . S
C745 H730 0.959 . S
C745 H731 0.961 . S
C745 C744 1.502 . S
C746 H732 0.960 . S
C746 H733 0.961 . S
C746 H734 0.959 . S
C746 C744 1.561 . S
C747 C744 1.526 . S
C747 C748 1.396 . S
C747 C752 1.390 . S
C748 C742 1.465 . S
C748 C747 1.396 . S
C748 C749 1.399 . S
C749 H735 0.929 . S
C749 C748 1.399 . S
C749 C750 1.385 . S
C750 H736 0.931 . S
C750 C749 1.385 . S
C750 C751 1.389 . S
C751 C750 1.389 . S
C751 C752 1.387 . S
C752 H737 0.930 . S
C752 C747 1.390 . S
C752 C751 1.387 . S
H753 C765 0.930 . S
H754 C767 0.930 . S
H755 C768 0.930 . S
H756 C772 0.959 . S
H757 C772 0.959 . S
H758 C772 0.961 . S
H759 C773 0.960 . S
H760 C773 0.961 . S
H761 C773 0.959 . S
H762 C776 0.929 . S
H763 C777 0.931 . S
H764 C779 0.930 . S
C765 H753 0.930 . S
C765 C766 1.399 . S
C765 C770 1.399 . S
C766 C765 1.399 . S
C766 C767 1.376 . S
C767 H754 0.930 . S
C767 C766 1.376 . S
C767 C768 1.388 . S
C768 H755 0.930 . S
C768 C767 1.388 . S
C768 C769 1.390 . S
C769 C768 1.390 . S
C769 C770 1.394 . S
C769 C775 1.465 . S
C770 C765 1.399 . S
C770 C769 1.394 . S
C770 C771 1.516 . S
C771 C770 1.516 . S
C771 C772 1.502 . S
C771 C773 1.561 . S
C771 C774 1.526 . S
C772 H756 0.959 . S
C772 H757 0.959 . S
C772 H758 0.961 . S
C772 C771 1.502 . S
C773 H759 0.960 . S
C773 H760 0.961 . S
C773 H761 0.959 . S
C773 C771 1.561 . S
C774 C771 1.526 . S
C774 C775 1.396 . S
C774 C779 1.390 . S
C775 C769 1.465 . S
C775 C774 1.396 . S
C775 C776 1.399 . S
C776 H762 0.929 . S
C776 C775 1.399 . S
C776 C777 1.385 . S
C777 H763 0.931 . S
C777 C776 1.385 . S
C777 C778 1.389 . S
C778 C777 1.389 . S
C778 C779 1.387 . S
C779 H764 0.930 . S
C779 C774 1.390 . S
C779 C778 1.387 . S
H780 C792 0.930 . S
H781 C794 0.930 . S
H782 C795 0.930 . S
H783 C799 0.959 . S
H784 C799 0.959 . S
H785 C799 0.961 . S
H786 C800 0.960 . S
H787 C800 0.961 . S
H788 C800 0.959 . S
H789 C803 0.929 . S
H790 C804 0.931 . S
H791 C806 0.930 . S
C792 H780 0.930 . S
C792 C793 1.399 . S
C792 C797 1.399 . S
C793 C792 1.399 . S
C793 C794 1.376 . S
C794 H781 0.930 . S
C794 C793 1.376 . S
C794 C795 1.388 . S
C795 H782 0.930 . S
C795 C794 1.388 . S
C795 C796 1.390 . S
C796 C795 1.390 . S
C796 C797 1.394 . S
C796 C802 1.465 . S
C797 C792 1.399 . S
C797 C796 1.394 . S
C797 C798 1.516 . S
C798 C797 1.516 . S
C798 C799 1.502 . S
C798 C800 1.561 . S
C798 C801 1.526 . S
C799 H783 0.959 . S
C799 H784 0.959 . S
C799 H785 0.961 . S
C799 C798 1.502 . S
C800 H786 0.960 . S
C800 H787 0.961 . S
C800 H788 0.959 . S
C800 C798 1.561 . S
C801 C798 1.526 . S
C801 C802 1.396 . S
C801 C806 1.390 . S
C802 C796 1.465 . S
C802 C801 1.396 . S
C802 C803 1.399 . S
C803 H789 0.929 . S
C803 C802 1.399 . S
C803 C804 1.385 . S
C804 H790 0.931 . S
C804 C803 1.385 . S
C804 C805 1.389 . S
C805 C804 1.389 . S
C805 C806 1.387 . S
C806 H791 0.930 . S
C806 C801 1.390 . S
C806 C805 1.387 . S
H807 C819 0.930 . S
H808 C821 0.930 . S
H809 C822 0.930 . S
H810 C826 0.959 . S
H811 C826 0.959 . S
H812 C826 0.961 . S
H813 C827 0.960 . S
H814 C827 0.961 . S
H815 C827 0.959 . S
H816 C830 0.929 . S
H817 C831 0.931 . S
H818 C833 0.930 . S
C819 H807 0.930 . S
C819 C820 1.399 . S
C819 C824 1.399 . S
C820 C819 1.399 . S
C820 C821 1.376 . S
C821 H808 0.930 . S
C821 C820 1.376 . S
C821 C822 1.388 . S
C822 H809 0.930 . S
C822 C821 1.388 . S
C822 C823 1.390 . S
C823 C822 1.390 . S
C823 C824 1.394 . S
C823 C829 1.465 . S
C824 C819 1.399 . S
C824 C823 1.394 . S
C824 C825 1.516 . S
C825 C824 1.516 . S
C825 C826 1.502 . S
C825 C827 1.561 . S
C825 C828 1.526 . S
C826 H810 0.959 . S
C826 H811 0.959 . S
C826 H812 0.961 . S
C826 C825 1.502 . S
C827 H813 0.960 . S
C827 H814 0.961 . S
C827 H815 0.959 . S
C827 C825 1.561 . S
C828 C825 1.526 . S
C828 C829 1.396 . S
C828 C833 1.390 . S
C829 C823 1.465 . S
C829 C828 1.396 . S
C829 C830 1.399 . S
C830 H816 0.929 . S
C830 C829 1.399 . S
C830 C831 1.385 . S
C831 H817 0.931 . S
C831 C830 1.385 . S
C831 C832 1.389 . S
C832 C831 1.389 . S
C832 C833 1.387 . S
C833 H818 0.930 . S
C833 C828 1.390 . S
C833 C832 1.387 . S
H834 C846 0.930 . S
H835 C848 0.930 . S
H836 C849 0.930 . S
H837 C853 0.959 . S
H838 C853 0.959 . S
H839 C853 0.961 . S
H840 C854 0.960 . S
H841 C854 0.961 . S
H842 C854 0.959 . S
H843 C857 0.929 . S
H844 C858 0.931 . S
H845 C860 0.930 . S
C846 H834 0.930 . S
C846 C847 1.399 . S
C846 C851 1.399 . S
C847 C846 1.399 . S
C847 C848 1.376 . S
C848 H835 0.930 . S
C848 C847 1.376 . S
C848 C849 1.388 . S
C849 H836 0.930 . S
C849 C848 1.388 . S
C849 C850 1.390 . S
C850 C849 1.390 . S
C850 C851 1.394 . S
C850 C856 1.465 . S
C851 C846 1.399 . S
C851 C850 1.394 . S
C851 C852 1.516 . S
C852 C851 1.516 . S
C852 C853 1.502 . S
C852 C854 1.561 . S
C852 C855 1.526 . S
C853 H837 0.959 . S
C853 H838 0.959 . S
C853 H839 0.961 . S
C853 C852 1.502 . S
C854 H840 0.960 . S
C854 H841 0.961 . S
C854 H842 0.959 . S
C854 C852 1.561 . S
C855 C852 1.526 . S
C855 C856 1.396 . S
C855 C860 1.390 . S
C856 C850 1.465 . S
C856 C855 1.396 . S
C856 C857 1.399 . S
C857 H843 0.929 . S
C857 C856 1.399 . S
C857 C858 1.385 . S
C858 H844 0.931 . S
C858 C857 1.385 . S
C858 C859 1.389 . S
C859 C858 1.389 . S
C859 C860 1.387 . S
C860 H845 0.930 . S
C860 C855 1.390 . S
C860 C859 1.387 . S
H861 C873 0.930 . S
H862 C875 0.930 . S
H863 C876 0.930 . S
H864 C880 0.959 . S
H865 C880 0.959 . S
H866 C880 0.961 . S
H867 C881 0.960 . S
H868 C881 0.961 . S
H869 C881 0.959 . S
H870 C884 0.931 . S
H871 C885 0.931 . S
H872 C887 0.930 . S
C873 H861 0.930 . S
C873 C874 1.399 . S
C873 C878 1.399 . S
C874 C873 1.399 . S
C874 C875 1.376 . S
C875 H862 0.930 . S
C875 C874 1.376 . S
C875 C876 1.388 . S
C876 H863 0.930 . S
C876 C875 1.388 . S
C876 C877 1.390 . S
C877 C876 1.390 . S
C877 C878 1.394 . S
C877 C883 1.465 . S
C878 C873 1.399 . S
C878 C877 1.394 . S
C878 C879 1.516 . S
C879 C878 1.516 . S
C879 C880 1.502 . S
C879 C881 1.561 . S
C879 C882 1.526 . S
C880 H864 0.959 . S
C880 H865 0.959 . S
C880 H866 0.961 . S
C880 C879 1.502 . S
C881 H867 0.960 . S
C881 H868 0.961 . S
C881 H869 0.959 . S
C881 C879 1.561 . S
C882 C879 1.526 . S
C882 C883 1.396 . S
C882 C887 1.390 . S
C883 C877 1.465 . S
C883 C882 1.396 . S
C883 C884 1.399 . S
C884 H870 0.931 . S
C884 C883 1.399 . S
C884 C885 1.385 1_556 S
C885 H871 0.931 . S
C885 C884 1.385 1_554 S
C885 C886 1.389 . S
C886 C885 1.389 . S
C886 C887 1.387 1_554 S
C887 H872 0.930 . S
C887 C882 1.390 . S
C887 C886 1.387 1_556 S
H888 C900 0.930 . S
H889 C902 0.930 . S
H890 C903 0.930 . S
H891 C907 0.959 . S
H892 C907 0.959 . S
H893 C907 0.961 . S
H894 C908 0.960 . S
H895 C908 0.961 . S
H896 C908 0.959 . S
H897 C911 0.929 . S
H898 C912 0.931 . S
H899 C914 0.930 . S
C900 H888 0.930 . S
C900 C901 1.399 . S
C900 C905 1.399 . S
C901 C900 1.399 . S
C901 C902 1.376 . S
C902 H889 0.930 . S
C902 C901 1.376 . S
C902 C903 1.388 . S
C903 H890 0.930 . S
C903 C902 1.388 . S
C903 C904 1.390 . S
C904 C903 1.390 . S
C904 C905 1.394 . S
C904 C910 1.465 . S
C905 C900 1.399 . S
C905 C904 1.394 . S
C905 C906 1.516 . S
C906 C905 1.516 . S
C906 C907 1.502 . S
C906 C908 1.561 . S
C906 C909 1.526 . S
C907 H891 0.959 . S
C907 H892 0.959 . S
C907 H893 0.961 . S
C907 C906 1.502 . S
C908 H894 0.960 . S
C908 H895 0.961 . S
C908 H896 0.959 . S
C908 C906 1.561 . S
C909 C906 1.526 . S
C909 C910 1.396 . S
C909 C914 1.390 . S
C910 C904 1.465 . S
C910 C909 1.396 . S
C910 C911 1.399 . S
C911 H897 0.929 . S
C911 C910 1.399 . S
C911 C912 1.385 . S
C912 H898 0.931 . S
C912 C911 1.385 . S
C912 C913 1.389 . S
C913 C912 1.389 . S
C913 C914 1.387 . S
C914 H899 0.930 . S
C914 C909 1.390 . S
C914 C913 1.387 . S
H915 C927 0.930 . S
H916 C929 0.930 . S
H917 C930 0.930 . S
H918 C934 0.959 . S
H919 C934 0.959 . S
H920 C934 0.961 . S
H921 C935 0.960 . S
H922 C935 0.961 . S
H923 C935 0.959 . S
H924 C938 0.929 . S
H925 C939 0.931 . S
H926 C941 0.930 . S
C927 H915 0.930 . S
C927 C928 1.399 . S
C927 C932 1.399 . S
C928 C927 1.399 . S
C928 C929 1.376 . S
C929 H916 0.930 . S
C929 C928 1.376 . S
C929 C930 1.388 . S
C930 H917 0.930 . S
C930 C929 1.388 . S
C930 C931 1.390 . S
C931 C930 1.390 . S
C931 C932 1.394 . S
C931 C937 1.465 . S
C932 C927 1.399 . S
C932 C931 1.394 . S
C932 C933 1.516 . S
C933 C932 1.516 . S
C933 C934 1.502 . S
C933 C935 1.561 . S
C933 C936 1.526 . S
C934 H918 0.959 . S
C934 H919 0.959 . S
C934 H920 0.961 . S
C934 C933 1.502 . S
C935 H921 0.960 . S
C935 H922 0.961 . S
C935 H923 0.959 . S
C935 C933 1.561 . S
C936 C933 1.526 . S
C936 C937 1.396 . S
C936 C941 1.390 . S
C937 C931 1.465 . S
C937 C936 1.396 . S
C937 C938 1.399 . S
C938 H924 0.929 . S
C938 C937 1.399 . S
C938 C939 1.385 . S
C939 H925 0.931 . S
C939 C938 1.385 . S
C939 C940 1.389 . S
C940 C939 1.389 . S
C940 C941 1.387 . S
C941 H926 0.930 . S
C941 C936 1.390 . S
C941 C940 1.387 . S
H942 C954 0.930 . S
H943 C956 0.930 . S
H944 C957 0.930 . S
H945 C961 0.959 . S
H946 C961 0.959 . S
H947 C961 0.961 . S
H948 C962 0.960 . S
H949 C962 0.961 . S
H950 C962 0.959 . S
H951 C965 0.929 . S
H952 C966 0.931 . S
H953 C968 0.930 . S
C954 H942 0.930 . S
C954 C955 1.399 . S
C954 C959 1.399 . S
C955 C954 1.399 . S
C955 C956 1.376 . S
C956 H943 0.930 . S
C956 C955 1.376 . S
C956 C957 1.388 . S
C957 H944 0.930 . S
C957 C956 1.388 . S
C957 C958 1.390 . S
C958 C957 1.390 . S
C958 C959 1.394 . S
C958 C964 1.465 . S
C959 C954 1.399 . S
C959 C958 1.394 . S
C959 C960 1.516 . S
C960 C959 1.516 . S
C960 C961 1.502 . S
C960 C962 1.561 . S
C960 C963 1.526 . S
C961 H945 0.959 . S
C961 H946 0.959 . S
C961 H947 0.961 . S
C961 C960 1.502 . S
C962 H948 0.960 . S
C962 H949 0.961 . S
C962 H950 0.959 . S
C962 C960 1.561 . S
C963 C960 1.526 . S
C963 C964 1.396 . S
C963 C968 1.390 . S
C964 C958 1.465 . S
C964 C963 1.396 . S
C964 C965 1.399 . S
C965 H951 0.929 . S
C965 C964 1.399 . S
C965 C966 1.385 . S
C966 H952 0.931 . S
C966 C965 1.385 . S
C966 C967 1.389 . S
C967 C966 1.389 . S
C967 C968 1.387 . S
C968 H953 0.930 . S
C968 C963 1.390 . S
C968 C967 1.387 . S
H969 C981 0.930 . S
H970 C983 0.930 . S
H971 C984 0.930 . S
H972 C988 0.959 . S
H973 C988 0.959 . S
H974 C988 0.961 . S
H975 C989 0.960 . S
H976 C989 0.961 . S
H977 C989 0.959 . S
H978 C992 0.929 . S
H979 C993 0.931 . S
H980 C995 0.930 . S
C981 H969 0.930 . S
C981 C982 1.399 . S
C981 C986 1.399 . S
C982 C981 1.399 . S
C982 C983 1.376 . S
C983 H970 0.930 . S
C983 C982 1.376 . S
C983 C984 1.388 . S
C984 H971 0.930 . S
C984 C983 1.388 . S
C984 C985 1.390 . S
C985 C984 1.390 . S
C985 C986 1.394 . S
C985 C991 1.465 . S
C986 C981 1.399 . S
C986 C985 1.394 . S
C986 C987 1.516 . S
C987 C986 1.516 . S
C987 C988 1.502 . S
C987 C989 1.561 . S
C987 C990 1.526 . S
C988 H972 0.959 . S
C988 H973 0.959 . S
C988 H974 0.961 . S
C988 C987 1.502 . S
C989 H975 0.960 . S
C989 H976 0.961 . S
C989 H977 0.959 . S
C989 C987 1.561 . S
C990 C987 1.526 . S
C990 C991 1.396 . S
C990 C995 1.390 . S
C991 C985 1.465 . S
C991 C990 1.396 . S
C991 C992 1.399 . S
C992 H978 0.929 . S
C992 C991 1.399 . S
C992 C993 1.385 . S
C993 H979 0.931 . S
C993 C992 1.385 . S
C993 C994 1.389 . S
C994 C993 1.389 . S
C994 C995 1.387 . S
C995 H980 0.930 . S
C995 C990 1.390 . S
C995 C994 1.387 . S
H996 C1008 0.930 . S
H997 C1010 0.930 . S
H998 C1011 0.930 . S
H999 C1015 0.959 . S
H1000 C1015 0.959 . S
H1001 C1015 0.961 . S
H1002 C1016 0.960 . S
H1003 C1016 0.961 . S
H1004 C1016 0.959 . S
H1005 C1019 0.929 . S
H1006 C1020 0.931 . S
H1007 C1022 0.930 . S
C1008 H996 0.930 . S
C1008 C1009 1.399 . S
C1008 C1013 1.399 . S
C1009 C1008 1.399 . S
C1009 C1010 1.376 . S
C1010 H997 0.930 . S
C1010 C1009 1.376 . S
C1010 C1011 1.388 . S
C1011 H998 0.930 . S
C1011 C1010 1.388 . S
C1011 C1012 1.390 . S
C1012 C1011 1.390 . S
C1012 C1013 1.394 . S
C1012 C1018 1.465 . S
C1013 C1008 1.399 . S
C1013 C1012 1.394 . S
C1013 C1014 1.516 . S
C1014 C1013 1.516 . S
C1014 C1015 1.502 . S
C1014 C1016 1.561 . S
C1014 C1017 1.526 . S
C1015 H999 0.959 . S
C1015 H1000 0.959 . S
C1015 H1001 0.961 . S
C1015 C1014 1.502 . S
C1016 H1002 0.960 . S
C1016 H1003 0.961 . S
C1016 H1004 0.959 . S
C1016 C1014 1.561 . S
C1017 C1014 1.526 . S
C1017 C1018 1.396 . S
C1017 C1022 1.390 . S
C1018 C1012 1.465 . S
C1018 C1017 1.396 . S
C1018 C1019 1.399 . S
C1019 H1005 0.929 . S
C1019 C1018 1.399 . S
C1019 C1020 1.385 . S
C1020 H1006 0.931 . S
C1020 C1019 1.385 . S
C1020 C1021 1.389 . S
C1021 C1020 1.389 . S
C1021 C1022 1.387 . S
C1022 H1007 0.930 . S
C1022 C1017 1.390 . S
C1022 C1021 1.387 . S
H1023 C1035 0.930 . S
H1024 C1037 0.930 . S
H1025 C1038 0.930 . S
H1026 C1042 0.959 . S
H1027 C1042 0.959 . S
H1028 C1042 0.961 . S
H1029 C1043 0.960 . S
H1030 C1043 0.961 . S
H1031 C1043 0.959 . S
H1032 C1046 0.929 . S
H1033 C1047 0.931 . S
H1034 C1049 0.930 . S
C1035 H1023 0.930 . S
C1035 C1036 1.399 . S
C1035 C1040 1.399 . S
C1036 C1035 1.399 . S
C1036 C1037 1.376 . S
C1037 H1024 0.930 . S
C1037 C1036 1.376 . S
C1037 C1038 1.388 . S
C1038 H1025 0.930 . S
C1038 C1037 1.388 . S
C1038 C1039 1.390 . S
C1039 C1038 1.390 . S
C1039 C1040 1.394 . S
C1039 C1045 1.465 . S
C1040 C1035 1.399 . S
C1040 C1039 1.394 . S
C1040 C1041 1.516 . S
C1041 C1040 1.516 . S
C1041 C1042 1.502 . S
C1041 C1043 1.561 . S
C1041 C1044 1.526 . S
C1042 H1026 0.959 . S
C1042 H1027 0.959 . S
C1042 H1028 0.961 . S
C1042 C1041 1.502 . S
C1043 H1029 0.960 . S
C1043 H1030 0.961 . S
C1043 H1031 0.959 . S
C1043 C1041 1.561 . S
C1044 C1041 1.526 . S
C1044 C1045 1.396 . S
C1044 C1049 1.390 . S
C1045 C1039 1.465 . S
C1045 C1044 1.396 . S
C1045 C1046 1.399 . S
C1046 H1032 0.929 . S
C1046 C1045 1.399 . S
C1046 C1047 1.385 . S
C1047 H1033 0.931 . S
C1047 C1046 1.385 . S
C1047 C1048 1.389 . S
C1048 C1047 1.389 . S
C1048 C1049 1.387 . S
C1049 H1034 0.930 . S
C1049 C1044 1.390 . S
C1049 C1048 1.387 . S
H1050 C1062 0.935 . S
H1051 C1064 0.930 . S
H1052 C1065 0.930 . S
H1053 C1069 0.959 . S
H1054 C1069 0.959 . S
H1055 C1069 0.961 . S
H1056 C1070 0.960 . S
H1057 C1070 0.961 . S
H1058 C1070 0.959 . S
H1059 C1073 0.929 . S
H1060 C1074 0.931 . S
H1061 C1076 0.930 . S
C1062 H1050 0.935 . S
C1062 C1063 1.399 . S
C1062 C1067 1.399 1_554 S
C1063 C1062 1.399 . S
C1063 C1064 1.376 . S
C1064 H1051 0.930 . S
C1064 C1063 1.376 . S
C1064 C1065 1.388 . S
C1065 H1052 0.930 . S
C1065 C1064 1.388 . S
C1065 C1066 1.427 . S
C1066 C1065 1.427 . S
C1066 C1067 1.381 1_554 S
C1066 C1072 1.436 1_554 S
C1067 C1062 1.399 1_556 S
C1067 C1066 1.381 1_556 S
C1067 C1068 1.516 . S
C1068 C1067 1.516 . S
C1068 C1069 1.502 . S
C1068 C1070 1.561 . S
C1068 C1071 1.526 . S
C1069 H1053 0.959 . S
C1069 H1054 0.959 . S
C1069 H1055 0.961 . S
C1069 C1068 1.502 . S
C1070 H1056 0.960 . S
C1070 H1057 0.961 . S
C1070 H1058 0.959 . S
C1070 C1068 1.561 . S
C1071 C1068 1.526 . S
C1071 C1072 1.396 . S
C1071 C1076 1.390 . S
C1072 C1066 1.436 1_556 S
C1072 C1071 1.396 . S
C1072 C1073 1.399 . S
C1073 H1059 0.929 . S
C1073 C1072 1.399 . S
C1073 C1074 1.385 . S
C1074 H1060 0.931 . S
C1074 C1073 1.385 . S
C1074 C1075 1.389 . S
C1075 C1074 1.389 . S
C1075 C1076 1.387 . S
C1076 H1061 0.930 . S
C1076 C1071 1.390 . S
C1076 C1075 1.387 . S
H1077 C1089 0.930 . S
H1078 C1091 0.930 . S
H1079 C1092 0.930 . S
H1080 C1096 0.959 . S
H1081 C1096 0.959 . S
H1082 C1096 0.961 . S
H1083 C1097 0.960 . S
H1084 C1097 0.961 . S
H1085 C1097 0.959 . S
H1086 C1100 0.929 . S
H1087 C1101 0.931 . S
H1088 C1103 0.930 . S
C1089 H1077 0.930 . S
C1089 C1090 1.399 . S
C1089 C1094 1.399 . S
C1090 C1089 1.399 . S
C1090 C1091 1.376 . S
C1091 H1078 0.930 . S
C1091 C1090 1.376 . S
C1091 C1092 1.388 . S
C1092 H1079 0.930 . S
C1092 C1091 1.388 . S
C1092 C1093 1.390 . S
C1093 C1092 1.390 . S
C1093 C1094 1.394 . S
C1093 C1099 1.465 . S
C1094 C1089 1.399 . S
C1094 C1093 1.394 . S
C1094 C1095 1.516 . S
C1095 C1094 1.516 . S
C1095 C1096 1.502 . S
C1095 C1097 1.561 . S
C1095 C1098 1.526 . S
C1096 H1080 0.959 . S
C1096 H1081 0.959 . S
C1096 H1082 0.961 . S
C1096 C1095 1.502 . S
C1097 H1083 0.960 . S
C1097 H1084 0.961 . S
C1097 H1085 0.959 . S
C1097 C1095 1.561 . S
C1098 C1095 1.526 . S
C1098 C1099 1.396 . S
C1098 C1103 1.390 . S
C1099 C1093 1.465 . S
C1099 C1098 1.396 . S
C1099 C1100 1.399 . S
C1100 H1086 0.929 . S
C1100 C1099 1.399 . S
C1100 C1101 1.385 . S
C1101 H1087 0.931 . S
C1101 C1100 1.385 . S
C1101 C1102 1.389 . S
C1102 C1101 1.389 . S
C1102 C1103 1.387 . S
C1103 H1088 0.930 . S
C1103 C1098 1.390 . S
C1103 C1102 1.387 . S
C481 C449 1.502 . S
C469 C29 1.424 . S
C496 C115 1.388 . S
C508 C378 1.427 . S
C523 C153 1.469 . S
C535 C392 1.518 . S
C550 C239 1.359 . S
C562 C406 1.362 . S
C589 C420 1.463 . S
C577 C301 1.463 . S
C604 C339 1.621 . S
C616 C435 1.796 . S
C631 C91 1.413 . S
C643 C393 1.520 . S
C658 C177 1.400 . S
C670 C407 1.419 . S
C685 C215 1.470 . S
C697 C421 1.486 . S
C724 C434 1.803 . S
C712 C277 1.622 . S
C751 C448 1.453 . S
C739 C363 1.474 . S
C778 C379 1.391 . S
C766 C53 1.337 . S
C793 C35 1.616 . S
C805 C395 1.640 . S
C820 C109 1.368 . S
C832 C409 1.559 . S
C859 C423 1.494 . S
C847 C159 1.446 . S
C874 C233 1.674 . S
C886 C436 1.790 . S
C913 C450 1.624 . S
C901 C295 1.404 . S
C940 C381 1.494 . S
C928 C345 1.444 . S
C967 C451 1.470 . S
C955 C97 1.508 . S
C982 C171 1.388 . S
C994 C380 1.527 . S
C1021 C394 1.597 . S
C1009 C221 1.629 . S
C1036 C283 1.440 . S
C1048 C408 1.492 . S
C1063 C357 1.406 . S
C1075 C422 1.591 . S
C1090 C47 1.600 . S
C1102 C437 1.787 . S
