# Generated by pormake.
# Topology pyr, (3,6)-cn, num edge types: 1
# Building blocks:
#     Node 0, Type 0, BuildingBlock: KAKCAD_clean_linker_0, # of connection points: 3
#     Node 1, Type 0, BuildingBlock: KAKCAD_clean_linker_0, # of connection points: 3
#     Node 2, Type 0, BuildingBlock: KAKCAD_clean_linker_0, # of connection points: 3
#     Node 3, Type 0, BuildingBlock: KAKCAD_clean_linker_0, # of connection points: 3
#     Node 4, Type 0, BuildingBlock: KAKCAD_clean_linker_0, # of connection points: 3
#     Node 5, Type 0, BuildingBlock: KAKCAD_clean_linker_0, # of connection points: 3
#     Node 6, Type 0, BuildingBlock: KAKCAD_clean_linker_0, # of connection points: 3
#     Node 7, Type 0, BuildingBlock: KAKCAD_clean_linker_0, # of connection points: 3
#     Node 8, Type 1, BuildingBlock: BETGAK_clean_sbu_0, # of connection points: 6
#     Node 9, Type 1, BuildingBlock: BETGAK_clean_sbu_0, # of connection points: 6
#     Node 10, Type 1, BuildingBlock: BETGAK_clean_sbu_0, # of connection points: 6
#     Node 11, Type 1, BuildingBlock: BETGAK_clean_sbu_0, # of connection points: 6
#     Edge 12, Type (0, 1), BuildingBlock: XIVTED_clean_linker_0, # of connection points: 2
#     Edge 13, Type (0, 1), BuildingBlock: XIVTED_clean_linker_0, # of connection points: 2
#     Edge 14, Type (0, 1), BuildingBlock: XIVTED_clean_linker_0, # of connection points: 2
#     Edge 15, Type (0, 1), BuildingBlock: XIVTED_clean_linker_0, # of connection points: 2
#     Edge 16, Type (0, 1), BuildingBlock: XIVTED_clean_linker_0, # of connection points: 2
#     Edge 17, Type (0, 1), BuildingBlock: XIVTED_clean_linker_0, # of connection points: 2
#     Edge 18, Type (0, 1), BuildingBlock: XIVTED_clean_linker_0, # of connection points: 2
#     Edge 19, Type (0, 1), BuildingBlock: XIVTED_clean_linker_0, # of connection points: 2
#     Edge 20, Type (0, 1), BuildingBlock: XIVTED_clean_linker_0, # of connection points: 2
#     Edge 21, Type (0, 1), BuildingBlock: XIVTED_clean_linker_0, # of connection points: 2
#     Edge 22, Type (0, 1), BuildingBlock: XIVTED_clean_linker_0, # of connection points: 2
#     Edge 23, Type (0, 1), BuildingBlock: XIVTED_clean_linker_0, # of connection points: 2
#     Edge 24, Type (0, 1), BuildingBlock: XIVTED_clean_linker_0, # of connection points: 2
#     Edge 25, Type (0, 1), BuildingBlock: XIVTED_clean_linker_0, # of connection points: 2
#     Edge 26, Type (0, 1), BuildingBlock: XIVTED_clean_linker_0, # of connection points: 2
#     Edge 27, Type (0, 1), BuildingBlock: XIVTED_clean_linker_0, # of connection points: 2
#     Edge 28, Type (0, 1), BuildingBlock: XIVTED_clean_linker_0, # of connection points: 2
#     Edge 29, Type (0, 1), BuildingBlock: XIVTED_clean_linker_0, # of connection points: 2
#     Edge 30, Type (0, 1), BuildingBlock: XIVTED_clean_linker_0, # of connection points: 2
#     Edge 31, Type (0, 1), BuildingBlock: XIVTED_clean_linker_0, # of connection points: 2
#     Edge 32, Type (0, 1), BuildingBlock: XIVTED_clean_linker_0, # of connection points: 2
#     Edge 33, Type (0, 1), BuildingBlock: XIVTED_clean_linker_0, # of connection points: 2
#     Edge 34, Type (0, 1), BuildingBlock: XIVTED_clean_linker_0, # of connection points: 2
#     Edge 35, Type (0, 1), BuildingBlock: XIVTED_clean_linker_0, # of connection points: 2
# Relax obj value: 0.094
# Max RMSD: 0.119
# Mean RMSD: 0.057
data_MOF--net-pyr--node1-BETGAK_clean_sbu_0--node2-KAKCAD_clean_linker_0--edge1-XIVTED_clean_linker_0
_symmetry_space_group_name_H-M    P1
_symmetry_Int_Tables_number       1
_symmetry_cell_setting            triclinic
loop_
_symmetry_equiv_pos_as_xyz
'x, y, z'
_cell_length_a     46.584059
_cell_length_b     49.399694
_cell_length_c     44.431554
_cell_angle_alpha  90.718014
_cell_angle_beta   88.677739
_cell_angle_gamma 101.67998
loop_
_atom_site_label
_atom_site_type_symbol
_atom_site_fract_x
_atom_site_fract_y
_atom_site_fract_z
_atom_type_partial_charge
C0 C 0.26554 0.26481 0.31712 0.0
C1 C 0.27863 0.25315 0.34049 0.0
C2 C 0.28185 0.27531 0.29173 0.0
C3 C 0.3119 0.2748 0.28907 0.0
C4 C 0.32539 0.26428 0.31311 0.0
C5 C 0.30886 0.2534 0.33852 0.0
C6 C 0.32779 0.28254 0.25997 0.0
C7 C 0.32026 0.30326 0.24215 0.0
C8 C 0.32907 0.30615 0.21174 0.0
C9 C 0.34747 0.28931 0.19967 0.0
C10 C 0.35649 0.26946 0.21757 0.0
C11 C 0.34675 0.26627 0.24769 0.0
C12 C 0.37262 0.24941 0.2038 0.0
C13 C 0.36113 0.2337 0.17875 0.0
C14 C 0.39845 0.24468 0.21646 0.0
C15 C 0.4127 0.22463 0.20409 0.0
C16 C 0.40102 0.20851 0.17918 0.0
C17 C 0.31476 0.32327 0.19193 0.0
C18 C 0.30218 0.312 0.16493 0.0
C19 C 0.30965 0.34904 0.20191 0.0
C20 C 0.29057 0.36219 0.18649 0.0
C21 C 0.27622 0.34982 0.16079 0.0
C22 C 0.28313 0.32515 0.14953 0.0
C23 C 0.37497 0.21333 0.16676 0.0
H24 H 0.24219 0.26435 0.31755 0.0
H25 H 0.27032 0.28237 0.27348 0.0
H26 H 0.34852 0.26379 0.31196 0.0
H27 H 0.31953 0.24461 0.35629 0.0
H28 H 0.30548 0.31575 0.25134 0.0
H29 H 0.35197 0.24952 0.26064 0.0
H30 H 0.35403 0.291 0.17609 0.0
H31 H 0.34088 0.23661 0.16898 0.0
H32 H 0.40766 0.25658 0.23585 0.0
H33 H 0.43292 0.22193 0.21402 0.0
H34 H 0.30545 0.29209 0.15673 0.0
H35 H 0.31926 0.35835 0.2225 0.0
H36 H 0.36475 0.20097 0.14815 0.0
H37 H 0.27281 0.31535 0.12949 0.0
H38 H 0.2857 0.38116 0.1958 0.0
C39 C 0.32209 0.8968 0.71721 0.0
C40 C 0.35281 0.90351 0.71736 0.0
C41 C 0.30753 0.88627 0.69127 0.0
C42 C 0.32335 0.88264 0.6647 0.0
C43 C 0.3542 0.88865 0.66512 0.0
C44 C 0.36881 0.89884 0.69134 0.0
C45 C 0.30753 0.87372 0.63648 0.0
C46 C 0.28229 0.88363 0.6298 0.0
C47 C 0.26678 0.8753 0.60353 0.0
C48 C 0.27699 0.8573 0.58322 0.0
C49 C 0.30227 0.84715 0.58945 0.0
C50 C 0.31736 0.85541 0.6162 0.0
C51 C 0.31227 0.82684 0.56901 0.0
C52 C 0.29206 0.8045 0.55702 0.0
C53 C 0.34234 0.8284 0.5634 0.0
C54 C 0.35213 0.80699 0.54827 0.0
C55 C 0.33204 0.78359 0.53823 0.0
C56 C 0.24029 0.8862 0.59741 0.0
C57 C 0.21879 0.88603 0.62015 0.0
C58 C 0.23758 0.89894 0.56989 0.0
C59 C 0.21463 0.91273 0.56584 0.0
C60 C 0.19393 0.91373 0.58914 0.0
C61 C 0.19571 0.89959 0.616 0.0
C62 C 0.30186 0.78311 0.54169 0.0
H63 H 0.30932 0.89977 0.73723 0.0
H64 H 0.28379 0.88115 0.69201 0.0
H65 H 0.36705 0.88629 0.64499 0.0
H66 H 0.39256 0.90393 0.69101 0.0
H67 H 0.27492 0.89846 0.64477 0.0
H68 H 0.33625 0.84689 0.6217 0.0
H69 H 0.26514 0.85108 0.56274 0.0
H70 H 0.26873 0.80272 0.56094 0.0
H71 H 0.3584 0.84566 0.57183 0.0
H72 H 0.37554 0.80805 0.54629 0.0
H73 H 0.22036 0.8761 0.64149 0.0
H74 H 0.25396 0.89939 0.55209 0.0
H75 H 0.28582 0.7656 0.53381 0.0
H76 H 0.18009 0.90015 0.63434 0.0
H77 H 0.21348 0.92325 0.54479 0.0
C78 C 0.75458 0.42958 0.9142 0.0
C79 C 0.77711 0.41566 0.92144 0.0
C80 C 0.72896 0.41561 0.9002 0.0
C81 C 0.72492 0.38724 0.89319 0.0
C82 C 0.74755 0.37341 0.90002 0.0
C83 C 0.77323 0.38738 0.91378 0.0
C84 C 0.69692 0.37189 0.87976 0.0
C85 C 0.68351 0.38337 0.8563 0.0
C86 C 0.65704 0.36915 0.84367 0.0
C87 C 0.64389 0.34285 0.85538 0.0
C88 C 0.65673 0.33092 0.87916 0.0
C89 C 0.68343 0.34566 0.8907 0.0
C90 C 0.64254 0.30331 0.89247 0.0
C91 C 0.62769 0.28139 0.87452 0.0
C92 C 0.64452 0.29836 0.92348 0.0
C93 C 0.63288 0.27238 0.93594 0.0
C94 C 0.61835 0.25029 0.91803 0.0
C95 C 0.64337 0.38196 0.81835 0.0
C96 C 0.64465 0.41072 0.81756 0.0
C97 C 0.62955 0.36585 0.79435 0.0
C98 C 0.61783 0.37811 0.77027 0.0
C99 C 0.61943 0.40693 0.76935 0.0
C100 C 0.63297 0.42295 0.79354 0.0
C101 C 0.61578 0.25536 0.88708 0.0
H102 H 0.75634 0.4512 0.91998 0.0
H103 H 0.71192 0.42691 0.89561 0.0
H104 H 0.74552 0.35169 0.89452 0.0
H105 H 0.79017 0.37593 0.91819 0.0
H106 H 0.69427 0.40321 0.84731 0.0
H107 H 0.69384 0.33675 0.90856 0.0
H108 H 0.62317 0.33207 0.8466 0.0
H109 H 0.62573 0.28412 0.85057 0.0
H110 H 0.65514 0.31464 0.9384 0.0
H111 H 0.63586 0.26962 0.9597 0.0
H112 H 0.65464 0.42396 0.83567 0.0
H113 H 0.62823 0.34371 0.79381 0.0
H114 H 0.60441 0.23925 0.8724 0.0
H115 H 0.63509 0.44518 0.79379 0.0
H116 H 0.60731 0.36485 0.75244 0.0
C117 C 0.90291 0.62779 0.29294 0.0
C118 C 0.91248 0.6417 0.26591 0.0
C119 C 0.88998 0.64081 0.31638 0.0
C120 C 0.8863 0.66829 0.31376 0.0
C121 C 0.89611 0.68237 0.28687 0.0
C122 C 0.90883 0.66921 0.26322 0.0
C123 C 0.87167 0.68174 0.33876 0.0
C124 C 0.8465 0.66665 0.35376 0.0
C125 C 0.83247 0.67848 0.37751 0.0
C126 C 0.84409 0.70598 0.38615 0.0
C127 C 0.86914 0.72178 0.37173 0.0
C128 C 0.88274 0.70937 0.34794 0.0
C129 C 0.8809 0.75096 0.3823 0.0
C130 C 0.86162 0.76808 0.39201 0.0
C131 C 0.91126 0.76153 0.38445 0.0
C132 C 0.92186 0.78798 0.39679 0.0
C133 C 0.90244 0.80458 0.40751 0.0
C134 C 0.80568 0.66234 0.39346 0.0
C135 C 0.78387 0.64406 0.37767 0.0
C136 C 0.80132 0.6656 0.42467 0.0
C137 C 0.77582 0.65158 0.43947 0.0
C138 C 0.75383 0.63351 0.4237 0.0
C139 C 0.7584 0.62984 0.39255 0.0
C140 C 0.87218 0.79432 0.40453 0.0
H141 H 0.905 0.60656 0.2959 0.0
H142 H 0.88302 0.6293 0.33676 0.0
H143 H 0.8935 0.70345 0.28386 0.0
H144 H 0.91611 0.68075 0.24294 0.0
H145 H 0.83784 0.6455 0.34696 0.0
H146 H 0.90202 0.72116 0.33663 0.0
H147 H 0.83353 0.7152 0.40442 0.0
H148 H 0.83814 0.76118 0.39008 0.0
H149 H 0.92688 0.74903 0.37753 0.0
H150 H 0.94531 0.79506 0.3988 0.0
H151 H 0.78616 0.64108 0.35362 0.0
H152 H 0.81769 0.67905 0.43787 0.0
H153 H 0.85651 0.80665 0.41183 0.0
H154 H 0.74234 0.61587 0.37953 0.0
H155 H 0.77322 0.65541 0.46332 0.0
C156 C 0.73993 0.77328 0.7319 0.0
C157 C 0.74439 0.80009 0.72014 0.0
C158 C 0.72694 0.76766 0.76046 0.0
C159 C 0.7188 0.78891 0.7781 0.0
C160 C 0.72152 0.81524 0.76529 0.0
C161 C 0.73396 0.82068 0.73662 0.0
C162 C 0.71145 0.78501 0.81083 0.0
C163 C 0.7264 0.76899 0.82822 0.0
C164 C 0.72382 0.76892 0.85973 0.0
C165 C 0.70635 0.78547 0.8741 0.0
C166 C 0.69081 0.80145 0.8572 0.0
C167 C 0.69276 0.80024 0.82555 0.0
C168 C 0.67462 0.82111 0.87247 0.0
C169 C 0.66025 0.81479 0.9005 0.0
C170 C 0.67459 0.84706 0.85966 0.0
C171 C 0.66065 0.86609 0.87442 0.0
C172 C 0.64694 0.85993 0.90263 0.0
C173 C 0.74166 0.75335 0.87733 0.0
C174 C 0.74315 0.72613 0.86905 0.0
C175 C 0.75905 0.76624 0.90091 0.0
C176 C 0.77848 0.75257 0.91506 0.0
C177 C 0.78081 0.72569 0.90599 0.0
C178 C 0.76242 0.71242 0.88328 0.0
C179 C 0.64681 0.83412 0.91555 0.0
H180 H 0.74756 0.75697 0.71952 0.0
H181 H 0.72453 0.74695 0.76924 0.0
H182 H 0.71605 0.83234 0.77812 0.0
H183 H 0.73747 0.84167 0.72838 0.0
H184 H 0.74173 0.75791 0.81747 0.0
H185 H 0.68035 0.81189 0.81227 0.0
H186 H 0.70563 0.78643 0.89846 0.0
H187 H 0.65937 0.79493 0.91089 0.0
H188 H 0.68602 0.8531 0.83855 0.0
H189 H 0.66132 0.88601 0.86418 0.0
H190 H 0.72972 0.71561 0.85116 0.0
H191 H 0.75861 0.78733 0.9075 0.0
H192 H 0.63611 0.82883 0.9372 0.0
H193 H 0.76319 0.69152 0.87619 0.0
H194 H 0.79253 0.76353 0.93223 0.0
C195 C 0.73948 0.23245 0.30845 0.0
C196 C 0.71908 0.24876 0.30168 0.0
C197 C 0.74975 0.23188 0.33759 0.0
C198 C 0.7401 0.24783 0.36066 0.0
C199 C 0.72088 0.26532 0.3535 0.0
C200 C 0.7103 0.26563 0.32432 0.0
C201 C 0.74818 0.24426 0.39235 0.0
C202 C 0.776 0.23934 0.39907 0.0
C203 C 0.78249 0.23218 0.42834 0.0
C204 C 0.76134 0.23201 0.45151 0.0
C205 C 0.73387 0.23771 0.44528 0.0
C206 C 0.72724 0.24339 0.41572 0.0
C207 C 0.71192 0.23829 0.46956 0.0
C208 C 0.68406 0.22113 0.46804 0.0
C209 C 0.71761 0.25839 0.49231 0.0
C210 C 0.69496 0.26309 0.51153 0.0
C211 C 0.66627 0.24745 0.50856 0.0
C212 C 0.81005 0.22238 0.43408 0.0
C213 C 0.82165 0.20646 0.41224 0.0
C214 C 0.8236 0.22675 0.46217 0.0
C215 C 0.8467 0.2139 0.46898 0.0
C216 C 0.85724 0.19678 0.44765 0.0
C217 C 0.84515 0.19413 0.41882 0.0
C218 C 0.66152 0.22539 0.48769 0.0
H219 H 0.74622 0.21879 0.29165 0.0
H220 H 0.76405 0.21775 0.34227 0.0
H221 H 0.71342 0.27827 0.3706 0.0
H222 H 0.69471 0.27852 0.31964 0.0
H223 H 0.7925 0.2406 0.38129 0.0
H224 H 0.70553 0.24679 0.41101 0.0
H225 H 0.76555 0.22635 0.47423 0.0
H226 H 0.67941 0.20523 0.4508 0.0
H227 H 0.73902 0.27185 0.49376 0.0
H228 H 0.69962 0.28045 0.52699 0.0
H229 H 0.81177 0.2023 0.39041 0.0
H230 H 0.81578 0.2394 0.47934 0.0
H231 H 0.63999 0.21239 0.4853 0.0
H232 H 0.85313 0.18171 0.40153 0.0
H233 H 0.85525 0.21638 0.49152 0.0
C234 C 0.26732 0.64147 0.20243 0.0
C235 C 0.26377 0.64377 0.17123 0.0
C236 C 0.2935 0.65432 0.21625 0.0
C237 C 0.31708 0.66964 0.19924 0.0
C238 C 0.31364 0.67129 0.16789 0.0
C239 C 0.28738 0.65876 0.15419 0.0
C240 C 0.34482 0.68436 0.21397 0.0
C241 C 0.35621 0.6731 0.23909 0.0
C242 C 0.3823 0.68687 0.25286 0.0
C243 C 0.39705 0.71255 0.24096 0.0
C244 C 0.38619 0.72417 0.21577 0.0
C245 C 0.36011 0.70995 0.20276 0.0
C246 C 0.4018 0.75105 0.20238 0.0
C247 C 0.40969 0.77511 0.22012 0.0
C248 C 0.4074 0.75309 0.17113 0.0
C249 C 0.42035 0.77841 0.15793 0.0
C250 C 0.42768 0.80266 0.17546 0.0
C251 C 0.39418 0.67401 0.27926 0.0
C252 C 0.37529 0.66081 0.30228 0.0
C253 C 0.42434 0.67411 0.28139 0.0
C254 C 0.43515 0.66106 0.30545 0.0
C255 C 0.41623 0.64776 0.3284 0.0
C256 C 0.38613 0.64805 0.32648 0.0
C257 C 0.42218 0.80065 0.20679 0.0
H258 H 0.24954 0.63028 0.21634 0.0
H259 H 0.29493 0.65274 0.24043 0.0
H260 H 0.33134 0.68218 0.15371 0.0
H261 H 0.28572 0.66057 0.13005 0.0
H262 H 0.34522 0.65309 0.24744 0.0
H263 H 0.35137 0.71935 0.18405 0.0
H264 H 0.41704 0.72346 0.25117 0.0
H265 H 0.40549 0.77432 0.2442 0.0
H266 H 0.40165 0.73499 0.1568 0.0
H267 H 0.42406 0.77912 0.13377 0.0
H268 H 0.35198 0.66043 0.30169 0.0
H269 H 0.43961 0.68381 0.26409 0.0
H270 H 0.42773 0.81883 0.22103 0.0
H271 H 0.37073 0.63791 0.34344 0.0
H272 H 0.45848 0.66159 0.30615 0.0
C273 C 0.1452 0.27253 0.68018 0.0
C274 C 0.11452 0.26436 0.67929 0.0
C275 C 0.15845 0.29767 0.69356 0.0
C276 C 0.14153 0.31585 0.70607 0.0
C277 C 0.11074 0.30738 0.70574 0.0
C278 C 0.09744 0.28193 0.69268 0.0
C279 C 0.15622 0.34367 0.71847 0.0
C280 C 0.18246 0.35806 0.70494 0.0
C281 C 0.19781 0.38343 0.71653 0.0
C282 C 0.18564 0.39516 0.74168 0.0
C283 C 0.15886 0.38181 0.75536 0.0
C284 C 0.14453 0.35592 0.74361 0.0
C285 C 0.14585 0.39497 0.78178 0.0
C286 C 0.16373 0.40959 0.80426 0.0
C287 C 0.11538 0.39349 0.78451 0.0
C288 C 0.10327 0.40648 0.80858 0.0
C289 C 0.12116 0.42141 0.83086 0.0
C290 C 0.22653 0.39727 0.70207 0.0
C291 C 0.24586 0.38128 0.68975 0.0
C292 C 0.23472 0.42628 0.69966 0.0
C293 C 0.261 0.43873 0.68477 0.0
C294 C 0.27961 0.42253 0.67158 0.0
C295 C 0.27179 0.39367 0.67456 0.0
C296 C 0.1516 0.42254 0.82839 0.0
H297 H 0.15907 0.25932 0.67067 0.0
H298 H 0.18216 0.30278 0.69406 0.0
H299 H 0.09681 0.32071 0.71483 0.0
H300 H 0.07374 0.27636 0.6923 0.0
H301 H 0.19078 0.34964 0.6847 0.0
H302 H 0.12462 0.34499 0.75457 0.0
H303 H 0.19701 0.41481 0.75061 0.0
H304 H 0.18723 0.41098 0.80334 0.0
H305 H 0.1008 0.3827 0.76767 0.0
H306 H 0.07972 0.40469 0.80973 0.0
H307 H 0.24103 0.35899 0.69179 0.0
H308 H 0.22048 0.43941 0.70853 0.0
H309 H 0.16625 0.43394 0.84481 0.0
H310 H 0.28586 0.38057 0.66521 0.0
H311 H 0.26629 0.46103 0.68277 0.0
La312 La 1.01564 0.04954 0.51243 0.0
La313 La 0.98443 1.02779 0.56929 0.0
C314 C 0.03376 0.07026 0.46261 0.0
C315 C 0.0607 0.09011 0.45422 0.0
C316 C 0.0872 0.08957 0.46846 0.0
C317 C 0.11252 0.10895 0.46119 0.0
C318 C 0.1118 0.12942 0.43974 0.0
C319 C 0.08518 0.13006 0.42567 0.0
C320 C 0.05984 0.11052 0.43284 0.0
C321 C 0.0483 1.0298 0.55077 0.0
C322 C 0.02648 0.08571 0.57182 0.0
C323 C 0.96118 1.00029 0.61395 0.0
C324 C 0.94359 0.9725 0.61908 0.0
C325 C 0.9206 0.96967 0.64038 0.0
C326 C 0.90006 0.945 0.64246 0.0
C327 C 0.90227 0.92261 0.62342 0.0
C328 C 0.92608 0.92485 0.60301 0.0
C329 C 0.94657 0.94984 0.60063 0.0
C330 C 0.96201 0.06465 0.54079 0.0
C331 C 0.97434 0.98991 0.51015 0.0
O332 O 0.03746 0.04595 0.47134 0.0
O333 O 1.01512 0.0801 0.48007 0.0
O334 O 0.05759 0.05071 0.53347 0.0
O335 O 0.02193 1.01989 0.54512 0.0
O336 O 0.02445 0.08605 0.54209 0.0
O337 O 0.01613 0.06289 0.58734 0.0
O338 O 0.94809 1.01606 0.59801 0.0
O339 O 0.98891 1.00264 0.60615 0.0
O340 O 0.96358 0.06366 0.56975 0.0
O341 O 0.97205 0.0452 0.52896 0.0
O342 O 0.9676 0.99301 0.53896 0.0
O343 O 0.99221 1.00963 0.49505 0.0
H344 H 0.08839 0.07423 0.48532 0.0
H345 H 0.1326 0.10813 0.47265 0.0
H346 H 0.08405 0.14544 0.40881 0.0
H347 H 0.03955 0.11139 0.42179 0.0
H348 H 0.91782 0.987 0.65459 0.0
H349 H 0.882 0.94356 0.65858 0.0
H350 H 0.92812 0.90776 0.58814 0.0
H351 H 0.96402 0.95175 0.58378 0.0
La352 La 0.54944 0.03639 0.0677 0.0
La353 La 0.49676 1.0203 1.03202 0.0
C354 C 0.59339 0.06214 0.09497 0.0
C355 C 0.60172 0.08962 0.10948 0.0
C356 C 0.59065 0.09473 0.13822 0.0
C357 C 0.60001 0.12022 0.15247 0.0
C358 C 0.62065 0.1412 0.13833 0.0
C359 C 0.63097 0.13638 0.10916 0.0
C360 C 0.62169 0.11082 0.09495 0.0
C361 C 0.51961 0.98563 0.07937 0.0
C362 C 0.49358 0.0598 0.08737 0.0
C363 C 0.44848 1.00161 1.00797 0.0
C364 C 0.44032 0.99336 0.97686 0.0
C365 C 0.44949 1.01139 0.95269 0.0
C366 C 0.44255 1.00287 0.92323 0.0
C367 C 0.42665 0.97609 0.91735 0.0
C368 C 0.4176 0.95803 0.94148 0.0
C369 C 0.42427 0.96666 0.97102 0.0
C370 C 0.53647 0.06178 1.00841 0.0
C371 C 0.55196 0.99777 1.01251 0.0
O372 O 0.57221 0.04429 0.10798 0.0
O373 O 0.59129 0.06188 0.06557 0.0
O374 O 0.54786 0.99304 0.07868 0.0
O375 O 0.5088 1.00667 0.07472 0.0
O376 O 0.52182 0.06101 0.0911 0.0
O377 O 0.47872 0.04357 0.06687 0.0
O378 O 0.45863 1.02799 1.01276 0.0
O379 O 0.46369 0.98601 1.02163 0.0
O380 O 0.52059 0.04209 0.99309 0.0
O381 O 0.52914 0.058 1.03572 0.0
O382 O 0.52309 0.99205 1.0141 0.0
O383 O 0.56732 1.01821 1.02838 0.0
H384 H 0.57526 0.07885 0.15011 0.0
H385 H 0.59198 0.12299 0.17513 0.0
H386 H 0.64664 0.15219 0.09752 0.0
H387 H 0.63056 0.10749 0.07277 0.0
H388 H 0.46225 1.03201 0.95643 0.0
H389 H 0.44999 1.01709 0.90498 0.0
H390 H 0.40506 0.93736 0.93754 0.0
H391 H 0.41711 0.95241 0.9893 0.0
La392 La 0.51868 0.50214 0.52784 0.0
La393 La 0.51591 0.54893 0.56654 0.0
C394 C 0.53541 0.46291 0.5008 0.0
C395 C 0.54146 0.43628 0.51099 0.0
C396 C 0.51856 0.41351 0.51687 0.0
C397 C 0.52466 0.38859 0.52686 0.0
C398 C 0.55375 0.38599 0.53123 0.0
C399 C 0.57657 0.40883 0.52554 0.0
C400 C 0.5705 0.43363 0.51542 0.0
C401 C 0.46691 0.49869 0.55519 0.0
C402 C 0.54022 0.50205 0.5967 0.0
C403 C 0.49876 0.58813 0.59309 0.0
C404 C 0.47838 0.60527 0.58331 0.0
C405 C 0.48673 0.63413 0.58488 0.0
C406 C 0.46905 0.65069 0.57263 0.0
C407 C 0.44267 0.63863 0.55868 0.0
C408 C 0.43409 0.60972 0.55762 0.0
C409 C 0.45185 0.59317 0.56968 0.0
C410 C 0.56755 0.55164 0.53923 0.0
C411 C 0.49422 0.54871 0.49855 0.0
O412 O 0.50809 0.46572 0.5021 0.0
O413 O 0.55335 0.48515 0.51026 0.0
O414 O 0.47084 0.49021 0.52802 0.0
O415 O 0.49167 0.5074 0.56656 0.0
O416 O 0.53911 0.49082 0.56933 0.0
O417 O 0.53009 0.52483 0.60195 0.0
O418 O 0.52332 0.59123 0.57751 0.0
O419 O 0.48741 0.56208 0.59815 0.0
O420 O 0.56388 0.55911 0.56689 0.0
O421 O 0.54271 0.5437 0.52773 0.0
O422 O 0.49042 0.55633 0.52685 0.0
O423 O 0.50945 0.52938 0.49265 0.0
H424 H 0.49591 0.41483 0.5137 0.0
H425 H 0.50665 0.37133 0.53106 0.0
H426 H 0.59926 0.40729 0.52801 0.0
H427 H 0.58861 0.45074 0.51088 0.0
H428 H 0.50721 0.64383 0.59507 0.0
H429 H 0.47594 0.67295 0.57422 0.0
H430 H 0.414 0.59989 0.54681 0.0
H431 H 0.44509 0.57092 0.56769 0.0
La432 La 0.02144 0.50562 0.06161 0.0
La433 La 1.01544 0.55873 1.03622 0.0
C434 C 0.02822 0.45698 0.0699 0.0
C435 C 0.05321 0.44568 0.07991 0.0
C436 C 0.05721 0.41999 0.06888 0.0
C437 C 0.08194 0.40985 0.07667 0.0
C438 C 0.10312 0.42526 0.09566 0.0
C439 C 0.09885 0.45097 0.10681 0.0
C440 C 0.07419 0.46113 0.09891 0.0
C441 C 1.00151 0.53882 0.1006 0.0
C442 C 0.07345 0.55468 0.07246 0.0
C443 C 1.0097 0.60765 1.02736 0.0
C444 C 0.98664 0.61979 1.01424 0.0
C445 C 0.96542 0.60383 0.9959 0.0
C446 C 0.94282 0.61519 0.98451 0.0
C447 C 0.94097 0.64266 0.99141 0.0
C448 C 0.96234 0.65856 1.00981 0.0
C449 C 0.985 0.64718 1.02112 0.0
C450 C 0.03503 0.52533 0.99729 0.0
C451 C 0.96345 0.50926 1.0252 0.0
O452 O 0.01624 0.47116 0.08989 0.0
O453 O 0.03199 0.46921 0.04377 0.0
O454 O 0.01893 0.52246 0.10713 0.0
O455 O 0.99448 0.53509 0.07329 0.0
O456 O 0.0657 0.52749 0.07094 0.0
O457 O 0.05614 0.57061 0.06219 0.0
O458 O 0.02376 0.59389 1.00883 0.0
O459 O 1.0024 0.5945 0.05261 0.0
O460 O 0.0174 0.54153 0.99083 0.0
O461 O 0.04234 0.5293 1.02451 0.0
O462 O 0.97141 0.53651 1.02557 0.0
O463 O 0.9804 0.49353 1.03657 0.0
H464 H 0.04143 0.40798 0.05386 0.0
H465 H 0.08473 0.39019 0.06728 0.0
H466 H 0.11447 0.46322 0.12179 0.0
H467 H 0.07163 0.48115 0.10748 0.0
H468 H 0.96619 0.58252 0.99061 0.0
H469 H 0.92649 0.60231 0.97075 0.0
H470 H 0.96168 0.67986 1.01525 0.0
H471 H 1.00114 0.65971 1.03538 0.0
H472 H 0.28013 0.20234 0.36354 0.0
H473 H 0.11814 0.18521 0.43177 0.0
H474 H 0.23347 0.26923 0.37181 0.0
H475 H 0.16705 0.11976 0.42955 0.0
H476 H 0.16234 0.21771 0.41535 0.0
H477 H 0.24207 0.17366 0.39451 0.0
C478 C 0.26228 0.21125 0.37253 0.0
C479 C 0.25971 0.23807 0.36469 0.0
C480 C 0.16351 0.1963 0.41873 0.0
C481 C 0.21568 0.20514 0.39946 0.0
C482 C 0.13822 0.17771 0.42787 0.0
C483 C 0.13885 0.1497 0.43168 0.0
C484 C 0.18958 0.18677 0.41304 0.0
C485 C 0.1656 0.14119 0.42693 0.0
C486 C 0.24038 0.19476 0.38998 0.0
C487 C 0.23596 0.24844 0.37679 0.0
N488 N 0.18982 0.15959 0.41754 0.0
N489 N 0.21463 0.23182 0.39317 0.0
H490 H 0.39683 0.88712 0.74761 0.0
H491 H 0.40392 1.00434 0.87457 0.0
H492 H 0.34255 0.94824 0.74871 0.0
H493 H 0.43228 0.92774 0.88931 0.0
H494 H 0.3896 0.98856 0.82366 0.0
H495 H 0.41836 0.90644 0.79519 0.0
C496 C 0.38973 0.90478 0.75776 0.0
C497 C 0.36777 0.91601 0.74458 0.0
C498 C 0.39907 0.97527 0.83801 0.0
C499 C 0.39216 0.93814 0.79845 0.0
C500 C 0.40736 0.98429 0.86695 0.0
C501 C 0.41908 0.9672 0.88614 0.0
C502 C 0.4028 0.94907 0.82812 0.0
C503 C 0.42292 0.94135 0.87528 0.0
C504 C 0.40185 0.91567 0.78487 0.0
C505 C 0.35919 0.93882 0.75849 0.0
N506 N 0.41478 0.93303 0.84692 0.0
N507 N 0.37139 0.94914 0.7847 0.0
H508 H 0.61831 0.39252 0.70873 0.0
H509 H 0.54371 0.51731 0.65659 0.0
H510 H 0.59263 0.45219 0.77009 0.0
H511 H 0.56374 0.4549 0.59536 0.0
H512 H 0.56246 0.49417 0.69801 0.0
H513 H 0.59906 0.41501 0.66707 0.0
C514 C 0.60848 0.41019 0.71365 0.0
C515 C 0.6073 0.42029 0.74337 0.0
C516 C 0.56279 0.48549 0.67553 0.0
C517 C 0.58538 0.44663 0.69511 0.0
C518 C 0.55208 0.49877 0.65174 0.0
C519 C 0.55205 0.48818 0.62219 0.0
C520 C 0.57375 0.46132 0.67003 0.0
C521 C 0.56324 0.46396 0.61763 0.0
C522 C 0.59763 0.42318 0.68966 0.0
C523 C 0.59464 0.44371 0.74776 0.0
N524 N 0.5736 0.45144 0.64117 0.0
N525 N 0.58429 0.45597 0.72407 0.0
H526 H 0.9515 0.60694 0.27036 0.0
H527 H 0.95912 0.57036 0.09361 0.0
H528 H 0.90531 0.64382 0.20421 0.0
H529 H 1.01363 0.54468 0.16027 0.0
H530 H 0.93788 0.59641 0.13303 0.0
H531 H 0.97282 0.58286 0.23 0.0
C532 C 0.94567 0.60993 0.24736 0.0
C533 C 0.92634 0.62748 0.24094 0.0
C534 C 0.95455 0.58513 0.13898 0.0
C535 C 0.9511 0.59975 0.19404 0.0
C536 C 0.96673 0.57028 0.11645 0.0
C537 C 0.98829 0.55531 0.12355 0.0
C538 C 0.96382 0.58484 0.16893 0.0
C539 C 0.99708 0.55584 0.15364 0.0
C540 C 0.95806 0.59623 0.22419 0.0
C541 C 0.92022 0.63074 0.21041 0.0
N542 N 0.98482 0.57019 0.17507 0.0
N543 N 0.93238 0.61695 0.1882 0.0
H544 H 0.40364 0.19179 0.12005 0.0
H545 H 0.51128 0.08912 0.13901 0.0
H546 H 0.43186 0.17486 0.20867 0.0
H547 H 0.44283 0.07564 0.07332 0.0
H548 H 0.48871 0.1251 0.16286 0.0
H549 H 0.4248 0.15402 0.09983 0.0
C550 C 0.41405 0.18011 0.1354 0.0
C551 C 0.4155 0.18649 0.16632 0.0
C552 C 0.47859 0.11398 0.14341 0.0
C553 C 0.44068 0.14364 0.14285 0.0
C554 C 0.4914 0.09351 0.1298 0.0
C555 C 0.47887 0.07932 0.10417 0.0
C556 C 0.45362 0.1207 0.13078 0.0
C557 C 0.45316 0.0859 0.09312 0.0
C558 C 0.42627 0.15861 0.12372 0.0
C559 C 0.43038 0.17104 0.18468 0.0
N560 N 0.44161 0.10635 0.10624 0.0
N561 N 0.44251 0.15038 0.17264 0.0
H562 H 0.20339 0.96672 0.56963 0.0
H563 H 0.03525 0.97732 0.57341 0.0
H564 H 0.13511 0.901 0.60328 0.0
H565 H 0.10682 0.04649 0.55769 0.0
H566 H 0.07074 0.94919 0.58687 0.0
H567 H 0.16765 0.99623 0.56589 0.0
C568 C 0.18075 0.95846 0.57601 0.0
C569 C 0.17204 0.93133 0.5864 0.0
C570 C 0.0786 0.97063 0.58088 0.0
C571 C 0.13102 0.96507 0.5826 0.0
C572 C 0.0584 0.98667 0.57332 0.0
C573 C 0.0683 1.01405 0.56404 0.0
C574 C 0.10874 0.98216 0.5789 0.0
C575 C 0.09838 1.02531 0.56436 0.0
C576 C 0.1604 0.9754 0.57421 0.0
C577 C 0.14261 0.92183 0.59509 0.0
N578 N 0.11758 1.00921 0.57128 0.0
N579 N 0.12302 0.93865 0.59276 0.0
H580 H 0.80688 0.47005 0.91576 0.0
H581 H 0.93652 0.45436 1.02604 0.0
H582 H 0.80987 0.39507 0.96342 0.0
H583 H 0.92576 0.53305 0.99202 0.0
H584 H 0.89129 0.43215 1.00151 0.0
H585 H 0.85101 0.49319 0.94175 0.0
C586 C 0.81657 0.45839 0.93176 0.0
C587 C 0.8043 0.43034 0.93714 0.0
C588 C 0.89872 0.45429 0.99946 0.0
C589 C 0.85556 0.45691 0.96683 0.0
C590 C 0.92465 0.46705 1.0135 0.0
C591 C 0.93515 0.49573 1.01124 0.0
C592 C 0.88302 0.47015 0.98266 0.0
C593 C 0.9186 0.51093 0.99456 0.0
C594 C 0.84197 0.47168 0.94652 0.0
C595 C 0.81854 0.41647 0.95789 0.0
N596 N 0.89352 0.49798 0.98084 0.0
N597 N 0.84327 0.42981 0.9718 0.0
H598 H 0.69731 0.61978 0.40218 0.0
H599 H 0.62254 0.56909 0.56112 0.0
H600 H 0.74676 0.61384 0.48201 0.0
H601 H 0.57614 0.55498 0.47774 0.0
H602 H 0.66793 0.58705 0.53266 0.0
H603 H 0.65264 0.59749 0.42926 0.0
C604 C 0.699 0.61363 0.42526 0.0
C605 C 0.72622 0.61899 0.43966 0.0
C606 C 0.64789 0.57988 0.52051 0.0
C607 C 0.67455 0.59377 0.47115 0.0
C608 C 0.62195 0.56962 0.53678 0.0
C609 C 0.59548 0.56055 0.52182 0.0
C610 C 0.64745 0.58148 0.48895 0.0
C611 C 0.59605 0.56172 0.49021 0.0
C612 C 0.67331 0.60099 0.44079 0.0
C613 C 0.72646 0.61082 0.46991 0.0
N614 N 0.62152 0.5722 0.47486 0.0
N615 N 0.70114 0.59884 0.48458 0.0
H616 H 0.2232 0.32083 0.1424 0.0
H617 H 0.1597 0.45432 0.10147 0.0
H618 H 0.27348 0.4041 0.15038 0.0
H619 H 0.10702 0.37187 0.10816 0.0
H620 H 0.20268 0.43631 0.1154 0.0
H621 H 0.18188 0.33913 0.12475 0.0
C622 C 0.22573 0.34298 0.13999 0.0
C623 C 0.25195 0.36095 0.14777 0.0
C624 C 0.18171 0.42218 0.11377 0.0
C625 C 0.20433 0.38213 0.12808 0.0
C626 C 0.15709 0.43246 0.106 0.0
C627 C 0.12959 0.41461 0.1037 0.0
C628 C 0.17888 0.39382 0.11916 0.0
C629 C 0.12777 0.38638 0.10924 0.0
C630 C 0.20198 0.35344 0.13019 0.0
C631 C 0.25363 0.38951 0.14483 0.0
N632 N 0.15204 0.3769 0.11672 0.0
N633 N 0.23012 0.39923 0.13525 0.0
H634 H 0.5955 0.23772 0.97559 0.0
H635 H 0.55043 0.07389 0.94919 0.0
H636 H 0.6133 0.19812 0.89196 0.0
H637 H 0.5548 0.11177 1.03731 0.0
H638 H 0.57076 0.11924 0.92718 0.0
H639 H 0.57782 0.19228 0.9977 0.0
C640 C 0.59599 0.21962 0.96177 0.0
C641 C 0.60631 0.22226 0.93164 0.0
C642 C 0.56742 0.11766 0.95134 0.0
C643 C 0.58512 0.16949 0.95712 0.0
C644 C 0.55582 0.09173 0.96394 0.0
C645 C 0.55083 0.08895 0.99517 0.0
C646 C 0.57383 0.14125 0.96999 0.0
C647 C 0.55826 0.11288 1.01314 0.0
C648 C 0.58565 0.19352 0.97452 0.0
C649 C 0.60533 0.19756 0.91505 0.0
N650 N 0.56913 0.13796 1.00031 0.0
N651 N 0.59495 0.1724 0.92792 0.0
H652 H 0.94989 0.84542 0.39106 0.0
H653 H 0.93218 0.94618 0.53074 0.0
H654 H 0.88018 0.82697 0.45783 0.0
H655 H 0.98962 0.97172 0.45426 0.0
H656 H 0.9148 0.90152 0.5059 0.0
H657 H 0.96692 0.89046 0.41549 0.0
C658 C 0.93821 0.85072 0.41092 0.0
C659 C 0.91343 0.83221 0.42223 0.0
C660 C 0.93112 0.91692 0.49448 0.0
C661 C 0.93291 0.88405 0.45046 0.0
C662 C 0.94111 0.94252 0.50869 0.0
C663 C 0.96242 0.963 0.49464 0.0
C664 C 0.94267 0.91141 0.46603 0.0
C665 C 0.97309 0.95678 0.466 0.0
C666 C 0.94786 0.87658 0.42477 0.0
C667 C 0.89912 0.84056 0.44795 0.0
N668 N 0.96324 0.93161 0.45279 0.0
N669 N 0.90909 0.86568 0.46117 0.0
H670 H 0.30792 0.7298 0.55182 0.0
H671 H 0.45942 0.68474 0.52396 0.0
H672 H 0.38097 0.77981 0.50366 0.0
H673 H 0.38316 0.63246 0.56435 0.0
H674 H 0.42871 0.71648 0.50829 0.0
H675 H 0.3317 0.6905 0.54707 0.0
C676 C 0.32859 0.73241 0.53946 0.0
C677 C 0.34276 0.75842 0.52871 0.0
C678 C 0.41859 0.69787 0.52018 0.0
C679 C 0.37065 0.71352 0.52417 0.0
C680 C 0.43616 0.67988 0.52933 0.0
C681 C 0.42388 0.65626 0.54598 0.0
C682 C 0.38861 0.69233 0.52806 0.0
C683 C 0.39353 0.65052 0.55168 0.0
C684 C 0.34234 0.70991 0.53703 0.0
C685 C 0.36966 0.76038 0.51313 0.0
N686 N 0.37701 0.66867 0.54314 0.0
N687 N 0.38304 0.73838 0.51188 0.0
H688 H 0.73549 0.83203 0.67264 0.0
H689 H 0.90664 0.86974 0.63721 0.0
H690 H 0.79772 0.78722 0.70753 0.0
H691 H 0.8446 0.91932 0.61322 0.0
H692 H 0.8656 0.8316 0.65002 0.0
H693 H 0.77322 0.85552 0.63748 0.0
C694 C 0.75692 0.82666 0.67235 0.0
C695 C 0.76369 0.8081 0.6934 0.0
C696 C 0.86098 0.8506 0.64128 0.0
C697 C 0.80714 0.83525 0.65374 0.0
C698 C 0.88436 0.87224 0.63389 0.0
C699 C 0.87877 0.89765 0.62468 0.0
C700 C 0.83201 0.85461 0.63935 0.0
C701 C 0.84965 0.90006 0.62072 0.0
C702 C 0.77849 0.8401 0.65235 0.0
C703 C 0.79164 0.80153 0.69178 0.0
N704 N 0.82735 0.87896 0.62846 0.0
N705 N 0.81258 0.81557 0.67279 0.0
H706 H 0.74452 0.24677 0.24572 0.0
H707 H 0.59278 0.17179 0.1772 0.0
H708 H 0.66056 0.24186 0.29067 0.0
H709 H 0.67794 0.1686 0.13854 0.0
H710 H 0.61616 0.20785 0.21202 0.0
H711 H 0.71938 0.22939 0.19959 0.0
C712 C 0.72077 0.24255 0.24567 0.0
C713 C 0.70459 0.24521 0.27217 0.0
C714 C 0.62965 0.19961 0.19552 0.0
C715 C 0.67568 0.22503 0.21968 0.0
C716 C 0.61634 0.17892 0.17574 0.0
C717 C 0.63347 0.1667 0.15531 0.0
C718 C 0.66031 0.20805 0.19495 0.0
C719 C 0.6638 0.17731 0.15388 0.0
C720 C 0.70642 0.23263 0.21936 0.0
C721 C 0.67389 0.23998 0.27077 0.0
N722 N 0.67627 0.19704 0.17376 0.0
N723 N 0.6604 0.2296 0.24511 0.0
H724 H 0.39998 0.64675 0.38873 0.0
H725 H 0.50397 0.54376 0.43749 0.0
H726 H 0.45867 0.61585 0.32687 0.0
H727 H 0.45751 0.58621 0.50157 0.0
H728 H 0.48536 0.56775 0.39658 0.0
H729 H 0.4184 0.62275 0.42981 0.0
C730 C 0.41665 0.63485 0.38366 0.0
C731 C 0.42768 0.63346 0.35401 0.0
C732 C 0.47919 0.57184 0.41957 0.0
C733 C 0.44904 0.6057 0.40142 0.0
C734 C 0.48977 0.55803 0.44305 0.0
C735 C 0.48237 0.56282 0.47326 0.0
C736 C 0.46076 0.59057 0.42607 0.0
C737 C 0.4639 0.58175 0.47878 0.0
C738 C 0.42729 0.62123 0.40727 0.0
C739 C 0.44962 0.61789 0.34924 0.0
N740 N 0.45373 0.59479 0.45553 0.0
N741 N 0.4594 0.60461 0.37252 0.0
H742 H 0.0752 0.4488 0.82883 0.0
H743 H 0.07944 0.49596 1.00327 0.0
H744 H 0.13736 0.42813 0.89071 0.0
H745 H 0.02006 0.51688 0.93861 0.0
H746 H 0.10047 0.47006 0.96352 0.0
H747 H 0.05429 0.47263 0.86959 0.0
C748 C 0.08439 0.449 0.85102 0.0
C749 C 0.10816 0.43614 0.85605 0.0
C750 C 0.08281 0.4803 0.95807 0.0
C751 C 0.08424 0.46411 0.90336 0.0
C752 C 0.07076 0.49504 0.9808 0.0
C753 C 0.04796 0.5087 0.97431 0.0
C754 C 0.07195 0.47915 0.92862 0.0
C755 C 0.03765 0.5068 0.94472 0.0
C756 C 0.07249 0.46287 0.87437 0.0
C757 C 0.1193 0.43788 0.88543 0.0
N758 N 0.04966 0.49243 0.92314 0.0
N759 N 0.10728 0.4515 0.90787 0.0
H760 H 0.65637 0.87903 0.9602 0.0
H761 H 0.53119 0.96644 0.96373 0.0
H762 H 0.60694 0.88806 0.88138 0.0
H763 H 0.60678 0.98731 1.02016 0.0
H764 H 0.55499 0.9335 0.93611 0.0
H765 H 0.63441 0.91437 0.98605 0.0
C766 C 0.64076 0.88838 0.94846 0.0
C767 C 0.63335 0.88069 0.91871 0.0
C768 C 0.56642 0.94547 0.95439 0.0
C769 C 0.6082 0.92081 0.948 0.0
C770 C 0.55288 0.96419 0.97017 0.0
C771 C 0.5671 0.97962 0.9942 0.0
C772 C 0.59408 0.94169 0.96316 0.0
C773 C 0.59517 0.97595 1.00162 0.0
C774 C 0.62846 0.90863 0.96307 0.0
C775 C 0.61326 0.89356 0.90431 0.0
N776 N 0.60764 0.95709 0.98637 0.0
N777 N 0.60116 0.91285 0.91918 0.0
H778 H 0.85965 0.14409 0.42886 0.0
H779 H 0.95541 0.11471 0.56236 0.0
H780 H 0.90322 0.20992 0.48686 0.0
H781 H 0.94595 0.06395 0.4821 0.0
H782 H 0.93539 0.14965 0.53585 0.0
H783 H 0.89058 0.1143 0.44783 0.0
C784 C 0.8761 0.1526 0.44508 0.0
C785 C 0.87856 0.17969 0.45636 0.0
C786 C 0.93801 0.13102 0.52393 0.0
C787 C 0.91341 0.14505 0.47895 0.0
C788 C 0.9492 0.11104 0.53908 0.0
C789 C 0.9519 0.08641 0.52438 0.0
C790 C 0.92894 0.12599 0.49413 0.0
C791 C 0.94396 0.08267 0.49417 0.0
C792 C 0.89365 0.1354 0.45606 0.0
C793 C 0.89995 0.18905 0.47799 0.0
N794 N 0.93237 0.10212 0.4801 0.0
N795 N 0.91623 0.17161 0.48893 0.0
H796 H 0.2339 0.66605 0.12835 0.0
H797 H 0.11004 0.52933 0.1048 0.0
H798 H 0.22913 0.59206 0.1803 0.0
H799 H 0.10198 0.60937 0.07239 0.0
H800 H 0.15594 0.55079 0.1288 0.0
H801 H 0.1881 0.64458 0.10404 0.0
C802 C 0.22332 0.64523 0.13458 0.0
C803 C 0.23556 0.63089 0.15647 0.0
C804 C 0.14415 0.56367 0.11644 0.0
C805 C 0.18284 0.60605 0.12852 0.0
C806 C 0.11792 0.55141 0.10257 0.0
C807 C 0.10193 0.56751 0.08644 0.0
C808 C 0.15488 0.5923 0.11398 0.0
C809 C 0.11341 0.59608 0.08457 0.0
C810 C 0.19703 0.63304 0.12078 0.0
C811 C 0.22049 0.60405 0.16379 0.0
N812 N 0.13914 0.60749 0.09802 0.0
N813 N 0.19512 0.59249 0.14977 0.0
H814 H 0.29831 0.40649 0.61658 0.0
H815 H 0.45459 0.50988 0.61458 0.0
H816 H 0.32272 0.46767 0.6864 0.0
H817 H 0.41542 0.46758 0.53558 0.0
H818 H 0.40852 0.49303 0.64295 0.0
H819 H 0.34314 0.42643 0.58841 0.0
C820 C 0.31316 0.4241 0.62605 0.0
C821 C 0.30669 0.43531 0.65401 0.0
C822 C 0.41 0.4876 0.61936 0.0
C823 C 0.35845 0.45836 0.62172 0.0
C824 C 0.43628 0.49722 0.60316 0.0
C825 C 0.43891 0.49014 0.57263 0.0
C826 C 0.38632 0.4704 0.60506 0.0
C827 C 0.41446 0.47356 0.55905 0.0
C828 C 0.33873 0.4356 0.60985 0.0
C829 C 0.3267 0.45842 0.66489 0.0
N830 N 0.38941 0.46411 0.57535 0.0
N831 N 0.35177 0.46902 0.64888 0.0
H832 H 0.81509 0.69438 0.8766 0.0
H833 H 0.90832 0.67546 1.02104 0.0
H834 H 0.79851 0.72645 0.96475 0.0
H835 H 0.91854 0.63711 0.93471 0.0
H836 H 0.8687 0.69511 1.00079 0.0
H837 H 0.85318 0.67347 0.89762 0.0
C838 C 0.8192 0.69678 0.90047 0.0
C839 C 0.80341 0.71214 0.91894 0.0
C840 C 0.87957 0.68235 0.9863 0.0
C841 C 0.84758 0.68861 0.9431 0.0
C842 C 0.90232 0.67128 0.99778 0.0
C843 C 0.9168 0.65464 0.97952 0.0
C844 C 0.87132 0.67688 0.95628 0.0
C845 C 0.90779 0.64957 0.94969 0.0
C846 C 0.84115 0.68498 0.91242 0.0
C847 C 0.8103 0.71505 0.94958 0.0
N848 N 0.88571 0.6607 0.939 0.0
N849 N 0.8319 0.70344 0.96069 0.0
H850 H 0.47215 0.81331 0.1329 0.0
H851 H 0.46386 0.97187 0.10511 0.0
H852 H 0.41341 0.85388 0.18452 0.0
H853 H 0.53972 0.93777 0.08213 0.0
H854 H 0.4408 0.92749 0.12852 0.0
H855 H 0.49304 0.85731 0.10851 0.0
C856 C 0.46355 0.83145 0.13906 0.0
C857 C 0.44096 0.82975 0.16093 0.0
C858 C 0.46246 0.92974 0.11826 0.0
C859 C 0.46477 0.88051 0.13269 0.0
C860 C 0.47554 0.955 0.10473 0.0
C861 C 0.50382 0.95859 0.09171 0.0
C862 C 0.47753 0.90773 0.11825 0.0
C863 C 0.51796 0.93601 0.09201 0.0
C864 C 0.47559 0.85664 0.12518 0.0
C865 C 0.43096 0.85418 0.16805 0.0
N866 N 0.50469 0.91166 0.1049 0.0
N867 N 0.44275 0.87843 0.15388 0.0
H868 H 0.06791 0.22408 0.69878 0.0
H869 H 0.06167 0.13221 0.54819 0.0
H870 H 0.12955 0.24412 0.62459 0.0
H871 H 0.02181 0.09907 0.63202 0.0
H872 H 0.08267 0.17533 0.57432 0.0
H873 H 0.04656 0.18042 0.67323 0.0
C874 C 0.07687 0.2194 0.67708 0.0
C875 C 0.10069 0.23786 0.66392 0.0
C876 C 0.06939 0.15862 0.58705 0.0
C877 C 0.0762 0.18788 0.63442 0.0
C878 C 0.0573 0.13395 0.57211 0.0
C879 C 0.03994 0.1118 0.58788 0.0
C880 C 0.0638 0.16158 0.61802 0.0
C881 C 0.03517 0.11544 0.61893 0.0
C882 C 0.06478 0.19438 0.66259 0.0
C883 C 0.11146 0.23048 0.6358 0.0
N884 N 0.04684 0.13985 0.63291 0.0
N885 N 0.09909 0.20626 0.62199 0.0
H886 H 0.66306 0.27257 0.56427 0.0
H887 H 0.52963 0.33492 0.50862 0.0
H888 H 0.6117 0.24562 0.48563 0.0
H889 H 0.59405 0.37566 0.57135 0.0
H890 H 0.54859 0.29266 0.51352 0.0
H891 H 0.62731 0.30042 0.57958 0.0
C892 C 0.64406 0.272 0.5505 0.0
C893 C 0.64108 0.25737 0.52302 0.0
C894 C 0.55818 0.31068 0.52671 0.0
C895 C 0.59991 0.2888 0.54075 0.0
C896 C 0.54726 0.33479 0.52405 0.0
C897 C 0.56078 0.35902 0.53904 0.0
C898 C 0.58287 0.31088 0.54433 0.0
C899 C 0.58358 0.35761 0.55871 0.0
C900 C 0.6236 0.2878 0.55938 0.0
C901 C 0.61533 0.25661 0.50684 0.0
N902 N 0.59429 0.33407 0.56038 0.0
N903 N 0.59609 0.27254 0.51565 0.0
loop_
_geom_bond_atom_site_label_1
_geom_bond_atom_site_label_2
_geom_bond_distance
_geom_bond_site_symmetry_2
_ccdc_geom_bond_type
C0 C1 1.386 . S
C0 C2 1.397 . S
C0 H24 0.931 . S
C1 C0 1.386 . S
C1 C5 1.397 . S
C2 C0 1.397 . S
C2 C3 1.384 . S
C2 H25 0.930 . S
C3 C2 1.384 . S
C3 C4 1.377 . S
C3 C6 1.481 . S
C4 C3 1.377 . S
C4 C5 1.389 . S
C4 H26 0.929 . S
C5 C1 1.397 . S
C5 C4 1.389 . S
C5 H27 0.931 . S
C6 C3 1.481 . S
C6 C7 1.387 . S
C6 C11 1.390 . S
C7 C6 1.387 . S
C7 C8 1.401 . S
C7 H28 0.930 . S
C8 C7 1.401 . S
C8 C9 1.376 . S
C8 C17 1.511 . S
C9 C8 1.376 . S
C9 C10 1.392 . S
C9 H30 0.931 . S
C10 C9 1.392 . S
C10 C11 1.361 . S
C10 C12 1.500 . S
C11 C6 1.390 . S
C11 C10 1.361 . S
C11 H29 0.931 . S
C12 C10 1.500 . S
C12 C13 1.371 . S
C12 C14 1.365 . S
C13 C12 1.371 . S
C13 C23 1.386 . S
C13 H31 0.931 . S
C14 C12 1.365 . S
C14 C15 1.409 . S
C14 H32 0.929 . S
C15 C14 1.409 . S
C15 C16 1.380 . S
C15 H33 0.930 . S
C16 C15 1.380 . S
C16 C23 1.357 . S
C17 C8 1.511 . S
C17 C18 1.341 . S
C17 C19 1.371 . S
C18 C17 1.341 . S
C18 C22 1.394 . S
C18 H34 0.930 . S
C19 C17 1.371 . S
C19 C20 1.392 . S
C19 H35 0.931 . S
C20 C19 1.392 . S
C20 C21 1.331 . S
C20 H38 0.932 . S
C21 C20 1.331 . S
C21 C22 1.336 . S
C22 C18 1.394 . S
C22 C21 1.336 . S
C22 H37 0.929 . S
C23 C13 1.386 . S
C23 C16 1.357 . S
C23 H36 0.928 . S
H24 C0 0.931 . S
H25 C2 0.930 . S
H26 C4 0.929 . S
H27 C5 0.931 . S
H28 C7 0.930 . S
H29 C11 0.931 . S
H30 C9 0.931 . S
H31 C13 0.931 . S
H32 C14 0.929 . S
H33 C15 0.930 . S
H34 C18 0.930 . S
H35 C19 0.931 . S
H36 C23 0.928 . S
H37 C22 0.929 . S
H38 C20 0.932 . S
C39 C40 1.386 . S
C39 C41 1.397 . S
C39 H63 0.931 . S
C40 C39 1.386 . S
C40 C44 1.397 . S
C41 C39 1.397 . S
C41 C42 1.384 . S
C41 H64 0.930 . S
C42 C41 1.384 . S
C42 C43 1.377 . S
C42 C45 1.481 . S
C43 C42 1.377 . S
C43 C44 1.389 . S
C43 H65 0.929 . S
C44 C40 1.397 . S
C44 C43 1.389 . S
C44 H66 0.931 . S
C45 C42 1.481 . S
C45 C46 1.387 . S
C45 C50 1.390 . S
C46 C45 1.387 . S
C46 C47 1.401 . S
C46 H67 0.930 . S
C47 C46 1.401 . S
C47 C48 1.376 . S
C47 C56 1.511 . S
C48 C47 1.376 . S
C48 C49 1.392 . S
C48 H69 0.931 . S
C49 C48 1.392 . S
C49 C50 1.361 . S
C49 C51 1.500 . S
C50 C45 1.390 . S
C50 C49 1.361 . S
C50 H68 0.931 . S
C51 C49 1.500 . S
C51 C52 1.371 . S
C51 C53 1.365 . S
C52 C51 1.371 . S
C52 C62 1.386 . S
C52 H70 0.931 . S
C53 C51 1.365 . S
C53 C54 1.409 . S
C53 H71 0.929 . S
C54 C53 1.409 . S
C54 C55 1.380 . S
C54 H72 0.930 . S
C55 C54 1.380 . S
C55 C62 1.357 . S
C56 C47 1.511 . S
C56 C57 1.341 . S
C56 C58 1.371 . S
C57 C56 1.341 . S
C57 C61 1.394 . S
C57 H73 0.930 . S
C58 C56 1.371 . S
C58 C59 1.392 . S
C58 H74 0.931 . S
C59 C58 1.392 . S
C59 C60 1.331 . S
C59 H77 0.932 . S
C60 C59 1.331 . S
C60 C61 1.336 . S
C61 C57 1.394 . S
C61 C60 1.336 . S
C61 H76 0.929 . S
C62 C52 1.386 . S
C62 C55 1.357 . S
C62 H75 0.928 . S
H63 C39 0.931 . S
H64 C41 0.930 . S
H65 C43 0.929 . S
H66 C44 0.931 . S
H67 C46 0.930 . S
H68 C50 0.931 . S
H69 C48 0.931 . S
H70 C52 0.931 . S
H71 C53 0.929 . S
H72 C54 0.930 . S
H73 C57 0.930 . S
H74 C58 0.931 . S
H75 C62 0.928 . S
H76 C61 0.929 . S
H77 C59 0.932 . S
C78 C79 1.386 . S
C78 C80 1.397 . S
C78 H102 0.931 . S
C79 C78 1.386 . S
C79 C83 1.397 . S
C80 C78 1.397 . S
C80 C81 1.384 . S
C80 H103 0.930 . S
C81 C80 1.384 . S
C81 C82 1.377 . S
C81 C84 1.481 . S
C82 C81 1.377 . S
C82 C83 1.389 . S
C82 H104 0.929 . S
C83 C79 1.397 . S
C83 C82 1.389 . S
C83 H105 0.931 . S
C84 C81 1.481 . S
C84 C85 1.387 . S
C84 C89 1.390 . S
C85 C84 1.387 . S
C85 C86 1.401 . S
C85 H106 0.930 . S
C86 C85 1.401 . S
C86 C87 1.376 . S
C86 C95 1.511 . S
C87 C86 1.376 . S
C87 C88 1.392 . S
C87 H108 0.931 . S
C88 C87 1.392 . S
C88 C89 1.361 . S
C88 C90 1.500 . S
C89 C84 1.390 . S
C89 C88 1.361 . S
C89 H107 0.931 . S
C90 C88 1.500 . S
C90 C91 1.371 . S
C90 C92 1.365 . S
C91 C90 1.371 . S
C91 C101 1.386 . S
C91 H109 0.931 . S
C92 C90 1.365 . S
C92 C93 1.409 . S
C92 H110 0.929 . S
C93 C92 1.409 . S
C93 C94 1.380 . S
C93 H111 0.930 . S
C94 C93 1.380 . S
C94 C101 1.357 . S
C95 C86 1.511 . S
C95 C96 1.341 . S
C95 C97 1.371 . S
C96 C95 1.341 . S
C96 C100 1.394 . S
C96 H112 0.930 . S
C97 C95 1.371 . S
C97 C98 1.392 . S
C97 H113 0.931 . S
C98 C97 1.392 . S
C98 C99 1.331 . S
C98 H116 0.932 . S
C99 C98 1.331 . S
C99 C100 1.336 . S
C100 C96 1.394 . S
C100 C99 1.336 . S
C100 H115 0.929 . S
C101 C91 1.386 . S
C101 C94 1.357 . S
C101 H114 0.928 . S
H102 C78 0.931 . S
H103 C80 0.930 . S
H104 C82 0.929 . S
H105 C83 0.931 . S
H106 C85 0.930 . S
H107 C89 0.931 . S
H108 C87 0.931 . S
H109 C91 0.931 . S
H110 C92 0.929 . S
H111 C93 0.930 . S
H112 C96 0.930 . S
H113 C97 0.931 . S
H114 C101 0.928 . S
H115 C100 0.929 . S
H116 C98 0.932 . S
C117 C118 1.386 . S
C117 C119 1.397 . S
C117 H141 0.931 . S
C118 C117 1.386 . S
C118 C122 1.397 . S
C119 C117 1.397 . S
C119 C120 1.384 . S
C119 H142 0.930 . S
C120 C119 1.384 . S
C120 C121 1.377 . S
C120 C123 1.481 . S
C121 C120 1.377 . S
C121 C122 1.389 . S
C121 H143 0.929 . S
C122 C118 1.397 . S
C122 C121 1.389 . S
C122 H144 0.931 . S
C123 C120 1.481 . S
C123 C124 1.387 . S
C123 C128 1.390 . S
C124 C123 1.387 . S
C124 C125 1.401 . S
C124 H145 0.930 . S
C125 C124 1.401 . S
C125 C126 1.376 . S
C125 C134 1.511 . S
C126 C125 1.376 . S
C126 C127 1.392 . S
C126 H147 0.931 . S
C127 C126 1.392 . S
C127 C128 1.361 . S
C127 C129 1.500 . S
C128 C123 1.390 . S
C128 C127 1.361 . S
C128 H146 0.931 . S
C129 C127 1.500 . S
C129 C130 1.371 . S
C129 C131 1.365 . S
C130 C129 1.371 . S
C130 C140 1.386 . S
C130 H148 0.931 . S
C131 C129 1.365 . S
C131 C132 1.409 . S
C131 H149 0.929 . S
C132 C131 1.409 . S
C132 C133 1.380 . S
C132 H150 0.930 . S
C133 C132 1.380 . S
C133 C140 1.357 . S
C134 C125 1.511 . S
C134 C135 1.341 . S
C134 C136 1.371 . S
C135 C134 1.341 . S
C135 C139 1.394 . S
C135 H151 0.930 . S
C136 C134 1.371 . S
C136 C137 1.392 . S
C136 H152 0.931 . S
C137 C136 1.392 . S
C137 C138 1.331 . S
C137 H155 0.932 . S
C138 C137 1.331 . S
C138 C139 1.336 . S
C139 C135 1.394 . S
C139 C138 1.336 . S
C139 H154 0.929 . S
C140 C130 1.386 . S
C140 C133 1.357 . S
C140 H153 0.928 . S
H141 C117 0.931 . S
H142 C119 0.930 . S
H143 C121 0.929 . S
H144 C122 0.931 . S
H145 C124 0.930 . S
H146 C128 0.931 . S
H147 C126 0.931 . S
H148 C130 0.931 . S
H149 C131 0.929 . S
H150 C132 0.930 . S
H151 C135 0.930 . S
H152 C136 0.931 . S
H153 C140 0.928 . S
H154 C139 0.929 . S
H155 C137 0.932 . S
C156 C157 1.386 . S
C156 C158 1.397 . S
C156 H180 0.931 . S
C157 C156 1.386 . S
C157 C161 1.397 . S
C158 C156 1.397 . S
C158 C159 1.384 . S
C158 H181 0.930 . S
C159 C158 1.384 . S
C159 C160 1.377 . S
C159 C162 1.481 . S
C160 C159 1.377 . S
C160 C161 1.389 . S
C160 H182 0.929 . S
C161 C157 1.397 . S
C161 C160 1.389 . S
C161 H183 0.931 . S
C162 C159 1.481 . S
C162 C163 1.387 . S
C162 C167 1.390 . S
C163 C162 1.387 . S
C163 C164 1.401 . S
C163 H184 0.930 . S
C164 C163 1.401 . S
C164 C165 1.376 . S
C164 C173 1.511 . S
C165 C164 1.376 . S
C165 C166 1.392 . S
C165 H186 0.931 . S
C166 C165 1.392 . S
C166 C167 1.361 . S
C166 C168 1.500 . S
C167 C162 1.390 . S
C167 C166 1.361 . S
C167 H185 0.931 . S
C168 C166 1.500 . S
C168 C169 1.371 . S
C168 C170 1.365 . S
C169 C168 1.371 . S
C169 C179 1.386 . S
C169 H187 0.931 . S
C170 C168 1.365 . S
C170 C171 1.409 . S
C170 H188 0.929 . S
C171 C170 1.409 . S
C171 C172 1.380 . S
C171 H189 0.930 . S
C172 C171 1.380 . S
C172 C179 1.357 . S
C173 C164 1.511 . S
C173 C174 1.341 . S
C173 C175 1.371 . S
C174 C173 1.341 . S
C174 C178 1.394 . S
C174 H190 0.930 . S
C175 C173 1.371 . S
C175 C176 1.392 . S
C175 H191 0.931 . S
C176 C175 1.392 . S
C176 C177 1.331 . S
C176 H194 0.932 . S
C177 C176 1.331 . S
C177 C178 1.336 . S
C178 C174 1.394 . S
C178 C177 1.336 . S
C178 H193 0.929 . S
C179 C169 1.386 . S
C179 C172 1.357 . S
C179 H192 0.928 . S
H180 C156 0.931 . S
H181 C158 0.930 . S
H182 C160 0.929 . S
H183 C161 0.931 . S
H184 C163 0.930 . S
H185 C167 0.931 . S
H186 C165 0.931 . S
H187 C169 0.931 . S
H188 C170 0.929 . S
H189 C171 0.930 . S
H190 C174 0.930 . S
H191 C175 0.931 . S
H192 C179 0.928 . S
H193 C178 0.929 . S
H194 C176 0.932 . S
C195 C196 1.386 . S
C195 C197 1.397 . S
C195 H219 0.931 . S
C196 C195 1.386 . S
C196 C200 1.397 . S
C197 C195 1.397 . S
C197 C198 1.384 . S
C197 H220 0.930 . S
C198 C197 1.384 . S
C198 C199 1.377 . S
C198 C201 1.481 . S
C199 C198 1.377 . S
C199 C200 1.389 . S
C199 H221 0.929 . S
C200 C196 1.397 . S
C200 C199 1.389 . S
C200 H222 0.931 . S
C201 C198 1.481 . S
C201 C202 1.387 . S
C201 C206 1.390 . S
C202 C201 1.387 . S
C202 C203 1.401 . S
C202 H223 0.930 . S
C203 C202 1.401 . S
C203 C204 1.376 . S
C203 C212 1.511 . S
C204 C203 1.376 . S
C204 C205 1.392 . S
C204 H225 0.931 . S
C205 C204 1.392 . S
C205 C206 1.361 . S
C205 C207 1.500 . S
C206 C201 1.390 . S
C206 C205 1.361 . S
C206 H224 0.931 . S
C207 C205 1.500 . S
C207 C208 1.371 . S
C207 C209 1.365 . S
C208 C207 1.371 . S
C208 C218 1.386 . S
C208 H226 0.931 . S
C209 C207 1.365 . S
C209 C210 1.409 . S
C209 H227 0.929 . S
C210 C209 1.409 . S
C210 C211 1.380 . S
C210 H228 0.930 . S
C211 C210 1.380 . S
C211 C218 1.357 . S
C212 C203 1.511 . S
C212 C213 1.341 . S
C212 C214 1.371 . S
C213 C212 1.341 . S
C213 C217 1.394 . S
C213 H229 0.930 . S
C214 C212 1.371 . S
C214 C215 1.392 . S
C214 H230 0.931 . S
C215 C214 1.392 . S
C215 C216 1.331 . S
C215 H233 0.932 . S
C216 C215 1.331 . S
C216 C217 1.336 . S
C217 C213 1.394 . S
C217 C216 1.336 . S
C217 H232 0.929 . S
C218 C208 1.386 . S
C218 C211 1.357 . S
C218 H231 0.928 . S
H219 C195 0.931 . S
H220 C197 0.930 . S
H221 C199 0.929 . S
H222 C200 0.931 . S
H223 C202 0.930 . S
H224 C206 0.931 . S
H225 C204 0.931 . S
H226 C208 0.931 . S
H227 C209 0.929 . S
H228 C210 0.930 . S
H229 C213 0.930 . S
H230 C214 0.931 . S
H231 C218 0.928 . S
H232 C217 0.929 . S
H233 C215 0.932 . S
C234 C235 1.386 . S
C234 C236 1.397 . S
C234 H258 0.931 . S
C235 C234 1.386 . S
C235 C239 1.397 . S
C236 C234 1.397 . S
C236 C237 1.384 . S
C236 H259 0.930 . S
C237 C236 1.384 . S
C237 C238 1.377 . S
C237 C240 1.481 . S
C238 C237 1.377 . S
C238 C239 1.389 . S
C238 H260 0.929 . S
C239 C235 1.397 . S
C239 C238 1.389 . S
C239 H261 0.931 . S
C240 C237 1.481 . S
C240 C241 1.387 . S
C240 C245 1.390 . S
C241 C240 1.387 . S
C241 C242 1.401 . S
C241 H262 0.930 . S
C242 C241 1.401 . S
C242 C243 1.376 . S
C242 C251 1.511 . S
C243 C242 1.376 . S
C243 C244 1.392 . S
C243 H264 0.931 . S
C244 C243 1.392 . S
C244 C245 1.361 . S
C244 C246 1.500 . S
C245 C240 1.390 . S
C245 C244 1.361 . S
C245 H263 0.931 . S
C246 C244 1.500 . S
C246 C247 1.371 . S
C246 C248 1.365 . S
C247 C246 1.371 . S
C247 C257 1.386 . S
C247 H265 0.931 . S
C248 C246 1.365 . S
C248 C249 1.409 . S
C248 H266 0.929 . S
C249 C248 1.409 . S
C249 C250 1.380 . S
C249 H267 0.930 . S
C250 C249 1.380 . S
C250 C257 1.357 . S
C251 C242 1.511 . S
C251 C252 1.341 . S
C251 C253 1.371 . S
C252 C251 1.341 . S
C252 C256 1.394 . S
C252 H268 0.930 . S
C253 C251 1.371 . S
C253 C254 1.392 . S
C253 H269 0.931 . S
C254 C253 1.392 . S
C254 C255 1.331 . S
C254 H272 0.932 . S
C255 C254 1.331 . S
C255 C256 1.336 . S
C256 C252 1.394 . S
C256 C255 1.336 . S
C256 H271 0.929 . S
C257 C247 1.386 . S
C257 C250 1.357 . S
C257 H270 0.928 . S
H258 C234 0.931 . S
H259 C236 0.930 . S
H260 C238 0.929 . S
H261 C239 0.931 . S
H262 C241 0.930 . S
H263 C245 0.931 . S
H264 C243 0.931 . S
H265 C247 0.931 . S
H266 C248 0.929 . S
H267 C249 0.930 . S
H268 C252 0.930 . S
H269 C253 0.931 . S
H270 C257 0.928 . S
H271 C256 0.929 . S
H272 C254 0.932 . S
C273 C274 1.386 . S
C273 C275 1.397 . S
C273 H297 0.931 . S
C274 C273 1.386 . S
C274 C278 1.397 . S
C275 C273 1.397 . S
C275 C276 1.384 . S
C275 H298 0.930 . S
C276 C275 1.384 . S
C276 C277 1.377 . S
C276 C279 1.481 . S
C277 C276 1.377 . S
C277 C278 1.389 . S
C277 H299 0.929 . S
C278 C274 1.397 . S
C278 C277 1.389 . S
C278 H300 0.931 . S
C279 C276 1.481 . S
C279 C280 1.387 . S
C279 C284 1.390 . S
C280 C279 1.387 . S
C280 C281 1.401 . S
C280 H301 0.930 . S
C281 C280 1.401 . S
C281 C282 1.376 . S
C281 C290 1.511 . S
C282 C281 1.376 . S
C282 C283 1.392 . S
C282 H303 0.931 . S
C283 C282 1.392 . S
C283 C284 1.361 . S
C283 C285 1.500 . S
C284 C279 1.390 . S
C284 C283 1.361 . S
C284 H302 0.931 . S
C285 C283 1.500 . S
C285 C286 1.371 . S
C285 C287 1.365 . S
C286 C285 1.371 . S
C286 C296 1.386 . S
C286 H304 0.931 . S
C287 C285 1.365 . S
C287 C288 1.409 . S
C287 H305 0.929 . S
C288 C287 1.409 . S
C288 C289 1.380 . S
C288 H306 0.930 . S
C289 C288 1.380 . S
C289 C296 1.357 . S
C290 C281 1.511 . S
C290 C291 1.341 . S
C290 C292 1.371 . S
C291 C290 1.341 . S
C291 C295 1.394 . S
C291 H307 0.930 . S
C292 C290 1.371 . S
C292 C293 1.392 . S
C292 H308 0.931 . S
C293 C292 1.392 . S
C293 C294 1.331 . S
C293 H311 0.932 . S
C294 C293 1.331 . S
C294 C295 1.336 . S
C295 C291 1.394 . S
C295 C294 1.336 . S
C295 H310 0.929 . S
C296 C286 1.386 . S
C296 C289 1.357 . S
C296 H309 0.928 . S
H297 C273 0.931 . S
H298 C275 0.930 . S
H299 C277 0.929 . S
H300 C278 0.931 . S
H301 C280 0.930 . S
H302 C284 0.931 . S
H303 C282 0.931 . S
H304 C286 0.931 . S
H305 C287 0.929 . S
H306 C288 0.930 . S
H307 C291 0.930 . S
H308 C292 0.931 . S
H309 C296 0.928 . S
H310 C295 0.929 . S
H311 C293 0.932 . S
La312 C314 2.928 . S
La312 O332 2.521 . S
La312 O333 2.628 . S
La312 O334 2.554 1_545 S
La312 O335 2.757 1_545 S
La312 O336 2.470 . S
La312 O341 2.482 1_455 S
La312 O343 2.503 1_445 S
La313 C323 2.928 . S
La313 O335 2.482 1_655 S
La313 O337 2.503 1_665 S
La313 O338 2.521 . S
La313 O339 2.628 . S
La313 O340 2.554 1_565 S
La313 O341 2.757 1_565 S
La313 O342 2.470 . S
C314 La312 2.928 . S
C314 C315 1.503 . S
C314 O332 1.261 . S
C314 O333 1.243 . S
C315 C314 1.503 . S
C315 C316 1.394 . S
C315 C320 1.373 . S
C316 C315 1.394 . S
C316 C317 1.380 . S
C316 H344 0.930 . S
C317 C316 1.380 . S
C317 C318 1.376 . S
C317 H345 0.930 . S
C318 C317 1.376 . S
C318 C319 1.370 . S
C319 C318 1.370 . S
C319 C320 1.396 . S
C319 H346 0.929 . S
C320 C315 1.373 . S
C320 C319 1.396 . S
C320 H347 0.929 . S
C321 O334 1.240 . S
C321 O335 1.289 . S
C322 O336 1.258 . S
C322 O337 1.256 . S
C323 La313 2.928 . S
C323 C324 1.503 . S
C323 O338 1.261 . S
C323 O339 1.243 . S
C324 C323 1.503 . S
C324 C325 1.394 . S
C324 C329 1.373 . S
C325 C324 1.394 . S
C325 C326 1.380 . S
C325 H348 0.930 . S
C326 C325 1.380 . S
C326 C327 1.376 . S
C326 H349 0.930 . S
C327 C326 1.376 . S
C327 C328 1.370 . S
C328 C327 1.370 . S
C328 C329 1.396 . S
C328 H350 0.929 . S
C329 C324 1.373 . S
C329 C328 1.396 . S
C329 H351 0.929 . S
C330 O340 1.240 . S
C330 O341 1.289 . S
C331 O342 1.258 . S
C331 O343 1.256 . S
O332 La312 2.521 . S
O332 C314 1.261 . S
O333 La312 2.628 . S
O333 C314 1.243 . S
O334 La312 2.554 1_565 S
O334 C321 1.240 . S
O335 La312 2.757 1_565 S
O335 La313 2.482 1_455 S
O335 C321 1.289 . S
O336 La312 2.470 . S
O336 C322 1.258 . S
O337 La313 2.503 1_445 S
O337 C322 1.256 . S
O338 La313 2.521 . S
O338 C323 1.261 . S
O339 La313 2.628 . S
O339 C323 1.243 . S
O340 La313 2.554 1_545 S
O340 C330 1.240 . S
O341 La312 2.482 1_655 S
O341 La313 2.757 1_545 S
O341 C330 1.289 . S
O342 La313 2.470 . S
O342 C331 1.258 . S
O343 La312 2.503 1_665 S
O343 C331 1.256 . S
H344 C316 0.930 . S
H345 C317 0.930 . S
H346 C319 0.929 . S
H347 C320 0.929 . S
H348 C325 0.930 . S
H349 C326 0.930 . S
H350 C328 0.929 . S
H351 C329 0.929 . S
La352 C354 2.923 1_565 S
La352 O372 2.520 1_565 S
La352 O373 2.619 1_565 S
La352 O374 2.561 . S
La352 O375 2.761 . S
La352 O376 2.465 1_565 S
La352 O381 2.475 1_564 S
La352 O383 2.509 1_554 S
La353 C363 2.928 1_545 S
La353 O375 2.482 1_546 S
La353 O377 2.503 1_556 S
La353 O378 2.521 1_545 S
La353 O379 2.628 1_545 S
La353 O380 2.554 . S
La353 O381 2.757 . S
La353 O382 2.470 1_545 S
C354 La352 2.923 1_545 S
C354 C355 1.503 . S
C354 O372 1.261 . S
C354 O373 1.243 . S
C355 C354 1.503 . S
C355 C356 1.394 . S
C355 C360 1.373 . S
C356 C355 1.394 . S
C356 C357 1.380 . S
C356 H384 0.930 . S
C357 C356 1.380 . S
C357 C358 1.376 . S
C357 H385 0.930 . S
C358 C357 1.376 . S
C358 C359 1.370 . S
C359 C358 1.370 . S
C359 C360 1.396 . S
C359 H386 0.929 . S
C360 C355 1.373 . S
C360 C359 1.396 . S
C360 H387 0.929 . S
C361 O374 1.240 . S
C361 O375 1.289 . S
C362 O376 1.258 . S
C362 O377 1.256 . S
C363 La353 2.928 1_565 S
C363 C364 1.503 . S
C363 O378 1.261 . S
C363 O379 1.243 . S
C364 C363 1.503 . S
C364 C365 1.394 . S
C364 C369 1.373 . S
C365 C364 1.394 . S
C365 C366 1.380 . S
C365 H388 0.930 . S
C366 C365 1.380 . S
C366 C367 1.376 . S
C366 H389 0.930 . S
C367 C366 1.376 . S
C367 C368 1.370 . S
C368 C367 1.370 . S
C368 C369 1.396 . S
C368 H390 0.929 . S
C369 C364 1.373 . S
C369 C368 1.396 . S
C369 H391 0.929 . S
C370 O380 1.240 . S
C370 O381 1.289 . S
C371 O382 1.258 . S
C371 O383 1.256 . S
O372 La352 2.520 1_545 S
O372 C354 1.261 . S
O373 La352 2.619 1_545 S
O373 C354 1.243 . S
O374 La352 2.561 . S
O374 C361 1.240 . S
O375 La352 2.761 . S
O375 La353 2.482 1_564 S
O375 C361 1.289 . S
O376 La352 2.465 1_545 S
O376 C362 1.258 . S
O377 La353 2.503 1_554 S
O377 C362 1.256 . S
O378 La353 2.521 1_565 S
O378 C363 1.261 . S
O379 La353 2.628 1_565 S
O379 C363 1.243 . S
O380 La353 2.554 . S
O380 C370 1.240 . S
O381 La352 2.475 1_546 S
O381 La353 2.757 . S
O381 C370 1.289 . S
O382 La353 2.470 1_565 S
O382 C371 1.258 . S
O383 La352 2.509 1_556 S
O383 C371 1.256 . S
H384 C356 0.930 . S
H385 C357 0.930 . S
H386 C359 0.929 . S
H387 C360 0.929 . S
H388 C365 0.930 . S
H389 C366 0.930 . S
H390 C368 0.929 . S
H391 C369 0.929 . S
La392 C394 2.928 . S
La392 O412 2.521 . S
La392 O413 2.628 . S
La392 O414 2.554 . S
La392 O415 2.757 . S
La392 O416 2.470 . S
La392 O421 2.482 . S
La392 O423 2.503 . S
La393 C403 2.928 . S
La393 O415 2.482 . S
La393 O417 2.503 . S
La393 O418 2.521 . S
La393 O419 2.628 . S
La393 O420 2.554 . S
La393 O421 2.757 . S
La393 O422 2.470 . S
C394 La392 2.928 . S
C394 C395 1.503 . S
C394 O412 1.261 . S
C394 O413 1.243 . S
C395 C394 1.503 . S
C395 C396 1.394 . S
C395 C400 1.373 . S
C396 C395 1.394 . S
C396 C397 1.380 . S
C396 H424 0.930 . S
C397 C396 1.380 . S
C397 C398 1.376 . S
C397 H425 0.930 . S
C398 C397 1.376 . S
C398 C399 1.370 . S
C399 C398 1.370 . S
C399 C400 1.396 . S
C399 H426 0.929 . S
C400 C395 1.373 . S
C400 C399 1.396 . S
C400 H427 0.929 . S
C401 O414 1.240 . S
C401 O415 1.289 . S
C402 O416 1.258 . S
C402 O417 1.256 . S
C403 La393 2.928 . S
C403 C404 1.503 . S
C403 O418 1.261 . S
C403 O419 1.243 . S
C404 C403 1.503 . S
C404 C405 1.394 . S
C404 C409 1.373 . S
C405 C404 1.394 . S
C405 C406 1.380 . S
C405 H428 0.930 . S
C406 C405 1.380 . S
C406 C407 1.376 . S
C406 H429 0.930 . S
C407 C406 1.376 . S
C407 C408 1.370 . S
C408 C407 1.370 . S
C408 C409 1.396 . S
C408 H430 0.929 . S
C409 C404 1.373 . S
C409 C408 1.396 . S
C409 H431 0.929 . S
C410 O420 1.240 . S
C410 O421 1.289 . S
C411 O422 1.258 . S
C411 O423 1.256 . S
O412 La392 2.521 . S
O412 C394 1.261 . S
O413 La392 2.628 . S
O413 C394 1.243 . S
O414 La392 2.554 . S
O414 C401 1.240 . S
O415 La392 2.757 . S
O415 La393 2.482 . S
O415 C401 1.289 . S
O416 La392 2.470 . S
O416 C402 1.258 . S
O417 La393 2.503 . S
O417 C402 1.256 . S
O418 La393 2.521 . S
O418 C403 1.261 . S
O419 La393 2.628 . S
O419 C403 1.243 . S
O420 La393 2.554 . S
O420 C410 1.240 . S
O421 La392 2.482 . S
O421 La393 2.757 . S
O421 C410 1.289 . S
O422 La393 2.470 . S
O422 C411 1.258 . S
O423 La392 2.503 . S
O423 C411 1.256 . S
H424 C396 0.930 . S
H425 C397 0.930 . S
H426 C399 0.929 . S
H427 C400 0.929 . S
H428 C405 0.930 . S
H429 C406 0.930 . S
H430 C408 0.929 . S
H431 C409 0.929 . S
La432 C434 2.928 . S
La432 O452 2.521 . S
La432 O453 2.628 . S
La432 O454 2.554 1_455 S
La432 O455 2.757 1_455 S
La432 O456 2.470 . S
La432 O461 2.482 1_554 S
La432 O463 2.503 1_454 S
La433 C443 2.928 . S
La433 O455 2.482 1_556 S
La433 O457 2.503 1_656 S
La433 O458 2.521 . S
La433 O459 2.628 . S
La433 O460 2.554 1_655 S
La433 O461 2.757 1_655 S
La433 O462 2.470 . S
C434 La432 2.928 . S
C434 C435 1.503 . S
C434 O452 1.261 . S
C434 O453 1.243 . S
C435 C434 1.503 . S
C435 C436 1.394 . S
C435 C440 1.373 . S
C436 C435 1.394 . S
C436 C437 1.380 . S
C436 H464 0.930 . S
C437 C436 1.380 . S
C437 C438 1.376 . S
C437 H465 0.930 . S
C438 C437 1.376 . S
C438 C439 1.370 . S
C439 C438 1.370 . S
C439 C440 1.396 . S
C439 H466 0.929 . S
C440 C435 1.373 . S
C440 C439 1.396 . S
C440 H467 0.929 . S
C441 O454 1.240 . S
C441 O455 1.289 . S
C442 O456 1.258 . S
C442 O457 1.256 . S
C443 La433 2.928 . S
C443 C444 1.503 . S
C443 O458 1.261 . S
C443 O459 1.243 . S
C444 C443 1.503 . S
C444 C445 1.394 . S
C444 C449 1.373 . S
C445 C444 1.394 . S
C445 C446 1.380 . S
C445 H468 0.930 . S
C446 C445 1.380 . S
C446 C447 1.376 . S
C446 H469 0.930 . S
C447 C446 1.376 . S
C447 C448 1.370 . S
C448 C447 1.370 . S
C448 C449 1.396 . S
C448 H470 0.929 . S
C449 C444 1.373 . S
C449 C448 1.396 . S
C449 H471 0.929 . S
C450 O460 1.240 . S
C450 O461 1.289 . S
C451 O462 1.258 . S
C451 O463 1.256 . S
O452 La432 2.521 . S
O452 C434 1.261 . S
O453 La432 2.628 . S
O453 C434 1.243 . S
O454 La432 2.554 1_655 S
O454 C441 1.240 . S
O455 La432 2.757 1_655 S
O455 La433 2.482 1_554 S
O455 C441 1.289 . S
O456 La432 2.470 . S
O456 C442 1.258 . S
O457 La433 2.503 1_454 S
O457 C442 1.256 . S
O458 La433 2.521 . S
O458 C443 1.261 . S
O459 La433 2.628 . S
O459 C443 1.243 . S
O460 La433 2.554 1_455 S
O460 C450 1.240 . S
O461 La432 2.482 1_556 S
O461 La433 2.757 1_455 S
O461 C450 1.289 . S
O462 La433 2.470 . S
O462 C451 1.258 . S
O463 La432 2.503 1_656 S
O463 C451 1.256 . S
H464 C436 0.930 . S
H465 C437 0.930 . S
H466 C439 0.929 . S
H467 C440 0.929 . S
H468 C445 0.930 . S
H469 C446 0.930 . S
H470 C448 0.929 . S
H471 C449 0.929 . S
H472 C478 0.930 . S
H473 C482 0.930 . S
H474 C487 0.929 . S
H475 C485 0.929 . S
H476 C480 0.929 . S
H477 C486 0.929 . S
C478 H472 0.930 . S
C478 C479 1.367 . S
C478 C486 1.378 . S
C479 C478 1.367 . S
C479 C487 1.433 . S
C480 H476 0.929 . S
C480 C482 1.378 . S
C480 C484 1.350 . S
C481 C484 1.463 . S
C481 C486 1.350 . S
C481 N489 1.427 . S
C482 H473 0.930 . S
C482 C480 1.378 . S
C482 C483 1.367 . S
C483 C482 1.367 . S
C483 C485 1.433 . S
C484 C480 1.350 . S
C484 C481 1.463 . S
C484 N488 1.427 . S
C485 H475 0.929 . S
C485 C483 1.433 . S
C485 N488 1.384 . S
C486 H477 0.929 . S
C486 C478 1.378 . S
C486 C481 1.350 . S
C487 H474 0.929 . S
C487 C479 1.433 . S
C487 N489 1.384 . S
N488 C484 1.427 . S
N488 C485 1.384 . S
N489 C481 1.427 . S
N489 C487 1.384 . S
H490 C496 0.930 . S
H491 C500 0.930 . S
H492 C505 0.929 . S
H493 C503 0.929 . S
H494 C498 0.929 . S
H495 C504 0.929 . S
C496 H490 0.930 . S
C496 C497 1.367 . S
C496 C504 1.378 . S
C497 C496 1.367 . S
C497 C505 1.433 . S
C498 H494 0.929 . S
C498 C500 1.378 . S
C498 C502 1.350 . S
C499 C502 1.463 . S
C499 C504 1.350 . S
C499 N507 1.427 . S
C500 H491 0.930 . S
C500 C498 1.378 . S
C500 C501 1.367 . S
C501 C500 1.367 . S
C501 C503 1.433 . S
C502 C498 1.350 . S
C502 C499 1.463 . S
C502 N506 1.427 . S
C503 H493 0.929 . S
C503 C501 1.433 . S
C503 N506 1.384 . S
C504 H495 0.929 . S
C504 C496 1.378 . S
C504 C499 1.350 . S
C505 H492 0.929 . S
C505 C497 1.433 . S
C505 N507 1.384 . S
N506 C502 1.427 . S
N506 C503 1.384 . S
N507 C499 1.427 . S
N507 C505 1.384 . S
H508 C514 0.930 . S
H509 C518 0.930 . S
H510 C523 0.929 . S
H511 C521 0.929 . S
H512 C516 0.929 . S
H513 C522 0.929 . S
C514 H508 0.930 . S
C514 C515 1.367 . S
C514 C522 1.378 . S
C515 C514 1.367 . S
C515 C523 1.433 . S
C516 H512 0.929 . S
C516 C518 1.378 . S
C516 C520 1.350 . S
C517 C520 1.463 . S
C517 C522 1.350 . S
C517 N525 1.427 . S
C518 H509 0.930 . S
C518 C516 1.378 . S
C518 C519 1.367 . S
C519 C518 1.367 . S
C519 C521 1.433 . S
C520 C516 1.350 . S
C520 C517 1.463 . S
C520 N524 1.427 . S
C521 H511 0.929 . S
C521 C519 1.433 . S
C521 N524 1.384 . S
C522 H513 0.929 . S
C522 C514 1.378 . S
C522 C517 1.350 . S
C523 H510 0.929 . S
C523 C515 1.433 . S
C523 N525 1.384 . S
N524 C520 1.427 . S
N524 C521 1.384 . S
N525 C517 1.427 . S
N525 C523 1.384 . S
H526 C532 0.930 . S
H527 C536 0.930 . S
H528 C541 0.929 . S
H529 C539 0.929 . S
H530 C534 0.929 . S
H531 C540 0.929 . S
C532 H526 0.930 . S
C532 C533 1.367 . S
C532 C540 1.378 . S
C533 C532 1.367 . S
C533 C541 1.433 . S
C534 H530 0.929 . S
C534 C536 1.378 . S
C534 C538 1.350 . S
C535 C538 1.463 . S
C535 C540 1.350 . S
C535 N543 1.427 . S
C536 H527 0.930 . S
C536 C534 1.378 . S
C536 C537 1.367 . S
C537 C536 1.367 . S
C537 C539 1.433 . S
C538 C534 1.350 . S
C538 C535 1.463 . S
C538 N542 1.427 . S
C539 H529 0.929 . S
C539 C537 1.433 . S
C539 N542 1.384 . S
C540 H531 0.929 . S
C540 C532 1.378 . S
C540 C535 1.350 . S
C541 H528 0.929 . S
C541 C533 1.433 . S
C541 N543 1.384 . S
N542 C538 1.427 . S
N542 C539 1.384 . S
N543 C535 1.427 . S
N543 C541 1.384 . S
H544 C550 0.930 . S
H545 C554 0.930 . S
H546 C559 0.929 . S
H547 C557 0.929 . S
H548 C552 0.929 . S
H549 C558 0.929 . S
C550 H544 0.930 . S
C550 C551 1.367 . S
C550 C558 1.378 . S
C551 C550 1.367 . S
C551 C559 1.433 . S
C552 H548 0.929 . S
C552 C554 1.378 . S
C552 C556 1.350 . S
C553 C556 1.463 . S
C553 C558 1.350 . S
C553 N561 1.427 . S
C554 H545 0.930 . S
C554 C552 1.378 . S
C554 C555 1.367 . S
C555 C554 1.367 . S
C555 C557 1.433 . S
C556 C552 1.350 . S
C556 C553 1.463 . S
C556 N560 1.427 . S
C557 H547 0.929 . S
C557 C555 1.433 . S
C557 N560 1.384 . S
C558 H549 0.929 . S
C558 C550 1.378 . S
C558 C553 1.350 . S
C559 H546 0.929 . S
C559 C551 1.433 . S
C559 N561 1.384 . S
N560 C556 1.427 . S
N560 C557 1.384 . S
N561 C553 1.427 . S
N561 C559 1.384 . S
H562 C568 0.930 . S
H563 C572 0.930 . S
H564 C577 0.929 . S
H565 C575 0.929 . S
H566 C570 0.929 . S
H567 C576 0.929 . S
C568 H562 0.930 . S
C568 C569 1.367 . S
C568 C576 1.378 . S
C569 C568 1.367 . S
C569 C577 1.433 . S
C570 H566 0.929 . S
C570 C572 1.378 . S
C570 C574 1.350 . S
C571 C574 1.463 . S
C571 C576 1.350 . S
C571 N579 1.427 . S
C572 H563 0.930 . S
C572 C570 1.378 . S
C572 C573 1.367 . S
C573 C572 1.367 . S
C573 C575 1.433 . S
C574 C570 1.350 . S
C574 C571 1.463 . S
C574 N578 1.427 . S
C575 H565 0.929 . S
C575 C573 1.433 . S
C575 N578 1.384 . S
C576 H567 0.929 . S
C576 C568 1.378 . S
C576 C571 1.350 . S
C577 H564 0.929 . S
C577 C569 1.433 . S
C577 N579 1.384 . S
N578 C574 1.427 . S
N578 C575 1.384 . S
N579 C571 1.427 . S
N579 C577 1.384 . S
H580 C586 0.930 . S
H581 C590 0.930 . S
H582 C595 0.929 . S
H583 C593 0.929 . S
H584 C588 0.929 . S
H585 C594 0.929 . S
C586 H580 0.930 . S
C586 C587 1.367 . S
C586 C594 1.378 . S
C587 C586 1.367 . S
C587 C595 1.433 . S
C588 H584 0.929 . S
C588 C590 1.378 . S
C588 C592 1.350 . S
C589 C592 1.463 . S
C589 C594 1.350 . S
C589 N597 1.427 . S
C590 H581 0.930 . S
C590 C588 1.378 . S
C590 C591 1.367 . S
C591 C590 1.367 . S
C591 C593 1.433 . S
C592 C588 1.350 . S
C592 C589 1.463 . S
C592 N596 1.427 . S
C593 H583 0.929 . S
C593 C591 1.433 . S
C593 N596 1.384 . S
C594 H585 0.929 . S
C594 C586 1.378 . S
C594 C589 1.350 . S
C595 H582 0.929 . S
C595 C587 1.433 . S
C595 N597 1.384 . S
N596 C592 1.427 . S
N596 C593 1.384 . S
N597 C589 1.427 . S
N597 C595 1.384 . S
H598 C604 0.930 . S
H599 C608 0.930 . S
H600 C613 0.929 . S
H601 C611 0.929 . S
H602 C606 0.929 . S
H603 C612 0.929 . S
C604 H598 0.930 . S
C604 C605 1.367 . S
C604 C612 1.378 . S
C605 C604 1.367 . S
C605 C613 1.433 . S
C606 H602 0.929 . S
C606 C608 1.378 . S
C606 C610 1.350 . S
C607 C610 1.463 . S
C607 C612 1.350 . S
C607 N615 1.427 . S
C608 H599 0.930 . S
C608 C606 1.378 . S
C608 C609 1.367 . S
C609 C608 1.367 . S
C609 C611 1.433 . S
C610 C606 1.350 . S
C610 C607 1.463 . S
C610 N614 1.427 . S
C611 H601 0.929 . S
C611 C609 1.433 . S
C611 N614 1.384 . S
C612 H603 0.929 . S
C612 C604 1.378 . S
C612 C607 1.350 . S
C613 H600 0.929 . S
C613 C605 1.433 . S
C613 N615 1.384 . S
N614 C610 1.427 . S
N614 C611 1.384 . S
N615 C607 1.427 . S
N615 C613 1.384 . S
H616 C622 0.930 . S
H617 C626 0.930 . S
H618 C631 0.929 . S
H619 C629 0.929 . S
H620 C624 0.929 . S
H621 C630 0.929 . S
C622 H616 0.930 . S
C622 C623 1.367 . S
C622 C630 1.378 . S
C623 C622 1.367 . S
C623 C631 1.433 . S
C624 H620 0.929 . S
C624 C626 1.378 . S
C624 C628 1.350 . S
C625 C628 1.463 . S
C625 C630 1.350 . S
C625 N633 1.427 . S
C626 H617 0.930 . S
C626 C624 1.378 . S
C626 C627 1.367 . S
C627 C626 1.367 . S
C627 C629 1.433 . S
C628 C624 1.350 . S
C628 C625 1.463 . S
C628 N632 1.427 . S
C629 H619 0.929 . S
C629 C627 1.433 . S
C629 N632 1.384 . S
C630 H621 0.929 . S
C630 C622 1.378 . S
C630 C625 1.350 . S
C631 H618 0.929 . S
C631 C623 1.433 . S
C631 N633 1.384 . S
N632 C628 1.427 . S
N632 C629 1.384 . S
N633 C625 1.427 . S
N633 C631 1.384 . S
H634 C640 0.930 . S
H635 C644 0.930 . S
H636 C649 0.929 . S
H637 C647 0.929 . S
H638 C642 0.929 . S
H639 C648 0.929 . S
C640 H634 0.930 . S
C640 C641 1.367 . S
C640 C648 1.378 . S
C641 C640 1.367 . S
C641 C649 1.433 . S
C642 H638 0.929 . S
C642 C644 1.378 . S
C642 C646 1.350 . S
C643 C646 1.463 . S
C643 C648 1.350 . S
C643 N651 1.427 . S
C644 H635 0.930 . S
C644 C642 1.378 . S
C644 C645 1.367 . S
C645 C644 1.367 . S
C645 C647 1.433 . S
C646 C642 1.350 . S
C646 C643 1.463 . S
C646 N650 1.427 . S
C647 H637 0.929 . S
C647 C645 1.433 . S
C647 N650 1.384 . S
C648 H639 0.929 . S
C648 C640 1.378 . S
C648 C643 1.350 . S
C649 H636 0.929 . S
C649 C641 1.433 . S
C649 N651 1.384 . S
N650 C646 1.427 . S
N650 C647 1.384 . S
N651 C643 1.427 . S
N651 C649 1.384 . S
H652 C658 0.930 . S
H653 C662 0.930 . S
H654 C667 0.929 . S
H655 C665 0.929 . S
H656 C660 0.929 . S
H657 C666 0.929 . S
C658 H652 0.930 . S
C658 C659 1.367 . S
C658 C666 1.378 . S
C659 C658 1.367 . S
C659 C667 1.433 . S
C660 H656 0.929 . S
C660 C662 1.378 . S
C660 C664 1.350 . S
C661 C664 1.463 . S
C661 C666 1.350 . S
C661 N669 1.427 . S
C662 H653 0.930 . S
C662 C660 1.378 . S
C662 C663 1.367 . S
C663 C662 1.367 . S
C663 C665 1.433 . S
C664 C660 1.350 . S
C664 C661 1.463 . S
C664 N668 1.427 . S
C665 H655 0.929 . S
C665 C663 1.433 . S
C665 N668 1.384 . S
C666 H657 0.929 . S
C666 C658 1.378 . S
C666 C661 1.350 . S
C667 H654 0.929 . S
C667 C659 1.433 . S
C667 N669 1.384 . S
N668 C664 1.427 . S
N668 C665 1.384 . S
N669 C661 1.427 . S
N669 C667 1.384 . S
H670 C676 0.930 . S
H671 C680 0.930 . S
H672 C685 0.929 . S
H673 C683 0.929 . S
H674 C678 0.929 . S
H675 C684 0.929 . S
C676 H670 0.930 . S
C676 C677 1.367 . S
C676 C684 1.378 . S
C677 C676 1.367 . S
C677 C685 1.433 . S
C678 H674 0.929 . S
C678 C680 1.378 . S
C678 C682 1.350 . S
C679 C682 1.463 . S
C679 C684 1.350 . S
C679 N687 1.427 . S
C680 H671 0.930 . S
C680 C678 1.378 . S
C680 C681 1.367 . S
C681 C680 1.367 . S
C681 C683 1.433 . S
C682 C678 1.350 . S
C682 C679 1.463 . S
C682 N686 1.427 . S
C683 H673 0.929 . S
C683 C681 1.433 . S
C683 N686 1.384 . S
C684 H675 0.929 . S
C684 C676 1.378 . S
C684 C679 1.350 . S
C685 H672 0.929 . S
C685 C677 1.433 . S
C685 N687 1.384 . S
N686 C682 1.427 . S
N686 C683 1.384 . S
N687 C679 1.427 . S
N687 C685 1.384 . S
H688 C694 0.930 . S
H689 C698 0.930 . S
H690 C703 0.929 . S
H691 C701 0.929 . S
H692 C696 0.929 . S
H693 C702 0.929 . S
C694 H688 0.930 . S
C694 C695 1.367 . S
C694 C702 1.378 . S
C695 C694 1.367 . S
C695 C703 1.433 . S
C696 H692 0.929 . S
C696 C698 1.378 . S
C696 C700 1.350 . S
C697 C700 1.463 . S
C697 C702 1.350 . S
C697 N705 1.427 . S
C698 H689 0.930 . S
C698 C696 1.378 . S
C698 C699 1.367 . S
C699 C698 1.367 . S
C699 C701 1.433 . S
C700 C696 1.350 . S
C700 C697 1.463 . S
C700 N704 1.427 . S
C701 H691 0.929 . S
C701 C699 1.433 . S
C701 N704 1.384 . S
C702 H693 0.929 . S
C702 C694 1.378 . S
C702 C697 1.350 . S
C703 H690 0.929 . S
C703 C695 1.433 . S
C703 N705 1.384 . S
N704 C700 1.427 . S
N704 C701 1.384 . S
N705 C697 1.427 . S
N705 C703 1.384 . S
H706 C712 0.930 . S
H707 C716 0.930 . S
H708 C721 0.929 . S
H709 C719 0.929 . S
H710 C714 0.929 . S
H711 C720 0.929 . S
C712 H706 0.930 . S
C712 C713 1.367 . S
C712 C720 1.378 . S
C713 C712 1.367 . S
C713 C721 1.433 . S
C714 H710 0.929 . S
C714 C716 1.378 . S
C714 C718 1.350 . S
C715 C718 1.463 . S
C715 C720 1.350 . S
C715 N723 1.427 . S
C716 H707 0.930 . S
C716 C714 1.378 . S
C716 C717 1.367 . S
C717 C716 1.367 . S
C717 C719 1.433 . S
C718 C714 1.350 . S
C718 C715 1.463 . S
C718 N722 1.427 . S
C719 H709 0.929 . S
C719 C717 1.433 . S
C719 N722 1.384 . S
C720 H711 0.929 . S
C720 C712 1.378 . S
C720 C715 1.350 . S
C721 H708 0.929 . S
C721 C713 1.433 . S
C721 N723 1.384 . S
N722 C718 1.427 . S
N722 C719 1.384 . S
N723 C715 1.427 . S
N723 C721 1.384 . S
H724 C730 0.930 . S
H725 C734 0.930 . S
H726 C739 0.929 . S
H727 C737 0.929 . S
H728 C732 0.929 . S
H729 C738 0.929 . S
C730 H724 0.930 . S
C730 C731 1.367 . S
C730 C738 1.378 . S
C731 C730 1.367 . S
C731 C739 1.433 . S
C732 H728 0.929 . S
C732 C734 1.378 . S
C732 C736 1.350 . S
C733 C736 1.463 . S
C733 C738 1.350 . S
C733 N741 1.427 . S
C734 H725 0.930 . S
C734 C732 1.378 . S
C734 C735 1.367 . S
C735 C734 1.367 . S
C735 C737 1.433 . S
C736 C732 1.350 . S
C736 C733 1.463 . S
C736 N740 1.427 . S
C737 H727 0.929 . S
C737 C735 1.433 . S
C737 N740 1.384 . S
C738 H729 0.929 . S
C738 C730 1.378 . S
C738 C733 1.350 . S
C739 H726 0.929 . S
C739 C731 1.433 . S
C739 N741 1.384 . S
N740 C736 1.427 . S
N740 C737 1.384 . S
N741 C733 1.427 . S
N741 C739 1.384 . S
H742 C748 0.930 . S
H743 C752 0.930 . S
H744 C757 0.929 . S
H745 C755 0.929 . S
H746 C750 0.929 . S
H747 C756 0.929 . S
C748 H742 0.930 . S
C748 C749 1.367 . S
C748 C756 1.378 . S
C749 C748 1.367 . S
C749 C757 1.433 . S
C750 H746 0.929 . S
C750 C752 1.378 . S
C750 C754 1.350 . S
C751 C754 1.463 . S
C751 C756 1.350 . S
C751 N759 1.427 . S
C752 H743 0.930 . S
C752 C750 1.378 . S
C752 C753 1.367 . S
C753 C752 1.367 . S
C753 C755 1.433 . S
C754 C750 1.350 . S
C754 C751 1.463 . S
C754 N758 1.427 . S
C755 H745 0.929 . S
C755 C753 1.433 . S
C755 N758 1.384 . S
C756 H747 0.929 . S
C756 C748 1.378 . S
C756 C751 1.350 . S
C757 H744 0.929 . S
C757 C749 1.433 . S
C757 N759 1.384 . S
N758 C754 1.427 . S
N758 C755 1.384 . S
N759 C751 1.427 . S
N759 C757 1.384 . S
H760 C766 0.930 . S
H761 C770 0.930 . S
H762 C775 0.929 . S
H763 C773 0.929 . S
H764 C768 0.929 . S
H765 C774 0.929 . S
C766 H760 0.930 . S
C766 C767 1.367 . S
C766 C774 1.378 . S
C767 C766 1.367 . S
C767 C775 1.433 . S
C768 H764 0.929 . S
C768 C770 1.378 . S
C768 C772 1.350 . S
C769 C772 1.463 . S
C769 C774 1.350 . S
C769 N777 1.427 . S
C770 H761 0.930 . S
C770 C768 1.378 . S
C770 C771 1.367 . S
C771 C770 1.367 . S
C771 C773 1.433 . S
C772 C768 1.350 . S
C772 C769 1.463 . S
C772 N776 1.427 . S
C773 H763 0.929 . S
C773 C771 1.433 . S
C773 N776 1.384 . S
C774 H765 0.929 . S
C774 C766 1.378 . S
C774 C769 1.350 . S
C775 H762 0.929 . S
C775 C767 1.433 . S
C775 N777 1.384 . S
N776 C772 1.427 . S
N776 C773 1.384 . S
N777 C769 1.427 . S
N777 C775 1.384 . S
H778 C784 0.930 . S
H779 C788 0.930 . S
H780 C793 0.929 . S
H781 C791 0.929 . S
H782 C786 0.929 . S
H783 C792 0.929 . S
C784 H778 0.930 . S
C784 C785 1.367 . S
C784 C792 1.378 . S
C785 C784 1.367 . S
C785 C793 1.433 . S
C786 H782 0.929 . S
C786 C788 1.378 . S
C786 C790 1.350 . S
C787 C790 1.463 . S
C787 C792 1.350 . S
C787 N795 1.427 . S
C788 H779 0.930 . S
C788 C786 1.378 . S
C788 C789 1.367 . S
C789 C788 1.367 . S
C789 C791 1.433 . S
C790 C786 1.350 . S
C790 C787 1.463 . S
C790 N794 1.427 . S
C791 H781 0.929 . S
C791 C789 1.433 . S
C791 N794 1.384 . S
C792 H783 0.929 . S
C792 C784 1.378 . S
C792 C787 1.350 . S
C793 H780 0.929 . S
C793 C785 1.433 . S
C793 N795 1.384 . S
N794 C790 1.427 . S
N794 C791 1.384 . S
N795 C787 1.427 . S
N795 C793 1.384 . S
H796 C802 0.930 . S
H797 C806 0.930 . S
H798 C811 0.929 . S
H799 C809 0.929 . S
H800 C804 0.929 . S
H801 C810 0.929 . S
C802 H796 0.930 . S
C802 C803 1.367 . S
C802 C810 1.378 . S
C803 C802 1.367 . S
C803 C811 1.433 . S
C804 H800 0.929 . S
C804 C806 1.378 . S
C804 C808 1.350 . S
C805 C808 1.463 . S
C805 C810 1.350 . S
C805 N813 1.427 . S
C806 H797 0.930 . S
C806 C804 1.378 . S
C806 C807 1.367 . S
C807 C806 1.367 . S
C807 C809 1.433 . S
C808 C804 1.350 . S
C808 C805 1.463 . S
C808 N812 1.427 . S
C809 H799 0.929 . S
C809 C807 1.433 . S
C809 N812 1.384 . S
C810 H801 0.929 . S
C810 C802 1.378 . S
C810 C805 1.350 . S
C811 H798 0.929 . S
C811 C803 1.433 . S
C811 N813 1.384 . S
N812 C808 1.427 . S
N812 C809 1.384 . S
N813 C805 1.427 . S
N813 C811 1.384 . S
H814 C820 0.930 . S
H815 C824 0.930 . S
H816 C829 0.929 . S
H817 C827 0.929 . S
H818 C822 0.929 . S
H819 C828 0.929 . S
C820 H814 0.930 . S
C820 C821 1.367 . S
C820 C828 1.378 . S
C821 C820 1.367 . S
C821 C829 1.433 . S
C822 H818 0.929 . S
C822 C824 1.378 . S
C822 C826 1.350 . S
C823 C826 1.463 . S
C823 C828 1.350 . S
C823 N831 1.427 . S
C824 H815 0.930 . S
C824 C822 1.378 . S
C824 C825 1.367 . S
C825 C824 1.367 . S
C825 C827 1.433 . S
C826 C822 1.350 . S
C826 C823 1.463 . S
C826 N830 1.427 . S
C827 H817 0.929 . S
C827 C825 1.433 . S
C827 N830 1.384 . S
C828 H819 0.929 . S
C828 C820 1.378 . S
C828 C823 1.350 . S
C829 H816 0.929 . S
C829 C821 1.433 . S
C829 N831 1.384 . S
N830 C826 1.427 . S
N830 C827 1.384 . S
N831 C823 1.427 . S
N831 C829 1.384 . S
H832 C838 0.930 . S
H833 C842 0.930 . S
H834 C847 0.929 . S
H835 C845 0.929 . S
H836 C840 0.929 . S
H837 C846 0.929 . S
C838 H832 0.930 . S
C838 C839 1.367 . S
C838 C846 1.378 . S
C839 C838 1.367 . S
C839 C847 1.433 . S
C840 H836 0.929 . S
C840 C842 1.378 . S
C840 C844 1.350 . S
C841 C844 1.463 . S
C841 C846 1.350 . S
C841 N849 1.427 . S
C842 H833 0.930 . S
C842 C840 1.378 . S
C842 C843 1.367 . S
C843 C842 1.367 . S
C843 C845 1.433 . S
C844 C840 1.350 . S
C844 C841 1.463 . S
C844 N848 1.427 . S
C845 H835 0.929 . S
C845 C843 1.433 . S
C845 N848 1.384 . S
C846 H837 0.929 . S
C846 C838 1.378 . S
C846 C841 1.350 . S
C847 H834 0.929 . S
C847 C839 1.433 . S
C847 N849 1.384 . S
N848 C844 1.427 . S
N848 C845 1.384 . S
N849 C841 1.427 . S
N849 C847 1.384 . S
H850 C856 0.930 . S
H851 C860 0.930 . S
H852 C865 0.929 . S
H853 C863 0.929 . S
H854 C858 0.929 . S
H855 C864 0.929 . S
C856 H850 0.930 . S
C856 C857 1.367 . S
C856 C864 1.378 . S
C857 C856 1.367 . S
C857 C865 1.433 . S
C858 H854 0.929 . S
C858 C860 1.378 . S
C858 C862 1.350 . S
C859 C862 1.463 . S
C859 C864 1.350 . S
C859 N867 1.427 . S
C860 H851 0.930 . S
C860 C858 1.378 . S
C860 C861 1.367 . S
C861 C860 1.367 . S
C861 C863 1.433 . S
C862 C858 1.350 . S
C862 C859 1.463 . S
C862 N866 1.427 . S
C863 H853 0.929 . S
C863 C861 1.433 . S
C863 N866 1.384 . S
C864 H855 0.929 . S
C864 C856 1.378 . S
C864 C859 1.350 . S
C865 H852 0.929 . S
C865 C857 1.433 . S
C865 N867 1.384 . S
N866 C862 1.427 . S
N866 C863 1.384 . S
N867 C859 1.427 . S
N867 C865 1.384 . S
H868 C874 0.930 . S
H869 C878 0.930 . S
H870 C883 0.929 . S
H871 C881 0.929 . S
H872 C876 0.929 . S
H873 C882 0.929 . S
C874 H868 0.930 . S
C874 C875 1.367 . S
C874 C882 1.378 . S
C875 C874 1.367 . S
C875 C883 1.433 . S
C876 H872 0.929 . S
C876 C878 1.378 . S
C876 C880 1.350 . S
C877 C880 1.463 . S
C877 C882 1.350 . S
C877 N885 1.427 . S
C878 H869 0.930 . S
C878 C876 1.378 . S
C878 C879 1.367 . S
C879 C878 1.367 . S
C879 C881 1.433 . S
C880 C876 1.350 . S
C880 C877 1.463 . S
C880 N884 1.427 . S
C881 H871 0.929 . S
C881 C879 1.433 . S
C881 N884 1.384 . S
C882 H873 0.929 . S
C882 C874 1.378 . S
C882 C877 1.350 . S
C883 H870 0.929 . S
C883 C875 1.433 . S
C883 N885 1.384 . S
N884 C880 1.427 . S
N884 C881 1.384 . S
N885 C877 1.427 . S
N885 C883 1.384 . S
H886 C892 0.930 . S
H887 C896 0.930 . S
H888 C901 0.929 . S
H889 C899 0.929 . S
H890 C894 0.929 . S
H891 C900 0.929 . S
C892 H886 0.930 . S
C892 C893 1.367 . S
C892 C900 1.378 . S
C893 C892 1.367 . S
C893 C901 1.433 . S
C894 H890 0.929 . S
C894 C896 1.378 . S
C894 C898 1.350 . S
C895 C898 1.463 . S
C895 C900 1.350 . S
C895 N903 1.427 . S
C896 H887 0.930 . S
C896 C894 1.378 . S
C896 C897 1.367 . S
C897 C896 1.367 . S
C897 C899 1.433 . S
C898 C894 1.350 . S
C898 C895 1.463 . S
C898 N902 1.427 . S
C899 H889 0.929 . S
C899 C897 1.433 . S
C899 N902 1.384 . S
C900 H891 0.929 . S
C900 C892 1.378 . S
C900 C895 1.350 . S
C901 H888 0.929 . S
C901 C893 1.433 . S
C901 N903 1.384 . S
N902 C898 1.427 . S
N902 C899 1.384 . S
N903 C895 1.427 . S
N903 C901 1.384 . S
C479 C1 1.207 . S
C483 C318 1.266 . S
C497 C40 0.944 . S
C501 C367 0.940 . S
C519 C402 2.485 . S
C515 C99 2.542 . S
C533 C118 2.406 . S
C537 C441 2.347 . S
C555 C362 2.478 . S
C551 C16 2.354 . S
C573 C321 0.849 . S
C569 C60 0.861 . S
C591 C451 1.900 . S
C587 C79 1.956 . S
C609 C410 1.591 . S
C605 C138 1.625 . S
C623 C21 1.653 . S
C627 C438 1.726 . S
C645 C370 2.339 . S
C641 C94 2.434 . S
C659 C133 2.340 . S
C663 C331 2.325 . S
C677 C55 0.836 . S
C681 C407 0.847 . S
C699 C327 1.276 . S
C695 C157 1.237 . S
C713 C196 0.948 . S
C717 C358 0.944 . S
C731 C255 2.540 . S
C735 C411 2.478 . S
C749 C289 2.403 . S
C753 C450 2.343 . S
C767 C172 2.341 . S
C771 C371 2.476 . S
C789 C330 0.849 . S
C785 C216 0.856 . S
C807 C442 1.900 . S
C803 C235 1.958 . S
C825 C401 1.600 . S
C821 C294 1.623 . S
C839 C177 1.660 . S
C843 C447 1.723 . S
C861 C361 2.341 . S
C857 C250 2.435 . S
C879 C322 2.328 . S
C875 C274 2.343 . S
C893 C211 0.844 . S
C897 C398 0.841 . S
