# Generated by pormake.
# Topology nom, (4,4)-cn, num edge types: 1
# Building blocks:
#     Node 0, Type 0, BuildingBlock: AZAVOO_clean_linker_0, # of connection points: 4
#     Node 1, Type 0, BuildingBlock: AZAVOO_clean_linker_0, # of connection points: 4
#     Node 2, Type 0, BuildingBlock: AZAVOO_clean_linker_0, # of connection points: 4
#     Node 3, Type 0, BuildingBlock: AZAVOO_clean_linker_0, # of connection points: 4
#     Node 4, Type 0, BuildingBlock: AZAVOO_clean_linker_0, # of connection points: 4
#     Node 5, Type 0, BuildingBlock: AZAVOO_clean_linker_0, # of connection points: 4
#     Node 6, Type 1, BuildingBlock: GALJAG_clean_sbu_0, # of connection points: 4
#     Node 7, Type 1, BuildingBlock: GALJAG_clean_sbu_0, # of connection points: 4
#     Node 8, Type 1, BuildingBlock: GALJAG_clean_sbu_0, # of connection points: 4
#     Node 9, Type 1, BuildingBlock: GALJAG_clean_sbu_0, # of connection points: 4
#     Node 10, Type 1, BuildingBlock: GALJAG_clean_sbu_0, # of connection points: 4
#     Node 11, Type 1, BuildingBlock: GALJAG_clean_sbu_0, # of connection points: 4
#     Edge 12, Type (0, 1), BuildingBlock: CIFDUS_clean_linker_0, # of connection points: 2
#     Edge 13, Type (0, 1), BuildingBlock: CIFDUS_clean_linker_0, # of connection points: 2
#     Edge 14, Type (0, 1), BuildingBlock: CIFDUS_clean_linker_0, # of connection points: 2
#     Edge 15, Type (0, 1), BuildingBlock: CIFDUS_clean_linker_0, # of connection points: 2
#     Edge 16, Type (0, 1), BuildingBlock: CIFDUS_clean_linker_0, # of connection points: 2
#     Edge 17, Type (0, 1), BuildingBlock: CIFDUS_clean_linker_0, # of connection points: 2
#     Edge 18, Type (0, 1), BuildingBlock: CIFDUS_clean_linker_0, # of connection points: 2
#     Edge 19, Type (0, 1), BuildingBlock: CIFDUS_clean_linker_0, # of connection points: 2
#     Edge 20, Type (0, 1), BuildingBlock: CIFDUS_clean_linker_0, # of connection points: 2
#     Edge 21, Type (0, 1), BuildingBlock: CIFDUS_clean_linker_0, # of connection points: 2
#     Edge 22, Type (0, 1), BuildingBlock: CIFDUS_clean_linker_0, # of connection points: 2
#     Edge 23, Type (0, 1), BuildingBlock: CIFDUS_clean_linker_0, # of connection points: 2
#     Edge 24, Type (0, 1), BuildingBlock: CIFDUS_clean_linker_0, # of connection points: 2
#     Edge 25, Type (0, 1), BuildingBlock: CIFDUS_clean_linker_0, # of connection points: 2
#     Edge 26, Type (0, 1), BuildingBlock: CIFDUS_clean_linker_0, # of connection points: 2
#     Edge 27, Type (0, 1), BuildingBlock: CIFDUS_clean_linker_0, # of connection points: 2
#     Edge 28, Type (0, 1), BuildingBlock: CIFDUS_clean_linker_0, # of connection points: 2
#     Edge 29, Type (0, 1), BuildingBlock: CIFDUS_clean_linker_0, # of connection points: 2
#     Edge 30, Type (0, 1), BuildingBlock: CIFDUS_clean_linker_0, # of connection points: 2
#     Edge 31, Type (0, 1), BuildingBlock: CIFDUS_clean_linker_0, # of connection points: 2
#     Edge 32, Type (0, 1), BuildingBlock: CIFDUS_clean_linker_0, # of connection points: 2
#     Edge 33, Type (0, 1), BuildingBlock: CIFDUS_clean_linker_0, # of connection points: 2
#     Edge 34, Type (0, 1), BuildingBlock: CIFDUS_clean_linker_0, # of connection points: 2
#     Edge 35, Type (0, 1), BuildingBlock: CIFDUS_clean_linker_0, # of connection points: 2
# Relax obj value: 0.117
# Max RMSD: 0.224
# Mean RMSD: 0.143
data_MOF--net-nom--node1-GALJAG_clean_sbu_0--node2-AZAVOO_clean_linker_0--edge1-CIFDUS_clean_linker_0
_symmetry_space_group_name_H-M    P1
_symmetry_Int_Tables_number       1
_symmetry_cell_setting            triclinic
loop_
_symmetry_equiv_pos_as_xyz
'x, y, z'
_cell_length_a     43.075918
_cell_length_b     44.271136
_cell_length_c     54.951508
_cell_angle_alpha  90.072092
_cell_angle_beta   89.985823
_cell_angle_gamma 121.61653
loop_
_atom_site_label
_atom_site_type_symbol
_atom_site_fract_x
_atom_site_fract_y
_atom_site_fract_z
_atom_type_partial_charge
H0 H 0.09054 0.55822 0.15146 0.0
H1 H 0.25646 0.73021 0.39959 0.0
H2 H 0.00657 0.50801 0.27334 0.0
H3 H 0.96903 0.48353 0.23687 0.0
H4 H 0.94666 0.56792 0.23835 0.0
H5 H 0.98464 0.59242 0.27487 0.0
H6 H 0.09079 0.55459 0.2579 0.0
H7 H 0.09526 0.55001 0.21378 0.0
H8 H 0.05343 0.61904 0.2031 0.0
H9 H 0.04975 0.62387 0.24722 0.0
H10 H 0.15324 0.59922 0.30261 0.0
H11 H 0.21555 0.63743 0.28833 0.0
H12 H 0.18337 0.70272 0.25075 0.0
H13 H 0.12212 0.66635 0.26733 0.0
H14 H 0.11949 0.57956 0.35301 0.0
H15 H 0.17128 0.60999 0.38088 0.0
H16 H 0.19071 0.71111 0.35594 0.0
H17 H 0.13836 0.6803 0.32849 0.0
H18 H 0.03357 0.53242 0.36078 0.0
H19 H 0.04805 0.53134 0.40363 0.0
H20 H 0.09048 0.64388 0.40871 0.0
H21 H 0.07426 0.64423 0.36623 0.0
H22 H 0.96911 0.50496 0.32137 0.0
H23 H 0.90794 0.48347 0.33764 0.0
H24 H 0.93983 0.59132 0.3549 0.0
H25 H 0.00073 0.61231 0.33899 0.0
O26 O 0.08905 0.56079 0.16883 0.0
O27 O 0.06677 0.59581 0.16437 0.0
O28 O 0.22447 0.66481 0.40108 0.0
O29 O 0.23601 0.71749 0.38859 0.0
C30 C 0.03016 0.57254 0.29292 0.0
C31 C 0.06541 0.59064 0.28247 0.0
C32 C 0.09645 0.6095 0.2974 0.0
C33 C 0.09235 0.60909 0.32292 0.0
C34 C 0.05705 0.59128 0.33339 0.0
C35 C 0.0259 0.57396 0.31831 0.0
C36 C -0.00165 0.55199 0.27666 0.0
C37 C 0.99227 0.52031 0.26639 0.0
C38 C 0.97094 0.50646 0.24549 0.0
C39 C 0.95542 0.52417 0.23453 0.0
C40 C 0.95877 0.55405 0.24622 0.0
C41 C 0.98 0.5678 0.26724 0.0
C42 C 0.06975 0.58937 0.25571 0.0
C43 C 0.08289 0.5689 0.24598 0.0
C44 C 0.08527 0.56624 0.22078 0.0
C45 C 0.07454 0.58403 0.2049 0.0
C46 C 0.06182 0.60491 0.2148 0.0
C47 C 0.05962 0.60767 0.23998 0.0
C48 C 0.13326 0.63026 0.2863 0.0
C49 C 0.15979 0.62192 0.2914 0.0
C50 C 0.19535 0.6436 0.28287 0.0
C51 C 0.20484 0.67351 0.26841 0.0
C52 C 0.17751 0.68058 0.26231 0.0
C53 C 0.14225 0.65947 0.27146 0.0
C54 C 0.12511 0.62773 0.33881 0.0
C55 C 0.13498 0.60828 0.3536 0.0
C56 C 0.16459 0.62573 0.36948 0.0
C57 C 0.18511 0.66301 0.37066 0.0
C58 C 0.17547 0.6824 0.3555 0.0
C59 C 0.14568 0.66489 0.33974 0.0
C60 C 0.0535 0.58853 0.3603 0.0
C61 C 0.04436 0.55646 0.37147 0.0
C62 C 0.0532 0.55603 0.39587 0.0
C63 C 0.07149 0.58773 0.40939 0.0
C64 C 0.07648 0.61897 0.3989 0.0
C65 C 0.06723 0.61927 0.37457 0.0
C66 C 0.98925 0.56018 0.32893 0.0
C67 C 0.9628 0.52382 0.32875 0.0
C68 C 0.92792 0.51166 0.33799 0.0
C69 C 0.919 0.53569 0.34758 0.0
C70 C 0.9459 0.57203 0.34804 0.0
C71 C 0.98066 0.58411 0.33883 0.0
C72 C 0.07651 0.58068 0.17815 0.0
C73 C 0.21635 0.68168 0.38771 0.0
H74 H 0.52472 0.09324 0.32863 0.0
H75 H 0.50976 0.25962 0.57278 0.0
H76 H 0.50312 0.02055 0.46605 0.0
H77 H 0.50588 0.98349 0.43415 0.0
H78 H 0.40327 0.96295 0.40545 0.0
H79 H 0.4 -0.00083 0.4381 0.0
H80 H 0.52786 0.08853 0.43495 0.0
H81 H 0.53717 0.09306 0.39082 0.0
H82 H 0.42914 0.07514 0.38084 0.0
H83 H 0.42023 0.07055 0.42502 0.0
H84 H 0.54726 0.15568 0.47344 0.0
H85 H 0.57429 0.216 0.45766 0.0
H86 H 0.46744 0.19244 0.43575 0.0
H87 H 0.44072 0.13185 0.45141 0.0
H88 H 0.53351 0.1326 0.52856 0.0
H89 H 0.55408 0.1844 0.55482 0.0
H90 H 0.46125 0.19039 0.53231 0.0
H91 H 0.4407 0.13822 0.50641 0.0
H92 H 0.50041 0.04669 0.53529 0.0
H93 H 0.51559 0.05538 0.57839 0.0
H94 H 0.44019 0.09081 0.58906 0.0
H95 H 0.4231 0.0794 0.54609 0.0
H96 H 0.47527 0.99287 0.50492 0.0
H97 H 0.44187 0.93285 0.52192 0.0
H98 H 0.34537 0.93914 0.52795 0.0
H99 H 0.37896 -0.00099 0.51084 0.0
O100 O 0.5207 0.09191 0.34603 0.0
O101 O 0.46514 0.08301 0.34189 0.0
O102 O 0.54923 0.23454 0.5738 0.0
O103 O 0.50224 0.23907 0.56256 0.0
C104 C 0.4543 0.04082 0.4702 0.0
C105 C 0.46715 0.07448 0.45967 0.0
C106 C 0.4759 0.10381 0.47455 0.0
C107 C 0.47281 0.09979 0.50008 0.0
C108 C 0.4592 0.0659 0.51064 0.0
C109 C 0.44878 0.0362 0.49556 0.0
C110 C 0.45102 0.01196 0.45465 0.0
C111 C 0.48037 0.00666 0.45361 0.0
C112 C 0.48206 0.98573 0.43529 0.0
C113 C 0.45483 0.97052 0.41739 0.0
C114 C 0.42457 0.97447 0.41911 0.0
C115 C 0.42254 0.99487 0.43776 0.0
C116 C 0.47345 0.07933 0.43306 0.0
C117 C 0.50639 0.08585 0.42317 0.0
C118 C 0.51156 0.08832 0.39798 0.0
C119 C 0.48386 0.08438 0.38229 0.0
C120 C 0.45102 0.07828 0.39239 0.0
C121 C 0.44589 0.07578 0.41759 0.0
C122 C 0.4921 0.13958 0.46362 0.0
C123 C 0.52978 0.16354 0.46508 0.0
C124 C 0.54509 0.19797 0.45618 0.0
C125 C 0.52294 0.20908 0.44564 0.0
C126 C 0.48523 0.18461 0.4436 0.0
C127 C 0.46992 0.1501 0.45258 0.0
C128 C 0.48552 0.13158 0.51572 0.0
C129 C 0.51761 0.14508 0.5294 0.0
C130 C 0.52932 0.1747 0.54434 0.0
C131 C 0.50927 0.19153 0.54568 0.0
C132 C 0.4773 0.17806 0.53173 0.0
C133 C 0.46553 0.14833 0.51689 0.0
C134 C 0.46089 0.06272 0.53745 0.0
C135 C 0.48588 0.05473 0.54711 0.0
C136 C 0.49498 0.06029 0.57171 0.0
C137 C 0.4799 0.07477 0.58704 0.0
C138 C 0.45234 0.07964 0.5778 0.0
C139 C 0.44267 0.07333 0.5532 0.0
C140 C 0.42934 4e-05 0.50621 0.0
C141 C 0.44683 0.98111 0.50962 0.0
C142 C 0.42774 0.9469 0.51942 0.0
C143 C 0.39093 0.9312 0.52621 0.0
C144 C 0.37377 0.95059 0.52314 0.0
C145 C 0.39282 0.98468 0.51323 0.0
C146 C 0.4892 0.0864 0.35552 0.0
C147 C 0.52157 0.22299 0.56154 0.0
H148 H 0.52164 0.48201 0.80298 0.0
H149 H 0.53375 0.37314 0.53308 0.0
H150 H 0.52234 0.56301 0.6798 0.0
H151 H 0.52539 0.58534 0.72072 0.0
H152 H 0.41088 0.50731 0.73072 0.0
H153 H 0.40856 0.48441 0.68973 0.0
H154 H 0.53965 0.5088 0.6982 0.0
H155 H 0.54342 0.50352 0.74229 0.0
H156 H 0.4278 0.42556 0.74434 0.0
H157 H 0.4245 0.43115 0.70022 0.0
H158 H 0.55842 0.4747 0.65473 0.0
H159 H 0.57927 0.43697 0.67116 0.0
H160 H 0.46731 0.35382 0.68407 0.0
H161 H 0.44689 0.39215 0.66803 0.0
H162 H 0.55373 0.50533 0.60327 0.0
H163 H 0.57682 0.48405 0.5711 0.0
H164 H 0.48148 0.37873 0.57872 0.0
H165 H 0.45833 0.4006 0.61056 0.0
H166 H 0.52379 0.55575 0.60136 0.0
H167 H 0.54583 0.56748 0.55941 0.0
H168 H 0.46167 0.4609 0.53938 0.0
H169 H 0.43922 0.44978 0.5812 0.0
H170 H 0.49289 0.57795 0.64107 0.0
H171 H 0.462 0.60925 0.62967 0.0
H172 H 0.36804 0.50983 0.60641 0.0
H173 H 0.39932 0.47911 0.6175 0.0
O174 O 0.51979 0.48279 0.78545 0.0
O175 O 0.46052 0.44201 0.78544 0.0
O176 O 0.57301 0.43716 0.54201 0.0
O177 O 0.5254 0.38216 0.54593 0.0
C178 C 0.4685 0.50049 0.66273 0.0
C179 C 0.47901 0.47644 0.66985 0.0
C180 C 0.48889 0.45997 0.6522 0.0
C181 C 0.48929 0.46829 0.62742 0.0
C182 C 0.47692 0.491 0.6202 0.0
C183 C 0.46565 0.50644 0.63788 0.0
C184 C 0.46526 0.52213 0.68187 0.0
C185 C 0.49748 0.55192 0.69037 0.0
C186 C 0.49922 0.56446 0.71391 0.0
C187 C 0.46859 0.54752 0.72922 0.0
C188 C 0.43519 0.52031 0.71955 0.0
C189 C 0.43355 0.50765 0.69598 0.0
C190 C 0.48183 0.47035 0.69612 0.0
C191 C 0.5153 0.49027 0.70819 0.0
C192 C 0.51731 0.48732 0.73338 0.0
C193 C 0.48586 0.46425 0.74687 0.0
C194 C 0.45252 0.44362 0.73452 0.0
C195 C 0.45056 0.44663 0.70934 0.0
C196 C 0.5012 0.43598 0.66009 0.0
C197 C 0.53847 0.44817 0.66085 0.0
C198 C 0.55027 0.42656 0.67021 0.0
C199 C 0.52493 0.3924 0.67897 0.0
C200 C 0.48752 0.38015 0.67779 0.0
C201 C 0.47578 0.40182 0.66845 0.0
C202 C 0.50427 0.45454 0.60912 0.0
C203 C 0.5379 0.47767 0.59798 0.0
C204 C 0.55103 0.46544 0.57962 0.0
C205 C 0.53092 0.42969 0.57228 0.0
C206 C 0.49759 0.40642 0.58389 0.0
C207 C 0.48437 0.41877 0.60215 0.0
C208 C 0.48033 0.50172 0.59434 0.0
C209 C 0.50893 0.53558 0.58765 0.0
C210 C 0.52176 0.5421 0.56375 0.0
C211 C 0.50607 0.5148 0.54632 0.0
C212 C 0.47434 0.48246 0.5524 0.0
C213 C 0.46144 0.47603 0.57629 0.0
C214 C 0.44819 0.52623 0.6303 0.0
C215 C 0.46565 0.56304 0.63352 0.0
C216 C 0.44792 0.58081 0.62703 0.0
C217 C 0.41248 0.56205 0.61714 0.0
C218 C 0.39548 0.52523 0.61361 0.0
C219 C 0.4132 0.50756 0.62008 0.0
C220 C 0.48782 0.46218 0.77373 0.0
C221 C 0.54451 0.41671 0.55251 0.0
H222 H 0.06738 0.47934 0.97911 0.0
H223 H 0.25522 0.51843 0.73153 0.0
H224 H 0.01486 0.50719 0.84808 0.0
H225 H 0.97675 0.5031 0.88238 0.0
H226 H 0.93571 0.39106 0.88833 0.0
H227 H 0.9733 0.39518 0.85328 0.0
H228 H 0.08233 0.51601 0.87575 0.0
H229 H 0.08129 0.51143 0.92019 0.0
H230 H 0.03721 0.39864 0.914 0.0
H231 H 0.03844 0.40369 0.86959 0.0
H232 H 0.14999 0.5377 0.83511 0.0
H233 H 0.20881 0.55163 0.85159 0.0
H234 H 0.16508 0.44037 0.86519 0.0
H235 H 0.10614 0.42642 0.8481 0.0
H236 H 0.12964 0.54332 0.78248 0.0
H237 H 0.18471 0.56573 0.75781 0.0
H238 H 0.17886 0.46583 0.76681 0.0
H239 H 0.12343 0.44354 0.79114 0.0
H240 H 0.04822 0.52305 0.77281 0.0
H241 H 0.06326 0.54646 0.73132 0.0
H242 H 0.08152 0.46251 0.71146 0.0
H243 H 0.06559 0.43885 0.7528 0.0
H244 H 0.97653 0.48286 0.80903 0.0
H245 H 0.91444 0.45321 0.79338 0.0
H246 H 0.93155 0.37628 0.75703 0.0
H247 H 0.99185 0.40373 0.77515 0.0
O248 O 0.06832 0.4807 0.96153 0.0
O249 O 0.04608 0.42291 0.95734 0.0
O250 O 0.23496 0.56091 0.73689 0.0
O251 O 0.23344 0.5102 0.74119 0.0
C252 C 0.02615 0.45651 0.83178 0.0
C253 C 0.05863 0.46267 0.84274 0.0
C254 C 0.08964 0.47287 0.82842 0.0
C255 C 0.0887 0.47808 0.80316 0.0
C256 C 0.05592 0.47103 0.79202 0.0
C257 C 0.02418 0.45903 0.80623 0.0
C258 C 0.99622 0.45135 0.8479 0.0
C259 C 0.99642 0.48146 0.85609 0.0
C260 C 0.9749 0.47914 0.87577 0.0
C261 C 0.95348 0.4468 0.88799 0.0
C262 C 0.95211 0.41629 0.87918 0.0
C263 C 0.97315 0.4185 0.85908 0.0
C264 C 0.06054 0.4602 0.86957 0.0
C265 C 0.07281 0.49044 0.88407 0.0
C266 C 0.07204 0.48769 0.90943 0.0
C267 C 0.05904 0.45463 0.92066 0.0
C268 C 0.04734 0.42448 0.90595 0.0
C269 C 0.04812 0.42728 0.88061 0.0
C270 C 0.12409 0.48109 0.8402 0.0
C271 C 0.15306 0.51636 0.8417 0.0
C272 C 0.18649 0.52422 0.8511 0.0
C273 C 0.19131 0.49696 0.85942 0.0
C274 C 0.16183 0.46174 0.85891 0.0
C275 C 0.12837 0.45381 0.84918 0.0
C276 C 0.12246 0.49175 0.78846 0.0
C277 C 0.14021 0.52627 0.779 0.0
C278 C 0.17171 0.53903 0.76497 0.0
C279 C 0.18618 0.51754 0.76032 0.0
C280 C 0.16843 0.48304 0.77002 0.0
C281 C 0.13682 0.47026 0.78395 0.0
C282 C 0.05613 0.47945 0.76584 0.0
C283 C 0.05428 0.50906 0.75926 0.0
C284 C 0.0633 0.52263 0.73566 0.0
C285 C 0.07418 0.5067 0.71824 0.0
C286 C 0.07312 0.47533 0.7244 0.0
C287 C 0.06408 0.46177 0.74801 0.0
C288 C 0.98835 0.44474 0.79405 0.0
C289 C 0.96656 0.45917 0.79815 0.0
C290 C 0.93121 0.44252 0.78868 0.0
C291 C 0.91739 0.41174 0.77424 0.0
C292 C 0.94049 0.39904 0.76877 0.0
C293 C 0.9753 0.41505 0.77884 0.0
C294 C 0.05741 0.45165 0.94759 0.0
C295 C 0.21965 0.53098 0.74543 0.0
H296 H 0.4703 0.99715 0.82678 0.0
H297 H 0.53879 0.83417 0.05211 0.0
H298 H 0.5165 0.07147 0.94994 0.0
H299 H 0.52741 0.11398 0.9175 0.0
H300 H 0.64124 0.14747 0.91666 0.0
H301 H 0.63033 0.10528 0.94924 0.0
H302 H 0.48079 0.98758 0.93238 0.0
H303 H 0.46536 0.9856 0.88928 0.0
H304 H 0.58016 0.04687 0.87149 0.0
H305 H 0.59515 0.048 0.91452 0.0
H306 H 0.47999 0.92374 0.96913 0.0
H307 H 0.47131 0.86826 0.95349 0.0
H308 H 0.57197 0.92729 0.91288 0.0
H309 H 0.58192 0.98217 0.93044 0.0
H310 H 0.49675 0.9552 0.02414 0.0
H311 H 0.48534 0.90394 0.04826 0.0
H312 H 0.57285 0.90289 0.01046 0.0
H313 H 0.58439 0.95455 0.98677 0.0
H314 H 0.53434 0.03636 0.04068 0.0
H315 H 0.53577 0.02076 0.0833 0.0
H316 H 0.6177 0.99617 0.06547 0.0
H317 H 0.61712 0.01297 0.02308 0.0
H318 H 0.55616 0.10355 0.00237 0.0
H319 H 0.59565 0.16181 0.02144 0.0
H320 H 0.68393 0.14219 0.02322 0.0
H321 H 0.64455 0.08444 0.00422 0.0
O322 O 0.47699 0.99799 0.84371 0.0
O323 O 0.53633 0.0307 0.83569 0.0
O324 O 0.49819 0.85634 0.06181 0.0
O325 O 0.5424 0.85414 0.04258 0.0
C326 C 0.56425 0.053 0.96544 0.0
C327 C 0.5482 0.02024 0.95287 0.0
C328 C 0.54184 0.9895 0.96508 0.0
C329 C 0.54949 0.99102 0.9902 0.0
C330 C 0.56629 0.02389 0.00258 0.0
C331 C 0.57462 0.05503 0.99004 0.0
C332 C 0.57262 0.08527 0.95181 0.0
C333 C 0.54407 0.08911 0.94349 0.0
C334 C 0.55029 0.11331 0.92501 0.0
C335 C 0.58506 0.13361 0.91459 0.0
C336 C 0.61421 0.13198 0.92448 0.0
C337 C 0.60808 0.10812 0.94314 0.0
C338 C 0.53905 0.01828 0.92659 0.0
C339 C 0.50253 0.00042 0.91912 0.0
C340 C 0.49382 -0.00059 0.89451 0.0
C341 C 0.52153 0.01625 0.87695 0.0
C342 C 0.55814 0.03377 0.88453 0.0
C343 C 0.56679 0.03459 0.90911 0.0
C344 C 0.53175 0.95692 0.95114 0.0
C345 C 0.49983 0.92462 0.95656 0.0
C346 C 0.49484 0.89293 0.94743 0.0
C347 C 0.5213 0.89318 0.93219 0.0
C348 C 0.55158 0.92598 0.92511 0.0
C349 C 0.55699 0.95749 0.93476 0.0
C350 C 0.54123 0.95844 0.00362 0.0
C351 C 0.51327 0.94372 0.02101 0.0
C352 C 0.50685 0.91448 0.03477 0.0
C353 C 0.52819 0.89931 0.03128 0.0
C354 C 0.5559 0.9139 0.0136 0.0
C355 C 0.56243 0.94328 -6e-05 0.0
C356 C 0.57511 0.02511 0.0288 0.0
C357 C 0.55378 0.02918 0.04621 0.0
C358 C 0.55461 0.02027 0.07048 0.0
C359 C 0.57655 0.00694 0.07742 0.0
C360 C 0.60052 0.0063 0.06043 0.0
C361 C 0.60017 0.01583 0.03631 0.0
C362 C 0.59754 0.08987 0.002 0.0
C363 C 0.584 0.11192 0.00697 0.0
C364 C 0.60652 0.14504 0.01783 0.0
C365 C 0.64276 0.15635 0.02395 0.0
C366 C 0.65596 0.13392 0.01914 0.0
C367 C 0.63358 0.10105 0.00818 0.0
C368 C 0.51222 0.01549 0.85086 0.0
C369 C 0.52188 0.86863 0.04617 0.0
H370 H 0.6103 0.59665 0.99615 0.0
H371 H 0.78785 0.58565 0.2407 0.0
H372 H 0.55779 0.60827 0.13467 0.0
H373 H 0.52145 0.60576 0.09976 0.0
H374 H 0.61184 0.70552 0.07407 0.0
H375 H 0.64782 0.70835 0.10954 0.0
H376 H 0.60175 0.58496 0.10225 0.0
H377 H 0.5969 0.57941 0.05789 0.0
H378 H 0.6944 0.68341 0.05106 0.0
H379 H 0.69865 0.6887 0.09548 0.0
H380 H 0.65117 0.56195 0.14074 0.0
H381 H 0.68475 0.53707 0.12294 0.0
H382 H 0.76952 0.64202 0.09999 0.0
H383 H 0.73643 0.66686 0.11934 0.0
H384 H 0.6365 0.56723 0.19274 0.0
H385 H 0.66595 0.54408 0.21818 0.0
H386 H 0.77091 0.63779 0.20279 0.0
H387 H 0.74098 0.66093 0.17773 0.0
H388 H 0.58313 0.59513 0.2013 0.0
H389 H 0.57487 0.57103 0.24219 0.0
H390 H 0.68784 0.64825 0.25828 0.0
H391 H 0.69501 0.6738 0.21782 0.0
H392 H 0.55758 0.62522 0.17852 0.0
H393 H 0.52886 0.65571 0.19565 0.0
H394 H 0.63305 0.75459 0.19472 0.0
H395 H 0.66158 0.72351 0.17841 0.0
O396 O 0.61327 0.59901 0.01365 0.0
O397 O 0.66443 0.65186 0.01108 0.0
O398 O 0.72082 0.54677 0.23834 0.0
O399 O 0.7755 0.59417 0.23072 0.0
C400 C 0.63023 0.65306 0.14008 0.0
C401 C 0.65164 0.64138 0.12884 0.0
C402 C 0.67138 0.63084 0.14317 0.0
C403 C 0.66849 0.63037 0.16875 0.0
C404 C 0.64711 0.64215 0.18006 0.0
C405 C 0.62911 0.65472 0.16567 0.0
C406 C 0.60538 0.65856 0.12468 0.0
C407 C 0.56905 0.63058 0.12228 0.0
C408 C 0.54844 0.629 0.10219 0.0
C409 C 0.56412 0.65516 0.08409 0.0
C410 C 0.59932 0.68485 0.08771 0.0
C411 C 0.61972 0.6867 0.10803 0.0
C412 C 0.65063 0.63714 0.10199 0.0
C413 C 0.6222 0.60634 0.09111 0.0
C414 C 0.61945 0.60331 0.06578 0.0
C415 C 0.64525 0.63098 0.05092 0.0
C416 C 0.6741 0.66159 0.06197 0.0
C417 C 0.67672 0.66463 0.08731 0.0
C418 C 0.69148 0.61612 0.13134 0.0
C419 C 0.67705 0.57952 0.13192 0.0
C420 C 0.69612 0.56537 0.12146 0.0
C421 C 0.72974 0.58752 0.10979 0.0
C422 C 0.7439 0.62427 0.10901 0.0
C423 C 0.72495 0.63847 0.11983 0.0
C424 C 0.6866 0.6159 0.18361 0.0
C425 C 0.66583 0.58278 0.19498 0.0
C426 C 0.68273 0.56958 0.20944 0.0
C427 C 0.72081 0.58914 0.21256 0.0
C428 C 0.74155 0.6221 0.20082 0.0
C429 C 0.72457 0.63536 0.18646 0.0
C430 C 0.63969 0.63621 0.20654 0.0
C431 C 0.60552 0.60817 0.21409 0.0
C432 C 0.60108 0.59389 0.23734 0.0
C433 C 0.63096 0.60698 0.25328 0.0
C434 C 0.66419 0.63748 0.24653 0.0
C435 C 0.66839 0.6522 0.22338 0.0
C436 C 0.6116 0.67221 0.17725 0.0
C437 C 0.5742 0.65335 0.18232 0.0
C438 C 0.55786 0.67089 0.19197 0.0
C439 C 0.57863 0.70768 0.19647 0.0
C440 C 0.61633 0.72622 0.19184 0.0
C441 C 0.63264 0.70859 0.18234 0.0
C442 C 0.64174 0.62802 0.02402 0.0
C443 C 0.73889 0.5753 0.22799 0.0
In444 In 0.66382 0.48756 0.41127 0.0
O445 O 0.72475 0.51597 0.42002 0.0
O446 O 0.70479 0.48183 0.38914 0.0
C447 C 0.63455 0.50676 0.44661 0.0
C448 C 0.65674 0.52338 0.37446 0.0
C449 C 0.63104 0.4184 0.42294 0.0
O450 O 0.66766 0.51557 0.44707 0.0
O451 O 0.61668 0.48851 0.42841 0.0
O452 O 0.62347 0.4285 0.40349 0.0
O453 O 0.65495 0.44307 0.43604 0.0
C454 C 0.73189 0.50257 0.40215 0.0
O455 O 0.63959 0.48981 0.37484 0.0
O456 O 0.67742 0.53845 0.39245 0.0
In457 In 0.23745 0.65496 0.56747 0.0
O458 O 0.26013 0.62052 0.55612 0.0
O459 O 0.28224 0.65244 0.58777 0.0
C460 C 0.18774 0.63778 0.53181 0.0
C461 C 0.19508 0.62655 0.60729 0.0
C462 C 0.2839 0.72398 0.55629 0.0
O463 O 0.20766 0.62472 0.53304 0.0
O464 O 0.19281 0.65935 0.54861 0.0
O465 O 0.26189 0.71443 0.57391 0.0
O466 O 0.28266 0.69881 0.54464 0.0
C467 C 0.28249 0.63018 0.57354 0.0
O468 O 0.21976 0.65898 0.60603 0.0
O469 O 0.19173 0.60876 0.58848 0.0
In470 In 0.63542 0.2373 0.73468 0.0
O471 O 0.69201 0.24503 0.73282 0.0
O472 O 0.68801 0.28827 0.7454 0.0
C473 C 0.60286 0.18917 0.69876 0.0
C474 C 0.61766 0.20372 0.778 0.0
C475 C 0.61467 0.28151 0.71884 0.0
O476 O 0.63687 0.2107 0.69965 0.0
O477 O 0.58526 0.19142 0.7163 0.0
O478 O 0.60041 0.26202 0.73733 0.0
O479 O 0.63955 0.27896 0.7088 0.0
C480 C 0.70835 0.27641 0.74077 0.0
O481 O 0.61583 0.23089 0.7743 0.0
O482 O 0.62736 0.19332 0.75981 0.0
In483 In 0.47005 0.63328 0.90361 0.0
O484 O 0.41251 0.58355 0.90648 0.0
O485 O 0.42524 0.61955 0.87702 0.0
C486 C 0.49642 0.62646 0.94646 0.0
C487 C 0.49865 0.62105 0.86426 0.0
C488 C 0.47613 0.69655 0.9091 0.0
O489 O 0.46382 0.61826 0.94384 0.0
O490 O 0.51505 0.6362 0.92719 0.0
O491 O 0.50278 0.69384 0.90292 0.0
O492 O 0.44688 0.66755 0.91283 0.0
C493 C 0.40181 0.59114 0.88725 0.0
O494 O 0.50587 0.6517 0.87004 0.0
O495 O 0.47952 0.59707 0.87958 0.0
In496 In 0.83495 0.42748 0.06084 0.0
O497 O 0.83872 0.41181 0.09987 0.0
O498 O 0.87898 0.46349 0.08807 0.0
C499 C 0.78051 0.36119 0.05085 0.0
C500 C 0.80321 0.46571 0.06553 0.0
C501 C 0.87751 0.43684 0.02187 0.0
O502 O 0.80484 0.3676 0.06643 0.0
O503 O 0.78387 0.38816 0.04049 0.0
O504 O 0.85734 0.44949 0.02322 0.0
O505 O 0.87772 0.42078 0.04074 0.0
C506 C 0.86635 0.44146 0.10531 0.0
O507 O 0.83691 0.48009 0.06154 0.0
O508 O 0.78584 0.43241 0.06715 0.0
In509 In 0.48209 0.87576 0.24609 0.0
O510 O 0.52692 0.86398 0.2555 0.0
O511 O 0.48532 0.83073 0.23028 0.0
C512 C 0.48427 0.91003 0.28718 0.0
C513 C 0.51403 0.91911 0.20781 0.0
C514 C 0.40943 0.83061 0.2462 0.0
O515 O 0.49138 0.8857 0.28719 0.0
O516 O 0.47767 0.91765 0.2665 0.0
O517 O 0.424 0.86114 0.23694 0.0
O518 O 0.43137 0.82304 0.25526 0.0
C519 C 0.51376 0.83737 0.24143 0.0
O520 O 0.4856 0.88881 0.20596 0.0
O521 O 0.52648 0.92808 0.2291 0.0
H522 H 0.2405 0.74555 0.26321 0.0
H523 H 0.25652 0.65729 0.25665 0.0
H524 H 0.32115 0.69826 0.24904 0.0
H525 H 0.3737 0.75925 0.24622 0.0
H526 H 0.35684 0.84696 0.24884 0.0
H527 H 0.29142 0.80581 0.25522 0.0
C528 C 0.25771 0.73498 0.2595 0.0
C529 C 0.24342 0.69819 0.26095 0.0
C530 C 0.29472 0.7586 0.25441 0.0
C531 C 0.26672 0.68543 0.25642 0.0
C532 C 0.30373 0.70883 0.25184 0.0
C533 C 0.35555 0.76923 0.24799 0.0
C534 C 0.36981 0.80591 0.24736 0.0
C535 C 0.31809 0.74546 0.25122 0.0
C536 C 0.34624 0.81872 0.24928 0.0
C537 C 0.30897 0.79525 0.25303 0.0
H538 H 0.57303 0.26824 0.46966 0.0
H539 H 0.50883 0.23381 0.4039 0.0
H540 H 0.53617 0.2956 0.39101 0.0
H541 H 0.57927 0.35963 0.39832 0.0
H542 H 0.64352 0.39285 0.46418 0.0
H543 H 0.61554 0.33134 0.47694 0.0
C544 C 0.56529 0.2742 0.45237 0.0
C545 C 0.53916 0.24646 0.43769 0.0
C546 C 0.58119 0.30961 0.44506 0.0
C547 C 0.52876 0.25471 0.41561 0.0
C548 C 0.54451 0.29001 0.40818 0.0
C549 C 0.5871 0.35333 0.41544 0.0
C550 C 0.61351 0.38079 0.43022 0.0
C551 C 0.57086 0.31772 0.42274 0.0
C552 C 0.62333 0.37225 0.4524 0.0
C553 C 0.60734 0.33706 0.45976 0.0
H554 H 0.36922 0.55137 0.57781 0.0
H555 H 0.411 0.61385 0.64339 0.0
H556 H 0.37581 0.64153 0.63509 0.0
H557 H 0.33089 0.64597 0.61029 0.0
H558 H 0.28766 0.58218 0.5454 0.0
H559 H 0.32532 0.55673 0.55254 0.0
C560 C 0.37051 0.57093 0.59036 0.0
C561 C 0.39268 0.58038 0.61125 0.0
C562 C 0.34975 0.58636 0.58569 0.0
C563 C 0.39454 0.60632 0.62703 0.0
C564 C 0.37418 0.62198 0.62241 0.0
C565 C 0.32982 0.62661 0.59765 0.0
C566 C 0.30641 0.61589 0.57739 0.0
C567 C 0.3514 0.61194 0.60194 0.0
C568 C 0.30539 0.59082 0.56117 0.0
C569 C 0.32691 0.57624 0.56524 0.0
H570 H 0.87245 0.34015 0.76878 0.0
H571 H 0.87443 0.43831 0.76119 0.0
H572 H 0.80989 0.4051 0.75055 0.0
H573 H 0.75246 0.34794 0.74408 0.0
H574 H 0.75258 0.2507 0.74807 0.0
H575 H 0.81726 0.28406 0.75867 0.0
C576 C 0.85927 0.35458 0.76424 0.0
C577 C 0.87863 0.39187 0.76598 0.0
C578 C 0.82246 0.33544 0.75741 0.0
C579 C 0.8603 0.40966 0.76057 0.0
C580 C 0.82337 0.39069 0.75427 0.0
C581 C 0.76678 0.33416 0.74717 0.0
C582 C 0.74787 0.29698 0.7455 0.0
C583 C 0.80412 0.35356 0.75284 0.0
C584 C 0.76667 0.27935 0.74924 0.0
C585 C 0.80357 0.29838 0.75537 0.0
H586 H 0.46031 0.82904 0.92181 0.0
H587 H 0.57739 0.8813 0.92827 0.0
H588 H 0.57386 0.82566 0.91995 0.0
H589 H 0.53744 0.76141 0.91325 0.0
H590 H 0.42017 0.70813 0.9107 0.0
H591 H 0.42385 0.76476 0.91569 0.0
C592 C 0.48507 0.82831 0.92157 0.0
C593 C 0.51902 0.85953 0.92554 0.0
C594 C 0.48282 0.79591 0.91773 0.0
C595 C 0.55086 0.85799 0.92472 0.0
C596 C 0.5489 0.82604 0.92025 0.0
C597 C 0.51275 0.76229 0.91367 0.0
C598 C 0.47864 0.73082 0.91165 0.0
C599 C 0.51502 0.79478 0.91703 0.0
C600 C 0.44677 0.73213 0.91237 0.0
C601 C 0.44884 0.76446 0.91516 0.0
H602 H 0.70178 0.52526 0.08531 0.0
H603 H 0.80356 0.61512 0.11036 0.0
H604 H 0.83604 0.58687 0.09616 0.0
H605 H 0.83462 0.53412 0.08019 0.0
H606 H 0.73171 0.4422 0.05927 0.0
H607 H 0.70045 0.47354 0.06865 0.0
C608 C 0.73105 0.53864 0.08783 0.0
C609 C 0.75008 0.57208 0.09915 0.0
C610 C 0.7493 0.52172 0.08053 0.0
C611 C 0.78818 0.58947 0.10155 0.0
C612 C 0.80677 0.5732 0.09363 0.0
C613 C 0.80544 0.52122 0.07742 0.0
C614 C 0.78538 0.486 0.06915 0.0
C615 C 0.78749 0.53901 0.08358 0.0
C616 C 0.74758 0.46931 0.06578 0.0
C617 C 0.72973 0.48718 0.07113 0.0
H618 H 0.39135 0.87359 0.50954 0.0
H619 H 0.34361 0.90631 0.56466 0.0
H620 H 0.30707 0.8453 0.57939 0.0
H621 H 0.28735 0.78224 0.57582 0.0
H622 H 0.33493 0.74977 0.52037 0.0
H623 H 0.37318 0.8111 0.50682 0.0
C624 C 0.37332 0.86745 0.52499 0.0
C625 C 0.37017 0.89445 0.53594 0.0
C626 C 0.35231 0.83232 0.5333 0.0
C627 C 0.34623 0.88594 0.55571 0.0
C628 C 0.32544 0.85109 0.56421 0.0
C629 C 0.30627 0.78865 0.56088 0.0
C630 C 0.30824 0.76148 0.5491 0.0
C631 C 0.328 0.82399 0.55301 0.0
C632 C 0.33282 0.77018 0.52973 0.0
C633 C 0.35471 0.80525 0.52194 0.0
H634 H 0.57899 0.38343 0.66232 0.0
H635 H 0.49917 0.35074 0.71963 0.0
H636 H 0.5199 0.31363 0.73715 0.0
H637 H 0.5609 0.29054 0.73622 0.0
H638 H 0.64135 0.32438 0.67921 0.0
H639 H 0.62061 0.36145 0.66184 0.0
C640 C 0.56637 0.36848 0.67878 0.0
C641 C 0.53754 0.36983 0.6896 0.0
C642 C 0.57863 0.3475 0.68889 0.0
C643 C 0.52107 0.3498 0.71071 0.0
C644 C 0.53307 0.32875 0.72085 0.0
C645 C 0.57394 0.30614 0.72005 0.0
C646 C 0.60261 0.30473 0.70904 0.0
C647 C 0.56182 0.32738 0.71009 0.0
C648 C 0.61924 0.32502 0.68807 0.0
C649 C 0.60737 0.3462 0.67808 0.0
H650 H 0.25296 0.53293 0.83374 0.0
H651 H 0.21093 0.48026 0.90241 0.0
H652 H 0.27322 0.50176 0.91667 0.0
H653 H 0.34002 0.54105 0.91072 0.0
H654 H 0.38029 0.59435 0.8418 0.0
H655 H 0.31835 0.56688 0.82641 0.0
C656 C 0.25754 0.52599 0.85177 0.0
C657 C 0.22784 0.50569 0.86722 0.0
C658 C 0.29307 0.5387 0.85979 0.0
C659 C 0.23368 0.49609 0.89033 0.0
C660 C 0.2692 0.50849 0.89847 0.0
C661 C 0.33511 0.54609 0.89223 0.0
C662 C 0.36452 0.57003 0.87753 0.0
C663 C 0.29919 0.53061 0.88355 0.0
C664 C 0.35798 0.57638 0.85358 0.0
C665 C 0.32261 0.56072 0.84474 0.0
H666 H 0.65097 0.21817 0.00854 0.0
H667 H 0.69074 0.17477 0.06164 0.0
H668 H 0.73636 0.23456 0.07533 0.0
H669 H 0.76695 0.29922 0.07064 0.0
H670 H 0.7271 0.34225 0.01724 0.0
H671 H 0.67922 0.28252 0.00542 0.0
C672 C 0.66917 0.2218 0.02342 0.0
C673 C 0.66762 0.19221 0.03402 0.0
C674 C 0.69546 0.25616 0.03102 0.0
C675 C 0.69173 0.19726 0.05303 0.0
C676 C 0.71775 0.23139 0.06088 0.0
C677 C 0.74765 0.29547 0.05652 0.0
C678 C 0.75068 0.32502 0.04472 0.0
C679 C 0.72026 0.26104 0.04972 0.0
C680 C 0.72542 0.31987 0.02652 0.0
C681 C 0.69802 0.28574 0.01975 0.0
H682 H 0.60352 0.76216 0.22936 0.0
H683 H 0.51362 0.69711 0.18093 0.0
H684 H 0.48517 0.73036 0.19177 0.0
H685 H 0.48696 0.77932 0.21317 0.0
H686 H 0.57719 0.84661 0.26057 0.0
H687 H 0.60464 0.81124 0.25174 0.0
C688 C 0.57776 0.75533 0.22114 0.0
C689 C 0.56073 0.72703 0.20439 0.0
C690 C 0.56175 0.77506 0.22712 0.0
C691 C 0.52708 0.71827 0.19417 0.0
C692 C 0.5109 0.73749 0.20019 0.0
C693 C 0.5126 0.78627 0.22169 0.0
C694 C 0.53014 0.81563 0.23742 0.0
C695 C 0.52816 0.7661 0.21641 0.0
C696 C 0.56323 0.82414 0.24836 0.0
C697 C 0.5789 0.80395 0.24328 0.0
H698 H 0.89873 0.55779 0.3876 0.0
H699 H 0.85474 0.48601 0.32647 0.0
H700 H 0.79305 0.46836 0.33869 0.0
H701 H 0.75181 0.47549 0.36541 0.0
H702 H 0.7954 0.54838 0.42592 0.0
H703 H 0.85714 0.56376 0.41508 0.0
C704 C 0.87565 0.53836 0.37691 0.0
C705 C 0.88143 0.52333 0.3561 0.0
C706 C 0.84022 0.52873 0.38382 0.0
C707 C 0.85114 0.4977 0.34272 0.0
C708 C 0.81583 0.4878 0.34958 0.0
C709 C 0.7748 0.49466 0.37629 0.0
C710 C 0.76909 0.51092 0.39636 0.0
C711 C 0.8101 0.50345 0.36991 0.0
C712 C 0.79912 0.53557 0.41034 0.0
C713 C 0.83439 0.54438 0.40415 0.0
H714 H 0.07806 0.62559 0.4506 0.0
H715 H 0.10818 0.55461 0.41999 0.0
H716 H 0.14482 0.5621 0.45574 0.0
H717 H 0.1721 0.59205 0.49433 0.0
H718 H 0.14436 0.66491 0.52452 0.0
H719 H 0.10349 0.65377 0.49026 0.0
C720 C 0.09249 0.61162 0.45182 0.0
C721 C 0.09006 0.58939 0.43263 0.0
C722 C 0.11436 0.6167 0.47226 0.0
C723 C 0.10878 0.57128 0.43464 0.0
C724 C 0.13017 0.57587 0.45499 0.0
C725 C 0.15693 0.60532 0.49349 0.0
C726 C 0.16143 0.62942 0.51184 0.0
C727 C 0.13367 0.59897 0.4737 0.0
C728 C 0.14148 0.64631 0.51056 0.0
C729 C 0.1181 0.63997 0.49097 0.0
H730 H 0.55166 0.11066 0.59836 0.0
H731 H 0.44567 0.07291 0.62983 0.0
H732 H 0.47448 0.10344 0.66797 0.0
H733 H 0.53011 0.14405 0.69129 0.0
H734 H 0.63557 0.18113 0.65912 0.0
H735 H 0.60644 0.14673 0.62245 0.0
C736 C 0.53468 0.10819 0.61372 0.0
C737 C 0.4965 0.08936 0.61122 0.0
C738 C 0.55136 0.12581 0.63544 0.0
C739 C 0.47512 0.08744 0.63119 0.0
C740 C 0.49158 0.10482 0.65301 0.0
C741 C 0.54667 0.14423 0.67635 0.0
C742 C 0.58493 0.16529 0.67783 0.0
C743 C 0.52972 0.12462 0.65517 0.0
C744 C 0.60607 0.16526 0.65838 0.0
C745 C 0.58945 0.14566 0.63739 0.0
H746 H 0.50874 0.61222 0.75117 0.0
H747 H 0.43863 0.50057 0.76678 0.0
H748 H 0.44581 0.51309 0.81029 0.0
H749 H 0.46903 0.55599 0.8438 0.0
H750 H 0.53919 0.6676 0.82834 0.0
H751 H 0.53633 0.65463 0.78489 0.0
C752 C 0.49527 0.59059 0.76408 0.0
C753 C 0.47257 0.55561 0.75566 0.0
C754 C 0.49998 0.59788 0.78911 0.0
C755 C 0.4553 0.5279 0.77269 0.0
C756 C 0.45979 0.53495 0.79761 0.0
C757 C 0.48441 0.57741 0.83099 0.0
C758 C 0.5042 0.6127 0.83925 0.0
C759 C 0.48172 0.56988 0.80602 0.0
C760 C 0.52379 0.64019 0.82241 0.0
C761 C 0.52186 0.63283 0.79755 0.0
H762 H 0.95825 0.4207 0.93145 0.0
H763 H 0.90907 0.47234 0.89602 0.0
H764 H 0.88256 0.4752 0.93469 0.0
H765 H 0.87356 0.46318 0.9784 0.0
H766 H 0.9226 0.41158 0.01417 0.0
H767 H 0.94938 0.40886 0.97554 0.0
C768 C 0.94126 0.43208 0.93221 0.0
C769 C 0.9352 0.44595 0.91098 0.0
C770 C 0.92656 0.43405 0.95455 0.0
C771 C 0.91393 0.46142 0.91219 0.0
C772 C 0.89889 0.46314 0.93426 0.0
C773 C 0.89033 0.45156 0.9778 0.0
C774 C 0.89621 0.43771 -0.00089 0.0
C775 C 0.9052 0.44972 0.95555 0.0
C776 C 0.91782 0.42256 0.99801 0.0
C777 C 0.93296 0.42083 0.97593 0.0
H778 H 0.58039 0.03196 0.12339 0.0
H779 H 0.55522 0.93833 0.08283 0.0
H780 H 0.5343 0.90281 0.11989 0.0
H781 H 0.51918 0.89759 0.16321 0.0
H782 H 0.54777 0.99112 0.20497 0.0
H783 H 0.57161 0.02773 0.16817 0.0
C784 C 0.57083 0.0039 0.12289 0.0
C785 C 0.56925 0.98763 0.10059 0.0
C786 C 0.55923 0.9837 0.14436 0.0
C787 C 0.55692 0.95133 0.09993 0.0
C788 C 0.54474 0.931 0.12104 0.0
C789 C 0.53086 0.92605 0.1642 0.0
C790 C 0.53135 0.94176 0.18646 0.0
C791 C 0.54513 0.94678 0.14324 0.0
C792 C 0.54711 0.97863 0.18785 0.0
C793 C 0.5606 -0.00054 0.16686 0.0
H794 H 0.66193 0.63201 0.29796 0.0
H795 H 0.59631 0.535 0.2574 0.0
H796 H 0.59679 0.50055 0.29166 0.0
H797 H 0.61872 0.49788 0.33231 0.0
H798 H 0.68714 0.59488 0.3721 0.0
H799 H 0.68318 0.62928 0.3389 0.0
C800 C 0.64772 0.60334 0.29662 0.0
C801 C 0.62888 0.58625 0.27515 0.0
C802 C 0.64892 0.5836 0.31618 0.0
C803 C 0.61033 0.54897 0.27386 0.0
C804 C 0.61093 0.52917 0.29336 0.0
C805 C 0.63262 0.52653 0.33373 0.0
C806 C 0.65329 0.54379 0.35455 0.0
C807 C 0.63051 0.5462 0.31449 0.0
C808 C 0.67117 0.58094 0.35618 0.0
C809 C 0.66889 0.60066 0.33722 0.0
H810 H 0.45268 0.98769 0.37076 0.0
H811 H 0.47097 0.91852 0.4154 0.0
H812 H 0.48337 0.89444 0.37898 0.0
H813 H 0.48838 0.89293 0.33426 0.0
H814 H 0.47106 0.96347 0.29018 0.0
H815 H 0.45925 0.9874 0.32655 0.0
C816 C 0.4589 0.96699 0.37243 0.0
C817 C 0.46033 0.95437 0.39555 0.0
C818 C 0.46655 0.95384 0.35155 0.0
C819 C 0.46945 0.92833 0.39767 0.0
C820 C 0.47663 0.91469 0.3769 0.0
C821 C 0.48234 0.91374 0.33268 0.0
C822 C 0.48057 0.92636 0.30957 0.0
C823 C 0.47531 0.9273 0.35372 0.0
C824 C 0.47259 0.95327 0.30776 0.0
C825 C 0.46568 0.9669 0.32854 0.0
H826 H 0.57794 0.53939 0.5425 0.0
H827 H 0.47914 0.49428 0.50009 0.0
H828 H 0.51121 0.48978 0.4648 0.0
H829 H 0.56597 0.49437 0.44727 0.0
H830 H 0.66436 0.53862 0.49011 0.0
H831 H 0.63381 0.54827 0.52404 0.0
C832 C 0.56364 0.52952 0.52534 0.0
C833 C 0.52627 0.51739 0.52383 0.0
C834 C 0.58206 0.52651 0.50537 0.0
C835 C 0.5079 0.50374 0.50166 0.0
C836 C 0.52619 0.5011 0.48155 0.0
C837 C 0.58083 0.50642 0.46396 0.0
C838 C 0.61726 0.51551 0.46629 0.0
C839 C 0.56304 0.51166 0.48339 0.0
C840 C 0.63626 0.5313 0.48793 0.0
C841 C 0.6188 0.53677 0.50732 0.0
H842 H 0.1225 0.57677 0.71068 0.0
H843 H 0.06242 0.47653 0.67299 0.0
H844 H 0.09363 0.50521 0.63505 0.0
H845 H 0.14019 0.55814 0.61317 0.0
H846 H 0.20037 0.65828 0.65099 0.0
H847 H 0.16642 0.63032 0.68828 0.0
C848 C 0.11564 0.56131 0.69406 0.0
C849 C 0.09011 0.52455 0.69466 0.0
C850 C 0.13384 0.57791 0.6724 0.0
C851 C 0.08216 0.5048 0.67306 0.0
C852 C 0.09995 0.52118 0.65137 0.0
C853 C 0.14571 0.5739 0.62953 0.0
C854 C 0.17289 0.61019 0.62937 0.0
C855 C 0.12624 0.55761 0.65092 0.0
C856 C 0.17964 0.63028 0.65067 0.0
C857 C 0.16027 0.6143 0.672 0.0
H858 H 0.60762 0.11996 0.87303 0.0
H859 H 0.57085 0.18555 0.90345 0.0
H860 H 0.5771 0.21311 0.86347 0.0
H861 H 0.59378 0.21853 0.81983 0.0
H862 H 0.62794 0.15024 0.78996 0.0
H863 H 0.6217 0.12351 0.82974 0.0
C864 C 0.60137 0.14058 0.87089 0.0
C865 C 0.58958 0.1514 0.89103 0.0
C866 C 0.60429 0.15555 0.84796 0.0
C867 C 0.58043 0.17728 0.88809 0.0
C868 C 0.58392 0.19289 0.8653 0.0
C869 C 0.59968 0.19771 0.82207 0.0
C870 C 0.61144 0.18649 0.802 0.0
C871 C 0.59589 0.18223 0.84508 0.0
C872 C 0.61885 0.15937 0.8051 0.0
C873 C 0.61542 0.14412 0.82786 0.0
H874 H 0.5933 0.65885 0.03999 0.0
H875 H 0.49365 0.63592 0.07497 0.0
H876 H 0.46293 0.6224 0.03538 0.0
H877 H 0.46508 0.61846 0.99078 0.0
H878 H 0.56506 0.64138 0.95609 0.0
H879 H 0.59495 0.65316 0.99569 0.0
C880 C 0.56498 0.65132 0.03887 0.0
C881 C 0.54585 0.64895 0.06022 0.0
C882 C 0.54752 0.64318 0.01619 0.0
C883 C 0.50891 0.63819 0.05868 0.0
C884 C 0.49138 0.63037 0.03611 0.0
C885 C 0.49327 0.62559 0.99193 0.0
C886 C 0.51283 0.62905 0.97055 0.0
C887 C 0.51043 0.63279 0.01474 0.0
C888 C 0.5494 0.63849 0.97229 0.0
C889 C 0.56657 0.6454 0.99491 0.0
H890 H 0.9086 0.45772 0.2167 0.0
H891 H 0.96882 0.56819 0.19626 0.0
H892 H 0.94765 0.55227 0.15437 0.0
H893 H 0.91274 0.50706 0.12338 0.0
H894 H 0.85153 0.39655 0.14355 0.0
H895 H 0.87287 0.41229 0.18558 0.0
C896 C 0.91695 0.47826 0.20305 0.0
C897 C 0.93991 0.51409 0.20964 0.0
C898 C 0.90486 0.4689 0.17891 0.0
C899 C 0.9505 0.54046 0.1918 0.0
C900 C 0.93874 0.53137 0.16777 0.0
C901 C 0.90431 0.48641 0.13694 0.0
C902 C 0.88085 0.4507 0.13036 0.0
C903 C 0.91608 0.49569 0.1611 0.0
C904 C 0.86972 0.42424 0.14817 0.0
C905 C 0.88181 0.43323 0.17221 0.0
loop_
_geom_bond_atom_site_label_1
_geom_bond_atom_site_label_2
_geom_bond_distance
_geom_bond_site_symmetry_2
_ccdc_geom_bond_type
H0 O26 0.856 . S
H1 O29 0.854 . S
H2 C37 0.930 . S
H3 C38 0.930 . S
H4 C40 0.930 . S
H5 C41 0.930 . S
H6 C43 0.931 . S
H7 C44 0.930 . S
H8 C46 0.930 . S
H9 C47 0.929 . S
H10 C49 0.930 . S
H11 C50 0.931 . S
H12 C52 0.930 . S
H13 C53 0.929 . S
H14 C55 0.931 . S
H15 C56 0.930 . S
H16 C58 0.930 . S
H17 C59 0.932 . S
H18 C61 0.930 . S
H19 C62 0.929 . S
H20 C64 0.931 . S
H21 C65 0.930 . S
H22 C67 0.929 . S
H23 C68 0.931 . S
H24 C70 0.930 . S
H25 C71 0.929 1_455 S
O26 H0 0.856 . S
O26 C72 1.300 . S
O27 C72 1.209 . S
O28 C73 1.199 . S
O29 H1 0.854 . S
O29 C73 1.297 . S
C30 C31 1.404 . S
C30 C35 1.397 . S
C30 C36 1.492 . S
C31 C30 1.404 . S
C31 C32 1.396 . S
C31 C42 1.492 . S
C32 C31 1.396 . S
C32 C33 1.397 . S
C32 C48 1.509 . S
C33 C32 1.397 . S
C33 C34 1.412 . S
C33 C54 1.485 . S
C34 C33 1.412 . S
C34 C35 1.388 . S
C34 C60 1.490 . S
C35 C30 1.397 . S
C35 C34 1.388 . S
C35 C66 1.519 . S
C36 C30 1.492 . S
C36 C37 1.363 . S
C36 C41 1.390 1_455 S
C37 H2 0.930 . S
C37 C36 1.363 . S
C37 C38 1.372 1_455 S
C38 H3 0.930 . S
C38 C37 1.372 1_655 S
C38 C39 1.383 . S
C39 C38 1.383 . S
C39 C40 1.395 . S
C40 H4 0.930 . S
C40 C39 1.395 . S
C40 C41 1.362 . S
C41 H5 0.930 . S
C41 C36 1.390 1_655 S
C41 C40 1.362 . S
C42 C31 1.492 . S
C42 C43 1.377 . S
C42 C47 1.397 . S
C43 H6 0.931 . S
C43 C42 1.377 . S
C43 C44 1.376 . S
C44 H7 0.930 . S
C44 C43 1.376 . S
C44 C45 1.376 . S
C45 C44 1.376 . S
C45 C46 1.378 . S
C45 C72 1.486 . S
C46 H8 0.930 . S
C46 C45 1.378 . S
C46 C47 1.376 . S
C47 H9 0.929 . S
C47 C42 1.397 . S
C47 C46 1.376 . S
C48 C32 1.509 . S
C48 C49 1.391 . S
C48 C53 1.386 . S
C49 H10 0.930 . S
C49 C48 1.391 . S
C49 C50 1.375 . S
C50 H11 0.931 . S
C50 C49 1.375 . S
C50 C51 1.375 . S
C51 C50 1.375 . S
C51 C52 1.361 . S
C52 H12 0.930 . S
C52 C51 1.361 . S
C52 C53 1.399 . S
C53 H13 0.929 . S
C53 C48 1.386 . S
C53 C52 1.399 . S
C54 C33 1.485 . S
C54 C55 1.394 . S
C54 C59 1.360 . S
C55 H14 0.931 . S
C55 C54 1.394 . S
C55 C56 1.372 . S
C56 H15 0.930 . S
C56 C55 1.372 . S
C56 C57 1.397 . S
C57 C56 1.397 . S
C57 C58 1.390 . S
C57 C73 1.476 . S
C58 H16 0.930 . S
C58 C57 1.390 . S
C58 C59 1.366 . S
C59 H17 0.932 . S
C59 C54 1.360 . S
C59 C58 1.366 . S
C60 C34 1.490 . S
C60 C61 1.380 . S
C60 C65 1.386 . S
C61 H18 0.930 . S
C61 C60 1.380 . S
C61 C62 1.381 . S
C62 H19 0.929 . S
C62 C61 1.381 . S
C62 C63 1.371 . S
C63 C62 1.371 . S
C63 C64 1.380 . S
C64 H20 0.931 . S
C64 C63 1.380 . S
C64 C65 1.387 . S
C65 H21 0.930 . S
C65 C60 1.386 . S
C65 C64 1.387 . S
C66 C35 1.519 . S
C66 C67 1.377 1_455 S
C66 C71 1.361 1_455 S
C67 H22 0.929 . S
C67 C66 1.377 1_655 S
C67 C68 1.386 . S
C68 H23 0.931 . S
C68 C67 1.386 . S
C68 C69 1.363 . S
C69 C68 1.363 . S
C69 C70 1.385 . S
C70 H24 0.930 . S
C70 C69 1.385 . S
C70 C71 1.396 . S
C71 H25 0.929 1_655 S
C71 C66 1.361 1_655 S
C71 C70 1.396 . S
C72 O26 1.300 . S
C72 O27 1.209 . S
C72 C45 1.486 . S
C73 O28 1.199 . S
C73 O29 1.297 . S
C73 C57 1.476 . S
H74 O100 0.856 . S
H75 O103 0.854 . S
H76 C111 0.930 . S
H77 C112 0.930 . S
H78 C114 0.930 . S
H79 C115 0.930 . S
H80 C117 0.931 . S
H81 C118 0.930 . S
H82 C120 0.930 . S
H83 C121 0.929 . S
H84 C123 0.930 . S
H85 C124 0.931 . S
H86 C126 0.930 . S
H87 C127 0.929 . S
H88 C129 0.931 . S
H89 C130 0.930 . S
H90 C132 0.930 . S
H91 C133 0.932 . S
H92 C135 0.930 . S
H93 C136 0.929 . S
H94 C138 0.931 . S
H95 C139 0.930 . S
H96 C141 0.929 . S
H97 C142 0.931 . S
H98 C144 0.930 . S
H99 C145 0.929 . S
O100 H74 0.856 . S
O100 C146 1.300 . S
O101 C146 1.209 . S
O102 C147 1.199 . S
O103 H75 0.854 . S
O103 C147 1.297 . S
C104 C105 1.404 . S
C104 C109 1.397 . S
C104 C110 1.492 . S
C105 C104 1.404 . S
C105 C106 1.396 . S
C105 C116 1.492 . S
C106 C105 1.396 . S
C106 C107 1.397 . S
C106 C122 1.509 . S
C107 C106 1.397 . S
C107 C108 1.412 . S
C107 C128 1.485 . S
C108 C107 1.412 . S
C108 C109 1.388 . S
C108 C134 1.490 . S
C109 C104 1.397 . S
C109 C108 1.388 . S
C109 C140 1.519 . S
C110 C104 1.492 . S
C110 C111 1.363 . S
C110 C115 1.390 . S
C111 H76 0.930 . S
C111 C110 1.363 . S
C111 C112 1.372 . S
C112 H77 0.930 . S
C112 C111 1.372 . S
C112 C113 1.383 1_545 S
C113 C112 1.383 1_565 S
C113 C114 1.395 . S
C114 H78 0.930 . S
C114 C113 1.395 . S
C114 C115 1.362 1_565 S
C115 H79 0.930 . S
C115 C110 1.390 . S
C115 C114 1.362 1_545 S
C116 C105 1.492 . S
C116 C117 1.377 . S
C116 C121 1.397 . S
C117 H80 0.931 . S
C117 C116 1.377 . S
C117 C118 1.376 . S
C118 H81 0.930 . S
C118 C117 1.376 . S
C118 C119 1.376 . S
C119 C118 1.376 . S
C119 C120 1.378 . S
C119 C146 1.486 . S
C120 H82 0.930 . S
C120 C119 1.378 . S
C120 C121 1.376 . S
C121 H83 0.929 . S
C121 C116 1.397 . S
C121 C120 1.376 . S
C122 C106 1.509 . S
C122 C123 1.391 . S
C122 C127 1.386 . S
C123 H84 0.930 . S
C123 C122 1.391 . S
C123 C124 1.375 . S
C124 H85 0.931 . S
C124 C123 1.375 . S
C124 C125 1.375 . S
C125 C124 1.375 . S
C125 C126 1.361 . S
C126 H86 0.930 . S
C126 C125 1.361 . S
C126 C127 1.399 . S
C127 H87 0.929 . S
C127 C122 1.386 . S
C127 C126 1.399 . S
C128 C107 1.485 . S
C128 C129 1.394 . S
C128 C133 1.360 . S
C129 H88 0.931 . S
C129 C128 1.394 . S
C129 C130 1.372 . S
C130 H89 0.930 . S
C130 C129 1.372 . S
C130 C131 1.397 . S
C131 C130 1.397 . S
C131 C132 1.390 . S
C131 C147 1.476 . S
C132 H90 0.930 . S
C132 C131 1.390 . S
C132 C133 1.366 . S
C133 H91 0.932 . S
C133 C128 1.360 . S
C133 C132 1.366 . S
C134 C108 1.490 . S
C134 C135 1.380 . S
C134 C139 1.386 . S
C135 H92 0.930 . S
C135 C134 1.380 . S
C135 C136 1.381 . S
C136 H93 0.929 . S
C136 C135 1.381 . S
C136 C137 1.371 . S
C137 C136 1.371 . S
C137 C138 1.380 . S
C138 H94 0.931 . S
C138 C137 1.380 . S
C138 C139 1.387 . S
C139 H95 0.930 . S
C139 C134 1.386 . S
C139 C138 1.387 . S
C140 C109 1.519 . S
C140 C141 1.377 . S
C140 C145 1.361 . S
C141 H96 0.929 . S
C141 C140 1.377 . S
C141 C142 1.386 1_545 S
C142 H97 0.931 . S
C142 C141 1.386 1_565 S
C142 C143 1.363 . S
C143 C142 1.363 . S
C143 C144 1.385 . S
C144 H98 0.930 . S
C144 C143 1.385 . S
C144 C145 1.396 1_565 S
C145 H99 0.929 . S
C145 C140 1.361 . S
C145 C144 1.396 1_545 S
C146 O100 1.300 . S
C146 O101 1.209 . S
C146 C119 1.486 . S
C147 O102 1.199 . S
C147 O103 1.297 . S
C147 C131 1.476 . S
H148 O174 0.856 . S
H149 O177 0.854 . S
H150 C185 0.930 . S
H151 C186 0.930 . S
H152 C188 0.930 . S
H153 C189 0.930 . S
H154 C191 0.931 . S
H155 C192 0.930 . S
H156 C194 0.930 . S
H157 C195 0.929 . S
H158 C197 0.930 . S
H159 C198 0.931 . S
H160 C200 0.930 . S
H161 C201 0.929 . S
H162 C203 0.931 . S
H163 C204 0.930 . S
H164 C206 0.930 . S
H165 C207 0.932 . S
H166 C209 0.930 . S
H167 C210 0.929 . S
H168 C212 0.931 . S
H169 C213 0.930 . S
H170 C215 0.929 . S
H171 C216 0.931 . S
H172 C218 0.930 . S
H173 C219 0.929 . S
O174 H148 0.856 . S
O174 C220 1.300 . S
O175 C220 1.209 . S
O176 C221 1.199 . S
O177 H149 0.854 . S
O177 C221 1.297 . S
C178 C179 1.404 . S
C178 C183 1.397 . S
C178 C184 1.492 . S
C179 C178 1.404 . S
C179 C180 1.396 . S
C179 C190 1.492 . S
C180 C179 1.396 . S
C180 C181 1.397 . S
C180 C196 1.509 . S
C181 C180 1.397 . S
C181 C182 1.412 . S
C181 C202 1.485 . S
C182 C181 1.412 . S
C182 C183 1.388 . S
C182 C208 1.490 . S
C183 C178 1.397 . S
C183 C182 1.388 . S
C183 C214 1.519 . S
C184 C178 1.492 . S
C184 C185 1.363 . S
C184 C189 1.390 . S
C185 H150 0.930 . S
C185 C184 1.363 . S
C185 C186 1.372 . S
C186 H151 0.930 . S
C186 C185 1.372 . S
C186 C187 1.383 . S
C187 C186 1.383 . S
C187 C188 1.395 . S
C188 H152 0.930 . S
C188 C187 1.395 . S
C188 C189 1.362 . S
C189 H153 0.930 . S
C189 C184 1.390 . S
C189 C188 1.362 . S
C190 C179 1.492 . S
C190 C191 1.377 . S
C190 C195 1.397 . S
C191 H154 0.931 . S
C191 C190 1.377 . S
C191 C192 1.376 . S
C192 H155 0.930 . S
C192 C191 1.376 . S
C192 C193 1.376 . S
C193 C192 1.376 . S
C193 C194 1.378 . S
C193 C220 1.486 . S
C194 H156 0.930 . S
C194 C193 1.378 . S
C194 C195 1.376 . S
C195 H157 0.929 . S
C195 C190 1.397 . S
C195 C194 1.376 . S
C196 C180 1.509 . S
C196 C197 1.391 . S
C196 C201 1.386 . S
C197 H158 0.930 . S
C197 C196 1.391 . S
C197 C198 1.375 . S
C198 H159 0.931 . S
C198 C197 1.375 . S
C198 C199 1.375 . S
C199 C198 1.375 . S
C199 C200 1.361 . S
C200 H160 0.930 . S
C200 C199 1.361 . S
C200 C201 1.399 . S
C201 H161 0.929 . S
C201 C196 1.386 . S
C201 C200 1.399 . S
C202 C181 1.485 . S
C202 C203 1.394 . S
C202 C207 1.360 . S
C203 H162 0.931 . S
C203 C202 1.394 . S
C203 C204 1.372 . S
C204 H163 0.930 . S
C204 C203 1.372 . S
C204 C205 1.397 . S
C205 C204 1.397 . S
C205 C206 1.390 . S
C205 C221 1.476 . S
C206 H164 0.930 . S
C206 C205 1.390 . S
C206 C207 1.366 . S
C207 H165 0.932 . S
C207 C202 1.360 . S
C207 C206 1.366 . S
C208 C182 1.490 . S
C208 C209 1.380 . S
C208 C213 1.386 . S
C209 H166 0.930 . S
C209 C208 1.380 . S
C209 C210 1.381 . S
C210 H167 0.929 . S
C210 C209 1.381 . S
C210 C211 1.371 . S
C211 C210 1.371 . S
C211 C212 1.380 . S
C212 H168 0.931 . S
C212 C211 1.380 . S
C212 C213 1.387 . S
C213 H169 0.930 . S
C213 C208 1.386 . S
C213 C212 1.387 . S
C214 C183 1.519 . S
C214 C215 1.377 . S
C214 C219 1.361 . S
C215 H170 0.929 . S
C215 C214 1.377 . S
C215 C216 1.386 . S
C216 H171 0.931 . S
C216 C215 1.386 . S
C216 C217 1.363 . S
C217 C216 1.363 . S
C217 C218 1.385 . S
C218 H172 0.930 . S
C218 C217 1.385 . S
C218 C219 1.396 . S
C219 H173 0.929 . S
C219 C214 1.361 . S
C219 C218 1.396 . S
C220 O174 1.300 . S
C220 O175 1.209 . S
C220 C193 1.486 . S
C221 O176 1.199 . S
C221 O177 1.297 . S
C221 C205 1.476 . S
H222 O248 0.856 . S
H223 O251 0.854 . S
H224 C259 0.930 1_455 S
H225 C260 0.930 . S
H226 C262 0.930 . S
H227 C263 0.930 . S
H228 C265 0.931 . S
H229 C266 0.930 . S
H230 C268 0.930 . S
H231 C269 0.929 . S
H232 C271 0.930 . S
H233 C272 0.931 . S
H234 C274 0.930 . S
H235 C275 0.929 . S
H236 C277 0.931 . S
H237 C278 0.930 . S
H238 C280 0.930 . S
H239 C281 0.932 . S
H240 C283 0.930 . S
H241 C284 0.929 . S
H242 C286 0.931 . S
H243 C287 0.930 . S
H244 C289 0.929 . S
H245 C290 0.931 . S
H246 C292 0.930 . S
H247 C293 0.929 . S
O248 H222 0.856 . S
O248 C294 1.300 . S
O249 C294 1.209 . S
O250 C295 1.199 . S
O251 H223 0.854 . S
O251 C295 1.297 . S
C252 C253 1.404 . S
C252 C257 1.397 . S
C252 C258 1.492 . S
C253 C252 1.404 . S
C253 C254 1.396 . S
C253 C264 1.492 . S
C254 C253 1.396 . S
C254 C255 1.397 . S
C254 C270 1.509 . S
C255 C254 1.397 . S
C255 C256 1.412 . S
C255 C276 1.485 . S
C256 C255 1.412 . S
C256 C257 1.388 . S
C256 C282 1.490 . S
C257 C252 1.397 . S
C257 C256 1.388 . S
C257 C288 1.519 1_455 S
C258 C252 1.492 . S
C258 C259 1.363 1_455 S
C258 C263 1.390 1_455 S
C259 H224 0.930 1_655 S
C259 C258 1.363 1_655 S
C259 C260 1.373 . S
C260 H225 0.930 . S
C260 C259 1.373 . S
C260 C261 1.383 . S
C261 C260 1.383 . S
C261 C262 1.395 . S
C262 H226 0.930 . S
C262 C261 1.395 . S
C262 C263 1.362 . S
C263 H227 0.930 . S
C263 C258 1.390 1_655 S
C263 C262 1.362 . S
C264 C253 1.492 . S
C264 C265 1.377 . S
C264 C269 1.397 . S
C265 H228 0.931 . S
C265 C264 1.377 . S
C265 C266 1.376 . S
C266 H229 0.930 . S
C266 C265 1.376 . S
C266 C267 1.376 . S
C267 C266 1.376 . S
C267 C268 1.378 . S
C267 C294 1.486 . S
C268 H230 0.930 . S
C268 C267 1.378 . S
C268 C269 1.376 . S
C269 H231 0.929 . S
C269 C264 1.397 . S
C269 C268 1.376 . S
C270 C254 1.509 . S
C270 C271 1.391 . S
C270 C275 1.386 . S
C271 H232 0.930 . S
C271 C270 1.391 . S
C271 C272 1.375 . S
C272 H233 0.931 . S
C272 C271 1.375 . S
C272 C273 1.375 . S
C273 C272 1.375 . S
C273 C274 1.361 . S
C274 H234 0.930 . S
C274 C273 1.361 . S
C274 C275 1.399 . S
C275 H235 0.929 . S
C275 C270 1.386 . S
C275 C274 1.399 . S
C276 C255 1.485 . S
C276 C277 1.394 . S
C276 C281 1.360 . S
C277 H236 0.931 . S
C277 C276 1.394 . S
C277 C278 1.372 . S
C278 H237 0.930 . S
C278 C277 1.372 . S
C278 C279 1.397 . S
C279 C278 1.397 . S
C279 C280 1.390 . S
C279 C295 1.476 . S
C280 H238 0.930 . S
C280 C279 1.390 . S
C280 C281 1.366 . S
C281 H239 0.932 . S
C281 C276 1.360 . S
C281 C280 1.366 . S
C282 C256 1.490 . S
C282 C283 1.380 . S
C282 C287 1.386 . S
C283 H240 0.930 . S
C283 C282 1.380 . S
C283 C284 1.381 . S
C284 H241 0.929 . S
C284 C283 1.381 . S
C284 C285 1.371 . S
C285 C284 1.371 . S
C285 C286 1.380 . S
C286 H242 0.931 . S
C286 C285 1.380 . S
C286 C287 1.387 . S
C287 H243 0.930 . S
C287 C282 1.386 . S
C287 C286 1.387 . S
C288 C257 1.519 1_655 S
C288 C289 1.377 . S
C288 C293 1.361 . S
C289 H244 0.929 . S
C289 C288 1.377 . S
C289 C290 1.386 . S
C290 H245 0.931 . S
C290 C289 1.386 . S
C290 C291 1.363 . S
C291 C290 1.363 . S
C291 C292 1.385 . S
C292 H246 0.930 . S
C292 C291 1.385 . S
C292 C293 1.396 . S
C293 H247 0.929 . S
C293 C288 1.361 . S
C293 C292 1.396 . S
C294 O248 1.300 . S
C294 O249 1.209 . S
C294 C267 1.486 . S
C295 O250 1.199 . S
C295 O251 1.297 . S
C295 C279 1.476 . S
H296 O322 0.856 . S
H297 O325 0.854 . S
H298 C333 0.930 . S
H299 C334 0.930 . S
H300 C336 0.930 . S
H301 C337 0.930 . S
H302 C339 0.931 . S
H303 C340 0.930 . S
H304 C342 0.930 . S
H305 C343 0.929 . S
H306 C345 0.930 . S
H307 C346 0.931 . S
H308 C348 0.930 . S
H309 C349 0.929 . S
H310 C351 0.931 . S
H311 C352 0.930 . S
H312 C354 0.930 . S
H313 C355 0.932 . S
H314 C357 0.930 . S
H315 C358 0.929 . S
H316 C360 0.931 . S
H317 C361 0.930 . S
H318 C363 0.928 1_556 S
H319 C364 0.931 . S
H320 C366 0.930 . S
H321 C367 0.929 . S
O322 H296 0.856 . S
O322 C368 1.300 . S
O323 C368 1.209 . S
O324 C369 1.199 . S
O325 H297 0.854 . S
O325 C369 1.297 . S
C326 C327 1.413 . S
C326 C331 1.397 . S
C326 C332 1.492 . S
C327 C326 1.413 . S
C327 C328 1.388 1_545 S
C327 C338 1.491 1_545 S
C328 C327 1.388 1_565 S
C328 C329 1.397 . S
C328 C344 1.509 . S
C329 C328 1.397 . S
C329 C330 1.412 1_566 S
C329 C350 1.485 1_556 S
C330 C329 1.412 1_544 S
C330 C331 1.388 1_554 S
C330 C356 1.490 . S
C331 C326 1.397 . S
C331 C330 1.388 1_556 S
C331 C362 1.519 1_556 S
C332 C326 1.492 . S
C332 C333 1.363 . S
C332 C337 1.390 . S
C333 H298 0.930 . S
C333 C332 1.363 . S
C333 C334 1.372 . S
C334 H299 0.930 . S
C334 C333 1.372 . S
C334 C335 1.383 . S
C335 C334 1.383 . S
C335 C336 1.395 . S
C336 H300 0.930 . S
C336 C335 1.395 . S
C336 C337 1.362 . S
C337 H301 0.930 . S
C337 C332 1.390 . S
C337 C336 1.362 . S
C338 C327 1.491 1_565 S
C338 C339 1.377 . S
C338 C343 1.397 1_565 S
C339 H302 0.931 . S
C339 C338 1.377 . S
C339 C340 1.376 . S
C340 H303 0.930 . S
C340 C339 1.376 . S
C340 C341 1.376 . S
C341 C340 1.376 . S
C341 C342 1.378 1_565 S
C341 C368 1.486 . S
C342 H304 0.930 . S
C342 C341 1.378 1_545 S
C342 C343 1.376 . S
C343 H305 0.929 . S
C343 C338 1.397 1_545 S
C343 C342 1.376 . S
C344 C328 1.509 . S
C344 C345 1.391 . S
C344 C349 1.386 . S
C345 H306 0.930 . S
C345 C344 1.391 . S
C345 C346 1.375 . S
C346 H307 0.931 . S
C346 C345 1.375 . S
C346 C347 1.375 . S
C347 C346 1.375 . S
C347 C348 1.361 . S
C348 H308 0.930 . S
C348 C347 1.361 . S
C348 C349 1.399 . S
C349 H309 0.929 . S
C349 C344 1.386 . S
C349 C348 1.399 . S
C350 C329 1.485 1_554 S
C350 C351 1.394 . S
C350 C355 1.360 . S
C351 H310 0.931 . S
C351 C350 1.394 . S
C351 C352 1.372 . S
C352 H311 0.930 . S
C352 C351 1.372 . S
C352 C353 1.397 . S
C353 C352 1.397 . S
C353 C354 1.390 . S
C353 C369 1.476 . S
C354 H312 0.930 . S
C354 C353 1.390 . S
C354 C355 1.366 . S
C355 H313 0.932 . S
C355 C350 1.360 . S
C355 C354 1.366 . S
C356 C330 1.490 . S
C356 C357 1.380 . S
C356 C361 1.386 . S
C357 H314 0.930 . S
C357 C356 1.380 . S
C357 C358 1.381 . S
C358 H315 0.929 . S
C358 C357 1.381 . S
C358 C359 1.371 . S
C359 C358 1.371 . S
C359 C360 1.380 . S
C360 H316 0.931 . S
C360 C359 1.380 . S
C360 C361 1.387 . S
C361 H317 0.930 . S
C361 C356 1.386 . S
C361 C360 1.387 . S
C362 C331 1.519 1_554 S
C362 C363 1.377 . S
C362 C367 1.361 . S
C363 H318 0.928 1_554 S
C363 C362 1.377 . S
C363 C364 1.387 . S
C364 H319 0.931 . S
C364 C363 1.387 . S
C364 C365 1.363 . S
C365 C364 1.363 . S
C365 C366 1.385 . S
C366 H320 0.930 . S
C366 C365 1.385 . S
C366 C367 1.396 . S
C367 H321 0.929 . S
C367 C362 1.361 . S
C367 C366 1.396 . S
C368 O322 1.300 . S
C368 O323 1.209 . S
C368 C341 1.486 . S
C369 O324 1.199 . S
C369 O325 1.297 . S
C369 C353 1.476 . S
H370 O396 0.856 1_556 S
H371 O399 0.854 . S
H372 C407 0.930 . S
H373 C408 0.930 . S
H374 C410 0.930 . S
H375 C411 0.930 . S
H376 C413 0.931 . S
H377 C414 0.930 . S
H378 C416 0.930 . S
H379 C417 0.929 . S
H380 C419 0.930 . S
H381 C420 0.931 . S
H382 C422 0.930 . S
H383 C423 0.929 . S
H384 C425 0.931 . S
H385 C426 0.930 . S
H386 C428 0.930 . S
H387 C429 0.932 . S
H388 C431 0.930 . S
H389 C432 0.929 . S
H390 C434 0.931 . S
H391 C435 0.930 . S
H392 C437 0.929 . S
H393 C438 0.931 . S
H394 C440 0.930 . S
H395 C441 0.929 . S
O396 H370 0.856 1_554 S
O396 C442 1.300 . S
O397 C442 1.209 1_556 S
O398 C443 1.199 . S
O399 H371 0.854 . S
O399 C443 1.297 . S
C400 C401 1.404 . S
C400 C405 1.397 . S
C400 C406 1.492 . S
C401 C400 1.404 . S
C401 C402 1.396 . S
C401 C412 1.492 . S
C402 C401 1.396 . S
C402 C403 1.397 . S
C402 C418 1.509 . S
C403 C402 1.397 . S
C403 C404 1.412 . S
C403 C424 1.485 . S
C404 C403 1.412 . S
C404 C405 1.388 . S
C404 C430 1.490 . S
C405 C400 1.397 . S
C405 C404 1.388 . S
C405 C436 1.519 . S
C406 C400 1.492 . S
C406 C407 1.363 . S
C406 C411 1.390 . S
C407 H372 0.930 . S
C407 C406 1.363 . S
C407 C408 1.372 . S
C408 H373 0.930 . S
C408 C407 1.372 . S
C408 C409 1.383 . S
C409 C408 1.383 . S
C409 C410 1.395 . S
C410 H374 0.930 . S
C410 C409 1.395 . S
C410 C411 1.362 . S
C411 H375 0.930 . S
C411 C406 1.390 . S
C411 C410 1.362 . S
C412 C401 1.492 . S
C412 C413 1.377 . S
C412 C417 1.397 . S
C413 H376 0.931 . S
C413 C412 1.377 . S
C413 C414 1.376 . S
C414 H377 0.930 . S
C414 C413 1.376 . S
C414 C415 1.376 . S
C415 C414 1.376 . S
C415 C416 1.378 . S
C415 C442 1.486 . S
C416 H378 0.930 . S
C416 C415 1.378 . S
C416 C417 1.376 . S
C417 H379 0.929 . S
C417 C412 1.397 . S
C417 C416 1.376 . S
C418 C402 1.509 . S
C418 C419 1.391 . S
C418 C423 1.386 . S
C419 H380 0.930 . S
C419 C418 1.391 . S
C419 C420 1.375 . S
C420 H381 0.931 . S
C420 C419 1.375 . S
C420 C421 1.375 . S
C421 C420 1.375 . S
C421 C422 1.361 . S
C422 H382 0.930 . S
C422 C421 1.361 . S
C422 C423 1.399 . S
C423 H383 0.929 . S
C423 C418 1.386 . S
C423 C422 1.399 . S
C424 C403 1.485 . S
C424 C425 1.394 . S
C424 C429 1.360 . S
C425 H384 0.931 . S
C425 C424 1.394 . S
C425 C426 1.372 . S
C426 H385 0.930 . S
C426 C425 1.372 . S
C426 C427 1.397 . S
C427 C426 1.397 . S
C427 C428 1.390 . S
C427 C443 1.476 . S
C428 H386 0.930 . S
C428 C427 1.390 . S
C428 C429 1.366 . S
C429 H387 0.932 . S
C429 C424 1.360 . S
C429 C428 1.366 . S
C430 C404 1.490 . S
C430 C431 1.380 . S
C430 C435 1.386 . S
C431 H388 0.930 . S
C431 C430 1.380 . S
C431 C432 1.381 . S
C432 H389 0.929 . S
C432 C431 1.381 . S
C432 C433 1.371 . S
C433 C432 1.371 . S
C433 C434 1.380 . S
C434 H390 0.931 . S
C434 C433 1.380 . S
C434 C435 1.387 . S
C435 H391 0.930 . S
C435 C430 1.386 . S
C435 C434 1.387 . S
C436 C405 1.519 . S
C436 C437 1.377 . S
C436 C441 1.361 . S
C437 H392 0.929 . S
C437 C436 1.377 . S
C437 C438 1.386 . S
C438 H393 0.931 . S
C438 C437 1.386 . S
C438 C439 1.363 . S
C439 C438 1.363 . S
C439 C440 1.385 . S
C440 H394 0.930 . S
C440 C439 1.385 . S
C440 C441 1.396 . S
C441 H395 0.929 . S
C441 C436 1.361 . S
C441 C440 1.396 . S
C442 O396 1.300 . S
C442 O397 1.209 1_554 S
C442 C415 1.486 . S
C443 O398 1.199 . S
C443 O399 1.297 . S
C443 C427 1.476 . S
In444 O445 2.294 . S
In444 O446 2.326 . S
In444 O450 2.266 . S
In444 O451 2.326 . S
In444 O452 2.266 . S
In444 O453 2.326 . S
In444 O455 2.294 . S
In444 O456 2.326 . S
O445 In444 2.294 . S
O445 C454 1.240 . S
O446 In444 2.326 . S
O446 C454 1.252 . S
C447 O450 1.252 . S
C447 O451 1.260 . S
C448 O455 1.240 . S
C448 O456 1.252 . S
C449 O452 1.252 . S
C449 O453 1.260 . S
O450 In444 2.266 . S
O450 C447 1.252 . S
O451 In444 2.326 . S
O451 C447 1.260 . S
O452 In444 2.266 . S
O452 C449 1.252 . S
O453 In444 2.326 . S
O453 C449 1.260 . S
C454 O445 1.240 . S
C454 O446 1.252 . S
O455 In444 2.294 . S
O455 C448 1.240 . S
O456 In444 2.326 . S
O456 C448 1.252 . S
In457 O458 2.294 . S
In457 O459 2.326 . S
In457 O463 2.266 . S
In457 O464 2.326 . S
In457 O465 2.266 . S
In457 O466 2.326 . S
In457 O468 2.294 . S
In457 O469 2.326 . S
O458 In457 2.294 . S
O458 C467 1.240 . S
O459 In457 2.326 . S
O459 C467 1.252 . S
C460 O463 1.252 . S
C460 O464 1.260 . S
C461 O468 1.240 . S
C461 O469 1.252 . S
C462 O465 1.252 . S
C462 O466 1.260 . S
O463 In457 2.266 . S
O463 C460 1.252 . S
O464 In457 2.326 . S
O464 C460 1.260 . S
O465 In457 2.266 . S
O465 C462 1.252 . S
O466 In457 2.326 . S
O466 C462 1.260 . S
C467 O458 1.240 . S
C467 O459 1.252 . S
O468 In457 2.294 . S
O468 C461 1.240 . S
O469 In457 2.326 . S
O469 C461 1.252 . S
In470 O471 2.294 . S
In470 O472 2.326 . S
In470 O476 2.266 . S
In470 O477 2.326 . S
In470 O478 2.266 . S
In470 O479 2.326 . S
In470 O481 2.294 . S
In470 O482 2.326 . S
O471 In470 2.294 . S
O471 C480 1.240 . S
O472 In470 2.326 . S
O472 C480 1.252 . S
C473 O476 1.252 . S
C473 O477 1.260 . S
C474 O481 1.240 . S
C474 O482 1.252 . S
C475 O478 1.252 . S
C475 O479 1.260 . S
O476 In470 2.266 . S
O476 C473 1.252 . S
O477 In470 2.326 . S
O477 C473 1.260 . S
O478 In470 2.266 . S
O478 C475 1.252 . S
O479 In470 2.326 . S
O479 C475 1.260 . S
C480 O471 1.240 . S
C480 O472 1.252 . S
O481 In470 2.294 . S
O481 C474 1.240 . S
O482 In470 2.326 . S
O482 C474 1.252 . S
In483 O484 2.294 . S
In483 O485 2.326 . S
In483 O489 2.266 . S
In483 O490 2.326 . S
In483 O491 2.266 . S
In483 O492 2.326 . S
In483 O494 2.294 . S
In483 O495 2.326 . S
O484 In483 2.294 . S
O484 C493 1.240 . S
O485 In483 2.326 . S
O485 C493 1.252 . S
C486 O489 1.252 . S
C486 O490 1.260 . S
C487 O494 1.240 . S
C487 O495 1.252 . S
C488 O491 1.252 . S
C488 O492 1.260 . S
O489 In483 2.266 . S
O489 C486 1.252 . S
O490 In483 2.326 . S
O490 C486 1.260 . S
O491 In483 2.266 . S
O491 C488 1.252 . S
O492 In483 2.326 . S
O492 C488 1.260 . S
C493 O484 1.240 . S
C493 O485 1.252 . S
O494 In483 2.294 . S
O494 C487 1.240 . S
O495 In483 2.326 . S
O495 C487 1.252 . S
In496 O497 2.294 . S
In496 O498 2.326 . S
In496 O502 2.266 . S
In496 O503 2.326 . S
In496 O504 2.266 . S
In496 O505 2.326 . S
In496 O507 2.294 . S
In496 O508 2.326 . S
O497 In496 2.294 . S
O497 C506 1.240 . S
O498 In496 2.326 . S
O498 C506 1.252 . S
C499 O502 1.252 . S
C499 O503 1.260 . S
C500 O507 1.240 . S
C500 O508 1.252 . S
C501 O504 1.252 . S
C501 O505 1.260 . S
O502 In496 2.266 . S
O502 C499 1.252 . S
O503 In496 2.326 . S
O503 C499 1.260 . S
O504 In496 2.266 . S
O504 C501 1.252 . S
O505 In496 2.326 . S
O505 C501 1.260 . S
C506 O497 1.240 . S
C506 O498 1.252 . S
O507 In496 2.294 . S
O507 C500 1.240 . S
O508 In496 2.326 . S
O508 C500 1.252 . S
In509 O510 2.294 . S
In509 O511 2.326 . S
In509 O515 2.266 . S
In509 O516 2.326 . S
In509 O517 2.266 . S
In509 O518 2.326 . S
In509 O520 2.294 . S
In509 O521 2.326 . S
O510 In509 2.294 . S
O510 C519 1.240 . S
O511 In509 2.326 . S
O511 C519 1.252 . S
C512 O515 1.252 . S
C512 O516 1.260 . S
C513 O520 1.240 . S
C513 O521 1.252 . S
C514 O517 1.252 . S
C514 O518 1.260 . S
O515 In509 2.266 . S
O515 C512 1.252 . S
O516 In509 2.326 . S
O516 C512 1.260 . S
O517 In509 2.266 . S
O517 C514 1.252 . S
O518 In509 2.326 . S
O518 C514 1.260 . S
C519 O510 1.240 . S
C519 O511 1.252 . S
O520 In509 2.294 . S
O520 C513 1.240 . S
O521 In509 2.326 . S
O521 C513 1.252 . S
H522 C528 0.930 . S
H523 C531 0.930 . S
H524 C532 0.930 . S
H525 C533 0.930 . S
H526 C536 0.930 . S
H527 C537 0.930 . S
C528 H522 0.930 . S
C528 C529 1.355 . S
C528 C530 1.415 . S
C529 C528 1.355 . S
C529 C531 1.419 . S
C530 C528 1.415 . S
C530 C535 1.425 . S
C530 C537 1.409 . S
C531 H523 0.930 . S
C531 C529 1.419 . S
C531 C532 1.362 . S
C532 H524 0.930 . S
C532 C531 1.362 . S
C532 C535 1.409 . S
C533 H525 0.930 . S
C533 C534 1.355 . S
C533 C535 1.415 . S
C534 C533 1.355 . S
C534 C536 1.419 . S
C535 C530 1.425 . S
C535 C532 1.409 . S
C535 C533 1.415 . S
C536 H526 0.930 . S
C536 C534 1.419 . S
C536 C537 1.362 . S
C537 H527 0.930 . S
C537 C530 1.409 . S
C537 C536 1.362 . S
H538 C544 0.930 . S
H539 C547 0.930 . S
H540 C548 0.930 . S
H541 C549 0.930 . S
H542 C552 0.930 . S
H543 C553 0.930 . S
C544 H538 0.930 . S
C544 C545 1.355 . S
C544 C546 1.415 . S
C545 C544 1.355 . S
C545 C547 1.419 . S
C546 C544 1.415 . S
C546 C551 1.425 . S
C546 C553 1.409 . S
C547 H539 0.930 . S
C547 C545 1.419 . S
C547 C548 1.362 . S
C548 H540 0.930 . S
C548 C547 1.362 . S
C548 C551 1.409 . S
C549 H541 0.930 . S
C549 C550 1.355 . S
C549 C551 1.415 . S
C550 C549 1.355 . S
C550 C552 1.419 . S
C551 C546 1.425 . S
C551 C548 1.409 . S
C551 C549 1.415 . S
C552 H542 0.930 . S
C552 C550 1.419 . S
C552 C553 1.362 . S
C553 H543 0.930 . S
C553 C546 1.409 . S
C553 C552 1.362 . S
H554 C560 0.930 . S
H555 C563 0.930 . S
H556 C564 0.930 . S
H557 C565 0.930 . S
H558 C568 0.930 . S
H559 C569 0.930 . S
C560 H554 0.930 . S
C560 C561 1.355 . S
C560 C562 1.415 . S
C561 C560 1.355 . S
C561 C563 1.419 . S
C562 C560 1.415 . S
C562 C567 1.425 . S
C562 C569 1.409 . S
C563 H555 0.930 . S
C563 C561 1.419 . S
C563 C564 1.362 . S
C564 H556 0.930 . S
C564 C563 1.362 . S
C564 C567 1.409 . S
C565 H557 0.930 . S
C565 C566 1.355 . S
C565 C567 1.415 . S
C566 C565 1.355 . S
C566 C568 1.419 . S
C567 C562 1.425 . S
C567 C564 1.409 . S
C567 C565 1.415 . S
C568 H558 0.930 . S
C568 C566 1.419 . S
C568 C569 1.362 . S
C569 H559 0.930 . S
C569 C562 1.409 . S
C569 C568 1.362 . S
H570 C576 0.930 . S
H571 C579 0.930 . S
H572 C580 0.930 . S
H573 C581 0.930 . S
H574 C584 0.930 . S
H575 C585 0.930 . S
C576 H570 0.930 . S
C576 C577 1.355 . S
C576 C578 1.415 . S
C577 C576 1.355 . S
C577 C579 1.419 . S
C578 C576 1.415 . S
C578 C583 1.425 . S
C578 C585 1.409 . S
C579 H571 0.930 . S
C579 C577 1.419 . S
C579 C580 1.362 . S
C580 H572 0.930 . S
C580 C579 1.362 . S
C580 C583 1.409 . S
C581 H573 0.930 . S
C581 C582 1.355 . S
C581 C583 1.415 . S
C582 C581 1.355 . S
C582 C584 1.419 . S
C583 C578 1.425 . S
C583 C580 1.409 . S
C583 C581 1.415 . S
C584 H574 0.930 . S
C584 C582 1.419 . S
C584 C585 1.362 . S
C585 H575 0.930 . S
C585 C578 1.409 . S
C585 C584 1.362 . S
H586 C592 0.930 . S
H587 C595 0.930 . S
H588 C596 0.930 . S
H589 C597 0.930 . S
H590 C600 0.930 . S
H591 C601 0.930 . S
C592 H586 0.930 . S
C592 C593 1.355 . S
C592 C594 1.415 . S
C593 C592 1.355 . S
C593 C595 1.419 . S
C594 C592 1.415 . S
C594 C599 1.425 . S
C594 C601 1.409 . S
C595 H587 0.930 . S
C595 C593 1.419 . S
C595 C596 1.362 . S
C596 H588 0.930 . S
C596 C595 1.362 . S
C596 C599 1.409 . S
C597 H589 0.930 . S
C597 C598 1.355 . S
C597 C599 1.415 . S
C598 C597 1.355 . S
C598 C600 1.419 . S
C599 C594 1.425 . S
C599 C596 1.409 . S
C599 C597 1.415 . S
C600 H590 0.930 . S
C600 C598 1.419 . S
C600 C601 1.362 . S
C601 H591 0.930 . S
C601 C594 1.409 . S
C601 C600 1.362 . S
H602 C608 0.930 . S
H603 C611 0.930 . S
H604 C612 0.930 . S
H605 C613 0.930 . S
H606 C616 0.930 . S
H607 C617 0.930 . S
C608 H602 0.930 . S
C608 C609 1.355 . S
C608 C610 1.415 . S
C609 C608 1.355 . S
C609 C611 1.419 . S
C610 C608 1.415 . S
C610 C615 1.425 . S
C610 C617 1.409 . S
C611 H603 0.930 . S
C611 C609 1.419 . S
C611 C612 1.362 . S
C612 H604 0.930 . S
C612 C611 1.362 . S
C612 C615 1.409 . S
C613 H605 0.930 . S
C613 C614 1.355 . S
C613 C615 1.415 . S
C614 C613 1.355 . S
C614 C616 1.419 . S
C615 C610 1.425 . S
C615 C612 1.409 . S
C615 C613 1.415 . S
C616 H606 0.930 . S
C616 C614 1.419 . S
C616 C617 1.362 . S
C617 H607 0.930 . S
C617 C610 1.409 . S
C617 C616 1.362 . S
H618 C624 0.930 . S
H619 C627 0.930 . S
H620 C628 0.930 . S
H621 C629 0.930 . S
H622 C632 0.930 . S
H623 C633 0.930 . S
C624 H618 0.930 . S
C624 C625 1.355 . S
C624 C626 1.415 . S
C625 C624 1.355 . S
C625 C627 1.419 . S
C626 C624 1.415 . S
C626 C631 1.425 . S
C626 C633 1.409 . S
C627 H619 0.930 . S
C627 C625 1.419 . S
C627 C628 1.362 . S
C628 H620 0.930 . S
C628 C627 1.362 . S
C628 C631 1.409 . S
C629 H621 0.930 . S
C629 C630 1.355 . S
C629 C631 1.415 . S
C630 C629 1.355 . S
C630 C632 1.419 . S
C631 C626 1.425 . S
C631 C628 1.409 . S
C631 C629 1.415 . S
C632 H622 0.930 . S
C632 C630 1.419 . S
C632 C633 1.362 . S
C633 H623 0.930 . S
C633 C626 1.409 . S
C633 C632 1.362 . S
H634 C640 0.930 . S
H635 C643 0.930 . S
H636 C644 0.930 . S
H637 C645 0.930 . S
H638 C648 0.930 . S
H639 C649 0.930 . S
C640 H634 0.930 . S
C640 C641 1.355 . S
C640 C642 1.415 . S
C641 C640 1.355 . S
C641 C643 1.419 . S
C642 C640 1.415 . S
C642 C647 1.425 . S
C642 C649 1.409 . S
C643 H635 0.930 . S
C643 C641 1.419 . S
C643 C644 1.362 . S
C644 H636 0.930 . S
C644 C643 1.362 . S
C644 C647 1.409 . S
C645 H637 0.930 . S
C645 C646 1.355 . S
C645 C647 1.415 . S
C646 C645 1.355 . S
C646 C648 1.419 . S
C647 C642 1.425 . S
C647 C644 1.409 . S
C647 C645 1.415 . S
C648 H638 0.930 . S
C648 C646 1.419 . S
C648 C649 1.362 . S
C649 H639 0.930 . S
C649 C642 1.409 . S
C649 C648 1.362 . S
H650 C656 0.930 . S
H651 C659 0.930 . S
H652 C660 0.930 . S
H653 C661 0.930 . S
H654 C664 0.930 . S
H655 C665 0.930 . S
C656 H650 0.930 . S
C656 C657 1.355 . S
C656 C658 1.415 . S
C657 C656 1.355 . S
C657 C659 1.419 . S
C658 C656 1.415 . S
C658 C663 1.425 . S
C658 C665 1.409 . S
C659 H651 0.930 . S
C659 C657 1.419 . S
C659 C660 1.362 . S
C660 H652 0.930 . S
C660 C659 1.362 . S
C660 C663 1.409 . S
C661 H653 0.930 . S
C661 C662 1.355 . S
C661 C663 1.415 . S
C662 C661 1.355 . S
C662 C664 1.419 . S
C663 C658 1.425 . S
C663 C660 1.409 . S
C663 C661 1.415 . S
C664 H654 0.930 . S
C664 C662 1.419 . S
C664 C665 1.362 . S
C665 H655 0.930 . S
C665 C658 1.409 . S
C665 C664 1.362 . S
H666 C672 0.933 . S
H667 C675 0.930 . S
H668 C676 0.930 . S
H669 C677 0.930 . S
H670 C680 0.930 . S
H671 C681 0.930 1_556 S
C672 H666 0.933 . S
C672 C673 1.355 . S
C672 C674 1.415 . S
C673 C672 1.355 . S
C673 C675 1.419 . S
C674 C672 1.415 . S
C674 C679 1.425 . S
C674 C681 1.409 . S
C675 H667 0.930 . S
C675 C673 1.419 . S
C675 C676 1.362 . S
C676 H668 0.930 . S
C676 C675 1.362 . S
C676 C679 1.409 . S
C677 H669 0.930 . S
C677 C678 1.355 . S
C677 C679 1.415 . S
C678 C677 1.355 . S
C678 C680 1.419 . S
C679 C674 1.425 . S
C679 C676 1.409 . S
C679 C677 1.415 . S
C680 H670 0.930 . S
C680 C678 1.419 . S
C680 C681 1.362 . S
C681 H671 0.930 1_554 S
C681 C674 1.409 . S
C681 C680 1.362 . S
H682 C688 0.930 . S
H683 C691 0.930 . S
H684 C692 0.930 . S
H685 C693 0.930 . S
H686 C696 0.930 . S
H687 C697 0.930 . S
C688 H682 0.930 . S
C688 C689 1.355 . S
C688 C690 1.415 . S
C689 C688 1.355 . S
C689 C691 1.419 . S
C690 C688 1.415 . S
C690 C695 1.425 . S
C690 C697 1.409 . S
C691 H683 0.930 . S
C691 C689 1.419 . S
C691 C692 1.362 . S
C692 H684 0.930 . S
C692 C691 1.362 . S
C692 C695 1.409 . S
C693 H685 0.930 . S
C693 C694 1.355 . S
C693 C695 1.415 . S
C694 C693 1.355 . S
C694 C696 1.419 . S
C695 C690 1.425 . S
C695 C692 1.409 . S
C695 C693 1.415 . S
C696 H686 0.930 . S
C696 C694 1.419 . S
C696 C697 1.362 . S
C697 H687 0.930 . S
C697 C690 1.409 . S
C697 C696 1.362 . S
H698 C704 0.930 . S
H699 C707 0.930 . S
H700 C708 0.930 . S
H701 C709 0.930 . S
H702 C712 0.930 . S
H703 C713 0.930 . S
C704 H698 0.930 . S
C704 C705 1.355 . S
C704 C706 1.415 . S
C705 C704 1.355 . S
C705 C707 1.419 . S
C706 C704 1.415 . S
C706 C711 1.425 . S
C706 C713 1.409 . S
C707 H699 0.930 . S
C707 C705 1.419 . S
C707 C708 1.362 . S
C708 H700 0.930 . S
C708 C707 1.362 . S
C708 C711 1.409 . S
C709 H701 0.930 . S
C709 C710 1.355 . S
C709 C711 1.415 . S
C710 C709 1.355 . S
C710 C712 1.419 . S
C711 C706 1.425 . S
C711 C708 1.409 . S
C711 C709 1.415 . S
C712 H702 0.930 . S
C712 C710 1.419 . S
C712 C713 1.362 . S
C713 H703 0.930 . S
C713 C706 1.409 . S
C713 C712 1.362 . S
H714 C720 0.930 . S
H715 C723 0.930 . S
H716 C724 0.930 . S
H717 C725 0.930 . S
H718 C728 0.930 . S
H719 C729 0.930 . S
C720 H714 0.930 . S
C720 C721 1.355 . S
C720 C722 1.415 . S
C721 C720 1.355 . S
C721 C723 1.419 . S
C722 C720 1.415 . S
C722 C727 1.425 . S
C722 C729 1.409 . S
C723 H715 0.930 . S
C723 C721 1.419 . S
C723 C724 1.362 . S
C724 H716 0.930 . S
C724 C723 1.362 . S
C724 C727 1.409 . S
C725 H717 0.930 . S
C725 C726 1.355 . S
C725 C727 1.415 . S
C726 C725 1.355 . S
C726 C728 1.419 . S
C727 C722 1.425 . S
C727 C724 1.409 . S
C727 C725 1.415 . S
C728 H718 0.930 . S
C728 C726 1.419 . S
C728 C729 1.362 . S
C729 H719 0.930 . S
C729 C722 1.409 . S
C729 C728 1.362 . S
H730 C736 0.930 . S
H731 C739 0.930 . S
H732 C740 0.930 . S
H733 C741 0.930 . S
H734 C744 0.930 . S
H735 C745 0.930 . S
C736 H730 0.930 . S
C736 C737 1.355 . S
C736 C738 1.415 . S
C737 C736 1.355 . S
C737 C739 1.419 . S
C738 C736 1.415 . S
C738 C743 1.425 . S
C738 C745 1.409 . S
C739 H731 0.930 . S
C739 C737 1.419 . S
C739 C740 1.362 . S
C740 H732 0.930 . S
C740 C739 1.362 . S
C740 C743 1.409 . S
C741 H733 0.930 . S
C741 C742 1.355 . S
C741 C743 1.415 . S
C742 C741 1.355 . S
C742 C744 1.419 . S
C743 C738 1.425 . S
C743 C740 1.409 . S
C743 C741 1.415 . S
C744 H734 0.930 . S
C744 C742 1.419 . S
C744 C745 1.362 . S
C745 H735 0.930 . S
C745 C738 1.409 . S
C745 C744 1.362 . S
H746 C752 0.930 . S
H747 C755 0.930 . S
H748 C756 0.930 . S
H749 C757 0.930 . S
H750 C760 0.930 . S
H751 C761 0.930 . S
C752 H746 0.930 . S
C752 C753 1.355 . S
C752 C754 1.415 . S
C753 C752 1.355 . S
C753 C755 1.419 . S
C754 C752 1.415 . S
C754 C759 1.425 . S
C754 C761 1.409 . S
C755 H747 0.930 . S
C755 C753 1.419 . S
C755 C756 1.362 . S
C756 H748 0.930 . S
C756 C755 1.362 . S
C756 C759 1.409 . S
C757 H749 0.930 . S
C757 C758 1.355 . S
C757 C759 1.415 . S
C758 C757 1.355 . S
C758 C760 1.419 . S
C759 C754 1.425 . S
C759 C756 1.409 . S
C759 C757 1.415 . S
C760 H750 0.930 . S
C760 C758 1.419 . S
C760 C761 1.362 . S
C761 H751 0.930 . S
C761 C754 1.409 . S
C761 C760 1.362 . S
H762 C768 0.930 . S
H763 C771 0.930 . S
H764 C772 0.930 . S
H765 C773 0.930 . S
H766 C776 0.930 . S
H767 C777 0.930 . S
C768 H762 0.930 . S
C768 C769 1.355 . S
C768 C770 1.415 . S
C769 C768 1.355 . S
C769 C771 1.419 . S
C770 C768 1.415 . S
C770 C775 1.425 . S
C770 C777 1.409 . S
C771 H763 0.930 . S
C771 C769 1.419 . S
C771 C772 1.362 . S
C772 H764 0.930 . S
C772 C771 1.362 . S
C772 C775 1.409 . S
C773 H765 0.930 . S
C773 C774 1.355 1_556 S
C773 C775 1.415 . S
C774 C773 1.355 1_554 S
C774 C776 1.419 . S
C775 C770 1.425 . S
C775 C772 1.409 . S
C775 C773 1.415 . S
C776 H766 0.930 . S
C776 C774 1.419 . S
C776 C777 1.362 1_554 S
C777 H767 0.930 . S
C777 C770 1.409 . S
C777 C776 1.362 1_556 S
H778 C784 0.930 . S
H779 C787 0.930 . S
H780 C788 0.930 . S
H781 C789 0.930 . S
H782 C792 0.930 . S
H783 C793 0.895 1_545 S
C784 H778 0.930 . S
C784 C785 1.355 . S
C784 C786 1.415 1_545 S
C785 C784 1.355 . S
C785 C787 1.419 1_545 S
C786 C784 1.415 1_565 S
C786 C791 1.425 . S
C786 C793 1.419 . S
C787 H779 0.930 . S
C787 C785 1.419 1_565 S
C787 C788 1.362 . S
C788 H780 0.930 . S
C788 C787 1.362 . S
C788 C791 1.409 . S
C789 H781 0.930 . S
C789 C790 1.355 . S
C789 C791 1.415 . S
C790 C789 1.355 . S
C790 C792 1.419 . S
C791 C786 1.425 . S
C791 C788 1.409 . S
C791 C789 1.415 . S
C792 H782 0.930 . S
C792 C790 1.419 . S
C792 C793 1.388 . S
C793 H783 0.895 1_565 S
C793 C786 1.419 . S
C793 C792 1.388 . S
H794 C800 0.930 . S
H795 C803 0.930 . S
H796 C804 0.930 . S
H797 C805 0.930 . S
H798 C808 0.930 . S
H799 C809 0.930 . S
C800 H794 0.930 . S
C800 C801 1.355 . S
C800 C802 1.415 . S
C801 C800 1.355 . S
C801 C803 1.419 . S
C802 C800 1.415 . S
C802 C807 1.425 . S
C802 C809 1.409 . S
C803 H795 0.930 . S
C803 C801 1.419 . S
C803 C804 1.362 . S
C804 H796 0.930 . S
C804 C803 1.362 . S
C804 C807 1.409 . S
C805 H797 0.930 . S
C805 C806 1.355 . S
C805 C807 1.415 . S
C806 C805 1.355 . S
C806 C808 1.419 . S
C807 C802 1.425 . S
C807 C804 1.409 . S
C807 C805 1.415 . S
C808 H798 0.930 . S
C808 C806 1.419 . S
C808 C809 1.362 . S
C809 H799 0.930 . S
C809 C802 1.409 . S
C809 C808 1.362 . S
H810 C816 0.930 . S
H811 C819 0.930 . S
H812 C820 0.930 . S
H813 C821 0.930 . S
H814 C824 0.930 . S
H815 C825 0.930 . S
C816 H810 0.930 . S
C816 C817 1.355 . S
C816 C818 1.415 . S
C817 C816 1.355 . S
C817 C819 1.419 . S
C818 C816 1.415 . S
C818 C823 1.425 . S
C818 C825 1.409 . S
C819 H811 0.930 . S
C819 C817 1.419 . S
C819 C820 1.362 . S
C820 H812 0.930 . S
C820 C819 1.362 . S
C820 C823 1.409 . S
C821 H813 0.930 . S
C821 C822 1.355 . S
C821 C823 1.415 . S
C822 C821 1.355 . S
C822 C824 1.419 . S
C823 C818 1.425 . S
C823 C820 1.409 . S
C823 C821 1.415 . S
C824 H814 0.930 . S
C824 C822 1.419 . S
C824 C825 1.362 . S
C825 H815 0.930 . S
C825 C818 1.409 . S
C825 C824 1.362 . S
H826 C832 0.930 . S
H827 C835 0.930 . S
H828 C836 0.930 . S
H829 C837 0.930 . S
H830 C840 0.930 . S
H831 C841 0.930 . S
C832 H826 0.930 . S
C832 C833 1.355 . S
C832 C834 1.415 . S
C833 C832 1.355 . S
C833 C835 1.419 . S
C834 C832 1.415 . S
C834 C839 1.425 . S
C834 C841 1.409 . S
C835 H827 0.930 . S
C835 C833 1.419 . S
C835 C836 1.362 . S
C836 H828 0.930 . S
C836 C835 1.362 . S
C836 C839 1.409 . S
C837 H829 0.930 . S
C837 C838 1.355 . S
C837 C839 1.415 . S
C838 C837 1.355 . S
C838 C840 1.419 . S
C839 C834 1.425 . S
C839 C836 1.409 . S
C839 C837 1.415 . S
C840 H830 0.930 . S
C840 C838 1.419 . S
C840 C841 1.362 . S
C841 H831 0.930 . S
C841 C834 1.409 . S
C841 C840 1.362 . S
H842 C848 0.930 . S
H843 C851 0.930 . S
H844 C852 0.930 . S
H845 C853 0.930 . S
H846 C856 0.930 . S
H847 C857 0.930 . S
C848 H842 0.930 . S
C848 C849 1.355 . S
C848 C850 1.415 . S
C849 C848 1.355 . S
C849 C851 1.419 . S
C850 C848 1.415 . S
C850 C855 1.425 . S
C850 C857 1.409 . S
C851 H843 0.930 . S
C851 C849 1.419 . S
C851 C852 1.362 . S
C852 H844 0.930 . S
C852 C851 1.362 . S
C852 C855 1.409 . S
C853 H845 0.930 . S
C853 C854 1.355 . S
C853 C855 1.415 . S
C854 C853 1.355 . S
C854 C856 1.419 . S
C855 C850 1.425 . S
C855 C852 1.409 . S
C855 C853 1.415 . S
C856 H846 0.930 . S
C856 C854 1.419 . S
C856 C857 1.362 . S
C857 H847 0.930 . S
C857 C850 1.409 . S
C857 C856 1.362 . S
H858 C864 0.930 . S
H859 C867 0.930 . S
H860 C868 0.930 . S
H861 C869 0.930 . S
H862 C872 0.930 . S
H863 C873 0.930 . S
C864 H858 0.930 . S
C864 C865 1.355 . S
C864 C866 1.415 . S
C865 C864 1.355 . S
C865 C867 1.419 . S
C866 C864 1.415 . S
C866 C871 1.425 . S
C866 C873 1.409 . S
C867 H859 0.930 . S
C867 C865 1.419 . S
C867 C868 1.362 . S
C868 H860 0.930 . S
C868 C867 1.362 . S
C868 C871 1.409 . S
C869 H861 0.930 . S
C869 C870 1.355 . S
C869 C871 1.415 . S
C870 C869 1.355 . S
C870 C872 1.419 . S
C871 C866 1.425 . S
C871 C868 1.409 . S
C871 C869 1.415 . S
C872 H862 0.930 . S
C872 C870 1.419 . S
C872 C873 1.362 . S
C873 H863 0.930 . S
C873 C866 1.409 . S
C873 C872 1.362 . S
H874 C880 0.930 . S
H875 C883 0.930 . S
H876 C884 0.930 . S
H877 C885 0.930 . S
H878 C888 0.930 . S
H879 C889 0.930 . S
C880 H874 0.930 . S
C880 C881 1.355 . S
C880 C882 1.415 . S
C881 C880 1.355 . S
C881 C883 1.419 . S
C882 C880 1.415 . S
C882 C887 1.425 . S
C882 C889 1.409 1_554 S
C883 H875 0.930 . S
C883 C881 1.419 . S
C883 C884 1.362 . S
C884 H876 0.930 . S
C884 C883 1.362 . S
C884 C887 1.409 . S
C885 H877 0.930 . S
C885 C886 1.355 . S
C885 C887 1.415 1_556 S
C886 C885 1.355 . S
C886 C888 1.419 . S
C887 C882 1.425 . S
C887 C884 1.409 . S
C887 C885 1.415 1_554 S
C888 H878 0.930 . S
C888 C886 1.419 . S
C888 C889 1.362 . S
C889 H879 0.930 . S
C889 C882 1.409 1_556 S
C889 C888 1.362 . S
H890 C896 0.930 . S
H891 C899 0.930 . S
H892 C900 0.930 . S
H893 C901 0.930 . S
H894 C904 0.930 . S
H895 C905 0.930 . S
C896 H890 0.930 . S
C896 C897 1.355 . S
C896 C898 1.415 . S
C897 C896 1.355 . S
C897 C899 1.419 . S
C898 C896 1.415 . S
C898 C903 1.425 . S
C898 C905 1.409 . S
C899 H891 0.930 . S
C899 C897 1.419 . S
C899 C900 1.362 . S
C900 H892 0.930 . S
C900 C899 1.362 . S
C900 C903 1.409 . S
C901 H893 0.930 . S
C901 C902 1.355 . S
C901 C903 1.415 . S
C902 C901 1.355 . S
C902 C904 1.419 . S
C903 C898 1.425 . S
C903 C900 1.409 . S
C903 C901 1.415 . S
C904 H894 0.930 . S
C904 C902 1.419 . S
C904 C905 1.362 . S
C905 H895 0.930 . S
C905 C898 1.409 . S
C905 C904 1.362 . S
C534 C514 1.298 . S
C529 C51 1.294 . S
C545 C125 1.542 . S
C550 C449 1.537 . S
C561 C217 2.422 . S
C566 C467 2.435 . S
C577 C291 1.651 . S
C582 C480 1.654 . S
C598 C488 0.749 . S
C593 C347 0.741 . S
C609 C421 1.038 . S
C614 C500 1.051 . S
C625 C143 2.327 . S
C630 C462 2.327 . S
C641 C199 1.365 . S
C646 C475 1.370 . S
C657 C273 0.753 . S
C662 C493 0.739 . S
C678 C499 1.470 . S
C673 C365 1.458 . S
C694 C519 1.865 . S
C689 C439 1.864 . S
C710 C454 2.288 . S
C705 C69 2.274 . S
C721 C63 1.435 . S
C726 C460 1.583 . S
C737 C137 1.657 . S
C742 C473 1.710 . S
C758 C487 1.436 . S
C753 C187 1.383 . S
C769 C261 1.608 . S
C774 C501 1.654 . S
C790 C513 1.411 . S
C785 C359 1.282 . S
C806 C448 1.316 . S
C801 C433 1.230 . S
C822 C512 1.783 . S
C817 C113 1.751 . S
C833 C211 1.397 . S
C838 C447 1.443 . S
C854 C461 1.676 . S
C849 C285 1.610 . S
C865 C335 1.351 . S
C870 C474 1.381 . S
C881 C409 1.536 . S
C886 C486 1.577 . S
C897 C39 1.649 . S
C902 C506 1.695 . S
