# Generated by pormake.
# Topology ptr, (4,4)-cn, num edge types: 1
# Building blocks:
#     Node 0, Type 0, BuildingBlock: QUQFOY_clean_sbu_3, # of connection points: 4
#     Node 1, Type 0, BuildingBlock: QUQFOY_clean_sbu_3, # of connection points: 4
#     Node 2, Type 0, BuildingBlock: QUQFOY_clean_sbu_3, # of connection points: 4
#     Node 3, Type 0, BuildingBlock: QUQFOY_clean_sbu_3, # of connection points: 4
#     Node 4, Type 0, BuildingBlock: QUQFOY_clean_sbu_3, # of connection points: 4
#     Node 5, Type 0, BuildingBlock: QUQFOY_clean_sbu_3, # of connection points: 4
#     Node 6, Type 0, BuildingBlock: QUQFOY_clean_sbu_3, # of connection points: 4
#     Node 7, Type 0, BuildingBlock: QUQFOY_clean_sbu_3, # of connection points: 4
#     Node 8, Type 0, BuildingBlock: QUQFOY_clean_sbu_3, # of connection points: 4
#     Node 9, Type 0, BuildingBlock: QUQFOY_clean_sbu_3, # of connection points: 4
#     Node 10, Type 0, BuildingBlock: QUQFOY_clean_sbu_3, # of connection points: 4
#     Node 11, Type 0, BuildingBlock: QUQFOY_clean_sbu_3, # of connection points: 4
#     Node 12, Type 0, BuildingBlock: QUQFOY_clean_sbu_3, # of connection points: 4
#     Node 13, Type 0, BuildingBlock: QUQFOY_clean_sbu_3, # of connection points: 4
#     Node 14, Type 0, BuildingBlock: QUQFOY_clean_sbu_3, # of connection points: 4
#     Node 15, Type 0, BuildingBlock: QUQFOY_clean_sbu_3, # of connection points: 4
#     Node 16, Type 0, BuildingBlock: QUQFOY_clean_sbu_3, # of connection points: 4
#     Node 17, Type 0, BuildingBlock: QUQFOY_clean_sbu_3, # of connection points: 4
#     Node 18, Type 1, BuildingBlock: NAHDIM_clean_linker_0, # of connection points: 4
#     Node 19, Type 1, BuildingBlock: NAHDIM_clean_linker_0, # of connection points: 4
#     Node 20, Type 1, BuildingBlock: NAHDIM_clean_linker_0, # of connection points: 4
#     Node 21, Type 1, BuildingBlock: NAHDIM_clean_linker_0, # of connection points: 4
#     Node 22, Type 1, BuildingBlock: NAHDIM_clean_linker_0, # of connection points: 4
#     Node 23, Type 1, BuildingBlock: NAHDIM_clean_linker_0, # of connection points: 4
#     Node 24, Type 1, BuildingBlock: NAHDIM_clean_linker_0, # of connection points: 4
#     Node 25, Type 1, BuildingBlock: NAHDIM_clean_linker_0, # of connection points: 4
#     Node 26, Type 1, BuildingBlock: NAHDIM_clean_linker_0, # of connection points: 4
#     Node 27, Type 1, BuildingBlock: NAHDIM_clean_linker_0, # of connection points: 4
#     Node 28, Type 1, BuildingBlock: NAHDIM_clean_linker_0, # of connection points: 4
#     Node 29, Type 1, BuildingBlock: NAHDIM_clean_linker_0, # of connection points: 4
#     Node 30, Type 1, BuildingBlock: NAHDIM_clean_linker_0, # of connection points: 4
#     Node 31, Type 1, BuildingBlock: NAHDIM_clean_linker_0, # of connection points: 4
#     Node 32, Type 1, BuildingBlock: NAHDIM_clean_linker_0, # of connection points: 4
#     Node 33, Type 1, BuildingBlock: NAHDIM_clean_linker_0, # of connection points: 4
#     Node 34, Type 1, BuildingBlock: NAHDIM_clean_linker_0, # of connection points: 4
#     Node 35, Type 1, BuildingBlock: NAHDIM_clean_linker_0, # of connection points: 4
#     Edge 36, Type (0, 1), BuildingBlock: UVAHIK_clean_linker_0, # of connection points: 2
#     Edge 37, Type (0, 1), BuildingBlock: UVAHIK_clean_linker_0, # of connection points: 2
#     Edge 38, Type (0, 1), BuildingBlock: UVAHIK_clean_linker_0, # of connection points: 2
#     Edge 39, Type (0, 1), BuildingBlock: UVAHIK_clean_linker_0, # of connection points: 2
#     Edge 40, Type (0, 1), BuildingBlock: UVAHIK_clean_linker_0, # of connection points: 2
#     Edge 41, Type (0, 1), BuildingBlock: UVAHIK_clean_linker_0, # of connection points: 2
#     Edge 42, Type (0, 1), BuildingBlock: UVAHIK_clean_linker_0, # of connection points: 2
#     Edge 43, Type (0, 1), BuildingBlock: UVAHIK_clean_linker_0, # of connection points: 2
#     Edge 44, Type (0, 1), BuildingBlock: UVAHIK_clean_linker_0, # of connection points: 2
#     Edge 45, Type (0, 1), BuildingBlock: UVAHIK_clean_linker_0, # of connection points: 2
#     Edge 46, Type (0, 1), BuildingBlock: UVAHIK_clean_linker_0, # of connection points: 2
#     Edge 47, Type (0, 1), BuildingBlock: UVAHIK_clean_linker_0, # of connection points: 2
#     Edge 48, Type (0, 1), BuildingBlock: UVAHIK_clean_linker_0, # of connection points: 2
#     Edge 49, Type (0, 1), BuildingBlock: UVAHIK_clean_linker_0, # of connection points: 2
#     Edge 50, Type (0, 1), BuildingBlock: UVAHIK_clean_linker_0, # of connection points: 2
#     Edge 51, Type (0, 1), BuildingBlock: UVAHIK_clean_linker_0, # of connection points: 2
#     Edge 52, Type (0, 1), BuildingBlock: UVAHIK_clean_linker_0, # of connection points: 2
#     Edge 53, Type (0, 1), BuildingBlock: UVAHIK_clean_linker_0, # of connection points: 2
#     Edge 54, Type (0, 1), BuildingBlock: UVAHIK_clean_linker_0, # of connection points: 2
#     Edge 55, Type (0, 1), BuildingBlock: UVAHIK_clean_linker_0, # of connection points: 2
#     Edge 56, Type (0, 1), BuildingBlock: UVAHIK_clean_linker_0, # of connection points: 2
#     Edge 57, Type (0, 1), BuildingBlock: UVAHIK_clean_linker_0, # of connection points: 2
#     Edge 58, Type (0, 1), BuildingBlock: UVAHIK_clean_linker_0, # of connection points: 2
#     Edge 59, Type (0, 1), BuildingBlock: UVAHIK_clean_linker_0, # of connection points: 2
#     Edge 60, Type (0, 1), BuildingBlock: UVAHIK_clean_linker_0, # of connection points: 2
#     Edge 61, Type (0, 1), BuildingBlock: UVAHIK_clean_linker_0, # of connection points: 2
#     Edge 62, Type (0, 1), BuildingBlock: UVAHIK_clean_linker_0, # of connection points: 2
#     Edge 63, Type (0, 1), BuildingBlock: UVAHIK_clean_linker_0, # of connection points: 2
#     Edge 64, Type (0, 1), BuildingBlock: UVAHIK_clean_linker_0, # of connection points: 2
#     Edge 65, Type (0, 1), BuildingBlock: UVAHIK_clean_linker_0, # of connection points: 2
#     Edge 66, Type (0, 1), BuildingBlock: UVAHIK_clean_linker_0, # of connection points: 2
#     Edge 67, Type (0, 1), BuildingBlock: UVAHIK_clean_linker_0, # of connection points: 2
#     Edge 68, Type (0, 1), BuildingBlock: UVAHIK_clean_linker_0, # of connection points: 2
#     Edge 69, Type (0, 1), BuildingBlock: UVAHIK_clean_linker_0, # of connection points: 2
#     Edge 70, Type (0, 1), BuildingBlock: UVAHIK_clean_linker_0, # of connection points: 2
#     Edge 71, Type (0, 1), BuildingBlock: UVAHIK_clean_linker_0, # of connection points: 2
#     Edge 72, Type (0, 1), BuildingBlock: UVAHIK_clean_linker_0, # of connection points: 2
#     Edge 73, Type (0, 1), BuildingBlock: UVAHIK_clean_linker_0, # of connection points: 2
#     Edge 74, Type (0, 1), BuildingBlock: UVAHIK_clean_linker_0, # of connection points: 2
#     Edge 75, Type (0, 1), BuildingBlock: UVAHIK_clean_linker_0, # of connection points: 2
#     Edge 76, Type (0, 1), BuildingBlock: UVAHIK_clean_linker_0, # of connection points: 2
#     Edge 77, Type (0, 1), BuildingBlock: UVAHIK_clean_linker_0, # of connection points: 2
#     Edge 78, Type (0, 1), BuildingBlock: UVAHIK_clean_linker_0, # of connection points: 2
#     Edge 79, Type (0, 1), BuildingBlock: UVAHIK_clean_linker_0, # of connection points: 2
#     Edge 80, Type (0, 1), BuildingBlock: UVAHIK_clean_linker_0, # of connection points: 2
#     Edge 81, Type (0, 1), BuildingBlock: UVAHIK_clean_linker_0, # of connection points: 2
#     Edge 82, Type (0, 1), BuildingBlock: UVAHIK_clean_linker_0, # of connection points: 2
#     Edge 83, Type (0, 1), BuildingBlock: UVAHIK_clean_linker_0, # of connection points: 2
#     Edge 84, Type (0, 1), BuildingBlock: UVAHIK_clean_linker_0, # of connection points: 2
#     Edge 85, Type (0, 1), BuildingBlock: UVAHIK_clean_linker_0, # of connection points: 2
#     Edge 86, Type (0, 1), BuildingBlock: UVAHIK_clean_linker_0, # of connection points: 2
#     Edge 87, Type (0, 1), BuildingBlock: UVAHIK_clean_linker_0, # of connection points: 2
#     Edge 88, Type (0, 1), BuildingBlock: UVAHIK_clean_linker_0, # of connection points: 2
#     Edge 89, Type (0, 1), BuildingBlock: UVAHIK_clean_linker_0, # of connection points: 2
#     Edge 90, Type (0, 1), BuildingBlock: UVAHIK_clean_linker_0, # of connection points: 2
#     Edge 91, Type (0, 1), BuildingBlock: UVAHIK_clean_linker_0, # of connection points: 2
#     Edge 92, Type (0, 1), BuildingBlock: UVAHIK_clean_linker_0, # of connection points: 2
#     Edge 93, Type (0, 1), BuildingBlock: UVAHIK_clean_linker_0, # of connection points: 2
#     Edge 94, Type (0, 1), BuildingBlock: UVAHIK_clean_linker_0, # of connection points: 2
#     Edge 95, Type (0, 1), BuildingBlock: UVAHIK_clean_linker_0, # of connection points: 2
#     Edge 96, Type (0, 1), BuildingBlock: UVAHIK_clean_linker_0, # of connection points: 2
#     Edge 97, Type (0, 1), BuildingBlock: UVAHIK_clean_linker_0, # of connection points: 2
#     Edge 98, Type (0, 1), BuildingBlock: UVAHIK_clean_linker_0, # of connection points: 2
#     Edge 99, Type (0, 1), BuildingBlock: UVAHIK_clean_linker_0, # of connection points: 2
#     Edge 100, Type (0, 1), BuildingBlock: UVAHIK_clean_linker_0, # of connection points: 2
#     Edge 101, Type (0, 1), BuildingBlock: UVAHIK_clean_linker_0, # of connection points: 2
#     Edge 102, Type (0, 1), BuildingBlock: UVAHIK_clean_linker_0, # of connection points: 2
#     Edge 103, Type (0, 1), BuildingBlock: UVAHIK_clean_linker_0, # of connection points: 2
#     Edge 104, Type (0, 1), BuildingBlock: UVAHIK_clean_linker_0, # of connection points: 2
#     Edge 105, Type (0, 1), BuildingBlock: UVAHIK_clean_linker_0, # of connection points: 2
#     Edge 106, Type (0, 1), BuildingBlock: UVAHIK_clean_linker_0, # of connection points: 2
#     Edge 107, Type (0, 1), BuildingBlock: UVAHIK_clean_linker_0, # of connection points: 2
# Relax obj value: 0.029
# Max RMSD: 0.171
# Mean RMSD: 0.059
data_MOF--net-ptr--node1-QUQFOY_clean_sbu_3--node2-NAHDIM_clean_linker_0--edge1-UVAHIK_clean_linker_0
_symmetry_space_group_name_H-M    P1
_symmetry_Int_Tables_number       1
_symmetry_cell_setting            triclinic
loop_
_symmetry_equiv_pos_as_xyz
'x, y, z'
_cell_length_a     114.61679
_cell_length_b     114.71331
_cell_length_c     97.973403
_cell_angle_alpha  90.983957
_cell_angle_beta   89.895473
_cell_angle_gamma 120.65497
loop_
_atom_site_label
_atom_site_type_symbol
_atom_site_fract_x
_atom_site_fract_y
_atom_site_fract_z
_atom_type_partial_charge
C0 C 0.97779 0.31754 0.99359 0.0
O1 O 0.97062 0.32224 -0.00182 0.0
Cd2 Cd 0.98039 0.34417 0.00911 0.0
O3 O 0.99057 0.32397 0.99557 0.0
Cd4 Cd 0.00842 0.34442 0.00767 0.0
C5 C 0.00488 0.36409 0.98536 0.0
O6 O 0.99525 0.34575 0.02683 0.0
O7 O 0.01457 0.36362 0.02278 0.0
O8 O 0.01423 0.32873 0.01719 0.0
C9 C 0.00417 0.35779 0.03026 0.0
O10 O 0.99409 0.36072 0.99203 0.0
C11 C 0.02696 0.3361 0.01581 0.0
O12 O 0.01206 0.35876 0.98785 0.0
O13 O 0.03131 0.34747 0.01014 0.0
C14 C 0.6551 0.67902 0.03229 0.0
O15 O 0.6426 0.67432 0.02975 0.0
Cd16 Cd 0.62923 0.65377 0.01663 0.0
O17 O 0.66123 0.67333 0.02722 0.0
Cd18 Cd 0.6572 0.65451 0.01157 0.0
C19 C 0.63586 0.63186 0.03421 0.0
O20 O 0.64127 0.65581 0.99607 0.0
O21 O 0.64333 0.63819 0.99372 0.0
O22 O 0.67825 0.67117 0.00133 0.0
C23 C 0.63814 0.64496 0.98951 0.0
O24 O 0.62755 0.63545 0.03042 0.0
C25 C 0.68383 0.66405 0.00131 0.0
O26 O 0.64794 0.63773 0.02968 0.0
O27 O 0.67705 0.65228 0.0063 0.0
C28 C 0.32144 0.97523 0.0174 0.0
O29 O 0.32624 0.96828 0.01242 0.0
Cd30 Cd 0.34799 0.979 0.00124 0.0
O31 O 0.32751 0.98794 0.01557 0.0
Cd32 Cd 0.34718 0.00587 0.00349 0.0
C33 C 0.36777 0.00346 0.02563 0.0
O34 O 0.34991 0.99392 0.98361 0.0
O35 O 0.36703 0.01334 0.98983 0.0
O36 O 0.33118 0.01052 0.99268 0.0
C37 C 0.36194 0.00349 0.98134 0.0
O38 O 0.36477 0.99287 0.01853 0.0
C39 C 0.33733 0.02311 0.99546 0.0
O40 O 0.36184 0.01015 0.02356 0.0
O41 O 0.34825 0.02795 0.00242 0.0
C42 C 0.97046 0.65947 -0.0018 0.0
O43 O 0.96261 0.64745 0.00216 0.0
Cd44 Cd 0.97145 0.63445 0.01224 0.0
O45 O 0.98315 0.66533 0.00057 0.0
Cd46 Cd 5e-05 0.66173 0.01228 0.0
C47 C 0.9954 0.63846 0.98827 0.0
O48 O 0.98661 0.64682 0.03069 0.0
O49 O 0.0057 0.64802 0.02629 0.0
O50 O 0.00719 0.68173 0.02607 0.0
C51 C 0.9953 0.64354 0.0338 0.0
O52 O 0.98419 0.63101 0.99429 0.0
C53 C 0.01919 0.6885 0.02161 0.0
O54 O 0.00324 0.65076 0.99208 0.0
O55 O 0.02258 0.6829 0.01235 0.0
C56 C 0.33009 0.35653 0.0186 0.0
O57 O 0.33582 0.36936 0.01886 0.0
Cd58 Cd 0.35697 0.38265 0.00709 0.0
O59 O 0.33551 0.3507 0.01235 0.0
Cd60 Cd 0.35491 0.35449 -0.00153 0.0
C61 C 0.37696 0.37293 0.02394 0.0
O62 O 0.35439 0.37178 0.98516 0.0
O63 O 0.37113 0.3687 0.98092 0.0
O64 O 0.33642 0.33454 0.98813 0.0
C65 C 0.36481 0.37479 0.97813 0.0
O66 O 0.37409 0.38201 0.02123 0.0
C67 C 0.34223 0.32768 0.98712 0.0
O68 O 0.37091 0.36145 0.01776 0.0
O69 O 0.35451 0.33341 0.99118 0.0
C70 C 0.69024 0.02927 -0.00083 0.0
O71 O 0.686 0.03695 0.00348 0.0
Cd72 Cd 0.66339 0.02764 0.01195 0.0
O73 O 0.68315 0.01652 0.00082 0.0
Cd74 Cd 0.662 -0.00059 0.01217 0.0
C75 C 0.64514 0.0035 0.98663 0.0
O76 O 0.65968 0.01285 0.03043 0.0
O77 O 0.64179 0.99361 0.02529 0.0
O78 O 0.67586 0.99378 0.02567 0.0
C79 C 0.64745 0.00404 0.03304 0.0
O80 O 0.64897 0.01487 0.99256 0.0
C81 C 0.66989 0.98128 0.02247 0.0
O82 O 0.64862 0.99537 0.99124 0.0
O83 O 0.66006 0.97693 0.01399 0.0
C84 C 0.64232 0.65413 0.32518 0.0
O85 O 0.63522 0.65953 0.32765 0.0
Cd86 Cd 0.64367 0.68064 0.33963 0.0
O87 O 0.65445 0.65957 0.3297 0.0
Cd88 Cd 0.67063 0.67918 0.34448 0.0
C89 C 0.67249 0.7012 0.32089 0.0
O90 O 0.65353 0.67826 0.35996 0.0
O91 O 0.67356 0.69572 0.36248 0.0
O92 O 0.67508 0.6625 0.35423 0.0
C93 C 0.66141 0.68906 0.36657 0.0
O94 O 0.66054 0.69777 0.3247 0.0
C95 C 0.68787 0.67006 0.35482 0.0
O96 O 0.67864 0.69561 0.32592 0.0
O97 O 0.69286 0.68198 0.35029 0.0
C98 C 0.32014 0.01175 0.36788 0.0
O99 O 0.30743 0.00684 0.3668 0.0
Cd100 Cd 0.29186 0.98534 0.35654 0.0
O101 O 0.32561 0.00521 0.36325 0.0
Cd102 Cd 0.31761 0.98328 0.35075 0.0
C103 C 0.29704 0.96385 0.37594 0.0
O104 O 0.30192 0.98517 0.33521 0.0
O105 O 0.30125 0.96606 0.3347 0.0
O106 O 0.3391 0.9948 0.33843 0.0
C107 C 0.29741 0.97363 0.32958 0.0
O108 O 0.28883 0.96748 0.37192 0.0
C109 C 0.34137 0.98509 0.33923 0.0
O110 O 0.30878 0.9689 0.37073 0.0
O111 O 0.33286 0.9748 0.34582 0.0
C112 C 0.99464 0.30989 0.35457 0.0
O113 O -0.00038 0.30234 0.35253 0.0
Cd114 Cd 0.02142 0.3097 0.34303 0.0
O115 O 0.00099 0.32223 0.35091 0.0
Cd116 Cd 0.02233 0.3376 0.33851 0.0
C117 C 0.04189 0.33693 0.36409 0.0
O118 O 0.02148 0.32065 0.32252 0.0
O119 O 0.03997 0.3401 0.32254 0.0
O120 O 0.01025 0.3461 0.32528 0.0
C121 C 0.03292 0.32837 0.31722 0.0
O122 O 0.03811 0.3249 0.36004 0.0
C123 C 0.01852 0.35852 0.328 0.0
O124 O 0.03728 0.34368 0.35841 0.0
O125 O 0.02832 0.36118 0.33599 0.0
C126 C 0.63991 0.97182 0.32567 0.0
O127 O 0.6336 0.95921 0.32802 0.0
Cd128 Cd 0.64279 0.94855 0.34134 0.0
O129 O 0.65158 0.97967 0.33098 0.0
Cd130 Cd 0.6679 0.97848 0.34695 0.0
C131 C 0.67272 0.95868 0.3243 0.0
O132 O 0.651 0.96193 0.36184 0.0
O133 O 0.67121 0.96573 0.36531 0.0
O134 O 0.67095 0.99841 0.35922 0.0
C135 C 0.65889 0.9598 0.36897 0.0
O136 O 0.66077 0.94936 0.32728 0.0
C137 C 0.68357 0.0058 0.3571 0.0
O138 O 0.67784 0.9705 0.32967 0.0
O139 O 0.68913 0.00053 0.35012 0.0
C140 C 0.99463 0.68982 0.35713 0.0
O141 O -0.00076 0.70244 0.35601 0.0
Cd142 Cd 0.02025 0.71718 0.34496 0.0
O143 O 0.00082 0.68434 0.35167 0.0
Cd144 Cd 0.02101 0.69073 0.33706 0.0
C145 C 0.04192 0.71036 0.3627 0.0
O146 O 0.01891 0.70693 0.32296 0.0
O147 O 0.03736 0.70647 0.32053 0.0
O148 O 0.00607 0.66907 0.32564 0.0
C149 C 0.02996 0.71107 0.31666 0.0
O150 O 0.0379 0.7186 0.36016 0.0
C151 C 0.0146 0.66514 0.32529 0.0
O152 O 0.03706 0.69914 0.35614 0.0
O153 O 0.02624 0.67314 0.33042 0.0
C154 C 0.34543 0.36135 0.3278 0.0
O155 O 0.3404 0.36892 0.32927 0.0
Cd156 Cd 0.31846 0.36087 0.33912 0.0
O157 O 0.33934 0.34938 0.33246 0.0
Cd158 Cd 0.31917 0.33391 0.34616 0.0
C159 C 0.29838 0.33144 0.32023 0.0
O160 O 0.31887 0.35131 0.36048 0.0
O161 O 0.30173 0.33102 0.36253 0.0
O162 O 0.33428 0.33001 0.36006 0.0
C163 C 0.30783 0.34335 0.3664 0.0
O164 O 0.30213 0.34374 0.32312 0.0
C165 C 0.32821 0.31727 0.35816 0.0
O166 O 0.3032 0.32529 0.32676 0.0
O167 O 0.31772 0.31204 0.35052 0.0
C168 C 0.30991 0.98997 0.65416 0.0
O169 O 0.30227 0.99494 0.65532 0.0
Cd170 Cd 0.30905 0.01664 0.66532 0.0
O171 O 0.32207 0.99645 0.65867 0.0
Cd172 Cd 0.33689 0.01811 0.67132 0.0
C173 C 0.33691 0.03781 0.64618 0.0
O174 O 0.31936 0.0169 0.68651 0.0
O175 O 0.33851 0.03571 0.68706 0.0
O176 O 0.34466 0.00528 0.68401 0.0
C177 C 0.32678 0.02849 0.692 0.0
O178 O 0.32493 0.03416 0.65004 0.0
C179 C 0.35718 0.01418 0.68359 0.0
O180 O 0.34342 0.03271 0.65145 0.0
O181 O 0.36038 0.02483 0.67699 0.0
C182 C 0.97933 0.33632 0.69033 0.0
O183 O 0.96709 0.32964 0.68624 0.0
Cd184 Cd 0.95769 0.30938 0.67276 0.0
O185 O 0.9878 0.33274 0.68684 0.0
Cd186 Cd 0.98829 0.31514 0.67182 0.0
C187 C 0.96647 0.29035 0.69267 0.0
O188 O 0.97338 0.31542 0.65465 0.0
O189 O 0.97734 0.29913 0.65214 0.0
O190 O 0.00986 0.33355 0.66392 0.0
C191 C 0.97185 0.30546 0.64751 0.0
O192 O 0.95745 0.29233 0.6875 0.0
C193 C 0.01619 0.32716 0.66436 0.0
O194 O 0.9789 0.29773 0.68942 0.0
O195 O 0.00966 0.31513 0.66877 0.0
C196 C 0.65909 0.64193 0.68857 0.0
O197 O 0.66486 0.63509 0.68662 0.0
Cd198 Cd 0.68606 0.64379 0.67513 0.0
O199 O 0.66415 0.65377 0.6837 0.0
Cd200 Cd 0.68349 0.66976 0.66928 0.0
C201 C 0.70551 0.67315 0.69419 0.0
O202 O 0.68374 0.65277 0.65413 0.0
O203 O 0.70062 0.67319 0.65229 0.0
O204 O 0.66699 0.6733 0.65744 0.0
C205 C 0.69449 0.661 0.64796 0.0
O206 O 0.70254 0.66118 0.69074 0.0
C207 C 0.67376 0.68615 0.65814 0.0
O208 O 0.69977 0.6788 0.68838 0.0
O209 O 0.68515 0.69154 0.66429 0.0
C210 C 0.3091 0.31849 0.65685 0.0
O211 O 0.3013 0.30573 0.65745 0.0
Cd212 Cd 0.3077 0.29127 0.66851 0.0
O213 O 0.32063 0.3243 0.66282 0.0
Cd214 Cd 0.33478 0.31896 0.67769 0.0
C215 C 0.33788 0.3 0.65252 0.0
O216 O 0.31626 0.30118 0.69058 0.0
O217 O 0.33613 0.30403 0.6944 0.0
O218 O 0.33912 0.33782 0.6926 0.0
C219 C 0.3236 0.29787 0.69722 0.0
O220 O 0.32535 0.29151 0.65436 0.0
C221 C 0.35182 0.34474 0.69069 0.0
O222 O 0.34392 0.31111 0.65935 0.0
O223 O 0.35684 0.33968 0.68262 0.0
C224 C 0.66936 0.03109 0.68415 0.0
O225 O 0.67642 0.04379 0.68237 0.0
Cd226 Cd 0.69638 0.05426 0.66881 0.0
O227 O 0.67264 0.0231 0.67845 0.0
Cd228 Cd 0.69049 0.0242 0.66293 0.0
C229 C 0.71538 0.04362 0.68591 0.0
O230 O 0.69074 0.04094 0.64821 0.0
O231 O 0.70694 0.03696 0.6446 0.0
O232 O 0.67317 0.00441 0.65052 0.0
C233 C 0.70075 0.04296 0.641 0.0
O234 O 0.71328 0.05313 0.68279 0.0
C235 C 0.67819 0.99696 0.65248 0.0
O236 O 0.70826 0.03181 0.68056 0.0
O237 O 0.68909 0.00211 0.65947 0.0
C238 C 0.00612 0.69313 0.6586 0.0
O239 O 0.00118 0.7008 0.65977 0.0
Cd240 Cd 0.98018 0.69445 0.67087 0.0
O241 O 4e-05 0.68135 0.66373 0.0
Cd242 Cd 0.97917 0.66722 0.67735 0.0
C243 C 0.95833 0.66611 0.65215 0.0
O244 O 0.98119 0.68534 0.69238 0.0
O245 O 0.96221 0.66643 0.69339 0.0
O246 O 0.99194 0.65946 0.6905 0.0
C247 C 0.96987 0.67829 0.69819 0.0
O248 O 0.96199 0.67825 0.65565 0.0
C249 C 0.98341 0.64691 0.68889 0.0
O250 O 0.96363 0.65997 0.65781 0.0
O251 O 0.97297 0.64376 0.6817 0.0
C252 C 0.20755 0.26095 0.09886 0.0
C253 C 0.20712 0.27274 0.09233 0.0
C254 C 0.19559 0.28122 0.10723 0.0
C255 C 0.19782 0.29298 0.11402 0.0
C256 C 0.18707 0.29384 0.11972 0.0
C257 C 0.17379 0.28244 0.11893 0.0
C258 C 0.17141 0.2705 0.11196 0.0
C259 C 0.18236 0.27002 0.10611 0.0
C260 C 0.18998 0.30684 0.12683 0.0
C261 C 0.15736 0.25816 0.11106 0.0
C262 C 0.09284 0.29673 0.07781 0.0
C263 C 0.09867 0.29022 0.0862 0.0
C264 C 0.11925 0.29594 0.09907 0.0
C265 C 0.11435 0.28279 0.10395 0.0
C266 C 0.12239 0.27995 0.11247 0.0
C267 C 0.13547 0.29052 0.11646 0.0
C268 C 0.14032 0.30381 0.11178 0.0
C269 C 0.13216 0.30631 0.10306 0.0
C270 C 0.11697 0.2656 0.11708 0.0
C271 C 0.15416 0.31536 0.11593 0.0
C272 C 0.10792 0.28742 0.20236 0.0
C273 C 0.10445 0.27479 0.19641 0.0
C274 C 0.11437 0.27276 0.19031 0.0
C275 C 0.12796 0.2836 0.18997 0.0
C276 C 0.13153 0.29623 0.19614 0.0
C277 C 0.12144 0.29793 0.20232 0.0
C278 C 0.11029 0.2591 0.18398 0.0
C279 C 0.14593 0.308 0.19592 0.0
C280 C 0.20713 0.25765 0.20141 0.0
C281 C 0.20456 0.26846 0.20765 0.0
C282 C 0.18246 0.26649 0.20496 0.0
C283 C 0.16914 0.25647 0.20173 0.0
C284 C 0.16035 0.25969 0.19505 0.0
C285 C 0.16497 0.27334 0.19181 0.0
C286 C 0.17816 0.28364 0.19586 0.0
C287 C 0.18678 0.2801 0.20239 0.0
C288 C 0.14629 0.24848 0.19105 0.0
C289 C 0.18325 0.29834 0.19296 0.0
C290 C 0.16263 0.28284 0.12615 0.0
C291 C 0.15421 0.28592 0.11869 0.0
C292 C 0.14423 0.28756 0.12514 0.0
C293 C 0.14272 0.28629 0.13947 0.0
C294 C 0.13319 0.28843 0.14638 0.0
C295 C 0.13175 0.28706 0.16047 0.0
C296 C 0.13977 0.28349 0.1682 0.0
C297 C 0.13829 0.28194 0.1825 0.0
C298 C 0.1466 0.27865 0.18992 0.0
C299 C 0.15636 0.27672 0.18339 0.0
C300 C 0.15784 0.27801 0.16906 0.0
C301 C 0.16739 0.27591 0.16214 0.0
C302 C 0.16891 0.27739 0.14809 0.0
C303 C 0.16092 0.28099 0.14039 0.0
C304 C 0.15103 0.28288 0.14709 0.0
C305 C 0.14954 0.28145 0.16146 0.0
C306 C 0.07849 0.28176 0.19455 0.0
C307 C 0.08468 0.28166 0.20837 0.0
O308 O 0.2066 0.28108 0.1024 0.0
O309 O 0.19086 0.26268 0.21044 0.0
O310 O 0.09866 0.29002 0.20811 0.0
O311 O 0.11192 0.29901 0.09048 0.0
H312 H 0.19807 0.26868 0.0855 0.0
H313 H 0.19834 0.25492 0.10509 0.0
H314 H 0.21661 0.26478 0.1056 0.0
H315 H 0.20789 0.25417 0.09084 0.0
H316 H 0.20809 0.30154 0.11483 0.0
H317 H 0.18057 0.26079 0.10104 0.0
H318 H 0.18272 0.30988 0.12333 0.0
H319 H 0.20047 0.31527 0.12497 0.0
H320 H 0.18865 0.30522 0.138 0.0
H321 H 0.15721 0.24955 0.10552 0.0
H322 H 0.15046 0.26074 0.10572 0.0
H323 H 0.15332 0.25489 0.12149 0.0
H324 H 0.0971 0.28046 0.08184 0.0
H325 H 0.09089 0.29162 0.06746 0.0
H326 H 0.10163 0.30665 0.07432 0.0
H327 H 0.07727 0.29553 0.08997 0.0
H328 H 0.10433 0.27464 0.10106 0.0
H329 H 0.13585 0.31643 0.0993 0.0
H330 H 0.11555 0.26515 0.12831 0.0
H331 H 0.12437 0.26234 0.11474 0.0
H332 H 0.10711 0.25833 0.11214 0.0
H333 H 0.15585 0.32533 0.11264 0.0
H334 H 0.16208 0.31375 0.11127 0.0
H335 H 0.15544 0.31565 0.12719 0.0
H336 H 0.08199 0.27112 0.21072 0.0
H337 H 0.09405 0.2665 0.19635 0.0
H338 H 0.12402 0.3076 0.20697 0.0
H339 H 0.11138 0.26002 0.17273 0.0
H340 H 0.09963 0.25133 0.18632 0.0
H341 H 0.11709 0.25556 0.18769 0.0
H342 H 0.14699 0.31725 0.20098 0.0
H343 H 0.1494 0.31039 0.1852 0.0
H344 H 0.15271 0.30521 0.20116 0.0
H345 H 0.20778 0.27636 0.19973 0.0
H346 H 0.21814 0.26197 0.19953 0.0
H347 H 0.20165 0.254 0.19149 0.0
H348 H 0.20346 0.24882 0.2082 0.0
H349 H 0.16583 0.24602 0.204 0.0
H350 H 0.1969 0.28797 0.20544 0.0
H351 H 0.14501 0.24826 0.17979 0.0
H352 H 0.13863 0.25047 0.19573 0.0
H353 H 0.14424 0.23838 0.19429 0.0
H354 H 0.19317 0.30523 0.19801 0.0
H355 H 0.17575 0.30112 0.19646 0.0
H356 H 0.18445 0.29992 0.18178 0.0
H357 H 0.15553 0.2872 0.10774 0.0
H358 H 0.12676 0.2912 0.14098 0.0
H359 H 0.12426 0.28885 0.16522 0.0
H360 H 0.14544 0.27755 0.2009 0.0
H361 H 0.17384 0.27313 0.1675 0.0
H362 H 0.17645 0.27566 0.14334 0.0
H363 H 0.06727 0.27519 0.19482 0.0
H364 H 0.08233 0.27784 0.18635 0.0
H365 H 0.08115 0.29223 0.19199 0.0
C366 C 0.74547 0.9192 0.07083 0.0
C367 C 0.73285 0.91287 0.0798 0.0
C368 C 0.73325 0.90692 0.10329 0.0
C369 C 0.71967 0.89698 0.10532 0.0
C370 C 0.71617 0.88686 0.11499 0.0
C371 C 0.72655 0.88651 0.12249 0.0
C372 C 0.74027 0.8968 0.12065 0.0
C373 C 0.74338 0.9071 0.1113 0.0
C374 C 0.70143 0.87631 0.11687 0.0
C375 C 0.75174 0.89663 0.12804 0.0
C376 C 0.71028 0.78821 0.08783 0.0
C377 C 0.71628 0.80249 0.09269 0.0
C378 C 0.71013 0.81606 0.10724 0.0
C379 C 0.7235 0.82682 0.10932 0.0
C380 C 0.72614 0.83824 0.1172 0.0
C381 C 0.71521 0.83902 0.12291 0.0
C382 C 0.70174 0.8283 0.12067 0.0
C383 C 0.6994 0.81688 0.11295 0.0
C384 C 0.74064 0.8495 0.11943 0.0
C385 C 0.68984 0.82892 0.12639 0.0
C386 C 0.7189 0.81957 0.2103 0.0
C387 C 0.73122 0.82857 0.20395 0.0
C388 C 0.73286 0.84002 0.19722 0.0
C389 C 0.72191 0.8424 0.19663 0.0
C390 C 0.70958 0.83349 0.20318 0.0
C391 C 0.7083 0.82225 0.21001 0.0
C392 C 0.74623 0.84946 0.19054 0.0
C393 C 0.69769 0.8357 0.20273 0.0
C394 C 0.74775 0.94943 0.20467 0.0
C395 C 0.73783 0.93552 0.21049 0.0
C396 C 0.74017 0.91559 0.20796 0.0
C397 C 0.74989 0.91217 0.20451 0.0
C398 C 0.74608 0.89945 0.19866 0.0
C399 C 0.73216 0.88989 0.19646 0.0
C400 C 0.72223 0.89295 0.20082 0.0
C401 C 0.72634 0.90579 0.20653 0.0
C402 C 0.75692 0.89642 0.19435 0.0
C403 C 0.70731 0.8828 0.19901 0.0
C404 C 0.72323 0.87458 0.13094 0.0
C405 C 0.72015 0.86258 0.12402 0.0
C406 C 0.71789 0.85115 0.13106 0.0
C407 C 0.71879 0.8516 0.14546 0.0
C408 C 0.71686 0.84035 0.15283 0.0
C409 C 0.71807 0.841 0.16698 0.0
C410 C 0.7214 0.85297 0.1743 0.0
C411 C 0.72315 0.85388 0.18865 0.0
C412 C 0.72645 0.86593 0.19562 0.0
C413 C 0.72809 0.87719 0.18861 0.0
C414 C 0.72639 0.87647 0.17426 0.0
C415 C 0.72797 0.88761 0.16688 0.0
C416 C 0.72665 0.88693 0.15272 0.0
C417 C 0.7239 0.87516 0.14538 0.0
C418 C 0.72186 0.86368 0.15264 0.0
C419 C 0.72314 0.86435 0.16708 0.0
C420 C 0.72375 0.7954 0.20309 0.0
C421 C 0.72484 0.8025 0.21683 0.0
O422 O 0.73683 0.91618 0.09335 0.0
O423 O 0.74451 0.92845 0.21244 0.0
O424 O 0.71669 0.80821 0.21673 0.0
O425 O 0.70715 0.80472 0.09987 0.0
H426 H 0.72767 0.90167 0.07809 0.0
H427 H 0.75218 0.91527 0.07372 0.0
H428 H 0.75123 0.93042 0.07215 0.0
H429 H 0.74257 0.91657 0.05991 0.0
H430 H 0.71184 0.89709 0.09923 0.0
H431 H 0.75384 0.91492 0.10965 0.0
H432 H 0.69923 0.86674 0.11161 0.0
H433 H 0.69459 0.87954 0.11254 0.0
H434 H 0.69911 0.87414 0.12786 0.0
H435 H 0.7618 0.90402 0.12381 0.0
H436 H 0.75047 0.88637 0.12744 0.0
H437 H 0.75168 0.89925 0.13898 0.0
H438 H 0.72198 0.81034 0.08489 0.0
H439 H 0.72129 0.78125 0.09849 0.0
H440 H 0.71033 0.78875 0.07636 0.0
H441 H 0.69892 0.78334 0.08865 0.0
H442 H 0.73191 0.82634 0.10491 0.0
H443 H 0.68913 0.80854 0.11126 0.0
H444 H 0.74272 0.85183 0.13052 0.0
H445 H 0.74225 0.85883 0.11447 0.0
H446 H 0.74805 0.8469 0.1152 0.0
H447 H 0.67996 0.82015 0.12298 0.0
H448 H 0.69034 0.83842 0.12321 0.0
H449 H 0.69029 0.8291 0.13771 0.0
H450 H 0.73556 0.81051 0.21882 0.0
H451 H 0.73958 0.82674 0.20413 0.0
H452 H 0.69886 0.8153 0.21499 0.0
H453 H 0.74489 0.84859 0.17928 0.0
H454 H 0.75422 0.84713 0.19328 0.0
H455 H 0.74975 0.86013 0.19357 0.0
H456 H 0.68864 0.82757 0.20794 0.0
H457 H 0.69495 0.83611 0.19196 0.0
H458 H 0.70055 0.84558 0.20771 0.0
H459 H 0.72969 0.93036 0.20261 0.0
H460 H 0.74272 0.95546 0.20351 0.0
H461 H 0.7512 0.94813 0.19446 0.0
H462 H 0.75683 0.95514 0.21136 0.0
H463 H 0.76053 0.91971 0.20591 0.0
H464 H 0.71874 0.90816 0.20975 0.0
H465 H 0.75637 0.89467 0.18313 0.0
H466 H 0.75516 0.887 0.19924 0.0
H467 H 0.76727 0.9048 0.19711 0.0
H468 H 0.70085 0.88623 0.20403 0.0
H469 H 0.70487 0.87291 0.20329 0.0
H470 H 0.70475 0.88113 0.18796 0.0
H471 H 0.71978 0.86221 0.11294 0.0
H472 H 0.71446 0.83093 0.14773 0.0
H473 H 0.71648 0.83201 0.17208 0.0
H474 H 0.7279 0.86662 0.20661 0.0
H475 H 0.73031 0.89702 0.17195 0.0
H476 H 0.72797 0.8958 0.14758 0.0
H477 H 0.71307 0.78739 0.20094 0.0
H478 H 0.73017 0.7907 0.2032 0.0
H479 H 0.7273 0.80279 0.1947 0.0
C480 C 0.18451 0.91147 0.0785 0.0
C481 C 0.19493 0.91562 0.09012 0.0
C482 C 0.18163 0.89762 0.10659 0.0
C483 C 0.17282 0.90222 0.11053 0.0
C484 C 0.16169 0.89439 0.11896 0.0
C485 C 0.15938 0.88179 0.12363 0.0
C486 C 0.16847 0.87735 0.12007 0.0
C487 C 0.1795 0.88537 0.11161 0.0
C488 C 0.15222 0.89944 0.12267 0.0
C489 C 0.16636 0.86403 0.125 0.0
C490 C 0.06263 0.81919 0.08705 0.0
C491 C 0.07499 0.81741 0.08648 0.0
C492 C 0.08948 0.82583 0.10687 0.0
C493 C 0.09635 0.82172 0.11546 0.0
C494 C 0.10758 0.83118 0.12321 0.0
C495 C 0.11152 0.84506 0.12293 0.0
C496 C 0.10437 0.84925 0.11447 0.0
C497 C 0.09353 0.8396 0.10636 0.0
C498 C 0.11525 0.82629 0.13159 0.0
C499 C 0.10811 0.86391 0.11402 0.0
C500 C 0.08465 0.83153 0.20964 0.0
C501 C 0.09309 0.8267 0.20516 0.0
C502 C 0.10549 0.83538 0.19882 0.0
C503 C 0.10941 0.8491 0.19679 0.0
C504 C 0.10116 0.85409 0.20181 0.0
C505 C 0.08895 0.84524 0.20834 0.0
C506 C 0.1143 0.82985 0.1941 0.0
C507 C 0.10507 0.86867 0.19996 0.0
C508 C 0.20719 0.93314 0.20543 0.0
C509 C 0.2002 0.92683 0.21891 0.0
C510 C 0.18177 0.90417 0.21148 0.0
C511 C 0.17805 0.89055 0.21034 0.0
C512 C 0.16618 0.88109 0.20337 0.0
C513 C 0.15774 0.88537 0.19758 0.0
C514 C 0.16118 0.89906 0.19908 0.0
C515 C 0.17323 0.90836 0.2059 0.0
C516 C 0.16282 0.86658 0.20194 0.0
C517 C 0.15224 0.9039 0.19324 0.0
C518 C 0.14707 0.87296 0.13166 0.0
C519 C 0.13541 0.86359 0.12448 0.0
C520 C 0.12328 0.85519 0.13124 0.0
C521 C 0.12269 0.8562 0.1456 0.0
C522 C 0.11053 0.84832 0.15271 0.0
C523 C 0.11019 0.84897 0.16688 0.0
C524 C 0.12199 0.85761 0.17451 0.0
C525 C 0.12184 0.85807 0.18895 0.0
C526 C 0.13363 0.86714 0.19617 0.0
C527 C 0.14567 0.87573 0.18935 0.0
C528 C 0.14612 0.87514 0.17495 0.0
C529 C 0.15817 0.88341 0.16779 0.0
C530 C 0.1585 0.88278 0.15361 0.0
C531 C 0.14682 0.87379 0.14605 0.0
C532 C 0.13458 0.86536 0.15304 0.0
C533 C 0.13422 0.86605 0.16751 0.0
C534 C 0.04949 0.80751 0.20931 0.0
C535 C 0.06363 0.80974 0.21194 0.0
O536 O 0.19213 0.90449 0.09787 0.0
O537 O 0.19369 0.91282 0.21792 0.0
O538 O 0.07235 0.82329 0.21529 0.0
O539 O 0.07878 0.81618 0.09955 0.0
H540 H 0.1947 0.92347 0.09675 0.0
H541 H 0.17417 0.90758 0.08259 0.0
H542 H 0.18439 0.90341 0.07194 0.0
H543 H 0.18702 0.92036 0.07211 0.0
H544 H 0.17444 0.9118 0.10697 0.0
H545 H 0.1864 0.88196 0.10863 0.0
H546 H 0.14188 0.8922 0.1187 0.0
H547 H 0.15558 0.90961 0.1185 0.0
H548 H 0.15153 0.89997 0.13395 0.0
H549 H 0.17466 0.86229 0.1218 0.0
H550 H 0.15661 0.8556 0.12091 0.0
H551 H 0.16572 0.86376 0.13631 0.0
H552 H 0.08344 0.8264 0.08144 0.0
H553 H 0.05941 0.8199 0.07656 0.0
H554 H 0.06516 0.82863 0.09277 0.0
H555 H 0.05402 0.81053 0.09224 0.0
H556 H 0.09308 0.81104 0.11578 0.0
H557 H 0.0881 0.8428 0.09985 0.0
H558 H 0.11253 0.82603 0.1425 0.0
H559 H 0.12636 0.83325 0.13071 0.0
H560 H 0.11277 0.81593 0.1284 0.0
H561 H 0.10025 0.86515 0.10874 0.0
H562 H 0.11781 0.86981 0.10848 0.0
H563 H 0.10962 0.86828 0.12452 0.0
H564 H 0.06682 0.80696 0.20226 0.0
H565 H 0.09004 0.81619 0.20665 0.0
H566 H 0.08245 0.84889 0.21206 0.0
H567 H 0.1142 0.82929 0.18278 0.0
H568 H 0.11076 0.81956 0.19805 0.0
H569 H 0.12496 0.83673 0.19746 0.0
H570 H 0.09718 0.87077 0.20378 0.0
H571 H 0.10683 0.87124 0.18898 0.0
H572 H 0.11471 0.87542 0.20553 0.0
H573 H 0.19273 0.92999 0.22141 0.0
H574 H 0.21255 0.94438 0.20627 0.0
H575 H 0.19961 0.92984 0.19704 0.0
H576 H 0.21464 0.93001 0.20273 0.0
H577 H 0.18466 0.8874 0.21472 0.0
H578 H 0.17588 0.91884 0.20671 0.0
H579 H 0.1618 0.8636 0.19097 0.0
H580 H 0.15293 0.85979 0.20684 0.0
H581 H 0.17067 0.86495 0.20668 0.0
H582 H 0.15547 0.91442 0.19662 0.0
H583 H 0.14155 0.89709 0.19631 0.0
H584 H 0.15259 0.9036 0.18192 0.0
H585 H 0.13579 0.8628 0.11345 0.0
H586 H 0.10114 0.84149 0.14739 0.0
H587 H 0.10056 0.84259 0.17178 0.0
H588 H 0.13342 0.86755 0.20724 0.0
H589 H 0.16751 0.89045 0.17307 0.0
H590 H 0.16805 0.88937 0.14866 0.0
H591 H 0.04565 0.81017 0.21857 0.0
H592 H 0.0423 0.79676 0.20638 0.0
H593 H 0.04989 0.814 0.20082 0.0
C594 C 0.27627 0.10053 0.93983 0.0
C595 C 0.28126 0.09462 0.92863 0.0
C596 C 0.28704 0.1114 0.91062 0.0
C597 C 0.27363 0.10737 0.90691 0.0
C598 C 0.27091 0.11503 0.89782 0.0
C599 C 0.28179 0.12692 0.89228 0.0
C600 C 0.2953 0.13075 0.8956 0.0
C601 C 0.29774 0.12289 0.90469 0.0
C602 C 0.25638 0.11059 0.89436 0.0
C603 C 0.30713 0.14332 0.88977 0.0
C604 C 0.25025 0.19444 0.91753 0.0
C605 C 0.26406 0.1964 0.92156 0.0
C606 C 0.27168 0.18595 0.90432 0.0
C607 C 0.28289 0.18895 0.89629 0.0
C608 C 0.28413 0.17865 0.88984 0.0
C609 C 0.27347 0.16502 0.8909 0.0
C610 C 0.26204 0.16189 0.89904 0.0
C611 C 0.26136 0.17239 0.90585 0.0
C612 C 0.29679 0.18243 0.88179 0.0
C613 C 0.25046 0.14749 0.90035 0.0
C614 C 0.26155 0.17731 0.80511 0.0
C615 C 0.27493 0.181 0.80839 0.0
C616 C 0.27777 0.17175 0.81454 0.0
C617 C 0.267 0.15855 0.81741 0.0
C618 C 0.25362 0.15456 0.81332 0.0
C619 C 0.25109 0.16399 0.8071 0.0
C620 C 0.29222 0.1762 0.81835 0.0
C621 C 0.24194 0.14049 0.81602 0.0
C622 C 0.27999 0.07472 0.81371 0.0
C623 C 0.27846 0.07973 0.7998 0.0
C624 C 0.28253 0.10253 0.80555 0.0
C625 C 0.29269 0.11616 0.80656 0.0
C626 C 0.29029 0.12574 0.813 0.0
C627 C 0.27728 0.12157 0.81828 0.0
C628 C 0.26677 0.10788 0.81682 0.0
C629 C 0.26954 0.09845 0.81063 0.0
C630 C 0.30174 0.14025 0.81446 0.0
C631 C 0.25269 0.10319 0.82204 0.0
C632 C 0.27897 0.13578 0.88375 0.0
C633 C 0.27735 0.14571 0.89046 0.0
C634 C 0.2742 0.15415 0.88324 0.0
C635 C 0.27244 0.1526 0.86891 0.0
C636 C 0.26871 0.16055 0.86138 0.0
C637 C 0.26768 0.15943 0.84723 0.0
C638 C 0.2702 0.15023 0.84005 0.0
C639 C 0.2696 0.14934 0.82562 0.0
C640 C 0.27188 0.13989 0.81881 0.0
C641 C 0.27487 0.13132 0.82606 0.0
C642 C 0.27574 0.13221 0.84048 0.0
C643 C 0.27893 0.12387 0.84807 0.0
C644 C 0.27984 0.1249 0.86225 0.0
C645 C 0.27778 0.13443 0.86937 0.0
C646 C 0.27451 0.14289 0.86193 0.0
C647 C 0.27343 0.14174 0.84748 0.0
C648 C 0.25391 0.20264 0.8103 0.0
C649 C 0.26453 0.19991 0.80397 0.0
O650 O 0.29015 0.10474 0.91999 0.0
O651 O 0.28581 0.09377 0.79967 0.0
O652 O 0.25837 0.18634 0.80014 0.0
O653 O 0.27109 0.19649 0.91003 0.0
H654 H 0.27241 0.08676 0.92264 0.0
H655 H 0.27048 0.10488 0.93534 0.0
H656 H 0.28498 0.10867 0.94572 0.0
H657 H 0.26946 0.09246 0.94693 0.0
H658 H 0.26519 0.0984 0.91118 0.0
H659 H 0.30805 0.12587 0.90749 0.0
H660 H 0.25404 0.11834 0.89816 0.0
H661 H 0.24906 0.1007 0.8989 0.0
H662 H 0.25492 0.10975 0.88311 0.0
H663 H 0.31705 0.1447 0.89302 0.0
H664 H 0.30666 0.15237 0.89309 0.0
H665 H 0.30654 0.14276 0.87844 0.0
H666 H 0.26243 0.18802 0.92836 0.0
H667 H 0.24473 0.19466 0.92678 0.0
H668 H 0.24394 0.18453 0.91221 0.0
H669 H 0.25149 0.20254 0.91057 0.0
H670 H 0.29081 0.19945 0.89523 0.0
H671 H 0.25261 0.16996 0.91204 0.0
H672 H 0.29457 0.18216 0.87074 0.0
H673 H 0.30026 0.17513 0.88355 0.0
H674 H 0.30519 0.19279 0.88452 0.0
H675 H 0.2416 0.14694 0.90562 0.0
H676 H 0.25391 0.14162 0.90626 0.0
H677 H 0.24715 0.14256 0.89011 0.0
H678 H 0.27227 0.2025 0.81213 0.0
H679 H 0.28316 0.19113 0.80625 0.0
H680 H 0.24083 0.16117 0.80426 0.0
H681 H 0.29329 0.17674 0.82964 0.0
H682 H 0.29957 0.18629 0.81422 0.0
H683 H 0.29484 0.16867 0.8145 0.0
H684 H 0.23217 0.13886 0.81193 0.0
H685 H 0.24094 0.13876 0.82719 0.0
H686 H 0.24399 0.13284 0.81131 0.0
H687 H 0.26756 0.07595 0.79773 0.0
H688 H 0.27427 0.06346 0.8138 0.0
H689 H 0.27589 0.07842 0.82188 0.0
H690 H 0.29084 0.07849 0.816 0.0
H691 H 0.30265 0.11922 0.80256 0.0
H692 H 0.2615 0.08797 0.8099 0.0
H693 H 0.30342 0.14334 0.82542 0.0
H694 H 0.29898 0.14702 0.8092 0.0
H695 H 0.31137 0.14179 0.81012 0.0
H696 H 0.24528 0.09261 0.81876 0.0
H697 H 0.24911 0.10995 0.81835 0.0
H698 H 0.25291 0.10376 0.83336 0.0
H699 H 0.27863 0.14692 0.90147 0.0
H700 H 0.26665 0.1678 0.86634 0.0
H701 H 0.26492 0.16593 0.842 0.0
H702 H 0.27141 0.13925 0.80775 0.0
H703 H 0.28079 0.11647 0.84314 0.0
H704 H 0.28233 0.11824 0.86755 0.0
H705 H 0.25857 0.21355 0.81314 0.0
H706 H 0.24981 0.19661 0.81969 0.0
H707 H 0.24533 0.19974 0.80311 0.0
C708 C 0.82702 0.07741 0.94244 0.0
C709 C 0.82052 0.08414 0.93463 0.0
C710 C 0.82654 0.09151 0.91142 0.0
C711 C 0.82311 0.10158 0.91057 0.0
C712 C 0.82984 0.1123 0.90147 0.0
C713 C 0.84046 0.11311 0.89334 0.0
C714 C 0.84377 0.10278 0.89407 0.0
C715 C 0.83648 0.09191 0.90288 0.0
C716 C 0.8258 0.1229 0.90081 0.0
C717 C 0.85529 0.10341 0.88597 0.0
C718 C 0.92391 0.21268 0.92686 0.0
C719 C 0.91763 0.20036 0.91791 0.0
C720 C 0.89581 0.18491 0.90686 0.0
C721 C 0.89915 0.17511 0.903 0.0
C722 C 0.88976 0.16324 0.89593 0.0
C723 C 0.8768 0.16114 0.89267 0.0
C724 C 0.87334 0.17087 0.89671 0.0
C725 C 0.88293 0.18267 0.90374 0.0
C726 C 0.89373 0.153 0.89179 0.0
C727 C 0.85956 0.16886 0.89348 0.0
C728 C 0.89629 0.18139 0.80428 0.0
C729 C 0.89947 0.17192 0.80928 0.0
C730 C 0.88984 0.16058 0.81647 0.0
C731 C 0.87682 0.15874 0.81881 0.0
C732 C 0.8736 0.16826 0.81379 0.0
C733 C 0.8834 0.17946 0.80658 0.0
C734 C 0.89361 0.15062 0.8217 0.0
C735 C 0.85985 0.16665 0.8162 0.0
C736 C 0.79379 0.05181 0.81014 0.0
C737 C 0.7984 0.06565 0.80394 0.0
C738 C 0.82111 0.08543 0.80742 0.0
C739 C 0.83426 0.08875 0.81094 0.0
C740 C 0.84342 0.10138 0.81693 0.0
C741 C 0.83931 0.11096 0.81928 0.0
C742 C 0.8263 0.108 0.81496 0.0
C743 C 0.81733 0.09527 0.809 0.0
C744 C 0.85732 0.10432 0.82118 0.0
C745 C 0.82176 0.11815 0.81699 0.0
C746 C 0.84883 0.12528 0.88497 0.0
C747 C 0.85818 0.13724 0.89184 0.0
C748 C 0.867 0.1489 0.88471 0.0
C749 C 0.86671 0.14868 0.87029 0.0
C750 C 0.87568 0.16016 0.86281 0.0
C751 C 0.87563 0.15972 0.84862 0.0
C752 C 0.86658 0.14779 0.84135 0.0
C753 C 0.86676 0.14711 0.82692 0.0
C754 C 0.85762 0.13509 0.82 0.0
C755 C 0.84827 0.12364 0.82713 0.0
C756 C 0.84792 0.12413 0.84156 0.0
C757 C 0.83859 0.11281 0.84905 0.0
C758 C 0.83867 0.11324 0.86326 0.0
C759 C 0.84816 0.12495 0.87053 0.0
C760 C 0.85731 0.13664 0.86317 0.0
C761 C 0.85721 0.13621 0.84868 0.0
C762 C 0.92408 0.20622 0.78261 0.0
C763 C 0.91823 0.19569 0.79329 0.0
O764 O 0.82072 0.08161 0.92077 0.0
O765 O 0.81239 0.07267 0.80264 0.0
O766 O 0.90528 0.19244 0.79717 0.0
O767 O 0.90466 0.19662 0.91355 0.0
H768 H 0.82687 0.09523 0.93694 0.0
H769 H 0.83774 0.0818 0.93926 0.0
H770 H 0.82158 0.06632 0.9403 0.0
H771 H 0.82687 0.07922 0.9536 0.0
H772 H 0.81522 0.10106 0.91711 0.0
H773 H 0.83897 0.08401 0.90364 0.0
H774 H 0.83355 0.13226 0.90622 0.0
H775 H 0.81583 0.11948 0.90567 0.0
H776 H 0.82531 0.12552 0.89004 0.0
H777 H 0.85809 0.09602 0.88957 0.0
H778 H 0.86441 0.11373 0.88664 0.0
H779 H 0.85227 0.10108 0.87507 0.0
H780 H 0.9242 0.20036 0.90949 0.0
H781 H 0.9259 0.20553 0.94575 0.0
H782 H 0.91781 0.21778 0.92546 0.0
H783 H 0.9329 0.22047 0.92098 0.0
H784 H 0.90907 0.17668 0.9054 0.0
H785 H 0.88043 0.19025 0.90682 0.0
H786 H 0.88642 0.14297 0.89606 0.0
H787 H 0.90411 0.15599 0.89534 0.0
H788 H 0.89328 0.15181 0.8805 0.0
H789 H 0.85834 0.17726 0.89759 0.0
H790 H 0.85154 0.15918 0.89783 0.0
H791 H 0.85798 0.16812 0.88225 0.0
H792 H 0.92505 0.19736 0.80214 0.0
H793 H 0.90945 0.17332 0.80764 0.0
H794 H 0.88104 0.18682 0.80269 0.0
H795 H 0.8932 0.15051 0.83302 0.0
H796 H 0.90393 0.15314 0.81851 0.0
H797 H 0.88617 0.14025 0.81791 0.0
H798 H 0.85892 0.17494 0.81163 0.0
H799 H 0.85799 0.16651 0.82734 0.0
H800 H 0.85183 0.15681 0.81178 0.0
H801 H 0.79514 0.07088 0.81136 0.0
H802 H 0.78255 0.04576 0.8107 0.0
H803 H 0.79797 0.05324 0.82067 0.0
H804 H 0.79745 0.04605 0.80408 0.0
H805 H 0.83717 0.08119 0.80942 0.0
H806 H 0.80738 0.09303 0.8057 0.0
H807 H 0.85841 0.10562 0.83245 0.0
H808 H 0.86521 0.11395 0.81664 0.0
H809 H 0.85922 0.09609 0.81801 0.0
H810 H 0.8116 0.1146 0.81243 0.0
H811 H 0.82921 0.12793 0.81236 0.0
H812 H 0.82138 0.12008 0.82808 0.0
H813 H 0.85874 0.13744 0.9029 0.0
H814 H 0.88294 0.1696 0.86784 0.0
H815 H 0.88285 0.16884 0.84343 0.0
H816 H 0.85793 0.13458 0.80895 0.0
H817 H 0.83117 0.10345 0.84402 0.0
H818 H 0.83128 0.10423 0.86849 0.0
H819 H 0.93313 0.21513 0.78766 0.0
H820 H 0.91781 0.21124 0.78248 0.0
H821 H 0.9258 0.19589 0.76558 0.0
C822 C 0.82304 0.72573 0.94308 0.0
C823 C 0.81186 0.72096 0.93215 0.0
C824 C 0.82246 0.71513 0.91345 0.0
C825 C 0.83202 0.72851 0.90988 0.0
C826 C 0.84255 0.73119 0.90081 0.0
C827 C 0.84355 0.7203 0.89518 0.0
C828 C 0.83364 0.70681 0.89828 0.0
C829 C 0.82316 0.70441 0.90732 0.0
C830 C 0.85286 0.74569 0.89754 0.0
C831 C 0.8344 0.69498 0.8924 0.0
C832 C 0.92384 0.74945 0.94887 0.0
C833 C 0.91779 0.73724 0.93901 0.0
C834 C 0.91172 0.7383 0.91564 0.0
C835 C 0.90178 0.72474 0.91306 0.0
C836 C 0.89153 0.72134 0.90331 0.0
C837 C 0.89108 0.73179 0.89626 0.0
C838 C 0.90138 0.74548 0.8986 0.0
C839 C 0.91178 0.74851 0.90805 0.0
C840 C 0.88096 0.70663 0.90088 0.0
C841 C 0.90111 0.75698 0.89162 0.0
C842 C 0.91928 0.74369 0.81107 0.0
C843 C 0.91007 0.72997 0.81362 0.0
C844 C 0.89726 0.7259 0.81914 0.0
C845 C 0.89373 0.73579 0.82233 0.0
C846 C 0.90275 0.74952 0.81912 0.0
C847 C 0.91536 0.75325 0.81335 0.0
C848 C 0.88767 0.71111 0.82193 0.0
C849 C 0.89925 0.76032 0.82219 0.0
C850 C 0.80248 0.73289 0.81281 0.0
C851 C 0.80823 0.73121 0.79924 0.0
C852 C 0.82396 0.72394 0.80713 0.0
C853 C 0.8255 0.71269 0.80852 0.0
C854 C 0.83662 0.71368 0.81558 0.0
C855 C 0.84648 0.72629 0.82136 0.0
C856 C 0.8452 0.73782 0.81972 0.0
C857 C 0.83396 0.73655 0.81262 0.0
C858 C 0.8377 0.7012 0.81711 0.0
C859 C 0.85561 0.75146 0.82567 0.0
C860 C 0.85563 0.7231 0.8871 0.0
C861 C 0.86716 0.7255 0.89433 0.0
C862 C 0.87911 0.72852 0.88762 0.0
C863 C 0.87958 0.72899 0.87321 0.0
C864 C 0.89132 0.73169 0.86609 0.0
C865 C 0.89186 0.73268 0.85195 0.0
C866 C 0.88059 0.73079 0.84435 0.0
C867 C 0.88112 0.732 0.82997 0.0
C868 C 0.8698 0.73026 0.82276 0.0
C869 C 0.85789 0.72735 0.82953 0.0
C870 C 0.85711 0.72596 0.84388 0.0
C871 C 0.84525 0.72293 0.851 0.0
C872 C 0.84468 0.72187 0.86515 0.0
C873 C 0.85598 0.72385 0.87271 0.0
C874 C 0.86801 0.7268 0.86575 0.0
C875 C 0.86854 0.72777 0.8513 0.0
C876 C 0.95428 0.75353 0.81251 0.0
C877 C 0.93979 0.74227 0.80914 0.0
O878 O 0.81264 0.71209 0.9229 0.0
O879 O 0.81266 0.72206 0.80057 0.0
O880 O 0.93202 0.74811 0.8065 0.0
O881 O 0.92103 0.7418 0.92575 0.0
H882 H 0.813 0.72988 0.92667 0.0
H883 H 0.83323 0.73151 0.93842 0.0
H884 H 0.82232 0.71692 0.94842 0.0
H885 H 0.82212 0.7325 0.9507 0.0
H886 H 0.83153 0.73695 0.91429 0.0
H887 H 0.81568 0.69412 0.91 0.0
H888 H 0.86287 0.74834 0.90191 0.0
H889 H 0.85 0.75295 0.90172 0.0
H890 H 0.85405 0.74691 0.88632 0.0
H891 H 0.82565 0.68508 0.89546 0.0
H892 H 0.84391 0.6956 0.8959 0.0
H893 H 0.83469 0.69542 0.88109 0.0
H894 H 0.90658 0.73185 0.94046 0.0
H895 H 0.92138 0.74603 0.95958 0.0
H896 H 0.9195 0.75595 0.94665 0.0
H897 H 0.93503 0.75563 0.94778 0.0
H898 H 0.90197 0.71684 0.91881 0.0
H899 H 0.9196 0.75894 0.91011 0.0
H900 H 0.87882 0.7044 0.88979 0.0
H901 H 0.87137 0.70442 0.90591 0.0
H902 H 0.88416 0.69974 0.90508 0.0
H903 H 0.90876 0.76703 0.89599 0.0
H904 H 0.89092 0.75583 0.8925 0.0
H905 H 0.90327 0.7568 0.8806 0.0
H906 H 0.93594 0.73581 0.81833 0.0
H907 H 0.91288 0.72245 0.81137 0.0
H908 H 0.92246 0.76377 0.81109 0.0
H909 H 0.88696 0.70953 0.83312 0.0
H910 H 0.89109 0.70452 0.81714 0.0
H911 H 0.87734 0.70793 0.81808 0.0
H912 H 0.90763 0.77061 0.81962 0.0
H913 H 0.89685 0.76023 0.83319 0.0
H914 H 0.89009 0.75812 0.81626 0.0
H915 H 0.81681 0.74119 0.79608 0.0
H916 H 0.79872 0.74004 0.81165 0.0
H917 H 0.81043 0.73704 0.82089 0.0
H918 H 0.79399 0.72297 0.8162 0.0
H919 H 0.8178 0.70303 0.80419 0.0
H920 H 0.83304 0.74541 0.81153 0.0
H921 H 0.83768 0.69901 0.82811 0.0
H922 H 0.84746 0.70305 0.81281 0.0
H923 H 0.82925 0.69216 0.8119 0.0
H924 H 0.85349 0.75958 0.82301 0.0
H925 H 0.86586 0.75429 0.82191 0.0
H926 H 0.85581 0.75086 0.83696 0.0
H927 H 0.86688 0.72522 0.9054 0.0
H928 H 0.90028 0.73319 0.8714 0.0
H929 H 0.90126 0.73499 0.84708 0.0
H930 H 0.87035 0.73139 0.81177 0.0
H931 H 0.83626 0.72138 0.84573 0.0
H932 H 0.83532 0.71958 0.87011 0.0
H933 H 0.95877 0.76048 0.80377 0.0
H934 H 0.96072 0.74914 0.81492 0.0
H935 H 0.95427 0.7595 0.82155 0.0
C936 C 0.85362 0.59618 0.39777 0.0
C937 C 0.85986 0.60798 0.40813 0.0
C938 C 0.85064 0.60633 0.43072 0.0
C939 C 0.85461 0.6199 0.43339 0.0
C940 C 0.84726 0.62327 0.44248 0.0
C941 C 0.83554 0.6128 0.4488 0.0
C942 C 0.83175 0.59909 0.44638 0.0
C943 C 0.83957 0.59607 0.43758 0.0
C944 C 0.85181 0.638 0.44502 0.0
C945 C 0.81916 0.5876 0.45263 0.0
C946 C 0.75416 0.62889 0.41286 0.0
C947 C 0.76088 0.62261 0.42019 0.0
C948 C 0.78236 0.62903 0.43159 0.0
C949 C 0.77793 0.61613 0.43691 0.0
C950 C 0.78656 0.61379 0.44506 0.0
C951 C 0.79981 0.62459 0.44811 0.0
C952 C 0.80426 0.63761 0.44289 0.0
C953 C 0.79547 0.63963 0.43463 0.0
C954 C 0.78154 0.59973 0.45034 0.0
C955 C 0.81829 0.64935 0.44602 0.0
C956 C 0.77509 0.62371 0.53497 0.0
C957 C 0.77177 0.61124 0.52874 0.0
C958 C 0.78172 0.60954 0.52221 0.0
C959 C 0.79524 0.62054 0.52177 0.0
C960 C 0.79866 0.63302 0.52819 0.0
C961 C 0.78853 0.63441 0.53477 0.0
C962 C 0.77774 0.59601 0.51559 0.0
C963 C 0.81297 0.64495 0.52789 0.0
C964 C 0.86755 0.58469 0.53804 0.0
C965 C 0.86587 0.59699 0.54007 0.0
C966 C 0.84535 0.59795 0.53601 0.0
C967 C 0.83163 0.58937 0.53294 0.0
C968 C 0.82418 0.59415 0.52614 0.0
C969 C 0.83059 0.60801 0.52271 0.0
C970 C 0.84428 0.61694 0.52655 0.0
C971 C 0.85158 0.61179 0.53307 0.0
C972 C 0.80955 0.58434 0.52238 0.0
C973 C 0.85126 0.63186 0.52357 0.0
C974 C 0.82664 0.61615 0.45693 0.0
C975 C 0.81809 0.61928 0.44974 0.0
C976 C 0.8091 0.62215 0.45653 0.0
C977 C 0.80858 0.62197 0.47094 0.0
C978 C 0.79972 0.62492 0.4781 0.0
C979 C 0.79888 0.62417 0.49225 0.0
C980 C 0.80687 0.62046 0.4998 0.0
C981 C 0.80564 0.61908 0.51413 0.0
C982 C 0.81379 0.61545 0.52134 0.0
C983 C 0.82308 0.61294 0.51459 0.0
C984 C 0.8244 0.61419 0.50024 0.0
C985 C 0.83355 0.61164 0.49308 0.0
C986 C 0.83455 0.6126 0.47893 0.0
C987 C 0.8262 0.61581 0.47136 0.0
C988 C 0.81706 0.61864 0.47837 0.0
C989 C 0.8162 0.61788 0.49282 0.0
C990 C 0.7454 0.61735 0.52779 0.0
C991 C 0.7518 0.61735 0.54151 0.0
O992 O 0.85703 0.60289 0.42122 0.0
O993 O 0.85222 0.59252 0.54178 0.0
O994 O 0.76576 0.62596 0.54116 0.0
O995 O 0.77435 0.63165 0.42351 0.0
H996 H 0.85488 0.614 0.40617 0.0
H997 H 0.84242 0.59037 0.39891 0.0
H998 H 0.85747 0.58917 0.39938 0.0
H999 H 0.856 0.60005 0.3872 0.0
H1000 H 0.86339 0.62784 0.42825 0.0
H1001 H 0.83668 0.58562 0.43548 0.0
H1002 H 0.84483 0.64043 0.43962 0.0
H1003 H 0.86227 0.64485 0.4413 0.0
H1004 H 0.85142 0.64003 0.45609 0.0
H1005 H 0.81675 0.57756 0.44841 0.0
H1006 H 0.81032 0.5889 0.45086 0.0
H1007 H 0.82062 0.58766 0.46383 0.0
H1008 H 0.75924 0.61295 0.41548 0.0
H1009 H 0.75153 0.62383 0.40246 0.0
H1010 H 0.7625 0.63893 0.40903 0.0
H1011 H 0.73941 0.62725 0.42657 0.0
H1012 H 0.76779 0.60782 0.4347 0.0
H1013 H 0.79879 0.64955 0.43052 0.0
H1014 H 0.78869 0.59629 0.44745 0.0
H1015 H 0.77129 0.59223 0.44634 0.0
H1016 H 0.78113 0.59993 0.46166 0.0
H1017 H 0.81988 0.65905 0.44199 0.0
H1018 H 0.82595 0.6473 0.44144 0.0
H1019 H 0.82008 0.65049 0.45723 0.0
H1020 H 0.7494 0.60688 0.54375 0.0
H1021 H 0.76146 0.6028 0.5288 0.0
H1022 H 0.79103 0.64397 0.53963 0.0
H1023 H 0.77879 0.59713 0.50435 0.0
H1024 H 0.76713 0.58812 0.5179 0.0
H1025 H 0.78463 0.5925 0.51909 0.0
H1026 H 0.81395 0.65406 0.53319 0.0
H1027 H 0.81625 0.64752 0.51714 0.0
H1028 H 0.81995 0.64224 0.53283 0.0
H1029 H 0.86966 0.60303 0.5306 0.0
H1030 H 0.8784 0.58799 0.53646 0.0
H1031 H 0.8617 0.57873 0.52889 0.0
H1032 H 0.86376 0.57803 0.54706 0.0
H1033 H 0.82688 0.57875 0.53548 0.0
H1034 H 0.8621 0.61858 0.53587 0.0
H1035 H 0.80785 0.58492 0.51132 0.0
H1036 H 0.80293 0.58713 0.5281 0.0
H1037 H 0.80642 0.5737 0.52477 0.0
H1038 H 0.86129 0.63772 0.52875 0.0
H1039 H 0.84481 0.63604 0.52686 0.0
H1040 H 0.85279 0.63333 0.5124 0.0
H1041 H 0.81829 0.61928 0.43866 0.0
H1042 H 0.79324 0.62772 0.47282 0.0
H1043 H 0.7918 0.62645 0.49719 0.0
H1044 H 0.81264 0.61421 0.53231 0.0
H1045 H 0.84005 0.60884 0.49831 0.0
H1046 H 0.84182 0.61059 0.47398 0.0
H1047 H 0.7342 0.61057 0.52814 0.0
H1048 H 0.7493 0.61362 0.51946 0.0
H1049 H 0.74779 0.62776 0.52532 0.0
C1050 C 0.4073 0.25759 0.41011 0.0
C1051 C 0.3931 0.25005 0.41629 0.0
C1052 C 0.39298 0.24122 0.4384 0.0
C1053 C 0.3803 0.23144 0.44326 0.0
C1054 C 0.37898 0.22092 0.45145 0.0
C1055 C 0.39065 0.22027 0.45479 0.0
C1056 C 0.40351 0.23027 0.44996 0.0
C1057 C 0.40453 0.24072 0.44186 0.0
C1058 C 0.36515 0.21048 0.45652 0.0
C1059 C 0.41614 0.22987 0.45333 0.0
C1060 C 0.37962 0.12134 0.42557 0.0
C1061 C 0.38591 0.13445 0.43328 0.0
C1062 C 0.37921 0.15 0.44301 0.0
C1063 C 0.39245 0.16056 0.44607 0.0
C1064 C 0.3947 0.17257 0.4525 0.0
C1065 C 0.3835 0.17402 0.45595 0.0
C1066 C 0.3702 0.16353 0.4526 0.0
C1067 C 0.36824 0.15164 0.44616 0.0
C1068 C 0.40903 0.18363 0.45586 0.0
C1069 C 0.35805 0.16479 0.45608 0.0
C1070 C 0.38451 0.15531 0.5437 0.0
C1071 C 0.39754 0.16567 0.54001 0.0
C1072 C 0.39934 0.17704 0.533 0.0
C1073 C 0.3879 0.17808 0.52968 0.0
C1074 C 0.37481 0.16778 0.53358 0.0
C1075 C 0.37329 0.15649 0.5405 0.0
C1076 C 0.41343 0.18782 0.52891 0.0
C1077 C 0.3624 0.1686 0.53023 0.0
C1078 C 0.41329 0.28461 0.53671 0.0
C1079 C 0.40292 0.27086 0.54254 0.0
C1080 C 0.40517 0.25085 0.54038 0.0
C1081 C 0.41506 0.24753 0.5375 0.0
C1082 C 0.41158 0.23496 0.5315 0.0
C1083 C 0.3978 0.22541 0.52859 0.0
C1084 C 0.38764 0.22838 0.5323 0.0
C1085 C 0.39143 0.24109 0.53816 0.0
C1086 C 0.42265 0.23203 0.52789 0.0
C1087 C 0.37283 0.21825 0.52974 0.0
C1088 C 0.38938 0.20904 0.46319 0.0
C1089 C 0.38704 0.19719 0.45644 0.0
C1090 C 0.38567 0.18619 0.46371 0.0
C1091 C 0.38649 0.1869 0.47813 0.0
C1092 C 0.38492 0.17591 0.48575 0.0
C1093 C 0.38586 0.17673 0.49991 0.0
C1094 C 0.38845 0.18859 0.50702 0.0
C1095 C 0.38955 0.18955 0.52142 0.0
C1096 C 0.39238 0.20156 0.52818 0.0
C1097 C 0.39414 0.21272 0.52091 0.0
C1098 C 0.39286 0.21187 0.5065 0.0
C1099 C 0.39441 0.22285 0.49886 0.0
C1100 C 0.39317 0.22192 0.4847 0.0
C1101 C 0.39051 0.21005 0.4776 0.0
C1102 C 0.389 0.1989 0.48508 0.0
C1103 C 0.39007 0.19977 0.49955 0.0
C1104 C 0.38647 0.13004 0.56494 0.0
C1105 C 0.3921 0.14163 0.55547 0.0
O1106 O 0.39406 0.2512 0.43039 0.0
O1107 O 0.40925 0.26356 0.54516 0.0
O1108 O 0.38229 0.14405 0.5503 0.0
O1109 O 0.37652 0.13807 0.43713 0.0
H1110 H 0.38824 0.23917 0.41304 0.0
H1111 H 0.41316 0.2528 0.41327 0.0
H1112 H 0.41286 0.26838 0.41357 0.0
H1113 H 0.40661 0.25713 0.39878 0.0
H1114 H 0.37147 0.23205 0.44055 0.0
H1115 H 0.41431 0.24847 0.43813 0.0
H1116 H 0.36256 0.20026 0.45271 0.0
H1117 H 0.35711 0.21251 0.45316 0.0
H1118 H 0.36526 0.21033 0.46785 0.0
H1119 H 0.42538 0.23843 0.44883 0.0
H1120 H 0.41503 0.22019 0.44947 0.0
H1121 H 0.4175 0.23022 0.46458 0.0
H1122 H 0.39291 0.1355 0.44173 0.0
H1123 H 0.38795 0.12678 0.40603 0.0
H1124 H 0.36837 0.11605 0.42747 0.0
H1125 H 0.38126 0.11438 0.43222 0.0
H1126 H 0.40104 0.15945 0.44358 0.0
H1127 H 0.35807 0.14347 0.44368 0.0
H1128 H 0.41099 0.19338 0.45162 0.0
H1129 H 0.41669 0.18132 0.45177 0.0
H1130 H 0.41034 0.18501 0.46711 0.0
H1131 H 0.34836 0.15578 0.45262 0.0
H1132 H 0.35904 0.17394 0.45126 0.0
H1133 H 0.35764 0.16608 0.4673 0.0
H1134 H 0.39903 0.14158 0.54748 0.0
H1135 H 0.40632 0.16488 0.54243 0.0
H1136 H 0.36329 0.14847 0.54342 0.0
H1137 H 0.41389 0.18888 0.51764 0.0
H1138 H 0.42129 0.1855 0.5322 0.0
H1139 H 0.41585 0.19773 0.53348 0.0
H1140 H 0.35305 0.1602 0.53476 0.0
H1141 H 0.36103 0.1682 0.51899 0.0
H1142 H 0.36379 0.17841 0.53402 0.0
H1143 H 0.395 0.26573 0.53443 0.0
H1144 H 0.40851 0.29079 0.53492 0.0
H1145 H 0.41708 0.28306 0.5268 0.0
H1146 H 0.4221 0.29027 0.54373 0.0
H1147 H 0.42561 0.25503 0.5395 0.0
H1148 H 0.38367 0.2434 0.54095 0.0
H1149 H 0.42241 0.22998 0.51675 0.0
H1150 H 0.42088 0.2228 0.5332 0.0
H1151 H 0.43289 0.24055 0.53076 0.0
H1152 H 0.36611 0.2216 0.5343 0.0
H1153 H 0.37017 0.20829 0.53401 0.0
H1154 H 0.37085 0.21675 0.51857 0.0
H1155 H 0.38632 0.19653 0.44539 0.0
H1156 H 0.38293 0.16653 0.48086 0.0
H1157 H 0.38457 0.16795 0.5052 0.0
H1158 H 0.39336 0.20227 0.53922 0.0
H1159 H 0.39657 0.23229 0.50374 0.0
H1160 H 0.39441 0.23067 0.47937 0.0
H1161 H 0.38829 0.12227 0.55975 0.0
H1162 H 0.37516 0.12408 0.56317 0.0
H1163 H 0.39525 0.13908 0.58386 0.0
C1164 C 0.85289 0.2353 0.40371 0.0
C1165 C 0.86189 0.24416 0.41566 0.0
C1166 C 0.84976 0.22839 0.43426 0.0
C1167 C 0.83902 0.23091 0.43547 0.0
C1168 C 0.82763 0.22252 0.44336 0.0
C1169 C 0.82688 0.21131 0.45 0.0
C1170 C 0.83774 0.20882 0.4489 0.0
C1171 C 0.84914 0.21755 0.4412 0.0
C1172 C 0.81633 0.2256 0.44453 0.0
C1173 C 0.83722 0.19687 0.45572 0.0
C1174 C 0.73059 0.1432 0.41625 0.0
C1175 C 0.74228 0.14041 0.41471 0.0
C1176 C 0.75836 0.15104 0.43388 0.0
C1177 C 0.7654 0.14814 0.44355 0.0
C1178 C 0.77646 0.15852 0.4508 0.0
C1179 C 0.78003 0.17217 0.44893 0.0
C1180 C 0.77288 0.17519 0.43917 0.0
C1181 C 0.76232 0.16461 0.43153 0.0
C1182 C 0.78423 0.15475 0.46045 0.0
C1183 C 0.77628 0.18956 0.43684 0.0
C1184 C 0.74999 0.16046 0.53345 0.0
C1185 C 0.75885 0.1559 0.52974 0.0
C1186 C 0.77159 0.16482 0.52417 0.0
C1187 C 0.77541 0.1785 0.52207 0.0
C1188 C 0.76675 0.18324 0.52639 0.0
C1189 C 0.75419 0.17415 0.53219 0.0
C1190 C 0.78082 0.15955 0.5202 0.0
C1191 C 0.77056 0.19778 0.52447 0.0
C1192 C 0.87301 0.26119 0.5305 0.0
C1193 C 0.86728 0.25521 0.5445 0.0
C1194 C 0.84814 0.23278 0.53763 0.0
C1195 C 0.84429 0.21919 0.53577 0.0
C1196 C 0.83226 0.21006 0.52884 0.0
C1197 C 0.82378 0.21466 0.52382 0.0
C1198 C 0.82728 0.22826 0.52617 0.0
C1199 C 0.83946 0.23723 0.533 0.0
C1200 C 0.82879 0.19558 0.52658 0.0
C1201 C 0.8183 0.2334 0.52116 0.0
C1202 C 0.81459 0.20204 0.45783 0.0
C1203 C 0.80342 0.1919 0.45058 0.0
C1204 C 0.79124 0.18323 0.45715 0.0
C1205 C 0.79011 0.1848 0.47136 0.0
C1206 C 0.77779 0.17686 0.4782 0.0
C1207 C 0.777 0.17791 0.49229 0.0
C1208 C 0.7885 0.18692 0.50011 0.0
C1209 C 0.78798 0.18757 0.51452 0.0
C1210 C 0.79956 0.19676 0.52195 0.0
C1211 C 0.81172 0.20544 0.51536 0.0
C1212 C 0.81243 0.20496 0.50096 0.0
C1213 C 0.82447 0.21364 0.49399 0.0
C1214 C 0.82513 0.21292 0.47984 0.0
C1215 C 0.81388 0.20326 0.47215 0.0
C1216 C 0.8016 0.19455 0.47893 0.0
C1217 C 0.80083 0.19552 0.49334 0.0
C1218 C 0.71466 0.13451 0.53398 0.0
C1219 C 0.72944 0.13821 0.5354 0.0
O1220 O 0.86083 0.23602 0.42646 0.0
O1221 O 0.86032 0.24117 0.54375 0.0
O1222 O 0.73733 0.152 0.5382 0.0
O1223 O 0.74766 0.14045 0.42737 0.0
H1224 H 0.8587 0.25144 0.41896 0.0
H1225 H 0.84212 0.22939 0.40685 0.0
H1226 H 0.85611 0.2281 0.40022 0.0
H1227 H 0.85348 0.24165 0.395 0.0
H1228 H 0.83944 0.23937 0.43033 0.0
H1229 H 0.85751 0.21574 0.44025 0.0
H1230 H 0.80706 0.21735 0.43945 0.0
H1231 H 0.81896 0.23535 0.43976 0.0
H1232 H 0.81388 0.22601 0.45543 0.0
H1233 H 0.84606 0.1958 0.45305 0.0
H1234 H 0.82777 0.18739 0.4527 0.0
H1235 H 0.83705 0.19808 0.46697 0.0
H1236 H 0.75023 0.1484 0.40823 0.0
H1237 H 0.72582 0.14239 0.40613 0.0
H1238 H 0.73432 0.15356 0.42042 0.0
H1239 H 0.72273 0.13593 0.42329 0.0
H1240 H 0.76232 0.13764 0.44523 0.0
H1241 H 0.75704 0.16702 0.42399 0.0
H1242 H 0.79526 0.16232 0.46029 0.0
H1243 H 0.78275 0.14461 0.45785 0.0
H1244 H 0.78056 0.15439 0.471 0.0
H1245 H 0.76813 0.18994 0.4311 0.0
H1246 H 0.78575 0.1949 0.43084 0.0
H1247 H 0.77801 0.19515 0.4467 0.0
H1248 H 0.73238 0.13571 0.52541 0.0
H1249 H 0.75584 0.14539 0.53113 0.0
H1250 H 0.74736 0.1776 0.53531 0.0
H1251 H 0.78106 0.15878 0.50891 0.0
H1252 H 0.77736 0.14938 0.52444 0.0
H1253 H 0.79134 0.16667 0.52382 0.0
H1254 H 0.76249 0.19975 0.52798 0.0
H1255 H 0.77258 0.20038 0.51351 0.0
H1256 H 0.78003 0.2046 0.53025 0.0
H1257 H 0.86033 0.25872 0.54805 0.0
H1258 H 0.87884 0.27244 0.53121 0.0
H1259 H 0.86469 0.25813 0.52296 0.0
H1260 H 0.87979 0.25759 0.52669 0.0
H1261 H 0.85098 0.21582 0.53948 0.0
H1262 H 0.84215 0.24766 0.53452 0.0
H1263 H 0.82804 0.19324 0.51546 0.0
H1264 H 0.81874 0.18858 0.53108 0.0
H1265 H 0.83645 0.1936 0.53116 0.0
H1266 H 0.8218 0.24389 0.52484 0.0
H1267 H 0.80772 0.22663 0.52459 0.0
H1268 H 0.81818 0.23324 0.50982 0.0
H1269 H 0.80424 0.19072 0.43967 0.0
H1270 H 0.76864 0.16968 0.47274 0.0
H1271 H 0.76727 0.17143 0.49698 0.0
H1272 H 0.79914 0.19711 0.53301 0.0
H1273 H 0.83355 0.22109 0.49938 0.0
H1274 H 0.83465 0.21987 0.47504 0.0
H1275 H 0.71105 0.13679 0.54365 0.0
H1276 H 0.70808 0.12356 0.53136 0.0
H1277 H 0.71369 0.14046 0.52569 0.0
C1278 C 0.0301 0.4817 0.26855 0.0
C1279 C 0.01856 0.46942 0.26105 0.0
C1280 C 0.01629 0.47576 0.23822 0.0
C1281 C 0.00234 0.47078 0.23709 0.0
C1282 C 0.9974 0.47683 0.22829 0.0
C1283 C 0.00664 0.48813 0.22059 0.0
C1284 C 0.02071 0.4929 0.22143 0.0
C1285 C 0.02534 0.48647 0.23011 0.0
C1286 C 0.98232 0.47128 0.2274 0.0
C1287 C 0.03087 0.50499 0.21345 0.0
C1288 C 0.98519 0.56342 0.25961 0.0
C1289 C 0.981 0.55144 0.25044 0.0
C1290 C 0.99154 0.54279 0.23465 0.0
C1291 C 0.00324 0.54606 0.22733 0.0
C1292 C 0.00429 0.53617 0.21974 0.0
C1293 C 0.99327 0.52265 0.21946 0.0
C1294 C 0.9813 0.51926 0.2267 0.0
C1295 C 0.98053 0.52937 0.23422 0.0
C1296 C 0.01721 0.54013 0.21212 0.0
C1297 C 0.96937 0.50494 0.22652 0.0
C1298 C 0.96816 0.5249 0.13612 0.0
C1299 C 0.98221 0.5315 0.13835 0.0
C1300 C 0.9882 0.52445 0.14359 0.0
C1301 C 0.97989 0.5106 0.14683 0.0
C1302 C 0.96585 0.50375 0.14373 0.0
C1303 C 0.96019 0.51099 0.13822 0.0
C1304 C 0.0033 0.53193 0.14618 0.0
C1305 C 0.95674 0.48893 0.1468 0.0
C1306 C 0.02302 0.44352 0.14597 0.0
C1307 C 0.01127 0.44383 0.13898 0.0
C1308 C 0.00977 0.46436 0.13805 0.0
C1309 C 0.01805 0.47843 0.13889 0.0
C1310 C 0.01292 0.48657 0.14347 0.0
C1311 C -0.0009 0.4804 0.14713 0.0
C1312 C 0.99038 0.46628 0.1451 0.0
C1313 C 0.9958 0.45837 0.14053 0.0
C1314 C 0.02242 0.50165 0.14517 0.0
C1315 C 0.97551 0.4595 0.14849 0.0
C1316 C 0.00163 0.49539 0.21226 0.0
C1317 C -0.00075 0.50483 0.21895 0.0
C1318 C 0.99449 0.51204 0.21185 0.0
C1319 C 0.99175 0.50966 0.1977 0.0
C1320 C 0.98643 0.51635 0.19037 0.0
C1321 C 0.9841 0.51419 0.17637 0.0
C1322 C 0.98731 0.5055 0.16911 0.0
C1323 C 0.98556 0.50369 0.15477 0.0
C1324 C 0.98922 0.49528 0.14784 0.0
C1325 C 0.99438 0.48839 0.15493 0.0
C1326 C 0.99575 0.4897 0.16931 0.0
C1327 C 0.00049 0.48253 0.17679 0.0
C1328 C 0.00213 0.48414 0.19089 0.0
C1329 C -0.00056 0.49322 0.19802 0.0
C1330 C 0.99448 0.50041 0.19072 0.0
C1331 C 0.99246 0.49849 0.17638 0.0
C1332 C 0.95217 0.54276 0.14403 0.0
C1333 C 0.96487 0.54425 0.13724 0.0
O1334 O 0.02123 0.47044 0.24718 0.0
O1335 O 0.01567 0.45697 0.13502 0.0
O1336 O 0.96198 0.5317 0.1321 0.0
O1337 O 0.99138 0.55282 0.24206 0.0
H1338 H 0.00903 0.46947 0.26313 0.0
H1339 H 0.03086 0.49115 0.26482 0.0
H1340 H 0.03994 0.48224 0.26674 0.0
H1341 H 0.02813 0.48109 0.2797 0.0
H1342 H 0.99535 0.46219 0.24311 0.0
H1343 H 0.03609 0.4901 0.23099 0.0
H1344 H 0.97997 0.4788 0.2319 0.0
H1345 H 0.97641 0.4616 0.23289 0.0
H1346 H 0.97898 0.4696 0.21655 0.0
H1347 H 0.0415 0.50791 0.21586 0.0
H1348 H 0.02958 0.51379 0.21567 0.0
H1349 H 0.02907 0.50265 0.20235 0.0
H1350 H 0.97124 0.54771 0.24483 0.0
H1351 H 0.98382 0.55577 0.2792 0.0
H1352 H 0.97886 0.5678 0.25622 0.0
H1353 H 0.99494 0.57195 0.25543 0.0
H1354 H 0.01165 0.55643 0.2277 0.0
H1355 H 0.97135 0.52671 0.23977 0.0
H1356 H 0.01495 0.53801 0.20104 0.0
H1357 H 0.02154 0.53395 0.21559 0.0
H1358 H 0.02495 0.55103 0.21361 0.0
H1359 H 0.96054 0.50405 0.23216 0.0
H1360 H 0.9724 0.49812 0.2312 0.0
H1361 H 0.96623 0.50138 0.21581 0.0
H1362 H 0.97288 0.54798 0.14532 0.0
H1363 H 0.98846 0.54218 0.13615 0.0
H1364 H 0.94939 0.50596 0.13617 0.0
H1365 H 0.0053 0.5337 0.15732 0.0
H1366 H 0.00857 0.54189 0.14108 0.0
H1367 H 0.00767 0.52575 0.14252 0.0
H1368 H 0.94604 0.48508 0.14372 0.0
H1369 H 0.95708 0.48734 0.15791 0.0
H1370 H 0.96043 0.48287 0.14137 0.0
H1371 H 0.00305 0.44039 0.14667 0.0
H1372 H 0.01976 0.43308 0.14927 0.0
H1373 H 0.02638 0.4503 0.15515 0.0
H1374 H 0.03177 0.44701 0.13896 0.0
H1375 H 0.02874 0.48297 0.13659 0.0
H1376 H 0.98917 0.44754 0.13915 0.0
H1377 H 0.02382 0.50443 0.1562 0.0
H1378 H 0.01798 0.5072 0.14031 0.0
H1379 H 0.03252 0.50503 0.14063 0.0
H1380 H 0.96981 0.44873 0.14496 0.0
H1381 H 0.97097 0.46501 0.14374 0.0
H1382 H 0.97434 0.45988 0.15971 0.0
H1383 H 0.0013 0.5067 0.22983 0.0
H1384 H 0.98398 0.52331 0.19537 0.0
H1385 H 0.97993 0.51958 0.17131 0.0
H1386 H 0.98816 0.49419 0.13682 0.0
H1387 H 0.00296 0.47556 0.17186 0.0
H1388 H 0.00576 0.47833 0.1961 0.0
H1389 H 0.94366 0.53894 0.13656 0.0
H1390 H 0.95425 0.55267 0.14833 0.0
H1391 H 0.94905 0.53547 0.1525 0.0
C1392 C 0.47655 0.39805 0.25542 0.0
C1393 C 0.47291 0.40896 0.25874 0.0
C1394 C 0.48095 0.42578 0.24058 0.0
C1395 C 0.47658 0.43267 0.23237 0.0
C1396 C 0.48588 0.4444 0.22549 0.0
C1397 C 0.4999 0.4489 0.22624 0.0
C1398 C 0.50439 0.44191 0.23448 0.0
C1399 C 0.49489 0.43058 0.24178 0.0
C1400 C 0.48062 0.45189 0.2174 0.0
C1401 C 0.51922 0.44626 0.23551 0.0
C1402 C 0.58672 0.54814 0.25945 0.0
C1403 C 0.57968 0.5353 0.25129 0.0
C1404 C 0.5575 0.52013 0.24074 0.0
C1405 C 0.56019 0.50973 0.23754 0.0
C1406 C 0.55051 0.4979 0.23063 0.0
C1407 C 0.53791 0.49641 0.22686 0.0
C1408 C 0.53504 0.5067 0.23036 0.0
C1409 C 0.54491 0.51845 0.23725 0.0
C1410 C 0.55386 0.48707 0.22711 0.0
C1411 C 0.52167 0.50537 0.22654 0.0
C1412 C 0.56185 0.51765 0.13977 0.0
C1413 C 0.56492 0.50809 0.14475 0.0
C1414 C 0.55508 0.49654 0.1515 0.0
C1415 C 0.54192 0.4945 0.15331 0.0
C1416 C 0.53878 0.50407 0.14827 0.0
C1417 C 0.54883 0.51555 0.14159 0.0
C1418 C 0.55879 0.48659 0.15688 0.0
C1419 C 0.52488 0.50225 0.15013 0.0
C1420 C 0.46727 0.38507 0.13929 0.0
C1421 C 0.46893 0.39887 0.13629 0.0
C1422 C 0.48994 0.42066 0.1395 0.0
C1423 C 0.50374 0.42581 0.14183 0.0
C1424 C 0.51177 0.43837 0.1485 0.0
C1425 C 0.50588 0.44611 0.15258 0.0
C1426 C 0.49208 0.44132 0.14946 0.0
C1427 C 0.48421 0.42858 0.14302 0.0
C1428 C 0.52649 0.4432 0.15145 0.0
C1429 C 0.4856 0.44955 0.15314 0.0
C1430 C 0.50983 0.46081 0.2183 0.0
C1431 C 0.51842 0.4729 0.22543 0.0
C1432 C 0.52809 0.4844 0.21861 0.0
C1433 C 0.52887 0.48412 0.20423 0.0
C1434 C 0.53815 0.49568 0.19704 0.0
C1435 C 0.539 0.49527 0.1829 0.0
C1436 C 0.53067 0.48325 0.1754 0.0
C1437 C 0.53166 0.48267 0.16105 0.0
C1438 C 0.52324 0.47057 0.15387 0.0
C1439 C 0.51398 0.45884 0.1607 0.0
C1440 C 0.51297 0.45919 0.17509 0.0
C1441 C 0.50407 0.44751 0.18236 0.0
C1442 C 0.50308 0.44798 0.19649 0.0
C1443 C 0.51093 0.46015 0.20394 0.0
C1444 C 0.52029 0.47194 0.19687 0.0
C1445 C 0.52125 0.47148 0.18243 0.0
C1446 C 0.59018 0.54302 0.11909 0.0
C1447 C 0.58399 0.53206 0.12928 0.0
O1448 O 0.47138 0.41441 0.24685 0.0
O1449 O 0.48251 0.40804 0.13385 0.0
O1450 O 0.57109 0.52895 0.13317 0.0
O1451 O 0.56675 0.53191 0.24708 0.0
H1452 H 0.48132 0.41698 0.26511 0.0
H1453 H 0.48711 0.40275 0.2517 0.0
H1454 H 0.4698 0.39095 0.24729 0.0
H1455 H 0.47577 0.39228 0.26471 0.0
H1456 H 0.4658 0.42893 0.23155 0.0
H1457 H 0.49844 0.4254 0.24813 0.0
H1458 H 0.48738 0.46302 0.21867 0.0
H1459 H 0.47021 0.44911 0.22051 0.0
H1460 H 0.48031 0.44928 0.2064 0.0
H1461 H 0.52076 0.43841 0.24025 0.0
H1462 H 0.5246 0.45566 0.24186 0.0
H1463 H 0.52394 0.4485 0.22525 0.0
H1464 H 0.58583 0.53441 0.24295 0.0
H1465 H 0.58871 0.54188 0.27885 0.0
H1466 H 0.58107 0.55364 0.25761 0.0
H1467 H 0.59573 0.55523 0.25314 0.0
H1468 H 0.56985 0.51083 0.24027 0.0
H1469 H 0.5429 0.52648 0.23984 0.0
H1470 H 0.5459 0.47718 0.23111 0.0
H1471 H 0.56384 0.48945 0.23134 0.0
H1472 H 0.55403 0.48594 0.21585 0.0
H1473 H 0.52084 0.5141 0.23036 0.0
H1474 H 0.5132 0.4959 0.23078 0.0
H1475 H 0.52047 0.50465 0.21526 0.0
H1476 H 0.59065 0.53319 0.1381 0.0
H1477 H 0.57498 0.50962 0.14348 0.0
H1478 H 0.54656 0.52298 0.13772 0.0
H1479 H 0.55759 0.48596 0.16813 0.0
H1480 H 0.56938 0.48947 0.1544 0.0
H1481 H 0.55181 0.47634 0.15249 0.0
H1482 H 0.52394 0.51042 0.14529 0.0
H1483 H 0.52272 0.50216 0.16119 0.0
H1484 H 0.51708 0.49232 0.14567 0.0
H1485 H 0.46549 0.40197 0.14559 0.0
H1486 H 0.45648 0.37754 0.1414 0.0
H1487 H 0.47342 0.38594 0.14841 0.0
H1488 H 0.47073 0.38137 0.1305 0.0
H1489 H 0.50809 0.41971 0.13882 0.0
H1490 H 0.47362 0.42485 0.14074 0.0
H1491 H 0.52882 0.446 0.16243 0.0
H1492 H 0.53299 0.45241 0.14546 0.0
H1493 H 0.52918 0.43542 0.14876 0.0
H1494 H 0.47545 0.44539 0.14828 0.0
H1495 H 0.49219 0.46023 0.15001 0.0
H1496 H 0.48439 0.44961 0.16438 0.0
H1497 H 0.51776 0.47329 0.23646 0.0
H1498 H 0.54485 0.50522 0.20225 0.0
H1499 H 0.54632 0.5045 0.17794 0.0
H1500 H 0.52411 0.4702 0.14286 0.0
H1501 H 0.49776 0.43784 0.17722 0.0
H1502 H 0.4961 0.43864 0.2015 0.0
H1503 H 0.5993 0.55157 0.12445 0.0
H1504 H 0.58416 0.54831 0.11934 0.0
H1505 H 0.59176 0.53323 0.10151 0.0
C1506 C 0.45838 0.98117 0.27872 0.0
C1507 C 0.45368 0.98854 0.26931 0.0
C1508 C 0.4607 0.987 0.24637 0.0
C1509 C 0.46842 0.0007 0.24293 0.0
C1510 C 0.47905 0.00512 0.23357 0.0
C1511 C 0.48194 0.9956 0.22751 0.0
C1512 C 0.47364 0.98165 0.23035 0.0
C1513 C 0.46299 0.97751 0.23968 0.0
C1514 C 0.48746 0.02001 0.23046 0.0
C1515 C 0.47636 0.97123 0.22393 0.0
C1516 C 0.56328 0.03323 0.27971 0.0
C1517 C 0.56091 0.02262 0.26868 0.0
C1518 C 0.55293 0.02369 0.24612 0.0
C1519 C 0.5449 0.00982 0.24294 0.0
C1520 C 0.5341 0.00509 0.23358 0.0
C1521 C 0.53123 0.01444 0.22744 0.0
C1522 C 0.53969 0.0285 0.23025 0.0
C1523 C 0.55063 0.03295 0.23938 0.0
C1524 C 0.52554 0.99008 0.23056 0.0
C1525 C 0.53685 0.03878 0.22407 0.0
C1526 C 0.55782 0.02906 0.14294 0.0
C1527 C 0.54969 0.01502 0.14466 0.0
C1528 C 0.53655 0.00938 0.14994 0.0
C1529 C 0.53153 0.018 0.1536 0.0
C1530 C 0.53939 0.03204 0.15101 0.0
C1531 C 0.55242 0.03736 0.14556 0.0
C1532 C 0.52822 0.99431 0.15213 0.0
C1533 C 0.53427 0.04148 0.15459 0.0
C1534 C 0.42191 0.98217 0.14799 0.0
C1535 C 0.43514 0.99325 0.1418 0.0
C1536 C 0.45614 0.99242 0.14321 0.0
C1537 C 0.46051 0.9831 0.14409 0.0
C1538 C 0.47335 0.98695 0.14942 0.0
C1539 C 0.48204 0.00051 0.15384 0.0
C1540 C 0.47805 0.01021 0.15209 0.0
C1541 C 0.46514 0.00608 0.14671 0.0
C1542 C 0.4774 0.97641 0.15088 0.0
C1543 C 0.48726 0.02484 0.15636 0.0
C1544 C 0.49433 0.00038 0.21919 0.0
C1545 C 0.5065 0.00458 0.22613 0.0
C1546 C 0.5187 0.00946 0.21913 0.0
C1547 C 0.51879 0.00999 0.20473 0.0
C1548 C 0.53081 0.01453 0.19734 0.0
C1549 C 0.53086 0.0154 0.1832 0.0
C1550 C 0.51884 0.01164 0.17588 0.0
C1551 C 0.51882 0.01265 0.1615 0.0
C1552 C 0.50673 0.00892 0.15455 0.0
C1553 C 0.49457 0.00418 0.16163 0.0
C1554 C 0.49438 0.00304 0.176 0.0
C1555 C 0.48229 0.99828 0.18342 0.0
C1556 C 0.48223 0.99733 0.19756 0.0
C1557 C 0.49424 0.00113 0.20482 0.0
C1558 C 0.50652 0.00593 0.19757 0.0
C1559 C 0.50657 0.00683 0.18313 0.0
C1560 C 0.5922 0.04295 0.14979 0.0
C1561 C 0.58006 0.03101 0.14259 0.0
O1562 O 0.45123 0.98276 0.25631 0.0
O1563 O 0.44323 0.98777 0.13891 0.0
O1564 O 0.57091 0.03495 0.13888 0.0
O1565 O 0.56268 0.02834 0.25594 0.0
H1566 H 0.46204 -0.00068 0.2692 0.0
H1567 H 0.46816 0.98253 0.27503 0.0
H1568 H 0.45084 0.97014 0.27887 0.0
H1569 H 0.45994 0.98542 0.28928 0.0
H1570 H 0.46623 0.00796 0.2477 0.0
H1571 H 0.45679 0.96691 0.24225 0.0
H1572 H 0.49787 0.02416 0.23462 0.0
H1573 H 0.4831 0.0259 0.23494 0.0
H1574 H 0.48831 0.02143 0.21924 0.0
H1575 H 0.46878 0.96075 0.22695 0.0
H1576 H 0.48661 0.97341 0.227 0.0
H1577 H 0.47624 0.97183 0.21264 0.0
H1578 H 0.55023 0.01421 0.26994 0.0
H1579 H 0.56212 0.0289 0.29002 0.0
H1580 H 0.55569 0.03645 0.27853 0.0
H1581 H 0.57357 0.04233 0.27888 0.0
H1582 H 0.54698 0.0027 0.24791 0.0
H1583 H 0.55702 0.04365 0.24183 0.0
H1584 H 0.52377 0.98816 0.21939 0.0
H1585 H 0.5155 0.98605 0.23549 0.0
H1586 H 0.53031 0.98443 0.23442 0.0
H1587 H 0.5437 0.04919 0.22821 0.0
H1588 H 0.52619 0.03597 0.22603 0.0
H1589 H 0.53817 0.03888 0.21285 0.0
H1590 H 0.57548 0.02264 0.15005 0.0
H1591 H 0.55363 0.00848 0.14202 0.0
H1592 H 0.5587 0.04815 0.14389 0.0
H1593 H 0.52731 0.99233 0.16325 0.0
H1594 H 0.53284 0.98881 0.14726 0.0
H1595 H 0.51781 0.99019 0.14795 0.0
H1596 H 0.54148 0.05208 0.15159 0.0
H1597 H 0.53257 0.04134 0.16576 0.0
H1598 H 0.52438 0.03796 0.14942 0.0
H1599 H 0.43997 0.00159 0.14957 0.0
H1600 H 0.41526 0.98624 0.15087 0.0
H1601 H 0.42416 0.97832 0.15735 0.0
H1602 H 0.41639 0.97357 0.14062 0.0
H1603 H 0.4536 0.97265 0.14104 0.0
H1604 H 0.46213 0.01353 0.14536 0.0
H1605 H 0.47825 0.97476 0.16188 0.0
H1606 H 0.48751 0.98005 0.14625 0.0
H1607 H 0.46996 0.96656 0.14598 0.0
H1608 H 0.48309 0.03133 0.15347 0.0
H1609 H 0.49737 0.02884 0.1516 0.0
H1610 H 0.48877 0.02555 0.1676 0.0
H1611 H 0.50651 0.00422 0.2372 0.0
H1612 H 0.54035 0.01754 0.20243 0.0
H1613 H 0.54047 0.0191 0.1781 0.0
H1614 H 0.5068 0.0098 0.14354 0.0
H1615 H 0.47273 0.99525 0.1784 0.0
H1616 H 0.47265 0.99363 0.20273 0.0
H1617 H 0.59965 0.04003 0.15299 0.0
H1618 H 0.58875 0.04602 0.15905 0.0
H1619 H 0.59729 0.05178 0.14294 0.0
C1620 C 0.53205 0.96068 0.742 0.0
C1621 C 0.53954 0.97464 0.74902 0.0
C1622 C 0.53361 0.97893 0.7715 0.0
C1623 C 0.53857 0.99289 0.77119 0.0
C1624 C 0.53298 0.9988 0.77961 0.0
C1625 C 0.52199 0.99047 0.78821 0.0
C1626 C 0.51707 0.97635 0.78858 0.0
C1627 C 0.52325 0.97085 0.78047 0.0
C1628 C 0.53867 0.01389 0.77911 0.0
C1629 C 0.50505 0.96694 0.79717 0.0
C1630 C 0.43654 0.99844 0.75279 0.0
C1631 C 0.44474 0.99488 0.76163 0.0
C1632 C 0.4675 0.00448 0.77125 0.0
C1633 C 0.46429 0.99305 0.77905 0.0
C1634 C 0.4742 0.99257 0.78695 0.0
C1635 C 0.48757 0.00386 0.78732 0.0
C1636 C 0.49082 0.01548 0.7797 0.0
C1637 C 0.48072 0.01561 0.77171 0.0
C1638 C 0.47038 0.97991 0.79482 0.0
C1639 C 0.50494 0.02772 0.78001 0.0
C1640 C 0.47073 0.01659 0.87013 0.0
C1641 C 0.46667 0.00292 0.86783 0.0
C1642 C 0.47593 -0.00073 0.863 0.0
C1643 C 0.48954 0.00949 0.86067 0.0
C1644 C 0.49387 0.02316 0.864 0.0
C1645 C 0.48438 0.02652 0.86876 0.0
C1646 C 0.47107 0.98455 0.85993 0.0
C1647 C 0.50836 0.03427 0.86188 0.0
C1648 C 0.55396 0.96633 0.86329 0.0
C1649 C 0.55511 0.97757 0.87286 0.0
C1650 C 0.53555 0.98055 0.87293 0.0
C1651 C 0.52179 0.97253 0.86968 0.0
C1652 C 0.51466 0.97825 0.86402 0.0
C1653 C 0.52147 0.99239 0.86186 0.0
C1654 C 0.53512 0.00069 0.86614 0.0
C1655 C 0.54204 0.99467 0.87165 0.0
C1656 C 0.50003 0.96912 0.85981 0.0
C1657 C 0.54251 0.01584 0.86437 0.0
C1658 C 0.51497 0.9963 0.79602 0.0
C1659 C 0.5062 0.99908 0.78876 0.0
C1660 C 0.49813 0.00324 0.79547 0.0
C1661 C 0.49896 0.00494 0.80981 0.0
C1662 C 0.49108 0.00923 0.81684 0.0
C1663 C 0.49119 0.00991 0.83102 0.0
C1664 C 0.49917 0.00628 0.83873 0.0
C1665 C 0.49871 0.00612 0.85316 0.0
C1666 C 0.50641 0.00201 0.86051 0.0
C1667 C 0.51472 0.99815 0.85377 0.0
C1668 C 0.51563 0.99865 0.83936 0.0
C1669 C 0.52413 0.99514 0.83227 0.0
C1670 C 0.52434 0.99488 0.81807 0.0
C1671 C 0.51579 0.99776 0.81041 0.0
C1672 C 0.5076 0.00191 0.81733 0.0
C1673 C 0.5076 0.00245 0.83182 0.0
C1674 C 0.44669 0.0243 0.86062 0.0
C1675 C 0.44837 0.01459 0.86979 0.0
O1676 O 0.53848 0.97298 0.76303 0.0
O1677 O 0.54228 0.97434 0.87712 0.0
O1678 O 0.46188 0.02062 0.87374 0.0
O1679 O 0.45819 0.00508 0.76315 0.0
H1680 H 0.53447 0.98024 0.74567 0.0
H1681 H 0.52122 0.95526 0.74503 0.0
H1682 H 0.53657 0.95452 0.74497 0.0
H1683 H 0.53253 0.96172 0.73072 0.0
H1684 H 0.54679 0.99912 0.76436 0.0
H1685 H 0.51957 0.96008 0.78061 0.0
H1686 H 0.5314 0.01588 0.77363 0.0
H1687 H 0.54854 0.01919 0.77375 0.0
H1688 H 0.54004 0.01825 0.7896 0.0
H1689 H 0.50079 0.95615 0.79407 0.0
H1690 H 0.49688 0.96941 0.79643 0.0
H1691 H 0.50825 0.96809 0.80802 0.0
H1692 H 0.44353 0.98477 0.7592 0.0
H1693 H 0.43349 0.99128 0.74373 0.0
H1694 H 0.44395 0.00763 0.74692 0.0
H1695 H 0.42237 0.99852 0.76624 0.0
H1696 H 0.45408 0.98439 0.77899 0.0
H1697 H 0.48311 0.02441 0.76573 0.0
H1698 H 0.47105 0.98221 0.80593 0.0
H1699 H 0.47755 0.97634 0.79252 0.0
H1700 H 0.45991 0.97155 0.7924 0.0
H1701 H 0.50562 0.03631 0.77426 0.0
H1702 H 0.51213 0.02497 0.7755 0.0
H1703 H 0.5082 0.03108 0.79074 0.0
H1704 H 0.44506 0.00516 0.86366 0.0
H1705 H 0.45629 0.99507 0.86968 0.0
H1706 H 0.48748 0.03701 0.87091 0.0
H1707 H 0.47221 0.98313 0.84887 0.0
H1708 H 0.46029 0.97777 0.86274 0.0
H1709 H 0.47741 0.98147 0.8656 0.0
H1710 H 0.51044 0.04415 0.86626 0.0
H1711 H 0.51052 0.03545 0.85078 0.0
H1712 H 0.5154 0.03151 0.86662 0.0
H1713 H 0.55992 0.98695 0.86672 0.0
H1714 H 0.5642 0.96845 0.86028 0.0
H1715 H 0.5483 0.96585 0.8539 0.0
H1716 H 0.54842 0.95628 0.8682 0.0
H1717 H 0.51681 0.96167 0.87102 0.0
H1718 H 0.55255 0.00097 0.87479 0.0
H1719 H 0.49898 0.9696 0.8486 0.0
H1720 H 0.49366 0.97266 0.86479 0.0
H1721 H 0.4961 0.95839 0.86255 0.0
H1722 H 0.55262 0.02102 0.86945 0.0
H1723 H 0.53638 0.02003 0.86861 0.0
H1724 H 0.54389 0.01812 0.85332 0.0
H1725 H 0.50518 0.99739 0.77779 0.0
H1726 H 0.48459 0.01195 0.81145 0.0
H1727 H 0.48474 0.01309 0.83584 0.0
H1728 H 0.50566 0.00149 0.87155 0.0
H1729 H 0.53066 0.99244 0.83761 0.0
H1730 H 0.53105 0.99207 0.81317 0.0
H1731 H 0.43595 0.0197 0.85727 0.0
H1732 H 0.45308 0.02645 0.8514 0.0
H1733 H 0.44984 0.03404 0.86611 0.0
C1734 C 0.01382 0.54486 0.7437 0.0
C1735 C 0.0035 0.54593 0.75278 0.0
C1736 C 0.00558 0.53998 0.77585 0.0
C1737 C 0.99214 0.53058 0.77922 0.0
C1738 C 0.9892 0.52052 0.78883 0.0
C1739 C -3e-05 0.51987 0.79509 0.0
C1740 C 0.01357 0.52966 0.79202 0.0
C1741 C 0.01619 0.53976 0.78258 0.0
C1742 C 0.9746 0.51041 0.79204 0.0
C1743 C 0.0253 0.52917 0.79835 0.0
C1744 C 0.00228 0.42895 0.76802 0.0
C1745 C 0.0043 0.4396 0.77817 0.0
C1746 C 0.99306 0.45179 0.78578 0.0
C1747 C 0.00459 0.4623 0.79241 0.0
C1748 C 0.0043 0.47326 0.79854 0.0
C1749 C 0.99216 0.47366 0.79821 0.0
C1750 C 0.98052 0.46313 0.79154 0.0
C1751 C 0.98113 0.45231 0.78539 0.0
C1752 C 0.01698 0.48437 0.80548 0.0
C1753 C 0.96744 0.46327 0.79109 0.0
C1754 C 0.98303 0.45122 0.88186 0.0
C1755 C 0.99626 0.45988 0.87724 0.0
C1756 C -4e-05 0.47258 0.87192 0.0
C1757 C 0.99018 0.47662 0.87116 0.0
C1758 C 0.97716 0.46832 0.87674 0.0
C1759 C 0.9738 0.45575 0.88216 0.0
C1760 C 0.01409 0.48136 0.86645 0.0
C1761 C 0.96656 0.47238 0.87627 0.0
C1762 C 0.04065 0.58775 0.86957 0.0
C1763 C 0.02792 0.57666 0.87647 0.0
C1764 C 0.02281 0.55329 0.87767 0.0
C1765 C 0.02947 0.54611 0.87549 0.0
C1766 C 0.02238 0.53261 0.87082 0.0
C1767 C 0.00818 0.52604 0.8687 0.0
C1768 C 0.0012 0.53293 0.87204 0.0
C1769 C 0.00862 0.54657 0.87638 0.0
C1770 C 0.03016 0.52552 0.86772 0.0
C1771 C 0.98601 0.52604 0.8705 0.0
C1772 C 0.99694 0.50832 0.80399 0.0
C1773 C 0.99443 0.49625 0.7976 0.0
C1774 C 0.99176 0.485 0.80523 0.0
C1775 C 0.99084 0.48548 0.81957 0.0
C1776 C 0.98722 0.47401 0.82743 0.0
C1777 C 0.98736 0.47482 0.84159 0.0
C1778 C 0.99155 0.48724 0.84844 0.0
C1779 C 0.99293 0.48843 0.86282 0.0
C1780 C 0.99768 0.50105 0.86928 0.0
C1781 C 0.00103 0.51257 0.8617 0.0
C1782 C -0.00082 0.51144 0.84734 0.0
C1783 C 0.00207 0.52272 0.8394 0.0
C1784 C 0.00079 0.52161 0.82523 0.0
C1785 C 0.99719 0.50934 0.81841 0.0
C1786 C 0.99406 0.49783 0.82622 0.0
C1787 C 0.99474 0.4988 0.84069 0.0
C1788 C 0.97059 0.41636 0.87667 0.0
C1789 C 0.98307 0.42991 0.88078 0.0
O1790 O 0.00853 0.54924 0.76603 0.0
O1791 O 0.03039 0.56669 0.88088 0.0
O1792 O 0.97877 0.43843 0.88595 0.0
O1793 O 0.99309 0.44111 0.77958 0.0
H1794 H 0.99396 0.53587 0.75239 0.0
H1795 H 0.01551 0.53676 0.74747 0.0
H1796 H 0.02368 0.55458 0.74384 0.0
H1797 H 0.00998 0.54225 0.73302 0.0
H1798 H 0.98396 0.53106 0.77426 0.0
H1799 H 0.02654 0.5472 0.77997 0.0
H1800 H 0.97202 0.50024 0.78806 0.0
H1801 H 0.96749 0.51315 0.78744 0.0
H1802 H 0.97312 0.50967 0.80327 0.0
H1803 H 0.03525 0.53721 0.79446 0.0
H1804 H 0.02426 0.51915 0.79621 0.0
H1805 H 0.02522 0.53043 0.8096 0.0
H1806 H 0.00873 0.43921 0.78816 0.0
H1807 H 0.01608 0.43983 0.7525 0.0
H1808 H 0.99101 0.42248 0.76615 0.0
H1809 H 0.00293 0.42106 0.77412 0.0
H1810 H 0.01388 0.46203 0.79287 0.0
H1811 H 0.97229 0.44417 0.78024 0.0
H1812 H 0.0154 0.48402 0.81668 0.0
H1813 H 0.01918 0.49445 0.80202 0.0
H1814 H 0.02597 0.48337 0.80343 0.0
H1815 H 0.95917 0.45413 0.78582 0.0
H1816 H 0.96909 0.47242 0.7857 0.0
H1817 H 0.96419 0.46386 0.80164 0.0
H1818 H 0.98914 0.43412 0.87135 0.0
H1819 H 0.00365 0.45665 0.87758 0.0
H1820 H 0.9637 0.44909 0.88605 0.0
H1821 H 0.01368 0.48119 0.85512 0.0
H1822 H 0.02104 0.47781 0.86965 0.0
H1823 H 0.01834 0.49202 0.86998 0.0
H1824 H 0.95716 0.46517 0.88173 0.0
H1825 H 0.96392 0.47286 0.86548 0.0
H1826 H 0.97067 0.48265 0.88092 0.0
H1827 H 0.0197 0.57249 0.86859 0.0
H1828 H 0.03891 0.59586 0.86591 0.0
H1829 H 0.04318 0.58337 0.86065 0.0
H1830 H 0.04942 0.59227 0.87677 0.0
H1831 H 0.04039 0.55135 0.87685 0.0
H1832 H 0.00337 0.55198 0.87866 0.0
H1833 H 0.02815 0.52153 0.85705 0.0
H1834 H 0.0267 0.51677 0.87457 0.0
H1835 H 0.04128 0.53232 0.86915 0.0
H1836 H 0.98191 0.53195 0.87551 0.0
H1837 H 0.98106 0.51576 0.87492 0.0
H1838 H 0.98328 0.52481 0.85949 0.0
H1839 H 0.9951 0.49579 0.78657 0.0
H1840 H 0.98428 0.46428 0.8227 0.0
H1841 H 0.9845 0.46564 0.84706 0.0
H1842 H -0.00075 0.502 0.88025 0.0
H1843 H 0.00537 0.53256 0.84402 0.0
H1844 H 0.0031 0.5306 0.81966 0.0
H1845 H 0.96404 0.41153 0.88565 0.0
H1846 H 0.97369 0.40937 0.87223 0.0
H1847 H 0.9646 0.41801 0.86886 0.0
C1848 C 0.52015 0.57523 0.74546 0.0
C1849 C 0.53031 0.5801 0.7574 0.0
C1850 C 0.51744 0.56173 0.77365 0.0
C1851 C 0.50784 0.56543 0.7772 0.0
C1852 C 0.49665 0.55699 0.78531 0.0
C1853 C 0.49508 0.5447 0.79005 0.0
C1854 C 0.5049 0.54113 0.78682 0.0
C1855 C 0.51599 0.54974 0.77868 0.0
C1856 C 0.48639 0.56113 0.78868 0.0
C1857 C 0.50358 0.52816 0.79184 0.0
C1858 C 0.39826 0.47887 0.75566 0.0
C1859 C 0.41006 0.47619 0.75461 0.0
C1860 C 0.42566 0.486 0.77416 0.0
C1861 C 0.43266 0.48257 0.78334 0.0
C1862 C 0.44396 0.49257 0.79064 0.0
C1863 C 0.44784 0.50637 0.78929 0.0
C1864 C 0.44067 0.50991 0.7801 0.0
C1865 C 0.42982 0.4997 0.77242 0.0
C1866 C 0.45168 0.48829 0.79975 0.0
C1867 C 0.44434 0.52446 0.77847 0.0
C1868 C 0.41847 0.49591 0.87404 0.0
C1869 C 0.42678 0.49069 0.87035 0.0
C1870 C 0.43966 0.49911 0.86478 0.0
C1871 C 0.44415 0.51295 0.86262 0.0
C1872 C 0.43603 0.51834 0.86694 0.0
C1873 C 0.42335 0.50975 0.87278 0.0
C1874 C 0.4483 0.49314 0.86086 0.0
C1875 C 0.44055 0.53306 0.86497 0.0
C1876 C 0.54118 0.59705 0.87071 0.0
C1877 C 0.53472 0.5912 0.88453 0.0
C1878 C 0.51642 0.56827 0.87774 0.0
C1879 C 0.51296 0.55471 0.87675 0.0
C1880 C 0.50118 0.54503 0.86981 0.0
C1881 C 0.49257 0.54904 0.86385 0.0
C1882 C 0.49572 0.56263 0.86523 0.0
C1883 C 0.50766 0.57215 0.87208 0.0
C1884 C 0.49809 0.5306 0.86855 0.0
C1885 C 0.48659 0.56717 0.85921 0.0
C1886 C 0.48291 0.5354 0.79801 0.0
C1887 C 0.47151 0.52554 0.79082 0.0
C1888 C 0.45936 0.51703 0.79751 0.0
C1889 C 0.45849 0.51848 0.81178 0.0
C1890 C 0.44621 0.51073 0.81874 0.0
C1891 C 0.4456 0.51181 0.83285 0.0
C1892 C 0.45724 0.52068 0.84056 0.0
C1893 C 0.45682 0.52152 0.85497 0.0
C1894 C 0.4685 0.53072 0.86228 0.0
C1895 C 0.48065 0.53919 0.85557 0.0
C1896 C 0.48132 0.53835 0.84119 0.0
C1897 C 0.49343 0.54664 0.83413 0.0
C1898 C 0.49396 0.54578 0.81998 0.0
C1899 C 0.48246 0.53646 0.81237 0.0
C1900 C 0.47018 0.52798 0.81927 0.0
C1901 C 0.46959 0.529 0.83369 0.0
C1902 C 0.38271 0.4718 0.87368 0.0
C1903 C 0.39708 0.47436 0.87548 0.0
O1904 O 0.5281 0.56925 0.76531 0.0
O1905 O 0.52831 0.57718 0.88408 0.0
O1906 O 0.40569 0.48794 0.87876 0.0
O1907 O 0.41478 0.47579 0.76749 0.0
H1908 H 0.52925 0.5876 0.76382 0.0
H1909 H 0.50961 0.57059 0.74922 0.0
H1910 H 0.52094 0.56755 0.73909 0.0
H1911 H 0.52216 0.5839 0.73897 0.0
H1912 H 0.50891 0.57478 0.77361 0.0
H1913 H 0.52349 0.54703 0.776 0.0
H1914 H 0.47627 0.55334 0.78464 0.0
H1915 H 0.48913 0.57109 0.78434 0.0
H1916 H 0.48551 0.56171 0.79992 0.0
H1917 H 0.51231 0.52704 0.78878 0.0
H1918 H 0.49412 0.51936 0.78767 0.0
H1919 H 0.50282 0.52786 0.80314 0.0
H1920 H 0.4183 0.48447 0.74861 0.0
H1921 H 0.39407 0.4785 0.74533 0.0
H1922 H 0.40175 0.48904 0.76023 0.0
H1923 H 0.39003 0.47126 0.76215 0.0
H1924 H 0.42938 0.47196 0.78458 0.0
H1925 H 0.42445 0.50247 0.76535 0.0
H1926 H 0.44851 0.48812 0.81049 0.0
H1927 H 0.46277 0.4955 0.79918 0.0
H1928 H 0.44962 0.47797 0.79697 0.0
H1929 H 0.43639 0.52527 0.77283 0.0
H1930 H 0.45396 0.52998 0.77272 0.0
H1931 H 0.44595 0.52957 0.7886 0.0
H1932 H 0.40001 0.47181 0.86549 0.0
H1933 H 0.42323 0.48005 0.87176 0.0
H1934 H 0.41693 0.5137 0.87591 0.0
H1935 H 0.4483 0.49207 0.84958 0.0
H1936 H 0.44447 0.483 0.86532 0.0
H1937 H 0.45895 0.49997 0.86426 0.0
H1938 H 0.43273 0.5355 0.86822 0.0
H1939 H 0.44292 0.53568 0.85406 0.0
H1940 H 0.44996 0.53954 0.87098 0.0
H1941 H 0.52725 0.59434 0.88713 0.0
H1942 H 0.54651 0.6083 0.87117 0.0
H1943 H 0.53329 0.59345 0.86259 0.0
H1944 H 0.54855 0.59387 0.86787 0.0
H1945 H 0.51972 0.55179 0.88122 0.0
H1946 H 0.51006 0.58255 0.87283 0.0
H1947 H 0.49743 0.52764 0.8576 0.0
H1948 H 0.48809 0.52369 0.87319 0.0
H1949 H 0.50591 0.52915 0.87362 0.0
H1950 H 0.48971 0.57773 0.86233 0.0
H1951 H 0.47595 0.56032 0.86242 0.0
H1952 H 0.48683 0.56658 0.8479 0.0
H1953 H 0.47209 0.52452 0.77984 0.0
H1954 H 0.43693 0.50371 0.81336 0.0
H1955 H 0.43587 0.50554 0.83762 0.0
H1956 H 0.46809 0.53138 0.87331 0.0
H1957 H 0.50264 0.5539 0.83946 0.0
H1958 H 0.50353 0.55243 0.8151 0.0
H1959 H 0.37915 0.4742 0.8833 0.0
H1960 H 0.3756 0.46104 0.87071 0.0
H1961 H 0.38257 0.47831 0.86549 0.0
C1962 C 0.61227 0.76416 0.607 0.0
C1963 C 0.61753 0.75951 0.59491 0.0
C1964 C 0.62329 0.77762 0.57841 0.0
C1965 C 0.60986 0.7738 0.57499 0.0
C1966 C 0.60713 0.78177 0.56636 0.0
C1967 C 0.61801 0.79377 0.56098 0.0
C1968 C 0.63152 0.79749 0.56412 0.0
C1969 C 0.63397 0.78933 0.57279 0.0
C1970 C 0.59259 0.77748 0.56314 0.0
C1971 C 0.64334 0.81017 0.55845 0.0
C1972 C 0.58698 0.8596 0.59092 0.0
C1973 C 0.60161 0.86278 0.59291 0.0
C1974 C 0.6079 0.85253 0.57421 0.0
C1975 C 0.61828 0.85573 0.56488 0.0
C1976 C 0.61943 0.84555 0.558 0.0
C1977 C 0.60943 0.83178 0.55992 0.0
C1978 C 0.59879 0.82846 0.56928 0.0
C1979 C 0.59829 0.83887 0.57653 0.0
C1980 C 0.63138 0.84963 0.54869 0.0
C1981 C 0.58783 0.81393 0.57156 0.0
C1982 C 0.59019 0.83889 0.47407 0.0
C1983 C 0.60376 0.84418 0.47804 0.0
C1984 C 0.60788 0.83592 0.48425 0.0
C1985 C 0.59816 0.82219 0.48681 0.0
C1986 C 0.58461 0.81672 0.48227 0.0
C1987 C 0.58086 0.82514 0.47576 0.0
C1988 C 0.62257 0.84196 0.48836 0.0
C1989 C 0.574 0.80211 0.48467 0.0
C1990 C 0.60834 0.73755 0.48052 0.0
C1991 C 0.60889 0.74388 0.46669 0.0
C1992 C 0.61418 0.76683 0.47375 0.0
C1993 C 0.62466 0.78032 0.475 0.0
C1994 C 0.62269 0.79006 0.48173 0.0
C1995 C 0.60984 0.78619 0.48727 0.0
C1996 C 0.59904 0.77265 0.48569 0.0
C1997 C 0.60131 0.76308 0.47898 0.0
C1998 C 0.6344 0.80444 0.48317 0.0
C1999 C 0.58516 0.76825 0.49132 0.0
C2000 C 0.61515 0.80266 0.55254 0.0
C2001 C 0.61389 0.8128 0.55925 0.0
C2002 C 0.61014 0.82089 0.55218 0.0
C2003 C 0.60748 0.81875 0.53798 0.0
C2004 C 0.60287 0.82609 0.53065 0.0
C2005 C 0.6009 0.82436 0.5166 0.0
C2006 C 0.60344 0.81523 0.5093 0.0
C2007 C 0.60198 0.8138 0.49492 0.0
C2008 C 0.6042 0.80433 0.48805 0.0
C2009 C 0.60783 0.79617 0.49516 0.0
C2010 C 0.60954 0.7976 0.50951 0.0
C2011 C 0.61331 0.78964 0.51696 0.0
C2012 C 0.61505 0.79119 0.53107 0.0
C2013 C 0.61324 0.80086 0.53824 0.0
C2014 C 0.6094 0.80896 0.53094 0.0
C2015 C 0.60745 0.80726 0.51657 0.0
C2016 C 0.57884 0.86272 0.47299 0.0
C2017 C 0.59076 0.86033 0.47172 0.0
O2018 O 0.62643 0.77051 0.58717 0.0
O2019 O 0.61704 0.75787 0.46759 0.0
O2020 O 0.58573 0.84674 0.46864 0.0
O2021 O 0.60739 0.86293 0.58044 0.0
H2022 H 0.60881 0.75216 0.58843 0.0
H2023 H 0.60649 0.76887 0.60337 0.0
H2024 H 0.62084 0.77173 0.61348 0.0
H2025 H 0.60538 0.75536 0.61333 0.0
H2026 H 0.60143 0.76471 0.57909 0.0
H2027 H 0.64429 0.79219 0.57539 0.0
H2028 H 0.59047 0.78543 0.56677 0.0
H2029 H 0.58525 0.76774 0.56794 0.0
H2030 H 0.59091 0.77636 0.55191 0.0
H2031 H 0.65326 0.81142 0.56146 0.0
H2032 H 0.64295 0.81917 0.56216 0.0
H2033 H 0.64263 0.8099 0.54713 0.0
H2034 H 0.6014 0.85486 0.5995 0.0
H2035 H 0.58269 0.86032 0.60087 0.0
H2036 H 0.58046 0.84918 0.58675 0.0
H2037 H 0.58652 0.86672 0.5837 0.0
H2038 H 0.62567 0.8663 0.56319 0.0
H2039 H 0.59022 0.83623 0.58375 0.0
H2040 H 0.62815 0.8493 0.53795 0.0
H2041 H 0.63529 0.84259 0.54954 0.0
H2042 H 0.63979 0.8601 0.55102 0.0
H2043 H 0.57907 0.81321 0.57719 0.0
H2044 H 0.59206 0.80883 0.5776 0.0
H2045 H 0.58413 0.80835 0.56166 0.0
H2046 H 0.59603 0.86304 0.48183 0.0
H2047 H 0.61112 0.85474 0.4763 0.0
H2048 H 0.57047 0.82113 0.47243 0.0
H2049 H 0.62357 0.84352 0.49961 0.0
H2050 H 0.6292 0.85189 0.48351 0.0
H2051 H 0.62622 0.83495 0.48553 0.0
H2052 H 0.56372 0.79967 0.48134 0.0
H2053 H 0.57368 0.79982 0.49567 0.0
H2054 H 0.57671 0.79539 0.47896 0.0
H2055 H 0.59847 0.74108 0.46345 0.0
H2056 H 0.60201 0.72633 0.4797 0.0
H2057 H 0.60379 0.74108 0.48837 0.0
H2058 H 0.6187 0.7404 0.48399 0.0
H2059 H 0.63452 0.78315 0.47087 0.0
H2060 H 0.59302 0.75273 0.47799 0.0
H2061 H 0.63656 0.8073 0.49416 0.0
H2062 H 0.63164 0.81147 0.47849 0.0
H2063 H 0.64376 0.80584 0.47826 0.0
H2064 H 0.57761 0.75755 0.48857 0.0
H2065 H 0.58151 0.77487 0.48741 0.0
H2066 H 0.58578 0.76938 0.50261 0.0
H2067 H 0.61575 0.81435 0.57017 0.0
H2068 H 0.6008 0.8333 0.5357 0.0
H2069 H 0.59742 0.83037 0.51152 0.0
H2070 H 0.60304 0.80326 0.47703 0.0
H2071 H 0.61498 0.78212 0.51198 0.0
H2072 H 0.61797 0.78481 0.53627 0.0
H2073 H 0.57306 0.86015 0.46322 0.0
H2074 H 0.58252 0.87348 0.47577 0.0
H2075 H 0.57189 0.85625 0.48112 0.0
C2076 C 0.14892 0.74783 0.62097 0.0
C2077 C 0.14249 0.75249 0.61031 0.0
C2078 C 0.15248 0.75947 0.58788 0.0
C2079 C 0.14964 0.76979 0.58548 0.0
C2080 C 0.15746 0.78014 0.5763 0.0
C2081 C 0.16843 0.78022 0.56953 0.0
C2082 C 0.171 0.76954 0.57162 0.0
C2083 C 0.16279 0.75914 0.5806 0.0
C2084 C 0.15421 0.79117 0.57409 0.0
C2085 C 0.18271 0.76935 0.56476 0.0
C2086 C 0.25714 0.87962 0.59907 0.0
C2087 C 0.25007 0.86658 0.59126 0.0
C2088 C 0.2274 0.85093 0.58189 0.0
C2089 C 0.23006 0.84064 0.57816 0.0
C2090 C 0.22009 0.82872 0.57158 0.0
C2091 C 0.20725 0.8271 0.56869 0.0
C2092 C 0.20445 0.83731 0.57273 0.0
C2093 C 0.21459 0.84911 0.57929 0.0
C2094 C 0.22335 0.81796 0.56746 0.0
C2095 C 0.19083 0.83585 0.56988 0.0
C2096 C 0.22598 0.84806 0.48101 0.0
C2097 C 0.22865 0.83784 0.48467 0.0
C2098 C 0.21892 0.82634 0.49158 0.0
C2099 C 0.20629 0.82503 0.49489 0.0
C2100 C 0.20352 0.83522 0.49108 0.0
C2101 C 0.21344 0.84663 0.48422 0.0
C2102 C 0.2222 0.81567 0.49558 0.0
C2103 C 0.19017 0.83415 0.49447 0.0
C2104 C 0.12141 0.71867 0.48534 0.0
C2105 C 0.12632 0.73293 0.48013 0.0
C2106 C 0.14925 0.75234 0.48345 0.0
C2107 C 0.16239 0.75537 0.48662 0.0
C2108 C 0.17181 0.76787 0.49266 0.0
C2109 C 0.168 0.77762 0.49539 0.0
C2110 C 0.15499 0.77495 0.49142 0.0
C2111 C 0.14574 0.76233 0.48544 0.0
C2112 C 0.1857 0.7705 0.49654 0.0
C2113 C 0.15077 0.7853 0.49386 0.0
C2114 C 0.17779 0.79196 0.56111 0.0
C2115 C 0.18761 0.80369 0.56796 0.0
C2116 C 0.197 0.81506 0.5608 0.0
C2117 C 0.19671 0.81482 0.54638 0.0
C2118 C 0.20604 0.82611 0.53889 0.0
C2119 C 0.20586 0.8257 0.52471 0.0
C2120 C 0.19635 0.81399 0.51745 0.0
C2121 C 0.19628 0.81339 0.50302 0.0
C2122 C 0.18681 0.80153 0.4961 0.0
C2123 C 0.17729 0.79017 0.50325 0.0
C2124 C 0.17707 0.79065 0.51768 0.0
C2125 C 0.1675 0.77948 0.52519 0.0
C2126 C 0.16756 0.77995 0.53941 0.0
C2127 C 0.17731 0.79152 0.54666 0.0
C2128 C 0.18688 0.80298 0.53929 0.0
C2129 C 0.18672 0.80256 0.5248 0.0
C2130 C 0.2536 0.87357 0.45972 0.0
C2131 C 0.24759 0.8621 0.46937 0.0
O2132 O 0.14563 0.74988 0.59737 0.0
O2133 O 0.14027 0.73968 0.47863 0.0
O2134 O 0.23515 0.8594 0.47442 0.0
O2135 O 0.23684 0.86278 0.5879 0.0
H2136 H 0.14709 0.76361 0.61214 0.0
H2137 H 0.16013 0.75368 0.61996 0.0
H2138 H 0.14541 0.73689 0.61956 0.0
H2139 H 0.14632 0.7496 0.63143 0.0
H2140 H 0.14137 0.76979 0.59084 0.0
H2141 H 0.16477 0.75102 0.58245 0.0
H2142 H 0.16218 0.80072 0.57903 0.0
H2143 H 0.14424 0.7886 0.57846 0.0
H2144 H 0.15415 0.79305 0.56302 0.0
H2145 H 0.18404 0.76098 0.5684 0.0
H2146 H 0.19227 0.77912 0.56668 0.0
H2147 H 0.18096 0.76811 0.55356 0.0
H2148 H 0.25586 0.86575 0.58252 0.0
H2149 H 0.26056 0.87414 0.6183 0.0
H2150 H 0.25107 0.88475 0.59761 0.0
H2151 H 0.26565 0.88675 0.59225 0.0
H2152 H 0.23991 0.84188 0.58024 0.0
H2153 H 0.21262 0.85708 0.58229 0.0
H2154 H 0.21563 0.80804 0.57165 0.0
H2155 H 0.23354 0.82041 0.57108 0.0
H2156 H 0.22295 0.81684 0.55617 0.0
H2157 H 0.19016 0.84459 0.57393 0.0
H2158 H 0.18269 0.82643 0.57454 0.0
H2159 H 0.18892 0.83492 0.55869 0.0
H2160 H 0.2546 0.86246 0.47746 0.0
H2161 H 0.23834 0.83883 0.48227 0.0
H2162 H 0.21147 0.85455 0.48133 0.0
H2163 H 0.22183 0.81475 0.50685 0.0
H2164 H 0.23239 0.81804 0.49204 0.0
H2165 H 0.21447 0.80568 0.49118 0.0
H2166 H 0.18935 0.84264 0.49027 0.0
H2167 H 0.189 0.83414 0.50572 0.0
H2168 H 0.18167 0.82443 0.49035 0.0
H2169 H 0.1234 0.73796 0.48814 0.0
H2170 H 0.11018 0.71295 0.48629 0.0
H2171 H 0.1259 0.71936 0.49557 0.0
H2172 H 0.12449 0.71298 0.47837 0.0
H2173 H 0.16508 0.74769 0.4848 0.0
H2174 H 0.13578 0.7603 0.48243 0.0
H2175 H 0.18709 0.77191 0.50778 0.0
H2176 H 0.19362 0.78 0.49181 0.0
H2177 H 0.18726 0.76208 0.49328 0.0
H2178 H 0.14062 0.78203 0.48942 0.0
H2179 H 0.15833 0.79511 0.48935 0.0
H2180 H 0.15051 0.78706 0.505 0.0
H2181 H 0.18801 0.80395 0.57904 0.0
H2182 H 0.21366 0.83539 0.5439 0.0
H2183 H 0.21335 0.83469 0.51951 0.0
H2184 H 0.18694 0.80107 0.48503 0.0
H2185 H 0.15985 0.77022 0.52018 0.0
H2186 H 0.15994 0.77107 0.54464 0.0
H2187 H 0.26322 0.88157 0.46488 0.0
H2188 H 0.24809 0.87929 0.46128 0.0
H2189 H 0.25354 0.86438 0.44101 0.0
C2190 C 0.15805 0.3931 0.61264 0.0
C2191 C 0.14763 0.38764 0.60092 0.0
C2192 C 0.15971 0.38185 0.58374 0.0
C2193 C 0.16932 0.39524 0.58022 0.0
C2194 C 0.18019 0.39796 0.57161 0.0
C2195 C 0.18148 0.3871 0.56638 0.0
C2196 C 0.17161 0.37361 0.56954 0.0
C2197 C 0.16081 0.37118 0.57813 0.0
C2198 C 0.19048 0.41245 0.56831 0.0
C2199 C 0.17266 0.36181 0.56409 0.0
C2200 C 0.26099 0.41054 0.6204 0.0
C2201 C 0.25586 0.3995 0.60924 0.0
C2202 C 0.24935 0.40264 0.58668 0.0
C2203 C 0.23921 0.38927 0.58351 0.0
C2204 C 0.22896 0.38656 0.574 0.0
C2205 C 0.22875 0.39747 0.56769 0.0
C2206 C 0.23926 0.41096 0.57054 0.0
C2207 C 0.2496 0.41333 0.57982 0.0
C2208 C 0.21814 0.37205 0.57096 0.0
C2209 C 0.23931 0.42288 0.5642 0.0
C2210 C 0.25599 0.40517 0.48225 0.0
C2211 C 0.24563 0.39174 0.48444 0.0
C2212 C 0.23323 0.38892 0.49013 0.0
C2213 C 0.23116 0.39974 0.49364 0.0
C2214 C 0.24127 0.41321 0.49068 0.0
C2215 C 0.25353 0.41573 0.4849 0.0
C2216 C 0.22249 0.37441 0.49277 0.0
C2217 C 0.23928 0.42495 0.49409 0.0
C2218 C 0.13846 0.39441 0.48339 0.0
C2219 C 0.14461 0.39333 0.46985 0.0
C2220 C 0.16129 0.38736 0.47784 0.0
C2221 C 0.16349 0.37655 0.47946 0.0
C2222 C 0.17479 0.37819 0.48671 0.0
C2223 C 0.18421 0.39105 0.49237 0.0
C2224 C 0.1823 0.40216 0.49043 0.0
C2225 C 0.17084 0.40021 0.48323 0.0
C2226 C 0.17654 0.36613 0.48854 0.0
C2227 C 0.19229 0.41606 0.49615 0.0
C2228 C 0.19366 0.38992 0.55843 0.0
C2229 C 0.20511 0.39218 0.56572 0.0
C2230 C 0.21698 0.39484 0.55906 0.0
C2231 C 0.21748 0.39519 0.54464 0.0
C2232 C 0.22914 0.39753 0.53758 0.0
C2233 C 0.22964 0.39815 0.52341 0.0
C2234 C 0.21845 0.39636 0.51574 0.0
C2235 C 0.21889 0.39707 0.50132 0.0
C2236 C 0.20762 0.39531 0.49402 0.0
C2237 C 0.19579 0.39276 0.50073 0.0
C2238 C 0.1951 0.39189 0.51513 0.0
C2239 C 0.1833 0.38917 0.5222 0.0
C2240 C 0.18278 0.38848 0.53637 0.0
C2241 C 0.19403 0.39048 0.54402 0.0
C2242 C 0.206 0.39313 0.53711 0.0
C2243 C 0.20651 0.39378 0.52265 0.0
C2244 C 0.28918 0.41084 0.48583 0.0
C2245 C 0.27488 0.4011 0.4803 0.0
O2246 O 0.14941 0.37875 0.59262 0.0
O2247 O 0.14983 0.38483 0.47114 0.0
O2248 O 0.26846 0.40832 0.47774 0.0
O2249 O 0.25875 0.40551 0.59657 0.0
H2250 H 0.14885 0.39625 0.59477 0.0
H2251 H 0.16852 0.39899 0.60864 0.0
H2252 H 0.15724 0.38463 0.61873 0.0
H2253 H 0.15637 0.39994 0.61946 0.0
H2254 H 0.16856 0.40365 0.58426 0.0
H2255 H 0.15332 0.36089 0.58079 0.0
H2256 H 0.20051 0.41513 0.57265 0.0
H2257 H 0.18761 0.41971 0.57244 0.0
H2258 H 0.19164 0.41361 0.55707 0.0
H2259 H 0.16396 0.35189 0.56718 0.0
H2260 H 0.18218 0.36263 0.56789 0.0
H2261 H 0.17315 0.36207 0.55277 0.0
H2262 H 0.24467 0.39319 0.61069 0.0
H2263 H 0.25899 0.40594 0.63066 0.0
H2264 H 0.25561 0.41627 0.61958 0.0
H2265 H 0.27204 0.4178 0.6194 0.0
H2266 H 0.23927 0.38098 0.58858 0.0
H2267 H 0.25757 0.42361 0.58227 0.0
H2268 H 0.21632 0.37031 0.55978 0.0
H2269 H 0.20849 0.36995 0.57576 0.0
H2270 H 0.22089 0.36475 0.57496 0.0
H2271 H 0.24755 0.43273 0.56839 0.0
H2272 H 0.22943 0.42226 0.56595 0.0
H2273 H 0.24067 0.42265 0.55301 0.0
H2274 H 0.26961 0.39364 0.48853 0.0
H2275 H 0.24724 0.38346 0.48182 0.0
H2276 H 0.26149 0.42603 0.48292 0.0
H2277 H 0.22106 0.37288 0.50394 0.0
H2278 H 0.22519 0.36708 0.48844 0.0
H2279 H 0.21265 0.37218 0.4883 0.0
H2280 H 0.24796 0.43479 0.49079 0.0
H2281 H 0.23802 0.42549 0.50528 0.0
H2282 H 0.22989 0.42337 0.48909 0.0
H2283 H 0.15281 0.40357 0.4668 0.0
H2284 H 0.13409 0.40105 0.48228 0.0
H2285 H 0.14633 0.39887 0.49153 0.0
H2286 H 0.13034 0.38422 0.48665 0.0
H2287 H 0.15613 0.3667 0.4752 0.0
H2288 H 0.16941 0.40874 0.48196 0.0
H2289 H 0.177 0.36438 0.49959 0.0
H2290 H 0.18628 0.36823 0.48398 0.0
H2291 H 0.16816 0.35674 0.48373 0.0
H2292 H 0.18994 0.42388 0.49289 0.0
H2293 H 0.20272 0.4191 0.49284 0.0
H2294 H 0.19217 0.4158 0.50747 0.0
H2295 H 0.20478 0.39191 0.57679 0.0
H2296 H 0.23805 0.39896 0.54294 0.0
H2297 H 0.23894 0.40009 0.51855 0.0
H2298 H 0.20807 0.39594 0.48297 0.0
H2299 H 0.17433 0.38757 0.51685 0.0
H2300 H 0.17345 0.38641 0.54127 0.0
H2301 H 0.29463 0.4053 0.4877 0.0
H2302 H 0.28855 0.41546 0.49565 0.0
H2303 H 0.29511 0.41913 0.47857 0.0
C2304 C 0.99069 0.3589 0.04994 0.0
C2305 C 0.0018 0.36541 0.04111 0.0
C2306 C 0.98849 0.36635 0.06003 0.0
C2307 C 0.99694 0.40111 0.06918 0.0
H2308 H 0.99321 0.38961 0.10672 0.0
C2309 C 0.01375 0.43833 0.11444 0.0
C2310 C 0.00644 0.43438 0.12667 0.0
C2311 C 0.01011 0.42918 0.10349 0.0
C2312 C 0.99394 0.39284 0.09627 0.0
H2313 H 0.01924 0.38481 0.03584 0.0
H2314 H 0.01539 0.39771 0.05333 0.0
H2315 H 0.99234 0.37455 0.08832 0.0
H2316 H 0.98963 0.41781 0.13707 0.0
H2317 H 0.98317 0.40174 0.11782 0.0
H2318 H -0.00106 0.41954 0.0771 0.0
C2319 C 0.00832 0.3869 0.05243 0.0
C2320 C 0.99345 0.38421 0.08575 0.0
C2321 C 0.01059 0.37948 0.04249 0.0
C2322 C 0.99532 0.42113 0.12769 0.0
C2323 C 0.99169 0.41194 0.11672 0.0
C2324 C 0.99737 0.4097 0.07967 0.0
C2325 C 0.99727 0.38044 0.0613 0.0
C2326 C 0.99542 0.38848 0.07216 0.0
C2327 C -0.00084 0.41583 0.10456 0.0
C2328 C 0.99634 0.40585 0.09336 0.0
H2329 H 0.98373 0.34807 0.04908 0.0
H2330 H 0.9799 0.36114 0.06676 0.0
H2331 H 0.99823 0.40453 0.05875 0.0
H2332 H 0.02252 0.4484 0.11347 0.0
H2333 H 0.01626 0.43242 0.09438 0.0
C2334 C 0.61726 0.61189 0.04599 0.0
C2335 C 0.6312 0.6206 0.0439 0.0
C2336 C 0.61266 0.60123 0.05506 0.0
C2337 C 0.62336 0.58015 0.07345 0.0
H2338 H 0.59024 0.56946 0.09341 0.0
C2339 C 0.6027 0.53248 0.11614 0.0
C2340 C 0.584 0.52412 0.1182 0.0
C2341 C 0.61013 0.54759 0.10613 0.0
C2342 C 0.59946 0.5723 0.08785 0.0
H2343 H 0.6513 0.62503 0.04979 0.0
H2344 H 0.64328 0.6066 0.06603 0.0
H2345 H 0.59981 0.58944 0.07925 0.0
H2346 H 0.56191 0.52021 0.10642 0.0
H2347 H 0.57528 0.54425 0.09006 0.0
H2348 H 0.62302 0.56304 0.08236 0.0
C2349 C 0.63587 0.60783 0.0604 0.0
C2350 C 0.60494 0.58372 0.07968 0.0
C2351 C 0.64048 0.61843 0.05114 0.0
C2352 C 0.57286 0.52616 0.10586 0.0
C2353 C 0.58126 0.54149 0.09625 0.0
C2354 C 0.61797 0.56883 0.08183 0.0
C2355 C 0.62189 0.59909 0.06247 0.0
C2356 C 0.61679 0.58763 0.07212 0.0
C2357 C 0.59952 0.5522 0.09682 0.0
C2358 C 0.60584 0.56468 0.08886 0.0
H2359 H 0.60983 0.61318 0.04046 0.0
H2360 H 0.60183 0.59453 0.05608 0.0
H2361 H 0.6324 0.58273 0.06768 0.0
H2362 H 0.60888 0.53031 0.12275 0.0
H2363 H 0.62104 0.55404 0.10589 0.0
C2364 C 0.38801 0.00384 0.03507 0.0
C2365 C 0.37812 0.00753 0.03648 0.0
C2366 C 0.39653 0.00547 0.04594 0.0
C2367 C 0.40937 0.02058 0.07999 0.0
H2368 H 0.40792 0.9865 0.08575 0.0
C2369 C 0.42673 0.00707 0.13007 0.0
C2370 C 0.4321 0.99847 0.12898 0.0
C2371 C 0.42199 0.01039 0.11849 0.0
C2372 C 0.40871 0.9962 0.0842 0.0
H2373 H 0.37006 0.01682 0.05002 0.0
H2374 H 0.38496 0.01947 0.06933 0.0
H2375 H 0.39659 0.98887 0.06611 0.0
H2376 H 0.43724 0.98711 0.11469 0.0
H2377 H 0.42965 0.99342 0.09456 0.0
H2378 H 0.42154 0.02786 0.09823 0.0
C2379 C 0.38611 0.01539 0.05971 0.0
C2380 C 0.40214 0.99753 0.07294 0.0
C2381 C 0.37758 0.01384 0.0487 0.0
C2382 C 0.43322 0.99379 0.11597 0.0
C2383 C 0.42871 0.9973 0.1044 0.0
C2384 C 0.41609 0.01928 0.0913 0.0
C2385 C 0.39528 0.01071 0.05854 0.0
C2386 C 0.40244 0.00973 0.07065 0.0
C2387 C 0.4226 0.00524 0.10555 0.0
C2388 C 0.41588 0.00706 0.09348 0.0
H2389 H 0.38885 0.99921 0.02567 0.0
H2390 H 0.40373 0.00208 0.04466 0.0
H2391 H 0.40974 0.03009 0.07845 0.0
H2392 H 0.42567 0.01073 0.13999 0.0
H2393 H 0.41726 0.01645 0.11978 0.0
C2394 C 0.384 0.01287 0.96939 0.0
C2395 C 0.3702 0.00292 0.97004 0.0
C2396 C 0.39197 0.0128 0.9587 0.0
C2397 C 0.39457 0.99192 0.93134 0.0
H2398 H 0.41878 0.02706 0.91582 0.0
C2399 C 0.42625 0.00013 0.88211 0.0
C2400 C 0.43949 0.01143 0.88222 0.0
C2401 C 0.41751 0.99796 0.89301 0.0
C2402 C 0.41221 0.01719 0.92013 0.0
H2403 H 0.35397 0.98482 0.96019 0.0
H2404 H 0.36798 0.98482 0.94121 0.0
H2405 H 0.4038 0.02523 0.93425 0.0
H2406 H 0.45395 0.0293 0.89381 0.0
H2407 H 0.43887 0.02534 0.91294 0.0
H2408 H 0.40309 0.98393 0.91709 0.0
C2409 C 0.3726 0.99262 0.9491 0.0
C2410 C 0.40359 0.01613 0.93069 0.0
C2411 C 0.36458 0.99266 0.9599 0.0
C2412 C 0.44388 0.02041 0.89352 0.0
C2413 C 0.43519 0.01821 0.9044 0.0
C2414 C 0.40324 0.99298 0.92072 0.0
C2415 C 0.38634 0.00283 0.94831 0.0
C2416 C 0.39482 0.00354 0.93655 0.0
C2417 C 0.42182 0.00712 0.90415 0.0
C2418 C 0.41228 0.00568 0.91515 0.0
H2419 H 0.38871 0.02081 0.97714 0.0
H2420 H 0.40259 0.02062 0.95855 0.0
H2421 H 0.38795 0.98209 0.93571 0.0
H2422 H 0.42257 0.99319 0.87341 0.0
H2423 H 0.40723 0.98941 0.89246 0.0
C2424 C 0.01683 0.375 0.96351 0.0
C2425 C 0.00885 0.37438 0.9747 0.0
C2426 C 0.01924 0.38401 0.95289 0.0
C2427 C 0.0168 0.41412 0.94396 0.0
H2428 H 0.00565 0.39692 0.90817 0.0
C2429 C 0.98865 0.42763 0.9053 0.0
C2430 C 0.99136 0.42767 0.8913 0.0
C2431 C 0.99522 0.42399 0.91481 0.0
C2432 C 0.00911 0.40201 0.91801 0.0
H2433 H 0.99788 0.38325 0.98397 0.0
H2434 H 0.00207 0.3988 0.96568 0.0
H2435 H 0.00982 0.38529 0.92646 0.0
H2436 H 0.00295 0.42381 0.8763 0.0
H2437 H 0.01435 0.41723 0.89301 0.0
H2438 H 0.01527 0.43047 0.93573 0.0
C2439 C 0.00649 0.39243 0.96499 0.0
C2440 C 0.01152 0.39535 0.92848 0.0
C2441 C 0.00395 0.38338 0.97542 0.0
C2442 C 0.00085 0.42408 0.88705 0.0
C2443 C 0.00731 0.42026 0.89658 0.0
C2444 C 0.01433 0.42074 0.93352 0.0
C2445 C 0.01393 0.39269 0.95348 0.0
C2446 C 0.01479 0.40108 0.94172 0.0
C2447 C 0.00443 0.42004 0.91054 0.0
C2448 C 0.0099 0.41449 0.92061 0.0
H2449 H 0.02074 0.36819 0.96271 0.0
H2450 H 0.02503 0.38402 0.94414 0.0
H2451 H 0.01957 0.4189 0.95399 0.0
H2452 H 0.98116 0.43003 0.90888 0.0
H2453 H 0.99257 0.42363 0.92548 0.0
C2454 C 0.62124 0.64667 0.97486 0.0
C2455 C 0.62809 0.63987 0.97825 0.0
C2456 C 0.61141 0.64159 0.9645 0.0
C2457 C 0.58851 0.60997 0.94529 0.0
H2458 H 0.58551 0.63427 0.92041 0.0
C2459 C 0.55354 0.59084 0.89779 0.0
C2460 C 0.54557 0.59674 0.89553 0.0
C2461 C 0.56374 0.5962 0.90776 0.0
C2462 C 0.58616 0.62738 0.92737 0.0
H2463 H 0.63023 0.62255 0.97329 0.0
H2464 H 0.61326 0.61381 0.95508 0.0
H2465 H 0.60325 0.64351 0.93793 0.0
H2466 H 0.5425 0.61326 0.90144 0.0
H2467 H 0.56034 0.62263 0.91893 0.0
H2468 H 0.57148 0.59384 0.93464 0.0
C2469 C 0.61528 0.62293 0.96058 0.0
C2470 C 0.5963 0.63266 0.93741 0.0
C2471 C 0.62506 0.62798 0.97096 0.0
C2472 C 0.54832 0.60837 0.90315 0.0
C2473 C 0.55858 0.61378 0.91307 0.0
C2474 C 0.57842 0.60469 0.9352 0.0
C2475 C 0.60826 0.62962 0.95729 0.0
C2476 C 0.59758 0.62402 0.9465 0.0
C2477 C 0.56635 0.6077 0.91552 0.0
C2478 C 0.57713 0.61334 0.92616 0.0
H2479 H 0.62332 0.65583 0.98032 0.0
H2480 H 0.60608 0.6469 0.96235 0.0
H2481 H 0.58906 0.60305 0.95227 0.0
H2482 H 0.55189 0.58208 0.89182 0.0
H2483 H 0.56972 0.59145 0.90927 0.0
C2484 C 0.01033 0.64069 0.96843 0.0
C2485 C -0.0008 0.63255 0.97677 0.0
C2486 C 0.01361 0.63491 0.95747 0.0
C2487 C 0.99862 0.6043 0.93502 0.0
H2488 H 0.03607 0.61588 0.92698 0.0
C2489 C 0.0314 0.58583 0.90077 0.0
C2490 C 0.02413 0.58256 0.88839 0.0
C2491 C 0.02841 0.59207 0.91147 0.0
C2492 C 0.02556 0.61246 0.92916 0.0
H2493 H 0.98297 0.61192 0.98032 0.0
H2494 H 0.98881 0.6019 0.96149 0.0
H2495 H 0.0309 0.62656 0.94591 0.0
H2496 H 0.00829 0.58352 0.87738 0.0
H2497 H 0.00308 0.59447 0.89603 0.0
H2498 H 0.99324 0.58995 0.91855 0.0
C2499 C 0.99483 0.61277 0.96316 0.0
C2500 C 0.0226 0.61871 0.9399 0.0
C2501 C 0.99153 0.61853 0.97403 0.0
C2502 C 0.01388 0.58573 0.88689 0.0
C2503 C 0.0109 0.59197 0.89759 0.0
C2504 C 0.00157 0.59805 0.92432 0.0
C2505 C 0.00584 0.62089 0.95468 0.0
C2506 C 0.00909 0.61464 0.943 0.0
C2507 C 0.01816 0.59526 0.90998 0.0
C2508 C 0.01506 0.60202 0.9213 0.0
H2509 H 0.01642 0.65152 0.97027 0.0
H2510 H 0.02208 0.64146 0.95106 0.0
H2511 H 0.9881 0.60104 0.93701 0.0
H2512 H 0.03947 0.58366 0.90211 0.0
H2513 H 0.03409 0.59432 0.92094 0.0
C2514 C 0.38228 0.39024 0.96144 0.0
C2515 C 0.36955 0.38526 0.96758 0.0
C2516 C 0.38682 0.40045 0.95176 0.0
C2517 C 0.38049 0.42723 0.93963 0.0
H2518 H 0.39997 0.42657 0.90752 0.0
C2519 C 0.39414 0.45213 0.88307 0.0
C2520 C 0.39726 0.46535 0.88648 0.0
C2521 C 0.3926 0.44308 0.89325 0.0
C2522 C 0.39449 0.42687 0.9164 0.0
H2523 H 0.35146 0.38678 0.96815 0.0
H2524 H 0.35917 0.40425 0.95108 0.0
H2525 H 0.39307 0.40897 0.92449 0.0
H2526 H 0.40135 0.47954 0.90326 0.0
H2527 H 0.39921 0.46395 0.92101 0.0
H2528 H 0.38127 0.44467 0.93131 0.0
C2529 C 0.36585 0.4006 0.95397 0.0
C2530 C 0.39067 0.41687 0.92622 0.0
C2531 C 0.36137 0.3905 0.9637 0.0
C2532 C 0.39912 0.46946 0.90029 0.0
C2533 C 0.39773 0.46046 0.91047 0.0
C2534 C 0.3842 0.43714 0.9298 0.0
C2535 C 0.37868 0.40582 0.94798 0.0
C2536 C 0.38346 0.41683 0.93786 0.0
C2537 C 0.39416 0.44706 0.9071 0.0
C2538 C 0.39113 0.43703 0.91798 0.0
H2539 H 0.38881 0.38639 0.96426 0.0
H2540 H 0.3968 0.40431 0.94743 0.0
H2541 H 0.37517 0.42767 0.94859 0.0
H2542 H 0.39243 0.44865 0.87252 0.0
H2543 H 0.38963 0.43279 0.89026 0.0
C2544 C 0.63665 0.0102 0.96666 0.0
C2545 C 0.63637 -0.00013 0.97439 0.0
C2546 C 0.62772 0.00708 0.95573 0.0
C2547 C 0.60379 0.9792 0.93241 0.0
H2548 H 0.58983 0.00336 0.92732 0.0
C2549 C 0.5608 0.96882 0.89399 0.0
C2550 C 0.56394 0.97957 0.88517 0.0
C2551 C 0.56923 0.97069 0.90512 0.0
C2552 C 0.59369 0.99656 0.9286 0.0
H2553 H 0.62675 0.97813 0.97654 0.0
H2554 H 0.61075 0.9726 0.9576 0.0
H2555 H 0.60529 0.00746 0.94622 0.0
H2556 H 0.57796 0.00085 0.8815 0.0
H2557 H 0.59252 0.00419 0.90114 0.0
H2558 H 0.59183 0.96817 0.91485 0.0
C2559 C 0.61807 0.98315 0.95985 0.0
C2560 C 0.60261 0.99893 0.93937 0.0
C2561 C 0.62721 0.98629 0.97072 0.0
C2562 C 0.57538 0.99235 0.88802 0.0
C2563 C 0.58368 0.99427 0.89927 0.0
C2564 C 0.59469 0.97672 0.92171 0.0
C2565 C 0.61809 0.99353 0.95237 0.0
C2566 C 0.60798 0.99043 0.94129 0.0
C2567 C 0.58075 0.98343 0.90785 0.0
C2568 C 0.58973 0.98551 0.91961 0.0
H2569 H 0.64375 0.02077 0.96911 0.0
H2570 H 0.62835 0.01534 0.94996 0.0
H2571 H 0.60779 0.97251 0.93348 0.0
H2572 H 0.55187 0.95895 0.89222 0.0
H2573 H 0.56666 0.96224 0.91171 0.0
C2574 C 0.64651 0.01736 0.05307 0.0
C2575 C 0.63989 0.00617 0.04407 0.0
C2576 C 0.63929 0.01945 0.06337 0.0
C2577 C 0.60741 0.00199 0.08303 0.0
H2578 H 0.61614 0.03874 0.0914 0.0
C2579 C 0.58795 0.01636 0.1312 0.0
C2580 C 0.58473 0.02659 0.13014 0.0
C2581 C 0.59365 0.01317 0.12019 0.0
C2582 C 0.61344 0.02839 0.08909 0.0
H2583 H 0.62052 0.98837 0.03882 0.0
H2584 H 0.60789 0.99217 0.05662 0.0
H2585 H 0.62807 0.03462 0.07316 0.0
H2586 H 0.58499 0.04156 0.11675 0.0
H2587 H 0.59456 0.03575 0.09737 0.0
H2588 H 0.59255 0.99574 0.0988 0.0
C2589 C 0.61869 0.99921 0.05588 0.0
C2590 C 0.62044 0.02605 0.07876 0.0
C2591 C 0.62592 0.99708 0.04563 0.0
C2592 C 0.58718 0.03348 0.11779 0.0
C2593 C 0.5928 0.03025 0.10675 0.0
C2594 C 0.60036 0.00432 0.09334 0.0
C2595 C 0.62528 0.01045 0.06486 0.0
C2596 C 0.61759 0.01284 0.07567 0.0
C2597 C 0.59631 0.02021 0.10789 0.0
C2598 C 0.60334 0.01757 0.09655 0.0
H2599 H 0.65728 0.0245 0.05218 0.0
H2600 H 0.64474 0.02808 0.07026 0.0
H2601 H 0.60503 0.99169 0.08099 0.0
H2602 H 0.58639 0.01106 0.1407 0.0
H2603 H 0.59642 0.00553 0.12149 0.0
C2604 C 0.98164 0.62956 0.05346 0.0
C2605 C 0.99294 0.63406 0.04492 0.0
C2606 C 0.97917 0.62022 0.06365 0.0
C2607 C 0.99549 0.60514 0.08368 0.0
H2608 H 0.95833 0.57643 0.08922 0.0
C2609 C 0.96289 0.5508 0.11314 0.0
C2610 C 0.96941 0.55444 0.12594 0.0
C2611 C 0.96631 0.56054 0.10315 0.0
C2612 C 0.96878 0.58429 0.08771 0.0
H2613 H 0.01061 0.63244 0.04048 0.0
H2614 H 0.00618 0.61596 0.05808 0.0
H2615 H 0.96325 0.59345 0.07215 0.0
H2616 H 0.98445 0.57112 0.1384 0.0
H2617 H 0.99037 0.58821 0.121 0.0
H2618 H 0.00103 0.59574 0.09903 0.0
C2619 C -0.00067 0.61979 0.05706 0.0
C2620 C 0.97158 0.59418 0.07806 0.0
C2621 C 0.00183 0.62918 0.04692 0.0
C2622 C 0.97944 0.56801 0.12853 0.0
C2623 C 0.98284 0.57777 0.11856 0.0
C2624 C 0.99268 0.59522 0.09332 0.0
C2625 C 0.98791 0.61512 0.06549 0.0
C2626 C 0.98497 0.60473 0.07593 0.0
C2627 C 0.97622 0.57417 0.10579 0.0
C2628 C 0.97929 0.58466 0.09544 0.0
H2629 H 0.97466 0.6332 0.05224 0.0
H2630 H 0.97042 0.61701 0.07012 0.0
H2631 H 0.0059 0.6132 0.08239 0.0
H2632 H 0.95498 0.54044 0.11094 0.0
H2633 H 0.96113 0.55739 0.09337 0.0
C2634 C 0.389 0.36547 0.03987 0.0
C2635 C 0.38722 0.37582 0.03469 0.0
C2636 C 0.39828 0.36825 0.05048 0.0
C2637 C 0.41659 0.39326 0.07837 0.0
H2638 H 0.43849 0.37638 0.07938 0.0
C2639 C 0.46443 0.39699 0.11075 0.0
C2640 C 0.46029 0.3977 0.1241 0.0
C2641 C 0.45587 0.39474 0.09962 0.0
C2642 C 0.43255 0.38129 0.07918 0.0
H2643 H 0.39411 0.39728 0.03633 0.0
H2644 H 0.41038 0.40212 0.05454 0.0
H2645 H 0.42312 0.37165 0.06015 0.0
H2646 H 0.44388 0.39635 0.13629 0.0
H2647 H 0.42888 0.39234 0.1169 0.0
H2648 H 0.42619 0.40311 0.09724 0.0
C2649 C 0.40441 0.3918 0.05067 0.0
C2650 C 0.4236 0.37843 0.06824 0.0
C2651 C 0.39511 0.38903 0.04015 0.0
C2652 C 0.44742 0.39609 0.12609 0.0
C2653 C 0.43885 0.39383 0.11497 0.0
C2654 C 0.42554 0.39613 0.08928 0.0
C2655 C 0.406 0.38143 0.05609 0.0
C2656 C 0.41552 0.38439 0.06771 0.0
C2657 C 0.44293 0.39303 0.10161 0.0
C2658 C 0.43361 0.39017 0.08984 0.0
H2659 H 0.38305 0.35518 0.03592 0.0
H2660 H 0.39916 0.35999 0.0545 0.0
H2661 H 0.41039 0.39789 0.07839 0.0
H2662 H 0.47423 0.39799 0.10895 0.0
H2663 H 0.45939 0.39433 0.08946 0.0
C2664 C 0.66524 0.70612 0.38496 0.0
C2665 C 0.65631 0.69434 0.37746 0.0
C2666 C 0.66031 0.71135 0.39492 0.0
C2667 C 0.63018 0.70215 0.41635 0.0
H2668 H 0.64578 0.74109 0.41915 0.0
C2669 C 0.60578 0.72707 0.44795 0.0
C2670 C 0.61457 0.73842 0.45607 0.0
C2671 C 0.61096 0.72162 0.43851 0.0
C2672 C 0.6414 0.73021 0.41857 0.0
H2673 H 0.6352 0.67873 0.37457 0.0
H2674 H 0.62657 0.68796 0.39172 0.0
H2675 H 0.65471 0.73166 0.4025 0.0
H2676 H 0.63568 0.7526 0.4611 0.0
H2677 H 0.64472 0.74321 0.44447 0.0
H2678 H 0.61674 0.70074 0.4323 0.0
C2679 C 0.63742 0.69306 0.39011 0.0
C2680 C 0.64655 0.72479 0.40906 0.0
C2681 C 0.64236 0.68781 0.38022 0.0
C2682 C 0.62866 0.74406 0.45474 0.0
C2683 C 0.63383 0.73869 0.44523 0.0
C2684 C 0.62499 0.70757 0.4258 0.0
C2685 C 0.64632 0.70493 0.39755 0.0
C2686 C 0.64099 0.7107 0.40783 0.0
C2687 C 0.62503 0.72741 0.43702 0.0
C2688 C 0.63054 0.72165 0.427 0.0
H2689 H 0.67605 0.71135 0.38311 0.0
H2690 H 0.66747 0.72038 0.4006 0.0
H2691 H 0.62581 0.69127 0.41583 0.0
H2692 H 0.59489 0.72238 0.44895 0.0
H2693 H 0.60394 0.71296 0.43228 0.0
C2694 C 0.30198 0.95055 0.3927 0.0
C2695 C 0.29261 0.9532 0.38632 0.0
C2696 C 0.2976 0.94003 0.402 0.0
C2697 C 0.26761 0.91635 0.42276 0.0
H2698 H 0.28432 0.89426 0.42155 0.0
C2699 C 0.2351 0.85784 0.44685 0.0
C2700 C 0.24652 0.85456 0.45751 0.0
C2701 C 0.24349 0.87362 0.43798 0.0
C2702 C 0.27967 0.90044 0.42213 0.0
H2703 H 0.27131 0.9469 0.38477 0.0
H2704 H 0.26365 0.92837 0.40054 0.0
H2705 H 0.29349 0.91447 0.40769 0.0
H2706 H 0.27123 0.85942 0.45964 0.0
H2707 H 0.2833 0.884 0.44404 0.0
H2708 H 0.25346 0.90193 0.43676 0.0
C2709 C 0.27443 0.93461 0.39872 0.0
C2710 C 0.28494 0.91207 0.41421 0.0
C2711 C 0.27881 0.94521 0.38957 0.0
C2712 C 0.26497 0.8623 0.45409 0.0
C2713 C 0.27239 0.87794 0.44493 0.0
C2714 C 0.26223 0.90462 0.43048 0.0
C2715 C 0.28374 0.93182 0.40502 0.0
C2716 C 0.27886 0.92007 0.41427 0.0
C2717 C 0.2618 0.88367 0.43749 0.0
C2718 C 0.26811 0.8965 0.43009 0.0
H2719 H 0.3127 0.95659 0.39047 0.0
H2720 H 0.3051 0.93835 0.40681 0.0
H2721 H 0.26286 0.92243 0.42337 0.0
H2722 H 0.2242 0.85226 0.44808 0.0
H2723 H 0.23747 0.87705 0.43286 0.0
C2724 C 0.05822 0.3571 0.37841 0.0
C2725 C 0.05185 0.34313 0.37544 0.0
C2726 C 0.06789 0.36295 0.3889 0.0
C2727 C 0.07937 0.35486 0.42045 0.0
H2728 H 0.11381 0.38732 0.41328 0.0
C2729 C 0.12502 0.37372 0.45698 0.0
C2730 C 0.13376 0.38776 0.45881 0.0
C2731 C 0.11479 0.36866 0.44704 0.0
C2732 C 0.10418 0.37839 0.41555 0.0
H2733 H 0.05052 0.32432 0.3813 0.0
H2734 H 0.06728 0.33452 0.39964 0.0
H2735 H 0.09621 0.3779 0.39564 0.0
H2736 H 0.13814 0.4075 0.45221 0.0
H2737 H 0.12009 0.3987 0.435 0.0
H2738 H 0.0872 0.35536 0.44037 0.0
C2739 C 0.06478 0.34094 0.39387 0.0
C2740 C 0.09411 0.37298 0.40542 0.0
C2741 C 0.05524 0.33512 0.3833 0.0
C2742 C 0.13176 0.39663 0.45078 0.0
C2743 C 0.12145 0.39158 0.4409 0.0
C2744 C 0.08938 0.36033 0.43062 0.0
C2745 C 0.07126 0.35492 0.39673 0.0
C2746 C 0.08166 0.36108 0.40772 0.0
C2747 C 0.11286 0.37752 0.43887 0.0
C2748 C 0.10198 0.37207 0.42825 0.0
H2749 H 0.05585 0.36356 0.37254 0.0
H2750 H 0.07266 0.37374 0.39096 0.0
H2751 H 0.06979 0.34579 0.42257 0.0
H2752 H 0.12611 0.36662 0.46322 0.0
H2753 H 0.10849 0.35778 0.44569 0.0
C2754 C 0.04995 0.33274 0.29901 0.0
C2755 C 0.03802 0.32363 0.30585 0.0
C2756 C 0.05472 0.32821 0.28823 0.0
C2757 C 0.05349 0.2978 0.27429 0.0
H2758 H 0.06501 0.31779 0.24062 0.0
C2759 C 0.0677 0.27723 0.22701 0.0
C2760 C 0.07899 0.28657 0.2195 0.0
C2761 C 0.06236 0.28171 0.23727 0.0
C2762 C 0.062 0.31218 0.25001 0.0
H2763 H 0.02176 0.30265 0.30681 0.0
H2764 H 0.03017 0.29475 0.28806 0.0
H2765 H 0.05661 0.32583 0.25926 0.0
H2766 H 0.09306 0.30795 0.21633 0.0
H2767 H 0.08404 0.31577 0.23453 0.0
H2768 H 0.05909 0.28428 0.26522 0.0
C2769 C 0.03582 0.30537 0.29105 0.0
C2770 C 0.05716 0.31678 0.26066 0.0
C2771 C 0.03098 0.30991 0.30173 0.0
C2772 C 0.08453 0.30051 0.22216 0.0
C2773 C 0.07926 0.30498 0.23248 0.0
C2774 C 0.05843 0.29325 0.26369 0.0
C2775 C 0.04772 0.31448 0.28419 0.0
C2776 C 0.05286 0.30962 0.27289 0.0
C2777 C 0.06815 0.29563 0.24022 0.0
C2778 C 0.06274 0.30039 0.25142 0.0
H2779 H 0.05557 0.34337 0.30195 0.0
H2780 H 0.06398 0.33542 0.28318 0.0
H2781 H 0.05039 0.29218 0.28368 0.0
H2782 H 0.06304 0.26646 0.22494 0.0
H2783 H 0.05361 0.27424 0.24282 0.0
C2784 C 0.67178 0.71709 0.30425 0.0
C2785 C 0.67913 0.71185 0.3105 0.0
C2786 C 0.67786 0.72725 0.29462 0.0
C2787 C 0.70654 0.74352 0.27074 0.0
H2788 H 0.69677 0.77131 0.2709 0.0
C2789 C 0.72987 0.7898 0.23456 0.0
C2790 C 0.72041 0.79233 0.22819 0.0
C2791 C 0.72582 0.78025 0.2449 0.0
C2792 C 0.69955 0.76359 0.2707 0.0
H2793 H 0.69868 0.71317 0.31139 0.0
H2794 H 0.7094 0.73115 0.29461 0.0
H2795 H 0.68825 0.75444 0.2887 0.0
H2796 H 0.69911 0.78616 0.22708 0.0
H2797 H 0.69213 0.7698 0.24535 0.0
H2798 H 0.71792 0.75286 0.25269 0.0
C2799 C 0.69885 0.72724 0.29711 0.0
C2800 C 0.69465 0.75389 0.28087 0.0
C2801 C 0.69273 0.71698 0.30677 0.0
C2802 C 0.70673 0.78478 0.23207 0.0
C2803 C 0.70273 0.77539 0.24251 0.0
C2804 C 0.71155 0.75334 0.2606 0.0
C2805 C 0.69149 0.73256 0.29101 0.0
C2806 C 0.69782 0.74355 0.28086 0.0
C2807 C 0.71224 0.7731 0.24909 0.0
C2808 C 0.70787 0.76329 0.26034 0.0
H2809 H 0.66126 0.71333 0.30676 0.0
H2810 H 0.67178 0.73086 0.28991 0.0
H2811 H 0.70911 0.73565 0.27037 0.0
H2812 H 0.74042 0.79525 0.23154 0.0
H2813 H 0.73334 0.77864 0.24978 0.0
C2814 C 0.2839 0.95674 0.31113 0.0
C2815 C 0.28767 0.96898 0.31808 0.0
C2816 C 0.27469 0.95235 0.30024 0.0
C2817 C 0.2592 0.96455 0.27528 0.0
H2818 H 0.23251 0.92628 0.27119 0.0
C2819 C 0.21345 0.94342 0.23807 0.0
C2820 C 0.2106 0.93183 0.23033 0.0
C2821 C 0.22313 0.94819 0.24855 0.0
C2822 C 0.23999 0.93698 0.27215 0.0
H2823 H 0.2847 0.98619 0.31915 0.0
H2824 H 0.26838 0.97839 0.30037 0.0
H2825 H 0.24871 0.93409 0.2901 0.0
H2826 H 0.21627 0.91662 0.22696 0.0
H2827 H 0.233 0.92481 0.24546 0.0
H2828 H 0.25024 0.96741 0.25742 0.0
C2829 C 0.27274 0.9723 0.30312 0.0
C2830 C 0.24929 0.94147 0.28295 0.0
C2831 C 0.28203 0.97674 0.31395 0.0
C2832 C 0.21797 0.92535 0.233 0.0
C2833 C 0.22754 0.93004 0.24357 0.0
C2834 C 0.24981 0.96007 0.26454 0.0
C2835 C 0.26896 0.96006 0.29612 0.0
C2836 C 0.25904 0.9553 0.28463 0.0
C2837 C 0.23016 0.94145 0.25149 0.0
C2838 C 0.24013 0.94624 0.26286 0.0
H2839 H 0.28814 0.95058 0.31403 0.0
H2840 H 0.27218 0.94298 0.29494 0.0
H2841 H 0.26671 0.97525 0.27613 0.0
H2842 H 0.20811 0.94875 0.23603 0.0
H2843 H 0.22495 0.95701 0.25451 0.0
C2844 C 0.67363 0.94458 0.3051 0.0
C2845 C 0.68045 0.95576 0.31408 0.0
C2846 C 0.6807 0.94197 0.29509 0.0
C2847 C 0.71325 0.9585 0.27625 0.0
H2848 H 0.70036 0.92156 0.26391 0.0
C2849 C 0.74029 0.94398 0.23506 0.0
C2850 C 0.73187 0.93683 0.22383 0.0
C2851 C 0.73476 0.94584 0.24706 0.0
C2852 C 0.70406 0.93191 0.2673 0.0
H2853 H 0.70014 0.9728 0.31984 0.0
H2854 H 0.71262 0.96795 0.30267 0.0
H2855 H 0.68972 0.92574 0.28347 0.0
H2856 H 0.71104 0.92537 0.21666 0.0
H2857 H 0.70135 0.92826 0.23781 0.0
H2858 H 0.72778 0.96456 0.26013 0.0
C2859 C 0.70172 0.96141 0.30309 0.0
C2860 C 0.69792 0.93435 0.27843 0.0
C2861 C 0.69458 0.96415 0.31299 0.0
C2862 C 0.71777 0.93102 0.22509 0.0
C2863 C 0.71223 0.93263 0.23718 0.0
C2864 C 0.71955 0.95604 0.26527 0.0
C2865 C 0.69485 0.95033 0.29392 0.0
C2866 C 0.70223 0.94769 0.28288 0.0
C2867 C 0.7207 0.94024 0.24817 0.0
C2868 C 0.71484 0.94274 0.26055 0.0
H2869 H 0.66272 0.93799 0.30558 0.0
H2870 H 0.67497 0.93354 0.28806 0.0
H2871 H 0.71675 0.96892 0.2792 0.0
H2872 H 0.75116 0.94834 0.23447 0.0
H2873 H 0.74146 0.95163 0.25547 0.0
C2874 C 0.0475 0.72733 0.30052 0.0
C2875 C 0.03438 0.72141 0.30597 0.0
C2876 C 0.05175 0.73734 0.29064 0.0
C2877 C 0.04342 0.76203 0.27642 0.0
H2878 H 0.06578 0.76287 0.24627 0.0
C2879 C 0.06056 0.78762 0.22018 0.0
C2880 C 0.06308 0.8007 0.22331 0.0
C2881 C 0.05839 0.77854 0.23056 0.0
C2882 C 0.05948 0.76275 0.25458 0.0
H2883 H 0.01535 0.72116 0.30518 0.0
H2884 H 0.02262 0.73835 0.28777 0.0
H2885 H 0.05881 0.74551 0.26348 0.0
H2886 H 0.06528 0.81453 0.2398 0.0
H2887 H 0.06195 0.79887 0.25797 0.0
H2888 H 0.0436 0.77889 0.26726 0.0
C2889 C 0.02976 0.73552 0.29132 0.0
C2890 C 0.05561 0.75288 0.26455 0.0
C2891 C 0.02555 0.72559 0.30124 0.0
C2892 C 0.06357 0.80459 0.23708 0.0
C2893 C 0.0615 0.79555 0.24747 0.0
C2894 C 0.04722 0.77184 0.26642 0.0
C2895 C 0.04294 0.7416 0.28596 0.0
C2896 C 0.04744 0.75233 0.27554 0.0
C2897 C 0.05865 0.78232 0.24434 0.0
C2898 C 0.05523 0.77228 0.25533 0.0
H2899 H 0.05455 0.72435 0.30399 0.0
H2900 H 0.06201 0.74189 0.28686 0.0
H2901 H 0.03731 0.76207 0.28484 0.0
H2902 H 0.05986 0.78428 0.20964 0.0
H2903 H 0.056 0.76838 0.22774 0.0
C2904 C 0.28585 0.33185 0.29957 0.0
C2905 C 0.28827 0.32435 0.30917 0.0
C2906 C 0.27615 0.32531 0.28925 0.0
C2907 C 0.25563 0.29207 0.27116 0.0
H2908 H 0.23542 0.30869 0.25882 0.0
C2909 C 0.21148 0.26653 0.23177 0.0
C2910 C 0.21288 0.27464 0.22056 0.0
C2911 C 0.21987 0.27216 0.24327 0.0
C2912 C 0.24101 0.30396 0.26216 0.0
H2913 H 0.28235 0.30406 0.31549 0.0
H2914 H 0.26505 0.29259 0.29773 0.0
H2915 H 0.2515 0.31907 0.2777 0.0
H2916 H 0.22364 0.2951 0.21292 0.0
H2917 H 0.23808 0.30499 0.23315 0.0
H2918 H 0.24483 0.27682 0.25569 0.0
C2919 C 0.27089 0.30356 0.29796 0.0
C2920 C 0.2503 0.30994 0.27292 0.0
C2921 C 0.28077 0.31012 0.30819 0.0
C2922 C 0.22241 0.28859 0.22136 0.0
C2923 C 0.23063 0.29426 0.23294 0.0
C2924 C 0.24616 0.28599 0.26052 0.0
C2925 C 0.26842 0.31108 0.28837 0.0
C2926 C 0.25792 0.30421 0.27743 0.0
C2927 C 0.22959 0.28606 0.24391 0.0
C2928 C 0.23892 0.29199 0.25579 0.0
H2929 H 0.29156 0.34283 0.29993 0.0
H2930 H 0.27483 0.33148 0.28188 0.0
H2931 H 0.26139 0.28744 0.27419 0.0
H2932 H 0.20405 0.2558 0.23155 0.0
H2933 H 0.21876 0.26566 0.25167 0.0
C2934 C 0.29211 0.33915 0.38593 0.0
C2935 C 0.30235 0.34829 0.37723 0.0
C2936 C 0.2873 0.34391 0.39648 0.0
C2937 C 0.28438 0.37296 0.40773 0.0
H2938 H 0.28459 0.36077 0.44434 0.0
C2939 C 0.28153 0.4013 0.45558 0.0
C2940 C 0.2754 0.39395 0.4674 0.0
C2941 C 0.28307 0.39488 0.44406 0.0
C2942 C 0.28417 0.3641 0.43417 0.0
H2943 H 0.31533 0.36953 0.37251 0.0
H2944 H 0.30678 0.37782 0.39081 0.0
H2945 H 0.2903 0.35096 0.42508 0.0
H2946 H 0.2654 0.37398 0.47618 0.0
H2947 H 0.26761 0.36261 0.45593 0.0
H2948 H 0.27815 0.38602 0.41672 0.0
C2949 C 0.30252 0.36699 0.38949 0.0
C2950 C 0.2875 0.3585 0.42315 0.0
C2951 C 0.30747 0.36225 0.37909 0.0
C2952 C 0.27029 0.37992 0.46725 0.0
C2953 C 0.27166 0.37344 0.45567 0.0
C2954 C 0.28085 0.37844 0.41873 0.0
C2955 C 0.29248 0.35788 0.39836 0.0
C2956 C 0.28786 0.36304 0.40986 0.0
C2957 C 0.27832 0.38088 0.44402 0.0
C2958 C 0.28093 0.37425 0.43214 0.0
H2959 H 0.28797 0.32833 0.38474 0.0
H2960 H 0.27951 0.33668 0.40315 0.0
H2961 H 0.28442 0.37651 0.39755 0.0
H2962 H 0.28548 0.41212 0.45539 0.0
H2963 H 0.2884 0.401 0.43538 0.0
C2964 C 0.66152 0.94503 0.38589 0.0
C2965 C 0.65355 0.94972 0.37994 0.0
C2966 C 0.65597 0.93487 0.39567 0.0
C2967 C 0.62268 0.90747 0.40781 0.0
H2968 H 0.64281 0.90842 0.43997 0.0
C2969 C 0.61061 0.88258 0.46425 0.0
C2970 C 0.60036 0.8693 0.46081 0.0
C2971 C 0.61844 0.89162 0.45412 0.0
C2972 C 0.63704 0.90803 0.43106 0.0
H2973 H 0.63373 0.94784 0.37996 0.0
H2974 H 0.62422 0.93045 0.39714 0.0
H2975 H 0.65372 0.92618 0.42308 0.0
H2976 H 0.5904 0.85502 0.44402 0.0
H2977 H 0.60438 0.87062 0.42634 0.0
H2978 H 0.60582 0.88976 0.41598 0.0
C2979 C 0.6346 0.93428 0.39402 0.0
C2980 C 0.64334 0.91813 0.4213 0.0
C2981 C 0.6401 0.94434 0.38423 0.0
C2982 C 0.59834 0.86514 0.44701 0.0
C2983 C 0.60626 0.87414 0.43688 0.0
C2984 C 0.61637 0.89745 0.41756 0.0
C2985 C 0.64238 0.92925 0.39971 0.0
C2986 C 0.63615 0.91809 0.40968 0.0
C2987 C 0.6162 0.8876 0.44027 0.0
C2988 C 0.6234 0.89767 0.4294 0.0
H2989 H 0.67192 0.949 0.38277 0.0
H2990 H 0.66222 0.93118 0.39982 0.0
H2991 H 0.61691 0.90697 0.39885 0.0
H2992 H 0.61222 0.8861 0.47479 0.0
H2993 H 0.62583 0.90195 0.45711 0.0
C2994 C 0.05464 0.72378 0.3835 0.0
C2995 C 0.05214 0.71375 0.3736 0.0
C2996 C 0.0639 0.72667 0.3941 0.0
C2997 C 0.08161 0.71192 0.41236 0.0
H2998 H 0.10239 0.74823 0.428 0.0
C2999 C 0.12159 0.72619 0.45506 0.0
C3000 C 0.1196 0.73235 0.46666 0.0
C3001 C 0.11457 0.72477 0.44292 0.0
C3002 C 0.09663 0.73805 0.42371 0.0
H3003 H 0.05771 0.69916 0.36682 0.0
H3004 H 0.07424 0.70453 0.38502 0.0
H3005 H 0.08807 0.74412 0.40797 0.0
H3006 H 0.10926 0.74246 0.47443 0.0
H3007 H 0.09719 0.74022 0.45308 0.0
H3008 H 0.09041 0.70595 0.42804 0.0
C3009 C 0.06875 0.7099 0.38487 0.0
C3010 C 0.08836 0.73565 0.41229 0.0
C3011 C 0.05932 0.70686 0.37437 0.0
C3012 C 0.11092 0.7376 0.46567 0.0
C3013 C 0.10407 0.73637 0.45346 0.0
C3014 C 0.09005 0.71437 0.42364 0.0
C3015 C 0.07107 0.71974 0.39497 0.0
C3016 C 0.08057 0.72251 0.40658 0.0
C3017 C 0.10564 0.72972 0.44206 0.0
C3018 C 0.09749 0.72741 0.42953 0.0
H3019 H 0.04919 0.72921 0.38325 0.0
H3020 H 0.06518 0.73413 0.4018 0.0
H3021 H 0.07562 0.70162 0.40844 0.0
H3022 H 0.12837 0.72223 0.45549 0.0
H3023 H 0.11606 0.71973 0.43421 0.0
C3024 C 0.30817 0.02594 0.70729 0.0
C3025 C 0.32169 0.03363 0.70299 0.0
C3026 C 0.30334 0.03083 0.71766 0.0
C3027 C 0.31082 0.06242 0.73592 0.0
H3028 H 0.28688 0.03776 0.7633 0.0
C3029 C 0.29735 0.08091 0.78521 0.0
C3030 C 0.28353 0.0742 0.78865 0.0
C3031 C 0.30188 0.07581 0.77477 0.0
C3032 C 0.29347 0.04473 0.75565 0.0
H3033 H 0.34078 0.05243 0.70621 0.0
H3034 H 0.33242 0.06085 0.72449 0.0
H3035 H 0.29503 0.0292 0.7449 0.0
H3036 H 0.26382 0.05648 0.7845 0.0
H3037 H 0.27178 0.04751 0.76623 0.0
H3038 H 0.30937 0.07797 0.7468 0.0
C3039 C 0.32548 0.05116 0.71969 0.0
C3040 C 0.29811 0.03984 0.7451 0.0
C3041 C 0.33029 0.04629 0.70928 0.0
C3042 C 0.27447 0.06198 0.78185 0.0
C3043 C 0.27903 0.05681 0.77148 0.0
C3044 C 0.30625 0.06732 0.74651 0.0
C3045 C 0.31194 0.04348 0.724 0.0
C3046 C 0.30686 0.04863 0.73512 0.0
C3047 C 0.29276 0.06377 0.76774 0.0
C3048 C 0.29755 0.05852 0.75649 0.0
H3049 H 0.30128 0.01617 0.70258 0.0
H3050 H 0.29281 0.02476 0.72061 0.0
H3051 H 0.31735 0.06941 0.72826 0.0
H3052 H 0.30463 0.09015 0.79053 0.0
H3053 H 0.31257 0.08123 0.77226 0.0
C3054 C 0.97189 0.27857 0.7109 0.0
C3055 C 0.96229 0.27944 0.70274 0.0
C3056 C 0.96769 0.26849 0.72073 0.0
C3057 C 0.93709 0.24429 0.74019 0.0
H3058 H 0.95683 0.2256 0.7459 0.0
C3059 C 0.90687 0.18854 0.77001 0.0
C3060 C 0.91837 0.18742 0.78262 0.0
C3061 C 0.91482 0.20343 0.75972 0.0
C3062 C 0.95132 0.23085 0.74455 0.0
H3063 H 0.94079 0.27018 0.69826 0.0
H3064 H 0.93356 0.25252 0.71498 0.0
H3065 H 0.96556 0.2443 0.72997 0.0
H3066 H 0.94349 0.19445 0.7872 0.0
H3067 H 0.95493 0.21738 0.76928 0.0
H3068 H 0.92266 0.23058 0.75446 0.0
C3069 C 0.94429 0.25981 0.71416 0.0
C3070 C 0.95632 0.24159 0.73543 0.0
C3071 C 0.94846 0.2699 0.70446 0.0
C3072 C 0.93708 0.19611 0.7804 0.0
C3073 C 0.94405 0.21075 0.76971 0.0
C3074 C 0.93203 0.23349 0.74916 0.0
C3075 C 0.95381 0.25903 0.72253 0.0
C3076 C 0.94914 0.2483 0.73297 0.0
C3077 C 0.93304 0.21455 0.75998 0.0
C3078 C 0.93899 0.22656 0.75127 0.0
H3079 H 0.98262 0.28579 0.70987 0.0
H3080 H 0.97529 0.26826 0.72707 0.0
H3081 H 0.93148 0.24945 0.73886 0.0
H3082 H 0.89594 0.18239 0.77071 0.0
H3083 H 0.90858 0.20565 0.75326 0.0
C3084 C 0.71909 0.67295 0.71398 0.0
C3085 C 0.71555 0.6803 0.7053 0.0
C3086 C 0.72851 0.67948 0.72451 0.0
C3087 C 0.75765 0.71177 0.73496 0.0
H3088 H 0.74989 0.69592 0.77088 0.0
C3089 C 0.79607 0.73523 0.77994 0.0
C3090 C 0.79729 0.72607 0.78832 0.0
C3091 C 0.78568 0.73055 0.77017 0.0
C3092 C 0.75229 0.70041 0.76088 0.0
H3093 H 0.7192 0.70034 0.70082 0.0
H3094 H 0.73596 0.71186 0.7192 0.0
H3095 H 0.7325 0.68616 0.75309 0.0
H3096 H 0.7882 0.70489 0.79344 0.0
H3097 H 0.77042 0.69668 0.77613 0.0
H3098 H 0.77761 0.72572 0.74256 0.0
C3099 C 0.73131 0.70099 0.71783 0.0
C3100 C 0.74229 0.69485 0.75072 0.0
C3101 C 0.7217 0.6944 0.70736 0.0
C3102 C 0.7877 0.71217 0.78694 0.0
C3103 C 0.77739 0.70749 0.77713 0.0
C3104 C 0.76773 0.71727 0.7451 0.0
C3105 C 0.73474 0.69356 0.72653 0.0
C3106 C 0.74494 0.70033 0.7376 0.0
C3107 C 0.77622 0.71661 0.76862 0.0
C3108 C 0.76524 0.71149 0.75812 0.0
H3109 H 0.71453 0.66208 0.71271 0.0
H3110 H 0.73108 0.67353 0.73097 0.0
H3111 H 0.75998 0.71613 0.72489 0.0
H3112 H 0.80314 0.74602 0.78101 0.0
H3113 H 0.78495 0.73788 0.76397 0.0
C3114 C 0.69396 0.64263 0.63332 0.0
C3115 C 0.7 0.65647 0.63675 0.0
C3116 C 0.6993 0.63832 0.62289 0.0
C3117 C 0.72063 0.65006 0.59226 0.0
H3118 H 0.72514 0.61927 0.59833 0.0
C3119 C 0.75081 0.63577 0.5553 0.0
C3120 C 0.7459 0.62192 0.55278 0.0
C3121 C 0.74503 0.6399 0.56544 0.0
C3122 C 0.72379 0.62777 0.59639 0.0
H3123 H 0.71628 0.67666 0.63186 0.0
H3124 H 0.7256 0.66912 0.61363 0.0
H3125 H 0.71523 0.62656 0.61613 0.0
H3126 H 0.73065 0.60156 0.55839 0.0
H3127 H 0.72041 0.60874 0.576 0.0
H3128 H 0.72908 0.65123 0.5725 0.0
C3129 C 0.7167 0.66162 0.61897 0.0
C3130 C 0.71812 0.63196 0.6066 0.0
C3131 C 0.71141 0.66592 0.62945 0.0
C3132 C 0.73484 0.6123 0.56035 0.0
C3133 C 0.72902 0.61642 0.57045 0.0
C3134 C 0.72623 0.64584 0.58202 0.0
C3135 C 0.71074 0.64776 0.61562 0.0
C3136 C 0.71653 0.64318 0.60467 0.0
C3137 C 0.73407 0.63028 0.57316 0.0
C3138 C 0.72793 0.63467 0.58398 0.0
H3139 H 0.68514 0.6351 0.63874 0.0
H3140 H 0.69441 0.62759 0.62044 0.0
H3141 H 0.71935 0.65863 0.5904 0.0
H3142 H 0.75915 0.64341 0.54943 0.0
H3143 H 0.74924 0.65065 0.56732 0.0
C3144 C 0.33775 0.05648 0.63267 0.0
C3145 C 0.34353 0.04865 0.63602 0.0
C3146 C 0.34432 0.06732 0.62383 0.0
C3147 C 0.37823 0.09085 0.60964 0.0
H3148 H 0.35734 0.1009 0.5867 0.0
C3149 C 0.40922 0.14173 0.571 0.0
C3150 C 0.39835 0.14909 0.56748 0.0
C3151 C 0.40083 0.12594 0.57992 0.0
C3152 C 0.36329 0.09823 0.59311 0.0
H3153 H 0.36058 0.04578 0.63232 0.0
H3154 H 0.37188 0.06448 0.61648 0.0
H3155 H 0.34576 0.07994 0.59937 0.0
H3156 H 0.37783 0.15062 0.57662 0.0
H3157 H 0.366 0.12559 0.59143 0.0
H3158 H 0.39577 0.10915 0.60312 0.0
C3159 C 0.36241 0.06246 0.621 0.0
C3160 C 0.35667 0.08624 0.60041 0.0
C3161 C 0.35589 0.05168 0.63001 0.0
C3162 C 0.38324 0.14525 0.57788 0.0
C3163 C 0.3757 0.12936 0.58651 0.0
C3164 C 0.38487 0.10275 0.60213 0.0
C3165 C 0.35678 0.07052 0.61792 0.0
C3166 C 0.36401 0.08254 0.60904 0.0
C3167 C 0.38415 0.1197 0.58705 0.0
C3168 C 0.3774 0.10665 0.59406 0.0
H3169 H 0.32829 0.05451 0.63719 0.0
H3170 H 0.33978 0.07343 0.62197 0.0
H3171 H 0.38422 0.08845 0.61629 0.0
H3172 H 0.41858 0.14491 0.5656 0.0
H3173 H 0.40576 0.12008 0.5808 0.0
C3174 C 0.95584 0.3073 0.63177 0.0
C3175 C 0.96259 0.3005 0.63559 0.0
C3176 C 0.94655 0.30241 0.62098 0.0
C3177 C 0.92414 0.27122 0.60127 0.0
H3178 H 0.9212 0.29621 0.57734 0.0
C3179 C 0.88634 0.25361 0.55578 0.0
C3180 C 0.87879 0.26012 0.55473 0.0
C3181 C 0.8972 0.25845 0.56498 0.0
C3182 C 0.92186 0.28912 0.58399 0.0
H3183 H 0.96512 0.28339 0.63089 0.0
H3184 H 0.94895 0.27489 0.61181 0.0
H3185 H 0.93945 0.30488 0.59424 0.0
H3186 H 0.87708 0.27712 0.56197 0.0
H3187 H 0.89606 0.28559 0.57809 0.0
H3188 H 0.9065 0.25547 0.59098 0.0
C3189 C 0.95072 0.28392 0.61734 0.0
C3190 C 0.9323 0.29407 0.59368 0.0
C3191 C 0.96003 0.28882 0.6282 0.0
C3192 C 0.88258 0.27178 0.56277 0.0
C3193 C 0.8935 0.27668 0.57188 0.0
C3194 C 0.91374 0.26625 0.59151 0.0
C3195 C 0.94381 0.29063 0.61367 0.0
C3196 C 0.93344 0.28521 0.60259 0.0
C3197 C 0.90089 0.27004 0.57312 0.0
C3198 C 0.91237 0.27518 0.58292 0.0
H3199 H 0.95755 0.31632 0.63728 0.0
H3200 H 0.94125 0.30771 0.61859 0.0
H3201 H 0.92462 0.26413 0.60808 0.0
H3202 H 0.88387 0.2448 0.54946 0.0
H3203 H 0.90285 0.25325 0.56558 0.0
C3204 C 0.3596 0.30377 0.64216 0.0
C3205 C 0.34535 0.2968 0.64222 0.0
C3206 C 0.3665 0.30044 0.6325 0.0
C3207 C 0.36101 0.27323 0.60732 0.0
H3208 H 0.39408 0.30174 0.59134 0.0
C3209 C 0.38266 0.26764 0.556 0.0
C3210 C 0.39666 0.27257 0.55547 0.0
C3211 C 0.37692 0.26984 0.56763 0.0
C3212 C 0.38493 0.29366 0.59584 0.0
H3213 H 0.32719 0.28106 0.63201 0.0
H3214 H 0.33913 0.27562 0.61496 0.0
H3215 H 0.38313 0.30735 0.60955 0.0
H3216 H 0.41554 0.28313 0.56694 0.0
H3217 H 0.40553 0.28734 0.58717 0.0
H3218 H 0.36257 0.25968 0.59312 0.0
C3219 C 0.34504 0.28334 0.62261 0.0
C3220 C 0.37867 0.29685 0.60631 0.0
C3221 C 0.33817 0.28654 0.63234 0.0
C3222 C 0.40475 0.27941 0.56698 0.0
C3223 C 0.39905 0.28182 0.57853 0.0
C3224 C 0.36717 0.27009 0.59672 0.0
C3225 C 0.3593 0.29017 0.62259 0.0
C3226 C 0.36651 0.2867 0.61207 0.0
C3227 C 0.3851 0.27715 0.57891 0.0
C3228 C 0.37911 0.2803 0.59079 0.0
H3229 H 0.36542 0.31167 0.64969 0.0
H3230 H 0.37747 0.30581 0.63292 0.0
H3231 H 0.35186 0.26508 0.61173 0.0
H3232 H 0.37616 0.26226 0.54732 0.0
H3233 H 0.36614 0.26619 0.56764 0.0
C3234 C 0.71827 0.05752 0.6238 0.0
C3235 C 0.70556 0.05285 0.62987 0.0
C3236 C 0.72292 0.06747 0.61379 0.0
C3237 C 0.71698 0.09426 0.60102 0.0
H3238 H 0.73563 0.09266 0.56865 0.0
C3239 C 0.728 0.11681 0.54361 0.0
C3240 C 0.73075 0.12999 0.54659 0.0
C3241 C 0.72736 0.10836 0.55406 0.0
C3242 C 0.7304 0.09323 0.57762 0.0
H3243 H 0.68754 0.05452 0.62985 0.0
H3244 H 0.69544 0.07149 0.61229 0.0
H3245 H 0.72914 0.07554 0.58613 0.0
H3246 H 0.73526 0.14479 0.56286 0.0
H3247 H 0.73471 0.1303 0.58102 0.0
H3248 H 0.71753 0.11144 0.59233 0.0
C3249 C 0.70204 0.06785 0.61548 0.0
C3250 C 0.72682 0.0835 0.58771 0.0
C3251 C 0.69746 0.05803 0.6255 0.0
C3252 C 0.73326 0.13473 0.56021 0.0
C3253 C 0.73279 0.12635 0.57064 0.0
C3254 C 0.72046 0.10389 0.59094 0.0
C3255 C 0.71491 0.07287 0.60966 0.0
C3256 C 0.71982 0.08376 0.59941 0.0
C3257 C 0.72947 0.11294 0.56775 0.0
C3258 C 0.72703 0.1034 0.579 0.0
H3259 H 0.72474 0.05371 0.62698 0.0
H3260 H 0.73291 0.07115 0.60953 0.0
H3261 H 0.71185 0.09494 0.61003 0.0
H3262 H 0.72584 0.11286 0.53322 0.0
H3263 H 0.72457 0.09805 0.55144 0.0
C3264 C 0.94464 0.64625 0.63632 0.0
C3265 C 0.94789 0.65913 0.64132 0.0
C3266 C 0.93498 0.63979 0.62593 0.0
C3267 C 0.91787 0.64686 0.59806 0.0
H3268 H 0.89347 0.60793 0.59822 0.0
C3269 C 0.86928 0.60145 0.56565 0.0
C3270 C 0.87409 0.60534 0.55231 0.0
C3271 C 0.8775 0.60847 0.57692 0.0
C3272 C 0.90008 0.61883 0.59809 0.0
H3273 H 0.94332 0.67521 0.63943 0.0
H3274 H 0.92633 0.66386 0.62148 0.0
H3275 H 0.90903 0.61911 0.61733 0.0
H3276 H 0.89126 0.61946 0.54031 0.0
H3277 H 0.90568 0.63165 0.55994 0.0
H3278 H 0.90878 0.6466 0.57892 0.0
C3279 C 0.93143 0.65885 0.62542 0.0
C3280 C 0.90914 0.62522 0.60897 0.0
C3281 C 0.94113 0.66533 0.63577 0.0
C3282 C 0.88723 0.61641 0.55048 0.0
C3283 C 0.89546 0.62341 0.56174 0.0
C3284 C 0.90878 0.64047 0.5872 0.0
C3285 C 0.92828 0.64603 0.62032 0.0
C3286 C 0.91824 0.6393 0.60903 0.0
C3287 C 0.89075 0.61944 0.57509 0.0
C3288 C 0.89987 0.62636 0.58702 0.0
H3289 H 0.94968 0.64119 0.64032 0.0
H3290 H 0.93295 0.63001 0.62212 0.0
H3291 H 0.92481 0.65769 0.5977 0.0
H3292 H 0.85926 0.59283 0.56734 0.0
H3293 H 0.87351 0.60523 0.58706 0.0
C3294 C 0.97476 0.69675 0.71517 0.0
C3295 C 0.96554 0.68403 0.70937 0.0
C3296 C 0.97071 0.70234 0.72559 0.0
C3297 C 0.94431 0.69356 0.75179 0.0
H3298 H 0.95887 0.73238 0.75232 0.0
C3299 C 0.9398 0.73815 0.78358 0.0
C3300 C 0.93979 0.73396 0.79698 0.0
C3301 C 0.9413 0.73123 0.77248 0.0
C3302 C 0.95453 0.7215 0.75225 0.0
H3303 H 0.94483 0.66715 0.70995 0.0
H3304 H 0.93766 0.67704 0.72799 0.0
H3305 H 0.96452 0.72198 0.73366 0.0
H3306 H 0.94149 0.71939 0.80926 0.0
H3307 H 0.94439 0.70744 0.78993 0.0
H3308 H 0.9341 0.69308 0.77028 0.0
C3309 C 0.9481 0.68261 0.72463 0.0
C3310 C 0.95796 0.71555 0.74164 0.0
C3311 C 0.95218 0.67696 0.71425 0.0
C3312 C 0.94121 0.72266 0.79903 0.0
C3313 C 0.94282 0.7158 0.78793 0.0
C3314 C 0.94082 0.69951 0.76239 0.0
C3315 C 0.95731 0.6954 0.73039 0.0
C3316 C 0.95305 0.70154 0.74136 0.0
C3317 C 0.94308 0.72012 0.77452 0.0
C3318 C 0.94601 0.71358 0.76283 0.0
H3319 H 0.98515 0.70239 0.71171 0.0
H3320 H 0.97816 0.71207 0.72998 0.0
H3321 H 0.94041 0.68275 0.75196 0.0
H3322 H 0.93893 0.74695 0.7817 0.0
H3323 H 0.94126 0.73473 0.76229 0.0
C3324 C 0.3261 0.28565 0.71692 0.0
C3325 C 0.31772 0.28715 0.70754 0.0
C3326 C 0.32046 0.27567 0.72684 0.0
C3327 C 0.28778 0.25305 0.74416 0.0
H3328 H 0.30656 0.23487 0.75616 0.0
C3329 C 0.26326 0.20751 0.78013 0.0
C3330 C 0.27105 0.20874 0.79172 0.0
C3331 C 0.26907 0.21644 0.76932 0.0
C3332 C 0.30124 0.23991 0.75292 0.0
H3333 H 0.29692 0.27916 0.70095 0.0
H3334 H 0.28712 0.26147 0.71788 0.0
H3335 H 0.31638 0.25165 0.73822 0.0
H3336 H 0.29116 0.21982 0.80078 0.0
H3337 H 0.30138 0.23528 0.78174 0.0
H3338 H 0.27253 0.24109 0.75871 0.0
C3339 C 0.29801 0.26824 0.71792 0.0
C3340 C 0.30689 0.24958 0.74269 0.0
C3341 C 0.30363 0.27834 0.70813 0.0
C3342 C 0.2849 0.21869 0.79201 0.0
C3343 C 0.29076 0.22749 0.7811 0.0
C3344 C 0.28206 0.24326 0.75423 0.0
C3345 C 0.30633 0.26683 0.72749 0.0
C3346 C 0.30026 0.25634 0.73821 0.0
C3347 C 0.28283 0.22661 0.76978 0.0
C3348 C 0.28876 0.23664 0.75875 0.0
H3349 H 0.337 0.29235 0.71674 0.0
H3350 H 0.32719 0.27506 0.73416 0.0
H3351 H 0.2825 0.25822 0.74123 0.0
H3352 H 0.2526 0.19983 0.77957 0.0
H3353 H 0.26278 0.21544 0.76062 0.0
C3354 C 0.73069 0.03742 0.69815 0.0
C3355 C 0.72579 0.04631 0.69639 0.0
C3356 C 0.74023 0.03994 0.7084 0.0
C3357 C 0.76412 0.06699 0.73302 0.0
H3358 H 0.76058 0.03651 0.75306 0.0
C3359 C 0.7842 0.0705 0.78788 0.0
C3360 C 0.79179 0.06421 0.79016 0.0
C3361 C 0.77771 0.06888 0.77534 0.0
C3362 C 0.76176 0.04509 0.74744 0.0
H3363 H 0.72703 0.06477 0.70406 0.0
H3364 H 0.74309 0.06884 0.72214 0.0
H3365 H 0.74616 0.03241 0.73313 0.0
H3366 H 0.79914 0.05189 0.78083 0.0
H3367 H 0.78725 0.04857 0.75907 0.0
H3368 H 0.77922 0.07963 0.7479 0.0
C3369 C 0.74002 0.06018 0.71538 0.0
C3370 C 0.75356 0.04277 0.73597 0.0
C3371 C 0.73068 0.05778 0.70503 0.0
C3372 C 0.79309 0.05659 0.77949 0.0
C3373 C 0.78635 0.05473 0.76704 0.0
C3374 C 0.77212 0.0693 0.74463 0.0
C3375 C 0.74493 0.0513 0.71725 0.0
C3376 C 0.75448 0.0537 0.72872 0.0
C3377 C 0.77855 0.0608 0.76491 0.0
C3378 C 0.77089 0.05837 0.75202 0.0
H3379 H 0.72717 0.02854 0.69158 0.0
H3380 H 0.74391 0.03298 0.70938 0.0
H3381 H 0.76541 0.07567 0.72752 0.0
H3382 H 0.78315 0.07655 0.79585 0.0
H3383 H 0.77172 0.07363 0.77392 0.0
C3384 C 0.03098 0.31817 0.02456 0.0
C3385 C 0.03612 0.33185 0.02147 0.0
C3386 C 0.03897 0.3142 0.03148 0.0
C3387 C 0.06621 0.32687 0.0565 0.0
H3388 H 0.06598 0.2937 0.04764 0.0
C3389 C 0.09466 0.30752 0.09858 0.0
C3390 C 0.08908 0.28929 0.09572 0.0
C3391 C 0.08891 0.31459 0.08578 0.0
C3392 C 0.06603 0.30291 0.05036 0.0
H3393 H 0.05381 0.35205 0.02283 0.0
H3394 H 0.0678 0.34509 0.03519 0.0
H3395 H 0.05564 0.30211 0.03189 0.0
H3396 H 0.06988 0.26668 0.08509 0.0
H3397 H 0.06065 0.27916 0.066 0.0
H3398 H 0.07601 0.32739 0.07522 0.0
C3399 C 0.05757 0.33747 0.03217 0.0
C3400 C 0.0602 0.30777 0.04127 0.0
C3401 C 0.04961 0.34143 0.02503 0.0
C3402 C 0.07371 0.27747 0.08558 0.0
C3403 C 0.06861 0.28546 0.07322 0.0
C3404 C 0.07194 0.32193 0.06567 0.0
C3405 C 0.05224 0.32383 0.03563 0.0
C3406 C 0.05999 0.31966 0.04437 0.0
C3407 C 0.07645 0.30374 0.07304 0.0
C3408 C 0.07165 0.30974 0.06282 0.0
H3409 H 0.02062 0.31056 0.02194 0.0
H3410 H 0.03454 0.30364 0.03412 0.0
H3411 H 0.06605 0.33598 0.05924 0.0
H3412 H 0.10285 0.31396 0.10555 0.0
H3413 H 0.09311 0.32543 0.08572 0.0
C3414 C 0.67571 0.69517 0.04594 0.0
C3415 C 0.66274 0.69138 0.04092 0.0
C3416 C 0.6831 0.707 0.05381 0.0
C3417 C 0.67942 0.73262 0.07407 0.0
H3418 H 0.71824 0.75444 0.06875 0.0
C3419 C 0.73334 0.79615 0.087 0.0
C3420 C 0.72407 0.79909 0.10098 0.0
C3421 C 0.72427 0.7795 0.07919 0.0
C3422 C 0.7074 0.74857 0.07028 0.0
H3423 H 0.64736 0.69704 0.04024 0.0
H3424 H 0.66039 0.71788 0.05362 0.0
H3425 H 0.70516 0.73339 0.05581 0.0
H3426 H 0.70633 0.78708 0.1201 0.0
H3427 H 0.69334 0.7606 0.10714 0.0
H3428 H 0.68152 0.74809 0.08798 0.0
C3429 C 0.66475 0.71156 0.05177 0.0
C3430 C 0.69991 0.73635 0.063 0.0
C3431 C 0.65729 0.69964 0.04402 0.0
C3432 C 0.71063 0.78513 0.11113 0.0
C3433 C 0.70228 0.76883 0.10259 0.0
C3434 C 0.6869 0.74489 0.08124 0.0
C3435 C 0.67776 0.71541 0.05674 0.0
C3436 C 0.6858 0.72824 0.06476 0.0
C3437 C 0.70872 0.76624 0.08662 0.0
C3438 C 0.70096 0.75302 0.0794 0.0
H3439 H 0.68016 0.68897 0.04382 0.0
H3440 H 0.69297 0.70951 0.05767 0.0
H3441 H 0.66862 0.72656 0.07584 0.0
H3442 H 0.74183 0.80445 0.08193 0.0
H3443 H 0.72803 0.77767 0.06976 0.0
C3444 C 0.30171 0.95463 0.02762 0.0
C3445 C 0.30879 0.96868 0.02547 0.0
C3446 C 0.2898 0.94858 0.0353 0.0
C3447 C 0.27098 0.95636 0.06103 0.0
H3448 H 0.23987 0.92293 0.04771 0.0
C3449 C 0.2172 0.93565 0.08267 0.0
C3450 C 0.20897 0.92157 0.08411 0.0
C3451 C 0.22976 0.94117 0.07623 0.0
C3452 C 0.24852 0.93216 0.05169 0.0
H3453 H 0.30888 0.98737 0.02975 0.0
H3454 H 0.28814 0.97681 0.043 0.0
H3455 H 0.2611 0.93287 0.03517 0.0
H3456 H 0.20728 0.90219 0.07963 0.0
H3457 H 0.22934 0.91181 0.06867 0.0
H3458 H 0.25839 0.9557 0.07752 0.0
C3459 C 0.29186 0.97049 0.03889 0.0
C3460 C 0.26069 0.93785 0.04449 0.0
C3461 C 0.30372 0.97653 0.0312 0.0
C3462 C 0.21352 0.9131 0.07889 0.0
C3463 C 0.22609 0.91861 0.07248 0.0
C3464 C 0.25883 0.95065 0.06825 0.0
C3465 C 0.28476 0.95645 0.04102 0.0
C3466 C 0.27202 0.95008 0.04901 0.0
C3467 C 0.23432 0.9327 0.07098 0.0
C3468 C 0.24742 0.93853 0.06361 0.0
H3469 H 0.30536 0.9483 0.02339 0.0
H3470 H 0.28462 0.93776 0.03687 0.0
H3471 H 0.2796 0.96569 0.0649 0.0
H3472 H 0.21381 0.94239 0.08634 0.0
H3473 H 0.23573 0.95204 0.07502 0.0
C3474 C 0.34006 0.04584 0.99059 0.0
C3475 C 0.33207 0.03162 0.99031 0.0
C3476 C 0.33521 0.05365 0.98477 0.0
C3477 C 0.30351 0.05199 0.97397 0.0
H3478 H 0.3264 0.08055 0.9491 0.0
C3479 C 0.2812 0.07389 0.93699 0.0
C3480 C 0.2883 0.08797 0.93517 0.0
C3481 C 0.28714 0.06775 0.94407 0.0
C3482 C 0.31994 0.07273 0.95615 0.0
H3483 H 0.31265 0.01446 0.98397 0.0
H3484 H 0.30423 0.02801 0.97394 0.0
H3485 H 0.33571 0.06878 0.96156 0.0
H3486 H 0.30711 0.10669 0.93953 0.0
H3487 H 0.31755 0.09595 0.95195 0.0
H3488 H 0.28772 0.0558 0.96855 0.0
C3489 C 0.31419 0.03317 0.97869 0.0
C3490 C 0.32528 0.06601 0.9633 0.0
C3491 C 0.31906 0.0254 0.98437 0.0
C3492 C 0.30151 0.09579 0.94057 0.0
C3493 C 0.30747 0.08964 0.94767 0.0
C3494 C 0.29819 0.0587 0.96686 0.0
C3495 C 0.32222 0.04737 0.97872 0.0
C3496 C 0.31704 0.05542 0.97211 0.0
C3497 C 0.30028 0.07556 0.94963 0.0
C3498 C 0.30626 0.06899 0.95769 0.0
H3499 H 0.35015 0.05092 0.99505 0.0
H3500 H 0.34158 0.06459 0.98501 0.0
H3501 H 0.29698 0.04404 0.98087 0.0
H3502 H 0.27095 0.06763 0.93309 0.0
H3503 H 0.2814 0.05686 0.94522 0.0
C3504 C 0.95715 0.29555 0.98667 0.0
C3505 C 0.97127 0.30431 0.98624 0.0
C3506 C 0.95109 0.28282 0.9802 0.0
C3507 C 0.95917 0.25738 0.96657 0.0
H3508 H 0.9238 0.24208 0.94935 0.0
C3509 C 0.93655 0.20274 0.93212 0.0
C3510 C 0.91781 0.19405 0.93 0.0
C3511 C 0.94415 0.21917 0.94036 0.0
C3512 C 0.93361 0.24617 0.95425 0.0
H3513 H 0.99007 0.30674 0.97831 0.0
H3514 H 0.97947 0.28474 0.9667 0.0
H3515 H 0.93449 0.26475 0.95959 0.0
H3516 H 0.89594 0.1917 0.94075 0.0
H3517 H 0.90955 0.21792 0.95442 0.0
H3518 H 0.95832 0.23884 0.96103 0.0
C3519 C 0.97309 0.28752 0.97236 0.0
C3520 C 0.93975 0.25916 0.96013 0.0
C3521 C 0.97917 0.30018 0.97895 0.0
C3522 C 0.90689 0.19775 0.94119 0.0
C3523 C 0.91545 0.21435 0.94911 0.0
C3524 C 0.95308 0.24445 0.96056 0.0
C3525 C 0.95899 0.27861 0.97301 0.0
C3526 C 0.95258 0.26491 0.96644 0.0
C3527 C 0.9337 0.22501 0.94823 0.0
C3528 C 0.94022 0.23871 0.95443 0.0
H3529 H 0.95079 0.2984 0.99226 0.0
H3530 H 0.94023 0.27617 0.9811 0.0
H3531 H 0.96893 0.26136 0.97155 0.0
H3532 H 0.94261 0.19971 0.92627 0.0
H3533 H 0.95506 0.22567 0.94031 0.0
C3534 C 0.70479 0.68267 0.99083 0.0
C3535 C 0.69745 0.66927 0.9954 0.0
C3536 C 0.71742 0.68763 0.98476 0.0
C3537 C 0.73828 0.67682 0.96629 0.0
H3538 H 0.76708 0.71364 0.97439 0.0
C3539 C 0.7923 0.70055 0.94343 0.0
C3540 C 0.79816 0.71397 0.93897 0.0
C3541 C 0.78011 0.69453 0.95064 0.0
C3542 C 0.7591 0.70338 0.97193 0.0
H3543 H 0.69767 0.65057 0.99727 0.0
H3544 H 0.71989 0.6593 0.98663 0.0
H3545 H 0.74585 0.70411 0.98685 0.0
H3546 H 0.79601 0.73166 0.9388 0.0
H3547 H 0.77465 0.72111 0.95119 0.0
H3548 H 0.75155 0.67617 0.95124 0.0
C3549 C 0.71576 0.66592 0.9877 0.0
C3550 C 0.74695 0.69791 0.97909 0.0
C3551 C 0.70309 0.66095 0.99386 0.0
C3552 C 0.79162 0.72125 0.94194 0.0
C3553 C 0.77947 0.71525 0.94915 0.0
C3554 C 0.75047 0.6823 0.95911 0.0
C3555 C 0.72304 0.67931 0.98307 0.0
C3556 C 0.73632 0.68465 0.97621 0.0
C3557 C 0.77363 0.70186 0.95368 0.0
C3558 C 0.76093 0.69571 0.96172 0.0
H3559 H 0.70072 0.68934 0.99183 0.0
H3560 H 0.72266 0.69792 0.98112 0.0
H3561 H 0.73023 0.66661 0.96375 0.0
H3562 H 0.79728 0.6948 0.94153 0.0
H3563 H 0.77595 0.68425 0.95413 0.0
C3564 C 0.95095 0.6617 0.98999 0.0
C3565 C 0.96498 0.66677 0.99072 0.0
C3566 C 0.94591 0.66879 0.98306 0.0
C3567 C 0.95658 0.70311 0.97058 0.0
H3568 H 0.92273 0.68421 0.95021 0.0
C3569 C 0.93667 0.73186 0.93991 0.0
C3570 C 0.92305 0.72791 0.94229 0.0
C3571 C 0.94184 0.72386 0.94433 0.0
C3572 C 0.93218 0.68961 0.9559 0.0
H3573 H 0.9847 0.68309 0.98442 0.0
H3574 H 0.97591 0.69524 0.97211 0.0
H3575 H 0.93169 0.67128 0.96092 0.0
H3576 H 0.90411 0.71233 0.95082 0.0
H3577 H 0.91311 0.69828 0.95846 0.0
H3578 H 0.95706 0.72143 0.96555 0.0
C3579 C 0.9688 0.68598 0.97717 0.0
C3580 C 0.93729 0.68221 0.96208 0.0
C3581 C 0.97383 0.67896 0.98419 0.0
C3582 C 0.91462 0.71558 0.94878 0.0
C3583 C 0.91976 0.70752 0.95311 0.0
C3584 C 0.95153 0.71049 0.96432 0.0
C3585 C 0.95478 0.68106 0.97661 0.0
C3586 C 0.94951 0.68887 0.96961 0.0
C3587 C 0.93349 0.7117 0.95116 0.0
C3588 C 0.93922 0.70382 0.95701 0.0
H3589 H 0.94387 0.65235 0.99493 0.0
H3590 H 0.93507 0.66479 0.983 0.0
H3591 H 0.96588 0.70859 0.97649 0.0
H3592 H 0.94338 0.74134 0.93495 0.0
H3593 H 0.95243 0.72726 0.94257 0.0
C3594 C 0.32071 0.30743 0.97922 0.0
C3595 C 0.33475 0.31367 0.98152 0.0
C3596 C 0.31343 0.29444 0.97349 0.0
C3597 C 0.31402 0.26311 0.96628 0.0
H3598 H 0.28754 0.25793 0.9386 0.0
C3599 C 0.27818 0.22196 0.9218 0.0
C3600 C 0.27247 0.20982 0.92904 0.0
C3601 C 0.28615 0.2344 0.9285 0.0
C3602 C 0.29496 0.25921 0.94623 0.0
H3603 H 0.35212 0.31101 0.98 0.0
H3604 H 0.33934 0.28819 0.96968 0.0
H3605 H 0.30113 0.28 0.94961 0.0
H3606 H 0.27042 0.20118 0.949 0.0
H3607 H 0.28427 0.22305 0.96084 0.0
H3608 H 0.30793 0.24227 0.96261 0.0
C3609 C 0.33399 0.2934 0.97246 0.0
C3610 C 0.30265 0.27184 0.95266 0.0
C3611 C 0.34132 0.30646 0.97829 0.0
C3612 C 0.27478 0.21039 0.94318 0.0
C3613 C 0.28277 0.22288 0.94992 0.0
C3614 C 0.30629 0.25042 0.95981 0.0
C3615 C 0.32 0.28735 0.96981 0.0
C3616 C 0.31221 0.27393 0.96281 0.0
C3617 C 0.28851 0.23502 0.94264 0.0
C3618 C 0.29668 0.24835 0.9497 0.0
H3619 H 0.31528 0.3126 0.98178 0.0
H3620 H 0.30262 0.28996 0.97189 0.0
H3621 H 0.32126 0.26439 0.97412 0.0
H3622 H 0.27656 0.22182 0.91089 0.0
H3623 H 0.29056 0.24354 0.92256 0.0
C3624 C 0.71237 0.04923 0.99203 0.0
C3625 C 0.70339 0.03513 0.99202 0.0
C3626 C 0.72472 0.05474 0.98518 0.0
C3627 C 0.7422 0.04775 0.95762 0.0
H3628 H 0.77495 0.0749 0.97623 0.0
C3629 C 0.79597 0.06536 0.93702 0.0
C3630 C 0.80615 0.07893 0.93937 0.0
C3631 C 0.78307 0.06029 0.94263 0.0
C3632 C 0.7659 0.0675 0.97077 0.0
H3633 H 0.70032 0.01579 0.98471 0.0
H3634 H 0.72187 0.02546 0.97269 0.0
H3635 H 0.75321 0.06558 0.98767 0.0
H3636 H 0.81066 0.09797 0.9489 0.0
H3637 H 0.78808 0.08929 0.95832 0.0
H3638 H 0.75485 0.04974 0.94065 0.0
C3639 C 0.71931 0.03222 0.97798 0.0
C3640 C 0.75344 0.06213 0.97737 0.0
C3641 C 0.70702 0.02669 0.98495 0.0
C3642 C 0.80303 0.08745 0.94699 0.0
C3643 C 0.79012 0.08243 0.95249 0.0
C3644 C 0.75466 0.05321 0.95095 0.0
C3645 C 0.72831 0.0463 0.97806 0.0
C3646 C 0.74147 0.05216 0.97089 0.0
C3647 C 0.78005 0.06871 0.95062 0.0
C3648 C 0.76668 0.06313 0.95747 0.0
H3649 H 0.70988 0.05602 0.99736 0.0
H3650 H 0.73142 0.06564 0.98532 0.0
H3651 H 0.73311 0.04017 0.95232 0.0
H3652 H 0.79812 0.05858 0.93117 0.0
H3653 H 0.77563 0.04965 0.94107 0.0
C3654 C 0.66851 0.95875 0.02455 0.0
C3655 C 0.67418 0.97238 0.02869 0.0
C3656 C 0.67278 0.95057 0.03067 0.0
C3657 C 0.68996 0.94841 0.06169 0.0
H3658 H 0.69985 0.92693 0.03884 0.0
C3659 C 0.72603 0.93073 0.0799 0.0
C3660 C 0.72345 0.91785 0.07568 0.0
C3661 C 0.71811 0.93581 0.07493 0.0
C3662 C 0.69692 0.93268 0.0454 0.0
H3663 H 0.68869 0.98809 0.04251 0.0
H3664 H 0.69608 0.97394 0.05303 0.0
H3665 H 0.68924 0.9385 0.02854 0.0
H3666 H 0.71064 0.90025 0.06293 0.0
H3667 H 0.69668 0.90907 0.05433 0.0
H3668 H 0.69788 0.94285 0.07851 0.0
C3669 C 0.68827 0.96948 0.04521 0.0
C3670 C 0.69083 0.93931 0.03949 0.0
C3671 C 0.6841 0.97763 0.03907 0.0
C3672 C 0.71273 0.91014 0.06647 0.0
C3673 C 0.70482 0.91523 0.06148 0.0
C3674 C 0.69602 0.94179 0.0676 0.0
C3675 C 0.68267 0.95586 0.0411 0.0
C3676 C 0.68757 0.94749 0.04753 0.0
C3677 C 0.70752 0.92819 0.06553 0.0
C3678 C 0.69983 0.93408 0.05948 0.0
H3679 H 0.66084 0.95442 0.01659 0.0
H3680 H 0.66826 0.94009 0.02732 0.0
H3681 H 0.68732 0.95445 0.06819 0.0
H3682 H 0.7344 0.937 0.08677 0.0
H3683 H 0.72061 0.94593 0.07808 0.0
C3684 C 0.03956 0.71197 0.01971 0.0
C3685 C 0.02857 0.70218 0.02725 0.0
C3686 C 0.04766 0.72518 0.02502 0.0
C3687 C 0.05751 0.74483 0.05726 0.0
H3688 H 0.05925 0.77432 0.03682 0.0
C3689 C 0.06326 0.79194 0.08402 0.0
C3690 C 0.07168 0.80473 0.07838 0.0
C3691 C 0.06047 0.78018 0.07687 0.0
C3692 C 0.05911 0.76627 0.04256 0.0
H3693 H 0.01775 0.69831 0.04638 0.0
H3694 H 0.03196 0.7211 0.05567 0.0
H3695 H 0.0506 0.75208 0.02575 0.0
H3696 H 0.08346 0.81523 0.06065 0.0
H3697 H 0.07856 0.79453 0.04806 0.0
H3698 H 0.06561 0.75877 0.07418 0.0
C3699 C 0.03431 0.71868 0.04567 0.0
C3700 C 0.05418 0.75356 0.03622 0.0
C3701 C 0.02611 0.70566 0.0403 0.0
C3702 C 0.07701 0.80549 0.06527 0.0
C3703 C 0.07418 0.79367 0.05807 0.0
C3704 C 0.06248 0.75749 0.06357 0.0
C3705 C 0.04506 0.72862 0.03806 0.0
C3706 C 0.05288 0.74262 0.04368 0.0
C3707 C 0.066 0.78089 0.06388 0.0
C3708 C 0.06284 0.76821 0.05645 0.0
H3709 H 0.04163 0.70953 0.0096 0.0
H3710 H 0.0559 0.7327 0.01896 0.0
H3711 H 0.05678 0.73659 0.06318 0.0
H3712 H 0.05889 0.79104 0.09403 0.0
H3713 H 0.05385 0.77048 0.0815 0.0
C3714 C 0.30811 0.3348 0.02041 0.0
C3715 C 0.31687 0.3481 0.02521 0.0
C3716 C 0.29567 0.32659 0.02668 0.0
C3717 C 0.27137 0.32768 0.05136 0.0
H3718 H 0.25842 0.28925 0.05387 0.0
C3719 C 0.23128 0.29226 0.08962 0.0
C3720 C 0.21967 0.281 0.08385 0.0
C3721 C 0.24261 0.30019 0.08165 0.0
C3722 C 0.26189 0.29995 0.05311 0.0
H3723 H 0.31954 0.36328 0.04031 0.0
H3724 H 0.29811 0.34877 0.05176 0.0
H3725 H 0.27939 0.30387 0.04177 0.0
H3726 H 0.21129 0.26865 0.0655 0.0
H3727 H 0.23148 0.2824 0.05158 0.0
H3728 H 0.25413 0.3237 0.06341 0.0
C3729 C 0.30059 0.34476 0.04285 0.0
C3730 C 0.27386 0.30835 0.04613 0.0
C3731 C 0.31293 0.35308 0.03637 0.0
C3732 C 0.21999 0.27742 0.07011 0.0
C3733 C 0.23148 0.28523 0.06219 0.0
C3734 C 0.25956 0.31932 0.05858 0.0
C3735 C 0.2918 0.33138 0.03811 0.0
C3736 C 0.27881 0.32236 0.04521 0.0
C3737 C 0.24276 0.2968 0.06787 0.0
C3738 C 0.25478 0.30542 0.05955 0.0
H3739 H 0.31081 0.33075 0.01169 0.0
H3740 H 0.28908 0.31651 0.02249 0.0
H3741 H 0.27464 0.33832 0.05063 0.0
H3742 H 0.23156 0.29508 0.10027 0.0
H3743 H 0.25132 0.30894 0.08627 0.0
C3744 C 0.70984 0.67453 0.36514 0.0
C3745 C 0.69638 0.66532 0.36116 0.0
C3746 C 0.71738 0.67008 0.37227 0.0
C3747 C 0.71908 0.63964 0.38012 0.0
H3748 H 0.73646 0.65885 0.41381 0.0
C3749 C 0.73594 0.60936 0.42145 0.0
C3750 C 0.75193 0.62138 0.43063 0.0
C3751 C 0.72966 0.61718 0.41019 0.0
C3752 C 0.73192 0.65349 0.40432 0.0
H3753 H 0.68043 0.64416 0.36106 0.0
H3754 H 0.69362 0.6364 0.37332 0.0
H3755 H 0.72596 0.66775 0.39892 0.0
H3756 H 0.76595 0.64602 0.44047 0.0
H3757 H 0.75437 0.65719 0.42247 0.0
H3758 H 0.72502 0.62541 0.38544 0.0
C3759 C 0.69835 0.64705 0.37097 0.0
C3760 C 0.72587 0.6586 0.3958 0.0
C3761 C 0.69078 0.65152 0.36401 0.0
C3762 C 0.75732 0.63949 0.43401 0.0
C3763 C 0.75038 0.64638 0.42233 0.0
C3764 C 0.72523 0.6346 0.38859 0.0
C3765 C 0.71165 0.65631 0.37537 0.0
C3766 C 0.71919 0.6516 0.38372 0.0
C3767 C 0.7371 0.63542 0.4103 0.0
C3768 C 0.7315 0.64134 0.4009 0.0
H3769 H 0.71442 0.68523 0.36311 0.0
H3770 H 0.72765 0.67741 0.37546 0.0
H3771 H 0.71417 0.63414 0.37078 0.0
H3772 H 0.73233 0.59863 0.42067 0.0
H3773 H 0.72126 0.61081 0.40343 0.0
C3774 C 0.34176 0.02981 0.37901 0.0
C3775 C 0.32864 0.02543 0.37403 0.0
C3776 C 0.3497 0.04285 0.38471 0.0
C3777 C 0.34685 0.0719 0.39837 0.0
H3778 H 0.3857 0.09241 0.39257 0.0
C3779 C 0.3767 0.13454 0.40985 0.0
C3780 C 0.39198 0.13962 0.42063 0.0
C3781 C 0.36834 0.11732 0.40358 0.0
C3782 C 0.37487 0.08673 0.39435 0.0
H3783 H 0.31369 0.03138 0.37081 0.0
H3784 H 0.3276 0.05412 0.38013 0.0
H3785 H 0.37242 0.06908 0.38387 0.0
H3786 H 0.41161 0.13493 0.42484 0.0
H3787 H 0.39743 0.10771 0.41332 0.0
H3788 H 0.34928 0.08973 0.40838 0.0
C3789 C 0.33166 0.04742 0.38019 0.0
C3790 C 0.36726 0.07335 0.38943 0.0
C3791 C 0.32368 0.03437 0.37474 0.0
C3792 C 0.40215 0.13115 0.41932 0.0
C3793 C 0.39295 0.11401 0.41268 0.0
C3794 C 0.35442 0.08532 0.40302 0.0
C3795 C 0.34474 0.05184 0.38536 0.0
C3796 C 0.3531 0.06581 0.39124 0.0
C3797 C 0.37614 0.10714 0.40546 0.0
C3798 C 0.36844 0.09286 0.40093 0.0
H3799 H 0.34584 0.02312 0.37863 0.0
H3800 H 0.35964 0.0458 0.38873 0.0
H3801 H 0.33607 0.06634 0.40037 0.0
H3802 H 0.37168 0.14036 0.40975 0.0
H3803 H 0.35849 0.11302 0.39873 0.0
C3804 C 0.97183 0.29023 0.35971 0.0
C3805 C 0.98127 0.30414 0.36112 0.0
C3806 C 0.95925 0.28457 0.36607 0.0
C3807 C 0.93578 0.29344 0.38363 0.0
H3808 H 0.91953 0.2563 0.39537 0.0
C3809 C 0.88647 0.24957 0.41544 0.0
C3810 C 0.87652 0.25243 0.41104 0.0
C3811 C 0.89967 0.25686 0.41046 0.0
C3812 C 0.92396 0.26676 0.39243 0.0
H3813 H 0.98503 0.32307 0.37029 0.0
H3814 H 0.96331 0.3131 0.38203 0.0
H3815 H 0.94171 0.26722 0.38518 0.0
H3816 H 0.87277 0.2653 0.3981 0.0
H3817 H 0.89553 0.27742 0.38873 0.0
H3818 H 0.9183 0.29319 0.39164 0.0
C3819 C 0.96539 0.30659 0.37564 0.0
C3820 C 0.93665 0.27298 0.38626 0.0
C3821 C 0.97788 0.31232 0.36899 0.0
C3822 C 0.8802 0.26286 0.40166 0.0
C3823 C 0.89332 0.26991 0.39641 0.0
C3824 C 0.92318 0.28731 0.39009 0.0
C3825 C 0.95591 0.29261 0.37433 0.0
C3826 C 0.94266 0.28632 0.38155 0.0
C3827 C 0.90323 0.26692 0.40064 0.0
C3828 C 0.917 0.27381 0.39443 0.0
H3829 H 0.9741 0.28372 0.35354 0.0
H3830 H 0.95213 0.27387 0.36442 0.0
H3831 H 0.93997 0.30368 0.38005 0.0
H3832 H 0.88411 0.24165 0.42268 0.0
H3833 H 0.90705 0.25448 0.41429 0.0
C3834 C 0.00717 0.36623 0.31164 0.0
C3835 C 0.01728 0.3694 0.32153 0.0
C3836 C 0.00665 0.37653 0.30475 0.0
C3837 C 0.0283 0.41251 0.29571 0.0
H3838 H 0.99409 0.41002 0.2871 0.0
C3839 C 0.0078 0.44948 0.27681 0.0
C3840 C 0.01714 0.45648 0.26643 0.0
C3841 C 0.00721 0.43822 0.28276 0.0
C3842 C 0.00373 0.41089 0.28948 0.0
H3843 H 0.03452 0.38585 0.33224 0.0
H3844 H 0.03347 0.4038 0.3204 0.0
H3845 H 0.99419 0.39192 0.29972 0.0
H3846 H 0.0333 0.45726 0.25422 0.0
H3847 H 0.03208 0.43737 0.26437 0.0
H3848 H 0.03788 0.43164 0.28585 0.0
C3849 C 0.0261 0.39336 0.31777 0.0
C3850 C 0.00378 0.40046 0.29659 0.0
C3851 C 0.02664 0.38307 0.32463 0.0
C3852 C 0.02586 0.45193 0.26206 0.0
C3853 C 0.02525 0.44063 0.26798 0.0
C3854 C 0.02826 0.42294 0.28863 0.0
C3855 C 0.01622 0.39022 0.30761 0.0
C3856 C 0.01608 0.40119 0.29988 0.0
C3857 C 0.01602 0.43374 0.27851 0.0
C3858 C 0.01598 0.42231 0.28549 0.0
H3859 H -0.00017 0.35579 0.30898 0.0
H3860 H -0.00102 0.37375 0.29691 0.0
H3861 H 0.03795 0.4133 0.29788 0.0
H3862 H 0.00115 0.45293 0.28055 0.0
H3863 H 0.00015 0.4333 0.291 0.0
C3864 C 0.64433 0.63646 0.31165 0.0
C3865 C 0.63619 0.64109 0.31752 0.0
C3866 C 0.6384 0.62392 0.30476 0.0
C3867 C 0.60543 0.59684 0.28978 0.0
H3868 H 0.62173 0.57459 0.29351 0.0
C3869 C 0.56973 0.53472 0.27458 0.0
C3870 C 0.57984 0.5296 0.26381 0.0
C3871 C 0.57916 0.55174 0.28145 0.0
C3872 C 0.61714 0.58076 0.29227 0.0
H3873 H 0.61546 0.63615 0.32084 0.0
H3874 H 0.60515 0.61418 0.3094 0.0
H3875 H 0.63295 0.59732 0.30368 0.0
H3876 H 0.60412 0.53374 0.26004 0.0
H3877 H 0.61799 0.56054 0.27247 0.0
H3878 H 0.58936 0.57999 0.27882 0.0
C3879 C 0.61611 0.62035 0.30965 0.0
C3880 C 0.6236 0.59382 0.29805 0.0
C3881 C 0.62203 0.63295 0.31632 0.0
C3882 C 0.59855 0.53758 0.26556 0.0
C3883 C 0.60704 0.5545 0.27276 0.0
C3884 C 0.59888 0.5837 0.28424 0.0
C3885 C 0.6242 0.61564 0.30377 0.0
C3886 C 0.61776 0.602 0.29699 0.0
C3887 C 0.59743 0.56156 0.28007 0.0
C3888 C 0.60463 0.57554 0.28553 0.0
H3889 H 0.65529 0.64256 0.31233 0.0
H3890 H 0.64498 0.62077 0.30018 0.0
H3891 H 0.60078 0.60292 0.28841 0.0
H3892 H 0.55876 0.52913 0.27441 0.0
H3893 H 0.57379 0.55609 0.28642 0.0
C3894 C 0.353 0.97334 0.32976 0.0
C3895 C 0.3529 0.9854 0.33214 0.0
C3896 C 0.36341 0.97342 0.32227 0.0
C3897 C 0.39111 0.99451 0.2981 0.0
H3898 H 0.40395 0.9703 0.30775 0.0
C3899 C 0.44136 -0.00018 0.27906 0.0
C3900 C 0.44101 0.9879 0.27473 0.0
C3901 C 0.42997 -0.00078 0.28495 0.0
C3902 C 0.40035 0.977 0.30485 0.0
H3903 H 0.36377 0.00704 0.32883 0.0
H3904 H 0.38228 0.00732 0.31626 0.0
H3905 H 0.38577 0.97009 0.32085 0.0
H3906 H 0.42829 0.96607 0.27263 0.0
H3907 H 0.40841 0.96501 0.28326 0.0
H3908 H 0.40613 0.00172 0.2824 0.0
C3909 C 0.3741 0.99771 0.31978 0.0
C3910 C 0.38991 0.97688 0.31233 0.0
C3911 C 0.36356 0.99758 0.32711 0.0
C3912 C 0.42889 0.97539 0.27604 0.0
C3913 C 0.41755 0.97478 0.28211 0.0
C3914 C 0.40169 0.99475 0.29075 0.0
C3915 C 0.3741 0.9856 0.31715 0.0
C3916 C 0.38516 0.98566 0.30908 0.0
C3917 C 0.41805 0.98669 0.28676 0.0
C3918 C 0.40642 0.98602 0.29408 0.0
H3919 H 0.34483 0.96376 0.33339 0.0
H3920 H 0.36291 0.96386 0.32026 0.0
H3921 H 0.38754 0.00121 0.29509 0.0
H3922 H 0.45054 0.0096 0.27813 0.0
H3923 H 0.43064 0.00854 0.28852 0.0
C3924 C 0.61984 0.96918 0.31282 0.0
C3925 C 0.63344 0.9774 0.31696 0.0
C3926 C 0.61347 0.97448 0.30509 0.0
C3927 C 0.61591 0.00694 0.29702 0.0
H3928 H 0.58768 0.98445 0.27073 0.0
C3929 C 0.58459 0.02602 0.26932 0.0
C3930 C 0.5705 0.01736 0.27058 0.0
C3931 C 0.59347 0.02148 0.27255 0.0
C3932 C 0.59557 0.99085 0.27802 0.0
H3933 H 0.65116 0.99758 0.31585 0.0
H3934 H 0.6401 0.00678 0.30209 0.0
H3935 H 0.60138 0.97605 0.28084 0.0
H3936 H 0.55464 0.99701 0.2755 0.0
H3937 H 0.57013 0.98903 0.28098 0.0
H3938 H 0.60997 0.02167 0.29426 0.0
C3939 C 0.63428 0.99628 0.30507 0.0
C3940 C 0.60338 0.98603 0.28387 0.0
C3941 C 0.64063 0.99099 0.31291 0.0
C3942 C 0.56545 0.0039 0.27447 0.0
C3943 C 0.57431 -0.00068 0.27754 0.0
C3944 C 0.60818 0.0118 0.29107 0.0
C3945 C 0.62057 0.98812 0.30118 0.0
C3946 C 0.61341 0.99387 0.29371 0.0
C3947 C 0.58841 0.00814 0.2769 0.0
C3948 C 0.59772 0.00367 0.28177 0.0
H3949 H 0.61397 0.95868 0.31579 0.0
H3950 H 0.60284 0.96795 0.30252 0.0
H3951 H 0.62342 0.0132 0.30468 0.0
H3952 H 0.58873 0.03641 0.26622 0.0
H3953 H 0.6043 0.02844 0.27185 0.0
C3954 C 0.99744 0.64203 0.31656 0.0
C3955 C 0.01107 0.65186 0.31917 0.0
C3956 C 0.99402 0.6295 0.31068 0.0
C3957 C 0.00776 0.60681 0.30341 0.0
H3958 H 0.97735 0.58977 0.27811 0.0
C3959 C 0.99806 0.55522 0.26907 0.0
C3960 C 0.9802 0.54508 0.26282 0.0
C3961 C 0.00229 0.57095 0.27752 0.0
C3962 C 0.98577 0.59434 0.28527 0.0
H3963 H 0.03181 0.65634 0.31759 0.0
H3964 H 0.02589 0.63465 0.30686 0.0
H3965 H 0.98375 0.61169 0.28845 0.0
H3966 H 0.95567 0.53986 0.26748 0.0
H3967 H 0.96383 0.56505 0.28201 0.0
H3968 H 0.00991 0.58953 0.29988 0.0
C3969 C 0.0178 0.63644 0.30969 0.0
C3970 C 0.98945 0.60691 0.29124 0.0
C3971 C 0.02121 0.64892 0.31577 0.0
C3972 C 0.96615 0.54663 0.27041 0.0
C3973 C 0.97142 0.56266 0.27882 0.0
C3974 C 0.00418 0.59432 0.29727 0.0
C3975 C 0.00414 0.62656 0.30704 0.0
C3976 C 0.00043 0.61328 0.30048 0.0
C3977 C 0.98921 0.57475 0.28182 0.0
C3978 C 0.99311 0.58796 0.28823 0.0
H3979 H 0.98939 0.64395 0.31919 0.0
H3980 H 0.98338 0.62207 0.3091 0.0
H3981 H 0.01613 0.61127 0.31064 0.0
H3982 H 0.00587 0.55332 0.26543 0.0
H3983 H 0.0128 0.57826 0.2798 0.0
C3984 C 0.36767 0.38049 0.31978 0.0
C3985 C 0.35854 0.36648 0.32077 0.0
C3986 C 0.38017 0.3853 0.31335 0.0
C3987 C 0.39708 0.3767 0.28724 0.0
H3988 H 0.4306 0.40164 0.3062 0.0
C3989 C 0.44873 0.39044 0.26452 0.0
C3990 C 0.45989 0.40358 0.26681 0.0
C3991 C 0.43655 0.38609 0.27139 0.0
C3992 C 0.42135 0.39487 0.30065 0.0
H3993 H 0.35524 0.34655 0.31562 0.0
H3994 H 0.37692 0.35501 0.30403 0.0
H3995 H 0.40892 0.39402 0.31745 0.0
H3996 H 0.46658 0.4227 0.27741 0.0
H3997 H 0.44517 0.4153 0.28904 0.0
H3998 H 0.40927 0.37781 0.27027 0.0
C3999 C 0.37444 0.36221 0.30838 0.0
C4000 C 0.40895 0.39046 0.30714 0.0
C4001 C 0.36208 0.35739 0.31506 0.0
C4002 C 0.45833 0.41238 0.27577 0.0
C4003 C 0.44605 0.4081 0.28247 0.0
C4004 C 0.40944 0.38128 0.28065 0.0
C4005 C 0.38361 0.3762 0.30753 0.0
C4006 C 0.39673 0.38124 0.30053 0.0
C4007 C 0.43497 0.39488 0.28037 0.0
C4008 C 0.42178 0.39032 0.28731 0.0
H4009 H 0.36525 0.38774 0.32414 0.0
H4010 H 0.38707 0.39614 0.31275 0.0
H4011 H 0.38775 0.36971 0.28189 0.0
H4012 H 0.44927 0.38344 0.25739 0.0
H4013 H 0.42835 0.37578 0.26961 0.0
C4014 C 0.32816 0.29547 0.36071 0.0
C4015 C 0.33326 0.30909 0.3646 0.0
C4016 C 0.33334 0.288 0.36665 0.0
C4017 C 0.35193 0.28715 0.39697 0.0
H4018 H 0.36265 0.26669 0.37354 0.0
C4019 C 0.3871 0.26848 0.41582 0.0
C4020 C 0.38464 0.25578 0.41111 0.0
C4021 C 0.37975 0.27406 0.41051 0.0
C4022 C 0.35952 0.27216 0.38027 0.0
H4023 H 0.34764 0.32548 0.37788 0.0
H4024 H 0.35656 0.31246 0.38824 0.0
H4025 H 0.35144 0.27784 0.36364 0.0
H4026 H 0.37268 0.23903 0.39708 0.0
H4027 H 0.35964 0.24864 0.38797 0.0
H4028 H 0.36001 0.28154 0.4136 0.0
C4029 C 0.34855 0.30753 0.38066 0.0
C4030 C 0.3531 0.27856 0.37458 0.0
C4031 C 0.34349 0.31501 0.37465 0.0
C4032 C 0.3747 0.24879 0.40098 0.0
C4033 C 0.36732 0.25435 0.39569 0.0
C4034 C 0.35826 0.28069 0.40267 0.0
C4035 C 0.34359 0.29397 0.37669 0.0
C4036 C 0.34942 0.28628 0.38284 0.0
C4037 C 0.3698 0.26709 0.40033 0.0
C4038 C 0.36231 0.27328 0.39437 0.0
H4039 H 0.32028 0.29064 0.35298 0.0
H4040 H 0.32928 0.27754 0.36344 0.0
H4041 H 0.34901 0.29286 0.40362 0.0
H4042 H 0.39484 0.27417 0.42349 0.0
H4043 H 0.38211 0.284 0.41416 0.0
C4044 C 0.70387 0.02939 0.35718 0.0
C4045 C 0.69128 0.01981 0.36265 0.0
C4046 C 0.71083 0.04274 0.36234 0.0
C4047 C 0.71482 0.06293 0.39294 0.0
H4048 H 0.72419 0.09299 0.36901 0.0
C4049 C 0.72757 0.11484 0.41454 0.0
C4050 C 0.73729 0.12665 0.40801 0.0
C4051 C 0.72313 0.10209 0.40864 0.0
C4052 C 0.7219 0.08477 0.37583 0.0
H4053 H 0.67624 0.01658 0.37792 0.0
H4054 H 0.68855 0.03971 0.38711 0.0
H4055 H 0.71477 0.07011 0.35935 0.0
H4056 H 0.75018 0.13432 0.39028 0.0
H4057 H 0.74271 0.11198 0.3801 0.0
H4058 H 0.72203 0.0774 0.40941 0.0
C4059 C 0.69296 0.03695 0.37878 0.0
C4060 C 0.71647 0.07167 0.37027 0.0
C4061 C 0.6859 0.02374 0.37347 0.0
C4062 C 0.74258 0.1254 0.39548 0.0
C4063 C 0.73824 0.11259 0.38963 0.0
C4064 C 0.72042 0.076 0.39847 0.0
C4065 C 0.70544 0.04658 0.37323 0.0
C4066 C 0.71261 0.06062 0.37883 0.0
C4067 C 0.72847 0.10077 0.39616 0.0
C4068 C 0.72371 0.08706 0.39004 0.0
H4069 H 0.70822 0.02663 0.3488 0.0
H4070 H 0.72046 0.05001 0.35792 0.0
H4071 H 0.71208 0.05457 0.39973 0.0
H4072 H 0.72342 0.11546 0.42428 0.0
H4073 H 0.7154 0.09328 0.41386 0.0
C4074 C 0.9735 0.68666 0.36817 0.0
C4075 C 0.9818 0.68138 0.36455 0.0
C4076 C 0.96119 0.67863 0.37478 0.0
C4077 C 0.93533 0.64271 0.38087 0.0
H4078 H 0.92168 0.65885 0.40667 0.0
C4079 C 0.88361 0.61146 0.40763 0.0
C4080 C 0.87502 0.61678 0.40615 0.0
C4081 C 0.89737 0.61927 0.40443 0.0
C4082 C 0.92539 0.65422 0.39949 0.0
H4083 H 0.9838 0.66359 0.36536 0.0
H4084 H 0.96248 0.64968 0.37722 0.0
H4085 H 0.94453 0.67252 0.39763 0.0
H4086 H 0.87425 0.63465 0.40089 0.0
H4087 H 0.89832 0.64836 0.39554 0.0
H4088 H 0.91614 0.62439 0.38281 0.0
C4089 C 0.96533 0.65994 0.37466 0.0
C4090 C 0.93844 0.66205 0.39424 0.0
C4091 C 0.9776 0.66794 0.36791 0.0
C4092 C 0.88061 0.63026 0.40207 0.0
C4093 C 0.89439 0.63812 0.39906 0.0
C4094 C 0.92234 0.63484 0.38626 0.0
C4095 C 0.9569 0.66515 0.37809 0.0
C4096 C 0.94349 0.65648 0.38463 0.0
C4097 C 0.90286 0.63262 0.39995 0.0
C4098 C 0.91714 0.64059 0.39541 0.0
H4099 H 0.97638 0.69694 0.36567 0.0
H4100 H 0.95489 0.68294 0.37699 0.0
H4101 H 0.93876 0.6381 0.37337 0.0
H4102 H 0.87959 0.60114 0.41092 0.0
H4103 H 0.90371 0.61483 0.40533 0.0
C4104 C 0.36367 2e-05 0.69702 0.0
C4105 C 0.36734 0.01254 0.69121 0.0
C4106 C 0.37283 0.99869 0.70527 0.0
C4107 C 0.40185 0.01833 0.72799 0.0
H4108 H 0.40516 0.98637 0.72577 0.0
C4109 C 0.4404 0.01317 0.77099 0.0
C4110 C 0.43642 0.99529 0.77193 0.0
C4111 C 0.43143 0.01617 0.7577 0.0
C4112 C 0.40423 0.99528 0.72665 0.0
H4113 H 0.38358 0.03341 0.68925 0.0
H4114 H 0.39959 0.03108 0.70378 0.0
H4115 H 0.39158 0.98957 0.70883 0.0
H4116 H 0.41757 0.97029 0.76723 0.0
H4117 H 0.40331 0.97647 0.7471 0.0
H4118 H 0.41417 0.02385 0.74603 0.0
C4119 C 0.38961 0.02233 0.70194 0.0
C4120 C 0.39651 0.99715 0.71688 0.0
C4121 C 0.38048 0.02363 0.69356 0.0
C4122 C 0.42026 0.98065 0.76547 0.0
C4123 C 0.41193 0.98466 0.75241 0.0
C4124 C 0.40954 0.01643 0.73782 0.0
C4125 C 0.38581 0.00987 0.70798 0.0
C4126 C 0.39506 0.00858 0.71757 0.0
C4127 C 0.41776 0.00211 0.74827 0.0
C4128 C 0.41059 0.00476 0.73737 0.0
H4129 H 0.35362 0.9913 0.69542 0.0
H4130 H 0.36956 0.989 0.70989 0.0
H4131 H 0.40079 0.02717 0.72886 0.0
H4132 H 0.44926 0.02145 0.77594 0.0
H4133 H 0.43442 0.02648 0.75529 0.0
C4134 C 0.99506 0.35357 0.70762 0.0
C4135 C 0.98378 0.34863 0.69885 0.0
C4136 C -0.00102 0.36512 0.7158 0.0
C4137 C 0.98602 0.38718 0.72887 0.0
H4138 H 0.02403 0.41248 0.73665 0.0
C4139 C 0.00211 0.44456 0.75346 0.0
C4140 C 0.01356 0.44819 0.76841 0.0
C4141 C 0.99829 0.42955 0.74379 0.0
C4142 C 0.01338 0.40543 0.73463 0.0
H4143 H 0.96803 0.35211 0.69141 0.0
H4144 H 0.97517 0.37249 0.70508 0.0
H4145 H 0.01756 0.39205 0.72301 0.0
H4146 H 0.03305 0.44515 0.77769 0.0
H4147 H 0.02656 0.42179 0.76063 0.0
H4148 H 0.98196 0.40088 0.74009 0.0
C4149 C 0.98071 0.36723 0.70617 0.0
C4150 C 0.00964 0.39368 0.72687 0.0
C4151 C 0.97665 0.35557 0.69823 0.0
C4152 C 0.02571 0.44203 0.76947 0.0
C4153 C 0.02114 0.42712 0.75923 0.0
C4154 C 0.9898 0.39904 0.73637 0.0
C4155 C 0.99183 0.3721 0.71519 0.0
C4156 C 0.9959 0.38442 0.72382 0.0
C4157 C 0.00734 0.42077 0.74703 0.0
C4158 C 0.00348 0.40825 0.73926 0.0
H4159 H 0.0007 0.34837 0.70834 0.0
H4160 H 0.00747 0.36843 0.72275 0.0
H4161 H 0.97532 0.38014 0.7271 0.0
H4162 H 0.99606 0.44929 0.75238 0.0
H4163 H 0.99045 0.42574 0.73601 0.0
C4164 C 0.63999 0.62252 0.7007 0.0
C4165 C 0.64632 0.63602 0.69642 0.0
C4166 C 0.62781 0.6168 0.70786 0.0
C4167 C 0.60641 0.62515 0.72896 0.0
H4168 H 0.57769 0.58926 0.71773 0.0
C4169 C 0.55161 0.60097 0.74942 0.0
C4170 C 0.54457 0.58697 0.7518 0.0
C4171 C 0.56433 0.60721 0.74321 0.0
C4172 C 0.58566 0.5992 0.72115 0.0
H4173 H 0.64489 0.65417 0.69651 0.0
H4174 H 0.62358 0.64415 0.70904 0.0
H4175 H 0.59933 0.59968 0.70598 0.0
H4176 H 0.54522 0.56849 0.74925 0.0
H4177 H 0.56757 0.57942 0.73889 0.0
H4178 H 0.59277 0.62462 0.74423 0.0
C4179 C 0.62811 0.63803 0.70688 0.0
C4180 C 0.59805 0.60519 0.71438 0.0
C4181 C 0.64027 0.64373 0.69963 0.0
C4182 C 0.5505 0.57934 0.7478 0.0
C4183 C 0.56325 0.58559 0.7417 0.0
C4184 C 0.59402 0.61912 0.73582 0.0
C4185 C 0.62171 0.62447 0.71097 0.0
C4186 C 0.60856 0.61821 0.71821 0.0
C4187 C 0.57026 0.59958 0.73919 0.0
C4188 C 0.5835 0.60605 0.73201 0.0
H4189 H 0.64438 0.61629 0.69845 0.0
H4190 H 0.6232 0.60638 0.71103 0.0
H4191 H 0.61438 0.63516 0.73222 0.0
H4192 H 0.54713 0.60702 0.75213 0.0
H4193 H 0.56933 0.61796 0.74123 0.0
C4194 C 0.67655 0.70856 0.6518 0.0
C4195 C 0.66868 0.69433 0.65175 0.0
C4196 C 0.67182 0.71615 0.64529 0.0
C4197 C 0.64736 0.71304 0.6188 0.0
H4198 H 0.6515 0.7457 0.63587 0.0
C4199 C 0.61786 0.73823 0.60042 0.0
C4200 C 0.62469 0.75244 0.60019 0.0
C4201 C 0.62403 0.73161 0.60613 0.0
C4202 C 0.65043 0.73671 0.63088 0.0
H4203 H 0.6496 0.67693 0.64503 0.0
H4204 H 0.64133 0.69013 0.63387 0.0
H4205 H 0.66075 0.73332 0.64715 0.0
H4206 H 0.64322 0.7709 0.606 0.0
H4207 H 0.65411 0.75933 0.61585 0.0
H4208 H 0.63692 0.71634 0.60261 0.0
C4209 C 0.65124 0.69544 0.63871 0.0
C4210 C 0.65573 0.72961 0.63735 0.0
C4211 C 0.65595 0.68788 0.64521 0.0
C4212 C 0.63781 0.75992 0.60587 0.0
C4213 C 0.64398 0.7533 0.61161 0.0
C4214 C 0.64206 0.72013 0.61235 0.0
C4215 C 0.65915 0.70966 0.63858 0.0
C4216 C 0.65412 0.71761 0.63145 0.0
C4217 C 0.63713 0.73907 0.61185 0.0
C4218 C 0.64341 0.73197 0.61838 0.0
H4219 H 0.68642 0.71383 0.65673 0.0
H4220 H 0.6782 0.72709 0.64528 0.0
H4221 H 0.64618 0.70399 0.61385 0.0
H4222 H 0.60765 0.73222 0.59636 0.0
H4223 H 0.61838 0.72064 0.60637 0.0
C4224 C 0.29025 0.96716 0.64813 0.0
C4225 C 0.30432 0.97619 0.64824 0.0
C4226 C 0.28483 0.95395 0.64311 0.0
C4227 C 0.29409 0.92803 0.63408 0.0
H4228 H 0.25869 0.91059 0.61657 0.0
C4229 C 0.27014 0.87013 0.60444 0.0
C4230 C 0.25129 0.86137 0.60371 0.0
C4231 C 0.27833 0.88721 0.61124 0.0
C4232 C 0.26853 0.9153 0.62155 0.0
H4233 H 0.32376 0.97853 0.64298 0.0
H4234 H 0.31427 0.95558 0.63357 0.0
H4235 H 0.26926 0.93416 0.62394 0.0
H4236 H 0.23032 0.86009 0.6155 0.0
H4237 H 0.24489 0.88738 0.62667 0.0
H4238 H 0.29338 0.90909 0.63113 0.0
C4239 C 0.30742 0.95857 0.63777 0.0
C4240 C 0.2746 0.92882 0.62583 0.0
C4241 C 0.31287 0.97177 0.64306 0.0
C4242 C 0.24127 0.86608 0.6151 0.0
C4243 C 0.25037 0.88327 0.62149 0.0
C4244 C 0.2881 0.91454 0.62952 0.0
C4245 C 0.29331 0.94947 0.63777 0.0
C4246 C 0.28735 0.93531 0.63239 0.0
C4247 C 0.26847 0.89374 0.6191 0.0
C4248 C 0.27518 0.90804 0.62346 0.0
H4249 H 0.2834 0.9702 0.65224 0.0
H4250 H 0.27396 0.94718 0.64365 0.0
H4251 H 0.30383 0.9326 0.63923 0.0
H4252 H 0.27574 0.86658 0.59852 0.0
H4253 H 0.28919 0.89369 0.61025 0.0
C4254 C 0.03671 0.32566 0.65828 0.0
C4255 C 0.0302 0.33324 0.65915 0.0
C4256 C 0.04947 0.33113 0.65221 0.0
C4257 C 0.07136 0.35719 0.62761 0.0
H4258 H 0.09999 0.35251 0.64251 0.0
C4259 C 0.12621 0.3872 0.6081 0.0
C4260 C 0.13346 0.3804 0.60676 0.0
C4261 C 0.1135 0.38094 0.61428 0.0
C4262 C 0.09204 0.35375 0.63812 0.0
H4263 H 0.0322 0.35266 0.6548 0.0
H4264 H 0.05444 0.36221 0.64441 0.0
H4265 H 0.07819 0.34263 0.65411 0.0
H4266 H 0.13324 0.36184 0.61119 0.0
H4267 H 0.11087 0.35076 0.62179 0.0
H4268 H 0.08514 0.36829 0.61165 0.0
C4269 C 0.0496 0.35196 0.64816 0.0
C4270 C 0.07955 0.34811 0.64478 0.0
C4271 C 0.03689 0.34651 0.65422 0.0
C4272 C 0.12777 0.36723 0.61188 0.0
C4273 C 0.11504 0.36096 0.61807 0.0
C4274 C 0.0838 0.3628 0.62096 0.0
C4275 C 0.05595 0.34427 0.64687 0.0
C4276 C 0.06912 0.34988 0.63967 0.0
C4277 C 0.10776 0.36775 0.61936 0.0
C4278 C 0.09434 0.36126 0.62618 0.0
H4279 H 0.0318 0.31539 0.66196 0.0
H4280 H 0.05407 0.32493 0.65131 0.0
H4281 H 0.06343 0.35849 0.62325 0.0
H4282 H 0.13048 0.39745 0.60452 0.0
H4283 H 0.10829 0.38656 0.61534 0.0
C4284 C 0.29101 0.32114 0.64554 0.0
C4285 C 0.30464 0.32674 0.6495 0.0
C4286 C 0.28666 0.32908 0.63917 0.0
C4287 C 0.2965 0.36499 0.63473 0.0
H4288 H 0.26709 0.34935 0.60821 0.0
C4289 C 0.27634 0.3965 0.60951 0.0
C4290 C 0.26224 0.39083 0.6107 0.0
C4291 C 0.2823 0.38876 0.61229 0.0
C4292 C 0.27532 0.35384 0.61559 0.0
H4293 H 0.3245 0.34499 0.64943 0.0
H4294 H 0.31701 0.35875 0.63798 0.0
H4295 H 0.2763 0.33575 0.61665 0.0
H4296 H 0.24329 0.37246 0.61498 0.0
H4297 H 0.25367 0.35889 0.61961 0.0
H4298 H 0.29549 0.38308 0.63362 0.0
C4299 C 0.30958 0.3483 0.64012 0.0
C4300 C 0.28056 0.34604 0.6205 0.0
C4301 C 0.3139 0.34039 0.64663 0.0
C4302 C 0.25418 0.37711 0.61404 0.0
C4303 C 0.26011 0.36933 0.61663 0.0
C4304 C 0.29137 0.37282 0.6297 0.0
C4305 C 0.29587 0.3428 0.63645 0.0
C4306 C 0.29105 0.35143 0.63033 0.0
C4307 C 0.27425 0.37515 0.61606 0.0
C4308 C 0.28057 0.36725 0.62027 0.0
H4309 H 0.2836 0.31067 0.64765 0.0
H4310 H 0.27599 0.32453 0.63673 0.0
H4311 H 0.30442 0.36944 0.64244 0.0
H4312 H 0.28277 0.40701 0.6068 0.0
H4313 H 0.29322 0.39345 0.61164 0.0
C4314 C 0.66219 0.97923 0.63596 0.0
C4315 C 0.67161 0.98303 0.64671 0.0
C4316 C 0.65582 0.96611 0.63042 0.0
C4317 C 0.64428 0.93125 0.63818 0.0
H4318 H 0.64398 0.92624 0.59892 0.0
C4319 C 0.61683 0.87788 0.61226 0.0
C4320 C 0.61023 0.87655 0.59976 0.0
C4321 C 0.62522 0.89069 0.61825 0.0
C4322 C 0.64379 0.92743 0.60988 0.0
H4323 H 0.68168 0.97604 0.66018 0.0
H4324 H 0.67018 0.95283 0.65064 0.0
H4325 H 0.65696 0.94895 0.60894 0.0
H4326 H 0.60745 0.88763 0.58363 0.0
H4327 H 0.62144 0.9098 0.59432 0.0
H4328 H 0.63062 0.90984 0.63915 0.0
C4329 C 0.66789 0.96014 0.64647 0.0
C4330 C 0.65132 0.94044 0.61561 0.0
C4331 C 0.67449 0.97339 0.65187 0.0
C4332 C 0.61223 0.8883 0.59337 0.0
C4333 C 0.62044 0.90105 0.59942 0.0
C4334 C 0.63654 0.91822 0.63243 0.0
C4335 C 0.65856 0.95643 0.63564 0.0
C4336 C 0.6515 0.94249 0.62978 0.0
C4337 C 0.62715 0.90246 0.6119 0.0
C4338 C 0.63604 0.91616 0.61818 0.0
H4339 H 0.65978 0.98643 0.63175 0.0
H4340 H 0.64858 0.96346 0.62215 0.0
H4341 H 0.64419 0.93261 0.64914 0.0
H4342 H 0.61562 0.86902 0.61734 0.0
H4343 H 0.63036 0.89136 0.62775 0.0
C4344 C 0.02391 0.68928 0.64804 0.0
C4345 C 0.0192 0.69811 0.65149 0.0
C4346 C 0.03642 0.69414 0.64158 0.0
C4347 C 0.06314 0.72402 0.62294 0.0
H4348 H 0.08623 0.71037 0.63449 0.0
C4349 C 0.12119 0.75286 0.61616 0.0
C4350 C 0.12727 0.74541 0.61208 0.0
C4351 C 0.10733 0.74629 0.61895 0.0
C4352 C 0.07982 0.71415 0.63101 0.0
H4353 H 0.02398 0.71899 0.65084 0.0
H4354 H 0.04585 0.7275 0.64003 0.0
H4355 H 0.0633 0.70033 0.64341 0.0
H4356 H 0.12353 0.72529 0.60716 0.0
H4357 H 0.09927 0.71373 0.61234 0.0
H4358 H 0.07995 0.73822 0.611 0.0
C4359 C 0.03977 0.71675 0.64194 0.0
C4360 C 0.06665 0.70838 0.6361 0.0
C4361 C 0.02724 0.71187 0.64826 0.0
C4362 C 0.11912 0.73126 0.61042 0.0
C4363 C 0.10528 0.72466 0.6134 0.0
C4364 C 0.07636 0.72988 0.61799 0.0
C4365 C 0.04456 0.70797 0.63854 0.0
C4366 C 0.05819 0.71337 0.63229 0.0
C4367 C 0.09928 0.7321 0.61786 0.0
C4368 C 0.08489 0.72512 0.62211 0.0
H4369 H 0.01793 0.67859 0.6503 0.0
H4370 H 0.03967 0.68703 0.63894 0.0
H4371 H 0.05683 0.72794 0.61952 0.0
H4372 H 0.12721 0.76377 0.61749 0.0
H4373 H 0.103 0.75227 0.62247 0.0
C4374 C 0.97576 0.62264 0.69362 0.0
C4375 C 0.9854 0.63648 0.69539 0.0
C4376 C 0.97748 0.61283 0.70007 0.0
C4377 C 0.99536 0.6083 0.72899 0.0
H4378 H 0.98737 0.57541 0.70929 0.0
C4379 C 0.01005 0.57042 0.74942 0.0
C4380 C 0.00068 0.55653 0.74739 0.0
C4381 C 0.00785 0.58015 0.74352 0.0
C4382 C 0.98948 0.58446 0.715 0.0
H4383 H 0.00445 0.65089 0.70526 0.0
H4384 H 0.0075 0.63378 0.71641 0.0
H4385 H 0.98425 0.5924 0.69799 0.0
H4386 H 0.98176 0.54196 0.7375 0.0
H4387 H 0.97779 0.55893 0.72735 0.0
H4388 H 0.00063 0.60036 0.746 0.0
C4389 C 0.99853 0.63051 0.71017 0.0
C4390 C 0.9877 0.5942 0.70851 0.0
C4391 C 0.99682 0.64031 0.7037 0.0
C4392 C 0.98907 0.55259 0.73935 0.0
C4393 C 0.98687 0.56231 0.73345 0.0
C4394 C 0.99713 0.59855 0.73549 0.0
C4395 C 0.98886 0.61666 0.70847 0.0
C4396 C 0.99064 0.60625 0.71542 0.0
C4397 C 0.99628 0.57621 0.73536 0.0
C4398 C 0.99423 0.58652 0.72856 0.0
H4399 H 0.96682 0.61937 0.68732 0.0
H4400 H 0.96977 0.60226 0.69867 0.0
H4401 H 0.99752 0.61738 0.73467 0.0
H4402 H 0.01921 0.57373 0.75537 0.0
H4403 H 0.01539 0.59077 0.74503 0.0
C4404 C 0.37281 0.36781 0.69223 0.0
C4405 C 0.36014 0.35813 0.69745 0.0
C4406 C 0.38014 0.38078 0.69826 0.0
C4407 C 0.38421 0.3997 0.73013 0.0
H4408 H 0.39405 0.4307 0.70743 0.0
C4409 C 0.39565 0.45061 0.75346 0.0
C4410 C 0.40551 0.46271 0.74748 0.0
C4411 C 0.39162 0.43811 0.74716 0.0
C4412 C 0.39163 0.42221 0.7139 0.0
H4413 H 0.34541 0.35425 0.71329 0.0
H4414 H 0.3583 0.37669 0.72395 0.0
H4415 H 0.38486 0.40823 0.69687 0.0
H4416 H 0.41909 0.47118 0.73033 0.0
H4417 H 0.4123 0.44928 0.71944 0.0
H4418 H 0.39097 0.41353 0.74716 0.0
C4419 C 0.36253 0.37432 0.71517 0.0
C4420 C 0.38635 0.40935 0.70784 0.0
C4421 C 0.35513 0.36151 0.70901 0.0
C4422 C 0.41137 0.46202 0.7351 0.0
C4423 C 0.40743 0.44947 0.72885 0.0
C4424 C 0.38965 0.41255 0.73617 0.0
C4425 C 0.37502 0.38413 0.70977 0.0
C4426 C 0.38228 0.39794 0.71594 0.0
C4427 C 0.39751 0.43735 0.73481 0.0
C4428 C 0.39308 0.42393 0.72819 0.0
H4429 H 0.37689 0.36548 0.6833 0.0
H4430 H 0.38977 0.38818 0.69394 0.0
H4431 H 0.38131 0.39108 0.73658 0.0
H4432 H 0.39105 0.45081 0.76306 0.0
H4433 H 0.38377 0.42905 0.75194 0.0
C4434 C 0.65488 0.03433 0.70114 0.0
C4435 C 0.65709 0.02561 0.69271 0.0
C4436 C 0.64305 0.02932 0.7088 0.0
C4437 C 0.61362 0.99748 0.72149 0.0
H4438 H 0.59676 0.0194 0.72343 0.0
C4439 C 0.5639 0.98001 0.75102 0.0
C4440 C 0.55422 0.98222 0.7447 0.0
C4441 C 0.57714 0.98609 0.74603 0.0
C4442 C 0.60129 0.01311 0.72294 0.0
H4443 H 0.64867 0.00474 0.68586 0.0
H4444 H 0.62784 0.99605 0.69892 0.0
H4445 H 0.61833 0.02803 0.71191 0.0
H4446 H 0.55069 0.99229 0.7281 0.0
H4447 H 0.57365 0.00271 0.71922 0.0
H4448 H 0.59622 0.98228 0.73194 0.0
C4449 C 0.63538 0.00673 0.69985 0.0
C4450 C 0.61378 0.01814 0.71648 0.0
C4451 C 0.6473 0.01172 0.69229 0.0
C4452 C 0.55804 0.99063 0.73332 0.0
C4453 C 0.57121 0.99664 0.72828 0.0
C4454 C 0.60107 0.9924 0.72787 0.0
C4455 C 0.63305 0.0155 0.70811 0.0
C4456 C 0.62006 0.01034 0.71557 0.0
C4457 C 0.58091 0.99435 0.73449 0.0
C4458 C 0.59468 0.0001 0.72854 0.0
H4459 H 0.66229 0.04506 0.70181 0.0
H4460 H 0.64174 0.03633 0.71525 0.0
H4461 H 0.61824 0.99127 0.72116 0.0
H4462 H 0.56118 0.97339 0.75967 0.0
H4463 H 0.58437 0.98422 0.75115 0.0
loop_
_geom_bond_atom_site_label_1
_geom_bond_atom_site_label_2
_geom_bond_distance
_geom_bond_site_symmetry_2
_ccdc_geom_bond_type
C0 O1 1.306 . S
C0 O3 1.163 1_655 S
O1 C0 1.306 . S
O1 Cd2 2.228 1_556 S
Cd2 O1 2.228 1_554 S
Cd2 O6 2.273 . S
Cd2 O10 2.332 1_554 S
O3 C0 1.163 1_455 S
O3 Cd4 2.203 1_556 S
Cd4 O3 2.203 1_554 S
Cd4 O6 2.411 1_455 S
Cd4 O7 2.333 . S
Cd4 O8 2.352 . S
Cd4 O12 2.277 1_554 S
Cd4 O13 2.356 . S
C5 O10 1.148 1_455 S
C5 O12 1.226 . S
O6 Cd2 2.273 . S
O6 Cd4 2.411 1_655 S
O6 C9 1.320 1_655 S
O7 Cd4 2.333 . S
O7 C9 1.214 . S
O8 Cd4 2.352 . S
O8 C11 1.258 . S
C9 O6 1.320 1_455 S
C9 O7 1.214 . S
O10 Cd2 2.332 1_556 S
O10 C5 1.148 1_655 S
C11 O8 1.258 . S
C11 O13 1.282 . S
O12 Cd4 2.277 1_556 S
O12 C5 1.226 . S
O13 Cd4 2.356 . S
O13 C11 1.282 . S
C14 O15 1.306 . S
C14 O17 1.160 . S
O15 C14 1.306 . S
O15 Cd16 2.228 . S
Cd16 O15 2.228 . S
Cd16 O20 2.273 . S
Cd16 O24 2.277 . S
O17 C14 1.160 . S
O17 Cd18 2.203 . S
Cd18 O17 2.203 . S
Cd18 O20 2.411 . S
Cd18 O21 2.333 1_554 S
Cd18 O22 2.352 1_554 S
Cd18 O26 2.277 . S
Cd18 O27 2.356 . S
C19 O24 1.209 . S
C19 O26 1.226 . S
O20 Cd16 2.273 . S
O20 Cd18 2.411 . S
O20 C23 1.320 1_554 S
O21 Cd18 2.333 1_556 S
O21 C23 1.214 . S
O22 Cd18 2.352 1_556 S
O22 C25 1.264 . S
C23 O20 1.320 1_556 S
C23 O21 1.214 . S
O24 Cd16 2.277 . S
O24 C19 1.209 . S
C25 O22 1.264 . S
C25 O27 1.252 1_556 S
O26 Cd18 2.277 . S
O26 C19 1.226 . S
O27 Cd18 2.356 . S
O27 C25 1.252 1_554 S
C28 O29 1.306 . S
C28 O31 1.166 1_565 S
O29 C28 1.306 . S
O29 Cd30 2.228 . S
Cd30 O29 2.228 . S
Cd30 O34 2.273 1_554 S
Cd30 O38 2.336 . S
O31 C28 1.166 1_545 S
O31 Cd32 2.203 . S
Cd32 O31 2.203 . S
Cd32 O34 2.411 1_544 S
Cd32 O35 2.333 1_554 S
Cd32 O36 2.352 1_554 S
Cd32 O40 2.277 . S
Cd32 O41 2.356 . S
C33 O38 1.144 1_545 S
C33 O40 1.226 . S
O34 Cd30 2.273 1_556 S
O34 Cd32 2.411 1_566 S
O34 C37 1.320 1_565 S
O35 Cd32 2.333 1_556 S
O35 C37 1.214 . S
O36 Cd32 2.352 1_556 S
O36 C39 1.258 . S
C37 O34 1.320 1_545 S
C37 O35 1.214 . S
O38 Cd30 2.336 . S
O38 C33 1.144 1_565 S
C39 O36 1.258 . S
C39 O41 1.282 1_556 S
O40 Cd32 2.277 . S
O40 C33 1.226 . S
O41 Cd32 2.356 . S
O41 C39 1.282 1_554 S
C42 O43 1.306 1_556 S
C42 O45 1.165 . S
O43 C42 1.306 1_554 S
O43 Cd44 2.228 . S
Cd44 O43 2.228 . S
Cd44 O48 2.273 . S
Cd44 O52 2.277 1_554 S
O45 C42 1.165 . S
O45 Cd46 2.167 1_656 S
Cd46 O45 2.167 1_454 S
Cd46 O48 2.411 1_455 S
Cd46 O49 2.333 . S
Cd46 O50 2.352 . S
Cd46 O54 2.277 1_554 S
Cd46 O55 2.356 . S
C47 O52 1.209 1_455 S
C47 O54 1.226 . S
O48 Cd44 2.273 . S
O48 Cd46 2.411 1_655 S
O48 C51 1.320 . S
O49 Cd46 2.333 . S
O49 C51 1.214 1_455 S
O50 Cd46 2.352 . S
O50 C53 1.258 . S
C51 O48 1.320 . S
C51 O49 1.214 1_655 S
O52 Cd44 2.277 1_556 S
O52 C47 1.209 1_655 S
C53 O50 1.258 . S
C53 O55 1.282 . S
O54 Cd46 2.277 1_556 S
O54 C47 1.226 . S
O55 Cd46 2.356 . S
O55 C53 1.282 . S
C56 O57 1.306 . S
C56 O59 1.160 . S
O57 C56 1.306 . S
O57 Cd58 2.228 . S
Cd58 O57 2.228 . S
Cd58 O62 2.273 1_554 S
Cd58 O66 2.277 . S
O59 C56 1.160 . S
O59 Cd60 2.203 . S
Cd60 O59 2.203 . S
Cd60 O62 2.411 1_554 S
Cd60 O63 2.333 1_554 S
Cd60 O64 2.352 1_554 S
Cd60 O68 2.277 . S
Cd60 O69 2.356 1_554 S
C61 O66 1.209 . S
C61 O68 1.226 . S
O62 Cd58 2.273 1_556 S
O62 Cd60 2.411 1_556 S
O62 C65 1.320 . S
O63 Cd60 2.333 1_556 S
O63 C65 1.214 . S
O64 Cd60 2.352 1_556 S
O64 C67 1.258 . S
C65 O62 1.320 . S
C65 O63 1.214 . S
O66 Cd58 2.277 . S
O66 C61 1.209 . S
C67 O64 1.258 . S
C67 O69 1.282 . S
O68 Cd60 2.277 . S
O68 C61 1.226 . S
O69 Cd60 2.356 1_556 S
O69 C67 1.282 . S
C70 O71 1.306 1_556 S
C70 O73 1.163 . S
O71 C70 1.306 1_554 S
O71 Cd72 2.228 . S
Cd72 O71 2.228 . S
Cd72 O76 2.273 . S
Cd72 O80 2.277 1_554 S
O73 C70 1.163 . S
O73 Cd74 2.177 1_546 S
Cd74 O73 2.177 1_564 S
Cd74 O76 2.411 1_565 S
Cd74 O77 2.333 . S
Cd74 O78 2.352 . S
Cd74 O82 2.277 1_554 S
Cd74 O83 2.356 . S
C75 O80 1.209 1_565 S
C75 O82 1.226 . S
O76 Cd72 2.273 . S
O76 Cd74 2.411 1_545 S
O76 C79 1.320 . S
O77 Cd74 2.333 . S
O77 C79 1.214 1_565 S
O78 Cd74 2.352 . S
O78 C81 1.258 . S
C79 O76 1.320 . S
C79 O77 1.214 1_545 S
O80 Cd72 2.277 1_556 S
O80 C75 1.209 1_545 S
C81 O78 1.258 . S
C81 O83 1.282 . S
O82 Cd74 2.277 1_556 S
O82 C75 1.226 . S
O83 Cd74 2.356 . S
O83 C81 1.282 . S
C84 O85 1.306 . S
C84 O87 1.160 . S
O85 C84 1.306 . S
O85 Cd86 2.228 . S
Cd86 O85 2.228 . S
Cd86 O90 2.273 . S
Cd86 O94 2.277 . S
O87 C84 1.160 . S
O87 Cd88 2.203 . S
Cd88 O87 2.203 . S
Cd88 O90 2.411 . S
Cd88 O91 2.333 . S
Cd88 O92 2.352 . S
Cd88 O96 2.277 . S
Cd88 O97 2.356 . S
C89 O94 1.209 . S
C89 O96 1.226 . S
O90 Cd86 2.273 . S
O90 Cd88 2.411 . S
O90 C93 1.320 . S
O91 Cd88 2.333 . S
O91 C93 1.214 . S
O92 Cd88 2.352 . S
O92 C95 1.258 . S
C93 O90 1.320 . S
C93 O91 1.214 . S
O94 Cd86 2.277 . S
O94 C89 1.209 . S
C95 O92 1.258 . S
C95 O97 1.282 . S
O96 Cd88 2.277 . S
O96 C89 1.226 . S
O97 Cd88 2.356 . S
O97 C95 1.282 . S
C98 O99 1.306 . S
C98 O101 1.125 1_545 S
O99 C98 1.306 . S
O99 Cd100 2.228 1_545 S
Cd100 O99 2.228 1_565 S
Cd100 O104 2.273 . S
Cd100 O108 2.277 . S
O101 C98 1.125 1_565 S
O101 Cd102 2.230 . S
Cd102 O101 2.230 . S
Cd102 O104 2.411 . S
Cd102 O105 2.333 . S
Cd102 O106 2.352 . S
Cd102 O110 2.277 . S
Cd102 O111 2.356 . S
C103 O108 1.209 . S
C103 O110 1.226 . S
O104 Cd100 2.273 . S
O104 Cd102 2.411 . S
O104 C107 1.320 . S
O105 Cd102 2.333 . S
O105 C107 1.214 . S
O106 Cd102 2.352 . S
O106 C109 1.258 . S
C107 O104 1.320 . S
C107 O105 1.214 . S
O108 Cd100 2.277 . S
O108 C103 1.209 . S
C109 O106 1.258 . S
C109 O111 1.282 . S
O110 Cd102 2.277 . S
O110 C103 1.226 . S
O111 Cd102 2.356 . S
O111 C109 1.282 . S
C112 O113 1.306 . S
C112 O115 1.160 . S
O113 C112 1.306 . S
O113 Cd114 2.228 . S
Cd114 O113 2.228 . S
Cd114 O118 2.273 . S
Cd114 O122 2.277 . S
O115 C112 1.160 . S
O115 Cd116 2.203 . S
Cd116 O115 2.203 . S
Cd116 O118 2.411 . S
Cd116 O119 2.333 . S
Cd116 O120 2.352 . S
Cd116 O124 2.277 . S
Cd116 O125 2.356 . S
C117 O122 1.209 . S
C117 O124 1.226 . S
O118 Cd114 2.273 . S
O118 Cd116 2.411 . S
O118 C121 1.320 . S
O119 Cd116 2.333 . S
O119 C121 1.214 . S
O120 Cd116 2.352 . S
O120 C123 1.258 . S
C121 O118 1.320 . S
C121 O119 1.214 . S
O122 Cd114 2.277 . S
O122 C117 1.209 . S
C123 O120 1.258 . S
C123 O125 1.282 . S
O124 Cd116 2.277 . S
O124 C117 1.226 . S
O125 Cd116 2.356 . S
O125 C123 1.282 . S
C126 O127 1.306 . S
C126 O129 1.160 . S
O127 C126 1.306 . S
O127 Cd128 2.228 . S
Cd128 O127 2.228 . S
Cd128 O132 2.273 . S
Cd128 O136 2.277 . S
O129 C126 1.160 . S
O129 Cd130 2.203 . S
Cd130 O129 2.203 . S
Cd130 O132 2.411 . S
Cd130 O133 2.333 . S
Cd130 O134 2.352 1_565 S
Cd130 O138 2.277 . S
Cd130 O139 2.356 1_565 S
C131 O136 1.209 . S
C131 O138 1.226 . S
O132 Cd128 2.273 . S
O132 Cd130 2.411 . S
O132 C135 1.320 . S
O133 Cd130 2.333 . S
O133 C135 1.214 . S
O134 Cd130 2.352 1_545 S
O134 C137 1.258 . S
C135 O132 1.320 . S
C135 O133 1.214 . S
O136 Cd128 2.277 . S
O136 C131 1.209 . S
C137 O134 1.258 . S
C137 O139 1.282 . S
O138 Cd130 2.277 . S
O138 C131 1.226 . S
O139 Cd130 2.356 1_545 S
O139 C137 1.282 . S
C140 O141 1.306 1_655 S
C140 O143 1.160 1_655 S
O141 C140 1.306 1_455 S
O141 Cd142 2.228 . S
Cd142 O141 2.228 . S
Cd142 O146 2.273 . S
Cd142 O150 2.277 . S
O143 C140 1.160 1_455 S
O143 Cd144 2.203 . S
Cd144 O143 2.203 . S
Cd144 O146 2.411 . S
Cd144 O147 2.333 . S
Cd144 O148 2.352 . S
Cd144 O152 2.277 . S
Cd144 O153 2.356 . S
C145 O150 1.209 . S
C145 O152 1.226 . S
O146 Cd142 2.273 . S
O146 Cd144 2.411 . S
O146 C149 1.320 . S
O147 Cd144 2.333 . S
O147 C149 1.214 . S
O148 Cd144 2.352 . S
O148 C151 1.258 . S
C149 O146 1.320 . S
C149 O147 1.214 . S
O150 Cd142 2.277 . S
O150 C145 1.209 . S
C151 O148 1.258 . S
C151 O153 1.282 . S
O152 Cd144 2.277 . S
O152 C145 1.226 . S
O153 Cd144 2.356 . S
O153 C151 1.282 . S
C154 O155 1.306 . S
C154 O157 1.160 . S
O155 C154 1.306 . S
O155 Cd156 2.228 . S
Cd156 O155 2.228 . S
Cd156 O160 2.273 . S
Cd156 O164 2.277 . S
O157 C154 1.160 . S
O157 Cd158 2.203 . S
Cd158 O157 2.203 . S
Cd158 O160 2.411 . S
Cd158 O161 2.333 . S
Cd158 O162 2.352 . S
Cd158 O166 2.277 . S
Cd158 O167 2.356 . S
C159 O164 1.209 . S
C159 O166 1.226 . S
O160 Cd156 2.273 . S
O160 Cd158 2.411 . S
O160 C163 1.320 . S
O161 Cd158 2.333 . S
O161 C163 1.214 . S
O162 Cd158 2.352 . S
O162 C165 1.258 . S
C163 O160 1.320 . S
C163 O161 1.214 . S
O164 Cd156 2.277 . S
O164 C159 1.209 . S
C165 O162 1.258 . S
C165 O167 1.282 . S
O166 Cd158 2.277 . S
O166 C159 1.226 . S
O167 Cd158 2.356 . S
O167 C165 1.282 . S
C168 O169 1.280 1_565 S
C168 O171 1.160 1_565 S
O169 C168 1.280 1_545 S
O169 Cd170 2.266 . S
Cd170 O169 2.266 . S
Cd170 O174 2.273 . S
Cd170 O178 2.277 . S
O171 C168 1.160 1_545 S
O171 Cd172 2.203 . S
Cd172 O171 2.203 . S
Cd172 O174 2.411 . S
Cd172 O175 2.333 . S
Cd172 O176 2.352 . S
Cd172 O180 2.277 . S
Cd172 O181 2.356 . S
C173 O178 1.209 . S
C173 O180 1.226 . S
O174 Cd170 2.273 . S
O174 Cd172 2.411 . S
O174 C177 1.320 . S
O175 Cd172 2.333 . S
O175 C177 1.214 . S
O176 Cd172 2.352 . S
O176 C179 1.258 . S
C177 O174 1.320 . S
C177 O175 1.214 . S
O178 Cd170 2.277 . S
O178 C173 1.209 . S
C179 O176 1.258 . S
C179 O181 1.282 . S
O180 Cd172 2.277 . S
O180 C173 1.226 . S
O181 Cd172 2.356 . S
O181 C179 1.282 . S
C182 O183 1.306 . S
C182 O185 1.160 . S
O183 C182 1.306 . S
O183 Cd184 2.228 . S
Cd184 O183 2.228 . S
Cd184 O188 2.273 . S
Cd184 O192 2.277 . S
O185 C182 1.160 . S
O185 Cd186 2.203 . S
Cd186 O185 2.203 . S
Cd186 O188 2.411 . S
Cd186 O189 2.333 . S
Cd186 O190 2.352 1_655 S
Cd186 O194 2.277 . S
Cd186 O195 2.356 1_655 S
C187 O192 1.209 . S
C187 O194 1.226 . S
O188 Cd184 2.273 . S
O188 Cd186 2.411 . S
O188 C191 1.320 . S
O189 Cd186 2.333 . S
O189 C191 1.214 . S
O190 Cd186 2.352 1_455 S
O190 C193 1.258 . S
C191 O188 1.320 . S
C191 O189 1.214 . S
O192 Cd184 2.277 . S
O192 C187 1.209 . S
C193 O190 1.258 . S
C193 O195 1.282 . S
O194 Cd186 2.277 . S
O194 C187 1.226 . S
O195 Cd186 2.356 1_455 S
O195 C193 1.282 . S
C196 O197 1.306 . S
C196 O199 1.160 . S
O197 C196 1.306 . S
O197 Cd198 2.228 . S
Cd198 O197 2.228 . S
Cd198 O202 2.273 . S
Cd198 O206 2.277 . S
O199 C196 1.160 . S
O199 Cd200 2.203 . S
Cd200 O199 2.203 . S
Cd200 O202 2.411 . S
Cd200 O203 2.333 . S
Cd200 O204 2.352 . S
Cd200 O208 2.277 . S
Cd200 O209 2.356 . S
C201 O206 1.209 . S
C201 O208 1.226 . S
O202 Cd198 2.273 . S
O202 Cd200 2.411 . S
O202 C205 1.320 . S
O203 Cd200 2.333 . S
O203 C205 1.214 . S
O204 Cd200 2.352 . S
O204 C207 1.258 . S
C205 O202 1.320 . S
C205 O203 1.214 . S
O206 Cd198 2.277 . S
O206 C201 1.209 . S
C207 O204 1.258 . S
C207 O209 1.282 . S
O208 Cd200 2.277 . S
O208 C201 1.226 . S
O209 Cd200 2.356 . S
O209 C207 1.282 . S
C210 O211 1.306 . S
C210 O213 1.160 . S
O211 C210 1.306 . S
O211 Cd212 2.228 . S
Cd212 O211 2.228 . S
Cd212 O216 2.273 . S
Cd212 O220 2.277 . S
O213 C210 1.160 . S
O213 Cd214 2.203 . S
Cd214 O213 2.203 . S
Cd214 O216 2.411 . S
Cd214 O217 2.333 . S
Cd214 O218 2.352 . S
Cd214 O222 2.277 . S
Cd214 O223 2.356 . S
C215 O220 1.209 . S
C215 O222 1.226 . S
O216 Cd212 2.273 . S
O216 Cd214 2.411 . S
O216 C219 1.320 . S
O217 Cd214 2.333 . S
O217 C219 1.214 . S
O218 Cd214 2.352 . S
O218 C221 1.258 . S
C219 O216 1.320 . S
C219 O217 1.214 . S
O220 Cd212 2.277 . S
O220 C215 1.209 . S
C221 O218 1.258 . S
C221 O223 1.282 . S
O222 Cd214 2.277 . S
O222 C215 1.226 . S
O223 Cd214 2.356 . S
O223 C221 1.282 . S
C224 O225 1.306 . S
C224 O227 1.160 . S
O225 C224 1.306 . S
O225 Cd226 2.228 . S
Cd226 O225 2.228 . S
Cd226 O230 2.273 . S
Cd226 O234 2.277 . S
O227 C224 1.160 . S
O227 Cd228 2.203 . S
Cd228 O227 2.203 . S
Cd228 O230 2.411 . S
Cd228 O231 2.333 . S
Cd228 O232 2.352 . S
Cd228 O236 2.277 . S
Cd228 O237 2.356 1_545 S
C229 O234 1.209 . S
C229 O236 1.226 . S
O230 Cd226 2.273 . S
O230 Cd228 2.411 . S
O230 C233 1.320 . S
O231 Cd228 2.333 . S
O231 C233 1.214 . S
O232 Cd228 2.352 . S
O232 C235 1.258 1_545 S
C233 O230 1.320 . S
C233 O231 1.214 . S
O234 Cd226 2.277 . S
O234 C229 1.209 . S
C235 O232 1.258 1_565 S
C235 O237 1.282 . S
O236 Cd228 2.277 . S
O236 C229 1.226 . S
O237 Cd228 2.356 1_565 S
O237 C235 1.282 . S
C238 O239 1.306 . S
C238 O241 1.160 1_455 S
O239 C238 1.306 . S
O239 Cd240 2.228 1_455 S
Cd240 O239 2.228 1_655 S
Cd240 O244 2.273 . S
Cd240 O248 2.277 . S
O241 C238 1.160 1_655 S
O241 Cd242 2.203 . S
Cd242 O241 2.203 . S
Cd242 O244 2.411 . S
Cd242 O245 2.333 . S
Cd242 O246 2.352 . S
Cd242 O250 2.277 . S
Cd242 O251 2.356 . S
C243 O248 1.209 . S
C243 O250 1.226 . S
O244 Cd240 2.273 . S
O244 Cd242 2.411 . S
O244 C247 1.320 . S
O245 Cd242 2.333 . S
O245 C247 1.214 . S
O246 Cd242 2.352 . S
O246 C249 1.258 . S
C247 O244 1.320 . S
C247 O245 1.214 . S
O248 Cd240 2.277 . S
O248 C243 1.209 . S
C249 O246 1.258 . S
C249 O251 1.282 . S
O250 Cd242 2.277 . S
O250 C243 1.226 . S
O251 Cd242 2.356 . S
O251 C249 1.282 . S
C252 C253 1.560 . S
C252 H313 0.959 . S
C252 H314 0.959 . S
C252 H315 0.960 . S
C253 C252 1.560 . S
C253 O308 1.426 . S
C253 H312 0.980 . S
C254 C255 1.407 . S
C254 C259 1.418 . S
C254 O308 1.334 . S
C255 C254 1.407 . S
C255 C256 1.360 . S
C255 H316 0.929 . S
C256 C255 1.360 . S
C256 C257 1.401 . S
C256 C260 1.527 . S
C257 C256 1.401 . S
C257 C258 1.405 . S
C257 C290 1.587 . S
C258 C257 1.405 . S
C258 C259 1.332 . S
C258 C261 1.496 . S
C259 C254 1.418 . S
C259 C258 1.332 . S
C259 H317 0.929 . S
C260 C256 1.527 . S
C260 H318 0.959 . S
C260 H319 0.961 . S
C260 H320 0.961 . S
C261 C258 1.496 . S
C261 H321 0.960 . S
C261 H322 0.960 . S
C261 H323 0.961 . S
C262 C263 1.517 . S
C262 H325 0.961 . S
C262 H326 0.960 . S
C262 H327 0.959 . S
C263 C262 1.517 . S
C263 O311 1.468 . S
C263 H324 0.980 . S
C264 C265 1.349 . S
C264 C269 1.367 . S
C264 O311 1.408 . S
C265 C264 1.349 . S
C265 C266 1.407 . S
C265 H328 0.930 . S
C266 C265 1.407 . S
C266 C267 1.449 . S
C266 C270 1.535 . S
C267 C266 1.449 . S
C267 C268 1.384 . S
C267 C292 1.553 . S
C268 C267 1.384 . S
C268 C269 1.364 . S
C268 C271 1.450 . S
C269 C264 1.367 . S
C269 C268 1.364 . S
C269 H329 0.931 . S
C270 C266 1.535 . S
C270 H330 0.959 . S
C270 H331 0.961 . S
C270 H332 0.959 . S
C271 C268 1.450 . S
C271 H333 0.960 . S
C271 H334 0.960 . S
C271 H335 0.960 . S
C272 C273 1.309 . S
C272 C277 1.304 . S
C272 O310 1.435 . S
C273 C272 1.309 . S
C273 C274 1.476 . S
C273 H337 0.930 . S
C274 C273 1.476 . S
C274 C275 1.400 . S
C274 C278 1.567 . S
C275 C274 1.400 . S
C275 C276 1.373 . S
C275 C297 1.432 . S
C276 C275 1.373 . S
C276 C277 1.339 . S
C276 C279 1.530 . S
C277 C272 1.304 . S
C277 C276 1.339 . S
C277 H338 0.930 . S
C278 C274 1.567 . S
C278 H339 0.961 . S
C278 H340 0.960 . S
C278 H341 0.958 . S
C279 C276 1.530 . S
C279 H342 0.961 . S
C279 H343 0.960 . S
C279 H344 0.960 . S
C280 C281 1.530 . S
C280 H346 0.961 . S
C280 H347 0.961 . S
C280 H348 0.959 . S
C281 C280 1.530 . S
C281 O309 1.412 . S
C281 H345 0.980 . S
C282 C283 1.288 . S
C282 C287 1.377 . S
C282 O309 1.393 . S
C283 C282 1.288 . S
C283 C284 1.369 . S
C283 H349 0.932 . S
C284 C283 1.369 . S
C284 C285 1.398 . S
C284 C288 1.527 . S
C285 C284 1.398 . S
C285 C286 1.380 . S
C285 C299 1.497 . S
C286 C285 1.380 . S
C286 C287 1.383 . S
C286 C289 1.603 . S
C287 C282 1.377 . S
C287 C286 1.383 . S
C287 H350 0.929 . S
C288 C284 1.527 . S
C288 H351 0.961 . S
C288 H352 0.959 . S
C288 H353 0.959 . S
C289 C286 1.603 . S
C289 H354 0.960 . S
C289 H355 0.962 . S
C289 H356 0.961 . S
C290 C257 1.587 . S
C290 C291 1.360 . S
C290 C303 1.412 . S
C291 C290 1.360 . S
C291 C292 1.365 . S
C291 H357 0.929 . S
C292 C267 1.553 . S
C292 C291 1.365 . S
C292 C293 1.404 . S
C293 C292 1.404 . S
C293 C294 1.395 . S
C293 C304 1.451 . S
C294 C293 1.395 . S
C294 C295 1.322 . S
C294 H358 0.930 . S
C295 C294 1.322 . S
C295 C296 1.459 . S
C295 H359 0.929 . S
C296 C295 1.459 . S
C296 C297 1.445 . S
C296 C305 1.395 . S
C297 C275 1.432 . S
C297 C296 1.445 . S
C297 C298 1.370 . S
C298 C297 1.370 . S
C298 C299 1.438 . S
C298 H360 0.930 . S
C299 C285 1.497 . S
C299 C298 1.438 . S
C299 C300 1.360 . S
C300 C299 1.360 . S
C300 C301 1.401 . S
C300 C305 1.446 . S
C301 C300 1.401 . S
C301 C302 1.347 . S
C301 H361 0.929 . S
C302 C301 1.347 . S
C302 C303 1.455 . S
C302 H362 0.930 . S
C303 C290 1.412 . S
C303 C302 1.455 . S
C303 C304 1.331 . S
C304 C293 1.451 . S
C304 C303 1.331 . S
C304 C305 1.497 . S
C305 C296 1.395 . S
C305 C300 1.446 . S
C305 C304 1.497 . S
C306 C307 1.582 . S
C306 H363 0.962 . S
C306 H364 0.959 . S
C306 H365 0.958 . S
C307 C306 1.582 . S
C307 O310 1.458 . S
C307 H336 0.980 . S
O308 C253 1.426 . S
O308 C254 1.334 . S
O309 C281 1.412 . S
O309 C282 1.393 . S
O310 C272 1.435 . S
O310 C307 1.458 . S
O311 C263 1.468 . S
O311 C264 1.408 . S
H312 C253 0.980 . S
H313 C252 0.959 . S
H314 C252 0.959 . S
H315 C252 0.960 . S
H316 C255 0.929 . S
H317 C259 0.929 . S
H318 C260 0.959 . S
H319 C260 0.961 . S
H320 C260 0.961 . S
H321 C261 0.960 . S
H322 C261 0.960 . S
H323 C261 0.961 . S
H324 C263 0.980 . S
H325 C262 0.961 . S
H326 C262 0.960 . S
H327 C262 0.959 . S
H328 C265 0.930 . S
H329 C269 0.931 . S
H330 C270 0.959 . S
H331 C270 0.961 . S
H332 C270 0.959 . S
H333 C271 0.960 . S
H334 C271 0.960 . S
H335 C271 0.960 . S
H336 C307 0.980 . S
H337 C273 0.930 . S
H338 C277 0.930 . S
H339 C278 0.961 . S
H340 C278 0.960 . S
H341 C278 0.958 . S
H342 C279 0.961 . S
H343 C279 0.960 . S
H344 C279 0.960 . S
H345 C281 0.980 . S
H346 C280 0.961 . S
H347 C280 0.961 . S
H348 C280 0.959 . S
H349 C283 0.932 . S
H350 C287 0.929 . S
H351 C288 0.961 . S
H352 C288 0.959 . S
H353 C288 0.959 . S
H354 C289 0.960 . S
H355 C289 0.962 . S
H356 C289 0.961 . S
H357 C291 0.929 . S
H358 C294 0.930 . S
H359 C295 0.929 . S
H360 C298 0.930 . S
H361 C301 0.929 . S
H362 C302 0.930 . S
H363 C306 0.962 . S
H364 C306 0.959 . S
H365 C306 0.958 . S
C366 C367 1.560 . S
C366 H427 0.959 . S
C366 H428 0.959 . S
C366 H429 0.960 . S
C367 C366 1.560 . S
C367 O422 1.426 . S
C367 H426 0.980 . S
C368 C369 1.407 . S
C368 C373 1.418 . S
C368 O422 1.334 . S
C369 C368 1.407 . S
C369 C370 1.360 . S
C369 H430 0.929 . S
C370 C369 1.360 . S
C370 C371 1.401 . S
C370 C374 1.527 . S
C371 C370 1.401 . S
C371 C372 1.405 . S
C371 C404 1.587 . S
C372 C371 1.405 . S
C372 C373 1.332 . S
C372 C375 1.496 . S
C373 C368 1.418 . S
C373 C372 1.332 . S
C373 H431 0.929 . S
C374 C370 1.527 . S
C374 H432 0.959 . S
C374 H433 0.961 . S
C374 H434 0.961 . S
C375 C372 1.496 . S
C375 H435 0.960 . S
C375 H436 0.960 . S
C375 H437 0.961 . S
C376 C377 1.517 . S
C376 H439 0.961 . S
C376 H440 0.960 . S
C376 H441 0.959 . S
C377 C376 1.517 . S
C377 O425 1.468 . S
C377 H438 0.980 . S
C378 C379 1.349 . S
C378 C383 1.367 . S
C378 O425 1.408 . S
C379 C378 1.349 . S
C379 C380 1.407 . S
C379 H442 0.930 . S
C380 C379 1.407 . S
C380 C381 1.449 . S
C380 C384 1.535 . S
C381 C380 1.449 . S
C381 C382 1.384 . S
C381 C406 1.553 . S
C382 C381 1.384 . S
C382 C383 1.364 . S
C382 C385 1.450 . S
C383 C378 1.367 . S
C383 C382 1.364 . S
C383 H443 0.931 . S
C384 C380 1.535 . S
C384 H444 0.959 . S
C384 H445 0.961 . S
C384 H446 0.959 . S
C385 C382 1.450 . S
C385 H447 0.960 . S
C385 H448 0.960 . S
C385 H449 0.960 . S
C386 C387 1.309 . S
C386 C391 1.304 . S
C386 O424 1.435 . S
C387 C386 1.309 . S
C387 C388 1.476 . S
C387 H451 0.930 . S
C388 C387 1.476 . S
C388 C389 1.400 . S
C388 C392 1.567 . S
C389 C388 1.400 . S
C389 C390 1.373 . S
C389 C411 1.432 . S
C390 C389 1.373 . S
C390 C391 1.339 . S
C390 C393 1.530 . S
C391 C386 1.304 . S
C391 C390 1.339 . S
C391 H452 0.930 . S
C392 C388 1.567 . S
C392 H453 0.961 . S
C392 H454 0.960 . S
C392 H455 0.958 . S
C393 C390 1.530 . S
C393 H456 0.961 . S
C393 H457 0.960 . S
C393 H458 0.960 . S
C394 C395 1.530 . S
C394 H460 0.961 . S
C394 H461 0.961 . S
C394 H462 0.959 . S
C395 C394 1.530 . S
C395 O423 1.412 . S
C395 H459 0.980 . S
C396 C397 1.288 . S
C396 C401 1.377 . S
C396 O423 1.393 . S
C397 C396 1.288 . S
C397 C398 1.369 . S
C397 H463 0.932 . S
C398 C397 1.369 . S
C398 C399 1.398 . S
C398 C402 1.527 . S
C399 C398 1.398 . S
C399 C400 1.380 . S
C399 C413 1.497 . S
C400 C399 1.380 . S
C400 C401 1.383 . S
C400 C403 1.603 . S
C401 C396 1.377 . S
C401 C400 1.383 . S
C401 H464 0.929 . S
C402 C398 1.527 . S
C402 H465 0.961 . S
C402 H466 0.959 . S
C402 H467 0.959 . S
C403 C400 1.603 . S
C403 H468 0.960 . S
C403 H469 0.962 . S
C403 H470 0.961 . S
C404 C371 1.587 . S
C404 C405 1.360 . S
C404 C417 1.412 . S
C405 C404 1.360 . S
C405 C406 1.365 . S
C405 H471 0.929 . S
C406 C381 1.553 . S
C406 C405 1.365 . S
C406 C407 1.404 . S
C407 C406 1.404 . S
C407 C408 1.395 . S
C407 C418 1.451 . S
C408 C407 1.395 . S
C408 C409 1.322 . S
C408 H472 0.930 . S
C409 C408 1.322 . S
C409 C410 1.459 . S
C409 H473 0.929 . S
C410 C409 1.459 . S
C410 C411 1.445 . S
C410 C419 1.395 . S
C411 C389 1.432 . S
C411 C410 1.445 . S
C411 C412 1.370 . S
C412 C411 1.370 . S
C412 C413 1.438 . S
C412 H474 0.930 . S
C413 C399 1.497 . S
C413 C412 1.438 . S
C413 C414 1.360 . S
C414 C413 1.360 . S
C414 C415 1.401 . S
C414 C419 1.446 . S
C415 C414 1.401 . S
C415 C416 1.347 . S
C415 H475 0.929 . S
C416 C415 1.347 . S
C416 C417 1.455 . S
C416 H476 0.930 . S
C417 C404 1.412 . S
C417 C416 1.455 . S
C417 C418 1.331 . S
C418 C407 1.451 . S
C418 C417 1.331 . S
C418 C419 1.497 . S
C419 C410 1.395 . S
C419 C414 1.446 . S
C419 C418 1.497 . S
C420 C421 1.582 . S
C420 H477 0.962 . S
C420 H478 0.959 . S
C420 H479 0.958 . S
C421 C420 1.582 . S
C421 O424 1.458 . S
C421 H450 0.980 . S
O422 C367 1.426 . S
O422 C368 1.334 . S
O423 C395 1.412 . S
O423 C396 1.393 . S
O424 C386 1.435 . S
O424 C421 1.458 . S
O425 C377 1.468 . S
O425 C378 1.408 . S
H426 C367 0.980 . S
H427 C366 0.959 . S
H428 C366 0.959 . S
H429 C366 0.960 . S
H430 C369 0.929 . S
H431 C373 0.929 . S
H432 C374 0.959 . S
H433 C374 0.961 . S
H434 C374 0.961 . S
H435 C375 0.960 . S
H436 C375 0.960 . S
H437 C375 0.961 . S
H438 C377 0.980 . S
H439 C376 0.961 . S
H440 C376 0.960 . S
H441 C376 0.959 . S
H442 C379 0.930 . S
H443 C383 0.931 . S
H444 C384 0.959 . S
H445 C384 0.961 . S
H446 C384 0.959 . S
H447 C385 0.960 . S
H448 C385 0.960 . S
H449 C385 0.960 . S
H450 C421 0.980 . S
H451 C387 0.930 . S
H452 C391 0.930 . S
H453 C392 0.961 . S
H454 C392 0.960 . S
H455 C392 0.958 . S
H456 C393 0.961 . S
H457 C393 0.960 . S
H458 C393 0.960 . S
H459 C395 0.980 . S
H460 C394 0.961 . S
H461 C394 0.961 . S
H462 C394 0.959 . S
H463 C397 0.932 . S
H464 C401 0.929 . S
H465 C402 0.961 . S
H466 C402 0.959 . S
H467 C402 0.959 . S
H468 C403 0.960 . S
H469 C403 0.962 . S
H470 C403 0.961 . S
H471 C405 0.929 . S
H472 C408 0.930 . S
H473 C409 0.929 . S
H474 C412 0.930 . S
H475 C415 0.929 . S
H476 C416 0.930 . S
H477 C420 0.962 . S
H478 C420 0.959 . S
H479 C420 0.958 . S
C480 C481 1.560 . S
C480 H541 0.959 . S
C480 H542 0.959 . S
C480 H543 0.960 . S
C481 C480 1.560 . S
C481 O536 1.426 . S
C481 H540 0.980 . S
C482 C483 1.407 . S
C482 C487 1.418 . S
C482 O536 1.334 . S
C483 C482 1.407 . S
C483 C484 1.360 . S
C483 H544 0.929 . S
C484 C483 1.360 . S
C484 C485 1.401 . S
C484 C488 1.527 . S
C485 C484 1.401 . S
C485 C486 1.405 . S
C485 C518 1.587 . S
C486 C485 1.405 . S
C486 C487 1.332 . S
C486 C489 1.496 . S
C487 C482 1.418 . S
C487 C486 1.332 . S
C487 H545 0.929 . S
C488 C484 1.527 . S
C488 H546 0.959 . S
C488 H547 0.961 . S
C488 H548 0.961 . S
C489 C486 1.496 . S
C489 H549 0.960 . S
C489 H550 0.960 . S
C489 H551 0.961 . S
C490 C491 1.517 . S
C490 H553 0.961 . S
C490 H554 0.960 . S
C490 H555 0.959 . S
C491 C490 1.517 . S
C491 O539 1.468 . S
C491 H552 0.980 . S
C492 C493 1.349 . S
C492 C497 1.367 . S
C492 O539 1.408 . S
C493 C492 1.349 . S
C493 C494 1.407 . S
C493 H556 0.930 . S
C494 C493 1.407 . S
C494 C495 1.449 . S
C494 C498 1.535 . S
C495 C494 1.449 . S
C495 C496 1.384 . S
C495 C520 1.553 . S
C496 C495 1.384 . S
C496 C497 1.364 . S
C496 C499 1.450 . S
C497 C492 1.367 . S
C497 C496 1.364 . S
C497 H557 0.931 . S
C498 C494 1.535 . S
C498 H558 0.959 . S
C498 H559 0.961 . S
C498 H560 0.959 . S
C499 C496 1.450 . S
C499 H561 0.960 . S
C499 H562 0.960 . S
C499 H563 0.960 . S
C500 C501 1.309 . S
C500 C505 1.304 . S
C500 O538 1.435 . S
C501 C500 1.309 . S
C501 C502 1.476 . S
C501 H565 0.930 . S
C502 C501 1.476 . S
C502 C503 1.400 . S
C502 C506 1.567 . S
C503 C502 1.400 . S
C503 C504 1.373 . S
C503 C525 1.432 . S
C504 C503 1.373 . S
C504 C505 1.339 . S
C504 C507 1.530 . S
C505 C500 1.304 . S
C505 C504 1.339 . S
C505 H566 0.930 . S
C506 C502 1.567 . S
C506 H567 0.961 . S
C506 H568 0.960 . S
C506 H569 0.958 . S
C507 C504 1.530 . S
C507 H570 0.961 . S
C507 H571 0.960 . S
C507 H572 0.960 . S
C508 C509 1.530 . S
C508 H574 0.961 . S
C508 H575 0.961 . S
C508 H576 0.959 . S
C509 C508 1.530 . S
C509 O537 1.412 . S
C509 H573 0.980 . S
C510 C511 1.288 . S
C510 C515 1.377 . S
C510 O537 1.393 . S
C511 C510 1.288 . S
C511 C512 1.369 . S
C511 H577 0.932 . S
C512 C511 1.369 . S
C512 C513 1.398 . S
C512 C516 1.527 . S
C513 C512 1.398 . S
C513 C514 1.380 . S
C513 C527 1.497 . S
C514 C513 1.380 . S
C514 C515 1.383 . S
C514 C517 1.603 . S
C515 C510 1.377 . S
C515 C514 1.383 . S
C515 H578 0.929 . S
C516 C512 1.527 . S
C516 H579 0.961 . S
C516 H580 0.959 . S
C516 H581 0.959 . S
C517 C514 1.603 . S
C517 H582 0.960 . S
C517 H583 0.962 . S
C517 H584 0.961 . S
C518 C485 1.587 . S
C518 C519 1.360 . S
C518 C531 1.412 . S
C519 C518 1.360 . S
C519 C520 1.365 . S
C519 H585 0.929 . S
C520 C495 1.553 . S
C520 C519 1.365 . S
C520 C521 1.404 . S
C521 C520 1.404 . S
C521 C522 1.395 . S
C521 C532 1.451 . S
C522 C521 1.395 . S
C522 C523 1.322 . S
C522 H586 0.930 . S
C523 C522 1.322 . S
C523 C524 1.459 . S
C523 H587 0.929 . S
C524 C523 1.459 . S
C524 C525 1.445 . S
C524 C533 1.395 . S
C525 C503 1.432 . S
C525 C524 1.445 . S
C525 C526 1.370 . S
C526 C525 1.370 . S
C526 C527 1.438 . S
C526 H588 0.930 . S
C527 C513 1.497 . S
C527 C526 1.438 . S
C527 C528 1.360 . S
C528 C527 1.360 . S
C528 C529 1.401 . S
C528 C533 1.446 . S
C529 C528 1.401 . S
C529 C530 1.347 . S
C529 H589 0.929 . S
C530 C529 1.347 . S
C530 C531 1.455 . S
C530 H590 0.930 . S
C531 C518 1.412 . S
C531 C530 1.455 . S
C531 C532 1.331 . S
C532 C521 1.451 . S
C532 C531 1.331 . S
C532 C533 1.497 . S
C533 C524 1.395 . S
C533 C528 1.446 . S
C533 C532 1.497 . S
C534 C535 1.582 . S
C534 H591 0.962 . S
C534 H592 0.959 . S
C534 H593 0.958 . S
C535 C534 1.582 . S
C535 O538 1.458 . S
C535 H564 0.980 . S
O536 C481 1.426 . S
O536 C482 1.334 . S
O537 C509 1.412 . S
O537 C510 1.393 . S
O538 C500 1.435 . S
O538 C535 1.458 . S
O539 C491 1.468 . S
O539 C492 1.408 . S
H540 C481 0.980 . S
H541 C480 0.959 . S
H542 C480 0.959 . S
H543 C480 0.960 . S
H544 C483 0.929 . S
H545 C487 0.929 . S
H546 C488 0.959 . S
H547 C488 0.961 . S
H548 C488 0.961 . S
H549 C489 0.960 . S
H550 C489 0.960 . S
H551 C489 0.961 . S
H552 C491 0.980 . S
H553 C490 0.961 . S
H554 C490 0.960 . S
H555 C490 0.959 . S
H556 C493 0.930 . S
H557 C497 0.931 . S
H558 C498 0.959 . S
H559 C498 0.961 . S
H560 C498 0.959 . S
H561 C499 0.960 . S
H562 C499 0.960 . S
H563 C499 0.960 . S
H564 C535 0.980 . S
H565 C501 0.930 . S
H566 C505 0.930 . S
H567 C506 0.961 . S
H568 C506 0.960 . S
H569 C506 0.958 . S
H570 C507 0.961 . S
H571 C507 0.960 . S
H572 C507 0.960 . S
H573 C509 0.980 . S
H574 C508 0.961 . S
H575 C508 0.961 . S
H576 C508 0.959 . S
H577 C511 0.932 . S
H578 C515 0.929 . S
H579 C516 0.961 . S
H580 C516 0.959 . S
H581 C516 0.959 . S
H582 C517 0.960 . S
H583 C517 0.962 . S
H584 C517 0.961 . S
H585 C519 0.929 . S
H586 C522 0.930 . S
H587 C523 0.929 . S
H588 C526 0.930 . S
H589 C529 0.929 . S
H590 C530 0.930 . S
H591 C534 0.962 . S
H592 C534 0.959 . S
H593 C534 0.958 . S
C594 C595 1.560 . S
C594 H655 0.959 . S
C594 H656 0.959 . S
C594 H657 0.960 . S
C595 C594 1.560 . S
C595 O650 1.426 . S
C595 H654 0.980 . S
C596 C597 1.407 . S
C596 C601 1.418 . S
C596 O650 1.334 . S
C597 C596 1.407 . S
C597 C598 1.360 . S
C597 H658 0.929 . S
C598 C597 1.360 . S
C598 C599 1.401 . S
C598 C602 1.527 . S
C599 C598 1.401 . S
C599 C600 1.405 . S
C599 C632 1.587 . S
C600 C599 1.405 . S
C600 C601 1.332 . S
C600 C603 1.496 . S
C601 C596 1.418 . S
C601 C600 1.332 . S
C601 H659 0.929 . S
C602 C598 1.527 . S
C602 H660 0.959 . S
C602 H661 0.961 . S
C602 H662 0.961 . S
C603 C600 1.496 . S
C603 H663 0.960 . S
C603 H664 0.960 . S
C603 H665 0.961 . S
C604 C605 1.517 . S
C604 H667 0.961 . S
C604 H668 0.960 . S
C604 H669 0.959 . S
C605 C604 1.517 . S
C605 O653 1.468 . S
C605 H666 0.980 . S
C606 C607 1.349 . S
C606 C611 1.367 . S
C606 O653 1.408 . S
C607 C606 1.349 . S
C607 C608 1.407 . S
C607 H670 0.930 . S
C608 C607 1.407 . S
C608 C609 1.449 . S
C608 C612 1.535 . S
C609 C608 1.449 . S
C609 C610 1.384 . S
C609 C634 1.553 . S
C610 C609 1.384 . S
C610 C611 1.364 . S
C610 C613 1.450 . S
C611 C606 1.367 . S
C611 C610 1.364 . S
C611 H671 0.931 . S
C612 C608 1.535 . S
C612 H672 0.959 . S
C612 H673 0.961 . S
C612 H674 0.959 . S
C613 C610 1.450 . S
C613 H675 0.960 . S
C613 H676 0.960 . S
C613 H677 0.960 . S
C614 C615 1.309 . S
C614 C619 1.304 . S
C614 O652 1.435 . S
C615 C614 1.309 . S
C615 C616 1.476 . S
C615 H679 0.930 . S
C616 C615 1.476 . S
C616 C617 1.400 . S
C616 C620 1.567 . S
C617 C616 1.400 . S
C617 C618 1.373 . S
C617 C639 1.432 . S
C618 C617 1.373 . S
C618 C619 1.339 . S
C618 C621 1.530 . S
C619 C614 1.304 . S
C619 C618 1.339 . S
C619 H680 0.930 . S
C620 C616 1.567 . S
C620 H681 0.961 . S
C620 H682 0.960 . S
C620 H683 0.958 . S
C621 C618 1.530 . S
C621 H684 0.961 . S
C621 H685 0.960 . S
C621 H686 0.960 . S
C622 C623 1.530 . S
C622 H688 0.961 . S
C622 H689 0.961 . S
C622 H690 0.959 . S
C623 C622 1.530 . S
C623 O651 1.412 . S
C623 H687 0.980 . S
C624 C625 1.288 . S
C624 C629 1.377 . S
C624 O651 1.393 . S
C625 C624 1.288 . S
C625 C626 1.369 . S
C625 H691 0.932 . S
C626 C625 1.369 . S
C626 C627 1.398 . S
C626 C630 1.527 . S
C627 C626 1.398 . S
C627 C628 1.380 . S
C627 C641 1.497 . S
C628 C627 1.380 . S
C628 C629 1.383 . S
C628 C631 1.603 . S
C629 C624 1.377 . S
C629 C628 1.383 . S
C629 H692 0.929 . S
C630 C626 1.527 . S
C630 H693 0.961 . S
C630 H694 0.959 . S
C630 H695 0.959 . S
C631 C628 1.603 . S
C631 H696 0.960 . S
C631 H697 0.962 . S
C631 H698 0.961 . S
C632 C599 1.587 . S
C632 C633 1.360 . S
C632 C645 1.412 . S
C633 C632 1.360 . S
C633 C634 1.365 . S
C633 H699 0.929 . S
C634 C609 1.553 . S
C634 C633 1.365 . S
C634 C635 1.404 . S
C635 C634 1.404 . S
C635 C636 1.395 . S
C635 C646 1.451 . S
C636 C635 1.395 . S
C636 C637 1.322 . S
C636 H700 0.930 . S
C637 C636 1.322 . S
C637 C638 1.459 . S
C637 H701 0.929 . S
C638 C637 1.459 . S
C638 C639 1.445 . S
C638 C647 1.395 . S
C639 C617 1.432 . S
C639 C638 1.445 . S
C639 C640 1.370 . S
C640 C639 1.370 . S
C640 C641 1.438 . S
C640 H702 0.930 . S
C641 C627 1.497 . S
C641 C640 1.438 . S
C641 C642 1.360 . S
C642 C641 1.360 . S
C642 C643 1.401 . S
C642 C647 1.446 . S
C643 C642 1.401 . S
C643 C644 1.347 . S
C643 H703 0.929 . S
C644 C643 1.347 . S
C644 C645 1.455 . S
C644 H704 0.930 . S
C645 C632 1.412 . S
C645 C644 1.455 . S
C645 C646 1.331 . S
C646 C635 1.451 . S
C646 C645 1.331 . S
C646 C647 1.497 . S
C647 C638 1.395 . S
C647 C642 1.446 . S
C647 C646 1.497 . S
C648 C649 1.582 . S
C648 H705 0.962 . S
C648 H706 0.959 . S
C648 H707 0.958 . S
C649 C648 1.582 . S
C649 O652 1.458 . S
C649 H678 0.980 . S
O650 C595 1.426 . S
O650 C596 1.334 . S
O651 C623 1.412 . S
O651 C624 1.393 . S
O652 C614 1.435 . S
O652 C649 1.458 . S
O653 C605 1.468 . S
O653 C606 1.408 . S
H654 C595 0.980 . S
H655 C594 0.959 . S
H656 C594 0.959 . S
H657 C594 0.960 . S
H658 C597 0.929 . S
H659 C601 0.929 . S
H660 C602 0.959 . S
H661 C602 0.961 . S
H662 C602 0.961 . S
H663 C603 0.960 . S
H664 C603 0.960 . S
H665 C603 0.961 . S
H666 C605 0.980 . S
H667 C604 0.961 . S
H668 C604 0.960 . S
H669 C604 0.959 . S
H670 C607 0.930 . S
H671 C611 0.931 . S
H672 C612 0.959 . S
H673 C612 0.961 . S
H674 C612 0.959 . S
H675 C613 0.960 . S
H676 C613 0.960 . S
H677 C613 0.960 . S
H678 C649 0.980 . S
H679 C615 0.930 . S
H680 C619 0.930 . S
H681 C620 0.961 . S
H682 C620 0.960 . S
H683 C620 0.958 . S
H684 C621 0.961 . S
H685 C621 0.960 . S
H686 C621 0.960 . S
H687 C623 0.980 . S
H688 C622 0.961 . S
H689 C622 0.961 . S
H690 C622 0.959 . S
H691 C625 0.932 . S
H692 C629 0.929 . S
H693 C630 0.961 . S
H694 C630 0.959 . S
H695 C630 0.959 . S
H696 C631 0.960 . S
H697 C631 0.962 . S
H698 C631 0.961 . S
H699 C633 0.929 . S
H700 C636 0.930 . S
H701 C637 0.929 . S
H702 C640 0.930 . S
H703 C643 0.929 . S
H704 C644 0.930 . S
H705 C648 0.962 . S
H706 C648 0.959 . S
H707 C648 0.958 . S
C708 C709 1.560 . S
C708 H769 0.959 . S
C708 H770 0.959 . S
C708 H771 0.960 . S
C709 C708 1.560 . S
C709 O764 1.426 . S
C709 H768 0.980 . S
C710 C711 1.407 . S
C710 C715 1.418 . S
C710 O764 1.334 . S
C711 C710 1.407 . S
C711 C712 1.360 . S
C711 H772 0.929 . S
C712 C711 1.360 . S
C712 C713 1.401 . S
C712 C716 1.527 . S
C713 C712 1.401 . S
C713 C714 1.405 . S
C713 C746 1.587 . S
C714 C713 1.405 . S
C714 C715 1.332 . S
C714 C717 1.496 . S
C715 C710 1.418 . S
C715 C714 1.332 . S
C715 H773 0.929 . S
C716 C712 1.527 . S
C716 H774 0.959 . S
C716 H775 0.961 . S
C716 H776 0.961 . S
C717 C714 1.496 . S
C717 H777 0.960 . S
C717 H778 0.960 . S
C717 H779 0.961 . S
C718 C719 1.517 . S
C718 H781 0.961 . S
C718 H782 0.960 . S
C718 H783 0.959 . S
C719 C718 1.517 . S
C719 O767 1.468 . S
C719 H780 0.980 . S
C720 C721 1.349 . S
C720 C725 1.367 . S
C720 O767 1.408 . S
C721 C720 1.349 . S
C721 C722 1.407 . S
C721 H784 0.930 . S
C722 C721 1.407 . S
C722 C723 1.449 . S
C722 C726 1.535 . S
C723 C722 1.449 . S
C723 C724 1.384 . S
C723 C748 1.553 . S
C724 C723 1.384 . S
C724 C725 1.364 . S
C724 C727 1.450 . S
C725 C720 1.367 . S
C725 C724 1.364 . S
C725 H785 0.931 . S
C726 C722 1.535 . S
C726 H786 0.959 . S
C726 H787 0.961 . S
C726 H788 0.959 . S
C727 C724 1.450 . S
C727 H789 0.960 . S
C727 H790 0.960 . S
C727 H791 0.960 . S
C728 C729 1.309 . S
C728 C733 1.304 . S
C728 O766 1.435 . S
C729 C728 1.309 . S
C729 C730 1.476 . S
C729 H793 0.930 . S
C730 C729 1.476 . S
C730 C731 1.400 . S
C730 C734 1.567 . S
C731 C730 1.400 . S
C731 C732 1.373 . S
C731 C753 1.432 . S
C732 C731 1.373 . S
C732 C733 1.339 . S
C732 C735 1.530 . S
C733 C728 1.304 . S
C733 C732 1.339 . S
C733 H794 0.930 . S
C734 C730 1.567 . S
C734 H795 0.961 . S
C734 H796 0.960 . S
C734 H797 0.958 . S
C735 C732 1.530 . S
C735 H798 0.961 . S
C735 H799 0.960 . S
C735 H800 0.960 . S
C736 C737 1.530 . S
C736 H802 0.961 . S
C736 H803 0.961 . S
C736 H804 0.959 . S
C737 C736 1.530 . S
C737 O765 1.412 . S
C737 H801 0.980 . S
C738 C739 1.288 . S
C738 C743 1.377 . S
C738 O765 1.393 . S
C739 C738 1.288 . S
C739 C740 1.369 . S
C739 H805 0.932 . S
C740 C739 1.369 . S
C740 C741 1.398 . S
C740 C744 1.527 . S
C741 C740 1.398 . S
C741 C742 1.380 . S
C741 C755 1.497 . S
C742 C741 1.380 . S
C742 C743 1.383 . S
C742 C745 1.603 . S
C743 C738 1.377 . S
C743 C742 1.383 . S
C743 H806 0.929 . S
C744 C740 1.527 . S
C744 H807 0.961 . S
C744 H808 0.959 . S
C744 H809 0.959 . S
C745 C742 1.603 . S
C745 H810 0.960 . S
C745 H811 0.962 . S
C745 H812 0.961 . S
C746 C713 1.587 . S
C746 C747 1.360 . S
C746 C759 1.412 . S
C747 C746 1.360 . S
C747 C748 1.365 . S
C747 H813 0.929 . S
C748 C723 1.553 . S
C748 C747 1.365 . S
C748 C749 1.404 . S
C749 C748 1.404 . S
C749 C750 1.395 . S
C749 C760 1.451 . S
C750 C749 1.395 . S
C750 C751 1.322 . S
C750 H814 0.930 . S
C751 C750 1.322 . S
C751 C752 1.459 . S
C751 H815 0.929 . S
C752 C751 1.459 . S
C752 C753 1.445 . S
C752 C761 1.395 . S
C753 C731 1.432 . S
C753 C752 1.445 . S
C753 C754 1.370 . S
C754 C753 1.370 . S
C754 C755 1.438 . S
C754 H816 0.930 . S
C755 C741 1.497 . S
C755 C754 1.438 . S
C755 C756 1.360 . S
C756 C755 1.360 . S
C756 C757 1.401 . S
C756 C761 1.446 . S
C757 C756 1.401 . S
C757 C758 1.347 . S
C757 H817 0.929 . S
C758 C757 1.347 . S
C758 C759 1.455 . S
C758 H818 0.930 . S
C759 C746 1.412 . S
C759 C758 1.455 . S
C759 C760 1.331 . S
C760 C749 1.451 . S
C760 C759 1.331 . S
C760 C761 1.497 . S
C761 C752 1.395 . S
C761 C756 1.446 . S
C761 C760 1.497 . S
C762 C763 1.582 . S
C762 H819 0.962 . S
C762 H820 0.959 . S
C762 H821 0.958 . S
C763 C762 1.582 . S
C763 O766 1.458 . S
C763 H792 0.980 . S
O764 C709 1.426 . S
O764 C710 1.334 . S
O765 C737 1.412 . S
O765 C738 1.393 . S
O766 C728 1.435 . S
O766 C763 1.458 . S
O767 C719 1.468 . S
O767 C720 1.408 . S
H768 C709 0.980 . S
H769 C708 0.959 . S
H770 C708 0.959 . S
H771 C708 0.960 . S
H772 C711 0.929 . S
H773 C715 0.929 . S
H774 C716 0.959 . S
H775 C716 0.961 . S
H776 C716 0.961 . S
H777 C717 0.960 . S
H778 C717 0.960 . S
H779 C717 0.961 . S
H780 C719 0.980 . S
H781 C718 0.961 . S
H782 C718 0.960 . S
H783 C718 0.959 . S
H784 C721 0.930 . S
H785 C725 0.931 . S
H786 C726 0.959 . S
H787 C726 0.961 . S
H788 C726 0.959 . S
H789 C727 0.960 . S
H790 C727 0.960 . S
H791 C727 0.960 . S
H792 C763 0.980 . S
H793 C729 0.930 . S
H794 C733 0.930 . S
H795 C734 0.961 . S
H796 C734 0.960 . S
H797 C734 0.958 . S
H798 C735 0.961 . S
H799 C735 0.960 . S
H800 C735 0.960 . S
H801 C737 0.980 . S
H802 C736 0.961 . S
H803 C736 0.961 . S
H804 C736 0.959 . S
H805 C739 0.932 . S
H806 C743 0.929 . S
H807 C744 0.961 . S
H808 C744 0.959 . S
H809 C744 0.959 . S
H810 C745 0.960 . S
H811 C745 0.962 . S
H812 C745 0.961 . S
H813 C747 0.929 . S
H814 C750 0.930 . S
H815 C751 0.929 . S
H816 C754 0.930 . S
H817 C757 0.929 . S
H818 C758 0.930 . S
H819 C762 0.962 . S
H820 C762 0.959 . S
H821 C762 0.958 . S
C822 C823 1.560 . S
C822 H883 0.959 . S
C822 H884 0.959 . S
C822 H885 0.960 . S
C823 C822 1.560 . S
C823 O878 1.426 . S
C823 H882 0.980 . S
C824 C825 1.407 . S
C824 C829 1.418 . S
C824 O878 1.334 . S
C825 C824 1.407 . S
C825 C826 1.360 . S
C825 H886 0.929 . S
C826 C825 1.360 . S
C826 C827 1.401 . S
C826 C830 1.527 . S
C827 C826 1.401 . S
C827 C828 1.405 . S
C827 C860 1.587 . S
C828 C827 1.405 . S
C828 C829 1.332 . S
C828 C831 1.496 . S
C829 C824 1.418 . S
C829 C828 1.332 . S
C829 H887 0.929 . S
C830 C826 1.527 . S
C830 H888 0.959 . S
C830 H889 0.961 . S
C830 H890 0.961 . S
C831 C828 1.496 . S
C831 H891 0.960 . S
C831 H892 0.960 . S
C831 H893 0.961 . S
C832 C833 1.517 . S
C832 H895 0.961 . S
C832 H896 0.960 . S
C832 H897 0.959 . S
C833 C832 1.517 . S
C833 O881 1.468 . S
C833 H894 0.980 . S
C834 C835 1.349 . S
C834 C839 1.367 . S
C834 O881 1.408 . S
C835 C834 1.349 . S
C835 C836 1.407 . S
C835 H898 0.930 . S
C836 C835 1.407 . S
C836 C837 1.449 . S
C836 C840 1.535 . S
C837 C836 1.449 . S
C837 C838 1.384 . S
C837 C862 1.553 . S
C838 C837 1.384 . S
C838 C839 1.364 . S
C838 C841 1.450 . S
C839 C834 1.367 . S
C839 C838 1.364 . S
C839 H899 0.931 . S
C840 C836 1.535 . S
C840 H900 0.959 . S
C840 H901 0.961 . S
C840 H902 0.959 . S
C841 C838 1.450 . S
C841 H903 0.960 . S
C841 H904 0.960 . S
C841 H905 0.960 . S
C842 C843 1.309 . S
C842 C847 1.304 . S
C842 O880 1.435 . S
C843 C842 1.309 . S
C843 C844 1.476 . S
C843 H907 0.930 . S
C844 C843 1.476 . S
C844 C845 1.400 . S
C844 C848 1.567 . S
C845 C844 1.400 . S
C845 C846 1.373 . S
C845 C867 1.432 . S
C846 C845 1.373 . S
C846 C847 1.339 . S
C846 C849 1.530 . S
C847 C842 1.304 . S
C847 C846 1.339 . S
C847 H908 0.930 . S
C848 C844 1.567 . S
C848 H909 0.961 . S
C848 H910 0.960 . S
C848 H911 0.958 . S
C849 C846 1.530 . S
C849 H912 0.961 . S
C849 H913 0.960 . S
C849 H914 0.960 . S
C850 C851 1.530 . S
C850 H916 0.961 . S
C850 H917 0.961 . S
C850 H918 0.959 . S
C851 C850 1.530 . S
C851 O879 1.412 . S
C851 H915 0.980 . S
C852 C853 1.288 . S
C852 C857 1.377 . S
C852 O879 1.393 . S
C853 C852 1.288 . S
C853 C854 1.369 . S
C853 H919 0.932 . S
C854 C853 1.369 . S
C854 C855 1.398 . S
C854 C858 1.527 . S
C855 C854 1.398 . S
C855 C856 1.380 . S
C855 C869 1.497 . S
C856 C855 1.380 . S
C856 C857 1.383 . S
C856 C859 1.603 . S
C857 C852 1.377 . S
C857 C856 1.383 . S
C857 H920 0.929 . S
C858 C854 1.527 . S
C858 H921 0.961 . S
C858 H922 0.959 . S
C858 H923 0.959 . S
C859 C856 1.603 . S
C859 H924 0.960 . S
C859 H925 0.962 . S
C859 H926 0.961 . S
C860 C827 1.587 . S
C860 C861 1.360 . S
C860 C873 1.412 . S
C861 C860 1.360 . S
C861 C862 1.365 . S
C861 H927 0.929 . S
C862 C837 1.553 . S
C862 C861 1.365 . S
C862 C863 1.404 . S
C863 C862 1.404 . S
C863 C864 1.395 . S
C863 C874 1.451 . S
C864 C863 1.395 . S
C864 C865 1.322 . S
C864 H928 0.930 . S
C865 C864 1.322 . S
C865 C866 1.459 . S
C865 H929 0.929 . S
C866 C865 1.459 . S
C866 C867 1.445 . S
C866 C875 1.395 . S
C867 C845 1.432 . S
C867 C866 1.445 . S
C867 C868 1.370 . S
C868 C867 1.370 . S
C868 C869 1.438 . S
C868 H930 0.930 . S
C869 C855 1.497 . S
C869 C868 1.438 . S
C869 C870 1.360 . S
C870 C869 1.360 . S
C870 C871 1.401 . S
C870 C875 1.446 . S
C871 C870 1.401 . S
C871 C872 1.347 . S
C871 H931 0.929 . S
C872 C871 1.347 . S
C872 C873 1.455 . S
C872 H932 0.930 . S
C873 C860 1.412 . S
C873 C872 1.455 . S
C873 C874 1.331 . S
C874 C863 1.451 . S
C874 C873 1.331 . S
C874 C875 1.497 . S
C875 C866 1.395 . S
C875 C870 1.446 . S
C875 C874 1.497 . S
C876 C877 1.582 . S
C876 H933 0.962 . S
C876 H934 0.959 . S
C876 H935 0.958 . S
C877 C876 1.582 . S
C877 O880 1.458 . S
C877 H906 0.980 . S
O878 C823 1.426 . S
O878 C824 1.334 . S
O879 C851 1.412 . S
O879 C852 1.393 . S
O880 C842 1.435 . S
O880 C877 1.458 . S
O881 C833 1.468 . S
O881 C834 1.408 . S
H882 C823 0.980 . S
H883 C822 0.959 . S
H884 C822 0.959 . S
H885 C822 0.960 . S
H886 C825 0.929 . S
H887 C829 0.929 . S
H888 C830 0.959 . S
H889 C830 0.961 . S
H890 C830 0.961 . S
H891 C831 0.960 . S
H892 C831 0.960 . S
H893 C831 0.961 . S
H894 C833 0.980 . S
H895 C832 0.961 . S
H896 C832 0.960 . S
H897 C832 0.959 . S
H898 C835 0.930 . S
H899 C839 0.931 . S
H900 C840 0.959 . S
H901 C840 0.961 . S
H902 C840 0.959 . S
H903 C841 0.960 . S
H904 C841 0.960 . S
H905 C841 0.960 . S
H906 C877 0.980 . S
H907 C843 0.930 . S
H908 C847 0.930 . S
H909 C848 0.961 . S
H910 C848 0.960 . S
H911 C848 0.958 . S
H912 C849 0.961 . S
H913 C849 0.960 . S
H914 C849 0.960 . S
H915 C851 0.980 . S
H916 C850 0.961 . S
H917 C850 0.961 . S
H918 C850 0.959 . S
H919 C853 0.932 . S
H920 C857 0.929 . S
H921 C858 0.961 . S
H922 C858 0.959 . S
H923 C858 0.959 . S
H924 C859 0.960 . S
H925 C859 0.962 . S
H926 C859 0.961 . S
H927 C861 0.929 . S
H928 C864 0.930 . S
H929 C865 0.929 . S
H930 C868 0.930 . S
H931 C871 0.929 . S
H932 C872 0.930 . S
H933 C876 0.962 . S
H934 C876 0.959 . S
H935 C876 0.958 . S
C936 C937 1.560 . S
C936 H997 0.959 . S
C936 H998 0.959 . S
C936 H999 0.960 . S
C937 C936 1.560 . S
C937 O992 1.426 . S
C937 H996 0.980 . S
C938 C939 1.407 . S
C938 C943 1.418 . S
C938 O992 1.334 . S
C939 C938 1.407 . S
C939 C940 1.360 . S
C939 H1000 0.929 . S
C940 C939 1.360 . S
C940 C941 1.401 . S
C940 C944 1.527 . S
C941 C940 1.401 . S
C941 C942 1.405 . S
C941 C974 1.587 . S
C942 C941 1.405 . S
C942 C943 1.332 . S
C942 C945 1.496 . S
C943 C938 1.418 . S
C943 C942 1.332 . S
C943 H1001 0.929 . S
C944 C940 1.527 . S
C944 H1002 0.959 . S
C944 H1003 0.961 . S
C944 H1004 0.961 . S
C945 C942 1.496 . S
C945 H1005 0.960 . S
C945 H1006 0.960 . S
C945 H1007 0.961 . S
C946 C947 1.517 . S
C946 H1009 0.961 . S
C946 H1010 0.960 . S
C946 H1011 0.959 . S
C947 C946 1.517 . S
C947 O995 1.468 . S
C947 H1008 0.980 . S
C948 C949 1.349 . S
C948 C953 1.367 . S
C948 O995 1.408 . S
C949 C948 1.349 . S
C949 C950 1.407 . S
C949 H1012 0.930 . S
C950 C949 1.407 . S
C950 C951 1.449 . S
C950 C954 1.535 . S
C951 C950 1.449 . S
C951 C952 1.384 . S
C951 C976 1.553 . S
C952 C951 1.384 . S
C952 C953 1.364 . S
C952 C955 1.450 . S
C953 C948 1.367 . S
C953 C952 1.364 . S
C953 H1013 0.931 . S
C954 C950 1.535 . S
C954 H1014 0.959 . S
C954 H1015 0.961 . S
C954 H1016 0.959 . S
C955 C952 1.450 . S
C955 H1017 0.960 . S
C955 H1018 0.960 . S
C955 H1019 0.960 . S
C956 C957 1.309 . S
C956 C961 1.304 . S
C956 O994 1.435 . S
C957 C956 1.309 . S
C957 C958 1.476 . S
C957 H1021 0.930 . S
C958 C957 1.476 . S
C958 C959 1.400 . S
C958 C962 1.567 . S
C959 C958 1.400 . S
C959 C960 1.373 . S
C959 C981 1.432 . S
C960 C959 1.373 . S
C960 C961 1.339 . S
C960 C963 1.530 . S
C961 C956 1.304 . S
C961 C960 1.339 . S
C961 H1022 0.930 . S
C962 C958 1.567 . S
C962 H1023 0.961 . S
C962 H1024 0.960 . S
C962 H1025 0.958 . S
C963 C960 1.530 . S
C963 H1026 0.961 . S
C963 H1027 0.960 . S
C963 H1028 0.960 . S
C964 C965 1.530 . S
C964 H1030 0.961 . S
C964 H1031 0.961 . S
C964 H1032 0.959 . S
C965 C964 1.530 . S
C965 O993 1.412 . S
C965 H1029 0.980 . S
C966 C967 1.288 . S
C966 C971 1.377 . S
C966 O993 1.393 . S
C967 C966 1.288 . S
C967 C968 1.369 . S
C967 H1033 0.932 . S
C968 C967 1.369 . S
C968 C969 1.398 . S
C968 C972 1.527 . S
C969 C968 1.398 . S
C969 C970 1.380 . S
C969 C983 1.497 . S
C970 C969 1.380 . S
C970 C971 1.383 . S
C970 C973 1.603 . S
C971 C966 1.377 . S
C971 C970 1.383 . S
C971 H1034 0.929 . S
C972 C968 1.527 . S
C972 H1035 0.961 . S
C972 H1036 0.959 . S
C972 H1037 0.959 . S
C973 C970 1.603 . S
C973 H1038 0.960 . S
C973 H1039 0.962 . S
C973 H1040 0.961 . S
C974 C941 1.587 . S
C974 C975 1.360 . S
C974 C987 1.412 . S
C975 C974 1.360 . S
C975 C976 1.365 . S
C975 H1041 0.929 . S
C976 C951 1.553 . S
C976 C975 1.365 . S
C976 C977 1.404 . S
C977 C976 1.404 . S
C977 C978 1.395 . S
C977 C988 1.451 . S
C978 C977 1.395 . S
C978 C979 1.322 . S
C978 H1042 0.930 . S
C979 C978 1.322 . S
C979 C980 1.459 . S
C979 H1043 0.929 . S
C980 C979 1.459 . S
C980 C981 1.445 . S
C980 C989 1.395 . S
C981 C959 1.432 . S
C981 C980 1.445 . S
C981 C982 1.370 . S
C982 C981 1.370 . S
C982 C983 1.438 . S
C982 H1044 0.930 . S
C983 C969 1.497 . S
C983 C982 1.438 . S
C983 C984 1.360 . S
C984 C983 1.360 . S
C984 C985 1.401 . S
C984 C989 1.446 . S
C985 C984 1.401 . S
C985 C986 1.347 . S
C985 H1045 0.929 . S
C986 C985 1.347 . S
C986 C987 1.455 . S
C986 H1046 0.930 . S
C987 C974 1.412 . S
C987 C986 1.455 . S
C987 C988 1.331 . S
C988 C977 1.451 . S
C988 C987 1.331 . S
C988 C989 1.497 . S
C989 C980 1.395 . S
C989 C984 1.446 . S
C989 C988 1.497 . S
C990 C991 1.582 . S
C990 H1047 0.962 . S
C990 H1048 0.959 . S
C990 H1049 0.958 . S
C991 C990 1.582 . S
C991 O994 1.458 . S
C991 H1020 0.980 . S
O992 C937 1.426 . S
O992 C938 1.334 . S
O993 C965 1.412 . S
O993 C966 1.393 . S
O994 C956 1.435 . S
O994 C991 1.458 . S
O995 C947 1.468 . S
O995 C948 1.408 . S
H996 C937 0.980 . S
H997 C936 0.959 . S
H998 C936 0.959 . S
H999 C936 0.960 . S
H1000 C939 0.929 . S
H1001 C943 0.929 . S
H1002 C944 0.959 . S
H1003 C944 0.961 . S
H1004 C944 0.961 . S
H1005 C945 0.960 . S
H1006 C945 0.960 . S
H1007 C945 0.961 . S
H1008 C947 0.980 . S
H1009 C946 0.961 . S
H1010 C946 0.960 . S
H1011 C946 0.959 . S
H1012 C949 0.930 . S
H1013 C953 0.931 . S
H1014 C954 0.959 . S
H1015 C954 0.961 . S
H1016 C954 0.959 . S
H1017 C955 0.960 . S
H1018 C955 0.960 . S
H1019 C955 0.960 . S
H1020 C991 0.980 . S
H1021 C957 0.930 . S
H1022 C961 0.930 . S
H1023 C962 0.961 . S
H1024 C962 0.960 . S
H1025 C962 0.958 . S
H1026 C963 0.961 . S
H1027 C963 0.960 . S
H1028 C963 0.960 . S
H1029 C965 0.980 . S
H1030 C964 0.961 . S
H1031 C964 0.961 . S
H1032 C964 0.959 . S
H1033 C967 0.932 . S
H1034 C971 0.929 . S
H1035 C972 0.961 . S
H1036 C972 0.959 . S
H1037 C972 0.959 . S
H1038 C973 0.960 . S
H1039 C973 0.962 . S
H1040 C973 0.961 . S
H1041 C975 0.929 . S
H1042 C978 0.930 . S
H1043 C979 0.929 . S
H1044 C982 0.930 . S
H1045 C985 0.929 . S
H1046 C986 0.930 . S
H1047 C990 0.962 . S
H1048 C990 0.959 . S
H1049 C990 0.958 . S
C1050 C1051 1.560 . S
C1050 H1111 0.959 . S
C1050 H1112 0.959 . S
C1050 H1113 0.960 . S
C1051 C1050 1.560 . S
C1051 O1106 1.426 . S
C1051 H1110 0.980 . S
C1052 C1053 1.407 . S
C1052 C1057 1.418 . S
C1052 O1106 1.334 . S
C1053 C1052 1.407 . S
C1053 C1054 1.360 . S
C1053 H1114 0.929 . S
C1054 C1053 1.360 . S
C1054 C1055 1.401 . S
C1054 C1058 1.527 . S
C1055 C1054 1.401 . S
C1055 C1056 1.405 . S
C1055 C1088 1.587 . S
C1056 C1055 1.405 . S
C1056 C1057 1.332 . S
C1056 C1059 1.496 . S
C1057 C1052 1.418 . S
C1057 C1056 1.332 . S
C1057 H1115 0.929 . S
C1058 C1054 1.527 . S
C1058 H1116 0.959 . S
C1058 H1117 0.961 . S
C1058 H1118 0.961 . S
C1059 C1056 1.496 . S
C1059 H1119 0.960 . S
C1059 H1120 0.960 . S
C1059 H1121 0.961 . S
C1060 C1061 1.517 . S
C1060 H1123 0.961 . S
C1060 H1124 0.960 . S
C1060 H1125 0.959 . S
C1061 C1060 1.517 . S
C1061 O1109 1.468 . S
C1061 H1122 0.980 . S
C1062 C1063 1.349 . S
C1062 C1067 1.367 . S
C1062 O1109 1.408 . S
C1063 C1062 1.349 . S
C1063 C1064 1.407 . S
C1063 H1126 0.930 . S
C1064 C1063 1.407 . S
C1064 C1065 1.449 . S
C1064 C1068 1.535 . S
C1065 C1064 1.449 . S
C1065 C1066 1.384 . S
C1065 C1090 1.553 . S
C1066 C1065 1.384 . S
C1066 C1067 1.364 . S
C1066 C1069 1.450 . S
C1067 C1062 1.367 . S
C1067 C1066 1.364 . S
C1067 H1127 0.931 . S
C1068 C1064 1.535 . S
C1068 H1128 0.959 . S
C1068 H1129 0.961 . S
C1068 H1130 0.959 . S
C1069 C1066 1.450 . S
C1069 H1131 0.960 . S
C1069 H1132 0.960 . S
C1069 H1133 0.960 . S
C1070 C1071 1.309 . S
C1070 C1075 1.304 . S
C1070 O1108 1.435 . S
C1071 C1070 1.309 . S
C1071 C1072 1.476 . S
C1071 H1135 0.930 . S
C1072 C1071 1.476 . S
C1072 C1073 1.400 . S
C1072 C1076 1.567 . S
C1073 C1072 1.400 . S
C1073 C1074 1.373 . S
C1073 C1095 1.432 . S
C1074 C1073 1.373 . S
C1074 C1075 1.339 . S
C1074 C1077 1.530 . S
C1075 C1070 1.304 . S
C1075 C1074 1.339 . S
C1075 H1136 0.930 . S
C1076 C1072 1.567 . S
C1076 H1137 0.961 . S
C1076 H1138 0.960 . S
C1076 H1139 0.958 . S
C1077 C1074 1.530 . S
C1077 H1140 0.961 . S
C1077 H1141 0.960 . S
C1077 H1142 0.960 . S
C1078 C1079 1.530 . S
C1078 H1144 0.961 . S
C1078 H1145 0.961 . S
C1078 H1146 0.959 . S
C1079 C1078 1.530 . S
C1079 O1107 1.412 . S
C1079 H1143 0.980 . S
C1080 C1081 1.288 . S
C1080 C1085 1.377 . S
C1080 O1107 1.393 . S
C1081 C1080 1.288 . S
C1081 C1082 1.369 . S
C1081 H1147 0.932 . S
C1082 C1081 1.369 . S
C1082 C1083 1.398 . S
C1082 C1086 1.527 . S
C1083 C1082 1.398 . S
C1083 C1084 1.380 . S
C1083 C1097 1.497 . S
C1084 C1083 1.380 . S
C1084 C1085 1.383 . S
C1084 C1087 1.603 . S
C1085 C1080 1.377 . S
C1085 C1084 1.383 . S
C1085 H1148 0.929 . S
C1086 C1082 1.527 . S
C1086 H1149 0.961 . S
C1086 H1150 0.959 . S
C1086 H1151 0.959 . S
C1087 C1084 1.603 . S
C1087 H1152 0.960 . S
C1087 H1153 0.962 . S
C1087 H1154 0.961 . S
C1088 C1055 1.587 . S
C1088 C1089 1.360 . S
C1088 C1101 1.412 . S
C1089 C1088 1.360 . S
C1089 C1090 1.365 . S
C1089 H1155 0.929 . S
C1090 C1065 1.553 . S
C1090 C1089 1.365 . S
C1090 C1091 1.404 . S
C1091 C1090 1.404 . S
C1091 C1092 1.395 . S
C1091 C1102 1.451 . S
C1092 C1091 1.395 . S
C1092 C1093 1.322 . S
C1092 H1156 0.930 . S
C1093 C1092 1.322 . S
C1093 C1094 1.459 . S
C1093 H1157 0.929 . S
C1094 C1093 1.459 . S
C1094 C1095 1.445 . S
C1094 C1103 1.395 . S
C1095 C1073 1.432 . S
C1095 C1094 1.445 . S
C1095 C1096 1.370 . S
C1096 C1095 1.370 . S
C1096 C1097 1.438 . S
C1096 H1158 0.930 . S
C1097 C1083 1.497 . S
C1097 C1096 1.438 . S
C1097 C1098 1.360 . S
C1098 C1097 1.360 . S
C1098 C1099 1.401 . S
C1098 C1103 1.446 . S
C1099 C1098 1.401 . S
C1099 C1100 1.347 . S
C1099 H1159 0.929 . S
C1100 C1099 1.347 . S
C1100 C1101 1.455 . S
C1100 H1160 0.930 . S
C1101 C1088 1.412 . S
C1101 C1100 1.455 . S
C1101 C1102 1.331 . S
C1102 C1091 1.451 . S
C1102 C1101 1.331 . S
C1102 C1103 1.497 . S
C1103 C1094 1.395 . S
C1103 C1098 1.446 . S
C1103 C1102 1.497 . S
C1104 C1105 1.582 . S
C1104 H1161 0.962 . S
C1104 H1162 0.959 . S
C1104 H1163 0.958 . S
C1105 C1104 1.582 . S
C1105 O1108 1.458 . S
C1105 H1134 0.980 . S
O1106 C1051 1.426 . S
O1106 C1052 1.334 . S
O1107 C1079 1.412 . S
O1107 C1080 1.393 . S
O1108 C1070 1.435 . S
O1108 C1105 1.458 . S
O1109 C1061 1.468 . S
O1109 C1062 1.408 . S
H1110 C1051 0.980 . S
H1111 C1050 0.959 . S
H1112 C1050 0.959 . S
H1113 C1050 0.960 . S
H1114 C1053 0.929 . S
H1115 C1057 0.929 . S
H1116 C1058 0.959 . S
H1117 C1058 0.961 . S
H1118 C1058 0.961 . S
H1119 C1059 0.960 . S
H1120 C1059 0.960 . S
H1121 C1059 0.961 . S
H1122 C1061 0.980 . S
H1123 C1060 0.961 . S
H1124 C1060 0.960 . S
H1125 C1060 0.959 . S
H1126 C1063 0.930 . S
H1127 C1067 0.931 . S
H1128 C1068 0.959 . S
H1129 C1068 0.961 . S
H1130 C1068 0.959 . S
H1131 C1069 0.960 . S
H1132 C1069 0.960 . S
H1133 C1069 0.960 . S
H1134 C1105 0.980 . S
H1135 C1071 0.930 . S
H1136 C1075 0.930 . S
H1137 C1076 0.961 . S
H1138 C1076 0.960 . S
H1139 C1076 0.958 . S
H1140 C1077 0.961 . S
H1141 C1077 0.960 . S
H1142 C1077 0.960 . S
H1143 C1079 0.980 . S
H1144 C1078 0.961 . S
H1145 C1078 0.961 . S
H1146 C1078 0.959 . S
H1147 C1081 0.932 . S
H1148 C1085 0.929 . S
H1149 C1086 0.961 . S
H1150 C1086 0.959 . S
H1151 C1086 0.959 . S
H1152 C1087 0.960 . S
H1153 C1087 0.962 . S
H1154 C1087 0.961 . S
H1155 C1089 0.929 . S
H1156 C1092 0.930 . S
H1157 C1093 0.929 . S
H1158 C1096 0.930 . S
H1159 C1099 0.929 . S
H1160 C1100 0.930 . S
H1161 C1104 0.962 . S
H1162 C1104 0.959 . S
H1163 C1104 0.958 . S
C1164 C1165 1.560 . S
C1164 H1225 0.959 . S
C1164 H1226 0.959 . S
C1164 H1227 0.960 . S
C1165 C1164 1.560 . S
C1165 O1220 1.426 . S
C1165 H1224 0.980 . S
C1166 C1167 1.407 . S
C1166 C1171 1.418 . S
C1166 O1220 1.334 . S
C1167 C1166 1.407 . S
C1167 C1168 1.360 . S
C1167 H1228 0.929 . S
C1168 C1167 1.360 . S
C1168 C1169 1.401 . S
C1168 C1172 1.527 . S
C1169 C1168 1.401 . S
C1169 C1170 1.405 . S
C1169 C1202 1.587 . S
C1170 C1169 1.405 . S
C1170 C1171 1.332 . S
C1170 C1173 1.496 . S
C1171 C1166 1.418 . S
C1171 C1170 1.332 . S
C1171 H1229 0.929 . S
C1172 C1168 1.527 . S
C1172 H1230 0.959 . S
C1172 H1231 0.961 . S
C1172 H1232 0.961 . S
C1173 C1170 1.496 . S
C1173 H1233 0.960 . S
C1173 H1234 0.960 . S
C1173 H1235 0.961 . S
C1174 C1175 1.517 . S
C1174 H1237 0.961 . S
C1174 H1238 0.960 . S
C1174 H1239 0.959 . S
C1175 C1174 1.517 . S
C1175 O1223 1.468 . S
C1175 H1236 0.980 . S
C1176 C1177 1.349 . S
C1176 C1181 1.367 . S
C1176 O1223 1.408 . S
C1177 C1176 1.349 . S
C1177 C1178 1.407 . S
C1177 H1240 0.930 . S
C1178 C1177 1.407 . S
C1178 C1179 1.449 . S
C1178 C1182 1.535 . S
C1179 C1178 1.449 . S
C1179 C1180 1.384 . S
C1179 C1204 1.553 . S
C1180 C1179 1.384 . S
C1180 C1181 1.364 . S
C1180 C1183 1.450 . S
C1181 C1176 1.367 . S
C1181 C1180 1.364 . S
C1181 H1241 0.931 . S
C1182 C1178 1.535 . S
C1182 H1242 0.959 . S
C1182 H1243 0.961 . S
C1182 H1244 0.959 . S
C1183 C1180 1.450 . S
C1183 H1245 0.960 . S
C1183 H1246 0.960 . S
C1183 H1247 0.960 . S
C1184 C1185 1.309 . S
C1184 C1189 1.304 . S
C1184 O1222 1.435 . S
C1185 C1184 1.309 . S
C1185 C1186 1.476 . S
C1185 H1249 0.930 . S
C1186 C1185 1.476 . S
C1186 C1187 1.400 . S
C1186 C1190 1.567 . S
C1187 C1186 1.400 . S
C1187 C1188 1.373 . S
C1187 C1209 1.432 . S
C1188 C1187 1.373 . S
C1188 C1189 1.339 . S
C1188 C1191 1.530 . S
C1189 C1184 1.304 . S
C1189 C1188 1.339 . S
C1189 H1250 0.930 . S
C1190 C1186 1.567 . S
C1190 H1251 0.961 . S
C1190 H1252 0.960 . S
C1190 H1253 0.958 . S
C1191 C1188 1.530 . S
C1191 H1254 0.961 . S
C1191 H1255 0.960 . S
C1191 H1256 0.960 . S
C1192 C1193 1.530 . S
C1192 H1258 0.961 . S
C1192 H1259 0.961 . S
C1192 H1260 0.959 . S
C1193 C1192 1.530 . S
C1193 O1221 1.412 . S
C1193 H1257 0.980 . S
C1194 C1195 1.288 . S
C1194 C1199 1.377 . S
C1194 O1221 1.393 . S
C1195 C1194 1.288 . S
C1195 C1196 1.369 . S
C1195 H1261 0.932 . S
C1196 C1195 1.369 . S
C1196 C1197 1.398 . S
C1196 C1200 1.527 . S
C1197 C1196 1.398 . S
C1197 C1198 1.380 . S
C1197 C1211 1.497 . S
C1198 C1197 1.380 . S
C1198 C1199 1.383 . S
C1198 C1201 1.603 . S
C1199 C1194 1.377 . S
C1199 C1198 1.383 . S
C1199 H1262 0.929 . S
C1200 C1196 1.527 . S
C1200 H1263 0.961 . S
C1200 H1264 0.959 . S
C1200 H1265 0.959 . S
C1201 C1198 1.603 . S
C1201 H1266 0.960 . S
C1201 H1267 0.962 . S
C1201 H1268 0.961 . S
C1202 C1169 1.587 . S
C1202 C1203 1.360 . S
C1202 C1215 1.412 . S
C1203 C1202 1.360 . S
C1203 C1204 1.365 . S
C1203 H1269 0.929 . S
C1204 C1179 1.553 . S
C1204 C1203 1.365 . S
C1204 C1205 1.404 . S
C1205 C1204 1.404 . S
C1205 C1206 1.395 . S
C1205 C1216 1.451 . S
C1206 C1205 1.395 . S
C1206 C1207 1.322 . S
C1206 H1270 0.930 . S
C1207 C1206 1.322 . S
C1207 C1208 1.459 . S
C1207 H1271 0.929 . S
C1208 C1207 1.459 . S
C1208 C1209 1.445 . S
C1208 C1217 1.395 . S
C1209 C1187 1.432 . S
C1209 C1208 1.445 . S
C1209 C1210 1.370 . S
C1210 C1209 1.370 . S
C1210 C1211 1.438 . S
C1210 H1272 0.930 . S
C1211 C1197 1.497 . S
C1211 C1210 1.438 . S
C1211 C1212 1.360 . S
C1212 C1211 1.360 . S
C1212 C1213 1.401 . S
C1212 C1217 1.446 . S
C1213 C1212 1.401 . S
C1213 C1214 1.347 . S
C1213 H1273 0.929 . S
C1214 C1213 1.347 . S
C1214 C1215 1.455 . S
C1214 H1274 0.930 . S
C1215 C1202 1.412 . S
C1215 C1214 1.455 . S
C1215 C1216 1.331 . S
C1216 C1205 1.451 . S
C1216 C1215 1.331 . S
C1216 C1217 1.497 . S
C1217 C1208 1.395 . S
C1217 C1212 1.446 . S
C1217 C1216 1.497 . S
C1218 C1219 1.582 . S
C1218 H1275 0.962 . S
C1218 H1276 0.959 . S
C1218 H1277 0.958 . S
C1219 C1218 1.582 . S
C1219 O1222 1.458 . S
C1219 H1248 0.980 . S
O1220 C1165 1.426 . S
O1220 C1166 1.334 . S
O1221 C1193 1.412 . S
O1221 C1194 1.393 . S
O1222 C1184 1.435 . S
O1222 C1219 1.458 . S
O1223 C1175 1.468 . S
O1223 C1176 1.408 . S
H1224 C1165 0.980 . S
H1225 C1164 0.959 . S
H1226 C1164 0.959 . S
H1227 C1164 0.960 . S
H1228 C1167 0.929 . S
H1229 C1171 0.929 . S
H1230 C1172 0.959 . S
H1231 C1172 0.961 . S
H1232 C1172 0.961 . S
H1233 C1173 0.960 . S
H1234 C1173 0.960 . S
H1235 C1173 0.961 . S
H1236 C1175 0.980 . S
H1237 C1174 0.961 . S
H1238 C1174 0.960 . S
H1239 C1174 0.959 . S
H1240 C1177 0.930 . S
H1241 C1181 0.931 . S
H1242 C1182 0.959 . S
H1243 C1182 0.961 . S
H1244 C1182 0.959 . S
H1245 C1183 0.960 . S
H1246 C1183 0.960 . S
H1247 C1183 0.960 . S
H1248 C1219 0.980 . S
H1249 C1185 0.930 . S
H1250 C1189 0.930 . S
H1251 C1190 0.961 . S
H1252 C1190 0.960 . S
H1253 C1190 0.958 . S
H1254 C1191 0.961 . S
H1255 C1191 0.960 . S
H1256 C1191 0.960 . S
H1257 C1193 0.980 . S
H1258 C1192 0.961 . S
H1259 C1192 0.961 . S
H1260 C1192 0.959 . S
H1261 C1195 0.932 . S
H1262 C1199 0.929 . S
H1263 C1200 0.961 . S
H1264 C1200 0.959 . S
H1265 C1200 0.959 . S
H1266 C1201 0.960 . S
H1267 C1201 0.962 . S
H1268 C1201 0.961 . S
H1269 C1203 0.929 . S
H1270 C1206 0.930 . S
H1271 C1207 0.929 . S
H1272 C1210 0.930 . S
H1273 C1213 0.929 . S
H1274 C1214 0.930 . S
H1275 C1218 0.962 . S
H1276 C1218 0.959 . S
H1277 C1218 0.958 . S
C1278 C1279 1.560 . S
C1278 H1339 0.959 . S
C1278 H1340 0.959 . S
C1278 H1341 0.960 . S
C1279 C1278 1.560 . S
C1279 O1334 1.426 . S
C1279 H1338 0.980 . S
C1280 C1281 1.407 1_455 S
C1280 C1285 1.418 . S
C1280 O1334 1.334 . S
C1281 C1280 1.407 1_655 S
C1281 C1282 1.360 . S
C1281 H1342 0.929 . S
C1282 C1281 1.360 . S
C1282 C1283 1.401 1_655 S
C1282 C1286 1.527 . S
C1283 C1282 1.401 1_455 S
C1283 C1284 1.405 . S
C1283 C1316 1.587 1_455 S
C1284 C1283 1.405 . S
C1284 C1285 1.332 . S
C1284 C1287 1.496 . S
C1285 C1280 1.418 . S
C1285 C1284 1.332 . S
C1285 H1343 0.929 . S
C1286 C1282 1.527 . S
C1286 H1344 0.959 . S
C1286 H1345 0.961 . S
C1286 H1346 0.961 . S
C1287 C1284 1.496 . S
C1287 H1347 0.960 . S
C1287 H1348 0.960 . S
C1287 H1349 0.961 . S
C1288 C1289 1.517 . S
C1288 H1351 0.987 . S
C1288 H1352 0.960 . S
C1288 H1353 0.959 . S
C1289 C1288 1.517 . S
C1289 O1337 1.468 . S
C1289 H1350 0.980 1_655 S
C1290 C1291 1.349 . S
C1290 C1295 1.367 . S
C1290 O1337 1.408 . S
C1291 C1290 1.349 . S
C1291 C1292 1.365 1_655 S
C1291 H1354 0.930 1_655 S
C1292 C1291 1.365 1_455 S
C1292 C1293 1.413 1_455 S
C1292 C1296 1.609 . S
C1293 C1292 1.413 1_655 S
C1293 C1294 1.384 . S
C1293 C1318 1.553 . S
C1294 C1293 1.384 . S
C1294 C1295 1.364 . S
C1294 C1297 1.450 . S
C1295 C1290 1.367 . S
C1295 C1294 1.364 . S
C1295 H1355 0.931 . S
C1296 C1292 1.609 . S
C1296 H1356 0.959 . S
C1296 H1357 0.961 . S
C1296 H1358 0.959 . S
C1297 C1294 1.450 . S
C1297 H1359 0.960 . S
C1297 H1360 0.960 . S
C1297 H1361 0.960 . S
C1298 C1299 1.309 . S
C1298 C1303 1.304 . S
C1298 O1336 1.435 . S
C1299 C1298 1.309 . S
C1299 C1300 1.469 . S
C1299 H1363 0.930 1_655 S
C1300 C1299 1.469 . S
C1300 C1301 1.396 . S
C1300 C1304 1.577 1_655 S
C1301 C1300 1.396 . S
C1301 C1302 1.373 . S
C1301 C1323 1.432 . S
C1302 C1301 1.373 . S
C1302 C1303 1.339 . S
C1302 C1305 1.530 . S
C1303 C1298 1.304 . S
C1303 C1302 1.339 . S
C1303 H1364 0.930 . S
C1304 C1300 1.577 1_455 S
C1304 H1365 0.961 . S
C1304 H1366 0.960 . S
C1304 H1367 0.958 . S
C1305 C1302 1.530 . S
C1305 H1368 0.961 . S
C1305 H1369 0.960 . S
C1305 H1370 0.960 . S
C1306 C1307 1.538 1_455 S
C1306 H1372 0.961 . S
C1306 H1373 0.961 . S
C1306 H1374 0.959 . S
C1307 C1306 1.538 1_655 S
C1307 O1335 1.413 1_655 S
C1307 H1371 0.978 . S
C1308 C1309 1.288 . S
C1308 C1313 1.377 1_455 S
C1308 O1335 1.393 . S
C1309 C1308 1.288 . S
C1309 C1310 1.369 . S
C1309 H1375 0.932 . S
C1310 C1309 1.369 . S
C1310 C1311 1.398 1_455 S
C1310 C1314 1.527 . S
C1311 C1310 1.398 1_655 S
C1311 C1312 1.380 . S
C1311 C1325 1.497 . S
C1312 C1311 1.380 . S
C1312 C1313 1.383 . S
C1312 C1315 1.603 . S
C1313 C1308 1.377 1_655 S
C1313 C1312 1.383 . S
C1313 H1376 0.929 . S
C1314 C1310 1.527 . S
C1314 H1377 0.961 . S
C1314 H1378 0.959 . S
C1314 H1379 0.959 . S
C1315 C1312 1.603 . S
C1315 H1380 0.960 . S
C1315 H1381 0.962 . S
C1315 H1382 0.961 . S
C1316 C1283 1.587 1_655 S
C1316 C1317 1.360 . S
C1316 C1329 1.412 . S
C1317 C1316 1.360 . S
C1317 C1318 1.365 . S
C1317 H1383 0.929 . S
C1318 C1293 1.553 . S
C1318 C1317 1.365 . S
C1318 C1319 1.404 . S
C1319 C1318 1.404 . S
C1319 C1320 1.395 . S
C1319 C1330 1.451 . S
C1320 C1319 1.395 . S
C1320 C1321 1.322 . S
C1320 H1384 0.930 . S
C1321 C1320 1.322 . S
C1321 C1322 1.459 . S
C1321 H1385 0.929 . S
C1322 C1321 1.459 . S
C1322 C1323 1.445 . S
C1322 C1331 1.395 . S
C1323 C1301 1.432 . S
C1323 C1322 1.445 . S
C1323 C1324 1.370 . S
C1324 C1323 1.370 . S
C1324 C1325 1.438 . S
C1324 H1386 0.930 . S
C1325 C1311 1.497 . S
C1325 C1324 1.438 . S
C1325 C1326 1.360 . S
C1326 C1325 1.360 . S
C1326 C1327 1.401 . S
C1326 C1331 1.446 . S
C1327 C1326 1.401 . S
C1327 C1328 1.347 . S
C1327 H1387 0.929 . S
C1328 C1327 1.347 . S
C1328 C1329 1.455 . S
C1328 H1388 0.987 . S
C1329 C1316 1.412 . S
C1329 C1328 1.455 . S
C1329 C1330 1.331 . S
C1330 C1319 1.451 . S
C1330 C1329 1.331 . S
C1330 C1331 1.497 . S
C1331 C1322 1.395 . S
C1331 C1326 1.446 . S
C1331 C1330 1.497 . S
C1332 C1333 1.582 . S
C1332 H1389 0.962 . S
C1332 H1390 0.959 . S
C1332 H1391 0.958 . S
C1333 C1332 1.582 . S
C1333 O1336 1.458 . S
C1333 H1362 0.980 . S
O1334 C1279 1.426 . S
O1334 C1280 1.334 . S
O1335 C1307 1.413 1_455 S
O1335 C1308 1.393 . S
O1336 C1298 1.435 . S
O1336 C1333 1.458 . S
O1337 C1289 1.468 . S
O1337 C1290 1.408 . S
H1338 C1279 0.980 . S
H1339 C1278 0.959 . S
H1340 C1278 0.959 . S
H1341 C1278 0.960 . S
H1342 C1281 0.929 . S
H1343 C1285 0.929 . S
H1344 C1286 0.959 . S
H1345 C1286 0.961 . S
H1346 C1286 0.961 . S
H1347 C1287 0.960 . S
H1348 C1287 0.960 . S
H1349 C1287 0.961 . S
H1350 C1289 0.980 1_455 S
H1351 C1288 0.987 . S
H1352 C1288 0.960 . S
H1353 C1288 0.959 . S
H1354 C1291 0.930 1_455 S
H1355 C1295 0.931 . S
H1356 C1296 0.959 . S
H1357 C1296 0.961 . S
H1358 C1296 0.959 . S
H1359 C1297 0.960 . S
H1360 C1297 0.960 . S
H1361 C1297 0.960 . S
H1362 C1333 0.980 . S
H1363 C1299 0.930 1_455 S
H1364 C1303 0.930 . S
H1365 C1304 0.961 . S
H1366 C1304 0.960 . S
H1367 C1304 0.958 . S
H1368 C1305 0.961 . S
H1369 C1305 0.960 . S
H1370 C1305 0.960 . S
H1371 C1307 0.978 . S
H1372 C1306 0.961 . S
H1373 C1306 0.961 . S
H1374 C1306 0.959 . S
H1375 C1309 0.932 . S
H1376 C1313 0.929 . S
H1377 C1314 0.961 . S
H1378 C1314 0.959 . S
H1379 C1314 0.959 . S
H1380 C1315 0.960 . S
H1381 C1315 0.962 . S
H1382 C1315 0.961 . S
H1383 C1317 0.929 . S
H1384 C1320 0.930 . S
H1385 C1321 0.929 . S
H1386 C1324 0.930 . S
H1387 C1327 0.929 . S
H1388 C1328 0.987 . S
H1389 C1332 0.962 . S
H1390 C1332 0.959 . S
H1391 C1332 0.958 . S
C1392 C1393 1.560 . S
C1392 H1453 0.959 . S
C1392 H1454 0.959 . S
C1392 H1455 0.960 . S
C1393 C1392 1.560 . S
C1393 O1448 1.426 . S
C1393 H1452 0.980 . S
C1394 C1395 1.407 . S
C1394 C1399 1.418 . S
C1394 O1448 1.334 . S
C1395 C1394 1.407 . S
C1395 C1396 1.360 . S
C1395 H1456 0.929 . S
C1396 C1395 1.360 . S
C1396 C1397 1.401 . S
C1396 C1400 1.527 . S
C1397 C1396 1.401 . S
C1397 C1398 1.405 . S
C1397 C1430 1.587 . S
C1398 C1397 1.405 . S
C1398 C1399 1.332 . S
C1398 C1401 1.496 . S
C1399 C1394 1.418 . S
C1399 C1398 1.332 . S
C1399 H1457 0.929 . S
C1400 C1396 1.527 . S
C1400 H1458 0.959 . S
C1400 H1459 0.961 . S
C1400 H1460 0.961 . S
C1401 C1398 1.496 . S
C1401 H1461 0.960 . S
C1401 H1462 0.960 . S
C1401 H1463 0.961 . S
C1402 C1403 1.517 . S
C1402 H1465 0.961 . S
C1402 H1466 0.960 . S
C1402 H1467 0.959 . S
C1403 C1402 1.517 . S
C1403 O1451 1.468 . S
C1403 H1464 0.980 . S
C1404 C1405 1.349 . S
C1404 C1409 1.367 . S
C1404 O1451 1.408 . S
C1405 C1404 1.349 . S
C1405 C1406 1.407 . S
C1405 H1468 0.930 . S
C1406 C1405 1.407 . S
C1406 C1407 1.449 . S
C1406 C1410 1.535 . S
C1407 C1406 1.449 . S
C1407 C1408 1.384 . S
C1407 C1432 1.553 . S
C1408 C1407 1.384 . S
C1408 C1409 1.364 . S
C1408 C1411 1.450 . S
C1409 C1404 1.367 . S
C1409 C1408 1.364 . S
C1409 H1469 0.931 . S
C1410 C1406 1.535 . S
C1410 H1470 0.959 . S
C1410 H1471 0.961 . S
C1410 H1472 0.959 . S
C1411 C1408 1.450 . S
C1411 H1473 0.960 . S
C1411 H1474 0.960 . S
C1411 H1475 0.960 . S
C1412 C1413 1.309 . S
C1412 C1417 1.304 . S
C1412 O1450 1.435 . S
C1413 C1412 1.309 . S
C1413 C1414 1.476 . S
C1413 H1477 0.930 . S
C1414 C1413 1.476 . S
C1414 C1415 1.400 . S
C1414 C1418 1.567 . S
C1415 C1414 1.400 . S
C1415 C1416 1.373 . S
C1415 C1437 1.432 . S
C1416 C1415 1.373 . S
C1416 C1417 1.339 . S
C1416 C1419 1.530 . S
C1417 C1412 1.304 . S
C1417 C1416 1.339 . S
C1417 H1478 0.930 . S
C1418 C1414 1.567 . S
C1418 H1479 0.961 . S
C1418 H1480 0.960 . S
C1418 H1481 0.958 . S
C1419 C1416 1.530 . S
C1419 H1482 0.961 . S
C1419 H1483 0.960 . S
C1419 H1484 0.960 . S
C1420 C1421 1.530 . S
C1420 H1486 0.961 . S
C1420 H1487 0.961 . S
C1420 H1488 0.959 . S
C1421 C1420 1.530 . S
C1421 O1449 1.412 . S
C1421 H1485 0.980 . S
C1422 C1423 1.288 . S
C1422 C1427 1.377 . S
C1422 O1449 1.393 . S
C1423 C1422 1.288 . S
C1423 C1424 1.369 . S
C1423 H1489 0.932 . S
C1424 C1423 1.369 . S
C1424 C1425 1.398 . S
C1424 C1428 1.527 . S
C1425 C1424 1.398 . S
C1425 C1426 1.380 . S
C1425 C1439 1.497 . S
C1426 C1425 1.380 . S
C1426 C1427 1.383 . S
C1426 C1429 1.603 . S
C1427 C1422 1.377 . S
C1427 C1426 1.383 . S
C1427 H1490 0.929 . S
C1428 C1424 1.527 . S
C1428 H1491 0.961 . S
C1428 H1492 0.959 . S
C1428 H1493 0.959 . S
C1429 C1426 1.603 . S
C1429 H1494 0.960 . S
C1429 H1495 0.962 . S
C1429 H1496 0.961 . S
C1430 C1397 1.587 . S
C1430 C1431 1.360 . S
C1430 C1443 1.412 . S
C1431 C1430 1.360 . S
C1431 C1432 1.365 . S
C1431 H1497 0.929 . S
C1432 C1407 1.553 . S
C1432 C1431 1.365 . S
C1432 C1433 1.404 . S
C1433 C1432 1.404 . S
C1433 C1434 1.395 . S
C1433 C1444 1.451 . S
C1434 C1433 1.395 . S
C1434 C1435 1.322 . S
C1434 H1498 0.930 . S
C1435 C1434 1.322 . S
C1435 C1436 1.459 . S
C1435 H1499 0.929 . S
C1436 C1435 1.459 . S
C1436 C1437 1.445 . S
C1436 C1445 1.395 . S
C1437 C1415 1.432 . S
C1437 C1436 1.445 . S
C1437 C1438 1.370 . S
C1438 C1437 1.370 . S
C1438 C1439 1.438 . S
C1438 H1500 0.930 . S
C1439 C1425 1.497 . S
C1439 C1438 1.438 . S
C1439 C1440 1.360 . S
C1440 C1439 1.360 . S
C1440 C1441 1.401 . S
C1440 C1445 1.446 . S
C1441 C1440 1.401 . S
C1441 C1442 1.347 . S
C1441 H1501 0.929 . S
C1442 C1441 1.347 . S
C1442 C1443 1.455 . S
C1442 H1502 0.930 . S
C1443 C1430 1.412 . S
C1443 C1442 1.455 . S
C1443 C1444 1.331 . S
C1444 C1433 1.451 . S
C1444 C1443 1.331 . S
C1444 C1445 1.497 . S
C1445 C1436 1.395 . S
C1445 C1440 1.446 . S
C1445 C1444 1.497 . S
C1446 C1447 1.582 . S
C1446 H1503 0.962 . S
C1446 H1504 0.959 . S
C1446 H1505 0.958 . S
C1447 C1446 1.582 . S
C1447 O1450 1.458 . S
C1447 H1476 0.980 . S
O1448 C1393 1.426 . S
O1448 C1394 1.334 . S
O1449 C1421 1.412 . S
O1449 C1422 1.393 . S
O1450 C1412 1.435 . S
O1450 C1447 1.458 . S
O1451 C1403 1.468 . S
O1451 C1404 1.408 . S
H1452 C1393 0.980 . S
H1453 C1392 0.959 . S
H1454 C1392 0.959 . S
H1455 C1392 0.960 . S
H1456 C1395 0.929 . S
H1457 C1399 0.929 . S
H1458 C1400 0.959 . S
H1459 C1400 0.961 . S
H1460 C1400 0.961 . S
H1461 C1401 0.960 . S
H1462 C1401 0.960 . S
H1463 C1401 0.961 . S
H1464 C1403 0.980 . S
H1465 C1402 0.961 . S
H1466 C1402 0.960 . S
H1467 C1402 0.959 . S
H1468 C1405 0.930 . S
H1469 C1409 0.931 . S
H1470 C1410 0.959 . S
H1471 C1410 0.961 . S
H1472 C1410 0.959 . S
H1473 C1411 0.960 . S
H1474 C1411 0.960 . S
H1475 C1411 0.960 . S
H1476 C1447 0.980 . S
H1477 C1413 0.930 . S
H1478 C1417 0.930 . S
H1479 C1418 0.961 . S
H1480 C1418 0.960 . S
H1481 C1418 0.958 . S
H1482 C1419 0.961 . S
H1483 C1419 0.960 . S
H1484 C1419 0.960 . S
H1485 C1421 0.980 . S
H1486 C1420 0.961 . S
H1487 C1420 0.961 . S
H1488 C1420 0.959 . S
H1489 C1423 0.932 . S
H1490 C1427 0.929 . S
H1491 C1428 0.961 . S
H1492 C1428 0.959 . S
H1493 C1428 0.959 . S
H1494 C1429 0.960 . S
H1495 C1429 0.962 . S
H1496 C1429 0.961 . S
H1497 C1431 0.929 . S
H1498 C1434 0.930 . S
H1499 C1435 0.929 . S
H1500 C1438 0.930 . S
H1501 C1441 0.929 . S
H1502 C1442 0.930 . S
H1503 C1446 0.962 . S
H1504 C1446 0.959 . S
H1505 C1446 0.958 . S
C1506 C1507 1.560 . S
C1506 H1567 0.959 . S
C1506 H1568 0.959 . S
C1506 H1569 0.960 . S
C1507 C1506 1.560 . S
C1507 O1562 1.426 . S
C1507 H1566 0.980 . S
C1508 C1509 1.407 1_565 S
C1508 C1513 1.418 . S
C1508 O1562 1.334 . S
C1509 C1508 1.407 1_545 S
C1509 C1510 1.360 . S
C1509 H1570 0.929 . S
C1510 C1509 1.360 . S
C1510 C1511 1.315 1_545 S
C1510 C1514 1.527 . S
C1511 C1510 1.315 1_565 S
C1511 C1512 1.487 . S
C1511 C1544 1.602 1_565 S
C1512 C1511 1.487 . S
C1512 C1513 1.332 . S
C1512 C1515 1.496 . S
C1513 C1508 1.418 . S
C1513 C1512 1.332 . S
C1513 H1571 0.929 . S
C1514 C1510 1.527 . S
C1514 H1572 0.959 . S
C1514 H1573 0.961 . S
C1514 H1574 0.961 . S
C1515 C1512 1.496 . S
C1515 H1575 0.960 . S
C1515 H1576 0.960 . S
C1515 H1577 0.961 . S
C1516 C1517 1.517 . S
C1516 H1579 0.961 1_545 S
C1516 H1580 0.960 . S
C1516 H1581 0.959 . S
C1517 C1516 1.517 . S
C1517 O1565 1.468 . S
C1517 H1578 0.980 1_545 S
C1518 C1519 1.377 . S
C1518 C1523 1.367 . S
C1518 O1565 1.408 . S
C1519 C1518 1.377 . S
C1519 C1520 1.425 1_545 S
C1519 H1582 0.885 1_545 S
C1520 C1519 1.425 1_565 S
C1520 C1521 1.449 1_565 S
C1520 C1524 1.535 . S
C1521 C1520 1.449 1_545 S
C1521 C1522 1.384 . S
C1521 C1546 1.553 . S
C1522 C1521 1.384 . S
C1522 C1523 1.364 . S
C1522 C1525 1.450 . S
C1523 C1518 1.367 . S
C1523 C1522 1.364 . S
C1523 H1583 0.931 . S
C1524 C1520 1.535 . S
C1524 H1584 0.959 . S
C1524 H1585 0.961 . S
C1524 H1586 0.959 . S
C1525 C1522 1.450 . S
C1525 H1587 0.960 . S
C1525 H1588 0.960 . S
C1525 H1589 0.960 . S
C1526 C1527 1.309 . S
C1526 C1531 1.304 . S
C1526 O1564 1.435 . S
C1527 C1526 1.309 . S
C1527 C1528 1.497 1_545 S
C1527 H1591 0.930 1_545 S
C1528 C1527 1.497 1_565 S
C1528 C1529 1.335 1_565 S
C1528 C1532 1.612 . S
C1529 C1528 1.335 1_545 S
C1529 C1530 1.373 . S
C1529 C1551 1.432 . S
C1530 C1529 1.373 . S
C1530 C1531 1.339 . S
C1530 C1533 1.530 . S
C1531 C1526 1.304 . S
C1531 C1530 1.339 . S
C1531 H1592 0.930 . S
C1532 C1528 1.612 . S
C1532 H1593 0.961 . S
C1532 H1594 0.960 . S
C1532 H1595 0.958 . S
C1533 C1530 1.530 . S
C1533 H1596 0.961 . S
C1533 H1597 0.960 . S
C1533 H1598 0.960 . S
C1534 C1535 1.530 1_565 S
C1534 H1600 0.961 . S
C1534 H1601 0.961 . S
C1534 H1602 0.959 . S
C1535 C1534 1.530 1_545 S
C1535 O1563 1.412 1_545 S
C1535 H1599 0.980 . S
C1536 C1537 1.288 . S
C1536 C1541 1.377 1_565 S
C1536 O1563 1.393 . S
C1537 C1536 1.288 . S
C1537 C1538 1.369 . S
C1537 H1603 0.932 . S
C1538 C1537 1.369 . S
C1538 C1539 1.398 1_565 S
C1538 C1542 1.527 . S
C1539 C1538 1.398 1_545 S
C1539 C1540 1.380 . S
C1539 C1553 1.497 . S
C1540 C1539 1.380 . S
C1540 C1541 1.383 . S
C1540 C1543 1.603 . S
C1541 C1536 1.377 1_545 S
C1541 C1540 1.383 . S
C1541 H1604 0.929 . S
C1542 C1538 1.527 . S
C1542 H1605 0.961 . S
C1542 H1606 0.959 . S
C1542 H1607 0.959 . S
C1543 C1540 1.603 . S
C1543 H1608 0.960 . S
C1543 H1609 0.962 . S
C1543 H1610 0.961 . S
C1544 C1511 1.602 1_545 S
C1544 C1545 1.360 . S
C1544 C1557 1.412 . S
C1545 C1544 1.360 . S
C1545 C1546 1.365 . S
C1545 H1611 0.929 . S
C1546 C1521 1.553 . S
C1546 C1545 1.365 . S
C1546 C1547 1.404 . S
C1547 C1546 1.404 . S
C1547 C1548 1.395 . S
C1547 C1558 1.451 . S
C1548 C1547 1.395 . S
C1548 C1549 1.322 . S
C1548 H1612 0.930 . S
C1549 C1548 1.322 . S
C1549 C1550 1.459 . S
C1549 H1613 0.929 . S
C1550 C1549 1.459 . S
C1550 C1551 1.445 . S
C1550 C1559 1.395 . S
C1551 C1529 1.432 . S
C1551 C1550 1.445 . S
C1551 C1552 1.370 . S
C1552 C1551 1.370 . S
C1552 C1553 1.438 . S
C1552 H1614 0.930 . S
C1553 C1539 1.497 . S
C1553 C1552 1.438 . S
C1553 C1554 1.360 . S
C1554 C1553 1.360 . S
C1554 C1555 1.401 . S
C1554 C1559 1.446 . S
C1555 C1554 1.401 . S
C1555 C1556 1.347 . S
C1555 H1615 0.929 . S
C1556 C1555 1.347 . S
C1556 C1557 1.455 . S
C1556 H1616 0.930 . S
C1557 C1544 1.412 . S
C1557 C1556 1.455 . S
C1557 C1558 1.331 . S
C1558 C1547 1.451 . S
C1558 C1557 1.331 . S
C1558 C1559 1.497 . S
C1559 C1550 1.395 . S
C1559 C1554 1.446 . S
C1559 C1558 1.497 . S
C1560 C1561 1.582 . S
C1560 H1617 0.962 . S
C1560 H1618 0.959 . S
C1560 H1619 0.958 . S
C1561 C1560 1.582 . S
C1561 O1564 1.458 . S
C1561 H1590 0.980 . S
O1562 C1507 1.426 . S
O1562 C1508 1.334 . S
O1563 C1535 1.412 1_565 S
O1563 C1536 1.393 . S
O1564 C1526 1.435 . S
O1564 C1561 1.458 . S
O1565 C1517 1.468 . S
O1565 C1518 1.408 . S
H1566 C1507 0.980 . S
H1567 C1506 0.959 . S
H1568 C1506 0.959 . S
H1569 C1506 0.960 . S
H1570 C1509 0.929 . S
H1571 C1513 0.929 . S
H1572 C1514 0.959 . S
H1573 C1514 0.961 . S
H1574 C1514 0.961 . S
H1575 C1515 0.960 . S
H1576 C1515 0.960 . S
H1577 C1515 0.961 . S
H1578 C1517 0.980 1_565 S
H1579 C1516 0.961 1_565 S
H1580 C1516 0.960 . S
H1581 C1516 0.959 . S
H1582 C1519 0.885 1_565 S
H1583 C1523 0.931 . S
H1584 C1524 0.959 . S
H1585 C1524 0.961 . S
H1586 C1524 0.959 . S
H1587 C1525 0.960 . S
H1588 C1525 0.960 . S
H1589 C1525 0.960 . S
H1590 C1561 0.980 . S
H1591 C1527 0.930 1_565 S
H1592 C1531 0.930 . S
H1593 C1532 0.961 . S
H1594 C1532 0.960 . S
H1595 C1532 0.958 . S
H1596 C1533 0.961 . S
H1597 C1533 0.960 . S
H1598 C1533 0.960 . S
H1599 C1535 0.980 . S
H1600 C1534 0.961 . S
H1601 C1534 0.961 . S
H1602 C1534 0.959 . S
H1603 C1537 0.932 . S
H1604 C1541 0.929 . S
H1605 C1542 0.961 . S
H1606 C1542 0.959 . S
H1607 C1542 0.959 . S
H1608 C1543 0.960 . S
H1609 C1543 0.962 . S
H1610 C1543 0.961 . S
H1611 C1545 0.929 . S
H1612 C1548 0.930 . S
H1613 C1549 0.929 . S
H1614 C1552 0.930 . S
H1615 C1555 0.929 . S
H1616 C1556 0.930 . S
H1617 C1560 0.962 . S
H1618 C1560 0.959 . S
H1619 C1560 0.958 . S
C1620 C1621 1.560 . S
C1620 H1681 0.959 . S
C1620 H1682 0.959 . S
C1620 H1683 0.960 . S
C1621 C1620 1.560 . S
C1621 O1676 1.426 . S
C1621 H1680 0.980 1_565 S
C1622 C1623 1.407 1_565 S
C1622 C1627 1.418 . S
C1622 O1676 1.334 . S
C1623 C1622 1.407 1_545 S
C1623 C1624 1.360 . S
C1623 H1684 0.929 . S
C1624 C1623 1.360 . S
C1624 C1625 1.401 . S
C1624 C1628 1.527 . S
C1625 C1624 1.401 . S
C1625 C1626 1.405 1_545 S
C1625 C1658 1.587 . S
C1626 C1625 1.405 1_565 S
C1626 C1627 1.332 . S
C1626 C1629 1.496 . S
C1627 C1622 1.418 . S
C1627 C1626 1.332 . S
C1627 H1685 0.929 . S
C1628 C1624 1.527 . S
C1628 H1686 0.959 . S
C1628 H1687 0.961 . S
C1628 H1688 0.961 . S
C1629 C1626 1.496 . S
C1629 H1689 0.960 . S
C1629 H1690 0.960 . S
C1629 H1691 0.961 . S
C1630 C1631 1.517 . S
C1630 H1693 0.961 . S
C1630 H1694 0.960 . S
C1630 H1695 0.959 . S
C1631 C1630 1.517 . S
C1631 O1679 1.468 . S
C1631 H1692 0.980 . S
C1632 C1633 1.349 . S
C1632 C1637 1.367 . S
C1632 O1679 1.408 . S
C1633 C1632 1.349 . S
C1633 C1634 1.407 . S
C1633 H1696 0.934 1_545 S
C1634 C1633 1.407 . S
C1634 C1635 1.449 . S
C1634 C1638 1.535 1_545 S
C1635 C1634 1.449 . S
C1635 C1636 1.384 . S
C1635 C1660 1.553 . S
C1636 C1635 1.384 . S
C1636 C1637 1.364 . S
C1636 C1639 1.450 . S
C1637 C1632 1.367 . S
C1637 C1636 1.364 . S
C1637 H1697 0.931 . S
C1638 C1634 1.535 1_565 S
C1638 H1698 0.959 . S
C1638 H1699 0.961 . S
C1638 H1700 0.959 . S
C1639 C1636 1.450 . S
C1639 H1701 0.960 . S
C1639 H1702 0.960 . S
C1639 H1703 0.960 . S
C1640 C1641 1.309 1_545 S
C1640 C1645 1.304 . S
C1640 O1678 1.435 . S
C1641 C1640 1.309 1_565 S
C1641 C1642 1.476 . S
C1641 H1705 0.930 . S
C1642 C1641 1.476 . S
C1642 C1643 1.400 1_565 S
C1642 C1646 1.567 . S
C1643 C1642 1.400 1_545 S
C1643 C1644 1.373 . S
C1643 C1665 1.432 . S
C1644 C1643 1.373 . S
C1644 C1645 1.339 . S
C1644 C1647 1.530 . S
C1645 C1640 1.304 . S
C1645 C1644 1.339 . S
C1645 H1706 0.930 . S
C1646 C1642 1.567 . S
C1646 H1707 0.961 . S
C1646 H1708 0.960 . S
C1646 H1709 0.958 . S
C1647 C1644 1.530 . S
C1647 H1710 0.961 . S
C1647 H1711 0.960 . S
C1647 H1712 0.960 . S
C1648 C1649 1.530 . S
C1648 H1714 0.961 . S
C1648 H1715 0.961 . S
C1648 H1716 0.959 . S
C1649 C1648 1.530 . S
C1649 O1677 1.412 . S
C1649 H1713 1.005 . S
C1650 C1651 1.288 . S
C1650 C1655 1.377 1_565 S
C1650 O1677 1.393 . S
C1651 C1650 1.288 . S
C1651 C1652 1.369 . S
C1651 H1717 0.932 . S
C1652 C1651 1.369 . S
C1652 C1653 1.398 . S
C1652 C1656 1.527 . S
C1653 C1652 1.398 . S
C1653 C1654 1.380 1_565 S
C1653 C1667 1.497 1_565 S
C1654 C1653 1.380 1_545 S
C1654 C1655 1.383 . S
C1654 C1657 1.603 . S
C1655 C1650 1.377 1_545 S
C1655 C1654 1.383 . S
C1655 H1718 0.929 . S
C1656 C1652 1.527 . S
C1656 H1719 0.961 . S
C1656 H1720 0.959 . S
C1656 H1721 0.959 . S
C1657 C1654 1.603 . S
C1657 H1722 0.960 . S
C1657 H1723 0.962 . S
C1657 H1724 0.961 . S
C1658 C1625 1.587 . S
C1658 C1659 1.360 . S
C1658 C1671 1.412 . S
C1659 C1658 1.360 . S
C1659 C1660 1.365 . S
C1659 H1725 0.929 . S
C1660 C1635 1.553 . S
C1660 C1659 1.365 . S
C1660 C1661 1.404 . S
C1661 C1660 1.404 . S
C1661 C1662 1.395 . S
C1661 C1672 1.451 . S
C1662 C1661 1.395 . S
C1662 C1663 1.322 . S
C1662 H1726 0.930 . S
C1663 C1662 1.322 . S
C1663 C1664 1.459 . S
C1663 H1727 0.929 . S
C1664 C1663 1.459 . S
C1664 C1665 1.445 . S
C1664 C1673 1.395 . S
C1665 C1643 1.432 . S
C1665 C1664 1.445 . S
C1665 C1666 1.370 . S
C1666 C1665 1.370 . S
C1666 C1667 1.438 . S
C1666 H1728 0.930 . S
C1667 C1653 1.497 1_545 S
C1667 C1666 1.438 . S
C1667 C1668 1.360 . S
C1668 C1667 1.360 . S
C1668 C1669 1.401 . S
C1668 C1673 1.446 . S
C1669 C1668 1.401 . S
C1669 C1670 1.347 . S
C1669 H1729 0.956 . S
C1670 C1669 1.347 . S
C1670 C1671 1.455 . S
C1670 H1730 0.930 . S
C1671 C1658 1.412 . S
C1671 C1670 1.455 . S
C1671 C1672 1.331 . S
C1672 C1661 1.451 . S
C1672 C1671 1.331 . S
C1672 C1673 1.497 . S
C1673 C1664 1.395 . S
C1673 C1668 1.446 . S
C1673 C1672 1.497 . S
C1674 C1675 1.582 . S
C1674 H1731 0.962 . S
C1674 H1732 0.959 . S
C1674 H1733 0.958 . S
C1675 C1674 1.582 . S
C1675 O1678 1.458 . S
C1675 H1704 0.980 1_545 S
O1676 C1621 1.426 . S
O1676 C1622 1.334 . S
O1677 C1649 1.412 . S
O1677 C1650 1.393 . S
O1678 C1640 1.435 . S
O1678 C1675 1.458 . S
O1679 C1631 1.468 . S
O1679 C1632 1.408 . S
H1680 C1621 0.980 1_545 S
H1681 C1620 0.959 . S
H1682 C1620 0.959 . S
H1683 C1620 0.960 . S
H1684 C1623 0.929 . S
H1685 C1627 0.929 . S
H1686 C1628 0.959 . S
H1687 C1628 0.961 . S
H1688 C1628 0.961 . S
H1689 C1629 0.960 . S
H1690 C1629 0.960 . S
H1691 C1629 0.961 . S
H1692 C1631 0.980 . S
H1693 C1630 0.961 . S
H1694 C1630 0.960 . S
H1695 C1630 0.959 . S
H1696 C1633 0.934 1_565 S
H1697 C1637 0.931 . S
H1698 C1638 0.959 . S
H1699 C1638 0.961 . S
H1700 C1638 0.959 . S
H1701 C1639 0.960 . S
H1702 C1639 0.960 . S
H1703 C1639 0.960 . S
H1704 C1675 0.980 1_565 S
H1705 C1641 0.930 . S
H1706 C1645 0.930 . S
H1707 C1646 0.961 . S
H1708 C1646 0.960 . S
H1709 C1646 0.958 . S
H1710 C1647 0.961 . S
H1711 C1647 0.960 . S
H1712 C1647 0.960 . S
H1713 C1649 1.005 . S
H1714 C1648 0.961 . S
H1715 C1648 0.961 . S
H1716 C1648 0.959 . S
H1717 C1651 0.932 . S
H1718 C1655 0.929 . S
H1719 C1656 0.961 . S
H1720 C1656 0.959 . S
H1721 C1656 0.959 . S
H1722 C1657 0.960 . S
H1723 C1657 0.962 . S
H1724 C1657 0.961 . S
H1725 C1659 0.929 . S
H1726 C1662 0.930 . S
H1727 C1663 0.929 . S
H1728 C1666 0.930 . S
H1729 C1669 0.956 . S
H1730 C1670 0.930 . S
H1731 C1674 0.962 . S
H1732 C1674 0.959 . S
H1733 C1674 0.958 . S
C1734 C1735 1.560 . S
C1734 H1795 0.959 . S
C1734 H1796 0.959 . S
C1734 H1797 0.960 . S
C1735 C1734 1.560 . S
C1735 O1790 1.426 . S
C1735 H1794 0.980 1_455 S
C1736 C1737 1.407 1_455 S
C1736 C1741 1.418 . S
C1736 O1790 1.334 . S
C1737 C1736 1.407 1_655 S
C1737 C1738 1.360 . S
C1737 H1798 0.929 . S
C1738 C1737 1.360 . S
C1738 C1739 1.401 . S
C1738 C1742 1.527 . S
C1739 C1738 1.401 . S
C1739 C1740 1.405 1_655 S
C1739 C1772 1.587 . S
C1740 C1739 1.405 1_455 S
C1740 C1741 1.332 . S
C1740 C1743 1.496 . S
C1741 C1736 1.418 . S
C1741 C1740 1.332 . S
C1741 H1799 0.929 . S
C1742 C1738 1.527 . S
C1742 H1800 0.959 . S
C1742 H1801 0.961 . S
C1742 H1802 0.961 . S
C1743 C1740 1.496 . S
C1743 H1803 0.960 . S
C1743 H1804 0.960 . S
C1743 H1805 0.961 . S
C1744 C1745 1.517 . S
C1744 H1807 0.961 . S
C1744 H1808 0.960 . S
C1744 H1809 0.959 . S
C1745 C1744 1.517 . S
C1745 O1793 1.468 . S
C1745 H1806 0.980 . S
C1746 C1747 1.349 . S
C1746 C1751 1.367 . S
C1746 O1793 1.408 . S
C1747 C1746 1.349 . S
C1747 C1748 1.407 . S
C1747 H1810 0.886 1_655 S
C1748 C1747 1.407 . S
C1748 C1749 1.449 . S
C1748 C1752 1.535 1_655 S
C1749 C1748 1.449 . S
C1749 C1750 1.384 . S
C1749 C1774 1.553 . S
C1750 C1749 1.384 . S
C1750 C1751 1.364 . S
C1750 C1753 1.450 . S
C1751 C1746 1.367 . S
C1751 C1750 1.364 . S
C1751 H1811 0.931 . S
C1752 C1748 1.535 1_455 S
C1752 H1812 0.959 . S
C1752 H1813 0.961 . S
C1752 H1814 0.959 . S
C1753 C1750 1.450 . S
C1753 H1815 0.960 . S
C1753 H1816 0.960 . S
C1753 H1817 0.960 . S
C1754 C1755 1.309 1_655 S
C1754 C1759 1.304 . S
C1754 O1792 1.435 . S
C1755 C1754 1.309 1_455 S
C1755 C1756 1.476 . S
C1755 H1819 0.930 . S
C1756 C1755 1.476 . S
C1756 C1757 1.400 1_455 S
C1756 C1760 1.567 . S
C1757 C1756 1.400 1_655 S
C1757 C1758 1.373 . S
C1757 C1779 1.432 . S
C1758 C1757 1.373 . S
C1758 C1759 1.339 . S
C1758 C1761 1.530 . S
C1759 C1754 1.304 . S
C1759 C1758 1.339 . S
C1759 H1820 0.930 . S
C1760 C1756 1.567 . S
C1760 H1821 0.961 . S
C1760 H1822 0.960 . S
C1760 H1823 0.958 . S
C1761 C1758 1.530 . S
C1761 H1824 0.961 . S
C1761 H1825 0.960 . S
C1761 H1826 0.960 . S
C1762 C1763 1.530 . S
C1762 H1828 0.961 . S
C1762 H1829 0.961 . S
C1762 H1830 0.959 . S
C1763 C1762 1.530 . S
C1763 O1791 1.412 . S
C1763 H1827 0.963 1_455 S
C1764 C1765 1.288 . S
C1764 C1769 1.377 1_455 S
C1764 O1791 1.393 . S
C1765 C1764 1.288 . S
C1765 C1766 1.369 . S
C1765 H1831 0.932 . S
C1766 C1765 1.369 . S
C1766 C1767 1.398 . S
C1766 C1770 1.527 . S
C1767 C1766 1.398 . S
C1767 C1768 1.380 1_455 S
C1767 C1781 1.497 1_455 S
C1768 C1767 1.380 1_655 S
C1768 C1769 1.383 . S
C1768 C1771 1.603 . S
C1769 C1764 1.377 1_655 S
C1769 C1768 1.383 . S
C1769 H1832 0.929 . S
C1770 C1766 1.527 . S
C1770 H1833 0.961 . S
C1770 H1834 0.959 . S
C1770 H1835 0.959 . S
C1771 C1768 1.603 . S
C1771 H1836 0.960 . S
C1771 H1837 0.962 . S
C1771 H1838 0.961 . S
C1772 C1739 1.587 . S
C1772 C1773 1.360 . S
C1772 C1785 1.412 . S
C1773 C1772 1.360 . S
C1773 C1774 1.365 . S
C1773 H1839 0.929 . S
C1774 C1749 1.553 . S
C1774 C1773 1.365 . S
C1774 C1775 1.404 . S
C1775 C1774 1.404 . S
C1775 C1776 1.395 . S
C1775 C1786 1.451 . S
C1776 C1775 1.395 . S
C1776 C1777 1.322 . S
C1776 H1840 0.930 . S
C1777 C1776 1.322 . S
C1777 C1778 1.459 . S
C1777 H1841 0.929 . S
C1778 C1777 1.459 . S
C1778 C1779 1.445 . S
C1778 C1787 1.395 . S
C1779 C1757 1.432 . S
C1779 C1778 1.445 . S
C1779 C1780 1.370 . S
C1780 C1779 1.370 . S
C1780 C1781 1.438 . S
C1780 H1842 0.930 . S
C1781 C1767 1.497 1_655 S
C1781 C1780 1.438 . S
C1781 C1782 1.360 . S
C1782 C1781 1.360 . S
C1782 C1783 1.401 . S
C1782 C1787 1.446 . S
C1783 C1782 1.401 . S
C1783 C1784 1.347 . S
C1783 H1843 0.929 . S
C1784 C1783 1.347 . S
C1784 C1785 1.455 . S
C1784 H1844 0.930 . S
C1785 C1772 1.412 . S
C1785 C1784 1.455 . S
C1785 C1786 1.331 . S
C1786 C1775 1.451 . S
C1786 C1785 1.331 . S
C1786 C1787 1.497 . S
C1787 C1778 1.395 . S
C1787 C1782 1.446 . S
C1787 C1786 1.497 . S
C1788 C1789 1.582 1_655 S
C1788 H1845 0.968 1_655 S
C1788 H1846 0.959 . S
C1788 H1847 0.958 . S
C1789 C1788 1.582 1_455 S
C1789 O1792 1.392 1_455 S
C1789 H1818 1.007 . S
O1790 C1735 1.426 . S
O1790 C1736 1.334 . S
O1791 C1763 1.412 . S
O1791 C1764 1.393 . S
O1792 C1754 1.435 . S
O1792 C1789 1.392 1_655 S
O1793 C1745 1.468 . S
O1793 C1746 1.408 . S
H1794 C1735 0.980 1_655 S
H1795 C1734 0.959 . S
H1796 C1734 0.959 . S
H1797 C1734 0.960 . S
H1798 C1737 0.929 . S
H1799 C1741 0.929 . S
H1800 C1742 0.959 . S
H1801 C1742 0.961 . S
H1802 C1742 0.961 . S
H1803 C1743 0.960 . S
H1804 C1743 0.960 . S
H1805 C1743 0.961 . S
H1806 C1745 0.980 . S
H1807 C1744 0.961 . S
H1808 C1744 0.960 . S
H1809 C1744 0.959 . S
H1810 C1747 0.886 1_455 S
H1811 C1751 0.931 . S
H1812 C1752 0.959 . S
H1813 C1752 0.961 . S
H1814 C1752 0.959 . S
H1815 C1753 0.960 . S
H1816 C1753 0.960 . S
H1817 C1753 0.960 . S
H1818 C1789 1.007 . S
H1819 C1755 0.930 . S
H1820 C1759 0.930 . S
H1821 C1760 0.961 . S
H1822 C1760 0.960 . S
H1823 C1760 0.958 . S
H1824 C1761 0.961 . S
H1825 C1761 0.960 . S
H1826 C1761 0.960 . S
H1827 C1763 0.963 1_655 S
H1828 C1762 0.961 . S
H1829 C1762 0.961 . S
H1830 C1762 0.959 . S
H1831 C1765 0.932 . S
H1832 C1769 0.929 . S
H1833 C1770 0.961 . S
H1834 C1770 0.959 . S
H1835 C1770 0.959 . S
H1836 C1771 0.960 . S
H1837 C1771 0.962 . S
H1838 C1771 0.961 . S
H1839 C1773 0.929 . S
H1840 C1776 0.930 . S
H1841 C1777 0.929 . S
H1842 C1780 0.930 . S
H1843 C1783 0.929 . S
H1844 C1784 0.930 . S
H1845 C1788 0.968 1_455 S
H1846 C1788 0.959 . S
H1847 C1788 0.958 . S
C1848 C1849 1.560 . S
C1848 H1909 0.959 . S
C1848 H1910 0.959 . S
C1848 H1911 0.960 . S
C1849 C1848 1.560 . S
C1849 O1904 1.426 . S
C1849 H1908 0.980 . S
C1850 C1851 1.407 . S
C1850 C1855 1.418 . S
C1850 O1904 1.334 . S
C1851 C1850 1.407 . S
C1851 C1852 1.360 . S
C1851 H1912 0.929 . S
C1852 C1851 1.360 . S
C1852 C1853 1.401 . S
C1852 C1856 1.527 . S
C1853 C1852 1.401 . S
C1853 C1854 1.405 . S
C1853 C1886 1.587 . S
C1854 C1853 1.405 . S
C1854 C1855 1.332 . S
C1854 C1857 1.496 . S
C1855 C1850 1.418 . S
C1855 C1854 1.332 . S
C1855 H1913 0.929 . S
C1856 C1852 1.527 . S
C1856 H1914 0.959 . S
C1856 H1915 0.961 . S
C1856 H1916 0.961 . S
C1857 C1854 1.496 . S
C1857 H1917 0.960 . S
C1857 H1918 0.960 . S
C1857 H1919 0.961 . S
C1858 C1859 1.517 . S
C1858 H1921 0.961 . S
C1858 H1922 0.960 . S
C1858 H1923 0.959 . S
C1859 C1858 1.517 . S
C1859 O1907 1.468 . S
C1859 H1920 0.980 . S
C1860 C1861 1.349 . S
C1860 C1865 1.367 . S
C1860 O1907 1.408 . S
C1861 C1860 1.349 . S
C1861 C1862 1.407 . S
C1861 H1924 0.930 . S
C1862 C1861 1.407 . S
C1862 C1863 1.449 . S
C1862 C1866 1.535 . S
C1863 C1862 1.449 . S
C1863 C1864 1.384 . S
C1863 C1888 1.553 . S
C1864 C1863 1.384 . S
C1864 C1865 1.364 . S
C1864 C1867 1.450 . S
C1865 C1860 1.367 . S
C1865 C1864 1.364 . S
C1865 H1925 0.931 . S
C1866 C1862 1.535 . S
C1866 H1926 0.959 . S
C1866 H1927 0.961 . S
C1866 H1928 0.959 . S
C1867 C1864 1.450 . S
C1867 H1929 0.960 . S
C1867 H1930 0.960 . S
C1867 H1931 0.960 . S
C1868 C1869 1.309 . S
C1868 C1873 1.304 . S
C1868 O1906 1.435 . S
C1869 C1868 1.309 . S
C1869 C1870 1.476 . S
C1869 H1933 0.930 . S
C1870 C1869 1.476 . S
C1870 C1871 1.400 . S
C1870 C1874 1.567 . S
C1871 C1870 1.400 . S
C1871 C1872 1.373 . S
C1871 C1893 1.432 . S
C1872 C1871 1.373 . S
C1872 C1873 1.339 . S
C1872 C1875 1.530 . S
C1873 C1868 1.304 . S
C1873 C1872 1.339 . S
C1873 H1934 0.930 . S
C1874 C1870 1.567 . S
C1874 H1935 0.961 . S
C1874 H1936 0.960 . S
C1874 H1937 0.958 . S
C1875 C1872 1.530 . S
C1875 H1938 0.961 . S
C1875 H1939 0.960 . S
C1875 H1940 0.960 . S
C1876 C1877 1.530 . S
C1876 H1942 0.961 . S
C1876 H1943 0.961 . S
C1876 H1944 0.959 . S
C1877 C1876 1.530 . S
C1877 O1905 1.412 . S
C1877 H1941 0.980 . S
C1878 C1879 1.288 . S
C1878 C1883 1.377 . S
C1878 O1905 1.393 . S
C1879 C1878 1.288 . S
C1879 C1880 1.369 . S
C1879 H1945 0.932 . S
C1880 C1879 1.369 . S
C1880 C1881 1.398 . S
C1880 C1884 1.527 . S
C1881 C1880 1.398 . S
C1881 C1882 1.380 . S
C1881 C1895 1.497 . S
C1882 C1881 1.380 . S
C1882 C1883 1.383 . S
C1882 C1885 1.603 . S
C1883 C1878 1.377 . S
C1883 C1882 1.383 . S
C1883 H1946 0.929 . S
C1884 C1880 1.527 . S
C1884 H1947 0.961 . S
C1884 H1948 0.959 . S
C1884 H1949 0.959 . S
C1885 C1882 1.603 . S
C1885 H1950 0.960 . S
C1885 H1951 0.962 . S
C1885 H1952 0.961 . S
C1886 C1853 1.587 . S
C1886 C1887 1.360 . S
C1886 C1899 1.412 . S
C1887 C1886 1.360 . S
C1887 C1888 1.365 . S
C1887 H1953 0.929 . S
C1888 C1863 1.553 . S
C1888 C1887 1.365 . S
C1888 C1889 1.404 . S
C1889 C1888 1.404 . S
C1889 C1890 1.395 . S
C1889 C1900 1.451 . S
C1890 C1889 1.395 . S
C1890 C1891 1.322 . S
C1890 H1954 0.930 . S
C1891 C1890 1.322 . S
C1891 C1892 1.459 . S
C1891 H1955 0.929 . S
C1892 C1891 1.459 . S
C1892 C1893 1.445 . S
C1892 C1901 1.395 . S
C1893 C1871 1.432 . S
C1893 C1892 1.445 . S
C1893 C1894 1.370 . S
C1894 C1893 1.370 . S
C1894 C1895 1.438 . S
C1894 H1956 0.930 . S
C1895 C1881 1.497 . S
C1895 C1894 1.438 . S
C1895 C1896 1.360 . S
C1896 C1895 1.360 . S
C1896 C1897 1.401 . S
C1896 C1901 1.446 . S
C1897 C1896 1.401 . S
C1897 C1898 1.347 . S
C1897 H1957 0.929 . S
C1898 C1897 1.347 . S
C1898 C1899 1.455 . S
C1898 H1958 0.930 . S
C1899 C1886 1.412 . S
C1899 C1898 1.455 . S
C1899 C1900 1.331 . S
C1900 C1889 1.451 . S
C1900 C1899 1.331 . S
C1900 C1901 1.497 . S
C1901 C1892 1.395 . S
C1901 C1896 1.446 . S
C1901 C1900 1.497 . S
C1902 C1903 1.582 . S
C1902 H1959 0.962 . S
C1902 H1960 0.959 . S
C1902 H1961 0.958 . S
C1903 C1902 1.582 . S
C1903 O1906 1.458 . S
C1903 H1932 0.980 . S
O1904 C1849 1.426 . S
O1904 C1850 1.334 . S
O1905 C1877 1.412 . S
O1905 C1878 1.393 . S
O1906 C1868 1.435 . S
O1906 C1903 1.458 . S
O1907 C1859 1.468 . S
O1907 C1860 1.408 . S
H1908 C1849 0.980 . S
H1909 C1848 0.959 . S
H1910 C1848 0.959 . S
H1911 C1848 0.960 . S
H1912 C1851 0.929 . S
H1913 C1855 0.929 . S
H1914 C1856 0.959 . S
H1915 C1856 0.961 . S
H1916 C1856 0.961 . S
H1917 C1857 0.960 . S
H1918 C1857 0.960 . S
H1919 C1857 0.961 . S
H1920 C1859 0.980 . S
H1921 C1858 0.961 . S
H1922 C1858 0.960 . S
H1923 C1858 0.959 . S
H1924 C1861 0.930 . S
H1925 C1865 0.931 . S
H1926 C1866 0.959 . S
H1927 C1866 0.961 . S
H1928 C1866 0.959 . S
H1929 C1867 0.960 . S
H1930 C1867 0.960 . S
H1931 C1867 0.960 . S
H1932 C1903 0.980 . S
H1933 C1869 0.930 . S
H1934 C1873 0.930 . S
H1935 C1874 0.961 . S
H1936 C1874 0.960 . S
H1937 C1874 0.958 . S
H1938 C1875 0.961 . S
H1939 C1875 0.960 . S
H1940 C1875 0.960 . S
H1941 C1877 0.980 . S
H1942 C1876 0.961 . S
H1943 C1876 0.961 . S
H1944 C1876 0.959 . S
H1945 C1879 0.932 . S
H1946 C1883 0.929 . S
H1947 C1884 0.961 . S
H1948 C1884 0.959 . S
H1949 C1884 0.959 . S
H1950 C1885 0.960 . S
H1951 C1885 0.962 . S
H1952 C1885 0.961 . S
H1953 C1887 0.929 . S
H1954 C1890 0.930 . S
H1955 C1891 0.929 . S
H1956 C1894 0.930 . S
H1957 C1897 0.929 . S
H1958 C1898 0.930 . S
H1959 C1902 0.962 . S
H1960 C1902 0.959 . S
H1961 C1902 0.958 . S
C1962 C1963 1.560 . S
C1962 H2023 0.959 . S
C1962 H2024 0.959 . S
C1962 H2025 0.960 . S
C1963 C1962 1.560 . S
C1963 O2018 1.426 . S
C1963 H2022 0.980 . S
C1964 C1965 1.407 . S
C1964 C1969 1.418 . S
C1964 O2018 1.334 . S
C1965 C1964 1.407 . S
C1965 C1966 1.360 . S
C1965 H2026 0.929 . S
C1966 C1965 1.360 . S
C1966 C1967 1.401 . S
C1966 C1970 1.527 . S
C1967 C1966 1.401 . S
C1967 C1968 1.405 . S
C1967 C2000 1.587 . S
C1968 C1967 1.405 . S
C1968 C1969 1.332 . S
C1968 C1971 1.496 . S
C1969 C1964 1.418 . S
C1969 C1968 1.332 . S
C1969 H2027 0.929 . S
C1970 C1966 1.527 . S
C1970 H2028 0.959 . S
C1970 H2029 0.961 . S
C1970 H2030 0.961 . S
C1971 C1968 1.496 . S
C1971 H2031 0.960 . S
C1971 H2032 0.960 . S
C1971 H2033 0.961 . S
C1972 C1973 1.517 . S
C1972 H2035 0.961 . S
C1972 H2036 0.960 . S
C1972 H2037 0.959 . S
C1973 C1972 1.517 . S
C1973 O2021 1.468 . S
C1973 H2034 0.980 . S
C1974 C1975 1.349 . S
C1974 C1979 1.367 . S
C1974 O2021 1.408 . S
C1975 C1974 1.349 . S
C1975 C1976 1.407 . S
C1975 H2038 0.930 . S
C1976 C1975 1.407 . S
C1976 C1977 1.449 . S
C1976 C1980 1.535 . S
C1977 C1976 1.449 . S
C1977 C1978 1.384 . S
C1977 C2002 1.553 . S
C1978 C1977 1.384 . S
C1978 C1979 1.364 . S
C1978 C1981 1.450 . S
C1979 C1974 1.367 . S
C1979 C1978 1.364 . S
C1979 H2039 0.931 . S
C1980 C1976 1.535 . S
C1980 H2040 0.959 . S
C1980 H2041 0.961 . S
C1980 H2042 0.959 . S
C1981 C1978 1.450 . S
C1981 H2043 0.960 . S
C1981 H2044 0.960 . S
C1981 H2045 0.960 . S
C1982 C1983 1.309 . S
C1982 C1987 1.304 . S
C1982 O2020 1.435 . S
C1983 C1982 1.309 . S
C1983 C1984 1.476 . S
C1983 H2047 0.930 . S
C1984 C1983 1.476 . S
C1984 C1985 1.400 . S
C1984 C1988 1.567 . S
C1985 C1984 1.400 . S
C1985 C1986 1.373 . S
C1985 C2007 1.432 . S
C1986 C1985 1.373 . S
C1986 C1987 1.339 . S
C1986 C1989 1.530 . S
C1987 C1982 1.304 . S
C1987 C1986 1.339 . S
C1987 H2048 0.930 . S
C1988 C1984 1.567 . S
C1988 H2049 0.961 . S
C1988 H2050 0.960 . S
C1988 H2051 0.958 . S
C1989 C1986 1.530 . S
C1989 H2052 0.961 . S
C1989 H2053 0.960 . S
C1989 H2054 0.960 . S
C1990 C1991 1.530 . S
C1990 H2056 0.961 . S
C1990 H2057 0.961 . S
C1990 H2058 0.959 . S
C1991 C1990 1.530 . S
C1991 O2019 1.412 . S
C1991 H2055 0.980 . S
C1992 C1993 1.288 . S
C1992 C1997 1.377 . S
C1992 O2019 1.393 . S
C1993 C1992 1.288 . S
C1993 C1994 1.369 . S
C1993 H2059 0.932 . S
C1994 C1993 1.369 . S
C1994 C1995 1.398 . S
C1994 C1998 1.527 . S
C1995 C1994 1.398 . S
C1995 C1996 1.380 . S
C1995 C2009 1.497 . S
C1996 C1995 1.380 . S
C1996 C1997 1.383 . S
C1996 C1999 1.603 . S
C1997 C1992 1.377 . S
C1997 C1996 1.383 . S
C1997 H2060 0.929 . S
C1998 C1994 1.527 . S
C1998 H2061 0.961 . S
C1998 H2062 0.959 . S
C1998 H2063 0.959 . S
C1999 C1996 1.603 . S
C1999 H2064 0.960 . S
C1999 H2065 0.962 . S
C1999 H2066 0.961 . S
C2000 C1967 1.587 . S
C2000 C2001 1.360 . S
C2000 C2013 1.412 . S
C2001 C2000 1.360 . S
C2001 C2002 1.365 . S
C2001 H2067 0.929 . S
C2002 C1977 1.553 . S
C2002 C2001 1.365 . S
C2002 C2003 1.404 . S
C2003 C2002 1.404 . S
C2003 C2004 1.395 . S
C2003 C2014 1.451 . S
C2004 C2003 1.395 . S
C2004 C2005 1.322 . S
C2004 H2068 0.930 . S
C2005 C2004 1.322 . S
C2005 C2006 1.459 . S
C2005 H2069 0.929 . S
C2006 C2005 1.459 . S
C2006 C2007 1.445 . S
C2006 C2015 1.395 . S
C2007 C1985 1.432 . S
C2007 C2006 1.445 . S
C2007 C2008 1.370 . S
C2008 C2007 1.370 . S
C2008 C2009 1.438 . S
C2008 H2070 0.930 . S
C2009 C1995 1.497 . S
C2009 C2008 1.438 . S
C2009 C2010 1.360 . S
C2010 C2009 1.360 . S
C2010 C2011 1.401 . S
C2010 C2015 1.446 . S
C2011 C2010 1.401 . S
C2011 C2012 1.347 . S
C2011 H2071 0.929 . S
C2012 C2011 1.347 . S
C2012 C2013 1.455 . S
C2012 H2072 0.930 . S
C2013 C2000 1.412 . S
C2013 C2012 1.455 . S
C2013 C2014 1.331 . S
C2014 C2003 1.451 . S
C2014 C2013 1.331 . S
C2014 C2015 1.497 . S
C2015 C2006 1.395 . S
C2015 C2010 1.446 . S
C2015 C2014 1.497 . S
C2016 C2017 1.582 . S
C2016 H2073 0.962 . S
C2016 H2074 0.959 . S
C2016 H2075 0.958 . S
C2017 C2016 1.582 . S
C2017 O2020 1.458 . S
C2017 H2046 0.980 . S
O2018 C1963 1.426 . S
O2018 C1964 1.334 . S
O2019 C1991 1.412 . S
O2019 C1992 1.393 . S
O2020 C1982 1.435 . S
O2020 C2017 1.458 . S
O2021 C1973 1.468 . S
O2021 C1974 1.408 . S
H2022 C1963 0.980 . S
H2023 C1962 0.959 . S
H2024 C1962 0.959 . S
H2025 C1962 0.960 . S
H2026 C1965 0.929 . S
H2027 C1969 0.929 . S
H2028 C1970 0.959 . S
H2029 C1970 0.961 . S
H2030 C1970 0.961 . S
H2031 C1971 0.960 . S
H2032 C1971 0.960 . S
H2033 C1971 0.961 . S
H2034 C1973 0.980 . S
H2035 C1972 0.961 . S
H2036 C1972 0.960 . S
H2037 C1972 0.959 . S
H2038 C1975 0.930 . S
H2039 C1979 0.931 . S
H2040 C1980 0.959 . S
H2041 C1980 0.961 . S
H2042 C1980 0.959 . S
H2043 C1981 0.960 . S
H2044 C1981 0.960 . S
H2045 C1981 0.960 . S
H2046 C2017 0.980 . S
H2047 C1983 0.930 . S
H2048 C1987 0.930 . S
H2049 C1988 0.961 . S
H2050 C1988 0.960 . S
H2051 C1988 0.958 . S
H2052 C1989 0.961 . S
H2053 C1989 0.960 . S
H2054 C1989 0.960 . S
H2055 C1991 0.980 . S
H2056 C1990 0.961 . S
H2057 C1990 0.961 . S
H2058 C1990 0.959 . S
H2059 C1993 0.932 . S
H2060 C1997 0.929 . S
H2061 C1998 0.961 . S
H2062 C1998 0.959 . S
H2063 C1998 0.959 . S
H2064 C1999 0.960 . S
H2065 C1999 0.962 . S
H2066 C1999 0.961 . S
H2067 C2001 0.929 . S
H2068 C2004 0.930 . S
H2069 C2005 0.929 . S
H2070 C2008 0.930 . S
H2071 C2011 0.929 . S
H2072 C2012 0.930 . S
H2073 C2016 0.962 . S
H2074 C2016 0.959 . S
H2075 C2016 0.958 . S
C2076 C2077 1.560 . S
C2076 H2137 0.959 . S
C2076 H2138 0.959 . S
C2076 H2139 0.960 . S
C2077 C2076 1.560 . S
C2077 O2132 1.426 . S
C2077 H2136 0.980 . S
C2078 C2079 1.407 . S
C2078 C2083 1.418 . S
C2078 O2132 1.334 . S
C2079 C2078 1.407 . S
C2079 C2080 1.360 . S
C2079 H2140 0.929 . S
C2080 C2079 1.360 . S
C2080 C2081 1.401 . S
C2080 C2084 1.527 . S
C2081 C2080 1.401 . S
C2081 C2082 1.405 . S
C2081 C2114 1.587 . S
C2082 C2081 1.405 . S
C2082 C2083 1.332 . S
C2082 C2085 1.496 . S
C2083 C2078 1.418 . S
C2083 C2082 1.332 . S
C2083 H2141 0.929 . S
C2084 C2080 1.527 . S
C2084 H2142 0.959 . S
C2084 H2143 0.961 . S
C2084 H2144 0.961 . S
C2085 C2082 1.496 . S
C2085 H2145 0.960 . S
C2085 H2146 0.960 . S
C2085 H2147 0.961 . S
C2086 C2087 1.517 . S
C2086 H2149 0.961 . S
C2086 H2150 0.960 . S
C2086 H2151 0.959 . S
C2087 C2086 1.517 . S
C2087 O2135 1.468 . S
C2087 H2148 0.980 . S
C2088 C2089 1.349 . S
C2088 C2093 1.367 . S
C2088 O2135 1.408 . S
C2089 C2088 1.349 . S
C2089 C2090 1.407 . S
C2089 H2152 0.930 . S
C2090 C2089 1.407 . S
C2090 C2091 1.449 . S
C2090 C2094 1.535 . S
C2091 C2090 1.449 . S
C2091 C2092 1.384 . S
C2091 C2116 1.553 . S
C2092 C2091 1.384 . S
C2092 C2093 1.364 . S
C2092 C2095 1.450 . S
C2093 C2088 1.367 . S
C2093 C2092 1.364 . S
C2093 H2153 0.931 . S
C2094 C2090 1.535 . S
C2094 H2154 0.959 . S
C2094 H2155 0.961 . S
C2094 H2156 0.959 . S
C2095 C2092 1.450 . S
C2095 H2157 0.960 . S
C2095 H2158 0.960 . S
C2095 H2159 0.960 . S
C2096 C2097 1.309 . S
C2096 C2101 1.304 . S
C2096 O2134 1.435 . S
C2097 C2096 1.309 . S
C2097 C2098 1.476 . S
C2097 H2161 0.930 . S
C2098 C2097 1.476 . S
C2098 C2099 1.400 . S
C2098 C2102 1.567 . S
C2099 C2098 1.400 . S
C2099 C2100 1.373 . S
C2099 C2121 1.432 . S
C2100 C2099 1.373 . S
C2100 C2101 1.339 . S
C2100 C2103 1.530 . S
C2101 C2096 1.304 . S
C2101 C2100 1.339 . S
C2101 H2162 0.930 . S
C2102 C2098 1.567 . S
C2102 H2163 0.961 . S
C2102 H2164 0.960 . S
C2102 H2165 0.958 . S
C2103 C2100 1.530 . S
C2103 H2166 0.961 . S
C2103 H2167 0.960 . S
C2103 H2168 0.960 . S
C2104 C2105 1.530 . S
C2104 H2170 0.961 . S
C2104 H2171 0.961 . S
C2104 H2172 0.959 . S
C2105 C2104 1.530 . S
C2105 O2133 1.412 . S
C2105 H2169 0.980 . S
C2106 C2107 1.288 . S
C2106 C2111 1.377 . S
C2106 O2133 1.393 . S
C2107 C2106 1.288 . S
C2107 C2108 1.369 . S
C2107 H2173 0.932 . S
C2108 C2107 1.369 . S
C2108 C2109 1.398 . S
C2108 C2112 1.527 . S
C2109 C2108 1.398 . S
C2109 C2110 1.380 . S
C2109 C2123 1.497 . S
C2110 C2109 1.380 . S
C2110 C2111 1.383 . S
C2110 C2113 1.603 . S
C2111 C2106 1.377 . S
C2111 C2110 1.383 . S
C2111 H2174 0.929 . S
C2112 C2108 1.527 . S
C2112 H2175 0.961 . S
C2112 H2176 0.959 . S
C2112 H2177 0.959 . S
C2113 C2110 1.603 . S
C2113 H2178 0.960 . S
C2113 H2179 0.962 . S
C2113 H2180 0.961 . S
C2114 C2081 1.587 . S
C2114 C2115 1.360 . S
C2114 C2127 1.412 . S
C2115 C2114 1.360 . S
C2115 C2116 1.365 . S
C2115 H2181 0.929 . S
C2116 C2091 1.553 . S
C2116 C2115 1.365 . S
C2116 C2117 1.404 . S
C2117 C2116 1.404 . S
C2117 C2118 1.395 . S
C2117 C2128 1.451 . S
C2118 C2117 1.395 . S
C2118 C2119 1.322 . S
C2118 H2182 0.930 . S
C2119 C2118 1.322 . S
C2119 C2120 1.459 . S
C2119 H2183 0.929 . S
C2120 C2119 1.459 . S
C2120 C2121 1.445 . S
C2120 C2129 1.395 . S
C2121 C2099 1.432 . S
C2121 C2120 1.445 . S
C2121 C2122 1.370 . S
C2122 C2121 1.370 . S
C2122 C2123 1.438 . S
C2122 H2184 0.930 . S
C2123 C2109 1.497 . S
C2123 C2122 1.438 . S
C2123 C2124 1.360 . S
C2124 C2123 1.360 . S
C2124 C2125 1.401 . S
C2124 C2129 1.446 . S
C2125 C2124 1.401 . S
C2125 C2126 1.347 . S
C2125 H2185 0.929 . S
C2126 C2125 1.347 . S
C2126 C2127 1.455 . S
C2126 H2186 0.930 . S
C2127 C2114 1.412 . S
C2127 C2126 1.455 . S
C2127 C2128 1.331 . S
C2128 C2117 1.451 . S
C2128 C2127 1.331 . S
C2128 C2129 1.497 . S
C2129 C2120 1.395 . S
C2129 C2124 1.446 . S
C2129 C2128 1.497 . S
C2130 C2131 1.582 . S
C2130 H2187 0.962 . S
C2130 H2188 0.959 . S
C2130 H2189 0.958 . S
C2131 C2130 1.582 . S
C2131 O2134 1.458 . S
C2131 H2160 0.980 . S
O2132 C2077 1.426 . S
O2132 C2078 1.334 . S
O2133 C2105 1.412 . S
O2133 C2106 1.393 . S
O2134 C2096 1.435 . S
O2134 C2131 1.458 . S
O2135 C2087 1.468 . S
O2135 C2088 1.408 . S
H2136 C2077 0.980 . S
H2137 C2076 0.959 . S
H2138 C2076 0.959 . S
H2139 C2076 0.960 . S
H2140 C2079 0.929 . S
H2141 C2083 0.929 . S
H2142 C2084 0.959 . S
H2143 C2084 0.961 . S
H2144 C2084 0.961 . S
H2145 C2085 0.960 . S
H2146 C2085 0.960 . S
H2147 C2085 0.961 . S
H2148 C2087 0.980 . S
H2149 C2086 0.961 . S
H2150 C2086 0.960 . S
H2151 C2086 0.959 . S
H2152 C2089 0.930 . S
H2153 C2093 0.931 . S
H2154 C2094 0.959 . S
H2155 C2094 0.961 . S
H2156 C2094 0.959 . S
H2157 C2095 0.960 . S
H2158 C2095 0.960 . S
H2159 C2095 0.960 . S
H2160 C2131 0.980 . S
H2161 C2097 0.930 . S
H2162 C2101 0.930 . S
H2163 C2102 0.961 . S
H2164 C2102 0.960 . S
H2165 C2102 0.958 . S
H2166 C2103 0.961 . S
H2167 C2103 0.960 . S
H2168 C2103 0.960 . S
H2169 C2105 0.980 . S
H2170 C2104 0.961 . S
H2171 C2104 0.961 . S
H2172 C2104 0.959 . S
H2173 C2107 0.932 . S
H2174 C2111 0.929 . S
H2175 C2112 0.961 . S
H2176 C2112 0.959 . S
H2177 C2112 0.959 . S
H2178 C2113 0.960 . S
H2179 C2113 0.962 . S
H2180 C2113 0.961 . S
H2181 C2115 0.929 . S
H2182 C2118 0.930 . S
H2183 C2119 0.929 . S
H2184 C2122 0.930 . S
H2185 C2125 0.929 . S
H2186 C2126 0.930 . S
H2187 C2130 0.962 . S
H2188 C2130 0.959 . S
H2189 C2130 0.958 . S
C2190 C2191 1.560 . S
C2190 H2251 0.959 . S
C2190 H2252 0.959 . S
C2190 H2253 0.960 . S
C2191 C2190 1.560 . S
C2191 O2246 1.426 . S
C2191 H2250 0.980 . S
C2192 C2193 1.407 . S
C2192 C2197 1.418 . S
C2192 O2246 1.334 . S
C2193 C2192 1.407 . S
C2193 C2194 1.360 . S
C2193 H2254 0.929 . S
C2194 C2193 1.360 . S
C2194 C2195 1.401 . S
C2194 C2198 1.527 . S
C2195 C2194 1.401 . S
C2195 C2196 1.405 . S
C2195 C2228 1.587 . S
C2196 C2195 1.405 . S
C2196 C2197 1.332 . S
C2196 C2199 1.496 . S
C2197 C2192 1.418 . S
C2197 C2196 1.332 . S
C2197 H2255 0.929 . S
C2198 C2194 1.527 . S
C2198 H2256 0.959 . S
C2198 H2257 0.961 . S
C2198 H2258 0.961 . S
C2199 C2196 1.496 . S
C2199 H2259 0.960 . S
C2199 H2260 0.960 . S
C2199 H2261 0.961 . S
C2200 C2201 1.517 . S
C2200 H2263 0.961 . S
C2200 H2264 0.960 . S
C2200 H2265 0.959 . S
C2201 C2200 1.517 . S
C2201 O2249 1.468 . S
C2201 H2262 0.980 . S
C2202 C2203 1.349 . S
C2202 C2207 1.367 . S
C2202 O2249 1.408 . S
C2203 C2202 1.349 . S
C2203 C2204 1.407 . S
C2203 H2266 0.930 . S
C2204 C2203 1.407 . S
C2204 C2205 1.449 . S
C2204 C2208 1.535 . S
C2205 C2204 1.449 . S
C2205 C2206 1.384 . S
C2205 C2230 1.553 . S
C2206 C2205 1.384 . S
C2206 C2207 1.364 . S
C2206 C2209 1.450 . S
C2207 C2202 1.367 . S
C2207 C2206 1.364 . S
C2207 H2267 0.931 . S
C2208 C2204 1.535 . S
C2208 H2268 0.959 . S
C2208 H2269 0.961 . S
C2208 H2270 0.959 . S
C2209 C2206 1.450 . S
C2209 H2271 0.960 . S
C2209 H2272 0.960 . S
C2209 H2273 0.960 . S
C2210 C2211 1.309 . S
C2210 C2215 1.304 . S
C2210 O2248 1.435 . S
C2211 C2210 1.309 . S
C2211 C2212 1.476 . S
C2211 H2275 0.930 . S
C2212 C2211 1.476 . S
C2212 C2213 1.400 . S
C2212 C2216 1.567 . S
C2213 C2212 1.400 . S
C2213 C2214 1.373 . S
C2213 C2235 1.432 . S
C2214 C2213 1.373 . S
C2214 C2215 1.339 . S
C2214 C2217 1.530 . S
C2215 C2210 1.304 . S
C2215 C2214 1.339 . S
C2215 H2276 0.930 . S
C2216 C2212 1.567 . S
C2216 H2277 0.961 . S
C2216 H2278 0.960 . S
C2216 H2279 0.958 . S
C2217 C2214 1.530 . S
C2217 H2280 0.961 . S
C2217 H2281 0.960 . S
C2217 H2282 0.960 . S
C2218 C2219 1.530 . S
C2218 H2284 0.961 . S
C2218 H2285 0.961 . S
C2218 H2286 0.959 . S
C2219 C2218 1.530 . S
C2219 O2247 1.412 . S
C2219 H2283 0.980 . S
C2220 C2221 1.288 . S
C2220 C2225 1.377 . S
C2220 O2247 1.393 . S
C2221 C2220 1.288 . S
C2221 C2222 1.369 . S
C2221 H2287 0.932 . S
C2222 C2221 1.369 . S
C2222 C2223 1.398 . S
C2222 C2226 1.527 . S
C2223 C2222 1.398 . S
C2223 C2224 1.380 . S
C2223 C2237 1.497 . S
C2224 C2223 1.380 . S
C2224 C2225 1.383 . S
C2224 C2227 1.603 . S
C2225 C2220 1.377 . S
C2225 C2224 1.383 . S
C2225 H2288 0.929 . S
C2226 C2222 1.527 . S
C2226 H2289 0.961 . S
C2226 H2290 0.959 . S
C2226 H2291 0.959 . S
C2227 C2224 1.603 . S
C2227 H2292 0.960 . S
C2227 H2293 0.962 . S
C2227 H2294 0.961 . S
C2228 C2195 1.587 . S
C2228 C2229 1.360 . S
C2228 C2241 1.412 . S
C2229 C2228 1.360 . S
C2229 C2230 1.365 . S
C2229 H2295 0.929 . S
C2230 C2205 1.553 . S
C2230 C2229 1.365 . S
C2230 C2231 1.404 . S
C2231 C2230 1.404 . S
C2231 C2232 1.395 . S
C2231 C2242 1.451 . S
C2232 C2231 1.395 . S
C2232 C2233 1.322 . S
C2232 H2296 0.930 . S
C2233 C2232 1.322 . S
C2233 C2234 1.459 . S
C2233 H2297 0.929 . S
C2234 C2233 1.459 . S
C2234 C2235 1.445 . S
C2234 C2243 1.395 . S
C2235 C2213 1.432 . S
C2235 C2234 1.445 . S
C2235 C2236 1.370 . S
C2236 C2235 1.370 . S
C2236 C2237 1.438 . S
C2236 H2298 0.930 . S
C2237 C2223 1.497 . S
C2237 C2236 1.438 . S
C2237 C2238 1.360 . S
C2238 C2237 1.360 . S
C2238 C2239 1.401 . S
C2238 C2243 1.446 . S
C2239 C2238 1.401 . S
C2239 C2240 1.347 . S
C2239 H2299 0.929 . S
C2240 C2239 1.347 . S
C2240 C2241 1.455 . S
C2240 H2300 0.930 . S
C2241 C2228 1.412 . S
C2241 C2240 1.455 . S
C2241 C2242 1.331 . S
C2242 C2231 1.451 . S
C2242 C2241 1.331 . S
C2242 C2243 1.497 . S
C2243 C2234 1.395 . S
C2243 C2238 1.446 . S
C2243 C2242 1.497 . S
C2244 C2245 1.582 . S
C2244 H2301 0.962 . S
C2244 H2302 0.959 . S
C2244 H2303 0.958 . S
C2245 C2244 1.582 . S
C2245 O2248 1.458 . S
C2245 H2274 0.980 . S
O2246 C2191 1.426 . S
O2246 C2192 1.334 . S
O2247 C2219 1.412 . S
O2247 C2220 1.393 . S
O2248 C2210 1.435 . S
O2248 C2245 1.458 . S
O2249 C2201 1.468 . S
O2249 C2202 1.408 . S
H2250 C2191 0.980 . S
H2251 C2190 0.959 . S
H2252 C2190 0.959 . S
H2253 C2190 0.960 . S
H2254 C2193 0.929 . S
H2255 C2197 0.929 . S
H2256 C2198 0.959 . S
H2257 C2198 0.961 . S
H2258 C2198 0.961 . S
H2259 C2199 0.960 . S
H2260 C2199 0.960 . S
H2261 C2199 0.961 . S
H2262 C2201 0.980 . S
H2263 C2200 0.961 . S
H2264 C2200 0.960 . S
H2265 C2200 0.959 . S
H2266 C2203 0.930 . S
H2267 C2207 0.931 . S
H2268 C2208 0.959 . S
H2269 C2208 0.961 . S
H2270 C2208 0.959 . S
H2271 C2209 0.960 . S
H2272 C2209 0.960 . S
H2273 C2209 0.960 . S
H2274 C2245 0.980 . S
H2275 C2211 0.930 . S
H2276 C2215 0.930 . S
H2277 C2216 0.961 . S
H2278 C2216 0.960 . S
H2279 C2216 0.958 . S
H2280 C2217 0.961 . S
H2281 C2217 0.960 . S
H2282 C2217 0.960 . S
H2283 C2219 0.980 . S
H2284 C2218 0.961 . S
H2285 C2218 0.961 . S
H2286 C2218 0.959 . S
H2287 C2221 0.932 . S
H2288 C2225 0.929 . S
H2289 C2226 0.961 . S
H2290 C2226 0.959 . S
H2291 C2226 0.959 . S
H2292 C2227 0.960 . S
H2293 C2227 0.962 . S
H2294 C2227 0.961 . S
H2295 C2229 0.929 . S
H2296 C2232 0.930 . S
H2297 C2233 0.929 . S
H2298 C2236 0.930 . S
H2299 C2239 0.929 . S
H2300 C2240 0.930 . S
H2301 C2244 0.962 . S
H2302 C2244 0.959 . S
H2303 C2244 0.958 . S
C2304 C2305 1.355 . S
C2304 C2306 1.327 . S
C2304 H2329 0.950 . S
C2305 C2304 1.355 . S
C2305 C2321 1.334 1_455 S
C2306 C2304 1.327 . S
C2306 C2325 1.429 1_455 S
C2306 H2330 0.950 . S
C2307 C2324 1.574 . S
C2307 C2326 1.368 . S
C2307 H2331 0.949 . S
H2308 C2312 0.959 . S
C2309 C2310 1.349 . S
C2309 C2311 1.327 . S
C2309 H2332 0.950 . S
C2310 C2309 1.349 . S
C2310 C2322 1.349 . S
C2311 C2309 1.327 . S
C2311 C2327 1.429 . S
C2311 H2333 0.950 . S
C2312 H2308 0.959 . S
C2312 C2320 1.592 . S
C2312 C2328 1.341 1_455 S
H2313 C2321 0.950 . S
H2314 C2319 0.950 . S
H2315 C2320 0.949 . S
H2316 C2322 0.950 1_455 S
H2317 C2323 0.950 1_455 S
H2318 C2324 0.949 . S
C2319 H2314 0.950 . S
C2319 C2321 1.327 . S
C2319 C2325 1.429 . S
C2320 C2312 1.592 . S
C2320 H2315 0.949 . S
C2320 C2326 1.368 1_455 S
C2321 C2305 1.334 1_655 S
C2321 H2313 0.950 . S
C2321 C2319 1.327 . S
C2322 C2310 1.349 . S
C2322 H2316 0.950 1_655 S
C2322 C2323 1.327 . S
C2323 H2317 0.950 1_655 S
C2323 C2322 1.327 . S
C2323 C2327 1.429 . S
C2324 C2307 1.574 . S
C2324 H2318 0.949 . S
C2324 C2328 1.368 . S
C2325 C2306 1.429 1_655 S
C2325 C2319 1.429 . S
C2325 C2326 1.523 . S
C2326 C2307 1.368 . S
C2326 C2320 1.368 1_655 S
C2326 C2325 1.523 . S
C2327 C2311 1.429 . S
C2327 C2323 1.429 . S
C2327 C2328 1.523 . S
C2328 C2312 1.341 1_655 S
C2328 C2324 1.368 . S
C2328 C2327 1.523 . S
H2329 C2304 0.950 . S
H2330 C2306 0.950 . S
H2331 C2307 0.949 . S
H2332 C2309 0.950 . S
H2333 C2311 0.950 . S
C2334 C2335 1.349 . S
C2334 C2336 1.327 . S
C2334 H2359 0.950 . S
C2335 C2334 1.349 . S
C2335 C2351 1.349 . S
C2336 C2334 1.327 . S
C2336 C2355 1.429 . S
C2336 H2360 0.950 . S
C2337 C2354 1.574 . S
C2337 C2356 1.368 . S
C2337 H2361 0.949 . S
H2338 C2342 0.949 . S
C2339 C2340 1.349 . S
C2339 C2341 1.327 . S
C2339 H2362 0.950 . S
C2340 C2339 1.349 . S
C2340 C2352 1.349 . S
C2341 C2339 1.327 . S
C2341 C2357 1.429 . S
C2341 H2363 0.950 . S
C2342 H2338 0.949 . S
C2342 C2350 1.574 . S
C2342 C2358 1.368 . S
H2343 C2351 0.950 . S
H2344 C2349 0.950 . S
H2345 C2350 0.949 . S
H2346 C2352 0.950 . S
H2347 C2353 0.950 . S
H2348 C2354 0.949 . S
C2349 H2344 0.950 . S
C2349 C2351 1.327 . S
C2349 C2355 1.429 . S
C2350 C2342 1.574 . S
C2350 H2345 0.949 . S
C2350 C2356 1.368 . S
C2351 C2335 1.349 . S
C2351 H2343 0.950 . S
C2351 C2349 1.327 . S
C2352 C2340 1.349 . S
C2352 H2346 0.950 . S
C2352 C2353 1.327 . S
C2353 H2347 0.950 . S
C2353 C2352 1.327 . S
C2353 C2357 1.429 . S
C2354 C2337 1.574 . S
C2354 H2348 0.949 . S
C2354 C2358 1.368 . S
C2355 C2336 1.429 . S
C2355 C2349 1.429 . S
C2355 C2356 1.523 . S
C2356 C2337 1.368 . S
C2356 C2350 1.368 . S
C2356 C2355 1.523 . S
C2357 C2341 1.429 . S
C2357 C2353 1.429 . S
C2357 C2358 1.523 . S
C2358 C2342 1.368 . S
C2358 C2354 1.368 . S
C2358 C2357 1.523 . S
H2359 C2334 0.950 . S
H2360 C2336 0.950 . S
H2361 C2337 0.949 . S
H2362 C2339 0.950 . S
H2363 C2341 0.950 . S
C2364 C2365 1.349 . S
C2364 C2366 1.335 . S
C2364 H2389 0.950 1_545 S
C2365 C2364 1.349 . S
C2365 C2381 1.349 . S
C2366 C2364 1.335 . S
C2366 C2385 1.438 . S
C2366 H2390 0.932 1_545 S
C2367 C2384 1.574 . S
C2367 C2386 1.368 . S
C2367 H2391 0.949 . S
H2368 C2372 0.949 . S
C2369 C2370 1.349 . S
C2369 C2371 1.327 . S
C2369 H2392 0.950 . S
C2370 C2369 1.349 . S
C2370 C2382 1.349 1_545 S
C2371 C2369 1.327 . S
C2371 C2387 1.429 . S
C2371 H2393 0.950 . S
C2372 H2368 0.949 . S
C2372 C2380 1.574 . S
C2372 C2388 1.368 1_565 S
H2373 C2381 0.950 . S
H2374 C2379 0.950 . S
H2375 C2380 0.949 . S
H2376 C2382 0.950 . S
H2377 C2383 0.950 . S
H2378 C2384 0.949 . S
C2379 H2374 0.950 . S
C2379 C2381 1.327 . S
C2379 C2385 1.429 . S
C2380 C2372 1.574 . S
C2380 H2375 0.949 . S
C2380 C2386 1.368 1_565 S
C2381 C2365 1.349 . S
C2381 H2373 0.950 . S
C2381 C2379 1.327 . S
C2382 C2370 1.349 1_565 S
C2382 H2376 0.950 . S
C2382 C2383 1.327 . S
C2383 H2377 0.950 . S
C2383 C2382 1.327 . S
C2383 C2387 1.429 1_565 S
C2384 C2367 1.574 . S
C2384 H2378 0.949 . S
C2384 C2388 1.368 . S
C2385 C2366 1.438 . S
C2385 C2379 1.429 . S
C2385 C2386 1.523 . S
C2386 C2367 1.368 . S
C2386 C2380 1.368 1_545 S
C2386 C2385 1.523 . S
C2387 C2371 1.429 . S
C2387 C2383 1.429 1_545 S
C2387 C2388 1.523 . S
C2388 C2372 1.368 1_545 S
C2388 C2384 1.368 . S
C2388 C2387 1.523 . S
H2389 C2364 0.950 1_565 S
H2390 C2366 0.932 1_565 S
H2391 C2367 0.949 . S
H2392 C2369 0.950 . S
H2393 C2371 0.950 . S
C2394 C2395 1.335 1_545 S
C2394 C2396 1.327 . S
C2394 H2419 0.950 . S
C2395 C2394 1.335 1_565 S
C2395 C2411 1.386 . S
C2396 C2394 1.327 . S
C2396 C2415 1.429 1_545 S
C2396 H2420 0.950 . S
C2397 C2414 1.574 . S
C2397 C2416 1.368 . S
C2397 H2421 0.949 . S
H2398 C2402 0.949 . S
C2399 C2400 1.349 . S
C2399 C2401 1.327 . S
C2399 H2422 0.950 . S
C2400 C2399 1.349 . S
C2400 C2412 1.349 1_565 S
C2401 C2399 1.327 . S
C2401 C2417 1.429 . S
C2401 H2423 0.950 . S
C2402 H2398 0.949 . S
C2402 C2410 1.574 . S
C2402 C2418 1.368 1_545 S
H2403 C2411 0.950 . S
H2404 C2409 0.950 . S
H2405 C2410 0.949 . S
H2406 C2412 0.950 . S
H2407 C2413 0.950 . S
H2408 C2414 0.949 . S
C2409 H2404 0.950 . S
C2409 C2411 1.327 . S
C2409 C2415 1.429 . S
C2410 C2402 1.574 . S
C2410 H2405 0.949 . S
C2410 C2416 1.368 1_545 S
C2411 C2395 1.386 . S
C2411 H2403 0.950 . S
C2411 C2409 1.327 . S
C2412 C2400 1.349 1_545 S
C2412 H2406 0.950 . S
C2412 C2413 1.327 . S
C2413 H2407 0.950 . S
C2413 C2412 1.327 . S
C2413 C2417 1.429 1_545 S
C2414 C2397 1.574 . S
C2414 H2408 0.949 . S
C2414 C2418 1.368 . S
C2415 C2396 1.429 1_565 S
C2415 C2409 1.429 . S
C2415 C2416 1.523 . S
C2416 C2397 1.368 . S
C2416 C2410 1.368 1_565 S
C2416 C2415 1.523 . S
C2417 C2401 1.429 . S
C2417 C2413 1.429 1_565 S
C2417 C2418 1.523 . S
C2418 C2402 1.368 1_565 S
C2418 C2414 1.368 . S
C2418 C2417 1.523 . S
H2419 C2394 0.950 . S
H2420 C2396 0.950 . S
H2421 C2397 0.949 . S
H2422 C2399 0.950 . S
H2423 C2401 0.950 . S
C2424 C2425 1.349 . S
C2424 C2426 1.327 . S
C2424 H2449 0.950 . S
C2425 C2424 1.349 . S
C2425 C2441 1.349 . S
C2426 C2424 1.327 . S
C2426 C2445 1.429 . S
C2426 H2450 0.950 . S
C2427 C2444 1.574 . S
C2427 C2446 1.368 . S
C2427 H2451 0.949 . S
H2428 C2432 0.949 . S
C2429 C2430 1.349 . S
C2429 C2431 1.327 . S
C2429 H2452 0.950 . S
C2430 C2429 1.349 . S
C2430 C2442 1.349 . S
C2431 C2429 1.327 . S
C2431 C2447 1.429 . S
C2431 H2453 0.950 . S
C2432 H2428 0.949 . S
C2432 C2440 1.574 . S
C2432 C2448 1.368 . S
H2433 C2441 0.950 . S
H2434 C2439 0.950 . S
H2435 C2440 0.949 . S
H2436 C2442 0.967 . S
H2437 C2443 0.950 . S
H2438 C2444 0.949 . S
C2439 H2434 0.950 . S
C2439 C2441 1.327 . S
C2439 C2445 1.429 . S
C2440 C2432 1.574 . S
C2440 H2435 0.949 . S
C2440 C2446 1.368 . S
C2441 C2425 1.349 . S
C2441 H2433 0.950 . S
C2441 C2439 1.327 . S
C2442 C2430 1.349 . S
C2442 H2436 0.967 . S
C2442 C2443 1.327 . S
C2443 H2437 0.950 . S
C2443 C2442 1.327 . S
C2443 C2447 1.429 . S
C2444 C2427 1.574 . S
C2444 H2438 0.949 . S
C2444 C2448 1.368 . S
C2445 C2426 1.429 . S
C2445 C2439 1.429 . S
C2445 C2446 1.523 . S
C2446 C2427 1.368 . S
C2446 C2440 1.368 . S
C2446 C2445 1.523 . S
C2447 C2431 1.429 . S
C2447 C2443 1.429 . S
C2447 C2448 1.523 . S
C2448 C2432 1.368 . S
C2448 C2444 1.368 . S
C2448 C2447 1.523 . S
H2449 C2424 0.950 . S
H2450 C2426 0.950 . S
H2451 C2427 0.949 . S
H2452 C2429 0.950 . S
H2453 C2431 0.950 . S
C2454 C2455 1.349 . S
C2454 C2456 1.327 . S
C2454 H2479 0.950 . S
C2455 C2454 1.349 . S
C2455 C2471 1.349 . S
C2456 C2454 1.327 . S
C2456 C2475 1.429 . S
C2456 H2480 0.950 . S
C2457 C2474 1.574 . S
C2457 C2476 1.368 . S
C2457 H2481 0.949 . S
H2458 C2462 0.949 . S
C2459 C2460 1.349 . S
C2459 C2461 1.327 . S
C2459 H2482 0.950 . S
C2460 C2459 1.349 . S
C2460 C2472 1.349 . S
C2461 C2459 1.327 . S
C2461 C2477 1.429 . S
C2461 H2483 0.950 . S
C2462 H2458 0.949 . S
C2462 C2470 1.574 . S
C2462 C2478 1.368 . S
H2463 C2471 0.950 . S
H2464 C2469 0.950 . S
H2465 C2470 0.949 . S
H2466 C2472 0.950 . S
H2467 C2473 0.950 . S
H2468 C2474 0.949 . S
C2469 H2464 0.950 . S
C2469 C2471 1.327 . S
C2469 C2475 1.429 . S
C2470 C2462 1.574 . S
C2470 H2465 0.949 . S
C2470 C2476 1.368 . S
C2471 C2455 1.349 . S
C2471 H2463 0.950 . S
C2471 C2469 1.327 . S
C2472 C2460 1.349 . S
C2472 H2466 0.950 . S
C2472 C2473 1.327 . S
C2473 H2467 0.950 . S
C2473 C2472 1.327 . S
C2473 C2477 1.429 . S
C2474 C2457 1.574 . S
C2474 H2468 0.949 . S
C2474 C2478 1.368 . S
C2475 C2456 1.429 . S
C2475 C2469 1.429 . S
C2475 C2476 1.523 . S
C2476 C2457 1.368 . S
C2476 C2470 1.368 . S
C2476 C2475 1.523 . S
C2477 C2461 1.429 . S
C2477 C2473 1.429 . S
C2477 C2478 1.523 . S
C2478 C2462 1.368 . S
C2478 C2474 1.368 . S
C2478 C2477 1.523 . S
H2479 C2454 0.950 . S
H2480 C2456 0.950 . S
H2481 C2457 0.949 . S
H2482 C2459 0.950 . S
H2483 C2461 0.950 . S
C2484 C2485 1.349 . S
C2484 C2486 1.327 . S
C2484 H2509 0.950 . S
C2485 C2484 1.349 . S
C2485 C2501 1.350 1_455 S
C2486 C2484 1.327 . S
C2486 C2505 1.429 . S
C2486 H2510 0.950 . S
C2487 C2504 1.574 . S
C2487 C2506 1.368 1_655 S
C2487 H2511 0.949 . S
H2488 C2492 0.949 . S
C2489 C2490 1.330 1_655 S
C2489 C2491 1.327 . S
C2489 H2512 0.950 . S
C2490 C2489 1.330 1_455 S
C2490 C2502 1.350 . S
C2491 C2489 1.327 . S
C2491 C2507 1.429 1_655 S
C2491 H2513 0.950 . S
C2492 H2488 0.949 . S
C2492 C2500 1.574 . S
C2492 C2508 1.368 . S
H2493 C2501 0.964 . S
H2494 C2499 0.950 . S
H2495 C2500 0.949 . S
H2496 C2502 0.950 . S
H2497 C2503 0.950 . S
H2498 C2504 0.949 . S
C2499 H2494 0.950 . S
C2499 C2501 1.314 . S
C2499 C2505 1.429 1_655 S
C2500 C2492 1.574 . S
C2500 H2495 0.949 . S
C2500 C2506 1.368 . S
C2501 C2485 1.350 1_655 S
C2501 H2493 0.964 . S
C2501 C2499 1.314 . S
C2502 C2490 1.350 . S
C2502 H2496 0.950 . S
C2502 C2503 1.327 . S
C2503 H2497 0.950 . S
C2503 C2502 1.327 . S
C2503 C2507 1.429 . S
C2504 C2487 1.574 . S
C2504 H2498 0.949 . S
C2504 C2508 1.368 1_655 S
C2505 C2486 1.429 . S
C2505 C2499 1.429 1_455 S
C2505 C2506 1.523 . S
C2506 C2487 1.368 1_455 S
C2506 C2500 1.368 . S
C2506 C2505 1.523 . S
C2507 C2491 1.429 1_455 S
C2507 C2503 1.429 . S
C2507 C2508 1.523 . S
C2508 C2492 1.368 . S
C2508 C2504 1.368 1_455 S
C2508 C2507 1.523 . S
H2509 C2484 0.950 . S
H2510 C2486 0.950 . S
H2511 C2487 0.949 . S
H2512 C2489 0.950 . S
H2513 C2491 0.950 . S
C2514 C2515 1.349 . S
C2514 C2516 1.327 . S
C2514 H2539 0.950 . S
C2515 C2514 1.349 . S
C2515 C2531 1.349 . S
C2516 C2514 1.327 . S
C2516 C2535 1.429 . S
C2516 H2540 0.950 . S
C2517 C2534 1.574 . S
C2517 C2536 1.368 . S
C2517 H2541 0.949 . S
H2518 C2522 0.949 . S
C2519 C2520 1.349 . S
C2519 C2521 1.327 . S
C2519 H2542 0.950 . S
C2520 C2519 1.349 . S
C2520 C2532 1.349 . S
C2521 C2519 1.327 . S
C2521 C2537 1.429 . S
C2521 H2543 0.950 . S
C2522 H2518 0.949 . S
C2522 C2530 1.574 . S
C2522 C2538 1.368 . S
H2523 C2531 0.950 . S
H2524 C2529 0.950 . S
H2525 C2530 0.949 . S
H2526 C2532 0.950 . S
H2527 C2533 0.950 . S
H2528 C2534 0.949 . S
C2529 H2524 0.950 . S
C2529 C2531 1.327 . S
C2529 C2535 1.429 . S
C2530 C2522 1.574 . S
C2530 H2525 0.949 . S
C2530 C2536 1.368 . S
C2531 C2515 1.349 . S
C2531 H2523 0.950 . S
C2531 C2529 1.327 . S
C2532 C2520 1.349 . S
C2532 H2526 0.950 . S
C2532 C2533 1.327 . S
C2533 H2527 0.950 . S
C2533 C2532 1.327 . S
C2533 C2537 1.429 . S
C2534 C2517 1.574 . S
C2534 H2528 0.949 . S
C2534 C2538 1.368 . S
C2535 C2516 1.429 . S
C2535 C2529 1.429 . S
C2535 C2536 1.523 . S
C2536 C2517 1.368 . S
C2536 C2530 1.368 . S
C2536 C2535 1.523 . S
C2537 C2521 1.429 . S
C2537 C2533 1.429 . S
C2537 C2538 1.523 . S
C2538 C2522 1.368 . S
C2538 C2534 1.368 . S
C2538 C2537 1.523 . S
H2539 C2514 0.950 . S
H2540 C2516 0.950 . S
H2541 C2517 0.949 . S
H2542 C2519 0.950 . S
H2543 C2521 0.950 . S
C2544 C2545 1.349 1_545 S
C2544 C2546 1.327 . S
C2544 H2569 0.950 . S
C2545 C2544 1.349 1_565 S
C2545 C2561 1.349 . S
C2546 C2544 1.327 . S
C2546 C2565 1.429 1_545 S
C2546 H2570 0.950 . S
C2547 C2564 1.574 . S
C2547 C2566 1.368 . S
C2547 H2571 0.949 . S
H2548 C2552 0.949 . S
C2549 C2550 1.349 . S
C2549 C2551 1.327 . S
C2549 H2572 0.950 . S
C2550 C2549 1.349 . S
C2550 C2562 1.349 1_565 S
C2551 C2549 1.327 . S
C2551 C2567 1.429 . S
C2551 H2573 0.950 . S
C2552 H2548 0.949 . S
C2552 C2560 1.574 . S
C2552 C2568 1.368 1_545 S
H2553 C2561 0.950 . S
H2554 C2559 0.950 . S
H2555 C2560 0.949 . S
H2556 C2562 0.950 . S
H2557 C2563 0.950 . S
H2558 C2564 0.949 . S
C2559 H2554 0.950 . S
C2559 C2561 1.327 . S
C2559 C2565 1.429 . S
C2560 C2552 1.574 . S
C2560 H2555 0.949 . S
C2560 C2566 1.368 1_545 S
C2561 C2545 1.349 . S
C2561 H2553 0.950 . S
C2561 C2559 1.327 . S
C2562 C2550 1.349 1_545 S
C2562 H2556 0.950 . S
C2562 C2563 1.327 . S
C2563 H2557 0.950 . S
C2563 C2562 1.327 . S
C2563 C2567 1.429 1_545 S
C2564 C2547 1.574 . S
C2564 H2558 0.949 . S
C2564 C2568 1.368 . S
C2565 C2546 1.429 1_565 S
C2565 C2559 1.429 . S
C2565 C2566 1.523 . S
C2566 C2547 1.368 . S
C2566 C2560 1.368 1_565 S
C2566 C2565 1.523 . S
C2567 C2551 1.429 . S
C2567 C2563 1.429 1_565 S
C2567 C2568 1.523 . S
C2568 C2552 1.368 1_565 S
C2568 C2564 1.368 . S
C2568 C2567 1.523 . S
H2569 C2544 0.950 . S
H2570 C2546 0.950 . S
H2571 C2547 0.949 . S
H2572 C2549 0.950 . S
H2573 C2551 0.950 . S
C2574 C2575 1.349 . S
C2574 C2576 1.327 . S
C2574 H2599 0.950 . S
C2575 C2574 1.349 . S
C2575 C2591 1.349 1_545 S
C2576 C2574 1.327 . S
C2576 C2595 1.429 . S
C2576 H2600 0.950 . S
C2577 C2594 1.574 . S
C2577 C2596 1.368 1_565 S
C2577 H2601 0.949 . S
H2578 C2582 0.949 . S
C2579 C2580 1.287 1_565 S
C2579 C2581 1.327 . S
C2579 H2602 0.950 . S
C2580 C2579 1.287 1_545 S
C2580 C2592 1.388 . S
C2581 C2579 1.327 . S
C2581 C2597 1.429 1_565 S
C2581 H2603 0.950 . S
C2582 H2578 0.949 . S
C2582 C2590 1.574 . S
C2582 C2598 1.368 . S
H2583 C2591 0.950 . S
H2584 C2589 0.950 . S
H2585 C2590 0.949 . S
H2586 C2592 0.950 . S
H2587 C2593 0.950 . S
H2588 C2594 0.949 . S
C2589 H2584 0.950 . S
C2589 C2591 1.327 . S
C2589 C2595 1.429 1_565 S
C2590 C2582 1.574 . S
C2590 H2585 0.949 . S
C2590 C2596 1.368 . S
C2591 C2575 1.349 1_565 S
C2591 H2583 0.950 . S
C2591 C2589 1.327 . S
C2592 C2580 1.388 . S
C2592 H2586 0.950 . S
C2592 C2593 1.327 . S
C2593 H2587 0.950 . S
C2593 C2592 1.327 . S
C2593 C2597 1.429 . S
C2594 C2577 1.574 . S
C2594 H2588 0.949 . S
C2594 C2598 1.368 1_565 S
C2595 C2576 1.429 . S
C2595 C2589 1.429 1_545 S
C2595 C2596 1.523 . S
C2596 C2577 1.368 1_545 S
C2596 C2590 1.368 . S
C2596 C2595 1.523 . S
C2597 C2581 1.429 1_545 S
C2597 C2593 1.429 . S
C2597 C2598 1.523 . S
C2598 C2582 1.368 . S
C2598 C2594 1.368 1_545 S
C2598 C2597 1.523 . S
H2599 C2574 0.950 . S
H2600 C2576 0.950 . S
H2601 C2577 0.949 . S
H2602 C2579 0.950 . S
H2603 C2581 0.950 . S
C2604 C2605 1.349 . S
C2604 C2606 1.327 . S
C2604 H2629 0.950 . S
C2605 C2604 1.349 . S
C2605 C2621 1.349 . S
C2606 C2604 1.327 . S
C2606 C2625 1.429 . S
C2606 H2630 0.950 . S
C2607 C2624 1.574 . S
C2607 C2626 1.368 . S
C2607 H2631 0.949 . S
H2608 C2612 0.949 . S
C2609 C2610 1.367 . S
C2609 C2611 1.361 . S
C2609 H2632 0.902 1_655 S
C2610 C2609 1.367 . S
C2610 C2622 1.349 . S
C2611 C2609 1.361 . S
C2611 C2627 1.429 . S
C2611 H2633 0.955 . S
C2612 H2608 0.949 . S
C2612 C2620 1.574 . S
C2612 C2628 1.368 . S
H2613 C2621 0.950 . S
H2614 C2619 0.950 . S
H2615 C2620 0.949 . S
H2616 C2622 0.950 . S
H2617 C2623 0.950 . S
H2618 C2624 0.990 . S
C2619 H2614 0.950 . S
C2619 C2621 1.327 . S
C2619 C2625 1.429 . S
C2620 C2612 1.574 . S
C2620 H2615 0.949 . S
C2620 C2626 1.368 . S
C2621 C2605 1.349 . S
C2621 H2613 0.950 . S
C2621 C2619 1.327 . S
C2622 C2610 1.349 . S
C2622 H2616 0.950 . S
C2622 C2623 1.327 . S
C2623 H2617 0.950 . S
C2623 C2622 1.327 . S
C2623 C2627 1.429 . S
C2624 C2607 1.574 . S
C2624 H2618 0.990 . S
C2624 C2628 1.368 . S
C2625 C2606 1.429 . S
C2625 C2619 1.429 . S
C2625 C2626 1.523 . S
C2626 C2607 1.368 . S
C2626 C2620 1.368 . S
C2626 C2625 1.523 . S
C2627 C2611 1.429 . S
C2627 C2623 1.429 . S
C2627 C2628 1.523 . S
C2628 C2612 1.368 . S
C2628 C2624 1.368 . S
C2628 C2627 1.523 . S
H2629 C2604 0.950 . S
H2630 C2606 0.950 . S
H2631 C2607 0.949 . S
H2632 C2609 0.902 1_455 S
H2633 C2611 0.955 . S
C2634 C2635 1.349 . S
C2634 C2636 1.327 . S
C2634 H2659 0.950 . S
C2635 C2634 1.349 . S
C2635 C2651 1.349 . S
C2636 C2634 1.327 . S
C2636 C2655 1.429 . S
C2636 H2660 0.950 . S
C2637 C2654 1.574 . S
C2637 C2656 1.368 . S
C2637 H2661 0.949 . S
H2638 C2642 0.949 . S
C2639 C2640 1.349 . S
C2639 C2641 1.327 . S
C2639 H2662 0.950 . S
C2640 C2639 1.349 . S
C2640 C2652 1.349 . S
C2641 C2639 1.327 . S
C2641 C2657 1.429 . S
C2641 H2663 0.950 . S
C2642 H2638 0.949 . S
C2642 C2650 1.574 . S
C2642 C2658 1.368 . S
H2643 C2651 0.950 . S
H2644 C2649 0.950 . S
H2645 C2650 0.949 . S
H2646 C2652 0.950 . S
H2647 C2653 0.950 . S
H2648 C2654 0.949 . S
C2649 H2644 0.950 . S
C2649 C2651 1.327 . S
C2649 C2655 1.429 . S
C2650 C2642 1.574 . S
C2650 H2645 0.949 . S
C2650 C2656 1.368 . S
C2651 C2635 1.349 . S
C2651 H2643 0.950 . S
C2651 C2649 1.327 . S
C2652 C2640 1.349 . S
C2652 H2646 0.950 . S
C2652 C2653 1.327 . S
C2653 H2647 0.950 . S
C2653 C2652 1.327 . S
C2653 C2657 1.429 . S
C2654 C2637 1.574 . S
C2654 H2648 0.949 . S
C2654 C2658 1.368 . S
C2655 C2636 1.429 . S
C2655 C2649 1.429 . S
C2655 C2656 1.523 . S
C2656 C2637 1.368 . S
C2656 C2650 1.368 . S
C2656 C2655 1.523 . S
C2657 C2641 1.429 . S
C2657 C2653 1.429 . S
C2657 C2658 1.523 . S
C2658 C2642 1.368 . S
C2658 C2654 1.368 . S
C2658 C2657 1.523 . S
H2659 C2634 0.950 . S
H2660 C2636 0.950 . S
H2661 C2637 0.949 . S
H2662 C2639 0.950 . S
H2663 C2641 0.950 . S
C2664 C2665 1.349 . S
C2664 C2666 1.327 . S
C2664 H2689 0.950 . S
C2665 C2664 1.349 . S
C2665 C2681 1.349 . S
C2666 C2664 1.327 . S
C2666 C2685 1.429 . S
C2666 H2690 0.950 . S
C2667 C2684 1.574 . S
C2667 C2686 1.368 . S
C2667 H2691 0.949 . S
H2668 C2672 0.949 . S
C2669 C2670 1.349 . S
C2669 C2671 1.327 . S
C2669 H2692 0.950 . S
C2670 C2669 1.349 . S
C2670 C2682 1.349 . S
C2671 C2669 1.327 . S
C2671 C2687 1.429 . S
C2671 H2693 0.950 . S
C2672 H2668 0.949 . S
C2672 C2680 1.574 . S
C2672 C2688 1.368 . S
H2673 C2681 0.950 . S
H2674 C2679 0.950 . S
H2675 C2680 0.949 . S
H2676 C2682 0.950 . S
H2677 C2683 0.950 . S
H2678 C2684 0.949 . S
C2679 H2674 0.950 . S
C2679 C2681 1.327 . S
C2679 C2685 1.429 . S
C2680 C2672 1.574 . S
C2680 H2675 0.949 . S
C2680 C2686 1.368 . S
C2681 C2665 1.349 . S
C2681 H2673 0.950 . S
C2681 C2679 1.327 . S
C2682 C2670 1.349 . S
C2682 H2676 0.950 . S
C2682 C2683 1.327 . S
C2683 H2677 0.950 . S
C2683 C2682 1.327 . S
C2683 C2687 1.429 . S
C2684 C2667 1.574 . S
C2684 H2678 0.949 . S
C2684 C2688 1.368 . S
C2685 C2666 1.429 . S
C2685 C2679 1.429 . S
C2685 C2686 1.523 . S
C2686 C2667 1.368 . S
C2686 C2680 1.368 . S
C2686 C2685 1.523 . S
C2687 C2671 1.429 . S
C2687 C2683 1.429 . S
C2687 C2688 1.523 . S
C2688 C2672 1.368 . S
C2688 C2684 1.368 . S
C2688 C2687 1.523 . S
H2689 C2664 0.950 . S
H2690 C2666 0.950 . S
H2691 C2667 0.949 . S
H2692 C2669 0.950 . S
H2693 C2671 0.950 . S
C2694 C2695 1.349 . S
C2694 C2696 1.327 . S
C2694 H2719 0.950 . S
C2695 C2694 1.349 . S
C2695 C2711 1.349 . S
C2696 C2694 1.327 . S
C2696 C2715 1.429 . S
C2696 H2720 0.950 . S
C2697 C2714 1.574 . S
C2697 C2716 1.368 . S
C2697 H2721 0.949 . S
H2698 C2702 0.949 . S
C2699 C2700 1.349 . S
C2699 C2701 1.327 . S
C2699 H2722 0.950 . S
C2700 C2699 1.349 . S
C2700 C2712 1.349 . S
C2701 C2699 1.327 . S
C2701 C2717 1.429 . S
C2701 H2723 0.950 . S
C2702 H2698 0.949 . S
C2702 C2710 1.574 . S
C2702 C2718 1.368 . S
H2703 C2711 0.950 . S
H2704 C2709 0.950 . S
H2705 C2710 0.949 . S
H2706 C2712 0.950 . S
H2707 C2713 0.950 . S
H2708 C2714 0.949 . S
C2709 H2704 0.950 . S
C2709 C2711 1.327 . S
C2709 C2715 1.429 . S
C2710 C2702 1.574 . S
C2710 H2705 0.949 . S
C2710 C2716 1.368 . S
C2711 C2695 1.349 . S
C2711 H2703 0.950 . S
C2711 C2709 1.327 . S
C2712 C2700 1.349 . S
C2712 H2706 0.950 . S
C2712 C2713 1.327 . S
C2713 H2707 0.950 . S
C2713 C2712 1.327 . S
C2713 C2717 1.429 . S
C2714 C2697 1.574 . S
C2714 H2708 0.949 . S
C2714 C2718 1.368 . S
C2715 C2696 1.429 . S
C2715 C2709 1.429 . S
C2715 C2716 1.523 . S
C2716 C2697 1.368 . S
C2716 C2710 1.368 . S
C2716 C2715 1.523 . S
C2717 C2701 1.429 . S
C2717 C2713 1.429 . S
C2717 C2718 1.523 . S
C2718 C2702 1.368 . S
C2718 C2714 1.368 . S
C2718 C2717 1.523 . S
H2719 C2694 0.950 . S
H2720 C2696 0.950 . S
H2721 C2697 0.949 . S
H2722 C2699 0.950 . S
H2723 C2701 0.950 . S
C2724 C2725 1.349 . S
C2724 C2726 1.327 . S
C2724 H2749 0.950 . S
C2725 C2724 1.349 . S
C2725 C2741 1.349 . S
C2726 C2724 1.327 . S
C2726 C2745 1.429 . S
C2726 H2750 0.950 . S
C2727 C2744 1.574 . S
C2727 C2746 1.368 . S
C2727 H2751 0.949 . S
H2728 C2732 0.949 . S
C2729 C2730 1.349 . S
C2729 C2731 1.327 . S
C2729 H2752 0.950 . S
C2730 C2729 1.349 . S
C2730 C2742 1.349 . S
C2731 C2729 1.327 . S
C2731 C2747 1.429 . S
C2731 H2753 0.950 . S
C2732 H2728 0.949 . S
C2732 C2740 1.574 . S
C2732 C2748 1.368 . S
H2733 C2741 0.950 . S
H2734 C2739 0.950 . S
H2735 C2740 0.949 . S
H2736 C2742 0.950 . S
H2737 C2743 0.950 . S
H2738 C2744 0.949 . S
C2739 H2734 0.950 . S
C2739 C2741 1.327 . S
C2739 C2745 1.429 . S
C2740 C2732 1.574 . S
C2740 H2735 0.949 . S
C2740 C2746 1.368 . S
C2741 C2725 1.349 . S
C2741 H2733 0.950 . S
C2741 C2739 1.327 . S
C2742 C2730 1.349 . S
C2742 H2736 0.950 . S
C2742 C2743 1.327 . S
C2743 H2737 0.950 . S
C2743 C2742 1.327 . S
C2743 C2747 1.429 . S
C2744 C2727 1.574 . S
C2744 H2738 0.949 . S
C2744 C2748 1.368 . S
C2745 C2726 1.429 . S
C2745 C2739 1.429 . S
C2745 C2746 1.523 . S
C2746 C2727 1.368 . S
C2746 C2740 1.368 . S
C2746 C2745 1.523 . S
C2747 C2731 1.429 . S
C2747 C2743 1.429 . S
C2747 C2748 1.523 . S
C2748 C2732 1.368 . S
C2748 C2744 1.368 . S
C2748 C2747 1.523 . S
H2749 C2724 0.950 . S
H2750 C2726 0.950 . S
H2751 C2727 0.949 . S
H2752 C2729 0.950 . S
H2753 C2731 0.950 . S
C2754 C2755 1.349 . S
C2754 C2756 1.327 . S
C2754 H2779 0.950 . S
C2755 C2754 1.349 . S
C2755 C2771 1.349 . S
C2756 C2754 1.327 . S
C2756 C2775 1.429 . S
C2756 H2780 0.950 . S
C2757 C2774 1.574 . S
C2757 C2776 1.368 . S
C2757 H2781 0.949 . S
H2758 C2762 0.949 . S
C2759 C2760 1.349 . S
C2759 C2761 1.327 . S
C2759 H2782 0.950 . S
C2760 C2759 1.349 . S
C2760 C2772 1.349 . S
C2761 C2759 1.327 . S
C2761 C2777 1.429 . S
C2761 H2783 0.950 . S
C2762 H2758 0.949 . S
C2762 C2770 1.574 . S
C2762 C2778 1.368 . S
H2763 C2771 0.950 . S
H2764 C2769 0.950 . S
H2765 C2770 0.949 . S
H2766 C2772 0.950 . S
H2767 C2773 0.950 . S
H2768 C2774 0.949 . S
C2769 H2764 0.950 . S
C2769 C2771 1.327 . S
C2769 C2775 1.429 . S
C2770 C2762 1.574 . S
C2770 H2765 0.949 . S
C2770 C2776 1.368 . S
C2771 C2755 1.349 . S
C2771 H2763 0.950 . S
C2771 C2769 1.327 . S
C2772 C2760 1.349 . S
C2772 H2766 0.950 . S
C2772 C2773 1.327 . S
C2773 H2767 0.950 . S
C2773 C2772 1.327 . S
C2773 C2777 1.429 . S
C2774 C2757 1.574 . S
C2774 H2768 0.949 . S
C2774 C2778 1.368 . S
C2775 C2756 1.429 . S
C2775 C2769 1.429 . S
C2775 C2776 1.523 . S
C2776 C2757 1.368 . S
C2776 C2770 1.368 . S
C2776 C2775 1.523 . S
C2777 C2761 1.429 . S
C2777 C2773 1.429 . S
C2777 C2778 1.523 . S
C2778 C2762 1.368 . S
C2778 C2774 1.368 . S
C2778 C2777 1.523 . S
H2779 C2754 0.950 . S
H2780 C2756 0.950 . S
H2781 C2757 0.949 . S
H2782 C2759 0.950 . S
H2783 C2761 0.950 . S
C2784 C2785 1.349 . S
C2784 C2786 1.327 . S
C2784 H2809 0.950 . S
C2785 C2784 1.349 . S
C2785 C2801 1.349 . S
C2786 C2784 1.327 . S
C2786 C2805 1.429 . S
C2786 H2810 0.950 . S
C2787 C2804 1.574 . S
C2787 C2806 1.368 . S
C2787 H2811 0.949 . S
H2788 C2792 0.949 . S
C2789 C2790 1.349 . S
C2789 C2791 1.327 . S
C2789 H2812 0.950 . S
C2790 C2789 1.349 . S
C2790 C2802 1.349 . S
C2791 C2789 1.327 . S
C2791 C2807 1.429 . S
C2791 H2813 0.950 . S
C2792 H2788 0.949 . S
C2792 C2800 1.574 . S
C2792 C2808 1.368 . S
H2793 C2801 0.950 . S
H2794 C2799 0.950 . S
H2795 C2800 0.949 . S
H2796 C2802 0.950 . S
H2797 C2803 0.950 . S
H2798 C2804 0.949 . S
C2799 H2794 0.950 . S
C2799 C2801 1.327 . S
C2799 C2805 1.429 . S
C2800 C2792 1.574 . S
C2800 H2795 0.949 . S
C2800 C2806 1.368 . S
C2801 C2785 1.349 . S
C2801 H2793 0.950 . S
C2801 C2799 1.327 . S
C2802 C2790 1.349 . S
C2802 H2796 0.950 . S
C2802 C2803 1.327 . S
C2803 H2797 0.950 . S
C2803 C2802 1.327 . S
C2803 C2807 1.429 . S
C2804 C2787 1.574 . S
C2804 H2798 0.949 . S
C2804 C2808 1.368 . S
C2805 C2786 1.429 . S
C2805 C2799 1.429 . S
C2805 C2806 1.523 . S
C2806 C2787 1.368 . S
C2806 C2800 1.368 . S
C2806 C2805 1.523 . S
C2807 C2791 1.429 . S
C2807 C2803 1.429 . S
C2807 C2808 1.523 . S
C2808 C2792 1.368 . S
C2808 C2804 1.368 . S
C2808 C2807 1.523 . S
H2809 C2784 0.950 . S
H2810 C2786 0.950 . S
H2811 C2787 0.949 . S
H2812 C2789 0.950 . S
H2813 C2791 0.950 . S
C2814 C2815 1.349 . S
C2814 C2816 1.327 . S
C2814 H2839 0.950 . S
C2815 C2814 1.349 . S
C2815 C2831 1.349 . S
C2816 C2814 1.327 . S
C2816 C2835 1.429 . S
C2816 H2840 0.950 . S
C2817 C2834 1.574 . S
C2817 C2836 1.368 . S
C2817 H2841 0.949 . S
H2818 C2822 0.949 . S
C2819 C2820 1.349 . S
C2819 C2821 1.327 . S
C2819 H2842 0.950 . S
C2820 C2819 1.349 . S
C2820 C2832 1.349 . S
C2821 C2819 1.327 . S
C2821 C2837 1.429 . S
C2821 H2843 0.950 . S
C2822 H2818 0.949 . S
C2822 C2830 1.574 . S
C2822 C2838 1.368 . S
H2823 C2831 0.950 . S
H2824 C2829 0.950 . S
H2825 C2830 0.949 . S
H2826 C2832 0.950 . S
H2827 C2833 0.950 . S
H2828 C2834 0.949 . S
C2829 H2824 0.950 . S
C2829 C2831 1.327 . S
C2829 C2835 1.429 . S
C2830 C2822 1.574 . S
C2830 H2825 0.949 . S
C2830 C2836 1.368 . S
C2831 C2815 1.349 . S
C2831 H2823 0.950 . S
C2831 C2829 1.327 . S
C2832 C2820 1.349 . S
C2832 H2826 0.950 . S
C2832 C2833 1.327 . S
C2833 H2827 0.950 . S
C2833 C2832 1.327 . S
C2833 C2837 1.429 . S
C2834 C2817 1.574 . S
C2834 H2828 0.949 . S
C2834 C2838 1.368 . S
C2835 C2816 1.429 . S
C2835 C2829 1.429 . S
C2835 C2836 1.523 . S
C2836 C2817 1.368 . S
C2836 C2830 1.368 . S
C2836 C2835 1.523 . S
C2837 C2821 1.429 . S
C2837 C2833 1.429 . S
C2837 C2838 1.523 . S
C2838 C2822 1.368 . S
C2838 C2834 1.368 . S
C2838 C2837 1.523 . S
H2839 C2814 0.950 . S
H2840 C2816 0.950 . S
H2841 C2817 0.949 . S
H2842 C2819 0.950 . S
H2843 C2821 0.950 . S
C2844 C2845 1.349 . S
C2844 C2846 1.327 . S
C2844 H2869 0.950 . S
C2845 C2844 1.349 . S
C2845 C2861 1.349 . S
C2846 C2844 1.327 . S
C2846 C2865 1.429 . S
C2846 H2870 0.950 . S
C2847 C2864 1.574 . S
C2847 C2866 1.368 . S
C2847 H2871 0.949 . S
H2848 C2852 0.949 . S
C2849 C2850 1.349 . S
C2849 C2851 1.327 . S
C2849 H2872 0.950 . S
C2850 C2849 1.349 . S
C2850 C2862 1.349 . S
C2851 C2849 1.327 . S
C2851 C2867 1.429 . S
C2851 H2873 0.950 . S
C2852 H2848 0.949 . S
C2852 C2860 1.574 . S
C2852 C2868 1.368 . S
H2853 C2861 0.950 . S
H2854 C2859 0.950 . S
H2855 C2860 0.949 . S
H2856 C2862 0.950 . S
H2857 C2863 0.950 . S
H2858 C2864 0.949 . S
C2859 H2854 0.950 . S
C2859 C2861 1.327 . S
C2859 C2865 1.429 . S
C2860 C2852 1.574 . S
C2860 H2855 0.949 . S
C2860 C2866 1.368 . S
C2861 C2845 1.349 . S
C2861 H2853 0.950 . S
C2861 C2859 1.327 . S
C2862 C2850 1.349 . S
C2862 H2856 0.950 . S
C2862 C2863 1.327 . S
C2863 H2857 0.950 . S
C2863 C2862 1.327 . S
C2863 C2867 1.429 . S
C2864 C2847 1.574 . S
C2864 H2858 0.949 . S
C2864 C2868 1.368 . S
C2865 C2846 1.429 . S
C2865 C2859 1.429 . S
C2865 C2866 1.523 . S
C2866 C2847 1.368 . S
C2866 C2860 1.368 . S
C2866 C2865 1.523 . S
C2867 C2851 1.429 . S
C2867 C2863 1.429 . S
C2867 C2868 1.523 . S
C2868 C2852 1.368 . S
C2868 C2864 1.368 . S
C2868 C2867 1.523 . S
H2869 C2844 0.950 . S
H2870 C2846 0.950 . S
H2871 C2847 0.949 . S
H2872 C2849 0.950 . S
H2873 C2851 0.950 . S
C2874 C2875 1.349 . S
C2874 C2876 1.327 . S
C2874 H2899 0.950 . S
C2875 C2874 1.349 . S
C2875 C2891 1.349 . S
C2876 C2874 1.327 . S
C2876 C2895 1.429 . S
C2876 H2900 0.950 . S
C2877 C2894 1.574 . S
C2877 C2896 1.368 . S
C2877 H2901 0.949 . S
H2878 C2882 0.949 . S
C2879 C2880 1.349 . S
C2879 C2881 1.327 . S
C2879 H2902 0.950 . S
C2880 C2879 1.349 . S
C2880 C2892 1.349 . S
C2881 C2879 1.327 . S
C2881 C2897 1.429 . S
C2881 H2903 0.950 . S
C2882 H2878 0.949 . S
C2882 C2890 1.574 . S
C2882 C2898 1.368 . S
H2883 C2891 0.950 . S
H2884 C2889 0.950 . S
H2885 C2890 0.949 . S
H2886 C2892 0.950 . S
H2887 C2893 0.950 . S
H2888 C2894 0.949 . S
C2889 H2884 0.950 . S
C2889 C2891 1.327 . S
C2889 C2895 1.429 . S
C2890 C2882 1.574 . S
C2890 H2885 0.949 . S
C2890 C2896 1.368 . S
C2891 C2875 1.349 . S
C2891 H2883 0.950 . S
C2891 C2889 1.327 . S
C2892 C2880 1.349 . S
C2892 H2886 0.950 . S
C2892 C2893 1.327 . S
C2893 H2887 0.950 . S
C2893 C2892 1.327 . S
C2893 C2897 1.429 . S
C2894 C2877 1.574 . S
C2894 H2888 0.949 . S
C2894 C2898 1.368 . S
C2895 C2876 1.429 . S
C2895 C2889 1.429 . S
C2895 C2896 1.523 . S
C2896 C2877 1.368 . S
C2896 C2890 1.368 . S
C2896 C2895 1.523 . S
C2897 C2881 1.429 . S
C2897 C2893 1.429 . S
C2897 C2898 1.523 . S
C2898 C2882 1.368 . S
C2898 C2894 1.368 . S
C2898 C2897 1.523 . S
H2899 C2874 0.950 . S
H2900 C2876 0.950 . S
H2901 C2877 0.949 . S
H2902 C2879 0.950 . S
H2903 C2881 0.950 . S
C2904 C2905 1.349 . S
C2904 C2906 1.327 . S
C2904 H2929 0.950 . S
C2905 C2904 1.349 . S
C2905 C2921 1.349 . S
C2906 C2904 1.327 . S
C2906 C2925 1.429 . S
C2906 H2930 0.950 . S
C2907 C2924 1.574 . S
C2907 C2926 1.368 . S
C2907 H2931 0.949 . S
H2908 C2912 0.949 . S
C2909 C2910 1.349 . S
C2909 C2911 1.327 . S
C2909 H2932 0.950 . S
C2910 C2909 1.349 . S
C2910 C2922 1.349 . S
C2911 C2909 1.327 . S
C2911 C2927 1.429 . S
C2911 H2933 0.950 . S
C2912 H2908 0.949 . S
C2912 C2920 1.574 . S
C2912 C2928 1.368 . S
H2913 C2921 0.950 . S
H2914 C2919 0.950 . S
H2915 C2920 0.949 . S
H2916 C2922 0.950 . S
H2917 C2923 0.950 . S
H2918 C2924 0.949 . S
C2919 H2914 0.950 . S
C2919 C2921 1.327 . S
C2919 C2925 1.429 . S
C2920 C2912 1.574 . S
C2920 H2915 0.949 . S
C2920 C2926 1.368 . S
C2921 C2905 1.349 . S
C2921 H2913 0.950 . S
C2921 C2919 1.327 . S
C2922 C2910 1.349 . S
C2922 H2916 0.950 . S
C2922 C2923 1.327 . S
C2923 H2917 0.950 . S
C2923 C2922 1.327 . S
C2923 C2927 1.429 . S
C2924 C2907 1.574 . S
C2924 H2918 0.949 . S
C2924 C2928 1.368 . S
C2925 C2906 1.429 . S
C2925 C2919 1.429 . S
C2925 C2926 1.523 . S
C2926 C2907 1.368 . S
C2926 C2920 1.368 . S
C2926 C2925 1.523 . S
C2927 C2911 1.429 . S
C2927 C2923 1.429 . S
C2927 C2928 1.523 . S
C2928 C2912 1.368 . S
C2928 C2924 1.368 . S
C2928 C2927 1.523 . S
H2929 C2904 0.950 . S
H2930 C2906 0.950 . S
H2931 C2907 0.949 . S
H2932 C2909 0.950 . S
H2933 C2911 0.950 . S
C2934 C2935 1.349 . S
C2934 C2936 1.327 . S
C2934 H2959 0.950 . S
C2935 C2934 1.349 . S
C2935 C2951 1.349 . S
C2936 C2934 1.327 . S
C2936 C2955 1.429 . S
C2936 H2960 0.950 . S
C2937 C2954 1.574 . S
C2937 C2956 1.368 . S
C2937 H2961 0.949 . S
H2938 C2942 0.949 . S
C2939 C2940 1.349 . S
C2939 C2941 1.327 . S
C2939 H2962 0.950 . S
C2940 C2939 1.349 . S
C2940 C2952 1.349 . S
C2941 C2939 1.327 . S
C2941 C2957 1.429 . S
C2941 H2963 0.950 . S
C2942 H2938 0.949 . S
C2942 C2950 1.574 . S
C2942 C2958 1.368 . S
H2943 C2951 0.950 . S
H2944 C2949 0.950 . S
H2945 C2950 0.949 . S
H2946 C2952 0.950 . S
H2947 C2953 0.950 . S
H2948 C2954 0.949 . S
C2949 H2944 0.950 . S
C2949 C2951 1.327 . S
C2949 C2955 1.429 . S
C2950 C2942 1.574 . S
C2950 H2945 0.949 . S
C2950 C2956 1.368 . S
C2951 C2935 1.349 . S
C2951 H2943 0.950 . S
C2951 C2949 1.327 . S
C2952 C2940 1.349 . S
C2952 H2946 0.950 . S
C2952 C2953 1.327 . S
C2953 H2947 0.950 . S
C2953 C2952 1.327 . S
C2953 C2957 1.429 . S
C2954 C2937 1.574 . S
C2954 H2948 0.949 . S
C2954 C2958 1.368 . S
C2955 C2936 1.429 . S
C2955 C2949 1.429 . S
C2955 C2956 1.523 . S
C2956 C2937 1.368 . S
C2956 C2950 1.368 . S
C2956 C2955 1.523 . S
C2957 C2941 1.429 . S
C2957 C2953 1.429 . S
C2957 C2958 1.523 . S
C2958 C2942 1.368 . S
C2958 C2954 1.368 . S
C2958 C2957 1.523 . S
H2959 C2934 0.950 . S
H2960 C2936 0.950 . S
H2961 C2937 0.949 . S
H2962 C2939 0.950 . S
H2963 C2941 0.950 . S
C2964 C2965 1.349 . S
C2964 C2966 1.327 . S
C2964 H2989 0.950 . S
C2965 C2964 1.349 . S
C2965 C2981 1.349 . S
C2966 C2964 1.327 . S
C2966 C2985 1.429 . S
C2966 H2990 0.950 . S
C2967 C2984 1.574 . S
C2967 C2986 1.368 . S
C2967 H2991 0.949 . S
H2968 C2972 0.949 . S
C2969 C2970 1.349 . S
C2969 C2971 1.327 . S
C2969 H2992 0.950 . S
C2970 C2969 1.349 . S
C2970 C2982 1.349 . S
C2971 C2969 1.327 . S
C2971 C2987 1.429 . S
C2971 H2993 0.950 . S
C2972 H2968 0.949 . S
C2972 C2980 1.574 . S
C2972 C2988 1.368 . S
H2973 C2981 0.950 . S
H2974 C2979 0.950 . S
H2975 C2980 0.949 . S
H2976 C2982 0.950 . S
H2977 C2983 0.950 . S
H2978 C2984 0.949 . S
C2979 H2974 0.950 . S
C2979 C2981 1.327 . S
C2979 C2985 1.429 . S
C2980 C2972 1.574 . S
C2980 H2975 0.949 . S
C2980 C2986 1.368 . S
C2981 C2965 1.349 . S
C2981 H2973 0.950 . S
C2981 C2979 1.327 . S
C2982 C2970 1.349 . S
C2982 H2976 0.950 . S
C2982 C2983 1.327 . S
C2983 H2977 0.950 . S
C2983 C2982 1.327 . S
C2983 C2987 1.429 . S
C2984 C2967 1.574 . S
C2984 H2978 0.949 . S
C2984 C2988 1.368 . S
C2985 C2966 1.429 . S
C2985 C2979 1.429 . S
C2985 C2986 1.523 . S
C2986 C2967 1.368 . S
C2986 C2980 1.368 . S
C2986 C2985 1.523 . S
C2987 C2971 1.429 . S
C2987 C2983 1.429 . S
C2987 C2988 1.523 . S
C2988 C2972 1.368 . S
C2988 C2984 1.368 . S
C2988 C2987 1.523 . S
H2989 C2964 0.950 . S
H2990 C2966 0.950 . S
H2991 C2967 0.949 . S
H2992 C2969 0.950 . S
H2993 C2971 0.950 . S
C2994 C2995 1.349 . S
C2994 C2996 1.327 . S
C2994 H3019 0.950 . S
C2995 C2994 1.349 . S
C2995 C3011 1.349 . S
C2996 C2994 1.327 . S
C2996 C3015 1.429 . S
C2996 H3020 0.950 . S
C2997 C3014 1.574 . S
C2997 C3016 1.368 . S
C2997 H3021 0.949 . S
H2998 C3002 0.949 . S
C2999 C3000 1.349 . S
C2999 C3001 1.327 . S
C2999 H3022 0.950 . S
C3000 C2999 1.349 . S
C3000 C3012 1.349 . S
C3001 C2999 1.327 . S
C3001 C3017 1.429 . S
C3001 H3023 0.950 . S
C3002 H2998 0.949 . S
C3002 C3010 1.574 . S
C3002 C3018 1.368 . S
H3003 C3011 0.950 . S
H3004 C3009 0.950 . S
H3005 C3010 0.949 . S
H3006 C3012 0.950 . S
H3007 C3013 0.950 . S
H3008 C3014 0.949 . S
C3009 H3004 0.950 . S
C3009 C3011 1.327 . S
C3009 C3015 1.429 . S
C3010 C3002 1.574 . S
C3010 H3005 0.949 . S
C3010 C3016 1.368 . S
C3011 C2995 1.349 . S
C3011 H3003 0.950 . S
C3011 C3009 1.327 . S
C3012 C3000 1.349 . S
C3012 H3006 0.950 . S
C3012 C3013 1.327 . S
C3013 H3007 0.950 . S
C3013 C3012 1.327 . S
C3013 C3017 1.429 . S
C3014 C2997 1.574 . S
C3014 H3008 0.949 . S
C3014 C3018 1.368 . S
C3015 C2996 1.429 . S
C3015 C3009 1.429 . S
C3015 C3016 1.523 . S
C3016 C2997 1.368 . S
C3016 C3010 1.368 . S
C3016 C3015 1.523 . S
C3017 C3001 1.429 . S
C3017 C3013 1.429 . S
C3017 C3018 1.523 . S
C3018 C3002 1.368 . S
C3018 C3014 1.368 . S
C3018 C3017 1.523 . S
H3019 C2994 0.950 . S
H3020 C2996 0.950 . S
H3021 C2997 0.949 . S
H3022 C2999 0.950 . S
H3023 C3001 0.950 . S
C3024 C3025 1.349 . S
C3024 C3026 1.327 . S
C3024 H3049 0.950 . S
C3025 C3024 1.349 . S
C3025 C3041 1.349 . S
C3026 C3024 1.327 . S
C3026 C3045 1.429 . S
C3026 H3050 0.950 . S
C3027 C3044 1.574 . S
C3027 C3046 1.368 . S
C3027 H3051 0.949 . S
H3028 C3032 0.949 . S
C3029 C3030 1.349 . S
C3029 C3031 1.327 . S
C3029 H3052 0.950 . S
C3030 C3029 1.349 . S
C3030 C3042 1.349 . S
C3031 C3029 1.327 . S
C3031 C3047 1.429 . S
C3031 H3053 0.950 . S
C3032 H3028 0.949 . S
C3032 C3040 1.574 . S
C3032 C3048 1.368 . S
H3033 C3041 0.950 . S
H3034 C3039 0.950 . S
H3035 C3040 0.949 . S
H3036 C3042 0.950 . S
H3037 C3043 0.950 . S
H3038 C3044 0.949 . S
C3039 H3034 0.950 . S
C3039 C3041 1.327 . S
C3039 C3045 1.429 . S
C3040 C3032 1.574 . S
C3040 H3035 0.949 . S
C3040 C3046 1.368 . S
C3041 C3025 1.349 . S
C3041 H3033 0.950 . S
C3041 C3039 1.327 . S
C3042 C3030 1.349 . S
C3042 H3036 0.950 . S
C3042 C3043 1.327 . S
C3043 H3037 0.950 . S
C3043 C3042 1.327 . S
C3043 C3047 1.429 . S
C3044 C3027 1.574 . S
C3044 H3038 0.949 . S
C3044 C3048 1.368 . S
C3045 C3026 1.429 . S
C3045 C3039 1.429 . S
C3045 C3046 1.523 . S
C3046 C3027 1.368 . S
C3046 C3040 1.368 . S
C3046 C3045 1.523 . S
C3047 C3031 1.429 . S
C3047 C3043 1.429 . S
C3047 C3048 1.523 . S
C3048 C3032 1.368 . S
C3048 C3044 1.368 . S
C3048 C3047 1.523 . S
H3049 C3024 0.950 . S
H3050 C3026 0.950 . S
H3051 C3027 0.949 . S
H3052 C3029 0.950 . S
H3053 C3031 0.950 . S
C3054 C3055 1.349 . S
C3054 C3056 1.327 . S
C3054 H3079 0.950 . S
C3055 C3054 1.349 . S
C3055 C3071 1.349 . S
C3056 C3054 1.327 . S
C3056 C3075 1.429 . S
C3056 H3080 0.950 . S
C3057 C3074 1.574 . S
C3057 C3076 1.368 . S
C3057 H3081 0.949 . S
H3058 C3062 0.949 . S
C3059 C3060 1.349 . S
C3059 C3061 1.327 . S
C3059 H3082 0.950 . S
C3060 C3059 1.349 . S
C3060 C3072 1.349 . S
C3061 C3059 1.327 . S
C3061 C3077 1.429 . S
C3061 H3083 0.950 . S
C3062 H3058 0.949 . S
C3062 C3070 1.574 . S
C3062 C3078 1.368 . S
H3063 C3071 0.950 . S
H3064 C3069 0.950 . S
H3065 C3070 0.949 . S
H3066 C3072 0.950 . S
H3067 C3073 0.950 . S
H3068 C3074 0.949 . S
C3069 H3064 0.950 . S
C3069 C3071 1.327 . S
C3069 C3075 1.429 . S
C3070 C3062 1.574 . S
C3070 H3065 0.949 . S
C3070 C3076 1.368 . S
C3071 C3055 1.349 . S
C3071 H3063 0.950 . S
C3071 C3069 1.327 . S
C3072 C3060 1.349 . S
C3072 H3066 0.950 . S
C3072 C3073 1.327 . S
C3073 H3067 0.950 . S
C3073 C3072 1.327 . S
C3073 C3077 1.429 . S
C3074 C3057 1.574 . S
C3074 H3068 0.949 . S
C3074 C3078 1.368 . S
C3075 C3056 1.429 . S
C3075 C3069 1.429 . S
C3075 C3076 1.523 . S
C3076 C3057 1.368 . S
C3076 C3070 1.368 . S
C3076 C3075 1.523 . S
C3077 C3061 1.429 . S
C3077 C3073 1.429 . S
C3077 C3078 1.523 . S
C3078 C3062 1.368 . S
C3078 C3074 1.368 . S
C3078 C3077 1.523 . S
H3079 C3054 0.950 . S
H3080 C3056 0.950 . S
H3081 C3057 0.949 . S
H3082 C3059 0.950 . S
H3083 C3061 0.950 . S
C3084 C3085 1.349 . S
C3084 C3086 1.327 . S
C3084 H3109 0.950 . S
C3085 C3084 1.349 . S
C3085 C3101 1.349 . S
C3086 C3084 1.327 . S
C3086 C3105 1.429 . S
C3086 H3110 0.950 . S
C3087 C3104 1.574 . S
C3087 C3106 1.368 . S
C3087 H3111 0.949 . S
H3088 C3092 0.949 . S
C3089 C3090 1.349 . S
C3089 C3091 1.327 . S
C3089 H3112 0.950 . S
C3090 C3089 1.349 . S
C3090 C3102 1.349 . S
C3091 C3089 1.327 . S
C3091 C3107 1.429 . S
C3091 H3113 0.950 . S
C3092 H3088 0.949 . S
C3092 C3100 1.574 . S
C3092 C3108 1.368 . S
H3093 C3101 0.950 . S
H3094 C3099 0.950 . S
H3095 C3100 0.949 . S
H3096 C3102 0.950 . S
H3097 C3103 0.950 . S
H3098 C3104 0.949 . S
C3099 H3094 0.950 . S
C3099 C3101 1.327 . S
C3099 C3105 1.429 . S
C3100 C3092 1.574 . S
C3100 H3095 0.949 . S
C3100 C3106 1.368 . S
C3101 C3085 1.349 . S
C3101 H3093 0.950 . S
C3101 C3099 1.327 . S
C3102 C3090 1.349 . S
C3102 H3096 0.950 . S
C3102 C3103 1.327 . S
C3103 H3097 0.950 . S
C3103 C3102 1.327 . S
C3103 C3107 1.429 . S
C3104 C3087 1.574 . S
C3104 H3098 0.949 . S
C3104 C3108 1.368 . S
C3105 C3086 1.429 . S
C3105 C3099 1.429 . S
C3105 C3106 1.523 . S
C3106 C3087 1.368 . S
C3106 C3100 1.368 . S
C3106 C3105 1.523 . S
C3107 C3091 1.429 . S
C3107 C3103 1.429 . S
C3107 C3108 1.523 . S
C3108 C3092 1.368 . S
C3108 C3104 1.368 . S
C3108 C3107 1.523 . S
H3109 C3084 0.950 . S
H3110 C3086 0.950 . S
H3111 C3087 0.949 . S
H3112 C3089 0.950 . S
H3113 C3091 0.950 . S
C3114 C3115 1.349 . S
C3114 C3116 1.327 . S
C3114 H3139 0.950 . S
C3115 C3114 1.349 . S
C3115 C3131 1.349 . S
C3116 C3114 1.327 . S
C3116 C3135 1.429 . S
C3116 H3140 0.950 . S
C3117 C3134 1.574 . S
C3117 C3136 1.368 . S
C3117 H3141 0.949 . S
H3118 C3122 0.949 . S
C3119 C3120 1.349 . S
C3119 C3121 1.327 . S
C3119 H3142 0.950 . S
C3120 C3119 1.349 . S
C3120 C3132 1.349 . S
C3121 C3119 1.327 . S
C3121 C3137 1.429 . S
C3121 H3143 0.950 . S
C3122 H3118 0.949 . S
C3122 C3130 1.574 . S
C3122 C3138 1.368 . S
H3123 C3131 0.950 . S
H3124 C3129 0.950 . S
H3125 C3130 0.949 . S
H3126 C3132 0.950 . S
H3127 C3133 0.950 . S
H3128 C3134 0.949 . S
C3129 H3124 0.950 . S
C3129 C3131 1.327 . S
C3129 C3135 1.429 . S
C3130 C3122 1.574 . S
C3130 H3125 0.949 . S
C3130 C3136 1.368 . S
C3131 C3115 1.349 . S
C3131 H3123 0.950 . S
C3131 C3129 1.327 . S
C3132 C3120 1.349 . S
C3132 H3126 0.950 . S
C3132 C3133 1.327 . S
C3133 H3127 0.950 . S
C3133 C3132 1.327 . S
C3133 C3137 1.429 . S
C3134 C3117 1.574 . S
C3134 H3128 0.949 . S
C3134 C3138 1.368 . S
C3135 C3116 1.429 . S
C3135 C3129 1.429 . S
C3135 C3136 1.523 . S
C3136 C3117 1.368 . S
C3136 C3130 1.368 . S
C3136 C3135 1.523 . S
C3137 C3121 1.429 . S
C3137 C3133 1.429 . S
C3137 C3138 1.523 . S
C3138 C3122 1.368 . S
C3138 C3134 1.368 . S
C3138 C3137 1.523 . S
H3139 C3114 0.950 . S
H3140 C3116 0.950 . S
H3141 C3117 0.949 . S
H3142 C3119 0.950 . S
H3143 C3121 0.950 . S
C3144 C3145 1.349 . S
C3144 C3146 1.327 . S
C3144 H3169 0.950 . S
C3145 C3144 1.349 . S
C3145 C3161 1.349 . S
C3146 C3144 1.327 . S
C3146 C3165 1.429 . S
C3146 H3170 0.950 . S
C3147 C3164 1.574 . S
C3147 C3166 1.368 . S
C3147 H3171 0.949 . S
H3148 C3152 0.949 . S
C3149 C3150 1.349 . S
C3149 C3151 1.327 . S
C3149 H3172 0.950 . S
C3150 C3149 1.349 . S
C3150 C3162 1.349 . S
C3151 C3149 1.327 . S
C3151 C3167 1.429 . S
C3151 H3173 0.950 . S
C3152 H3148 0.949 . S
C3152 C3160 1.574 . S
C3152 C3168 1.368 . S
H3153 C3161 0.950 . S
H3154 C3159 0.950 . S
H3155 C3160 0.949 . S
H3156 C3162 0.950 . S
H3157 C3163 0.950 . S
H3158 C3164 0.949 . S
C3159 H3154 0.950 . S
C3159 C3161 1.327 . S
C3159 C3165 1.429 . S
C3160 C3152 1.574 . S
C3160 H3155 0.949 . S
C3160 C3166 1.368 . S
C3161 C3145 1.349 . S
C3161 H3153 0.950 . S
C3161 C3159 1.327 . S
C3162 C3150 1.349 . S
C3162 H3156 0.950 . S
C3162 C3163 1.327 . S
C3163 H3157 0.950 . S
C3163 C3162 1.327 . S
C3163 C3167 1.429 . S
C3164 C3147 1.574 . S
C3164 H3158 0.949 . S
C3164 C3168 1.368 . S
C3165 C3146 1.429 . S
C3165 C3159 1.429 . S
C3165 C3166 1.523 . S
C3166 C3147 1.368 . S
C3166 C3160 1.368 . S
C3166 C3165 1.523 . S
C3167 C3151 1.429 . S
C3167 C3163 1.429 . S
C3167 C3168 1.523 . S
C3168 C3152 1.368 . S
C3168 C3164 1.368 . S
C3168 C3167 1.523 . S
H3169 C3144 0.950 . S
H3170 C3146 0.950 . S
H3171 C3147 0.949 . S
H3172 C3149 0.950 . S
H3173 C3151 0.950 . S
C3174 C3175 1.349 . S
C3174 C3176 1.327 . S
C3174 H3199 0.950 . S
C3175 C3174 1.349 . S
C3175 C3191 1.349 . S
C3176 C3174 1.327 . S
C3176 C3195 1.429 . S
C3176 H3200 0.950 . S
C3177 C3194 1.574 . S
C3177 C3196 1.368 . S
C3177 H3201 0.949 . S
H3178 C3182 0.949 . S
C3179 C3180 1.349 . S
C3179 C3181 1.327 . S
C3179 H3202 0.950 . S
C3180 C3179 1.349 . S
C3180 C3192 1.349 . S
C3181 C3179 1.327 . S
C3181 C3197 1.429 . S
C3181 H3203 0.950 . S
C3182 H3178 0.949 . S
C3182 C3190 1.574 . S
C3182 C3198 1.368 . S
H3183 C3191 0.950 . S
H3184 C3189 0.950 . S
H3185 C3190 0.949 . S
H3186 C3192 0.950 . S
H3187 C3193 0.950 . S
H3188 C3194 0.949 . S
C3189 H3184 0.950 . S
C3189 C3191 1.327 . S
C3189 C3195 1.429 . S
C3190 C3182 1.574 . S
C3190 H3185 0.949 . S
C3190 C3196 1.368 . S
C3191 C3175 1.349 . S
C3191 H3183 0.950 . S
C3191 C3189 1.327 . S
C3192 C3180 1.349 . S
C3192 H3186 0.950 . S
C3192 C3193 1.327 . S
C3193 H3187 0.950 . S
C3193 C3192 1.327 . S
C3193 C3197 1.429 . S
C3194 C3177 1.574 . S
C3194 H3188 0.949 . S
C3194 C3198 1.368 . S
C3195 C3176 1.429 . S
C3195 C3189 1.429 . S
C3195 C3196 1.523 . S
C3196 C3177 1.368 . S
C3196 C3190 1.368 . S
C3196 C3195 1.523 . S
C3197 C3181 1.429 . S
C3197 C3193 1.429 . S
C3197 C3198 1.523 . S
C3198 C3182 1.368 . S
C3198 C3194 1.368 . S
C3198 C3197 1.523 . S
H3199 C3174 0.950 . S
H3200 C3176 0.950 . S
H3201 C3177 0.949 . S
H3202 C3179 0.950 . S
H3203 C3181 0.950 . S
C3204 C3205 1.349 . S
C3204 C3206 1.327 . S
C3204 H3229 0.950 . S
C3205 C3204 1.349 . S
C3205 C3221 1.349 . S
C3206 C3204 1.327 . S
C3206 C3225 1.429 . S
C3206 H3230 0.950 . S
C3207 C3224 1.574 . S
C3207 C3226 1.368 . S
C3207 H3231 0.949 . S
H3208 C3212 0.949 . S
C3209 C3210 1.349 . S
C3209 C3211 1.327 . S
C3209 H3232 0.950 . S
C3210 C3209 1.349 . S
C3210 C3222 1.349 . S
C3211 C3209 1.327 . S
C3211 C3227 1.429 . S
C3211 H3233 0.950 . S
C3212 H3208 0.949 . S
C3212 C3220 1.574 . S
C3212 C3228 1.368 . S
H3213 C3221 0.950 . S
H3214 C3219 0.950 . S
H3215 C3220 0.949 . S
H3216 C3222 0.950 . S
H3217 C3223 0.950 . S
H3218 C3224 0.949 . S
C3219 H3214 0.950 . S
C3219 C3221 1.327 . S
C3219 C3225 1.429 . S
C3220 C3212 1.574 . S
C3220 H3215 0.949 . S
C3220 C3226 1.368 . S
C3221 C3205 1.349 . S
C3221 H3213 0.950 . S
C3221 C3219 1.327 . S
C3222 C3210 1.349 . S
C3222 H3216 0.950 . S
C3222 C3223 1.327 . S
C3223 H3217 0.950 . S
C3223 C3222 1.327 . S
C3223 C3227 1.429 . S
C3224 C3207 1.574 . S
C3224 H3218 0.949 . S
C3224 C3228 1.368 . S
C3225 C3206 1.429 . S
C3225 C3219 1.429 . S
C3225 C3226 1.523 . S
C3226 C3207 1.368 . S
C3226 C3220 1.368 . S
C3226 C3225 1.523 . S
C3227 C3211 1.429 . S
C3227 C3223 1.429 . S
C3227 C3228 1.523 . S
C3228 C3212 1.368 . S
C3228 C3224 1.368 . S
C3228 C3227 1.523 . S
H3229 C3204 0.950 . S
H3230 C3206 0.950 . S
H3231 C3207 0.949 . S
H3232 C3209 0.950 . S
H3233 C3211 0.950 . S
C3234 C3235 1.349 . S
C3234 C3236 1.327 . S
C3234 H3259 0.950 . S
C3235 C3234 1.349 . S
C3235 C3251 1.349 . S
C3236 C3234 1.327 . S
C3236 C3255 1.429 . S
C3236 H3260 0.950 . S
C3237 C3254 1.574 . S
C3237 C3256 1.368 . S
C3237 H3261 0.949 . S
H3238 C3242 0.949 . S
C3239 C3240 1.349 . S
C3239 C3241 1.327 . S
C3239 H3262 0.950 . S
C3240 C3239 1.349 . S
C3240 C3252 1.349 . S
C3241 C3239 1.327 . S
C3241 C3257 1.429 . S
C3241 H3263 0.950 . S
C3242 H3238 0.949 . S
C3242 C3250 1.574 . S
C3242 C3258 1.368 . S
H3243 C3251 0.950 . S
H3244 C3249 0.950 . S
H3245 C3250 0.949 . S
H3246 C3252 0.950 . S
H3247 C3253 0.950 . S
H3248 C3254 0.949 . S
C3249 H3244 0.950 . S
C3249 C3251 1.327 . S
C3249 C3255 1.429 . S
C3250 C3242 1.574 . S
C3250 H3245 0.949 . S
C3250 C3256 1.368 . S
C3251 C3235 1.349 . S
C3251 H3243 0.950 . S
C3251 C3249 1.327 . S
C3252 C3240 1.349 . S
C3252 H3246 0.950 . S
C3252 C3253 1.327 . S
C3253 H3247 0.950 . S
C3253 C3252 1.327 . S
C3253 C3257 1.429 . S
C3254 C3237 1.574 . S
C3254 H3248 0.949 . S
C3254 C3258 1.368 . S
C3255 C3236 1.429 . S
C3255 C3249 1.429 . S
C3255 C3256 1.523 . S
C3256 C3237 1.368 . S
C3256 C3250 1.368 . S
C3256 C3255 1.523 . S
C3257 C3241 1.429 . S
C3257 C3253 1.429 . S
C3257 C3258 1.523 . S
C3258 C3242 1.368 . S
C3258 C3254 1.368 . S
C3258 C3257 1.523 . S
H3259 C3234 0.950 . S
H3260 C3236 0.950 . S
H3261 C3237 0.949 . S
H3262 C3239 0.950 . S
H3263 C3241 0.950 . S
C3264 C3265 1.349 . S
C3264 C3266 1.327 . S
C3264 H3289 0.950 . S
C3265 C3264 1.349 . S
C3265 C3281 1.349 . S
C3266 C3264 1.327 . S
C3266 C3285 1.429 . S
C3266 H3290 0.950 . S
C3267 C3284 1.574 . S
C3267 C3286 1.368 . S
C3267 H3291 0.949 . S
H3268 C3272 0.949 . S
C3269 C3270 1.349 . S
C3269 C3271 1.327 . S
C3269 H3292 0.950 . S
C3270 C3269 1.349 . S
C3270 C3282 1.349 . S
C3271 C3269 1.327 . S
C3271 C3287 1.429 . S
C3271 H3293 0.950 . S
C3272 H3268 0.949 . S
C3272 C3280 1.574 . S
C3272 C3288 1.368 . S
H3273 C3281 0.950 . S
H3274 C3279 0.950 . S
H3275 C3280 0.949 . S
H3276 C3282 0.950 . S
H3277 C3283 0.950 . S
H3278 C3284 0.949 . S
C3279 H3274 0.950 . S
C3279 C3281 1.327 . S
C3279 C3285 1.429 . S
C3280 C3272 1.574 . S
C3280 H3275 0.949 . S
C3280 C3286 1.368 . S
C3281 C3265 1.349 . S
C3281 H3273 0.950 . S
C3281 C3279 1.327 . S
C3282 C3270 1.349 . S
C3282 H3276 0.950 . S
C3282 C3283 1.327 . S
C3283 H3277 0.950 . S
C3283 C3282 1.327 . S
C3283 C3287 1.429 . S
C3284 C3267 1.574 . S
C3284 H3278 0.949 . S
C3284 C3288 1.368 . S
C3285 C3266 1.429 . S
C3285 C3279 1.429 . S
C3285 C3286 1.523 . S
C3286 C3267 1.368 . S
C3286 C3280 1.368 . S
C3286 C3285 1.523 . S
C3287 C3271 1.429 . S
C3287 C3283 1.429 . S
C3287 C3288 1.523 . S
C3288 C3272 1.368 . S
C3288 C3284 1.368 . S
C3288 C3287 1.523 . S
H3289 C3264 0.950 . S
H3290 C3266 0.950 . S
H3291 C3267 0.949 . S
H3292 C3269 0.950 . S
H3293 C3271 0.950 . S
C3294 C3295 1.349 . S
C3294 C3296 1.327 . S
C3294 H3319 0.950 . S
C3295 C3294 1.349 . S
C3295 C3311 1.349 . S
C3296 C3294 1.327 . S
C3296 C3315 1.429 . S
C3296 H3320 0.950 . S
C3297 C3314 1.574 . S
C3297 C3316 1.368 . S
C3297 H3321 0.949 . S
H3298 C3302 0.949 . S
C3299 C3300 1.349 . S
C3299 C3301 1.327 . S
C3299 H3322 0.950 . S
C3300 C3299 1.349 . S
C3300 C3312 1.349 . S
C3301 C3299 1.327 . S
C3301 C3317 1.429 . S
C3301 H3323 0.950 . S
C3302 H3298 0.949 . S
C3302 C3310 1.574 . S
C3302 C3318 1.368 . S
H3303 C3311 0.950 . S
H3304 C3309 0.950 . S
H3305 C3310 0.949 . S
H3306 C3312 0.950 . S
H3307 C3313 0.950 . S
H3308 C3314 0.949 . S
C3309 H3304 0.950 . S
C3309 C3311 1.327 . S
C3309 C3315 1.429 . S
C3310 C3302 1.574 . S
C3310 H3305 0.949 . S
C3310 C3316 1.368 . S
C3311 C3295 1.349 . S
C3311 H3303 0.950 . S
C3311 C3309 1.327 . S
C3312 C3300 1.349 . S
C3312 H3306 0.950 . S
C3312 C3313 1.327 . S
C3313 H3307 0.950 . S
C3313 C3312 1.327 . S
C3313 C3317 1.429 . S
C3314 C3297 1.574 . S
C3314 H3308 0.949 . S
C3314 C3318 1.368 . S
C3315 C3296 1.429 . S
C3315 C3309 1.429 . S
C3315 C3316 1.523 . S
C3316 C3297 1.368 . S
C3316 C3310 1.368 . S
C3316 C3315 1.523 . S
C3317 C3301 1.429 . S
C3317 C3313 1.429 . S
C3317 C3318 1.523 . S
C3318 C3302 1.368 . S
C3318 C3314 1.368 . S
C3318 C3317 1.523 . S
H3319 C3294 0.950 . S
H3320 C3296 0.950 . S
H3321 C3297 0.949 . S
H3322 C3299 0.950 . S
H3323 C3301 0.950 . S
C3324 C3325 1.349 . S
C3324 C3326 1.327 . S
C3324 H3349 0.950 . S
C3325 C3324 1.349 . S
C3325 C3341 1.349 . S
C3326 C3324 1.327 . S
C3326 C3345 1.429 . S
C3326 H3350 0.950 . S
C3327 C3344 1.574 . S
C3327 C3346 1.368 . S
C3327 H3351 0.949 . S
H3328 C3332 0.949 . S
C3329 C3330 1.349 . S
C3329 C3331 1.327 . S
C3329 H3352 0.950 . S
C3330 C3329 1.349 . S
C3330 C3342 1.349 . S
C3331 C3329 1.327 . S
C3331 C3347 1.429 . S
C3331 H3353 0.950 . S
C3332 H3328 0.949 . S
C3332 C3340 1.574 . S
C3332 C3348 1.368 . S
H3333 C3341 0.950 . S
H3334 C3339 0.950 . S
H3335 C3340 0.949 . S
H3336 C3342 0.950 . S
H3337 C3343 0.950 . S
H3338 C3344 0.949 . S
C3339 H3334 0.950 . S
C3339 C3341 1.327 . S
C3339 C3345 1.429 . S
C3340 C3332 1.574 . S
C3340 H3335 0.949 . S
C3340 C3346 1.368 . S
C3341 C3325 1.349 . S
C3341 H3333 0.950 . S
C3341 C3339 1.327 . S
C3342 C3330 1.349 . S
C3342 H3336 0.950 . S
C3342 C3343 1.327 . S
C3343 H3337 0.950 . S
C3343 C3342 1.327 . S
C3343 C3347 1.429 . S
C3344 C3327 1.574 . S
C3344 H3338 0.949 . S
C3344 C3348 1.368 . S
C3345 C3326 1.429 . S
C3345 C3339 1.429 . S
C3345 C3346 1.523 . S
C3346 C3327 1.368 . S
C3346 C3340 1.368 . S
C3346 C3345 1.523 . S
C3347 C3331 1.429 . S
C3347 C3343 1.429 . S
C3347 C3348 1.523 . S
C3348 C3332 1.368 . S
C3348 C3344 1.368 . S
C3348 C3347 1.523 . S
H3349 C3324 0.950 . S
H3350 C3326 0.950 . S
H3351 C3327 0.949 . S
H3352 C3329 0.950 . S
H3353 C3331 0.950 . S
C3354 C3355 1.349 . S
C3354 C3356 1.327 . S
C3354 H3379 0.950 . S
C3355 C3354 1.349 . S
C3355 C3371 1.349 . S
C3356 C3354 1.327 . S
C3356 C3375 1.429 . S
C3356 H3380 0.950 . S
C3357 C3374 1.574 . S
C3357 C3376 1.368 . S
C3357 H3381 0.949 . S
H3358 C3362 0.949 . S
C3359 C3360 1.349 . S
C3359 C3361 1.327 . S
C3359 H3382 0.950 . S
C3360 C3359 1.349 . S
C3360 C3372 1.349 . S
C3361 C3359 1.327 . S
C3361 C3377 1.429 . S
C3361 H3383 0.950 . S
C3362 H3358 0.949 . S
C3362 C3370 1.574 . S
C3362 C3378 1.368 . S
H3363 C3371 0.950 . S
H3364 C3369 0.950 . S
H3365 C3370 0.949 . S
H3366 C3372 0.950 . S
H3367 C3373 0.950 . S
H3368 C3374 0.949 . S
C3369 H3364 0.950 . S
C3369 C3371 1.327 . S
C3369 C3375 1.429 . S
C3370 C3362 1.574 . S
C3370 H3365 0.949 . S
C3370 C3376 1.368 . S
C3371 C3355 1.349 . S
C3371 H3363 0.950 . S
C3371 C3369 1.327 . S
C3372 C3360 1.349 . S
C3372 H3366 0.950 . S
C3372 C3373 1.327 . S
C3373 H3367 0.950 . S
C3373 C3372 1.327 . S
C3373 C3377 1.429 . S
C3374 C3357 1.574 . S
C3374 H3368 0.949 . S
C3374 C3378 1.368 . S
C3375 C3356 1.429 . S
C3375 C3369 1.429 . S
C3375 C3376 1.523 . S
C3376 C3357 1.368 . S
C3376 C3370 1.368 . S
C3376 C3375 1.523 . S
C3377 C3361 1.429 . S
C3377 C3373 1.429 . S
C3377 C3378 1.523 . S
C3378 C3362 1.368 . S
C3378 C3374 1.368 . S
C3378 C3377 1.523 . S
H3379 C3354 0.950 . S
H3380 C3356 0.950 . S
H3381 C3357 0.949 . S
H3382 C3359 0.950 . S
H3383 C3361 0.950 . S
C3384 C3385 1.349 . S
C3384 C3386 1.327 . S
C3384 H3409 0.950 . S
C3385 C3384 1.349 . S
C3385 C3401 1.349 . S
C3386 C3384 1.327 . S
C3386 C3405 1.429 . S
C3386 H3410 0.950 . S
C3387 C3404 1.574 . S
C3387 C3406 1.368 . S
C3387 H3411 0.949 . S
H3388 C3392 0.949 . S
C3389 C3390 1.349 . S
C3389 C3391 1.327 . S
C3389 H3412 0.950 . S
C3390 C3389 1.349 . S
C3390 C3402 1.349 . S
C3391 C3389 1.327 . S
C3391 C3407 1.429 . S
C3391 H3413 0.950 . S
C3392 H3388 0.949 . S
C3392 C3400 1.574 . S
C3392 C3408 1.368 . S
H3393 C3401 0.950 . S
H3394 C3399 0.950 . S
H3395 C3400 0.949 . S
H3396 C3402 0.950 . S
H3397 C3403 0.950 . S
H3398 C3404 0.949 . S
C3399 H3394 0.950 . S
C3399 C3401 1.327 . S
C3399 C3405 1.429 . S
C3400 C3392 1.574 . S
C3400 H3395 0.949 . S
C3400 C3406 1.368 . S
C3401 C3385 1.349 . S
C3401 H3393 0.950 . S
C3401 C3399 1.327 . S
C3402 C3390 1.349 . S
C3402 H3396 0.950 . S
C3402 C3403 1.327 . S
C3403 H3397 0.950 . S
C3403 C3402 1.327 . S
C3403 C3407 1.429 . S
C3404 C3387 1.574 . S
C3404 H3398 0.949 . S
C3404 C3408 1.368 . S
C3405 C3386 1.429 . S
C3405 C3399 1.429 . S
C3405 C3406 1.523 . S
C3406 C3387 1.368 . S
C3406 C3400 1.368 . S
C3406 C3405 1.523 . S
C3407 C3391 1.429 . S
C3407 C3403 1.429 . S
C3407 C3408 1.523 . S
C3408 C3392 1.368 . S
C3408 C3404 1.368 . S
C3408 C3407 1.523 . S
H3409 C3384 0.950 . S
H3410 C3386 0.950 . S
H3411 C3387 0.949 . S
H3412 C3389 0.950 . S
H3413 C3391 0.950 . S
C3414 C3415 1.349 . S
C3414 C3416 1.327 . S
C3414 H3439 0.950 . S
C3415 C3414 1.349 . S
C3415 C3431 1.349 . S
C3416 C3414 1.327 . S
C3416 C3435 1.429 . S
C3416 H3440 0.950 . S
C3417 C3434 1.574 . S
C3417 C3436 1.368 . S
C3417 H3441 0.949 . S
H3418 C3422 0.949 . S
C3419 C3420 1.349 . S
C3419 C3421 1.327 . S
C3419 H3442 0.950 . S
C3420 C3419 1.349 . S
C3420 C3432 1.349 . S
C3421 C3419 1.327 . S
C3421 C3437 1.429 . S
C3421 H3443 0.950 . S
C3422 H3418 0.949 . S
C3422 C3430 1.574 . S
C3422 C3438 1.368 . S
H3423 C3431 0.950 . S
H3424 C3429 0.950 . S
H3425 C3430 0.949 . S
H3426 C3432 0.950 . S
H3427 C3433 0.950 . S
H3428 C3434 0.949 . S
C3429 H3424 0.950 . S
C3429 C3431 1.327 . S
C3429 C3435 1.429 . S
C3430 C3422 1.574 . S
C3430 H3425 0.949 . S
C3430 C3436 1.368 . S
C3431 C3415 1.349 . S
C3431 H3423 0.950 . S
C3431 C3429 1.327 . S
C3432 C3420 1.349 . S
C3432 H3426 0.950 . S
C3432 C3433 1.327 . S
C3433 H3427 0.950 . S
C3433 C3432 1.327 . S
C3433 C3437 1.429 . S
C3434 C3417 1.574 . S
C3434 H3428 0.949 . S
C3434 C3438 1.368 . S
C3435 C3416 1.429 . S
C3435 C3429 1.429 . S
C3435 C3436 1.523 . S
C3436 C3417 1.368 . S
C3436 C3430 1.368 . S
C3436 C3435 1.523 . S
C3437 C3421 1.429 . S
C3437 C3433 1.429 . S
C3437 C3438 1.523 . S
C3438 C3422 1.368 . S
C3438 C3434 1.368 . S
C3438 C3437 1.523 . S
H3439 C3414 0.950 . S
H3440 C3416 0.950 . S
H3441 C3417 0.949 . S
H3442 C3419 0.950 . S
H3443 C3421 0.950 . S
C3444 C3445 1.349 . S
C3444 C3446 1.327 . S
C3444 H3469 0.950 . S
C3445 C3444 1.349 . S
C3445 C3461 1.349 . S
C3446 C3444 1.327 . S
C3446 C3465 1.429 . S
C3446 H3470 0.950 . S
C3447 C3464 1.574 . S
C3447 C3466 1.368 . S
C3447 H3471 0.949 . S
H3448 C3452 0.949 . S
C3449 C3450 1.349 . S
C3449 C3451 1.327 . S
C3449 H3472 0.950 . S
C3450 C3449 1.349 . S
C3450 C3462 1.349 . S
C3451 C3449 1.327 . S
C3451 C3467 1.429 . S
C3451 H3473 0.950 . S
C3452 H3448 0.949 . S
C3452 C3460 1.574 . S
C3452 C3468 1.368 . S
H3453 C3461 0.950 . S
H3454 C3459 0.950 . S
H3455 C3460 0.949 . S
H3456 C3462 0.950 . S
H3457 C3463 0.950 . S
H3458 C3464 0.949 . S
C3459 H3454 0.950 . S
C3459 C3461 1.327 . S
C3459 C3465 1.429 . S
C3460 C3452 1.574 . S
C3460 H3455 0.949 . S
C3460 C3466 1.368 . S
C3461 C3445 1.349 . S
C3461 H3453 0.950 . S
C3461 C3459 1.327 . S
C3462 C3450 1.349 . S
C3462 H3456 0.950 . S
C3462 C3463 1.327 . S
C3463 H3457 0.950 . S
C3463 C3462 1.327 . S
C3463 C3467 1.429 . S
C3464 C3447 1.574 . S
C3464 H3458 0.949 . S
C3464 C3468 1.368 . S
C3465 C3446 1.429 . S
C3465 C3459 1.429 . S
C3465 C3466 1.523 . S
C3466 C3447 1.368 . S
C3466 C3460 1.368 . S
C3466 C3465 1.523 . S
C3467 C3451 1.429 . S
C3467 C3463 1.429 . S
C3467 C3468 1.523 . S
C3468 C3452 1.368 . S
C3468 C3464 1.368 . S
C3468 C3467 1.523 . S
H3469 C3444 0.950 . S
H3470 C3446 0.950 . S
H3471 C3447 0.949 . S
H3472 C3449 0.950 . S
H3473 C3451 0.950 . S
C3474 C3475 1.349 . S
C3474 C3476 1.327 . S
C3474 H3499 0.950 . S
C3475 C3474 1.349 . S
C3475 C3491 1.349 . S
C3476 C3474 1.327 . S
C3476 C3495 1.429 . S
C3476 H3500 0.950 . S
C3477 C3494 1.574 . S
C3477 C3496 1.368 . S
C3477 H3501 0.949 . S
H3478 C3482 0.949 . S
C3479 C3480 1.349 . S
C3479 C3481 1.327 . S
C3479 H3502 0.950 . S
C3480 C3479 1.349 . S
C3480 C3492 1.349 . S
C3481 C3479 1.327 . S
C3481 C3497 1.429 . S
C3481 H3503 0.950 . S
C3482 H3478 0.949 . S
C3482 C3490 1.574 . S
C3482 C3498 1.368 . S
H3483 C3491 0.891 1_554 S
H3484 C3489 0.950 . S
H3485 C3490 0.949 . S
H3486 C3492 0.950 . S
H3487 C3493 0.950 . S
H3488 C3494 0.949 . S
C3489 H3484 0.950 . S
C3489 C3491 1.327 . S
C3489 C3495 1.429 . S
C3490 C3482 1.574 . S
C3490 H3485 0.949 . S
C3490 C3496 1.368 . S
C3491 C3475 1.349 . S
C3491 H3483 0.891 1_556 S
C3491 C3489 1.327 . S
C3492 C3480 1.349 . S
C3492 H3486 0.950 . S
C3492 C3493 1.327 . S
C3493 H3487 0.950 . S
C3493 C3492 1.327 . S
C3493 C3497 1.429 . S
C3494 C3477 1.574 . S
C3494 H3488 0.949 . S
C3494 C3498 1.368 . S
C3495 C3476 1.429 . S
C3495 C3489 1.429 . S
C3495 C3496 1.523 . S
C3496 C3477 1.368 . S
C3496 C3490 1.368 . S
C3496 C3495 1.523 . S
C3497 C3481 1.429 . S
C3497 C3493 1.429 . S
C3497 C3498 1.523 . S
C3498 C3482 1.368 . S
C3498 C3494 1.368 . S
C3498 C3497 1.523 . S
H3499 C3474 0.950 . S
H3500 C3476 0.950 . S
H3501 C3477 0.949 . S
H3502 C3479 0.950 . S
H3503 C3481 0.950 . S
C3504 C3505 1.349 . S
C3504 C3506 1.327 . S
C3504 H3529 1.026 . S
C3505 C3504 1.349 . S
C3505 C3521 1.349 . S
C3506 C3504 1.327 . S
C3506 C3525 1.429 . S
C3506 H3530 0.950 . S
C3507 C3524 1.574 . S
C3507 C3526 1.368 . S
C3507 H3531 0.949 . S
H3508 C3512 0.949 . S
C3509 C3510 1.349 . S
C3509 C3511 1.327 . S
C3509 H3532 0.950 . S
C3510 C3509 1.349 . S
C3510 C3522 1.349 . S
C3511 C3509 1.327 . S
C3511 C3527 1.429 . S
C3511 H3533 0.950 . S
C3512 H3508 0.949 . S
C3512 C3520 1.574 . S
C3512 C3528 1.368 . S
H3513 C3521 0.950 . S
H3514 C3519 0.950 . S
H3515 C3520 0.949 . S
H3516 C3522 0.950 . S
H3517 C3523 0.950 . S
H3518 C3524 0.949 . S
C3519 H3514 0.950 . S
C3519 C3521 1.327 . S
C3519 C3525 1.429 . S
C3520 C3512 1.574 . S
C3520 H3515 0.949 . S
C3520 C3526 1.368 . S
C3521 C3505 1.349 . S
C3521 H3513 0.950 . S
C3521 C3519 1.327 . S
C3522 C3510 1.349 . S
C3522 H3516 0.950 . S
C3522 C3523 1.327 . S
C3523 H3517 0.950 . S
C3523 C3522 1.327 . S
C3523 C3527 1.429 . S
C3524 C3507 1.574 . S
C3524 H3518 0.949 . S
C3524 C3528 1.368 . S
C3525 C3506 1.429 . S
C3525 C3519 1.429 . S
C3525 C3526 1.523 . S
C3526 C3507 1.368 . S
C3526 C3520 1.368 . S
C3526 C3525 1.523 . S
C3527 C3511 1.429 . S
C3527 C3523 1.429 . S
C3527 C3528 1.523 . S
C3528 C3512 1.368 . S
C3528 C3524 1.368 . S
C3528 C3527 1.523 . S
H3529 C3504 1.026 . S
H3530 C3506 0.950 . S
H3531 C3507 0.949 . S
H3532 C3509 0.950 . S
H3533 C3511 0.950 . S
C3534 C3535 1.349 . S
C3534 C3536 1.327 . S
C3534 H3559 0.950 1_556 S
C3535 C3534 1.349 . S
C3535 C3551 1.349 . S
C3536 C3534 1.327 . S
C3536 C3555 1.429 . S
C3536 H3560 0.950 . S
C3537 C3554 1.574 . S
C3537 C3556 1.368 . S
C3537 H3561 0.949 . S
H3538 C3542 0.949 . S
C3539 C3540 1.349 . S
C3539 C3541 1.327 . S
C3539 H3562 0.950 . S
C3540 C3539 1.349 . S
C3540 C3552 1.349 . S
C3541 C3539 1.327 . S
C3541 C3557 1.429 . S
C3541 H3563 0.950 . S
C3542 H3538 0.949 . S
C3542 C3550 1.574 . S
C3542 C3558 1.368 . S
H3543 C3551 0.950 . S
H3544 C3549 0.950 . S
H3545 C3550 0.949 . S
H3546 C3552 0.950 . S
H3547 C3553 0.950 . S
H3548 C3554 0.949 . S
C3549 H3544 0.950 . S
C3549 C3551 1.327 . S
C3549 C3555 1.429 . S
C3550 C3542 1.574 . S
C3550 H3545 0.949 . S
C3550 C3556 1.368 . S
C3551 C3535 1.349 . S
C3551 H3543 0.950 . S
C3551 C3549 1.327 . S
C3552 C3540 1.349 . S
C3552 H3546 0.950 . S
C3552 C3553 1.327 . S
C3553 H3547 0.950 . S
C3553 C3552 1.327 . S
C3553 C3557 1.429 . S
C3554 C3537 1.574 . S
C3554 H3548 0.949 . S
C3554 C3558 1.368 . S
C3555 C3536 1.429 . S
C3555 C3549 1.429 . S
C3555 C3556 1.523 . S
C3556 C3537 1.368 . S
C3556 C3550 1.368 . S
C3556 C3555 1.523 . S
C3557 C3541 1.429 . S
C3557 C3553 1.429 . S
C3557 C3558 1.523 . S
C3558 C3542 1.368 . S
C3558 C3554 1.368 . S
C3558 C3557 1.523 . S
H3559 C3534 0.950 1_554 S
H3560 C3536 0.950 . S
H3561 C3537 0.949 . S
H3562 C3539 0.950 . S
H3563 C3541 0.950 . S
C3564 C3565 1.349 . S
C3564 C3566 1.327 . S
C3564 H3589 0.950 . S
C3565 C3564 1.349 . S
C3565 C3581 1.349 . S
C3566 C3564 1.327 . S
C3566 C3585 1.429 . S
C3566 H3590 0.950 . S
C3567 C3584 1.574 . S
C3567 C3586 1.368 . S
C3567 H3591 0.949 . S
H3568 C3572 0.949 . S
C3569 C3570 1.349 . S
C3569 C3571 1.327 . S
C3569 H3592 0.950 . S
C3570 C3569 1.349 . S
C3570 C3582 1.349 . S
C3571 C3569 1.327 . S
C3571 C3587 1.429 . S
C3571 H3593 0.950 . S
C3572 H3568 0.949 . S
C3572 C3580 1.574 . S
C3572 C3588 1.368 . S
H3573 C3581 0.950 . S
H3574 C3579 0.950 . S
H3575 C3580 0.949 . S
H3576 C3582 0.950 . S
H3577 C3583 0.950 . S
H3578 C3584 0.949 . S
C3579 H3574 0.950 . S
C3579 C3581 1.327 . S
C3579 C3585 1.429 . S
C3580 C3572 1.574 . S
C3580 H3575 0.949 . S
C3580 C3586 1.368 . S
C3581 C3565 1.349 . S
C3581 H3573 0.950 . S
C3581 C3579 1.327 . S
C3582 C3570 1.349 . S
C3582 H3576 0.950 . S
C3582 C3583 1.327 . S
C3583 H3577 0.950 . S
C3583 C3582 1.327 . S
C3583 C3587 1.429 . S
C3584 C3567 1.574 . S
C3584 H3578 0.949 . S
C3584 C3588 1.368 . S
C3585 C3566 1.429 . S
C3585 C3579 1.429 . S
C3585 C3586 1.523 . S
C3586 C3567 1.368 . S
C3586 C3580 1.368 . S
C3586 C3585 1.523 . S
C3587 C3571 1.429 . S
C3587 C3583 1.429 . S
C3587 C3588 1.523 . S
C3588 C3572 1.368 . S
C3588 C3584 1.368 . S
C3588 C3587 1.523 . S
H3589 C3564 0.950 . S
H3590 C3566 0.950 . S
H3591 C3567 0.949 . S
H3592 C3569 0.950 . S
H3593 C3571 0.950 . S
C3594 C3595 1.349 . S
C3594 C3596 1.327 . S
C3594 H3619 0.950 . S
C3595 C3594 1.349 . S
C3595 C3611 1.349 . S
C3596 C3594 1.327 . S
C3596 C3615 1.429 . S
C3596 H3620 0.950 . S
C3597 C3614 1.574 . S
C3597 C3616 1.368 . S
C3597 H3621 0.949 . S
H3598 C3602 0.949 . S
C3599 C3600 1.349 . S
C3599 C3601 1.327 . S
C3599 H3622 0.950 . S
C3600 C3599 1.349 . S
C3600 C3612 1.349 . S
C3601 C3599 1.327 . S
C3601 C3617 1.429 . S
C3601 H3623 0.950 . S
C3602 H3598 0.949 . S
C3602 C3610 1.574 . S
C3602 C3618 1.368 . S
H3603 C3611 0.950 . S
H3604 C3609 0.950 . S
H3605 C3610 0.949 . S
H3606 C3612 0.950 . S
H3607 C3613 0.950 . S
H3608 C3614 0.949 . S
C3609 H3604 0.950 . S
C3609 C3611 1.327 . S
C3609 C3615 1.429 . S
C3610 C3602 1.574 . S
C3610 H3605 0.949 . S
C3610 C3616 1.368 . S
C3611 C3595 1.349 . S
C3611 H3603 0.950 . S
C3611 C3609 1.327 . S
C3612 C3600 1.349 . S
C3612 H3606 0.950 . S
C3612 C3613 1.327 . S
C3613 H3607 0.950 . S
C3613 C3612 1.327 . S
C3613 C3617 1.429 . S
C3614 C3597 1.574 . S
C3614 H3608 0.949 . S
C3614 C3618 1.368 . S
C3615 C3596 1.429 . S
C3615 C3609 1.429 . S
C3615 C3616 1.523 . S
C3616 C3597 1.368 . S
C3616 C3610 1.368 . S
C3616 C3615 1.523 . S
C3617 C3601 1.429 . S
C3617 C3613 1.429 . S
C3617 C3618 1.523 . S
C3618 C3602 1.368 . S
C3618 C3614 1.368 . S
C3618 C3617 1.523 . S
H3619 C3594 0.950 . S
H3620 C3596 0.950 . S
H3621 C3597 0.949 . S
H3622 C3599 0.950 . S
H3623 C3601 0.950 . S
C3624 C3625 1.349 . S
C3624 C3626 1.327 . S
C3624 H3649 0.950 1_556 S
C3625 C3624 1.349 . S
C3625 C3641 1.349 . S
C3626 C3624 1.327 . S
C3626 C3645 1.429 . S
C3626 H3650 0.950 . S
C3627 C3644 1.574 . S
C3627 C3646 1.368 . S
C3627 H3651 0.949 . S
H3628 C3632 0.949 . S
C3629 C3630 1.349 . S
C3629 C3631 1.327 . S
C3629 H3652 0.950 . S
C3630 C3629 1.349 . S
C3630 C3642 1.349 . S
C3631 C3629 1.327 . S
C3631 C3647 1.429 . S
C3631 H3653 0.950 . S
C3632 H3628 0.949 . S
C3632 C3640 1.574 . S
C3632 C3648 1.368 . S
H3633 C3641 0.950 . S
H3634 C3639 0.950 . S
H3635 C3640 0.949 . S
H3636 C3642 0.950 . S
H3637 C3643 0.950 . S
H3638 C3644 0.949 . S
C3639 H3634 0.950 . S
C3639 C3641 1.327 . S
C3639 C3645 1.429 . S
C3640 C3632 1.574 . S
C3640 H3635 0.949 . S
C3640 C3646 1.368 . S
C3641 C3625 1.349 . S
C3641 H3633 0.950 . S
C3641 C3639 1.327 . S
C3642 C3630 1.349 . S
C3642 H3636 0.950 . S
C3642 C3643 1.327 . S
C3643 H3637 0.950 . S
C3643 C3642 1.327 . S
C3643 C3647 1.429 . S
C3644 C3627 1.574 . S
C3644 H3638 0.949 . S
C3644 C3648 1.368 . S
C3645 C3626 1.429 . S
C3645 C3639 1.429 . S
C3645 C3646 1.523 . S
C3646 C3627 1.368 . S
C3646 C3640 1.368 . S
C3646 C3645 1.523 . S
C3647 C3631 1.429 . S
C3647 C3643 1.429 . S
C3647 C3648 1.523 . S
C3648 C3632 1.368 . S
C3648 C3644 1.368 . S
C3648 C3647 1.523 . S
H3649 C3624 0.950 1_554 S
H3650 C3626 0.950 . S
H3651 C3627 0.949 . S
H3652 C3629 0.950 . S
H3653 C3631 0.950 . S
C3654 C3655 1.349 . S
C3654 C3656 1.327 . S
C3654 H3679 0.950 . S
C3655 C3654 1.349 . S
C3655 C3671 1.349 . S
C3656 C3654 1.327 . S
C3656 C3675 1.429 . S
C3656 H3680 0.950 . S
C3657 C3674 1.574 . S
C3657 C3676 1.368 . S
C3657 H3681 0.949 . S
H3658 C3662 0.949 . S
C3659 C3660 1.349 . S
C3659 C3661 1.327 . S
C3659 H3682 0.950 . S
C3660 C3659 1.349 . S
C3660 C3672 1.349 . S
C3661 C3659 1.327 . S
C3661 C3677 1.429 . S
C3661 H3683 0.950 . S
C3662 H3658 0.949 . S
C3662 C3670 1.574 . S
C3662 C3678 1.368 . S
H3663 C3671 0.950 . S
H3664 C3669 0.950 . S
H3665 C3670 0.949 . S
H3666 C3672 0.950 . S
H3667 C3673 0.950 . S
H3668 C3674 0.949 . S
C3669 H3664 0.950 . S
C3669 C3671 1.327 . S
C3669 C3675 1.429 . S
C3670 C3662 1.574 . S
C3670 H3665 0.949 . S
C3670 C3676 1.368 . S
C3671 C3655 1.349 . S
C3671 H3663 0.950 . S
C3671 C3669 1.327 . S
C3672 C3660 1.349 . S
C3672 H3666 0.950 . S
C3672 C3673 1.327 . S
C3673 H3667 0.950 . S
C3673 C3672 1.327 . S
C3673 C3677 1.429 . S
C3674 C3657 1.574 . S
C3674 H3668 0.949 . S
C3674 C3678 1.368 . S
C3675 C3656 1.429 . S
C3675 C3669 1.429 . S
C3675 C3676 1.523 . S
C3676 C3657 1.368 . S
C3676 C3670 1.368 . S
C3676 C3675 1.523 . S
C3677 C3661 1.429 . S
C3677 C3673 1.429 . S
C3677 C3678 1.523 . S
C3678 C3662 1.368 . S
C3678 C3674 1.368 . S
C3678 C3677 1.523 . S
H3679 C3654 0.950 . S
H3680 C3656 0.950 . S
H3681 C3657 0.949 . S
H3682 C3659 0.950 . S
H3683 C3661 0.950 . S
C3684 C3685 1.349 . S
C3684 C3686 1.327 . S
C3684 H3709 0.950 . S
C3685 C3684 1.349 . S
C3685 C3701 1.349 . S
C3686 C3684 1.327 . S
C3686 C3705 1.429 . S
C3686 H3710 0.950 . S
C3687 C3704 1.574 . S
C3687 C3706 1.368 . S
C3687 H3711 0.949 . S
H3688 C3692 0.949 . S
C3689 C3690 1.349 . S
C3689 C3691 1.327 . S
C3689 H3712 0.950 . S
C3690 C3689 1.349 . S
C3690 C3702 1.349 . S
C3691 C3689 1.327 . S
C3691 C3707 1.429 . S
C3691 H3713 0.950 . S
C3692 H3688 0.949 . S
C3692 C3700 1.574 . S
C3692 C3708 1.368 . S
H3693 C3701 0.950 . S
H3694 C3699 0.950 . S
H3695 C3700 0.949 . S
H3696 C3702 0.950 . S
H3697 C3703 0.950 . S
H3698 C3704 0.949 . S
C3699 H3694 0.950 . S
C3699 C3701 1.327 . S
C3699 C3705 1.429 . S
C3700 C3692 1.574 . S
C3700 H3695 0.949 . S
C3700 C3706 1.368 . S
C3701 C3685 1.349 . S
C3701 H3693 0.950 . S
C3701 C3699 1.327 . S
C3702 C3690 1.349 . S
C3702 H3696 0.950 . S
C3702 C3703 1.327 . S
C3703 H3697 0.950 . S
C3703 C3702 1.327 . S
C3703 C3707 1.429 . S
C3704 C3687 1.574 . S
C3704 H3698 0.949 . S
C3704 C3708 1.368 . S
C3705 C3686 1.429 . S
C3705 C3699 1.429 . S
C3705 C3706 1.523 . S
C3706 C3687 1.368 . S
C3706 C3700 1.368 . S
C3706 C3705 1.523 . S
C3707 C3691 1.429 . S
C3707 C3703 1.429 . S
C3707 C3708 1.523 . S
C3708 C3692 1.368 . S
C3708 C3704 1.368 . S
C3708 C3707 1.523 . S
H3709 C3684 0.950 . S
H3710 C3686 0.950 . S
H3711 C3687 0.949 . S
H3712 C3689 0.950 . S
H3713 C3691 0.950 . S
C3714 C3715 1.349 . S
C3714 C3716 1.327 . S
C3714 H3739 0.950 . S
C3715 C3714 1.349 . S
C3715 C3731 1.349 . S
C3716 C3714 1.327 . S
C3716 C3735 1.429 . S
C3716 H3740 0.950 . S
C3717 C3734 1.574 . S
C3717 C3736 1.368 . S
C3717 H3741 0.949 . S
H3718 C3722 0.949 . S
C3719 C3720 1.349 . S
C3719 C3721 1.327 . S
C3719 H3742 0.950 . S
C3720 C3719 1.349 . S
C3720 C3732 1.349 . S
C3721 C3719 1.327 . S
C3721 C3737 1.429 . S
C3721 H3743 0.950 . S
C3722 H3718 0.949 . S
C3722 C3730 1.574 . S
C3722 C3738 1.368 . S
H3723 C3731 0.950 . S
H3724 C3729 0.950 . S
H3725 C3730 0.949 . S
H3726 C3732 0.950 . S
H3727 C3733 0.950 . S
H3728 C3734 0.949 . S
C3729 H3724 0.950 . S
C3729 C3731 1.327 . S
C3729 C3735 1.429 . S
C3730 C3722 1.574 . S
C3730 H3725 0.949 . S
C3730 C3736 1.368 . S
C3731 C3715 1.349 . S
C3731 H3723 0.950 . S
C3731 C3729 1.327 . S
C3732 C3720 1.349 . S
C3732 H3726 0.950 . S
C3732 C3733 1.327 . S
C3733 H3727 0.950 . S
C3733 C3732 1.327 . S
C3733 C3737 1.429 . S
C3734 C3717 1.574 . S
C3734 H3728 0.949 . S
C3734 C3738 1.368 . S
C3735 C3716 1.429 . S
C3735 C3729 1.429 . S
C3735 C3736 1.523 . S
C3736 C3717 1.368 . S
C3736 C3730 1.368 . S
C3736 C3735 1.523 . S
C3737 C3721 1.429 . S
C3737 C3733 1.429 . S
C3737 C3738 1.523 . S
C3738 C3722 1.368 . S
C3738 C3734 1.368 . S
C3738 C3737 1.523 . S
H3739 C3714 0.950 . S
H3740 C3716 0.950 . S
H3741 C3717 0.949 . S
H3742 C3719 0.950 . S
H3743 C3721 0.950 . S
C3744 C3745 1.349 . S
C3744 C3746 1.327 . S
C3744 H3769 0.950 . S
C3745 C3744 1.349 . S
C3745 C3761 1.349 . S
C3746 C3744 1.327 . S
C3746 C3765 1.429 . S
C3746 H3770 0.950 . S
C3747 C3764 1.574 . S
C3747 C3766 1.368 . S
C3747 H3771 0.949 . S
H3748 C3752 0.949 . S
C3749 C3750 1.349 . S
C3749 C3751 1.327 . S
C3749 H3772 0.950 . S
C3750 C3749 1.349 . S
C3750 C3762 1.349 . S
C3751 C3749 1.327 . S
C3751 C3767 1.429 . S
C3751 H3773 0.950 . S
C3752 H3748 0.949 . S
C3752 C3760 1.574 . S
C3752 C3768 1.368 . S
H3753 C3761 0.950 . S
H3754 C3759 0.950 . S
H3755 C3760 0.949 . S
H3756 C3762 0.950 . S
H3757 C3763 0.950 . S
H3758 C3764 0.949 . S
C3759 H3754 0.950 . S
C3759 C3761 1.327 . S
C3759 C3765 1.429 . S
C3760 C3752 1.574 . S
C3760 H3755 0.949 . S
C3760 C3766 1.368 . S
C3761 C3745 1.349 . S
C3761 H3753 0.950 . S
C3761 C3759 1.327 . S
C3762 C3750 1.349 . S
C3762 H3756 0.950 . S
C3762 C3763 1.327 . S
C3763 H3757 0.950 . S
C3763 C3762 1.327 . S
C3763 C3767 1.429 . S
C3764 C3747 1.574 . S
C3764 H3758 0.949 . S
C3764 C3768 1.368 . S
C3765 C3746 1.429 . S
C3765 C3759 1.429 . S
C3765 C3766 1.523 . S
C3766 C3747 1.368 . S
C3766 C3760 1.368 . S
C3766 C3765 1.523 . S
C3767 C3751 1.429 . S
C3767 C3763 1.429 . S
C3767 C3768 1.523 . S
C3768 C3752 1.368 . S
C3768 C3764 1.368 . S
C3768 C3767 1.523 . S
H3769 C3744 0.950 . S
H3770 C3746 0.950 . S
H3771 C3747 0.949 . S
H3772 C3749 0.950 . S
H3773 C3751 0.950 . S
C3774 C3775 1.349 . S
C3774 C3776 1.327 . S
C3774 H3799 0.950 . S
C3775 C3774 1.349 . S
C3775 C3791 1.349 . S
C3776 C3774 1.327 . S
C3776 C3795 1.429 . S
C3776 H3800 0.950 . S
C3777 C3794 1.574 . S
C3777 C3796 1.368 . S
C3777 H3801 0.949 . S
H3778 C3782 0.949 . S
C3779 C3780 1.349 . S
C3779 C3781 1.327 . S
C3779 H3802 0.950 . S
C3780 C3779 1.349 . S
C3780 C3792 1.349 . S
C3781 C3779 1.327 . S
C3781 C3797 1.429 . S
C3781 H3803 0.950 . S
C3782 H3778 0.949 . S
C3782 C3790 1.574 . S
C3782 C3798 1.368 . S
H3783 C3791 0.950 . S
H3784 C3789 0.950 . S
H3785 C3790 0.949 . S
H3786 C3792 0.950 . S
H3787 C3793 0.950 . S
H3788 C3794 0.949 . S
C3789 H3784 0.950 . S
C3789 C3791 1.327 . S
C3789 C3795 1.429 . S
C3790 C3782 1.574 . S
C3790 H3785 0.949 . S
C3790 C3796 1.368 . S
C3791 C3775 1.349 . S
C3791 H3783 0.950 . S
C3791 C3789 1.327 . S
C3792 C3780 1.349 . S
C3792 H3786 0.950 . S
C3792 C3793 1.327 . S
C3793 H3787 0.950 . S
C3793 C3792 1.327 . S
C3793 C3797 1.429 . S
C3794 C3777 1.574 . S
C3794 H3788 0.949 . S
C3794 C3798 1.368 . S
C3795 C3776 1.429 . S
C3795 C3789 1.429 . S
C3795 C3796 1.523 . S
C3796 C3777 1.368 . S
C3796 C3790 1.368 . S
C3796 C3795 1.523 . S
C3797 C3781 1.429 . S
C3797 C3793 1.429 . S
C3797 C3798 1.523 . S
C3798 C3782 1.368 . S
C3798 C3794 1.368 . S
C3798 C3797 1.523 . S
H3799 C3774 0.950 . S
H3800 C3776 0.950 . S
H3801 C3777 0.949 . S
H3802 C3779 0.950 . S
H3803 C3781 0.950 . S
C3804 C3805 1.349 . S
C3804 C3806 1.327 . S
C3804 H3829 0.950 . S
C3805 C3804 1.349 . S
C3805 C3821 1.349 . S
C3806 C3804 1.327 . S
C3806 C3825 1.429 . S
C3806 H3830 0.950 . S
C3807 C3824 1.574 . S
C3807 C3826 1.368 . S
C3807 H3831 0.949 . S
H3808 C3812 0.949 . S
C3809 C3810 1.349 . S
C3809 C3811 1.327 . S
C3809 H3832 0.950 . S
C3810 C3809 1.349 . S
C3810 C3822 1.349 . S
C3811 C3809 1.327 . S
C3811 C3827 1.429 . S
C3811 H3833 0.950 . S
C3812 H3808 0.949 . S
C3812 C3820 1.574 . S
C3812 C3828 1.368 . S
H3813 C3821 0.950 . S
H3814 C3819 0.950 . S
H3815 C3820 0.949 . S
H3816 C3822 0.950 . S
H3817 C3823 0.950 . S
H3818 C3824 0.949 . S
C3819 H3814 0.950 . S
C3819 C3821 1.327 . S
C3819 C3825 1.429 . S
C3820 C3812 1.574 . S
C3820 H3815 0.949 . S
C3820 C3826 1.368 . S
C3821 C3805 1.349 . S
C3821 H3813 0.950 . S
C3821 C3819 1.327 . S
C3822 C3810 1.349 . S
C3822 H3816 0.950 . S
C3822 C3823 1.327 . S
C3823 H3817 0.950 . S
C3823 C3822 1.327 . S
C3823 C3827 1.429 . S
C3824 C3807 1.574 . S
C3824 H3818 0.949 . S
C3824 C3828 1.368 . S
C3825 C3806 1.429 . S
C3825 C3819 1.429 . S
C3825 C3826 1.523 . S
C3826 C3807 1.368 . S
C3826 C3820 1.368 . S
C3826 C3825 1.523 . S
C3827 C3811 1.429 . S
C3827 C3823 1.429 . S
C3827 C3828 1.523 . S
C3828 C3812 1.368 . S
C3828 C3824 1.368 . S
C3828 C3827 1.523 . S
H3829 C3804 0.950 . S
H3830 C3806 0.950 . S
H3831 C3807 0.949 . S
H3832 C3809 0.950 . S
H3833 C3811 0.950 . S
C3834 C3835 1.349 . S
C3834 C3836 1.327 . S
C3834 H3859 0.950 . S
C3835 C3834 1.349 . S
C3835 C3851 1.349 . S
C3836 C3834 1.327 . S
C3836 C3855 1.429 . S
C3836 H3860 0.986 . S
C3837 C3854 1.574 . S
C3837 C3856 1.368 . S
C3837 H3861 0.949 . S
H3838 C3842 0.949 1_655 S
C3839 C3840 1.349 . S
C3839 C3841 1.327 . S
C3839 H3862 0.950 . S
C3840 C3839 1.349 . S
C3840 C3852 1.346 1_455 S
C3841 C3839 1.327 . S
C3841 C3857 1.429 . S
C3841 H3863 0.950 . S
C3842 H3838 0.949 1_455 S
C3842 C3850 1.574 . S
C3842 C3858 1.368 . S
H3843 C3851 0.950 . S
H3844 C3849 0.950 . S
H3845 C3850 0.949 1_655 S
H3846 C3852 0.965 . S
H3847 C3853 0.942 1_655 S
H3848 C3854 0.949 . S
C3849 H3844 0.950 . S
C3849 C3851 1.327 . S
C3849 C3855 1.429 . S
C3850 C3842 1.574 . S
C3850 H3845 0.949 1_455 S
C3850 C3856 1.368 . S
C3851 C3835 1.349 . S
C3851 H3843 0.950 . S
C3851 C3849 1.327 . S
C3852 C3840 1.346 1_655 S
C3852 H3846 0.965 . S
C3852 C3853 1.285 1_655 S
C3853 H3847 0.942 1_455 S
C3853 C3852 1.285 1_455 S
C3853 C3857 1.471 . S
C3854 C3837 1.574 . S
C3854 H3848 0.949 . S
C3854 C3858 1.368 . S
C3855 C3836 1.429 . S
C3855 C3849 1.429 . S
C3855 C3856 1.523 . S
C3856 C3837 1.368 . S
C3856 C3850 1.368 . S
C3856 C3855 1.523 . S
C3857 C3841 1.429 . S
C3857 C3853 1.471 . S
C3857 C3858 1.523 . S
C3858 C3842 1.368 . S
C3858 C3854 1.368 . S
C3858 C3857 1.523 . S
H3859 C3834 0.950 . S
H3860 C3836 0.986 . S
H3861 C3837 0.949 . S
H3862 C3839 0.950 . S
H3863 C3841 0.950 . S
C3864 C3865 1.349 . S
C3864 C3866 1.327 . S
C3864 H3889 0.950 . S
C3865 C3864 1.349 . S
C3865 C3881 1.349 . S
C3866 C3864 1.327 . S
C3866 C3885 1.429 . S
C3866 H3890 0.950 . S
C3867 C3884 1.574 . S
C3867 C3886 1.368 . S
C3867 H3891 0.949 . S
H3868 C3872 0.949 . S
C3869 C3870 1.349 . S
C3869 C3871 1.327 . S
C3869 H3892 0.950 . S
C3870 C3869 1.349 . S
C3870 C3882 1.349 . S
C3871 C3869 1.327 . S
C3871 C3887 1.429 . S
C3871 H3893 0.950 . S
C3872 H3868 0.949 . S
C3872 C3880 1.574 . S
C3872 C3888 1.368 . S
H3873 C3881 0.950 . S
H3874 C3879 0.950 . S
H3875 C3880 0.949 . S
H3876 C3882 0.950 . S
H3877 C3883 0.950 . S
H3878 C3884 0.949 . S
C3879 H3874 0.950 . S
C3879 C3881 1.327 . S
C3879 C3885 1.429 . S
C3880 C3872 1.574 . S
C3880 H3875 0.949 . S
C3880 C3886 1.368 . S
C3881 C3865 1.349 . S
C3881 H3873 0.950 . S
C3881 C3879 1.327 . S
C3882 C3870 1.349 . S
C3882 H3876 0.950 . S
C3882 C3883 1.327 . S
C3883 H3877 0.950 . S
C3883 C3882 1.327 . S
C3883 C3887 1.429 . S
C3884 C3867 1.574 . S
C3884 H3878 0.949 . S
C3884 C3888 1.368 . S
C3885 C3866 1.429 . S
C3885 C3879 1.429 . S
C3885 C3886 1.523 . S
C3886 C3867 1.368 . S
C3886 C3880 1.368 . S
C3886 C3885 1.523 . S
C3887 C3871 1.429 . S
C3887 C3883 1.429 . S
C3887 C3888 1.523 . S
C3888 C3872 1.368 . S
C3888 C3884 1.368 . S
C3888 C3887 1.523 . S
H3889 C3864 0.950 . S
H3890 C3866 0.950 . S
H3891 C3867 0.949 . S
H3892 C3869 0.950 . S
H3893 C3871 0.950 . S
C3894 C3895 1.349 . S
C3894 C3896 1.327 . S
C3894 H3919 0.950 . S
C3895 C3894 1.349 . S
C3895 C3911 1.349 . S
C3896 C3894 1.327 . S
C3896 C3915 1.429 . S
C3896 H3920 0.950 . S
C3897 C3914 1.574 . S
C3897 C3916 1.368 1_545 S
C3897 H3921 0.949 . S
H3898 C3902 0.949 . S
C3899 C3900 1.349 1_545 S
C3899 C3901 1.327 . S
C3899 H3922 0.950 . S
C3900 C3899 1.349 1_565 S
C3900 C3912 1.349 . S
C3901 C3899 1.327 . S
C3901 C3917 1.429 1_545 S
C3901 H3923 0.950 . S
C3902 H3898 0.949 . S
C3902 C3910 1.574 . S
C3902 C3918 1.368 . S
H3903 C3911 0.951 1_545 S
H3904 C3909 0.965 . S
H3905 C3910 0.949 . S
H3906 C3912 0.950 . S
H3907 C3913 0.950 . S
H3908 C3914 0.949 . S
C3909 H3904 0.965 . S
C3909 C3911 1.347 1_545 S
C3909 C3915 1.396 1_545 S
C3910 C3902 1.574 . S
C3910 H3905 0.949 . S
C3910 C3916 1.368 . S
C3911 C3895 1.349 . S
C3911 H3903 0.951 1_565 S
C3911 C3909 1.347 1_565 S
C3912 C3900 1.349 . S
C3912 H3906 0.950 . S
C3912 C3913 1.327 . S
C3913 H3907 0.950 . S
C3913 C3912 1.327 . S
C3913 C3917 1.429 . S
C3914 C3897 1.574 . S
C3914 H3908 0.949 . S
C3914 C3918 1.368 1_545 S
C3915 C3896 1.429 . S
C3915 C3909 1.396 1_565 S
C3915 C3916 1.523 . S
C3916 C3897 1.368 1_565 S
C3916 C3910 1.368 . S
C3916 C3915 1.523 . S
C3917 C3901 1.429 1_565 S
C3917 C3913 1.429 . S
C3917 C3918 1.523 . S
C3918 C3902 1.368 . S
C3918 C3914 1.368 1_565 S
C3918 C3917 1.523 . S
H3919 C3894 0.950 . S
H3920 C3896 0.950 . S
H3921 C3897 0.949 . S
H3922 C3899 0.950 . S
H3923 C3901 0.950 . S
C3924 C3925 1.349 . S
C3924 C3926 1.327 . S
C3924 H3949 0.950 . S
C3925 C3924 1.349 . S
C3925 C3941 1.281 1_565 S
C3926 C3924 1.327 . S
C3926 C3945 1.429 . S
C3926 H3950 0.950 . S
C3927 C3944 1.574 . S
C3927 C3946 1.368 1_545 S
C3927 H3951 0.949 . S
H3928 C3932 0.949 . S
C3929 C3930 1.349 1_545 S
C3929 C3931 1.327 . S
C3929 H3952 0.950 . S
C3930 C3929 1.349 1_565 S
C3930 C3942 1.349 . S
C3931 C3929 1.327 . S
C3931 C3947 1.429 1_545 S
C3931 H3953 0.950 . S
C3932 H3928 0.949 . S
C3932 C3940 1.574 . S
C3932 C3948 1.368 . S
H3933 C3941 0.980 . S
H3934 C3939 0.950 . S
H3935 C3940 0.949 . S
H3936 C3942 0.950 . S
H3937 C3943 0.950 . S
H3938 C3944 0.949 . S
C3939 H3934 0.950 . S
C3939 C3941 1.373 . S
C3939 C3945 1.429 1_545 S
C3940 C3932 1.574 . S
C3940 H3935 0.949 . S
C3940 C3946 1.368 . S
C3941 C3925 1.281 1_545 S
C3941 H3933 0.980 . S
C3941 C3939 1.373 . S
C3942 C3930 1.349 . S
C3942 H3936 0.950 . S
C3942 C3943 1.327 . S
C3943 H3937 0.950 . S
C3943 C3942 1.327 . S
C3943 C3947 1.429 . S
C3944 C3927 1.574 . S
C3944 H3938 0.949 . S
C3944 C3948 1.368 1_545 S
C3945 C3926 1.429 . S
C3945 C3939 1.429 1_565 S
C3945 C3946 1.523 . S
C3946 C3927 1.368 1_565 S
C3946 C3940 1.368 . S
C3946 C3945 1.523 . S
C3947 C3931 1.429 1_565 S
C3947 C3943 1.429 . S
C3947 C3948 1.523 . S
C3948 C3932 1.368 . S
C3948 C3944 1.368 1_565 S
C3948 C3947 1.523 . S
H3949 C3924 0.950 . S
H3950 C3926 0.950 . S
H3951 C3927 0.949 . S
H3952 C3929 0.950 . S
H3953 C3931 0.950 . S
C3954 C3955 1.349 . S
C3954 C3956 1.323 . S
C3954 H3979 0.950 1_455 S
C3955 C3954 1.349 . S
C3955 C3971 1.349 . S
C3956 C3954 1.323 . S
C3956 C3975 1.439 . S
C3956 H3980 0.944 1_455 S
C3957 C3974 1.574 . S
C3957 C3976 1.368 . S
C3957 H3981 0.949 . S
H3958 C3962 0.949 . S
C3959 C3960 1.371 . S
C3959 C3961 1.327 . S
C3959 H3982 0.950 . S
C3960 C3959 1.371 . S
C3960 C3972 1.311 1_455 S
C3961 C3959 1.327 . S
C3961 C3977 1.429 . S
C3961 H3983 0.950 . S
C3962 H3958 0.949 . S
C3962 C3970 1.574 . S
C3962 C3978 1.368 1_655 S
H3963 C3971 0.950 . S
H3964 C3969 0.950 . S
H3965 C3970 0.949 . S
H3966 C3972 0.950 . S
H3967 C3973 0.950 . S
H3968 C3974 0.949 . S
C3969 H3964 0.950 . S
C3969 C3971 1.327 . S
C3969 C3975 1.429 . S
C3970 C3962 1.574 . S
C3970 H3965 0.949 . S
C3970 C3976 1.368 1_655 S
C3971 C3955 1.349 . S
C3971 H3963 0.950 . S
C3971 C3969 1.327 . S
C3972 C3960 1.311 1_655 S
C3972 H3966 0.950 . S
C3972 C3973 1.327 . S
C3973 H3967 0.950 . S
C3973 C3972 1.327 . S
C3973 C3977 1.429 1_655 S
C3974 C3957 1.574 . S
C3974 H3968 0.949 . S
C3974 C3978 1.368 . S
C3975 C3956 1.439 . S
C3975 C3969 1.429 . S
C3975 C3976 1.523 . S
C3976 C3957 1.368 . S
C3976 C3970 1.368 1_455 S
C3976 C3975 1.523 . S
C3977 C3961 1.429 . S
C3977 C3973 1.429 1_455 S
C3977 C3978 1.523 . S
C3978 C3962 1.368 1_455 S
C3978 C3974 1.368 . S
C3978 C3977 1.523 . S
H3979 C3954 0.950 1_655 S
H3980 C3956 0.944 1_655 S
H3981 C3957 0.949 . S
H3982 C3959 0.950 . S
H3983 C3961 0.950 . S
C3984 C3985 1.349 . S
C3984 C3986 1.327 . S
C3984 H4009 0.950 . S
C3985 C3984 1.349 . S
C3985 C4001 1.349 . S
C3986 C3984 1.327 . S
C3986 C4005 1.429 . S
C3986 H4010 0.950 . S
C3987 C4004 1.574 . S
C3987 C4006 1.368 . S
C3987 H4011 0.949 . S
H3988 C3992 0.949 . S
C3989 C3990 1.349 . S
C3989 C3991 1.327 . S
C3989 H4012 0.950 . S
C3990 C3989 1.349 . S
C3990 C4002 1.349 . S
C3991 C3989 1.327 . S
C3991 C4007 1.429 . S
C3991 H4013 0.950 . S
C3992 H3988 0.949 . S
C3992 C4000 1.574 . S
C3992 C4008 1.368 . S
H3993 C4001 0.950 . S
H3994 C3999 0.950 . S
H3995 C4000 0.949 . S
H3996 C4002 0.950 . S
H3997 C4003 0.950 . S
H3998 C4004 0.949 . S
C3999 H3994 0.950 . S
C3999 C4001 1.327 . S
C3999 C4005 1.429 . S
C4000 C3992 1.574 . S
C4000 H3995 0.949 . S
C4000 C4006 1.368 . S
C4001 C3985 1.349 . S
C4001 H3993 0.950 . S
C4001 C3999 1.327 . S
C4002 C3990 1.349 . S
C4002 H3996 0.950 . S
C4002 C4003 1.327 . S
C4003 H3997 0.950 . S
C4003 C4002 1.327 . S
C4003 C4007 1.429 . S
C4004 C3987 1.574 . S
C4004 H3998 0.949 . S
C4004 C4008 1.368 . S
C4005 C3986 1.429 . S
C4005 C3999 1.429 . S
C4005 C4006 1.523 . S
C4006 C3987 1.368 . S
C4006 C4000 1.368 . S
C4006 C4005 1.523 . S
C4007 C3991 1.429 . S
C4007 C4003 1.429 . S
C4007 C4008 1.523 . S
C4008 C3992 1.368 . S
C4008 C4004 1.368 . S
C4008 C4007 1.523 . S
H4009 C3984 0.950 . S
H4010 C3986 0.950 . S
H4011 C3987 0.949 . S
H4012 C3989 0.950 . S
H4013 C3991 0.950 . S
C4014 C4015 1.349 . S
C4014 C4016 1.327 . S
C4014 H4039 0.950 . S
C4015 C4014 1.349 . S
C4015 C4031 1.349 . S
C4016 C4014 1.327 . S
C4016 C4035 1.429 . S
C4016 H4040 0.950 . S
C4017 C4034 1.574 . S
C4017 C4036 1.368 . S
C4017 H4041 0.949 . S
H4018 C4022 0.949 . S
C4019 C4020 1.349 . S
C4019 C4021 1.327 . S
C4019 H4042 0.950 . S
C4020 C4019 1.349 . S
C4020 C4032 1.349 . S
C4021 C4019 1.327 . S
C4021 C4037 1.429 . S
C4021 H4043 0.950 . S
C4022 H4018 0.949 . S
C4022 C4030 1.574 . S
C4022 C4038 1.368 . S
H4023 C4031 0.950 . S
H4024 C4029 0.950 . S
H4025 C4030 0.949 . S
H4026 C4032 0.950 . S
H4027 C4033 0.950 . S
H4028 C4034 0.949 . S
C4029 H4024 0.950 . S
C4029 C4031 1.327 . S
C4029 C4035 1.429 . S
C4030 C4022 1.574 . S
C4030 H4025 0.949 . S
C4030 C4036 1.368 . S
C4031 C4015 1.349 . S
C4031 H4023 0.950 . S
C4031 C4029 1.327 . S
C4032 C4020 1.349 . S
C4032 H4026 0.950 . S
C4032 C4033 1.327 . S
C4033 H4027 0.950 . S
C4033 C4032 1.327 . S
C4033 C4037 1.429 . S
C4034 C4017 1.574 . S
C4034 H4028 0.949 . S
C4034 C4038 1.368 . S
C4035 C4016 1.429 . S
C4035 C4029 1.429 . S
C4035 C4036 1.523 . S
C4036 C4017 1.368 . S
C4036 C4030 1.368 . S
C4036 C4035 1.523 . S
C4037 C4021 1.429 . S
C4037 C4033 1.429 . S
C4037 C4038 1.523 . S
C4038 C4022 1.368 . S
C4038 C4034 1.368 . S
C4038 C4037 1.523 . S
H4039 C4014 0.950 . S
H4040 C4016 0.950 . S
H4041 C4017 0.949 . S
H4042 C4019 0.950 . S
H4043 C4021 0.950 . S
C4044 C4045 1.349 . S
C4044 C4046 1.327 . S
C4044 H4069 0.950 . S
C4045 C4044 1.349 . S
C4045 C4061 1.349 . S
C4046 C4044 1.327 . S
C4046 C4065 1.429 . S
C4046 H4070 0.950 . S
C4047 C4064 1.574 . S
C4047 C4066 1.368 . S
C4047 H4071 0.949 . S
H4048 C4052 0.949 . S
C4049 C4050 1.349 . S
C4049 C4051 1.327 . S
C4049 H4072 0.950 . S
C4050 C4049 1.349 . S
C4050 C4062 1.349 . S
C4051 C4049 1.327 . S
C4051 C4067 1.429 . S
C4051 H4073 0.950 . S
C4052 H4048 0.949 . S
C4052 C4060 1.574 . S
C4052 C4068 1.368 . S
H4053 C4061 0.950 . S
H4054 C4059 0.950 . S
H4055 C4060 0.949 . S
H4056 C4062 0.950 . S
H4057 C4063 0.950 . S
H4058 C4064 0.949 . S
C4059 H4054 0.950 . S
C4059 C4061 1.327 . S
C4059 C4065 1.429 . S
C4060 C4052 1.574 . S
C4060 H4055 0.949 . S
C4060 C4066 1.368 . S
C4061 C4045 1.349 . S
C4061 H4053 0.950 . S
C4061 C4059 1.327 . S
C4062 C4050 1.349 . S
C4062 H4056 0.950 . S
C4062 C4063 1.327 . S
C4063 H4057 0.950 . S
C4063 C4062 1.327 . S
C4063 C4067 1.429 . S
C4064 C4047 1.574 . S
C4064 H4058 0.949 . S
C4064 C4068 1.368 . S
C4065 C4046 1.429 . S
C4065 C4059 1.429 . S
C4065 C4066 1.523 . S
C4066 C4047 1.368 . S
C4066 C4060 1.368 . S
C4066 C4065 1.523 . S
C4067 C4051 1.429 . S
C4067 C4063 1.429 . S
C4067 C4068 1.523 . S
C4068 C4052 1.368 . S
C4068 C4064 1.368 . S
C4068 C4067 1.523 . S
H4069 C4044 0.950 . S
H4070 C4046 0.950 . S
H4071 C4047 0.949 . S
H4072 C4049 0.950 . S
H4073 C4051 0.950 . S
C4074 C4075 1.349 . S
C4074 C4076 1.327 . S
C4074 H4099 0.950 . S
C4075 C4074 1.349 . S
C4075 C4091 1.349 . S
C4076 C4074 1.327 . S
C4076 C4095 1.429 . S
C4076 H4100 0.950 . S
C4077 C4094 1.574 . S
C4077 C4096 1.368 . S
C4077 H4101 0.949 . S
H4078 C4082 0.949 . S
C4079 C4080 1.349 . S
C4079 C4081 1.327 . S
C4079 H4102 0.950 . S
C4080 C4079 1.349 . S
C4080 C4092 1.349 . S
C4081 C4079 1.327 . S
C4081 C4097 1.429 . S
C4081 H4103 0.950 . S
C4082 H4078 0.949 . S
C4082 C4090 1.574 . S
C4082 C4098 1.368 . S
H4083 C4091 0.950 . S
H4084 C4089 0.950 . S
H4085 C4090 0.949 . S
H4086 C4092 0.950 . S
H4087 C4093 0.950 . S
H4088 C4094 0.949 . S
C4089 H4084 0.950 . S
C4089 C4091 1.327 . S
C4089 C4095 1.429 . S
C4090 C4082 1.574 . S
C4090 H4085 0.949 . S
C4090 C4096 1.368 . S
C4091 C4075 1.349 . S
C4091 H4083 0.950 . S
C4091 C4089 1.327 . S
C4092 C4080 1.349 . S
C4092 H4086 0.950 . S
C4092 C4093 1.327 . S
C4093 H4087 0.950 . S
C4093 C4092 1.327 . S
C4093 C4097 1.429 . S
C4094 C4077 1.574 . S
C4094 H4088 0.949 . S
C4094 C4098 1.368 . S
C4095 C4076 1.429 . S
C4095 C4089 1.429 . S
C4095 C4096 1.523 . S
C4096 C4077 1.368 . S
C4096 C4090 1.368 . S
C4096 C4095 1.523 . S
C4097 C4081 1.429 . S
C4097 C4093 1.429 . S
C4097 C4098 1.523 . S
C4098 C4082 1.368 . S
C4098 C4094 1.368 . S
C4098 C4097 1.523 . S
H4099 C4074 0.950 . S
H4100 C4076 0.950 . S
H4101 C4077 0.949 . S
H4102 C4079 0.950 . S
H4103 C4081 0.950 . S
C4104 C4105 1.349 . S
C4104 C4106 1.339 . S
C4104 H4129 0.950 1_545 S
C4105 C4104 1.349 . S
C4105 C4121 1.349 . S
C4106 C4104 1.339 . S
C4106 C4125 1.440 . S
C4106 H4130 0.926 1_545 S
C4107 C4124 1.574 . S
C4107 C4126 1.368 . S
C4107 H4131 0.949 . S
H4108 C4112 0.949 . S
C4109 C4110 1.349 . S
C4109 C4111 1.327 . S
C4109 H4132 0.950 . S
C4110 C4109 1.349 . S
C4110 C4122 1.349 1_545 S
C4111 C4109 1.327 . S
C4111 C4127 1.429 . S
C4111 H4133 0.950 . S
C4112 H4108 0.949 . S
C4112 C4120 1.574 . S
C4112 C4128 1.368 1_565 S
H4113 C4121 0.950 . S
H4114 C4119 0.950 . S
H4115 C4120 0.949 . S
H4116 C4122 0.950 . S
H4117 C4123 0.950 . S
H4118 C4124 0.949 . S
C4119 H4114 0.950 . S
C4119 C4121 1.327 . S
C4119 C4125 1.429 . S
C4120 C4112 1.574 . S
C4120 H4115 0.949 . S
C4120 C4126 1.368 1_565 S
C4121 C4105 1.349 . S
C4121 H4113 0.950 . S
C4121 C4119 1.327 . S
C4122 C4110 1.349 1_565 S
C4122 H4116 0.950 . S
C4122 C4123 1.327 . S
C4123 H4117 0.950 . S
C4123 C4122 1.327 . S
C4123 C4127 1.429 1_565 S
C4124 C4107 1.574 . S
C4124 H4118 0.949 . S
C4124 C4128 1.368 . S
C4125 C4106 1.440 . S
C4125 C4119 1.429 . S
C4125 C4126 1.523 . S
C4126 C4107 1.368 . S
C4126 C4120 1.368 1_545 S
C4126 C4125 1.523 . S
C4127 C4111 1.429 . S
C4127 C4123 1.429 1_545 S
C4127 C4128 1.523 . S
C4128 C4112 1.368 1_545 S
C4128 C4124 1.368 . S
C4128 C4127 1.523 . S
H4129 C4104 0.950 1_565 S
H4130 C4106 0.926 1_565 S
H4131 C4107 0.949 . S
H4132 C4109 0.950 . S
H4133 C4111 0.950 . S
C4134 C4135 1.349 1_455 S
C4134 C4136 1.327 . S
C4134 H4159 0.950 . S
C4135 C4134 1.349 1_655 S
C4135 C4151 1.349 . S
C4136 C4134 1.327 . S
C4136 C4155 1.429 1_455 S
C4136 H4160 0.950 . S
C4137 C4154 1.574 . S
C4137 C4156 1.368 . S
C4137 H4161 0.949 . S
H4138 C4142 0.949 . S
C4139 C4140 1.349 . S
C4139 C4141 1.327 . S
C4139 H4162 0.950 . S
C4140 C4139 1.349 . S
C4140 C4152 1.349 1_655 S
C4141 C4139 1.327 . S
C4141 C4157 1.429 . S
C4141 H4163 0.950 . S
C4142 H4138 0.949 . S
C4142 C4150 1.574 . S
C4142 C4158 1.368 1_455 S
H4143 C4151 0.950 . S
H4144 C4149 0.950 . S
H4145 C4150 0.949 . S
H4146 C4152 0.950 . S
H4147 C4153 0.950 . S
H4148 C4154 0.949 . S
C4149 H4144 0.950 . S
C4149 C4151 1.327 . S
C4149 C4155 1.429 . S
C4150 C4142 1.574 . S
C4150 H4145 0.949 . S
C4150 C4156 1.368 1_455 S
C4151 C4135 1.349 . S
C4151 H4143 0.950 . S
C4151 C4149 1.327 . S
C4152 C4140 1.349 1_455 S
C4152 H4146 0.950 . S
C4152 C4153 1.327 . S
C4153 H4147 0.950 . S
C4153 C4152 1.327 . S
C4153 C4157 1.429 1_455 S
C4154 C4137 1.574 . S
C4154 H4148 0.949 . S
C4154 C4158 1.368 . S
C4155 C4136 1.429 1_655 S
C4155 C4149 1.429 . S
C4155 C4156 1.523 . S
C4156 C4137 1.368 . S
C4156 C4150 1.368 1_655 S
C4156 C4155 1.523 . S
C4157 C4141 1.429 . S
C4157 C4153 1.429 1_655 S
C4157 C4158 1.523 . S
C4158 C4142 1.368 1_655 S
C4158 C4154 1.368 . S
C4158 C4157 1.523 . S
H4159 C4134 0.950 . S
H4160 C4136 0.950 . S
H4161 C4137 0.949 . S
H4162 C4139 0.950 . S
H4163 C4141 0.950 . S
C4164 C4165 1.349 . S
C4164 C4166 1.327 . S
C4164 H4189 0.950 . S
C4165 C4164 1.349 . S
C4165 C4181 1.349 . S
C4166 C4164 1.327 . S
C4166 C4185 1.429 . S
C4166 H4190 0.950 . S
C4167 C4184 1.574 . S
C4167 C4186 1.368 . S
C4167 H4191 0.949 . S
H4168 C4172 0.949 . S
C4169 C4170 1.349 . S
C4169 C4171 1.327 . S
C4169 H4192 0.950 . S
C4170 C4169 1.349 . S
C4170 C4182 1.349 . S
C4171 C4169 1.327 . S
C4171 C4187 1.429 . S
C4171 H4193 0.950 . S
C4172 H4168 0.949 . S
C4172 C4180 1.574 . S
C4172 C4188 1.368 . S
H4173 C4181 0.950 . S
H4174 C4179 0.950 . S
H4175 C4180 0.949 . S
H4176 C4182 0.950 . S
H4177 C4183 0.950 . S
H4178 C4184 0.949 . S
C4179 H4174 0.950 . S
C4179 C4181 1.327 . S
C4179 C4185 1.429 . S
C4180 C4172 1.574 . S
C4180 H4175 0.949 . S
C4180 C4186 1.368 . S
C4181 C4165 1.349 . S
C4181 H4173 0.950 . S
C4181 C4179 1.327 . S
C4182 C4170 1.349 . S
C4182 H4176 0.950 . S
C4182 C4183 1.327 . S
C4183 H4177 0.950 . S
C4183 C4182 1.327 . S
C4183 C4187 1.429 . S
C4184 C4167 1.574 . S
C4184 H4178 0.949 . S
C4184 C4188 1.368 . S
C4185 C4166 1.429 . S
C4185 C4179 1.429 . S
C4185 C4186 1.523 . S
C4186 C4167 1.368 . S
C4186 C4180 1.368 . S
C4186 C4185 1.523 . S
C4187 C4171 1.429 . S
C4187 C4183 1.429 . S
C4187 C4188 1.523 . S
C4188 C4172 1.368 . S
C4188 C4184 1.368 . S
C4188 C4187 1.523 . S
H4189 C4164 0.950 . S
H4190 C4166 0.950 . S
H4191 C4167 0.949 . S
H4192 C4169 0.950 . S
H4193 C4171 0.950 . S
C4194 C4195 1.349 . S
C4194 C4196 1.327 . S
C4194 H4219 0.950 . S
C4195 C4194 1.349 . S
C4195 C4211 1.349 . S
C4196 C4194 1.327 . S
C4196 C4215 1.429 . S
C4196 H4220 0.950 . S
C4197 C4214 1.574 . S
C4197 C4216 1.368 . S
C4197 H4221 0.949 . S
H4198 C4202 0.949 . S
C4199 C4200 1.349 . S
C4199 C4201 1.327 . S
C4199 H4222 0.950 . S
C4200 C4199 1.349 . S
C4200 C4212 1.349 . S
C4201 C4199 1.327 . S
C4201 C4217 1.429 . S
C4201 H4223 0.950 . S
C4202 H4198 0.949 . S
C4202 C4210 1.574 . S
C4202 C4218 1.368 . S
H4203 C4211 0.950 . S
H4204 C4209 0.950 . S
H4205 C4210 0.949 . S
H4206 C4212 0.950 . S
H4207 C4213 0.950 . S
H4208 C4214 0.949 . S
C4209 H4204 0.950 . S
C4209 C4211 1.327 . S
C4209 C4215 1.429 . S
C4210 C4202 1.574 . S
C4210 H4205 0.949 . S
C4210 C4216 1.368 . S
C4211 C4195 1.349 . S
C4211 H4203 0.950 . S
C4211 C4209 1.327 . S
C4212 C4200 1.349 . S
C4212 H4206 0.950 . S
C4212 C4213 1.327 . S
C4213 H4207 0.950 . S
C4213 C4212 1.327 . S
C4213 C4217 1.429 . S
C4214 C4197 1.574 . S
C4214 H4208 0.949 . S
C4214 C4218 1.368 . S
C4215 C4196 1.429 . S
C4215 C4209 1.429 . S
C4215 C4216 1.523 . S
C4216 C4197 1.368 . S
C4216 C4210 1.368 . S
C4216 C4215 1.523 . S
C4217 C4201 1.429 . S
C4217 C4213 1.429 . S
C4217 C4218 1.523 . S
C4218 C4202 1.368 . S
C4218 C4214 1.368 . S
C4218 C4217 1.523 . S
H4219 C4194 0.950 . S
H4220 C4196 0.950 . S
H4221 C4197 0.949 . S
H4222 C4199 0.950 . S
H4223 C4201 0.950 . S
C4224 C4225 1.349 . S
C4224 C4226 1.327 . S
C4224 H4249 0.950 . S
C4225 C4224 1.349 . S
C4225 C4241 1.349 . S
C4226 C4224 1.327 . S
C4226 C4245 1.429 . S
C4226 H4250 0.950 . S
C4227 C4244 1.574 . S
C4227 C4246 1.368 . S
C4227 H4251 0.949 . S
H4228 C4232 0.949 . S
C4229 C4230 1.349 . S
C4229 C4231 1.327 . S
C4229 H4252 0.950 . S
C4230 C4229 1.349 . S
C4230 C4242 1.349 . S
C4231 C4229 1.327 . S
C4231 C4247 1.429 . S
C4231 H4253 0.950 . S
C4232 H4228 0.949 . S
C4232 C4240 1.574 . S
C4232 C4248 1.368 . S
H4233 C4241 0.950 . S
H4234 C4239 0.950 . S
H4235 C4240 0.949 . S
H4236 C4242 0.950 . S
H4237 C4243 0.950 . S
H4238 C4244 0.949 . S
C4239 H4234 0.950 . S
C4239 C4241 1.327 . S
C4239 C4245 1.429 . S
C4240 C4232 1.574 . S
C4240 H4235 0.949 . S
C4240 C4246 1.368 . S
C4241 C4225 1.349 . S
C4241 H4233 0.950 . S
C4241 C4239 1.327 . S
C4242 C4230 1.349 . S
C4242 H4236 0.950 . S
C4242 C4243 1.327 . S
C4243 H4237 0.950 . S
C4243 C4242 1.327 . S
C4243 C4247 1.429 . S
C4244 C4227 1.574 . S
C4244 H4238 0.949 . S
C4244 C4248 1.368 . S
C4245 C4226 1.429 . S
C4245 C4239 1.429 . S
C4245 C4246 1.523 . S
C4246 C4227 1.368 . S
C4246 C4240 1.368 . S
C4246 C4245 1.523 . S
C4247 C4231 1.429 . S
C4247 C4243 1.429 . S
C4247 C4248 1.523 . S
C4248 C4232 1.368 . S
C4248 C4244 1.368 . S
C4248 C4247 1.523 . S
H4249 C4224 0.950 . S
H4250 C4226 0.950 . S
H4251 C4227 0.949 . S
H4252 C4229 0.950 . S
H4253 C4231 0.950 . S
C4254 C4255 1.349 . S
C4254 C4256 1.327 . S
C4254 H4279 0.950 . S
C4255 C4254 1.349 . S
C4255 C4271 1.349 . S
C4256 C4254 1.327 . S
C4256 C4275 1.429 . S
C4256 H4280 0.950 . S
C4257 C4274 1.574 . S
C4257 C4276 1.368 . S
C4257 H4281 0.949 . S
H4258 C4262 0.949 . S
C4259 C4260 1.349 . S
C4259 C4261 1.327 . S
C4259 H4282 0.950 . S
C4260 C4259 1.349 . S
C4260 C4272 1.349 . S
C4261 C4259 1.327 . S
C4261 C4277 1.429 . S
C4261 H4283 0.950 . S
C4262 H4258 0.949 . S
C4262 C4270 1.574 . S
C4262 C4278 1.368 . S
H4263 C4271 0.950 . S
H4264 C4269 0.950 . S
H4265 C4270 0.949 . S
H4266 C4272 0.950 . S
H4267 C4273 0.950 . S
H4268 C4274 0.949 . S
C4269 H4264 0.950 . S
C4269 C4271 1.327 . S
C4269 C4275 1.429 . S
C4270 C4262 1.574 . S
C4270 H4265 0.949 . S
C4270 C4276 1.368 . S
C4271 C4255 1.349 . S
C4271 H4263 0.950 . S
C4271 C4269 1.327 . S
C4272 C4260 1.349 . S
C4272 H4266 0.950 . S
C4272 C4273 1.327 . S
C4273 H4267 0.950 . S
C4273 C4272 1.327 . S
C4273 C4277 1.429 . S
C4274 C4257 1.574 . S
C4274 H4268 0.949 . S
C4274 C4278 1.368 . S
C4275 C4256 1.429 . S
C4275 C4269 1.429 . S
C4275 C4276 1.523 . S
C4276 C4257 1.368 . S
C4276 C4270 1.368 . S
C4276 C4275 1.523 . S
C4277 C4261 1.429 . S
C4277 C4273 1.429 . S
C4277 C4278 1.523 . S
C4278 C4262 1.368 . S
C4278 C4274 1.368 . S
C4278 C4277 1.523 . S
H4279 C4254 0.950 . S
H4280 C4256 0.950 . S
H4281 C4257 0.949 . S
H4282 C4259 0.950 . S
H4283 C4261 0.950 . S
C4284 C4285 1.349 . S
C4284 C4286 1.327 . S
C4284 H4309 0.950 . S
C4285 C4284 1.349 . S
C4285 C4301 1.349 . S
C4286 C4284 1.327 . S
C4286 C4305 1.429 . S
C4286 H4310 0.950 . S
C4287 C4304 1.574 . S
C4287 C4306 1.368 . S
C4287 H4311 0.949 . S
H4288 C4292 0.949 . S
C4289 C4290 1.349 . S
C4289 C4291 1.327 . S
C4289 H4312 0.950 . S
C4290 C4289 1.349 . S
C4290 C4302 1.349 . S
C4291 C4289 1.327 . S
C4291 C4307 1.429 . S
C4291 H4313 0.950 . S
C4292 H4288 0.949 . S
C4292 C4300 1.574 . S
C4292 C4308 1.368 . S
H4293 C4301 0.950 . S
H4294 C4299 0.950 . S
H4295 C4300 0.949 . S
H4296 C4302 0.950 . S
H4297 C4303 0.950 . S
H4298 C4304 0.949 . S
C4299 H4294 0.950 . S
C4299 C4301 1.327 . S
C4299 C4305 1.429 . S
C4300 C4292 1.574 . S
C4300 H4295 0.949 . S
C4300 C4306 1.368 . S
C4301 C4285 1.349 . S
C4301 H4293 0.950 . S
C4301 C4299 1.327 . S
C4302 C4290 1.349 . S
C4302 H4296 0.950 . S
C4302 C4303 1.327 . S
C4303 H4297 0.950 . S
C4303 C4302 1.327 . S
C4303 C4307 1.429 . S
C4304 C4287 1.574 . S
C4304 H4298 0.949 . S
C4304 C4308 1.368 . S
C4305 C4286 1.429 . S
C4305 C4299 1.429 . S
C4305 C4306 1.523 . S
C4306 C4287 1.368 . S
C4306 C4300 1.368 . S
C4306 C4305 1.523 . S
C4307 C4291 1.429 . S
C4307 C4303 1.429 . S
C4307 C4308 1.523 . S
C4308 C4292 1.368 . S
C4308 C4304 1.368 . S
C4308 C4307 1.523 . S
H4309 C4284 0.950 . S
H4310 C4286 0.950 . S
H4311 C4287 0.949 . S
H4312 C4289 0.950 . S
H4313 C4291 0.950 . S
C4314 C4315 1.349 . S
C4314 C4316 1.327 . S
C4314 H4339 0.950 . S
C4315 C4314 1.349 . S
C4315 C4331 1.349 . S
C4316 C4314 1.327 . S
C4316 C4335 1.429 . S
C4316 H4340 0.950 . S
C4317 C4334 1.574 . S
C4317 C4336 1.368 . S
C4317 H4341 0.949 . S
H4318 C4322 0.949 . S
C4319 C4320 1.349 . S
C4319 C4321 1.327 . S
C4319 H4342 0.950 . S
C4320 C4319 1.349 . S
C4320 C4332 1.349 . S
C4321 C4319 1.327 . S
C4321 C4337 1.429 . S
C4321 H4343 0.950 . S
C4322 H4318 0.949 . S
C4322 C4330 1.574 . S
C4322 C4338 1.368 . S
H4323 C4331 0.950 . S
H4324 C4329 0.950 . S
H4325 C4330 0.949 . S
H4326 C4332 0.950 . S
H4327 C4333 0.950 . S
H4328 C4334 0.949 . S
C4329 H4324 0.950 . S
C4329 C4331 1.327 . S
C4329 C4335 1.429 . S
C4330 C4322 1.574 . S
C4330 H4325 0.949 . S
C4330 C4336 1.368 . S
C4331 C4315 1.349 . S
C4331 H4323 0.950 . S
C4331 C4329 1.327 . S
C4332 C4320 1.349 . S
C4332 H4326 0.950 . S
C4332 C4333 1.327 . S
C4333 H4327 0.950 . S
C4333 C4332 1.327 . S
C4333 C4337 1.429 . S
C4334 C4317 1.574 . S
C4334 H4328 0.949 . S
C4334 C4338 1.368 . S
C4335 C4316 1.429 . S
C4335 C4329 1.429 . S
C4335 C4336 1.523 . S
C4336 C4317 1.368 . S
C4336 C4330 1.368 . S
C4336 C4335 1.523 . S
C4337 C4321 1.429 . S
C4337 C4333 1.429 . S
C4337 C4338 1.523 . S
C4338 C4322 1.368 . S
C4338 C4334 1.368 . S
C4338 C4337 1.523 . S
H4339 C4314 0.950 . S
H4340 C4316 0.950 . S
H4341 C4317 0.949 . S
H4342 C4319 0.950 . S
H4343 C4321 0.950 . S
C4344 C4345 1.349 . S
C4344 C4346 1.327 . S
C4344 H4369 0.950 . S
C4345 C4344 1.349 . S
C4345 C4361 1.349 . S
C4346 C4344 1.327 . S
C4346 C4365 1.429 . S
C4346 H4370 0.950 . S
C4347 C4364 1.574 . S
C4347 C4366 1.368 . S
C4347 H4371 0.949 . S
H4348 C4352 0.949 . S
C4349 C4350 1.349 . S
C4349 C4351 1.327 . S
C4349 H4372 0.950 . S
C4350 C4349 1.349 . S
C4350 C4362 1.349 . S
C4351 C4349 1.327 . S
C4351 C4367 1.429 . S
C4351 H4373 0.950 . S
C4352 H4348 0.949 . S
C4352 C4360 1.574 . S
C4352 C4368 1.368 . S
H4353 C4361 0.950 . S
H4354 C4359 0.950 . S
H4355 C4360 0.949 . S
H4356 C4362 0.950 . S
H4357 C4363 0.950 . S
H4358 C4364 0.949 . S
C4359 H4354 0.950 . S
C4359 C4361 1.327 . S
C4359 C4365 1.429 . S
C4360 C4352 1.574 . S
C4360 H4355 0.949 . S
C4360 C4366 1.368 . S
C4361 C4345 1.349 . S
C4361 H4353 0.950 . S
C4361 C4359 1.327 . S
C4362 C4350 1.349 . S
C4362 H4356 0.950 . S
C4362 C4363 1.327 . S
C4363 H4357 0.950 . S
C4363 C4362 1.327 . S
C4363 C4367 1.429 . S
C4364 C4347 1.574 . S
C4364 H4358 0.949 . S
C4364 C4368 1.368 . S
C4365 C4346 1.429 . S
C4365 C4359 1.429 . S
C4365 C4366 1.523 . S
C4366 C4347 1.368 . S
C4366 C4360 1.368 . S
C4366 C4365 1.523 . S
C4367 C4351 1.429 . S
C4367 C4363 1.429 . S
C4367 C4368 1.523 . S
C4368 C4352 1.368 . S
C4368 C4364 1.368 . S
C4368 C4367 1.523 . S
H4369 C4344 0.950 . S
H4370 C4346 0.950 . S
H4371 C4347 0.949 . S
H4372 C4349 0.950 . S
H4373 C4351 0.950 . S
C4374 C4375 1.349 . S
C4374 C4376 1.327 . S
C4374 H4399 0.950 . S
C4375 C4374 1.349 . S
C4375 C4391 1.349 . S
C4376 C4374 1.327 . S
C4376 C4395 1.429 . S
C4376 H4400 0.950 . S
C4377 C4394 1.574 . S
C4377 C4396 1.368 1_455 S
C4377 H4401 0.949 . S
H4378 C4382 0.949 . S
C4379 C4380 1.349 1_455 S
C4379 C4381 1.327 . S
C4379 H4402 0.950 . S
C4380 C4379 1.349 1_655 S
C4380 C4392 1.349 . S
C4381 C4379 1.327 . S
C4381 C4397 1.429 1_455 S
C4381 H4403 0.950 . S
C4382 H4378 0.949 . S
C4382 C4390 1.574 . S
C4382 C4398 1.368 . S
H4383 C4391 0.950 1_455 S
H4384 C4389 0.948 1_455 S
H4385 C4390 0.949 . S
H4386 C4392 0.950 . S
H4387 C4393 0.950 . S
H4388 C4394 0.949 . S
C4389 H4384 0.948 1_655 S
C4389 C4391 1.328 . S
C4389 C4395 1.429 . S
C4390 C4382 1.574 . S
C4390 H4385 0.949 . S
C4390 C4396 1.368 . S
C4391 C4375 1.349 . S
C4391 H4383 0.950 1_655 S
C4391 C4389 1.328 . S
C4392 C4380 1.349 . S
C4392 H4386 0.950 . S
C4392 C4393 1.327 . S
C4393 H4387 0.950 . S
C4393 C4392 1.327 . S
C4393 C4397 1.429 . S
C4394 C4377 1.574 . S
C4394 H4388 0.949 . S
C4394 C4398 1.368 1_455 S
C4395 C4376 1.429 . S
C4395 C4389 1.429 . S
C4395 C4396 1.523 . S
C4396 C4377 1.368 1_655 S
C4396 C4390 1.368 . S
C4396 C4395 1.523 . S
C4397 C4381 1.429 1_655 S
C4397 C4393 1.429 . S
C4397 C4398 1.523 . S
C4398 C4382 1.368 . S
C4398 C4394 1.368 1_655 S
C4398 C4397 1.523 . S
H4399 C4374 0.950 . S
H4400 C4376 0.950 . S
H4401 C4377 0.949 . S
H4402 C4379 0.950 . S
H4403 C4381 0.950 . S
C4404 C4405 1.349 . S
C4404 C4406 1.327 . S
C4404 H4429 0.950 . S
C4405 C4404 1.349 . S
C4405 C4421 1.349 . S
C4406 C4404 1.327 . S
C4406 C4425 1.429 . S
C4406 H4430 0.950 . S
C4407 C4424 1.574 . S
C4407 C4426 1.368 . S
C4407 H4431 0.949 . S
H4408 C4412 0.949 . S
C4409 C4410 1.349 . S
C4409 C4411 1.327 . S
C4409 H4432 0.950 . S
C4410 C4409 1.349 . S
C4410 C4422 1.349 . S
C4411 C4409 1.327 . S
C4411 C4427 1.429 . S
C4411 H4433 0.950 . S
C4412 H4408 0.949 . S
C4412 C4420 1.574 . S
C4412 C4428 1.368 . S
H4413 C4421 0.950 . S
H4414 C4419 0.950 . S
H4415 C4420 0.949 . S
H4416 C4422 0.950 . S
H4417 C4423 0.950 . S
H4418 C4424 0.949 . S
C4419 H4414 0.950 . S
C4419 C4421 1.327 . S
C4419 C4425 1.429 . S
C4420 C4412 1.574 . S
C4420 H4415 0.949 . S
C4420 C4426 1.368 . S
C4421 C4405 1.349 . S
C4421 H4413 0.950 . S
C4421 C4419 1.327 . S
C4422 C4410 1.349 . S
C4422 H4416 0.950 . S
C4422 C4423 1.327 . S
C4423 H4417 0.950 . S
C4423 C4422 1.327 . S
C4423 C4427 1.429 . S
C4424 C4407 1.574 . S
C4424 H4418 0.949 . S
C4424 C4428 1.368 . S
C4425 C4406 1.429 . S
C4425 C4419 1.429 . S
C4425 C4426 1.523 . S
C4426 C4407 1.368 . S
C4426 C4420 1.368 . S
C4426 C4425 1.523 . S
C4427 C4411 1.429 . S
C4427 C4423 1.429 . S
C4427 C4428 1.523 . S
C4428 C4412 1.368 . S
C4428 C4424 1.368 . S
C4428 C4427 1.523 . S
H4429 C4404 0.950 . S
H4430 C4406 0.950 . S
H4431 C4407 0.949 . S
H4432 C4409 0.950 . S
H4433 C4411 0.950 . S
C4434 C4435 1.349 . S
C4434 C4436 1.327 . S
C4434 H4459 0.950 . S
C4435 C4434 1.349 . S
C4435 C4451 1.349 . S
C4436 C4434 1.327 . S
C4436 C4455 1.429 . S
C4436 H4460 0.950 . S
C4437 C4454 1.574 . S
C4437 C4456 1.368 1_565 S
C4437 H4461 0.949 . S
H4438 C4442 0.949 . S
C4439 C4440 1.349 1_565 S
C4439 C4441 1.327 . S
C4439 H4462 0.950 . S
C4440 C4439 1.349 1_545 S
C4440 C4452 1.349 . S
C4441 C4439 1.327 . S
C4441 C4457 1.429 1_565 S
C4441 H4463 0.950 . S
C4442 H4438 0.949 . S
C4442 C4450 1.574 . S
C4442 C4458 1.368 . S
H4443 C4451 0.950 1_565 S
H4444 C4449 0.967 . S
H4445 C4450 0.949 . S
H4446 C4452 0.950 . S
H4447 C4453 0.950 . S
H4448 C4454 0.949 . S
C4449 H4444 0.967 . S
C4449 C4451 1.335 1_565 S
C4449 C4455 1.404 1_565 S
C4450 C4442 1.574 . S
C4450 H4445 0.949 . S
C4450 C4456 1.368 . S
C4451 C4435 1.349 . S
C4451 H4443 0.950 1_545 S
C4451 C4449 1.335 1_545 S
C4452 C4440 1.349 . S
C4452 H4446 0.950 . S
C4452 C4453 1.327 . S
C4453 H4447 0.950 . S
C4453 C4452 1.327 . S
C4453 C4457 1.429 . S
C4454 C4437 1.574 . S
C4454 H4448 0.949 . S
C4454 C4458 1.368 1_565 S
C4455 C4436 1.429 . S
C4455 C4449 1.404 1_545 S
C4455 C4456 1.523 . S
C4456 C4437 1.368 1_545 S
C4456 C4450 1.368 . S
C4456 C4455 1.523 . S
C4457 C4441 1.429 1_545 S
C4457 C4453 1.429 . S
C4457 C4458 1.523 . S
C4458 C4442 1.368 . S
C4458 C4454 1.368 1_545 S
C4458 C4457 1.523 . S
H4459 C4434 0.950 . S
H4460 C4436 0.950 . S
H4461 C4437 0.949 . S
H4462 C4439 0.950 . S
H4463 C4441 0.950 . S
C2305 C9 1.291 . S
C2310 C1307 1.041 . S
C2335 C19 1.690 . S
C2340 C1447 1.109 . S
C2370 C1535 1.149 . S
C2365 C33 1.391 . S
C2395 C37 1.394 1_565 S
C2400 C1675 1.057 1_565 S
C2425 C5 1.349 . S
C2430 C1789 1.064 . S
C2455 C23 1.748 . S
C2460 C1877 1.304 . S
C2485 C47 1.296 . S
C2490 C1763 1.093 . S
C2520 C1903 1.389 . S
C2515 C65 1.665 . S
C2550 C1649 1.124 . S
C2545 C75 1.346 . S
C2575 C79 1.322 . S
C2580 C1561 1.043 . S
C2610 C1333 1.051 . S
C2605 C51 1.377 . S
C2635 C61 1.636 . S
C2640 C1421 1.457 . S
C2665 C93 1.856 . S
C2670 C1991 1.375 . S
C2695 C103 1.777 . S
C2700 C2131 1.183 . S
C2730 C2219 1.324 . S
C2725 C117 1.762 . S
C2755 C121 1.805 . S
C2760 C307 1.185 . S
C2785 C89 1.823 . S
C2790 C421 1.200 . S
C2815 C107 1.822 . S
C2820 C509 1.368 . S
C2845 C131 1.543 . S
C2850 C395 1.373 . S
C2875 C149 1.730 . S
C2880 C535 1.473 . S
C2910 C281 1.490 . S
C2905 C159 1.670 . S
C2940 C2245 1.589 . S
C2935 C163 1.860 . S
C2970 C2017 1.482 . S
C2965 C135 1.749 . S
C3000 C2105 1.559 . S
C2995 C145 1.724 . S
C3025 C177 1.671 . S
C3030 C623 1.216 . S
C3055 C187 1.755 . S
C3060 C763 1.155 . S
C3085 C201 1.813 . S
C3090 C851 1.364 . S
C3115 C205 1.989 . S
C3120 C991 1.341 . S
C3150 C1105 1.169 . S
C3145 C173 1.785 . S
C3180 C1193 1.400 . S
C3175 C191 1.857 . S
C3210 C1079 1.560 . S
C3205 C215 1.747 . S
C3240 C1219 1.496 . S
C3235 C233 1.762 . S
C3265 C243 1.612 . S
C3270 C965 1.442 . S
C3300 C877 1.408 . S
C3295 C247 1.655 . S
C3325 C219 1.796 . S
C3330 C649 1.519 . S
C3360 C737 1.543 . S
C3355 C229 1.707 . S
C3390 C263 1.014 . S
C3385 C11 1.807 . S
C3415 C14 1.580 . S
C3420 C377 0.879 . S
C3450 C481 1.311 . S
C3445 C28 1.801 . S
C3480 C595 1.238 . S
C3475 C39 1.704 . S
C3510 C719 1.006 . S
C3505 C0 1.770 . S
C3540 C823 1.127 . S
C3535 C25 1.587 . S
C3565 C42 1.987 . S
C3570 C833 1.469 . S
C3595 C67 1.706 . S
C3600 C605 1.266 . S
C3625 C70 1.749 . S
C3630 C709 1.507 . S
C3655 C81 1.703 . S
C3660 C367 1.481 . S
C3690 C491 1.439 . S
C3685 C53 1.913 . S
C3715 C56 1.746 . S
C3720 C253 1.502 . S
C3750 C947 0.975 . S
C3745 C95 1.706 . S
C3775 C98 1.803 . S
C3780 C1061 1.056 . S
C3805 C112 1.855 1_655 S
C3810 C1165 1.398 . S
C3840 C1279 0.987 . S
C3835 C123 1.209 . S
C3865 C84 1.676 . S
C3870 C1403 0.958 . S
C3895 C109 1.250 . S
C3900 C1507 1.023 . S
C3925 C126 1.480 . S
C3930 C1517 0.946 1_565 S
C3955 C151 1.313 . S
C3960 C1289 0.875 1_455 S
C3990 C1393 1.447 . S
C3985 C154 1.691 . S
C4015 C165 1.602 . S
C4020 C1051 1.392 . S
C4045 C137 1.922 . S
C4050 C1175 1.453 . S
C4080 C937 1.691 . S
C4075 C140 1.949 . S
C4110 C1631 0.898 . S
C4105 C179 1.405 . S
C4135 C182 1.287 . S
C4140 C1745 0.862 . S
C4165 C196 1.719 . S
C4170 C1849 1.261 . S
C4200 C1963 1.183 . S
C4195 C207 1.606 . S
C4230 C2087 1.080 . S
C4225 C168 1.803 . S
C4255 C193 1.772 . S
C4260 C2191 1.320 . S
C4285 C210 1.902 . S
C4290 C2201 1.406 . S
C4315 C235 1.921 . S
C4320 C1973 1.442 . S
C4350 C2077 1.567 . S
C4345 C238 1.803 . S
C4380 C1735 0.953 1_655 S
C4375 C249 1.131 . S
C4410 C1859 1.333 . S
C4405 C221 1.802 . S
C4435 C224 1.349 . S
C4440 C1621 1.104 1_545 S
