# Generated by pormake.
# Topology zzz, (3,6)-cn, num edge types: 1
# Building blocks:
#     Node 0, Type 0, BuildingBlock: VETTIZ_charged_linker_0, # of connection points: 3
#     Node 1, Type 0, BuildingBlock: VETTIZ_charged_linker_0, # of connection points: 3
#     Node 2, Type 0, BuildingBlock: VETTIZ_charged_linker_0, # of connection points: 3
#     Node 3, Type 0, BuildingBlock: VETTIZ_charged_linker_0, # of connection points: 3
#     Node 4, Type 0, BuildingBlock: VETTIZ_charged_linker_0, # of connection points: 3
#     Node 5, Type 0, BuildingBlock: VETTIZ_charged_linker_0, # of connection points: 3
#     Node 6, Type 0, BuildingBlock: VETTIZ_charged_linker_0, # of connection points: 3
#     Node 7, Type 0, BuildingBlock: VETTIZ_charged_linker_0, # of connection points: 3
#     Node 8, Type 1, BuildingBlock: BETGAK_clean_sbu_0, # of connection points: 6
#     Node 9, Type 1, BuildingBlock: BETGAK_clean_sbu_0, # of connection points: 6
#     Node 10, Type 1, BuildingBlock: BETGAK_clean_sbu_0, # of connection points: 6
#     Node 11, Type 1, BuildingBlock: BETGAK_clean_sbu_0, # of connection points: 6
#     Edge 12, Type (0, 1), BuildingBlock: AJUNOK_clean_linker_0, # of connection points: 2
#     Edge 13, Type (0, 1), BuildingBlock: AJUNOK_clean_linker_0, # of connection points: 2
#     Edge 14, Type (0, 1), BuildingBlock: AJUNOK_clean_linker_0, # of connection points: 2
#     Edge 15, Type (0, 1), BuildingBlock: AJUNOK_clean_linker_0, # of connection points: 2
#     Edge 16, Type (0, 1), BuildingBlock: AJUNOK_clean_linker_0, # of connection points: 2
#     Edge 17, Type (0, 1), BuildingBlock: AJUNOK_clean_linker_0, # of connection points: 2
#     Edge 18, Type (0, 1), BuildingBlock: AJUNOK_clean_linker_0, # of connection points: 2
#     Edge 19, Type (0, 1), BuildingBlock: AJUNOK_clean_linker_0, # of connection points: 2
#     Edge 20, Type (0, 1), BuildingBlock: AJUNOK_clean_linker_0, # of connection points: 2
#     Edge 21, Type (0, 1), BuildingBlock: AJUNOK_clean_linker_0, # of connection points: 2
#     Edge 22, Type (0, 1), BuildingBlock: AJUNOK_clean_linker_0, # of connection points: 2
#     Edge 23, Type (0, 1), BuildingBlock: AJUNOK_clean_linker_0, # of connection points: 2
#     Edge 24, Type (0, 1), BuildingBlock: AJUNOK_clean_linker_0, # of connection points: 2
#     Edge 25, Type (0, 1), BuildingBlock: AJUNOK_clean_linker_0, # of connection points: 2
#     Edge 26, Type (0, 1), BuildingBlock: AJUNOK_clean_linker_0, # of connection points: 2
#     Edge 27, Type (0, 1), BuildingBlock: AJUNOK_clean_linker_0, # of connection points: 2
#     Edge 28, Type (0, 1), BuildingBlock: AJUNOK_clean_linker_0, # of connection points: 2
#     Edge 29, Type (0, 1), BuildingBlock: AJUNOK_clean_linker_0, # of connection points: 2
#     Edge 30, Type (0, 1), BuildingBlock: AJUNOK_clean_linker_0, # of connection points: 2
#     Edge 31, Type (0, 1), BuildingBlock: AJUNOK_clean_linker_0, # of connection points: 2
#     Edge 32, Type (0, 1), BuildingBlock: AJUNOK_clean_linker_0, # of connection points: 2
#     Edge 33, Type (0, 1), BuildingBlock: AJUNOK_clean_linker_0, # of connection points: 2
#     Edge 34, Type (0, 1), BuildingBlock: AJUNOK_clean_linker_0, # of connection points: 2
#     Edge 35, Type (0, 1), BuildingBlock: AJUNOK_clean_linker_0, # of connection points: 2
# Relax obj value: 0.517
# Max RMSD: 0.266
# Mean RMSD: 0.257
data_MOF--net-zzz--node1-BETGAK_clean_sbu_0--node2-VETTIZ_charged_linker_0--edge1-AJUNOK_clean_linker_0
_symmetry_space_group_name_H-M    P1
_symmetry_Int_Tables_number       1
_symmetry_cell_setting            triclinic
loop_
_symmetry_equiv_pos_as_xyz
'x, y, z'
_cell_length_a     46.401425
_cell_length_b     46.394236
_cell_length_c     14.709542
_cell_angle_alpha  89.809742
_cell_angle_beta   89.835366
_cell_angle_gamma 90.082826
loop_
_atom_site_label
_atom_site_type_symbol
_atom_site_fract_x
_atom_site_fract_y
_atom_site_fract_z
_atom_type_partial_charge
C0 C 0.83153 0.52349 0.43701 0.0
C1 C 0.85135 0.50638 0.4902 0.0
C2 C 0.84527 0.47673 0.49967 0.0
C3 C 0.80723 0.47998 0.38928 0.0
C4 C 0.80839 0.50944 0.38918 0.0
C5 C 0.78164 0.52081 0.3367 0.0
H6 H 0.6684 0.47356 0.05042 0.0
C7 C 0.78607 0.46993 0.32388 0.0
C8 C 0.7682 0.49283 0.29649 0.0
H9 H 0.67202 0.55871 0.16556 0.0
H10 H 0.71783 0.54622 0.24282 0.0
H11 H 0.72706 0.47668 0.98718 0.0
H12 H 0.68947 0.43474 0.21579 0.0
H13 H 0.71344 0.41006 0.16507 0.0
H14 H 0.68471 0.4252 0.09834 0.0
H15 H 0.71829 0.43938 0.98148 0.0
H16 H 0.75381 0.45161 0.01448 0.0
C17 C 0.79085 0.54179 0.26105 0.0
C18 C 0.76111 0.53525 0.40484 0.0
C19 C 0.82274 0.39122 0.12294 0.0
C20 C 0.81277 0.38165 0.03821 0.0
C21 C 0.78341 0.38461 0.01718 0.0
C22 C 0.76524 0.40037 0.07476 0.0
C23 C 0.77704 0.41434 0.151 0.0
C24 C 0.80485 0.40816 0.17715 0.0
C25 C 0.81416 0.42505 0.2589 0.0
C26 C 0.78774 0.44437 0.27246 0.0
C27 C 0.76688 0.43877 0.20676 0.0
C28 C 0.84153 0.44279 0.23487 0.0
C29 C 0.81956 0.40355 0.33777 0.0
C30 C 0.67814 0.4895 0.09444 0.0
C31 C 0.66566 0.51679 0.1028 0.0
C32 C 0.68068 0.53721 0.15766 0.0
C33 C 0.70702 0.52998 0.2034 0.0
C34 C 0.71886 0.50211 0.19394 0.0
C35 C 0.70418 0.4829 0.13833 0.0
C36 C 0.7204 0.45573 0.12318 0.0
C37 C 0.74518 0.45942 0.1885 0.0
C38 C 0.74542 0.48688 0.23078 0.0
C39 C 0.73037 0.45557 0.02175 0.0
C40 C 0.70104 0.42992 0.15132 0.0
H41 H 0.81754 0.44171 0.46566 0.0
H42 H 0.8339 0.54667 0.43363 0.0
H43 H 0.75483 0.51982 0.4594 0.0
H44 H 0.74123 0.54285 0.37148 0.0
H45 H 0.77174 0.55411 0.43705 0.0
H46 H 0.80616 0.53114 0.21362 0.0
H47 H 0.8016 0.56106 0.29024 0.0
H48 H 0.77183 0.54905 0.22153 0.0
H49 H 0.8452 0.38876 0.14115 0.0
H50 H 0.77517 0.3769 0.95286 0.0
H51 H 0.74323 0.40265 0.05446 0.0
H52 H 0.83742 0.45725 0.17587 0.0
H53 H 0.85993 0.42852 0.21785 0.0
H54 H 0.84888 0.45623 0.29219 0.0
H55 H 0.80018 0.4013 0.38181 0.0
H56 H 0.83835 0.41003 0.37946 0.0
H57 H 0.82505 0.38163 0.31272 0.0
H58 H 0.85833 0.46316 0.54318 0.0
C59 C 0.82284 0.46383 0.45194 0.0
C60 C 0.96706 0.79814 0.89649 0.0
C61 C 0.97202 0.82776 0.88561 0.0
C62 C 0.95875 0.84691 0.94719 0.0
C63 C 0.95248 0.80748 0.0512 0.0
C64 C 0.95806 0.78817 0.98224 0.0
C65 C 0.96 0.75785 0.01784 0.0
H66 H 0.03769 0.67669 0.18124 0.0
C67 C 0.9578 0.79301 0.13858 0.0
C68 C 0.9596 0.76357 0.12104 0.0
H69 H 0.95454 0.65486 0.06443 0.0
H70 H 0.93478 0.70021 0.12309 0.0
H71 H 0.04193 0.75038 0.15899 0.0
H72 H 0.99371 0.71556 0.3889 0.0
H73 H 0.02508 0.7375 0.40851 0.0
H74 H 0.0293 0.70175 0.36652 0.0
H75 H 0.05968 0.72584 0.23588 0.0
H76 H 0.05062 0.76175 0.27271 0.0
C77 C 0.98847 0.7436 0.98525 0.0
C78 C 0.93338 0.74115 0.98363 0.0
C79 C 0.99305 0.85771 0.38995 0.0
C80 C 1.00841 0.85458 0.47116 0.0
C81 C 0.02046 0.82689 0.48905 0.0
C82 C 0.01605 0.80304 0.42842 0.0
C83 C 0.99985 0.80681 0.34794 0.0
C84 C 0.98897 0.83421 0.33115 0.0
C85 C 0.97236 0.83596 0.24477 0.0
C86 C 0.97174 0.80455 0.2165 0.0
C87 C 0.98877 0.78679 0.27397 0.0
C88 C 0.98969 0.85559 0.1777 0.0
C89 C 0.94156 0.84699 0.26624 0.0
C90 C 0.01524 0.68148 0.1687 0.0
C91 C 0.99798 0.66262 0.11291 0.0
C92 C 0.96848 0.66907 0.10284 0.0
C93 C 0.95719 0.695 0.13438 0.0
C94 C 0.97559 0.71475 0.17513 0.0
C95 C 1.00259 0.70753 0.20348 0.0
C96 C 0.01381 0.7324 0.26467 0.0
C97 C 0.99023 0.7561 0.25285 0.0
C98 C 0.97081 0.74517 0.18841 0.0
C99 C 0.04329 0.74321 0.23105 0.0
C100 C 0.01551 0.72129 0.36297 0.0
H101 H 0.94056 0.85188 0.07908 0.0
H102 H 0.97517 0.78335 0.84588 0.0
H103 H 0.92812 0.74729 0.91242 0.0
H104 H 0.91417 0.74567 0.02654 0.0
H105 H 0.93722 0.71763 0.98162 0.0
H106 H 1.00744 0.75515 0.01327 0.0
H107 H 0.99014 0.74326 0.9101 0.0
H108 H 0.98997 0.72074 1.00563 0.0
H109 H 0.9841 0.8785 0.37185 0.0
H110 H 0.03261 0.8235 0.55087 0.0
H111 H 0.025 0.78241 0.44575 0.0
H112 H 1.00874 0.86596 0.20977 0.0
H113 H 0.9765 0.87373 0.15166 0.0
H114 H 0.99855 0.84319 0.11955 0.0
H115 H 0.93329 0.83727 0.33049 0.0
H116 H 0.9258 0.84091 0.21338 0.0
H117 H 0.94133 0.87079 0.27408 0.0
H118 H 0.96051 0.87004 0.9382 0.0
C119 C 0.94849 0.83662 0.0305 0.0
C120 C 0.85524 1.00253 0.17379 0.0
C121 C 0.87043 0.9906 0.09625 0.0
C122 C 0.85509 0.97168 0.03907 0.0
C123 C 0.81115 0.98177 0.11799 0.0
C124 C 0.8249 0.99654 0.18513 0.0
C125 C 0.80203 1.00333 0.26033 0.0
H126 H 0.65111 0.99234 0.34047 0.0
C127 C 0.78044 0.98334 0.12959 0.0
C128 C 0.77317 0.99286 0.21695 0.0
H129 H 0.71133 0.01753 0.54812 0.0
H130 H 0.75164 1.01156 0.43799 0.0
H131 H 0.6881 0.03072 0.11947 0.0
H132 H 0.68538 0.94443 0.2332 0.0
H133 H 0.67871 0.95317 0.11772 0.0
H134 H 0.65266 0.9629 0.2031 0.0
H135 H 0.66581 0.03131 0.21673 0.0
H136 H 0.65508 1.00989 0.12421 0.0
C137 C 0.8011 0.03582 0.27965 0.0
C138 C 0.80924 0.98604 0.34645 0.0
C139 C 0.72861 0.02583 0.86753 0.0
C140 C 0.69934 0.03202 0.85797 0.0
C141 C 0.67878 0.01473 0.90337 0.0
C142 C 0.68753 0.99563 0.97165 0.0
C143 C 0.71675 0.99473 0.99429 0.0
C144 C 0.73691 1.00663 0.93612 0.0
C145 C 0.76697 0.99993 0.96561 0.0
C146 C 0.7608 0.98558 0.058 0.0
C147 C 0.73151 0.98558 0.07773 0.0
C148 C 0.7846 0.02815 0.97528 0.0
C149 C 0.78043 0.97972 0.89389 0.0
C150 C 0.67263 0.99729 0.36392 0.0
C151 C 0.67709 1.00656 0.4535 0.0
C152 C 0.70645 1.0109 0.47948 0.0
C153 C 0.7299 1.00738 0.41597 0.0
C154 C 0.7242 0.99955 0.32486 0.0
C155 C 0.69552 0.99527 0.30151 0.0
C156 C 0.69136 0.99052 0.20218 0.0
C157 C 0.7223 0.98929 0.16936 0.0
C158 C 0.74253 0.99449 0.24022 0.0
C159 C 0.67433 0.01676 0.16309 0.0
C160 C 0.67606 0.96124 0.18791 0.0
H161 H 0.81485 0.95141 1.00849 0.0
H162 H 0.8665 0.01577 0.22261 0.0
H163 H 0.80984 0.96259 0.33131 0.0
H164 H 0.79298 0.98963 0.40036 0.0
H165 H 0.83066 0.99253 0.37321 0.0
H166 H 0.7963 0.04803 0.21633 0.0
H167 H 0.82214 0.04339 0.30651 0.0
H168 H 0.78408 0.04075 0.3305 0.0
H169 H 0.7445 0.03837 0.83062 0.0
H170 H 0.65596 0.01875 0.89447 0.0
H171 H 0.67142 0.98379 1.0087 0.0
H172 H 0.77417 0.04292 0.02481 0.0
H173 H 0.78671 0.03951 0.90909 0.0
H174 H 0.80687 0.02386 0.99852 0.0
H175 H 0.77378 0.98596 0.82395 0.0
H176 H 0.77362 0.95702 0.90536 0.0
H177 H 0.80425 0.98118 0.89315 0.0
H178 H 0.86556 0.96123 0.98209 0.0
C179 C 0.82588 0.96667 0.0514 0.0
C180 C 0.52022 0.70793 0.43645 0.0
C181 C 0.5032 0.68711 0.48633 0.0
C182 C 0.47311 0.6909 0.4872 0.0
C183 C 0.47649 0.72935 0.37698 0.0
C184 C 0.50594 0.72993 0.38379 0.0
C185 C 0.51714 0.75717 0.3331 0.0
H186 H 0.47283 0.86779 0.03168 0.0
C187 C 0.46681 0.75026 0.30909 0.0
C188 C 0.48964 0.76896 0.28559 0.0
H189 H 0.55495 0.86758 0.16658 0.0
H190 H 0.54245 0.82118 0.24215 0.0
H191 H 0.4802 0.80614 0.97482 0.0
H192 H 0.43146 0.84689 0.18418 0.0
H193 H 0.40858 0.821 0.13478 0.0
H194 H 0.4239 0.84897 0.06458 0.0
H195 H 0.44385 0.81695 0.95531 0.0
H196 H 0.45269 0.78109 0.99486 0.0
C197 C 0.54038 0.74904 0.2633 0.0
C198 C 0.5287 0.77856 0.40377 0.0
C199 C 0.38652 0.71448 0.11106 0.0
C200 C 0.37789 0.72318 0.02378 0.0
C201 C 0.3836 0.75156 0.99532 0.0
C202 C 0.40052 0.76977 0.0491 0.0
C203 C 0.41291 0.75894 0.12965 0.0
C204 C 0.40474 0.73218 0.16138 0.0
C205 C 0.42069 0.72331 0.2456 0.0
C206 C 0.44172 0.74859 0.25495 0.0
C207 C 0.4373 0.76886 0.18611 0.0
C208 C 0.4365 0.69446 0.22696 0.0
C209 C 0.39851 0.721 0.32448 0.0
C210 C 0.48801 0.85846 0.07927 0.0
C211 C 0.51433 0.87215 0.09501 0.0
C212 C 0.53407 0.85796 0.15421 0.0
C213 C 0.5268 0.83129 0.19862 0.0
C214 C 0.4997 0.81832 0.18285 0.0
C215 C 0.4814 0.83215 0.12201 0.0
C216 C 0.45514 0.81501 0.10186 0.0
C217 C 0.45795 0.79075 0.16988 0.0
C218 C 0.48443 0.79141 0.21777 0.0
C219 C 0.45782 0.8043 1.00178 0.0
C220 C 0.42824 0.83386 0.12164 0.0
H221 H 0.43737 0.71569 0.44397 0.0
H222 H 0.54351 0.70723 0.43928 0.0
H223 H 0.51169 0.78386 0.45439 0.0
H224 H 0.53583 0.79891 0.37171 0.0
H225 H 0.54734 0.76914 0.44067 0.0
H226 H 0.53178 0.73307 0.21411 0.0
H227 H 0.5594 0.73944 0.29768 0.0
H228 H 0.5476 0.76836 0.22473 0.0
H229 H 0.38239 0.69275 0.13473 0.0
H230 H 0.37704 0.75875 0.92836 0.0
H231 H 0.40475 0.7909 0.02276 0.0
H232 H 0.45088 0.69651 0.16664 0.0
H233 H 0.42098 0.67671 0.21432 0.0
H234 H 0.4498 0.68727 0.28468 0.0
H235 H 0.37582 0.72087 0.30025 0.0
H236 H 0.4004 0.73953 0.37182 0.0
H237 H 0.40099 0.70053 0.36294 0.0
H238 H 0.45942 0.67681 0.52742 0.0
C239 C 0.46001 0.71244 0.43597 0.0
C240 C 0.35598 0.51113 0.36593 0.0
C241 C 0.37651 0.5297 0.40994 0.0
C242 C 0.37124 0.55964 0.40716 0.0
C243 C 0.32464 0.552 0.33924 0.0
C244 C 0.33037 0.5233 0.32692 0.0
C245 C 0.30492 0.50959 0.27513 0.0
H246 H 0.15926 0.53364 0.1706 0.0
C247 C 0.29424 0.55765 0.31983 0.0
C248 C 0.28294 0.53468 0.26759 0.0
H249 H 0.21733 0.50481 0.96033 0.0
H250 H 0.25859 0.51094 0.06626 0.0
H251 H 0.17838 0.50305 0.3269 0.0
H252 H 0.19956 0.58788 0.24208 0.0
H253 H 0.1863 0.58517 0.35604 0.0
H254 H 0.16508 0.57172 0.2665 0.0
H255 H 0.16654 0.53294 0.39236 0.0
H256 H 0.20003 0.51501 0.41864 0.0
C257 C 0.29232 0.48422 0.32998 0.0
C258 C 0.31492 0.49964 0.18081 0.0
C259 C 0.24538 0.62065 0.55866 0.0
C260 C 0.21845 0.61752 0.60099 0.0
C261 C 0.20073 0.59376 0.57881 0.0
C262 C 0.20873 0.57471 0.51058 0.0
C263 C 0.23408 0.57999 0.46236 0.0
C264 C 0.25322 0.6007 0.4915 0.0
C265 C 0.2821 0.59754 0.44588 0.0
C266 C 0.27565 0.57295 0.37926 0.0
C267 C 0.24694 0.56437 0.38699 0.0
C268 C 0.30454 0.58974 0.52022 0.0
C269 C 0.28928 0.62581 0.39512 0.0
C270 C 0.18047 0.52773 0.14641 0.0
C271 C 0.18421 0.5184 0.05627 0.0
C272 C 0.21309 0.51209 0.02885 0.0
C273 C 0.23695 0.51498 0.09022 0.0
C274 C 0.23211 0.52391 0.18058 0.0
C275 C 0.20407 0.5308 0.2055 0.0
C276 C 0.20238 0.54388 0.29835 0.0
C277 C 0.23427 0.54635 0.32131 0.0
C278 C 0.25194 0.53255 0.25725 0.0
C279 C 0.18603 0.52275 0.36248 0.0
C280 C 0.18762 0.57378 0.29059 0.0
H281 H 0.34289 0.59372 0.3691 0.0
H282 H 0.35966 0.48813 0.36308 0.0
H283 H 0.32297 0.51822 0.14007 0.0
H284 H 0.29692 0.4893 0.1436 0.0
H285 H 0.33262 0.48364 0.18718 0.0
H286 H 0.28526 0.49152 0.39843 0.0
H287 H 0.30863 0.46692 0.33873 0.0
H288 H 0.27337 0.4749 0.29448 0.0
H289 H 0.25966 0.63819 0.57671 0.0
H290 H 0.1799 0.5908 0.61103 0.0
H291 H 0.1948 0.55694 0.49598 0.0
H292 H 0.29795 0.59727 0.58883 0.0
H293 H 0.32559 0.60035 0.50821 0.0
H294 H 0.30758 0.56604 0.52554 0.0
H295 H 0.27056 0.63309 0.35395 0.0
H296 H 0.30751 0.62314 0.34737 0.0
H297 H 0.2948 0.64317 0.44395 0.0
H298 H 0.38629 0.57464 0.43751 0.0
C299 C 0.34588 0.57076 0.37032 0.0
C300 C 0.97862 0.24185 0.60773 0.0
C301 C 0.99528 0.22178 0.65749 0.0
C302 C 0.02493 0.2196 0.63402 0.0
C303 C 0.01481 0.24222 0.49112 0.0
C304 C 0.98946 0.25259 0.52596 0.0
C305 C 0.97825 0.27758 0.47127 0.0
H306 H 0.0579 0.37152 0.33562 0.0
C307 C 0.01902 0.25434 0.40168 0.0
C308 C 0.99912 0.27667 0.39049 0.0
H309 H 0.97082 0.38209 0.43871 0.0
H310 H 0.95762 0.33537 0.37326 0.0
H311 H 0.06888 0.29953 0.36524 0.0
H312 H 0.02752 0.33116 0.11885 0.0
H313 H 0.0591 0.30878 0.10971 0.0
H314 H 0.0622 0.34518 0.15167 0.0
H315 H 0.08646 0.32688 0.29766 0.0
H316 H 0.08415 0.29056 0.2561 0.0
C317 C 0.98085 0.3049 0.53138 0.0
C318 C 0.94705 0.27192 0.44082 0.0
C319 C 0.03756 0.1843 0.15299 0.0
C320 C 0.03031 0.18563 0.06009 0.0
C321 C 0.02398 0.21334 0.02317 0.0
C322 C 0.02544 0.23886 0.07729 0.0
C323 C 0.03278 0.23676 0.16984 0.0
C324 C 0.03774 0.2096 0.20667 0.0
C325 C 0.04047 0.21097 0.30861 0.0
C326 C 0.03337 0.24273 0.32564 0.0
C327 C 0.03287 0.25873 0.24487 0.0
C328 C 0.07171 0.20376 0.33503 0.0
C329 C 0.01884 0.18982 0.3535 0.0
C330 C 0.03596 0.36402 0.34391 0.0
C331 C 0.01573 0.3804 0.3967 0.0
C332 C 0.98703 0.37017 0.40144 0.0
C333 C 0.97937 0.34332 0.36521 0.0
C334 C 1.0006 0.3262 0.32579 0.0
C335 C 0.02709 0.33723 0.30462 0.0
C336 C 0.04346 0.31458 0.24876 0.0
C337 C 0.02274 0.28813 0.24825 0.0
C338 C 1.00118 0.29493 0.31321 0.0
C339 C 0.07245 0.30747 0.29469 0.0
C340 C 0.04838 0.32559 0.15145 0.0
H341 H 0.05675 0.22599 0.52882 0.0
H342 H 0.95708 0.24796 0.62755 0.0
H343 H 0.94538 0.25085 0.40538 0.0
H344 H 0.93973 0.28894 0.39312 0.0
H345 H 0.93218 0.27165 0.50015 0.0
H346 H 0.97823 0.29991 0.6049 0.0
H347 H 0.96351 0.32062 0.51747 0.0
H348 H 1.0023 0.31529 0.52318 0.0
H349 H 0.04188 0.16358 0.1841 0.0
H350 H 0.01786 0.21521 0.95241 0.0
H351 H 0.02022 0.25959 0.04776 0.0
H352 H 0.07756 0.18181 0.31121 0.0
H353 H 0.07466 0.20413 0.40949 0.0
H354 H 0.08701 0.21944 0.30397 0.0
H355 H 0.99628 0.1966 0.33994 0.0
H356 H 0.02206 0.18832 0.42783 0.0
H357 H 0.02167 0.16758 0.32746 0.0
H358 H 0.04036 0.20954 0.67875 0.0
C359 C 0.03454 0.22882 0.54842 0.0
C360 C 0.32922 0.02319 0.1034 0.0
C361 C 0.35842 0.01296 0.09386 0.0
C362 C 0.36925 0.99514 0.16273 0.0
C363 C 0.32263 0.99254 0.23683 0.0
C364 C 0.31165 1.01292 0.1781 0.0
C365 C 0.28065 0.02083 0.20919 0.0
H366 H 0.16923 0.98049 0.51401 0.0
C367 C 0.29981 0.98265 0.29985 0.0
C368 C 0.27468 0.99941 0.28856 0.0
H369 H 0.16715 0.05797 0.35271 0.0
H370 H 0.2147 0.04545 0.2853 0.0
H371 H 0.19655 0.93814 0.36709 0.0
H372 H 0.22819 0.99134 0.58265 0.0
H373 H 0.25109 0.96146 0.58367 0.0
H374 H 0.21303 0.95643 0.6042 0.0
H375 H 0.19174 0.92973 0.48534 0.0
H376 H 0.22284 0.91751 0.42265 0.0
C377 C 0.25915 0.01648 0.13129 0.0
C378 C 0.2808 0.0522 0.24251 0.0
C379 C 0.32404 0.89539 0.48951 0.0
C380 C 0.31095 0.88294 0.5663 0.0
C381 C 0.28191 0.88932 0.58507 0.0
C382 C 0.26719 0.90993 0.5327 0.0
C383 C 0.28208 0.92494 0.46319 0.0
C384 C 0.30986 0.91707 0.44233 0.0
C385 C 0.3243 0.9376 0.37835 0.0
C386 C 0.29993 0.95837 0.35838 0.0
C387 C 0.27552 0.95114 0.40873 0.0
C388 C 0.33381 0.92007 0.29354 0.0
C389 C 0.34913 0.95273 0.43167 0.0
C390 C 0.17849 0.99481 0.46331 0.0
C391 C 0.16389 0.01984 0.43822 0.0
C392 C 0.17772 0.03826 0.37364 0.0
C393 C 0.20531 0.03118 0.33507 0.0
C394 C 0.21979 1.00589 0.36332 0.0
C395 C 0.20581 0.98865 0.42733 0.0
C396 C 0.2237 0.96419 0.45906 0.0
C397 C 0.25073 0.96861 0.40397 0.0
C398 C 0.24945 0.99298 0.34533 0.0
C399 C 0.20799 0.93581 0.4331 0.0
C400 C 0.22925 0.96824 0.56268 0.0
H401 H 0.3619 0.96992 0.27682 0.0
H402 H 0.32034 0.03797 0.05386 0.0
H403 H 0.29687 0.05504 0.29769 0.0
H404 H 0.25956 0.05865 0.26948 0.0
H405 H 0.28652 0.06711 0.18595 0.0
H406 H 0.25992 0.99386 0.1067 0.0
H407 H 0.26431 0.03103 0.07332 0.0
H408 H 0.23685 0.02109 0.15442 0.0
H409 H 0.34669 0.89188 0.475 0.0
H410 H 0.27154 0.88033 0.64486 0.0
H411 H 0.2455 0.91472 0.55279 0.0
H412 H 0.31847 0.90218 0.27946 0.0
H413 H 0.35542 0.91035 0.30376 0.0
H414 H 0.33404 0.93282 0.23009 0.0
H415 H 0.34581 0.95172 0.50661 0.0
H416 H 0.35043 0.97617 0.41711 0.0
H417 H 0.37032 0.94264 0.41709 0.0
H418 H 0.39146 0.98788 0.16072 0.0
C419 C 0.35177 0.98472 0.23178 0.0
C420 C 0.50207 0.33356 0.07307 0.0
C421 C 0.51594 0.3447 0.99264 0.0
C422 C 0.53652 0.32662 0.94981 0.0
C423 C 0.53515 0.2933 0.07534 0.0
C424 C 0.51143 0.30661 0.11082 0.0
C425 C 0.50097 0.28879 0.19282 0.0
H426 H 0.55171 0.17844 0.48353 0.0
C427 C 0.54672 0.27268 0.14132 0.0
C428 C 0.52391 0.2645 0.20068 0.0
H429 H 0.47012 0.1677 0.34812 0.0
H430 H 0.47852 0.21332 0.26184 0.0
H431 H 0.59231 0.20411 0.30791 0.0
H432 H 0.55047 0.263 0.49682 0.0
H433 H 0.58764 0.2516 0.51094 0.0
H434 H 0.55937 0.22847 0.54437 0.0
H435 H 0.59657 0.19721 0.42791 0.0
H436 H 0.61222 0.22881 0.37817 0.0
C437 C 0.47103 0.27613 0.17366 0.0
C438 C 0.50033 0.30771 0.27868 0.0
C439 C 0.64032 0.31594 0.24008 0.0
C440 C 0.64094 0.33114 0.32253 0.0
C441 C 0.62542 0.32005 0.39754 0.0
C442 C 0.60723 0.29638 0.3874 0.0
C443 C 0.60452 0.28346 0.30226 0.0
C444 C 0.61943 0.2943 0.22809 0.0
C445 C 0.60324 0.28815 0.14034 0.0
C446 C 0.57508 0.27503 0.1783 0.0
C447 C 0.57905 0.26863 0.27003 0.0
C448 C 0.61974 0.26532 0.08552 0.0
C449 C 0.59994 0.31619 0.0838 0.0
C450 C 0.53551 0.18562 0.43574 0.0
C451 C 0.51039 0.16912 0.42316 0.0
C452 C 0.48966 0.17986 0.36023 0.0
C453 C 0.49426 0.20608 0.31089 0.0
C454 C 0.5194 0.22229 0.32642 0.0
C455 C 0.53948 0.21179 0.38815 0.0
C456 C 0.5652 0.23129 0.39552 0.0
C457 C 0.55854 0.25309 0.32044 0.0
C458 C 0.53104 0.24939 0.28362 0.0
C459 C 0.59317 0.21434 0.37613 0.0
C460 C 0.56566 0.24455 0.49174 0.0
H461 H 0.56099 0.28706 0.95548 0.0
H462 H 0.48504 0.34561 0.10585 0.0
H463 H 0.52208 0.31676 0.29254 0.0
H464 H 0.49345 0.29484 0.33881 0.0
H465 H 0.48499 0.32589 0.27028 0.0
H466 H 0.47162 0.26223 0.11227 0.0
H467 H 0.45515 0.29366 0.16188 0.0
H468 H 0.46349 0.26296 0.23224 0.0
H469 H 0.65266 0.32385 0.18278 0.0
H470 H 0.62427 0.33181 0.46096 0.0
H471 H 0.59208 0.29212 0.44102 0.0
H472 H 0.62343 0.24557 0.12697 0.0
H473 H 0.64104 0.27386 0.06333 0.0
H474 H 0.60727 0.25911 0.02422 0.0
H475 H 0.58285 0.33037 0.11204 0.0
H476 H 0.59659 0.31168 0.01121 0.0
H477 H 0.62014 0.32865 0.07958 0.0
H478 H 0.54756 0.33343 0.88854 0.0
C479 C 0.54511 0.30041 0.98898 0.0
La480 La 0.03941 1.00933 0.83182 0.0
La481 La 0.99645 0.02569 0.72198 0.0
C482 C 0.07077 0.98047 0.93743 0.0
C483 C 0.08047 0.95069 0.92426 0.0
C484 C 0.08784 0.94135 0.83621 0.0
C485 C 0.08279 0.91284 0.81119 0.0
C486 C 0.07005 0.89385 0.87342 0.0
C487 C 0.06788 0.9018 0.96522 0.0
C488 C 0.07315 0.93023 0.99067 0.0
C489 C 0.06241 0.03162 0.67987 0.0
C490 C 0.01592 0.9636 0.68317 0.0
C491 C 0.9605 0.04859 0.61567 0.0
C492 C 0.93884 0.07087 0.63081 0.0
C493 C 0.9289 0.07601 0.71956 0.0
C494 C 0.92026 0.10369 0.74384 0.0
C495 C 0.92355 0.12615 0.68079 0.0
C496 C 0.92547 0.11919 0.588 0.0
C497 C 0.93417 0.09155 0.56307 0.0
C498 C 0.97486 1.00318 0.87699 0.0
C499 C 0.02169 0.07292 0.86475 0.0
O500 O 0.08089 0.99962 0.88062 0.0
O501 O 0.04286 0.98282 0.94695 0.0
O502 O 0.06981 0.03793 0.7621 0.0
O503 O 0.04067 0.01485 0.68499 0.0
O504 O 0.02907 0.96714 0.76251 0.0
O505 O 1.00405 0.98624 0.64542 0.0
O506 O 0.95605 0.02442 0.65868 0.0
O507 O 0.98722 0.05733 0.62389 0.0
O508 O 0.96714 0.9966 0.79568 0.0
O509 O 0.99558 0.02088 0.86905 0.0
O510 O 1.00531 0.06807 0.79193 0.0
O511 O 0.0366 0.05131 0.89864 0.0
H512 H 0.09373 0.95665 0.7835 0.0
H513 H 0.08532 0.90662 0.74085 0.0
H514 H 0.058 0.88737 0.01436 0.0
H515 H 0.0674 0.93698 0.0588 0.0
H516 H 0.93157 0.05996 0.77246 0.0
H517 H 0.91686 0.10836 0.81498 0.0
H518 H 0.927 0.13622 0.53757 0.0
H519 H 0.94119 0.08771 0.49383 0.0
La520 La 0.52224 0.0401 0.81553 0.0
La521 La 0.50509 1.00118 0.7041 0.0
C522 C 0.54836 0.07608 0.91257 0.0
C523 C 0.5702 0.09603 0.87844 0.0
C524 C 0.5778 0.09464 0.78646 0.0
C525 C 0.6043 0.10527 0.75766 0.0
C526 C 0.62363 0.11734 0.82115 0.0
C527 C 0.61188 0.12569 0.90619 0.0
C528 C 0.58593 0.11365 0.93664 0.0
C529 C 0.50118 0.06632 0.66517 0.0
C530 C 0.56813 0.01717 0.67068 0.0
C531 C 0.47883 0.96823 0.59691 0.0
C532 C 0.45821 0.94514 0.61567 0.0
C533 C 0.45476 0.93451 0.70467 0.0
C534 C 0.43335 0.9142 0.72398 0.0
C535 C 0.41521 0.90446 0.65457 0.0
C536 C 0.41957 0.91428 0.565 0.0
C537 C 0.44095 0.93454 0.5457 0.0
C538 C 0.5257 0.97431 0.85361 0.0
C539 C 0.45941 0.02356 0.85196 0.0
O540 O 0.52278 0.08042 0.87984 0.0
O541 O 0.55563 0.04892 0.90763 0.0
O542 O 0.49372 0.07129 0.74775 0.0
O543 O 0.51795 0.04481 0.66804 0.0
O544 O 0.56492 0.02586 0.75589 0.0
O545 O 0.54438 1.01068 0.62695 0.0
O546 O 0.50482 0.96346 0.62636 0.0
O547 O 0.47 0.99418 0.61682 0.0
O548 O 0.53223 0.96859 0.77052 0.0
O549 O 0.5096 0.9964 0.85168 0.0
O550 O 0.46285 1.01222 0.77004 0.0
O551 O 0.4826 0.03289 0.89357 0.0
H552 H 0.56473 0.08262 0.73882 0.0
H553 H 0.61037 0.10014 0.68892 0.0
H554 H 0.62428 0.13805 0.95441 0.0
H555 H 0.57937 0.11635 1.00683 0.0
H556 H 0.46805 0.94258 0.75951 0.0
H557 H 0.43022 0.90688 0.79327 0.0
H558 H 0.40536 0.90746 0.51079 0.0
H559 H 0.44334 0.94265 0.47691 0.0
La560 La 0.49997 0.52758 0.8197 0.0
La561 La 0.53848 0.5128 0.70342 0.0
C562 C 0.46828 0.55199 0.93447 0.0
C563 C 0.44599 0.57367 0.92302 0.0
C564 C 0.43981 0.58485 0.83639 0.0
C565 C 0.41945 0.60673 0.82665 0.0
C566 C 0.40498 0.61742 0.9034 0.0
C567 C 0.41077 0.60536 0.98947 0.0
C568 C 0.43105 0.58354 0.99902 0.0
C569 C 0.47282 0.51035 0.6665 0.0
C570 C 0.52142 0.57608 0.67853 0.0
C571 C 0.57049 0.49095 0.5864 0.0
C572 C 0.58915 0.47817 0.51796 0.0
C573 C 0.61922 0.48037 0.52515 0.0
C574 C 0.63687 0.46384 0.46896 0.0
C575 C 0.6245 0.44512 0.40532 0.0
C576 C 0.59439 0.44502 0.39355 0.0
C577 C 0.57689 0.46151 0.4493 0.0
C578 C 0.56499 0.53068 0.85656 0.0
C579 C 0.51527 0.46386 0.83867 0.0
O580 O 0.46231 0.52716 0.89818 0.0
O581 O 0.49446 0.5605 0.91551 0.0
O582 O 0.46655 0.50261 0.74833 0.0
O583 O 0.495 0.5262 0.6719 0.0
O584 O 0.51157 0.57109 0.76191 0.0
O585 O 0.53013 0.55353 0.63245 0.0
O586 O 0.54428 0.48178 0.60152 0.0
O587 O 0.57885 0.512 0.63825 0.0
O588 O 0.57027 0.53958 0.77524 0.0
O589 O 0.54347 0.51391 0.85097 0.0
O590 O 0.5251 0.46924 0.75561 0.0
O591 O 0.50803 0.48627 0.88781 0.0
H592 H 0.45123 0.57714 0.77687 0.0
H593 H 0.41573 0.61597 0.75997 0.0
H594 H 0.40085 0.61388 0.05043 0.0
H595 H 0.4357 0.57501 0.06606 0.0
H596 H 0.62902 0.49338 0.57776 0.0
H597 H 0.65997 0.46414 0.47936 0.0
H598 H 0.58403 0.43032 0.34682 0.0
H599 H 0.5537 0.45984 0.4422 0.0
La600 La 1.01076 0.5015 0.81492 0.0
La601 La 0.0279 0.54079 0.7003 0.0
C602 C 0.98546 0.46946 0.92793 0.0
C603 C 0.96327 0.44753 0.91803 0.0
C604 C 0.95228 0.44071 0.83187 0.0
C605 C 0.92954 0.42115 0.82397 0.0
C606 C 0.9176 0.40843 0.90224 0.0
C607 C 0.9297 0.41449 0.98776 0.0
C608 C 0.95241 0.4339 0.99549 0.0
C609 C 0.02999 0.47539 0.66166 0.0
C610 C 0.96416 0.5238 0.67204 0.0
C611 C 0.0535 0.57392 0.59163 0.0
C612 C 0.07413 0.59685 0.61089 0.0
C613 C 0.0752 0.60946 0.69765 0.0
C614 C 0.09724 0.62874 0.71947 0.0
C615 C 0.11882 0.6351 0.65541 0.0
C616 C 0.11671 0.62329 0.56727 0.0
C617 C 0.0945 0.60441 0.54527 0.0
C618 C 1.00863 0.56739 0.8519 0.0
C619 C 0.07427 0.51788 0.84385 0.0
O620 O 1.01009 0.46318 0.89041 0.0
O621 O 0.97736 0.49579 0.90966 0.0
O622 O 0.03644 0.46837 0.74392 0.0
O623 O 0.0143 0.49759 0.66707 0.0
O624 O 0.96807 0.51366 0.75537 0.0
O625 O 0.98737 0.53229 0.62769 0.0
O626 O 0.02751 0.57847 0.62172 0.0
O627 O 0.06243 0.54788 0.61025 0.0
O628 O 1.00227 0.57379 0.76922 0.0
O629 O 0.02424 0.54501 0.84833 0.0
O630 O 0.07067 0.52817 0.76045 0.0
O631 O 0.05094 0.50969 0.8876 0.0
H632 H 0.96077 0.45109 0.7713 0.0
H633 H 0.9206 0.41682 0.75745 0.0
H634 H 0.92053 0.40546 0.04944 0.0
H635 H 0.96083 0.439 0.06219 0.0
H636 H 0.05967 0.60352 0.7496 0.0
H637 H 0.0982 0.63745 0.78758 0.0
H638 H 0.13335 0.62699 0.51674 0.0
H639 H 0.09409 0.59459 0.47853 0.0
C640 C 0.13229 0.04896 0.54662 0.0
C641 C 0.13524 0.02594 0.48489 0.0
C642 C 0.10812 0.05122 0.60576 0.0
C643 C 0.08537 0.03081 0.60583 0.0
H644 H 0.14958 0.06451 0.553 0.0
H645 H 0.10775 0.0687 0.65437 0.0
S646 S 0.08222 0.96651 0.45619 0.0
N647 N 0.11284 0.98234 0.42746 0.0
N648 N 0.06763 0.98692 0.53574 0.0
C649 C 0.08761 1.00823 0.5421 0.0
C650 C 0.11239 1.00571 0.48287 0.0
C651 C 0.52829 0.12021 0.48178 0.0
C652 C 0.50632 0.14137 0.47765 0.0
C653 C 0.52609 0.09545 0.5387 0.0
C654 C 0.50199 0.09065 0.59563 0.0
H655 H 0.54769 0.12303 0.44155 0.0
H656 H 0.54402 0.08065 0.54106 0.0
S657 S 0.43917 0.13987 0.61524 0.0
N658 N 0.45993 0.15571 0.53851 0.0
N659 N 0.456 0.10997 0.64513 0.0
C660 C 0.47997 0.11165 0.59218 0.0
C661 C 0.48203 0.13662 0.5335 0.0
C662 C 0.40023 0.50159 0.53957 0.0
C663 C 0.40292 0.51973 0.46276 0.0
C664 C 0.42318 0.49785 0.60245 0.0
C665 C 0.45008 0.51205 0.59219 0.0
H666 H 0.37969 0.49146 0.55419 0.0
H667 H 0.41937 0.48445 0.66171 0.0
S668 S 0.46924 0.56037 0.39928 0.0
N669 N 0.43571 0.55062 0.37769 0.0
N670 N 0.47813 0.54385 0.49476 0.0
C671 C 0.45344 0.5292 0.51348 0.0
C672 C 0.43016 0.53295 0.44952 0.0
C673 C 0.04335 0.40553 0.5242 0.0
C674 C 0.02333 0.407 0.45218 0.0
C675 C 0.04601 0.42801 0.58919 0.0
C676 C 0.02897 0.4533 0.58539 0.0
H677 H 0.05602 0.38615 0.53339 0.0
H678 H 0.06103 0.42512 0.64468 0.0
S679 S 0.97425 0.4687 0.40774 0.0
N680 N 0.98693 0.43668 0.37975 0.0
N681 N 0.99209 0.47853 0.49958 0.0
C682 C 1.00973 0.4555 0.51152 0.0
C683 C 1.00686 0.43255 0.44599 0.0
C684 C 0.91911 0.97233 0.0436 0.0
C685 C 0.90161 0.99615 0.06791 0.0
C686 C 0.94366 0.97516 0.98694 0.0
C687 C 0.95298 1.0021 0.9537 0.0
H688 H 0.91237 0.95076 0.06255 0.0
H689 H 0.95468 0.95577 0.96536 0.0
S690 S 0.91701 0.07191 1.00201 0.0
N691 N 0.89673 0.04807 0.05618 0.0
N692 N 0.94367 0.05359 0.95494 0.0
C693 C 0.93713 0.02644 0.98275 0.0
C694 C 0.91149 0.02345 0.03875 0.0
C695 C 0.54133 0.90208 0.97601 0.0
C696 C 0.52028 0.90034 0.04515 0.0
C697 C 0.54343 0.92637 0.91727 0.0
C698 C 0.52486 0.95047 0.92496 0.0
H699 H 0.55544 0.88388 0.96424 0.0
H700 H 0.55939 0.92591 0.86343 0.0
S701 S 0.46635 0.95727 0.0966 0.0
N702 N 0.48053 0.92532 0.11804 0.0
N703 N 0.48505 0.97086 0.01079 0.0
C704 C 0.50429 0.94936 0.99579 0.0
C705 C 0.50184 0.92443 0.05458 0.0
C706 C 0.61549 0.50236 0.04597 0.0
C707 C 0.63809 0.52301 0.04949 0.0
C708 C 0.59138 0.50546 0.98738 0.0
C709 C 0.58864 0.52922 0.92782 0.0
H710 H 0.61673 0.48312 0.08774 0.0
H711 H 0.57533 0.48848 0.98631 0.0
S712 S 0.64108 0.58964 0.90927 0.0
N713 N 0.65528 0.5684 0.98752 0.0
N714 N 0.61063 0.5741 0.87809 0.0
C715 C 0.6107 0.55025 0.93187 0.0
C716 C 0.63507 0.54725 0.99226 0.0
C717 C 1.0107 0.64306 0.95903 0.0
C718 C 1.00899 0.63831 0.05372 0.0
C719 C 1.01139 0.62012 0.89599 0.0
C720 C 1.01063 0.59089 0.92352 0.0
H721 H 1.00963 0.66489 0.93286 0.0
H722 H 1.01171 0.62552 0.8243 0.0
S723 S 1.00684 0.56619 0.16367 0.0
N724 N 1.00676 0.60173 0.17169 0.0
N725 N 1.00921 0.55872 0.05402 0.0
C726 C 1.01023 0.5857 0.01822 0.0
C727 C 1.00905 0.60925 0.08273 0.0
C728 C 0.95042 0.20126 0.73042 0.0
C729 C 0.98013 0.19822 0.70916 0.0
C730 C 0.93154 0.17762 0.7268 0.0
C731 C 0.94223 0.15012 0.70866 0.0
H732 H 0.941 0.22231 0.74039 0.0
H733 H 0.90854 0.18113 0.73252 0.0
S734 S 0.01874 0.12818 0.68668 0.0
N735 N 0.01964 0.16343 0.69778 0.0
N736 N 0.98434 0.11964 0.69281 0.0
C737 C 0.97216 0.14599 0.70523 0.0
C738 C 0.99122 0.16986 0.70732 0.0
C739 C 0.35351 0.8551 0.61171 0.0
C740 C 0.33088 0.87346 0.63851 0.0
C741 C 0.3822 0.86312 0.62764 0.0
C742 C 0.38852 0.88849 0.67551 0.0
H743 H 0.34946 0.83837 0.56212 0.0
H744 H 0.39922 0.85167 0.5925 0.0
S745 S 0.3363 0.93627 0.79149 0.0
N746 N 0.31626 0.91183 0.7404 0.0
N747 N 0.36994 0.92722 0.76909 0.0
C748 C 0.36597 0.90281 0.72009 0.0
C749 C 0.33692 0.89451 0.7042 0.0
C750 C 0.66031 0.37372 0.40559 0.0
C751 C 0.64936 0.36211 0.32444 0.0
C752 C 0.656 0.40274 0.42705 0.0
C753 C 0.64124 0.42109 0.3669 0.0
H754 H 0.66897 0.35962 0.4576 0.0
H755 H 0.66098 0.40971 0.49546 0.0
S756 S 0.61689 0.40416 0.13429 0.0
N757 N 0.62874 0.3733 0.17566 0.0
N758 N 0.62276 0.42811 0.21471 0.0
C759 C 0.6352 0.41119 0.27934 0.0
C760 C 0.63875 0.38154 0.2582 0.0
C761 C 0.19095 0.66147 0.6046 0.0
C762 C 0.20559 0.64058 0.65605 0.0
C763 C 0.16129 0.6653 0.61737 0.0
C764 C 0.14646 0.6486 0.68261 0.0
H765 H 0.20049 0.66963 0.54224 0.0
H766 H 0.14938 0.67683 0.56547 0.0
S767 S 0.18038 0.60698 0.86937 0.0
N768 N 0.20723 0.61539 0.8002 0.0
N769 N 0.1513 0.6218 0.82477 0.0
C770 C 0.16292 0.63539 0.75136 0.0
C771 C 0.19313 0.63201 0.73859 0.0
C772 C 0.99929 0.86476 0.7991 0.0
C773 C 0.99908 0.8377 0.84184 0.0
C774 C 0.02404 0.88186 0.80084 0.0
C775 C 0.04973 0.87197 0.84039 0.0
H776 H 0.97927 0.87441 0.7766 0.0
H777 H 0.02188 0.9043 0.78311 0.0
S778 S 0.06239 0.80065 0.94405 0.0
N779 N 0.02822 0.80011 0.91316 0.0
N780 N 0.07492 0.83232 0.91109 0.0
C781 C 0.05101 0.84361 0.87154 0.0
C782 C 0.02568 0.82626 0.87217 0.0
C783 C 0.68686 0.08066 0.90797 0.0
C784 C 0.69097 0.06157 0.83559 0.0
C785 C 0.67016 0.10533 0.89673 0.0
C786 C 0.65527 0.11023 0.81432 0.0
H787 H 0.69424 0.07507 0.97567 0.0
H788 H 0.66563 0.11746 0.95757 0.0
S789 S 0.67634 0.07712 0.59417 0.0
N790 N 0.69101 0.05605 0.67209 0.0
N791 N 0.66016 0.10339 0.65007 0.0
C792 C 0.66637 0.09581 0.73704 0.0
C793 C 0.68339 0.0705 0.7484 0.0
C794 C 0.39351 0.69648 0.88868 0.0
C795 C 0.37252 0.70014 0.95693 0.0
C796 C 0.40138 0.66889 0.86011 0.0
C797 C 0.38818 0.64438 0.89835 0.0
H798 H 0.40709 0.71437 0.86793 0.0
H799 H 0.4204 0.66679 0.81778 0.0
S800 S 0.32528 0.64345 0.05367 0.0
N801 N 0.33356 0.67793 0.04254 0.0
N802 N 0.34809 0.62586 0.98774 0.0
C803 C 0.36351 0.64819 0.95249 0.0
C804 C 0.35555 0.67628 0.9816 0.0
C805 C 0.85885 0.36045 0.98629 0.0
C806 C 0.83467 0.37755 0.96642 0.0
C807 C 0.88613 0.36812 0.95349 0.0
C808 C 0.88982 0.3929 0.89933 0.0
H809 H 0.85739 0.34378 0.0379 0.0
H810 H 0.90476 0.35679 0.97971 0.0
S811 S 0.83206 0.43956 0.80681 0.0
N812 N 0.81513 0.41609 0.87258 0.0
N813 N 0.86641 0.4305 0.81089 0.0
C814 C 0.86519 0.40695 0.86609 0.0
C815 C 0.83743 0.39912 0.89943 0.0
C816 C 0.05179 0.13905 0.99525 0.0
C817 C 0.02805 0.15787 1.00493 0.0
C818 C 0.04953 0.11218 0.94937 0.0
C819 C 0.02335 0.10239 0.91088 0.0
H820 H 0.0724 0.14509 0.02391 0.0
H821 H 0.06862 0.09886 0.94424 0.0
S822 S 0.95346 0.14064 0.93472 0.0
N823 N 0.97678 0.16294 0.98131 0.0
N824 N 0.97227 0.11271 0.89816 0.0
C825 C 0.99924 0.12058 0.9233 0.0
C826 C 1.00165 0.14807 0.96924 0.0
C827 C 0.39297 0.04427 0.99892 0.0
C828 C 0.37891 0.01762 0.01404 0.0
C829 C 0.41839 0.04638 0.94444 0.0
C830 C 0.43082 0.02202 0.9018 0.0
H831 H 0.38541 0.06329 0.0341 0.0
H832 H 0.42887 0.06715 0.93781 0.0
S833 S 0.40568 0.94687 0.93186 0.0
N834 N 0.38141 0.9661 0.98673 0.0
N835 N 0.42837 0.97026 0.88641 0.0
C836 C 0.41693 0.99547 0.91599 0.0
C837 C 0.39129 0.99327 0.97109 0.0
C838 C 0.51057 0.3997 1.00913 0.0
C839 C 0.51105 0.37494 0.95326 0.0
C840 C 0.51138 0.42812 0.9721 0.0
C841 C 0.51309 0.43339 0.87719 0.0
H842 H 0.51072 0.39717 0.08234 0.0
H843 H 0.51153 0.44614 0.01872 0.0
S844 S 0.51006 0.37669 0.69996 0.0
N845 N 0.50918 0.35845 0.79646 0.0
N846 N 0.51213 0.41098 0.72865 0.0
C847 C 0.5122 0.40893 0.8208 0.0
C848 C 0.51078 0.38013 0.85815 0.0
C849 C 0.13075 0.5073 0.0332 0.0
C850 C 0.15746 0.51611 0.99516 0.0
C851 C 0.10468 0.50784 0.98377 0.0
C852 C 0.10332 0.51699 0.89219 0.0
H853 H 0.12974 0.49992 0.10305 0.0
H854 H 0.08521 0.50116 0.01882 0.0
S855 S 0.16666 0.54031 0.75517 0.0
N856 N 0.1805 0.53315 0.85617 0.0
N857 N 0.13175 0.53376 0.76367 0.0
C858 C 0.12982 0.52504 0.85165 0.0
C859 C 0.15664 0.52456 0.90247 0.0
C860 C 0.03724 0.89238 0.56166 0.0
C861 C 1.0105 0.88053 0.53459 0.0
C862 C 0.03903 0.91898 0.60971 0.0
C863 C 0.01422 0.93479 0.63472 0.0
H864 H 0.05702 0.88163 0.5424 0.0
H865 H 0.06006 0.92771 0.62506 0.0
S866 S 0.93898 0.9135 0.58212 0.0
N867 N 0.95857 0.88728 0.53829 0.0
N868 N 0.96209 0.93633 0.62773 0.0
C869 C 0.98749 0.92312 0.60845 0.0
C870 C 0.9856 0.8963 0.55944 0.0
C871 C 0.6489 1.00388 0.60691 0.0
C872 C 0.65053 1.01224 0.51411 0.0
C873 C 0.62292 1.00654 0.65899 0.0
C874 C 0.59696 0.01696 0.62034 0.0
H875 H 0.66764 0.99451 0.63915 0.0
H876 H 0.6229 0.99928 0.72902 0.0
S877 S 0.58989 0.04566 0.38542 0.0
N878 N 0.6239 0.03561 0.39182 0.0
N879 N 0.57558 0.03754 0.48499 0.0
C880 C 0.59861 0.02612 0.52903 0.0
C881 C 0.62506 0.02458 0.47752 0.0
C882 C 0.52628 0.63709 0.49686 0.0
C883 C 0.51443 0.66143 0.54058 0.0
C884 C 0.52924 0.61008 0.54228 0.0
C885 C 0.5203 0.60581 0.63378 0.0
H886 H 0.53182 0.63843 0.42539 0.0
H887 H 0.53772 0.59209 0.50393 0.0
S888 S 0.48823 0.6626 0.77977 0.0
N889 N 0.49436 0.67923 0.68219 0.0
N890 N 0.49957 0.6292 0.76592 0.0
C891 C 0.50918 0.63021 0.67865 0.0
C892 C 0.50636 0.65763 0.63275 0.0
C893 C 0.88313 0.50924 0.63064 0.0
C894 C 0.8783 0.51715 0.53877 0.0
C895 C 0.91037 0.51209 0.67303 0.0
C896 C 0.93466 0.52307 0.62637 0.0
H897 H 0.8658 0.49946 0.66951 0.0
H898 H 0.91252 0.50475 0.74265 0.0
S899 S 0.93426 0.54747 0.38479 0.0
N900 N 0.90074 0.5368 0.40297 0.0
N901 N 0.95147 0.54271 0.48187 0.0
C902 C 0.93003 0.53194 0.53512 0.0
C903 C 0.90214 0.52893 0.49185 0.0
loop_
_geom_bond_atom_site_label_1
_geom_bond_atom_site_label_2
_geom_bond_distance
_geom_bond_site_symmetry_2
_ccdc_geom_bond_type
C0 C1 1.391 . S
C0 C4 1.391 . S
C0 H42 0.948 . S
C1 C0 1.391 . S
C1 C2 1.391 . S
C2 C1 1.391 . S
C2 H58 0.947 . S
C2 C59 1.392 . S
C3 C4 1.391 . S
C3 C7 1.397 . S
C3 C59 1.419 . S
C4 C0 1.391 . S
C4 C3 1.391 . S
C4 C5 1.399 . S
C5 C4 1.399 . S
C5 C8 1.396 . S
C5 C17 1.453 . S
C5 C18 1.684 . S
H6 C30 0.948 . S
C7 C3 1.397 . S
C7 C8 1.394 . S
C7 C26 1.723 . S
C8 C5 1.396 . S
C8 C7 1.394 . S
C8 C38 1.723 . S
H9 C32 0.947 . S
H10 C33 0.948 . S
H11 C39 0.982 . S
H12 C40 0.979 . S
H13 C40 0.980 . S
H14 C40 0.983 . S
H15 C39 0.979 . S
H16 C39 0.977 . S
C17 C5 1.453 . S
C17 H46 0.982 . S
C17 H47 0.979 . S
C17 H48 0.977 . S
C18 C5 1.684 . S
C18 H43 0.979 . S
C18 H44 0.980 . S
C18 H45 0.983 . S
C19 C20 1.391 . S
C19 C24 1.391 . S
C19 H49 0.948 . S
C20 C19 1.391 . S
C20 C21 1.391 . S
C21 C20 1.391 . S
C21 C22 1.392 . S
C21 H50 0.947 . S
C22 C21 1.392 . S
C22 C23 1.419 . S
C22 H51 0.948 . S
C23 C22 1.419 . S
C23 C24 1.391 . S
C23 C27 1.397 . S
C24 C19 1.391 . S
C24 C23 1.391 . S
C24 C25 1.399 . S
C25 C24 1.399 . S
C25 C26 1.396 . S
C25 C28 1.453 . S
C25 C29 1.684 . S
C26 C7 1.723 . S
C26 C25 1.396 . S
C26 C27 1.394 . S
C27 C23 1.397 . S
C27 C26 1.394 . S
C27 C37 1.723 . S
C28 C25 1.453 . S
C28 H52 0.982 . S
C28 H53 0.979 . S
C28 H54 0.977 . S
C29 C25 1.684 . S
C29 H55 0.979 . S
C29 H56 0.980 . S
C29 H57 0.983 . S
C30 H6 0.948 . S
C30 C31 1.391 . S
C30 C35 1.391 . S
C31 C30 1.391 . S
C31 C32 1.391 . S
C32 H9 0.947 . S
C32 C31 1.391 . S
C32 C33 1.392 . S
C33 H10 0.948 . S
C33 C32 1.392 . S
C33 C34 1.419 . S
C34 C33 1.419 . S
C34 C35 1.391 . S
C34 C38 1.397 . S
C35 C30 1.391 . S
C35 C34 1.391 . S
C35 C36 1.399 . S
C36 C35 1.399 . S
C36 C37 1.396 . S
C36 C39 1.453 . S
C36 C40 1.684 . S
C37 C27 1.723 . S
C37 C36 1.396 . S
C37 C38 1.394 . S
C38 C8 1.723 . S
C38 C34 1.397 . S
C38 C37 1.394 . S
C39 H11 0.982 . S
C39 H15 0.979 . S
C39 H16 0.977 . S
C39 C36 1.453 . S
C40 H12 0.979 . S
C40 H13 0.980 . S
C40 H14 0.983 . S
C40 C36 1.684 . S
H41 C59 0.948 . S
H42 C0 0.948 . S
H43 C18 0.979 . S
H44 C18 0.980 . S
H45 C18 0.983 . S
H46 C17 0.982 . S
H47 C17 0.979 . S
H48 C17 0.977 . S
H49 C19 0.948 . S
H50 C21 0.947 . S
H51 C22 0.948 . S
H52 C28 0.982 . S
H53 C28 0.979 . S
H54 C28 0.977 . S
H55 C29 0.979 . S
H56 C29 0.980 . S
H57 C29 0.983 . S
H58 C2 0.947 . S
C59 C2 1.392 . S
C59 C3 1.419 . S
C59 H41 0.948 . S
C60 C61 1.391 . S
C60 C64 1.391 . S
C60 H102 0.948 . S
C61 C60 1.391 . S
C61 C62 1.391 . S
C62 C61 1.391 . S
C62 H118 0.947 . S
C62 C119 1.392 . S
C63 C64 1.391 . S
C63 C67 1.397 1_655 S
C63 C119 1.419 . S
C64 C60 1.391 . S
C64 C63 1.391 . S
C64 C65 1.399 . S
C65 C64 1.399 . S
C65 C68 1.396 1_655 S
C65 C77 1.453 1_655 S
C65 C78 1.684 . S
H66 C90 0.948 . S
C67 C63 1.397 1_455 S
C67 C68 1.394 . S
C67 C86 1.723 . S
C68 C65 1.396 1_455 S
C68 C67 1.394 . S
C68 C98 1.723 . S
H69 C92 0.947 . S
H70 C93 0.948 . S
H71 C99 0.982 . S
H72 C100 0.979 . S
H73 C100 0.980 . S
H74 C100 0.983 . S
H75 C99 0.979 . S
H76 C99 0.977 . S
C77 C65 1.453 1_455 S
C77 H106 0.982 . S
C77 H107 0.979 . S
C77 H108 0.977 . S
C78 C65 1.684 . S
C78 H103 0.979 . S
C78 H104 0.980 . S
C78 H105 0.983 . S
C79 C80 1.391 . S
C79 C84 1.391 . S
C79 H109 0.948 . S
C80 C79 1.391 . S
C80 C81 1.391 . S
C81 C80 1.391 . S
C81 C82 1.392 . S
C81 H110 0.947 . S
C82 C81 1.392 . S
C82 C83 1.419 . S
C82 H111 0.948 . S
C83 C82 1.419 . S
C83 C84 1.391 . S
C83 C87 1.397 1_655 S
C84 C79 1.391 . S
C84 C83 1.391 . S
C84 C85 1.399 . S
C85 C84 1.399 . S
C85 C86 1.396 1_655 S
C85 C88 1.453 1_655 S
C85 C89 1.684 . S
C86 C67 1.723 . S
C86 C85 1.396 1_455 S
C86 C87 1.394 . S
C87 C83 1.397 1_455 S
C87 C86 1.394 . S
C87 C97 1.723 . S
C88 C85 1.453 1_455 S
C88 H112 0.982 . S
C88 H113 0.979 . S
C88 H114 0.977 . S
C89 C85 1.684 . S
C89 H115 0.979 . S
C89 H116 0.980 . S
C89 H117 0.983 . S
C90 H66 0.948 . S
C90 C91 1.391 . S
C90 C95 1.391 . S
C91 C90 1.391 . S
C91 C92 1.391 . S
C92 H69 0.947 . S
C92 C91 1.391 . S
C92 C93 1.392 . S
C93 H70 0.948 . S
C93 C92 1.392 . S
C93 C94 1.419 . S
C94 C93 1.419 . S
C94 C95 1.391 . S
C94 C98 1.397 1_655 S
C95 C90 1.391 . S
C95 C94 1.391 . S
C95 C96 1.399 . S
C96 C95 1.399 . S
C96 C97 1.396 1_655 S
C96 C99 1.453 1_655 S
C96 C100 1.684 . S
C97 C87 1.723 . S
C97 C96 1.396 1_455 S
C97 C98 1.394 . S
C98 C68 1.723 . S
C98 C94 1.397 1_455 S
C98 C97 1.394 . S
C99 H71 0.982 . S
C99 H75 0.979 . S
C99 H76 0.977 . S
C99 C96 1.453 1_455 S
C100 H72 0.979 . S
C100 H73 0.980 . S
C100 H74 0.983 . S
C100 C96 1.684 . S
H101 C119 0.948 . S
H102 C60 0.948 . S
H103 C78 0.979 . S
H104 C78 0.980 . S
H105 C78 0.983 . S
H106 C77 0.982 . S
H107 C77 0.979 . S
H108 C77 0.977 . S
H109 C79 0.948 . S
H110 C81 0.947 . S
H111 C82 0.948 . S
H112 C88 0.982 . S
H113 C88 0.979 . S
H114 C88 0.977 . S
H115 C89 0.979 . S
H116 C89 0.980 . S
H117 C89 0.983 . S
H118 C62 0.947 . S
C119 C62 1.392 . S
C119 C63 1.419 . S
C119 H101 0.948 . S
C120 C121 1.391 . S
C120 C124 1.391 . S
C120 H162 0.948 . S
C121 C120 1.391 . S
C121 C122 1.391 . S
C122 C121 1.391 . S
C122 H178 0.947 . S
C122 C179 1.392 . S
C123 C124 1.391 . S
C123 C127 1.397 1_565 S
C123 C179 1.419 . S
C124 C120 1.391 . S
C124 C123 1.391 . S
C124 C125 1.399 . S
C125 C124 1.399 . S
C125 C128 1.396 1_565 S
C125 C137 1.453 1_565 S
C125 C138 1.684 . S
H126 C150 0.948 . S
C127 C123 1.397 1_545 S
C127 C128 1.394 . S
C127 C146 1.723 . S
C128 C125 1.396 1_545 S
C128 C127 1.394 . S
C128 C158 1.723 . S
H129 C152 0.947 . S
H130 C153 0.948 . S
H131 C159 0.982 . S
H132 C160 0.979 . S
H133 C160 0.980 . S
H134 C160 0.983 . S
H135 C159 0.979 . S
H136 C159 0.977 . S
C137 C125 1.453 1_545 S
C137 H166 0.982 . S
C137 H167 0.979 . S
C137 H168 0.977 . S
C138 C125 1.684 . S
C138 H163 0.979 . S
C138 H164 0.980 . S
C138 H165 0.983 . S
C139 C140 1.391 . S
C139 C144 1.391 . S
C139 H169 0.948 . S
C140 C139 1.391 . S
C140 C141 1.391 . S
C141 C140 1.391 . S
C141 C142 1.392 . S
C141 H170 0.947 . S
C142 C141 1.392 . S
C142 C143 1.419 . S
C142 H171 0.948 . S
C143 C142 1.419 . S
C143 C144 1.391 . S
C143 C147 1.397 1_565 S
C144 C139 1.391 . S
C144 C143 1.391 . S
C144 C145 1.399 . S
C145 C144 1.399 . S
C145 C146 1.396 1_565 S
C145 C148 1.453 1_565 S
C145 C149 1.684 . S
C146 C127 1.723 . S
C146 C145 1.396 1_545 S
C146 C147 1.394 . S
C147 C143 1.397 1_545 S
C147 C146 1.394 . S
C147 C157 1.723 . S
C148 C145 1.453 1_545 S
C148 H172 0.982 . S
C148 H173 0.979 . S
C148 H174 0.977 . S
C149 C145 1.684 . S
C149 H175 0.979 . S
C149 H176 0.980 . S
C149 H177 0.983 . S
C150 H126 0.948 . S
C150 C151 1.391 . S
C150 C155 1.391 . S
C151 C150 1.391 . S
C151 C152 1.391 . S
C152 H129 0.947 . S
C152 C151 1.391 . S
C152 C153 1.392 . S
C153 H130 0.948 . S
C153 C152 1.392 . S
C153 C154 1.419 . S
C154 C153 1.419 . S
C154 C155 1.391 . S
C154 C158 1.397 1_565 S
C155 C150 1.391 . S
C155 C154 1.391 . S
C155 C156 1.399 . S
C156 C155 1.399 . S
C156 C157 1.396 1_565 S
C156 C159 1.453 1_565 S
C156 C160 1.684 . S
C157 C147 1.723 . S
C157 C156 1.396 1_545 S
C157 C158 1.394 . S
C158 C128 1.723 . S
C158 C154 1.397 1_545 S
C158 C157 1.394 . S
C159 H131 0.982 . S
C159 H135 0.979 . S
C159 H136 0.977 . S
C159 C156 1.453 1_545 S
C160 H132 0.979 . S
C160 H133 0.980 . S
C160 H134 0.983 . S
C160 C156 1.684 . S
H161 C179 0.948 . S
H162 C120 0.948 . S
H163 C138 0.979 . S
H164 C138 0.980 . S
H165 C138 0.983 . S
H166 C137 0.982 . S
H167 C137 0.979 . S
H168 C137 0.977 . S
H169 C139 0.948 . S
H170 C141 0.947 . S
H171 C142 0.948 . S
H172 C148 0.982 . S
H173 C148 0.979 . S
H174 C148 0.977 . S
H175 C149 0.979 . S
H176 C149 0.980 . S
H177 C149 0.983 . S
H178 C122 0.947 . S
C179 C122 1.392 . S
C179 C123 1.419 . S
C179 H161 0.948 . S
C180 C181 1.391 . S
C180 C184 1.391 . S
C180 H222 0.948 . S
C181 C180 1.391 . S
C181 C182 1.391 . S
C182 C181 1.391 . S
C182 H238 0.947 . S
C182 C239 1.392 . S
C183 C184 1.391 . S
C183 C187 1.397 . S
C183 C239 1.419 . S
C184 C180 1.391 . S
C184 C183 1.391 . S
C184 C185 1.399 . S
C185 C184 1.399 . S
C185 C188 1.396 . S
C185 C197 1.453 . S
C185 C198 1.684 . S
H186 C210 0.948 . S
C187 C183 1.397 . S
C187 C188 1.394 . S
C187 C206 1.723 . S
C188 C185 1.396 . S
C188 C187 1.394 . S
C188 C218 1.723 . S
H189 C212 0.947 . S
H190 C213 0.948 . S
H191 C219 0.982 . S
H192 C220 0.979 . S
H193 C220 0.980 . S
H194 C220 0.983 . S
H195 C219 0.979 . S
H196 C219 0.977 . S
C197 C185 1.453 . S
C197 H226 0.982 . S
C197 H227 0.979 . S
C197 H228 0.977 . S
C198 C185 1.684 . S
C198 H223 0.979 . S
C198 H224 0.980 . S
C198 H225 0.983 . S
C199 C200 1.391 . S
C199 C204 1.391 . S
C199 H229 0.948 . S
C200 C199 1.391 . S
C200 C201 1.391 . S
C201 C200 1.391 . S
C201 C202 1.392 . S
C201 H230 0.947 . S
C202 C201 1.392 . S
C202 C203 1.419 . S
C202 H231 0.948 . S
C203 C202 1.419 . S
C203 C204 1.391 . S
C203 C207 1.397 . S
C204 C199 1.391 . S
C204 C203 1.391 . S
C204 C205 1.399 . S
C205 C204 1.399 . S
C205 C206 1.396 . S
C205 C208 1.453 . S
C205 C209 1.684 . S
C206 C187 1.723 . S
C206 C205 1.396 . S
C206 C207 1.394 . S
C207 C203 1.397 . S
C207 C206 1.394 . S
C207 C217 1.723 . S
C208 C205 1.453 . S
C208 H232 0.982 . S
C208 H233 0.979 . S
C208 H234 0.977 . S
C209 C205 1.684 . S
C209 H235 0.979 . S
C209 H236 0.980 . S
C209 H237 0.983 . S
C210 H186 0.948 . S
C210 C211 1.391 . S
C210 C215 1.391 . S
C211 C210 1.391 . S
C211 C212 1.391 . S
C212 H189 0.947 . S
C212 C211 1.391 . S
C212 C213 1.392 . S
C213 H190 0.948 . S
C213 C212 1.392 . S
C213 C214 1.419 . S
C214 C213 1.419 . S
C214 C215 1.391 . S
C214 C218 1.397 . S
C215 C210 1.391 . S
C215 C214 1.391 . S
C215 C216 1.399 . S
C216 C215 1.399 . S
C216 C217 1.396 . S
C216 C219 1.453 . S
C216 C220 1.684 . S
C217 C207 1.723 . S
C217 C216 1.396 . S
C217 C218 1.394 . S
C218 C188 1.723 . S
C218 C214 1.397 . S
C218 C217 1.394 . S
C219 H191 0.982 . S
C219 H195 0.979 . S
C219 H196 0.977 . S
C219 C216 1.453 . S
C220 H192 0.979 . S
C220 H193 0.980 . S
C220 H194 0.983 . S
C220 C216 1.684 . S
H221 C239 0.948 . S
H222 C180 0.948 . S
H223 C198 0.979 . S
H224 C198 0.980 . S
H225 C198 0.983 . S
H226 C197 0.982 . S
H227 C197 0.979 . S
H228 C197 0.977 . S
H229 C199 0.948 . S
H230 C201 0.947 . S
H231 C202 0.948 . S
H232 C208 0.982 . S
H233 C208 0.979 . S
H234 C208 0.977 . S
H235 C209 0.979 . S
H236 C209 0.980 . S
H237 C209 0.983 . S
H238 C182 0.947 . S
C239 C182 1.392 . S
C239 C183 1.419 . S
C239 H221 0.948 . S
C240 C241 1.391 . S
C240 C244 1.391 . S
C240 H282 0.948 . S
C241 C240 1.391 . S
C241 C242 1.391 . S
C242 C241 1.391 . S
C242 H298 0.947 . S
C242 C299 1.392 . S
C243 C244 1.391 . S
C243 C247 1.397 . S
C243 C299 1.419 . S
C244 C240 1.391 . S
C244 C243 1.391 . S
C244 C245 1.399 1_554 S
C245 C244 1.399 1_556 S
C245 C248 1.396 . S
C245 C257 1.453 . S
C245 C258 1.684 . S
H246 C270 0.948 . S
C247 C243 1.397 . S
C247 C248 1.394 1_554 S
C247 C266 1.723 . S
C248 C245 1.396 . S
C248 C247 1.394 1_556 S
C248 C278 1.723 . S
H249 C272 0.947 . S
H250 C273 0.948 . S
H251 C279 0.982 . S
H252 C280 0.979 . S
H253 C280 0.980 1_554 S
H254 C280 0.983 . S
H255 C279 0.979 . S
H256 C279 0.977 1_554 S
C257 C245 1.453 . S
C257 H286 0.982 . S
C257 H287 0.979 . S
C257 H288 0.977 . S
C258 C245 1.684 . S
C258 H283 0.979 . S
C258 H284 0.980 . S
C258 H285 0.983 . S
C259 C260 1.391 . S
C259 C264 1.391 . S
C259 H289 0.948 . S
C260 C259 1.391 . S
C260 C261 1.391 . S
C261 C260 1.391 . S
C261 C262 1.392 . S
C261 H290 0.947 . S
C262 C261 1.392 . S
C262 C263 1.419 . S
C262 H291 0.948 . S
C263 C262 1.419 . S
C263 C264 1.391 . S
C263 C267 1.397 . S
C264 C259 1.391 . S
C264 C263 1.391 . S
C264 C265 1.399 . S
C265 C264 1.399 . S
C265 C266 1.396 . S
C265 C268 1.453 . S
C265 C269 1.684 . S
C266 C247 1.723 . S
C266 C265 1.396 . S
C266 C267 1.394 . S
C267 C263 1.397 . S
C267 C266 1.394 . S
C267 C277 1.711 1_554 S
C268 C265 1.453 . S
C268 H292 0.982 . S
C268 H293 0.979 . S
C268 H294 0.977 . S
C269 C265 1.684 . S
C269 H295 0.979 . S
C269 H296 0.980 . S
C269 H297 0.983 . S
C270 H246 0.948 . S
C270 C271 1.391 . S
C270 C275 1.391 . S
C271 C270 1.391 . S
C271 C272 1.391 . S
C272 H249 0.947 . S
C272 C271 1.391 . S
C272 C273 1.392 . S
C273 H250 0.948 . S
C273 C272 1.392 . S
C273 C274 1.419 . S
C274 C273 1.419 . S
C274 C275 1.391 . S
C274 C278 1.397 . S
C275 C270 1.391 . S
C275 C274 1.391 . S
C275 C276 1.399 . S
C276 C275 1.399 . S
C276 C277 1.405 . S
C276 C279 1.453 . S
C276 C280 1.684 . S
C277 C267 1.711 1_556 S
C277 C276 1.405 . S
C277 C278 1.400 . S
C278 C248 1.723 . S
C278 C274 1.397 . S
C278 C277 1.400 . S
C279 H251 0.982 . S
C279 H255 0.979 . S
C279 H256 0.977 1_556 S
C279 C276 1.453 . S
C280 H252 0.979 . S
C280 H253 0.980 1_556 S
C280 H254 0.983 . S
C280 C276 1.684 . S
H281 C299 0.948 . S
H282 C240 0.948 . S
H283 C258 0.979 . S
H284 C258 0.980 . S
H285 C258 0.983 . S
H286 C257 0.982 . S
H287 C257 0.979 . S
H288 C257 0.977 . S
H289 C259 0.948 . S
H290 C261 0.947 . S
H291 C262 0.948 . S
H292 C268 0.982 . S
H293 C268 0.979 . S
H294 C268 0.977 . S
H295 C269 0.979 . S
H296 C269 0.980 . S
H297 C269 0.983 . S
H298 C242 0.947 . S
C299 C242 1.392 . S
C299 C243 1.419 . S
C299 H281 0.948 . S
C300 C301 1.391 . S
C300 C304 1.391 . S
C300 H342 0.948 . S
C301 C300 1.391 . S
C301 C302 1.391 . S
C302 C301 1.391 . S
C302 H358 0.947 . S
C302 C359 1.392 . S
C303 C304 1.391 . S
C303 C307 1.396 1_655 S
C303 C359 1.419 . S
C304 C300 1.391 . S
C304 C303 1.391 . S
C304 C305 1.399 . S
C305 C304 1.399 . S
C305 C308 1.396 1_655 S
C305 C317 1.453 1_655 S
C305 C318 1.684 . S
H306 C330 0.948 . S
C307 C303 1.396 1_455 S
C307 C308 1.395 . S
C307 C326 1.723 . S
C308 C305 1.396 1_455 S
C308 C307 1.395 . S
C308 C338 1.723 . S
H309 C332 0.947 . S
H310 C333 0.948 . S
H311 C339 0.982 . S
H312 C340 0.979 . S
H313 C340 0.980 . S
H314 C340 0.983 . S
H315 C339 0.979 . S
H316 C339 0.977 . S
C317 C305 1.453 1_455 S
C317 H346 0.982 . S
C317 H347 0.979 . S
C317 H348 0.977 . S
C318 C305 1.684 . S
C318 H343 0.979 . S
C318 H344 0.980 . S
C318 H345 0.983 . S
C319 C320 1.391 . S
C319 C324 1.391 . S
C319 H349 0.948 . S
C320 C319 1.391 . S
C320 C321 1.391 . S
C321 C320 1.391 . S
C321 C322 1.392 . S
C321 H350 0.947 . S
C322 C321 1.392 . S
C322 C323 1.419 . S
C322 H351 0.948 . S
C323 C322 1.419 . S
C323 C324 1.391 . S
C323 C327 1.396 1_655 S
C324 C319 1.391 . S
C324 C323 1.391 . S
C324 C325 1.399 . S
C325 C324 1.399 . S
C325 C326 1.396 1_656 S
C325 C328 1.453 1_655 S
C325 C329 1.684 . S
C326 C307 1.723 . S
C326 C325 1.396 1_454 S
C326 C327 1.395 1_554 S
C327 C323 1.396 1_455 S
C327 C326 1.395 1_556 S
C327 C337 1.719 1_556 S
C328 C325 1.453 1_455 S
C328 H352 0.982 . S
C328 H353 0.979 . S
C328 H354 0.977 1_556 S
C329 C325 1.684 . S
C329 H355 0.979 . S
C329 H356 0.980 1_556 S
C329 H357 0.983 . S
C330 H306 0.948 . S
C330 C331 1.391 . S
C330 C335 1.391 . S
C331 C330 1.391 . S
C331 C332 1.391 . S
C332 H309 0.947 . S
C332 C331 1.391 . S
C332 C333 1.392 . S
C333 H310 0.948 . S
C333 C332 1.392 . S
C333 C334 1.419 . S
C334 C333 1.419 . S
C334 C335 1.391 . S
C334 C338 1.396 1_655 S
C335 C330 1.391 . S
C335 C334 1.391 . S
C335 C336 1.399 1_554 S
C336 C335 1.399 1_556 S
C336 C337 1.393 1_656 S
C336 C339 1.453 1_655 S
C336 C340 1.684 . S
C337 C327 1.719 1_554 S
C337 C336 1.393 1_454 S
C337 C338 1.406 . S
C338 C308 1.723 . S
C338 C334 1.396 1_455 S
C338 C337 1.406 . S
C339 H311 0.982 . S
C339 H315 0.979 . S
C339 H316 0.977 . S
C339 C336 1.453 1_455 S
C340 H312 0.979 . S
C340 H313 0.980 . S
C340 H314 0.983 . S
C340 C336 1.684 . S
H341 C359 0.948 . S
H342 C300 0.948 . S
H343 C318 0.979 . S
H344 C318 0.980 . S
H345 C318 0.983 . S
H346 C317 0.982 . S
H347 C317 0.979 . S
H348 C317 0.977 . S
H349 C319 0.948 . S
H350 C321 0.947 . S
H351 C322 0.948 . S
H352 C328 0.982 . S
H353 C328 0.979 . S
H354 C328 0.977 1_554 S
H355 C329 0.979 . S
H356 C329 0.980 1_554 S
H357 C329 0.983 . S
H358 C302 0.947 . S
C359 C302 1.392 . S
C359 C303 1.419 . S
C359 H341 0.948 . S
C360 C361 1.391 . S
C360 C364 1.391 . S
C360 H402 0.948 . S
C361 C360 1.391 . S
C361 C362 1.391 . S
C362 C361 1.391 . S
C362 H418 0.947 . S
C362 C419 1.392 . S
C363 C364 1.391 . S
C363 C367 1.397 1_545 S
C363 C419 1.419 . S
C364 C360 1.391 . S
C364 C363 1.391 . S
C364 C365 1.399 . S
C365 C364 1.399 . S
C365 C368 1.396 1_545 S
C365 C377 1.453 1_545 S
C365 C378 1.684 . S
H366 C390 0.948 . S
C367 C363 1.397 1_565 S
C367 C368 1.394 . S
C367 C386 1.723 1_556 S
C368 C365 1.396 1_565 S
C368 C367 1.394 . S
C368 C398 1.723 1_556 S
H369 C392 0.947 1_556 S
H370 C393 0.948 1_556 S
H371 C399 0.982 . S
H372 C400 0.979 . S
H373 C400 0.980 . S
H374 C400 0.983 . S
H375 C399 0.979 . S
H376 C399 0.977 . S
C377 C365 1.453 1_565 S
C377 H406 0.982 . S
C377 H407 0.979 . S
C377 H408 0.977 . S
C378 C365 1.684 . S
C378 H403 0.979 . S
C378 H404 0.980 . S
C378 H405 0.983 . S
C379 C380 1.391 . S
C379 C384 1.391 . S
C379 H409 0.948 . S
C380 C379 1.391 . S
C380 C381 1.391 . S
C381 C380 1.391 . S
C381 C382 1.392 . S
C381 H410 0.947 . S
C382 C381 1.392 . S
C382 C383 1.419 . S
C382 H411 0.948 . S
C383 C382 1.419 . S
C383 C384 1.391 . S
C383 C387 1.397 1_545 S
C384 C379 1.391 . S
C384 C383 1.391 . S
C384 C385 1.399 . S
C385 C384 1.399 . S
C385 C386 1.396 1_545 S
C385 C388 1.453 1_545 S
C385 C389 1.684 . S
C386 C367 1.723 1_554 S
C386 C385 1.396 1_565 S
C386 C387 1.394 . S
C387 C383 1.397 1_565 S
C387 C386 1.394 . S
C387 C397 1.723 . S
C388 C385 1.453 1_565 S
C388 H412 0.982 . S
C388 H413 0.979 . S
C388 H414 0.977 1_554 S
C389 C385 1.684 . S
C389 H415 0.979 . S
C389 H416 0.980 1_554 S
C389 H417 0.983 . S
C390 H366 0.948 . S
C390 C391 1.391 . S
C390 C395 1.391 . S
C391 C390 1.391 . S
C391 C392 1.391 . S
C392 H369 0.947 1_554 S
C392 C391 1.391 . S
C392 C393 1.392 . S
C393 H370 0.948 1_554 S
C393 C392 1.392 . S
C393 C394 1.419 . S
C394 C393 1.419 . S
C394 C395 1.391 . S
C394 C398 1.397 1_545 S
C395 C390 1.391 . S
C395 C394 1.391 . S
C395 C396 1.399 . S
C396 C395 1.399 . S
C396 C397 1.396 1_545 S
C396 C399 1.453 1_545 S
C396 C400 1.684 . S
C397 C387 1.723 . S
C397 C396 1.396 1_565 S
C397 C398 1.394 . S
C398 C368 1.723 1_554 S
C398 C394 1.397 1_565 S
C398 C397 1.394 . S
C399 H371 0.982 . S
C399 H375 0.979 . S
C399 H376 0.977 . S
C399 C396 1.453 1_565 S
C400 H372 0.979 . S
C400 H373 0.980 . S
C400 H374 0.983 . S
C400 C396 1.684 . S
H401 C419 0.948 . S
H402 C360 0.948 . S
H403 C378 0.979 . S
H404 C378 0.980 . S
H405 C378 0.983 . S
H406 C377 0.982 . S
H407 C377 0.979 . S
H408 C377 0.977 . S
H409 C379 0.948 . S
H410 C381 0.947 . S
H411 C382 0.948 . S
H412 C388 0.982 . S
H413 C388 0.979 . S
H414 C388 0.977 1_556 S
H415 C389 0.979 . S
H416 C389 0.980 1_556 S
H417 C389 0.983 . S
H418 C362 0.947 . S
C419 C362 1.392 . S
C419 C363 1.419 . S
C419 H401 0.948 . S
C420 C421 1.391 . S
C420 C424 1.391 . S
C420 H462 0.948 . S
C421 C420 1.391 . S
C421 C422 1.391 . S
C422 C421 1.391 . S
C422 H478 0.947 . S
C422 C479 1.392 . S
C423 C424 1.391 . S
C423 C427 1.397 . S
C423 C479 1.419 . S
C424 C420 1.391 . S
C424 C423 1.391 . S
C424 C425 1.399 . S
C425 C424 1.399 . S
C425 C428 1.396 . S
C425 C437 1.453 . S
C425 C438 1.684 . S
H426 C450 0.948 . S
C427 C423 1.397 . S
C427 C428 1.394 . S
C427 C446 1.723 1_556 S
C428 C425 1.396 . S
C428 C427 1.394 . S
C428 C458 1.723 1_556 S
H429 C452 0.947 1_556 S
H430 C453 0.960 . S
H431 C459 0.982 . S
H432 C460 0.979 . S
H433 C460 0.980 . S
H434 C460 0.983 . S
H435 C459 0.979 . S
H436 C459 0.977 . S
C437 C425 1.453 . S
C437 H466 0.982 . S
C437 H467 0.979 . S
C437 H468 0.977 . S
C438 C425 1.684 . S
C438 H463 0.979 . S
C438 H464 0.980 . S
C438 H465 0.983 . S
C439 C440 1.391 . S
C439 C444 1.391 . S
C439 H469 0.948 . S
C440 C439 1.391 . S
C440 C441 1.391 . S
C441 C440 1.391 . S
C441 C442 1.392 . S
C441 H470 0.947 . S
C442 C441 1.392 . S
C442 C443 1.419 . S
C442 H471 0.948 . S
C443 C442 1.419 . S
C443 C444 1.391 . S
C443 C447 1.397 . S
C444 C439 1.391 . S
C444 C443 1.391 . S
C444 C445 1.399 . S
C445 C444 1.399 . S
C445 C446 1.396 . S
C445 C448 1.453 . S
C445 C449 1.684 . S
C446 C427 1.723 1_554 S
C446 C445 1.396 . S
C446 C447 1.394 . S
C447 C443 1.397 . S
C447 C446 1.394 . S
C447 C457 1.723 . S
C448 C445 1.453 . S
C448 H472 0.982 . S
C448 H473 0.979 . S
C448 H474 0.977 1_554 S
C449 C445 1.684 . S
C449 H475 0.979 . S
C449 H476 0.980 1_554 S
C449 H477 0.983 . S
C450 H426 0.948 . S
C450 C451 1.391 . S
C450 C455 1.391 . S
C451 C450 1.391 . S
C451 C452 1.391 . S
C452 H429 0.947 1_554 S
C452 C451 1.391 . S
C452 C453 1.388 1_554 S
C453 H430 0.960 . S
C453 C452 1.388 1_556 S
C453 C454 1.410 1_556 S
C454 C453 1.410 1_554 S
C454 C455 1.391 . S
C454 C458 1.397 . S
C455 C450 1.391 . S
C455 C454 1.391 . S
C455 C456 1.399 . S
C456 C455 1.399 . S
C456 C457 1.396 . S
C456 C459 1.453 . S
C456 C460 1.684 . S
C457 C447 1.723 . S
C457 C456 1.396 . S
C457 C458 1.394 . S
C458 C428 1.723 1_554 S
C458 C454 1.397 . S
C458 C457 1.394 . S
C459 H431 0.982 . S
C459 H435 0.979 . S
C459 H436 0.977 . S
C459 C456 1.453 . S
C460 H432 0.979 . S
C460 H433 0.980 . S
C460 H434 0.983 . S
C460 C456 1.684 . S
H461 C479 0.948 . S
H462 C420 0.948 . S
H463 C438 0.979 . S
H464 C438 0.980 . S
H465 C438 0.983 . S
H466 C437 0.982 . S
H467 C437 0.979 . S
H468 C437 0.977 . S
H469 C439 0.948 . S
H470 C441 0.947 . S
H471 C442 0.948 . S
H472 C448 0.982 . S
H473 C448 0.979 . S
H474 C448 0.977 1_556 S
H475 C449 0.979 . S
H476 C449 0.980 1_556 S
H477 C449 0.983 . S
H478 C422 0.947 . S
C479 C422 1.392 . S
C479 C423 1.419 . S
C479 H461 0.948 . S
La480 C482 2.928 . S
La480 O500 2.521 . S
La480 O501 2.628 . S
La480 O502 2.554 . S
La480 O503 2.757 1_565 S
La480 O504 2.470 . S
La480 O509 2.482 1_455 S
La480 O511 2.503 1_565 S
La481 C491 2.928 . S
La481 O503 2.482 1_655 S
La481 O505 2.503 1_545 S
La481 O506 2.521 . S
La481 O507 2.628 . S
La481 O508 2.554 . S
La481 O509 2.757 1_545 S
La481 O510 2.470 . S
C482 La480 2.928 . S
C482 C483 1.503 . S
C482 O500 1.261 . S
C482 O501 1.243 . S
C483 C482 1.503 . S
C483 C484 1.394 . S
C483 C488 1.373 1_556 S
C484 C483 1.394 . S
C484 C485 1.380 1_556 S
C484 H512 0.930 . S
C485 C484 1.380 1_554 S
C485 C486 1.376 . S
C485 H513 0.930 . S
C486 C485 1.376 . S
C486 C487 1.370 . S
C487 C486 1.370 . S
C487 C488 1.396 . S
C487 H514 0.929 . S
C488 C483 1.373 1_554 S
C488 C487 1.396 . S
C488 H515 0.929 1_455 S
C489 O502 1.240 . S
C489 O503 1.289 1_565 S
C490 O504 1.258 1_655 S
C490 O505 1.256 . S
C491 La481 2.928 . S
C491 C492 1.503 . S
C491 O506 1.261 . S
C491 O507 1.243 . S
C492 C491 1.503 . S
C492 C493 1.394 . S
C492 C497 1.373 . S
C493 C492 1.394 . S
C493 C494 1.380 . S
C493 H516 0.930 . S
C494 C493 1.380 . S
C494 C495 1.376 . S
C494 H517 0.930 . S
C495 C494 1.376 . S
C495 C496 1.370 . S
C496 C495 1.370 . S
C496 C497 1.396 . S
C496 H518 0.929 . S
C497 C492 1.373 . S
C497 C496 1.396 . S
C497 H519 0.929 1_655 S
C498 O508 1.240 . S
C498 O509 1.289 1_545 S
C499 O510 1.258 1_455 S
C499 O511 1.256 . S
O500 La480 2.521 . S
O500 C482 1.261 . S
O501 La480 2.628 . S
O501 C482 1.243 . S
O502 La480 2.554 . S
O502 C489 1.240 . S
O503 La480 2.757 1_545 S
O503 La481 2.482 1_455 S
O503 C489 1.289 1_545 S
O504 La480 2.470 . S
O504 C490 1.258 1_455 S
O505 La481 2.503 1_565 S
O505 C490 1.256 . S
O506 La481 2.521 . S
O506 C491 1.261 . S
O507 La481 2.628 . S
O507 C491 1.243 . S
O508 La481 2.554 . S
O508 C498 1.240 . S
O509 La480 2.482 1_655 S
O509 La481 2.757 1_565 S
O509 C498 1.289 1_565 S
O510 La481 2.470 . S
O510 C499 1.258 1_655 S
O511 La480 2.503 1_545 S
O511 C499 1.256 . S
H512 C484 0.930 . S
H513 C485 0.930 . S
H514 C487 0.929 . S
H515 C488 0.929 1_655 S
H516 C493 0.930 . S
H517 C494 0.930 . S
H518 C496 0.929 . S
H519 C497 0.929 1_455 S
La520 C522 2.928 . S
La520 O540 2.521 . S
La520 O541 2.628 . S
La520 O542 2.554 . S
La520 O543 2.757 . S
La520 O544 2.470 . S
La520 O549 2.482 1_545 S
La520 O551 2.503 . S
La521 C531 2.928 . S
La521 O543 2.482 1_565 S
La521 O545 2.503 . S
La521 O546 2.521 . S
La521 O547 2.628 . S
La521 O548 2.554 . S
La521 O549 2.757 . S
La521 O550 2.470 . S
C522 La520 2.928 . S
C522 C523 1.503 . S
C522 O540 1.261 . S
C522 O541 1.243 . S
C523 C522 1.503 . S
C523 C524 1.394 . S
C523 C528 1.373 1_556 S
C524 C523 1.394 . S
C524 C525 1.380 1_556 S
C524 H552 0.930 . S
C525 C524 1.380 1_554 S
C525 C526 1.376 . S
C525 H553 0.930 . S
C526 C525 1.376 . S
C526 C527 1.370 . S
C527 C526 1.370 . S
C527 C528 1.396 . S
C527 H554 0.929 . S
C528 C523 1.373 1_554 S
C528 C527 1.396 . S
C528 H555 0.929 1_545 S
C529 O542 1.240 . S
C529 O543 1.289 . S
C530 O544 1.258 1_565 S
C530 O545 1.256 . S
C531 La521 2.928 . S
C531 C532 1.503 . S
C531 O546 1.261 . S
C531 O547 1.243 . S
C532 C531 1.503 . S
C532 C533 1.394 . S
C532 C537 1.373 . S
C533 C532 1.394 . S
C533 C534 1.380 . S
C533 H556 0.930 . S
C534 C533 1.380 . S
C534 C535 1.376 . S
C534 H557 0.930 . S
C535 C534 1.376 . S
C535 C536 1.370 . S
C536 C535 1.370 . S
C536 C537 1.396 . S
C536 H558 0.929 . S
C537 C532 1.373 . S
C537 C536 1.396 . S
C537 H559 0.929 1_565 S
C538 O548 1.240 . S
C538 O549 1.289 . S
C539 O550 1.258 1_545 S
C539 O551 1.256 . S
O540 La520 2.521 . S
O540 C522 1.261 . S
O541 La520 2.628 . S
O541 C522 1.243 . S
O542 La520 2.554 . S
O542 C529 1.240 . S
O543 La520 2.757 . S
O543 La521 2.482 1_545 S
O543 C529 1.289 . S
O544 La520 2.470 . S
O544 C530 1.258 1_545 S
O545 La521 2.503 . S
O545 C530 1.256 . S
O546 La521 2.521 . S
O546 C531 1.261 . S
O547 La521 2.628 . S
O547 C531 1.243 . S
O548 La521 2.554 . S
O548 C538 1.240 . S
O549 La520 2.482 1_565 S
O549 La521 2.757 . S
O549 C538 1.289 . S
O550 La521 2.470 . S
O550 C539 1.258 1_565 S
O551 La520 2.503 . S
O551 C539 1.256 . S
H552 C524 0.930 . S
H553 C525 0.930 . S
H554 C527 0.929 . S
H555 C528 0.929 1_565 S
H556 C533 0.930 . S
H557 C534 0.930 . S
H558 C536 0.929 . S
H559 C537 0.929 1_545 S
La560 C562 2.928 . S
La560 O580 2.521 . S
La560 O581 2.628 . S
La560 O582 2.554 . S
La560 O583 2.757 . S
La560 O584 2.470 . S
La560 O589 2.482 . S
La560 O591 2.503 . S
La561 C571 2.928 . S
La561 O583 2.482 . S
La561 O585 2.503 . S
La561 O586 2.521 . S
La561 O587 2.628 . S
La561 O588 2.554 . S
La561 O589 2.757 . S
La561 O590 2.470 . S
C562 La560 2.928 . S
C562 C563 1.503 . S
C562 O580 1.261 . S
C562 O581 1.243 . S
C563 C562 1.503 . S
C563 C564 1.394 . S
C563 C568 1.373 1_556 S
C564 C563 1.394 . S
C564 C565 1.380 1_556 S
C564 H592 0.930 . S
C565 C564 1.380 1_554 S
C565 C566 1.376 . S
C565 H593 0.930 . S
C566 C565 1.376 . S
C566 C567 1.370 . S
C567 C566 1.370 . S
C567 C568 1.396 . S
C567 H594 0.929 . S
C568 C563 1.373 1_554 S
C568 C567 1.396 . S
C568 H595 0.929 . S
C569 O582 1.240 . S
C569 O583 1.289 . S
C570 O584 1.258 . S
C570 O585 1.256 . S
C571 La561 2.928 . S
C571 C572 1.503 . S
C571 O586 1.261 . S
C571 O587 1.243 . S
C572 C571 1.503 . S
C572 C573 1.394 . S
C572 C577 1.373 . S
C573 C572 1.394 . S
C573 C574 1.380 . S
C573 H596 0.930 . S
C574 C573 1.380 . S
C574 C575 1.376 . S
C574 H597 0.930 . S
C575 C574 1.376 . S
C575 C576 1.370 . S
C576 C575 1.370 . S
C576 C577 1.396 . S
C576 H598 0.929 . S
C577 C572 1.373 . S
C577 C576 1.396 . S
C577 H599 0.929 . S
C578 O588 1.240 . S
C578 O589 1.289 . S
C579 O590 1.258 . S
C579 O591 1.256 . S
O580 La560 2.521 . S
O580 C562 1.261 . S
O581 La560 2.628 . S
O581 C562 1.243 . S
O582 La560 2.554 . S
O582 C569 1.240 . S
O583 La560 2.757 . S
O583 La561 2.482 . S
O583 C569 1.289 . S
O584 La560 2.470 . S
O584 C570 1.258 . S
O585 La561 2.503 . S
O585 C570 1.256 . S
O586 La561 2.521 . S
O586 C571 1.261 . S
O587 La561 2.628 . S
O587 C571 1.243 . S
O588 La561 2.554 . S
O588 C578 1.240 . S
O589 La560 2.482 . S
O589 La561 2.757 . S
O589 C578 1.289 . S
O590 La561 2.470 . S
O590 C579 1.258 . S
O591 La560 2.503 . S
O591 C579 1.256 . S
H592 C564 0.930 . S
H593 C565 0.930 . S
H594 C567 0.929 . S
H595 C568 0.929 . S
H596 C573 0.930 . S
H597 C574 0.930 . S
H598 C576 0.929 . S
H599 C577 0.929 . S
La600 C602 2.928 . S
La600 O620 2.521 . S
La600 O621 2.628 . S
La600 O622 2.554 . S
La600 O623 2.757 1_655 S
La600 O624 2.470 . S
La600 O629 2.482 . S
La600 O631 2.503 1_655 S
La601 C611 2.928 . S
La601 O623 2.482 . S
La601 O625 2.503 1_455 S
La601 O626 2.521 . S
La601 O627 2.628 . S
La601 O628 2.554 . S
La601 O629 2.757 1_455 S
La601 O630 2.470 . S
C602 La600 2.928 . S
C602 C603 1.503 . S
C602 O620 1.261 . S
C602 O621 1.243 . S
C603 C602 1.503 . S
C603 C604 1.394 . S
C603 C608 1.373 1_556 S
C604 C603 1.394 . S
C604 C605 1.380 1_556 S
C604 H632 0.930 . S
C605 C604 1.380 1_554 S
C605 C606 1.376 . S
C605 H633 0.930 . S
C606 C605 1.376 . S
C606 C607 1.370 . S
C607 C606 1.370 . S
C607 C608 1.396 . S
C607 H634 0.929 . S
C608 C603 1.373 1_554 S
C608 C607 1.396 . S
C608 H635 0.929 . S
C609 O622 1.246 . S
C609 O623 1.286 1_655 S
C610 O624 1.258 . S
C610 O625 1.256 . S
C611 La601 2.928 . S
C611 C612 1.503 . S
C611 O626 1.261 . S
C611 O627 1.243 . S
C612 C611 1.503 . S
C612 C613 1.394 . S
C612 C617 1.373 . S
C613 C612 1.394 . S
C613 C614 1.380 . S
C613 H636 0.930 . S
C614 C613 1.380 . S
C614 C615 1.376 . S
C614 H637 0.930 . S
C615 C614 1.376 . S
C615 C616 1.370 . S
C616 C615 1.370 . S
C616 C617 1.396 . S
C616 H638 0.929 . S
C617 C612 1.373 . S
C617 C616 1.396 . S
C617 H639 0.929 . S
C618 O628 1.250 . S
C618 O629 1.283 1_455 S
C619 O630 1.258 . S
C619 O631 1.256 . S
O620 La600 2.521 . S
O620 C602 1.261 . S
O621 La600 2.628 . S
O621 C602 1.243 . S
O622 La600 2.554 . S
O622 C609 1.246 . S
O623 La600 2.757 1_455 S
O623 La601 2.482 . S
O623 C609 1.286 1_455 S
O624 La600 2.470 . S
O624 C610 1.258 . S
O625 La601 2.503 1_655 S
O625 C610 1.256 . S
O626 La601 2.521 . S
O626 C611 1.261 . S
O627 La601 2.628 . S
O627 C611 1.243 . S
O628 La601 2.554 . S
O628 C618 1.250 . S
O629 La600 2.482 . S
O629 La601 2.757 1_655 S
O629 C618 1.283 1_655 S
O630 La601 2.470 . S
O630 C619 1.258 . S
O631 La600 2.503 1_455 S
O631 C619 1.256 . S
H632 C604 0.930 . S
H633 C605 0.930 . S
H634 C607 0.929 . S
H635 C608 0.929 . S
H636 C613 0.930 . S
H637 C614 0.930 . S
H638 C616 0.929 . S
H639 C617 0.929 . S
C640 C641 1.373 . S
C640 C642 1.419 . S
C640 H644 0.930 . S
C641 C640 1.373 . S
C641 C650 1.426 1_545 S
C642 C640 1.419 . S
C642 C643 1.371 . S
C642 H645 0.929 . S
C643 C642 1.371 . S
C643 C649 1.422 1_545 S
H644 C640 0.930 . S
H645 C642 0.929 . S
S646 N647 1.613 1_655 S
S646 N648 1.610 1_655 S
N647 S646 1.613 1_455 S
N647 C650 1.350 . S
N648 S646 1.610 1_455 S
N648 C649 1.351 . S
C649 C643 1.422 1_565 S
C649 N648 1.351 . S
C649 C650 1.434 . S
C650 C641 1.426 1_565 S
C650 N647 1.350 . S
C650 C649 1.434 . S
C651 C652 1.369 . S
C651 C653 1.419 . S
C651 H655 0.930 . S
C652 C651 1.369 . S
C652 C661 1.429 . S
C653 C651 1.419 . S
C653 C654 1.363 . S
C653 H656 0.929 . S
C654 C653 1.363 . S
C654 C660 1.428 . S
H655 C651 0.930 . S
H656 C653 0.929 . S
S657 N658 1.613 . S
S657 N659 1.610 . S
N658 S657 1.613 . S
N658 C661 1.350 . S
N659 S657 1.610 . S
N659 C660 1.351 . S
C660 C654 1.428 . S
C660 N659 1.351 . S
C660 C661 1.434 . S
C661 C652 1.429 . S
C661 N658 1.350 . S
C661 C660 1.434 . S
C662 C663 1.369 . S
C662 C664 1.419 . S
C662 H666 0.930 . S
C663 C662 1.369 . S
C663 C672 1.429 . S
C664 C662 1.419 . S
C664 C665 1.363 . S
C664 H667 0.929 . S
C665 C664 1.363 . S
C665 C671 1.428 . S
H666 C662 0.930 . S
H667 C664 0.929 . S
S668 N669 1.613 . S
S668 N670 1.610 . S
N669 S668 1.613 . S
N669 C672 1.350 . S
N670 S668 1.610 . S
N670 C671 1.351 . S
C671 C665 1.428 . S
C671 N670 1.351 . S
C671 C672 1.434 . S
C672 C663 1.429 . S
C672 N669 1.350 . S
C672 C671 1.434 . S
C673 C674 1.386 . S
C673 C675 1.419 . S
C673 H677 0.930 . S
C674 C673 1.386 . S
C674 C683 1.412 1_455 S
C675 C673 1.419 . S
C675 C676 1.363 . S
C675 H678 0.929 . S
C676 C675 1.363 . S
C676 C682 1.428 1_455 S
H677 C673 0.930 . S
H678 C675 0.929 . S
S679 N680 1.613 . S
S679 N681 1.610 . S
N680 S679 1.613 . S
N680 C683 1.350 . S
N681 S679 1.610 . S
N681 C682 1.351 . S
C682 C676 1.428 1_655 S
C682 N681 1.351 . S
C682 C683 1.434 . S
C683 C674 1.412 1_655 S
C683 N680 1.350 . S
C683 C682 1.434 . S
C684 C685 1.371 1_565 S
C684 C686 1.419 . S
C684 H688 0.930 . S
C685 C684 1.371 1_545 S
C685 C694 1.426 . S
C686 C684 1.419 . S
C686 C687 1.376 . S
C686 H689 0.929 . S
C687 C686 1.376 . S
C687 C693 1.415 1_565 S
H688 C684 0.930 . S
H689 C686 0.929 . S
S690 N691 1.613 . S
S690 N692 1.610 . S
N691 S690 1.613 . S
N691 C694 1.350 . S
N692 S690 1.610 . S
N692 C693 1.351 . S
C693 C687 1.415 1_545 S
C693 N692 1.351 . S
C693 C694 1.434 . S
C694 C685 1.426 . S
C694 N691 1.350 . S
C694 C693 1.434 . S
C695 C696 1.369 . S
C695 C697 1.419 . S
C695 H699 0.930 . S
C696 C695 1.369 . S
C696 C705 1.429 . S
C697 C695 1.419 . S
C697 C698 1.363 . S
C697 H700 0.929 . S
C698 C697 1.363 . S
C698 C704 1.428 . S
H699 C695 0.930 . S
H700 C697 0.929 . S
S701 N702 1.613 . S
S701 N703 1.610 . S
N702 S701 1.613 . S
N702 C705 1.350 . S
N703 S701 1.610 . S
N703 C704 1.351 . S
C704 C698 1.428 . S
C704 N703 1.351 . S
C704 C705 1.434 . S
C705 C696 1.429 . S
C705 N702 1.350 . S
C705 C704 1.434 . S
C706 C707 1.369 . S
C706 C708 1.419 . S
C706 H710 0.930 . S
C707 C706 1.369 . S
C707 C716 1.429 . S
C708 C706 1.419 . S
C708 C709 1.363 . S
C708 H711 0.929 . S
C709 C708 1.363 . S
C709 C715 1.428 . S
H710 C706 0.930 . S
H711 C708 0.929 . S
S712 N713 1.613 . S
S712 N714 1.610 . S
N713 S712 1.613 . S
N713 C716 1.350 . S
N714 S712 1.610 . S
N714 C715 1.351 . S
C715 C709 1.428 . S
C715 N714 1.351 . S
C715 C716 1.434 . S
C716 C707 1.429 . S
C716 N713 1.350 . S
C716 C715 1.434 . S
C717 C718 1.357 1_455 S
C717 C719 1.419 . S
C717 H721 0.930 . S
C718 C717 1.357 1_655 S
C718 C727 1.442 . S
C719 C717 1.419 . S
C719 C720 1.363 1_455 S
C719 H722 0.929 . S
C720 C719 1.363 1_655 S
C720 C726 1.428 . S
H721 C717 0.930 . S
H722 C719 0.929 . S
S723 N724 1.613 . S
S723 N725 1.610 . S
N724 S723 1.613 . S
N724 C727 1.350 . S
N725 S723 1.610 . S
N725 C726 1.351 . S
C726 C720 1.428 . S
C726 N725 1.351 . S
C726 C727 1.434 . S
C727 C718 1.442 . S
C727 N724 1.350 . S
C727 C726 1.434 . S
C728 C729 1.369 . S
C728 C730 1.419 . S
C728 H732 0.930 . S
C729 C728 1.369 . S
C729 C738 1.429 . S
C730 C728 1.419 . S
C730 C731 1.363 . S
C730 H733 0.929 . S
C731 C730 1.363 . S
C731 C737 1.428 . S
H732 C728 0.930 . S
H733 C730 0.929 . S
S734 N735 1.613 . S
S734 N736 1.610 1_455 S
N735 S734 1.613 . S
N735 C738 1.350 1_455 S
N736 S734 1.610 1_655 S
N736 C737 1.351 . S
C737 C731 1.428 . S
C737 N736 1.351 . S
C737 C738 1.434 . S
C738 C729 1.429 . S
C738 N735 1.350 1_655 S
C738 C737 1.434 . S
C739 C740 1.369 . S
C739 C741 1.419 . S
C739 H743 0.930 . S
C740 C739 1.369 . S
C740 C749 1.429 1_565 S
C741 C739 1.419 . S
C741 C742 1.363 . S
C741 H744 0.929 . S
C742 C741 1.363 . S
C742 C748 1.428 . S
H743 C739 0.930 . S
H744 C741 0.929 . S
S745 N746 1.613 . S
S745 N747 1.610 1_545 S
N746 S745 1.613 . S
N746 C749 1.350 . S
N747 S745 1.610 1_565 S
N747 C748 1.351 . S
C748 C742 1.428 . S
C748 N747 1.351 . S
C748 C749 1.434 1_565 S
C749 C740 1.429 1_545 S
C749 N746 1.350 . S
C749 C748 1.434 1_545 S
C750 C751 1.369 . S
C750 C752 1.419 . S
C750 H754 0.930 . S
C751 C750 1.369 . S
C751 C760 1.429 . S
C752 C750 1.419 . S
C752 C753 1.363 . S
C752 H755 0.929 . S
C753 C752 1.363 . S
C753 C759 1.428 . S
H754 C750 0.930 . S
H755 C752 0.929 . S
S756 N757 1.613 . S
S756 N758 1.610 . S
N757 S756 1.613 . S
N757 C760 1.350 . S
N758 S756 1.610 . S
N758 C759 1.351 . S
C759 C753 1.428 . S
C759 N758 1.351 . S
C759 C760 1.434 . S
C760 C751 1.429 . S
C760 N757 1.350 . S
C760 C759 1.434 . S
C761 C762 1.369 . S
C761 C763 1.419 . S
C761 H765 0.930 . S
C762 C761 1.369 . S
C762 C771 1.429 . S
C763 C761 1.419 . S
C763 C764 1.363 . S
C763 H766 0.929 . S
C764 C763 1.363 . S
C764 C770 1.428 . S
H765 C761 0.930 . S
H766 C763 0.929 . S
S767 N768 1.613 . S
S767 N769 1.610 . S
N768 S767 1.613 . S
N768 C771 1.350 . S
N769 S767 1.610 . S
N769 C770 1.351 . S
C770 C764 1.428 . S
C770 N769 1.351 . S
C770 C771 1.434 . S
C771 C762 1.429 . S
C771 N768 1.350 . S
C771 C770 1.434 . S
C772 C773 1.369 . S
C772 C774 1.416 . S
C772 H776 0.933 1_455 S
C773 C772 1.369 . S
C773 C782 1.429 . S
C774 C772 1.416 . S
C774 C775 1.363 . S
C774 H777 0.929 . S
C775 C774 1.363 . S
C775 C781 1.428 . S
H776 C772 0.933 1_655 S
H777 C774 0.929 . S
S778 N779 1.613 . S
S778 N780 1.610 . S
N779 S778 1.613 . S
N779 C782 1.350 . S
N780 S778 1.610 . S
N780 C781 1.351 . S
C781 C775 1.428 . S
C781 N780 1.351 . S
C781 C782 1.434 . S
C782 C773 1.429 . S
C782 N779 1.350 . S
C782 C781 1.434 . S
C783 C784 1.369 . S
C783 C785 1.419 . S
C783 H787 0.930 1_545 S
C784 C783 1.369 . S
C784 C793 1.429 . S
C785 C783 1.419 . S
C785 C786 1.363 . S
C785 H788 0.929 . S
C786 C785 1.363 . S
C786 C792 1.428 . S
H787 C783 0.930 1_565 S
H788 C785 0.929 . S
S789 N790 1.613 . S
S789 N791 1.610 . S
N790 S789 1.613 . S
N790 C793 1.350 1_556 S
N791 S789 1.610 . S
N791 C792 1.351 1_556 S
C792 C786 1.428 . S
C792 N791 1.351 1_554 S
C792 C793 1.434 . S
C793 C784 1.429 . S
C793 N790 1.350 1_554 S
C793 C792 1.434 . S
C794 C795 1.369 . S
C794 C796 1.419 . S
C794 H798 0.930 . S
C795 C794 1.369 . S
C795 C804 1.429 . S
C796 C794 1.419 . S
C796 C797 1.363 . S
C796 H799 0.929 . S
C797 C796 1.363 . S
C797 C803 1.428 . S
H798 C794 0.930 . S
H799 C796 0.929 . S
S800 N801 1.613 . S
S800 N802 1.610 . S
N801 S800 1.613 . S
N801 C804 1.350 . S
N802 S800 1.610 . S
N802 C803 1.351 . S
C803 C797 1.428 . S
C803 N802 1.351 . S
C803 C804 1.434 . S
C804 C795 1.429 . S
C804 N801 1.350 . S
C804 C803 1.434 . S
C805 C806 1.369 . S
C805 C807 1.419 . S
C805 H809 0.930 . S
C806 C805 1.369 . S
C806 C815 1.429 . S
C807 C805 1.419 . S
C807 C808 1.363 . S
C807 H810 0.929 . S
C808 C807 1.363 . S
C808 C814 1.428 . S
H809 C805 0.930 . S
H810 C807 0.929 . S
S811 N812 1.613 . S
S811 N813 1.610 . S
N812 S811 1.613 . S
N812 C815 1.350 . S
N813 S811 1.610 . S
N813 C814 1.351 . S
C814 C808 1.428 . S
C814 N813 1.351 . S
C814 C815 1.434 . S
C815 C806 1.429 . S
C815 N812 1.350 . S
C815 C814 1.434 . S
C816 C817 1.369 . S
C816 C818 1.419 . S
C816 H820 0.930 . S
C817 C816 1.369 . S
C817 C826 1.429 1_455 S
C818 C816 1.419 . S
C818 C819 1.363 . S
C818 H821 0.929 . S
C819 C818 1.363 . S
C819 C825 1.428 1_455 S
H820 C816 0.930 . S
H821 C818 0.929 . S
S822 N823 1.613 . S
S822 N824 1.610 . S
N823 S822 1.613 . S
N823 C826 1.350 . S
N824 S822 1.610 . S
N824 C825 1.351 . S
C825 C819 1.428 1_655 S
C825 N824 1.351 . S
C825 C826 1.434 . S
C826 C817 1.429 1_655 S
C826 N823 1.350 . S
C826 C825 1.434 . S
C827 C828 1.369 . S
C827 C829 1.419 . S
C827 H831 0.930 . S
C828 C827 1.369 . S
C828 C837 1.429 1_545 S
C829 C827 1.419 . S
C829 C830 1.363 . S
C829 H832 0.929 . S
C830 C829 1.363 . S
C830 C836 1.428 1_545 S
H831 C827 0.930 . S
H832 C829 0.929 . S
S833 N834 1.613 . S
S833 N835 1.610 . S
N834 S833 1.613 . S
N834 C837 1.350 . S
N835 S833 1.610 . S
N835 C836 1.351 . S
C836 C830 1.428 1_565 S
C836 N835 1.351 . S
C836 C837 1.434 . S
C837 C828 1.429 1_565 S
C837 N834 1.350 . S
C837 C836 1.434 . S
C838 C839 1.369 . S
C838 C840 1.419 . S
C838 H842 0.930 . S
C839 C838 1.369 . S
C839 C848 1.429 . S
C840 C838 1.419 . S
C840 C841 1.363 . S
C840 H843 0.929 . S
C841 C840 1.363 . S
C841 C847 1.428 . S
H842 C838 0.930 . S
H843 C840 0.929 . S
S844 N845 1.613 . S
S844 N846 1.610 . S
N845 S844 1.613 . S
N845 C848 1.350 . S
N846 S844 1.610 . S
N846 C847 1.351 . S
C847 C841 1.428 . S
C847 N846 1.351 . S
C847 C848 1.434 . S
C848 C839 1.429 . S
C848 N845 1.350 . S
C848 C847 1.434 . S
C849 C850 1.369 . S
C849 C851 1.419 . S
C849 H853 0.930 . S
C850 C849 1.369 . S
C850 C859 1.429 . S
C851 C849 1.419 . S
C851 C852 1.363 . S
C851 H854 0.929 . S
C852 C851 1.363 . S
C852 C858 1.428 . S
H853 C849 0.930 . S
H854 C851 0.929 . S
S855 N856 1.613 . S
S855 N857 1.610 . S
N856 S855 1.613 . S
N856 C859 1.350 . S
N857 S855 1.610 . S
N857 C858 1.351 . S
C858 C852 1.428 . S
C858 N857 1.351 . S
C858 C859 1.434 . S
C859 C850 1.429 . S
C859 N856 1.350 . S
C859 C858 1.434 . S
C860 C861 1.369 . S
C860 C862 1.419 . S
C860 H864 0.930 . S
C861 C860 1.369 . S
C861 C870 1.429 . S
C862 C860 1.419 . S
C862 C863 1.363 . S
C862 H865 0.929 . S
C863 C862 1.363 . S
C863 C869 1.428 . S
H864 C860 0.930 . S
H865 C862 0.929 . S
S866 N867 1.613 . S
S866 N868 1.610 . S
N867 S866 1.613 . S
N867 C870 1.350 . S
N868 S866 1.610 . S
N868 C869 1.351 . S
C869 C863 1.428 . S
C869 N868 1.351 . S
C869 C870 1.434 . S
C870 C861 1.429 . S
C870 N867 1.350 . S
C870 C869 1.434 . S
C871 C872 1.369 . S
C871 C873 1.419 . S
C871 H875 0.930 . S
C872 C871 1.369 . S
C872 C881 1.429 1_565 S
C873 C871 1.419 . S
C873 C874 1.363 . S
C873 H876 0.929 . S
C874 C873 1.363 . S
C874 C880 1.428 1_565 S
H875 C871 0.930 . S
H876 C873 0.929 . S
S877 N878 1.613 . S
S877 N879 1.610 . S
N878 S877 1.613 . S
N878 C881 1.350 . S
N879 S877 1.610 . S
N879 C880 1.351 . S
C880 C874 1.428 1_545 S
C880 N879 1.351 . S
C880 C881 1.434 . S
C881 C872 1.429 1_545 S
C881 N878 1.350 . S
C881 C880 1.434 . S
C882 C883 1.369 . S
C882 C884 1.419 . S
C882 H886 0.930 . S
C883 C882 1.369 . S
C883 C892 1.429 . S
C884 C882 1.419 . S
C884 C885 1.363 . S
C884 H887 0.929 . S
C885 C884 1.363 . S
C885 C891 1.428 . S
H886 C882 0.930 . S
H887 C884 0.929 . S
S888 N889 1.613 . S
S888 N890 1.610 . S
N889 S888 1.613 . S
N889 C892 1.350 . S
N890 S888 1.610 . S
N890 C891 1.351 . S
C891 C885 1.428 . S
C891 N890 1.351 . S
C891 C892 1.434 . S
C892 C883 1.429 . S
C892 N889 1.350 . S
C892 C891 1.434 . S
C893 C894 1.369 . S
C893 C895 1.419 . S
C893 H897 0.930 . S
C894 C893 1.369 . S
C894 C903 1.429 . S
C895 C893 1.419 . S
C895 C896 1.363 . S
C895 H898 0.929 . S
C896 C895 1.363 . S
C896 C902 1.428 . S
H897 C893 0.930 . S
H898 C895 0.929 . S
S899 N900 1.613 . S
S899 N901 1.610 . S
N900 S899 1.613 . S
N900 C903 1.350 . S
N901 S899 1.610 . S
N901 C902 1.351 . S
C902 C896 1.428 . S
C902 N901 1.351 . S
C902 C903 1.434 . S
C903 C894 1.429 . S
C903 N900 1.350 . S
C903 C902 1.434 . S
C641 C391 2.673 . S
C643 C489 2.855 1_545 S
C654 C529 2.876 . S
C652 C451 2.678 . S
C665 C569 2.879 . S
C663 C241 2.344 . S
C676 C609 2.861 1_455 S
C674 C331 2.316 1_455 S
C687 C498 2.858 1_564 S
C685 C121 2.302 1_545 S
C696 C211 2.696 . S
C698 C538 2.878 1_554 S
C707 C31 2.705 . S
C709 C578 2.881 1_554 S
C718 C91 2.315 . S
C720 C618 2.860 1_654 S
C731 C495 0.792 . S
C729 C301 0.798 . S
C742 C535 0.787 . S
C740 C380 0.832 1_565 S
C753 C575 0.764 . S
C751 C440 0.778 . S
C762 C260 0.780 . S
C764 C615 0.760 . S
C773 C61 0.808 1_455 S
C775 C486 0.816 . S
C786 C526 0.802 . S
C784 C140 0.812 1_545 S
C797 C566 0.778 . S
C795 C200 0.755 . S
C806 C20 0.787 . S
C808 C606 0.764 . S
C817 C320 3.426 1_455 S
C819 C499 3.741 . S
C828 C361 2.942 . S
C830 C539 3.712 . S
C841 C579 3.702 . S
C839 C421 2.933 . S
C852 C619 3.738 . S
C850 C271 3.423 . S
C861 C80 3.412 . S
C863 C490 3.749 . S
C874 C530 3.712 . S
C872 C151 3.378 . S
C885 C570 3.705 . S
C883 C181 2.972 . S
C894 C1 2.998 . S
C896 C610 3.741 . S
