# Generated by pormake.
# Topology pyr, (3,6)-cn, num edge types: 1
# Building blocks:
#     Node 0, Type 0, BuildingBlock: BETDAH_clean_linker_0, # of connection points: 3
#     Node 1, Type 0, BuildingBlock: BETDAH_clean_linker_0, # of connection points: 3
#     Node 2, Type 0, BuildingBlock: BETDAH_clean_linker_0, # of connection points: 3
#     Node 3, Type 0, BuildingBlock: BETDAH_clean_linker_0, # of connection points: 3
#     Node 4, Type 0, BuildingBlock: BETDAH_clean_linker_0, # of connection points: 3
#     Node 5, Type 0, BuildingBlock: BETDAH_clean_linker_0, # of connection points: 3
#     Node 6, Type 0, BuildingBlock: BETDAH_clean_linker_0, # of connection points: 3
#     Node 7, Type 0, BuildingBlock: BETDAH_clean_linker_0, # of connection points: 3
#     Node 8, Type 1, BuildingBlock: JUFBIX_clean_sbu_0, # of connection points: 6
#     Node 9, Type 1, BuildingBlock: JUFBIX_clean_sbu_0, # of connection points: 6
#     Node 10, Type 1, BuildingBlock: JUFBIX_clean_sbu_0, # of connection points: 6
#     Node 11, Type 1, BuildingBlock: JUFBIX_clean_sbu_0, # of connection points: 6
#     Edge 12, Type (0, 1), BuildingBlock: TEMPAE_clean_linker_10, # of connection points: 2
#     Edge 13, Type (0, 1), BuildingBlock: TEMPAE_clean_linker_10, # of connection points: 2
#     Edge 14, Type (0, 1), BuildingBlock: TEMPAE_clean_linker_10, # of connection points: 2
#     Edge 15, Type (0, 1), BuildingBlock: TEMPAE_clean_linker_10, # of connection points: 2
#     Edge 16, Type (0, 1), BuildingBlock: TEMPAE_clean_linker_10, # of connection points: 2
#     Edge 17, Type (0, 1), BuildingBlock: TEMPAE_clean_linker_10, # of connection points: 2
#     Edge 18, Type (0, 1), BuildingBlock: TEMPAE_clean_linker_10, # of connection points: 2
#     Edge 19, Type (0, 1), BuildingBlock: TEMPAE_clean_linker_10, # of connection points: 2
#     Edge 20, Type (0, 1), BuildingBlock: TEMPAE_clean_linker_10, # of connection points: 2
#     Edge 21, Type (0, 1), BuildingBlock: TEMPAE_clean_linker_10, # of connection points: 2
#     Edge 22, Type (0, 1), BuildingBlock: TEMPAE_clean_linker_10, # of connection points: 2
#     Edge 23, Type (0, 1), BuildingBlock: TEMPAE_clean_linker_10, # of connection points: 2
#     Edge 24, Type (0, 1), BuildingBlock: TEMPAE_clean_linker_10, # of connection points: 2
#     Edge 25, Type (0, 1), BuildingBlock: TEMPAE_clean_linker_10, # of connection points: 2
#     Edge 26, Type (0, 1), BuildingBlock: TEMPAE_clean_linker_10, # of connection points: 2
#     Edge 27, Type (0, 1), BuildingBlock: TEMPAE_clean_linker_10, # of connection points: 2
#     Edge 28, Type (0, 1), BuildingBlock: TEMPAE_clean_linker_10, # of connection points: 2
#     Edge 29, Type (0, 1), BuildingBlock: TEMPAE_clean_linker_10, # of connection points: 2
#     Edge 30, Type (0, 1), BuildingBlock: TEMPAE_clean_linker_10, # of connection points: 2
#     Edge 31, Type (0, 1), BuildingBlock: TEMPAE_clean_linker_10, # of connection points: 2
#     Edge 32, Type (0, 1), BuildingBlock: TEMPAE_clean_linker_10, # of connection points: 2
#     Edge 33, Type (0, 1), BuildingBlock: TEMPAE_clean_linker_10, # of connection points: 2
#     Edge 34, Type (0, 1), BuildingBlock: TEMPAE_clean_linker_10, # of connection points: 2
#     Edge 35, Type (0, 1), BuildingBlock: TEMPAE_clean_linker_10, # of connection points: 2
# Relax obj value: 0.125
# Max RMSD: 0.203
# Mean RMSD: 0.127
data_MOF--net-pry--node1-JUFBIX_clean_sbu_0--node2-BETDAH_clean_linker_0--edge1-TEMPAE_clean_linker_10
_symmetry_space_group_name_H-M    P1
_symmetry_Int_Tables_number       1
_symmetry_cell_setting            triclinic
loop_
_symmetry_equiv_pos_as_xyz
'x, y, z'
_cell_length_a     37.138441
_cell_length_b     35.370941
_cell_length_c     38.783558
_cell_angle_alpha  85.211253
_cell_angle_beta   90.328138
_cell_angle_gamma 97.740448
loop_
_atom_site_label
_atom_site_type_symbol
_atom_site_fract_x
_atom_site_fract_y
_atom_site_fract_z
_atom_type_partial_charge
H0 H 0.23072 0.13593 0.25153 0.0
H1 H 0.23694 0.21369 0.15975 0.0
H2 H 0.15468 0.21887 0.23583 0.0
C3 C 0.22034 0.15878 0.23584 0.0
C4 C 0.19001 0.17495 0.24824 0.0
C5 C 0.23834 0.17266 0.20406 0.0
C6 C 0.22464 0.20312 0.18455 0.0
C7 C 0.19492 0.22029 0.19551 0.0
C8 C 0.17776 0.20618 0.22752 0.0
N9 N 0.18409 0.25088 0.17231 0.0
C10 C 0.1576 0.27593 0.17373 0.0
H11 H 0.4884 0.88097 0.72235 0.0
H12 H 0.45493 0.9892 0.68517 0.0
H13 H 0.47658 0.91037 0.61305 0.0
C14 C 0.48203 0.90086 0.70118 0.0
C15 C 0.48441 0.89102 0.66682 0.0
C16 C 0.47119 0.93618 0.70838 0.0
C17 C 0.46269 0.96161 0.68056 0.0
C18 C 0.46523 0.95218 0.6464 0.0
C19 C 0.47611 0.91733 0.6397 0.0
N20 N 0.45678 0.97747 0.61825 0.0
C21 C 0.42299 0.98996 0.61572 0.0
H22 H 0.71689 0.3511 0.95485 0.0
H23 H 0.70901 0.44569 0.87851 0.0
H24 H 0.61526 0.36398 0.90467 0.0
C25 C 0.70138 0.36629 0.93588 0.0
C26 C 0.66439 0.35295 0.93147 0.0
C27 C 0.71781 0.40016 0.91729 0.0
C28 C 0.69683 0.41983 0.89326 0.0
C29 C 0.65978 0.4068 0.88913 0.0
C30 C 0.64384 0.37382 0.9084 0.0
N31 N 0.63714 0.42686 0.8669 0.0
C32 C 0.64904 0.45028 0.83759 0.0
H33 H 0.94304 0.70443 0.5105 0.0
H34 H 0.04293 0.67936 0.46734 0.0
H35 H 0.94236 0.60898 0.44874 0.0
C36 C 0.95779 0.68615 0.49641 0.0
C37 C 0.93842 0.65471 0.48154 0.0
C38 C 0.99546 0.69579 0.49107 0.0
C39 C 0.0139 0.67252 0.4717 0.0
C40 C 0.9948 0.64178 0.45595 0.0
C41 C 0.95705 0.63296 0.4608 0.0
N42 N 0.01387 0.62115 0.43407 0.0
C43 C 0.99989 0.61103 0.40238 0.0
H44 H 0.91909 0.86011 0.85036 0.0
H45 H 0.83 0.85962 0.9221 0.0
H46 H 0.84091 0.93874 0.83111 0.0
C47 C 0.89508 0.87174 0.85797 0.0
C48 C 0.88297 0.90201 0.83655 0.0
C49 C 0.87647 0.85588 0.88899 0.0
C50 C 0.84484 0.87147 0.89886 0.0
C51 C 0.83224 0.90204 0.87819 0.0
C52 C 0.85145 0.91636 0.84735 0.0
N53 N 0.79909 0.91767 0.8846 0.0
C54 C 0.77796 0.91918 0.91461 0.0
H55 H 0.70329 0.1818 0.37073 0.0
H56 H 0.69534 0.19954 0.47857 0.0
H57 H 0.61533 0.2358 0.40763 0.0
C58 C 0.68988 0.19306 0.39159 0.0
C59 C 0.65756 0.20902 0.38494 0.0
C60 C 0.70405 0.18959 0.42516 0.0
C61 C 0.68574 0.20308 0.45221 0.0
C62 C 0.65457 0.22069 0.44583 0.0
C63 C 0.64038 0.22367 0.41219 0.0
N64 N 0.6365 0.2324 0.4743 0.0
C65 C 0.6234 0.26735 0.4738 0.0
H66 H 0.30165 0.74181 0.16566 0.0
H67 H 0.27646 0.6367 0.23025 0.0
H68 H 0.37694 0.70953 0.2439 0.0
C69 C 0.30847 0.72214 0.18689 0.0
C70 C 0.34172 0.72993 0.20408 0.0
C71 C 0.28482 0.68841 0.19581 0.0
C72 C 0.29461 0.66266 0.22259 0.0
C73 C 0.32746 0.66998 0.24009 0.0
C74 C 0.35126 0.70367 0.2307 0.0
N75 N 0.33551 0.64233 0.26659 0.0
C76 C 0.36424 0.64718 0.28951 0.0
H77 H 0.14997 0.39163 0.57194 0.0
H78 H 0.13353 0.46656 0.65094 0.0
H79 H 0.04739 0.38097 0.62544 0.0
C80 C 0.13282 0.4007 0.59128 0.0
C81 C 0.09731 0.38148 0.59662 0.0
C82 C 0.14663 0.43109 0.61104 0.0
C83 C 0.12349 0.44359 0.63516 0.0
C84 C 0.08733 0.42605 0.63917 0.0
C85 C 0.07468 0.39528 0.62015 0.0
N86 N 0.06269 0.43807 0.66237 0.0
C87 C 0.07264 0.456 0.69209 0.0
Co88 Co 1.01122 0.03759 0.53087 0.0
C89 C 0.04441 0.97088 0.53212 0.0
Co90 Co 0.06469 0.04105 0.55608 0.0
C91 C 0.94714 0.05826 0.49486 0.0
C92 C 0.94177 0.99904 0.51339 0.0
N93 N 0.96575 0.03142 0.51052 0.0
N94 N 0.91239 0.04402 0.48852 0.0
C95 C 0.90899 0.00671 0.49996 0.0
H96 H 0.95803 0.08823 0.49039 0.0
H97 H 0.94709 0.97205 0.52626 0.0
C98 C 0.03165 0.1077 0.55445 0.0
N99 N 0.10916 0.04711 0.57806 0.0
C100 C 0.14136 0.03658 0.56952 0.0
C101 C 0.11553 0.06438 0.60764 0.0
N102 N 0.16756 0.04696 0.59256 0.0
C103 C 0.15132 0.06442 0.61654 0.0
C104 C 0.06889 0.06495 0.48349 0.0
O105 O 1.00616 0.08877 0.53879 0.0
O106 O 0.05899 0.09198 0.56456 0.0
O107 O 0.08775 0.06038 0.51095 0.0
O108 O 0.03439 0.05607 0.48612 0.0
O109 O 0.07025 0.98987 0.54752 0.0
H110 H 0.09533 0.07612 0.62194 0.0
H111 H 0.14555 0.02199 0.54672 0.0
O112 O 0.01693 0.98687 0.52273 0.0
O113 O 0.98816 0.01896 0.57603 0.0
O114 O 0.04128 0.02185 0.60064 0.0
C115 C 1.00683 0.01368 0.60336 0.0
H116 H 0.88414 0.98681 0.49994 0.0
H117 H 0.16424 0.07576 0.63929 0.0
Co118 Co 0.49479 0.03227 0.04594 0.0
C119 C 0.4861 0.97102 0.09669 0.0
Co120 Co 0.527 0.04206 0.09297 0.0
C121 C 0.47843 0.02141 0.97399 0.0
C122 C 0.43138 0.00851 1.00669 0.0
N123 N 0.46705 0.02232 1.00692 0.0
N124 N 0.45143 0.00689 0.95346 0.0
C125 C 0.42175 0.99889 0.97392 0.0
H126 H 0.50644 0.02899 0.9657 0.0
H127 H 0.41392 1.00384 0.02929 0.0
C128 C 0.53618 0.10336 0.04277 0.0
N129 N 0.55462 0.05096 0.132 0.0
C130 C 0.55501 0.07981 0.15277 0.0
C131 C 0.57886 0.0291 0.14596 0.0
N132 N 0.57852 0.0768 0.17931 0.0
C133 C 0.59367 0.04492 0.17484 0.0
C134 C 0.56531 0.00947 0.04144 0.0
O135 O 0.51365 0.08193 0.02565 0.0
O136 O 0.5451 0.09133 0.07298 0.0
O137 O 0.56777 0.02138 0.07169 0.0
O138 O 0.53533 0.01116 0.02553 0.0
O139 O 0.50885 0.99278 0.11304 0.0
H140 H 0.58531 1.00321 0.13584 0.0
H141 H 0.53788 0.10219 0.14871 0.0
O142 O 0.47638 0.98263 0.0666 0.0
O143 O 0.45427 0.05364 0.06684 0.0
O144 O 0.48605 0.06257 0.11371 0.0
C145 C 0.45634 0.0649 0.09737 0.0
H146 H 0.39525 0.9859 0.96601 0.0
H147 H 0.6143 0.03378 0.19101 0.0
Co148 Co 0.56776 0.59438 0.5467 0.0
C149 C 0.50779 0.59841 0.50269 0.0
Co150 Co 0.51544 0.56412 0.56759 0.0
C151 C 0.64391 0.61136 0.52819 0.0
C152 C 0.61334 0.6559 0.50944 0.0
N153 N 0.61008 0.6214 0.52755 0.0
N154 N 0.66826 0.6383 0.51121 0.0
C155 C 0.64894 0.66632 0.49934 0.0
H156 H 0.6505 0.58497 0.54131 0.0
H157 H 0.59118 0.67238 0.50385 0.0
C158 C 0.57526 0.56006 0.61168 0.0
N159 N 0.47309 0.53666 0.58695 0.0
C160 C 0.43811 0.54283 0.58266 0.0
C161 C 0.47145 0.50488 0.60903 0.0
N162 N 0.41497 0.5164 0.60156 0.0
C163 C 0.43589 0.49255 0.61819 0.0
C164 C 0.55514 0.5192 0.53081 0.0
O165 O 0.59342 0.57936 0.587 0.0
O166 O 0.54121 0.55124 0.60828 0.0
O167 O 0.52638 0.51924 0.54842 0.0
O168 O 0.57738 0.54983 0.52626 0.0
O169 O 0.49045 0.57737 0.52691 0.0
H170 H 0.49461 0.49116 0.61764 0.0
H171 H 0.42977 0.56628 0.56615 0.0
O172 O 0.54157 0.60924 0.5063 0.0
O173 O 0.55791 0.63853 0.56774 0.0
O174 O 0.5048 0.60921 0.58654 0.0
C175 C 0.52836 0.63893 0.58399 0.0
H176 H 0.65955 0.69236 0.48401 0.0
H177 H 0.42604 0.46735 0.63501 0.0
Co178 Co 0.02284 0.56181 0.01555 0.0
C179 C 0.95512 0.52034 1.00994 0.0
Co180 Co 0.9892 0.56137 0.06237 0.0
C181 C 0.05168 0.54188 0.95064 0.0
C182 C 0.0773 0.59554 0.96623 0.0
N183 N 0.0521 0.56554 0.9763 0.0
N184 N 0.07548 0.5561 0.92497 0.0
C185 C 0.09179 0.58975 0.93498 0.0
H186 H 0.03314 0.51559 0.9501 0.0
H187 H 0.08405 0.62079 0.98011 0.0
C188 C 0.0567 0.60248 0.06832 0.0
N189 N 0.9606 0.55801 0.10207 0.0
C190 C 0.9647 0.58061 0.12861 0.0
C191 C 0.93626 0.52791 0.1137 0.0
N192 N 0.94475 0.56534 0.15668 0.0
C193 C 0.92645 0.53236 0.14709 0.0
C194 C 0.0334 0.50053 0.06472 0.0
O195 O 0.06028 0.59296 0.03786 0.0
O196 O 0.02695 0.59165 0.08419 0.0
O197 O 1.00949 0.51531 0.08075 0.0
O198 O 0.0434 0.51608 0.0347 0.0
O199 O 0.95168 0.53086 0.04012 0.0
H200 H 0.9283 0.50279 0.09992 0.0
H201 H 0.98357 0.60674 0.12804 0.0
O202 O 0.98496 0.5305 0.99372 0.0
O203 O 1.00204 0.60726 0.99686 0.0
O204 O 0.96938 0.6078 0.0436 0.0
C205 C 0.97894 0.62276 1.01327 0.0
H206 H 0.1123 0.60928 0.92052 0.0
H207 H 0.90958 0.51125 0.16387 0.0
C208 C 0.16799 0.11956 0.2937 0.0
C209 C 0.17148 0.15899 0.28274 0.0
C210 C 0.15151 0.10427 0.32582 0.0
C211 C 0.13778 0.12855 0.34855 0.0
C212 C 0.14104 0.16834 0.33768 0.0
C213 C 0.15751 0.18288 0.30529 0.0
C214 C 0.14868 0.06175 0.33541 0.0
C215 C 0.12731 0.19584 0.36053 0.0
C216 C 0.066 0.08471 0.41852 0.0
C217 C 0.08667 0.081 0.44896 0.0
C218 C 0.08204 0.09993 0.38618 0.0
C219 C 0.12007 0.11235 0.38338 0.0
C220 C 0.14108 0.1088 0.41403 0.0
C221 C 0.12436 0.09328 0.44604 0.0
C222 C 0.05807 0.10262 0.35478 0.0
C223 C 0.1815 0.12154 0.41308 0.0
H224 H 0.17778 0.10019 0.27685 0.0
H225 H 0.16006 0.21335 0.29798 0.0
H226 H 0.163 0.05628 0.36014 0.0
H227 H 0.11976 0.0495 0.33948 0.0
H228 H 0.16043 0.04645 0.31524 0.0
H229 H 0.13158 0.22582 0.34874 0.0
H230 H 0.09786 0.18738 0.36578 0.0
H231 H 0.14139 0.19465 0.38583 0.0
H232 H 0.03696 0.07559 0.41989 0.0
H233 H 0.14099 0.09094 0.46896 0.0
H234 H 0.06749 0.08587 0.33447 0.0
H235 H 0.06001 0.13281 0.3438 0.0
H236 H 0.02912 0.09184 0.36084 0.0
H237 H 0.19467 0.10519 0.3947 0.0
H238 H 0.19421 0.11749 0.43889 0.0
H239 H 0.1871 0.15225 0.40361 0.0
C240 C 0.49417 0.9367 0.76967 0.0
C241 C 0.46868 0.94661 0.74476 0.0
C242 C 0.49206 0.94647 0.80392 0.0
C243 C 0.46422 0.96732 0.81346 0.0
C244 C 0.43863 0.97774 0.78846 0.0
C245 C 0.44092 0.96692 0.75461 0.0
C246 C 0.51954 0.93432 0.82997 0.0
C247 C 0.40872 1.00027 0.79749 0.0
C248 C 0.43575 0.96312 0.90782 0.0
C249 C 0.45469 0.9972 0.91837 0.0
C250 C 0.43905 0.9528 0.87393 0.0
C251 C 0.46132 0.97753 0.84977 0.0
C252 C 0.4804 0.01211 0.86023 0.0
C253 C 0.47716 0.02132 0.89456 0.0
C254 C 0.41889 0.91529 0.86407 0.0
C255 C 0.50386 0.03958 0.83508 0.0
H256 H 0.5161 0.92161 0.76235 0.0
H257 H 0.42063 0.97413 0.7359 0.0
H258 H 0.53495 0.95986 0.84051 0.0
H259 H 0.5054 0.91655 0.85206 0.0
H260 H 0.53914 0.91766 0.81859 0.0
H261 H 0.39196 0.00759 0.7747 0.0
H262 H 0.39067 0.98352 0.8176 0.0
H263 H 0.42053 0.02718 0.80843 0.0
H264 H 0.41888 0.94411 0.92637 0.0
H265 H 0.49165 0.04773 0.90269 0.0
H266 H 0.43834 0.89741 0.85429 0.0
H267 H 0.39959 0.92062 0.84286 0.0
H268 H 0.40348 0.89883 0.88618 0.0
H269 H 0.52562 0.02511 0.8246 0.0
H270 H 0.51665 0.0654 0.84722 0.0
H271 H 0.48725 0.04879 0.81284 0.0
C272 C 0.64619 0.50994 0.80143 0.0
C273 C 0.65355 0.47212 0.80459 0.0
C274 C 0.64069 0.52837 0.76873 0.0
C275 C 0.64224 0.50807 0.73889 0.0
C276 C 0.65296 0.47098 0.74202 0.0
C277 C 0.65838 0.45332 0.77504 0.0
C278 C 0.62965 0.56803 0.76651 0.0
C279 C 0.65503 0.44838 0.71092 0.0
C280 C 0.57221 0.52483 0.6701 0.0
C281 C 0.59305 0.54745 0.64407 0.0
C282 C 0.58806 0.51203 0.70093 0.0
C283 C 0.62578 0.52215 0.70608 0.0
C284 C 0.64709 0.54511 0.68005 0.0
C285 C 0.63045 0.55748 0.64922 0.0
C286 C 0.5643 0.48746 0.72798 0.0
C287 C 0.68734 0.55648 0.68476 0.0
H288 H 0.64225 0.52419 0.82456 0.0
H289 H 0.66384 0.42386 0.77781 0.0
H290 H 0.64333 0.58612 0.74438 0.0
H291 H 0.59991 0.56604 0.7622 0.0
H292 H 0.63615 0.58238 0.79062 0.0
H293 H 0.66979 0.4233 0.71676 0.0
H294 H 0.6271 0.43782 0.70258 0.0
H295 H 0.66871 0.46666 0.68889 0.0
H296 H 0.54332 0.51689 0.66638 0.0
H297 H 0.64672 0.57497 0.6292 0.0
H298 H 0.56548 0.5015 0.75257 0.0
H299 H 0.57437 0.45943 0.73335 0.0
H300 H 0.53544 0.48216 0.71986 0.0
H301 H 0.69219 0.57243 0.70816 0.0
H302 H 0.70004 0.57462 0.66212 0.0
H303 H 0.70111 0.53053 0.68886 0.0
C304 C 0.99437 0.5718 0.35279 0.0
C305 C 0.98682 0.60417 0.36817 0.0
C306 C 0.9845 0.56656 0.31836 0.0
C307 C 0.96689 0.59455 0.29911 0.0
C308 C 0.95845 0.62687 0.31508 0.0
C309 C 0.96858 0.63129 0.34959 0.0
C310 C 0.99388 0.53167 0.30227 0.0
C311 C 0.93999 0.65743 0.29536 0.0
C312 C 0.98058 0.59827 0.20206 0.0
C313 C 0.94836 0.57685 0.19155 0.0
C314 C 0.98623 0.60568 0.23676 0.0
C315 C 0.95926 0.59089 0.26177 0.0
C316 C 0.92609 0.57068 0.25125 0.0
C317 C 0.92096 0.56408 0.21624 0.0
C318 C 0.02193 0.62769 0.24681 0.0
C319 C 0.89659 0.55471 0.27715 0.0
H320 H 1.00866 0.55103 0.36745 0.0
H321 H 0.96302 0.65641 0.36181 0.0
H322 H 0.96926 0.5162 0.2909 0.0
H323 H 0.01378 0.54063 0.28093 0.0
H324 H 1.00568 0.51159 0.3213 0.0
H325 H 0.93313 0.67939 0.31219 0.0
H326 H 0.9581 0.67186 0.27419 0.0
H327 H 0.9147 0.6444 0.28322 0.0
H328 H 1.00223 0.60792 0.18354 0.0
H329 H 0.89576 0.54813 0.20833 0.0
H330 H 0.03915 0.60753 0.25982 0.0
H331 H 0.01757 0.64897 0.26529 0.0
H332 H 0.037 0.64294 0.22397 0.0
H333 H 0.90637 0.53212 0.29497 0.0
H334 H 0.87137 0.54216 0.2645 0.0
H335 H 0.88993 0.57745 0.29312 0.0
C336 C 0.29937 0.17954 0.17153 0.0
C337 C 0.27128 0.156 0.1906 0.0
C338 C 0.32915 0.16474 0.15711 0.0
C339 C 0.33204 0.12496 0.16156 0.0
C340 C 0.30428 0.10102 0.18129 0.0
C341 C 0.27463 0.11661 0.19543 0.0
C342 C 0.35761 0.19195 0.13673 0.0
C343 C 0.30562 0.05856 0.18715 0.0
C344 C 0.39144 0.08241 0.09613 0.0
C345 C 0.42446 0.0801 0.11386 0.0
C346 C 0.3615 0.0964 0.11126 0.0
C347 C 0.36379 0.10869 0.14535 0.0
C348 C 0.397 0.10628 0.16342 0.0
C349 C 0.42655 0.09221 0.14766 0.0
C350 C 0.32723 0.09824 0.09049 0.0
C351 C 0.40147 0.11877 0.19961 0.0
H352 H 0.29831 0.21006 0.16791 0.0
H353 H 0.25352 0.09757 0.20965 0.0
H354 H 0.38473 0.19045 0.14851 0.0
H355 H 0.35905 0.18347 0.10992 0.0
H356 H 0.35192 0.22207 0.13558 0.0
H357 H 0.28286 0.04372 0.20373 0.0
H358 H 0.30447 0.04575 0.16195 0.0
H359 H 0.33168 0.05325 0.19953 0.0
H360 H 0.38892 0.07327 0.07015 0.0
H361 H 0.45152 0.09075 0.16201 0.0
H362 H 0.32149 0.12829 0.08676 0.0
H363 H 0.3038 0.08136 0.10478 0.0
H364 H 0.32913 0.08714 0.06469 0.0
H365 H 0.39814 0.14948 0.19956 0.0
H366 H 0.42846 0.11462 0.21066 0.0
H367 H 0.38003 0.10239 0.21679 0.0
C368 C 0.37712 0.01943 0.58102 0.0
C369 C 0.38687 0.99999 0.61176 0.0
C370 C 0.34143 0.02765 0.57604 0.0
C371 C 0.31518 0.01591 0.6025 0.0
C372 C 0.32521 0.99626 0.63369 0.0
C373 C 0.36111 0.9885 0.63794 0.0
C374 C 0.33179 0.04875 0.54253 0.0
C375 C 0.298 0.98332 0.66248 0.0
C376 C 0.23174 0.06642 0.60645 0.0
C377 C 0.20491 0.04021 0.59266 0.0
C378 C 0.26787 0.05921 0.60914 0.0
C379 C 0.27739 0.02482 0.59791 0.0
C380 C 0.25061 0.9986 0.5832 0.0
C381 C 0.21465 0.00671 0.58061 0.0
C382 C 0.29572 0.08808 0.62459 0.0
C383 C 0.25975 0.96154 0.57108 0.0
H384 H 0.39733 0.02794 0.56078 0.0
H385 H 0.369 0.97318 0.66159 0.0
H386 H 0.30971 0.03112 0.5294 0.0
H387 H 0.32148 0.07571 0.54787 0.0
H388 H 0.35539 0.05583 0.52458 0.0
H389 H 0.31012 0.96807 0.68493 0.0
H390 H 0.2869 0.00839 0.6715 0.0
H391 H 0.27482 0.96398 0.65278 0.0
H392 H 0.22439 0.09264 0.61526 0.0
H393 H 0.1939 0.98627 0.57024 0.0
H394 H 0.31881 0.09687 0.60636 0.0
H395 H 0.30682 0.07492 0.64864 0.0
H396 H 0.28414 0.11406 0.63087 0.0
H397 H 0.28234 0.9674 0.55197 0.0
H398 H 0.23613 0.94491 0.55908 0.0
H399 H 0.26912 0.94361 0.59331 0.0
C400 C 0.76489 0.45585 0.92753 0.0
C401 C 0.7559 0.41636 0.92491 0.0
C402 C 0.79961 0.47131 0.938 0.0
C403 C 0.82599 0.44669 0.94645 0.0
C404 C 0.81765 0.40703 0.94254 0.0
C405 C 0.78274 0.39235 0.93172 0.0
C406 C 0.80742 0.5138 0.9417 0.0
C407 C 0.84506 0.37987 0.95126 0.0
C408 C 0.92294 0.49468 0.95791 0.0
C409 C 0.92379 0.49817 0.99369 0.0
C410 C 0.89166 0.47689 0.94212 0.0
C411 C 0.86074 0.46206 0.96268 0.0
C412 C 0.86211 0.4641 0.99897 0.0
C413 C 0.89351 0.48222 0.01397 0.0
C414 C 0.89118 0.47535 0.90335 0.0
C415 C 0.8299 0.44831 0.02191 0.0
H416 H 0.74431 0.47464 0.92283 0.0
H417 H 0.77626 0.36191 0.92921 0.0
H418 H 0.81062 0.51884 0.96948 0.0
H419 H 0.83328 0.52601 0.92843 0.0
H420 H 0.78536 0.52948 0.93089 0.0
H421 H 0.8357 0.35061 0.94357 0.0
H422 H 0.87141 0.39069 0.93827 0.0
H423 H 0.85003 0.37801 0.97955 0.0
H424 H 0.94624 0.50697 0.94207 0.0
H425 H 0.89404 0.48448 0.04168 0.0
H426 H 0.87186 0.49413 0.89181 0.0
H427 H 0.88157 0.44585 0.89654 0.0
H428 H 0.9184 0.48482 0.89148 0.0
H429 H 0.80689 0.46462 0.0155 0.0
H430 H 0.83619 0.44995 0.04982 0.0
H431 H 0.82071 0.41799 0.01733 0.0
C432 C 0.88297 0.64613 0.5192 0.0
C433 C 0.89843 0.6463 0.48628 0.0
C434 C 0.84514 0.64152 0.52377 0.0
C435 C 0.82223 0.63737 0.49465 0.0
C436 C 0.83766 0.63627 0.46149 0.0
C437 C 0.87562 0.64061 0.45772 0.0
C438 C 0.82975 0.6424 0.55961 0.0
C439 C 0.81415 0.63221 0.42977 0.0
C440 C 0.72143 0.60302 0.50918 0.0
C441 C 0.70682 0.63776 0.50697 0.0
C442 C 0.75893 0.60234 0.50517 0.0
C443 C 0.78236 0.6372 0.49855 0.0
C444 C 0.76781 0.67229 0.49611 0.0
C445 C 0.73035 0.67215 0.50052 0.0
C446 C 0.77349 0.56437 0.50809 0.0
C447 C 0.79188 0.71011 0.48904 0.0
H448 H 0.90057 0.65009 0.54138 0.0
H449 H 0.88749 0.64107 0.43219 0.0
H450 H 0.81608 0.66829 0.56075 0.0
H451 H 0.80896 0.61714 0.5657 0.0
H452 H 0.85106 0.64272 0.57984 0.0
H453 H 0.83017 0.62893 0.40636 0.0
H454 H 0.79285 0.60709 0.43398 0.0
H455 H 0.80013 0.65791 0.42485 0.0
H456 H 0.70356 0.57626 0.51368 0.0
H457 H 0.7196 0.69918 0.49936 0.0
H458 H 0.7937 0.56377 0.52925 0.0
H459 H 0.78774 0.56057 0.48381 0.0
H460 H 0.75169 0.53981 0.51332 0.0
H461 H 0.81205 0.71416 0.51007 0.0
H462 H 0.77617 0.73481 0.487 0.0
H463 H 0.80726 0.71025 0.46458 0.0
C464 C 0.14937 0.3456 0.16799 0.0
C465 C 0.13586 0.3073 0.16322 0.0
C466 C 0.1322 0.37665 0.15309 0.0
C467 C 0.10058 0.36983 0.13237 0.0
C468 C 0.08649 0.33103 0.12809 0.0
C469 C 0.10425 0.30053 0.14328 0.0
C470 C 0.14864 0.41701 0.15875 0.0
C471 C 0.05306 0.32166 0.10653 0.0
C472 C 0.03928 0.45006 0.11491 0.0
C473 C 0.05004 0.46645 0.08152 0.0
C474 C 0.05515 0.41895 0.13148 0.0
C475 C 0.08288 0.40309 0.11468 0.0
C476 C 0.09375 0.41939 0.08091 0.0
C477 C 0.0774 0.45052 0.06492 0.0
C478 C 0.04227 0.40312 0.16727 0.0
C479 C 0.12301 0.40403 0.06158 0.0
H480 H 0.17417 0.35143 0.18262 0.0
H481 H 0.09391 0.27125 0.13865 0.0
H482 H 0.15784 0.43251 0.13362 0.0
H483 H 0.12792 0.43269 0.16951 0.0
H484 H 0.17217 0.41781 0.17661 0.0
H485 H 0.04432 0.29033 0.10686 0.0
H486 H 0.03032 0.33536 0.11612 0.0
H487 H 0.05855 0.33337 0.07935 0.0
H488 H 0.01837 0.46173 0.1284 0.0
H489 H 0.08632 0.46256 0.03929 0.0
H490 H 0.06532 0.40589 0.18562 0.0
H491 H 0.03205 0.37217 0.16725 0.0
H492 H 0.02033 0.41804 0.1769 0.0
H493 H 0.14862 0.4068 0.07658 0.0
H494 H 0.12839 0.41927 0.03552 0.0
H495 H 0.11502 0.37312 0.05858 0.0
C496 C 0.66321 0.28378 0.95226 0.0
C497 C 0.64675 0.31728 0.95072 0.0
C498 C 0.64527 0.2491 0.9678 0.0
C499 C 0.61017 0.24803 0.98227 0.0
C500 C 0.59386 0.282 0.9816 0.0
C501 C 0.61235 0.3162 0.96584 0.0
C502 C 0.66353 0.21343 0.96808 0.0
C503 C 0.55666 0.28212 0.99708 0.0
C504 C 0.54888 0.15254 0.99239 0.0
C505 C 0.5535 0.14115 0.02746 0.0
C506 C 0.56711 0.18734 0.97734 0.0
C507 C 0.59034 0.21132 0.99791 0.0
C508 C 0.59461 0.20026 0.03343 0.0
C509 C 0.57621 0.16532 0.04775 0.0
C510 C 0.56188 0.19823 0.93935 0.0
C511 C 0.61893 0.22517 0.05625 0.0
H512 H 0.68964 0.28444 0.94035 0.0
H513 H 0.59976 0.34218 0.96513 0.0
H514 H 0.66558 0.20061 0.995 0.0
H515 H 0.6469 0.19181 0.95341 0.0
H516 H 0.69121 0.21927 0.9565 0.0
H517 H 0.54817 0.31116 0.99515 0.0
H518 H 0.53626 0.26273 0.98366 0.0
H519 H 0.55637 0.27116 0.02474 0.0
H520 H 0.5315 0.13398 0.97652 0.0
H521 H 0.57988 0.15681 0.07491 0.0
H522 H 0.58838 0.20157 0.9256 0.0
H523 H 0.5514 0.22622 0.93587 0.0
H524 H 0.54269 0.17657 0.92701 0.0
H525 H 0.64726 0.22914 0.04632 0.0
H526 H 0.61878 0.21275 0.08354 0.0
H527 H 0.61013 0.25397 0.05572 0.0
C528 C 1.0055 0.74567 0.53375 0.0
C529 C 0.01417 0.73267 0.50203 0.0
C530 C 0.01695 0.78356 0.54116 0.0
C531 C 0.03766 0.80893 0.51629 0.0
C532 C 0.04932 0.79498 0.48568 0.0
C533 C 0.03731 0.75704 0.47883 0.0
C534 C 1.00412 0.79724 0.57423 0.0
C535 C 0.07168 0.82099 0.45863 0.0
C536 C 0.01559 0.91056 0.50913 0.0
C537 C 0.04471 0.93004 0.5265 0.0
C538 C 0.01341 0.87134 0.5054 0.0
C539 C 0.04115 0.85089 0.51925 0.0
C540 C 0.07116 0.87042 0.53609 0.0
C541 C 0.07258 0.90988 0.5396 0.0
C542 C 0.98093 0.85168 0.48714 0.0
C543 C 0.10132 0.84952 0.55093 0.0
H544 H 0.98823 0.72674 0.55208 0.0
H545 H 0.04402 0.7474 0.45416 0.0
H546 H 0.02654 0.81524 0.58654 0.0
H547 H 0.9822 0.81517 0.56823 0.0
H548 H 0.99333 0.77303 0.59307 0.0
H549 H 0.08403 0.80455 0.43971 0.0
H550 H 0.05402 0.83977 0.44432 0.0
H551 H 0.09363 0.83974 0.47083 0.0
H552 H 0.99397 0.92585 0.49878 0.0
H553 H 0.09516 0.92476 0.55307 0.0
H554 H 0.96578 0.82903 0.50506 0.0
H555 H 0.99005 0.83761 0.46486 0.0
H556 H 0.96196 0.87188 0.4775 0.0
H557 H 0.0905 0.82835 0.57234 0.0
H558 H 0.12399 0.86929 0.56102 0.0
H559 H 0.11221 0.83337 0.53093 0.0
C560 C 0.48282 0.8197 0.6804 0.0
C561 C 0.49418 0.85304 0.6588 0.0
C562 C 0.48944 0.78356 0.6714 0.0
C563 C 0.50662 0.78047 0.63946 0.0
C564 C 0.51876 0.81393 0.61788 0.0
C565 C 0.51321 0.84974 0.6282 0.0
C566 C 0.47737 0.74862 0.69573 0.0
C567 C 0.5366 0.81187 0.58328 0.0
C568 C 0.54962 0.6936 0.61858 0.0
C569 C 0.52186 0.67364 0.60002 0.0
C570 C 0.54432 0.72738 0.63326 0.0
C571 C 0.51104 0.74231 0.62785 0.0
C572 C 0.48283 0.72198 0.60924 0.0
C573 C 0.48835 0.68737 0.59613 0.0
C574 C 0.57448 0.74732 0.65414 0.0
C575 C 0.44742 0.73758 0.6019 0.0
H576 H 0.46782 0.82154 0.70393 0.0
H577 H 0.5233 0.8752 0.61178 0.0
H578 H 0.4545 0.73055 0.68413 0.0
H579 H 0.49984 0.73103 0.69996 0.0
H580 H 0.46834 0.75627 0.7212 0.0
H581 H 0.54358 0.84054 0.56913 0.0
H582 H 0.56181 0.79845 0.58688 0.0
H583 H 0.51814 0.79366 0.56691 0.0
H584 H 0.57539 0.68255 0.62186 0.0
H585 H 0.46702 0.67185 0.5816 0.0
H586 H 0.56373 0.75395 0.67927 0.0
H587 H 0.58584 0.7749 0.6401 0.0
H588 H 0.59689 0.72976 0.65921 0.0
H589 H 0.43427 0.74247 0.62643 0.0
H590 H 0.42811 0.71802 0.58743 0.0
H591 H 0.45277 0.76566 0.5865 0.0
C592 C 0.91756 0.89486 0.78056 0.0
C593 C 0.90242 0.91837 0.80265 0.0
C594 C 0.9345 0.9097 0.74847 0.0
C595 C 0.93705 0.94942 0.73752 0.0
C596 C 0.92224 0.97335 0.75986 0.0
C597 C 0.90526 0.95775 0.79165 0.0
C598 C 0.94937 0.88258 0.72598 0.0
C599 C 0.92433 0.01579 0.75015 0.0
C600 C 1.00921 0.99444 0.66841 0.0
C601 C 0.98885 0.99757 0.63773 0.0
C602 C 0.99294 0.97909 0.7006 0.0
C603 C 0.95502 0.96588 0.70293 0.0
C604 C 0.93435 0.96885 0.67202 0.0
C605 C 0.95128 0.98459 0.6402 0.0
C606 C 0.0165 0.97712 0.73233 0.0
C607 C 0.89407 0.95522 0.67249 0.0
H608 H 0.91549 0.86443 0.78794 0.0
H609 H 0.89447 0.97679 0.80819 0.0
H610 H 0.93563 0.88328 0.7005 0.0
H611 H 0.97877 0.89178 0.72109 0.0
H612 H 0.94565 0.85263 0.73787 0.0
H613 H 0.91203 0.03084 0.77018 0.0
H614 H 0.95311 0.02863 0.74626 0.0
H615 H 0.9101 0.02087 0.72531 0.0
H616 H 0.03816 0.00418 0.66735 0.0
H617 H 0.93492 0.98647 0.61705 0.0
H618 H 0.01512 0.94701 0.7434 0.0
H619 H 1.00628 0.99361 0.75243 0.0
H620 H 0.04537 0.98861 0.72663 0.0
H621 H 0.88899 0.92451 0.68207 0.0
H622 H 0.88167 0.95884 0.6465 0.0
H623 H 0.88021 0.9713 0.69059 0.0
C624 C 0.60341 0.18889 0.34889 0.0
C625 C 0.63994 0.20499 0.35069 0.0
C626 C 0.58915 0.17447 0.31826 0.0
C627 C 0.61213 0.17585 0.28905 0.0
C628 C 0.64777 0.19585 0.28964 0.0
C629 C 0.66115 0.21046 0.32042 0.0
C630 C 0.55066 0.15428 0.31841 0.0
C631 C 0.67319 0.19818 0.25908 0.0
C632 C 0.60132 0.08839 0.23795 0.0
C633 C 0.58566 0.10168 0.20703 0.0
C634 C 0.60972 0.11226 0.26472 0.0
C635 C 0.60169 0.15038 0.26095 0.0
C636 C 0.58494 0.16386 0.23033 0.0
C637 C 0.57738 0.13945 0.20359 0.0
C638 C 0.62768 0.09666 0.29696 0.0
C639 C 0.5755 0.20415 0.22561 0.0
H640 H 0.58677 0.18458 0.37212 0.0
H641 H 0.68919 0.22367 0.3215 0.0
H642 H 0.53706 0.16076 0.29348 0.0
H643 H 0.55105 0.12287 0.32182 0.0
H644 H 0.53432 0.16248 0.33981 0.0
H645 H 0.6975 0.21981 0.26152 0.0
H646 H 0.68247 0.16986 0.25727 0.0
H647 H 0.65914 0.20538 0.23459 0.0
H648 H 0.60703 0.05914 0.24145 0.0
H649 H 0.56555 0.15027 0.17983 0.0
H650 H 0.61053 0.09827 0.31998 0.0
H651 H 0.65423 0.11426 0.30088 0.0
H652 H 0.63236 0.06644 0.29568 0.0
H653 H 0.55991 0.21041 0.2483 0.0
H654 H 0.55929 0.209 0.20187 0.0
H655 H 0.60077 0.22487 0.22384 0.0
C656 C 0.4123 0.61696 0.31968 0.0
C657 C 0.39103 0.64673 0.3164 0.0
C658 C 0.43417 0.612 0.34886 0.0
C659 C 0.43449 0.63746 0.37522 0.0
C660 C 0.41429 0.66878 0.37101 0.0
C661 C 0.39255 0.67294 0.34155 0.0
C662 C 0.45529 0.57827 0.35237 0.0
C663 C 0.4141 0.69662 0.39844 0.0
C664 C 0.45212 0.59595 0.46608 0.0
C665 C 0.48893 0.60967 0.4705 0.0
C666 C 0.43402 0.60531 0.43539 0.0
C667 C 0.45314 0.62911 0.40844 0.0
C668 C 0.49012 0.64365 0.41292 0.0
C669 C 0.50762 0.63369 0.44391 0.0
C670 C 0.39455 0.58916 0.43159 0.0
C671 C 0.51128 0.66926 0.38482 0.0
H672 H 0.41064 0.59659 0.30012 0.0
H673 H 0.37568 0.69577 0.33885 0.0
H674 H 0.484 0.58773 0.359 0.0
H675 H 0.44359 0.55755 0.37377 0.0
H676 H 0.45471 0.56324 0.3283 0.0
H677 H 0.4003 0.72166 0.38956 0.0
H678 H 0.3998 0.6819 0.42187 0.0
H679 H 0.44228 0.70705 0.40612 0.0
H680 H 0.43743 0.57745 0.48651 0.0
H681 H 0.53605 0.64455 0.44718 0.0
H682 H 0.39149 0.57076 0.40966 0.0
H683 H 0.37799 0.61272 0.42562 0.0
H684 H 0.38338 0.57189 0.45532 0.0
H685 H 0.51272 0.65352 0.3614 0.0
H686 H 0.53939 0.67952 0.39294 0.0
H687 H 0.4972 0.69445 0.37739 0.0
C688 C 0.10918 0.47194 0.74346 0.0
C689 C 0.07679 0.47199 0.72497 0.0
C690 C 0.11201 0.48508 0.77672 0.0
C691 C 0.0816 0.4982 0.79146 0.0
C692 C 0.04893 0.49839 0.77247 0.0
C693 C 0.04696 0.48523 0.73936 0.0
C694 C 0.14728 0.48464 0.79618 0.0
C695 C 0.01593 0.51217 0.78724 0.0
C696 C 0.07095 0.50163 0.8884 0.0
C697 C 0.07972 0.54091 0.89205 0.0
C698 C 0.07279 0.48701 0.85598 0.0
C699 C 0.08372 0.5123 0.82654 0.0
C700 C 0.09379 0.55174 0.83022 0.0
C701 C 0.09155 0.56556 0.86285 0.0
C702 C 0.06191 0.44472 0.85303 0.0
C703 C 0.10552 0.57964 0.79944 0.0
H704 H 0.13204 0.46126 0.7321 0.0
H705 H 0.02187 0.48479 0.72484 0.0
H706 H 0.15772 0.51393 0.80303 0.0
H707 H 0.14262 0.46623 0.82076 0.0
H708 H 0.16843 0.4739 0.78093 0.0
H709 H 0.99264 0.5104 0.76908 0.0
H710 H 1.00734 0.49479 0.81168 0.0
H711 H 0.02271 0.54231 0.79355 0.0
H712 H 0.06237 0.48231 0.91086 0.0
H713 H 0.09791 0.596 0.86514 0.0
H714 H 0.08348 0.43267 0.83956 0.0
H715 H 0.03688 0.44025 0.8373 0.0
H716 H 0.05669 0.42851 0.8787 0.0
H717 H 0.12739 0.5694 0.78482 0.0
H718 H 0.11548 0.60876 0.80712 0.0
H719 H 0.08227 0.58165 0.7816 0.0
C720 C 0.74619 0.9695 0.9385 0.0
C721 C 0.74995 0.93055 0.93753 0.0
C722 C 0.717 0.98173 0.95627 0.0
C723 C 0.6902 0.95454 0.97393 0.0
C724 C 0.6943 0.91506 0.97355 0.0
C725 C 0.72373 0.90361 0.9553 0.0
C726 C 0.71436 0.02399 0.95532 0.0
C727 C 0.66703 0.88469 0.99188 0.0
C728 C 0.62954 0.99022 0.04257 0.0
C729 C 0.59703 0.99451 0.02458 0.0
C730 C 0.65946 0.97685 0.02682 0.0
C731 C 0.65766 0.96748 0.99179 0.0
C732 C 0.62485 0.97164 0.97357 0.0
C733 C 0.59528 0.98481 0.99001 0.0
C734 C 0.69329 0.97295 0.04778 0.0
C735 C 0.62104 0.96256 0.9363 0.0
H736 H 0.76575 0.99067 0.92444 0.0
H737 H 0.72577 0.87343 0.95437 0.0
H738 H 0.68889 0.03012 0.94221 0.0
H739 H 0.71318 0.03282 0.98202 0.0
H740 H 0.7377 0.04171 0.9415 0.0
H741 H 0.67476 0.85552 0.99097 0.0
H742 H 0.66431 0.89057 0.01934 0.0
H743 H 0.63995 0.88532 0.97978 0.0
H744 H 0.63171 0.99741 0.06919 0.0
H745 H 0.57069 0.98787 0.97545 0.0
H746 H 0.71666 0.99222 0.03567 0.0
H747 H 0.6999 0.94325 0.04802 0.0
H748 H 0.69033 0.98 0.07491 0.0
H749 H 0.64207 0.98123 0.92025 0.0
H750 H 0.59386 0.9666 0.92566 0.0
H751 H 0.62555 0.93251 0.93389 0.0
C752 C 0.74171 0.13752 0.41537 0.0
C753 C 0.73674 0.17005 0.43228 0.0
C754 C 0.7718 0.11815 0.42251 0.0
C755 C 0.79713 0.13103 0.44777 0.0
C756 C 0.79256 0.16399 0.46472 0.0
C757 C 0.7626 0.1833 0.45655 0.0
C758 C 0.77595 0.0833 0.40364 0.0
C759 C 0.81878 0.17827 0.49215 0.0
C760 C 0.84923 0.05667 0.49344 0.0
C761 C 0.88351 0.06547 0.47763 0.0
C762 C 0.82104 0.07804 0.48415 0.0
C763 C 0.82711 0.10859 0.45798 0.0
C764 C 0.86159 0.11743 0.44165 0.0
C765 C 0.88956 0.09595 0.45197 0.0
C766 C 0.78487 0.06816 0.50262 0.0
C767 C 0.86881 0.14935 0.4132 0.0
H768 H 0.72161 0.12651 0.39708 0.0
H769 H 0.75933 0.20872 0.46936 0.0
H770 H 0.8036 0.08597 0.39223 0.0
H771 H 0.77266 0.05739 0.42214 0.0
H772 H 0.75567 0.07898 0.38268 0.0
H773 H 0.81198 0.20498 0.50218 0.0
H774 H 0.81853 0.15602 0.51411 0.0
H775 H 0.84686 0.18376 0.4816 0.0
H776 H 0.84476 0.03356 0.51375 0.0
H777 H 0.91606 0.10258 0.43971 0.0
H778 H 0.7631 0.06036 0.48378 0.0
H779 H 0.77793 0.09345 0.51498 0.0
H780 H 0.78484 0.04397 0.52283 0.0
H781 H 0.84949 0.14403 0.39166 0.0
H782 H 0.89697 0.15224 0.40285 0.0
H783 H 0.86432 0.17693 0.42298 0.0
C784 C 0.22847 0.70798 0.1674 0.0
C785 C 0.25042 0.67944 0.17665 0.0
C786 C 0.19591 0.69958 0.14929 0.0
C787 C 0.18504 0.66173 0.14048 0.0
C788 C 0.20707 0.63283 0.14972 0.0
C789 C 0.23955 0.64209 0.16751 0.0
C790 C 0.17317 0.73112 0.13962 0.0
C791 C 0.19632 0.59206 0.14084 0.0
C792 C 0.087 0.62429 0.12215 0.0
C793 C 0.08789 0.62268 0.08616 0.0
C794 C 0.11813 0.63847 0.14012 0.0
C795 C 0.15066 0.65189 0.12153 0.0
C796 C 0.1511 0.65245 0.085 0.0
C797 C 0.11974 0.6376 0.06775 0.0
C798 C 0.11669 0.63723 0.17911 0.0
C799 C 0.1852 0.66696 0.06428 0.0
H800 H 0.23654 0.73682 0.17468 0.0
H801 H 0.25669 0.62005 0.17397 0.0
H802 H 0.16906 0.73384 0.11121 0.0
H803 H 0.14592 0.72396 0.15186 0.0
H804 H 0.18585 0.75923 0.14775 0.0
H805 H 0.21623 0.57289 0.1504 0.0
H806 H 0.16931 0.58062 0.15224 0.0
H807 H 0.19396 0.5912 0.11238 0.0
H808 H 0.06244 0.61288 0.13655 0.0
H809 H 0.12049 0.63672 0.03989 0.0
H810 H 0.1252 0.66622 0.18767 0.0
H811 H 0.13595 0.61831 0.19053 0.0
H812 H 0.0891 0.62648 0.18958 0.0
H813 H 0.19723 0.69543 0.072 0.0
H814 H 0.17999 0.66933 0.036 0.0
H815 H 0.20567 0.64712 0.06964 0.0
C816 C 0.19649 0.48731 0.61073 0.0
C817 C 0.18566 0.44811 0.60768 0.0
C818 C 0.23339 0.50298 0.60895 0.0
C819 C 0.26008 0.47905 0.6034 0.0
C820 C 0.2493 0.43972 0.5995 0.0
C821 C 0.21243 0.4247 0.60213 0.0
C822 C 0.24388 0.54494 0.61375 0.0
C823 C 0.27685 0.4132 0.59327 0.0
C824 C 0.35597 0.51781 0.57224 0.0
C825 C 0.3759 0.51226 0.60259 0.0
C826 C 0.31792 0.50864 0.57227 0.0
C827 C 0.2995 0.49423 0.60354 0.0
C828 C 0.31945 0.49082 0.63461 0.0
C829 C 0.35741 0.49954 0.63367 0.0
C830 C 0.29773 0.51222 0.53853 0.0
C831 C 0.30088 0.47628 0.66861 0.0
H832 H 0.17614 0.50584 0.61457 0.0
H833 H 0.20472 0.39424 0.60056 0.0
H834 H 0.26114 0.54816 0.63705 0.0
H835 H 0.2602 0.55921 0.5913 0.0
H836 H 0.21982 0.55997 0.61675 0.0
H837 H 0.26384 0.38402 0.58827 0.0
H838 H 0.29444 0.425 0.57082 0.0
H839 H 0.2947 0.4108 0.61616 0.0
H840 H 0.37031 0.52739 0.54818 0.0
H841 H 0.37285 0.49574 0.6572 0.0
H842 H 0.27395 0.52761 0.54147 0.0
H843 H 0.28725 0.48323 0.53093 0.0
H844 H 0.31534 0.52752 0.51731 0.0
H845 H 0.27762 0.49202 0.67294 0.0
H846 H 0.31971 0.47925 0.69088 0.0
H847 H 0.28989 0.44559 0.66797 0.0
C848 C 0.92722 0.82378 0.91899 0.0
C849 C 0.89023 0.82254 0.91022 0.0
C850 C 0.94107 0.79229 0.93713 0.0
C851 C 0.91788 0.75753 0.94625 0.0
C852 C 0.88044 0.75613 0.93753 0.0
C853 C 0.8671 0.7885 0.92022 0.0
C854 C 0.98083 0.79623 0.94638 0.0
C855 C 0.85449 0.71988 0.94559 0.0
C856 C 0.96332 0.66496 0.96028 0.0
C857 C 0.96296 0.65719 0.99653 0.0
C858 C 0.94825 0.69661 0.94384 0.0
C859 C 0.93302 0.72256 0.96378 0.0
C860 C 0.93292 0.7151 1.00045 0.0
C861 C 0.94725 0.68252 0.01621 0.0
C862 C 0.94844 0.70212 0.90484 0.0
C863 C 0.91813 0.74201 0.02322 0.0
H864 H 0.94553 0.84974 0.91175 0.0
H865 H 0.83862 0.78669 0.91341 0.0
H866 H 0.984 0.7886 0.97447 0.0
H867 H 0.99458 0.77609 0.93235 0.0
H868 H 0.99484 0.82572 0.93985 0.0
H869 H 0.82626 0.72312 0.93748 0.0
H870 H 0.86359 0.69627 0.93218 0.0
H871 H 0.85446 0.71124 0.97374 0.0
H872 H 0.97498 0.64577 0.94449 0.0
H873 H 0.94679 0.6773 0.04414 0.0
H874 H 0.96509 0.72962 0.89604 0.0
H875 H 0.92041 0.70363 0.89526 0.0
H876 H 0.95947 0.67863 0.89282 0.0
H877 H 0.93295 0.77132 0.01793 0.0
H878 H 0.92056 0.73301 0.05118 0.0
H879 H 0.8891 0.74355 0.01725 0.0
C880 C 0.35339 0.80047 0.18935 0.0
C881 C 0.36659 0.76508 0.19297 0.0
C882 C 0.37527 0.8335 0.17533 0.0
C883 C 0.41105 0.83092 0.16425 0.0
C884 C 0.4249 0.79544 0.16881 0.0
C885 C 0.40251 0.7629 0.18337 0.0
C886 C 0.35969 0.87093 0.17146 0.0
C887 C 0.46279 0.79154 0.15702 0.0
C888 C 0.44774 0.9075 0.0942 0.0
C889 C 0.46951 0.93361 0.11335 0.0
C890 C 0.42968 0.87321 0.11027 0.0
C891 C 0.43313 0.86509 0.14644 0.0
C892 C 0.45583 0.89084 0.16576 0.0
C893 C 0.47393 0.9247 0.14894 0.0
C894 C 0.40606 0.84621 0.08871 0.0
C895 C 0.45989 0.88336 0.2044 0.0
H896 H 0.32566 0.80214 0.19704 0.0
H897 H 0.41257 0.73542 0.1859 0.0
H898 H 0.37797 0.8935 0.18354 0.0
H899 H 0.35761 0.88045 0.14361 0.0
H900 H 0.33228 0.86857 0.18342 0.0
H901 H 0.47026 0.76259 0.16439 0.0
H902 H 0.46476 0.79707 0.12846 0.0
H903 H 0.48294 0.81312 0.16826 0.0
H904 H 0.44437 0.9141 0.06666 0.0
H905 H 0.49067 0.94477 0.16396 0.0
H906 H 0.37721 0.84478 0.09661 0.0
H907 H 0.41353 0.81686 0.09314 0.0
H908 H 0.40842 0.85529 0.06061 0.0
H909 H 0.43341 0.88391 0.21731 0.0
H910 H 0.48043 0.90492 0.21527 0.0
H911 H 0.46787 0.85449 0.21081 0.0
C912 C 0.10967 0.31898 0.57576 0.0
C913 C 0.08493 0.3448 0.58086 0.0
C914 C 0.09772 0.28186 0.56664 0.0
C915 C 0.06003 0.26957 0.56392 0.0
C916 C 0.03502 0.2959 0.56705 0.0
C917 C 0.04784 0.33344 0.57464 0.0
C918 C 0.12543 0.25506 0.56204 0.0
C919 C 0.99456 0.28373 0.56487 0.0
C920 C 0.03254 0.17367 0.52733 0.0
C921 C 0.03218 0.14877 0.55736 0.0
C922 C 0.04048 0.21342 0.52898 0.0
C923 C 0.04699 0.22828 0.56157 0.0
C924 C 0.04414 0.2031 0.59214 0.0
C925 C 0.0376 0.16349 0.58958 0.0
C926 C 0.04459 0.23908 0.49573 0.0
C927 C 0.04967 0.21787 0.62748 0.0
H928 H 0.13832 0.32683 0.58066 0.0
H929 H 0.02846 0.35335 0.57715 0.0
H930 H 0.12443 0.23361 0.5847 0.0
H931 H 0.11923 0.23925 0.53871 0.0
H932 H 0.1535 0.27052 0.55957 0.0
H933 H 0.97897 0.30847 0.56418 0.0
H934 H 0.98778 0.26807 0.54159 0.0
H935 H 0.9855 0.26385 0.58778 0.0
H936 H 0.02902 0.16192 0.50239 0.0
H937 H 0.03749 0.14393 0.61267 0.0
H938 H 0.07384 0.24934 0.49094 0.0
H939 H 0.03067 0.26468 0.49755 0.0
H940 H 0.03363 0.2239 0.47318 0.0
H941 H 0.07866 0.22939 0.63072 0.0
H942 H 0.04191 0.19509 0.64862 0.0
H943 H 0.03342 0.2416 0.63019 0.0
C944 C 0.59665 0.32497 0.45198 0.0
C945 C 0.61237 0.304 0.47878 0.0
C946 C 0.5863 0.3609 0.45723 0.0
C947 C 0.59199 0.37574 0.48997 0.0
C948 C 0.60801 0.35434 0.51698 0.0
C949 C 0.61801 0.31864 0.51099 0.0
C950 C 0.56926 0.3829 0.42789 0.0
C951 C 0.61457 0.3691 0.55224 0.0
C952 C 0.59717 0.48176 0.50189 0.0
C953 C 0.56333 0.48339 0.51719 0.0
C954 C 0.60634 0.44716 0.49153 0.0
C955 C 0.58102 0.41345 0.49648 0.0
C956 C 0.54628 0.41524 0.51059 0.0
C957 C 0.53789 0.45016 0.52084 0.0
C958 C 0.6437 0.44637 0.47667 0.0
C959 C 0.51849 0.37995 0.51616 0.0
H960 H 0.59249 0.31333 0.42705 0.0
H961 H 0.63031 0.3021 0.53157 0.0
H962 H 0.54178 0.3882 0.43562 0.0
H963 H 0.58573 0.41126 0.42194 0.0
H964 H 0.56686 0.36745 0.40402 0.0
H965 H 0.62756 0.34901 0.57031 0.0
H966 H 0.63227 0.39708 0.54979 0.0
H967 H 0.58844 0.37385 0.56376 0.0
H968 H 0.61697 0.50731 0.49889 0.0
H969 H 0.51158 0.4512 0.53242 0.0
H970 H 0.64161 0.43239 0.45204 0.0
H971 H 0.65947 0.42923 0.49492 0.0
H972 H 0.65906 0.47552 0.47179 0.0
H973 H 0.51475 0.36511 0.49204 0.0
H974 H 0.4917 0.38678 0.5245 0.0
H975 H 0.52827 0.35964 0.53629 0.0
loop_
_geom_bond_atom_site_label_1
_geom_bond_atom_site_label_2
_geom_bond_distance
_geom_bond_site_symmetry_2
_ccdc_geom_bond_type
H0 C3 0.929 . S
H1 C6 0.929 . S
H2 C8 0.930 . S
C3 H0 0.929 . S
C3 C4 1.398 . S
C3 C5 1.396 . S
C4 C3 1.398 . S
C4 C8 1.407 . S
C5 C3 1.396 . S
C5 C6 1.394 . S
C6 H1 0.929 . S
C6 C5 1.394 . S
C6 C7 1.382 . S
C7 C6 1.382 . S
C7 C8 1.392 . S
C7 N9 1.420 . S
C8 H2 0.930 . S
C8 C4 1.407 . S
C8 C7 1.392 . S
N9 C7 1.420 . S
N9 C10 1.244 . S
C10 N9 1.244 . S
H11 C14 0.929 . S
H12 C17 0.929 . S
H13 C19 0.930 . S
C14 H11 0.929 . S
C14 C15 1.398 . S
C14 C16 1.396 . S
C15 C14 1.398 . S
C15 C19 1.407 . S
C16 C14 1.396 . S
C16 C17 1.394 . S
C17 H12 0.929 . S
C17 C16 1.394 . S
C17 C18 1.382 . S
C18 C17 1.382 . S
C18 C19 1.392 . S
C18 N20 1.420 . S
C19 H13 0.930 . S
C19 C15 1.407 . S
C19 C18 1.392 . S
N20 C18 1.420 . S
N20 C21 1.244 . S
C21 N20 1.244 . S
H22 C25 0.929 . S
H23 C28 0.929 . S
H24 C30 0.930 . S
C25 H22 0.929 . S
C25 C26 1.398 . S
C25 C27 1.396 . S
C26 C25 1.398 . S
C26 C30 1.407 . S
C27 C25 1.396 . S
C27 C28 1.394 . S
C28 H23 0.929 . S
C28 C27 1.394 . S
C28 C29 1.382 . S
C29 C28 1.382 . S
C29 C30 1.392 . S
C29 N31 1.420 . S
C30 H24 0.930 . S
C30 C26 1.407 . S
C30 C29 1.392 . S
N31 C29 1.420 . S
N31 C32 1.244 . S
C32 N31 1.244 . S
H33 C36 0.929 . S
H34 C39 0.929 . S
H35 C41 0.930 . S
C36 H33 0.929 . S
C36 C37 1.398 . S
C36 C38 1.396 . S
C37 C36 1.398 . S
C37 C41 1.407 . S
C38 C36 1.396 . S
C38 C39 1.394 . S
C39 H34 0.929 . S
C39 C38 1.394 . S
C39 C40 1.382 . S
C40 C39 1.382 . S
C40 C41 1.392 . S
C40 N42 1.420 . S
C41 H35 0.930 . S
C41 C37 1.407 . S
C41 C40 1.392 . S
N42 C40 1.420 . S
N42 C43 1.244 . S
C43 N42 1.244 . S
H44 C47 0.929 . S
H45 C50 0.929 . S
H46 C52 0.930 . S
C47 H44 0.929 . S
C47 C48 1.398 . S
C47 C49 1.396 . S
C48 C47 1.398 . S
C48 C52 1.407 . S
C49 C47 1.396 . S
C49 C50 1.394 . S
C50 H45 0.929 . S
C50 C49 1.394 . S
C50 C51 1.382 . S
C51 C50 1.382 . S
C51 C52 1.392 . S
C51 N53 1.420 . S
C52 H46 0.930 . S
C52 C48 1.407 . S
C52 C51 1.392 . S
N53 C51 1.420 . S
N53 C54 1.244 . S
C54 N53 1.244 . S
H55 C58 0.929 . S
H56 C61 0.929 . S
H57 C63 0.930 . S
C58 H55 0.929 . S
C58 C59 1.398 . S
C58 C60 1.396 . S
C59 C58 1.398 . S
C59 C63 1.407 . S
C60 C58 1.396 . S
C60 C61 1.394 . S
C61 H56 0.929 . S
C61 C60 1.394 . S
C61 C62 1.382 . S
C62 C61 1.382 . S
C62 C63 1.392 . S
C62 N64 1.420 . S
C63 H57 0.930 . S
C63 C59 1.407 . S
C63 C62 1.392 . S
N64 C62 1.420 . S
N64 C65 1.244 . S
C65 N64 1.244 . S
H66 C69 0.929 . S
H67 C72 0.929 . S
H68 C74 0.930 . S
C69 H66 0.929 . S
C69 C70 1.398 . S
C69 C71 1.396 . S
C70 C69 1.398 . S
C70 C74 1.407 . S
C71 C69 1.396 . S
C71 C72 1.394 . S
C72 H67 0.929 . S
C72 C71 1.394 . S
C72 C73 1.382 . S
C73 C72 1.382 . S
C73 C74 1.392 . S
C73 N75 1.420 . S
C74 H68 0.930 . S
C74 C70 1.407 . S
C74 C73 1.392 . S
N75 C73 1.420 . S
N75 C76 1.244 . S
C76 N75 1.244 . S
H77 C80 0.929 . S
H78 C83 0.929 . S
H79 C85 0.930 . S
C80 H77 0.929 . S
C80 C81 1.398 . S
C80 C82 1.396 . S
C81 C80 1.398 . S
C81 C85 1.407 . S
C82 C80 1.396 . S
C82 C83 1.394 . S
C83 H78 0.929 . S
C83 C82 1.394 . S
C83 C84 1.382 . S
C84 C83 1.382 . S
C84 C85 1.392 . S
C84 N86 1.420 . S
C85 H79 0.930 . S
C85 C81 1.407 . S
C85 C84 1.392 . S
N86 C84 1.420 . S
N86 C87 1.244 . S
C87 N86 1.244 . S
Co88 N93 2.057 . S
Co88 O105 2.021 . S
Co88 O108 2.062 . S
Co88 O112 2.117 1_545 S
Co88 O113 2.020 . S
C89 O109 1.259 1_655 S
C89 O112 1.258 . S
Co90 N99 2.057 . S
Co90 O106 2.117 . S
Co90 O107 2.020 . S
Co90 O109 2.021 1_545 S
Co90 O114 2.062 . S
C91 N93 1.316 . S
C91 N94 1.347 . S
C91 H96 0.931 . S
C92 N93 1.375 . S
C92 C95 1.350 . S
C92 H97 0.930 1_545 S
N93 Co88 2.057 . S
N93 C91 1.316 . S
N93 C92 1.375 . S
N94 C91 1.347 . S
N94 C95 1.373 . S
C95 C92 1.350 . S
C95 N94 1.373 . S
C95 H116 0.931 . S
H96 C91 0.931 . S
H97 C92 0.930 1_565 S
C98 O105 1.259 1_455 S
C98 O106 1.258 . S
N99 Co90 2.057 . S
N99 C100 1.316 1_545 S
N99 C101 1.375 . S
C100 N99 1.316 1_565 S
C100 N102 1.347 1_565 S
C100 H111 0.931 . S
C101 N99 1.375 . S
C101 C103 1.350 . S
C101 H110 0.930 . S
N102 C100 1.347 1_545 S
N102 C103 1.373 . S
C103 C101 1.350 . S
C103 N102 1.373 . S
C103 H117 0.931 . S
C104 O107 1.256 . S
C104 O108 1.255 1_455 S
O105 Co88 2.021 . S
O105 C98 1.259 1_655 S
O106 Co90 2.117 . S
O106 C98 1.258 . S
O107 Co90 2.020 . S
O107 C104 1.256 . S
O108 Co88 2.062 . S
O108 C104 1.255 1_655 S
O109 C89 1.259 1_455 S
O109 Co90 2.021 1_565 S
H110 C101 0.930 . S
H111 C100 0.931 . S
O112 Co88 2.117 1_565 S
O112 C89 1.258 . S
O113 Co88 2.020 . S
O113 C115 1.256 . S
O114 Co90 2.062 . S
O114 C115 1.255 1_455 S
C115 O113 1.256 . S
C115 O114 1.255 1_655 S
H116 C95 0.931 . S
H117 C103 0.931 . S
Co118 N123 2.057 1_554 S
Co118 O135 2.021 1_554 S
Co118 O138 2.062 . S
Co118 O142 2.117 1_545 S
Co118 O143 2.020 . S
C119 O139 1.259 . S
C119 O142 1.258 . S
Co120 N129 2.057 . S
Co120 O136 2.117 . S
Co120 O137 2.020 . S
Co120 O139 2.021 1_545 S
Co120 O144 2.062 . S
C121 N123 1.316 . S
C121 N124 1.347 1_545 S
C121 H126 0.931 . S
C122 N123 1.375 1_565 S
C122 C125 1.350 . S
C122 H127 0.930 . S
N123 Co118 2.057 1_556 S
N123 C121 1.316 . S
N123 C122 1.375 1_545 S
N124 C121 1.347 1_565 S
N124 C125 1.373 . S
C125 C122 1.350 . S
C125 N124 1.373 . S
C125 H146 0.931 . S
H126 C121 0.931 . S
H127 C122 0.930 . S
C128 O135 1.259 1_554 S
C128 O136 1.258 . S
N129 Co120 2.057 . S
N129 C130 1.316 . S
N129 C131 1.375 . S
C130 N129 1.316 . S
C130 N132 1.347 . S
C130 H141 0.931 . S
C131 N129 1.375 . S
C131 C133 1.350 . S
C131 H140 0.930 . S
N132 C130 1.347 . S
N132 C133 1.373 . S
C133 C131 1.350 . S
C133 N132 1.373 . S
C133 H147 0.931 . S
C134 O137 1.256 . S
C134 O138 1.255 . S
O135 Co118 2.021 1_556 S
O135 C128 1.259 1_556 S
O136 Co120 2.117 . S
O136 C128 1.258 . S
O137 Co120 2.020 . S
O137 C134 1.256 . S
O138 Co118 2.062 . S
O138 C134 1.255 . S
O139 C119 1.259 . S
O139 Co120 2.021 1_565 S
H140 C131 0.930 . S
H141 C130 0.931 . S
O142 Co118 2.117 1_565 S
O142 C119 1.258 . S
O143 Co118 2.020 . S
O143 C145 1.256 . S
O144 Co120 2.062 . S
O144 C145 1.255 . S
C145 O143 1.256 . S
C145 O144 1.255 . S
H146 C125 0.931 . S
H147 C133 0.931 . S
Co148 N153 2.057 . S
Co148 O165 2.021 . S
Co148 O168 2.062 . S
Co148 O172 2.117 . S
Co148 O173 2.020 . S
C149 O169 1.259 . S
C149 O172 1.258 . S
Co150 N159 2.057 . S
Co150 O166 2.117 . S
Co150 O167 2.020 . S
Co150 O169 2.021 . S
Co150 O174 2.062 . S
C151 N153 1.316 . S
C151 N154 1.347 . S
C151 H156 0.931 . S
C152 N153 1.375 . S
C152 C155 1.350 . S
C152 H157 0.930 . S
N153 Co148 2.057 . S
N153 C151 1.316 . S
N153 C152 1.375 . S
N154 C151 1.347 . S
N154 C155 1.373 . S
C155 C152 1.350 . S
C155 N154 1.373 . S
C155 H176 0.931 . S
H156 C151 0.931 . S
H157 C152 0.930 . S
C158 O165 1.259 . S
C158 O166 1.258 . S
N159 Co150 2.057 . S
N159 C160 1.316 . S
N159 C161 1.375 . S
C160 N159 1.316 . S
C160 N162 1.347 . S
C160 H171 0.931 . S
C161 N159 1.375 . S
C161 C163 1.350 . S
C161 H170 0.930 . S
N162 C160 1.347 . S
N162 C163 1.373 . S
C163 C161 1.350 . S
C163 N162 1.373 . S
C163 H177 0.931 . S
C164 O167 1.256 . S
C164 O168 1.255 . S
O165 Co148 2.021 . S
O165 C158 1.259 . S
O166 Co150 2.117 . S
O166 C158 1.258 . S
O167 Co150 2.020 . S
O167 C164 1.256 . S
O168 Co148 2.062 . S
O168 C164 1.255 . S
O169 C149 1.259 . S
O169 Co150 2.021 . S
H170 C161 0.930 . S
H171 C160 0.931 . S
O172 Co148 2.117 . S
O172 C149 1.258 . S
O173 Co148 2.020 . S
O173 C175 1.256 . S
O174 Co150 2.062 . S
O174 C175 1.255 . S
C175 O173 1.256 . S
C175 O174 1.255 . S
H176 C155 0.931 . S
H177 C163 0.931 . S
Co178 N183 2.057 . S
Co178 O195 2.021 1_556 S
Co178 O198 2.062 1_556 S
Co178 O202 2.117 1_455 S
Co178 O203 2.020 . S
C179 O199 1.259 . S
C179 O202 1.258 1_554 S
Co180 N189 2.057 . S
Co180 O196 2.117 . S
Co180 O197 2.020 . S
Co180 O199 2.021 1_455 S
Co180 O204 2.062 . S
C181 N183 1.316 . S
C181 N184 1.347 . S
C181 H186 0.931 . S
C182 N183 1.375 . S
C182 C185 1.350 . S
C182 H187 0.930 1_455 S
N183 Co178 2.057 . S
N183 C181 1.316 . S
N183 C182 1.375 . S
N184 C181 1.347 . S
N184 C185 1.373 . S
C185 C182 1.350 . S
C185 N184 1.373 . S
C185 H206 0.931 . S
H186 C181 0.931 . S
H187 C182 0.930 1_655 S
C188 O195 1.259 . S
C188 O196 1.258 . S
N189 Co180 2.057 . S
N189 C190 1.316 1_455 S
N189 C191 1.375 . S
C190 N189 1.316 1_655 S
C190 N192 1.347 . S
C190 H201 0.931 . S
C191 N189 1.375 . S
C191 C193 1.350 . S
C191 H200 0.930 . S
N192 C190 1.347 . S
N192 C193 1.373 1_655 S
C193 C191 1.350 . S
C193 N192 1.373 1_455 S
C193 H207 0.931 . S
C194 O197 1.256 . S
C194 O198 1.255 . S
O195 Co178 2.021 1_554 S
O195 C188 1.259 . S
O196 Co180 2.117 . S
O196 C188 1.258 . S
O197 Co180 2.020 . S
O197 C194 1.256 . S
O198 Co178 2.062 1_554 S
O198 C194 1.255 . S
O199 C179 1.259 . S
O199 Co180 2.021 1_655 S
H200 C191 0.930 . S
H201 C190 0.931 . S
O202 Co178 2.117 1_655 S
O202 C179 1.258 1_556 S
O203 Co178 2.020 . S
O203 C205 1.256 1_556 S
O204 Co180 2.062 . S
O204 C205 1.255 . S
C205 O203 1.256 1_554 S
C205 O204 1.255 . S
H206 C185 0.931 . S
H207 C193 0.931 . S
C208 C209 1.391 . S
C208 C210 1.394 . S
C208 H224 0.931 . S
C209 C208 1.391 . S
C209 C213 1.376 . S
C210 C208 1.394 . S
C210 C211 1.369 . S
C210 C214 1.531 . S
C211 C210 1.369 . S
C211 C212 1.410 . S
C211 C219 1.503 . S
C212 C211 1.410 . S
C212 C213 1.392 . S
C212 C215 1.511 . S
C213 C209 1.376 . S
C213 C212 1.392 . S
C213 H225 0.929 . S
C214 C210 1.531 . S
C214 H226 0.960 . S
C214 H227 0.962 . S
C214 H228 0.960 . S
C215 C212 1.511 . S
C215 H229 0.961 . S
C215 H230 0.961 . S
C215 H231 0.961 . S
C216 C217 1.370 . S
C216 C218 1.363 . S
C216 H232 0.931 . S
C217 C216 1.370 . S
C217 C221 1.408 . S
C218 C216 1.363 . S
C218 C219 1.370 . S
C218 C222 1.524 . S
C219 C211 1.503 . S
C219 C218 1.370 . S
C219 C220 1.403 . S
C220 C219 1.403 . S
C220 C221 1.404 . S
C220 C223 1.539 . S
C221 C217 1.408 . S
C221 C220 1.404 . S
C221 H233 0.930 . S
C222 C218 1.524 . S
C222 H234 0.956 . S
C222 H235 0.961 . S
C222 H236 0.961 . S
C223 C220 1.539 . S
C223 H237 0.958 . S
C223 H238 0.961 . S
C223 H239 0.960 . S
H224 C208 0.931 . S
H225 C213 0.929 . S
H226 C214 0.960 . S
H227 C214 0.962 . S
H228 C214 0.960 . S
H229 C215 0.961 . S
H230 C215 0.961 . S
H231 C215 0.961 . S
H232 C216 0.931 . S
H233 C221 0.930 . S
H234 C222 0.956 . S
H235 C222 0.961 . S
H236 C222 0.961 . S
H237 C223 0.958 . S
H238 C223 0.961 . S
H239 C223 0.960 . S
C240 C241 1.391 . S
C240 C242 1.394 . S
C240 H256 0.931 . S
C241 C240 1.391 . S
C241 C245 1.376 . S
C242 C240 1.394 . S
C242 C243 1.369 . S
C242 C246 1.531 . S
C243 C242 1.369 . S
C243 C244 1.410 . S
C243 C251 1.503 . S
C244 C243 1.410 . S
C244 C245 1.392 . S
C244 C247 1.511 . S
C245 C241 1.376 . S
C245 C244 1.392 . S
C245 H257 0.929 . S
C246 C242 1.531 . S
C246 H258 0.960 . S
C246 H259 0.962 . S
C246 H260 0.960 . S
C247 C244 1.511 . S
C247 H261 0.961 . S
C247 H262 0.961 . S
C247 H263 0.961 1_565 S
C248 C249 1.370 . S
C248 C250 1.363 . S
C248 H264 0.931 . S
C249 C248 1.370 . S
C249 C253 1.408 1_565 S
C250 C248 1.363 . S
C250 C251 1.370 . S
C250 C254 1.524 . S
C251 C243 1.503 . S
C251 C250 1.370 . S
C251 C252 1.403 1_565 S
C252 C251 1.403 1_545 S
C252 C253 1.404 . S
C252 C255 1.539 . S
C253 C249 1.408 1_545 S
C253 C252 1.404 . S
C253 H265 0.930 . S
C254 C250 1.524 . S
C254 H266 0.956 . S
C254 H267 0.961 . S
C254 H268 0.961 . S
C255 C252 1.539 . S
C255 H269 0.958 . S
C255 H270 0.961 . S
C255 H271 0.960 . S
H256 C240 0.931 . S
H257 C245 0.929 . S
H258 C246 0.960 . S
H259 C246 0.962 . S
H260 C246 0.960 . S
H261 C247 0.961 . S
H262 C247 0.961 . S
H263 C247 0.961 1_545 S
H264 C248 0.931 . S
H265 C253 0.930 . S
H266 C254 0.956 . S
H267 C254 0.961 . S
H268 C254 0.961 . S
H269 C255 0.958 . S
H270 C255 0.961 . S
H271 C255 0.960 . S
C272 C273 1.391 . S
C272 C274 1.394 . S
C272 H288 0.931 . S
C273 C272 1.391 . S
C273 C277 1.376 . S
C274 C272 1.394 . S
C274 C275 1.369 . S
C274 C278 1.531 . S
C275 C274 1.369 . S
C275 C276 1.410 . S
C275 C283 1.503 . S
C276 C275 1.410 . S
C276 C277 1.392 . S
C276 C279 1.511 . S
C277 C273 1.376 . S
C277 C276 1.392 . S
C277 H289 0.929 . S
C278 C274 1.531 . S
C278 H290 0.960 . S
C278 H291 0.962 . S
C278 H292 0.960 . S
C279 C276 1.511 . S
C279 H293 0.961 . S
C279 H294 0.961 . S
C279 H295 0.961 . S
C280 C281 1.370 . S
C280 C282 1.363 . S
C280 H296 0.931 . S
C281 C280 1.370 . S
C281 C285 1.408 . S
C282 C280 1.363 . S
C282 C283 1.370 . S
C282 C286 1.524 . S
C283 C275 1.503 . S
C283 C282 1.370 . S
C283 C284 1.403 . S
C284 C283 1.403 . S
C284 C285 1.404 . S
C284 C287 1.539 . S
C285 C281 1.408 . S
C285 C284 1.404 . S
C285 H297 0.930 . S
C286 C282 1.524 . S
C286 H298 0.956 . S
C286 H299 0.961 . S
C286 H300 0.961 . S
C287 C284 1.539 . S
C287 H301 0.958 . S
C287 H302 0.961 . S
C287 H303 0.960 . S
H288 C272 0.931 . S
H289 C277 0.929 . S
H290 C278 0.960 . S
H291 C278 0.962 . S
H292 C278 0.960 . S
H293 C279 0.961 . S
H294 C279 0.961 . S
H295 C279 0.961 . S
H296 C280 0.931 . S
H297 C285 0.930 . S
H298 C286 0.956 . S
H299 C286 0.961 . S
H300 C286 0.961 . S
H301 C287 0.958 . S
H302 C287 0.961 . S
H303 C287 0.960 . S
C304 C305 1.391 . S
C304 C306 1.394 . S
C304 H320 0.931 1_655 S
C305 C304 1.391 . S
C305 C309 1.376 . S
C306 C304 1.394 . S
C306 C307 1.369 . S
C306 C310 1.531 1_655 S
C307 C306 1.369 . S
C307 C308 1.410 . S
C307 C315 1.503 . S
C308 C307 1.410 . S
C308 C309 1.392 . S
C308 C311 1.511 . S
C309 C305 1.376 . S
C309 C308 1.392 . S
C309 H321 0.929 . S
C310 C306 1.531 1_455 S
C310 H322 0.960 . S
C310 H323 0.962 . S
C310 H324 0.960 . S
C311 C308 1.511 . S
C311 H325 0.961 . S
C311 H326 0.961 . S
C311 H327 0.961 . S
C312 C313 1.370 . S
C312 C314 1.363 . S
C312 H328 0.931 . S
C313 C312 1.370 . S
C313 C317 1.408 . S
C314 C312 1.363 . S
C314 C315 1.370 . S
C314 C318 1.524 . S
C315 C307 1.503 . S
C315 C314 1.370 . S
C315 C316 1.403 . S
C316 C315 1.403 . S
C316 C317 1.404 . S
C316 C319 1.539 . S
C317 C313 1.408 . S
C317 C316 1.404 . S
C317 H329 0.930 . S
C318 C314 1.524 . S
C318 H330 0.956 1_655 S
C318 H331 0.961 . S
C318 H332 0.961 . S
C319 C316 1.539 . S
C319 H333 0.958 . S
C319 H334 0.961 . S
C319 H335 0.960 . S
H320 C304 0.931 1_455 S
H321 C309 0.929 . S
H322 C310 0.960 . S
H323 C310 0.962 . S
H324 C310 0.960 . S
H325 C311 0.961 . S
H326 C311 0.961 . S
H327 C311 0.961 . S
H328 C312 0.931 . S
H329 C317 0.930 . S
H330 C318 0.956 1_455 S
H331 C318 0.961 . S
H332 C318 0.961 . S
H333 C319 0.958 . S
H334 C319 0.961 . S
H335 C319 0.960 . S
C336 C337 1.391 . S
C336 C338 1.394 . S
C336 H352 0.931 . S
C337 C336 1.391 . S
C337 C341 1.376 . S
C338 C336 1.394 . S
C338 C339 1.369 . S
C338 C342 1.531 . S
C339 C338 1.369 . S
C339 C340 1.410 . S
C339 C347 1.503 . S
C340 C339 1.410 . S
C340 C341 1.392 . S
C340 C343 1.511 . S
C341 C337 1.376 . S
C341 C340 1.392 . S
C341 H353 0.929 . S
C342 C338 1.531 . S
C342 H354 0.960 . S
C342 H355 0.962 . S
C342 H356 0.960 . S
C343 C340 1.511 . S
C343 H357 0.961 . S
C343 H358 0.961 . S
C343 H359 0.961 . S
C344 C345 1.370 . S
C344 C346 1.363 . S
C344 H360 0.931 . S
C345 C344 1.370 . S
C345 C349 1.408 . S
C346 C344 1.363 . S
C346 C347 1.370 . S
C346 C350 1.524 . S
C347 C339 1.503 . S
C347 C346 1.370 . S
C347 C348 1.403 . S
C348 C347 1.403 . S
C348 C349 1.404 . S
C348 C351 1.539 . S
C349 C345 1.408 . S
C349 C348 1.404 . S
C349 H361 0.930 . S
C350 C346 1.524 . S
C350 H362 0.956 . S
C350 H363 0.961 . S
C350 H364 0.961 . S
C351 C348 1.539 . S
C351 H365 0.958 . S
C351 H366 0.961 . S
C351 H367 0.960 . S
H352 C336 0.931 . S
H353 C341 0.929 . S
H354 C342 0.960 . S
H355 C342 0.962 . S
H356 C342 0.960 . S
H357 C343 0.961 . S
H358 C343 0.961 . S
H359 C343 0.961 . S
H360 C344 0.931 . S
H361 C349 0.930 . S
H362 C350 0.956 . S
H363 C350 0.961 . S
H364 C350 0.961 . S
H365 C351 0.958 . S
H366 C351 0.961 . S
H367 C351 0.960 . S
C368 C369 1.391 . S
C368 C370 1.394 . S
C368 H384 0.931 . S
C369 C368 1.391 . S
C369 C373 1.376 . S
C370 C368 1.394 . S
C370 C371 1.369 . S
C370 C374 1.531 . S
C371 C370 1.369 . S
C371 C372 1.410 . S
C371 C379 1.503 . S
C372 C371 1.410 . S
C372 C373 1.392 . S
C372 C375 1.511 1_565 S
C373 C369 1.376 . S
C373 C372 1.392 . S
C373 H385 0.947 . S
C374 C370 1.531 . S
C374 H386 0.960 . S
C374 H387 0.962 . S
C374 H388 0.960 . S
C375 C372 1.511 1_545 S
C375 H389 0.961 . S
C375 H390 0.961 . S
C375 H391 0.961 . S
C376 C377 1.374 . S
C376 C378 1.373 . S
C376 H392 0.918 1_565 S
C377 C376 1.374 . S
C377 C381 1.408 . S
C378 C376 1.373 . S
C378 C379 1.370 . S
C378 C382 1.524 1_565 S
C379 C371 1.503 . S
C379 C378 1.370 . S
C379 C380 1.403 . S
C380 C379 1.403 . S
C380 C381 1.404 . S
C380 C383 1.539 . S
C381 C377 1.408 . S
C381 C380 1.404 . S
C381 H393 0.930 . S
C382 C378 1.524 1_545 S
C382 H394 0.956 1_545 S
C382 H395 0.961 . S
C382 H396 0.961 . S
C383 C380 1.539 . S
C383 H397 0.958 . S
C383 H398 0.961 . S
C383 H399 0.960 . S
H384 C368 0.931 . S
H385 C373 0.947 . S
H386 C374 0.960 . S
H387 C374 0.962 . S
H388 C374 0.960 . S
H389 C375 0.961 . S
H390 C375 0.961 . S
H391 C375 0.961 . S
H392 C376 0.918 1_545 S
H393 C381 0.930 . S
H394 C382 0.956 1_565 S
H395 C382 0.961 . S
H396 C382 0.961 . S
H397 C383 0.958 . S
H398 C383 0.961 . S
H399 C383 0.960 . S
C400 C401 1.391 . S
C400 C402 1.394 . S
C400 H416 0.931 . S
C401 C400 1.391 . S
C401 C405 1.376 . S
C402 C400 1.394 . S
C402 C403 1.369 . S
C402 C406 1.531 1_556 S
C403 C402 1.369 . S
C403 C404 1.410 . S
C403 C411 1.503 . S
C404 C403 1.410 . S
C404 C405 1.392 . S
C404 C407 1.511 . S
C405 C401 1.376 . S
C405 C404 1.392 . S
C405 H417 0.929 . S
C406 C402 1.531 1_554 S
C406 H418 0.960 . S
C406 H419 0.962 1_554 S
C406 H420 0.960 . S
C407 C404 1.511 . S
C407 H421 0.961 . S
C407 H422 0.961 . S
C407 H423 0.961 . S
C408 C409 1.370 . S
C408 C410 1.363 . S
C408 H424 0.931 . S
C409 C408 1.370 . S
C409 C413 1.408 1_556 S
C410 C408 1.363 . S
C410 C411 1.370 . S
C410 C414 1.524 . S
C411 C403 1.503 . S
C411 C410 1.370 . S
C411 C412 1.403 1_556 S
C412 C411 1.403 1_554 S
C412 C413 1.404 . S
C412 C415 1.539 . S
C413 C409 1.408 1_554 S
C413 C412 1.404 . S
C413 H425 0.930 . S
C414 C410 1.524 . S
C414 H426 0.956 . S
C414 H427 0.961 . S
C414 H428 0.961 . S
C415 C412 1.539 . S
C415 H429 0.958 . S
C415 H430 0.961 . S
C415 H431 0.960 . S
H416 C400 0.931 . S
H417 C405 0.929 . S
H418 C406 0.960 . S
H419 C406 0.962 1_556 S
H420 C406 0.960 . S
H421 C407 0.961 . S
H422 C407 0.961 . S
H423 C407 0.961 . S
H424 C408 0.931 . S
H425 C413 0.930 . S
H426 C414 0.956 . S
H427 C414 0.961 . S
H428 C414 0.961 . S
H429 C415 0.958 . S
H430 C415 0.961 . S
H431 C415 0.960 . S
C432 C433 1.391 . S
C432 C434 1.394 . S
C432 H448 0.931 . S
C433 C432 1.391 . S
C433 C437 1.376 . S
C434 C432 1.394 . S
C434 C435 1.369 . S
C434 C438 1.531 . S
C435 C434 1.369 . S
C435 C436 1.410 . S
C435 C443 1.503 . S
C436 C435 1.410 . S
C436 C437 1.392 . S
C436 C439 1.511 . S
C437 C433 1.376 . S
C437 C436 1.392 . S
C437 H449 0.929 . S
C438 C434 1.531 . S
C438 H450 0.960 . S
C438 H451 0.962 . S
C438 H452 0.960 . S
C439 C436 1.511 . S
C439 H453 0.961 . S
C439 H454 0.961 . S
C439 H455 0.961 . S
C440 C441 1.370 . S
C440 C442 1.363 . S
C440 H456 0.931 . S
C441 C440 1.370 . S
C441 C445 1.408 . S
C442 C440 1.363 . S
C442 C443 1.370 . S
C442 C446 1.524 . S
C443 C435 1.503 . S
C443 C442 1.370 . S
C443 C444 1.403 . S
C444 C443 1.403 . S
C444 C445 1.404 . S
C444 C447 1.539 . S
C445 C441 1.408 . S
C445 C444 1.404 . S
C445 H457 0.930 . S
C446 C442 1.524 . S
C446 H458 0.956 . S
C446 H459 0.961 . S
C446 H460 0.961 . S
C447 C444 1.539 . S
C447 H461 0.958 . S
C447 H462 0.961 . S
C447 H463 0.960 . S
H448 C432 0.931 . S
H449 C437 0.929 . S
H450 C438 0.960 . S
H451 C438 0.962 . S
H452 C438 0.960 . S
H453 C439 0.961 . S
H454 C439 0.961 . S
H455 C439 0.961 . S
H456 C440 0.931 . S
H457 C445 0.930 . S
H458 C446 0.956 . S
H459 C446 0.961 . S
H460 C446 0.961 . S
H461 C447 0.958 . S
H462 C447 0.961 . S
H463 C447 0.960 . S
C464 C465 1.391 . S
C464 C466 1.394 . S
C464 H480 0.931 . S
C465 C464 1.391 . S
C465 C469 1.376 . S
C466 C464 1.394 . S
C466 C467 1.369 . S
C466 C470 1.531 . S
C467 C466 1.369 . S
C467 C468 1.410 . S
C467 C475 1.503 . S
C468 C467 1.410 . S
C468 C469 1.392 . S
C468 C471 1.511 . S
C469 C465 1.376 . S
C469 C468 1.392 . S
C469 H481 0.929 . S
C470 C466 1.531 . S
C470 H482 0.960 . S
C470 H483 0.962 . S
C470 H484 0.960 1_554 S
C471 C468 1.511 . S
C471 H485 0.961 . S
C471 H486 0.961 . S
C471 H487 0.961 . S
C472 C473 1.370 . S
C472 C474 1.363 . S
C472 H488 0.931 . S
C473 C472 1.370 . S
C473 C477 1.408 . S
C474 C472 1.363 . S
C474 C475 1.370 . S
C474 C478 1.524 . S
C475 C467 1.503 . S
C475 C474 1.370 . S
C475 C476 1.403 . S
C476 C475 1.403 . S
C476 C477 1.404 . S
C476 C479 1.539 . S
C477 C473 1.408 . S
C477 C476 1.404 . S
C477 H489 0.930 . S
C478 C474 1.524 . S
C478 H490 0.956 . S
C478 H491 0.961 . S
C478 H492 0.961 . S
C479 C476 1.539 . S
C479 H493 0.956 . S
C479 H494 0.961 1_455 S
C479 H495 0.960 . S
H480 C464 0.931 . S
H481 C469 0.929 . S
H482 C470 0.960 . S
H483 C470 0.962 . S
H484 C470 0.960 1_556 S
H485 C471 0.961 . S
H486 C471 0.961 . S
H487 C471 0.961 . S
H488 C472 0.931 . S
H489 C477 0.930 . S
H490 C478 0.956 . S
H491 C478 0.961 . S
H492 C478 0.961 . S
H493 C479 0.956 . S
H494 C479 0.961 1_655 S
H495 C479 0.960 . S
C496 C497 1.391 . S
C496 C498 1.394 . S
C496 H512 0.931 . S
C497 C496 1.391 . S
C497 C501 1.376 . S
C498 C496 1.394 . S
C498 C499 1.369 . S
C498 C502 1.531 1_556 S
C499 C498 1.369 . S
C499 C500 1.410 . S
C499 C507 1.503 . S
C500 C499 1.410 . S
C500 C501 1.392 . S
C500 C503 1.511 . S
C501 C497 1.376 . S
C501 C500 1.392 . S
C501 H513 0.929 . S
C502 C498 1.531 1_554 S
C502 H514 0.960 . S
C502 H515 0.962 . S
C502 H516 0.960 . S
C503 C500 1.511 . S
C503 H517 0.961 . S
C503 H518 0.961 . S
C503 H519 0.961 . S
C504 C505 1.370 1_556 S
C504 C506 1.363 . S
C504 H520 0.931 . S
C505 C504 1.370 1_554 S
C505 C509 1.408 . S
C506 C504 1.363 . S
C506 C507 1.370 . S
C506 C510 1.524 . S
C507 C499 1.503 . S
C507 C506 1.370 . S
C507 C508 1.403 1_556 S
C508 C507 1.403 1_554 S
C508 C509 1.404 . S
C508 C511 1.539 . S
C509 C505 1.408 . S
C509 C508 1.404 . S
C509 H521 0.930 . S
C510 C506 1.524 . S
C510 H522 0.956 . S
C510 H523 0.961 . S
C510 H524 0.961 . S
C511 C508 1.539 . S
C511 H525 0.958 . S
C511 H526 0.961 . S
C511 H527 0.960 . S
H512 C496 0.931 . S
H513 C501 0.929 . S
H514 C502 0.960 . S
H515 C502 0.962 . S
H516 C502 0.960 . S
H517 C503 0.961 . S
H518 C503 0.961 . S
H519 C503 0.961 . S
H520 C504 0.931 . S
H521 C509 0.930 . S
H522 C510 0.956 . S
H523 C510 0.961 . S
H524 C510 0.961 . S
H525 C511 0.958 . S
H526 C511 0.961 . S
H527 C511 0.960 . S
C528 C529 1.391 . S
C528 C530 1.394 . S
C528 H544 0.931 . S
C529 C528 1.391 . S
C529 C533 1.376 . S
C530 C528 1.394 . S
C530 C531 1.369 . S
C530 C534 1.531 . S
C531 C530 1.369 . S
C531 C532 1.410 . S
C531 C539 1.503 . S
C532 C531 1.410 . S
C532 C533 1.392 . S
C532 C535 1.511 1_655 S
C533 C529 1.376 . S
C533 C532 1.392 . S
C533 H545 0.929 . S
C534 C530 1.531 . S
C534 H546 0.960 . S
C534 H547 0.962 . S
C534 H548 0.960 . S
C535 C532 1.511 1_455 S
C535 H549 0.961 . S
C535 H550 0.961 . S
C535 H551 0.961 . S
C536 C537 1.370 . S
C536 C538 1.363 . S
C536 H552 0.931 . S
C537 C536 1.370 . S
C537 C541 1.408 . S
C538 C536 1.363 . S
C538 C539 1.370 . S
C538 C542 1.524 . S
C539 C531 1.503 . S
C539 C538 1.370 . S
C539 C540 1.403 . S
C540 C539 1.403 . S
C540 C541 1.404 . S
C540 C543 1.539 1_655 S
C541 C537 1.408 . S
C541 C540 1.404 . S
C541 H553 0.930 1_655 S
C542 C538 1.524 . S
C542 H554 0.956 . S
C542 H555 0.961 . S
C542 H556 0.961 . S
C543 C540 1.539 1_455 S
C543 H557 0.958 1_455 S
C543 H558 0.961 . S
C543 H559 0.960 . S
H544 C528 0.931 . S
H545 C533 0.929 . S
H546 C534 0.960 . S
H547 C534 0.962 . S
H548 C534 0.960 . S
H549 C535 0.961 . S
H550 C535 0.961 . S
H551 C535 0.961 . S
H552 C536 0.931 . S
H553 C541 0.930 1_455 S
H554 C542 0.956 . S
H555 C542 0.961 . S
H556 C542 0.961 . S
H557 C543 0.958 1_655 S
H558 C543 0.961 . S
H559 C543 0.960 . S
C560 C561 1.391 . S
C560 C562 1.394 . S
C560 H576 0.931 . S
C561 C560 1.391 . S
C561 C565 1.376 . S
C562 C560 1.394 . S
C562 C563 1.369 . S
C562 C566 1.531 . S
C563 C562 1.369 . S
C563 C564 1.410 . S
C563 C571 1.503 . S
C564 C563 1.410 . S
C564 C565 1.392 . S
C564 C567 1.511 . S
C565 C561 1.376 . S
C565 C564 1.392 . S
C565 H577 0.929 . S
C566 C562 1.531 . S
C566 H578 0.960 . S
C566 H579 0.962 . S
C566 H580 0.960 . S
C567 C564 1.511 . S
C567 H581 0.961 . S
C567 H582 0.961 . S
C567 H583 0.961 . S
C568 C569 1.370 . S
C568 C570 1.363 . S
C568 H584 0.931 . S
C569 C568 1.370 . S
C569 C573 1.408 . S
C570 C568 1.363 . S
C570 C571 1.370 . S
C570 C574 1.524 . S
C571 C563 1.503 . S
C571 C570 1.370 . S
C571 C572 1.403 . S
C572 C571 1.403 . S
C572 C573 1.404 . S
C572 C575 1.539 . S
C573 C569 1.408 . S
C573 C572 1.404 . S
C573 H585 0.930 . S
C574 C570 1.524 . S
C574 H586 0.956 . S
C574 H587 0.961 . S
C574 H588 0.961 . S
C575 C572 1.539 . S
C575 H589 0.958 . S
C575 H590 0.961 . S
C575 H591 0.960 . S
H576 C560 0.931 . S
H577 C565 0.929 . S
H578 C566 0.960 . S
H579 C566 0.962 . S
H580 C566 0.960 . S
H581 C567 0.961 . S
H582 C567 0.961 . S
H583 C567 0.961 . S
H584 C568 0.931 . S
H585 C573 0.930 . S
H586 C574 0.956 . S
H587 C574 0.961 . S
H588 C574 0.961 . S
H589 C575 0.958 . S
H590 C575 0.961 . S
H591 C575 0.960 . S
C592 C593 1.391 . S
C592 C594 1.394 . S
C592 H608 0.931 . S
C593 C592 1.391 . S
C593 C597 1.376 . S
C594 C592 1.394 . S
C594 C595 1.369 . S
C594 C598 1.531 1_655 S
C595 C594 1.369 . S
C595 C596 1.410 . S
C595 C603 1.503 . S
C596 C595 1.410 . S
C596 C597 1.392 . S
C596 C599 1.511 . S
C597 C593 1.376 . S
C597 C596 1.392 . S
C597 H609 0.929 . S
C598 C594 1.531 1_455 S
C598 H610 0.960 . S
C598 H611 0.962 . S
C598 H612 0.960 . S
C599 C596 1.511 . S
C599 H613 0.961 . S
C599 H614 0.961 . S
C599 H615 0.961 . S
C600 C601 1.370 1_545 S
C600 C602 1.363 . S
C600 H616 0.931 . S
C601 C600 1.370 1_565 S
C601 C605 1.408 . S
C602 C600 1.363 . S
C602 C603 1.370 1_545 S
C602 C606 1.524 . S
C603 C595 1.503 . S
C603 C602 1.370 1_565 S
C603 C604 1.403 . S
C604 C603 1.403 . S
C604 C605 1.404 . S
C604 C607 1.539 . S
C605 C601 1.408 . S
C605 C604 1.404 . S
C605 H617 0.930 . S
C606 C602 1.524 . S
C606 H618 0.956 . S
C606 H619 0.961 . S
C606 H620 0.961 . S
C607 C604 1.539 . S
C607 H621 0.958 . S
C607 H622 0.961 . S
C607 H623 0.960 . S
H608 C592 0.931 . S
H609 C597 0.929 . S
H610 C598 0.960 . S
H611 C598 0.962 . S
H612 C598 0.960 . S
H613 C599 0.961 . S
H614 C599 0.961 . S
H615 C599 0.961 . S
H616 C600 0.931 . S
H617 C605 0.930 . S
H618 C606 0.956 . S
H619 C606 0.961 . S
H620 C606 0.961 . S
H621 C607 0.958 . S
H622 C607 0.961 . S
H623 C607 0.960 . S
C624 C625 1.391 . S
C624 C626 1.394 . S
C624 H640 0.931 . S
C625 C624 1.391 . S
C625 C629 1.376 . S
C626 C624 1.394 . S
C626 C627 1.369 . S
C626 C630 1.531 . S
C627 C626 1.369 . S
C627 C628 1.410 . S
C627 C635 1.503 . S
C628 C627 1.410 . S
C628 C629 1.392 . S
C628 C631 1.511 . S
C629 C625 1.376 . S
C629 C628 1.392 . S
C629 H641 0.929 . S
C630 C626 1.531 . S
C630 H642 0.960 . S
C630 H643 0.962 . S
C630 H644 0.960 . S
C631 C628 1.511 . S
C631 H645 0.961 . S
C631 H646 0.961 . S
C631 H647 0.961 . S
C632 C633 1.370 . S
C632 C634 1.363 . S
C632 H648 0.931 . S
C633 C632 1.370 . S
C633 C637 1.408 . S
C634 C632 1.363 . S
C634 C635 1.370 . S
C634 C638 1.524 . S
C635 C627 1.503 . S
C635 C634 1.370 . S
C635 C636 1.403 . S
C636 C635 1.403 . S
C636 C637 1.404 . S
C636 C639 1.539 . S
C637 C633 1.408 . S
C637 C636 1.404 . S
C637 H649 0.930 . S
C638 C634 1.524 . S
C638 H650 0.956 . S
C638 H651 0.961 . S
C638 H652 0.961 . S
C639 C636 1.539 . S
C639 H653 0.958 . S
C639 H654 0.961 . S
C639 H655 0.960 . S
H640 C624 0.931 . S
H641 C629 0.929 . S
H642 C630 0.960 . S
H643 C630 0.962 . S
H644 C630 0.960 . S
H645 C631 0.961 . S
H646 C631 0.961 . S
H647 C631 0.961 . S
H648 C632 0.931 . S
H649 C637 0.930 . S
H650 C638 0.956 . S
H651 C638 0.961 . S
H652 C638 0.961 . S
H653 C639 0.958 . S
H654 C639 0.961 . S
H655 C639 0.960 . S
C656 C657 1.391 . S
C656 C658 1.394 . S
C656 H672 0.931 . S
C657 C656 1.391 . S
C657 C661 1.376 . S
C658 C656 1.394 . S
C658 C659 1.369 . S
C658 C662 1.531 . S
C659 C658 1.369 . S
C659 C660 1.410 . S
C659 C667 1.503 . S
C660 C659 1.410 . S
C660 C661 1.392 . S
C660 C663 1.511 . S
C661 C657 1.376 . S
C661 C660 1.392 . S
C661 H673 0.929 . S
C662 C658 1.531 . S
C662 H674 0.960 . S
C662 H675 0.962 . S
C662 H676 0.960 . S
C663 C660 1.511 . S
C663 H677 0.961 . S
C663 H678 0.961 . S
C663 H679 0.961 . S
C664 C665 1.370 . S
C664 C666 1.363 . S
C664 H680 0.931 . S
C665 C664 1.370 . S
C665 C669 1.408 . S
C666 C664 1.363 . S
C666 C667 1.370 . S
C666 C670 1.524 . S
C667 C659 1.503 . S
C667 C666 1.370 . S
C667 C668 1.403 . S
C668 C667 1.403 . S
C668 C669 1.404 . S
C668 C671 1.539 . S
C669 C665 1.408 . S
C669 C668 1.404 . S
C669 H681 0.930 . S
C670 C666 1.524 . S
C670 H682 0.956 . S
C670 H683 0.961 . S
C670 H684 0.961 . S
C671 C668 1.539 . S
C671 H685 0.958 . S
C671 H686 0.961 . S
C671 H687 0.960 . S
H672 C656 0.931 . S
H673 C661 0.929 . S
H674 C662 0.960 . S
H675 C662 0.962 . S
H676 C662 0.960 . S
H677 C663 0.961 . S
H678 C663 0.961 . S
H679 C663 0.961 . S
H680 C664 0.931 . S
H681 C669 0.930 . S
H682 C670 0.956 . S
H683 C670 0.961 . S
H684 C670 0.961 . S
H685 C671 0.958 . S
H686 C671 0.961 . S
H687 C671 0.960 . S
C688 C689 1.391 . S
C688 C690 1.394 . S
C688 H704 0.931 . S
C689 C688 1.391 . S
C689 C693 1.376 . S
C690 C688 1.394 . S
C690 C691 1.369 . S
C690 C694 1.531 . S
C691 C690 1.369 . S
C691 C692 1.410 . S
C691 C699 1.503 . S
C692 C691 1.410 . S
C692 C693 1.392 . S
C692 C695 1.511 . S
C693 C689 1.376 . S
C693 C692 1.392 . S
C693 H705 0.929 . S
C694 C690 1.531 . S
C694 H706 0.960 . S
C694 H707 0.962 . S
C694 H708 0.960 . S
C695 C692 1.511 . S
C695 H709 0.961 1_455 S
C695 H710 0.961 . S
C695 H711 0.961 1_455 S
C696 C697 1.370 . S
C696 C698 1.363 . S
C696 H712 0.931 . S
C697 C696 1.370 . S
C697 C701 1.408 . S
C698 C696 1.363 . S
C698 C699 1.370 . S
C698 C702 1.524 . S
C699 C691 1.503 . S
C699 C698 1.370 . S
C699 C700 1.403 . S
C700 C699 1.403 . S
C700 C701 1.404 . S
C700 C703 1.539 . S
C701 C697 1.408 . S
C701 C700 1.404 . S
C701 H713 0.930 . S
C702 C698 1.524 . S
C702 H714 0.956 . S
C702 H715 0.961 . S
C702 H716 0.961 . S
C703 C700 1.539 . S
C703 H717 0.958 . S
C703 H718 0.961 . S
C703 H719 0.960 . S
H704 C688 0.931 . S
H705 C693 0.929 . S
H706 C694 0.960 . S
H707 C694 0.962 . S
H708 C694 0.960 . S
H709 C695 0.961 1_655 S
H710 C695 0.961 . S
H711 C695 0.961 1_655 S
H712 C696 0.931 . S
H713 C701 0.930 . S
H714 C702 0.956 . S
H715 C702 0.961 . S
H716 C702 0.961 . S
H717 C703 0.958 . S
H718 C703 0.961 . S
H719 C703 0.960 . S
C720 C721 1.391 . S
C720 C722 1.394 . S
C720 H736 0.931 . S
C721 C720 1.391 . S
C721 C725 1.376 . S
C722 C720 1.394 . S
C722 C723 1.369 . S
C722 C726 1.531 . S
C723 C722 1.369 . S
C723 C724 1.410 1_556 S
C723 C731 1.503 . S
C724 C723 1.410 1_554 S
C724 C725 1.392 1_554 S
C724 C727 1.511 . S
C725 C721 1.376 . S
C725 C724 1.392 1_556 S
C725 H737 0.929 1_556 S
C726 C722 1.531 . S
C726 H738 0.960 . S
C726 H739 0.962 . S
C726 H740 0.960 . S
C727 C724 1.511 . S
C727 H741 0.961 1_565 S
C727 H742 0.961 1_565 S
C727 H743 0.961 . S
C728 C729 1.370 . S
C728 C730 1.363 1_554 S
C728 H744 0.931 1_554 S
C729 C728 1.370 . S
C729 C733 1.408 1_545 S
C730 C728 1.363 1_556 S
C730 C731 1.370 1_545 S
C730 C734 1.524 . S
C731 C723 1.503 . S
C731 C730 1.370 1_565 S
C731 C732 1.403 1_556 S
C732 C731 1.403 1_554 S
C732 C733 1.404 . S
C732 C735 1.539 . S
C733 C729 1.408 1_565 S
C733 C732 1.404 . S
C733 H745 0.930 . S
C734 C730 1.524 . S
C734 H746 0.956 . S
C734 H747 0.961 . S
C734 H748 0.961 . S
C735 C732 1.539 . S
C735 H749 0.958 1_554 S
C735 H750 0.961 . S
C735 H751 0.960 . S
H736 C720 0.931 . S
H737 C725 0.929 1_554 S
H738 C726 0.960 . S
H739 C726 0.962 . S
H740 C726 0.960 . S
H741 C727 0.961 1_545 S
H742 C727 0.961 1_545 S
H743 C727 0.961 . S
H744 C728 0.931 1_556 S
H745 C733 0.930 . S
H746 C734 0.956 . S
H747 C734 0.961 . S
H748 C734 0.961 . S
H749 C735 0.958 1_556 S
H750 C735 0.961 . S
H751 C735 0.960 . S
C752 C753 1.391 . S
C752 C754 1.394 . S
C752 H768 0.931 . S
C753 C752 1.391 . S
C753 C757 1.376 . S
C754 C752 1.394 . S
C754 C755 1.369 . S
C754 C758 1.531 . S
C755 C754 1.369 . S
C755 C756 1.410 . S
C755 C763 1.503 . S
C756 C755 1.410 . S
C756 C757 1.392 . S
C756 C759 1.511 . S
C757 C753 1.376 . S
C757 C756 1.392 . S
C757 H769 0.929 . S
C758 C754 1.531 . S
C758 H770 0.960 . S
C758 H771 0.962 . S
C758 H772 0.960 . S
C759 C756 1.511 . S
C759 H773 0.961 . S
C759 H774 0.961 . S
C759 H775 0.961 . S
C760 C761 1.370 . S
C760 C762 1.363 . S
C760 H776 0.931 . S
C761 C760 1.370 . S
C761 C765 1.408 . S
C762 C760 1.363 . S
C762 C763 1.370 . S
C762 C766 1.524 . S
C763 C755 1.503 . S
C763 C762 1.370 . S
C763 C764 1.403 . S
C764 C763 1.403 . S
C764 C765 1.404 . S
C764 C767 1.539 . S
C765 C761 1.408 . S
C765 C764 1.404 . S
C765 H777 0.930 . S
C766 C762 1.524 . S
C766 H778 0.956 . S
C766 H779 0.961 . S
C766 H780 0.961 . S
C767 C764 1.539 . S
C767 H781 0.958 . S
C767 H782 0.961 . S
C767 H783 0.960 . S
H768 C752 0.931 . S
H769 C757 0.929 . S
H770 C758 0.960 . S
H771 C758 0.962 . S
H772 C758 0.960 . S
H773 C759 0.961 . S
H774 C759 0.961 . S
H775 C759 0.961 . S
H776 C760 0.931 . S
H777 C765 0.930 . S
H778 C766 0.956 . S
H779 C766 0.961 . S
H780 C766 0.961 . S
H781 C767 0.958 . S
H782 C767 0.961 . S
H783 C767 0.960 . S
C784 C785 1.391 . S
C784 C786 1.394 . S
C784 H800 0.931 . S
C785 C784 1.391 . S
C785 C789 1.376 . S
C786 C784 1.394 . S
C786 C787 1.369 . S
C786 C790 1.531 . S
C787 C786 1.369 . S
C787 C788 1.410 . S
C787 C795 1.503 . S
C788 C787 1.410 . S
C788 C789 1.392 . S
C788 C791 1.511 . S
C789 C785 1.376 . S
C789 C788 1.392 . S
C789 H801 0.929 . S
C790 C786 1.531 . S
C790 H802 0.960 . S
C790 H803 0.962 . S
C790 H804 0.960 . S
C791 C788 1.511 . S
C791 H805 0.961 . S
C791 H806 0.961 . S
C791 H807 0.961 . S
C792 C793 1.370 . S
C792 C794 1.363 . S
C792 H808 0.931 . S
C793 C792 1.370 . S
C793 C797 1.408 . S
C794 C792 1.363 . S
C794 C795 1.370 . S
C794 C798 1.524 . S
C795 C787 1.503 . S
C795 C794 1.370 . S
C795 C796 1.403 . S
C796 C795 1.403 . S
C796 C797 1.404 . S
C796 C799 1.539 . S
C797 C793 1.408 . S
C797 C796 1.404 . S
C797 H809 0.930 . S
C798 C794 1.524 . S
C798 H810 0.956 . S
C798 H811 0.961 . S
C798 H812 0.961 . S
C799 C796 1.539 . S
C799 H813 0.958 . S
C799 H814 0.961 . S
C799 H815 0.960 . S
H800 C784 0.931 . S
H801 C789 0.929 . S
H802 C790 0.960 . S
H803 C790 0.962 . S
H804 C790 0.960 . S
H805 C791 0.961 . S
H806 C791 0.961 . S
H807 C791 0.961 . S
H808 C792 0.931 . S
H809 C797 0.930 . S
H810 C798 0.956 . S
H811 C798 0.961 . S
H812 C798 0.961 . S
H813 C799 0.958 . S
H814 C799 0.961 . S
H815 C799 0.960 . S
C816 C817 1.391 . S
C816 C818 1.394 . S
C816 H832 0.931 . S
C817 C816 1.391 . S
C817 C821 1.376 . S
C818 C816 1.394 . S
C818 C819 1.369 . S
C818 C822 1.531 . S
C819 C818 1.369 . S
C819 C820 1.410 . S
C819 C827 1.503 . S
C820 C819 1.410 . S
C820 C821 1.392 . S
C820 C823 1.511 . S
C821 C817 1.376 . S
C821 C820 1.392 . S
C821 H833 0.929 . S
C822 C818 1.531 . S
C822 H834 0.960 . S
C822 H835 0.962 . S
C822 H836 0.960 . S
C823 C820 1.511 . S
C823 H837 0.961 . S
C823 H838 0.961 . S
C823 H839 0.961 . S
C824 C825 1.370 . S
C824 C826 1.363 . S
C824 H840 0.931 . S
C825 C824 1.370 . S
C825 C829 1.408 . S
C826 C824 1.363 . S
C826 C827 1.370 . S
C826 C830 1.524 . S
C827 C819 1.503 . S
C827 C826 1.370 . S
C827 C828 1.403 . S
C828 C827 1.403 . S
C828 C829 1.404 . S
C828 C831 1.539 . S
C829 C825 1.408 . S
C829 C828 1.404 . S
C829 H841 0.930 . S
C830 C826 1.524 . S
C830 H842 0.956 . S
C830 H843 0.961 . S
C830 H844 0.961 . S
C831 C828 1.539 . S
C831 H845 0.958 . S
C831 H846 0.961 . S
C831 H847 0.960 . S
H832 C816 0.931 . S
H833 C821 0.929 . S
H834 C822 0.960 . S
H835 C822 0.962 . S
H836 C822 0.960 . S
H837 C823 0.961 . S
H838 C823 0.961 . S
H839 C823 0.961 . S
H840 C824 0.931 . S
H841 C829 0.930 . S
H842 C830 0.956 . S
H843 C830 0.961 . S
H844 C830 0.961 . S
H845 C831 0.958 . S
H846 C831 0.961 . S
H847 C831 0.960 . S
C848 C849 1.391 . S
C848 C850 1.394 . S
C848 H864 0.931 . S
C849 C848 1.391 . S
C849 C853 1.376 . S
C850 C848 1.394 . S
C850 C851 1.369 . S
C850 C854 1.531 1_655 S
C851 C850 1.369 . S
C851 C852 1.410 . S
C851 C859 1.503 . S
C852 C851 1.410 . S
C852 C853 1.392 . S
C852 C855 1.511 . S
C853 C849 1.376 . S
C853 C852 1.392 . S
C853 H865 0.929 . S
C854 C850 1.531 1_455 S
C854 H866 0.960 . S
C854 H867 0.962 . S
C854 H868 0.960 . S
C855 C852 1.511 . S
C855 H869 0.961 . S
C855 H870 0.961 . S
C855 H871 0.945 1_556 S
C856 C857 1.370 . S
C856 C858 1.363 . S
C856 H872 0.931 . S
C857 C856 1.370 . S
C857 C861 1.408 1_556 S
C858 C856 1.363 . S
C858 C859 1.370 . S
C858 C862 1.524 . S
C859 C851 1.503 . S
C859 C858 1.370 . S
C859 C860 1.403 1_556 S
C860 C859 1.403 1_554 S
C860 C861 1.404 . S
C860 C863 1.539 . S
C861 C857 1.408 1_554 S
C861 C860 1.404 . S
C861 H873 0.930 1_655 S
C862 C858 1.524 . S
C862 H874 0.956 . S
C862 H875 0.961 . S
C862 H876 0.961 . S
C863 C860 1.539 . S
C863 H877 0.958 1_655 S
C863 H878 0.961 . S
C863 H879 0.960 . S
H864 C848 0.931 . S
H865 C853 0.929 . S
H866 C854 0.960 . S
H867 C854 0.962 . S
H868 C854 0.960 . S
H869 C855 0.961 . S
H870 C855 0.961 . S
H871 C855 0.945 1_554 S
H872 C856 0.931 . S
H873 C861 0.930 1_455 S
H874 C862 0.956 . S
H875 C862 0.961 . S
H876 C862 0.961 . S
H877 C863 0.958 1_455 S
H878 C863 0.961 . S
H879 C863 0.960 . S
C880 C881 1.391 . S
C880 C882 1.394 . S
C880 H896 0.931 . S
C881 C880 1.391 . S
C881 C885 1.376 . S
C882 C880 1.394 . S
C882 C883 1.369 . S
C882 C886 1.531 . S
C883 C882 1.369 . S
C883 C884 1.410 . S
C883 C891 1.503 . S
C884 C883 1.410 . S
C884 C885 1.392 . S
C884 C887 1.511 . S
C885 C881 1.376 . S
C885 C884 1.392 . S
C885 H897 0.929 . S
C886 C882 1.531 . S
C886 H898 0.960 . S
C886 H899 0.962 . S
C886 H900 0.960 . S
C887 C884 1.511 . S
C887 H901 0.961 . S
C887 H902 0.961 . S
C887 H903 0.961 . S
C888 C889 1.370 . S
C888 C890 1.363 . S
C888 H904 0.931 . S
C889 C888 1.370 . S
C889 C893 1.408 . S
C890 C888 1.363 . S
C890 C891 1.370 . S
C890 C894 1.524 . S
C891 C883 1.503 . S
C891 C890 1.370 . S
C891 C892 1.403 . S
C892 C891 1.403 . S
C892 C893 1.404 . S
C892 C895 1.539 . S
C893 C889 1.408 . S
C893 C892 1.404 . S
C893 H905 0.930 . S
C894 C890 1.524 . S
C894 H906 0.956 . S
C894 H907 0.961 . S
C894 H908 0.961 . S
C895 C892 1.539 . S
C895 H909 0.958 . S
C895 H910 0.961 . S
C895 H911 0.960 . S
H896 C880 0.931 . S
H897 C885 0.929 . S
H898 C886 0.960 . S
H899 C886 0.962 . S
H900 C886 0.960 . S
H901 C887 0.961 . S
H902 C887 0.961 . S
H903 C887 0.961 . S
H904 C888 0.931 . S
H905 C893 0.930 . S
H906 C894 0.956 . S
H907 C894 0.961 . S
H908 C894 0.961 . S
H909 C895 0.958 . S
H910 C895 0.961 . S
H911 C895 0.960 . S
C912 C913 1.391 . S
C912 C914 1.394 . S
C912 H928 0.931 . S
C913 C912 1.391 . S
C913 C917 1.376 . S
C914 C912 1.394 . S
C914 C915 1.369 . S
C914 C918 1.531 . S
C915 C914 1.369 . S
C915 C916 1.410 . S
C915 C923 1.503 . S
C916 C915 1.410 . S
C916 C917 1.392 . S
C916 C919 1.511 . S
C917 C913 1.376 . S
C917 C916 1.392 . S
C917 H929 0.929 . S
C918 C914 1.531 . S
C918 H930 0.960 . S
C918 H931 0.962 . S
C918 H932 0.960 . S
C919 C916 1.511 . S
C919 H933 0.961 1_455 S
C919 H934 0.962 1_455 S
C919 H935 0.961 1_455 S
C920 C921 1.370 . S
C920 C922 1.363 . S
C920 H936 0.931 . S
C921 C920 1.370 . S
C921 C925 1.408 . S
C922 C920 1.363 . S
C922 C923 1.370 . S
C922 C926 1.524 . S
C923 C915 1.503 . S
C923 C922 1.370 . S
C923 C924 1.403 . S
C924 C923 1.403 . S
C924 C925 1.404 . S
C924 C927 1.539 . S
C925 C921 1.408 . S
C925 C924 1.404 . S
C925 H937 0.930 . S
C926 C922 1.524 . S
C926 H938 0.956 . S
C926 H939 0.961 . S
C926 H940 0.961 . S
C927 C924 1.539 . S
C927 H941 0.958 . S
C927 H942 0.961 . S
C927 H943 0.960 . S
H928 C912 0.931 . S
H929 C917 0.929 . S
H930 C918 0.960 . S
H931 C918 0.962 . S
H932 C918 0.960 . S
H933 C919 0.961 1_655 S
H934 C919 0.962 1_655 S
H935 C919 0.961 1_655 S
H936 C920 0.931 . S
H937 C925 0.930 . S
H938 C926 0.956 . S
H939 C926 0.961 . S
H940 C926 0.961 . S
H941 C927 0.958 . S
H942 C927 0.961 . S
H943 C927 0.960 . S
C944 C945 1.391 . S
C944 C946 1.394 . S
C944 H960 0.931 . S
C945 C944 1.391 . S
C945 C949 1.376 . S
C946 C944 1.394 . S
C946 C947 1.369 . S
C946 C950 1.531 . S
C947 C946 1.369 . S
C947 C948 1.410 . S
C947 C955 1.503 . S
C948 C947 1.410 . S
C948 C949 1.392 . S
C948 C951 1.511 . S
C949 C945 1.376 . S
C949 C948 1.392 . S
C949 H961 0.929 . S
C950 C946 1.531 . S
C950 H962 0.960 . S
C950 H963 0.962 . S
C950 H964 0.960 . S
C951 C948 1.511 . S
C951 H965 0.961 . S
C951 H966 0.961 . S
C951 H967 0.961 . S
C952 C953 1.370 . S
C952 C954 1.363 . S
C952 H968 0.931 . S
C953 C952 1.370 . S
C953 C957 1.408 . S
C954 C952 1.363 . S
C954 C955 1.370 . S
C954 C958 1.524 . S
C955 C947 1.503 . S
C955 C954 1.370 . S
C955 C956 1.403 . S
C956 C955 1.403 . S
C956 C957 1.404 . S
C956 C959 1.539 . S
C957 C953 1.408 . S
C957 C956 1.404 . S
C957 H969 0.930 . S
C958 C954 1.524 . S
C958 H970 0.956 . S
C958 H971 0.961 . S
C958 H972 0.961 . S
C959 C956 1.539 . S
C959 H973 0.958 . S
C959 H974 0.961 . S
C959 H975 0.960 . S
H960 C944 0.931 . S
H961 C949 0.929 . S
H962 C950 0.960 . S
H963 C950 0.962 . S
H964 C950 0.960 . S
H965 C951 0.961 . S
H966 C951 0.961 . S
H967 C951 0.961 . S
H968 C952 0.931 . S
H969 C957 0.930 . S
H970 C958 0.956 . S
H971 C958 0.961 . S
H972 C958 0.961 . S
H973 C959 0.958 . S
H974 C959 0.961 . S
H975 C959 0.960 . S
C209 C4 2.293 . S
C217 C104 2.316 . S
C241 C16 1.399 . S
C249 N124 1.384 . S
C281 C158 1.578 . S
C273 C32 1.558 . S
C305 C43 1.150 . S
C313 N192 1.098 . S
C345 C145 2.757 . S
C337 C5 2.731 . S
C377 N102 0.954 1_565 S
C369 C21 0.920 . S
C409 C179 1.812 1_556 S
C401 C27 1.791 . S
C441 N154 0.909 . S
C433 C37 0.913 . S
C465 C10 1.817 . S
C473 C194 1.826 . S
C505 C128 1.763 . S
C497 C26 1.756 . S
C529 C38 1.150 . S
C537 C89 1.136 . S
C561 C15 1.574 . S
C569 C175 1.598 . S
C601 C115 2.445 1_565 S
C593 C48 2.427 . S
C625 C59 1.198 . S
C633 N132 1.175 . S
C657 C76 1.843 . S
C665 C149 1.871 . S
C689 C87 1.031 . S
C697 N184 0.962 . S
C721 C54 2.103 . S
C729 C134 2.138 . S
C761 N94 1.500 . S
C753 C60 1.470 . S
C793 C188 1.861 . S
C785 C71 1.824 . S
C825 N162 0.925 . S
C817 C82 0.918 . S
C849 C49 2.060 . S
C857 C205 2.064 1_656 S
C889 C119 1.406 . S
C881 C70 1.382 . S
C921 C98 1.482 . S
C913 C81 1.462 . S
C945 C65 1.410 . S
C953 C164 1.424 . S
