# Generated by pormake.
# Topology zzz, (3,6)-cn, num edge types: 1
# Building blocks:
#     Node 0, Type 0, BuildingBlock: BETDAH_clean_linker_0, # of connection points: 3
#     Node 1, Type 0, BuildingBlock: BETDAH_clean_linker_0, # of connection points: 3
#     Node 2, Type 0, BuildingBlock: BETDAH_clean_linker_0, # of connection points: 3
#     Node 3, Type 0, BuildingBlock: BETDAH_clean_linker_0, # of connection points: 3
#     Node 4, Type 0, BuildingBlock: BETDAH_clean_linker_0, # of connection points: 3
#     Node 5, Type 0, BuildingBlock: BETDAH_clean_linker_0, # of connection points: 3
#     Node 6, Type 0, BuildingBlock: BETDAH_clean_linker_0, # of connection points: 3
#     Node 7, Type 0, BuildingBlock: BETDAH_clean_linker_0, # of connection points: 3
#     Node 8, Type 1, BuildingBlock: KUMJIN_clean_sbu_0, # of connection points: 6
#     Node 9, Type 1, BuildingBlock: KUMJIN_clean_sbu_0, # of connection points: 6
#     Node 10, Type 1, BuildingBlock: KUMJIN_clean_sbu_0, # of connection points: 6
#     Node 11, Type 1, BuildingBlock: KUMJIN_clean_sbu_0, # of connection points: 6
#     Edge 12, Type (0, 1), BuildingBlock: OJICUG_clean_linker_0, # of connection points: 2
#     Edge 13, Type (0, 1), BuildingBlock: OJICUG_clean_linker_0, # of connection points: 2
#     Edge 14, Type (0, 1), BuildingBlock: OJICUG_clean_linker_0, # of connection points: 2
#     Edge 15, Type (0, 1), BuildingBlock: OJICUG_clean_linker_0, # of connection points: 2
#     Edge 16, Type (0, 1), BuildingBlock: OJICUG_clean_linker_0, # of connection points: 2
#     Edge 17, Type (0, 1), BuildingBlock: OJICUG_clean_linker_0, # of connection points: 2
#     Edge 18, Type (0, 1), BuildingBlock: OJICUG_clean_linker_0, # of connection points: 2
#     Edge 19, Type (0, 1), BuildingBlock: OJICUG_clean_linker_0, # of connection points: 2
#     Edge 20, Type (0, 1), BuildingBlock: OJICUG_clean_linker_0, # of connection points: 2
#     Edge 21, Type (0, 1), BuildingBlock: OJICUG_clean_linker_0, # of connection points: 2
#     Edge 22, Type (0, 1), BuildingBlock: OJICUG_clean_linker_0, # of connection points: 2
#     Edge 23, Type (0, 1), BuildingBlock: OJICUG_clean_linker_0, # of connection points: 2
#     Edge 24, Type (0, 1), BuildingBlock: OJICUG_clean_linker_0, # of connection points: 2
#     Edge 25, Type (0, 1), BuildingBlock: OJICUG_clean_linker_0, # of connection points: 2
#     Edge 26, Type (0, 1), BuildingBlock: OJICUG_clean_linker_0, # of connection points: 2
#     Edge 27, Type (0, 1), BuildingBlock: OJICUG_clean_linker_0, # of connection points: 2
#     Edge 28, Type (0, 1), BuildingBlock: OJICUG_clean_linker_0, # of connection points: 2
#     Edge 29, Type (0, 1), BuildingBlock: OJICUG_clean_linker_0, # of connection points: 2
#     Edge 30, Type (0, 1), BuildingBlock: OJICUG_clean_linker_0, # of connection points: 2
#     Edge 31, Type (0, 1), BuildingBlock: OJICUG_clean_linker_0, # of connection points: 2
#     Edge 32, Type (0, 1), BuildingBlock: OJICUG_clean_linker_0, # of connection points: 2
#     Edge 33, Type (0, 1), BuildingBlock: OJICUG_clean_linker_0, # of connection points: 2
#     Edge 34, Type (0, 1), BuildingBlock: OJICUG_clean_linker_0, # of connection points: 2
#     Edge 35, Type (0, 1), BuildingBlock: OJICUG_clean_linker_0, # of connection points: 2
# Relax obj value: 0.235
# Max RMSD: 0.184
# Mean RMSD: 0.120
data_MOF--net-zzz--node1-KUMJIN_clean_sbu_0--node2-BETDAH_clean_linker_0--edge1-OJICUG_clean_linker_0
_symmetry_space_group_name_H-M    P1
_symmetry_Int_Tables_number       1
_symmetry_cell_setting            triclinic
loop_
_symmetry_equiv_pos_as_xyz
'x, y, z'
_cell_length_a     36.101947
_cell_length_b     36.162885
_cell_length_c     10.92094
_cell_angle_alpha  91.793306
_cell_angle_beta   89.569124
_cell_angle_gamma 89.883295
loop_
_atom_site_label
_atom_site_type_symbol
_atom_site_fract_x
_atom_site_fract_y
_atom_site_fract_z
_atom_type_partial_charge
H0 H 0.84102 0.62934 0.30871 0.0
H1 H 0.73117 0.60875 0.17666 0.0
H2 H 0.77881 0.53809 0.44419 0.0
C3 C 0.81591 0.61315 0.30881 0.0
C4 C 0.81467 0.58232 0.38397 0.0
C5 C 0.788 0.62016 0.22255 0.0
C6 C 0.75389 0.60197 0.23584 0.0
C7 C 0.74999 0.57238 0.315 0.0
C8 C 0.78081 0.56223 0.38832 0.0
N9 N 0.71662 0.55076 0.31358 0.0
C10 C 0.68733 0.55419 0.22937 0.0
H11 H 0.09787 0.8744 0.32319 0.0
H12 H 0.07332 0.7697 0.15201 0.0
H13 H 1.0124 0.80616 0.47638 0.0
C14 C 0.08259 0.84869 0.32587 0.0
C15 C 0.05573 0.84385 0.41802 0.0
C16 C 0.08935 0.82193 0.23252 0.0
C17 C 0.06809 0.78978 0.22584 0.0
C18 C 0.03995 0.78371 0.3118 0.0
C19 C 0.0338 0.8109 0.40873 0.0
N20 N 1.01765 0.75084 0.30076 0.0
C21 C 1.02246 0.72174 0.21194 0.0
H22 H 0.70296 1.01054 0.2711 0.0
H23 H 0.81778 0.99827 0.17928 0.0
H24 H 0.78464 1.02129 0.55469 0.0
C25 C 0.73141 1.00799 0.30073 0.0
C26 C 0.73944 1.01392 0.42538 0.0
C27 C 0.75974 1.00319 0.21243 0.0
C28 C 0.79654 1.00174 0.24913 0.0
C29 C 0.80632 1.009 0.37102 0.0
C30 C 0.77748 1.01476 0.46035 0.0
N31 N 0.84473 1.01341 0.40147 0.0
C32 C 0.87405 1.01317 0.31465 0.0
H33 H 0.52801 0.70634 0.27602 0.0
H34 H 0.54135 0.81788 0.16481 0.0
H35 H 0.55595 0.79137 0.54506 0.0
C36 C 0.53504 0.73482 0.29989 0.0
C37 C 0.54222 0.74483 0.4224 0.0
C38 C 0.53471 0.76115 0.20848 0.0
C39 C 0.54247 0.79809 0.23715 0.0
C40 C 0.55047 0.80969 0.35751 0.0
C41 C 0.55053 0.78274 0.45108 0.0
N42 N 0.55709 0.84823 0.38491 0.0
C43 C 0.55654 0.87625 0.2973 0.0
H44 H 0.2101 0.46143 0.13315 0.0
H45 H 0.31937 0.47165 0.28425 0.0
H46 H 0.2817 0.54816 0.01729 0.0
C47 C 0.23667 0.4751 0.13828 0.0
C48 C 0.24169 0.50634 0.06692 0.0
C49 C 0.26262 0.46483 0.2274 0.0
C50 C 0.2982 0.48064 0.22225 0.0
C51 C 0.30568 0.5106 0.1472 0.0
C52 C 0.27699 0.52375 0.07012 0.0
N53 N 0.34057 0.5296 0.15582 0.0
C54 C 0.36843 0.52344 0.24335 0.0
H55 H 0.06264 0.21271 0.2621 0.0
H56 H 0.06858 0.32956 0.32685 0.0
H57 H 1.02669 0.28553 0.98268 0.0
C58 C 0.06057 0.24024 0.22683 0.0
C59 C 0.04723 0.24438 0.10746 0.0
C60 C 0.0676 0.2709 0.3058 0.0
C61 C 0.06308 0.30649 0.26405 0.0
C62 C 0.04615 0.31251 0.15212 0.0
C63 C 0.03947 0.28129 0.07053 0.0
N64 N 0.03294 0.34911 0.12798 0.0
C65 C 0.03213 0.37892 0.21581 0.0
H66 H 0.3761 1.01583 0.17778 0.0
H67 H 0.26366 1.02471 0.29598 0.0
H68 H 0.2926 0.04809 0.92067 0.0
C69 C 0.34765 1.02232 0.15545 0.0
C70 C 0.33856 0.03157 0.03545 0.0
C71 C 0.32069 1.01965 0.24717 0.0
C72 C 0.28385 1.02747 0.22298 0.0
C73 C 0.27305 0.03851 0.10676 0.0
C74 C 0.30068 0.04054 1.01183 0.0
N75 N 0.2347 0.04671 0.08532 0.0
C76 C 0.2067 0.0455 0.17652 0.0
H77 H 0.52031 0.36177 0.2057 0.0
H78 H 0.50661 0.24971 0.31108 0.0
H79 H 0.49995 0.27678 0.92887 0.0
C80 C 0.5142 0.33322 0.17979 0.0
C81 C 0.50985 0.32337 0.05559 0.0
C82 C 0.51316 0.30667 0.27057 0.0
C83 C 0.50663 0.26966 0.23918 0.0
C84 C 0.50166 0.25812 0.11694 0.0
C85 C 0.50301 0.28532 0.02414 0.0
N86 N 0.49684 0.21942 0.08729 0.0
C87 C 0.49755 0.19106 0.17378 0.0
Eu88 Eu 0.0821 0.03391 0.87142 0.0
C89 C 0.93886 0.99438 0.5954 0.0
C90 C 0.95873 0.95158 0.43282 0.0
C91 C 0.89616 0.94786 0.51406 0.0
C92 C 0.96641 0.9812 0.51653 0.0
C93 C 0.90328 0.97815 0.59373 0.0
C94 C 0.92371 0.93482 0.43306 0.0
C95 C 0.8829 1.02527 0.7406 0.0
N96 N 0.94629 1.02393 0.67059 0.0
C97 C 0.91839 0.04055 0.73858 0.0
C98 C 0.87545 0.99357 0.6693 0.0
Eu99 Eu 1.00765 0.04808 0.6654 0.0
N100 N 1.00043 0.99738 0.52032 0.0
C101 C 1.02773 0.9848 0.44158 0.0
C102 C 0.98647 0.93949 0.35117 0.0
C103 C 1.02111 0.95616 0.3558 0.0
H104 H 0.92399 0.06512 0.79421 0.0
H105 H 0.04305 0.94658 0.29447 0.0
H106 H 0.91756 0.91193 0.37014 0.0
H107 H 0.86133 0.03799 0.79708 0.0
H108 H 0.0552 0.99571 0.44434 0.0
H109 H 0.0414 0.05304 0.34908 0.0
H110 H 0.98159 0.91698 0.28545 0.0
H111 H 0.12992 0.09346 0.69174 0.0
H112 H 0.05776 1.01596 0.16648 0.0
H113 H 0.16109 0.15291 0.70944 0.0
H114 H 0.86906 0.93503 0.51185 0.0
H115 H 0.06584 0.11688 0.37788 0.0
H116 H 0.10729 0.16616 0.2995 0.0
H117 H 0.84783 0.98189 0.67034 0.0
H118 H 0.14101 0.19264 0.1267 0.0
N119 N 0.07923 0.06208 0.07165 0.0
C120 C 0.06585 0.04475 0.17226 0.0
C121 C 0.07063 0.10141 0.29274 0.0
C122 C 0.09095 0.11664 0.19783 0.0
C123 C 0.05797 0.06521 0.27921 0.0
C124 C 0.0937 0.0966 0.08511 0.0
H125 H 0.16111 0.18794 0.90723 0.0
N126 N 0.11079 0.09349 0.87648 0.0
C127 C 0.14713 0.14185 0.78829 0.0
C128 C 0.11148 0.11195 0.98667 0.0
C129 C 0.12885 0.10788 0.77832 0.0
C130 C 0.14726 0.16142 0.90003 0.0
C131 C 0.12919 0.14668 1.00089 0.0
O132 O 0.14183 1.02729 0.84955 0.0
O133 O 0.05015 1.00685 0.7165 0.0
O134 O 0.98221 1.02122 0.83333 0.0
O135 O 1.0273 0.02932 0.98084 0.0
O136 O 0.05908 0.97478 0.86394 0.0
O137 O 0.11285 0.99633 0.98614 0.0
O138 O 0.96359 0.07788 0.57162 0.0
O139 O 0.0473 0.07856 0.79358 0.0
O140 O 0.10857 0.03109 0.68014 0.0
O141 O 0.06195 0.05132 0.55277 0.0
O142 O 0.99176 0.08934 0.8201 0.0
O143 O 1.02009 0.09352 0.54587 0.0
C144 C 0.04446 0.97465 0.7561 0.0
C145 C 0.16144 0.96572 0.87664 0.0
C146 C 0.16968 0.89936 0.89489 0.0
C147 C 0.15851 0.9338 0.94465 0.0
C148 C 0.18542 0.8969 0.77735 0.0
C149 C 0.17831 0.96329 0.75985 0.0
C150 C 0.19042 0.92903 0.71112 0.0
C151 C 0.99271 1.02186 0.94886 0.0
C152 C 0.14368 1.00014 0.92452 0.0
C153 C 0.12774 0.16596 0.11436 0.0
C154 C 0.10832 0.15108 0.2123 0.0
C155 C 1.02443 0.09875 0.85516 0.0
C156 C 0.97836 0.14134 0.59422 0.0
C157 C 1.00527 0.16842 0.57926 0.0
C158 C 1.00566 0.20074 0.65386 0.0
C159 C 0.97693 0.20697 0.73945 0.0
C160 C 0.94941 0.14809 0.67916 0.0
C161 C 0.94875 0.18083 0.75094 0.0
C162 C 0.097 0.04193 0.57237 0.0
C163 C 0.98577 0.10409 0.54049 0.0
H164 H 0.14522 0.9353 0.03419 0.0
H165 H 0.19337 0.87031 0.73685 0.0
H166 H 0.18117 0.98751 0.70466 0.0
H167 H 0.20266 0.92725 0.62034 0.0
H168 H 1.02672 0.16356 0.51056 0.0
H169 H 0.97627 0.23195 0.79682 0.0
H170 H 0.92821 0.12754 0.69392 0.0
H171 H 0.92673 0.1856 0.8174 0.0
Eu172 Eu 0.54237 0.07565 0.83793 0.0
C173 C 0.59979 0.94396 0.49828 0.0
C174 C 0.6206 0.97457 0.31695 0.0
C175 C 0.64481 0.9139 0.36018 0.0
C176 C 0.59792 0.97377 0.42349 0.0
C177 C 0.6237 0.91387 0.46839 0.0
C178 C 0.64322 0.94421 0.28447 0.0
C179 C 0.60509 0.88592 0.65603 0.0
N180 N 0.57993 0.94517 0.60402 0.0
C181 C 0.58206 0.91627 0.68193 0.0
C182 C 0.62604 0.88468 0.54868 0.0
Eu183 Eu 0.53687 0.9948 0.64004 0.0
N184 N 0.57712 1.00348 0.46141 0.0
C185 C 0.58298 0.03631 0.404 0.0
C186 C 0.62161 1.00662 0.24959 0.0
C187 C 0.60363 0.03802 0.29564 0.0
H188 H 0.56554 0.91583 0.76431 0.0
H189 H 0.60684 0.06406 0.25049 0.0
H190 H 0.66037 0.94432 0.20268 0.0
H191 H 0.60639 0.86335 0.71866 0.0
H192 H 0.57408 0.06228 0.44357 0.0
H193 H 0.4311 0.05741 0.17914 0.0
H194 H 0.63832 1.00816 0.16706 0.0
H195 H 0.56501 0.15384 0.69729 0.0
H196 H 0.48742 0.04111 0.06783 0.0
H197 H 0.53824 0.21533 0.65941 0.0
H198 H 0.66293 0.89091 0.33535 0.0
H199 H 0.39695 0.11438 0.13301 0.0
H200 H 0.39318 0.17242 1.01581 0.0
H201 H 0.6439 0.8611 0.52865 0.0
H202 H 0.42195 0.2152 0.8731 0.0
N203 N 0.48679 0.08811 0.95342 0.0
C204 C 0.47358 0.06602 0.04355 0.0
C205 C 0.42206 0.1074 0.08237 0.0
C206 C 0.43606 0.13067 0.99353 0.0
C207 C 0.44119 0.0752 0.10847 0.0
C208 C 0.46906 0.12042 0.93051 0.0
H209 H 0.47628 0.23178 0.74242 0.0
N210 N 0.51808 0.13518 0.79712 0.0
C211 C 0.52286 0.19561 0.71221 0.0
C212 C 0.48514 0.14456 0.84989 0.0
C213 C 0.53789 0.1608 0.73376 0.0
C214 C 0.48785 0.20473 0.75887 0.0
C215 C 0.46884 0.17944 0.83054 0.0
O216 O 0.56675 0.12319 0.93771 0.0
O217 O 0.57663 0.03271 0.73263 0.0
O218 O 0.56687 0.98306 0.82043 0.0
O219 O 0.53788 1.02385 0.95478 0.0
O220 O 0.59017 0.08681 0.70441 0.0
O221 O 0.58234 0.06856 0.98478 0.0
O222 O 0.51 0.95079 0.73779 0.0
O223 O 0.50602 0.02875 0.78496 0.0
O224 O 0.52063 0.09337 0.65089 0.0
O225 O 0.51699 0.04177 0.51604 0.0
O226 O 0.47719 1.01622 0.62793 0.0
O227 O 0.50776 0.95014 0.54019 0.0
C228 C 0.59991 0.05311 0.68045 0.0
C229 C 0.63055 0.10998 0.944 0.0
C230 C 0.68928 0.08085 0.88507 0.0
C231 C 0.65645 0.08163 0.95467 0.0
C232 C 0.69751 0.11068 0.8104 0.0
C233 C 0.63933 0.14002 0.87013 0.0
C234 C 0.67274 0.14034 0.80433 0.0
C235 C 0.55429 0.99146 0.93223 0.0
C236 C 0.59219 0.10307 0.98534 0.0
C237 C 0.435 0.1887 0.88771 0.0
C238 C 0.41867 0.16438 0.96916 0.0
C239 C 0.47446 0.03195 0.7357 0.0
C240 C 0.45648 0.92644 0.65278 0.0
C241 C 0.43041 0.94659 0.58892 0.0
C242 C 0.39263 0.94463 0.61859 0.0
C243 C 0.38066 0.92014 0.70774 0.0
C244 C 0.44437 0.90211 0.7424 0.0
C245 C 0.40655 0.89873 0.76874 0.0
C246 C 0.51338 0.07814 0.5414 0.0
C247 C 0.49609 0.93485 0.64049 0.0
H248 H 0.65026 0.05935 1.01568 0.0
H249 H 0.72303 0.11114 0.7577 0.0
H250 H 0.61976 0.16235 0.85868 0.0
H251 H 0.67906 0.16325 0.7463 0.0
H252 H 0.43961 0.96466 0.51752 0.0
H253 H 0.35155 0.91795 0.73107 0.0
H254 H 0.46422 0.88658 0.79428 0.0
H255 H 0.39739 0.88014 0.83852 0.0
Eu256 Eu 0.56901 0.52667 0.64834 0.0
C257 C 0.45692 0.47861 0.01821 0.0
C258 C 0.40314 0.44883 0.92641 0.0
C259 C 0.42866 0.42517 0.11301 0.0
C260 C 0.43135 0.47587 0.92424 0.0
C261 C 0.45638 0.45228 0.11142 0.0
C262 C 0.40164 0.42394 0.0222 0.0
C263 C 0.51047 0.48124 0.19742 0.0
N264 N 0.48361 0.50527 1.01455 0.0
C265 C 0.50932 0.50742 0.10628 0.0
C266 C 0.48431 0.45321 0.19892 0.0
Eu267 Eu 0.48552 0.54127 0.83215 0.0
N268 N 0.43574 0.49776 0.82598 0.0
C269 C 0.41073 0.4959 0.73252 0.0
C270 C 0.37797 0.44664 0.82988 0.0
C271 C 0.38165 0.4705 0.73295 0.0
H272 H 0.52983 0.52854 0.11155 0.0
H273 H 0.36217 0.46927 0.65806 0.0
H274 H 0.38037 0.40288 0.02475 0.0
H275 H 0.53186 0.48263 0.26629 0.0
H276 H 0.41249 0.51439 0.65766 0.0
H277 H 0.69591 0.59044 0.83073 0.0
H278 H 0.35582 0.42647 0.82882 0.0
H279 H 0.52442 0.54612 0.37651 0.0
H280 H 0.64289 0.54862 0.82751 0.0
H281 H 0.5267 0.59203 0.2212 0.0
H282 H 0.4279 0.40498 0.1843 0.0
H283 H 0.70588 0.6331 0.66146 0.0
H284 H 0.68403 0.65853 0.46485 0.0
H285 H 0.48558 0.43272 0.26915 0.0
H286 H 0.63699 0.66033 0.30415 0.0
N287 N 0.62115 0.56743 0.6596 0.0
C288 C 0.64591 0.56738 0.75387 0.0
C289 C 0.68234 0.61456 0.65922 0.0
C290 C 0.65745 0.61433 0.56185 0.0
C291 C 0.67663 0.59079 0.75531 0.0
C292 C 0.62737 0.58934 0.56245 0.0
H293 H 0.5773 0.63756 0.21847 0.0
N294 N 0.57329 0.56424 0.47031 0.0
C295 C 0.54823 0.59127 0.28952 0.0
C296 C 0.60203 0.58868 0.46758 0.0
C297 C 0.54708 0.56493 0.38022 0.0
C298 C 0.57686 0.61681 0.28797 0.0
C299 C 0.60475 0.61517 0.37527 0.0
O300 O 0.5997 0.48669 0.53169 0.0
O301 O 0.50753 0.53394 0.64368 0.0
O302 O 0.491 0.47992 0.77756 0.0
O303 O 0.55445 0.47899 0.77854 0.0
O304 O 0.52824 0.49771 0.5133 0.0
O305 O 0.616 0.49729 0.72002 0.0
O306 O 0.45106 0.57906 0.94461 0.0
O307 O 0.54707 0.53466 0.83747 0.0
O308 O 0.56421 0.58838 0.6976 0.0
O309 O 0.5005 0.59045 0.70826 0.0
O310 O 0.52571 0.57256 0.96259 0.0
O311 O 0.43836 0.56861 0.75293 0.0
C312 C 0.49789 0.51226 0.5573 0.0
C313 C 0.62193 0.43671 0.64905 0.0
C314 C 0.592 0.37642 0.64412 0.0
C315 C 0.59442 0.41291 0.60468 0.0
C316 C 0.618 0.36367 0.72819 0.0
C317 C 0.64782 0.42367 0.73289 0.0
C318 C 0.64581 0.38729 0.77214 0.0
C319 C 0.52225 0.46159 0.79117 0.0
C320 C 0.62053 0.47628 0.62246 0.0
C321 C 0.63451 0.64006 0.37481 0.0
C322 C 0.66121 0.63914 0.46645 0.0
C323 C 0.55623 0.55771 0.92077 0.0
C324 C 0.42787 0.62836 0.82681 0.0
C325 C 0.45425 0.65312 0.87309 0.0
C326 C 0.4547 0.69006 0.8375 0.0
C327 C 0.42792 0.70227 0.75529 0.0
C328 C 0.40126 0.64079 0.74443 0.0
C329 C 0.40131 0.67762 0.70902 0.0
C330 C 0.5329 0.60705 0.68921 0.0
C331 C 0.43113 0.58876 0.8508 0.0
H332 H 0.57483 0.4229 0.53866 0.0
H333 H 0.61682 0.33559 0.75961 0.0
H334 H 0.66894 0.44192 0.77032 0.0
H335 H 0.66566 0.37748 0.83748 0.0
H336 H 0.47452 0.64353 0.93761 0.0
H337 H 0.42757 0.73071 0.72706 0.0
H338 H 0.38103 0.6218 0.70548 0.0
H339 H 0.38086 0.68701 0.64499 0.0
Eu340 Eu 0.04699 0.58294 0.61681 0.0
C341 C 0.05224 0.43748 0.88123 0.0
C342 C 0.03076 0.39212 0.73036 0.0
C343 C 0.07717 0.37489 0.87832 0.0
C344 C 0.03125 0.42875 0.77873 0.0
C345 C 0.07474 0.41038 0.93393 0.0
C346 C 0.05488 0.36564 0.77746 0.0
C347 C 0.08451 0.45275 0.10601 0.0
N348 N 0.04768 0.47132 0.93661 0.0
C349 C 0.06057 0.47798 0.05272 0.0
C350 C 0.0924 0.41913 0.04481 0.0
Eu351 Eu 1.01316 0.515 0.82622 0.0
N352 N 1.00805 0.45488 0.73564 0.0
C353 C 0.98047 0.44504 0.65615 0.0
C354 C 1.00442 0.38265 0.64153 0.0
C355 C 0.97862 0.40899 0.60639 0.0
H356 H 0.05404 0.50364 0.10141 0.0
H357 H 0.95735 0.4016 0.54079 0.0
H358 H 0.05536 0.33754 0.73997 0.0
H359 H 0.09644 0.45904 0.19487 0.0
H360 H 0.96023 0.46504 0.6286 0.0
H361 H 0.10277 0.69535 0.90765 0.0
H362 H 1.00261 0.35472 0.60385 0.0
H363 H 1.00624 0.5952 0.34347 0.0
H364 H 0.09977 0.63212 0.81696 0.0
H365 H 0.96429 0.6403 0.25026 0.0
H366 H 0.09454 0.3538 0.91687 0.0
H367 H 0.05746 0.74267 0.84692 0.0
H368 H 1.0054 0.76054 0.70876 0.0
H369 H 0.11021 0.39923 0.08769 0.0
H370 H 0.96631 0.74489 0.53106 0.0
N371 N 0.05233 0.64298 0.70909 0.0
C372 C 0.0798 0.65244 0.78959 0.0
C373 C 0.05599 0.71493 0.80676 0.0
C374 C 0.02985 0.70586 0.71676 0.0
C375 C 0.08169 0.68833 0.84099 0.0
C376 C 0.0293 0.66937 0.66699 0.0
H377 H 0.95052 0.69986 0.359 0.0
N378 N 1.01259 0.62719 0.50884 0.0
C379 C 0.97614 0.64634 0.3394 0.0
C380 C 1.00824 0.66096 0.56468 0.0
C381 C 0.99982 0.62083 0.39253 0.0
C382 C 0.96829 0.67983 0.4014 0.0
C383 C 0.98591 0.68828 0.51254 0.0
O384 O 0.08238 0.56398 0.46372 0.0
O385 O 0.03935 0.52149 0.64004 0.0
O386 O 0.07595 0.51454 0.85055 0.0
O387 O 0.09457 0.56716 0.74838 0.0
O388 O 1.02595 0.54266 0.47086 0.0
O389 O 0.09308 0.61659 0.55284 0.0
O390 O 0.97416 0.53704 0.96427 0.0
O391 O 1.02099 0.57614 0.80246 0.0
O392 O 0.98383 0.5833 0.59451 0.0
O393 O 0.96631 0.5293 0.69112 0.0
O394 O 0.03448 0.55552 0.97191 0.0
O395 O 0.96991 0.48022 0.90373 0.0
C396 C 1.02768 0.51273 0.53218 0.0
C397 C 0.14507 0.58192 0.48664 0.0
C398 C 0.1952 0.53647 0.50025 0.0
C399 C 0.15722 0.54492 0.48997 0.0
C400 C 0.22061 0.56612 0.50835 0.0
C401 C 0.17101 0.61064 0.49501 0.0
C402 C 0.2085 0.60271 0.50667 0.0
C403 C 0.10144 0.53924 0.82178 0.0
C404 C 0.10549 0.5912 0.47656 0.0
C405 C 0.9836 0.72365 0.56904 0.0
C406 C 1.00584 0.73255 0.67034 0.0
C407 C 0.03263 0.58532 0.90978 0.0
C408 C 0.91377 0.51225 0.94501 0.0
C409 C 0.89754 0.54775 0.94852 0.0
C410 C 0.85915 0.55256 0.9301 0.0
C411 C 0.83756 0.52046 0.90765 0.0
C412 C 0.89144 0.48117 0.92239 0.0
C413 C 0.85366 0.48537 0.90299 0.0
C414 C 0.95884 0.55765 0.62035 0.0
C415 C 0.95395 0.50745 0.96399 0.0
H416 H 0.13698 0.52293 0.4865 0.0
H417 H 0.25017 0.56145 0.51194 0.0
H418 H 0.16221 0.63928 0.4927 0.0
H419 H 0.2284 0.62505 0.51237 0.0
H420 H 0.91527 0.57138 0.96388 0.0
H421 H 0.80788 0.5217 0.89718 0.0
H422 H 0.90321 0.45357 0.91963 0.0
H423 H 0.83658 0.46119 0.88623 0.0
C424 C 0.16696 0.0772 0.33696 0.0
C425 C 0.17844 0.04449 0.27465 0.0
H426 H 0.13229 0.10217 0.47795 0.0
C427 C 0.16286 1.01083 0.3109 0.0
H428 H 0.17841 0.10357 0.31158 0.0
C429 C 0.13652 1.00997 0.40724 0.0
C430 C 0.1247 0.04278 0.46885 0.0
H431 H 0.17122 0.9851 0.26522 0.0
H432 H 0.12528 0.98358 0.43338 0.0
C433 C 0.14056 0.07635 0.43279 0.0
C434 C 0.51374 0.12645 0.23225 0.0
C435 C 0.4987 0.1614 0.2636 0.0
H436 H 0.5272 0.07178 0.28952 0.0
C437 C 0.48518 0.16729 0.38364 0.0
H438 H 0.52457 0.12106 0.14099 0.0
C439 C 0.48801 0.13946 0.47095 0.0
C440 C 0.50421 0.1047 0.44127 0.0
H441 H 0.47302 0.19372 0.41102 0.0
H442 H 0.47776 0.14536 0.56277 0.0
C443 C 0.51557 0.09819 0.31855 0.0
C444 C 0.41744 0.55224 0.37603 0.0
C445 C 0.3993 0.52034 0.33036 0.0
H446 H 0.46205 0.57478 0.48472 0.0
C447 C 0.41242 0.48571 0.36672 0.0
H448 H 0.40802 0.57936 0.35037 0.0
C449 C 0.44399 0.48301 0.44191 0.0
C450 C 0.46263 0.51492 0.48551 0.0
H451 H 0.39876 0.46063 0.33482 0.0
H452 H 0.4539 0.45591 0.46588 0.0
C453 C 0.44841 0.5496 0.4534 0.0
C454 C 1.00343 0.43868 0.28856 0.0
C455 C 0.03034 0.41111 0.3031 0.0
H456 H 0.98155 0.49142 0.34978 0.0
C457 C 0.056 0.41622 0.3993 0.0
H458 H 0.98355 0.43603 0.21498 0.0
C459 C 0.05481 0.44825 0.47802 0.0
C460 C 1.02769 0.47587 0.463 0.0
H461 H 0.07743 0.39577 0.4125 0.0
H462 H 0.07554 0.45179 0.54853 0.0
C463 C 1.0023 0.4705 0.36634 0.0
C464 C 0.90207 0.99479 0.11039 0.0
C465 C 0.90472 1.01363 0.22474 0.0
H466 H 0.92756 0.98212 0.93503 0.0
C467 C 0.9372 0.03378 0.2497 0.0
H468 H 0.87752 0.97888 0.08804 0.0
C469 C 0.96596 0.03563 0.16187 0.0
C470 C 0.96336 1.01718 0.04653 0.0
H471 H 0.94011 0.04878 0.3365 0.0
H472 H 0.98951 0.05292 0.18256 0.0
C473 C 0.93087 0.99664 0.02248 0.0
C474 C 0.53288 0.93657 0.22084 0.0
C475 C 0.55654 0.90574 0.20695 0.0
H476 H 0.51393 0.98773 0.1481 0.0
C477 C 0.58066 0.90417 0.10522 0.0
H478 H 0.51403 0.93875 0.29823 0.0
C479 C 0.58084 0.93246 0.01897 0.0
C480 C 0.55656 0.96305 0.03073 0.0
H481 H 0.59961 0.88108 0.09255 0.0
H482 H 0.6002 0.93034 0.94299 0.0
C483 C 0.53298 0.96485 0.1345 0.0
C484 C 0.64236 0.58872 0.10005 0.0
C485 C 0.65566 0.55517 0.14494 0.0
H486 H 0.60014 0.616 0.99644 0.0
C487 C 0.63716 0.52237 0.10973 0.0
H488 H 0.65623 0.61443 0.12401 0.0
C489 C 0.60577 0.52312 0.03367 0.0
C490 C 0.59148 0.55683 0.99275 0.0
H491 H 0.64675 0.49603 0.14213 0.0
H492 H 0.59201 0.49734 1.00962 0.0
C493 C 0.61026 0.58963 0.02679 0.0
C494 C 0.05331 0.66209 0.14872 0.0
C495 C 1.02602 0.6889 0.12825 0.0
H496 H 0.07658 0.60914 0.09599 0.0
C497 C 1.00094 0.68197 0.03158 0.0
H498 H 0.0726 0.66607 0.22347 0.0
C499 C 1.00327 0.6491 0.95732 0.0
C500 C 0.03089 0.62237 0.97759 0.0
H501 H 0.97915 0.70172 1.0144 0.0
H502 H 0.98312 0.64433 0.88562 0.0
C503 C 0.0555 0.62934 0.07548 0.0
C504 C 0.08551 0.23572 0.48849 0.0
C505 C 0.0671 0.26584 0.4392 0.0
H506 H 0.08048 0.19102 0.60899 0.0
C507 C 0.03814 0.283 0.50698 0.0
H508 H 0.1088 0.22291 0.4405 0.0
C509 C 1.0215 0.26453 0.60245 0.0
C510 C 0.03393 0.22902 0.62879 0.0
H511 H 1.02386 0.30683 0.47265 0.0
H512 H 0.99519 0.27486 0.63768 0.0
C513 C 0.06919 0.21759 0.5856 0.0
C514 C 0.3592 1.02292 0.43331 0.0
C515 C 0.33123 1.00527 0.36585 0.0
H516 H 0.39991 1.01751 0.57143 0.0
C517 C 0.31802 0.97066 0.40084 0.0
H518 H 0.36945 0.04978 0.4078 0.0
C519 C 0.33573 0.95191 0.49365 0.0
C520 C 0.36659 0.96786 0.55175 0.0
H521 H 0.29634 0.95675 0.34916 0.0
H522 H 0.32756 0.92377 0.51153 0.0
C523 C 0.37652 1.00445 0.52666 0.0
C524 C 0.55663 0.2997 0.44252 0.0
C525 C 0.52525 0.31703 0.39506 0.0
H526 H 0.60286 0.30532 0.56204 0.0
C527 C 0.51055 0.34855 0.45531 0.0
H528 H 0.56828 0.27516 0.39751 0.0
C529 C 0.52991 0.36539 0.55143 0.0
C530 C 0.56466 0.35144 0.58541 0.0
H531 H 0.48598 0.36192 0.42108 0.0
H532 H 0.51974 0.39153 0.58937 0.0
C533 C 0.57636 0.3169 0.53729 0.0
C534 C 0.26534 0.46214 0.45288 0.0
C535 C 0.24891 0.44804 0.3445 0.0
H536 H 0.26031 0.50536 0.59059 0.0
C537 C 0.21037 0.44278 0.35465 0.0
H538 H 0.29487 0.4599 0.46731 0.0
C539 C 0.18998 0.47052 0.41723 0.0
C540 C 0.20905 0.49748 0.48867 0.0
H541 H 0.19605 0.42506 0.28882 0.0
H542 H 0.1609 0.47307 0.3962 0.0
C543 C 0.24562 0.48878 0.52256 0.0
C544 C 0.15133 0.84496 0.16871 0.0
C545 C 0.11688 0.82981 0.13609 0.0
H546 H 0.19667 0.87858 0.11248 0.0
C547 C 0.10641 0.82853 1.01236 0.0
H548 H 0.16022 0.84566 0.26332 0.0
C549 C 0.12761 0.84689 0.92581 0.0
C550 C 0.15928 0.86655 0.96273 0.0
H551 H 0.07999 0.81692 0.98496 0.0
H552 H 0.11679 0.84958 0.83418 0.0
C553 C 0.17243 0.8633 0.08238 0.0
C554 C 0.72026 0.996 0.02666 0.0
C555 C 0.75182 1.0108 0.08337 0.0
H556 H 0.67601 1.00644 0.9041 0.0
C557 C 0.76991 0.04094 0.03068 0.0
H558 H 0.70655 0.97209 0.06316 0.0
C559 C 0.75203 0.06114 0.9423 0.0
C560 C 0.7162 0.05102 0.90662 0.0
H561 H 0.79485 0.05253 0.07079 0.0
H562 H 0.7635 0.08768 0.91889 0.0
C563 C 0.70297 1.01566 0.93535 0.0
C564 C 0.53641 0.72024 0.02172 0.0
C565 C 0.52086 0.75052 0.08653 0.0
H566 H 0.52802 0.67815 0.88388 0.0
C567 C 0.48786 0.7664 0.04574 0.0
H568 H 0.56214 0.708 0.05123 0.0
C569 C 0.46792 0.74899 0.95177 0.0
C570 C 0.48106 0.71573 0.89776 0.0
H571 H 0.47557 0.78994 0.09479 0.0
H572 H 0.44053 0.75929 0.93145 0.0
C573 C 0.51686 0.70328 0.92626 0.0
C574 C 0.83633 0.64433 0.08325 0.0
C575 C 0.79872 0.6356 0.10035 0.0
H576 H 0.88777 0.62032 0.02876 0.0
C577 C 0.78181 0.61898 0.99664 0.0
H578 H 0.85001 0.66371 0.14541 0.0
C579 C 0.80294 0.59457 0.92269 0.0
C580 C 0.84089 0.58976 0.94855 0.0
H581 H 0.752 0.61799 0.98803 0.0
H582 H 0.78871 0.57703 0.85635 0.0
C583 C 0.85821 0.61892 1.01573 0.0
C584 C 1.01585 0.18147 0.08406 0.0
C585 C 0.03842 0.20908 0.03302 0.0
H586 H 0.99408 0.126 0.0698 0.0
C587 C 0.05658 0.19968 0.92142 0.0
H588 H 1.0016 0.18711 0.17028 0.0
C589 C 0.05281 0.16389 0.86507 0.0
C590 C 0.03105 0.13616 0.91819 0.0
H591 H 0.07471 0.21957 0.87963 0.0
H592 H 0.06701 0.15772 0.77956 0.0
C593 C 1.01183 0.14606 0.02704 0.0
C594 C 0.39613 1.00089 0.94472 0.0
C595 C 0.36981 0.0299 0.94103 0.0
H596 H 0.44942 0.97965 0.8883 0.0
C597 C 0.37731 0.05877 0.86042 0.0
H598 H 0.39136 0.97757 1.00262 0.0
C599 C 0.41096 0.05947 0.79218 0.0
C600 C 0.43819 0.03172 0.80446 0.0
H601 H 0.35812 0.08168 0.8546 0.0
H602 H 0.41624 0.08237 0.73294 0.0
C603 C 0.42972 1.00201 0.8792 0.0
C604 C 0.54795 0.37506 0.96777 0.0
C605 C 0.51505 0.35393 0.96512 0.0
H606 H 0.57613 0.42466 0.9166 0.0
C607 C 0.48545 0.36731 0.89569 0.0
H608 H 0.57121 0.3661 0.02157 0.0
C609 C 0.48824 0.40138 0.83563 0.0
C610 C 0.52066 0.42324 0.84302 0.0
H611 H 0.45942 0.35249 0.89334 0.0
H612 H 0.46453 0.41107 0.78566 0.0
C613 C 0.55075 0.40894 0.90781 0.0
C614 C 0.20681 0.53174 0.8813 0.0
C615 C 0.20751 0.5216 1.00496 0.0
H616 H 0.17301 0.54681 0.72862 0.0
C617 C 0.17338 0.52248 0.06951 0.0
H618 H 0.23225 0.53206 0.8282 0.0
C619 C 0.13974 0.52964 1.0108 0.0
C620 C 0.13848 0.53672 0.8852 0.0
H621 H 0.17246 0.51645 0.16607 0.0
H622 H 0.11453 0.52965 0.0646 0.0
C623 C 0.17273 0.53966 0.82312 0.0
C624 C 0.08335 0.8957 0.55285 0.0
C625 C 0.05195 0.87441 0.51805 0.0
H626 H 0.10517 0.94365 0.64834 0.0
C627 C 1.01774 0.88523 0.57234 0.0
H628 H 0.11075 0.88796 0.52018 0.0
C629 C 1.01501 0.91718 0.65157 0.0
C630 C 0.04613 0.93981 0.67622 0.0
H631 H 0.99281 0.86993 0.5502 0.0
H632 H 0.9883 0.92482 0.69048 0.0
C633 C 0.08039 0.92786 0.6281 0.0
C634 C 0.69123 0.06003 0.50045 0.0
C635 C 0.7074 1.02477 0.50944 0.0
H636 H 0.6455 0.09614 0.54559 0.0
C637 C 0.68819 0.99862 0.57925 0.0
H638 H 0.70456 0.08062 0.44534 0.0
C639 C 0.65377 1.00753 0.63689 0.0
C640 C 0.63707 0.0425 0.62378 0.0
H641 H 0.69917 0.97088 0.58595 0.0
H642 H 0.64 0.98683 0.69015 0.0
C643 C 0.65698 0.06878 0.55707 0.0
C644 C 0.50501 0.69462 0.52196 0.0
C645 C 0.5385 0.7146 0.51461 0.0
H646 H 0.47688 0.64588 0.58098 0.0
C647 C 0.56948 0.70024 0.57485 0.0
H648 H 0.48067 0.70435 0.4752 0.0
C649 C 0.56731 0.66627 0.63572 0.0
C650 C 0.53417 0.64545 0.63785 0.0
H651 H 0.59593 0.71417 0.56915 0.0
H652 H 0.59203 0.65577 0.67817 0.0
C653 C 0.50286 0.6608 0.58244 0.0
C654 C 0.85302 0.55697 0.56273 0.0
C655 C 0.8508 0.57056 0.44327 0.0
H656 H 0.88877 0.54023 0.70841 0.0
C657 C 0.88472 0.57507 0.37949 0.0
H658 H 0.82796 0.55201 0.61473 0.0
C659 C 0.91909 0.57004 0.43608 0.0
C660 C 0.9215 0.5595 0.5583 0.0
H661 H 0.88491 0.58313 0.28478 0.0
H662 H 0.9439 0.57375 0.38247 0.0
C663 C 0.88794 0.55092 0.61805 0.0
loop_
_geom_bond_atom_site_label_1
_geom_bond_atom_site_label_2
_geom_bond_distance
_geom_bond_site_symmetry_2
_ccdc_geom_bond_type
H0 C3 0.929 . S
H1 C6 0.929 . S
H2 C8 0.930 . S
C3 H0 0.929 . S
C3 C4 1.398 . S
C3 C5 1.396 . S
C4 C3 1.398 . S
C4 C8 1.407 . S
C5 C3 1.396 . S
C5 C6 1.394 . S
C6 H1 0.929 . S
C6 C5 1.394 . S
C6 C7 1.382 . S
C7 C6 1.382 . S
C7 C8 1.392 . S
C7 N9 1.420 . S
C8 H2 0.930 . S
C8 C4 1.407 . S
C8 C7 1.392 . S
N9 C7 1.420 . S
N9 C10 1.244 . S
C10 N9 1.244 . S
H11 C14 0.929 . S
H12 C17 0.929 . S
H13 C19 0.930 . S
C14 H11 0.929 . S
C14 C15 1.398 . S
C14 C16 1.396 . S
C15 C14 1.398 . S
C15 C19 1.407 . S
C16 C14 1.396 . S
C16 C17 1.394 . S
C17 H12 0.929 . S
C17 C16 1.394 . S
C17 C18 1.382 . S
C18 C17 1.382 . S
C18 C19 1.392 . S
C18 N20 1.420 . S
C19 H13 0.930 . S
C19 C15 1.407 . S
C19 C18 1.392 . S
N20 C18 1.420 . S
N20 C21 1.244 . S
C21 N20 1.244 . S
H22 C25 0.929 . S
H23 C28 0.929 . S
H24 C30 0.930 . S
C25 H22 0.929 . S
C25 C26 1.398 . S
C25 C27 1.396 . S
C26 C25 1.398 . S
C26 C30 1.407 . S
C27 C25 1.396 . S
C27 C28 1.394 . S
C28 H23 0.929 . S
C28 C27 1.394 . S
C28 C29 1.382 . S
C29 C28 1.382 . S
C29 C30 1.392 . S
C29 N31 1.420 . S
C30 H24 0.930 . S
C30 C26 1.407 . S
C30 C29 1.392 . S
N31 C29 1.420 . S
N31 C32 1.244 . S
C32 N31 1.244 . S
H33 C36 0.929 . S
H34 C39 0.929 . S
H35 C41 0.930 . S
C36 H33 0.929 . S
C36 C37 1.398 . S
C36 C38 1.396 . S
C37 C36 1.398 . S
C37 C41 1.407 . S
C38 C36 1.396 . S
C38 C39 1.394 . S
C39 H34 0.929 . S
C39 C38 1.394 . S
C39 C40 1.382 . S
C40 C39 1.382 . S
C40 C41 1.392 . S
C40 N42 1.420 . S
C41 H35 0.930 . S
C41 C37 1.407 . S
C41 C40 1.392 . S
N42 C40 1.420 . S
N42 C43 1.244 . S
C43 N42 1.244 . S
H44 C47 0.929 . S
H45 C50 0.929 . S
H46 C52 0.930 . S
C47 H44 0.929 . S
C47 C48 1.398 . S
C47 C49 1.396 1_556 S
C48 C47 1.398 . S
C48 C52 1.407 . S
C49 C47 1.396 1_554 S
C49 C50 1.394 . S
C50 H45 0.929 . S
C50 C49 1.394 . S
C50 C51 1.382 . S
C51 C50 1.382 . S
C51 C52 1.392 1_554 S
C51 N53 1.420 . S
C52 H46 0.930 . S
C52 C48 1.407 . S
C52 C51 1.392 1_556 S
N53 C51 1.420 . S
N53 C54 1.244 . S
C54 N53 1.244 . S
H55 C58 0.929 . S
H56 C61 0.929 . S
H57 C63 0.930 . S
C58 H55 0.929 . S
C58 C59 1.398 . S
C58 C60 1.396 1_556 S
C59 C58 1.398 . S
C59 C63 1.407 . S
C60 C58 1.396 1_554 S
C60 C61 1.394 . S
C61 H56 0.929 . S
C61 C60 1.394 . S
C61 C62 1.382 . S
C62 C61 1.382 . S
C62 C63 1.392 1_554 S
C62 N64 1.420 . S
C63 H57 0.930 . S
C63 C59 1.407 . S
C63 C62 1.392 1_556 S
N64 C62 1.420 . S
N64 C65 1.244 . S
C65 N64 1.244 . S
H66 C69 0.929 . S
H67 C72 0.929 . S
H68 C74 0.930 . S
C69 H66 0.929 . S
C69 C70 1.398 . S
C69 C71 1.396 1_556 S
C70 C69 1.398 . S
C70 C74 1.407 . S
C71 C69 1.396 1_554 S
C71 C72 1.394 . S
C72 H67 0.929 . S
C72 C71 1.394 . S
C72 C73 1.382 . S
C73 C72 1.382 . S
C73 C74 1.392 1_554 S
C73 N75 1.420 . S
C74 H68 0.930 . S
C74 C70 1.407 . S
C74 C73 1.392 1_556 S
N75 C73 1.420 . S
N75 C76 1.244 . S
C76 N75 1.244 . S
H77 C80 0.929 . S
H78 C83 0.929 . S
H79 C85 0.930 . S
C80 H77 0.929 . S
C80 C81 1.398 . S
C80 C82 1.396 1_556 S
C81 C80 1.398 . S
C81 C85 1.407 . S
C82 C80 1.396 1_554 S
C82 C83 1.394 . S
C83 H78 0.929 . S
C83 C82 1.394 . S
C83 C84 1.382 . S
C84 C83 1.382 . S
C84 C85 1.392 1_554 S
C84 N86 1.420 . S
C85 H79 0.930 . S
C85 C81 1.407 . S
C85 C84 1.392 1_556 S
N86 C84 1.420 . S
N86 C87 1.244 . S
C87 N86 1.244 . S
Eu88 N119 2.657 1_566 S
Eu88 N126 2.609 1_565 S
Eu88 O132 2.558 . S
Eu88 O133 2.612 1_455 S
Eu88 O135 2.339 1_455 S
Eu88 O136 2.563 . S
Eu88 O137 2.419 1_556 S
Eu88 O139 2.380 1_565 S
Eu88 O140 2.432 . S
Eu88 C152 2.848 . S
C89 C92 1.429 . S
C89 C93 1.411 . S
C89 N96 1.377 1_565 S
C90 C92 1.420 . S
C90 C94 1.423 . S
C90 C102 1.392 . S
C91 C93 1.420 . S
C91 C94 1.351 . S
C91 H114 0.931 . S
C92 C89 1.429 . S
C92 C90 1.420 . S
C92 N100 1.362 . S
C93 C89 1.411 . S
C93 C91 1.420 . S
C93 C98 1.395 1_565 S
C94 C90 1.423 . S
C94 C91 1.351 . S
C94 H106 0.930 . S
C95 C97 1.400 . S
C95 C98 1.386 . S
C95 H107 0.930 . S
N96 C89 1.377 1_545 S
N96 C97 1.321 . S
N96 Eu99 2.609 . S
C97 C95 1.400 . S
C97 N96 1.321 . S
C97 H104 0.930 . S
C98 C93 1.395 1_545 S
C98 C95 1.386 . S
C98 H117 0.930 . S
Eu99 N96 2.609 . S
Eu99 N100 2.657 1_545 S
Eu99 O133 2.380 1_545 S
Eu99 O134 2.432 . S
Eu99 O138 2.558 . S
Eu99 O139 2.612 1_655 S
Eu99 O141 2.339 1_655 S
Eu99 O142 2.563 1_655 S
Eu99 O143 2.419 . S
Eu99 C163 2.848 . S
N100 C92 1.362 . S
N100 Eu99 2.657 1_565 S
N100 C101 1.334 1_655 S
C101 N100 1.334 1_455 S
C101 C103 1.413 . S
C101 H108 0.929 . S
C102 C90 1.392 . S
C102 C103 1.367 1_655 S
C102 H110 0.930 . S
C103 C101 1.413 . S
C103 C102 1.367 1_455 S
C103 H105 0.930 . S
H104 C97 0.930 . S
H105 C103 0.930 . S
H106 C94 0.930 . S
H107 C95 0.930 . S
H108 C101 0.929 . S
H109 C123 0.930 1_655 S
H110 C102 0.930 . S
H111 C129 0.930 . S
H112 C120 0.929 1_655 S
H113 C127 0.930 . S
H114 C91 0.931 . S
H115 C121 0.930 . S
H116 C154 0.930 . S
H117 C98 0.930 . S
H118 C153 0.931 . S
N119 Eu88 2.657 1_544 S
N119 C120 1.334 . S
N119 C124 1.362 . S
C120 H112 0.929 1_455 S
C120 N119 1.334 . S
C120 C123 1.413 . S
C121 H115 0.930 . S
C121 C122 1.392 . S
C121 C123 1.367 . S
C122 C121 1.392 . S
C122 C124 1.420 . S
C122 C154 1.423 . S
C123 H109 0.930 1_455 S
C123 C120 1.413 . S
C123 C121 1.367 . S
C124 N119 1.362 . S
C124 C122 1.420 . S
C124 C128 1.429 . S
H125 C130 0.930 . S
N126 Eu88 2.609 1_545 S
N126 C128 1.377 1_556 S
N126 C129 1.321 1_545 S
C127 H113 0.930 . S
C127 C129 1.400 . S
C127 C130 1.386 1_566 S
C128 C124 1.429 . S
C128 N126 1.377 1_554 S
C128 C131 1.411 . S
C129 H111 0.930 . S
C129 N126 1.321 1_565 S
C129 C127 1.400 . S
C130 H125 0.930 . S
C130 C127 1.386 1_544 S
C130 C131 1.395 . S
C131 C128 1.411 . S
C131 C130 1.395 . S
C131 C153 1.420 . S
O132 Eu88 2.558 . S
O132 C152 1.257 . S
O133 Eu88 2.612 1_655 S
O133 Eu99 2.380 1_565 S
O133 C144 1.276 . S
O134 Eu99 2.432 . S
O134 C151 1.264 . S
O135 Eu88 2.339 1_655 S
O135 C151 1.254 1_565 S
O136 Eu88 2.563 . S
O136 C144 1.235 1_455 S
O137 Eu88 2.419 1_554 S
O137 C152 1.249 1_554 S
O138 Eu99 2.558 . S
O138 C163 1.257 . S
O139 Eu88 2.380 1_545 S
O139 Eu99 2.612 1_455 S
O139 C155 1.276 . S
O140 Eu88 2.432 . S
O140 C162 1.264 1_565 S
O141 Eu99 2.339 1_455 S
O141 C162 1.254 . S
O142 Eu99 2.563 1_455 S
O142 C155 1.235 . S
O143 Eu99 2.419 . S
O143 C163 1.249 . S
C144 O133 1.276 . S
C144 O136 1.235 1_655 S
C145 C147 1.393 . S
C145 C149 1.395 . S
C145 C152 1.492 1_554 S
C146 C147 1.392 . S
C146 C148 1.386 . S
C147 C145 1.393 . S
C147 C146 1.392 . S
C147 H164 0.930 . S
C148 C146 1.386 . S
C148 C150 1.395 . S
C148 H165 0.930 . S
C149 C145 1.395 . S
C149 C150 1.379 . S
C149 H166 0.930 . S
C150 C148 1.395 . S
C150 C149 1.379 . S
C150 H167 0.930 . S
C151 O134 1.264 . S
C151 O135 1.254 1_545 S
C152 Eu88 2.848 . S
C152 O132 1.257 . S
C152 O137 1.249 1_556 S
C152 C145 1.492 1_556 S
C153 H118 0.931 . S
C153 C131 1.420 . S
C153 C154 1.351 . S
C154 H116 0.930 . S
C154 C122 1.423 . S
C154 C153 1.351 . S
C155 O139 1.276 . S
C155 O142 1.235 . S
C156 C157 1.393 . S
C156 C160 1.395 . S
C156 C163 1.492 . S
C157 C156 1.393 . S
C157 C158 1.392 . S
C157 H168 0.930 1_655 S
C158 C157 1.392 . S
C158 C159 1.386 . S
C159 C158 1.386 . S
C159 C161 1.395 . S
C159 H169 0.930 . S
C160 C156 1.395 . S
C160 C161 1.379 . S
C160 H170 0.930 . S
C161 C159 1.395 . S
C161 C160 1.379 . S
C161 H171 0.930 . S
C162 O140 1.264 1_545 S
C162 O141 1.254 . S
C163 Eu99 2.848 . S
C163 O138 1.257 . S
C163 O143 1.249 . S
C163 C156 1.492 . S
H164 C147 0.930 . S
H165 C148 0.930 . S
H166 C149 0.930 . S
H167 C150 0.930 . S
H168 C157 0.930 1_455 S
H169 C159 0.930 . S
H170 C160 0.930 . S
H171 C161 0.930 . S
Eu172 N203 2.657 1_556 S
Eu172 N210 2.609 . S
Eu172 O216 2.558 . S
Eu172 O217 2.612 1_545 S
Eu172 O219 2.339 1_545 S
Eu172 O220 2.563 . S
Eu172 O221 2.419 1_556 S
Eu172 O223 2.380 . S
Eu172 O224 2.432 . S
Eu172 C236 2.848 . S
C173 C176 1.429 . S
C173 C177 1.411 . S
C173 N180 1.377 . S
C174 C176 1.420 . S
C174 C178 1.423 . S
C174 C186 1.392 . S
C175 C177 1.420 . S
C175 C178 1.351 . S
C175 H198 0.931 . S
C176 C173 1.429 . S
C176 C174 1.420 . S
C176 N184 1.362 . S
C177 C173 1.411 . S
C177 C175 1.420 . S
C177 C182 1.395 . S
C178 C174 1.423 . S
C178 C175 1.351 . S
C178 H190 0.930 . S
C179 C181 1.400 . S
C179 C182 1.386 . S
C179 H191 0.930 . S
N180 C173 1.377 . S
N180 C181 1.321 . S
N180 Eu183 2.609 . S
C181 C179 1.400 . S
C181 N180 1.321 . S
C181 H188 0.930 . S
C182 C177 1.395 . S
C182 C179 1.386 . S
C182 H201 0.930 . S
Eu183 N180 2.609 . S
Eu183 N184 2.657 . S
Eu183 O217 2.380 . S
Eu183 O218 2.432 . S
Eu183 O222 2.558 . S
Eu183 O223 2.612 1_565 S
Eu183 O225 2.339 1_565 S
Eu183 O226 2.563 1_565 S
Eu183 O227 2.419 . S
Eu183 C247 2.848 . S
N184 C176 1.362 . S
N184 Eu183 2.657 . S
N184 C185 1.334 1_565 S
C185 N184 1.334 1_545 S
C185 C187 1.413 . S
C185 H192 0.929 . S
C186 C174 1.392 . S
C186 C187 1.367 1_565 S
C186 H194 0.930 . S
C187 C185 1.413 . S
C187 C186 1.367 1_545 S
C187 H189 0.930 . S
H188 C181 0.930 . S
H189 C187 0.930 . S
H190 C178 0.930 . S
H191 C179 0.930 . S
H192 C185 0.929 . S
H193 C207 0.930 1_565 S
H194 C186 0.930 . S
H195 C213 0.930 . S
H196 C204 0.929 1_565 S
H197 C211 0.930 . S
H198 C175 0.931 . S
H199 C205 0.930 . S
H200 C238 0.930 . S
H201 C182 0.930 . S
H202 C237 0.931 . S
N203 Eu172 2.657 1_554 S
N203 C204 1.334 . S
N203 C208 1.362 . S
C204 H196 0.929 1_545 S
C204 N203 1.334 . S
C204 C207 1.413 . S
C205 H199 0.930 . S
C205 C206 1.392 . S
C205 C207 1.367 . S
C206 C205 1.392 . S
C206 C208 1.420 . S
C206 C238 1.423 . S
C207 H193 0.930 1_545 S
C207 C204 1.413 . S
C207 C205 1.367 . S
C208 N203 1.362 . S
C208 C206 1.420 . S
C208 C212 1.429 . S
H209 C214 0.930 . S
N210 Eu172 2.609 . S
N210 C212 1.377 1_556 S
N210 C213 1.321 . S
C211 H197 0.930 . S
C211 C213 1.400 . S
C211 C214 1.386 1_556 S
C212 C208 1.429 . S
C212 N210 1.377 1_554 S
C212 C215 1.411 . S
C213 H195 0.930 . S
C213 N210 1.321 . S
C213 C211 1.400 . S
C214 H209 0.930 . S
C214 C211 1.386 1_554 S
C214 C215 1.395 . S
C215 C212 1.411 . S
C215 C214 1.395 . S
C215 C237 1.420 . S
O216 Eu172 2.558 . S
O216 C236 1.257 . S
O217 Eu172 2.612 1_565 S
O217 Eu183 2.380 . S
O217 C228 1.276 . S
O218 Eu183 2.432 . S
O218 C235 1.264 . S
O219 Eu172 2.339 1_565 S
O219 C235 1.254 . S
O220 Eu172 2.563 . S
O220 C228 1.235 1_545 S
O221 Eu172 2.419 1_554 S
O221 C236 1.249 1_554 S
O222 Eu183 2.558 . S
O222 C247 1.257 . S
O223 Eu172 2.380 . S
O223 Eu183 2.612 1_545 S
O223 C239 1.276 . S
O224 Eu172 2.432 . S
O224 C246 1.264 . S
O225 Eu183 2.339 1_545 S
O225 C246 1.254 . S
O226 Eu183 2.563 1_545 S
O226 C239 1.235 . S
O227 Eu183 2.419 . S
O227 C247 1.249 . S
C228 O217 1.276 . S
C228 O220 1.235 1_565 S
C229 C231 1.393 . S
C229 C233 1.395 . S
C229 C236 1.492 1_554 S
C230 C231 1.392 . S
C230 C232 1.386 . S
C231 C229 1.393 . S
C231 C230 1.392 . S
C231 H248 0.930 . S
C232 C230 1.386 . S
C232 C234 1.395 . S
C232 H249 0.930 . S
C233 C229 1.395 . S
C233 C234 1.379 . S
C233 H250 0.930 . S
C234 C232 1.395 . S
C234 C233 1.379 . S
C234 H251 0.930 . S
C235 O218 1.264 . S
C235 O219 1.254 . S
C236 Eu172 2.848 . S
C236 O216 1.257 . S
C236 O221 1.249 1_556 S
C236 C229 1.492 1_556 S
C237 H202 0.931 . S
C237 C215 1.420 . S
C237 C238 1.351 . S
C238 H200 0.930 . S
C238 C206 1.423 . S
C238 C237 1.351 . S
C239 O223 1.276 . S
C239 O226 1.235 . S
C240 C241 1.393 . S
C240 C244 1.395 . S
C240 C247 1.492 . S
C241 C240 1.393 . S
C241 C242 1.392 . S
C241 H252 0.930 1_565 S
C242 C241 1.392 . S
C242 C243 1.386 . S
C243 C242 1.386 . S
C243 C245 1.395 . S
C243 H253 0.930 . S
C244 C240 1.395 . S
C244 C245 1.379 . S
C244 H254 0.930 . S
C245 C243 1.395 . S
C245 C244 1.379 . S
C245 H255 0.930 . S
C246 O224 1.264 . S
C246 O225 1.254 . S
C247 Eu183 2.848 . S
C247 O222 1.257 . S
C247 O227 1.249 . S
C247 C240 1.492 . S
H248 C231 0.930 . S
H249 C232 0.930 . S
H250 C233 0.930 . S
H251 C234 0.930 . S
H252 C241 0.930 1_545 S
H253 C243 0.930 . S
H254 C244 0.930 . S
H255 C245 0.930 . S
Eu256 N287 2.657 . S
Eu256 N294 2.609 . S
Eu256 O300 2.558 . S
Eu256 O301 2.612 . S
Eu256 O303 2.339 . S
Eu256 O304 2.563 . S
Eu256 O305 2.419 . S
Eu256 O307 2.380 . S
Eu256 O308 2.432 . S
Eu256 C320 2.848 . S
C257 C260 1.429 . S
C257 C261 1.411 . S
C257 N264 1.377 . S
C258 C260 1.420 . S
C258 C262 1.423 . S
C258 C270 1.392 . S
C259 C261 1.420 . S
C259 C262 1.351 . S
C259 H282 0.931 . S
C260 C257 1.429 . S
C260 C258 1.420 . S
C260 N268 1.362 . S
C261 C257 1.411 . S
C261 C259 1.420 . S
C261 C266 1.395 1_556 S
C262 C258 1.423 . S
C262 C259 1.351 . S
C262 H274 0.930 . S
C263 C265 1.400 . S
C263 C266 1.386 . S
C263 H275 0.930 . S
N264 C257 1.377 . S
N264 C265 1.321 1_556 S
N264 Eu267 2.609 . S
C265 C263 1.400 . S
C265 N264 1.321 1_554 S
C265 H272 0.930 . S
C266 C261 1.395 1_554 S
C266 C263 1.386 . S
C266 H285 0.930 . S
Eu267 N264 2.609 . S
Eu267 N268 2.657 . S
Eu267 O301 2.380 . S
Eu267 O302 2.432 . S
Eu267 O306 2.558 1_556 S
Eu267 O307 2.612 . S
Eu267 O309 2.339 . S
Eu267 O310 2.563 . S
Eu267 O311 2.419 . S
Eu267 C331 2.848 1_556 S
N268 C260 1.362 . S
N268 Eu267 2.657 . S
N268 C269 1.334 . S
C269 N268 1.334 . S
C269 C271 1.413 . S
C269 H276 0.929 . S
C270 C258 1.392 . S
C270 C271 1.367 . S
C270 H278 0.930 . S
C271 C269 1.413 . S
C271 C270 1.367 . S
C271 H273 0.930 . S
H272 C265 0.930 . S
H273 C271 0.930 . S
H274 C262 0.930 . S
H275 C263 0.930 . S
H276 C269 0.929 . S
H277 C291 0.930 . S
H278 C270 0.930 . S
H279 C297 0.930 . S
H280 C288 0.929 . S
H281 C295 0.930 . S
H282 C259 0.931 . S
H283 C289 0.930 . S
H284 C322 0.930 . S
H285 C266 0.930 . S
H286 C321 0.931 . S
N287 Eu256 2.657 . S
N287 C288 1.334 . S
N287 C292 1.362 . S
C288 H280 0.929 . S
C288 N287 1.334 . S
C288 C291 1.413 . S
C289 H283 0.930 . S
C289 C290 1.392 . S
C289 C291 1.367 . S
C290 C289 1.392 . S
C290 C292 1.420 . S
C290 C322 1.423 . S
C291 H277 0.930 . S
C291 C288 1.413 . S
C291 C289 1.367 . S
C292 N287 1.362 . S
C292 C290 1.420 . S
C292 C296 1.429 . S
H293 C298 0.930 . S
N294 Eu256 2.609 . S
N294 C296 1.377 . S
N294 C297 1.321 . S
C295 H281 0.930 . S
C295 C297 1.400 . S
C295 C298 1.386 . S
C296 C292 1.429 . S
C296 N294 1.377 . S
C296 C299 1.411 . S
C297 H279 0.930 . S
C297 N294 1.321 . S
C297 C295 1.400 . S
C298 H293 0.930 . S
C298 C295 1.386 . S
C298 C299 1.395 . S
C299 C296 1.411 . S
C299 C298 1.395 . S
C299 C321 1.420 . S
O300 Eu256 2.558 . S
O300 C320 1.257 . S
O301 Eu256 2.612 . S
O301 Eu267 2.380 . S
O301 C312 1.276 . S
O302 Eu267 2.432 . S
O302 C319 1.264 . S
O303 Eu256 2.339 . S
O303 C319 1.254 . S
O304 Eu256 2.563 . S
O304 C312 1.235 . S
O305 Eu256 2.419 . S
O305 C320 1.249 . S
O306 Eu267 2.558 1_554 S
O306 C331 1.257 . S
O307 Eu256 2.380 . S
O307 Eu267 2.612 . S
O307 C323 1.276 . S
O308 Eu256 2.432 . S
O308 C330 1.264 . S
O309 Eu267 2.339 . S
O309 C330 1.254 . S
O310 Eu267 2.563 . S
O310 C323 1.235 . S
O311 Eu267 2.419 . S
O311 C331 1.249 1_556 S
C312 O301 1.276 . S
C312 O304 1.235 . S
C313 C315 1.393 . S
C313 C317 1.395 . S
C313 C320 1.492 . S
C314 C315 1.392 . S
C314 C316 1.386 . S
C315 C313 1.393 . S
C315 C314 1.392 . S
C315 H332 0.930 . S
C316 C314 1.386 . S
C316 C318 1.395 . S
C316 H333 0.930 . S
C317 C313 1.395 . S
C317 C318 1.379 . S
C317 H334 0.930 . S
C318 C316 1.395 . S
C318 C317 1.379 . S
C318 H335 0.930 . S
C319 O302 1.264 . S
C319 O303 1.254 . S
C320 Eu256 2.848 . S
C320 O300 1.257 . S
C320 O305 1.249 . S
C320 C313 1.492 . S
C321 H286 0.931 . S
C321 C299 1.420 . S
C321 C322 1.351 . S
C322 H284 0.930 . S
C322 C290 1.423 . S
C322 C321 1.351 . S
C323 O307 1.276 . S
C323 O310 1.235 . S
C324 C325 1.393 . S
C324 C328 1.395 . S
C324 C331 1.492 . S
C325 C324 1.393 . S
C325 C326 1.392 . S
C325 H336 0.930 . S
C326 C325 1.392 . S
C326 C327 1.386 . S
C327 C326 1.386 . S
C327 C329 1.395 . S
C327 H337 0.930 . S
C328 C324 1.395 . S
C328 C329 1.379 . S
C328 H338 0.930 . S
C329 C327 1.395 . S
C329 C328 1.379 . S
C329 H339 0.930 . S
C330 O308 1.264 . S
C330 O309 1.254 . S
C331 Eu267 2.848 1_554 S
C331 O306 1.257 . S
C331 O311 1.249 1_554 S
C331 C324 1.492 . S
H332 C315 0.930 . S
H333 C316 0.930 . S
H334 C317 0.930 . S
H335 C318 0.930 . S
H336 C325 0.930 . S
H337 C327 0.930 . S
H338 C328 0.930 . S
H339 C329 0.930 . S
Eu340 N371 2.657 . S
Eu340 N378 2.609 . S
Eu340 O384 2.558 . S
Eu340 O385 2.612 . S
Eu340 O387 2.339 . S
Eu340 O388 2.563 . S
Eu340 O389 2.419 . S
Eu340 O391 2.380 . S
Eu340 O392 2.432 1_455 S
Eu340 C404 2.848 . S
C341 C344 1.429 . S
C341 C345 1.411 . S
C341 N348 1.380 . S
C342 C344 1.420 . S
C342 C346 1.423 . S
C342 C354 1.392 . S
C343 C345 1.420 . S
C343 C346 1.351 . S
C343 H366 0.931 . S
C344 C341 1.429 . S
C344 C342 1.420 . S
C344 N352 1.362 . S
C345 C341 1.411 . S
C345 C343 1.420 . S
C345 C350 1.395 1_656 S
C346 C342 1.423 . S
C346 C343 1.351 . S
C346 H358 0.930 . S
C347 C349 1.400 . S
C347 C350 1.386 . S
C347 H359 0.930 . S
N348 C341 1.380 . S
N348 C349 1.318 1_656 S
N348 Eu351 2.611 . S
C349 C347 1.400 . S
C349 N348 1.318 1_454 S
C349 H356 0.930 . S
C350 C345 1.395 1_454 S
C350 C347 1.386 . S
C350 H369 0.930 . S
Eu351 N348 2.611 . S
Eu351 N352 2.657 . S
Eu351 O385 2.380 1_655 S
Eu351 O386 2.432 1_655 S
Eu351 O390 2.558 1_556 S
Eu351 O391 2.612 1_655 S
Eu351 O393 2.339 . S
Eu351 O394 2.563 . S
Eu351 O395 2.419 . S
Eu351 C415 2.848 1_556 S
N352 C344 1.362 . S
N352 Eu351 2.657 . S
N352 C353 1.334 . S
C353 N352 1.334 . S
C353 C355 1.413 . S
C353 H360 0.929 . S
C354 C342 1.392 . S
C354 C355 1.367 . S
C354 H362 0.930 . S
C355 C353 1.413 . S
C355 C354 1.367 . S
C355 H357 0.930 . S
H356 C349 0.930 . S
H357 C355 0.930 . S
H358 C346 0.930 . S
H359 C347 0.930 . S
H360 C353 0.929 . S
H361 C375 0.930 . S
H362 C354 0.930 . S
H363 C381 0.930 . S
H364 C372 0.929 . S
H365 C379 0.930 . S
H366 C343 0.931 . S
H367 C373 0.930 . S
H368 C406 0.930 . S
H369 C350 0.930 . S
H370 C405 0.931 . S
N371 Eu340 2.657 . S
N371 C372 1.334 . S
N371 C376 1.362 . S
C372 H364 0.929 . S
C372 N371 1.334 . S
C372 C375 1.413 . S
C373 H367 0.930 . S
C373 C374 1.392 . S
C373 C375 1.367 . S
C374 C373 1.392 . S
C374 C376 1.420 . S
C374 C406 1.423 . S
C375 H361 0.930 . S
C375 C372 1.413 . S
C375 C373 1.367 . S
C376 N371 1.362 . S
C376 C374 1.420 . S
C376 C380 1.429 . S
H377 C382 0.929 1_655 S
N378 Eu340 2.609 . S
N378 C380 1.377 . S
N378 C381 1.321 1_455 S
C379 H365 0.930 . S
C379 C381 1.400 . S
C379 C382 1.386 1_655 S
C380 C376 1.429 . S
C380 N378 1.377 . S
C380 C383 1.411 . S
C381 H363 0.930 . S
C381 N378 1.321 1_655 S
C381 C379 1.400 . S
C382 H377 0.929 1_455 S
C382 C379 1.386 1_455 S
C382 C383 1.395 . S
C383 C380 1.411 . S
C383 C382 1.395 . S
C383 C405 1.420 . S
O384 Eu340 2.558 . S
O384 C404 1.257 . S
O385 Eu340 2.612 . S
O385 Eu351 2.380 1_455 S
O385 C396 1.276 . S
O386 Eu351 2.432 1_455 S
O386 C403 1.264 . S
O387 Eu340 2.339 . S
O387 C403 1.254 . S
O388 Eu340 2.563 . S
O388 C396 1.235 . S
O389 Eu340 2.419 . S
O389 C404 1.249 . S
O390 Eu351 2.558 1_554 S
O390 C415 1.257 . S
O391 Eu340 2.380 . S
O391 Eu351 2.612 1_455 S
O391 C407 1.276 1_455 S
O392 Eu340 2.432 1_655 S
O392 C414 1.264 . S
O393 Eu351 2.339 . S
O393 C414 1.254 . S
O394 Eu351 2.563 . S
O394 C407 1.235 . S
O395 Eu351 2.419 . S
O395 C415 1.249 1_556 S
C396 O385 1.276 . S
C396 O388 1.235 . S
C397 C399 1.393 . S
C397 C401 1.395 . S
C397 C404 1.492 . S
C398 C399 1.392 . S
C398 C400 1.386 . S
C399 C397 1.393 . S
C399 C398 1.392 . S
C399 H416 0.930 . S
C400 C398 1.386 . S
C400 C402 1.395 . S
C400 H417 0.930 . S
C401 C397 1.395 . S
C401 C402 1.379 . S
C401 H418 0.930 . S
C402 C400 1.395 . S
C402 C401 1.379 . S
C402 H419 0.930 . S
C403 O386 1.264 . S
C403 O387 1.254 . S
C404 Eu340 2.848 . S
C404 O384 1.257 . S
C404 O389 1.249 . S
C404 C397 1.492 . S
C405 H370 0.931 . S
C405 C383 1.420 . S
C405 C406 1.351 . S
C406 H368 0.930 . S
C406 C374 1.423 . S
C406 C405 1.351 . S
C407 O391 1.276 1_655 S
C407 O394 1.235 . S
C408 C409 1.393 . S
C408 C412 1.395 . S
C408 C415 1.492 . S
C409 C408 1.393 . S
C409 C410 1.392 . S
C409 H420 0.930 . S
C410 C409 1.392 . S
C410 C411 1.386 . S
C411 C410 1.386 . S
C411 C413 1.395 . S
C411 H421 0.930 . S
C412 C408 1.395 . S
C412 C413 1.379 . S
C412 H422 0.930 . S
C413 C411 1.395 . S
C413 C412 1.379 . S
C413 H423 0.930 . S
C414 O392 1.264 . S
C414 O393 1.254 . S
C415 Eu351 2.848 1_554 S
C415 O390 1.257 . S
C415 O395 1.249 1_554 S
C415 C408 1.492 . S
H416 C399 0.930 . S
H417 C400 0.930 . S
H418 C401 0.930 . S
H419 C402 0.930 . S
H420 C409 0.930 . S
H421 C411 0.930 . S
H422 C412 0.930 . S
H423 C413 0.930 . S
C424 C425 1.387 . S
C424 H428 0.950 . S
C424 C433 1.390 . S
C425 C424 1.387 . S
C425 C427 1.387 . S
H426 C433 0.950 . S
C427 C425 1.387 . S
C427 C429 1.390 . S
C427 H431 0.950 1_545 S
H428 C424 0.950 . S
C429 C427 1.390 . S
C429 C430 1.387 . S
C429 H432 0.950 1_545 S
C430 C429 1.387 . S
C430 C433 1.387 . S
H431 C427 0.950 1_565 S
H432 C429 0.950 1_565 S
C433 C424 1.390 . S
C433 H426 0.950 . S
C433 C430 1.387 . S
C434 C435 1.387 . S
C434 H438 0.950 . S
C434 C443 1.390 . S
C435 C434 1.387 . S
C435 C437 1.387 . S
H436 C443 0.950 . S
C437 C435 1.387 . S
C437 C439 1.390 . S
C437 H441 0.950 . S
H438 C434 0.950 . S
C439 C437 1.390 . S
C439 C440 1.387 . S
C439 H442 0.950 . S
C440 C439 1.387 . S
C440 C443 1.387 . S
H441 C437 0.950 . S
H442 C439 0.950 . S
C443 C434 1.390 . S
C443 H436 0.950 . S
C443 C440 1.387 . S
C444 C445 1.387 . S
C444 H448 0.950 . S
C444 C453 1.390 . S
C445 C444 1.387 . S
C445 C447 1.387 . S
H446 C453 0.950 . S
C447 C445 1.387 . S
C447 C449 1.390 . S
C447 H451 0.950 . S
H448 C444 0.950 . S
C449 C447 1.390 . S
C449 C450 1.387 . S
C449 H452 0.950 . S
C450 C449 1.387 . S
C450 C453 1.387 . S
H451 C447 0.950 . S
H452 C449 0.950 . S
C453 C444 1.390 . S
C453 H446 0.950 . S
C453 C450 1.387 . S
C454 C455 1.387 . S
C454 H458 0.950 . S
C454 C463 1.390 . S
C455 C454 1.387 . S
C455 C457 1.387 . S
H456 C463 0.950 . S
C457 C455 1.387 . S
C457 C459 1.390 . S
C457 H461 0.950 . S
H458 C454 0.950 . S
C459 C457 1.390 . S
C459 C460 1.387 . S
C459 H462 0.950 . S
C460 C459 1.387 . S
C460 C463 1.387 . S
H461 C457 0.950 . S
H462 C459 0.950 . S
C463 C454 1.390 . S
C463 H456 0.950 . S
C463 C460 1.387 . S
C464 C465 1.387 . S
C464 H468 0.950 . S
C464 C473 1.390 . S
C465 C464 1.387 . S
C465 C467 1.387 . S
H466 C473 0.950 1_556 S
C467 C465 1.387 . S
C467 C469 1.390 1_565 S
C467 H471 0.950 1_565 S
H468 C464 0.950 . S
C469 C467 1.390 1_545 S
C469 C470 1.387 1_545 S
C469 H472 0.950 . S
C470 C469 1.387 1_565 S
C470 C473 1.387 . S
H471 C467 0.950 1_545 S
H472 C469 0.950 . S
C473 C464 1.390 . S
C473 H466 0.950 1_554 S
C473 C470 1.387 . S
C474 C475 1.387 . S
C474 H478 0.950 . S
C474 C483 1.390 . S
C475 C474 1.387 . S
C475 C477 1.387 . S
H476 C483 0.950 . S
C477 C475 1.387 . S
C477 C479 1.390 . S
C477 H481 0.950 . S
H478 C474 0.950 . S
C479 C477 1.390 . S
C479 C480 1.387 1_554 S
C479 H482 0.950 1_554 S
C480 C479 1.387 1_556 S
C480 C483 1.383 1_556 S
H481 C477 0.950 . S
H482 C479 0.950 1_556 S
C483 C474 1.390 . S
C483 H476 0.950 . S
C483 C480 1.383 1_554 S
C484 C485 1.387 . S
C484 H488 0.950 . S
C484 C493 1.390 . S
C485 C484 1.387 . S
C485 C487 1.387 . S
H486 C493 0.950 1_556 S
C487 C485 1.387 . S
C487 C489 1.390 . S
C487 H491 0.950 . S
H488 C484 0.950 . S
C489 C487 1.390 . S
C489 C490 1.387 1_554 S
C489 H492 0.950 . S
C490 C489 1.387 1_556 S
C490 C493 1.387 1_556 S
H491 C487 0.950 . S
H492 C489 0.950 . S
C493 C484 1.390 . S
C493 H486 0.950 1_554 S
C493 C490 1.387 1_554 S
C494 C495 1.387 . S
C494 H498 0.950 1_655 S
C494 C503 1.390 1_655 S
C495 C494 1.387 . S
C495 C497 1.387 . S
H496 C503 0.950 1_556 S
C497 C495 1.387 . S
C497 C499 1.390 . S
C497 H501 0.950 . S
H498 C494 0.950 1_455 S
C499 C497 1.390 . S
C499 C500 1.387 1_554 S
C499 H502 0.950 . S
C500 C499 1.387 1_556 S
C500 C503 1.387 1_656 S
H501 C497 0.950 . S
H502 C499 0.950 . S
C503 C494 1.390 1_455 S
C503 H496 0.950 1_554 S
C503 C500 1.387 1_454 S
C504 C505 1.387 . S
C504 H508 0.950 . S
C504 C513 1.390 . S
C505 C504 1.387 . S
C505 C507 1.387 . S
H506 C513 0.950 . S
C507 C505 1.387 . S
C507 C509 1.390 1_455 S
C507 H511 0.950 . S
H508 C504 0.950 . S
C509 C507 1.390 1_655 S
C509 C510 1.393 . S
C509 H512 0.950 . S
C510 C509 1.393 . S
C510 C513 1.361 1_655 S
H511 C507 0.950 . S
H512 C509 0.950 . S
C513 C504 1.390 . S
C513 H506 0.950 . S
C513 C510 1.361 1_455 S
C514 C515 1.387 . S
C514 H518 0.950 . S
C514 C523 1.390 . S
C515 C514 1.387 . S
C515 C517 1.387 . S
H516 C523 0.950 . S
C517 C515 1.387 . S
C517 C519 1.390 1_545 S
C517 H521 0.950 1_554 S
H518 C514 0.950 . S
C519 C517 1.390 1_565 S
C519 C520 1.387 . S
C519 H522 0.950 . S
C520 C519 1.387 . S
C520 C523 1.387 1_565 S
H521 C517 0.950 1_556 S
H522 C519 0.950 . S
C523 C514 1.390 . S
C523 H516 0.950 . S
C523 C520 1.387 1_545 S
C524 C525 1.387 . S
C524 H528 0.950 1_554 S
C524 C533 1.390 . S
C525 C524 1.387 . S
C525 C527 1.387 . S
H526 C533 0.950 . S
C527 C525 1.387 . S
C527 C529 1.390 . S
C527 H531 0.950 . S
H528 C524 0.950 1_556 S
C529 C527 1.390 . S
C529 C530 1.387 . S
C529 H532 0.950 . S
C530 C529 1.387 . S
C530 C533 1.387 . S
H531 C527 0.950 . S
H532 C529 0.950 . S
C533 C524 1.390 . S
C533 H526 0.950 . S
C533 C530 1.387 . S
C534 C535 1.387 . S
C534 H538 0.950 1_554 S
C534 C543 1.390 . S
C535 C534 1.387 . S
C535 C537 1.387 . S
H536 C543 0.950 . S
C537 C535 1.387 . S
C537 C539 1.390 . S
C537 H541 0.950 . S
H538 C534 0.950 1_556 S
C539 C537 1.390 . S
C539 C540 1.387 . S
C539 H542 0.950 . S
C540 C539 1.387 . S
C540 C543 1.387 . S
H541 C537 0.950 . S
H542 C539 0.950 . S
C543 C534 1.390 . S
C543 H536 0.950 . S
C543 C540 1.387 . S
C544 C545 1.387 . S
C544 H548 0.950 . S
C544 C553 1.390 1_655 S
C545 C544 1.387 . S
C545 C547 1.387 . S
H546 C553 0.950 . S
C547 C545 1.387 . S
C547 C549 1.390 . S
C547 H551 0.950 . S
H548 C544 0.950 . S
C549 C547 1.390 . S
C549 C550 1.387 1_655 S
C549 H552 0.950 1_655 S
C550 C549 1.387 1_455 S
C550 C553 1.387 . S
H551 C547 0.950 . S
H552 C549 0.950 1_455 S
C553 C544 1.390 1_455 S
C553 H546 0.950 . S
C553 C550 1.387 . S
C554 C555 1.387 . S
C554 H558 0.950 . S
C554 C563 1.390 1_565 S
C555 C554 1.387 . S
C555 C557 1.387 . S
H556 C563 0.950 . S
C557 C555 1.387 . S
C557 C559 1.390 1_565 S
C557 H561 0.950 . S
H558 C554 0.950 . S
C559 C557 1.390 1_545 S
C559 C560 1.387 . S
C559 H562 0.950 . S
C560 C559 1.387 . S
C560 C563 1.387 . S
H561 C557 0.950 . S
H562 C559 0.950 . S
C563 C554 1.390 1_545 S
C563 H556 0.950 . S
C563 C560 1.387 . S
C564 C565 1.387 . S
C564 H568 0.950 . S
C564 C573 1.390 . S
C565 C564 1.387 . S
C565 C567 1.387 . S
H566 C573 0.950 . S
C567 C565 1.387 . S
C567 C569 1.390 . S
C567 H571 0.950 . S
H568 C564 0.950 . S
C569 C567 1.390 . S
C569 C570 1.387 . S
C569 H572 0.950 . S
C570 C569 1.387 . S
C570 C573 1.387 . S
H571 C567 0.950 . S
H572 C569 0.950 . S
C573 C564 1.390 . S
C573 H566 0.950 . S
C573 C570 1.387 . S
C574 C575 1.387 . S
C574 H578 0.950 . S
C574 C583 1.390 . S
C575 C574 1.387 . S
C575 C577 1.387 . S
H576 C583 0.950 . S
C577 C575 1.387 . S
C577 C579 1.390 . S
C577 H581 0.950 . S
H578 C574 0.950 . S
C579 C577 1.390 . S
C579 C580 1.387 . S
C579 H582 0.950 . S
C580 C579 1.387 . S
C580 C583 1.387 . S
H581 C577 0.950 . S
H582 C579 0.950 . S
C583 C574 1.390 . S
C583 H576 0.950 . S
C583 C580 1.387 . S
C584 C585 1.387 . S
C584 H588 0.950 . S
C584 C593 1.390 . S
C585 C584 1.387 . S
C585 C587 1.387 . S
H586 C593 0.950 . S
C587 C585 1.387 . S
C587 C589 1.390 . S
C587 H591 0.950 . S
H588 C584 0.950 . S
C589 C587 1.390 . S
C589 C590 1.387 . S
C589 H592 0.950 . S
C590 C589 1.387 . S
C590 C593 1.387 . S
H591 C587 0.950 . S
H592 C589 0.950 . S
C593 C584 1.390 . S
C593 H586 0.950 . S
C593 C590 1.387 . S
C594 C595 1.387 . S
C594 H598 0.950 . S
C594 C603 1.390 . S
C595 C594 1.387 . S
C595 C597 1.387 . S
H596 C603 0.950 . S
C597 C595 1.387 . S
C597 C599 1.390 . S
C597 H601 0.950 . S
H598 C594 0.950 . S
C599 C597 1.390 . S
C599 C600 1.387 . S
C599 H602 0.950 . S
C600 C599 1.387 . S
C600 C603 1.387 . S
H601 C597 0.950 . S
H602 C599 0.950 . S
C603 C594 1.390 . S
C603 H596 0.950 . S
C603 C600 1.387 . S
C604 C605 1.387 . S
C604 H608 0.950 1_556 S
C604 C613 1.390 . S
C605 C604 1.387 . S
C605 C607 1.387 . S
H606 C613 0.950 1_554 S
C607 C605 1.387 . S
C607 C609 1.390 . S
C607 H611 0.950 . S
H608 C604 0.950 1_554 S
C609 C607 1.390 . S
C609 C610 1.387 . S
C609 H612 0.950 . S
C610 C609 1.387 . S
C610 C613 1.387 . S
H611 C607 0.950 . S
H612 C609 0.950 . S
C613 C604 1.390 . S
C613 H606 0.950 1_556 S
C613 C610 1.387 . S
C614 C615 1.387 . S
C614 H618 0.950 . S
C614 C623 1.390 . S
C615 C614 1.387 . S
C615 C617 1.387 . S
H616 C623 0.950 . S
C617 C615 1.387 . S
C617 C619 1.390 . S
C617 H621 0.950 1_556 S
H618 C614 0.950 . S
C619 C617 1.390 . S
C619 C620 1.387 . S
C619 H622 0.950 1_556 S
C620 C619 1.387 . S
C620 C623 1.387 . S
H621 C617 0.950 1_554 S
H622 C619 0.950 1_554 S
C623 C614 1.390 . S
C623 H616 0.950 . S
C623 C620 1.387 . S
C624 C625 1.387 . S
C624 H628 0.950 . S
C624 C633 1.390 . S
C625 C624 1.387 . S
C625 C627 1.387 . S
H626 C633 0.950 . S
C627 C625 1.387 . S
C627 C629 1.390 . S
C627 H631 0.950 . S
H628 C624 0.950 . S
C629 C627 1.390 . S
C629 C630 1.387 . S
C629 H632 0.950 . S
C630 C629 1.387 . S
C630 C633 1.387 . S
H631 C627 0.950 . S
H632 C629 0.950 . S
C633 C624 1.390 . S
C633 H626 0.950 . S
C633 C630 1.387 . S
C634 C635 1.387 . S
C634 H638 0.950 1_565 S
C634 C643 1.390 . S
C635 C634 1.387 . S
C635 C637 1.387 . S
H636 C643 0.950 1_545 S
C637 C635 1.387 . S
C637 C639 1.390 . S
C637 H641 0.950 . S
H638 C634 0.950 1_545 S
C639 C637 1.390 . S
C639 C640 1.387 . S
C639 H642 0.950 . S
C640 C639 1.387 . S
C640 C643 1.387 . S
H641 C637 0.950 . S
H642 C639 0.950 . S
C643 C634 1.390 . S
C643 H636 0.950 1_565 S
C643 C640 1.387 . S
C644 C645 1.387 . S
C644 H648 0.950 . S
C644 C653 1.390 . S
C645 C644 1.387 . S
C645 C647 1.387 . S
H646 C653 0.950 . S
C647 C645 1.387 . S
C647 C649 1.390 . S
C647 H651 0.950 . S
H648 C644 0.950 . S
C649 C647 1.390 . S
C649 C650 1.387 . S
C649 H652 0.950 . S
C650 C649 1.387 . S
C650 C653 1.387 . S
H651 C647 0.950 . S
H652 C649 0.950 . S
C653 C644 1.390 . S
C653 H646 0.950 . S
C653 C650 1.387 . S
C654 C655 1.387 . S
C654 H658 0.950 . S
C654 C663 1.390 . S
C655 C654 1.387 . S
C655 C657 1.387 . S
H656 C663 0.950 . S
C657 C655 1.387 . S
C657 C659 1.390 . S
C657 H661 0.950 . S
H658 C654 0.950 . S
C659 C657 1.390 . S
C659 C660 1.387 . S
C659 H662 0.950 . S
C660 C659 1.387 . S
C660 C663 1.387 . S
H661 C657 0.950 . S
H662 C659 0.950 . S
C663 C654 1.390 . S
C663 H656 0.950 . S
C663 C660 1.387 . S
C425 C76 1.959 . S
C430 C162 2.092 . S
C440 C246 2.103 . S
C435 C87 1.969 . S
C450 C312 2.014 . S
C445 C54 2.042 . S
C460 C396 2.005 . S
C455 C65 2.032 . S
C470 C151 2.094 1_564 S
C465 C32 1.969 . S
C475 C43 1.977 . S
C480 C235 2.109 . S
C485 C10 2.050 . S
C490 C323 2.014 . S
C495 C21 2.039 . S
C500 C407 2.003 . S
C510 C158 0.976 . S
C505 C60 0.893 . S
C520 C242 0.914 . S
C515 C71 0.872 . S
C530 C314 0.889 . S
C525 C82 0.846 . S
C535 C49 0.870 . S
C540 C398 0.923 . S
C545 C16 0.892 . S
C550 C146 0.950 . S
C560 C230 0.914 . S
C555 C27 0.868 . S
C570 C326 0.890 . S
C565 C38 0.839 . S
C575 C5 0.863 . S
C580 C410 0.923 . S
C585 C59 2.108 . S
C590 C155 2.219 . S
C595 C70 2.086 . S
C600 C239 2.198 . S
C610 C319 2.289 . S
C605 C81 2.008 . S
C620 C403 2.310 . S
C615 C48 2.029 . S
C625 C15 2.100 . S
C630 C144 2.221 . S
C640 C228 2.201 . S
C635 C26 2.081 . S
C650 C330 2.290 . S
C645 C37 2.000 . S
C655 C4 2.020 . S
C660 C414 2.308 . S
