# Generated by pormake.
# Topology zzz, (3,6)-cn, num edge types: 1
# Building blocks:
#     Node 0, Type 0, BuildingBlock: ESEHIV_clean_linker_0, # of connection points: 3
#     Node 1, Type 0, BuildingBlock: ESEHIV_clean_linker_0, # of connection points: 3
#     Node 2, Type 0, BuildingBlock: ESEHIV_clean_linker_0, # of connection points: 3
#     Node 3, Type 0, BuildingBlock: ESEHIV_clean_linker_0, # of connection points: 3
#     Node 4, Type 0, BuildingBlock: ESEHIV_clean_linker_0, # of connection points: 3
#     Node 5, Type 0, BuildingBlock: ESEHIV_clean_linker_0, # of connection points: 3
#     Node 6, Type 0, BuildingBlock: ESEHIV_clean_linker_0, # of connection points: 3
#     Node 7, Type 0, BuildingBlock: ESEHIV_clean_linker_0, # of connection points: 3
#     Node 8, Type 1, BuildingBlock: LEVNOQ01_clean_sbu_1, # of connection points: 6
#     Node 9, Type 1, BuildingBlock: LEVNOQ01_clean_sbu_1, # of connection points: 6
#     Node 10, Type 1, BuildingBlock: LEVNOQ01_clean_sbu_1, # of connection points: 6
#     Node 11, Type 1, BuildingBlock: LEVNOQ01_clean_sbu_1, # of connection points: 6
#     Edge 12, Type (0, 1), BuildingBlock: KIFKEQ_clean_linker_1, # of connection points: 2
#     Edge 13, Type (0, 1), BuildingBlock: KIFKEQ_clean_linker_1, # of connection points: 2
#     Edge 14, Type (0, 1), BuildingBlock: KIFKEQ_clean_linker_1, # of connection points: 2
#     Edge 15, Type (0, 1), BuildingBlock: KIFKEQ_clean_linker_1, # of connection points: 2
#     Edge 16, Type (0, 1), BuildingBlock: KIFKEQ_clean_linker_1, # of connection points: 2
#     Edge 17, Type (0, 1), BuildingBlock: KIFKEQ_clean_linker_1, # of connection points: 2
#     Edge 18, Type (0, 1), BuildingBlock: KIFKEQ_clean_linker_1, # of connection points: 2
#     Edge 19, Type (0, 1), BuildingBlock: KIFKEQ_clean_linker_1, # of connection points: 2
#     Edge 20, Type (0, 1), BuildingBlock: KIFKEQ_clean_linker_1, # of connection points: 2
#     Edge 21, Type (0, 1), BuildingBlock: KIFKEQ_clean_linker_1, # of connection points: 2
#     Edge 22, Type (0, 1), BuildingBlock: KIFKEQ_clean_linker_1, # of connection points: 2
#     Edge 23, Type (0, 1), BuildingBlock: KIFKEQ_clean_linker_1, # of connection points: 2
#     Edge 24, Type (0, 1), BuildingBlock: KIFKEQ_clean_linker_1, # of connection points: 2
#     Edge 25, Type (0, 1), BuildingBlock: KIFKEQ_clean_linker_1, # of connection points: 2
#     Edge 26, Type (0, 1), BuildingBlock: KIFKEQ_clean_linker_1, # of connection points: 2
#     Edge 27, Type (0, 1), BuildingBlock: KIFKEQ_clean_linker_1, # of connection points: 2
#     Edge 28, Type (0, 1), BuildingBlock: KIFKEQ_clean_linker_1, # of connection points: 2
#     Edge 29, Type (0, 1), BuildingBlock: KIFKEQ_clean_linker_1, # of connection points: 2
#     Edge 30, Type (0, 1), BuildingBlock: KIFKEQ_clean_linker_1, # of connection points: 2
#     Edge 31, Type (0, 1), BuildingBlock: KIFKEQ_clean_linker_1, # of connection points: 2
#     Edge 32, Type (0, 1), BuildingBlock: KIFKEQ_clean_linker_1, # of connection points: 2
#     Edge 33, Type (0, 1), BuildingBlock: KIFKEQ_clean_linker_1, # of connection points: 2
#     Edge 34, Type (0, 1), BuildingBlock: KIFKEQ_clean_linker_1, # of connection points: 2
#     Edge 35, Type (0, 1), BuildingBlock: KIFKEQ_clean_linker_1, # of connection points: 2
# Relax obj value: 0.307
# Max RMSD: 0.219
# Mean RMSD: 0.206
data_MOF--net-zzz--node1-LEVNOQ01_clean_sbu_1--node2-ESEHIV_clean_linker_0--edge1-KIFKEQ_clean_linker_1
_symmetry_space_group_name_H-M    P1
_symmetry_Int_Tables_number       1
_symmetry_cell_setting            triclinic
loop_
_symmetry_equiv_pos_as_xyz
'x, y, z'
_cell_length_a     42.827106
_cell_length_b     45.482841
_cell_length_c     16.497628
_cell_angle_alpha  89.689717
_cell_angle_beta   90.244822
_cell_angle_gamma 88.594163
loop_
_atom_site_label
_atom_site_type_symbol
_atom_site_fract_x
_atom_site_fract_y
_atom_site_fract_z
_atom_type_partial_charge
H0 H 0.82628 0.6243 0.15586 0.0
H1 H 0.74621 0.62641 0.0002 0.0
H2 H 0.73896 0.59448 0.24581 0.0
C3 C 0.80128 0.62273 0.14795 0.0
C4 C 0.78412 0.61106 0.21205 0.0
C5 C 0.78827 0.62651 0.07022 0.0
C6 C 0.75606 0.62356 0.06043 0.0
C7 C 0.73783 0.61164 0.12265 0.0
C8 C 0.7522 0.60506 0.1986 0.0
H9 H 0.98285 0.81177 0.21586 0.0
H10 H 0.99146 0.74109 0.04784 0.0
H11 H 0.98709 0.72248 0.30498 0.0
C12 C 0.98356 0.78823 0.20468 0.0
C13 C 0.9838 0.76858 0.26987 0.0
C14 C 0.98685 0.77832 0.1257 0.0
C15 C 0.98856 0.74849 0.10991 0.0
C16 C 0.98792 0.72811 0.17394 0.0
C17 C 0.98621 0.73803 0.25504 0.0
H18 H 0.68207 0.87656 0.16098 0.0
H19 H 0.76608 0.87429 0.02339 0.0
H20 H 0.7661 0.91069 0.26313 0.0
C21 C 0.70727 0.87831 0.15948 0.0
C22 C 0.7224 0.89136 0.22525 0.0
C23 C 0.72245 0.8745 0.08517 0.0
C24 C 0.75476 0.87698 0.08178 0.0
C25 C 0.77074 0.89068 0.14477 0.0
C26 C 0.75439 0.89838 0.21649 0.0
H27 H 0.49169 0.69826 0.18238 0.0
H28 H 0.50111 0.78167 0.30218 0.0
H29 H 0.49349 0.77691 0.04068 0.0
C30 C 0.49317 0.72207 0.17992 0.0
C31 C 0.49203 0.73617 0.10497 0.0
C32 C 0.49619 0.73796 0.25153 0.0
C33 C 0.49872 0.76892 0.24735 0.0
C34 C 0.49752 0.78306 0.17049 0.0
C35 C 0.49423 0.76636 0.0999 0.0
H36 H 0.18158 0.37428 0.27478 0.0
H37 H 0.25856 0.37516 0.43772 0.0
H38 H 0.26714 0.41332 0.19987 0.0
C39 C 0.20643 0.37724 0.28435 0.0
C40 C 0.223 0.39285 0.22598 0.0
C41 C 0.21805 0.37512 0.36319 0.0
C42 C 0.25008 0.37747 0.37588 0.0
C43 C 0.26875 0.39116 0.31745 0.0
C44 C 0.25454 0.39992 0.24249 0.0
H45 H 0.03075 0.19211 0.25672 0.0
H46 H 0.01832 0.26497 0.41655 0.0
H47 H 0.01385 0.27887 0.15744 0.0
C48 C 0.02828 0.21572 0.26534 0.0
C49 C 0.02387 0.23406 0.19777 0.0
C50 C 0.02559 0.22674 0.34367 0.0
C51 C 0.02079 0.25672 0.3552 0.0
C52 C 0.01699 0.27585 0.28874 0.0
C53 C 0.01804 0.2645 0.2091 0.0
H54 H 0.32203 0.13443 0.27324 0.0
H55 H 0.23899 0.13192 0.4142 0.0
H56 H 0.24233 0.08925 0.18276 0.0
C57 C 0.29733 0.12985 0.27734 0.0
C58 C 0.28384 0.1129 0.21648 0.0
C59 C 0.28256 0.13272 0.35231 0.0
C60 C 0.25038 0.12905 0.35597 0.0
C61 C 0.23532 0.1132 0.29514 0.0
C62 C 0.25247 0.10425 0.22571 0.0
H63 H 0.5069 0.30782 0.24615 0.0
H64 H 0.49614 0.22206 0.14052 0.0
H65 H 0.5147 0.23153 0.39708 0.0
C66 C 0.50615 0.28405 0.25231 0.0
C67 C 0.51161 0.27119 0.32779 0.0
C68 C 0.50069 0.26677 0.18428 0.0
C69 C 0.5001 0.23581 0.19277 0.0
C70 C 0.50518 0.22303 0.27033 0.0
C71 C 0.51084 0.24104 0.33722 0.0
O72 O 0.05433 0.94981 0.76793 0.0
Mg73 Mg 0.05607 0.97879 0.67028 0.0
O74 O 0.02542 0.98171 0.83274 0.0
Mg75 Mg 0.00421 0.00354 0.72067 0.0
O76 O 0.05195 0.0234 0.66468 0.0
O77 O 0.09751 -0.00291 0.66388 0.0
O78 O 0.98105 0.02632 0.61172 0.0
O79 O 0.0097 0.04976 0.79103 0.0
Mg80 Mg 0.95979 0.02613 0.78735 0.0
O81 O 0.95651 0.98201 0.77949 0.0
O82 O 0.9521 0.05449 0.68914 0.0
O83 O 0.97827 0.04459 0.89311 0.0
O84 O 0.91722 0.01327 0.81443 0.0
C85 C 0.01618 0.94782 0.58311 0.0
C86 C 0.03882 0.95673 0.82971 0.0
C87 C 0.08224 0.02162 0.65303 0.0
C88 C 0.96285 0.0485 0.61998 0.0
C89 C 1.00003 0.0583 0.8603 0.0
C90 C 0.92805 0.98683 0.80609 0.0
O91 O 0.04192 0.95883 0.56413 0.0
O92 O 1.00112 0.95841 0.64387 0.0
O93 O 0.42475 -0.00381 0.79134 0.0
Mg94 Mg 0.44417 0.96511 0.70755 0.0
O95 O 0.46683 0.02261 0.81651 0.0
Mg96 Mg 0.50359 0.00352 0.72091 0.0
O97 O 0.48847 0.95612 0.74829 0.0
O98 O 0.4524 0.92191 0.74081 0.0
O99 O 0.54079 0.98459 0.62488 0.0
O100 O 0.53905 0.99347 0.81745 0.0
Mg101 Mg 0.56334 0.04222 0.73553 0.0
O102 O 0.51878 0.05102 0.69672 0.0
O103 O 0.5821 0.01228 0.64817 0.0
O104 O 0.56998 0.02822 0.85701 0.0
O105 O 0.55443 0.08561 0.70543 0.0
C106 C 0.44693 0.00365 0.5769 0.0
C107 C 0.43791 0.0171 0.82837 0.0
C108 C 0.47992 0.92947 0.76361 0.0
C109 C 0.56944 0.991 0.61154 0.0
C110 C 0.56038 0.00226 0.86402 0.0
C111 C 0.52699 0.07784 0.68255 0.0
O112 O 0.43844 0.97737 0.58469 0.0
O113 O 0.4678 0.01348 0.62349 0.0
O114 O 0.53901 0.43659 0.77404 0.0
Mg115 Mg 0.55657 0.47271 0.70713 0.0
O116 O 0.49643 0.46176 0.80933 0.0
Mg117 Mg 0.5013 0.50242 0.72245 0.0
O118 O 0.55374 0.51145 0.76996 0.0
O119 O 0.59786 0.48449 0.75203 0.0
O120 O 0.50537 0.54324 0.63573 0.0
O121 O 0.49336 0.53298 0.82515 0.0
Mg122 Mg 0.43921 0.5358 0.73089 0.0
O123 O 0.44907 0.49497 0.6829 0.0
O124 O 0.46018 0.56762 0.6536 0.0
O125 O 0.44481 0.54165 0.85766 0.0
O126 O 0.40069 0.51457 0.68947 0.0
C127 C 0.52945 0.4631 0.56857 0.0
C128 C 0.51386 0.43861 0.81414 0.0
C129 C 0.58363 0.50696 0.78349 0.0
C130 C 0.48711 0.56541 0.62166 0.0
C131 C 0.47353 0.54469 0.87197 0.0
C132 C 0.41936 0.49368 0.66584 0.0
O133 O 0.55679 0.47187 0.57939 0.0
O134 O 0.50854 0.47138 0.61782 0.0
O135 O 0.9319 0.46785 0.84427 0.0
Mg136 Mg 0.94079 0.45778 0.72221 0.0
O137 O 0.96312 0.50558 0.83222 0.0
Mg138 Mg 0.9993 0.5008 0.72966 0.0
O139 O 0.98691 0.45367 0.69721 0.0
O140 O 0.95508 0.41603 0.68858 0.0
O141 O 0.03483 0.49285 0.62787 0.0
O142 O 0.03641 0.48052 0.82496 0.0
Mg143 Mg 0.0537 0.53624 0.71812 0.0
O144 O 0.01131 0.55014 0.76314 0.0
O145 O 0.05939 0.5321 0.59267 0.0
O146 O 0.0783 0.50617 0.79669 0.0
O147 O 0.05338 0.57852 0.75144 0.0
C148 C 0.93518 0.51153 0.60703 0.0
C149 C 0.9417 0.49214 0.86993 0.0
C150 C 0.98222 0.4268 0.67573 0.0
C151 C 0.05324 0.50563 0.57995 0.0
C152 C 0.06554 0.48545 0.83515 0.0
C153 C 0.02472 0.57541 0.77307 0.0
O154 O 0.92308 0.4879 0.63238 0.0
O155 O 0.96163 0.52006 0.63438 0.0
H156 H 0.17799 0.13972 0.31426 0.0
H157 H 0.22822 0.05708 0.34387 0.0
H158 H 0.13719 0.12261 0.40615 0.0
H159 H 0.18802 0.04016 0.43647 0.0
H160 H 0.14243 0.03586 0.67781 0.0
H161 H 0.17602 0.05919 0.57893 0.0
H162 H 0.09537 0.08248 0.43226 0.0
H163 H 0.06152 0.05884 0.53187 0.0
C164 C 0.17947 0.11738 0.33729 0.0
C165 C 0.20585 0.09944 0.3203 0.0
C166 C 0.15641 0.10777 0.39084 0.0
C167 C 0.15977 0.08033 0.42981 0.0
C168 C 0.18503 0.06162 0.40825 0.0
C169 C 0.20769 0.071 0.35373 0.0
C170 C 0.13172 0.04685 0.62587 0.0
C171 C 0.0994 0.04524 0.61208 0.0
C172 C 0.15101 0.0598 0.56861 0.0
C173 C 0.13842 0.07163 0.49636 0.0
C174 C 0.10574 0.07312 0.48687 0.0
C175 C 0.08631 0.05996 0.5444 0.0
H176 H 0.5539 0.18723 0.31009 0.0
H177 H 0.45376 0.18952 0.28198 0.0
H178 H 0.54978 0.15003 0.41602 0.0
H179 H 0.44965 0.15135 0.38711 0.0
H180 H 0.4892 0.06268 0.55646 0.0
H181 H 0.47722 0.09355 0.43768 0.0
H182 H 0.51694 0.16774 0.55867 0.0
H183 H 0.52746 0.13742 0.67858 0.0
C184 C 0.5312 0.17822 0.32244 0.0
C185 C 0.50411 0.19132 0.28832 0.0
C186 C 0.52877 0.15746 0.38441 0.0
C187 C 0.49931 0.1487 0.41099 0.0
C188 C 0.47254 0.1582 0.36814 0.0
C189 C 0.47495 0.17952 0.30687 0.0
C190 C 0.49353 0.08596 0.55967 0.0
C191 C 0.50936 0.09759 0.62662 0.0
C192 C 0.48714 0.10348 0.49114 0.0
C193 C 0.49712 0.13258 0.48863 0.0
C194 C 0.50958 0.1451 0.55896 0.0
C195 C 0.51543 0.1278 0.62763 0.0
H196 H 0.29464 0.44569 0.29666 0.0
H197 H 0.31251 0.36088 0.4087 0.0
H198 H 0.33747 0.46607 0.37609 0.0
H199 H 0.35389 0.38179 0.49103 0.0
H200 H 0.37315 0.45596 0.70096 0.0
H201 H 0.34265 0.42753 0.60416 0.0
H202 H 0.40278 0.45509 0.41056 0.0
H203 H 0.43424 0.48251 0.50848 0.0
C204 C 0.30831 0.43111 0.33578 0.0
C205 C 0.29989 0.4016 0.34609 0.0
C206 C 0.33266 0.44289 0.382 0.0
C207 C 0.34878 0.42556 0.44029 0.0
C208 C 0.34179 0.39569 0.44689 0.0
C209 C 0.3181 0.38375 0.39941 0.0
C210 C 0.38058 0.45494 0.63831 0.0
C211 C 0.40644 0.47087 0.61247 0.0
C212 C 0.36301 0.43888 0.58282 0.0
C213 C 0.37027 0.43924 0.49976 0.0
C214 C 0.39672 0.45443 0.4742 0.0
C215 C 0.4149 0.46979 0.53028 0.0
H216 H 0.05611 0.32178 0.27094 0.0
H217 H 0.96529 0.29873 0.35931 0.0
H218 H 0.05647 0.36391 0.36387 0.0
H219 H 0.96589 0.34008 0.45253 0.0
H220 H 0.99953 0.3697 0.68958 0.0
H221 H 0.0103 0.33797 0.574 0.0
H222 H 0.02037 0.4142 0.42051 0.0
H223 H 0.00959 0.44619 0.53711 0.0
C224 C 0.03555 0.32671 0.30685 0.0
C225 C 0.01073 0.30707 0.30827 0.0
C226 C 0.03598 0.35047 0.36081 0.0
C227 C 0.0117 0.35446 0.41684 0.0
C228 C 0.98515 0.33707 0.41072 0.0
C229 C 0.98453 0.31376 0.35633 0.0
C230 C 0.00569 0.3797 0.63223 0.0
C231 C 0.00345 0.41028 0.62193 0.0
C232 C 0.01138 0.36158 0.56585 0.0
C233 C 0.01496 0.37377 0.48815 0.0
C234 C 0.01724 0.40438 0.47979 0.0
C235 C 0.01154 0.42264 0.54674 0.0
H236 H 0.78185 0.94804 0.11697 0.0
H237 H 0.82559 0.86178 0.10917 0.0
H238 H 0.82222 0.96683 0.02795 0.0
H239 H 0.86627 0.88051 0.01985 0.0
H240 H 0.94573 0.94023 0.90412 0.0
H241 H 0.9108 0.91529 -0.00129 0.0
H242 H 0.83116 0.95776 0.88208 0.0
H243 H 0.8658 0.98242 0.78874 0.0
C244 C 0.80104 0.93345 0.09961 0.0
C245 C 0.80095 0.9036 0.12159 0.0
C246 C 0.82377 0.944 0.04688 0.0
C247 C 0.8471 0.92498 0.01521 0.0
C248 C 0.84863 0.8957 0.04293 0.0
C249 C 0.82561 0.88506 0.09503 0.0
C250 C 0.92069 0.94316 0.89671 0.0
C251 C 0.90846 0.96337 0.83942 0.0
C252 C 0.90069 0.92924 0.95161 0.0
C253 C 0.86828 0.93549 0.95001 0.0
C254 C 0.85606 0.95329 0.88699 0.0
C255 C 0.87588 0.96699 0.83244 0.0
H256 H 0.55039 0.81443 0.16065 0.0
H257 H 0.45022 0.82142 0.13783 0.0
H258 H 0.5557 0.85343 0.0585 0.0
H259 H 0.45547 0.85976 0.03535 0.0
H260 H 0.47884 0.87 0.76968 0.0
H261 H 0.48866 0.83991 0.89029 0.0
H262 H 0.52836 0.91409 0.01127 0.0
H263 H 0.51725 0.94479 0.89131 0.0
C264 C 0.52953 0.82571 0.138 0.0
C265 C 0.49991 0.81497 0.15706 0.0
C266 C 0.5326 0.84756 0.0784 0.0
C267 C 0.50601 0.85884 0.03795 0.0
C268 C 0.47631 0.85109 0.06539 0.0
C269 C 0.47327 0.82963 0.12542 0.0
C270 C 0.49071 0.87969 0.82079 0.0
C271 C 0.49705 0.90985 0.82121 0.0
C272 C 0.49616 0.8625 0.8899 0.0
C273 C 0.50845 0.87505 0.96036 0.0
C274 C 0.51855 0.90413 0.9577 0.0
C275 C 0.51264 0.92155 0.88856 0.0
H276 H 0.71266 0.55843 0.16013 0.0
H277 H 0.69239 0.63904 0.02875 0.0
H278 H 0.66974 0.53508 0.09047 0.0
H279 H 0.65067 0.61511 0.95516 0.0
H280 H 0.57016 0.563 0.84297 0.0
H281 H 0.601 0.59052 0.94206 0.0
H282 H 0.6678 0.51787 0.95573 0.0
H283 H 0.63741 0.49088 0.8597 0.0
C284 C 0.6985 0.57151 0.11829 0.0
C285 C 0.7064 0.60055 0.09948 0.0
C286 C 0.67415 0.55792 0.07696 0.0
C287 C 0.65726 0.57286 0.01503 0.0
C288 C 0.66313 0.60279 0.00199 0.0
C289 C 0.68724 0.61649 0.04407 0.0
C290 C 0.59136 0.55302 0.86771 0.0
C291 C 0.60136 0.52483 0.8426 0.0
C292 C 0.60908 0.56875 0.9244 0.0
C293 C 0.63681 0.55633 0.95811 0.0
C294 C 0.64634 0.52805 0.93311 0.0
C295 C 0.629 0.51265 0.87653 0.0
H296 H 0.04082 0.69669 0.14476 0.0
H297 H 0.94045 0.69228 0.13876 0.0
H298 H 0.04451 0.65963 0.03872 0.0
H299 H 0.9439 0.65528 0.03183 0.0
H300 H 0.97383 0.57288 0.87116 0.0
H301 H 0.96349 0.60594 0.98657 0.0
H302 H 0.03029 0.66625 0.89229 0.0
H303 H 0.04241 0.63246 0.78229 0.0
C304 C 0.01965 0.68648 0.12403 0.0
C305 C 0.99037 0.69707 0.15021 0.0
C306 C 0.02165 0.66595 0.06163 0.0
C307 C 0.99442 0.65551 0.02492 0.0
C308 C 0.96526 0.66326 0.05828 0.0
C309 C 0.96328 0.68395 0.12064 0.0
C310 C 0.98591 0.5933 0.87536 0.0
C311 C 0.01 0.59928 0.82109 0.0
C312 C 0.97973 0.61227 0.94027 0.0
C313 C 0.9968 0.63794 0.94968 0.0
C314 C 0.01775 0.6459 0.88856 0.0
C315 C 0.02438 0.6267 0.825 0.0
H316 H 0.97197 0.2241 0.4252 0.0
H317 H 0.0628 0.18191 0.40271 0.0
H318 H 0.95132 0.17976 0.48153 0.0
H319 H 0.04315 0.13777 0.4675 0.0
H320 H 0.99836 0.05279 0.48298 0.0
H321 H 0.01372 0.09935 0.42484 0.0
H322 H 0.94419 0.14454 0.57191 0.0
H323 H 0.92677 0.09811 0.6217 0.0
C324 C 0.98793 0.20568 0.43688 0.0
C325 C 0.01871 0.20597 0.40871 0.0
C326 C 0.97606 0.18001 0.46882 0.0
C327 C 0.99519 0.15455 0.47579 0.0
C328 C 0.02729 0.15643 0.45861 0.0
C329 C 0.03888 0.18187 0.42383 0.0
C330 C 0.98537 0.0726 0.49942 0.0
C331 C 0.9622 0.07206 0.55915 0.0
C332 C 0.99482 0.09944 0.4682 0.0
C333 C 0.98153 0.12598 0.49731 0.0
C334 C 0.95546 0.12483 0.54852 0.0
C335 C 0.94531 0.09802 0.57718 0.0
H336 H 0.27292 0.08312 0.4386 0.0
H337 H 0.33639 0.15515 0.41474 0.0
H338 H 0.31456 0.05223 0.49387 0.0
H339 H 0.37836 0.12384 0.47127 0.0
H340 H 0.43819 0.0596 0.6268 0.0
H341 H 0.3966 0.09371 0.58982 0.0
H342 H 0.36148 0.03112 0.41798 0.0
H343 H 0.40384 -0.00378 0.45541 0.0
C344 C 0.29533 0.09298 0.44926 0.0
C345 C 0.30154 0.12161 0.42128 0.0
C346 C 0.31936 0.07491 0.479 0.0
C347 C 0.34972 0.0854 0.4835 0.0
C348 C 0.35507 0.1152 0.46689 0.0
C349 C 0.33103 0.13328 0.436 0.0
C350 C 0.4225 0.05333 0.57859 0.0
C351 C 0.42491 0.02547 0.54185 0.0
C352 C 0.39838 0.07286 0.55846 0.0
C353 C 0.37593 0.06497 0.50163 0.0
C354 C 0.37849 0.03746 0.46302 0.0
C355 C 0.40282 0.01772 0.48337 0.0
H356 H 0.47063 0.29281 0.43621 0.0
H357 H 0.56751 0.29286 0.36622 0.0
H358 H 0.47721 0.3385 0.50917 0.0
H359 H 0.57483 0.33825 0.44177 0.0
H360 H 0.55607 0.43856 0.43367 0.0
H361 H 0.55594 0.38633 0.39812 0.0
H362 H 0.49924 0.36853 0.60847 0.0
H363 H 0.49718 0.4201 0.63942 0.0
C364 C 0.49371 0.30197 0.44044 0.0
C365 C 0.51853 0.29008 0.39574 0.0
C366 C 0.49758 0.32811 0.48185 0.0
C367 C 0.52635 0.34233 0.47857 0.0
C368 C 0.55222 0.3281 0.44285 0.0
C369 C 0.54823 0.30206 0.40091 0.0
C370 C 0.54303 0.42341 0.47056 0.0
C371 C 0.52604 0.4334 0.53752 0.0
C372 C 0.54353 0.39356 0.45177 0.0
C373 C 0.52785 0.3734 0.50139 0.0
C374 C 0.51116 0.38355 0.56863 0.0
C375 C 0.50979 0.41324 0.58567 0.0
H376 H 0.1654 0.35419 0.4367 0.0
H377 H 0.22337 0.43031 0.41401 0.0
H378 H 0.12346 0.3859 0.4939 0.0
H379 H 0.18178 0.46132 0.46839 0.0
H380 H 0.06075 0.48244 0.42765 0.0
H381 H 0.10217 0.44651 0.38807 0.0
H382 H 0.14184 0.45042 0.62858 0.0
H383 H 0.10159 0.4864 0.66678 0.0
C384 C 0.16954 0.37727 0.44693 0.0
C385 C 0.19768 0.38971 0.4228 0.0
C386 C 0.14559 0.39533 0.47782 0.0
C387 C 0.14975 0.42574 0.48327 0.0
C388 C 0.17843 0.43782 0.46436 0.0
C389 C 0.20232 0.41993 0.43486 0.0
C390 C 0.07854 0.47562 0.47115 0.0
C391 C 0.07847 0.48696 0.54971 0.0
C392 C 0.10168 0.45498 0.44931 0.0
C393 C 0.12421 0.44552 0.50659 0.0
C394 C 0.12422 0.45721 0.58449 0.0
C395 C 0.1015 0.47786 0.60581 0.0
H396 H 0.9471 0.79869 0.00798 0.0
H397 H 0.03973 0.80716 0.10795 0.0
H398 H 0.95286 0.84547 0.93395 0.0
H399 H 0.04536 0.85358 0.03582 0.0
H400 H 0.03231 0.94883 0.99339 0.0
H401 H 0.01337 0.90401 0.05937 0.0
H402 H 0.99222 0.86735 0.82498 0.0
H403 H 0.01105 0.91154 0.75981 0.0
C404 C 0.96889 0.81023 0.0119 0.0
C405 C 0.99297 0.79998 0.06312 0.0
C406 C 0.97198 0.83693 0.97105 0.0
C407 C 0.99895 0.85333 0.98289 0.0
C408 C 0.02394 0.84164 0.02868 0.0
C409 C 0.02101 0.815 0.06835 0.0
C410 C 0.02329 0.93123 0.95675 0.0
C411 C 0.02451 0.93256 0.8723 0.0
C412 C 0.01232 0.90592 0.99392 0.0
C413 C 1.00216 0.88235 0.9464 0.0
C414 C 1.0002 0.88522 0.86233 0.0
C415 C 0.01145 0.9102 0.82543 0.0
H416 H 0.73288 0.92106 0.98845 0.0
H417 H 0.66938 0.84973 0.0246 0.0
H418 H 0.69111 0.95083 0.92925 0.0
H419 H 0.62731 0.87984 0.96323 0.0
H420 H 0.5675 0.94697 0.80729 0.0
H421 H 0.60869 0.91157 0.8394 0.0
H422 H 0.64476 0.97033 0.01989 0.0
H423 H 0.603 0.00652 0.98764 0.0
C424 C 0.71048 0.91097 0.97925 0.0
C425 C 0.70408 0.88324 0.01294 0.0
C426 C 0.68644 0.92838 0.94697 0.0
C427 C 0.65604 0.9179 0.94559 0.0
C428 C 0.65067 0.88843 0.96579 0.0
C429 C 0.67473 0.87107 -0.0005 0.0
C430 C 0.58341 0.95212 0.85615 0.0
C431 C 0.58163 0.97936 0.89663 0.0
C432 C 0.6072 0.93187 0.87344 0.0
C433 C 0.62983 0.93852 0.93097 0.0
C434 C 0.62762 0.96515 0.97397 0.0
C435 C 0.60368 0.9856 0.95654 0.0
H436 H 0.43927 0.7137 0.04627 0.0
H437 H 0.53879 0.71655 0.00957 0.0
H438 H 0.43828 0.66557 0.98237 0.0
H439 H 0.5382 0.66799 0.94732 0.0
H440 H 0.51473 0.58225 0.81056 0.0
H441 H 0.51958 0.63339 0.84572 0.0
H442 H 0.45932 0.62065 0.05194 0.0
H443 H 0.45293 0.56915 0.01369 0.0
C444 C 0.46059 0.70461 0.0203 0.0
C445 C 0.48916 0.7181 0.0332 0.0
C446 C 0.46021 0.67691 0.98573 0.0
C447 C 0.48841 0.66272 0.96433 0.0
C448 C 0.51627 0.67834 0.9652 0.0
C449 C 0.51659 0.70619 -0.00041 0.0
C450 C 0.50325 0.59002 0.86511 0.0
C451 C 0.4832 0.57191 0.90965 0.0
C452 C 0.50589 0.61942 0.88452 0.0
C453 C 0.48894 0.631 0.94951 0.0
C454 C 0.47153 0.61224 -0.00078 0.0
C455 C 0.46825 0.58284 0.97857 0.0
H456 H 0.77849 0.59335 0.93307 0.0
H457 H 0.84701 0.64871 0.04276 0.0
H458 H 0.81918 0.56088 0.88554 0.0
H459 H 0.88762 0.61426 0.0062 0.0
H460 H 0.95695 0.53998 0.95842 0.0
H461 H 0.92073 0.58092 0.97639 0.0
H462 H 0.84374 0.52277 0.93813 0.0
H463 H 0.88039 0.48337 0.9076 0.0
C464 C 0.80236 0.59912 0.94598 0.0
C465 C 0.80941 0.62194 -0.00023 0.0
C466 C 0.82588 0.5795 0.92157 0.0
C467 C 0.85652 0.58226 0.95155 0.0
C468 C 0.86426 0.6094 0.98669 0.0
C469 C 0.84077 0.62979 0.00705 0.0
C470 C 0.93217 0.53641 0.95263 0.0
C471 C 0.92155 0.50955 0.92431 0.0
C472 C 0.91118 0.55993 0.96317 0.0
C473 C 0.87896 0.55646 0.95088 0.0
C474 C 0.86831 0.52759 0.93989 0.0
C475 C 0.88942 0.5044 0.92564 0.0
H476 H 0.97178 0.22058 0.11249 0.0
H477 H 0.072 0.21001 0.11402 0.0
H478 H 0.96796 0.1795 0.01766 0.0
H479 H 0.06839 0.16898 0.01961 0.0
H480 H 0.04013 0.07051 0.98344 0.0
H481 H 0.04727 0.11832 0.04828 0.0
H482 H 0.9823 0.15876 0.87789 0.0
H483 H 0.97572 0.11091 0.8125 0.0
C484 C 0.99305 0.21057 0.08879 0.0
C485 C 0.02225 0.21902 0.11862 0.0
C486 C 0.99089 0.18676 0.03544 0.0
C487 C 0.0179 0.17079 0.01182 0.0
C488 C 0.04718 0.18067 0.03722 0.0
C489 C 0.04931 0.20453 0.08992 0.0
C490 C 0.02808 0.08982 0.95887 0.0
C491 C 0.0079 0.08734 0.89235 0.0
C492 C 0.03208 0.11715 0.99579 0.0
C493 C 0.01547 0.14239 0.96784 0.0
C494 C 0.99544 0.13979 0.90067 0.0
C495 C 0.99188 0.11254 0.86295 0.0
H496 H 0.3367 0.08066 0.2475 0.0
H497 H 0.28103 0.11584 0.04965 0.0
H498 H 0.37595 0.06258 0.15267 0.0
H499 H 0.32073 0.09817 0.95359 0.0
H500 H 0.37646 0.02927 0.80765 0.0
H501 H 0.34042 0.05441 0.89745 0.0
H502 H 0.41667 0.07392 0.05934 0.0
H503 H 0.45317 0.04772 0.96845 0.0
C504 C 0.33285 0.08444 0.18324 0.0
C505 C 0.30556 0.09945 0.15583 0.0
C506 C 0.35564 0.07441 0.12882 0.0
C507 C 0.35186 0.07891 0.04497 0.0
C508 C 0.32441 0.09388 0.01755 0.0
C509 C 0.30148 0.10391 0.07233 0.0
C510 C 0.38572 0.03897 0.86227 0.0
C511 C 0.41768 0.03593 0.88141 0.0
C512 C 0.36494 0.05381 0.91363 0.0
C513 C 0.37528 0.06614 0.9865 0.0
C514 C 0.40763 0.06429 0.00441 0.0
C515 C 0.42867 0.04948 0.9521 0.0
H516 H 0.5482 0.28133 0.08738 0.0
H517 H 0.44868 0.29209 0.11577 0.0
H518 H 0.54847 0.32372 0.99637 0.0
H519 H 0.44867 0.33486 0.02454 0.0
H520 H 0.46443 0.40152 0.80796 0.0
H521 H 0.45851 0.35596 0.88716 0.0
H522 H 0.5416 0.37585 0.02378 0.0
H523 H 0.54779 0.42044 0.94322 0.0
C524 C 0.52613 0.29185 0.07048 0.0
C525 C 0.4983 0.28284 0.1064 0.0
C526 C 0.52632 0.31664 0.02005 0.0
C527 C 0.49865 0.33308 0.00428 0.0
C528 C 0.47036 0.32268 0.03513 0.0
C529 C 0.47025 0.29792 0.08632 0.0
C530 C 0.48096 0.39625 0.85608 0.0
C531 C 0.50655 0.41431 0.86987 0.0
C532 C 0.4777 0.37018 0.90112 0.0
C533 C 0.50002 0.36185 0.96049 0.0
C534 C 0.52455 0.38102 0.97682 0.0
C535 C 0.52793 0.40675 0.93148 0.0
H536 H 0.17991 0.43623 0.24802 0.0
H537 H 0.21967 0.38083 0.06235 0.0
H538 H 0.13975 0.45418 0.1539 0.0
H539 H 0.17914 0.39857 0.96693 0.0
H540 H 0.12282 0.46307 0.79942 0.0
H541 H 0.16094 0.43949 0.88966 0.0
H542 H 0.0933 0.44168 0.08328 0.0
H543 H 0.05501 0.46575 0.99167 0.0
C544 C 0.18046 0.42846 0.18601 0.0
C545 C 0.20355 0.40775 0.16187 0.0
C546 C 0.15696 0.43827 0.13236 0.0
C547 C 0.15573 0.42778 0.05236 0.0
C548 C 0.17934 0.40747 0.02763 0.0
C549 C 0.20285 0.39747 0.08188 0.0
C550 C 0.11593 0.45819 0.86104 0.0
C551 C 0.08598 0.46658 0.88849 0.0
C552 C 0.13782 0.44445 0.91296 0.0
C553 C 0.13069 0.43898 0.9947 0.0
C554 C 0.10003 0.44605 0.02127 0.0
C555 C 0.07787 0.45954 0.96861 0.0
H556 H 0.93598 0.79315 0.35475 0.0
H557 H 0.03582 0.77931 0.35589 0.0
H558 H 0.94158 0.83702 0.43816 0.0
H559 H 0.04163 0.8231 0.439 0.0
H560 H 0.04156 0.92337 0.44748 0.0
H561 H 0.03212 0.8752 0.39077 0.0
H562 H 0.9606 0.86094 0.56924 0.0
H563 H 0.97013 0.90957 0.627 0.0
C564 C 0.95894 0.79837 0.37755 0.0
C565 C 0.98541 0.78242 0.35042 0.0
C566 C 0.96222 0.82384 0.424 0.0
C567 C 0.99208 0.83385 0.4437 0.0
C568 C 0.01832 0.81615 0.42375 0.0
C569 C 0.01499 0.79059 0.37802 0.0
C570 C 0.02366 0.91014 0.47468 0.0
C571 C 0.0068 0.9203 0.54246 0.0
C572 C 0.01848 0.88235 0.44252 0.0
C573 C 0.99622 0.8639 0.47697 0.0
C574 C 0.97814 0.87456 0.542 0.0
C575 C 0.98348 0.90245 0.57475 0.0
H576 H 0.67297 0.86434 0.29904 0.0
H577 H 0.72449 0.94477 0.30217 0.0
H578 H 0.63392 0.88643 0.38943 0.0
H579 H 0.68608 0.96636 0.39416 0.0
H580 H 0.63222 0.98561 0.62155 0.0
H581 H 0.66842 0.95951 0.53434 0.0
H582 H 0.59161 0.92811 0.39149 0.0
H583 H 0.55444 0.95456 0.4811 0.0
C584 C 0.67628 0.8866 0.31982 0.0
C585 C 0.70222 0.90266 0.2932 0.0
C586 C 0.65366 0.89931 0.37115 0.0
C587 C 0.65665 0.92825 0.39885 0.0
C588 C 0.6831 0.94391 0.37461 0.0
C589 C 0.70547 0.93137 0.32249 0.0
C590 C 0.62271 0.97332 0.5715 0.0
C591 C 0.59024 0.97277 0.55788 0.0
C592 C 0.64368 0.95831 0.52122 0.0
C593 C 0.63315 0.94214 0.45484 0.0
C594 C 0.60056 0.94043 0.44218 0.0
C595 C 0.57925 0.9556 0.49334 0.0
H596 H 0.44731 0.70938 0.31274 0.0
H597 H 0.54532 0.72353 0.35194 0.0
H598 H 0.45012 0.66617 0.40067 0.0
H599 H 0.54819 0.68021 0.44207 0.0
H600 H 0.52143 0.61315 0.65855 0.0
H601 H 0.52628 0.65799 0.57601 0.0
H602 H 0.47678 0.61653 0.38064 0.0
H603 H 0.47189 0.57203 0.46338 0.0
C604 C 0.46914 0.70402 0.34354 0.0
C605 C 0.49591 0.7203 0.32727 0.0
C606 C 0.47095 0.67887 0.39237 0.0
C607 C 0.49951 0.66945 0.42714 0.0
C608 C 0.52587 0.68692 0.41602 0.0
C609 C 0.52414 0.71201 0.36574 0.0
C610 C 0.5125 0.61346 0.59699 0.0
C611 C 0.49652 0.58922 0.56672 0.0
C612 C 0.51514 0.6391 0.54996 0.0
C613 C 0.50139 0.641 0.47248 0.0
C614 C 0.48707 0.61596 0.44075 0.0
C615 C 0.48454 0.5904 0.48757 0.0
H616 H 0.8307 0.6388 0.29492 0.0
H617 H 0.78036 0.55783 0.29053 0.0
H618 H 0.86963 0.61634 0.38506 0.0
H619 H 0.81785 0.53593 0.38572 0.0
H620 H 0.90413 0.49027 0.47774 0.0
H621 H 0.86767 0.51602 0.38768 0.0
H622 H 0.88656 0.59767 0.50952 0.0
H623 H 0.92468 0.57165 0.59699 0.0
C624 C 0.82741 0.61639 0.31516 0.0
C625 C 0.80231 0.60012 0.28466 0.0
C626 C 0.84985 0.60345 0.36732 0.0
C627 C 0.84764 0.57391 0.3921 0.0
C628 C 0.8212 0.55839 0.36632 0.0
C629 C 0.79904 0.57121 0.31307 0.0
C630 C 0.90083 0.51383 0.48451 0.0
C631 C 0.91715 0.52885 0.54495 0.0
C632 C 0.87945 0.52864 0.4335 0.0
C633 C 0.87296 0.55896 0.44243 0.0
C634 C 0.89059 0.57434 0.50041 0.0
C635 C 0.91259 0.55948 0.5507 0.0
loop_
_geom_bond_atom_site_label_1
_geom_bond_atom_site_label_2
_geom_bond_distance
_geom_bond_site_symmetry_2
_ccdc_geom_bond_type
H0 C3 0.931 . S
H1 C6 0.928 1_556 S
H2 C8 0.930 . S
C3 H0 0.931 . S
C3 C4 1.413 . S
C3 C5 1.360 . S
C4 C3 1.413 . S
C4 C8 1.429 . S
C5 C3 1.360 . S
C5 C6 1.372 . S
C6 H1 0.928 1_554 S
C6 C5 1.372 . S
C6 C7 1.404 . S
C7 C6 1.404 . S
C7 C8 1.391 . S
C8 H2 0.930 . S
C8 C4 1.429 . S
C8 C7 1.391 . S
H9 C12 0.931 . S
H10 C15 0.928 1_556 S
H11 C17 0.930 . S
C12 H9 0.931 . S
C12 C13 1.413 . S
C12 C14 1.360 . S
C13 C12 1.413 . S
C13 C17 1.429 1_655 S
C14 C12 1.360 . S
C14 C15 1.373 . S
C15 H10 0.928 1_554 S
C15 C14 1.373 . S
C15 C16 1.404 . S
C16 C15 1.404 . S
C16 C17 1.390 1_655 S
C17 H11 0.930 . S
C17 C13 1.429 1_455 S
C17 C16 1.390 1_455 S
H18 C21 0.931 . S
H19 C24 0.928 1_556 S
H20 C26 0.930 . S
C21 H18 0.931 . S
C21 C22 1.413 . S
C21 C23 1.360 . S
C22 C21 1.413 . S
C22 C26 1.429 . S
C23 C21 1.360 . S
C23 C24 1.372 . S
C24 H19 0.928 1_554 S
C24 C23 1.372 . S
C24 C25 1.404 . S
C25 C24 1.404 . S
C25 C26 1.391 . S
C26 H20 0.930 . S
C26 C22 1.429 . S
C26 C25 1.391 . S
H27 C30 0.931 . S
H28 C33 0.928 . S
H29 C35 0.930 1_556 S
C30 H27 0.931 . S
C30 C31 1.413 . S
C30 C32 1.360 . S
C31 C30 1.413 . S
C31 C35 1.429 . S
C32 C30 1.360 . S
C32 C33 1.372 . S
C33 H28 0.928 . S
C33 C32 1.372 . S
C33 C34 1.404 . S
C34 C33 1.404 . S
C34 C35 1.391 . S
C35 H29 0.930 1_554 S
C35 C31 1.429 . S
C35 C34 1.391 . S
H36 C39 0.931 . S
H37 C42 0.928 . S
H38 C44 0.930 . S
C39 H36 0.931 . S
C39 C40 1.413 . S
C39 C41 1.360 . S
C40 C39 1.413 . S
C40 C44 1.429 . S
C41 C39 1.360 . S
C41 C42 1.372 . S
C42 H37 0.928 . S
C42 C41 1.372 . S
C42 C43 1.404 . S
C43 C42 1.404 . S
C43 C44 1.391 . S
C44 H38 0.930 . S
C44 C40 1.429 . S
C44 C43 1.391 . S
H45 C48 0.930 . S
H46 C51 0.928 . S
H47 C53 0.929 . S
C48 H45 0.930 . S
C48 C49 1.413 . S
C48 C50 1.360 . S
C49 C48 1.413 . S
C49 C53 1.429 1_655 S
C50 C48 1.360 . S
C50 C51 1.372 . S
C51 H46 0.928 . S
C51 C50 1.372 . S
C51 C52 1.404 . S
C52 C51 1.404 . S
C52 C53 1.391 1_655 S
C53 H47 0.929 . S
C53 C49 1.429 1_455 S
C53 C52 1.391 1_455 S
H54 C57 0.931 . S
H55 C60 0.928 . S
H56 C62 0.930 . S
C57 H54 0.931 . S
C57 C58 1.413 . S
C57 C59 1.360 . S
C58 C57 1.413 . S
C58 C62 1.429 . S
C59 C57 1.360 . S
C59 C60 1.372 . S
C60 H55 0.928 . S
C60 C59 1.372 . S
C60 C61 1.404 . S
C61 C60 1.404 . S
C61 C62 1.391 . S
C62 H56 0.930 . S
C62 C58 1.429 . S
C62 C61 1.391 . S
H63 C66 0.931 . S
H64 C69 0.928 . S
H65 C71 0.930 . S
C66 H63 0.931 . S
C66 C67 1.413 . S
C66 C68 1.360 . S
C67 C66 1.413 . S
C67 C71 1.429 . S
C68 C66 1.360 . S
C68 C69 1.372 . S
C69 H64 0.928 . S
C69 C68 1.372 . S
C69 C70 1.404 . S
C70 C69 1.404 . S
C70 C71 1.391 . S
C71 H65 0.930 . S
C71 C67 1.429 . S
C71 C70 1.391 . S
O72 Mg73 1.990 . S
O72 C86 1.253 . S
Mg73 O72 1.990 . S
Mg73 O76 2.180 1_565 S
Mg73 O77 2.117 . S
Mg73 O91 2.030 . S
O74 Mg75 2.072 1_465 S
O74 C86 1.260 . S
Mg75 O74 2.072 1_645 S
Mg75 O76 2.099 1_655 S
Mg75 O78 2.079 . S
Mg75 O79 2.072 1_655 S
Mg75 O81 2.099 . S
Mg75 O92 2.079 1_545 S
O76 Mg73 2.180 1_545 S
O76 Mg75 2.099 1_455 S
O76 C87 1.279 . S
O77 Mg73 2.117 . S
O77 C87 1.250 1_565 S
O78 Mg75 2.079 . S
O78 C88 1.264 . S
O79 Mg75 2.072 1_455 S
O79 C89 1.260 . S
Mg80 O81 2.180 . S
Mg80 O82 2.030 . S
Mg80 O83 1.990 . S
Mg80 O84 2.117 . S
O81 Mg75 2.099 . S
O81 Mg80 2.180 . S
O81 C90 1.279 . S
O82 Mg80 2.030 . S
O82 C88 1.248 . S
O83 Mg80 1.990 . S
O83 C89 1.253 1_655 S
O84 Mg80 2.117 . S
O84 C90 1.250 . S
C85 O91 1.248 1_655 S
C85 O92 1.264 . S
C86 O72 1.253 . S
C86 O74 1.260 . S
C87 O76 1.279 . S
C87 O77 1.250 1_545 S
C88 O78 1.264 . S
C88 O82 1.248 . S
C89 O79 1.260 . S
C89 O83 1.253 1_455 S
C90 O81 1.279 . S
C90 O84 1.250 . S
O91 Mg73 2.030 . S
O91 C85 1.248 1_455 S
O92 Mg75 2.079 1_565 S
O92 C85 1.264 . S
O93 Mg94 1.990 1_545 S
O93 C107 1.253 . S
Mg94 O93 1.990 1_565 S
Mg94 O97 2.180 . S
Mg94 O98 2.117 . S
Mg94 O112 2.030 1_565 S
O95 Mg96 2.072 . S
O95 C107 1.260 . S
Mg96 O95 2.072 . S
Mg96 O97 2.099 1_545 S
Mg96 O99 2.079 1_545 S
Mg96 O100 2.072 1_545 S
Mg96 O102 2.099 . S
Mg96 O113 2.079 . S
O97 Mg94 2.180 . S
O97 Mg96 2.099 1_565 S
O97 C108 1.279 . S
O98 Mg94 2.117 . S
O98 C108 1.250 . S
O99 Mg96 2.079 1_565 S
O99 C109 1.264 . S
O100 Mg96 2.072 1_565 S
O100 C110 1.260 1_565 S
Mg101 O102 2.180 . S
Mg101 O103 2.003 1_545 S
Mg101 O104 1.990 . S
Mg101 O105 2.117 . S
O102 Mg96 2.099 . S
O102 Mg101 2.180 . S
O102 C111 1.279 . S
O103 Mg101 2.003 1_565 S
O103 C109 1.265 . S
O104 Mg101 1.990 . S
O104 C110 1.253 . S
O105 Mg101 2.117 . S
O105 C111 1.250 . S
C106 O112 1.248 . S
C106 O113 1.264 . S
C107 O93 1.253 . S
C107 O95 1.260 . S
C108 O97 1.279 . S
C108 O98 1.250 . S
C109 O99 1.264 . S
C109 O103 1.265 . S
C110 O100 1.260 1_545 S
C110 O104 1.253 . S
C111 O102 1.279 . S
C111 O105 1.250 . S
O112 Mg94 2.030 1_545 S
O112 C106 1.248 . S
O113 Mg96 2.079 . S
O113 C106 1.264 . S
O114 Mg115 1.990 . S
O114 C128 1.253 . S
Mg115 O114 1.990 . S
Mg115 O118 2.180 . S
Mg115 O119 2.117 . S
Mg115 O133 2.030 . S
O116 Mg117 2.072 . S
O116 C128 1.260 . S
Mg117 O116 2.072 . S
Mg117 O118 2.099 . S
Mg117 O120 2.079 . S
Mg117 O121 2.072 . S
Mg117 O123 2.099 . S
Mg117 O134 2.079 . S
O118 Mg115 2.180 . S
O118 Mg117 2.099 . S
O118 C129 1.279 . S
O119 Mg115 2.117 . S
O119 C129 1.250 . S
O120 Mg117 2.079 . S
O120 C130 1.264 . S
O121 Mg117 2.072 . S
O121 C131 1.260 . S
Mg122 O123 2.180 . S
Mg122 O124 2.030 . S
Mg122 O125 1.990 . S
Mg122 O126 2.117 . S
O123 Mg117 2.099 . S
O123 Mg122 2.180 . S
O123 C132 1.279 . S
O124 Mg122 2.030 . S
O124 C130 1.248 . S
O125 Mg122 1.990 . S
O125 C131 1.253 . S
O126 Mg122 2.117 . S
O126 C132 1.250 . S
C127 O133 1.248 . S
C127 O134 1.264 . S
C128 O114 1.253 . S
C128 O116 1.260 . S
C129 O118 1.279 . S
C129 O119 1.250 . S
C130 O120 1.264 . S
C130 O124 1.248 . S
C131 O121 1.260 . S
C131 O125 1.253 . S
C132 O123 1.279 . S
C132 O126 1.250 . S
O133 Mg115 2.030 . S
O133 C127 1.248 . S
O134 Mg117 2.079 . S
O134 C127 1.264 . S
O135 Mg136 1.990 . S
O135 C149 1.253 . S
Mg136 O135 1.990 . S
Mg136 O139 2.180 . S
Mg136 O140 2.117 . S
Mg136 O154 2.030 . S
O137 Mg138 2.072 1_655 S
O137 C149 1.260 . S
Mg138 O137 2.072 1_455 S
Mg138 O139 2.099 1_455 S
Mg138 O141 2.079 . S
Mg138 O142 2.072 . S
Mg138 O144 2.099 . S
Mg138 O155 2.079 1_455 S
O139 Mg136 2.180 . S
O139 Mg138 2.099 1_655 S
O139 C150 1.279 . S
O140 Mg136 2.117 . S
O140 C150 1.250 . S
O141 Mg138 2.079 . S
O141 C151 1.264 . S
O142 Mg138 2.072 . S
O142 C152 1.260 . S
Mg143 O144 2.180 . S
Mg143 O145 2.030 . S
Mg143 O146 1.990 . S
Mg143 O147 2.117 . S
O144 Mg138 2.099 . S
O144 Mg143 2.180 . S
O144 C153 1.279 . S
O145 Mg143 2.030 . S
O145 C151 1.248 . S
O146 Mg143 1.990 . S
O146 C152 1.253 . S
O147 Mg143 2.117 . S
O147 C153 1.250 . S
C148 O154 1.248 . S
C148 O155 1.264 . S
C149 O135 1.253 . S
C149 O137 1.260 . S
C150 O139 1.279 . S
C150 O140 1.250 . S
C151 O141 1.264 . S
C151 O145 1.248 . S
C152 O142 1.260 . S
C152 O146 1.253 . S
C153 O144 1.279 . S
C153 O147 1.250 . S
O154 Mg136 2.030 . S
O154 C148 1.248 . S
O155 Mg138 2.079 1_655 S
O155 C148 1.264 . S
H156 C164 0.950 . S
H157 C169 0.950 . S
H158 C166 0.950 . S
H159 C168 0.950 . S
H160 C170 0.950 . S
H161 C172 0.950 . S
H162 C174 0.950 . S
H163 C175 0.950 . S
C164 H156 0.950 . S
C164 C165 1.386 . S
C164 C166 1.391 . S
C165 C164 1.386 . S
C165 C169 1.393 . S
C166 H158 0.950 . S
C166 C164 1.391 . S
C166 C167 1.400 . S
C167 C166 1.400 . S
C167 C168 1.398 . S
C167 C173 1.491 . S
C168 H159 0.950 . S
C168 C167 1.398 . S
C168 C169 1.391 . S
C169 H157 0.950 . S
C169 C165 1.393 . S
C169 C168 1.391 . S
C170 H160 0.950 . S
C170 C171 1.386 . S
C170 C172 1.391 . S
C171 C170 1.386 . S
C171 C175 1.393 . S
C172 H161 0.950 . S
C172 C170 1.391 . S
C172 C173 1.400 . S
C173 C167 1.491 . S
C173 C172 1.400 . S
C173 C174 1.398 . S
C174 H162 0.950 . S
C174 C173 1.398 . S
C174 C175 1.391 . S
C175 H163 0.950 . S
C175 C171 1.393 . S
C175 C174 1.391 . S
H176 C184 0.950 . S
H177 C189 0.950 . S
H178 C186 0.950 . S
H179 C188 0.950 . S
H180 C190 0.950 . S
H181 C192 0.950 . S
H182 C194 0.950 . S
H183 C195 0.950 . S
C184 H176 0.950 . S
C184 C185 1.386 . S
C184 C186 1.391 . S
C185 C184 1.386 . S
C185 C189 1.393 . S
C186 H178 0.950 . S
C186 C184 1.391 . S
C186 C187 1.400 . S
C187 C186 1.400 . S
C187 C188 1.398 . S
C187 C193 1.491 . S
C188 H179 0.950 . S
C188 C187 1.398 . S
C188 C189 1.391 . S
C189 H177 0.950 . S
C189 C185 1.393 . S
C189 C188 1.391 . S
C190 H180 0.950 . S
C190 C191 1.386 . S
C190 C192 1.391 . S
C191 C190 1.386 . S
C191 C195 1.393 . S
C192 H181 0.950 . S
C192 C190 1.391 . S
C192 C193 1.400 . S
C193 C187 1.491 . S
C193 C192 1.400 . S
C193 C194 1.398 . S
C194 H182 0.950 . S
C194 C193 1.398 . S
C194 C195 1.391 . S
C195 H183 0.950 . S
C195 C191 1.393 . S
C195 C194 1.391 . S
H196 C204 0.950 . S
H197 C209 0.950 . S
H198 C206 0.950 . S
H199 C208 0.950 . S
H200 C210 0.950 . S
H201 C212 0.950 . S
H202 C214 0.950 . S
H203 C215 0.950 . S
C204 H196 0.950 . S
C204 C205 1.386 . S
C204 C206 1.391 . S
C205 C204 1.386 . S
C205 C209 1.393 . S
C206 H198 0.950 . S
C206 C204 1.391 . S
C206 C207 1.400 . S
C207 C206 1.400 . S
C207 C208 1.398 . S
C207 C213 1.491 . S
C208 H199 0.950 . S
C208 C207 1.398 . S
C208 C209 1.391 . S
C209 H197 0.950 . S
C209 C205 1.393 . S
C209 C208 1.391 . S
C210 H200 0.950 . S
C210 C211 1.386 . S
C210 C212 1.391 . S
C211 C210 1.386 . S
C211 C215 1.393 . S
C212 H201 0.950 . S
C212 C210 1.391 . S
C212 C213 1.400 . S
C213 C207 1.491 . S
C213 C212 1.400 . S
C213 C214 1.398 . S
C214 H202 0.950 . S
C214 C213 1.398 . S
C214 C215 1.391 . S
C215 H203 0.950 . S
C215 C211 1.393 . S
C215 C214 1.391 . S
H216 C224 0.950 . S
H217 C229 0.950 . S
H218 C226 0.950 . S
H219 C228 0.950 . S
H220 C230 0.950 . S
H221 C232 0.950 . S
H222 C234 0.950 . S
H223 C235 0.951 . S
C224 H216 0.950 . S
C224 C225 1.386 1_455 S
C224 C226 1.391 . S
C225 C224 1.386 1_655 S
C225 C229 1.393 . S
C226 H218 0.950 . S
C226 C224 1.391 . S
C226 C227 1.400 1_455 S
C227 C226 1.400 1_655 S
C227 C228 1.398 . S
C227 C233 1.491 . S
C228 H219 0.950 . S
C228 C227 1.398 . S
C228 C229 1.391 . S
C229 H217 0.950 . S
C229 C225 1.393 . S
C229 C228 1.391 . S
C230 H220 0.950 . S
C230 C231 1.386 . S
C230 C232 1.391 . S
C231 C230 1.386 . S
C231 C235 1.391 1_655 S
C232 H221 0.950 . S
C232 C230 1.391 . S
C232 C233 1.400 . S
C233 C227 1.491 . S
C233 C232 1.400 . S
C233 C234 1.398 1_655 S
C234 H222 0.950 . S
C234 C233 1.398 1_455 S
C234 C235 1.391 . S
C235 H223 0.951 . S
C235 C231 1.391 1_455 S
C235 C234 1.391 . S
H236 C244 0.950 . S
H237 C249 0.950 . S
H238 C246 0.950 . S
H239 C248 0.950 . S
H240 C250 0.950 . S
H241 C252 0.950 . S
H242 C254 0.950 . S
H243 C255 0.950 1_545 S
C244 H236 0.950 . S
C244 C245 1.386 . S
C244 C246 1.391 1_554 S
C245 C244 1.386 . S
C245 C249 1.393 . S
C246 H238 0.950 . S
C246 C244 1.391 1_556 S
C246 C247 1.400 . S
C247 C246 1.400 . S
C247 C248 1.398 1_556 S
C247 C253 1.491 . S
C248 H239 0.950 . S
C248 C247 1.398 1_554 S
C248 C249 1.391 . S
C249 H237 0.950 . S
C249 C245 1.393 . S
C249 C248 1.391 . S
C250 H240 0.950 . S
C250 C251 1.386 . S
C250 C252 1.391 . S
C251 C250 1.386 . S
C251 C255 1.393 . S
C252 H241 0.950 . S
C252 C250 1.391 . S
C252 C253 1.400 . S
C253 C247 1.491 . S
C253 C252 1.400 . S
C253 C254 1.398 . S
C254 H242 0.950 . S
C254 C253 1.398 . S
C254 C255 1.391 . S
C255 H243 0.950 1_565 S
C255 C251 1.393 . S
C255 C254 1.391 . S
H256 C264 0.950 . S
H257 C269 0.950 . S
H258 C266 0.950 . S
H259 C268 0.950 . S
H260 C270 0.950 . S
H261 C272 0.950 . S
H262 C274 0.950 . S
H263 C275 0.950 . S
C264 H256 0.950 . S
C264 C265 1.386 . S
C264 C266 1.391 . S
C265 C264 1.386 . S
C265 C269 1.393 . S
C266 H258 0.950 . S
C266 C264 1.391 . S
C266 C267 1.400 1_554 S
C267 C266 1.400 1_556 S
C267 C268 1.398 . S
C267 C273 1.491 . S
C268 H259 0.950 . S
C268 C267 1.398 . S
C268 C269 1.391 1_556 S
C269 H257 0.950 . S
C269 C265 1.393 . S
C269 C268 1.391 1_554 S
C270 H260 0.950 . S
C270 C271 1.386 . S
C270 C272 1.391 . S
C271 C270 1.386 . S
C271 C275 1.393 . S
C272 H261 0.950 . S
C272 C270 1.391 . S
C272 C273 1.400 . S
C273 C267 1.491 . S
C273 C272 1.400 . S
C273 C274 1.398 . S
C274 H262 0.950 . S
C274 C273 1.398 . S
C274 C275 1.391 . S
C275 H263 0.950 . S
C275 C271 1.393 . S
C275 C274 1.391 . S
H276 C284 0.950 . S
H277 C289 0.950 . S
H278 C286 0.950 . S
H279 C288 0.950 . S
H280 C290 0.950 . S
H281 C292 0.950 . S
H282 C294 0.950 . S
H283 C295 0.950 . S
C284 H276 0.950 . S
C284 C285 1.386 . S
C284 C286 1.391 . S
C285 C284 1.386 . S
C285 C289 1.393 1_554 S
C286 H278 0.950 . S
C286 C284 1.391 . S
C286 C287 1.400 1_554 S
C287 C286 1.400 1_556 S
C287 C288 1.398 . S
C287 C293 1.491 . S
C288 H279 0.950 . S
C288 C287 1.398 . S
C288 C289 1.391 . S
C289 H277 0.950 . S
C289 C285 1.393 1_556 S
C289 C288 1.391 . S
C290 H280 0.950 . S
C290 C291 1.386 . S
C290 C292 1.391 . S
C291 C290 1.386 . S
C291 C295 1.393 . S
C292 H281 0.950 . S
C292 C290 1.391 . S
C292 C293 1.400 . S
C293 C287 1.491 . S
C293 C292 1.400 . S
C293 C294 1.398 . S
C294 H282 0.950 . S
C294 C293 1.398 . S
C294 C295 1.391 . S
C295 H283 0.950 . S
C295 C291 1.393 . S
C295 C294 1.391 . S
H296 C304 0.950 . S
H297 C309 0.950 . S
H298 C306 0.950 . S
H299 C308 0.950 . S
H300 C310 0.950 . S
H301 C312 0.950 . S
H302 C314 0.950 . S
H303 C315 0.950 . S
C304 H296 0.950 . S
C304 C305 1.401 . S
C304 C306 1.391 1_554 S
C305 C304 1.401 . S
C305 C309 1.378 1_455 S
C306 H298 0.950 . S
C306 C304 1.391 1_556 S
C306 C307 1.400 . S
C307 C306 1.400 . S
C307 C308 1.398 1_456 S
C307 C313 1.491 . S
C308 H299 0.950 . S
C308 C307 1.398 1_654 S
C308 C309 1.391 . S
C309 H297 0.950 . S
C309 C305 1.378 1_655 S
C309 C308 1.391 . S
C310 H300 0.950 . S
C310 C311 1.386 1_655 S
C310 C312 1.391 . S
C311 C310 1.386 1_455 S
C311 C315 1.393 . S
C312 H301 0.950 . S
C312 C310 1.391 . S
C312 C313 1.400 1_655 S
C313 C307 1.491 . S
C313 C312 1.400 1_455 S
C313 C314 1.398 . S
C314 H302 0.950 . S
C314 C313 1.398 . S
C314 C315 1.391 . S
C315 H303 0.950 . S
C315 C311 1.393 . S
C315 C314 1.391 . S
H316 C324 0.950 . S
H317 C329 0.950 . S
H318 C326 0.950 . S
H319 C328 0.950 . S
H320 C330 0.950 . S
H321 C332 0.950 . S
H322 C334 0.950 . S
H323 C335 0.950 . S
C324 H316 0.950 . S
C324 C325 1.359 1_655 S
C324 C326 1.391 . S
C325 C324 1.359 1_455 S
C325 C329 1.414 . S
C326 H318 0.950 . S
C326 C324 1.391 . S
C326 C327 1.400 . S
C327 C326 1.400 . S
C327 C328 1.398 1_655 S
C327 C333 1.491 . S
C328 H319 0.950 . S
C328 C327 1.398 1_455 S
C328 C329 1.391 . S
C329 H317 0.950 . S
C329 C325 1.414 . S
C329 C328 1.391 . S
C330 H320 0.950 . S
C330 C331 1.386 1_455 S
C330 C332 1.391 . S
C331 C330 1.386 1_655 S
C331 C335 1.393 . S
C332 H321 0.950 . S
C332 C330 1.391 . S
C332 C333 1.400 1_455 S
C333 C327 1.491 . S
C333 C332 1.400 1_655 S
C333 C334 1.398 . S
C334 H322 0.950 . S
C334 C333 1.398 . S
C334 C335 1.391 . S
C335 H323 0.950 . S
C335 C331 1.393 . S
C335 C334 1.391 . S
H336 C344 0.950 . S
H337 C349 0.950 . S
H338 C346 0.950 . S
H339 C348 0.950 . S
H340 C350 0.950 . S
H341 C352 0.950 . S
H342 C354 0.950 . S
H343 C355 0.950 1_565 S
C344 H336 0.950 . S
C344 C345 1.386 . S
C344 C346 1.391 . S
C345 C344 1.386 . S
C345 C349 1.393 . S
C346 H338 0.950 . S
C346 C344 1.391 . S
C346 C347 1.400 . S
C347 C346 1.400 . S
C347 C348 1.398 . S
C347 C353 1.491 . S
C348 H339 0.950 . S
C348 C347 1.398 . S
C348 C349 1.391 . S
C349 H337 0.950 . S
C349 C345 1.393 . S
C349 C348 1.391 . S
C350 H340 0.950 . S
C350 C351 1.386 . S
C350 C352 1.391 . S
C351 C350 1.386 . S
C351 C355 1.393 . S
C352 H341 0.950 . S
C352 C350 1.391 . S
C352 C353 1.400 . S
C353 C347 1.491 . S
C353 C352 1.400 . S
C353 C354 1.398 . S
C354 H342 0.950 . S
C354 C353 1.398 . S
C354 C355 1.391 . S
C355 H343 0.950 1_545 S
C355 C351 1.393 . S
C355 C354 1.391 . S
H356 C364 0.950 . S
H357 C369 0.950 . S
H358 C366 0.950 . S
H359 C368 0.950 . S
H360 C370 0.950 . S
H361 C372 0.950 . S
H362 C374 0.950 . S
H363 C375 0.950 . S
C364 H356 0.950 . S
C364 C365 1.386 . S
C364 C366 1.391 . S
C365 C364 1.386 . S
C365 C369 1.393 . S
C366 H358 0.950 . S
C366 C364 1.391 . S
C366 C367 1.400 . S
C367 C366 1.400 . S
C367 C368 1.398 . S
C367 C373 1.491 . S
C368 H359 0.950 . S
C368 C367 1.398 . S
C368 C369 1.391 . S
C369 H357 0.950 . S
C369 C365 1.393 . S
C369 C368 1.391 . S
C370 H360 0.950 . S
C370 C371 1.386 . S
C370 C372 1.391 . S
C371 C370 1.386 . S
C371 C375 1.393 . S
C372 H361 0.950 . S
C372 C370 1.391 . S
C372 C373 1.400 . S
C373 C367 1.491 . S
C373 C372 1.400 . S
C373 C374 1.398 . S
C374 H362 0.950 . S
C374 C373 1.398 . S
C374 C375 1.391 . S
C375 H363 0.950 . S
C375 C371 1.393 . S
C375 C374 1.391 . S
H376 C384 0.950 . S
H377 C389 0.950 . S
H378 C386 0.950 . S
H379 C388 0.950 . S
H380 C390 0.950 . S
H381 C392 0.950 . S
H382 C394 0.950 . S
H383 C395 0.950 . S
C384 H376 0.950 . S
C384 C385 1.386 . S
C384 C386 1.391 . S
C385 C384 1.386 . S
C385 C389 1.393 . S
C386 H378 0.950 . S
C386 C384 1.391 . S
C386 C387 1.400 . S
C387 C386 1.400 . S
C387 C388 1.398 . S
C387 C393 1.491 . S
C388 H379 0.950 . S
C388 C387 1.398 . S
C388 C389 1.391 . S
C389 H377 0.950 . S
C389 C385 1.393 . S
C389 C388 1.391 . S
C390 H380 0.950 . S
C390 C391 1.386 . S
C390 C392 1.391 . S
C391 C390 1.386 . S
C391 C395 1.393 . S
C392 H381 0.950 . S
C392 C390 1.391 . S
C392 C393 1.400 . S
C393 C387 1.491 . S
C393 C392 1.400 . S
C393 C394 1.398 . S
C394 H382 0.950 . S
C394 C393 1.398 . S
C394 C395 1.391 . S
C395 H383 0.950 . S
C395 C391 1.393 . S
C395 C394 1.391 . S
H396 C404 0.950 . S
H397 C409 0.950 . S
H398 C406 0.950 . S
H399 C408 0.950 . S
H400 C410 0.950 . S
H401 C412 0.950 1_554 S
H402 C414 0.950 . S
H403 C415 0.950 . S
C404 H396 0.950 . S
C404 C405 1.386 1_556 S
C404 C406 1.391 . S
C405 C404 1.386 1_554 S
C405 C409 1.393 1_655 S
C406 H398 0.950 . S
C406 C404 1.391 . S
C406 C407 1.400 1_655 S
C407 C406 1.400 1_455 S
C407 C408 1.398 1_556 S
C407 C413 1.491 . S
C408 H399 0.950 . S
C408 C407 1.398 1_554 S
C408 C409 1.391 . S
C409 H397 0.950 . S
C409 C405 1.393 1_455 S
C409 C408 1.391 . S
C410 H400 0.950 . S
C410 C411 1.386 . S
C410 C412 1.391 . S
C411 C410 1.386 . S
C411 C415 1.393 . S
C412 H401 0.950 1_556 S
C412 C410 1.391 . S
C412 C413 1.400 . S
C413 C407 1.491 . S
C413 C412 1.400 . S
C413 C414 1.398 . S
C414 H402 0.950 . S
C414 C413 1.398 . S
C414 C415 1.391 . S
C415 H403 0.950 . S
C415 C411 1.393 . S
C415 C414 1.391 . S
H416 C424 0.950 . S
H417 C429 0.950 . S
H418 C426 0.950 . S
H419 C428 0.950 . S
H420 C430 0.950 . S
H421 C432 0.950 . S
H422 C434 0.959 . S
H423 C435 0.950 . S
C424 H416 0.950 . S
C424 C425 1.386 . S
C424 C426 1.391 . S
C425 C424 1.386 . S
C425 C429 1.393 1_554 S
C426 H418 0.950 . S
C426 C424 1.391 . S
C426 C427 1.400 1_554 S
C427 C426 1.400 1_556 S
C427 C428 1.398 . S
C427 C433 1.491 . S
C428 H419 0.950 . S
C428 C427 1.398 . S
C428 C429 1.391 . S
C429 H417 0.950 . S
C429 C425 1.393 1_556 S
C429 C428 1.391 . S
C430 H420 0.950 . S
C430 C431 1.386 . S
C430 C432 1.391 . S
C431 C430 1.386 . S
C431 C435 1.393 1_565 S
C432 H421 0.950 . S
C432 C430 1.391 . S
C432 C433 1.400 . S
C433 C427 1.491 . S
C433 C432 1.400 . S
C433 C434 1.398 . S
C434 H422 0.959 . S
C434 C433 1.398 . S
C434 C435 1.391 1_565 S
C435 H423 0.950 . S
C435 C431 1.393 1_545 S
C435 C434 1.391 1_545 S
H436 C444 0.950 . S
H437 C449 0.950 . S
H438 C446 0.950 . S
H439 C448 0.950 . S
H440 C450 0.950 . S
H441 C452 0.950 . S
H442 C454 0.950 1_554 S
H443 C455 0.950 . S
C444 H436 0.950 . S
C444 C445 1.386 . S
C444 C446 1.391 . S
C445 C444 1.386 . S
C445 C449 1.393 1_554 S
C446 H438 0.950 . S
C446 C444 1.391 . S
C446 C447 1.400 1_554 S
C447 C446 1.400 1_556 S
C447 C448 1.398 . S
C447 C453 1.491 . S
C448 H439 0.950 . S
C448 C447 1.398 . S
C448 C449 1.391 . S
C449 H437 0.950 . S
C449 C445 1.393 1_556 S
C449 C448 1.391 . S
C450 H440 0.950 . S
C450 C451 1.386 . S
C450 C452 1.391 . S
C451 C450 1.386 . S
C451 C455 1.393 . S
C452 H441 0.950 . S
C452 C450 1.391 . S
C452 C453 1.400 . S
C453 C447 1.491 . S
C453 C452 1.400 . S
C453 C454 1.398 . S
C454 H442 0.950 1_556 S
C454 C453 1.398 . S
C454 C455 1.391 . S
C455 H443 0.950 . S
C455 C451 1.393 . S
C455 C454 1.391 . S
H456 C464 0.950 . S
H457 C469 0.950 . S
H458 C466 0.950 . S
H459 C468 0.950 . S
H460 C470 0.950 . S
H461 C472 0.950 . S
H462 C474 0.950 . S
H463 C475 0.950 . S
C464 H456 0.950 . S
C464 C465 1.386 1_556 S
C464 C466 1.391 . S
C465 C464 1.386 1_554 S
C465 C469 1.393 . S
C466 H458 0.950 . S
C466 C464 1.391 . S
C466 C467 1.400 . S
C467 C466 1.400 . S
C467 C468 1.398 . S
C467 C473 1.491 . S
C468 H459 0.950 . S
C468 C467 1.398 . S
C468 C469 1.391 1_556 S
C469 H457 0.950 . S
C469 C465 1.393 . S
C469 C468 1.391 1_554 S
C470 H460 0.950 . S
C470 C471 1.386 . S
C470 C472 1.391 . S
C471 C470 1.386 . S
C471 C475 1.393 . S
C472 H461 0.950 . S
C472 C470 1.391 . S
C472 C473 1.400 . S
C473 C467 1.491 . S
C473 C472 1.400 . S
C473 C474 1.398 . S
C474 H462 0.950 . S
C474 C473 1.398 . S
C474 C475 1.391 . S
C475 H463 0.950 . S
C475 C471 1.393 . S
C475 C474 1.391 . S
H476 C484 0.950 . S
H477 C489 0.950 . S
H478 C486 0.950 . S
H479 C488 0.950 . S
H480 C490 0.950 . S
H481 C492 0.950 . S
H482 C494 0.950 . S
H483 C495 0.950 . S
C484 H476 0.950 . S
C484 C485 1.386 1_655 S
C484 C486 1.391 . S
C485 C484 1.386 1_455 S
C485 C489 1.393 . S
C486 H478 0.950 . S
C486 C484 1.391 . S
C486 C487 1.400 1_655 S
C487 C486 1.400 1_455 S
C487 C488 1.398 . S
C487 C493 1.491 . S
C488 H479 0.950 . S
C488 C487 1.398 . S
C488 C489 1.391 . S
C489 H477 0.950 . S
C489 C485 1.393 . S
C489 C488 1.391 . S
C490 H480 0.950 . S
C490 C491 1.386 . S
C490 C492 1.391 1_556 S
C491 C490 1.386 . S
C491 C495 1.393 1_455 S
C492 H481 0.950 . S
C492 C490 1.391 1_554 S
C492 C493 1.400 . S
C493 C487 1.491 . S
C493 C492 1.400 . S
C493 C494 1.398 1_454 S
C494 H482 0.950 . S
C494 C493 1.398 1_656 S
C494 C495 1.391 . S
C495 H483 0.950 . S
C495 C491 1.393 1_655 S
C495 C494 1.391 . S
H496 C504 0.950 . S
H497 C509 0.950 . S
H498 C506 0.950 . S
H499 C508 0.950 1_556 S
H500 C510 0.950 . S
H501 C512 0.950 . S
H502 C514 0.950 . S
H503 C515 0.950 1_554 S
C504 H496 0.950 . S
C504 C505 1.386 . S
C504 C506 1.391 . S
C505 C504 1.386 . S
C505 C509 1.393 . S
C506 H498 0.950 . S
C506 C504 1.391 . S
C506 C507 1.400 . S
C507 C506 1.400 . S
C507 C508 1.398 . S
C507 C513 1.491 . S
C508 H499 0.950 1_554 S
C508 C507 1.398 . S
C508 C509 1.391 . S
C509 H497 0.950 . S
C509 C505 1.393 . S
C509 C508 1.391 . S
C510 H500 0.950 . S
C510 C511 1.386 . S
C510 C512 1.391 . S
C511 C510 1.386 . S
C511 C515 1.393 . S
C512 H501 0.950 . S
C512 C510 1.391 . S
C512 C513 1.400 1_556 S
C513 C507 1.491 . S
C513 C512 1.400 1_554 S
C513 C514 1.398 . S
C514 H502 0.950 . S
C514 C513 1.398 . S
C514 C515 1.391 1_554 S
C515 H503 0.950 1_556 S
C515 C511 1.393 . S
C515 C514 1.391 1_556 S
H516 C524 0.950 . S
H517 C529 0.950 . S
H518 C526 0.950 . S
H519 C528 0.950 . S
H520 C530 0.950 . S
H521 C532 0.950 . S
H522 C534 0.950 1_554 S
H523 C535 0.950 . S
C524 H516 0.950 . S
C524 C525 1.386 . S
C524 C526 1.391 . S
C525 C524 1.386 . S
C525 C529 1.393 . S
C526 H518 0.950 . S
C526 C524 1.391 . S
C526 C527 1.400 . S
C527 C526 1.400 . S
C527 C528 1.398 . S
C527 C533 1.491 . S
C528 H519 0.950 . S
C528 C527 1.398 . S
C528 C529 1.391 . S
C529 H517 0.950 . S
C529 C525 1.393 . S
C529 C528 1.391 . S
C530 H520 0.950 . S
C530 C531 1.386 . S
C530 C532 1.391 . S
C531 C530 1.386 . S
C531 C535 1.393 . S
C532 H521 0.950 . S
C532 C530 1.391 . S
C532 C533 1.400 1_556 S
C533 C527 1.491 . S
C533 C532 1.400 1_554 S
C533 C534 1.398 1_554 S
C534 H522 0.950 1_556 S
C534 C533 1.398 1_556 S
C534 C535 1.391 . S
C535 H523 0.950 . S
C535 C531 1.393 . S
C535 C534 1.391 . S
H536 C544 0.950 . S
H537 C549 0.950 . S
H538 C546 0.950 . S
H539 C548 0.950 1_556 S
H540 C550 0.950 . S
H541 C552 0.950 . S
H542 C554 0.950 . S
H543 C555 0.950 1_554 S
C544 H536 0.950 . S
C544 C545 1.386 . S
C544 C546 1.391 . S
C545 C544 1.386 . S
C545 C549 1.393 . S
C546 H538 0.950 . S
C546 C544 1.391 . S
C546 C547 1.400 . S
C547 C546 1.400 . S
C547 C548 1.398 . S
C547 C553 1.491 . S
C548 H539 0.950 1_554 S
C548 C547 1.398 . S
C548 C549 1.391 . S
C549 H537 0.950 . S
C549 C545 1.393 . S
C549 C548 1.391 . S
C550 H540 0.950 . S
C550 C551 1.386 . S
C550 C552 1.391 . S
C551 C550 1.386 . S
C551 C555 1.393 . S
C552 H541 0.950 . S
C552 C550 1.391 . S
C552 C553 1.400 1_556 S
C553 C547 1.491 . S
C553 C552 1.400 1_554 S
C553 C554 1.398 . S
C554 H542 0.950 . S
C554 C553 1.398 . S
C554 C555 1.391 1_554 S
C555 H543 0.950 1_556 S
C555 C551 1.393 . S
C555 C554 1.391 1_556 S
H556 C564 0.950 . S
H557 C569 0.950 . S
H558 C566 0.950 . S
H559 C568 0.950 . S
H560 C570 0.950 . S
H561 C572 0.950 . S
H562 C574 0.950 . S
H563 C575 0.950 . S
C564 H556 0.950 . S
C564 C565 1.406 . S
C564 C566 1.391 . S
C565 C564 1.406 . S
C565 C569 1.374 1_655 S
C566 H558 0.950 . S
C566 C564 1.391 . S
C566 C567 1.400 . S
C567 C566 1.400 . S
C567 C568 1.398 1_655 S
C567 C573 1.491 . S
C568 H559 0.950 . S
C568 C567 1.398 1_455 S
C568 C569 1.391 . S
C569 H557 0.950 . S
C569 C565 1.374 1_455 S
C569 C568 1.391 . S
C570 H560 0.950 . S
C570 C571 1.386 1_455 S
C570 C572 1.391 . S
C571 C570 1.386 1_655 S
C571 C575 1.393 . S
C572 H561 0.950 . S
C572 C570 1.391 . S
C572 C573 1.400 1_455 S
C573 C567 1.491 . S
C573 C572 1.400 1_655 S
C573 C574 1.398 . S
C574 H562 0.950 . S
C574 C573 1.398 . S
C574 C575 1.391 . S
C575 H563 0.950 . S
C575 C571 1.393 . S
C575 C574 1.391 . S
H576 C584 0.950 . S
H577 C589 0.950 . S
H578 C586 0.950 . S
H579 C588 0.950 . S
H580 C590 0.950 . S
H581 C592 0.950 . S
H582 C594 0.950 . S
H583 C595 0.950 . S
C584 H576 0.950 . S
C584 C585 1.386 . S
C584 C586 1.391 . S
C585 C584 1.386 . S
C585 C589 1.393 . S
C586 H578 0.950 . S
C586 C584 1.391 . S
C586 C587 1.400 . S
C587 C586 1.400 . S
C587 C588 1.398 . S
C587 C593 1.491 . S
C588 H579 0.950 . S
C588 C587 1.398 . S
C588 C589 1.391 . S
C589 H577 0.950 . S
C589 C585 1.393 . S
C589 C588 1.391 . S
C590 H580 0.950 . S
C590 C591 1.386 . S
C590 C592 1.391 . S
C591 C590 1.386 . S
C591 C595 1.393 . S
C592 H581 0.950 . S
C592 C590 1.391 . S
C592 C593 1.400 . S
C593 C587 1.491 . S
C593 C592 1.400 . S
C593 C594 1.398 . S
C594 H582 0.950 . S
C594 C593 1.398 . S
C594 C595 1.391 . S
C595 H583 0.950 . S
C595 C591 1.393 . S
C595 C594 1.391 . S
H596 C604 0.950 . S
H597 C609 0.950 . S
H598 C606 0.950 . S
H599 C608 0.950 . S
H600 C610 0.950 . S
H601 C612 0.950 . S
H602 C614 0.950 . S
H603 C615 0.950 . S
C604 H596 0.950 . S
C604 C605 1.386 . S
C604 C606 1.391 . S
C605 C604 1.386 . S
C605 C609 1.393 . S
C606 H598 0.950 . S
C606 C604 1.391 . S
C606 C607 1.400 . S
C607 C606 1.400 . S
C607 C608 1.398 . S
C607 C613 1.491 . S
C608 H599 0.950 . S
C608 C607 1.398 . S
C608 C609 1.391 . S
C609 H597 0.950 . S
C609 C605 1.393 . S
C609 C608 1.391 . S
C610 H600 0.950 . S
C610 C611 1.386 . S
C610 C612 1.391 . S
C611 C610 1.386 . S
C611 C615 1.393 . S
C612 H601 0.950 . S
C612 C610 1.391 . S
C612 C613 1.400 . S
C613 C607 1.491 . S
C613 C612 1.400 . S
C613 C614 1.398 . S
C614 H602 0.950 . S
C614 C613 1.398 . S
C614 C615 1.391 . S
C615 H603 0.950 . S
C615 C611 1.393 . S
C615 C614 1.391 . S
H616 C624 0.950 . S
H617 C629 0.950 . S
H618 C626 0.950 . S
H619 C628 0.950 . S
H620 C630 0.950 . S
H621 C632 0.950 . S
H622 C634 0.950 . S
H623 C635 0.950 . S
C624 H616 0.950 . S
C624 C625 1.386 . S
C624 C626 1.391 . S
C625 C624 1.386 . S
C625 C629 1.393 . S
C626 H618 0.950 . S
C626 C624 1.391 . S
C626 C627 1.400 . S
C627 C626 1.400 . S
C627 C628 1.398 . S
C627 C633 1.491 . S
C628 H619 0.950 . S
C628 C627 1.398 . S
C628 C629 1.391 . S
C629 H617 0.950 . S
C629 C625 1.393 . S
C629 C628 1.391 . S
C630 H620 0.950 . S
C630 C631 1.386 . S
C630 C632 1.391 . S
C631 C630 1.386 . S
C631 C635 1.393 . S
C632 H621 0.950 . S
C632 C630 1.391 . S
C632 C633 1.400 . S
C633 C627 1.491 . S
C633 C632 1.400 . S
C633 C634 1.398 . S
C634 H622 0.950 . S
C634 C633 1.398 . S
C634 C635 1.391 . S
C635 H623 0.950 . S
C635 C631 1.393 . S
C635 C634 1.391 . S
C165 C61 1.649 . S
C171 C87 1.561 . S
C191 C111 1.272 . S
C185 C70 1.460 . S
C211 C132 1.534 . S
C205 C43 1.629 . S
C231 C150 1.344 . S
C225 C52 1.476 . S
C251 C90 1.468 1_565 S
C245 C25 1.572 . S
C265 C34 1.358 . S
C271 C108 1.188 . S
C285 C7 1.571 . S
C291 C129 1.430 . S
C305 C16 1.386 1_455 S
C311 C153 1.247 . S
C331 C88 0.429 . S
C325 C50 0.406 1_455 S
C351 C106 0.555 . S
C345 C59 0.603 . S
C371 C127 0.492 . S
C365 C67 0.448 . S
C385 C41 0.572 . S
C391 C151 0.569 . S
C405 C14 0.520 . S
C411 C86 0.505 . S
C431 C110 0.663 1_565 S
C425 C23 0.666 . S
C451 C131 0.564 . S
C445 C31 0.541 . S
C465 C5 0.678 . S
C471 C149 0.648 . S
C485 C49 1.557 1_455 S
C491 C89 1.501 . S
C505 C58 1.679 . S
C511 C107 1.669 . S
C531 C128 1.487 . S
C525 C68 1.537 . S
C551 C152 1.691 . S
C545 C40 1.701 . S
C565 C13 1.424 . S
C571 C85 1.396 . S
C591 C109 1.524 . S
C585 C22 1.564 . S
C611 C130 1.340 . S
C605 C32 1.381 . S
C625 C4 1.584 . S
C631 C148 1.558 . S
