# Generated by pormake.
# Topology ant, (3,6)-cn, num edge types: 1
# Building blocks:
#     Node 0, Type 0, BuildingBlock: VETTIZ_charged_linker_0, # of connection points: 3
#     Node 1, Type 0, BuildingBlock: VETTIZ_charged_linker_0, # of connection points: 3
#     Node 2, Type 0, BuildingBlock: VETTIZ_charged_linker_0, # of connection points: 3
#     Node 3, Type 0, BuildingBlock: VETTIZ_charged_linker_0, # of connection points: 3
#     Node 4, Type 0, BuildingBlock: VETTIZ_charged_linker_0, # of connection points: 3
#     Node 5, Type 0, BuildingBlock: VETTIZ_charged_linker_0, # of connection points: 3
#     Node 6, Type 0, BuildingBlock: VETTIZ_charged_linker_0, # of connection points: 3
#     Node 7, Type 0, BuildingBlock: VETTIZ_charged_linker_0, # of connection points: 3
#     Node 8, Type 1, BuildingBlock: MIDCAF_clean_sbu_0, # of connection points: 6
#     Node 9, Type 1, BuildingBlock: MIDCAF_clean_sbu_0, # of connection points: 6
#     Node 10, Type 1, BuildingBlock: MIDCAF_clean_sbu_0, # of connection points: 6
#     Node 11, Type 1, BuildingBlock: MIDCAF_clean_sbu_0, # of connection points: 6
#     Edge 12, Type (0, 1), BuildingBlock: ZUJKAS_clean_linker_0, # of connection points: 2
#     Edge 13, Type (0, 1), BuildingBlock: ZUJKAS_clean_linker_0, # of connection points: 2
#     Edge 14, Type (0, 1), BuildingBlock: ZUJKAS_clean_linker_0, # of connection points: 2
#     Edge 15, Type (0, 1), BuildingBlock: ZUJKAS_clean_linker_0, # of connection points: 2
#     Edge 16, Type (0, 1), BuildingBlock: ZUJKAS_clean_linker_0, # of connection points: 2
#     Edge 17, Type (0, 1), BuildingBlock: ZUJKAS_clean_linker_0, # of connection points: 2
#     Edge 18, Type (0, 1), BuildingBlock: ZUJKAS_clean_linker_0, # of connection points: 2
#     Edge 19, Type (0, 1), BuildingBlock: ZUJKAS_clean_linker_0, # of connection points: 2
#     Edge 20, Type (0, 1), BuildingBlock: ZUJKAS_clean_linker_0, # of connection points: 2
#     Edge 21, Type (0, 1), BuildingBlock: ZUJKAS_clean_linker_0, # of connection points: 2
#     Edge 22, Type (0, 1), BuildingBlock: ZUJKAS_clean_linker_0, # of connection points: 2
#     Edge 23, Type (0, 1), BuildingBlock: ZUJKAS_clean_linker_0, # of connection points: 2
#     Edge 24, Type (0, 1), BuildingBlock: ZUJKAS_clean_linker_0, # of connection points: 2
#     Edge 25, Type (0, 1), BuildingBlock: ZUJKAS_clean_linker_0, # of connection points: 2
#     Edge 26, Type (0, 1), BuildingBlock: ZUJKAS_clean_linker_0, # of connection points: 2
#     Edge 27, Type (0, 1), BuildingBlock: ZUJKAS_clean_linker_0, # of connection points: 2
#     Edge 28, Type (0, 1), BuildingBlock: ZUJKAS_clean_linker_0, # of connection points: 2
#     Edge 29, Type (0, 1), BuildingBlock: ZUJKAS_clean_linker_0, # of connection points: 2
#     Edge 30, Type (0, 1), BuildingBlock: ZUJKAS_clean_linker_0, # of connection points: 2
#     Edge 31, Type (0, 1), BuildingBlock: ZUJKAS_clean_linker_0, # of connection points: 2
#     Edge 32, Type (0, 1), BuildingBlock: ZUJKAS_clean_linker_0, # of connection points: 2
#     Edge 33, Type (0, 1), BuildingBlock: ZUJKAS_clean_linker_0, # of connection points: 2
#     Edge 34, Type (0, 1), BuildingBlock: ZUJKAS_clean_linker_0, # of connection points: 2
#     Edge 35, Type (0, 1), BuildingBlock: ZUJKAS_clean_linker_0, # of connection points: 2
# Relax obj value: 0.106
# Max RMSD: 0.160
# Mean RMSD: 0.107
data_MOF--net-ant--node1-MIDCAF_clean_sbu_0--node2-VETTIZ_charged_linker_0--edge1-ZUJKAS_clean_linker_0
_symmetry_space_group_name_H-M    P1
_symmetry_Int_Tables_number       1
_symmetry_cell_setting            triclinic
loop_
_symmetry_equiv_pos_as_xyz
'x, y, z'
_cell_length_a     42.358293
_cell_length_b     42.060717
_cell_length_c     116.23618
_cell_angle_alpha  90.238321
_cell_angle_beta   93.646823
_cell_angle_gamma 90.055767
loop_
_atom_site_label
_atom_site_type_symbol
_atom_site_fract_x
_atom_site_fract_y
_atom_site_fract_z
_atom_type_partial_charge
C0 C 0.24195 0.15061 0.09007 0.0
C1 C 0.24515 0.11894 0.08627 0.0
C2 C 0.23735 0.11155 0.0746 0.0
C3 C 0.22313 0.16626 0.07072 0.0
C4 C 0.2311 0.17391 0.08211 0.0
C5 C 0.22642 0.20887 0.08447 0.0
H6 H 0.18104 0.35415 0.06385 0.0
C7 C 0.212 0.19531 0.0647 0.0
C8 C 0.21402 0.22058 0.07264 0.0
H9 H 0.21687 0.33105 0.09846 0.0
H10 H 0.22147 0.27574 0.093 0.0
H11 H 0.23053 0.31211 0.05096 0.0
H12 H 0.13569 0.29428 0.0605 0.0
H13 H 0.13863 0.27761 0.04675 0.0
H14 H 0.14413 0.31986 0.04876 0.0
H15 H 0.19656 0.33006 0.04362 0.0
H16 H 0.21099 0.29169 0.03939 0.0
C17 C 0.259 0.22354 0.08821 0.0
C18 C 0.20141 0.21225 0.09353 0.0
C19 C 0.17309 0.18821 0.0225 0.0
C20 C 0.16162 0.21099 0.01448 0.0
C21 C 0.15921 0.24295 0.01804 0.0
C22 C 0.16813 0.25208 0.02939 0.0
C23 C 0.1797 0.22907 0.0373 0.0
C24 C 0.18206 0.19778 0.03379 0.0
C25 C 0.19529 0.17668 0.04332 0.0
C26 C 0.20024 0.20044 0.05315 0.0
C27 C 0.19101 0.23101 0.04958 0.0
C28 C 0.22703 0.16265 0.03965 0.0
C29 C 0.16973 0.15158 0.04574 0.0
C30 C 0.19023 0.33731 0.07024 0.0
C31 C 0.19877 0.34712 0.08159 0.0
C32 C 0.20991 0.32414 0.08968 0.0
C33 C 0.21275 0.29205 0.08648 0.0
C34 C 0.20432 0.28274 0.07506 0.0
C35 C 0.19318 0.30531 0.06719 0.0
C36 C 0.18503 0.29139 0.05547 0.0
C37 C 0.19336 0.25676 0.05751 0.0
C38 C 0.2047 0.25167 0.069 0.0
C39 C 0.20661 0.30712 0.04682 0.0
C40 C 0.14908 0.2961 0.0526 0.0
H41 H 0.22077 0.12747 0.05813 0.0
H42 H 0.2478 0.15707 0.09898 0.0
H43 H 0.1819 0.19479 0.09182 0.0
H44 H 0.18985 0.23575 0.09335 0.0
H45 H 0.21206 0.20784 0.10236 0.0
H46 H 0.27792 0.21302 0.08318 0.0
H47 H 0.2653 0.21905 0.09749 0.0
H48 H 0.26014 0.24933 0.0866 0.0
H49 H 0.17559 0.16355 0.01999 0.0
H50 H 0.15012 0.2609 0.01205 0.0
H51 H 0.16567 0.27674 0.03154 0.0
H52 H 0.23875 0.17892 0.0337 0.0
H53 H 0.22332 0.13952 0.03512 0.0
H54 H 0.24465 0.15958 0.04699 0.0
H55 H 0.14567 0.16228 0.04497 0.0
H56 H 0.17215 0.14204 0.05458 0.0
H57 H 0.17003 0.13152 0.0395 0.0
H58 H 0.23885 0.08734 0.07147 0.0
C59 C 0.22648 0.13491 0.06684 0.0
C60 C 0.17149 0.80899 0.33692 0.0
C61 C 0.20134 0.80895 0.33223 0.0
C62 C 0.20299 0.80823 0.32017 0.0
C63 C 0.14587 0.8068 0.31759 0.0
C64 C 0.14405 0.8076 0.32943 0.0
C65 C 0.11026 0.80558 0.3328 0.0
H66 H 0.95381 0.79588 0.31563 0.0
C67 C 0.11343 0.80475 0.31219 0.0
C68 C 0.09229 0.80397 0.32103 0.0
H69 H 0.99508 0.79631 0.35058 0.0
H70 H 0.04763 0.80034 0.34347 0.0
H71 H 0.9988 0.85002 0.30579 0.0
H72 H 1.0011 0.74793 0.30624 0.0
H73 H 0.01505 0.75902 0.29296 0.0
H74 H 0.9753 0.76953 0.29625 0.0
H75 H 0.97193 0.82576 0.297 0.0
H76 H 0.00979 0.83762 0.29216 0.0
C77 C 0.10262 0.83625 0.33944 0.0
C78 C 0.10649 0.77466 0.33976 0.0
C79 C 0.09666 0.79976 0.26848 0.0
C80 C 0.06941 0.79689 0.26094 0.0
C81 C 0.0395 0.79648 0.26562 0.0
C82 C 0.03678 0.79843 0.27755 0.0
C83 C 0.06424 0.80066 0.28496 0.0
C84 C 0.09352 0.8015 0.28039 0.0
C85 C 0.12009 0.80354 0.28959 0.0
C86 C 0.10189 0.80353 0.30045 0.0
C87 C 0.06927 0.80187 0.29766 0.0
C88 C 0.13776 0.83538 0.28805 0.0
C89 C 0.14094 0.77342 0.28869 0.0
C90 C 0.97411 0.79725 0.32178 0.0
C91 C 0.97032 0.79613 0.33367 0.0
C92 C 0.99745 0.79711 0.34136 0.0
C93 C 0.02788 0.7995 0.33722 0.0
C94 C 0.03121 0.80052 0.32525 0.0
C95 C 0.00447 0.79924 0.31779 0.0
C96 C 0.01208 0.79931 0.30538 0.0
C97 C 0.04782 0.80111 0.30653 0.0
C98 C 0.05912 0.80201 0.31817 0.0
C99 C 0.9973 0.82955 0.29968 0.0
C100 C 1.00017 0.76751 0.29982 0.0
H101 H 0.17854 0.80672 0.30377 0.0
H102 H 0.16961 0.8092 0.34617 0.0
H103 H 0.12102 0.75516 0.33635 0.0
H104 H 0.08204 0.76544 0.33915 0.0
H105 H 0.11425 0.77826 0.34899 0.0
H106 H 0.11208 0.85746 0.33511 0.0
H107 H 0.11349 0.83562 0.34839 0.0
H108 H 0.07701 0.84047 0.33977 0.0
H109 H 0.12001 0.80056 0.2652 0.0
H110 H 0.01812 0.79387 0.26007 0.0
H111 H 0.01334 0.79769 0.28053 0.0
H112 H 0.12091 0.85455 0.28527 0.0
H113 H 0.15535 0.83317 0.2814 0.0
H114 H 0.14976 0.84433 0.29614 0.0
H115 H 0.12652 0.75259 0.2856 0.0
H116 H 0.15204 0.76586 0.29709 0.0
H117 H 0.15964 0.77705 0.28254 0.0
H118 H 0.22574 0.80838 0.3164 0.0
C119 C 0.17553 0.8073 0.31285 0.0
C120 C 0.7339 0.64255 0.58677 0.0
C121 C 0.73539 0.61059 0.5831 0.0
C122 C 0.72438 0.60275 0.57174 0.0
C123 C 0.71051 0.65761 0.56793 0.0
C124 C 0.72155 0.66568 0.57901 0.0
C125 C 0.71837 0.70091 0.58124 0.0
H126 H 0.67222 0.84644 0.56095 0.0
C127 C 0.69842 0.68658 0.56208 0.0
C128 C 0.70297 0.71224 0.56978 0.0
H129 H 0.71701 0.82425 0.59441 0.0
H130 H 0.71763 0.76841 0.58935 0.0
H131 H 0.71548 0.79915 0.54625 0.0
H132 H 0.62413 0.78989 0.56011 0.0
H133 H 0.62194 0.76897 0.547 0.0
H134 H 0.62937 0.81127 0.54705 0.0
H135 H 0.68126 0.82111 0.54097 0.0
H136 H 0.68944 0.78204 0.53555 0.0
C137 C 0.75196 0.71491 0.58364 0.0
C138 C 0.69636 0.70554 0.59124 0.0
C139 C 0.65039 0.67815 0.52102 0.0
C140 C 0.6362 0.70038 0.51331 0.0
C141 C 0.63318 0.73219 0.51702 0.0
C142 C 0.64467 0.74176 0.52808 0.0
C143 C 0.65927 0.71934 0.53559 0.0
C144 C 0.66152 0.68808 0.53205 0.0
C145 C 0.67691 0.66732 0.54127 0.0
C146 C 0.68377 0.69134 0.5509 0.0
C147 C 0.67366 0.72178 0.5475 0.0
C148 C 0.70774 0.65358 0.53671 0.0
C149 C 0.65237 0.64199 0.54452 0.0
C150 C 0.68251 0.82964 0.56715 0.0
C151 C 0.69478 0.8399 0.57806 0.0
C152 C 0.70722 0.81702 0.58597 0.0
C153 C 0.70776 0.7846 0.58299 0.0
C154 C 0.69569 0.77483 0.57199 0.0
C155 C 0.68318 0.79727 0.56432 0.0
C156 C 0.67096 0.78275 0.55308 0.0
C157 C 0.67872 0.74797 0.55514 0.0
C158 C 0.69325 0.74332 0.56623 0.0
C159 C 0.69 0.79699 0.54338 0.0
C160 C 0.63478 0.78858 0.55161 0.0
H161 H 0.70398 0.61816 0.55571 0.0
H162 H 0.74225 0.64936 0.59543 0.0
H163 H 0.67611 0.68865 0.59037 0.0
H164 H 0.6856 0.72941 0.59134 0.0
H165 H 0.70926 0.7012 0.5997 0.0
H166 H 0.76902 0.70339 0.57803 0.0
H167 H 0.76065 0.71104 0.59274 0.0
H168 H 0.75328 0.74049 0.58167 0.0
H169 H 0.65342 0.6536 0.51847 0.0
H170 H 0.62181 0.74977 0.51139 0.0
H171 H 0.64181 0.76631 0.53032 0.0
H172 H 0.71897 0.67095 0.53103 0.0
H173 H 0.70291 0.63154 0.5316 0.0
H174 H 0.72612 0.64863 0.54365 0.0
H175 H 0.62787 0.65159 0.54358 0.0
H176 H 0.65538 0.63456 0.55362 0.0
H177 H 0.65323 0.62067 0.53888 0.0
H178 H 0.72458 0.57834 0.56873 0.0
C179 C 0.71207 0.62595 0.56418 0.0
C180 C 0.66642 0.30974 0.83443 0.0
C181 C 0.6961 0.30939 0.82961 0.0
C182 C 0.69739 0.31031 0.81754 0.0
C183 C 0.64021 0.31112 0.81519 0.0
C184 C 0.63877 0.3103 0.82705 0.0
C185 C 0.60506 0.30889 0.83053 0.0
H186 H 0.44798 0.30531 0.81409 0.0
C187 C 0.60757 0.31083 0.80991 0.0
C188 C 0.58671 0.30944 0.81883 0.0
H189 H 0.49088 0.30089 0.84878 0.0
H190 H 0.54304 0.30439 0.84139 0.0
H191 H 0.4941 0.35968 0.80484 0.0
H192 H 0.49424 0.25751 0.80349 0.0
H193 H 0.50711 0.27043 0.79025 0.0
H194 H 0.46795 0.28087 0.79425 0.0
H195 H 0.46613 0.33715 0.79586 0.0
H196 H 0.50399 0.34864 0.79092 0.0
C197 C 0.59872 0.33889 0.83775 0.0
C198 C 0.60045 0.27719 0.83694 0.0
C199 C 0.58964 0.31215 0.76626 0.0
C200 C 0.56225 0.31072 0.75876 0.0
C201 C 0.53241 0.31038 0.76348 0.0
C202 C 0.52991 0.31102 0.77545 0.0
C203 C 0.55755 0.31177 0.78283 0.0
C204 C 0.58675 0.31255 0.77819 0.0
C205 C 0.61356 0.31256 0.78731 0.0
C206 C 0.59565 0.31156 0.79821 0.0
C207 C 0.56291 0.31111 0.79553 0.0
C208 C 0.63214 0.34409 0.7863 0.0
C209 C 0.63345 0.28204 0.78577 0.0
C210 C 0.46857 0.30548 0.82012 0.0
C211 C 0.46532 0.30308 0.83203 0.0
C212 C 0.4928 0.30259 0.83955 0.0
C213 C 0.52303 0.30471 0.83525 0.0
C214 C 0.52583 0.30701 0.82328 0.0
C215 C 0.49878 0.30726 0.81597 0.0
C216 C 0.50593 0.30878 0.8035 0.0
C217 C 0.54174 0.30966 0.80449 0.0
C218 C 0.55346 0.30875 0.81608 0.0
C219 C 0.4917 0.34001 0.7984 0.0
C220 C 0.49305 0.27802 0.79746 0.0
H221 H 0.67245 0.31191 0.80123 0.0
H222 H 0.66481 0.30871 0.84368 0.0
H223 H 0.61431 0.25776 0.83314 0.0
H224 H 0.57573 0.26872 0.83623 0.0
H225 H 0.60846 0.27933 0.8462 0.0
H226 H 0.60912 0.36029 0.83385 0.0
H227 H 0.60948 0.33658 0.84668 0.0
H228 H 0.57331 0.34414 0.83815 0.0
H229 H 0.61295 0.31187 0.76293 0.0
H230 H 0.51096 0.30952 0.75789 0.0
H231 H 0.50652 0.31054 0.77848 0.0
H232 H 0.61579 0.36412 0.78403 0.0
H233 H 0.64929 0.34241 0.77948 0.0
H234 H 0.64481 0.35146 0.79447 0.0
H235 H 0.61844 0.26215 0.7822 0.0
H236 H 0.64415 0.27279 0.794 0.0
H237 H 0.6524 0.28612 0.77976 0.0
H238 H 0.72 0.31027 0.81367 0.0
C239 C 0.66972 0.31132 0.81034 0.0
C240 C 0.054 0.81896 0.91228 0.0
C241 C 0.06401 0.84577 0.91891 0.0
C242 C 0.07251 0.84163 0.93074 0.0
C243 C 0.06209 0.78512 0.92912 0.0
C244 C 0.05319 0.78894 0.91756 0.0
C245 C 0.04321 0.75781 0.9119 0.0
H246 H 0.02079 0.59842 0.91747 0.0
C247 C 0.0589 0.75115 0.93201 0.0
C248 C 0.04762 0.73488 0.92198 0.0
H249 H 0.00529 0.65402 0.88645 0.0
H250 H 0.0217 0.70177 0.89705 0.0
H251 H 0.08494 0.62939 0.92544 0.0
H252 H 0.98998 0.64808 0.93455 0.0
H253 H 0.01418 0.65052 0.94736 0.0
H254 H 0.01174 0.61357 0.93941 0.0
H255 H 0.06473 0.60401 0.93493 0.0
H256 H 0.08754 0.63785 0.94025 0.0
C257 C 0.066 0.75038 0.90236 0.0
C258 C 0.00812 0.76059 0.90747 0.0
C259 C 0.09005 0.71381 0.97275 0.0
C260 C 0.08963 0.68386 0.97811 0.0
C261 C 0.07864 0.65731 0.97157 0.0
C262 C 0.06833 0.6605 0.95994 0.0
C263 C 0.06894 0.69057 0.95471 0.0
C264 C 0.07959 0.71659 0.96112 0.0
C265 C 0.07826 0.74671 0.95416 0.0
C266 C 0.06531 0.73439 0.94249 0.0
C267 C 0.05996 0.70155 0.94288 0.0
C268 C 0.11247 0.75956 0.95372 0.0
C269 C 0.05494 0.7699 0.95964 0.0
C270 C 0.02024 0.62091 0.91296 0.0
C271 C 0.01121 0.62243 0.90113 0.0
C272 C 0.01206 0.65217 0.89556 0.0
C273 C 0.02154 0.67985 0.90174 0.0
C274 C 0.03053 0.67775 0.91359 0.0
C275 C 0.02975 0.6485 0.91894 0.0
C276 C 0.04084 0.65002 0.93144 0.0
C277 C 0.04826 0.68506 0.93283 0.0
C278 C 0.04217 0.70145 0.92239 0.0
C279 C 0.07094 0.62914 0.93322 0.0
C280 C 0.01298 0.63985 0.93865 0.0
H281 H 0.07852 0.81029 0.94486 0.0
H282 H 0.04738 0.82117 0.90317 0.0
H283 H 0.99425 0.77327 0.91388 0.0
H284 H 0.99645 0.73729 0.90616 0.0
H285 H 0.00576 0.77411 0.89927 0.0
H286 H 0.09073 0.75682 0.90526 0.0
H287 H 0.05949 0.76409 0.89441 0.0
H288 H 0.06677 0.72487 0.90016 0.0
H289 H 0.09863 0.73469 0.97745 0.0
H290 H 0.07753 0.63406 0.97549 0.0
H291 H 0.0602 0.63936 0.95548 0.0
H292 H 0.12947 0.73969 0.95282 0.0
H293 H 0.11985 0.77281 0.96173 0.0
H294 H 0.11568 0.775 0.94623 0.0
H295 H 0.0362 0.75676 0.96394 0.0
H296 H 0.04183 0.78492 0.95318 0.0
H297 H 0.06738 0.78539 0.96623 0.0
H298 H 0.07954 0.86177 0.93615 0.0
C299 C 0.07167 0.81162 0.93584 0.0
C300 C 0.76497 0.78987 0.16342 0.0
C301 C 0.79404 0.78303 0.16947 0.0
C302 C 0.79517 0.78069 0.18157 0.0
C303 C 0.73923 0.7922 0.1815 0.0
C304 C 0.73781 0.79409 0.16961 0.0
C305 C 0.70458 0.80047 0.16468 0.0
H306 H 0.54964 0.82373 0.17438 0.0
C307 C 0.70732 0.79822 0.18539 0.0
C308 C 0.68671 0.80304 0.17561 0.0
H309 H 0.59135 0.81643 0.14148 0.0
H310 H 0.64331 0.81101 0.15119 0.0
H311 H 0.58918 0.7682 0.18659 0.0
H312 H 0.60351 0.86954 0.18637 0.0
H313 H 0.61484 0.85648 0.20035 0.0
H314 H 0.57438 0.85133 0.19477 0.0
H315 H 0.56423 0.7956 0.19365 0.0
H316 H 0.59997 0.78033 0.20079 0.0
C317 C 0.6936 0.77149 0.15719 0.0
C318 C 0.70458 0.83228 0.15805 0.0
C319 C 0.69119 0.79853 0.22827 0.0
C320 C 0.66477 0.80411 0.2347 0.0
C321 C 0.63563 0.81193 0.22885 0.0
C322 C 0.63275 0.81358 0.21678 0.0
C323 C 0.65932 0.80742 0.21046 0.0
C324 C 0.68797 0.80043 0.21624 0.0
C325 C 0.71384 0.79531 0.20819 0.0
C326 C 0.69597 0.80008 0.19659 0.0
C327 C 0.66404 0.80692 0.19795 0.0
C328 C 0.72595 0.76068 0.20973 0.0
C329 C 0.73932 0.82137 0.21073 0.0
C330 C 0.56997 0.82156 0.16923 0.0
C331 C 0.56628 0.82055 0.15713 0.0
C332 C 0.59345 0.81698 0.15081 0.0
C333 C 0.6236 0.81382 0.15646 0.0
C334 C 0.6267 0.814 0.16858 0.0
C335 C 0.60012 0.81816 0.17474 0.0
C336 C 0.60759 0.81726 0.18754 0.0
C337 C 0.64293 0.81127 0.1881 0.0
C338 C 0.65414 0.80941 0.17698 0.0
C339 C 0.58924 0.78907 0.19251 0.0
C340 C 0.59953 0.85019 0.19262 0.0
H341 H 0.7707 0.78333 0.19679 0.0
H342 H 0.76338 0.79153 0.1541 0.0
H343 H 0.71941 0.85026 0.16293 0.0
H344 H 0.68085 0.84302 0.15686 0.0
H345 H 0.71435 0.82913 0.14948 0.0
H346 H 0.70325 0.74898 0.16098 0.0
H347 H 0.70181 0.77343 0.14833 0.0
H348 H 0.6677 0.7682 0.15667 0.0
H349 H 0.714 0.79289 0.23251 0.0
H350 H 0.61484 0.81607 0.23361 0.0
H351 H 0.60988 0.81926 0.21283 0.0
H352 H 0.70652 0.74442 0.21194 0.0
H353 H 0.74489 0.75912 0.21676 0.0
H354 H 0.73471 0.75049 0.20175 0.0
H355 H 0.72836 0.84404 0.21341 0.0
H356 H 0.75218 0.82774 0.20309 0.0
H357 H 0.75664 0.81404 0.2178 0.0
H358 H 0.81731 0.77585 0.18643 0.0
C359 C 0.76805 0.78527 0.18759 0.0
C360 C 0.56158 0.32317 0.41451 0.0
C361 C 0.57029 0.34946 0.42158 0.0
C362 C 0.58017 0.34428 0.43322 0.0
C363 C 0.57213 0.28758 0.43073 0.0
C364 C 0.56234 0.2925 0.4193 0.0
C365 C 0.55239 0.26186 0.41328 0.0
H366 H 0.52805 0.10239 0.41728 0.0
C367 C 0.56952 0.25328 0.43317 0.0
C368 C 0.55758 0.23797 0.42302 0.0
H369 H 0.51372 0.16012 0.38675 0.0
H370 H 0.53113 0.20696 0.39776 0.0
H371 H 0.59318 0.13133 0.42503 0.0
H372 H 0.4993 0.15114 0.43503 0.0
H373 H 0.52411 0.1525 0.44771 0.0
H374 H 0.52069 0.11603 0.43949 0.0
H375 H 0.57306 0.10579 0.43449 0.0
H376 H 0.59692 0.13881 0.4399 0.0
C377 C 0.57472 0.25575 0.40349 0.0
C378 C 0.51708 0.26461 0.40913 0.0
C379 C 0.60383 0.21166 0.4731 0.0
C380 C 0.60283 0.18129 0.47809 0.0
C381 C 0.59037 0.15565 0.47143 0.0
C382 C 0.57929 0.16008 0.45994 0.0
C383 C 0.58048 0.19054 0.45504 0.0
C384 C 0.59238 0.21575 0.46162 0.0
C385 C 0.5906 0.2466 0.45509 0.0
C386 C 0.57649 0.23553 0.44339 0.0
C387 C 0.57074 0.20273 0.44344 0.0
C388 C 0.62472 0.25937 0.45437 0.0
C389 C 0.56809 0.26937 0.46118 0.0
C390 C 0.52795 0.12519 0.41298 0.0
C391 C 0.51885 0.12766 0.40119 0.0
C392 C 0.52038 0.15766 0.39586 0.0
C393 C 0.53048 0.18477 0.40226 0.0
C394 C 0.53948 0.18174 0.41409 0.0
C395 C 0.53823 0.15215 0.41917 0.0
C396 C 0.54999 0.15249 0.4316 0.0
C397 C 0.55822 0.18726 0.43329 0.0
C398 C 0.55189 0.20456 0.42307 0.0
C399 C 0.5797 0.13089 0.43294 0.0
C400 C 0.52233 0.14233 0.43891 0.0
H401 H 0.58906 0.31134 0.44671 0.0
H402 H 0.55362 0.32651 0.40556 0.0
H403 H 0.50338 0.27609 0.41587 0.0
H404 H 0.50569 0.24134 0.40743 0.0
H405 H 0.51413 0.27926 0.40121 0.0
H406 H 0.59946 0.26245 0.40628 0.0
H407 H 0.5675 0.26999 0.39574 0.0
H408 H 0.57584 0.23044 0.40102 0.0
H409 H 0.61273 0.23194 0.47809 0.0
H410 H 0.58946 0.13205 0.47509 0.0
H411 H 0.57022 0.13954 0.45533 0.0
H412 H 0.64115 0.2397 0.45244 0.0
H413 H 0.63347 0.27044 0.46266 0.0
H414 H 0.62693 0.27679 0.44739 0.0
H415 H 0.55069 0.256 0.46608 0.0
H416 H 0.55336 0.28392 0.45502 0.0
H417 H 0.58145 0.28532 0.46739 0.0
H418 H 0.58725 0.36411 0.43878 0.0
C419 C 0.58126 0.31358 0.4378 0.0
C420 C 0.27427 0.27957 0.66511 0.0
C421 C 0.30392 0.27431 0.67102 0.0
C422 C 0.30623 0.27524 0.68315 0.0
C423 C 0.25041 0.28697 0.6834 0.0
C424 C 0.24775 0.28558 0.67149 0.0
C425 C 0.21404 0.2908 0.66682 0.0
H426 H 0.0608 0.31912 0.67823 0.0
C427 C 0.21907 0.29456 0.68751 0.0
C428 C 0.19744 0.29689 0.67788 0.0
H429 H 0.09728 0.29969 0.64503 0.0
H430 H 0.15066 0.29786 0.65389 0.0
H431 H 0.10282 0.26688 0.6922 0.0
H432 H 0.11427 0.36736 0.68701 0.0
H433 H 0.13003 0.35954 0.70104 0.0
H434 H 0.08855 0.35221 0.69737 0.0
H435 H 0.07759 0.2965 0.69794 0.0
H436 H 0.11377 0.28458 0.70561 0.0
C437 C 0.20228 0.25986 0.66069 0.0
C438 C 0.21319 0.32033 0.65894 0.0
C439 C 0.20744 0.3058 0.73052 0.0
C440 C 0.18198 0.31426 0.73705 0.0
C441 C 0.15287 0.32269 0.73134 0.0
C442 C 0.14889 0.32166 0.71927 0.0
C443 C 0.17434 0.31223 0.71285 0.0
C444 C 0.20319 0.30526 0.71848 0.0
C445 C 0.22801 0.29732 0.71027 0.0
C446 C 0.20912 0.2999 0.69877 0.0
C447 C 0.17764 0.30814 0.70033 0.0
C448 C 0.23928 0.26279 0.71273 0.0
C449 C 0.2544 0.32295 0.71168 0.0
C450 C 0.08021 0.31425 0.67285 0.0
C451 C 0.07469 0.30909 0.66094 0.0
C452 C 0.10083 0.30375 0.65423 0.0
C453 C 0.13177 0.30238 0.65941 0.0
C454 C 0.13665 0.30633 0.67142 0.0
C455 C 0.11103 0.31258 0.67788 0.0
C456 C 0.12019 0.31594 0.69051 0.0
C457 C 0.15545 0.30982 0.69068 0.0
C458 C 0.16517 0.30423 0.67949 0.0
C459 C 0.10266 0.28983 0.697 0.0
C460 C 0.11276 0.35041 0.69428 0.0
H461 H 0.28336 0.28213 0.69855 0.0
H462 H 0.27179 0.27874 0.65578 0.0
H463 H 0.22808 0.33972 0.66294 0.0
H464 H 0.18926 0.33048 0.65752 0.0
H465 H 0.22241 0.31456 0.65044 0.0
H466 H 0.21188 0.23856 0.66535 0.0
H467 H 0.21001 0.25872 0.65174 0.0
H468 H 0.17636 0.25704 0.66048 0.0
H469 H 0.2302 0.29965 0.7347 0.0
H470 H 0.13291 0.32918 0.73624 0.0
H471 H 0.12602 0.32776 0.71543 0.0
H472 H 0.21929 0.24756 0.71518 0.0
H473 H 0.25779 0.2621 0.71994 0.0
H474 H 0.24831 0.25088 0.70512 0.0
H475 H 0.2448 0.34617 0.71446 0.0
H476 H 0.26526 0.32831 0.70351 0.0
H477 H 0.27321 0.31581 0.71826 0.0
H478 H 0.32881 0.2717 0.68789 0.0
C479 C 0.27977 0.28157 0.68934 0.0
Zn480 Zn 0.20062 0.71302 0.13553 0.0
Zn481 Zn 0.13853 0.78308 0.10621 0.0
Zn482 Zn 0.17087 0.74591 0.1211 0.0
C483 C 0.14772 0.72428 0.09532 0.0
C484 C 0.1953 0.81429 0.11213 0.0
O485 O 0.14485 0.74594 0.13701 0.0
O486 O 0.18418 0.73306 0.14948 0.0
C487 C 0.17699 0.67072 0.11945 0.0
O488 O 0.16271 0.71777 0.10501 0.0
O489 O 0.13451 0.75093 0.09372 0.0
O490 O 0.17073 0.81708 0.10547 0.0
O491 O 0.19945 0.78941 0.11849 0.0
O492 O 0.18339 0.6712 0.1302 0.0
O493 O 0.17492 0.6971 0.11383 0.0
O494 O 0.21873 0.76715 0.12445 0.0
O495 O 0.2439 0.7247 0.13132 0.0
C496 C 0.24472 0.75269 0.12749 0.0
O497 O 0.12452 0.75812 0.12802 0.0
O498 O 0.10107 0.79075 0.11523 0.0
C499 C 0.1564 0.74328 0.14748 0.0
C500 C 0.10066 0.77544 0.12453 0.0
Zn501 Zn 0.55213 0.70684 0.35763 0.0
Zn502 Zn 0.6169 0.77551 0.38993 0.0
Zn503 Zn 0.5846 0.74177 0.37388 0.0
C504 C 0.56155 0.80926 0.38427 0.0
C505 C 0.65531 0.77094 0.37149 0.0
O506 O 0.57678 0.69312 0.38069 0.0
O507 O 0.5487 0.66745 0.36686 0.0
C508 C 0.51474 0.75978 0.36272 0.0
O509 O 0.55736 0.78573 0.37718 0.0
O510 O 0.58545 0.80993 0.39134 0.0
O511 O 0.65457 0.7843 0.38121 0.0
O512 O 0.63149 0.75429 0.36744 0.0
O513 O 0.51506 0.73592 0.35609 0.0
O514 O 0.53855 0.76564 0.36989 0.0
O515 O 0.61208 0.74058 0.35839 0.0
O516 O 0.58445 0.70967 0.346 0.0
C517 C 0.60825 0.72714 0.34841 0.0
O518 O 0.5913 0.71192 0.3895 0.0
O519 O 0.62043 0.74187 0.40176 0.0
C520 C 0.56249 0.66778 0.37682 0.0
C521 C 0.60619 0.71605 0.39941 0.0
Zn522 Zn 0.64901 0.27394 0.60721 0.0
Zn523 Zn 0.70708 0.19928 0.63717 0.0
Zn524 Zn 0.68088 0.23717 0.62222 0.0
C525 C 0.75352 0.24286 0.63092 0.0
C526 C 0.68831 0.16085 0.61893 0.0
O527 O 0.63417 0.25009 0.62896 0.0
O528 O 0.61013 0.28007 0.61549 0.0
C529 C 0.70557 0.30556 0.61403 0.0
O530 O 0.72901 0.25701 0.62622 0.0
O531 O 0.75056 0.21602 0.63558 0.0
O532 O 0.69551 0.15857 0.62959 0.0
O533 O 0.68448 0.18855 0.61429 0.0
O534 O 0.68073 0.30851 0.60753 0.0
O535 O 0.71046 0.28021 0.62009 0.0
O536 O 0.6731 0.21008 0.60581 0.0
O537 O 0.64683 0.24384 0.59416 0.0
C538 C 0.65953 0.21704 0.59589 0.0
O539 O 0.65384 0.23781 0.63797 0.0
O540 O 0.68403 0.21114 0.65078 0.0
C541 C 0.60978 0.26613 0.62507 0.0
C542 C 0.65985 0.2279 0.64836 0.0
Zn543 Zn 0.05532 0.20712 0.85456 0.0
Zn544 Zn 0.10979 0.27558 0.88861 0.0
Zn545 Zn 0.08146 0.23977 0.87248 0.0
C546 C 0.10067 0.21493 0.89795 0.0
C547 C 0.05338 0.30598 0.88249 0.0
O548 O 0.11164 0.24309 0.85761 0.0
O549 O 0.08682 0.21658 0.84323 0.0
C550 C 0.06683 0.164 0.8729 0.0
O551 O 0.08747 0.20891 0.88788 0.0
O552 O 0.11247 0.24191 0.9003 0.0
O553 O 0.07694 0.30854 0.88964 0.0
O554 O 0.05104 0.28196 0.87554 0.0
O555 O 0.05797 0.16533 0.86233 0.0
O556 O 0.07526 0.18963 0.87846 0.0
O557 O 0.03444 0.26093 0.86799 0.0
O558 O 0.01456 0.23102 0.85357 0.0
C559 C 0.01165 0.25383 0.86054 0.0
O560 O 0.12918 0.25528 0.86732 0.0
O561 O 0.14916 0.28661 0.88129 0.0
C562 C 0.10981 0.23351 0.84703 0.0
C563 C 0.15191 0.27288 0.87173 0.0
H564 H 0.17695 0.37201 0.10143 0.0
H565 H 0.17108 0.42819 0.10649 0.0
H566 H 0.20818 0.45542 0.07427 0.0
H567 H 0.2143 0.39942 0.06917 0.0
H568 H 0.21772 0.47503 0.10874 0.0
H569 H 0.12613 0.50684 0.07439 0.0
H570 H 0.13555 0.46615 0.07812 0.0
H571 H 0.16094 0.48848 0.06932 0.0
C572 C 0.18404 0.38994 0.09545 0.0
C573 C 0.19592 0.38119 0.08487 0.0
C574 C 0.18048 0.42203 0.09832 0.0
C575 C 0.1886 0.44597 0.09066 0.0
C576 C 0.20096 0.43735 0.08018 0.0
H577 H 0.19538 0.6532 0.09816 0.0
H578 H 0.1965 0.59901 0.09017 0.0
C579 C 0.2045 0.40531 0.0773 0.0
C580 C 0.18527 0.47995 0.09384 0.0
H581 H 0.1479 0.54924 0.08587 0.0
C582 C 0.20239 0.49121 0.10376 0.0
C583 C 0.16543 0.5011 0.08727 0.0
C584 C 0.14573 0.49007 0.07673 0.0
C585 C 0.2003 0.52304 0.10727 0.0
C586 C 0.18009 0.54406 0.10082 0.0
C587 C 0.16332 0.53302 0.0908 0.0
C588 C 0.17543 0.57725 0.10469 0.0
C589 C 0.21999 0.53398 0.11784 0.0
C590 C 0.16203 0.58304 0.11521 0.0
C591 C 0.16115 0.61382 0.11968 0.0
C592 C 0.1733 0.63951 0.11365 0.0
C593 C 0.1851 0.63399 0.1028 0.0
C594 C 0.18607 0.60302 0.09832 0.0
H595 H 0.23998 0.51754 0.12001 0.0
H596 H 0.22963 0.55819 0.11658 0.0
H597 H 0.20491 0.53482 0.1253 0.0
H598 H 0.15322 0.56354 0.12017 0.0
H599 H 0.1518 0.61741 0.12805 0.0
H600 H 0.94956 0.75519 0.34983 0.0
H601 H 0.89503 0.74762 0.35527 0.0
H602 H 0.86394 0.82345 0.3324 0.0
H603 H 0.91811 0.83063 0.32679 0.0
H604 H 0.85491 0.78599 0.36526 0.0
H605 H 0.80316 0.75422 0.32183 0.0
H606 H 0.84532 0.75626 0.32517 0.0
H607 H 0.82302 0.7919 0.32192 0.0
C608 C 0.93108 0.77035 0.34604 0.0
C609 C 0.93801 0.79331 0.33782 0.0
C610 C 0.89993 0.76589 0.34909 0.0
C611 C 0.8752 0.78436 0.344 0.0
C612 C 0.88236 0.80814 0.33613 0.0
H613 H 0.69555 0.82104 0.37166 0.0
H614 H 0.74816 0.82284 0.36423 0.0
C615 C 0.91337 0.8124 0.33301 0.0
C616 C 0.84208 0.77958 0.34717 0.0
H617 H 0.76634 0.76806 0.33589 0.0
C618 C 0.83562 0.78178 0.35884 0.0
C619 C 0.8169 0.77347 0.33883 0.0
C620 C 0.82247 0.76847 0.32626 0.0
C621 C 0.80463 0.77923 0.36235 0.0
C622 C 0.77924 0.77518 0.35393 0.0
C623 C 0.78576 0.77172 0.34231 0.0
C624 C 0.74583 0.77524 0.35709 0.0
C625 C 0.79944 0.78074 0.37507 0.0
C626 C 0.72626 0.7486 0.35491 0.0
C627 C 0.69586 0.74769 0.35903 0.0
C628 C 0.68468 0.77346 0.36534 0.0
C629 C 0.70368 0.80072 0.36691 0.0
C630 C 0.73382 0.8017 0.36274 0.0
H631 H 0.82118 0.77419 0.38037 0.0
H632 H 0.79304 0.8054 0.37741 0.0
H633 H 0.77995 0.76467 0.3773 0.0
H634 H 0.73498 0.72802 0.35047 0.0
H635 H 0.68182 0.72627 0.3578 0.0
H636 H 0.72145 0.60081 0.60555 0.0
H637 H 0.73115 0.55232 0.61686 0.0
H638 H 0.78245 0.51257 0.58931 0.0
H639 H 0.77426 0.56125 0.57833 0.0
H640 H 0.70656 0.49835 0.61037 0.0
H641 H 0.83484 0.47816 0.61577 0.0
H642 H 0.81855 0.51639 0.61161 0.0
H643 H 0.82427 0.48607 0.6009 0.0
C644 C 0.73589 0.58221 0.60213 0.0
C645 C 0.74675 0.58469 0.59099 0.0
C646 C 0.74128 0.55441 0.60857 0.0
C647 C 0.75775 0.52871 0.60401 0.0
C648 C 0.77036 0.53214 0.5932 0.0
H649 H 0.73695 0.33427 0.59739 0.0
H650 H 0.75632 0.3892 0.5979 0.0
C651 C 0.76521 0.5599 0.58683 0.0
C652 C 0.75718 0.49671 0.60943 0.0
H653 H 0.80186 0.42982 0.61429 0.0
C654 C 0.72757 0.48372 0.61158 0.0
C655 C 0.78453 0.47743 0.61103 0.0
C656 C 0.81732 0.49045 0.60982 0.0
C657 C 0.72426 0.45154 0.61437 0.0
C658 C 0.75129 0.43176 0.6151 0.0
C659 C 0.78116 0.44503 0.61366 0.0
C660 C 0.74791 0.3968 0.61586 0.0
C661 C 0.69156 0.43835 0.61577 0.0
C662 C 0.73826 0.38249 0.62595 0.0
C663 C 0.72746 0.35099 0.62568 0.0
C664 C 0.72638 0.33349 0.61535 0.0
C665 C 0.73825 0.34712 0.60551 0.0
C666 C 0.74922 0.37847 0.60579 0.0
H667 H 0.67274 0.45635 0.61396 0.0
H668 H 0.68697 0.41773 0.6099 0.0
H669 H 0.68992 0.42984 0.62474 0.0
H670 H 0.73695 0.39634 0.63378 0.0
H671 H 0.71768 0.34117 0.63329 0.0
H672 H 0.74236 0.26547 0.82805 0.0
H673 H 0.79457 0.26477 0.83831 0.0
H674 H 0.77034 0.34822 0.85753 0.0
H675 H 0.71753 0.34876 0.84728 0.0
H676 H 0.82985 0.35065 0.84527 0.0
H677 H 0.82172 0.24419 0.87285 0.0
H678 H 0.80609 0.23815 0.85827 0.0
H679 H 0.78731 0.26612 0.86736 0.0
C680 C 0.74799 0.28335 0.8346 0.0
C681 C 0.726 0.30715 0.8369 0.0
C682 C 0.77773 0.28287 0.84048 0.0
C683 C 0.78621 0.30628 0.84874 0.0
C684 C 0.76411 0.3298 0.85125 0.0
H685 H 0.98152 0.27934 0.87863 0.0
H686 H 0.92709 0.30001 0.87807 0.0
C687 C 0.73401 0.33002 0.84545 0.0
C688 C 0.81911 0.30713 0.85392 0.0
H689 H 0.87408 0.25978 0.86808 0.0
C690 C 0.83943 0.33126 0.85052 0.0
C691 C 0.83152 0.28201 0.86086 0.0
C692 C 0.81049 0.25627 0.86515 0.0
C693 C 0.87226 0.32943 0.8531 0.0
C694 C 0.88491 0.30281 0.85916 0.0
C695 C 0.86433 0.28012 0.86338 0.0
C696 C 0.91914 0.29534 0.85957 0.0
C697 C 0.89339 0.35513 0.84885 0.0
C698 C 0.9327 0.28631 0.84936 0.0
C699 C 0.96338 0.2742 0.84968 0.0
C700 C 0.98128 0.27119 0.8602 0.0
C701 C 0.96834 0.28175 0.87039 0.0
C702 C 0.93728 0.29344 0.87009 0.0
H703 H 0.88021 0.37766 0.84722 0.0
H704 H 0.91368 0.35974 0.85517 0.0
H705 H 0.90294 0.34731 0.84063 0.0
H706 H 0.91895 0.28718 0.84118 0.0
H707 H 0.97277 0.26625 0.8417 0.0
H708 H 0.97442 0.57357 0.90808 0.0
H709 H 0.97025 0.52014 0.89989 0.0
H710 H 0.02336 0.54991 0.87137 0.0
H711 H 0.02893 0.60327 0.87983 0.0
H712 H 0.9494 0.49011 0.87957 0.0
H713 H 0.08049 0.48314 0.8868 0.0
H714 H 0.05805 0.51578 0.89215 0.0
H715 H 0.06604 0.51381 0.87715 0.0
C716 C 0.985 0.56887 0.9 0.0
C717 C 0.00273 0.59248 0.89477 0.0
C718 C 0.98232 0.53835 0.89527 0.0
C719 C 0.99713 0.53077 0.88516 0.0
C720 C 0.01231 0.55505 0.87932 0.0
H721 H 0.02708 0.33278 0.86272 0.0
H722 H 0.00611 0.38724 0.86108 0.0
C723 C 0.01523 0.58564 0.88411 0.0
C724 C 0.9999 0.49682 0.88172 0.0
H725 H 0.05388 0.43669 0.88091 0.0
C726 C 0.97226 0.47851 0.87964 0.0
C727 C 0.02976 0.48158 0.88196 0.0
C728 C 0.0603 0.49942 0.88472 0.0
C729 C 0.97376 0.44528 0.87818 0.0
C730 C 0.00352 0.4302 0.87881 0.0
C731 C 0.0311 0.44856 0.88036 0.0
C732 C 0.00704 0.39525 0.87949 0.0
C733 C 0.94372 0.42616 0.87651 0.0
C734 C 0.01313 0.38147 0.89036 0.0
C735 C 0.02528 0.35072 0.8913 0.0
C736 C 0.03135 0.33313 0.88139 0.0
C737 C 0.02228 0.34573 0.87049 0.0
C738 C 0.01043 0.37683 0.86954 0.0
H739 H 0.92244 0.44153 0.87536 0.0
H740 H 0.94486 0.41038 0.86886 0.0
H741 H 0.94126 0.41072 0.88413 0.0
H742 H 0.01083 0.39541 0.89812 0.0
H743 H 0.03212 0.34157 0.8998 0.0
H744 H 0.81742 0.82173 0.15318 0.0
H745 H 0.86994 0.81884 0.14535 0.0
H746 H 0.89004 0.73314 0.16464 0.0
H747 H 0.83775 0.73583 0.17248 0.0
H748 H 0.93265 0.80822 0.16409 0.0
H749 H 0.91071 0.72441 0.12715 0.0
H750 H 0.88036 0.75132 0.13148 0.0
H751 H 0.89153 0.71802 0.14038 0.0
C752 C 0.83281 0.80195 0.15554 0.0
C753 C 0.82363 0.77908 0.16346 0.0
C754 C 0.86278 0.80044 0.15114 0.0
C755 C 0.88371 0.77585 0.15448 0.0
C756 C 0.87413 0.75229 0.16199 0.0
H757 H 0.07112 0.72535 0.13387 0.0
H758 H 0.01954 0.72536 0.14238 0.0
C759 C 0.84434 0.7539 0.16646 0.0
C760 C 0.91632 0.77564 0.15068 0.0
H761 H 0.96295 0.74266 0.13097 0.0
C762 C 0.93936 0.79402 0.15683 0.0
C763 C 0.92487 0.75664 0.14135 0.0
C764 C 0.90071 0.73641 0.13463 0.0
C765 C 0.97098 0.79392 0.15385 0.0
C766 C 0.97947 0.77548 0.14432 0.0
C767 C 0.95638 0.75682 0.13826 0.0
C768 C 0.01193 0.77594 0.14025 0.0
C769 C 0.99512 0.81303 0.16106 0.0
C770 C 0.02481 0.80436 0.13632 0.0
C771 C 0.05437 0.8044 0.13163 0.0
C772 C 0.07159 0.77605 0.13083 0.0
C773 C 0.0588 0.74768 0.13481 0.0
C774 C 0.02923 0.74762 0.13953 0.0
H775 H 0.98693 0.81825 0.16977 0.0
H776 H 0.0181 0.80032 0.16206 0.0
H777 H 0.99909 0.83605 0.15675 0.0
H778 H 0.01156 0.82634 0.13653 0.0
H779 H 0.06349 0.82647 0.12838 0.0
H780 H 0.54213 0.40082 0.43091 0.0
H781 H 0.54108 0.45565 0.42395 0.0
H782 H 0.5957 0.42769 0.39549 0.0
H783 H 0.59567 0.37249 0.40221 0.0
H784 H 0.5862 0.49741 0.42143 0.0
H785 H 0.52578 0.47449 0.37854 0.0
H786 H 0.52908 0.44454 0.38959 0.0
H787 H 0.56166 0.45216 0.38075 0.0
C788 C 0.5537 0.40638 0.42311 0.0
C789 C 0.56878 0.3824 0.41704 0.0
C790 C 0.55316 0.43773 0.41916 0.0
C791 C 0.56791 0.44587 0.40909 0.0
C792 C 0.58337 0.42195 0.40309 0.0
H793 H 0.61196 0.64176 0.38979 0.0
H794 H 0.61398 0.58872 0.3985 0.0
C795 C 0.58344 0.39043 0.40695 0.0
C796 C 0.56732 0.47943 0.40501 0.0
H797 H 0.54774 0.52596 0.38166 0.0
C798 C 0.57763 0.50368 0.41275 0.0
C799 C 0.55576 0.48777 0.39373 0.0
C800 C 0.54214 0.46341 0.38522 0.0
C801 C 0.5768 0.53589 0.40951 0.0
C802 C 0.56626 0.54406 0.3981 0.0
C803 C 0.55599 0.51979 0.39039 0.0
C804 C 0.56478 0.57752 0.39393 0.0
C805 C 0.58642 0.5608 0.41845 0.0
C806 C 0.53663 0.589 0.38841 0.0
C807 C 0.5357 0.61891 0.38325 0.0
C808 C 0.56275 0.63828 0.38365 0.0
C809 C 0.59063 0.62749 0.38956 0.0
C810 C 0.59174 0.59721 0.39456 0.0
H811 H 0.58431 0.55178 0.42734 0.0
H812 H 0.61155 0.56732 0.41759 0.0
H813 H 0.57183 0.58261 0.41732 0.0
H814 H 0.51549 0.57441 0.38781 0.0
H815 H 0.51394 0.62668 0.37872 0.0
H816 H 0.05066 0.33446 0.64036 0.0
H817 H 0.99542 0.33332 0.63245 0.0
H818 H 0.96918 0.2796 0.66189 0.0
H819 H 0.02384 0.28048 0.66976 0.0
H820 H 0.95616 0.28241 0.62646 0.0
H821 H 0.90572 0.35226 0.66118 0.0
H822 H 0.94766 0.35109 0.65922 0.0
H823 H 0.92912 0.31978 0.6669 0.0
C824 C 0.03308 0.32235 0.64512 0.0
C825 C 0.04159 0.30798 0.65578 0.0
C826 C 1.00153 0.32187 0.64062 0.0
C827 C 0.97801 0.30712 0.64673 0.0
C828 C 0.98668 0.29204 0.6572 0.0
H829 H 0.80875 0.21055 0.63109 0.0
H830 H 0.86233 0.23167 0.63281 0.0
C831 C 0.01802 0.29253 0.66168 0.0
C832 C 0.9445 0.30606 0.64211 0.0
H833 H 0.86924 0.31783 0.65015 0.0
C834 C 0.93715 0.29072 0.63153 0.0
C835 C 0.91962 0.31758 0.64855 0.0
C836 C 0.92593 0.33641 0.65953 0.0
C837 C 0.90562 0.28441 0.62768 0.0
C838 C 0.88089 0.29315 0.63471 0.0
C839 C 0.88816 0.31071 0.64483 0.0
C840 C 0.84806 0.28108 0.63249 0.0
C841 C 0.89918 0.26772 0.61626 0.0
C842 C 0.82194 0.30176 0.63195 0.0
C843 C 0.791 0.28959 0.63107 0.0
C844 C 0.78572 0.25663 0.63083 0.0
C845 C 0.81196 0.23612 0.63123 0.0
C846 C 0.8427 0.24817 0.63207 0.0
H847 H 0.9178 0.27327 0.61026 0.0
H848 H 0.89938 0.24164 0.61766 0.0
H849 H 0.87581 0.27451 0.61214 0.0
H850 H 0.82548 0.32725 0.63246 0.0
H851 H 0.77136 0.30583 0.63113 0.0
H852 H 0.32556 0.30895 0.65328 0.0
H853 H 0.37783 0.30521 0.64535 0.0
H854 H 0.40062 0.22496 0.66729 0.0
H855 H 0.34849 0.22838 0.67513 0.0
H856 H 0.43577 0.31055 0.65972 0.0
H857 H 0.42869 0.19651 0.63536 0.0
H858 H 0.39396 0.21811 0.63914 0.0
H859 H 0.41593 0.19484 0.6498 0.0
C860 C 0.34143 0.29002 0.65616 0.0
C861 C 0.33303 0.26899 0.66482 0.0
C862 C 0.37131 0.28804 0.6517 0.0
C863 C 0.39301 0.26472 0.6557 0.0
C864 C 0.38411 0.24287 0.66398 0.0
H865 H 0.5884 0.22308 0.64053 0.0
H866 H 0.53732 0.22361 0.64936 0.0
C867 C 0.3544 0.24496 0.66849 0.0
C868 C 0.42581 0.26477 0.65195 0.0
H869 H 0.4792 0.2206 0.63798 0.0
C870 C 0.44526 0.29095 0.65492 0.0
C871 C 0.43823 0.23897 0.64586 0.0
C872 C 0.41812 0.21057 0.64226 0.0
C873 C 0.47687 0.29202 0.65198 0.0
C874 C 0.48919 0.26648 0.64569 0.0
C875 C 0.46982 0.2401 0.64285 0.0
C876 C 0.52135 0.26755 0.6413 0.0
C877 C 0.49673 0.32046 0.65576 0.0
C878 C 0.52946 0.29217 0.63394 0.0
C879 C 0.55873 0.29221 0.62908 0.0
C880 C 0.58049 0.26745 0.63137 0.0
C881 C 0.57251 0.24292 0.63883 0.0
C882 C 0.5432 0.243 0.64378 0.0
H883 H 0.48888 0.33066 0.66394 0.0
H884 H 0.52219 0.31437 0.65699 0.0
H885 H 0.49391 0.33915 0.64906 0.0
H886 H 0.51277 0.31098 0.63169 0.0
H887 H 0.56403 0.31132 0.6233 0.0
H888 H 0.5158 0.85785 0.16219 0.0
H889 H 0.46084 0.85268 0.15448 0.0
H890 H 0.4886 0.7796 0.13107 0.0
H891 H 0.54341 0.78399 0.13891 0.0
H892 H 0.42963 0.85477 0.13091 0.0
H893 H 0.4247 0.73693 0.15223 0.0
H894 H 0.45567 0.76546 0.1558 0.0
H895 H 0.45651 0.74198 0.14288 0.0
C896 C 0.51026 0.84084 0.15534 0.0
C897 C 0.53397 0.82104 0.15127 0.0
C898 C 0.47889 0.83812 0.15088 0.0
C899 C 0.47065 0.81551 0.14231 0.0
C900 C 0.49449 0.79703 0.13776 0.0
H901 H 0.29531 0.7282 0.11769 0.0
H902 H 0.34984 0.74753 0.11968 0.0
C903 C 0.52585 0.79973 0.1422 0.0
C904 C 0.4369 0.80909 0.13892 0.0
H905 H 0.37986 0.75236 0.14063 0.0
C906 C 0.41864 0.83241 0.133 0.0
C907 C 0.42265 0.78002 0.14178 0.0
C908 C 0.44072 0.7547 0.14861 0.0
C909 C 0.38657 0.82698 0.12958 0.0
C910 C 0.37245 0.79771 0.13235 0.0
C911 C 0.39075 0.77467 0.1384 0.0
C912 C 0.33875 0.78997 0.12921 0.0
C913 C 0.3683 0.85228 0.12285 0.0
C914 C 0.31415 0.80792 0.13358 0.0
C915 C 0.28282 0.79702 0.1323 0.0
C916 C 0.27581 0.76795 0.12674 0.0
C917 C 0.30018 0.75083 0.12194 0.0
C918 C 0.3313 0.76183 0.12309 0.0
H919 H 0.38431 0.86921 0.11877 0.0
H920 H 0.35202 0.84155 0.11604 0.0
H921 H 0.3539 0.86598 0.12879 0.0
H922 H 0.31936 0.82926 0.13859 0.0
H923 H 0.26457 0.81001 0.13641 0.0
H924 H 0.4133 0.33874 0.82576 0.0
H925 H 0.3597 0.33305 0.83216 0.0
H926 H 0.39087 0.25561 0.85428 0.0
H927 H 0.44474 0.2616 0.84804 0.0
H928 H 0.31941 0.28343 0.82997 0.0
H929 H 0.34552 0.31094 0.87631 0.0
H930 H 0.37369 0.31806 0.8656 0.0
H931 H 0.36862 0.27869 0.8712 0.0
C932 C 0.40875 0.32059 0.83203 0.0
C933 C 0.43325 0.30069 0.83644 0.0
C934 C 0.37811 0.31736 0.83568 0.0
C935 C 0.37127 0.29414 0.84379 0.0
C936 C 0.39569 0.27418 0.84821 0.0
H937 H 0.18076 0.23003 0.858 0.0
H938 H 0.23322 0.23485 0.85036 0.0
C939 C 0.42646 0.27761 0.84464 0.0
C940 C 0.33843 0.29057 0.84742 0.0
H941 H 0.29404 0.29164 0.87093 0.0
C942 C 0.31384 0.28527 0.83893 0.0
C943 C 0.3311 0.29335 0.8591 0.0
C944 C 0.35606 0.30088 0.86857 0.0
C945 C 0.28219 0.28259 0.84178 0.0
C946 C 0.27502 0.28455 0.85348 0.0
C947 C 0.29959 0.28988 0.86197 0.0
C948 C 0.24215 0.28226 0.85716 0.0
C949 C 0.25666 0.2786 0.83223 0.0
C950 C 0.22972 0.30721 0.86351 0.0
C951 C 0.19994 0.30444 0.86789 0.0
C952 C 0.18184 0.27669 0.86598 0.0
C953 C 0.19392 0.25193 0.8594 0.0
C954 C 0.22389 0.25468 0.85504 0.0
H955 H 0.26499 0.28598 0.82377 0.0
H956 H 0.24969 0.25319 0.83156 0.0
H957 H 0.23532 0.29269 0.83398 0.0
H958 H 0.24336 0.3287 0.86526 0.0
H959 H 0.19125 0.32389 0.87295 0.0
H960 H 0.24887 0.76608 0.33179 0.0
H961 H 0.30089 0.76849 0.34214 0.0
H962 H 0.27383 0.8543 0.35938 0.0
H963 H 0.22119 0.85172 0.34904 0.0
H964 H 0.33329 0.8567 0.34741 0.0
H965 H 0.32846 0.75408 0.37693 0.0
H966 H 0.31336 0.74516 0.36248 0.0
H967 H 0.29336 0.77389 0.37091 0.0
C968 C 0.25383 0.78515 0.33794 0.0
C969 C 0.2311 0.80869 0.33965 0.0
C970 C 0.28347 0.78645 0.34388 0.0
C971 C 0.29112 0.81142 0.3516 0.0
C972 C 0.26826 0.8347 0.35353 0.0
H973 H 0.48652 0.78659 0.38097 0.0
H974 H 0.43264 0.80859 0.38067 0.0
C975 C 0.23826 0.83315 0.34767 0.0
C976 C 0.32392 0.814 0.35679 0.0
H977 H 0.38038 0.76985 0.3716 0.0
C978 C 0.34348 0.83823 0.35297 0.0
C979 C 0.33714 0.79016 0.36416 0.0
C980 C 0.31694 0.7645 0.36896 0.0
C981 C 0.37638 0.83756 0.35549 0.0
C982 C 0.38991 0.81196 0.36191 0.0
C983 C 0.37002 0.78939 0.36661 0.0
C984 C 0.42426 0.80497 0.36215 0.0
C985 C 0.39663 0.86336 0.3508 0.0
C986 C 0.43754 0.7963 0.35185 0.0
C987 C 0.4679 0.78345 0.35202 0.0
C988 C 0.48576 0.77931 0.3625 0.0
C989 C 0.47335 0.78989 0.37277 0.0
C990 C 0.4426 0.80232 0.37261 0.0
H991 H 0.38299 0.88569 0.34934 0.0
H992 H 0.41763 0.86837 0.35675 0.0
H993 H 0.40506 0.8555 0.3424 0.0
H994 H 0.42365 0.7976 0.3437 0.0
H995 H 0.47689 0.77542 0.34399 0.0
H996 H 0.70897 0.89068 0.56459 0.0
H997 H 0.70815 0.94724 0.56964 0.0
H998 H 0.67874 0.92361 0.6034 0.0
H999 H 0.67957 0.86707 0.59844 0.0
H1000 H 0.65966 0.98583 0.57628 0.0
H1001 H 0.75537 0.9797 0.61094 0.0
H1002 H 0.74748 0.94771 0.60076 0.0
H1003 H 0.72401 0.95206 0.61305 0.0
C1004 C 0.70222 0.89753 0.57309 0.0
C1005 C 0.69453 0.87431 0.58115 0.0
C1006 C 0.70184 0.92987 0.57596 0.0
C1007 C 0.69389 0.93967 0.58696 0.0
C1008 C 0.68571 0.91659 0.59496 0.0
H1009 H 0.66294 0.106 0.62597 0.0
H1010 H 0.6636 0.05405 0.61657 0.0
C1011 C 0.68621 0.88426 0.59211 0.0
C1012 C 0.69391 0.97397 0.5901 0.0
H1013 H 0.72374 0.02677 0.61037 0.0
C1014 C 0.67395 0.99491 0.58365 0.0
C1015 C 0.71287 0.98589 0.59962 0.0
C1016 C 0.73639 0.96525 0.60642 0.0
C1017 C 0.67128 0.02708 0.58685 0.0
C1018 C 0.68911 0.03848 0.5967 0.0
C1019 C 0.7099 0.01785 0.60287 0.0
C1020 C 0.68505 0.07098 0.60136 0.0
C1021 C 0.64858 0.04841 0.58 0.0
C1022 C 0.69632 0.09795 0.59579 0.0
C1023 C 0.69596 0.12788 0.60119 0.0
C1024 C 0.68435 0.13109 0.61219 0.0
C1025 C 0.67201 0.10423 0.61748 0.0
C1026 C 0.67235 0.07453 0.61213 0.0
H1027 H 0.63398 0.0351 0.57332 0.0
H1028 H 0.63265 0.0606 0.58583 0.0
H1029 H 0.66209 0.06704 0.57568 0.0
H1030 H 0.7067 0.09561 0.58755 0.0
H1031 H 0.70653 0.14797 0.59712 0.0
H1032 H 0.22521 0.10802 0.10791 0.0
H1033 H 0.23134 0.0587 0.11895 0.0
H1034 H 0.29042 0.02062 0.09331 0.0
H1035 H 0.28585 0.07019 0.08269 0.0
H1036 H 0.20727 0.00678 0.11082 0.0
H1037 H 0.3331 0.98081 0.12076 0.0
H1038 H 0.31961 0.02012 0.11664 0.0
H1039 H 0.32763 0.9908 0.10582 0.0
C1040 C 0.24062 0.08964 0.10491 0.0
C1041 C 0.25464 0.09279 0.09433 0.0
C1042 C 0.244 0.06136 0.1112 0.0
C1043 C 0.26146 0.0358 0.10702 0.0
C1044 C 0.27743 0.04001 0.09692 0.0
H1045 H 0.21863 0.84811 0.09484 0.0
H1046 H 0.24141 0.90158 0.09639 0.0
C1047 C 0.27434 0.06829 0.09072 0.0
C1048 C 0.25817 1.00324 0.11178 0.0
H1049 H 0.29881 0.93381 0.11664 0.0
C1050 C 0.22741 0.9912 0.11249 0.0
C1051 C 0.28432 0.98263 0.11398 0.0
C1052 C 0.31798 0.99447 0.11438 0.0
C1053 C 0.22206 0.95882 0.11438 0.0
C1054 C 0.24808 0.93785 0.11549 0.0
C1055 C 0.27892 0.95 0.11563 0.0
C1056 C 0.24282 0.90314 0.11501 0.0
C1057 C 0.18849 0.94677 0.1144 0.0
C1058 C 0.2374 0.88595 0.12501 0.0
C1059 C 0.2246 0.85523 0.12414 0.0
C1060 C 0.21703 0.8416 0.11325 0.0
C1061 C 0.22463 0.85803 0.10332 0.0
C1062 C 0.23764 0.88849 0.1042 0.0
H1063 H 0.17104 0.96644 0.11458 0.0
H1064 H 0.18293 0.93218 0.10655 0.0
H1065 H 0.18577 0.93131 0.122 0.0
H1066 H 0.24087 0.89711 0.13341 0.0
H1067 H 0.2181 0.84334 0.13189 0.0
H1068 H 0.47933 0.08036 0.4074 0.0
H1069 H 0.47565 0.02661 0.39944 0.0
H1070 H 0.534 0.05428 0.37209 0.0
H1071 H 0.53873 0.10805 0.38029 0.0
H1072 H 0.45922 0.99464 0.37846 0.0
H1073 H 0.58853 0.98989 0.39065 0.0
H1074 H 0.56414 0.02249 0.39484 0.0
H1075 H 0.57611 0.01968 0.38031 0.0
C1076 C 0.49091 0.07518 0.39956 0.0
C1077 C 0.50995 0.09822 0.39463 0.0
C1078 C 0.48856 0.04449 0.39497 0.0
C1079 C 0.50512 0.03622 0.38533 0.0
C1080 C 0.52147 0.06003 0.37967 0.0
H1081 H 0.5325 0.83599 0.3649 0.0
H1082 H 0.51245 0.89075 0.36331 0.0
C1083 C 0.52397 0.09082 0.38431 0.0
C1084 C 0.50906 1.00205 0.38247 0.0
H1085 H 0.56388 0.94256 0.38464 0.0
C1086 C 0.48216 0.98327 0.37959 0.0
C1087 C 0.53899 0.98718 0.38412 0.0
C1088 C 0.56861 0.00568 0.38774 0.0
C1089 C 0.48438 0.94993 0.37866 0.0
C1090 C 0.51413 0.93524 0.38069 0.0
C1091 C 0.5411 0.95407 0.38309 0.0
C1092 C 0.518 0.90034 0.38162 0.0
C1093 C 0.45493 0.93039 0.37607 0.0
C1094 C 0.52649 0.88734 0.39246 0.0
C1095 C 0.53798 0.85635 0.39339 0.0
C1096 C 0.54111 0.83771 0.38348 0.0
C1097 C 0.52997 0.84972 0.37269 0.0
C1098 C 0.51862 0.881 0.37176 0.0
H1099 H 0.43336 0.94536 0.37496 0.0
H1100 H 0.45735 0.91632 0.36807 0.0
H1101 H 0.45194 0.91329 0.38318 0.0
H1102 H 0.52623 0.90193 0.40016 0.0
H1103 H 0.54635 0.84768 0.4018 0.0
H1104 H 0.02248 0.87346 0.90276 0.0
H1105 H 0.02445 0.9275 0.89501 0.0
H1106 H 0.11017 0.94572 0.91604 0.0
H1107 H 0.10924 0.89156 0.92337 0.0
H1108 H 0.02226 0.98434 0.90634 0.0
H1109 H 0.13505 0.97503 0.88493 0.0
H1110 H 0.11466 0.94066 0.89 0.0
H1111 H 0.13903 0.96462 0.89989 0.0
C1112 C 0.04208 0.88876 0.90556 0.0
C1113 C 0.06568 0.87806 0.9137 0.0
C1114 C 0.04303 0.91975 0.90121 0.0
C1115 C 0.06765 0.94062 0.90484 0.0
C1116 C 0.09125 0.92996 0.91293 0.0
H1117 H 0.06005 0.1482 0.89554 0.0
H1118 H 0.06183 0.09491 0.90412 0.0
C1119 C 0.09043 0.89902 0.91723 0.0
C1120 C 0.06828 0.97379 0.90045 0.0
H1121 H 0.11404 0.02704 0.88688 0.0
C1122 C 0.04227 0.99367 0.90205 0.0
C1123 C 0.0943 0.9859 0.89477 0.0
C1124 C 0.1222 0.96537 0.89219 0.0
C1125 C 0.04162 0.02532 0.89818 0.0
C1126 C 0.06803 0.03769 0.89278 0.0
C1127 C 0.09397 0.01774 0.89116 0.0
C1128 C 0.06843 0.07046 0.888 0.0
C1129 C 0.01228 0.04489 0.89961 0.0
C1130 C 0.07265 0.07469 0.87624 0.0
C1131 C 0.07256 0.1051 0.87149 0.0
C1132 C 0.06835 0.13217 0.87838 0.0
C1133 C 0.0644 0.128 0.89017 0.0
C1134 C 0.0647 0.09745 0.89498 0.0
H1135 H 0.99152 0.02973 0.9012 0.0
H1136 H 0.01645 0.06106 0.90712 0.0
H1137 H 0.00644 0.05961 0.89186 0.0
H1138 H 0.07561 0.05433 0.87066 0.0
H1139 H 0.07571 0.10739 0.86235 0.0
H1140 H 0.12649 0.15951 0.00675 0.0
H1141 H 0.10985 0.14593 0.98672 0.0
H1142 H 0.15996 0.22783 0.97503 0.0
H1143 H 0.17642 0.24158 0.99494 0.0
H1144 H 0.09803 0.22398 0.96617 0.0
H1145 H 0.16085 0.10927 0.96074 0.0
H1146 H 0.13646 0.11228 0.97281 0.0
H1147 H 0.17128 0.13649 0.97243 0.0
C1148 C 0.13425 0.17435 -0.00012 0.0
C1149 C 0.15259 0.20173 0.0024 0.0
C1150 C 0.12482 0.16651 0.98845 0.0
C1151 C 0.13389 0.18573 0.97939 0.0
C1152 C 0.15267 0.2127 0.9819 0.0
H1153 H 0.15169 0.18833 0.90902 0.0
H1154 H 0.15426 0.17142 0.92912 0.0
C1155 C 0.16191 0.22063 0.99328 0.0
C1156 C 0.12257 0.17929 0.96729 0.0
H1157 H 0.13067 0.12882 0.94457 0.0
C1158 C 0.10476 0.20298 0.96146 0.0
C1159 C 0.13148 0.15184 0.96123 0.0
C1160 C 0.15126 0.12603 0.96705 0.0
C1161 C 0.09702 0.20093 0.94959 0.0
C1162 C 0.10646 0.17377 0.94342 0.0
C1163 C 0.12308 0.14933 0.94935 0.0
C1164 C 0.10361 0.17312 0.93064 0.0
C1165 C 0.08076 0.22897 0.94369 0.0
C1166 C 0.07416 0.17726 0.92457 0.0
C1167 C 0.07275 0.18739 0.9131 0.0
C1168 C 0.1007 0.19222 0.90748 0.0
C1169 C 0.12982 0.18413 0.91313 0.0
C1170 C 0.13128 0.17456 0.92463 0.0
H1171 H 0.08061 0.25025 0.94938 0.0
H1172 H 0.09258 0.23547 0.93577 0.0
H1173 H 0.05582 0.22265 0.94118 0.0
H1174 H 0.05249 0.1757 0.929 0.0
H1175 H 0.0501 0.19423 0.909 0.0
H1176 H 0.03164 0.82293 0.24335 0.0
H1177 H 0.03529 0.81512 0.22259 0.0
H1178 H 0.11766 0.7562 0.22921 0.0
H1179 H 0.11335 0.76259 0.24991 0.0
H1180 H 0.08177 0.8307 0.20882 0.0
H1181 H 0.06391 0.70066 0.20739 0.0
H1182 H 0.05565 0.72437 0.21982 0.0
H1183 H 0.09538 0.71127 0.21773 0.0
C1184 C 0.05026 0.80792 0.24039 0.0
C1185 C 0.07211 0.79325 0.24831 0.0
C1186 C 0.0524 0.80364 0.22852 0.0
C1187 C 0.07632 0.78453 0.22436 0.0
C1188 C 0.0985 0.77038 0.23223 0.0
H1189 H 0.1769 0.78241 0.16477 0.0
H1190 H 0.15048 0.79526 0.18227 0.0
C1191 C 0.0963 0.7745 0.24407 0.0
C1192 C 0.07912 0.78024 0.2118 0.0
H1193 H 0.0901 0.72334 0.19145 0.0
C1194 C 0.08303 0.80724 0.20497 0.0
C1195 C 0.07986 0.7497 0.20667 0.0
C1196 C 0.0731 0.7199 0.21327 0.0
C1197 C 0.08999 0.80438 0.19336 0.0
C1198 C 0.09385 0.77376 0.18858 0.0
C1199 C 0.08762 0.74685 0.19516 0.0
C1200 C 0.10773 0.76898 0.17731 0.0
C1201 C 0.09374 0.8342 0.18641 0.0
C1202 C 0.09276 0.74943 0.16877 0.0
C1203 C 0.10814 0.74172 0.15881 0.0
C1204 C 0.1385 0.75359 0.15726 0.0
C1205 C 0.15324 0.77341 0.16572 0.0
C1206 C 0.13801 0.78102 0.17566 0.0
H1207 H 0.07919 0.85389 0.18964 0.0
H1208 H 0.11884 0.84191 0.18724 0.0
H1209 H 0.08687 0.83016 0.17714 0.0
H1210 H 0.06967 0.73933 0.16997 0.0
H1211 H 0.09713 0.72511 0.15268 0.0
H1212 H 0.64092 0.73443 0.49351 0.0
H1213 H 0.62443 0.71865 0.47385 0.0
H1214 H 0.59238 0.62827 0.48602 0.0
H1215 H 0.60788 0.64425 0.50591 0.0
H1216 H 0.63377 0.62662 0.46641 0.0
H1217 H 0.53158 0.70766 0.45949 0.0
H1218 H 0.56592 0.72713 0.46609 0.0
H1219 H 0.54713 0.69587 0.47368 0.0
C1220 C 0.62977 0.71144 0.4921 0.0
C1221 C 0.62551 0.69076 0.50134 0.0
C1222 C 0.62049 0.70241 0.48083 0.0
C1223 C 0.60685 0.67248 0.47853 0.0
C1224 C 0.60274 0.65153 0.48766 0.0
H1225 H 0.55544 0.68074 0.40526 0.0
H1226 H 0.55026 0.65449 0.42389 0.0
C1227 C 0.61179 0.66067 0.49899 0.0
C1228 C 0.59824 0.66325 0.46645 0.0
H1229 H 0.55778 0.692 0.44249 0.0
C1230 C 0.61651 0.6402 0.46119 0.0
C1231 C 0.57517 0.68033 0.45971 0.0
C1232 C 0.55357 0.70391 0.46505 0.0
C1233 C 0.61466 0.63637 0.44915 0.0
C1234 C 0.59439 0.6564 0.44229 0.0
C1235 C 0.57358 0.67678 0.44769 0.0
C1236 C 0.59911 0.66207 0.42993 0.0
C1237 C 0.63574 0.61223 0.44387 0.0
C1238 C 0.62856 0.67365 0.42694 0.0
C1239 C 0.63145 0.68866 0.4164 0.0
C1240 C 0.605 0.69228 0.40863 0.0
C1241 C 0.57624 0.67797 0.41109 0.0
C1242 C 0.57326 0.66306 0.42173 0.0
H1243 H 0.63834 0.59079 0.44939 0.0
H1244 H 0.6264 0.60495 0.43511 0.0
H1245 H 0.65967 0.62262 0.44325 0.0
H1246 H 0.6487 0.67388 0.43317 0.0
H1247 H 0.65387 0.69955 0.41469 0.0
H1248 H 0.52972 0.27056 0.74372 0.0
H1249 H 0.53918 0.26099 0.72344 0.0
H1250 H 0.61049 0.33437 0.72501 0.0
H1251 H 0.60126 0.34402 0.74531 0.0
H1252 H 0.53959 0.29981 0.703 0.0
H1253 H 0.65814 0.25236 0.7172 0.0
H1254 H 0.62794 0.25983 0.72713 0.0
H1255 H 0.65068 0.29222 0.72191 0.0
C1256 C 0.54694 0.28512 0.73968 0.0
C1257 C 0.56504 0.30778 0.74614 0.0
C1258 C 0.55232 0.27961 0.7281 0.0
C1259 C 0.57583 0.29666 0.72279 0.0
C1260 C 0.59258 0.32062 0.72902 0.0
H1261 H 0.62978 0.28455 0.65155 0.0
H1262 H 0.60457 0.30178 0.66897 0.0
C1263 C 0.58736 0.32603 0.74061 0.0
C1264 C 0.58492 0.2873 0.71117 0.0
H1265 H 0.64592 0.25552 0.6972 0.0
C1266 C 0.56281 0.29011 0.70169 0.0
C1267 C 0.6151 0.2743 0.70954 0.0
C1268 C 0.63929 0.26918 0.71948 0.0
C1269 C 0.57025 0.28041 0.69058 0.0
C1270 C 0.60063 0.26787 0.68897 0.0
C1271 C 0.62263 0.26515 0.69846 0.0
C1272 C 0.6104 0.25648 0.67764 0.0
C1273 C 0.5455 0.28326 0.68073 0.0
C1274 C 0.62155 0.22525 0.67666 0.0
C1275 C 0.6362 0.21559 0.66683 0.0
C1276 C 0.63973 0.23687 0.65774 0.0
C1277 C 0.62698 0.2676 0.6584 0.0
C1278 C 0.6125 0.27741 0.66833 0.0
H1279 H 0.52131 0.28527 0.68383 0.0
H1280 H 0.5503 0.30503 0.67578 0.0
H1281 H 0.54621 0.26257 0.67478 0.0
H1282 H 0.62014 0.20871 0.68373 0.0
H1283 H 0.64576 0.19173 0.66651 0.0
H1284 H 0.0788 0.72436 0.99591 0.0
H1285 H 0.09669 0.71907 0.01619 0.0
H1286 H 0.1414 0.62988 0.00884 0.0
H1287 H 0.12417 0.63525 0.98841 0.0
H1288 H 0.10331 0.62978 0.02875 0.0
H1289 H 0.1896 0.72898 0.0296 0.0
H1290 H 0.15128 0.73964 0.02329 0.0
H1291 H 0.17442 0.71021 0.01637 0.0
C1292 C 0.09281 0.70381 -0.00145 0.0
C1293 C 0.10025 0.68037 0.99049 0.0
C1294 C 0.10292 0.70077 0.01015 0.0
C1295 C 0.12071 0.67429 0.01397 0.0
C1296 C 0.12778 0.65054 0.00604 0.0
H1297 H 0.19765 0.69923 0.08485 0.0
H1298 H 0.19584 0.67627 0.06536 0.0
C1299 C 0.11777 0.65361 0.99439 0.0
C1300 C 0.13145 0.67161 0.02629 0.0
H1301 H 0.17222 0.71236 0.04786 0.0
C1302 C 0.11885 0.64745 0.03293 0.0
C1303 C 0.15227 0.69423 0.03167 0.0
C1304 C 0.16796 0.71956 0.02485 0.0
C1305 C 0.12474 0.64676 0.04497 0.0
C1306 C 0.14336 0.67106 0.05045 0.0
C1307 C 0.1578 0.69379 0.04368 0.0
C1308 C 0.1447 0.67631 0.0631 0.0
C1309 C 0.11027 0.62055 0.05172 0.0
C1310 C 0.11661 0.68282 0.06845 0.0
C1311 C 0.11768 0.69568 0.07954 0.0
C1312 C 0.14683 0.70209 0.08551 0.0
C1313 C 0.17492 0.69358 0.08053 0.0
C1314 C 0.17387 0.68074 0.06937 0.0
H1315 H 0.10728 0.59852 0.04645 0.0
H1316 H 0.12495 0.61509 0.05972 0.0
H1317 H 0.08647 0.62809 0.05413 0.0
H1318 H 0.09387 0.68046 0.06371 0.0
H1319 H 0.09577 0.70272 0.08315 0.0
H1320 H 0.64123 0.84383 0.25075 0.0
H1321 H 0.64278 0.83637 0.27166 0.0
H1322 H 0.69485 0.74911 0.26817 0.0
H1323 H 0.69377 0.75669 0.24733 0.0
H1324 H 0.61588 0.78846 0.2821 0.0
H1325 H 0.74357 0.78861 0.29551 0.0
H1326 H 0.7285 0.8028 0.28158 0.0
H1327 H 0.73418 0.76089 0.28404 0.0
C1328 C 0.65327 0.82323 0.25447 0.0
C1329 C 0.66735 0.80083 0.24742 0.0
C1330 C 0.65433 0.8191 0.26642 0.0
C1331 C 0.66943 0.79248 0.27152 0.0
C1332 C 0.68393 0.77034 0.26449 0.0
H1333 H 0.62263 0.68967 0.33041 0.0
H1334 H 0.64415 0.70733 0.31248 0.0
C1335 C 0.68311 0.77459 0.25256 0.0
C1336 C 0.66675 0.7859 0.28395 0.0
H1337 H 0.7089 0.76517 0.30887 0.0
C1338 C 0.63629 0.78392 0.28797 0.0
C1339 C 0.69339 0.77999 0.29164 0.0
C1340 C 0.72676 0.7835 0.288 0.0
C1341 C 0.63166 0.77505 0.29933 0.0
C1342 C 0.65813 0.76763 0.30683 0.0
C1343 C 0.6887 0.77061 0.30301 0.0
C1344 C 0.65362 0.75531 0.31848 0.0
C1345 C 0.59837 0.77281 0.3032 0.0
C1346 C 0.65326 0.77618 0.3279 0.0
C1347 C 0.64094 0.76615 0.33817 0.0
C1348 C 0.62886 0.73517 0.33908 0.0
C1349 C 0.63176 0.71366 0.32993 0.0
C1350 C 0.64413 0.72366 0.31971 0.0
H1351 H 0.58071 0.78322 0.29681 0.0
H1352 H 0.5922 0.74746 0.30446 0.0
H1353 H 0.59663 0.78523 0.31158 0.0
H1354 H 0.66026 0.80079 0.32703 0.0
H1355 H 0.63852 0.78337 0.34501 0.0
H1356 H 0.65824 0.20189 0.4889 0.0
H1357 H 0.67587 0.19573 0.50924 0.0
H1358 H 0.58994 0.14479 0.51515 0.0
H1359 H 0.57275 0.15009 0.49477 0.0
H1360 H 0.64875 0.21979 0.5268 0.0
H1361 H 0.65253 0.08948 0.53268 0.0
H1362 H 0.64942 0.10758 0.5186 0.0
H1363 H 0.61473 0.1022 0.52659 0.0
C1364 C 0.64333 0.18909 0.49453 0.0
C1365 C 0.61417 0.17643 0.49028 0.0
C1366 C 0.65346 0.18543 0.50613 0.0
C1367 C 0.63454 0.16924 0.51371 0.0
C1368 C 0.60547 0.15642 0.50943 0.0
H1369 H 0.60942 0.18854 0.58465 0.0
H1370 H 0.60768 0.1691 0.56471 0.0
C1371 C 0.59553 0.1597 0.4978 0.0
C1372 C 0.64355 0.16883 0.52627 0.0
H1373 H 0.65 0.12105 0.55006 0.0
C1374 C 0.64963 0.19809 0.53182 0.0
C1375 C 0.64465 0.14052 0.53286 0.0
C1376 C 0.6403 0.10817 0.52734 0.0
C1377 C 0.65549 0.20001 0.54379 0.0
C1378 C 0.65534 0.1719 0.55041 0.0
C1379 C 0.65009 0.14249 0.54491 0.0
C1380 C 0.65806 0.17368 0.56313 0.0
C1381 C 0.66062 0.23224 0.54938 0.0
C1382 C 0.68721 0.18099 0.56896 0.0
C1383 C 0.68822 0.19187 0.58036 0.0
C1384 C 0.66014 0.19535 0.58602 0.0
C1385 C 0.6314 0.18539 0.58049 0.0
C1386 C 0.63039 0.17436 0.56913 0.0
H1387 H 0.65731 0.25198 0.54309 0.0
H1388 H 0.644 0.2357 0.55629 0.0
H1389 H 0.68503 0.23368 0.55343 0.0
H1390 H 0.70873 0.18086 0.5644 0.0
H1391 H 0.7105 0.20018 0.58439 0.0
H1392 H 0.16714 0.35992 0.75258 0.0
H1393 H 0.16889 0.35516 0.77364 0.0
H1394 H 0.20367 0.25912 0.77097 0.0
H1395 H 0.20335 0.26445 0.75007 0.0
H1396 H 0.13508 0.31834 0.78504 0.0
H1397 H 0.25844 0.28697 0.79785 0.0
H1398 H 0.247 0.30188 0.78365 0.0
H1399 H 0.24345 0.2601 0.78683 0.0
C1400 C 0.17573 0.33808 0.75657 0.0
C1401 C 0.18521 0.31258 0.74977 0.0
C1402 C 0.17683 0.33538 0.76857 0.0
C1403 C 0.18703 0.30699 0.77396 0.0
C1404 C 0.19687 0.28169 0.76712 0.0
H1405 H 0.13247 0.20055 0.82925 0.0
H1406 H 0.15892 0.2227 0.81297 0.0
C1407 C 0.19636 0.28461 0.75516 0.0
C1408 C 0.18347 0.30221 0.78648 0.0
H1409 H 0.21861 0.26782 0.8106 0.0
C1410 C 0.15373 0.30826 0.79072 0.0
C1411 C 0.20774 0.28903 0.79395 0.0
C1412 C 0.24101 0.28449 0.79034 0.0
C1413 C 0.14702 0.29968 0.80193 0.0
C1414 C 0.17058 0.28449 0.80908 0.0
C1415 C 0.20071 0.27964 0.80509 0.0
C1416 C 0.16259 0.27021 0.8201 0.0
C1417 C 0.11414 0.30515 0.80586 0.0
C1418 C 0.15726 0.28941 0.82968 0.0
C1419 C 0.14217 0.27678 0.839 0.0
C1420 C 0.13231 0.24486 0.83881 0.0
C1421 C 0.13988 0.22522 0.82959 0.0
C1422 C 0.15509 0.23778 0.82033 0.0
H1423 H 0.09797 0.31555 0.79897 0.0
H1424 H 0.10389 0.28236 0.80866 0.0
H1425 H 0.11536 0.32157 0.81337 0.0
H1426 H 0.16281 0.31455 0.82959 0.0
H1427 H 0.13617 0.29252 0.84593 0.0
loop_
_geom_bond_atom_site_label_1
_geom_bond_atom_site_label_2
_geom_bond_distance
_geom_bond_site_symmetry_2
_ccdc_geom_bond_type
C0 C1 1.391 . S
C0 C4 1.391 . S
C0 H42 0.948 . S
C1 C0 1.391 . S
C1 C2 1.391 . S
C2 C1 1.391 . S
C2 H58 0.947 . S
C2 C59 1.392 . S
C3 C4 1.391 . S
C3 C7 1.397 . S
C3 C59 1.419 . S
C4 C0 1.391 . S
C4 C3 1.391 . S
C4 C5 1.399 . S
C5 C4 1.399 . S
C5 C8 1.396 . S
C5 C17 1.453 . S
C5 C18 1.684 . S
H6 C30 0.948 . S
C7 C3 1.397 . S
C7 C8 1.394 . S
C7 C26 1.723 . S
C8 C5 1.396 . S
C8 C7 1.394 . S
C8 C38 1.723 . S
H9 C32 0.947 . S
H10 C33 0.948 . S
H11 C39 0.982 . S
H12 C40 0.979 . S
H13 C40 0.980 . S
H14 C40 0.983 . S
H15 C39 0.979 . S
H16 C39 0.977 . S
C17 C5 1.453 . S
C17 H46 0.982 . S
C17 H47 0.979 . S
C17 H48 0.977 . S
C18 C5 1.684 . S
C18 H43 0.979 . S
C18 H44 0.980 . S
C18 H45 0.983 . S
C19 C20 1.391 . S
C19 C24 1.391 . S
C19 H49 0.948 . S
C20 C19 1.391 . S
C20 C21 1.391 . S
C21 C20 1.391 . S
C21 C22 1.392 . S
C21 H50 0.947 . S
C22 C21 1.392 . S
C22 C23 1.419 . S
C22 H51 0.948 . S
C23 C22 1.419 . S
C23 C24 1.391 . S
C23 C27 1.397 . S
C24 C19 1.391 . S
C24 C23 1.391 . S
C24 C25 1.399 . S
C25 C24 1.399 . S
C25 C26 1.396 . S
C25 C28 1.453 . S
C25 C29 1.684 . S
C26 C7 1.723 . S
C26 C25 1.396 . S
C26 C27 1.394 . S
C27 C23 1.397 . S
C27 C26 1.394 . S
C27 C37 1.723 . S
C28 C25 1.453 . S
C28 H52 0.982 . S
C28 H53 0.979 . S
C28 H54 0.977 . S
C29 C25 1.684 . S
C29 H55 0.979 . S
C29 H56 0.980 . S
C29 H57 0.983 . S
C30 H6 0.948 . S
C30 C31 1.391 . S
C30 C35 1.391 . S
C31 C30 1.391 . S
C31 C32 1.391 . S
C32 H9 0.947 . S
C32 C31 1.391 . S
C32 C33 1.392 . S
C33 H10 0.948 . S
C33 C32 1.392 . S
C33 C34 1.419 . S
C34 C33 1.419 . S
C34 C35 1.391 . S
C34 C38 1.397 . S
C35 C30 1.391 . S
C35 C34 1.391 . S
C35 C36 1.399 . S
C36 C35 1.399 . S
C36 C37 1.396 . S
C36 C39 1.453 . S
C36 C40 1.684 . S
C37 C27 1.723 . S
C37 C36 1.396 . S
C37 C38 1.394 . S
C38 C8 1.723 . S
C38 C34 1.397 . S
C38 C37 1.394 . S
C39 H11 0.982 . S
C39 H15 0.979 . S
C39 H16 0.977 . S
C39 C36 1.453 . S
C40 H12 0.979 . S
C40 H13 0.980 . S
C40 H14 0.983 . S
C40 C36 1.684 . S
H41 C59 0.948 . S
H42 C0 0.948 . S
H43 C18 0.979 . S
H44 C18 0.980 . S
H45 C18 0.983 . S
H46 C17 0.982 . S
H47 C17 0.979 . S
H48 C17 0.977 . S
H49 C19 0.948 . S
H50 C21 0.947 . S
H51 C22 0.948 . S
H52 C28 0.982 . S
H53 C28 0.979 . S
H54 C28 0.977 . S
H55 C29 0.979 . S
H56 C29 0.980 . S
H57 C29 0.983 . S
H58 C2 0.947 . S
C59 C2 1.392 . S
C59 C3 1.419 . S
C59 H41 0.948 . S
C60 C61 1.391 . S
C60 C64 1.391 . S
C60 H102 0.948 . S
C61 C60 1.391 . S
C61 C62 1.391 . S
C62 C61 1.391 . S
C62 H118 0.947 . S
C62 C119 1.392 . S
C63 C64 1.391 . S
C63 C67 1.397 . S
C63 C119 1.419 . S
C64 C60 1.391 . S
C64 C63 1.391 . S
C64 C65 1.399 . S
C65 C64 1.399 . S
C65 C68 1.396 . S
C65 C77 1.453 . S
C65 C78 1.684 . S
H66 C90 0.948 1_655 S
C67 C63 1.397 . S
C67 C68 1.394 . S
C67 C86 1.723 . S
C68 C65 1.396 . S
C68 C67 1.394 . S
C68 C98 1.723 . S
H69 C92 0.947 . S
H70 C93 0.948 . S
H71 C99 0.982 . S
H72 C100 0.979 . S
H73 C100 0.980 . S
H74 C100 0.983 . S
H75 C99 0.979 . S
H76 C99 0.977 . S
C77 C65 1.453 . S
C77 H106 0.982 . S
C77 H107 0.979 . S
C77 H108 0.977 . S
C78 C65 1.684 . S
C78 H103 0.979 . S
C78 H104 0.980 . S
C78 H105 0.983 . S
C79 C80 1.391 . S
C79 C84 1.391 . S
C79 H109 0.948 . S
C80 C79 1.391 . S
C80 C81 1.391 . S
C81 C80 1.391 . S
C81 C82 1.392 . S
C81 H110 0.947 . S
C82 C81 1.392 . S
C82 C83 1.419 . S
C82 H111 0.948 . S
C83 C82 1.419 . S
C83 C84 1.391 . S
C83 C87 1.397 . S
C84 C79 1.391 . S
C84 C83 1.391 . S
C84 C85 1.399 . S
C85 C84 1.399 . S
C85 C86 1.396 . S
C85 C88 1.453 . S
C85 C89 1.684 . S
C86 C67 1.723 . S
C86 C85 1.396 . S
C86 C87 1.394 . S
C87 C83 1.397 . S
C87 C86 1.394 . S
C87 C97 1.723 . S
C88 C85 1.453 . S
C88 H112 0.982 . S
C88 H113 0.979 . S
C88 H114 0.977 . S
C89 C85 1.684 . S
C89 H115 0.979 . S
C89 H116 0.980 . S
C89 H117 0.983 . S
C90 H66 0.948 1_455 S
C90 C91 1.391 . S
C90 C95 1.391 . S
C91 C90 1.391 . S
C91 C92 1.391 . S
C92 H69 0.947 . S
C92 C91 1.391 . S
C92 C93 1.392 . S
C93 H70 0.948 . S
C93 C92 1.392 . S
C93 C94 1.419 . S
C94 C93 1.419 . S
C94 C95 1.391 . S
C94 C98 1.397 . S
C95 C90 1.391 . S
C95 C94 1.391 . S
C95 C96 1.399 . S
C96 C95 1.399 . S
C96 C97 1.396 . S
C96 C99 1.453 . S
C96 C100 1.684 . S
C97 C87 1.723 . S
C97 C96 1.396 . S
C97 C98 1.394 . S
C98 C68 1.723 . S
C98 C94 1.397 . S
C98 C97 1.394 . S
C99 H71 0.982 . S
C99 H75 0.979 . S
C99 H76 0.977 . S
C99 C96 1.453 . S
C100 H72 0.979 . S
C100 H73 0.980 . S
C100 H74 0.983 . S
C100 C96 1.684 . S
H101 C119 0.948 . S
H102 C60 0.948 . S
H103 C78 0.979 . S
H104 C78 0.980 . S
H105 C78 0.983 . S
H106 C77 0.982 . S
H107 C77 0.979 . S
H108 C77 0.977 . S
H109 C79 0.948 . S
H110 C81 0.947 . S
H111 C82 0.948 . S
H112 C88 0.982 . S
H113 C88 0.979 . S
H114 C88 0.977 . S
H115 C89 0.979 . S
H116 C89 0.980 . S
H117 C89 0.983 . S
H118 C62 0.947 . S
C119 C62 1.392 . S
C119 C63 1.419 . S
C119 H101 0.948 . S
C120 C121 1.391 . S
C120 C124 1.391 . S
C120 H162 0.948 . S
C121 C120 1.391 . S
C121 C122 1.391 . S
C122 C121 1.391 . S
C122 H178 0.947 . S
C122 C179 1.392 . S
C123 C124 1.391 . S
C123 C127 1.397 . S
C123 C179 1.419 . S
C124 C120 1.391 . S
C124 C123 1.391 . S
C124 C125 1.399 . S
C125 C124 1.399 . S
C125 C128 1.396 . S
C125 C137 1.453 . S
C125 C138 1.684 . S
H126 C150 0.948 . S
C127 C123 1.397 . S
C127 C128 1.394 . S
C127 C146 1.723 . S
C128 C125 1.396 . S
C128 C127 1.394 . S
C128 C158 1.723 . S
H129 C152 0.947 . S
H130 C153 0.948 . S
H131 C159 0.982 . S
H132 C160 0.979 . S
H133 C160 0.980 . S
H134 C160 0.983 . S
H135 C159 0.979 . S
H136 C159 0.977 . S
C137 C125 1.453 . S
C137 H166 0.982 . S
C137 H167 0.979 . S
C137 H168 0.977 . S
C138 C125 1.684 . S
C138 H163 0.979 . S
C138 H164 0.980 . S
C138 H165 0.983 . S
C139 C140 1.391 . S
C139 C144 1.391 . S
C139 H169 0.948 . S
C140 C139 1.391 . S
C140 C141 1.391 . S
C141 C140 1.391 . S
C141 C142 1.392 . S
C141 H170 0.947 . S
C142 C141 1.392 . S
C142 C143 1.419 . S
C142 H171 0.948 . S
C143 C142 1.419 . S
C143 C144 1.391 . S
C143 C147 1.397 . S
C144 C139 1.391 . S
C144 C143 1.391 . S
C144 C145 1.399 . S
C145 C144 1.399 . S
C145 C146 1.396 . S
C145 C148 1.453 . S
C145 C149 1.684 . S
C146 C127 1.723 . S
C146 C145 1.396 . S
C146 C147 1.394 . S
C147 C143 1.397 . S
C147 C146 1.394 . S
C147 C157 1.723 . S
C148 C145 1.453 . S
C148 H172 0.982 . S
C148 H173 0.979 . S
C148 H174 0.977 . S
C149 C145 1.684 . S
C149 H175 0.979 . S
C149 H176 0.980 . S
C149 H177 0.983 . S
C150 H126 0.948 . S
C150 C151 1.391 . S
C150 C155 1.391 . S
C151 C150 1.391 . S
C151 C152 1.391 . S
C152 H129 0.947 . S
C152 C151 1.391 . S
C152 C153 1.392 . S
C153 H130 0.948 . S
C153 C152 1.392 . S
C153 C154 1.419 . S
C154 C153 1.419 . S
C154 C155 1.391 . S
C154 C158 1.397 . S
C155 C150 1.391 . S
C155 C154 1.391 . S
C155 C156 1.399 . S
C156 C155 1.399 . S
C156 C157 1.396 . S
C156 C159 1.453 . S
C156 C160 1.684 . S
C157 C147 1.723 . S
C157 C156 1.396 . S
C157 C158 1.394 . S
C158 C128 1.723 . S
C158 C154 1.397 . S
C158 C157 1.394 . S
C159 H131 0.982 . S
C159 H135 0.979 . S
C159 H136 0.977 . S
C159 C156 1.453 . S
C160 H132 0.979 . S
C160 H133 0.980 . S
C160 H134 0.983 . S
C160 C156 1.684 . S
H161 C179 0.948 . S
H162 C120 0.948 . S
H163 C138 0.979 . S
H164 C138 0.980 . S
H165 C138 0.983 . S
H166 C137 0.982 . S
H167 C137 0.979 . S
H168 C137 0.977 . S
H169 C139 0.948 . S
H170 C141 0.947 . S
H171 C142 0.948 . S
H172 C148 0.982 . S
H173 C148 0.979 . S
H174 C148 0.977 . S
H175 C149 0.979 . S
H176 C149 0.980 . S
H177 C149 0.983 . S
H178 C122 0.947 . S
C179 C122 1.392 . S
C179 C123 1.419 . S
C179 H161 0.948 . S
C180 C181 1.391 . S
C180 C184 1.391 . S
C180 H222 0.948 . S
C181 C180 1.391 . S
C181 C182 1.391 . S
C182 C181 1.391 . S
C182 H238 0.947 . S
C182 C239 1.392 . S
C183 C184 1.391 . S
C183 C187 1.397 . S
C183 C239 1.419 . S
C184 C180 1.391 . S
C184 C183 1.391 . S
C184 C185 1.399 . S
C185 C184 1.399 . S
C185 C188 1.396 . S
C185 C197 1.453 . S
C185 C198 1.684 . S
H186 C210 0.948 . S
C187 C183 1.397 . S
C187 C188 1.394 . S
C187 C206 1.723 . S
C188 C185 1.396 . S
C188 C187 1.394 . S
C188 C218 1.723 . S
H189 C212 0.947 . S
H190 C213 0.948 . S
H191 C219 0.982 . S
H192 C220 0.979 . S
H193 C220 0.980 . S
H194 C220 0.983 . S
H195 C219 0.979 . S
H196 C219 0.977 . S
C197 C185 1.453 . S
C197 H226 0.982 . S
C197 H227 0.979 . S
C197 H228 0.977 . S
C198 C185 1.684 . S
C198 H223 0.979 . S
C198 H224 0.980 . S
C198 H225 0.983 . S
C199 C200 1.391 . S
C199 C204 1.391 . S
C199 H229 0.948 . S
C200 C199 1.391 . S
C200 C201 1.391 . S
C201 C200 1.391 . S
C201 C202 1.392 . S
C201 H230 0.947 . S
C202 C201 1.392 . S
C202 C203 1.419 . S
C202 H231 0.948 . S
C203 C202 1.419 . S
C203 C204 1.391 . S
C203 C207 1.397 . S
C204 C199 1.391 . S
C204 C203 1.391 . S
C204 C205 1.399 . S
C205 C204 1.399 . S
C205 C206 1.396 . S
C205 C208 1.453 . S
C205 C209 1.684 . S
C206 C187 1.723 . S
C206 C205 1.396 . S
C206 C207 1.394 . S
C207 C203 1.397 . S
C207 C206 1.394 . S
C207 C217 1.723 . S
C208 C205 1.453 . S
C208 H232 0.982 . S
C208 H233 0.979 . S
C208 H234 0.977 . S
C209 C205 1.684 . S
C209 H235 0.979 . S
C209 H236 0.980 . S
C209 H237 0.983 . S
C210 H186 0.948 . S
C210 C211 1.391 . S
C210 C215 1.391 . S
C211 C210 1.391 . S
C211 C212 1.391 . S
C212 H189 0.947 . S
C212 C211 1.391 . S
C212 C213 1.392 . S
C213 H190 0.948 . S
C213 C212 1.392 . S
C213 C214 1.419 . S
C214 C213 1.419 . S
C214 C215 1.391 . S
C214 C218 1.397 . S
C215 C210 1.391 . S
C215 C214 1.391 . S
C215 C216 1.399 . S
C216 C215 1.399 . S
C216 C217 1.396 . S
C216 C219 1.453 . S
C216 C220 1.684 . S
C217 C207 1.723 . S
C217 C216 1.396 . S
C217 C218 1.394 . S
C218 C188 1.723 . S
C218 C214 1.397 . S
C218 C217 1.394 . S
C219 H191 0.982 . S
C219 H195 0.979 . S
C219 H196 0.977 . S
C219 C216 1.453 . S
C220 H192 0.979 . S
C220 H193 0.980 . S
C220 H194 0.983 . S
C220 C216 1.684 . S
H221 C239 0.948 . S
H222 C180 0.948 . S
H223 C198 0.979 . S
H224 C198 0.980 . S
H225 C198 0.983 . S
H226 C197 0.982 . S
H227 C197 0.979 . S
H228 C197 0.977 . S
H229 C199 0.948 . S
H230 C201 0.947 . S
H231 C202 0.948 . S
H232 C208 0.982 . S
H233 C208 0.979 . S
H234 C208 0.977 . S
H235 C209 0.979 . S
H236 C209 0.980 . S
H237 C209 0.983 . S
H238 C182 0.947 . S
C239 C182 1.392 . S
C239 C183 1.419 . S
C239 H221 0.948 . S
C240 C241 1.391 . S
C240 C244 1.391 . S
C240 H282 0.948 . S
C241 C240 1.391 . S
C241 C242 1.391 . S
C242 C241 1.391 . S
C242 H298 0.947 . S
C242 C299 1.392 . S
C243 C244 1.391 . S
C243 C247 1.397 . S
C243 C299 1.419 . S
C244 C240 1.391 . S
C244 C243 1.391 . S
C244 C245 1.399 . S
C245 C244 1.399 . S
C245 C248 1.396 . S
C245 C257 1.453 . S
C245 C258 1.684 . S
H246 C270 0.948 . S
C247 C243 1.397 . S
C247 C248 1.394 . S
C247 C266 1.723 . S
C248 C245 1.396 . S
C248 C247 1.394 . S
C248 C278 1.723 . S
H249 C272 0.947 . S
H250 C273 0.948 . S
H251 C279 0.982 . S
H252 C280 0.979 1_655 S
H253 C280 0.980 . S
H254 C280 0.983 . S
H255 C279 0.979 . S
H256 C279 0.977 . S
C257 C245 1.453 . S
C257 H286 0.982 . S
C257 H287 0.979 . S
C257 H288 0.977 . S
C258 C245 1.684 . S
C258 H283 0.979 1_455 S
C258 H284 0.980 . S
C258 H285 0.983 . S
C259 C260 1.391 . S
C259 C264 1.391 . S
C259 H289 0.948 . S
C260 C259 1.391 . S
C260 C261 1.391 . S
C261 C260 1.391 . S
C261 C262 1.392 . S
C261 H290 0.947 . S
C262 C261 1.392 . S
C262 C263 1.419 . S
C262 H291 0.948 . S
C263 C262 1.419 . S
C263 C264 1.391 . S
C263 C267 1.397 . S
C264 C259 1.391 . S
C264 C263 1.391 . S
C264 C265 1.399 . S
C265 C264 1.399 . S
C265 C266 1.396 . S
C265 C268 1.453 . S
C265 C269 1.684 . S
C266 C247 1.723 . S
C266 C265 1.396 . S
C266 C267 1.394 . S
C267 C263 1.397 . S
C267 C266 1.394 . S
C267 C277 1.723 . S
C268 C265 1.453 . S
C268 H292 0.982 . S
C268 H293 0.979 . S
C268 H294 0.977 . S
C269 C265 1.684 . S
C269 H295 0.979 1_455 S
C269 H296 0.980 . S
C269 H297 0.983 . S
C270 H246 0.948 . S
C270 C271 1.391 . S
C270 C275 1.391 . S
C271 C270 1.391 . S
C271 C272 1.391 . S
C272 H249 0.947 . S
C272 C271 1.391 . S
C272 C273 1.392 . S
C273 H250 0.948 . S
C273 C272 1.392 . S
C273 C274 1.419 . S
C274 C273 1.419 . S
C274 C275 1.391 . S
C274 C278 1.397 . S
C275 C270 1.391 . S
C275 C274 1.391 . S
C275 C276 1.399 . S
C276 C275 1.399 . S
C276 C277 1.396 . S
C276 C279 1.453 . S
C276 C280 1.684 . S
C277 C267 1.723 . S
C277 C276 1.396 . S
C277 C278 1.394 . S
C278 C248 1.723 . S
C278 C274 1.397 . S
C278 C277 1.394 . S
C279 H251 0.982 . S
C279 H255 0.979 . S
C279 H256 0.977 . S
C279 C276 1.453 . S
C280 H252 0.979 1_455 S
C280 H253 0.980 . S
C280 H254 0.983 . S
C280 C276 1.684 . S
H281 C299 0.948 . S
H282 C240 0.948 . S
H283 C258 0.979 1_655 S
H284 C258 0.980 . S
H285 C258 0.983 . S
H286 C257 0.982 . S
H287 C257 0.979 . S
H288 C257 0.977 . S
H289 C259 0.948 . S
H290 C261 0.947 . S
H291 C262 0.948 . S
H292 C268 0.982 . S
H293 C268 0.979 . S
H294 C268 0.977 . S
H295 C269 0.979 1_655 S
H296 C269 0.980 . S
H297 C269 0.983 . S
H298 C242 0.947 . S
C299 C242 1.392 . S
C299 C243 1.419 . S
C299 H281 0.948 . S
C300 C301 1.391 . S
C300 C304 1.391 . S
C300 H342 0.948 . S
C301 C300 1.391 . S
C301 C302 1.391 . S
C302 C301 1.391 . S
C302 H358 0.947 . S
C302 C359 1.392 . S
C303 C304 1.391 . S
C303 C307 1.397 . S
C303 C359 1.419 . S
C304 C300 1.391 . S
C304 C303 1.391 . S
C304 C305 1.399 . S
C305 C304 1.399 . S
C305 C308 1.396 . S
C305 C317 1.453 . S
C305 C318 1.684 . S
H306 C330 0.948 . S
C307 C303 1.397 . S
C307 C308 1.394 . S
C307 C326 1.723 . S
C308 C305 1.396 . S
C308 C307 1.394 . S
C308 C338 1.723 . S
H309 C332 0.947 . S
H310 C333 0.948 . S
H311 C339 0.982 . S
H312 C340 0.979 . S
H313 C340 0.980 . S
H314 C340 0.983 . S
H315 C339 0.979 . S
H316 C339 0.977 . S
C317 C305 1.453 . S
C317 H346 0.982 . S
C317 H347 0.979 . S
C317 H348 0.977 . S
C318 C305 1.684 . S
C318 H343 0.979 . S
C318 H344 0.980 . S
C318 H345 0.983 . S
C319 C320 1.391 . S
C319 C324 1.391 . S
C319 H349 0.948 . S
C320 C319 1.391 . S
C320 C321 1.391 . S
C321 C320 1.391 . S
C321 C322 1.392 . S
C321 H350 0.947 . S
C322 C321 1.392 . S
C322 C323 1.419 . S
C322 H351 0.948 . S
C323 C322 1.419 . S
C323 C324 1.391 . S
C323 C327 1.397 . S
C324 C319 1.391 . S
C324 C323 1.391 . S
C324 C325 1.399 . S
C325 C324 1.399 . S
C325 C326 1.396 . S
C325 C328 1.453 . S
C325 C329 1.684 . S
C326 C307 1.723 . S
C326 C325 1.396 . S
C326 C327 1.394 . S
C327 C323 1.397 . S
C327 C326 1.394 . S
C327 C337 1.723 . S
C328 C325 1.453 . S
C328 H352 0.982 . S
C328 H353 0.979 . S
C328 H354 0.977 . S
C329 C325 1.684 . S
C329 H355 0.979 . S
C329 H356 0.980 . S
C329 H357 0.983 . S
C330 H306 0.948 . S
C330 C331 1.391 . S
C330 C335 1.391 . S
C331 C330 1.391 . S
C331 C332 1.391 . S
C332 H309 0.947 . S
C332 C331 1.391 . S
C332 C333 1.392 . S
C333 H310 0.948 . S
C333 C332 1.392 . S
C333 C334 1.419 . S
C334 C333 1.419 . S
C334 C335 1.391 . S
C334 C338 1.397 . S
C335 C330 1.391 . S
C335 C334 1.391 . S
C335 C336 1.399 . S
C336 C335 1.399 . S
C336 C337 1.396 . S
C336 C339 1.453 . S
C336 C340 1.684 . S
C337 C327 1.723 . S
C337 C336 1.396 . S
C337 C338 1.394 . S
C338 C308 1.723 . S
C338 C334 1.397 . S
C338 C337 1.394 . S
C339 H311 0.982 . S
C339 H315 0.979 . S
C339 H316 0.977 . S
C339 C336 1.453 . S
C340 H312 0.979 . S
C340 H313 0.980 . S
C340 H314 0.983 . S
C340 C336 1.684 . S
H341 C359 0.948 . S
H342 C300 0.948 . S
H343 C318 0.979 . S
H344 C318 0.980 . S
H345 C318 0.983 . S
H346 C317 0.982 . S
H347 C317 0.979 . S
H348 C317 0.977 . S
H349 C319 0.948 . S
H350 C321 0.947 . S
H351 C322 0.948 . S
H352 C328 0.982 . S
H353 C328 0.979 . S
H354 C328 0.977 . S
H355 C329 0.979 . S
H356 C329 0.980 . S
H357 C329 0.983 . S
H358 C302 0.947 . S
C359 C302 1.392 . S
C359 C303 1.419 . S
C359 H341 0.948 . S
C360 C361 1.391 . S
C360 C364 1.391 . S
C360 H402 0.948 . S
C361 C360 1.391 . S
C361 C362 1.391 . S
C362 C361 1.391 . S
C362 H418 0.947 . S
C362 C419 1.392 . S
C363 C364 1.391 . S
C363 C367 1.397 . S
C363 C419 1.419 . S
C364 C360 1.391 . S
C364 C363 1.391 . S
C364 C365 1.399 . S
C365 C364 1.399 . S
C365 C368 1.396 . S
C365 C377 1.453 . S
C365 C378 1.684 . S
H366 C390 0.948 . S
C367 C363 1.397 . S
C367 C368 1.394 . S
C367 C386 1.723 . S
C368 C365 1.396 . S
C368 C367 1.394 . S
C368 C398 1.723 . S
H369 C392 0.947 . S
H370 C393 0.948 . S
H371 C399 0.982 . S
H372 C400 0.979 . S
H373 C400 0.980 . S
H374 C400 0.983 . S
H375 C399 0.979 . S
H376 C399 0.977 . S
C377 C365 1.453 . S
C377 H406 0.982 . S
C377 H407 0.979 . S
C377 H408 0.977 . S
C378 C365 1.684 . S
C378 H403 0.979 . S
C378 H404 0.980 . S
C378 H405 0.983 . S
C379 C380 1.391 . S
C379 C384 1.391 . S
C379 H409 0.948 . S
C380 C379 1.391 . S
C380 C381 1.391 . S
C381 C380 1.391 . S
C381 C382 1.392 . S
C381 H410 0.947 . S
C382 C381 1.392 . S
C382 C383 1.419 . S
C382 H411 0.948 . S
C383 C382 1.419 . S
C383 C384 1.391 . S
C383 C387 1.397 . S
C384 C379 1.391 . S
C384 C383 1.391 . S
C384 C385 1.399 . S
C385 C384 1.399 . S
C385 C386 1.396 . S
C385 C388 1.453 . S
C385 C389 1.684 . S
C386 C367 1.723 . S
C386 C385 1.396 . S
C386 C387 1.394 . S
C387 C383 1.397 . S
C387 C386 1.394 . S
C387 C397 1.723 . S
C388 C385 1.453 . S
C388 H412 0.982 . S
C388 H413 0.979 . S
C388 H414 0.977 . S
C389 C385 1.684 . S
C389 H415 0.979 . S
C389 H416 0.980 . S
C389 H417 0.983 . S
C390 H366 0.948 . S
C390 C391 1.391 . S
C390 C395 1.391 . S
C391 C390 1.391 . S
C391 C392 1.391 . S
C392 H369 0.947 . S
C392 C391 1.391 . S
C392 C393 1.392 . S
C393 H370 0.948 . S
C393 C392 1.392 . S
C393 C394 1.419 . S
C394 C393 1.419 . S
C394 C395 1.391 . S
C394 C398 1.397 . S
C395 C390 1.391 . S
C395 C394 1.391 . S
C395 C396 1.399 . S
C396 C395 1.399 . S
C396 C397 1.396 . S
C396 C399 1.453 . S
C396 C400 1.684 . S
C397 C387 1.723 . S
C397 C396 1.396 . S
C397 C398 1.394 . S
C398 C368 1.723 . S
C398 C394 1.397 . S
C398 C397 1.394 . S
C399 H371 0.982 . S
C399 H375 0.979 . S
C399 H376 0.977 . S
C399 C396 1.453 . S
C400 H372 0.979 . S
C400 H373 0.980 . S
C400 H374 0.983 . S
C400 C396 1.684 . S
H401 C419 0.948 . S
H402 C360 0.948 . S
H403 C378 0.979 . S
H404 C378 0.980 . S
H405 C378 0.983 . S
H406 C377 0.982 . S
H407 C377 0.979 . S
H408 C377 0.977 . S
H409 C379 0.948 . S
H410 C381 0.947 . S
H411 C382 0.948 . S
H412 C388 0.982 . S
H413 C388 0.979 . S
H414 C388 0.977 . S
H415 C389 0.979 . S
H416 C389 0.980 . S
H417 C389 0.983 . S
H418 C362 0.947 . S
C419 C362 1.392 . S
C419 C363 1.419 . S
C419 H401 0.948 . S
C420 C421 1.391 . S
C420 C424 1.391 . S
C420 H462 0.948 . S
C421 C420 1.391 . S
C421 C422 1.391 . S
C422 C421 1.391 . S
C422 H478 0.947 . S
C422 C479 1.392 . S
C423 C424 1.391 . S
C423 C427 1.397 . S
C423 C479 1.419 . S
C424 C420 1.391 . S
C424 C423 1.391 . S
C424 C425 1.399 . S
C425 C424 1.399 . S
C425 C428 1.396 . S
C425 C437 1.453 . S
C425 C438 1.684 . S
H426 C450 0.948 . S
C427 C423 1.397 . S
C427 C428 1.394 . S
C427 C446 1.723 . S
C428 C425 1.396 . S
C428 C427 1.394 . S
C428 C458 1.723 . S
H429 C452 0.947 . S
H430 C453 0.948 . S
H431 C459 0.982 . S
H432 C460 0.979 . S
H433 C460 0.980 . S
H434 C460 0.983 . S
H435 C459 0.979 . S
H436 C459 0.977 . S
C437 C425 1.453 . S
C437 H466 0.982 . S
C437 H467 0.979 . S
C437 H468 0.977 . S
C438 C425 1.684 . S
C438 H463 0.979 . S
C438 H464 0.980 . S
C438 H465 0.983 . S
C439 C440 1.391 . S
C439 C444 1.391 . S
C439 H469 0.948 . S
C440 C439 1.391 . S
C440 C441 1.391 . S
C441 C440 1.391 . S
C441 C442 1.392 . S
C441 H470 0.947 . S
C442 C441 1.392 . S
C442 C443 1.419 . S
C442 H471 0.948 . S
C443 C442 1.419 . S
C443 C444 1.391 . S
C443 C447 1.397 . S
C444 C439 1.391 . S
C444 C443 1.391 . S
C444 C445 1.399 . S
C445 C444 1.399 . S
C445 C446 1.396 . S
C445 C448 1.453 . S
C445 C449 1.684 . S
C446 C427 1.723 . S
C446 C445 1.396 . S
C446 C447 1.394 . S
C447 C443 1.397 . S
C447 C446 1.394 . S
C447 C457 1.723 . S
C448 C445 1.453 . S
C448 H472 0.982 . S
C448 H473 0.979 . S
C448 H474 0.977 . S
C449 C445 1.684 . S
C449 H475 0.979 . S
C449 H476 0.980 . S
C449 H477 0.983 . S
C450 H426 0.948 . S
C450 C451 1.391 . S
C450 C455 1.391 . S
C451 C450 1.391 . S
C451 C452 1.391 . S
C452 H429 0.947 . S
C452 C451 1.391 . S
C452 C453 1.392 . S
C453 H430 0.948 . S
C453 C452 1.392 . S
C453 C454 1.419 . S
C454 C453 1.419 . S
C454 C455 1.391 . S
C454 C458 1.397 . S
C455 C450 1.391 . S
C455 C454 1.391 . S
C455 C456 1.399 . S
C456 C455 1.399 . S
C456 C457 1.396 . S
C456 C459 1.453 . S
C456 C460 1.684 . S
C457 C447 1.723 . S
C457 C456 1.396 . S
C457 C458 1.394 . S
C458 C428 1.723 . S
C458 C454 1.397 . S
C458 C457 1.394 . S
C459 H431 0.982 . S
C459 H435 0.979 . S
C459 H436 0.977 . S
C459 C456 1.453 . S
C460 H432 0.979 . S
C460 H433 0.980 . S
C460 H434 0.983 . S
C460 C456 1.684 . S
H461 C479 0.948 . S
H462 C420 0.948 . S
H463 C438 0.979 . S
H464 C438 0.980 . S
H465 C438 0.983 . S
H466 C437 0.982 . S
H467 C437 0.979 . S
H468 C437 0.977 . S
H469 C439 0.948 . S
H470 C441 0.947 . S
H471 C442 0.948 . S
H472 C448 0.982 . S
H473 C448 0.979 . S
H474 C448 0.977 . S
H475 C449 0.979 . S
H476 C449 0.980 . S
H477 C449 0.983 . S
H478 C422 0.947 . S
C479 C422 1.392 . S
C479 C423 1.419 . S
C479 H461 0.948 . S
Zn480 O486 1.920 . S
Zn480 O492 1.898 . S
Zn480 O495 1.905 . S
Zn481 O489 1.905 . S
Zn481 O490 1.898 . S
Zn481 O498 1.920 . S
Zn482 O485 2.080 . S
Zn482 O488 2.114 . S
Zn482 O491 2.120 . S
Zn482 O493 2.120 . S
Zn482 O494 2.114 . S
Zn482 O497 2.080 . S
C483 O488 1.166 . S
C483 O489 1.182 . S
C484 O490 1.167 . S
C484 O491 1.299 . S
O485 Zn482 2.080 . S
O485 C499 1.305 . S
O486 Zn480 1.920 . S
O486 C499 1.234 . S
C487 O492 1.167 . S
C487 O493 1.299 . S
O488 Zn482 2.114 . S
O488 C483 1.166 . S
O489 Zn481 1.905 . S
O489 C483 1.182 . S
O490 Zn481 1.898 . S
O490 C484 1.167 . S
O491 Zn482 2.120 . S
O491 C484 1.299 . S
O492 Zn480 1.898 . S
O492 C487 1.167 . S
O493 Zn482 2.120 . S
O493 C487 1.299 . S
O494 Zn482 2.114 . S
O494 C496 1.166 . S
O495 Zn480 1.905 . S
O495 C496 1.182 . S
C496 O494 1.166 . S
C496 O495 1.182 . S
O497 Zn482 2.080 . S
O497 C500 1.305 . S
O498 Zn481 1.920 . S
O498 C500 1.234 . S
C499 O485 1.305 . S
C499 O486 1.234 . S
C500 O497 1.305 . S
C500 O498 1.234 . S
Zn501 O507 1.920 . S
Zn501 O513 1.898 . S
Zn501 O516 1.905 . S
Zn502 O510 1.905 . S
Zn502 O511 1.898 . S
Zn502 O519 1.920 . S
Zn503 O506 2.080 . S
Zn503 O509 2.114 . S
Zn503 O512 2.120 . S
Zn503 O514 2.120 . S
Zn503 O515 2.114 . S
Zn503 O518 2.080 . S
C504 O509 1.166 . S
C504 O510 1.182 . S
C505 O511 1.167 . S
C505 O512 1.299 . S
O506 Zn503 2.080 . S
O506 C520 1.305 . S
O507 Zn501 1.920 . S
O507 C520 1.234 . S
C508 O513 1.167 . S
C508 O514 1.299 . S
O509 Zn503 2.114 . S
O509 C504 1.166 . S
O510 Zn502 1.905 . S
O510 C504 1.182 . S
O511 Zn502 1.898 . S
O511 C505 1.167 . S
O512 Zn503 2.120 . S
O512 C505 1.299 . S
O513 Zn501 1.898 . S
O513 C508 1.167 . S
O514 Zn503 2.120 . S
O514 C508 1.299 . S
O515 Zn503 2.114 . S
O515 C517 1.166 . S
O516 Zn501 1.905 . S
O516 C517 1.182 . S
C517 O515 1.166 . S
C517 O516 1.182 . S
O518 Zn503 2.080 . S
O518 C521 1.305 . S
O519 Zn502 1.920 . S
O519 C521 1.234 . S
C520 O506 1.305 . S
C520 O507 1.234 . S
C521 O518 1.305 . S
C521 O519 1.234 . S
Zn522 O528 1.920 . S
Zn522 O534 1.898 . S
Zn522 O537 1.905 . S
Zn523 O531 1.905 . S
Zn523 O532 1.898 . S
Zn523 O540 1.920 . S
Zn524 O527 2.080 . S
Zn524 O530 2.114 . S
Zn524 O533 2.120 . S
Zn524 O535 2.120 . S
Zn524 O536 2.114 . S
Zn524 O539 2.080 . S
C525 O530 1.166 . S
C525 O531 1.182 . S
C526 O532 1.167 . S
C526 O533 1.299 . S
O527 Zn524 2.080 . S
O527 C541 1.305 . S
O528 Zn522 1.920 . S
O528 C541 1.234 . S
C529 O534 1.167 . S
C529 O535 1.299 . S
O530 Zn524 2.114 . S
O530 C525 1.166 . S
O531 Zn523 1.905 . S
O531 C525 1.182 . S
O532 Zn523 1.898 . S
O532 C526 1.167 . S
O533 Zn524 2.120 . S
O533 C526 1.299 . S
O534 Zn522 1.898 . S
O534 C529 1.167 . S
O535 Zn524 2.120 . S
O535 C529 1.299 . S
O536 Zn524 2.114 . S
O536 C538 1.166 . S
O537 Zn522 1.905 . S
O537 C538 1.182 . S
C538 O536 1.166 . S
C538 O537 1.182 . S
O539 Zn524 2.080 . S
O539 C542 1.305 . S
O540 Zn523 1.920 . S
O540 C542 1.234 . S
C541 O527 1.305 . S
C541 O528 1.234 . S
C542 O539 1.305 . S
C542 O540 1.234 . S
Zn543 O549 1.920 . S
Zn543 O555 1.898 . S
Zn543 O558 1.905 . S
Zn544 O552 1.905 . S
Zn544 O553 1.898 . S
Zn544 O561 1.920 . S
Zn545 O548 2.080 . S
Zn545 O551 2.114 . S
Zn545 O554 2.120 . S
Zn545 O556 2.120 . S
Zn545 O557 2.114 . S
Zn545 O560 2.080 . S
C546 O551 1.166 . S
C546 O552 1.182 . S
C547 O553 1.167 . S
C547 O554 1.299 . S
O548 Zn545 2.080 . S
O548 C562 1.305 . S
O549 Zn543 1.920 . S
O549 C562 1.234 . S
C550 O555 1.167 . S
C550 O556 1.299 . S
O551 Zn545 2.114 . S
O551 C546 1.166 . S
O552 Zn544 1.905 . S
O552 C546 1.182 . S
O553 Zn544 1.898 . S
O553 C547 1.167 . S
O554 Zn545 2.120 . S
O554 C547 1.299 . S
O555 Zn543 1.898 . S
O555 C550 1.167 . S
O556 Zn545 2.120 . S
O556 C550 1.299 . S
O557 Zn545 2.114 . S
O557 C559 1.166 . S
O558 Zn543 1.905 . S
O558 C559 1.182 . S
C559 O557 1.166 . S
C559 O558 1.182 . S
O560 Zn545 2.080 . S
O560 C563 1.305 . S
O561 Zn544 1.920 . S
O561 C563 1.234 . S
C562 O548 1.305 . S
C562 O549 1.234 . S
C563 O560 1.305 . S
C563 O561 1.234 . S
H564 C572 0.929 . S
H565 C574 0.930 . S
H566 C576 0.930 . S
H567 C579 0.929 . S
H568 C582 0.930 . S
H569 C584 0.960 . S
H570 C584 0.960 . S
H571 C584 0.960 . S
C572 H564 0.929 . S
C572 C573 1.377 . S
C572 C574 1.384 . S
C573 C572 1.377 . S
C573 C579 1.390 . S
C574 H565 0.930 . S
C574 C572 1.384 . S
C574 C575 1.372 . S
C575 C574 1.372 . S
C575 C576 1.400 . S
C575 C580 1.490 . S
C576 H566 0.930 . S
C576 C575 1.400 . S
C576 C579 1.386 . S
H577 C593 0.930 . S
H578 C594 0.931 . S
C579 H567 0.929 . S
C579 C573 1.390 . S
C579 C576 1.386 . S
C580 C575 1.490 . S
C580 C582 1.395 . S
C580 C583 1.403 . S
H581 C587 0.930 . S
C582 H568 0.930 . S
C582 C580 1.395 . S
C582 C585 1.403 . S
C583 C580 1.403 . S
C583 C584 1.524 . S
C583 C587 1.400 . S
C584 H569 0.960 . S
C584 H570 0.960 . S
C584 H571 0.960 . S
C584 C583 1.524 . S
C585 C582 1.403 . S
C585 C586 1.392 . S
C585 C589 1.495 . S
C586 C585 1.392 . S
C586 C587 1.385 . S
C586 C588 1.478 . S
C587 H581 0.930 . S
C587 C583 1.400 . S
C587 C586 1.385 . S
C588 C586 1.478 . S
C588 C590 1.381 . S
C588 C594 1.383 . S
C589 C585 1.495 . S
C589 H595 0.959 . S
C589 H596 0.961 . S
C589 H597 0.960 . S
C590 C588 1.381 . S
C590 C591 1.394 . S
C590 H598 0.930 . S
C591 C590 1.394 . S
C591 C592 1.383 . S
C591 H599 0.929 . S
C592 C591 1.383 . S
C592 C593 1.377 . S
C593 H577 0.930 . S
C593 C592 1.377 . S
C593 C594 1.379 . S
C594 H578 0.931 . S
C594 C588 1.383 . S
C594 C593 1.379 . S
H595 C589 0.959 . S
H596 C589 0.961 . S
H597 C589 0.960 . S
H598 C590 0.930 . S
H599 C591 0.929 . S
H600 C608 0.929 . S
H601 C610 0.930 . S
H602 C612 0.930 . S
H603 C615 0.929 . S
H604 C618 0.930 . S
H605 C620 0.960 . S
H606 C620 0.960 . S
H607 C620 0.960 . S
C608 H600 0.929 . S
C608 C609 1.377 . S
C608 C610 1.384 . S
C609 C608 1.377 . S
C609 C615 1.390 . S
C610 H601 0.930 . S
C610 C608 1.384 . S
C610 C611 1.372 . S
C611 C610 1.372 . S
C611 C612 1.400 . S
C611 C616 1.490 . S
C612 H602 0.930 . S
C612 C611 1.400 . S
C612 C615 1.386 . S
H613 C629 0.930 . S
H614 C630 0.931 . S
C615 H603 0.929 . S
C615 C609 1.390 . S
C615 C612 1.386 . S
C616 C611 1.490 . S
C616 C618 1.395 . S
C616 C619 1.403 . S
H617 C623 0.930 . S
C618 H604 0.930 . S
C618 C616 1.395 . S
C618 C621 1.403 . S
C619 C616 1.403 . S
C619 C620 1.524 . S
C619 C623 1.400 . S
C620 H605 0.960 . S
C620 H606 0.960 . S
C620 H607 0.960 . S
C620 C619 1.524 . S
C621 C618 1.403 . S
C621 C622 1.392 . S
C621 C625 1.495 . S
C622 C621 1.392 . S
C622 C623 1.385 . S
C622 C624 1.478 . S
C623 H617 0.930 . S
C623 C619 1.400 . S
C623 C622 1.385 . S
C624 C622 1.478 . S
C624 C626 1.381 . S
C624 C630 1.383 . S
C625 C621 1.495 . S
C625 H631 0.959 . S
C625 H632 0.961 . S
C625 H633 0.960 . S
C626 C624 1.381 . S
C626 C627 1.394 . S
C626 H634 0.930 . S
C627 C626 1.394 . S
C627 C628 1.383 . S
C627 H635 0.929 . S
C628 C627 1.383 . S
C628 C629 1.377 . S
C629 H613 0.930 . S
C629 C628 1.377 . S
C629 C630 1.379 . S
C630 H614 0.931 . S
C630 C624 1.383 . S
C630 C629 1.379 . S
H631 C625 0.959 . S
H632 C625 0.961 . S
H633 C625 0.960 . S
H634 C626 0.930 . S
H635 C627 0.929 . S
H636 C644 0.929 . S
H637 C646 0.930 . S
H638 C648 0.930 . S
H639 C651 0.929 . S
H640 C654 0.930 . S
H641 C656 0.960 . S
H642 C656 0.960 . S
H643 C656 0.960 . S
C644 H636 0.929 . S
C644 C645 1.377 . S
C644 C646 1.384 . S
C645 C644 1.377 . S
C645 C651 1.390 . S
C646 H637 0.930 . S
C646 C644 1.384 . S
C646 C647 1.372 . S
C647 C646 1.372 . S
C647 C648 1.400 . S
C647 C652 1.490 . S
C648 H638 0.930 . S
C648 C647 1.400 . S
C648 C651 1.386 . S
H649 C665 0.930 . S
H650 C666 0.931 . S
C651 H639 0.929 . S
C651 C645 1.390 . S
C651 C648 1.386 . S
C652 C647 1.490 . S
C652 C654 1.395 . S
C652 C655 1.403 . S
H653 C659 0.930 . S
C654 H640 0.930 . S
C654 C652 1.395 . S
C654 C657 1.403 . S
C655 C652 1.403 . S
C655 C656 1.524 . S
C655 C659 1.400 . S
C656 H641 0.960 . S
C656 H642 0.960 . S
C656 H643 0.960 . S
C656 C655 1.524 . S
C657 C654 1.403 . S
C657 C658 1.392 . S
C657 C661 1.495 . S
C658 C657 1.392 . S
C658 C659 1.385 . S
C658 C660 1.478 . S
C659 H653 0.930 . S
C659 C655 1.400 . S
C659 C658 1.385 . S
C660 C658 1.478 . S
C660 C662 1.381 . S
C660 C666 1.383 . S
C661 C657 1.495 . S
C661 H667 0.959 . S
C661 H668 0.961 . S
C661 H669 0.960 . S
C662 C660 1.381 . S
C662 C663 1.394 . S
C662 H670 0.930 . S
C663 C662 1.394 . S
C663 C664 1.383 . S
C663 H671 0.929 . S
C664 C663 1.383 . S
C664 C665 1.377 . S
C665 H649 0.930 . S
C665 C664 1.377 . S
C665 C666 1.379 . S
C666 H650 0.931 . S
C666 C660 1.383 . S
C666 C665 1.379 . S
H667 C661 0.959 . S
H668 C661 0.961 . S
H669 C661 0.960 . S
H670 C662 0.930 . S
H671 C663 0.929 . S
H672 C680 0.929 . S
H673 C682 0.930 . S
H674 C684 0.930 . S
H675 C687 0.929 . S
H676 C690 0.930 . S
H677 C692 0.960 . S
H678 C692 0.960 . S
H679 C692 0.960 . S
C680 H672 0.929 . S
C680 C681 1.377 . S
C680 C682 1.384 . S
C681 C680 1.377 . S
C681 C687 1.390 . S
C682 H673 0.930 . S
C682 C680 1.384 . S
C682 C683 1.372 . S
C683 C682 1.372 . S
C683 C684 1.400 . S
C683 C688 1.490 . S
C684 H674 0.930 . S
C684 C683 1.400 . S
C684 C687 1.386 . S
H685 C701 0.930 . S
H686 C702 0.931 . S
C687 H675 0.929 . S
C687 C681 1.390 . S
C687 C684 1.386 . S
C688 C683 1.490 . S
C688 C690 1.395 . S
C688 C691 1.403 . S
H689 C695 0.930 . S
C690 H676 0.930 . S
C690 C688 1.395 . S
C690 C693 1.403 . S
C691 C688 1.403 . S
C691 C692 1.524 . S
C691 C695 1.400 . S
C692 H677 0.960 . S
C692 H678 0.960 . S
C692 H679 0.960 . S
C692 C691 1.524 . S
C693 C690 1.403 . S
C693 C694 1.392 . S
C693 C697 1.495 . S
C694 C693 1.392 . S
C694 C695 1.385 . S
C694 C696 1.478 . S
C695 H689 0.930 . S
C695 C691 1.400 . S
C695 C694 1.385 . S
C696 C694 1.478 . S
C696 C698 1.381 . S
C696 C702 1.383 . S
C697 C693 1.495 . S
C697 H703 0.959 . S
C697 H704 0.961 . S
C697 H705 0.960 . S
C698 C696 1.381 . S
C698 C699 1.394 1_655 S
C698 H706 0.930 . S
C699 C698 1.394 1_455 S
C699 C700 1.383 . S
C699 H707 0.929 . S
C700 C699 1.383 . S
C700 C701 1.377 . S
C701 H685 0.930 . S
C701 C700 1.377 . S
C701 C702 1.379 1_455 S
C702 H686 0.931 . S
C702 C696 1.383 . S
C702 C701 1.379 1_655 S
H703 C697 0.959 . S
H704 C697 0.961 . S
H705 C697 0.960 . S
H706 C698 0.930 . S
H707 C699 0.929 . S
H708 C716 0.929 . S
H709 C718 0.930 . S
H710 C720 0.930 . S
H711 C723 0.929 . S
H712 C726 0.930 . S
H713 C728 0.960 . S
H714 C728 0.960 . S
H715 C728 0.960 . S
C716 H708 0.929 . S
C716 C717 1.377 . S
C716 C718 1.384 . S
C717 C716 1.377 . S
C717 C723 1.390 . S
C718 H709 0.930 . S
C718 C716 1.384 . S
C718 C719 1.372 . S
C719 C718 1.372 . S
C719 C720 1.400 . S
C719 C724 1.490 . S
C720 H710 0.930 . S
C720 C719 1.400 . S
C720 C723 1.386 . S
H721 C737 0.930 . S
H722 C738 0.931 . S
C723 H711 0.929 . S
C723 C717 1.390 . S
C723 C720 1.386 . S
C724 C719 1.490 . S
C724 C726 1.395 . S
C724 C727 1.403 . S
H725 C731 0.930 . S
C726 H712 0.930 . S
C726 C724 1.395 . S
C726 C729 1.403 . S
C727 C724 1.403 . S
C727 C728 1.524 . S
C727 C731 1.400 . S
C728 H713 0.960 . S
C728 H714 0.960 . S
C728 H715 0.960 . S
C728 C727 1.524 . S
C729 C726 1.403 . S
C729 C730 1.392 . S
C729 C733 1.495 . S
C730 C729 1.392 . S
C730 C731 1.385 . S
C730 C732 1.478 . S
C731 H725 0.930 . S
C731 C727 1.400 . S
C731 C730 1.385 . S
C732 C730 1.478 . S
C732 C734 1.381 . S
C732 C738 1.383 . S
C733 C729 1.495 . S
C733 H739 0.959 . S
C733 H740 0.961 . S
C733 H741 0.960 . S
C734 C732 1.381 . S
C734 C735 1.394 . S
C734 H742 0.930 . S
C735 C734 1.394 . S
C735 C736 1.383 . S
C735 H743 0.929 . S
C736 C735 1.383 . S
C736 C737 1.377 . S
C737 H721 0.930 . S
C737 C736 1.377 . S
C737 C738 1.379 . S
C738 H722 0.931 . S
C738 C732 1.383 . S
C738 C737 1.379 . S
H739 C733 0.959 . S
H740 C733 0.961 . S
H741 C733 0.960 . S
H742 C734 0.930 . S
H743 C735 0.929 . S
H744 C752 0.929 . S
H745 C754 0.930 . S
H746 C756 0.930 . S
H747 C759 0.929 . S
H748 C762 0.930 . S
H749 C764 0.960 . S
H750 C764 0.960 . S
H751 C764 0.960 . S
C752 H744 0.929 . S
C752 C753 1.377 . S
C752 C754 1.384 . S
C753 C752 1.377 . S
C753 C759 1.390 . S
C754 H745 0.930 . S
C754 C752 1.384 . S
C754 C755 1.372 . S
C755 C754 1.372 . S
C755 C756 1.400 . S
C755 C760 1.490 . S
C756 H746 0.930 . S
C756 C755 1.400 . S
C756 C759 1.386 . S
H757 C773 0.930 . S
H758 C774 0.931 . S
C759 H747 0.929 . S
C759 C753 1.390 . S
C759 C756 1.386 . S
C760 C755 1.490 . S
C760 C762 1.395 . S
C760 C763 1.403 . S
H761 C767 0.930 . S
C762 H748 0.930 . S
C762 C760 1.395 . S
C762 C765 1.403 . S
C763 C760 1.403 . S
C763 C764 1.524 . S
C763 C767 1.400 . S
C764 H749 0.960 . S
C764 H750 0.960 . S
C764 H751 0.960 . S
C764 C763 1.524 . S
C765 C762 1.403 . S
C765 C766 1.392 . S
C765 C769 1.495 . S
C766 C765 1.392 . S
C766 C767 1.385 . S
C766 C768 1.478 . S
C767 H761 0.930 . S
C767 C763 1.400 . S
C767 C766 1.385 . S
C768 C766 1.478 . S
C768 C770 1.381 . S
C768 C774 1.383 . S
C769 C765 1.495 . S
C769 H775 0.959 . S
C769 H776 0.961 . S
C769 H777 0.960 . S
C770 C768 1.381 . S
C770 C771 1.394 1_655 S
C770 H778 0.930 . S
C771 C770 1.394 1_455 S
C771 C772 1.383 . S
C771 H779 0.929 . S
C772 C771 1.383 . S
C772 C773 1.377 . S
C773 H757 0.930 . S
C773 C772 1.377 . S
C773 C774 1.379 1_455 S
C774 H758 0.931 . S
C774 C768 1.383 . S
C774 C773 1.379 1_655 S
H775 C769 0.959 . S
H776 C769 0.961 . S
H777 C769 0.960 . S
H778 C770 0.930 . S
H779 C771 0.929 . S
H780 C788 0.929 . S
H781 C790 0.930 . S
H782 C792 0.930 . S
H783 C795 0.929 . S
H784 C798 0.930 . S
H785 C800 0.960 . S
H786 C800 0.960 . S
H787 C800 0.960 . S
C788 H780 0.929 . S
C788 C789 1.377 . S
C788 C790 1.384 . S
C789 C788 1.377 . S
C789 C795 1.390 . S
C790 H781 0.930 . S
C790 C788 1.384 . S
C790 C791 1.372 . S
C791 C790 1.372 . S
C791 C792 1.400 . S
C791 C796 1.490 . S
C792 H782 0.930 . S
C792 C791 1.400 . S
C792 C795 1.386 . S
H793 C809 0.930 . S
H794 C810 0.931 . S
C795 H783 0.929 . S
C795 C789 1.390 . S
C795 C792 1.386 . S
C796 C791 1.490 . S
C796 C798 1.395 . S
C796 C799 1.403 . S
H797 C803 0.930 . S
C798 H784 0.930 . S
C798 C796 1.395 . S
C798 C801 1.403 . S
C799 C796 1.403 . S
C799 C800 1.524 . S
C799 C803 1.400 . S
C800 H785 0.960 . S
C800 H786 0.960 . S
C800 H787 0.960 . S
C800 C799 1.524 . S
C801 C798 1.403 . S
C801 C802 1.392 . S
C801 C805 1.495 . S
C802 C801 1.392 . S
C802 C803 1.385 . S
C802 C804 1.478 . S
C803 H797 0.930 . S
C803 C799 1.400 . S
C803 C802 1.385 . S
C804 C802 1.478 . S
C804 C806 1.381 . S
C804 C810 1.383 . S
C805 C801 1.495 . S
C805 H811 0.959 . S
C805 H812 0.961 . S
C805 H813 0.960 . S
C806 C804 1.381 . S
C806 C807 1.394 . S
C806 H814 0.930 . S
C807 C806 1.394 . S
C807 C808 1.383 . S
C807 H815 0.929 . S
C808 C807 1.383 . S
C808 C809 1.377 . S
C809 H793 0.930 . S
C809 C808 1.377 . S
C809 C810 1.379 . S
C810 H794 0.931 . S
C810 C804 1.383 . S
C810 C809 1.379 . S
H811 C805 0.959 . S
H812 C805 0.961 . S
H813 C805 0.960 . S
H814 C806 0.930 . S
H815 C807 0.929 . S
H816 C824 0.929 . S
H817 C826 0.930 . S
H818 C828 0.930 . S
H819 C831 0.929 . S
H820 C834 0.930 . S
H821 C836 0.960 . S
H822 C836 0.960 . S
H823 C836 0.960 . S
C824 H816 0.929 . S
C824 C825 1.377 . S
C824 C826 1.384 . S
C825 C824 1.377 . S
C825 C831 1.390 . S
C826 H817 0.930 . S
C826 C824 1.384 . S
C826 C827 1.372 . S
C827 C826 1.372 . S
C827 C828 1.400 . S
C827 C832 1.490 . S
C828 H818 0.930 . S
C828 C827 1.400 . S
C828 C831 1.386 . S
H829 C845 0.930 . S
H830 C846 0.931 . S
C831 H819 0.929 . S
C831 C825 1.390 . S
C831 C828 1.386 . S
C832 C827 1.490 . S
C832 C834 1.395 . S
C832 C835 1.403 . S
H833 C839 0.930 . S
C834 H820 0.930 . S
C834 C832 1.395 . S
C834 C837 1.403 . S
C835 C832 1.403 . S
C835 C836 1.524 . S
C835 C839 1.400 . S
C836 H821 0.960 . S
C836 H822 0.960 . S
C836 H823 0.960 . S
C836 C835 1.524 . S
C837 C834 1.403 . S
C837 C838 1.392 . S
C837 C841 1.495 . S
C838 C837 1.392 . S
C838 C839 1.385 . S
C838 C840 1.478 . S
C839 H833 0.930 . S
C839 C835 1.400 . S
C839 C838 1.385 . S
C840 C838 1.478 . S
C840 C842 1.381 . S
C840 C846 1.383 . S
C841 C837 1.495 . S
C841 H847 0.959 . S
C841 H848 0.961 . S
C841 H849 0.960 . S
C842 C840 1.381 . S
C842 C843 1.394 . S
C842 H850 0.930 . S
C843 C842 1.394 . S
C843 C844 1.383 . S
C843 H851 0.929 . S
C844 C843 1.383 . S
C844 C845 1.377 . S
C845 H829 0.930 . S
C845 C844 1.377 . S
C845 C846 1.379 . S
C846 H830 0.931 . S
C846 C840 1.383 . S
C846 C845 1.379 . S
H847 C841 0.959 . S
H848 C841 0.961 . S
H849 C841 0.960 . S
H850 C842 0.930 . S
H851 C843 0.929 . S
H852 C860 0.929 . S
H853 C862 0.930 . S
H854 C864 0.930 . S
H855 C867 0.929 . S
H856 C870 0.930 . S
H857 C872 0.960 . S
H858 C872 0.960 . S
H859 C872 0.960 . S
C860 H852 0.929 . S
C860 C861 1.377 . S
C860 C862 1.384 . S
C861 C860 1.377 . S
C861 C867 1.390 . S
C862 H853 0.930 . S
C862 C860 1.384 . S
C862 C863 1.372 . S
C863 C862 1.372 . S
C863 C864 1.400 . S
C863 C868 1.490 . S
C864 H854 0.930 . S
C864 C863 1.400 . S
C864 C867 1.386 . S
H865 C881 0.930 . S
H866 C882 0.931 . S
C867 H855 0.929 . S
C867 C861 1.390 . S
C867 C864 1.386 . S
C868 C863 1.490 . S
C868 C870 1.395 . S
C868 C871 1.403 . S
H869 C875 0.930 . S
C870 H856 0.930 . S
C870 C868 1.395 . S
C870 C873 1.403 . S
C871 C868 1.403 . S
C871 C872 1.524 . S
C871 C875 1.400 . S
C872 H857 0.960 . S
C872 H858 0.960 . S
C872 H859 0.960 . S
C872 C871 1.524 . S
C873 C870 1.403 . S
C873 C874 1.392 . S
C873 C877 1.495 . S
C874 C873 1.392 . S
C874 C875 1.385 . S
C874 C876 1.478 . S
C875 H869 0.930 . S
C875 C871 1.400 . S
C875 C874 1.385 . S
C876 C874 1.478 . S
C876 C878 1.381 . S
C876 C882 1.383 . S
C877 C873 1.495 . S
C877 H883 0.959 . S
C877 H884 0.961 . S
C877 H885 0.960 . S
C878 C876 1.381 . S
C878 C879 1.394 . S
C878 H886 0.930 . S
C879 C878 1.394 . S
C879 C880 1.383 . S
C879 H887 0.929 . S
C880 C879 1.383 . S
C880 C881 1.377 . S
C881 H865 0.930 . S
C881 C880 1.377 . S
C881 C882 1.379 . S
C882 H866 0.931 . S
C882 C876 1.383 . S
C882 C881 1.379 . S
H883 C877 0.959 . S
H884 C877 0.961 . S
H885 C877 0.960 . S
H886 C878 0.930 . S
H887 C879 0.929 . S
H888 C896 0.929 . S
H889 C898 0.930 . S
H890 C900 0.930 . S
H891 C903 0.929 . S
H892 C906 0.930 . S
H893 C908 0.960 . S
H894 C908 0.960 . S
H895 C908 0.960 . S
C896 H888 0.929 . S
C896 C897 1.377 . S
C896 C898 1.384 . S
C897 C896 1.377 . S
C897 C903 1.390 . S
C898 H889 0.930 . S
C898 C896 1.384 . S
C898 C899 1.372 . S
C899 C898 1.372 . S
C899 C900 1.400 . S
C899 C904 1.490 . S
C900 H890 0.930 . S
C900 C899 1.400 . S
C900 C903 1.386 . S
H901 C917 0.930 . S
H902 C918 0.931 . S
C903 H891 0.929 . S
C903 C897 1.390 . S
C903 C900 1.386 . S
C904 C899 1.490 . S
C904 C906 1.395 . S
C904 C907 1.403 . S
H905 C911 0.930 . S
C906 H892 0.930 . S
C906 C904 1.395 . S
C906 C909 1.403 . S
C907 C904 1.403 . S
C907 C908 1.524 . S
C907 C911 1.400 . S
C908 H893 0.960 . S
C908 H894 0.960 . S
C908 H895 0.960 . S
C908 C907 1.524 . S
C909 C906 1.403 . S
C909 C910 1.392 . S
C909 C913 1.495 . S
C910 C909 1.392 . S
C910 C911 1.385 . S
C910 C912 1.478 . S
C911 H905 0.930 . S
C911 C907 1.400 . S
C911 C910 1.385 . S
C912 C910 1.478 . S
C912 C914 1.381 . S
C912 C918 1.383 . S
C913 C909 1.495 . S
C913 H919 0.959 . S
C913 H920 0.961 . S
C913 H921 0.960 . S
C914 C912 1.381 . S
C914 C915 1.394 . S
C914 H922 0.930 . S
C915 C914 1.394 . S
C915 C916 1.383 . S
C915 H923 0.929 . S
C916 C915 1.383 . S
C916 C917 1.377 . S
C917 H901 0.930 . S
C917 C916 1.377 . S
C917 C918 1.379 . S
C918 H902 0.931 . S
C918 C912 1.383 . S
C918 C917 1.379 . S
H919 C913 0.959 . S
H920 C913 0.961 . S
H921 C913 0.960 . S
H922 C914 0.930 . S
H923 C915 0.929 . S
H924 C932 0.929 . S
H925 C934 0.930 . S
H926 C936 0.930 . S
H927 C939 0.929 . S
H928 C942 0.930 . S
H929 C944 0.960 . S
H930 C944 0.960 . S
H931 C944 0.960 . S
C932 H924 0.929 . S
C932 C933 1.377 . S
C932 C934 1.384 . S
C933 C932 1.377 . S
C933 C939 1.390 . S
C934 H925 0.930 . S
C934 C932 1.384 . S
C934 C935 1.372 . S
C935 C934 1.372 . S
C935 C936 1.400 . S
C935 C940 1.490 . S
C936 H926 0.930 . S
C936 C935 1.400 . S
C936 C939 1.386 . S
H937 C953 0.930 . S
H938 C954 0.931 . S
C939 H927 0.929 . S
C939 C933 1.390 . S
C939 C936 1.386 . S
C940 C935 1.490 . S
C940 C942 1.395 . S
C940 C943 1.403 . S
H941 C947 0.930 . S
C942 H928 0.930 . S
C942 C940 1.395 . S
C942 C945 1.403 . S
C943 C940 1.403 . S
C943 C944 1.524 . S
C943 C947 1.400 . S
C944 H929 0.960 . S
C944 H930 0.960 . S
C944 H931 0.960 . S
C944 C943 1.524 . S
C945 C942 1.403 . S
C945 C946 1.392 . S
C945 C949 1.495 . S
C946 C945 1.392 . S
C946 C947 1.385 . S
C946 C948 1.478 . S
C947 H941 0.930 . S
C947 C943 1.400 . S
C947 C946 1.385 . S
C948 C946 1.478 . S
C948 C950 1.381 . S
C948 C954 1.383 . S
C949 C945 1.495 . S
C949 H955 0.959 . S
C949 H956 0.961 . S
C949 H957 0.960 . S
C950 C948 1.381 . S
C950 C951 1.394 . S
C950 H958 0.930 . S
C951 C950 1.394 . S
C951 C952 1.383 . S
C951 H959 0.929 . S
C952 C951 1.383 . S
C952 C953 1.377 . S
C953 H937 0.930 . S
C953 C952 1.377 . S
C953 C954 1.379 . S
C954 H938 0.931 . S
C954 C948 1.383 . S
C954 C953 1.379 . S
H955 C949 0.959 . S
H956 C949 0.961 . S
H957 C949 0.960 . S
H958 C950 0.930 . S
H959 C951 0.929 . S
H960 C968 0.929 . S
H961 C970 0.930 . S
H962 C972 0.930 . S
H963 C975 0.929 . S
H964 C978 0.930 . S
H965 C980 0.960 . S
H966 C980 0.960 . S
H967 C980 0.960 . S
C968 H960 0.929 . S
C968 C969 1.377 . S
C968 C970 1.384 . S
C969 C968 1.377 . S
C969 C975 1.390 . S
C970 H961 0.930 . S
C970 C968 1.384 . S
C970 C971 1.372 . S
C971 C970 1.372 . S
C971 C972 1.400 . S
C971 C976 1.490 . S
C972 H962 0.930 . S
C972 C971 1.400 . S
C972 C975 1.386 . S
H973 C989 0.930 . S
H974 C990 0.931 . S
C975 H963 0.929 . S
C975 C969 1.390 . S
C975 C972 1.386 . S
C976 C971 1.490 . S
C976 C978 1.395 . S
C976 C979 1.403 . S
H977 C983 0.930 . S
C978 H964 0.930 . S
C978 C976 1.395 . S
C978 C981 1.403 . S
C979 C976 1.403 . S
C979 C980 1.524 . S
C979 C983 1.400 . S
C980 H965 0.960 . S
C980 H966 0.960 . S
C980 H967 0.960 . S
C980 C979 1.524 . S
C981 C978 1.403 . S
C981 C982 1.392 . S
C981 C985 1.495 . S
C982 C981 1.392 . S
C982 C983 1.385 . S
C982 C984 1.478 . S
C983 H977 0.930 . S
C983 C979 1.400 . S
C983 C982 1.385 . S
C984 C982 1.478 . S
C984 C986 1.381 . S
C984 C990 1.383 . S
C985 C981 1.495 . S
C985 H991 0.959 . S
C985 H992 0.961 . S
C985 H993 0.960 . S
C986 C984 1.381 . S
C986 C987 1.394 . S
C986 H994 0.930 . S
C987 C986 1.394 . S
C987 C988 1.383 . S
C987 H995 0.929 . S
C988 C987 1.383 . S
C988 C989 1.377 . S
C989 H973 0.930 . S
C989 C988 1.377 . S
C989 C990 1.379 . S
C990 H974 0.931 . S
C990 C984 1.383 . S
C990 C989 1.379 . S
H991 C985 0.959 . S
H992 C985 0.961 . S
H993 C985 0.960 . S
H994 C986 0.930 . S
H995 C987 0.929 . S
H996 C1004 0.929 . S
H997 C1006 0.930 . S
H998 C1008 0.930 . S
H999 C1011 0.929 . S
H1000 C1014 0.930 . S
H1001 C1016 0.960 . S
H1002 C1016 0.960 . S
H1003 C1016 0.960 . S
C1004 H996 0.929 . S
C1004 C1005 1.377 . S
C1004 C1006 1.384 . S
C1005 C1004 1.377 . S
C1005 C1011 1.390 . S
C1006 H997 0.930 . S
C1006 C1004 1.384 . S
C1006 C1007 1.372 . S
C1007 C1006 1.372 . S
C1007 C1008 1.400 . S
C1007 C1012 1.490 . S
C1008 H998 0.930 . S
C1008 C1007 1.400 . S
C1008 C1011 1.386 . S
H1009 C1025 0.930 . S
H1010 C1026 0.931 . S
C1011 H999 0.929 . S
C1011 C1005 1.390 . S
C1011 C1008 1.386 . S
C1012 C1007 1.490 . S
C1012 C1014 1.395 . S
C1012 C1015 1.403 . S
H1013 C1019 0.930 . S
C1014 H1000 0.930 . S
C1014 C1012 1.395 . S
C1014 C1017 1.403 1_565 S
C1015 C1012 1.403 . S
C1015 C1016 1.524 . S
C1015 C1019 1.400 1_565 S
C1016 H1001 0.960 . S
C1016 H1002 0.960 . S
C1016 H1003 0.960 . S
C1016 C1015 1.524 . S
C1017 C1014 1.403 1_545 S
C1017 C1018 1.392 . S
C1017 C1021 1.495 . S
C1018 C1017 1.392 . S
C1018 C1019 1.385 . S
C1018 C1020 1.478 . S
C1019 H1013 0.930 . S
C1019 C1015 1.400 1_545 S
C1019 C1018 1.385 . S
C1020 C1018 1.478 . S
C1020 C1022 1.381 . S
C1020 C1026 1.383 . S
C1021 C1017 1.495 . S
C1021 H1027 0.959 . S
C1021 H1028 0.961 . S
C1021 H1029 0.960 . S
C1022 C1020 1.381 . S
C1022 C1023 1.394 . S
C1022 H1030 0.930 . S
C1023 C1022 1.394 . S
C1023 C1024 1.383 . S
C1023 H1031 0.929 . S
C1024 C1023 1.383 . S
C1024 C1025 1.377 . S
C1025 H1009 0.930 . S
C1025 C1024 1.377 . S
C1025 C1026 1.379 . S
C1026 H1010 0.931 . S
C1026 C1020 1.383 . S
C1026 C1025 1.379 . S
H1027 C1021 0.959 . S
H1028 C1021 0.961 . S
H1029 C1021 0.960 . S
H1030 C1022 0.930 . S
H1031 C1023 0.929 . S
H1032 C1040 0.929 . S
H1033 C1042 0.930 . S
H1034 C1044 0.930 . S
H1035 C1047 0.929 . S
H1036 C1050 0.930 1_545 S
H1037 C1052 0.960 . S
H1038 C1052 0.960 1_545 S
H1039 C1052 0.960 . S
C1040 H1032 0.929 . S
C1040 C1041 1.377 . S
C1040 C1042 1.384 . S
C1041 C1040 1.377 . S
C1041 C1047 1.390 . S
C1042 H1033 0.930 . S
C1042 C1040 1.384 . S
C1042 C1043 1.372 . S
C1043 C1042 1.372 . S
C1043 C1044 1.400 . S
C1043 C1048 1.490 . S
C1044 H1034 0.930 . S
C1044 C1043 1.400 . S
C1044 C1047 1.386 . S
H1045 C1061 0.930 . S
H1046 C1062 0.931 . S
C1047 H1035 0.929 . S
C1047 C1041 1.390 . S
C1047 C1044 1.386 . S
C1048 C1043 1.490 . S
C1048 C1050 1.395 1_545 S
C1048 C1051 1.403 1_545 S
H1049 C1055 0.930 . S
C1050 H1036 0.930 1_565 S
C1050 C1048 1.395 1_565 S
C1050 C1053 1.403 . S
C1051 C1048 1.403 1_565 S
C1051 C1052 1.524 . S
C1051 C1055 1.400 . S
C1052 H1037 0.960 . S
C1052 H1038 0.960 1_565 S
C1052 H1039 0.960 . S
C1052 C1051 1.524 . S
C1053 C1050 1.403 . S
C1053 C1054 1.392 . S
C1053 C1057 1.495 . S
C1054 C1053 1.392 . S
C1054 C1055 1.385 . S
C1054 C1056 1.478 . S
C1055 H1049 0.930 . S
C1055 C1051 1.400 . S
C1055 C1054 1.385 . S
C1056 C1054 1.478 . S
C1056 C1058 1.381 . S
C1056 C1062 1.383 . S
C1057 C1053 1.495 . S
C1057 H1063 0.959 . S
C1057 H1064 0.961 . S
C1057 H1065 0.960 . S
C1058 C1056 1.381 . S
C1058 C1059 1.394 . S
C1058 H1066 0.930 . S
C1059 C1058 1.394 . S
C1059 C1060 1.383 . S
C1059 H1067 0.929 . S
C1060 C1059 1.383 . S
C1060 C1061 1.377 . S
C1061 H1045 0.930 . S
C1061 C1060 1.377 . S
C1061 C1062 1.379 . S
C1062 H1046 0.931 . S
C1062 C1056 1.383 . S
C1062 C1061 1.379 . S
H1063 C1057 0.959 . S
H1064 C1057 0.961 . S
H1065 C1057 0.960 . S
H1066 C1058 0.930 . S
H1067 C1059 0.929 . S
H1068 C1076 0.929 . S
H1069 C1078 0.930 . S
H1070 C1080 0.930 . S
H1071 C1083 0.929 . S
H1072 C1086 0.930 . S
H1073 C1088 0.960 1_565 S
H1074 C1088 0.960 . S
H1075 C1088 0.960 . S
C1076 H1068 0.929 . S
C1076 C1077 1.377 . S
C1076 C1078 1.384 . S
C1077 C1076 1.377 . S
C1077 C1083 1.390 . S
C1078 H1069 0.930 . S
C1078 C1076 1.384 . S
C1078 C1079 1.372 . S
C1079 C1078 1.372 . S
C1079 C1080 1.400 . S
C1079 C1084 1.490 1_545 S
C1080 H1070 0.930 . S
C1080 C1079 1.400 . S
C1080 C1083 1.386 . S
H1081 C1097 0.930 . S
H1082 C1098 0.931 . S
C1083 H1071 0.929 . S
C1083 C1077 1.390 . S
C1083 C1080 1.386 . S
C1084 C1079 1.490 1_565 S
C1084 C1086 1.395 . S
C1084 C1087 1.403 . S
H1085 C1091 0.930 . S
C1086 H1072 0.930 . S
C1086 C1084 1.395 . S
C1086 C1089 1.403 . S
C1087 C1084 1.403 . S
C1087 C1088 1.524 1_565 S
C1087 C1091 1.400 . S
C1088 H1073 0.960 1_545 S
C1088 H1074 0.960 . S
C1088 H1075 0.960 . S
C1088 C1087 1.524 1_545 S
C1089 C1086 1.403 . S
C1089 C1090 1.392 . S
C1089 C1093 1.495 . S
C1090 C1089 1.392 . S
C1090 C1091 1.385 . S
C1090 C1092 1.478 . S
C1091 H1085 0.930 . S
C1091 C1087 1.400 . S
C1091 C1090 1.385 . S
C1092 C1090 1.478 . S
C1092 C1094 1.381 . S
C1092 C1098 1.383 . S
C1093 C1089 1.495 . S
C1093 H1099 0.959 . S
C1093 H1100 0.961 . S
C1093 H1101 0.960 . S
C1094 C1092 1.381 . S
C1094 C1095 1.394 . S
C1094 H1102 0.930 . S
C1095 C1094 1.394 . S
C1095 C1096 1.383 . S
C1095 H1103 0.929 . S
C1096 C1095 1.383 . S
C1096 C1097 1.377 . S
C1097 H1081 0.930 . S
C1097 C1096 1.377 . S
C1097 C1098 1.379 . S
C1098 H1082 0.931 . S
C1098 C1092 1.383 . S
C1098 C1097 1.379 . S
H1099 C1093 0.959 . S
H1100 C1093 0.961 . S
H1101 C1093 0.960 . S
H1102 C1094 0.930 . S
H1103 C1095 0.929 . S
H1104 C1112 0.929 . S
H1105 C1114 0.930 . S
H1106 C1116 0.930 . S
H1107 C1119 0.929 . S
H1108 C1122 0.930 . S
H1109 C1124 0.960 . S
H1110 C1124 0.960 . S
H1111 C1124 0.960 . S
C1112 H1104 0.929 . S
C1112 C1113 1.377 . S
C1112 C1114 1.384 . S
C1113 C1112 1.377 . S
C1113 C1119 1.390 . S
C1114 H1105 0.930 . S
C1114 C1112 1.384 . S
C1114 C1115 1.372 . S
C1115 C1114 1.372 . S
C1115 C1116 1.400 . S
C1115 C1120 1.490 . S
C1116 H1106 0.930 . S
C1116 C1115 1.400 . S
C1116 C1119 1.386 . S
H1117 C1133 0.930 . S
H1118 C1134 0.931 . S
C1119 H1107 0.929 . S
C1119 C1113 1.390 . S
C1119 C1116 1.386 . S
C1120 C1115 1.490 . S
C1120 C1122 1.395 . S
C1120 C1123 1.403 . S
H1121 C1127 0.930 . S
C1122 H1108 0.930 . S
C1122 C1120 1.395 . S
C1122 C1125 1.403 1_565 S
C1123 C1120 1.403 . S
C1123 C1124 1.524 . S
C1123 C1127 1.400 1_565 S
C1124 H1109 0.960 . S
C1124 H1110 0.960 . S
C1124 H1111 0.960 . S
C1124 C1123 1.524 . S
C1125 C1122 1.403 1_545 S
C1125 C1126 1.392 . S
C1125 C1129 1.495 . S
C1126 C1125 1.392 . S
C1126 C1127 1.385 . S
C1126 C1128 1.478 . S
C1127 H1121 0.930 . S
C1127 C1123 1.400 1_545 S
C1127 C1126 1.385 . S
C1128 C1126 1.478 . S
C1128 C1130 1.381 . S
C1128 C1134 1.383 . S
C1129 C1125 1.495 . S
C1129 H1135 0.959 . S
C1129 H1136 0.961 . S
C1129 H1137 0.960 . S
C1130 C1128 1.381 . S
C1130 C1131 1.394 . S
C1130 H1138 0.930 . S
C1131 C1130 1.394 . S
C1131 C1132 1.383 . S
C1131 H1139 0.929 . S
C1132 C1131 1.383 . S
C1132 C1133 1.377 . S
C1133 H1117 0.930 . S
C1133 C1132 1.377 . S
C1133 C1134 1.379 . S
C1134 H1118 0.931 . S
C1134 C1128 1.383 . S
C1134 C1133 1.379 . S
H1135 C1129 0.959 . S
H1136 C1129 0.961 . S
H1137 C1129 0.960 . S
H1138 C1130 0.930 . S
H1139 C1131 0.929 . S
H1140 C1148 0.929 . S
H1141 C1150 0.930 . S
H1142 C1152 0.930 . S
H1143 C1155 0.938 . S
H1144 C1158 0.930 . S
H1145 C1160 0.960 . S
H1146 C1160 0.960 . S
H1147 C1160 0.960 . S
C1148 H1140 0.929 . S
C1148 C1149 1.377 . S
C1148 C1150 1.384 1_554 S
C1149 C1148 1.377 . S
C1149 C1155 1.403 . S
C1150 H1141 0.930 . S
C1150 C1148 1.384 1_556 S
C1150 C1151 1.372 . S
C1151 C1150 1.372 . S
C1151 C1152 1.400 . S
C1151 C1156 1.490 . S
C1152 H1142 0.930 . S
C1152 C1151 1.400 . S
C1152 C1155 1.364 1_556 S
H1153 C1169 0.930 . S
H1154 C1170 0.931 . S
C1155 H1143 0.938 . S
C1155 C1149 1.403 . S
C1155 C1152 1.364 1_554 S
C1156 C1151 1.490 . S
C1156 C1158 1.395 . S
C1156 C1159 1.403 . S
H1157 C1163 0.930 . S
C1158 H1144 0.930 . S
C1158 C1156 1.395 . S
C1158 C1161 1.403 . S
C1159 C1156 1.403 . S
C1159 C1160 1.524 . S
C1159 C1163 1.400 . S
C1160 H1145 0.960 . S
C1160 H1146 0.960 . S
C1160 H1147 0.960 . S
C1160 C1159 1.524 . S
C1161 C1158 1.403 . S
C1161 C1162 1.392 . S
C1161 C1165 1.495 . S
C1162 C1161 1.392 . S
C1162 C1163 1.385 . S
C1162 C1164 1.478 . S
C1163 H1157 0.930 . S
C1163 C1159 1.400 . S
C1163 C1162 1.385 . S
C1164 C1162 1.478 . S
C1164 C1166 1.381 . S
C1164 C1170 1.383 . S
C1165 C1161 1.495 . S
C1165 H1171 0.959 . S
C1165 H1172 0.961 . S
C1165 H1173 0.960 . S
C1166 C1164 1.381 . S
C1166 C1167 1.394 . S
C1166 H1174 0.930 . S
C1167 C1166 1.394 . S
C1167 C1168 1.383 . S
C1167 H1175 0.929 . S
C1168 C1167 1.383 . S
C1168 C1169 1.377 . S
C1169 H1153 0.930 . S
C1169 C1168 1.377 . S
C1169 C1170 1.379 . S
C1170 H1154 0.931 . S
C1170 C1164 1.383 . S
C1170 C1169 1.379 . S
H1171 C1165 0.959 . S
H1172 C1165 0.961 . S
H1173 C1165 0.960 . S
H1174 C1166 0.930 . S
H1175 C1167 0.929 . S
H1176 C1184 0.929 . S
H1177 C1186 0.930 . S
H1178 C1188 0.930 . S
H1179 C1191 0.929 . S
H1180 C1194 0.930 . S
H1181 C1196 0.960 . S
H1182 C1196 0.960 . S
H1183 C1196 0.960 . S
C1184 H1176 0.929 . S
C1184 C1185 1.377 . S
C1184 C1186 1.384 . S
C1185 C1184 1.377 . S
C1185 C1191 1.390 . S
C1186 H1177 0.930 . S
C1186 C1184 1.384 . S
C1186 C1187 1.372 . S
C1187 C1186 1.372 . S
C1187 C1188 1.400 . S
C1187 C1192 1.490 . S
C1188 H1178 0.930 . S
C1188 C1187 1.400 . S
C1188 C1191 1.386 . S
H1189 C1205 0.930 . S
H1190 C1206 0.931 . S
C1191 H1179 0.929 . S
C1191 C1185 1.390 . S
C1191 C1188 1.386 . S
C1192 C1187 1.490 . S
C1192 C1194 1.395 . S
C1192 C1195 1.403 . S
H1193 C1199 0.930 . S
C1194 H1180 0.930 . S
C1194 C1192 1.395 . S
C1194 C1197 1.403 . S
C1195 C1192 1.403 . S
C1195 C1196 1.524 . S
C1195 C1199 1.400 . S
C1196 H1181 0.960 . S
C1196 H1182 0.960 . S
C1196 H1183 0.960 . S
C1196 C1195 1.524 . S
C1197 C1194 1.403 . S
C1197 C1198 1.392 . S
C1197 C1201 1.495 . S
C1198 C1197 1.392 . S
C1198 C1199 1.385 . S
C1198 C1200 1.478 . S
C1199 H1193 0.930 . S
C1199 C1195 1.400 . S
C1199 C1198 1.385 . S
C1200 C1198 1.478 . S
C1200 C1202 1.381 . S
C1200 C1206 1.383 . S
C1201 C1197 1.495 . S
C1201 H1207 0.959 . S
C1201 H1208 0.961 . S
C1201 H1209 0.960 . S
C1202 C1200 1.381 . S
C1202 C1203 1.394 . S
C1202 H1210 0.930 . S
C1203 C1202 1.394 . S
C1203 C1204 1.383 . S
C1203 H1211 0.929 . S
C1204 C1203 1.383 . S
C1204 C1205 1.377 . S
C1205 H1189 0.930 . S
C1205 C1204 1.377 . S
C1205 C1206 1.379 . S
C1206 H1190 0.931 . S
C1206 C1200 1.383 . S
C1206 C1205 1.379 . S
H1207 C1201 0.959 . S
H1208 C1201 0.961 . S
H1209 C1201 0.960 . S
H1210 C1202 0.930 . S
H1211 C1203 0.929 . S
H1212 C1220 0.929 . S
H1213 C1222 0.930 . S
H1214 C1224 0.930 . S
H1215 C1227 0.929 . S
H1216 C1230 0.930 . S
H1217 C1232 0.960 . S
H1218 C1232 0.960 . S
H1219 C1232 0.960 . S
C1220 H1212 0.929 . S
C1220 C1221 1.377 . S
C1220 C1222 1.384 . S
C1221 C1220 1.377 . S
C1221 C1227 1.390 . S
C1222 H1213 0.930 . S
C1222 C1220 1.384 . S
C1222 C1223 1.372 . S
C1223 C1222 1.372 . S
C1223 C1224 1.400 . S
C1223 C1228 1.490 . S
C1224 H1214 0.930 . S
C1224 C1223 1.400 . S
C1224 C1227 1.386 . S
H1225 C1241 0.930 . S
H1226 C1242 0.931 . S
C1227 H1215 0.929 . S
C1227 C1221 1.390 . S
C1227 C1224 1.386 . S
C1228 C1223 1.490 . S
C1228 C1230 1.395 . S
C1228 C1231 1.403 . S
H1229 C1235 0.930 . S
C1230 H1216 0.930 . S
C1230 C1228 1.395 . S
C1230 C1233 1.403 . S
C1231 C1228 1.403 . S
C1231 C1232 1.524 . S
C1231 C1235 1.400 . S
C1232 H1217 0.960 . S
C1232 H1218 0.960 . S
C1232 H1219 0.960 . S
C1232 C1231 1.524 . S
C1233 C1230 1.403 . S
C1233 C1234 1.392 . S
C1233 C1237 1.495 . S
C1234 C1233 1.392 . S
C1234 C1235 1.385 . S
C1234 C1236 1.478 . S
C1235 H1229 0.930 . S
C1235 C1231 1.400 . S
C1235 C1234 1.385 . S
C1236 C1234 1.478 . S
C1236 C1238 1.381 . S
C1236 C1242 1.383 . S
C1237 C1233 1.495 . S
C1237 H1243 0.959 . S
C1237 H1244 0.961 . S
C1237 H1245 0.960 . S
C1238 C1236 1.381 . S
C1238 C1239 1.394 . S
C1238 H1246 0.930 . S
C1239 C1238 1.394 . S
C1239 C1240 1.383 . S
C1239 H1247 0.929 . S
C1240 C1239 1.383 . S
C1240 C1241 1.377 . S
C1241 H1225 0.930 . S
C1241 C1240 1.377 . S
C1241 C1242 1.379 . S
C1242 H1226 0.931 . S
C1242 C1236 1.383 . S
C1242 C1241 1.379 . S
H1243 C1237 0.959 . S
H1244 C1237 0.961 . S
H1245 C1237 0.960 . S
H1246 C1238 0.930 . S
H1247 C1239 0.929 . S
H1248 C1256 0.929 . S
H1249 C1258 0.930 . S
H1250 C1260 0.930 . S
H1251 C1263 0.929 . S
H1252 C1266 0.930 . S
H1253 C1268 0.960 . S
H1254 C1268 0.960 . S
H1255 C1268 0.960 . S
C1256 H1248 0.929 . S
C1256 C1257 1.377 . S
C1256 C1258 1.384 . S
C1257 C1256 1.377 . S
C1257 C1263 1.390 . S
C1258 H1249 0.930 . S
C1258 C1256 1.384 . S
C1258 C1259 1.372 . S
C1259 C1258 1.372 . S
C1259 C1260 1.400 . S
C1259 C1264 1.490 . S
C1260 H1250 0.930 . S
C1260 C1259 1.400 . S
C1260 C1263 1.386 . S
H1261 C1277 0.930 . S
H1262 C1278 0.931 . S
C1263 H1251 0.929 . S
C1263 C1257 1.390 . S
C1263 C1260 1.386 . S
C1264 C1259 1.490 . S
C1264 C1266 1.395 . S
C1264 C1267 1.403 . S
H1265 C1271 0.930 . S
C1266 H1252 0.930 . S
C1266 C1264 1.395 . S
C1266 C1269 1.403 . S
C1267 C1264 1.403 . S
C1267 C1268 1.524 . S
C1267 C1271 1.400 . S
C1268 H1253 0.960 . S
C1268 H1254 0.960 . S
C1268 H1255 0.960 . S
C1268 C1267 1.524 . S
C1269 C1266 1.403 . S
C1269 C1270 1.392 . S
C1269 C1273 1.495 . S
C1270 C1269 1.392 . S
C1270 C1271 1.385 . S
C1270 C1272 1.478 . S
C1271 H1265 0.930 . S
C1271 C1267 1.400 . S
C1271 C1270 1.385 . S
C1272 C1270 1.478 . S
C1272 C1274 1.381 . S
C1272 C1278 1.383 . S
C1273 C1269 1.495 . S
C1273 H1279 0.959 . S
C1273 H1280 0.961 . S
C1273 H1281 0.960 . S
C1274 C1272 1.381 . S
C1274 C1275 1.394 . S
C1274 H1282 0.930 . S
C1275 C1274 1.394 . S
C1275 C1276 1.383 . S
C1275 H1283 0.929 . S
C1276 C1275 1.383 . S
C1276 C1277 1.377 . S
C1277 H1261 0.930 . S
C1277 C1276 1.377 . S
C1277 C1278 1.379 . S
C1278 H1262 0.931 . S
C1278 C1272 1.383 . S
C1278 C1277 1.379 . S
H1279 C1273 0.959 . S
H1280 C1273 0.961 . S
H1281 C1273 0.960 . S
H1282 C1274 0.930 . S
H1283 C1275 0.929 . S
H1284 C1292 0.929 . S
H1285 C1294 0.930 . S
H1286 C1296 0.930 . S
H1287 C1299 0.929 . S
H1288 C1302 0.930 . S
H1289 C1304 0.960 . S
H1290 C1304 0.960 . S
H1291 C1304 0.960 . S
C1292 H1284 0.929 . S
C1292 C1293 1.377 . S
C1292 C1294 1.384 1_556 S
C1293 C1292 1.377 . S
C1293 C1299 1.390 . S
C1294 H1285 0.930 . S
C1294 C1292 1.384 1_554 S
C1294 C1295 1.372 . S
C1295 C1294 1.372 . S
C1295 C1296 1.400 . S
C1295 C1300 1.490 . S
C1296 H1286 0.930 . S
C1296 C1295 1.400 . S
C1296 C1299 1.386 1_554 S
H1297 C1313 0.930 . S
H1298 C1314 0.931 . S
C1299 H1287 0.929 . S
C1299 C1293 1.390 . S
C1299 C1296 1.386 1_556 S
C1300 C1295 1.490 . S
C1300 C1302 1.395 . S
C1300 C1303 1.403 . S
H1301 C1307 0.930 . S
C1302 H1288 0.930 . S
C1302 C1300 1.395 . S
C1302 C1305 1.403 . S
C1303 C1300 1.403 . S
C1303 C1304 1.524 . S
C1303 C1307 1.400 . S
C1304 H1289 0.960 . S
C1304 H1290 0.960 . S
C1304 H1291 0.960 . S
C1304 C1303 1.524 . S
C1305 C1302 1.403 . S
C1305 C1306 1.392 . S
C1305 C1309 1.495 . S
C1306 C1305 1.392 . S
C1306 C1307 1.385 . S
C1306 C1308 1.478 . S
C1307 H1301 0.930 . S
C1307 C1303 1.400 . S
C1307 C1306 1.385 . S
C1308 C1306 1.478 . S
C1308 C1310 1.381 . S
C1308 C1314 1.383 . S
C1309 C1305 1.495 . S
C1309 H1315 0.959 . S
C1309 H1316 0.961 . S
C1309 H1317 0.960 . S
C1310 C1308 1.381 . S
C1310 C1311 1.394 . S
C1310 H1318 0.930 . S
C1311 C1310 1.394 . S
C1311 C1312 1.383 . S
C1311 H1319 0.929 . S
C1312 C1311 1.383 . S
C1312 C1313 1.377 . S
C1313 H1297 0.930 . S
C1313 C1312 1.377 . S
C1313 C1314 1.379 . S
C1314 H1298 0.931 . S
C1314 C1308 1.383 . S
C1314 C1313 1.379 . S
H1315 C1309 0.959 . S
H1316 C1309 0.961 . S
H1317 C1309 0.960 . S
H1318 C1310 0.930 . S
H1319 C1311 0.929 . S
H1320 C1328 0.929 . S
H1321 C1330 0.930 . S
H1322 C1332 0.930 . S
H1323 C1335 0.929 . S
H1324 C1338 0.930 . S
H1325 C1340 0.960 . S
H1326 C1340 0.960 . S
H1327 C1340 0.960 . S
C1328 H1320 0.929 . S
C1328 C1329 1.377 . S
C1328 C1330 1.384 . S
C1329 C1328 1.377 . S
C1329 C1335 1.390 . S
C1330 H1321 0.930 . S
C1330 C1328 1.384 . S
C1330 C1331 1.372 . S
C1331 C1330 1.372 . S
C1331 C1332 1.400 . S
C1331 C1336 1.490 . S
C1332 H1322 0.930 . S
C1332 C1331 1.400 . S
C1332 C1335 1.386 . S
H1333 C1349 0.930 . S
H1334 C1350 0.931 . S
C1335 H1323 0.929 . S
C1335 C1329 1.390 . S
C1335 C1332 1.386 . S
C1336 C1331 1.490 . S
C1336 C1338 1.395 . S
C1336 C1339 1.403 . S
H1337 C1343 0.930 . S
C1338 H1324 0.930 . S
C1338 C1336 1.395 . S
C1338 C1341 1.403 . S
C1339 C1336 1.403 . S
C1339 C1340 1.524 . S
C1339 C1343 1.400 . S
C1340 H1325 0.960 . S
C1340 H1326 0.960 . S
C1340 H1327 0.960 . S
C1340 C1339 1.524 . S
C1341 C1338 1.403 . S
C1341 C1342 1.392 . S
C1341 C1345 1.495 . S
C1342 C1341 1.392 . S
C1342 C1343 1.385 . S
C1342 C1344 1.478 . S
C1343 H1337 0.930 . S
C1343 C1339 1.400 . S
C1343 C1342 1.385 . S
C1344 C1342 1.478 . S
C1344 C1346 1.381 . S
C1344 C1350 1.383 . S
C1345 C1341 1.495 . S
C1345 H1351 0.959 . S
C1345 H1352 0.961 . S
C1345 H1353 0.960 . S
C1346 C1344 1.381 . S
C1346 C1347 1.394 . S
C1346 H1354 0.930 . S
C1347 C1346 1.394 . S
C1347 C1348 1.383 . S
C1347 H1355 0.929 . S
C1348 C1347 1.383 . S
C1348 C1349 1.377 . S
C1349 H1333 0.930 . S
C1349 C1348 1.377 . S
C1349 C1350 1.379 . S
C1350 H1334 0.931 . S
C1350 C1344 1.383 . S
C1350 C1349 1.379 . S
H1351 C1345 0.959 . S
H1352 C1345 0.961 . S
H1353 C1345 0.960 . S
H1354 C1346 0.930 . S
H1355 C1347 0.929 . S
H1356 C1364 0.929 . S
H1357 C1366 0.930 . S
H1358 C1368 0.930 . S
H1359 C1371 0.929 . S
H1360 C1374 0.930 . S
H1361 C1376 0.960 . S
H1362 C1376 0.960 . S
H1363 C1376 0.960 . S
C1364 H1356 0.929 . S
C1364 C1365 1.377 . S
C1364 C1366 1.384 . S
C1365 C1364 1.377 . S
C1365 C1371 1.390 . S
C1366 H1357 0.930 . S
C1366 C1364 1.384 . S
C1366 C1367 1.372 . S
C1367 C1366 1.372 . S
C1367 C1368 1.400 . S
C1367 C1372 1.490 . S
C1368 H1358 0.930 . S
C1368 C1367 1.400 . S
C1368 C1371 1.386 . S
H1369 C1385 0.930 . S
H1370 C1386 0.931 . S
C1371 H1359 0.929 . S
C1371 C1365 1.390 . S
C1371 C1368 1.386 . S
C1372 C1367 1.490 . S
C1372 C1374 1.395 . S
C1372 C1375 1.403 . S
H1373 C1379 0.930 . S
C1374 H1360 0.930 . S
C1374 C1372 1.395 . S
C1374 C1377 1.403 . S
C1375 C1372 1.403 . S
C1375 C1376 1.524 . S
C1375 C1379 1.400 . S
C1376 H1361 0.960 . S
C1376 H1362 0.960 . S
C1376 H1363 0.960 . S
C1376 C1375 1.524 . S
C1377 C1374 1.403 . S
C1377 C1378 1.392 . S
C1377 C1381 1.495 . S
C1378 C1377 1.392 . S
C1378 C1379 1.385 . S
C1378 C1380 1.478 . S
C1379 H1373 0.930 . S
C1379 C1375 1.400 . S
C1379 C1378 1.385 . S
C1380 C1378 1.478 . S
C1380 C1382 1.381 . S
C1380 C1386 1.383 . S
C1381 C1377 1.495 . S
C1381 H1387 0.959 . S
C1381 H1388 0.961 . S
C1381 H1389 0.960 . S
C1382 C1380 1.381 . S
C1382 C1383 1.394 . S
C1382 H1390 0.930 . S
C1383 C1382 1.394 . S
C1383 C1384 1.383 . S
C1383 H1391 0.929 . S
C1384 C1383 1.383 . S
C1384 C1385 1.377 . S
C1385 H1369 0.930 . S
C1385 C1384 1.377 . S
C1385 C1386 1.379 . S
C1386 H1370 0.931 . S
C1386 C1380 1.383 . S
C1386 C1385 1.379 . S
H1387 C1381 0.959 . S
H1388 C1381 0.961 . S
H1389 C1381 0.960 . S
H1390 C1382 0.930 . S
H1391 C1383 0.929 . S
H1392 C1400 0.929 . S
H1393 C1402 0.930 . S
H1394 C1404 0.930 . S
H1395 C1407 0.929 . S
H1396 C1410 0.930 . S
H1397 C1412 0.960 . S
H1398 C1412 0.960 . S
H1399 C1412 0.960 . S
C1400 H1392 0.929 . S
C1400 C1401 1.377 . S
C1400 C1402 1.384 . S
C1401 C1400 1.377 . S
C1401 C1407 1.390 . S
C1402 H1393 0.930 . S
C1402 C1400 1.384 . S
C1402 C1403 1.372 . S
C1403 C1402 1.372 . S
C1403 C1404 1.400 . S
C1403 C1408 1.490 . S
C1404 H1394 0.930 . S
C1404 C1403 1.400 . S
C1404 C1407 1.386 . S
H1405 C1421 0.930 . S
H1406 C1422 0.931 . S
C1407 H1395 0.929 . S
C1407 C1401 1.390 . S
C1407 C1404 1.386 . S
C1408 C1403 1.490 . S
C1408 C1410 1.395 . S
C1408 C1411 1.403 . S
H1409 C1415 0.930 . S
C1410 H1396 0.930 . S
C1410 C1408 1.395 . S
C1410 C1413 1.403 . S
C1411 C1408 1.403 . S
C1411 C1412 1.524 . S
C1411 C1415 1.400 . S
C1412 H1397 0.960 . S
C1412 H1398 0.960 . S
C1412 H1399 0.960 . S
C1412 C1411 1.524 . S
C1413 C1410 1.403 . S
C1413 C1414 1.392 . S
C1413 C1417 1.495 . S
C1414 C1413 1.392 . S
C1414 C1415 1.385 . S
C1414 C1416 1.478 . S
C1415 H1409 0.930 . S
C1415 C1411 1.400 . S
C1415 C1414 1.385 . S
C1416 C1414 1.478 . S
C1416 C1418 1.381 . S
C1416 C1422 1.383 . S
C1417 C1413 1.495 . S
C1417 H1423 0.959 . S
C1417 H1424 0.961 . S
C1417 H1425 0.960 . S
C1418 C1416 1.381 . S
C1418 C1419 1.394 . S
C1418 H1426 0.930 . S
C1419 C1418 1.394 . S
C1419 C1420 1.383 . S
C1419 H1427 0.929 . S
C1420 C1419 1.383 . S
C1420 C1421 1.377 . S
C1421 H1405 0.930 . S
C1421 C1420 1.377 . S
C1421 C1422 1.379 . S
C1422 H1406 0.931 . S
C1422 C1416 1.383 . S
C1422 C1421 1.379 . S
H1423 C1417 0.959 . S
H1424 C1417 0.961 . S
H1425 C1417 0.960 . S
H1426 C1418 0.930 . S
H1427 C1419 0.929 . S
C592 C487 1.473 . S
C573 C31 1.634 . S
C628 C505 1.225 . S
C609 C91 1.348 1_655 S
C645 C121 1.277 . S
C664 C529 1.191 . S
C700 C559 1.251 . S
C681 C181 1.345 . S
C736 C547 1.279 . S
C717 C271 1.369 . S
C753 C301 1.316 . S
C772 C500 1.307 . S
C789 C361 1.583 . S
C808 C520 1.515 . S
C825 C451 1.422 1_655 S
C844 C525 1.305 . S
C861 C421 1.309 . S
C880 C541 1.239 . S
C897 C331 1.424 . S
C916 C496 1.312 . S
C952 C563 1.306 . S
C933 C211 1.352 . S
C988 C508 1.276 . S
C969 C61 1.347 . S
C1005 C151 1.636 . S
C1024 C526 1.544 . S
C1041 C1 1.291 . S
C1060 C484 1.206 . S
C1096 C504 1.277 . S
C1077 C391 1.350 . S
C1132 C550 1.475 . S
C1113 C241 1.603 . S
C1168 C546 1.336 . S
C1149 C20 1.452 . S
C1204 C499 1.337 . S
C1185 C80 1.385 . S
C1221 C140 1.428 . S
C1240 C521 1.318 . S
C1257 C200 1.411 . S
C1276 C542 1.370 . S
C1312 C483 1.333 . S
C1293 C260 1.478 . S
C1329 C320 1.444 . S
C1348 C517 1.326 . S
C1384 C538 1.302 . S
C1365 C380 1.490 . S
C1420 C562 1.305 . S
C1401 C440 1.416 . S
