# Generated by pormake.
# Topology pyr, (3,6)-cn, num edge types: 1
# Building blocks:
#     Node 0, Type 0, BuildingBlock: CUQRIR_clean_linker_1, # of connection points: 3
#     Node 1, Type 0, BuildingBlock: CUQRIR_clean_linker_1, # of connection points: 3
#     Node 2, Type 0, BuildingBlock: CUQRIR_clean_linker_1, # of connection points: 3
#     Node 3, Type 0, BuildingBlock: CUQRIR_clean_linker_1, # of connection points: 3
#     Node 4, Type 0, BuildingBlock: CUQRIR_clean_linker_1, # of connection points: 3
#     Node 5, Type 0, BuildingBlock: CUQRIR_clean_linker_1, # of connection points: 3
#     Node 6, Type 0, BuildingBlock: CUQRIR_clean_linker_1, # of connection points: 3
#     Node 7, Type 0, BuildingBlock: CUQRIR_clean_linker_1, # of connection points: 3
#     Node 8, Type 1, BuildingBlock: PAMTOO_clean_sbu_0, # of connection points: 6
#     Node 9, Type 1, BuildingBlock: PAMTOO_clean_sbu_0, # of connection points: 6
#     Node 10, Type 1, BuildingBlock: PAMTOO_clean_sbu_0, # of connection points: 6
#     Node 11, Type 1, BuildingBlock: PAMTOO_clean_sbu_0, # of connection points: 6
#     Edge 12, Type (0, 1), BuildingBlock: EZIPEK_clean_linker_0, # of connection points: 2
#     Edge 13, Type (0, 1), BuildingBlock: EZIPEK_clean_linker_0, # of connection points: 2
#     Edge 14, Type (0, 1), BuildingBlock: EZIPEK_clean_linker_0, # of connection points: 2
#     Edge 15, Type (0, 1), BuildingBlock: EZIPEK_clean_linker_0, # of connection points: 2
#     Edge 16, Type (0, 1), BuildingBlock: EZIPEK_clean_linker_0, # of connection points: 2
#     Edge 17, Type (0, 1), BuildingBlock: EZIPEK_clean_linker_0, # of connection points: 2
#     Edge 18, Type (0, 1), BuildingBlock: EZIPEK_clean_linker_0, # of connection points: 2
#     Edge 19, Type (0, 1), BuildingBlock: EZIPEK_clean_linker_0, # of connection points: 2
#     Edge 20, Type (0, 1), BuildingBlock: EZIPEK_clean_linker_0, # of connection points: 2
#     Edge 21, Type (0, 1), BuildingBlock: EZIPEK_clean_linker_0, # of connection points: 2
#     Edge 22, Type (0, 1), BuildingBlock: EZIPEK_clean_linker_0, # of connection points: 2
#     Edge 23, Type (0, 1), BuildingBlock: EZIPEK_clean_linker_0, # of connection points: 2
#     Edge 24, Type (0, 1), BuildingBlock: EZIPEK_clean_linker_0, # of connection points: 2
#     Edge 25, Type (0, 1), BuildingBlock: EZIPEK_clean_linker_0, # of connection points: 2
#     Edge 26, Type (0, 1), BuildingBlock: EZIPEK_clean_linker_0, # of connection points: 2
#     Edge 27, Type (0, 1), BuildingBlock: EZIPEK_clean_linker_0, # of connection points: 2
#     Edge 28, Type (0, 1), BuildingBlock: EZIPEK_clean_linker_0, # of connection points: 2
#     Edge 29, Type (0, 1), BuildingBlock: EZIPEK_clean_linker_0, # of connection points: 2
#     Edge 30, Type (0, 1), BuildingBlock: EZIPEK_clean_linker_0, # of connection points: 2
#     Edge 31, Type (0, 1), BuildingBlock: EZIPEK_clean_linker_0, # of connection points: 2
#     Edge 32, Type (0, 1), BuildingBlock: EZIPEK_clean_linker_0, # of connection points: 2
#     Edge 33, Type (0, 1), BuildingBlock: EZIPEK_clean_linker_0, # of connection points: 2
#     Edge 34, Type (0, 1), BuildingBlock: EZIPEK_clean_linker_0, # of connection points: 2
#     Edge 35, Type (0, 1), BuildingBlock: EZIPEK_clean_linker_0, # of connection points: 2
# Relax obj value: 0.289
# Max RMSD: 0.294
# Mean RMSD: 0.175
data_MOF--net-pyr--node1-PAMTOO_clean_sbu_0--node2-CUQRIR_clean_linker_1--edge1-EZIPEK_clean_linker_0
_symmetry_space_group_name_H-M    P1
_symmetry_Int_Tables_number       1
_symmetry_cell_setting            triclinic
loop_
_symmetry_equiv_pos_as_xyz
'x, y, z'
_cell_length_a     24.36291
_cell_length_b     26.313531
_cell_length_c     25.642842
_cell_angle_alpha  89.032087
_cell_angle_beta   90.930174
_cell_angle_gamma 109.56087
loop_
_atom_site_label
_atom_site_type_symbol
_atom_site_fract_x
_atom_site_fract_y
_atom_site_fract_z
_atom_type_partial_charge
C0 C 0.39358 0.39695 0.27123 0.0
N1 N 0.41791 0.35996 0.28679 0.0
N2 N 0.39377 0.40189 0.21856 0.0
C3 C 0.36251 0.42306 0.30706 0.0
C4 C 0.42683 0.37237 0.20343 0.0
N5 N 0.44047 0.34585 0.24475 0.0
C6 C 0.44061 0.36512 0.14774 0.0
H7 H 0.31534 0.40979 0.29718 0.0
H8 H 0.38001 0.46744 0.30153 0.0
H9 H 0.36834 0.41361 0.34866 0.0
H10 H 0.41935 0.38607 0.12037 0.0
H11 H 0.42631 0.3215 0.13874 0.0
H12 H 0.48843 0.38169 0.14232 0.0
C13 C 0.1662 0.84152 0.74958 0.0
N14 N 0.13738 0.87067 0.77335 0.0
N15 N 0.19288 0.81815 0.78547 0.0
C16 C 0.17981 0.84821 0.69188 0.0
C17 C 0.18618 0.84212 0.83064 0.0
N18 N 0.14809 0.86941 0.8242 0.0
C19 C 0.23164 0.85724 0.87395 0.0
H20 H 0.14452 0.81863 0.66937 0.0
H21 H 0.22258 0.84434 0.68327 0.0
H22 H 0.18176 0.88854 0.67708 0.0
H23 H 0.27419 0.85541 0.86132 0.0
H24 H 0.21636 0.83112 0.9088 0.0
H25 H 0.23949 0.89936 0.88609 0.0
C26 C 0.59655 0.38835 0.88786 0.0
N27 N 0.629 0.38451 0.93133 0.0
N28 N 0.61776 0.43777 0.86348 0.0
C29 C 0.54369 0.34382 0.86919 0.0
C30 C 0.66445 0.46399 0.89412 0.0
N31 N 0.67247 0.43215 0.93439 0.0
C32 C 0.70322 0.52116 0.88389 0.0
H33 H 0.54648 0.30381 0.88031 0.0
H34 H 0.53849 0.34636 0.82626 0.0
H35 H 0.50455 0.34803 0.88754 0.0
H36 H 0.67791 0.54557 0.86694 0.0
H37 H 0.73677 0.52104 0.8552 0.0
H38 H 0.72533 0.54046 0.9202 0.0
C39 C 0.86204 0.69991 0.38954 0.0
N40 N 0.90951 0.73896 0.36841 0.0
N41 N 0.82867 0.72094 0.41846 0.0
C42 C 0.84718 0.64048 0.38033 0.0
C43 C 0.8568 0.77459 0.4142 0.0
N44 N 0.90749 0.78685 0.38686 0.0
C45 C 0.83556 0.81599 0.43926 0.0
H46 H 0.82849 0.63097 0.34048 0.0
H47 H 0.81506 0.61606 0.40896 0.0
H48 H 0.88709 0.62916 0.3829 0.0
H49 H 0.857 0.82683 0.47794 0.0
H50 H 0.78773 0.8001 0.44491 0.0
H51 H 0.84653 0.85314 0.41482 0.0
C52 C 0.63591 0.83377 0.97067 0.0
N53 N 0.66281 0.82735 0.92675 0.0
N54 N 0.60048 0.8631 0.96057 0.0
C55 C 0.64914 0.81644 1.0242 0.0
C56 C 0.60347 0.87055 0.90816 0.0
N57 N 0.64316 0.85098 0.88788 0.0
C58 C 0.57233 0.90249 0.87773 0.0
H59 H 0.62023 0.82398 1.05389 0.0
H60 H 0.6953 0.83852 1.03462 0.0
H61 H 0.64361 0.77284 1.02409 0.0
H62 H 0.58359 0.94356 0.89407 0.0
H63 H 0.52463 0.88262 0.88152 0.0
H64 H 0.58305 0.90553 0.83568 0.0
C65 C 0.89526 0.32565 0.47327 0.0
N66 N 0.93489 0.32152 0.43854 0.0
N67 N 0.86159 0.35225 0.45201 0.0
C68 C 0.88557 0.29881 0.52611 0.0
C69 C 0.88186 0.36455 0.40293 0.0
N70 N 0.92821 0.34702 0.39435 0.0
C71 C 0.84894 0.38604 0.36252 0.0
H72 H 0.86383 0.25476 0.52123 0.0
H73 H 0.85791 0.31464 0.55055 0.0
H74 H 0.92801 0.30509 0.5461 0.0
H75 H 0.80584 0.38509 0.37648 0.0
H76 H 0.84032 0.36154 0.32682 0.0
H77 H 0.87331 0.42885 0.35343 0.0
C78 C 0.34141 0.70966 0.30522 0.0
N79 N 0.39099 0.74738 0.32437 0.0
N80 N 0.32463 0.72493 0.25855 0.0
C81 C 0.30979 0.65672 0.33172 0.0
C82 C 0.36534 0.77319 0.24893 0.0
N83 N 0.40551 0.78848 0.28847 0.0
C84 C 0.36374 0.80701 0.20109 0.0
H85 H 0.26661 0.63649 0.31329 0.0
H86 H 0.30401 0.66321 0.37362 0.0
H87 H 0.33624 0.62978 0.32914 0.0
H88 H 0.34264 0.83695 0.2109 0.0
H89 H 0.33841 0.78187 0.16886 0.0
H90 H 0.4083 0.82898 0.18709 0.0
C91 C 0.11026 0.38432 0.80269 0.0
N92 N 0.1406 0.38013 0.75873 0.0
N93 N 0.12723 0.43602 0.82225 0.0
C94 C 0.0652 0.33686 0.82759 0.0
C95 C 0.16975 0.46289 0.7876 0.0
N96 N 0.17928 0.42982 0.75042 0.0
C97 C 0.20221 0.52259 0.78929 0.0
H98 H 0.02376 0.32748 0.80514 0.0
H99 H 0.05749 0.34528 0.86856 0.0
H100 H 0.07921 0.30087 0.82639 0.0
H101 H 0.24511 0.52978 0.80872 0.0
H102 H 0.17764 0.54396 0.81094 0.0
H103 H 0.2104 0.53956 0.74912 0.0
Dy104 Dy 0.11193 0.09586 0.54835 0.0
Dy105 Dy 0.97955 0.06526 0.5843 0.0
C106 C 0.07682 0.17763 0.63069 0.0
O107 O 0.09125 1.02303 0.60015 0.0
O108 O 1.01736 1.03028 0.64932 0.0
O109 O 0.19764 0.10659 0.57991 0.0
O110 O 0.18263 0.10379 0.49603 0.0
O111 O 0.98322 0.9914 0.53854 0.0
O112 O 0.06341 1.03103 0.48906 0.0
O113 O 0.98907 0.12815 0.52307 0.0
O114 O 0.08668 0.15896 0.50361 0.0
O115 O 0.89072 1.03098 0.5564 0.0
O116 O 0.90887 0.05989 0.63562 0.0
C117 C 0.05982 1.01143 0.64225 0.0
O118 O 0.11724 0.16498 0.60473 0.0
O119 O 1.0216 0.14529 0.62777 0.0
C120 C 0.27704 0.15128 0.5258 0.0
C121 C 0.36329 0.23285 0.4748 0.0
C122 C 0.3299 0.24625 0.51304 0.0
C123 C 0.28588 0.20521 0.53807 0.0
C124 C 0.31793 0.13842 0.49571 0.0
C125 C 0.36135 0.1793 0.4703 0.0
C126 C 0.2207 0.10952 0.53395 0.0
C127 C 1.01567 0.98935 0.4981 0.0
C128 C 0.03424 0.16283 0.50028 0.0
C129 C 0.82535 0.98539 0.62171 0.0
C130 C 0.75017 0.91016 0.68843 0.0
C131 C 0.73003 0.94628 0.6595 0.0
C132 C 0.76781 0.98417 0.62643 0.0
C133 C 0.84258 0.94415 0.64442 0.0
C134 C 0.80492 0.90637 0.67777 0.0
C135 C 0.86905 1.03434 0.60178 0.0
H136 H 0.33115 0.28757 0.51686 0.0
H137 H 0.25485 0.21564 0.56173 0.0
H138 H 0.312 0.0968 0.48671 0.0
H139 H 0.38709 0.16848 0.44115 0.0
H140 H 0.68796 0.94979 0.66769 0.0
H141 H 0.7539 1.01561 0.60877 0.0
H142 H 0.88689 0.94467 0.6407 0.0
H143 H 0.82117 0.87901 0.70016 0.0
Dy144 Dy 0.46467 0.08401 0.12038 0.0
Dy145 Dy 0.60109 0.11258 0.15368 0.0
C146 C 0.50048 1.00449 0.20544 0.0
O147 O 0.48124 0.15183 0.17459 0.0
O148 O 0.57389 0.16598 0.20724 0.0
O149 O 0.37255 0.06603 0.13596 0.0
O150 O 0.40552 0.0795 1.0567 0.0
O151 O 0.6034 0.18859 0.10973 0.0
O152 O 0.51764 0.15182 0.06455 0.0
O153 O 0.58184 0.06964 0.07754 0.0
O154 O 0.48995 1.01562 0.09305 0.0
O155 O 0.69006 0.13522 0.12696 0.0
O156 O 0.66885 0.10894 0.20693 0.0
C157 C 0.52544 0.17754 0.20464 0.0
O158 O 0.45871 1.02051 0.18439 0.0
O159 O 0.55595 1.03239 0.19639 0.0
C160 C 0.30731 1.02637 0.06594 0.0
C161 C 0.21477 0.96658 1.00195 0.0
C162 C 0.2083 1.00708 1.03362 0.0
C163 C 0.25468 1.03718 0.06521 0.0
C164 C 0.31137 0.9821 1.03853 0.0
C165 C 0.26529 0.95241 1.00657 0.0
C166 C 0.35979 0.0674 0.0864 0.0
C167 C 0.56757 0.19186 0.07179 0.0
C168 C 0.54038 1.02319 0.0722 0.0
C169 C 0.76071 0.17491 0.19163 0.0
C170 C 0.85978 0.25467 0.23137 0.0
C171 C 0.86398 0.22671 0.18639 0.0
C172 C 0.81463 0.18661 0.16686 0.0
C173 C 0.75619 0.20517 0.23491 0.0
C174 C 0.80546 0.24449 0.25476 0.0
C175 C 0.71023 0.1299 0.17333 0.0
H176 H 0.16928 1.01806 1.03078 0.0
H177 H 0.25093 0.0713 0.0861 0.0
H178 H 0.35153 0.97298 1.03889 0.0
H179 H 0.2706 0.92073 0.98283 0.0
H180 H 0.90562 0.23455 0.16771 0.0
H181 H 0.81877 0.16392 0.13316 0.0
H182 H 0.71496 0.19753 0.25429 0.0
H183 H 0.80152 0.26596 0.28943 0.0
Dy184 Dy 0.49606 0.52852 0.55238 0.0
Dy185 Dy 0.51663 0.63355 0.6206 0.0
C186 C 0.55029 0.53508 0.67209 0.0
O187 O 0.40485 0.50969 0.58356 0.0
O188 O 0.4289 0.5736 0.64748 0.0
O189 O 0.47556 0.44209 0.54628 0.0
O190 O 0.50747 0.49327 0.47927 0.0
O191 O 0.47931 0.65837 0.54645 0.0
O192 O 0.47068 0.58624 0.4943 0.0
O193 O 0.5951 0.65768 0.56691 0.0
O194 O 0.5929 0.57277 0.5487 0.0
O195 O 0.51453 0.7143 0.63007 0.0
O196 O 0.53933 0.67363 0.695 0.0
C197 C 0.39137 0.52975 0.6264 0.0
O198 O 0.51807 0.50481 0.63476 0.0
O199 O 0.56552 0.58802 0.66776 0.0
C200 C 0.55009 0.4259 0.4971 0.0
C201 C 0.65143 0.39618 0.49247 0.0
C202 C 0.61729 0.3853 0.53753 0.0
C203 C 0.56696 0.3997 0.53975 0.0
C204 C 0.58452 0.43664 0.45207 0.0
C205 C 0.63447 0.42168 0.44969 0.0
C206 C 0.50028 0.44643 0.50098 0.0
C207 C 0.46764 0.63556 0.50028 0.0
C208 C 0.61867 0.62516 0.54476 0.0
C209 C 0.47768 0.72423 0.71087 0.0
C210 C 0.37754 0.74118 0.74792 0.0
C211 C 0.38117 0.68915 0.74853 0.0
C212 C 0.43096 0.6807 0.73012 0.0
C213 C 0.47531 0.77666 0.71315 0.0
C214 C 0.42539 0.78512 0.73158 0.0
C215 C 0.52319 0.71404 0.68014 0.0
H216 H 0.62985 0.36594 0.57107 0.0
H217 H 0.54203 0.39126 0.57536 0.0
H218 H 0.57317 0.45718 0.41879 0.0
H219 H 0.66037 0.43062 0.41463 0.0
H220 H 0.34441 0.65487 0.76087 0.0
H221 H 0.43159 0.63981 0.72835 0.0
H222 H 0.51064 0.81059 0.69795 0.0
H223 H 0.42296 0.82549 0.73079 0.0
Dy224 Dy 1.00908 0.63205 1.0557 0.0
Dy225 Dy 0.99727 0.5299 0.12735 0.0
C226 C 0.96862 0.63469 0.17938 0.0
O227 O 0.09608 0.66138 0.09676 0.0
O228 O 0.09062 0.58206 0.13788 0.0
O229 O 1.01809 0.71532 1.03981 0.0
O230 O 1.00193 0.65884 0.97653 0.0
O231 O 1.02242 0.50511 1.04731 0.0
O232 O 0.05562 0.5866 1.00597 0.0
O233 O 0.90647 0.50202 0.09319 0.0
O234 O 0.91582 0.5774 1.04317 0.0
O235 O 0.98344 0.44474 0.13851 0.0
O236 O 1.01628 0.49944 0.20207 0.0
C237 C 0.11818 0.63327 0.1284 0.0
O238 O 0.98312 0.65996 0.13372 0.0
O239 O 0.96639 0.58334 0.18368 0.0
C240 C 0.94958 0.71862 0.97506 0.0
C241 C 0.84943 0.74159 0.94408 0.0
C242 C 0.85501 0.72455 0.99532 0.0
C243 C 0.90465 0.71292 1.01069 0.0
C244 C 0.9427 0.73315 0.9231 0.0
C245 C 0.8929 0.74487 0.90766 0.0
C246 C 1.00143 0.70565 0.99136 0.0
C247 C 0.04817 0.53431 1.00642 0.0
C248 C 0.88568 0.5278 1.05789 0.0
C249 C 0.06874 0.44312 0.1811 0.0
C250 C 0.18148 0.43659 0.1808 0.0
C251 C 0.16236 0.46132 0.1391 0.0
C252 C 0.10664 0.46467 0.13936 0.0
C253 C 0.08766 0.41789 0.22284 0.0
C254 C 0.1438 0.41432 0.22251 0.0
C255 C 1.01301 0.45337 0.18216 0.0
H256 H 0.82191 0.72218 1.02387 0.0
H257 H 0.90822 0.70015 1.05061 0.0
H258 H 0.97588 0.73581 0.89466 0.0
H259 H 0.88918 0.75834 0.86802 0.0
H260 H 0.19058 0.47793 0.10634 0.0
H261 H 0.09368 0.48511 0.10712 0.0
H262 H 0.05965 0.40173 0.25573 0.0
H263 H 0.15798 0.39441 0.25473 0.0
C264 C 0.34617 0.29809 0.34673 0.0
C265 C 0.40491 0.32925 0.33497 0.0
C266 C 0.43787 0.29755 0.41655 0.0
C267 C 0.37906 0.26743 0.42776 0.0
N268 N 0.27717 0.23409 0.40092 0.0
N269 N 0.50668 0.35851 0.35661 0.0
C270 C 0.33349 0.26672 0.39238 0.0
C271 C 0.45088 0.32877 0.36941 0.0
N272 N 0.30049 0.2948 0.31405 0.0
N273 N 0.48056 0.2967 0.45145 0.0
H274 H 0.51617 0.38565 0.32524 0.0
H275 H 0.54352 0.35584 0.37576 0.0
H276 H 0.4716 0.27477 0.48642 0.0
H277 H 0.52459 0.31784 0.4467 0.0
H278 H 0.3034 0.31298 0.27741 0.0
H279 H 0.3034 0.31298 0.27741 0.0
H280 H 0.24249 0.23329 0.37611 0.0
H281 H 0.26444 0.2062 0.43135 0.0
C282 C 0.13811 0.94757 0.87064 0.0
C283 C 0.1245 0.89146 0.86688 0.0
C284 C 0.13731 0.88799 0.96169 0.0
C285 C 0.1727 0.9431 0.95934 0.0
N286 N 0.20389 1.02733 0.90973 0.0
N287 N 0.09162 0.80667 0.91162 0.0
C288 C 0.17198 0.97385 0.91347 0.0
C289 C 0.11462 0.86137 0.91418 0.0
N290 N 0.10977 0.97374 0.84019 0.0
N291 N 0.1274 0.86134 1.00854 0.0
H292 H 0.0755 0.7877 0.87638 0.0
H293 H 0.09207 0.78097 0.94274 0.0
H294 H 0.1443 0.88055 1.04344 0.0
H295 H 0.09903 0.82197 1.01313 0.0
H296 H 0.11591 1.01467 0.84441 0.0
H297 H 0.0741 0.95236 0.8172 0.0
H298 H 0.20635 1.04895 0.87482 0.0
H299 H 0.2303 1.04878 0.93987 0.0
C300 C 0.61394 0.44732 0.76501 0.0
C301 C 0.59748 0.45888 0.81539 0.0
C302 C 0.54788 0.51788 0.77211 0.0
C303 C 0.56699 0.50874 0.72164 0.0
N304 N 0.62292 0.46759 0.67131 0.0
N305 N 0.55227 0.50827 0.86709 0.0
C306 C 0.60085 0.4737 0.71857 0.0
C307 C 0.5653 0.49501 0.81868 0.0
N308 N 0.64242 0.41079 0.76178 0.0
N309 N 0.51069 0.54672 0.77549 0.0
H310 H 0.56146 0.49008 0.90105 0.0
H311 H 0.53555 0.53904 0.87409 0.0
H312 H 0.49701 0.56404 0.74317 0.0
H313 H 0.48964 0.55028 0.80948 0.0
H314 H 0.6514 0.39558 0.72699 0.0
H315 H 0.65443 0.39311 0.79479 0.0
H316 H 0.6519 0.44684 0.66581 0.0
H317 H 0.61513 0.48647 0.63728 0.0
C318 C 0.9778 0.70081 0.32032 0.0
C319 C 0.93457 0.72671 0.31847 0.0
C320 C 0.91449 0.69395 0.22514 0.0
C321 C 0.9562 0.66608 0.22779 0.0
N322 N 0.03475 0.65245 0.27767 0.0
N323 N 0.85791 0.74245 0.26836 0.0
C324 C 0.98951 0.67217 0.27558 0.0
C325 C 0.90288 0.72242 0.27007 0.0
N326 N 1.00608 0.7014 0.36677 0.0
N327 N 0.88508 0.69308 0.17918 0.0
H328 H 0.84967 0.76451 0.29883 0.0
H329 H 0.82708 0.73534 0.23842 0.0
H330 H 0.88713 0.66885 0.14805 0.0
H331 H 0.86043 0.71777 0.17076 0.0
H332 H 0.03231 0.6782 0.37528 0.0
H333 H 1.00092 0.72414 0.39805 0.0
H334 H 0.0655 0.66014 0.30773 0.0
H335 H 0.04449 0.63137 0.24715 0.0
C336 C 0.43488 0.25013 0.25398 0.0
C337 C 0.46769 0.30462 0.24296 0.0
C338 C 0.55133 0.27707 0.22117 0.0
C339 C 0.5179 0.22282 0.23389 0.0
N340 N 0.43727 0.16245 0.28091 0.0
N341 N 0.5611 0.37184 0.22728 0.0
C342 C 0.4634 0.21159 0.25789 0.0
C343 C 0.52749 0.31875 0.23049 0.0
N344 N 0.37574 0.23397 0.25491 0.0
N345 N 0.60383 0.28847 0.19733 0.0
H346 H 0.54418 0.40284 0.23315 0.0
H347 H 0.60614 0.38486 0.22292 0.0
H348 H 0.62417 0.25981 0.19268 0.0
H349 H 0.62617 0.32593 0.18063 0.0
H350 H 0.34935 0.19378 0.25908 0.0
H351 H 0.35361 0.26006 0.24415 0.0
H352 H 0.39875 0.15332 0.30184 0.0
H353 H 0.45779 0.13337 0.28323 0.0
C354 C 0.1517 0.96125 0.73598 0.0
C355 C 0.1145 0.90791 0.74654 0.0
C356 C 0.03818 0.92302 0.69124 0.0
C357 C 0.07504 0.97706 0.6823 0.0
N358 N 0.16515 1.04937 0.70021 0.0
N359 N 1.02051 0.83971 0.74142 0.0
C360 C 0.13093 0.99662 0.70624 0.0
C361 C 0.05694 0.8894 0.7264 0.0
N362 N 0.20757 0.97965 0.75428 0.0
N363 N 0.98732 0.9029 0.66351 0.0
H364 H 0.03412 0.81466 0.76672 0.0
H365 H 0.97624 0.82511 0.73225 0.0
H366 H 0.97345 0.92602 0.63634 0.0
H367 H 0.96114 0.8625 0.66428 0.0
H368 H 0.22666 0.95646 0.77671 0.0
H369 H 0.22666 0.95646 0.77671 0.0
H370 H 0.2067 0.06495 0.71692 0.0
H371 H 0.15112 0.07773 0.68029 0.0
C372 C 0.78037 0.4599 0.9453 0.0
C373 C 0.7246 0.44692 0.9684 0.0
C374 C 0.77446 0.47928 1.05296 0.0
C375 C 0.82971 0.49835 1.02809 0.0
N376 N 0.88259 0.51364 0.94692 0.0
N377 N 0.66909 0.45363 1.04278 0.0
C378 C 0.83179 0.49041 0.9733 0.0
C379 C 0.72182 0.45851 1.02212 0.0
N380 N 0.7843 0.44318 0.89579 0.0
N381 N 0.77193 0.48228 0.1059 0.0
H382 H 0.63097 0.44155 1.02047 0.0
H383 H 0.66386 0.46623 0.08008 0.0
H384 H 0.80871 0.49997 0.12914 0.0
H385 H 0.73402 0.46408 0.12695 0.0
H386 H 0.82354 0.44498 0.87895 0.0
H387 H 0.74788 0.42355 0.87288 0.0
H388 H 0.88476 0.5159 0.90637 0.0
H389 H 0.92234 0.53382 0.96491 0.0
C390 C 0.72325 0.66363 0.42655 0.0
C391 C 0.77694 0.69376 0.45011 0.0
C392 C 0.72768 0.6807 0.53595 0.0
C393 C 0.6743 0.64755 0.51278 0.0
N394 N 0.62646 0.59865 0.43626 0.0
N395 N 0.83355 0.72395 0.52609 0.0
C396 C 0.67387 0.63616 0.45826 0.0
C397 C 0.77962 0.70018 0.5049 0.0
N398 N 0.71842 0.66369 0.37344 0.0
N399 N 0.72872 0.69353 0.58744 0.0
H400 H 0.84266 0.72823 0.56594 0.0
H401 H 0.84266 0.72823 0.56594 0.0
H402 H 0.69319 0.67694 0.61185 0.0
H403 H 0.76346 0.72265 0.60547 0.0
H404 H 0.67894 0.64776 0.35344 0.0
H405 H 0.75324 0.68431 0.34951 0.0
H406 H 0.62645 0.58373 0.39888 0.0
H407 H 0.58827 0.5796 0.45634 0.0
C408 C 0.34486 0.46603 0.19311 0.0
C409 C 0.34739 0.41327 0.18989 0.0
C410 C 0.2439 0.38069 0.16379 0.0
C411 C 0.23963 0.4306 0.17882 0.0
N412 N 0.28707 0.52326 0.20392 0.0
N413 N 0.29664 0.31845 0.17139 0.0
C414 C 0.29045 0.47418 0.19151 0.0
C415 C 0.29662 0.37022 0.17356 0.0
N416 N 0.39404 0.5088 0.20176 0.0
N417 N 0.19754 0.34334 0.13989 0.0
H418 H 0.3334 0.30749 0.17582 0.0
H419 H 0.25878 0.28511 0.16833 0.0
H420 H 0.15787 0.34941 0.13289 0.0
H421 H 0.20016 0.30878 0.12244 0.0
H422 H 0.43555 0.50543 0.20365 0.0
H423 H 0.43555 0.50543 0.20365 0.0
H424 H 0.32369 0.5555 0.21499 0.0
H425 H 0.2478 0.53102 0.20448 0.0
C426 C 0.56805 0.32605 1.00316 0.0
C427 C 0.61606 0.33789 0.9684 0.0
C428 C 0.63071 0.25247 0.99936 0.0
C429 C 0.58438 0.2422 1.03583 0.0
N430 N 0.5152 0.27463 0.07755 0.0
N431 N 0.69226 0.31122 0.93277 0.0
C432 C 0.55474 0.28049 1.03881 0.0
C433 C 0.64733 0.30077 0.96681 0.0
N434 N 0.53376 0.35784 1.00111 0.0
N435 N 0.65731 0.21458 0.99431 0.0
H436 H 0.70052 0.34218 0.90518 0.0
H437 H 0.72182 0.29049 0.93205 0.0
H438 H 0.64619 0.17932 1.01688 0.0
H439 H 0.68831 0.21613 0.96642 0.0
H440 H 0.49401 0.34838 1.01995 0.0
H441 H 0.54339 0.3924 0.97765 0.0
H442 H 0.49726 0.30404 0.0865 0.0
H443 H 0.50378 0.24212 0.10374 0.0
C444 C 0.97705 0.83726 0.45767 0.0
C445 C 0.95544 0.83588 0.40509 0.0
C446 C 0.98041 0.93667 0.41076 0.0
C447 C 0.99938 0.93735 0.46409 0.0
N448 N 0.02865 0.88842 0.53281 0.0
N449 N 0.94759 0.88666 0.32936 0.0
C450 C 1.0017 0.8876 0.48555 0.0
C451 C 0.96169 0.88679 0.38103 0.0
N452 N 0.96936 0.78928 0.48279 0.0
N453 N 0.97743 0.98347 0.38914 0.0
H454 H 0.93386 0.8509 0.30825 0.0
H455 H 0.9537 0.92123 0.30672 0.0
H456 H 0.99075 1.01984 0.40916 0.0
H457 H 0.95926 0.98616 0.35267 0.0
H458 H 0.97535 0.78553 0.52276 0.0
H459 H 0.95336 0.75249 0.46374 0.0
H460 H 0.03785 0.85552 0.54884 0.0
H461 H 0.0466 0.92365 0.55412 0.0
C462 C 0.23005 0.75894 0.72912 0.0
C463 C 0.22536 0.78071 0.77803 0.0
C464 C 0.30457 0.75194 0.81133 0.0
C465 C 0.32147 0.74878 0.75916 0.0
N466 N 0.29454 0.74025 0.66751 0.0
N467 N 0.22181 0.74496 0.86517 0.0
C468 C 0.28221 0.74898 0.7176 0.0
C469 C 0.25159 0.76152 0.82006 0.0
N470 N 0.18183 0.73921 0.69826 0.0
N471 N 0.33911 0.74714 0.85219 0.0
H472 H 0.17904 0.74461 0.86882 0.0
H473 H 0.23684 0.72608 0.89555 0.0
H474 H 0.37795 0.73933 0.84719 0.0
H475 H 0.3304 0.75416 0.8906 0.0
H476 H 0.18136 0.71816 0.66408 0.0
H477 H 0.14106 0.73848 0.71105 0.0
H478 H 0.26925 0.74507 0.63583 0.0
H479 H 0.33143 0.73092 0.65763 0.0
C480 C 0.70669 0.91915 0.82724 0.0
C481 C 0.67011 0.86528 0.83762 0.0
C482 C 0.68448 0.84002 0.74879 0.0
C483 C 0.72441 0.89251 0.74003 0.0
N484 N 0.78393 0.97845 0.77521 0.0
N485 N 0.61899 0.7759 0.80452 0.0
C486 C 0.73853 0.93099 0.78052 0.0
C487 C 0.65818 0.82624 0.79781 0.0
N488 N 0.70927 0.95995 0.86054 0.0
N489 N 0.67015 0.80198 0.71096 0.0
H490 H 0.59507 0.76319 0.83853 0.0
H491 H 0.59507 0.76319 0.83853 0.0
H492 H 0.68748 0.8086 0.67349 0.0
H493 H 0.68748 0.8086 0.67349 0.0
H494 H 0.72825 1.0006 0.85065 0.0
H495 H 0.68943 0.95418 0.89674 0.0
H496 H 0.80076 1.00448 0.80614 0.0
H497 H 0.80874 0.9897 0.74158 0.0
C498 C 0.94749 0.37817 0.30227 0.0
C499 C 0.95983 0.34979 0.34533 0.0
C500 C 0.94689 0.27278 0.29074 0.0
C501 C 0.91152 0.29259 0.25724 0.0
N502 N 0.89279 0.37101 0.22188 0.0
N503 N 0.02972 0.30407 0.34929 0.0
C504 C 0.91798 0.34813 0.25894 0.0
C505 C 0.97801 0.30662 0.33114 0.0
N506 N 0.96088 0.43245 0.30336 0.0
N507 N 0.94924 0.22212 0.28578 0.0
H508 H 0.05617 0.33396 0.37373 0.0
H509 H 0.04748 0.27565 0.3362 0.0
H510 H 0.92733 0.19629 0.25614 0.0
H511 H 0.9719 0.20599 0.31248 0.0
H512 H 0.98252 0.45518 0.33516 0.0
H513 H 0.98252 0.45518 0.33516 0.0
H514 H 0.89418 0.41101 0.22425 0.0
H515 H 0.87124 0.34959 0.18939 0.0
C516 C 0.40803 0.73695 0.42078 0.0
C517 C 0.42445 0.7331 0.36826 0.0
C518 C 0.47553 0.67059 0.40274 0.0
C519 C 0.45175 0.66817 0.45393 0.0
N520 N 0.38423 0.6941 0.50631 0.0
N521 N 0.46581 0.68599 0.30956 0.0
C522 C 0.41547 0.70059 0.46146 0.0
C523 C 0.45634 0.69724 0.35968 0.0
N524 N 0.38414 0.7754 0.4318 0.0
N525 N 0.51865 0.6494 0.39507 0.0
H526 H 0.45314 0.70459 0.27753 0.0
H527 H 0.48209 0.65546 0.29997 0.0
H528 H 0.53576 0.63236 0.42528 0.0
H529 H 0.54167 0.65431 0.36039 0.0
H530 H 0.3756 0.78452 0.46953 0.0
H531 H 0.37946 0.8022 0.40321 0.0
H532 H 0.35299 0.71233 0.5124 0.0
H533 H 0.38419 0.6655 0.53492 0.0
C534 C 0.14699 0.48769 0.9088 0.0
C535 C 0.10699 0.45827 0.86943 0.0
C536 C 0.02813 0.47057 0.92483 0.0
C537 C 0.06873 0.50722 0.95954 0.0
N538 N 0.17003 0.55516 0.97743 0.0
N539 N 1.00846 0.43336 0.83719 0.0
C540 C 0.12906 0.51722 0.949 0.0
C541 C 0.04724 0.45295 0.87693 0.0
N542 N 0.20199 0.48519 0.90973 0.0
N543 N 0.97079 0.45098 0.9379 0.0
H544 H 1.0211 0.42304 0.80134 0.0
H545 H 0.96559 0.43304 0.83792 0.0
H546 H 0.95564 0.46035 0.97296 0.0
H547 H 0.93982 0.42096 0.91687 0.0
H548 H 0.23193 0.50118 0.93965 0.0
H549 H 0.21515 0.46172 0.88359 0.0
H550 H 0.21424 0.56839 0.96869 0.0
H551 H 0.15902 0.57667 1.00687 0.0
C552 C 0.52491 0.89486 0.99687 0.0
C553 C 0.58367 0.89727 0.99601 0.0
C554 C 0.60876 0.97252 1.05641 0.0
C555 C 0.55326 0.97779 1.04782 0.0
N556 N 0.46057 0.94723 1.00155 0.0
N557 N 0.68449 0.94811 1.01725 0.0
C558 C 0.51129 0.93942 1.0163 0.0
C559 C 0.62651 0.93856 1.02382 0.0
N560 N 0.48257 0.85046 0.97801 0.0
N561 N 0.64427 0.99838 0.09653 0.0
H562 H 0.70061 0.92604 0.9926 0.0
H563 H 0.71661 0.9818 1.03248 0.0
H564 H 0.63188 1.02073 0.12428 0.0
H565 H 0.68291 0.99147 0.10633 0.0
H566 H 0.43825 0.84449 0.98127 0.0
H567 H 0.49226 0.81763 0.96347 0.0
H568 H 0.43108 0.92238 0.97517 0.0
H569 H 0.45111 0.98182 1.01056 0.0
C570 C 0.94251 0.23063 0.42849 0.0
C571 C 0.96719 0.28451 0.44564 0.0
C572 C 0.04797 0.26234 0.48787 0.0
C573 C 1.02228 0.20791 0.4714 0.0
N574 N 0.95613 0.14484 0.41352 0.0
N575 N 0.04647 0.35466 0.48408 0.0
C576 C 0.97307 0.19377 0.43747 0.0
C577 C 1.02117 0.30125 0.47293 0.0
N578 N 0.88905 0.2146 0.40461 0.0
N579 N 0.09586 0.27616 0.51999 0.0
H580 H 0.0268 0.38314 0.47378 0.0
H581 H 0.08807 0.37147 0.49999 0.0
H582 H 0.11803 0.24977 0.5301 0.0
H583 H 0.11272 0.31316 0.53844 0.0
H584 H 0.86535 0.17457 0.39638 0.0
H585 H 0.86706 0.2414 0.39517 0.0
H586 H 0.92345 0.13325 0.3851 0.0
H587 H 0.97906 0.1179 0.4185 0.0
C588 C 0.22268 0.71543 0.23404 0.0
C589 C 0.27223 0.69964 0.22741 0.0
C590 C 0.22235 0.64165 0.1544 0.0
C591 C 0.17373 0.65996 0.15883 0.0
N592 N 0.13143 0.72041 0.19924 0.0
N593 N 0.32368 0.65469 0.17721 0.0
C594 C 0.17521 0.69888 0.19745 0.0
C595 C 0.27317 0.66458 0.1864 0.0
N596 N 0.22064 0.74537 0.27649 0.0
N597 N 0.21982 0.60204 0.11976 0.0
H598 H 0.36047 0.66953 0.20118 0.0
H599 H 0.33039 0.63468 0.14453 0.0
H600 H 0.18476 0.58611 0.09427 0.0
H601 H 0.25091 0.58302 0.11791 0.0
H602 H 0.18365 0.75366 0.28762 0.0
H603 H 0.25493 0.75824 0.30337 0.0
H604 H 0.13316 0.75323 0.22209 0.0
H605 H 0.0944 0.70787 0.17555 0.0
C606 C 0.28696 0.45266 0.73652 0.0
C607 C 0.23043 0.44608 0.71564 0.0
C608 C 0.27868 0.49458 0.63513 0.0
C609 C 0.33497 0.4989 0.65554 0.0
N610 N 0.38963 0.46914 0.72106 0.0
N611 N 0.17251 0.45758 0.64312 0.0
C612 C 0.33799 0.47415 0.7049 0.0
C613 C 0.22653 0.46575 0.66405 0.0
N614 N 0.29244 0.44074 0.78794 0.0
N615 N 0.27523 0.52021 0.58905 0.0
H616 H 0.1348 0.43936 0.66442 0.0
H617 H 0.16473 0.46573 0.60439 0.0
H618 H 0.31194 0.54106 0.56732 0.0
H619 H 0.23687 0.52368 0.57367 0.0
H620 H 0.33233 0.45095 0.80761 0.0
H621 H 0.25673 0.4246 0.81216 0.0
H622 H 0.39383 0.44661 0.75373 0.0
H623 H 0.42721 0.48288 0.69877 0.0
C624 C 0.76884 0.84146 0.92898 0.0
C625 C 0.71042 0.80615 0.92447 0.0
C626 C 0.74496 0.72868 0.92206 0.0
C627 C 0.80249 0.76384 0.9316 0.0
N628 N 0.8694 0.85287 0.95002 0.0
N629 N 0.64162 0.71607 0.92394 0.0
C630 C 0.81465 0.82012 0.93594 0.0
C631 C 0.69815 0.74963 0.92256 0.0
N632 N 0.78051 0.89571 0.92754 0.0
N633 N 0.73539 0.67546 0.91242 0.0
H634 H 0.60668 0.73051 0.92528 0.0
H635 H 0.6294 0.67433 0.92779 0.0
H636 H 0.76901 0.65917 0.91227 0.0
H637 H 0.6953 0.64854 0.9005 0.0
H638 H 0.82195 0.92391 0.92282 0.0
H639 H 0.74775 0.91227 0.9281 0.0
H640 H 0.8793 0.89292 0.96084 0.0
H641 H 0.90484 0.83936 0.9546 0.0
C642 C 0.4154 0.88575 0.29845 0.0
C643 C 0.4427 0.84591 0.29112 0.0
C644 C 0.51135 0.91148 0.23098 0.0
C645 C 0.48431 0.95158 0.23857 0.0
N646 N 0.42147 0.98003 0.29403 0.0
N647 N 0.52766 0.82943 0.26251 0.0
C648 C 0.44007 0.93971 0.27715 0.0
C649 C 0.49512 0.86257 0.26233 0.0
N650 N 0.36206 0.87033 0.32126 0.0
N651 N 0.54856 0.91708 0.19046 0.0
H652 H 0.51577 0.7941 0.28499 0.0
H653 H 0.56865 0.83993 0.24568 0.0
H654 H 0.55714 0.94869 0.16363 0.0
H655 H 0.56528 0.88722 0.17972 0.0
H656 H 0.33612 0.89475 0.32207 0.0
H657 H 0.34174 0.83123 0.33525 0.0
H658 H 0.39321 0.97517 0.32524 0.0
H659 H 0.4392 1.01976 0.28062 0.0
C660 C 0.15828 0.29411 0.73045 0.0
C661 C 0.1276 0.33161 0.72448 0.0
C662 C 0.06341 0.26865 0.6582 0.0
C663 C 0.0941 0.23073 0.66382 0.0
N664 N 0.17366 0.21042 0.70583 0.0
N665 N 0.04308 0.34783 0.6895 0.0
C666 C 0.14259 0.24482 0.69992 0.0
C667 C 0.07814 0.31676 0.69007 0.0
N668 N 0.19994 0.30379 0.76873 0.0
N669 N 1.02175 0.26057 0.61996 0.0
H670 H 0.05305 0.38341 0.71055 0.0
H671 H 1.00221 0.33664 0.67157 0.0
H672 H 1.00953 0.22721 0.59573 0.0
H673 H 1.00307 0.28929 0.60858 0.0
H674 H 0.22165 0.27738 0.77994 0.0
H675 H 0.20992 0.33747 0.79241 0.0
H676 H 0.21368 0.22005 0.72502 0.0
H677 H 0.15999 0.17184 0.69031 0.0
C678 C 0.75483 0.31831 0.46564 0.0
C679 C 0.8096 0.35921 0.47274 0.0
C680 C 0.76093 0.42298 0.49802 0.0
C681 C 0.70593 0.3822 0.49013 0.0
N682 N 0.64983 0.28873 0.47593 0.0
N683 N 0.86656 0.44662 0.50319 0.0
C684 C 0.70273 0.32897 0.47725 0.0
C685 C 0.81299 0.41034 0.49166 0.0
N686 N 0.75286 0.27034 0.44474 0.0
N687 N 0.76316 0.47405 0.5102 0.0
H688 H 0.90483 0.43774 0.49832 0.0
H689 H 0.87324 0.48357 0.52077 0.0
H690 H 0.72603 0.48401 0.51755 0.0
H691 H 0.80129 0.50719 0.51112 0.0
H692 H 0.71472 0.24087 0.43231 0.0
H693 H 0.79031 0.26113 0.43714 0.0
H694 H 0.64476 0.2481 0.47213 0.0
H695 H 0.61067 0.2954 0.48234 0.0
loop_
_geom_bond_atom_site_label_1
_geom_bond_atom_site_label_2
_geom_bond_distance
_geom_bond_site_symmetry_2
_ccdc_geom_bond_type
C0 N1 1.317 . S
C0 N2 1.348 . S
C0 C3 1.485 . S
N1 C0 1.317 . S
N1 N5 1.370 . S
N2 C0 1.348 . S
N2 C4 1.346 . S
C3 C0 1.485 . S
C3 H7 0.960 . S
C3 H8 0.961 . S
C3 H9 0.960 . S
C4 N2 1.346 . S
C4 N5 1.307 . S
C4 C6 1.486 . S
N5 N1 1.370 . S
N5 C4 1.307 . S
C6 C4 1.486 . S
C6 H10 0.960 . S
C6 H11 0.960 . S
C6 H12 0.959 . S
H7 C3 0.960 . S
H8 C3 0.961 . S
H9 C3 0.960 . S
H10 C6 0.960 . S
H11 C6 0.960 . S
H12 C6 0.959 . S
C13 N14 1.317 . S
C13 N15 1.348 . S
C13 C16 1.485 . S
N14 C13 1.317 . S
N14 N18 1.370 . S
N15 C13 1.348 . S
N15 C17 1.346 . S
C16 C13 1.485 . S
C16 H20 0.960 . S
C16 H21 0.961 . S
C16 H22 0.960 . S
C17 N15 1.346 . S
C17 N18 1.307 . S
C17 C19 1.486 . S
N18 N14 1.370 . S
N18 C17 1.307 . S
C19 C17 1.486 . S
C19 H23 0.960 . S
C19 H24 0.960 . S
C19 H25 0.959 . S
H20 C16 0.960 . S
H21 C16 0.961 . S
H22 C16 0.960 . S
H23 C19 0.960 . S
H24 C19 0.960 . S
H25 C19 0.959 . S
C26 N27 1.317 . S
C26 N28 1.348 . S
C26 C29 1.485 . S
N27 C26 1.317 . S
N27 N31 1.370 . S
N28 C26 1.348 . S
N28 C30 1.346 . S
C29 C26 1.485 . S
C29 H33 0.960 . S
C29 H34 0.961 . S
C29 H35 0.960 . S
C30 N28 1.346 . S
C30 N31 1.307 . S
C30 C32 1.486 . S
N31 N27 1.370 . S
N31 C30 1.307 . S
C32 C30 1.486 . S
C32 H36 0.960 . S
C32 H37 0.960 . S
C32 H38 0.959 . S
H33 C29 0.960 . S
H34 C29 0.961 . S
H35 C29 0.960 . S
H36 C32 0.960 . S
H37 C32 0.960 . S
H38 C32 0.959 . S
C39 N40 1.317 . S
C39 N41 1.348 . S
C39 C42 1.485 . S
N40 C39 1.317 . S
N40 N44 1.370 . S
N41 C39 1.348 . S
N41 C43 1.346 . S
C42 C39 1.485 . S
C42 H46 0.960 . S
C42 H47 0.961 . S
C42 H48 0.960 . S
C43 N41 1.346 . S
C43 N44 1.307 . S
C43 C45 1.486 . S
N44 N40 1.370 . S
N44 C43 1.307 . S
C45 C43 1.486 . S
C45 H49 0.960 . S
C45 H50 0.960 . S
C45 H51 0.959 . S
H46 C42 0.960 . S
H47 C42 0.961 . S
H48 C42 0.960 . S
H49 C45 0.960 . S
H50 C45 0.960 . S
H51 C45 0.959 . S
C52 N53 1.317 . S
C52 N54 1.348 . S
C52 C55 1.485 . S
N53 C52 1.317 . S
N53 N57 1.370 . S
N54 C52 1.348 . S
N54 C56 1.346 . S
C55 C52 1.485 . S
C55 H59 0.960 . S
C55 H60 0.961 . S
C55 H61 0.960 . S
C56 N54 1.346 . S
C56 N57 1.307 . S
C56 C58 1.486 . S
N57 N53 1.370 . S
N57 C56 1.307 . S
C58 C56 1.486 . S
C58 H62 0.960 . S
C58 H63 0.960 . S
C58 H64 0.959 . S
H59 C55 0.960 . S
H60 C55 0.961 . S
H61 C55 0.960 . S
H62 C58 0.960 . S
H63 C58 0.960 . S
H64 C58 0.959 . S
C65 N66 1.317 . S
C65 N67 1.348 . S
C65 C68 1.485 . S
N66 C65 1.317 . S
N66 N70 1.370 . S
N67 C65 1.348 . S
N67 C69 1.346 . S
C68 C65 1.485 . S
C68 H72 0.960 . S
C68 H73 0.961 . S
C68 H74 0.960 1_655 S
C69 N67 1.346 . S
C69 N70 1.307 . S
C69 C71 1.486 . S
N70 N66 1.370 . S
N70 C69 1.307 . S
C71 C69 1.486 . S
C71 H75 0.960 . S
C71 H76 0.960 . S
C71 H77 0.959 . S
H72 C68 0.960 . S
H73 C68 0.961 . S
H74 C68 0.960 1_455 S
H75 C71 0.960 . S
H76 C71 0.960 . S
H77 C71 0.959 . S
C78 N79 1.317 . S
C78 N80 1.348 . S
C78 C81 1.485 . S
N79 C78 1.317 . S
N79 N83 1.370 . S
N80 C78 1.348 . S
N80 C82 1.346 . S
C81 C78 1.485 . S
C81 H85 0.960 . S
C81 H86 0.961 . S
C81 H87 0.960 . S
C82 N80 1.346 . S
C82 N83 1.307 . S
C82 C84 1.486 . S
N83 N79 1.370 . S
N83 C82 1.307 . S
C84 C82 1.486 . S
C84 H88 0.960 . S
C84 H89 0.960 . S
C84 H90 0.959 . S
H85 C81 0.960 . S
H86 C81 0.961 . S
H87 C81 0.960 . S
H88 C84 0.960 . S
H89 C84 0.960 . S
H90 C84 0.959 . S
C91 N92 1.317 . S
C91 N93 1.348 . S
C91 C94 1.485 . S
N92 C91 1.317 . S
N92 N96 1.370 . S
N93 C91 1.348 . S
N93 C95 1.346 . S
C94 C91 1.485 . S
C94 H98 0.960 . S
C94 H99 0.961 . S
C94 H100 0.960 . S
C95 N93 1.346 . S
C95 N96 1.307 . S
C95 C97 1.486 . S
N96 N92 1.370 . S
N96 C95 1.307 . S
C97 C95 1.486 . S
C97 H101 0.960 . S
C97 H102 0.960 . S
C97 H103 0.959 . S
H98 C94 0.960 . S
H99 C94 0.961 . S
H100 C94 0.960 . S
H101 C97 0.960 . S
H102 C97 0.960 . S
H103 C97 0.959 . S
Dy104 O107 2.307 1_545 S
Dy104 O109 2.395 . S
Dy104 O110 2.379 . S
Dy104 O112 2.339 1_545 S
Dy104 O114 2.298 . S
Dy104 O118 2.275 . S
Dy104 C126 2.738 . S
Dy105 O108 2.298 1_645 S
Dy105 O111 2.275 1_545 S
Dy105 O113 2.307 . S
Dy105 O115 2.395 1_545 S
Dy105 O116 2.379 1_545 S
Dy105 O119 2.339 1_655 S
Dy105 C135 2.738 1_545 S
C106 O118 1.254 . S
C106 O119 1.257 . S
O107 Dy104 2.307 1_565 S
O107 C117 1.266 . S
O108 Dy105 2.298 1_465 S
O108 C117 1.236 . S
O109 Dy104 2.395 . S
O109 C126 1.255 . S
O110 Dy104 2.379 . S
O110 C126 1.249 . S
O111 Dy105 2.275 1_565 S
O111 C127 1.254 1_655 S
O112 Dy104 2.339 1_565 S
O112 C127 1.257 . S
O113 Dy105 2.307 . S
O113 C128 1.266 1_655 S
O114 Dy104 2.298 . S
O114 C128 1.236 . S
O115 Dy105 2.395 1_565 S
O115 C135 1.255 . S
O116 Dy105 2.379 1_565 S
O116 C135 1.249 . S
C117 O107 1.266 . S
C117 O108 1.236 . S
O118 Dy104 2.275 . S
O118 C106 1.254 . S
O119 Dy105 2.339 1_455 S
O119 C106 1.257 . S
C120 C123 1.344 . S
C120 C124 1.328 . S
C120 C126 1.516 . S
C121 C122 1.304 . S
C121 C125 1.323 . S
C122 C121 1.304 . S
C122 C123 1.371 . S
C122 H136 0.930 . S
C123 C120 1.344 . S
C123 C122 1.371 . S
C123 H137 0.931 . S
C124 C120 1.328 . S
C124 C125 1.433 . S
C124 H138 0.931 . S
C125 C121 1.323 . S
C125 C124 1.433 . S
C125 H139 0.933 . S
C126 Dy104 2.738 . S
C126 O109 1.255 . S
C126 O110 1.249 . S
C126 C120 1.516 . S
C127 O111 1.254 1_455 S
C127 O112 1.257 . S
C128 O113 1.266 1_455 S
C128 O114 1.236 . S
C129 C132 1.344 . S
C129 C133 1.328 . S
C129 C135 1.516 . S
C130 C131 1.304 . S
C130 C134 1.323 . S
C131 C130 1.304 . S
C131 C132 1.371 . S
C131 H140 0.930 . S
C132 C129 1.344 . S
C132 C131 1.371 . S
C132 H141 0.931 . S
C133 C129 1.328 . S
C133 C134 1.433 . S
C133 H142 0.931 . S
C134 C130 1.323 . S
C134 C133 1.433 . S
C134 H143 0.933 . S
C135 Dy105 2.738 1_565 S
C135 O115 1.255 . S
C135 O116 1.249 . S
C135 C129 1.516 . S
H136 C122 0.930 . S
H137 C123 0.931 . S
H138 C124 0.931 . S
H139 C125 0.933 . S
H140 C131 0.930 . S
H141 C132 0.931 . S
H142 C133 0.931 . S
H143 C134 0.933 . S
Dy144 O147 2.307 . S
Dy144 O149 2.395 1_545 S
Dy144 O150 2.379 1_554 S
Dy144 O152 2.339 1_554 S
Dy144 O154 2.298 1_544 S
Dy144 O158 2.275 1_545 S
Dy144 C166 2.738 1_544 S
Dy145 O148 2.298 . S
Dy145 O151 2.275 . S
Dy145 O153 2.307 1_545 S
Dy145 O155 2.395 . S
Dy145 O156 2.379 . S
Dy145 O159 2.339 1_545 S
Dy145 C175 2.738 . S
C146 O158 1.254 . S
C146 O159 1.257 . S
O147 Dy144 2.307 . S
O147 C157 1.266 . S
O148 Dy145 2.298 . S
O148 C157 1.236 . S
O149 Dy144 2.395 1_565 S
O149 C166 1.255 1_554 S
O150 Dy144 2.379 1_556 S
O150 C166 1.249 1_545 S
O151 Dy145 2.275 . S
O151 C167 1.254 . S
O152 Dy144 2.339 1_556 S
O152 C167 1.257 1_556 S
O153 Dy145 2.307 1_565 S
O153 C168 1.266 . S
O154 Dy144 2.298 1_566 S
O154 C168 1.236 1_556 S
O155 Dy145 2.395 . S
O155 C175 1.255 . S
O156 Dy145 2.379 . S
O156 C175 1.249 . S
C157 O147 1.266 . S
C157 O148 1.236 . S
O158 Dy144 2.275 1_565 S
O158 C146 1.254 . S
O159 Dy145 2.339 1_565 S
O159 C146 1.257 . S
C160 C163 1.344 . S
C160 C164 1.328 . S
C160 C166 1.516 . S
C161 C162 1.304 . S
C161 C165 1.323 . S
C162 C161 1.304 . S
C162 C163 1.371 . S
C162 H176 0.930 . S
C163 C160 1.344 . S
C163 C162 1.371 . S
C163 H177 0.931 . S
C164 C160 1.328 . S
C164 C165 1.433 . S
C164 H178 0.931 . S
C165 C161 1.323 . S
C165 C164 1.433 . S
C165 H179 0.933 . S
C166 Dy144 2.738 1_566 S
C166 O149 1.255 1_556 S
C166 O150 1.249 1_565 S
C166 C160 1.516 . S
C167 O151 1.254 . S
C167 O152 1.257 1_554 S
C168 O153 1.266 . S
C168 O154 1.236 1_554 S
C169 C172 1.344 . S
C169 C173 1.328 . S
C169 C175 1.516 . S
C170 C171 1.304 . S
C170 C174 1.323 . S
C171 C170 1.304 . S
C171 C172 1.371 . S
C171 H180 0.930 . S
C172 C169 1.344 . S
C172 C171 1.371 . S
C172 H181 0.931 . S
C173 C169 1.328 . S
C173 C174 1.433 . S
C173 H182 0.931 . S
C174 C170 1.323 . S
C174 C173 1.433 . S
C174 H183 0.933 . S
C175 Dy145 2.738 . S
C175 O155 1.255 . S
C175 O156 1.249 . S
C175 C169 1.516 . S
H176 C162 0.930 . S
H177 C163 0.931 . S
H178 C164 0.931 . S
H179 C165 0.933 . S
H180 C171 0.930 . S
H181 C172 0.931 . S
H182 C173 0.931 . S
H183 C174 0.933 . S
Dy184 O187 2.307 . S
Dy184 O189 2.395 . S
Dy184 O190 2.379 . S
Dy184 O192 2.339 . S
Dy184 O194 2.298 . S
Dy184 O198 2.275 . S
Dy184 C206 2.738 . S
Dy185 O188 2.298 . S
Dy185 O191 2.275 . S
Dy185 O193 2.307 . S
Dy185 O195 2.395 . S
Dy185 O196 2.379 . S
Dy185 O199 2.339 . S
Dy185 C215 2.738 . S
C186 O198 1.254 . S
C186 O199 1.257 . S
O187 Dy184 2.307 . S
O187 C197 1.266 . S
O188 Dy185 2.298 . S
O188 C197 1.236 . S
O189 Dy184 2.395 . S
O189 C206 1.255 . S
O190 Dy184 2.379 . S
O190 C206 1.249 . S
O191 Dy185 2.275 . S
O191 C207 1.254 . S
O192 Dy184 2.339 . S
O192 C207 1.257 . S
O193 Dy185 2.307 . S
O193 C208 1.266 . S
O194 Dy184 2.298 . S
O194 C208 1.236 . S
O195 Dy185 2.395 . S
O195 C215 1.255 . S
O196 Dy185 2.379 . S
O196 C215 1.249 . S
C197 O187 1.266 . S
C197 O188 1.236 . S
O198 Dy184 2.275 . S
O198 C186 1.254 . S
O199 Dy185 2.339 . S
O199 C186 1.257 . S
C200 C203 1.344 . S
C200 C204 1.328 . S
C200 C206 1.516 . S
C201 C202 1.304 . S
C201 C205 1.323 . S
C202 C201 1.304 . S
C202 C203 1.371 . S
C202 H216 0.930 . S
C203 C200 1.344 . S
C203 C202 1.371 . S
C203 H217 0.931 . S
C204 C200 1.328 . S
C204 C205 1.433 . S
C204 H218 0.931 . S
C205 C201 1.323 . S
C205 C204 1.433 . S
C205 H219 0.933 . S
C206 Dy184 2.738 . S
C206 O189 1.255 . S
C206 O190 1.249 . S
C206 C200 1.516 . S
C207 O191 1.254 . S
C207 O192 1.257 . S
C208 O193 1.266 . S
C208 O194 1.236 . S
C209 C212 1.344 . S
C209 C213 1.328 . S
C209 C215 1.516 . S
C210 C211 1.304 . S
C210 C214 1.323 . S
C211 C210 1.304 . S
C211 C212 1.371 . S
C211 H220 0.930 . S
C212 C209 1.344 . S
C212 C211 1.371 . S
C212 H221 0.931 . S
C213 C209 1.328 . S
C213 C214 1.433 . S
C213 H222 0.931 . S
C214 C210 1.323 . S
C214 C213 1.433 . S
C214 H223 0.933 . S
C215 Dy185 2.738 . S
C215 O195 1.255 . S
C215 O196 1.249 . S
C215 C209 1.516 . S
H216 C202 0.930 . S
H217 C203 0.931 . S
H218 C204 0.931 . S
H219 C205 0.933 . S
H220 C211 0.930 . S
H221 C212 0.931 . S
H222 C213 0.931 . S
H223 C214 0.933 . S
Dy224 O227 2.307 1_556 S
Dy224 O229 2.395 1_455 S
Dy224 O230 2.379 1_455 S
Dy224 O232 2.339 . S
Dy224 O234 2.298 1_455 S
Dy224 O238 2.275 1_456 S
Dy224 C246 2.738 1_455 S
Dy225 O228 2.298 . S
Dy225 O231 2.275 1_554 S
Dy225 O233 2.307 1_455 S
Dy225 O235 2.395 . S
Dy225 O236 2.379 . S
Dy225 O239 2.339 1_455 S
Dy225 C255 2.738 . S
C226 O238 1.254 . S
C226 O239 1.257 . S
O227 Dy224 2.307 1_554 S
O227 C237 1.266 . S
O228 Dy225 2.298 . S
O228 C237 1.236 . S
O229 Dy224 2.395 1_655 S
O229 C246 1.255 . S
O230 Dy224 2.379 1_655 S
O230 C246 1.249 . S
O231 Dy225 2.275 1_556 S
O231 C247 1.254 . S
O232 Dy224 2.339 . S
O232 C247 1.257 . S
O233 Dy225 2.307 1_655 S
O233 C248 1.266 1_554 S
O234 Dy224 2.298 1_655 S
O234 C248 1.236 . S
O235 Dy225 2.395 . S
O235 C255 1.255 . S
O236 Dy225 2.379 . S
O236 C255 1.249 . S
C237 O227 1.266 . S
C237 O228 1.236 . S
O238 Dy224 2.275 1_654 S
O238 C226 1.254 . S
O239 Dy225 2.339 1_655 S
O239 C226 1.257 . S
C240 C243 1.344 . S
C240 C244 1.328 . S
C240 C246 1.516 . S
C241 C242 1.304 . S
C241 C245 1.323 . S
C242 C241 1.304 . S
C242 C243 1.371 . S
C242 H256 0.930 . S
C243 C240 1.344 . S
C243 C242 1.371 . S
C243 H257 0.931 . S
C244 C240 1.328 . S
C244 C245 1.433 . S
C244 H258 0.931 . S
C245 C241 1.323 . S
C245 C244 1.433 . S
C245 H259 0.933 . S
C246 Dy224 2.738 1_655 S
C246 O229 1.255 . S
C246 O230 1.249 . S
C246 C240 1.516 . S
C247 O231 1.254 . S
C247 O232 1.257 . S
C248 O233 1.266 1_556 S
C248 O234 1.236 . S
C249 C252 1.344 . S
C249 C253 1.328 . S
C249 C255 1.516 . S
C250 C251 1.304 . S
C250 C254 1.323 . S
C251 C250 1.304 . S
C251 C252 1.371 . S
C251 H260 0.930 . S
C252 C249 1.344 . S
C252 C251 1.371 . S
C252 H261 0.931 . S
C253 C249 1.328 . S
C253 C254 1.433 . S
C253 H262 0.931 . S
C254 C250 1.323 . S
C254 C253 1.433 . S
C254 H263 0.933 . S
C255 Dy225 2.738 . S
C255 O235 1.255 . S
C255 O236 1.249 . S
C255 C249 1.516 . S
H256 C242 0.930 . S
H257 C243 0.931 . S
H258 C244 0.931 . S
H259 C245 0.933 . S
H260 C251 0.930 . S
H261 C252 0.931 . S
H262 C253 0.931 . S
H263 C254 0.933 . S
C264 C265 1.363 . S
C264 C270 1.379 . S
C264 N272 1.356 . S
C265 C264 1.363 . S
C265 C271 1.363 . S
C266 C267 1.363 . S
C266 C271 1.379 . S
C266 N273 1.356 . S
C267 C266 1.363 . S
C267 C270 1.363 . S
N268 C270 1.356 . S
N268 H280 0.984 . S
N268 H281 0.985 . S
N269 C271 1.356 . S
N269 H274 0.984 . S
N269 H275 0.985 . S
C270 C264 1.379 . S
C270 C267 1.363 . S
C270 N268 1.356 . S
C271 C265 1.363 . S
C271 C266 1.379 . S
C271 N269 1.356 . S
N272 C264 1.356 . S
N272 H278 0.984 . S
N272 H279 0.984 . S
N273 C266 1.356 . S
N273 H276 0.984 . S
N273 H277 0.985 . S
H274 N269 0.984 . S
H275 N269 0.985 . S
H276 N273 0.984 . S
H277 N273 0.985 . S
H278 N272 0.984 . S
H279 N272 0.984 . S
H280 N268 0.984 . S
H281 N268 0.985 . S
C282 C283 1.363 . S
C282 C288 1.379 . S
C282 N290 1.356 . S
C283 C282 1.363 . S
C283 C289 1.363 . S
C284 C285 1.363 . S
C284 C289 1.379 . S
C284 N291 1.356 . S
C285 C284 1.363 . S
C285 C288 1.363 . S
N286 C288 1.356 . S
N286 H298 0.984 . S
N286 H299 0.985 . S
N287 C289 1.356 . S
N287 H292 0.984 . S
N287 H293 0.985 . S
C288 C282 1.379 . S
C288 C285 1.363 . S
C288 N286 1.356 . S
C289 C283 1.363 . S
C289 C284 1.379 . S
C289 N287 1.356 . S
N290 C282 1.356 . S
N290 H296 0.984 . S
N290 H297 0.984 . S
N291 C284 1.356 . S
N291 H294 0.984 . S
N291 H295 0.985 . S
H292 N287 0.984 . S
H293 N287 0.985 . S
H294 N291 0.984 . S
H295 N291 0.985 . S
H296 N290 0.984 . S
H297 N290 0.984 . S
H298 N286 0.984 . S
H299 N286 0.985 . S
C300 C301 1.363 . S
C300 C306 1.379 . S
C300 N308 1.356 . S
C301 C300 1.363 . S
C301 C307 1.363 . S
C302 C303 1.363 . S
C302 C307 1.379 . S
C302 N309 1.356 . S
C303 C302 1.363 . S
C303 C306 1.363 . S
N304 C306 1.356 . S
N304 H316 0.984 . S
N304 H317 0.985 . S
N305 C307 1.356 . S
N305 H310 0.984 . S
N305 H311 0.985 . S
C306 C300 1.379 . S
C306 C303 1.363 . S
C306 N304 1.356 . S
C307 C301 1.363 . S
C307 C302 1.379 . S
C307 N305 1.356 . S
N308 C300 1.356 . S
N308 H314 0.984 . S
N308 H315 0.984 . S
N309 C302 1.356 . S
N309 H312 0.984 . S
N309 H313 0.985 . S
H310 N305 0.984 . S
H311 N305 0.985 . S
H312 N309 0.984 . S
H313 N309 0.985 . S
H314 N308 0.984 . S
H315 N308 0.984 . S
H316 N304 0.984 . S
H317 N304 0.985 . S
C318 C319 1.363 . S
C318 C324 1.379 . S
C318 N326 1.356 . S
C319 C318 1.363 . S
C319 C325 1.363 . S
C320 C321 1.363 . S
C320 C325 1.379 . S
C320 N327 1.356 . S
C321 C320 1.363 . S
C321 C324 1.363 . S
N322 C324 1.356 1_455 S
N322 H334 0.984 . S
N322 H335 0.985 . S
N323 C325 1.356 . S
N323 H328 0.984 . S
N323 H329 0.985 . S
C324 C318 1.379 . S
C324 C321 1.363 . S
C324 N322 1.356 1_655 S
C325 C319 1.363 . S
C325 C320 1.379 . S
C325 N323 1.356 . S
N326 C318 1.356 . S
N326 H332 0.984 1_655 S
N326 H333 0.984 . S
N327 C320 1.356 . S
N327 H330 0.984 . S
N327 H331 0.985 . S
H328 N323 0.984 . S
H329 N323 0.985 . S
H330 N327 0.984 . S
H331 N327 0.985 . S
H332 N326 0.984 1_455 S
H333 N326 0.984 . S
H334 N322 0.984 . S
H335 N322 0.985 . S
C336 C337 1.363 . S
C336 C342 1.379 . S
C336 N344 1.356 . S
C337 C336 1.363 . S
C337 C343 1.363 . S
C338 C339 1.363 . S
C338 C343 1.379 . S
C338 N345 1.356 . S
C339 C338 1.363 . S
C339 C342 1.363 . S
N340 C342 1.356 . S
N340 H352 0.984 . S
N340 H353 0.985 . S
N341 C343 1.356 . S
N341 H346 0.984 . S
N341 H347 0.985 . S
C342 C336 1.379 . S
C342 C339 1.363 . S
C342 N340 1.356 . S
C343 C337 1.363 . S
C343 C338 1.379 . S
C343 N341 1.356 . S
N344 C336 1.356 . S
N344 H350 0.984 . S
N344 H351 0.984 . S
N345 C338 1.356 . S
N345 H348 0.984 . S
N345 H349 0.985 . S
H346 N341 0.984 . S
H347 N341 0.985 . S
H348 N345 0.984 . S
H349 N345 0.985 . S
H350 N344 0.984 . S
H351 N344 0.984 . S
H352 N340 0.984 . S
H353 N340 0.985 . S
C354 C355 1.363 . S
C354 C360 1.379 . S
C354 N362 1.356 . S
C355 C354 1.363 . S
C355 C361 1.363 . S
C356 C357 1.363 . S
C356 C361 1.379 . S
C356 N363 1.356 1_455 S
C357 C356 1.363 . S
C357 C360 1.363 . S
N358 C360 1.356 . S
N358 H370 0.984 . S
N358 H371 0.985 . S
N359 C361 1.356 1_655 S
N359 H364 0.984 . S
N359 H365 0.985 . S
C360 C354 1.379 . S
C360 C357 1.363 . S
C360 N358 1.356 . S
C361 C355 1.363 . S
C361 C356 1.379 . S
C361 N359 1.356 1_455 S
N362 C354 1.356 . S
N362 H368 0.984 . S
N362 H369 0.984 . S
N363 C356 1.356 1_655 S
N363 H366 0.984 1_655 S
N363 H367 0.985 . S
H364 N359 0.984 . S
H365 N359 0.985 . S
H366 N363 0.984 1_455 S
H367 N363 0.985 . S
H368 N362 0.984 . S
H369 N362 0.984 . S
H370 N358 0.984 . S
H371 N358 0.985 . S
C372 C373 1.363 . S
C372 C378 1.379 . S
C372 N380 1.356 . S
C373 C372 1.363 . S
C373 C379 1.363 . S
C374 C375 1.363 . S
C374 C379 1.379 . S
C374 N381 1.356 1_556 S
C375 C374 1.363 . S
C375 C378 1.363 . S
N376 C378 1.356 . S
N376 H388 0.984 . S
N376 H389 0.985 . S
N377 C379 1.356 . S
N377 H382 0.984 . S
N377 H383 0.976 1_556 S
C378 C372 1.379 . S
C378 C375 1.363 . S
C378 N376 1.356 . S
C379 C373 1.363 . S
C379 C374 1.379 . S
C379 N377 1.356 . S
N380 C372 1.356 . S
N380 H386 0.984 . S
N380 H387 0.984 . S
N381 C374 1.356 1_554 S
N381 H384 0.984 . S
N381 H385 0.985 . S
H382 N377 0.984 . S
H383 N377 0.976 1_554 S
H384 N381 0.984 . S
H385 N381 0.985 . S
H386 N380 0.984 . S
H387 N380 0.984 . S
H388 N376 0.984 . S
H389 N376 0.985 . S
C390 C391 1.363 . S
C390 C396 1.379 . S
C390 N398 1.356 . S
C391 C390 1.363 . S
C391 C397 1.363 . S
C392 C393 1.363 . S
C392 C397 1.379 . S
C392 N399 1.356 . S
C393 C392 1.363 . S
C393 C396 1.363 . S
N394 C396 1.356 . S
N394 H406 0.984 . S
N394 H407 0.985 . S
N395 C397 1.356 . S
N395 H400 0.984 . S
N395 H401 0.985 . S
C396 C390 1.379 . S
C396 C393 1.363 . S
C396 N394 1.356 . S
C397 C391 1.363 . S
C397 C392 1.379 . S
C397 N395 1.356 . S
N398 C390 1.356 . S
N398 H404 0.984 . S
N398 H405 0.984 . S
N399 C392 1.356 . S
N399 H402 0.984 . S
N399 H403 0.985 . S
H400 N395 0.984 . S
H401 N395 0.985 . S
H402 N399 0.984 . S
H403 N399 0.985 . S
H404 N398 0.984 . S
H405 N398 0.984 . S
H406 N394 0.984 . S
H407 N394 0.985 . S
C408 C409 1.363 . S
C408 C414 1.379 . S
C408 N416 1.356 . S
C409 C408 1.363 . S
C409 C415 1.363 . S
C410 C411 1.363 . S
C410 C415 1.379 . S
C410 N417 1.356 . S
C411 C410 1.363 . S
C411 C414 1.363 . S
N412 C414 1.356 . S
N412 H424 0.984 . S
N412 H425 0.985 . S
N413 C415 1.356 . S
N413 H418 0.984 . S
N413 H419 0.985 . S
C414 C408 1.379 . S
C414 C411 1.363 . S
C414 N412 1.356 . S
C415 C409 1.363 . S
C415 C410 1.379 . S
C415 N413 1.356 . S
N416 C408 1.356 . S
N416 H422 0.984 . S
N416 H423 0.984 . S
N417 C410 1.356 . S
N417 H420 0.984 . S
N417 H421 0.985 . S
H418 N413 0.984 . S
H419 N413 0.985 . S
H420 N417 0.984 . S
H421 N417 0.985 . S
H422 N416 0.984 . S
H423 N416 0.984 . S
H424 N412 0.984 . S
H425 N412 0.985 . S
C426 C427 1.363 . S
C426 C432 1.379 . S
C426 N434 1.356 . S
C427 C426 1.363 . S
C427 C433 1.363 . S
C428 C429 1.363 . S
C428 C433 1.379 . S
C428 N435 1.356 . S
C429 C428 1.363 . S
C429 C432 1.363 . S
N430 C432 1.356 1_554 S
N430 H442 0.984 . S
N430 H443 0.985 . S
N431 C433 1.356 . S
N431 H436 0.984 . S
N431 H437 0.985 . S
C432 C426 1.379 . S
C432 C429 1.363 . S
C432 N430 1.356 1_556 S
C433 C427 1.363 . S
C433 C428 1.379 . S
C433 N431 1.356 . S
N434 C426 1.356 . S
N434 H440 0.984 1_556 S
N434 H441 0.984 . S
N435 C428 1.356 . S
N435 H438 0.984 . S
N435 H439 0.985 . S
H436 N431 0.984 . S
H437 N431 0.985 . S
H438 N435 0.984 . S
H439 N435 0.985 . S
H440 N434 0.984 1_554 S
H441 N434 0.984 . S
H442 N430 0.984 . S
H443 N430 0.985 . S
C444 C445 1.363 . S
C444 C450 1.379 . S
C444 N452 1.356 . S
C445 C444 1.363 . S
C445 C451 1.363 . S
C446 C447 1.363 . S
C446 C451 1.379 . S
C446 N453 1.356 . S
C447 C446 1.363 . S
C447 C450 1.363 . S
N448 C450 1.356 1_455 S
N448 H460 0.984 . S
N448 H461 0.985 . S
N449 C451 1.356 . S
N449 H454 0.984 . S
N449 H455 0.985 . S
C450 C444 1.379 . S
C450 C447 1.363 . S
C450 N448 1.356 1_655 S
C451 C445 1.363 . S
C451 C446 1.379 . S
C451 N449 1.356 . S
N452 C444 1.356 . S
N452 H458 0.984 . S
N452 H459 0.984 . S
N453 C446 1.356 . S
N453 H456 0.984 . S
N453 H457 0.985 . S
H454 N449 0.984 . S
H455 N449 0.985 . S
H456 N453 0.984 . S
H457 N453 0.985 . S
H458 N452 0.984 . S
H459 N452 0.984 . S
H460 N448 0.984 . S
H461 N448 0.985 . S
C462 C463 1.363 . S
C462 C468 1.379 . S
C462 N470 1.356 . S
C463 C462 1.363 . S
C463 C469 1.363 . S
C464 C465 1.363 . S
C464 C469 1.379 . S
C464 N471 1.356 . S
C465 C464 1.363 . S
C465 C468 1.363 . S
N466 C468 1.356 . S
N466 H478 0.984 . S
N466 H479 0.985 . S
N467 C469 1.356 . S
N467 H472 0.984 . S
N467 H473 0.985 . S
C468 C462 1.379 . S
C468 C465 1.363 . S
C468 N466 1.356 . S
C469 C463 1.363 . S
C469 C464 1.379 . S
C469 N467 1.356 . S
N470 C462 1.356 . S
N470 H476 0.984 . S
N470 H477 0.984 . S
N471 C464 1.356 . S
N471 H474 0.984 . S
N471 H475 0.985 . S
H472 N467 0.984 . S
H473 N467 0.985 . S
H474 N471 0.984 . S
H475 N471 0.985 . S
H476 N470 0.984 . S
H477 N470 0.984 . S
H478 N466 0.984 . S
H479 N466 0.985 . S
C480 C481 1.363 . S
C480 C486 1.379 . S
C480 N488 1.356 . S
C481 C480 1.363 . S
C481 C487 1.363 . S
C482 C483 1.363 . S
C482 C487 1.379 . S
C482 N489 1.356 . S
C483 C482 1.363 . S
C483 C486 1.363 . S
N484 C486 1.356 . S
N484 H496 0.984 . S
N484 H497 0.985 . S
N485 C487 1.356 . S
N485 H490 0.984 . S
N485 H491 0.985 . S
C486 C480 1.379 . S
C486 C483 1.363 . S
C486 N484 1.356 . S
C487 C481 1.363 . S
C487 C482 1.379 . S
C487 N485 1.356 . S
N488 C480 1.356 . S
N488 H494 0.984 . S
N488 H495 0.984 . S
N489 C482 1.356 . S
N489 H492 0.984 . S
N489 H493 0.985 . S
H490 N485 0.984 . S
H491 N485 0.985 . S
H492 N489 0.984 . S
H493 N489 0.985 . S
H494 N488 0.984 . S
H495 N488 0.984 . S
H496 N484 0.984 . S
H497 N484 0.985 . S
C498 C499 1.363 . S
C498 C504 1.379 . S
C498 N506 1.356 . S
C499 C498 1.363 . S
C499 C505 1.363 . S
C500 C501 1.363 . S
C500 C505 1.379 . S
C500 N507 1.356 . S
C501 C500 1.363 . S
C501 C504 1.363 . S
N502 C504 1.356 . S
N502 H514 0.984 . S
N502 H515 0.985 . S
N503 C505 1.356 . S
N503 H508 0.984 . S
N503 H509 0.985 . S
C504 C498 1.379 . S
C504 C501 1.363 . S
C504 N502 1.356 . S
C505 C499 1.363 . S
C505 C500 1.379 . S
C505 N503 1.356 . S
N506 C498 1.356 . S
N506 H512 0.984 . S
N506 H513 0.984 . S
N507 C500 1.356 . S
N507 H510 0.984 . S
N507 H511 0.985 . S
H508 N503 0.984 . S
H509 N503 0.985 . S
H510 N507 0.984 . S
H511 N507 0.985 . S
H512 N506 0.984 . S
H513 N506 0.984 . S
H514 N502 0.984 . S
H515 N502 0.985 . S
C516 C517 1.363 . S
C516 C522 1.379 . S
C516 N524 1.356 . S
C517 C516 1.363 . S
C517 C523 1.363 . S
C518 C519 1.363 . S
C518 C523 1.379 . S
C518 N525 1.356 . S
C519 C518 1.363 . S
C519 C522 1.363 . S
N520 C522 1.356 . S
N520 H532 0.984 . S
N520 H533 0.985 . S
N521 C523 1.356 . S
N521 H526 0.984 . S
N521 H527 0.985 . S
C522 C516 1.379 . S
C522 C519 1.363 . S
C522 N520 1.356 . S
C523 C517 1.363 . S
C523 C518 1.379 . S
C523 N521 1.356 . S
N524 C516 1.356 . S
N524 H530 0.984 . S
N524 H531 0.984 . S
N525 C518 1.356 . S
N525 H528 0.984 . S
N525 H529 0.985 . S
H526 N521 0.984 . S
H527 N521 0.985 . S
H528 N525 0.984 . S
H529 N525 0.985 . S
H530 N524 0.984 . S
H531 N524 0.984 . S
H532 N520 0.984 . S
H533 N520 0.985 . S
C534 C535 1.363 . S
C534 C540 1.379 . S
C534 N542 1.356 . S
C535 C534 1.363 . S
C535 C541 1.363 . S
C536 C537 1.363 . S
C536 C541 1.379 . S
C536 N543 1.369 . S
C537 C536 1.363 . S
C537 C540 1.363 . S
N538 C540 1.356 . S
N538 H550 0.984 . S
N538 H551 0.985 . S
N539 C541 1.356 . S
N539 H544 0.984 . S
N539 H545 0.985 1_455 S
C540 C534 1.379 . S
C540 C537 1.363 . S
C540 N538 1.356 . S
C541 C535 1.363 . S
C541 C536 1.379 . S
C541 N539 1.356 . S
N542 C534 1.356 . S
N542 H548 0.984 . S
N542 H549 0.984 . S
N543 C536 1.369 . S
N543 H546 0.983 . S
N543 H547 0.974 1_455 S
H544 N539 0.984 . S
H545 N539 0.985 1_655 S
H546 N543 0.983 . S
H547 N543 0.974 1_655 S
H548 N542 0.984 . S
H549 N542 0.984 . S
H550 N538 0.984 . S
H551 N538 0.985 . S
C552 C553 1.363 . S
C552 C558 1.379 . S
C552 N560 1.356 . S
C553 C552 1.363 . S
C553 C559 1.363 . S
C554 C555 1.363 . S
C554 C559 1.379 . S
C554 N561 1.356 1_556 S
C555 C554 1.363 . S
C555 C558 1.363 . S
N556 C558 1.356 . S
N556 H568 0.984 . S
N556 H569 0.985 . S
N557 C559 1.356 . S
N557 H562 0.984 . S
N557 H563 0.975 1_556 S
C558 C552 1.379 . S
C558 C555 1.363 . S
C558 N556 1.356 . S
C559 C553 1.363 . S
C559 C554 1.379 . S
C559 N557 1.356 . S
N560 C552 1.356 . S
N560 H566 0.984 . S
N560 H567 0.984 . S
N561 C554 1.356 1_554 S
N561 H564 0.984 . S
N561 H565 0.985 . S
H562 N557 0.984 . S
H563 N557 0.975 1_554 S
H564 N561 0.984 . S
H565 N561 0.985 . S
H566 N560 0.984 . S
H567 N560 0.984 . S
H568 N556 0.984 . S
H569 N556 0.985 . S
C570 C571 1.363 . S
C570 C576 1.379 . S
C570 N578 1.356 . S
C571 C570 1.363 . S
C571 C577 1.363 1_655 S
C572 C573 1.363 1_455 S
C572 C577 1.379 . S
C572 N579 1.356 . S
C573 C572 1.363 1_655 S
C573 C576 1.363 . S
N574 C576 1.356 . S
N574 H586 0.984 . S
N574 H587 0.985 . S
N575 C577 1.356 . S
N575 H580 0.984 . S
N575 H581 0.985 . S
C576 C570 1.379 . S
C576 C573 1.363 . S
C576 N574 1.356 . S
C577 C571 1.363 1_455 S
C577 C572 1.379 . S
C577 N575 1.356 . S
N578 C570 1.356 . S
N578 H584 0.984 . S
N578 H585 0.984 . S
N579 C572 1.356 . S
N579 H582 0.984 . S
N579 H583 0.985 . S
H580 N575 0.984 . S
H581 N575 0.985 . S
H582 N579 0.984 . S
H583 N579 0.985 . S
H584 N578 0.984 . S
H585 N578 0.984 . S
H586 N574 0.984 . S
H587 N574 0.985 . S
C588 C589 1.363 . S
C588 C594 1.379 . S
C588 N596 1.356 . S
C589 C588 1.363 . S
C589 C595 1.363 . S
C590 C591 1.363 . S
C590 C595 1.379 . S
C590 N597 1.356 . S
C591 C590 1.363 . S
C591 C594 1.363 . S
N592 C594 1.356 . S
N592 H604 0.984 . S
N592 H605 0.985 . S
N593 C595 1.356 . S
N593 H598 0.984 . S
N593 H599 0.985 . S
C594 C588 1.379 . S
C594 C591 1.363 . S
C594 N592 1.356 . S
C595 C589 1.363 . S
C595 C590 1.379 . S
C595 N593 1.356 . S
N596 C588 1.356 . S
N596 H602 0.984 . S
N596 H603 0.984 . S
N597 C590 1.356 . S
N597 H600 0.984 . S
N597 H601 0.985 . S
H598 N593 0.984 . S
H599 N593 0.985 . S
H600 N597 0.984 . S
H601 N597 0.985 . S
H602 N596 0.984 . S
H603 N596 0.984 . S
H604 N592 0.984 . S
H605 N592 0.985 . S
C606 C607 1.363 . S
C606 C612 1.379 . S
C606 N614 1.356 . S
C607 C606 1.363 . S
C607 C613 1.363 . S
C608 C609 1.363 . S
C608 C613 1.379 . S
C608 N615 1.356 . S
C609 C608 1.363 . S
C609 C612 1.363 . S
N610 C612 1.356 . S
N610 H622 0.984 . S
N610 H623 0.985 . S
N611 C613 1.356 . S
N611 H616 0.984 . S
N611 H617 0.985 . S
C612 C606 1.379 . S
C612 C609 1.363 . S
C612 N610 1.356 . S
C613 C607 1.363 . S
C613 C608 1.379 . S
C613 N611 1.356 . S
N614 C606 1.356 . S
N614 H620 0.984 . S
N614 H621 0.984 . S
N615 C608 1.356 . S
N615 H618 0.984 . S
N615 H619 0.985 . S
H616 N611 0.984 . S
H617 N611 0.985 . S
H618 N615 0.984 . S
H619 N615 0.985 . S
H620 N614 0.984 . S
H621 N614 0.984 . S
H622 N610 0.984 . S
H623 N610 0.985 . S
C624 C625 1.363 . S
C624 C630 1.379 . S
C624 N632 1.356 . S
C625 C624 1.363 . S
C625 C631 1.363 . S
C626 C627 1.363 . S
C626 C631 1.379 . S
C626 N633 1.356 . S
C627 C626 1.363 . S
C627 C630 1.363 . S
N628 C630 1.356 . S
N628 H640 0.984 . S
N628 H641 0.985 . S
N629 C631 1.356 . S
N629 H634 0.984 . S
N629 H635 0.985 . S
C630 C624 1.379 . S
C630 C627 1.363 . S
C630 N628 1.356 . S
C631 C625 1.363 . S
C631 C626 1.379 . S
C631 N629 1.356 . S
N632 C624 1.356 . S
N632 H638 0.984 . S
N632 H639 0.984 . S
N633 C626 1.356 . S
N633 H636 0.984 . S
N633 H637 0.985 . S
H634 N629 0.984 . S
H635 N629 0.985 . S
H636 N633 0.984 . S
H637 N633 0.985 . S
H638 N632 0.984 . S
H639 N632 0.984 . S
H640 N628 0.984 . S
H641 N628 0.985 . S
C642 C643 1.363 . S
C642 C648 1.379 . S
C642 N650 1.356 . S
C643 C642 1.363 . S
C643 C649 1.363 . S
C644 C645 1.363 . S
C644 C649 1.379 . S
C644 N651 1.356 . S
C645 C644 1.363 . S
C645 C648 1.363 . S
N646 C648 1.356 . S
N646 H658 0.984 . S
N646 H659 0.985 . S
N647 C649 1.356 . S
N647 H652 0.984 . S
N647 H653 0.985 . S
C648 C642 1.379 . S
C648 C645 1.363 . S
C648 N646 1.356 . S
C649 C643 1.363 . S
C649 C644 1.379 . S
C649 N647 1.356 . S
N650 C642 1.356 . S
N650 H656 0.984 . S
N650 H657 0.984 . S
N651 C644 1.356 . S
N651 H654 0.984 . S
N651 H655 0.985 . S
H652 N647 0.984 . S
H653 N647 0.985 . S
H654 N651 0.984 . S
H655 N651 0.985 . S
H656 N650 0.984 . S
H657 N650 0.984 . S
H658 N646 0.984 . S
H659 N646 0.985 . S
C660 C661 1.363 . S
C660 C666 1.379 . S
C660 N668 1.356 . S
C661 C660 1.363 . S
C661 C667 1.363 . S
C662 C663 1.363 . S
C662 C667 1.379 . S
C662 N669 1.356 . S
C663 C662 1.363 . S
C663 C666 1.363 . S
N664 C666 1.356 . S
N664 H676 0.984 . S
N664 H677 0.985 . S
N665 C667 1.356 . S
N665 H670 0.984 . S
N665 H671 0.985 . S
C666 C660 1.379 . S
C666 C663 1.363 . S
C666 N664 1.356 . S
C667 C661 1.363 . S
C667 C662 1.379 . S
C667 N665 1.356 . S
N668 C660 1.356 . S
N668 H674 0.984 . S
N668 H675 0.984 . S
N669 C662 1.356 . S
N669 H672 0.984 . S
N669 H673 0.985 1_455 S
H670 N665 0.984 . S
H671 N665 0.985 . S
H672 N669 0.984 . S
H673 N669 0.985 1_655 S
H674 N668 0.984 . S
H675 N668 0.984 . S
H676 N664 0.984 . S
H677 N664 0.985 . S
C678 C679 1.363 . S
C678 C684 1.379 . S
C678 N686 1.356 . S
C679 C678 1.363 . S
C679 C685 1.363 . S
C680 C681 1.363 . S
C680 C685 1.379 . S
C680 N687 1.356 . S
C681 C680 1.363 . S
C681 C684 1.363 . S
N682 C684 1.356 . S
N682 H694 0.984 . S
N682 H695 0.985 . S
N683 C685 1.356 . S
N683 H688 0.984 . S
N683 H689 0.985 . S
C684 C678 1.379 . S
C684 C681 1.363 . S
C684 N682 1.356 . S
C685 C679 1.363 . S
C685 C680 1.379 . S
C685 N683 1.356 . S
N686 C678 1.356 . S
N686 H692 0.984 . S
N686 H693 0.984 . S
N687 C680 1.356 . S
N687 H690 0.984 . S
N687 H691 0.985 . S
H688 N683 0.984 . S
H689 N683 0.985 . S
H690 N687 0.984 . S
H691 N687 0.985 . S
H692 N686 0.984 . S
H693 N686 0.984 . S
H694 N682 0.984 . S
H695 N682 0.985 . S
C265 N1 0.932 . S
C267 C121 0.957 . S
C283 N18 1.049 . S
C285 C161 1.102 . S
C303 C186 2.155 . S
C301 N28 2.214 . S
C319 N40 2.727 . S
C321 C226 2.740 . S
C339 C157 1.819 . S
C337 N5 1.754 . S
C357 C117 1.464 . S
C355 N14 1.332 . S
C375 C248 1.884 . S
C373 N31 1.897 . S
C393 C208 1.644 . S
C391 N41 1.677 . S
C409 N2 1.221 . S
C411 C250 1.258 . S
C429 C167 2.401 1_556 S
C427 N27 2.441 . S
C445 N44 2.389 . S
C447 C127 2.444 1_655 S
C463 N15 1.145 . S
C465 C210 1.190 . S
C483 C130 1.427 . S
C481 N57 1.429 . S
C499 N70 0.923 . S
C501 C170 1.007 . S
C517 N79 2.374 . S
C519 C207 2.418 . S
C535 N93 2.533 . S
C537 C247 2.498 . S
C553 N54 1.510 . S
C555 C168 1.646 1_556 S
C573 C128 2.004 1_655 S
C571 N66 1.965 . S
C591 C237 1.520 . S
C589 N80 1.587 . S
C609 C197 1.812 . S
C607 N96 1.866 . S
C625 N53 1.502 . S
C627 C241 1.481 . S
C645 C146 2.048 . S
C643 N83 1.989 . S
C663 C106 2.460 . S
C661 N92 2.537 . S
C679 N67 1.433 . S
C681 C201 1.461 . S
