# Generated by pormake.
# Topology pts, (4,4)-cn, num edge types: 1
# Building blocks:
#     Node 0, Type 0, BuildingBlock: MIFKUJ_clean_linker_1, # of connection points: 4
#     Node 1, Type 0, BuildingBlock: MIFKUJ_clean_linker_1, # of connection points: 4
#     Node 2, Type 1, BuildingBlock: UXUYUI_clean_sbu_0, # of connection points: 4
#     Node 3, Type 1, BuildingBlock: UXUYUI_clean_sbu_0, # of connection points: 4
#     Edge 4, Type (0, 1), BuildingBlock: TEMPAE_clean_linker_10, # of connection points: 2
#     Edge 5, Type (0, 1), BuildingBlock: TEMPAE_clean_linker_10, # of connection points: 2
#     Edge 6, Type (0, 1), BuildingBlock: TEMPAE_clean_linker_10, # of connection points: 2
#     Edge 7, Type (0, 1), BuildingBlock: TEMPAE_clean_linker_10, # of connection points: 2
#     Edge 8, Type (0, 1), BuildingBlock: TEMPAE_clean_linker_10, # of connection points: 2
#     Edge 9, Type (0, 1), BuildingBlock: TEMPAE_clean_linker_10, # of connection points: 2
#     Edge 10, Type (0, 1), BuildingBlock: TEMPAE_clean_linker_10, # of connection points: 2
#     Edge 11, Type (0, 1), BuildingBlock: TEMPAE_clean_linker_10, # of connection points: 2
# Relax obj value: 0.001
# Max RMSD: 0.016
# Mean RMSD: 0.014
data_MOF--net-pts--node1-UXUYUI_clean_sbu_0--node2-MIFKUJ_clean_linker_1--edge1-TEMPAE_clean_linker_10
_symmetry_space_group_name_H-M    P1
_symmetry_Int_Tables_number       1
_symmetry_cell_setting            triclinic
loop_
_symmetry_equiv_pos_as_xyz
'x, y, z'
_cell_length_a     36.286395
_cell_length_b     36.294647
_cell_length_c     49.678607
_cell_angle_alpha  89.954964
_cell_angle_beta   90.021966
_cell_angle_gamma 89.964111
loop_
_atom_site_label
_atom_site_type_symbol
_atom_site_fract_x
_atom_site_fract_y
_atom_site_fract_z
_atom_type_partial_charge
H0 H 0.56729 0.95673 0.05374 0.0
H1 H 0.62369 0.95608 0.08074 0.0
H2 H 0.65456 0.06158 0.04728 0.0
H3 H 0.59821 0.06201 0.02033 0.0
H4 H 0.51034 0.00361 0.05425 0.0
H5 H 0.59531 0.96049 0.98622 0.0
H6 H 0.65168 0.96094 0.95941 0.0
H7 H 0.62755 0.07239 0.93389 0.0
H8 H 0.57034 0.07087 0.95983 0.0
H9 H 0.4522 0.06741 0.95673 0.0
H10 H 0.39602 0.06742 0.92941 0.0
H11 H 0.36786 0.95994 0.96063 0.0
H12 H 0.42436 0.95986 0.98761 0.0
H13 H 0.51065 0.02027 0.95513 0.0
H14 H 0.41855 0.05686 0.01843 0.0
H15 H 0.36219 0.05382 0.04533 0.0
H16 H 0.40103 0.95356 0.08264 0.0
H17 H 0.45699 0.95614 0.05523 0.0
C18 C 0.5787 0.00922 0.03481 0.0
C19 C 0.58624 0.97969 0.05222 0.0
C20 C 0.61841 0.97942 0.06769 0.0
C21 C 0.64362 0.00877 0.06613 0.0
C22 C 0.63601 0.03829 0.04863 0.0
C23 C 0.6038 0.03857 0.03321 0.0
C24 C 0.54406 0.00985 0.01892 0.0
C25 C 0.51033 0.00665 0.03252 0.0
C26 C 0.5441 0.01483 0.9907 0.0
C27 C 0.57877 0.01567 0.97501 0.0
C28 C 0.60229 0.985 0.97485 0.0
C29 C 0.63466 0.98544 0.95964 0.0
C30 C 0.64437 0.01675 0.94445 0.0
C31 C 0.62075 0.04756 0.94491 0.0
C32 C 0.58812 0.04688 0.95985 0.0
C33 C 0.44231 0.01376 0.97433 0.0
C34 C 0.4339 0.04387 0.95767 0.0
C35 C 0.4017 0.04395 0.94224 0.0
C36 C 0.37752 0.01371 0.94294 0.0
C37 C 0.38611 0.9835 0.95954 0.0
C38 C 0.4182 0.98354 0.97511 0.0
C39 C 0.47674 0.01365 0.99042 0.0
C40 C 0.51049 0.01711 0.97685 0.0
C41 C 0.4766 0.00858 0.0187 0.0
C42 C 0.44189 0.00646 0.03451 0.0
C43 C 0.41469 0.03384 0.03201 0.0
C44 C 0.38253 0.03215 0.04745 0.0
C45 C 0.37726 0.00343 0.06604 0.0
C46 C 0.40452 0.97615 0.06861 0.0
C47 C 0.43647 0.9776 0.05295 0.0
H48 H 0.06763 0.4519 0.45894 0.0
H49 H 0.06957 0.3954 0.43219 0.0
H50 H 0.95916 0.36872 0.45852 0.0
H51 H 0.95804 0.42462 0.48584 0.0
H52 H 0.01791 0.51069 0.4552 0.0
H53 H 0.06114 0.42603 0.52362 0.0
H54 H 0.06065 0.36905 0.55017 0.0
H55 H 0.94876 0.39161 0.57471 0.0
H56 H 0.94949 0.44882 0.5483 0.0
H57 H 0.95303 0.56666 0.5535 0.0
H58 H 0.95209 0.62263 0.58086 0.0
H59 H 0.05871 0.65316 0.54916 0.0
H60 H 0.05925 0.59733 0.52165 0.0
H61 H 0.9999 0.50936 0.55419 0.0
H62 H 0.96321 0.60189 0.49152 0.0
H63 H 0.96578 0.65866 0.46501 0.0
H64 H 0.06567 0.62071 0.42684 0.0
H65 H 0.06381 0.56446 0.45402 0.0
C66 C 0.01281 0.44227 0.47447 0.0
C67 C 0.04394 0.43374 0.45897 0.0
C68 C 0.04489 0.40153 0.44358 0.0
C69 C 0.01449 0.37745 0.44313 0.0
C70 C 0.98332 0.38622 0.45873 0.0
C71 C 0.98254 0.41826 0.47428 0.0
C72 C 0.01157 0.47675 0.49039 0.0
C73 C 0.01455 0.51056 0.4769 0.0
C74 C 0.00608 0.47636 0.51852 0.0
C75 C 0.00531 0.44149 0.53398 0.0
C76 C 0.03647 0.4186 0.53463 0.0
C77 C 0.03623 0.38622 0.54986 0.0
C78 C 0.00467 0.37603 0.56444 0.0
C79 C 0.97332 0.39876 0.56348 0.0
C80 C 0.97377 0.43144 0.54856 0.0
C81 C 0.00605 0.57797 0.53537 0.0
C82 C 0.97619 0.58543 0.55247 0.0
C83 C 0.97575 0.61737 0.56815 0.0
C84 C 0.00533 0.64238 0.5672 0.0
C85 C 0.03524 0.63478 0.55006 0.0
C86 C 0.03564 0.60284 0.53436 0.0
C87 C 0.00661 0.54372 0.51909 0.0
C88 C 0.00332 0.50979 0.53249 0.0
C89 C 0.01195 0.54417 0.49082 0.0
C90 C 0.01362 0.57902 0.4751 0.0
C91 C 0.98609 0.60603 0.47786 0.0
C92 C 0.98747 0.6384 0.46264 0.0
C93 C 0.01595 0.64402 0.44393 0.0
C94 C 0.0433 0.61692 0.44101 0.0
C95 C 0.04223 0.58481 0.45652 0.0
Li96 Li 0.01109 0.04372 0.27202 0.0
Li97 Li 0.01007 0.97848 0.27411 0.0
Li98 Li 0.04618 0.01136 0.23872 0.0
Li99 Li 0.97675 0.01201 0.23817 0.0
C100 C 0.0648 0.01059 0.30456 0.0
N101 N 0.08664 0.00931 0.35783 0.0
C102 C 0.03861 0.01348 0.32509 0.0
C103 C 0.10207 0.00707 0.31112 0.0
C104 C 0.05021 0.01277 0.3519 0.0
C105 C 0.11258 0.00648 0.33818 0.0
C106 C 0.93563 0.99279 0.28292 0.0
C107 C 0.89606 0.9408 0.27406 0.0
N108 N 0.87263 0.95261 0.2936 0.0
C109 C 0.91113 0.00442 0.30288 0.0
C110 C 0.92804 0.96072 0.26837 0.0
C111 C 0.87944 0.98373 0.30799 0.0
C112 C 0.97969 0.09977 0.30417 0.0
N113 N 0.01182 0.08693 0.29375 0.0
C114 C 0.04555 0.13565 0.31463 0.0
C115 C 0.04443 0.10401 0.29871 0.0
C116 C 0.0128 0.14962 0.32583 0.0
C117 C 0.97954 0.13116 0.3204 0.0
H118 H 0.95418 0.08554 0.29989 0.0
H119 H 0.06957 0.09313 0.2901 0.0
C120 C 0.03549 0.90858 0.29029 0.0
N121 N 0.011 0.93566 0.29643 0.0
C122 C 0.03743 0.87674 0.30606 0.0
C123 C 0.98915 0.90141 0.33431 0.0
C124 C 0.98845 0.93291 0.3182 0.0
C125 C 0.0138 0.8728 0.32826 0.0
H126 H 0.05345 0.91174 0.27306 0.0
H127 H 0.97008 0.95524 0.32328 0.0
C128 C 0.00998 0.09035 0.23254 0.0
N129 N 0.00627 0.16627 0.23542 0.0
C130 C 0.97578 0.108 0.23375 0.0
C131 C 0.0423 0.11129 0.23265 0.0
C132 C 0.97449 0.14642 0.23524 0.0
C133 C 0.03983 0.14966 0.23413 0.0
C134 C 0.01238 0.9425 0.21613 0.0
C135 C 0.0265 0.95003 0.19053 0.0
C136 C 0.99995 0.907 0.22218 0.0
C137 C 0.0277 0.92195 0.17134 0.0
C138 C 1.00161 0.87967 0.20244 0.0
N139 N 0.01533 0.88764 0.17764 0.0
C140 C 0.11462 0.98289 0.22143 0.0
C141 C 0.09265 0.03416 0.19651 0.0
C142 C 0.14603 0.98078 0.20522 0.0
N143 N 0.08886 0.00935 0.21682 0.0
C144 C 0.12372 0.03328 0.17998 0.0
C145 C 0.15092 0.00635 0.18426 0.0
H146 H 0.11068 0.96342 0.23768 0.0
H147 H 0.07137 0.05446 0.19301 0.0
C148 C 0.90275 0.0279 0.22437 0.0
N149 N 0.93438 0.01215 0.21524 0.0
C150 C 0.8711 0.0281 0.20837 0.0
C151 C 0.90527 0.9965 0.17361 0.0
C152 C 0.93625 0.99696 0.19028 0.0
C153 C 0.87206 0.01208 0.18264 0.0
H154 H 0.90205 0.04027 0.24416 0.0
H155 H 0.96179 0.98539 0.18318 0.0
O156 O 0.05424 0.01113 0.27812 0.0
O157 O 0.9668 0.01288 0.27787 0.0
O158 O 0.0118 0.05274 0.23185 0.0
O159 O 0.01157 0.96944 0.23539 0.0
H160 H 0.00964 0.0163 0.32045 0.0
H161 H 0.12266 0.00479 0.29544 0.0
H162 H 0.03024 0.01498 0.36798 0.0
H163 H 0.14134 0.00375 0.34355 0.0
H164 H 0.88986 0.91596 0.26293 0.0
H165 H 0.91662 0.02913 0.31438 0.0
H166 H 0.94645 0.95137 0.25277 0.0
H167 H 0.86028 0.99239 0.32342 0.0
H168 H 0.07174 0.14921 0.31787 0.0
H169 H 0.95371 0.14053 0.32888 0.0
H170 H 0.0568 0.85521 0.30076 0.0
H171 H 0.97097 0.89967 0.35155 0.0
H172 H 0.95054 0.09218 0.23385 0.0
H173 H 0.06901 0.09804 0.23207 0.0
H174 H 0.94822 0.16044 0.23635 0.0
H175 H 0.06461 0.16621 0.23442 0.0
H176 H 0.03599 0.97738 0.1854 0.0
H177 H 0.98912 0.90057 0.24192 0.0
H178 H 0.03841 0.92745 0.15142 0.0
H179 H 0.99203 0.8521 0.20684 0.0
H180 H 0.16648 0.95975 0.20925 0.0
H181 H 0.12621 0.05312 0.16379 0.0
H182 H 0.84603 0.04022 0.21621 0.0
H183 H 0.90743 0.98448 0.15373 0.0
Li184 Li 0.97676 0.01109 0.77248 0.0
Li185 Li 0.04445 0.00984 0.77148 0.0
Li186 Li 0.00917 0.04358 0.73707 0.0
Li187 Li 0.01066 0.97598 0.73817 0.0
C188 C 0.99821 0.07335 0.79677 0.0
N189 N 0.96926 0.11255 0.83946 0.0
C190 C 0.01502 0.07165 0.82206 0.0
C191 C 0.96689 0.09523 0.79312 0.0
C192 C 0.99992 0.09165 0.8434 0.0
C193 C 0.95259 0.11474 0.81498 0.0
C194 C 0.0051 0.93156 0.77945 0.0
C195 C 0.02783 0.86949 0.77442 0.0
N196 N 0.99363 0.85633 0.78014 0.0
C197 C 0.97021 0.91744 0.78538 0.0
C198 C 0.03422 0.90744 0.77405 0.0
C199 C 0.96496 0.8793 0.78561 0.0
C200 C 0.90042 0.00996 0.78386 0.0
N201 N 0.93448 0.01137 0.79521 0.0
C202 C 0.90825 0.01325 0.83932 0.0
C203 C 0.93893 0.01226 0.82239 0.0
C204 C 0.87276 0.01215 0.82813 0.0
C205 C 0.86897 0.01014 0.80006 0.0
H206 H 0.89765 0.00852 0.76223 0.0
H207 H 0.96634 0.01222 0.83091 0.0
C208 C 0.10899 0.04145 0.79374 0.0
N209 N 0.08734 0.01089 0.79357 0.0
C210 C 0.14064 0.04261 0.80973 0.0
C211 C 0.12647 0.98127 0.82567 0.0
C212 C 0.0953 0.98118 0.8092 0.0
C213 C 0.14966 0.01223 0.826 0.0
H214 H 0.1016 0.06494 0.78147 0.0
H215 H 0.07736 0.95744 0.80894 0.0
C216 C 0.94685 0.02217 0.71292 0.0
N217 N 0.90723 0.05144 0.67049 0.0
C218 C 0.94861 0.00579 0.6875 0.0
C219 C 0.92471 0.05324 0.71683 0.0
C220 C 0.9284 0.02104 0.66629 0.0
C221 C 0.90498 0.0677 0.6951 0.0
C222 C 0.08884 0.0157 0.72996 0.0
C223 C 0.10261 0.05043 0.72316 0.0
C224 C 0.11328 0.98702 0.73591 0.0
C225 C 0.1407 0.05598 0.72262 0.0
C226 C 0.15118 0.99371 0.7352 0.0
N227 N 0.16399 0.02776 0.72864 0.0
C228 C 0.00917 0.1199 0.72561 0.0
C229 C 0.00807 0.08142 0.68714 0.0
C230 C 0.0086 0.15135 0.70941 0.0
N231 N 0.00854 0.08585 0.7143 0.0
C232 C 0.00681 0.11208 0.67017 0.0
C233 C 0.00706 0.14776 0.68122 0.0
H234 H 0.01046 0.12267 0.74725 0.0
H235 H 0.00849 0.05402 0.67865 0.0
C236 C 0.97828 0.91251 0.71515 0.0
N237 N 0.00962 0.93295 0.71628 0.0
C238 C 0.97691 0.88075 0.69932 0.0
C239 C 0.03987 0.89209 0.68576 0.0
C240 C 0.04004 0.92355 0.70191 0.0
C241 C 0.00802 0.87014 0.68434 0.0
H242 H 0.95437 0.92088 0.72662 0.0
H243 H 0.06438 0.94061 0.70283 0.0
O244 O 0.01234 0.05368 0.77569 0.0
O245 O 0.01062 0.9688 0.77858 0.0
O246 O 0.96671 0.00788 0.73387 0.0
O247 O 0.05164 0.00988 0.73105 0.0
H248 H 0.03924 0.05482 0.82525 0.0
H249 H 0.95361 0.09689 0.77366 0.0
H250 H 0.01252 0.09045 0.86312 0.0
H251 H 0.92823 0.13159 0.81249 0.0
H252 H 0.05003 0.85051 0.77007 0.0
H253 H 0.94734 0.9357 0.78953 0.0
H254 H 0.06133 0.91793 0.76923 0.0
H255 H 0.93807 0.86798 0.79005 0.0
H256 H 0.91217 0.01427 0.86093 0.0
H257 H 0.84198 0.00921 0.79076 0.0
H258 H 0.15754 0.06719 0.80969 0.0
H259 H 0.13258 0.95722 0.8378 0.0
H260 H 0.96567 0.98179 0.6841 0.0
H261 H 0.923 0.06618 0.73639 0.0
H262 H 0.92964 0.00878 0.64647 0.0
H263 H 0.88791 0.09186 0.69779 0.0
H264 H 0.08411 0.07295 0.71855 0.0
H265 H 0.10307 0.96005 0.74142 0.0
H266 H 0.15175 0.08276 0.7175 0.0
H267 H 0.1704 0.97187 0.73997 0.0
H268 H 0.00984 0.17814 0.71892 0.0
H269 H 0.00528 0.10775 0.64864 0.0
H270 H 0.95189 0.86451 0.69905 0.0
H271 H 0.06425 0.88535 0.6742 0.0
C272 C 0.30884 0.00789 0.07187 0.0
C273 C 0.34382 1.00244 0.08319 0.0
C274 C 0.27706 0.00757 0.08798 0.0
C275 C 0.28044 1.00214 0.11611 0.0
C276 C 0.31571 0.99655 0.12762 0.0
C277 C 0.34696 0.99657 0.11099 0.0
C278 C 0.23989 0.0132 0.07493 0.0
C279 C 0.32048 0.99111 0.15756 0.0
C280 C 0.20337 0.03761 0.16086 0.0
C281 C 0.18422 0.00511 0.16694 0.0
C282 C 0.2348 0.037 0.14441 0.0
C283 C 0.24717 1.0031 0.13359 0.0
C284 C 0.22788 0.9702 0.1396 0.0
C285 C 0.19672 0.97157 0.15632 0.0
C286 C 0.25486 0.07261 0.13874 0.0
C287 C 0.24004 0.9336 0.12821 0.0
H288 H 0.30634 0.01208 0.05033 0.0
H289 H 0.37402 0.99276 0.11983 0.0
H290 H 0.22151 0.98966 0.0797 0.0
H291 H 0.22668 0.03839 0.08309 0.0
H292 H 0.2419 0.01593 0.0527 0.0
H293 H 0.34975 0.98672 0.16329 0.0
H294 H 0.30992 0.01559 0.16849 0.0
H295 H 0.30416 0.96703 0.1644 0.0
H296 H 0.19403 0.06352 0.16928 0.0
H297 H 0.18174 0.94646 0.16075 0.0
H298 H 0.25546 0.07791 0.11675 0.0
H299 H 0.28388 0.07045 0.14562 0.0
H300 H 0.24181 0.09658 0.14885 0.0
H301 H 0.24019 0.93487 0.10589 0.0
H302 H 0.22184 0.91061 0.13461 0.0
H303 H 0.2686 0.92738 0.13476 0.0
C304 C 0.03338 0.3357 0.59942 0.0
C305 C 0.00475 0.34214 0.58107 0.0
C306 C 0.03358 0.30408 0.61569 0.0
C307 C 0.00478 0.278 0.61319 0.0
C308 C 0.976 0.28419 0.59445 0.0
C309 C 0.97615 0.3164 0.57877 0.0
C310 C 0.0644 0.2988 0.63577 0.0
C311 C 0.94518 0.2567 0.59087 0.0
C312 C 0.02428 0.18115 0.63861 0.0
C313 C 0.006 0.18099 0.66353 0.0
C314 C 0.02353 0.21227 0.62181 0.0
C315 C 0.00471 0.24436 0.63034 0.0
C316 C 0.98631 0.24453 0.65545 0.0
C317 C 0.98685 0.21278 0.67158 0.0
C318 C 0.04309 0.21088 0.595 0.0
C319 C 0.9663 0.27839 0.66538 0.0
H320 H 0.05529 0.35581 0.60139 0.0
H321 H 0.95417 0.32126 0.56441 0.0
H322 H 0.05287 0.2965 0.65639 0.0
H323 H 0.0793 0.27275 0.63151 0.0
H324 H 0.08452 0.32186 0.63539 0.0
H325 H 0.9253 0.26526 0.57503 0.0
H326 H 0.95671 0.22939 0.58539 0.0
H327 H 0.93002 0.2532 0.61008 0.0
H328 H 0.03971 0.1571 0.6323 0.0
H329 H 0.972 0.21285 0.6905 0.0
H330 H 0.06564 0.23149 0.59461 0.0
H331 H 0.02367 0.21811 0.57856 0.0
H332 H 0.05499 0.18328 0.59077 0.0
H333 H 0.98566 0.302 0.66648 0.0
H334 H 0.95381 0.27421 0.68557 0.0
H335 H 0.94416 0.28608 0.65103 0.0
C336 C 0.71132 0.02009 0.07216 0.0
C337 C 0.67744 0.0089 0.08302 0.0
C338 C 0.74336 0.02074 0.088 0.0
C339 C 0.74147 0.00994 0.11536 0.0
C340 C 0.70738 0.99854 0.12643 0.0
C341 C 0.67579 0.99817 0.11013 0.0
C342 C 0.77924 0.03294 0.07546 0.0
C343 C 0.70425 0.98694 0.15553 0.0
C344 C 0.82942 0.97993 0.15064 0.0
C345 C 0.83867 0.01163 0.1653 0.0
C346 C 0.79793 0.97904 0.13424 0.0
C347 C 0.77514 0.01061 0.13245 0.0
C348 C 0.78434 0.04272 0.14714 0.0
C349 C 0.81599 0.04284 0.1634 0.0
C350 C 0.78892 0.94423 0.11897 0.0
C351 C 0.76078 0.07698 0.14566 0.0
H352 H 0.71287 0.02798 0.05114 0.0
H353 H 0.6496 0.99001 0.11875 0.0
H354 H 0.79038 0.05702 0.08654 0.0
H355 H 0.79995 0.01054 0.07701 0.0
H356 H 0.77604 0.04057 0.05393 0.0
H357 H 0.67579 0.97847 0.16097 0.0
H358 H 0.72318 0.96358 0.15964 0.0
H359 H 0.71265 0.00998 0.16885 0.0
H360 H 0.84655 0.95556 0.1523 0.0
H361 H 0.82325 0.06758 0.17439 0.0
H362 H 0.78731 0.95016 0.09709 0.0
H363 H 0.76155 0.93372 0.12528 0.0
H364 H 0.80972 0.92222 0.12228 0.0
H365 H 0.75901 0.08673 0.12453 0.0
H366 H 0.77178 0.09968 0.15831 0.0
H367 H 0.73232 0.07061 0.15236 0.0
C368 C 0.01737 0.70985 0.5739 0.0
C369 C 0.00518 0.67602 0.58427 0.0
C370 C 0.01774 0.7417 0.58992 0.0
C371 C 0.00551 0.73971 0.61694 0.0
C372 C 0.99299 0.70572 0.6275 0.0
C373 C 0.99304 0.67429 0.61106 0.0
C374 C 0.03127 0.77747 0.57794 0.0
C375 C 0.97975 0.70251 0.65622 0.0
C376 C 0.03788 0.813 0.66611 0.0
C377 C 0.00724 0.83657 0.66719 0.0
C378 C 0.03772 0.78145 0.6498 0.0
C379 C 0.00609 0.77314 0.63426 0.0
C380 C 0.97502 0.79669 0.63532 0.0
C381 C 0.97599 0.82815 0.65173 0.0
C382 C 0.07138 0.75698 0.64921 0.0
C383 C 0.94078 0.78872 0.61905 0.0
H384 H 0.02631 0.71152 0.55312 0.0
H385 H 0.98408 0.64816 0.61935 0.0
H386 H 0.00928 0.79866 0.57909 0.0
H387 H 0.0551 0.78789 0.58967 0.0
H388 H 0.03979 0.7744 0.55658 0.0
H389 H 0.97035 0.67419 0.66122 0.0
H390 H 1.00225 0.7102 0.67026 0.0
H391 H 0.95664 0.72192 0.65976 0.0
H392 H 0.06193 0.81901 0.67828 0.0
H393 H 0.9524 0.84647 0.65216 0.0
H394 H 0.08196 0.75476 0.62833 0.0
H395 H 0.06398 0.72877 0.6559 0.0
H396 H 0.09385 0.76746 0.66232 0.0
H397 H 0.94767 0.78798 0.5973 0.0
H398 H 0.91885 0.80963 0.62229 0.0
H399 H 0.9297 0.76122 0.62449 0.0
C400 C 0.33432 0.98222 0.91107 0.0
C401 C 0.3437 0.01352 0.92611 0.0
C402 C 0.30277 0.98185 0.89471 0.0
C403 C 0.27993 0.01346 0.89353 0.0
C404 C 0.28913 0.04505 0.90882 0.0
C405 C 0.32099 0.04474 0.92486 0.0
C406 C 0.29404 0.94775 0.87853 0.0
C407 C 0.26526 0.07914 0.90828 0.0
C408 C 0.21671 0.02546 0.83314 0.0
C409 C 0.18297 0.01287 0.84335 0.0
C410 C 0.24851 0.02576 0.84924 0.0
C411 C 0.24642 0.01346 0.87625 0.0
C412 C 0.21236 1.00098 0.88673 0.0
C413 C 0.18108 1.0007 0.87011 0.0
C414 C 0.28441 0.03896 0.83728 0.0
C415 C 0.20897 0.98798 0.9155 0.0
H416 H 0.35204 0.95818 0.91173 0.0
H417 H 0.32794 0.06884 0.93669 0.0
H418 H 0.26644 0.9371 0.88414 0.0
H419 H 0.29312 0.95465 0.85678 0.0
H420 H 0.31465 0.9255 0.88166 0.0
H421 H 0.27608 0.10129 0.92152 0.0
H422 H 0.26337 0.08995 0.88743 0.0
H423 H 0.23687 0.07218 0.91481 0.0
H424 H 0.21836 0.03451 0.81237 0.0
H425 H 0.15494 0.99137 0.87818 0.0
H426 H 0.30533 0.0167 0.83837 0.0
H427 H 0.29518 0.06258 0.84906 0.0
H428 H 0.28138 0.04764 0.81594 0.0
H429 H 0.22764 0.96425 0.91902 0.0
H430 H 0.1804 0.97953 0.92064 0.0
H431 H 0.21754 0.01025 0.92945 0.0
C432 C 0.03102 0.34432 0.40042 0.0
C433 C 0.01502 0.34365 0.42614 0.0
C434 C 0.03135 0.3128 0.38406 0.0
C435 C 0.01487 0.27991 0.39348 0.0
C436 C 0.99865 0.27898 0.41938 0.0
C437 C 0.99913 0.31076 0.43545 0.0
C438 C 0.04918 0.31478 0.35663 0.0
C439 C 0.9806 0.24445 0.43005 0.0
C440 C 0.98492 0.20923 0.34153 0.0
C441 C 0.01337 0.18309 0.34315 0.0
C442 C 0.98494 0.24071 0.35791 0.0
C443 C 0.01436 0.24651 0.37614 0.0
C444 C 0.04329 0.22044 0.37777 0.0
C445 C 0.04234 0.18896 0.36139 0.0
C446 C 0.95346 0.26779 0.35571 0.0
C447 C 0.07528 0.22581 0.39682 0.0
H448 H 0.04284 0.36969 0.39283 0.0
H449 H 0.98723 0.30974 0.45544 0.0
H450 H 0.07093 0.29341 0.35491 0.0
H451 H 0.02842 0.30905 0.34079 0.0
H452 H 0.06172 0.34215 0.3526 0.0
H453 H 0.96893 0.24837 0.45052 0.0
H454 H 0.95811 0.23575 0.41632 0.0
H455 H 1.00094 0.22165 0.43079 0.0
H456 H 0.96273 0.2053 0.32721 0.0
H457 H 0.06414 0.16869 0.36314 0.0
H458 H 0.96406 0.29521 0.3496 0.0
H459 H 0.94002 0.27119 0.37562 0.0
H460 H 0.93233 0.25891 0.34089 0.0
H461 H 0.08917 0.25239 0.3925 0.0
H462 H 0.09593 0.2033 0.39531 0.0
H463 H 0.06513 0.22709 0.41786 0.0
C464 C 0.67916 0.03433 0.9026 0.0
C465 C 0.67863 0.01699 0.92788 0.0
C466 C 0.71106 0.03438 0.88663 0.0
C467 C 0.74308 0.01603 0.89587 0.0
C468 C 0.74283 0.99843 0.9213 0.0
C469 C 0.71076 0.99943 0.9371 0.0
C470 C 0.7104 0.05386 0.85976 0.0
C471 C 0.77633 0.97824 0.93173 0.0
C472 C 0.81237 0.98607 0.84291 0.0
C473 C 0.83981 0.01293 0.84567 0.0
C474 C 0.781 0.98643 0.85942 0.0
C475 C 0.77667 0.0148 0.87873 0.0
C476 C 0.80426 0.04214 0.88145 0.0
C477 C 0.83572 0.04065 0.86505 0.0
C478 C 0.75255 0.95639 0.85627 0.0
C479 C 0.80029 0.07323 0.90143 0.0
H480 H 0.65441 0.04744 0.89501 0.0
H481 H 0.71097 0.98653 0.95677 0.0
H482 H 0.73308 0.07431 0.85872 0.0
H483 H 0.71496 0.0337 0.84332 0.0
H484 H 0.68387 0.06829 0.85604 0.0
H485 H 0.7715 0.96558 0.95179 0.0
H486 H 0.78431 0.9562 0.91739 0.0
H487 H 0.79999 0.99744 0.93329 0.0
H488 H 0.81576 0.96446 0.82806 0.0
H489 H 0.85686 0.06158 0.867 0.0
H490 H 0.72566 0.96855 0.85046 0.0
H491 H 0.74849 0.94199 0.87576 0.0
H492 H 0.76056 0.93576 0.84083 0.0
H493 H 0.7748 0.08907 0.89709 0.0
H494 H 0.82413 0.09241 0.90093 0.0
H495 H 0.79761 0.062 0.9221 0.0
C496 C 0.0125 0.71254 0.43886 0.0
C497 C 0.01668 0.67772 0.42708 0.0
C498 C 0.01288 0.74463 0.42306 0.0
C499 C 0.01693 0.7417 0.39478 0.0
C500 C 0.02107 0.70655 0.3828 0.0
C501 C 0.02117 0.67499 0.39913 0.0
C502 C 0.00894 0.78165 0.43661 0.0
C503 C 0.02487 0.70226 0.3527 0.0
C504 C 0.98192 0.821 0.35187 0.0
C505 C 0.01476 0.83908 0.3451 0.0
C506 C 0.98226 0.78914 0.36789 0.0
C507 C 0.01623 0.77535 0.37767 0.0
C508 C 0.04949 0.79362 0.37099 0.0
C509 C 0.04837 0.82514 0.3546 0.0
C510 C 0.94628 0.77013 0.37421 0.0
C511 C 0.08619 0.78003 0.38135 0.0
H512 H 0.00934 0.71467 0.46051 0.0
H513 H 0.02402 0.64803 0.38999 0.0
H514 H 0.03278 0.79943 0.43146 0.0
H515 H 0.98379 0.79577 0.42918 0.0
H516 H 0.00715 0.77924 0.45886 0.0
H517 H 0.02787 0.67298 0.34656 0.0
H518 H 1.00031 0.71398 0.34249 0.0
H519 H 0.04922 0.7178 0.34542 0.0
H520 H 0.95594 0.83156 0.34431 0.0
H521 H 0.07375 0.83931 0.34959 0.0
H522 H 0.94191 0.76931 0.3963 0.0
H523 H 0.9472 0.74118 0.36706 0.0
H524 H 0.92231 0.7841 0.36474 0.0
H525 H 0.08593 0.77935 0.40368 0.0
H526 H 0.10945 0.79766 0.37462 0.0
H527 H 0.09119 0.75147 0.37432 0.0
loop_
_geom_bond_atom_site_label_1
_geom_bond_atom_site_label_2
_geom_bond_distance
_geom_bond_site_symmetry_2
_ccdc_geom_bond_type
H0 C19 0.949 . S
H1 C20 0.950 . S
H2 C22 0.950 . S
H3 C23 0.950 . S
H4 C25 0.945 1_565 S
H5 C28 0.950 . S
H6 C29 0.950 . S
H7 C31 0.951 . S
H8 C32 0.949 . S
H9 C34 0.949 . S
H10 C35 0.950 . S
H11 C37 0.950 . S
H12 C38 0.950 . S
H13 C40 0.950 . S
H14 C43 0.950 . S
H15 C44 0.950 . S
H16 C46 0.951 . S
H17 C47 0.949 . S
C18 C19 1.376 1_545 S
C18 C23 1.386 . S
C18 C24 1.483 . S
C19 H0 0.949 . S
C19 C18 1.376 1_565 S
C19 C20 1.397 . S
C20 H1 0.950 . S
C20 C19 1.397 . S
C20 C21 1.391 1_565 S
C21 C20 1.391 1_545 S
C21 C22 1.405 . S
C22 H2 0.950 . S
C22 C21 1.405 . S
C22 C23 1.367 . S
C23 H3 0.950 . S
C23 C18 1.386 . S
C23 C22 1.367 . S
C24 C18 1.483 . S
C24 C25 1.385 . S
C24 C26 1.403 1_554 S
C25 H4 0.945 1_545 S
C25 C24 1.385 . S
C25 C41 1.414 . S
C26 C24 1.403 1_556 S
C26 C27 1.489 . S
C26 C40 1.411 . S
C27 C26 1.489 . S
C27 C28 1.383 1_545 S
C27 C32 1.382 . S
C28 H5 0.950 . S
C28 C27 1.383 1_565 S
C28 C29 1.395 . S
C29 H6 0.950 . S
C29 C28 1.395 . S
C29 C30 1.288 1_565 S
C30 C29 1.288 1_545 S
C30 C31 1.392 . S
C31 H7 0.951 . S
C31 C30 1.392 . S
C31 C32 1.392 . S
C32 H8 0.949 . S
C32 C27 1.382 . S
C32 C31 1.392 . S
C33 C34 1.376 . S
C33 C38 1.386 1_545 S
C33 C39 1.483 . S
C34 H9 0.949 . S
C34 C33 1.376 . S
C34 C35 1.397 . S
C35 H10 0.950 . S
C35 C34 1.397 . S
C35 C36 1.391 . S
C36 C35 1.391 . S
C36 C37 1.405 1_545 S
C37 H11 0.950 . S
C37 C36 1.405 1_565 S
C37 C38 1.367 . S
C38 H12 0.950 . S
C38 C33 1.386 1_565 S
C38 C37 1.367 . S
C39 C33 1.483 . S
C39 C40 1.382 . S
C39 C41 1.403 1_556 S
C40 H13 0.950 . S
C40 C26 1.411 . S
C40 C39 1.382 . S
C41 C25 1.414 . S
C41 C39 1.403 1_554 S
C41 C42 1.489 . S
C42 C41 1.489 . S
C42 C43 1.383 . S
C42 C47 1.382 1_545 S
C43 H14 0.950 . S
C43 C42 1.383 . S
C43 C44 1.395 . S
C44 H15 0.950 . S
C44 C43 1.395 . S
C44 C45 1.288 . S
C45 C44 1.288 . S
C45 C46 1.392 1_545 S
C46 H16 0.951 . S
C46 C45 1.392 1_565 S
C46 C47 1.392 . S
C47 H17 0.949 . S
C47 C42 1.382 1_565 S
C47 C46 1.392 . S
H48 C67 0.949 . S
H49 C68 0.950 . S
H50 C70 0.950 . S
H51 C71 0.950 . S
H52 C73 0.950 . S
H53 C76 0.950 . S
H54 C77 0.950 . S
H55 C79 0.951 . S
H56 C80 0.949 . S
H57 C82 0.949 . S
H58 C83 0.950 . S
H59 C85 0.950 . S
H60 C86 0.950 . S
H61 C88 0.945 1_655 S
H62 C91 0.950 . S
H63 C92 0.950 . S
H64 C94 0.951 . S
H65 C95 0.949 . S
C66 C67 1.376 . S
C66 C71 1.386 1_455 S
C66 C72 1.483 . S
C67 H48 0.949 . S
C67 C66 1.376 . S
C67 C68 1.397 . S
C68 H49 0.950 . S
C68 C67 1.397 . S
C68 C69 1.391 . S
C69 C68 1.391 . S
C69 C70 1.405 1_455 S
C70 H50 0.950 . S
C70 C69 1.405 1_655 S
C70 C71 1.367 . S
C71 H51 0.950 . S
C71 C66 1.386 1_655 S
C71 C70 1.367 . S
C72 C66 1.483 . S
C72 C73 1.382 . S
C72 C74 1.403 . S
C73 H52 0.950 . S
C73 C72 1.382 . S
C73 C89 1.411 . S
C74 C72 1.403 . S
C74 C75 1.489 . S
C74 C88 1.414 . S
C75 C74 1.489 . S
C75 C76 1.383 . S
C75 C80 1.382 1_455 S
C76 H53 0.950 . S
C76 C75 1.383 . S
C76 C77 1.395 . S
C77 H54 0.950 . S
C77 C76 1.395 . S
C77 C78 1.288 . S
C78 C77 1.288 . S
C78 C79 1.392 1_455 S
C79 H55 0.951 . S
C79 C78 1.392 1_655 S
C79 C80 1.392 . S
C80 H56 0.949 . S
C80 C75 1.382 1_655 S
C80 C79 1.392 . S
C81 C82 1.376 1_455 S
C81 C86 1.386 . S
C81 C87 1.483 . S
C82 H57 0.949 . S
C82 C81 1.376 1_655 S
C82 C83 1.397 . S
C83 H58 0.950 . S
C83 C82 1.397 . S
C83 C84 1.391 1_655 S
C84 C83 1.391 1_455 S
C84 C85 1.405 . S
C85 H59 0.950 . S
C85 C84 1.405 . S
C85 C86 1.367 . S
C86 H60 0.950 . S
C86 C81 1.386 . S
C86 C85 1.367 . S
C87 C81 1.483 . S
C87 C88 1.385 . S
C87 C89 1.403 . S
C88 H61 0.945 1_455 S
C88 C74 1.414 . S
C88 C87 1.385 . S
C89 C73 1.411 . S
C89 C87 1.403 . S
C89 C90 1.489 . S
C90 C89 1.489 . S
C90 C91 1.383 1_455 S
C90 C95 1.382 . S
C91 H62 0.950 . S
C91 C90 1.383 1_655 S
C91 C92 1.395 . S
C92 H63 0.950 . S
C92 C91 1.395 . S
C92 C93 1.288 1_655 S
C93 C92 1.288 1_455 S
C93 C94 1.392 . S
C94 H64 0.951 . S
C94 C93 1.392 . S
C94 C95 1.392 . S
C95 H65 0.949 . S
C95 C90 1.382 . S
C95 C94 1.392 . S
Li96 N113 1.990 . S
Li96 O156 1.956 . S
Li96 O157 1.970 1_455 S
Li96 O158 1.961 . S
Li97 N121 1.990 . S
Li97 O156 1.970 1_565 S
Li97 O157 1.956 1_465 S
Li97 O159 1.961 . S
Li98 N143 1.990 . S
Li98 O156 1.961 . S
Li98 O158 1.956 . S
Li98 O159 1.970 1_545 S
Li99 N149 1.990 . S
Li99 O157 1.961 . S
Li99 O158 1.970 1_655 S
Li99 O159 1.956 1_645 S
C100 C102 1.348 1_545 S
C100 C103 1.356 . S
C100 O156 1.325 . S
N101 C104 1.314 1_545 S
N101 C105 1.279 . S
C102 C100 1.348 1_565 S
C102 C104 1.353 . S
C102 H160 0.929 . S
C103 C100 1.356 . S
C103 C105 1.358 . S
C103 H161 0.930 . S
C104 N101 1.314 1_565 S
C104 C102 1.353 . S
C104 H162 0.930 . S
C105 N101 1.279 . S
C105 C103 1.358 . S
C105 H163 0.930 . S
C106 C109 1.348 . S
C106 C110 1.356 1_545 S
C106 O157 1.325 . S
C107 N108 1.279 1_565 S
C107 C110 1.358 . S
C107 H164 0.930 . S
N108 C107 1.279 1_545 S
N108 C111 1.314 . S
C109 C106 1.348 . S
C109 C111 1.353 . S
C109 H165 0.929 . S
C110 C106 1.356 1_565 S
C110 C107 1.358 . S
C110 H166 0.930 . S
C111 N108 1.314 . S
C111 C109 1.353 . S
C111 H167 0.930 . S
C112 N113 1.314 1_655 S
C112 C117 1.353 . S
C112 H118 0.930 . S
N113 Li96 1.990 . S
N113 C112 1.314 1_455 S
N113 C115 1.279 . S
C114 C115 1.358 . S
C114 C116 1.356 . S
C114 H168 0.930 . S
C115 N113 1.279 . S
C115 C114 1.358 . S
C115 H119 0.930 . S
C116 C114 1.356 . S
C116 C117 1.348 1_455 S
C117 C112 1.353 . S
C117 C116 1.348 1_655 S
C117 H169 0.929 . S
H118 C112 0.930 . S
H119 C115 0.930 . S
C120 N121 1.314 . S
C120 C122 1.353 . S
C120 H126 0.930 . S
N121 Li97 1.990 . S
N121 C120 1.314 . S
N121 C124 1.279 1_455 S
C122 C120 1.353 . S
C122 C125 1.348 . S
C122 H170 0.929 . S
C123 C124 1.358 . S
C123 C125 1.356 1_655 S
C123 H171 0.930 . S
C124 N121 1.279 1_655 S
C124 C123 1.358 . S
C124 H127 0.930 . S
C125 C122 1.348 . S
C125 C123 1.356 1_455 S
H126 C120 0.930 . S
H127 C124 0.930 . S
C128 C130 1.348 1_455 S
C128 C131 1.356 . S
C128 O158 1.325 . S
N129 C132 1.314 1_455 S
N129 C133 1.279 . S
C130 C128 1.348 1_655 S
C130 C132 1.353 . S
C130 H172 0.929 . S
C131 C128 1.356 . S
C131 C133 1.358 . S
C131 H173 0.930 . S
C132 N129 1.314 1_655 S
C132 C130 1.353 . S
C132 H174 0.930 . S
C133 N129 1.279 . S
C133 C131 1.358 . S
C133 H175 0.930 . S
C134 C135 1.348 . S
C134 C136 1.356 1_455 S
C134 O159 1.325 . S
C135 C134 1.348 . S
C135 C137 1.353 . S
C135 H176 0.929 . S
C136 C134 1.356 1_655 S
C136 C138 1.358 . S
C136 H177 0.930 . S
C137 C135 1.353 . S
C137 N139 1.314 . S
C137 H178 0.930 . S
C138 C136 1.358 . S
C138 N139 1.279 1_655 S
C138 H179 0.930 . S
N139 C137 1.314 . S
N139 C138 1.279 1_455 S
C140 C142 1.353 . S
C140 N143 1.314 1_565 S
C140 H146 0.930 . S
C141 N143 1.279 . S
C141 C144 1.358 . S
C141 H147 0.930 . S
C142 C140 1.353 . S
C142 C145 1.348 1_565 S
C142 H180 0.929 . S
N143 Li98 1.990 . S
N143 C140 1.314 1_545 S
N143 C141 1.279 . S
C144 C141 1.358 . S
C144 C145 1.356 . S
C144 H181 0.930 . S
C145 C142 1.348 1_545 S
C145 C144 1.356 . S
H146 C140 0.930 . S
H147 C141 0.930 . S
C148 N149 1.314 . S
C148 C150 1.353 . S
C148 H154 0.930 . S
N149 Li99 1.990 . S
N149 C148 1.314 . S
N149 C152 1.279 1_545 S
C150 C148 1.353 . S
C150 C153 1.348 . S
C150 H182 0.929 . S
C151 C152 1.358 . S
C151 C153 1.356 1_565 S
C151 H183 0.930 . S
C152 N149 1.279 1_565 S
C152 C151 1.358 . S
C152 H155 0.930 . S
C153 C150 1.348 . S
C153 C151 1.356 1_545 S
H154 C148 0.930 . S
H155 C152 0.930 . S
O156 Li96 1.956 . S
O156 Li97 1.970 1_545 S
O156 Li98 1.961 . S
O156 C100 1.325 . S
O157 Li96 1.970 1_655 S
O157 Li97 1.956 1_645 S
O157 Li99 1.961 . S
O157 C106 1.325 . S
O158 Li96 1.961 . S
O158 Li98 1.956 . S
O158 Li99 1.970 1_455 S
O158 C128 1.325 . S
O159 Li97 1.961 . S
O159 Li98 1.970 1_565 S
O159 Li99 1.956 1_465 S
O159 C134 1.325 . S
H160 C102 0.929 . S
H161 C103 0.930 . S
H162 C104 0.930 . S
H163 C105 0.930 . S
H164 C107 0.930 . S
H165 C109 0.929 . S
H166 C110 0.930 . S
H167 C111 0.930 . S
H168 C114 0.930 . S
H169 C117 0.929 . S
H170 C122 0.929 . S
H171 C123 0.930 . S
H172 C130 0.929 . S
H173 C131 0.930 . S
H174 C132 0.930 . S
H175 C133 0.930 . S
H176 C135 0.929 . S
H177 C136 0.930 . S
H178 C137 0.930 . S
H179 C138 0.930 . S
H180 C142 0.929 . S
H181 C144 0.930 . S
H182 C150 0.929 . S
H183 C151 0.930 . S
Li184 N201 1.990 . S
Li184 O244 1.956 1_655 S
Li184 O245 1.970 1_645 S
Li184 O246 1.961 . S
Li185 N209 1.990 . S
Li185 O244 1.970 . S
Li185 O245 1.956 1_545 S
Li185 O247 1.961 . S
Li186 N231 1.990 . S
Li186 O244 1.961 . S
Li186 O246 1.956 1_455 S
Li186 O247 1.970 . S
Li187 N237 1.990 . S
Li187 O245 1.961 . S
Li187 O246 1.970 1_465 S
Li187 O247 1.956 1_565 S
C188 C190 1.348 . S
C188 C191 1.356 1_455 S
C188 O244 1.325 . S
N189 C192 1.314 . S
N189 C193 1.279 1_455 S
C190 C188 1.348 . S
C190 C192 1.353 . S
C190 H248 0.929 . S
C191 C188 1.356 1_655 S
C191 C193 1.358 . S
C191 H249 0.930 . S
C192 N189 1.314 . S
C192 C190 1.353 . S
C192 H250 0.930 . S
C193 N189 1.279 1_655 S
C193 C191 1.358 . S
C193 H251 0.930 . S
C194 C197 1.348 1_455 S
C194 C198 1.356 . S
C194 O245 1.325 . S
C195 N196 1.279 . S
C195 C198 1.358 . S
C195 H252 0.930 . S
N196 C195 1.279 . S
N196 C199 1.314 1_455 S
C197 C194 1.348 1_655 S
C197 C199 1.353 . S
C197 H253 0.929 . S
C198 C194 1.356 . S
C198 C195 1.358 . S
C198 H254 0.930 . S
C199 N196 1.314 1_655 S
C199 C197 1.353 . S
C199 H255 0.930 . S
C200 N201 1.314 1_565 S
C200 C205 1.353 . S
C200 H206 0.930 . S
N201 Li184 1.990 . S
N201 C200 1.314 1_545 S
N201 C203 1.279 . S
C202 C203 1.358 . S
C202 C204 1.356 . S
C202 H256 0.930 . S
C203 N201 1.279 . S
C203 C202 1.358 . S
C203 H207 0.930 . S
C204 C202 1.356 . S
C204 C205 1.348 1_545 S
C205 C200 1.353 . S
C205 C204 1.348 1_565 S
C205 H257 0.929 . S
H206 C200 0.930 . S
H207 C203 0.930 . S
C208 N209 1.314 . S
C208 C210 1.353 . S
C208 H214 0.930 . S
N209 Li185 1.990 . S
N209 C208 1.314 . S
N209 C212 1.279 1_545 S
C210 C208 1.353 . S
C210 C213 1.348 . S
C210 H258 0.929 . S
C211 C212 1.358 . S
C211 C213 1.356 1_565 S
C211 H259 0.930 . S
C212 N209 1.279 1_565 S
C212 C211 1.358 . S
C212 H215 0.930 . S
C213 C210 1.348 . S
C213 C211 1.356 1_545 S
H214 C208 0.930 . S
H215 C212 0.930 . S
C216 C218 1.348 1_545 S
C216 C219 1.356 . S
C216 O246 1.325 . S
N217 C220 1.314 1_545 S
N217 C221 1.279 . S
C218 C216 1.348 1_565 S
C218 C220 1.353 . S
C218 H260 0.929 . S
C219 C216 1.356 . S
C219 C221 1.358 . S
C219 H261 0.930 . S
C220 N217 1.314 1_565 S
C220 C218 1.353 . S
C220 H262 0.930 . S
C221 N217 1.279 . S
C221 C219 1.358 . S
C221 H263 0.930 . S
C222 C223 1.348 . S
C222 C224 1.356 1_545 S
C222 O247 1.325 . S
C223 C222 1.348 . S
C223 C225 1.353 . S
C223 H264 0.929 . S
C224 C222 1.356 1_565 S
C224 C226 1.358 . S
C224 H265 0.930 . S
C225 C223 1.353 . S
C225 N227 1.314 . S
C225 H266 0.930 . S
C226 C224 1.358 . S
C226 N227 1.279 1_565 S
C226 H267 0.930 . S
N227 C225 1.314 . S
N227 C226 1.279 1_545 S
C228 C230 1.353 . S
C228 N231 1.314 . S
C228 H234 0.930 . S
C229 N231 1.279 1_655 S
C229 C232 1.358 . S
C229 H235 0.930 . S
C230 C228 1.353 . S
C230 C233 1.348 . S
C230 H268 0.929 . S
N231 Li186 1.990 . S
N231 C228 1.314 . S
N231 C229 1.279 1_455 S
C232 C229 1.358 . S
C232 C233 1.356 1_655 S
C232 H269 0.930 . S
C233 C230 1.348 . S
C233 C232 1.356 1_455 S
H234 C228 0.930 . S
H235 C229 0.930 . S
C236 N237 1.314 1_655 S
C236 C238 1.353 . S
C236 H242 0.930 . S
N237 Li187 1.990 . S
N237 C236 1.314 1_455 S
N237 C240 1.279 . S
C238 C236 1.353 . S
C238 C241 1.348 1_655 S
C238 H270 0.929 . S
C239 C240 1.358 . S
C239 C241 1.356 . S
C239 H271 0.930 . S
C240 N237 1.279 . S
C240 C239 1.358 . S
C240 H243 0.930 . S
C241 C238 1.348 1_455 S
C241 C239 1.356 . S
H242 C236 0.930 . S
H243 C240 0.930 . S
O244 Li184 1.956 1_455 S
O244 Li185 1.970 . S
O244 Li186 1.961 . S
O244 C188 1.325 . S
O245 Li184 1.970 1_465 S
O245 Li185 1.956 1_565 S
O245 Li187 1.961 . S
O245 C194 1.325 . S
O246 Li184 1.961 . S
O246 Li186 1.956 1_655 S
O246 Li187 1.970 1_645 S
O246 C216 1.325 . S
O247 Li185 1.961 . S
O247 Li186 1.970 . S
O247 Li187 1.956 1_545 S
O247 C222 1.325 . S
H248 C190 0.929 . S
H249 C191 0.930 . S
H250 C192 0.930 . S
H251 C193 0.930 . S
H252 C195 0.930 . S
H253 C197 0.929 . S
H254 C198 0.930 . S
H255 C199 0.930 . S
H256 C202 0.930 . S
H257 C205 0.929 . S
H258 C210 0.929 . S
H259 C211 0.930 . S
H260 C218 0.929 . S
H261 C219 0.930 . S
H262 C220 0.930 . S
H263 C221 0.930 . S
H264 C223 0.929 . S
H265 C224 0.930 . S
H266 C225 0.930 . S
H267 C226 0.930 . S
H268 C230 0.929 . S
H269 C232 0.930 . S
H270 C238 0.929 . S
H271 C239 0.930 . S
C272 C273 1.391 1_565 S
C272 C274 1.394 . S
C272 H288 0.931 . S
C273 C272 1.391 1_545 S
C273 C277 1.376 . S
C274 C272 1.394 . S
C274 C275 1.369 . S
C274 C278 1.531 . S
C275 C274 1.369 . S
C275 C276 1.410 1_565 S
C275 C283 1.502 1_565 S
C276 C275 1.410 1_545 S
C276 C277 1.392 . S
C276 C279 1.511 . S
C277 C273 1.376 . S
C277 C276 1.392 . S
C277 H289 0.929 . S
C278 C274 1.531 . S
C278 H290 0.960 . S
C278 H291 0.962 . S
C278 H292 0.960 . S
C279 C276 1.511 . S
C279 H293 0.961 . S
C279 H294 0.961 . S
C279 H295 0.961 . S
C280 C281 1.370 . S
C280 C282 1.363 . S
C280 H296 0.931 . S
C281 C280 1.370 . S
C281 C285 1.408 1_545 S
C282 C280 1.363 . S
C282 C283 1.387 . S
C282 C286 1.524 . S
C283 C275 1.502 1_545 S
C283 C282 1.387 . S
C283 C284 1.387 1_545 S
C284 C283 1.387 1_565 S
C284 C285 1.404 . S
C284 C287 1.539 . S
C285 C281 1.408 1_565 S
C285 C284 1.404 . S
C285 H297 0.930 . S
C286 C282 1.524 . S
C286 H298 0.956 . S
C286 H299 0.961 . S
C286 H300 0.961 . S
C287 C284 1.539 . S
C287 H301 0.958 . S
C287 H302 0.961 . S
C287 H303 0.960 . S
H288 C272 0.931 . S
H289 C277 0.929 . S
H290 C278 0.960 . S
H291 C278 0.962 . S
H292 C278 0.960 . S
H293 C279 0.961 . S
H294 C279 0.961 . S
H295 C279 0.961 . S
H296 C280 0.931 . S
H297 C285 0.930 . S
H298 C286 0.956 . S
H299 C286 0.961 . S
H300 C286 0.961 . S
H301 C287 0.958 . S
H302 C287 0.961 . S
H303 C287 0.960 . S
C304 C305 1.391 . S
C304 C306 1.394 . S
C304 H320 0.931 . S
C305 C304 1.391 . S
C305 C309 1.376 1_455 S
C306 C304 1.394 . S
C306 C307 1.369 . S
C306 C310 1.531 . S
C307 C306 1.369 . S
C307 C308 1.410 1_455 S
C307 C315 1.503 . S
C308 C307 1.410 1_655 S
C308 C309 1.392 . S
C308 C311 1.511 . S
C309 C305 1.376 1_655 S
C309 C308 1.392 . S
C309 H321 0.929 . S
C310 C306 1.531 . S
C310 H322 0.960 . S
C310 H323 0.962 . S
C310 H324 0.960 . S
C311 C308 1.511 . S
C311 H325 0.961 . S
C311 H326 0.961 . S
C311 H327 0.961 . S
C312 C313 1.370 . S
C312 C314 1.363 . S
C312 H328 0.931 . S
C313 C312 1.370 . S
C313 C317 1.408 1_455 S
C314 C312 1.363 . S
C314 C315 1.370 . S
C314 C318 1.524 . S
C315 C307 1.503 . S
C315 C314 1.370 . S
C315 C316 1.403 1_455 S
C316 C315 1.403 1_655 S
C316 C317 1.404 . S
C316 C319 1.539 . S
C317 C313 1.408 1_655 S
C317 C316 1.404 . S
C317 H329 0.930 . S
C318 C314 1.524 . S
C318 H330 0.956 . S
C318 H331 0.961 . S
C318 H332 0.961 . S
C319 C316 1.539 . S
C319 H333 0.958 . S
C319 H334 0.961 . S
C319 H335 0.960 . S
H320 C304 0.931 . S
H321 C309 0.929 . S
H322 C310 0.960 . S
H323 C310 0.962 . S
H324 C310 0.960 . S
H325 C311 0.961 . S
H326 C311 0.961 . S
H327 C311 0.961 . S
H328 C312 0.931 . S
H329 C317 0.930 . S
H330 C318 0.956 . S
H331 C318 0.961 . S
H332 C318 0.961 . S
H333 C319 0.958 . S
H334 C319 0.961 . S
H335 C319 0.960 . S
C336 C337 1.391 . S
C336 C338 1.394 . S
C336 H352 0.931 . S
C337 C336 1.391 . S
C337 C341 1.376 . S
C338 C336 1.394 . S
C338 C339 1.369 . S
C338 C342 1.531 . S
C339 C338 1.369 . S
C339 C340 1.410 . S
C339 C347 1.503 . S
C340 C339 1.410 . S
C340 C341 1.392 . S
C340 C343 1.511 . S
C341 C337 1.376 . S
C341 C340 1.392 . S
C341 H353 0.929 . S
C342 C338 1.531 . S
C342 H354 0.960 . S
C342 H355 0.970 . S
C342 H356 0.960 . S
C343 C340 1.511 . S
C343 H357 0.961 1_545 S
C343 H358 0.961 1_545 S
C343 H359 0.961 . S
C344 C345 1.370 1_565 S
C344 C346 1.363 . S
C344 H360 0.931 . S
C345 C344 1.370 1_545 S
C345 C349 1.408 . S
C346 C344 1.363 . S
C346 C347 1.370 1_565 S
C346 C350 1.524 . S
C347 C339 1.503 . S
C347 C346 1.370 1_545 S
C347 C348 1.403 . S
C348 C347 1.403 . S
C348 C349 1.404 . S
C348 C351 1.539 . S
C349 C345 1.408 . S
C349 C348 1.404 . S
C349 H361 0.930 . S
C350 C346 1.524 . S
C350 H362 0.956 . S
C350 H363 0.961 . S
C350 H364 0.961 . S
C351 C348 1.539 . S
C351 H365 0.958 . S
C351 H366 0.961 . S
C351 H367 0.960 . S
H352 C336 0.931 . S
H353 C341 0.929 . S
H354 C342 0.960 . S
H355 C342 0.970 . S
H356 C342 0.960 . S
H357 C343 0.961 1_565 S
H358 C343 0.961 1_565 S
H359 C343 0.961 . S
H360 C344 0.931 . S
H361 C349 0.930 . S
H362 C350 0.956 . S
H363 C350 0.961 . S
H364 C350 0.961 . S
H365 C351 0.958 . S
H366 C351 0.961 . S
H367 C351 0.960 . S
C368 C369 1.391 . S
C368 C370 1.394 . S
C368 H384 0.931 . S
C369 C368 1.391 . S
C369 C373 1.376 1_455 S
C370 C368 1.394 . S
C370 C371 1.357 1_455 S
C370 C374 1.531 . S
C371 C370 1.357 1_655 S
C371 C372 1.421 . S
C371 C379 1.502 1_655 S
C372 C371 1.421 . S
C372 C373 1.392 . S
C372 C375 1.511 . S
C373 C369 1.376 1_655 S
C373 C372 1.392 . S
C373 H385 0.929 . S
C374 C370 1.531 . S
C374 H386 0.960 . S
C374 H387 0.962 . S
C374 H388 0.960 . S
C375 C372 1.511 . S
C375 H389 0.961 . S
C375 H390 0.961 . S
C375 H391 0.961 . S
C376 C377 1.370 . S
C376 C378 1.363 . S
C376 H392 0.931 . S
C377 C376 1.370 . S
C377 C381 1.408 1_455 S
C378 C376 1.363 . S
C378 C379 1.394 . S
C378 C382 1.524 . S
C379 C371 1.502 1_455 S
C379 C378 1.394 . S
C379 C380 1.380 1_455 S
C380 C379 1.380 1_655 S
C380 C381 1.404 . S
C380 C383 1.539 . S
C381 C377 1.408 1_655 S
C381 C380 1.404 . S
C381 H393 0.930 . S
C382 C378 1.524 . S
C382 H394 0.956 . S
C382 H395 0.961 . S
C382 H396 0.961 . S
C383 C380 1.539 . S
C383 H397 0.958 . S
C383 H398 0.961 . S
C383 H399 0.960 . S
H384 C368 0.931 . S
H385 C373 0.929 . S
H386 C374 0.960 . S
H387 C374 0.962 . S
H388 C374 0.960 . S
H389 C375 0.961 . S
H390 C375 0.961 . S
H391 C375 0.961 . S
H392 C376 0.931 . S
H393 C381 0.930 . S
H394 C382 0.956 . S
H395 C382 0.961 . S
H396 C382 0.961 . S
H397 C383 0.958 . S
H398 C383 0.961 . S
H399 C383 0.960 . S
C400 C401 1.391 1_565 S
C400 C402 1.394 . S
C400 H416 0.931 . S
C401 C400 1.391 1_545 S
C401 C405 1.376 . S
C402 C400 1.394 . S
C402 C403 1.369 1_565 S
C402 C406 1.531 . S
C403 C402 1.369 1_545 S
C403 C404 1.410 . S
C403 C411 1.503 . S
C404 C403 1.410 . S
C404 C405 1.392 . S
C404 C407 1.511 . S
C405 C401 1.376 . S
C405 C404 1.392 . S
C405 H417 0.929 . S
C406 C402 1.531 . S
C406 H418 0.960 . S
C406 H419 0.962 . S
C406 H420 0.960 . S
C407 C404 1.511 . S
C407 H421 0.961 . S
C407 H422 0.961 . S
C407 H423 0.961 . S
C408 C409 1.370 . S
C408 C410 1.363 . S
C408 H424 0.931 . S
C409 C408 1.370 . S
C409 C413 1.408 1_545 S
C410 C408 1.363 . S
C410 C411 1.370 . S
C410 C414 1.524 . S
C411 C403 1.503 . S
C411 C410 1.370 . S
C411 C412 1.403 1_545 S
C412 C411 1.403 1_565 S
C412 C413 1.404 . S
C412 C415 1.539 . S
C413 C409 1.408 1_565 S
C413 C412 1.404 . S
C413 H425 0.930 . S
C414 C410 1.524 . S
C414 H426 0.956 . S
C414 H427 0.961 . S
C414 H428 0.961 . S
C415 C412 1.539 . S
C415 H429 0.958 . S
C415 H430 0.961 . S
C415 H431 0.960 . S
H416 C400 0.931 . S
H417 C405 0.929 . S
H418 C406 0.960 . S
H419 C406 0.962 . S
H420 C406 0.960 . S
H421 C407 0.961 . S
H422 C407 0.961 . S
H423 C407 0.961 . S
H424 C408 0.931 . S
H425 C413 0.930 . S
H426 C414 0.956 . S
H427 C414 0.961 . S
H428 C414 0.961 . S
H429 C415 0.958 . S
H430 C415 0.961 . S
H431 C415 0.960 . S
C432 C433 1.391 . S
C432 C434 1.394 . S
C432 H448 0.931 . S
C433 C432 1.391 . S
C433 C437 1.376 1_455 S
C434 C432 1.394 . S
C434 C435 1.369 . S
C434 C438 1.531 . S
C435 C434 1.369 . S
C435 C436 1.410 1_455 S
C435 C443 1.503 . S
C436 C435 1.410 1_655 S
C436 C437 1.392 . S
C436 C439 1.511 . S
C437 C433 1.376 1_655 S
C437 C436 1.392 . S
C437 H449 0.929 . S
C438 C434 1.531 . S
C438 H450 0.960 . S
C438 H451 0.962 . S
C438 H452 0.960 . S
C439 C436 1.511 . S
C439 H453 0.961 . S
C439 H454 0.961 . S
C439 H455 0.961 . S
C440 C441 1.370 1_655 S
C440 C442 1.363 . S
C440 H456 0.931 . S
C441 C440 1.370 1_455 S
C441 C445 1.408 . S
C442 C440 1.363 . S
C442 C443 1.370 1_655 S
C442 C446 1.524 . S
C443 C435 1.503 . S
C443 C442 1.370 1_455 S
C443 C444 1.403 . S
C444 C443 1.403 . S
C444 C445 1.404 . S
C444 C447 1.539 . S
C445 C441 1.408 . S
C445 C444 1.404 . S
C445 H457 0.930 . S
C446 C442 1.524 . S
C446 H458 0.956 . S
C446 H459 0.961 . S
C446 H460 0.961 . S
C447 C444 1.539 . S
C447 H461 0.958 . S
C447 H462 0.961 . S
C447 H463 0.960 . S
H448 C432 0.931 . S
H449 C437 0.929 . S
H450 C438 0.960 . S
H451 C438 0.962 . S
H452 C438 0.960 . S
H453 C439 0.961 . S
H454 C439 0.961 . S
H455 C439 0.961 . S
H456 C440 0.931 . S
H457 C445 0.930 . S
H458 C446 0.956 . S
H459 C446 0.961 . S
H460 C446 0.961 . S
H461 C447 0.958 . S
H462 C447 0.961 . S
H463 C447 0.960 . S
C464 C465 1.391 1_565 S
C464 C466 1.394 . S
C464 H480 0.931 . S
C465 C464 1.391 1_545 S
C465 C469 1.376 . S
C466 C464 1.394 . S
C466 C467 1.369 1_565 S
C466 C470 1.531 . S
C467 C466 1.369 1_545 S
C467 C468 1.410 . S
C467 C475 1.503 . S
C468 C467 1.410 . S
C468 C469 1.392 . S
C468 C471 1.511 . S
C469 C465 1.376 . S
C469 C468 1.392 . S
C469 H481 0.929 . S
C470 C466 1.531 . S
C470 H482 0.960 . S
C470 H483 0.962 . S
C470 H484 0.960 . S
C471 C468 1.511 . S
C471 H485 0.961 . S
C471 H486 0.961 . S
C471 H487 0.961 . S
C472 C473 1.370 1_565 S
C472 C474 1.363 . S
C472 H488 0.931 . S
C473 C472 1.370 1_545 S
C473 C477 1.408 . S
C474 C472 1.363 . S
C474 C475 1.370 1_565 S
C474 C478 1.524 . S
C475 C467 1.503 . S
C475 C474 1.370 1_545 S
C475 C476 1.403 . S
C476 C475 1.403 . S
C476 C477 1.404 . S
C476 C479 1.539 . S
C477 C473 1.408 . S
C477 C476 1.404 . S
C477 H489 0.930 . S
C478 C474 1.524 . S
C478 H490 0.956 . S
C478 H491 0.961 . S
C478 H492 0.961 . S
C479 C476 1.539 . S
C479 H493 0.958 . S
C479 H494 0.961 . S
C479 H495 0.960 . S
H480 C464 0.931 . S
H481 C469 0.929 . S
H482 C470 0.960 . S
H483 C470 0.962 . S
H484 C470 0.960 . S
H485 C471 0.961 . S
H486 C471 0.961 . S
H487 C471 0.961 . S
H488 C472 0.931 . S
H489 C477 0.930 . S
H490 C478 0.956 . S
H491 C478 0.961 . S
H492 C478 0.961 . S
H493 C479 0.958 . S
H494 C479 0.961 . S
H495 C479 0.960 . S
C496 C497 1.391 . S
C496 C498 1.394 . S
C496 H512 0.931 . S
C497 C496 1.391 . S
C497 C501 1.376 . S
C498 C496 1.394 . S
C498 C499 1.369 . S
C498 C502 1.531 . S
C499 C498 1.369 . S
C499 C500 1.410 . S
C499 C507 1.503 . S
C500 C499 1.410 . S
C500 C501 1.392 . S
C500 C503 1.511 1_455 S
C501 C497 1.376 . S
C501 C500 1.392 . S
C501 H513 0.929 1_455 S
C502 C498 1.531 . S
C502 H514 0.960 . S
C502 H515 0.962 . S
C502 H516 0.960 . S
C503 C500 1.511 1_655 S
C503 H517 0.961 . S
C503 H518 0.961 . S
C503 H519 0.961 1_655 S
C504 C505 1.370 1_655 S
C504 C506 1.363 . S
C504 H520 0.931 . S
C505 C504 1.370 1_455 S
C505 C509 1.408 . S
C506 C504 1.363 . S
C506 C507 1.370 1_655 S
C506 C510 1.524 . S
C507 C499 1.503 . S
C507 C506 1.370 1_455 S
C507 C508 1.403 . S
C508 C507 1.403 . S
C508 C509 1.404 . S
C508 C511 1.539 . S
C509 C505 1.408 . S
C509 C508 1.404 . S
C509 H521 0.930 . S
C510 C506 1.524 . S
C510 H522 0.956 . S
C510 H523 0.961 . S
C510 H524 0.961 . S
C511 C508 1.539 . S
C511 H525 0.958 . S
C511 H526 0.961 . S
C511 H527 0.960 . S
H512 C496 0.931 . S
H513 C501 0.929 1_655 S
H514 C502 0.960 . S
H515 C502 0.962 . S
H516 C502 0.960 . S
H517 C503 0.961 . S
H518 C503 0.961 . S
H519 C503 0.961 1_455 S
H520 C504 0.931 . S
H521 C509 0.930 . S
H522 C510 0.956 . S
H523 C510 0.961 . S
H524 C510 0.961 . S
H525 C511 0.958 . S
H526 C511 0.961 . S
H527 C511 0.960 . S
C281 C145 1.515 . S
C273 C45 1.495 . S
C313 C233 1.513 . S
C305 C78 1.498 . S
C345 C153 1.515 . S
C337 C21 1.513 . S
C377 C241 1.515 . S
C369 C84 1.504 . S
C409 C213 1.514 . S
C401 C36 1.507 . S
C441 C116 1.514 . S
C433 C69 1.504 . S
C473 C204 1.513 . S
C465 C30 1.496 . S
C497 C93 1.495 . S
C505 C125 1.515 . S
