# Generated by pormake.
# Topology ptr, (4,4)-cn, num edge types: 1
# Building blocks:
#     Node 0, Type 0, BuildingBlock: GALJAG_clean_sbu_0, # of connection points: 4
#     Node 1, Type 0, BuildingBlock: GALJAG_clean_sbu_0, # of connection points: 4
#     Node 2, Type 0, BuildingBlock: GALJAG_clean_sbu_0, # of connection points: 4
#     Node 3, Type 0, BuildingBlock: GALJAG_clean_sbu_0, # of connection points: 4
#     Node 4, Type 0, BuildingBlock: GALJAG_clean_sbu_0, # of connection points: 4
#     Node 5, Type 0, BuildingBlock: GALJAG_clean_sbu_0, # of connection points: 4
#     Node 6, Type 0, BuildingBlock: GALJAG_clean_sbu_0, # of connection points: 4
#     Node 7, Type 0, BuildingBlock: GALJAG_clean_sbu_0, # of connection points: 4
#     Node 8, Type 0, BuildingBlock: GALJAG_clean_sbu_0, # of connection points: 4
#     Node 9, Type 0, BuildingBlock: GALJAG_clean_sbu_0, # of connection points: 4
#     Node 10, Type 0, BuildingBlock: GALJAG_clean_sbu_0, # of connection points: 4
#     Node 11, Type 0, BuildingBlock: GALJAG_clean_sbu_0, # of connection points: 4
#     Node 12, Type 0, BuildingBlock: GALJAG_clean_sbu_0, # of connection points: 4
#     Node 13, Type 0, BuildingBlock: GALJAG_clean_sbu_0, # of connection points: 4
#     Node 14, Type 0, BuildingBlock: GALJAG_clean_sbu_0, # of connection points: 4
#     Node 15, Type 0, BuildingBlock: GALJAG_clean_sbu_0, # of connection points: 4
#     Node 16, Type 0, BuildingBlock: GALJAG_clean_sbu_0, # of connection points: 4
#     Node 17, Type 0, BuildingBlock: GALJAG_clean_sbu_0, # of connection points: 4
#     Node 18, Type 1, BuildingBlock: MIFKUJ_clean_linker_1, # of connection points: 4
#     Node 19, Type 1, BuildingBlock: MIFKUJ_clean_linker_1, # of connection points: 4
#     Node 20, Type 1, BuildingBlock: MIFKUJ_clean_linker_1, # of connection points: 4
#     Node 21, Type 1, BuildingBlock: MIFKUJ_clean_linker_1, # of connection points: 4
#     Node 22, Type 1, BuildingBlock: MIFKUJ_clean_linker_1, # of connection points: 4
#     Node 23, Type 1, BuildingBlock: MIFKUJ_clean_linker_1, # of connection points: 4
#     Node 24, Type 1, BuildingBlock: MIFKUJ_clean_linker_1, # of connection points: 4
#     Node 25, Type 1, BuildingBlock: MIFKUJ_clean_linker_1, # of connection points: 4
#     Node 26, Type 1, BuildingBlock: MIFKUJ_clean_linker_1, # of connection points: 4
#     Node 27, Type 1, BuildingBlock: MIFKUJ_clean_linker_1, # of connection points: 4
#     Node 28, Type 1, BuildingBlock: MIFKUJ_clean_linker_1, # of connection points: 4
#     Node 29, Type 1, BuildingBlock: MIFKUJ_clean_linker_1, # of connection points: 4
#     Node 30, Type 1, BuildingBlock: MIFKUJ_clean_linker_1, # of connection points: 4
#     Node 31, Type 1, BuildingBlock: MIFKUJ_clean_linker_1, # of connection points: 4
#     Node 32, Type 1, BuildingBlock: MIFKUJ_clean_linker_1, # of connection points: 4
#     Node 33, Type 1, BuildingBlock: MIFKUJ_clean_linker_1, # of connection points: 4
#     Node 34, Type 1, BuildingBlock: MIFKUJ_clean_linker_1, # of connection points: 4
#     Node 35, Type 1, BuildingBlock: MIFKUJ_clean_linker_1, # of connection points: 4
#     Edge 36, Type (0, 1), BuildingBlock: CIFDUS_clean_linker_0, # of connection points: 2
#     Edge 37, Type (0, 1), BuildingBlock: CIFDUS_clean_linker_0, # of connection points: 2
#     Edge 38, Type (0, 1), BuildingBlock: CIFDUS_clean_linker_0, # of connection points: 2
#     Edge 39, Type (0, 1), BuildingBlock: CIFDUS_clean_linker_0, # of connection points: 2
#     Edge 40, Type (0, 1), BuildingBlock: CIFDUS_clean_linker_0, # of connection points: 2
#     Edge 41, Type (0, 1), BuildingBlock: CIFDUS_clean_linker_0, # of connection points: 2
#     Edge 42, Type (0, 1), BuildingBlock: CIFDUS_clean_linker_0, # of connection points: 2
#     Edge 43, Type (0, 1), BuildingBlock: CIFDUS_clean_linker_0, # of connection points: 2
#     Edge 44, Type (0, 1), BuildingBlock: CIFDUS_clean_linker_0, # of connection points: 2
#     Edge 45, Type (0, 1), BuildingBlock: CIFDUS_clean_linker_0, # of connection points: 2
#     Edge 46, Type (0, 1), BuildingBlock: CIFDUS_clean_linker_0, # of connection points: 2
#     Edge 47, Type (0, 1), BuildingBlock: CIFDUS_clean_linker_0, # of connection points: 2
#     Edge 48, Type (0, 1), BuildingBlock: CIFDUS_clean_linker_0, # of connection points: 2
#     Edge 49, Type (0, 1), BuildingBlock: CIFDUS_clean_linker_0, # of connection points: 2
#     Edge 50, Type (0, 1), BuildingBlock: CIFDUS_clean_linker_0, # of connection points: 2
#     Edge 51, Type (0, 1), BuildingBlock: CIFDUS_clean_linker_0, # of connection points: 2
#     Edge 52, Type (0, 1), BuildingBlock: CIFDUS_clean_linker_0, # of connection points: 2
#     Edge 53, Type (0, 1), BuildingBlock: CIFDUS_clean_linker_0, # of connection points: 2
#     Edge 54, Type (0, 1), BuildingBlock: CIFDUS_clean_linker_0, # of connection points: 2
#     Edge 55, Type (0, 1), BuildingBlock: CIFDUS_clean_linker_0, # of connection points: 2
#     Edge 56, Type (0, 1), BuildingBlock: CIFDUS_clean_linker_0, # of connection points: 2
#     Edge 57, Type (0, 1), BuildingBlock: CIFDUS_clean_linker_0, # of connection points: 2
#     Edge 58, Type (0, 1), BuildingBlock: CIFDUS_clean_linker_0, # of connection points: 2
#     Edge 59, Type (0, 1), BuildingBlock: CIFDUS_clean_linker_0, # of connection points: 2
#     Edge 60, Type (0, 1), BuildingBlock: CIFDUS_clean_linker_0, # of connection points: 2
#     Edge 61, Type (0, 1), BuildingBlock: CIFDUS_clean_linker_0, # of connection points: 2
#     Edge 62, Type (0, 1), BuildingBlock: CIFDUS_clean_linker_0, # of connection points: 2
#     Edge 63, Type (0, 1), BuildingBlock: CIFDUS_clean_linker_0, # of connection points: 2
#     Edge 64, Type (0, 1), BuildingBlock: CIFDUS_clean_linker_0, # of connection points: 2
#     Edge 65, Type (0, 1), BuildingBlock: CIFDUS_clean_linker_0, # of connection points: 2
#     Edge 66, Type (0, 1), BuildingBlock: CIFDUS_clean_linker_0, # of connection points: 2
#     Edge 67, Type (0, 1), BuildingBlock: CIFDUS_clean_linker_0, # of connection points: 2
#     Edge 68, Type (0, 1), BuildingBlock: CIFDUS_clean_linker_0, # of connection points: 2
#     Edge 69, Type (0, 1), BuildingBlock: CIFDUS_clean_linker_0, # of connection points: 2
#     Edge 70, Type (0, 1), BuildingBlock: CIFDUS_clean_linker_0, # of connection points: 2
#     Edge 71, Type (0, 1), BuildingBlock: CIFDUS_clean_linker_0, # of connection points: 2
#     Edge 72, Type (0, 1), BuildingBlock: CIFDUS_clean_linker_0, # of connection points: 2
#     Edge 73, Type (0, 1), BuildingBlock: CIFDUS_clean_linker_0, # of connection points: 2
#     Edge 74, Type (0, 1), BuildingBlock: CIFDUS_clean_linker_0, # of connection points: 2
#     Edge 75, Type (0, 1), BuildingBlock: CIFDUS_clean_linker_0, # of connection points: 2
#     Edge 76, Type (0, 1), BuildingBlock: CIFDUS_clean_linker_0, # of connection points: 2
#     Edge 77, Type (0, 1), BuildingBlock: CIFDUS_clean_linker_0, # of connection points: 2
#     Edge 78, Type (0, 1), BuildingBlock: CIFDUS_clean_linker_0, # of connection points: 2
#     Edge 79, Type (0, 1), BuildingBlock: CIFDUS_clean_linker_0, # of connection points: 2
#     Edge 80, Type (0, 1), BuildingBlock: CIFDUS_clean_linker_0, # of connection points: 2
#     Edge 81, Type (0, 1), BuildingBlock: CIFDUS_clean_linker_0, # of connection points: 2
#     Edge 82, Type (0, 1), BuildingBlock: CIFDUS_clean_linker_0, # of connection points: 2
#     Edge 83, Type (0, 1), BuildingBlock: CIFDUS_clean_linker_0, # of connection points: 2
#     Edge 84, Type (0, 1), BuildingBlock: CIFDUS_clean_linker_0, # of connection points: 2
#     Edge 85, Type (0, 1), BuildingBlock: CIFDUS_clean_linker_0, # of connection points: 2
#     Edge 86, Type (0, 1), BuildingBlock: CIFDUS_clean_linker_0, # of connection points: 2
#     Edge 87, Type (0, 1), BuildingBlock: CIFDUS_clean_linker_0, # of connection points: 2
#     Edge 88, Type (0, 1), BuildingBlock: CIFDUS_clean_linker_0, # of connection points: 2
#     Edge 89, Type (0, 1), BuildingBlock: CIFDUS_clean_linker_0, # of connection points: 2
#     Edge 90, Type (0, 1), BuildingBlock: CIFDUS_clean_linker_0, # of connection points: 2
#     Edge 91, Type (0, 1), BuildingBlock: CIFDUS_clean_linker_0, # of connection points: 2
#     Edge 92, Type (0, 1), BuildingBlock: CIFDUS_clean_linker_0, # of connection points: 2
#     Edge 93, Type (0, 1), BuildingBlock: CIFDUS_clean_linker_0, # of connection points: 2
#     Edge 94, Type (0, 1), BuildingBlock: CIFDUS_clean_linker_0, # of connection points: 2
#     Edge 95, Type (0, 1), BuildingBlock: CIFDUS_clean_linker_0, # of connection points: 2
#     Edge 96, Type (0, 1), BuildingBlock: CIFDUS_clean_linker_0, # of connection points: 2
#     Edge 97, Type (0, 1), BuildingBlock: CIFDUS_clean_linker_0, # of connection points: 2
#     Edge 98, Type (0, 1), BuildingBlock: CIFDUS_clean_linker_0, # of connection points: 2
#     Edge 99, Type (0, 1), BuildingBlock: CIFDUS_clean_linker_0, # of connection points: 2
#     Edge 100, Type (0, 1), BuildingBlock: CIFDUS_clean_linker_0, # of connection points: 2
#     Edge 101, Type (0, 1), BuildingBlock: CIFDUS_clean_linker_0, # of connection points: 2
#     Edge 102, Type (0, 1), BuildingBlock: CIFDUS_clean_linker_0, # of connection points: 2
#     Edge 103, Type (0, 1), BuildingBlock: CIFDUS_clean_linker_0, # of connection points: 2
#     Edge 104, Type (0, 1), BuildingBlock: CIFDUS_clean_linker_0, # of connection points: 2
#     Edge 105, Type (0, 1), BuildingBlock: CIFDUS_clean_linker_0, # of connection points: 2
#     Edge 106, Type (0, 1), BuildingBlock: CIFDUS_clean_linker_0, # of connection points: 2
#     Edge 107, Type (0, 1), BuildingBlock: CIFDUS_clean_linker_0, # of connection points: 2
# Relax obj value: 0.053
# Max RMSD: 0.081
# Mean RMSD: 0.075
data_MOF--net-ptr--node1-GALJAG_clean_sbu_0--node2-MIFKUJ_clean_linker_1--edge1-CIFDUS_clean_linker_0
_symmetry_space_group_name_H-M    P1
_symmetry_Int_Tables_number       1
_symmetry_cell_setting            triclinic
loop_
_symmetry_equiv_pos_as_xyz
'x, y, z'
_cell_length_a     79.489125
_cell_length_b     79.581697
_cell_length_c     58.059061
_cell_angle_alpha  90.00783
_cell_angle_beta   89.909048
_cell_angle_gamma 120.11486
loop_
_atom_site_label
_atom_site_type_symbol
_atom_site_fract_x
_atom_site_fract_y
_atom_site_fract_z
_atom_type_partial_charge
In0 In 0.99576 0.35004 0.02275 0.0
O1 O 0.97708 0.35371 0.04999 0.0
O2 O 0.00661 0.37617 0.04631 0.0
C3 C 0.97018 0.31528 1.00442 0.0
C4 C 0.02132 0.34259 0.04451 0.0
C5 C 0.99922 0.37371 0.98749 0.0
O6 O 0.96625 0.3221 0.02193 0.0
O7 O 0.98714 0.32577 0.99654 0.0
O8 O 0.0133 0.37164 0.99382 0.0
O9 O 0.9838 0.36399 0.99894 0.0
C10 C 0.99067 0.36997 0.05686 0.0
O11 O 0.0255 0.35181 0.02565 0.0
O12 O 0.00431 0.33681 0.05169 0.0
In13 In 0.64966 0.65136 0.01157 0.0
O14 O 0.64965 0.63207 0.04121 0.0
O15 O 0.62646 0.638 0.03906 0.0
C16 C 0.68259 0.66005 0.98868 0.0
C17 C 0.65561 0.68589 0.02713 0.0
C18 C 0.62426 0.6283 0.97923 0.0
O19 O 0.67929 0.65306 0.00885 0.0
O20 O 0.66959 0.663 0.98056 0.0
O21 O 0.62816 0.64561 0.98237 0.0
O22 O 0.63303 0.6227 0.99251 0.0
C23 C 0.6339 0.62955 0.04974 0.0
O24 O 0.64076 0.67435 0.01568 0.0
O25 O 0.66776 0.6803 0.03011 0.0
In26 In 0.3577 0.9995 0.01406 0.0
O27 O 0.36474 0.0307 0.00729 0.0
O28 O 0.33931 0.00765 0.99193 0.0
C29 C 0.37788 0.00425 0.05314 0.0
C30 C 0.37983 0.99648 0.98067 0.0
C31 C 0.32373 0.97115 0.03113 0.0
O32 O 0.37443 0.01722 0.04589 0.0
O33 O 0.37109 0.98922 0.04079 0.0
O34 O 0.33455 0.96755 0.01852 0.0
O35 O 0.32983 0.98895 0.03455 0.0
C36 C 0.35009 0.02572 0.99459 0.0
O37 O 0.36151 0.98598 0.98059 0.0
O38 O 0.38659 0.00817 0.99727 0.0
In39 In 0.00517 0.65031 0.0179 0.0
O40 O 0.02464 0.64901 0.98943 0.0
O41 O 0.99659 0.62444 0.99434 0.0
C42 C 0.02928 0.68471 0.0379 0.0
C43 C 0.97986 0.65813 0.99643 0.0
C44 C 0.99919 0.62743 0.05498 0.0
O45 O 0.03544 0.67602 0.02522 0.0
O46 O 0.01103 0.67618 0.04018 0.0
O47 O 0.98553 0.62867 0.04559 0.0
O48 O 0.01557 0.6375 0.04556 0.0
C49 C 0.01224 0.63207 0.98304 0.0
O50 O 0.97453 0.64495 0.0115 0.0
O51 O 0.99791 0.66741 0.99242 0.0
In52 In 0.35313 0.35545 0.01348 0.0
O53 O 0.35981 0.38161 0.99037 0.0
O54 O 0.36685 0.36094 0.97773 0.0
C55 C 0.31912 0.34884 0.03196 0.0
C56 C 0.34596 0.31988 1.00059 0.0
C57 C 0.37995 0.37534 0.04654 0.0
O58 O 0.32343 0.35358 0.01109 0.0
O59 O 0.33182 0.34728 0.04323 0.0
O60 O 0.37366 0.35755 0.04273 0.0
O61 O 0.37308 0.383 0.03343 0.0
C62 C 0.36696 0.37658 0.97421 0.0
O63 O 0.36279 0.33341 0.00583 0.0
O64 O 0.3327 0.32412 1.00254 0.0
In65 In 0.64685 0.99924 0.01484 0.0
O66 O 0.64234 0.02014 0.03802 0.0
O67 O 0.62572 0.9899 0.04498 0.0
C68 C 0.68133 0.02253 0.99412 0.0
C69 C 0.65501 0.9729 0.03263 0.0
C70 C 0.62171 0.99374 0.98047 0.0
O71 O 0.67632 0.02753 0.0124 0.0
O72 O 0.6692 0.00582 0.98688 0.0
O73 O 0.62152 0.97967 0.9908 0.0
O74 O 0.63416 0.01026 0.98784 0.0
C75 C 0.62961 0.00678 0.05047 0.0
O76 O 0.64369 0.96915 0.01569 0.0
O77 O 0.66231 0.98998 0.04041 0.0
In78 In 0.67225 0.6905 0.34695 0.0
O79 O 0.6565 0.69466 0.37782 0.0
O80 O 0.68319 0.71875 0.36662 0.0
C81 C 0.64421 0.6553 0.33174 0.0
C82 C 0.6987 0.68325 0.36638 0.0
C83 C 0.67885 0.71252 0.30883 0.0
O84 O 0.64037 0.66761 0.34017 0.0
O85 O 0.66201 0.66049 0.33164 0.0
O86 O 0.69208 0.7106 0.3183 0.0
O87 O 0.66249 0.70334 0.31854 0.0
C88 C 0.66926 0.71229 0.38076 0.0
O89 O 0.70048 0.68958 0.34603 0.0
O90 O 0.6835 0.68038 0.37674 0.0
In91 In 0.31523 0.98052 0.35185 0.0
O92 O 0.31377 0.95894 0.3793 0.0
O93 O 0.29107 0.96564 0.37825 0.0
C94 C 0.34936 0.98446 0.33715 0.0
C95 C 0.3204 0.0144 0.36886 0.0
C96 C 0.2924 0.96689 0.31396 0.0
O97 O 0.3338 0.96825 0.33766 0.0
O98 O 0.34782 0.99843 0.34486 0.0
O99 O 0.30871 0.9823 0.31367 0.0
O100 O 0.28748 0.95872 0.33334 0.0
C101 C 0.298 0.95627 0.38793 0.0
O102 O 0.31105 0.00701 0.35052 0.0
O103 O 0.32728 0.00487 0.37825 0.0
In104 In 0.02645 0.34178 0.35515 0.0
O105 O 0.02799 0.37118 0.35587 0.0
O106 O 0.01074 0.35094 0.32989 0.0
C107 C 0.05048 0.34496 0.38977 0.0
C108 C 0.04603 0.33975 0.31816 0.0
C109 C 0.99248 0.31655 0.37545 0.0
O110 O 0.04972 0.35945 0.38217 0.0
O111 O 0.03949 0.32917 0.37962 0.0
O112 O 0.99922 0.31159 0.35866 0.0
O113 O 0.0026 0.33413 0.3813 0.0
C114 C 0.01712 0.36762 0.33851 0.0
O115 O 0.03029 0.32519 0.32486 0.0
O116 O 0.05176 0.35477 0.33031 0.0
In117 In 0.67249 0.98362 0.34899 0.0
O118 O 0.69323 0.98205 0.32265 0.0
O119 O 0.66479 0.95767 0.32614 0.0
C120 C 0.69518 0.01841 0.36876 0.0
C121 C 0.64688 0.99033 0.32623 0.0
C122 C 0.66785 0.96115 0.38593 0.0
O123 O 0.70146 0.01171 0.35334 0.0
O124 O 0.67737 0.00779 0.37361 0.0
O125 O 0.65352 0.95917 0.37433 0.0
O126 O 0.68424 0.97412 0.37871 0.0
C127 C 0.68094 0.96517 0.31589 0.0
O128 O 0.64222 0.97998 0.34421 0.0
O129 O 0.66441 0.9975 0.3202 0.0
In130 In 0.01876 0.69006 0.3471 0.0
O131 O 0.0245 0.71102 0.31687 0.0
O132 O 0.04444 0.70109 0.32292 0.0
C133 C 0.98451 0.68298 0.36467 0.0
C134 C 0.00907 0.65447 0.3315 0.0
C135 C 0.0411 0.71143 0.38257 0.0
O136 O 0.99085 0.69171 0.34565 0.0
O137 O 0.99527 0.67764 0.37436 0.0
O138 O 0.03844 0.69469 0.37821 0.0
O139 O 0.03284 0.71729 0.36886 0.0
C140 C 0.03989 0.71127 0.31069 0.0
O141 O 0.0229 0.66363 0.34551 0.0
O142 O 0.99996 0.66305 0.32599 0.0
In143 In 0.31774 0.33585 0.34858 0.0
O144 O 0.31024 0.30431 0.35361 0.0
O145 O 0.33656 0.32679 0.36819 0.0
C146 C 0.29184 0.33214 0.31614 0.0
C147 C 0.30126 0.33975 0.38726 0.0
C148 C 0.3505 0.36242 0.32729 0.0
O149 O 0.29897 0.32106 0.31644 0.0
O150 O 0.29802 0.34488 0.33168 0.0
O151 O 0.34149 0.36721 0.34136 0.0
O152 O 0.3431 0.34439 0.32419 0.0
C153 C 0.32532 0.30881 0.36535 0.0
O154 O 0.31861 0.3521 0.38188 0.0
O155 O 0.2928 0.32574 0.37345 0.0
In156 In 0.33452 0.01975 0.68341 0.0
O157 O 0.36335 0.02 0.68705 0.0
O158 O 0.34149 0.00521 0.71248 0.0
C159 C 0.34141 0.04521 0.64907 0.0
C160 C 0.32857 0.03897 0.71781 0.0
C161 C 0.31016 0.98625 0.66156 0.0
O162 O 0.3547 0.04269 0.65734 0.0
O163 O 0.32491 0.03502 0.65825 0.0
O164 O 0.30466 0.99243 0.67836 0.0
O165 O 0.32784 0.99674 0.65627 0.0
C166 C 0.35842 0.01031 0.70555 0.0
O167 O 0.31521 0.02267 0.71065 0.0
O168 O 0.34462 0.04547 0.70744 0.0
In169 In 0.98471 0.31526 0.68353 0.0
O170 O 0.98203 0.34261 0.68353 0.0
O171 O 0.99626 0.3381 0.71183 0.0
C172 C 0.96348 0.297 0.64569 0.0
C173 C 0.96559 0.2893 0.71757 0.0
C174 C 0.02053 0.326 0.66733 0.0
O175 O 0.96051 0.30874 0.65718 0.0
O176 O 0.97689 0.29453 0.65335 0.0
O177 O 0.01107 0.31125 0.68 0.0
O178 O 0.01213 0.3356 0.66338 0.0
C179 C 0.99061 0.34876 0.7026 0.0
O180 O 0.98309 0.29493 0.71256 0.0
O181 O 0.95781 0.29661 0.70532 0.0
In182 In 0.68787 0.67167 0.68803 0.0
O183 O 0.69122 0.70203 0.68763 0.0
O184 O 0.67462 0.68227 0.66111 0.0
C185 C 0.70915 0.6737 0.72508 0.0
C186 C 0.71148 0.67085 0.65525 0.0
C187 C 0.65296 0.64308 0.70311 0.0
O188 O 0.70442 0.68642 0.72116 0.0
O189 O 0.70297 0.6601 0.71054 0.0
O190 O 0.66192 0.64055 0.68672 0.0
O191 O 0.66142 0.66 0.7114 0.0
C192 C 0.68137 0.69904 0.66949 0.0
O193 O 0.69355 0.65836 0.65594 0.0
O194 O 0.71723 0.68361 0.6708 0.0
In195 In 0.33714 0.31406 0.68527 0.0
O196 O 0.35085 0.30857 0.65345 0.0
O197 O 0.32272 0.28642 0.66417 0.0
C198 C 0.36459 0.34903 0.70117 0.0
C199 C 0.31015 0.3222 0.66956 0.0
C200 C 0.33702 0.29193 0.72048 0.0
O201 O 0.36749 0.34123 0.68379 0.0
O202 O 0.34789 0.33935 0.71 0.0
O203 O 0.32259 0.29408 0.71629 0.0
O204 O 0.3512 0.3008 0.70687 0.0
C205 C 0.33644 0.29181 0.64986 0.0
O206 O 0.30772 0.3127 0.68794 0.0
O207 O 0.32619 0.32773 0.65956 0.0
In208 In 0.6915 0.02264 0.67984 0.0
O209 O 0.69434 0.03395 0.64261 0.0
O210 O 0.71453 0.05265 0.66746 0.0
C211 C 0.65629 0.01585 0.69433 0.0
C212 C 0.68929 0.99043 0.66103 0.0
C213 C 0.7123 0.03575 0.71924 0.0
O214 O 0.66594 0.02826 0.67898 0.0
O215 O 0.66411 0.0065 0.70174 0.0
O216 O 0.71134 0.02162 0.70818 0.0
O217 O 0.70272 0.04284 0.71054 0.0
C218 C 0.70902 0.05029 0.64683 0.0
O219 O 0.7053 0.00534 0.66596 0.0
O220 O 0.67449 0.99163 0.66607 0.0
In221 In 0.98148 0.6625 0.68517 0.0
O222 O 0.97206 0.63046 0.68956 0.0
O223 O 0.99889 0.65145 0.70465 0.0
C224 C 0.95489 0.65976 0.65401 0.0
C225 C 0.9675 0.66829 0.72491 0.0
C226 C 0.01496 0.68756 0.66348 0.0
O227 O 0.96247 0.64914 0.65278 0.0
O228 O 0.96069 0.67142 0.67067 0.0
O229 O 0.00796 0.69287 0.67959 0.0
O230 O 0.00529 0.66971 0.65871 0.0
C231 C 0.98665 0.6337 0.70154 0.0
O232 O 0.98239 0.68186 0.71516 0.0
O233 O 0.96011 0.65212 0.71477 0.0
H234 H 0.15269 0.351 0.20463 0.0
H235 H 0.12848 0.34982 0.23108 0.0
H236 H 0.08338 0.30099 0.19372 0.0
H237 H 0.10813 0.30172 0.16771 0.0
H238 H 0.16218 0.32434 0.20048 0.0
H239 H 0.13477 0.35269 0.1516 0.0
H240 H 0.11086 0.35563 0.12806 0.0
H241 H 0.10628 0.31029 0.08323 0.0
H242 H 0.12936 0.30653 0.10749 0.0
H243 H 0.18047 0.30654 0.10934 0.0
H244 H 0.20926 0.31042 0.08883 0.0
H245 H 0.24614 0.3587 0.13293 0.0
H246 H 0.21749 0.35529 0.15275 0.0
H247 H 0.16522 0.32933 0.11534 0.0
H248 H 0.18972 0.29879 0.17018 0.0
H249 H 0.2135 0.29726 0.19568 0.0
H250 H 0.22622 0.352 0.22616 0.0
H251 H 0.20187 0.35283 0.20155 0.0
C252 C 0.13228 0.32647 0.18413 0.0
C253 C 0.13758 0.34008 0.20199 0.0
C254 C 0.12362 0.3395 0.21703 0.0
C255 C 0.10387 0.32537 0.21453 0.0
C256 C 0.09846 0.31196 0.19628 0.0
C257 C 0.11256 0.31249 0.18123 0.0
C258 C 0.14782 0.32631 0.17 0.0
C259 C 0.16278 0.3255 0.18183 0.0
C260 C 0.14845 0.32737 0.14558 0.0
C261 C 0.13361 0.32905 0.13172 0.0
C262 C 0.12828 0.34299 0.13711 0.0
C263 C 0.11477 0.34482 0.12352 0.0
C264 C 0.10679 0.33318 0.10389 0.0
C265 C 0.11232 0.31949 0.09824 0.0
C266 C 0.12548 0.31734 0.11211 0.0
C267 C 0.19682 0.33029 0.133 0.0
C268 C 0.19475 0.31804 0.11447 0.0
C269 C 0.21116 0.32027 0.10276 0.0
C270 C 0.22989 0.33469 0.10952 0.0
C271 C 0.23189 0.34723 0.12766 0.0
C272 C 0.21552 0.34521 0.13908 0.0
C273 C 0.17952 0.32767 0.14595 0.0
C274 C 0.16426 0.32783 0.13393 0.0
C275 C 0.17857 0.32622 0.17022 0.0
C276 C 0.19395 0.32583 0.18418 0.0
C277 C 0.19773 0.31044 0.18236 0.0
C278 C 0.2114 0.30966 0.19686 0.0
C279 C 0.22161 0.32435 0.21328 0.0
C280 C 0.21825 0.34011 0.21427 0.0
C281 C 0.20443 0.34071 0.20009 0.0
H282 H 0.71305 0.88205 0.19918 0.0
H283 H 0.70957 0.90288 0.22746 0.0
H284 H 0.65482 0.88962 0.19661 0.0
H285 H 0.65805 0.86828 0.16895 0.0
H286 H 0.68844 0.84353 0.19636 0.0
H287 H 0.71067 0.89789 0.14254 0.0
H288 H 0.70751 0.92323 0.1226 0.0
H289 H 0.65165 0.87958 0.09598 0.0
H290 H 0.6553 0.85437 0.1153 0.0
H291 H 0.66014 0.80917 0.10522 0.0
H292 H 0.6589 0.78387 0.08069 0.0
H293 H 0.70572 0.78498 0.11989 0.0
H294 H 0.70825 0.81176 0.14267 0.0
H295 H 0.68325 0.84383 0.11134 0.0
H296 H 0.65792 0.79 0.16307 0.0
H297 H 0.65394 0.76347 0.18795 0.0
H298 H 0.70743 0.80291 0.22294 0.0
H299 H 0.71172 0.82909 0.19737 0.0
C300 C 0.68589 0.8737 0.18185 0.0
C301 C 0.70043 0.88386 0.19833 0.0
C302 C 0.69848 0.89585 0.2144 0.0
C303 C 0.68187 0.89783 0.21436 0.0
C304 C 0.66768 0.88822 0.19727 0.0
C305 C 0.66963 0.8762 0.18125 0.0
C306 C 0.68674 0.85899 0.16695 0.0
C307 C 0.68778 0.84377 0.1777 0.0
C308 C 0.68485 0.85885 0.14275 0.0
C309 C 0.68321 0.87427 0.13042 0.0
C310 C 0.69779 0.89383 0.13234 0.0
C311 C 0.69589 0.9083 0.12102 0.0
C312 C 0.6793 0.90349 0.10766 0.0
C313 C 0.66479 0.88383 0.10573 0.0
C314 C 0.66679 0.86938 0.11687 0.0
C315 C 0.68412 0.81231 0.12612 0.0
C316 C 0.67035 0.80418 0.10835 0.0
C317 C 0.66945 0.78941 0.0945 0.0
C318 C 0.68204 0.78205 0.09833 0.0
C319 C 0.6959 0.79031 0.11608 0.0
C320 C 0.69713 0.80546 0.12953 0.0
C321 C 0.68497 0.82812 0.14073 0.0
C322 C 0.68423 0.84358 0.12996 0.0
C323 C 0.68653 0.82815 0.16506 0.0
C324 C 0.68519 0.81153 0.17824 0.0
C325 C 0.66905 0.7928 0.17569 0.0
C326 C 0.66668 0.77769 0.19012 0.0
C327 C 0.6803 0.78107 0.20757 0.0
C328 C 0.69678 0.7997 0.20953 0.0
C329 C 0.69918 0.81475 0.19503 0.0
H330 H 0.10797 0.81229 0.16273 0.0
H331 H 0.08259 0.78774 0.18763 0.0
H332 H 0.12694 0.78779 0.23067 0.0
H333 H 0.152 0.81154 0.20535 0.0
H334 H 0.16014 0.84719 0.19821 0.0
H335 H 0.12447 0.82486 0.10968 0.0
H336 H 0.10296 0.79574 0.08724 0.0
H337 H 0.12247 0.76276 0.12677 0.0
H338 H 0.14386 0.79188 0.14921 0.0
H339 H 0.20028 0.85415 0.11164 0.0
H340 H 0.22645 0.87787 0.08785 0.0
H341 H 0.22299 0.92402 0.12304 0.0
H342 H 0.19511 0.89993 0.14474 0.0
H343 H 0.16555 0.84236 0.11377 0.0
H344 H 0.21616 0.87475 0.17285 0.0
H345 H 0.23796 0.89768 0.20203 0.0
H346 H 0.1917 0.90704 0.22527 0.0
H347 H 0.17014 0.8845 0.19598 0.0
C348 C 0.13189 0.81367 0.18209 0.0
C349 C 0.11216 0.80669 0.17728 0.0
C350 C 0.09768 0.79283 0.19167 0.0
C351 C 0.10271 0.78576 0.21115 0.0
C352 C 0.12249 0.79262 0.21564 0.0
C353 C 0.13688 0.80636 0.20126 0.0
C354 C 0.14752 0.82949 0.16821 0.0
C355 C 0.16139 0.84622 0.1797 0.0
C356 C 0.14906 0.82817 0.14415 0.0
C357 C 0.13561 0.81045 0.13117 0.0
C358 C 0.12401 0.81132 0.11355 0.0
C359 C 0.11172 0.7947 0.10084 0.0
C360 C 0.1111 0.77704 0.10528 0.0
C361 C 0.12278 0.77623 0.1229 0.0
C362 C 0.13488 0.79279 0.1358 0.0
C363 C 0.19569 0.87511 0.13031 0.0
C364 C 0.20494 0.86937 0.11407 0.0
C365 C 0.22027 0.8831 0.10065 0.0
C366 C 0.22723 0.90309 0.10351 0.0
C367 C 0.21801 0.90883 0.11995 0.0
C368 C 0.20222 0.895 0.13286 0.0
C369 C 0.17892 0.86008 0.14388 0.0
C370 C 0.16451 0.84355 0.13227 0.0
C371 C 0.17712 0.86147 0.16802 0.0
C372 C 0.19151 0.8779 0.18226 0.0
C373 C 0.21092 0.88222 0.18374 0.0
C374 C 0.22334 0.89527 0.20041 0.0
C375 C 0.2164 0.90393 0.216 0.0
C376 C 0.19733 0.9004 0.2136 0.0
C377 C 0.18504 0.88757 0.19686 0.0
H378 H 0.29629 0.17429 0.84333 0.0
H379 H 0.29453 0.19771 0.81764 0.0
H380 H 0.35288 0.24108 0.83725 0.0
H381 H 0.35471 0.21743 0.86249 0.0
H382 H 0.32259 0.1621 0.83746 0.0
H383 H 0.30831 0.19655 0.89612 0.0
H384 H 0.3144 0.22534 0.91784 0.0
H385 H 0.36888 0.23199 0.94187 0.0
H386 H 0.36335 0.20412 0.91889 0.0
H387 H 0.36395 0.15938 0.91914 0.0
H388 H 0.37003 0.13689 0.94079 0.0
H389 H 0.31982 0.08858 0.90905 0.0
H390 H 0.31273 0.11125 0.88924 0.0
H391 H 0.33842 0.16818 0.92061 0.0
H392 H 0.35918 0.14197 0.86076 0.0
H393 H 0.36142 0.12007 0.83312 0.0
H394 H 0.30382 0.10307 0.80825 0.0
H395 H 0.30131 0.12428 0.83674 0.0
C396 C 0.32558 0.19414 0.8549 0.0
C397 C 0.30859 0.18894 0.84232 0.0
C398 C 0.30757 0.20237 0.82776 0.0
C399 C 0.32359 0.22123 0.82535 0.0
C400 C 0.34037 0.2266 0.83856 0.0
C401 C 0.34137 0.21316 0.85316 0.0
C402 C 0.32742 0.17917 0.86804 0.0
C403 C 0.32567 0.16317 0.85578 0.0
C404 C 0.33242 0.18121 0.89166 0.0
C405 C 0.33549 0.19827 0.90552 0.0
C406 C 0.32169 0.20437 0.9058 0.0
C407 C 0.32508 0.22071 0.91854 0.0
C408 C 0.3422 0.23111 0.93161 0.0
C409 C 0.35573 0.22464 0.93169 0.0
C410 C 0.35246 0.20851 0.91874 0.0
C411 C 0.33793 0.13712 0.90234 0.0
C412 C 0.35408 0.14394 0.91703 0.0
C413 C 0.35773 0.13098 0.92919 0.0
C414 C 0.34554 0.11078 0.92667 0.0
C415 C 0.32942 0.10397 0.9118 0.0
C416 C 0.32551 0.11698 0.90006 0.0
C417 C 0.33401 0.15118 0.88994 0.0
C418 C 0.33519 0.16693 0.90234 0.0
C419 C 0.32936 0.14942 0.86617 0.0
C420 C 0.33 0.13467 0.85102 0.0
C421 C 0.34683 0.13316 0.84978 0.0
C422 C 0.34819 0.1208 0.83372 0.0
C423 C 0.33286 0.1099 0.81828 0.0
C424 C 0.31581 0.11105 0.82 0.0
C425 C 0.31441 0.1233 0.83618 0.0
H426 H 0.82664 0.11919 0.83429 0.0
H427 H 0.80102 0.0966 0.80855 0.0
H428 H 0.76015 0.10928 0.84236 0.0
H429 H 0.78611 0.1328 0.8669 0.0
H430 H 0.84062 0.1564 0.83406 0.0
H431 H 0.81065 0.10755 0.89498 0.0
H432 H 0.78423 0.08481 0.92009 0.0
H433 H 0.77456 0.13123 0.942 0.0
H434 H 0.80128 0.15388 0.91741 0.0
H435 H 0.85133 0.20251 0.91495 0.0
H436 H 0.87692 0.2304 0.93545 0.0
H437 H 0.91968 0.21748 0.90769 0.0
H438 H 0.894 0.18985 0.8868 0.0
H439 H 0.83917 0.16476 0.9185 0.0
H440 H 0.86382 0.21225 0.85993 0.0
H441 H 0.88531 0.23693 0.83234 0.0
H442 H 0.90063 0.19639 0.80336 0.0
H443 H 0.8794 0.17183 0.83141 0.0
C444 C 0.80837 0.12769 0.85268 0.0
C445 C 0.81209 0.11693 0.83634 0.0
C446 C 0.79734 0.10385 0.82173 0.0
C447 C 0.77848 0.10117 0.8232 0.0
C448 C 0.77456 0.1112 0.84044 0.0
C449 C 0.78937 0.12446 0.85481 0.0
C450 C 0.82473 0.1438 0.86546 0.0
C451 C 0.84054 0.1579 0.85263 0.0
C452 C 0.82416 0.14642 0.88953 0.0
C453 C 0.80789 0.13239 0.90427 0.0
C454 C 0.80278 0.11277 0.90517 0.0
C455 C 0.78763 0.09978 0.9195 0.0
C456 C 0.77725 0.10616 0.93315 0.0
C457 C 0.78244 0.12585 0.93211 0.0
C458 C 0.79764 0.13881 0.91793 0.0
C459 C 0.87076 0.19416 0.89926 0.0
C460 C 0.86622 0.20569 0.91331 0.0
C461 C 0.88088 0.22158 0.92512 0.0
C462 C 0.90039 0.22616 0.92333 0.0
C463 C 0.90487 0.21455 0.90923 0.0
C464 C 0.8902 0.19871 0.89731 0.0
C465 C 0.85507 0.17711 0.88709 0.0
C466 C 0.83942 0.16295 0.9 0.0
C467 C 0.8555 0.17469 0.86301 0.0
C468 C 0.87012 0.19023 0.84788 0.0
C469 C 0.87214 0.20879 0.848 0.0
C470 C 0.88427 0.22283 0.83205 0.0
C471 C 0.89458 0.21857 0.81558 0.0
C472 C 0.89302 0.20017 0.81595 0.0
C473 C 0.88082 0.1861 0.83188 0.0
H474 H 0.7943 0.63738 0.84332 0.0
H475 H 0.76993 0.63557 0.81647 0.0
H476 H 0.79225 0.69721 0.82502 0.0
H477 H 0.81585 0.6985 0.85316 0.0
H478 H 0.83691 0.66646 0.83399 0.0
H479 H 0.78438 0.64521 0.88681 0.0
H480 H 0.7587 0.64526 0.90984 0.0
H481 H 0.80152 0.69629 0.94589 0.0
H482 H 0.82726 0.69696 0.92182 0.0
H483 H 0.8807 0.69526 0.91838 0.0
H484 H 0.90359 0.69059 0.94211 0.0
H485 H 0.88045 0.63282 0.91428 0.0
H486 H 0.8577 0.63756 0.89062 0.0
H487 H 0.83944 0.67225 0.91909 0.0
H488 H 0.89247 0.69109 0.86526 0.0
H489 H 0.91643 0.68804 0.84171 0.0
H490 H 0.86989 0.63698 0.80923 0.0
H491 H 0.84626 0.63968 0.8333 0.0
C492 C 0.80677 0.66804 0.8502 0.0
C493 C 0.79365 0.65041 0.8397 0.0
C494 C 0.77988 0.64948 0.82415 0.0
C495 C 0.77932 0.66633 0.81813 0.0
C496 C 0.79211 0.68391 0.82933 0.0
C497 C 0.80567 0.68472 0.84534 0.0
C498 C 0.82279 0.66916 0.86423 0.0
C499 C 0.83748 0.6677 0.85263 0.0
C500 C 0.82354 0.67111 0.88848 0.0
C501 C 0.80778 0.67146 0.90197 0.0
C502 C 0.78828 0.65686 0.89902 0.0
C503 C 0.7736 0.65673 0.9124 0.0
C504 C 0.77818 0.67084 0.9295 0.0
C505 C 0.79767 0.68526 0.93279 0.0
C506 C 0.81233 0.68564 0.91904 0.0
C507 C 0.86766 0.66682 0.90264 0.0
C508 C 0.88065 0.68164 0.91736 0.0
C509 C 0.89372 0.67899 0.9308 0.0
C510 C 0.89372 0.66133 0.93003 0.0
C511 C 0.88063 0.6465 0.91534 0.0
C512 C 0.86776 0.64925 0.90171 0.0
C513 C 0.85343 0.6693 0.88883 0.0
C514 C 0.83909 0.67146 0.90043 0.0
C515 C 0.85276 0.66764 0.86457 0.0
C516 C 0.86755 0.66554 0.85117 0.0
C517 C 0.88749 0.67906 0.85333 0.0
C518 C 0.90116 0.67742 0.83969 0.0
C519 C 0.89511 0.66224 0.82361 0.0
C520 C 0.87513 0.64867 0.82169 0.0
C521 C 0.86155 0.65029 0.8353 0.0
H522 H 0.82073 0.69294 0.53547 0.0
H523 H 0.79596 0.69266 0.56049 0.0
H524 H 0.75446 0.63507 0.53609 0.0
H525 H 0.77921 0.63613 0.50997 0.0
H526 H 0.83184 0.66282 0.53729 0.0
H527 H 0.80663 0.6927 0.4884 0.0
H528 H 0.78078 0.69489 0.46844 0.0
H529 H 0.76997 0.64596 0.42599 0.0
H530 H 0.79535 0.64318 0.44678 0.0
H531 H 0.84705 0.64346 0.44474 0.0
H532 H 0.87479 0.64598 0.42304 0.0
H533 H 0.91428 0.69205 0.46809 0.0
H534 H 0.88674 0.6903 0.48892 0.0
H535 H 0.83337 0.66645 0.45196 0.0
H536 H 0.85709 0.63505 0.5059 0.0
H537 H 0.87971 0.63169 0.53157 0.0
H538 H 0.89465 0.68659 0.56338 0.0
H539 H 0.87152 0.68933 0.53844 0.0
C540 C 0.80176 0.66456 0.52097 0.0
C541 C 0.80621 0.68036 0.53538 0.0
C542 C 0.79204 0.68006 0.54984 0.0
C543 C 0.77321 0.66368 0.55071 0.0
C544 C 0.7687 0.648 0.5358 0.0
C545 C 0.78284 0.6485 0.52095 0.0
C546 C 0.81732 0.66457 0.50698 0.0
C547 C 0.83225 0.66369 0.51862 0.0
C548 C 0.81757 0.66542 0.48264 0.0
C549 C 0.80258 0.6674 0.4696 0.0
C550 C 0.79848 0.68217 0.47514 0.0
C551 C 0.78381 0.68352 0.46362 0.0
C552 C 0.7733 0.67047 0.44588 0.0
C553 C 0.77789 0.65617 0.43965 0.0
C554 C 0.79236 0.6546 0.45149 0.0
C555 C 0.86476 0.66633 0.4689 0.0
C556 C 0.86167 0.65422 0.44984 0.0
C557 C 0.87747 0.65565 0.43746 0.0
C558 C 0.89657 0.66904 0.44414 0.0
C559 C 0.89966 0.6814 0.46287 0.0
C560 C 0.88391 0.68026 0.4749 0.0
C561 C 0.84805 0.66468 0.48232 0.0
C562 C 0.83285 0.66526 0.47059 0.0
C563 C 0.84754 0.66364 0.50668 0.0
C564 C 0.86256 0.66237 0.52042 0.0
C565 C 0.86538 0.64638 0.51833 0.0
C566 C 0.87837 0.64453 0.53296 0.0
C567 C 0.88881 0.65872 0.54982 0.0
C568 C 0.88647 0.6751 0.55109 0.0
C569 C 0.87336 0.67679 0.53673 0.0
H570 H 0.37526 0.21549 0.5248 0.0
H571 H 0.3769 0.24065 0.55036 0.0
H572 H 0.31769 0.22378 0.53272 0.0
H573 H 0.31607 0.19835 0.50737 0.0
H574 H 0.34883 0.17632 0.53173 0.0
H575 H 0.36206 0.22541 0.47417 0.0
H576 H 0.35538 0.24739 0.45209 0.0
H577 H 0.30368 0.19813 0.42423 0.0
H578 H 0.30947 0.17645 0.44806 0.0
H579 H 0.31131 0.12916 0.45118 0.0
H580 H 0.30916 0.10093 0.43162 0.0
H581 H 0.36596 0.11613 0.45781 0.0
H582 H 0.36778 0.14405 0.47766 0.0
H583 H 0.33552 0.16721 0.44792 0.0
H584 H 0.31579 0.1196 0.5048 0.0
H585 H 0.31327 0.09496 0.53172 0.0
H586 H 0.36804 0.13686 0.56232 0.0
H587 H 0.37097 0.16124 0.53448 0.0
C588 C 0.34558 0.20511 0.51414 0.0
C589 C 0.36273 0.2174 0.5262 0.0
C590 C 0.36368 0.23185 0.54069 0.0
C591 C 0.34741 0.23418 0.5436 0.0
C592 C 0.33041 0.22221 0.53097 0.0
C593 C 0.3295 0.2078 0.51636 0.0
C594 C 0.34411 0.18846 0.50099 0.0
C595 C 0.34633 0.17452 0.51329 0.0
C596 C 0.33961 0.1856 0.47719 0.0
C597 C 0.33609 0.19923 0.46324 0.0
C598 C 0.34904 0.21936 0.46373 0.0
C599 C 0.34537 0.23193 0.45067 0.0
C600 C 0.32893 0.22464 0.43625 0.0
C601 C 0.31624 0.20442 0.43543 0.0
C602 C 0.3197 0.19192 0.44887 0.0
C603 C 0.33962 0.1386 0.46606 0.0
C604 C 0.32333 0.12645 0.45258 0.0
C605 C 0.32217 0.11036 0.44134 0.0
C606 C 0.33736 0.1062 0.44321 0.0
C607 C 0.35383 0.11867 0.45634 0.0
C608 C 0.35494 0.13469 0.46765 0.0
C609 C 0.34057 0.15528 0.47864 0.0
C610 C 0.33824 0.16915 0.4663 0.0
C611 C 0.34412 0.15773 0.50261 0.0
C612 C 0.34367 0.14227 0.51742 0.0
C613 C 0.32755 0.12337 0.51684 0.0
C614 C 0.32599 0.10934 0.5325 0.0
C615 C 0.34036 0.11397 0.54936 0.0
C616 C 0.3568 0.13273 0.54945 0.0
C617 C 0.35842 0.14674 0.53364 0.0
H618 H 0.78997 0.16472 0.52638 0.0
H619 H 0.76414 0.14019 0.55072 0.0
H620 H 0.77763 0.0971 0.52606 0.0
H621 H 0.80371 0.1217 0.50222 0.0
H622 H 0.82706 0.17843 0.52982 0.0
H623 H 0.78169 0.14765 0.46674 0.0
H624 H 0.75909 0.12137 0.44154 0.0
H625 H 0.8031 0.10574 0.42853 0.0
H626 H 0.82574 0.13246 0.45304 0.0
H627 H 0.8788 0.18363 0.4597 0.0
H628 H 0.90696 0.20671 0.43705 0.0
H629 H 0.88918 0.2496 0.44518 0.0
H630 H 0.86145 0.22659 0.46839 0.0
H631 H 0.8394 0.17118 0.44768 0.0
H632 H 0.87663 0.19165 0.52363 0.0
H633 H 0.89854 0.21556 0.55144 0.0
H634 H 0.87151 0.25027 0.53894 0.0
H635 H 0.84892 0.22554 0.51202 0.0
C636 C 0.79873 0.14508 0.51225 0.0
C637 C 0.78726 0.14995 0.52603 0.0
C638 C 0.77252 0.13594 0.53994 0.0
C639 C 0.76887 0.11674 0.54026 0.0
C640 C 0.77991 0.11171 0.5259 0.0
C641 C 0.7948 0.12578 0.51219 0.0
C642 C 0.81577 0.16047 0.49951 0.0
C643 C 0.82944 0.17697 0.5117 0.0
C644 C 0.8194 0.15844 0.47608 0.0
C645 C 0.80535 0.14194 0.46177 0.0
C646 C 0.78638 0.13847 0.45851 0.0
C647 C 0.77347 0.12339 0.44414 0.0
C648 C 0.77926 0.11143 0.43289 0.0
C649 C 0.79824 0.11487 0.43649 0.0
C650 C 0.81118 0.13005 0.45064 0.0
C651 C 0.86821 0.20351 0.46593 0.0
C652 C 0.88116 0.19811 0.4568 0.0
C653 C 0.89714 0.21127 0.44367 0.0
C654 C 0.90034 0.23003 0.43915 0.0
C655 C 0.88739 0.23542 0.44859 0.0
C656 C 0.87151 0.22229 0.46189 0.0
C657 C 0.85038 0.18898 0.47799 0.0
C658 C 0.83669 0.17267 0.46569 0.0
C659 C 0.84668 0.19116 0.50123 0.0
C660 C 0.86132 0.20696 0.51574 0.0
C661 C 0.87563 0.20455 0.52673 0.0
C662 C 0.88823 0.21834 0.54254 0.0
C663 C 0.88691 0.23498 0.54752 0.0
C664 C 0.87281 0.23755 0.53587 0.0
C665 C 0.86001 0.22355 0.52029 0.0
H666 H 0.97527 0.53416 0.20062 0.0
H667 H 0.97904 0.56063 0.17542 0.0
H668 H 0.02909 0.56237 0.1436 0.0
H669 H 0.02553 0.53646 0.16902 0.0
H670 H 0.99533 0.50022 0.16997 0.0
H671 H 0.97256 0.51763 0.25598 0.0
H672 H 0.9776 0.54517 0.27985 0.0
H673 H 0.0339 0.58078 0.2483 0.0
H674 H 0.02881 0.55314 0.22456 0.0
H675 H 0.02217 0.48746 0.25456 0.0
H676 H 0.02348 0.46148 0.27522 0.0
H677 H 0.96794 0.41965 0.24607 0.0
H678 H 0.96708 0.44579 0.22488 0.0
H679 H 0.99635 0.50056 0.25535 0.0
H680 H 0.02047 0.47179 0.20106 0.0
H681 H 0.02206 0.44848 0.17501 0.0
H682 H 0.96963 0.43921 0.1413 0.0
H683 H 0.96779 0.46203 0.16791 0.0
C684 C 1.00016 0.53339 0.18672 0.0
C685 C 0.98722 0.5405 0.18845 0.0
C686 C 0.98929 0.55549 0.17392 0.0
C687 C 0.00438 0.56362 0.15752 0.0
C688 C 0.01749 0.55667 0.15624 0.0
C689 C 0.01539 0.54173 0.17066 0.0
C690 C 0.99736 0.51648 0.20049 0.0
C691 C 0.99533 0.5002 0.18866 0.0
C692 C 0.99746 0.51649 0.22483 0.0
C693 C 1.00023 0.53343 0.23839 0.0
C694 C 0.98594 0.53141 0.25416 0.0
C695 C 0.98881 0.54714 0.26771 0.0
C696 C 0.00616 0.56509 0.26594 0.0
C697 C 0.02047 0.56706 0.25015 0.0
C698 C 0.01751 0.55137 0.23645 0.0
C699 C 0.99458 0.46854 0.23813 0.0
C700 C 0.01021 0.47271 0.25278 0.0
C701 C 0.01088 0.45781 0.26467 0.0
C702 C 0.99579 0.43842 0.26238 0.0
C703 C 0.97994 0.43435 0.24799 0.0
C704 C 0.97937 0.44928 0.23595 0.0
C705 C 0.9946 0.48441 0.22477 0.0
C706 C 0.99593 0.5004 0.23667 0.0
C707 C 0.99413 0.48425 0.20043 0.0
C708 C 0.99391 0.46851 0.18655 0.0
C709 C 0.00904 0.46435 0.18846 0.0
C710 C 0.01006 0.4512 0.17337 0.0
C711 C 0.99603 0.44208 0.15599 0.0
C712 C 0.98053 0.4458 0.15465 0.0
C713 C 0.97952 0.45893 0.16975 0.0
H714 H 0.49361 0.46237 0.16427 0.0
H715 H 0.46989 0.4407 0.1359 0.0
H716 H 0.42924 0.45802 0.15947 0.0
H717 H 0.45319 0.47998 0.18742 0.0
H718 H 0.50917 0.50144 0.16402 0.0
H719 H 0.46929 0.44892 0.21572 0.0
H720 H 0.43999 0.42585 0.23637 0.0
H721 H 0.43818 0.47364 0.2695 0.0
H722 H 0.46621 0.49647 0.24714 0.0
H723 H 0.51081 0.5405 0.24882 0.0
H724 H 0.53312 0.56773 0.27266 0.0
H725 H 0.58154 0.56436 0.24383 0.0
H726 H 0.55891 0.53611 0.22121 0.0
H727 H 0.50071 0.50523 0.24802 0.0
H728 H 0.53155 0.55638 0.19359 0.0
H729 H 0.55513 0.58178 0.1683 0.0
H730 H 0.56989 0.54091 0.13891 0.0
H731 H 0.54701 0.51583 0.16518 0.0
C732 C 0.47515 0.47272 0.17806 0.0
C733 C 0.47948 0.46129 0.16352 0.0
C734 C 0.46587 0.44883 0.1474 0.0
C735 C 0.44771 0.4477 0.14535 0.0
C736 C 0.44318 0.45872 0.16045 0.0
C737 C 0.45678 0.47113 0.1766 0.0
C738 C 0.49047 0.48763 0.19311 0.0
C739 C 0.50752 0.50207 0.18251 0.0
C740 C 0.48782 0.48887 0.21706 0.0
C741 C 0.46994 0.47452 0.22956 0.0
C742 C 0.46232 0.45443 0.22701 0.0
C743 C 0.44569 0.44121 0.23922 0.0
C744 C 0.43658 0.44776 0.25477 0.0
C745 C 0.44441 0.46791 0.25741 0.0
C746 C 0.46072 0.48107 0.24482 0.0
C747 C 0.53311 0.53625 0.23302 0.0
C748 C 0.52622 0.54545 0.24778 0.0
C749 C 0.53907 0.56125 0.26124 0.0
C750 C 0.55923 0.56844 0.26012 0.0
C751 C 0.56612 0.55913 0.2454 0.0
C752 C 0.55319 0.54311 0.23216 0.0
C753 C 0.51911 0.51942 0.2188 0.0
C754 C 0.50244 0.50452 0.22957 0.0
C755 C 0.52165 0.51819 0.19482 0.0
C756 C 0.5376 0.5342 0.18147 0.0
C757 C 0.54028 0.55302 0.18221 0.0
C758 C 0.5536 0.56749 0.16749 0.0
C759 C 0.56429 0.56336 0.15137 0.0
C760 C 0.56209 0.54469 0.15125 0.0
C761 C 0.54888 0.53027 0.16614 0.0
H762 H 0.55093 0.03471 0.18087 0.0
H763 H 0.57575 0.0346 0.15591 0.0
H764 H 0.54525 0.97177 0.1593 0.0
H765 H 0.52151 0.9723 0.18532 0.0
H766 H 0.506 0.00853 0.16935 0.0
H767 H 0.55484 0.02524 0.22879 0.0
H768 H 0.57858 0.02215 0.25238 0.0
H769 H 0.53502 0.96302 0.26903 0.0
H770 H 0.51128 0.96647 0.24591 0.0
H771 H 0.46172 0.9655 0.24865 0.0
H772 H 0.43332 0.95942 0.27137 0.0
H773 H 0.44092 0.01476 0.24971 0.0
H774 H 0.46969 0.021 0.22747 0.0
H775 H 0.49837 0.99211 0.25251 0.0
H776 H 0.44986 0.97295 0.19565 0.0
H777 H 0.42485 0.97111 0.16983 0.0
H778 H 0.46519 0.02847 0.14394 0.0
H779 H 0.48992 0.03061 0.17071 0.0
C780 C 0.53455 0.00353 0.18504 0.0
C781 C 0.54988 0.02099 0.17643 0.0
C782 C 0.56393 0.02084 0.16196 0.0
C783 C 0.56264 0.00316 0.1554 0.0
C784 C 0.54717 0.98573 0.16427 0.0
C785 C 0.53341 0.98595 0.17906 0.0
C786 C 0.51885 0.00329 0.199 0.0
C787 C 0.50451 0.00549 0.18769 0.0
C788 C 0.51659 0.99839 0.2226 0.0
C789 C 0.53135 0.99606 0.23552 0.0
C790 C 0.5505 0.01155 0.23732 0.0
C791 C 0.56406 0.00974 0.25081 0.0
C792 C 0.55872 0.99234 0.2627 0.0
C793 C 0.53956 0.97674 0.26049 0.0
C794 C 0.52599 0.97863 0.24714 0.0
C795 C 0.46781 0.99368 0.23627 0.0
C796 C 0.45732 0.97637 0.24886 0.0
C797 C 0.44099 0.97283 0.26169 0.0
C798 C 0.43484 0.98659 0.26233 0.0
C799 C 0.4454 0.00396 0.24976 0.0
C800 C 0.46173 0.00747 0.23686 0.0
C801 C 0.48529 0.99732 0.22291 0.0
C802 C 0.49994 0.99563 0.23429 0.0
C803 C 0.48756 0.00224 0.19921 0.0
C804 C 0.47176 0.00201 0.18532 0.0
C805 C 0.45318 0.98538 0.18494 0.0
C806 C 0.43894 0.98424 0.16992 0.0
C807 C 0.44306 0.99957 0.15466 0.0
C808 C 0.46146 0.01649 0.15562 0.0
C809 C 0.47567 0.01767 0.17078 0.0
H810 H 0.48709 0.02202 0.85757 0.0
H811 H 0.46207 0.02066 0.88309 0.0
H812 H 0.42129 0.96344 0.85724 0.0
H813 H 0.44639 0.9653 0.83099 0.0
H814 H 0.50077 0.99671 0.85981 0.0
H815 H 0.47165 0.01871 0.80794 0.0
H816 H 0.44706 0.02044 0.78462 0.0
H817 H 0.43959 0.97162 0.74437 0.0
H818 H 0.46346 0.96905 0.76867 0.0
H819 H 0.51505 0.96419 0.78093 0.0
H820 H 0.54198 0.96503 0.75917 0.0
H821 H 0.57929 0.02483 0.77919 0.0
H822 H 0.55241 0.02383 0.8012 0.0
H823 H 0.4996 0.99093 0.77474 0.0
H824 H 0.53061 0.97086 0.83363 0.0
H825 H 0.55585 0.97367 0.86023 0.0
H826 H 0.56304 0.02801 0.8854 0.0
H827 H 0.53832 0.02535 0.85852 0.0
C828 C 0.46863 0.99372 0.8425 0.0
C829 C 0.47269 0.00928 0.85721 0.0
C830 C 0.45839 0.0084 0.87191 0.0
C831 C 0.43975 0.99176 0.87258 0.0
C832 C 0.43545 0.97649 0.85712 0.0
C833 C 0.44978 0.97749 0.84216 0.0
C834 C 0.4846 0.99398 0.82899 0.0
C835 C 0.50054 0.99558 0.84117 0.0
C836 C 0.48426 0.99253 0.80467 0.0
C837 C 0.46908 0.99337 0.79059 0.0
C838 C 0.46436 0.00795 0.79461 0.0
C839 C 0.45046 0.0091 0.78113 0.0
C840 C 0.44145 0.9961 0.76286 0.0
C841 C 0.4464 0.98178 0.7584 0.0
C842 C 0.46001 0.98034 0.77227 0.0
C843 C 0.53182 0.99391 0.79274 0.0
C844 C 0.52906 0.97745 0.78065 0.0
C845 C 0.54441 0.97793 0.76831 0.0
C846 C 0.56266 0.99501 0.76748 0.0
C847 C 0.56532 0.01154 0.77941 0.0
C848 C 0.55005 0.01095 0.79206 0.0
C849 C 0.51552 0.99339 0.80569 0.0
C850 C 0.49957 0.99179 0.79339 0.0
C851 C 0.51612 0.99557 0.82986 0.0
C852 C 0.53268 0.99796 0.84402 0.0
C853 C 0.53794 0.98355 0.84456 0.0
C854 C 0.5522 0.98507 0.85993 0.0
C855 C 0.56143 1.00104 0.87497 0.0
C856 C 0.55644 0.01565 0.87387 0.0
C857 C 0.54222 0.01411 0.8586 0.0
H858 H 0.04438 0.54675 0.87115 0.0
H859 H 0.04049 0.56838 0.89771 0.0
H860 H 0.98504 0.5523 0.86669 0.0
H861 H 0.98874 0.5302 0.84066 0.0
H862 H 0.02198 0.50874 0.87041 0.0
H863 H 0.03853 0.56015 0.81797 0.0
H864 H 0.03561 0.58437 0.7957 0.0
H865 H 0.98824 0.53856 0.75711 0.0
H866 H 0.98989 0.51449 0.78121 0.0
H867 H 0.98707 0.46486 0.78888 0.0
H868 H 0.98389 0.43651 0.76857 0.0
H869 H 0.04034 0.44966 0.79384 0.0
H870 H 0.04326 0.47782 0.81439 0.0
H871 H 0.01331 0.50326 0.78572 0.0
H872 H 0.99256 0.45326 0.8436 0.0
H873 H 0.9928 0.4292 0.86958 0.0
H874 H 0.04849 0.47294 0.89629 0.0
H875 H 0.04842 0.49678 0.86977 0.0
C876 C 0.01688 0.53687 0.85386 0.0
C877 C 0.03148 0.54805 0.8699 0.0
C878 C 0.0293 0.56053 0.88497 0.0
C879 C 0.01241 0.56202 0.88439 0.0
C880 C 0.99812 0.55132 0.86776 0.0
C881 C 1.0003 0.53883 0.85269 0.0
C882 C 0.01817 0.52189 0.83993 0.0
C883 C 0.02049 0.50781 0.85181 0.0
C884 C 0.01569 0.52041 0.81568 0.0
C885 C 0.01419 0.53536 0.80173 0.0
C886 C 0.02716 0.55528 0.80514 0.0
C887 C 0.02572 0.5692 0.79195 0.0
C888 C 0.01169 0.5636 0.77439 0.0
C889 C 0.99897 0.54361 0.77072 0.0
C890 C 1.00009 0.52972 0.78434 0.0
C891 C 0.01532 0.47336 0.80332 0.0
C892 C 0.99881 0.46169 0.78991 0.0
C893 C 0.99705 0.44552 0.77824 0.0
C894 C 0.01183 0.44075 0.7796 0.0
C895 C 0.02853 0.45271 0.79272 0.0
C896 C 0.03026 0.46885 0.80444 0.0
C897 C 0.0167 0.49007 0.81633 0.0
C898 C 0.01497 0.50444 0.80428 0.0
C899 C 0.01965 0.49187 0.84043 0.0
C900 C 0.02054 0.4768 0.85461 0.0
C901 C 0.00502 0.45756 0.85469 0.0
C902 C 0.00508 0.44387 0.86972 0.0
C903 C 0.02062 0.44918 0.88511 0.0
C904 C 0.0364 0.46832 0.88452 0.0
C905 C 0.03632 0.482 0.86948 0.0
H906 H 0.44583 0.50086 0.85454 0.0
H907 H 0.42074 0.47819 0.88099 0.0
H908 H 0.44285 0.43864 0.87341 0.0
H909 H 0.46713 0.46098 0.84606 0.0
H910 H 0.487 0.51586 0.86388 0.0
H911 H 0.43909 0.48245 0.8052 0.0
H912 H 0.41457 0.45368 0.78491 0.0
H913 H 0.45815 0.4384 0.76775 0.0
H914 H 0.48271 0.46744 0.78787 0.0
H915 H 0.53539 0.52101 0.78648 0.0
H916 H 0.56414 0.54646 0.76663 0.0
H917 H 0.54672 0.58825 0.78466 0.0
H918 H 0.5184 0.56291 0.80488 0.0
H919 H 0.49601 0.50618 0.78132 0.0
H920 H 0.54336 0.53714 0.83959 0.0
H921 H 0.5677 0.56164 0.86519 0.0
H922 H 0.52622 0.57862 0.88634 0.0
H923 H 0.50203 0.55434 0.86031 0.0
C924 C 0.45824 0.48253 0.84833 0.0
C925 C 0.44497 0.48711 0.85831 0.0
C926 C 0.43076 0.47419 0.8736 0.0
C927 C 0.4298 0.45659 0.87963 0.0
C928 C 0.44284 0.45185 0.86899 0.0
C929 C 0.45684 0.46466 0.8534 0.0
C930 C 0.47473 0.49721 0.83447 0.0
C931 C 0.48879 0.51398 0.8457 0.0
C932 C 0.47741 0.49421 0.81107 0.0
C933 C 0.46267 0.47694 0.7983 0.0
C934 C 0.44334 0.47285 0.79716 0.0
C935 C 0.42933 0.45638 0.78557 0.0
C936 C 0.43435 0.44364 0.77484 0.0
C937 C 0.45383 0.448 0.77562 0.0
C938 C 0.46786 0.46454 0.7872 0.0
C939 C 0.52491 0.54013 0.79739 0.0
C940 C 0.53775 0.53565 0.78599 0.0
C941 C 0.55413 0.5502 0.77458 0.0
C942 C 0.55785 0.56946 0.7742 0.0
C943 C 0.54456 0.5737 0.78503 0.0
C944 C 0.5283 0.5592 0.79652 0.0
C945 C 0.50817 0.52509 0.81069 0.0
C946 C 0.49415 0.5082 0.79943 0.0
C947 C 0.50562 0.5278 0.83424 0.0
C948 C 0.52092 0.54399 0.84793 0.0
C949 C 0.53964 0.54642 0.84935 0.0
C950 C 0.55346 0.56028 0.86416 0.0
C951 C 0.54882 0.57197 0.87787 0.0
C952 C 0.53027 0.56995 0.87585 0.0
C953 C 0.51642 0.55602 0.8611 0.0
H954 H 0.61889 0.84084 0.5124 0.0
H955 H 0.6177 0.86393 0.48568 0.0
H956 H 0.68066 0.89727 0.48545 0.0
H957 H 0.68143 0.87491 0.51349 0.0
H958 H 0.64507 0.82306 0.49929 0.0
H959 H 0.63121 0.85823 0.55549 0.0
H960 H 0.63533 0.88615 0.57726 0.0
H961 H 0.69007 0.89509 0.60365 0.0
H962 H 0.68649 0.86794 0.58036 0.0
H963 H 0.68639 0.81769 0.57846 0.0
H964 H 0.68963 0.79284 0.59952 0.0
H965 H 0.63179 0.74956 0.57802 0.0
H966 H 0.62879 0.7744 0.55676 0.0
H967 H 0.66168 0.8312 0.58238 0.0
H968 H 0.67925 0.80115 0.52336 0.0
H969 H 0.67918 0.77703 0.49716 0.0
H970 H 0.62075 0.76023 0.47601 0.0
H971 H 0.62081 0.78423 0.50248 0.0
C972 C 0.65023 0.85637 0.51505 0.0
C973 C 0.63236 0.85343 0.50693 0.0
C974 C 0.63176 0.86654 0.4914 0.0
C975 C 0.64908 0.88251 0.48307 0.0
C976 C 0.66696 0.88549 0.49169 0.0
C977 C 0.66749 0.87263 0.50767 0.0
C978 C 0.65103 0.84129 0.52904 0.0
C979 C 0.64832 0.82461 0.51759 0.0
C980 C 0.65609 0.84391 0.55264 0.0
C981 C 0.65872 0.86114 0.56581 0.0
C982 C 0.64436 0.86648 0.56544 0.0
C983 C 0.64657 0.8823 0.57834 0.0
C984 C 0.66302 0.89294 0.59238 0.0
C985 C 0.67736 0.8875 0.5928 0.0
C986 C 0.67524 0.87181 0.57964 0.0
C987 C 0.65744 0.79787 0.56582 0.0
C988 C 0.67439 0.80285 0.57837 0.0
C989 C 0.67619 0.78864 0.59048 0.0
C990 C 0.661 0.76918 0.59039 0.0
C991 C 0.64391 0.76433 0.57811 0.0
C992 C 0.64215 0.77852 0.56598 0.0
C993 C 0.65566 0.81286 0.55262 0.0
C994 C 0.65828 0.82956 0.56414 0.0
C995 C 0.65085 0.81049 0.52893 0.0
C996 C 0.64999 0.79442 0.51499 0.0
C997 C 0.66628 0.79201 0.51344 0.0
C998 C 0.66629 0.77834 0.49831 0.0
C999 C 0.65 0.7668 0.48443 0.0
C1000 C 0.63346 0.76878 0.4866 0.0
C1001 C 0.6335 0.78255 0.50163 0.0
H1002 H 0.13867 0.77302 0.53446 0.0
H1003 H 0.11457 0.74894 0.50819 0.0
H1004 H 0.1166 0.79536 0.46731 0.0
H1005 H 0.1395 0.81903 0.49429 0.0
H1006 H 0.17447 0.82758 0.50223 0.0
H1007 H 0.15176 0.78565 0.58532 0.0
H1008 H 0.12336 0.7626 0.60794 0.0
H1009 H 0.08942 0.78525 0.57703 0.0
H1010 H 0.11781 0.80806 0.55413 0.0
H1011 H 0.17786 0.86728 0.58437 0.0
H1012 H 0.20058 0.89443 0.60824 0.0
H1013 H 0.2469 0.884 0.58774 0.0
H1014 H 0.22409 0.85726 0.56315 0.0
H1015 H 0.1672 0.82886 0.58689 0.0
H1016 H 0.19809 0.88186 0.5337 0.0
H1017 H 0.22123 0.90736 0.50812 0.0
H1018 H 0.23467 0.86633 0.47644 0.0
H1019 H 0.21223 0.84115 0.50288 0.0
C1020 C 0.14081 0.79787 0.51651 0.0
C1021 C 0.13354 0.77794 0.52016 0.0
C1022 C 0.11995 0.76419 0.50491 0.0
C1023 C 0.11354 0.77013 0.48558 0.0
C1024 C 0.1208 0.79012 0.48219 0.0
C1025 C 0.13413 0.80376 0.49752 0.0
C1026 C 0.15622 0.81286 0.53143 0.0
C1027 C 0.17298 0.82777 0.5208 0.0
C1028 C 0.1543 0.81315 0.5556 0.0
C1029 C 0.13679 0.79841 0.56799 0.0
C1030 C 0.13813 0.78548 0.58326 0.0
C1031 C 0.12193 0.77233 0.59611 0.0
C1032 C 0.10424 0.77221 0.59426 0.0
C1033 C 0.10293 0.78514 0.57887 0.0
C1034 C 0.11905 0.79806 0.56571 0.0
C1035 C 0.1993 0.8603 0.57196 0.0
C1036 C 0.19292 0.87086 0.58504 0.0
C1037 C 0.20593 0.88632 0.59882 0.0
C1038 C 0.22561 0.89141 0.60009 0.0
C1039 C 0.23194 0.88071 0.58697 0.0
C1040 C 0.21892 0.86535 0.57297 0.0
C1041 C 0.18523 0.84385 0.55758 0.0
C1042 C 0.16887 0.82853 0.56837 0.0
C1043 C 0.18742 0.84339 0.53344 0.0
C1044 C 0.20351 0.85958 0.5204 0.0
C1045 C 0.20649 0.87849 0.5218 0.0
C1046 C 0.21954 0.89301 0.50688 0.0
C1047 C 0.22968 0.88887 0.48999 0.0
C1048 C 0.22729 0.87013 0.48933 0.0
C1049 C 0.21435 0.85565 0.50436 0.0
H1050 H 0.13441 0.30726 0.50318 0.0
H1051 H 0.10946 0.30576 0.47765 0.0
H1052 H 0.11543 0.35774 0.50905 0.0
H1053 H 0.14106 0.35952 0.53416 0.0
H1054 H 0.17093 0.33448 0.50287 0.0
H1055 H 0.12091 0.30617 0.55941 0.0
H1056 H 0.09386 0.30183 0.58374 0.0
H1057 H 0.13047 0.35855 0.61348 0.0
H1058 H 0.15754 0.36286 0.58894 0.0
H1059 H 0.21321 0.3643 0.58922 0.0
H1060 H 0.23968 0.36362 0.61039 0.0
H1061 H 0.22724 0.31103 0.57492 0.0
H1062 H 0.20022 0.31101 0.55486 0.0
H1063 H 0.17482 0.33959 0.58803 0.0
H1064 H 0.22379 0.36629 0.52041 0.0
H1065 H 0.24554 0.36501 0.49129 0.0
H1066 H 0.20651 0.3031 0.48442 0.0
H1067 H 0.18448 0.30487 0.51222 0.0
C1068 C 0.13963 0.3335 0.52058 0.0
C1069 C 0.13025 0.31825 0.50473 0.0
C1070 C 0.11584 0.31733 0.49024 0.0
C1071 C 0.11043 0.33164 0.49126 0.0
C1072 C 0.11941 0.34661 0.50766 0.0
C1073 C 0.1339 0.34753 0.52219 0.0
C1074 C 0.15648 0.33546 0.53383 0.0
C1075 C 0.1717 0.33555 0.52152 0.0
C1076 C 0.15767 0.33707 0.5581 0.0
C1077 C 0.14116 0.33491 0.57223 0.0
C1078 C 0.12306 0.31775 0.57101 0.0
C1079 C 0.10769 0.31522 0.58505 0.0
C1080 C 0.1101 0.32983 0.60055 0.0
C1081 C 0.12818 0.34711 0.60158 0.0
C1082 C 0.14364 0.34956 0.58766 0.0
C1083 C 0.2051 0.33805 0.56986 0.0
C1084 C 0.21612 0.35257 0.58608 0.0
C1085 C 0.23117 0.3522 0.59814 0.0
C1086 C 0.23546 0.33739 0.59396 0.0
C1087 C 0.22427 0.32271 0.57811 0.0
C1088 C 0.20903 0.32286 0.56644 0.0
C1089 C 0.18912 0.33834 0.55701 0.0
C1090 C 0.17417 0.3389 0.56937 0.0
C1091 C 0.18782 0.33676 0.53275 0.0
C1092 C 0.20258 0.33567 0.51834 0.0
C1093 C 0.22016 0.35245 0.51276 0.0
C1094 C 0.23259 0.35166 0.4962 0.0
C1095 C 0.22764 0.334 0.48515 0.0
C1096 C 0.21054 0.31706 0.49199 0.0
C1097 C 0.198 0.31796 0.50807 0.0
H1098 H 0.0188 0.4028 0.07685 0.0
H1099 H 0.95729 0.36146 0.0799 0.0
H1100 H 0.95357 0.37976 0.11144 0.0
H1101 H 0.96781 0.40781 0.13778 0.0
H1102 H 0.02934 0.44914 0.13414 0.0
H1103 H 0.03307 0.43031 0.1035 0.0
C1104 C 0.00457 0.39779 0.0844 0.0
C1105 C 0.98833 0.38088 0.07599 0.0
C1106 C 0.00257 0.4083 0.10254 0.0
C1107 C 0.97001 0.37448 0.08605 0.0
C1108 C 0.96788 0.38493 0.10408 0.0
C1109 C 0.98202 0.4127 0.13024 0.0
C1110 C 0.99827 0.42984 0.1383 0.0
C1111 C 0.98405 0.4019 0.1124 0.0
C1112 C 0.01663 0.43585 0.12854 0.0
C1113 C 0.01877 0.42519 0.11086 0.0
H1114 H 0.60116 0.62407 0.07048 0.0
H1115 H 0.64508 0.60752 0.07476 0.0
H1116 H 0.6279 0.58615 0.10743 0.0
H1117 H 0.5997 0.57144 0.13394 0.0
H1118 H 0.55556 0.58771 0.12802 0.0
H1119 H 0.57376 0.61018 0.09712 0.0
C1120 C 0.60706 0.61585 0.07859 0.0
C1121 C 0.62432 0.6173 0.07015 0.0
C1122 C 0.59709 0.6036 0.09716 0.0
C1123 C 0.63179 0.60662 0.08093 0.0
C1124 C 0.62196 0.5944 0.09958 0.0
C1125 C 0.59406 0.57988 0.12586 0.0
C1126 C 0.57629 0.57789 0.13347 0.0
C1127 C 0.60447 0.59263 0.1077 0.0
C1128 C 0.56934 0.58915 0.12293 0.0
C1129 C 0.57965 0.60191 0.10506 0.0
H1130 H 0.38438 0.97708 0.07197 0.0
H1131 H 0.3976 0.03629 0.08084 0.0
H1132 H 0.41842 0.03994 0.11382 0.0
H1133 H 0.43375 0.02646 0.13919 0.0
H1134 H 0.42068 0.96736 0.12887 0.0
H1135 H 0.39868 0.96346 0.09763 0.0
C1136 C 0.39173 0.99079 0.08116 0.0
C1137 C 0.38954 0.00643 0.07391 0.0
C1138 C 0.40367 0.99278 0.0999 0.0
C1139 C 0.39908 0.02404 0.08609 0.0
C1140 C 0.41101 0.02613 0.1049 0.0
C1141 C 0.42609 0.01275 0.13009 0.0
C1142 C 0.42885 0.99721 0.13651 0.0
C1143 C 0.41358 0.01064 0.1118 0.0
C1144 C 0.41862 0.97946 0.12465 0.0
C1145 C 0.40614 0.97725 0.10661 0.0
H1146 H 0.37047 0.98108 0.93719 0.0
H1147 H 0.41835 0.01004 0.9847 0.0
H1148 H 0.44074 0.01043 0.9558 0.0
H1149 H 0.44702 0.00329 0.91711 0.0
H1150 H 0.40012 0.97608 0.86811 0.0
H1151 H 0.37703 0.97393 0.89759 0.0
C1152 C 0.38578 0.98734 0.94118 0.0
C1153 C 0.39274 0.99554 0.96303 0.0
C1154 C 0.39876 0.98785 0.92424 0.0
C1155 C 0.41263 0.00372 0.96797 0.0
C1156 C 0.42547 0.00395 0.95147 0.0
C1157 C 0.4318 0.99712 0.91269 0.0
C1158 C 0.42541 0.99008 0.89031 0.0
C1159 C 0.41874 0.99626 0.92951 0.0
C1160 C 0.40547 0.98156 0.88521 0.0
C1161 C 0.39227 0.98041 0.90204 0.0
H1162 H 0.03058 0.39701 0.96026 0.0
H1163 H 0.97018 0.37906 0.97164 0.0
H1164 H 0.97136 0.40021 0.94064 0.0
H1165 H 0.98957 0.42446 0.91107 0.0
H1166 H 0.04994 0.4428 0.89909 0.0
H1167 H 0.04878 0.421 0.92959 0.0
C1168 C 0.0177 0.39772 0.95589 0.0
C1169 C 1.00034 0.38649 0.9683 0.0
C1170 C 0.01846 0.41002 0.93797 0.0
C1171 C 0.98375 0.38756 0.96242 0.0
C1172 C 0.98438 0.39965 0.94467 0.0
C1173 C 0.00241 0.42348 0.91485 0.0
C1174 C 0.01978 0.4352 0.90273 0.0
C1175 C 1.00165 0.41099 0.9324 0.0
C1176 C 0.0364 0.43404 0.90827 0.0
C1177 C 0.03573 0.42154 0.92566 0.0
H1178 H 0.60337 0.63673 0.94896 0.0
H1179 H 0.61504 0.59133 0.96895 0.0
H1180 H 0.59317 0.57018 0.93901 0.0
H1181 H 0.57041 0.56435 0.90756 0.0
H1182 H 0.55836 0.60942 0.88742 0.0
H1183 H 0.5806 0.6309 0.91709 0.0
C1184 C 0.6011 0.62221 0.94675 0.0
C1185 C 0.6108 0.61561 0.96116 0.0
C1186 C 0.58845 0.61007 0.92949 0.0
C1187 C 0.60773 0.59675 0.9581 0.0
C1188 C 0.59524 0.58465 0.94097 0.0
C1189 C 0.57284 0.57897 0.90946 0.0
C1190 C 0.56284 0.58533 0.89524 0.0
C1191 C 0.58553 0.59115 0.92658 0.0
C1192 C 0.56582 0.60416 0.89825 0.0
C1193 C 0.57856 0.61645 0.91516 0.0
H1194 H 0.98603 0.59764 0.96425 0.0
H1195 H 0.04571 0.64374 0.95841 0.0
H1196 H 0.05094 0.62645 0.92682 0.0
H1197 H 0.03858 0.59791 0.90127 0.0
H1198 H 0.97886 0.55189 0.90774 0.0
H1199 H 0.97355 0.56966 0.93838 0.0
C1200 C 1.0002 0.60392 0.95608 0.0
C1201 C 0.01549 0.62189 0.96374 0.0
C1202 C 0.00305 0.59398 0.93792 0.0
C1203 C 0.03371 0.6299 0.95285 0.0
C1204 C 0.0367 0.62003 0.9348 0.0
C1205 C 0.02442 0.59176 0.90942 0.0
C1206 C 0.00914 0.57359 0.90213 0.0
C1207 C 0.02149 0.602 0.92726 0.0
C1208 C 0.99081 0.56596 0.91271 0.0
C1209 C 0.98779 0.57604 0.93039 0.0
H1210 H 0.38008 0.4151 0.96865 0.0
H1211 H 0.37443 0.36478 0.93348 0.0
H1212 H 0.39197 0.38483 0.90026 0.0
H1213 H 0.4104 0.41686 0.88209 0.0
H1214 H 0.4187 0.46764 0.91894 0.0
H1215 H 0.39827 0.44718 0.95019 0.0
C1216 C 0.38249 0.40852 0.95358 0.0
C1217 C 0.37598 0.38852 0.95348 0.0
C1218 C 0.39308 0.42022 0.93479 0.0
C1219 C 0.37936 0.38018 0.93396 0.0
C1220 C 0.3894 0.39163 0.91498 0.0
C1221 C 0.40787 0.42352 0.89698 0.0
C1222 C 0.41619 0.44385 0.89798 0.0
C1223 C 0.39664 0.41173 0.91537 0.0
C1224 C 0.4123 0.45206 0.91733 0.0
C1225 C 0.40074 0.44037 0.93541 0.0
H1226 H 0.62533 0.02164 0.9511 0.0
H1227 H 0.58953 0.96047 0.96566 0.0
H1228 H 0.56814 0.95707 0.93346 0.0
H1229 H 0.55899 0.97192 0.90217 0.0
H1230 H 0.59566 0.03299 0.88733 0.0
H1231 H 0.61736 0.03598 0.9187 0.0
C1232 C 0.61284 0.00755 0.94725 0.0
C1233 C 0.60889 0.99137 0.96085 0.0
C1234 C 0.60078 0.0057 0.92867 0.0
C1235 C 0.59281 0.97316 0.95547 0.0
C1236 C 0.5806 0.97122 0.93707 0.0
C1237 C 0.57191 0.9858 0.90555 0.0
C1238 C 0.57559 0.00224 0.89252 0.0
C1239 C 0.58438 0.98743 0.92364 0.0
C1240 C 0.59229 0.02018 0.89732 0.0
C1241 C 0.60475 0.0219 0.91521 0.0
H1242 H 0.61439 0.98486 0.0886 0.0
H1243 H 0.62207 0.03653 0.05496 0.0
H1244 H 0.60242 0.04039 0.08483 0.0
H1245 H 0.58128 0.02768 0.11895 0.0
H1246 H 0.57637 0.97762 0.15441 0.0
H1247 H 0.5965 0.97443 0.12517 0.0
C1248 C 0.61186 0.99705 0.08793 0.0
C1249 C 0.61945 0.01029 0.06955 0.0
C1250 C 0.60087 0.99934 0.10532 0.0
C1251 C 0.61635 0.02617 0.06899 0.0
C1252 C 0.60506 0.02832 0.086 0.0
C1253 C 0.5849 0.0163 0.12069 0.0
C1254 C 0.57681 0.00267 0.1388 0.0
C1255 C 0.59702 0.01482 0.10409 0.0
C1256 C 0.58171 0.98797 0.14037 0.0
C1257 C 0.59342 0.9862 0.12372 0.0
H1258 H 0.02718 0.62873 0.08245 0.0
H1259 H 0.96501 0.59839 0.07286 0.0
H1260 H 0.96092 0.57662 0.10492 0.0
H1261 H 0.97536 0.565 0.134 0.0
H1262 H 0.03758 0.59616 0.1438 0.0
H1263 H 0.04129 0.61885 0.11332 0.0
C1264 C 0.01272 0.6174 0.08744 0.0
C1265 C 0.99643 0.61502 0.07519 0.0
C1266 C 0.0105 0.60506 0.10586 0.0
C1267 C 0.97777 0.60045 0.082 0.0
C1268 C 0.97544 0.588 0.1003 0.0
C1269 C 0.98969 0.57697 0.12977 0.0
C1270 C 0.00619 0.57872 0.141 0.0
C1271 C 0.99174 0.59002 0.11217 0.0
C1272 C 0.02467 0.59425 0.13514 0.0
C1273 C 0.02682 0.60727 0.11775 0.0
H1274 H 0.39017 0.41144 0.06131 0.0
H1275 H 0.39984 0.36363 0.07458 0.0
H1276 H 0.4216 0.38169 0.1065 0.0
H1277 H 0.43771 0.41113 0.1308 0.0
H1278 H 0.42736 0.45853 0.11733 0.0
H1279 H 0.40582 0.44044 0.08557 0.0
C1280 C 0.39709 0.40498 0.07112 0.0
C1281 C 0.39349 0.38627 0.06551 0.0
C1282 C 0.40934 0.41532 0.08955 0.0
C1283 C 0.40243 0.37804 0.07852 0.0
C1284 C 0.41485 0.38835 0.09679 0.0
C1285 C 0.43077 0.4175 0.12085 0.0
C1286 C 0.43409 0.43613 0.12654 0.0
C1287 C 0.41839 0.40701 0.10249 0.0
C1288 C 0.42484 0.4441 0.1136 0.0
C1289 C 0.41262 0.43383 0.0953 0.0
H1290 H 0.63992 0.70297 0.41176 0.0
H1291 H 0.69686 0.74914 0.39173 0.0
H1292 H 0.69614 0.76969 0.42238 0.0
H1293 H 0.67925 0.77491 0.45442 0.0
H1294 H 0.62211 0.72932 0.47445 0.0
H1295 H 0.62294 0.70825 0.44425 0.0
C1296 C 0.65216 0.71752 0.41414 0.0
C1297 C 0.66841 0.7245 0.39946 0.0
C1298 C 0.65161 0.72939 0.43179 0.0
C1299 C 0.68414 0.74341 0.40274 0.0
C1300 C 0.68377 0.75519 0.42029 0.0
C1301 C 0.66708 0.76027 0.45238 0.0
C1302 C 0.6507 0.75365 0.46675 0.0
C1303 C 0.66759 0.74835 0.43489 0.0
C1304 C 0.63486 0.73479 0.46354 0.0
C1305 C 0.63535 0.72273 0.44631 0.0
H1306 H 0.26526 0.9503 0.40942 0.0
H1307 H 0.30878 0.9331 0.41102 0.0
H1308 H 0.29196 0.91126 0.44341 0.0
H1309 H 0.26444 0.89664 0.47082 0.0
H1310 H 0.22074 0.91366 0.46798 0.0
H1311 H 0.23831 0.93625 0.43688 0.0
C1312 C 0.27111 0.9418 0.41685 0.0
C1313 C 0.2882 0.94326 0.40776 0.0
C1314 C 0.26139 0.92933 0.43539 0.0
C1315 C 0.29561 0.9322 0.41767 0.0
C1316 C 0.286 0.91972 0.43619 0.0
C1317 C 0.25874 0.90526 0.46337 0.0
C1318 C 0.24129 0.90346 0.47192 0.0
C1319 C 0.2688 0.91808 0.44511 0.0
C1320 C 0.23429 0.91495 0.46216 0.0
C1321 C 0.24424 0.92777 0.44417 0.0
H1322 H 0.04734 0.31514 0.41527 0.0
H1323 H 0.0813 0.37743 0.4082 0.0
H1324 H 0.10237 0.37898 0.43987 0.0
H1325 H 0.11194 0.36234 0.46831 0.0
H1326 H 0.0769 0.3001 0.47612 0.0
H1327 H 0.05545 0.29885 0.44538 0.0
C1328 C 0.05935 0.32907 0.42067 0.0
C1329 C 0.06292 0.34613 0.40929 0.0
C1330 C 0.07121 0.32985 0.43899 0.0
C1331 C 0.07834 0.36409 0.41667 0.0
C1332 C 0.09037 0.36498 0.43476 0.0
C1333 C 0.09941 0.34854 0.4636 0.0
C1334 C 0.09619 0.33131 0.47439 0.0
C1335 C 0.08702 0.34792 0.44594 0.0
C1336 C 0.07996 0.31355 0.46783 0.0
C1337 C 0.06763 0.31281 0.4503 0.0
H1338 H 0.0423 0.30854 0.29375 0.0
H1339 H 0.07439 0.37121 0.29618 0.0
H1340 H 0.0937 0.37223 0.26308 0.0
H1341 H 0.10251 0.35559 0.2345 0.0
H1342 H 0.07256 0.29294 0.23323 0.0
H1343 H 0.05103 0.29167 0.26418 0.0
C1344 C 0.05346 0.32238 0.28691 0.0
C1345 C 0.05697 0.33976 0.29751 0.0
C1346 C 0.06484 0.3229 0.26797 0.0
C1347 C 0.07149 0.3576 0.28849 0.0
C1348 C 0.08253 0.35823 0.2695 0.0
C1349 C 0.09137 0.34161 0.24104 0.0
C1350 C 0.08937 0.32441 0.23163 0.0
C1351 C 0.07951 0.34099 0.25931 0.0
C1352 C 0.07441 0.30645 0.23995 0.0
C1353 C 0.06219 0.30571 0.25784 0.0
H1354 H 0.65218 0.71781 0.28609 0.0
H1355 H 0.71309 0.73529 0.28602 0.0
H1356 H 0.71876 0.75725 0.25367 0.0
H1357 H 0.70655 0.7724 0.22646 0.0
H1358 H 0.64574 0.75547 0.22782 0.0
H1359 H 0.63985 0.73208 0.25825 0.0
C1360 C 0.66669 0.72635 0.27893 0.0
C1361 C 0.68221 0.72501 0.28851 0.0
C1362 C 0.66985 0.73898 0.26048 0.0
C1363 C 0.7009 0.73611 0.27898 0.0
C1364 C 0.70415 0.74867 0.2605 0.0
C1365 C 0.69202 0.76361 0.23342 0.0
C1366 C 0.67664 0.76575 0.2248 0.0
C1367 C 0.68876 0.75039 0.25129 0.0
C1368 C 0.65782 0.75398 0.23381 0.0
C1369 C 0.65445 0.7407 0.2514 0.0
H1370 H 0.25477 0.93836 0.31223 0.0
H1371 H 0.30335 0.97621 0.26897 0.0
H1372 H 0.28419 0.96015 0.23455 0.0
H1373 H 0.25374 0.9344 0.21683 0.0
H1374 H 0.20513 0.89753 0.26063 0.0
H1375 H 0.22413 0.91413 0.29473 0.0
C1376 C 0.26113 0.94317 0.29526 0.0
C1377 C 0.28045 0.95836 0.29312 0.0
C1378 C 0.25002 0.93399 0.27564 0.0
C1379 C 0.28846 0.96455 0.27104 0.0
C1380 C 0.27755 0.95533 0.25137 0.0
C1381 C 0.24738 0.9301 0.23387 0.0
C1382 C 0.2281 0.91481 0.23626 0.0
C1383 C 0.25835 0.93988 0.25346 0.0
C1384 C 0.2199 0.9094 0.25838 0.0
C1385 C 0.23077 0.91882 0.27788 0.0
H1386 H 0.65508 0.93109 0.29628 0.0
H1387 H 0.71504 0.97687 0.29256 0.0
H1388 H 0.72064 0.96027 0.26046 0.0
H1389 H 0.7083 0.93268 0.23338 0.0
H1390 H 0.64822 0.88709 0.2377 0.0
H1391 H 0.6428 0.90389 0.26938 0.0
C1392 C 0.66941 0.93743 0.28851 0.0
C1393 C 0.68465 0.95513 0.29684 0.0
C1394 C 0.67244 0.92793 0.27002 0.0
C1395 C 0.70308 0.96322 0.28648 0.0
C1396 C 0.70627 0.95375 0.26812 0.0
C1397 C 0.69405 0.92641 0.24132 0.0
C1398 C 0.67868 0.90869 0.23306 0.0
C1399 C 0.69104 0.93609 0.25974 0.0
C1400 C 0.66023 0.90086 0.2434 0.0
C1401 C 0.65715 0.91037 0.26167 0.0
H1402 H 0.03696 0.73855 0.28512 0.0
H1403 H 0.07009 0.70935 0.29188 0.0
H1404 H 0.09141 0.72873 0.26057 0.0
H1405 H 0.10158 0.75481 0.2324 0.0
H1406 H 0.0699 0.78552 0.22649 0.0
H1407 H 0.04683 0.76442 0.2558 0.0
C1408 C 0.04878 0.73639 0.2796 0.0
C1409 C 0.052 0.72262 0.2909 0.0
C1410 C 0.06121 0.7478 0.26166 0.0
C1411 C 0.06736 0.71995 0.28359 0.0
C1412 C 0.07957 0.73101 0.26565 0.0
C1413 C 0.08968 0.75697 0.23756 0.0
C1414 C 0.08761 0.77185 0.22736 0.0
C1415 C 0.07679 0.74513 0.25478 0.0
C1416 C 0.07179 0.77409 0.23389 0.0
C1417 C 0.05867 0.76212 0.25081 0.0
H1418 H 0.28486 0.31707 0.27245 0.0
H1419 H 0.26548 0.34343 0.32303 0.0
H1420 H 0.24147 0.34231 0.29616 0.0
H1421 H 0.22649 0.33469 0.25835 0.0
H1422 H 0.2471 0.31087 0.20596 0.0
H1423 H 0.26974 0.30971 0.23357 0.0
C1424 C 0.27526 0.32242 0.27753 0.0
C1425 C 0.27693 0.33034 0.29964 0.0
C1426 C 0.2617 0.32218 0.26171 0.0
C1427 C 0.26454 0.33738 0.30604 0.0
C1428 C 0.25079 0.33673 0.29071 0.0
C1429 C 0.23611 0.3295 0.25275 0.0
C1430 C 0.23518 0.3231 0.22996 0.0
C1431 C 0.2494 0.32939 0.26845 0.0
C1432 C 0.24736 0.3158 0.2234 0.0
C1433 C 0.26042 0.31525 0.23916 0.0
H1434 H 0.26274 0.32016 0.39452 0.0
H1435 H 0.31661 0.36348 0.42513 0.0
H1436 H 0.29867 0.36546 0.45856 0.0
H1437 H 0.26742 0.35433 0.47911 0.0
H1438 H 0.21389 0.31247 0.44604 0.0
H1439 H 0.23205 0.31029 0.41375 0.0
C1440 C 0.27062 0.33002 0.40853 0.0
C1441 C 0.29096 0.34154 0.40748 0.0
C1442 C 0.26026 0.33124 0.42734 0.0
C1443 C 0.30092 0.35443 0.4256 0.0
C1444 C 0.29067 0.35554 0.44469 0.0
C1445 C 0.25973 0.34484 0.46477 0.0
C1446 C 0.23926 0.33329 0.46538 0.0
C1447 C 0.27029 0.34396 0.44575 0.0
C1448 C 0.2296 0.32107 0.44656 0.0
C1449 C 0.23997 0.31994 0.42788 0.0
H1450 H 0.63909 0.92433 0.39549 0.0
H1451 H 0.69249 0.97171 0.42215 0.0
H1452 H 0.69049 0.95217 0.4556 0.0
H1453 H 0.67423 0.9214 0.47654 0.0
H1454 H 0.62294 0.8726 0.44746 0.0
H1455 H 0.62312 0.89306 0.41625 0.0
C1456 C 0.65016 0.93036 0.40875 0.0
C1457 C 0.66588 0.94938 0.40645 0.0
C1458 C 0.64925 0.91882 0.42759 0.0
C1459 C 0.6803 0.95703 0.42355 0.0
C1460 C 0.67915 0.94589 0.44268 0.0
C1461 C 0.66317 0.91507 0.4633 0.0
C1462 C 0.64861 0.89536 0.4646 0.0
C1463 C 0.66383 0.92668 0.44473 0.0
C1464 C 0.63416 0.88776 0.44741 0.0
C1465 C 0.63435 0.89941 0.42929 0.0
H1466 H 0.06655 0.70653 0.4094 0.0
H1467 H 0.0411 0.74291 0.40029 0.0
H1468 H 0.06003 0.7632 0.43248 0.0
H1469 H 0.08435 0.77124 0.46242 0.0
H1470 H 0.11202 0.73674 0.47003 0.0
H1471 H 0.09128 0.71479 0.4398 0.0
C1472 C 0.06514 0.71887 0.41456 0.0
C1473 C 0.05251 0.72326 0.40242 0.0
C1474 C 0.07635 0.73075 0.43292 0.0
C1475 C 0.05083 0.7393 0.40923 0.0
C1476 C 0.06161 0.75089 0.42769 0.0
C1477 C 0.08603 0.75904 0.45739 0.0
C1478 C 0.0999 0.75582 0.46846 0.0
C1479 C 0.07455 0.74688 0.43949 0.0
C1480 C 0.10137 0.73953 0.46205 0.0
C1481 C 0.08962 0.72705 0.44458 0.0
H1482 H 0.35553 0.07361 0.73544 0.0
H1483 H 0.29581 0.02815 0.74361 0.0
H1484 H 0.29192 0.0458 0.77582 0.0
H1485 H 0.30563 0.07423 0.80167 0.0
H1486 H 0.36523 0.11988 0.79235 0.0
H1487 H 0.36909 0.10186 0.7609 0.0
C1488 C 0.34164 0.06754 0.74424 0.0
C1489 C 0.32597 0.04961 0.73712 0.0
C1490 C 0.33954 0.07774 0.76268 0.0
C1491 C 0.30809 0.04195 0.74873 0.0
C1492 C 0.30587 0.05203 0.76717 0.0
C1493 C 0.31943 0.08029 0.79268 0.0
C1494 C 0.33514 0.09838 0.79956 0.0
C1495 C 0.32151 0.06996 0.77428 0.0
C1496 C 0.35299 0.10586 0.78783 0.0
C1497 C 0.35518 0.09564 0.76965 0.0
H1498 H 0.93003 0.2794 0.73441 0.0
H1499 H 0.97754 0.26842 0.7433 0.0
H1500 H 0.95987 0.24561 0.77456 0.0
H1501 H 0.93075 0.22872 0.79934 0.0
H1502 H 0.88359 0.24025 0.79031 0.0
H1503 H 0.90139 0.26306 0.75934 0.0
C1504 C 0.93652 0.27199 0.74316 0.0
C1505 C 0.95502 0.27551 0.73649 0.0
C1506 C 0.92638 0.25907 0.76119 0.0
C1507 C 0.96329 0.26592 0.7481 0.0
C1508 C 0.9532 0.25289 0.76597 0.0
C1509 C 0.92438 0.2362 0.79052 0.0
C1510 C 0.9059 0.23283 0.7972 0.0
C1511 C 0.9347 0.24933 0.77265 0.0
C1512 C 0.8979 0.24278 0.78576 0.0
C1513 C 0.90801 0.25573 0.76793 0.0
H1514 H 0.72768 0.65341 0.73009 0.0
H1515 H 0.71852 0.69649 0.76372 0.0
H1516 H 0.73912 0.69782 0.7959 0.0
H1517 H 0.7596 0.68642 0.81443 0.0
H1518 H 0.77018 0.645 0.77856 0.0
H1519 H 0.74888 0.64313 0.74757 0.0
C1520 C 0.73012 0.66306 0.7445 0.0
C1521 C 0.72152 0.67474 0.74463 0.0
C1522 C 0.74215 0.66394 0.76263 0.0
C1523 C 0.725 0.68734 0.76326 0.0
C1524 C 0.73675 0.68808 0.78165 0.0
C1525 C 0.75739 0.67711 0.79977 0.0
C1526 C 0.76632 0.66563 0.79919 0.0
C1527 C 0.74543 0.67644 0.7815 0.0
C1528 C 0.76312 0.65358 0.77998 0.0
C1529 C 0.75106 0.65262 0.76204 0.0
H1530 H 0.70296 0.65382 0.6128 0.0
H1531 H 0.75045 0.6873 0.65944 0.0
H1532 H 0.77348 0.68739 0.6316 0.0
H1533 H 0.78019 0.67805 0.59435 0.0
H1534 H 0.7335 0.64702 0.5458 0.0
H1535 H 0.71007 0.64549 0.57424 0.0
C1536 C 0.71835 0.66107 0.61681 0.0
C1537 C 0.72502 0.67051 0.63811 0.0
C1538 C 0.73164 0.66144 0.60046 0.0
C1539 C 0.74499 0.68 0.64309 0.0
C1540 C 0.75817 0.68004 0.62722 0.0
C1541 C 0.76496 0.67124 0.58969 0.0
C1542 C 0.75874 0.66277 0.5678 0.0
C1543 C 0.75167 0.6709 0.60583 0.0
C1544 C 0.73877 0.65349 0.56256 0.0
C1545 C 0.72534 0.65272 0.57878 0.0
H1546 H 0.31469 0.05202 0.62918 0.0
H1547 H 0.37542 0.06897 0.62621 0.0
H1548 H 0.38047 0.09151 0.5947 0.0
H1549 H 0.3675 0.10643 0.56808 0.0
H1550 H 0.30679 0.08964 0.5722 0.0
H1551 H 0.30184 0.06678 0.6029 0.0
C1552 C 0.32905 0.06064 0.62165 0.0
C1553 C 0.34466 0.05886 0.63004 0.0
C1554 C 0.33182 0.0735 0.60363 0.0
C1555 C 0.36316 0.07011 0.62007 0.0
C1556 C 0.36605 0.08298 0.60205 0.0
C1557 C 0.35321 0.09784 0.57577 0.0
C1558 C 0.33753 0.0997 0.56767 0.0
C1559 C 0.35048 0.08483 0.59372 0.0
C1560 C 0.31906 0.08827 0.57771 0.0
C1561 C 0.31623 0.07529 0.59544 0.0
H1562 H 0.92785 0.29075 0.63255 0.0
H1563 H 0.97377 0.27972 0.61274 0.0
H1564 H 0.9548 0.2609 0.57966 0.0
H1565 H 0.9248 0.24654 0.55721 0.0
H1566 H 0.87754 0.255 0.57873 0.0
H1567 H 0.89757 0.27624 0.60975 0.0
C1568 C 0.93372 0.28434 0.62085 0.0
C1569 C 0.95215 0.28659 0.62508 0.0
C1570 C 0.92252 0.27312 0.60209 0.0
C1571 C 0.95956 0.27811 0.60991 0.0
C1572 C 0.94873 0.26736 0.59097 0.0
C1573 C 0.91875 0.25286 0.56875 0.0
C1574 C 0.89958 0.249 0.56554 0.0
C1575 C 0.9301 0.26454 0.58707 0.0
C1576 C 0.8923 0.25783 0.58044 0.0
C1577 C 0.90369 0.26988 0.5984 0.0
H1578 H 0.36371 0.29973 0.61654 0.0
H1579 H 0.30675 0.25571 0.63962 0.0
H1580 H 0.30475 0.23451 0.60817 0.0
H1581 H 0.31952 0.2279 0.57494 0.0
H1582 H 0.37648 0.27155 0.55162 0.0
H1583 H 0.37815 0.29342 0.5823 0.0
C1584 C 0.35086 0.28551 0.61463 0.0
C1585 C 0.33544 0.2793 0.63045 0.0
C1586 C 0.34979 0.27331 0.59647 0.0
C1587 C 0.31886 0.26085 0.62773 0.0
C1588 C 0.31768 0.24869 0.60972 0.0
C1589 C 0.33216 0.24232 0.57632 0.0
C1590 C 0.34783 0.24809 0.56099 0.0
C1591 C 0.33308 0.25473 0.59407 0.0
C1592 C 0.36428 0.2667 0.56331 0.0
C1593 C 0.36523 0.27922 0.58083 0.0
H1594 H 0.70804 0.04556 0.60024 0.0
H1595 H 0.73422 0.08859 0.65386 0.0
H1596 H 0.75403 0.11321 0.62537 0.0
H1597 H 0.76543 0.1221 0.58565 0.0
H1598 H 0.74081 0.07902 0.53196 0.0
H1599 H 0.71895 0.05482 0.55996 0.0
C1600 C 0.71793 0.06039 0.60559 0.0
C1601 C 0.71966 0.06527 0.62909 0.0
C1602 C 0.72966 0.07441 0.58913 0.0
C1603 C 0.73266 0.08447 0.63586 0.0
C1604 C 0.74402 0.09856 0.61959 0.0
C1605 C 0.75506 0.10749 0.58002 0.0
C1606 C 0.75466 0.10236 0.55678 0.0
C1607 C 0.74284 0.09364 0.59624 0.0
C1608 C 0.74143 0.08327 0.5498 0.0
C1609 C 0.72892 0.06946 0.56579 0.0
H1610 H 0.94835 0.64612 0.60976 0.0
H1611 H 0.92935 0.67221 0.66114 0.0
H1612 H 0.90669 0.67327 0.6338 0.0
H1613 H 0.89291 0.66772 0.59531 0.0
H1614 H 0.91311 0.64386 0.5425 0.0
H1615 H 0.93432 0.64062 0.57046 0.0
C1616 C 0.93911 0.65186 0.61494 0.0
C1617 C 0.9405 0.65907 0.63741 0.0
C1618 C 0.92635 0.65286 0.5989 0.0
C1619 C 0.9286 0.66665 0.64391 0.0
C1620 C 0.91563 0.66727 0.6283 0.0
C1621 C 0.90212 0.66204 0.58974 0.0
C1622 C 0.90152 0.65625 0.56672 0.0
C1623 C 0.91456 0.66065 0.6057 0.0
C1624 C 0.91316 0.64835 0.56012 0.0
C1625 C 0.92539 0.64659 0.57608 0.0
H1626 H 0.94106 0.64033 0.75269 0.0
H1627 H 0.973 0.70245 0.74316 0.0
H1628 H 0.95426 0.70629 0.77421 0.0
H1629 H 0.92669 0.69155 0.80156 0.0
H1630 H 0.89546 0.62934 0.81117 0.0
H1631 H 0.91599 0.62599 0.7825 0.0
C1632 C 0.94407 0.65474 0.75757 0.0
C1633 C 0.95824 0.67107 0.74553 0.0
C1634 C 0.93322 0.65679 0.77528 0.0
C1635 C 0.96215 0.68965 0.75219 0.0
C1636 C 0.95136 0.69183 0.76985 0.0
C1637 C 0.92462 0.6773 0.79772 0.0
C1638 C 0.9093 0.66069 0.80827 0.0
C1639 C 0.93657 0.67545 0.78119 0.0
C1640 C 0.90681 0.64233 0.80295 0.0
C1641 C 0.91861 0.64039 0.78662 0.0
H1642 H 0.30854 0.27111 0.75205 0.0
H1643 H 0.36675 0.28605 0.73203 0.0
H1644 H 0.36796 0.2662 0.7632 0.0
H1645 H 0.35226 0.24383 0.79533 0.0
H1646 H 0.29408 0.22853 0.81575 0.0
H1647 H 0.29304 0.24918 0.7852 0.0
C1648 C 0.32148 0.27003 0.75457 0.0
C1649 C 0.3375 0.28 0.7397 0.0
C1650 C 0.32209 0.2585 0.77257 0.0
C1651 C 0.35419 0.2785 0.74319 0.0
C1652 C 0.35492 0.26715 0.76103 0.0
C1653 C 0.33946 0.24526 0.79337 0.0
C1654 C 0.32331 0.23472 0.80786 0.0
C1655 C 0.33894 0.25704 0.77575 0.0
C1656 C 0.30667 0.2364 0.80472 0.0
C1657 C 0.30609 0.24823 0.78729 0.0
H1658 H 0.71608 0.06617 0.7439 0.0
H1659 H 0.7357 0.02456 0.74118 0.0
H1660 H 0.75713 0.0404 0.77418 0.0
H1661 H 0.77125 0.06704 0.8027 0.0
H1662 H 0.7523 0.10932 0.80331 0.0
H1663 H 0.72937 0.09196 0.77259 0.0
C1664 C 0.72494 0.06045 0.75058 0.0
C1665 C 0.72436 0.04426 0.74005 0.0
C1666 C 0.73731 0.06973 0.76927 0.0
C1667 C 0.73592 0.03703 0.74897 0.0
C1668 C 0.74818 0.04611 0.76781 0.0
C1669 C 0.76213 0.07248 0.7961 0.0
C1670 C 0.76354 0.08949 0.80552 0.0
C1671 C 0.74919 0.06264 0.77791 0.0
C1672 C 0.75136 0.09611 0.79687 0.0
C1673 C 0.73833 0.08629 0.77907 0.0
H1674 H 0.05546 0.34552 0.03011 0.0
H1675 H 0.01865 0.33337 0.08975 0.0
H1676 H 0.04196 0.32981 0.11343 0.0
H1677 H 0.07298 0.33041 0.11747 0.0
H1678 H 0.10911 0.34051 0.05779 0.0
H1679 H 0.086 0.34458 0.03384 0.0
C1680 C 0.05258 0.34205 0.04827 0.0
C1681 C 0.03539 0.33977 0.05817 0.0
C1682 C 0.06594 0.33969 0.06179 0.0
C1683 C 0.03174 0.33513 0.08169 0.0
C1684 C 0.04508 0.33315 0.09529 0.0
C1685 C 0.07575 0.33354 0.09922 0.0
C1686 C 0.09269 0.33531 0.08937 0.0
C1687 C 0.06225 0.33546 0.08556 0.0
C1688 C 0.09609 0.33909 0.06567 0.0
C1689 C 0.08292 0.34144 0.05202 0.0
H1690 H 0.6887 0.71668 0.04358 0.0
H1691 H 0.6272 0.69465 0.0353 0.0
H1692 H 0.62991 0.72236 0.05665 0.0
H1693 H 0.64934 0.75169 0.07942 0.0
H1694 H 0.71146 0.77543 0.08482 0.0
H1695 H 0.70876 0.74791 0.06336 0.0
C1696 C 0.67594 0.71807 0.0463 0.0
C1697 C 0.65777 0.70363 0.03799 0.0
C1698 C 0.67764 0.73416 0.05836 0.0
C1699 C 0.64137 0.70563 0.04146 0.0
C1700 C 0.64289 0.72141 0.05377 0.0
C1701 C 0.66243 0.7512 0.07555 0.0
C1702 C 0.68056 0.76571 0.08409 0.0
C1703 C 0.66092 0.73565 0.06251 0.0
C1704 C 0.69719 0.76434 0.07913 0.0
C1705 C 0.69572 0.74866 0.0666 0.0
H1706 H 0.29306 0.9738 0.04691 0.0
H1707 H 0.31508 0.93427 0.0412 0.0
H1708 H 0.28745 0.90991 0.06356 0.0
H1709 H 0.25815 0.90067 0.08627 0.0
H1710 H 0.23416 0.93887 0.08839 0.0
H1711 H 0.26184 0.96316 0.06654 0.0
C1712 C 0.29169 0.95978 0.05043 0.0
C1713 C 0.30608 0.95582 0.04256 0.0
C1714 C 0.27563 0.94575 0.06297 0.0
C1715 C 0.30411 0.93758 0.04702 0.0
C1716 C 0.28839 0.92371 0.05991 0.0
C1717 C 0.25859 0.91406 0.08161 0.0
C1718 C 0.24393 0.91778 0.08937 0.0
C1719 C 0.27416 0.92773 0.06816 0.0
C1720 C 0.24533 0.93561 0.0834 0.0
C1721 C 0.2611 0.9495 0.07059 0.0
H1722 H 0.37623 0.06215 0.98054 0.0
H1723 H 0.31483 0.02054 0.98252 0.0
H1724 H 0.30789 0.0434 0.96241 0.0
H1725 H 0.31931 0.07506 0.94421 0.0
H1726 H 0.38108 0.11521 0.93829 0.0
H1727 H 0.38777 0.09325 0.96036 0.0
C1728 C 0.36134 0.0582 0.97668 0.0
C1729 C 0.34604 0.03983 0.98312 0.0
C1730 C 0.35752 0.07115 0.96446 0.0
C1731 C 0.32682 0.03466 0.97772 0.0
C1732 C 0.32286 0.04771 0.96623 0.0
C1733 C 0.33428 0.07897 0.94734 0.0
C1734 C 0.34961 0.09698 0.93961 0.0
C1735 C 0.33811 0.06595 0.95938 0.0
C1736 C 0.36888 0.10175 0.9444 0.0
C1737 C 0.37278 0.08909 0.9569 0.0
H1738 H 0.97328 0.3016 0.96279 0.0
H1739 H 0.93445 0.28828 0.02063 0.0
H1740 H 0.90968 0.25916 1.00096 0.0
H1741 H 0.8988 0.23801 0.96696 0.0
H1742 H 0.93707 0.25235 0.90829 0.0
H1743 H 0.96242 0.28036 0.92883 0.0
C1744 C 0.95945 0.29224 0.97116 0.0
C1745 C 0.9557 0.29706 0.99314 0.0
C1746 C 0.94518 0.27571 0.95961 0.0
C1747 C 0.93767 0.28488 1.00371 0.0
C1748 C 0.9235 0.26825 0.99246 0.0
C1749 C 0.91261 0.24734 0.95856 0.0
C1750 C 0.91595 0.24304 0.93606 0.0
C1751 C 0.92703 0.26364 0.97031 0.0
C1752 C 0.93413 0.25512 0.92568 0.0
C1753 C 0.94862 0.27124 0.93736 0.0
H1754 H 0.71639 0.66285 1.00384 0.0
H1755 H 0.68691 0.66477 0.94241 0.0
H1756 H 0.71393 0.66849 0.91873 0.0
H1757 H 0.74553 0.67019 0.91523 0.0
H1758 H 0.77602 0.66994 0.97638 0.0
H1759 H 0.74918 0.66673 1.00045 0.0
C1760 C 0.71597 0.66417 0.98529 0.0
C1761 C 0.69965 0.66342 0.97488 0.0
C1762 C 0.73173 0.6666 0.97173 0.0
C1763 C 0.69933 0.66533 0.95084 0.0
C1764 C 0.71475 0.66741 0.93726 0.0
C1765 C 0.74626 0.66948 0.93384 0.0
C1766 C 0.76257 0.67016 0.94409 0.0
C1767 C 0.73094 0.66789 0.94749 0.0
C1768 C 0.76357 0.66949 0.96819 0.0
C1769 C 0.74821 0.66758 0.98191 0.0
H1770 H 0.94061 0.6353 0.99426 0.0
H1771 H 0.98833 0.68977 0.97023 0.0
H1772 H 0.96579 0.69596 0.94825 0.0
H1773 H 0.9326 0.6854 0.9349 0.0
H1774 H 0.88508 0.63031 0.95756 0.0
H1775 H 0.90742 0.62477 0.98094 0.0
C1776 C 0.94603 0.64857 0.98432 0.0
C1777 C 0.96607 0.66208 0.98389 0.0
C1778 C 0.93304 0.65186 0.97138 0.0
C1779 C 0.97295 0.67914 0.97079 0.0
C1780 C 0.96008 0.68269 0.95822 0.0
C1781 C 0.92716 0.67228 0.94513 0.0
C1782 C 0.90727 0.65829 0.94456 0.0
C1783 C 0.94012 0.66909 0.95826 0.0
C1784 C 0.90039 0.64121 0.95762 0.0
C1785 C 0.91313 0.63807 0.97103 0.0
H1786 H 0.37234 0.31192 0.9816 0.0
H1787 H 0.3112 0.28624 0.99682 0.0
H1788 H 0.30467 0.25622 0.97754 0.0
H1789 H 0.31624 0.23768 0.95534 0.0
H1790 H 0.37713 0.26458 0.93756 0.0
H1791 H 0.38384 0.29352 0.95912 0.0
C1792 C 0.35762 0.29966 0.98093 0.0
C1793 C 0.34229 0.30123 0.99071 0.0
C1794 C 0.35391 0.28266 0.96929 0.0
C1795 C 0.32325 0.28534 0.98944 0.0
C1796 C 0.31951 0.2682 0.97837 0.0
C1797 C 0.33096 0.24992 0.95596 0.0
C1798 C 0.34613 0.24879 0.94484 0.0
C1799 C 0.3347 0.26679 0.96797 0.0
C1800 C 0.36517 0.26478 0.94625 0.0
C1801 C 0.36903 0.28145 0.95847 0.0
H1802 H 0.71002 0.05907 0.00564 0.0
H1803 H 0.69286 0.01498 0.95325 0.0
H1804 H 0.72113 0.03671 0.93011 0.0
H1805 H 0.74983 0.06866 0.92378 0.0
H1806 H 0.76782 0.11264 0.97646 0.0
H1807 H 0.74003 0.09064 1.00021 0.0
C1808 C 0.71257 0.0542 0.98924 0.0
C1809 C 0.69931 0.03547 0.98117 0.0
C1810 C 0.7289 0.0668 0.97592 0.0
C1811 C 0.70282 0.02934 0.95989 0.0
C1812 C 0.71897 0.04177 0.94658 0.0
C1813 C 0.7479 0.07337 0.94061 0.0
C1814 C 0.76089 0.09237 0.94818 0.0
C1815 C 0.73201 0.06059 0.95431 0.0
C1816 C 0.75788 0.09824 0.96994 0.0
C1817 C 0.74205 0.08562 0.98364 0.0
H1818 H 0.67311 0.97562 0.07317 0.0
H1819 H 0.64554 0.93731 0.01553 0.0
H1820 H 0.65124 0.91274 0.03326 0.0
H1821 H 0.6637 0.90205 0.0653 0.0
H1822 H 0.68952 0.93969 0.12402 0.0
H1823 H 0.68521 0.96474 0.10546 0.0
C1824 C 0.66844 0.96193 0.06444 0.0
C1825 C 0.65895 0.95829 0.04306 0.0
C1826 C 0.67151 0.94778 0.07488 0.0
C1827 C 0.65285 0.94044 0.03202 0.0
C1828 C 0.65611 0.9264 0.04214 0.0
C1829 C 0.66823 0.91564 0.07419 0.0
C1830 C 0.67696 0.9189 0.09607 0.0
C1831 C 0.66532 0.92986 0.06364 0.0
C1832 C 0.68306 0.93682 0.10704 0.0
C1833 C 0.68045 0.95114 0.09651 0.0
H1834 H 0.068 0.70054 0.04554 0.0
H1835 H 0.01969 0.70979 0.05763 0.0
H1836 H 0.04087 0.7395 0.07898 0.0
H1837 H 0.07295 0.76242 0.09511 0.0
H1838 H 0.12092 0.75241 0.08457 0.0
H1839 H 0.10006 0.72338 0.06187 0.0
C1840 C 0.06217 0.70916 0.05272 0.0
C1841 C 0.04236 0.70306 0.04995 0.0
C1842 C 0.07434 0.72601 0.06538 0.0
C1843 C 0.03491 0.71421 0.05955 0.0
C1844 C 0.047 0.73118 0.07176 0.0
C1845 C 0.07883 0.75393 0.08768 0.0
C1846 C 0.09841 0.75952 0.09144 0.0
C1847 C 0.0667 0.73716 0.07491 0.0
C1848 C 0.10583 0.74828 0.08203 0.0
C1849 C 0.09394 0.73174 0.06899 0.0
H1850 H 0.31015 0.34459 0.0773 0.0
H1851 H 0.28716 0.34602 0.01054 0.0
H1852 H 0.2571 0.34101 0.02855 0.0
H1853 H 0.2376 0.33684 0.06355 0.0
H1854 H 0.26147 0.33675 0.13016 0.0
H1855 H 0.29095 0.34063 0.11197 0.0
C1856 C 0.29853 0.34374 0.06667 0.0
C1857 C 0.30084 0.34562 0.04263 0.0
C1858 C 0.28147 0.34114 0.07715 0.0
C1859 C 0.28573 0.34463 0.0291 0.0
C1860 C 0.26854 0.34175 0.03938 0.0
C1861 C 0.24923 0.33754 0.07399 0.0
C1862 C 0.24742 0.33653 0.09813 0.0
C1863 C 0.26628 0.34005 0.06341 0.0
C1864 C 0.26265 0.33766 0.11155 0.0
C1865 C 0.27946 0.33982 0.10117 0.0
H1866 H 0.70219 0.67821 0.41186 0.0
H1867 H 0.72856 0.68122 0.34586 0.0
H1868 H 0.75354 0.67661 0.36452 0.0
H1869 H 0.7684 0.67259 0.39987 0.0
H1870 H 0.74288 0.67138 0.46586 0.0
H1871 H 0.71704 0.67441 0.44699 0.0
C1872 C 0.71335 0.67774 0.40155 0.0
C1873 C 0.71351 0.67998 0.37753 0.0
C1874 C 0.72784 0.67547 0.41242 0.0
C1875 C 0.72815 0.67955 0.3644 0.0
C1876 C 0.74242 0.6769 0.37505 0.0
C1877 C 0.75707 0.67285 0.41002 0.0
C1878 C 0.75746 0.67174 0.43416 0.0
C1879 C 0.74248 0.67496 0.39907 0.0
C1880 C 0.74288 0.67233 0.44724 0.0
C1881 C 0.72811 0.67402 0.43647 0.0
H1882 H 0.33633 0.03006 0.41012 0.0
H1883 H 0.30936 0.03908 0.35062 0.0
H1884 H 0.31249 0.06849 0.36819 0.0
H1885 H 0.32276 0.09149 0.40062 0.0
H1886 H 0.34852 0.08141 0.46063 0.0
H1887 H 0.34622 0.05271 0.44252 0.0
C1888 C 0.3312 0.03849 0.40094 0.0
C1889 C 0.32266 0.03243 0.37909 0.0
C1890 C 0.33287 0.05522 0.41121 0.0
C1891 C 0.31599 0.04346 0.36747 0.0
C1892 C 0.31777 0.06026 0.37751 0.0
C1893 C 0.32772 0.08293 0.40982 0.0
C1894 C 0.33589 0.08871 0.43194 0.0
C1895 C 0.32611 0.06623 0.39943 0.0
C1896 C 0.34249 0.07755 0.44345 0.0
C1897 C 0.34106 0.06103 0.43317 0.0
H1898 H 0.96883 0.27763 0.36817 0.0
H1899 H 0.97671 0.32473 0.41225 0.0
H1900 H 0.94908 0.30224 0.43572 0.0
H1901 H 0.92343 0.26915 0.44469 0.0
H1902 H 0.91456 0.22194 0.40017 0.0
H1903 H 0.94199 0.24444 0.37629 0.0
C1904 C 0.96439 0.28296 0.38281 0.0
C1905 C 0.97484 0.30282 0.38845 0.0
C1906 C 0.94844 0.26991 0.39637 0.0
C1907 C 0.96893 0.30951 0.40751 0.0
C1908 C 0.95314 0.29665 0.42101 0.0
C1909 C 0.92729 0.26377 0.4296 0.0
C1910 C 0.91693 0.24382 0.42439 0.0
C1911 C 0.94289 0.27681 0.41572 0.0
C1912 C 0.92245 0.23715 0.40492 0.0
C1913 C 0.93806 0.25003 0.3911 0.0
H1914 H 0.9996 0.36526 0.29767 0.0
H1915 H 0.02557 0.40271 0.3564 0.0
H1916 H 0.0203 0.42751 0.33854 0.0
H1917 H 0.00925 0.43891 0.30575 0.0
H1918 H 0.98508 0.40213 0.24604 0.0
H1919 H 0.98833 0.37657 0.26501 0.0
C1920 C 0.00397 0.3788 0.30664 0.0
C1921 C 0.01297 0.38216 0.32831 0.0
C1922 C 1.00118 0.39309 0.29612 0.0
C1923 C 0.01865 0.3998 0.33967 0.0
C1924 C 0.01565 0.41398 0.32947 0.0
C1925 C 0.00481 0.42536 0.29679 0.0
C1926 C 0.99696 0.42253 0.27445 0.0
C1927 C 0.00713 0.41087 0.30758 0.0
C1928 C 0.99091 0.40468 0.26335 0.0
C1929 C 0.99291 0.39008 0.27411 0.0
H1930 H 0.60898 0.64695 0.31519 0.0
H1931 H 0.64661 0.62291 0.3235 0.0
H1932 H 0.62335 0.59358 0.30281 0.0
H1933 H 0.59279 0.57524 0.2814 0.0
H1934 H 0.55659 0.60071 0.27025 0.0
H1935 H 0.57864 0.62879 0.29325 0.0
C1936 C 0.61195 0.63517 0.3127 0.0
C1937 C 0.62939 0.63699 0.32096 0.0
C1938 C 0.59878 0.61862 0.30021 0.0
C1939 C 0.63324 0.62179 0.31731 0.0
C1940 C 0.61997 0.60505 0.30544 0.0
C1941 C 0.58978 0.58699 0.28376 0.0
C1942 C 0.57291 0.58568 0.2741 0.0
C1943 C 0.60281 0.60341 0.29655 0.0
C1944 C 0.5692 0.60102 0.27778 0.0
C1945 C 0.5819 0.61721 0.29082 0.0
H1946 H 0.35448 0.95805 0.31307 0.0
H1947 H 0.38483 0.01745 0.33675 0.0
H1948 H 0.41405 0.02326 0.31604 0.0
H1949 H 0.43064 0.01184 0.29009 0.0
H1950 H 0.40002 0.95272 0.26548 0.0
H1951 H 0.37135 0.94641 0.28778 0.0
C1952 C 0.36756 0.9722 0.31389 0.0
C1953 C 0.36749 0.98729 0.32643 0.0
C1954 C 0.38424 0.97554 0.30167 0.0
C1955 C 0.38451 0.00558 0.32722 0.0
C1956 C 0.40121 0.00895 0.31533 0.0
C1957 C 0.41764 0.99761 0.28949 0.0
C1958 C 0.41747 0.9828 0.27607 0.0
C1959 C 0.40116 0.99411 0.30224 0.0
C1960 C 0.40062 0.96434 0.27583 0.0
C1961 C 0.38418 0.96073 0.2885 0.0
H1962 H 0.60861 0.97688 0.33557 0.0
H1963 H 0.65373 0.01003 0.28586 0.0
H1964 H 0.63052 0.01355 0.26188 0.0
H1965 H 0.59728 0.00645 0.25441 0.0
H1966 H 0.55224 0.97421 0.30459 0.0
H1967 H 0.57546 0.97082 0.32873 0.0
C1968 C 0.61336 0.98495 0.31955 0.0
C1969 C 0.63285 0.99315 0.31251 0.0
C1970 C 0.59992 0.98693 0.30579 0.0
C1971 C 0.6388 0.00358 0.2917 0.0
C1972 C 0.62553 0.00557 0.27793 0.0
C1973 C 0.59256 0.99889 0.27076 0.0
C1974 C 0.57298 0.99054 0.27755 0.0
C1975 C 0.60604 0.99722 0.28474 0.0
C1976 C 0.56712 0.9805 0.29866 0.0
C1977 C 0.58043 0.97868 0.3126 0.0
H1978 H 0.03285 0.63923 0.32844 0.0
H1979 H 0.97578 0.62852 0.30986 0.0
H1980 H 0.96951 0.59939 0.28872 0.0
H1981 H 0.98091 0.578 0.27375 0.0
H1982 H 0.03852 0.58945 0.29071 0.0
H1983 H 0.04403 0.61736 0.31406 0.0
C1984 C 0.01896 0.63035 0.32001 0.0
C1985 C 0.00477 0.63593 0.32075 0.0
C1986 C 0.01566 0.61391 0.30737 0.0
C1987 C 0.98692 0.62448 0.30951 0.0
C1988 C 0.98335 0.60787 0.29739 0.0
C1989 C 0.99459 0.5865 0.28276 0.0
C1990 C 0.00929 0.58172 0.28051 0.0
C1991 C 0.99771 0.60261 0.29592 0.0
C1992 C 0.02706 0.593 0.292 0.0
C1993 C 0.03017 0.60888 0.30544 0.0
H1994 H 0.35957 0.39847 0.31325 0.0
H1995 H 0.38046 0.35788 0.31298 0.0
H1996 H 0.40924 0.38087 0.2911 0.0
H1997 H 0.4283 0.41238 0.27205 0.0
H1998 H 0.40543 0.45144 0.26843 0.0
H1999 H 0.37784 0.42936 0.29213 0.0
C2000 C 0.37054 0.39479 0.30851 0.0
C2001 C 0.36809 0.37667 0.31483 0.0
C2002 C 0.38669 0.4078 0.29526 0.0
C2003 C 0.38213 0.37181 0.30828 0.0
C2004 C 0.39855 0.38493 0.29578 0.0
C2005 C 0.41717 0.41601 0.27603 0.0
C2006 C 0.41922 0.43377 0.26847 0.0
C2007 C 0.40091 0.40292 0.28904 0.0
C2008 C 0.40466 0.43818 0.27436 0.0
C2009 C 0.38871 0.42546 0.28781 0.0
H2010 H 0.29879 0.27291 0.38057 0.0
H2011 H 0.36046 0.31266 0.37498 0.0
H2012 H 0.36708 0.28971 0.39539 0.0
H2013 H 0.35533 0.25882 0.41563 0.0
H2014 H 0.29352 0.22072 0.42514 0.0
H2015 H 0.28701 0.24232 0.40203 0.0
C2016 C 0.31365 0.27639 0.38362 0.0
C2017 C 0.32913 0.2943 0.37617 0.0
C2018 C 0.31733 0.26343 0.39609 0.0
C2019 C 0.34834 0.29889 0.38055 0.0
C2020 C 0.35212 0.28581 0.39224 0.0
C2021 C 0.34041 0.25529 0.41299 0.0
C2022 C 0.32499 0.238 0.42218 0.0
C2023 C 0.33672 0.26814 0.40034 0.0
C2024 C 0.30576 0.23364 0.41798 0.0
C2025 C 0.30197 0.2461 0.40489 0.0
H2026 H 0.73328 0.04433 0.36048 0.0
H2027 H 0.68576 0.03264 0.40619 0.0
H2028 H 0.70745 0.06059 0.4298 0.0
H2029 H 0.74024 0.08716 0.43869 0.0
H2030 H 0.78759 0.09966 0.3922 0.0
H2031 H 0.76569 0.07239 0.36793 0.0
C2032 C 0.72765 0.04801 0.37549 0.0
C2033 C 0.70798 0.03639 0.38162 0.0
C2034 C 0.74021 0.06409 0.38903 0.0
C2035 C 0.70086 0.04137 0.40108 0.0
C2036 C 0.71327 0.0573 0.41465 0.0
C2037 C 0.74575 0.08417 0.42306 0.0
C2038 C 0.76562 0.0954 0.41748 0.0
C2039 C 0.73302 0.06862 0.40895 0.0
C2040 C 0.77247 0.09104 0.39727 0.0
C2041 C 0.75992 0.07552 0.38324 0.0
H2042 H 0.97368 0.67357 0.409 0.0
H2043 H 0.9549 0.68591 0.34474 0.0
H2044 H 0.92532 0.68165 0.36342 0.0
H2045 H 0.90526 0.67528 0.39853 0.0
H2046 H 0.9255 0.66508 0.46298 0.0
H2047 H 0.95407 0.66758 0.44376 0.0
C2048 C 0.96305 0.67521 0.39903 0.0
C2049 C 0.96638 0.67995 0.37553 0.0
C2050 C 0.94639 0.67316 0.40997 0.0
C2051 C 0.95262 0.68225 0.36289 0.0
C2052 C 0.93573 0.67981 0.37355 0.0
C2053 C 0.91591 0.67348 0.40822 0.0
C2054 C 0.91338 0.66996 0.43205 0.0
C2055 C 0.93252 0.67538 0.39713 0.0
C2056 C 0.92728 0.66787 0.44462 0.0
C2057 C 0.94356 0.66927 0.43365 0.0
H2058 H 0.39073 0.01012 0.69023 0.0
H2059 H 0.35568 1.00104 0.75083 0.0
H2060 H 0.37816 0.99561 0.77388 0.0
H2061 H 0.40834 0.99441 0.77713 0.0
H2062 H 0.44258 0.00157 0.71647 0.0
H2063 H 0.41986 0.00664 0.69302 0.0
C2064 C 0.38803 0.00688 0.70846 0.0
C2065 C 0.37168 0.0061 0.71887 0.0
C2066 C 0.40086 0.00343 0.72156 0.0
C2067 C 0.36817 0.00169 0.74244 0.0
C2068 C 0.38104 0.99863 0.75565 0.0
C2069 C 0.4107 0.99699 0.75875 0.0
C2070 C 0.42705 0.99775 0.74846 0.0
C2071 C 0.39748 0.99961 0.74543 0.0
C2072 C 0.42999 1.00089 0.72464 0.0
C2073 C 0.41708 0.00386 0.7113 0.0
H2074 H 0.00688 0.36324 0.74421 0.0
H2075 H 0.98102 0.37487 0.68555 0.0
H2076 H 0.9856 0.40453 0.70398 0.0
H2077 H 0.99685 0.42706 0.73686 0.0
H2078 H 0.0218 0.41471 0.79594 0.0
H2079 H 0.01795 0.38561 0.77706 0.0
C2080 C 0.00228 0.37228 0.73542 0.0
C2081 C 0.99362 0.36686 0.71354 0.0
C2082 C 0.00487 0.38924 0.74616 0.0
C2083 C 0.98771 0.37872 0.70241 0.0
C2084 C 0.99033 0.39567 0.71294 0.0
C2085 C 1.00131 0.41793 0.7457 0.0
C2086 C 0.00965 0.42315 0.7678 0.0
C2087 C 0.99883 0.40104 0.73485 0.0
C2088 C 0.01562 0.41126 0.7788 0.0
C2089 C 0.01329 0.39451 0.76808 0.0
H2090 H 0.63463 0.64454 0.74166 0.0
H2091 H 0.63001 0.60629 0.6863 0.0
H2092 H 0.59999 0.58012 0.7032 0.0
H2093 H 0.57519 0.56813 0.73396 0.0
H2094 H 0.58109 0.60638 0.79005 0.0
H2095 H 0.61034 0.63256 0.77242 0.0
C2096 C 0.62701 0.6305 0.73321 0.0
C2097 C 0.63449 0.62737 0.71273 0.0
C2098 C 0.60996 0.61552 0.74314 0.0
C2099 C 0.62452 0.60907 0.70208 0.0
C2100 C 0.60738 0.5941 0.71175 0.0
C2101 C 0.58295 0.58214 0.74243 0.0
C2102 C 0.5758 0.58526 0.76325 0.0
C2103 C 0.60001 0.59714 0.73235 0.0
C2104 C 0.58598 0.60362 0.77381 0.0
C2105 C 0.60282 0.6186 0.76383 0.0
H2106 H 0.66385 0.69633 0.62863 0.0
H2107 H 0.69263 0.73562 0.68512 0.0
H2108 H 0.68868 0.76076 0.66579 0.0
H2109 H 0.67722 0.77158 0.63263 0.0
H2110 H 0.64947 0.73237 0.57569 0.0
H2111 H 0.65265 0.70713 0.59556 0.0
C2112 C 0.66919 0.71037 0.63677 0.0
C2113 C 0.67849 0.7141 0.65828 0.0
C2114 C 0.66702 0.72476 0.62549 0.0
C2115 C 0.68541 0.73239 0.66856 0.0
C2116 C 0.68317 0.74677 0.65751 0.0
C2117 C 0.67201 0.75757 0.62448 0.0
C2118 C 0.66305 0.7539 0.6027 0.0
C2119 C 0.67408 0.74314 0.6359 0.0
C2120 C 0.65614 0.73553 0.59258 0.0
C2121 C 0.65806 0.72111 0.60386 0.0
H2122 H 0.27274 0.95899 0.67188 0.0
H2123 H 0.3179 0.97419 0.62119 0.0
H2124 H 0.2959 0.94622 0.59787 0.0
H2125 H 0.26357 0.91814 0.59113 0.0
H2126 H 0.21873 0.90182 0.64262 0.0
H2127 H 0.24076 0.92965 0.6661 0.0
C2128 C 0.27776 0.95611 0.65578 0.0
C2129 C 0.29689 0.96868 0.64825 0.0
C2130 C 0.26505 0.93989 0.64246 0.0
C2131 C 0.30324 0.96473 0.6274 0.0
C2132 C 0.29066 0.94875 0.61401 0.0
C2133 C 0.25866 0.92044 0.60764 0.0
C2134 C 0.23941 0.90789 0.61491 0.0
C2135 C 0.2715 0.93629 0.62129 0.0
C2136 C 0.23331 0.91141 0.63627 0.0
C2137 C 0.24596 0.92726 0.64984 0.0
H2138 H 0.03649 0.30293 0.66421 0.0
H2139 H 0.04597 0.3594 0.64501 0.0
H2140 H 0.0752 0.36604 0.62361 0.0
H2141 H 0.097 0.355 0.6085 0.0
H2142 H 0.08658 0.29796 0.62641 0.0
H2143 H 0.05874 0.29228 0.65004 0.0
C2144 C 0.04509 0.31678 0.65557 0.0
C2145 C 0.03912 0.33067 0.65621 0.0
C2146 C 0.0616 0.32031 0.64287 0.0
C2147 C 0.05028 0.34847 0.64475 0.0
C2148 C 0.06697 0.35226 0.63247 0.0
C2149 C 0.08875 0.34143 0.61781 0.0
C2150 C 0.09378 0.32689 0.61567 0.0
C2151 C 0.07261 0.33817 0.63113 0.0
C2152 C 0.08283 0.30928 0.62758 0.0
C2153 C 0.06697 0.30605 0.64117 0.0
H2154 H 0.30936 0.33461 0.62653 0.0
H2155 H 0.27706 0.31739 0.69028 0.0
H2156 H 0.25153 0.32194 0.67292 0.0
H2157 H 0.23776 0.32948 0.63885 0.0
H2158 H 0.26932 0.34449 0.57471 0.0
H2159 H 0.29591 0.34227 0.59294 0.0
C2160 C 0.29681 0.332 0.6367 0.0
C2161 C 0.29509 0.32572 0.65965 0.0
C2162 C 0.28208 0.33423 0.62648 0.0
C2163 C 0.27867 0.32222 0.67255 0.0
C2164 C 0.26409 0.32481 0.66264 0.0
C2165 C 0.2506 0.33245 0.62907 0.0
C2166 C 0.25183 0.33727 0.60563 0.0
C2167 C 0.26555 0.33064 0.63955 0.0
C2168 C 0.26827 0.34084 0.59284 0.0
C2169 C 0.28339 0.33953 0.60323 0.0
H2170 H 0.65673 0.95576 0.653 0.0
H2171 H 0.71879 0.98687 0.64198 0.0
H2172 H 0.71623 0.95949 0.61991 0.0
H2173 H 0.69616 0.92727 0.60242 0.0
H2174 H 0.63424 0.89567 0.61515 0.0
H2175 H 0.63697 0.92282 0.63746 0.0
C2176 C 0.66972 0.95651 0.64587 0.0
C2177 C 0.68791 0.97335 0.64906 0.0
C2178 C 0.66815 0.94071 0.63327 0.0
C2179 C 0.70461 0.97406 0.63981 0.0
C2180 C 0.70315 0.95843 0.62712 0.0
C2181 C 0.68327 0.92615 0.61031 0.0
C2182 C 0.66498 0.90941 0.60676 0.0
C2183 C 0.68496 0.94173 0.62357 0.0
C2184 C 0.64846 0.90848 0.617 0.0
C2185 C 0.65001 0.92396 0.62999 0.0
H2186 H 0.03176 0.72685 0.66035 0.0
H2187 H 0.03755 0.67853 0.63705 0.0
H2188 H 0.06596 0.70047 0.61403 0.0
H2189 H 0.08877 0.73334 0.59974 0.0
H2190 H 0.08197 0.78144 0.62123 0.0
H2191 H 0.05433 0.75971 0.64559 0.0
C2192 C 0.03936 0.72118 0.65036 0.0
C2193 C 0.03266 0.70113 0.65049 0.0
C2194 C 0.05542 0.73383 0.63671 0.0
C2195 C 0.04246 0.69392 0.63724 0.0
C2196 C 0.05869 0.70645 0.62405 0.0
C2197 C 0.08125 0.73902 0.60985 0.0
C2198 C 0.08736 0.75892 0.60874 0.0
C2199 C 0.06523 0.72641 0.62353 0.0
C2200 C 0.07739 0.76612 0.62169 0.0
C2201 C 0.06167 0.75373 0.63568 0.0
H2202 H 0.01938 0.6357 0.71865 0.0
H2203 H 0.95784 0.59662 0.70997 0.0
H2204 H 0.96006 0.57157 0.73186 0.0
H2205 H 0.97914 0.56148 0.75511 0.0
H2206 H 0.04133 0.59953 0.76076 0.0
H2207 H 0.03904 0.62439 0.73895 0.0
C2208 C 0.0065 0.62164 0.72141 0.0
C2209 C 0.98847 0.61803 0.71281 0.0
C2210 C 0.00793 0.60722 0.73377 0.0
C2211 C 0.97191 0.59971 0.71634 0.0
C2212 C 0.97315 0.58542 0.72897 0.0
C2213 C 0.99233 0.57501 0.75126 0.0
C2214 C 0.01036 0.57851 0.76001 0.0
C2215 C 0.99106 0.58909 0.73797 0.0
C2216 C 0.02712 0.59644 0.75498 0.0
C2217 C 0.02589 0.61067 0.74223 0.0
H2218 H 0.36174 0.3659 0.74021 0.0
H2219 H 0.4013 0.37369 0.68487 0.0
H2220 H 0.42641 0.40384 0.70262 0.0
H2221 H 0.4371 0.42779 0.73418 0.0
H2222 H 0.39748 0.41894 0.78996 0.0
H2223 H 0.37235 0.38949 0.77156 0.0
C2224 C 0.37583 0.37423 0.73195 0.0
C2225 C 0.37966 0.3676 0.71124 0.0
C2226 C 0.39017 0.39137 0.74233 0.0
C2227 C 0.398 0.3785 0.70081 0.0
C2228 C 0.41236 0.39572 0.71097 0.0
C2229 C 0.42302 0.41934 0.74239 0.0
C2230 C 0.41919 0.42567 0.76339 0.0
C2231 C 0.40863 0.40223 0.73181 0.0
C2232 C 0.40075 0.41464 0.77363 0.0
C2233 C 0.38639 0.3977 0.76319 0.0
H2234 H 0.63123 0.98751 0.7233 0.0
H2235 H 0.64076 0.03927 0.68797 0.0
H2236 H 0.61251 0.03733 0.70737 0.0
H2237 H 0.58586 0.02165 0.73565 0.0
H2238 H 0.57584 0.96943 0.77012 0.0
H2239 H 0.60347 0.97076 0.74976 0.0
C2240 C 0.62702 0.99828 0.71971 0.0
C2241 C 0.63811 0.01356 0.70431 0.0
C2242 C 0.61074 0.99704 0.73087 0.0
C2243 C 0.63243 0.02734 0.69972 0.0
C2244 C 0.61634 0.02629 0.71089 0.0
C2245 C 0.58977 0.01059 0.73866 0.0
C2246 C 0.57897 0.99554 0.75444 0.0
C2247 C 0.60554 0.01135 0.72672 0.0
C2248 C 0.58394 0.98111 0.75798 0.0
C2249 C 0.59975 0.98191 0.7464 0.0
loop_
_geom_bond_atom_site_label_1
_geom_bond_atom_site_label_2
_geom_bond_distance
_geom_bond_site_symmetry_2
_ccdc_geom_bond_type
In0 O1 2.270 1_455 S
In0 O2 2.329 . S
In0 O6 2.240 1_455 S
In0 O7 2.332 1_454 S
In0 O8 2.274 1_554 S
In0 O9 2.295 1_454 S
In0 O11 2.336 . S
In0 O12 2.349 . S
O1 In0 2.270 1_655 S
O1 C10 1.224 1_655 S
O2 In0 2.329 . S
O2 C10 1.282 . S
C3 O6 1.252 1_556 S
C3 O7 1.260 . S
C4 O11 1.240 . S
C4 O12 1.252 . S
C5 O8 1.268 . S
C5 O9 1.249 1_455 S
O6 In0 2.240 1_655 S
O6 C3 1.252 1_554 S
O7 In0 2.332 1_656 S
O7 C3 1.260 . S
O8 In0 2.274 1_556 S
O8 C5 1.268 . S
O9 In0 2.295 1_656 S
O9 C5 1.249 1_655 S
C10 O1 1.224 1_455 S
C10 O2 1.282 . S
O11 In0 2.336 . S
O11 C4 1.240 . S
O12 In0 2.349 . S
O12 C4 1.252 . S
In13 O14 2.294 . S
In13 O15 2.326 . S
In13 O19 2.266 . S
In13 O20 2.326 1_554 S
In13 O21 2.266 1_554 S
In13 O22 2.326 1_554 S
In13 O24 2.294 . S
In13 O25 2.326 . S
O14 In13 2.294 . S
O14 C23 1.240 . S
O15 In13 2.326 . S
O15 C23 1.252 . S
C16 O19 1.252 1_556 S
C16 O20 1.260 . S
C17 O24 1.240 . S
C17 O25 1.252 . S
C18 O21 1.252 . S
C18 O22 1.260 . S
O19 In13 2.266 . S
O19 C16 1.252 1_554 S
O20 In13 2.326 1_556 S
O20 C16 1.260 . S
O21 In13 2.266 1_556 S
O21 C18 1.252 . S
O22 In13 2.326 1_556 S
O22 C18 1.260 . S
C23 O14 1.240 . S
C23 O15 1.252 . S
O24 In13 2.294 . S
O24 C17 1.240 . S
O25 In13 2.326 . S
O25 C17 1.252 . S
In26 O27 2.349 . S
In26 O28 2.357 1_554 S
In26 O32 2.277 . S
In26 O33 2.285 1_545 S
In26 O34 2.232 1_545 S
In26 O35 2.334 1_545 S
In26 O37 2.263 1_544 S
In26 O38 2.330 1_554 S
O27 In26 2.349 . S
O27 C36 1.240 1_554 S
O28 In26 2.357 1_556 S
O28 C36 1.252 . S
C29 O32 1.284 . S
C29 O33 1.238 1_545 S
C30 O37 1.219 1_545 S
C30 O38 1.293 . S
C31 O34 1.252 . S
C31 O35 1.260 . S
O32 In26 2.277 . S
O32 C29 1.284 . S
O33 In26 2.285 1_565 S
O33 C29 1.238 1_565 S
O34 In26 2.232 1_565 S
O34 C31 1.252 . S
O35 In26 2.334 1_565 S
O35 C31 1.260 . S
C36 O27 1.240 1_556 S
C36 O28 1.252 . S
O37 In26 2.263 1_566 S
O37 C30 1.219 1_565 S
O38 In26 2.330 1_556 S
O38 C30 1.293 . S
In39 O40 2.293 1_554 S
In39 O41 2.326 1_454 S
In39 O45 2.265 . S
In39 O46 2.326 . S
In39 O47 2.267 1_455 S
In39 O48 2.324 . S
In39 O50 2.296 1_455 S
In39 O51 2.328 1_454 S
O40 In39 2.293 1_556 S
O40 C49 1.239 . S
O41 In39 2.326 1_656 S
O41 C49 1.254 1_655 S
C42 O45 1.252 . S
C42 O46 1.260 . S
C43 O50 1.240 1_556 S
C43 O51 1.252 . S
C44 O47 1.231 1_455 S
C44 O48 1.275 . S
O45 In39 2.265 . S
O45 C42 1.252 . S
O46 In39 2.326 . S
O46 C42 1.260 . S
O47 In39 2.267 1_655 S
O47 C44 1.231 1_655 S
O48 In39 2.324 . S
O48 C44 1.275 . S
C49 O40 1.239 . S
C49 O41 1.254 1_455 S
O50 In39 2.296 1_655 S
O50 C43 1.240 1_554 S
O51 In39 2.328 1_656 S
O51 C43 1.252 . S
In52 O53 2.294 1_554 S
In52 O54 2.326 1_554 S
In52 O58 2.266 . S
In52 O59 2.326 . S
In52 O60 2.266 . S
In52 O61 2.326 . S
In52 O63 2.294 . S
In52 O64 2.326 1_554 S
O53 In52 2.294 1_556 S
O53 C62 1.240 . S
O54 In52 2.326 1_556 S
O54 C62 1.252 . S
C55 O58 1.252 . S
C55 O59 1.260 . S
C56 O63 1.240 1_556 S
C56 O64 1.252 . S
C57 O60 1.252 . S
C57 O61 1.260 . S
O58 In52 2.266 . S
O58 C55 1.252 . S
O59 In52 2.326 . S
O59 C55 1.260 . S
O60 In52 2.266 . S
O60 C57 1.252 . S
O61 In52 2.326 . S
O61 C57 1.260 . S
C62 O53 1.240 . S
C62 O54 1.252 . S
O63 In52 2.294 . S
O63 C56 1.240 1_554 S
O64 In52 2.326 1_556 S
O64 C56 1.252 . S
In65 O66 2.293 . S
In65 O67 2.326 1_545 S
In65 O71 2.265 . S
In65 O72 2.326 1_554 S
In65 O73 2.267 1_544 S
In65 O74 2.324 1_554 S
In65 O76 2.296 1_545 S
In65 O77 2.328 1_545 S
O66 In65 2.293 . S
O66 C75 1.238 . S
O67 In65 2.326 1_565 S
O67 C75 1.255 1_565 S
C68 O71 1.252 1_556 S
C68 O72 1.260 . S
C69 O76 1.240 . S
C69 O77 1.252 . S
C70 O73 1.234 1_545 S
C70 O74 1.273 . S
O71 In65 2.265 . S
O71 C68 1.252 1_554 S
O72 In65 2.326 1_556 S
O72 C68 1.260 . S
O73 In65 2.267 1_566 S
O73 C70 1.234 1_565 S
O74 In65 2.324 1_556 S
O74 C70 1.273 . S
C75 O66 1.238 . S
C75 O67 1.255 1_545 S
O76 In65 2.296 1_565 S
O76 C69 1.240 . S
O77 In65 2.328 1_565 S
O77 C69 1.252 . S
In78 O79 2.294 . S
In78 O80 2.326 . S
In78 O84 2.266 . S
In78 O85 2.326 . S
In78 O86 2.266 . S
In78 O87 2.326 . S
In78 O89 2.294 . S
In78 O90 2.326 . S
O79 In78 2.294 . S
O79 C88 1.240 . S
O80 In78 2.326 . S
O80 C88 1.252 . S
C81 O84 1.252 . S
C81 O85 1.260 . S
C82 O89 1.240 . S
C82 O90 1.252 . S
C83 O86 1.252 . S
C83 O87 1.260 . S
O84 In78 2.266 . S
O84 C81 1.252 . S
O85 In78 2.326 . S
O85 C81 1.260 . S
O86 In78 2.266 . S
O86 C83 1.252 . S
O87 In78 2.326 . S
O87 C83 1.260 . S
C88 O79 1.240 . S
C88 O80 1.252 . S
O89 In78 2.294 . S
O89 C82 1.240 . S
O90 In78 2.326 . S
O90 C82 1.252 . S
In91 O92 2.294 . S
In91 O93 2.326 . S
In91 O97 2.266 . S
In91 O98 2.326 . S
In91 O99 2.266 . S
In91 O100 2.326 . S
In91 O102 2.294 1_565 S
In91 O103 2.326 1_565 S
O92 In91 2.294 . S
O92 C101 1.240 . S
O93 In91 2.326 . S
O93 C101 1.252 . S
C94 O97 1.252 . S
C94 O98 1.260 . S
C95 O102 1.240 . S
C95 O103 1.252 . S
C96 O99 1.252 . S
C96 O100 1.260 . S
O97 In91 2.266 . S
O97 C94 1.252 . S
O98 In91 2.326 . S
O98 C94 1.260 . S
O99 In91 2.266 . S
O99 C96 1.252 . S
O100 In91 2.326 . S
O100 C96 1.260 . S
C101 O92 1.240 . S
C101 O93 1.252 . S
O102 In91 2.294 1_545 S
O102 C95 1.240 . S
O103 In91 2.326 1_545 S
O103 C95 1.252 . S
In104 O105 2.294 . S
In104 O106 2.326 . S
In104 O110 2.266 . S
In104 O111 2.326 . S
In104 O112 2.266 1_455 S
In104 O113 2.326 1_455 S
In104 O115 2.294 . S
In104 O116 2.326 . S
O105 In104 2.294 . S
O105 C114 1.240 . S
O106 In104 2.326 . S
O106 C114 1.252 . S
C107 O110 1.252 . S
C107 O111 1.260 . S
C108 O115 1.240 . S
C108 O116 1.252 . S
C109 O112 1.252 . S
C109 O113 1.260 . S
O110 In104 2.266 . S
O110 C107 1.252 . S
O111 In104 2.326 . S
O111 C107 1.260 . S
O112 In104 2.266 1_655 S
O112 C109 1.252 . S
O113 In104 2.326 1_655 S
O113 C109 1.260 . S
C114 O105 1.240 . S
C114 O106 1.252 . S
O115 In104 2.294 . S
O115 C108 1.240 . S
O116 In104 2.326 . S
O116 C108 1.252 . S
In117 O118 2.294 . S
In117 O119 2.326 . S
In117 O123 2.266 1_565 S
In117 O124 2.326 1_565 S
In117 O125 2.266 . S
In117 O126 2.326 . S
In117 O128 2.294 . S
In117 O129 2.326 . S
O118 In117 2.294 . S
O118 C127 1.240 . S
O119 In117 2.326 . S
O119 C127 1.252 . S
C120 O123 1.252 . S
C120 O124 1.260 . S
C121 O128 1.240 . S
C121 O129 1.252 . S
C122 O125 1.252 . S
C122 O126 1.260 . S
O123 In117 2.266 1_545 S
O123 C120 1.252 . S
O124 In117 2.326 1_545 S
O124 C120 1.260 . S
O125 In117 2.266 . S
O125 C122 1.252 . S
O126 In117 2.326 . S
O126 C122 1.260 . S
C127 O118 1.240 . S
C127 O119 1.252 . S
O128 In117 2.294 . S
O128 C121 1.240 . S
O129 In117 2.326 . S
O129 C121 1.252 . S
In130 O131 2.294 . S
In130 O132 2.326 . S
In130 O136 2.266 1_455 S
In130 O137 2.326 1_455 S
In130 O138 2.266 . S
In130 O139 2.326 . S
In130 O141 2.294 . S
In130 O142 2.326 . S
O131 In130 2.294 . S
O131 C140 1.240 . S
O132 In130 2.326 . S
O132 C140 1.252 . S
C133 O136 1.252 . S
C133 O137 1.260 . S
C134 O141 1.240 . S
C134 O142 1.252 . S
C135 O138 1.252 . S
C135 O139 1.260 . S
O136 In130 2.266 1_655 S
O136 C133 1.252 . S
O137 In130 2.326 1_655 S
O137 C133 1.260 . S
O138 In130 2.266 . S
O138 C135 1.252 . S
O139 In130 2.326 . S
O139 C135 1.260 . S
C140 O131 1.240 . S
C140 O132 1.252 . S
O141 In130 2.294 . S
O141 C134 1.240 . S
O142 In130 2.326 . S
O142 C134 1.252 . S
In143 O144 2.294 . S
In143 O145 2.326 . S
In143 O149 2.266 . S
In143 O150 2.326 . S
In143 O151 2.266 . S
In143 O152 2.326 . S
In143 O154 2.294 . S
In143 O155 2.326 . S
O144 In143 2.294 . S
O144 C153 1.240 . S
O145 In143 2.326 . S
O145 C153 1.252 . S
C146 O149 1.252 . S
C146 O150 1.260 . S
C147 O154 1.240 . S
C147 O155 1.252 . S
C148 O151 1.252 . S
C148 O152 1.260 . S
O149 In143 2.266 . S
O149 C146 1.252 . S
O150 In143 2.326 . S
O150 C146 1.260 . S
O151 In143 2.266 . S
O151 C148 1.252 . S
O152 In143 2.326 . S
O152 C148 1.260 . S
C153 O144 1.240 . S
C153 O145 1.252 . S
O154 In143 2.294 . S
O154 C147 1.240 . S
O155 In143 2.326 . S
O155 C147 1.252 . S
In156 O157 2.294 . S
In156 O158 2.326 . S
In156 O162 2.266 . S
In156 O163 2.326 . S
In156 O164 2.266 1_545 S
In156 O165 2.326 1_545 S
In156 O167 2.294 . S
In156 O168 2.326 . S
O157 In156 2.294 . S
O157 C166 1.240 . S
O158 In156 2.326 . S
O158 C166 1.252 . S
C159 O162 1.252 . S
C159 O163 1.260 . S
C160 O167 1.240 . S
C160 O168 1.252 . S
C161 O164 1.252 . S
C161 O165 1.260 . S
O162 In156 2.266 . S
O162 C159 1.252 . S
O163 In156 2.326 . S
O163 C159 1.260 . S
O164 In156 2.266 1_565 S
O164 C161 1.252 . S
O165 In156 2.326 1_565 S
O165 C161 1.260 . S
C166 O157 1.240 . S
C166 O158 1.252 . S
O167 In156 2.294 . S
O167 C160 1.240 . S
O168 In156 2.326 . S
O168 C160 1.252 . S
In169 O170 2.294 . S
In169 O171 2.326 . S
In169 O175 2.266 . S
In169 O176 2.326 . S
In169 O177 2.266 1_655 S
In169 O178 2.326 1_655 S
In169 O180 2.294 . S
In169 O181 2.326 . S
O170 In169 2.294 . S
O170 C179 1.240 . S
O171 In169 2.326 . S
O171 C179 1.252 . S
C172 O175 1.252 . S
C172 O176 1.260 . S
C173 O180 1.240 . S
C173 O181 1.252 . S
C174 O177 1.252 . S
C174 O178 1.260 . S
O175 In169 2.266 . S
O175 C172 1.252 . S
O176 In169 2.326 . S
O176 C172 1.260 . S
O177 In169 2.266 1_455 S
O177 C174 1.252 . S
O178 In169 2.326 1_455 S
O178 C174 1.260 . S
C179 O170 1.240 . S
C179 O171 1.252 . S
O180 In169 2.294 . S
O180 C173 1.240 . S
O181 In169 2.326 . S
O181 C173 1.252 . S
In182 O183 2.294 . S
In182 O184 2.326 . S
In182 O188 2.266 . S
In182 O189 2.326 . S
In182 O190 2.266 . S
In182 O191 2.326 . S
In182 O193 2.294 . S
In182 O194 2.326 . S
O183 In182 2.294 . S
O183 C192 1.240 . S
O184 In182 2.326 . S
O184 C192 1.252 . S
C185 O188 1.252 . S
C185 O189 1.260 . S
C186 O193 1.240 . S
C186 O194 1.252 . S
C187 O190 1.252 . S
C187 O191 1.260 . S
O188 In182 2.266 . S
O188 C185 1.252 . S
O189 In182 2.326 . S
O189 C185 1.260 . S
O190 In182 2.266 . S
O190 C187 1.252 . S
O191 In182 2.326 . S
O191 C187 1.260 . S
C192 O183 1.240 . S
C192 O184 1.252 . S
O193 In182 2.294 . S
O193 C186 1.240 . S
O194 In182 2.326 . S
O194 C186 1.252 . S
In195 O196 2.294 . S
In195 O197 2.326 . S
In195 O201 2.266 . S
In195 O202 2.326 . S
In195 O203 2.266 . S
In195 O204 2.326 . S
In195 O206 2.294 . S
In195 O207 2.326 . S
O196 In195 2.294 . S
O196 C205 1.240 . S
O197 In195 2.326 . S
O197 C205 1.252 . S
C198 O201 1.252 . S
C198 O202 1.260 . S
C199 O206 1.240 . S
C199 O207 1.252 . S
C200 O203 1.252 . S
C200 O204 1.260 . S
O201 In195 2.266 . S
O201 C198 1.252 . S
O202 In195 2.326 . S
O202 C198 1.260 . S
O203 In195 2.266 . S
O203 C200 1.252 . S
O204 In195 2.326 . S
O204 C200 1.260 . S
C205 O196 1.240 . S
C205 O197 1.252 . S
O206 In195 2.294 . S
O206 C199 1.240 . S
O207 In195 2.326 . S
O207 C199 1.252 . S
In208 O209 2.294 . S
In208 O210 2.326 . S
In208 O214 2.266 . S
In208 O215 2.326 . S
In208 O216 2.266 . S
In208 O217 2.326 . S
In208 O219 2.294 1_545 S
In208 O220 2.326 1_545 S
O209 In208 2.294 . S
O209 C218 1.240 . S
O210 In208 2.326 . S
O210 C218 1.252 . S
C211 O214 1.252 . S
C211 O215 1.260 . S
C212 O219 1.240 . S
C212 O220 1.252 . S
C213 O216 1.252 . S
C213 O217 1.260 . S
O214 In208 2.266 . S
O214 C211 1.252 . S
O215 In208 2.326 . S
O215 C211 1.260 . S
O216 In208 2.266 . S
O216 C213 1.252 . S
O217 In208 2.326 . S
O217 C213 1.260 . S
C218 O209 1.240 . S
C218 O210 1.252 . S
O219 In208 2.294 1_565 S
O219 C212 1.240 . S
O220 In208 2.326 1_565 S
O220 C212 1.252 . S
In221 O222 2.294 . S
In221 O223 2.326 . S
In221 O227 2.266 . S
In221 O228 2.326 . S
In221 O229 2.266 1_655 S
In221 O230 2.326 1_655 S
In221 O232 2.294 . S
In221 O233 2.326 . S
O222 In221 2.294 . S
O222 C231 1.240 . S
O223 In221 2.326 . S
O223 C231 1.252 . S
C224 O227 1.252 . S
C224 O228 1.260 . S
C225 O232 1.240 . S
C225 O233 1.252 . S
C226 O229 1.252 . S
C226 O230 1.260 . S
O227 In221 2.266 . S
O227 C224 1.252 . S
O228 In221 2.326 . S
O228 C224 1.260 . S
O229 In221 2.266 1_455 S
O229 C226 1.252 . S
O230 In221 2.326 1_455 S
O230 C226 1.260 . S
C231 O222 1.240 . S
C231 O223 1.252 . S
O232 In221 2.294 . S
O232 C225 1.240 . S
O233 In221 2.326 . S
O233 C225 1.252 . S
H234 C253 0.949 . S
H235 C254 0.950 . S
H236 C256 0.950 . S
H237 C257 0.950 . S
H238 C259 0.950 . S
H239 C262 0.950 . S
H240 C263 0.950 . S
H241 C265 0.951 . S
H242 C266 0.949 . S
H243 C268 0.949 . S
H244 C269 0.950 . S
H245 C271 0.950 . S
H246 C272 0.950 . S
H247 C274 0.950 . S
H248 C277 0.950 . S
H249 C278 0.950 . S
H250 C280 0.951 . S
H251 C281 0.949 . S
C252 C253 1.376 . S
C252 C257 1.386 . S
C252 C258 1.483 . S
C253 H234 0.949 . S
C253 C252 1.376 . S
C253 C254 1.397 . S
C254 H235 0.950 . S
C254 C253 1.397 . S
C254 C255 1.391 . S
C255 C254 1.391 . S
C255 C256 1.405 . S
C256 H236 0.950 . S
C256 C255 1.405 . S
C256 C257 1.367 . S
C257 H237 0.950 . S
C257 C252 1.386 . S
C257 C256 1.367 . S
C258 C252 1.483 . S
C258 C259 1.382 . S
C258 C260 1.403 . S
C259 H238 0.950 . S
C259 C258 1.382 . S
C259 C275 1.411 . S
C260 C258 1.403 . S
C260 C261 1.489 . S
C260 C274 1.411 . S
C261 C260 1.489 . S
C261 C262 1.383 . S
C261 C266 1.382 . S
C262 H239 0.950 . S
C262 C261 1.383 . S
C262 C263 1.395 . S
C263 H240 0.950 . S
C263 C262 1.395 . S
C263 C264 1.288 . S
C264 C263 1.288 . S
C264 C265 1.392 . S
C265 H241 0.951 . S
C265 C264 1.392 . S
C265 C266 1.392 . S
C266 H242 0.949 . S
C266 C261 1.382 . S
C266 C265 1.392 . S
C267 C268 1.376 . S
C267 C272 1.386 . S
C267 C273 1.483 . S
C268 H243 0.949 . S
C268 C267 1.376 . S
C268 C269 1.397 . S
C269 H244 0.950 . S
C269 C268 1.397 . S
C269 C270 1.391 . S
C270 C269 1.391 . S
C270 C271 1.405 . S
C271 H245 0.950 . S
C271 C270 1.405 . S
C271 C272 1.367 . S
C272 H246 0.950 . S
C272 C267 1.386 . S
C272 C271 1.367 . S
C273 C267 1.483 . S
C273 C274 1.382 . S
C273 C275 1.403 . S
C274 H247 0.950 . S
C274 C260 1.411 . S
C274 C273 1.382 . S
C275 C259 1.411 . S
C275 C273 1.403 . S
C275 C276 1.489 . S
C276 C275 1.489 . S
C276 C277 1.383 . S
C276 C281 1.382 . S
C277 H248 0.950 . S
C277 C276 1.383 . S
C277 C278 1.395 . S
C278 H249 0.950 . S
C278 C277 1.395 . S
C278 C279 1.288 . S
C279 C278 1.288 . S
C279 C280 1.392 . S
C280 H250 0.951 . S
C280 C279 1.392 . S
C280 C281 1.392 . S
C281 H251 0.949 . S
C281 C276 1.382 . S
C281 C280 1.392 . S
H282 C301 0.949 . S
H283 C302 0.950 . S
H284 C304 0.950 . S
H285 C305 0.950 . S
H286 C307 0.950 . S
H287 C310 0.950 . S
H288 C311 0.950 . S
H289 C313 0.951 . S
H290 C314 0.949 . S
H291 C316 0.949 . S
H292 C317 0.950 . S
H293 C319 0.950 . S
H294 C320 0.950 . S
H295 C322 0.950 . S
H296 C325 0.950 . S
H297 C326 0.950 . S
H298 C328 0.951 . S
H299 C329 0.949 . S
C300 C301 1.376 . S
C300 C305 1.386 . S
C300 C306 1.483 . S
C301 H282 0.949 . S
C301 C300 1.376 . S
C301 C302 1.397 . S
C302 H283 0.950 . S
C302 C301 1.397 . S
C302 C303 1.391 . S
C303 C302 1.391 . S
C303 C304 1.405 . S
C304 H284 0.950 . S
C304 C303 1.405 . S
C304 C305 1.367 . S
C305 H285 0.950 . S
C305 C300 1.386 . S
C305 C304 1.367 . S
C306 C300 1.483 . S
C306 C307 1.382 . S
C306 C308 1.403 . S
C307 H286 0.950 . S
C307 C306 1.382 . S
C307 C323 1.411 . S
C308 C306 1.403 . S
C308 C309 1.489 . S
C308 C322 1.411 . S
C309 C308 1.489 . S
C309 C310 1.383 . S
C309 C314 1.382 . S
C310 H287 0.950 . S
C310 C309 1.383 . S
C310 C311 1.395 . S
C311 H288 0.950 . S
C311 C310 1.395 . S
C311 C312 1.288 . S
C312 C311 1.288 . S
C312 C313 1.392 . S
C313 H289 0.951 . S
C313 C312 1.392 . S
C313 C314 1.392 . S
C314 H290 0.949 . S
C314 C309 1.382 . S
C314 C313 1.392 . S
C315 C316 1.376 . S
C315 C320 1.386 . S
C315 C321 1.483 . S
C316 H291 0.949 . S
C316 C315 1.376 . S
C316 C317 1.397 . S
C317 H292 0.950 . S
C317 C316 1.397 . S
C317 C318 1.391 . S
C318 C317 1.391 . S
C318 C319 1.405 . S
C319 H293 0.950 . S
C319 C318 1.405 . S
C319 C320 1.367 . S
C320 H294 0.950 . S
C320 C315 1.386 . S
C320 C319 1.367 . S
C321 C315 1.483 . S
C321 C322 1.382 . S
C321 C323 1.403 . S
C322 H295 0.950 . S
C322 C308 1.411 . S
C322 C321 1.382 . S
C323 C307 1.411 . S
C323 C321 1.403 . S
C323 C324 1.489 . S
C324 C323 1.489 . S
C324 C325 1.383 . S
C324 C329 1.382 . S
C325 H296 0.950 . S
C325 C324 1.383 . S
C325 C326 1.395 . S
C326 H297 0.950 . S
C326 C325 1.395 . S
C326 C327 1.288 . S
C327 C326 1.288 . S
C327 C328 1.392 . S
C328 H298 0.951 . S
C328 C327 1.392 . S
C328 C329 1.392 . S
C329 H299 0.949 . S
C329 C324 1.382 . S
C329 C328 1.392 . S
H330 C349 0.949 . S
H331 C350 0.950 . S
H332 C352 0.950 . S
H333 C353 0.950 . S
H334 C355 0.950 . S
H335 C358 0.950 . S
H336 C359 0.950 . S
H337 C361 0.951 . S
H338 C362 0.949 . S
H339 C364 0.949 . S
H340 C365 0.950 . S
H341 C367 0.950 . S
H342 C368 0.950 . S
H343 C370 0.950 . S
H344 C373 0.950 . S
H345 C374 0.950 . S
H346 C376 0.951 . S
H347 C377 0.949 . S
C348 C349 1.376 . S
C348 C353 1.386 . S
C348 C354 1.483 . S
C349 H330 0.949 . S
C349 C348 1.376 . S
C349 C350 1.397 . S
C350 H331 0.950 . S
C350 C349 1.397 . S
C350 C351 1.391 . S
C351 C350 1.391 . S
C351 C352 1.405 . S
C352 H332 0.950 . S
C352 C351 1.405 . S
C352 C353 1.367 . S
C353 H333 0.950 . S
C353 C348 1.386 . S
C353 C352 1.367 . S
C354 C348 1.483 . S
C354 C355 1.382 . S
C354 C356 1.403 . S
C355 H334 0.950 . S
C355 C354 1.382 . S
C355 C371 1.411 . S
C356 C354 1.403 . S
C356 C357 1.489 . S
C356 C370 1.411 . S
C357 C356 1.489 . S
C357 C358 1.383 . S
C357 C362 1.382 . S
C358 H335 0.950 . S
C358 C357 1.383 . S
C358 C359 1.395 . S
C359 H336 0.950 . S
C359 C358 1.395 . S
C359 C360 1.288 . S
C360 C359 1.288 . S
C360 C361 1.392 . S
C361 H337 0.951 . S
C361 C360 1.392 . S
C361 C362 1.392 . S
C362 H338 0.949 . S
C362 C357 1.382 . S
C362 C361 1.392 . S
C363 C364 1.376 . S
C363 C368 1.386 . S
C363 C369 1.483 . S
C364 H339 0.949 . S
C364 C363 1.376 . S
C364 C365 1.397 . S
C365 H340 0.950 . S
C365 C364 1.397 . S
C365 C366 1.391 . S
C366 C365 1.391 . S
C366 C367 1.405 . S
C367 H341 0.950 . S
C367 C366 1.405 . S
C367 C368 1.367 . S
C368 H342 0.950 . S
C368 C363 1.386 . S
C368 C367 1.367 . S
C369 C363 1.483 . S
C369 C370 1.382 . S
C369 C371 1.403 . S
C370 H343 0.950 . S
C370 C356 1.411 . S
C370 C369 1.382 . S
C371 C355 1.411 . S
C371 C369 1.403 . S
C371 C372 1.489 . S
C372 C371 1.489 . S
C372 C373 1.383 . S
C372 C377 1.382 . S
C373 H344 0.950 . S
C373 C372 1.383 . S
C373 C374 1.395 . S
C374 H345 0.950 . S
C374 C373 1.395 . S
C374 C375 1.288 . S
C375 C374 1.288 . S
C375 C376 1.392 . S
C376 H346 0.951 . S
C376 C375 1.392 . S
C376 C377 1.392 . S
C377 H347 0.949 . S
C377 C372 1.382 . S
C377 C376 1.392 . S
H378 C397 0.949 . S
H379 C398 0.950 . S
H380 C400 0.950 . S
H381 C401 0.950 . S
H382 C403 0.950 . S
H383 C406 0.950 . S
H384 C407 0.950 . S
H385 C409 0.951 . S
H386 C410 0.949 . S
H387 C412 0.949 . S
H388 C413 0.950 . S
H389 C415 0.950 . S
H390 C416 0.950 . S
H391 C418 0.950 . S
H392 C421 0.950 . S
H393 C422 0.950 . S
H394 C424 0.951 . S
H395 C425 0.949 . S
C396 C397 1.376 . S
C396 C401 1.386 . S
C396 C402 1.483 . S
C397 H378 0.949 . S
C397 C396 1.376 . S
C397 C398 1.397 . S
C398 H379 0.950 . S
C398 C397 1.397 . S
C398 C399 1.391 . S
C399 C398 1.391 . S
C399 C400 1.405 . S
C400 H380 0.950 . S
C400 C399 1.405 . S
C400 C401 1.367 . S
C401 H381 0.950 . S
C401 C396 1.386 . S
C401 C400 1.367 . S
C402 C396 1.483 . S
C402 C403 1.382 . S
C402 C404 1.403 . S
C403 H382 0.950 . S
C403 C402 1.382 . S
C403 C419 1.411 . S
C404 C402 1.403 . S
C404 C405 1.489 . S
C404 C418 1.411 . S
C405 C404 1.489 . S
C405 C406 1.383 . S
C405 C410 1.382 . S
C406 H383 0.950 . S
C406 C405 1.383 . S
C406 C407 1.395 . S
C407 H384 0.950 . S
C407 C406 1.395 . S
C407 C408 1.288 . S
C408 C407 1.288 . S
C408 C409 1.392 . S
C409 H385 0.951 . S
C409 C408 1.392 . S
C409 C410 1.392 . S
C410 H386 0.949 . S
C410 C405 1.382 . S
C410 C409 1.392 . S
C411 C412 1.376 . S
C411 C416 1.386 . S
C411 C417 1.483 . S
C412 H387 0.949 . S
C412 C411 1.376 . S
C412 C413 1.397 . S
C413 H388 0.950 . S
C413 C412 1.397 . S
C413 C414 1.391 . S
C414 C413 1.391 . S
C414 C415 1.405 . S
C415 H389 0.950 . S
C415 C414 1.405 . S
C415 C416 1.367 . S
C416 H390 0.950 . S
C416 C411 1.386 . S
C416 C415 1.367 . S
C417 C411 1.483 . S
C417 C418 1.382 . S
C417 C419 1.403 . S
C418 H391 0.950 . S
C418 C404 1.411 . S
C418 C417 1.382 . S
C419 C403 1.411 . S
C419 C417 1.403 . S
C419 C420 1.489 . S
C420 C419 1.489 . S
C420 C421 1.383 . S
C420 C425 1.382 . S
C421 H392 0.950 . S
C421 C420 1.383 . S
C421 C422 1.395 . S
C422 H393 0.950 . S
C422 C421 1.395 . S
C422 C423 1.288 . S
C423 C422 1.288 . S
C423 C424 1.392 . S
C424 H394 0.951 . S
C424 C423 1.392 . S
C424 C425 1.392 . S
C425 H395 0.949 . S
C425 C420 1.382 . S
C425 C424 1.392 . S
H426 C445 0.949 . S
H427 C446 0.950 . S
H428 C448 0.950 . S
H429 C449 0.950 . S
H430 C451 0.950 . S
H431 C454 0.950 . S
H432 C455 0.950 . S
H433 C457 0.951 . S
H434 C458 0.949 . S
H435 C460 0.949 . S
H436 C461 0.950 . S
H437 C463 0.950 . S
H438 C464 0.950 . S
H439 C466 0.950 . S
H440 C469 0.950 . S
H441 C470 0.950 . S
H442 C472 0.951 . S
H443 C473 0.949 . S
C444 C445 1.376 . S
C444 C449 1.386 . S
C444 C450 1.483 . S
C445 H426 0.949 . S
C445 C444 1.376 . S
C445 C446 1.397 . S
C446 H427 0.950 . S
C446 C445 1.397 . S
C446 C447 1.391 . S
C447 C446 1.391 . S
C447 C448 1.405 . S
C448 H428 0.950 . S
C448 C447 1.405 . S
C448 C449 1.367 . S
C449 H429 0.950 . S
C449 C444 1.386 . S
C449 C448 1.367 . S
C450 C444 1.483 . S
C450 C451 1.382 . S
C450 C452 1.403 . S
C451 H430 0.950 . S
C451 C450 1.382 . S
C451 C467 1.411 . S
C452 C450 1.403 . S
C452 C453 1.489 . S
C452 C466 1.411 . S
C453 C452 1.489 . S
C453 C454 1.383 . S
C453 C458 1.382 . S
C454 H431 0.950 . S
C454 C453 1.383 . S
C454 C455 1.395 . S
C455 H432 0.950 . S
C455 C454 1.395 . S
C455 C456 1.288 . S
C456 C455 1.288 . S
C456 C457 1.392 . S
C457 H433 0.951 . S
C457 C456 1.392 . S
C457 C458 1.392 . S
C458 H434 0.949 . S
C458 C453 1.382 . S
C458 C457 1.392 . S
C459 C460 1.376 . S
C459 C464 1.386 . S
C459 C465 1.483 . S
C460 H435 0.949 . S
C460 C459 1.376 . S
C460 C461 1.397 . S
C461 H436 0.950 . S
C461 C460 1.397 . S
C461 C462 1.391 . S
C462 C461 1.391 . S
C462 C463 1.405 . S
C463 H437 0.950 . S
C463 C462 1.405 . S
C463 C464 1.367 . S
C464 H438 0.950 . S
C464 C459 1.386 . S
C464 C463 1.367 . S
C465 C459 1.483 . S
C465 C466 1.382 . S
C465 C467 1.403 . S
C466 H439 0.950 . S
C466 C452 1.411 . S
C466 C465 1.382 . S
C467 C451 1.411 . S
C467 C465 1.403 . S
C467 C468 1.489 . S
C468 C467 1.489 . S
C468 C469 1.383 . S
C468 C473 1.382 . S
C469 H440 0.950 . S
C469 C468 1.383 . S
C469 C470 1.395 . S
C470 H441 0.950 . S
C470 C469 1.395 . S
C470 C471 1.288 . S
C471 C470 1.288 . S
C471 C472 1.392 . S
C472 H442 0.951 . S
C472 C471 1.392 . S
C472 C473 1.392 . S
C473 H443 0.949 . S
C473 C468 1.382 . S
C473 C472 1.392 . S
H474 C493 0.949 . S
H475 C494 0.950 . S
H476 C496 0.950 . S
H477 C497 0.950 . S
H478 C499 0.950 . S
H479 C502 0.950 . S
H480 C503 0.950 . S
H481 C505 0.951 . S
H482 C506 0.949 . S
H483 C508 0.949 . S
H484 C509 0.950 . S
H485 C511 0.950 . S
H486 C512 0.950 . S
H487 C514 0.950 . S
H488 C517 0.950 . S
H489 C518 0.950 . S
H490 C520 0.951 . S
H491 C521 0.949 . S
C492 C493 1.376 . S
C492 C497 1.386 . S
C492 C498 1.483 . S
C493 H474 0.949 . S
C493 C492 1.376 . S
C493 C494 1.397 . S
C494 H475 0.950 . S
C494 C493 1.397 . S
C494 C495 1.391 . S
C495 C494 1.391 . S
C495 C496 1.405 . S
C496 H476 0.950 . S
C496 C495 1.405 . S
C496 C497 1.367 . S
C497 H477 0.950 . S
C497 C492 1.386 . S
C497 C496 1.367 . S
C498 C492 1.483 . S
C498 C499 1.382 . S
C498 C500 1.403 . S
C499 H478 0.950 . S
C499 C498 1.382 . S
C499 C515 1.411 . S
C500 C498 1.403 . S
C500 C501 1.489 . S
C500 C514 1.411 . S
C501 C500 1.489 . S
C501 C502 1.383 . S
C501 C506 1.382 . S
C502 H479 0.950 . S
C502 C501 1.383 . S
C502 C503 1.395 . S
C503 H480 0.950 . S
C503 C502 1.395 . S
C503 C504 1.288 . S
C504 C503 1.288 . S
C504 C505 1.392 . S
C505 H481 0.951 . S
C505 C504 1.392 . S
C505 C506 1.392 . S
C506 H482 0.949 . S
C506 C501 1.382 . S
C506 C505 1.392 . S
C507 C508 1.376 . S
C507 C512 1.386 . S
C507 C513 1.483 . S
C508 H483 0.949 . S
C508 C507 1.376 . S
C508 C509 1.397 . S
C509 H484 0.950 . S
C509 C508 1.397 . S
C509 C510 1.391 . S
C510 C509 1.391 . S
C510 C511 1.405 . S
C511 H485 0.950 . S
C511 C510 1.405 . S
C511 C512 1.367 . S
C512 H486 0.950 . S
C512 C507 1.386 . S
C512 C511 1.367 . S
C513 C507 1.483 . S
C513 C514 1.382 . S
C513 C515 1.403 . S
C514 H487 0.950 . S
C514 C500 1.411 . S
C514 C513 1.382 . S
C515 C499 1.411 . S
C515 C513 1.403 . S
C515 C516 1.489 . S
C516 C515 1.489 . S
C516 C517 1.383 . S
C516 C521 1.382 . S
C517 H488 0.950 . S
C517 C516 1.383 . S
C517 C518 1.395 . S
C518 H489 0.950 . S
C518 C517 1.395 . S
C518 C519 1.288 . S
C519 C518 1.288 . S
C519 C520 1.392 . S
C520 H490 0.951 . S
C520 C519 1.392 . S
C520 C521 1.392 . S
C521 H491 0.949 . S
C521 C516 1.382 . S
C521 C520 1.392 . S
H522 C541 0.949 . S
H523 C542 0.950 . S
H524 C544 0.950 . S
H525 C545 0.950 . S
H526 C547 0.950 . S
H527 C550 0.950 . S
H528 C551 0.950 . S
H529 C553 0.951 . S
H530 C554 0.949 . S
H531 C556 0.949 . S
H532 C557 0.950 . S
H533 C559 0.950 . S
H534 C560 0.950 . S
H535 C562 0.950 . S
H536 C565 0.950 . S
H537 C566 0.950 . S
H538 C568 0.951 . S
H539 C569 0.949 . S
C540 C541 1.376 . S
C540 C545 1.386 . S
C540 C546 1.483 . S
C541 H522 0.949 . S
C541 C540 1.376 . S
C541 C542 1.397 . S
C542 H523 0.950 . S
C542 C541 1.397 . S
C542 C543 1.391 . S
C543 C542 1.391 . S
C543 C544 1.405 . S
C544 H524 0.950 . S
C544 C543 1.405 . S
C544 C545 1.367 . S
C545 H525 0.950 . S
C545 C540 1.386 . S
C545 C544 1.367 . S
C546 C540 1.483 . S
C546 C547 1.382 . S
C546 C548 1.403 . S
C547 H526 0.950 . S
C547 C546 1.382 . S
C547 C563 1.411 . S
C548 C546 1.403 . S
C548 C549 1.489 . S
C548 C562 1.411 . S
C549 C548 1.489 . S
C549 C550 1.383 . S
C549 C554 1.382 . S
C550 H527 0.950 . S
C550 C549 1.383 . S
C550 C551 1.395 . S
C551 H528 0.950 . S
C551 C550 1.395 . S
C551 C552 1.288 . S
C552 C551 1.288 . S
C552 C553 1.392 . S
C553 H529 0.951 . S
C553 C552 1.392 . S
C553 C554 1.392 . S
C554 H530 0.949 . S
C554 C549 1.382 . S
C554 C553 1.392 . S
C555 C556 1.376 . S
C555 C560 1.386 . S
C555 C561 1.483 . S
C556 H531 0.949 . S
C556 C555 1.376 . S
C556 C557 1.397 . S
C557 H532 0.950 . S
C557 C556 1.397 . S
C557 C558 1.391 . S
C558 C557 1.391 . S
C558 C559 1.405 . S
C559 H533 0.950 . S
C559 C558 1.405 . S
C559 C560 1.367 . S
C560 H534 0.950 . S
C560 C555 1.386 . S
C560 C559 1.367 . S
C561 C555 1.483 . S
C561 C562 1.382 . S
C561 C563 1.403 . S
C562 H535 0.950 . S
C562 C548 1.411 . S
C562 C561 1.382 . S
C563 C547 1.411 . S
C563 C561 1.403 . S
C563 C564 1.489 . S
C564 C563 1.489 . S
C564 C565 1.383 . S
C564 C569 1.382 . S
C565 H536 0.950 . S
C565 C564 1.383 . S
C565 C566 1.395 . S
C566 H537 0.950 . S
C566 C565 1.395 . S
C566 C567 1.288 . S
C567 C566 1.288 . S
C567 C568 1.392 . S
C568 H538 0.951 . S
C568 C567 1.392 . S
C568 C569 1.392 . S
C569 H539 0.949 . S
C569 C564 1.382 . S
C569 C568 1.392 . S
H570 C589 0.949 . S
H571 C590 0.950 . S
H572 C592 0.950 . S
H573 C593 0.950 . S
H574 C595 0.950 . S
H575 C598 0.950 . S
H576 C599 0.950 . S
H577 C601 0.951 . S
H578 C602 0.949 . S
H579 C604 0.949 . S
H580 C605 0.950 . S
H581 C607 0.950 . S
H582 C608 0.950 . S
H583 C610 0.950 . S
H584 C613 0.950 . S
H585 C614 0.950 . S
H586 C616 0.951 . S
H587 C617 0.949 . S
C588 C589 1.376 . S
C588 C593 1.386 . S
C588 C594 1.483 . S
C589 H570 0.949 . S
C589 C588 1.376 . S
C589 C590 1.397 . S
C590 H571 0.950 . S
C590 C589 1.397 . S
C590 C591 1.391 . S
C591 C590 1.391 . S
C591 C592 1.405 . S
C592 H572 0.950 . S
C592 C591 1.405 . S
C592 C593 1.367 . S
C593 H573 0.950 . S
C593 C588 1.386 . S
C593 C592 1.367 . S
C594 C588 1.483 . S
C594 C595 1.382 . S
C594 C596 1.403 . S
C595 H574 0.950 . S
C595 C594 1.382 . S
C595 C611 1.411 . S
C596 C594 1.403 . S
C596 C597 1.489 . S
C596 C610 1.411 . S
C597 C596 1.489 . S
C597 C598 1.383 . S
C597 C602 1.382 . S
C598 H575 0.950 . S
C598 C597 1.383 . S
C598 C599 1.395 . S
C599 H576 0.950 . S
C599 C598 1.395 . S
C599 C600 1.288 . S
C600 C599 1.288 . S
C600 C601 1.392 . S
C601 H577 0.951 . S
C601 C600 1.392 . S
C601 C602 1.392 . S
C602 H578 0.949 . S
C602 C597 1.382 . S
C602 C601 1.392 . S
C603 C604 1.376 . S
C603 C608 1.386 . S
C603 C609 1.483 . S
C604 H579 0.949 . S
C604 C603 1.376 . S
C604 C605 1.397 . S
C605 H580 0.950 . S
C605 C604 1.397 . S
C605 C606 1.391 . S
C606 C605 1.391 . S
C606 C607 1.405 . S
C607 H581 0.950 . S
C607 C606 1.405 . S
C607 C608 1.367 . S
C608 H582 0.950 . S
C608 C603 1.386 . S
C608 C607 1.367 . S
C609 C603 1.483 . S
C609 C610 1.382 . S
C609 C611 1.403 . S
C610 H583 0.950 . S
C610 C596 1.411 . S
C610 C609 1.382 . S
C611 C595 1.411 . S
C611 C609 1.403 . S
C611 C612 1.489 . S
C612 C611 1.489 . S
C612 C613 1.383 . S
C612 C617 1.382 . S
C613 H584 0.950 . S
C613 C612 1.383 . S
C613 C614 1.395 . S
C614 H585 0.950 . S
C614 C613 1.395 . S
C614 C615 1.288 . S
C615 C614 1.288 . S
C615 C616 1.392 . S
C616 H586 0.951 . S
C616 C615 1.392 . S
C616 C617 1.392 . S
C617 H587 0.949 . S
C617 C612 1.382 . S
C617 C616 1.392 . S
H618 C637 0.949 . S
H619 C638 0.950 . S
H620 C640 0.950 . S
H621 C641 0.950 . S
H622 C643 0.950 . S
H623 C646 0.950 . S
H624 C647 0.950 . S
H625 C649 0.951 . S
H626 C650 0.949 . S
H627 C652 0.949 . S
H628 C653 0.950 . S
H629 C655 0.950 . S
H630 C656 0.950 . S
H631 C658 0.950 . S
H632 C661 0.950 . S
H633 C662 0.950 . S
H634 C664 0.951 . S
H635 C665 0.949 . S
C636 C637 1.376 . S
C636 C641 1.386 . S
C636 C642 1.483 . S
C637 H618 0.949 . S
C637 C636 1.376 . S
C637 C638 1.397 . S
C638 H619 0.950 . S
C638 C637 1.397 . S
C638 C639 1.391 . S
C639 C638 1.391 . S
C639 C640 1.405 . S
C640 H620 0.950 . S
C640 C639 1.405 . S
C640 C641 1.367 . S
C641 H621 0.950 . S
C641 C636 1.386 . S
C641 C640 1.367 . S
C642 C636 1.483 . S
C642 C643 1.382 . S
C642 C644 1.403 . S
C643 H622 0.950 . S
C643 C642 1.382 . S
C643 C659 1.411 . S
C644 C642 1.403 . S
C644 C645 1.489 . S
C644 C658 1.411 . S
C645 C644 1.489 . S
C645 C646 1.383 . S
C645 C650 1.382 . S
C646 H623 0.950 . S
C646 C645 1.383 . S
C646 C647 1.395 . S
C647 H624 0.950 . S
C647 C646 1.395 . S
C647 C648 1.288 . S
C648 C647 1.288 . S
C648 C649 1.392 . S
C649 H625 0.951 . S
C649 C648 1.392 . S
C649 C650 1.392 . S
C650 H626 0.949 . S
C650 C645 1.382 . S
C650 C649 1.392 . S
C651 C652 1.376 . S
C651 C656 1.386 . S
C651 C657 1.483 . S
C652 H627 0.949 . S
C652 C651 1.376 . S
C652 C653 1.397 . S
C653 H628 0.950 . S
C653 C652 1.397 . S
C653 C654 1.391 . S
C654 C653 1.391 . S
C654 C655 1.405 . S
C655 H629 0.950 . S
C655 C654 1.405 . S
C655 C656 1.367 . S
C656 H630 0.950 . S
C656 C651 1.386 . S
C656 C655 1.367 . S
C657 C651 1.483 . S
C657 C658 1.382 . S
C657 C659 1.403 . S
C658 H631 0.950 . S
C658 C644 1.411 . S
C658 C657 1.382 . S
C659 C643 1.411 . S
C659 C657 1.403 . S
C659 C660 1.489 . S
C660 C659 1.489 . S
C660 C661 1.383 . S
C660 C665 1.382 . S
C661 H632 0.950 . S
C661 C660 1.383 . S
C661 C662 1.395 . S
C662 H633 0.950 . S
C662 C661 1.395 . S
C662 C663 1.288 . S
C663 C662 1.288 . S
C663 C664 1.392 . S
C664 H634 0.951 . S
C664 C663 1.392 . S
C664 C665 1.392 . S
C665 H635 0.949 . S
C665 C660 1.382 . S
C665 C664 1.392 . S
H666 C685 0.949 . S
H667 C686 0.950 . S
H668 C688 0.950 . S
H669 C689 0.950 . S
H670 C691 0.950 . S
H671 C694 0.950 . S
H672 C695 0.950 . S
H673 C697 0.951 . S
H674 C698 0.949 . S
H675 C700 0.949 . S
H676 C701 0.950 . S
H677 C703 0.950 . S
H678 C704 0.950 . S
H679 C706 0.950 . S
H680 C709 0.950 . S
H681 C710 0.950 . S
H682 C712 0.951 . S
H683 C713 0.949 . S
C684 C685 1.376 . S
C684 C689 1.386 1_655 S
C684 C690 1.483 . S
C685 H666 0.949 . S
C685 C684 1.376 . S
C685 C686 1.397 . S
C686 H667 0.950 . S
C686 C685 1.397 . S
C686 C687 1.391 . S
C687 C686 1.391 . S
C687 C688 1.405 1_655 S
C688 H668 0.950 . S
C688 C687 1.405 1_455 S
C688 C689 1.367 . S
C689 H669 0.950 . S
C689 C684 1.386 1_455 S
C689 C688 1.367 . S
C690 C684 1.483 . S
C690 C691 1.382 . S
C690 C692 1.403 1_655 S
C691 H670 0.950 . S
C691 C690 1.382 . S
C691 C707 1.411 . S
C692 C690 1.403 1_455 S
C692 C693 1.489 . S
C692 C706 1.411 . S
C693 C692 1.489 . S
C693 C694 1.383 1_455 S
C693 C698 1.382 . S
C694 H671 0.950 . S
C694 C693 1.383 1_655 S
C694 C695 1.395 . S
C695 H672 0.950 . S
C695 C694 1.395 . S
C695 C696 1.288 1_655 S
C696 C695 1.288 1_455 S
C696 C697 1.392 . S
C697 H673 0.951 . S
C697 C696 1.392 . S
C697 C698 1.392 . S
C698 H674 0.949 . S
C698 C693 1.382 . S
C698 C697 1.392 . S
C699 C700 1.376 . S
C699 C704 1.386 1_455 S
C699 C705 1.483 . S
C700 H675 0.949 . S
C700 C699 1.376 . S
C700 C701 1.397 . S
C701 H676 0.950 . S
C701 C700 1.397 . S
C701 C702 1.391 . S
C702 C701 1.391 . S
C702 C703 1.405 1_455 S
C703 H677 0.950 . S
C703 C702 1.405 1_655 S
C703 C704 1.367 . S
C704 H678 0.950 . S
C704 C699 1.386 1_655 S
C704 C703 1.367 . S
C705 C699 1.483 . S
C705 C706 1.382 . S
C705 C707 1.403 1_455 S
C706 H679 0.950 . S
C706 C692 1.411 . S
C706 C705 1.382 . S
C707 C691 1.411 . S
C707 C705 1.403 1_655 S
C707 C708 1.489 . S
C708 C707 1.489 . S
C708 C709 1.383 1_655 S
C708 C713 1.382 . S
C709 H680 0.950 . S
C709 C708 1.383 1_455 S
C709 C710 1.395 . S
C710 H681 0.950 . S
C710 C709 1.395 . S
C710 C711 1.288 1_455 S
C711 C710 1.288 1_655 S
C711 C712 1.392 . S
C712 H682 0.951 . S
C712 C711 1.392 . S
C712 C713 1.392 . S
C713 H683 0.949 . S
C713 C708 1.382 . S
C713 C712 1.392 . S
H714 C733 0.949 . S
H715 C734 0.950 . S
H716 C736 0.950 . S
H717 C737 0.950 . S
H718 C739 0.950 . S
H719 C742 0.950 . S
H720 C743 0.950 . S
H721 C745 0.951 . S
H722 C746 0.949 . S
H723 C748 0.949 . S
H724 C749 0.950 . S
H725 C751 0.950 . S
H726 C752 0.950 . S
H727 C754 0.950 . S
H728 C757 0.950 . S
H729 C758 0.950 . S
H730 C760 0.951 . S
H731 C761 0.949 . S
C732 C733 1.376 . S
C732 C737 1.386 . S
C732 C738 1.483 . S
C733 H714 0.949 . S
C733 C732 1.376 . S
C733 C734 1.397 . S
C734 H715 0.950 . S
C734 C733 1.397 . S
C734 C735 1.391 . S
C735 C734 1.391 . S
C735 C736 1.405 . S
C736 H716 0.950 . S
C736 C735 1.405 . S
C736 C737 1.367 . S
C737 H717 0.950 . S
C737 C732 1.386 . S
C737 C736 1.367 . S
C738 C732 1.483 . S
C738 C739 1.382 . S
C738 C740 1.403 . S
C739 H718 0.950 . S
C739 C738 1.382 . S
C739 C755 1.411 . S
C740 C738 1.403 . S
C740 C741 1.489 . S
C740 C754 1.411 . S
C741 C740 1.489 . S
C741 C742 1.383 . S
C741 C746 1.382 . S
C742 H719 0.950 . S
C742 C741 1.383 . S
C742 C743 1.395 . S
C743 H720 0.950 . S
C743 C742 1.395 . S
C743 C744 1.288 . S
C744 C743 1.288 . S
C744 C745 1.392 . S
C745 H721 0.951 . S
C745 C744 1.392 . S
C745 C746 1.392 . S
C746 H722 0.949 . S
C746 C741 1.382 . S
C746 C745 1.392 . S
C747 C748 1.376 . S
C747 C752 1.386 . S
C747 C753 1.483 . S
C748 H723 0.949 . S
C748 C747 1.376 . S
C748 C749 1.397 . S
C749 H724 0.950 . S
C749 C748 1.397 . S
C749 C750 1.391 . S
C750 C749 1.391 . S
C750 C751 1.405 . S
C751 H725 0.950 . S
C751 C750 1.405 . S
C751 C752 1.367 . S
C752 H726 0.950 . S
C752 C747 1.386 . S
C752 C751 1.367 . S
C753 C747 1.483 . S
C753 C754 1.382 . S
C753 C755 1.403 . S
C754 H727 0.950 . S
C754 C740 1.411 . S
C754 C753 1.382 . S
C755 C739 1.411 . S
C755 C753 1.403 . S
C755 C756 1.489 . S
C756 C755 1.489 . S
C756 C757 1.383 . S
C756 C761 1.382 . S
C757 H728 0.950 . S
C757 C756 1.383 . S
C757 C758 1.395 . S
C758 H729 0.950 . S
C758 C757 1.395 . S
C758 C759 1.288 . S
C759 C758 1.288 . S
C759 C760 1.392 . S
C760 H730 0.951 . S
C760 C759 1.392 . S
C760 C761 1.392 . S
C761 H731 0.949 . S
C761 C756 1.382 . S
C761 C760 1.392 . S
H762 C781 0.949 . S
H763 C782 0.950 . S
H764 C784 0.950 . S
H765 C785 0.950 . S
H766 C787 0.950 . S
H767 C790 0.950 . S
H768 C791 0.950 . S
H769 C793 0.951 . S
H770 C794 0.949 . S
H771 C796 0.949 . S
H772 C797 0.950 . S
H773 C799 0.950 . S
H774 C800 0.950 . S
H775 C802 0.950 . S
H776 C805 0.950 . S
H777 C806 0.950 . S
H778 C808 0.951 . S
H779 C809 0.949 . S
C780 C781 1.376 . S
C780 C785 1.386 1_545 S
C780 C786 1.483 . S
C781 H762 0.949 . S
C781 C780 1.376 . S
C781 C782 1.397 . S
C782 H763 0.950 . S
C782 C781 1.397 . S
C782 C783 1.391 . S
C783 C782 1.391 . S
C783 C784 1.405 1_545 S
C784 H764 0.950 . S
C784 C783 1.405 1_565 S
C784 C785 1.367 . S
C785 H765 0.950 . S
C785 C780 1.386 1_565 S
C785 C784 1.367 . S
C786 C780 1.483 . S
C786 C787 1.382 . S
C786 C788 1.403 1_545 S
C787 H766 0.950 . S
C787 C786 1.382 . S
C787 C803 1.411 . S
C788 C786 1.403 1_565 S
C788 C789 1.489 . S
C788 C802 1.411 . S
C789 C788 1.489 . S
C789 C790 1.383 1_565 S
C789 C794 1.382 . S
C790 H767 0.950 . S
C790 C789 1.383 1_545 S
C790 C791 1.395 . S
C791 H768 0.950 . S
C791 C790 1.395 . S
C791 C792 1.288 1_545 S
C792 C791 1.288 1_565 S
C792 C793 1.392 . S
C793 H769 0.951 . S
C793 C792 1.392 . S
C793 C794 1.392 . S
C794 H770 0.949 . S
C794 C789 1.382 . S
C794 C793 1.392 . S
C795 C796 1.376 . S
C795 C800 1.386 1_565 S
C795 C801 1.483 . S
C796 H771 0.949 . S
C796 C795 1.376 . S
C796 C797 1.397 . S
C797 H772 0.950 . S
C797 C796 1.397 . S
C797 C798 1.391 . S
C798 C797 1.391 . S
C798 C799 1.405 1_565 S
C799 H773 0.950 . S
C799 C798 1.405 1_545 S
C799 C800 1.367 . S
C800 H774 0.950 . S
C800 C795 1.386 1_545 S
C800 C799 1.367 . S
C801 C795 1.483 . S
C801 C802 1.382 . S
C801 C803 1.403 1_565 S
C802 H775 0.950 . S
C802 C788 1.411 . S
C802 C801 1.382 . S
C803 C787 1.411 . S
C803 C801 1.403 1_545 S
C803 C804 1.489 . S
C804 C803 1.489 . S
C804 C805 1.383 1_545 S
C804 C809 1.382 . S
C805 H776 0.950 . S
C805 C804 1.383 1_565 S
C805 C806 1.395 . S
C806 H777 0.950 . S
C806 C805 1.395 . S
C806 C807 1.288 1_565 S
C807 C806 1.288 1_545 S
C807 C808 1.392 . S
C808 H778 0.951 . S
C808 C807 1.392 . S
C808 C809 1.392 . S
C809 H779 0.949 . S
C809 C804 1.382 . S
C809 C808 1.392 . S
H810 C829 0.949 . S
H811 C830 0.950 . S
H812 C832 0.950 . S
H813 C833 0.950 . S
H814 C835 0.950 . S
H815 C838 0.950 . S
H816 C839 0.950 . S
H817 C841 0.951 . S
H818 C842 0.949 . S
H819 C844 0.949 . S
H820 C845 0.950 . S
H821 C847 0.950 . S
H822 C848 0.950 . S
H823 C850 0.950 . S
H824 C853 0.950 . S
H825 C854 0.950 . S
H826 C856 0.951 . S
H827 C857 0.949 . S
C828 C829 1.383 . S
C828 C833 1.383 1_545 S
C828 C834 1.505 . S
C829 H810 0.949 . S
C829 C828 1.383 . S
C829 C830 1.397 . S
C830 H811 0.950 . S
C830 C829 1.397 . S
C830 C831 1.391 1_545 S
C831 C830 1.391 1_565 S
C831 C832 1.405 . S
C832 H812 0.950 . S
C832 C831 1.405 . S
C832 C833 1.367 . S
C833 H813 0.950 . S
C833 C828 1.383 1_565 S
C833 C832 1.367 . S
C834 C828 1.505 . S
C834 C835 1.359 . S
C834 C836 1.398 1_545 S
C835 H814 0.950 . S
C835 C834 1.359 . S
C835 C851 1.445 . S
C836 C834 1.398 1_565 S
C836 C837 1.484 . S
C836 C850 1.436 . S
C837 C836 1.484 . S
C837 C838 1.347 1_565 S
C837 C842 1.402 . S
C838 H815 0.950 . S
C838 C837 1.347 1_545 S
C838 C839 1.395 . S
C839 H816 0.950 . S
C839 C838 1.395 . S
C839 C840 1.288 . S
C840 C839 1.288 . S
C840 C841 1.392 1_545 S
C841 H817 0.951 . S
C841 C840 1.392 1_565 S
C841 C842 1.392 . S
C842 H818 0.949 . S
C842 C837 1.402 . S
C842 C841 1.392 . S
C843 C844 1.371 . S
C843 C848 1.388 1_565 S
C843 C849 1.505 . S
C844 H819 0.949 . S
C844 C843 1.371 . S
C844 C845 1.397 . S
C845 H820 0.950 . S
C845 C844 1.397 . S
C845 C846 1.391 1_565 S
C846 C845 1.391 1_545 S
C846 C847 1.405 . S
C847 H821 0.950 . S
C847 C846 1.405 . S
C847 C848 1.367 . S
C848 H822 0.950 . S
C848 C843 1.388 1_545 S
C848 C847 1.367 . S
C849 C843 1.505 . S
C849 C850 1.364 . S
C849 C851 1.398 1_565 S
C850 H823 0.950 . S
C850 C836 1.436 . S
C850 C849 1.364 . S
C851 C835 1.445 . S
C851 C849 1.398 1_545 S
C851 C852 1.484 . S
C852 C851 1.484 . S
C852 C853 1.332 1_545 S
C852 C857 1.410 . S
C853 H824 0.950 . S
C853 C852 1.332 1_565 S
C853 C854 1.395 . S
C854 H825 0.950 . S
C854 C853 1.395 . S
C854 C855 1.288 . S
C855 C854 1.288 . S
C855 C856 1.392 1_565 S
C856 H826 0.951 . S
C856 C855 1.392 1_545 S
C856 C857 1.392 . S
C857 H827 0.949 . S
C857 C852 1.410 . S
C857 C856 1.392 . S
H858 C877 0.949 . S
H859 C878 0.950 . S
H860 C880 0.950 . S
H861 C881 0.950 . S
H862 C883 0.950 . S
H863 C886 0.950 . S
H864 C887 0.950 . S
H865 C889 0.951 . S
H866 C890 0.949 . S
H867 C892 0.949 . S
H868 C893 0.950 . S
H869 C895 0.950 . S
H870 C896 0.950 . S
H871 C898 0.950 . S
H872 C901 0.950 . S
H873 C902 0.950 . S
H874 C904 0.951 . S
H875 C905 0.949 . S
C876 C877 1.376 . S
C876 C881 1.386 1_455 S
C876 C882 1.483 . S
C877 H858 0.949 . S
C877 C876 1.376 . S
C877 C878 1.397 . S
C878 H859 0.950 . S
C878 C877 1.397 . S
C878 C879 1.391 . S
C879 C878 1.391 . S
C879 C880 1.405 1_455 S
C880 H860 0.950 . S
C880 C879 1.405 1_655 S
C880 C881 1.367 . S
C881 H861 0.950 . S
C881 C876 1.386 1_655 S
C881 C880 1.367 . S
C882 C876 1.483 . S
C882 C883 1.382 . S
C882 C884 1.403 1_455 S
C883 H862 0.950 . S
C883 C882 1.382 . S
C883 C899 1.411 . S
C884 C882 1.403 1_655 S
C884 C885 1.489 . S
C884 C898 1.411 . S
C885 C884 1.489 . S
C885 C886 1.383 1_655 S
C885 C890 1.382 . S
C886 H863 0.950 . S
C886 C885 1.383 1_455 S
C886 C887 1.395 . S
C887 H864 0.950 . S
C887 C886 1.395 . S
C887 C888 1.288 1_455 S
C888 C887 1.288 1_655 S
C888 C889 1.392 . S
C889 H865 0.951 . S
C889 C888 1.392 . S
C889 C890 1.392 . S
C890 H866 0.949 . S
C890 C885 1.382 . S
C890 C889 1.392 . S
C891 C892 1.376 . S
C891 C896 1.386 1_655 S
C891 C897 1.483 . S
C892 H867 0.949 . S
C892 C891 1.376 . S
C892 C893 1.397 . S
C893 H868 0.950 . S
C893 C892 1.397 . S
C893 C894 1.391 . S
C894 C893 1.391 . S
C894 C895 1.405 1_655 S
C895 H869 0.950 . S
C895 C894 1.405 1_455 S
C895 C896 1.367 . S
C896 H870 0.950 . S
C896 C891 1.386 1_455 S
C896 C895 1.367 . S
C897 C891 1.483 . S
C897 C898 1.382 . S
C897 C899 1.403 1_655 S
C898 H871 0.950 . S
C898 C884 1.411 . S
C898 C897 1.382 . S
C899 C883 1.411 . S
C899 C897 1.403 1_455 S
C899 C900 1.489 . S
C900 C899 1.489 . S
C900 C901 1.383 1_455 S
C900 C905 1.382 . S
C901 H872 0.950 . S
C901 C900 1.383 1_655 S
C901 C902 1.395 . S
C902 H873 0.950 . S
C902 C901 1.395 . S
C902 C903 1.288 1_655 S
C903 C902 1.288 1_455 S
C903 C904 1.392 . S
C904 H874 0.951 . S
C904 C903 1.392 . S
C904 C905 1.392 . S
C905 H875 0.949 . S
C905 C900 1.382 . S
C905 C904 1.392 . S
H906 C925 0.949 . S
H907 C926 0.950 . S
H908 C928 0.950 . S
H909 C929 0.950 . S
H910 C931 0.950 . S
H911 C934 0.950 . S
H912 C935 0.950 . S
H913 C937 0.951 . S
H914 C938 0.949 . S
H915 C940 0.949 . S
H916 C941 0.950 . S
H917 C943 0.950 . S
H918 C944 0.950 . S
H919 C946 0.950 . S
H920 C949 0.950 . S
H921 C950 0.950 . S
H922 C952 0.951 . S
H923 C953 0.949 . S
C924 C925 1.376 . S
C924 C929 1.386 . S
C924 C930 1.483 . S
C925 H906 0.949 . S
C925 C924 1.376 . S
C925 C926 1.397 . S
C926 H907 0.950 . S
C926 C925 1.397 . S
C926 C927 1.391 . S
C927 C926 1.391 . S
C927 C928 1.405 . S
C928 H908 0.950 . S
C928 C927 1.405 . S
C928 C929 1.367 . S
C929 H909 0.950 . S
C929 C924 1.386 . S
C929 C928 1.367 . S
C930 C924 1.483 . S
C930 C931 1.382 . S
C930 C932 1.403 . S
C931 H910 0.950 . S
C931 C930 1.382 . S
C931 C947 1.411 . S
C932 C930 1.403 . S
C932 C933 1.489 . S
C932 C946 1.411 . S
C933 C932 1.489 . S
C933 C934 1.383 . S
C933 C938 1.382 . S
C934 H911 0.950 . S
C934 C933 1.383 . S
C934 C935 1.395 . S
C935 H912 0.950 . S
C935 C934 1.395 . S
C935 C936 1.288 . S
C936 C935 1.288 . S
C936 C937 1.392 . S
C937 H913 0.951 . S
C937 C936 1.392 . S
C937 C938 1.392 . S
C938 H914 0.949 . S
C938 C933 1.382 . S
C938 C937 1.392 . S
C939 C940 1.376 . S
C939 C944 1.386 . S
C939 C945 1.483 . S
C940 H915 0.949 . S
C940 C939 1.376 . S
C940 C941 1.397 . S
C941 H916 0.950 . S
C941 C940 1.397 . S
C941 C942 1.391 . S
C942 C941 1.391 . S
C942 C943 1.405 . S
C943 H917 0.950 . S
C943 C942 1.405 . S
C943 C944 1.367 . S
C944 H918 0.950 . S
C944 C939 1.386 . S
C944 C943 1.367 . S
C945 C939 1.483 . S
C945 C946 1.382 . S
C945 C947 1.403 . S
C946 H919 0.950 . S
C946 C932 1.411 . S
C946 C945 1.382 . S
C947 C931 1.411 . S
C947 C945 1.403 . S
C947 C948 1.489 . S
C948 C947 1.489 . S
C948 C949 1.383 . S
C948 C953 1.382 . S
C949 H920 0.950 . S
C949 C948 1.383 . S
C949 C950 1.395 . S
C950 H921 0.950 . S
C950 C949 1.395 . S
C950 C951 1.288 . S
C951 C950 1.288 . S
C951 C952 1.392 . S
C952 H922 0.951 . S
C952 C951 1.392 . S
C952 C953 1.392 . S
C953 H923 0.949 . S
C953 C948 1.382 . S
C953 C952 1.392 . S
H954 C973 0.949 . S
H955 C974 0.950 . S
H956 C976 0.950 . S
H957 C977 0.950 . S
H958 C979 0.950 . S
H959 C982 0.950 . S
H960 C983 0.950 . S
H961 C985 0.951 . S
H962 C986 0.949 . S
H963 C988 0.949 . S
H964 C989 0.950 . S
H965 C991 0.950 . S
H966 C992 0.950 . S
H967 C994 0.950 . S
H968 C997 0.950 . S
H969 C998 0.950 . S
H970 C1000 0.951 . S
H971 C1001 0.949 . S
C972 C973 1.376 . S
C972 C977 1.386 . S
C972 C978 1.483 . S
C973 H954 0.949 . S
C973 C972 1.376 . S
C973 C974 1.397 . S
C974 H955 0.950 . S
C974 C973 1.397 . S
C974 C975 1.391 . S
C975 C974 1.391 . S
C975 C976 1.405 . S
C976 H956 0.950 . S
C976 C975 1.405 . S
C976 C977 1.367 . S
C977 H957 0.950 . S
C977 C972 1.386 . S
C977 C976 1.367 . S
C978 C972 1.483 . S
C978 C979 1.382 . S
C978 C980 1.403 . S
C979 H958 0.950 . S
C979 C978 1.382 . S
C979 C995 1.411 . S
C980 C978 1.403 . S
C980 C981 1.489 . S
C980 C994 1.411 . S
C981 C980 1.489 . S
C981 C982 1.383 . S
C981 C986 1.382 . S
C982 H959 0.950 . S
C982 C981 1.383 . S
C982 C983 1.395 . S
C983 H960 0.950 . S
C983 C982 1.395 . S
C983 C984 1.288 . S
C984 C983 1.288 . S
C984 C985 1.392 . S
C985 H961 0.951 . S
C985 C984 1.392 . S
C985 C986 1.392 . S
C986 H962 0.949 . S
C986 C981 1.382 . S
C986 C985 1.392 . S
C987 C988 1.376 . S
C987 C992 1.386 . S
C987 C993 1.483 . S
C988 H963 0.949 . S
C988 C987 1.376 . S
C988 C989 1.397 . S
C989 H964 0.950 . S
C989 C988 1.397 . S
C989 C990 1.391 . S
C990 C989 1.391 . S
C990 C991 1.405 . S
C991 H965 0.950 . S
C991 C990 1.405 . S
C991 C992 1.367 . S
C992 H966 0.950 . S
C992 C987 1.386 . S
C992 C991 1.367 . S
C993 C987 1.483 . S
C993 C994 1.382 . S
C993 C995 1.403 . S
C994 H967 0.950 . S
C994 C980 1.411 . S
C994 C993 1.382 . S
C995 C979 1.411 . S
C995 C993 1.403 . S
C995 C996 1.489 . S
C996 C995 1.489 . S
C996 C997 1.383 . S
C996 C1001 1.382 . S
C997 H968 0.950 . S
C997 C996 1.383 . S
C997 C998 1.395 . S
C998 H969 0.950 . S
C998 C997 1.395 . S
C998 C999 1.288 . S
C999 C998 1.288 . S
C999 C1000 1.392 . S
C1000 H970 0.951 . S
C1000 C999 1.392 . S
C1000 C1001 1.392 . S
C1001 H971 0.949 . S
C1001 C996 1.382 . S
C1001 C1000 1.392 . S
H1002 C1021 0.949 . S
H1003 C1022 0.950 . S
H1004 C1024 0.950 . S
H1005 C1025 0.950 . S
H1006 C1027 0.950 . S
H1007 C1030 0.950 . S
H1008 C1031 0.950 . S
H1009 C1033 0.951 . S
H1010 C1034 0.949 . S
H1011 C1036 0.949 . S
H1012 C1037 0.950 . S
H1013 C1039 0.950 . S
H1014 C1040 0.950 . S
H1015 C1042 0.950 . S
H1016 C1045 0.950 . S
H1017 C1046 0.950 . S
H1018 C1048 0.951 . S
H1019 C1049 0.949 . S
C1020 C1021 1.376 . S
C1020 C1025 1.386 . S
C1020 C1026 1.483 . S
C1021 H1002 0.949 . S
C1021 C1020 1.376 . S
C1021 C1022 1.397 . S
C1022 H1003 0.950 . S
C1022 C1021 1.397 . S
C1022 C1023 1.391 . S
C1023 C1022 1.391 . S
C1023 C1024 1.405 . S
C1024 H1004 0.950 . S
C1024 C1023 1.405 . S
C1024 C1025 1.367 . S
C1025 H1005 0.950 . S
C1025 C1020 1.386 . S
C1025 C1024 1.367 . S
C1026 C1020 1.483 . S
C1026 C1027 1.382 . S
C1026 C1028 1.403 . S
C1027 H1006 0.950 . S
C1027 C1026 1.382 . S
C1027 C1043 1.411 . S
C1028 C1026 1.403 . S
C1028 C1029 1.489 . S
C1028 C1042 1.411 . S
C1029 C1028 1.489 . S
C1029 C1030 1.383 . S
C1029 C1034 1.382 . S
C1030 H1007 0.950 . S
C1030 C1029 1.383 . S
C1030 C1031 1.395 . S
C1031 H1008 0.950 . S
C1031 C1030 1.395 . S
C1031 C1032 1.288 . S
C1032 C1031 1.288 . S
C1032 C1033 1.392 . S
C1033 H1009 0.951 . S
C1033 C1032 1.392 . S
C1033 C1034 1.392 . S
C1034 H1010 0.949 . S
C1034 C1029 1.382 . S
C1034 C1033 1.392 . S
C1035 C1036 1.376 . S
C1035 C1040 1.386 . S
C1035 C1041 1.483 . S
C1036 H1011 0.949 . S
C1036 C1035 1.376 . S
C1036 C1037 1.397 . S
C1037 H1012 0.950 . S
C1037 C1036 1.397 . S
C1037 C1038 1.391 . S
C1038 C1037 1.391 . S
C1038 C1039 1.405 . S
C1039 H1013 0.950 . S
C1039 C1038 1.405 . S
C1039 C1040 1.367 . S
C1040 H1014 0.950 . S
C1040 C1035 1.386 . S
C1040 C1039 1.367 . S
C1041 C1035 1.483 . S
C1041 C1042 1.382 . S
C1041 C1043 1.403 . S
C1042 H1015 0.950 . S
C1042 C1028 1.411 . S
C1042 C1041 1.382 . S
C1043 C1027 1.411 . S
C1043 C1041 1.403 . S
C1043 C1044 1.489 . S
C1044 C1043 1.489 . S
C1044 C1045 1.383 . S
C1044 C1049 1.382 . S
C1045 H1016 0.950 . S
C1045 C1044 1.383 . S
C1045 C1046 1.395 . S
C1046 H1017 0.950 . S
C1046 C1045 1.395 . S
C1046 C1047 1.288 . S
C1047 C1046 1.288 . S
C1047 C1048 1.392 . S
C1048 H1018 0.951 . S
C1048 C1047 1.392 . S
C1048 C1049 1.392 . S
C1049 H1019 0.949 . S
C1049 C1044 1.382 . S
C1049 C1048 1.392 . S
H1050 C1069 0.949 . S
H1051 C1070 0.950 . S
H1052 C1072 0.950 . S
H1053 C1073 0.950 . S
H1054 C1075 0.950 . S
H1055 C1078 0.950 . S
H1056 C1079 0.950 . S
H1057 C1081 0.951 . S
H1058 C1082 0.949 . S
H1059 C1084 0.949 . S
H1060 C1085 0.950 . S
H1061 C1087 0.950 . S
H1062 C1088 0.950 . S
H1063 C1090 0.950 . S
H1064 C1093 0.950 . S
H1065 C1094 0.950 . S
H1066 C1096 0.951 . S
H1067 C1097 0.949 . S
C1068 C1069 1.376 . S
C1068 C1073 1.386 . S
C1068 C1074 1.483 . S
C1069 H1050 0.949 . S
C1069 C1068 1.376 . S
C1069 C1070 1.397 . S
C1070 H1051 0.950 . S
C1070 C1069 1.397 . S
C1070 C1071 1.391 . S
C1071 C1070 1.391 . S
C1071 C1072 1.405 . S
C1072 H1052 0.950 . S
C1072 C1071 1.405 . S
C1072 C1073 1.367 . S
C1073 H1053 0.950 . S
C1073 C1068 1.386 . S
C1073 C1072 1.367 . S
C1074 C1068 1.483 . S
C1074 C1075 1.382 . S
C1074 C1076 1.403 . S
C1075 H1054 0.950 . S
C1075 C1074 1.382 . S
C1075 C1091 1.411 . S
C1076 C1074 1.403 . S
C1076 C1077 1.489 . S
C1076 C1090 1.411 . S
C1077 C1076 1.489 . S
C1077 C1078 1.383 . S
C1077 C1082 1.382 . S
C1078 H1055 0.950 . S
C1078 C1077 1.383 . S
C1078 C1079 1.395 . S
C1079 H1056 0.950 . S
C1079 C1078 1.395 . S
C1079 C1080 1.288 . S
C1080 C1079 1.288 . S
C1080 C1081 1.392 . S
C1081 H1057 0.951 . S
C1081 C1080 1.392 . S
C1081 C1082 1.392 . S
C1082 H1058 0.949 . S
C1082 C1077 1.382 . S
C1082 C1081 1.392 . S
C1083 C1084 1.376 . S
C1083 C1088 1.386 . S
C1083 C1089 1.483 . S
C1084 H1059 0.949 . S
C1084 C1083 1.376 . S
C1084 C1085 1.397 . S
C1085 H1060 0.950 . S
C1085 C1084 1.397 . S
C1085 C1086 1.391 . S
C1086 C1085 1.391 . S
C1086 C1087 1.405 . S
C1087 H1061 0.950 . S
C1087 C1086 1.405 . S
C1087 C1088 1.367 . S
C1088 H1062 0.950 . S
C1088 C1083 1.386 . S
C1088 C1087 1.367 . S
C1089 C1083 1.483 . S
C1089 C1090 1.382 . S
C1089 C1091 1.403 . S
C1090 H1063 0.950 . S
C1090 C1076 1.411 . S
C1090 C1089 1.382 . S
C1091 C1075 1.411 . S
C1091 C1089 1.403 . S
C1091 C1092 1.489 . S
C1092 C1091 1.489 . S
C1092 C1093 1.383 . S
C1092 C1097 1.382 . S
C1093 H1064 0.950 . S
C1093 C1092 1.383 . S
C1093 C1094 1.395 . S
C1094 H1065 0.950 . S
C1094 C1093 1.395 . S
C1094 C1095 1.288 . S
C1095 C1094 1.288 . S
C1095 C1096 1.392 . S
C1096 H1066 0.951 . S
C1096 C1095 1.392 . S
C1096 C1097 1.392 . S
C1097 H1067 0.949 . S
C1097 C1092 1.382 . S
C1097 C1096 1.392 . S
H1098 C1104 0.930 . S
H1099 C1107 0.930 . S
H1100 C1108 0.930 . S
H1101 C1109 0.930 . S
H1102 C1112 0.930 . S
H1103 C1113 0.930 . S
C1104 H1098 0.930 . S
C1104 C1105 1.355 1_455 S
C1104 C1106 1.415 . S
C1105 C1104 1.355 1_655 S
C1105 C1107 1.419 . S
C1106 C1104 1.415 . S
C1106 C1111 1.425 1_455 S
C1106 C1113 1.409 . S
C1107 H1099 0.930 . S
C1107 C1105 1.419 . S
C1107 C1108 1.362 . S
C1108 H1100 0.930 . S
C1108 C1107 1.362 . S
C1108 C1111 1.409 . S
C1109 H1101 0.930 . S
C1109 C1110 1.387 . S
C1109 C1111 1.415 . S
C1110 C1109 1.387 . S
C1110 C1112 1.351 1_655 S
C1111 C1106 1.425 1_655 S
C1111 C1108 1.409 . S
C1111 C1109 1.415 . S
C1112 H1102 0.930 . S
C1112 C1110 1.351 1_455 S
C1112 C1113 1.362 . S
C1113 H1103 0.930 . S
C1113 C1106 1.409 . S
C1113 C1112 1.362 . S
H1114 C1120 0.930 . S
H1115 C1123 0.930 . S
H1116 C1124 0.930 . S
H1117 C1125 0.930 . S
H1118 C1128 0.930 . S
H1119 C1129 0.930 . S
C1120 H1114 0.930 . S
C1120 C1121 1.355 . S
C1120 C1122 1.415 . S
C1121 C1120 1.355 . S
C1121 C1123 1.419 . S
C1122 C1120 1.415 . S
C1122 C1127 1.425 . S
C1122 C1129 1.409 . S
C1123 H1115 0.930 . S
C1123 C1121 1.419 . S
C1123 C1124 1.362 . S
C1124 H1116 0.930 . S
C1124 C1123 1.362 . S
C1124 C1127 1.409 . S
C1125 H1117 0.930 . S
C1125 C1126 1.355 . S
C1125 C1127 1.415 . S
C1126 C1125 1.355 . S
C1126 C1128 1.419 . S
C1127 C1122 1.425 . S
C1127 C1124 1.409 . S
C1127 C1125 1.415 . S
C1128 H1118 0.930 . S
C1128 C1126 1.419 . S
C1128 C1129 1.362 . S
C1129 H1119 0.930 . S
C1129 C1122 1.409 . S
C1129 C1128 1.362 . S
H1130 C1136 0.930 . S
H1131 C1139 0.930 . S
H1132 C1140 0.930 . S
H1133 C1141 0.930 . S
H1134 C1144 0.930 . S
H1135 C1145 0.930 . S
C1136 H1130 0.930 . S
C1136 C1137 1.355 1_565 S
C1136 C1138 1.415 . S
C1137 C1136 1.355 1_545 S
C1137 C1139 1.419 . S
C1138 C1136 1.415 . S
C1138 C1143 1.425 1_565 S
C1138 C1145 1.409 . S
C1139 H1131 0.930 . S
C1139 C1137 1.419 . S
C1139 C1140 1.362 . S
C1140 H1132 0.930 . S
C1140 C1139 1.362 . S
C1140 C1143 1.409 . S
C1141 H1133 0.930 . S
C1141 C1142 1.355 . S
C1141 C1143 1.415 . S
C1142 C1141 1.355 . S
C1142 C1144 1.419 1_545 S
C1143 C1138 1.425 1_545 S
C1143 C1140 1.409 . S
C1143 C1141 1.415 . S
C1144 H1134 0.930 . S
C1144 C1142 1.419 1_565 S
C1144 C1145 1.362 . S
C1145 H1135 0.930 . S
C1145 C1138 1.409 . S
C1145 C1144 1.362 . S
H1146 C1152 0.930 . S
H1147 C1155 0.930 . S
H1148 C1156 0.930 . S
H1149 C1157 0.930 . S
H1150 C1160 0.930 . S
H1151 C1161 0.930 . S
C1152 H1146 0.930 . S
C1152 C1153 1.355 1_565 S
C1152 C1154 1.415 . S
C1153 C1152 1.355 1_545 S
C1153 C1155 1.419 . S
C1154 C1152 1.415 . S
C1154 C1159 1.425 1_565 S
C1154 C1161 1.409 . S
C1155 H1147 0.930 . S
C1155 C1153 1.419 . S
C1155 C1156 1.362 . S
C1156 H1148 0.930 . S
C1156 C1155 1.362 . S
C1156 C1159 1.409 . S
C1157 H1149 0.930 . S
C1157 C1158 1.355 1_545 S
C1157 C1159 1.415 . S
C1158 C1157 1.355 1_565 S
C1158 C1160 1.419 . S
C1159 C1154 1.425 1_545 S
C1159 C1156 1.409 . S
C1159 C1157 1.415 . S
C1160 H1150 0.930 . S
C1160 C1158 1.419 . S
C1160 C1161 1.362 . S
C1161 H1151 0.930 . S
C1161 C1154 1.409 . S
C1161 C1160 1.362 . S
H1162 C1168 0.930 . S
H1163 C1171 0.930 . S
H1164 C1172 0.930 . S
H1165 C1173 0.930 . S
H1166 C1176 0.930 . S
H1167 C1177 0.930 . S
C1168 H1162 0.930 . S
C1168 C1169 1.348 1_455 S
C1168 C1170 1.415 . S
C1169 C1168 1.348 1_655 S
C1169 C1171 1.432 . S
C1170 C1168 1.415 . S
C1170 C1175 1.425 1_455 S
C1170 C1177 1.409 . S
C1171 H1163 0.930 . S
C1171 C1169 1.432 . S
C1171 C1172 1.362 . S
C1172 H1164 0.930 . S
C1172 C1171 1.362 . S
C1172 C1175 1.409 . S
C1173 H1165 0.930 . S
C1173 C1174 1.355 1_655 S
C1173 C1175 1.415 . S
C1174 C1173 1.355 1_455 S
C1174 C1176 1.419 . S
C1175 C1170 1.425 1_655 S
C1175 C1172 1.409 . S
C1175 C1173 1.415 . S
C1176 H1166 0.930 . S
C1176 C1174 1.419 . S
C1176 C1177 1.362 . S
C1177 H1167 0.930 . S
C1177 C1170 1.409 . S
C1177 C1176 1.362 . S
H1178 C1184 0.930 . S
H1179 C1187 0.930 . S
H1180 C1188 0.930 . S
H1181 C1189 0.930 . S
H1182 C1192 0.930 . S
H1183 C1193 0.930 . S
C1184 H1178 0.930 . S
C1184 C1185 1.355 . S
C1184 C1186 1.415 . S
C1185 C1184 1.355 . S
C1185 C1187 1.419 . S
C1186 C1184 1.415 . S
C1186 C1191 1.425 . S
C1186 C1193 1.409 . S
C1187 H1179 0.930 . S
C1187 C1185 1.419 . S
C1187 C1188 1.362 . S
C1188 H1180 0.930 . S
C1188 C1187 1.362 . S
C1188 C1191 1.409 . S
C1189 H1181 0.930 . S
C1189 C1190 1.355 . S
C1189 C1191 1.415 . S
C1190 C1189 1.355 . S
C1190 C1192 1.419 . S
C1191 C1186 1.425 . S
C1191 C1188 1.409 . S
C1191 C1189 1.415 . S
C1192 H1182 0.930 . S
C1192 C1190 1.419 . S
C1192 C1193 1.362 . S
C1193 H1183 0.930 . S
C1193 C1186 1.409 . S
C1193 C1192 1.362 . S
H1194 C1200 0.930 . S
H1195 C1203 0.930 . S
H1196 C1204 0.930 . S
H1197 C1205 0.927 1_655 S
H1198 C1208 0.930 . S
H1199 C1209 0.930 . S
C1200 H1194 0.930 . S
C1200 C1201 1.355 . S
C1200 C1202 1.415 . S
C1201 C1200 1.355 . S
C1201 C1203 1.419 1_455 S
C1202 C1200 1.415 . S
C1202 C1207 1.442 . S
C1202 C1209 1.409 . S
C1203 H1195 0.930 . S
C1203 C1201 1.419 1_655 S
C1203 C1204 1.362 . S
C1204 H1196 0.930 . S
C1204 C1203 1.362 . S
C1204 C1207 1.382 1_655 S
C1205 H1197 0.927 1_455 S
C1205 C1206 1.359 . S
C1205 C1207 1.426 . S
C1206 C1205 1.359 . S
C1206 C1208 1.419 . S
C1207 C1202 1.442 . S
C1207 C1204 1.382 1_455 S
C1207 C1205 1.426 . S
C1208 H1198 0.930 . S
C1208 C1206 1.419 . S
C1208 C1209 1.362 . S
C1209 H1199 0.930 . S
C1209 C1202 1.409 . S
C1209 C1208 1.362 . S
H1210 C1216 0.930 . S
H1211 C1219 0.930 . S
H1212 C1220 0.930 . S
H1213 C1221 0.930 . S
H1214 C1224 0.930 . S
H1215 C1225 0.930 . S
C1216 H1210 0.930 . S
C1216 C1217 1.355 . S
C1216 C1218 1.415 . S
C1217 C1216 1.355 . S
C1217 C1219 1.419 . S
C1218 C1216 1.415 . S
C1218 C1223 1.425 . S
C1218 C1225 1.409 . S
C1219 H1211 0.930 . S
C1219 C1217 1.419 . S
C1219 C1220 1.362 . S
C1220 H1212 0.930 . S
C1220 C1219 1.362 . S
C1220 C1223 1.409 . S
C1221 H1213 0.930 . S
C1221 C1222 1.355 . S
C1221 C1223 1.415 . S
C1222 C1221 1.355 . S
C1222 C1224 1.419 . S
C1223 C1218 1.425 . S
C1223 C1220 1.409 . S
C1223 C1221 1.415 . S
C1224 H1214 0.930 . S
C1224 C1222 1.419 . S
C1224 C1225 1.362 . S
C1225 H1215 0.930 . S
C1225 C1218 1.409 . S
C1225 C1224 1.362 . S
H1226 C1232 0.930 . S
H1227 C1235 0.930 . S
H1228 C1236 0.930 . S
H1229 C1237 0.930 . S
H1230 C1240 0.930 . S
H1231 C1241 0.930 . S
C1232 H1226 0.930 . S
C1232 C1233 1.346 1_545 S
C1232 C1234 1.415 . S
C1233 C1232 1.346 1_565 S
C1233 C1235 1.415 . S
C1234 C1232 1.415 . S
C1234 C1239 1.425 1_545 S
C1234 C1241 1.409 . S
C1235 H1227 0.930 . S
C1235 C1233 1.415 . S
C1235 C1236 1.362 . S
C1236 H1228 0.930 . S
C1236 C1235 1.362 . S
C1236 C1239 1.409 . S
C1237 H1229 0.930 . S
C1237 C1238 1.355 . S
C1237 C1239 1.415 . S
C1238 C1237 1.355 . S
C1238 C1240 1.419 1_565 S
C1239 C1234 1.425 1_565 S
C1239 C1236 1.409 . S
C1239 C1237 1.415 . S
C1240 H1230 0.930 . S
C1240 C1238 1.419 1_545 S
C1240 C1241 1.362 . S
C1241 H1231 0.930 . S
C1241 C1234 1.409 . S
C1241 C1240 1.362 . S
H1242 C1248 0.930 . S
H1243 C1251 0.930 . S
H1244 C1252 0.930 . S
H1245 C1253 0.930 . S
H1246 C1256 0.930 . S
H1247 C1257 0.930 . S
C1248 H1242 0.930 . S
C1248 C1249 1.355 1_565 S
C1248 C1250 1.415 . S
C1249 C1248 1.355 1_545 S
C1249 C1251 1.419 . S
C1250 C1248 1.415 . S
C1250 C1255 1.425 1_565 S
C1250 C1257 1.409 . S
C1251 H1243 0.930 . S
C1251 C1249 1.419 . S
C1251 C1252 1.362 . S
C1252 H1244 0.930 . S
C1252 C1251 1.362 . S
C1252 C1255 1.409 . S
C1253 H1245 0.930 . S
C1253 C1254 1.355 . S
C1253 C1255 1.415 . S
C1254 C1253 1.355 . S
C1254 C1256 1.419 1_545 S
C1255 C1250 1.425 1_545 S
C1255 C1252 1.409 . S
C1255 C1253 1.415 . S
C1256 H1246 0.930 . S
C1256 C1254 1.419 1_565 S
C1256 C1257 1.362 . S
C1257 H1247 0.930 . S
C1257 C1250 1.409 . S
C1257 C1256 1.362 . S
H1258 C1264 0.930 . S
H1259 C1267 0.930 . S
H1260 C1268 0.930 . S
H1261 C1269 0.930 . S
H1262 C1272 0.930 . S
H1263 C1273 0.930 . S
C1264 H1258 0.930 . S
C1264 C1265 1.355 1_455 S
C1264 C1266 1.415 . S
C1265 C1264 1.355 1_655 S
C1265 C1267 1.419 . S
C1266 C1264 1.415 . S
C1266 C1271 1.425 1_455 S
C1266 C1273 1.409 . S
C1267 H1259 0.930 . S
C1267 C1265 1.419 . S
C1267 C1268 1.362 . S
C1268 H1260 0.930 . S
C1268 C1267 1.362 . S
C1268 C1271 1.409 . S
C1269 H1261 0.930 . S
C1269 C1270 1.355 . S
C1269 C1271 1.415 . S
C1270 C1269 1.355 . S
C1270 C1272 1.419 1_655 S
C1271 C1266 1.425 1_655 S
C1271 C1268 1.409 . S
C1271 C1269 1.415 . S
C1272 H1262 0.930 . S
C1272 C1270 1.419 1_455 S
C1272 C1273 1.362 . S
C1273 H1263 0.930 . S
C1273 C1266 1.409 . S
C1273 C1272 1.362 . S
H1274 C1280 0.930 . S
H1275 C1283 0.930 . S
H1276 C1284 0.930 . S
H1277 C1285 0.930 . S
H1278 C1288 0.930 . S
H1279 C1289 0.930 . S
C1280 H1274 0.930 . S
C1280 C1281 1.355 . S
C1280 C1282 1.415 . S
C1281 C1280 1.355 . S
C1281 C1283 1.419 . S
C1282 C1280 1.415 . S
C1282 C1287 1.425 . S
C1282 C1289 1.409 . S
C1283 H1275 0.930 . S
C1283 C1281 1.419 . S
C1283 C1284 1.362 . S
C1284 H1276 0.930 . S
C1284 C1283 1.362 . S
C1284 C1287 1.409 . S
C1285 H1277 0.930 . S
C1285 C1286 1.355 . S
C1285 C1287 1.415 . S
C1286 C1285 1.355 . S
C1286 C1288 1.419 . S
C1287 C1282 1.425 . S
C1287 C1284 1.409 . S
C1287 C1285 1.415 . S
C1288 H1278 0.930 . S
C1288 C1286 1.419 . S
C1288 C1289 1.362 . S
C1289 H1279 0.930 . S
C1289 C1282 1.409 . S
C1289 C1288 1.362 . S
H1290 C1296 0.930 . S
H1291 C1299 0.930 . S
H1292 C1300 0.930 . S
H1293 C1301 0.930 . S
H1294 C1304 0.930 . S
H1295 C1305 0.930 . S
C1296 H1290 0.930 . S
C1296 C1297 1.355 . S
C1296 C1298 1.415 . S
C1297 C1296 1.355 . S
C1297 C1299 1.419 . S
C1298 C1296 1.415 . S
C1298 C1303 1.425 . S
C1298 C1305 1.409 . S
C1299 H1291 0.930 . S
C1299 C1297 1.419 . S
C1299 C1300 1.362 . S
C1300 H1292 0.930 . S
C1300 C1299 1.362 . S
C1300 C1303 1.409 . S
C1301 H1293 0.930 . S
C1301 C1302 1.355 . S
C1301 C1303 1.415 . S
C1302 C1301 1.355 . S
C1302 C1304 1.419 . S
C1303 C1298 1.425 . S
C1303 C1300 1.409 . S
C1303 C1301 1.415 . S
C1304 H1294 0.930 . S
C1304 C1302 1.419 . S
C1304 C1305 1.362 . S
C1305 H1295 0.930 . S
C1305 C1298 1.409 . S
C1305 C1304 1.362 . S
H1306 C1312 0.930 . S
H1307 C1315 0.930 . S
H1308 C1316 0.930 . S
H1309 C1317 0.930 . S
H1310 C1320 0.930 . S
H1311 C1321 0.930 . S
C1312 H1306 0.930 . S
C1312 C1313 1.355 . S
C1312 C1314 1.415 . S
C1313 C1312 1.355 . S
C1313 C1315 1.419 . S
C1314 C1312 1.415 . S
C1314 C1319 1.425 . S
C1314 C1321 1.409 . S
C1315 H1307 0.930 . S
C1315 C1313 1.419 . S
C1315 C1316 1.362 . S
C1316 H1308 0.930 . S
C1316 C1315 1.362 . S
C1316 C1319 1.409 . S
C1317 H1309 0.930 . S
C1317 C1318 1.355 . S
C1317 C1319 1.415 . S
C1318 C1317 1.355 . S
C1318 C1320 1.419 . S
C1319 C1314 1.425 . S
C1319 C1316 1.409 . S
C1319 C1317 1.415 . S
C1320 H1310 0.930 . S
C1320 C1318 1.419 . S
C1320 C1321 1.362 . S
C1321 H1311 0.930 . S
C1321 C1314 1.409 . S
C1321 C1320 1.362 . S
H1322 C1328 0.930 . S
H1323 C1331 0.930 . S
H1324 C1332 0.930 . S
H1325 C1333 0.930 . S
H1326 C1336 0.930 . S
H1327 C1337 0.930 . S
C1328 H1322 0.930 . S
C1328 C1329 1.355 . S
C1328 C1330 1.415 . S
C1329 C1328 1.355 . S
C1329 C1331 1.419 . S
C1330 C1328 1.415 . S
C1330 C1335 1.425 . S
C1330 C1337 1.409 . S
C1331 H1323 0.930 . S
C1331 C1329 1.419 . S
C1331 C1332 1.362 . S
C1332 H1324 0.930 . S
C1332 C1331 1.362 . S
C1332 C1335 1.409 . S
C1333 H1325 0.930 . S
C1333 C1334 1.355 . S
C1333 C1335 1.415 . S
C1334 C1333 1.355 . S
C1334 C1336 1.419 . S
C1335 C1330 1.425 . S
C1335 C1332 1.409 . S
C1335 C1333 1.415 . S
C1336 H1326 0.930 . S
C1336 C1334 1.419 . S
C1336 C1337 1.362 . S
C1337 H1327 0.930 . S
C1337 C1330 1.409 . S
C1337 C1336 1.362 . S
H1338 C1344 0.930 . S
H1339 C1347 0.930 . S
H1340 C1348 0.930 . S
H1341 C1349 0.930 . S
H1342 C1352 0.930 . S
H1343 C1353 0.930 . S
C1344 H1338 0.930 . S
C1344 C1345 1.355 . S
C1344 C1346 1.415 . S
C1345 C1344 1.355 . S
C1345 C1347 1.419 . S
C1346 C1344 1.415 . S
C1346 C1351 1.425 . S
C1346 C1353 1.409 . S
C1347 H1339 0.930 . S
C1347 C1345 1.419 . S
C1347 C1348 1.362 . S
C1348 H1340 0.930 . S
C1348 C1347 1.362 . S
C1348 C1351 1.409 . S
C1349 H1341 0.930 . S
C1349 C1350 1.355 . S
C1349 C1351 1.415 . S
C1350 C1349 1.355 . S
C1350 C1352 1.419 . S
C1351 C1346 1.425 . S
C1351 C1348 1.409 . S
C1351 C1349 1.415 . S
C1352 H1342 0.930 . S
C1352 C1350 1.419 . S
C1352 C1353 1.362 . S
C1353 H1343 0.930 . S
C1353 C1346 1.409 . S
C1353 C1352 1.362 . S
H1354 C1360 0.930 . S
H1355 C1363 0.930 . S
H1356 C1364 0.930 . S
H1357 C1365 0.930 . S
H1358 C1368 0.930 . S
H1359 C1369 0.930 . S
C1360 H1354 0.930 . S
C1360 C1361 1.355 . S
C1360 C1362 1.415 . S
C1361 C1360 1.355 . S
C1361 C1363 1.419 . S
C1362 C1360 1.415 . S
C1362 C1367 1.425 . S
C1362 C1369 1.409 . S
C1363 H1355 0.930 . S
C1363 C1361 1.419 . S
C1363 C1364 1.362 . S
C1364 H1356 0.930 . S
C1364 C1363 1.362 . S
C1364 C1367 1.409 . S
C1365 H1357 0.930 . S
C1365 C1366 1.355 . S
C1365 C1367 1.415 . S
C1366 C1365 1.355 . S
C1366 C1368 1.419 . S
C1367 C1362 1.425 . S
C1367 C1364 1.409 . S
C1367 C1365 1.415 . S
C1368 H1358 0.930 . S
C1368 C1366 1.419 . S
C1368 C1369 1.362 . S
C1369 H1359 0.930 . S
C1369 C1362 1.409 . S
C1369 C1368 1.362 . S
H1370 C1376 0.930 . S
H1371 C1379 0.930 . S
H1372 C1380 0.930 . S
H1373 C1381 0.930 . S
H1374 C1384 0.930 . S
H1375 C1385 0.930 . S
C1376 H1370 0.930 . S
C1376 C1377 1.355 . S
C1376 C1378 1.415 . S
C1377 C1376 1.355 . S
C1377 C1379 1.419 . S
C1378 C1376 1.415 . S
C1378 C1383 1.425 . S
C1378 C1385 1.409 . S
C1379 H1371 0.930 . S
C1379 C1377 1.419 . S
C1379 C1380 1.362 . S
C1380 H1372 0.930 . S
C1380 C1379 1.362 . S
C1380 C1383 1.409 . S
C1381 H1373 0.930 . S
C1381 C1382 1.355 . S
C1381 C1383 1.415 . S
C1382 C1381 1.355 . S
C1382 C1384 1.419 . S
C1383 C1378 1.425 . S
C1383 C1380 1.409 . S
C1383 C1381 1.415 . S
C1384 H1374 0.930 . S
C1384 C1382 1.419 . S
C1384 C1385 1.362 . S
C1385 H1375 0.930 . S
C1385 C1378 1.409 . S
C1385 C1384 1.362 . S
H1386 C1392 0.930 . S
H1387 C1395 0.930 . S
H1388 C1396 0.930 . S
H1389 C1397 0.930 . S
H1390 C1400 0.930 . S
H1391 C1401 0.930 . S
C1392 H1386 0.930 . S
C1392 C1393 1.355 . S
C1392 C1394 1.415 . S
C1393 C1392 1.355 . S
C1393 C1395 1.419 . S
C1394 C1392 1.415 . S
C1394 C1399 1.425 . S
C1394 C1401 1.409 . S
C1395 H1387 0.930 . S
C1395 C1393 1.419 . S
C1395 C1396 1.362 . S
C1396 H1388 0.930 . S
C1396 C1395 1.362 . S
C1396 C1399 1.409 . S
C1397 H1389 0.930 . S
C1397 C1398 1.355 . S
C1397 C1399 1.415 . S
C1398 C1397 1.355 . S
C1398 C1400 1.419 . S
C1399 C1394 1.425 . S
C1399 C1396 1.409 . S
C1399 C1397 1.415 . S
C1400 H1390 0.930 . S
C1400 C1398 1.419 . S
C1400 C1401 1.362 . S
C1401 H1391 0.930 . S
C1401 C1394 1.409 . S
C1401 C1400 1.362 . S
H1402 C1408 0.930 . S
H1403 C1411 0.930 . S
H1404 C1412 0.930 . S
H1405 C1413 0.930 . S
H1406 C1416 0.930 . S
H1407 C1417 0.930 . S
C1408 H1402 0.930 . S
C1408 C1409 1.355 . S
C1408 C1410 1.415 . S
C1409 C1408 1.355 . S
C1409 C1411 1.419 . S
C1410 C1408 1.415 . S
C1410 C1415 1.425 . S
C1410 C1417 1.409 . S
C1411 H1403 0.930 . S
C1411 C1409 1.419 . S
C1411 C1412 1.362 . S
C1412 H1404 0.930 . S
C1412 C1411 1.362 . S
C1412 C1415 1.409 . S
C1413 H1405 0.930 . S
C1413 C1414 1.355 . S
C1413 C1415 1.415 . S
C1414 C1413 1.355 . S
C1414 C1416 1.419 . S
C1415 C1410 1.425 . S
C1415 C1412 1.409 . S
C1415 C1413 1.415 . S
C1416 H1406 0.930 . S
C1416 C1414 1.419 . S
C1416 C1417 1.362 . S
C1417 H1407 0.930 . S
C1417 C1410 1.409 . S
C1417 C1416 1.362 . S
H1418 C1424 0.930 . S
H1419 C1427 0.930 . S
H1420 C1428 0.930 . S
H1421 C1429 0.930 . S
H1422 C1432 0.930 . S
H1423 C1433 0.930 . S
C1424 H1418 0.930 . S
C1424 C1425 1.355 . S
C1424 C1426 1.415 . S
C1425 C1424 1.355 . S
C1425 C1427 1.419 . S
C1426 C1424 1.415 . S
C1426 C1431 1.425 . S
C1426 C1433 1.409 . S
C1427 H1419 0.930 . S
C1427 C1425 1.419 . S
C1427 C1428 1.362 . S
C1428 H1420 0.930 . S
C1428 C1427 1.362 . S
C1428 C1431 1.409 . S
C1429 H1421 0.930 . S
C1429 C1430 1.355 . S
C1429 C1431 1.415 . S
C1430 C1429 1.355 . S
C1430 C1432 1.419 . S
C1431 C1426 1.425 . S
C1431 C1428 1.409 . S
C1431 C1429 1.415 . S
C1432 H1422 0.930 . S
C1432 C1430 1.419 . S
C1432 C1433 1.362 . S
C1433 H1423 0.930 . S
C1433 C1426 1.409 . S
C1433 C1432 1.362 . S
H1434 C1440 0.930 . S
H1435 C1443 0.930 . S
H1436 C1444 0.930 . S
H1437 C1445 0.930 . S
H1438 C1448 0.930 . S
H1439 C1449 0.930 . S
C1440 H1434 0.930 . S
C1440 C1441 1.355 . S
C1440 C1442 1.415 . S
C1441 C1440 1.355 . S
C1441 C1443 1.419 . S
C1442 C1440 1.415 . S
C1442 C1447 1.425 . S
C1442 C1449 1.409 . S
C1443 H1435 0.930 . S
C1443 C1441 1.419 . S
C1443 C1444 1.362 . S
C1444 H1436 0.930 . S
C1444 C1443 1.362 . S
C1444 C1447 1.409 . S
C1445 H1437 0.930 . S
C1445 C1446 1.355 . S
C1445 C1447 1.415 . S
C1446 C1445 1.355 . S
C1446 C1448 1.419 . S
C1447 C1442 1.425 . S
C1447 C1444 1.409 . S
C1447 C1445 1.415 . S
C1448 H1438 0.930 . S
C1448 C1446 1.419 . S
C1448 C1449 1.362 . S
C1449 H1439 0.930 . S
C1449 C1442 1.409 . S
C1449 C1448 1.362 . S
H1450 C1456 0.930 . S
H1451 C1459 0.930 . S
H1452 C1460 0.930 . S
H1453 C1461 0.930 . S
H1454 C1464 0.930 . S
H1455 C1465 0.930 . S
C1456 H1450 0.930 . S
C1456 C1457 1.355 . S
C1456 C1458 1.415 . S
C1457 C1456 1.355 . S
C1457 C1459 1.419 . S
C1458 C1456 1.415 . S
C1458 C1463 1.425 . S
C1458 C1465 1.409 . S
C1459 H1451 0.930 . S
C1459 C1457 1.419 . S
C1459 C1460 1.362 . S
C1460 H1452 0.930 . S
C1460 C1459 1.362 . S
C1460 C1463 1.409 . S
C1461 H1453 0.930 . S
C1461 C1462 1.355 . S
C1461 C1463 1.415 . S
C1462 C1461 1.355 . S
C1462 C1464 1.419 . S
C1463 C1458 1.425 . S
C1463 C1460 1.409 . S
C1463 C1461 1.415 . S
C1464 H1454 0.930 . S
C1464 C1462 1.419 . S
C1464 C1465 1.362 . S
C1465 H1455 0.930 . S
C1465 C1458 1.409 . S
C1465 C1464 1.362 . S
H1466 C1472 0.930 . S
H1467 C1475 0.930 . S
H1468 C1476 0.930 . S
H1469 C1477 0.930 . S
H1470 C1480 0.930 . S
H1471 C1481 0.930 . S
C1472 H1466 0.930 . S
C1472 C1473 1.355 . S
C1472 C1474 1.415 . S
C1473 C1472 1.355 . S
C1473 C1475 1.419 . S
C1474 C1472 1.415 . S
C1474 C1479 1.425 . S
C1474 C1481 1.409 . S
C1475 H1467 0.930 . S
C1475 C1473 1.419 . S
C1475 C1476 1.362 . S
C1476 H1468 0.930 . S
C1476 C1475 1.362 . S
C1476 C1479 1.409 . S
C1477 H1469 0.930 . S
C1477 C1478 1.355 . S
C1477 C1479 1.415 . S
C1478 C1477 1.355 . S
C1478 C1480 1.419 . S
C1479 C1474 1.425 . S
C1479 C1476 1.409 . S
C1479 C1477 1.415 . S
C1480 H1470 0.930 . S
C1480 C1478 1.419 . S
C1480 C1481 1.362 . S
C1481 H1471 0.930 . S
C1481 C1474 1.409 . S
C1481 C1480 1.362 . S
H1482 C1488 0.930 . S
H1483 C1491 0.930 . S
H1484 C1492 0.930 . S
H1485 C1493 0.930 . S
H1486 C1496 0.930 . S
H1487 C1497 0.930 . S
C1488 H1482 0.930 . S
C1488 C1489 1.355 . S
C1488 C1490 1.415 . S
C1489 C1488 1.355 . S
C1489 C1491 1.419 . S
C1490 C1488 1.415 . S
C1490 C1495 1.425 . S
C1490 C1497 1.409 . S
C1491 H1483 0.930 . S
C1491 C1489 1.419 . S
C1491 C1492 1.362 . S
C1492 H1484 0.930 . S
C1492 C1491 1.362 . S
C1492 C1495 1.409 . S
C1493 H1485 0.930 . S
C1493 C1494 1.355 . S
C1493 C1495 1.415 . S
C1494 C1493 1.355 . S
C1494 C1496 1.419 . S
C1495 C1490 1.425 . S
C1495 C1492 1.409 . S
C1495 C1493 1.415 . S
C1496 H1486 0.930 . S
C1496 C1494 1.419 . S
C1496 C1497 1.362 . S
C1497 H1487 0.930 . S
C1497 C1490 1.409 . S
C1497 C1496 1.362 . S
H1498 C1504 0.930 . S
H1499 C1507 0.930 . S
H1500 C1508 0.930 . S
H1501 C1509 0.930 . S
H1502 C1512 0.930 . S
H1503 C1513 0.930 . S
C1504 H1498 0.930 . S
C1504 C1505 1.355 . S
C1504 C1506 1.415 . S
C1505 C1504 1.355 . S
C1505 C1507 1.419 . S
C1506 C1504 1.415 . S
C1506 C1511 1.425 . S
C1506 C1513 1.409 . S
C1507 H1499 0.930 . S
C1507 C1505 1.419 . S
C1507 C1508 1.362 . S
C1508 H1500 0.930 . S
C1508 C1507 1.362 . S
C1508 C1511 1.409 . S
C1509 H1501 0.930 . S
C1509 C1510 1.355 . S
C1509 C1511 1.415 . S
C1510 C1509 1.355 . S
C1510 C1512 1.419 . S
C1511 C1506 1.425 . S
C1511 C1508 1.409 . S
C1511 C1509 1.415 . S
C1512 H1502 0.930 . S
C1512 C1510 1.419 . S
C1512 C1513 1.362 . S
C1513 H1503 0.930 . S
C1513 C1506 1.409 . S
C1513 C1512 1.362 . S
H1514 C1520 0.930 . S
H1515 C1523 0.930 . S
H1516 C1524 0.930 . S
H1517 C1525 0.930 . S
H1518 C1528 0.930 . S
H1519 C1529 0.930 . S
C1520 H1514 0.930 . S
C1520 C1521 1.355 . S
C1520 C1522 1.415 . S
C1521 C1520 1.355 . S
C1521 C1523 1.419 . S
C1522 C1520 1.415 . S
C1522 C1527 1.425 . S
C1522 C1529 1.409 . S
C1523 H1515 0.930 . S
C1523 C1521 1.419 . S
C1523 C1524 1.362 . S
C1524 H1516 0.930 . S
C1524 C1523 1.362 . S
C1524 C1527 1.409 . S
C1525 H1517 0.930 . S
C1525 C1526 1.355 . S
C1525 C1527 1.415 . S
C1526 C1525 1.355 . S
C1526 C1528 1.419 . S
C1527 C1522 1.425 . S
C1527 C1524 1.409 . S
C1527 C1525 1.415 . S
C1528 H1518 0.930 . S
C1528 C1526 1.419 . S
C1528 C1529 1.362 . S
C1529 H1519 0.930 . S
C1529 C1522 1.409 . S
C1529 C1528 1.362 . S
H1530 C1536 0.930 . S
H1531 C1539 0.930 . S
H1532 C1540 0.930 . S
H1533 C1541 0.930 . S
H1534 C1544 0.930 . S
H1535 C1545 0.930 . S
C1536 H1530 0.930 . S
C1536 C1537 1.355 . S
C1536 C1538 1.415 . S
C1537 C1536 1.355 . S
C1537 C1539 1.419 . S
C1538 C1536 1.415 . S
C1538 C1543 1.425 . S
C1538 C1545 1.409 . S
C1539 H1531 0.930 . S
C1539 C1537 1.419 . S
C1539 C1540 1.362 . S
C1540 H1532 0.930 . S
C1540 C1539 1.362 . S
C1540 C1543 1.409 . S
C1541 H1533 0.930 . S
C1541 C1542 1.355 . S
C1541 C1543 1.415 . S
C1542 C1541 1.355 . S
C1542 C1544 1.419 . S
C1543 C1538 1.425 . S
C1543 C1540 1.409 . S
C1543 C1541 1.415 . S
C1544 H1534 0.930 . S
C1544 C1542 1.419 . S
C1544 C1545 1.362 . S
C1545 H1535 0.930 . S
C1545 C1538 1.409 . S
C1545 C1544 1.362 . S
H1546 C1552 0.930 . S
H1547 C1555 0.930 . S
H1548 C1556 0.930 . S
H1549 C1557 0.930 . S
H1550 C1560 0.930 . S
H1551 C1561 0.930 . S
C1552 H1546 0.930 . S
C1552 C1553 1.355 . S
C1552 C1554 1.415 . S
C1553 C1552 1.355 . S
C1553 C1555 1.419 . S
C1554 C1552 1.415 . S
C1554 C1559 1.425 . S
C1554 C1561 1.409 . S
C1555 H1547 0.930 . S
C1555 C1553 1.419 . S
C1555 C1556 1.362 . S
C1556 H1548 0.930 . S
C1556 C1555 1.362 . S
C1556 C1559 1.409 . S
C1557 H1549 0.930 . S
C1557 C1558 1.355 . S
C1557 C1559 1.415 . S
C1558 C1557 1.355 . S
C1558 C1560 1.419 . S
C1559 C1554 1.425 . S
C1559 C1556 1.409 . S
C1559 C1557 1.415 . S
C1560 H1550 0.930 . S
C1560 C1558 1.419 . S
C1560 C1561 1.362 . S
C1561 H1551 0.930 . S
C1561 C1554 1.409 . S
C1561 C1560 1.362 . S
H1562 C1568 0.930 . S
H1563 C1571 0.930 . S
H1564 C1572 0.930 . S
H1565 C1573 0.930 . S
H1566 C1576 0.930 . S
H1567 C1577 0.930 . S
C1568 H1562 0.930 . S
C1568 C1569 1.355 . S
C1568 C1570 1.415 . S
C1569 C1568 1.355 . S
C1569 C1571 1.419 . S
C1570 C1568 1.415 . S
C1570 C1575 1.425 . S
C1570 C1577 1.409 . S
C1571 H1563 0.930 . S
C1571 C1569 1.419 . S
C1571 C1572 1.362 . S
C1572 H1564 0.930 . S
C1572 C1571 1.362 . S
C1572 C1575 1.409 . S
C1573 H1565 0.930 . S
C1573 C1574 1.355 . S
C1573 C1575 1.415 . S
C1574 C1573 1.355 . S
C1574 C1576 1.419 . S
C1575 C1570 1.425 . S
C1575 C1572 1.409 . S
C1575 C1573 1.415 . S
C1576 H1566 0.930 . S
C1576 C1574 1.419 . S
C1576 C1577 1.362 . S
C1577 H1567 0.930 . S
C1577 C1570 1.409 . S
C1577 C1576 1.362 . S
H1578 C1584 0.930 . S
H1579 C1587 0.930 . S
H1580 C1588 0.930 . S
H1581 C1589 0.930 . S
H1582 C1592 0.930 . S
H1583 C1593 0.930 . S
C1584 H1578 0.930 . S
C1584 C1585 1.355 . S
C1584 C1586 1.415 . S
C1585 C1584 1.355 . S
C1585 C1587 1.419 . S
C1586 C1584 1.415 . S
C1586 C1591 1.425 . S
C1586 C1593 1.409 . S
C1587 H1579 0.930 . S
C1587 C1585 1.419 . S
C1587 C1588 1.362 . S
C1588 H1580 0.930 . S
C1588 C1587 1.362 . S
C1588 C1591 1.409 . S
C1589 H1581 0.930 . S
C1589 C1590 1.355 . S
C1589 C1591 1.415 . S
C1590 C1589 1.355 . S
C1590 C1592 1.419 . S
C1591 C1586 1.425 . S
C1591 C1588 1.409 . S
C1591 C1589 1.415 . S
C1592 H1582 0.930 . S
C1592 C1590 1.419 . S
C1592 C1593 1.362 . S
C1593 H1583 0.930 . S
C1593 C1586 1.409 . S
C1593 C1592 1.362 . S
H1594 C1600 0.930 . S
H1595 C1603 0.930 . S
H1596 C1604 0.930 . S
H1597 C1605 0.930 . S
H1598 C1608 0.930 . S
H1599 C1609 0.930 . S
C1600 H1594 0.930 . S
C1600 C1601 1.355 . S
C1600 C1602 1.415 . S
C1601 C1600 1.355 . S
C1601 C1603 1.419 . S
C1602 C1600 1.415 . S
C1602 C1607 1.425 . S
C1602 C1609 1.409 . S
C1603 H1595 0.930 . S
C1603 C1601 1.419 . S
C1603 C1604 1.362 . S
C1604 H1596 0.930 . S
C1604 C1603 1.362 . S
C1604 C1607 1.409 . S
C1605 H1597 0.930 . S
C1605 C1606 1.355 . S
C1605 C1607 1.415 . S
C1606 C1605 1.355 . S
C1606 C1608 1.419 . S
C1607 C1602 1.425 . S
C1607 C1604 1.409 . S
C1607 C1605 1.415 . S
C1608 H1598 0.930 . S
C1608 C1606 1.419 . S
C1608 C1609 1.362 . S
C1609 H1599 0.930 . S
C1609 C1602 1.409 . S
C1609 C1608 1.362 . S
H1610 C1616 0.930 . S
H1611 C1619 0.930 . S
H1612 C1620 0.930 . S
H1613 C1621 0.930 . S
H1614 C1624 0.930 . S
H1615 C1625 0.930 . S
C1616 H1610 0.930 . S
C1616 C1617 1.355 . S
C1616 C1618 1.415 . S
C1617 C1616 1.355 . S
C1617 C1619 1.419 . S
C1618 C1616 1.415 . S
C1618 C1623 1.425 . S
C1618 C1625 1.409 . S
C1619 H1611 0.930 . S
C1619 C1617 1.419 . S
C1619 C1620 1.362 . S
C1620 H1612 0.930 . S
C1620 C1619 1.362 . S
C1620 C1623 1.409 . S
C1621 H1613 0.930 . S
C1621 C1622 1.355 . S
C1621 C1623 1.415 . S
C1622 C1621 1.355 . S
C1622 C1624 1.419 . S
C1623 C1618 1.425 . S
C1623 C1620 1.409 . S
C1623 C1621 1.415 . S
C1624 H1614 0.930 . S
C1624 C1622 1.419 . S
C1624 C1625 1.362 . S
C1625 H1615 0.930 . S
C1625 C1618 1.409 . S
C1625 C1624 1.362 . S
H1626 C1632 0.930 . S
H1627 C1635 0.930 . S
H1628 C1636 0.930 . S
H1629 C1637 0.930 . S
H1630 C1640 0.930 . S
H1631 C1641 0.930 . S
C1632 H1626 0.930 . S
C1632 C1633 1.355 . S
C1632 C1634 1.415 . S
C1633 C1632 1.355 . S
C1633 C1635 1.419 . S
C1634 C1632 1.415 . S
C1634 C1639 1.425 . S
C1634 C1641 1.409 . S
C1635 H1627 0.930 . S
C1635 C1633 1.419 . S
C1635 C1636 1.362 . S
C1636 H1628 0.930 . S
C1636 C1635 1.362 . S
C1636 C1639 1.409 . S
C1637 H1629 0.930 . S
C1637 C1638 1.355 . S
C1637 C1639 1.415 . S
C1638 C1637 1.355 . S
C1638 C1640 1.419 . S
C1639 C1634 1.425 . S
C1639 C1636 1.409 . S
C1639 C1637 1.415 . S
C1640 H1630 0.930 . S
C1640 C1638 1.419 . S
C1640 C1641 1.362 . S
C1641 H1631 0.930 . S
C1641 C1634 1.409 . S
C1641 C1640 1.362 . S
H1642 C1648 0.930 . S
H1643 C1651 0.930 . S
H1644 C1652 0.930 . S
H1645 C1653 0.930 . S
H1646 C1656 0.930 . S
H1647 C1657 0.930 . S
C1648 H1642 0.930 . S
C1648 C1649 1.355 . S
C1648 C1650 1.415 . S
C1649 C1648 1.355 . S
C1649 C1651 1.419 . S
C1650 C1648 1.415 . S
C1650 C1655 1.425 . S
C1650 C1657 1.409 . S
C1651 H1643 0.930 . S
C1651 C1649 1.419 . S
C1651 C1652 1.362 . S
C1652 H1644 0.930 . S
C1652 C1651 1.362 . S
C1652 C1655 1.409 . S
C1653 H1645 0.930 . S
C1653 C1654 1.355 . S
C1653 C1655 1.415 . S
C1654 C1653 1.355 . S
C1654 C1656 1.419 . S
C1655 C1650 1.425 . S
C1655 C1652 1.409 . S
C1655 C1653 1.415 . S
C1656 H1646 0.930 . S
C1656 C1654 1.419 . S
C1656 C1657 1.362 . S
C1657 H1647 0.930 . S
C1657 C1650 1.409 . S
C1657 C1656 1.362 . S
H1658 C1664 0.930 . S
H1659 C1667 0.930 . S
H1660 C1668 0.930 . S
H1661 C1669 0.930 . S
H1662 C1672 0.930 . S
H1663 C1673 0.930 . S
C1664 H1658 0.930 . S
C1664 C1665 1.355 . S
C1664 C1666 1.415 . S
C1665 C1664 1.355 . S
C1665 C1667 1.419 . S
C1666 C1664 1.415 . S
C1666 C1671 1.425 . S
C1666 C1673 1.409 . S
C1667 H1659 0.930 . S
C1667 C1665 1.419 . S
C1667 C1668 1.362 . S
C1668 H1660 0.930 . S
C1668 C1667 1.362 . S
C1668 C1671 1.409 . S
C1669 H1661 0.930 . S
C1669 C1670 1.355 . S
C1669 C1671 1.415 . S
C1670 C1669 1.355 . S
C1670 C1672 1.419 . S
C1671 C1666 1.425 . S
C1671 C1668 1.409 . S
C1671 C1669 1.415 . S
C1672 H1662 0.930 . S
C1672 C1670 1.419 . S
C1672 C1673 1.362 . S
C1673 H1663 0.930 . S
C1673 C1666 1.409 . S
C1673 C1672 1.362 . S
H1674 C1680 0.930 . S
H1675 C1683 0.930 . S
H1676 C1684 0.930 . S
H1677 C1685 0.930 . S
H1678 C1688 0.930 . S
H1679 C1689 0.930 . S
C1680 H1674 0.930 . S
C1680 C1681 1.355 . S
C1680 C1682 1.415 . S
C1681 C1680 1.355 . S
C1681 C1683 1.419 . S
C1682 C1680 1.415 . S
C1682 C1687 1.425 . S
C1682 C1689 1.409 . S
C1683 H1675 0.930 . S
C1683 C1681 1.419 . S
C1683 C1684 1.362 . S
C1684 H1676 0.930 . S
C1684 C1683 1.362 . S
C1684 C1687 1.409 . S
C1685 H1677 0.930 . S
C1685 C1686 1.355 . S
C1685 C1687 1.415 . S
C1686 C1685 1.355 . S
C1686 C1688 1.419 . S
C1687 C1682 1.425 . S
C1687 C1684 1.409 . S
C1687 C1685 1.415 . S
C1688 H1678 0.930 . S
C1688 C1686 1.419 . S
C1688 C1689 1.362 . S
C1689 H1679 0.930 . S
C1689 C1682 1.409 . S
C1689 C1688 1.362 . S
H1690 C1696 0.930 . S
H1691 C1699 0.930 . S
H1692 C1700 0.930 . S
H1693 C1701 0.930 . S
H1694 C1704 0.930 . S
H1695 C1705 0.930 . S
C1696 H1690 0.930 . S
C1696 C1697 1.355 . S
C1696 C1698 1.415 . S
C1697 C1696 1.355 . S
C1697 C1699 1.419 . S
C1698 C1696 1.415 . S
C1698 C1703 1.425 . S
C1698 C1705 1.409 . S
C1699 H1691 0.930 . S
C1699 C1697 1.419 . S
C1699 C1700 1.362 . S
C1700 H1692 0.930 . S
C1700 C1699 1.362 . S
C1700 C1703 1.409 . S
C1701 H1693 0.930 . S
C1701 C1702 1.355 . S
C1701 C1703 1.415 . S
C1702 C1701 1.355 . S
C1702 C1704 1.419 . S
C1703 C1698 1.425 . S
C1703 C1700 1.409 . S
C1703 C1701 1.415 . S
C1704 H1694 0.930 . S
C1704 C1702 1.419 . S
C1704 C1705 1.362 . S
C1705 H1695 0.930 . S
C1705 C1698 1.409 . S
C1705 C1704 1.362 . S
H1706 C1712 0.930 . S
H1707 C1715 0.930 . S
H1708 C1716 0.930 . S
H1709 C1717 0.930 . S
H1710 C1720 0.930 . S
H1711 C1721 0.930 . S
C1712 H1706 0.930 . S
C1712 C1713 1.355 . S
C1712 C1714 1.415 . S
C1713 C1712 1.355 . S
C1713 C1715 1.419 . S
C1714 C1712 1.415 . S
C1714 C1719 1.425 . S
C1714 C1721 1.409 . S
C1715 H1707 0.930 . S
C1715 C1713 1.419 . S
C1715 C1716 1.362 . S
C1716 H1708 0.930 . S
C1716 C1715 1.362 . S
C1716 C1719 1.409 . S
C1717 H1709 0.930 . S
C1717 C1718 1.355 . S
C1717 C1719 1.415 . S
C1718 C1717 1.355 . S
C1718 C1720 1.419 . S
C1719 C1714 1.425 . S
C1719 C1716 1.409 . S
C1719 C1717 1.415 . S
C1720 H1710 0.930 . S
C1720 C1718 1.419 . S
C1720 C1721 1.362 . S
C1721 H1711 0.930 . S
C1721 C1714 1.409 . S
C1721 C1720 1.362 . S
H1722 C1728 0.930 . S
H1723 C1731 0.921 1_554 S
H1724 C1732 0.930 . S
H1725 C1733 0.930 . S
H1726 C1736 0.930 . S
H1727 C1737 0.930 . S
C1728 H1722 0.930 . S
C1728 C1729 1.355 . S
C1728 C1730 1.415 . S
C1729 C1728 1.355 . S
C1729 C1731 1.419 . S
C1730 C1728 1.415 . S
C1730 C1735 1.425 . S
C1730 C1737 1.409 . S
C1731 H1723 0.921 1_556 S
C1731 C1729 1.419 . S
C1731 C1732 1.362 . S
C1732 H1724 0.930 . S
C1732 C1731 1.362 . S
C1732 C1735 1.409 . S
C1733 H1725 0.930 . S
C1733 C1734 1.355 . S
C1733 C1735 1.415 . S
C1734 C1733 1.355 . S
C1734 C1736 1.419 . S
C1735 C1730 1.425 . S
C1735 C1732 1.409 . S
C1735 C1733 1.415 . S
C1736 H1726 0.930 . S
C1736 C1734 1.419 . S
C1736 C1737 1.362 . S
C1737 H1727 0.930 . S
C1737 C1730 1.409 . S
C1737 C1736 1.362 . S
H1738 C1744 0.930 . S
H1739 C1747 0.930 . S
H1740 C1748 0.930 . S
H1741 C1749 0.930 . S
H1742 C1752 0.930 . S
H1743 C1753 0.930 . S
C1744 H1738 0.930 . S
C1744 C1745 1.355 . S
C1744 C1746 1.415 . S
C1745 C1744 1.355 . S
C1745 C1747 1.419 . S
C1746 C1744 1.415 . S
C1746 C1751 1.425 . S
C1746 C1753 1.409 . S
C1747 H1739 0.930 . S
C1747 C1745 1.419 . S
C1747 C1748 1.362 . S
C1748 H1740 0.930 . S
C1748 C1747 1.362 . S
C1748 C1751 1.409 . S
C1749 H1741 0.930 . S
C1749 C1750 1.355 . S
C1749 C1751 1.415 . S
C1750 C1749 1.355 . S
C1750 C1752 1.419 . S
C1751 C1746 1.425 . S
C1751 C1748 1.409 . S
C1751 C1749 1.415 . S
C1752 H1742 0.930 . S
C1752 C1750 1.419 . S
C1752 C1753 1.362 . S
C1753 H1743 0.930 . S
C1753 C1746 1.409 . S
C1753 C1752 1.362 . S
H1754 C1760 0.930 . S
H1755 C1763 0.930 . S
H1756 C1764 0.930 . S
H1757 C1765 0.930 . S
H1758 C1768 0.930 . S
H1759 C1769 0.930 . S
C1760 H1754 0.930 . S
C1760 C1761 1.355 . S
C1760 C1762 1.415 . S
C1761 C1760 1.355 . S
C1761 C1763 1.419 . S
C1762 C1760 1.415 . S
C1762 C1767 1.425 . S
C1762 C1769 1.409 . S
C1763 H1755 0.930 . S
C1763 C1761 1.419 . S
C1763 C1764 1.362 . S
C1764 H1756 0.930 . S
C1764 C1763 1.362 . S
C1764 C1767 1.409 . S
C1765 H1757 0.930 . S
C1765 C1766 1.355 . S
C1765 C1767 1.415 . S
C1766 C1765 1.355 . S
C1766 C1768 1.419 . S
C1767 C1762 1.425 . S
C1767 C1764 1.409 . S
C1767 C1765 1.415 . S
C1768 H1758 0.930 . S
C1768 C1766 1.419 . S
C1768 C1769 1.362 . S
C1769 H1759 0.930 . S
C1769 C1762 1.409 . S
C1769 C1768 1.362 . S
H1770 C1776 0.930 . S
H1771 C1779 0.930 . S
H1772 C1780 0.930 . S
H1773 C1781 0.930 . S
H1774 C1784 0.930 . S
H1775 C1785 0.930 . S
C1776 H1770 0.930 . S
C1776 C1777 1.355 . S
C1776 C1778 1.415 . S
C1777 C1776 1.355 . S
C1777 C1779 1.419 . S
C1778 C1776 1.415 . S
C1778 C1783 1.425 . S
C1778 C1785 1.409 . S
C1779 H1771 0.930 . S
C1779 C1777 1.419 . S
C1779 C1780 1.362 . S
C1780 H1772 0.930 . S
C1780 C1779 1.362 . S
C1780 C1783 1.409 . S
C1781 H1773 0.930 . S
C1781 C1782 1.355 . S
C1781 C1783 1.415 . S
C1782 C1781 1.355 . S
C1782 C1784 1.419 . S
C1783 C1778 1.425 . S
C1783 C1780 1.409 . S
C1783 C1781 1.415 . S
C1784 H1774 0.930 . S
C1784 C1782 1.419 . S
C1784 C1785 1.362 . S
C1785 H1775 0.930 . S
C1785 C1778 1.409 . S
C1785 C1784 1.362 . S
H1786 C1792 0.930 . S
H1787 C1795 0.930 . S
H1788 C1796 0.930 . S
H1789 C1797 0.930 . S
H1790 C1800 0.930 . S
H1791 C1801 0.930 . S
C1792 H1786 0.930 . S
C1792 C1793 1.355 . S
C1792 C1794 1.415 . S
C1793 C1792 1.355 . S
C1793 C1795 1.419 . S
C1794 C1792 1.415 . S
C1794 C1799 1.425 . S
C1794 C1801 1.409 . S
C1795 H1787 0.930 . S
C1795 C1793 1.419 . S
C1795 C1796 1.362 . S
C1796 H1788 0.930 . S
C1796 C1795 1.362 . S
C1796 C1799 1.409 . S
C1797 H1789 0.930 . S
C1797 C1798 1.355 . S
C1797 C1799 1.415 . S
C1798 C1797 1.355 . S
C1798 C1800 1.419 . S
C1799 C1794 1.425 . S
C1799 C1796 1.409 . S
C1799 C1797 1.415 . S
C1800 H1790 0.930 . S
C1800 C1798 1.419 . S
C1800 C1801 1.362 . S
C1801 H1791 0.930 . S
C1801 C1794 1.409 . S
C1801 C1800 1.362 . S
H1802 C1808 0.930 . S
H1803 C1811 0.930 . S
H1804 C1812 0.930 . S
H1805 C1813 0.930 . S
H1806 C1816 0.930 . S
H1807 C1817 0.930 . S
C1808 H1802 0.930 . S
C1808 C1809 1.355 . S
C1808 C1810 1.415 . S
C1809 C1808 1.355 . S
C1809 C1811 1.419 . S
C1810 C1808 1.415 . S
C1810 C1815 1.425 . S
C1810 C1817 1.409 . S
C1811 H1803 0.930 . S
C1811 C1809 1.419 . S
C1811 C1812 1.362 . S
C1812 H1804 0.930 . S
C1812 C1811 1.362 . S
C1812 C1815 1.409 . S
C1813 H1805 0.930 . S
C1813 C1814 1.355 . S
C1813 C1815 1.415 . S
C1814 C1813 1.355 . S
C1814 C1816 1.419 . S
C1815 C1810 1.425 . S
C1815 C1812 1.409 . S
C1815 C1813 1.415 . S
C1816 H1806 0.930 . S
C1816 C1814 1.419 . S
C1816 C1817 1.362 . S
C1817 H1807 0.930 . S
C1817 C1810 1.409 . S
C1817 C1816 1.362 . S
H1818 C1824 0.930 . S
H1819 C1827 0.930 . S
H1820 C1828 0.930 . S
H1821 C1829 0.930 . S
H1822 C1832 0.930 . S
H1823 C1833 0.930 . S
C1824 H1818 0.930 . S
C1824 C1825 1.355 . S
C1824 C1826 1.415 . S
C1825 C1824 1.355 . S
C1825 C1827 1.419 . S
C1826 C1824 1.415 . S
C1826 C1831 1.425 . S
C1826 C1833 1.409 . S
C1827 H1819 0.930 . S
C1827 C1825 1.419 . S
C1827 C1828 1.362 . S
C1828 H1820 0.930 . S
C1828 C1827 1.362 . S
C1828 C1831 1.409 . S
C1829 H1821 0.930 . S
C1829 C1830 1.355 . S
C1829 C1831 1.415 . S
C1830 C1829 1.355 . S
C1830 C1832 1.419 . S
C1831 C1826 1.425 . S
C1831 C1828 1.409 . S
C1831 C1829 1.415 . S
C1832 H1822 0.930 . S
C1832 C1830 1.419 . S
C1832 C1833 1.362 . S
C1833 H1823 0.930 . S
C1833 C1826 1.409 . S
C1833 C1832 1.362 . S
H1834 C1840 0.930 . S
H1835 C1843 0.930 . S
H1836 C1844 0.930 . S
H1837 C1845 0.930 . S
H1838 C1848 0.930 . S
H1839 C1849 0.930 . S
C1840 H1834 0.930 . S
C1840 C1841 1.355 . S
C1840 C1842 1.415 . S
C1841 C1840 1.355 . S
C1841 C1843 1.419 . S
C1842 C1840 1.415 . S
C1842 C1847 1.425 . S
C1842 C1849 1.409 . S
C1843 H1835 0.930 . S
C1843 C1841 1.419 . S
C1843 C1844 1.362 . S
C1844 H1836 0.930 . S
C1844 C1843 1.362 . S
C1844 C1847 1.409 . S
C1845 H1837 0.930 . S
C1845 C1846 1.355 . S
C1845 C1847 1.415 . S
C1846 C1845 1.355 . S
C1846 C1848 1.419 . S
C1847 C1842 1.425 . S
C1847 C1844 1.409 . S
C1847 C1845 1.415 . S
C1848 H1838 0.930 . S
C1848 C1846 1.419 . S
C1848 C1849 1.362 . S
C1849 H1839 0.930 . S
C1849 C1842 1.409 . S
C1849 C1848 1.362 . S
H1850 C1856 0.930 . S
H1851 C1859 0.930 . S
H1852 C1860 0.930 . S
H1853 C1861 0.930 . S
H1854 C1864 0.930 . S
H1855 C1865 0.930 . S
C1856 H1850 0.930 . S
C1856 C1857 1.355 . S
C1856 C1858 1.415 . S
C1857 C1856 1.355 . S
C1857 C1859 1.419 . S
C1858 C1856 1.415 . S
C1858 C1863 1.425 . S
C1858 C1865 1.409 . S
C1859 H1851 0.930 . S
C1859 C1857 1.419 . S
C1859 C1860 1.362 . S
C1860 H1852 0.930 . S
C1860 C1859 1.362 . S
C1860 C1863 1.409 . S
C1861 H1853 0.930 . S
C1861 C1862 1.355 . S
C1861 C1863 1.415 . S
C1862 C1861 1.355 . S
C1862 C1864 1.419 . S
C1863 C1858 1.425 . S
C1863 C1860 1.409 . S
C1863 C1861 1.415 . S
C1864 H1854 0.930 . S
C1864 C1862 1.419 . S
C1864 C1865 1.362 . S
C1865 H1855 0.930 . S
C1865 C1858 1.409 . S
C1865 C1864 1.362 . S
H1866 C1872 0.930 . S
H1867 C1875 0.930 . S
H1868 C1876 0.930 . S
H1869 C1877 0.930 . S
H1870 C1880 0.930 . S
H1871 C1881 0.930 . S
C1872 H1866 0.930 . S
C1872 C1873 1.355 . S
C1872 C1874 1.415 . S
C1873 C1872 1.355 . S
C1873 C1875 1.419 . S
C1874 C1872 1.415 . S
C1874 C1879 1.425 . S
C1874 C1881 1.409 . S
C1875 H1867 0.930 . S
C1875 C1873 1.419 . S
C1875 C1876 1.362 . S
C1876 H1868 0.930 . S
C1876 C1875 1.362 . S
C1876 C1879 1.409 . S
C1877 H1869 0.930 . S
C1877 C1878 1.355 . S
C1877 C1879 1.415 . S
C1878 C1877 1.355 . S
C1878 C1880 1.419 . S
C1879 C1874 1.425 . S
C1879 C1876 1.409 . S
C1879 C1877 1.415 . S
C1880 H1870 0.930 . S
C1880 C1878 1.419 . S
C1880 C1881 1.362 . S
C1881 H1871 0.930 . S
C1881 C1874 1.409 . S
C1881 C1880 1.362 . S
H1882 C1888 0.930 . S
H1883 C1891 0.930 . S
H1884 C1892 0.930 . S
H1885 C1893 0.930 . S
H1886 C1896 0.930 . S
H1887 C1897 0.930 . S
C1888 H1882 0.930 . S
C1888 C1889 1.355 . S
C1888 C1890 1.415 . S
C1889 C1888 1.355 . S
C1889 C1891 1.419 . S
C1890 C1888 1.415 . S
C1890 C1895 1.425 . S
C1890 C1897 1.409 . S
C1891 H1883 0.930 . S
C1891 C1889 1.419 . S
C1891 C1892 1.362 . S
C1892 H1884 0.930 . S
C1892 C1891 1.362 . S
C1892 C1895 1.409 . S
C1893 H1885 0.930 . S
C1893 C1894 1.355 . S
C1893 C1895 1.415 . S
C1894 C1893 1.355 . S
C1894 C1896 1.419 . S
C1895 C1890 1.425 . S
C1895 C1892 1.409 . S
C1895 C1893 1.415 . S
C1896 H1886 0.930 . S
C1896 C1894 1.419 . S
C1896 C1897 1.362 . S
C1897 H1887 0.930 . S
C1897 C1890 1.409 . S
C1897 C1896 1.362 . S
H1898 C1904 0.930 . S
H1899 C1907 0.930 . S
H1900 C1908 0.930 . S
H1901 C1909 0.930 . S
H1902 C1912 0.930 . S
H1903 C1913 0.930 . S
C1904 H1898 0.930 . S
C1904 C1905 1.355 . S
C1904 C1906 1.415 . S
C1905 C1904 1.355 . S
C1905 C1907 1.419 . S
C1906 C1904 1.415 . S
C1906 C1911 1.425 . S
C1906 C1913 1.409 . S
C1907 H1899 0.930 . S
C1907 C1905 1.419 . S
C1907 C1908 1.362 . S
C1908 H1900 0.930 . S
C1908 C1907 1.362 . S
C1908 C1911 1.409 . S
C1909 H1901 0.930 . S
C1909 C1910 1.355 . S
C1909 C1911 1.415 . S
C1910 C1909 1.355 . S
C1910 C1912 1.419 . S
C1911 C1906 1.425 . S
C1911 C1908 1.409 . S
C1911 C1909 1.415 . S
C1912 H1902 0.930 . S
C1912 C1910 1.419 . S
C1912 C1913 1.362 . S
C1913 H1903 0.930 . S
C1913 C1906 1.409 . S
C1913 C1912 1.362 . S
H1914 C1920 0.930 . S
H1915 C1923 0.930 . S
H1916 C1924 0.930 . S
H1917 C1925 0.930 . S
H1918 C1928 0.930 . S
H1919 C1929 0.930 . S
C1920 H1914 0.930 . S
C1920 C1921 1.355 . S
C1920 C1922 1.415 . S
C1921 C1920 1.355 . S
C1921 C1923 1.419 . S
C1922 C1920 1.415 . S
C1922 C1927 1.425 . S
C1922 C1929 1.409 . S
C1923 H1915 0.930 . S
C1923 C1921 1.419 . S
C1923 C1924 1.362 . S
C1924 H1916 0.930 . S
C1924 C1923 1.362 . S
C1924 C1927 1.409 . S
C1925 H1917 0.930 . S
C1925 C1926 1.355 . S
C1925 C1927 1.415 . S
C1926 C1925 1.355 . S
C1926 C1928 1.419 . S
C1927 C1922 1.425 . S
C1927 C1924 1.409 . S
C1927 C1925 1.415 . S
C1928 H1918 0.930 . S
C1928 C1926 1.419 . S
C1928 C1929 1.362 . S
C1929 H1919 0.930 . S
C1929 C1922 1.409 . S
C1929 C1928 1.362 . S
H1930 C1936 0.930 . S
H1931 C1939 0.930 . S
H1932 C1940 0.930 . S
H1933 C1941 0.930 . S
H1934 C1944 0.930 . S
H1935 C1945 0.930 . S
C1936 H1930 0.930 . S
C1936 C1937 1.355 . S
C1936 C1938 1.415 . S
C1937 C1936 1.355 . S
C1937 C1939 1.419 . S
C1938 C1936 1.415 . S
C1938 C1943 1.425 . S
C1938 C1945 1.409 . S
C1939 H1931 0.930 . S
C1939 C1937 1.419 . S
C1939 C1940 1.362 . S
C1940 H1932 0.930 . S
C1940 C1939 1.362 . S
C1940 C1943 1.409 . S
C1941 H1933 0.930 . S
C1941 C1942 1.355 . S
C1941 C1943 1.415 . S
C1942 C1941 1.355 . S
C1942 C1944 1.419 . S
C1943 C1938 1.425 . S
C1943 C1940 1.409 . S
C1943 C1941 1.415 . S
C1944 H1934 0.930 . S
C1944 C1942 1.419 . S
C1944 C1945 1.362 . S
C1945 H1935 0.930 . S
C1945 C1938 1.409 . S
C1945 C1944 1.362 . S
H1946 C1952 0.930 . S
H1947 C1955 0.930 . S
H1948 C1956 0.930 . S
H1949 C1957 0.930 . S
H1950 C1960 0.930 . S
H1951 C1961 0.930 . S
C1952 H1946 0.930 . S
C1952 C1953 1.355 . S
C1952 C1954 1.415 . S
C1953 C1952 1.355 . S
C1953 C1955 1.419 1_565 S
C1954 C1952 1.415 . S
C1954 C1959 1.425 1_565 S
C1954 C1961 1.409 . S
C1955 H1947 0.930 . S
C1955 C1953 1.419 1_545 S
C1955 C1956 1.362 . S
C1956 H1948 0.930 . S
C1956 C1955 1.362 . S
C1956 C1959 1.409 . S
C1957 H1949 0.930 . S
C1957 C1958 1.355 1_545 S
C1957 C1959 1.415 . S
C1958 C1957 1.355 1_565 S
C1958 C1960 1.419 . S
C1959 C1954 1.425 1_545 S
C1959 C1956 1.409 . S
C1959 C1957 1.415 . S
C1960 H1950 0.930 . S
C1960 C1958 1.419 . S
C1960 C1961 1.362 . S
C1961 H1951 0.930 . S
C1961 C1954 1.409 . S
C1961 C1960 1.362 . S
H1962 C1968 0.930 . S
H1963 C1971 0.930 . S
H1964 C1972 0.930 1_545 S
H1965 C1973 0.930 1_545 S
H1966 C1976 0.930 . S
H1967 C1977 0.930 . S
C1968 H1962 0.930 . S
C1968 C1969 1.355 . S
C1968 C1970 1.415 . S
C1969 C1968 1.355 . S
C1969 C1971 1.419 . S
C1970 C1968 1.415 . S
C1970 C1975 1.425 . S
C1970 C1977 1.409 . S
C1971 H1963 0.930 . S
C1971 C1969 1.419 . S
C1971 C1972 1.362 . S
C1972 H1964 0.930 1_565 S
C1972 C1971 1.362 . S
C1972 C1975 1.409 . S
C1973 H1965 0.930 1_565 S
C1973 C1974 1.355 . S
C1973 C1975 1.415 . S
C1974 C1973 1.355 . S
C1974 C1976 1.419 . S
C1975 C1970 1.425 . S
C1975 C1972 1.409 . S
C1975 C1973 1.415 . S
C1976 H1966 0.930 . S
C1976 C1974 1.419 . S
C1976 C1977 1.362 . S
C1977 H1967 0.930 . S
C1977 C1970 1.409 . S
C1977 C1976 1.362 . S
H1978 C1984 0.930 . S
H1979 C1987 0.959 . S
H1980 C1988 0.930 . S
H1981 C1989 0.930 . S
H1982 C1992 0.930 . S
H1983 C1993 0.930 . S
C1984 H1978 0.930 . S
C1984 C1985 1.355 . S
C1984 C1986 1.415 . S
C1985 C1984 1.355 . S
C1985 C1987 1.401 1_455 S
C1986 C1984 1.415 . S
C1986 C1991 1.425 . S
C1986 C1993 1.409 . S
C1987 H1979 0.959 . S
C1987 C1985 1.401 1_655 S
C1987 C1988 1.353 . S
C1988 H1980 0.930 . S
C1988 C1987 1.353 . S
C1988 C1991 1.409 1_655 S
C1989 H1981 0.930 . S
C1989 C1990 1.355 1_655 S
C1989 C1991 1.415 1_655 S
C1990 C1989 1.355 1_455 S
C1990 C1992 1.419 . S
C1991 C1986 1.425 . S
C1991 C1988 1.409 1_455 S
C1991 C1989 1.415 1_455 S
C1992 H1982 0.930 . S
C1992 C1990 1.419 . S
C1992 C1993 1.362 . S
C1993 H1983 0.930 . S
C1993 C1986 1.409 . S
C1993 C1992 1.362 . S
H1994 C2000 0.930 . S
H1995 C2003 0.930 . S
H1996 C2004 0.930 . S
H1997 C2005 0.930 . S
H1998 C2008 0.930 . S
H1999 C2009 0.930 . S
C2000 H1994 0.930 . S
C2000 C2001 1.355 . S
C2000 C2002 1.415 . S
C2001 C2000 1.355 . S
C2001 C2003 1.419 . S
C2002 C2000 1.415 . S
C2002 C2007 1.425 . S
C2002 C2009 1.409 . S
C2003 H1995 0.930 . S
C2003 C2001 1.419 . S
C2003 C2004 1.362 . S
C2004 H1996 0.930 . S
C2004 C2003 1.362 . S
C2004 C2007 1.409 . S
C2005 H1997 0.930 . S
C2005 C2006 1.355 . S
C2005 C2007 1.415 . S
C2006 C2005 1.355 . S
C2006 C2008 1.419 . S
C2007 C2002 1.425 . S
C2007 C2004 1.409 . S
C2007 C2005 1.415 . S
C2008 H1998 0.930 . S
C2008 C2006 1.419 . S
C2008 C2009 1.362 . S
C2009 H1999 0.930 . S
C2009 C2002 1.409 . S
C2009 C2008 1.362 . S
H2010 C2016 0.930 . S
H2011 C2019 0.930 . S
H2012 C2020 0.930 . S
H2013 C2021 0.930 . S
H2014 C2024 0.930 . S
H2015 C2025 0.930 . S
C2016 H2010 0.930 . S
C2016 C2017 1.355 . S
C2016 C2018 1.415 . S
C2017 C2016 1.355 . S
C2017 C2019 1.419 . S
C2018 C2016 1.415 . S
C2018 C2023 1.425 . S
C2018 C2025 1.409 . S
C2019 H2011 0.930 . S
C2019 C2017 1.419 . S
C2019 C2020 1.362 . S
C2020 H2012 0.930 . S
C2020 C2019 1.362 . S
C2020 C2023 1.409 . S
C2021 H2013 0.930 . S
C2021 C2022 1.355 . S
C2021 C2023 1.415 . S
C2022 C2021 1.355 . S
C2022 C2024 1.419 . S
C2023 C2018 1.425 . S
C2023 C2020 1.409 . S
C2023 C2021 1.415 . S
C2024 H2014 0.930 . S
C2024 C2022 1.419 . S
C2024 C2025 1.362 . S
C2025 H2015 0.930 . S
C2025 C2018 1.409 . S
C2025 C2024 1.362 . S
H2026 C2032 0.930 . S
H2027 C2035 0.930 . S
H2028 C2036 0.930 . S
H2029 C2037 0.930 . S
H2030 C2040 0.930 . S
H2031 C2041 0.930 . S
C2032 H2026 0.930 . S
C2032 C2033 1.355 . S
C2032 C2034 1.415 . S
C2033 C2032 1.355 . S
C2033 C2035 1.419 . S
C2034 C2032 1.415 . S
C2034 C2039 1.425 . S
C2034 C2041 1.409 . S
C2035 H2027 0.930 . S
C2035 C2033 1.419 . S
C2035 C2036 1.362 . S
C2036 H2028 0.930 . S
C2036 C2035 1.362 . S
C2036 C2039 1.409 . S
C2037 H2029 0.930 . S
C2037 C2038 1.355 . S
C2037 C2039 1.415 . S
C2038 C2037 1.355 . S
C2038 C2040 1.419 . S
C2039 C2034 1.425 . S
C2039 C2036 1.409 . S
C2039 C2037 1.415 . S
C2040 H2030 0.930 . S
C2040 C2038 1.419 . S
C2040 C2041 1.362 . S
C2041 H2031 0.930 . S
C2041 C2034 1.409 . S
C2041 C2040 1.362 . S
H2042 C2048 0.930 . S
H2043 C2051 0.930 . S
H2044 C2052 0.930 . S
H2045 C2053 0.930 . S
H2046 C2056 0.930 . S
H2047 C2057 0.930 . S
C2048 H2042 0.930 . S
C2048 C2049 1.355 . S
C2048 C2050 1.415 . S
C2049 C2048 1.355 . S
C2049 C2051 1.419 . S
C2050 C2048 1.415 . S
C2050 C2055 1.425 . S
C2050 C2057 1.409 . S
C2051 H2043 0.930 . S
C2051 C2049 1.419 . S
C2051 C2052 1.362 . S
C2052 H2044 0.930 . S
C2052 C2051 1.362 . S
C2052 C2055 1.409 . S
C2053 H2045 0.930 . S
C2053 C2054 1.355 . S
C2053 C2055 1.415 . S
C2054 C2053 1.355 . S
C2054 C2056 1.419 . S
C2055 C2050 1.425 . S
C2055 C2052 1.409 . S
C2055 C2053 1.415 . S
C2056 H2046 0.930 . S
C2056 C2054 1.419 . S
C2056 C2057 1.362 . S
C2057 H2047 0.930 . S
C2057 C2050 1.409 . S
C2057 C2056 1.362 . S
H2058 C2064 0.930 . S
H2059 C2067 0.930 . S
H2060 C2068 0.930 . S
H2061 C2069 0.930 . S
H2062 C2072 0.930 . S
H2063 C2073 0.930 . S
C2064 H2058 0.930 . S
C2064 C2065 1.355 . S
C2064 C2066 1.415 . S
C2065 C2064 1.355 . S
C2065 C2067 1.419 . S
C2066 C2064 1.415 . S
C2066 C2071 1.425 . S
C2066 C2073 1.409 . S
C2067 H2059 0.930 . S
C2067 C2065 1.419 . S
C2067 C2068 1.362 . S
C2068 H2060 0.930 . S
C2068 C2067 1.362 . S
C2068 C2071 1.409 . S
C2069 H2061 0.930 . S
C2069 C2070 1.355 . S
C2069 C2071 1.415 . S
C2070 C2069 1.355 . S
C2070 C2072 1.419 . S
C2071 C2066 1.425 . S
C2071 C2068 1.409 . S
C2071 C2069 1.415 . S
C2072 H2062 0.930 . S
C2072 C2070 1.419 . S
C2072 C2073 1.362 . S
C2073 H2063 0.930 . S
C2073 C2066 1.409 . S
C2073 C2072 1.362 . S
H2074 C2080 0.930 . S
H2075 C2083 0.930 . S
H2076 C2084 0.930 . S
H2077 C2085 0.930 . S
H2078 C2088 0.930 1_455 S
H2079 C2089 0.927 1_455 S
C2080 H2074 0.930 . S
C2080 C2081 1.355 . S
C2080 C2082 1.415 . S
C2081 C2080 1.355 . S
C2081 C2083 1.419 . S
C2082 C2080 1.415 . S
C2082 C2087 1.425 . S
C2082 C2089 1.409 . S
C2083 H2075 0.930 . S
C2083 C2081 1.419 . S
C2083 C2084 1.362 . S
C2084 H2076 0.930 . S
C2084 C2083 1.362 . S
C2084 C2087 1.409 . S
C2085 H2077 0.930 . S
C2085 C2086 1.355 . S
C2085 C2087 1.415 . S
C2086 C2085 1.355 . S
C2086 C2088 1.449 . S
C2087 C2082 1.425 . S
C2087 C2084 1.409 . S
C2087 C2085 1.415 . S
C2088 H2078 0.930 1_655 S
C2088 C2086 1.449 . S
C2088 C2089 1.336 . S
C2089 H2079 0.927 1_655 S
C2089 C2082 1.409 . S
C2089 C2088 1.336 . S
H2090 C2096 0.930 . S
H2091 C2099 0.930 . S
H2092 C2100 0.930 . S
H2093 C2101 0.930 . S
H2094 C2104 0.930 . S
H2095 C2105 0.930 . S
C2096 H2090 0.930 . S
C2096 C2097 1.355 . S
C2096 C2098 1.415 . S
C2097 C2096 1.355 . S
C2097 C2099 1.419 . S
C2098 C2096 1.415 . S
C2098 C2103 1.425 . S
C2098 C2105 1.409 . S
C2099 H2091 0.930 . S
C2099 C2097 1.419 . S
C2099 C2100 1.362 . S
C2100 H2092 0.930 . S
C2100 C2099 1.362 . S
C2100 C2103 1.409 . S
C2101 H2093 0.930 . S
C2101 C2102 1.355 . S
C2101 C2103 1.415 . S
C2102 C2101 1.355 . S
C2102 C2104 1.419 . S
C2103 C2098 1.425 . S
C2103 C2100 1.409 . S
C2103 C2101 1.415 . S
C2104 H2094 0.930 . S
C2104 C2102 1.419 . S
C2104 C2105 1.362 . S
C2105 H2095 0.930 . S
C2105 C2098 1.409 . S
C2105 C2104 1.362 . S
H2106 C2112 0.930 . S
H2107 C2115 0.930 . S
H2108 C2116 0.930 . S
H2109 C2117 0.930 . S
H2110 C2120 0.930 . S
H2111 C2121 0.930 . S
C2112 H2106 0.930 . S
C2112 C2113 1.355 . S
C2112 C2114 1.415 . S
C2113 C2112 1.355 . S
C2113 C2115 1.419 . S
C2114 C2112 1.415 . S
C2114 C2119 1.425 . S
C2114 C2121 1.409 . S
C2115 H2107 0.930 . S
C2115 C2113 1.419 . S
C2115 C2116 1.362 . S
C2116 H2108 0.930 . S
C2116 C2115 1.362 . S
C2116 C2119 1.409 . S
C2117 H2109 0.930 . S
C2117 C2118 1.355 . S
C2117 C2119 1.415 . S
C2118 C2117 1.355 . S
C2118 C2120 1.419 . S
C2119 C2114 1.425 . S
C2119 C2116 1.409 . S
C2119 C2117 1.415 . S
C2120 H2110 0.930 . S
C2120 C2118 1.419 . S
C2120 C2121 1.362 . S
C2121 H2111 0.930 . S
C2121 C2114 1.409 . S
C2121 C2120 1.362 . S
H2122 C2128 0.930 . S
H2123 C2131 0.930 . S
H2124 C2132 0.930 . S
H2125 C2133 0.930 . S
H2126 C2136 0.930 . S
H2127 C2137 0.930 . S
C2128 H2122 0.930 . S
C2128 C2129 1.355 . S
C2128 C2130 1.415 . S
C2129 C2128 1.355 . S
C2129 C2131 1.419 . S
C2130 C2128 1.415 . S
C2130 C2135 1.425 . S
C2130 C2137 1.409 . S
C2131 H2123 0.930 . S
C2131 C2129 1.419 . S
C2131 C2132 1.362 . S
C2132 H2124 0.930 . S
C2132 C2131 1.362 . S
C2132 C2135 1.409 . S
C2133 H2125 0.930 . S
C2133 C2134 1.355 . S
C2133 C2135 1.415 . S
C2134 C2133 1.355 . S
C2134 C2136 1.419 . S
C2135 C2130 1.425 . S
C2135 C2132 1.409 . S
C2135 C2133 1.415 . S
C2136 H2126 0.930 . S
C2136 C2134 1.419 . S
C2136 C2137 1.362 . S
C2137 H2127 0.930 . S
C2137 C2130 1.409 . S
C2137 C2136 1.362 . S
H2138 C2144 0.930 . S
H2139 C2147 0.930 . S
H2140 C2148 0.930 . S
H2141 C2149 0.930 . S
H2142 C2152 0.930 . S
H2143 C2153 0.930 . S
C2144 H2138 0.930 . S
C2144 C2145 1.355 . S
C2144 C2146 1.415 . S
C2145 C2144 1.355 . S
C2145 C2147 1.419 . S
C2146 C2144 1.415 . S
C2146 C2151 1.425 . S
C2146 C2153 1.409 . S
C2147 H2139 0.930 . S
C2147 C2145 1.419 . S
C2147 C2148 1.362 . S
C2148 H2140 0.930 . S
C2148 C2147 1.362 . S
C2148 C2151 1.409 . S
C2149 H2141 0.930 . S
C2149 C2150 1.355 . S
C2149 C2151 1.415 . S
C2150 C2149 1.355 . S
C2150 C2152 1.419 . S
C2151 C2146 1.425 . S
C2151 C2148 1.409 . S
C2151 C2149 1.415 . S
C2152 H2142 0.930 . S
C2152 C2150 1.419 . S
C2152 C2153 1.362 . S
C2153 H2143 0.930 . S
C2153 C2146 1.409 . S
C2153 C2152 1.362 . S
H2154 C2160 0.930 . S
H2155 C2163 0.930 . S
H2156 C2164 0.930 . S
H2157 C2165 0.930 . S
H2158 C2168 0.930 . S
H2159 C2169 0.930 . S
C2160 H2154 0.930 . S
C2160 C2161 1.355 . S
C2160 C2162 1.415 . S
C2161 C2160 1.355 . S
C2161 C2163 1.419 . S
C2162 C2160 1.415 . S
C2162 C2167 1.425 . S
C2162 C2169 1.409 . S
C2163 H2155 0.930 . S
C2163 C2161 1.419 . S
C2163 C2164 1.362 . S
C2164 H2156 0.930 . S
C2164 C2163 1.362 . S
C2164 C2167 1.409 . S
C2165 H2157 0.930 . S
C2165 C2166 1.355 . S
C2165 C2167 1.415 . S
C2166 C2165 1.355 . S
C2166 C2168 1.419 . S
C2167 C2162 1.425 . S
C2167 C2164 1.409 . S
C2167 C2165 1.415 . S
C2168 H2158 0.930 . S
C2168 C2166 1.419 . S
C2168 C2169 1.362 . S
C2169 H2159 0.930 . S
C2169 C2162 1.409 . S
C2169 C2168 1.362 . S
H2170 C2176 0.930 . S
H2171 C2179 0.930 . S
H2172 C2180 0.930 . S
H2173 C2181 0.930 . S
H2174 C2184 0.930 . S
H2175 C2185 0.930 . S
C2176 H2170 0.930 . S
C2176 C2177 1.355 . S
C2176 C2178 1.415 . S
C2177 C2176 1.355 . S
C2177 C2179 1.419 . S
C2178 C2176 1.415 . S
C2178 C2183 1.425 . S
C2178 C2185 1.409 . S
C2179 H2171 0.930 . S
C2179 C2177 1.419 . S
C2179 C2180 1.362 . S
C2180 H2172 0.930 . S
C2180 C2179 1.362 . S
C2180 C2183 1.409 . S
C2181 H2173 0.930 . S
C2181 C2182 1.355 . S
C2181 C2183 1.415 . S
C2182 C2181 1.355 . S
C2182 C2184 1.419 . S
C2183 C2178 1.425 . S
C2183 C2180 1.409 . S
C2183 C2181 1.415 . S
C2184 H2174 0.930 . S
C2184 C2182 1.419 . S
C2184 C2185 1.362 . S
C2185 H2175 0.930 . S
C2185 C2178 1.409 . S
C2185 C2184 1.362 . S
H2186 C2192 0.930 . S
H2187 C2195 0.930 . S
H2188 C2196 0.930 . S
H2189 C2197 0.930 . S
H2190 C2200 0.930 . S
H2191 C2201 0.930 . S
C2192 H2186 0.930 . S
C2192 C2193 1.355 . S
C2192 C2194 1.415 . S
C2193 C2192 1.355 . S
C2193 C2195 1.419 . S
C2194 C2192 1.415 . S
C2194 C2199 1.425 . S
C2194 C2201 1.409 . S
C2195 H2187 0.930 . S
C2195 C2193 1.419 . S
C2195 C2196 1.362 . S
C2196 H2188 0.930 . S
C2196 C2195 1.362 . S
C2196 C2199 1.409 . S
C2197 H2189 0.930 . S
C2197 C2198 1.355 . S
C2197 C2199 1.415 . S
C2198 C2197 1.355 . S
C2198 C2200 1.419 . S
C2199 C2194 1.425 . S
C2199 C2196 1.409 . S
C2199 C2197 1.415 . S
C2200 H2190 0.930 . S
C2200 C2198 1.419 . S
C2200 C2201 1.362 . S
C2201 H2191 0.930 . S
C2201 C2194 1.409 . S
C2201 C2200 1.362 . S
H2202 C2208 0.930 . S
H2203 C2211 0.930 . S
H2204 C2212 0.930 . S
H2205 C2213 0.930 . S
H2206 C2216 0.930 . S
H2207 C2217 0.930 . S
C2208 H2202 0.930 . S
C2208 C2209 1.355 1_455 S
C2208 C2210 1.415 . S
C2209 C2208 1.355 1_655 S
C2209 C2211 1.419 . S
C2210 C2208 1.415 . S
C2210 C2215 1.425 1_455 S
C2210 C2217 1.409 . S
C2211 H2203 0.930 . S
C2211 C2209 1.419 . S
C2211 C2212 1.362 . S
C2212 H2204 0.930 . S
C2212 C2211 1.362 . S
C2212 C2215 1.409 . S
C2213 H2205 0.930 . S
C2213 C2214 1.355 . S
C2213 C2215 1.415 . S
C2214 C2213 1.355 . S
C2214 C2216 1.419 1_655 S
C2215 C2210 1.425 1_655 S
C2215 C2212 1.409 . S
C2215 C2213 1.415 . S
C2216 H2206 0.930 . S
C2216 C2214 1.419 1_455 S
C2216 C2217 1.362 . S
C2217 H2207 0.930 . S
C2217 C2210 1.409 . S
C2217 C2216 1.362 . S
H2218 C2224 0.930 . S
H2219 C2227 0.930 . S
H2220 C2228 0.930 . S
H2221 C2229 0.930 . S
H2222 C2232 0.930 . S
H2223 C2233 0.930 . S
C2224 H2218 0.930 . S
C2224 C2225 1.355 . S
C2224 C2226 1.415 . S
C2225 C2224 1.355 . S
C2225 C2227 1.419 . S
C2226 C2224 1.415 . S
C2226 C2231 1.425 . S
C2226 C2233 1.409 . S
C2227 H2219 0.930 . S
C2227 C2225 1.419 . S
C2227 C2228 1.362 . S
C2228 H2220 0.930 . S
C2228 C2227 1.362 . S
C2228 C2231 1.409 . S
C2229 H2221 0.930 . S
C2229 C2230 1.355 . S
C2229 C2231 1.415 . S
C2230 C2229 1.355 . S
C2230 C2232 1.419 . S
C2231 C2226 1.425 . S
C2231 C2228 1.409 . S
C2231 C2229 1.415 . S
C2232 H2222 0.930 . S
C2232 C2230 1.419 . S
C2232 C2233 1.362 . S
C2233 H2223 0.930 . S
C2233 C2226 1.409 . S
C2233 C2232 1.362 . S
H2234 C2240 0.930 . S
H2235 C2243 0.930 . S
H2236 C2244 0.930 . S
H2237 C2245 0.930 . S
H2238 C2248 0.930 . S
H2239 C2249 0.930 . S
C2240 H2234 0.930 . S
C2240 C2241 1.355 1_565 S
C2240 C2242 1.427 . S
C2241 C2240 1.355 1_545 S
C2241 C2243 1.419 . S
C2242 C2240 1.427 . S
C2242 C2247 1.404 1_565 S
C2242 C2249 1.418 . S
C2243 H2235 0.930 . S
C2243 C2241 1.419 . S
C2243 C2244 1.362 . S
C2244 H2236 0.930 . S
C2244 C2243 1.362 . S
C2244 C2247 1.409 . S
C2245 H2237 0.930 . S
C2245 C2246 1.355 . S
C2245 C2247 1.415 . S
C2246 C2245 1.355 . S
C2246 C2248 1.419 1_545 S
C2247 C2242 1.404 1_545 S
C2247 C2244 1.409 . S
C2247 C2245 1.415 . S
C2248 H2238 0.930 . S
C2248 C2246 1.419 1_565 S
C2248 C2249 1.362 . S
C2249 H2239 0.930 . S
C2249 C2242 1.418 . S
C2249 C2248 1.362 . S
C1105 C10 1.585 1_655 S
C1110 C711 1.623 . S
C1121 C23 1.620 . S
C1126 C759 1.599 . S
C1142 C807 1.581 . S
C1137 C29 1.605 . S
C1153 C30 1.581 . S
C1158 C831 1.605 . S
C1169 C5 1.590 1_655 S
C1174 C903 1.603 . S
C1185 C18 1.626 . S
C1190 C951 1.618 . S
C1201 C49 1.604 . S
C1206 C879 1.580 . S
C1222 C927 1.607 . S
C1217 C62 1.628 . S
C1238 C855 1.598 . S
C1233 C70 1.620 1_565 S
C1249 C75 1.593 . S
C1254 C783 1.594 . S
C1270 C687 1.620 . S
C1265 C44 1.613 1_655 S
C1281 C57 1.630 . S
C1286 C735 1.612 . S
C1297 C88 1.649 . S
C1302 C999 1.634 . S
C1313 C101 1.642 . S
C1318 C1047 1.623 . S
C1334 C1071 1.613 . S
C1329 C107 1.641 . S
C1345 C108 1.629 . S
C1350 C255 1.633 . S
C1361 C83 1.647 . S
C1366 C327 1.612 . S
C1377 C96 1.644 . S
C1382 C375 1.607 . S
C1393 C127 1.625 . S
C1398 C303 1.623 . S
C1409 C140 1.638 . S
C1414 C351 1.616 . S
C1430 C279 1.618 . S
C1425 C146 1.627 . S
C1446 C1095 1.584 . S
C1441 C147 1.645 . S
C1462 C975 1.632 . S
C1457 C122 1.653 . S
C1478 C1023 1.635 . S
C1473 C135 1.658 . S
C1489 C160 1.632 . S
C1494 C423 1.598 . S
C1505 C173 1.634 . S
C1510 C471 1.600 . S
C1521 C185 1.645 . S
C1526 C495 1.617 . S
C1537 C186 1.645 . S
C1542 C543 1.646 . S
C1558 C615 1.631 . S
C1553 C159 1.642 . S
C1574 C663 1.624 . S
C1569 C172 1.655 . S
C1590 C591 1.641 . S
C1585 C205 1.655 . S
C1606 C639 1.651 . S
C1601 C218 1.645 . S
C1617 C224 1.634 . S
C1622 C567 1.628 . S
C1638 C519 1.573 . S
C1633 C225 1.620 . S
C1649 C200 1.649 . S
C1654 C399 1.639 . S
C1670 C447 1.635 . S
C1665 C213 1.635 . S
C1686 C264 1.519 . S
C1681 C4 1.515 . S
C1697 C17 1.492 . S
C1702 C318 1.500 . S
C1718 C366 1.521 . S
C1713 C31 1.515 . S
C1734 C414 1.487 . S
C1729 C36 1.520 . S
C1750 C462 1.516 . S
C1745 C3 1.520 . S
C1766 C504 1.503 . S
C1761 C16 1.500 . S
C1777 C43 1.521 . S
C1782 C510 1.524 . S
C1793 C56 1.500 . S
C1798 C408 1.461 . S
C1809 C68 1.509 . S
C1814 C456 1.493 . S
C1825 C69 1.519 . S
C1830 C312 1.495 . S
C1846 C360 1.516 . S
C1841 C42 1.515 . S
C1857 C55 1.503 . S
C1862 C270 1.484 . S
C1878 C552 1.507 . S
C1873 C82 1.513 . S
C1889 C95 1.521 . S
C1894 C606 1.510 . S
C1905 C109 1.542 . S
C1910 C654 1.517 . S
C1926 C702 1.477 . S
C1921 C114 1.485 . S
C1937 C81 1.524 . S
C1942 C750 1.497 . S
C1953 C94 1.494 . S
C1958 C798 1.473 . S
C1969 C121 1.489 . S
C1974 C792 1.489 . S
C1985 C134 1.484 . S
C1990 C696 1.485 . S
C2006 C744 1.480 . S
C2001 C148 1.517 . S
C2017 C153 1.518 . S
C2022 C600 1.477 . S
C2033 C120 1.541 . S
C2038 C648 1.525 . S
C2054 C558 1.514 . S
C2049 C133 1.533 . S
C2070 C840 1.497 . S
C2065 C166 1.488 . S
C2081 C179 1.477 . S
C2086 C894 1.472 . S
C2097 C187 1.518 . S
C2102 C942 1.512 . S
C2118 C990 1.504 . S
C2113 C192 1.513 . S
C2134 C1038 1.518 . S
C2129 C161 1.542 . S
C2145 C174 1.532 . S
C2150 C1080 1.535 . S
C2161 C199 1.519 . S
C2166 C1086 1.498 . S
C2177 C212 1.520 . S
C2182 C984 1.523 . S
C2198 C1032 1.534 . S
C2193 C226 1.532 . S
C2214 C888 1.485 . S
C2209 C231 1.475 . S
C2230 C936 1.493 . S
C2225 C198 1.525 . S
C2241 C211 1.491 . S
C2246 C846 1.482 . S
