# Generated by pormake.
# Topology nom, (4,4)-cn, num edge types: 1
# Building blocks:
#     Node 0, Type 0, BuildingBlock: AZAVOO_clean_linker_0, # of connection points: 4
#     Node 1, Type 0, BuildingBlock: AZAVOO_clean_linker_0, # of connection points: 4
#     Node 2, Type 0, BuildingBlock: AZAVOO_clean_linker_0, # of connection points: 4
#     Node 3, Type 0, BuildingBlock: AZAVOO_clean_linker_0, # of connection points: 4
#     Node 4, Type 0, BuildingBlock: AZAVOO_clean_linker_0, # of connection points: 4
#     Node 5, Type 0, BuildingBlock: AZAVOO_clean_linker_0, # of connection points: 4
#     Node 6, Type 1, BuildingBlock: QUQFOY_clean_sbu_3, # of connection points: 4
#     Node 7, Type 1, BuildingBlock: QUQFOY_clean_sbu_3, # of connection points: 4
#     Node 8, Type 1, BuildingBlock: QUQFOY_clean_sbu_3, # of connection points: 4
#     Node 9, Type 1, BuildingBlock: QUQFOY_clean_sbu_3, # of connection points: 4
#     Node 10, Type 1, BuildingBlock: QUQFOY_clean_sbu_3, # of connection points: 4
#     Node 11, Type 1, BuildingBlock: QUQFOY_clean_sbu_3, # of connection points: 4
#     Edge 12, Type (0, 1), BuildingBlock: AJUNOK_clean_linker_0, # of connection points: 2
#     Edge 13, Type (0, 1), BuildingBlock: AJUNOK_clean_linker_0, # of connection points: 2
#     Edge 14, Type (0, 1), BuildingBlock: AJUNOK_clean_linker_0, # of connection points: 2
#     Edge 15, Type (0, 1), BuildingBlock: AJUNOK_clean_linker_0, # of connection points: 2
#     Edge 16, Type (0, 1), BuildingBlock: AJUNOK_clean_linker_0, # of connection points: 2
#     Edge 17, Type (0, 1), BuildingBlock: AJUNOK_clean_linker_0, # of connection points: 2
#     Edge 18, Type (0, 1), BuildingBlock: AJUNOK_clean_linker_0, # of connection points: 2
#     Edge 19, Type (0, 1), BuildingBlock: AJUNOK_clean_linker_0, # of connection points: 2
#     Edge 20, Type (0, 1), BuildingBlock: AJUNOK_clean_linker_0, # of connection points: 2
#     Edge 21, Type (0, 1), BuildingBlock: AJUNOK_clean_linker_0, # of connection points: 2
#     Edge 22, Type (0, 1), BuildingBlock: AJUNOK_clean_linker_0, # of connection points: 2
#     Edge 23, Type (0, 1), BuildingBlock: AJUNOK_clean_linker_0, # of connection points: 2
#     Edge 24, Type (0, 1), BuildingBlock: AJUNOK_clean_linker_0, # of connection points: 2
#     Edge 25, Type (0, 1), BuildingBlock: AJUNOK_clean_linker_0, # of connection points: 2
#     Edge 26, Type (0, 1), BuildingBlock: AJUNOK_clean_linker_0, # of connection points: 2
#     Edge 27, Type (0, 1), BuildingBlock: AJUNOK_clean_linker_0, # of connection points: 2
#     Edge 28, Type (0, 1), BuildingBlock: AJUNOK_clean_linker_0, # of connection points: 2
#     Edge 29, Type (0, 1), BuildingBlock: AJUNOK_clean_linker_0, # of connection points: 2
#     Edge 30, Type (0, 1), BuildingBlock: AJUNOK_clean_linker_0, # of connection points: 2
#     Edge 31, Type (0, 1), BuildingBlock: AJUNOK_clean_linker_0, # of connection points: 2
#     Edge 32, Type (0, 1), BuildingBlock: AJUNOK_clean_linker_0, # of connection points: 2
#     Edge 33, Type (0, 1), BuildingBlock: AJUNOK_clean_linker_0, # of connection points: 2
#     Edge 34, Type (0, 1), BuildingBlock: AJUNOK_clean_linker_0, # of connection points: 2
#     Edge 35, Type (0, 1), BuildingBlock: AJUNOK_clean_linker_0, # of connection points: 2
# Relax obj value: 0.155
# Max RMSD: 0.231
# Mean RMSD: 0.148
data_MOF--net-nom--node1-QUQFOY_clean_sbu_3--node2-AZAVOO_clean_linker_0--edge1-AJUNOK_clean_linker_0
_symmetry_space_group_name_H-M    P1
_symmetry_Int_Tables_number       1
_symmetry_cell_setting            triclinic
loop_
_symmetry_equiv_pos_as_xyz
'x, y, z'
_cell_length_a     37.703913
_cell_length_b     39.840714
_cell_length_c     47.498638
_cell_angle_alpha  89.776967
_cell_angle_beta   89.883175
_cell_angle_gamma 121.30164
loop_
_atom_site_label
_atom_site_type_symbol
_atom_site_fract_x
_atom_site_fract_y
_atom_site_fract_z
_atom_type_partial_charge
H0 H 0.0624 0.42021 0.11798 0.0
H1 H 0.29774 0.66773 0.36862 0.0
H2 H 0.98064 0.39999 0.26329 0.0
H3 H 0.93526 0.36913 0.22279 0.0
H4 H 0.91474 0.46588 0.21744 0.0
H5 H 0.96098 0.49714 0.25758 0.0
H6 H 0.07423 0.44032 0.24025 0.0
H7 H 0.07397 0.42477 0.19039 0.0
H8 H 0.02805 0.50106 0.16914 0.0
H9 H 0.02897 0.51669 0.21896 0.0
H10 H 0.16009 0.50756 0.27552 0.0
H11 H 0.22772 0.55719 0.25546 0.0
H12 H 0.17174 0.61947 0.22116 0.0
H13 H 0.10517 0.57021 0.24075 0.0
H14 H 0.12664 0.49474 0.34228 0.0
H15 H 0.19283 0.53317 0.3669 0.0
H16 H 0.21276 0.63862 0.32564 0.0
H17 H 0.14625 0.59997 0.30155 0.0
H18 H 0.03706 0.46405 0.36697 0.0
H19 H 0.06495 0.48784 0.41431 0.0
H20 H 0.10968 0.60677 0.38726 0.0
H21 H 0.08117 0.58303 0.3403 0.0
H22 H 0.93849 0.42307 0.31805 0.0
H23 H 0.87702 0.42145 0.33673 0.0
H24 H 0.94836 0.54796 0.34462 0.0
H25 H 0.00733 0.54952 0.3228 0.0
O26 O 0.06263 0.42701 0.13753 0.0
O27 O 0.03854 0.46619 0.1278 0.0
O28 O 0.25999 0.5967 0.37958 0.0
O29 O 0.27156 0.6518 0.35905 0.0
C30 C 0.01388 0.47581 0.27849 0.0
C31 C 0.05145 0.48856 0.26355 0.0
C32 C 0.08984 0.51248 0.27682 0.0
C33 C 0.09111 0.52107 0.30563 0.0
C34 C 0.05389 0.50981 0.32037 0.0
C35 C 0.01514 0.48891 0.3064 0.0
C36 C 0.97433 0.45093 0.26327 0.0
C37 C 0.96467 0.41356 0.25432 0.0
C38 C 0.93908 0.39612 0.23106 0.0
C39 C 0.92196 0.41537 0.21695 0.0
C40 C 0.92738 0.45035 0.22816 0.0
C41 C 0.95353 0.46812 0.25121 0.0
C42 C 0.05104 0.47913 0.23323 0.0
C43 C 0.06412 0.4536 0.22476 0.0
C44 C 0.06395 0.44481 0.19629 0.0
C45 C 0.05091 0.46162 0.17578 0.0
C46 C 0.03822 0.48756 0.18438 0.0
C47 C 0.03844 0.49632 0.21283 0.0
C48 C 0.12786 0.53541 0.25956 0.0
C49 C 0.1624 0.5313 0.26287 0.0
C50 C 0.20092 0.55976 0.25167 0.0
C51 C 0.20505 0.59246 0.23713 0.0
C52 C 0.16954 0.59449 0.23203 0.0
C53 C 0.13137 0.56627 0.24316 0.0
C54 C 0.13183 0.54452 0.32001 0.0
C55 C 0.14541 0.52613 0.33857 0.0
C56 C 0.18322 0.54814 0.35257 0.0
C57 C 0.20812 0.58899 0.3482 0.0
C58 C 0.19438 0.60726 0.32949 0.0
C59 C 0.1565 0.58524 0.3156 0.0
C60 C 0.05702 0.52179 0.35024 0.0
C61 C 0.05098 0.49497 0.37167 0.0
C62 C 0.06716 0.50856 0.39853 0.0
C63 C 0.0895 0.54901 0.40404 0.0
C64 C 0.09237 0.57545 0.38334 0.0
C65 C 0.07584 0.56187 0.35667 0.0
C66 C 0.97786 0.48639 0.31942 0.0
C67 C 0.94066 0.45039 0.32368 0.0
C68 C 0.90571 0.44952 0.33484 0.0
C69 C 0.90772 0.48457 0.34273 0.0
C70 C 0.9453 0.52037 0.33867 0.0
C71 C 0.97949 0.52128 0.32666 0.0
C72 C 0.0503 0.45188 0.14558 0.0
C73 C 0.24809 0.61257 0.36325 0.0
H74 H 0.52988 0.06287 0.27928 0.0
H75 H 0.51917 0.25073 0.55581 0.0
H76 H 0.51308 0.98721 0.42426 0.0
H77 H 0.50237 0.94456 0.38422 0.0
H78 H 0.37085 0.90044 0.38751 0.0
H79 H 0.38196 0.94389 0.42738 0.0
H80 H 0.5437 0.06855 0.40204 0.0
H81 H 0.55061 0.0718 0.35069 0.0
H82 H 0.41804 0.02089 0.34312 0.0
H83 H 0.41165 0.01796 0.3945 0.0
H84 H 0.5665 0.1274 0.44478 0.0
H85 H 0.59836 0.19635 0.43051 0.0
H86 H 0.4774 0.17652 0.41019 0.0
H87 H 0.44556 0.10723 0.42455 0.0
H88 H 0.55473 0.11489 0.50495 0.0
H89 H 0.57814 0.17484 0.53215 0.0
H90 H 0.46069 0.16627 0.51677 0.0
H91 H 0.43759 0.10611 0.48982 0.0
H92 H 0.52469 0.03535 0.52353 0.0
H93 H 0.54186 0.05965 0.57152 0.0
H94 H 0.42435 0.05367 0.57886 0.0
H95 H 0.40924 0.03264 0.52977 0.0
H96 H 0.47555 0.9447 0.47609 0.0
H97 H 0.43815 0.87853 0.49592 0.0
H98 H 0.34577 0.9005 0.53018 0.0
H99 H 0.38077 0.96484 0.50736 0.0
O100 O 0.52651 0.06172 0.29952 0.0
O101 O 0.45841 0.03667 0.29678 0.0
O102 O 0.56981 0.22916 0.55354 0.0
O103 O 0.51055 0.22689 0.54539 0.0
C104 C 0.457 0.00262 0.44633 0.0
C105 C 0.47286 0.03964 0.433 0.0
C106 C 0.48465 0.07326 0.44918 0.0
C107 C 0.48059 0.07014 0.47868 0.0
C108 C 0.46427 0.03322 0.49209 0.0
C109 C 0.45146 -0.00098 0.47596 0.0
C110 C 0.4483 0.9687 0.42857 0.0
C111 C 0.48176 0.96726 0.41699 0.0
C112 C 0.47563 0.94295 0.39414 0.0
C113 C 0.43593 0.91984 0.38251 0.0
C114 C 0.40187 0.91853 0.39588 0.0
C115 C 0.40804 0.94294 0.41876 0.0
C116 C 0.47722 0.04315 0.40189 0.0
C117 C 0.51628 0.05843 0.38922 0.0
C118 C 0.52009 0.06009 0.3599 0.0
C119 C 0.48486 0.04653 0.34279 0.0
C120 C 0.44579 0.03156 0.35567 0.0
C121 C 0.44204 0.02989 0.38498 0.0
C122 C 0.50382 0.11254 0.43574 0.0
C123 C 0.547 0.13774 0.43666 0.0
C124 C 0.56505 0.17701 0.42868 0.0
C125 C 0.54016 0.19164 0.41965 0.0
C126 C 0.49713 0.16579 0.41708 0.0
C127 C 0.479 0.12639 0.42521 0.0
C128 C 0.49441 0.10613 0.49562 0.0
C129 C 0.53404 0.1259 0.50767 0.0
C130 C 0.54735 0.16017 0.52311 0.0
C131 C 0.52129 0.1754 0.52659 0.0
C132 C 0.48154 0.15538 0.51447 0.0
C133 C 0.46824 0.12103 0.4991 0.0
C134 C 0.46585 0.0324 0.52319 0.0
C135 C 0.502 0.03793 0.53585 0.0
C136 C 0.51181 0.05201 0.56332 0.0
C137 C 0.48512 0.05998 0.57875 0.0
C138 C 0.44641 0.0495 0.56713 0.0
C139 C 0.43719 0.03653 0.53933 0.0
C140 C 0.43089 0.95977 0.49001 0.0
C141 C 0.44701 0.93511 0.4876 0.0
C142 C 0.42598 0.89746 0.49958 0.0
C143 C 0.38917 0.88417 0.51522 0.0
C144 C 0.37382 0.90949 0.5182 0.0
C145 C 0.39413 0.94658 0.50545 0.0
C146 C 0.48895 0.04795 0.31165 0.0
C147 C 0.53549 0.21209 0.54266 0.0
H148 H 0.62167 0.55504 0.82414 0.0
H149 H 0.59719 0.37459 0.53701 0.0
H150 H 0.59979 0.62316 0.68413 0.0
H151 H 0.5911 0.6513 0.72742 0.0
H152 H 0.4587 0.57071 0.72374 0.0
H153 H 0.46761 0.54179 0.68074 0.0
H154 H 0.63051 0.5659 0.70118 0.0
H155 H 0.6395 0.567 0.75227 0.0
H156 H 0.50614 0.50035 0.76316 0.0
H157 H 0.49764 0.49895 0.71205 0.0
H158 H 0.64404 0.51743 0.6565 0.0
H159 H 0.65808 0.46668 0.67248 0.0
H160 H 0.52866 0.39135 0.69468 0.0
H161 H 0.51504 0.44206 0.67891 0.0
H162 H 0.64079 0.54087 0.60036 0.0
H163 H 0.66186 0.50525 0.56938 0.0
H164 H 0.53966 0.4013 0.57797 0.0
H165 H 0.51877 0.43759 0.60849 0.0
H166 H 0.61185 0.58866 0.58171 0.0
H167 H 0.6274 0.57605 0.53477 0.0
H168 H 0.501 0.47861 0.52702 0.0
H169 H 0.48811 0.48753 0.57573 0.0
H170 H 0.54036 0.62609 0.62834 0.0
H171 H 0.48578 0.6389 0.61417 0.0
H172 H 0.40552 0.5158 0.5945 0.0
H173 H 0.45781 0.50295 0.6116 0.0
O174 O 0.61743 0.55369 0.80399 0.0
O175 O 0.54868 0.52005 0.80844 0.0
O176 O 0.64882 0.44558 0.54075 0.0
O177 O 0.5896 0.38941 0.54907 0.0
C178 C 0.54181 0.55539 0.66035 0.0
C179 C 0.5582 0.5335 0.67203 0.0
C180 C 0.56851 0.51154 0.65441 0.0
C181 C 0.5655 0.51369 0.62505 0.0
C182 C 0.54844 0.53493 0.61337 0.0
C183 C 0.53379 0.55357 0.63116 0.0
C184 C 0.53433 0.58041 0.67939 0.0
C185 C 0.56873 0.61272 0.69197 0.0
C186 C 0.56384 0.62856 0.71673 0.0
C187 C 0.52435 0.6129 0.72878 0.0
C188 C 0.48941 0.58336 0.71457 0.0
C189 C 0.49439 0.56703 0.68997 0.0
C190 C 0.56346 0.5326 0.70298 0.0
C191 C 0.60331 0.55132 0.71466 0.0
C192 C 0.60833 0.55201 0.74383 0.0
C193 C 0.57353 0.5339 0.76181 0.0
C194 C 0.5336 0.51467 0.74994 0.0
C195 C 0.52865 0.51389 0.72077 0.0
C196 C 0.57857 0.48329 0.66666 0.0
C197 C 0.61896 0.49014 0.66519 0.0
C198 C 0.62686 0.46123 0.67423 0.0
C199 C 0.59451 0.42534 0.68505 0.0
C200 C 0.55433 0.41908 0.68703 0.0
C201 C 0.54647 0.44788 0.67796 0.0
C202 C 0.57824 0.49182 0.60648 0.0
C203 C 0.6186 0.51045 0.5954 0.0
C204 C 0.63054 0.49004 0.57775 0.0
C205 C 0.60244 0.45039 0.57124 0.0
C206 C 0.56208 0.43175 0.58263 0.0
C207 C 0.55005 0.45236 0.60003 0.0
C208 C 0.549 0.53891 0.58237 0.0
C209 C 0.58703 0.56544 0.5695 0.0
C210 C 0.59592 0.558 0.54252 0.0
C211 C 0.56614 0.52479 0.52757 0.0
C212 C 0.52561 0.50275 0.53865 0.0
C213 C 0.51751 0.50882 0.56625 0.0
C214 C 0.50359 0.56368 0.62022 0.0
C215 C 0.51099 0.60205 0.62083 0.0
C216 C 0.47987 0.60934 0.61245 0.0
C217 C 0.44121 0.57844 0.60285 0.0
C218 C 0.43458 0.54033 0.60196 0.0
C219 C 0.46495 0.533 0.61108 0.0
C220 C 0.57895 0.53534 0.79281 0.0
C221 C 0.61516 0.42847 0.55275 0.0
H222 H 0.03587 0.41294 -0.01146 0.0
H223 H 0.26438 0.53553 0.68834 0.0
H224 H 0.96932 0.44703 0.83648 0.0
H225 H 0.92434 0.42955 0.87751 0.0
H226 H 0.916 0.31736 0.88243 0.0
H227 H 0.96172 0.33545 0.84103 0.0
H228 H 0.03855 0.46489 0.87285 0.0
H229 H 0.03706 0.45288 0.92351 0.0
H230 H 0.05353 0.35508 0.9071 0.0
H231 H 0.05439 0.36717 0.85641 0.0
H232 H 0.12126 0.50476 0.84789 0.0
H233 H 0.18994 0.53144 0.86897 0.0
H234 H 0.20011 0.43838 0.83098 0.0
H235 H 0.13071 0.41116 0.81065 0.0
H236 H 0.12611 0.52799 0.78021 0.0
H237 H 0.18767 0.56668 0.75055 0.0
H238 H 0.18052 0.45968 0.7238 0.0
H239 H 0.1189 0.42143 0.75348 0.0
H240 H 0.04104 0.49981 0.75477 0.0
H241 H 0.06532 0.53208 0.70877 0.0
H242 H 0.06848 0.43167 0.67841 0.0
H243 H 0.04435 0.39971 0.72439 0.0
H244 H 0.93888 0.42705 0.78878 0.0
H245 H 0.86857 0.3831 0.77095 0.0
H246 H 0.90872 0.30919 0.7342 0.0
H247 H 0.97786 0.35154 0.75384 0.0
O248 O 0.03723 0.41755 0.96844 0.0
O249 O 0.04718 0.36841 0.95896 0.0
O250 O 0.24252 0.57512 0.71476 0.0
O251 O 0.24056 0.52104 0.70062 0.0
C252 C 0.00546 0.40866 0.81724 0.0
C253 C 0.04422 0.42238 0.8303 0.0
C254 C 0.08088 0.44141 0.81417 0.0
C255 C 0.07926 0.44865 0.78535 0.0
C256 C 0.04059 0.43509 0.77223 0.0
C257 C 0.00348 0.41369 0.7879 0.0
C258 C 0.96804 0.3922 0.83538 0.0
C259 C 0.956 0.41783 0.84542 0.0
C260 C 0.93047 0.40785 0.86905 0.0
C261 C 0.91642 0.37195 0.88309 0.0
C262 C 0.92636 0.34518 0.87196 0.0
C263 C 0.95192 0.3552 0.84815 0.0
C264 C 0.04633 0.41674 0.86105 0.0
C265 C 0.04191 0.44095 0.88027 0.0
C266 C 0.04107 0.43401 0.90918 0.0
C267 C 0.045 0.40291 0.91936 0.0
C268 C 0.05031 0.37922 0.89997 0.0
C269 C 0.05098 0.38612 0.87104 0.0
C270 C 0.12135 0.45617 0.82784 0.0
C271 C 0.13814 0.48988 0.84451 0.0
C272 C 0.17721 0.50505 0.85641 0.0
C273 C 0.20003 0.48676 0.85166 0.0
C274 C 0.18276 0.45254 0.83534 0.0
C275 C 0.1435 0.43725 0.82354 0.0
C276 C 0.11826 0.47203 0.76896 0.0
C277 C 0.13818 0.51307 0.7681 0.0
C278 C 0.1732 0.53504 0.75108 0.0
C279 C 0.18895 0.51625 0.73473 0.0
C280 C 0.16919 0.47507 0.73608 0.0
C281 C 0.13411 0.45316 0.75306 0.0
C282 C 0.04042 0.44721 0.74276 0.0
C283 C 0.04507 0.48403 0.73775 0.0
C284 C 0.05947 0.50264 0.71167 0.0
C285 C 0.06885 0.48439 0.69014 0.0
C286 C 0.06089 0.44613 0.69451 0.0
C287 C 0.0468 0.42768 0.72068 0.0
C288 C 0.96316 0.39192 0.77323 0.0
C289 C 0.93239 0.40127 0.77702 0.0
C290 C 0.89242 0.37639 0.76656 0.0
C291 C 0.88291 0.34213 0.75185 0.0
C292 C 0.91475 0.33462 0.74628 0.0
C293 C 0.95439 0.35908 0.75713 0.0
C294 C 0.04327 0.39515 0.95007 0.0
C295 C 0.22563 0.53937 0.71617 0.0
H296 H 0.35016 0.96659 0.79815 0.0
H297 H 0.41241 0.78141 0.06228 0.0
H298 H 0.43732 0.06657 0.9255 0.0
H299 H 0.46761 0.10749 0.88326 0.0
H300 H 0.58363 0.11416 0.89981 0.0
H301 H 0.55293 0.07204 0.94094 0.0
H302 H 0.36927 0.96557 0.92031 0.0
H303 H 0.34893 0.96112 0.87093 0.0
H304 H 0.47684 0.0102 0.8455 0.0
H305 H 0.49662 0.01381 0.89478 0.0
H306 H 0.36541 0.88344 0.9604 0.0
H307 H 0.36298 0.82321 0.94543 0.0
H308 H 0.47912 0.89366 0.90107 0.0
H309 H 0.48394 0.95278 0.91861 0.0
H310 H 0.37983 0.92439 0.02335 0.0
H311 H 0.36031 0.86611 0.0521 0.0
H312 H 0.4595 0.85754 0.01385 0.0
H313 H 0.47875 0.91589 0.98534 0.0
H314 H 0.43523 0.01148 0.0457 0.0
H315 H 0.44166 0.99386 0.09426 0.0
H316 H 0.53158 0.96483 0.06645 0.0
H317 H 0.5255 0.98291 0.01839 0.0
H318 H 0.4814 0.10005 -0.00924 0.0
H319 H 0.54024 0.16486 0.00401 0.0
H320 H 0.61571 0.11351 0.01634 0.0
H321 H 0.5589 0.05064 0.00048 0.0
O322 O 0.35884 0.96843 0.81752 0.0
O323 O 0.42517 0.99439 0.80562 0.0
O324 O 0.36817 0.80955 0.06962 0.0
O325 O 0.41913 0.80421 0.05092 0.0
C326 C 0.47146 0.03053 0.95444 0.0
C327 C 0.4463 0.99346 0.94146 0.0
C328 C 0.4347 0.95864 0.95657 0.0
C329 C 0.44319 0.96054 0.98566 0.0
C330 C 0.46725 0.99739 -0.00113 0.0
C331 C 0.48276 0.03242 0.98308 0.0
C332 C 0.49277 0.06602 0.93617 0.0
C333 C 0.4698 0.07835 0.92069 0.0
C334 C 0.48713 0.10172 0.89662 0.0
C335 C 0.52771 0.11338 0.88822 0.0
C336 C 0.55216 0.10518 0.90581 0.0
C337 C 0.53476 0.08151 0.92954 0.0
C338 C 0.43449 0.99061 0.91124 0.0
C339 C 0.39284 0.97531 0.90404 0.0
C340 C 0.38132 0.97285 0.87582 0.0
C341 C 0.4113 0.98552 0.85427 0.0
C342 C 0.45299 0.00038 0.86156 0.0
C343 C 0.4644 0.00266 0.88975 0.0
C344 C 0.42502 0.92269 0.94082 0.0
C345 C 0.38984 0.88575 0.94696 0.0
C346 C 0.3884 0.85145 0.93835 0.0
C347 C 0.42163 0.85405 0.92294 0.0
C348 C 0.45381 0.89094 0.91373 0.0
C349 C 0.45607 0.92487 0.92321 0.0
C350 C 0.43038 0.92408 0.00209 0.0
C351 C 0.3971 0.9097 0.02111 0.0
C352 C 0.38611 0.8765 0.03754 0.0
C353 C 0.4084 0.8572 0.03531 0.0
C354 C 0.44169 0.87167 0.01612 0.0
C355 C 0.45265 0.90489 -0.00029 0.0
C356 C 0.47971 -0.00176 0.02859 0.0
C357 C 0.45756 0.0029 0.05037 0.0
C358 C 0.46108 0.99263 0.07796 0.0
C359 C 0.48661 0.97741 0.08389 0.0
C360 C 0.51187 0.97667 0.06249 0.0
C361 C 0.50836 0.98693 0.03503 0.0
C362 C 0.51553 0.07034 -0.00488 0.0
C363 C 0.51061 0.10289 -0.00345 0.0
C364 C 0.54411 0.13976 0.00417 0.0
C365 C 0.58278 0.14434 0.01061 0.0
C366 C 0.58669 0.11117 0.01069 0.0
C367 C 0.55379 0.07486 0.00239 0.0
C368 C 0.39903 0.98311 0.82432 0.0
C369 C 0.39722 0.82224 0.05301 0.0
H370 H 0.61036 0.56509 0.94669 0.0
H371 H 0.78592 0.51479 0.22442 0.0
H372 H 0.55318 0.58167 0.09781 0.0
H373 H 0.52054 0.59768 0.06019 0.0
H374 H 0.62758 0.71555 0.05595 0.0
H375 H 0.6605 0.69883 0.09367 0.0
H376 H 0.60122 0.54428 0.06901 0.0
H377 H 0.59649 0.54118 0.01759 0.0
H378 H 0.69358 0.66371 0.01246 0.0
H379 H 0.69823 0.66621 0.0639 0.0
H380 H 0.63926 0.5116 0.11454 0.0
H381 H 0.67556 0.48014 0.09628 0.0
H382 H 0.7758 0.59302 0.0672 0.0
H383 H 0.74027 0.62455 0.08701 0.0
H384 H 0.6232 0.51822 0.1731 0.0
H385 H 0.65102 0.48484 0.20032 0.0
H386 H 0.77567 0.58161 0.18382 0.0
H387 H 0.74737 0.61471 0.15663 0.0
H388 H 0.57737 0.55719 0.18949 0.0
H389 H 0.57437 0.53441 0.23797 0.0
H390 H 0.70375 0.62306 0.24861 0.0
H391 H 0.70643 0.64585 0.20029 0.0
H392 H 0.54913 0.59752 0.15554 0.0
H393 H 0.51794 0.63424 0.17318 0.0
H394 H 0.64012 0.73711 0.1831 0.0
H395 H 0.67116 0.69998 0.16571 0.0
O396 O 0.61323 0.56679 0.96696 0.0
O397 O 0.66313 0.62987 0.96547 0.0
O398 O 0.70933 0.47908 0.22247 0.0
O399 O 0.77413 0.52731 0.21369 0.0
C400 C 0.63195 0.62552 0.11529 0.0
C401 C 0.65097 0.60767 0.10129 0.0
C402 C 0.66831 0.58974 0.11701 0.0
C403 C 0.66623 0.58922 0.14667 0.0
C404 C 0.64728 0.60725 0.16062 0.0
C405 C 0.63076 0.62598 0.14495 0.0
C406 C 0.60898 0.63917 0.09841 0.0
C407 C 0.56887 0.61138 0.08951 0.0
C408 C 0.55029 0.62064 0.06806 0.0
C409 C 0.57148 0.65796 0.05528 0.0
C410 C 0.61066 0.68661 0.06552 0.0
C411 C 0.62928 0.67727 0.08711 0.0
C412 C 0.65006 0.60544 0.07008 0.0
C413 C 0.62168 0.57028 0.0567 0.0
C414 C 0.61895 0.56866 0.02735 0.0
C415 C 0.64457 0.60224 0.01091 0.0
C416 C 0.67335 0.63733 0.02448 0.0
C417 C 0.67611 0.63886 0.05383 0.0
C418 C 0.6876 0.57034 0.10252 0.0
C419 C 0.66903 0.52945 0.10417 0.0
C420 C 0.68962 0.51156 0.09357 0.0
C421 C 0.72885 0.53429 0.08083 0.0
C422 C 0.74613 0.57499 0.07764 0.0
C423 C 0.72575 0.59294 0.08861 0.0
C424 C 0.68329 0.56902 0.16316 0.0
C425 C 0.65648 0.53226 0.17556 0.0
C426 C 0.67246 0.51325 0.19106 0.0
C427 C 0.71557 0.53069 0.19442 0.0
C428 C 0.74232 0.56743 0.18173 0.0
C429 C 0.72628 0.5864 0.1662 0.0
C430 C 0.64213 0.60311 0.1915 0.0
C431 C 0.60451 0.57278 0.20273 0.0
C432 C 0.60301 0.55944 0.23018 0.0
C433 C 0.63907 0.5765 0.24663 0.0
C434 C 0.67557 0.60943 0.23626 0.0
C435 C 0.6771 0.62265 0.2088 0.0
C436 C 0.61228 0.64624 0.15926 0.0
C437 C 0.56912 0.62776 0.162 0.0
C438 C 0.55144 0.64877 0.17191 0.0
C439 C 0.57671 0.68863 0.17906 0.0
C440 C 0.62005 0.70644 0.17774 0.0
C441 C 0.63773 0.68536 0.1678 0.0
C442 C 0.64103 0.60062 0.97976 0.0
C443 C 0.73265 0.51069 0.21105 0.0
C444 C 0.76697 0.49097 0.38668 0.0
O445 O 0.77271 0.52358 0.39521 0.0
Cd446 Cd 0.71806 0.53404 0.41063 0.0
O447 O 0.73063 0.46078 0.38536 0.0
Cd448 Cd 0.65843 0.44313 0.39465 0.0
C449 C 0.66393 0.51149 0.34891 0.0
O450 O 0.66656 0.47991 0.43773 0.0
O451 O 0.60668 0.45242 0.41689 0.0
O452 O 0.64639 0.3842 0.41783 0.0
C453 C 0.62934 0.47219 0.43733 0.0
O454 O 0.68545 0.5365 0.36773 0.0
C455 C 0.61806 0.35998 0.40157 0.0
O456 O 0.65228 0.47531 0.35199 0.0
O457 O 0.60866 0.37441 0.38099 0.0
C458 C 0.30142 0.58845 0.56275 0.0
O459 O 0.27333 0.55717 0.55126 0.0
Cd460 Cd 0.21083 0.54887 0.53153 0.0
O461 O 0.29774 0.61837 0.56476 0.0
Cd462 Cd 0.2452 0.63585 0.55166 0.0
C463 C 0.17083 0.56356 0.59214 0.0
O464 O 0.22555 0.60563 0.50497 0.0
O465 O 0.18452 0.62173 0.52403 0.0
O466 O 0.30755 0.69841 0.5403 0.0
C467 C 0.19391 0.60886 0.50273 0.0
O468 O 0.16785 0.5413 0.57197 0.0
C469 C 0.29435 0.71991 0.54921 0.0
O470 O 0.19952 0.59981 0.59222 0.0
O471 O 0.2583 0.70256 0.56021 0.0
C472 C 0.71026 0.23166 0.72358 0.0
O473 O 0.69613 0.19514 0.72085 0.0
Cd474 Cd 0.62437 0.14658 0.71281 0.0
O475 O 0.68616 0.2451 0.72198 0.0
Cd476 Cd 0.61158 0.22024 0.71522 0.0
C477 C 0.58321 0.1604 0.77273 0.0
O478 O 0.60132 0.17432 0.67783 0.0
O479 O 0.5468 0.17523 0.69073 0.0
O480 O 0.63171 0.28222 0.69154 0.0
C481 C 0.56305 0.16163 0.67457 0.0
O482 O 0.59117 0.13809 0.75845 0.0
C483 C 0.61038 0.29053 0.70761 0.0
O484 O 0.58966 0.19256 0.76235 0.0
O485 O 0.58959 0.26591 0.72694 0.0
C486 C 0.37042 0.56518 0.88997 0.0
O487 O 0.3879 0.54692 0.89809 0.0
Cd488 Cd 0.46023 0.58494 0.90891 0.0
O489 O 0.39065 0.60254 0.88907 0.0
Cd490 Cd 0.45874 0.66016 0.89917 0.0
C491 C 0.49501 0.63254 0.84539 0.0
O492 O 0.46538 0.63277 0.94263 0.0
O493 O 0.52171 0.68433 0.92794 0.0
O494 O 0.41567 0.68721 0.91175 0.0
C495 C 0.50184 0.66058 0.94789 0.0
O496 O 0.49292 0.60651 0.86212 0.0
C497 C 0.44292 0.72203 0.90466 0.0
O498 O 0.48351 0.65578 0.85338 0.0
O499 O 0.47671 0.72766 0.89441 0.0
C500 C 0.81535 0.4538 0.05249 0.0
O501 O 0.85446 0.47204 0.0493 0.0
Cd502 Cd 0.88924 0.43819 0.03791 0.0
O503 O 0.79369 0.41648 0.05077 0.0
Cd504 Cd 0.80809 0.36316 0.04412 0.0
C505 C 0.87187 0.39175 0.10026 0.0
O506 O 0.8459 0.39368 0.00133 0.0
O507 O 0.84988 0.34408 0.0149 0.0
O508 O 0.73486 0.32655 0.03025 0.0
C509 C 0.85395 0.36749 -0.00474 0.0
O510 O 0.90007 0.41611 0.08361 0.0
C511 C 0.72947 0.2935 0.03739 0.0
O512 O 0.83483 0.37032 0.09173 0.0
O513 O 0.75987 0.29314 0.04838 0.0
C514 C 0.34748 0.74545 0.2166 0.0
O515 O 0.33643 0.76848 0.20714 0.0
Cd516 Cd 0.38129 0.83774 0.20379 0.0
O517 O 0.38521 0.75774 0.22262 0.0
Cd518 Cd 0.45544 0.81757 0.21821 0.0
C519 C 0.42725 0.85689 0.27048 0.0
O520 O 0.43724 0.84202 0.17879 0.0
O521 O 0.4983 0.88296 0.19422 0.0
O522 O 0.46741 0.77246 0.19302 0.0
C523 C 0.4699 0.87536 0.17653 0.0
O524 O 0.40346 0.85837 0.25213 0.0
C525 C 0.49962 0.77889 0.20605 0.0
O526 O 0.44931 0.84207 0.2645 0.0
O527 O 0.51223 0.80409 0.22577 0.0
C528 C 0.25186 0.64639 0.20415 0.0
C529 C 0.24618 0.62712 0.23014 0.0
C530 C 0.28581 0.68427 0.19955 0.0
C531 C 0.31576 0.70378 0.22051 0.0
H532 H 0.22865 0.63294 0.18781 0.0
H533 H 0.28798 0.69887 0.17976 0.0
S534 S 0.31726 0.66544 0.29136 0.0
N535 N 0.27452 0.62992 0.2767 0.0
N536 N 0.33953 0.70059 0.26735 0.0
C537 C 0.31226 0.68394 0.24579 0.0
C538 C 0.27717 0.64562 0.25076 0.0
C539 C 0.55448 0.24948 0.3897 0.0
C540 C 0.55888 0.2344 0.41538 0.0
C541 C 0.57339 0.29018 0.38538 0.0
C542 C 0.59718 0.31705 0.40665 0.0
H543 H 0.53695 0.22973 0.37272 0.0
H544 H 0.56981 0.30064 0.36513 0.0
S545 S 0.61353 0.29155 0.47891 0.0
N546 N 0.58554 0.24883 0.46308 0.0
N547 N 0.62115 0.32506 0.45516 0.0
C548 C 0.60058 0.30201 0.43275 0.0
C549 C 0.58139 0.26075 0.43707 0.0
C550 C 0.36562 0.55613 0.60206 0.0
C551 C 0.4068 0.58461 0.59451 0.0
C552 C 0.3319 0.55807 0.59199 0.0
C553 C 0.33789 0.58921 0.57469 0.0
H554 H 0.35919 0.53158 0.61554 0.0
H555 H 0.30078 0.53485 0.59771 0.0
S556 S 0.43868 0.67243 0.54957 0.0
N557 N 0.45127 0.64544 0.56867 0.0
N558 N 0.38756 0.65007 0.55118 0.0
C559 C 0.37866 0.61897 0.56801 0.0
C560 C 0.41319 0.61651 0.57764 0.0
C561 C 0.81491 0.32601 0.73082 0.0
C562 C 0.83949 0.31328 0.74367 0.0
C563 C 0.77333 0.29934 0.72403 0.0
C564 C 0.75481 0.25889 0.7297 0.0
H565 H 0.82791 0.35684 0.72597 0.0
H566 H 0.75556 0.31055 0.71428 0.0
S567 S 0.8052 0.21089 0.76464 0.0
N568 N 0.84179 0.25782 0.76303 0.0
N569 N 0.76406 0.2076 0.74965 0.0
C570 C 0.77913 0.24576 0.74244 0.0
C571 C 0.82133 0.27296 0.74959 0.0
C572 C 0.39355 0.78399 0.90861 0.0
C573 C 0.42612 0.81956 0.91938 0.0
C574 C 0.39883 0.75201 0.90413 0.0
C575 C 0.43697 0.75505 0.90991 0.0
H576 H 0.36423 0.78113 0.90318 0.0
H577 H 0.37334 0.72512 0.89551 0.0
S578 S 0.52933 0.83942 0.94246 0.0
N579 N 0.49578 0.85396 0.93909 0.0
N580 N 0.50613 0.79463 0.92938 0.0
C581 C 0.46912 0.78989 0.92154 0.0
C582 C 0.46355 0.82196 0.92664 0.0
C583 C 0.7324 0.48003 0.05739 0.0
C584 C 0.75234 0.51559 0.07231 0.0
C585 C 0.75316 0.46039 0.05085 0.0
C586 C 0.79471 0.47582 0.05876 0.0
H587 H 0.70041 0.46716 0.05086 0.0
H588 H 0.73652 0.43295 0.03949 0.0
S589 S 0.86018 0.56697 0.09938 0.0
N590 N 0.81538 0.56457 0.09586 0.0
N591 N 0.85481 0.52824 0.08284 0.0
C592 C 0.81515 0.51153 0.07345 0.0
C593 C 0.79387 0.53129 0.0804 0.0
C594 C 0.32173 0.82124 0.5251 0.0
C595 C 0.36544 0.84333 0.52692 0.0
C596 C 0.29871 0.78187 0.53393 0.0
C597 C 0.31852 0.76278 0.54435 0.0
H598 H 0.30509 0.83392 0.51581 0.0
H599 H 0.26533 0.76572 0.53123 0.0
S600 S 0.43119 0.80795 0.55707 0.0
N601 N 0.42689 0.84384 0.5434 0.0
N602 N 0.38362 0.76916 0.55824 0.0
C603 C 0.36185 0.78458 0.54726 0.0
C604 C 0.38529 0.82497 0.53896 0.0
C605 C 0.62131 0.38148 0.67312 0.0
C606 C 0.60178 0.39331 0.69253 0.0
C607 C 0.62481 0.34872 0.67848 0.0
C608 C 0.6088 0.32656 0.70341 0.0
H609 H 0.63272 0.39684 0.65321 0.0
H610 H 0.63918 0.34014 0.66259 0.0
S611 S 0.55897 0.34827 0.76234 0.0
N612 N 0.56938 0.38259 0.73859 0.0
N613 N 0.57547 0.32073 0.74866 0.0
C614 C 0.59057 0.33904 0.72346 0.0
C615 C 0.58716 0.37247 0.71801 0.0
C616 C 0.27069 0.54542 0.85641 0.0
C617 C 0.24304 0.50538 0.86195 0.0
C618 C 0.31167 0.56423 0.86562 0.0
C619 C 0.32672 0.54371 0.88069 0.0
H620 H 0.26069 0.56233 0.84456 0.0
H621 H 0.33173 0.59511 0.86062 0.0
S622 S 0.266 0.4384 0.90132 0.0
N623 N 0.23273 0.44573 0.88389 0.0
N624 N 0.31033 0.48104 0.90114 0.0
C625 C 0.29934 0.5035 0.88637 0.0
C626 C 0.25737 0.48434 0.87699 0.0
C627 C 0.61751 0.20982 0.03481 0.0
C628 C 0.61974 0.18364 0.01606 0.0
C629 C 0.65307 0.24606 0.04139 0.0
C630 C 0.69179 0.2567 0.02972 0.0
H631 H 0.58837 0.20186 0.04493 0.0
H632 H 0.65052 0.26532 0.0562 0.0
S633 S 0.71341 0.20159 0.97681 0.0
N634 N 0.66325 0.17344 0.9835 0.0
N635 N 0.7301 0.24049 -0.00293 0.0
C636 C 0.69424 0.23157 0.01037 0.0
C637 C 0.65816 0.19527 0.00322 0.0
C638 C 0.56849 0.73512 0.21016 0.0
C639 C 0.55775 0.71228 0.18561 0.0
C640 C 0.55011 0.75716 0.21655 0.0
C641 C 0.52051 0.75719 0.19852 0.0
H642 H 0.59073 0.73543 0.22473 0.0
H643 H 0.55866 0.77376 0.23593 0.0
S644 S 0.48561 0.70555 0.12992 0.0
N645 N 0.51844 0.69346 0.14214 0.0
N646 N 0.48375 0.73441 0.15395 0.0
C647 C 0.51059 0.7353 0.17345 0.0
C648 C 0.52923 0.71297 0.16705 0.0
C649 C 0.86355 0.51465 0.34594 0.0
C650 C 0.87088 0.48471 0.35423 0.0
C651 C 0.83042 0.51687 0.35706 0.0
C652 C 0.8025 0.48863 0.37629 0.0
H653 H 0.88341 0.53655 0.33052 0.0
H654 H 0.82607 0.5404 0.35004 0.0
S655 S 0.80757 0.40504 0.40579 0.0
N656 N 0.84785 0.42717 0.38422 0.0
N657 N 0.78394 0.43012 0.40359 0.0
C658 C 0.80876 0.45825 0.38458 0.0
C659 C 0.84326 0.45653 0.37388 0.0
C660 C 0.15795 0.57954 0.42761 0.0
C661 C 0.115 0.56411 0.42957 0.0
C662 C 0.18325 0.59378 0.45146 0.0
C663 C 0.16649 0.59374 0.47793 0.0
H664 H 0.17198 0.58032 0.40752 0.0
H665 H 0.2162 0.60527 0.44908 0.0
S666 S 0.05541 0.55574 0.49388 0.0
N667 N 0.05645 0.54874 0.4597 0.0
N668 N 0.10394 0.57635 0.50467 0.0
C669 C 0.12345 0.57848 0.48005 0.0
C670 C 0.09767 0.56338 0.4558 0.0
C671 C 0.52419 0.07637 0.62433 0.0
C672 C 0.50015 0.08325 0.60515 0.0
C673 C 0.54388 0.10152 0.6471 0.0
C674 C 0.53932 0.1338 0.65198 0.0
H675 H 0.52871 0.0519 0.62134 0.0
H676 H 0.56309 0.09585 0.66087 0.0
S677 S 0.48045 0.16546 0.60843 0.0
N678 N 0.47408 0.12595 0.59252 0.0
N679 N 0.50902 0.17147 0.63641 0.0
C680 C 0.51429 0.14036 0.63378 0.0
C681 C 0.49514 0.11547 0.61012 0.0
C682 C 0.53893 0.61332 0.77981 0.0
C683 C 0.52031 0.62275 0.75804 0.0
C684 C 0.53174 0.61782 0.80809 0.0
C685 C 0.50634 0.63263 0.81554 0.0
H686 H 0.55787 0.60093 0.77494 0.0
H687 H 0.54551 0.6089 0.82422 0.0
S688 S 0.45228 0.66349 0.76596 0.0
N689 N 0.47669 0.64851 0.74541 0.0
N690 N 0.46375 0.65806 0.79856 0.0
C691 C 0.48892 0.64365 0.7938 0.0
C692 C 0.49568 0.63834 0.76502 0.0
C693 C 0.91089 0.35446 0.93433 0.0
C694 C 0.89574 0.36502 0.91092 0.0
C695 C 0.8962 0.35381 0.96165 0.0
C696 C 0.86647 0.36437 0.96641 0.0
H697 H 0.93558 0.3484 0.93169 0.0
H698 H 0.90951 0.34675 0.97921 0.0
S699 S 0.81262 0.38851 0.91197 0.0
N700 N 0.84582 0.38153 0.89407 0.0
N701 N 0.81925 0.3816 0.94538 0.0
C702 C 0.84969 0.37307 0.94309 0.0
C703 C 0.86407 0.37309 0.91535 0.0
C704 C 0.51632 0.96202 0.12575 0.0
C705 C 0.4815 0.95553 0.11033 0.0
C706 C 0.51226 0.93689 0.14799 0.0
C707 C 0.47333 0.90405 0.15514 0.0
H708 H 0.54701 0.986 0.12004 0.0
H709 H 0.53997 0.94237 0.15887 0.0
S710 S 0.37241 0.87511 0.12164 0.0
N711 N 0.40684 0.91475 0.10422 0.0
N712 N 0.39902 0.86761 0.14574 0.0
C713 C 0.43814 0.89808 0.14038 0.0
C714 C 0.44226 0.92382 0.11805 0.0
C715 C 0.65653 0.58066 0.29753 0.0
C716 C 0.64037 0.55786 0.27325 0.0
C717 C 0.66282 0.56491 0.32202 0.0
C718 C 0.65357 0.52574 0.32313 0.0
H719 H 0.66509 0.6112 0.29744 0.0
H720 H 0.67582 0.58399 0.34005 0.0
S721 S 0.61024 0.4538 0.26477 0.0
N722 N 0.61468 0.49419 0.25153 0.0
N723 N 0.62655 0.46435 0.2976 0.0
C724 C 0.63638 0.5023 0.29907 0.0
C725 C 0.62979 0.51841 0.27413 0.0
C726 C 0.44838 0.87845 0.34883 0.0
C727 C 0.43134 0.90188 0.35445 0.0
C728 C 0.44694 0.86393 0.32168 0.0
C729 C 0.42866 0.87254 0.29912 0.0
H730 H 0.46302 0.87143 0.36554 0.0
H731 H 0.46025 0.84583 0.31839 0.0
S732 S 0.38274 0.93555 0.30268 0.0
N733 N 0.39775 0.93484 0.33515 0.0
N734 N 0.39478 0.90774 0.28432 0.0
C735 C 0.4119 0.89637 0.30457 0.0
C736 C 0.41331 0.91097 0.33215 0.0
C737 C 0.61022 0.5375 0.48431 0.0
C738 C 0.57925 0.51045 0.50299 0.0
C739 C 0.62693 0.52503 0.4633 0.0
C740 C 0.61251 0.48505 0.4598 0.0
H741 H 0.62202 0.56865 0.48605 0.0
H742 H 0.65094 0.54671 0.44953 0.0
S743 S 0.53217 0.4019 0.502 0.0
N744 N 0.53585 0.44123 0.51636 0.0
N745 N 0.56549 0.41828 0.47551 0.0
C746 C 0.58102 0.45755 0.47748 0.0
C747 C 0.56473 0.47011 0.49938 0.0
C748 C 0.12873 0.54311 0.667 0.0
C749 C 0.09136 0.50667 0.6645 0.0
C750 C 0.15349 0.5624 0.64332 0.0
C751 C 0.14183 0.54579 0.61634 0.0
H752 H 0.13983 0.55596 0.68756 0.0
H753 H 0.1828 0.58958 0.64638 0.0
S754 S 0.04392 0.45347 0.59829 0.0
N755 N 0.04188 0.45667 0.63283 0.0
N756 N 0.08813 0.4926 0.58828 0.0
C757 C 0.10339 0.51032 0.61347 0.0
C758 C 0.07827 0.49082 0.63756 0.0
C759 C 0.55454 0.10594 0.84245 0.0
C760 C 0.54186 0.12696 0.85909 0.0
C761 C 0.56726 0.11677 0.81458 0.0
C762 C 0.56799 0.14924 0.80212 0.0
H763 H 0.55419 0.08049 0.85099 0.0
H764 H 0.57687 0.09958 0.80284 0.0
S765 S 0.53683 0.21356 0.83687 0.0
N766 N 0.52997 0.18117 0.86138 0.0
N767 N 0.55408 0.20205 0.80874 0.0
C768 C 0.55497 0.1704 0.81853 0.0
C769 C 0.54175 0.15908 0.84703 0.0
C770 C 0.5798 0.67847 0.00478 0.0
C771 C 0.55476 0.66469 0.02914 0.0
C772 C 0.56283 0.67853 0.97856 0.0
C773 C 0.52022 0.66423 0.97586 0.0
H774 H 0.61227 0.68742 0.00571 0.0
H775 H 0.58279 0.68809 0.96013 0.0
S776 S 0.4429 0.63081 0.03384 0.0
N777 N 0.48652 0.64115 0.04943 0.0
N778 N 0.45432 0.6401 3e-05 0.0
C779 C 0.49537 0.65238 0.00025 0.0
C780 C 0.51273 0.65291 0.02694 0.0
C781 C 0.93168 0.40302 0.16702 0.0
C782 C 0.90558 0.40335 0.1881 0.0
C783 C 0.92009 0.39802 0.13863 0.0
C784 C 0.8814 0.39193 0.13044 0.0
H785 H 0.96208 0.40841 0.17239 0.0
H786 H 0.94185 0.39968 0.12294 0.0
S787 S 0.80064 0.38748 0.17786 0.0
N788 N 0.83891 0.39569 0.19914 0.0
N789 N 0.81614 0.38468 0.14586 0.0
C790 C 0.85412 0.39018 0.15151 0.0
C791 C 0.86646 0.39633 0.18034 0.0
loop_
_geom_bond_atom_site_label_1
_geom_bond_atom_site_label_2
_geom_bond_distance
_geom_bond_site_symmetry_2
_ccdc_geom_bond_type
H0 O26 0.856 . S
H1 O29 0.854 . S
H2 C37 0.930 1_455 S
H3 C38 0.930 . S
H4 C40 0.930 . S
H5 C41 0.930 . S
H6 C43 0.931 . S
H7 C44 0.930 . S
H8 C46 0.930 . S
H9 C47 0.929 . S
H10 C49 0.930 . S
H11 C50 0.931 . S
H12 C52 0.930 . S
H13 C53 0.929 . S
H14 C55 0.931 . S
H15 C56 0.930 . S
H16 C58 0.930 . S
H17 C59 0.932 . S
H18 C61 0.930 . S
H19 C62 0.929 . S
H20 C64 0.931 . S
H21 C65 0.930 . S
H22 C67 0.929 . S
H23 C68 0.931 . S
H24 C70 0.930 . S
H25 C71 0.929 . S
O26 H0 0.856 . S
O26 C72 1.300 . S
O27 C72 1.209 . S
O28 C73 1.199 . S
O29 H1 0.854 . S
O29 C73 1.297 . S
C30 C31 1.404 . S
C30 C35 1.397 . S
C30 C36 1.492 . S
C31 C30 1.404 . S
C31 C32 1.396 . S
C31 C42 1.492 . S
C32 C31 1.396 . S
C32 C33 1.397 . S
C32 C48 1.509 . S
C33 C32 1.397 . S
C33 C34 1.412 . S
C33 C54 1.485 . S
C34 C33 1.412 . S
C34 C35 1.388 . S
C34 C60 1.490 . S
C35 C30 1.397 . S
C35 C34 1.388 . S
C35 C66 1.519 1_455 S
C36 C30 1.492 . S
C36 C37 1.363 1_455 S
C36 C41 1.390 1_455 S
C37 H2 0.930 1_655 S
C37 C36 1.363 1_655 S
C37 C38 1.372 . S
C38 H3 0.930 . S
C38 C37 1.372 . S
C38 C39 1.383 . S
C39 C38 1.383 . S
C39 C40 1.395 . S
C40 H4 0.930 . S
C40 C39 1.395 . S
C40 C41 1.362 . S
C41 H5 0.930 . S
C41 C36 1.390 1_655 S
C41 C40 1.362 . S
C42 C31 1.492 . S
C42 C43 1.377 . S
C42 C47 1.397 . S
C43 H6 0.931 . S
C43 C42 1.377 . S
C43 C44 1.376 . S
C44 H7 0.930 . S
C44 C43 1.376 . S
C44 C45 1.376 . S
C45 C44 1.376 . S
C45 C46 1.378 . S
C45 C72 1.486 . S
C46 H8 0.930 . S
C46 C45 1.378 . S
C46 C47 1.376 . S
C47 H9 0.929 . S
C47 C42 1.397 . S
C47 C46 1.376 . S
C48 C32 1.509 . S
C48 C49 1.391 . S
C48 C53 1.386 . S
C49 H10 0.930 . S
C49 C48 1.391 . S
C49 C50 1.375 . S
C50 H11 0.931 . S
C50 C49 1.375 . S
C50 C51 1.375 . S
C51 C50 1.375 . S
C51 C52 1.361 . S
C52 H12 0.930 . S
C52 C51 1.361 . S
C52 C53 1.399 . S
C53 H13 0.929 . S
C53 C48 1.386 . S
C53 C52 1.399 . S
C54 C33 1.485 . S
C54 C55 1.394 . S
C54 C59 1.360 . S
C55 H14 0.931 . S
C55 C54 1.394 . S
C55 C56 1.372 . S
C56 H15 0.930 . S
C56 C55 1.372 . S
C56 C57 1.397 . S
C57 C56 1.397 . S
C57 C58 1.390 . S
C57 C73 1.476 . S
C58 H16 0.930 . S
C58 C57 1.390 . S
C58 C59 1.366 . S
C59 H17 0.932 . S
C59 C54 1.360 . S
C59 C58 1.366 . S
C60 C34 1.490 . S
C60 C61 1.380 . S
C60 C65 1.386 . S
C61 H18 0.930 . S
C61 C60 1.380 . S
C61 C62 1.381 . S
C62 H19 0.929 . S
C62 C61 1.381 . S
C62 C63 1.371 . S
C63 C62 1.371 . S
C63 C64 1.380 . S
C64 H20 0.931 . S
C64 C63 1.380 . S
C64 C65 1.387 . S
C65 H21 0.930 . S
C65 C60 1.386 . S
C65 C64 1.387 . S
C66 C35 1.519 1_655 S
C66 C67 1.377 . S
C66 C71 1.361 . S
C67 H22 0.929 . S
C67 C66 1.377 . S
C67 C68 1.386 . S
C68 H23 0.931 . S
C68 C67 1.386 . S
C68 C69 1.363 . S
C69 C68 1.363 . S
C69 C70 1.385 . S
C70 H24 0.930 . S
C70 C69 1.385 . S
C70 C71 1.396 . S
C71 H25 0.929 . S
C71 C66 1.361 . S
C71 C70 1.396 . S
C72 O26 1.300 . S
C72 O27 1.209 . S
C72 C45 1.486 . S
C73 O28 1.199 . S
C73 O29 1.297 . S
C73 C57 1.476 . S
H74 O100 0.856 . S
H75 O103 0.854 . S
H76 C111 0.922 1_545 S
H77 C112 0.930 . S
H78 C114 0.930 . S
H79 C115 0.930 . S
H80 C117 0.931 . S
H81 C118 0.930 . S
H82 C120 0.930 . S
H83 C121 0.929 . S
H84 C123 0.930 . S
H85 C124 0.931 . S
H86 C126 0.930 . S
H87 C127 0.929 . S
H88 C129 0.931 . S
H89 C130 0.930 . S
H90 C132 0.930 . S
H91 C133 0.932 . S
H92 C135 0.930 . S
H93 C136 0.929 . S
H94 C138 0.931 . S
H95 C139 0.930 . S
H96 C141 0.929 . S
H97 C142 0.931 . S
H98 C144 0.930 . S
H99 C145 0.929 . S
O100 H74 0.856 . S
O100 C146 1.300 . S
O101 C146 1.209 . S
O102 C147 1.199 . S
O103 H75 0.854 . S
O103 C147 1.297 . S
C104 C105 1.404 . S
C104 C109 1.397 . S
C104 C110 1.492 . S
C105 C104 1.404 . S
C105 C106 1.396 . S
C105 C116 1.492 . S
C106 C105 1.396 . S
C106 C107 1.397 . S
C106 C122 1.509 . S
C107 C106 1.397 . S
C107 C108 1.412 . S
C107 C128 1.485 . S
C108 C107 1.412 . S
C108 C109 1.388 . S
C108 C134 1.490 . S
C109 C104 1.397 . S
C109 C108 1.388 . S
C109 C140 1.519 1_545 S
C110 C104 1.492 . S
C110 C111 1.347 1_545 S
C110 C115 1.390 1_545 S
C111 H76 0.922 1_565 S
C111 C110 1.347 1_565 S
C111 C112 1.397 . S
C112 H77 0.930 . S
C112 C111 1.397 . S
C112 C113 1.383 . S
C113 C112 1.383 . S
C113 C114 1.395 . S
C114 H78 0.930 . S
C114 C113 1.395 . S
C114 C115 1.362 . S
C115 H79 0.930 . S
C115 C110 1.390 1_565 S
C115 C114 1.362 . S
C116 C105 1.492 . S
C116 C117 1.377 . S
C116 C121 1.397 . S
C117 H80 0.931 . S
C117 C116 1.377 . S
C117 C118 1.376 . S
C118 H81 0.930 . S
C118 C117 1.376 . S
C118 C119 1.376 . S
C119 C118 1.376 . S
C119 C120 1.378 . S
C119 C146 1.486 . S
C120 H82 0.930 . S
C120 C119 1.378 . S
C120 C121 1.376 . S
C121 H83 0.929 . S
C121 C116 1.397 . S
C121 C120 1.376 . S
C122 C106 1.509 . S
C122 C123 1.391 . S
C122 C127 1.386 . S
C123 H84 0.930 . S
C123 C122 1.391 . S
C123 C124 1.375 . S
C124 H85 0.931 . S
C124 C123 1.375 . S
C124 C125 1.375 . S
C125 C124 1.375 . S
C125 C126 1.361 . S
C126 H86 0.930 . S
C126 C125 1.361 . S
C126 C127 1.399 . S
C127 H87 0.929 . S
C127 C122 1.386 . S
C127 C126 1.399 . S
C128 C107 1.485 . S
C128 C129 1.394 . S
C128 C133 1.360 . S
C129 H88 0.931 . S
C129 C128 1.394 . S
C129 C130 1.372 . S
C130 H89 0.930 . S
C130 C129 1.372 . S
C130 C131 1.397 . S
C131 C130 1.397 . S
C131 C132 1.390 . S
C131 C147 1.476 . S
C132 H90 0.930 . S
C132 C131 1.390 . S
C132 C133 1.366 . S
C133 H91 0.932 . S
C133 C128 1.360 . S
C133 C132 1.366 . S
C134 C108 1.490 . S
C134 C135 1.380 . S
C134 C139 1.386 . S
C135 H92 0.930 . S
C135 C134 1.380 . S
C135 C136 1.381 . S
C136 H93 0.929 . S
C136 C135 1.381 . S
C136 C137 1.371 . S
C137 C136 1.371 . S
C137 C138 1.380 . S
C138 H94 0.931 . S
C138 C137 1.380 . S
C138 C139 1.387 . S
C139 H95 0.930 . S
C139 C134 1.386 . S
C139 C138 1.387 . S
C140 C109 1.519 1_565 S
C140 C141 1.377 . S
C140 C145 1.361 . S
C141 H96 0.929 . S
C141 C140 1.377 . S
C141 C142 1.386 . S
C142 H97 0.931 . S
C142 C141 1.386 . S
C142 C143 1.363 . S
C143 C142 1.363 . S
C143 C144 1.385 . S
C144 H98 0.930 . S
C144 C143 1.385 . S
C144 C145 1.396 . S
C145 H99 0.929 . S
C145 C140 1.361 . S
C145 C144 1.396 . S
C146 O100 1.300 . S
C146 O101 1.209 . S
C146 C119 1.486 . S
C147 O102 1.199 . S
C147 O103 1.297 . S
C147 C131 1.476 . S
H148 O174 0.856 . S
H149 O177 0.854 . S
H150 C185 0.930 . S
H151 C186 0.930 . S
H152 C188 0.930 . S
H153 C189 0.930 . S
H154 C191 0.931 . S
H155 C192 0.930 . S
H156 C194 0.930 . S
H157 C195 0.929 . S
H158 C197 0.930 . S
H159 C198 0.931 . S
H160 C200 0.930 . S
H161 C201 0.929 . S
H162 C203 0.931 . S
H163 C204 0.930 . S
H164 C206 0.930 . S
H165 C207 0.932 . S
H166 C209 0.930 . S
H167 C210 0.929 . S
H168 C212 0.931 . S
H169 C213 0.930 . S
H170 C215 0.929 . S
H171 C216 0.931 . S
H172 C218 0.930 . S
H173 C219 0.929 . S
O174 H148 0.856 . S
O174 C220 1.300 . S
O175 C220 1.209 . S
O176 C221 1.199 . S
O177 H149 0.854 . S
O177 C221 1.297 . S
C178 C179 1.404 . S
C178 C183 1.397 . S
C178 C184 1.492 . S
C179 C178 1.404 . S
C179 C180 1.396 . S
C179 C190 1.492 . S
C180 C179 1.396 . S
C180 C181 1.397 . S
C180 C196 1.509 . S
C181 C180 1.397 . S
C181 C182 1.412 . S
C181 C202 1.485 . S
C182 C181 1.412 . S
C182 C183 1.388 . S
C182 C208 1.490 . S
C183 C178 1.397 . S
C183 C182 1.388 . S
C183 C214 1.519 . S
C184 C178 1.492 . S
C184 C185 1.363 . S
C184 C189 1.390 . S
C185 H150 0.930 . S
C185 C184 1.363 . S
C185 C186 1.372 . S
C186 H151 0.930 . S
C186 C185 1.372 . S
C186 C187 1.383 . S
C187 C186 1.383 . S
C187 C188 1.395 . S
C188 H152 0.930 . S
C188 C187 1.395 . S
C188 C189 1.362 . S
C189 H153 0.930 . S
C189 C184 1.390 . S
C189 C188 1.362 . S
C190 C179 1.492 . S
C190 C191 1.377 . S
C190 C195 1.397 . S
C191 H154 0.931 . S
C191 C190 1.377 . S
C191 C192 1.376 . S
C192 H155 0.930 . S
C192 C191 1.376 . S
C192 C193 1.376 . S
C193 C192 1.376 . S
C193 C194 1.378 . S
C193 C220 1.486 . S
C194 H156 0.930 . S
C194 C193 1.378 . S
C194 C195 1.376 . S
C195 H157 0.929 . S
C195 C190 1.397 . S
C195 C194 1.376 . S
C196 C180 1.509 . S
C196 C197 1.391 . S
C196 C201 1.386 . S
C197 H158 0.930 . S
C197 C196 1.391 . S
C197 C198 1.375 . S
C198 H159 0.931 . S
C198 C197 1.375 . S
C198 C199 1.375 . S
C199 C198 1.375 . S
C199 C200 1.361 . S
C200 H160 0.930 . S
C200 C199 1.361 . S
C200 C201 1.399 . S
C201 H161 0.929 . S
C201 C196 1.386 . S
C201 C200 1.399 . S
C202 C181 1.485 . S
C202 C203 1.394 . S
C202 C207 1.360 . S
C203 H162 0.931 . S
C203 C202 1.394 . S
C203 C204 1.372 . S
C204 H163 0.930 . S
C204 C203 1.372 . S
C204 C205 1.397 . S
C205 C204 1.397 . S
C205 C206 1.390 . S
C205 C221 1.476 . S
C206 H164 0.930 . S
C206 C205 1.390 . S
C206 C207 1.366 . S
C207 H165 0.932 . S
C207 C202 1.360 . S
C207 C206 1.366 . S
C208 C182 1.490 . S
C208 C209 1.380 . S
C208 C213 1.386 . S
C209 H166 0.930 . S
C209 C208 1.380 . S
C209 C210 1.381 . S
C210 H167 0.929 . S
C210 C209 1.381 . S
C210 C211 1.371 . S
C211 C210 1.371 . S
C211 C212 1.380 . S
C212 H168 0.931 . S
C212 C211 1.380 . S
C212 C213 1.387 . S
C213 H169 0.930 . S
C213 C208 1.386 . S
C213 C212 1.387 . S
C214 C183 1.519 . S
C214 C215 1.377 . S
C214 C219 1.361 . S
C215 H170 0.929 . S
C215 C214 1.377 . S
C215 C216 1.386 . S
C216 H171 0.931 . S
C216 C215 1.386 . S
C216 C217 1.363 . S
C217 C216 1.363 . S
C217 C218 1.385 . S
C218 H172 0.930 . S
C218 C217 1.385 . S
C218 C219 1.396 . S
C219 H173 0.929 . S
C219 C214 1.361 . S
C219 C218 1.396 . S
C220 O174 1.300 . S
C220 O175 1.209 . S
C220 C193 1.486 . S
C221 O176 1.199 . S
C221 O177 1.297 . S
C221 C205 1.476 . S
H222 O248 0.856 1_554 S
H223 O251 0.854 . S
H224 C259 0.930 1_455 S
H225 C260 0.930 . S
H226 C262 0.930 . S
H227 C263 0.930 . S
H228 C265 0.931 . S
H229 C266 0.930 . S
H230 C268 0.930 . S
H231 C269 0.929 . S
H232 C271 0.930 . S
H233 C272 0.931 . S
H234 C274 0.930 . S
H235 C275 0.929 . S
H236 C277 0.931 . S
H237 C278 0.930 . S
H238 C280 0.930 . S
H239 C281 0.932 . S
H240 C283 0.930 . S
H241 C284 0.929 . S
H242 C286 0.931 . S
H243 C287 0.930 . S
H244 C289 0.929 . S
H245 C290 0.931 . S
H246 C292 0.930 . S
H247 C293 0.929 . S
O248 H222 0.856 1_556 S
O248 C294 1.300 . S
O249 C294 1.209 . S
O250 C295 1.199 . S
O251 H223 0.854 . S
O251 C295 1.297 . S
C252 C253 1.404 . S
C252 C257 1.397 . S
C252 C258 1.492 1_455 S
C253 C252 1.404 . S
C253 C254 1.396 . S
C253 C264 1.492 . S
C254 C253 1.396 . S
C254 C255 1.397 . S
C254 C270 1.509 . S
C255 C254 1.397 . S
C255 C256 1.412 . S
C255 C276 1.485 . S
C256 C255 1.412 . S
C256 C257 1.388 . S
C256 C282 1.490 . S
C257 C252 1.397 . S
C257 C256 1.388 . S
C257 C288 1.519 1_455 S
C258 C252 1.492 1_655 S
C258 C259 1.363 . S
C258 C263 1.390 . S
C259 H224 0.930 1_655 S
C259 C258 1.363 . S
C259 C260 1.372 . S
C260 H225 0.930 . S
C260 C259 1.372 . S
C260 C261 1.383 . S
C261 C260 1.383 . S
C261 C262 1.395 . S
C262 H226 0.930 . S
C262 C261 1.395 . S
C262 C263 1.362 . S
C263 H227 0.930 . S
C263 C258 1.390 . S
C263 C262 1.362 . S
C264 C253 1.492 . S
C264 C265 1.377 . S
C264 C269 1.397 . S
C265 H228 0.931 . S
C265 C264 1.377 . S
C265 C266 1.376 . S
C266 H229 0.930 . S
C266 C265 1.376 . S
C266 C267 1.376 . S
C267 C266 1.376 . S
C267 C268 1.378 . S
C267 C294 1.486 . S
C268 H230 0.930 . S
C268 C267 1.378 . S
C268 C269 1.376 . S
C269 H231 0.929 . S
C269 C264 1.397 . S
C269 C268 1.376 . S
C270 C254 1.509 . S
C270 C271 1.391 . S
C270 C275 1.386 . S
C271 H232 0.930 . S
C271 C270 1.391 . S
C271 C272 1.375 . S
C272 H233 0.931 . S
C272 C271 1.375 . S
C272 C273 1.375 . S
C273 C272 1.375 . S
C273 C274 1.361 . S
C274 H234 0.930 . S
C274 C273 1.361 . S
C274 C275 1.399 . S
C275 H235 0.929 . S
C275 C270 1.386 . S
C275 C274 1.399 . S
C276 C255 1.485 . S
C276 C277 1.394 . S
C276 C281 1.360 . S
C277 H236 0.931 . S
C277 C276 1.394 . S
C277 C278 1.372 . S
C278 H237 0.930 . S
C278 C277 1.372 . S
C278 C279 1.397 . S
C279 C278 1.397 . S
C279 C280 1.390 . S
C279 C295 1.476 . S
C280 H238 0.930 . S
C280 C279 1.390 . S
C280 C281 1.366 . S
C281 H239 0.932 . S
C281 C276 1.360 . S
C281 C280 1.366 . S
C282 C256 1.490 . S
C282 C283 1.380 . S
C282 C287 1.386 . S
C283 H240 0.930 . S
C283 C282 1.380 . S
C283 C284 1.381 . S
C284 H241 0.929 . S
C284 C283 1.381 . S
C284 C285 1.371 . S
C285 C284 1.371 . S
C285 C286 1.380 . S
C286 H242 0.931 . S
C286 C285 1.380 . S
C286 C287 1.387 . S
C287 H243 0.930 . S
C287 C282 1.386 . S
C287 C286 1.387 . S
C288 C257 1.519 1_655 S
C288 C289 1.377 . S
C288 C293 1.361 . S
C289 H244 0.929 . S
C289 C288 1.377 . S
C289 C290 1.386 . S
C290 H245 0.931 . S
C290 C289 1.386 . S
C290 C291 1.363 . S
C291 C290 1.363 . S
C291 C292 1.385 . S
C292 H246 0.930 . S
C292 C291 1.385 . S
C292 C293 1.396 . S
C293 H247 0.929 . S
C293 C288 1.361 . S
C293 C292 1.396 . S
C294 O248 1.300 . S
C294 O249 1.209 . S
C294 C267 1.486 . S
C295 O250 1.199 . S
C295 O251 1.297 . S
C295 C279 1.476 . S
H296 O322 0.856 . S
H297 O325 0.854 . S
H298 C333 0.930 . S
H299 C334 0.930 . S
H300 C336 0.930 . S
H301 C337 0.930 . S
H302 C339 0.931 . S
H303 C340 0.930 . S
H304 C342 0.930 . S
H305 C343 0.929 . S
H306 C345 0.930 . S
H307 C346 0.931 . S
H308 C348 0.930 . S
H309 C349 0.929 . S
H310 C351 0.931 . S
H311 C352 0.930 . S
H312 C354 0.930 . S
H313 C355 0.932 . S
H314 C357 0.930 . S
H315 C358 0.929 1_545 S
H316 C360 0.931 . S
H317 C361 0.930 . S
H318 C363 0.929 1_556 S
H319 C364 0.931 . S
H320 C366 0.930 . S
H321 C367 0.929 . S
O322 H296 0.856 . S
O322 C368 1.300 . S
O323 C368 1.209 . S
O324 C369 1.199 . S
O325 H297 0.854 . S
O325 C369 1.297 . S
C326 C327 1.404 1_545 S
C326 C331 1.397 . S
C326 C332 1.492 . S
C327 C326 1.404 1_565 S
C327 C328 1.396 . S
C327 C338 1.492 . S
C328 C327 1.396 . S
C328 C329 1.397 . S
C328 C344 1.509 . S
C329 C328 1.397 . S
C329 C330 1.412 1_556 S
C329 C350 1.485 1_556 S
C330 C329 1.412 1_554 S
C330 C331 1.388 1_564 S
C330 C356 1.490 . S
C331 C326 1.397 . S
C331 C330 1.388 1_546 S
C331 C362 1.519 1_556 S
C332 C326 1.492 . S
C332 C333 1.363 . S
C332 C337 1.390 . S
C333 H298 0.930 . S
C333 C332 1.363 . S
C333 C334 1.372 . S
C334 H299 0.930 . S
C334 C333 1.372 . S
C334 C335 1.383 . S
C335 C334 1.383 . S
C335 C336 1.395 . S
C336 H300 0.930 . S
C336 C335 1.395 . S
C336 C337 1.362 . S
C337 H301 0.930 . S
C337 C332 1.390 . S
C337 C336 1.362 . S
C338 C327 1.492 . S
C338 C339 1.377 . S
C338 C343 1.397 . S
C339 H302 0.931 . S
C339 C338 1.377 . S
C339 C340 1.376 . S
C340 H303 0.930 . S
C340 C339 1.376 . S
C340 C341 1.376 . S
C341 C340 1.376 . S
C341 C342 1.378 . S
C341 C368 1.486 . S
C342 H304 0.930 . S
C342 C341 1.378 . S
C342 C343 1.376 . S
C343 H305 0.929 . S
C343 C338 1.397 . S
C343 C342 1.376 . S
C344 C328 1.509 . S
C344 C345 1.391 . S
C344 C349 1.386 . S
C345 H306 0.930 . S
C345 C344 1.391 . S
C345 C346 1.375 . S
C346 H307 0.931 . S
C346 C345 1.375 . S
C346 C347 1.375 . S
C347 C346 1.375 . S
C347 C348 1.361 . S
C348 H308 0.930 . S
C348 C347 1.361 . S
C348 C349 1.399 . S
C349 H309 0.929 . S
C349 C344 1.386 . S
C349 C348 1.399 . S
C350 C329 1.485 1_554 S
C350 C351 1.394 . S
C350 C355 1.360 . S
C351 H310 0.931 . S
C351 C350 1.394 . S
C351 C352 1.372 . S
C352 H311 0.930 . S
C352 C351 1.372 . S
C352 C353 1.397 . S
C353 C352 1.397 . S
C353 C354 1.390 . S
C353 C369 1.476 . S
C354 H312 0.930 . S
C354 C353 1.390 . S
C354 C355 1.366 . S
C355 H313 0.932 . S
C355 C350 1.360 . S
C355 C354 1.366 . S
C356 C330 1.490 . S
C356 C357 1.380 . S
C356 C361 1.386 . S
C357 H314 0.930 . S
C357 C356 1.380 . S
C357 C358 1.381 . S
C358 H315 0.929 1_565 S
C358 C357 1.381 . S
C358 C359 1.371 . S
C359 C358 1.371 . S
C359 C360 1.380 . S
C360 H316 0.931 . S
C360 C359 1.380 . S
C360 C361 1.387 . S
C361 H317 0.930 . S
C361 C356 1.386 . S
C361 C360 1.387 . S
C362 C331 1.519 1_554 S
C362 C363 1.377 . S
C362 C367 1.361 . S
C363 H318 0.929 1_554 S
C363 C362 1.377 . S
C363 C364 1.386 . S
C364 H319 0.931 . S
C364 C363 1.386 . S
C364 C365 1.363 . S
C365 C364 1.363 . S
C365 C366 1.385 . S
C366 H320 0.930 . S
C366 C365 1.385 . S
C366 C367 1.396 . S
C367 H321 0.929 . S
C367 C362 1.361 . S
C367 C366 1.396 . S
C368 O322 1.300 . S
C368 O323 1.209 . S
C368 C341 1.486 . S
C369 O324 1.199 . S
C369 O325 1.297 . S
C369 C353 1.476 . S
H370 O396 0.856 . S
H371 O399 0.854 . S
H372 C407 0.930 . S
H373 C408 0.930 . S
H374 C410 0.930 . S
H375 C411 0.930 . S
H376 C413 0.931 . S
H377 C414 0.930 . S
H378 C416 0.930 . S
H379 C417 0.929 . S
H380 C419 0.930 . S
H381 C420 0.931 . S
H382 C422 0.930 . S
H383 C423 0.929 . S
H384 C425 0.931 . S
H385 C426 0.930 . S
H386 C428 0.930 . S
H387 C429 0.932 . S
H388 C431 0.930 . S
H389 C432 0.929 . S
H390 C434 0.931 . S
H391 C435 0.930 . S
H392 C437 0.929 . S
H393 C438 0.931 . S
H394 C440 0.930 . S
H395 C441 0.929 . S
O396 H370 0.856 . S
O396 C442 1.300 . S
O397 C442 1.209 . S
O398 C443 1.199 . S
O399 H371 0.854 . S
O399 C443 1.297 . S
C400 C401 1.404 . S
C400 C405 1.397 . S
C400 C406 1.492 . S
C401 C400 1.404 . S
C401 C402 1.396 . S
C401 C412 1.492 . S
C402 C401 1.396 . S
C402 C403 1.397 . S
C402 C418 1.509 . S
C403 C402 1.397 . S
C403 C404 1.412 . S
C403 C424 1.485 . S
C404 C403 1.412 . S
C404 C405 1.388 . S
C404 C430 1.490 . S
C405 C400 1.397 . S
C405 C404 1.388 . S
C405 C436 1.519 . S
C406 C400 1.492 . S
C406 C407 1.363 . S
C406 C411 1.390 . S
C407 H372 0.930 . S
C407 C406 1.363 . S
C407 C408 1.372 . S
C408 H373 0.930 . S
C408 C407 1.372 . S
C408 C409 1.383 . S
C409 C408 1.383 . S
C409 C410 1.395 . S
C410 H374 0.930 . S
C410 C409 1.395 . S
C410 C411 1.362 . S
C411 H375 0.930 . S
C411 C406 1.390 . S
C411 C410 1.362 . S
C412 C401 1.492 . S
C412 C413 1.377 . S
C412 C417 1.397 . S
C413 H376 0.931 . S
C413 C412 1.377 . S
C413 C414 1.376 . S
C414 H377 0.930 . S
C414 C413 1.376 . S
C414 C415 1.376 . S
C415 C414 1.376 . S
C415 C416 1.378 . S
C415 C442 1.486 1_554 S
C416 H378 0.930 . S
C416 C415 1.378 . S
C416 C417 1.376 . S
C417 H379 0.929 . S
C417 C412 1.397 . S
C417 C416 1.376 . S
C418 C402 1.509 . S
C418 C419 1.391 . S
C418 C423 1.386 . S
C419 H380 0.930 . S
C419 C418 1.391 . S
C419 C420 1.375 . S
C420 H381 0.931 . S
C420 C419 1.375 . S
C420 C421 1.375 . S
C421 C420 1.375 . S
C421 C422 1.361 . S
C422 H382 0.930 . S
C422 C421 1.361 . S
C422 C423 1.399 . S
C423 H383 0.929 . S
C423 C418 1.386 . S
C423 C422 1.399 . S
C424 C403 1.485 . S
C424 C425 1.394 . S
C424 C429 1.360 . S
C425 H384 0.931 . S
C425 C424 1.394 . S
C425 C426 1.372 . S
C426 H385 0.930 . S
C426 C425 1.372 . S
C426 C427 1.397 . S
C427 C426 1.397 . S
C427 C428 1.390 . S
C427 C443 1.476 . S
C428 H386 0.930 . S
C428 C427 1.390 . S
C428 C429 1.366 . S
C429 H387 0.932 . S
C429 C424 1.360 . S
C429 C428 1.366 . S
C430 C404 1.490 . S
C430 C431 1.380 . S
C430 C435 1.386 . S
C431 H388 0.930 . S
C431 C430 1.380 . S
C431 C432 1.381 . S
C432 H389 0.929 . S
C432 C431 1.381 . S
C432 C433 1.371 . S
C433 C432 1.371 . S
C433 C434 1.380 . S
C434 H390 0.931 . S
C434 C433 1.380 . S
C434 C435 1.387 . S
C435 H391 0.930 . S
C435 C430 1.386 . S
C435 C434 1.387 . S
C436 C405 1.519 . S
C436 C437 1.377 . S
C436 C441 1.361 . S
C437 H392 0.929 . S
C437 C436 1.377 . S
C437 C438 1.386 . S
C438 H393 0.931 . S
C438 C437 1.386 . S
C438 C439 1.363 . S
C439 C438 1.363 . S
C439 C440 1.385 . S
C440 H394 0.930 . S
C440 C439 1.385 . S
C440 C441 1.396 . S
C441 H395 0.929 . S
C441 C436 1.361 . S
C441 C440 1.396 . S
C442 O396 1.300 . S
C442 O397 1.209 . S
C442 C415 1.486 1_556 S
C443 O398 1.199 . S
C443 O399 1.297 . S
C443 C427 1.476 . S
C444 O445 1.306 . S
C444 O447 1.160 . S
O445 C444 1.306 . S
O445 Cd446 2.228 . S
Cd446 O445 2.228 . S
Cd446 O450 2.273 . S
Cd446 O454 2.277 . S
O447 C444 1.160 . S
O447 Cd448 2.203 . S
Cd448 O447 2.203 . S
Cd448 O450 2.411 . S
Cd448 O451 2.333 . S
Cd448 O452 2.352 . S
Cd448 O456 2.277 . S
Cd448 O457 2.356 . S
C449 O454 1.209 . S
C449 O456 1.226 . S
O450 Cd446 2.273 . S
O450 Cd448 2.411 . S
O450 C453 1.320 . S
O451 Cd448 2.333 . S
O451 C453 1.214 . S
O452 Cd448 2.352 . S
O452 C455 1.258 . S
C453 O450 1.320 . S
C453 O451 1.214 . S
O454 Cd446 2.277 . S
O454 C449 1.209 . S
C455 O452 1.258 . S
C455 O457 1.282 . S
O456 Cd448 2.277 . S
O456 C449 1.226 . S
O457 Cd448 2.356 . S
O457 C455 1.282 . S
C458 O459 1.306 . S
C458 O461 1.160 . S
O459 C458 1.306 . S
O459 Cd460 2.228 . S
Cd460 O459 2.228 . S
Cd460 O464 2.273 . S
Cd460 O468 2.277 . S
O461 C458 1.160 . S
O461 Cd462 2.203 . S
Cd462 O461 2.203 . S
Cd462 O464 2.411 . S
Cd462 O465 2.333 . S
Cd462 O466 2.352 . S
Cd462 O470 2.277 . S
Cd462 O471 2.356 . S
C463 O468 1.209 . S
C463 O470 1.226 . S
O464 Cd460 2.273 . S
O464 Cd462 2.411 . S
O464 C467 1.320 . S
O465 Cd462 2.333 . S
O465 C467 1.214 . S
O466 Cd462 2.352 . S
O466 C469 1.258 . S
C467 O464 1.320 . S
C467 O465 1.214 . S
O468 Cd460 2.277 . S
O468 C463 1.209 . S
C469 O466 1.258 . S
C469 O471 1.282 . S
O470 Cd462 2.277 . S
O470 C463 1.226 . S
O471 Cd462 2.356 . S
O471 C469 1.282 . S
C472 O473 1.306 . S
C472 O475 1.160 . S
O473 C472 1.306 . S
O473 Cd474 2.228 . S
Cd474 O473 2.228 . S
Cd474 O478 2.273 . S
Cd474 O482 2.277 . S
O475 C472 1.160 . S
O475 Cd476 2.203 . S
Cd476 O475 2.203 . S
Cd476 O478 2.411 . S
Cd476 O479 2.333 . S
Cd476 O480 2.352 . S
Cd476 O484 2.277 . S
Cd476 O485 2.356 . S
C477 O482 1.209 . S
C477 O484 1.226 . S
O478 Cd474 2.273 . S
O478 Cd476 2.411 . S
O478 C481 1.320 . S
O479 Cd476 2.333 . S
O479 C481 1.214 . S
O480 Cd476 2.352 . S
O480 C483 1.258 . S
C481 O478 1.320 . S
C481 O479 1.214 . S
O482 Cd474 2.277 . S
O482 C477 1.209 . S
C483 O480 1.258 . S
C483 O485 1.282 . S
O484 Cd476 2.277 . S
O484 C477 1.226 . S
O485 Cd476 2.356 . S
O485 C483 1.282 . S
C486 O487 1.306 . S
C486 O489 1.160 . S
O487 C486 1.306 . S
O487 Cd488 2.228 . S
Cd488 O487 2.228 . S
Cd488 O492 2.273 . S
Cd488 O496 2.277 . S
O489 C486 1.160 . S
O489 Cd490 2.203 . S
Cd490 O489 2.203 . S
Cd490 O492 2.411 . S
Cd490 O493 2.333 . S
Cd490 O494 2.352 . S
Cd490 O498 2.277 . S
Cd490 O499 2.356 . S
C491 O496 1.209 . S
C491 O498 1.226 . S
O492 Cd488 2.273 . S
O492 Cd490 2.411 . S
O492 C495 1.320 . S
O493 Cd490 2.333 . S
O493 C495 1.214 . S
O494 Cd490 2.352 . S
O494 C497 1.258 . S
C495 O492 1.320 . S
C495 O493 1.214 . S
O496 Cd488 2.277 . S
O496 C491 1.209 . S
C497 O494 1.258 . S
C497 O499 1.282 . S
O498 Cd490 2.277 . S
O498 C491 1.226 . S
O499 Cd490 2.356 . S
O499 C497 1.282 . S
C500 O501 1.306 . S
C500 O503 1.160 . S
O501 C500 1.306 . S
O501 Cd502 2.228 . S
Cd502 O501 2.228 . S
Cd502 O506 2.273 . S
Cd502 O510 2.277 . S
O503 C500 1.160 . S
O503 Cd504 2.203 . S
Cd504 O503 2.203 . S
Cd504 O506 2.411 . S
Cd504 O507 2.333 . S
Cd504 O508 2.352 . S
Cd504 O512 2.277 . S
Cd504 O513 2.356 . S
C505 O510 1.209 . S
C505 O512 1.226 . S
O506 Cd502 2.273 . S
O506 Cd504 2.411 . S
O506 C509 1.320 . S
O507 Cd504 2.333 . S
O507 C509 1.214 . S
O508 Cd504 2.352 . S
O508 C511 1.258 . S
C509 O506 1.320 . S
C509 O507 1.214 . S
O510 Cd502 2.277 . S
O510 C505 1.209 . S
C511 O508 1.258 . S
C511 O513 1.282 . S
O512 Cd504 2.277 . S
O512 C505 1.226 . S
O513 Cd504 2.356 . S
O513 C511 1.282 . S
C514 O515 1.306 . S
C514 O517 1.160 . S
O515 C514 1.306 . S
O515 Cd516 2.228 . S
Cd516 O515 2.228 . S
Cd516 O520 2.273 . S
Cd516 O524 2.277 . S
O517 C514 1.160 . S
O517 Cd518 2.203 . S
Cd518 O517 2.203 . S
Cd518 O520 2.411 . S
Cd518 O521 2.333 . S
Cd518 O522 2.352 . S
Cd518 O526 2.277 . S
Cd518 O527 2.356 . S
C519 O524 1.209 . S
C519 O526 1.226 . S
O520 Cd516 2.273 . S
O520 Cd518 2.411 . S
O520 C523 1.320 . S
O521 Cd518 2.333 . S
O521 C523 1.214 . S
O522 Cd518 2.352 . S
O522 C525 1.258 . S
C523 O520 1.320 . S
C523 O521 1.214 . S
O524 Cd516 2.277 . S
O524 C519 1.209 . S
C525 O522 1.258 . S
C525 O527 1.282 . S
O526 Cd518 2.277 . S
O526 C519 1.226 . S
O527 Cd518 2.356 . S
O527 C525 1.282 . S
C528 C529 1.369 . S
C528 C530 1.419 . S
C528 H532 0.930 . S
C529 C528 1.369 . S
C529 C538 1.429 . S
C530 C528 1.419 . S
C530 C531 1.363 . S
C530 H533 0.929 . S
C531 C530 1.363 . S
C531 C537 1.428 . S
H532 C528 0.930 . S
H533 C530 0.929 . S
S534 N535 1.613 . S
S534 N536 1.610 . S
N535 S534 1.613 . S
N535 C538 1.350 . S
N536 S534 1.610 . S
N536 C537 1.351 . S
C537 C531 1.428 . S
C537 N536 1.351 . S
C537 C538 1.434 . S
C538 C529 1.429 . S
C538 N535 1.350 . S
C538 C537 1.434 . S
C539 C540 1.369 . S
C539 C541 1.419 . S
C539 H543 0.930 . S
C540 C539 1.369 . S
C540 C549 1.429 . S
C541 C539 1.419 . S
C541 C542 1.363 . S
C541 H544 0.929 . S
C542 C541 1.363 . S
C542 C548 1.428 . S
H543 C539 0.930 . S
H544 C541 0.929 . S
S545 N546 1.613 . S
S545 N547 1.610 . S
N546 S545 1.613 . S
N546 C549 1.350 . S
N547 S545 1.610 . S
N547 C548 1.351 . S
C548 C542 1.428 . S
C548 N547 1.351 . S
C548 C549 1.434 . S
C549 C540 1.429 . S
C549 N546 1.350 . S
C549 C548 1.434 . S
C550 C551 1.369 . S
C550 C552 1.419 . S
C550 H554 0.930 . S
C551 C550 1.369 . S
C551 C560 1.429 . S
C552 C550 1.419 . S
C552 C553 1.363 . S
C552 H555 0.929 . S
C553 C552 1.363 . S
C553 C559 1.428 . S
H554 C550 0.930 . S
H555 C552 0.929 . S
S556 N557 1.613 . S
S556 N558 1.610 . S
N557 S556 1.613 . S
N557 C560 1.350 . S
N558 S556 1.610 . S
N558 C559 1.351 . S
C559 C553 1.428 . S
C559 N558 1.351 . S
C559 C560 1.434 . S
C560 C551 1.429 . S
C560 N557 1.350 . S
C560 C559 1.434 . S
C561 C562 1.369 . S
C561 C563 1.419 . S
C561 H565 0.930 . S
C562 C561 1.369 . S
C562 C571 1.429 . S
C563 C561 1.419 . S
C563 C564 1.363 . S
C563 H566 0.929 . S
C564 C563 1.363 . S
C564 C570 1.428 . S
H565 C561 0.930 . S
H566 C563 0.929 . S
S567 N568 1.613 . S
S567 N569 1.610 . S
N568 S567 1.613 . S
N568 C571 1.350 . S
N569 S567 1.610 . S
N569 C570 1.351 . S
C570 C564 1.428 . S
C570 N569 1.351 . S
C570 C571 1.434 . S
C571 C562 1.429 . S
C571 N568 1.350 . S
C571 C570 1.434 . S
C572 C573 1.369 . S
C572 C574 1.419 . S
C572 H576 0.930 . S
C573 C572 1.369 . S
C573 C582 1.429 . S
C574 C572 1.419 . S
C574 C575 1.363 . S
C574 H577 0.929 . S
C575 C574 1.363 . S
C575 C581 1.428 . S
H576 C572 0.930 . S
H577 C574 0.929 . S
S578 N579 1.613 . S
S578 N580 1.610 . S
N579 S578 1.613 . S
N579 C582 1.350 . S
N580 S578 1.610 . S
N580 C581 1.351 . S
C581 C575 1.428 . S
C581 N580 1.351 . S
C581 C582 1.434 . S
C582 C573 1.429 . S
C582 N579 1.350 . S
C582 C581 1.434 . S
C583 C584 1.369 . S
C583 C585 1.419 . S
C583 H587 0.930 . S
C584 C583 1.369 . S
C584 C593 1.429 . S
C585 C583 1.419 . S
C585 C586 1.363 . S
C585 H588 0.929 . S
C586 C585 1.363 . S
C586 C592 1.428 . S
H587 C583 0.930 . S
H588 C585 0.929 . S
S589 N590 1.613 . S
S589 N591 1.610 . S
N590 S589 1.613 . S
N590 C593 1.350 . S
N591 S589 1.610 . S
N591 C592 1.351 . S
C592 C586 1.428 . S
C592 N591 1.351 . S
C592 C593 1.434 . S
C593 C584 1.429 . S
C593 N590 1.350 . S
C593 C592 1.434 . S
C594 C595 1.369 . S
C594 C596 1.419 . S
C594 H598 0.930 . S
C595 C594 1.369 . S
C595 C604 1.429 . S
C596 C594 1.419 . S
C596 C597 1.363 . S
C596 H599 0.929 . S
C597 C596 1.363 . S
C597 C603 1.428 . S
H598 C594 0.930 . S
H599 C596 0.929 . S
S600 N601 1.613 . S
S600 N602 1.610 . S
N601 S600 1.613 . S
N601 C604 1.350 . S
N602 S600 1.610 . S
N602 C603 1.351 . S
C603 C597 1.428 . S
C603 N602 1.351 . S
C603 C604 1.434 . S
C604 C595 1.429 . S
C604 N601 1.350 . S
C604 C603 1.434 . S
C605 C606 1.369 . S
C605 C607 1.419 . S
C605 H609 0.930 . S
C606 C605 1.369 . S
C606 C615 1.429 . S
C607 C605 1.419 . S
C607 C608 1.363 . S
C607 H610 0.929 . S
C608 C607 1.363 . S
C608 C614 1.428 . S
H609 C605 0.930 . S
H610 C607 0.929 . S
S611 N612 1.613 . S
S611 N613 1.610 . S
N612 S611 1.613 . S
N612 C615 1.350 . S
N613 S611 1.610 . S
N613 C614 1.351 . S
C614 C608 1.428 . S
C614 N613 1.351 . S
C614 C615 1.434 . S
C615 C606 1.429 . S
C615 N612 1.350 . S
C615 C614 1.434 . S
C616 C617 1.369 . S
C616 C618 1.419 . S
C616 H620 0.930 . S
C617 C616 1.369 . S
C617 C626 1.429 . S
C618 C616 1.419 . S
C618 C619 1.363 . S
C618 H621 0.929 . S
C619 C618 1.363 . S
C619 C625 1.428 . S
H620 C616 0.930 . S
H621 C618 0.929 . S
S622 N623 1.613 . S
S622 N624 1.610 . S
N623 S622 1.613 . S
N623 C626 1.350 . S
N624 S622 1.610 . S
N624 C625 1.351 . S
C625 C619 1.428 . S
C625 N624 1.351 . S
C625 C626 1.434 . S
C626 C617 1.429 . S
C626 N623 1.350 . S
C626 C625 1.434 . S
C627 C628 1.369 . S
C627 C629 1.419 . S
C627 H631 0.930 . S
C628 C627 1.369 . S
C628 C637 1.429 . S
C629 C627 1.419 . S
C629 C630 1.363 . S
C629 H632 0.929 . S
C630 C629 1.363 . S
C630 C636 1.428 . S
H631 C627 0.930 . S
H632 C629 0.929 . S
S633 N634 1.613 . S
S633 N635 1.610 . S
N634 S633 1.613 . S
N634 C637 1.350 . S
N635 S633 1.610 . S
N635 C636 1.351 . S
C636 C630 1.428 . S
C636 N635 1.351 . S
C636 C637 1.434 . S
C637 C628 1.429 . S
C637 N634 1.350 . S
C637 C636 1.434 . S
C638 C639 1.369 . S
C638 C640 1.419 . S
C638 H642 0.930 . S
C639 C638 1.369 . S
C639 C648 1.429 . S
C640 C638 1.419 . S
C640 C641 1.363 . S
C640 H643 0.929 . S
C641 C640 1.363 . S
C641 C647 1.428 . S
H642 C638 0.930 . S
H643 C640 0.929 . S
S644 N645 1.613 . S
S644 N646 1.610 . S
N645 S644 1.613 . S
N645 C648 1.350 . S
N646 S644 1.610 . S
N646 C647 1.351 . S
C647 C641 1.428 . S
C647 N646 1.351 . S
C647 C648 1.434 . S
C648 C639 1.429 . S
C648 N645 1.350 . S
C648 C647 1.434 . S
C649 C650 1.369 . S
C649 C651 1.419 . S
C649 H653 0.930 . S
C650 C649 1.369 . S
C650 C659 1.429 . S
C651 C649 1.419 . S
C651 C652 1.363 . S
C651 H654 0.929 . S
C652 C651 1.363 . S
C652 C658 1.428 . S
H653 C649 0.930 . S
H654 C651 0.929 . S
S655 N656 1.613 . S
S655 N657 1.610 . S
N656 S655 1.613 . S
N656 C659 1.350 . S
N657 S655 1.610 . S
N657 C658 1.351 . S
C658 C652 1.428 . S
C658 N657 1.351 . S
C658 C659 1.434 . S
C659 C650 1.429 . S
C659 N656 1.350 . S
C659 C658 1.434 . S
C660 C661 1.369 . S
C660 C662 1.419 . S
C660 H664 0.930 . S
C661 C660 1.369 . S
C661 C670 1.429 . S
C662 C660 1.419 . S
C662 C663 1.363 . S
C662 H665 0.929 . S
C663 C662 1.363 . S
C663 C669 1.428 . S
H664 C660 0.930 . S
H665 C662 0.929 . S
S666 N667 1.613 . S
S666 N668 1.610 . S
N667 S666 1.613 . S
N667 C670 1.350 . S
N668 S666 1.610 . S
N668 C669 1.351 . S
C669 C663 1.428 . S
C669 N668 1.351 . S
C669 C670 1.434 . S
C670 C661 1.429 . S
C670 N667 1.350 . S
C670 C669 1.434 . S
C671 C672 1.369 . S
C671 C673 1.419 . S
C671 H675 0.930 . S
C672 C671 1.369 . S
C672 C681 1.429 . S
C673 C671 1.419 . S
C673 C674 1.363 . S
C673 H676 0.929 . S
C674 C673 1.363 . S
C674 C680 1.428 . S
H675 C671 0.930 . S
H676 C673 0.929 . S
S677 N678 1.613 . S
S677 N679 1.610 . S
N678 S677 1.613 . S
N678 C681 1.350 . S
N679 S677 1.610 . S
N679 C680 1.351 . S
C680 C674 1.428 . S
C680 N679 1.351 . S
C680 C681 1.434 . S
C681 C672 1.429 . S
C681 N678 1.350 . S
C681 C680 1.434 . S
C682 C683 1.369 . S
C682 C684 1.419 . S
C682 H686 0.930 . S
C683 C682 1.369 . S
C683 C692 1.429 . S
C684 C682 1.419 . S
C684 C685 1.363 . S
C684 H687 0.929 . S
C685 C684 1.363 . S
C685 C691 1.428 . S
H686 C682 0.930 . S
H687 C684 0.929 . S
S688 N689 1.613 . S
S688 N690 1.610 . S
N689 S688 1.613 . S
N689 C692 1.350 . S
N690 S688 1.610 . S
N690 C691 1.351 . S
C691 C685 1.428 . S
C691 N690 1.351 . S
C691 C692 1.434 . S
C692 C683 1.429 . S
C692 N689 1.350 . S
C692 C691 1.434 . S
C693 C694 1.369 . S
C693 C695 1.419 . S
C693 H697 0.930 . S
C694 C693 1.369 . S
C694 C703 1.429 . S
C695 C693 1.419 . S
C695 C696 1.363 . S
C695 H698 0.929 . S
C696 C695 1.363 . S
C696 C702 1.428 . S
H697 C693 0.930 . S
H698 C695 0.929 . S
S699 N700 1.613 . S
S699 N701 1.610 . S
N700 S699 1.613 . S
N700 C703 1.350 . S
N701 S699 1.610 . S
N701 C702 1.351 . S
C702 C696 1.428 . S
C702 N701 1.351 . S
C702 C703 1.434 . S
C703 C694 1.429 . S
C703 N700 1.350 . S
C703 C702 1.434 . S
C704 C705 1.369 . S
C704 C706 1.419 . S
C704 H708 0.930 1_565 S
C705 C704 1.369 . S
C705 C714 1.429 . S
C706 C704 1.419 . S
C706 C707 1.363 . S
C706 H709 0.929 . S
C707 C706 1.363 . S
C707 C713 1.428 . S
H708 C704 0.930 1_545 S
H709 C706 0.929 . S
S710 N711 1.613 . S
S710 N712 1.610 . S
N711 S710 1.613 . S
N711 C714 1.350 . S
N712 S710 1.610 . S
N712 C713 1.351 . S
C713 C707 1.428 . S
C713 N712 1.351 . S
C713 C714 1.434 . S
C714 C705 1.429 . S
C714 N711 1.350 . S
C714 C713 1.434 . S
C715 C716 1.369 . S
C715 C717 1.419 . S
C715 H719 0.930 . S
C716 C715 1.369 . S
C716 C725 1.429 . S
C717 C715 1.419 . S
C717 C718 1.363 . S
C717 H720 0.929 . S
C718 C717 1.363 . S
C718 C724 1.428 . S
H719 C715 0.930 . S
H720 C717 0.929 . S
S721 N722 1.613 . S
S721 N723 1.610 . S
N722 S721 1.613 . S
N722 C725 1.350 . S
N723 S721 1.610 . S
N723 C724 1.351 . S
C724 C718 1.428 . S
C724 N723 1.351 . S
C724 C725 1.434 . S
C725 C716 1.429 . S
C725 N722 1.350 . S
C725 C724 1.434 . S
C726 C727 1.369 . S
C726 C728 1.419 . S
C726 H730 0.930 . S
C727 C726 1.369 . S
C727 C736 1.429 . S
C728 C726 1.419 . S
C728 C729 1.363 . S
C728 H731 0.929 . S
C729 C728 1.363 . S
C729 C735 1.428 . S
H730 C726 0.930 . S
H731 C728 0.929 . S
S732 N733 1.613 . S
S732 N734 1.610 . S
N733 S732 1.613 . S
N733 C736 1.350 . S
N734 S732 1.610 . S
N734 C735 1.351 . S
C735 C729 1.428 . S
C735 N734 1.351 . S
C735 C736 1.434 . S
C736 C727 1.429 . S
C736 N733 1.350 . S
C736 C735 1.434 . S
C737 C738 1.369 . S
C737 C739 1.419 . S
C737 H741 0.930 . S
C738 C737 1.369 . S
C738 C747 1.429 . S
C739 C737 1.419 . S
C739 C740 1.363 . S
C739 H742 0.929 . S
C740 C739 1.363 . S
C740 C746 1.428 . S
H741 C737 0.930 . S
H742 C739 0.929 . S
S743 N744 1.613 . S
S743 N745 1.610 . S
N744 S743 1.613 . S
N744 C747 1.350 . S
N745 S743 1.610 . S
N745 C746 1.351 . S
C746 C740 1.428 . S
C746 N745 1.351 . S
C746 C747 1.434 . S
C747 C738 1.429 . S
C747 N744 1.350 . S
C747 C746 1.434 . S
C748 C749 1.369 . S
C748 C750 1.419 . S
C748 H752 0.930 . S
C749 C748 1.369 . S
C749 C758 1.429 . S
C750 C748 1.419 . S
C750 C751 1.363 . S
C750 H753 0.929 . S
C751 C750 1.363 . S
C751 C757 1.428 . S
H752 C748 0.930 . S
H753 C750 0.929 . S
S754 N755 1.613 . S
S754 N756 1.610 . S
N755 S754 1.613 . S
N755 C758 1.350 . S
N756 S754 1.610 . S
N756 C757 1.351 . S
C757 C751 1.428 . S
C757 N756 1.351 . S
C757 C758 1.434 . S
C758 C749 1.429 . S
C758 N755 1.350 . S
C758 C757 1.434 . S
C759 C760 1.369 . S
C759 C761 1.419 . S
C759 H763 0.930 . S
C760 C759 1.369 . S
C760 C769 1.429 . S
C761 C759 1.419 . S
C761 C762 1.363 . S
C761 H764 0.929 . S
C762 C761 1.363 . S
C762 C768 1.428 . S
H763 C759 0.930 . S
H764 C761 0.929 . S
S765 N766 1.613 . S
S765 N767 1.610 . S
N766 S765 1.613 . S
N766 C769 1.350 . S
N767 S765 1.610 . S
N767 C768 1.351 . S
C768 C762 1.428 . S
C768 N767 1.351 . S
C768 C769 1.434 . S
C769 C760 1.429 . S
C769 N766 1.350 . S
C769 C768 1.434 . S
C770 C771 1.369 . S
C770 C772 1.419 1_554 S
C770 H774 0.930 . S
C771 C770 1.369 . S
C771 C780 1.429 . S
C772 C770 1.419 1_556 S
C772 C773 1.363 . S
C772 H775 0.929 . S
C773 C772 1.363 . S
C773 C779 1.428 . S
H774 C770 0.930 . S
H775 C772 0.929 . S
S776 N777 1.613 . S
S776 N778 1.610 1_554 S
N777 S776 1.613 . S
N777 C780 1.350 . S
N778 S776 1.610 1_556 S
N778 C779 1.351 . S
C779 C773 1.428 . S
C779 N778 1.351 . S
C779 C780 1.434 1_556 S
C780 C771 1.429 . S
C780 N777 1.350 . S
C780 C779 1.434 1_554 S
C781 C782 1.369 . S
C781 C783 1.419 . S
C781 H785 0.930 . S
C782 C781 1.369 . S
C782 C791 1.429 . S
C783 C781 1.419 . S
C783 C784 1.363 . S
C783 H786 0.929 . S
C784 C783 1.363 . S
C784 C790 1.428 . S
H785 C781 0.930 . S
H786 C783 0.929 . S
S787 N788 1.613 . S
S787 N789 1.610 . S
N788 S787 1.613 . S
N788 C791 1.350 . S
N789 S787 1.610 . S
N789 C790 1.351 . S
C790 C784 1.428 . S
C790 N789 1.351 . S
C790 C791 1.434 . S
C791 C782 1.429 . S
C791 N788 1.350 . S
C791 C790 1.434 . S
C531 C514 1.567 . S
C529 C51 1.484 . S
C540 C125 1.468 . S
C542 C455 1.481 . S
C551 C217 2.525 . S
C553 C458 2.587 . S
C562 C291 1.580 . S
C564 C472 1.588 . S
C575 C497 1.210 . S
C573 C347 1.147 . S
C584 C421 1.085 . S
C586 C500 1.081 . S
C595 C143 2.165 . S
C597 C469 2.172 . S
C606 C199 1.570 . S
C608 C483 1.606 . S
C617 C273 0.764 . S
C619 C486 0.753 . S
C630 C511 1.770 . S
C628 C365 1.701 . S
C641 C525 1.799 . S
C639 C439 1.803 . S
C652 C444 2.480 . S
C650 C69 2.408 . S
C661 C63 1.504 . S
C663 C467 1.662 . S
C672 C137 1.623 . S
C674 C481 1.756 . S
C685 C491 1.506 . S
C683 C187 1.434 . S
C694 C261 1.551 . S
C696 C509 1.590 1_556 S
C707 C523 1.813 . S
C705 C359 1.584 . S
C718 C449 1.401 . S
C716 C433 1.286 . S
C729 C519 1.754 . S
C727 C113 1.716 . S
C738 C211 1.412 . S
C740 C453 1.561 . S
C751 C463 1.801 . S
C749 C285 1.647 . S
C760 C335 1.515 . S
C762 C477 1.622 . S
C771 C409 1.430 . S
C773 C495 1.459 . S
C782 C39 1.632 . S
C784 C505 1.674 . S
