# Generated by pormake.
# Topology wbl, (4,4)-cn, num edge types: 1
# Building blocks:
#     Node 0, Type 0, BuildingBlock: NAWXER_clean_linker_0, # of connection points: 4
#     Node 1, Type 0, BuildingBlock: NAWXER_clean_linker_0, # of connection points: 4
#     Node 2, Type 0, BuildingBlock: NAWXER_clean_linker_0, # of connection points: 4
#     Node 3, Type 0, BuildingBlock: NAWXER_clean_linker_0, # of connection points: 4
#     Node 4, Type 0, BuildingBlock: NAWXER_clean_linker_0, # of connection points: 4
#     Node 5, Type 0, BuildingBlock: NAWXER_clean_linker_0, # of connection points: 4
#     Node 6, Type 0, BuildingBlock: NAWXER_clean_linker_0, # of connection points: 4
#     Node 7, Type 0, BuildingBlock: NAWXER_clean_linker_0, # of connection points: 4
#     Node 8, Type 1, BuildingBlock: TATPOV_clean_sbu_0, # of connection points: 4
#     Node 9, Type 1, BuildingBlock: TATPOV_clean_sbu_0, # of connection points: 4
#     Node 10, Type 1, BuildingBlock: TATPOV_clean_sbu_0, # of connection points: 4
#     Node 11, Type 1, BuildingBlock: TATPOV_clean_sbu_0, # of connection points: 4
#     Node 12, Type 1, BuildingBlock: TATPOV_clean_sbu_0, # of connection points: 4
#     Node 13, Type 1, BuildingBlock: TATPOV_clean_sbu_0, # of connection points: 4
#     Node 14, Type 1, BuildingBlock: TATPOV_clean_sbu_0, # of connection points: 4
#     Node 15, Type 1, BuildingBlock: TATPOV_clean_sbu_0, # of connection points: 4
#     Edge 16, Type (0, 1), BuildingBlock: XIVTED_clean_linker_0, # of connection points: 2
#     Edge 17, Type (0, 1), BuildingBlock: XIVTED_clean_linker_0, # of connection points: 2
#     Edge 18, Type (0, 1), BuildingBlock: XIVTED_clean_linker_0, # of connection points: 2
#     Edge 19, Type (0, 1), BuildingBlock: XIVTED_clean_linker_0, # of connection points: 2
#     Edge 20, Type (0, 1), BuildingBlock: XIVTED_clean_linker_0, # of connection points: 2
#     Edge 21, Type (0, 1), BuildingBlock: XIVTED_clean_linker_0, # of connection points: 2
#     Edge 22, Type (0, 1), BuildingBlock: XIVTED_clean_linker_0, # of connection points: 2
#     Edge 23, Type (0, 1), BuildingBlock: XIVTED_clean_linker_0, # of connection points: 2
#     Edge 24, Type (0, 1), BuildingBlock: XIVTED_clean_linker_0, # of connection points: 2
#     Edge 25, Type (0, 1), BuildingBlock: XIVTED_clean_linker_0, # of connection points: 2
#     Edge 26, Type (0, 1), BuildingBlock: XIVTED_clean_linker_0, # of connection points: 2
#     Edge 27, Type (0, 1), BuildingBlock: XIVTED_clean_linker_0, # of connection points: 2
#     Edge 28, Type (0, 1), BuildingBlock: XIVTED_clean_linker_0, # of connection points: 2
#     Edge 29, Type (0, 1), BuildingBlock: XIVTED_clean_linker_0, # of connection points: 2
#     Edge 30, Type (0, 1), BuildingBlock: XIVTED_clean_linker_0, # of connection points: 2
#     Edge 31, Type (0, 1), BuildingBlock: XIVTED_clean_linker_0, # of connection points: 2
#     Edge 32, Type (0, 1), BuildingBlock: XIVTED_clean_linker_0, # of connection points: 2
#     Edge 33, Type (0, 1), BuildingBlock: XIVTED_clean_linker_0, # of connection points: 2
#     Edge 34, Type (0, 1), BuildingBlock: XIVTED_clean_linker_0, # of connection points: 2
#     Edge 35, Type (0, 1), BuildingBlock: XIVTED_clean_linker_0, # of connection points: 2
#     Edge 36, Type (0, 1), BuildingBlock: XIVTED_clean_linker_0, # of connection points: 2
#     Edge 37, Type (0, 1), BuildingBlock: XIVTED_clean_linker_0, # of connection points: 2
#     Edge 38, Type (0, 1), BuildingBlock: XIVTED_clean_linker_0, # of connection points: 2
#     Edge 39, Type (0, 1), BuildingBlock: XIVTED_clean_linker_0, # of connection points: 2
#     Edge 40, Type (0, 1), BuildingBlock: XIVTED_clean_linker_0, # of connection points: 2
#     Edge 41, Type (0, 1), BuildingBlock: XIVTED_clean_linker_0, # of connection points: 2
#     Edge 42, Type (0, 1), BuildingBlock: XIVTED_clean_linker_0, # of connection points: 2
#     Edge 43, Type (0, 1), BuildingBlock: XIVTED_clean_linker_0, # of connection points: 2
#     Edge 44, Type (0, 1), BuildingBlock: XIVTED_clean_linker_0, # of connection points: 2
#     Edge 45, Type (0, 1), BuildingBlock: XIVTED_clean_linker_0, # of connection points: 2
#     Edge 46, Type (0, 1), BuildingBlock: XIVTED_clean_linker_0, # of connection points: 2
#     Edge 47, Type (0, 1), BuildingBlock: XIVTED_clean_linker_0, # of connection points: 2
# Relax obj value: 0.173
# Max RMSD: 0.171
# Mean RMSD: 0.138
data_MOF--net-wbl--node1-TATPOV_clean_sbu_0--node2-NAWXER_clean_linker_0--edge1-XIVTED_clean_linker_0
_symmetry_space_group_name_H-M    P1
_symmetry_Int_Tables_number       1
_symmetry_cell_setting            triclinic
loop_
_symmetry_equiv_pos_as_xyz
'x, y, z'
_cell_length_a     44.850725
_cell_length_b     44.849009
_cell_length_c     76.58808
_cell_angle_alpha  91.385812
_cell_angle_beta   91.417335
_cell_angle_gamma 90.019719
loop_
_atom_site_label
_atom_site_type_symbol
_atom_site_fract_x
_atom_site_fract_y
_atom_site_fract_z
_atom_type_partial_charge
C0 C 0.1269 0.95863 0.38151 0.0
C1 C 0.14742 0.96807 0.39468 0.0
C2 C 0.11223 0.97943 0.37108 0.0
C3 C 0.11813 0.01006 0.37343 0.0
C4 C 0.15354 -0.00129 0.39686 0.0
C5 C 0.13893 0.01948 0.38639 0.0
C6 C 0.10054 0.03251 0.36378 0.0
C7 C 0.15249 0.98279 0.32316 0.0
C8 C 0.13442 0.96414 0.31234 0.0
C9 C 0.1397 0.00454 0.33396 0.0
C10 C 0.10863 0.00811 0.33404 0.0
C11 C 0.10334 0.96799 0.31229 0.0
C12 C 0.09057 0.99007 0.3229 0.0
C13 C 0.09487 0.0308 0.34556 0.0
C14 C 0.02417 0.14455 0.33377 0.0
C15 C 0.00412 0.13343 0.32085 0.0
C16 C 0.04407 0.12534 0.34218 0.0
C17 C 0.04341 0.0945 0.3383 0.0
C18 C 0.00446 0.10292 0.31635 0.0
C19 C 0.02385 0.08362 0.32503 0.0
C20 C 0.06314 0.07336 0.34768 0.0
C21 C 0.00713 0.11567 0.38951 0.0
C22 C 0.02346 0.13377 0.40159 0.0
C23 C 0.02178 0.09679 0.37777 0.0
C24 C 0.05305 0.09574 0.37781 0.0
C25 C 0.05482 0.13256 0.40159 0.0
C26 C 0.06945 0.11353 0.38989 0.0
C27 C 0.06865 0.0749 0.36594 0.0
H28 H 0.1213 0.93525 0.37971 0.0
H29 H 0.0955 0.97159 0.36162 0.0
H30 H 0.16948 0.00668 0.40675 0.0
H31 H 0.14363 0.043 0.38854 0.0
H32 H 0.1765 0.98013 0.32354 0.0
H33 H 0.15404 0.01854 0.34227 0.0
H34 H 0.08897 0.95399 0.30399 0.0
H35 H 0.06655 0.99266 0.3227 0.0
H36 H 0.02457 0.16811 0.33724 0.0
H37 H 0.05984 0.13464 0.35176 0.0
H38 H 0.98912 0.09386 0.30643 0.0
H39 H 0.02312 0.06005 0.32161 0.0
H40 H 0.98299 0.11547 0.38939 0.0
H41 H 0.00868 0.08265 0.36885 0.0
H42 H 0.0681 0.14638 0.41058 0.0
H43 H 0.0936 0.11284 0.3902 0.0
N44 N 0.0873 0.05459 0.37323 0.0
N45 N 0.07634 0.0512 0.33823 0.0
C46 C 0.90669 0.5204 0.62857 0.0
C47 C 0.9164 0.50844 0.64451 0.0
C48 C 0.92645 0.5365 0.61847 0.0
C49 C 0.95649 0.54005 0.62391 0.0
C50 C 0.9462 0.51244 0.65005 0.0
C51 C 0.966 0.52795 0.63986 0.0
C52 C 0.97828 0.55717 0.61378 0.0
C53 C 0.95038 0.4831 0.57577 0.0
C54 C 0.9298 0.4935 0.56323 0.0
C55 C 0.9666 0.50318 0.58644 0.0
C56 C 0.96273 0.53394 0.58456 0.0
C57 C 0.92574 0.52431 0.56142 0.0
C58 C 0.94252 0.54447 0.57187 0.0
C59 C 0.98076 0.55488 0.59545 0.0
C60 C 0.10373 0.6028 0.58533 0.0
C61 C 0.09952 0.62058 0.57063 0.0
C62 C 0.07926 0.59084 0.59366 0.0
C63 C 0.05008 0.59715 0.58774 0.0
C64 C 0.07038 0.62554 0.56415 0.0
C65 C 0.04586 0.61387 0.57263 0.0
C66 C 0.02402 0.5859 0.59706 0.0
C67 C 0.07536 0.64799 0.6335 0.0
C68 C 0.08443 0.63543 0.64945 0.0
C69 C 0.05403 0.6337 0.62259 0.0
C70 C 0.04221 0.60595 0.62707 0.0
C71 C 0.07107 0.60857 0.65432 0.0
C72 C 0.05046 0.59396 0.64323 0.0
C73 C 0.021 0.5891 0.61536 0.0
H74 H 0.88368 0.5179 0.62414 0.0
H75 H 0.91801 0.54657 0.60665 0.0
H76 H 0.95431 0.50323 0.66223 0.0
H77 H 0.98894 0.53035 0.64446 0.0
H78 H 0.95368 0.45939 0.57742 0.0
H79 H 0.98235 0.49474 0.59607 0.0
H80 H 0.90997 0.53269 0.55179 0.0
H81 H 0.9395 0.56821 0.57021 0.0
H82 H 0.12597 0.59817 0.59041 0.0
H83 H 0.08312 0.57704 0.6049 0.0
H84 H 0.06649 0.63923 0.55286 0.0
H85 H 0.02357 0.61857 0.56767 0.0
H86 H 0.08501 0.6686 0.62922 0.0
H87 H 0.04715 0.64421 0.61057 0.0
H88 H 0.07645 0.59866 0.66675 0.0
H89 H 0.04128 0.57291 0.64723 0.0
N90 N -0.00159 0.57439 0.62291 0.0
N91 N 0.00349 0.56928 0.58779 0.0
C92 C 0.54624 0.37215 0.87291 0.0
C93 C 0.56549 0.38303 0.88638 0.0
C94 C 0.52833 0.39183 0.86334 0.0
C95 C 0.5292 0.42259 0.86728 0.0
C96 C 0.5665 0.41385 0.89008 0.0
C97 C 0.54836 0.43336 0.88073 0.0
C98 C 0.50918 0.44377 0.8583 0.0
C99 C 0.57677 0.41838 0.81785 0.0
C100 C 0.56448 0.40021 0.80431 0.0
C101 C 0.55832 0.43288 0.82974 0.0
C102 C 0.52726 0.42967 0.82819 0.0
C103 C 0.53339 0.39665 0.80291 0.0
C104 C 0.51487 0.41165 0.81465 0.0
C105 C 0.50784 0.44677 0.84 0.0
C106 C 0.45022 0.56708 0.83501 0.0
C107 C 0.43037 0.56316 0.8207 0.0
C108 C 0.46531 0.54272 0.84193 0.0
C109 C 0.46014 0.51381 0.83501 0.0
C110 C 0.42648 0.53451 0.81312 0.0
C111 C 0.44128 0.50998 0.82024 0.0
C112 C 0.47448 0.48777 0.84325 0.0
C113 C 0.41104 0.52849 0.88071 0.0
C114 C 0.42498 0.54144 0.89568 0.0
C115 C 0.42674 0.50888 0.86987 0.0
C116 C 0.45685 0.50241 0.8736 0.0
C117 C 0.45469 0.53385 0.8998 0.0
C118 C 0.47045 0.51447 0.88888 0.0
C119 C 0.47456 0.48368 0.8615 0.0
H120 H 0.54506 0.34848 0.86982 0.0
H121 H 0.51336 0.38301 0.85317 0.0
H122 H 0.5808 0.42282 0.90054 0.0
H123 H 0.54923 0.45698 0.88405 0.0
H124 H 0.6007 0.42126 0.81927 0.0
H125 H 0.56826 0.44707 0.83995 0.0
H126 H 0.52346 0.3828 0.79254 0.0
H127 H 0.4909 0.4092 0.81318 0.0
H128 H 0.45409 0.58903 0.84085 0.0
H129 H 0.48069 0.54643 0.85289 0.0
H130 H 0.41133 0.53095 0.80203 0.0
H131 H 0.43736 0.48795 0.81453 0.0
H132 H 0.38799 0.53348 0.87739 0.0
H133 H 0.41546 0.49913 0.85844 0.0
H134 H 0.46606 0.5436 0.9112 0.0
H135 H 0.49359 0.50965 0.89208 0.0
N136 N 0.49233 0.4622 0.86834 0.0
N137 N 0.49069 0.4688 0.83313 0.0
C138 C 0.48667 0.90669 0.08383 0.0
C139 C 0.47107 0.9177 0.06918 0.0
C140 C 0.50776 0.92428 0.0929 0.0
C141 C 0.51306 0.9537 0.08795 0.0
C142 C 0.47671 0.94705 0.06408 0.0
C143 C 0.49754 0.96485 0.07337 0.0
C144 C 0.53619 0.97213 0.09714 0.0
C145 C 0.46782 0.95276 0.13729 0.0
C146 C 0.47837 0.93407 0.15056 0.0
C147 C 0.48768 0.96574 0.12589 0.0
C148 C 0.51845 0.96022 0.12756 0.0
C149 C 0.50922 0.92905 0.15237 0.0
C150 C 0.52907 0.9422 0.14107 0.0
C151 C 0.53978 0.9736 0.11554 0.0
C152 C 0.63406 0.06652 0.12835 0.0
C153 C 0.65021 0.05328 0.14209 0.0
C154 C 0.6129 0.05007 0.11851 0.0
C155 C 0.60778 0.01995 0.12206 0.0
C156 C 0.64531 0.02301 0.14545 0.0
C157 C 0.6242 0.00657 0.13558 0.0
C158 C 0.58369 0.00294 0.11282 0.0
C159 C 0.65102 0.02461 0.07278 0.0
C160 C 0.64052 0.0461 0.06101 0.0
C161 C 0.63129 0.00991 0.0835 0.0
C162 C 0.60067 0.01627 0.08261 0.0
C163 C 0.60962 0.05156 0.05978 0.0
C164 C 0.5899 0.03658 0.07036 0.0
C165 C 0.57976 0.00201 0.09446 0.0
H166 H 0.4827 0.88436 0.08832 0.0
H167 H 0.52021 0.91462 0.10365 0.0
H168 H 0.46553 0.95611 0.05269 0.0
H169 H 0.50164 0.98731 0.0691 0.0
H170 H 0.44417 0.95699 0.13555 0.0
H171 H 0.47902 0.98008 0.11579 0.0
H172 H 0.51806 0.91514 0.16264 0.0
H173 H 0.55274 0.93791 0.14271 0.0
H174 H 0.63689 0.08994 0.12566 0.0
H175 H 0.59985 0.0612 0.10852 0.0
H176 H 0.65758 0.0121 0.15584 0.0
H177 H 0.62047 0.98341 0.13861 0.0
H178 H 0.67453 0.0193 0.07384 0.0
H179 H 0.63997 0.99374 0.09259 0.0
H180 H 0.60066 0.0682 0.0511 0.0
H181 H 0.56631 0.04165 0.06941 0.0
N182 N 0.55614 0.98669 0.08732 0.0
N183 N 0.56357 0.98868 0.12263 0.0
C184 C 0.05231 0.63863 0.89293 0.0
C185 C 0.0699 0.62645 0.87959 0.0
C186 C 0.03321 0.62037 0.90217 0.0
C187 C 0.03185 0.58951 0.89847 0.0
C188 C 0.06863 0.59561 0.87603 0.0
C189 C 0.04983 0.57739 0.88534 0.0
C190 C 0.0106 0.56968 0.90718 0.0
C191 C 0.07215 0.60112 0.95106 0.0
C192 C 0.05903 0.62413 0.96098 0.0
C193 C 0.05486 0.58371 0.9394 0.0
C194 C 0.02415 0.58883 0.93762 0.0
C195 C 0.02823 0.62922 0.95923 0.0
C196 C 0.01077 0.6113 0.9478 0.0
C197 C 0.00615 0.57011 0.92538 0.0
C198 C 0.94873 0.45249 0.93574 0.0
C199 C 0.9243 0.45934 0.94622 0.0
C200 C 0.96456 0.4752 0.92794 0.0
C201 C 0.95632 0.50515 0.93055 0.0
C202 C 0.9164 0.48939 0.94907 0.0
C203 C 0.93254 0.51215 0.94145 0.0
C204 C 0.97272 0.52901 0.92194 0.0
C205 C 0.91588 0.48266 0.88069 0.0
C206 C 0.93181 0.469 0.8671 0.0
C207 C 0.9302 0.50226 0.8926 0.0
C208 C 0.96086 0.50807 0.89137 0.0
C209 C 0.96235 0.4752 0.86573 0.0
C210 C 0.97671 0.49458 0.87773 0.0
C211 C 0.97639 0.52912 0.90369 0.0
H212 H 0.05257 0.6624 0.8958 0.0
H213 H 0.01891 0.63056 0.9118 0.0
H214 H 0.08218 0.58552 0.86597 0.0
H215 H 0.04922 0.55371 0.88218 0.0
H216 H 0.09594 0.59704 0.95206 0.0
H217 H 0.06544 0.56625 0.93175 0.0
H218 H 0.01775 0.64692 0.96674 0.0
H219 H 0.987 0.61532 0.94661 0.0
H220 H 0.95519 0.42953 0.93327 0.0
H221 H 0.98317 0.46939 0.91977 0.0
H222 H 0.89782 0.49524 0.95724 0.0
H223 H 0.92606 0.53516 0.94373 0.0
H224 H 0.89219 0.47871 0.88186 0.0
H225 H 0.91718 0.51321 0.9026 0.0
H226 H 0.97522 0.46483 0.85545 0.0
H227 H 0.00032 0.49886 0.87643 0.0
N228 N 0.9954 0.54925 0.89707 0.0
N229 N 0.98748 0.54971 0.93212 0.0
C230 C 0.41241 0.52202 0.12795 0.0
C231 C 0.42422 0.54097 0.1155 0.0
C232 C 0.43143 0.50552 0.13877 0.0
C233 C 0.4625 0.50763 0.13722 0.0
C234 C 0.45529 0.54257 0.11379 0.0
C235 C 0.47423 0.52587 0.12446 0.0
C236 C 0.48311 0.491 0.14877 0.0
C237 C 0.44252 0.56308 0.18097 0.0
C238 C 0.42178 0.55259 0.19285 0.0
C239 C 0.46218 0.54349 0.17283 0.0
C240 C 0.46146 0.51295 0.1763 0.0
C241 C 0.42163 0.52204 0.19667 0.0
C242 C 0.44146 0.50238 0.1885 0.0
C243 C 0.48181 0.49237 0.16714 0.0
C244 C 0.59954 0.43962 0.18884 0.0
C245 C 0.59132 0.42146 0.20266 0.0
C246 C 0.57786 0.45265 0.17811 0.0
C247 C 0.54745 0.44736 0.18072 0.0
C248 C 0.5608 0.41716 0.20566 0.0
C249 C 0.53909 0.43011 0.19483 0.0
C250 C 0.52438 0.46066 0.16918 0.0
C251 C 0.57572 0.39698 0.13421 0.0
C252 C 0.58876 0.41054 0.11989 0.0
C253 C 0.55549 0.41279 0.14454 0.0
C254 C 0.54844 0.44256 0.14088 0.0
C255 C 0.58183 0.44037 0.11639 0.0
C256 C 0.56185 0.45616 0.12675 0.0
C257 C 0.52564 0.45934 0.15072 0.0
H258 H 0.38853 0.5204 0.12952 0.0
H259 H 0.4219 0.49116 0.14834 0.0
H260 H 0.46497 0.55665 0.10412 0.0
H261 H 0.49812 0.52766 0.12297 0.0
H262 H 0.44389 0.58656 0.1781 0.0
H263 H 0.47802 0.55223 0.1638 0.0
H264 H 0.40592 0.51326 0.20575 0.0
H265 H 0.44079 0.47888 0.19144 0.0
H266 H 0.62278 0.44326 0.18603 0.0
H267 H 0.5849 0.46672 0.16768 0.0
H268 H 0.55366 0.40375 0.21636 0.0
H269 H 0.51574 0.42624 0.1973 0.0
H270 H 0.58041 0.3739 0.13707 0.0
H271 H 0.54485 0.40151 0.15507 0.0
H272 H 0.59181 0.45151 0.10559 0.0
H273 H 0.55674 0.47907 0.12364 0.0
N274 N 0.50501 0.47469 0.14129 0.0
N275 N 0.50234 0.47702 0.1767 0.0
C276 C 0.4983 0.90467 0.39047 0.0
C277 C 0.48066 0.9159 0.37666 0.0
C278 C 0.51845 0.92318 0.39982 0.0
C279 C 0.5207 0.95359 0.39596 0.0
C280 C 0.4835 0.94622 0.37265 0.0
C281 C 0.50308 0.96479 0.38223 0.0
C282 C 0.54264 0.97368 0.40509 0.0
C283 C 0.48429 0.94202 0.4476 0.0
C284 C 0.49852 0.92064 0.45802 0.0
C285 C 0.50072 0.95924 0.43634 0.0
C286 C 0.53169 0.95555 0.43538 0.0
C287 C 0.5296 0.91719 0.4572 0.0
C288 C 0.54614 0.93485 0.44613 0.0
C289 C 0.54888 0.97356 0.42328 0.0
C290 C 0.61528 0.08733 0.436 0.0
C291 C 0.64046 0.07849 0.44583 0.0
C292 C 0.59683 0.066 0.42772 0.0
C293 C 0.60321 0.03551 0.42918 0.0
C294 C 0.6466 0.04792 0.44745 0.0
C295 C 0.62789 0.02657 0.43933 0.0
C296 C 0.58383 0.01304 0.42031 0.0
C297 C 0.63623 0.0565 0.37836 0.0
C298 C 0.61853 0.07248 0.36638 0.0
C299 C 0.62306 0.03742 0.39013 0.0
C300 C 0.59193 0.03408 0.39022 0.0
C301 C 0.58736 0.06905 0.36656 0.0
C302 C 0.57425 0.0499 0.37827 0.0
C303 C 0.57758 0.01327 0.40217 0.0
H304 H 0.49674 0.88154 0.39406 0.0
H305 H 0.53261 0.91346 0.4098 0.0
H306 H 0.47112 0.95567 0.36181 0.0
H307 H 0.50463 0.988 0.37875 0.0
H308 H 0.46033 0.94493 0.44786 0.0
H309 H 0.48924 0.97538 0.4283 0.0
H310 H 0.54106 0.90094 0.46516 0.0
H311 H 0.57008 0.93191 0.44564 0.0
H312 H 0.61013 0.11074 0.4345 0.0
H313 H 0.57756 0.0733 0.42016 0.0
H314 H 0.66571 0.04056 0.45512 0.0
H315 H 0.63296 0.00312 0.44071 0.0
H316 H 0.66031 0.05815 0.37838 0.0
H317 H 0.63725 0.02485 0.39891 0.0
H318 H 0.573 0.08129 0.35771 0.0
H319 H 0.55018 0.04762 0.37808 0.0
N320 N 0.5572 0.99365 0.39531 0.0
N321 N 0.56938 0.99312 0.4302 0.0
C322 C 0.17419 0.99658 0.64565 0.0
C323 C 0.16237 0.97654 0.63286 0.0
C324 C 0.15523 0.01483 0.65548 0.0
C325 C 0.1242 0.01344 0.65257 0.0
C326 C 0.13128 0.97483 0.63029 0.0
C327 C 0.11244 0.99322 0.63996 0.0
C328 C 0.10384 0.03461 0.66136 0.0
C329 C 0.13397 0.97397 0.70416 0.0
C330 C 0.15263 0.98785 0.71693 0.0
C331 C 0.1188 0.99087 0.69175 0.0
C332 C 0.12189 0.02199 0.69192 0.0
C333 C 0.15603 0.019 0.71698 0.0
C334 C 0.14041 0.036 0.70469 0.0
C335 C 0.10391 0.03987 0.67965 0.0
C336 C 0.98719 0.09988 0.6886 0.0
C337 C 0.9933 0.12734 0.69714 0.0
C338 C 0.01034 0.08232 0.68225 0.0
C339 C 0.04004 0.09183 0.68435 0.0
C340 C 0.02316 0.13653 0.69959 0.0
C341 C 0.04642 0.11873 0.69335 0.0
C342 C 0.06391 0.07425 0.67615 0.0
C343 C 0.02258 0.1305 0.63468 0.0
C344 C 0.00213 0.11401 0.62415 0.0
C345 C 0.04294 0.11593 0.64559 0.0
C346 C 0.04336 0.08467 0.64598 0.0
C347 C 0.00269 0.08271 0.62449 0.0
C348 C 0.02342 0.06813 0.6352 0.0
C349 C 0.06414 0.06927 0.65794 0.0
H350 H 0.19806 -0.00167 0.64792 0.0
H351 H 0.16485 0.03067 0.66492 0.0
H352 H 0.1215 0.95997 0.62036 0.0
H353 H 0.0886 0.99194 0.6374 0.0
H354 H 0.13119 0.94996 0.70375 0.0
H355 H 0.10415 0.97966 0.68224 0.0
H356 H 0.17026 0.03017 0.72672 0.0
H357 H 0.14276 0.06005 0.70514 0.0
H358 H 0.96443 0.09234 0.68638 0.0
H359 H 0.00505 0.06152 0.67536 0.0
H360 H 0.02848 0.15749 0.70627 0.0
H361 H 0.06924 0.12637 0.69506 0.0
H362 H 0.02249 0.15465 0.63466 0.0
H363 H 0.05833 0.12904 0.65376 0.0
H364 H 0.98728 0.06956 0.61637 0.0
H365 H 0.02348 0.04398 0.63535 0.0
N366 N 0.08389 0.04953 0.6512 0.0
N367 N 0.08386 0.0595 0.68641 0.0
Zn368 Zn 0.29176 0.75042 0.97981 0.0
Zn369 Zn 0.30341 0.71285 0.00714 0.0
O370 O 0.25813 0.71378 0.00627 0.0
O371 O 0.24772 0.74457 0.98497 0.0
O372 O 0.3147 0.68762 0.02753 0.0
O373 O 0.31604 0.78325 0.99252 0.0
O374 O 0.32475 0.75152 0.01351 0.0
C375 C 0.23912 0.72738 0.99676 0.0
C376 C 0.32303 0.69536 0.97043 0.0
O377 O 0.3209 0.69033 0.98662 0.0
O378 O 0.31264 0.7193 0.96419 0.0
C379 C 0.30812 0.6602 0.02868 0.0
O380 O 0.29176 0.64715 0.01625 0.0
C381 C 0.32831 0.7771 0.00707 0.0
Zn382 Zn 0.30157 0.75618 0.28334 0.0
Zn383 Zn 0.32444 0.78974 0.25719 0.0
O384 O 0.28292 0.80742 0.25899 0.0
O385 O 0.26353 0.78081 0.27973 0.0
O386 O 0.34445 0.81155 0.23797 0.0
O387 O 0.30942 0.71823 0.26923 0.0
O388 O 0.32724 0.74628 0.24871 0.0
C389 C 0.26134 0.8017 0.26888 0.0
C390 C 0.35151 0.7931 0.29445 0.0
O391 O 0.34975 0.80135 0.27867 0.0
O392 O 0.33424 0.77308 0.2998 0.0
C393 C 0.34337 0.83963 0.23619 0.0
O394 O 0.32754 0.85594 0.24701 0.0
C395 C 0.32101 0.72063 0.25441 0.0
Zn396 Zn 0.28162 0.7738 0.48631 0.0
Zn397 Zn 0.26915 0.81161 0.51364 0.0
O398 O 0.31413 0.81675 0.51163 0.0
O399 O 0.3255 0.78451 0.49067 0.0
O400 O 0.25772 0.83622 0.53476 0.0
O401 O 0.26148 0.73939 0.49827 0.0
O402 O 0.2534 0.77072 0.52017 0.0
C403 C 0.33341 0.8045 0.50185 0.0
C404 C 0.24409 0.82438 0.47714 0.0
O405 O 0.2467 0.83094 0.49338 0.0
O406 O 0.2566 0.80122 0.47093 0.0
C407 C 0.26688 0.86229 0.53895 0.0
O408 O 0.28602 0.87557 0.529 0.0
C409 C 0.25111 0.74471 0.51325 0.0
Zn410 Zn 0.2787 0.76718 0.7488 0.0
Zn411 Zn 0.23865 0.75105 0.77297 0.0
O412 O 0.23615 0.79674 0.77343 0.0
O413 O 0.27208 0.81031 0.7562 0.0
O414 O 0.2084 0.73753 0.79012 0.0
O415 O 0.3093 0.74086 0.76092 0.0
O416 O 0.27736 0.73151 0.78147 0.0
C417 C 0.25107 0.81716 0.76631 0.0
C418 C 0.22856 0.73445 0.73418 0.0
O419 O 0.22209 0.73255 0.75019 0.0
O420 O 0.25116 0.7492 0.72978 0.0
C421 C 0.21043 0.74131 0.80661 0.0
O422 O 0.23336 0.75595 0.81354 0.0
C423 C 0.30311 0.72833 0.77503 0.0
Zn424 Zn 0.80568 0.2552 0.53584 0.0
Zn425 Zn 0.84571 0.24643 0.50947 0.0
O426 O 0.84526 0.29157 0.51245 0.0
O427 O 0.8133 0.2998 0.53342 0.0
O428 O 0.87372 0.23813 0.48983 0.0
O429 O 0.77401 0.23376 0.52079 0.0
O430 O 0.80742 0.22624 0.50057 0.0
C431 C 0.83157 0.30958 0.52254 0.0
C432 C 0.85844 0.22142 0.54576 0.0
O433 O 0.86555 0.22617 0.5301 0.0
O434 O 0.83376 0.23081 0.55147 0.0
C435 C 0.90185 0.23766 0.49222 0.0
O436 O 0.91324 0.24412 0.50783 0.0
C437 C 0.78113 0.22281 0.50606 0.0
Zn438 Zn 0.79195 0.28068 0.76764 0.0
Zn439 Zn 0.80362 0.32162 0.74297 0.0
O440 O 0.75801 0.3223 0.74467 0.0
O441 O 0.74776 0.28727 0.76327 0.0
O442 O 0.81254 0.35093 0.72419 0.0
O443 O 0.81518 0.24971 0.75394 0.0
O444 O 0.82454 0.28352 0.73445 0.0
C445 C 0.73906 0.30761 0.75314 0.0
C446 C 0.826 0.33211 0.78059 0.0
O447 O 0.82403 0.3398 0.76471 0.0
O448 O 0.81404 0.30806 0.78529 0.0
C449 C 0.81168 0.37887 0.72735 0.0
O450 O 0.8038 0.38859 0.74288 0.0
C451 C 0.82766 0.25716 0.74005 0.0
Zn452 Zn 0.77787 0.26866 0.02795 0.0
Zn453 Zn 0.73688 0.2767 0.0016 0.0
O454 O 0.73602 0.23139 0.00438 0.0
O455 O 0.77045 0.22414 0.02485 0.0
O456 O 0.71052 0.28529 0.98068 0.0
O457 O 0.80989 0.2903 0.01475 0.0
O458 O 0.77535 0.29676 0.99436 0.0
C459 C 0.75054 0.21386 0.0143 0.0
C460 C 0.72491 0.30246 0.03786 0.0
O461 O 0.71705 0.29825 0.0219 0.0
O462 O 0.74965 0.29242 0.04357 0.0
C463 C 0.68382 0.27688 0.97755 0.0
O464 O 0.6705 0.25986 0.98871 0.0
C465 C 0.80184 0.30096 0.00022 0.0
Zn466 Zn 0.79541 0.24769 0.23247 0.0
Zn467 Zn 0.76349 0.22471 0.25898 0.0
O468 O 0.74351 0.26514 0.25526 0.0
O469 O 0.77101 0.28564 0.23532 0.0
O470 O 0.74093 0.20639 0.27851 0.0
O471 O 0.8334 0.24091 0.24671 0.0
O472 O 0.80668 0.22472 0.2683 0.0
C473 C 0.7492 0.28697 0.24553 0.0
C474 C 0.76247 0.19437 0.22255 0.0
O475 O 0.75546 0.19559 0.23856 0.0
O476 O 0.7791 0.21426 0.21645 0.0
C477 C 0.7147 0.19631 0.27573 0.0
O478 O 0.70211 0.19909 0.26018 0.0
C479 C 0.8319 0.23094 0.262 0.0
H480 H 0.18166 0.96835 0.29071 0.0
H481 H 0.20903 0.79486 0.28616 0.0
H482 H 0.11839 0.90535 0.30988 0.0
H483 H 0.25596 0.85658 0.25425 0.0
H484 H 0.17302 0.83402 0.29304 0.0
H485 H 0.20731 0.92743 0.27569 0.0
C486 C 0.17306 0.94588 0.29161 0.0
C487 C 0.1481 0.94011 0.30165 0.0
C488 C 0.19087 0.83882 0.28427 0.0
C489 C 0.17735 0.89317 0.28464 0.0
C490 C 0.21143 0.81645 0.28031 0.0
C491 C 0.23584 0.82256 0.26984 0.0
C492 C 0.19504 0.86762 0.27793 0.0
C493 C 0.23767 0.8509 0.26252 0.0
C494 C 0.18756 0.92256 0.28296 0.0
C495 C 0.13758 0.91069 0.30224 0.0
N496 N 0.2179 0.87254 0.26698 0.0
N497 N 0.15255 0.88821 0.29408 0.0
H498 H 0.14549 0.65067 0.5871 0.0
H499 H 0.22545 0.69394 0.49897 0.0
H500 H 0.11211 0.62349 0.53585 0.0
H501 H 0.23677 0.74354 0.54769 0.0
H502 H 0.19125 0.6601 0.51322 0.0
H503 H 0.18635 0.6771 0.57357 0.0
C504 C 0.14699 0.64997 0.573 0.0
C505 C 0.12534 0.635 0.56255 0.0
C506 C 0.20149 0.67824 0.5208 0.0
C507 C 0.17193 0.66519 0.54702 0.0
C508 C 0.22114 0.69743 0.51272 0.0
C509 C 0.23379 0.72174 0.52213 0.0
C510 C 0.19479 0.68319 0.53844 0.0
C511 C 0.22732 0.72525 0.5399 0.0
C512 C 0.17019 0.66518 0.5653 0.0
C513 C 0.12817 0.63506 0.54434 0.0
N514 N 0.2082 0.70626 0.54747 0.0
N515 N 0.15104 0.64997 0.53714 0.0
H516 H 0.42316 0.58051 0.78684 0.0
H517 H 0.30236 0.70501 0.80777 0.0
H518 H 0.39869 0.60409 0.8395 0.0
H519 H 0.35247 0.70348 0.76033 0.0
H520 H 0.33503 0.66608 0.81934 0.0
H521 H 0.39428 0.62314 0.77625 0.0
C522 C 0.41166 0.59467 0.79614 0.0
C523 C 0.41327 0.58889 0.81404 0.0
C524 C 0.33903 0.67452 0.80647 0.0
C525 C 0.38024 0.63743 0.8021 0.0
C526 C 0.32041 0.69671 0.79986 0.0
C527 C 0.32466 0.70747 0.78305 0.0
C528 C 0.36169 0.66264 0.79607 0.0
C529 C 0.34841 0.69591 0.77338 0.0
C530 C 0.39539 0.61906 0.79013 0.0
C531 C 0.39816 0.60799 0.8256 0.0
N532 N 0.36582 0.67386 0.77995 0.0
N533 N 0.38207 0.6313 0.81941 0.0
H534 H 0.41779 0.9332 0.05301 0.0
H535 H 0.36895 0.76578 0.03298 0.0
H536 H 0.47542 0.85768 0.06218 0.0
H537 H 0.33336 0.83754 0.00218 0.0
H538 H 0.40336 0.80077 0.04756 0.0
H539 H 0.38247 0.89989 0.03728 0.0
C540 C 0.42317 0.90975 0.05166 0.0
C541 C 0.44958 0.89825 0.05914 0.0
C542 C 0.38803 0.80887 0.03761 0.0
C543 C 0.40897 0.86015 0.04154 0.0
C544 C 0.36823 0.78896 0.02934 0.0
C545 C 0.34827 0.79876 0.0163 0.0
C546 C 0.38768 0.83894 0.03303 0.0
C547 C 0.34849 0.82907 0.01211 0.0
C548 C 0.40293 0.89079 0.04274 0.0
C549 C 0.45507 0.86754 0.0571 0.0
N550 N 0.36786 0.84822 0.02053 0.0
N551 N 0.43486 0.84958 0.04864 0.0
H552 H 0.09754 0.60718 0.98687 0.0
H553 H 0.19167 0.75308 0.97959 0.0
H554 H 0.06448 0.68466 0.96043 0.0
H555 H 0.21366 0.68378 0.01589 0.0
H556 H 0.14144 0.7325 0.97614 0.0
H557 H 0.13624 0.63792 0.00132 0.0
C558 C 0.09817 0.63086 0.98442 0.0
C559 C 0.07819 0.64345 0.97235 0.0
C560 C 0.15705 0.72216 0.98515 0.0
C561 C 0.12264 0.67865 0.98845 0.0
C562 C 0.18578 0.7339 0.98712 0.0
C563 C 0.20715 0.71969 0.99771 0.0
C564 C 0.14983 0.69579 0.99363 0.0
C565 C 0.19809 0.69518 0.00734 0.0
C566 C 0.12018 0.64844 0.99266 0.0
C567 C 0.07963 0.6742 0.96964 0.0
N568 N 0.17031 0.68363 0.00478 0.0
N569 N 0.10196 0.6907 0.97735 0.0
H570 H 0.4041 0.55429 0.227 0.0
H571 H 0.33579 0.71679 0.22005 0.0
H572 H 0.39206 0.59946 0.17818 0.0
H573 H 0.32596 0.66319 0.26563 0.0
H574 H 0.35517 0.67332 0.20432 0.0
H575 H 0.37398 0.59276 0.24128 0.0
C576 C 0.39479 0.57202 0.21922 0.0
C577 C 0.40102 0.57387 0.2014 0.0
C578 C 0.34846 0.67094 0.2177 0.0
C579 C 0.36696 0.61819 0.21773 0.0
C580 C 0.33745 0.69578 0.2267 0.0
C581 C 0.32947 0.69368 0.24422 0.0
C582 C 0.35198 0.64385 0.22634 0.0
C583 C 0.3319 0.66583 0.25214 0.0
C584 C 0.37769 0.59405 0.22741 0.0
C585 C 0.38851 0.59753 0.19203 0.0
N586 N 0.34333 0.64207 0.24321 0.0
N587 N 0.37239 0.6189 0.20034 0.0
H588 H 0.49989 0.85984 0.45995 0.0
H589 H 0.35471 0.85539 0.51828 0.0
H590 H 0.45598 0.93772 0.4811 0.0
H591 H 0.38142 0.78296 0.48394 0.0
H592 H 0.40055 0.88183 0.51172 0.0
H593 H 0.46499 0.82819 0.47535 0.0
C594 C 0.48327 0.87023 0.46812 0.0
C595 C 0.48051 0.90137 0.46913 0.0
C596 C 0.39659 0.85992 0.50587 0.0
C597 C 0.44072 0.86549 0.48671 0.0
C598 C 0.3705 0.84468 0.50969 0.0
C599 C 0.3639 0.81713 0.50138 0.0
C600 C 0.41629 0.84746 0.49375 0.0
C601 C 0.38536 0.80436 0.49043 0.0
C602 C 0.46333 0.85221 0.47682 0.0
C603 C 0.45853 0.91377 0.4798 0.0
N604 N 0.41042 0.81981 0.48675 0.0
N605 N 0.43934 0.8958 0.48809 0.0
H606 H 0.21211 0.98848 0.72585 0.0
H607 H 0.19827 0.83839 0.77891 0.0
H608 H 0.12921 0.94539 0.73745 0.0
H609 H 0.27899 0.86702 0.75467 0.0
H610 H 0.17545 0.88632 0.77216 0.0
H611 H 0.23878 0.95254 0.7442 0.0
C612 C 0.19952 0.97182 0.73256 0.0
C613 C 0.16854 0.96948 0.72995 0.0
C614 C 0.19837 0.88232 0.76865 0.0
C615 C 0.19869 0.92856 0.75088 0.0
C616 C 0.21152 0.85502 0.7726 0.0
C617 C 0.24036 0.84838 0.76695 0.0
C618 C 0.21421 0.9031 0.75904 0.0
C619 C 0.25647 0.87095 0.75895 0.0
C620 C 0.21471 0.95131 0.74296 0.0
C621 C 0.1532 0.94753 0.73889 0.0
N622 N 0.243 0.89712 0.75495 0.0
N623 N 0.16846 0.92774 0.74883 0.0
H624 H 0.56613 0.34096 0.79497 0.0
H625 H 0.71546 0.36002 0.74148 0.0
H626 H 0.60809 0.4253 0.78535 0.0
H627 H 0.69133 0.27867 0.76666 0.0
H628 H 0.66742 0.38144 0.7494 0.0
H629 H 0.60371 0.31583 0.77702 0.0
C630 C 0.58294 0.35418 0.7888 0.0
C631 C 0.58439 0.38512 0.79178 0.0
C632 C 0.67245 0.3587 0.75288 0.0
C633 C 0.62703 0.35676 0.77127 0.0
C634 C 0.69978 0.34635 0.74826 0.0
C635 C 0.70769 0.3177 0.75373 0.0
C636 C 0.65284 0.34222 0.76292 0.0
C637 C 0.68636 0.30103 0.76244 0.0
C638 C 0.60436 0.33988 0.77863 0.0
C639 C 0.60657 0.40132 0.78356 0.0
N640 N 0.66006 0.31368 0.76699 0.0
N641 N 0.62714 0.38693 0.77376 0.0
H642 H 0.69599 0.06661 0.07146 0.0
H643 H 0.7035 0.18533 0.99734 0.0
H644 H 0.63352 0.06734 0.02762 0.0
H645 H 0.77453 0.17109 0.03531 0.0
H646 H 0.68068 0.13845 0.00568 0.0
H647 H 0.72784 0.10079 0.05633 0.0
C648 C 0.68914 0.07344 0.05851 0.0
C649 C 0.66171 0.0642 0.05095 0.0
C650 C 0.70157 0.1453 0.01195 0.0
C651 C 0.698 0.10428 0.03366 0.0
C652 C 0.7147 0.17205 0.00714 0.0
C653 C 0.74067 0.18253 0.01589 0.0
C654 C 0.71437 0.1291 0.0257 0.0
C655 C 0.75424 0.1642 0.0284 0.0
C656 C 0.70736 0.0932 0.04989 0.0
C657 C 0.65404 0.07441 0.03421 0.0
N658 N 0.74064 0.1387 0.03315 0.0
N659 N 0.67186 0.09422 0.02624 0.0
H660 H 0.99417 0.14087 0.28598 0.0
H661 H 0.83859 0.21934 0.29686 0.0
H662 H 0.96406 0.17045 0.33654 0.0
H663 H 0.88814 0.22501 0.24943 0.0
H664 H 0.8834 0.20053 0.31182 0.0
H665 H 0.95452 0.17029 0.27215 0.0
C666 C 0.9793 0.15381 0.29412 0.0
C667 C 0.98219 0.15328 0.31237 0.0
C668 C 0.88452 0.20633 0.29821 0.0
C669 C 0.93671 0.18652 0.29675 0.0
C670 C 0.85897 0.21699 0.28965 0.0
C671 C 0.85958 0.22354 0.27184 0.0
C672 C 0.91062 0.20163 0.28877 0.0
C673 C 0.88663 0.22019 0.26316 0.0
C674 C 0.95682 0.17067 0.28626 0.0
C675 C 0.96253 0.17045 0.3224 0.0
N676 N 0.91095 0.20901 0.27164 0.0
N677 N 0.94027 0.18608 0.31446 0.0
H678 H 0.95154 0.45111 0.54113 0.0
H679 H 0.80527 0.35554 0.54078 0.0
H680 H 0.86938 0.48646 0.56096 0.0
H681 H 0.87778 0.3362 0.50622 0.0
H682 H 0.82607 0.40531 0.54646 0.0
H683 H 0.92361 0.41051 0.52645 0.0
C684 C 0.92749 0.45045 0.54212 0.0
C685 C 0.91263 0.47183 0.55228 0.0
C686 C 0.83708 0.39037 0.53736 0.0
C687 C 0.88059 0.42534 0.5359 0.0
C688 C 0.82524 0.36193 0.53413 0.0
C689 C 0.84011 0.34145 0.52327 0.0
C690 C 0.8642 0.39817 0.5299 0.0
C691 C 0.86574 0.35108 0.51486 0.0
C692 C 0.91153 0.4274 0.53373 0.0
C693 C 0.88151 0.47025 0.5532 0.0
N694 N 0.87729 0.37854 0.51863 0.0
N695 N 0.8665 0.44701 0.54537 0.0
H696 H 0.62494 0.12739 0.4656 0.0
H697 H 0.79209 0.18725 0.47746 0.0
H698 H 0.7012 0.0811 0.44501 0.0
H699 H 0.72127 0.21548 0.51129 0.0
H700 H 0.75735 0.15331 0.46208 0.0
H701 H 0.65853 0.16469 0.47934 0.0
C702 C 0.64876 0.12519 0.46393 0.0
C703 C 0.6604 0.10114 0.45424 0.0
C704 C 0.74941 0.16702 0.47283 0.0
C705 C 0.69877 0.14362 0.46977 0.0
C706 C 0.76917 0.18654 0.48157 0.0
C707 C 0.75961 0.20414 0.49577 0.0
C708 C 0.71979 0.16527 0.47819 0.0
C709 C 0.72963 0.2022 0.50049 0.0
C710 C 0.66787 0.14636 0.47182 0.0
C711 C 0.6914 0.09915 0.45255 0.0
N712 N 0.71076 0.18306 0.49172 0.0
N713 N 0.70953 0.12019 0.4602 0.0
H714 H 0.9863 0.18737 0.6929 0.0
H715 H 0.83573 0.19774 0.74613 0.0
H716 H 0.94351 0.11085 0.71446 0.0
H717 H 0.86819 0.2693 0.715 0.0
H718 H 0.87523 0.16561 0.73496 0.0
H719 H 0.94408 0.21829 0.70181 0.0
C720 C 0.9681 0.17715 0.69962 0.0
C721 C 0.96841 0.14655 0.703 0.0
C722 C 0.87354 0.18826 0.73044 0.0
C723 C 0.91996 0.18164 0.71306 0.0
C724 C 0.85094 0.20661 0.73679 0.0
C725 C 0.8487 0.23632 0.73156 0.0
C726 C 0.89428 0.19978 0.71893 0.0
C727 C 0.86904 0.24655 0.71939 0.0
C728 C 0.9439 0.19472 0.70455 0.0
C729 C 0.94405 0.13432 0.7115 0.0
N730 N 0.89117 0.22841 0.71363 0.0
N731 N 0.92087 0.15193 0.71631 0.0
H732 H 0.86383 0.45275 0.94543 0.0
H733 H 0.86144 0.31218 0.00682 0.0
H734 H 0.94476 0.41088 0.96401 0.0
H735 H 0.78777 0.33598 0.97256 0.0
H736 H 0.89223 0.34976 0.99305 0.0
H737 H 0.83495 0.41223 0.95757 0.0
C738 C 0.87547 0.43507 0.95216 0.0
C739 C 0.90667 0.43514 0.95378 0.0
C740 C 0.8694 0.34648 0.98848 0.0
C741 C 0.87387 0.38872 0.96765 0.0
C742 C 0.85183 0.32506 0.99631 0.0
C743 C 0.82193 0.32098 0.99089 0.0
C744 C 0.85682 0.36421 0.97535 0.0
C745 C 0.81067 0.33831 0.97719 0.0
C746 C 0.85904 0.41185 0.95896 0.0
C747 C 0.92071 0.41151 0.96243 0.0
N748 N 0.82801 0.35935 0.97004 0.0
N749 N 0.90419 0.38931 0.96916 0.0
H750 H 0.64578 0.44309 0.21445 0.0
H751 H 0.7586 0.34144 0.23133 0.0
H752 H 0.58994 0.36469 0.21525 0.0
H753 H 0.69147 0.28955 0.25629 0.0
H754 H 0.72097 0.37874 0.22433 0.0
H755 H 0.68576 0.41533 0.22894 0.0
C756 C 0.64192 0.42003 0.21763 0.0
C757 C 0.61458 0.40606 0.21328 0.0
C758 C 0.71457 0.35972 0.23182 0.0
C759 C 0.66037 0.3741 0.22979 0.0
C760 C 0.73607 0.33826 0.23571 0.0
C761 C 0.72815 0.31225 0.24432 0.0
C762 C 0.68482 0.35498 0.2364 0.0
C763 C 0.69858 0.30927 0.24965 0.0
C764 C 0.6648 0.40418 0.22588 0.0
C765 C 0.61056 0.37644 0.21831 0.0
N766 N 0.67785 0.33009 0.24528 0.0
N767 N 0.63328 0.3614 0.22618 0.0
H768 H 0.16994 0.91267 0.3865 0.0
H769 H 0.21686 0.87736 0.48548 0.0
H770 H 0.15635 0.9735 0.43011 0.0
H771 H 0.2343 0.81783 0.44176 0.0
H772 H 0.19265 0.91187 0.46548 0.0
H773 H 0.19188 0.87674 0.40661 0.0
C774 C 0.1715 0.91844 0.40031 0.0
C775 C 0.16139 0.9462 0.40661 0.0
C776 C 0.20169 0.89121 0.46026 0.0
C777 C 0.18656 0.90523 0.4297 0.0
C778 C 0.21546 0.87143 0.47169 0.0
C779 C 0.22773 0.84465 0.46531 0.0
C780 C 0.20013 0.88422 0.44228 0.0
C781 C 0.22523 0.83823 0.44728 0.0
C782 C 0.18412 0.89797 0.41177 0.0
C783 C 0.16426 0.95258 0.42462 0.0
N784 N 0.21179 0.8579 0.43641 0.0
N785 N 0.17654 0.93226 0.43551 0.0
H786 H 0.12607 0.60854 0.67086 0.0
H787 H 0.21617 0.75266 0.70097 0.0
H788 H 0.09667 0.69556 0.65443 0.0
H789 H 0.19691 0.6831 0.73698 0.0
H790 H 0.18185 0.72868 0.67934 0.0
H791 H 0.16188 0.6326 0.69106 0.0
C792 C 0.12687 0.63266 0.6715 0.0
C793 C 0.1077 0.64995 0.66103 0.0
C794 C 0.18533 0.71874 0.69198 0.0
C795 C 0.14981 0.67741 0.68365 0.0
C796 C 0.20494 0.73222 0.70423 0.0
C797 C 0.20923 0.71978 0.72074 0.0
C798 C 0.17074 0.69229 0.69615 0.0
C799 C 0.19404 0.69343 0.72442 0.0
C800 C 0.14756 0.64629 0.68295 0.0
C801 C 0.11098 0.68117 0.66205 0.0
N802 N 0.17562 0.68038 0.71215 0.0
N803 N 0.1317 0.69392 0.67315 0.0
H804 H 0.42373 0.5448 0.93137 0.0
H805 H 0.32774 0.69522 0.9347 0.0
H806 H 0.38981 0.58796 0.88522 0.0
H807 H 0.35135 0.64421 0.9801 0.0
H808 H 0.35172 0.65732 0.91628 0.0
H809 H 0.39865 0.58223 0.94944 0.0
C810 C 0.41101 0.5622 0.92505 0.0
C811 C 0.40887 0.56331 0.90678 0.0
C812 C 0.35159 0.65445 0.93028 0.0
C813 C 0.38004 0.60623 0.92737 0.0
C814 C 0.33798 0.67611 0.9408 0.0
C815 C 0.33755 0.67293 0.95898 0.0
C816 C 0.36501 0.62955 0.93801 0.0
C817 C 0.35111 0.64764 0.96616 0.0
C818 C 0.39658 0.58349 0.93536 0.0
C819 C 0.39179 0.58613 0.89927 0.0
N820 N 0.36432 0.627 0.95566 0.0
N821 N 0.37813 0.60678 0.9096 0.0
H822 H 0.47855 0.87632 0.16123 0.0
H823 H 0.34458 0.8986 0.22735 0.0
H824 H 0.43036 0.95907 0.16696 0.0
H825 H 0.38326 0.81303 0.21429 0.0
H826 H 0.37629 0.92164 0.20586 0.0
H827 H 0.44462 0.85323 0.18139 0.0
C828 C 0.46085 0.88965 0.16678 0.0
C829 C 0.45735 0.9197 0.16247 0.0
C830 C 0.37771 0.89781 0.20765 0.0
C831 C 0.41826 0.89337 0.18553 0.0
C832 C 0.35964 0.88463 0.21993 0.0
C833 C 0.3613 0.85384 0.22268 0.0
C834 C 0.39777 0.88009 0.19815 0.0
C835 C 0.3812 0.83685 0.21265 0.0
C836 C 0.44136 0.87642 0.17821 0.0
C837 C 0.43373 0.93579 0.16984 0.0
N838 N 0.39873 0.85022 0.20092 0.0
N839 N 0.41518 0.92247 0.18109 0.0
H840 H 0.0745 0.62526 0.84417 0.0
H841 H 0.20725 0.74406 0.84245 0.0
H842 H 0.10803 0.67154 0.89062 0.0
H843 H 0.16262 0.70681 0.79632 0.0
H844 H 0.1715 0.71827 0.86053 0.0
H845 H 0.10713 0.65522 0.82661 0.0
C846 C 0.08882 0.64174 0.85068 0.0
C847 C 0.08876 0.64573 0.8689 0.0
C848 C 0.16947 0.71594 0.84645 0.0
C849 C 0.12622 0.68034 0.84883 0.0
C850 C 0.18987 0.73063 0.83612 0.0
C851 C 0.18806 0.72749 0.81783 0.0
C852 C 0.14724 0.69785 0.83843 0.0
C853 C 0.16502 0.70984 0.81035 0.0
C854 C 0.10734 0.65898 0.84064 0.0
C855 C 0.10737 0.66781 0.8766 0.0
N856 N 0.14569 0.69559 0.82067 0.0
N857 N 0.12556 0.68415 0.86654 0.0
H858 H 0.42991 0.59997 0.10858 0.0
H859 H 0.30033 0.60077 0.03533 0.0
H860 H 0.37363 0.52364 0.09707 0.0
H861 H 0.34628 0.67987 0.05482 0.0
H862 H 0.32605 0.57191 0.05789 0.0
H863 H 0.39898 0.62945 0.08885 0.0
C864 C 0.41097 0.58945 0.10188 0.0
C865 C 0.40442 0.5593 0.10434 0.0
C866 C 0.33027 0.59563 0.0573 0.0
C867 C 0.36884 0.59289 0.0817 0.0
C868 C 0.31561 0.61211 0.04442 0.0
C869 C 0.32131 0.64275 0.04309 0.0
C870 C 0.35091 0.60987 0.06881 0.0
C871 C 0.34128 0.65629 0.05526 0.0
C872 C 0.39321 0.60631 0.09068 0.0
C873 C 0.37936 0.54687 0.09555 0.0
N874 N 0.3555 0.63972 0.06749 0.0
N875 N 0.3626 0.56366 0.08448 0.0
H876 H 0.42685 0.93037 0.36105 0.0
H877 H 0.37875 0.77202 0.32419 0.0
H878 H 0.48713 0.85607 0.36793 0.0
H879 H 0.36975 0.85066 0.29311 0.0
H880 H 0.41031 0.80076 0.34537 0.0
H881 H 0.39624 0.89932 0.34116 0.0
C882 C 0.43381 0.90763 0.35841 0.0
C883 C 0.46014 0.89617 0.36601 0.0
C884 C 0.40143 0.81149 0.33384 0.0
C885 C 0.42427 0.86026 0.34375 0.0
C886 C 0.38349 0.79524 0.32182 0.0
C887 C 0.37183 0.80902 0.30688 0.0
C888 C 0.40674 0.84182 0.33109 0.0
C889 C 0.37854 0.83914 0.30439 0.0
C890 C 0.41614 0.88992 0.34714 0.0
C891 C 0.46705 0.86599 0.36254 0.0
N892 N 0.39524 0.85466 0.31649 0.0
N893 N 0.44919 0.84903 0.35166 0.0
H894 H 0.21279 0.99446 0.61644 0.0
H895 H 0.22752 0.84059 0.56218 0.0
H896 H 0.1566 0.91769 0.62313 0.0
H897 H 0.27866 0.9193 0.55132 0.0
H898 H 0.20554 0.86704 0.58683 0.0
H899 H 0.24155 0.96571 0.59509 0.0
C900 C 0.2068 0.97142 0.61362 0.0
C901 C 0.18212 0.9585 0.62147 0.0
C902 C 0.22166 0.87854 0.57912 0.0
C903 C 0.21466 0.92563 0.59694 0.0
C904 C 0.23426 0.86343 0.56501 0.0
C905 C 0.25482 0.87782 0.55454 0.0
C906 C 0.22957 0.90835 0.58286 0.0
C907 C 0.26278 0.90738 0.55897 0.0
C908 C 0.22308 0.9551 0.60134 0.0
C909 C 0.17517 0.92866 0.61719 0.0
N910 N 0.25001 0.92174 0.57274 0.0
N911 N 0.19124 0.91332 0.60517 0.0
H912 H 0.54815 0.33166 0.90202 0.0
H913 H 0.70525 0.31281 0.95245 0.0
H914 H 0.62454 0.3883 0.89531 0.0
H915 H 0.62536 0.26691 0.96714 0.0
H916 H 0.6776 0.33466 0.92821 0.0
H917 H 0.5778 0.30179 0.92254 0.0
C918 C 0.57129 0.33749 0.90466 0.0
C919 C 0.58389 0.3626 0.89709 0.0
C920 C 0.6661 0.3197 0.93666 0.0
C921 C 0.61775 0.32879 0.92054 0.0
C922 C 0.6819 0.30715 0.95054 0.0
C923 C 0.66754 0.28821 0.96201 0.0
C924 C 0.63563 0.31335 0.93415 0.0
C925 C 0.63728 0.28156 0.95871 0.0
C926 C 0.5881 0.3206 0.91644 0.0
C927 C 0.61387 0.36935 0.90105 0.0
N928 N 0.62225 0.29428 0.94514 0.0
N929 N 0.62971 0.35265 0.91254 0.0
H930 H 0.69031 0.09599 0.13272 0.0
H931 H 0.72844 0.14675 0.23153 0.0
H932 H 0.65619 0.05229 0.1777 0.0
H933 H 0.76714 0.18793 0.187 0.0
H934 H 0.70423 0.11006 0.21192 0.0
H935 H 0.72078 0.12823 0.15226 0.0
C936 C 0.68931 0.09311 0.1467 0.0
C937 C 0.67059 0.07148 0.15359 0.0
C938 C 0.71818 0.12698 0.20643 0.0
C939 C 0.70542 0.1082 0.176 0.0
C940 C 0.73203 0.14797 0.21763 0.0
C941 C 0.74971 0.17061 0.2109 0.0
C942 C 0.72183 0.12868 0.18832 0.0
C943 C 0.75363 0.17095 0.19277 0.0
C944 C 0.70681 0.11142 0.15784 0.0
C945 C 0.6705 0.06844 0.17179 0.0
N946 N 0.7396 0.15044 0.18209 0.0
N947 N 0.68747 0.08672 0.18235 0.0
H948 H 0.03884 0.14494 0.43607 0.0
H949 H 0.88663 0.22766 0.45775 0.0
H950 H 0.97209 0.16624 0.39672 0.0
H951 H 0.96111 0.22311 0.49439 0.0
H952 H 0.9178 0.20578 0.4351 0.0
H953 H 0.01116 0.17418 0.45749 0.0
C954 C 0.01857 0.15606 0.43185 0.0
C955 C 0.00774 0.15294 0.41453 0.0
C956 C 0.92741 0.20981 0.44805 0.0
C957 C 0.9756 0.18604 0.43916 0.0
C958 C 0.90961 0.22227 0.461 0.0
C959 C 0.92123 0.22704 0.47803 0.0
C960 C 0.95696 0.20175 0.45219 0.0
C961 C 0.9512 0.21976 0.48146 0.0
C962 C 0.00269 0.17264 0.44414 0.0
C963 C 0.98103 0.16749 0.40997 0.0
N964 N 0.96795 0.20721 0.4687 0.0
N965 N 0.96579 0.18321 0.42223 0.0
H966 H 0.8799 0.46153 0.63494 0.0
H967 H 0.8236 0.43836 0.73209 0.0
H968 H 0.9065 0.51751 0.67918 0.0
H969 H 0.82344 0.36769 0.6928 0.0
H970 H 0.8448 0.47202 0.71106 0.0
H971 H 0.84994 0.43132 0.65435 0.0
C972 C 0.87906 0.46766 0.64869 0.0
C973 C 0.8958 0.49183 0.65555 0.0
C974 C 0.83993 0.44919 0.70702 0.0
C975 C 0.86174 0.45764 0.67769 0.0
C976 C 0.82773 0.42997 0.71899 0.0
C977 C 0.82199 0.40006 0.71425 0.0
C978 C 0.8462 0.43855 0.69012 0.0
C979 C 0.82777 0.3905 0.69706 0.0
C980 C 0.86216 0.45037 0.65975 0.0
C981 C 0.89414 0.49882 0.67345 0.0
N982 N 0.83965 0.40967 0.68562 0.0
N983 N 0.87747 0.48178 0.68391 0.0
H984 H 0.66702 0.10965 0.37121 0.0
H985 H 0.66083 0.16769 0.2731 0.0
H986 H 0.60198 0.08006 0.33204 0.0
H987 H 0.73347 0.18745 0.30959 0.0
H988 H 0.63686 0.13872 0.29539 0.0
H989 H 0.68993 0.14098 0.34955 0.0
C990 C 0.6576 0.10963 0.35806 0.0
C991 C 0.63249 0.09211 0.35348 0.0
C992 C 0.65801 0.14944 0.29855 0.0
C993 C 0.65842 0.12829 0.32866 0.0
C994 C 0.67169 0.16608 0.28583 0.0
C995 C 0.69927 0.17997 0.28945 0.0
C996 C 0.67192 0.1467 0.31506 0.0
C997 C 0.71226 0.17706 0.3062 0.0
C998 C 0.67061 0.12766 0.34572 0.0
C999 C 0.621 0.09346 0.33628 0.0
N1000 N 0.69849 0.16072 0.31838 0.0
N1001 N 0.63405 0.11118 0.32453 0.0
H1002 H 0.9418 0.10576 0.62174 0.0
H1003 H 0.91798 0.21275 0.54134 0.0
H1004 H 0.01317 0.15735 0.6008 0.0
H1005 H 0.84693 0.19363 0.57642 0.0
H1006 H 0.95283 0.18655 0.56056 0.0
H1007 H 0.90611 0.13201 0.60274 0.0
C1008 C 0.94989 0.12254 0.61308 0.0
C1009 C 0.98036 0.12949 0.61277 0.0
C1010 C 0.92962 0.18814 0.56405 0.0
C1011 C 0.93997 0.15924 0.59106 0.0
C1012 C 0.90968 0.20295 0.55306 0.0
C1013 C 0.8795 0.20539 0.55731 0.0
C1014 C 0.91926 0.17521 0.57925 0.0
C1015 C 0.87004 0.19237 0.57271 0.0
C1016 C 0.92958 0.13758 0.60236 0.0
C1017 C 0.9898 0.15153 0.60147 0.0
N1018 N 0.88985 0.17764 0.5831 0.0
N1019 N 0.96968 0.16549 0.59095 0.0
H1020 H 0.93672 0.46767 0.83159 0.0
H1021 H 0.82911 0.32679 0.81618 0.0
H1022 H 0.89219 0.42425 0.87334 0.0
H1023 H 0.85916 0.38189 0.7746 0.0
H1024 H 0.85505 0.35986 0.83736 0.0
H1025 H 0.91148 0.4339 0.81052 0.0
C1026 C 0.92173 0.4509 0.83632 0.0
C1027 C 0.91655 0.4487 0.85423 0.0
C1028 C 0.85594 0.36469 0.8236 0.0
C1029 C 0.88749 0.41009 0.83021 0.0
C1030 C 0.84122 0.34578 0.81149 0.0
C1031 C 0.84195 0.35157 0.79357 0.0
C1032 C 0.87169 0.38945 0.81775 0.0
C1033 C 0.85794 0.37656 0.78827 0.0
C1034 C 0.9072 0.43176 0.82429 0.0
C1035 C 0.89659 0.42685 0.85963 0.0
N1036 N 0.87221 0.39454 0.80031 0.0
N1037 N 0.88286 0.4083 0.84766 0.0
H1038 H 0.63483 0.37318 0.12887 0.0
H1039 H 0.67315 0.33184 0.02966 0.0
H1040 H 0.58795 0.40916 0.08425 0.0
H1041 H 0.73065 0.30946 0.07347 0.0
H1042 H 0.63974 0.35739 0.04973 0.0
H1043 H 0.66811 0.34634 0.109 0.0
C1044 C 0.63148 0.3753 0.1149 0.0
C1045 C 0.60875 0.39354 0.10819 0.0
C1046 C 0.65969 0.34694 0.05496 0.0
C1047 C 0.64662 0.36307 0.08544 0.0
C1048 C 0.67879 0.33232 0.0435 0.0
C1049 C 0.7048 0.31853 0.04988 0.0
C1050 C 0.66649 0.34765 0.07296 0.0
C1051 C 0.71091 0.31988 0.06796 0.0
C1052 C 0.65055 0.36015 0.10359 0.0
C1053 C 0.60548 0.39568 0.08999 0.0
N1054 N 0.69185 0.33412 0.07888 0.0
N1055 N 0.62416 0.38062 0.07926 0.0
loop_
_geom_bond_atom_site_label_1
_geom_bond_atom_site_label_2
_geom_bond_distance
_geom_bond_site_symmetry_2
_ccdc_geom_bond_type
C0 C1 1.384 . S
C0 C2 1.384 . S
C0 H28 0.931 . S
C1 C0 1.384 . S
C1 C4 1.382 . S
C2 C0 1.384 . S
C2 C3 1.381 . S
C2 H29 0.930 . S
C3 C2 1.381 . S
C3 C5 1.381 1_565 S
C3 C6 1.487 1_565 S
C4 C1 1.382 . S
C4 C5 1.387 1_565 S
C4 H30 0.930 1_565 S
C5 C3 1.381 1_545 S
C5 C4 1.387 1_545 S
C5 H31 0.931 . S
C6 C3 1.487 1_545 S
C6 C13 1.399 . S
C6 N44 1.343 . S
C7 C8 1.384 . S
C7 C9 1.384 . S
C7 H32 0.931 . S
C8 C7 1.384 . S
C8 C11 1.382 . S
C9 C7 1.384 . S
C9 C10 1.381 . S
C9 H33 0.930 1_565 S
C10 C9 1.381 . S
C10 C12 1.381 . S
C10 C13 1.487 1_565 S
C11 C8 1.382 . S
C11 C12 1.387 . S
C11 H34 0.930 . S
C12 C10 1.381 . S
C12 C11 1.387 . S
C12 H35 0.931 . S
C13 C6 1.399 . S
C13 C10 1.487 1_545 S
C13 N45 1.343 . S
C14 C15 1.384 1_455 S
C14 C16 1.384 . S
C14 H36 0.931 . S
C15 C14 1.384 1_655 S
C15 C18 1.382 . S
C16 C14 1.384 . S
C16 C17 1.381 . S
C16 H37 0.930 . S
C17 C16 1.381 . S
C17 C19 1.381 . S
C17 C20 1.487 . S
C18 C15 1.382 . S
C18 C19 1.387 1_655 S
C18 H38 0.930 . S
C19 C17 1.381 . S
C19 C18 1.387 1_455 S
C19 H39 0.931 . S
C20 C17 1.487 . S
C20 C27 1.399 . S
C20 N45 1.343 . S
C21 C22 1.384 . S
C21 C23 1.384 1_655 S
C21 H40 0.931 . S
C22 C21 1.384 . S
C22 C25 1.382 1_655 S
C23 C21 1.384 1_455 S
C23 C24 1.381 . S
C23 H41 0.930 1_455 S
C24 C23 1.381 . S
C24 C26 1.381 . S
C24 C27 1.487 . S
C25 C22 1.382 1_455 S
C25 C26 1.387 . S
C25 H42 0.930 . S
C26 C24 1.381 . S
C26 C25 1.387 . S
C26 H43 0.931 . S
C27 C20 1.399 . S
C27 C24 1.487 . S
C27 N44 1.343 . S
H28 C0 0.931 . S
H29 C2 0.930 . S
H30 C4 0.930 1_545 S
H31 C5 0.931 . S
H32 C7 0.931 . S
H33 C9 0.930 1_545 S
H34 C11 0.930 . S
H35 C12 0.931 . S
H36 C14 0.931 . S
H37 C16 0.930 . S
H38 C18 0.930 . S
H39 C19 0.931 . S
H40 C21 0.931 . S
H41 C23 0.930 1_655 S
H42 C25 0.930 . S
H43 C26 0.931 . S
N44 C6 1.343 . S
N44 C27 1.343 . S
N45 C13 1.343 . S
N45 C20 1.343 . S
C46 C47 1.384 . S
C46 C48 1.384 . S
C46 H74 0.931 . S
C47 C46 1.384 . S
C47 C50 1.382 . S
C48 C46 1.384 . S
C48 C49 1.381 . S
C48 H75 0.930 . S
C49 C48 1.381 . S
C49 C51 1.381 . S
C49 C52 1.487 . S
C50 C47 1.382 . S
C50 C51 1.387 . S
C50 H76 0.930 . S
C51 C49 1.381 . S
C51 C50 1.387 . S
C51 H77 0.931 1_655 S
C52 C49 1.487 . S
C52 C59 1.399 . S
C52 N90 1.343 1_655 S
C53 C54 1.384 . S
C53 C55 1.384 . S
C53 H78 0.931 . S
C54 C53 1.384 . S
C54 C57 1.382 . S
C55 C53 1.384 . S
C55 C56 1.381 . S
C55 H79 0.930 . S
C56 C55 1.381 . S
C56 C58 1.381 . S
C56 C59 1.487 . S
C57 C54 1.382 . S
C57 C58 1.387 . S
C57 H80 0.930 . S
C58 C56 1.381 . S
C58 C57 1.387 . S
C58 H81 0.931 . S
C59 C52 1.399 . S
C59 C56 1.487 . S
C59 N91 1.343 1_655 S
C60 C61 1.384 . S
C60 C62 1.384 . S
C60 H82 0.931 . S
C61 C60 1.384 . S
C61 C64 1.382 . S
C62 C60 1.384 . S
C62 C63 1.381 . S
C62 H83 0.930 . S
C63 C62 1.381 . S
C63 C65 1.381 . S
C63 C66 1.487 . S
C64 C61 1.382 . S
C64 C65 1.387 . S
C64 H84 0.930 . S
C65 C63 1.381 . S
C65 C64 1.387 . S
C65 H85 0.931 . S
C66 C63 1.487 . S
C66 C73 1.399 . S
C66 N91 1.343 . S
C67 C68 1.384 . S
C67 C69 1.384 . S
C67 H86 0.931 . S
C68 C67 1.384 . S
C68 C71 1.382 . S
C69 C67 1.384 . S
C69 C70 1.381 . S
C69 H87 0.930 . S
C70 C69 1.381 . S
C70 C72 1.381 . S
C70 C73 1.487 . S
C71 C68 1.382 . S
C71 C72 1.387 . S
C71 H88 0.930 . S
C72 C70 1.381 . S
C72 C71 1.387 . S
C72 H89 0.931 . S
C73 C66 1.399 . S
C73 C70 1.487 . S
C73 N90 1.343 . S
H74 C46 0.931 . S
H75 C48 0.930 . S
H76 C50 0.930 . S
H77 C51 0.931 1_455 S
H78 C53 0.931 . S
H79 C55 0.930 . S
H80 C57 0.930 . S
H81 C58 0.931 . S
H82 C60 0.931 . S
H83 C62 0.930 . S
H84 C64 0.930 . S
H85 C65 0.931 . S
H86 C67 0.931 . S
H87 C69 0.930 . S
H88 C71 0.930 . S
H89 C72 0.931 . S
N90 C52 1.343 1_455 S
N90 C73 1.343 . S
N91 C59 1.343 1_455 S
N91 C66 1.343 . S
C92 C93 1.384 . S
C92 C94 1.384 . S
C92 H120 0.931 . S
C93 C92 1.384 . S
C93 C96 1.382 . S
C94 C92 1.384 . S
C94 C95 1.381 . S
C94 H121 0.930 . S
C95 C94 1.381 . S
C95 C97 1.381 . S
C95 C98 1.487 . S
C96 C93 1.382 . S
C96 C97 1.387 . S
C96 H122 0.930 . S
C97 C95 1.381 . S
C97 C96 1.387 . S
C97 H123 0.931 . S
C98 C95 1.487 . S
C98 C105 1.399 . S
C98 N136 1.343 . S
C99 C100 1.384 . S
C99 C101 1.384 . S
C99 H124 0.931 . S
C100 C99 1.384 . S
C100 C103 1.382 . S
C101 C99 1.384 . S
C101 C102 1.381 . S
C101 H125 0.930 . S
C102 C101 1.381 . S
C102 C104 1.381 . S
C102 C105 1.487 . S
C103 C100 1.382 . S
C103 C104 1.387 . S
C103 H126 0.930 . S
C104 C102 1.381 . S
C104 C103 1.387 . S
C104 H127 0.931 . S
C105 C98 1.399 . S
C105 C102 1.487 . S
C105 N137 1.343 . S
C106 C107 1.384 . S
C106 C108 1.384 . S
C106 H128 0.931 . S
C107 C106 1.384 . S
C107 C110 1.382 . S
C108 C106 1.384 . S
C108 C109 1.381 . S
C108 H129 0.930 . S
C109 C108 1.381 . S
C109 C111 1.381 . S
C109 C112 1.487 . S
C110 C107 1.382 . S
C110 C111 1.387 . S
C110 H130 0.930 . S
C111 C109 1.381 . S
C111 C110 1.387 . S
C111 H131 0.931 . S
C112 C109 1.487 . S
C112 C119 1.399 . S
C112 N137 1.343 . S
C113 C114 1.384 . S
C113 C115 1.384 . S
C113 H132 0.931 . S
C114 C113 1.384 . S
C114 C117 1.382 . S
C115 C113 1.384 . S
C115 C116 1.381 . S
C115 H133 0.930 . S
C116 C115 1.381 . S
C116 C118 1.381 . S
C116 C119 1.487 . S
C117 C114 1.382 . S
C117 C118 1.387 . S
C117 H134 0.930 . S
C118 C116 1.381 . S
C118 C117 1.387 . S
C118 H135 0.931 . S
C119 C112 1.399 . S
C119 C116 1.487 . S
C119 N136 1.343 . S
H120 C92 0.931 . S
H121 C94 0.930 . S
H122 C96 0.930 . S
H123 C97 0.931 . S
H124 C99 0.931 . S
H125 C101 0.930 . S
H126 C103 0.930 . S
H127 C104 0.931 . S
H128 C106 0.931 . S
H129 C108 0.930 . S
H130 C110 0.930 . S
H131 C111 0.931 . S
H132 C113 0.931 . S
H133 C115 0.930 . S
H134 C117 0.930 . S
H135 C118 0.931 . S
N136 C98 1.343 . S
N136 C119 1.343 . S
N137 C105 1.343 . S
N137 C112 1.343 . S
C138 C139 1.384 . S
C138 C140 1.384 . S
C138 H166 0.931 . S
C139 C138 1.384 . S
C139 C142 1.382 . S
C140 C138 1.384 . S
C140 C141 1.381 . S
C140 H167 0.930 . S
C141 C140 1.381 . S
C141 C143 1.381 . S
C141 C144 1.487 . S
C142 C139 1.382 . S
C142 C143 1.387 . S
C142 H168 0.930 . S
C143 C141 1.381 . S
C143 C142 1.387 . S
C143 H169 0.931 . S
C144 C141 1.487 . S
C144 C151 1.399 . S
C144 N182 1.343 1_565 S
C145 C146 1.384 . S
C145 C147 1.384 . S
C145 H170 0.931 . S
C146 C145 1.384 . S
C146 C149 1.382 . S
C147 C145 1.384 . S
C147 C148 1.381 . S
C147 H171 0.930 . S
C148 C147 1.381 . S
C148 C150 1.381 . S
C148 C151 1.487 . S
C149 C146 1.382 . S
C149 C150 1.387 . S
C149 H172 0.930 . S
C150 C148 1.381 . S
C150 C149 1.387 . S
C150 H173 0.931 . S
C151 C144 1.399 . S
C151 C148 1.487 . S
C151 N183 1.343 . S
C152 C153 1.384 . S
C152 C154 1.384 . S
C152 H174 0.931 . S
C153 C152 1.384 . S
C153 C156 1.382 . S
C154 C152 1.384 . S
C154 C155 1.381 . S
C154 H175 0.930 . S
C155 C154 1.381 . S
C155 C157 1.381 . S
C155 C158 1.487 . S
C156 C153 1.382 . S
C156 C157 1.387 . S
C156 H176 0.930 . S
C157 C155 1.381 . S
C157 C156 1.387 . S
C157 H177 0.931 . S
C158 C155 1.487 . S
C158 C165 1.399 . S
C158 N183 1.343 1_545 S
C159 C160 1.384 . S
C159 C161 1.384 . S
C159 H178 0.931 . S
C160 C159 1.384 . S
C160 C163 1.382 . S
C161 C159 1.384 . S
C161 C162 1.381 . S
C161 H179 0.930 . S
C162 C161 1.381 . S
C162 C164 1.381 . S
C162 C165 1.487 . S
C163 C160 1.382 . S
C163 C164 1.387 . S
C163 H180 0.930 . S
C164 C162 1.381 . S
C164 C163 1.387 . S
C164 H181 0.931 . S
C165 C158 1.399 . S
C165 C162 1.487 . S
C165 N182 1.343 . S
H166 C138 0.931 . S
H167 C140 0.930 . S
H168 C142 0.930 . S
H169 C143 0.931 . S
H170 C145 0.931 . S
H171 C147 0.930 . S
H172 C149 0.930 . S
H173 C150 0.931 . S
H174 C152 0.931 . S
H175 C154 0.930 . S
H176 C156 0.930 . S
H177 C157 0.931 . S
H178 C159 0.931 . S
H179 C161 0.930 . S
H180 C163 0.930 . S
H181 C164 0.931 . S
N182 C144 1.343 1_545 S
N182 C165 1.343 . S
N183 C151 1.343 . S
N183 C158 1.343 1_565 S
C184 C185 1.384 . S
C184 C186 1.384 . S
C184 H212 0.931 . S
C185 C184 1.384 . S
C185 C188 1.382 . S
C186 C184 1.384 . S
C186 C187 1.381 . S
C186 H213 0.930 . S
C187 C186 1.381 . S
C187 C189 1.381 . S
C187 C190 1.487 . S
C188 C185 1.382 . S
C188 C189 1.387 . S
C188 H214 0.930 . S
C189 C187 1.381 . S
C189 C188 1.387 . S
C189 H215 0.931 . S
C190 C187 1.487 . S
C190 C197 1.399 . S
C190 N228 1.343 . S
C191 C192 1.384 . S
C191 C193 1.384 . S
C191 H216 0.931 . S
C192 C191 1.384 . S
C192 C195 1.382 . S
C193 C191 1.384 . S
C193 C194 1.381 . S
C193 H217 0.930 . S
C194 C193 1.381 . S
C194 C196 1.381 . S
C194 C197 1.487 . S
C195 C192 1.382 . S
C195 C196 1.387 . S
C195 H218 0.930 . S
C196 C194 1.381 . S
C196 C195 1.387 . S
C196 H219 0.931 . S
C197 C190 1.399 . S
C197 C194 1.487 . S
C197 N229 1.353 . S
C198 C199 1.384 . S
C198 C200 1.384 . S
C198 H220 0.931 . S
C199 C198 1.384 . S
C199 C202 1.382 . S
C200 C198 1.384 . S
C200 C201 1.381 . S
C200 H221 0.930 . S
C201 C200 1.381 . S
C201 C203 1.381 . S
C201 C204 1.487 . S
C202 C199 1.382 . S
C202 C203 1.387 . S
C202 H222 0.930 . S
C203 C201 1.381 . S
C203 C202 1.387 . S
C203 H223 0.931 . S
C204 C201 1.487 . S
C204 C211 1.399 . S
C204 N229 1.334 1_655 S
C205 C206 1.384 . S
C205 C207 1.384 . S
C205 H224 0.931 . S
C206 C205 1.384 . S
C206 C209 1.382 . S
C207 C205 1.384 . S
C207 C208 1.381 . S
C207 H225 0.930 . S
C208 C207 1.381 . S
C208 C210 1.381 . S
C208 C211 1.487 . S
C209 C206 1.382 . S
C209 C210 1.387 . S
C209 H226 0.930 . S
C210 C208 1.381 . S
C210 C209 1.387 . S
C210 H227 0.931 . S
C211 C204 1.399 . S
C211 C208 1.487 . S
C211 N228 1.343 1_655 S
H212 C184 0.931 . S
H213 C186 0.930 . S
H214 C188 0.930 . S
H215 C189 0.931 . S
H216 C191 0.931 . S
H217 C193 0.930 . S
H218 C195 0.930 . S
H219 C196 0.931 . S
H220 C198 0.931 . S
H221 C200 0.930 . S
H222 C202 0.930 . S
H223 C203 0.931 . S
H224 C205 0.931 . S
H225 C207 0.930 . S
H226 C209 0.930 . S
H227 C210 0.931 . S
N228 C190 1.343 . S
N228 C211 1.343 1_455 S
N229 C197 1.353 . S
N229 C204 1.334 1_455 S
C230 C231 1.384 . S
C230 C232 1.384 . S
C230 H258 0.931 . S
C231 C230 1.384 . S
C231 C234 1.382 . S
C232 C230 1.384 . S
C232 C233 1.381 . S
C232 H259 0.930 . S
C233 C232 1.381 . S
C233 C235 1.381 . S
C233 C236 1.487 . S
C234 C231 1.382 . S
C234 C235 1.387 . S
C234 H260 0.930 . S
C235 C233 1.381 . S
C235 C234 1.387 . S
C235 H261 0.931 . S
C236 C233 1.487 . S
C236 C243 1.399 . S
C236 N274 1.343 . S
C237 C238 1.384 . S
C237 C239 1.384 . S
C237 H262 0.931 . S
C238 C237 1.384 . S
C238 C241 1.382 . S
C239 C237 1.384 . S
C239 C240 1.381 . S
C239 H263 0.930 . S
C240 C239 1.381 . S
C240 C242 1.381 . S
C240 C243 1.487 . S
C241 C238 1.382 . S
C241 C242 1.387 . S
C241 H264 0.930 . S
C242 C240 1.381 . S
C242 C241 1.387 . S
C242 H265 0.931 . S
C243 C236 1.399 . S
C243 C240 1.487 . S
C243 N275 1.343 . S
C244 C245 1.384 . S
C244 C246 1.384 . S
C244 H266 0.931 . S
C245 C244 1.384 . S
C245 C248 1.382 . S
C246 C244 1.384 . S
C246 C247 1.381 . S
C246 H267 0.930 . S
C247 C246 1.381 . S
C247 C249 1.381 . S
C247 C250 1.487 . S
C248 C245 1.382 . S
C248 C249 1.387 . S
C248 H268 0.930 . S
C249 C247 1.381 . S
C249 C248 1.387 . S
C249 H269 0.931 . S
C250 C247 1.487 . S
C250 C257 1.399 . S
C250 N275 1.343 . S
C251 C252 1.384 . S
C251 C253 1.384 . S
C251 H270 0.931 . S
C252 C251 1.384 . S
C252 C255 1.382 . S
C253 C251 1.384 . S
C253 C254 1.381 . S
C253 H271 0.930 . S
C254 C253 1.381 . S
C254 C256 1.381 . S
C254 C257 1.487 . S
C255 C252 1.382 . S
C255 C256 1.387 . S
C255 H272 0.930 . S
C256 C254 1.381 . S
C256 C255 1.387 . S
C256 H273 0.931 . S
C257 C250 1.399 . S
C257 C254 1.487 . S
C257 N274 1.343 . S
H258 C230 0.931 . S
H259 C232 0.930 . S
H260 C234 0.930 . S
H261 C235 0.931 . S
H262 C237 0.931 . S
H263 C239 0.930 . S
H264 C241 0.930 . S
H265 C242 0.931 . S
H266 C244 0.931 . S
H267 C246 0.930 . S
H268 C248 0.930 . S
H269 C249 0.931 . S
H270 C251 0.931 . S
H271 C253 0.930 . S
H272 C255 0.930 . S
H273 C256 0.931 . S
N274 C236 1.343 . S
N274 C257 1.343 . S
N275 C243 1.343 . S
N275 C250 1.343 . S
C276 C277 1.384 . S
C276 C278 1.384 . S
C276 H304 0.931 . S
C277 C276 1.384 . S
C277 C280 1.382 . S
C278 C276 1.384 . S
C278 C279 1.381 . S
C278 H305 0.930 . S
C279 C278 1.381 . S
C279 C281 1.381 . S
C279 C282 1.487 . S
C280 C277 1.382 . S
C280 C281 1.387 . S
C280 H306 0.930 . S
C281 C279 1.381 . S
C281 C280 1.387 . S
C281 H307 0.894 1_565 S
C282 C279 1.487 . S
C282 C289 1.399 . S
C282 N320 1.343 1_565 S
C283 C284 1.384 . S
C283 C285 1.384 . S
C283 H308 0.931 . S
C284 C283 1.384 . S
C284 C287 1.382 . S
C285 C283 1.384 . S
C285 C286 1.381 . S
C285 H309 0.930 . S
C286 C285 1.381 . S
C286 C288 1.381 . S
C286 C289 1.487 . S
C287 C284 1.382 . S
C287 C288 1.387 . S
C287 H310 0.930 . S
C288 C286 1.381 . S
C288 C287 1.387 . S
C288 H311 0.931 . S
C289 C282 1.399 . S
C289 C286 1.487 . S
C289 N321 1.343 1_565 S
C290 C291 1.384 . S
C290 C292 1.384 . S
C290 H312 0.931 . S
C291 C290 1.384 . S
C291 C294 1.382 . S
C292 C290 1.384 . S
C292 C293 1.381 . S
C292 H313 0.930 . S
C293 C292 1.381 . S
C293 C295 1.381 . S
C293 C296 1.487 . S
C294 C291 1.382 . S
C294 C295 1.387 . S
C294 H314 0.930 . S
C295 C293 1.381 . S
C295 C294 1.387 . S
C295 H315 0.931 . S
C296 C293 1.487 . S
C296 C303 1.399 . S
C296 N321 1.343 . S
C297 C298 1.384 . S
C297 C299 1.384 . S
C297 H316 0.931 . S
C298 C297 1.384 . S
C298 C301 1.382 . S
C299 C297 1.384 . S
C299 C300 1.381 . S
C299 H317 0.930 . S
C300 C299 1.381 . S
C300 C302 1.381 . S
C300 C303 1.487 . S
C301 C298 1.382 . S
C301 C302 1.387 . S
C301 H318 0.930 . S
C302 C300 1.381 . S
C302 C301 1.387 . S
C302 H319 0.931 . S
C303 C296 1.399 . S
C303 C300 1.487 . S
C303 N320 1.343 . S
H304 C276 0.931 . S
H305 C278 0.930 . S
H306 C280 0.930 . S
H307 C281 0.894 1_545 S
H308 C283 0.931 . S
H309 C285 0.930 . S
H310 C287 0.930 . S
H311 C288 0.931 . S
H312 C290 0.931 . S
H313 C292 0.930 . S
H314 C294 0.930 . S
H315 C295 0.931 . S
H316 C297 0.931 . S
H317 C299 0.930 . S
H318 C301 0.930 . S
H319 C302 0.931 . S
N320 C282 1.343 1_545 S
N320 C303 1.343 . S
N321 C289 1.343 1_545 S
N321 C296 1.343 . S
C322 C323 1.384 . S
C322 C324 1.384 1_565 S
C322 H350 0.931 . S
C323 C322 1.384 . S
C323 C326 1.382 . S
C324 C322 1.384 1_545 S
C324 C325 1.381 . S
C324 H351 0.930 . S
C325 C324 1.381 . S
C325 C327 1.381 1_545 S
C325 C328 1.487 . S
C326 C323 1.382 . S
C326 C327 1.387 . S
C326 H352 0.930 . S
C327 C325 1.381 1_565 S
C327 C326 1.387 . S
C327 H353 0.931 1_565 S
C328 C325 1.487 . S
C328 C335 1.399 . S
C328 N366 1.343 . S
C329 C330 1.384 . S
C329 C331 1.384 . S
C329 H354 0.931 . S
C330 C329 1.384 . S
C330 C333 1.382 1_565 S
C331 C329 1.384 . S
C331 C332 1.381 1_565 S
C331 H355 0.930 . S
C332 C331 1.381 1_545 S
C332 C334 1.381 . S
C332 C335 1.487 . S
C333 C330 1.382 1_545 S
C333 C334 1.387 . S
C333 H356 0.930 . S
C334 C332 1.381 . S
C334 C333 1.387 . S
C334 H357 0.931 . S
C335 C328 1.399 . S
C335 C332 1.487 . S
C335 N367 1.343 . S
C336 C337 1.384 . S
C336 C338 1.384 . S
C336 H358 0.931 . S
C337 C336 1.384 . S
C337 C340 1.382 1_655 S
C338 C336 1.384 . S
C338 C339 1.381 1_655 S
C338 H359 0.930 . S
C339 C338 1.381 1_455 S
C339 C341 1.381 . S
C339 C342 1.487 . S
C340 C337 1.382 1_455 S
C340 C341 1.387 . S
C340 H360 0.930 . S
C341 C339 1.381 . S
C341 C340 1.387 . S
C341 H361 0.931 . S
C342 C339 1.487 . S
C342 C349 1.399 . S
C342 N367 1.343 . S
C343 C344 1.384 1_455 S
C343 C345 1.384 . S
C343 H362 0.931 . S
C344 C343 1.384 1_655 S
C344 C347 1.382 . S
C345 C343 1.384 . S
C345 C346 1.381 . S
C345 H363 0.930 . S
C346 C345 1.381 . S
C346 C348 1.381 . S
C346 C349 1.487 . S
C347 C344 1.382 . S
C347 C348 1.387 1_655 S
C347 H364 0.930 . S
C348 C346 1.381 . S
C348 C347 1.387 1_455 S
C348 H365 0.931 . S
C349 C342 1.399 . S
C349 C346 1.487 . S
C349 N366 1.343 . S
H350 C322 0.931 . S
H351 C324 0.930 . S
H352 C326 0.930 . S
H353 C327 0.931 1_545 S
H354 C329 0.931 . S
H355 C331 0.930 . S
H356 C333 0.930 . S
H357 C334 0.931 . S
H358 C336 0.931 . S
H359 C338 0.930 . S
H360 C340 0.930 . S
H361 C341 0.931 . S
H362 C343 0.931 . S
H363 C345 0.930 . S
H364 C347 0.930 . S
H365 C348 0.931 . S
N366 C328 1.343 . S
N366 C349 1.343 . S
N367 C335 1.343 . S
N367 C342 1.343 . S
Zn368 O371 2.031 . S
Zn368 O373 2.036 1_556 S
Zn368 O378 2.067 . S
Zn369 O370 1.962 . S
Zn369 O372 1.986 . S
Zn369 O374 1.996 . S
Zn369 O377 1.943 . S
O370 Zn369 1.962 . S
O370 C375 1.254 . S
O371 Zn368 2.031 . S
O371 C375 1.269 1_556 S
O372 Zn369 1.986 . S
O372 C379 1.262 . S
O373 Zn368 2.036 1_554 S
O373 C381 1.296 . S
O374 Zn369 1.996 . S
O374 C381 1.257 . S
C375 O370 1.254 . S
C375 O371 1.269 1_554 S
C376 O377 1.249 1_556 S
C376 O378 1.270 . S
O377 Zn369 1.943 . S
O377 C376 1.249 1_554 S
O378 Zn368 2.067 . S
O378 C376 1.270 . S
C379 O372 1.262 . S
C379 O380 1.232 . S
O380 C379 1.232 . S
C381 O373 1.296 . S
C381 O374 1.257 . S
Zn382 O385 2.031 . S
Zn382 O387 2.049 . S
Zn382 O392 2.067 . S
Zn383 O384 1.962 . S
Zn383 O386 1.986 . S
Zn383 O388 1.996 . S
Zn383 O391 1.943 . S
O384 Zn383 1.962 . S
O384 C389 1.254 . S
O385 Zn382 2.031 . S
O385 C389 1.269 . S
O386 Zn383 1.986 . S
O386 C393 1.262 . S
O387 Zn382 2.049 . S
O387 C395 1.260 . S
O388 Zn383 1.996 . S
O388 C395 1.257 . S
C389 O384 1.254 . S
C389 O385 1.269 . S
C390 O391 1.249 . S
C390 O392 1.270 . S
O391 Zn383 1.943 . S
O391 C390 1.249 . S
O392 Zn382 2.067 . S
O392 C390 1.270 . S
C393 O386 1.262 . S
C393 O394 1.232 . S
O394 C393 1.232 . S
C395 O387 1.260 . S
C395 O388 1.257 . S
Zn396 O399 2.031 . S
Zn396 O401 2.049 . S
Zn396 O406 2.067 . S
Zn397 O398 1.962 . S
Zn397 O400 1.986 . S
Zn397 O402 1.996 . S
Zn397 O405 1.943 . S
O398 Zn397 1.962 . S
O398 C403 1.254 . S
O399 Zn396 2.031 . S
O399 C403 1.269 . S
O400 Zn397 1.986 . S
O400 C407 1.262 . S
O401 Zn396 2.049 . S
O401 C409 1.260 . S
O402 Zn397 1.996 . S
O402 C409 1.257 . S
C403 O398 1.254 . S
C403 O399 1.269 . S
C404 O405 1.249 . S
C404 O406 1.270 . S
O405 Zn397 1.943 . S
O405 C404 1.249 . S
O406 Zn396 2.067 . S
O406 C404 1.270 . S
C407 O400 1.262 . S
C407 O408 1.232 . S
O408 C407 1.232 . S
C409 O401 1.260 . S
C409 O402 1.257 . S
Zn410 O413 2.031 . S
Zn410 O415 2.049 . S
Zn410 O420 2.067 . S
Zn411 O412 1.962 . S
Zn411 O414 1.986 . S
Zn411 O416 1.996 . S
Zn411 O419 1.943 . S
O412 Zn411 1.962 . S
O412 C417 1.254 . S
O413 Zn410 2.031 . S
O413 C417 1.269 . S
O414 Zn411 1.986 . S
O414 C421 1.262 . S
O415 Zn410 2.049 . S
O415 C423 1.260 . S
O416 Zn411 1.996 . S
O416 C423 1.257 . S
C417 O412 1.254 . S
C417 O413 1.269 . S
C418 O419 1.249 . S
C418 O420 1.270 . S
O419 Zn411 1.943 . S
O419 C418 1.249 . S
O420 Zn410 2.067 . S
O420 C418 1.270 . S
C421 O414 1.262 . S
C421 O422 1.232 . S
O422 C421 1.232 . S
C423 O415 1.260 . S
C423 O416 1.257 . S
Zn424 O427 2.031 . S
Zn424 O429 2.049 . S
Zn424 O434 2.067 . S
Zn425 O426 1.962 . S
Zn425 O428 1.986 . S
Zn425 O430 1.996 . S
Zn425 O433 1.943 . S
O426 Zn425 1.962 . S
O426 C431 1.254 . S
O427 Zn424 2.031 . S
O427 C431 1.269 . S
O428 Zn425 1.986 . S
O428 C435 1.262 . S
O429 Zn424 2.049 . S
O429 C437 1.260 . S
O430 Zn425 1.996 . S
O430 C437 1.257 . S
C431 O426 1.254 . S
C431 O427 1.269 . S
C432 O433 1.249 . S
C432 O434 1.270 . S
O433 Zn425 1.943 . S
O433 C432 1.249 . S
O434 Zn424 2.067 . S
O434 C432 1.270 . S
C435 O428 1.262 . S
C435 O436 1.232 . S
O436 C435 1.232 . S
C437 O429 1.260 . S
C437 O430 1.257 . S
Zn438 O441 2.031 . S
Zn438 O443 2.049 . S
Zn438 O448 2.067 . S
Zn439 O440 1.962 . S
Zn439 O442 1.986 . S
Zn439 O444 1.996 . S
Zn439 O447 1.943 . S
O440 Zn439 1.962 . S
O440 C445 1.254 . S
O441 Zn438 2.031 . S
O441 C445 1.269 . S
O442 Zn439 1.986 . S
O442 C449 1.262 . S
O443 Zn438 2.049 . S
O443 C451 1.260 . S
O444 Zn439 1.996 . S
O444 C451 1.257 . S
C445 O440 1.254 . S
C445 O441 1.269 . S
C446 O447 1.249 . S
C446 O448 1.270 . S
O447 Zn439 1.943 . S
O447 C446 1.249 . S
O448 Zn438 2.067 . S
O448 C446 1.270 . S
C449 O442 1.262 . S
C449 O450 1.232 . S
O450 C449 1.232 . S
C451 O443 1.260 . S
C451 O444 1.257 . S
Zn452 O455 2.031 . S
Zn452 O457 2.049 . S
Zn452 O462 2.067 . S
Zn453 O454 1.962 . S
Zn453 O456 1.986 . S
Zn453 O458 1.996 . S
Zn453 O461 1.943 1_556 S
O454 Zn453 1.962 . S
O454 C459 1.254 1_556 S
O455 Zn452 2.031 . S
O455 C459 1.269 . S
O456 Zn453 1.986 . S
O456 C463 1.262 . S
O457 Zn452 2.049 . S
O457 C465 1.282 . S
O458 Zn453 1.996 . S
O458 C465 1.250 1_556 S
C459 O454 1.254 1_554 S
C459 O455 1.269 . S
C460 O461 1.249 . S
C460 O462 1.270 . S
O461 Zn453 1.943 1_554 S
O461 C460 1.249 . S
O462 Zn452 2.067 . S
O462 C460 1.270 . S
C463 O456 1.262 . S
C463 O464 1.232 . S
O464 C463 1.232 . S
C465 O457 1.282 . S
C465 O458 1.250 1_554 S
Zn466 O469 2.031 . S
Zn466 O471 2.049 . S
Zn466 O476 2.067 . S
Zn467 O468 1.962 . S
Zn467 O470 1.986 . S
Zn467 O472 1.996 . S
Zn467 O475 1.943 . S
O468 Zn467 1.962 . S
O468 C473 1.254 . S
O469 Zn466 2.031 . S
O469 C473 1.269 . S
O470 Zn467 1.986 . S
O470 C477 1.262 . S
O471 Zn466 2.049 . S
O471 C479 1.260 . S
O472 Zn467 1.996 . S
O472 C479 1.257 . S
C473 O468 1.254 . S
C473 O469 1.269 . S
C474 O475 1.249 . S
C474 O476 1.270 . S
O475 Zn467 1.943 . S
O475 C474 1.249 . S
O476 Zn466 2.067 . S
O476 C474 1.270 . S
C477 O470 1.262 . S
C477 O478 1.232 . S
O478 C477 1.232 . S
C479 O471 1.260 . S
C479 O472 1.257 . S
H480 C486 0.930 . S
H481 C490 0.930 . S
H482 C495 0.929 . S
H483 C493 0.929 . S
H484 C488 0.929 . S
H485 C494 0.929 . S
C486 H480 0.930 . S
C486 C487 1.367 . S
C486 C494 1.378 . S
C487 C486 1.367 . S
C487 C495 1.433 . S
C488 H484 0.929 . S
C488 C490 1.378 . S
C488 C492 1.350 . S
C489 C492 1.463 . S
C489 C494 1.350 . S
C489 N497 1.427 . S
C490 H481 0.930 . S
C490 C488 1.378 . S
C490 C491 1.367 . S
C491 C490 1.367 . S
C491 C493 1.433 . S
C492 C488 1.350 . S
C492 C489 1.463 . S
C492 N496 1.427 . S
C493 H483 0.929 . S
C493 C491 1.433 . S
C493 N496 1.384 . S
C494 H485 0.929 . S
C494 C486 1.378 . S
C494 C489 1.350 . S
C495 H482 0.929 . S
C495 C487 1.433 . S
C495 N497 1.384 . S
N496 C492 1.427 . S
N496 C493 1.384 . S
N497 C489 1.427 . S
N497 C495 1.384 . S
H498 C504 0.930 . S
H499 C508 0.930 . S
H500 C513 0.929 . S
H501 C511 0.929 . S
H502 C506 0.929 . S
H503 C512 0.929 . S
C504 H498 0.930 . S
C504 C505 1.367 . S
C504 C512 1.378 . S
C505 C504 1.367 . S
C505 C513 1.433 . S
C506 H502 0.929 . S
C506 C508 1.378 . S
C506 C510 1.350 . S
C507 C510 1.463 . S
C507 C512 1.350 . S
C507 N515 1.427 . S
C508 H499 0.930 . S
C508 C506 1.378 . S
C508 C509 1.367 . S
C509 C508 1.367 . S
C509 C511 1.433 . S
C510 C506 1.350 . S
C510 C507 1.463 . S
C510 N514 1.427 . S
C511 H501 0.929 . S
C511 C509 1.433 . S
C511 N514 1.384 . S
C512 H503 0.929 . S
C512 C504 1.378 . S
C512 C507 1.350 . S
C513 H500 0.929 . S
C513 C505 1.433 . S
C513 N515 1.384 . S
N514 C510 1.427 . S
N514 C511 1.384 . S
N515 C507 1.427 . S
N515 C513 1.384 . S
H516 C522 0.930 . S
H517 C526 0.930 . S
H518 C531 0.929 . S
H519 C529 0.929 . S
H520 C524 0.929 . S
H521 C530 0.929 . S
C522 H516 0.930 . S
C522 C523 1.367 . S
C522 C530 1.378 . S
C523 C522 1.367 . S
C523 C531 1.433 . S
C524 H520 0.929 . S
C524 C526 1.378 . S
C524 C528 1.350 . S
C525 C528 1.463 . S
C525 C530 1.350 . S
C525 N533 1.427 . S
C526 H517 0.930 . S
C526 C524 1.378 . S
C526 C527 1.367 . S
C527 C526 1.367 . S
C527 C529 1.433 . S
C528 C524 1.350 . S
C528 C525 1.463 . S
C528 N532 1.427 . S
C529 H519 0.929 . S
C529 C527 1.433 . S
C529 N532 1.384 . S
C530 H521 0.929 . S
C530 C522 1.378 . S
C530 C525 1.350 . S
C531 H518 0.929 . S
C531 C523 1.433 . S
C531 N533 1.384 . S
N532 C528 1.427 . S
N532 C529 1.384 . S
N533 C525 1.427 . S
N533 C531 1.384 . S
H534 C540 0.930 . S
H535 C544 0.930 . S
H536 C549 0.929 . S
H537 C547 0.929 . S
H538 C542 0.929 . S
H539 C548 0.929 . S
C540 H534 0.930 . S
C540 C541 1.367 . S
C540 C548 1.378 . S
C541 C540 1.367 . S
C541 C549 1.433 . S
C542 H538 0.929 . S
C542 C544 1.378 . S
C542 C546 1.350 . S
C543 C546 1.463 . S
C543 C548 1.350 . S
C543 N551 1.427 . S
C544 H535 0.930 . S
C544 C542 1.378 . S
C544 C545 1.367 . S
C545 C544 1.367 . S
C545 C547 1.433 . S
C546 C542 1.350 . S
C546 C543 1.463 . S
C546 N550 1.427 . S
C547 H537 0.929 . S
C547 C545 1.433 . S
C547 N550 1.384 . S
C548 H539 0.929 . S
C548 C540 1.378 . S
C548 C543 1.350 . S
C549 H536 0.929 . S
C549 C541 1.433 . S
C549 N551 1.384 . S
N550 C546 1.427 . S
N550 C547 1.384 . S
N551 C543 1.427 . S
N551 C549 1.384 . S
H552 C558 0.930 . S
H553 C562 0.930 . S
H554 C567 0.929 . S
H555 C565 0.932 . S
H556 C560 0.929 . S
H557 C566 0.929 . S
C558 H552 0.930 . S
C558 C559 1.367 . S
C558 C566 1.378 . S
C559 C558 1.367 . S
C559 C567 1.433 . S
C560 H556 0.929 . S
C560 C562 1.378 1_556 S
C560 C564 1.350 . S
C561 C564 1.463 . S
C561 C566 1.350 . S
C561 N569 1.427 . S
C562 H553 0.930 . S
C562 C560 1.378 1_554 S
C562 C563 1.367 . S
C563 C562 1.367 . S
C563 C565 1.436 . S
C564 C560 1.350 . S
C564 C561 1.463 . S
C564 N568 1.427 . S
C565 H555 0.932 . S
C565 C563 1.436 . S
C565 N568 1.379 1_554 S
C566 H557 0.929 . S
C566 C558 1.378 . S
C566 C561 1.350 . S
C567 H554 0.929 . S
C567 C559 1.433 . S
C567 N569 1.384 . S
N568 C564 1.427 . S
N568 C565 1.379 1_556 S
N569 C561 1.427 . S
N569 C567 1.384 . S
H570 C576 0.930 . S
H571 C580 0.930 . S
H572 C585 0.929 . S
H573 C583 0.929 . S
H574 C578 0.929 . S
H575 C584 0.929 . S
C576 H570 0.930 . S
C576 C577 1.367 . S
C576 C584 1.378 . S
C577 C576 1.367 . S
C577 C585 1.433 . S
C578 H574 0.929 . S
C578 C580 1.378 . S
C578 C582 1.350 . S
C579 C582 1.463 . S
C579 C584 1.350 . S
C579 N587 1.427 . S
C580 H571 0.930 . S
C580 C578 1.378 . S
C580 C581 1.367 . S
C581 C580 1.367 . S
C581 C583 1.433 . S
C582 C578 1.350 . S
C582 C579 1.463 . S
C582 N586 1.427 . S
C583 H573 0.929 . S
C583 C581 1.433 . S
C583 N586 1.384 . S
C584 H575 0.929 . S
C584 C576 1.378 . S
C584 C579 1.350 . S
C585 H572 0.929 . S
C585 C577 1.433 . S
C585 N587 1.384 . S
N586 C582 1.427 . S
N586 C583 1.384 . S
N587 C579 1.427 . S
N587 C585 1.384 . S
H588 C594 0.930 . S
H589 C598 0.930 . S
H590 C603 0.929 . S
H591 C601 0.929 . S
H592 C596 0.929 . S
H593 C602 0.929 . S
C594 H588 0.930 . S
C594 C595 1.367 . S
C594 C602 1.378 . S
C595 C594 1.367 . S
C595 C603 1.433 . S
C596 H592 0.929 . S
C596 C598 1.378 . S
C596 C600 1.350 . S
C597 C600 1.463 . S
C597 C602 1.350 . S
C597 N605 1.427 . S
C598 H589 0.930 . S
C598 C596 1.378 . S
C598 C599 1.367 . S
C599 C598 1.367 . S
C599 C601 1.433 . S
C600 C596 1.350 . S
C600 C597 1.463 . S
C600 N604 1.427 . S
C601 H591 0.929 . S
C601 C599 1.433 . S
C601 N604 1.384 . S
C602 H593 0.929 . S
C602 C594 1.378 . S
C602 C597 1.350 . S
C603 H590 0.929 . S
C603 C595 1.433 . S
C603 N605 1.384 . S
N604 C600 1.427 . S
N604 C601 1.384 . S
N605 C597 1.427 . S
N605 C603 1.384 . S
H606 C612 0.930 . S
H607 C616 0.930 . S
H608 C621 0.929 . S
H609 C619 0.929 . S
H610 C614 0.929 . S
H611 C620 0.929 . S
C612 H606 0.930 . S
C612 C613 1.367 . S
C612 C620 1.378 . S
C613 C612 1.367 . S
C613 C621 1.433 . S
C614 H610 0.929 . S
C614 C616 1.378 . S
C614 C618 1.350 . S
C615 C618 1.463 . S
C615 C620 1.350 . S
C615 N623 1.427 . S
C616 H607 0.930 . S
C616 C614 1.378 . S
C616 C617 1.367 . S
C617 C616 1.367 . S
C617 C619 1.433 . S
C618 C614 1.350 . S
C618 C615 1.463 . S
C618 N622 1.427 . S
C619 H609 0.929 . S
C619 C617 1.433 . S
C619 N622 1.384 . S
C620 H611 0.929 . S
C620 C612 1.378 . S
C620 C615 1.350 . S
C621 H608 0.929 . S
C621 C613 1.433 . S
C621 N623 1.384 . S
N622 C618 1.427 . S
N622 C619 1.384 . S
N623 C615 1.427 . S
N623 C621 1.384 . S
H624 C630 0.930 . S
H625 C634 0.930 . S
H626 C639 0.929 . S
H627 C637 0.929 . S
H628 C632 0.929 . S
H629 C638 0.929 . S
C630 H624 0.930 . S
C630 C631 1.367 . S
C630 C638 1.378 . S
C631 C630 1.367 . S
C631 C639 1.433 . S
C632 H628 0.929 . S
C632 C634 1.378 . S
C632 C636 1.350 . S
C633 C636 1.463 . S
C633 C638 1.350 . S
C633 N641 1.427 . S
C634 H625 0.930 . S
C634 C632 1.378 . S
C634 C635 1.367 . S
C635 C634 1.367 . S
C635 C637 1.433 . S
C636 C632 1.350 . S
C636 C633 1.463 . S
C636 N640 1.427 . S
C637 H627 0.929 . S
C637 C635 1.433 . S
C637 N640 1.384 . S
C638 H629 0.929 . S
C638 C630 1.378 . S
C638 C633 1.350 . S
C639 H626 0.929 . S
C639 C631 1.433 . S
C639 N641 1.384 . S
N640 C636 1.427 . S
N640 C637 1.384 . S
N641 C633 1.427 . S
N641 C639 1.384 . S
H642 C648 0.930 . S
H643 C652 0.930 1_556 S
H644 C657 0.929 . S
H645 C655 0.929 . S
H646 C650 0.952 . S
H647 C656 0.929 . S
C648 H642 0.930 . S
C648 C649 1.367 . S
C648 C656 1.378 . S
C649 C648 1.367 . S
C649 C657 1.433 . S
C650 H646 0.952 . S
C650 C652 1.378 . S
C650 C654 1.350 . S
C651 C654 1.463 . S
C651 C656 1.350 . S
C651 N659 1.427 . S
C652 H643 0.930 1_554 S
C652 C650 1.378 . S
C652 C653 1.367 . S
C653 C652 1.367 . S
C653 C655 1.433 . S
C654 C650 1.350 . S
C654 C651 1.463 . S
C654 N658 1.427 . S
C655 H645 0.929 . S
C655 C653 1.433 . S
C655 N658 1.384 . S
C656 H647 0.929 . S
C656 C648 1.378 . S
C656 C651 1.350 . S
C657 H644 0.929 . S
C657 C649 1.433 . S
C657 N659 1.384 . S
N658 C654 1.427 . S
N658 C655 1.384 . S
N659 C651 1.427 . S
N659 C657 1.384 . S
H660 C666 0.930 . S
H661 C670 0.930 . S
H662 C675 0.929 . S
H663 C673 0.929 . S
H664 C668 0.929 . S
H665 C674 0.929 . S
C666 H660 0.930 . S
C666 C667 1.367 . S
C666 C674 1.378 . S
C667 C666 1.367 . S
C667 C675 1.433 . S
C668 H664 0.929 . S
C668 C670 1.378 . S
C668 C672 1.350 . S
C669 C672 1.463 . S
C669 C674 1.350 . S
C669 N677 1.427 . S
C670 H661 0.930 . S
C670 C668 1.378 . S
C670 C671 1.367 . S
C671 C670 1.367 . S
C671 C673 1.433 . S
C672 C668 1.350 . S
C672 C669 1.463 . S
C672 N676 1.427 . S
C673 H663 0.929 . S
C673 C671 1.433 . S
C673 N676 1.384 . S
C674 H665 0.929 . S
C674 C666 1.378 . S
C674 C669 1.350 . S
C675 H662 0.929 . S
C675 C667 1.433 . S
C675 N677 1.384 . S
N676 C672 1.427 . S
N676 C673 1.384 . S
N677 C669 1.427 . S
N677 C675 1.384 . S
H678 C684 0.930 . S
H679 C688 0.930 . S
H680 C693 0.929 . S
H681 C691 0.929 . S
H682 C686 0.929 . S
H683 C692 0.929 . S
C684 H678 0.930 . S
C684 C685 1.367 . S
C684 C692 1.378 . S
C685 C684 1.367 . S
C685 C693 1.433 . S
C686 H682 0.929 . S
C686 C688 1.378 . S
C686 C690 1.350 . S
C687 C690 1.463 . S
C687 C692 1.350 . S
C687 N695 1.427 . S
C688 H679 0.930 . S
C688 C686 1.378 . S
C688 C689 1.367 . S
C689 C688 1.367 . S
C689 C691 1.433 . S
C690 C686 1.350 . S
C690 C687 1.463 . S
C690 N694 1.427 . S
C691 H681 0.929 . S
C691 C689 1.433 . S
C691 N694 1.384 . S
C692 H683 0.929 . S
C692 C684 1.378 . S
C692 C687 1.350 . S
C693 H680 0.929 . S
C693 C685 1.433 . S
C693 N695 1.384 . S
N694 C690 1.427 . S
N694 C691 1.384 . S
N695 C687 1.427 . S
N695 C693 1.384 . S
H696 C702 0.930 . S
H697 C706 0.930 . S
H698 C711 0.929 . S
H699 C709 0.929 . S
H700 C704 0.929 . S
H701 C710 0.929 . S
C702 H696 0.930 . S
C702 C703 1.367 . S
C702 C710 1.378 . S
C703 C702 1.367 . S
C703 C711 1.433 . S
C704 H700 0.929 . S
C704 C706 1.378 . S
C704 C708 1.350 . S
C705 C708 1.463 . S
C705 C710 1.350 . S
C705 N713 1.427 . S
C706 H697 0.930 . S
C706 C704 1.378 . S
C706 C707 1.367 . S
C707 C706 1.367 . S
C707 C709 1.433 . S
C708 C704 1.350 . S
C708 C705 1.463 . S
C708 N712 1.427 . S
C709 H699 0.929 . S
C709 C707 1.433 . S
C709 N712 1.384 . S
C710 H701 0.929 . S
C710 C702 1.378 . S
C710 C705 1.350 . S
C711 H698 0.929 . S
C711 C703 1.433 . S
C711 N713 1.384 . S
N712 C708 1.427 . S
N712 C709 1.384 . S
N713 C705 1.427 . S
N713 C711 1.384 . S
H714 C720 0.930 . S
H715 C724 0.930 . S
H716 C729 0.929 . S
H717 C727 0.929 . S
H718 C722 0.929 . S
H719 C728 0.929 . S
C720 H714 0.930 . S
C720 C721 1.367 . S
C720 C728 1.378 . S
C721 C720 1.367 . S
C721 C729 1.433 . S
C722 H718 0.929 . S
C722 C724 1.378 . S
C722 C726 1.350 . S
C723 C726 1.463 . S
C723 C728 1.350 . S
C723 N731 1.427 . S
C724 H715 0.930 . S
C724 C722 1.378 . S
C724 C725 1.367 . S
C725 C724 1.367 . S
C725 C727 1.433 . S
C726 C722 1.350 . S
C726 C723 1.463 . S
C726 N730 1.427 . S
C727 H717 0.929 . S
C727 C725 1.433 . S
C727 N730 1.384 . S
C728 H719 0.929 . S
C728 C720 1.378 . S
C728 C723 1.350 . S
C729 H716 0.929 . S
C729 C721 1.433 . S
C729 N731 1.384 . S
N730 C726 1.427 . S
N730 C727 1.384 . S
N731 C723 1.427 . S
N731 C729 1.384 . S
H732 C738 0.930 . S
H733 C742 0.930 . S
H734 C747 0.929 . S
H735 C745 0.929 . S
H736 C740 0.929 . S
H737 C746 0.933 . S
C738 H732 0.930 . S
C738 C739 1.367 . S
C738 C746 1.378 . S
C739 C738 1.367 . S
C739 C747 1.433 . S
C740 H736 0.929 . S
C740 C742 1.378 . S
C740 C744 1.350 . S
C741 C744 1.463 . S
C741 C746 1.350 . S
C741 N749 1.427 . S
C742 H733 0.930 . S
C742 C740 1.378 . S
C742 C743 1.367 . S
C743 C742 1.367 . S
C743 C745 1.433 1_556 S
C744 C740 1.350 . S
C744 C741 1.463 . S
C744 N748 1.427 . S
C745 H735 0.929 . S
C745 C743 1.433 1_554 S
C745 N748 1.384 1_554 S
C746 H737 0.933 . S
C746 C738 1.378 . S
C746 C741 1.350 . S
C747 H734 0.929 . S
C747 C739 1.433 . S
C747 N749 1.384 . S
N748 C744 1.427 . S
N748 C745 1.384 1_556 S
N749 C741 1.427 . S
N749 C747 1.384 . S
H750 C756 0.930 . S
H751 C760 0.930 . S
H752 C765 0.929 . S
H753 C763 0.929 . S
H754 C758 0.929 . S
H755 C764 0.929 . S
C756 H750 0.930 . S
C756 C757 1.367 . S
C756 C764 1.378 . S
C757 C756 1.367 . S
C757 C765 1.433 . S
C758 H754 0.929 . S
C758 C760 1.378 . S
C758 C762 1.350 . S
C759 C762 1.463 . S
C759 C764 1.350 . S
C759 N767 1.427 . S
C760 H751 0.930 . S
C760 C758 1.378 . S
C760 C761 1.367 . S
C761 C760 1.367 . S
C761 C763 1.433 . S
C762 C758 1.350 . S
C762 C759 1.463 . S
C762 N766 1.427 . S
C763 H753 0.929 . S
C763 C761 1.433 . S
C763 N766 1.384 . S
C764 H755 0.929 . S
C764 C756 1.378 . S
C764 C759 1.350 . S
C765 H752 0.929 . S
C765 C757 1.433 . S
C765 N767 1.384 . S
N766 C762 1.427 . S
N766 C763 1.384 . S
N767 C759 1.427 . S
N767 C765 1.384 . S
H768 C774 0.930 . S
H769 C778 0.930 . S
H770 C783 0.929 . S
H771 C781 0.929 . S
H772 C776 0.929 . S
H773 C782 0.929 . S
C774 H768 0.930 . S
C774 C775 1.367 . S
C774 C782 1.378 . S
C775 C774 1.367 . S
C775 C783 1.433 . S
C776 H772 0.929 . S
C776 C778 1.378 . S
C776 C780 1.350 . S
C777 C780 1.463 . S
C777 C782 1.350 . S
C777 N785 1.427 . S
C778 H769 0.930 . S
C778 C776 1.378 . S
C778 C779 1.367 . S
C779 C778 1.367 . S
C779 C781 1.433 . S
C780 C776 1.350 . S
C780 C777 1.463 . S
C780 N784 1.427 . S
C781 H771 0.929 . S
C781 C779 1.433 . S
C781 N784 1.384 . S
C782 H773 0.929 . S
C782 C774 1.378 . S
C782 C777 1.350 . S
C783 H770 0.929 . S
C783 C775 1.433 . S
C783 N785 1.384 . S
N784 C780 1.427 . S
N784 C781 1.384 . S
N785 C777 1.427 . S
N785 C783 1.384 . S
H786 C792 0.930 . S
H787 C796 0.930 . S
H788 C801 0.929 . S
H789 C799 0.929 . S
H790 C794 0.929 . S
H791 C800 0.929 . S
C792 H786 0.930 . S
C792 C793 1.367 . S
C792 C800 1.378 . S
C793 C792 1.367 . S
C793 C801 1.433 . S
C794 H790 0.929 . S
C794 C796 1.378 . S
C794 C798 1.350 . S
C795 C798 1.463 . S
C795 C800 1.350 . S
C795 N803 1.427 . S
C796 H787 0.930 . S
C796 C794 1.378 . S
C796 C797 1.367 . S
C797 C796 1.367 . S
C797 C799 1.433 . S
C798 C794 1.350 . S
C798 C795 1.463 . S
C798 N802 1.427 . S
C799 H789 0.929 . S
C799 C797 1.433 . S
C799 N802 1.384 . S
C800 H791 0.929 . S
C800 C792 1.378 . S
C800 C795 1.350 . S
C801 H788 0.929 . S
C801 C793 1.433 . S
C801 N803 1.384 . S
N802 C798 1.427 . S
N802 C799 1.384 . S
N803 C795 1.427 . S
N803 C801 1.384 . S
H804 C810 0.930 . S
H805 C814 0.930 . S
H806 C819 0.929 . S
H807 C817 0.929 . S
H808 C812 0.929 . S
H809 C818 0.929 . S
C810 H804 0.930 . S
C810 C811 1.367 . S
C810 C818 1.378 . S
C811 C810 1.367 . S
C811 C819 1.433 . S
C812 H808 0.929 . S
C812 C814 1.378 . S
C812 C816 1.350 . S
C813 C816 1.463 . S
C813 C818 1.350 . S
C813 N821 1.427 . S
C814 H805 0.930 . S
C814 C812 1.378 . S
C814 C815 1.367 . S
C815 C814 1.367 . S
C815 C817 1.433 . S
C816 C812 1.350 . S
C816 C813 1.463 . S
C816 N820 1.427 . S
C817 H807 0.929 . S
C817 C815 1.433 . S
C817 N820 1.384 . S
C818 H809 0.929 . S
C818 C810 1.378 . S
C818 C813 1.350 . S
C819 H806 0.929 . S
C819 C811 1.433 . S
C819 N821 1.384 . S
N820 C816 1.427 . S
N820 C817 1.384 . S
N821 C813 1.427 . S
N821 C819 1.384 . S
H822 C828 0.930 . S
H823 C832 0.930 . S
H824 C837 0.929 . S
H825 C835 0.929 . S
H826 C830 0.929 . S
H827 C836 0.929 . S
C828 H822 0.930 . S
C828 C829 1.367 . S
C828 C836 1.378 . S
C829 C828 1.367 . S
C829 C837 1.433 . S
C830 H826 0.929 . S
C830 C832 1.378 . S
C830 C834 1.350 . S
C831 C834 1.463 . S
C831 C836 1.350 . S
C831 N839 1.427 . S
C832 H823 0.930 . S
C832 C830 1.378 . S
C832 C833 1.367 . S
C833 C832 1.367 . S
C833 C835 1.433 . S
C834 C830 1.350 . S
C834 C831 1.463 . S
C834 N838 1.427 . S
C835 H825 0.929 . S
C835 C833 1.433 . S
C835 N838 1.384 . S
C836 H827 0.929 . S
C836 C828 1.378 . S
C836 C831 1.350 . S
C837 H824 0.929 . S
C837 C829 1.433 . S
C837 N839 1.384 . S
N838 C834 1.427 . S
N838 C835 1.384 . S
N839 C831 1.427 . S
N839 C837 1.384 . S
H840 C846 0.930 . S
H841 C850 0.930 . S
H842 C855 0.929 . S
H843 C853 0.929 . S
H844 C848 0.929 . S
H845 C854 0.929 . S
C846 H840 0.930 . S
C846 C847 1.367 . S
C846 C854 1.378 . S
C847 C846 1.367 . S
C847 C855 1.433 . S
C848 H844 0.929 . S
C848 C850 1.378 . S
C848 C852 1.350 . S
C849 C852 1.463 . S
C849 C854 1.350 . S
C849 N857 1.427 . S
C850 H841 0.930 . S
C850 C848 1.378 . S
C850 C851 1.367 . S
C851 C850 1.367 . S
C851 C853 1.433 . S
C852 C848 1.350 . S
C852 C849 1.463 . S
C852 N856 1.427 . S
C853 H843 0.929 . S
C853 C851 1.433 . S
C853 N856 1.384 . S
C854 H845 0.929 . S
C854 C846 1.378 . S
C854 C849 1.350 . S
C855 H842 0.929 . S
C855 C847 1.433 . S
C855 N857 1.384 . S
N856 C852 1.427 . S
N856 C853 1.384 . S
N857 C849 1.427 . S
N857 C855 1.384 . S
H858 C864 0.930 . S
H859 C868 0.930 . S
H860 C873 0.929 . S
H861 C871 0.929 . S
H862 C866 0.929 . S
H863 C872 0.929 . S
C864 H858 0.930 . S
C864 C865 1.367 . S
C864 C872 1.378 . S
C865 C864 1.367 . S
C865 C873 1.433 . S
C866 H862 0.929 . S
C866 C868 1.378 . S
C866 C870 1.350 . S
C867 C870 1.463 . S
C867 C872 1.350 . S
C867 N875 1.427 . S
C868 H859 0.930 . S
C868 C866 1.378 . S
C868 C869 1.367 . S
C869 C868 1.367 . S
C869 C871 1.433 . S
C870 C866 1.350 . S
C870 C867 1.463 . S
C870 N874 1.427 . S
C871 H861 0.929 . S
C871 C869 1.433 . S
C871 N874 1.384 . S
C872 H863 0.929 . S
C872 C864 1.378 . S
C872 C867 1.350 . S
C873 H860 0.929 . S
C873 C865 1.433 . S
C873 N875 1.384 . S
N874 C870 1.427 . S
N874 C871 1.384 . S
N875 C867 1.427 . S
N875 C873 1.384 . S
H876 C882 0.930 . S
H877 C886 0.930 . S
H878 C891 0.929 . S
H879 C889 0.929 . S
H880 C884 0.929 . S
H881 C890 0.929 . S
C882 H876 0.930 . S
C882 C883 1.367 . S
C882 C890 1.378 . S
C883 C882 1.367 . S
C883 C891 1.433 . S
C884 H880 0.929 . S
C884 C886 1.378 . S
C884 C888 1.350 . S
C885 C888 1.463 . S
C885 C890 1.350 . S
C885 N893 1.427 . S
C886 H877 0.930 . S
C886 C884 1.378 . S
C886 C887 1.367 . S
C887 C886 1.367 . S
C887 C889 1.433 . S
C888 C884 1.350 . S
C888 C885 1.463 . S
C888 N892 1.427 . S
C889 H879 0.929 . S
C889 C887 1.433 . S
C889 N892 1.384 . S
C890 H881 0.929 . S
C890 C882 1.378 . S
C890 C885 1.350 . S
C891 H878 0.929 . S
C891 C883 1.433 . S
C891 N893 1.384 . S
N892 C888 1.427 . S
N892 C889 1.384 . S
N893 C885 1.427 . S
N893 C891 1.384 . S
H894 C900 0.930 . S
H895 C904 0.930 . S
H896 C909 0.929 . S
H897 C907 0.929 . S
H898 C902 0.929 . S
H899 C908 0.929 . S
C900 H894 0.930 . S
C900 C901 1.367 . S
C900 C908 1.378 . S
C901 C900 1.367 . S
C901 C909 1.433 . S
C902 H898 0.929 . S
C902 C904 1.378 . S
C902 C906 1.350 . S
C903 C906 1.463 . S
C903 C908 1.350 . S
C903 N911 1.427 . S
C904 H895 0.930 . S
C904 C902 1.378 . S
C904 C905 1.367 . S
C905 C904 1.367 . S
C905 C907 1.433 . S
C906 C902 1.350 . S
C906 C903 1.463 . S
C906 N910 1.427 . S
C907 H897 0.929 . S
C907 C905 1.433 . S
C907 N910 1.384 . S
C908 H899 0.929 . S
C908 C900 1.378 . S
C908 C903 1.350 . S
C909 H896 0.929 . S
C909 C901 1.433 . S
C909 N911 1.384 . S
N910 C906 1.427 . S
N910 C907 1.384 . S
N911 C903 1.427 . S
N911 C909 1.384 . S
H912 C918 0.930 . S
H913 C922 0.930 . S
H914 C927 0.929 . S
H915 C925 0.929 . S
H916 C920 0.929 . S
H917 C926 0.929 . S
C918 H912 0.930 . S
C918 C919 1.367 . S
C918 C926 1.378 . S
C919 C918 1.367 . S
C919 C927 1.433 . S
C920 H916 0.929 . S
C920 C922 1.378 . S
C920 C924 1.350 . S
C921 C924 1.463 . S
C921 C926 1.350 . S
C921 N929 1.427 . S
C922 H913 0.930 . S
C922 C920 1.378 . S
C922 C923 1.367 . S
C923 C922 1.367 . S
C923 C925 1.433 . S
C924 C920 1.350 . S
C924 C921 1.463 . S
C924 N928 1.427 . S
C925 H915 0.929 . S
C925 C923 1.433 . S
C925 N928 1.384 . S
C926 H917 0.929 . S
C926 C918 1.378 . S
C926 C921 1.350 . S
C927 H914 0.929 . S
C927 C919 1.433 . S
C927 N929 1.384 . S
N928 C924 1.427 . S
N928 C925 1.384 . S
N929 C921 1.427 . S
N929 C927 1.384 . S
H930 C936 0.930 . S
H931 C940 0.930 . S
H932 C945 0.929 . S
H933 C943 0.929 . S
H934 C938 0.929 . S
H935 C944 0.929 . S
C936 H930 0.930 . S
C936 C937 1.367 . S
C936 C944 1.378 . S
C937 C936 1.367 . S
C937 C945 1.433 . S
C938 H934 0.929 . S
C938 C940 1.378 . S
C938 C942 1.350 . S
C939 C942 1.463 . S
C939 C944 1.350 . S
C939 N947 1.427 . S
C940 H931 0.930 . S
C940 C938 1.378 . S
C940 C941 1.367 . S
C941 C940 1.367 . S
C941 C943 1.433 . S
C942 C938 1.350 . S
C942 C939 1.463 . S
C942 N946 1.427 . S
C943 H933 0.929 . S
C943 C941 1.433 . S
C943 N946 1.384 . S
C944 H935 0.929 . S
C944 C936 1.378 . S
C944 C939 1.350 . S
C945 H932 0.929 . S
C945 C937 1.433 . S
C945 N947 1.384 . S
N946 C942 1.427 . S
N946 C943 1.384 . S
N947 C939 1.427 . S
N947 C945 1.384 . S
H948 C954 0.930 . S
H949 C958 0.930 . S
H950 C963 0.929 . S
H951 C961 0.929 . S
H952 C956 0.929 . S
H953 C962 0.929 . S
C954 H948 0.930 . S
C954 C955 1.367 . S
C954 C962 1.378 . S
C955 C954 1.367 . S
C955 C963 1.433 . S
C956 H952 0.929 . S
C956 C958 1.378 . S
C956 C960 1.350 . S
C957 C960 1.463 . S
C957 C962 1.350 . S
C957 N965 1.427 . S
C958 H949 0.930 . S
C958 C956 1.378 . S
C958 C959 1.367 . S
C959 C958 1.367 . S
C959 C961 1.433 . S
C960 C956 1.350 . S
C960 C957 1.463 . S
C960 N964 1.427 . S
C961 H951 0.929 . S
C961 C959 1.433 . S
C961 N964 1.384 . S
C962 H953 0.929 . S
C962 C954 1.378 . S
C962 C957 1.350 . S
C963 H950 0.929 . S
C963 C955 1.433 . S
C963 N965 1.384 . S
N964 C960 1.427 . S
N964 C961 1.384 . S
N965 C957 1.427 . S
N965 C963 1.384 . S
H966 C972 0.930 . S
H967 C976 0.930 . S
H968 C981 0.929 . S
H969 C979 0.929 . S
H970 C974 0.929 . S
H971 C980 0.929 . S
C972 H966 0.930 . S
C972 C973 1.367 . S
C972 C980 1.378 . S
C973 C972 1.367 . S
C973 C981 1.433 . S
C974 H970 0.929 . S
C974 C976 1.378 . S
C974 C978 1.350 . S
C975 C978 1.463 . S
C975 C980 1.350 . S
C975 N983 1.427 . S
C976 H967 0.930 . S
C976 C974 1.378 . S
C976 C977 1.367 . S
C977 C976 1.367 . S
C977 C979 1.433 . S
C978 C974 1.350 . S
C978 C975 1.463 . S
C978 N982 1.427 . S
C979 H969 0.929 . S
C979 C977 1.433 . S
C979 N982 1.384 . S
C980 H971 0.929 . S
C980 C972 1.378 . S
C980 C975 1.350 . S
C981 H968 0.929 . S
C981 C973 1.433 . S
C981 N983 1.384 . S
N982 C978 1.427 . S
N982 C979 1.384 . S
N983 C975 1.427 . S
N983 C981 1.384 . S
H984 C990 0.930 . S
H985 C994 0.930 . S
H986 C999 0.929 . S
H987 C997 0.929 . S
H988 C992 0.929 . S
H989 C998 0.929 . S
C990 H984 0.930 . S
C990 C991 1.367 . S
C990 C998 1.378 . S
C991 C990 1.367 . S
C991 C999 1.433 . S
C992 H988 0.929 . S
C992 C994 1.378 . S
C992 C996 1.350 . S
C993 C996 1.463 . S
C993 C998 1.350 . S
C993 N1001 1.427 . S
C994 H985 0.930 . S
C994 C992 1.378 . S
C994 C995 1.367 . S
C995 C994 1.367 . S
C995 C997 1.433 . S
C996 C992 1.350 . S
C996 C993 1.463 . S
C996 N1000 1.427 . S
C997 H987 0.929 . S
C997 C995 1.433 . S
C997 N1000 1.384 . S
C998 H989 0.929 . S
C998 C990 1.378 . S
C998 C993 1.350 . S
C999 H986 0.929 . S
C999 C991 1.433 . S
C999 N1001 1.384 . S
N1000 C996 1.427 . S
N1000 C997 1.384 . S
N1001 C993 1.427 . S
N1001 C999 1.384 . S
H1002 C1008 0.930 . S
H1003 C1012 0.930 . S
H1004 C1017 0.929 . S
H1005 C1015 0.929 . S
H1006 C1010 0.929 . S
H1007 C1016 0.929 . S
C1008 H1002 0.930 . S
C1008 C1009 1.367 . S
C1008 C1016 1.378 . S
C1009 C1008 1.367 . S
C1009 C1017 1.433 . S
C1010 H1006 0.929 . S
C1010 C1012 1.378 . S
C1010 C1014 1.350 . S
C1011 C1014 1.463 . S
C1011 C1016 1.350 . S
C1011 N1019 1.427 . S
C1012 H1003 0.930 . S
C1012 C1010 1.378 . S
C1012 C1013 1.367 . S
C1013 C1012 1.367 . S
C1013 C1015 1.433 . S
C1014 C1010 1.350 . S
C1014 C1011 1.463 . S
C1014 N1018 1.427 . S
C1015 H1005 0.929 . S
C1015 C1013 1.433 . S
C1015 N1018 1.384 . S
C1016 H1007 0.929 . S
C1016 C1008 1.378 . S
C1016 C1011 1.350 . S
C1017 H1004 0.929 . S
C1017 C1009 1.433 . S
C1017 N1019 1.384 . S
N1018 C1014 1.427 . S
N1018 C1015 1.384 . S
N1019 C1011 1.427 . S
N1019 C1017 1.384 . S
H1020 C1026 0.930 . S
H1021 C1030 0.930 . S
H1022 C1035 0.929 . S
H1023 C1033 0.929 . S
H1024 C1028 0.929 . S
H1025 C1034 0.929 . S
C1026 H1020 0.930 . S
C1026 C1027 1.367 . S
C1026 C1034 1.378 . S
C1027 C1026 1.367 . S
C1027 C1035 1.433 . S
C1028 H1024 0.929 . S
C1028 C1030 1.378 . S
C1028 C1032 1.350 . S
C1029 C1032 1.463 . S
C1029 C1034 1.350 . S
C1029 N1037 1.427 . S
C1030 H1021 0.930 . S
C1030 C1028 1.378 . S
C1030 C1031 1.367 . S
C1031 C1030 1.367 . S
C1031 C1033 1.433 . S
C1032 C1028 1.350 . S
C1032 C1029 1.463 . S
C1032 N1036 1.427 . S
C1033 H1023 0.929 . S
C1033 C1031 1.433 . S
C1033 N1036 1.384 . S
C1034 H1025 0.929 . S
C1034 C1026 1.378 . S
C1034 C1029 1.350 . S
C1035 H1022 0.929 . S
C1035 C1027 1.433 . S
C1035 N1037 1.384 . S
N1036 C1032 1.427 . S
N1036 C1033 1.384 . S
N1037 C1029 1.427 . S
N1037 C1035 1.384 . S
H1038 C1044 0.930 . S
H1039 C1048 0.930 . S
H1040 C1053 0.929 . S
H1041 C1051 0.929 . S
H1042 C1046 0.929 . S
H1043 C1052 0.929 . S
C1044 H1038 0.930 . S
C1044 C1045 1.367 . S
C1044 C1052 1.378 . S
C1045 C1044 1.367 . S
C1045 C1053 1.433 . S
C1046 H1042 0.929 . S
C1046 C1048 1.378 . S
C1046 C1050 1.350 . S
C1047 C1050 1.463 . S
C1047 C1052 1.350 . S
C1047 N1055 1.427 . S
C1048 H1039 0.930 . S
C1048 C1046 1.378 . S
C1048 C1049 1.367 . S
C1049 C1048 1.367 . S
C1049 C1051 1.433 . S
C1050 C1046 1.350 . S
C1050 C1047 1.463 . S
C1050 N1054 1.427 . S
C1051 H1041 0.929 . S
C1051 C1049 1.433 . S
C1051 N1054 1.384 . S
C1052 H1043 0.929 . S
C1052 C1044 1.378 . S
C1052 C1047 1.350 . S
C1053 H1040 0.929 . S
C1053 C1045 1.433 . S
C1053 N1055 1.384 . S
N1054 C1050 1.427 . S
N1054 C1051 1.384 . S
N1055 C1047 1.427 . S
N1055 C1053 1.384 . S
C491 C389 1.336 . S
C487 C8 1.318 . S
C509 C409 1.378 . S
C505 C61 1.383 . S
C527 C423 1.404 . S
C523 C107 1.411 . S
C541 C139 1.403 . S
C545 C381 1.407 . S
C559 C192 1.404 . S
C563 C375 1.460 . S
C577 C238 1.392 . S
C581 C395 1.396 . S
C599 C403 1.324 . S
C595 C284 1.294 . S
C617 C417 1.402 . S
C613 C330 1.365 . S
C631 C100 1.355 . S
C635 C445 1.406 . S
C653 C459 1.322 . S
C649 C160 1.290 . S
C667 C15 1.385 . S
C671 C479 1.394 . S
C689 C431 1.459 . S
C685 C54 1.411 . S
C703 C291 1.413 . S
C707 C437 1.411 . S
C721 C337 1.400 . S
C725 C451 1.392 . S
C743 C465 1.378 1_556 S
C739 C199 1.394 . S
C757 C245 1.320 . S
C761 C473 1.334 . S
C779 C404 1.731 . S
C775 C1 1.716 . S
C797 C418 1.744 . S
C793 C68 1.705 . S
C811 C114 1.638 . S
C815 C376 1.666 . S
C829 C146 1.494 . S
C833 C393 1.504 . S
C847 C185 1.369 . S
C851 C421 1.378 . S
C869 C379 1.352 . S
C865 C231 1.347 . S
C887 C390 1.562 . S
C883 C277 1.556 . S
C905 C407 1.437 . S
C901 C323 1.433 . S
C923 C463 1.437 . S
C919 C93 1.433 . S
C941 C474 1.566 . S
C937 C153 1.554 . S
C955 C22 1.340 . S
C959 C435 1.352 . S
C977 C449 1.376 . S
C973 C47 1.375 . S
C995 C477 1.501 . S
C991 C298 1.484 . S
C1009 C344 1.635 . S
C1013 C432 1.669 . S
C1031 C446 1.741 . S
C1027 C206 1.708 . S
C1049 C460 1.729 . S
C1045 C252 1.707 . S
