# Generated by pormake.
# Topology pyr, (3,6)-cn, num edge types: 1
# Building blocks:
#     Node 0, Type 0, BuildingBlock: BELTOD_clean_linker_0, # of connection points: 3
#     Node 1, Type 0, BuildingBlock: BELTOD_clean_linker_0, # of connection points: 3
#     Node 2, Type 0, BuildingBlock: BELTOD_clean_linker_0, # of connection points: 3
#     Node 3, Type 0, BuildingBlock: BELTOD_clean_linker_0, # of connection points: 3
#     Node 4, Type 0, BuildingBlock: BELTOD_clean_linker_0, # of connection points: 3
#     Node 5, Type 0, BuildingBlock: BELTOD_clean_linker_0, # of connection points: 3
#     Node 6, Type 0, BuildingBlock: BELTOD_clean_linker_0, # of connection points: 3
#     Node 7, Type 0, BuildingBlock: BELTOD_clean_linker_0, # of connection points: 3
#     Node 8, Type 1, BuildingBlock: GEDQOX_clean_sbu_0, # of connection points: 6
#     Node 9, Type 1, BuildingBlock: GEDQOX_clean_sbu_0, # of connection points: 6
#     Node 10, Type 1, BuildingBlock: GEDQOX_clean_sbu_0, # of connection points: 6
#     Node 11, Type 1, BuildingBlock: GEDQOX_clean_sbu_0, # of connection points: 6
#     Edge 12, Type (0, 1), BuildingBlock: MIFKUJ_clean_linker_0, # of connection points: 2
#     Edge 13, Type (0, 1), BuildingBlock: MIFKUJ_clean_linker_0, # of connection points: 2
#     Edge 14, Type (0, 1), BuildingBlock: MIFKUJ_clean_linker_0, # of connection points: 2
#     Edge 15, Type (0, 1), BuildingBlock: MIFKUJ_clean_linker_0, # of connection points: 2
#     Edge 16, Type (0, 1), BuildingBlock: MIFKUJ_clean_linker_0, # of connection points: 2
#     Edge 17, Type (0, 1), BuildingBlock: MIFKUJ_clean_linker_0, # of connection points: 2
#     Edge 18, Type (0, 1), BuildingBlock: MIFKUJ_clean_linker_0, # of connection points: 2
#     Edge 19, Type (0, 1), BuildingBlock: MIFKUJ_clean_linker_0, # of connection points: 2
#     Edge 20, Type (0, 1), BuildingBlock: MIFKUJ_clean_linker_0, # of connection points: 2
#     Edge 21, Type (0, 1), BuildingBlock: MIFKUJ_clean_linker_0, # of connection points: 2
#     Edge 22, Type (0, 1), BuildingBlock: MIFKUJ_clean_linker_0, # of connection points: 2
#     Edge 23, Type (0, 1), BuildingBlock: MIFKUJ_clean_linker_0, # of connection points: 2
#     Edge 24, Type (0, 1), BuildingBlock: MIFKUJ_clean_linker_0, # of connection points: 2
#     Edge 25, Type (0, 1), BuildingBlock: MIFKUJ_clean_linker_0, # of connection points: 2
#     Edge 26, Type (0, 1), BuildingBlock: MIFKUJ_clean_linker_0, # of connection points: 2
#     Edge 27, Type (0, 1), BuildingBlock: MIFKUJ_clean_linker_0, # of connection points: 2
#     Edge 28, Type (0, 1), BuildingBlock: MIFKUJ_clean_linker_0, # of connection points: 2
#     Edge 29, Type (0, 1), BuildingBlock: MIFKUJ_clean_linker_0, # of connection points: 2
#     Edge 30, Type (0, 1), BuildingBlock: MIFKUJ_clean_linker_0, # of connection points: 2
#     Edge 31, Type (0, 1), BuildingBlock: MIFKUJ_clean_linker_0, # of connection points: 2
#     Edge 32, Type (0, 1), BuildingBlock: MIFKUJ_clean_linker_0, # of connection points: 2
#     Edge 33, Type (0, 1), BuildingBlock: MIFKUJ_clean_linker_0, # of connection points: 2
#     Edge 34, Type (0, 1), BuildingBlock: MIFKUJ_clean_linker_0, # of connection points: 2
#     Edge 35, Type (0, 1), BuildingBlock: MIFKUJ_clean_linker_0, # of connection points: 2
# Relax obj value: 0.087
# Max RMSD: 0.149
# Mean RMSD: 0.055
data_MOF--net-pyr--node1-GEDQOX_clean_sbu_0--node2-BELTOD_clean_linker_0--edge1-MIFKUJ_clean_linker_0
_symmetry_space_group_name_H-M    P1
_symmetry_Int_Tables_number       1
_symmetry_cell_setting            triclinic
loop_
_symmetry_equiv_pos_as_xyz
'x, y, z'
_cell_length_a     56.650653
_cell_length_b     57.026889
_cell_length_c     49.982276
_cell_angle_alpha  88.278811
_cell_angle_beta   92.17055
_cell_angle_gamma 88.326448
loop_
_atom_site_label
_atom_site_type_symbol
_atom_site_fract_x
_atom_site_fract_y
_atom_site_fract_z
_atom_type_partial_charge
P0 P 0.2065 0.19349 0.18422 0.0
H1 H 0.2385 0.20666 0.14105 0.0
H2 H 0.27119 0.18633 0.12021 0.0
H3 H 0.25636 0.12304 0.16539 0.0
H4 H 0.22295 0.14327 0.18489 0.0
H5 H 0.17594 0.23027 0.20481 0.0
H6 H 0.15455 0.26468 0.18509 0.0
H7 H 0.17475 0.24436 0.10647 0.0
H8 H 0.19577 0.2094 0.12654 0.0
H9 H 0.22074 0.16676 0.23364 0.0
H10 H 0.15564 0.18093 0.18807 0.0
O11 O 0.22464 0.20848 0.20394 0.0
H12 H 0.19929 0.14652 0.26847 0.0
H13 H 0.1338 0.16086 0.22317 0.0
C14 C 0.22731 0.17655 0.16404 0.0
C15 C 0.24165 0.18815 0.14577 0.0
C16 C 0.26094 0.17646 0.13421 0.0
C17 C 0.26713 0.15271 0.14092 0.0
C18 C 0.25241 0.14106 0.159 0.0
C19 C 0.23298 0.15276 0.17034 0.0
C20 C 0.18768 0.21693 0.16741 0.0
C21 C 0.17557 0.23294 0.18325 0.0
C22 C 0.16349 0.25298 0.17185 0.0
C23 C 0.163 0.25796 0.14399 0.0
C24 C 0.1745 0.2414 0.12795 0.0
C25 C 0.18671 0.22126 0.13948 0.0
C26 C 0.19 0.17558 0.208 0.0
C27 C 0.20178 0.1654 0.23096 0.0
C28 C 0.18934 0.15394 0.25117 0.0
C29 C 0.16453 0.15212 0.2492 0.0
C30 C 0.15282 0.16166 0.22564 0.0
C31 C 0.16535 0.17325 0.2054 0.0
P32 P 0.37508 0.80302 0.73086 0.0
H33 H 0.42046 0.80442 0.75972 0.0
H34 H 0.43134 0.81765 0.80445 0.0
H35 H 0.35761 0.82054 0.82372 0.0
H36 H 0.34688 0.8076 0.77893 0.0
H37 H 0.37983 0.79099 0.67576 0.0
H38 H 0.39261 0.7554 0.65401 0.0
H39 H 0.40522 0.72067 0.73152 0.0
H40 H 0.3918 0.75652 0.75322 0.0
H41 H 0.34415 0.84448 0.72387 0.0
H42 H 0.33697 0.76939 0.72483 0.0
O43 O 0.38782 0.82519 0.71498 0.0
H44 H 0.30215 0.84996 0.71205 0.0
H45 H 0.2947 0.77471 0.71331 0.0
C46 C 0.3829 0.8053 0.76588 0.0
C47 C 0.40672 0.80721 0.77388 0.0
C48 C 0.4129 0.81472 0.79951 0.0
C49 C 0.39529 0.8205 0.81751 0.0
C50 C 0.37155 0.81662 0.81013 0.0
C51 C 0.3654 0.80911 0.78451 0.0
C52 C 0.38539 0.7765 0.71604 0.0
C53 C 0.38552 0.77577 0.68809 0.0
C54 C 0.39289 0.75542 0.67569 0.0
C55 C 0.40024 0.73528 0.69103 0.0
C56 C 0.39962 0.73589 0.71915 0.0
C57 C 0.39217 0.75639 0.73159 0.0
C58 C 0.34372 0.80657 0.7245 0.0
C59 C 0.33345 0.82917 0.72169 0.0
C60 C 0.30937 0.83226 0.71521 0.0
C61 C 0.29509 0.81275 0.71159 0.0
C62 C 0.30531 0.79007 0.71557 0.0
C63 C 0.32944 0.78701 0.72215 0.0
P64 P 0.73256 0.38007 0.82736 0.0
H65 H 0.75904 0.36997 0.87743 0.0
H66 H 0.7855 0.39333 0.90463 0.0
H67 H 0.76717 0.45439 0.85399 0.0
H68 H 0.74076 0.4308 0.8267 0.0
H69 H 0.72196 0.33219 0.81401 0.0
H70 H 0.69757 0.30268 0.83472 0.0
H71 H 0.68274 0.34984 0.8985 0.0
H72 H 0.70764 0.37915 0.87784 0.0
H73 H 0.7386 0.40578 0.77685 0.0
H74 H 0.68118 0.38937 0.82786 0.0
O75 O 0.75312 0.36706 0.80938 0.0
H76 H 0.71024 0.42298 0.743 0.0
H77 H 0.65289 0.40617 0.79404 0.0
C78 C 0.74766 0.39871 0.8503 0.0
C79 C 0.76015 0.38854 0.87266 0.0
C80 C 0.77523 0.40196 0.88826 0.0
C81 C 0.77838 0.42574 0.8815 0.0
C82 C 0.76515 0.43609 0.85963 0.0
C83 C 0.74996 0.42264 0.84409 0.0
C84 C 0.71701 0.35759 0.84472 0.0
C85 C 0.71384 0.336 0.83272 0.0
C86 C 0.69966 0.31926 0.84442 0.0
C87 C 0.68813 0.32397 0.8682 0.0
C88 C 0.69163 0.34557 0.88039 0.0
C89 C 0.70587 0.36231 0.86864 0.0
C90 C 0.71199 0.39583 0.80459 0.0
C91 C 0.71995 0.40609 0.78088 0.0
C92 C 0.70377 0.41597 0.76163 0.0
C93 C 0.67939 0.41558 0.76581 0.0
C94 C 0.67158 0.40634 0.79017 0.0
C95 C 0.68778 0.39674 0.80952 0.0
P96 P 0.79555 0.80749 0.29433 0.0
H97 H 0.82323 0.84748 0.27898 0.0
H98 H 0.85544 0.86776 0.30167 0.0
H99 H 0.85393 0.818 0.36843 0.0
H100 H 0.82187 0.79785 0.34578 0.0
H101 H 0.76765 0.79492 0.2472 0.0
H102 H 0.77757 0.7724 0.20802 0.0
H103 H 0.85122 0.77117 0.23403 0.0
H104 H 0.84122 0.79371 0.2729 0.0
H105 H 0.7652 0.80569 0.34019 0.0
H106 H 0.80461 0.75647 0.29399 0.0
O107 O 0.77352 0.82736 0.28914 0.0
H108 H 0.75215 0.77331 0.36867 0.0
H109 H 0.79084 0.72411 0.32132 0.0
C110 C 0.82001 0.82134 0.31075 0.0
C111 C 0.82996 0.84088 0.29843 0.0
C112 C 0.84846 0.85232 0.31131 0.0
C113 C 0.85716 0.84445 0.33683 0.0
C114 C 0.84742 0.82456 0.34888 0.0
C115 C 0.82905 0.81304 0.3359 0.0
C116 C 0.80373 0.79632 0.26266 0.0
C117 C 0.78601 0.79043 0.24396 0.0
C118 C 0.79167 0.77742 0.22173 0.0
C119 C 0.81516 0.77001 0.21798 0.0
C120 C 0.83302 0.77696 0.23611 0.0
C121 C 0.82732 0.78987 0.25839 0.0
C122 C 0.7854 0.78348 0.31462 0.0
C123 C 0.77075 0.78789 0.33595 0.0
C124 C 0.76326 0.76934 0.35214 0.0
C125 C 0.77029 0.74602 0.3472 0.0
C126 C 0.78527 0.7418 0.32595 0.0
C127 C 0.79293 0.76037 0.31001 0.0
P128 P 0.85159 0.86573 0.87919 0.0
H129 H 0.82296 0.85477 0.92582 0.0
H130 H 0.785 0.87005 0.94082 0.0
H131 H 0.77415 0.90917 0.8659 0.0
H132 H 0.81202 0.89356 0.85102 0.0
H133 H 0.89966 0.84693 0.88946 0.0
H134 H 0.91699 0.80867 0.90368 0.0
H135 H 0.84773 0.77915 0.90039 0.0
H136 H 0.83034 0.81799 0.88629 0.0
H137 H 0.85885 0.91357 0.85849 0.0
H138 H 0.8655 0.84404 0.82788 0.0
O139 O 0.86631 0.88177 0.90127 0.0
H140 H 0.87575 0.92992 0.81797 0.0
H141 H 0.88246 0.86035 0.78694 0.0
C142 C 0.82049 0.87236 0.88689 0.0
C143 C 0.81216 0.86611 0.91224 0.0
C144 C 0.79042 0.87529 0.92104 0.0
C145 C 0.7761 0.89121 0.90485 0.0
C146 C 0.78421 0.89686 0.87907 0.0
C147 C 0.80606 0.88778 0.87038 0.0
C148 C 0.86355 0.83572 0.88689 0.0
C149 C 0.88807 0.83228 0.89167 0.0
C150 C 0.89804 0.81024 0.90005 0.0
C151 C 0.88392 0.79052 0.90367 0.0
C152 C 0.85934 0.79374 0.8979 0.0
C153 C 0.84928 0.81606 0.88979 0.0
C154 C 0.86081 0.87746 0.84659 0.0
C155 C 0.86372 0.90175 0.84292 0.0
C156 C 0.87366 0.91113 0.81966 0.0
C157 C 0.88092 0.89658 0.79896 0.0
C158 C 0.87712 0.87226 0.80221 0.0
C159 C 0.86734 0.86283 0.82573 0.0
P160 P 0.71068 0.29202 0.2339 0.0
H161 H 0.71257 0.34176 0.24495 0.0
H162 H 0.69033 0.36696 0.27428 0.0
H163 H 0.64689 0.3087 0.29545 0.0
H164 H 0.66904 0.28368 0.26562 0.0
H165 H 0.76162 0.2981 0.24325 0.0
H166 H 0.79077 0.27873 0.2746 0.0
H167 H 0.73569 0.23755 0.30827 0.0
H168 H 0.70672 0.25685 0.27676 0.0
H169 H 0.66376 0.29165 0.20688 0.0
H170 H 0.72322 0.24349 0.22186 0.0
O171 O 0.72428 0.30791 0.21086 0.0
H172 H 0.6431 0.26161 0.18187 0.0
H173 H 0.70248 0.21324 0.19815 0.0
C174 C 0.69208 0.31103 0.25265 0.0
C175 C 0.69796 0.33453 0.25549 0.0
C176 C 0.6854 0.34885 0.27252 0.0
C177 C 0.66686 0.33983 0.28727 0.0
C178 C 0.66084 0.31628 0.2841 0.0
C179 C 0.67348 0.30195 0.26706 0.0
C180 C 0.73212 0.27862 0.25748 0.0
C181 C 0.75583 0.28492 0.25739 0.0
C182 C 0.77244 0.27395 0.27541 0.0
C183 C 0.76553 0.2565 0.29374 0.0
C184 C 0.7416 0.25066 0.2941 0.0
C185 C 0.72503 0.26174 0.27622 0.0
C186 C 0.69472 0.2696 0.21692 0.0
C187 C 0.67218 0.27449 0.2052 0.0
C188 C 0.66039 0.25727 0.19096 0.0
C189 C 0.67106 0.23491 0.18803 0.0
C190 C 0.69378 0.23028 0.19966 0.0
C191 C 0.70557 0.24753 0.21365 0.0
P192 P 0.36702 0.60614 0.13175 0.0
H193 H 0.34123 0.57817 0.09314 0.0
H194 H 0.29918 0.57247 0.08415 0.0
H195 H 0.28238 0.62031 0.14661 0.0
H196 H 0.32464 0.62616 0.15525 0.0
H197 H 0.39368 0.61842 0.08449 0.0
H198 H 0.4073 0.6558 0.06664 0.0
H199 H 0.37179 0.69202 0.12916 0.0
H200 H 0.35777 0.65461 0.14639 0.0
H201 H 0.3476 0.58054 0.17728 0.0
H202 H 0.40386 0.62836 0.1638 0.0
O203 O 0.38241 0.58442 0.1182 0.0
H204 H 0.35916 0.57768 0.225 0.0
H205 H 0.41555 0.62548 0.21124 0.0
C206 C 0.336 0.60225 0.12518 0.0
C207 C 0.32852 0.58737 0.10497 0.0
C208 C 0.30447 0.58407 0.09991 0.0
C209 C 0.28745 0.59575 0.11486 0.0
C210 C 0.29505 0.61115 0.13467 0.0
C211 C 0.31916 0.61441 0.13974 0.0
C212 C 0.37503 0.63378 0.11698 0.0
C213 C 0.38865 0.63443 0.09418 0.0
C214 C 0.39652 0.65581 0.08408 0.0
C215 C 0.39086 0.6769 0.09663 0.0
C216 C 0.37631 0.67618 0.11883 0.0
C217 C 0.36838 0.65479 0.12883 0.0
C218 C 0.37438 0.60525 0.16713 0.0
C219 C 0.36218 0.59072 0.18464 0.0
C220 C 0.36891 0.58896 0.21186 0.0
C221 C 0.38809 0.60158 0.22194 0.0
C222 C 0.40033 0.616 0.20424 0.0
C223 C 0.39367 0.61764 0.17706 0.0
P224 P 0.2538 0.23363 0.73589 0.0
H225 H 0.25323 0.19266 0.70258 0.0
H226 H 0.22115 0.17137 0.68083 0.0
H227 H 0.16995 0.21894 0.7136 0.0
H228 H 0.20201 0.24078 0.73433 0.0
H229 H 0.3004 0.25249 0.72789 0.0
H230 H 0.31436 0.28295 0.69722 0.0
H231 H 0.24463 0.29001 0.65937 0.0
H232 H 0.23064 0.25992 0.69034 0.0
H233 H 0.22303 0.22196 0.7799 0.0
H234 H 0.26475 0.28042 0.75531 0.0
O235 O 0.27544 0.21464 0.74621 0.0
H236 H 0.20728 0.24528 0.81606 0.0
H237 H 0.24963 0.30328 0.79161 0.0
C238 C 0.22998 0.21771 0.72092 0.0
C239 C 0.23511 0.19841 0.70521 0.0
C240 C 0.21683 0.18638 0.69269 0.0
C241 C 0.19318 0.19344 0.69588 0.0
C242 C 0.18807 0.213 0.71126 0.0
C243 C 0.20638 0.22532 0.72328 0.0
C244 C 0.26463 0.25363 0.71104 0.0
C245 C 0.28823 0.26033 0.71271 0.0
C246 C 0.29612 0.27784 0.69537 0.0
C247 C 0.28054 0.28874 0.67596 0.0
C248 C 0.25702 0.28167 0.67398 0.0
C249 C 0.24906 0.26444 0.69163 0.0
C250 C 0.24438 0.24972 0.76426 0.0
C251 C 0.2289 0.2397 0.78233 0.0
C252 C 0.22 0.25294 0.80299 0.0
C253 C 0.22719 0.27605 0.80642 0.0
C254 C 0.24389 0.28545 0.78941 0.0
C255 C 0.25239 0.27241 0.76847 0.0
Nd256 Nd 0.03558 1.00257 0.52113 0.0
Nd257 Nd 1.0007 0.0429 0.51832 0.0
C258 C 0.06394 0.96564 0.51493 0.0
C259 C 0.07464 0.94696 0.53259 0.0
C260 C 0.06905 0.94534 0.55967 0.0
C261 C 0.0808 0.92873 0.5769 0.0
C262 C 0.09834 0.91353 0.5673 0.0
C263 C 0.10335 0.91487 0.53993 0.0
C264 C 0.09159 0.93148 0.52273 0.0
C265 C 0.04544 0.03693 0.55675 0.0
C266 C 0.99657 1.00142 0.5667 0.0
C267 C 0.97158 0.07942 0.52369 0.0
C268 C 0.95881 0.09603 0.50497 0.0
C269 C 0.94724 0.11595 0.51454 0.0
C270 C 0.93365 0.1309 0.49695 0.0
C271 C 0.93134 0.12598 0.46958 0.0
C272 C 0.94352 0.1063 0.46 0.0
C273 C 0.95721 0.0915 0.47754 0.0
C274 C 0.99106 1.00875 0.48237 0.0
C275 C 0.04043 0.04439 0.47342 0.0
O276 O 0.041 0.96528 0.51093 0.0
O277 O 0.07153 0.98669 0.51912 0.0
O278 O 0.0482 1.01469 0.56265 0.0
O279 O 0.0386 0.04034 0.53268 0.0
O280 O 1.01166 0.9883 0.55372 0.0
O281 O 0.99185 0.02358 0.55875 0.0
O282 O 0.99458 0.08088 0.52519 0.0
O283 O 0.96469 0.05778 0.52291 0.0
O284 O 0.98804 0.031 0.4768 0.0
O285 O 0.99778 1.0052 0.50646 0.0
O286 O 0.02538 0.05745 0.48656 0.0
O287 O 0.04483 0.02211 0.48102 0.0
H288 H 0.05597 0.95725 0.56756 0.0
H289 H 0.0764 0.92799 0.5978 0.0
H290 H 0.11702 0.90369 0.53198 0.0
H291 H 0.09617 0.93264 0.50189 0.0
H292 H 0.9483 0.11966 0.53568 0.0
H293 H 0.92432 0.14584 0.5049 0.0
H294 H 0.94229 0.10225 0.43896 0.0
H295 H 0.96617 0.07625 0.4698 0.0
Nd296 Nd 0.52336 1.00412 0.0464 0.0
Nd297 Nd 0.51703 0.03352 1.00178 0.0
C298 C 0.52795 0.9671 0.07962 0.0
C299 C 0.51966 0.94292 0.07774 0.0
C300 C 0.52313 0.92991 0.05467 0.0
C301 C 0.51299 0.90802 0.05199 0.0
C302 C 0.49901 0.89886 0.07218 0.0
C303 C 0.4959 0.9117 0.09543 0.0
C304 C 0.5062 0.9335 0.0982 0.0
C305 C 0.48545 0.03572 0.05258 0.0
C306 C 0.4921 0.98603 0.99598 0.0
C307 C 0.51029 0.06964 0.96742 0.0
C308 C 0.52376 0.09048 0.96094 0.0
C309 C 0.5145 0.10728 0.9421 0.0
C310 C 0.52696 0.12752 0.93646 0.0
C311 C 0.54883 0.13128 0.9497 0.0
C312 C 0.55804 0.11431 0.96858 0.0
C313 C 0.54563 0.09404 0.97409 0.0
C314 C 0.55539 1.00248 0.99527 0.0
C315 C 0.54911 0.05155 0.05302 0.0
O316 O 0.54437 0.97339 0.06347 0.0
O317 O 0.51138 0.98326 0.08127 0.0
O318 O 0.50249 0.03128 0.07022 0.0
O319 O 0.48918 0.02432 0.03155 0.0
O320 O 0.50837 0.97982 0.01441 0.0
O321 O 0.48829 1.00835 0.98982 0.0
O322 O 0.50175 0.06896 0.99129 0.0
O323 O 0.51974 0.04955 0.96102 0.0
O324 O 0.53865 1.00741 0.97744 0.0
O325 O 0.55136 1.01349 0.01651 0.0
O326 O 0.53576 0.05757 0.03166 0.0
O327 O 0.55002 0.02974 0.06219 0.0
H328 H 0.53319 0.93686 0.03839 0.0
H329 H 0.51552 0.89856 0.03378 0.0
H330 H 0.48543 0.90489 0.11144 0.0
H331 H 0.50318 0.94328 0.11608 0.0
H332 H 0.49758 0.10482 0.93191 0.0
H333 H 0.51931 0.1404 0.92204 0.0
H334 H 0.57497 0.11657 0.97887 0.0
H335 H 0.55306 0.08116 0.98866 0.0
Nd336 Nd 0.49817 0.50458 0.49851 0.0
Nd337 Nd 0.54344 0.53171 0.51079 0.0
C338 C 0.45537 0.49112 0.48425 0.0
C339 C 0.43478 0.48301 0.49832 0.0
C340 C 0.41341 0.47976 0.48411 0.0
C341 C 0.39457 0.46949 0.4969 0.0
C342 C 0.39696 0.46216 0.52406 0.0
C343 C 0.41819 0.46642 0.53841 0.0
C344 C 0.43689 0.47684 0.52566 0.0
C345 C 0.52521 0.48706 0.54178 0.0
C346 C 0.49661 0.54842 0.53978 0.0
C347 C 0.58587 0.54598 0.52531 0.0
C348 C 0.60752 0.5532 0.51266 0.0
C349 C 0.62238 0.56854 0.52606 0.0
C350 C 0.64166 0.57783 0.51332 0.0
C351 C 0.64645 0.57189 0.4869 0.0
C352 C 0.63196 0.55575 0.4739 0.0
C353 C 0.61256 0.54654 0.48666 0.0
C354 C 0.51577 0.54929 0.468 0.0
C355 C 0.54532 0.48778 0.46965 0.0
O356 O 0.46058 0.51315 0.48696 0.0
O357 O 0.47395 0.47692 0.48629 0.0
O358 O 0.51234 0.47392 0.52675 0.0
O359 O 0.5214 0.50829 0.53549 0.0
O360 O 0.48465 0.53673 0.52152 0.0
O361 O 0.51976 0.54565 0.54299 0.0
O362 O 0.58067 0.5238 0.52406 0.0
O363 O 0.56751 0.5602 0.52097 0.0
O364 O 0.52809 0.56253 0.4835 0.0
O365 O 0.52018 0.52807 0.47385 0.0
O366 O 0.55724 0.50003 0.48741 0.0
O367 O 0.52208 0.48988 0.46682 0.0
H368 H 0.41154 0.4845 0.46297 0.0
H369 H 0.37836 0.4668 0.48537 0.0
H370 H 0.42085 0.46071 0.55919 0.0
H371 H 0.45334 0.47924 0.53689 0.0
H372 H 0.61858 0.57398 0.54608 0.0
H373 H 0.65215 0.5905 0.52378 0.0
H374 H 0.63531 0.5506 0.45368 0.0
H375 H 0.60117 0.53475 0.47599 0.0
Nd376 Nd 1.00448 0.51991 0.04081 0.0
Nd377 Nd 0.04088 0.52444 0.99857 0.0
C378 C 0.9649 0.51998 0.06693 0.0
C379 C 0.94963 0.53906 0.07626 0.0
C380 C 0.92502 0.53737 0.07428 0.0
C381 C 0.9104 0.55632 0.08099 0.0
C382 C 0.92021 0.57726 0.08988 0.0
C383 C 0.94497 0.5786 0.09226 0.0
C384 C 0.9595 0.55981 0.08527 0.0
C385 C 0.04511 0.54105 0.05751 0.0
C386 C 1.00209 0.56769 0.99959 0.0
C387 C 0.07977 0.52347 0.9711 0.0
C388 C 0.09475 0.50397 0.96191 0.0
C389 C 0.10096 0.48458 0.97901 0.0
C390 C 0.11317 0.46514 0.96942 0.0
C391 C 0.11878 0.46449 0.94235 0.0
C392 C 0.11285 0.48399 0.9253 0.0
C393 C 0.10107 0.50365 0.93507 0.0
C394 C 1.0004 0.50356 0.98152 0.0
C395 C 0.04298 0.47701 0.04044 0.0
O396 O 0.96543 0.51841 0.04091 0.0
O397 O 0.98584 0.51738 0.07885 0.0
O398 O 0.03353 0.527 0.07273 0.0
O399 O 0.0344 0.54466 0.03517 0.0
O400 O 0.991 0.55371 0.01639 0.0
O401 O 0.02356 0.56173 0.99187 0.0
O402 O 0.07983 0.52665 0.99695 0.0
O403 O 0.0586 0.52528 0.95979 0.0
O404 O 1.01214 0.51761 0.96656 0.0
O405 O 1.01085 0.49971 1.00399 0.0
O406 O 0.0546 0.49143 0.02461 0.0
O407 O 0.02105 0.48246 0.04676 0.0
H408 H 0.91712 0.52159 0.06699 0.0
H409 H 0.89145 0.55471 0.07857 0.0
H410 H 0.95323 0.59414 0.09964 0.0
H411 H 0.9785 0.56161 0.08667 0.0
H412 H 0.09608 0.48429 0.9997 0.0
H413 H 0.11742 0.45027 0.98291 0.0
H414 H 0.11706 0.48386 0.90434 0.0
H415 H 0.09625 0.51831 0.92147 0.0
H416 H 0.12497 0.12436 0.24647 0.0
H417 H 0.10397 0.10603 0.28318 0.0
H418 H 0.15233 0.13588 0.34045 0.0
H419 H 0.17348 0.154 0.30393 0.0
H420 H 0.14496 0.09448 0.35805 0.0
H421 H 0.092 0.15703 0.32633 0.0
H422 H 0.0673 0.18043 0.29306 0.0
H423 H 0.0258 0.12028 0.27688 0.0
H424 H 0.05045 0.09644 0.30983 0.0
H425 H 0.03574 0.08948 0.45165 0.0
H426 H 0.05619 0.10704 0.41408 0.0
H427 H 0.09319 0.04116 0.403 0.0
H428 H 0.07307 0.02361 0.44089 0.0
H429 H 0.05781 0.1014 0.36292 0.0
H430 H 0.14715 0.04972 0.37679 0.0
H431 H 0.1723 0.03074 0.41309 0.0
H432 H 0.14178 0.07648 0.47 0.0
H433 H 0.11669 0.09592 0.434 0.0
C434 C 0.13111 0.12724 0.26685 0.0
C435 C 0.15117 0.14083 0.27183 0.0
C436 C 0.11896 0.11667 0.28804 0.0
C437 C 0.12615 0.11956 0.31508 0.0
C438 C 0.14622 0.13305 0.32004 0.0
C439 C 0.15845 0.14347 0.2989 0.0
C440 C 0.11304 0.10859 0.33813 0.0
C441 C 0.12588 0.09598 0.35889 0.0
C442 C 0.08808 0.11062 0.3401 0.0
C443 C 0.07321 0.1249 0.32034 0.0
C444 C 0.0777 0.14876 0.31554 0.0
C445 C 0.0637 0.1621 0.29676 0.0
C446 C 0.04503 0.15183 0.28281 0.0
C447 C 0.04029 0.1282 0.28767 0.0
C448 C 0.05426 0.11477 0.3064 0.0
C449 C 0.04823 0.07863 0.44131 0.0
C450 C 0.05267 0.055 0.44972 0.0
C451 C 0.05995 0.08876 0.41957 0.0
C452 C 0.07668 0.07573 0.40546 0.0
C453 C 0.08084 0.05199 0.41356 0.0
C454 C 0.06913 0.04184 0.43532 0.0
C455 C 0.08971 0.087 0.38256 0.0
C456 C 0.07687 0.09972 0.36191 0.0
C457 C 0.11472 0.08552 0.38098 0.0
C458 C 0.12986 0.07407 0.40273 0.0
C459 C 0.14586 0.05576 0.39704 0.0
C460 C 0.1601 0.04492 0.41756 0.0
C461 C 0.15858 0.05234 0.44385 0.0
C462 C 0.14288 0.07068 0.44965 0.0
C463 C 0.12863 0.0816 0.4292 0.0
H464 H 0.1696 0.04392 0.45971 0.0
H465 H 0.03421 0.16219 0.26829 0.0
H466 H 0.43264 0.81236 0.85376 0.0
H467 H 0.44584 0.83831 0.8893 0.0
H468 H 0.38531 0.88447 0.87138 0.0
H469 H 0.37219 0.85895 0.83585 0.0
H470 H 0.42859 0.90623 0.86871 0.0
H471 H 0.38892 0.85369 0.92838 0.0
H472 H 0.38078 0.81536 0.9497 0.0
H473 H 0.45241 0.80908 0.98085 0.0
H474 H 0.46118 0.84712 0.95925 0.0
H475 H 0.45181 0.99141 0.96418 0.0
H476 H 0.43211 0.96129 0.93846 0.0
H477 H 0.48468 0.90966 0.96822 0.0
H478 H 0.50379 0.93942 0.99476 0.0
H479 H 0.44446 0.88998 0.96586 0.0
H480 H 0.48673 0.93738 0.90468 0.0
H481 H 0.49882 0.9739 0.8821 0.0
H482 H 0.42749 0.98763 0.85238 0.0
H483 H 0.41491 0.95133 0.87511 0.0
C484 C 0.42196 0.82783 0.85774 0.0
C485 C 0.40139 0.8336 0.84196 0.0
C486 C 0.42943 0.84255 0.87813 0.0
C487 C 0.41652 0.86328 0.88294 0.0
C488 C 0.39547 0.8685 0.86803 0.0
C489 C 0.38791 0.85377 0.84785 0.0
C490 C 0.42617 0.8809 0.90124 0.0
C491 C 0.4317 0.90282 0.89005 0.0
C492 C 0.43111 0.87603 0.92883 0.0
C493 C 0.4258 0.85314 0.94182 0.0
C494 C 0.40303 0.84402 0.93948 0.0
C495 C 0.39829 0.82237 0.95167 0.0
C496 C 0.41613 0.80975 0.96641 0.0
C497 C 0.43867 0.81884 0.96926 0.0
C498 C 0.44353 0.84044 0.95705 0.0
C499 C 0.45906 0.97361 0.96533 0.0
C500 C 0.47945 0.96782 0.98128 0.0
C501 C 0.44785 0.95641 0.95056 0.0
C502 C 0.45718 0.93327 0.95094 0.0
C503 C 0.47714 0.92736 0.96752 0.0
C504 C 0.48811 0.94444 0.98263 0.0
C505 C 0.44672 0.91543 0.93334 0.0
C506 C 0.44119 0.89345 0.94456 0.0
C507 C 0.44233 0.91995 0.90556 0.0
C508 C 0.44983 0.94177 0.89183 0.0
C509 C 0.47359 0.94828 0.89349 0.0
C510 C 0.48054 0.96892 0.88065 0.0
C511 C 0.46392 0.98311 0.86588 0.0
C512 C 0.44033 0.97665 0.86387 0.0
C513 C 0.43328 0.95603 0.87672 0.0
H514 H 0.46934 0.99909 0.85594 0.0
H515 H 0.4125 0.79292 0.97558 0.0
H516 H 0.67872 0.45631 0.73542 0.0
H517 H 0.65086 0.46802 0.69826 0.0
H518 H 0.61379 0.40374 0.70992 0.0
H519 H 0.64143 0.39203 0.74713 0.0
H520 H 0.62554 0.41418 0.65581 0.0
H521 H 0.58861 0.45061 0.72986 0.0
H522 H 0.58718 0.47561 0.7692 0.0
H523 H 0.60473 0.53547 0.72055 0.0
H524 H 0.60661 0.51074 0.68098 0.0
H525 H 0.52815 0.44323 0.56561 0.0
H526 H 0.55295 0.43043 0.60492 0.0
H527 H 0.58169 0.49962 0.6086 0.0
H528 H 0.55613 0.51268 0.57038 0.0
H529 H 0.57331 0.48551 0.6562 0.0
H530 H 0.61185 0.45043 0.58265 0.0
H531 H 0.61482 0.42628 0.54276 0.0
H532 H 0.59691 0.36517 0.5891 0.0
H533 H 0.59338 0.38905 0.62918 0.0
C534 C 0.66455 0.44477 0.73008 0.0
C535 C 0.66211 0.42334 0.74417 0.0
C536 C 0.64866 0.45148 0.70897 0.0
C537 C 0.63028 0.43674 0.70148 0.0
C538 C 0.62785 0.41533 0.71548 0.0
C539 C 0.64352 0.40877 0.73679 0.0
C540 C 0.61387 0.44344 0.67866 0.0
C541 C 0.61385 0.4296 0.65594 0.0
C542 C 0.59915 0.46385 0.67874 0.0
C543 C 0.59799 0.47876 0.70251 0.0
C544 C 0.59238 0.46905 0.7276 0.0
C545 C 0.59144 0.48319 0.74993 0.0
C546 C 0.59593 0.5071 0.74739 0.0
C547 C 0.6013 0.51694 0.72249 0.0
C548 C 0.60228 0.50287 0.7001 0.0
C549 C 0.53979 0.45563 0.57488 0.0
C550 C 0.54035 0.47888 0.56497 0.0
C551 C 0.55404 0.4483 0.59723 0.0
C552 C 0.56948 0.46397 0.60954 0.0
C553 C 0.56994 0.48721 0.59953 0.0
C554 C 0.55542 0.49462 0.57758 0.0
C555 C 0.58505 0.4564 0.63298 0.0
C556 C 0.58492 0.47006 0.65592 0.0
C557 C 0.59991 0.43598 0.63292 0.0
C558 C 0.60212 0.42158 0.60885 0.0
C559 C 0.60836 0.43188 0.58429 0.0
C560 C 0.61017 0.41823 0.56164 0.0
C561 C 0.60602 0.3942 0.56339 0.0
C562 C 0.60008 0.38378 0.58778 0.0
C563 C 0.59818 0.39737 0.61046 0.0
H564 H 0.60746 0.38363 0.54588 0.0
H565 H 0.59518 0.51802 0.7647 0.0
H566 H 0.85231 0.76979 0.1844 0.0
H567 H 0.86475 0.73788 0.15585 0.0
H568 H 0.80342 0.6993 0.17692 0.0
H569 H 0.79108 0.73088 0.20571 0.0
H570 H 0.84545 0.67457 0.187 0.0
H571 H 0.80751 0.7202 0.11433 0.0
H572 H 0.7994 0.75581 0.08588 0.0
H573 H 0.87198 0.75593 0.06403 0.0
H574 H 0.88061 0.7205 0.09266 0.0
H575 H 0.87724 0.57669 0.11369 0.0
H576 H 0.85382 0.61014 0.12821 0.0
H577 H 0.90571 0.65727 0.0985 0.0
H578 H 0.92815 0.62413 0.08179 0.0
H579 H 0.86484 0.67734 0.09102 0.0
H580 H 0.90506 0.63715 0.16625 0.0
H581 H 0.9164 0.60331 0.19638 0.0
H582 H 0.84379 0.59523 0.21563 0.0
H583 H 0.83199 0.62886 0.18533 0.0
C584 C 0.8413 0.75467 0.18257 0.0
C585 C 0.82076 0.75281 0.19732 0.0
C586 C 0.84833 0.73655 0.16613 0.0
C587 C 0.83494 0.71629 0.16425 0.0
C588 C 0.81392 0.71485 0.17804 0.0
C589 C 0.80682 0.73299 0.19433 0.0
C590 C 0.84421 0.69559 0.15043 0.0
C591 C 0.84924 0.67499 0.16586 0.0
C592 C 0.84992 0.69653 0.12314 0.0
C593 C 0.84474 0.71779 0.10582 0.0
C594 C 0.82179 0.72792 0.10363 0.0
C595 C 0.81709 0.74806 0.08744 0.0
C596 C 0.83517 0.75815 0.0732 0.0
C597 C 0.85799 0.7481 0.07508 0.0
C598 C 0.86278 0.72797 0.09127 0.0
C599 C 0.88342 0.59417 0.1096 0.0
C600 C 0.9049 0.5976 0.097 0.0
C601 C 0.87012 0.61331 0.11825 0.0
C602 C 0.87834 0.6362 0.11516 0.0
C603 C 0.8991 0.63977 0.10138 0.0
C604 C 0.91214 0.62071 0.09221 0.0
C605 C 0.86617 0.65628 0.12764 0.0
C606 C 0.86073 0.67678 0.11205 0.0
C607 C 0.86056 0.65552 0.15502 0.0
C608 C 0.86762 0.63534 0.1733 0.0
C609 C 0.8915 0.62805 0.17677 0.0
C610 C 0.89801 0.60893 0.1939 0.0
C611 C 0.88082 0.59708 0.20785 0.0
C612 C 0.85708 0.60439 0.20477 0.0
C613 C 0.85047 0.62349 0.18763 0.0
H614 H 0.88589 0.58228 0.2211 0.0
H615 H 0.8315 0.77374 0.06068 0.0
H616 H 0.2757 0.10519 0.13142 0.0
H617 H 0.31129 0.0858 0.1155 0.0
H618 H 0.34452 0.1525 0.10846 0.0
H619 H 0.30936 0.17204 0.12514 0.0
H620 H 0.3551 0.12694 0.06575 0.0
H621 H 0.35894 0.11284 0.16089 0.0
H622 H 0.34463 0.09937 0.20456 0.0
H623 H 0.33954 0.02932 0.17613 0.0
H624 H 0.35353 0.04246 0.13214 0.0
H625 H 0.47457 0.05568 0.09983 0.0
H626 H 0.43778 0.07499 0.11254 0.0
H627 H 0.40676 0.06317 0.03423 0.0
H628 H 0.44393 0.04383 0.02133 0.0
H629 H 0.39493 0.06161 0.11923 0.0
H630 H 0.36287 0.1059 0.01865 0.0
H631 H 0.37937 0.12168 0.97705 0.0
H632 H 0.44455 0.13517 0.0197 0.0
H633 H 0.42833 0.11977 0.0616 0.0
C634 C 0.29054 0.11593 0.12687 0.0
C635 C 0.28906 0.14052 0.12996 0.0
C636 C 0.31109 0.10466 0.11751 0.0
C637 C 0.33109 0.11743 0.11075 0.0
C638 C 0.32956 0.14198 0.11327 0.0
C639 C 0.3091 0.15325 0.12282 0.0
C640 C 0.35361 0.10529 0.10165 0.0
C641 C 0.36364 0.11256 0.07746 0.0
C642 C 0.36543 0.08664 0.11675 0.0
C643 C 0.35704 0.07869 0.14315 0.0
C644 C 0.35459 0.0946 0.16389 0.0
C645 C 0.34657 0.08702 0.18871 0.0
C646 C 0.34111 0.06352 0.19309 0.0
C647 C 0.34373 0.04753 0.17269 0.0
C648 C 0.35172 0.05503 0.14782 0.0
C649 C 0.46 0.05718 0.08516 0.0
C650 C 0.46251 0.04807 0.05944 0.0
C651 C 0.43874 0.06824 0.09257 0.0
C652 C 0.41905 0.0709 0.07452 0.0
C653 C 0.42149 0.06182 0.04868 0.0
C654 C 0.44286 0.05062 0.04126 0.0
C655 C 0.39627 0.08296 0.08309 0.0
C656 C 0.38624 0.07577 0.1073 0.0
C657 C 0.38464 0.10184 0.06814 0.0
C658 C 0.39446 0.11144 0.04317 0.0
C659 C 0.38069 0.11231 0.01915 0.0
C660 C 0.39 0.12118 0.99552 0.0
C661 C 0.41302 0.12934 0.99571 0.0
C662 C 0.42675 0.12876 0.01956 0.0
C663 C 0.41752 0.11994 0.04324 0.0
H664 H 0.4202 0.13617 0.97739 0.0
H665 H 0.33491 0.05768 0.21232 0.0
H666 H 0.26238 0.84523 0.72756 0.0
H667 H 0.22365 0.85497 0.70638 0.0
H668 H 0.23241 0.79786 0.65258 0.0
H669 H 0.27153 0.78853 0.67308 0.0
H670 H 0.22174 0.83763 0.62579 0.0
H671 H 0.18993 0.7968 0.69992 0.0
H672 H 0.18467 0.78605 0.74741 0.0
H673 H 0.16017 0.85634 0.76181 0.0
H674 H 0.1656 0.86763 0.71447 0.0
H675 H 0.11281 0.86805 0.55948 0.0
H676 H 0.14095 0.84392 0.58756 0.0
H677 H 0.1444 0.8987 0.64511 0.0
H678 H 0.11647 0.92296 0.61714 0.0
H679 H 0.1462 0.85448 0.66957 0.0
H680 H 0.18412 0.89627 0.59815 0.0
H681 H 0.19 0.90795 0.55102 0.0
H682 H 0.20381 0.83594 0.53236 0.0
H683 H 0.19766 0.82381 0.57935 0.0
C684 C 0.25595 0.83459 0.71141 0.0
C685 C 0.27012 0.81624 0.70184 0.0
C686 C 0.23367 0.84 0.69952 0.0
C687 C 0.22506 0.82707 0.67797 0.0
C688 C 0.23869 0.80803 0.66924 0.0
C689 C 0.26098 0.80262 0.6811 0.0
C690 C 0.20326 0.83516 0.66264 0.0
C691 C 0.20506 0.84072 0.63527 0.0
C692 C 0.18167 0.8398 0.67513 0.0
C693 C 0.17834 0.8331 0.70365 0.0
C694 C 0.1836 0.81002 0.71325 0.0
C695 C 0.18055 0.80382 0.74014 0.0
C696 C 0.17213 0.82051 0.75763 0.0
C697 C 0.1667 0.84343 0.74824 0.0
C698 C 0.16972 0.84973 0.72136 0.0
C699 C 0.1194 0.87485 0.57825 0.0
C700 C 0.11263 0.89752 0.58593 0.0
C701 C 0.13536 0.86101 0.59431 0.0
C702 C 0.14496 0.86967 0.61823 0.0
C703 C 0.13714 0.89167 0.62676 0.0
C704 C 0.12115 0.90551 0.61073 0.0
C705 C 0.16488 0.857 0.63293 0.0
C706 C 0.16277 0.8508 0.6601 0.0
C707 C 0.18629 0.85182 0.62036 0.0
C708 C 0.19015 0.85911 0.59216 0.0
C709 C 0.18823 0.88291 0.58395 0.0
C710 C 0.19163 0.88962 0.55727 0.0
C711 C 0.1972 0.87269 0.53869 0.0
C712 C 0.19944 0.84903 0.54676 0.0
C713 C 0.196 0.84223 0.57341 0.0
H714 H 0.19983 0.87791 0.51804 0.0
H715 H 0.16979 0.81567 0.77844 0.0
H716 H 0.81066 0.45345 0.85826 0.0
H717 H 0.84641 0.46863 0.87926 0.0
H718 H 0.82608 0.44156 0.95621 0.0
H719 H 0.78991 0.42644 0.93533 0.0
H720 H 0.84963 0.48769 0.95607 0.0
H721 H 0.85958 0.40809 0.92699 0.0
H722 H 0.85591 0.37675 0.89429 0.0
H723 H 0.89905 0.41484 0.84026 0.0
H724 H 0.90262 0.44662 0.87248 0.0
H725 H 0.96947 0.4798 0.01237 0.0
H726 H 0.9296 0.46776 0.99862 0.0
H727 H 0.9405 0.49308 0.91799 0.0
H728 H 0.97973 0.50605 0.93179 0.0
H729 H 0.92098 0.44655 0.92345 0.0
H730 H 0.91198 0.52559 0.95128 0.0
H731 H 0.91592 0.55793 0.98249 0.0
H732 H 0.87056 0.52329 0.03693 0.0
H733 H 0.86737 0.48999 1.00668 0.0
C734 C 0.81335 0.45136 0.87978 0.0
C735 C 0.79754 0.4386 0.89513 0.0
C736 C 0.83386 0.45996 0.89172 0.0
C737 C 0.83893 0.45597 0.91918 0.0
C738 C 0.82242 0.44477 0.93496 0.0
C739 C 0.8019 0.43601 0.92299 0.0
C740 C 0.86268 0.46092 0.93048 0.0
C741 C 0.86524 0.47847 0.94937 0.0
C742 C 0.88297 0.44908 0.92127 0.0
C743 C 0.88119 0.42982 0.90205 0.0
C744 C 0.86813 0.40986 0.90805 0.0
C745 C 0.86608 0.39201 0.88962 0.0
C746 C 0.8772 0.39383 0.86519 0.0
C747 C 0.89043 0.41347 0.85918 0.0
C748 C 0.89248 0.4314 0.87753 0.0
C749 C 0.96327 0.48284 0.99177 0.0
C750 C 0.97745 0.49416 0.97321 0.0
C751 C 0.94061 0.47593 0.98396 0.0
C752 C 0.93219 0.47973 0.95737 0.0
C753 C 0.94675 0.49008 0.9386 0.0
C754 C 0.96909 0.49749 0.94652 0.0
C755 C 0.90802 0.4734 0.94897 0.0
C756 C 0.90539 0.45558 0.93052 0.0
C757 C 0.88778 0.48512 0.95851 0.0
C758 C 0.88974 0.50506 0.97685 0.0
C759 C 0.90318 0.5246 0.97011 0.0
C760 C 0.90524 0.54315 0.9876 0.0
C761 C 0.89336 0.54275 0.01155 0.0
C762 C 0.8797 0.52359 0.0183 0.0
C763 C 0.87788 0.50479 1.00107 0.0
H764 H 0.8947 0.55734 0.02481 0.0
H765 H 0.87559 0.37999 0.85094 0.0
H766 H 0.72641 0.74117 0.36755 0.0
H767 H 0.71214 0.70818 0.39393 0.0
H768 H 0.7799 0.67232 0.3899 0.0
H769 H 0.79472 0.70563 0.36426 0.0
H770 H 0.74141 0.644 0.37734 0.0
H771 H 0.7676 0.6939 0.44664 0.0
H772 H 0.77114 0.73112 0.47011 0.0
H773 H 0.69621 0.73396 0.48037 0.0
H774 H 0.69217 0.69692 0.4566 0.0
H775 H 0.69037 0.5838 0.50624 0.0
H776 H 0.71841 0.60906 0.48417 0.0
H777 H 0.67301 0.61292 0.41284 0.0
H778 H 0.64469 0.58824 0.43485 0.0
H779 H 0.70847 0.65401 0.46703 0.0
H780 H 0.70664 0.62 0.35838 0.0
H781 H 0.70436 0.58228 0.33568 0.0
H782 H 0.734 0.54606 0.40624 0.0
H783 H 0.73678 0.58358 0.42925 0.0
C784 C 0.73847 0.7265 0.37264 0.0
C785 C 0.76176 0.72614 0.36379 0.0
C786 C 0.73022 0.70759 0.38759 0.0
C787 C 0.74502 0.6879 0.39391 0.0
C788 C 0.76822 0.68736 0.38511 0.0
C789 C 0.77658 0.70638 0.37036 0.0
C790 C 0.73595 0.66779 0.40934 0.0
C791 C 0.73434 0.64607 0.39703 0.0
C792 C 0.72722 0.67047 0.43523 0.0
C793 C 0.72957 0.6927 0.44967 0.0
C794 C 0.75185 0.70255 0.45372 0.0
C795 C 0.75395 0.7236 0.46711 0.0
C796 C 0.73391 0.73492 0.47668 0.0
C797 C 0.71172 0.72518 0.47294 0.0
C798 C 0.70952 0.70414 0.45954 0.0
C799 C 0.68643 0.58988 0.48578 0.0
C800 C 0.66518 0.58411 0.47239 0.0
C801 C 0.70253 0.60422 0.47318 0.0
C802 C 0.69781 0.61278 0.44687 0.0
C803 C 0.67716 0.6062 0.43303 0.0
C804 C 0.661 0.592 0.44564 0.0
C805 C 0.71317 0.63039 0.43467 0.0
C806 C 0.71587 0.65173 0.44754 0.0
C807 C 0.72307 0.62726 0.40942 0.0
C808 C 0.72176 0.60462 0.3956 0.0
C809 C 0.71279 0.60401 0.36901 0.0
C810 C 0.71139 0.58265 0.3561 0.0
C811 C 0.71898 0.56178 0.36953 0.0
C812 C 0.72805 0.56223 0.39589 0.0
C813 C 0.72951 0.58354 0.40889 0.0
H814 H 0.71786 0.54527 0.3595 0.0
H815 H 0.73557 0.75122 0.48704 0.0
H816 H 0.16078 0.30212 0.16558 0.0
H817 H 0.14069 0.33796 0.14777 0.0
H818 H 0.11769 0.30179 0.07744 0.0
H819 H 0.13796 0.26567 0.09519 0.0
H820 H 0.12812 0.34416 0.06168 0.0
H821 H 0.07977 0.31564 0.13101 0.0
H822 H 0.07052 0.30128 0.17634 0.0
H823 H 0.09253 0.3663 0.20895 0.0
H824 H 0.1022 0.38094 0.16384 0.0
H825 H 0.02323 0.43877 0.06574 0.0
H826 H 0.04278 0.40193 0.0825 0.0
H827 H 0.10968 0.42716 0.05749 0.0
H828 H 0.09023 0.46364 0.0404 0.0
H829 H 0.0748 0.3888 0.11954 0.0
H830 H 0.14477 0.38863 0.04042 0.0
H831 H 0.14815 0.40275 0.99356 0.0
H832 H 0.07446 0.39093 0.97789 0.0
H833 H 0.07063 0.37702 0.02471 0.0
C834 C 0.15128 0.30151 0.14643 0.0
C835 C 0.15096 0.28045 0.13221 0.0
C836 C 0.13969 0.32228 0.13614 0.0
C837 C 0.127 0.32294 0.11128 0.0
C838 C 0.12715 0.30213 0.09666 0.0
C839 C 0.13887 0.2813 0.10691 0.0
C840 C 0.11353 0.34512 0.10089 0.0
C841 C 0.11657 0.35381 0.07454 0.0
C842 C 0.09777 0.35798 0.11695 0.0
C843 C 0.09191 0.34929 0.14408 0.0
C844 C 0.08278 0.32681 0.14788 0.0
C845 C 0.07745 0.31863 0.17353 0.0
C846 C 0.08099 0.33284 0.19552 0.0
C847 C 0.08982 0.3553 0.1919 0.0
C848 C 0.09521 0.36355 0.16629 0.0
C849 C 0.0421 0.43649 0.06366 0.0
C850 C 0.05492 0.45433 0.05113 0.0
C851 C 0.05337 0.41529 0.07341 0.0
C852 C 0.07786 0.41113 0.071 0.0
C853 C 0.09073 0.42922 0.05907 0.0
C854 C 0.07949 0.45031 0.04922 0.0
C855 C 0.08992 0.38804 0.08074 0.0
C856 C 0.08652 0.37917 0.10686 0.0
C857 C 0.10485 0.37471 0.06434 0.0
C858 C 0.10746 0.38177 0.03593 0.0
C859 C 0.12935 0.38895 0.0269 0.0
C860 C 0.13127 0.39716 1.00044 0.0
C861 C 0.11148 0.39781 0.9828 0.0
C862 C 0.08973 0.39044 0.99159 0.0
C863 C 0.08767 0.38247 0.01807 0.0
H864 H 0.11299 0.40374 0.96224 0.0
H865 H 0.07685 0.32648 0.21537 0.0
H866 H 0.65578 0.29813 0.84122 0.0
H867 H 0.63041 0.26832 0.85946 0.0
H868 H 0.65771 0.28125 0.93926 0.0
H869 H 0.68389 0.31067 0.92094 0.0
H870 H 0.65719 0.23546 0.93062 0.0
H871 H 0.60152 0.29917 0.91956 0.0
H872 H 0.57991 0.3325 0.8964 0.0
H873 H 0.5521 0.28635 0.83749 0.0
H874 H 0.57382 0.25277 0.86007 0.0
H875 H 0.57153 0.1593 0.98526 0.0
H876 H 0.59378 0.19453 0.97516 0.0
H877 H 0.57796 0.18709 0.89085 0.0
H878 H 0.5558 0.1519 0.90071 0.0
H879 H 0.57143 0.23267 0.90734 0.0
H880 H 0.63107 0.17018 0.91623 0.0
H881 H 0.65444 0.13752 0.93852 0.0
H882 H 0.67488 0.18237 1.00232 0.0
H883 H 0.65143 0.21525 0.98053 0.0
C884 C 0.65649 0.29457 0.86264 0.0
C885 C 0.67197 0.30664 0.87962 0.0
C886 C 0.64174 0.27774 0.87309 0.0
C887 C 0.64194 0.27277 0.90076 0.0
C888 C 0.6572 0.28492 0.91785 0.0
C889 C 0.67203 0.30179 0.90738 0.0
C890 C 0.62713 0.25394 0.91146 0.0
C891 C 0.63833 0.2351 0.92607 0.0
C892 C 0.6026 0.25331 0.90509 0.0
C893 C 0.58945 0.27346 0.89143 0.0
C894 C 0.59094 0.29614 0.90155 0.0
C895 C 0.57865 0.31508 0.88854 0.0
C896 C 0.56468 0.31155 0.86546 0.0
C897 C 0.56294 0.28906 0.85537 0.0
C898 C 0.57521 0.27006 0.86829 0.0
C899 C 0.57299 0.16507 0.96456 0.0
C900 C 0.56204 0.15277 0.94375 0.0
C901 C 0.58565 0.18517 0.95886 0.0
C902 C 0.58772 0.19319 0.93228 0.0
C903 C 0.57653 0.18116 0.91151 0.0
C904 C 0.56384 0.16111 0.91718 0.0
C905 C 0.60163 0.21406 0.92597 0.0
C906 C 0.59022 0.23326 0.91224 0.0
C907 C 0.62594 0.21509 0.93328 0.0
C908 C 0.63929 0.1951 0.9469 0.0
C909 C 0.64033 0.17301 0.93516 0.0
C910 C 0.6537 0.1545 0.94762 0.0
C911 C 0.66621 0.1579 0.97177 0.0
C912 C 0.66527 0.17979 0.98357 0.0
C913 C 0.65193 0.19836 0.97118 0.0
H914 H 0.67653 0.14354 0.9814 0.0
H915 H 0.55517 0.32624 0.85542 0.0
H916 H 0.85701 0.85735 0.38883 0.0
H917 H 0.88463 0.88281 0.41182 0.0
H918 H 0.92559 0.88764 0.34099 0.0
H919 H 0.89799 0.86198 0.31778 0.0
H920 H 0.95321 0.88343 0.39197 0.0
H921 H 0.88964 0.92934 0.34715 0.0
H922 H 0.84773 0.9392 0.33567 0.0
H923 H 0.83492 0.94995 0.41861 0.0
H924 H 0.8767 0.93978 0.43062 0.0
H925 H 0.97279 1.01417 0.43143 0.0
H926 H 0.95505 0.98415 0.4038 0.0
H927 H 0.9715 0.93186 0.46646 0.0
H928 H 0.98955 0.96179 0.49404 0.0
H929 H 0.91713 0.96005 0.41568 0.0
H930 H 0.97804 0.878 0.43808 0.0
H931 H 1.02014 0.86839 0.44878 0.0
H932 H 0.0397 0.93173 0.40777 0.0
H933 H 0.99776 0.94155 0.3965 0.0
C934 C 0.87217 0.86341 0.37832 0.0
C935 C 0.8753 0.85781 0.35147 0.0
C936 C 0.88787 0.87798 0.39145 0.0
C937 C 0.90701 0.88713 0.37801 0.0
C938 C 0.91091 0.88067 0.35166 0.0
C939 C 0.89506 0.86623 0.3384 0.0
C940 C 0.92147 0.90521 0.39066 0.0
C941 C 0.94543 0.90022 0.39717 0.0
C942 C 0.91128 0.92716 0.39701 0.0
C943 C 0.88624 0.93361 0.3898 0.0
C944 C 0.87785 0.93364 0.36296 0.0
C945 C 0.85412 0.9393 0.35635 0.0
C946 C 0.83866 0.94515 0.3764 0.0
C947 C 0.84691 0.9454 0.4031 0.0
C948 C 0.87061 0.9397 0.40981 0.0
C949 C 0.97288 0.99621 0.43915 0.0
C950 C 0.98236 0.99028 0.46489 0.0
C951 C 0.96274 0.97911 0.42338 0.0
C952 C 0.96201 0.95578 0.43305 0.0
C953 C 0.97214 0.94969 0.45847 0.0
C954 C 0.98234 0.96681 0.47424 0.0
C955 C 0.94897 0.93832 0.41741 0.0
C956 C 0.92512 0.94337 0.41041 0.0
C957 C 0.95939 0.91656 0.41047 0.0
C958 C 0.98472 0.9106 0.41665 0.0
C959 C 0.99133 0.88981 0.43122 0.0
C960 C 1.01517 0.88434 0.43742 0.0
C961 C 0.03258 0.89947 0.42903 0.0
C962 C 0.02619 0.92006 0.41434 0.0
C963 C 1.00238 0.92561 0.40807 0.0
H964 H 0.05102 0.89522 0.43388 0.0
H965 H 0.8203 0.94952 0.37125 0.0
H966 H 0.39057 0.68921 0.70266 0.0
H967 H 0.40357 0.65447 0.67876 0.0
H968 H 0.44167 0.69856 0.62479 0.0
H969 H 0.42899 0.73314 0.64857 0.0
H970 H 0.41672 0.6671 0.59764 0.0
H971 H 0.47026 0.66708 0.67525 0.0
H972 H 0.48071 0.66673 0.72361 0.0
H973 H 0.44622 0.60124 0.7344 0.0
H974 H 0.43529 0.60138 0.68611 0.0
H975 H 0.51606 0.5759 0.57791 0.0
H976 H 0.49605 0.60418 0.60538 0.0
H977 H 0.42875 0.58572 0.56994 0.0
H978 H 0.44879 0.55753 0.54176 0.0
H979 H 0.46419 0.60184 0.64272 0.0
H980 H 0.39347 0.63565 0.56459 0.0
H981 H 0.38648 0.63764 0.51551 0.0
H982 H 0.46127 0.63895 0.50466 0.0
H983 H 0.46867 0.63727 0.55365 0.0
C984 C 0.4019 0.69144 0.68586 0.0
C985 C 0.40866 0.71395 0.67744 0.0
C986 C 0.40922 0.6716 0.67216 0.0
C987 C 0.42354 0.67395 0.64995 0.0
C988 C 0.43041 0.69636 0.64168 0.0
C989 C 0.42313 0.71612 0.6553 0.0
C990 C 0.43174 0.65318 0.63529 0.0
C991 C 0.42692 0.65273 0.60755 0.0
C992 C 0.44515 0.63449 0.64816 0.0
C993 C 0.45171 0.63439 0.67715 0.0
C994 C 0.46473 0.65271 0.68798 0.0
C995 C 0.47078 0.65253 0.71536 0.0
C996 C 0.46407 0.63401 0.73209 0.0
C997 C 0.45136 0.6156 0.72144 0.0
C998 C 0.44524 0.61571 0.69406 0.0
C999 C 0.49698 0.5777 0.57597 0.0
C1000 C 0.48405 0.56457 0.55743 0.0
C1001 C 0.48555 0.59382 0.59185 0.0
C1002 C 0.46093 0.59721 0.58961 0.0
C1003 C 0.44781 0.58359 0.57177 0.0
C1004 C 0.45929 0.56748 0.5557 0.0
C1005 C 0.44945 0.61593 0.60502 0.0
C1006 C 0.45359 0.61598 0.6329 0.0
C1007 C 0.43582 0.63452 0.59221 0.0
C1008 C 0.4316 0.63606 0.56275 0.0
C1009 C 0.4084 0.63645 0.55171 0.0
C1010 C 0.40438 0.63751 0.52392 0.0
C1011 C 0.42342 0.63833 0.50698 0.0
C1012 C 0.44654 0.63822 0.5178 0.0
C1013 C 0.45066 0.6372 0.54557 0.0
H1014 H 0.42027 0.63909 0.48547 0.0
H1015 H 0.46878 0.6339 0.75328 0.0
H1016 H 0.91381 0.93135 0.79692 0.0
H1017 H 0.93273 0.94835 0.75811 0.0
H1018 H 0.89405 0.90266 0.7064 0.0
H1019 H 0.87554 0.88507 0.74547 0.0
H1020 H 0.93427 0.9055 0.68705 0.0
H1021 H 0.88069 0.96544 0.71295 0.0
H1022 H 0.86144 0.99295 0.74307 0.0
H1023 H 0.92742 0.02642 0.75756 0.0
H1024 H 0.94715 0.99891 0.72779 0.0
H1025 H 0.9551 0.01588 0.5895 0.0
H1026 H 0.93514 0.99776 0.62718 0.0
H1027 H 0.99206 0.946 0.6375 0.0
H1028 H 1.01118 0.96321 0.59886 0.0
H1029 H 0.9401 0.99177 0.67592 0.0
H1030 H 0.9772 0.89631 0.66895 0.0
H1031 H 0.99033 0.86919 0.63456 0.0
H1032 H 0.94673 0.90715 0.57484 0.0
H1033 H 0.93313 0.93432 0.60893 0.0
C1034 C 0.90911 0.92495 0.77731 0.0
C1035 C 0.89279 0.90684 0.77465 0.0
C1036 C 0.91999 0.93484 0.75488 0.0
C1037 C 0.91468 0.9274 0.72872 0.0
C1038 C 0.89868 0.909 0.72606 0.0
C1039 C 0.888 0.89886 0.74859 0.0
C1040 C 0.92584 0.93866 0.7044 0.0
C1041 C 0.9355 0.92438 0.68477 0.0
C1042 C 0.92719 0.9634 0.70041 0.0
C1043 C 0.91544 0.97996 0.71835 0.0
C1044 C 0.89113 0.97856 0.72272 0.0
C1045 C 0.88013 0.99417 0.7397 0.0
C1046 C 0.89321 1.01138 0.75228 0.0
C1047 C 0.91732 1.01306 0.74784 0.0
C1048 C 0.92842 0.99747 0.7309 0.0
C1049 C 0.96334 1.00056 0.59971 0.0
C1050 C 0.98476 0.991 0.59074 0.0
C1051 C 0.95187 0.99014 0.62149 0.0
C1052 C 0.96154 0.96993 0.63541 0.0
C1053 C 0.98342 0.96092 0.62695 0.0
C1054 C 0.99459 0.971 0.60479 0.0
C1055 C 0.94892 0.95861 0.65872 0.0
C1056 C 0.93895 0.97288 0.67818 0.0
C1057 C 0.94652 0.9339 0.66201 0.0
C1058 C 0.95435 0.91747 0.64145 0.0
C1059 C 0.97035 0.8988 0.6485 0.0
C1060 C 0.97789 0.88344 0.62906 0.0
C1061 C 0.96943 0.88649 0.60252 0.0
C1062 C 0.95333 0.90485 0.59538 0.0
C1063 C 0.94572 0.92025 0.61475 0.0
H1064 H 0.97531 0.87459 0.58749 0.0
H1065 H 0.88466 0.02345 0.76541 0.0
H1066 H 0.62387 0.22501 0.18713 0.0
H1067 H 0.6041 0.19378 0.16349 0.0
H1068 H 0.67061 0.17097 0.13223 0.0
H1069 H 0.69024 0.20294 0.15449 0.0
H1070 H 0.63796 0.16845 0.09493 0.0
H1071 H 0.64609 0.14234 0.18664 0.0
H1072 H 0.64223 0.14476 0.23547 0.0
H1073 H 0.56666 0.14958 0.22473 0.0
H1074 H 0.57009 0.14751 0.17579 0.0
H1075 H 0.57968 0.04584 0.09673 0.0
H1076 H 0.60156 0.07629 0.1196 0.0
H1077 H 0.57001 0.12882 0.06434 0.0
H1078 H 0.54855 0.09858 0.04108 0.0
H1079 H 0.58802 0.11407 0.14565 0.0
H1080 H 0.61033 0.17107 0.05176 0.0
H1081 H 0.616 0.16523 1.00376 0.0
H1082 H 0.63639 0.09307 0.02039 0.0
H1083 H 0.63182 0.09865 0.06864 0.0
C1084 C 0.63425 0.2136 0.17489 0.0
C1085 C 0.65873 0.21642 0.17295 0.0
C1086 C 0.62296 0.19555 0.16163 0.0
C1087 C 0.63594 0.17971 0.14648 0.0
C1088 C 0.66023 0.18285 0.14393 0.0
C1089 C 0.67149 0.20101 0.15695 0.0
C1090 C 0.6243 0.15971 0.13354 0.0
C1091 C 0.62704 0.15658 0.10604 0.0
C1092 C 0.6105 0.14381 0.14811 0.0
C1093 C 0.60836 0.14498 0.17754 0.0
C1094 C 0.62866 0.14408 0.19468 0.0
C1095 C 0.62655 0.14537 0.22238 0.0
C1096 C 0.60422 0.14738 0.23319 0.0
C1097 C 0.58395 0.14805 0.21633 0.0
C1098 C 0.58596 0.1468 0.18861 0.0
C1099 C 0.57746 0.06387 0.08941 0.0
C1100 C 0.56248 0.06975 0.06699 0.0
C1101 C 0.58989 0.08125 0.10258 0.0
C1102 C 0.58759 0.10479 0.09354 0.0
C1103 C 0.57235 0.11073 0.07142 0.0
C1104 C 0.56005 0.09339 0.05817 0.0
C1105 C 0.60127 0.12317 0.10701 0.0
C1106 C 0.59894 0.12596 0.13458 0.0
C1107 C 0.61598 0.13833 0.09266 0.0
C1108 C 0.62032 0.13521 0.06383 0.0
C1109 C 0.61623 0.15401 0.04523 0.0
C1110 C 0.61919 0.15073 0.01795 0.0
C1111 C 0.62614 0.12871 1.00897 0.0
C1112 C 0.63077 0.11006 0.02734 0.0
C1113 C 0.62808 0.1133 0.05467 0.0
H1114 H 0.62801 0.1261 0.9878 0.0
H1115 H 0.60262 0.14837 0.25464 0.0
H1116 H 0.40159 0.63596 0.25583 0.0
H1117 H 0.41898 0.6309 0.30128 0.0
H1118 H 0.41067 0.55608 0.29779 0.0
H1119 H 0.39319 0.56103 0.25242 0.0
H1120 H 0.40114 0.57175 0.34706 0.0
H1121 H 0.46279 0.5805 0.28347 0.0
H1122 H 0.48338 0.60063 0.24717 0.0
H1123 H 0.49304 0.66034 0.29633 0.0
H1124 H 0.4722 0.64067 0.3328 0.0
H1125 H 0.49022 0.52248 0.43448 0.0
H1126 H 0.46467 0.53553 0.39624 0.0
H1127 H 0.47972 0.60764 0.41223 0.0
H1128 H 0.50577 0.59454 0.45056 0.0
H1129 H 0.4834 0.59823 0.35971 0.0
H1130 H 0.42622 0.58654 0.4259 0.0
H1131 H 0.40739 0.56491 0.4624 0.0
H1132 H 0.39028 0.50981 0.40897 0.0
H1133 H 0.40932 0.53095 0.3722 0.0
C1134 C 0.40334 0.61845 0.26483 0.0
C1135 C 0.39624 0.59886 0.25047 0.0
C1136 C 0.41322 0.61559 0.2908 0.0
C1137 C 0.41643 0.59307 0.30275 0.0
C1138 C 0.40833 0.57361 0.28895 0.0
C1139 C 0.39833 0.57647 0.26304 0.0
C1140 C 0.42973 0.58953 0.32876 0.0
C1141 C 0.41914 0.57746 0.34983 0.0
C1142 C 0.45305 0.59746 0.33256 0.0
C1143 C 0.4657 0.60924 0.31072 0.0
C1144 C 0.46915 0.59799 0.28645 0.0
C1145 C 0.48089 0.60931 0.26586 0.0
C1146 C 0.48945 0.63178 0.26941 0.0
C1147 C 0.48636 0.64296 0.29359 0.0
C1148 C 0.47459 0.63173 0.31422 0.0
C1149 C 0.48805 0.54112 0.42992 0.0
C1150 C 0.49999 0.55753 0.44538 0.0
C1151 C 0.47331 0.54857 0.40817 0.0
C1152 C 0.47004 0.57257 0.40162 0.0
C1153 C 0.48194 0.58904 0.41705 0.0
C1154 C 0.49676 0.58157 0.43889 0.0
C1155 C 0.45495 0.58016 0.37789 0.0
C1156 C 0.46523 0.59293 0.35719 0.0
C1157 C 0.4314 0.5728 0.37445 0.0
C1158 C 0.41931 0.56031 0.3963 0.0
C1159 C 0.41852 0.56977 0.42194 0.0
C1160 C 0.40781 0.55759 0.44269 0.0
C1161 C 0.39766 0.53599 0.43801 0.0
C1162 C 0.39813 0.52656 0.41255 0.0
C1163 C 0.40884 0.53866 0.39173 0.0
H1164 H 0.38939 0.52658 0.45411 0.0
H1165 H 0.49854 0.64051 0.25345 0.0
H1166 H 0.18027 0.28449 0.81184 0.0
H1167 H 0.16171 0.31412 0.83944 0.0
H1168 H 0.23018 0.33152 0.87248 0.0
H1169 H 0.24893 0.30218 0.84444 0.0
H1170 H 0.18697 0.32723 0.91009 0.0
H1171 H 0.21578 0.36525 0.82909 0.0
H1172 H 0.21934 0.36847 0.78011 0.0
H1173 H 0.14381 0.37453 0.76953 0.0
H1174 H 0.1398 0.37092 0.81848 0.0
H1175 H 0.15905 0.44049 0.96026 0.0
H1176 H 0.17653 0.40488 0.94177 0.0
H1177 H 0.11912 0.40408 0.88249 0.0
H1178 H 0.10211 0.43992 0.90047 0.0
H1179 H 0.1576 0.39879 0.85891 0.0
H1180 H 0.1259 0.35411 0.93314 0.0
H1181 H 0.11766 0.34204 0.97966 0.0
H1182 H 0.19147 0.34505 1.00174 0.0
H1183 H 0.20019 0.35638 0.95512 0.0
C1184 C 0.19128 0.29427 0.82545 0.0
C1185 C 0.21598 0.29116 0.82609 0.0
C1186 C 0.1807 0.31118 0.84109 0.0
C1187 C 0.19466 0.32492 0.85783 0.0
C1188 C 0.2192 0.32095 0.85968 0.0
C1189 C 0.22985 0.30433 0.84366 0.0
C1190 C 0.18375 0.34485 0.87144 0.0
C1191 C 0.18084 0.34308 0.8991 0.0
C1192 C 0.17505 0.36501 0.85677 0.0
C1193 C 0.17749 0.36757 0.8274 0.0
C1194 C 0.19993 0.36705 0.8163 0.0
C1195 C 0.20203 0.36899 0.78855 0.0
C1196 C 0.18181 0.37165 0.77171 0.0
C1197 C 0.15945 0.37244 0.7826 0.0
C1198 C 0.15726 0.37047 0.81034 0.0
C1199 C 0.15023 0.43258 0.94332 0.0
C1200 C 0.12943 0.44298 0.93154 0.0
C1201 C 0.16004 0.41211 0.93297 0.0
C1202 C 0.14903 0.40159 0.91089 0.0
C1203 C 0.12798 0.41184 0.8995 0.0
C1204 C 0.11835 0.43238 0.90963 0.0
C1205 C 0.16052 0.38137 0.89793 0.0
C1206 C 0.16371 0.38308 0.87019 0.0
C1207 C 0.16891 0.36091 0.91246 0.0
C1208 C 0.16362 0.35639 0.94085 0.0
C1209 C 0.14032 0.3524 0.94801 0.0
C1210 C 0.13561 0.34537 0.97427 0.0
C1211 C 0.15403 0.34277 0.99363 0.0
C1212 C 0.17722 0.34708 0.98673 0.0
C1213 C 0.18208 0.35364 0.96037 0.0
H1214 H 0.15032 0.33751 0.01399 0.0
H1215 H 0.18347 0.37314 0.75023 0.0
H1216 H 0.76643 0.90502 0.95626 0.0
H1217 H 0.73052 0.92344 0.97262 0.0
H1218 H 0.69771 0.92166 0.89356 0.0
H1219 H 0.73379 0.90349 0.87697 0.0
H1220 H 0.68519 0.96102 0.91251 0.0
H1221 H 0.68398 0.88309 0.951 0.0
H1222 H 0.69946 0.84824 0.97716 0.0
H1223 H 0.70578 0.88924 0.04759 0.0
H1224 H 0.69061 0.92442 0.02177 0.0
H1225 H 0.56642 0.98339 0.94764 0.0
H1226 H 0.60344 0.96509 0.93427 0.0
H1227 H 0.63458 0.97577 0.01276 0.0
H1228 H 0.59709 0.99419 0.02639 0.0
H1229 H 0.64854 0.93287 0.9956 0.0
H1230 H 0.64826 1.01055 0.95672 0.0
H1231 H 0.63201 0.04488 0.93023 0.0
H1232 H 0.62781 1.00353 0.85992 0.0
H1233 H 0.64374 0.96884 0.88607 0.0
C1234 C 0.75155 0.9082 0.94227 0.0
C1235 C 0.75342 0.90236 0.91511 0.0
C1236 C 0.73075 0.91885 0.95178 0.0
C1237 C 0.71069 0.92384 0.93469 0.0
C1238 C 0.71259 0.9182 0.90751 0.0
C1239 C 0.73347 0.90772 0.89793 0.0
C1240 C 0.68806 0.9352 0.94487 0.0
C1241 C 0.67713 0.9545 0.9305 0.0
C1242 C 0.67731 0.92754 0.96881 0.0
C1243 C 0.68639 0.90643 0.98438 0.0
C1244 C 0.68883 0.8847 0.97203 0.0
C1245 C 0.69752 0.86489 0.9868 0.0
C1246 C 0.70366 0.86654 0.014 0.0
C1247 C 0.70105 0.888 0.02651 0.0
C1248 C 0.69239 0.90788 0.01182 0.0
C1249 C 0.58108 0.98194 0.96221 0.0
C1250 C 0.57852 0.99058 0.98816 0.0
C1251 C 0.60249 0.97146 0.95441 0.0
C1252 C 0.62241 0.96917 0.97216 0.0
C1253 C 0.61978 0.97726 0.9984 0.0
C1254 C 0.59823 0.9879 1.00624 0.0
C1255 C 0.64568 0.95847 0.96308 0.0
C1256 C 0.65669 0.93934 0.97764 0.0
C1257 C 0.65646 0.96619 0.93924 0.0
C1258 C 0.647 0.98704 0.92342 0.0
C1259 C 0.64372 1.00873 0.93565 0.0
C1260 C 0.63458 0.02826 0.92069 0.0
C1261 C 0.62883 0.02637 0.89342 0.0
C1262 C 0.63225 1.00496 0.88105 0.0
C1263 C 0.64136 0.98536 0.89592 0.0
H1264 H 0.62176 0.04151 0.88188 0.0
H1265 H 0.71039 0.85118 0.0254 0.0
H1266 H 0.80126 0.27542 0.32369 0.0
H1267 H 0.83027 0.25464 0.35404 0.0
H1268 H 0.79887 0.18879 0.33523 0.0
H1269 H 0.76973 0.20948 0.30517 0.0
H1270 H 0.80731 0.19069 0.3871 0.0
H1271 H 0.85148 0.20579 0.30876 0.0
H1272 H 0.86788 0.23001 0.27266 0.0
H1273 H 0.90599 0.26956 0.33094 0.0
H1274 H 0.88954 0.24578 0.36744 0.0
H1275 H 0.89882 0.111 0.4329 0.0
H1276 H 0.87153 0.13492 0.40363 0.0
H1277 H 0.9002 0.19787 0.43581 0.0
H1278 H 0.92776 0.17395 0.46515 0.0
H1279 H 0.8937 0.19913 0.37898 0.0
H1280 H 0.84995 0.18167 0.45729 0.0
H1281 H 0.83396 0.15585 0.49221 0.0
H1282 H 0.79534 0.11884 0.43204 0.0
H1283 H 0.81138 0.14424 0.39671 0.0
C1284 C 0.80067 0.25649 0.32592 0.0
C1285 C 0.78323 0.24406 0.31208 0.0
C1286 C 0.81725 0.24464 0.34324 0.0
C1287 C 0.8169 0.22012 0.34671 0.0
C1288 C 0.79945 0.20771 0.33294 0.0
C1289 C 0.78278 0.21955 0.31581 0.0
C1290 C 0.83447 0.20731 0.36493 0.0
C1291 C 0.82619 0.19236 0.3851 0.0
C1292 C 0.85913 0.20987 0.36274 0.0
C1293 C 0.86907 0.22418 0.34084 0.0
C1294 C 0.8632 0.21978 0.31389 0.0
C1295 C 0.87253 0.23341 0.29335 0.0
C1296 C 0.88791 0.25136 0.2995 0.0
C1297 C 0.89404 0.25568 0.32621 0.0
C1298 C 0.88473 0.24212 0.34683 0.0
C1299 C 0.89949 0.12994 0.43355 0.0
C1300 C 0.91541 0.14063 0.45129 0.0
C1301 C 0.8838 0.14356 0.41696 0.0
C1302 C 0.88377 0.16813 0.41775 0.0
C1303 C 0.89996 0.17892 0.43499 0.0
C1304 C 0.91555 0.16527 0.45181 0.0
C1305 C 0.86646 0.18242 0.40083 0.0
C1306 C 0.8748 0.19762 0.38098 0.0
C1307 C 0.84185 0.17992 0.40311 0.0
C1308 C 0.83204 0.16473 0.42434 0.0
C1309 C 0.8382 0.16791 0.45148 0.0
C1310 C 0.8291 0.15337 0.47135 0.0
C1311 C 0.81369 0.13568 0.46434 0.0
C1312 C 0.80729 0.13254 0.43744 0.0
C1313 C 0.81637 0.14701 0.41749 0.0
H1314 H 0.80666 0.12444 0.47976 0.0
H1315 H 0.89513 0.26188 0.28357 0.0
H1316 H 0.25048 0.62802 0.11204 0.0
H1317 H 0.20856 0.62072 0.10304 0.0
H1318 H 0.22499 0.54669 0.09772 0.0
H1319 H 0.26676 0.55384 0.1067 0.0
H1320 H 0.1963 0.56134 0.05733 0.0
H1321 H 0.19968 0.56901 0.15293 0.0
H1322 H 0.2085 0.58875 0.19522 0.0
H1323 H 0.16129 0.64616 0.17008 0.0
H1324 H 0.15242 0.62689 0.12745 0.0
H1325 H 0.07155 0.53178 0.10339 0.0
H1326 H 0.11225 0.54299 0.11334 0.0
H1327 H 0.11339 0.57969 0.03666 0.0
H1328 H 0.07263 0.56853 0.02662 0.0
H1329 H 0.13296 0.58479 0.1179 0.0
H1330 H 0.16767 0.57225 0.01224 0.0
H1331 H 0.16225 0.54737 0.97302 0.0
H1332 H 0.13589 0.49253 0.02344 0.0
H1333 H 0.1409 0.51717 0.06281 0.0
C1334 C 0.2451 0.61018 0.10919 0.0
C1335 C 0.26194 0.59151 0.10998 0.0
C1336 C 0.22116 0.60603 0.10403 0.0
C1337 C 0.21364 0.58314 0.09981 0.0
C1338 C 0.23041 0.56451 0.10075 0.0
C1339 C 0.25429 0.56863 0.10581 0.0
C1340 C 0.18838 0.57845 0.09391 0.0
C1341 C 0.18244 0.56662 0.07051 0.0
C1342 C 0.17034 0.58506 0.11126 0.0
C1343 C 0.17559 0.59663 0.13689 0.0
C1344 C 0.19133 0.58593 0.15633 0.0
C1345 C 0.19631 0.59702 0.18038 0.0
C1346 C 0.18552 0.61873 0.1853 0.0
C1347 C 0.16966 0.62936 0.16622 0.0
C1348 C 0.16464 0.61836 0.14212 0.0
C1349 C 0.08043 0.54239 0.08875 0.0
C1350 C 0.06902 0.54919 0.06419 0.0
C1351 C 0.10365 0.5488 0.09447 0.0
C1352 C 0.11592 0.56198 0.07564 0.0
C1353 C 0.10435 0.56926 0.05133 0.0
C1354 C 0.08107 0.56295 0.04566 0.0
C1355 C 0.14094 0.56768 0.08133 0.0
C1356 C 0.14681 0.57979 0.1046 0.0
C1357 C 0.15904 0.56091 0.06416 0.0
C1358 C 0.15445 0.54663 0.04037 0.0
C1359 C 0.16052 0.55495 0.01486 0.0
C1360 C 0.15751 0.54091 0.99262 0.0
C1361 C 0.14869 0.51841 0.99571 0.0
C1362 C 0.14255 0.51002 0.021 0.0
C1363 C 0.14534 0.52407 0.04327 0.0
H1364 H 0.14679 0.50744 0.97852 0.0
H1365 H 0.18939 0.62728 0.20393 0.0
H1366 H 0.30394 0.32752 0.69092 0.0
H1367 H 0.31784 0.35921 0.66187 0.0
H1368 H 0.28942 0.32495 0.59249 0.0
H1369 H 0.27523 0.29327 0.62154 0.0
H1370 H 0.33772 0.33844 0.58971 0.0
H1371 H 0.2617 0.37134 0.60923 0.0
H1372 H 0.22977 0.38358 0.63844 0.0
H1373 H 0.27596 0.43163 0.67707 0.0
H1374 H 0.3083 0.41941 0.64836 0.0
H1375 H 0.36987 0.42838 0.50152 0.0
H1376 H 0.34387 0.40161 0.52417 0.0
H1377 H 0.35723 0.43626 0.59854 0.0
H1378 H 0.38221 0.46405 0.57569 0.0
H1379 H 0.31304 0.42229 0.59583 0.0
H1380 H 0.38963 0.38729 0.58221 0.0
H1381 H 0.42353 0.37482 0.55597 0.0
H1382 H 0.37875 0.33039 0.50989 0.0
H1383 H 0.34449 0.34287 0.53565 0.0
C1384 C 0.30066 0.32679 0.66947 0.0
C1385 C 0.28863 0.30797 0.65839 0.0
C1386 C 0.30843 0.34494 0.65296 0.0
C1387 C 0.30447 0.34443 0.62511 0.0
C1388 C 0.29249 0.32565 0.61397 0.0
C1389 C 0.2844 0.30765 0.63052 0.0
C1390 C 0.31396 0.36298 0.60764 0.0
C1391 C 0.332 0.35672 0.59058 0.0
C1392 C 0.30693 0.38685 0.60953 0.0
C1393 C 0.28749 0.3943 0.62679 0.0
C1394 C 0.26512 0.38436 0.62412 0.0
C1395 C 0.24693 0.39133 0.64055 0.0
C1396 C 0.25085 0.40833 0.65964 0.0
C1397 C 0.27295 0.41844 0.66229 0.0
C1398 C 0.29121 0.41152 0.64592 0.0
C1399 C 0.36674 0.43084 0.5225 0.0
C1400 C 0.37844 0.44821 0.53686 0.0
C1401 C 0.35205 0.4153 0.5355 0.0
C1402 C 0.3491 0.41655 0.56318 0.0
C1403 C 0.35944 0.43482 0.5772 0.0
C1404 C 0.37392 0.45054 0.56416 0.0
C1405 C 0.33693 0.39778 0.57792 0.0
C1406 C 0.31851 0.40397 0.5946 0.0
C1407 C 0.34388 0.37382 0.57608 0.0
C1408 C 0.36446 0.36622 0.56063 0.0
C1409 C 0.38698 0.37499 0.56635 0.0
C1410 C 0.40626 0.36791 0.55158 0.0
C1411 C 0.40328 0.35187 0.53122 0.0
C1412 C 0.38102 0.34285 0.52563 0.0
C1413 C 0.36167 0.34991 0.54031 0.0
H1414 H 0.41823 0.3464 0.51981 0.0
H1415 H 0.23674 0.41371 0.67235 0.0
H1416 H 0.91882 0.78206 0.94317 0.0
H1417 H 0.93766 0.74487 0.95884 0.0
H1418 H 0.89382 0.70802 0.90274 0.0
H1419 H 0.87429 0.74534 0.88762 0.0
H1420 H 0.89825 0.68131 0.94374 0.0
H1421 H 0.95696 0.72031 0.89492 0.0
H1422 H 0.98284 0.75253 0.88226 0.0
H1423 H 1.01561 0.7496 0.96122 0.0
H1424 H 0.9897 0.71755 0.97446 0.0
H1425 H 1.01422 0.59791 0.95815 0.0
H1426 H 0.99366 0.6341 0.94127 0.0
H1427 H 0.9423 0.62639 1.00218 0.0
H1428 H 0.96213 0.58974 0.01819 0.0
H1429 H 0.98546 0.67458 0.95573 0.0
H1430 H 0.89082 0.65417 0.9876 0.0
H1431 H 0.86506 0.62027 0.99264 0.0
H1432 H 0.90476 0.58286 0.93518 0.0
H1433 H 0.93071 0.61654 0.92976 0.0
C1434 C 0.91318 0.76611 0.93397 0.0
C1435 C 0.89501 0.76709 0.91377 0.0
C1436 C 0.92416 0.74461 0.94295 0.0
C1437 C 0.91789 0.72313 0.93172 0.0
C1438 C 0.89935 0.72402 0.91194 0.0
C1439 C 0.88808 0.74555 0.90321 0.0
C1440 C 0.93055 0.70001 0.94061 0.0
C1441 C 0.91733 0.68001 0.94636 0.0
C1442 C 0.9556 0.69746 0.94363 0.0
C1443 C 0.97124 0.71669 0.93575 0.0
C1444 C 0.96958 0.72664 0.90963 0.0
C1445 C 0.98427 0.74486 0.90235 0.0
C1446 C 1.00081 0.75314 0.92094 0.0
C1447 C 1.00276 0.74318 0.94685 0.0
C1448 C 0.98809 0.72498 0.95425 0.0
C1449 C 0.99849 0.60383 0.96793 0.0
C1450 C 0.98996 0.59052 0.98957 0.0
C1451 C 0.98664 0.62475 0.95824 0.0
C1452 C 0.96586 0.63333 0.96987 0.0
C1453 C 0.95769 0.62025 0.99194 0.0
C1454 C 0.96931 0.59918 1.00137 0.0
C1455 C 0.95316 0.65595 0.9593 0.0
C1456 C 0.96637 0.67588 0.95321 0.0
C1457 C 0.92816 0.6582 0.95515 0.0
C1458 C 0.9128 0.6378 0.95845 0.0
C1459 C 0.89402 0.63872 0.97602 0.0
C1460 C 0.87941 0.61954 0.97896 0.0
C1461 C 0.88328 0.59943 0.96424 0.0
C1462 C 0.9018 0.59844 0.94659 0.0
C1463 C 0.91652 0.61753 0.94365 0.0
H1464 H 0.87192 0.58462 0.96651 0.0
H1465 H 1.01217 0.76725 0.91526 0.0
H1466 H 0.36958 0.72082 0.09277 0.0
H1467 H 0.38809 0.75802 0.08236 0.0
H1468 H 0.45394 0.72091 0.06942 0.0
H1469 H 0.43587 0.68381 0.08086 0.0
H1470 H 0.46092 0.75609 0.10124 0.0
H1471 H 0.41939 0.74573 0.0183 0.0
H1472 H 0.38547 0.73899 0.9875 0.0
H1473 H 0.35173 0.80311 0.01107 0.0
H1474 H 0.38516 0.80996 0.04259 0.0
H1475 H 0.51876 0.85767 0.05588 0.0
H1476 H 0.5001 0.8195 0.05327 0.0
H1477 H 0.43462 0.85062 0.07847 0.0
H1478 H 0.45314 0.88882 0.08107 0.0
H1479 H 0.42907 0.8178 0.03646 0.0
H1480 H 0.46788 0.82432 0.12384 0.0
H1481 H 0.5019 0.83127 0.15453 0.0
H1482 H 0.54072 0.77408 0.12116 0.0
H1483 H 0.50702 0.76702 0.08997 0.0
C1484 C 0.38799 0.72057 0.08766 0.0
C1485 C 0.40124 0.69932 0.08771 0.0
C1486 C 0.39848 0.74183 0.08143 0.0
C1487 C 0.42236 0.74224 0.07489 0.0
C1488 C 0.43547 0.72101 0.07432 0.0
C1489 C 0.42503 0.69978 0.08063 0.0
C1490 C 0.43412 0.76486 0.0705 0.0
C1491 C 0.45416 0.76937 0.0867 0.0
C1492 C 0.42503 0.78241 0.0519 0.0
C1493 C 0.40473 0.77822 0.03311 0.0
C1494 C 0.4046 0.75823 0.01725 0.0
C1495 C 0.38546 0.75441 0.99961 0.0
C1496 C 0.36642 0.77057 0.9974 0.0
C1497 C 0.36647 0.79057 0.01286 0.0
C1498 C 0.38551 0.79443 0.03063 0.0
C1499 C 0.5003 0.85641 0.06051 0.0
C1500 C 0.48744 0.8761 0.06897 0.0
C1501 C 0.4897 0.83464 0.05904 0.0
C1502 C 0.46605 0.83229 0.06581 0.0
C1503 C 0.45289 0.85213 0.07314 0.0
C1504 C 0.46354 0.87383 0.07488 0.0
C1505 C 0.45554 0.80887 0.06738 0.0
C1506 C 0.43582 0.80429 0.05073 0.0
C1507 C 0.46485 0.79118 0.08554 0.0
C1508 C 0.48506 0.79532 0.10437 0.0
C1509 C 0.48375 0.81336 0.12289 0.0
C1510 C 0.50296 0.81729 0.1404 0.0
C1511 C 0.52349 0.80317 0.13974 0.0
C1512 C 0.52483 0.78503 0.12161 0.0
C1513 C 0.50568 0.78105 0.10402 0.0
H1514 H 0.53833 0.80624 0.15332 0.0
H1515 H 0.35166 0.76763 0.98365 0.0
H1516 H 0.18682 0.18368 0.64322 0.0
H1517 H 0.15584 0.16004 0.62273 0.0
H1518 H 0.12582 0.14921 0.69998 0.0
H1519 H 0.15642 0.17341 0.72045 0.0
H1520 H 0.13869 0.10681 0.66703 0.0
H1521 H 0.09444 0.18043 0.66396 0.0
H1522 H 0.08824 0.22268 0.65315 0.0
H1523 H 0.09642 0.21004 0.56971 0.0
H1524 H 0.10304 0.16774 0.58006 0.0
H1525 H 0.04996 0.0371 0.6111 0.0
H1526 H 0.06907 0.06663 0.63842 0.0
H1527 H 0.08394 0.10665 0.56656 0.0
H1528 H 0.06327 0.07814 0.53958 0.0
H1529 H 0.07556 0.13567 0.6017 0.0
H1530 H 0.12549 0.06572 0.60224 0.0
H1531 H 0.13552 0.02359 0.60975 0.0
H1532 H 0.12171 0.02908 0.69326 0.0
H1533 H 0.11133 0.0712 0.68616 0.0
C1534 C 0.17344 0.17642 0.65571 0.0
C1535 C 0.1739 0.18024 0.68333 0.0
C1536 C 0.15578 0.16306 0.64403 0.0
C1537 C 0.1386 0.15304 0.6599 0.0
C1538 C 0.13891 0.15695 0.68747 0.0
C1539 C 0.15629 0.17074 0.69907 0.0
C1540 C 0.12133 0.13721 0.64782 0.0
C1541 C 0.12455 0.11306 0.65313 0.0
C1542 C 0.1035 0.1455 0.62911 0.0
C1543 C 0.09945 0.17093 0.62283 0.0
C1544 C 0.09515 0.18668 0.64334 0.0
C1545 C 0.0915 0.21064 0.63729 0.0
C1546 C 0.09199 0.21905 0.61077 0.0
C1547 C 0.09607 0.2035 0.59024 0.0
C1548 C 0.09974 0.17953 0.59619 0.0
C1549 C 0.05708 0.0524 0.6013 0.0
C1550 C 0.05542 0.05533 0.57334 0.0
C1551 C 0.06814 0.06918 0.61685 0.0
C1552 C 0.0786 0.0886 0.60456 0.0
C1553 C 0.07611 0.09186 0.5766 0.0
C1554 C 0.06439 0.0755 0.56116 0.0
C1555 C 0.09307 0.10497 0.62046 0.0
C1556 C 0.08943 0.12928 0.61585 0.0
C1557 C 0.11103 0.09679 0.63929 0.0
C1558 C 0.11738 0.07152 0.64361 0.0
C1559 C 0.12446 0.05789 0.62217 0.0
C1560 C 0.13022 0.03403 0.62635 0.0
C1561 C 0.12919 0.02365 0.65195 0.0
C1562 C 0.12246 0.03713 0.67343 0.0
C1563 C 0.11664 0.061 0.66935 0.0
H1564 H 0.13365 1.00517 0.65515 0.0
H1565 H 0.08916 0.2376 0.60613 0.0
H1566 H 0.61937 0.34286 0.29586 0.0
H1567 H 0.59911 0.36759 0.32756 0.0
H1568 H 0.66584 0.39553 0.35344 0.0
H1569 H 0.68626 0.37041 0.32237 0.0
H1570 H 0.6391 0.3851 0.39558 0.0
H1571 H 0.6284 0.42724 0.31114 0.0
H1572 H 0.61665 0.43238 0.26327 0.0
H1573 H 0.54506 0.41675 0.28076 0.0
H1574 H 0.55646 0.41119 0.32872 0.0
H1575 H 0.59322 0.48319 0.46417 0.0
H1576 H 0.61417 0.45784 0.43372 0.0
H1577 H 0.54771 0.4316 0.40433 0.0
H1578 H 0.52664 0.45718 0.43421 0.0
H1579 H 0.57476 0.44125 0.36398 0.0
H1580 H 0.58534 0.39934 0.4486 0.0
H1581 H 0.59714 0.39401 0.49641 0.0
H1582 H 0.66888 0.40889 0.47879 0.0
H1583 H 0.65741 0.41472 0.43088 0.0
C1584 C 0.62974 0.35414 0.30845 0.0
C1585 C 0.65441 0.35479 0.30646 0.0
C1586 C 0.61812 0.36839 0.3264 0.0
C1587 C 0.63094 0.38361 0.34264 0.0
C1588 C 0.65559 0.384 0.34102 0.0
C1589 C 0.6672 0.36979 0.32307 0.0
C1590 C 0.61867 0.3992 0.36128 0.0
C1591 C 0.62522 0.3976 0.38865 0.0
C1592 C 0.60025 0.41515 0.35229 0.0
C1593 C 0.59334 0.41857 0.32348 0.0
C1594 C 0.61019 0.42472 0.30475 0.0
C1595 C 0.60358 0.42774 0.27761 0.0
C1596 C 0.58013 0.42484 0.26897 0.0
C1597 C 0.56322 0.41896 0.28748 0.0
C1598 C 0.56974 0.41589 0.31464 0.0
C1599 C 0.58306 0.47197 0.45128 0.0
C1600 C 0.55824 0.47221 0.45165 0.0
C1601 C 0.59508 0.45742 0.43395 0.0
C1602 C 0.58253 0.44261 0.41692 0.0
C1603 C 0.55777 0.44287 0.41725 0.0
C1604 C 0.54575 0.4575 0.43442 0.0
C1605 C 0.59508 0.42711 0.39838 0.0
C1606 C 0.58861 0.42875 0.37097 0.0
C1607 C 0.61355 0.41118 0.40737 0.0
C1608 C 0.62046 0.40769 0.43618 0.0
C1609 C 0.60359 0.40168 0.45494 0.0
C1610 C 0.61023 0.39853 0.48206 0.0
C1611 C 0.63375 0.40113 0.49064 0.0
C1612 C 0.65067 0.4069 0.47211 0.0
C1613 C 0.64411 0.41012 0.44498 0.0
H1614 H 0.6389 0.39861 0.51162 0.0
H1615 H 0.57505 0.42719 0.24794 0.0
loop_
_geom_bond_atom_site_label_1
_geom_bond_atom_site_label_2
_geom_bond_distance
_geom_bond_site_symmetry_2
_ccdc_geom_bond_type
P0 O11 1.490 . S
P0 C14 1.812 . S
P0 C20 1.803 . S
P0 C26 1.819 . S
H1 C15 0.941 . S
H2 C16 0.939 . S
H3 C18 0.940 . S
H4 C19 0.940 . S
H5 C21 0.939 . S
H6 C22 0.942 . S
H7 C24 0.940 . S
H8 C25 0.939 . S
H9 C27 0.941 . S
H10 C31 0.939 . S
O11 P0 1.490 . S
H12 C28 0.939 . S
H13 C30 0.940 . S
C14 P0 1.812 . S
C14 C15 1.389 . S
C14 C19 1.391 . S
C15 H1 0.941 . S
C15 C14 1.389 . S
C15 C16 1.397 . S
C16 H2 0.939 . S
C16 C15 1.397 . S
C16 C17 1.378 . S
C17 C16 1.378 . S
C17 C18 1.378 . S
C18 H3 0.940 . S
C18 C17 1.378 . S
C18 C19 1.396 . S
C19 H4 0.940 . S
C19 C14 1.391 . S
C19 C18 1.396 . S
C20 P0 1.803 . S
C20 C21 1.378 . S
C20 C25 1.400 . S
C21 H5 0.939 . S
C21 C20 1.378 . S
C21 C22 1.361 . S
C22 H6 0.942 . S
C22 C21 1.361 . S
C22 C23 1.369 . S
C23 C22 1.369 . S
C23 C24 1.404 . S
C24 H7 0.940 . S
C24 C23 1.404 . S
C24 C25 1.389 . S
C25 H8 0.939 . S
C25 C20 1.400 . S
C25 C24 1.389 . S
C26 P0 1.819 . S
C26 C27 1.391 . S
C26 C31 1.391 . S
C27 H9 0.941 . S
C27 C26 1.391 . S
C27 C28 1.396 . S
C28 H12 0.939 . S
C28 C27 1.396 . S
C28 C29 1.397 . S
C29 C28 1.397 . S
C29 C30 1.385 . S
C30 H13 0.940 . S
C30 C29 1.385 . S
C30 C31 1.388 . S
C31 H10 0.939 . S
C31 C26 1.391 . S
C31 C30 1.388 . S
P32 O43 1.490 . S
P32 C46 1.812 . S
P32 C52 1.803 . S
P32 C58 1.819 . S
H33 C47 0.941 . S
H34 C48 0.939 . S
H35 C50 0.940 . S
H36 C51 0.940 . S
H37 C53 0.939 . S
H38 C54 0.942 . S
H39 C56 0.940 . S
H40 C57 0.939 . S
H41 C59 0.941 . S
H42 C63 0.939 . S
O43 P32 1.490 . S
H44 C60 0.939 . S
H45 C62 0.940 . S
C46 P32 1.812 . S
C46 C47 1.389 . S
C46 C51 1.391 . S
C47 H33 0.941 . S
C47 C46 1.389 . S
C47 C48 1.397 . S
C48 H34 0.939 . S
C48 C47 1.397 . S
C48 C49 1.378 . S
C49 C48 1.378 . S
C49 C50 1.378 . S
C50 H35 0.940 . S
C50 C49 1.378 . S
C50 C51 1.396 . S
C51 H36 0.940 . S
C51 C46 1.391 . S
C51 C50 1.396 . S
C52 P32 1.803 . S
C52 C53 1.378 . S
C52 C57 1.400 . S
C53 H37 0.939 . S
C53 C52 1.378 . S
C53 C54 1.361 . S
C54 H38 0.942 . S
C54 C53 1.361 . S
C54 C55 1.369 . S
C55 C54 1.369 . S
C55 C56 1.404 . S
C56 H39 0.940 . S
C56 C55 1.404 . S
C56 C57 1.389 . S
C57 H40 0.939 . S
C57 C52 1.400 . S
C57 C56 1.389 . S
C58 P32 1.819 . S
C58 C59 1.391 . S
C58 C63 1.391 . S
C59 H41 0.941 . S
C59 C58 1.391 . S
C59 C60 1.396 . S
C60 H44 0.939 . S
C60 C59 1.396 . S
C60 C61 1.397 . S
C61 C60 1.397 . S
C61 C62 1.385 . S
C62 H45 0.940 . S
C62 C61 1.385 . S
C62 C63 1.388 . S
C63 H42 0.939 . S
C63 C58 1.391 . S
C63 C62 1.388 . S
P64 O75 1.490 . S
P64 C78 1.812 . S
P64 C84 1.803 . S
P64 C90 1.819 . S
H65 C79 0.941 . S
H66 C80 0.939 . S
H67 C82 0.940 . S
H68 C83 0.940 . S
H69 C85 0.939 . S
H70 C86 0.942 . S
H71 C88 0.940 . S
H72 C89 0.939 . S
H73 C91 0.941 . S
H74 C95 0.939 . S
O75 P64 1.490 . S
H76 C92 0.939 . S
H77 C94 0.940 . S
C78 P64 1.812 . S
C78 C79 1.389 . S
C78 C83 1.391 . S
C79 H65 0.941 . S
C79 C78 1.389 . S
C79 C80 1.397 . S
C80 H66 0.939 . S
C80 C79 1.397 . S
C80 C81 1.378 . S
C81 C80 1.378 . S
C81 C82 1.378 . S
C82 H67 0.940 . S
C82 C81 1.378 . S
C82 C83 1.396 . S
C83 H68 0.940 . S
C83 C78 1.391 . S
C83 C82 1.396 . S
C84 P64 1.803 . S
C84 C85 1.378 . S
C84 C89 1.400 . S
C85 H69 0.939 . S
C85 C84 1.378 . S
C85 C86 1.361 . S
C86 H70 0.942 . S
C86 C85 1.361 . S
C86 C87 1.369 . S
C87 C86 1.369 . S
C87 C88 1.404 . S
C88 H71 0.940 . S
C88 C87 1.404 . S
C88 C89 1.389 . S
C89 H72 0.939 . S
C89 C84 1.400 . S
C89 C88 1.389 . S
C90 P64 1.819 . S
C90 C91 1.391 . S
C90 C95 1.391 . S
C91 H73 0.941 . S
C91 C90 1.391 . S
C91 C92 1.396 . S
C92 H76 0.939 . S
C92 C91 1.396 . S
C92 C93 1.397 . S
C93 C92 1.397 . S
C93 C94 1.385 . S
C94 H77 0.940 . S
C94 C93 1.385 . S
C94 C95 1.388 . S
C95 H74 0.939 . S
C95 C90 1.391 . S
C95 C94 1.388 . S
P96 O107 1.490 . S
P96 C110 1.812 . S
P96 C116 1.803 . S
P96 C122 1.819 . S
H97 C111 0.941 . S
H98 C112 0.939 . S
H99 C114 0.940 . S
H100 C115 0.940 . S
H101 C117 0.939 . S
H102 C118 0.942 . S
H103 C120 0.940 . S
H104 C121 0.939 . S
H105 C123 0.941 . S
H106 C127 0.939 . S
O107 P96 1.490 . S
H108 C124 0.939 . S
H109 C126 0.940 . S
C110 P96 1.812 . S
C110 C111 1.389 . S
C110 C115 1.391 . S
C111 H97 0.941 . S
C111 C110 1.389 . S
C111 C112 1.397 . S
C112 H98 0.939 . S
C112 C111 1.397 . S
C112 C113 1.378 . S
C113 C112 1.378 . S
C113 C114 1.378 . S
C114 H99 0.940 . S
C114 C113 1.378 . S
C114 C115 1.396 . S
C115 H100 0.940 . S
C115 C110 1.391 . S
C115 C114 1.396 . S
C116 P96 1.803 . S
C116 C117 1.378 . S
C116 C121 1.400 . S
C117 H101 0.939 . S
C117 C116 1.378 . S
C117 C118 1.361 . S
C118 H102 0.942 . S
C118 C117 1.361 . S
C118 C119 1.369 . S
C119 C118 1.369 . S
C119 C120 1.404 . S
C120 H103 0.940 . S
C120 C119 1.404 . S
C120 C121 1.389 . S
C121 H104 0.939 . S
C121 C116 1.400 . S
C121 C120 1.389 . S
C122 P96 1.819 . S
C122 C123 1.391 . S
C122 C127 1.391 . S
C123 H105 0.941 . S
C123 C122 1.391 . S
C123 C124 1.396 . S
C124 H108 0.939 . S
C124 C123 1.396 . S
C124 C125 1.397 . S
C125 C124 1.397 . S
C125 C126 1.385 . S
C126 H109 0.940 . S
C126 C125 1.385 . S
C126 C127 1.388 . S
C127 H106 0.939 . S
C127 C122 1.391 . S
C127 C126 1.388 . S
P128 O139 1.490 . S
P128 C142 1.812 . S
P128 C148 1.803 . S
P128 C154 1.819 . S
H129 C143 0.941 . S
H130 C144 0.939 . S
H131 C146 0.940 . S
H132 C147 0.940 . S
H133 C149 0.939 . S
H134 C150 0.942 . S
H135 C152 0.940 . S
H136 C153 0.939 . S
H137 C155 0.941 . S
H138 C159 0.939 . S
O139 P128 1.490 . S
H140 C156 0.939 . S
H141 C158 0.940 . S
C142 P128 1.812 . S
C142 C143 1.389 . S
C142 C147 1.391 . S
C143 H129 0.941 . S
C143 C142 1.389 . S
C143 C144 1.397 . S
C144 H130 0.939 . S
C144 C143 1.397 . S
C144 C145 1.378 . S
C145 C144 1.378 . S
C145 C146 1.378 . S
C146 H131 0.940 . S
C146 C145 1.378 . S
C146 C147 1.396 . S
C147 H132 0.940 . S
C147 C142 1.391 . S
C147 C146 1.396 . S
C148 P128 1.803 . S
C148 C149 1.378 . S
C148 C153 1.400 . S
C149 H133 0.939 . S
C149 C148 1.378 . S
C149 C150 1.361 . S
C150 H134 0.942 . S
C150 C149 1.361 . S
C150 C151 1.369 . S
C151 C150 1.369 . S
C151 C152 1.404 . S
C152 H135 0.940 . S
C152 C151 1.404 . S
C152 C153 1.389 . S
C153 H136 0.939 . S
C153 C148 1.400 . S
C153 C152 1.389 . S
C154 P128 1.819 . S
C154 C155 1.391 . S
C154 C159 1.391 . S
C155 H137 0.941 . S
C155 C154 1.391 . S
C155 C156 1.396 . S
C156 H140 0.939 . S
C156 C155 1.396 . S
C156 C157 1.397 . S
C157 C156 1.397 . S
C157 C158 1.385 . S
C158 H141 0.940 . S
C158 C157 1.385 . S
C158 C159 1.388 . S
C159 H138 0.939 . S
C159 C154 1.391 . S
C159 C158 1.388 . S
P160 O171 1.490 . S
P160 C174 1.812 . S
P160 C180 1.803 . S
P160 C186 1.819 . S
H161 C175 0.941 . S
H162 C176 0.939 . S
H163 C178 0.940 . S
H164 C179 0.940 . S
H165 C181 0.939 . S
H166 C182 0.942 . S
H167 C184 0.940 . S
H168 C185 0.939 . S
H169 C187 0.941 . S
H170 C191 0.939 . S
O171 P160 1.490 . S
H172 C188 0.939 . S
H173 C190 0.940 . S
C174 P160 1.812 . S
C174 C175 1.389 . S
C174 C179 1.391 . S
C175 H161 0.941 . S
C175 C174 1.389 . S
C175 C176 1.397 . S
C176 H162 0.939 . S
C176 C175 1.397 . S
C176 C177 1.378 . S
C177 C176 1.378 . S
C177 C178 1.378 . S
C178 H163 0.940 . S
C178 C177 1.378 . S
C178 C179 1.396 . S
C179 H164 0.940 . S
C179 C174 1.391 . S
C179 C178 1.396 . S
C180 P160 1.803 . S
C180 C181 1.378 . S
C180 C185 1.400 . S
C181 H165 0.939 . S
C181 C180 1.378 . S
C181 C182 1.361 . S
C182 H166 0.942 . S
C182 C181 1.361 . S
C182 C183 1.369 . S
C183 C182 1.369 . S
C183 C184 1.404 . S
C184 H167 0.940 . S
C184 C183 1.404 . S
C184 C185 1.389 . S
C185 H168 0.939 . S
C185 C180 1.400 . S
C185 C184 1.389 . S
C186 P160 1.819 . S
C186 C187 1.391 . S
C186 C191 1.391 . S
C187 H169 0.941 . S
C187 C186 1.391 . S
C187 C188 1.396 . S
C188 H172 0.939 . S
C188 C187 1.396 . S
C188 C189 1.397 . S
C189 C188 1.397 . S
C189 C190 1.385 . S
C190 H173 0.940 . S
C190 C189 1.385 . S
C190 C191 1.388 . S
C191 H170 0.939 . S
C191 C186 1.391 . S
C191 C190 1.388 . S
P192 O203 1.490 . S
P192 C206 1.812 . S
P192 C212 1.803 . S
P192 C218 1.819 . S
H193 C207 0.941 . S
H194 C208 0.939 . S
H195 C210 0.940 . S
H196 C211 0.940 . S
H197 C213 0.939 . S
H198 C214 0.942 . S
H199 C216 0.940 . S
H200 C217 0.939 . S
H201 C219 0.941 . S
H202 C223 0.939 . S
O203 P192 1.490 . S
H204 C220 0.939 . S
H205 C222 0.940 . S
C206 P192 1.812 . S
C206 C207 1.389 . S
C206 C211 1.391 . S
C207 H193 0.941 . S
C207 C206 1.389 . S
C207 C208 1.397 . S
C208 H194 0.939 . S
C208 C207 1.397 . S
C208 C209 1.378 . S
C209 C208 1.378 . S
C209 C210 1.378 . S
C210 H195 0.940 . S
C210 C209 1.378 . S
C210 C211 1.396 . S
C211 H196 0.940 . S
C211 C206 1.391 . S
C211 C210 1.396 . S
C212 P192 1.803 . S
C212 C213 1.378 . S
C212 C217 1.400 . S
C213 H197 0.939 . S
C213 C212 1.378 . S
C213 C214 1.361 . S
C214 H198 0.942 . S
C214 C213 1.361 . S
C214 C215 1.369 . S
C215 C214 1.369 . S
C215 C216 1.404 . S
C216 H199 0.940 . S
C216 C215 1.404 . S
C216 C217 1.389 . S
C217 H200 0.939 . S
C217 C212 1.400 . S
C217 C216 1.389 . S
C218 P192 1.819 . S
C218 C219 1.391 . S
C218 C223 1.391 . S
C219 H201 0.941 . S
C219 C218 1.391 . S
C219 C220 1.396 . S
C220 H204 0.939 . S
C220 C219 1.396 . S
C220 C221 1.397 . S
C221 C220 1.397 . S
C221 C222 1.385 . S
C222 H205 0.940 . S
C222 C221 1.385 . S
C222 C223 1.388 . S
C223 H202 0.939 . S
C223 C218 1.391 . S
C223 C222 1.388 . S
P224 O235 1.490 . S
P224 C238 1.812 . S
P224 C244 1.803 . S
P224 C250 1.819 . S
H225 C239 0.941 . S
H226 C240 0.939 . S
H227 C242 0.940 . S
H228 C243 0.940 . S
H229 C245 0.939 . S
H230 C246 0.942 . S
H231 C248 0.940 . S
H232 C249 0.939 . S
H233 C251 0.941 . S
H234 C255 0.939 . S
O235 P224 1.490 . S
H236 C252 0.939 . S
H237 C254 0.940 . S
C238 P224 1.812 . S
C238 C239 1.389 . S
C238 C243 1.391 . S
C239 H225 0.941 . S
C239 C238 1.389 . S
C239 C240 1.397 . S
C240 H226 0.939 . S
C240 C239 1.397 . S
C240 C241 1.378 . S
C241 C240 1.378 . S
C241 C242 1.378 . S
C242 H227 0.940 . S
C242 C241 1.378 . S
C242 C243 1.396 . S
C243 H228 0.940 . S
C243 C238 1.391 . S
C243 C242 1.396 . S
C244 P224 1.803 . S
C244 C245 1.378 . S
C244 C249 1.400 . S
C245 H229 0.939 . S
C245 C244 1.378 . S
C245 C246 1.361 . S
C246 H230 0.942 . S
C246 C245 1.361 . S
C246 C247 1.369 . S
C247 C246 1.369 . S
C247 C248 1.404 . S
C248 H231 0.940 . S
C248 C247 1.404 . S
C248 C249 1.389 . S
C249 H232 0.939 . S
C249 C244 1.400 . S
C249 C248 1.389 . S
C250 P224 1.819 . S
C250 C251 1.391 . S
C250 C255 1.391 . S
C251 H233 0.941 . S
C251 C250 1.391 . S
C251 C252 1.396 . S
C252 H236 0.939 . S
C252 C251 1.396 . S
C252 C253 1.397 . S
C253 C252 1.397 . S
C253 C254 1.385 . S
C254 H237 0.940 . S
C254 C253 1.385 . S
C254 C255 1.388 . S
C255 H234 0.939 . S
C255 C250 1.391 . S
C255 C254 1.388 . S
Nd256 C258 2.836 . S
Nd256 O276 2.500 . S
Nd256 O277 2.492 . S
Nd256 O278 2.487 1_565 S
Nd256 O279 2.682 1_565 S
Nd256 O280 2.410 . S
Nd256 O285 2.414 1_455 S
Nd256 O287 2.424 1_565 S
Nd257 C267 2.836 . S
Nd257 O279 2.414 1_655 S
Nd257 O281 2.424 1_545 S
Nd257 O282 2.500 . S
Nd257 O283 2.492 . S
Nd257 O284 2.487 1_545 S
Nd257 O285 2.682 1_545 S
Nd257 O286 2.410 . S
C258 Nd256 2.836 . S
C258 C259 1.498 . S
C258 O276 1.258 . S
C258 O277 1.239 . S
C259 C258 1.498 . S
C259 C260 1.366 . S
C259 C264 1.407 . S
C260 C259 1.366 . S
C260 C261 1.392 . S
C260 H288 0.930 . S
C261 C260 1.392 . S
C261 C262 1.398 . S
C261 H289 0.929 . S
C262 C261 1.398 . S
C262 C263 1.352 . S
C263 C262 1.352 . S
C263 C264 1.384 . S
C263 H290 0.930 . S
C264 C259 1.407 . S
C264 C263 1.384 . S
C264 H291 0.929 . S
C265 O278 1.241 . S
C265 O279 1.273 . S
C266 O280 1.251 1_655 S
C266 O281 1.268 . S
C267 Nd257 2.836 . S
C267 C268 1.498 . S
C267 O282 1.258 . S
C267 O283 1.239 . S
C268 C267 1.498 . S
C268 C269 1.366 . S
C268 C273 1.407 . S
C269 C268 1.366 . S
C269 C270 1.392 . S
C269 H292 0.930 . S
C270 C269 1.392 . S
C270 C271 1.398 . S
C270 H293 0.929 . S
C271 C270 1.398 . S
C271 C272 1.352 . S
C272 C271 1.352 . S
C272 C273 1.384 . S
C272 H294 0.930 . S
C273 C268 1.407 . S
C273 C272 1.384 . S
C273 H295 0.929 . S
C274 O284 1.241 . S
C274 O285 1.273 . S
C275 O286 1.251 1_455 S
C275 O287 1.268 . S
O276 Nd256 2.500 . S
O276 C258 1.258 . S
O277 Nd256 2.492 . S
O277 C258 1.239 . S
O278 Nd256 2.487 1_545 S
O278 C265 1.241 . S
O279 Nd256 2.682 1_545 S
O279 Nd257 2.414 1_455 S
O279 C265 1.273 . S
O280 Nd256 2.410 . S
O280 C266 1.251 1_455 S
O281 Nd257 2.424 1_565 S
O281 C266 1.268 . S
O282 Nd257 2.500 . S
O282 C267 1.258 . S
O283 Nd257 2.492 . S
O283 C267 1.239 . S
O284 Nd257 2.487 1_565 S
O284 C274 1.241 . S
O285 Nd256 2.414 1_655 S
O285 Nd257 2.682 1_565 S
O285 C274 1.273 . S
O286 Nd257 2.410 . S
O286 C275 1.251 1_655 S
O287 Nd256 2.424 1_545 S
O287 C275 1.268 . S
H288 C260 0.930 . S
H289 C261 0.929 . S
H290 C263 0.930 . S
H291 C264 0.929 . S
H292 C269 0.930 . S
H293 C270 0.929 . S
H294 C272 0.930 . S
H295 C273 0.929 . S
Nd296 C298 2.836 . S
Nd296 O316 2.500 . S
Nd296 O317 2.492 . S
Nd296 O318 2.487 1_565 S
Nd296 O319 2.682 1_565 S
Nd296 O320 2.410 1_554 S
Nd296 O325 2.414 1_554 S
Nd296 O327 2.424 1_565 S
Nd297 C307 2.836 . S
Nd297 O319 2.414 1_556 S
Nd297 O321 2.424 1_545 S
Nd297 O322 2.500 . S
Nd297 O323 2.492 . S
Nd297 O324 2.487 . S
Nd297 O325 2.682 1_545 S
Nd297 O326 2.410 1_556 S
C298 Nd296 2.836 . S
C298 C299 1.498 . S
C298 O316 1.258 . S
C298 O317 1.239 . S
C299 C298 1.498 . S
C299 C300 1.366 . S
C299 C304 1.407 . S
C300 C299 1.366 . S
C300 C301 1.392 . S
C300 H328 0.930 . S
C301 C300 1.392 . S
C301 C302 1.398 . S
C301 H329 0.929 . S
C302 C301 1.398 . S
C302 C303 1.352 . S
C303 C302 1.352 . S
C303 C304 1.384 . S
C303 H330 0.930 . S
C304 C299 1.407 . S
C304 C303 1.384 . S
C304 H331 0.929 . S
C305 O318 1.241 . S
C305 O319 1.273 . S
C306 O320 1.251 . S
C306 O321 1.268 . S
C307 Nd297 2.836 . S
C307 C308 1.498 . S
C307 O322 1.258 . S
C307 O323 1.239 . S
C308 C307 1.498 . S
C308 C309 1.366 . S
C308 C313 1.407 . S
C309 C308 1.366 . S
C309 C310 1.392 . S
C309 H332 0.930 . S
C310 C309 1.392 . S
C310 C311 1.398 . S
C310 H333 0.929 . S
C311 C310 1.398 . S
C311 C312 1.352 . S
C312 C311 1.352 . S
C312 C313 1.384 . S
C312 H334 0.930 . S
C313 C308 1.407 . S
C313 C312 1.384 . S
C313 H335 0.929 . S
C314 O324 1.241 1_565 S
C314 O325 1.273 . S
C315 O326 1.251 . S
C315 O327 1.268 . S
O316 Nd296 2.500 . S
O316 C298 1.258 . S
O317 Nd296 2.492 . S
O317 C298 1.239 . S
O318 Nd296 2.487 1_545 S
O318 C305 1.241 . S
O319 Nd296 2.682 1_545 S
O319 Nd297 2.414 1_554 S
O319 C305 1.273 . S
O320 Nd296 2.410 1_556 S
O320 C306 1.251 . S
O321 Nd297 2.424 1_565 S
O321 C306 1.268 . S
O322 Nd297 2.500 . S
O322 C307 1.258 . S
O323 Nd297 2.492 . S
O323 C307 1.239 . S
O324 Nd297 2.487 . S
O324 C314 1.241 1_545 S
O325 Nd296 2.414 1_556 S
O325 Nd297 2.682 1_565 S
O325 C314 1.273 . S
O326 Nd297 2.410 1_554 S
O326 C315 1.251 . S
O327 Nd296 2.424 1_545 S
O327 C315 1.268 . S
H328 C300 0.930 . S
H329 C301 0.929 . S
H330 C303 0.930 . S
H331 C304 0.929 . S
H332 C309 0.930 . S
H333 C310 0.929 . S
H334 C312 0.930 . S
H335 C313 0.929 . S
Nd336 C338 2.836 . S
Nd336 O356 2.500 . S
Nd336 O357 2.492 . S
Nd336 O358 2.487 . S
Nd336 O359 2.682 . S
Nd336 O360 2.410 . S
Nd336 O365 2.414 . S
Nd336 O367 2.424 . S
Nd337 C347 2.836 . S
Nd337 O359 2.414 . S
Nd337 O361 2.424 . S
Nd337 O362 2.500 . S
Nd337 O363 2.492 . S
Nd337 O364 2.487 . S
Nd337 O365 2.682 . S
Nd337 O366 2.410 . S
C338 Nd336 2.836 . S
C338 C339 1.498 . S
C338 O356 1.258 . S
C338 O357 1.239 . S
C339 C338 1.498 . S
C339 C340 1.366 . S
C339 C344 1.407 . S
C340 C339 1.366 . S
C340 C341 1.392 . S
C340 H368 0.930 . S
C341 C340 1.392 . S
C341 C342 1.398 . S
C341 H369 0.929 . S
C342 C341 1.398 . S
C342 C343 1.352 . S
C343 C342 1.352 . S
C343 C344 1.384 . S
C343 H370 0.930 . S
C344 C339 1.407 . S
C344 C343 1.384 . S
C344 H371 0.929 . S
C345 O358 1.241 . S
C345 O359 1.273 . S
C346 O360 1.251 . S
C346 O361 1.268 . S
C347 Nd337 2.836 . S
C347 C348 1.498 . S
C347 O362 1.258 . S
C347 O363 1.239 . S
C348 C347 1.498 . S
C348 C349 1.366 . S
C348 C353 1.407 . S
C349 C348 1.366 . S
C349 C350 1.392 . S
C349 H372 0.930 . S
C350 C349 1.392 . S
C350 C351 1.398 . S
C350 H373 0.929 . S
C351 C350 1.398 . S
C351 C352 1.352 . S
C352 C351 1.352 . S
C352 C353 1.384 . S
C352 H374 0.930 . S
C353 C348 1.407 . S
C353 C352 1.384 . S
C353 H375 0.929 . S
C354 O364 1.241 . S
C354 O365 1.273 . S
C355 O366 1.251 . S
C355 O367 1.268 . S
O356 Nd336 2.500 . S
O356 C338 1.258 . S
O357 Nd336 2.492 . S
O357 C338 1.239 . S
O358 Nd336 2.487 . S
O358 C345 1.241 . S
O359 Nd336 2.682 . S
O359 Nd337 2.414 . S
O359 C345 1.273 . S
O360 Nd336 2.410 . S
O360 C346 1.251 . S
O361 Nd337 2.424 . S
O361 C346 1.268 . S
O362 Nd337 2.500 . S
O362 C347 1.258 . S
O363 Nd337 2.492 . S
O363 C347 1.239 . S
O364 Nd337 2.487 . S
O364 C354 1.241 . S
O365 Nd336 2.414 . S
O365 Nd337 2.682 . S
O365 C354 1.273 . S
O366 Nd337 2.410 . S
O366 C355 1.251 . S
O367 Nd336 2.424 . S
O367 C355 1.268 . S
H368 C340 0.930 . S
H369 C341 0.929 . S
H370 C343 0.930 . S
H371 C344 0.929 . S
H372 C349 0.930 . S
H373 C350 0.929 . S
H374 C352 0.930 . S
H375 C353 0.929 . S
Nd376 C378 2.836 . S
Nd376 O396 2.500 . S
Nd376 O397 2.492 . S
Nd376 O398 2.487 1_655 S
Nd376 O399 2.682 1_655 S
Nd376 O400 2.410 . S
Nd376 O405 2.414 1_554 S
Nd376 O407 2.424 1_655 S
Nd377 C387 2.836 . S
Nd377 O399 2.414 1_556 S
Nd377 O401 2.424 1_455 S
Nd377 O402 2.500 . S
Nd377 O403 2.492 . S
Nd377 O404 2.487 1_455 S
Nd377 O405 2.682 1_455 S
Nd377 O406 2.410 . S
C378 Nd376 2.836 . S
C378 C379 1.498 . S
C378 O396 1.258 . S
C378 O397 1.239 . S
C379 C378 1.498 . S
C379 C380 1.366 . S
C379 C384 1.407 . S
C380 C379 1.366 . S
C380 C381 1.392 . S
C380 H408 0.930 . S
C381 C380 1.392 . S
C381 C382 1.398 . S
C381 H409 0.929 . S
C382 C381 1.398 . S
C382 C383 1.352 . S
C383 C382 1.352 . S
C383 C384 1.384 . S
C383 H410 0.930 . S
C384 C379 1.407 . S
C384 C383 1.384 . S
C384 H411 0.929 . S
C385 O398 1.241 . S
C385 O399 1.273 . S
C386 O400 1.251 1_556 S
C386 O401 1.268 . S
C387 Nd377 2.836 . S
C387 C388 1.498 . S
C387 O402 1.258 . S
C387 O403 1.239 . S
C388 C387 1.498 . S
C388 C389 1.366 . S
C388 C393 1.407 . S
C389 C388 1.366 . S
C389 C390 1.392 . S
C389 H412 0.930 . S
C390 C389 1.392 . S
C390 C391 1.398 . S
C390 H413 0.929 . S
C391 C390 1.398 . S
C391 C392 1.352 . S
C392 C391 1.352 . S
C392 C393 1.384 . S
C392 H414 0.930 . S
C393 C388 1.407 . S
C393 C392 1.384 . S
C393 H415 0.929 . S
C394 O404 1.241 . S
C394 O405 1.273 . S
C395 O406 1.251 1_554 S
C395 O407 1.268 . S
O396 Nd376 2.500 . S
O396 C378 1.258 . S
O397 Nd376 2.492 . S
O397 C378 1.239 . S
O398 Nd376 2.487 1_455 S
O398 C385 1.241 . S
O399 Nd376 2.682 1_455 S
O399 Nd377 2.414 1_554 S
O399 C385 1.273 . S
O400 Nd376 2.410 . S
O400 C386 1.251 1_554 S
O401 Nd377 2.424 1_655 S
O401 C386 1.268 . S
O402 Nd377 2.500 . S
O402 C387 1.258 . S
O403 Nd377 2.492 . S
O403 C387 1.239 . S
O404 Nd377 2.487 1_655 S
O404 C394 1.241 . S
O405 Nd376 2.414 1_556 S
O405 Nd377 2.682 1_655 S
O405 C394 1.273 . S
O406 Nd377 2.410 . S
O406 C395 1.251 1_556 S
O407 Nd376 2.424 1_455 S
O407 C395 1.268 . S
H408 C380 0.930 . S
H409 C381 0.929 . S
H410 C383 0.930 . S
H411 C384 0.929 . S
H412 C389 0.930 . S
H413 C390 0.929 . S
H414 C392 0.930 . S
H415 C393 0.929 . S
H416 C434 0.951 . S
H417 C436 0.951 . S
H418 C438 0.950 . S
H419 C439 0.950 . S
H420 C441 0.950 . S
H421 C444 0.950 . S
H422 C445 0.950 . S
H423 C447 0.950 1_655 S
H424 C448 0.950 . S
H425 C449 0.951 . S
H426 C451 0.951 . S
H427 C453 0.950 . S
H428 C454 0.950 . S
H429 C456 0.950 . S
H430 C459 0.950 . S
H431 C460 0.950 . S
H432 C462 0.950 . S
H433 C463 0.950 . S
C434 H416 0.951 . S
C434 C435 1.366 . S
C434 C436 1.388 . S
C435 C434 1.366 . S
C435 C439 1.385 . S
C436 H417 0.951 . S
C436 C434 1.388 . S
C436 C437 1.366 . S
C437 C436 1.366 . S
C437 C438 1.414 . S
C437 C440 1.499 . S
C438 H418 0.950 . S
C438 C437 1.414 . S
C438 C439 1.374 . S
C439 H419 0.950 . S
C439 C435 1.385 . S
C439 C438 1.374 . S
C440 C437 1.499 . S
C440 C441 1.373 . S
C440 C442 1.389 . S
C441 H420 0.950 . S
C441 C440 1.373 . S
C441 C457 1.377 . S
C442 C440 1.389 . S
C442 C443 1.524 . S
C442 C456 1.377 . S
C443 C442 1.524 . S
C443 C444 1.397 . S
C443 C448 1.363 . S
C444 H421 0.950 . S
C444 C443 1.397 . S
C444 C445 1.334 . S
C445 H422 0.950 . S
C445 C444 1.334 . S
C445 C446 1.287 . S
C446 C445 1.287 . S
C446 C447 1.524 . S
C446 H465 0.913 1_455 S
C447 H423 0.950 1_455 S
C447 C446 1.524 . S
C447 C448 1.415 . S
C448 H424 0.950 . S
C448 C443 1.363 . S
C448 C447 1.415 . S
C449 H425 0.951 . S
C449 C450 1.366 . S
C449 C451 1.388 . S
C450 C449 1.366 . S
C450 C454 1.385 . S
C451 H426 0.951 . S
C451 C449 1.388 . S
C451 C452 1.366 . S
C452 C451 1.366 . S
C452 C453 1.414 . S
C452 C455 1.499 . S
C453 H427 0.950 . S
C453 C452 1.414 . S
C453 C454 1.374 . S
C454 H428 0.950 . S
C454 C450 1.385 . S
C454 C453 1.374 . S
C455 C452 1.499 . S
C455 C456 1.373 . S
C455 C457 1.389 . S
C456 H429 0.950 . S
C456 C442 1.377 . S
C456 C455 1.373 . S
C457 C441 1.377 . S
C457 C455 1.389 . S
C457 C458 1.524 . S
C458 C457 1.524 . S
C458 C459 1.397 . S
C458 C463 1.363 . S
C459 H430 0.950 . S
C459 C458 1.397 . S
C459 C460 1.334 . S
C460 H431 0.950 . S
C460 C459 1.334 . S
C460 C461 1.287 . S
C461 C460 1.287 . S
C461 C462 1.524 . S
C461 H464 0.999 . S
C462 H432 0.950 . S
C462 C461 1.524 . S
C462 C463 1.415 . S
C463 H433 0.950 . S
C463 C458 1.363 . S
C463 C462 1.415 . S
H464 C461 0.999 . S
H465 C446 0.913 1_655 S
H466 C484 0.951 . S
H467 C486 0.951 . S
H468 C488 0.950 . S
H469 C489 0.950 . S
H470 C491 0.950 . S
H471 C494 0.950 . S
H472 C495 0.950 . S
H473 C497 0.950 . S
H474 C498 0.950 . S
H475 C499 0.951 . S
H476 C501 0.951 . S
H477 C503 0.950 . S
H478 C504 0.950 . S
H479 C506 0.950 . S
H480 C509 0.950 . S
H481 C510 0.950 . S
H482 C512 0.950 . S
H483 C513 0.950 . S
C484 H466 0.951 . S
C484 C485 1.366 . S
C484 C486 1.388 . S
C485 C484 1.366 . S
C485 C489 1.385 . S
C486 H467 0.951 . S
C486 C484 1.388 . S
C486 C487 1.366 . S
C487 C486 1.366 . S
C487 C488 1.414 . S
C487 C490 1.499 . S
C488 H468 0.950 . S
C488 C487 1.414 . S
C488 C489 1.374 . S
C489 H469 0.950 . S
C489 C485 1.385 . S
C489 C488 1.374 . S
C490 C487 1.499 . S
C490 C491 1.373 . S
C490 C492 1.389 . S
C491 H470 0.950 . S
C491 C490 1.373 . S
C491 C507 1.377 . S
C492 C490 1.389 . S
C492 C493 1.524 . S
C492 C506 1.377 . S
C493 C492 1.524 . S
C493 C494 1.397 . S
C493 C498 1.363 . S
C494 H471 0.950 . S
C494 C493 1.397 . S
C494 C495 1.334 . S
C495 H472 0.950 . S
C495 C494 1.334 . S
C495 C496 1.287 . S
C496 C495 1.287 . S
C496 C497 1.524 . S
C496 H515 0.913 . S
C497 H473 0.950 . S
C497 C496 1.524 . S
C497 C498 1.415 . S
C498 H474 0.950 . S
C498 C493 1.363 . S
C498 C497 1.415 . S
C499 H475 0.951 . S
C499 C500 1.366 . S
C499 C501 1.388 . S
C500 C499 1.366 . S
C500 C504 1.385 . S
C501 H476 0.951 . S
C501 C499 1.388 . S
C501 C502 1.366 . S
C502 C501 1.366 . S
C502 C503 1.414 . S
C502 C505 1.499 . S
C503 H477 0.950 . S
C503 C502 1.414 . S
C503 C504 1.374 . S
C504 H478 0.950 . S
C504 C500 1.385 . S
C504 C503 1.374 . S
C505 C502 1.499 . S
C505 C506 1.373 . S
C505 C507 1.389 . S
C506 H479 0.950 . S
C506 C492 1.377 . S
C506 C505 1.373 . S
C507 C491 1.377 . S
C507 C505 1.389 . S
C507 C508 1.524 . S
C508 C507 1.524 . S
C508 C509 1.397 . S
C508 C513 1.363 . S
C509 H480 0.950 . S
C509 C508 1.397 . S
C509 C510 1.334 . S
C510 H481 0.950 . S
C510 C509 1.334 . S
C510 C511 1.287 . S
C511 C510 1.287 . S
C511 C512 1.524 . S
C511 H514 0.999 . S
C512 H482 0.950 . S
C512 C511 1.524 . S
C512 C513 1.415 . S
C513 H483 0.950 . S
C513 C508 1.363 . S
C513 C512 1.415 . S
H514 C511 0.999 . S
H515 C496 0.913 . S
H516 C534 0.951 . S
H517 C536 0.951 . S
H518 C538 0.950 . S
H519 C539 0.950 . S
H520 C541 0.950 . S
H521 C544 0.950 . S
H522 C545 0.950 . S
H523 C547 0.950 . S
H524 C548 0.950 . S
H525 C549 0.951 . S
H526 C551 0.951 . S
H527 C553 0.950 . S
H528 C554 0.950 . S
H529 C556 0.950 . S
H530 C559 0.950 . S
H531 C560 0.950 . S
H532 C562 0.950 . S
H533 C563 0.950 . S
C534 H516 0.951 . S
C534 C535 1.366 . S
C534 C536 1.388 . S
C535 C534 1.366 . S
C535 C539 1.385 . S
C536 H517 0.951 . S
C536 C534 1.388 . S
C536 C537 1.366 . S
C537 C536 1.366 . S
C537 C538 1.414 . S
C537 C540 1.499 . S
C538 H518 0.950 . S
C538 C537 1.414 . S
C538 C539 1.374 . S
C539 H519 0.950 . S
C539 C535 1.385 . S
C539 C538 1.374 . S
C540 C537 1.499 . S
C540 C541 1.373 . S
C540 C542 1.389 . S
C541 H520 0.950 . S
C541 C540 1.373 . S
C541 C557 1.377 . S
C542 C540 1.389 . S
C542 C543 1.524 . S
C542 C556 1.377 . S
C543 C542 1.524 . S
C543 C544 1.397 . S
C543 C548 1.363 . S
C544 H521 0.950 . S
C544 C543 1.397 . S
C544 C545 1.334 . S
C545 H522 0.950 . S
C545 C544 1.334 . S
C545 C546 1.287 . S
C546 C545 1.287 . S
C546 C547 1.524 . S
C546 H565 0.913 . S
C547 H523 0.950 . S
C547 C546 1.524 . S
C547 C548 1.415 . S
C548 H524 0.950 . S
C548 C543 1.363 . S
C548 C547 1.415 . S
C549 H525 0.951 . S
C549 C550 1.366 . S
C549 C551 1.388 . S
C550 C549 1.366 . S
C550 C554 1.385 . S
C551 H526 0.951 . S
C551 C549 1.388 . S
C551 C552 1.366 . S
C552 C551 1.366 . S
C552 C553 1.414 . S
C552 C555 1.499 . S
C553 H527 0.950 . S
C553 C552 1.414 . S
C553 C554 1.374 . S
C554 H528 0.950 . S
C554 C550 1.385 . S
C554 C553 1.374 . S
C555 C552 1.499 . S
C555 C556 1.373 . S
C555 C557 1.389 . S
C556 H529 0.950 . S
C556 C542 1.377 . S
C556 C555 1.373 . S
C557 C541 1.377 . S
C557 C555 1.389 . S
C557 C558 1.524 . S
C558 C557 1.524 . S
C558 C559 1.397 . S
C558 C563 1.363 . S
C559 H530 0.950 . S
C559 C558 1.397 . S
C559 C560 1.334 . S
C560 H531 0.950 . S
C560 C559 1.334 . S
C560 C561 1.287 . S
C561 C560 1.287 . S
C561 C562 1.524 . S
C561 H564 0.999 . S
C562 H532 0.950 . S
C562 C561 1.524 . S
C562 C563 1.415 . S
C563 H533 0.950 . S
C563 C558 1.363 . S
C563 C562 1.415 . S
H564 C561 0.999 . S
H565 C546 0.913 . S
H566 C584 0.951 . S
H567 C586 0.951 . S
H568 C588 0.950 . S
H569 C589 0.950 . S
H570 C591 0.950 . S
H571 C594 0.950 . S
H572 C595 0.950 . S
H573 C597 0.950 . S
H574 C598 0.950 . S
H575 C599 0.951 . S
H576 C601 0.951 . S
H577 C603 0.950 . S
H578 C604 0.950 . S
H579 C606 0.950 . S
H580 C609 0.950 . S
H581 C610 0.950 . S
H582 C612 0.950 . S
H583 C613 0.950 . S
C584 H566 0.951 . S
C584 C585 1.366 . S
C584 C586 1.388 . S
C585 C584 1.366 . S
C585 C589 1.385 . S
C586 H567 0.951 . S
C586 C584 1.388 . S
C586 C587 1.366 . S
C587 C586 1.366 . S
C587 C588 1.414 . S
C587 C590 1.499 . S
C588 H568 0.950 . S
C588 C587 1.414 . S
C588 C589 1.374 . S
C589 H569 0.950 . S
C589 C585 1.385 . S
C589 C588 1.374 . S
C590 C587 1.499 . S
C590 C591 1.373 . S
C590 C592 1.389 . S
C591 H570 0.950 . S
C591 C590 1.373 . S
C591 C607 1.377 . S
C592 C590 1.389 . S
C592 C593 1.524 . S
C592 C606 1.377 . S
C593 C592 1.524 . S
C593 C594 1.397 . S
C593 C598 1.363 . S
C594 H571 0.950 . S
C594 C593 1.397 . S
C594 C595 1.334 . S
C595 H572 0.950 . S
C595 C594 1.334 . S
C595 C596 1.287 . S
C596 C595 1.287 . S
C596 C597 1.524 . S
C596 H615 0.913 . S
C597 H573 0.950 . S
C597 C596 1.524 . S
C597 C598 1.415 . S
C598 H574 0.950 . S
C598 C593 1.363 . S
C598 C597 1.415 . S
C599 H575 0.951 . S
C599 C600 1.366 . S
C599 C601 1.388 . S
C600 C599 1.366 . S
C600 C604 1.385 . S
C601 H576 0.951 . S
C601 C599 1.388 . S
C601 C602 1.366 . S
C602 C601 1.366 . S
C602 C603 1.414 . S
C602 C605 1.499 . S
C603 H577 0.950 . S
C603 C602 1.414 . S
C603 C604 1.374 . S
C604 H578 0.950 . S
C604 C600 1.385 . S
C604 C603 1.374 . S
C605 C602 1.499 . S
C605 C606 1.373 . S
C605 C607 1.389 . S
C606 H579 0.950 . S
C606 C592 1.377 . S
C606 C605 1.373 . S
C607 C591 1.377 . S
C607 C605 1.389 . S
C607 C608 1.524 . S
C608 C607 1.524 . S
C608 C609 1.397 . S
C608 C613 1.363 . S
C609 H580 0.950 . S
C609 C608 1.397 . S
C609 C610 1.334 . S
C610 H581 0.950 . S
C610 C609 1.334 . S
C610 C611 1.287 . S
C611 C610 1.287 . S
C611 C612 1.524 . S
C611 H614 0.999 . S
C612 H582 0.950 . S
C612 C611 1.524 . S
C612 C613 1.415 . S
C613 H583 0.950 . S
C613 C608 1.363 . S
C613 C612 1.415 . S
H614 C611 0.999 . S
H615 C596 0.913 . S
H616 C634 0.951 . S
H617 C636 0.951 . S
H618 C638 0.950 . S
H619 C639 0.950 . S
H620 C641 0.950 . S
H621 C644 0.950 . S
H622 C645 0.950 . S
H623 C647 0.950 . S
H624 C648 0.950 . S
H625 C649 0.951 . S
H626 C651 0.951 . S
H627 C653 0.950 . S
H628 C654 0.950 . S
H629 C656 0.950 . S
H630 C659 0.950 . S
H631 C660 0.950 . S
H632 C662 0.950 . S
H633 C663 0.950 . S
C634 H616 0.951 . S
C634 C635 1.366 . S
C634 C636 1.388 . S
C635 C634 1.366 . S
C635 C639 1.385 . S
C636 H617 0.951 . S
C636 C634 1.388 . S
C636 C637 1.366 . S
C637 C636 1.366 . S
C637 C638 1.414 . S
C637 C640 1.499 . S
C638 H618 0.950 . S
C638 C637 1.414 . S
C638 C639 1.374 . S
C639 H619 0.950 . S
C639 C635 1.385 . S
C639 C638 1.374 . S
C640 C637 1.499 . S
C640 C641 1.373 . S
C640 C642 1.389 . S
C641 H620 0.950 . S
C641 C640 1.373 . S
C641 C657 1.377 . S
C642 C640 1.389 . S
C642 C643 1.524 . S
C642 C656 1.377 . S
C643 C642 1.524 . S
C643 C644 1.397 . S
C643 C648 1.363 . S
C644 H621 0.950 . S
C644 C643 1.397 . S
C644 C645 1.334 . S
C645 H622 0.950 . S
C645 C644 1.334 . S
C645 C646 1.287 . S
C646 C645 1.287 . S
C646 C647 1.524 . S
C646 H665 0.913 . S
C647 H623 0.950 . S
C647 C646 1.524 . S
C647 C648 1.415 . S
C648 H624 0.950 . S
C648 C643 1.363 . S
C648 C647 1.415 . S
C649 H625 0.951 . S
C649 C650 1.366 . S
C649 C651 1.388 . S
C650 C649 1.366 . S
C650 C654 1.385 . S
C651 H626 0.951 . S
C651 C649 1.388 . S
C651 C652 1.366 . S
C652 C651 1.366 . S
C652 C653 1.414 . S
C652 C655 1.499 . S
C653 H627 0.950 . S
C653 C652 1.414 . S
C653 C654 1.374 . S
C654 H628 0.950 . S
C654 C650 1.385 . S
C654 C653 1.374 . S
C655 C652 1.499 . S
C655 C656 1.373 . S
C655 C657 1.389 . S
C656 H629 0.950 . S
C656 C642 1.377 . S
C656 C655 1.373 . S
C657 C641 1.377 . S
C657 C655 1.389 . S
C657 C658 1.524 . S
C658 C657 1.524 . S
C658 C659 1.397 1_554 S
C658 C663 1.363 . S
C659 H630 0.950 . S
C659 C658 1.397 1_556 S
C659 C660 1.334 . S
C660 H631 0.950 . S
C660 C659 1.334 . S
C660 C661 1.287 . S
C661 C660 1.287 . S
C661 C662 1.524 . S
C661 H664 0.999 . S
C662 H632 0.950 . S
C662 C661 1.524 . S
C662 C663 1.415 1_556 S
C663 H633 0.950 . S
C663 C658 1.363 . S
C663 C662 1.415 1_554 S
H664 C661 0.999 . S
H665 C646 0.913 . S
H666 C684 0.951 . S
H667 C686 0.951 . S
H668 C688 0.950 . S
H669 C689 0.950 . S
H670 C691 0.950 . S
H671 C694 0.950 . S
H672 C695 0.950 . S
H673 C697 0.950 . S
H674 C698 0.950 . S
H675 C699 0.951 . S
H676 C701 0.951 . S
H677 C703 0.950 . S
H678 C704 0.950 . S
H679 C706 0.950 . S
H680 C709 0.950 . S
H681 C710 0.950 . S
H682 C712 0.950 . S
H683 C713 0.950 . S
C684 H666 0.951 . S
C684 C685 1.366 . S
C684 C686 1.388 . S
C685 C684 1.366 . S
C685 C689 1.385 . S
C686 H667 0.951 . S
C686 C684 1.388 . S
C686 C687 1.366 . S
C687 C686 1.366 . S
C687 C688 1.414 . S
C687 C690 1.499 . S
C688 H668 0.950 . S
C688 C687 1.414 . S
C688 C689 1.374 . S
C689 H669 0.950 . S
C689 C685 1.385 . S
C689 C688 1.374 . S
C690 C687 1.499 . S
C690 C691 1.373 . S
C690 C692 1.389 . S
C691 H670 0.950 . S
C691 C690 1.373 . S
C691 C707 1.377 . S
C692 C690 1.389 . S
C692 C693 1.524 . S
C692 C706 1.377 . S
C693 C692 1.524 . S
C693 C694 1.397 . S
C693 C698 1.363 . S
C694 H671 0.950 . S
C694 C693 1.397 . S
C694 C695 1.334 . S
C695 H672 0.950 . S
C695 C694 1.334 . S
C695 C696 1.287 . S
C696 C695 1.287 . S
C696 C697 1.524 . S
C696 H715 0.913 . S
C697 H673 0.950 . S
C697 C696 1.524 . S
C697 C698 1.415 . S
C698 H674 0.950 . S
C698 C693 1.363 . S
C698 C697 1.415 . S
C699 H675 0.951 . S
C699 C700 1.366 . S
C699 C701 1.388 . S
C700 C699 1.366 . S
C700 C704 1.385 . S
C701 H676 0.951 . S
C701 C699 1.388 . S
C701 C702 1.366 . S
C702 C701 1.366 . S
C702 C703 1.414 . S
C702 C705 1.499 . S
C703 H677 0.950 . S
C703 C702 1.414 . S
C703 C704 1.374 . S
C704 H678 0.950 . S
C704 C700 1.385 . S
C704 C703 1.374 . S
C705 C702 1.499 . S
C705 C706 1.373 . S
C705 C707 1.389 . S
C706 H679 0.950 . S
C706 C692 1.377 . S
C706 C705 1.373 . S
C707 C691 1.377 . S
C707 C705 1.389 . S
C707 C708 1.524 . S
C708 C707 1.524 . S
C708 C709 1.397 . S
C708 C713 1.363 . S
C709 H680 0.950 . S
C709 C708 1.397 . S
C709 C710 1.334 . S
C710 H681 0.950 . S
C710 C709 1.334 . S
C710 C711 1.287 . S
C711 C710 1.287 . S
C711 C712 1.524 . S
C711 H714 0.999 . S
C712 H682 0.950 . S
C712 C711 1.524 . S
C712 C713 1.415 . S
C713 H683 0.950 . S
C713 C708 1.363 . S
C713 C712 1.415 . S
H714 C711 0.999 . S
H715 C696 0.913 . S
H716 C734 0.951 . S
H717 C736 0.951 . S
H718 C738 0.950 . S
H719 C739 0.950 . S
H720 C741 0.950 . S
H721 C744 0.950 . S
H722 C745 0.950 . S
H723 C747 0.950 . S
H724 C748 0.950 . S
H725 C749 0.951 1_554 S
H726 C751 0.951 . S
H727 C753 0.950 . S
H728 C754 0.950 . S
H729 C756 0.950 . S
H730 C759 0.950 . S
H731 C760 0.950 . S
H732 C762 0.950 . S
H733 C763 0.950 . S
C734 H716 0.951 . S
C734 C735 1.366 . S
C734 C736 1.388 . S
C735 C734 1.366 . S
C735 C739 1.385 . S
C736 H717 0.951 . S
C736 C734 1.388 . S
C736 C737 1.366 . S
C737 C736 1.366 . S
C737 C738 1.414 . S
C737 C740 1.499 . S
C738 H718 0.950 . S
C738 C737 1.414 . S
C738 C739 1.374 . S
C739 H719 0.950 . S
C739 C735 1.385 . S
C739 C738 1.374 . S
C740 C737 1.499 . S
C740 C741 1.373 . S
C740 C742 1.389 . S
C741 H720 0.950 . S
C741 C740 1.373 . S
C741 C757 1.377 . S
C742 C740 1.389 . S
C742 C743 1.524 . S
C742 C756 1.377 . S
C743 C742 1.524 . S
C743 C744 1.397 . S
C743 C748 1.363 . S
C744 H721 0.950 . S
C744 C743 1.397 . S
C744 C745 1.334 . S
C745 H722 0.950 . S
C745 C744 1.334 . S
C745 C746 1.287 . S
C746 C745 1.287 . S
C746 C747 1.524 . S
C746 H765 0.913 . S
C747 H723 0.950 . S
C747 C746 1.524 . S
C747 C748 1.415 . S
C748 H724 0.950 . S
C748 C743 1.363 . S
C748 C747 1.415 . S
C749 H725 0.951 1_556 S
C749 C750 1.366 . S
C749 C751 1.388 . S
C750 C749 1.366 . S
C750 C754 1.385 . S
C751 H726 0.951 . S
C751 C749 1.388 . S
C751 C752 1.366 . S
C752 C751 1.366 . S
C752 C753 1.414 . S
C752 C755 1.499 . S
C753 H727 0.950 . S
C753 C752 1.414 . S
C753 C754 1.374 . S
C754 H728 0.950 . S
C754 C750 1.385 . S
C754 C753 1.374 . S
C755 C752 1.499 . S
C755 C756 1.373 . S
C755 C757 1.389 . S
C756 H729 0.950 . S
C756 C742 1.377 . S
C756 C755 1.373 . S
C757 C741 1.377 . S
C757 C755 1.389 . S
C757 C758 1.524 . S
C758 C757 1.524 . S
C758 C759 1.397 . S
C758 C763 1.385 . S
C759 H730 0.950 . S
C759 C758 1.397 . S
C759 C760 1.334 . S
C760 H731 0.950 . S
C760 C759 1.334 . S
C760 C761 1.287 1_556 S
C761 C760 1.287 1_554 S
C761 C762 1.524 . S
C761 H764 0.999 . S
C762 H732 0.950 . S
C762 C761 1.524 . S
C762 C763 1.394 1_554 S
C763 H733 0.950 . S
C763 C758 1.385 . S
C763 C762 1.394 1_556 S
H764 C761 0.999 . S
H765 C746 0.913 . S
H766 C784 0.951 . S
H767 C786 0.951 . S
H768 C788 0.950 . S
H769 C789 0.950 . S
H770 C791 0.950 . S
H771 C794 0.950 . S
H772 C795 0.950 . S
H773 C797 0.950 . S
H774 C798 0.950 . S
H775 C799 0.951 . S
H776 C801 0.951 . S
H777 C803 0.950 . S
H778 C804 0.950 . S
H779 C806 0.950 . S
H780 C809 0.950 . S
H781 C810 0.950 . S
H782 C812 0.950 . S
H783 C813 0.950 . S
C784 H766 0.951 . S
C784 C785 1.366 . S
C784 C786 1.388 . S
C785 C784 1.366 . S
C785 C789 1.385 . S
C786 H767 0.951 . S
C786 C784 1.388 . S
C786 C787 1.366 . S
C787 C786 1.366 . S
C787 C788 1.414 . S
C787 C790 1.499 . S
C788 H768 0.950 . S
C788 C787 1.414 . S
C788 C789 1.374 . S
C789 H769 0.950 . S
C789 C785 1.385 . S
C789 C788 1.374 . S
C790 C787 1.499 . S
C790 C791 1.373 . S
C790 C792 1.389 . S
C791 H770 0.950 . S
C791 C790 1.373 . S
C791 C807 1.377 . S
C792 C790 1.389 . S
C792 C793 1.524 . S
C792 C806 1.377 . S
C793 C792 1.524 . S
C793 C794 1.397 . S
C793 C798 1.363 . S
C794 H771 0.950 . S
C794 C793 1.397 . S
C794 C795 1.334 . S
C795 H772 0.950 . S
C795 C794 1.334 . S
C795 C796 1.287 . S
C796 C795 1.287 . S
C796 C797 1.524 . S
C796 H815 0.913 . S
C797 H773 0.950 . S
C797 C796 1.524 . S
C797 C798 1.415 . S
C798 H774 0.950 . S
C798 C793 1.363 . S
C798 C797 1.415 . S
C799 H775 0.951 . S
C799 C800 1.366 . S
C799 C801 1.388 . S
C800 C799 1.366 . S
C800 C804 1.385 . S
C801 H776 0.951 . S
C801 C799 1.388 . S
C801 C802 1.366 . S
C802 C801 1.366 . S
C802 C803 1.414 . S
C802 C805 1.499 . S
C803 H777 0.950 . S
C803 C802 1.414 . S
C803 C804 1.374 . S
C804 H778 0.950 . S
C804 C800 1.385 . S
C804 C803 1.374 . S
C805 C802 1.499 . S
C805 C806 1.373 . S
C805 C807 1.389 . S
C806 H779 0.950 . S
C806 C792 1.377 . S
C806 C805 1.373 . S
C807 C791 1.377 . S
C807 C805 1.389 . S
C807 C808 1.524 . S
C808 C807 1.524 . S
C808 C809 1.397 . S
C808 C813 1.363 . S
C809 H780 0.950 . S
C809 C808 1.397 . S
C809 C810 1.334 . S
C810 H781 0.950 . S
C810 C809 1.334 . S
C810 C811 1.287 . S
C811 C810 1.287 . S
C811 C812 1.524 . S
C811 H814 0.999 . S
C812 H782 0.950 . S
C812 C811 1.524 . S
C812 C813 1.415 . S
C813 H783 0.950 . S
C813 C808 1.363 . S
C813 C812 1.415 . S
H814 C811 0.999 . S
H815 C796 0.913 . S
H816 C834 0.951 . S
H817 C836 0.951 . S
H818 C838 0.950 . S
H819 C839 0.950 . S
H820 C841 0.950 . S
H821 C844 0.950 . S
H822 C845 0.950 . S
H823 C847 0.950 . S
H824 C848 0.950 . S
H825 C849 0.951 . S
H826 C851 0.951 . S
H827 C853 0.950 . S
H828 C854 0.950 . S
H829 C856 0.950 . S
H830 C859 0.950 . S
H831 C860 0.950 . S
H832 C862 0.950 . S
H833 C863 0.950 . S
C834 H816 0.951 . S
C834 C835 1.366 . S
C834 C836 1.388 . S
C835 C834 1.366 . S
C835 C839 1.385 . S
C836 H817 0.951 . S
C836 C834 1.388 . S
C836 C837 1.366 . S
C837 C836 1.366 . S
C837 C838 1.414 . S
C837 C840 1.499 . S
C838 H818 0.950 . S
C838 C837 1.414 . S
C838 C839 1.374 . S
C839 H819 0.950 . S
C839 C835 1.385 . S
C839 C838 1.374 . S
C840 C837 1.499 . S
C840 C841 1.373 . S
C840 C842 1.389 . S
C841 H820 0.950 . S
C841 C840 1.373 . S
C841 C857 1.377 . S
C842 C840 1.389 . S
C842 C843 1.524 . S
C842 C856 1.377 . S
C843 C842 1.524 . S
C843 C844 1.397 . S
C843 C848 1.363 . S
C844 H821 0.950 . S
C844 C843 1.397 . S
C844 C845 1.334 . S
C845 H822 0.950 . S
C845 C844 1.334 . S
C845 C846 1.287 . S
C846 C845 1.287 . S
C846 C847 1.524 . S
C846 H865 0.913 . S
C847 H823 0.950 . S
C847 C846 1.524 . S
C847 C848 1.415 . S
C848 H824 0.950 . S
C848 C843 1.363 . S
C848 C847 1.415 . S
C849 H825 0.951 . S
C849 C850 1.366 . S
C849 C851 1.388 . S
C850 C849 1.366 . S
C850 C854 1.385 . S
C851 H826 0.951 . S
C851 C849 1.388 . S
C851 C852 1.366 . S
C852 C851 1.366 . S
C852 C853 1.414 . S
C852 C855 1.499 . S
C853 H827 0.950 . S
C853 C852 1.414 . S
C853 C854 1.374 . S
C854 H828 0.950 . S
C854 C850 1.385 . S
C854 C853 1.374 . S
C855 C852 1.499 . S
C855 C856 1.373 . S
C855 C857 1.389 . S
C856 H829 0.950 . S
C856 C842 1.377 . S
C856 C855 1.373 . S
C857 C841 1.377 . S
C857 C855 1.389 . S
C857 C858 1.524 1_554 S
C858 C857 1.524 1_556 S
C858 C859 1.397 . S
C858 C863 1.363 . S
C859 H830 0.950 . S
C859 C858 1.397 . S
C859 C860 1.334 . S
C860 H831 0.950 . S
C860 C859 1.334 . S
C860 C861 1.287 . S
C861 C860 1.287 . S
C861 C862 1.524 . S
C861 H864 0.999 . S
C862 H832 0.950 . S
C862 C861 1.524 . S
C862 C863 1.415 . S
C863 H833 0.950 . S
C863 C858 1.363 . S
C863 C862 1.415 . S
H864 C861 0.999 . S
H865 C846 0.913 . S
H866 C884 0.951 . S
H867 C886 0.951 . S
H868 C888 0.950 . S
H869 C889 0.950 . S
H870 C891 0.950 . S
H871 C894 0.950 . S
H872 C895 0.950 . S
H873 C897 0.950 . S
H874 C898 0.950 . S
H875 C899 0.951 . S
H876 C901 0.951 . S
H877 C903 0.950 . S
H878 C904 0.950 . S
H879 C906 0.950 . S
H880 C909 0.950 . S
H881 C910 0.950 . S
H882 C912 0.950 . S
H883 C913 0.950 . S
C884 H866 0.951 . S
C884 C885 1.366 . S
C884 C886 1.388 . S
C885 C884 1.366 . S
C885 C889 1.385 . S
C886 H867 0.951 . S
C886 C884 1.388 . S
C886 C887 1.366 . S
C887 C886 1.366 . S
C887 C888 1.414 . S
C887 C890 1.499 . S
C888 H868 0.950 . S
C888 C887 1.414 . S
C888 C889 1.374 . S
C889 H869 0.950 . S
C889 C885 1.385 . S
C889 C888 1.374 . S
C890 C887 1.499 . S
C890 C891 1.373 . S
C890 C892 1.389 . S
C891 H870 0.950 . S
C891 C890 1.373 . S
C891 C907 1.377 . S
C892 C890 1.389 . S
C892 C893 1.524 . S
C892 C906 1.377 . S
C893 C892 1.524 . S
C893 C894 1.397 . S
C893 C898 1.363 . S
C894 H871 0.950 . S
C894 C893 1.397 . S
C894 C895 1.334 . S
C895 H872 0.950 . S
C895 C894 1.334 . S
C895 C896 1.287 . S
C896 C895 1.287 . S
C896 C897 1.524 . S
C896 H915 0.913 . S
C897 H873 0.950 . S
C897 C896 1.524 . S
C897 C898 1.415 . S
C898 H874 0.950 . S
C898 C893 1.363 . S
C898 C897 1.415 . S
C899 H875 0.951 . S
C899 C900 1.366 . S
C899 C901 1.388 . S
C900 C899 1.366 . S
C900 C904 1.385 . S
C901 H876 0.951 . S
C901 C899 1.388 . S
C901 C902 1.366 . S
C902 C901 1.366 . S
C902 C903 1.414 . S
C902 C905 1.499 . S
C903 H877 0.950 . S
C903 C902 1.414 . S
C903 C904 1.374 . S
C904 H878 0.950 . S
C904 C900 1.385 . S
C904 C903 1.374 . S
C905 C902 1.499 . S
C905 C906 1.373 . S
C905 C907 1.389 . S
C906 H879 0.950 . S
C906 C892 1.377 . S
C906 C905 1.373 . S
C907 C891 1.377 . S
C907 C905 1.389 . S
C907 C908 1.524 . S
C908 C907 1.524 . S
C908 C909 1.397 . S
C908 C913 1.363 . S
C909 H880 0.950 . S
C909 C908 1.397 . S
C909 C910 1.334 . S
C910 H881 0.950 . S
C910 C909 1.334 . S
C910 C911 1.287 . S
C911 C910 1.287 . S
C911 C912 1.524 . S
C911 H914 0.999 . S
C912 H882 0.950 . S
C912 C911 1.524 . S
C912 C913 1.415 . S
C913 H883 0.950 . S
C913 C908 1.363 . S
C913 C912 1.415 . S
H914 C911 0.999 . S
H915 C896 0.913 . S
H916 C934 0.951 . S
H917 C936 0.951 . S
H918 C938 0.950 . S
H919 C939 0.950 . S
H920 C941 0.950 . S
H921 C944 0.950 . S
H922 C945 0.950 . S
H923 C947 0.950 . S
H924 C948 0.950 . S
H925 C949 0.951 1_455 S
H926 C951 0.951 . S
H927 C953 0.950 . S
H928 C954 0.950 . S
H929 C956 0.950 . S
H930 C959 0.950 . S
H931 C960 0.950 . S
H932 C962 0.950 . S
H933 C963 0.950 . S
C934 H916 0.951 . S
C934 C935 1.366 . S
C934 C936 1.388 . S
C935 C934 1.366 . S
C935 C939 1.385 . S
C936 H917 0.951 . S
C936 C934 1.388 . S
C936 C937 1.366 . S
C937 C936 1.366 . S
C937 C938 1.414 . S
C937 C940 1.499 . S
C938 H918 0.950 . S
C938 C937 1.414 . S
C938 C939 1.374 . S
C939 H919 0.950 . S
C939 C935 1.385 . S
C939 C938 1.374 . S
C940 C937 1.499 . S
C940 C941 1.373 . S
C940 C942 1.389 . S
C941 H920 0.950 . S
C941 C940 1.373 . S
C941 C957 1.377 . S
C942 C940 1.389 . S
C942 C943 1.524 . S
C942 C956 1.377 . S
C943 C942 1.524 . S
C943 C944 1.397 . S
C943 C948 1.363 . S
C944 H921 0.950 . S
C944 C943 1.397 . S
C944 C945 1.334 . S
C945 H922 0.950 . S
C945 C944 1.334 . S
C945 C946 1.287 . S
C946 C945 1.287 . S
C946 C947 1.524 . S
C946 H965 0.913 . S
C947 H923 0.950 . S
C947 C946 1.524 . S
C947 C948 1.415 . S
C948 H924 0.950 . S
C948 C943 1.363 . S
C948 C947 1.415 . S
C949 H925 0.951 1_655 S
C949 C950 1.366 . S
C949 C951 1.388 . S
C950 C949 1.366 . S
C950 C954 1.385 . S
C951 H926 0.951 . S
C951 C949 1.388 . S
C951 C952 1.366 . S
C952 C951 1.366 . S
C952 C953 1.414 . S
C952 C955 1.499 . S
C953 H927 0.950 . S
C953 C952 1.414 . S
C953 C954 1.374 . S
C954 H928 0.950 . S
C954 C950 1.385 . S
C954 C953 1.374 . S
C955 C952 1.499 . S
C955 C956 1.373 . S
C955 C957 1.389 . S
C956 H929 0.950 . S
C956 C942 1.377 . S
C956 C955 1.373 . S
C957 C941 1.377 . S
C957 C955 1.389 . S
C957 C958 1.524 . S
C958 C957 1.524 . S
C958 C959 1.397 . S
C958 C963 1.363 . S
C959 H930 0.950 . S
C959 C958 1.397 . S
C959 C960 1.334 . S
C960 H931 0.950 . S
C960 C959 1.334 . S
C960 C961 1.287 1_655 S
C961 C960 1.287 1_455 S
C961 C962 1.524 . S
C961 H964 0.999 . S
C962 H932 0.950 . S
C962 C961 1.524 . S
C962 C963 1.415 1_455 S
C963 H933 0.950 . S
C963 C958 1.363 . S
C963 C962 1.415 1_655 S
H964 C961 0.999 . S
H965 C946 0.913 . S
H966 C984 0.951 . S
H967 C986 0.951 . S
H968 C988 0.950 . S
H969 C989 0.950 . S
H970 C991 0.950 . S
H971 C994 0.950 . S
H972 C995 0.950 . S
H973 C997 0.950 . S
H974 C998 0.950 . S
H975 C999 0.951 . S
H976 C1001 0.951 . S
H977 C1003 0.950 . S
H978 C1004 0.950 . S
H979 C1006 0.950 . S
H980 C1009 0.950 . S
H981 C1010 0.950 . S
H982 C1012 0.950 . S
H983 C1013 0.950 . S
C984 H966 0.951 . S
C984 C985 1.366 . S
C984 C986 1.388 . S
C985 C984 1.366 . S
C985 C989 1.385 . S
C986 H967 0.951 . S
C986 C984 1.388 . S
C986 C987 1.366 . S
C987 C986 1.366 . S
C987 C988 1.414 . S
C987 C990 1.499 . S
C988 H968 0.950 . S
C988 C987 1.414 . S
C988 C989 1.374 . S
C989 H969 0.950 . S
C989 C985 1.385 . S
C989 C988 1.374 . S
C990 C987 1.499 . S
C990 C991 1.373 . S
C990 C992 1.389 . S
C991 H970 0.950 . S
C991 C990 1.373 . S
C991 C1007 1.377 . S
C992 C990 1.389 . S
C992 C993 1.524 . S
C992 C1006 1.377 . S
C993 C992 1.524 . S
C993 C994 1.397 . S
C993 C998 1.363 . S
C994 H971 0.950 . S
C994 C993 1.397 . S
C994 C995 1.334 . S
C995 H972 0.950 . S
C995 C994 1.334 . S
C995 C996 1.287 . S
C996 C995 1.287 . S
C996 C997 1.524 . S
C996 H1015 0.913 . S
C997 H973 0.950 . S
C997 C996 1.524 . S
C997 C998 1.415 . S
C998 H974 0.950 . S
C998 C993 1.363 . S
C998 C997 1.415 . S
C999 H975 0.951 . S
C999 C1000 1.366 . S
C999 C1001 1.388 . S
C1000 C999 1.366 . S
C1000 C1004 1.385 . S
C1001 H976 0.951 . S
C1001 C999 1.388 . S
C1001 C1002 1.366 . S
C1002 C1001 1.366 . S
C1002 C1003 1.414 . S
C1002 C1005 1.499 . S
C1003 H977 0.950 . S
C1003 C1002 1.414 . S
C1003 C1004 1.374 . S
C1004 H978 0.950 . S
C1004 C1000 1.385 . S
C1004 C1003 1.374 . S
C1005 C1002 1.499 . S
C1005 C1006 1.373 . S
C1005 C1007 1.389 . S
C1006 H979 0.950 . S
C1006 C992 1.377 . S
C1006 C1005 1.373 . S
C1007 C991 1.377 . S
C1007 C1005 1.389 . S
C1007 C1008 1.524 . S
C1008 C1007 1.524 . S
C1008 C1009 1.397 . S
C1008 C1013 1.363 . S
C1009 H980 0.950 . S
C1009 C1008 1.397 . S
C1009 C1010 1.334 . S
C1010 H981 0.950 . S
C1010 C1009 1.334 . S
C1010 C1011 1.287 . S
C1011 C1010 1.287 . S
C1011 C1012 1.524 . S
C1011 H1014 0.999 . S
C1012 H982 0.950 . S
C1012 C1011 1.524 . S
C1012 C1013 1.415 . S
C1013 H983 0.950 . S
C1013 C1008 1.363 . S
C1013 C1012 1.415 . S
H1014 C1011 0.999 . S
H1015 C996 0.913 . S
H1016 C1034 0.951 . S
H1017 C1036 0.951 . S
H1018 C1038 0.950 . S
H1019 C1039 0.950 . S
H1020 C1041 0.950 . S
H1021 C1044 0.950 . S
H1022 C1045 0.950 . S
H1023 C1047 0.950 1_545 S
H1024 C1048 0.950 . S
H1025 C1049 0.951 . S
H1026 C1051 0.951 . S
H1027 C1053 0.950 . S
H1028 C1054 0.950 . S
H1029 C1056 0.950 . S
H1030 C1059 0.950 . S
H1031 C1060 0.950 . S
H1032 C1062 0.950 . S
H1033 C1063 0.950 . S
C1034 H1016 0.951 . S
C1034 C1035 1.366 . S
C1034 C1036 1.388 . S
C1035 C1034 1.366 . S
C1035 C1039 1.385 . S
C1036 H1017 0.951 . S
C1036 C1034 1.388 . S
C1036 C1037 1.366 . S
C1037 C1036 1.366 . S
C1037 C1038 1.414 . S
C1037 C1040 1.499 . S
C1038 H1018 0.950 . S
C1038 C1037 1.414 . S
C1038 C1039 1.374 . S
C1039 H1019 0.950 . S
C1039 C1035 1.385 . S
C1039 C1038 1.374 . S
C1040 C1037 1.499 . S
C1040 C1041 1.373 . S
C1040 C1042 1.389 . S
C1041 H1020 0.950 . S
C1041 C1040 1.373 . S
C1041 C1057 1.377 . S
C1042 C1040 1.389 . S
C1042 C1043 1.524 . S
C1042 C1056 1.377 . S
C1043 C1042 1.524 . S
C1043 C1044 1.397 . S
C1043 C1048 1.363 . S
C1044 H1021 0.950 . S
C1044 C1043 1.397 . S
C1044 C1045 1.334 . S
C1045 H1022 0.950 . S
C1045 C1044 1.334 . S
C1045 C1046 1.287 . S
C1046 C1045 1.287 . S
C1046 C1047 1.524 . S
C1046 H1065 0.913 1_565 S
C1047 H1023 0.950 1_565 S
C1047 C1046 1.524 . S
C1047 C1048 1.415 . S
C1048 H1024 0.950 . S
C1048 C1043 1.363 . S
C1048 C1047 1.415 . S
C1049 H1025 0.951 . S
C1049 C1050 1.366 . S
C1049 C1051 1.388 . S
C1050 C1049 1.366 . S
C1050 C1054 1.385 . S
C1051 H1026 0.951 . S
C1051 C1049 1.388 . S
C1051 C1052 1.366 . S
C1052 C1051 1.366 . S
C1052 C1053 1.414 . S
C1052 C1055 1.499 . S
C1053 H1027 0.950 . S
C1053 C1052 1.414 . S
C1053 C1054 1.374 . S
C1054 H1028 0.950 . S
C1054 C1050 1.385 . S
C1054 C1053 1.374 . S
C1055 C1052 1.499 . S
C1055 C1056 1.373 . S
C1055 C1057 1.389 . S
C1056 H1029 0.950 . S
C1056 C1042 1.377 . S
C1056 C1055 1.373 . S
C1057 C1041 1.377 . S
C1057 C1055 1.389 . S
C1057 C1058 1.524 . S
C1058 C1057 1.524 . S
C1058 C1059 1.397 . S
C1058 C1063 1.363 . S
C1059 H1030 0.950 . S
C1059 C1058 1.397 . S
C1059 C1060 1.334 . S
C1060 H1031 0.950 . S
C1060 C1059 1.334 . S
C1060 C1061 1.287 . S
C1061 C1060 1.287 . S
C1061 C1062 1.524 . S
C1061 H1064 0.999 . S
C1062 H1032 0.950 . S
C1062 C1061 1.524 . S
C1062 C1063 1.415 . S
C1063 H1033 0.950 . S
C1063 C1058 1.363 . S
C1063 C1062 1.415 . S
H1064 C1061 0.999 . S
H1065 C1046 0.913 1_545 S
H1066 C1084 0.951 . S
H1067 C1086 0.951 . S
H1068 C1088 0.950 . S
H1069 C1089 0.950 . S
H1070 C1091 0.950 . S
H1071 C1094 0.950 . S
H1072 C1095 0.950 . S
H1073 C1097 0.950 . S
H1074 C1098 0.950 . S
H1075 C1099 0.951 . S
H1076 C1101 0.951 . S
H1077 C1103 0.950 . S
H1078 C1104 0.950 . S
H1079 C1106 0.950 . S
H1080 C1109 0.950 . S
H1081 C1110 0.950 . S
H1082 C1112 0.950 1_556 S
H1083 C1113 0.950 . S
C1084 H1066 0.951 . S
C1084 C1085 1.366 . S
C1084 C1086 1.388 . S
C1085 C1084 1.366 . S
C1085 C1089 1.385 . S
C1086 H1067 0.951 . S
C1086 C1084 1.388 . S
C1086 C1087 1.366 . S
C1087 C1086 1.366 . S
C1087 C1088 1.414 . S
C1087 C1090 1.499 . S
C1088 H1068 0.950 . S
C1088 C1087 1.414 . S
C1088 C1089 1.374 . S
C1089 H1069 0.950 . S
C1089 C1085 1.385 . S
C1089 C1088 1.374 . S
C1090 C1087 1.499 . S
C1090 C1091 1.373 . S
C1090 C1092 1.389 . S
C1091 H1070 0.950 . S
C1091 C1090 1.373 . S
C1091 C1107 1.377 . S
C1092 C1090 1.389 . S
C1092 C1093 1.524 . S
C1092 C1106 1.377 . S
C1093 C1092 1.524 . S
C1093 C1094 1.397 . S
C1093 C1098 1.363 . S
C1094 H1071 0.950 . S
C1094 C1093 1.397 . S
C1094 C1095 1.334 . S
C1095 H1072 0.950 . S
C1095 C1094 1.334 . S
C1095 C1096 1.287 . S
C1096 C1095 1.287 . S
C1096 C1097 1.524 . S
C1096 H1115 0.913 . S
C1097 H1073 0.950 . S
C1097 C1096 1.524 . S
C1097 C1098 1.415 . S
C1098 H1074 0.950 . S
C1098 C1093 1.363 . S
C1098 C1097 1.415 . S
C1099 H1075 0.951 . S
C1099 C1100 1.366 . S
C1099 C1101 1.388 . S
C1100 C1099 1.366 . S
C1100 C1104 1.385 . S
C1101 H1076 0.951 . S
C1101 C1099 1.388 . S
C1101 C1102 1.366 . S
C1102 C1101 1.366 . S
C1102 C1103 1.414 . S
C1102 C1105 1.499 . S
C1103 H1077 0.950 . S
C1103 C1102 1.414 . S
C1103 C1104 1.374 . S
C1104 H1078 0.950 . S
C1104 C1100 1.385 . S
C1104 C1103 1.374 . S
C1105 C1102 1.499 . S
C1105 C1106 1.373 . S
C1105 C1107 1.389 . S
C1106 H1079 0.950 . S
C1106 C1092 1.377 . S
C1106 C1105 1.373 . S
C1107 C1091 1.377 . S
C1107 C1105 1.389 . S
C1107 C1108 1.524 . S
C1108 C1107 1.524 . S
C1108 C1109 1.397 . S
C1108 C1113 1.363 . S
C1109 H1080 0.950 . S
C1109 C1108 1.397 . S
C1109 C1110 1.334 . S
C1110 H1081 0.950 . S
C1110 C1109 1.334 . S
C1110 C1111 1.287 1_554 S
C1111 C1110 1.287 1_556 S
C1111 C1112 1.524 1_556 S
C1111 H1114 0.999 . S
C1112 H1082 0.950 1_554 S
C1112 C1111 1.524 1_554 S
C1112 C1113 1.415 . S
C1113 H1083 0.950 . S
C1113 C1108 1.363 . S
C1113 C1112 1.415 . S
H1114 C1111 0.999 . S
H1115 C1096 0.913 . S
H1116 C1134 0.951 . S
H1117 C1136 0.951 . S
H1118 C1138 0.950 . S
H1119 C1139 0.950 . S
H1120 C1141 0.950 . S
H1121 C1144 0.950 . S
H1122 C1145 0.950 . S
H1123 C1147 0.950 . S
H1124 C1148 0.950 . S
H1125 C1149 0.951 . S
H1126 C1151 0.951 . S
H1127 C1153 0.950 . S
H1128 C1154 0.950 . S
H1129 C1156 0.950 . S
H1130 C1159 0.950 . S
H1131 C1160 0.950 . S
H1132 C1162 0.950 . S
H1133 C1163 0.950 . S
C1134 H1116 0.951 . S
C1134 C1135 1.366 . S
C1134 C1136 1.388 . S
C1135 C1134 1.366 . S
C1135 C1139 1.385 . S
C1136 H1117 0.951 . S
C1136 C1134 1.388 . S
C1136 C1137 1.366 . S
C1137 C1136 1.366 . S
C1137 C1138 1.414 . S
C1137 C1140 1.499 . S
C1138 H1118 0.950 . S
C1138 C1137 1.414 . S
C1138 C1139 1.374 . S
C1139 H1119 0.950 . S
C1139 C1135 1.385 . S
C1139 C1138 1.374 . S
C1140 C1137 1.499 . S
C1140 C1141 1.373 . S
C1140 C1142 1.389 . S
C1141 H1120 0.950 . S
C1141 C1140 1.373 . S
C1141 C1157 1.377 . S
C1142 C1140 1.389 . S
C1142 C1143 1.524 . S
C1142 C1156 1.377 . S
C1143 C1142 1.524 . S
C1143 C1144 1.397 . S
C1143 C1148 1.363 . S
C1144 H1121 0.950 . S
C1144 C1143 1.397 . S
C1144 C1145 1.334 . S
C1145 H1122 0.950 . S
C1145 C1144 1.334 . S
C1145 C1146 1.287 . S
C1146 C1145 1.287 . S
C1146 C1147 1.524 . S
C1146 H1165 0.913 . S
C1147 H1123 0.950 . S
C1147 C1146 1.524 . S
C1147 C1148 1.415 . S
C1148 H1124 0.950 . S
C1148 C1143 1.363 . S
C1148 C1147 1.415 . S
C1149 H1125 0.951 . S
C1149 C1150 1.366 . S
C1149 C1151 1.388 . S
C1150 C1149 1.366 . S
C1150 C1154 1.385 . S
C1151 H1126 0.951 . S
C1151 C1149 1.388 . S
C1151 C1152 1.366 . S
C1152 C1151 1.366 . S
C1152 C1153 1.414 . S
C1152 C1155 1.499 . S
C1153 H1127 0.950 . S
C1153 C1152 1.414 . S
C1153 C1154 1.374 . S
C1154 H1128 0.950 . S
C1154 C1150 1.385 . S
C1154 C1153 1.374 . S
C1155 C1152 1.499 . S
C1155 C1156 1.373 . S
C1155 C1157 1.389 . S
C1156 H1129 0.950 . S
C1156 C1142 1.377 . S
C1156 C1155 1.373 . S
C1157 C1141 1.377 . S
C1157 C1155 1.389 . S
C1157 C1158 1.524 . S
C1158 C1157 1.524 . S
C1158 C1159 1.397 . S
C1158 C1163 1.363 . S
C1159 H1130 0.950 . S
C1159 C1158 1.397 . S
C1159 C1160 1.334 . S
C1160 H1131 0.950 . S
C1160 C1159 1.334 . S
C1160 C1161 1.287 . S
C1161 C1160 1.287 . S
C1161 C1162 1.524 . S
C1161 H1164 0.999 . S
C1162 H1132 0.950 . S
C1162 C1161 1.524 . S
C1162 C1163 1.415 . S
C1163 H1133 0.950 . S
C1163 C1158 1.363 . S
C1163 C1162 1.415 . S
H1164 C1161 0.999 . S
H1165 C1146 0.913 . S
H1166 C1184 0.951 . S
H1167 C1186 0.951 . S
H1168 C1188 0.950 . S
H1169 C1189 0.950 . S
H1170 C1191 0.950 . S
H1171 C1194 0.950 . S
H1172 C1195 0.950 . S
H1173 C1197 0.950 . S
H1174 C1198 0.950 . S
H1175 C1199 0.951 . S
H1176 C1201 0.951 . S
H1177 C1203 0.950 . S
H1178 C1204 0.950 . S
H1179 C1206 0.950 . S
H1180 C1209 0.950 . S
H1181 C1210 0.950 . S
H1182 C1212 0.950 . S
H1183 C1213 0.950 . S
C1184 H1166 0.951 . S
C1184 C1185 1.366 . S
C1184 C1186 1.388 . S
C1185 C1184 1.366 . S
C1185 C1189 1.385 . S
C1186 H1167 0.951 . S
C1186 C1184 1.388 . S
C1186 C1187 1.366 . S
C1187 C1186 1.366 . S
C1187 C1188 1.414 . S
C1187 C1190 1.499 . S
C1188 H1168 0.950 . S
C1188 C1187 1.414 . S
C1188 C1189 1.374 . S
C1189 H1169 0.950 . S
C1189 C1185 1.385 . S
C1189 C1188 1.374 . S
C1190 C1187 1.499 . S
C1190 C1191 1.373 . S
C1190 C1192 1.389 . S
C1191 H1170 0.950 . S
C1191 C1190 1.373 . S
C1191 C1207 1.377 . S
C1192 C1190 1.389 . S
C1192 C1193 1.524 . S
C1192 C1206 1.377 . S
C1193 C1192 1.524 . S
C1193 C1194 1.397 . S
C1193 C1198 1.363 . S
C1194 H1171 0.950 . S
C1194 C1193 1.397 . S
C1194 C1195 1.334 . S
C1195 H1172 0.950 . S
C1195 C1194 1.334 . S
C1195 C1196 1.287 . S
C1196 C1195 1.287 . S
C1196 C1197 1.524 . S
C1196 H1215 0.913 . S
C1197 H1173 0.950 . S
C1197 C1196 1.524 . S
C1197 C1198 1.415 . S
C1198 H1174 0.950 . S
C1198 C1193 1.363 . S
C1198 C1197 1.415 . S
C1199 H1175 0.951 . S
C1199 C1200 1.366 . S
C1199 C1201 1.388 . S
C1200 C1199 1.366 . S
C1200 C1204 1.385 . S
C1201 H1176 0.951 . S
C1201 C1199 1.388 . S
C1201 C1202 1.366 . S
C1202 C1201 1.366 . S
C1202 C1203 1.414 . S
C1202 C1205 1.499 . S
C1203 H1177 0.950 . S
C1203 C1202 1.414 . S
C1203 C1204 1.374 . S
C1204 H1178 0.950 . S
C1204 C1200 1.385 . S
C1204 C1203 1.374 . S
C1205 C1202 1.499 . S
C1205 C1206 1.373 . S
C1205 C1207 1.389 . S
C1206 H1179 0.950 . S
C1206 C1192 1.377 . S
C1206 C1205 1.373 . S
C1207 C1191 1.377 . S
C1207 C1205 1.389 . S
C1207 C1208 1.524 . S
C1208 C1207 1.524 . S
C1208 C1209 1.397 . S
C1208 C1213 1.363 . S
C1209 H1180 0.950 . S
C1209 C1208 1.397 . S
C1209 C1210 1.334 . S
C1210 H1181 0.950 . S
C1210 C1209 1.334 . S
C1210 C1211 1.287 . S
C1211 C1210 1.287 . S
C1211 C1212 1.524 . S
C1211 H1214 0.999 . S
C1212 H1182 0.950 . S
C1212 C1211 1.524 . S
C1212 C1213 1.415 . S
C1213 H1183 0.950 . S
C1213 C1208 1.363 . S
C1213 C1212 1.415 . S
H1214 C1211 0.999 . S
H1215 C1196 0.913 . S
H1216 C1234 0.951 . S
H1217 C1236 0.951 . S
H1218 C1238 0.950 . S
H1219 C1239 0.950 . S
H1220 C1241 0.950 . S
H1221 C1244 0.950 1_556 S
H1222 C1245 0.950 . S
H1223 C1247 0.950 . S
H1224 C1248 0.950 . S
H1225 C1249 0.951 . S
H1226 C1251 0.951 . S
H1227 C1253 0.950 . S
H1228 C1254 0.950 . S
H1229 C1256 0.950 . S
H1230 C1259 0.950 . S
H1231 C1260 0.950 . S
H1232 C1262 0.950 . S
H1233 C1263 0.950 . S
C1234 H1216 0.951 . S
C1234 C1235 1.366 . S
C1234 C1236 1.388 . S
C1235 C1234 1.366 . S
C1235 C1239 1.385 . S
C1236 H1217 0.951 . S
C1236 C1234 1.388 . S
C1236 C1237 1.366 . S
C1237 C1236 1.366 . S
C1237 C1238 1.414 . S
C1237 C1240 1.499 . S
C1238 H1218 0.950 . S
C1238 C1237 1.414 . S
C1238 C1239 1.374 . S
C1239 H1219 0.950 . S
C1239 C1235 1.385 . S
C1239 C1238 1.374 . S
C1240 C1237 1.499 . S
C1240 C1241 1.373 . S
C1240 C1242 1.389 . S
C1241 H1220 0.950 . S
C1241 C1240 1.373 . S
C1241 C1257 1.377 . S
C1242 C1240 1.389 . S
C1242 C1243 1.524 . S
C1242 C1256 1.377 . S
C1243 C1242 1.524 . S
C1243 C1244 1.397 1_556 S
C1243 C1248 1.363 1_556 S
C1244 H1221 0.950 1_554 S
C1244 C1243 1.397 1_554 S
C1244 C1245 1.334 . S
C1245 H1222 0.950 . S
C1245 C1244 1.334 . S
C1245 C1246 1.287 . S
C1246 C1245 1.287 . S
C1246 C1247 1.524 . S
C1246 H1265 0.913 . S
C1247 H1223 0.950 . S
C1247 C1246 1.524 . S
C1247 C1248 1.415 . S
C1248 H1224 0.950 . S
C1248 C1243 1.363 1_554 S
C1248 C1247 1.415 . S
C1249 H1225 0.951 . S
C1249 C1250 1.366 . S
C1249 C1251 1.388 . S
C1250 C1249 1.366 . S
C1250 C1254 1.385 . S
C1251 H1226 0.951 . S
C1251 C1249 1.388 . S
C1251 C1252 1.366 . S
C1252 C1251 1.366 . S
C1252 C1253 1.414 . S
C1252 C1255 1.499 . S
C1253 H1227 0.950 . S
C1253 C1252 1.414 . S
C1253 C1254 1.374 . S
C1254 H1228 0.950 . S
C1254 C1250 1.385 . S
C1254 C1253 1.374 . S
C1255 C1252 1.499 . S
C1255 C1256 1.373 . S
C1255 C1257 1.389 . S
C1256 H1229 0.950 . S
C1256 C1242 1.377 . S
C1256 C1255 1.373 . S
C1257 C1241 1.377 . S
C1257 C1255 1.389 . S
C1257 C1258 1.524 . S
C1258 C1257 1.524 . S
C1258 C1259 1.397 . S
C1258 C1263 1.363 . S
C1259 H1230 0.950 . S
C1259 C1258 1.397 . S
C1259 C1260 1.334 . S
C1260 H1231 0.950 . S
C1260 C1259 1.334 . S
C1260 C1261 1.287 . S
C1261 C1260 1.287 . S
C1261 C1262 1.524 . S
C1261 H1264 0.999 . S
C1262 H1232 0.950 . S
C1262 C1261 1.524 . S
C1262 C1263 1.415 . S
C1263 H1233 0.950 . S
C1263 C1258 1.363 . S
C1263 C1262 1.415 . S
H1264 C1261 0.999 . S
H1265 C1246 0.913 . S
H1266 C1284 0.951 . S
H1267 C1286 0.951 . S
H1268 C1288 0.950 . S
H1269 C1289 0.950 . S
H1270 C1291 0.950 . S
H1271 C1294 0.950 . S
H1272 C1295 0.950 . S
H1273 C1297 0.950 . S
H1274 C1298 0.950 . S
H1275 C1299 0.951 . S
H1276 C1301 0.951 . S
H1277 C1303 0.950 . S
H1278 C1304 0.950 . S
H1279 C1306 0.950 . S
H1280 C1309 0.950 . S
H1281 C1310 0.950 . S
H1282 C1312 0.950 . S
H1283 C1313 0.950 . S
C1284 H1266 0.951 . S
C1284 C1285 1.366 . S
C1284 C1286 1.388 . S
C1285 C1284 1.366 . S
C1285 C1289 1.385 . S
C1286 H1267 0.951 . S
C1286 C1284 1.388 . S
C1286 C1287 1.366 . S
C1287 C1286 1.366 . S
C1287 C1288 1.414 . S
C1287 C1290 1.499 . S
C1288 H1268 0.950 . S
C1288 C1287 1.414 . S
C1288 C1289 1.374 . S
C1289 H1269 0.950 . S
C1289 C1285 1.385 . S
C1289 C1288 1.374 . S
C1290 C1287 1.499 . S
C1290 C1291 1.373 . S
C1290 C1292 1.389 . S
C1291 H1270 0.950 . S
C1291 C1290 1.373 . S
C1291 C1307 1.377 . S
C1292 C1290 1.389 . S
C1292 C1293 1.524 . S
C1292 C1306 1.377 . S
C1293 C1292 1.524 . S
C1293 C1294 1.397 . S
C1293 C1298 1.363 . S
C1294 H1271 0.950 . S
C1294 C1293 1.397 . S
C1294 C1295 1.334 . S
C1295 H1272 0.950 . S
C1295 C1294 1.334 . S
C1295 C1296 1.287 . S
C1296 C1295 1.287 . S
C1296 C1297 1.524 . S
C1296 H1315 0.913 . S
C1297 H1273 0.950 . S
C1297 C1296 1.524 . S
C1297 C1298 1.415 . S
C1298 H1274 0.950 . S
C1298 C1293 1.363 . S
C1298 C1297 1.415 . S
C1299 H1275 0.951 . S
C1299 C1300 1.366 . S
C1299 C1301 1.388 . S
C1300 C1299 1.366 . S
C1300 C1304 1.385 . S
C1301 H1276 0.951 . S
C1301 C1299 1.388 . S
C1301 C1302 1.366 . S
C1302 C1301 1.366 . S
C1302 C1303 1.414 . S
C1302 C1305 1.499 . S
C1303 H1277 0.950 . S
C1303 C1302 1.414 . S
C1303 C1304 1.374 . S
C1304 H1278 0.950 . S
C1304 C1300 1.385 . S
C1304 C1303 1.374 . S
C1305 C1302 1.499 . S
C1305 C1306 1.373 . S
C1305 C1307 1.389 . S
C1306 H1279 0.950 . S
C1306 C1292 1.377 . S
C1306 C1305 1.373 . S
C1307 C1291 1.377 . S
C1307 C1305 1.389 . S
C1307 C1308 1.524 . S
C1308 C1307 1.524 . S
C1308 C1309 1.397 . S
C1308 C1313 1.363 . S
C1309 H1280 0.950 . S
C1309 C1308 1.397 . S
C1309 C1310 1.334 . S
C1310 H1281 0.950 . S
C1310 C1309 1.334 . S
C1310 C1311 1.287 . S
C1311 C1310 1.287 . S
C1311 C1312 1.524 . S
C1311 H1314 0.999 . S
C1312 H1282 0.950 . S
C1312 C1311 1.524 . S
C1312 C1313 1.415 . S
C1313 H1283 0.950 . S
C1313 C1308 1.363 . S
C1313 C1312 1.415 . S
H1314 C1311 0.999 . S
H1315 C1296 0.913 . S
H1316 C1334 0.951 . S
H1317 C1336 0.951 . S
H1318 C1338 0.950 . S
H1319 C1339 0.950 . S
H1320 C1341 0.950 . S
H1321 C1344 0.950 . S
H1322 C1345 0.950 . S
H1323 C1347 0.950 . S
H1324 C1348 0.950 . S
H1325 C1349 0.951 . S
H1326 C1351 0.951 . S
H1327 C1353 0.950 . S
H1328 C1354 0.950 . S
H1329 C1356 0.950 . S
H1330 C1359 0.978 . S
H1331 C1360 0.950 . S
H1332 C1362 0.950 . S
H1333 C1363 0.950 1_554 S
C1334 H1316 0.951 . S
C1334 C1335 1.366 . S
C1334 C1336 1.388 . S
C1335 C1334 1.366 . S
C1335 C1339 1.385 . S
C1336 H1317 0.951 . S
C1336 C1334 1.388 . S
C1336 C1337 1.366 . S
C1337 C1336 1.366 . S
C1337 C1338 1.414 . S
C1337 C1340 1.499 . S
C1338 H1318 0.950 . S
C1338 C1337 1.414 . S
C1338 C1339 1.374 . S
C1339 H1319 0.950 . S
C1339 C1335 1.385 . S
C1339 C1338 1.374 . S
C1340 C1337 1.499 . S
C1340 C1341 1.373 . S
C1340 C1342 1.389 . S
C1341 H1320 0.950 . S
C1341 C1340 1.373 . S
C1341 C1357 1.377 . S
C1342 C1340 1.389 . S
C1342 C1343 1.524 . S
C1342 C1356 1.377 . S
C1343 C1342 1.524 . S
C1343 C1344 1.397 . S
C1343 C1348 1.363 . S
C1344 H1321 0.950 . S
C1344 C1343 1.397 . S
C1344 C1345 1.334 . S
C1345 H1322 0.950 . S
C1345 C1344 1.334 . S
C1345 C1346 1.287 . S
C1346 C1345 1.287 . S
C1346 C1347 1.524 . S
C1346 H1365 0.913 . S
C1347 H1323 0.950 . S
C1347 C1346 1.524 . S
C1347 C1348 1.415 . S
C1348 H1324 0.950 . S
C1348 C1343 1.363 . S
C1348 C1347 1.415 . S
C1349 H1325 0.951 . S
C1349 C1350 1.366 . S
C1349 C1351 1.388 . S
C1350 C1349 1.366 . S
C1350 C1354 1.385 . S
C1351 H1326 0.951 . S
C1351 C1349 1.388 . S
C1351 C1352 1.366 . S
C1352 C1351 1.366 . S
C1352 C1353 1.414 . S
C1352 C1355 1.499 . S
C1353 H1327 0.950 . S
C1353 C1352 1.414 . S
C1353 C1354 1.374 . S
C1354 H1328 0.950 . S
C1354 C1350 1.385 . S
C1354 C1353 1.374 . S
C1355 C1352 1.499 . S
C1355 C1356 1.373 . S
C1355 C1357 1.389 . S
C1356 H1329 0.950 . S
C1356 C1342 1.377 . S
C1356 C1355 1.373 . S
C1357 C1341 1.377 . S
C1357 C1355 1.389 . S
C1357 C1358 1.524 . S
C1358 C1357 1.524 . S
C1358 C1359 1.414 . S
C1358 C1363 1.363 1_554 S
C1359 H1330 0.978 . S
C1359 C1358 1.414 . S
C1359 C1360 1.289 1_554 S
C1360 H1331 0.950 . S
C1360 C1359 1.289 1_556 S
C1360 C1361 1.287 . S
C1361 C1360 1.287 . S
C1361 C1362 1.524 . S
C1361 H1364 0.999 . S
C1362 H1332 0.950 . S
C1362 C1361 1.524 . S
C1362 C1363 1.415 . S
C1363 H1333 0.950 1_556 S
C1363 C1358 1.363 1_556 S
C1363 C1362 1.415 . S
H1364 C1361 0.999 . S
H1365 C1346 0.913 . S
H1366 C1384 0.951 . S
H1367 C1386 0.951 . S
H1368 C1388 0.950 . S
H1369 C1389 0.950 . S
H1370 C1391 0.950 . S
H1371 C1394 0.950 . S
H1372 C1395 0.950 . S
H1373 C1397 0.950 . S
H1374 C1398 0.950 . S
H1375 C1399 0.951 . S
H1376 C1401 0.951 . S
H1377 C1403 0.950 . S
H1378 C1404 0.950 . S
H1379 C1406 0.950 . S
H1380 C1409 0.950 . S
H1381 C1410 0.950 . S
H1382 C1412 0.950 . S
H1383 C1413 0.950 . S
C1384 H1366 0.951 . S
C1384 C1385 1.366 . S
C1384 C1386 1.388 . S
C1385 C1384 1.366 . S
C1385 C1389 1.385 . S
C1386 H1367 0.951 . S
C1386 C1384 1.388 . S
C1386 C1387 1.366 . S
C1387 C1386 1.366 . S
C1387 C1388 1.414 . S
C1387 C1390 1.499 . S
C1388 H1368 0.950 . S
C1388 C1387 1.414 . S
C1388 C1389 1.374 . S
C1389 H1369 0.950 . S
C1389 C1385 1.385 . S
C1389 C1388 1.374 . S
C1390 C1387 1.499 . S
C1390 C1391 1.373 . S
C1390 C1392 1.389 . S
C1391 H1370 0.950 . S
C1391 C1390 1.373 . S
C1391 C1407 1.377 . S
C1392 C1390 1.389 . S
C1392 C1393 1.524 . S
C1392 C1406 1.377 . S
C1393 C1392 1.524 . S
C1393 C1394 1.397 . S
C1393 C1398 1.363 . S
C1394 H1371 0.950 . S
C1394 C1393 1.397 . S
C1394 C1395 1.334 . S
C1395 H1372 0.950 . S
C1395 C1394 1.334 . S
C1395 C1396 1.287 . S
C1396 C1395 1.287 . S
C1396 C1397 1.524 . S
C1396 H1415 0.913 . S
C1397 H1373 0.950 . S
C1397 C1396 1.524 . S
C1397 C1398 1.415 . S
C1398 H1374 0.950 . S
C1398 C1393 1.363 . S
C1398 C1397 1.415 . S
C1399 H1375 0.951 . S
C1399 C1400 1.366 . S
C1399 C1401 1.388 . S
C1400 C1399 1.366 . S
C1400 C1404 1.385 . S
C1401 H1376 0.951 . S
C1401 C1399 1.388 . S
C1401 C1402 1.366 . S
C1402 C1401 1.366 . S
C1402 C1403 1.414 . S
C1402 C1405 1.499 . S
C1403 H1377 0.950 . S
C1403 C1402 1.414 . S
C1403 C1404 1.374 . S
C1404 H1378 0.950 . S
C1404 C1400 1.385 . S
C1404 C1403 1.374 . S
C1405 C1402 1.499 . S
C1405 C1406 1.373 . S
C1405 C1407 1.389 . S
C1406 H1379 0.950 . S
C1406 C1392 1.377 . S
C1406 C1405 1.373 . S
C1407 C1391 1.377 . S
C1407 C1405 1.389 . S
C1407 C1408 1.524 . S
C1408 C1407 1.524 . S
C1408 C1409 1.397 . S
C1408 C1413 1.363 . S
C1409 H1380 0.950 . S
C1409 C1408 1.397 . S
C1409 C1410 1.334 . S
C1410 H1381 0.950 . S
C1410 C1409 1.334 . S
C1410 C1411 1.287 . S
C1411 C1410 1.287 . S
C1411 C1412 1.524 . S
C1411 H1414 0.999 . S
C1412 H1382 0.950 . S
C1412 C1411 1.524 . S
C1412 C1413 1.415 . S
C1413 H1383 0.950 . S
C1413 C1408 1.363 . S
C1413 C1412 1.415 . S
H1414 C1411 0.999 . S
H1415 C1396 0.913 . S
H1416 C1434 0.951 . S
H1417 C1436 0.951 . S
H1418 C1438 0.950 . S
H1419 C1439 0.950 . S
H1420 C1441 0.950 . S
H1421 C1444 0.950 . S
H1422 C1445 0.950 . S
H1423 C1447 0.950 . S
H1424 C1448 0.950 . S
H1425 C1449 0.951 . S
H1426 C1451 0.951 . S
H1427 C1453 0.950 1_554 S
H1428 C1454 0.950 . S
H1429 C1456 0.950 . S
H1430 C1459 0.950 . S
H1431 C1460 0.950 . S
H1432 C1462 0.950 . S
H1433 C1463 0.950 . S
C1434 H1416 0.951 . S
C1434 C1435 1.366 . S
C1434 C1436 1.388 . S
C1435 C1434 1.366 . S
C1435 C1439 1.385 . S
C1436 H1417 0.951 . S
C1436 C1434 1.388 . S
C1436 C1437 1.366 . S
C1437 C1436 1.366 . S
C1437 C1438 1.414 . S
C1437 C1440 1.499 . S
C1438 H1418 0.950 . S
C1438 C1437 1.414 . S
C1438 C1439 1.374 . S
C1439 H1419 0.950 . S
C1439 C1435 1.385 . S
C1439 C1438 1.374 . S
C1440 C1437 1.499 . S
C1440 C1441 1.373 . S
C1440 C1442 1.389 . S
C1441 H1420 0.950 . S
C1441 C1440 1.373 . S
C1441 C1457 1.377 . S
C1442 C1440 1.389 . S
C1442 C1443 1.524 . S
C1442 C1456 1.377 . S
C1443 C1442 1.524 . S
C1443 C1444 1.397 . S
C1443 C1448 1.363 1_556 S
C1444 H1421 0.950 . S
C1444 C1443 1.397 . S
C1444 C1445 1.334 . S
C1445 H1422 0.950 . S
C1445 C1444 1.334 . S
C1445 C1446 1.287 . S
C1446 C1445 1.287 . S
C1446 C1447 1.524 1_556 S
C1446 H1465 0.913 . S
C1447 H1423 0.950 . S
C1447 C1446 1.524 1_554 S
C1447 C1448 1.415 . S
C1448 H1424 0.950 . S
C1448 C1443 1.363 1_554 S
C1448 C1447 1.415 . S
C1449 H1425 0.951 . S
C1449 C1450 1.366 . S
C1449 C1451 1.388 . S
C1450 C1449 1.366 . S
C1450 C1454 1.385 1_556 S
C1451 H1426 0.951 . S
C1451 C1449 1.388 . S
C1451 C1452 1.366 . S
C1452 C1451 1.366 . S
C1452 C1453 1.414 . S
C1452 C1455 1.499 . S
C1453 H1427 0.950 1_556 S
C1453 C1452 1.414 . S
C1453 C1454 1.374 1_556 S
C1454 H1428 0.950 . S
C1454 C1450 1.385 1_554 S
C1454 C1453 1.374 1_554 S
C1455 C1452 1.499 . S
C1455 C1456 1.373 . S
C1455 C1457 1.389 . S
C1456 H1429 0.950 . S
C1456 C1442 1.377 . S
C1456 C1455 1.373 . S
C1457 C1441 1.377 . S
C1457 C1455 1.389 . S
C1457 C1458 1.524 . S
C1458 C1457 1.524 . S
C1458 C1459 1.397 . S
C1458 C1463 1.363 . S
C1459 H1430 0.950 . S
C1459 C1458 1.397 . S
C1459 C1460 1.334 . S
C1460 H1431 0.950 . S
C1460 C1459 1.334 . S
C1460 C1461 1.287 . S
C1461 C1460 1.287 . S
C1461 C1462 1.524 . S
C1461 H1464 0.999 . S
C1462 H1432 0.950 . S
C1462 C1461 1.524 . S
C1462 C1463 1.415 . S
C1463 H1433 0.950 . S
C1463 C1458 1.363 . S
C1463 C1462 1.415 . S
H1464 C1461 0.999 . S
H1465 C1446 0.913 . S
H1466 C1484 0.951 . S
H1467 C1486 0.951 . S
H1468 C1488 0.950 . S
H1469 C1489 0.950 . S
H1470 C1491 0.950 . S
H1471 C1494 0.950 . S
H1472 C1495 0.950 . S
H1473 C1497 0.950 . S
H1474 C1498 0.950 . S
H1475 C1499 0.951 . S
H1476 C1501 0.951 . S
H1477 C1503 0.950 . S
H1478 C1504 0.950 . S
H1479 C1506 0.950 . S
H1480 C1509 0.950 . S
H1481 C1510 0.950 . S
H1482 C1512 0.950 . S
H1483 C1513 0.950 . S
C1484 H1466 0.951 . S
C1484 C1485 1.366 . S
C1484 C1486 1.388 . S
C1485 C1484 1.366 . S
C1485 C1489 1.385 . S
C1486 H1467 0.951 . S
C1486 C1484 1.388 . S
C1486 C1487 1.366 . S
C1487 C1486 1.366 . S
C1487 C1488 1.414 . S
C1487 C1490 1.499 . S
C1488 H1468 0.950 . S
C1488 C1487 1.414 . S
C1488 C1489 1.374 . S
C1489 H1469 0.950 . S
C1489 C1485 1.385 . S
C1489 C1488 1.374 . S
C1490 C1487 1.499 . S
C1490 C1491 1.373 . S
C1490 C1492 1.389 . S
C1491 H1470 0.950 . S
C1491 C1490 1.373 . S
C1491 C1507 1.377 . S
C1492 C1490 1.389 . S
C1492 C1493 1.524 . S
C1492 C1506 1.377 . S
C1493 C1492 1.524 . S
C1493 C1494 1.397 . S
C1493 C1498 1.363 . S
C1494 H1471 0.950 . S
C1494 C1493 1.397 . S
C1494 C1495 1.334 . S
C1495 H1472 0.950 . S
C1495 C1494 1.334 . S
C1495 C1496 1.287 . S
C1496 C1495 1.287 . S
C1496 C1497 1.524 . S
C1496 H1515 0.913 1_554 S
C1497 H1473 0.950 . S
C1497 C1496 1.524 . S
C1497 C1498 1.415 . S
C1498 H1474 0.950 . S
C1498 C1493 1.363 . S
C1498 C1497 1.415 . S
C1499 H1475 0.951 . S
C1499 C1500 1.366 . S
C1499 C1501 1.388 . S
C1500 C1499 1.366 . S
C1500 C1504 1.385 . S
C1501 H1476 0.951 . S
C1501 C1499 1.388 . S
C1501 C1502 1.366 . S
C1502 C1501 1.366 . S
C1502 C1503 1.414 . S
C1502 C1505 1.499 . S
C1503 H1477 0.950 . S
C1503 C1502 1.414 . S
C1503 C1504 1.374 . S
C1504 H1478 0.950 . S
C1504 C1500 1.385 . S
C1504 C1503 1.374 . S
C1505 C1502 1.499 . S
C1505 C1506 1.373 . S
C1505 C1507 1.389 . S
C1506 H1479 0.950 . S
C1506 C1492 1.377 . S
C1506 C1505 1.373 . S
C1507 C1491 1.377 . S
C1507 C1505 1.389 . S
C1507 C1508 1.524 . S
C1508 C1507 1.524 . S
C1508 C1509 1.397 . S
C1508 C1513 1.363 . S
C1509 H1480 0.950 . S
C1509 C1508 1.397 . S
C1509 C1510 1.334 . S
C1510 H1481 0.950 . S
C1510 C1509 1.334 . S
C1510 C1511 1.287 . S
C1511 C1510 1.287 . S
C1511 C1512 1.524 . S
C1511 H1514 0.999 . S
C1512 H1482 0.950 . S
C1512 C1511 1.524 . S
C1512 C1513 1.415 . S
C1513 H1483 0.950 . S
C1513 C1508 1.363 . S
C1513 C1512 1.415 . S
H1514 C1511 0.999 . S
H1515 C1496 0.913 1_556 S
H1516 C1534 0.951 . S
H1517 C1536 0.951 . S
H1518 C1538 0.950 . S
H1519 C1539 0.950 . S
H1520 C1541 0.950 . S
H1521 C1544 0.950 . S
H1522 C1545 0.950 . S
H1523 C1547 0.950 . S
H1524 C1548 0.950 . S
H1525 C1549 0.951 . S
H1526 C1551 0.951 . S
H1527 C1553 0.950 . S
H1528 C1554 0.950 . S
H1529 C1556 0.950 . S
H1530 C1559 0.950 . S
H1531 C1560 0.950 . S
H1532 C1562 0.950 . S
H1533 C1563 0.950 . S
C1534 H1516 0.951 . S
C1534 C1535 1.366 . S
C1534 C1536 1.388 . S
C1535 C1534 1.366 . S
C1535 C1539 1.385 . S
C1536 H1517 0.951 . S
C1536 C1534 1.388 . S
C1536 C1537 1.366 . S
C1537 C1536 1.366 . S
C1537 C1538 1.414 . S
C1537 C1540 1.499 . S
C1538 H1518 0.950 . S
C1538 C1537 1.414 . S
C1538 C1539 1.374 . S
C1539 H1519 0.950 . S
C1539 C1535 1.385 . S
C1539 C1538 1.374 . S
C1540 C1537 1.499 . S
C1540 C1541 1.373 . S
C1540 C1542 1.389 . S
C1541 H1520 0.950 . S
C1541 C1540 1.373 . S
C1541 C1557 1.377 . S
C1542 C1540 1.389 . S
C1542 C1543 1.524 . S
C1542 C1556 1.377 . S
C1543 C1542 1.524 . S
C1543 C1544 1.397 . S
C1543 C1548 1.363 . S
C1544 H1521 0.950 . S
C1544 C1543 1.397 . S
C1544 C1545 1.334 . S
C1545 H1522 0.950 . S
C1545 C1544 1.334 . S
C1545 C1546 1.287 . S
C1546 C1545 1.287 . S
C1546 C1547 1.524 . S
C1546 H1565 0.913 . S
C1547 H1523 0.950 . S
C1547 C1546 1.524 . S
C1547 C1548 1.415 . S
C1548 H1524 0.950 . S
C1548 C1543 1.363 . S
C1548 C1547 1.415 . S
C1549 H1525 0.951 . S
C1549 C1550 1.366 . S
C1549 C1551 1.388 . S
C1550 C1549 1.366 . S
C1550 C1554 1.385 . S
C1551 H1526 0.951 . S
C1551 C1549 1.388 . S
C1551 C1552 1.366 . S
C1552 C1551 1.366 . S
C1552 C1553 1.414 . S
C1552 C1555 1.499 . S
C1553 H1527 0.950 . S
C1553 C1552 1.414 . S
C1553 C1554 1.374 . S
C1554 H1528 0.950 . S
C1554 C1550 1.385 . S
C1554 C1553 1.374 . S
C1555 C1552 1.499 . S
C1555 C1556 1.373 . S
C1555 C1557 1.389 . S
C1556 H1529 0.950 . S
C1556 C1542 1.377 . S
C1556 C1555 1.373 . S
C1557 C1541 1.377 . S
C1557 C1555 1.389 . S
C1557 C1558 1.524 . S
C1558 C1557 1.524 . S
C1558 C1559 1.397 . S
C1558 C1563 1.363 . S
C1559 H1530 0.950 . S
C1559 C1558 1.397 . S
C1559 C1560 1.334 . S
C1560 H1531 0.950 . S
C1560 C1559 1.334 . S
C1560 C1561 1.287 . S
C1561 C1560 1.287 . S
C1561 C1562 1.524 . S
C1561 H1564 0.999 . S
C1562 H1532 0.950 . S
C1562 C1561 1.524 . S
C1562 C1563 1.415 . S
C1563 H1533 0.950 . S
C1563 C1558 1.363 . S
C1563 C1562 1.415 . S
H1564 C1561 0.999 . S
H1565 C1546 0.913 . S
H1566 C1584 0.951 . S
H1567 C1586 0.951 . S
H1568 C1588 0.950 . S
H1569 C1589 0.950 . S
H1570 C1591 0.950 . S
H1571 C1594 0.950 . S
H1572 C1595 0.950 . S
H1573 C1597 0.950 . S
H1574 C1598 0.950 . S
H1575 C1599 0.951 . S
H1576 C1601 0.951 . S
H1577 C1603 0.950 . S
H1578 C1604 0.950 . S
H1579 C1606 0.950 . S
H1580 C1609 0.950 . S
H1581 C1610 0.950 . S
H1582 C1612 0.950 . S
H1583 C1613 0.950 . S
C1584 H1566 0.951 . S
C1584 C1585 1.366 . S
C1584 C1586 1.388 . S
C1585 C1584 1.366 . S
C1585 C1589 1.385 . S
C1586 H1567 0.951 . S
C1586 C1584 1.388 . S
C1586 C1587 1.366 . S
C1587 C1586 1.366 . S
C1587 C1588 1.414 . S
C1587 C1590 1.499 . S
C1588 H1568 0.950 . S
C1588 C1587 1.414 . S
C1588 C1589 1.374 . S
C1589 H1569 0.950 . S
C1589 C1585 1.385 . S
C1589 C1588 1.374 . S
C1590 C1587 1.499 . S
C1590 C1591 1.373 . S
C1590 C1592 1.389 . S
C1591 H1570 0.950 . S
C1591 C1590 1.373 . S
C1591 C1607 1.377 . S
C1592 C1590 1.389 . S
C1592 C1593 1.524 . S
C1592 C1606 1.377 . S
C1593 C1592 1.524 . S
C1593 C1594 1.397 . S
C1593 C1598 1.363 . S
C1594 H1571 0.950 . S
C1594 C1593 1.397 . S
C1594 C1595 1.334 . S
C1595 H1572 0.950 . S
C1595 C1594 1.334 . S
C1595 C1596 1.287 . S
C1596 C1595 1.287 . S
C1596 C1597 1.524 . S
C1596 H1615 0.913 . S
C1597 H1573 0.950 . S
C1597 C1596 1.524 . S
C1597 C1598 1.415 . S
C1598 H1574 0.950 . S
C1598 C1593 1.363 . S
C1598 C1597 1.415 . S
C1599 H1575 0.951 . S
C1599 C1600 1.366 . S
C1599 C1601 1.388 . S
C1600 C1599 1.366 . S
C1600 C1604 1.385 . S
C1601 H1576 0.951 . S
C1601 C1599 1.388 . S
C1601 C1602 1.366 . S
C1602 C1601 1.366 . S
C1602 C1603 1.414 . S
C1602 C1605 1.499 . S
C1603 H1577 0.950 . S
C1603 C1602 1.414 . S
C1603 C1604 1.374 . S
C1604 H1578 0.950 . S
C1604 C1600 1.385 . S
C1604 C1603 1.374 . S
C1605 C1602 1.499 . S
C1605 C1606 1.373 . S
C1605 C1607 1.389 . S
C1606 H1579 0.950 . S
C1606 C1592 1.377 . S
C1606 C1605 1.373 . S
C1607 C1591 1.377 . S
C1607 C1605 1.389 . S
C1607 C1608 1.524 . S
C1608 C1607 1.524 . S
C1608 C1609 1.397 . S
C1608 C1613 1.363 . S
C1609 H1580 0.950 . S
C1609 C1608 1.397 . S
C1609 C1610 1.334 . S
C1610 H1581 0.950 . S
C1610 C1609 1.334 . S
C1610 C1611 1.287 . S
C1611 C1610 1.287 . S
C1611 C1612 1.524 . S
C1611 H1614 0.999 . S
C1612 H1582 0.950 . S
C1612 C1611 1.524 . S
C1612 C1613 1.415 . S
C1613 H1583 0.950 . S
C1613 C1608 1.363 . S
C1613 C1612 1.415 . S
H1614 C1611 0.999 . S
H1615 C1596 0.913 . S
C435 C29 2.913 . S
C450 C275 2.960 . S
C485 C49 2.192 . S
C500 C306 2.353 . S
C550 C345 1.310 . S
C535 C93 1.293 . S
C585 C119 0.391 . S
C600 C382 0.355 . S
C650 C305 2.806 . S
C635 C17 2.839 . S
C700 C262 1.584 . S
C685 C61 1.497 . S
C750 C394 1.304 . S
C735 C81 1.308 . S
C800 C351 0.968 . S
C785 C125 0.966 . S
C835 C23 2.194 . S
C850 C395 2.238 . S
C900 C311 1.239 . S
C885 C87 1.210 . S
C935 C113 0.615 . S
C950 C274 0.632 . S
C985 C55 2.384 . S
C1000 C346 2.519 . S
C1050 C266 2.899 . S
C1035 C157 2.893 . S
C1085 C189 2.406 . S
C1100 C315 2.414 . S
C1135 C221 1.324 . S
C1150 C354 1.292 . S
C1185 C253 0.458 . S
C1200 C391 0.402 . S
C1235 C145 2.943 . S
C1250 C314 2.869 . S
C1300 C271 1.512 . S
C1285 C183 1.520 . S
C1350 C385 1.350 . S
C1335 C209 1.390 . S
C1400 C342 0.917 . S
C1385 C247 0.924 . S
C1435 C151 2.251 . S
C1450 C386 2.263 . S
C1500 C302 1.229 . S
C1485 C215 1.220 . S
C1550 C265 0.605 . S
C1535 C241 0.576 . S
C1585 C177 2.564 . S
C1600 C355 2.535 . S
