# Generated by pormake.
# Topology the, (3,8)-cn, num edge types: 1
# Building blocks:
#     Node 0, Type 0, BuildingBlock: BETDIP_clean_linker_0, # of connection points: 3
#     Node 1, Type 0, BuildingBlock: BETDIP_clean_linker_0, # of connection points: 3
#     Node 2, Type 0, BuildingBlock: BETDIP_clean_linker_0, # of connection points: 3
#     Node 3, Type 0, BuildingBlock: BETDIP_clean_linker_0, # of connection points: 3
#     Node 4, Type 0, BuildingBlock: BETDIP_clean_linker_0, # of connection points: 3
#     Node 5, Type 0, BuildingBlock: BETDIP_clean_linker_0, # of connection points: 3
#     Node 6, Type 0, BuildingBlock: BETDIP_clean_linker_0, # of connection points: 3
#     Node 7, Type 0, BuildingBlock: BETDIP_clean_linker_0, # of connection points: 3
#     Node 8, Type 1, BuildingBlock: GIZVER_clean_sbu_0, # of connection points: 8
#     Node 9, Type 1, BuildingBlock: GIZVER_clean_sbu_0, # of connection points: 8
#     Node 10, Type 1, BuildingBlock: GIZVER_clean_sbu_0, # of connection points: 8
#     Edge 11, Type (0, 1), BuildingBlock: UVAHIK_clean_linker_0, # of connection points: 2
#     Edge 12, Type (0, 1), BuildingBlock: UVAHIK_clean_linker_0, # of connection points: 2
#     Edge 13, Type (0, 1), BuildingBlock: UVAHIK_clean_linker_0, # of connection points: 2
#     Edge 14, Type (0, 1), BuildingBlock: UVAHIK_clean_linker_0, # of connection points: 2
#     Edge 15, Type (0, 1), BuildingBlock: UVAHIK_clean_linker_0, # of connection points: 2
#     Edge 16, Type (0, 1), BuildingBlock: UVAHIK_clean_linker_0, # of connection points: 2
#     Edge 17, Type (0, 1), BuildingBlock: UVAHIK_clean_linker_0, # of connection points: 2
#     Edge 18, Type (0, 1), BuildingBlock: UVAHIK_clean_linker_0, # of connection points: 2
#     Edge 19, Type (0, 1), BuildingBlock: UVAHIK_clean_linker_0, # of connection points: 2
#     Edge 20, Type (0, 1), BuildingBlock: UVAHIK_clean_linker_0, # of connection points: 2
#     Edge 21, Type (0, 1), BuildingBlock: UVAHIK_clean_linker_0, # of connection points: 2
#     Edge 22, Type (0, 1), BuildingBlock: UVAHIK_clean_linker_0, # of connection points: 2
#     Edge 23, Type (0, 1), BuildingBlock: UVAHIK_clean_linker_0, # of connection points: 2
#     Edge 24, Type (0, 1), BuildingBlock: UVAHIK_clean_linker_0, # of connection points: 2
#     Edge 25, Type (0, 1), BuildingBlock: UVAHIK_clean_linker_0, # of connection points: 2
#     Edge 26, Type (0, 1), BuildingBlock: UVAHIK_clean_linker_0, # of connection points: 2
#     Edge 27, Type (0, 1), BuildingBlock: UVAHIK_clean_linker_0, # of connection points: 2
#     Edge 28, Type (0, 1), BuildingBlock: UVAHIK_clean_linker_0, # of connection points: 2
#     Edge 29, Type (0, 1), BuildingBlock: UVAHIK_clean_linker_0, # of connection points: 2
#     Edge 30, Type (0, 1), BuildingBlock: UVAHIK_clean_linker_0, # of connection points: 2
#     Edge 31, Type (0, 1), BuildingBlock: UVAHIK_clean_linker_0, # of connection points: 2
#     Edge 32, Type (0, 1), BuildingBlock: UVAHIK_clean_linker_0, # of connection points: 2
#     Edge 33, Type (0, 1), BuildingBlock: UVAHIK_clean_linker_0, # of connection points: 2
#     Edge 34, Type (0, 1), BuildingBlock: UVAHIK_clean_linker_0, # of connection points: 2
# Relax obj value: 0.082
# Max RMSD: 0.189
# Mean RMSD: 0.143
data_MOF--net-the--node1-GIZVER_clean_sbu_0--node2-BETDIP_clean_linker_0--edge1-UVAHIK_clean_linker_0
_symmetry_space_group_name_H-M    P1
_symmetry_Int_Tables_number       1
_symmetry_cell_setting            triclinic
loop_
_symmetry_equiv_pos_as_xyz
'x, y, z'
_cell_length_a     51.863765
_cell_length_b     48.643223
_cell_length_c     46.859837
_cell_angle_alpha  90.944681
_cell_angle_beta   89.244225
_cell_angle_gamma 107.78588
loop_
_atom_site_label
_atom_site_type_symbol
_atom_site_fract_x
_atom_site_fract_y
_atom_site_fract_z
_atom_type_partial_charge
H0 H 0.28317 0.30731 0.42004 0.0
H1 H 0.33489 0.31333 0.34646 0.0
H2 H 0.27663 0.35999 0.34953 0.0
H3 H 0.34203 0.27471 0.36267 0.0
C4 C 0.3392 0.27444 0.38564 0.0
C5 C 0.28966 0.31568 0.39896 0.0
C6 C 0.27725 0.33407 0.38605 0.0
C7 C 0.31009 0.30757 0.3847 0.0
C8 C 0.31875 0.31888 0.35752 0.0
C9 C 0.30689 0.3379 0.34451 0.0
C10 C 0.28579 0.34502 0.35888 0.0
N11 N 0.32194 0.28878 0.39876 0.0
H12 H 0.7319 0.37433 0.29267 0.0
H13 H 0.66011 0.30063 0.29225 0.0
H14 H 0.72551 0.30274 0.34811 0.0
H15 H 0.65832 0.31268 0.24678 0.0
C16 C 0.66461 0.33611 0.24699 0.0
C17 C 0.72066 0.35315 0.30046 0.0
C18 C 0.73185 0.3402 0.3217 0.0
C19 C 0.69527 0.33859 0.28871 0.0
C20 C 0.68033 0.31156 0.29978 0.0
C21 C 0.69125 0.29843 0.32097 0.0
C22 C 0.71722 0.3126 0.33139 0.0
N23 N 0.68502 0.35178 0.26633 0.0
H24 H 0.70604 0.66595 0.31485 0.0
H25 H 0.71391 0.72974 0.38141 0.0
H26 H 0.65521 0.72126 0.31519 0.0
H27 H 0.75541 0.72424 0.38666 0.0
C28 C 0.75291 0.70176 0.38139 0.0
C29 C 0.69982 0.68339 0.32438 0.0
C30 C 0.67912 0.69202 0.31179 0.0
C31 C 0.71297 0.69723 0.34899 0.0
C32 C 0.70485 0.71977 0.36166 0.0
C33 C 0.68388 0.7285 0.34969 0.0
C34 C 0.67137 0.7147 0.32455 0.0
N35 N 0.73329 0.68686 0.36099 0.0
H36 H 0.24412 0.68988 0.26774 0.0
H37 H 0.32186 0.75467 0.27417 0.0
H38 H 0.26542 0.74151 0.34422 0.0
H39 H 0.32679 0.74446 0.22808 0.0
C40 C 0.31458 0.72211 0.22521 0.0
C41 C 0.25807 0.70752 0.27944 0.0
C42 C 0.25155 0.71429 0.30727 0.0
C43 C 0.28327 0.72179 0.26719 0.0
C44 C 0.30195 0.74393 0.28279 0.0
C45 C 0.29555 0.75116 0.3106 0.0
C46 C 0.27034 0.73622 0.32266 0.0
N47 N 0.28995 0.71095 0.24067 0.0
H48 H 0.29677 0.64631 0.74034 0.0
H49 H 0.36903 0.71928 0.74233 0.0
H50 H 0.30587 0.71817 0.68419 0.0
H51 H 0.38785 0.68739 0.75777 0.0
C52 C 0.37273 0.67302 0.7714 0.0
C53 C 0.30848 0.6672 0.73227 0.0
C54 C 0.29767 0.68065 0.71104 0.0
C55 C 0.33447 0.68049 0.74324 0.0
C56 C 0.34949 0.708 0.73336 0.0
C57 C 0.33909 0.72171 0.71229 0.0
C58 C 0.31332 0.70791 0.70121 0.0
N59 N 0.34476 0.66605 0.76453 0.0
H60 H 0.32153 0.35167 0.72017 0.0
H61 H 0.31407 0.2886 0.65298 0.0
H62 H 0.37246 0.29651 0.71953 0.0
H63 H 0.27246 0.29425 0.6476 0.0
C64 C 0.27462 0.31648 0.65363 0.0
C65 C 0.32787 0.33438 0.71046 0.0
C66 C 0.34852 0.32569 0.72301 0.0
C67 C 0.31481 0.32075 0.68573 0.0
C68 C 0.32306 0.29839 0.67282 0.0
C69 C 0.34408 0.28962 0.68474 0.0
C70 C 0.35638 0.30316 0.71009 0.0
N71 N 0.29438 0.33113 0.674 0.0
H72 H 0.70646 0.26192 0.75354 0.0
H73 H 0.78044 0.33034 0.76738 0.0
H74 H 0.77462 0.27191 0.69662 0.0
H75 H 0.7633 0.33106 0.81249 0.0
C76 C 0.74197 0.32688 0.8079 0.0
C77 C 0.72744 0.27234 0.74775 0.0
C78 C 0.73865 0.2634 0.72312 0.0
C79 C 0.74249 0.29588 0.7643 0.0
C80 C 0.76915 0.31096 0.75598 0.0
C81 C 0.78057 0.30257 0.73131 0.0
C82 C 0.76551 0.27841 0.71546 0.0
N83 N 0.7291 0.30574 0.78708 0.0
H84 H 0.68178 0.70196 0.67716 0.0
H85 H 0.73373 0.70282 0.60456 0.0
H86 H 0.73262 0.64668 0.67461 0.0
H87 H 0.73073 0.74842 0.60053 0.0
C88 C 0.70946 0.74519 0.6053 0.0
C89 C 0.69681 0.69412 0.66634 0.0
C90 C 0.70601 0.67297 0.67909 0.0
C91 C 0.70681 0.70522 0.63962 0.0
C92 C 0.72626 0.69501 0.62551 0.0
C93 C 0.7355 0.67378 0.63798 0.0
C94 C 0.72514 0.66269 0.66465 0.0
N95 N 0.69623 0.72586 0.6271 0.0
Co96 Co 0.06496 0.48248 0.53341 0.0
Co97 Co 0.03651 0.46519 0.48703 0.0
Co98 Co 0.01268 0.50927 0.52012 0.0
O99 O 0.02766 0.47602 0.52321 0.0
H100 H 0.0154 0.45973 0.53287 0.0
O101 O 0.99761 0.54254 0.517 0.0
Co102 Co 0.95992 0.53566 0.50809 0.0
Co103 Co 0.99011 0.55425 0.55364 0.0
H104 H 0.0095 0.55858 0.50668 0.0
O105 O 0.0421 0.42982 0.47938 0.0
O106 O 0.07289 0.47082 0.49439 0.0
O107 O 0.03488 0.49002 0.45602 0.0
O108 O 0.03523 0.5264 0.48548 0.0
O109 O 0.98347 0.48467 0.49465 0.0
O110 O 0.92608 0.53259 0.49865 0.0
O111 O 0.96281 0.57183 0.49603 0.0
O112 O 0.95214 0.49692 0.5186 0.0
O113 O 0.99033 0.4925 0.55496 0.0
O114 O 0.9934 0.5297 0.58443 0.0
O115 O 0.95325 0.54614 0.54758 0.0
O116 O 0.98168 0.58882 0.56134 0.0
C117 C 0.08706 0.45857 0.55125 0.0
C118 C 0.06688 0.53771 0.5401 0.0
C119 C 0.03903 0.51676 0.46074 0.0
C120 C 0.06702 0.44426 0.48515 0.0
C121 C 0.93693 0.55951 0.4919 0.0
C122 C 0.95847 0.48092 0.49991 0.0
C123 C 0.98837 0.50276 0.57995 0.0
C124 C 0.95721 0.57253 0.55625 0.0
O125 O 0.09835 0.48541 0.54439 0.0
O126 O 0.06129 0.44644 0.54633 0.0
O127 O 0.04188 0.53373 0.54548 0.0
O128 O 0.07359 0.52127 0.52213 0.0
Co129 Co 0.53981 0.95484 0.49554 0.0
Co130 Co 0.55387 0.98122 0.54524 0.0
Co131 Co 0.51515 0.00986 0.51656 0.0
O132 O 0.54583 0.99371 0.50997 0.0
H133 H 0.56163 0.00748 0.50175 0.0
O134 O 0.48443 0.02609 0.52302 0.0
Co135 Co 0.49023 0.0647 0.53818 0.0
Co136 Co 0.47672 0.03942 0.48792 0.0
H137 H 0.46852 0.01218 0.5309 0.0
O138 O 0.58683 0.97534 0.55127 0.0
O139 O 0.54899 0.94335 0.5337 0.0
O140 O 0.52925 0.97998 0.57686 0.0
O141 O 0.49688 0.9808 0.54677 0.0
O142 O 0.5372 0.03644 0.54602 0.0
O143 O 0.49261 0.0991 0.55293 0.0
O144 O 0.45539 0.06051 0.54964 0.0
O145 O 0.5277 0.07449 0.52967 0.0
O146 O 0.53351 0.03906 0.48657 0.0
O147 O 0.50159 0.04097 0.45638 0.0
O148 O 0.4825 0.07732 0.50009 0.0
O149 O 0.44437 0.047 0.48152 0.0
C150 C 0.56279 0.9318 0.47616 0.0
C151 C 0.48808 0.95575 0.48908 0.0
C152 C 0.50438 0.97424 0.57093 0.0
C153 C 0.57388 0.94939 0.54247 0.0
C154 C 0.46684 0.08739 0.55753 0.0
C155 C 0.54237 0.06372 0.54469 0.0
C156 C 0.52637 0.04638 0.46257 0.0
C157 C 0.45809 0.07266 0.49042 0.0
O158 O 0.53714 0.9201 0.4815 0.0
O159 O 0.5743 0.95891 0.48315 0.0
O160 O 0.49329 0.98303 0.48708 0.0
O161 O 0.50248 0.94538 0.50497 0.0
Co162 Co 0.4736 0.51748 0.07085 0.0
Co163 Co 0.46484 0.46556 0.05184 0.0
Co164 Co 0.51378 0.51013 0.0166 0.0
O165 O 0.47724 0.50102 0.03469 0.0
H166 H 0.46387 0.50294 0.02134 0.0
O167 O 0.55029 0.51935 0.99825 0.0
Co168 Co 0.55409 0.50361 0.96162 0.0
Co169 Co 0.56249 0.55523 0.98159 0.0
H170 H 0.56369 0.51727 0.01147 0.0
O171 O 0.42824 0.44676 0.0585 0.0
O172 O 0.45717 0.4788 0.08741 0.0
O173 O 0.49148 0.44617 0.05696 0.0
O174 O 0.52639 0.48194 0.04032 0.0
O175 O 0.49714 0.47907 0.98743 0.0
O176 O 0.56049 0.48789 0.92903 0.0
O177 O 0.58748 0.50083 0.96738 0.0
O178 O 0.51917 0.50376 0.951 0.0
O179 O 0.50111 0.53832 0.99304 0.0
O180 O 0.53591 0.57482 0.97767 0.0
O181 O 0.569 0.54261 0.94536 0.0
O182 O 0.5989 0.57423 0.97368 0.0
C183 C 0.44581 0.53408 0.08962 0.0
C184 C 0.5285 0.53522 0.07253 0.0
C185 C 0.51674 0.45793 0.05335 0.0
C186 C 0.4335 0.46018 0.08293 0.0
C187 C 0.58276 0.48885 0.94207 0.0
C188 C 0.49886 0.48433 0.96079 0.0
C189 C 0.51065 0.56277 0.98078 0.0
C190 C 0.59269 0.56144 0.94906 0.0
O191 O 0.46753 0.53394 0.10312 0.0
O192 O 0.4409 0.5219 0.0644 0.0
O193 O 0.53042 0.54104 0.04599 0.0
O194 O 0.50788 0.51593 0.08196 0.0
C195 C 0.26111 0.35794 0.42706 0.0
C196 C 0.25566 0.3424 0.40119 0.0
C197 C 0.24103 0.36725 0.44056 0.0
C198 C 0.16906 0.35309 0.44976 0.0
H199 H 0.18299 0.43599 0.45455 0.0
C200 C 0.08318 0.40364 0.46708 0.0
C201 C 0.08877 0.43081 0.48052 0.0
C202 C 0.10393 0.39153 0.46146 0.0
C203 C 0.17885 0.41279 0.45414 0.0
H204 H 0.2252 0.32353 0.36944 0.0
H205 H 0.18964 0.33909 0.39362 0.0
H206 H 0.21867 0.41655 0.43815 0.0
H207 H 0.12053 0.46628 0.4992 0.0
H208 H 0.15625 0.44439 0.49126 0.0
H209 H 0.12949 0.34904 0.46625 0.0
C210 C 0.20947 0.34426 0.40322 0.0
C211 C 0.19931 0.40173 0.44453 0.0
C212 C 0.22972 0.33554 0.38939 0.0
C213 C 0.11544 0.44524 0.48893 0.0
C214 C 0.13606 0.4328 0.48402 0.0
C215 C 0.14874 0.36411 0.46001 0.0
C216 C 0.21511 0.36051 0.42868 0.0
C217 C 0.19437 0.37185 0.44173 0.0
C218 C 0.13072 0.40604 0.46966 0.0
C219 C 0.15315 0.39414 0.4617 0.0
H220 H 0.28109 0.3635 0.43638 0.0
H221 H 0.24573 0.37984 0.46015 0.0
H222 H 0.16498 0.32992 0.4479 0.0
H223 H 0.06288 0.392 0.46018 0.0
H224 H 0.09899 0.37118 0.44986 0.0
C225 C 0.6491 0.26716 0.34442 0.0
C226 C 0.67507 0.27045 0.33314 0.0
C227 C 0.63424 0.24125 0.3571 0.0
C228 C 0.62388 0.16408 0.35824 0.0
H229 H 0.59764 0.16779 0.43569 0.0
C230 C 0.54088 0.07269 0.41652 0.0
C231 C 0.54691 0.06694 0.44457 0.0
C232 C 0.55857 0.09543 0.40132 0.0
C233 C 0.60494 0.16644 0.4141 0.0
H234 H 0.70568 0.24919 0.32561 0.0
H235 H 0.67923 0.20338 0.34715 0.0
H236 H 0.62379 0.2122 0.41198 0.0
H237 H 0.57683 0.07991 0.47816 0.0
H238 H 0.60727 0.11988 0.45178 0.0
H239 H 0.60426 0.11831 0.36017 0.0
C240 C 0.67059 0.221 0.34639 0.0
C241 C 0.61972 0.19181 0.40051 0.0
C242 C 0.68571 0.24716 0.33423 0.0
C243 C 0.57158 0.08361 0.45657 0.0
C244 C 0.58896 0.10664 0.44158 0.0
C245 C 0.60856 0.1387 0.37165 0.0
C246 C 0.64485 0.21796 0.35823 0.0
C247 C 0.62935 0.19088 0.37249 0.0
C248 C 0.58234 0.11314 0.41407 0.0
C249 C 0.59906 0.13967 0.39976 0.0
H250 H 0.64055 0.28487 0.34399 0.0
H251 H 0.6144 0.23938 0.36601 0.0
H252 H 0.63103 0.16287 0.33657 0.0
H253 H 0.52206 0.06024 0.40669 0.0
H254 H 0.55299 0.10008 0.38015 0.0
C255 C 0.76853 0.65832 0.38908 0.0
C256 C 0.77208 0.68787 0.39348 0.0
C257 C 0.78693 0.64556 0.4003 0.0
C258 C 0.84189 0.65666 0.45394 0.0
H259 H 0.85903 0.5968 0.40901 0.0
C260 C 0.92706 0.60615 0.48244 0.0
C261 C 0.9194 0.57584 0.4808 0.0
C262 C 0.90972 0.62104 0.47249 0.0
C263 C 0.85435 0.61339 0.42188 0.0
H264 H 0.79749 0.72717 0.41323 0.0
H265 H 0.83006 0.70513 0.43227 0.0
H266 H 0.82776 0.62037 0.39031 0.0
H267 H 0.88755 0.53742 0.46759 0.0
H268 H 0.85777 0.56332 0.44981 0.0
H269 H 0.86899 0.6497 0.48535 0.0
C270 C 0.81283 0.69162 0.42059 0.0
C271 C 0.83628 0.62684 0.41124 0.0
C272 C 0.79428 0.70433 0.40953 0.0
C273 C 0.89413 0.56079 0.46906 0.0
C274 C 0.87708 0.57562 0.45875 0.0
C275 C 0.86022 0.64333 0.46449 0.0
C276 C 0.8095 0.66205 0.41601 0.0
C277 C 0.82951 0.64844 0.42722 0.0
C278 C 0.88466 0.6059 0.46026 0.0
C279 C 0.8664 0.62132 0.44869 0.0
H280 H 0.75147 0.64493 0.37707 0.0
H281 H 0.78328 0.62263 0.39682 0.0
H282 H 0.83698 0.67294 0.46705 0.0
H283 H 0.94625 0.61831 0.49171 0.0
H284 H 0.91609 0.6444 0.47392 0.0
C285 C 0.32896 0.80051 0.31714 0.0
C286 C 0.31576 0.77295 0.32792 0.0
C287 C 0.34755 0.82114 0.33397 0.0
C288 C 0.39376 0.82829 0.39377 0.0
H289 H 0.38677 0.90491 0.40456 0.0
C290 C 0.45686 0.90648 0.47796 0.0
C291 C 0.46666 0.93595 0.47146 0.0
C292 C 0.43797 0.88729 0.46035 0.0
C293 C 0.38932 0.88378 0.40147 0.0
H294 H 0.31201 0.74506 0.36432 0.0
H295 H 0.34476 0.78089 0.39352 0.0
H296 H 0.35566 0.87026 0.37288 0.0
H297 H 0.46406 0.96853 0.44157 0.0
H298 H 0.43172 0.93494 0.41028 0.0
H299 H 0.42768 0.84168 0.42164 0.0
C300 C 0.3406 0.78664 0.37221 0.0
C301 C 0.37143 0.86394 0.38336 0.0
C302 C 0.32176 0.76623 0.3556 0.0
C303 C 0.45677 0.94594 0.44723 0.0
C304 C 0.43813 0.92666 0.42935 0.0
C305 C 0.41186 0.8482 0.41153 0.0
C306 C 0.35359 0.81433 0.36163 0.0
C307 C 0.37332 0.83592 0.3796 0.0
C308 C 0.42869 0.897 0.4355 0.0
C309 C 0.40971 0.87612 0.41592 0.0
H310 H 0.3246 0.80621 0.29588 0.0
H311 H 0.35741 0.84229 0.32528 0.0
H312 H 0.39589 0.80694 0.39093 0.0
H313 H 0.46387 0.89816 0.49666 0.0
H314 H 0.43068 0.86479 0.46626 0.0
C315 C 0.26194 0.63626 0.69248 0.0
C316 C 0.27061 0.66619 0.69817 0.0
C317 C 0.23772 0.62334 0.67793 0.0
C318 C 0.19434 0.64009 0.62488 0.0
H319 H 0.14085 0.56871 0.6476 0.0
C320 C 0.11502 0.56657 0.54872 0.0
C321 C 0.08811 0.5566 0.55863 0.0
C322 C 0.13579 0.58186 0.56688 0.0
C323 C 0.15554 0.58877 0.64114 0.0
H324 H 0.25944 0.70554 0.69447 0.0
H325 H 0.21782 0.68312 0.66833 0.0
H326 H 0.17985 0.59087 0.67835 0.0
H327 H 0.06181 0.55511 0.5953 0.0
H328 H 0.09841 0.58142 0.62734 0.0
H329 H 0.17056 0.63755 0.58728 0.0
C330 C 0.22993 0.66977 0.67497 0.0
C331 C 0.17791 0.6013 0.6586 0.0
C332 C 0.25387 0.68259 0.68984 0.0
C333 C 0.08232 0.56273 0.587 0.0
C334 C 0.10325 0.57755 0.60538 0.0
C335 C 0.17228 0.6273 0.60721 0.0
C336 C 0.2218 0.6401 0.66847 0.0
C337 C 0.19756 0.62707 0.6506 0.0
C338 C 0.1302 0.58706 0.59552 0.0
C339 C 0.15271 0.60147 0.61511 0.0
H340 H 0.27435 0.62294 0.69825 0.0
H341 H 0.232 0.60044 0.67305 0.0
H342 H 0.20929 0.65984 0.61807 0.0
H343 H 0.12009 0.56213 0.52698 0.0
H344 H 0.1564 0.5888 0.55877 0.0
C345 C 0.33602 0.24189 0.65856 0.0
C346 C 0.3541 0.2673 0.6701 0.0
C347 C 0.34572 0.22115 0.64472 0.0
C348 C 0.40675 0.21305 0.60819 0.0
H349 H 0.37648 0.13155 0.62464 0.0
C350 C 0.46491 0.13328 0.58073 0.0
C351 C 0.45104 0.10563 0.56995 0.0
C352 C 0.45086 0.15169 0.59109 0.0
C353 C 0.38489 0.15417 0.61945 0.0
H354 H 0.39659 0.29092 0.67564 0.0
H355 H 0.41341 0.25488 0.65179 0.0
H356 H 0.35606 0.16629 0.64615 0.0
H357 H 0.41125 0.07568 0.5617 0.0
H358 H 0.38645 0.10811 0.57998 0.0
H359 H 0.43563 0.2012 0.58171 0.0
C360 C 0.39173 0.25094 0.65333 0.0
C361 C 0.37321 0.1741 0.63182 0.0
C362 C 0.38207 0.27149 0.66732 0.0
C363 C 0.42255 0.09673 0.5701 0.0
C364 C 0.40837 0.11531 0.58055 0.0
C365 C 0.4183 0.19322 0.59579 0.0
C366 C 0.37372 0.22552 0.64179 0.0
C367 C 0.3844 0.20387 0.62683 0.0
C368 C 0.42242 0.14317 0.59093 0.0
C369 C 0.40798 0.16359 0.60178 0.0
H370 H 0.31436 0.23792 0.66047 0.0
H371 H 0.3313 0.20189 0.63596 0.0
H372 H 0.41549 0.23572 0.60332 0.0
H373 H 0.48683 0.1409 0.58112 0.0
H374 H 0.4624 0.17266 0.59947 0.0
C375 C 0.8296 0.33124 0.73727 0.0
C376 C 0.80662 0.32131 0.71989 0.0
C377 C 0.85345 0.3507 0.72656 0.0
C378 C 0.90324 0.37781 0.68413 0.0
H379 H 0.89429 0.44946 0.65752 0.0
C380 C 0.97005 0.45268 0.59921 0.0
C381 C 0.97558 0.48266 0.6031 0.0
C382 C 0.95407 0.4335 0.61901 0.0
C383 C 0.89727 0.42978 0.66524 0.0
H384 H 0.79044 0.32387 0.67793 0.0
H385 H 0.83186 0.35826 0.65953 0.0
H386 H 0.85654 0.41411 0.68103 0.0
H387 H 0.97036 0.51599 0.63199 0.0
H388 H 0.94222 0.48244 0.66622 0.0
H389 H 0.94364 0.39297 0.66692 0.0
C390 C 0.83152 0.35065 0.68118 0.0
C391 C 0.87564 0.40955 0.67851 0.0
C392 C 0.80796 0.3309 0.69165 0.0
C393 C 0.96634 0.49304 0.62817 0.0
C394 C 0.95018 0.47387 0.64779 0.0
C395 C 0.92484 0.39793 0.67036 0.0
C396 C 0.85433 0.3609 0.6986 0.0
C397 C 0.87832 0.38326 0.68763 0.0
C398 C 0.94318 0.44395 0.64292 0.0
C399 C 0.92188 0.42394 0.66048 0.0
H400 H 0.82898 0.32414 0.75912 0.0
H401 H 0.87088 0.35848 0.74031 0.0
H402 H 0.9056 0.35755 0.69096 0.0
H403 H 0.97705 0.44398 0.58025 0.0
H404 H 0.94886 0.41052 0.61467 0.0
C405 C 0.66758 0.75823 0.59392 0.0
C406 C 0.6958 0.76413 0.59184 0.0
C407 C 0.65507 0.77705 0.58213 0.0
C408 C 0.66835 0.85262 0.56848 0.0
H409 H 0.60314 0.82931 0.52294 0.0
C410 C 0.61646 0.93597 0.53879 0.0
C411 C 0.58812 0.92738 0.54095 0.0
C412 C 0.63031 0.91551 0.53875 0.0
C413 C 0.6212 0.83613 0.53587 0.0
H414 H 0.73296 0.79357 0.57517 0.0
H415 H 0.71112 0.82701 0.55523 0.0
H416 H 0.62585 0.79374 0.53501 0.0
H417 H 0.55185 0.89067 0.54329 0.0
H418 H 0.57604 0.85484 0.54486 0.0
H419 H 0.66319 0.89436 0.57107 0.0
C420 C 0.69874 0.80775 0.56579 0.0
C421 C 0.63424 0.8158 0.54259 0.0
C422 C 0.71119 0.78869 0.57717 0.0
C423 C 0.57376 0.89785 0.5419 0.0
C424 C 0.58766 0.87733 0.54248 0.0
C425 C 0.65513 0.87276 0.56223 0.0
C426 C 0.67061 0.80224 0.56844 0.0
C427 C 0.6578 0.82387 0.55917 0.0
C428 C 0.61618 0.88598 0.54161 0.0
C429 C 0.63122 0.86478 0.54607 0.0
H430 H 0.65519 0.73927 0.6049 0.0
H431 H 0.63338 0.77248 0.58466 0.0
H432 H 0.68627 0.85928 0.58165 0.0
H433 H 0.62802 0.95859 0.53721 0.0
H434 H 0.65218 0.92296 0.53703 0.0
C435 C 0.34792 0.25405 0.43221 0.0
C436 C 0.35272 0.25774 0.40272 0.0
C437 C 0.36065 0.23766 0.44777 0.0
C438 C 0.41853 0.20844 0.44506 0.0
H439 H 0.37404 0.14826 0.4937 0.0
C440 C 0.46176 0.12513 0.49491 0.0
C441 C 0.44603 0.09648 0.48931 0.0
C442 C 0.45086 0.1478 0.49139 0.0
C443 C 0.38676 0.16512 0.48036 0.0
H444 H 0.37463 0.24765 0.36644 0.0
H445 H 0.39681 0.219 0.3935 0.0
H446 H 0.3546 0.18305 0.47269 0.0
H447 H 0.40605 0.06899 0.47743 0.0
H448 H 0.38723 0.10847 0.47088 0.0
H449 H 0.45028 0.18976 0.45151 0.0
C450 C 0.38348 0.22895 0.4047 0.0
C451 C 0.3757 0.18515 0.46852 0.0
C452 C 0.37065 0.24513 0.38916 0.0
C453 C 0.41881 0.09084 0.48161 0.0
C454 C 0.40791 0.11347 0.47817 0.0
C455 C 0.4296 0.18852 0.45697 0.0
C456 C 0.37855 0.22494 0.43414 0.0
C457 C 0.39126 0.20644 0.45004 0.0
C458 C 0.42401 0.14223 0.48229 0.0
C459 C 0.41359 0.16613 0.47403 0.0
H460 H 0.3342 0.26357 0.44326 0.0
H461 H 0.35657 0.235 0.47046 0.0
H462 H 0.4311 0.2249 0.43122 0.0
H463 H 0.48273 0.13015 0.5012 0.0
H464 H 0.46364 0.16975 0.49506 0.0
C465 C 0.7623 0.38289 0.34788 0.0
C466 C 0.75824 0.35571 0.33493 0.0
C467 C 0.78599 0.39613 0.36314 0.0
C468 C 0.8437 0.37894 0.39814 0.0
H469 H 0.87054 0.46221 0.40692 0.0
C470 C 0.94323 0.44758 0.45729 0.0
C471 C 0.93708 0.46334 0.48048 0.0
C472 C 0.92304 0.43324 0.43781 0.0
C473 C 0.86331 0.43892 0.40446 0.0
H474 H 0.77611 0.32154 0.32669 0.0
H475 H 0.81808 0.34518 0.35191 0.0
H476 H 0.83321 0.44062 0.37447 0.0
H477 H 0.90447 0.47512 0.50193 0.0
H478 H 0.86993 0.45123 0.46743 0.0
H479 H 0.87457 0.37773 0.42785 0.0
C480 C 0.80267 0.35596 0.35139 0.0
C481 C 0.8417 0.42644 0.38611 0.0
C482 C 0.77873 0.34248 0.33664 0.0
C483 C 0.91018 0.46368 0.48413 0.0
C484 C 0.8903 0.44998 0.46441 0.0
C485 C 0.86573 0.39152 0.41603 0.0
C486 C 0.80649 0.38277 0.36538 0.0
C487 C 0.83113 0.3962 0.3831 0.0
C488 C 0.89657 0.4349 0.44095 0.0
C489 C 0.87536 0.42157 0.41972 0.0
H490 H 0.74664 0.39335 0.3472 0.0
H491 H 0.78769 0.41642 0.37398 0.0
H492 H 0.83604 0.35562 0.39695 0.0
H493 H 0.96368 0.44676 0.4539 0.0
H494 H 0.92825 0.42158 0.41987 0.0
C495 C 0.69247 0.77671 0.37484 0.0
C496 C 0.67413 0.75103 0.36417 0.0
C497 C 0.68309 0.79759 0.3888 0.0
C498 C 0.62368 0.80598 0.42792 0.0
H499 H 0.65144 0.88682 0.40788 0.0
C500 C 0.5647 0.88496 0.45521 0.0
C501 C 0.57851 0.91332 0.46414 0.0
C502 C 0.57881 0.86645 0.44525 0.0
C503 C 0.64379 0.86442 0.4141 0.0
H504 H 0.63157 0.72705 0.36019 0.0
H505 H 0.61525 0.76334 0.38446 0.0
H506 H 0.67156 0.85193 0.3862 0.0
H507 H 0.61824 0.94442 0.4696 0.0
H508 H 0.64313 0.91183 0.45206 0.0
H509 H 0.59589 0.81822 0.45568 0.0
C510 C 0.63689 0.76737 0.38207 0.0
C511 C 0.65527 0.84442 0.40161 0.0
C512 C 0.64623 0.7467 0.36788 0.0
C513 C 0.60697 0.9228 0.46262 0.0
C514 C 0.62121 0.90412 0.4526 0.0
C515 C 0.61236 0.82592 0.4405 0.0
C516 C 0.65517 0.79305 0.39276 0.0
C517 C 0.64488 0.81485 0.40787 0.0
C518 C 0.60724 0.87562 0.44398 0.0
C519 C 0.62174 0.85528 0.43319 0.0
H520 H 0.71408 0.78074 0.3722 0.0
H521 H 0.69769 0.81709 0.39688 0.0
H522 H 0.61562 0.78348 0.43371 0.0
H523 H 0.54279 0.87685 0.45594 0.0
H524 H 0.5673 0.84493 0.43824 0.0
C525 C 0.2274 0.68478 0.34814 0.0
C526 C 0.22629 0.69652 0.32118 0.0
C527 C 0.20417 0.66601 0.36044 0.0
C528 C 0.13062 0.64359 0.36208 0.0
H529 H 0.13753 0.57103 0.38855 0.0
C530 C 0.05903 0.56741 0.44335 0.0
C531 C 0.05319 0.5375 0.4386 0.0
C532 C 0.07645 0.58704 0.4249 0.0
C533 C 0.13517 0.59104 0.38098 0.0
H534 H 0.19996 0.69867 0.28632 0.0
H535 H 0.15896 0.66601 0.30825 0.0
H536 H 0.17597 0.60562 0.36534 0.0
H537 H 0.05944 0.50487 0.40946 0.0
H538 H 0.08994 0.53916 0.37754 0.0
H539 H 0.08993 0.62917 0.37859 0.0
C540 C 0.17792 0.67131 0.31965 0.0
C541 C 0.15724 0.61092 0.36796 0.0
C542 C 0.20131 0.6898 0.3071 0.0
C543 C 0.06364 0.52773 0.41394 0.0
C544 C 0.08121 0.54734 0.39567 0.0
C545 C 0.10857 0.6238 0.37556 0.0
C546 C 0.1793 0.65886 0.34619 0.0
C547 C 0.15527 0.63747 0.35865 0.0
C548 C 0.08846 0.57712 0.40149 0.0
C549 C 0.11073 0.5974 0.38524 0.0
H550 H 0.24643 0.68936 0.35932 0.0
H551 H 0.20568 0.65683 0.38104 0.0
H552 H 0.12868 0.66398 0.3551 0.0
H553 H 0.05118 0.57568 0.46203 0.0
H554 H 0.08178 0.6099 0.42992 0.0
C555 C 0.34392 0.7728 0.69891 0.0
C556 C 0.35538 0.75026 0.70129 0.0
C557 C 0.35911 0.79948 0.6879 0.0
C558 C 0.43009 0.84324 0.66988 0.0
H559 H 0.39409 0.8845 0.62236 0.0
C560 C 0.4906 0.95035 0.61814 0.0
C561 C 0.48421 0.95437 0.58978 0.0
C562 C 0.47333 0.92837 0.6345 0.0
C563 C 0.40456 0.87321 0.6354 0.0
H564 H 0.39155 0.73775 0.69376 0.0
H565 H 0.41781 0.7838 0.67363 0.0
H566 H 0.36784 0.83977 0.64454 0.0
H567 H 0.45413 0.93909 0.5567 0.0
H568 H 0.42457 0.90035 0.58472 0.0
H569 H 0.46704 0.87562 0.65932 0.0
C570 C 0.3974 0.7814 0.68109 0.0
C571 C 0.38938 0.84767 0.64854 0.0
C572 C 0.38233 0.7549 0.69249 0.0
C573 C 0.45958 0.93677 0.57857 0.0
C574 C 0.44253 0.91451 0.59476 0.0
C575 C 0.44531 0.86854 0.65643 0.0
C576 C 0.38602 0.8041 0.67859 0.0
C577 C 0.40197 0.83214 0.66574 0.0
C578 C 0.44945 0.90955 0.62275 0.0
C579 C 0.43282 0.88378 0.63877 0.0
H580 H 0.32324 0.76986 0.70581 0.0
H581 H 0.34975 0.8165 0.68686 0.0
H582 H 0.44051 0.83228 0.68337 0.0
H583 H 0.50934 0.96371 0.62746 0.0
H584 H 0.47905 0.92578 0.65619 0.0
C585 C 0.25781 0.35949 0.64829 0.0
C586 C 0.25475 0.33019 0.64282 0.0
C587 C 0.23873 0.37206 0.63837 0.0
C588 C 0.18234 0.36131 0.5865 0.0
H589 H 0.16538 0.41963 0.63395 0.0
C590 C 0.09658 0.41174 0.56078 0.0
C591 C 0.10414 0.44201 0.56301 0.0
C592 C 0.11387 0.39669 0.57054 0.0
C593 C 0.16998 0.40346 0.62039 0.0
H594 H 0.22946 0.29115 0.62253 0.0
H595 H 0.19574 0.31283 0.60578 0.0
H596 H 0.19749 0.39615 0.65074 0.0
H597 H 0.13567 0.48018 0.57732 0.0
H598 H 0.16539 0.45403 0.59475 0.0
H599 H 0.15441 0.36862 0.5563 0.0
C600 C 0.21309 0.32631 0.61729 0.0
C601 C 0.18854 0.39007 0.62994 0.0
C602 C 0.23233 0.3138 0.62703 0.0
C603 C 0.12916 0.45685 0.5754 0.0
C604 C 0.14618 0.44185 0.5855 0.0
C605 C 0.16354 0.37457 0.57705 0.0
C606 C 0.21595 0.35562 0.62293 0.0
C607 C 0.19529 0.36905 0.61301 0.0
C608 C 0.13883 0.41162 0.58314 0.0
C609 C 0.1574 0.39606 0.59376 0.0
H610 H 0.27501 0.37284 0.66013 0.0
H611 H 0.24204 0.39482 0.64264 0.0
H612 H 0.1872 0.3455 0.57267 0.0
H613 H 0.07758 0.39974 0.55099 0.0
H614 H 0.10764 0.37338 0.56847 0.0
C615 C 0.70149 0.21641 0.7154 0.0
C616 C 0.72165 0.2402 0.7041 0.0
C617 C 0.68425 0.19591 0.69734 0.0
C618 C 0.65896 0.18774 0.62294 0.0
H619 H 0.62874 0.10743 0.64381 0.0
C620 C 0.56695 0.11235 0.56494 0.0
C621 C 0.56502 0.08309 0.56116 0.0
C622 C 0.58751 0.13057 0.58149 0.0
C623 C 0.63726 0.12968 0.6374 0.0
H624 H 0.73957 0.26057 0.66459 0.0
H625 H 0.71082 0.22417 0.63342 0.0
H626 H 0.66285 0.14004 0.67399 0.0
H627 H 0.58354 0.0501 0.5713 0.0
H628 H 0.62007 0.08217 0.59948 0.0
H629 H 0.63418 0.17728 0.5859 0.0
C630 C 0.70773 0.22171 0.65624 0.0
C631 C 0.65656 0.14853 0.65499 0.0
C632 C 0.72464 0.2424 0.67425 0.0
C633 C 0.58441 0.07253 0.57394 0.0
C634 C 0.60524 0.09089 0.59025 0.0
C635 C 0.63998 0.16886 0.60521 0.0
C636 C 0.68694 0.19849 0.66749 0.0
C637 C 0.66744 0.1779 0.64815 0.0
C638 C 0.60695 0.12012 0.59438 0.0
C639 C 0.62854 0.13968 0.6124 0.0
H640 H 0.69879 0.21373 0.73825 0.0
H641 H 0.66834 0.17852 0.70686 0.0
H642 H 0.66651 0.21024 0.61708 0.0
H643 H 0.55221 0.12115 0.5556 0.0
H644 H 0.58776 0.15275 0.58463 0.0
C645 C 0.78061 0.68325 0.61375 0.0
C646 C 0.75642 0.66349 0.62354 0.0
C647 C 0.80135 0.67349 0.60241 0.0
C648 C 0.82546 0.60952 0.6045 0.0
H649 H 0.87487 0.64889 0.54478 0.0
C650 C 0.90743 0.56447 0.55917 0.0
C651 C 0.93388 0.58373 0.55962 0.0
C652 C 0.8852 0.57453 0.56328 0.0
C653 C 0.86122 0.63781 0.56153 0.0
H654 H 0.73416 0.61816 0.62769 0.0
H655 H 0.76991 0.60097 0.60709 0.0
H656 H 0.83615 0.66537 0.55815 0.0
H657 H 0.95774 0.62879 0.56337 0.0
H658 H 0.9186 0.64642 0.57064 0.0
H659 H 0.85034 0.58189 0.60773 0.0
C660 C 0.77336 0.62403 0.609 0.0
C661 C 0.83911 0.64723 0.56925 0.0
C662 C 0.75282 0.63381 0.62068 0.0
C663 C 0.9376 0.61342 0.56326 0.0
C664 C 0.91525 0.62353 0.56714 0.0
C665 C 0.84728 0.59996 0.59657 0.0
C666 C 0.79815 0.64374 0.60036 0.0
C667 C 0.82103 0.63325 0.59096 0.0
C668 C 0.88891 0.60406 0.56775 0.0
C669 C 0.86542 0.61406 0.57514 0.0
H670 H 0.78389 0.70628 0.61591 0.0
H671 H 0.82023 0.68929 0.59629 0.0
H672 H 0.81243 0.59866 0.62177 0.0
H673 H 0.90385 0.54148 0.55617 0.0
H674 H 0.86507 0.55913 0.56336 0.0
C675 C 0.2996 0.35621 0.29615 0.0
C676 C 0.31726 0.35115 0.31654 0.0
C677 C 0.30962 0.36946 0.2703 0.0
C678 C 0.37381 0.41367 0.23621 0.0
H679 H 0.33385 0.3905 0.166 0.0
C680 C 0.41708 0.46865 0.13166 0.0
C681 C 0.41459 0.45089 0.10729 0.0
C682 C 0.40179 0.45855 0.15617 0.0
C683 C 0.34539 0.39711 0.18537 0.0
H684 H 0.35947 0.35633 0.32552 0.0
H685 H 0.37663 0.3777 0.28014 0.0
H686 H 0.31486 0.36767 0.21062 0.0
H687 H 0.39335 0.40892 0.08913 0.0
H688 H 0.36762 0.39071 0.13229 0.0
H689 H 0.40507 0.4417 0.21102 0.0
C690 C 0.35508 0.37221 0.28431 0.0
C691 C 0.3343 0.38427 0.21108 0.0
C692 C 0.34513 0.35938 0.31024 0.0
C693 C 0.39564 0.42319 0.10754 0.0
C694 C 0.38075 0.41281 0.13233 0.0
C695 C 0.38504 0.42614 0.21055 0.0
C696 C 0.33754 0.37773 0.26409 0.0
C697 C 0.34853 0.39218 0.2368 0.0
C698 C 0.38415 0.43012 0.15722 0.0
C699 C 0.3711 0.41795 0.1847 0.0
H700 H 0.27797 0.34986 0.30009 0.0
H701 H 0.2955 0.37357 0.2554 0.0
H702 H 0.38516 0.42083 0.25561 0.0
H703 H 0.43138 0.49014 0.13214 0.0
H704 H 0.40439 0.47288 0.17455 0.0
C705 C 0.36526 0.63878 0.81291 0.0
C706 C 0.38237 0.66126 0.7967 0.0
C707 C 0.37541 0.62801 0.83647 0.0
C708 C 0.43107 0.64787 0.88854 0.0
H709 H 0.41995 0.56566 0.89445 0.0
C710 C 0.50194 0.6027 0.95314 0.0
C711 C 0.49182 0.57579 0.96648 0.0
C712 C 0.48521 0.61339 0.93634 0.0
C713 C 0.42284 0.58863 0.89354 0.0
H714 H 0.42324 0.69016 0.79241 0.0
H715 H 0.44078 0.67177 0.83354 0.0
H716 H 0.39654 0.58353 0.85753 0.0
H717 H 0.45566 0.53959 0.97343 0.0
H718 H 0.42631 0.55855 0.94442 0.0
H719 H 0.45749 0.65319 0.92424 0.0
C720 C 0.4196 0.66246 0.82823 0.0
C721 C 0.40945 0.59885 0.8723 0.0
C722 C 0.4096 0.67287 0.80458 0.0
C723 C 0.46417 0.56041 0.96352 0.0
C724 C 0.44738 0.57115 0.94664 0.0
C725 C 0.44425 0.63768 0.90987 0.0
C726 C 0.40268 0.63989 0.84445 0.0
C727 C 0.414 0.62864 0.86911 0.0
C728 C 0.45781 0.59756 0.9324 0.0
C729 C 0.44092 0.60799 0.91219 0.0
H730 H 0.34418 0.62935 0.80727 0.0
H731 H 0.3619 0.61062 0.8486 0.0
H732 H 0.4346 0.67092 0.88693 0.0
H733 H 0.5231 0.61519 0.95486 0.0
H734 H 0.49414 0.63359 0.92545 0.0
C735 C 0.37052 0.37089 0.75138 0.0
C736 C 0.36213 0.3406 0.74931 0.0
C737 C 0.38298 0.38506 0.77612 0.0
C738 C 0.41792 0.37406 0.84222 0.0
H739 H 0.4061 0.44629 0.86501 0.0
C740 C 0.46393 0.4381 0.94534 0.0
C741 C 0.47834 0.4672 0.94039 0.0
C742 C 0.44712 0.42135 0.92413 0.0
C743 C 0.40958 0.42613 0.85892 0.0
H744 H 0.3601 0.30142 0.77174 0.0
H745 H 0.38125 0.32603 0.81525 0.0
H746 H 0.3821 0.41934 0.82405 0.0
H747 H 0.48545 0.5019 0.90999 0.0
H748 H 0.45574 0.47302 0.8735 0.0
H749 H 0.44529 0.38098 0.87747 0.0
C750 C 0.37878 0.33897 0.79752 0.0
C751 C 0.39598 0.41072 0.83527 0.0
C752 C 0.36657 0.3248 0.77259 0.0
C753 C 0.47469 0.4795 0.9144 0.0
C754 C 0.45757 0.46299 0.89353 0.0
C755 C 0.43127 0.38934 0.86613 0.0
C756 C 0.38713 0.36935 0.79969 0.0
C757 C 0.40032 0.38472 0.82617 0.0
C758 C 0.44397 0.43359 0.89788 0.0
C759 C 0.42762 0.4158 0.87444 0.0
H760 H 0.36778 0.38371 0.73365 0.0
H761 H 0.38969 0.40843 0.77652 0.0
H762 H 0.42212 0.35437 0.83581 0.0
H763 H 0.46645 0.42801 0.96511 0.0
H764 H 0.43676 0.39878 0.92814 0.0
C765 C 0.73844 0.36215 0.84595 0.0
C766 C 0.72645 0.34343 0.82343 0.0
C767 C 0.72413 0.3785 0.86023 0.0
C768 C 0.65422 0.38231 0.87159 0.0
H769 H 0.69062 0.46165 0.89423 0.0
C770 C 0.59512 0.46035 0.90235 0.0
C771 C 0.60203 0.47568 0.92825 0.0
C772 C 0.61177 0.44543 0.89038 0.0
C773 C 0.68029 0.43945 0.88823 0.0
H774 H 0.69024 0.32739 0.79783 0.0
H775 H 0.66563 0.35621 0.82209 0.0
H776 H 0.71669 0.4326 0.87205 0.0
H777 H 0.63254 0.48851 0.96119 0.0
H778 H 0.66192 0.46252 0.93991 0.0
H779 H 0.61776 0.3894 0.88706 0.0
C780 C 0.68577 0.35784 0.8294 0.0
C781 C 0.69519 0.42275 0.87562 0.0
C782 C 0.69996 0.34137 0.81534 0.0
C783 C 0.6266 0.47678 0.94129 0.0
C784 C 0.64345 0.462 0.9291 0.0
C785 C 0.63936 0.39905 0.88387 0.0
C786 C 0.69761 0.37656 0.85208 0.0
C787 C 0.68225 0.39405 0.86686 0.0
C788 C 0.63583 0.44567 0.90387 0.0
C789 C 0.65216 0.42786 0.89202 0.0
H790 H 0.75888 0.36412 0.85254 0.0
H791 H 0.73378 0.39244 0.87779 0.0
H792 H 0.64367 0.36011 0.8658 0.0
H793 H 0.57645 0.45919 0.8916 0.0
H794 H 0.60564 0.43339 0.87066 0.0
C795 C 0.69745 0.68113 0.73075 0.0
C796 C 0.69618 0.66194 0.70775 0.0
C797 C 0.68932 0.67068 0.7581 0.0
C798 C 0.67361 0.60342 0.80119 0.0
H799 H 0.63791 0.64508 0.85112 0.0
C800 C 0.6065 0.55491 0.8987 0.0
C801 C 0.61038 0.57164 0.92394 0.0
C802 C 0.62069 0.56594 0.87378 0.0
C803 C 0.64817 0.63343 0.83752 0.0
H804 H 0.68493 0.61691 0.69497 0.0
H805 H 0.66953 0.59853 0.7423 0.0
H806 H 0.65405 0.66434 0.80432 0.0
H807 H 0.63287 0.61276 0.94305 0.0
H808 H 0.65719 0.63232 0.89915 0.0
H809 H 0.66631 0.57178 0.83414 0.0
C810 C 0.6777 0.62165 0.73967 0.0
C811 C 0.65752 0.64448 0.81068 0.0
C812 C 0.68628 0.63213 0.71245 0.0
C813 C 0.62949 0.59929 0.92398 0.0
C814 C 0.64329 0.61056 0.89887 0.0
C815 C 0.66382 0.59214 0.82784 0.0
C816 C 0.67928 0.64077 0.76295 0.0
C817 C 0.67021 0.62953 0.79202 0.0
C818 C 0.63867 0.59414 0.87346 0.0
C819 C 0.6509 0.60698 0.84617 0.0
H820 H 0.70536 0.70424 0.72769 0.0
H821 H 0.69133 0.68611 0.77548 0.0
H822 H 0.68382 0.59158 0.78779 0.0
H823 H 0.5919 0.53357 0.89791 0.0
H824 H 0.61665 0.55292 0.85442 0.0
C825 C 0.65677 0.64644 0.2841 0.0
C826 C 0.66519 0.67677 0.28579 0.0
C827 C 0.64348 0.63196 0.25989 0.0
C828 C 0.63287 0.64007 0.18327 0.0
H829 H 0.56854 0.57495 0.19489 0.0
C830 C 0.56248 0.58112 0.09022 0.0
C831 C 0.54896 0.55152 0.09334 0.0
C832 C 0.57842 0.59703 0.11248 0.0
C833 C 0.58673 0.59274 0.19111 0.0
H834 H 0.66658 0.71566 0.26309 0.0
H835 H 0.64341 0.69027 0.22059 0.0
H836 H 0.59258 0.60133 0.2359 0.0
H837 H 0.54315 0.51493 0.12112 0.0
H838 H 0.57167 0.54209 0.15911 0.0
H839 H 0.62724 0.63115 0.13841 0.0
C840 C 0.64713 0.67776 0.2381 0.0
C841 C 0.60045 0.60798 0.21474 0.0
C842 C 0.66018 0.69228 0.26252 0.0
C843 C 0.553 0.53783 0.1183 0.0
C844 C 0.56918 0.55352 0.14022 0.0
C845 C 0.61926 0.62458 0.15953 0.0
C846 C 0.63846 0.64741 0.23659 0.0
C847 C 0.62375 0.63173 0.21116 0.0
C848 C 0.58141 0.58354 0.13812 0.0
C849 C 0.59607 0.60054 0.16313 0.0
H850 H 0.66013 0.63385 0.30173 0.0
H851 H 0.63725 0.60858 0.25932 0.0
H852 H 0.65088 0.65818 0.17982 0.0
H853 H 0.5596 0.59224 0.07126 0.0
H854 H 0.58741 0.62008 0.11002 0.0
C855 C 0.31052 0.67323 0.20396 0.0
C856 C 0.32498 0.70271 0.2069 0.0
C857 C 0.32168 0.6546 0.18874 0.0
C858 C 0.38794 0.64802 0.16719 0.0
H859 H 0.34542 0.58392 0.12061 0.0
C860 C 0.4082 0.5564 0.0865 0.0
C861 C 0.42751 0.54887 0.10281 0.0
C862 C 0.39363 0.57383 0.09834 0.0
C863 C 0.35758 0.60182 0.13341 0.0
H864 H 0.36185 0.73602 0.19538 0.0
H865 H 0.3813 0.70356 0.16845 0.0
H866 H 0.32429 0.61853 0.14091 0.0
H867 H 0.4453 0.55197 0.14486 0.0
H868 H 0.41968 0.58179 0.16551 0.0
H869 H 0.42126 0.63169 0.15952 0.0
C870 C 0.36153 0.69474 0.17828 0.0
C871 C 0.34544 0.62151 0.14522 0.0
C872 C 0.35035 0.71337 0.19351 0.0
C873 C 0.43087 0.55775 0.13157 0.0
C874 C 0.41629 0.575 0.14338 0.0
C875 C 0.40001 0.62839 0.15546 0.0
C876 C 0.34753 0.66503 0.17615 0.0
C877 C 0.36048 0.64477 0.16235 0.0
C878 C 0.39807 0.58394 0.12671 0.0
C879 C 0.38496 0.60491 0.13864 0.0
H880 H 0.29087 0.66431 0.21402 0.0
H881 H 0.31047 0.63182 0.18777 0.0
H882 H 0.40004 0.66545 0.18056 0.0
H883 H 0.40517 0.54989 0.06427 0.0
H884 H 0.37976 0.58039 0.08492 0.0
C885 C 0.66076 0.38052 0.22216 0.0
C886 C 0.6517 0.35052 0.22635 0.0
C887 C 0.64787 0.39321 0.20239 0.0
C888 C 0.58255 0.38066 0.16642 0.0
H889 H 0.62272 0.43568 0.11059 0.0
C890 C 0.52677 0.41608 0.07601 0.0
C891 C 0.53545 0.44526 0.06823 0.0
C892 C 0.54259 0.40501 0.09372 0.0
C893 C 0.61116 0.42062 0.12624 0.0
H894 H 0.62232 0.31035 0.21316 0.0
H895 H 0.59972 0.33239 0.1791 0.0
H896 H 0.6471 0.41652 0.14564 0.0
H897 H 0.56799 0.48555 0.07234 0.0
H898 H 0.59535 0.46642 0.10378 0.0
H899 H 0.54668 0.38494 0.14775 0.0
C900 C 0.61665 0.34617 0.19102 0.0
C901 C 0.62517 0.40964 0.14631 0.0
C902 C 0.62966 0.33353 0.21044 0.0
C903 C 0.56085 0.46287 0.07768 0.0
C904 C 0.57655 0.45186 0.09576 0.0
C905 C 0.56858 0.39178 0.14662 0.0
C906 C 0.6255 0.37615 0.18679 0.0
C907 C 0.61098 0.38926 0.1664 0.0
C908 C 0.56733 0.42291 0.10458 0.0
C909 C 0.58263 0.41163 0.12596 0.0
H910 H 0.67776 0.39416 0.23408 0.0
H911 H 0.65506 0.41638 0.19968 0.0
H912 H 0.57102 0.36538 0.18194 0.0
H913 H 0.5074 0.40189 0.06893 0.0
H914 H 0.53511 0.38242 0.0993 0.0
loop_
_geom_bond_atom_site_label_1
_geom_bond_atom_site_label_2
_geom_bond_distance
_geom_bond_site_symmetry_2
_ccdc_geom_bond_type
H0 C5 0.930 . S
H1 C8 0.930 . S
H2 C10 0.930 . S
H3 C4 1.016 . S
C4 H3 1.016 . S
C4 N11 1.286 . S
C5 H0 0.930 . S
C5 C6 1.397 . S
C5 C7 1.361 . S
C6 C5 1.397 . S
C6 C10 1.390 . S
C7 C5 1.361 . S
C7 C8 1.393 . S
C7 N11 1.413 . S
C8 H1 0.930 . S
C8 C7 1.393 . S
C8 C9 1.399 . S
C9 C8 1.399 . S
C9 C10 1.381 . S
C10 H2 0.930 . S
C10 C6 1.390 . S
C10 C9 1.381 . S
N11 C4 1.286 . S
N11 C7 1.413 . S
H12 C17 0.930 . S
H13 C20 0.930 . S
H14 C22 0.930 . S
H15 C16 1.016 . S
C16 H15 1.016 . S
C16 N23 1.286 . S
C17 H12 0.930 . S
C17 C18 1.397 . S
C17 C19 1.361 . S
C18 C17 1.397 . S
C18 C22 1.390 . S
C19 C17 1.361 . S
C19 C20 1.393 . S
C19 N23 1.413 . S
C20 H13 0.930 . S
C20 C19 1.393 . S
C20 C21 1.399 . S
C21 C20 1.399 . S
C21 C22 1.381 . S
C22 H14 0.930 . S
C22 C18 1.390 . S
C22 C21 1.381 . S
N23 C16 1.286 . S
N23 C19 1.413 . S
H24 C29 0.930 . S
H25 C32 0.930 . S
H26 C34 0.930 . S
H27 C28 1.016 . S
C28 H27 1.016 . S
C28 N35 1.286 . S
C29 H24 0.930 . S
C29 C30 1.397 . S
C29 C31 1.361 . S
C30 C29 1.397 . S
C30 C34 1.390 . S
C31 C29 1.361 . S
C31 C32 1.393 . S
C31 N35 1.413 . S
C32 H25 0.930 . S
C32 C31 1.393 . S
C32 C33 1.399 . S
C33 C32 1.399 . S
C33 C34 1.381 . S
C34 H26 0.930 . S
C34 C30 1.390 . S
C34 C33 1.381 . S
N35 C28 1.286 . S
N35 C31 1.413 . S
H36 C41 0.930 . S
H37 C44 0.930 . S
H38 C46 0.930 . S
H39 C40 1.016 . S
C40 H39 1.016 . S
C40 N47 1.286 . S
C41 H36 0.930 . S
C41 C42 1.397 . S
C41 C43 1.361 . S
C42 C41 1.397 . S
C42 C46 1.390 . S
C43 C41 1.361 . S
C43 C44 1.393 . S
C43 N47 1.413 . S
C44 H37 0.930 . S
C44 C43 1.393 . S
C44 C45 1.399 . S
C45 C44 1.399 . S
C45 C46 1.381 . S
C46 H38 0.930 . S
C46 C42 1.390 . S
C46 C45 1.381 . S
N47 C40 1.286 . S
N47 C43 1.413 . S
H48 C53 0.930 . S
H49 C56 0.930 . S
H50 C58 0.930 . S
H51 C52 1.016 . S
C52 H51 1.016 . S
C52 N59 1.286 . S
C53 H48 0.930 . S
C53 C54 1.397 . S
C53 C55 1.361 . S
C54 C53 1.397 . S
C54 C58 1.390 . S
C55 C53 1.361 . S
C55 C56 1.393 . S
C55 N59 1.413 . S
C56 H49 0.930 . S
C56 C55 1.393 . S
C56 C57 1.399 . S
C57 C56 1.399 . S
C57 C58 1.381 . S
C58 H50 0.930 . S
C58 C54 1.390 . S
C58 C57 1.381 . S
N59 C52 1.286 . S
N59 C55 1.413 . S
H60 C65 0.930 . S
H61 C68 0.930 . S
H62 C70 0.930 . S
H63 C64 1.016 . S
C64 H63 1.016 . S
C64 N71 1.286 . S
C65 H60 0.930 . S
C65 C66 1.397 . S
C65 C67 1.361 . S
C66 C65 1.397 . S
C66 C70 1.390 . S
C67 C65 1.361 . S
C67 C68 1.393 . S
C67 N71 1.413 . S
C68 H61 0.930 . S
C68 C67 1.393 . S
C68 C69 1.399 . S
C69 C68 1.399 . S
C69 C70 1.381 . S
C70 H62 0.930 . S
C70 C66 1.390 . S
C70 C69 1.381 . S
N71 C64 1.286 . S
N71 C67 1.413 . S
H72 C77 0.930 . S
H73 C80 0.930 . S
H74 C82 0.930 . S
H75 C76 1.016 . S
C76 H75 1.016 . S
C76 N83 1.286 . S
C77 H72 0.930 . S
C77 C78 1.397 . S
C77 C79 1.361 . S
C78 C77 1.397 . S
C78 C82 1.390 . S
C79 C77 1.361 . S
C79 C80 1.393 . S
C79 N83 1.413 . S
C80 H73 0.930 . S
C80 C79 1.393 . S
C80 C81 1.399 . S
C81 C80 1.399 . S
C81 C82 1.381 . S
C82 H74 0.930 . S
C82 C78 1.390 . S
C82 C81 1.381 . S
N83 C76 1.286 . S
N83 C79 1.413 . S
H84 C89 0.930 . S
H85 C92 0.930 . S
H86 C94 0.930 . S
H87 C88 1.016 . S
C88 H87 1.016 . S
C88 N95 1.286 . S
C89 H84 0.930 . S
C89 C90 1.397 . S
C89 C91 1.361 . S
C90 C89 1.397 . S
C90 C94 1.390 . S
C91 C89 1.361 . S
C91 C92 1.393 . S
C91 N95 1.413 . S
C92 H85 0.930 . S
C92 C91 1.393 . S
C92 C93 1.399 . S
C93 C92 1.399 . S
C93 C94 1.381 . S
C94 H86 0.930 . S
C94 C90 1.390 . S
C94 C93 1.381 . S
N95 C88 1.286 . S
N95 C91 1.413 . S
Co96 O99 2.042 . S
Co96 O106 2.264 . S
Co96 O125 2.286 . S
Co96 O126 2.069 . S
Co96 O128 2.015 . S
Co97 O99 2.122 . S
Co97 O105 2.073 . S
Co97 O106 2.327 . S
Co97 O107 1.976 . S
Co98 O99 2.087 . S
Co98 O101 2.087 1_455 S
Co98 O108 2.111 . S
Co98 O109 2.143 1_455 S
Co98 O113 2.111 1_455 S
Co98 O127 2.143 . S
O99 Co96 2.042 . S
O99 Co97 2.122 . S
O99 Co98 2.087 . S
O99 H100 0.980 . S
H100 O99 0.980 . S
O101 Co98 2.087 1_655 S
O101 Co102 2.042 . S
O101 Co103 2.122 . S
O101 H104 0.980 1_655 S
Co102 O101 2.042 . S
Co102 O110 2.286 . S
Co102 O111 2.069 . S
Co102 O112 2.015 . S
Co102 O115 2.264 . S
Co103 O101 2.122 . S
Co103 O114 1.976 . S
Co103 O115 2.327 . S
Co103 O116 2.073 . S
H104 O101 0.980 1_455 S
O105 Co97 2.073 . S
O105 C120 1.245 . S
O106 Co96 2.264 . S
O106 Co97 2.327 . S
O106 C120 1.257 . S
O107 Co97 1.976 . S
O107 C119 1.251 . S
O108 Co98 2.111 . S
O108 C119 1.274 . S
O109 Co98 2.143 1_655 S
O109 C122 1.246 . S
O110 Co102 2.286 . S
O110 C121 1.259 . S
O111 Co102 2.069 . S
O111 C121 1.289 . S
O112 Co102 2.015 . S
O112 C122 1.257 . S
O113 Co98 2.111 1_655 S
O113 C123 1.274 . S
O114 Co103 1.976 . S
O114 C123 1.251 . S
O115 Co102 2.264 . S
O115 Co103 2.327 . S
O115 C124 1.257 . S
O116 Co103 2.073 . S
O116 C124 1.245 . S
C117 O125 1.259 . S
C117 O126 1.289 . S
C118 O127 1.246 . S
C118 O128 1.257 . S
C119 O107 1.251 . S
C119 O108 1.274 . S
C120 O105 1.245 . S
C120 O106 1.257 . S
C121 O110 1.259 . S
C121 O111 1.289 . S
C122 O109 1.246 . S
C122 O112 1.257 . S
C123 O113 1.274 . S
C123 O114 1.251 . S
C124 O115 1.257 . S
C124 O116 1.245 . S
O125 Co96 2.286 . S
O125 C117 1.259 . S
O126 Co96 2.069 . S
O126 C117 1.289 . S
O127 Co98 2.143 . S
O127 C118 1.246 . S
O128 Co96 2.015 . S
O128 C118 1.257 . S
Co129 O132 2.042 . S
Co129 O139 2.264 . S
Co129 O158 2.286 . S
Co129 O159 2.069 . S
Co129 O161 2.015 . S
Co130 O132 2.122 . S
Co130 O138 2.073 . S
Co130 O139 2.327 . S
Co130 O140 1.976 . S
Co131 O132 2.087 1_545 S
Co131 O134 2.087 . S
Co131 O141 2.111 1_545 S
Co131 O142 2.143 . S
Co131 O146 2.111 . S
Co131 O160 2.143 1_545 S
O132 Co129 2.042 . S
O132 Co130 2.122 . S
O132 Co131 2.087 1_565 S
O132 H133 0.980 . S
H133 O132 0.980 . S
O134 Co131 2.087 . S
O134 Co135 2.042 . S
O134 Co136 2.122 . S
O134 H137 0.980 . S
Co135 O134 2.042 . S
Co135 O143 2.286 . S
Co135 O144 2.069 . S
Co135 O145 2.015 . S
Co135 O148 2.264 . S
Co136 O134 2.122 . S
Co136 O147 1.976 . S
Co136 O148 2.327 . S
Co136 O149 2.073 . S
H137 O134 0.980 . S
O138 Co130 2.073 . S
O138 C153 1.245 . S
O139 Co129 2.264 . S
O139 Co130 2.327 . S
O139 C153 1.257 . S
O140 Co130 1.976 . S
O140 C152 1.251 . S
O141 Co131 2.111 1_565 S
O141 C152 1.274 . S
O142 Co131 2.143 . S
O142 C155 1.246 . S
O143 Co135 2.286 . S
O143 C154 1.259 . S
O144 Co135 2.069 . S
O144 C154 1.289 . S
O145 Co135 2.015 . S
O145 C155 1.257 . S
O146 Co131 2.111 . S
O146 C156 1.274 . S
O147 Co136 1.976 . S
O147 C156 1.251 . S
O148 Co135 2.264 . S
O148 Co136 2.327 . S
O148 C157 1.257 . S
O149 Co136 2.073 . S
O149 C157 1.245 . S
C150 O158 1.259 . S
C150 O159 1.289 . S
C151 O160 1.246 . S
C151 O161 1.257 . S
C152 O140 1.251 . S
C152 O141 1.274 . S
C153 O138 1.245 . S
C153 O139 1.257 . S
C154 O143 1.259 . S
C154 O144 1.289 . S
C155 O142 1.246 . S
C155 O145 1.257 . S
C156 O146 1.274 . S
C156 O147 1.251 . S
C157 O148 1.257 . S
C157 O149 1.245 . S
O158 Co129 2.286 . S
O158 C150 1.259 . S
O159 Co129 2.069 . S
O159 C150 1.289 . S
O160 Co131 2.143 1_565 S
O160 C151 1.246 . S
O161 Co129 2.015 . S
O161 C151 1.257 . S
Co162 O165 2.042 . S
Co162 O172 2.264 . S
Co162 O191 2.286 . S
Co162 O192 2.069 . S
Co162 O194 2.015 . S
Co163 O165 2.122 . S
Co163 O171 2.073 . S
Co163 O172 2.327 . S
Co163 O173 1.976 . S
Co164 O165 2.087 . S
Co164 O167 2.087 1_554 S
Co164 O174 2.111 . S
Co164 O175 2.143 1_554 S
Co164 O179 2.111 1_554 S
Co164 O193 2.143 . S
O165 Co162 2.042 . S
O165 Co163 2.122 . S
O165 Co164 2.087 . S
O165 H166 0.980 . S
H166 O165 0.980 . S
O167 Co164 2.087 1_556 S
O167 Co168 2.042 . S
O167 Co169 2.122 . S
O167 H170 0.980 . S
Co168 O167 2.042 . S
Co168 O176 2.286 . S
Co168 O177 2.069 . S
Co168 O178 2.015 . S
Co168 O181 2.264 . S
Co169 O167 2.122 . S
Co169 O180 1.976 . S
Co169 O181 2.327 . S
Co169 O182 2.073 . S
H170 O167 0.980 . S
O171 Co163 2.073 . S
O171 C186 1.245 . S
O172 Co162 2.264 . S
O172 Co163 2.327 . S
O172 C186 1.257 . S
O173 Co163 1.976 . S
O173 C185 1.251 . S
O174 Co164 2.111 . S
O174 C185 1.274 . S
O175 Co164 2.143 1_556 S
O175 C188 1.246 . S
O176 Co168 2.286 . S
O176 C187 1.259 . S
O177 Co168 2.069 . S
O177 C187 1.289 . S
O178 Co168 2.015 . S
O178 C188 1.257 . S
O179 Co164 2.111 1_556 S
O179 C189 1.274 . S
O180 Co169 1.976 . S
O180 C189 1.251 . S
O181 Co168 2.264 . S
O181 Co169 2.327 . S
O181 C190 1.257 . S
O182 Co169 2.073 . S
O182 C190 1.245 . S
C183 O191 1.259 . S
C183 O192 1.289 . S
C184 O193 1.246 . S
C184 O194 1.257 . S
C185 O173 1.251 . S
C185 O174 1.274 . S
C186 O171 1.245 . S
C186 O172 1.257 . S
C187 O176 1.259 . S
C187 O177 1.289 . S
C188 O175 1.246 . S
C188 O178 1.257 . S
C189 O179 1.274 . S
C189 O180 1.251 . S
C190 O181 1.257 . S
C190 O182 1.245 . S
O191 Co162 2.286 . S
O191 C183 1.259 . S
O192 Co162 2.069 . S
O192 C183 1.289 . S
O193 Co164 2.143 . S
O193 C184 1.246 . S
O194 Co162 2.015 . S
O194 C184 1.257 . S
C195 C196 1.349 . S
C195 C197 1.327 . S
C195 H220 0.950 . S
C196 C195 1.349 . S
C196 C212 1.349 . S
C197 C195 1.327 . S
C197 C216 1.429 . S
C197 H221 0.950 . S
C198 C215 1.574 . S
C198 C217 1.368 . S
C198 H222 0.949 . S
H199 C203 0.949 . S
C200 C201 1.349 . S
C200 C202 1.327 . S
C200 H223 0.950 . S
C201 C200 1.349 . S
C201 C213 1.349 . S
C202 C200 1.327 . S
C202 C218 1.429 . S
C202 H224 0.950 . S
C203 H199 0.949 . S
C203 C211 1.574 . S
C203 C219 1.368 . S
H204 C212 0.950 . S
H205 C210 0.950 . S
H206 C211 0.949 . S
H207 C213 0.950 . S
H208 C214 0.950 . S
H209 C215 0.949 . S
C210 H205 0.950 . S
C210 C212 1.327 . S
C210 C216 1.429 . S
C211 C203 1.574 . S
C211 H206 0.949 . S
C211 C217 1.368 . S
C212 C196 1.349 . S
C212 H204 0.950 . S
C212 C210 1.327 . S
C213 C201 1.349 . S
C213 H207 0.950 . S
C213 C214 1.327 . S
C214 H208 0.950 . S
C214 C213 1.327 . S
C214 C218 1.429 . S
C215 C198 1.574 . S
C215 H209 0.949 . S
C215 C219 1.368 . S
C216 C197 1.429 . S
C216 C210 1.429 . S
C216 C217 1.523 . S
C217 C198 1.368 . S
C217 C211 1.368 . S
C217 C216 1.523 . S
C218 C202 1.429 . S
C218 C214 1.429 . S
C218 C219 1.523 . S
C219 C203 1.368 . S
C219 C215 1.368 . S
C219 C218 1.523 . S
H220 C195 0.950 . S
H221 C197 0.950 . S
H222 C198 0.949 . S
H223 C200 0.950 . S
H224 C202 0.950 . S
C225 C226 1.349 . S
C225 C227 1.327 . S
C225 H250 0.950 . S
C226 C225 1.349 . S
C226 C242 1.349 . S
C227 C225 1.327 . S
C227 C246 1.429 . S
C227 H251 0.950 . S
C228 C245 1.574 . S
C228 C247 1.368 . S
C228 H252 0.949 . S
H229 C233 0.949 . S
C230 C231 1.349 . S
C230 C232 1.327 . S
C230 H253 0.950 . S
C231 C230 1.349 . S
C231 C243 1.349 . S
C232 C230 1.327 . S
C232 C248 1.429 . S
C232 H254 0.950 . S
C233 H229 0.949 . S
C233 C241 1.574 . S
C233 C249 1.368 . S
H234 C242 0.950 . S
H235 C240 0.950 . S
H236 C241 0.949 . S
H237 C243 0.950 . S
H238 C244 0.950 . S
H239 C245 0.949 . S
C240 H235 0.950 . S
C240 C242 1.327 . S
C240 C246 1.429 . S
C241 C233 1.574 . S
C241 H236 0.949 . S
C241 C247 1.368 . S
C242 C226 1.349 . S
C242 H234 0.950 . S
C242 C240 1.327 . S
C243 C231 1.349 . S
C243 H237 0.950 . S
C243 C244 1.327 . S
C244 H238 0.950 . S
C244 C243 1.327 . S
C244 C248 1.429 . S
C245 C228 1.574 . S
C245 H239 0.949 . S
C245 C249 1.368 . S
C246 C227 1.429 . S
C246 C240 1.429 . S
C246 C247 1.523 . S
C247 C228 1.368 . S
C247 C241 1.368 . S
C247 C246 1.523 . S
C248 C232 1.429 . S
C248 C244 1.429 . S
C248 C249 1.523 . S
C249 C233 1.368 . S
C249 C245 1.368 . S
C249 C248 1.523 . S
H250 C225 0.950 . S
H251 C227 0.950 . S
H252 C228 0.949 . S
H253 C230 0.950 . S
H254 C232 0.950 . S
C255 C256 1.349 . S
C255 C257 1.327 . S
C255 H280 0.950 . S
C256 C255 1.349 . S
C256 C272 1.349 . S
C257 C255 1.327 . S
C257 C276 1.429 . S
C257 H281 0.950 . S
C258 C275 1.574 . S
C258 C277 1.368 . S
C258 H282 0.949 . S
H259 C263 0.949 . S
C260 C261 1.349 . S
C260 C262 1.327 . S
C260 H283 0.950 . S
C261 C260 1.349 . S
C261 C273 1.349 . S
C262 C260 1.327 . S
C262 C278 1.429 . S
C262 H284 0.950 . S
C263 H259 0.949 . S
C263 C271 1.574 . S
C263 C279 1.368 . S
H264 C272 0.950 . S
H265 C270 0.950 . S
H266 C271 0.949 . S
H267 C273 0.950 . S
H268 C274 0.950 . S
H269 C275 0.949 . S
C270 H265 0.950 . S
C270 C272 1.327 . S
C270 C276 1.429 . S
C271 C263 1.574 . S
C271 H266 0.949 . S
C271 C277 1.368 . S
C272 C256 1.349 . S
C272 H264 0.950 . S
C272 C270 1.327 . S
C273 C261 1.349 . S
C273 H267 0.950 . S
C273 C274 1.327 . S
C274 H268 0.950 . S
C274 C273 1.327 . S
C274 C278 1.429 . S
C275 C258 1.574 . S
C275 H269 0.949 . S
C275 C279 1.368 . S
C276 C257 1.429 . S
C276 C270 1.429 . S
C276 C277 1.523 . S
C277 C258 1.368 . S
C277 C271 1.368 . S
C277 C276 1.523 . S
C278 C262 1.429 . S
C278 C274 1.429 . S
C278 C279 1.523 . S
C279 C263 1.368 . S
C279 C275 1.368 . S
C279 C278 1.523 . S
H280 C255 0.950 . S
H281 C257 0.950 . S
H282 C258 0.949 . S
H283 C260 0.950 . S
H284 C262 0.950 . S
C285 C286 1.349 . S
C285 C287 1.327 . S
C285 H310 0.950 . S
C286 C285 1.349 . S
C286 C302 1.349 . S
C287 C285 1.327 . S
C287 C306 1.429 . S
C287 H311 0.950 . S
C288 C305 1.574 . S
C288 C307 1.368 . S
C288 H312 0.949 . S
H289 C293 0.949 . S
C290 C291 1.349 . S
C290 C292 1.327 . S
C290 H313 0.950 . S
C291 C290 1.349 . S
C291 C303 1.349 . S
C292 C290 1.327 . S
C292 C308 1.429 . S
C292 H314 0.950 . S
C293 H289 0.949 . S
C293 C301 1.574 . S
C293 C309 1.368 . S
H294 C302 0.950 . S
H295 C300 0.950 . S
H296 C301 0.949 . S
H297 C303 0.950 . S
H298 C304 0.950 . S
H299 C305 0.949 . S
C300 H295 0.950 . S
C300 C302 1.327 . S
C300 C306 1.429 . S
C301 C293 1.574 . S
C301 H296 0.949 . S
C301 C307 1.368 . S
C302 C286 1.349 . S
C302 H294 0.950 . S
C302 C300 1.327 . S
C303 C291 1.349 . S
C303 H297 0.950 . S
C303 C304 1.327 . S
C304 H298 0.950 . S
C304 C303 1.327 . S
C304 C308 1.429 . S
C305 C288 1.574 . S
C305 H299 0.949 . S
C305 C309 1.368 . S
C306 C287 1.429 . S
C306 C300 1.429 . S
C306 C307 1.523 . S
C307 C288 1.368 . S
C307 C301 1.368 . S
C307 C306 1.523 . S
C308 C292 1.429 . S
C308 C304 1.429 . S
C308 C309 1.523 . S
C309 C293 1.368 . S
C309 C305 1.368 . S
C309 C308 1.523 . S
H310 C285 0.950 . S
H311 C287 0.950 . S
H312 C288 0.949 . S
H313 C290 0.950 . S
H314 C292 0.950 . S
C315 C316 1.349 . S
C315 C317 1.327 . S
C315 H340 0.950 . S
C316 C315 1.349 . S
C316 C332 1.349 . S
C317 C315 1.327 . S
C317 C336 1.429 . S
C317 H341 0.950 . S
C318 C335 1.574 . S
C318 C337 1.368 . S
C318 H342 0.949 . S
H319 C323 0.949 . S
C320 C321 1.349 . S
C320 C322 1.327 . S
C320 H343 0.950 . S
C321 C320 1.349 . S
C321 C333 1.349 . S
C322 C320 1.327 . S
C322 C338 1.429 . S
C322 H344 0.950 . S
C323 H319 0.949 . S
C323 C331 1.574 . S
C323 C339 1.368 . S
H324 C332 0.950 . S
H325 C330 0.950 . S
H326 C331 0.949 . S
H327 C333 0.950 . S
H328 C334 0.950 . S
H329 C335 0.949 . S
C330 H325 0.950 . S
C330 C332 1.327 . S
C330 C336 1.429 . S
C331 C323 1.574 . S
C331 H326 0.949 . S
C331 C337 1.368 . S
C332 C316 1.349 . S
C332 H324 0.950 . S
C332 C330 1.327 . S
C333 C321 1.349 . S
C333 H327 0.950 . S
C333 C334 1.327 . S
C334 H328 0.950 . S
C334 C333 1.327 . S
C334 C338 1.429 . S
C335 C318 1.574 . S
C335 H329 0.949 . S
C335 C339 1.368 . S
C336 C317 1.429 . S
C336 C330 1.429 . S
C336 C337 1.523 . S
C337 C318 1.368 . S
C337 C331 1.368 . S
C337 C336 1.523 . S
C338 C322 1.429 . S
C338 C334 1.429 . S
C338 C339 1.523 . S
C339 C323 1.368 . S
C339 C335 1.368 . S
C339 C338 1.523 . S
H340 C315 0.950 . S
H341 C317 0.950 . S
H342 C318 0.949 . S
H343 C320 0.950 . S
H344 C322 0.950 . S
C345 C346 1.349 . S
C345 C347 1.327 . S
C345 H370 0.950 . S
C346 C345 1.349 . S
C346 C362 1.349 . S
C347 C345 1.327 . S
C347 C366 1.429 . S
C347 H371 0.950 . S
C348 C365 1.574 . S
C348 C367 1.368 . S
C348 H372 0.949 . S
H349 C353 0.949 . S
C350 C351 1.349 . S
C350 C352 1.327 . S
C350 H373 0.950 . S
C351 C350 1.349 . S
C351 C363 1.349 . S
C352 C350 1.327 . S
C352 C368 1.429 . S
C352 H374 0.950 . S
C353 H349 0.949 . S
C353 C361 1.574 . S
C353 C369 1.368 . S
H354 C362 0.950 . S
H355 C360 0.950 . S
H356 C361 0.949 . S
H357 C363 0.950 . S
H358 C364 0.950 . S
H359 C365 0.949 . S
C360 H355 0.950 . S
C360 C362 1.327 . S
C360 C366 1.429 . S
C361 C353 1.574 . S
C361 H356 0.949 . S
C361 C367 1.368 . S
C362 C346 1.349 . S
C362 H354 0.950 . S
C362 C360 1.327 . S
C363 C351 1.349 . S
C363 H357 0.950 . S
C363 C364 1.327 . S
C364 H358 0.950 . S
C364 C363 1.327 . S
C364 C368 1.429 . S
C365 C348 1.574 . S
C365 H359 0.949 . S
C365 C369 1.368 . S
C366 C347 1.429 . S
C366 C360 1.429 . S
C366 C367 1.523 . S
C367 C348 1.368 . S
C367 C361 1.368 . S
C367 C366 1.523 . S
C368 C352 1.429 . S
C368 C364 1.429 . S
C368 C369 1.523 . S
C369 C353 1.368 . S
C369 C365 1.368 . S
C369 C368 1.523 . S
H370 C345 0.950 . S
H371 C347 0.950 . S
H372 C348 0.949 . S
H373 C350 0.950 . S
H374 C352 0.950 . S
C375 C376 1.349 . S
C375 C377 1.327 . S
C375 H400 0.950 . S
C376 C375 1.349 . S
C376 C392 1.349 . S
C377 C375 1.327 . S
C377 C396 1.429 . S
C377 H401 0.950 . S
C378 C395 1.574 . S
C378 C397 1.368 . S
C378 H402 0.949 . S
H379 C383 0.949 . S
C380 C381 1.349 . S
C380 C382 1.327 . S
C380 H403 0.950 . S
C381 C380 1.349 . S
C381 C393 1.349 . S
C382 C380 1.327 . S
C382 C398 1.429 . S
C382 H404 0.950 . S
C383 H379 0.949 . S
C383 C391 1.574 . S
C383 C399 1.368 . S
H384 C392 0.950 . S
H385 C390 0.950 . S
H386 C391 0.949 . S
H387 C393 0.950 . S
H388 C394 0.950 . S
H389 C395 0.949 . S
C390 H385 0.950 . S
C390 C392 1.327 . S
C390 C396 1.429 . S
C391 C383 1.574 . S
C391 H386 0.949 . S
C391 C397 1.368 . S
C392 C376 1.349 . S
C392 H384 0.950 . S
C392 C390 1.327 . S
C393 C381 1.349 . S
C393 H387 0.950 . S
C393 C394 1.327 . S
C394 H388 0.950 . S
C394 C393 1.327 . S
C394 C398 1.429 . S
C395 C378 1.574 . S
C395 H389 0.949 . S
C395 C399 1.368 . S
C396 C377 1.429 . S
C396 C390 1.429 . S
C396 C397 1.523 . S
C397 C378 1.368 . S
C397 C391 1.368 . S
C397 C396 1.523 . S
C398 C382 1.429 . S
C398 C394 1.429 . S
C398 C399 1.523 . S
C399 C383 1.368 . S
C399 C395 1.368 . S
C399 C398 1.523 . S
H400 C375 0.950 . S
H401 C377 0.950 . S
H402 C378 0.949 . S
H403 C380 0.950 . S
H404 C382 0.950 . S
C405 C406 1.349 . S
C405 C407 1.327 . S
C405 H430 0.950 . S
C406 C405 1.349 . S
C406 C422 1.349 . S
C407 C405 1.327 . S
C407 C426 1.429 . S
C407 H431 0.950 . S
C408 C425 1.574 . S
C408 C427 1.368 . S
C408 H432 0.949 . S
H409 C413 0.949 . S
C410 C411 1.349 . S
C410 C412 1.327 . S
C410 H433 0.950 . S
C411 C410 1.349 . S
C411 C423 1.349 . S
C412 C410 1.327 . S
C412 C428 1.429 . S
C412 H434 0.950 . S
C413 H409 0.949 . S
C413 C421 1.574 . S
C413 C429 1.368 . S
H414 C422 0.950 . S
H415 C420 0.950 . S
H416 C421 0.949 . S
H417 C423 0.950 . S
H418 C424 0.950 . S
H419 C425 0.949 . S
C420 H415 0.950 . S
C420 C422 1.327 . S
C420 C426 1.429 . S
C421 C413 1.574 . S
C421 H416 0.949 . S
C421 C427 1.368 . S
C422 C406 1.349 . S
C422 H414 0.950 . S
C422 C420 1.327 . S
C423 C411 1.349 . S
C423 H417 0.950 . S
C423 C424 1.327 . S
C424 H418 0.950 . S
C424 C423 1.327 . S
C424 C428 1.429 . S
C425 C408 1.574 . S
C425 H419 0.949 . S
C425 C429 1.368 . S
C426 C407 1.429 . S
C426 C420 1.429 . S
C426 C427 1.523 . S
C427 C408 1.368 . S
C427 C421 1.368 . S
C427 C426 1.523 . S
C428 C412 1.429 . S
C428 C424 1.429 . S
C428 C429 1.523 . S
C429 C413 1.368 . S
C429 C425 1.368 . S
C429 C428 1.523 . S
H430 C405 0.950 . S
H431 C407 0.950 . S
H432 C408 0.949 . S
H433 C410 0.950 . S
H434 C412 0.950 . S
C435 C436 1.349 . S
C435 C437 1.327 . S
C435 H460 0.950 . S
C436 C435 1.349 . S
C436 C452 1.349 . S
C437 C435 1.327 . S
C437 C456 1.429 . S
C437 H461 0.950 . S
C438 C455 1.574 . S
C438 C457 1.368 . S
C438 H462 0.949 . S
H439 C443 0.949 . S
C440 C441 1.349 . S
C440 C442 1.327 . S
C440 H463 0.950 . S
C441 C440 1.349 . S
C441 C453 1.349 . S
C442 C440 1.327 . S
C442 C458 1.429 . S
C442 H464 0.950 . S
C443 H439 0.949 . S
C443 C451 1.574 . S
C443 C459 1.368 . S
H444 C452 0.950 . S
H445 C450 0.950 . S
H446 C451 0.949 . S
H447 C453 0.950 . S
H448 C454 0.950 . S
H449 C455 0.949 . S
C450 H445 0.950 . S
C450 C452 1.327 . S
C450 C456 1.429 . S
C451 C443 1.574 . S
C451 H446 0.949 . S
C451 C457 1.368 . S
C452 C436 1.349 . S
C452 H444 0.950 . S
C452 C450 1.327 . S
C453 C441 1.349 . S
C453 H447 0.950 . S
C453 C454 1.327 . S
C454 H448 0.950 . S
C454 C453 1.327 . S
C454 C458 1.429 . S
C455 C438 1.574 . S
C455 H449 0.949 . S
C455 C459 1.368 . S
C456 C437 1.429 . S
C456 C450 1.429 . S
C456 C457 1.523 . S
C457 C438 1.368 . S
C457 C451 1.368 . S
C457 C456 1.523 . S
C458 C442 1.429 . S
C458 C454 1.429 . S
C458 C459 1.523 . S
C459 C443 1.368 . S
C459 C455 1.368 . S
C459 C458 1.523 . S
H460 C435 0.950 . S
H461 C437 0.950 . S
H462 C438 0.949 . S
H463 C440 0.950 . S
H464 C442 0.950 . S
C465 C466 1.349 . S
C465 C467 1.327 . S
C465 H490 0.950 . S
C466 C465 1.349 . S
C466 C482 1.349 . S
C467 C465 1.327 . S
C467 C486 1.429 . S
C467 H491 0.950 . S
C468 C485 1.574 . S
C468 C487 1.368 . S
C468 H492 0.949 . S
H469 C473 0.949 . S
C470 C471 1.349 . S
C470 C472 1.327 . S
C470 H493 0.950 . S
C471 C470 1.349 . S
C471 C483 1.349 . S
C472 C470 1.327 . S
C472 C488 1.429 . S
C472 H494 0.950 . S
C473 H469 0.949 . S
C473 C481 1.574 . S
C473 C489 1.368 . S
H474 C482 0.950 . S
H475 C480 0.950 . S
H476 C481 0.949 . S
H477 C483 0.950 . S
H478 C484 0.950 . S
H479 C485 0.949 . S
C480 H475 0.950 . S
C480 C482 1.327 . S
C480 C486 1.429 . S
C481 C473 1.574 . S
C481 H476 0.949 . S
C481 C487 1.368 . S
C482 C466 1.349 . S
C482 H474 0.950 . S
C482 C480 1.327 . S
C483 C471 1.349 . S
C483 H477 0.950 . S
C483 C484 1.327 . S
C484 H478 0.950 . S
C484 C483 1.327 . S
C484 C488 1.429 . S
C485 C468 1.574 . S
C485 H479 0.949 . S
C485 C489 1.368 . S
C486 C467 1.429 . S
C486 C480 1.429 . S
C486 C487 1.523 . S
C487 C468 1.368 . S
C487 C481 1.368 . S
C487 C486 1.523 . S
C488 C472 1.429 . S
C488 C484 1.429 . S
C488 C489 1.523 . S
C489 C473 1.368 . S
C489 C485 1.368 . S
C489 C488 1.523 . S
H490 C465 0.950 . S
H491 C467 0.950 . S
H492 C468 0.949 . S
H493 C470 0.950 . S
H494 C472 0.950 . S
C495 C496 1.349 . S
C495 C497 1.327 . S
C495 H520 0.950 . S
C496 C495 1.349 . S
C496 C512 1.349 . S
C497 C495 1.327 . S
C497 C516 1.429 . S
C497 H521 0.950 . S
C498 C515 1.574 . S
C498 C517 1.368 . S
C498 H522 0.949 . S
H499 C503 0.949 . S
C500 C501 1.349 . S
C500 C502 1.327 . S
C500 H523 0.950 . S
C501 C500 1.349 . S
C501 C513 1.349 . S
C502 C500 1.327 . S
C502 C518 1.429 . S
C502 H524 0.950 . S
C503 H499 0.949 . S
C503 C511 1.574 . S
C503 C519 1.368 . S
H504 C512 0.950 . S
H505 C510 0.950 . S
H506 C511 0.949 . S
H507 C513 0.950 . S
H508 C514 0.950 . S
H509 C515 0.949 . S
C510 H505 0.950 . S
C510 C512 1.327 . S
C510 C516 1.429 . S
C511 C503 1.574 . S
C511 H506 0.949 . S
C511 C517 1.368 . S
C512 C496 1.349 . S
C512 H504 0.950 . S
C512 C510 1.327 . S
C513 C501 1.349 . S
C513 H507 0.950 . S
C513 C514 1.327 . S
C514 H508 0.950 . S
C514 C513 1.327 . S
C514 C518 1.429 . S
C515 C498 1.574 . S
C515 H509 0.949 . S
C515 C519 1.368 . S
C516 C497 1.429 . S
C516 C510 1.429 . S
C516 C517 1.523 . S
C517 C498 1.368 . S
C517 C511 1.368 . S
C517 C516 1.523 . S
C518 C502 1.429 . S
C518 C514 1.429 . S
C518 C519 1.523 . S
C519 C503 1.368 . S
C519 C515 1.368 . S
C519 C518 1.523 . S
H520 C495 0.950 . S
H521 C497 0.950 . S
H522 C498 0.949 . S
H523 C500 0.950 . S
H524 C502 0.950 . S
C525 C526 1.349 . S
C525 C527 1.327 . S
C525 H550 0.950 . S
C526 C525 1.349 . S
C526 C542 1.349 . S
C527 C525 1.327 . S
C527 C546 1.429 . S
C527 H551 0.950 . S
C528 C545 1.574 . S
C528 C547 1.368 . S
C528 H552 0.949 . S
H529 C533 0.949 . S
C530 C531 1.349 . S
C530 C532 1.327 . S
C530 H553 0.950 . S
C531 C530 1.349 . S
C531 C543 1.349 . S
C532 C530 1.327 . S
C532 C548 1.429 . S
C532 H554 0.950 . S
C533 H529 0.949 . S
C533 C541 1.574 . S
C533 C549 1.368 . S
H534 C542 0.950 . S
H535 C540 0.950 . S
H536 C541 0.949 . S
H537 C543 0.950 . S
H538 C544 0.950 . S
H539 C545 0.949 . S
C540 H535 0.950 . S
C540 C542 1.327 . S
C540 C546 1.429 . S
C541 C533 1.574 . S
C541 H536 0.949 . S
C541 C547 1.368 . S
C542 C526 1.349 . S
C542 H534 0.950 . S
C542 C540 1.327 . S
C543 C531 1.349 . S
C543 H537 0.950 . S
C543 C544 1.327 . S
C544 H538 0.950 . S
C544 C543 1.327 . S
C544 C548 1.429 . S
C545 C528 1.574 . S
C545 H539 0.949 . S
C545 C549 1.368 . S
C546 C527 1.429 . S
C546 C540 1.429 . S
C546 C547 1.523 . S
C547 C528 1.368 . S
C547 C541 1.368 . S
C547 C546 1.523 . S
C548 C532 1.429 . S
C548 C544 1.429 . S
C548 C549 1.523 . S
C549 C533 1.368 . S
C549 C545 1.368 . S
C549 C548 1.523 . S
H550 C525 0.950 . S
H551 C527 0.950 . S
H552 C528 0.949 . S
H553 C530 0.950 . S
H554 C532 0.950 . S
C555 C556 1.349 . S
C555 C557 1.327 . S
C555 H580 0.950 . S
C556 C555 1.349 . S
C556 C572 1.349 . S
C557 C555 1.327 . S
C557 C576 1.429 . S
C557 H581 0.950 . S
C558 C575 1.574 . S
C558 C577 1.368 . S
C558 H582 0.949 . S
H559 C563 0.949 . S
C560 C561 1.349 . S
C560 C562 1.327 . S
C560 H583 0.950 . S
C561 C560 1.349 . S
C561 C573 1.349 . S
C562 C560 1.327 . S
C562 C578 1.429 . S
C562 H584 0.950 . S
C563 H559 0.949 . S
C563 C571 1.574 . S
C563 C579 1.368 . S
H564 C572 0.950 . S
H565 C570 0.950 . S
H566 C571 0.949 . S
H567 C573 0.950 . S
H568 C574 0.950 . S
H569 C575 0.949 . S
C570 H565 0.950 . S
C570 C572 1.327 . S
C570 C576 1.429 . S
C571 C563 1.574 . S
C571 H566 0.949 . S
C571 C577 1.368 . S
C572 C556 1.349 . S
C572 H564 0.950 . S
C572 C570 1.327 . S
C573 C561 1.349 . S
C573 H567 0.950 . S
C573 C574 1.327 . S
C574 H568 0.950 . S
C574 C573 1.327 . S
C574 C578 1.429 . S
C575 C558 1.574 . S
C575 H569 0.949 . S
C575 C579 1.368 . S
C576 C557 1.429 . S
C576 C570 1.429 . S
C576 C577 1.523 . S
C577 C558 1.368 . S
C577 C571 1.368 . S
C577 C576 1.523 . S
C578 C562 1.429 . S
C578 C574 1.429 . S
C578 C579 1.523 . S
C579 C563 1.368 . S
C579 C575 1.368 . S
C579 C578 1.523 . S
H580 C555 0.950 . S
H581 C557 0.950 . S
H582 C558 0.949 . S
H583 C560 0.950 . S
H584 C562 0.950 . S
C585 C586 1.349 . S
C585 C587 1.327 . S
C585 H610 0.950 . S
C586 C585 1.349 . S
C586 C602 1.349 . S
C587 C585 1.327 . S
C587 C606 1.429 . S
C587 H611 0.950 . S
C588 C605 1.574 . S
C588 C607 1.368 . S
C588 H612 0.949 . S
H589 C593 0.949 . S
C590 C591 1.349 . S
C590 C592 1.327 . S
C590 H613 0.950 . S
C591 C590 1.349 . S
C591 C603 1.349 . S
C592 C590 1.327 . S
C592 C608 1.429 . S
C592 H614 0.950 . S
C593 H589 0.949 . S
C593 C601 1.574 . S
C593 C609 1.368 . S
H594 C602 0.950 . S
H595 C600 0.950 . S
H596 C601 0.949 . S
H597 C603 0.950 . S
H598 C604 0.950 . S
H599 C605 0.949 . S
C600 H595 0.950 . S
C600 C602 1.327 . S
C600 C606 1.429 . S
C601 C593 1.574 . S
C601 H596 0.949 . S
C601 C607 1.368 . S
C602 C586 1.349 . S
C602 H594 0.950 . S
C602 C600 1.327 . S
C603 C591 1.349 . S
C603 H597 0.950 . S
C603 C604 1.327 . S
C604 H598 0.950 . S
C604 C603 1.327 . S
C604 C608 1.429 . S
C605 C588 1.574 . S
C605 H599 0.949 . S
C605 C609 1.368 . S
C606 C587 1.429 . S
C606 C600 1.429 . S
C606 C607 1.523 . S
C607 C588 1.368 . S
C607 C601 1.368 . S
C607 C606 1.523 . S
C608 C592 1.429 . S
C608 C604 1.429 . S
C608 C609 1.523 . S
C609 C593 1.368 . S
C609 C605 1.368 . S
C609 C608 1.523 . S
H610 C585 0.950 . S
H611 C587 0.950 . S
H612 C588 0.949 . S
H613 C590 0.950 . S
H614 C592 0.950 . S
C615 C616 1.349 . S
C615 C617 1.327 . S
C615 H640 0.950 . S
C616 C615 1.349 . S
C616 C632 1.349 . S
C617 C615 1.327 . S
C617 C636 1.429 . S
C617 H641 0.950 . S
C618 C635 1.574 . S
C618 C637 1.368 . S
C618 H642 0.949 . S
H619 C623 0.949 . S
C620 C621 1.349 . S
C620 C622 1.327 . S
C620 H643 0.950 . S
C621 C620 1.349 . S
C621 C633 1.349 . S
C622 C620 1.327 . S
C622 C638 1.429 . S
C622 H644 0.950 . S
C623 H619 0.949 . S
C623 C631 1.574 . S
C623 C639 1.368 . S
H624 C632 0.950 . S
H625 C630 0.950 . S
H626 C631 0.949 . S
H627 C633 0.950 . S
H628 C634 0.950 . S
H629 C635 0.949 . S
C630 H625 0.950 . S
C630 C632 1.327 . S
C630 C636 1.429 . S
C631 C623 1.574 . S
C631 H626 0.949 . S
C631 C637 1.368 . S
C632 C616 1.349 . S
C632 H624 0.950 . S
C632 C630 1.327 . S
C633 C621 1.349 . S
C633 H627 0.950 . S
C633 C634 1.327 . S
C634 H628 0.950 . S
C634 C633 1.327 . S
C634 C638 1.429 . S
C635 C618 1.574 . S
C635 H629 0.949 . S
C635 C639 1.368 . S
C636 C617 1.429 . S
C636 C630 1.429 . S
C636 C637 1.523 . S
C637 C618 1.368 . S
C637 C631 1.368 . S
C637 C636 1.523 . S
C638 C622 1.429 . S
C638 C634 1.429 . S
C638 C639 1.523 . S
C639 C623 1.368 . S
C639 C635 1.368 . S
C639 C638 1.523 . S
H640 C615 0.950 . S
H641 C617 0.950 . S
H642 C618 0.949 . S
H643 C620 0.950 . S
H644 C622 0.950 . S
C645 C646 1.349 . S
C645 C647 1.327 . S
C645 H670 0.950 . S
C646 C645 1.349 . S
C646 C662 1.349 . S
C647 C645 1.327 . S
C647 C666 1.429 . S
C647 H671 0.950 . S
C648 C665 1.574 . S
C648 C667 1.368 . S
C648 H672 0.949 . S
H649 C653 0.949 . S
C650 C651 1.349 . S
C650 C652 1.327 . S
C650 H673 0.950 . S
C651 C650 1.349 . S
C651 C663 1.349 . S
C652 C650 1.327 . S
C652 C668 1.429 . S
C652 H674 0.950 . S
C653 H649 0.949 . S
C653 C661 1.574 . S
C653 C669 1.368 . S
H654 C662 0.950 . S
H655 C660 0.950 . S
H656 C661 0.949 . S
H657 C663 0.950 . S
H658 C664 0.950 . S
H659 C665 0.949 . S
C660 H655 0.950 . S
C660 C662 1.327 . S
C660 C666 1.429 . S
C661 C653 1.574 . S
C661 H656 0.949 . S
C661 C667 1.368 . S
C662 C646 1.349 . S
C662 H654 0.950 . S
C662 C660 1.327 . S
C663 C651 1.349 . S
C663 H657 0.950 . S
C663 C664 1.327 . S
C664 H658 0.950 . S
C664 C663 1.327 . S
C664 C668 1.429 . S
C665 C648 1.574 . S
C665 H659 0.949 . S
C665 C669 1.368 . S
C666 C647 1.429 . S
C666 C660 1.429 . S
C666 C667 1.523 . S
C667 C648 1.368 . S
C667 C661 1.368 . S
C667 C666 1.523 . S
C668 C652 1.429 . S
C668 C664 1.429 . S
C668 C669 1.523 . S
C669 C653 1.368 . S
C669 C665 1.368 . S
C669 C668 1.523 . S
H670 C645 0.950 . S
H671 C647 0.950 . S
H672 C648 0.949 . S
H673 C650 0.950 . S
H674 C652 0.950 . S
C675 C676 1.349 . S
C675 C677 1.327 . S
C675 H700 0.950 . S
C676 C675 1.349 . S
C676 C692 1.349 . S
C677 C675 1.327 . S
C677 C696 1.429 . S
C677 H701 0.950 . S
C678 C695 1.574 . S
C678 C697 1.368 . S
C678 H702 0.949 . S
H679 C683 0.949 . S
C680 C681 1.349 . S
C680 C682 1.327 . S
C680 H703 0.950 . S
C681 C680 1.349 . S
C681 C693 1.349 . S
C682 C680 1.327 . S
C682 C698 1.429 . S
C682 H704 0.950 . S
C683 H679 0.949 . S
C683 C691 1.574 . S
C683 C699 1.368 . S
H684 C692 0.950 . S
H685 C690 0.950 . S
H686 C691 0.949 . S
H687 C693 0.950 . S
H688 C694 0.950 . S
H689 C695 0.949 . S
C690 H685 0.950 . S
C690 C692 1.327 . S
C690 C696 1.429 . S
C691 C683 1.574 . S
C691 H686 0.949 . S
C691 C697 1.368 . S
C692 C676 1.349 . S
C692 H684 0.950 . S
C692 C690 1.327 . S
C693 C681 1.349 . S
C693 H687 0.950 . S
C693 C694 1.327 . S
C694 H688 0.950 . S
C694 C693 1.327 . S
C694 C698 1.429 . S
C695 C678 1.574 . S
C695 H689 0.949 . S
C695 C699 1.368 . S
C696 C677 1.429 . S
C696 C690 1.429 . S
C696 C697 1.523 . S
C697 C678 1.368 . S
C697 C691 1.368 . S
C697 C696 1.523 . S
C698 C682 1.429 . S
C698 C694 1.429 . S
C698 C699 1.523 . S
C699 C683 1.368 . S
C699 C695 1.368 . S
C699 C698 1.523 . S
H700 C675 0.950 . S
H701 C677 0.950 . S
H702 C678 0.949 . S
H703 C680 0.950 . S
H704 C682 0.950 . S
C705 C706 1.349 . S
C705 C707 1.327 . S
C705 H730 0.950 . S
C706 C705 1.349 . S
C706 C722 1.349 . S
C707 C705 1.327 . S
C707 C726 1.429 . S
C707 H731 0.950 . S
C708 C725 1.574 . S
C708 C727 1.368 . S
C708 H732 0.949 . S
H709 C713 0.949 . S
C710 C711 1.349 . S
C710 C712 1.327 . S
C710 H733 0.950 . S
C711 C710 1.349 . S
C711 C723 1.349 . S
C712 C710 1.327 . S
C712 C728 1.429 . S
C712 H734 0.950 . S
C713 H709 0.949 . S
C713 C721 1.574 . S
C713 C729 1.368 . S
H714 C722 0.950 . S
H715 C720 0.950 . S
H716 C721 0.949 . S
H717 C723 0.950 . S
H718 C724 0.950 . S
H719 C725 0.949 . S
C720 H715 0.950 . S
C720 C722 1.327 . S
C720 C726 1.429 . S
C721 C713 1.574 . S
C721 H716 0.949 . S
C721 C727 1.368 . S
C722 C706 1.349 . S
C722 H714 0.950 . S
C722 C720 1.327 . S
C723 C711 1.349 . S
C723 H717 0.950 . S
C723 C724 1.327 . S
C724 H718 0.950 . S
C724 C723 1.327 . S
C724 C728 1.429 . S
C725 C708 1.574 . S
C725 H719 0.949 . S
C725 C729 1.368 . S
C726 C707 1.429 . S
C726 C720 1.429 . S
C726 C727 1.523 . S
C727 C708 1.368 . S
C727 C721 1.368 . S
C727 C726 1.523 . S
C728 C712 1.429 . S
C728 C724 1.429 . S
C728 C729 1.523 . S
C729 C713 1.368 . S
C729 C725 1.368 . S
C729 C728 1.523 . S
H730 C705 0.950 . S
H731 C707 0.950 . S
H732 C708 0.949 . S
H733 C710 0.950 . S
H734 C712 0.950 . S
C735 C736 1.349 . S
C735 C737 1.327 . S
C735 H760 0.950 . S
C736 C735 1.349 . S
C736 C752 1.349 . S
C737 C735 1.327 . S
C737 C756 1.429 . S
C737 H761 0.950 . S
C738 C755 1.574 . S
C738 C757 1.368 . S
C738 H762 0.949 . S
H739 C743 0.949 . S
C740 C741 1.349 . S
C740 C742 1.327 . S
C740 H763 0.950 . S
C741 C740 1.349 . S
C741 C753 1.349 . S
C742 C740 1.327 . S
C742 C758 1.429 . S
C742 H764 0.950 . S
C743 H739 0.949 . S
C743 C751 1.574 . S
C743 C759 1.368 . S
H744 C752 0.950 . S
H745 C750 0.950 . S
H746 C751 0.949 . S
H747 C753 0.950 . S
H748 C754 0.950 . S
H749 C755 0.949 . S
C750 H745 0.950 . S
C750 C752 1.327 . S
C750 C756 1.429 . S
C751 C743 1.574 . S
C751 H746 0.949 . S
C751 C757 1.368 . S
C752 C736 1.349 . S
C752 H744 0.950 . S
C752 C750 1.327 . S
C753 C741 1.349 . S
C753 H747 0.950 . S
C753 C754 1.327 . S
C754 H748 0.950 . S
C754 C753 1.327 . S
C754 C758 1.429 . S
C755 C738 1.574 . S
C755 H749 0.949 . S
C755 C759 1.368 . S
C756 C737 1.429 . S
C756 C750 1.429 . S
C756 C757 1.523 . S
C757 C738 1.368 . S
C757 C751 1.368 . S
C757 C756 1.523 . S
C758 C742 1.429 . S
C758 C754 1.429 . S
C758 C759 1.523 . S
C759 C743 1.368 . S
C759 C755 1.368 . S
C759 C758 1.523 . S
H760 C735 0.950 . S
H761 C737 0.950 . S
H762 C738 0.949 . S
H763 C740 0.950 . S
H764 C742 0.950 . S
C765 C766 1.349 . S
C765 C767 1.327 . S
C765 H790 0.950 . S
C766 C765 1.349 . S
C766 C782 1.349 . S
C767 C765 1.327 . S
C767 C786 1.429 . S
C767 H791 0.950 . S
C768 C785 1.574 . S
C768 C787 1.368 . S
C768 H792 0.949 . S
H769 C773 0.949 . S
C770 C771 1.349 . S
C770 C772 1.327 . S
C770 H793 0.950 . S
C771 C770 1.349 . S
C771 C783 1.349 . S
C772 C770 1.327 . S
C772 C788 1.429 . S
C772 H794 0.950 . S
C773 H769 0.949 . S
C773 C781 1.574 . S
C773 C789 1.368 . S
H774 C782 0.950 . S
H775 C780 0.950 . S
H776 C781 0.949 . S
H777 C783 0.950 . S
H778 C784 0.950 . S
H779 C785 0.949 . S
C780 H775 0.950 . S
C780 C782 1.327 . S
C780 C786 1.429 . S
C781 C773 1.574 . S
C781 H776 0.949 . S
C781 C787 1.368 . S
C782 C766 1.349 . S
C782 H774 0.950 . S
C782 C780 1.327 . S
C783 C771 1.349 . S
C783 H777 0.950 . S
C783 C784 1.327 . S
C784 H778 0.950 . S
C784 C783 1.327 . S
C784 C788 1.429 . S
C785 C768 1.574 . S
C785 H779 0.949 . S
C785 C789 1.368 . S
C786 C767 1.429 . S
C786 C780 1.429 . S
C786 C787 1.523 . S
C787 C768 1.368 . S
C787 C781 1.368 . S
C787 C786 1.523 . S
C788 C772 1.429 . S
C788 C784 1.429 . S
C788 C789 1.523 . S
C789 C773 1.368 . S
C789 C785 1.368 . S
C789 C788 1.523 . S
H790 C765 0.950 . S
H791 C767 0.950 . S
H792 C768 0.949 . S
H793 C770 0.950 . S
H794 C772 0.950 . S
C795 C796 1.349 . S
C795 C797 1.327 . S
C795 H820 0.950 . S
C796 C795 1.349 . S
C796 C812 1.349 . S
C797 C795 1.327 . S
C797 C816 1.429 . S
C797 H821 0.950 . S
C798 C815 1.574 . S
C798 C817 1.368 . S
C798 H822 0.949 . S
H799 C803 0.949 . S
C800 C801 1.349 . S
C800 C802 1.327 . S
C800 H823 0.950 . S
C801 C800 1.349 . S
C801 C813 1.349 . S
C802 C800 1.327 . S
C802 C818 1.429 . S
C802 H824 0.950 . S
C803 H799 0.949 . S
C803 C811 1.574 . S
C803 C819 1.368 . S
H804 C812 0.950 . S
H805 C810 0.950 . S
H806 C811 0.949 . S
H807 C813 0.950 . S
H808 C814 0.950 . S
H809 C815 0.949 . S
C810 H805 0.950 . S
C810 C812 1.327 . S
C810 C816 1.429 . S
C811 C803 1.574 . S
C811 H806 0.949 . S
C811 C817 1.368 . S
C812 C796 1.349 . S
C812 H804 0.950 . S
C812 C810 1.327 . S
C813 C801 1.349 . S
C813 H807 0.950 . S
C813 C814 1.327 . S
C814 H808 0.950 . S
C814 C813 1.327 . S
C814 C818 1.429 . S
C815 C798 1.574 . S
C815 H809 0.949 . S
C815 C819 1.368 . S
C816 C797 1.429 . S
C816 C810 1.429 . S
C816 C817 1.523 . S
C817 C798 1.368 . S
C817 C811 1.368 . S
C817 C816 1.523 . S
C818 C802 1.429 . S
C818 C814 1.429 . S
C818 C819 1.523 . S
C819 C803 1.368 . S
C819 C815 1.368 . S
C819 C818 1.523 . S
H820 C795 0.950 . S
H821 C797 0.950 . S
H822 C798 0.949 . S
H823 C800 0.950 . S
H824 C802 0.950 . S
C825 C826 1.349 . S
C825 C827 1.327 . S
C825 H850 0.950 . S
C826 C825 1.349 . S
C826 C842 1.349 . S
C827 C825 1.327 . S
C827 C846 1.429 . S
C827 H851 0.950 . S
C828 C845 1.574 . S
C828 C847 1.368 . S
C828 H852 0.949 . S
H829 C833 0.949 . S
C830 C831 1.349 . S
C830 C832 1.327 . S
C830 H853 0.950 . S
C831 C830 1.349 . S
C831 C843 1.349 . S
C832 C830 1.327 . S
C832 C848 1.429 . S
C832 H854 0.950 . S
C833 H829 0.949 . S
C833 C841 1.574 . S
C833 C849 1.368 . S
H834 C842 0.950 . S
H835 C840 0.950 . S
H836 C841 0.949 . S
H837 C843 0.950 . S
H838 C844 0.950 . S
H839 C845 0.949 . S
C840 H835 0.950 . S
C840 C842 1.327 . S
C840 C846 1.429 . S
C841 C833 1.574 . S
C841 H836 0.949 . S
C841 C847 1.368 . S
C842 C826 1.349 . S
C842 H834 0.950 . S
C842 C840 1.327 . S
C843 C831 1.349 . S
C843 H837 0.950 . S
C843 C844 1.327 . S
C844 H838 0.950 . S
C844 C843 1.327 . S
C844 C848 1.429 . S
C845 C828 1.574 . S
C845 H839 0.949 . S
C845 C849 1.368 . S
C846 C827 1.429 . S
C846 C840 1.429 . S
C846 C847 1.523 . S
C847 C828 1.368 . S
C847 C841 1.368 . S
C847 C846 1.523 . S
C848 C832 1.429 . S
C848 C844 1.429 . S
C848 C849 1.523 . S
C849 C833 1.368 . S
C849 C845 1.368 . S
C849 C848 1.523 . S
H850 C825 0.950 . S
H851 C827 0.950 . S
H852 C828 0.949 . S
H853 C830 0.950 . S
H854 C832 0.950 . S
C855 C856 1.349 . S
C855 C857 1.327 . S
C855 H880 0.950 . S
C856 C855 1.349 . S
C856 C872 1.349 . S
C857 C855 1.327 . S
C857 C876 1.429 . S
C857 H881 0.950 . S
C858 C875 1.574 . S
C858 C877 1.368 . S
C858 H882 0.949 . S
H859 C863 0.949 . S
C860 C861 1.349 . S
C860 C862 1.327 . S
C860 H883 0.950 . S
C861 C860 1.349 . S
C861 C873 1.349 . S
C862 C860 1.327 . S
C862 C878 1.429 . S
C862 H884 0.950 . S
C863 H859 0.949 . S
C863 C871 1.574 . S
C863 C879 1.368 . S
H864 C872 0.950 . S
H865 C870 0.950 . S
H866 C871 0.949 . S
H867 C873 0.950 . S
H868 C874 0.950 . S
H869 C875 0.949 . S
C870 H865 0.950 . S
C870 C872 1.327 . S
C870 C876 1.429 . S
C871 C863 1.574 . S
C871 H866 0.949 . S
C871 C877 1.368 . S
C872 C856 1.349 . S
C872 H864 0.950 . S
C872 C870 1.327 . S
C873 C861 1.349 . S
C873 H867 0.950 . S
C873 C874 1.327 . S
C874 H868 0.950 . S
C874 C873 1.327 . S
C874 C878 1.429 . S
C875 C858 1.574 . S
C875 H869 0.949 . S
C875 C879 1.368 . S
C876 C857 1.429 . S
C876 C870 1.429 . S
C876 C877 1.523 . S
C877 C858 1.368 . S
C877 C871 1.368 . S
C877 C876 1.523 . S
C878 C862 1.429 . S
C878 C874 1.429 . S
C878 C879 1.523 . S
C879 C863 1.368 . S
C879 C875 1.368 . S
C879 C878 1.523 . S
H880 C855 0.950 . S
H881 C857 0.950 . S
H882 C858 0.949 . S
H883 C860 0.950 . S
H884 C862 0.950 . S
C885 C886 1.349 . S
C885 C887 1.327 . S
C885 H910 0.950 . S
C886 C885 1.349 . S
C886 C902 1.349 . S
C887 C885 1.327 . S
C887 C906 1.429 . S
C887 H911 0.950 . S
C888 C905 1.574 . S
C888 C907 1.368 . S
C888 H912 0.949 . S
H889 C893 0.949 . S
C890 C891 1.349 . S
C890 C892 1.327 . S
C890 H913 0.950 . S
C891 C890 1.349 . S
C891 C903 1.349 . S
C892 C890 1.327 . S
C892 C908 1.429 . S
C892 H914 0.950 . S
C893 H889 0.949 . S
C893 C901 1.574 . S
C893 C909 1.368 . S
H894 C902 0.950 . S
H895 C900 0.950 . S
H896 C901 0.949 . S
H897 C903 0.950 . S
H898 C904 0.950 . S
H899 C905 0.949 . S
C900 H895 0.950 . S
C900 C902 1.327 . S
C900 C906 1.429 . S
C901 C893 1.574 . S
C901 H896 0.949 . S
C901 C907 1.368 . S
C902 C886 1.349 . S
C902 H894 0.950 . S
C902 C900 1.327 . S
C903 C891 1.349 . S
C903 H897 0.950 . S
C903 C904 1.327 . S
C904 H898 0.950 . S
C904 C903 1.327 . S
C904 C908 1.429 . S
C905 C888 1.574 . S
C905 H899 0.949 . S
C905 C909 1.368 . S
C906 C887 1.429 . S
C906 C900 1.429 . S
C906 C907 1.523 . S
C907 C888 1.368 . S
C907 C901 1.368 . S
C907 C906 1.523 . S
C908 C892 1.429 . S
C908 C904 1.429 . S
C908 C909 1.523 . S
C909 C893 1.368 . S
C909 C905 1.368 . S
C909 C908 1.523 . S
H910 C885 0.950 . S
H911 C887 0.950 . S
H912 C888 0.949 . S
H913 C890 0.950 . S
H914 C892 0.950 . S
C201 C120 1.428 . S
C196 C6 1.505 . S
C231 C156 1.776 . S
C226 C21 1.885 . S
C261 C121 1.381 . S
C256 C28 1.401 . S
C291 C151 0.976 . S
C286 C45 1.004 . S
C321 C118 1.524 . S
C316 C54 1.602 . S
C346 C69 2.108 . S
C351 C154 2.111 . S
C376 C81 0.436 . S
C381 C123 0.595 . S
C411 C153 1.428 . S
C406 C88 1.482 . S
C441 C157 1.382 . S
C436 C4 1.402 . S
C471 C122 1.528 . S
C466 C18 1.585 . S
C501 C150 1.988 . S
C496 C33 1.971 . S
C531 C119 0.588 . S
C526 C42 0.399 . S
C561 C152 1.844 . S
C556 C57 1.970 . S
C586 C64 1.455 . S
C591 C117 1.442 . S
C616 C78 0.960 . S
C621 C155 0.938 . S
C651 C124 1.421 . S
C646 C93 1.482 . S
C681 C186 2.076 . S
C676 C9 2.183 . S
C706 C52 1.980 . S
C711 C189 1.868 . S
C741 C188 2.019 . S
C736 C66 2.107 . S
C766 C76 1.223 . S
C771 C187 1.211 . S
C801 C190 1.963 . S
C796 C90 2.059 . S
C826 C30 2.015 . S
C831 C184 1.952 . S
C861 C183 1.210 . S
C856 C40 1.222 . S
C886 C16 1.925 . S
C891 C185 1.804 . S
