# Generated by pormake.
# Topology rtl, (3,6)-cn, num edge types: 1
# Building blocks:
#     Node 0, Type 0, BuildingBlock: BETDIP_clean_linker_0, # of connection points: 3
#     Node 1, Type 0, BuildingBlock: BETDIP_clean_linker_0, # of connection points: 3
#     Node 2, Type 0, BuildingBlock: BETDIP_clean_linker_0, # of connection points: 3
#     Node 3, Type 0, BuildingBlock: BETDIP_clean_linker_0, # of connection points: 3
#     Node 4, Type 1, BuildingBlock: VOLQOD_clean_sbu_1, # of connection points: 6
#     Node 5, Type 1, BuildingBlock: VOLQOD_clean_sbu_1, # of connection points: 6
#     Edge 6, Type (0, 1), BuildingBlock: XIVTED_clean_linker_0, # of connection points: 2
#     Edge 7, Type (0, 1), BuildingBlock: XIVTED_clean_linker_0, # of connection points: 2
#     Edge 8, Type (0, 1), BuildingBlock: XIVTED_clean_linker_0, # of connection points: 2
#     Edge 9, Type (0, 1), BuildingBlock: XIVTED_clean_linker_0, # of connection points: 2
#     Edge 10, Type (0, 1), BuildingBlock: XIVTED_clean_linker_0, # of connection points: 2
#     Edge 11, Type (0, 1), BuildingBlock: XIVTED_clean_linker_0, # of connection points: 2
#     Edge 12, Type (0, 1), BuildingBlock: XIVTED_clean_linker_0, # of connection points: 2
#     Edge 13, Type (0, 1), BuildingBlock: XIVTED_clean_linker_0, # of connection points: 2
#     Edge 14, Type (0, 1), BuildingBlock: XIVTED_clean_linker_0, # of connection points: 2
#     Edge 15, Type (0, 1), BuildingBlock: XIVTED_clean_linker_0, # of connection points: 2
#     Edge 16, Type (0, 1), BuildingBlock: XIVTED_clean_linker_0, # of connection points: 2
#     Edge 17, Type (0, 1), BuildingBlock: XIVTED_clean_linker_0, # of connection points: 2
# Relax obj value: 0.041
# Max RMSD: 0.143
# Mean RMSD: 0.095
data_MOF--net-rtl--node1-VOLQOD_clean_sbu_1--node2-BETDIP_clean_linker_0--edge1-XIVTED_clean_linker_0
_symmetry_space_group_name_H-M    P1
_symmetry_Int_Tables_number       1
_symmetry_cell_setting            triclinic
loop_
_symmetry_equiv_pos_as_xyz
'x, y, z'
_cell_length_a     38.013584
_cell_length_b     38.508017
_cell_length_c     22.4695
_cell_angle_alpha  91.43923
_cell_angle_beta   91.670831
_cell_angle_gamma 90.096548
loop_
_atom_site_label
_atom_site_type_symbol
_atom_site_fract_x
_atom_site_fract_y
_atom_site_fract_z
_atom_type_partial_charge
H0 H 0.19892 0.78984 0.87863 0.0
H1 H 0.20372 0.79668 0.07045 0.0
H2 H 0.14891 0.87441 0.97133 0.0
H3 H 0.21454 0.73976 0.06281 0.0
C4 C 0.23046 0.73734 0.02359 0.0
C5 C 0.19216 0.80305 0.91989 0.0
C6 C 0.17323 0.83425 0.91855 0.0
C7 C 0.20289 0.78896 0.97436 0.0
C8 C 0.19469 0.80647 0.028 0.0
C9 C 0.1755 0.83753 0.02705 0.0
C10 C 0.16483 0.85108 0.97224 0.0
N11 N 0.22337 0.75819 0.97343 0.0
H12 H 0.73259 0.68888 0.64561 0.0
H13 H 0.73039 0.68144 0.45381 0.0
H14 H 0.65063 0.63102 0.55177 0.0
H15 H 0.79136 0.68962 0.4715 0.0
C16 C 0.78868 0.71152 0.50248 0.0
C17 C 0.72065 0.67892 0.60422 0.0
C18 C 0.68973 0.65905 0.60499 0.0
C19 C 0.7358 0.68672 0.54996 0.0
C20 C 0.71978 0.67446 0.49609 0.0
C21 C 0.68876 0.65475 0.49654 0.0
C22 C 0.67418 0.64694 0.55112 0.0
N23 N 0.76539 0.70924 0.55047 0.0
H24 H 0.77491 0.19257 0.87149 0.0
H25 H 0.77591 0.18938 0.06317 0.0
H26 H 0.85526 0.1356 0.96516 0.0
H27 H 0.71607 0.20062 0.04648 0.0
C28 C 0.71849 0.22042 0.01322 0.0
C29 C 0.78649 0.18342 0.91286 0.0
C30 C 0.81696 0.16304 0.91209 0.0
C31 C 0.77125 0.19275 0.967 0.0
C32 C 0.78669 0.18143 0.02092 0.0
C33 C 0.81735 0.16119 0.02044 0.0
C34 C 0.83207 0.15198 0.96588 0.0
N35 N 0.74206 0.21563 0.9659 0.0
H36 H 0.27805 0.31282 0.41402 0.0
H37 H 0.27938 0.31252 0.60597 0.0
H38 H 0.33937 0.38826 0.51589 0.0
H39 H 0.25504 0.26122 0.59502 0.0
C40 C 0.24314 0.25818 0.55075 0.0
C41 C 0.28716 0.32379 0.45663 0.0
C42 C 0.30948 0.3528 0.45874 0.0
C43 C 0.27631 0.30874 0.50918 0.0
C44 C 0.28791 0.32312 0.56472 0.0
C45 C 0.31031 0.35217 0.56723 0.0
C46 C 0.32096 0.36669 0.51412 0.0
N47 N 0.25327 0.2797 0.50379 0.0
O48 O 0.92096 0.95668 0.46379 0.0
Zn49 Zn 0.94489 0.0038 0.46599 0.0
O50 O -0.00366 -0.00063 0.4707 0.0
Zn51 Zn 0.01407 0.01953 0.54575 0.0
Zn52 Zn 0.00888 0.95041 0.46738 0.0
Zn53 Zn 0.0181 0.02329 0.40514 0.0
O54 O 0.0495 0.05654 0.533 0.0
O55 O 0.05196 0.06087 0.43504 0.0
O56 O 0.92691 0.03142 0.53631 0.0
O57 O 0.97545 0.0418 0.59117 0.0
O58 O 0.03834 0.98432 0.5963 0.0
O59 O 0.03616 0.93607 0.54037 0.0
O60 O 0.03892 0.93948 0.39835 0.0
O61 O 0.93011 0.02995 0.3929 0.0
O62 O 0.04583 0.98982 0.35412 0.0
O63 O 0.98068 0.04543 0.35374 0.0
C64 C 0.93323 0.92593 0.46046 0.0
C65 C 0.06189 0.07055 0.48749 0.0
C66 C 0.04574 0.9524 0.588 0.0
C67 C 0.94242 0.04491 0.58228 0.0
C68 C 0.05178 0.95736 0.35744 0.0
C69 C 0.94714 0.04565 0.35358 0.0
O70 O 0.96618 0.92031 0.46012 0.0
O71 O 0.57412 0.45867 0.03047 0.0
Zn72 Zn 0.55232 0.50647 0.0334 0.0
O73 O 0.5008 0.50352 0.02992 0.0
Zn74 Zn 0.48266 0.52646 0.95919 0.0
Zn75 Zn 0.48603 0.45485 0.02723 0.0
Zn76 Zn 0.48162 0.5266 0.09991 0.0
O77 O 0.44752 0.56335 0.97946 0.0
O78 O 0.44741 0.56405 0.07808 0.0
O79 O 0.5704 0.53406 0.96549 0.0
O80 O 0.52158 0.54913 0.91605 0.0
O81 O 0.45711 0.49271 0.90387 0.0
O82 O 0.45786 0.44316 0.95224 0.0
O83 O 0.45562 0.44368 0.09577 0.0
O84 O 0.56943 0.53143 0.10887 0.0
O85 O 0.45427 0.49337 0.14774 0.0
O86 O 0.52002 0.54752 0.15208 0.0
C87 C 0.56097 0.4282 0.03064 0.0
C88 C 0.43615 0.57542 0.02844 0.0
C89 C 0.44861 0.46085 0.90735 0.0
C90 C 0.55492 0.54993 0.92317 0.0
C91 C 0.44544 0.46165 0.1403 0.0
C92 C 0.55348 0.54701 0.15084 0.0
O93 O 0.52785 0.42329 0.03047 0.0
H94 H 0.20964 0.23905 0.44473 0.0
H95 H 0.09228 0.094 0.59264 0.0
H96 H 0.21666 0.21447 0.63102 0.0
H97 H 0.09265 0.11027 0.40312 0.0
H98 H 0.1365 0.13934 0.60745 0.0
H99 H 0.16563 0.19325 0.42862 0.0
C100 C 0.20193 0.224 0.48229 0.0
C101 C 0.21674 0.2305 0.53944 0.0
C102 C 0.12697 0.13302 0.56259 0.0
C103 C 0.16637 0.17816 0.52123 0.0
C104 C 0.1016 0.10712 0.55403 0.0
C105 C 0.08864 0.09827 0.49646 0.0
C106 C 0.1395 0.1504 0.51332 0.0
C107 C 0.10187 0.11621 0.44827 0.0
C108 C 0.17682 0.19782 0.473 0.0
C109 C 0.20582 0.2102 0.58633 0.0
N110 N 0.12656 0.14149 0.45781 0.0
N111 N 0.18122 0.18496 0.57624 0.0
H112 H 0.25452 0.69916 0.11589 0.0
H113 H 0.4083 0.60923 0.9322 0.0
H114 H 0.27452 0.72075 0.93241 0.0
H115 H 0.39854 0.60048 0.12232 0.0
H116 H 0.35822 0.64879 0.93065 0.0
H117 H 0.30573 0.66064 0.11814 0.0
C118 C 0.26967 0.69564 0.07608 0.0
C119 C 0.26041 0.7131 0.02403 0.0
C120 C 0.36716 0.63835 0.97274 0.0
C121 C 0.31886 0.66938 0.02612 0.0
C122 C 0.39579 0.61578 0.9737 0.0
C123 C 0.40763 0.60144 0.02747 0.0
C124 C 0.35008 0.64648 0.02586 0.0
C125 C 0.39037 0.61091 0.07983 0.0
C126 C 0.29892 0.67383 0.07741 0.0
C127 C 0.2808 0.70782 0.97357 0.0
N128 N 0.36234 0.63269 0.07765 0.0
N129 N 0.30909 0.68638 0.97588 0.0
H130 H 0.84236 0.71994 0.42734 0.0
H131 H 0.86522 0.92339 0.49785 0.0
H132 H 0.78105 0.7756 0.557 0.0
H133 H 0.94685 0.85963 0.42258 0.0
H134 H 0.82839 0.87141 0.50522 0.0
H135 H 0.87596 0.77315 0.41149 0.0
C136 C 0.83608 0.74338 0.45249 0.0
C137 C 0.80926 0.74339 0.49388 0.0
C138 C 0.85432 0.86894 0.48684 0.0
C139 C 0.84695 0.80423 0.47546 0.0
C140 C 0.87522 0.89857 0.48225 0.0
C141 C 0.90921 0.89575 0.45997 0.0
C142 C 0.86738 0.83647 0.46821 0.0
C143 C 0.92092 0.86292 0.44058 0.0
C144 C 0.85517 0.77366 0.44345 0.0
C145 C 0.80183 0.77441 0.5251 0.0
N146 N 0.90005 0.83456 0.44517 0.0
N147 N 0.82056 0.80367 0.51512 0.0
H148 H 0.72492 0.2808 0.95234 0.0
H149 H 0.54547 0.36202 0.06248 0.0
H150 H 0.66079 0.23042 0.08008 0.0
H151 H 0.62984 0.42488 -0.00171 0.0
H152 H 0.5842 0.31142 0.05951 0.0
H153 H 0.68697 0.33189 0.95848 0.0
C154 C 0.70273 0.28044 0.98148 0.0
C155 C 0.69573 0.25135 0.01561 0.0
C156 C 0.59423 0.33633 0.04633 0.0
C157 C 0.65235 0.30957 0.02264 0.0
C158 C 0.57215 0.36518 0.04775 0.0
C159 C 0.58447 0.39771 0.03051 0.0
C160 C 0.62868 0.33989 0.02657 0.0
C161 C 0.61932 0.40032 0.01215 0.0
C162 C 0.68125 0.30967 -0.0148 0.0
C163 C 0.6669 0.25239 0.05302 0.0
N164 N 0.64015 0.3717 0.01019 0.0
N165 N 0.64604 0.28099 0.05527 0.0
H166 H 0.17786 0.90713 0.054 0.0
H167 H 0.06882 0.88846 0.34999 0.0
H168 H 0.14871 0.80873 0.12627 0.0
H169 H 0.08627 0.98612 0.26487 0.0
H170 H 0.10477 0.85946 0.27592 0.0
H171 H 0.15189 0.93695 0.13921 0.0
C172 C 0.16624 0.89181 0.08816 0.0
C173 C 0.16496 0.85544 0.08274 0.0
C174 C 0.10085 0.88725 0.27356 0.0
C175 C 0.13523 0.88934 0.18022 0.0
C176 C 0.08025 0.90388 0.3158 0.0
C177 C 0.07421 0.9398 0.31335 0.0
C178 C 0.11558 0.90662 0.22846 0.0
C179 C 0.08997 0.95836 0.26822 0.0
C180 C 0.15145 0.90883 0.13674 0.0
C181 C 0.15027 0.8368 0.12877 0.0
N182 N 0.10982 0.94151 0.22738 0.0
N183 N 0.13562 0.854 0.17533 0.0
H184 H 0.71933 0.62944 0.7042 0.0
H185 H 0.53056 0.59376 0.83782 0.0
H186 H 0.62142 0.66915 0.63238 0.0
H187 H 0.62693 0.55298 0.9147 0.0
H188 H 0.5648 0.62624 0.76843 0.0
H189 H 0.68763 0.60684 0.78889 0.0
C190 C 0.6913 0.63398 0.70702 0.0
C191 C 0.67277 0.65073 0.6612 0.0
C192 C 0.57857 0.61032 0.80057 0.0
C193 C 0.63646 0.6248 0.75676 0.0
C194 C 0.55897 0.59159 0.84014 0.0
C195 C 0.57585 0.57026 0.8818 0.0
C196 C 0.61542 0.60761 0.80211 0.0
C197 C 0.6128 0.56892 0.88305 0.0
C198 C 0.6732 0.62091 0.75498 0.0
C199 C 0.63651 0.65588 0.66651 0.0
N200 N 0.63138 0.58714 0.84341 0.0
N201 N 0.61951 0.64269 0.71306 0.0
H202 H 0.78727 0.13105 0.11605 0.0
H203 H 0.97431 0.08522 0.26649 0.0
H204 H 0.88709 0.16468 0.05109 0.0
H205 H 0.87556 0.0511 0.3357 0.0
H206 H 0.94205 0.11739 0.19084 0.0
H207 H 0.81825 0.10546 0.20168 0.0
C208 C 0.81563 0.13347 0.12035 0.0
C209 C 0.83474 0.14956 0.07623 0.0
C210 C 0.92737 0.10295 0.22262 0.0
C211 C 0.87027 0.12018 0.17313 0.0
C212 C 0.94582 0.08444 0.26581 0.0
C213 C 0.92766 0.06521 0.3074 0.0
C214 C 0.89041 0.10222 0.22064 0.0
C215 C 0.89068 0.06544 0.3044 0.0
C216 C 0.83331 0.11869 0.16889 0.0
C217 C 0.87144 0.15191 0.08363 0.0
N218 N 0.87326 0.08355 0.26159 0.0
N219 N 0.888 0.13716 0.13084 0.0
H220 H 0.33844 0.31779 0.66288 0.0
H221 H 0.41656 0.49252 0.81284 0.0
H222 H 0.31436 0.42052 0.60132 0.0
H223 H 0.42904 0.39235 0.8931 0.0
H224 H 0.37849 0.46594 0.73559 0.0
H225 H 0.36968 0.34393 0.74997 0.0
C226 C 0.33917 0.34581 0.66832 0.0
C227 C 0.3242 0.36707 0.62461 0.0
C228 C 0.38944 0.44973 0.77015 0.0
C229 C 0.36029 0.39705 0.72305 0.0
C230 C 0.4114 0.46488 0.81417 0.0
C231 C 0.4262 0.44462 0.85945 0.0
C232 C 0.38231 0.41395 0.77096 0.0
C233 C 0.41828 0.40895 0.85897 0.0
C234 C 0.35721 0.36072 0.71771 0.0
C235 C 0.32611 0.40321 0.63349 0.0
N236 N 0.39698 0.3947 0.81521 0.0
N237 N 0.34414 0.41704 0.68135 0.0
H238 H 0.71734 0.62366 0.39783 0.0
H239 H 0.52836 0.58616 0.24322 0.0
H240 H 0.61884 0.65892 0.46815 0.0
H241 H 0.62538 0.5497 0.16833 0.0
H242 H 0.56207 0.61557 0.32305 0.0
H243 H 0.68523 0.59965 0.30971 0.0
C244 C 0.68903 0.62665 0.39434 0.0
C245 C 0.67062 0.64287 0.44052 0.0
C246 C 0.57608 0.60122 0.28915 0.0
C247 C 0.63384 0.61541 0.34065 0.0
C248 C 0.5568 0.58431 0.2435 0.0
C249 C 0.57402 0.56522 0.19908 0.0
C250 C 0.61296 0.59904 0.29079 0.0
C251 C 0.61098 0.56401 0.20175 0.0
C252 C 0.67072 0.61282 0.34432 0.0
C253 C 0.63397 0.64601 0.43405 0.0
N254 N 0.62924 0.58059 0.24704 0.0
N255 N 0.6168 0.63224 0.38528 0.0
H256 H 0.88559 0.17068 0.88515 0.0
H257 H 0.87056 0.0529 0.5872 0.0
H258 H 0.78649 0.13209 0.81212 0.0
H259 H 0.96819 0.08441 0.67607 0.0
H260 H 0.83834 0.08711 0.6612 0.0
H261 H 0.91522 0.14585 0.79938 0.0
C262 C 0.87007 0.15722 0.8505 0.0
C263 C 0.83371 0.15298 0.8558 0.0
C264 C 0.86681 0.08658 0.66417 0.0
C265 C 0.86739 0.12404 0.75785 0.0
C266 C 0.88522 0.06703 0.62209 0.0
C267 C 0.92213 0.06551 0.62574 0.0
C268 C 0.88553 0.10482 0.70986 0.0
C269 C 0.93975 0.08447 0.6717 0.0
C270 C 0.88695 0.14297 0.80163 0.0
C271 C 0.81464 0.1358 0.80948 0.0
N272 N 0.9213 0.10322 0.7119 0.0
N273 N 0.8318 0.12149 0.76259 0.0
H274 H 0.33534 0.31898 0.36062 0.0
H275 H 0.41175 0.49395 0.23198 0.0
H276 H 0.31368 0.42141 0.43256 0.0
H277 H 0.42549 0.39331 0.14656 0.0
H278 H 0.37339 0.46759 0.30301 0.0
H279 H 0.36484 0.34544 0.27749 0.0
C280 C 0.33625 0.34703 0.35828 0.0
C281 C 0.3225 0.36808 0.40379 0.0
C282 C 0.38465 0.45124 0.26862 0.0
C283 C 0.3566 0.39843 0.30981 0.0
C284 C 0.40675 0.46626 0.22816 0.0
C285 C 0.42211 0.44577 0.18348 0.0
C286 C 0.37799 0.41537 0.2648 0.0
C287 C 0.41435 0.41008 0.18046 0.0
C288 C 0.35329 0.36211 0.31113 0.0
C289 C 0.32456 0.40426 0.39892 0.0
N290 N 0.39297 0.39596 0.22086 0.0
N291 N 0.34163 0.41827 0.35313 0.0
H292 H 0.13995 0.80149 0.82271 0.0
H293 H 0.08094 0.9813 0.68454 0.0
H294 H 0.17825 0.90162 0.88635 0.0
H295 H 0.0594 0.8826 0.59515 0.0
H296 H 0.11665 0.95165 0.75894 0.0
H297 H 0.11161 0.82957 0.73703 0.0
C298 C 0.14294 0.82926 0.81797 0.0
C299 C 0.161 0.84941 0.86188 0.0
C300 C 0.10427 0.93643 0.72294 0.0
C301 C 0.12836 0.88159 0.76522 0.0
C302 C 0.08365 0.95335 0.68061 0.0
C303 C 0.067 0.93439 0.63369 0.0
C304 C 0.10809 0.90019 0.71883 0.0
C305 C 0.07173 0.89822 0.63068 0.0
C306 C 0.12661 0.84528 0.7694 0.0
C307 C 0.16396 0.88528 0.85398 0.0
N308 N 0.0917 0.88222 0.67296 0.0
N309 N 0.14747 0.90026 0.807 0.0
loop_
_geom_bond_atom_site_label_1
_geom_bond_atom_site_label_2
_geom_bond_distance
_geom_bond_site_symmetry_2
_ccdc_geom_bond_type
H0 C5 0.930 . S
H1 C8 0.930 . S
H2 C10 0.930 . S
H3 C4 1.016 . S
C4 H3 1.016 . S
C4 N11 1.286 1_554 S
C5 H0 0.930 . S
C5 C6 1.397 . S
C5 C7 1.361 1_556 S
C6 C5 1.397 . S
C6 C10 1.390 1_556 S
C7 C5 1.361 1_554 S
C7 C8 1.393 . S
C7 N11 1.413 1_554 S
C8 H1 0.930 . S
C8 C7 1.393 . S
C8 C9 1.399 . S
C9 C8 1.399 . S
C9 C10 1.381 . S
C10 H2 0.930 . S
C10 C6 1.390 1_554 S
C10 C9 1.381 . S
N11 C4 1.286 1_556 S
N11 C7 1.413 1_556 S
H12 C17 0.930 . S
H13 C20 0.930 . S
H14 C22 0.930 . S
H15 C16 1.016 . S
C16 H15 1.016 . S
C16 N23 1.286 . S
C17 H12 0.930 . S
C17 C18 1.397 . S
C17 C19 1.361 . S
C18 C17 1.397 . S
C18 C22 1.390 . S
C19 C17 1.361 . S
C19 C20 1.393 . S
C19 N23 1.413 . S
C20 H13 0.930 . S
C20 C19 1.393 . S
C20 C21 1.399 . S
C21 C20 1.399 . S
C21 C22 1.381 . S
C22 H14 0.930 . S
C22 C18 1.390 . S
C22 C21 1.381 . S
N23 C16 1.286 . S
N23 C19 1.413 . S
H24 C29 0.930 . S
H25 C32 0.930 . S
H26 C34 0.930 . S
H27 C28 1.016 . S
C28 H27 1.016 . S
C28 N35 1.286 1_554 S
C29 H24 0.930 . S
C29 C30 1.397 . S
C29 C31 1.361 1_556 S
C30 C29 1.397 . S
C30 C34 1.390 1_556 S
C31 C29 1.361 1_554 S
C31 C32 1.393 . S
C31 N35 1.413 1_554 S
C32 H25 0.930 . S
C32 C31 1.393 . S
C32 C33 1.399 . S
C33 C32 1.399 . S
C33 C34 1.381 . S
C34 H26 0.930 . S
C34 C30 1.390 1_554 S
C34 C33 1.381 . S
N35 C28 1.286 1_556 S
N35 C31 1.413 1_556 S
H36 C41 0.930 . S
H37 C44 0.930 . S
H38 C46 0.930 . S
H39 C40 1.016 . S
C40 H39 1.016 . S
C40 N47 1.286 . S
C41 H36 0.930 . S
C41 C42 1.397 . S
C41 C43 1.361 . S
C42 C41 1.397 . S
C42 C46 1.390 . S
C43 C41 1.361 . S
C43 C44 1.393 . S
C43 N47 1.413 . S
C44 H37 0.930 . S
C44 C43 1.393 . S
C44 C45 1.399 . S
C45 C44 1.399 . S
C45 C46 1.381 . S
C46 H38 0.930 . S
C46 C42 1.390 . S
C46 C45 1.381 . S
N47 C40 1.286 . S
N47 C43 1.413 . S
O48 Zn49 1.953 1_565 S
O48 C64 1.225 . S
Zn49 O48 1.953 1_545 S
Zn49 O50 1.949 1_655 S
Zn49 O56 1.919 . S
Zn49 O61 1.924 . S
O50 Zn49 1.949 1_455 S
O50 Zn51 1.923 . S
O50 Zn52 1.950 1_545 S
O50 Zn53 1.945 . S
Zn51 O50 1.923 . S
Zn51 O54 1.933 . S
Zn51 O57 1.941 1_455 S
Zn51 O58 1.965 1_545 S
Zn52 O50 1.950 1_565 S
Zn52 O59 1.938 . S
Zn52 O60 1.906 . S
Zn52 O70 1.953 1_455 S
Zn53 O50 1.945 . S
Zn53 O55 1.932 . S
Zn53 O62 1.977 1_545 S
Zn53 O63 1.910 1_455 S
O54 Zn51 1.933 . S
O54 C65 1.226 . S
O55 Zn53 1.932 . S
O55 C65 1.307 . S
O56 Zn49 1.919 . S
O56 C67 1.253 . S
O57 Zn51 1.941 1_655 S
O57 C67 1.283 . S
O58 Zn51 1.965 1_565 S
O58 C66 1.303 . S
O59 Zn52 1.938 . S
O59 C66 1.247 . S
O60 Zn52 1.906 . S
O60 C68 1.304 . S
O61 Zn49 1.924 . S
O61 C69 1.311 . S
O62 Zn53 1.977 1_565 S
O62 C68 1.272 . S
O63 Zn53 1.910 1_655 S
O63 C69 1.231 . S
C64 O48 1.225 . S
C64 O70 1.298 . S
C65 O54 1.226 . S
C65 O55 1.307 . S
C66 O58 1.303 . S
C66 O59 1.247 . S
C67 O56 1.253 . S
C67 O57 1.283 . S
C68 O60 1.304 . S
C68 O62 1.272 . S
C69 O61 1.311 . S
C69 O63 1.231 . S
O70 Zn52 1.953 1_655 S
O70 C64 1.298 . S
O71 Zn72 1.953 . S
O71 C87 1.225 . S
Zn72 O71 1.953 . S
Zn72 O73 1.949 . S
Zn72 O79 1.919 1_554 S
Zn72 O84 1.924 . S
O73 Zn72 1.949 . S
O73 Zn74 1.923 1_554 S
O73 Zn75 1.950 . S
O73 Zn76 1.945 . S
Zn74 O73 1.923 1_556 S
Zn74 O77 1.933 . S
Zn74 O80 1.941 . S
Zn74 O81 1.965 . S
Zn75 O73 1.950 . S
Zn75 O82 1.938 1_554 S
Zn75 O83 1.906 . S
Zn75 O93 1.953 . S
Zn76 O73 1.945 . S
Zn76 O78 1.932 . S
Zn76 O85 1.977 . S
Zn76 O86 1.910 . S
O77 Zn74 1.933 . S
O77 C88 1.226 1_556 S
O78 Zn76 1.932 . S
O78 C88 1.307 . S
O79 Zn72 1.919 1_556 S
O79 C90 1.253 . S
O80 Zn74 1.941 . S
O80 C90 1.283 . S
O81 Zn74 1.965 . S
O81 C89 1.303 . S
O82 Zn75 1.938 1_556 S
O82 C89 1.247 . S
O83 Zn75 1.906 . S
O83 C91 1.304 . S
O84 Zn72 1.924 . S
O84 C92 1.311 . S
O85 Zn76 1.977 . S
O85 C91 1.272 . S
O86 Zn76 1.910 . S
O86 C92 1.231 . S
C87 O71 1.225 . S
C87 O93 1.298 . S
C88 O77 1.226 1_554 S
C88 O78 1.307 . S
C89 O81 1.303 . S
C89 O82 1.247 . S
C90 O79 1.253 . S
C90 O80 1.283 . S
C91 O83 1.304 . S
C91 O85 1.272 . S
C92 O84 1.311 . S
C92 O86 1.231 . S
O93 Zn75 1.953 . S
O93 C87 1.298 . S
H94 C100 0.930 . S
H95 C104 0.930 . S
H96 C109 0.929 . S
H97 C107 0.929 . S
H98 C102 0.929 . S
H99 C108 0.929 . S
C100 H94 0.930 . S
C100 C101 1.367 . S
C100 C108 1.378 . S
C101 C100 1.367 . S
C101 C109 1.433 . S
C102 H98 0.929 . S
C102 C104 1.378 . S
C102 C106 1.350 . S
C103 C106 1.463 . S
C103 C108 1.350 . S
C103 N111 1.427 . S
C104 H95 0.930 . S
C104 C102 1.378 . S
C104 C105 1.367 . S
C105 C104 1.367 . S
C105 C107 1.433 . S
C106 C102 1.350 . S
C106 C103 1.463 . S
C106 N110 1.427 . S
C107 H97 0.929 . S
C107 C105 1.433 . S
C107 N110 1.384 . S
C108 H99 0.929 . S
C108 C100 1.378 . S
C108 C103 1.350 . S
C109 H96 0.929 . S
C109 C101 1.433 . S
C109 N111 1.384 . S
N110 C106 1.427 . S
N110 C107 1.384 . S
N111 C103 1.427 . S
N111 C109 1.384 . S
H112 C118 0.930 . S
H113 C122 0.930 . S
H114 C127 0.929 . S
H115 C125 0.929 . S
H116 C120 0.929 . S
H117 C126 0.929 . S
C118 H112 0.930 . S
C118 C119 1.367 . S
C118 C126 1.378 . S
C119 C118 1.367 . S
C119 C127 1.433 1_554 S
C120 H116 0.929 . S
C120 C122 1.378 . S
C120 C124 1.350 1_556 S
C121 C124 1.463 . S
C121 C126 1.350 . S
C121 N129 1.427 1_554 S
C122 H113 0.930 . S
C122 C120 1.378 . S
C122 C123 1.367 1_556 S
C123 C122 1.367 1_554 S
C123 C125 1.433 . S
C124 C120 1.350 1_554 S
C124 C121 1.463 . S
C124 N128 1.427 . S
C125 H115 0.929 . S
C125 C123 1.433 . S
C125 N128 1.384 . S
C126 H117 0.929 . S
C126 C118 1.378 . S
C126 C121 1.350 . S
C127 H114 0.929 . S
C127 C119 1.433 1_556 S
C127 N129 1.384 . S
N128 C124 1.427 . S
N128 C125 1.384 . S
N129 C121 1.427 1_556 S
N129 C127 1.384 . S
H130 C136 0.930 . S
H131 C140 0.930 . S
H132 C145 0.929 . S
H133 C143 0.929 . S
H134 C138 0.929 . S
H135 C144 0.929 . S
C136 H130 0.930 . S
C136 C137 1.367 . S
C136 C144 1.378 . S
C137 C136 1.367 . S
C137 C145 1.433 . S
C138 H134 0.929 . S
C138 C140 1.378 . S
C138 C142 1.350 . S
C139 C142 1.463 . S
C139 C144 1.350 . S
C139 N147 1.427 . S
C140 H131 0.930 . S
C140 C138 1.378 . S
C140 C141 1.367 . S
C141 C140 1.367 . S
C141 C143 1.433 . S
C142 C138 1.350 . S
C142 C139 1.463 . S
C142 N146 1.427 . S
C143 H133 0.929 . S
C143 C141 1.433 . S
C143 N146 1.384 . S
C144 H135 0.929 . S
C144 C136 1.378 . S
C144 C139 1.350 . S
C145 H132 0.929 . S
C145 C137 1.433 . S
C145 N147 1.384 . S
N146 C142 1.427 . S
N146 C143 1.384 . S
N147 C139 1.427 . S
N147 C145 1.384 . S
H148 C154 0.930 . S
H149 C158 0.930 . S
H150 C163 0.929 . S
H151 C161 0.929 . S
H152 C156 0.929 . S
H153 C162 0.929 . S
C154 H148 0.930 . S
C154 C155 1.367 1_556 S
C154 C162 1.378 . S
C155 C154 1.367 1_554 S
C155 C163 1.433 . S
C156 H152 0.929 . S
C156 C158 1.378 . S
C156 C160 1.350 . S
C157 C160 1.463 . S
C157 C162 1.350 1_554 S
C157 N165 1.427 . S
C158 H149 0.930 . S
C158 C156 1.378 . S
C158 C159 1.367 . S
C159 C158 1.367 . S
C159 C161 1.433 1_554 S
C160 C156 1.350 . S
C160 C157 1.463 . S
C160 N164 1.427 1_554 S
C161 H151 0.929 . S
C161 C159 1.433 1_556 S
C161 N164 1.384 . S
C162 H153 0.929 . S
C162 C154 1.378 . S
C162 C157 1.350 1_556 S
C163 H150 0.929 . S
C163 C155 1.433 . S
C163 N165 1.384 . S
N164 C160 1.427 1_556 S
N164 C161 1.384 . S
N165 C157 1.427 . S
N165 C163 1.384 . S
H166 C172 0.930 . S
H167 C176 0.930 . S
H168 C181 0.929 . S
H169 C179 0.929 . S
H170 C174 0.929 . S
H171 C180 0.929 . S
C172 H166 0.930 . S
C172 C173 1.367 . S
C172 C180 1.378 . S
C173 C172 1.367 . S
C173 C181 1.433 . S
C174 H170 0.929 . S
C174 C176 1.378 . S
C174 C178 1.350 . S
C175 C178 1.463 . S
C175 C180 1.350 . S
C175 N183 1.427 . S
C176 H167 0.930 . S
C176 C174 1.378 . S
C176 C177 1.367 . S
C177 C176 1.367 . S
C177 C179 1.433 . S
C178 C174 1.350 . S
C178 C175 1.463 . S
C178 N182 1.427 . S
C179 H169 0.929 . S
C179 C177 1.433 . S
C179 N182 1.384 . S
C180 H171 0.929 . S
C180 C172 1.378 . S
C180 C175 1.350 . S
C181 H168 0.929 . S
C181 C173 1.433 . S
C181 N183 1.384 . S
N182 C178 1.427 . S
N182 C179 1.384 . S
N183 C175 1.427 . S
N183 C181 1.384 . S
H184 C190 0.930 . S
H185 C194 0.930 . S
H186 C199 0.929 . S
H187 C197 0.929 . S
H188 C192 0.929 . S
H189 C198 0.929 . S
C190 H184 0.930 . S
C190 C191 1.367 . S
C190 C198 1.378 . S
C191 C190 1.367 . S
C191 C199 1.433 . S
C192 H188 0.929 . S
C192 C194 1.378 . S
C192 C196 1.350 . S
C193 C196 1.463 . S
C193 C198 1.350 . S
C193 N201 1.427 . S
C194 H185 0.930 . S
C194 C192 1.378 . S
C194 C195 1.367 . S
C195 C194 1.367 . S
C195 C197 1.433 . S
C196 C192 1.350 . S
C196 C193 1.463 . S
C196 N200 1.427 . S
C197 H187 0.929 . S
C197 C195 1.433 . S
C197 N200 1.384 . S
C198 H189 0.929 . S
C198 C190 1.378 . S
C198 C193 1.350 . S
C199 H186 0.929 . S
C199 C191 1.433 . S
C199 N201 1.384 . S
N200 C196 1.427 . S
N200 C197 1.384 . S
N201 C193 1.427 . S
N201 C199 1.384 . S
H202 C208 0.930 . S
H203 C212 0.930 . S
H204 C217 0.929 . S
H205 C215 0.929 . S
H206 C210 0.929 . S
H207 C216 0.929 . S
C208 H202 0.930 . S
C208 C209 1.367 . S
C208 C216 1.378 . S
C209 C208 1.367 . S
C209 C217 1.433 . S
C210 H206 0.929 . S
C210 C212 1.378 . S
C210 C214 1.350 . S
C211 C214 1.463 . S
C211 C216 1.350 . S
C211 N219 1.427 . S
C212 H203 0.930 . S
C212 C210 1.378 . S
C212 C213 1.367 . S
C213 C212 1.367 . S
C213 C215 1.433 . S
C214 C210 1.350 . S
C214 C211 1.463 . S
C214 N218 1.427 . S
C215 H205 0.929 . S
C215 C213 1.433 . S
C215 N218 1.384 . S
C216 H207 0.929 . S
C216 C208 1.378 . S
C216 C211 1.350 . S
C217 H204 0.929 . S
C217 C209 1.433 . S
C217 N219 1.384 . S
N218 C214 1.427 . S
N218 C215 1.384 . S
N219 C211 1.427 . S
N219 C217 1.384 . S
H220 C226 0.930 . S
H221 C230 0.930 . S
H222 C235 0.929 . S
H223 C233 0.929 . S
H224 C228 0.929 . S
H225 C234 0.929 . S
C226 H220 0.930 . S
C226 C227 1.367 . S
C226 C234 1.378 . S
C227 C226 1.367 . S
C227 C235 1.433 . S
C228 H224 0.929 . S
C228 C230 1.378 . S
C228 C232 1.350 . S
C229 C232 1.463 . S
C229 C234 1.350 . S
C229 N237 1.427 . S
C230 H221 0.930 . S
C230 C228 1.378 . S
C230 C231 1.367 . S
C231 C230 1.367 . S
C231 C233 1.433 . S
C232 C228 1.350 . S
C232 C229 1.463 . S
C232 N236 1.427 . S
C233 H223 0.929 . S
C233 C231 1.433 . S
C233 N236 1.384 . S
C234 H225 0.929 . S
C234 C226 1.378 . S
C234 C229 1.350 . S
C235 H222 0.929 . S
C235 C227 1.433 . S
C235 N237 1.384 . S
N236 C232 1.427 . S
N236 C233 1.384 . S
N237 C229 1.427 . S
N237 C235 1.384 . S
H238 C244 0.930 . S
H239 C248 0.930 . S
H240 C253 0.929 . S
H241 C251 0.929 . S
H242 C246 0.929 . S
H243 C252 0.929 . S
C244 H238 0.930 . S
C244 C245 1.367 . S
C244 C252 1.378 . S
C245 C244 1.367 . S
C245 C253 1.433 . S
C246 H242 0.929 . S
C246 C248 1.378 . S
C246 C250 1.350 . S
C247 C250 1.463 . S
C247 C252 1.350 . S
C247 N255 1.427 . S
C248 H239 0.930 . S
C248 C246 1.378 . S
C248 C249 1.367 . S
C249 C248 1.367 . S
C249 C251 1.433 . S
C250 C246 1.350 . S
C250 C247 1.463 . S
C250 N254 1.427 . S
C251 H241 0.929 . S
C251 C249 1.433 . S
C251 N254 1.384 . S
C252 H243 0.929 . S
C252 C244 1.378 . S
C252 C247 1.350 . S
C253 H240 0.929 . S
C253 C245 1.433 . S
C253 N255 1.384 . S
N254 C250 1.427 . S
N254 C251 1.384 . S
N255 C247 1.427 . S
N255 C253 1.384 . S
H256 C262 0.930 . S
H257 C266 0.930 . S
H258 C271 0.929 . S
H259 C269 0.929 . S
H260 C264 0.929 . S
H261 C270 0.929 . S
C262 H256 0.930 . S
C262 C263 1.367 . S
C262 C270 1.378 . S
C263 C262 1.367 . S
C263 C271 1.433 . S
C264 H260 0.929 . S
C264 C266 1.378 . S
C264 C268 1.350 . S
C265 C268 1.463 . S
C265 C270 1.350 . S
C265 N273 1.427 . S
C266 H257 0.930 . S
C266 C264 1.378 . S
C266 C267 1.367 . S
C267 C266 1.367 . S
C267 C269 1.433 . S
C268 C264 1.350 . S
C268 C265 1.463 . S
C268 N272 1.427 . S
C269 H259 0.929 . S
C269 C267 1.433 . S
C269 N272 1.384 . S
C270 H261 0.929 . S
C270 C262 1.378 . S
C270 C265 1.350 . S
C271 H258 0.929 . S
C271 C263 1.433 . S
C271 N273 1.384 . S
N272 C268 1.427 . S
N272 C269 1.384 . S
N273 C265 1.427 . S
N273 C271 1.384 . S
H274 C280 0.930 . S
H275 C284 0.930 . S
H276 C289 0.929 . S
H277 C287 0.929 . S
H278 C282 0.929 . S
H279 C288 0.929 . S
C280 H274 0.930 . S
C280 C281 1.367 . S
C280 C288 1.378 . S
C281 C280 1.367 . S
C281 C289 1.433 . S
C282 H278 0.929 . S
C282 C284 1.378 . S
C282 C286 1.350 . S
C283 C286 1.463 . S
C283 C288 1.350 . S
C283 N291 1.427 . S
C284 H275 0.930 . S
C284 C282 1.378 . S
C284 C285 1.367 . S
C285 C284 1.367 . S
C285 C287 1.433 . S
C286 C282 1.350 . S
C286 C283 1.463 . S
C286 N290 1.427 . S
C287 H277 0.929 . S
C287 C285 1.433 . S
C287 N290 1.384 . S
C288 H279 0.929 . S
C288 C280 1.378 . S
C288 C283 1.350 . S
C289 H276 0.929 . S
C289 C281 1.433 . S
C289 N291 1.384 . S
N290 C286 1.427 . S
N290 C287 1.384 . S
N291 C283 1.427 . S
N291 C289 1.384 . S
H292 C298 0.930 . S
H293 C302 0.930 . S
H294 C307 0.929 . S
H295 C305 0.929 . S
H296 C300 0.929 . S
H297 C306 0.929 . S
C298 H292 0.930 . S
C298 C299 1.367 . S
C298 C306 1.378 . S
C299 C298 1.367 . S
C299 C307 1.433 . S
C300 H296 0.929 . S
C300 C302 1.378 . S
C300 C304 1.350 . S
C301 C304 1.463 . S
C301 C306 1.350 . S
C301 N309 1.427 . S
C302 H293 0.930 . S
C302 C300 1.378 . S
C302 C303 1.367 . S
C303 C302 1.367 . S
C303 C305 1.433 . S
C304 C300 1.350 . S
C304 C301 1.463 . S
C304 N308 1.427 . S
C305 H295 0.929 . S
C305 C303 1.433 . S
C305 N308 1.384 . S
C306 H297 0.929 . S
C306 C298 1.378 . S
C306 C301 1.350 . S
C307 H294 0.929 . S
C307 C299 1.433 . S
C307 N309 1.384 . S
N308 C304 1.427 . S
N308 C305 1.384 . S
N309 C301 1.427 . S
N309 C307 1.384 . S
C105 C65 1.487 . S
C101 C40 1.486 . S
C119 C4 1.483 . S
C123 C88 1.488 . S
C137 C16 1.513 . S
C141 C64 1.521 . S
C155 C28 1.517 . S
C159 C87 1.520 . S
C177 C68 1.474 . S
C173 C9 1.491 . S
C195 C90 1.501 . S
C191 C18 1.545 . S
C209 C33 1.517 . S
C213 C69 1.472 . S
C227 C45 1.528 . S
C231 C89 1.483 . S
C249 C92 1.404 . S
C245 C21 1.444 . S
C267 C67 1.422 . S
C263 C30 1.479 . S
C285 C91 1.415 . S
C281 C42 1.445 . S
C299 C6 1.464 . S
C303 C66 1.417 . S
