# Generated by pormake.
# Topology anh, (6,3)-cn, num edge types: 1
# Building blocks:
#     Node 0, Type 0, BuildingBlock: BETFAJ_clean_sbu_0, # of connection points: 6
#     Node 1, Type 0, BuildingBlock: BETFAJ_clean_sbu_0, # of connection points: 6
#     Node 2, Type 0, BuildingBlock: BETFAJ_clean_sbu_0, # of connection points: 6
#     Node 3, Type 1, BuildingBlock: QEWDON_clean_linker_0, # of connection points: 3
#     Node 4, Type 1, BuildingBlock: QEWDON_clean_linker_0, # of connection points: 3
#     Node 5, Type 1, BuildingBlock: QEWDON_clean_linker_0, # of connection points: 3
#     Node 6, Type 1, BuildingBlock: QEWDON_clean_linker_0, # of connection points: 3
#     Node 7, Type 1, BuildingBlock: QEWDON_clean_linker_0, # of connection points: 3
#     Node 8, Type 1, BuildingBlock: QEWDON_clean_linker_0, # of connection points: 3
#     Edge 9, Type (0, 1), BuildingBlock: OJICUG_clean_linker_0, # of connection points: 2
#     Edge 10, Type (0, 1), BuildingBlock: OJICUG_clean_linker_0, # of connection points: 2
#     Edge 11, Type (0, 1), BuildingBlock: OJICUG_clean_linker_0, # of connection points: 2
#     Edge 12, Type (0, 1), BuildingBlock: OJICUG_clean_linker_0, # of connection points: 2
#     Edge 13, Type (0, 1), BuildingBlock: OJICUG_clean_linker_0, # of connection points: 2
#     Edge 14, Type (0, 1), BuildingBlock: OJICUG_clean_linker_0, # of connection points: 2
#     Edge 15, Type (0, 1), BuildingBlock: OJICUG_clean_linker_0, # of connection points: 2
#     Edge 16, Type (0, 1), BuildingBlock: OJICUG_clean_linker_0, # of connection points: 2
#     Edge 17, Type (0, 1), BuildingBlock: OJICUG_clean_linker_0, # of connection points: 2
#     Edge 18, Type (0, 1), BuildingBlock: OJICUG_clean_linker_0, # of connection points: 2
#     Edge 19, Type (0, 1), BuildingBlock: OJICUG_clean_linker_0, # of connection points: 2
#     Edge 20, Type (0, 1), BuildingBlock: OJICUG_clean_linker_0, # of connection points: 2
#     Edge 21, Type (0, 1), BuildingBlock: OJICUG_clean_linker_0, # of connection points: 2
#     Edge 22, Type (0, 1), BuildingBlock: OJICUG_clean_linker_0, # of connection points: 2
#     Edge 23, Type (0, 1), BuildingBlock: OJICUG_clean_linker_0, # of connection points: 2
#     Edge 24, Type (0, 1), BuildingBlock: OJICUG_clean_linker_0, # of connection points: 2
#     Edge 25, Type (0, 1), BuildingBlock: OJICUG_clean_linker_0, # of connection points: 2
#     Edge 26, Type (0, 1), BuildingBlock: OJICUG_clean_linker_0, # of connection points: 2
# Relax obj value: 0.191
# Max RMSD: 0.202
# Mean RMSD: 0.130
data_MOF--net-anh--node1-BETFAJ_clean_sbu_0--node2-QEWDON_clean_linker_0--edge1-OJICUG_clean_linker_0
_symmetry_space_group_name_H-M    P1
_symmetry_Int_Tables_number       1
_symmetry_cell_setting            triclinic
loop_
_symmetry_equiv_pos_as_xyz
'x, y, z'
_cell_length_a     24.719127
_cell_length_b     31.468253
_cell_length_c     35.586202
_cell_angle_alpha  95.693694
_cell_angle_beta   91.661658
_cell_angle_gamma 132.915
loop_
_atom_site_label
_atom_site_type_symbol
_atom_site_fract_x
_atom_site_fract_y
_atom_site_fract_z
_atom_type_partial_charge
Sm0 Sm 0.18773 0.54483 0.14032 0.0
Sm1 Sm 1.08376 0.55829 0.16166 0.0
C2 C 0.29876 0.55988 0.11631 0.0
C3 C 0.37862 0.61204 0.12665 0.0
C4 C 0.43039 0.62263 0.10367 0.0
C5 C 0.50658 0.67021 0.1154 0.0
C6 C 0.53194 0.70795 0.15028 0.0
C7 C 0.47944 0.69905 0.17202 0.0
C8 C 0.40349 0.65138 0.16038 0.0
C9 C 0.17348 0.54956 0.2169 0.0
C10 C 0.25591 0.68061 0.15881 0.0
C11 C 0.99822 0.5659 0.19725 0.0
C12 C 0.91737 0.52356 0.19659 0.0
C13 C 0.87282 0.4661 0.17671 0.0
C14 C 0.79554 0.42893 0.17013 0.0
C15 C 0.76221 0.44925 0.1829 0.0
C16 C 0.80682 0.50445 0.20667 0.0
C17 C 0.88396 0.54146 0.21322 0.0
C18 C 1.07003 0.52741 0.08366 0.0
C19 C 1.02033 0.42635 0.14467 0.0
O20 O 0.26147 0.56706 0.0959 0.0
O21 O 0.26447 0.53119 0.14421 0.0
O22 O 0.18035 0.58152 0.19515 0.0
O23 O 0.17523 0.51285 0.19864 0.0
O24 O 0.26893 0.64668 0.14995 0.0
O25 O 0.18865 0.65768 0.16511 0.0
O26 O 1.03061 0.55083 0.21267 0.0
O27 O 1.02261 0.58662 0.16541 0.0
O28 O 0.12968 0.56371 0.10628 0.0
O29 O 1.01382 0.5068 0.10201 0.0
O30 O 1.02078 0.46206 0.16789 0.0
O31 O 1.07463 0.44844 0.12336 0.0
H32 H 0.41211 0.59297 0.07746 0.0
H33 H 0.54556 0.6751 0.09831 0.0
H34 H 0.49718 0.72729 0.1989 0.0
H35 H 0.36426 0.64401 0.17855 0.0
H36 H 0.89811 0.4514 0.16414 0.0
H37 H 0.7628 0.38667 0.152 0.0
H38 H 0.78359 0.52206 0.2168 0.0
H39 H 0.91773 0.58544 0.22905 0.0
Sm40 Sm 0.71664 0.06534 0.47843 0.0
Sm41 Sm 0.61324 0.0812 0.4644 0.0
C42 C 0.78339 0.03174 0.50221 0.0
C43 C 0.76062 0.97506 0.50513 0.0
C44 C 0.69648 0.93141 0.52135 0.0
C45 C 0.67379 0.8769 0.52208 0.0
C46 C 0.71431 0.86477 0.50626 0.0
C47 C 0.77896 0.90878 0.49052 0.0
C48 C 0.80201 0.96346 0.49011 0.0
C49 C 0.68782 0.06571 0.40298 0.0
C50 C 0.53503 0.94768 0.46144 0.0
C51 C 0.54319 0.11352 0.44423 0.0
C52 C 0.5544 0.16576 0.45493 0.0
C53 C 0.62582 0.22293 0.4599 0.0
C54 C 0.63593 0.27155 0.47333 0.0
C55 C 0.57499 0.26375 0.48246 0.0
C56 C 0.50346 0.2066 0.47666 0.0
C57 C 0.4933 0.15813 0.46294 0.0
C58 C 0.63739 0.07752 0.53931 0.0
C59 C 0.79673 0.19864 0.47673 0.0
O60 O 0.7573 0.04757 0.52503 0.0
O61 O 0.78328 0.04263 0.46773 0.0
O62 O 0.64028 0.03937 0.42569 0.0
O63 O 0.75356 0.09177 0.41929 0.0
O64 O 0.59965 0.97183 0.48004 0.0
O65 O 0.52886 0.98085 0.44587 0.0
O66 O 0.59185 0.11999 0.42473 0.0
O67 O 0.52454 0.08166 0.47093 0.0
O68 O 0.68798 0.1064 0.51818 0.0
O69 O 0.57279 0.05102 0.52146 0.0
O70 O 0.72955 0.17466 0.46246 0.0
O71 O 0.80644 0.16636 0.49021 0.0
H72 H 0.66304 0.93891 0.53288 0.0
H73 H 0.62319 0.84357 0.53391 0.0
H74 H 0.8115 0.90077 0.47832 0.0
H75 H 0.8516 0.99644 0.47747 0.0
H76 H 0.67406 0.23 0.45429 0.0
H77 H 0.69173 0.31501 0.47781 0.0
H78 H 0.45536 0.19934 0.48304 0.0
H79 H 0.43784 0.11444 0.4594 0.0
Sm80 Sm 0.70418 0.62137 0.83255 0.0
Sm81 Sm 0.59337 0.4959 0.83807 0.0
C82 C 0.77063 0.72376 0.81056 0.0
C83 C 0.75367 0.76056 0.81024 0.0
C84 C 0.78588 0.80258 0.78585 0.0
C85 C 0.76836 0.83655 0.78479 0.0
C86 C 0.71826 0.82911 0.80816 0.0
C87 C 0.68592 0.78659 0.83241 0.0
C88 C 0.70347 0.75279 0.83345 0.0
C89 C 0.69512 0.60121 0.90583 0.0
C90 C 0.52311 0.5555 0.84114 0.0
C91 C 0.5276 0.38935 0.85054 0.0
C92 C 0.54414 0.35354 0.83747 0.0
C93 C 0.52919 0.31184 0.85849 0.0
C94 C 0.54692 0.27921 0.8462 0.0
C95 C 0.57953 0.28754 0.81252 0.0
C96 C 0.59524 0.32997 0.79189 0.0
C97 C 0.57819 0.3628 0.80433 0.0
C98 C 0.60619 0.51877 0.76475 0.0
C99 C 0.77619 0.56309 0.83877 0.0
O100 O 0.72551 0.67354 0.78734 0.0
O101 O 0.7877 0.71908 0.84406 0.0
O102 O 0.63958 0.5742 0.88075 0.0
O103 O 0.75747 0.6423 0.89328 0.0
O104 O 0.58995 0.60029 0.83125 0.0
O105 O 0.51137 0.50958 0.8496 0.0
O106 O 0.57897 0.43672 0.87536 0.0
O107 O 0.50097 0.3988 0.82383 0.0
O108 O 0.66004 0.54324 0.79033 0.0
O109 O 0.54299 0.48014 0.77719 0.0
O110 O 0.70712 0.51747 0.84543 0.0
O111 O 0.7899 0.6095 0.8294 0.0
H112 H 0.82452 0.80905 0.76758 0.0
H113 H 0.79465 0.86905 0.76597 0.0
H114 H 0.64598 0.7787 0.85024 0.0
H115 H 0.67743 0.72028 0.85226 0.0
H116 H 0.50379 0.3045 0.88437 0.0
H117 H 0.53385 0.2467 0.86264 0.0
H118 H 0.62139 0.33817 0.76621 0.0
H119 H 0.59175 0.39562 0.78802 0.0
H120 H 0.68255 0.10154 0.22539 0.0
C121 C 0.63703 0.05526 0.21448 0.0
C122 C 0.59947 1.01603 0.24085 0.0
C123 C 0.6141 0.03522 0.17479 0.0
H124 H 0.50794 0.92596 0.24784 0.0
C125 C 0.53706 0.95628 0.22763 0.0
C126 C 0.51286 0.93433 0.18871 0.0
C127 C 0.55288 0.97349 0.16243 0.0
C128 C 0.65091 0.07839 0.1466 0.0
H129 H 0.53487 0.95522 0.13247 0.0
C130 C 0.72399 0.13635 0.15514 0.0
C131 C 0.75544 0.17537 0.12796 0.0
C132 C 0.61083 0.06219 0.11058 0.0
H133 H 0.55394 0.02058 0.10283 0.0
C134 C 0.64221 0.1 0.08377 0.0
H135 H 0.75718 0.15131 0.18232 0.0
C136 C 0.71364 0.15575 0.0922 0.0
H137 H 0.73546 0.18445 0.07095 0.0
H138 H 0.61017 0.08629 0.05634 0.0
H139 H 0.59508 0.56832 0.59162 0.0
C140 C 0.60137 0.53915 0.57938 0.0
C141 C 0.61658 0.51475 0.60355 0.0
C142 C 0.59132 0.52404 0.53955 0.0
H143 H 0.63082 0.45477 0.60647 0.0
C144 C 0.6213 0.47489 0.58776 0.0
C145 C 0.60987 0.45834 0.54817 0.0
C146 C 0.59663 0.48411 0.52428 0.0
C147 C 0.56995 0.54624 0.5137 0.0
H148 H 0.58757 0.47126 0.49367 0.0
C149 C 0.60582 0.6058 0.5193 0.0
C150 C 0.58692 0.6264 0.49349 0.0
C151 C 0.51338 0.50741 0.48271 0.0
H152 H 0.48355 0.46116 0.47811 0.0
C153 C 0.49403 0.52758 0.45745 0.0
H154 H 0.64988 0.63638 0.54285 0.0
C155 C 0.53074 0.58668 0.4626 0.0
H156 H 0.51461 0.60129 0.44262 0.0
H157 H 0.45039 0.49725 0.43374 0.0
H158 H 0.14885 0.54024 0.9122 0.0
C159 C 0.11381 0.5453 0.89931 0.0
C160 C 1.06439 0.54118 0.92163 0.0
C161 C 0.11756 0.55432 0.86107 0.0
H162 H 0.97845 0.54245 0.92334 0.0
C163 C 1.01512 0.54495 0.90555 0.0
C164 C 1.01301 0.55365 0.86771 0.0
C165 C 1.066 0.55924 0.84572 0.0
C166 C 0.17366 0.55673 0.83822 0.0
H167 H 1.06543 0.56659 0.81682 0.0
C168 C 0.23048 0.55698 0.85348 0.0
C169 C 0.27967 0.55918 0.8296 0.0
C170 C 0.1693 0.55774 0.79886 0.0
H171 H 0.12903 0.55642 0.78457 0.0
C172 C 0.21579 0.55971 0.77609 0.0
H173 H 0.23789 0.55655 0.88344 0.0
C174 C 0.26943 0.56062 0.79096 0.0
H175 H 0.30346 0.56209 0.77153 0.0
H176 H 0.20996 0.56044 0.74595 0.0
H177 H 0.11734 0.52536 0.39519 0.0
C178 C 0.16561 0.57104 0.40614 0.0
C179 C 0.20714 0.60916 0.37975 0.0
C180 C 0.18398 0.59232 0.44577 0.0
H181 H 0.29866 0.69876 0.37233 0.0
C182 C 0.26692 0.66939 0.39276 0.0
C183 C 0.28714 0.69254 0.43157 0.0
C184 C 0.2473 0.65367 0.45801 0.0
C185 C 0.13508 0.55167 0.47384 0.0
H186 H 0.26541 0.67219 0.48793 0.0
C187 C 1.08515 0.48906 0.46506 0.0
C188 C 1.03915 0.45268 0.49177 0.0
C189 C 0.13572 0.57555 0.50982 0.0
H190 H 0.16883 0.62207 0.5178 0.0
C191 C 1.09174 0.53974 0.53632 0.0
H192 H 1.08201 0.46808 0.43801 0.0
C193 C 1.04419 0.479 0.52752 0.0
H194 H 1.0096 0.45222 0.54842 0.0
H195 H 1.0936 0.55927 0.56374 0.0
H196 H 0.63526 0.02305 0.71144 0.0
C197 C 0.63826 0.05742 0.72431 0.0
C198 C 0.65303 0.09829 0.70229 0.0
C199 C 0.62312 0.05865 0.76198 0.0
H200 H 0.66332 0.1717 0.70097 0.0
C201 C 0.65333 0.14109 0.71835 0.0
C202 C 0.63623 0.14229 0.75561 0.0
C203 C 0.62299 0.10169 0.7774 0.0
C204 C 0.59978 1.01158 0.78399 0.0
H205 H 0.60932 0.10188 0.80601 0.0
C206 C 0.63534 0.9905 0.78362 0.0
C207 C 0.61244 0.94639 0.80514 0.0
C208 C 0.53992 0.98663 0.8053 0.0
H209 H 0.50985 1.00029 0.80537 0.0
C210 C 0.51689 0.94285 0.82624 0.0
H211 H 0.68167 1.00928 0.7675 0.0
C212 C 0.55282 0.92297 0.82631 0.0
H213 H 0.53302 0.88838 0.84254 0.0
H214 H 0.47058 0.92396 0.84236 0.0
H215 H 0.74692 0.66488 0.08255 0.0
C216 C 0.71974 0.62287 0.09121 0.0
C217 C 0.67963 0.5724 0.06354 0.0
C218 C 0.72674 0.6201 0.12983 0.0
H219 H 0.6145 0.47929 0.05335 0.0
C220 C 0.64388 0.51801 0.07484 0.0
C221 C 0.65172 0.51454 0.11344 0.0
C222 C 0.69289 0.56606 0.14076 0.0
C223 C 0.76714 0.67357 0.15866 0.0
H224 H 0.7012 0.56491 0.17056 0.0
C225 C 0.7491 0.70691 0.15735 0.0
C226 C 0.78012 0.7547 0.18591 0.0
C227 C 0.81962 0.68983 0.18841 0.0
H228 H 0.83474 0.66478 0.18999 0.0
C229 C 0.85244 0.73854 0.21656 0.0
H230 H 0.70601 0.69266 0.13538 0.0
C231 C 0.83184 0.77038 0.21577 0.0
H232 H 0.8546 0.806 0.23873 0.0
H233 H 0.89231 0.75057 0.23963 0.0
C234 C 0.62844 0.7449 0.20388 0.0
C235 C 0.61119 0.74806 0.16683 0.0
H236 H 0.70211 0.74848 0.24028 0.0
C237 C 0.66761 0.77763 0.14323 0.0
H238 H 0.58654 0.72301 0.22301 0.0
C239 C 0.73454 0.79294 0.15351 0.0
C240 C 0.74456 0.77779 0.18711 0.0
H241 H 0.65654 0.78222 0.11497 0.0
H242 H 0.7725 0.80732 0.13249 0.0
C243 C 0.69531 0.76012 0.21407 0.0
C244 C 0.85774 0.29537 0.45518 0.0
C245 C 0.8619 0.26312 0.47784 0.0
H246 H 0.91163 0.38031 0.44087 0.0
C247 C 0.92847 0.29354 0.50217 0.0
H248 H 0.80766 0.27352 0.43593 0.0
C249 C 0.9877 0.35475 0.5051 0.0
C250 C 0.9828 0.38703 0.48309 0.0
H251 H 0.93388 0.2704 0.52006 0.0
H252 H 1.03671 0.37726 0.52548 0.0
C253 C 0.91765 0.35649 0.4576 0.0
C254 C 0.68637 0.87696 0.77274 0.0
C255 C 0.69888 0.86483 0.80732 0.0
H256 H 0.64945 0.91248 0.74486 0.0
C257 C 0.68967 0.88508 0.84125 0.0
H258 H 0.69262 0.86183 0.74604 0.0
C259 C 0.66501 0.91391 0.84051 0.0
C260 C 0.64891 0.92346 0.80585 0.0
H261 H 0.7006 0.87798 0.86849 0.0
H262 H 0.65704 0.92775 0.86717 0.0
C263 C 0.66175 0.90606 0.77203 0.0
C264 C 0.68485 0.41873 0.12247 0.0
C265 C 0.69067 0.42443 0.16244 0.0
H266 H 0.66664 0.44426 0.0743 0.0
C267 C 0.64716 0.43137 0.18103 0.0
H268 H 0.71478 0.41074 0.10674 0.0
C269 C 0.61834 0.45033 0.16204 0.0
C270 C 0.63349 0.46222 0.12472 0.0
H271 H 0.64732 0.43291 0.21159 0.0
H272 H 0.59604 0.4651 0.17842 0.0
C273 C 0.65697 0.43831 0.10361 0.0
C274 C 0.47204 0.84606 0.47514 0.0
C275 C 0.46991 0.88251 0.45642 0.0
H276 H 0.41561 0.75754 0.48266 0.0
C277 C 0.40499 0.8558 0.43194 0.0
H278 H 0.52091 0.86497 0.49435 0.0
C279 C 0.34522 0.79459 0.42526 0.0
C280 C 0.34792 0.75796 0.44308 0.0
H281 H 0.4008 0.88207 0.4171 0.0
H282 H 0.29697 0.77561 0.40545 0.0
C283 C 0.41152 0.78449 0.46872 0.0
C284 C 0.62968 0.24095 0.82293 0.0
C285 C 0.59567 0.2514 0.79825 0.0
H286 H 0.6716 0.20034 0.82887 0.0
C287 C 0.57685 0.22695 0.7595 0.0
H288 H 0.64563 0.25973 0.85287 0.0
C289 C 0.59088 0.19243 0.74579 0.0
C290 C 0.62499 0.1818 0.77033 0.0
H291 H 0.54958 0.23339 0.73981 0.0
H292 H 0.57303 0.17281 0.716 0.0
C293 C 0.64452 0.20685 0.80912 0.0
C294 C 0.66145 0.77578 0.53585 0.0
C295 C 0.68683 0.80532 0.50421 0.0
H296 H 0.61094 0.69605 0.55743 0.0
C297 C 0.68295 0.7767 0.46984 0.0
H298 H 0.66424 0.79697 0.56276 0.0
C299 C 0.65223 0.71917 0.46678 0.0
C300 C 0.62541 0.68916 0.49811 0.0
H301 H 0.70149 0.79811 0.4449 0.0
H302 H 0.64854 0.69778 0.43968 0.0
C303 C 0.63155 0.71834 0.53291 0.0
C304 C 0.91287 0.60594 0.83548 0.0
C305 C 0.83778 0.56072 0.84271 0.0
H306 H 1.02481 0.63986 0.83615 0.0
C307 C 0.82201 0.51197 0.85483 0.0
H308 H 0.92955 0.64471 0.82616 0.0
C309 C 0.8771 0.50919 0.8605 0.0
C310 C 0.95242 0.55444 0.854 0.0
H311 H 0.76634 0.47551 0.86089 0.0
H312 H 0.86052 0.47112 0.87103 0.0
C313 C 0.96835 0.60287 0.84088 0.0
C314 C 0.31522 0.78431 0.18328 0.0
C315 C 0.31975 0.74605 0.16344 0.0
H316 H 0.3725 0.87338 0.20671 0.0
C317 C 0.38729 0.77106 0.14935 0.0
H318 H 0.26455 0.76697 0.19466 0.0
C319 C 0.44883 0.83237 0.15562 0.0
C320 C 0.4449 0.87022 0.17669 0.0
H321 H 0.39305 0.74317 0.13387 0.0
H322 H 0.50045 0.85 0.14533 0.0
C323 C 0.37711 0.84539 0.19013 0.0
C324 C 0.55141 0.31049 0.53144 0.0
C325 C 0.58602 0.31456 0.49953 0.0
H326 H 0.53208 0.35267 0.57172 0.0
C327 C 0.63074 0.36715 0.48428 0.0
H328 H 0.51735 0.27079 0.54409 0.0
C329 C 0.63932 0.41428 0.50019 0.0
C330 C 0.60425 0.40993 0.53199 0.0
H331 H 0.65788 0.37142 0.45962 0.0
H332 H 0.67339 0.45411 0.48769 0.0
C333 C 0.5606 0.35765 0.54754 0.0
C334 C 0.38842 0.51135 0.85182 0.0
C335 C 0.46138 0.55772 0.84251 0.0
H336 H 0.27634 0.47493 0.8564 0.0
C337 C 0.4739 0.60657 0.83351 0.0
H338 H 0.3742 0.47236 0.85889 0.0
C339 C 0.41739 0.6083 0.83264 0.0
C340 C 0.34394 0.56172 0.84111 0.0
H341 H 0.52771 0.6437 0.82601 0.0
H342 H 0.4308 0.64616 0.82373 0.0
C343 C 0.33151 0.51316 0.85097 0.0
C344 C 0.90712 0.33824 0.17011 0.0
C345 C 0.95733 0.36115 0.14279 0.0
H346 H 0.80553 0.26181 0.18756 0.0
C347 C 0.94448 0.32113 0.11307 0.0
H348 H 0.91515 0.36749 0.19359 0.0
C349 C 0.88133 0.26048 0.10965 0.0
C350 C 0.82965 0.23783 0.13615 0.0
H351 H 0.98167 0.3368 0.09155 0.0
H352 H 0.8715 0.23126 0.08543 0.0
C353 C 0.8445 0.27744 0.16698 0.0
C354 C 0.99957 0.49356 0.01811 0.0
C355 C 1.0675 0.52649 0.04171 0.0
H356 H 0.94496 0.47134 0.96184 0.0
C357 C 0.13397 0.56175 0.02519 0.0
H358 H 0.94737 0.46579 0.02989 0.0
C359 C 0.1328 0.56554 -0.0137 0.0
C360 C 1.06505 0.53396 0.96271 0.0
H361 H 0.18733 0.58781 0.04256 0.0
H362 H 0.18537 0.59479 0.975 0.0
C363 C 0.99833 0.49718 0.97911 0.0
C364 C 0.59378 0.02728 0.34735 0.0
C365 C 0.66795 0.05911 0.36183 0.0
H366 H 0.51447 0.98997 0.29789 0.0
C367 C 0.72129 0.08205 0.33648 0.0
H368 H 0.55157 1.0097 0.36622 0.0
C369 C 0.69994 0.07075 0.29712 0.0
C370 C 0.62488 0.03621 0.28254 0.0
H371 H 0.77897 0.10709 0.34692 0.0
H372 H 0.74144 0.0867 0.27802 0.0
C373 C 0.57251 1.01597 0.3082 0.0
C374 C 0.67803 0.54599 0.7092 0.0
C375 C 0.61319 0.52509 0.72424 0.0
H376 H 0.72963 0.55864 0.65858 0.0
C377 C 0.55279 0.50673 0.69975 0.0
H378 H 0.72533 0.56038 0.72753 0.0
C379 C 0.55601 0.50717 0.66063 0.0
C380 C 0.61913 0.52487 0.6453 0.0
H381 H 0.50235 0.49074 0.71074 0.0
H382 H 0.5077 0.49078 0.64212 0.0
C383 C 0.68057 0.54511 0.66991 0.0
C384 C 0.71171 0.13349 0.60395 0.0
C385 C 0.64919 0.08111 0.5808 0.0
H386 H 0.76162 0.18041 0.66121 0.0
C387 C 0.59255 0.03301 0.59794 0.0
H388 H 0.7558 0.17128 0.59132 0.0
C389 C 0.59664 0.0377 0.63755 0.0
C390 C 0.65667 0.09108 0.66086 0.0
H391 H 0.54379 0.99216 0.58062 0.0
H392 H 0.55067 1.00055 0.64993 0.0
C393 C 0.7149 0.13872 0.64377 0.0
C394 C 0.75474 0.62985 0.97227 0.0
C395 C 0.68992 0.59244 0.94581 0.0
H396 H 0.80198 0.6523 0.03016 0.0
C397 C 0.62109 0.54717 0.95794 0.0
H398 H 0.80859 0.66479 0.9636 0.0
C399 C 0.61728 0.53994 -0.00376 0.0
C400 C 0.68216 0.57826 0.02281 0.0
H401 H 0.57037 0.51754 0.9379 0.0
H402 H 0.5637 0.50514 0.00519 0.0
C403 C 0.75089 0.6229 0.01038 0.0
C404 C 0.17703 0.60385 0.27414 0.0
C405 C 0.17381 0.55933 0.25841 0.0
H406 H 0.18829 0.65336 0.32471 0.0
C407 C 0.17419 0.527 0.2828 0.0
H408 H 0.17628 0.62926 0.25609 0.0
C409 C 0.18112 0.54096 0.32244 0.0
C410 C 0.1881 0.58757 0.3381 0.0
H411 H 0.17138 0.49226 0.27135 0.0
H412 H 0.18439 0.51717 0.34086 0.0
C413 C 0.18399 0.61773 0.31345 0.0
loop_
_geom_bond_atom_site_label_1
_geom_bond_atom_site_label_2
_geom_bond_distance
_geom_bond_site_symmetry_2
_ccdc_geom_bond_type
Sm0 C2 2.846 . S
Sm0 O20 2.543 . S
Sm0 O21 2.450 . S
Sm0 O22 2.681 . S
Sm0 O23 2.464 . S
Sm0 O24 2.396 . S
Sm0 O28 2.386 . S
Sm0 O31 2.408 1_455 S
Sm1 C11 2.846 1_455 S
Sm1 O22 2.386 . S
Sm1 O25 2.408 . S
Sm1 O26 2.543 1_455 S
Sm1 O27 2.450 1_455 S
Sm1 O28 2.681 . S
Sm1 O29 2.464 . S
Sm1 O30 2.396 1_455 S
C2 Sm0 2.846 . S
C2 C3 1.506 . S
C2 O20 1.261 . S
C2 O21 1.242 . S
C3 C2 1.506 . S
C3 C4 1.358 . S
C3 C8 1.382 . S
C4 C3 1.358 . S
C4 C5 1.385 . S
C4 H32 0.930 . S
C5 C4 1.385 . S
C5 C6 1.395 . S
C5 H33 0.929 . S
C6 C5 1.395 . S
C6 C7 1.335 . S
C7 C6 1.335 . S
C7 C8 1.398 . S
C7 H34 0.930 . S
C8 C3 1.382 . S
C8 C7 1.398 . S
C8 H35 0.929 . S
C9 O22 1.271 . S
C9 O23 1.251 . S
C10 O24 1.252 . S
C10 O25 1.272 . S
C11 Sm1 2.846 1_655 S
C11 C12 1.506 . S
C11 O26 1.261 . S
C11 O27 1.242 . S
C12 C11 1.506 . S
C12 C13 1.358 . S
C12 C17 1.382 . S
C13 C12 1.358 . S
C13 C14 1.385 . S
C13 H36 0.930 . S
C14 C13 1.385 . S
C14 C15 1.395 . S
C14 H37 0.929 . S
C15 C14 1.395 . S
C15 C16 1.335 . S
C16 C15 1.335 . S
C16 C17 1.398 . S
C16 H38 0.930 . S
C17 C12 1.382 . S
C17 C16 1.398 . S
C17 H39 0.929 . S
C18 O28 1.271 . S
C18 O29 1.251 . S
C19 O30 1.252 . S
C19 O31 1.272 . S
O20 Sm0 2.543 . S
O20 C2 1.261 . S
O21 Sm0 2.450 . S
O21 C2 1.242 . S
O22 Sm0 2.681 . S
O22 Sm1 2.386 . S
O22 C9 1.271 . S
O23 Sm0 2.464 . S
O23 C9 1.251 . S
O24 Sm0 2.396 . S
O24 C10 1.252 . S
O25 Sm1 2.408 . S
O25 C10 1.272 . S
O26 Sm1 2.543 1_655 S
O26 C11 1.261 . S
O27 Sm1 2.450 1_655 S
O27 C11 1.242 . S
O28 Sm0 2.386 . S
O28 Sm1 2.681 . S
O28 C18 1.271 . S
O29 Sm1 2.464 . S
O29 C18 1.251 . S
O30 Sm1 2.396 1_655 S
O30 C19 1.252 . S
O31 Sm0 2.408 1_655 S
O31 C19 1.272 . S
H32 C4 0.930 . S
H33 C5 0.929 . S
H34 C7 0.930 . S
H35 C8 0.929 . S
H36 C13 0.930 . S
H37 C14 0.929 . S
H38 C16 0.930 . S
H39 C17 0.929 . S
Sm40 C42 2.846 1_545 S
Sm40 O60 2.543 1_545 S
Sm40 O61 2.450 1_545 S
Sm40 O62 2.681 . S
Sm40 O63 2.464 . S
Sm40 O64 2.396 1_545 S
Sm40 O68 2.386 . S
Sm40 O71 2.408 . S
Sm41 C51 2.846 . S
Sm41 O62 2.386 . S
Sm41 O65 2.408 1_545 S
Sm41 O66 2.543 . S
Sm41 O67 2.450 . S
Sm41 O68 2.681 . S
Sm41 O69 2.464 . S
Sm41 O70 2.396 . S
C42 Sm40 2.846 1_565 S
C42 C43 1.506 . S
C42 O60 1.261 . S
C42 O61 1.242 . S
C43 C42 1.506 . S
C43 C44 1.358 . S
C43 C48 1.382 . S
C44 C43 1.358 . S
C44 C45 1.385 . S
C44 H72 0.930 . S
C45 C44 1.385 . S
C45 C46 1.395 . S
C45 H73 0.929 . S
C46 C45 1.395 . S
C46 C47 1.335 . S
C47 C46 1.335 . S
C47 C48 1.398 . S
C47 H74 0.930 . S
C48 C43 1.382 . S
C48 C47 1.398 . S
C48 H75 0.929 . S
C49 O62 1.271 . S
C49 O63 1.251 . S
C50 O64 1.252 . S
C50 O65 1.272 . S
C51 Sm41 2.846 . S
C51 C52 1.506 . S
C51 O66 1.261 . S
C51 O67 1.242 . S
C52 C51 1.506 . S
C52 C53 1.358 . S
C52 C57 1.382 . S
C53 C52 1.358 . S
C53 C54 1.385 . S
C53 H76 0.930 . S
C54 C53 1.385 . S
C54 C55 1.395 . S
C54 H77 0.929 . S
C55 C54 1.395 . S
C55 C56 1.335 . S
C56 C55 1.335 . S
C56 C57 1.398 . S
C56 H78 0.930 . S
C57 C52 1.382 . S
C57 C56 1.398 . S
C57 H79 0.929 . S
C58 O68 1.271 . S
C58 O69 1.251 . S
C59 O70 1.252 . S
C59 O71 1.272 . S
O60 Sm40 2.543 1_565 S
O60 C42 1.261 . S
O61 Sm40 2.450 1_565 S
O61 C42 1.242 . S
O62 Sm40 2.681 . S
O62 Sm41 2.386 . S
O62 C49 1.271 . S
O63 Sm40 2.464 . S
O63 C49 1.251 . S
O64 Sm40 2.396 1_565 S
O64 C50 1.252 . S
O65 Sm41 2.408 1_565 S
O65 C50 1.272 . S
O66 Sm41 2.543 . S
O66 C51 1.261 . S
O67 Sm41 2.450 . S
O67 C51 1.242 . S
O68 Sm40 2.386 . S
O68 Sm41 2.681 . S
O68 C58 1.271 . S
O69 Sm41 2.464 . S
O69 C58 1.251 . S
O70 Sm41 2.396 . S
O70 C59 1.252 . S
O71 Sm40 2.408 . S
O71 C59 1.272 . S
H72 C44 0.930 . S
H73 C45 0.929 . S
H74 C47 0.930 . S
H75 C48 0.929 . S
H76 C53 0.930 . S
H77 C54 0.929 . S
H78 C56 0.930 . S
H79 C57 0.929 . S
Sm80 C82 2.846 . S
Sm80 O100 2.543 . S
Sm80 O101 2.450 . S
Sm80 O102 2.681 . S
Sm80 O103 2.464 . S
Sm80 O104 2.396 . S
Sm80 O108 2.386 . S
Sm80 O111 2.408 . S
Sm81 C91 2.846 . S
Sm81 O102 2.386 . S
Sm81 O105 2.408 . S
Sm81 O106 2.543 . S
Sm81 O107 2.450 . S
Sm81 O108 2.681 . S
Sm81 O109 2.464 . S
Sm81 O110 2.396 . S
C82 Sm80 2.846 . S
C82 C83 1.506 . S
C82 O100 1.261 . S
C82 O101 1.242 . S
C83 C82 1.506 . S
C83 C84 1.358 . S
C83 C88 1.382 . S
C84 C83 1.358 . S
C84 C85 1.385 . S
C84 H112 0.930 . S
C85 C84 1.385 . S
C85 C86 1.395 . S
C85 H113 0.929 . S
C86 C85 1.395 . S
C86 C87 1.335 . S
C87 C86 1.335 . S
C87 C88 1.398 . S
C87 H114 0.930 . S
C88 C83 1.382 . S
C88 C87 1.398 . S
C88 H115 0.929 . S
C89 O102 1.271 . S
C89 O103 1.251 . S
C90 O104 1.252 . S
C90 O105 1.272 . S
C91 Sm81 2.846 . S
C91 C92 1.506 . S
C91 O106 1.261 . S
C91 O107 1.242 . S
C92 C91 1.506 . S
C92 C93 1.358 . S
C92 C97 1.382 . S
C93 C92 1.358 . S
C93 C94 1.385 . S
C93 H116 0.930 . S
C94 C93 1.385 . S
C94 C95 1.395 . S
C94 H117 0.929 . S
C95 C94 1.395 . S
C95 C96 1.335 . S
C96 C95 1.335 . S
C96 C97 1.398 . S
C96 H118 0.930 . S
C97 C92 1.382 . S
C97 C96 1.398 . S
C97 H119 0.929 . S
C98 O108 1.271 . S
C98 O109 1.251 . S
C99 O110 1.252 . S
C99 O111 1.272 . S
O100 Sm80 2.543 . S
O100 C82 1.261 . S
O101 Sm80 2.450 . S
O101 C82 1.242 . S
O102 Sm80 2.681 . S
O102 Sm81 2.386 . S
O102 C89 1.271 . S
O103 Sm80 2.464 . S
O103 C89 1.251 . S
O104 Sm80 2.396 . S
O104 C90 1.252 . S
O105 Sm81 2.408 . S
O105 C90 1.272 . S
O106 Sm81 2.543 . S
O106 C91 1.261 . S
O107 Sm81 2.450 . S
O107 C91 1.242 . S
O108 Sm80 2.386 . S
O108 Sm81 2.681 . S
O108 C98 1.271 . S
O109 Sm81 2.464 . S
O109 C98 1.251 . S
O110 Sm81 2.396 . S
O110 C99 1.252 . S
O111 Sm80 2.408 . S
O111 C99 1.272 . S
H112 C84 0.930 . S
H113 C85 0.929 . S
H114 C87 0.930 . S
H115 C88 0.929 . S
H116 C93 0.930 . S
H117 C94 0.929 . S
H118 C96 0.930 . S
H119 C97 0.929 . S
H120 C121 0.949 . S
C121 H120 0.949 . S
C121 C122 1.395 . S
C121 C123 1.391 . S
C122 C121 1.395 . S
C122 C125 1.390 1_545 S
C123 C121 1.391 . S
C123 C127 1.387 1_545 S
C123 C128 1.491 . S
H124 C125 0.950 . S
C125 C122 1.390 1_565 S
C125 H124 0.950 . S
C125 C126 1.378 . S
C126 C125 1.378 . S
C126 C127 1.410 . S
C127 C123 1.387 1_565 S
C127 C126 1.410 . S
C127 H129 0.951 . S
C128 C123 1.491 . S
C128 C130 1.382 . S
C128 C132 1.404 . S
H129 C127 0.951 . S
C130 C128 1.382 . S
C130 C131 1.390 . S
C130 H135 0.949 . S
C131 C130 1.390 . S
C131 C136 1.399 . S
C132 C128 1.404 . S
C132 H133 0.950 . S
C132 C134 1.375 . S
H133 C132 0.950 . S
C134 C132 1.375 . S
C134 C136 1.382 . S
C134 H138 0.950 . S
H135 C130 0.949 . S
C136 C131 1.399 . S
C136 C134 1.382 . S
C136 H137 0.952 . S
H137 C136 0.952 . S
H138 C134 0.950 . S
H139 C140 0.949 . S
C140 H139 0.949 . S
C140 C141 1.395 . S
C140 C142 1.391 . S
C141 C140 1.395 . S
C141 C144 1.390 . S
C142 C140 1.391 . S
C142 C146 1.387 . S
C142 C147 1.491 . S
H143 C144 0.950 . S
C144 C141 1.390 . S
C144 H143 0.950 . S
C144 C145 1.378 . S
C145 C144 1.378 . S
C145 C146 1.409 . S
C146 C142 1.387 . S
C146 C145 1.409 . S
C146 H148 0.951 . S
C147 C142 1.491 . S
C147 C149 1.382 . S
C147 C151 1.404 . S
H148 C146 0.951 . S
C149 C147 1.382 . S
C149 C150 1.390 . S
C149 H154 0.949 . S
C150 C149 1.390 . S
C150 C155 1.399 . S
C151 C147 1.404 . S
C151 H152 0.950 . S
C151 C153 1.375 . S
H152 C151 0.950 . S
C153 C151 1.375 . S
C153 C155 1.382 . S
C153 H157 0.950 . S
H154 C149 0.949 . S
C155 C150 1.399 . S
C155 C153 1.382 . S
C155 H156 0.952 . S
H156 C155 0.952 . S
H157 C153 0.950 . S
H158 C159 0.949 . S
C159 H158 0.949 . S
C159 C160 1.395 . S
C159 C161 1.391 . S
C160 C159 1.395 . S
C160 C163 1.390 1_455 S
C161 C159 1.391 . S
C161 C165 1.387 . S
C161 C166 1.491 . S
H162 C163 0.950 . S
C163 C160 1.390 1_655 S
C163 H162 0.950 . S
C163 C164 1.378 . S
C164 C163 1.378 . S
C164 C165 1.409 1_655 S
C165 C161 1.387 . S
C165 C164 1.409 1_455 S
C165 H167 0.951 . S
C166 C161 1.491 . S
C166 C168 1.382 . S
C166 C170 1.404 . S
H167 C165 0.951 . S
C168 C166 1.382 . S
C168 C169 1.390 . S
C168 H173 0.949 . S
C169 C168 1.390 . S
C169 C174 1.399 . S
C170 C166 1.404 . S
C170 H171 0.950 . S
C170 C172 1.375 . S
H171 C170 0.950 . S
C172 C170 1.375 . S
C172 C174 1.382 . S
C172 H176 0.950 . S
H173 C168 0.949 . S
C174 C169 1.399 . S
C174 C172 1.382 . S
C174 H175 0.952 . S
H175 C174 0.952 . S
H176 C172 0.950 . S
H177 C178 0.949 . S
C178 H177 0.949 . S
C178 C179 1.395 1_655 S
C178 C180 1.391 1_655 S
C179 C178 1.395 1_455 S
C179 C182 1.390 . S
C180 C178 1.391 1_455 S
C180 C184 1.387 . S
C180 C185 1.491 1_455 S
H181 C182 0.950 . S
C182 C179 1.390 . S
C182 H181 0.950 . S
C182 C183 1.378 . S
C183 C182 1.378 . S
C183 C184 1.409 . S
C184 C180 1.387 . S
C184 C183 1.409 . S
C184 H186 0.951 . S
C185 C180 1.491 1_655 S
C185 C187 1.382 . S
C185 C189 1.404 . S
H186 C184 0.951 . S
C187 C185 1.382 . S
C187 C188 1.390 . S
C187 H192 0.949 . S
C188 C187 1.390 . S
C188 C193 1.399 . S
C189 C185 1.404 . S
C189 H190 0.950 . S
C189 C191 1.375 . S
H190 C189 0.950 . S
C191 C189 1.375 . S
C191 C193 1.382 . S
C191 H195 0.950 . S
H192 C187 0.949 . S
C193 C188 1.399 . S
C193 C191 1.382 . S
C193 H194 0.952 . S
H194 C193 0.952 . S
H195 C191 0.950 . S
H196 C197 0.949 1_565 S
C197 H196 0.949 1_545 S
C197 C198 1.395 . S
C197 C199 1.391 . S
C198 C197 1.395 . S
C198 C201 1.390 . S
C199 C197 1.391 . S
C199 C203 1.387 . S
C199 C204 1.491 1_545 S
H200 C201 0.950 . S
C201 C198 1.390 . S
C201 H200 0.950 . S
C201 C202 1.378 . S
C202 C201 1.378 . S
C202 C203 1.409 . S
C203 C199 1.387 . S
C203 C202 1.409 . S
C203 H205 0.951 . S
C204 C199 1.491 1_565 S
C204 C206 1.382 . S
C204 C208 1.404 . S
H205 C203 0.951 . S
C206 C204 1.382 . S
C206 C207 1.390 . S
C206 H211 0.949 . S
C207 C206 1.390 . S
C207 C212 1.399 . S
C208 C204 1.404 . S
C208 H209 0.950 . S
C208 C210 1.375 . S
H209 C208 0.950 . S
C210 C208 1.375 . S
C210 C212 1.382 . S
C210 H214 0.950 . S
H211 C206 0.949 . S
C212 C207 1.399 . S
C212 C210 1.382 . S
C212 H213 0.952 . S
H213 C212 0.952 . S
H214 C210 0.950 . S
H215 C216 0.949 . S
C216 H215 0.949 . S
C216 C217 1.395 . S
C216 C218 1.391 . S
C217 C216 1.395 . S
C217 C220 1.390 . S
C218 C216 1.391 . S
C218 C222 1.387 . S
C218 C223 1.491 . S
H219 C220 0.950 . S
C220 C217 1.390 . S
C220 H219 0.950 . S
C220 C221 1.378 . S
C221 C220 1.378 . S
C221 C222 1.409 . S
C222 C218 1.387 . S
C222 C221 1.409 . S
C222 H224 0.951 . S
C223 C218 1.491 . S
C223 C225 1.382 . S
C223 C227 1.404 . S
H224 C222 0.951 . S
C225 C223 1.382 . S
C225 C226 1.390 . S
C225 H230 0.949 . S
C226 C225 1.390 . S
C226 C231 1.399 . S
C227 C223 1.404 . S
C227 H228 0.950 . S
C227 C229 1.375 . S
H228 C227 0.950 . S
C229 C227 1.375 . S
C229 C231 1.382 . S
C229 H233 0.950 . S
H230 C225 0.949 . S
C231 C226 1.399 . S
C231 C229 1.382 . S
C231 H232 0.952 . S
H232 C231 0.952 . S
H233 C229 0.950 . S
C234 C235 1.387 . S
C234 H238 0.950 . S
C234 C243 1.390 . S
C235 C234 1.387 . S
C235 C237 1.387 . S
H236 C243 0.950 . S
C237 C235 1.387 . S
C237 C239 1.390 . S
C237 H241 0.950 . S
H238 C234 0.950 . S
C239 C237 1.390 . S
C239 C240 1.387 . S
C239 H242 0.950 . S
C240 C239 1.387 . S
C240 C243 1.387 . S
H241 C237 0.950 . S
H242 C239 0.950 . S
C243 C234 1.390 . S
C243 H236 0.950 . S
C243 C240 1.387 . S
C244 C245 1.387 . S
C244 H248 0.950 . S
C244 C253 1.390 . S
C245 C244 1.387 . S
C245 C247 1.387 . S
H246 C253 0.950 . S
C247 C245 1.387 . S
C247 C249 1.390 . S
C247 H251 0.950 . S
H248 C244 0.950 . S
C249 C247 1.390 . S
C249 C250 1.387 . S
C249 H252 0.950 . S
C250 C249 1.387 . S
C250 C253 1.387 . S
H251 C247 0.950 . S
H252 C249 0.950 . S
C253 C244 1.390 . S
C253 H246 0.950 . S
C253 C250 1.387 . S
C254 C255 1.387 . S
C254 H258 0.950 . S
C254 C263 1.390 . S
C255 C254 1.387 . S
C255 C257 1.387 . S
H256 C263 0.950 . S
C257 C255 1.387 . S
C257 C259 1.390 . S
C257 H261 0.950 . S
H258 C254 0.950 . S
C259 C257 1.390 . S
C259 C260 1.387 . S
C259 H262 0.950 . S
C260 C259 1.387 . S
C260 C263 1.387 . S
H261 C257 0.950 . S
H262 C259 0.950 . S
C263 C254 1.390 . S
C263 H256 0.950 . S
C263 C260 1.387 . S
C264 C265 1.387 . S
C264 H268 0.950 . S
C264 C273 1.390 . S
C265 C264 1.387 . S
C265 C267 1.387 . S
H266 C273 0.950 . S
C267 C265 1.387 . S
C267 C269 1.390 . S
C267 H271 0.950 . S
H268 C264 0.950 . S
C269 C267 1.390 . S
C269 C270 1.387 . S
C269 H272 0.950 . S
C270 C269 1.387 . S
C270 C273 1.387 . S
H271 C267 0.950 . S
H272 C269 0.950 . S
C273 C264 1.390 . S
C273 H266 0.950 . S
C273 C270 1.387 . S
C274 C275 1.387 . S
C274 H278 0.950 . S
C274 C283 1.390 . S
C275 C274 1.387 . S
C275 C277 1.387 . S
H276 C283 0.950 . S
C277 C275 1.387 . S
C277 C279 1.390 . S
C277 H281 0.950 . S
H278 C274 0.950 . S
C279 C277 1.390 . S
C279 C280 1.387 . S
C279 H282 0.950 . S
C280 C279 1.387 . S
C280 C283 1.387 . S
H281 C277 0.950 . S
H282 C279 0.950 . S
C283 C274 1.390 . S
C283 H276 0.950 . S
C283 C280 1.387 . S
C284 C285 1.387 . S
C284 H288 0.950 . S
C284 C293 1.390 . S
C285 C284 1.387 . S
C285 C287 1.387 . S
H286 C293 0.950 . S
C287 C285 1.387 . S
C287 C289 1.390 . S
C287 H291 0.950 . S
H288 C284 0.950 . S
C289 C287 1.390 . S
C289 C290 1.387 . S
C289 H292 0.950 . S
C290 C289 1.387 . S
C290 C293 1.387 . S
H291 C287 0.950 . S
H292 C289 0.950 . S
C293 C284 1.390 . S
C293 H286 0.950 . S
C293 C290 1.387 . S
C294 C295 1.387 . S
C294 H298 0.950 . S
C294 C303 1.390 . S
C295 C294 1.387 . S
C295 C297 1.387 . S
H296 C303 0.950 . S
C297 C295 1.387 . S
C297 C299 1.390 . S
C297 H301 0.950 . S
H298 C294 0.950 . S
C299 C297 1.390 . S
C299 C300 1.387 . S
C299 H302 0.950 . S
C300 C299 1.387 . S
C300 C303 1.387 . S
H301 C297 0.950 . S
H302 C299 0.950 . S
C303 C294 1.390 . S
C303 H296 0.950 . S
C303 C300 1.387 . S
C304 C305 1.387 . S
C304 H308 0.950 . S
C304 C313 1.390 . S
C305 C304 1.387 . S
C305 C307 1.387 . S
H306 C313 0.950 . S
C307 C305 1.387 . S
C307 C309 1.390 . S
C307 H311 0.950 . S
H308 C304 0.950 . S
C309 C307 1.390 . S
C309 C310 1.387 . S
C309 H312 0.950 . S
C310 C309 1.387 . S
C310 C313 1.387 . S
H311 C307 0.950 . S
H312 C309 0.950 . S
C313 C304 1.390 . S
C313 H306 0.950 . S
C313 C310 1.387 . S
C314 C315 1.387 . S
C314 H318 0.950 . S
C314 C323 1.390 . S
C315 C314 1.387 . S
C315 C317 1.387 . S
H316 C323 0.950 . S
C317 C315 1.387 . S
C317 C319 1.390 . S
C317 H321 0.950 . S
H318 C314 0.950 . S
C319 C317 1.390 . S
C319 C320 1.387 . S
C319 H322 0.950 . S
C320 C319 1.387 . S
C320 C323 1.387 . S
H321 C317 0.950 . S
H322 C319 0.950 . S
C323 C314 1.390 . S
C323 H316 0.950 . S
C323 C320 1.387 . S
C324 C325 1.387 . S
C324 H328 0.950 . S
C324 C333 1.390 . S
C325 C324 1.387 . S
C325 C327 1.387 . S
H326 C333 0.950 . S
C327 C325 1.387 . S
C327 C329 1.390 . S
C327 H331 0.950 . S
H328 C324 0.950 . S
C329 C327 1.390 . S
C329 C330 1.387 . S
C329 H332 0.950 . S
C330 C329 1.387 . S
C330 C333 1.387 . S
H331 C327 0.950 . S
H332 C329 0.950 . S
C333 C324 1.390 . S
C333 H326 0.950 . S
C333 C330 1.387 . S
C334 C335 1.387 . S
C334 H338 0.950 . S
C334 C343 1.390 . S
C335 C334 1.387 . S
C335 C337 1.387 . S
H336 C343 0.950 . S
C337 C335 1.387 . S
C337 C339 1.390 . S
C337 H341 0.950 . S
H338 C334 0.950 . S
C339 C337 1.390 . S
C339 C340 1.387 . S
C339 H342 0.950 . S
C340 C339 1.387 . S
C340 C343 1.387 . S
H341 C337 0.950 . S
H342 C339 0.950 . S
C343 C334 1.390 . S
C343 H336 0.950 . S
C343 C340 1.387 . S
C344 C345 1.387 . S
C344 H348 0.950 . S
C344 C353 1.390 . S
C345 C344 1.387 . S
C345 C347 1.387 . S
H346 C353 0.950 . S
C347 C345 1.387 . S
C347 C349 1.390 . S
C347 H351 0.950 . S
H348 C344 0.950 . S
C349 C347 1.390 . S
C349 C350 1.387 . S
C349 H352 0.950 . S
C350 C349 1.387 . S
C350 C353 1.387 . S
H351 C347 0.950 . S
H352 C349 0.950 . S
C353 C344 1.390 . S
C353 H346 0.950 . S
C353 C350 1.387 . S
C354 C355 1.387 . S
C354 H358 0.950 1_455 S
C354 C363 1.390 1_554 S
C355 C354 1.387 . S
C355 C357 1.387 . S
H356 C363 0.953 1_655 S
C357 C355 1.387 . S
C357 C359 1.372 1_554 S
C357 H361 0.950 . S
H358 C354 0.950 1_655 S
C359 C357 1.372 1_556 S
C359 C360 1.394 . S
C359 H362 0.961 . S
C360 C359 1.394 . S
C360 C363 1.387 . S
H361 C357 0.950 . S
H362 C359 0.961 . S
C363 C354 1.390 1_556 S
C363 H356 0.953 1_455 S
C363 C360 1.387 . S
C364 C365 1.387 . S
C364 H368 0.950 . S
C364 C373 1.390 . S
C365 C364 1.387 . S
C365 C367 1.387 1_545 S
H366 C373 0.950 . S
C367 C365 1.387 1_565 S
C367 C369 1.390 . S
C367 H371 0.950 . S
H368 C364 0.950 . S
C369 C367 1.390 . S
C369 C370 1.387 1_565 S
C369 H372 0.950 . S
C370 C369 1.387 1_545 S
C370 C373 1.387 . S
H371 C367 0.950 . S
H372 C369 0.950 . S
C373 C364 1.390 . S
C373 H366 0.950 . S
C373 C370 1.387 . S
C374 C375 1.387 . S
C374 H378 0.950 . S
C374 C383 1.390 . S
C375 C374 1.387 . S
C375 C377 1.387 . S
H376 C383 0.950 . S
C377 C375 1.387 . S
C377 C379 1.390 . S
C377 H381 0.950 . S
H378 C374 0.950 . S
C379 C377 1.390 . S
C379 C380 1.387 . S
C379 H382 0.950 . S
C380 C379 1.387 . S
C380 C383 1.387 . S
H381 C377 0.950 . S
H382 C379 0.950 . S
C383 C374 1.390 . S
C383 H376 0.950 . S
C383 C380 1.387 . S
C384 C385 1.387 . S
C384 H388 0.950 . S
C384 C393 1.390 . S
C385 C384 1.387 . S
C385 C387 1.387 . S
H386 C393 0.950 . S
C387 C385 1.387 . S
C387 C389 1.390 . S
C387 H391 0.950 . S
H388 C384 0.950 . S
C389 C387 1.390 . S
C389 C390 1.387 . S
C389 H392 0.950 . S
C390 C389 1.387 . S
C390 C393 1.387 . S
H391 C387 0.950 . S
H392 C389 0.950 . S
C393 C384 1.390 . S
C393 H386 0.950 . S
C393 C390 1.387 . S
C394 C395 1.387 . S
C394 H398 0.950 . S
C394 C403 1.390 1_556 S
C395 C394 1.387 . S
C395 C397 1.387 . S
H396 C403 0.950 . S
C397 C395 1.387 . S
C397 C399 1.416 . S
C397 H401 0.950 . S
H398 C394 0.950 . S
C399 C397 1.416 . S
C399 C400 1.374 1_556 S
C399 H402 0.939 1_556 S
C400 C399 1.374 1_554 S
C400 C403 1.387 . S
H401 C397 0.950 . S
H402 C399 0.939 1_554 S
C403 C394 1.390 1_554 S
C403 H396 0.950 . S
C403 C400 1.387 . S
C404 C405 1.387 . S
C404 H408 0.950 . S
C404 C413 1.390 . S
C405 C404 1.387 . S
C405 C407 1.387 1_455 S
H406 C413 0.950 . S
C407 C405 1.387 1_655 S
C407 C409 1.390 . S
C407 H411 0.950 . S
H408 C404 0.950 . S
C409 C407 1.390 . S
C409 C410 1.387 1_655 S
C409 H412 0.950 . S
C410 C409 1.387 1_455 S
C410 C413 1.387 . S
H411 C407 0.950 . S
H412 C409 0.950 . S
C413 C404 1.390 . S
C413 H406 0.950 . S
C413 C410 1.387 . S
C235 C6 1.114 . S
C240 C226 0.987 . S
C245 C59 2.008 . S
C250 C188 1.955 . S
C255 C86 1.360 . S
C260 C207 1.303 . S
C265 C15 0.586 . S
C270 C221 0.431 . S
C280 C183 1.891 . S
C275 C50 1.937 . S
C290 C202 1.192 . S
C285 C95 1.194 . S
C295 C46 1.383 . S
C300 C150 1.272 . S
C305 C99 3.106 . S
C310 C164 3.070 . S
C315 C10 1.962 . S
C320 C126 1.943 . S
C330 C145 1.168 . S
C325 C55 1.161 . S
C340 C169 3.083 . S
C335 C90 3.135 . S
C345 C19 2.024 . S
C350 C131 1.982 . S
C360 C160 1.746 . S
C355 C18 1.724 . S
C365 C49 1.440 . S
C370 C122 1.515 . S
C375 C98 1.540 . S
C380 C141 1.559 . S
C390 C198 1.539 . S
C385 C58 1.550 . S
C400 C217 1.297 . S
C395 C89 1.300 . S
C405 C9 1.413 . S
C410 C179 1.464 . S
