# Generated by pormake.
# Topology zzz, (3,6)-cn, num edge types: 1
# Building blocks:
#     Node 0, Type 0, BuildingBlock: QEWDON_clean_linker_0, # of connection points: 3
#     Node 1, Type 0, BuildingBlock: QEWDON_clean_linker_0, # of connection points: 3
#     Node 2, Type 0, BuildingBlock: QEWDON_clean_linker_0, # of connection points: 3
#     Node 3, Type 0, BuildingBlock: QEWDON_clean_linker_0, # of connection points: 3
#     Node 4, Type 0, BuildingBlock: QEWDON_clean_linker_0, # of connection points: 3
#     Node 5, Type 0, BuildingBlock: QEWDON_clean_linker_0, # of connection points: 3
#     Node 6, Type 0, BuildingBlock: QEWDON_clean_linker_0, # of connection points: 3
#     Node 7, Type 0, BuildingBlock: QEWDON_clean_linker_0, # of connection points: 3
#     Node 8, Type 1, BuildingBlock: PAMTUU_clean_sbu_0, # of connection points: 6
#     Node 9, Type 1, BuildingBlock: PAMTUU_clean_sbu_0, # of connection points: 6
#     Node 10, Type 1, BuildingBlock: PAMTUU_clean_sbu_0, # of connection points: 6
#     Node 11, Type 1, BuildingBlock: PAMTUU_clean_sbu_0, # of connection points: 6
#     Edge 12, Type (0, 1), BuildingBlock: ZUJKAS_clean_linker_0, # of connection points: 2
#     Edge 13, Type (0, 1), BuildingBlock: ZUJKAS_clean_linker_0, # of connection points: 2
#     Edge 14, Type (0, 1), BuildingBlock: ZUJKAS_clean_linker_0, # of connection points: 2
#     Edge 15, Type (0, 1), BuildingBlock: ZUJKAS_clean_linker_0, # of connection points: 2
#     Edge 16, Type (0, 1), BuildingBlock: ZUJKAS_clean_linker_0, # of connection points: 2
#     Edge 17, Type (0, 1), BuildingBlock: ZUJKAS_clean_linker_0, # of connection points: 2
#     Edge 18, Type (0, 1), BuildingBlock: ZUJKAS_clean_linker_0, # of connection points: 2
#     Edge 19, Type (0, 1), BuildingBlock: ZUJKAS_clean_linker_0, # of connection points: 2
#     Edge 20, Type (0, 1), BuildingBlock: ZUJKAS_clean_linker_0, # of connection points: 2
#     Edge 21, Type (0, 1), BuildingBlock: ZUJKAS_clean_linker_0, # of connection points: 2
#     Edge 22, Type (0, 1), BuildingBlock: ZUJKAS_clean_linker_0, # of connection points: 2
#     Edge 23, Type (0, 1), BuildingBlock: ZUJKAS_clean_linker_0, # of connection points: 2
#     Edge 24, Type (0, 1), BuildingBlock: ZUJKAS_clean_linker_0, # of connection points: 2
#     Edge 25, Type (0, 1), BuildingBlock: ZUJKAS_clean_linker_0, # of connection points: 2
#     Edge 26, Type (0, 1), BuildingBlock: ZUJKAS_clean_linker_0, # of connection points: 2
#     Edge 27, Type (0, 1), BuildingBlock: ZUJKAS_clean_linker_0, # of connection points: 2
#     Edge 28, Type (0, 1), BuildingBlock: ZUJKAS_clean_linker_0, # of connection points: 2
#     Edge 29, Type (0, 1), BuildingBlock: ZUJKAS_clean_linker_0, # of connection points: 2
#     Edge 30, Type (0, 1), BuildingBlock: ZUJKAS_clean_linker_0, # of connection points: 2
#     Edge 31, Type (0, 1), BuildingBlock: ZUJKAS_clean_linker_0, # of connection points: 2
#     Edge 32, Type (0, 1), BuildingBlock: ZUJKAS_clean_linker_0, # of connection points: 2
#     Edge 33, Type (0, 1), BuildingBlock: ZUJKAS_clean_linker_0, # of connection points: 2
#     Edge 34, Type (0, 1), BuildingBlock: ZUJKAS_clean_linker_0, # of connection points: 2
#     Edge 35, Type (0, 1), BuildingBlock: ZUJKAS_clean_linker_0, # of connection points: 2
# Relax obj value: 0.111
# Max RMSD: 0.187
# Mean RMSD: 0.079
data_MOF--net-zzz--node1-PAMTUU_clean_sbu_0--node2-QEWDON_clean_linker_0--edge1-ZUJKAS_clean_linker_0
_symmetry_space_group_name_H-M    P1
_symmetry_Int_Tables_number       1
_symmetry_cell_setting            triclinic
loop_
_symmetry_equiv_pos_as_xyz
'x, y, z'
_cell_length_a     70.519078
_cell_length_b     73.934777
_cell_length_c     19.000836
_cell_angle_alpha  99.033237
_cell_angle_beta   89.859344
_cell_angle_gamma 91.925195
loop_
_atom_site_label
_atom_site_type_symbol
_atom_site_fract_x
_atom_site_fract_y
_atom_site_fract_z
_atom_type_partial_charge
H0 H 0.77137 0.48432 0.24776 0.0
C1 C 0.78248 0.48987 0.28498 0.0
C2 C 0.80114 0.48496 0.26892 0.0
C3 C 0.77822 0.50165 0.34847 0.0
H4 H 0.8301 0.4869 0.30416 0.0
C5 C 0.81578 0.49124 0.31689 0.0
C6 C 0.81218 0.50247 0.38166 0.0
C7 C 0.79334 0.50775 0.39715 0.0
C8 C 0.75802 0.50702 0.36388 0.0
H9 H 0.79068 0.51687 0.44626 0.0
C10 C 0.74475 0.50802 0.3083 0.0
C11 C 0.72564 0.51243 0.32349 0.0
C12 C 0.75161 0.51065 0.43475 0.0
H13 H 0.7609 0.50953 0.47896 0.0
C14 C 0.73287 0.5153 0.44999 0.0
H15 H 0.74921 0.50569 0.25319 0.0
C16 C 0.72 0.51617 0.39514 0.0
H17 H 0.70545 0.51937 0.40893 0.0
H18 H 0.72819 0.51796 0.50484 0.0
H19 H 0.99654 0.754 0.26611 0.0
C20 C 0.99771 0.76364 0.31525 0.0
C21 C 1.0079 0.7803 0.31555 0.0
C22 C 0.98857 0.75975 0.3776 0.0
H23 H 1.0159 0.80633 0.37755 0.0
C24 C 1.00885 0.79308 0.37824 0.0
C25 C 0.99937 0.7898 0.43991 0.0
C26 C 0.98934 0.77309 0.43966 0.0
C27 C 0.97765 0.74213 0.37731 0.0
H28 H 0.98218 0.77056 0.48786 0.0
C29 C 0.9844 0.72554 0.3404 0.0
C30 C 0.97418 0.70887 0.34114 0.0
C31 C 0.96035 0.74178 0.41427 0.0
H32 H 0.95449 0.75429 0.44183 0.0
C33 C 0.95021 0.7253 0.41524 0.0
H34 H 0.99783 0.7255 0.31252 0.0
C35 C 0.95707 0.70894 0.37918 0.0
H36 H 0.94879 0.69636 0.37997 0.0
H37 H 0.9369 0.72522 0.44373 0.0
H38 H 0.78988 0.98913 0.27685 0.0
C39 C 0.77926 0.99198 0.31783 0.0
C40 C 0.7602 0.98955 0.29722 0.0
C41 C 0.78454 0.99773 0.38956 0.0
H42 H 0.73123 0.98995 0.33367 0.0
C43 C 0.74603 0.99163 0.34946 0.0
C44 C 0.75052 0.9967 0.42175 0.0
C45 C 0.76979 1.00031 0.44152 0.0
C46 C 0.80538 1.00039 0.40883 0.0
H47 H 0.77307 1.00493 0.49712 0.0
C48 C 0.81942 1.00378 0.35779 0.0
C49 C 0.83898 1.00493 0.37479 0.0
C50 C 0.81163 0.99869 0.47777 0.0
H51 H 0.8018 0.99556 0.51826 0.0
C52 C 0.83088 1.00041 0.49541 0.0
H53 H 0.81538 0.00578 0.30479 0.0
C54 C 0.84444 1.00343 0.44458 0.0
H55 H 0.85929 1.00411 0.45951 0.0
H56 H 0.83538 0.99899 0.54865 0.0
H57 H 0.53257 0.74949 0.02493 0.0
C58 C 0.53281 0.7456 0.07759 0.0
C59 C 0.52377 0.72902 0.08897 0.0
C60 C 0.54347 0.75635 0.13264 0.0
H61 H 0.5188 0.71049 0.16432 0.0
C62 C 0.52491 0.72368 0.15635 0.0
C63 C 0.53601 0.73367 0.21072 0.0
C64 C 0.54531 0.75003 0.1988 0.0
C65 C 0.55517 0.77248 0.11768 0.0
H66 H 0.55437 0.75752 0.24014 0.0
C67 C 0.54732 0.78714 0.0888 0.0
C68 C 0.55914 0.80183 0.07305 0.0
C69 C 0.5748 0.77286 0.13077 0.0
H70 H 0.58123 0.76176 0.15214 0.0
C71 C 0.58644 0.78728 0.11504 0.0
H72 H 0.5322 0.78708 0.07856 0.0
C73 C 0.57872 0.80161 0.08623 0.0
H74 H 0.58808 0.81273 0.07498 0.0
H75 H 0.60154 0.78733 0.12508 0.0
H76 H 0.28521 0.51183 0.35391 0.0
C77 C 0.27431 0.50975 0.31327 0.0
C78 C 0.25538 0.50986 0.33535 0.0
C79 C 0.27914 0.50755 0.24045 0.0
H80 H 0.22625 0.50904 0.3019 0.0
C81 C 0.24089 0.50844 0.28433 0.0
C82 C 0.24489 0.50699 0.21137 0.0
C83 C 0.26409 0.50594 0.18943 0.0
C84 C 0.29983 0.50837 0.2197 0.0
H85 H 0.26713 0.50434 0.13304 0.0
C86 C 0.3145 0.50407 0.26528 0.0
C87 C 0.33391 0.50687 0.24955 0.0
C88 C 0.30526 0.51479 0.15639 0.0
H89 H 0.29486 0.51878 0.12059 0.0
C90 C 0.32438 0.51691 0.13926 0.0
H91 H 0.31101 0.49848 0.31315 0.0
C92 C 0.33855 0.51316 0.18542 0.0
H93 H 0.3532 0.51573 0.17163 0.0
H94 H 0.32824 0.522 0.09061 0.0
H95 H 0.03665 0.2648 0.33847 0.0
C96 C 0.04282 0.25492 0.29732 0.0
C97 C 0.04803 0.23794 0.31384 0.0
C98 C 0.04493 0.25881 0.22723 0.0
H99 H 0.05803 0.21126 0.27273 0.0
C100 C 0.0551 0.22473 0.26032 0.0
C101 C 0.05656 0.22794 0.1899 0.0
C102 C 0.05176 0.2451 0.17377 0.0
C103 C 0.03918 0.27674 0.20896 0.0
H104 H 0.0532 0.24761 0.11932 0.0
C105 C 0.04238 0.29317 0.25694 0.0
C106 C 0.03716 0.3101 0.23897 0.0
C107 C 0.0304 0.27756 0.14308 0.0
H108 H 0.02721 0.26522 0.10564 0.0
C109 C 0.02532 0.29431 0.125 0.0
H110 H 0.0493 0.29289 0.30759 0.0
C111 C 0.02872 0.31049 0.17237 0.0
H112 H 0.02437 0.32329 0.15751 0.0
H113 H 1.01857 0.29473 0.07421 0.0
H114 H 0.27049 0.99426 0.31817 0.0
C115 C 0.2812 0.99932 0.2846 0.0
C116 C 0.30026 0.9966 0.29895 0.0
C117 C 0.27593 0.00758 0.22586 0.0
H118 H 0.32919 1.00016 0.26561 0.0
C119 C 0.3144 1.00215 0.25421 0.0
C120 C 0.30984 0.00999 0.19434 0.0
C121 C 0.29057 0.01276 0.18024 0.0
C122 C 0.25516 0.00957 0.21088 0.0
H123 H 0.28717 0.01914 0.13456 0.0
C124 C 0.24132 0.01121 0.26619 0.0
C125 C 0.22169 0.0109 0.25053 0.0
C126 C 0.24878 0.00852 0.14016 0.0
H127 H 0.25858 0.00681 0.09593 0.0
C128 C 0.22949 0.00896 0.1248 0.0
H129 H 0.24565 0.01229 0.32131 0.0
C130 C 0.21607 0.00999 0.17914 0.0
H131 H 0.20119 0.01005 0.16517 0.0
H132 H 0.22487 0.00811 0.07005 0.0
H133 H 0.53758 0.26013 0.52372 0.0
C134 C 0.52987 0.26577 0.4834 0.0
C135 C 0.52515 0.28434 0.49585 0.0
C136 C 0.52553 0.25486 0.41702 0.0
H137 H 0.51319 0.30643 0.45171 0.0
C138 C 0.51599 0.29189 0.44271 0.0
C139 C 0.51223 0.28166 0.37583 0.0
C140 C 0.51686 0.2631 0.3632 0.0
C141 C 0.53182 0.23552 0.40032 0.0
H142 H 0.51397 0.25522 0.31106 0.0
C143 C 0.5296 0.22285 0.44896 0.0
C144 C 0.53561 0.20458 0.43044 0.0
C145 C 0.54029 0.22968 0.33391 0.0
H146 H 0.54267 0.23907 0.2961 0.0
C147 C 0.546 0.21175 0.31527 0.0
H148 H 0.52326 0.22716 0.50059 0.0
C149 C 0.5436 0.1993 0.36261 0.0
H150 H 0.54788 0.18537 0.34553 0.0
H151 H 0.55233 0.20746 0.26364 0.0
Tb152 Tb 1.01724 0.01536 0.75132 0.0
Tb153 Tb 0.04317 1.00109 0.87204 0.0
C154 C 0.99994 0.0073 0.89575 0.0
C155 C 1.00187 0.04673 0.63541 0.0
C156 C 1.00749 0.08267 0.60568 0.0
C157 C 0.98967 0.07355 0.59411 0.0
C158 C 0.98686 0.05573 0.60932 0.0
C159 C 0.01982 0.05557 0.64469 0.0
C160 C 0.0226 0.07337 0.63006 0.0
C161 C 0.99835 0.02934 0.66213 0.0
O162 O 0.03518 0.03857 0.7967 0.0
O163 O 0.04151 0.03059 0.90604 0.0
O164 O 0.06353 0.01151 0.80043 0.0
O165 O 0.04457 0.0081 0.70106 0.0
O166 O 0.04734 0.99723 0.97819 0.0
O167 O 0.06708 0.98704 0.89594 0.0
O168 O 0.03679 0.978 0.78912 0.0
O169 O 1.00871 0.98663 0.74695 0.0
O170 O 1.00119 0.01908 0.85085 0.0
O171 O 1.01357 0.99581 0.89936 0.0
C172 C 0.04052 0.04296 0.86342 0.0
O173 O 1.01064 0.01666 0.64421 0.0
O174 O 0.99451 0.03126 0.72977 0.0
C175 C 0.06152 0.01017 0.73099 0.0
C176 C 0.05879 0.96776 0.97772 0.0
C177 C 0.05453 0.93128 0.00285 0.0
C178 C 0.06936 0.94285 0.0355 0.0
C179 C 0.0715 0.96095 0.02279 0.0
C180 C 0.04395 0.95631 0.94536 0.0
C181 C 0.04184 0.93825 0.95769 0.0
C182 C 0.06136 0.98637 0.96069 0.0
C183 C 0.02042 0.97384 0.7571 0.0
H184 H 0.97774 0.08042 0.57571 0.0
H185 H 0.97284 0.04921 0.60289 0.0
H186 H 0.03158 0.04889 0.66524 0.0
H187 H 0.03657 0.07991 0.63839 0.0
H188 H 0.07944 0.93782 0.07011 0.0
H189 H 0.08314 0.96957 0.04758 0.0
H190 H 0.03401 0.96134 0.9102 0.0
H191 H 0.03011 0.92983 0.93259 0.0
Tb192 Tb 0.52181 0.99793 0.73328 0.0
Tb193 Tb 0.53787 0.02013 0.88258 0.0
C194 C 0.53505 0.97752 0.85323 0.0
C195 C 0.48494 0.97511 0.61945 0.0
C196 C 0.44579 0.96671 0.6262 0.0
C197 C 0.45829 0.95342 0.59412 0.0
C198 C 0.47775 0.95759 0.59102 0.0
C199 C 0.47243 0.98848 0.65008 0.0
C200 C 0.45307 0.98436 0.65311 0.0
C201 C 0.50546 0.97849 0.62901 0.0
O202 O 0.49802 1.00014 0.8087 0.0
O203 O 0.50757 0.02461 0.89222 0.0
O204 O 0.53404 0.04148 0.81775 0.0
O205 O 0.51632 0.02631 0.72364 0.0
O206 O 0.54227 0.02166 0.99301 0.0
O207 O 0.55432 0.04222 0.93604 0.0
O208 O 0.56261 0.0094 0.8215 0.0
O209 O 0.55103 0.00504 0.70719 0.0
O210 O 0.53741 0.97887 0.7859 0.0
O211 O 0.53084 0.99206 0.89857 0.0
C212 C 0.49421 0.01314 0.86216 0.0
O213 O 0.51183 0.9952 0.62766 0.0
O214 O 0.51231 0.97193 0.68283 0.0
C215 C 0.52405 0.04142 0.75948 0.0
C216 C 0.57478 0.03009 0.0106 0.0
C217 C 0.61309 0.02049 1.00064 0.0
C218 C 0.60825 0.03899 0.0102 0.0
C219 C 0.58923 0.04376 0.01545 0.0
C220 C 0.57972 0.01164 0.00517 0.0
C221 C 0.59869 0.00691 1.00047 0.0
C222 C 0.55535 0.03456 0.99296 0.0
C223 C 0.56542 0.00727 0.75217 0.0
H224 H 0.45311 0.93968 0.57313 0.0
H225 H 0.48725 0.94697 0.56879 0.0
H226 H 0.4777 1.002 0.67385 0.0
H227 H 0.4438 0.99503 0.67679 0.0
H228 H 0.61914 0.04974 0.01175 0.0
H229 H 0.58577 0.05803 0.01853 0.0
H230 H 0.56895 1.00072 0.99981 0.0
H231 H 0.60201 0.99254 0.99288 0.0
Tb232 Tb 0.51718 0.50127 0.85211 0.0
Tb233 Tb 0.54235 0.51245 0.71801 0.0
C234 C 0.49831 0.50643 0.70704 0.0
C235 C 0.50012 0.47307 0.98526 0.0
C236 C 0.50133 0.43946 0.03861 0.0
C237 C 0.48496 0.45 0.04673 0.0
C238 C 0.48437 0.46661 0.02021 0.0
C239 C 0.51661 0.46281 0.978 0.0
C240 C 0.51723 0.4462 0.00454 0.0
C241 C 0.49858 0.48953 0.95088 0.0
O242 O 0.53305 0.47745 0.81036 0.0
O243 O 0.53874 0.48254 0.69576 0.0
O244 O 0.56307 0.50412 0.79071 0.0
O245 O 0.54563 0.50964 0.8937 0.0
O246 O 0.54527 0.5135 0.60839 0.0
O247 O 0.56632 0.52625 0.6837 0.0
O248 O 0.53836 0.53708 0.79434 0.0
O249 O 0.51085 0.52988 0.84984 0.0
O250 O 0.49922 0.49602 0.75688 0.0
O251 O 0.51276 0.51721 0.69549 0.0
C252 C 0.53729 0.47145 0.74371 0.0
O253 O 0.51238 0.50182 0.962 0.0
O254 O 0.49379 0.48624 0.88399 0.0
C255 C 0.56202 0.50696 0.86076 0.0
C256 C 0.55852 0.54226 0.59115 0.0
C257 C 0.55674 0.57665 0.54387 0.0
C258 C 0.57081 0.5642 0.51808 0.0
C259 C 0.57169 0.54719 0.54159 0.0
C260 C 0.54443 0.55455 0.61693 0.0
C261 C 0.54353 0.57154 0.59354 0.0
C262 C 0.56 0.52476 0.61866 0.0
C263 C 0.52299 0.54206 0.83031 0.0
H264 H 0.47256 0.44539 0.07355 0.0
H265 H 0.47146 0.47425 0.02587 0.0
H266 H 0.52887 0.46746 0.95045 0.0
H267 H 0.52999 0.43838 0.99659 0.0
H268 H 0.58138 0.56772 0.48061 0.0
H269 H 0.58279 0.53798 0.52164 0.0
H270 H 0.53416 0.55103 0.65554 0.0
H271 H 0.53235 0.5806 0.61393 0.0
Tb272 Tb 0.03454 0.52163 0.75877 0.0
Tb273 Tb 1.01747 0.49665 0.87254 0.0
C274 C 0.01961 0.53877 0.90708 0.0
C275 C 0.07214 0.54607 0.68495 0.0
C276 C 0.11185 0.54586 0.7007 0.0
C277 C 0.10071 0.55475 0.7559 0.0
C278 C 0.08104 0.55484 0.74819 0.0
C279 C 0.08345 0.53841 0.62788 0.0
C280 C 0.10312 0.53828 0.63571 0.0
C281 C 0.05149 0.54192 0.68342 0.0
O282 O 0.05774 0.52041 0.83317 0.0
O283 O 0.04828 0.49565 0.88592 0.0
O284 O 1.01758 0.4797 0.76875 0.0
O285 O 0.04294 0.49364 0.72268 0.0
O286 O 0.99926 0.49374 0.95776 0.0
O287 O 1.01626 0.47135 0.90979 0.0
O288 O 0.99278 0.5059 0.81923 0.0
O289 O 1.00614 0.51392 0.71715 0.0
O290 O 1.01809 0.53864 0.83834 0.0
O291 O 0.02361 0.52378 0.93192 0.0
C292 C 0.06145 0.50757 0.87121 0.0
O293 O 0.04637 0.52494 0.6595 0.0
O294 O 0.04233 0.54818 0.74126 0.0
C295 C 0.03174 0.47919 0.72394 0.0
C296 C 0.98497 0.46443 0.94061 0.0
C297 C 0.94963 0.44549 0.92365 0.0
C298 C 0.96042 0.44569 0.98604 0.0
C299 C 0.97796 0.45518 0.99454 0.0
C300 C 0.97475 0.46341 0.87671 0.0
C301 C 0.95719 0.45405 0.86835 0.0
C302 C 1.00215 0.47624 0.95222 0.0
C303 C 0.99118 0.50995 0.75426 0.0
H304 H 0.10706 0.56071 0.80645 0.0
H305 H 0.0728 0.56087 0.79353 0.0
H306 H 0.077 0.5316 0.57866 0.0
H307 H 0.11146 0.53174 0.59155 0.0
H308 H 0.95481 0.43942 0.02992 0.0
H309 H 0.98569 0.45587 0.04415 0.0
H310 H 0.98004 0.47042 0.83431 0.0
H311 H 0.94922 0.45406 0.81969 0.0
H312 H 0.18969 0.98885 0.24645 0.0
H313 H 0.16412 0.98965 0.33386 0.0
H314 H 0.1941 0.03324 0.47082 0.0
H315 H 0.21986 0.03259 0.38282 0.0
H316 H 0.16527 0.98508 0.48147 0.0
H317 H 0.14034 0.05357 0.44464 0.0
H318 H 0.15556 0.04033 0.38104 0.0
H319 H 0.16519 0.05215 0.4636 0.0
C320 C 0.19088 0.99867 0.29506 0.0
C321 C 0.2068 0.01079 0.30708 0.0
C322 C 0.17624 0.99904 0.34524 0.0
C323 C 0.17698 0.01166 0.40867 0.0
C324 C 0.19305 0.02354 0.42188 0.0
H325 H 0.09899 0.00957 0.77017 0.0
H326 H 0.12717 0.01024 0.69493 0.0
C327 C 0.20785 0.02305 0.37178 0.0
C328 C 0.16077 0.01233 0.46001 0.0
H329 H 0.12412 0.03873 0.52936 0.0
C330 C 0.15637 0.99687 0.49235 0.0
C331 C 0.14894 0.0276 0.4736 0.0
C332 C 0.15256 0.04435 0.43868 0.0
C333 C 0.14057 0.99628 0.53775 0.0
C334 C 0.12879 0.01158 0.55161 0.0
C335 C 0.13317 0.02703 0.51917 0.0
C336 C 0.1116 0.01157 0.59806 0.0
C337 C 0.13631 0.97908 0.56915 0.0
C338 C 0.09337 0.01243 0.56929 0.0
C339 C 0.07715 0.01198 0.61221 0.0
C340 C 0.07877 0.01089 0.68532 0.0
C341 C 0.0971 0.01037 0.71421 0.0
C342 C 0.11329 0.01067 0.67111 0.0
H343 H 0.14431 0.96729 0.54206 0.0
H344 H 0.14035 0.98148 0.62635 0.0
H345 H 0.12091 0.9754 0.56548 0.0
H346 H 0.09165 0.0132 0.5132 0.0
H347 H 0.06334 0.01252 0.58799 0.0
H348 H 0.56118 0.17912 0.45341 0.0
H349 H 0.55649 0.15325 0.5169 0.0
H350 H 0.50153 0.17265 0.58698 0.0
H351 H 0.50568 0.19818 0.51909 0.0
H352 H 0.55216 0.14906 0.64753 0.0
H353 H 0.48656 0.12128 0.50354 0.0
H354 H 0.50063 0.13989 0.47728 0.0
H355 H 0.48447 0.14409 0.55106 0.0
C356 C 0.54797 0.17788 0.48177 0.0
C357 C 0.53362 0.1906 0.47949 0.0
C358 C 0.54537 0.16307 0.5187 0.0
C359 C 0.52842 0.16055 0.55545 0.0
C360 C 0.51449 0.17385 0.55721 0.0
H361 H 0.52678 0.07605 0.83535 0.0
H362 H 0.52607 0.10521 0.79036 0.0
C363 C 0.51701 0.18866 0.51931 0.0
C364 C 0.52567 0.14387 0.59077 0.0
H365 H 0.497 0.10572 0.595 0.0
C366 C 0.54004 0.13964 0.63609 0.0
C367 C 0.51003 0.13129 0.57527 0.0
C368 C 0.49463 0.13422 0.52363 0.0
C369 C 0.53945 0.12323 0.6651 0.0
C370 C 0.5236 0.11086 0.65105 0.0
C371 C 0.50908 0.11518 0.60648 0.0
C372 C 0.52222 0.09308 0.67975 0.0
C373 C 0.55633 0.11904 0.70781 0.0
C374 C 0.51909 0.07639 0.63362 0.0
C375 C 0.51896 0.05962 0.65968 0.0
C376 C 0.52215 0.05915 0.73242 0.0
C377 C 0.52458 0.07588 0.77884 0.0
C378 C 0.52434 0.09261 0.753 0.0
H379 H 0.56932 0.1268 0.69505 0.0
H380 H 0.5534 0.1231 0.76541 0.0
H381 H 0.55929 0.1042 0.6978 0.0
H382 H 0.51726 0.07628 0.57697 0.0
H383 H 0.51704 0.04702 0.62242 0.0
H384 H 0.36897 0.49225 0.2198 0.0
H385 H 0.39544 0.49123 0.30155 0.0
H386 H 0.36076 0.51435 0.47793 0.0
H387 H 0.33431 0.51598 0.3959 0.0
H388 H 0.39548 0.53173 0.48132 0.0
H389 H 0.40518 0.45688 0.44216 0.0
H390 H 0.40576 0.46595 0.35994 0.0
H391 H 0.38429 0.46682 0.4116 0.0
C392 C 0.36688 0.49706 0.27601 0.0
C393 C 0.34939 0.50423 0.30089 0.0
C394 C 0.38204 0.49628 0.32299 0.0
C395 C 0.38016 0.50249 0.39639 0.0
C396 C 0.36263 0.50937 0.4217 0.0
H397 H 0.46525 0.48604 0.71565 0.0
H398 H 0.43642 0.48543 0.64358 0.0
C399 C 0.34741 0.51014 0.37467 0.0
C400 C 0.39674 0.50268 0.44583 0.0
H401 H 0.4305 0.47566 0.50072 0.0
C402 C 0.40304 0.51943 0.48584 0.0
C403 C 0.40658 0.48664 0.45282 0.0
C404 C 0.40001 0.46803 0.41492 0.0
C405 C 0.41907 0.52066 0.53081 0.0
C406 C 0.42942 0.50477 0.5353 0.0
C407 C 0.42281 0.48793 0.49684 0.0
C408 C 0.44707 0.5053 0.5796 0.0
C409 C 0.4246 0.539 0.57387 0.0
C410 C 0.46289 0.5165 0.56752 0.0
C411 C 0.47943 0.51691 0.60885 0.0
C412 C 0.48067 0.50602 0.66313 0.0
C413 C 0.46487 0.49466 0.67461 0.0
C414 C 0.44833 0.49428 0.63325 0.0
H415 H 0.41245 0.5483 0.58068 0.0
H416 H 0.42997 0.53741 0.62739 0.0
H417 H 0.43603 0.54563 0.54567 0.0
H418 H 0.46254 0.52483 0.52552 0.0
H419 H 0.49129 0.52573 0.59792 0.0
H420 H 0.02826 0.3164 0.38055 0.0
H421 H 0.03026 0.34566 0.46161 0.0
H422 H 0.05483 0.37186 0.2938 0.0
H423 H 0.05245 0.34276 0.2122 0.0
H424 H 0.05931 0.36918 0.51057 0.0
H425 H 1.01018 0.4035 0.35008 0.0
H426 H 1.01353 0.37913 0.33299 0.0
H427 H 0.03057 0.39465 0.30141 0.0
C428 C 0.03425 0.32838 0.36123 0.0
C429 C 0.04001 0.32737 0.2899 0.0
C430 C 0.03534 0.34509 0.40747 0.0
C431 C 0.04229 0.36105 0.38333 0.0
C432 C 0.04889 0.35986 0.31304 0.0
H433 H 0.05483 0.47409 0.60641 0.0
H434 H 0.05905 0.44554 0.5232 0.0
C435 C 0.0476 0.34322 0.26658 0.0
C436 C 0.04226 0.37896 0.43137 0.0
H437 H 0.02489 0.42206 0.44914 0.0
C438 C 0.0518 0.38073 0.49705 0.0
C439 C 0.03238 0.39404 0.41384 0.0
C440 C 0.02093 0.39274 0.3461 0.0
C441 C 0.05172 0.39716 0.54555 0.0
C442 C 0.04187 0.41215 0.52786 0.0
C443 C 0.03257 0.41053 0.46198 0.0
C444 C 0.03997 0.42924 0.57909 0.0
C445 C 0.06206 0.39843 0.61562 0.0
C446 C 0.02777 0.42945 0.63746 0.0
C447 C 0.02517 0.44568 0.68446 0.0
C448 C 0.03484 0.46202 0.67418 0.0
C449 C 0.04723 0.46173 0.61589 0.0
C450 C 0.04966 0.44547 0.56836 0.0
H451 H 0.07158 0.3868 0.61639 0.0
H452 H 0.07057 0.41148 0.6268 0.0
H453 H 0.05155 0.39836 0.65917 0.0
H454 H 0.02005 0.41707 0.64612 0.0
H455 H 1.01557 0.4454 0.72889 0.0
H456 H 0.8706 0.02789 0.38725 0.0
H457 H 0.89664 0.02895 0.30251 0.0
H458 H 0.86799 0.98659 0.1549 0.0
H459 H 0.84163 0.98592 0.23884 0.0
H460 H 0.92085 1.0044 0.25493 0.0
H461 H 0.88258 0.02059 0.02011 0.0
H462 H 0.8716 0.02199 0.10651 0.0
H463 H 0.87305 1.00023 0.04915 0.0
C464 C 0.86972 0.01897 0.3363 0.0
C465 C 0.85393 0.00688 0.31987 0.0
C466 C 0.88467 0.01955 0.28776 0.0
C467 C 0.88438 0.00801 0.22138 0.0
C468 C 0.8685 0.99604 0.20455 0.0
H469 H 0.98912 0.98147 0.979 0.0
H470 H 0.96124 0.9812 0.05586 0.0
C471 C 0.85339 0.99562 0.25282 0.0
C472 C 0.90113 0.00789 0.17211 0.0
H473 H 0.9143 0.0108 1.00042 0.0
C474 C 0.91935 0.00589 0.19935 0.0
C475 C 0.89945 0.01006 0.09952 0.0
C476 C 0.88065 0.01353 0.06724 0.0
C477 C 0.93573 0.00587 0.15659 0.0
C478 C 0.93398 0.00728 0.08331 0.0
C479 C 0.91578 0.00946 0.05616 0.0
C480 C 0.95082 0.00704 0.0345 0.0
C481 C 0.95482 1.00487 0.19132 0.0
C482 C 0.95409 0.02123 0.99407 0.0
C483 C 0.96989 0.02124 0.94893 0.0
C484 C 0.98295 0.00707 0.94301 0.0
C485 C 0.97954 0.99274 0.98273 0.0
C486 C 0.96361 0.99264 0.02728 0.0
H487 H 0.95423 0.00958 0.24975 0.0
H488 H 0.95925 0.99043 0.18282 0.0
H489 H 0.96579 0.01332 0.16831 0.0
H490 H 0.9445 0.03249 0.99804 0.0
H491 H 0.97197 0.0325 0.9192 0.0
H492 H 0.53308 0.82632 0.13291 0.0
H493 H 0.52582 0.85581 0.09574 0.0
H494 H 0.56198 0.84317 0.91263 0.0
H495 H 0.56942 0.81395 0.95003 0.0
H496 H 0.55687 0.88337 0.07348 0.0
H497 H 0.51134 0.86204 0.83469 0.0
H498 H 0.51364 0.84811 0.90414 0.0
H499 H 0.5323 0.84911 0.84036 0.0
C500 C 0.53903 0.82966 0.08374 0.0
C501 C 0.55168 0.81778 0.04401 0.0
C502 C 0.53501 0.84655 0.06284 0.0
C503 C 0.54328 0.85168 0.00116 0.0
C504 C 0.55526 0.83946 0.9599 0.0
H505 H 0.54794 0.94555 0.77807 0.0
H506 H 0.54966 0.91564 0.81699 0.0
C507 C 0.55948 0.82275 0.98126 0.0
C508 C 0.54074 0.87033 0.98254 0.0
H509 H 0.52304 0.89284 0.85435 0.0
C510 C 0.54929 0.88551 0.02601 0.0
C511 C 0.5311 0.87306 0.92011 0.0
C512 C 0.52142 0.85728 0.87214 0.0
C513 C 0.54895 0.90325 0.00771 0.0
C514 C 0.53925 0.90605 0.94515 0.0
C515 C 0.53047 0.89083 0.90225 0.0
C516 C 0.53838 0.92452 0.92234 0.0
C517 C 0.5597 0.91864 0.05417 0.0
C518 C 0.53135 0.93963 0.96811 0.0
C519 C 0.5306 0.95687 0.94625 0.0
C520 C 0.53651 0.95937 0.87751 0.0
C521 C 0.54331 0.94419 0.83143 0.0
C522 C 0.54425 0.92701 0.85361 0.0
H523 H 0.57083 0.91338 0.08621 0.0
H524 H 0.56654 0.92828 0.02182 0.0
H525 H 0.54969 0.92634 0.09184 0.0
H526 H 0.52621 0.93808 0.02062 0.0
H527 H 0.52507 0.96817 0.98291 0.0
H528 H 0.71951 0.48729 0.20186 0.0
H529 H 0.69354 0.48615 0.11504 0.0
H530 H 0.67271 0.53655 0.22935 0.0
H531 H 0.69863 0.53788 0.31545 0.0
H532 H 0.65419 0.48458 0.14513 0.0
H533 H 0.67299 0.54588 0.02171 0.0
H534 H 0.68978 0.53526 0.07269 0.0
H535 H 0.67245 0.55024 0.11737 0.0
C536 C 0.70963 0.49833 0.20765 0.0
C537 C 0.71121 0.51268 0.2658 0.0
C538 C 0.69469 0.49759 0.15824 0.0
C539 C 0.68117 0.51133 0.16511 0.0
C540 C 0.68303 0.5259 0.22205 0.0
H541 H 0.56539 0.50852 0.00573 0.0
H542 H 0.59442 0.50892 0.07636 0.0
C543 C 0.69783 0.52657 0.27166 0.0
C544 C 0.66456 0.51002 0.11543 0.0
H545 H 0.64174 0.53294 0.99901 0.0
C546 C 0.65156 0.49509 0.11282 0.0
C547 C 0.66111 0.52364 0.07262 0.0
C548 C 0.67489 0.53958 0.07051 0.0
C549 C 0.63503 0.49369 0.07042 0.0
C550 C 0.63121 0.50767 0.02973 0.0
C551 C 0.6445 0.52231 0.03064 0.0
C552 C 0.61347 0.50738 0.98635 0.0
C553 C 0.62182 0.47717 0.06921 0.0
C554 C 0.61438 0.50673 0.91209 0.0
C555 C 0.59775 0.50649 0.87134 0.0
C556 C 0.57976 0.50712 0.90396 0.0
C557 C 0.57892 0.50797 0.97851 0.0
C558 C 0.59555 0.5081 0.0191 0.0
H559 H 0.62899 0.46564 0.088 0.0
H560 H 0.60964 0.48091 0.10502 0.0
H561 H 0.61618 0.47241 0.01469 0.0
H562 H 0.628 0.50626 0.88547 0.0
H563 H 0.59902 0.5059 0.81423 0.0
H564 H 0.98806 0.70245 0.20524 0.0
H565 H 0.99726 0.67309 0.13741 0.0
H566 H 0.98542 0.6466 0.32017 0.0
H567 H 0.97593 0.67582 0.38778 0.0
H568 H 0.02456 0.64912 0.15824 0.0
H569 H 0.95319 0.61563 0.16842 0.0
H570 H 0.95734 0.63996 0.19462 0.0
H571 H 0.96299 0.62434 0.25462 0.0
C572 C 0.98757 0.69038 0.23107 0.0
C573 C 0.98109 0.69139 0.30157 0.0
C574 C 0.99277 0.67362 0.19224 0.0
C575 C 0.99163 0.65757 0.2232 0.0
C576 C 0.98589 0.65869 0.2945 0.0
H577 H 1.01542 0.54358 0.0525 0.0
H578 H 1.00968 0.57231 0.13252 0.0
C579 C 0.98053 0.6754 0.33313 0.0
C580 C 0.9963 0.63966 0.18063 0.0
H581 H 0.97789 0.59676 0.11875 0.0
C582 C 1.01435 0.63768 0.14959 0.0
C583 C 0.98294 0.62473 0.16926 0.0
C584 C 0.96297 0.62627 0.19787 0.0
C585 C 0.01944 0.62117 0.1078 0.0
C586 C 1.00608 0.60631 0.09645 0.0
C587 C 0.98813 0.60817 0.1281 0.0
C588 C 1.01011 0.58903 0.04876 0.0
C589 C 0.03907 0.61967 0.0762 0.0
C590 C 1.01205 0.58895 0.97529 0.0
C591 C 1.01516 0.57262 0.92953 0.0
C592 C 1.01644 0.55601 0.95637 0.0
C593 C 1.01456 0.55614 0.03017 0.0
C594 C 1.01128 0.57251 0.07593 0.0
H595 H 0.04895 0.63067 0.10265 0.0
H596 H 0.04498 0.60615 0.08057 0.0
H597 H 0.03829 0.62088 0.01881 0.0
H598 H 1.01092 0.60153 0.95321 0.0
H599 H 1.01657 0.57304 0.87302 0.0
H600 H 1.01333 0.23217 0.36889 0.0
H601 H 1.00636 0.21074 0.45198 0.0
H602 H 0.06619 0.20798 0.49418 0.0
H603 H 0.07315 0.22905 0.40956 0.0
H604 H 0.05068 0.17574 0.43102 0.0
H605 H 1.00582 0.2034 0.65978 0.0
H606 H 0.9972 0.20845 0.57645 0.0
H607 H 0.01981 0.21798 0.61016 0.0
C608 C 0.02487 0.2278 0.39911 0.0
C609 C 0.04375 0.23222 0.38325 0.0
C610 C 0.02089 0.21552 0.44658 0.0
C611 C 0.03576 0.20771 0.47925 0.0
C612 C 0.05451 0.21386 0.46968 0.0
H613 H 0.02627 0.11082 0.69102 0.0
H614 H 0.03284 0.14201 0.66665 0.0
C615 C 0.05848 0.22599 0.42179 0.0
C616 C 0.0322 0.1905 0.50879 0.0
H617 H 1.005 0.17047 0.62626 0.0
C618 C 0.04094 0.1747 0.47459 0.0
C619 C 0.0194 0.18908 0.56524 0.0
C620 C 1.01015 0.20567 0.60551 0.0
C621 C 0.0368 0.15748 0.4937 0.0
C622 C 0.0234 0.15594 0.54789 0.0
C623 C 1.01511 0.17174 0.58406 0.0
C624 C 1.01777 0.13783 0.56619 0.0
C625 C 0.04658 0.14096 0.45505 0.0
C626 C 1.00689 0.12532 0.5181 0.0
C627 C 1.00317 0.10751 0.53161 0.0
C628 C 1.01038 0.1019 0.59333 0.0
C629 C 0.02079 0.11467 0.64245 0.0
C630 C 0.02441 0.13252 0.62905 0.0
H631 H 0.05907 0.1449 0.42437 0.0
H632 H 0.0513 0.13209 0.49327 0.0
H633 H 0.03644 0.13276 0.41724 0.0
H634 H 1.00168 0.12924 0.46924 0.0
H635 H 0.99519 0.09797 0.49269 0.0
H636 H 0.28725 1.00356 0.43653 0.0
H637 H 0.3004 0.99238 0.54069 0.0
H638 H 0.33896 0.95919 0.40342 0.0
H639 H 0.32542 0.96961 0.29982 0.0
H640 H 0.32706 0.94273 0.51972 0.0
H641 H 0.35174 0.01552 0.60447 0.0
H642 H 0.32672 0.01009 0.59775 0.0
H643 H 0.3409 0.00839 0.51842 0.0
C644 C 0.29817 0.99348 0.42866 0.0
C645 C 0.3057 0.98779 0.36043 0.0
C646 C 0.30571 0.98719 0.48814 0.0
C647 C 0.32092 0.97528 0.47989 0.0
C648 C 0.32726 0.96843 0.41112 0.0
H649 H 0.42335 0.94729 0.52232 0.0
H650 H 0.38891 0.94557 0.51843 0.0
C651 C 0.3197 0.97458 0.35198 0.0
C652 C 0.33253 0.97194 0.54103 0.0
H653 H 0.36969 0.99281 0.63944 0.0
C654 C 0.33599 0.95372 0.54814 0.0
C655 C 0.34392 0.98629 0.5794 0.0
C656 C 0.34077 0.00619 0.57491 0.0
C657 C 0.35206 0.94937 0.5846 0.0
C658 C 0.36494 0.96361 0.61375 0.0
C659 C 0.35992 0.98189 0.61596 0.0
C660 C 0.38518 0.96023 0.62539 0.0
C661 C 0.35587 0.92953 0.58672 0.0
C662 C 0.39464 0.96878 0.68723 0.0
C663 C 0.41445 0.96988 0.68932 0.0
C664 C 0.4251 0.9626 0.62933 0.0
C665 C 0.4156 0.95289 0.56959 0.0
C666 C 0.39583 0.95177 0.56758 0.0
H667 H 0.34238 0.92165 0.59179 0.0
H668 H 0.36263 0.9235 0.53601 0.0
H669 H 0.36541 0.92797 0.63166 0.0
H670 H 0.38671 0.97553 0.73218 0.0
H671 H 0.42142 0.97714 0.7367 0.0
H672 H 0.50425 0.30095 0.60583 0.0
H673 H 0.51099 0.33236 0.66505 0.0
H674 H 0.56734 0.33043 0.5765 0.0
H675 H 0.5607 0.2989 0.51817 0.0
H676 H 0.56351 0.35437 0.71543 0.0
H677 H 0.51205 0.3666 0.50853 0.0
H678 H 0.50325 0.35158 0.56779 0.0
H679 H 0.52256 0.3447 0.50879 0.0
C680 C 0.51847 0.30681 0.60298 0.0
C681 C 0.532 0.29751 0.55785 0.0
C682 C 0.52221 0.32486 0.63578 0.0
C683 C 0.53948 0.33385 0.62346 0.0
C684 C 0.5539 0.32376 0.58634 0.0
H685 H 0.54604 0.45204 0.612 0.0
H686 H 0.54927 0.41877 0.58106 0.0
C687 C 0.55018 0.30565 0.55383 0.0
C688 C 0.54121 0.35416 0.63826 0.0
H689 H 0.52253 0.39249 0.59021 0.0
C690 C 0.55459 0.36274 0.68813 0.0
C691 C 0.52999 0.36503 0.60075 0.0
C692 C 0.51627 0.35657 0.54294 0.0
C693 C 0.5565 0.38197 0.70356 0.0
C694 C 0.54451 0.39285 0.66889 0.0
C695 C 0.53163 0.3842 0.61716 0.0
C696 C 0.54423 0.41315 0.68814 0.0
C697 C 0.57147 0.39042 0.75636 0.0
C698 C 0.54023 0.42106 0.75831 0.0
C699 C 0.53844 0.43996 0.77605 0.0
C700 C 0.54037 0.4515 0.72387 0.0
C701 C 0.54452 0.44361 0.65352 0.0
C702 C 0.54637 0.42459 0.63581 0.0
H703 H 0.58327 0.38096 0.7592 0.0
H704 H 0.57742 0.40349 0.74238 0.0
H705 H 0.56505 0.39329 0.81016 0.0
H706 H 0.53795 0.41255 0.79926 0.0
H707 H 0.53513 0.44543 0.83077 0.0
H708 H 0.2283 0.49156 0.40158 0.0
H709 H 0.21531 0.50089 0.52016 0.0
H710 H 0.25868 0.54376 0.56281 0.0
H711 H 0.27128 0.53498 0.44247 0.0
H712 H 0.22684 0.5082 0.66583 0.0
H713 H 0.21017 0.5719 0.55728 0.0
H714 H 0.21934 0.55238 0.50023 0.0
H715 H 0.23454 0.56613 0.56479 0.0
C716 C 0.23525 0.5028 0.43657 0.0
C717 C 0.25045 0.51285 0.41212 0.0
C718 C 0.22798 0.50798 0.50469 0.0
C719 C 0.23582 0.52325 0.5497 0.0
C720 C 0.25226 0.53212 0.52837 0.0
H721 H 0.13814 0.57165 0.76273 0.0
H722 H 0.17266 0.5687 0.76521 0.0
C723 C 0.25948 0.52702 0.45974 0.0
C724 C 0.22445 0.53148 0.61129 0.0
H725 H 0.19074 0.56355 0.64569 0.0
C726 C 0.21936 0.52066 0.66329 0.0
C727 C 0.21497 0.54797 0.60904 0.0
C728 C 0.21991 0.56032 0.55493 0.0
C729 C 0.2035 0.52472 0.70699 0.0
C730 C 0.19237 0.53966 0.69697 0.0
C731 C 0.19912 0.55191 0.65258 0.0
C732 C 0.17197 0.54024 0.71559 0.0
C733 C 0.19805 0.5122 0.75969 0.0
C734 C 0.16009 0.52512 0.68876 0.0
C735 C 0.14051 0.52679 0.68711 0.0
C736 C 0.13237 0.54369 0.71146 0.0
C737 C 0.14408 0.55849 0.74314 0.0
C738 C 0.16377 0.5568 0.74494 0.0
H739 H 0.21092 0.50776 0.78499 0.0
H740 H 0.18857 0.51892 0.80197 0.0
H741 H 0.19066 0.49968 0.73124 0.0
H742 H 0.16598 0.51233 0.66404 0.0
H743 H 0.13177 0.51503 0.66404 0.0
H744 H 0.04362 0.79318 0.29345 0.0
H745 H 0.05234 0.81312 0.20666 0.0
H746 H 0.99794 0.80117 0.10361 0.0
H747 H 0.98902 0.78141 0.19143 0.0
H748 H 0.05259 0.8142 0.05449 0.0
H749 H 0.99639 0.85519 0.20482 0.0
H750 H 1.00556 0.83512 0.23386 0.0
H751 H 0.98928 0.83275 0.16019 0.0
C752 C 0.03385 0.7942 0.25041 0.0
C753 C 1.01556 0.78602 0.2496 0.0
C754 C 0.03884 0.80558 0.20084 0.0
C755 C 0.02561 0.80893 0.14986 0.0
C756 C 1.00825 0.79891 0.14324 0.0
H757 H 0.04532 0.90037 0.90781 0.0
H758 H 0.03823 0.86942 0.93403 0.0
C759 C 1.00322 0.78751 0.19301 0.0
C760 C 0.0286 0.82529 0.11467 0.0
H761 H 1.01459 0.86938 0.12498 0.0
C762 C 0.0441 0.82618 0.06868 0.0
C763 C 1.01768 0.841 0.13463 0.0
C764 C 1.00137 0.84114 0.18644 0.0
C765 C 0.04922 0.84256 0.04338 0.0
C766 C 0.03853 0.8583 0.06473 0.0
C767 C 0.02271 0.85723 0.1088 0.0
C768 C 0.0442 0.87648 0.04681 0.0
C769 C 0.0665 0.84321 0.99684 0.0
C770 C 0.04981 0.89065 0.10157 0.0
C771 C 0.05367 0.90832 0.08695 0.0
C772 C 0.05186 0.91219 0.01725 0.0
C773 C 0.04662 0.89785 0.96216 0.0
C774 C 0.04277 0.88013 0.97686 0.0
H775 H 0.07471 0.83053 0.99298 0.0
H776 H 0.06202 0.8449 0.94238 0.0
H777 H 0.07593 0.85515 0.01793 0.0
H778 H 0.05086 0.88809 0.15601 0.0
H779 H 0.05744 0.91908 0.13068 0.0
H780 H 0.73245 0.96622 0.23137 0.0
H781 H 0.71782 0.96791 0.11728 0.0
H782 H 0.76145 0.00702 0.07395 0.0
H783 H 0.77559 0.00612 0.19039 0.0
H784 H 0.72937 0.0217 0.0765 0.0
H785 H 0.71836 0.9554 0.9074 0.0
H786 H 0.7127 0.95177 0.99599 0.0
H787 H 0.73655 0.95902 0.97555 0.0
C788 C 0.73922 0.97482 0.19677 0.0
C789 C 0.75483 0.98641 0.22069 0.0
C790 C 0.73107 0.9755 0.13056 0.0
C791 C 0.73855 0.98756 0.08646 0.0
C792 C 0.75546 0.99756 0.10683 0.0
H793 H 0.63927 0.03342 0.91245 0.0
H794 H 0.67275 0.0254 0.89826 0.0
C795 C 0.76353 0.99702 0.17353 0.0
C796 C 0.72604 0.99311 0.03152 0.0
H797 H 0.68908 0.97483 0.92579 0.0
C798 C 0.72108 0.01158 0.04076 0.0
C799 C 0.71544 0.9801 0.98347 0.0
C800 C 0.72127 0.96052 0.96463 0.0
C801 C 0.70402 0.01676 0.01338 0.0
C802 C 0.69185 1.00309 0.97533 0.0
C803 C 0.69826 0.98521 0.95651 0.0
C804 C 0.67128 0.00596 0.97232 0.0
C805 C 0.69807 0.03633 0.03316 0.0
C806 C 0.65937 0.99731 0.01709 0.0
C807 C 0.64043 1.00188 0.02546 0.0
C808 C 0.63304 0.01523 0.98928 0.0
C809 C 0.64477 0.02338 0.94218 0.0
C810 C 0.66379 0.01871 0.9335 0.0
H811 H 0.70907 0.04513 0.06495 0.0
H812 H 0.69532 0.04222 0.98409 0.0
H813 H 0.68474 0.03679 0.06454 0.0
H814 H 0.66497 0.98758 0.04812 0.0
H815 H 0.63174 0.99542 0.06219 0.0
H816 H 0.49002 0.7095 0.07969 0.0
H817 H 0.48557 0.67831 0.01512 0.0
H818 H 0.53784 0.68462 0.90208 0.0
H819 H 0.54258 0.71564 0.96773 0.0
H820 H 0.48696 0.65698 0.87077 0.0
H821 H 0.5484 0.64814 0.04352 0.0
H822 H 0.53496 0.66872 0.05513 0.0
H823 H 0.55227 0.66483 0.98525 0.0
C824 C 0.50008 0.70455 0.03852 0.0
C825 C 0.5168 0.71489 0.02955 0.0
C826 C 0.49756 0.68668 0.00188 0.0
C827 C 0.51165 0.679 0.95538 0.0
C828 C 0.52695 0.69023 0.93868 0.0
H829 H 0.54501 0.57003 0.79325 0.0
H830 H 0.54024 0.60277 0.82094 0.0
C831 C 0.52953 0.70807 0.97559 0.0
C832 C 0.51218 0.65879 0.93538 0.0
H833 H 0.53746 0.62207 0.9648 0.0
C834 C 0.49798 0.64931 0.89116 0.0
C835 C 0.52636 0.64879 0.96345 0.0
C836 C 0.54128 0.65806 0.01501 0.0
C837 C 0.49801 0.6301 0.87232 0.0
C838 C 0.51246 0.62022 0.89912 0.0
C839 C 0.52643 0.6297 0.94417 0.0
C840 C 0.51411 0.60013 0.87869 0.0
C841 C 0.4829 0.62049 0.82271 0.0
C842 C 0.50096 0.58768 0.90218 0.0
C843 C 0.50369 0.56874 0.88674 0.0
C844 C 0.51965 0.562 0.8478 0.0
C845 C 0.53261 0.57461 0.82386 0.0
C846 C 0.52989 0.59341 0.83932 0.0
H847 H 0.47442 0.63029 0.79826 0.0
H848 H 0.48942 0.61076 0.77963 0.0
H849 H 0.47315 0.61245 0.85287 0.0
H850 H 0.48882 0.59262 0.9336 0.0
H851 H 0.49341 0.55943 0.90573 0.0
H852 H 0.79454 0.44814 0.23413 0.0
H853 H 0.81067 0.42782 0.13916 0.0
H854 H 0.83546 0.4751 0.062 0.0
H855 H 0.81945 0.49525 0.15636 0.0
H856 H 0.82667 0.44211 0.95138 0.0
H857 H 0.86872 0.42921 0.18629 0.0
H858 H 0.84355 0.42429 0.18344 0.0
H859 H 0.85234 0.44763 0.1944 0.0
C860 C 0.80281 0.45408 0.19485 0.0
C861 C 0.80591 0.47313 0.20201 0.0
C862 C 0.81201 0.44252 0.14092 0.0
C863 C 0.82435 0.45 0.09414 0.0
C864 C 0.82589 0.46908 0.09732 0.0
H865 H 0.91909 0.46285 0.88427 0.0
H866 H 0.88601 0.4558 0.90598 0.0
C867 C 0.81683 0.48058 0.15121 0.0
C868 C 0.83869 0.43879 0.05247 0.0
H869 H 0.88342 0.42492 0.07604 0.0
C870 C 0.83888 0.43772 0.97811 0.0
C871 C 0.85445 0.43279 0.08736 0.0
C872 C 0.85494 0.4335 0.16725 0.0
C873 C 0.85519 0.43247 0.93856 0.0
C874 C 0.87182 0.42886 0.97487 0.0
C875 C 0.87079 0.42785 0.04798 0.0
C876 C 0.89103 0.43011 0.94331 0.0
C877 C 0.85467 0.43176 0.85886 0.0
C878 C 0.90512 0.41799 0.95613 0.0
C879 C 0.92427 0.42232 0.94544 0.0
C880 C 0.9296 0.43871 0.92086 0.0
C881 C 0.91541 0.44999 0.90232 0.0
C882 C 0.89636 0.44584 0.91409 0.0
H883 H 0.84075 0.42601 0.83709 0.0
H884 H 0.85626 0.44587 0.84614 0.0
H885 H 0.86611 0.42333 0.83188 0.0
H886 H 0.9014 0.40581 0.97896 0.0
H887 H 0.93495 0.41332 0.95962 0.0
H888 H 0.08488 0.20349 0.18616 0.0
H889 H 0.08541 0.17318 0.11304 0.0
H890 H 0.03685 0.18615 0.99511 0.0
H891 H 0.03609 0.21641 0.06889 0.0
H892 H 0.03131 0.15556 0.06337 0.0
H893 H 0.09799 0.15053 0.90707 0.0
H894 H 0.1012 0.15977 0.99968 0.0
H895 H 0.08802 0.17221 0.94332 0.0
C896 C 0.07473 0.20009 0.14301 0.0
C897 C 0.06039 0.21225 0.13337 0.0
C898 C 0.07509 0.1828 0.10107 0.0
C899 C 0.06119 0.17743 0.04858 0.0
C900 C 0.04776 0.19008 0.03519 0.0
H901 H 0.04454 0.07095 0.78576 0.0
H902 H 0.05032 0.10347 0.82977 0.0
C903 C 0.04743 0.20741 0.07698 0.0
C904 C 0.05889 0.15791 0.01602 0.0
H905 H 0.0816 0.12228 0.91859 0.0
C906 C 0.04223 0.14833 0.03114 0.0
C907 C 0.07317 0.14851 0.97416 0.0
C908 C 0.09105 0.15829 0.95445 0.0
C909 C 0.03962 0.12951 0.00676 0.0
C910 C 0.05414 0.11999 0.96686 0.0
C911 C 0.07062 0.12961 0.95012 0.0
C912 C 0.05209 0.1001 0.94051 0.0
C913 C 0.0213 0.11995 0.02356 0.0
C914 C 0.05152 0.08739 0.98826 0.0
C915 C 0.04823 0.06871 0.96335 0.0
C916 C 0.0454 0.06247 0.89024 0.0
C917 C 0.04653 0.07525 0.8425 0.0
C918 C 0.04991 0.09386 0.86741 0.0
H919 H 1.01015 0.12982 0.04239 0.0
H920 H 1.0159 0.11055 0.97592 0.0
H921 H 0.02391 0.11162 0.06614 0.0
H922 H 0.05334 0.09198 0.04492 0.0
H923 H 0.04748 0.05925 0.00147 0.0
H924 H 0.3392 0.03463 0.22832 0.0
H925 H 0.369 0.037 0.16345 0.0
H926 H 0.34749 0.99601 0.99307 0.0
H927 H 0.31738 0.99413 0.05728 0.0
H928 H 0.39356 0.01108 0.13447 0.0
H929 H 0.3724 0.03052 0.87677 0.0
H930 H 0.35645 0.03189 0.95168 0.0
H931 H 0.36 0.01027 0.89565 0.0
C932 C 0.34059 0.02664 0.17577 0.0
C933 C 0.32578 0.01447 0.14729 0.0
C934 C 0.35773 0.02785 0.1389 0.0
C935 C 0.36067 0.0168 0.07267 0.0
C936 C 0.34559 0.00507 0.04296 0.0
H937 H 0.46269 0.99173 0.81456 0.0
H938 H 0.43061 0.99282 0.86426 0.0
C939 C 0.32831 1.00401 0.07966 0.0
C940 C 0.38001 0.01646 0.03877 0.0
H941 H 0.40403 0.02053 0.88454 0.0
C942 C 0.39578 0.01332 0.07996 0.0
C943 C 0.38313 0.01915 0.96726 0.0
C944 C 0.36713 0.02332 0.92044 0.0
C945 C 0.41433 0.01266 0.05201 0.0
C946 C 0.41748 0.01548 0.9808 0.0
C947 C 0.40173 0.01843 0.93917 0.0
C948 C 0.43699 0.01536 0.94887 0.0
C949 C 0.43037 0.00849 0.09876 0.0
C950 C 0.45136 0.02787 0.97874 0.0
C951 C 0.46981 0.02729 0.95039 0.0
C952 C 0.47439 0.01422 0.89109 0.0
C953 C 0.45983 1.00197 0.8603 0.0
C954 C 0.44139 1.00259 0.88863 0.0
H955 H 0.42512 1.00188 0.14403 0.0
H956 H 0.44065 0.99937 0.06775 0.0
H957 H 0.43801 0.02148 0.12117 0.0
H958 H 0.44833 0.03812 0.02426 0.0
H959 H 0.4805 0.03705 0.9754 0.0
H960 H 0.48122 0.30255 0.37527 0.0
H961 H 0.47688 0.32667 0.30272 0.0
H962 H 0.52616 0.30907 0.17904 0.0
H963 H 0.53037 0.28475 0.2512 0.0
H964 H 0.50445 0.3538 0.30547 0.0
H965 H 0.49005 0.32143 0.0262 0.0
H966 H 0.4868 0.30921 0.1008 0.0
H967 H 0.51016 0.31273 0.06639 0.0
C968 C 0.49062 0.30334 0.33059 0.0
C969 C 0.50606 0.29171 0.31852 0.0
C970 C 0.48824 0.31722 0.28952 0.0
C971 C 0.5012 0.31975 0.23541 0.0
C972 C 0.51579 0.30724 0.21964 0.0
H973 H 0.5304 0.42523 0.10635 0.0
H974 H 0.53064 0.39589 0.15071 0.0
C975 C 0.51814 0.29327 0.26068 0.0
C976 C 0.50097 0.33682 0.20302 0.0
H977 H 0.49806 0.35343 0.04538 0.0
C978 C 0.50295 0.35369 0.24859 0.0
C979 C 0.499 0.33672 0.12887 0.0
C980 C 0.49621 0.31907 0.07763 0.0
C981 C 0.50315 0.37041 0.2222 0.0
C982 C 0.50162 0.37032 0.14793 0.0
C983 C 0.49941 0.35347 0.10225 0.0
C984 C 0.50191 0.38765 0.11724 0.0
C985 C 0.50472 0.38805 0.27427 0.0
C986 C 0.48587 0.39258 0.082 0.0
C987 C 0.48572 0.40932 0.05626 0.0
C988 C 0.50167 0.42145 0.06475 0.0
C989 C 0.5179 0.41623 0.09859 0.0
C990 C 0.51801 0.39951 0.12449 0.0
H991 H 0.50126 0.3859 0.32951 0.0
H992 H 0.51949 0.39372 0.27416 0.0
H993 H 0.49512 0.39838 0.25887 0.0
H994 H 0.47333 0.3836 0.07547 0.0
H995 H 0.47311 0.41271 0.02935 0.0
H996 H 0.21569 0.53053 0.2269 0.0
H997 H 0.18675 0.52937 0.15673 0.0
H998 H 0.20802 0.48439 0.00878 0.0
H999 H 0.23701 0.48501 0.08146 0.0
H1000 H 0.17841 0.53394 0.0264 0.0
H1001 H 0.15755 0.46248 0.05607 0.0
H1002 H 0.177 0.47486 0.10536 0.0
H1003 H 0.18004 0.46494 0.01354 0.0
C1004 C 0.21427 0.5203 0.17953 0.0
C1005 C 0.22862 0.50761 0.16085 0.0
C1006 C 0.19766 0.51972 0.13902 0.0
C1007 C 0.19478 0.50651 0.07801 0.0
C1008 C 0.20953 0.49441 0.05666 0.0
H1009 H 0.09428 0.51893 0.81213 0.0
H1010 H 0.12682 0.51778 0.85444 0.0
C1011 C 0.22626 0.49493 0.09771 0.0
C1012 C 0.17616 0.50553 0.03881 0.0
H1013 H 0.13708 0.4777 0.98895 0.0
C1014 C 0.16942 0.52159 0.01793 0.0
C1015 C 0.16418 0.48952 0.02829 0.0
C1016 C 0.16992 0.472 0.05248 0.0
C1017 C 0.15113 0.52226 0.98866 0.0
C1018 C 0.13918 0.50621 0.97754 0.0
C1019 C 0.14608 0.49004 0.99708 0.0
C1020 C 0.11926 0.50605 0.94875 0.0
C1021 C 0.14461 0.54049 0.9732 0.0
C1022 C 0.10391 0.49893 0.98479 0.0
C1023 C 0.08521 0.4991 0.9593 0.0
C1024 C 0.0813 0.50663 0.89757 0.0
C1025 C 0.09668 0.51341 0.86076 0.0
C1026 C 0.11538 0.51287 0.88532 0.0
H1027 H 0.15277 0.55212 0.00464 0.0
H1028 H 0.14692 0.5413 0.91596 0.0
H1029 H 0.12931 0.54225 0.98534 0.0
H1030 H 0.10634 0.49346 0.03352 0.0
H1031 H 0.07376 0.4937 0.98886 0.0
H1032 H 0.96779 0.80508 0.50347 0.0
H1033 H 0.96639 0.8352 0.57899 0.0
H1034 H 0.02751 0.83935 0.58474 0.0
H1035 H 0.02897 0.80936 0.50933 0.0
H1036 H 1.00592 0.85431 0.72064 0.0
H1037 H 0.98449 0.87932 0.47136 0.0
H1038 H 0.97136 0.86013 0.49729 0.0
H1039 H 0.99558 0.85761 0.4696 0.0
C1040 C 0.98089 0.81213 0.52321 0.0
C1041 C 0.99849 0.80499 0.50059 0.0
C1042 C 0.98008 0.82936 0.56579 0.0
C1043 C 0.99685 0.83953 0.58657 0.0
C1044 C 1.01442 0.83169 0.56917 0.0
H1045 H 0.0431 0.94467 0.75617 0.0
H1046 H 0.0348 0.91233 0.72164 0.0
C1047 C 1.01524 0.81459 0.52624 0.0
C1048 C 0.99636 0.85913 0.61797 0.0
H1049 H 0.99116 0.90141 0.57121 0.0
C1050 C 1.00242 0.86464 0.68851 0.0
C1051 C 0.99176 0.87251 0.57576 0.0
C1052 C 0.9855 0.86724 0.49914 0.0
C1053 C 1.00442 0.8833 0.71758 0.0
C1054 C 1.00079 0.89673 0.6741 0.0
C1055 C 0.99396 0.89114 0.60449 0.0
C1056 C 1.00544 0.91653 0.69734 0.0
C1057 C 1.0106 0.88835 0.79433 0.0
C1058 C 0.99193 0.92983 0.69244 0.0
C1059 C 0.99676 0.94852 0.71082 0.0
C1060 C 1.01521 0.95421 0.73434 0.0
C1061 C 0.02871 0.94082 0.7386 0.0
C1062 C 0.02393 0.92224 0.71973 0.0
H1063 H 1.00596 0.87762 0.8262 0.0
H1064 H 0.02632 0.88944 0.79666 0.0
H1065 H 1.00488 0.90164 0.81929 0.0
H1066 H 0.97763 0.92576 0.67448 0.0
H1067 H 0.98602 0.95846 0.70723 0.0
H1068 H 0.74028 0.02641 0.51993 0.0
H1069 H 0.71062 0.02962 0.58925 0.0
H1070 H 0.69439 0.97357 0.5071 0.0
H1071 H 0.72379 0.97038 0.43849 0.0
H1072 H 0.67368 0.02571 0.53357 0.0
H1073 H 0.68313 0.97615 0.71937 0.0
H1074 H 0.70266 0.98474 0.67108 0.0
H1075 H 0.68728 0.96639 0.62826 0.0
C1076 C 0.73061 0.01466 0.51837 0.0
C1077 C 0.7345 0.99808 0.4742 0.0
C1078 C 0.71356 0.01654 0.55749 0.0
C1079 C 0.70021 1.00179 0.55423 0.0
C1080 C 0.70447 0.98508 0.51193 0.0
H1081 H 0.57764 1.00198 0.6127 0.0
H1082 H 0.61027 1.00154 0.56843 0.0
C1083 C 0.72133 0.98327 0.47251 0.0
C1084 C 0.68126 1.00402 0.59042 0.0
H1085 H 0.6513 0.9852 0.70364 0.0
C1086 C 0.66888 0.01696 0.57129 0.0
C1087 C 0.6749 0.99281 0.64044 0.0
C1088 C 0.68775 0.97936 0.66663 0.0
C1089 C 0.65025 0.01853 0.59851 0.0
C1090 C 0.64352 0.00661 0.6455 0.0
C1091 C 0.65618 0.99417 0.66684 0.0
C1092 C 0.62346 0.00677 0.67273 0.0
C1093 C 0.638 0.03309 0.57696 0.0
C1094 C 0.61973 0.00927 0.74634 0.0
C1095 C 0.601 0.00939 0.77194 0.0
C1096 C 0.5854 0.00685 0.72462 0.0
C1097 C 0.58918 1.00409 0.65093 0.0
C1098 C 0.60792 1.00398 0.62542 0.0
H1099 H 0.64672 0.04438 0.55962 0.0
H1100 H 0.62885 0.02692 0.53145 0.0
H1101 H 0.62873 0.03898 0.62146 0.0
H1102 H 0.63136 0.01133 0.78422 0.0
H1103 H 0.59879 0.01154 0.82904 0.0
H1104 H 0.51052 0.72306 0.30517 0.0
H1105 H 0.51515 0.69977 0.38136 0.0
H1106 H 0.57459 0.69889 0.32741 0.0
H1107 H 0.57002 0.72253 0.25257 0.0
H1108 H 0.52525 0.66626 0.32335 0.0
H1109 H 0.57698 0.69342 0.53568 0.0
H1110 H 0.56462 0.7081 0.48493 0.0
H1111 H 0.58512 0.69619 0.44831 0.0
C1112 C 0.52473 0.71851 0.31239 0.0
C1113 C 0.53995 0.72475 0.27368 0.0
C1114 C 0.52735 0.70507 0.35537 0.0
C1115 C 0.54522 0.69751 0.36035 0.0
C1116 C 0.56074 0.70471 0.32579 0.0
H1117 H 0.56291 0.58455 0.40895 0.0
H1118 H 0.56069 0.61408 0.36767 0.0
C1119 C 0.55815 0.7183 0.28316 0.0
C1120 C 0.54694 0.68048 0.39258 0.0
H1121 H 0.57176 0.6608 0.51353 0.0
C1122 C 0.53531 0.66517 0.36543 0.0
C1123 C 0.56 0.67897 0.44766 0.0
C1124 C 0.57227 0.6951 0.48139 0.0
C1125 C 0.53659 0.64839 0.39073 0.0
C1126 C 0.55016 0.64665 0.44378 0.0
C1127 C 0.56152 0.66205 0.47225 0.0
C1128 C 0.55267 0.62893 0.47015 0.0
C1129 C 0.52321 0.63272 0.36079 0.0
C1130 C 0.54952 0.62751 0.54209 0.0
C1131 C 0.55099 0.61063 0.56615 0.0
C1132 C 0.55575 0.59479 0.51883 0.0
C1133 C 0.55934 0.59641 0.44711 0.0
C1134 C 0.55788 0.61328 0.42318 0.0
H1135 H 0.5105 0.63762 0.33595 0.0
H1136 H 0.53064 0.62338 0.31905 0.0
H1137 H 0.51844 0.62475 0.40289 0.0
H1138 H 0.5456 0.63941 0.57945 0.0
H1139 H 0.54845 0.61002 0.62197 0.0
H1140 H 0.81475 0.49935 0.52392 0.0
H1141 H 0.84355 0.50298 0.59856 0.0
H1142 H 0.87547 0.52018 0.42551 0.0
H1143 H 0.84687 0.51689 0.35185 0.0
H1144 H 0.87648 0.48391 0.57095 0.0
H1145 H 0.89368 0.55803 0.59039 0.0
H1146 H 0.87072 0.54813 0.56146 0.0
H1147 H 0.89026 0.54711 0.49995 0.0
C1148 C 0.82779 0.50444 0.5027 0.0
C1149 C 0.82846 0.5079 0.43198 0.0
C1150 C 0.84431 0.50634 0.54515 0.0
C1151 C 0.86178 0.51202 0.51817 0.0
C1152 C 0.86222 0.51613 0.44845 0.0
H1153 H 0.98155 0.519 0.6242 0.0
H1154 H 0.94993 0.5193 0.57186 0.0
C1155 C 0.84582 0.51416 0.40611 0.0
C1156 C 0.87983 0.51238 0.56015 0.0
H1157 H 0.91894 0.53933 0.61757 0.0
C1158 C 0.88563 0.4961 0.58203 0.0
C1159 C 0.89193 0.52823 0.57453 0.0
C1160 C 0.88626 0.5464 0.55599 0.0
C1161 C 0.90339 0.49506 0.61508 0.0
C1162 C 0.91568 0.51082 0.628 0.0
C1163 C 0.90968 0.52719 0.6075 0.0
C1164 C 0.93498 0.51053 0.66086 0.0
C1165 C 0.90913 0.47685 0.63319 0.0
C1166 C 0.93731 0.50568 0.72894 0.0
C1167 C 0.95546 0.50545 0.75912 0.0
C1168 C 0.97181 0.5102 0.72224 0.0
C1169 C 0.9694 0.51521 0.65435 0.0
C1170 C 0.95125 0.51543 0.62427 0.0
H1171 H 0.90054 0.46527 0.60343 0.0
H1172 H 0.92435 0.47452 0.62126 0.0
H1173 H 0.9069 0.47675 0.69096 0.0
H1174 H 0.92505 0.50221 0.7592 0.0
H1175 H 0.95665 0.50156 0.81152 0.0
loop_
_geom_bond_atom_site_label_1
_geom_bond_atom_site_label_2
_geom_bond_distance
_geom_bond_site_symmetry_2
_ccdc_geom_bond_type
H0 C1 0.949 . S
C1 H0 0.949 . S
C1 C2 1.395 . S
C1 C3 1.391 . S
C2 C1 1.395 . S
C2 C5 1.390 . S
C3 C1 1.391 . S
C3 C7 1.387 . S
C3 C8 1.491 . S
H4 C5 0.950 . S
C5 C2 1.390 . S
C5 H4 0.950 . S
C5 C6 1.378 . S
C6 C5 1.378 . S
C6 C7 1.409 . S
C7 C3 1.387 . S
C7 C6 1.409 . S
C7 H9 0.951 . S
C8 C3 1.491 . S
C8 C10 1.382 . S
C8 C12 1.404 . S
H9 C7 0.951 . S
C10 C8 1.382 . S
C10 C11 1.390 . S
C10 H15 0.949 . S
C11 C10 1.390 . S
C11 C16 1.399 . S
C12 C8 1.404 . S
C12 H13 0.950 . S
C12 C14 1.375 . S
H13 C12 0.950 . S
C14 C12 1.375 . S
C14 C16 1.382 . S
C14 H18 0.950 . S
H15 C10 0.949 . S
C16 C11 1.399 . S
C16 C14 1.382 . S
C16 H17 0.952 . S
H17 C16 0.952 . S
H18 C14 0.950 . S
H19 C20 0.949 . S
C20 H19 0.949 . S
C20 C21 1.395 . S
C20 C22 1.391 . S
C21 C20 1.395 . S
C21 C24 1.390 . S
C22 C20 1.391 . S
C22 C26 1.387 . S
C22 C27 1.491 . S
H23 C24 0.950 . S
C24 C21 1.390 . S
C24 H23 0.950 . S
C24 C25 1.378 . S
C25 C24 1.378 . S
C25 C26 1.409 . S
C26 C22 1.387 . S
C26 C25 1.409 . S
C26 H28 0.951 . S
C27 C22 1.491 . S
C27 C29 1.382 . S
C27 C31 1.404 . S
H28 C26 0.951 . S
C29 C27 1.382 . S
C29 C30 1.390 . S
C29 H34 0.949 . S
C30 C29 1.390 . S
C30 C35 1.399 . S
C31 C27 1.404 . S
C31 H32 0.950 . S
C31 C33 1.375 . S
H32 C31 0.950 . S
C33 C31 1.375 . S
C33 C35 1.382 . S
C33 H37 0.950 . S
H34 C29 0.949 . S
C35 C30 1.399 . S
C35 C33 1.382 . S
C35 H36 0.952 . S
H36 C35 0.952 . S
H37 C33 0.950 . S
H38 C39 0.949 . S
C39 H38 0.949 . S
C39 C40 1.396 . S
C39 C41 1.391 . S
C40 C39 1.396 . S
C40 C43 1.391 1_565 S
C41 C39 1.391 . S
C41 C45 1.387 . S
C41 C46 1.491 . S
H42 C43 0.950 . S
C43 C40 1.391 1_545 S
C43 H42 0.950 . S
C43 C44 1.373 1_545 S
C44 C43 1.373 1_565 S
C44 C45 1.413 . S
C45 C41 1.387 . S
C45 C44 1.413 . S
C45 H47 0.951 . S
C46 C41 1.491 . S
C46 C48 1.413 . S
C46 C50 1.404 . S
H47 C45 0.951 . S
C48 C46 1.413 . S
C48 C49 1.404 . S
C48 H53 0.905 1_565 S
C49 C48 1.404 . S
C49 C54 1.399 . S
C50 C46 1.404 . S
C50 H51 0.950 . S
C50 C52 1.375 . S
H51 C50 0.950 . S
C52 C50 1.375 . S
C52 C54 1.382 . S
C52 H56 0.950 . S
H53 C48 0.905 1_545 S
C54 C49 1.399 . S
C54 C52 1.382 . S
C54 H55 0.952 . S
H55 C54 0.952 . S
H56 C52 0.950 . S
H57 C58 0.949 . S
C58 H57 0.949 . S
C58 C59 1.395 . S
C58 C60 1.391 1_556 S
C59 C58 1.395 . S
C59 C62 1.390 1_556 S
C60 C58 1.391 1_554 S
C60 C64 1.387 . S
C60 C65 1.491 . S
H61 C62 0.950 . S
C62 C59 1.390 1_554 S
C62 H61 0.950 . S
C62 C63 1.378 . S
C63 C62 1.378 . S
C63 C64 1.409 . S
C64 C60 1.387 . S
C64 C63 1.409 . S
C64 H66 0.951 . S
C65 C60 1.491 . S
C65 C67 1.382 1_554 S
C65 C69 1.404 . S
H66 C64 0.951 . S
C67 C65 1.382 1_556 S
C67 C68 1.390 . S
C67 H72 0.949 . S
C68 C67 1.390 . S
C68 C73 1.399 1_556 S
C69 C65 1.404 . S
C69 H70 0.950 . S
C69 C71 1.375 . S
H70 C69 0.950 . S
C71 C69 1.375 . S
C71 C73 1.382 . S
C71 H75 0.950 . S
H72 C67 0.949 . S
C73 C68 1.399 1_554 S
C73 C71 1.382 . S
C73 H74 0.952 . S
H74 C73 0.952 . S
H75 C71 0.950 . S
H76 C77 0.949 . S
C77 H76 0.949 . S
C77 C78 1.395 . S
C77 C79 1.391 . S
C78 C77 1.395 . S
C78 C81 1.390 . S
C79 C77 1.391 . S
C79 C83 1.387 . S
C79 C84 1.491 . S
H80 C81 0.950 . S
C81 C78 1.390 . S
C81 H80 0.950 . S
C81 C82 1.378 . S
C82 C81 1.378 . S
C82 C83 1.409 . S
C83 C79 1.387 . S
C83 C82 1.409 . S
C83 H85 0.951 . S
C84 C79 1.491 . S
C84 C86 1.382 . S
C84 C88 1.404 . S
H85 C83 0.951 . S
C86 C84 1.382 . S
C86 C87 1.390 . S
C86 H91 0.949 . S
C87 C86 1.390 . S
C87 C92 1.399 . S
C88 C84 1.404 . S
C88 H89 0.950 . S
C88 C90 1.375 . S
H89 C88 0.950 . S
C90 C88 1.375 . S
C90 C92 1.382 . S
C90 H94 0.950 . S
H91 C86 0.949 . S
C92 C87 1.399 . S
C92 C90 1.382 . S
C92 H93 0.952 . S
H93 C92 0.952 . S
H94 C90 0.950 . S
H95 C96 0.949 . S
C96 H95 0.949 . S
C96 C97 1.395 . S
C96 C98 1.391 . S
C97 C96 1.395 . S
C97 C100 1.390 . S
C98 C96 1.391 . S
C98 C102 1.387 . S
C98 C103 1.491 . S
H99 C100 0.950 . S
C100 C97 1.390 . S
C100 H99 0.950 . S
C100 C101 1.378 . S
C101 C100 1.378 . S
C101 C102 1.409 . S
C102 C98 1.387 . S
C102 C101 1.409 . S
C102 H104 0.951 . S
C103 C98 1.491 . S
C103 C105 1.382 . S
C103 C107 1.404 . S
H104 C102 0.951 . S
C105 C103 1.382 . S
C105 C106 1.390 . S
C105 H110 0.949 . S
C106 C105 1.390 . S
C106 C111 1.399 . S
C107 C103 1.404 . S
C107 H108 0.950 . S
C107 C109 1.375 . S
H108 C107 0.950 . S
C109 C107 1.375 . S
C109 C111 1.382 . S
C109 H113 0.938 1_455 S
H110 C105 0.949 . S
C111 C106 1.399 . S
C111 C109 1.382 . S
C111 H112 0.952 . S
H112 C111 0.952 . S
H113 C109 0.938 1_655 S
H114 C115 0.949 . S
C115 H114 0.949 . S
C115 C116 1.395 1_565 S
C115 C117 1.391 . S
C116 C115 1.395 1_545 S
C116 C119 1.389 . S
C117 C115 1.391 . S
C117 C121 1.387 . S
C117 C122 1.491 . S
H118 C119 0.950 . S
C119 C116 1.389 . S
C119 H118 0.950 . S
C119 C120 1.378 1_545 S
C120 C119 1.378 1_565 S
C120 C121 1.410 . S
C121 C117 1.387 . S
C121 C120 1.410 . S
C121 H123 0.951 . S
C122 C117 1.491 . S
C122 C124 1.396 . S
C122 C126 1.404 . S
H123 C121 0.951 . S
C124 C122 1.396 . S
C124 C125 1.398 . S
C124 H129 0.928 1_565 S
C125 C124 1.398 . S
C125 C130 1.399 . S
C126 C122 1.404 . S
C126 H127 0.950 . S
C126 C128 1.375 . S
H127 C126 0.950 . S
C128 C126 1.375 . S
C128 C130 1.382 . S
C128 H132 0.950 . S
H129 C124 0.928 1_545 S
C130 C125 1.399 . S
C130 C128 1.382 . S
C130 H131 0.952 . S
H131 C130 0.952 . S
H132 C128 0.950 . S
H133 C134 0.949 . S
C134 H133 0.949 . S
C134 C135 1.395 . S
C134 C136 1.391 . S
C135 C134 1.395 . S
C135 C138 1.390 . S
C136 C134 1.391 . S
C136 C140 1.387 . S
C136 C141 1.491 . S
H137 C138 0.950 . S
C138 C135 1.390 . S
C138 H137 0.950 . S
C138 C139 1.378 . S
C139 C138 1.378 . S
C139 C140 1.409 . S
C140 C136 1.387 . S
C140 C139 1.409 . S
C140 H142 0.951 . S
C141 C136 1.491 . S
C141 C143 1.382 . S
C141 C145 1.404 . S
H142 C140 0.951 . S
C143 C141 1.382 . S
C143 C144 1.390 . S
C143 H148 0.949 . S
C144 C143 1.390 . S
C144 C149 1.399 . S
C145 C141 1.404 . S
C145 H146 0.950 . S
C145 C147 1.375 . S
H146 C145 0.950 . S
C147 C145 1.375 . S
C147 C149 1.382 . S
C147 H151 0.950 . S
H148 C143 0.949 . S
C149 C144 1.399 . S
C149 C147 1.382 . S
C149 H150 0.952 . S
H150 C149 0.952 . S
H151 C147 0.950 . S
Tb152 C161 2.764 . S
Tb152 O162 2.325 1_655 S
Tb152 O165 2.303 1_655 S
Tb152 O169 2.322 1_545 S
Tb152 O170 2.349 . S
Tb152 O173 2.415 1_655 S
Tb152 O174 2.399 . S
Tb153 O163 2.322 1_565 S
Tb153 O164 2.349 . S
Tb153 O166 2.415 . S
Tb153 O167 2.399 . S
Tb153 O168 2.325 . S
Tb153 O171 2.303 1_455 S
Tb153 C182 2.764 . S
C154 O170 1.261 . S
C154 O171 1.257 1_545 S
C155 C158 1.358 . S
C155 C159 1.332 1_655 S
C155 C161 1.504 . S
C156 C157 1.373 . S
C156 C160 1.308 1_655 S
C157 C156 1.373 . S
C157 C158 1.429 . S
C157 H184 0.932 . S
C158 C155 1.358 . S
C158 C157 1.429 . S
C158 H185 0.930 . S
C159 C155 1.332 1_455 S
C159 C160 1.394 . S
C159 H186 0.932 . S
C160 C156 1.308 1_455 S
C160 C159 1.394 . S
C160 H187 0.929 . S
C161 Tb152 2.764 . S
C161 C155 1.504 . S
C161 O173 1.239 1_655 S
C161 O174 1.263 . S
O162 Tb152 2.325 1_455 S
O162 C172 1.236 . S
O163 Tb153 2.322 1_545 S
O163 C172 1.257 . S
O164 Tb153 2.349 . S
O164 C175 1.261 . S
O165 Tb152 2.303 1_455 S
O165 C175 1.257 1_545 S
O166 Tb153 2.415 . S
O166 C182 1.239 . S
O167 Tb153 2.399 . S
O167 C182 1.263 . S
O168 Tb153 2.325 . S
O168 C183 1.236 . S
O169 Tb152 2.322 1_565 S
O169 C183 1.257 1_655 S
O170 Tb152 2.349 . S
O170 C154 1.261 . S
O171 Tb153 2.303 1_655 S
O171 C154 1.257 1_565 S
C172 O162 1.236 . S
C172 O163 1.257 . S
O173 Tb152 2.415 1_455 S
O173 C161 1.239 1_455 S
O174 Tb152 2.399 . S
O174 C161 1.263 . S
C175 O164 1.261 . S
C175 O165 1.257 1_565 S
C176 C179 1.358 . S
C176 C180 1.332 . S
C176 C182 1.504 . S
C177 C178 1.373 . S
C177 C181 1.308 . S
C178 C177 1.373 . S
C178 C179 1.429 1_554 S
C178 H188 0.932 . S
C179 C176 1.358 . S
C179 C178 1.429 1_556 S
C179 H189 0.930 . S
C180 C176 1.332 . S
C180 C181 1.394 1_556 S
C180 H190 0.932 1_455 S
C181 C177 1.308 . S
C181 C180 1.394 1_554 S
C181 H191 0.929 1_455 S
C182 Tb153 2.764 . S
C182 O166 1.239 . S
C182 O167 1.263 . S
C182 C176 1.504 . S
C183 O168 1.236 . S
C183 O169 1.257 1_455 S
H184 C157 0.932 . S
H185 C158 0.930 . S
H186 C159 0.932 . S
H187 C160 0.929 . S
H188 C178 0.932 . S
H189 C179 0.930 . S
H190 C180 0.932 1_655 S
H191 C181 0.929 1_655 S
Tb192 C201 2.764 . S
Tb192 O202 2.325 . S
Tb192 O205 2.303 1_565 S
Tb192 O209 2.322 . S
Tb192 O210 2.349 . S
Tb192 O213 2.415 1_565 S
Tb192 O214 2.399 . S
Tb193 O203 2.322 . S
Tb193 O204 2.349 . S
Tb193 O206 2.415 1_545 S
Tb193 O207 2.399 . S
Tb193 O208 2.325 . S
Tb193 O211 2.303 1_545 S
Tb193 C222 2.764 . S
C194 O210 1.261 . S
C194 O211 1.257 . S
C195 C198 1.358 . S
C195 C199 1.332 1_565 S
C195 C201 1.504 . S
C196 C197 1.373 . S
C196 C200 1.308 1_565 S
C197 C196 1.373 . S
C197 C198 1.429 . S
C197 H224 0.932 . S
C198 C195 1.358 . S
C198 C197 1.429 . S
C198 H225 0.930 . S
C199 C195 1.332 1_545 S
C199 C200 1.394 . S
C199 H226 0.932 . S
C200 C196 1.308 1_545 S
C200 C199 1.394 . S
C200 H227 0.929 . S
C201 Tb192 2.764 . S
C201 C195 1.504 . S
C201 O213 1.239 1_565 S
C201 O214 1.263 . S
O202 Tb192 2.325 . S
O202 C212 1.236 1_565 S
O203 Tb193 2.322 . S
O203 C212 1.257 . S
O204 Tb193 2.349 . S
O204 C215 1.261 . S
O205 Tb192 2.303 1_545 S
O205 C215 1.257 . S
O206 Tb193 2.415 1_565 S
O206 C222 1.239 1_565 S
O207 Tb193 2.399 . S
O207 C222 1.263 . S
O208 Tb193 2.325 . S
O208 C223 1.236 1_545 S
O209 Tb192 2.322 . S
O209 C223 1.257 . S
O210 Tb192 2.349 . S
O210 C194 1.261 . S
O211 Tb193 2.303 1_565 S
O211 C194 1.257 . S
C212 O202 1.236 1_545 S
C212 O203 1.257 . S
O213 Tb192 2.415 1_545 S
O213 C201 1.239 1_545 S
O214 Tb192 2.399 . S
O214 C201 1.263 . S
C215 O204 1.261 . S
C215 O205 1.257 . S
C216 C219 1.358 1_556 S
C216 C220 1.332 1_545 S
C216 C222 1.504 . S
C217 C218 1.373 . S
C217 C221 1.308 1_545 S
C218 C217 1.373 . S
C218 C219 1.429 . S
C218 H228 0.932 . S
C219 C216 1.358 1_554 S
C219 C218 1.429 . S
C219 H229 0.930 . S
C220 C216 1.332 1_565 S
C220 C221 1.394 1_556 S
C220 H230 0.932 . S
C221 C217 1.308 1_565 S
C221 C220 1.394 1_554 S
C221 H231 0.929 . S
C222 Tb193 2.764 . S
C222 O206 1.239 1_545 S
C222 O207 1.263 . S
C222 C216 1.504 . S
C223 O208 1.236 1_565 S
C223 O209 1.257 . S
H224 C197 0.932 . S
H225 C198 0.930 . S
H226 C199 0.932 . S
H227 C200 0.929 . S
H228 C218 0.932 . S
H229 C219 0.930 . S
H230 C220 0.932 . S
H231 C221 0.929 . S
Tb232 C241 2.764 . S
Tb232 O242 2.325 . S
Tb232 O245 2.303 . S
Tb232 O249 2.322 . S
Tb232 O250 2.349 . S
Tb232 O253 2.415 . S
Tb232 O254 2.399 . S
Tb233 O243 2.322 . S
Tb233 O244 2.349 . S
Tb233 O246 2.415 . S
Tb233 O247 2.399 . S
Tb233 O248 2.325 . S
Tb233 O251 2.303 . S
Tb233 C262 2.764 . S
C234 O250 1.261 . S
C234 O251 1.257 . S
C235 C238 1.358 . S
C235 C239 1.332 . S
C235 C241 1.504 1_554 S
C236 C237 1.373 . S
C236 C240 1.308 . S
C237 C236 1.373 . S
C237 C238 1.429 . S
C237 H264 0.932 . S
C238 C235 1.358 . S
C238 C237 1.429 . S
C238 H265 0.930 . S
C239 C235 1.332 . S
C239 C240 1.394 . S
C239 H266 0.932 . S
C240 C236 1.308 . S
C240 C239 1.394 . S
C240 H267 0.929 . S
C241 Tb232 2.764 . S
C241 C235 1.504 1_556 S
C241 O253 1.239 . S
C241 O254 1.263 . S
O242 Tb232 2.325 . S
O242 C252 1.236 . S
O243 Tb233 2.322 . S
O243 C252 1.257 . S
O244 Tb233 2.349 . S
O244 C255 1.261 . S
O245 Tb232 2.303 . S
O245 C255 1.257 . S
O246 Tb233 2.415 . S
O246 C262 1.239 . S
O247 Tb233 2.399 . S
O247 C262 1.263 . S
O248 Tb233 2.325 . S
O248 C263 1.236 . S
O249 Tb232 2.322 . S
O249 C263 1.257 . S
O250 Tb232 2.349 . S
O250 C234 1.261 . S
O251 Tb233 2.303 . S
O251 C234 1.257 . S
C252 O242 1.236 . S
C252 O243 1.257 . S
O253 Tb232 2.415 . S
O253 C241 1.239 . S
O254 Tb232 2.399 . S
O254 C241 1.263 . S
C255 O244 1.261 . S
C255 O245 1.257 . S
C256 C259 1.358 . S
C256 C260 1.332 . S
C256 C262 1.504 . S
C257 C258 1.373 . S
C257 C261 1.308 . S
C258 C257 1.373 . S
C258 C259 1.429 . S
C258 H268 0.932 . S
C259 C256 1.358 . S
C259 C258 1.429 . S
C259 H269 0.930 . S
C260 C256 1.332 . S
C260 C261 1.394 . S
C260 H270 0.932 . S
C261 C257 1.308 . S
C261 C260 1.394 . S
C261 H271 0.929 . S
C262 Tb233 2.764 . S
C262 O246 1.239 . S
C262 O247 1.263 . S
C262 C256 1.504 . S
C263 O248 1.236 . S
C263 O249 1.257 . S
H264 C237 0.932 . S
H265 C238 0.930 . S
H266 C239 0.932 . S
H267 C240 0.929 . S
H268 C258 0.932 . S
H269 C259 0.930 . S
H270 C260 0.932 . S
H271 C261 0.929 . S
Tb272 C281 2.764 . S
Tb272 O282 2.325 . S
Tb272 O285 2.303 . S
Tb272 O289 2.322 1_455 S
Tb272 O290 2.349 . S
Tb272 O293 2.415 . S
Tb272 O294 2.399 . S
Tb273 O283 2.322 1_655 S
Tb273 O284 2.349 1_655 S
Tb273 O286 2.415 . S
Tb273 O287 2.399 . S
Tb273 O288 2.325 . S
Tb273 O291 2.303 1_655 S
Tb273 C302 2.764 . S
C274 O290 1.261 . S
C274 O291 1.257 . S
C275 C278 1.358 . S
C275 C279 1.332 . S
C275 C281 1.504 . S
C276 C277 1.373 . S
C276 C280 1.308 . S
C277 C276 1.373 . S
C277 C278 1.429 . S
C277 H304 0.932 . S
C278 C275 1.358 . S
C278 C277 1.429 . S
C278 H305 0.930 . S
C279 C275 1.332 . S
C279 C280 1.394 . S
C279 H306 0.932 . S
C280 C276 1.308 . S
C280 C279 1.394 . S
C280 H307 0.929 . S
C281 Tb272 2.764 . S
C281 C275 1.504 . S
C281 O293 1.239 . S
C281 O294 1.263 . S
O282 Tb272 2.325 . S
O282 C292 1.236 . S
O283 Tb273 2.322 1_455 S
O283 C292 1.257 . S
O284 Tb273 2.349 1_455 S
O284 C295 1.261 . S
O285 Tb272 2.303 . S
O285 C295 1.257 . S
O286 Tb273 2.415 . S
O286 C302 1.239 . S
O287 Tb273 2.399 . S
O287 C302 1.263 . S
O288 Tb273 2.325 . S
O288 C303 1.236 . S
O289 Tb272 2.322 1_655 S
O289 C303 1.257 . S
O290 Tb272 2.349 . S
O290 C274 1.261 . S
O291 Tb273 2.303 1_455 S
O291 C274 1.257 . S
C292 O282 1.236 . S
C292 O283 1.257 . S
O293 Tb272 2.415 . S
O293 C281 1.239 . S
O294 Tb272 2.399 . S
O294 C281 1.263 . S
C295 O284 1.261 . S
C295 O285 1.257 . S
C296 C299 1.358 . S
C296 C300 1.332 . S
C296 C302 1.504 . S
C297 C298 1.373 . S
C297 C301 1.308 . S
C298 C297 1.373 . S
C298 C299 1.429 1_554 S
C298 H308 0.932 . S
C299 C296 1.358 . S
C299 C298 1.429 1_556 S
C299 H309 0.930 . S
C300 C296 1.332 . S
C300 C301 1.394 1_556 S
C300 H310 0.932 . S
C301 C297 1.308 . S
C301 C300 1.394 1_554 S
C301 H311 0.929 . S
C302 Tb273 2.764 . S
C302 O286 1.239 . S
C302 O287 1.263 . S
C302 C296 1.504 . S
C303 O288 1.236 . S
C303 O289 1.257 . S
H304 C277 0.932 . S
H305 C278 0.930 . S
H306 C279 0.932 . S
H307 C280 0.929 . S
H308 C298 0.932 . S
H309 C299 0.930 . S
H310 C300 0.932 . S
H311 C301 0.929 . S
H312 C320 0.929 . S
H313 C322 0.930 . S
H314 C324 0.930 . S
H315 C327 0.929 . S
H316 C330 0.930 . S
H317 C332 0.960 . S
H318 C332 0.960 . S
H319 C332 0.960 . S
C320 H312 0.929 . S
C320 C321 1.372 1_565 S
C320 C322 1.384 . S
C321 C320 1.372 1_545 S
C321 C327 1.395 . S
C322 H313 0.930 . S
C322 C320 1.384 . S
C322 C323 1.374 . S
C323 C322 1.374 . S
C323 C324 1.397 1_565 S
C323 C328 1.487 . S
C324 H314 0.930 . S
C324 C323 1.397 1_545 S
C324 C327 1.386 . S
H325 C341 0.930 . S
H326 C342 0.931 . S
C327 H315 0.929 . S
C327 C321 1.395 . S
C327 C324 1.386 . S
C328 C323 1.487 . S
C328 C330 1.427 . S
C328 C331 1.375 1_565 S
H329 C335 0.930 . S
C330 H316 0.930 . S
C330 C328 1.427 . S
C330 C333 1.403 . S
C331 C328 1.375 1_545 S
C331 C332 1.524 . S
C331 C335 1.400 . S
C332 H317 0.960 . S
C332 H318 0.960 . S
C332 H319 0.960 . S
C332 C331 1.524 . S
C333 C330 1.403 . S
C333 C334 1.392 . S
C333 C337 1.495 . S
C334 C333 1.392 . S
C334 C335 1.385 1_565 S
C334 C336 1.478 . S
C335 H329 0.930 . S
C335 C331 1.400 . S
C335 C334 1.385 1_545 S
C336 C334 1.478 . S
C336 C338 1.381 . S
C336 C342 1.383 1_565 S
C337 C333 1.495 . S
C337 H343 0.959 . S
C337 H344 0.961 . S
C337 H345 0.960 . S
C338 C336 1.381 . S
C338 C339 1.394 . S
C338 H346 0.930 . S
C339 C338 1.394 . S
C339 C340 1.373 1_565 S
C339 H347 0.929 . S
C340 C339 1.373 1_545 S
C340 C341 1.388 . S
C341 H325 0.930 . S
C341 C340 1.388 . S
C341 C342 1.379 . S
C342 H326 0.931 . S
C342 C336 1.383 1_545 S
C342 C341 1.379 . S
H343 C337 0.959 . S
H344 C337 0.961 . S
H345 C337 0.960 . S
H346 C338 0.930 . S
H347 C339 0.929 . S
H348 C356 0.929 . S
H349 C358 0.930 . S
H350 C360 0.930 . S
H351 C363 0.929 . S
H352 C366 0.930 . S
H353 C368 0.960 . S
H354 C368 0.960 . S
H355 C368 0.960 . S
C356 H348 0.929 . S
C356 C357 1.377 . S
C356 C358 1.384 . S
C357 C356 1.377 . S
C357 C363 1.390 . S
C358 H349 0.930 . S
C358 C356 1.384 . S
C358 C359 1.372 . S
C359 C358 1.372 . S
C359 C360 1.400 . S
C359 C364 1.490 . S
C360 H350 0.930 . S
C360 C359 1.400 . S
C360 C363 1.386 . S
H361 C377 0.930 . S
H362 C378 0.931 . S
C363 H351 0.929 . S
C363 C357 1.390 . S
C363 C360 1.386 . S
C364 C359 1.490 . S
C364 C366 1.395 . S
C364 C367 1.403 . S
H365 C371 0.930 . S
C366 H352 0.930 . S
C366 C364 1.395 . S
C366 C369 1.403 . S
C367 C364 1.403 . S
C367 C368 1.524 . S
C367 C371 1.400 . S
C368 H353 0.960 . S
C368 H354 0.960 . S
C368 H355 0.960 . S
C368 C367 1.524 . S
C369 C366 1.403 . S
C369 C370 1.392 . S
C369 C373 1.495 . S
C370 C369 1.392 . S
C370 C371 1.385 . S
C370 C372 1.478 . S
C371 H365 0.930 . S
C371 C367 1.400 . S
C371 C370 1.385 . S
C372 C370 1.478 . S
C372 C374 1.381 . S
C372 C378 1.383 . S
C373 C369 1.495 . S
C373 H379 0.959 . S
C373 H380 0.961 . S
C373 H381 0.960 . S
C374 C372 1.381 . S
C374 C375 1.394 . S
C374 H382 0.930 . S
C375 C374 1.394 . S
C375 C376 1.383 . S
C375 H383 0.929 . S
C376 C375 1.383 . S
C376 C377 1.377 . S
C377 H361 0.930 . S
C377 C376 1.377 . S
C377 C378 1.379 . S
C378 H362 0.931 . S
C378 C372 1.383 . S
C378 C377 1.379 . S
H379 C373 0.959 . S
H380 C373 0.961 . S
H381 C373 0.960 . S
H382 C374 0.930 . S
H383 C375 0.929 . S
H384 C392 0.929 . S
H385 C394 0.930 . S
H386 C396 0.930 . S
H387 C399 0.929 . S
H388 C402 0.930 . S
H389 C404 0.960 . S
H390 C404 0.960 . S
H391 C404 0.960 . S
C392 H384 0.929 . S
C392 C393 1.377 . S
C392 C394 1.384 . S
C393 C392 1.377 . S
C393 C399 1.390 . S
C394 H385 0.930 . S
C394 C392 1.384 . S
C394 C395 1.372 . S
C395 C394 1.372 . S
C395 C396 1.400 . S
C395 C400 1.490 . S
C396 H386 0.930 . S
C396 C395 1.400 . S
C396 C399 1.386 . S
H397 C413 0.930 . S
H398 C414 0.931 . S
C399 H387 0.929 . S
C399 C393 1.390 . S
C399 C396 1.386 . S
C400 C395 1.490 . S
C400 C402 1.395 . S
C400 C403 1.403 . S
H401 C407 0.930 . S
C402 H388 0.930 . S
C402 C400 1.395 . S
C402 C405 1.403 . S
C403 C400 1.403 . S
C403 C404 1.524 . S
C403 C407 1.400 . S
C404 H389 0.960 . S
C404 H390 0.960 . S
C404 H391 0.960 . S
C404 C403 1.524 . S
C405 C402 1.403 . S
C405 C406 1.392 . S
C405 C409 1.495 . S
C406 C405 1.392 . S
C406 C407 1.385 . S
C406 C408 1.478 . S
C407 H401 0.930 . S
C407 C403 1.400 . S
C407 C406 1.385 . S
C408 C406 1.478 . S
C408 C410 1.381 . S
C408 C414 1.383 . S
C409 C405 1.495 . S
C409 H415 0.959 . S
C409 H416 0.961 . S
C409 H417 0.960 . S
C410 C408 1.381 . S
C410 C411 1.394 . S
C410 H418 0.930 . S
C411 C410 1.394 . S
C411 C412 1.383 . S
C411 H419 0.929 . S
C412 C411 1.383 . S
C412 C413 1.377 . S
C413 H397 0.930 . S
C413 C412 1.377 . S
C413 C414 1.379 . S
C414 H398 0.931 . S
C414 C408 1.383 . S
C414 C413 1.379 . S
H415 C409 0.959 . S
H416 C409 0.961 . S
H417 C409 0.960 . S
H418 C410 0.930 . S
H419 C411 0.929 . S
H420 C428 0.929 . S
H421 C430 0.930 . S
H422 C432 0.930 . S
H423 C435 0.929 . S
H424 C438 0.930 . S
H425 C440 0.960 . S
H426 C440 0.960 . S
H427 C440 0.960 1_455 S
C428 H420 0.929 . S
C428 C429 1.377 . S
C428 C430 1.384 . S
C429 C428 1.377 . S
C429 C435 1.390 . S
C430 H421 0.930 . S
C430 C428 1.384 . S
C430 C431 1.372 . S
C431 C430 1.372 . S
C431 C432 1.400 . S
C431 C436 1.490 . S
C432 H422 0.930 . S
C432 C431 1.400 . S
C432 C435 1.386 . S
H433 C449 0.930 . S
H434 C450 0.931 . S
C435 H423 0.929 . S
C435 C429 1.390 . S
C435 C432 1.386 . S
C436 C431 1.490 . S
C436 C438 1.395 . S
C436 C439 1.403 . S
H437 C443 0.930 . S
C438 H424 0.930 . S
C438 C436 1.395 . S
C438 C441 1.403 . S
C439 C436 1.403 . S
C439 C440 1.524 1_455 S
C439 C443 1.400 . S
C440 H425 0.960 . S
C440 H426 0.960 . S
C440 H427 0.960 1_655 S
C440 C439 1.524 1_655 S
C441 C438 1.403 . S
C441 C442 1.392 . S
C441 C445 1.495 . S
C442 C441 1.392 . S
C442 C443 1.385 . S
C442 C444 1.478 . S
C443 H437 0.930 . S
C443 C439 1.400 . S
C443 C442 1.385 . S
C444 C442 1.478 . S
C444 C446 1.381 . S
C444 C450 1.383 . S
C445 C441 1.495 . S
C445 H451 0.959 . S
C445 H452 0.961 . S
C445 H453 0.960 . S
C446 C444 1.381 . S
C446 C447 1.394 . S
C446 H454 0.930 . S
C447 C446 1.394 . S
C447 C448 1.383 . S
C447 H455 0.929 . S
C448 C447 1.383 . S
C448 C449 1.377 . S
C449 H433 0.930 . S
C449 C448 1.377 . S
C449 C450 1.379 . S
C450 H434 0.931 . S
C450 C444 1.383 . S
C450 C449 1.379 . S
H451 C445 0.959 . S
H452 C445 0.961 . S
H453 C445 0.960 . S
H454 C446 0.930 . S
H455 C447 0.929 . S
H456 C464 0.929 . S
H457 C466 0.930 . S
H458 C468 0.930 . S
H459 C471 0.929 . S
H460 C474 0.930 . S
H461 C476 0.968 1_556 S
H462 C476 0.958 1_545 S
H463 C476 0.963 . S
C464 H456 0.929 . S
C464 C465 1.384 . S
C464 C466 1.384 . S
C465 C464 1.384 . S
C465 C471 1.384 1_545 S
C466 H457 0.930 . S
C466 C464 1.384 . S
C466 C467 1.397 . S
C467 C466 1.397 . S
C467 C468 1.371 1_545 S
C467 C472 1.491 . S
C468 H458 0.930 . S
C468 C467 1.371 1_565 S
C468 C471 1.386 . S
H469 C485 0.930 . S
H470 C486 0.931 . S
C471 H459 0.929 . S
C471 C465 1.384 1_565 S
C471 C468 1.386 . S
C472 C467 1.491 . S
C472 C474 1.393 . S
C472 C475 1.409 1_545 S
H473 C479 0.926 1_556 S
C474 H460 0.930 . S
C474 C472 1.393 . S
C474 C477 1.401 . S
C475 C472 1.409 1_565 S
C475 C476 1.523 . S
C475 C479 1.402 . S
C476 H461 0.968 1_554 S
C476 H462 0.958 1_565 S
C476 H463 0.963 . S
C476 C475 1.523 . S
C477 C474 1.401 . S
C477 C478 1.401 1_545 S
C477 C481 1.492 . S
C478 C477 1.401 1_565 S
C478 C479 1.389 . S
C478 C480 1.481 . S
C479 H473 0.926 1_554 S
C479 C475 1.402 . S
C479 C478 1.389 . S
C480 C478 1.481 . S
C480 C482 1.340 1_565 S
C480 C486 1.420 1_554 S
C481 C477 1.492 . S
C481 H487 0.959 . S
C481 H488 0.961 1_545 S
C481 H489 0.960 . S
C482 C480 1.340 1_545 S
C482 C483 1.394 1_554 S
C482 H490 0.930 . S
C483 C482 1.394 1_556 S
C483 C484 1.383 1_545 S
C483 H491 0.929 . S
C484 C483 1.383 1_565 S
C484 C485 1.377 . S
C485 H469 0.930 . S
C485 C484 1.377 . S
C485 C486 1.379 . S
C486 H470 0.931 . S
C486 C480 1.420 1_556 S
C486 C485 1.379 . S
H487 C481 0.959 . S
H488 C481 0.961 1_565 S
H489 C481 0.960 . S
H490 C482 0.930 . S
H491 C483 0.929 . S
H492 C500 0.929 1_554 S
H493 C502 0.930 . S
H494 C504 0.930 . S
H495 C507 0.929 . S
H496 C510 0.940 . S
H497 C512 0.960 . S
H498 C512 0.960 . S
H499 C512 0.960 . S
C500 H492 0.929 1_556 S
C500 C501 1.377 . S
C500 C502 1.384 . S
C501 C500 1.377 . S
C501 C507 1.390 . S
C502 H493 0.930 . S
C502 C500 1.384 . S
C502 C503 1.372 . S
C503 C502 1.372 . S
C503 C504 1.400 . S
C503 C508 1.490 . S
C504 H494 0.930 . S
C504 C503 1.400 . S
C504 C507 1.386 . S
H505 C521 0.930 . S
H506 C522 0.931 . S
C507 H495 0.929 . S
C507 C501 1.390 . S
C507 C504 1.386 . S
C508 C503 1.490 . S
C508 C510 1.395 . S
C508 C511 1.403 . S
H509 C515 0.930 . S
C510 H496 0.940 . S
C510 C508 1.395 . S
C510 C513 1.403 . S
C511 C508 1.403 . S
C511 C512 1.524 . S
C511 C515 1.400 . S
C512 H497 0.960 . S
C512 H498 0.960 . S
C512 H499 0.960 . S
C512 C511 1.524 . S
C513 C510 1.403 . S
C513 C514 1.392 . S
C513 C517 1.495 1_556 S
C514 C513 1.392 . S
C514 C515 1.385 . S
C514 C516 1.478 . S
C515 H509 0.930 . S
C515 C511 1.400 . S
C515 C514 1.385 . S
C516 C514 1.478 . S
C516 C518 1.381 . S
C516 C522 1.383 . S
C517 C513 1.495 1_554 S
C517 H523 0.959 . S
C517 H524 0.961 1_554 S
C517 H525 0.960 . S
C518 C516 1.381 . S
C518 C519 1.394 . S
C518 H526 0.930 . S
C519 C518 1.394 . S
C519 C520 1.383 . S
C519 H527 0.929 . S
C520 C519 1.383 . S
C520 C521 1.377 . S
C521 H505 0.930 . S
C521 C520 1.377 . S
C521 C522 1.379 . S
C522 H506 0.931 . S
C522 C516 1.383 . S
C522 C521 1.379 . S
H523 C517 0.959 . S
H524 C517 0.961 1_556 S
H525 C517 0.960 . S
H526 C518 0.930 . S
H527 C519 0.929 . S
H528 C536 0.929 . S
H529 C538 0.930 . S
H530 C540 0.930 . S
H531 C543 0.929 . S
H532 C546 0.930 . S
H533 C548 0.960 . S
H534 C548 0.960 . S
H535 C548 0.960 . S
C536 H528 0.929 . S
C536 C537 1.377 . S
C536 C538 1.384 . S
C537 C536 1.377 . S
C537 C543 1.390 . S
C538 H529 0.930 . S
C538 C536 1.384 . S
C538 C539 1.372 . S
C539 C538 1.372 . S
C539 C540 1.400 . S
C539 C544 1.490 . S
C540 H530 0.930 . S
C540 C539 1.400 . S
C540 C543 1.386 . S
H541 C557 0.930 . S
H542 C558 0.931 . S
C543 H531 0.929 . S
C543 C537 1.390 . S
C543 C540 1.386 . S
C544 C539 1.490 . S
C544 C546 1.395 . S
C544 C547 1.403 . S
H545 C551 0.930 . S
C546 H532 0.930 . S
C546 C544 1.395 . S
C546 C549 1.403 . S
C547 C544 1.403 . S
C547 C548 1.524 . S
C547 C551 1.400 . S
C548 H533 0.960 . S
C548 H534 0.960 . S
C548 H535 0.960 . S
C548 C547 1.524 . S
C549 C546 1.403 . S
C549 C550 1.392 . S
C549 C553 1.495 . S
C550 C549 1.392 . S
C550 C551 1.385 . S
C550 C552 1.478 . S
C551 H545 0.930 . S
C551 C547 1.400 . S
C551 C550 1.385 . S
C552 C550 1.478 . S
C552 C554 1.381 1_554 S
C552 C558 1.383 . S
C553 C549 1.495 . S
C553 H559 0.959 . S
C553 H560 0.961 . S
C553 H561 0.960 . S
C554 C552 1.381 1_556 S
C554 C555 1.394 . S
C554 H562 0.930 . S
C555 C554 1.394 . S
C555 C556 1.383 . S
C555 H563 0.929 . S
C556 C555 1.383 . S
C556 C557 1.377 . S
C557 H541 0.930 . S
C557 C556 1.377 . S
C557 C558 1.379 1_556 S
C558 H542 0.931 . S
C558 C552 1.383 . S
C558 C557 1.379 1_554 S
H559 C553 0.959 . S
H560 C553 0.961 . S
H561 C553 0.960 . S
H562 C554 0.930 . S
H563 C555 0.929 . S
H564 C572 0.929 . S
H565 C574 0.930 . S
H566 C576 0.930 . S
H567 C579 0.929 . S
H568 C582 0.930 . S
H569 C584 0.960 . S
H570 C584 0.960 . S
H571 C584 0.960 . S
C572 H564 0.929 . S
C572 C573 1.377 . S
C572 C574 1.384 . S
C573 C572 1.377 . S
C573 C579 1.390 . S
C574 H565 0.930 . S
C574 C572 1.384 . S
C574 C575 1.372 . S
C575 C574 1.372 . S
C575 C576 1.400 . S
C575 C580 1.490 . S
C576 H566 0.930 . S
C576 C575 1.400 . S
C576 C579 1.386 . S
H577 C593 0.930 . S
H578 C594 0.939 . S
C579 H567 0.929 . S
C579 C573 1.390 . S
C579 C576 1.386 . S
C580 C575 1.490 . S
C580 C582 1.395 1_655 S
C580 C583 1.403 . S
H581 C587 0.930 . S
C582 H568 0.930 . S
C582 C580 1.395 1_455 S
C582 C585 1.403 . S
C583 C580 1.403 . S
C583 C584 1.524 . S
C583 C587 1.400 . S
C584 H569 0.960 . S
C584 H570 0.960 . S
C584 H571 0.960 . S
C584 C583 1.524 . S
C585 C582 1.403 . S
C585 C586 1.392 . S
C585 C589 1.495 . S
C586 C585 1.392 . S
C586 C587 1.385 1_455 S
C586 C588 1.478 1_554 S
C587 H581 0.930 . S
C587 C583 1.400 . S
C587 C586 1.385 1_655 S
C588 C586 1.478 1_556 S
C588 C590 1.381 . S
C588 C594 1.383 1_556 S
C589 C585 1.495 . S
C589 H595 0.959 . S
C589 H596 0.961 . S
C589 H597 0.960 1_554 S
C590 C588 1.381 . S
C590 C591 1.394 . S
C590 H598 0.930 . S
C591 C590 1.394 . S
C591 C592 1.383 . S
C591 H599 0.929 . S
C592 C591 1.383 . S
C592 C593 1.377 . S
C593 H577 0.930 . S
C593 C592 1.377 . S
C593 C594 1.379 1_556 S
C594 H578 0.939 . S
C594 C588 1.383 1_554 S
C594 C593 1.379 1_554 S
H595 C589 0.959 . S
H596 C589 0.961 . S
H597 C589 0.960 1_556 S
H598 C590 0.930 . S
H599 C591 0.929 . S
H600 C608 0.929 . S
H601 C610 0.930 . S
H602 C612 0.930 . S
H603 C615 0.929 . S
H604 C618 0.930 . S
H605 C620 0.960 . S
H606 C620 0.960 . S
H607 C620 0.960 . S
C608 H600 0.929 . S
C608 C609 1.377 . S
C608 C610 1.384 . S
C609 C608 1.377 . S
C609 C615 1.390 . S
C610 H601 0.930 . S
C610 C608 1.384 . S
C610 C611 1.372 . S
C611 C610 1.372 . S
C611 C612 1.400 . S
C611 C616 1.490 . S
C612 H602 0.930 . S
C612 C611 1.400 . S
C612 C615 1.386 . S
H613 C629 0.930 . S
H614 C630 0.931 . S
C615 H603 0.929 . S
C615 C609 1.390 . S
C615 C612 1.386 . S
C616 C611 1.490 . S
C616 C618 1.395 . S
C616 C619 1.403 . S
H617 C623 0.930 1_655 S
C618 H604 0.930 . S
C618 C616 1.395 . S
C618 C621 1.403 . S
C619 C616 1.403 . S
C619 C620 1.524 1_455 S
C619 C623 1.400 . S
C620 H605 0.960 . S
C620 H606 0.960 . S
C620 H607 0.960 . S
C620 C619 1.524 1_655 S
C621 C618 1.403 . S
C621 C622 1.392 . S
C621 C625 1.495 . S
C622 C621 1.392 . S
C622 C623 1.385 . S
C622 C624 1.478 . S
C623 H617 0.930 1_455 S
C623 C619 1.400 . S
C623 C622 1.385 . S
C624 C622 1.478 . S
C624 C626 1.381 . S
C624 C630 1.383 . S
C625 C621 1.495 . S
C625 H631 0.959 . S
C625 H632 0.961 . S
C625 H633 0.960 . S
C626 C624 1.381 . S
C626 C627 1.394 1_455 S
C626 H634 0.933 . S
C627 C626 1.394 1_655 S
C627 C628 1.383 . S
C627 H635 0.929 . S
C628 C627 1.383 . S
C628 C629 1.377 1_655 S
C629 H613 0.930 . S
C629 C628 1.377 1_455 S
C629 C630 1.379 . S
C630 H614 0.931 . S
C630 C624 1.383 . S
C630 C629 1.379 . S
H631 C625 0.959 . S
H632 C625 0.961 . S
H633 C625 0.960 . S
H634 C626 0.933 . S
H635 C627 0.929 . S
H636 C644 0.929 . S
H637 C646 0.930 . S
H638 C648 0.930 . S
H639 C651 0.929 . S
H640 C654 0.930 . S
H641 C656 0.960 . S
H642 C656 0.960 . S
H643 C656 0.960 . S
C644 H636 0.929 . S
C644 C645 1.377 . S
C644 C646 1.384 . S
C645 C644 1.377 . S
C645 C651 1.390 1_545 S
C646 H637 0.930 . S
C646 C644 1.384 . S
C646 C647 1.372 1_545 S
C647 C646 1.372 1_565 S
C647 C648 1.400 . S
C647 C652 1.490 . S
C648 H638 0.930 . S
C648 C647 1.400 . S
C648 C651 1.386 . S
H649 C665 0.930 . S
H650 C666 0.931 . S
C651 H639 0.929 . S
C651 C645 1.390 1_565 S
C651 C648 1.386 . S
C652 C647 1.490 . S
C652 C654 1.395 . S
C652 C655 1.387 1_565 S
H653 C659 0.914 1_545 S
C654 H640 0.930 . S
C654 C652 1.395 . S
C654 C657 1.403 . S
C655 C652 1.387 1_545 S
C655 C656 1.556 . S
C655 C659 1.386 1_545 S
C656 H641 0.960 . S
C656 H642 0.960 . S
C656 H643 0.960 . S
C656 C655 1.556 . S
C657 C654 1.403 . S
C657 C658 1.392 . S
C657 C661 1.495 . S
C658 C657 1.392 . S
C658 C659 1.385 . S
C658 C660 1.478 . S
C659 H653 0.914 1_565 S
C659 C655 1.386 1_565 S
C659 C658 1.385 . S
C660 C658 1.478 . S
C660 C662 1.381 . S
C660 C666 1.383 . S
C661 C657 1.495 . S
C661 H667 0.959 . S
C661 H668 0.961 . S
C661 H669 0.960 . S
C662 C660 1.381 . S
C662 C663 1.394 . S
C662 H670 0.930 1_565 S
C663 C662 1.394 . S
C663 C664 1.383 . S
C663 H671 0.929 1_565 S
C664 C663 1.383 . S
C664 C665 1.377 . S
C665 H649 0.930 . S
C665 C664 1.377 . S
C665 C666 1.379 . S
C666 H650 0.931 . S
C666 C660 1.383 . S
C666 C665 1.379 . S
H667 C661 0.959 . S
H668 C661 0.961 . S
H669 C661 0.960 . S
H670 C662 0.930 1_545 S
H671 C663 0.929 1_545 S
H672 C680 0.929 . S
H673 C682 0.930 . S
H674 C684 0.930 . S
H675 C687 0.929 . S
H676 C690 0.930 . S
H677 C692 0.960 . S
H678 C692 0.960 . S
H679 C692 0.960 . S
C680 H672 0.929 . S
C680 C681 1.377 . S
C680 C682 1.384 . S
C681 C680 1.377 . S
C681 C687 1.390 . S
C682 H673 0.930 . S
C682 C680 1.384 . S
C682 C683 1.372 . S
C683 C682 1.372 . S
C683 C684 1.400 . S
C683 C688 1.490 . S
C684 H674 0.930 . S
C684 C683 1.400 . S
C684 C687 1.386 . S
H685 C701 0.930 . S
H686 C702 0.931 . S
C687 H675 0.929 . S
C687 C681 1.390 . S
C687 C684 1.386 . S
C688 C683 1.490 . S
C688 C690 1.395 . S
C688 C691 1.403 . S
H689 C695 0.930 . S
C690 H676 0.930 . S
C690 C688 1.395 . S
C690 C693 1.403 . S
C691 C688 1.403 . S
C691 C692 1.524 . S
C691 C695 1.400 . S
C692 H677 0.960 . S
C692 H678 0.960 . S
C692 H679 0.960 . S
C692 C691 1.524 . S
C693 C690 1.403 . S
C693 C694 1.392 . S
C693 C697 1.495 . S
C694 C693 1.392 . S
C694 C695 1.385 . S
C694 C696 1.478 . S
C695 H689 0.930 . S
C695 C691 1.400 . S
C695 C694 1.385 . S
C696 C694 1.478 . S
C696 C698 1.381 . S
C696 C702 1.383 . S
C697 C693 1.495 . S
C697 H703 0.959 . S
C697 H704 0.961 . S
C697 H705 0.960 . S
C698 C696 1.381 . S
C698 C699 1.394 . S
C698 H706 0.930 . S
C699 C698 1.394 . S
C699 C700 1.383 . S
C699 H707 0.929 . S
C700 C699 1.383 . S
C700 C701 1.377 . S
C701 H685 0.930 . S
C701 C700 1.377 . S
C701 C702 1.379 . S
C702 H686 0.931 . S
C702 C696 1.383 . S
C702 C701 1.379 . S
H703 C697 0.959 . S
H704 C697 0.961 . S
H705 C697 0.960 . S
H706 C698 0.930 . S
H707 C699 0.929 . S
H708 C716 0.929 . S
H709 C718 0.930 . S
H710 C720 0.930 . S
H711 C723 0.929 . S
H712 C726 0.930 . S
H713 C728 0.960 . S
H714 C728 0.960 . S
H715 C728 0.960 . S
C716 H708 0.929 . S
C716 C717 1.377 . S
C716 C718 1.384 . S
C717 C716 1.377 . S
C717 C723 1.390 . S
C718 H709 0.930 . S
C718 C716 1.384 . S
C718 C719 1.372 . S
C719 C718 1.372 . S
C719 C720 1.400 . S
C719 C724 1.490 . S
C720 H710 0.930 . S
C720 C719 1.400 . S
C720 C723 1.386 . S
H721 C737 0.930 . S
H722 C738 0.931 . S
C723 H711 0.929 . S
C723 C717 1.390 . S
C723 C720 1.386 . S
C724 C719 1.490 . S
C724 C726 1.395 . S
C724 C727 1.403 . S
H725 C731 0.930 . S
C726 H712 0.930 . S
C726 C724 1.395 . S
C726 C729 1.403 . S
C727 C724 1.403 . S
C727 C728 1.524 . S
C727 C731 1.400 . S
C728 H713 0.960 . S
C728 H714 0.960 . S
C728 H715 0.960 . S
C728 C727 1.524 . S
C729 C726 1.403 . S
C729 C730 1.392 . S
C729 C733 1.495 . S
C730 C729 1.392 . S
C730 C731 1.385 . S
C730 C732 1.478 . S
C731 H725 0.930 . S
C731 C727 1.400 . S
C731 C730 1.385 . S
C732 C730 1.478 . S
C732 C734 1.381 . S
C732 C738 1.383 . S
C733 C729 1.495 . S
C733 H739 0.959 . S
C733 H740 0.961 . S
C733 H741 0.960 . S
C734 C732 1.381 . S
C734 C735 1.394 . S
C734 H742 0.930 . S
C735 C734 1.394 . S
C735 C736 1.383 . S
C735 H743 0.929 . S
C736 C735 1.383 . S
C736 C737 1.377 . S
C737 H721 0.930 . S
C737 C736 1.377 . S
C737 C738 1.379 . S
C738 H722 0.931 . S
C738 C732 1.383 . S
C738 C737 1.379 . S
H739 C733 0.959 . S
H740 C733 0.961 . S
H741 C733 0.960 . S
H742 C734 0.930 . S
H743 C735 0.929 . S
H744 C752 0.929 . S
H745 C754 0.930 . S
H746 C756 0.930 . S
H747 C759 0.929 . S
H748 C762 0.930 . S
H749 C764 0.960 . S
H750 C764 0.960 . S
H751 C764 0.960 . S
C752 H744 0.929 . S
C752 C753 1.377 1_455 S
C752 C754 1.384 . S
C753 C752 1.377 1_655 S
C753 C759 1.390 . S
C754 H745 0.930 . S
C754 C752 1.384 . S
C754 C755 1.372 1_455 S
C755 C754 1.372 1_655 S
C755 C756 1.400 . S
C755 C760 1.490 1_655 S
C756 H746 0.930 . S
C756 C755 1.400 . S
C756 C759 1.386 . S
H757 C773 0.930 1_655 S
H758 C774 0.931 1_655 S
C759 H747 0.929 . S
C759 C753 1.390 . S
C759 C756 1.386 . S
C760 C755 1.490 1_455 S
C760 C762 1.395 . S
C760 C763 1.403 1_455 S
H761 C767 0.930 1_655 S
C762 H748 0.930 . S
C762 C760 1.395 . S
C762 C765 1.403 . S
C763 C760 1.403 1_655 S
C763 C764 1.524 . S
C763 C767 1.400 1_655 S
C764 H749 0.960 . S
C764 H750 0.960 . S
C764 H751 0.960 . S
C764 C763 1.524 . S
C765 C762 1.403 . S
C765 C766 1.392 . S
C765 C769 1.495 . S
C766 C765 1.392 . S
C766 C767 1.385 . S
C766 C768 1.478 . S
C767 H761 0.930 1_455 S
C767 C763 1.400 1_455 S
C767 C766 1.385 . S
C768 C766 1.478 . S
C768 C770 1.381 . S
C768 C774 1.383 . S
C769 C765 1.495 . S
C769 H775 0.959 . S
C769 H776 0.961 1_554 S
C769 H777 0.960 . S
C770 C768 1.381 . S
C770 C771 1.394 . S
C770 H778 0.930 . S
C771 C770 1.394 . S
C771 C772 1.383 . S
C771 H779 0.929 . S
C772 C771 1.383 . S
C772 C773 1.377 . S
C773 H757 0.930 1_455 S
C773 C772 1.377 . S
C773 C774 1.379 . S
C774 H758 0.931 1_455 S
C774 C768 1.383 . S
C774 C773 1.379 . S
H775 C769 0.959 . S
H776 C769 0.961 1_556 S
H777 C769 0.960 . S
H778 C770 0.930 . S
H779 C771 0.929 . S
H780 C788 0.929 . S
H781 C790 0.930 . S
H782 C792 0.930 . S
H783 C795 0.929 . S
H784 C798 0.930 . S
H785 C800 0.960 . S
H786 C800 0.960 . S
H787 C800 0.960 1_545 S
C788 H780 0.929 . S
C788 C789 1.414 . S
C788 C790 1.384 . S
C789 C788 1.414 . S
C789 C795 1.343 1_565 S
C790 H781 0.930 . S
C790 C788 1.384 . S
C790 C791 1.372 1_565 S
C791 C790 1.372 1_545 S
C791 C792 1.400 . S
C791 C796 1.490 . S
C792 H782 0.930 . S
C792 C791 1.400 . S
C792 C795 1.386 . S
H793 C809 0.930 . S
H794 C810 0.931 . S
C795 H783 0.929 . S
C795 C789 1.343 1_545 S
C795 C792 1.386 . S
C796 C791 1.490 . S
C796 C798 1.395 . S
C796 C799 1.403 . S
H797 C803 0.930 . S
C798 H784 0.930 . S
C798 C796 1.395 . S
C798 C801 1.403 . S
C799 C796 1.403 . S
C799 C800 1.524 1_545 S
C799 C803 1.400 . S
C800 H785 0.960 . S
C800 H786 0.960 . S
C800 H787 0.960 1_565 S
C800 C799 1.524 1_565 S
C801 C798 1.403 . S
C801 C802 1.392 . S
C801 C805 1.495 . S
C802 C801 1.392 . S
C802 C803 1.385 . S
C802 C804 1.478 . S
C803 H797 0.930 . S
C803 C799 1.400 . S
C803 C802 1.385 . S
C804 C802 1.478 . S
C804 C806 1.381 1_545 S
C804 C810 1.383 . S
C805 C801 1.495 . S
C805 H811 0.959 . S
C805 H812 0.961 . S
C805 H813 0.960 . S
C806 C804 1.381 1_565 S
C806 C807 1.392 1_565 S
C806 H814 0.930 . S
C807 C806 1.392 1_545 S
C807 C808 1.394 . S
C807 H815 0.921 1_545 S
C808 C807 1.394 . S
C808 C809 1.377 . S
C809 H793 0.930 . S
C809 C808 1.377 . S
C809 C810 1.379 . S
C810 H794 0.931 . S
C810 C804 1.383 . S
C810 C809 1.379 . S
H811 C805 0.959 . S
H812 C805 0.961 . S
H813 C805 0.960 . S
H814 C806 0.930 . S
H815 C807 0.921 1_565 S
H816 C824 0.929 . S
H817 C826 0.930 . S
H818 C828 0.930 . S
H819 C831 0.929 . S
H820 C834 0.930 . S
H821 C836 0.955 1_554 S
H822 C836 0.954 1_554 S
H823 C836 0.964 . S
C824 H816 0.929 . S
C824 C825 1.377 . S
C824 C826 1.384 . S
C825 C824 1.377 . S
C825 C831 1.390 . S
C826 H817 0.930 . S
C826 C824 1.384 . S
C826 C827 1.372 . S
C827 C826 1.372 . S
C827 C828 1.400 . S
C827 C832 1.490 . S
C828 H818 0.930 . S
C828 C827 1.400 . S
C828 C831 1.386 . S
H829 C845 0.930 . S
H830 C846 0.931 . S
C831 H819 0.929 . S
C831 C825 1.390 . S
C831 C828 1.386 . S
C832 C827 1.490 . S
C832 C834 1.395 . S
C832 C835 1.403 . S
H833 C839 0.930 . S
C834 H820 0.930 . S
C834 C832 1.395 . S
C834 C837 1.403 . S
C835 C832 1.403 . S
C835 C836 1.531 . S
C835 C839 1.400 . S
C836 H821 0.955 1_556 S
C836 H822 0.954 1_556 S
C836 H823 0.964 . S
C836 C835 1.531 . S
C837 C834 1.403 . S
C837 C838 1.392 . S
C837 C841 1.495 . S
C838 C837 1.392 . S
C838 C839 1.385 . S
C838 C840 1.478 . S
C839 H833 0.930 . S
C839 C835 1.400 . S
C839 C838 1.385 . S
C840 C838 1.478 . S
C840 C842 1.381 . S
C840 C846 1.383 . S
C841 C837 1.495 . S
C841 H847 0.959 . S
C841 H848 0.961 . S
C841 H849 0.960 . S
C842 C840 1.381 . S
C842 C843 1.394 . S
C842 H850 0.930 . S
C843 C842 1.394 . S
C843 C844 1.383 . S
C843 H851 0.929 . S
C844 C843 1.383 . S
C844 C845 1.377 . S
C845 H829 0.930 . S
C845 C844 1.377 . S
C845 C846 1.379 . S
C846 H830 0.931 . S
C846 C840 1.383 . S
C846 C845 1.379 . S
H847 C841 0.959 . S
H848 C841 0.961 . S
H849 C841 0.960 . S
H850 C842 0.930 . S
H851 C843 0.929 . S
H852 C860 0.929 . S
H853 C862 0.930 . S
H854 C864 0.930 . S
H855 C867 0.929 . S
H856 C870 0.930 . S
H857 C872 0.960 . S
H858 C872 0.960 . S
H859 C872 0.960 . S
C860 H852 0.929 . S
C860 C861 1.377 . S
C860 C862 1.384 . S
C861 C860 1.377 . S
C861 C867 1.390 . S
C862 H853 0.930 . S
C862 C860 1.384 . S
C862 C863 1.372 . S
C863 C862 1.372 . S
C863 C864 1.400 . S
C863 C868 1.490 . S
C864 H854 0.930 . S
C864 C863 1.400 . S
C864 C867 1.386 . S
H865 C881 0.930 . S
H866 C882 0.931 . S
C867 H855 0.929 . S
C867 C861 1.390 . S
C867 C864 1.386 . S
C868 C863 1.490 . S
C868 C870 1.395 . S
C868 C871 1.403 . S
H869 C875 0.930 . S
C870 H856 0.930 . S
C870 C868 1.395 . S
C870 C873 1.403 . S
C871 C868 1.403 . S
C871 C872 1.524 . S
C871 C875 1.400 . S
C872 H857 0.960 . S
C872 H858 0.960 . S
C872 H859 0.960 . S
C872 C871 1.524 . S
C873 C870 1.403 . S
C873 C874 1.392 . S
C873 C877 1.495 . S
C874 C873 1.392 . S
C874 C875 1.385 . S
C874 C876 1.478 . S
C875 H869 0.930 . S
C875 C871 1.400 . S
C875 C874 1.385 . S
C876 C874 1.478 . S
C876 C878 1.381 . S
C876 C882 1.383 . S
C877 C873 1.495 . S
C877 H883 0.959 . S
C877 H884 0.961 . S
C877 H885 0.960 . S
C878 C876 1.381 . S
C878 C879 1.394 . S
C878 H886 0.930 . S
C879 C878 1.394 . S
C879 C880 1.383 . S
C879 H887 0.929 1_554 S
C880 C879 1.383 . S
C880 C881 1.377 . S
C881 H865 0.930 . S
C881 C880 1.377 . S
C881 C882 1.379 . S
C882 H866 0.931 . S
C882 C876 1.383 . S
C882 C881 1.379 . S
H883 C877 0.959 . S
H884 C877 0.961 . S
H885 C877 0.960 . S
H886 C878 0.930 . S
H887 C879 0.929 1_556 S
H888 C896 0.929 . S
H889 C898 0.930 . S
H890 C900 0.930 1_556 S
H891 C903 0.929 1_556 S
H892 C906 0.930 . S
H893 C908 0.960 . S
H894 C908 0.960 . S
H895 C908 0.960 . S
C896 H888 0.929 . S
C896 C897 1.377 . S
C896 C898 1.384 . S
C897 C896 1.377 . S
C897 C903 1.390 . S
C898 H889 0.930 . S
C898 C896 1.384 . S
C898 C899 1.372 . S
C899 C898 1.372 . S
C899 C900 1.400 . S
C899 C904 1.490 . S
C900 H890 0.930 1_554 S
C900 C899 1.400 . S
C900 C903 1.386 . S
H901 C917 0.930 . S
H902 C918 0.931 . S
C903 H891 0.929 1_554 S
C903 C897 1.390 . S
C903 C900 1.386 . S
C904 C899 1.490 . S
C904 C906 1.395 . S
C904 C907 1.403 1_554 S
H905 C911 0.930 . S
C906 H892 0.930 . S
C906 C904 1.395 . S
C906 C909 1.403 . S
C907 C904 1.403 1_556 S
C907 C908 1.524 . S
C907 C911 1.400 . S
C908 H893 0.960 . S
C908 H894 0.960 . S
C908 H895 0.960 . S
C908 C907 1.524 . S
C909 C906 1.403 . S
C909 C910 1.392 1_554 S
C909 C913 1.499 . S
C910 C909 1.392 1_556 S
C910 C911 1.385 . S
C910 C912 1.478 . S
C911 H905 0.930 . S
C911 C907 1.400 . S
C911 C910 1.385 . S
C912 C910 1.478 . S
C912 C914 1.381 . S
C912 C918 1.383 . S
C913 C909 1.499 . S
C913 H919 0.957 1_455 S
C913 H920 0.957 1_455 S
C913 H921 0.962 . S
C914 C912 1.381 . S
C914 C915 1.394 . S
C914 H922 0.930 1_556 S
C915 C914 1.394 . S
C915 C916 1.383 . S
C915 H923 0.929 . S
C916 C915 1.383 . S
C916 C917 1.377 . S
C917 H901 0.930 . S
C917 C916 1.377 . S
C917 C918 1.379 . S
C918 H902 0.931 . S
C918 C912 1.383 . S
C918 C917 1.379 . S
H919 C913 0.957 1_655 S
H920 C913 0.957 1_655 S
H921 C913 0.962 . S
H922 C914 0.930 1_554 S
H923 C915 0.929 . S
H924 C932 0.929 . S
H925 C934 0.930 . S
H926 C936 0.930 . S
H927 C939 0.929 . S
H928 C942 0.930 . S
H929 C944 0.960 . S
H930 C944 0.960 . S
H931 C944 0.960 . S
C932 H924 0.929 . S
C932 C933 1.408 . S
C932 C934 1.384 . S
C933 C932 1.408 . S
C933 C939 1.364 1_544 S
C934 H925 0.930 . S
C934 C932 1.384 . S
C934 C935 1.372 . S
C935 C934 1.372 . S
C935 C936 1.400 1_544 S
C935 C940 1.488 1_554 S
C936 H926 0.930 . S
C936 C935 1.400 1_566 S
C936 C939 1.386 . S
H937 C953 0.930 . S
H938 C954 0.931 . S
C939 H927 0.929 . S
C939 C933 1.364 1_566 S
C939 C936 1.386 . S
C940 C935 1.488 1_556 S
C940 C942 1.389 1_546 S
C940 C943 1.410 . S
H941 C947 0.930 . S
C942 H928 0.930 . S
C942 C940 1.389 1_564 S
C942 C945 1.403 . S
C943 C940 1.410 . S
C943 C944 1.524 . S
C943 C947 1.400 . S
C944 H929 0.960 . S
C944 H930 0.960 . S
C944 H931 0.960 . S
C944 C943 1.524 . S
C945 C942 1.403 . S
C945 C946 1.392 1_564 S
C945 C949 1.495 . S
C946 C945 1.392 1_546 S
C946 C947 1.385 . S
C946 C948 1.478 . S
C947 H941 0.930 . S
C947 C943 1.400 . S
C947 C946 1.385 . S
C948 C946 1.478 . S
C948 C950 1.381 . S
C948 C954 1.383 1_545 S
C949 C945 1.495 . S
C949 H955 0.959 . S
C949 H956 0.961 . S
C949 H957 0.960 1_565 S
C950 C948 1.381 . S
C950 C951 1.394 . S
C950 H958 0.930 1_556 S
C951 C950 1.394 . S
C951 C952 1.383 . S
C951 H959 0.929 . S
C952 C951 1.383 . S
C952 C953 1.377 1_545 S
C953 H937 0.930 . S
C953 C952 1.377 1_565 S
C953 C954 1.379 . S
C954 H938 0.931 . S
C954 C948 1.383 1_565 S
C954 C953 1.379 . S
H955 C949 0.959 . S
H956 C949 0.961 . S
H957 C949 0.960 1_545 S
H958 C950 0.930 1_554 S
H959 C951 0.929 . S
H960 C968 0.929 . S
H961 C970 0.930 . S
H962 C972 0.930 . S
H963 C975 0.929 . S
H964 C978 0.930 . S
H965 C980 0.960 . S
H966 C980 0.960 . S
H967 C980 0.960 . S
C968 H960 0.929 . S
C968 C969 1.377 . S
C968 C970 1.384 . S
C969 C968 1.377 . S
C969 C975 1.390 . S
C970 H961 0.930 . S
C970 C968 1.384 . S
C970 C971 1.372 . S
C971 C970 1.372 . S
C971 C972 1.400 . S
C971 C976 1.490 . S
C972 H962 0.930 . S
C972 C971 1.400 . S
C972 C975 1.386 . S
H973 C989 0.930 . S
H974 C990 0.931 . S
C975 H963 0.929 . S
C975 C969 1.390 . S
C975 C972 1.386 . S
C976 C971 1.490 . S
C976 C978 1.395 . S
C976 C979 1.403 . S
H977 C983 0.930 . S
C978 H964 0.930 . S
C978 C976 1.395 . S
C978 C981 1.403 . S
C979 C976 1.403 . S
C979 C980 1.524 . S
C979 C983 1.400 . S
C980 H965 0.960 . S
C980 H966 0.960 . S
C980 H967 0.960 . S
C980 C979 1.524 . S
C981 C978 1.403 . S
C981 C982 1.392 . S
C981 C985 1.495 . S
C982 C981 1.392 . S
C982 C983 1.385 . S
C982 C984 1.478 . S
C983 H977 0.930 . S
C983 C979 1.400 . S
C983 C982 1.385 . S
C984 C982 1.478 . S
C984 C986 1.381 . S
C984 C990 1.383 . S
C985 C981 1.495 . S
C985 H991 0.959 . S
C985 H992 0.961 . S
C985 H993 0.960 . S
C986 C984 1.381 . S
C986 C987 1.394 . S
C986 H994 0.930 . S
C987 C986 1.394 . S
C987 C988 1.383 . S
C987 H995 0.929 . S
C988 C987 1.383 . S
C988 C989 1.377 . S
C989 H973 0.930 . S
C989 C988 1.377 . S
C989 C990 1.379 . S
C990 H974 0.931 . S
C990 C984 1.383 . S
C990 C989 1.379 . S
H991 C985 0.959 . S
H992 C985 0.961 . S
H993 C985 0.960 . S
H994 C986 0.930 . S
H995 C987 0.929 . S
H996 C1004 0.929 . S
H997 C1006 0.930 . S
H998 C1008 0.930 . S
H999 C1011 0.929 . S
H1000 C1014 0.930 . S
H1001 C1016 0.960 . S
H1002 C1016 0.960 . S
H1003 C1016 0.960 . S
C1004 H996 0.929 . S
C1004 C1005 1.377 . S
C1004 C1006 1.384 . S
C1005 C1004 1.377 . S
C1005 C1011 1.390 1_554 S
C1006 H997 0.930 . S
C1006 C1004 1.384 . S
C1006 C1007 1.372 . S
C1007 C1006 1.372 . S
C1007 C1008 1.400 1_554 S
C1007 C1012 1.490 1_554 S
C1008 H998 0.930 . S
C1008 C1007 1.400 1_556 S
C1008 C1011 1.386 . S
H1009 C1025 0.930 . S
H1010 C1026 0.931 . S
C1011 H999 0.929 . S
C1011 C1005 1.390 1_556 S
C1011 C1008 1.386 . S
C1012 C1007 1.490 1_556 S
C1012 C1014 1.395 1_556 S
C1012 C1015 1.403 . S
H1013 C1019 0.930 . S
C1014 H1000 0.930 . S
C1014 C1012 1.395 1_554 S
C1014 C1017 1.403 . S
C1015 C1012 1.403 . S
C1015 C1016 1.524 . S
C1015 C1019 1.400 . S
C1016 H1001 0.960 . S
C1016 H1002 0.960 . S
C1016 H1003 0.960 . S
C1016 C1015 1.524 . S
C1017 C1014 1.403 . S
C1017 C1018 1.392 1_554 S
C1017 C1021 1.495 . S
C1018 C1017 1.392 1_556 S
C1018 C1019 1.385 . S
C1018 C1020 1.478 . S
C1019 H1013 0.930 . S
C1019 C1015 1.400 . S
C1019 C1018 1.385 . S
C1020 C1018 1.478 . S
C1020 C1022 1.381 . S
C1020 C1026 1.383 . S
C1021 C1017 1.495 . S
C1021 H1027 0.959 . S
C1021 H1028 0.961 . S
C1021 H1029 0.960 . S
C1022 C1020 1.381 . S
C1022 C1023 1.394 . S
C1022 H1030 0.930 1_556 S
C1023 C1022 1.394 . S
C1023 C1024 1.383 . S
C1023 H1031 0.929 . S
C1024 C1023 1.383 . S
C1024 C1025 1.377 . S
C1025 H1009 0.930 . S
C1025 C1024 1.377 . S
C1025 C1026 1.379 . S
C1026 H1010 0.931 . S
C1026 C1020 1.383 . S
C1026 C1025 1.379 . S
H1027 C1021 0.959 . S
H1028 C1021 0.961 . S
H1029 C1021 0.960 . S
H1030 C1022 0.930 1_554 S
H1031 C1023 0.929 . S
H1032 C1040 0.929 . S
H1033 C1042 0.930 . S
H1034 C1044 0.930 . S
H1035 C1047 0.951 . S
H1036 C1050 0.930 . S
H1037 C1052 0.960 . S
H1038 C1052 0.960 . S
H1039 C1052 0.960 . S
C1040 H1032 0.929 . S
C1040 C1041 1.377 . S
C1040 C1042 1.384 . S
C1041 C1040 1.377 . S
C1041 C1047 1.368 1_655 S
C1042 H1033 0.930 . S
C1042 C1040 1.384 . S
C1042 C1043 1.372 . S
C1043 C1042 1.372 . S
C1043 C1044 1.400 1_655 S
C1043 C1048 1.490 . S
C1044 H1034 0.930 . S
C1044 C1043 1.400 1_455 S
C1044 C1047 1.386 . S
H1045 C1061 0.930 . S
H1046 C1062 0.931 . S
C1047 H1035 0.951 . S
C1047 C1041 1.368 1_455 S
C1047 C1044 1.386 . S
C1048 C1043 1.490 . S
C1048 C1050 1.395 . S
C1048 C1051 1.403 . S
H1049 C1055 0.930 . S
C1050 H1036 0.930 . S
C1050 C1048 1.395 . S
C1050 C1053 1.403 . S
C1051 C1048 1.403 . S
C1051 C1052 1.524 . S
C1051 C1055 1.400 . S
C1052 H1037 0.960 . S
C1052 H1038 0.960 . S
C1052 H1039 0.960 . S
C1052 C1051 1.524 . S
C1053 C1050 1.403 . S
C1053 C1054 1.392 . S
C1053 C1057 1.495 . S
C1054 C1053 1.392 . S
C1054 C1055 1.385 . S
C1054 C1056 1.478 . S
C1055 H1049 0.930 . S
C1055 C1051 1.400 . S
C1055 C1054 1.385 . S
C1056 C1054 1.478 . S
C1056 C1058 1.381 . S
C1056 C1062 1.383 1_655 S
C1057 C1053 1.495 . S
C1057 H1063 0.959 . S
C1057 H1064 0.961 1_655 S
C1057 H1065 0.960 . S
C1058 C1056 1.381 . S
C1058 C1059 1.394 . S
C1058 H1066 0.930 . S
C1059 C1058 1.394 . S
C1059 C1060 1.383 . S
C1059 H1067 0.929 . S
C1060 C1059 1.383 . S
C1060 C1061 1.377 1_655 S
C1061 H1045 0.930 . S
C1061 C1060 1.377 1_455 S
C1061 C1062 1.379 . S
C1062 H1046 0.931 . S
C1062 C1056 1.383 1_455 S
C1062 C1061 1.379 . S
H1063 C1057 0.959 . S
H1064 C1057 0.961 1_455 S
H1065 C1057 0.960 . S
H1066 C1058 0.930 . S
H1067 C1059 0.929 . S
H1068 C1076 0.929 . S
H1069 C1078 0.930 . S
H1070 C1080 0.930 . S
H1071 C1083 0.929 . S
H1072 C1086 0.930 . S
H1073 C1088 0.960 . S
H1074 C1088 0.960 1_545 S
H1075 C1088 0.960 . S
C1076 H1068 0.929 . S
C1076 C1077 1.373 1_545 S
C1076 C1078 1.384 . S
C1077 C1076 1.373 1_565 S
C1077 C1083 1.395 . S
C1078 H1069 0.930 . S
C1078 C1076 1.384 . S
C1078 C1079 1.354 1_545 S
C1079 C1078 1.354 1_565 S
C1079 C1080 1.418 . S
C1079 C1084 1.489 . S
C1080 H1070 0.930 . S
C1080 C1079 1.418 . S
C1080 C1083 1.386 . S
H1081 C1097 0.930 . S
H1082 C1098 0.931 . S
C1083 H1071 0.929 . S
C1083 C1077 1.395 . S
C1083 C1080 1.386 . S
C1084 C1079 1.489 . S
C1084 C1086 1.381 1_565 S
C1084 C1087 1.419 . S
H1085 C1091 0.930 . S
C1086 H1072 0.930 . S
C1086 C1084 1.381 1_545 S
C1086 C1089 1.403 . S
C1087 C1084 1.419 . S
C1087 C1088 1.524 . S
C1087 C1091 1.400 . S
C1088 H1073 0.960 . S
C1088 H1074 0.960 1_565 S
C1088 H1075 0.960 . S
C1088 C1087 1.524 . S
C1089 C1086 1.403 . S
C1089 C1090 1.392 1_545 S
C1089 C1093 1.495 . S
C1090 C1089 1.392 1_565 S
C1090 C1091 1.385 . S
C1090 C1092 1.478 . S
C1091 H1085 0.930 . S
C1091 C1087 1.400 . S
C1091 C1090 1.385 . S
C1092 C1090 1.478 . S
C1092 C1094 1.381 1_565 S
C1092 C1098 1.383 . S
C1093 C1089 1.495 . S
C1093 H1099 0.959 . S
C1093 H1100 0.961 1_545 S
C1093 H1101 0.960 . S
C1094 C1092 1.381 1_545 S
C1094 C1095 1.394 . S
C1094 H1102 0.930 . S
C1095 C1094 1.394 . S
C1095 C1096 1.383 1_545 S
C1095 H1103 0.929 . S
C1096 C1095 1.383 1_565 S
C1096 C1097 1.377 . S
C1097 H1081 0.930 . S
C1097 C1096 1.377 . S
C1097 C1098 1.379 . S
C1098 H1082 0.931 . S
C1098 C1092 1.383 . S
C1098 C1097 1.379 . S
H1099 C1093 0.959 . S
H1100 C1093 0.961 1_565 S
H1101 C1093 0.960 . S
H1102 C1094 0.930 . S
H1103 C1095 0.929 . S
H1104 C1112 0.929 . S
H1105 C1114 0.930 . S
H1106 C1116 0.930 . S
H1107 C1119 0.929 . S
H1108 C1122 0.930 . S
H1109 C1124 0.960 . S
H1110 C1124 0.960 . S
H1111 C1124 0.960 . S
C1112 H1104 0.929 . S
C1112 C1113 1.377 . S
C1112 C1114 1.384 . S
C1113 C1112 1.377 . S
C1113 C1119 1.390 . S
C1114 H1105 0.930 . S
C1114 C1112 1.384 . S
C1114 C1115 1.372 . S
C1115 C1114 1.372 . S
C1115 C1116 1.400 . S
C1115 C1120 1.490 . S
C1116 H1106 0.930 . S
C1116 C1115 1.400 . S
C1116 C1119 1.386 . S
H1117 C1133 0.930 . S
H1118 C1134 0.931 . S
C1119 H1107 0.929 . S
C1119 C1113 1.390 . S
C1119 C1116 1.386 . S
C1120 C1115 1.490 . S
C1120 C1122 1.395 . S
C1120 C1123 1.403 . S
H1121 C1127 0.930 . S
C1122 H1108 0.930 . S
C1122 C1120 1.395 . S
C1122 C1125 1.403 . S
C1123 C1120 1.403 . S
C1123 C1124 1.524 . S
C1123 C1127 1.400 . S
C1124 H1109 0.960 . S
C1124 H1110 0.960 . S
C1124 H1111 0.960 . S
C1124 C1123 1.524 . S
C1125 C1122 1.403 . S
C1125 C1126 1.392 . S
C1125 C1129 1.495 . S
C1126 C1125 1.392 . S
C1126 C1127 1.385 . S
C1126 C1128 1.478 . S
C1127 H1121 0.930 . S
C1127 C1123 1.400 . S
C1127 C1126 1.385 . S
C1128 C1126 1.478 . S
C1128 C1130 1.381 . S
C1128 C1134 1.383 . S
C1129 C1125 1.495 . S
C1129 H1135 0.959 . S
C1129 H1136 0.961 . S
C1129 H1137 0.960 . S
C1130 C1128 1.381 . S
C1130 C1131 1.394 . S
C1130 H1138 0.930 . S
C1131 C1130 1.394 . S
C1131 C1132 1.383 . S
C1131 H1139 0.929 . S
C1132 C1131 1.383 . S
C1132 C1133 1.377 . S
C1133 H1117 0.930 . S
C1133 C1132 1.377 . S
C1133 C1134 1.379 . S
C1134 H1118 0.931 . S
C1134 C1128 1.383 . S
C1134 C1133 1.379 . S
H1135 C1129 0.959 . S
H1136 C1129 0.961 . S
H1137 C1129 0.960 . S
H1138 C1130 0.930 . S
H1139 C1131 0.929 . S
H1140 C1148 0.929 . S
H1141 C1150 0.930 . S
H1142 C1152 0.930 . S
H1143 C1155 0.929 . S
H1144 C1158 0.930 . S
H1145 C1160 0.960 . S
H1146 C1160 0.960 . S
H1147 C1160 0.960 . S
C1148 H1140 0.929 . S
C1148 C1149 1.377 . S
C1148 C1150 1.384 . S
C1149 C1148 1.377 . S
C1149 C1155 1.390 . S
C1150 H1141 0.930 . S
C1150 C1148 1.384 . S
C1150 C1151 1.372 . S
C1151 C1150 1.372 . S
C1151 C1152 1.400 . S
C1151 C1156 1.490 . S
C1152 H1142 0.930 . S
C1152 C1151 1.400 . S
C1152 C1155 1.386 . S
H1153 C1169 0.930 . S
H1154 C1170 0.931 . S
C1155 H1143 0.929 . S
C1155 C1149 1.390 . S
C1155 C1152 1.386 . S
C1156 C1151 1.490 . S
C1156 C1158 1.395 . S
C1156 C1159 1.403 . S
H1157 C1163 0.930 . S
C1158 H1144 0.930 . S
C1158 C1156 1.395 . S
C1158 C1161 1.403 . S
C1159 C1156 1.403 . S
C1159 C1160 1.524 . S
C1159 C1163 1.400 . S
C1160 H1145 0.960 . S
C1160 H1146 0.960 . S
C1160 H1147 0.960 . S
C1160 C1159 1.524 . S
C1161 C1158 1.403 . S
C1161 C1162 1.392 . S
C1161 C1165 1.495 . S
C1162 C1161 1.392 . S
C1162 C1163 1.385 . S
C1162 C1164 1.478 . S
C1163 H1157 0.930 . S
C1163 C1159 1.400 . S
C1163 C1162 1.385 . S
C1164 C1162 1.478 . S
C1164 C1166 1.381 . S
C1164 C1170 1.383 . S
C1165 C1161 1.495 . S
C1165 H1171 0.959 . S
C1165 H1172 0.961 . S
C1165 H1173 0.960 . S
C1166 C1164 1.381 . S
C1166 C1167 1.394 . S
C1166 H1174 0.930 . S
C1167 C1166 1.394 . S
C1167 C1168 1.383 . S
C1167 H1175 0.929 . S
C1168 C1167 1.383 . S
C1168 C1169 1.377 . S
C1169 H1153 0.930 . S
C1169 C1168 1.377 . S
C1169 C1170 1.379 . S
C1170 H1154 0.931 . S
C1170 C1164 1.383 . S
C1170 C1169 1.379 . S
H1171 C1165 0.959 . S
H1172 C1165 0.961 . S
H1173 C1165 0.960 . S
H1174 C1166 0.930 . S
H1175 C1167 0.929 . S
C321 C125 1.835 1_545 S
C340 C175 1.856 1_545 S
C376 C215 1.753 . S
C357 C144 1.625 . S
C412 C234 1.880 . S
C393 C87 1.832 . S
C448 C295 1.366 . S
C429 C106 1.300 . S
C484 C154 1.872 1_565 S
C465 C49 1.839 1_545 S
C501 C68 1.695 . S
C520 C194 1.788 . S
C537 C11 1.847 . S
C556 C255 1.883 . S
C573 C30 1.340 . S
C592 C274 1.343 . S
C628 C156 0.683 . S
C609 C97 0.701 . S
C664 C196 0.294 . S
C645 C116 0.402 . S
C700 C252 0.825 . S
C681 C135 0.799 . S
C717 C78 0.413 . S
C736 C276 0.327 . S
C753 C21 0.703 . S
C772 C177 0.727 . S
C808 C217 0.348 . S
C789 C40 0.410 . S
C844 C263 0.843 . S
C825 C59 0.790 . S
C861 C2 0.402 . S
C880 C297 0.244 . S
C897 C101 1.402 . S
C916 C172 1.485 . S
C933 C120 2.066 1_545 S
C952 C212 2.213 . S
C988 C236 1.441 . S
C969 C139 1.412 . S
C1024 C292 2.211 . S
C1005 C82 2.072 . S
C1041 C25 1.404 . S
C1060 C183 1.501 1_655 S
C1096 C223 2.215 . S
C1077 C44 2.073 . S
C1132 C257 1.414 . S
C1113 C63 1.410 . S
C1149 C6 2.078 . S
C1168 C303 2.207 . S
