# Generated by pormake.
# Topology pth, (4,4)-cn, num edge types: 1
# Building blocks:
#     Node 0, Type 0, BuildingBlock: KUFVIS_clean_sbu_0, # of connection points: 4
#     Node 1, Type 0, BuildingBlock: KUFVIS_clean_sbu_0, # of connection points: 4
#     Node 2, Type 0, BuildingBlock: KUFVIS_clean_sbu_0, # of connection points: 4
#     Node 3, Type 1, BuildingBlock: MIFKUJ_clean_linker_1, # of connection points: 4
#     Node 4, Type 1, BuildingBlock: MIFKUJ_clean_linker_1, # of connection points: 4
#     Node 5, Type 1, BuildingBlock: MIFKUJ_clean_linker_1, # of connection points: 4
#     Edge 6, Type (0, 1), BuildingBlock: ZUJKAS_clean_linker_0, # of connection points: 2
#     Edge 7, Type (0, 1), BuildingBlock: ZUJKAS_clean_linker_0, # of connection points: 2
#     Edge 8, Type (0, 1), BuildingBlock: ZUJKAS_clean_linker_0, # of connection points: 2
#     Edge 9, Type (0, 1), BuildingBlock: ZUJKAS_clean_linker_0, # of connection points: 2
#     Edge 10, Type (0, 1), BuildingBlock: ZUJKAS_clean_linker_0, # of connection points: 2
#     Edge 11, Type (0, 1), BuildingBlock: ZUJKAS_clean_linker_0, # of connection points: 2
#     Edge 12, Type (0, 1), BuildingBlock: ZUJKAS_clean_linker_0, # of connection points: 2
#     Edge 13, Type (0, 1), BuildingBlock: ZUJKAS_clean_linker_0, # of connection points: 2
#     Edge 14, Type (0, 1), BuildingBlock: ZUJKAS_clean_linker_0, # of connection points: 2
#     Edge 15, Type (0, 1), BuildingBlock: ZUJKAS_clean_linker_0, # of connection points: 2
#     Edge 16, Type (0, 1), BuildingBlock: ZUJKAS_clean_linker_0, # of connection points: 2
#     Edge 17, Type (0, 1), BuildingBlock: ZUJKAS_clean_linker_0, # of connection points: 2
# Relax obj value: 0.017
# Max RMSD: 0.085
# Mean RMSD: 0.064
data_MOF--net-pth--node1-KUFVIS_clean_sbu_0--node2-MIFKUJ_clean_linker_1--edge1-ZUJKAS_clean_linker_0
_symmetry_space_group_name_H-M    P1
_symmetry_Int_Tables_number       1
_symmetry_cell_setting            triclinic
loop_
_symmetry_equiv_pos_as_xyz
'x, y, z'
_cell_length_a     36.433264
_cell_length_b     36.501558
_cell_length_c     80.280653
_cell_angle_alpha  90.393742
_cell_angle_beta   91.717729
_cell_angle_gamma 120.22209
loop_
_atom_site_label
_atom_site_type_symbol
_atom_site_fract_x
_atom_site_fract_y
_atom_site_fract_z
_atom_type_partial_charge
Mn0 Mn 0.03867 0.05264 0.04385 0.0
Mn1 Mn 0.98143 0.08776 0.02268 0.0
C2 C 0.99561 0.01392 0.02109 0.0
C3 C 0.04479 0.01409 0.06579 0.0
C4 C 0.07628 0.12434 0.01891 0.0
O5 O 0.04053 0.09745 0.05973 0.0
O6 O 0.99746 0.1146 0.04537 0.0
C7 C 0.90484 0.0493 0.04294 0.0
N8 N 0.92293 0.05442 0.02789 0.0
C9 C 0.85469 0.01048 0.01402 0.0
C10 C 0.83529 0.00494 0.02935 0.0
C11 C 0.8605 0.02429 0.04388 0.0
C12 C 0.89902 0.03557 0.01387 0.0
H13 H 0.92411 0.06419 0.05412 0.0
C14 C 0.0205 0.11768 0.05828 0.0
O15 O 0.07821 0.04408 0.05895 0.0
O16 O 0.00816 0.00746 0.06017 0.0
N17 N 0.96328 0.06426 1.00056 0.0
C18 C 0.98708 0.07122 0.98691 0.0
C19 C 0.96675 0.05306 0.97143 0.0
C20 C 0.9222 0.02853 0.97009 0.0
C21 C 0.89836 0.02235 0.98426 0.0
C22 C 0.92037 0.04106 0.99937 0.0
H23 H 0.02132 0.09033 0.98783 0.0
O24 O 0.02645 0.00837 0.02632 0.0
O25 O 0.9904 0.04139 0.02953 0.0
O26 O 0.08051 0.09926 0.02876 0.0
O27 O 0.04099 0.12326 0.01618 0.0
C28 C 0.85364 0.99816 0.98402 0.0
C29 C 0.83184 0.99188 0.99891 0.0
H30 H 0.80109 0.98573 0.03012 0.0
H31 H 0.84578 0.02003 0.05577 0.0
H32 H 0.98538 0.05804 0.96054 0.0
H33 H 0.90663 0.0145 0.95813 0.0
H34 H 0.83572 0.98384 0.97247 0.0
H35 H 0.79749 0.97257 0.9986 0.0
Mn36 Mn 0.0127 0.04572 0.37593 0.0
Mn37 Mn 0.0672 0.13961 0.39681 0.0
C38 C 0.05499 0.05227 0.39921 0.0
C39 C 0.00864 1.00038 0.35435 0.0
C40 C 0.97215 0.07988 0.39951 0.0
O41 O 0.01083 0.0875 0.35964 0.0
O42 O 0.05386 0.14908 0.37359 0.0
C43 C 0.14664 0.17801 0.37824 0.0
N44 N 0.12651 0.16551 0.39291 0.0
C45 C 0.19293 0.1911 0.40833 0.0
C46 C 0.21442 0.20447 0.3934 0.0
C47 C 0.19115 0.19776 0.37829 0.0
C48 C 0.14855 0.17153 0.4075 0.0
H49 H 0.12882 0.17289 0.36662 0.0
C50 C 0.03114 0.12798 0.36072 0.0
O51 O 0.97458 0.99647 0.36079 0.0
O52 O 0.04477 0.03125 0.36015 0.0
N53 N 0.08245 0.13537 0.41941 0.0
C54 C 0.05674 0.11895 0.43258 0.0
C55 C 0.07497 0.1233 0.44864 0.0
C56 C 0.11937 0.14458 0.451 0.0
C57 C 0.14517 0.16059 0.43723 0.0
C58 C 0.12522 0.15596 0.42156 0.0
H59 H 0.0226 0.10307 0.43089 0.0
O60 O 0.02487 0.01524 0.39392 0.0
O61 O 0.05986 0.08428 0.39054 0.0
O62 O 0.96933 0.04976 0.39037 0.0
O63 O 0.00675 0.1151 0.40204 0.0
C64 C 0.18987 0.18088 0.43842 0.0
C65 C 0.21372 0.19589 0.42396 0.0
H66 H 0.24875 0.21966 0.39338 0.0
H67 H 0.2075 0.20783 0.36671 0.0
H68 H 0.05486 0.11062 0.45921 0.0
H69 H 0.13328 0.1484 0.46346 0.0
H70 H 0.2062 0.18469 0.45037 0.0
H71 H 0.24804 0.21093 0.425 0.0
Mn72 Mn 0.03306 0.04612 0.70947 0.0
Mn73 Mn 0.9996 0.10284 0.73106 0.0
C74 C 0.07328 0.08809 0.73213 0.0
C75 C 0.07041 0.04041 0.6874 0.0
C76 C 0.96227 0.00789 0.73452 0.0
O77 O 0.98769 0.04556 0.6938 0.0
O78 O 0.97146 0.08808 0.70842 0.0
C79 C 0.03793 0.18041 0.71106 0.0
N80 N 0.03346 0.16148 0.72601 0.0
C81 C 0.08098 0.22845 0.73984 0.0
C82 C 0.08589 0.2487 0.72461 0.0
C83 C 0.06434 0.22456 0.71015 0.0
C84 C 0.05415 0.18439 0.73998 0.0
H85 H 0.02153 0.16194 0.69991 0.0
C86 C 0.96754 0.06555 0.69543 0.0
O87 O 0.04045 0.00695 0.69424 0.0
O88 O 0.07762 0.0769 0.69305 0.0
N89 N 0.02439 0.11953 0.75313 0.0
C90 C 0.01741 0.09495 0.76671 0.0
C91 C 0.03704 0.11416 0.78216 0.0
C92 C 0.06337 0.15841 0.78352 0.0
C93 C 0.06983 0.18308 0.76941 0.0
C94 C 0.04905 0.16221 0.75438 0.0
H95 H 0.9971 0.06094 0.76576 0.0
O96 O 0.07823 0.05726 0.72684 0.0
O97 O 0.04535 0.09373 0.72388 0.0
O98 O 0.98691 0.00396 0.7246 0.0
O99 O 0.96375 0.04311 0.73739 0.0
C100 C 0.09648 0.2275 0.76962 0.0
C101 C 0.10215 0.25015 0.75483 0.0
H102 H 0.10636 0.28272 0.72384 0.0
H103 H 0.06813 0.23994 0.69833 0.0
H104 H 0.0319 0.09491 0.79299 0.0
H105 H 0.07851 0.17307 0.79545 0.0
H106 H 0.11316 0.24449 0.78103 0.0
H107 H 0.12313 0.28422 0.7551 0.0
H108 H 0.09514 0.53454 0.18237 0.0
H109 H 0.09801 0.4792 0.16596 0.0
H110 H 0.97198 0.38766 0.18107 0.0
H111 H 0.96911 0.44315 0.19725 0.0
H112 H 0.03947 0.5647 0.17946 0.0
H113 H 0.08363 0.50043 0.22114 0.0
H114 H 0.08112 0.44202 0.23679 0.0
H115 H 0.95581 0.40728 0.25287 0.0
H116 H 0.95822 0.46542 0.23691 0.0
H117 H 0.95918 0.57915 0.2386 0.0
H118 H 0.95512 0.63294 0.25541 0.0
H119 H 0.07604 0.72887 0.23736 0.0
H120 H 0.08079 0.67456 0.22123 0.0
H121 H 0.01341 0.55119 0.24001 0.0
H122 H 0.97312 0.62134 0.19924 0.0
H123 H 0.97883 0.68129 0.18382 0.0
H124 H 0.0988 0.70523 0.1651 0.0
H125 H 0.09388 0.6466 0.18125 0.0
C126 C 0.03201 0.49292 0.19109 0.0
C127 C 0.06815 0.50254 0.18212 0.0
C128 C 0.06987 0.47085 0.17287 0.0
C129 C 0.03524 0.42907 0.17225 0.0
C130 C 0.99903 0.41961 0.1812 0.0
C131 C 0.99746 0.45121 0.19053 0.0
C132 C 0.03019 0.52649 0.20095 0.0
C133 C 0.03437 0.56215 0.19274 0.0
C134 C 0.02261 0.52255 0.2182 0.0
C135 C 0.02098 0.48709 0.22776 0.0
C136 C 0.05548 0.48004 0.22793 0.0
C137 C 0.05413 0.44685 0.23698 0.0
C138 C 0.01825 0.42 0.24606 0.0
C139 C 0.98369 0.42709 0.24585 0.0
C140 C 0.98516 0.46049 0.23685 0.0
C141 C 0.02008 0.62279 0.22851 0.0
C142 C 0.9849 0.61175 0.23832 0.0
C143 C 0.98242 0.64267 0.2478 0.0
C144 C 0.01515 0.68538 0.2477 0.0
C145 C 0.05044 0.69629 0.23788 0.0
C146 C 0.05299 0.6653 0.22849 0.0
C147 C 0.02259 0.58967 0.21853 0.0
C148 C 0.01848 0.55393 0.22672 0.0
C149 C 0.03042 0.59373 0.20125 0.0
C150 C 0.03336 0.62974 0.19162 0.0
C151 C 1.00093 0.63984 0.19199 0.0
C152 C 0.00402 0.67389 0.18299 0.0
C153 C 0.03934 0.69828 0.17321 0.0
C154 C 0.07151 0.68771 0.17271 0.0
C155 C 0.06853 0.65385 0.18181 0.0
H156 H 0.59227 0.10042 0.51179 0.0
H157 H 0.64647 0.10242 0.49402 0.0
H158 H 0.62491 0.98391 0.5141 0.0
H159 H 0.56978 0.98152 0.53153 0.0
H160 H 0.50953 0.044 0.51149 0.0
H161 H 0.6267 0.09419 0.55109 0.0
H162 H 0.68461 0.09491 0.56754 0.0
H163 H 0.59499 0.9756 0.58884 0.0
H164 H 0.53719 0.97509 0.57234 0.0
H165 H 0.4249 0.97459 0.57335 0.0
H166 H 0.36939 0.97353 0.59005 0.0
H167 H 0.39151 0.0901 0.56778 0.0
H168 H 0.44825 0.09195 0.55174 0.0
H169 H 0.50773 0.02868 0.57283 0.0
H170 H 0.39032 0.97943 0.5328 0.0
H171 H 0.33321 0.98102 0.51659 0.0
H172 H 0.42522 0.09986 0.49565 0.0
H173 H 0.48186 0.09875 0.51229 0.0
C174 C 0.57713 0.04098 0.52308 0.0
C175 C 0.59926 0.07489 0.51239 0.0
C176 C 0.63048 0.07615 0.50233 0.0
C177 C 0.64011 0.04337 0.50266 0.0
C178 C 0.618 0.00947 0.51343 0.0
C179 C 0.58678 0.00827 0.52353 0.0
C180 C 0.54281 0.03916 0.5332 0.0
C181 C 0.50942 0.0412 0.52494 0.0
C182 C 0.54214 0.03439 0.5507 0.0
C183 C 0.5776 0.03437 0.56035 0.0
C184 C 0.61959 0.0679 0.55913 0.0
C185 C 0.6527 0.06825 0.56854 0.0
C186 C 0.64445 0.03528 0.5795 0.0
C187 C 0.60237 0.00172 0.58067 0.0
C188 C 0.56931 1.00133 0.57121 0.0
C189 C 0.4405 0.03308 0.56113 0.0
C190 C 0.4179 1.00001 0.57212 0.0
C191 C 0.38584 0.99924 0.58155 0.0
C192 C 0.37572 0.03161 0.58021 0.0
C193 C 0.39865 0.06484 0.56926 0.0
C194 C 0.43083 0.0657 0.55992 0.0
C195 C 0.47451 0.03373 0.55111 0.0
C196 C 0.50779 0.03137 0.55938 0.0
C197 C 0.47521 0.03834 0.5336 0.0
C198 C 0.44033 0.03919 0.52389 0.0
C199 C 0.39809 0.00604 0.52486 0.0
C200 C 0.36554 0.00679 0.51546 0.0
C201 C 0.37463 0.0406 0.50483 0.0
C202 C 0.41701 0.07366 0.50387 0.0
C203 C 0.44949 0.0729 0.51327 0.0
H204 H 0.50715 0.45643 0.84648 0.0
H205 H 0.44855 0.39852 0.83031 0.0
H206 H 0.35995 0.42688 0.85361 0.0
H207 H 0.41896 0.48591 0.86919 0.0
H208 H 0.53624 0.53875 0.8459 0.0
H209 H 0.47838 0.43255 0.88787 0.0
H210 H 0.42405 0.37993 0.90552 0.0
H211 H 0.40207 0.47683 0.92589 0.0
H212 H 0.4556 0.52896 0.90793 0.0
H213 H 0.56619 0.64036 0.90539 0.0
H214 H 0.62368 0.69946 0.9215 0.0
H215 H 0.71376 0.66842 0.90142 0.0
H216 H 0.65605 0.60968 0.88513 0.0
H217 H 0.53874 0.55693 0.90726 0.0
H218 H 0.59722 0.66327 0.86589 0.0
H219 H 0.65083 0.71622 0.8482 0.0
H220 H 0.67222 0.61994 0.82678 0.0
H221 H 0.61869 0.56711 0.84459 0.0
C222 C 0.46748 0.4753 0.85917 0.0
C223 C 0.4751 0.45017 0.84809 0.0
C224 C 0.44147 0.4168 0.83897 0.0
C225 C 0.39946 0.40788 0.8407 0.0
C226 C 0.39192 0.43308 0.85185 0.0
C227 C 0.4256 0.46655 0.86093 0.0
C228 C 0.50353 0.51156 0.86844 0.0
C229 C 0.53715 0.54238 0.85935 0.0
C230 C 0.50413 0.51687 0.88595 0.0
C231 C 0.47079 0.48464 0.89646 0.0
C232 C 0.46154 0.44234 0.89602 0.0
C233 C 0.43076 0.41239 0.90623 0.0
C234 C 0.40868 0.42417 0.9171 0.0
C235 C 0.41807 0.46657 0.9175 0.0
C236 C 0.44889 0.49649 0.90733 0.0
C237 C 0.60684 0.62074 0.894 0.0
C238 C 0.59835 0.64637 0.90444 0.0
C239 C 0.63125 0.68003 0.91369 0.0
C240 C 0.67336 0.6886 0.91282 0.0
C241 C 0.68182 0.66308 0.90222 0.0
C242 C 0.64886 0.62942 0.89293 0.0
C243 C 0.57141 0.58407 0.88472 0.0
C244 C 0.53791 0.55319 0.89381 0.0
C245 C 0.57098 0.57873 0.86722 0.0
C246 C 0.60423 0.61124 0.85674 0.0
C247 C 0.61386 0.65364 0.85756 0.0
C248 C 0.64453 0.68391 0.84743 0.0
C249 C 0.66587 0.67232 0.8361 0.0
C250 C 0.65605 0.62981 0.83525 0.0
C251 C 0.62554 0.59961 0.84546 0.0
H252 H 0.08035 0.15159 0.08414 0.0
H253 H 0.08671 0.20205 0.10604 0.0
H254 H 0.97471 0.19937 0.08549 0.0
H255 H 0.96817 0.14952 0.06361 0.0
H256 H 0.09057 0.28592 0.09895 0.0
H257 H 0.95602 0.17566 0.13721 0.0
H258 H 0.98283 0.15783 0.12359 0.0
H259 H 0.94526 0.17143 0.11505 0.0
C260 C 0.05689 0.16149 0.08437 0.0
C261 C 0.02381 0.14656 0.07208 0.0
C262 C 0.06065 0.19035 0.09685 0.0
C263 C 0.03098 0.20407 0.09741 0.0
C264 C 0.99768 0.1888 0.08534 0.0
H265 H 0.97282 0.37016 0.15116 0.0
H266 H 0.97502 0.31576 0.134 0.0
C267 C 0.99415 0.16044 0.07279 0.0
C268 C 0.03536 0.23577 0.11011 0.0
H269 H 0.98485 0.24936 0.14264 0.0
C270 C 0.06792 0.278 0.10868 0.0
C271 C 0.00551 0.22517 0.12265 0.0
C272 C 0.97054 0.18002 0.12488 0.0
C273 C 0.07032 0.31038 0.11905 0.0
C274 C 0.03988 0.29994 0.13143 0.0
C275 C 0.0081 0.25738 0.13314 0.0
C276 C 0.03897 0.33281 0.14214 0.0
C277 C 0.10413 0.35565 0.11609 0.0
C278 C 0.07399 0.36022 0.15259 0.0
C279 C 0.07289 0.39155 0.16235 0.0
C280 C 0.03648 0.39562 0.16203 0.0
C281 C 1.00119 0.3676 0.15179 0.0
C282 C 0.00245 0.33657 0.14195 0.0
H283 H 0.11779 0.35924 0.10362 0.0
H284 H 0.09116 0.37731 0.11714 0.0
H285 H 0.13035 0.36573 0.12562 0.0
H286 H 0.10211 0.35726 0.15328 0.0
H287 H 0.10032 0.41226 0.17032 0.0
H288 H 0.96436 0.13793 0.4185 0.0
H289 H 0.90385 0.12667 0.43448 0.0
H290 H 0.83311 0.9966 0.41674 0.0
H291 H 0.89379 0.00733 0.4007 0.0
H292 H 0.81853 0.09881 0.42327 0.0
H293 H 0.82888 0.98864 0.46822 0.0
H294 H 0.87187 0.02172 0.45495 0.0
H295 H 0.82596 0.97484 0.44649 0.0
C296 C 0.93597 0.10688 0.41789 0.0
C297 C 0.93415 0.07346 0.40833 0.0
C298 C 0.90137 0.10056 0.42705 0.0
C299 C 0.86426 0.06069 0.42697 0.0
C300 C 0.86176 0.02746 0.41717 0.0
H301 H 0.63632 0.97747 0.48455 0.0
H302 H 0.68888 0.97995 0.46557 0.0
C303 C 0.8964 0.03375 0.40793 0.0
C304 C 0.82851 0.0543 0.43728 0.0
H305 H 0.77399 0.00402 0.47168 0.0
C306 C 0.80863 0.07795 0.43381 0.0
C307 C 0.81564 0.02697 0.45099 0.0
C308 C 0.83679 0.00174 0.45554 0.0
C309 C 0.77634 0.07522 0.44376 0.0
C310 C 0.76426 0.0488 0.45775 0.0
C311 C 0.78342 0.02435 0.46098 0.0
C312 C 0.73274 0.04713 0.46946 0.0
C313 C 0.75527 0.10048 0.43912 0.0
C314 C 0.74042 0.08388 0.47822 0.0
C315 C 0.71059 0.08255 0.48911 0.0
C316 C 0.67256 0.04434 0.49157 0.0
C317 C 0.66542 0.00734 0.48306 0.0
C318 C 0.69529 0.00873 0.47213 0.0
H319 H 0.75915 0.10902 0.42577 0.0
H320 H 0.72081 0.08256 0.44158 0.0
H321 H 0.77018 0.13036 0.44672 0.0
H322 H 0.76963 0.11363 0.47668 0.0
H323 H 0.71746 0.11143 0.49571 0.0
H324 H 0.9537 0.9286 0.73534 0.0
H325 H 0.90308 0.86759 0.7511 0.0
H326 H 0.84985 0.9408 0.77014 0.0
H327 H 0.89992 0.00174 0.75449 0.0
H328 H 0.8931 0.86448 0.78656 0.0
H329 H 0.74537 0.83021 0.75131 0.0
H330 H 0.79759 0.86217 0.74313 0.0
H331 H 0.77828 0.88464 0.7581 0.0
C332 C 0.93102 0.93167 0.74276 0.0
C333 C 0.93088 0.97016 0.74356 0.0
C334 C 0.9022 0.89678 0.75179 0.0
C335 C 0.87242 0.89956 0.76161 0.0
C336 C 0.87211 0.93778 0.76241 0.0
H337 H 0.72787 0.7539 0.84418 0.0
H338 H 0.77881 0.80708 0.82569 0.0
C339 C 0.90097 0.97268 0.75349 0.0
C340 C 0.84248 0.8631 0.77151 0.0
H341 H 0.7368 0.79621 0.77731 0.0
C342 C 0.85893 0.84927 0.78446 0.0
C343 C 0.79795 0.84308 0.76864 0.0
C344 C 0.77863 0.85544 0.75445 0.0
C345 C 0.83193 0.81681 0.79498 0.0
C346 C 0.78738 0.79805 0.79255 0.0
C347 C 0.77097 0.81093 0.77925 0.0
C348 C 0.75721 0.76549 0.80383 0.0
C349 C 0.85127 0.80281 0.80859 0.0
C350 C 0.72767 0.72472 0.7976 0.0
C351 C 0.69835 0.69434 0.80811 0.0
C352 C 0.69773 0.70432 0.82502 0.0
C353 C 0.72732 0.74529 0.8312 0.0
C354 C 0.75674 0.77557 0.8207 0.0
H355 H 0.8847 0.81221 0.80613 0.0
H356 H 0.85115 0.81795 0.8206 0.0
H357 H 0.83263 0.76788 0.80995 0.0
H358 H 0.72728 0.71642 0.78459 0.0
H359 H 0.67561 0.66329 0.80291 0.0
H360 H 0.11664 0.0208 0.08086 0.0
H361 H 0.12062 0.97242 0.10091 0.0
H362 H 0.98375 0.89678 0.0995 0.0
H363 H 0.97949 0.94536 0.07987 0.0
H364 H 0.01727 0.9083 0.13111 0.0
H365 H 0.10117 0.85575 0.08902 0.0
H366 H 0.12823 0.91191 0.09319 0.0
H367 H 0.07783 0.88649 0.08185 0.0
C368 C 0.08742 0.99399 0.08491 0.0
C369 C 0.04777 0.98679 0.0787 0.0
C370 C 0.08974 0.96619 0.09627 0.0
C371 C 0.0525 0.93046 0.10145 0.0
C372 C 0.01292 0.92399 0.09562 0.0
H373 H 0.97528 0.70264 0.15615 0.0
H374 H 0.98048 0.76136 0.13993 0.0
C375 C 0.01056 0.95182 0.08438 0.0
C376 C 0.0543 0.89937 0.11281 0.0
H377 H 0.08862 0.82801 0.11608 0.0
C378 C 0.03298 0.89084 0.12784 0.0
C379 C 0.07475 0.87652 0.10852 0.0
C380 C 0.09648 0.88274 0.09221 0.0
C381 C 0.03137 0.85998 0.13863 0.0
C382 C 0.05132 0.83684 0.13423 0.0
C383 C 0.07343 0.84593 0.11941 0.0
C384 C 0.04821 0.8019 0.14452 0.0
C385 C 0.00836 0.85235 0.15469 0.0
C386 C 0.08468 0.80506 0.15232 0.0
C387 C 0.08179 0.77167 0.16176 0.0
C388 C 0.0424 0.73422 0.16341 0.0
C389 C 0.00598 0.73121 0.15545 0.0
C390 C 0.00888 0.76471 0.14612 0.0
H391 H 0.00338 0.87905 0.15808 0.0
H392 H 0.97675 0.82313 0.15322 0.0
H393 H 0.02629 0.84769 0.16509 0.0
H394 H 0.11534 0.83349 0.1512 0.0
H395 H 0.11041 0.7754 0.16787 0.0
H396 H 0.04119 0.0135 0.42903 0.0
H397 H 0.09414 0.01111 0.4479 0.0
H398 H 0.19362 0.09351 0.41553 0.0
H399 H 0.14034 0.09347 0.39622 0.0
H400 H 0.20301 0.02955 0.42381 0.0
H401 H 0.17639 0.0954 0.48157 0.0
H402 H 0.12926 0.04868 0.47376 0.0
H403 H 0.15263 0.09583 0.46164 0.0
C404 C 0.0745 0.03161 0.42617 0.0
C405 C 0.08706 0.05517 0.41159 0.0
C406 C 0.10477 0.03049 0.43698 0.0
C407 C 0.14813 0.05299 0.43339 0.0
C408 C 0.1605 0.07628 0.41871 0.0
H409 H 0.36386 0.10842 0.49888 0.0
H410 H 0.30875 0.11006 0.4813 0.0
C411 C 0.13018 0.07684 0.40781 0.0
C412 C 0.1804 0.05025 0.4443 0.0
H413 H 0.22086 0.0652 0.48433 0.0
C414 C 0.20698 0.03753 0.43703 0.0
C415 C 0.18574 0.06067 0.46157 0.0
C416 C 0.15973 0.07627 0.4701 0.0
C417 C 0.23866 0.03507 0.44651 0.0
C418 C 0.24339 0.04479 0.46379 0.0
C419 C 0.21693 0.05748 0.47108 0.0
C420 C 0.2765 0.0433 0.47446 0.0
C421 C 0.2674 0.02299 0.43786 0.0
C422 C 0.2763 0.00508 0.47662 0.0
C423 C 0.30794 0.00409 0.48658 0.0
C424 C 0.34026 0.04129 0.49463 0.0
C425 C 0.33986 0.07936 0.49265 0.0
C426 C 0.30823 0.0803 0.4827 0.0
H427 H 0.26643 0.02658 0.42414 0.0
H428 H 0.3008 0.04267 0.44266 0.0
H429 H 0.25691 0.98929 0.44028 0.0
H430 H 0.25166 0.97601 0.47061 0.0
H431 H 0.30747 0.97432 0.48774 0.0
H432 H 0.1233 0.17214 0.7274 0.0
H433 H 0.17811 0.22518 0.7467 0.0
H434 H 0.15091 0.12784 0.78246 0.0
H435 H 0.09582 0.07468 0.7631 0.0
H436 H 0.15705 0.20595 0.79556 0.0
H437 H 0.29469 0.23393 0.75839 0.0
H438 H 0.25321 0.23745 0.74713 0.0
H439 H 0.24262 0.18749 0.75527 0.0
C440 C 0.1288 0.1623 0.73947 0.0
C441 C 0.10473 0.11983 0.74408 0.0
C442 C 0.16031 0.19242 0.75038 0.0
C443 C 0.16858 0.18033 0.76596 0.0
C444 C 0.14484 0.13774 0.7705 0.0
H445 H 0.38736 0.32913 0.83303 0.0
H446 H 0.33033 0.27308 0.81551 0.0
C447 C 0.11352 0.10752 0.7595 0.0
C448 C 0.20213 0.21223 0.77748 0.0
H449 H 0.30921 0.28014 0.78167 0.0
C450 C 0.19031 0.22214 0.79257 0.0
C451 C 0.24552 0.23289 0.77358 0.0
C452 C 0.26001 0.22228 0.75778 0.0
C453 C 0.22076 0.25291 0.80377 0.0
C454 C 0.26406 0.27433 0.79968 0.0
C455 C 0.27594 0.26381 0.78472 0.0
C456 C 0.29764 0.30785 0.81073 0.0
C457 C 0.20647 0.26197 0.81995 0.0
C458 C 0.29824 0.34604 0.81375 0.0
C459 C 0.33098 0.37831 0.82362 0.0
C460 C 0.36384 0.37301 0.83064 0.0
C461 C 0.3629 0.33451 0.82765 0.0
C462 C 0.33022 0.30234 0.81773 0.0
H463 H 0.1741 0.23627 0.82293 0.0
H464 H 0.22892 0.26601 0.83042 0.0
H465 H 0.20574 0.2919 0.81893 0.0
H466 H 0.27383 0.35123 0.80818 0.0
H467 H 0.33108 0.40779 0.82541 0.0
H468 H 0.92045 0.10485 0.69399 0.0
H469 H 0.86879 0.09765 0.67236 0.0
H470 H 0.89459 0.01273 0.64414 0.0
H471 H 0.94618 0.01913 0.66593 0.0
H472 H 0.87895 0.11609 0.63876 0.0
H473 H 0.76502 0.94502 0.64796 0.0
H474 H 0.80796 0.97699 0.66279 0.0
H475 H 0.81842 0.95813 0.6438 0.0
C476 C 0.91528 0.08454 0.68323 0.0
C477 C 0.93737 0.06228 0.68183 0.0
C478 C 0.88572 0.08058 0.67083 0.0
C479 C 0.8774 0.05422 0.65675 0.0
C480 C 0.89996 0.03263 0.65506 0.0
H481 H 0.72509 0.05797 0.57047 0.0
H482 H 0.78297 0.06178 0.58814 0.0
C483 C 0.92962 0.03653 0.6675 0.0
C484 C 0.84486 0.04951 0.644 0.0
H485 H 0.74745 0.97825 0.62661 0.0
C486 C 0.85031 0.08592 0.636 0.0
C487 C 0.80733 0.01017 0.64058 0.0
C488 C 0.79895 0.97034 0.6493 0.0
C489 C 0.81902 0.08419 0.62483 0.0
C490 C 0.78157 0.04482 0.62136 0.0
C491 C 0.77634 0.00832 0.62921 0.0
C492 C 0.74637 0.04129 0.61038 0.0
C493 C 0.82565 0.12479 0.61733 0.0
C494 C 0.70628 0.02746 0.6169 0.0
C495 C 0.67317 0.02516 0.60684 0.0
C496 C 0.67941 0.03651 0.59002 0.0
C497 C 0.71945 0.04967 0.58344 0.0
C498 C 0.75255 0.05186 0.59351 0.0
H499 H 0.85125 0.15327 0.62413 0.0
H500 H 0.83488 0.12603 0.60421 0.0
H501 H 0.79593 0.12623 0.61736 0.0
H502 H 0.70082 0.01916 0.62988 0.0
H503 H 0.64292 0.01536 0.61236 0.0
H504 H 0.91101 0.96464 0.02499 0.0
H505 H 0.85832 0.91048 0.00547 0.0
H506 H 0.95641 0.94033 0.97035 0.0
H507 H 0.00931 0.9937 0.99015 0.0
H508 H 0.83172 0.91559 0.97483 0.0
H509 H 0.90457 0.81414 0.97253 0.0
H510 H 0.92179 0.85713 0.98758 0.0
H511 H 0.93993 0.86765 0.96661 0.0
C512 C 0.92108 0.95978 0.01302 0.0
C513 C 0.96379 0.98378 0.00881 0.0
C514 C 0.89111 0.92874 0.00193 0.0
C515 C 0.90347 0.92082 0.98653 0.0
C516 C 0.94626 0.9451 0.9823 0.0
H517 H 0.75496 0.74506 0.90413 0.0
H518 H 0.81164 0.80225 0.92147 0.0
C519 C 0.97634 0.97581 0.99351 0.0
C520 C 0.87133 0.88748 0.9749 0.0
H521 H 0.84635 0.79597 0.95356 0.0
C522 C 0.83512 0.88967 0.97013 0.0
C523 C 0.87545 0.85319 0.96889 0.0
C524 C 0.91231 0.84754 0.97428 0.0
C525 C 0.8032 0.85895 0.95939 0.0
C526 C 0.80723 0.82465 0.95347 0.0
C527 C 0.84353 0.8225 0.95808 0.0
C528 C 0.77321 0.78981 0.94303 0.0
C529 C 0.76554 0.86363 0.95439 0.0
C530 C 0.73314 0.76353 0.94952 0.0
C531 C 0.70086 0.73072 0.93973 0.0
C532 C 0.70802 0.72344 0.92322 0.0
C533 C 0.74847 0.74955 0.91682 0.0
C534 C 0.78082 0.78235 0.92668 0.0
H535 H 0.77236 0.89665 0.95647 0.0
H536 H 0.75602 0.85445 0.94106 0.0
H537 H 0.73821 0.84244 0.96201 0.0
H538 H 0.72693 0.76824 0.96224 0.0
H539 H 0.67044 0.71068 0.94519 0.0
H540 H 0.07531 0.99764 0.34116 0.0
H541 H 0.07277 0.94397 0.32203 0.0
H542 H 0.93584 0.8795 0.32001 0.0
H543 H 0.938 0.93317 0.33924 0.0
H544 H 0.02783 0.85292 0.32892 0.0
H545 H 0.97148 0.89152 0.27001 0.0
H546 H 0.99664 0.92955 0.28709 0.0
H547 H 0.94278 0.88714 0.28846 0.0
C548 C 0.04461 0.97235 0.33652 0.0
C549 C 0.00683 0.96967 0.34172 0.0
C550 C 0.04326 0.94168 0.32561 0.0
C551 C 0.00417 0.90798 0.31954 0.0
C552 C 0.96635 0.90558 0.32441 0.0
H553 H 0.9452 0.69294 0.25332 0.0
H554 H 0.94122 0.74547 0.27109 0.0
C555 C 0.96765 0.93619 0.33543 0.0
C556 C 0.00324 0.8742 0.30887 0.0
H557 H 0.98063 0.83197 0.26927 0.0
C558 C 0.01751 0.84828 0.31588 0.0
C559 C 0.98938 0.86807 0.29192 0.0
C560 C 0.97439 0.89561 0.2838 0.0
C561 C 0.0183 0.81626 0.30638 0.0
C562 C 0.00555 0.8108 0.28928 0.0
C563 C 0.99059 0.83632 0.28234 0.0
C564 C 0.00811 0.77918 0.27837 0.0
C565 C 0.03211 0.78815 0.31486 0.0
C566 C 0.04714 0.78103 0.27634 0.0
C567 C 0.04944 0.75076 0.26637 0.0
C568 C 0.01281 0.7182 0.25803 0.0
C569 C 0.9739 0.71705 0.25979 0.0
C570 C 0.97161 0.74727 0.26984 0.0
H571 H 0.02835 0.78786 0.32855 0.0
H572 H 0.0136 0.75504 0.30986 0.0
H573 H 0.06623 0.80037 0.31267 0.0
H574 H 0.07591 0.80591 0.28251 0.0
H575 H 0.07987 0.75251 0.26544 0.0
H576 H 0.06496 0.96884 0.67351 0.0
H577 H 0.11417 0.96521 0.65424 0.0
H578 H 0.18603 0.10174 0.65323 0.0
H579 H 0.13728 0.10574 0.67242 0.0
H580 H 0.14074 0.0031 0.62111 0.0
H581 H 0.27281 0.06474 0.66903 0.0
H582 H 0.21799 0.04327 0.6743 0.0
H583 H 0.24753 0.0959 0.66641 0.0
C584 C 0.09101 0.99806 0.66906 0.0
C585 C 0.09737 0.03758 0.67458 0.0
C586 C 0.11907 0.99592 0.65806 0.0
C587 C 0.15404 0.03322 0.65253 0.0
C588 C 0.15957 0.07261 0.65756 0.0
H589 H 0.37575 0.0988 0.59573 0.0
H590 H 0.32023 0.09779 0.61237 0.0
C591 C 0.13155 0.07479 0.66848 0.0
C592 C 0.18557 0.03125 0.64188 0.0
H593 H 0.28966 0.05746 0.64143 0.0
C594 C 0.17326 0.01472 0.62554 0.0
C595 C 0.22793 0.04652 0.64773 0.0
C596 C 0.24246 0.06332 0.66537 0.0
C597 C 0.2026 0.01413 0.6147 0.0
C598 C 0.24509 0.02962 0.62053 0.0
C599 C 0.25716 0.04571 0.63695 0.0
C600 C 0.27781 0.02997 0.60981 0.0
C601 C 0.18814 0.99814 0.59698 0.0
C602 C 0.2726 0.99214 0.60289 0.0
C603 C 0.30414 0.99266 0.59319 0.0
C604 C 0.34178 0.031 0.59034 0.0
C605 C 0.34694 0.0688 0.5974 0.0
C606 C 0.31533 0.06825 0.60703 0.0
H607 H 0.1587 0.99849 0.59325 0.0
H608 H 0.2132 0.01753 0.58814 0.0
H609 H 0.18121 0.96493 0.59584 0.0
H610 H 0.24435 0.96209 0.60514 0.0
H611 H 0.29889 0.963 0.58785 0.0
H612 H 0.08155 0.18687 0.99878 0.0
H613 H 0.14175 0.23682 0.98285 0.0
H614 H 0.21606 0.18358 0.00208 0.0
H615 H 0.15579 0.13305 0.01812 0.0
H616 H 0.22658 0.29772 0.99513 0.0
H617 H 0.22297 0.17857 0.95043 0.0
H618 H 0.17847 0.16745 0.96305 0.0
H619 H 0.22433 0.16813 0.97224 0.0
C620 C 0.11063 0.18564 0.9997 0.0
C621 C 0.11365 0.1557 0.00974 0.0
C622 C 0.14504 0.21432 0.99057 0.0
C623 C 0.18313 0.21357 0.99115 0.0
C624 C 0.18667 0.18425 1.0013 0.0
H625 H 0.41288 0.36278 0.93515 0.0
H626 H 0.35998 0.31202 0.95379 0.0
C627 C 0.15225 0.15556 0.01052 0.0
C628 C 0.21899 0.24373 0.98109 0.0
H629 H 0.2763 0.24979 0.94727 0.0
C630 C 0.23761 0.28729 0.9847 0.0
C631 C 0.23336 0.22995 0.96756 0.0
C632 C 0.21369 0.18352 0.96293 0.0
C633 C 0.27015 0.31754 0.97507 0.0
C634 C 0.28371 0.30385 0.96122 0.0
C635 C 0.26575 0.26022 0.95785 0.0
C636 C 0.3156 0.33435 0.94981 0.0
C637 C 0.28993 0.36387 0.97992 0.0
C638 C 0.30784 0.36317 0.94113 0.0
C639 C 0.33792 0.39212 0.93047 0.0
C640 C 0.37626 0.39259 0.92813 0.0
C641 C 0.38355 0.36305 0.93658 0.0
C642 C 0.35346 0.33416 0.94729 0.0
H643 H 0.2853 0.36823 0.99325 0.0
H644 H 0.32452 0.38141 0.97768 0.0
H645 H 0.27462 0.3781 0.9723 0.0
H646 H 0.27834 0.36312 0.94252 0.0
H647 H 0.33094 0.41387 0.92391 0.0
H648 H 0.0829 0.2122 0.35506 0.0
H649 H 0.07604 0.25385 0.33283 0.0
H650 H 0.96602 0.14181 0.31208 0.0
H651 H 0.97262 0.09941 0.33435 0.0
H652 H 0.07013 0.23548 0.29516 0.0
H653 H 0.93094 0.23612 0.32189 0.0
H654 H 0.96716 0.22698 0.33462 0.0
H655 H 0.9305 0.18664 0.32012 0.0
C656 C 0.05725 0.19621 0.34577 0.0
C657 C 0.02812 0.15242 0.34657 0.0
C658 C 0.0535 0.22011 0.33305 0.0
C659 C 0.02038 0.20093 0.32094 0.0
C660 C 0.99165 0.15716 0.32142 0.0
H661 H 0.95258 0.33818 0.24845 0.0
H662 H 0.95137 0.28147 0.26505 0.0
C663 C 0.99558 0.13301 0.3341 0.0
C664 C 0.01579 0.22741 0.3081 0.0
H665 H 0.96035 0.27738 0.29839 0.0
C666 C 0.04589 0.24435 0.29571 0.0
C667 C 0.98398 0.23862 0.30886 0.0
C668 C 0.95125 0.22142 0.32209 0.0
C669 C 0.0455 0.27293 0.28419 0.0
C670 C 0.01492 0.28584 0.28543 0.0
C671 C 0.98389 0.26766 0.29749 0.0
C672 C 0.01594 0.31973 0.27496 0.0
C673 C 0.07783 0.28895 0.2708 0.0
C674 C 0.05238 0.36025 0.2752 0.0
C675 C 0.05318 0.39258 0.26573 0.0
C676 C 0.01732 0.3853 0.25597 0.0
C677 C 0.98062 0.34485 0.25591 0.0
C678 C 0.97995 0.31239 0.26533 0.0
H679 H 0.08878 0.26617 0.26808 0.0
H680 H 0.06471 0.29461 0.25907 0.0
H681 H 0.10601 0.31929 0.27515 0.0
H682 H 0.08008 0.3671 0.28294 0.0
H683 H 0.08163 0.4236 0.26631 0.0
loop_
_geom_bond_atom_site_label_1
_geom_bond_atom_site_label_2
_geom_bond_distance
_geom_bond_site_symmetry_2
_ccdc_geom_bond_type
Mn0 O5 2.095 . S
Mn0 O15 2.162 . S
Mn0 O16 2.297 1_545 S
Mn0 O24 2.385 1_545 S
Mn0 O25 2.209 1_455 S
Mn0 O26 2.094 . S
Mn1 O6 2.121 . S
Mn1 N8 2.257 1_455 S
Mn1 N17 2.282 1_454 S
Mn1 O25 2.215 1_455 S
Mn1 O27 2.117 . S
C2 O24 1.234 1_655 S
C2 O25 1.283 1_565 S
C3 O15 1.281 1_565 S
C3 O16 1.236 . S
C4 O26 1.240 . S
C4 O27 1.264 . S
O5 Mn0 2.095 . S
O5 C14 1.250 . S
O6 Mn1 2.121 . S
O6 C14 1.258 . S
C7 N8 1.326 . S
C7 C11 1.460 . S
C7 H13 0.929 . S
N8 Mn1 2.257 1_655 S
N8 C7 1.326 . S
N8 C12 1.362 . S
C9 C10 1.263 . S
C9 C12 1.432 . S
C9 C29 1.442 1_554 S
C10 C9 1.263 . S
C10 C11 1.477 . S
C10 H30 0.931 . S
C11 C7 1.460 . S
C11 C10 1.477 . S
C11 H31 0.930 . S
C12 N8 1.362 . S
C12 C9 1.432 . S
C12 C22 1.476 1_554 S
H13 C7 0.929 . S
C14 O5 1.250 . S
C14 O6 1.258 . S
O15 Mn0 2.162 . S
O15 C3 1.281 1_545 S
O16 Mn0 2.297 1_565 S
O16 C3 1.236 . S
N17 Mn1 2.282 1_656 S
N17 C18 1.328 1_655 S
N17 C22 1.318 . S
C18 N17 1.328 1_455 S
C18 C19 1.457 1_455 S
C18 H23 0.929 . S
C19 C18 1.457 1_655 S
C19 C20 1.291 . S
C19 H32 0.931 1_655 S
C20 C19 1.291 . S
C20 C21 1.373 . S
C20 H33 0.929 . S
C21 C20 1.373 . S
C21 C22 1.396 . S
C21 C28 1.403 . S
C22 C12 1.476 1_556 S
C22 N17 1.318 . S
C22 C21 1.396 . S
H23 C18 0.929 . S
O24 Mn0 2.385 1_565 S
O24 C2 1.234 1_455 S
O25 Mn0 2.209 1_655 S
O25 Mn1 2.215 1_655 S
O25 C2 1.283 1_545 S
O26 Mn0 2.094 . S
O26 C4 1.240 . S
O27 Mn1 2.117 . S
O27 C4 1.264 . S
C28 C21 1.403 . S
C28 C29 1.399 . S
C28 H34 0.929 . S
C29 C9 1.442 1_556 S
C29 C28 1.399 . S
C29 H35 0.930 . S
H30 C10 0.931 . S
H31 C11 0.930 . S
H32 C19 0.931 1_455 S
H33 C20 0.929 . S
H34 C28 0.929 . S
H35 C29 0.930 . S
Mn36 O41 2.095 . S
Mn36 O51 2.162 1_545 S
Mn36 O52 2.297 1_655 S
Mn36 O60 2.385 1_655 S
Mn36 O61 2.209 1_655 S
Mn36 O62 2.094 . S
Mn37 O42 2.121 . S
Mn37 N44 2.257 . S
Mn37 N53 2.282 . S
Mn37 O61 2.215 . S
Mn37 O63 2.117 1_455 S
C38 O60 1.234 . S
C38 O61 1.283 . S
C39 O51 1.281 1_455 S
C39 O52 1.236 1_565 S
C40 O62 1.240 . S
C40 O63 1.264 . S
O41 Mn36 2.095 . S
O41 C50 1.250 1_655 S
O42 Mn37 2.121 . S
O42 C50 1.258 . S
C43 N44 1.326 . S
C43 C47 1.460 . S
C43 H49 0.929 . S
N44 Mn37 2.257 . S
N44 C43 1.326 . S
N44 C48 1.362 . S
C45 C46 1.258 . S
C45 C48 1.431 . S
C45 C65 1.449 . S
C46 C45 1.258 . S
C46 C47 1.477 . S
C46 H66 0.931 . S
C47 C43 1.460 . S
C47 C46 1.477 . S
C47 H67 0.930 . S
C48 N44 1.362 . S
C48 C45 1.431 . S
C48 C58 1.476 . S
H49 C43 0.929 . S
C50 O41 1.250 1_455 S
C50 O42 1.258 . S
O51 Mn36 2.162 1_565 S
O51 C39 1.281 1_655 S
O52 Mn36 2.297 1_455 S
O52 C39 1.236 1_545 S
N53 Mn37 2.282 . S
N53 C54 1.328 . S
N53 C58 1.318 . S
C54 N53 1.328 . S
C54 C55 1.457 . S
C54 H59 0.929 . S
C55 C54 1.457 . S
C55 C56 1.291 . S
C55 H68 0.931 . S
C56 C55 1.291 . S
C56 C57 1.373 . S
C56 H69 0.929 . S
C57 C56 1.373 . S
C57 C58 1.396 . S
C57 C64 1.403 . S
C58 C48 1.476 . S
C58 N53 1.318 . S
C58 C57 1.396 . S
H59 C54 0.929 . S
O60 Mn36 2.385 1_455 S
O60 C38 1.234 . S
O61 Mn36 2.209 1_455 S
O61 Mn37 2.215 . S
O61 C38 1.283 . S
O62 Mn36 2.094 . S
O62 C40 1.240 . S
O63 Mn37 2.117 1_655 S
O63 C40 1.264 . S
C64 C57 1.403 . S
C64 C65 1.399 . S
C64 H70 0.929 . S
C65 C45 1.449 . S
C65 C64 1.399 . S
C65 H71 0.930 . S
H66 C46 0.931 . S
H67 C47 0.930 . S
H68 C55 0.931 . S
H69 C56 0.929 . S
H70 C64 0.929 . S
H71 C65 0.930 . S
Mn72 O77 2.095 1_455 S
Mn72 O87 2.162 . S
Mn72 O88 2.297 . S
Mn72 O96 2.385 . S
Mn72 O97 2.209 . S
Mn72 O98 2.094 1_445 S
Mn73 O78 2.121 . S
Mn73 N80 2.257 . S
Mn73 N89 2.282 1_655 S
Mn73 O97 2.215 1_655 S
Mn73 O99 2.117 . S
C74 O96 1.234 . S
C74 O97 1.283 . S
C75 O87 1.281 . S
C75 O88 1.236 . S
C76 O98 1.240 . S
C76 O99 1.264 1_565 S
O77 Mn72 2.095 1_655 S
O77 C86 1.250 . S
O78 Mn73 2.121 . S
O78 C86 1.258 . S
C79 N80 1.326 . S
C79 C83 1.460 1_655 S
C79 H85 0.929 . S
N80 Mn73 2.257 . S
N80 C79 1.326 . S
N80 C84 1.362 1_655 S
C81 C82 1.258 . S
C81 C84 1.431 . S
C81 C101 1.449 . S
C82 C81 1.258 . S
C82 C83 1.477 . S
C82 H102 0.931 . S
C83 C79 1.460 1_455 S
C83 C82 1.477 . S
C83 H103 0.930 1_455 S
C84 N80 1.362 1_455 S
C84 C81 1.431 . S
C84 C94 1.476 . S
H85 C79 0.929 . S
C86 O77 1.250 . S
C86 O78 1.258 . S
O87 Mn72 2.162 . S
O87 C75 1.281 . S
O88 Mn72 2.297 . S
O88 C75 1.236 . S
N89 Mn73 2.282 1_455 S
N89 C90 1.328 . S
N89 C94 1.318 . S
C90 N89 1.328 . S
C90 C91 1.457 . S
C90 H95 0.930 1_455 S
C91 C90 1.457 . S
C91 C92 1.291 . S
C91 H104 0.931 . S
C92 C91 1.291 . S
C92 C93 1.373 . S
C92 H105 0.929 . S
C93 C92 1.373 . S
C93 C94 1.396 . S
C93 C100 1.403 . S
C94 C84 1.476 . S
C94 N89 1.318 . S
C94 C93 1.396 . S
H95 C90 0.930 1_655 S
O96 Mn72 2.385 . S
O96 C74 1.234 . S
O97 Mn72 2.209 . S
O97 Mn73 2.215 1_455 S
O97 C74 1.283 . S
O98 Mn72 2.094 1_665 S
O98 C76 1.240 . S
O99 Mn73 2.117 . S
O99 C76 1.264 1_545 S
C100 C93 1.403 . S
C100 C101 1.399 . S
C100 H106 0.929 . S
C101 C81 1.449 . S
C101 C100 1.399 . S
C101 H107 0.930 . S
H102 C82 0.931 . S
H103 C83 0.930 1_655 S
H104 C91 0.931 . S
H105 C92 0.929 . S
H106 C100 0.929 . S
H107 C101 0.930 . S
H108 C127 0.949 . S
H109 C128 0.950 . S
H110 C130 0.950 . S
H111 C131 0.950 . S
H112 C133 0.950 . S
H113 C136 0.950 . S
H114 C137 0.950 . S
H115 C139 0.951 . S
H116 C140 0.949 . S
H117 C142 0.949 . S
H118 C143 0.950 . S
H119 C145 0.950 . S
H120 C146 0.950 . S
H121 C148 0.950 . S
H122 C151 0.950 . S
H123 C152 0.950 1_655 S
H124 C154 0.951 . S
H125 C155 0.949 . S
C126 C127 1.376 . S
C126 C131 1.386 1_455 S
C126 C132 1.483 . S
C127 H108 0.949 . S
C127 C126 1.376 . S
C127 C128 1.397 . S
C128 H109 0.950 . S
C128 C127 1.397 . S
C128 C129 1.391 . S
C129 C128 1.391 . S
C129 C130 1.405 1_455 S
C130 H110 0.950 . S
C130 C129 1.405 1_655 S
C130 C131 1.367 . S
C131 H111 0.950 . S
C131 C126 1.386 1_655 S
C131 C130 1.367 . S
C132 C126 1.483 . S
C132 C133 1.382 . S
C132 C134 1.403 . S
C133 H112 0.950 . S
C133 C132 1.382 . S
C133 C149 1.411 . S
C134 C132 1.403 . S
C134 C135 1.489 . S
C134 C148 1.411 . S
C135 C134 1.489 . S
C135 C136 1.383 . S
C135 C140 1.382 1_455 S
C136 H113 0.950 . S
C136 C135 1.383 . S
C136 C137 1.395 . S
C137 H114 0.950 . S
C137 C136 1.395 . S
C137 C138 1.288 . S
C138 C137 1.288 . S
C138 C139 1.392 1_455 S
C139 H115 0.951 . S
C139 C138 1.392 1_655 S
C139 C140 1.392 . S
C140 H116 0.949 . S
C140 C135 1.382 1_655 S
C140 C139 1.392 . S
C141 C142 1.376 1_455 S
C141 C146 1.386 . S
C141 C147 1.483 . S
C142 H117 0.949 . S
C142 C141 1.376 1_655 S
C142 C143 1.397 . S
C143 H118 0.950 . S
C143 C142 1.397 . S
C143 C144 1.391 1_655 S
C144 C143 1.391 1_455 S
C144 C145 1.405 . S
C145 H119 0.950 . S
C145 C144 1.405 . S
C145 C146 1.367 . S
C146 H120 0.950 . S
C146 C141 1.386 . S
C146 C145 1.367 . S
C147 C141 1.483 . S
C147 C148 1.382 . S
C147 C149 1.403 . S
C148 H121 0.950 . S
C148 C134 1.411 . S
C148 C147 1.382 . S
C149 C133 1.411 . S
C149 C147 1.403 . S
C149 C150 1.489 . S
C150 C149 1.489 . S
C150 C151 1.383 1_455 S
C150 C155 1.382 . S
C151 H122 0.950 . S
C151 C150 1.383 1_655 S
C151 C152 1.395 1_655 S
C152 H123 0.950 1_455 S
C152 C151 1.395 1_455 S
C152 C153 1.288 . S
C153 C152 1.288 . S
C153 C154 1.392 . S
C154 H124 0.951 . S
C154 C153 1.392 . S
C154 C155 1.392 . S
C155 H125 0.949 . S
C155 C150 1.382 . S
C155 C154 1.392 . S
H156 C175 0.949 . S
H157 C176 0.950 . S
H158 C178 0.950 . S
H159 C179 0.950 . S
H160 C181 0.950 . S
H161 C184 0.950 . S
H162 C185 0.950 . S
H163 C187 0.951 . S
H164 C188 0.949 . S
H165 C190 0.949 . S
H166 C191 0.950 . S
H167 C193 0.950 . S
H168 C194 0.950 . S
H169 C196 0.950 . S
H170 C199 0.950 . S
H171 C200 0.950 . S
H172 C202 0.951 . S
H173 C203 0.949 . S
C174 C175 1.376 . S
C174 C179 1.386 . S
C174 C180 1.483 . S
C175 H156 0.949 . S
C175 C174 1.376 . S
C175 C176 1.397 . S
C176 H157 0.950 . S
C176 C175 1.397 . S
C176 C177 1.391 . S
C177 C176 1.391 . S
C177 C178 1.405 . S
C178 H158 0.950 . S
C178 C177 1.405 . S
C178 C179 1.367 . S
C179 H159 0.950 . S
C179 C174 1.386 . S
C179 C178 1.367 . S
C180 C174 1.483 . S
C180 C181 1.382 . S
C180 C182 1.403 . S
C181 H160 0.950 . S
C181 C180 1.382 . S
C181 C197 1.411 . S
C182 C180 1.403 . S
C182 C183 1.489 . S
C182 C196 1.411 . S
C183 C182 1.489 . S
C183 C184 1.383 . S
C183 C188 1.382 . S
C184 H161 0.950 . S
C184 C183 1.383 . S
C184 C185 1.395 . S
C185 H162 0.950 . S
C185 C184 1.395 . S
C185 C186 1.288 . S
C186 C185 1.288 . S
C186 C187 1.392 . S
C187 H163 0.951 . S
C187 C186 1.392 . S
C187 C188 1.392 . S
C188 H164 0.949 . S
C188 C183 1.382 . S
C188 C187 1.392 . S
C189 C190 1.376 . S
C189 C194 1.386 . S
C189 C195 1.483 . S
C190 H165 0.949 . S
C190 C189 1.376 . S
C190 C191 1.397 . S
C191 H166 0.950 . S
C191 C190 1.397 . S
C191 C192 1.391 . S
C192 C191 1.391 . S
C192 C193 1.405 . S
C193 H167 0.950 . S
C193 C192 1.405 . S
C193 C194 1.367 . S
C194 H168 0.950 . S
C194 C189 1.386 . S
C194 C193 1.367 . S
C195 C189 1.483 . S
C195 C196 1.382 . S
C195 C197 1.403 . S
C196 H169 0.950 . S
C196 C182 1.411 . S
C196 C195 1.382 . S
C197 C181 1.411 . S
C197 C195 1.403 . S
C197 C198 1.489 . S
C198 C197 1.489 . S
C198 C199 1.383 . S
C198 C203 1.382 . S
C199 H170 0.950 . S
C199 C198 1.383 . S
C199 C200 1.395 . S
C200 H171 0.950 . S
C200 C199 1.395 . S
C200 C201 1.288 . S
C201 C200 1.288 . S
C201 C202 1.392 . S
C202 H172 0.951 . S
C202 C201 1.392 . S
C202 C203 1.392 . S
C203 H173 0.949 . S
C203 C198 1.382 . S
C203 C202 1.392 . S
H204 C223 0.949 . S
H205 C224 0.950 . S
H206 C226 0.950 . S
H207 C227 0.950 . S
H208 C229 0.950 . S
H209 C232 0.950 . S
H210 C233 0.950 . S
H211 C235 0.951 . S
H212 C236 0.949 . S
H213 C238 0.949 . S
H214 C239 0.950 . S
H215 C241 0.950 . S
H216 C242 0.950 . S
H217 C244 0.950 . S
H218 C247 0.950 . S
H219 C248 0.950 . S
H220 C250 0.951 . S
H221 C251 0.949 . S
C222 C223 1.376 . S
C222 C227 1.386 . S
C222 C228 1.483 . S
C223 H204 0.949 . S
C223 C222 1.376 . S
C223 C224 1.397 . S
C224 H205 0.950 . S
C224 C223 1.397 . S
C224 C225 1.391 . S
C225 C224 1.391 . S
C225 C226 1.405 . S
C226 H206 0.950 . S
C226 C225 1.405 . S
C226 C227 1.367 . S
C227 H207 0.950 . S
C227 C222 1.386 . S
C227 C226 1.367 . S
C228 C222 1.483 . S
C228 C229 1.382 . S
C228 C230 1.403 . S
C229 H208 0.950 . S
C229 C228 1.382 . S
C229 C245 1.411 . S
C230 C228 1.403 . S
C230 C231 1.489 . S
C230 C244 1.411 . S
C231 C230 1.489 . S
C231 C232 1.383 . S
C231 C236 1.382 . S
C232 H209 0.950 . S
C232 C231 1.383 . S
C232 C233 1.395 . S
C233 H210 0.950 . S
C233 C232 1.395 . S
C233 C234 1.288 . S
C234 C233 1.288 . S
C234 C235 1.392 . S
C235 H211 0.951 . S
C235 C234 1.392 . S
C235 C236 1.392 . S
C236 H212 0.949 . S
C236 C231 1.382 . S
C236 C235 1.392 . S
C237 C238 1.376 . S
C237 C242 1.386 . S
C237 C243 1.483 . S
C238 H213 0.949 . S
C238 C237 1.376 . S
C238 C239 1.397 . S
C239 H214 0.950 . S
C239 C238 1.397 . S
C239 C240 1.391 . S
C240 C239 1.391 . S
C240 C241 1.405 . S
C241 H215 0.950 . S
C241 C240 1.405 . S
C241 C242 1.367 . S
C242 H216 0.950 . S
C242 C237 1.386 . S
C242 C241 1.367 . S
C243 C237 1.483 . S
C243 C244 1.382 . S
C243 C245 1.403 . S
C244 H217 0.950 . S
C244 C230 1.411 . S
C244 C243 1.382 . S
C245 C229 1.411 . S
C245 C243 1.403 . S
C245 C246 1.489 . S
C246 C245 1.489 . S
C246 C247 1.383 . S
C246 C251 1.382 . S
C247 H218 0.950 . S
C247 C246 1.383 . S
C247 C248 1.395 . S
C248 H219 0.950 . S
C248 C247 1.395 . S
C248 C249 1.288 . S
C249 C248 1.288 . S
C249 C250 1.392 . S
C250 H220 0.951 . S
C250 C249 1.392 . S
C250 C251 1.392 . S
C251 H221 0.949 . S
C251 C246 1.382 . S
C251 C250 1.392 . S
H252 C260 0.929 . S
H253 C262 0.930 . S
H254 C264 0.930 . S
H255 C267 0.929 . S
H256 C270 0.930 . S
H257 C272 0.953 1_655 S
H258 C272 0.979 . S
H259 C272 0.951 1_655 S
C260 H252 0.929 . S
C260 C261 1.377 . S
C260 C262 1.384 . S
C261 C260 1.377 . S
C261 C267 1.390 1_455 S
C262 H253 0.930 . S
C262 C260 1.384 . S
C262 C263 1.372 . S
C263 C262 1.372 . S
C263 C264 1.400 1_455 S
C263 C268 1.490 . S
C264 H254 0.930 . S
C264 C263 1.400 1_655 S
C264 C267 1.386 . S
H265 C281 0.930 . S
H266 C282 0.931 . S
C267 H255 0.929 . S
C267 C261 1.390 1_655 S
C267 C264 1.386 . S
C268 C263 1.490 . S
C268 C270 1.395 . S
C268 C271 1.403 . S
H269 C275 0.930 . S
C270 H256 0.930 . S
C270 C268 1.395 . S
C270 C273 1.403 . S
C271 C268 1.403 . S
C271 C272 1.521 . S
C271 C275 1.400 . S
C272 H257 0.953 1_455 S
C272 H258 0.979 . S
C272 H259 0.951 1_455 S
C272 C271 1.521 . S
C273 C270 1.403 . S
C273 C274 1.392 . S
C273 C277 1.495 . S
C274 C273 1.392 . S
C274 C275 1.385 . S
C274 C276 1.478 . S
C275 H269 0.930 . S
C275 C271 1.400 . S
C275 C274 1.385 . S
C276 C274 1.478 . S
C276 C278 1.381 . S
C276 C282 1.383 1_455 S
C277 C273 1.495 . S
C277 H283 0.959 . S
C277 H284 0.961 . S
C277 H285 0.960 . S
C278 C276 1.381 . S
C278 C279 1.394 . S
C278 H286 0.930 . S
C279 C278 1.394 . S
C279 C280 1.383 . S
C279 H287 0.929 . S
C280 C279 1.383 . S
C280 C281 1.377 1_455 S
C281 H265 0.930 . S
C281 C280 1.377 1_655 S
C281 C282 1.379 . S
C282 H266 0.931 . S
C282 C276 1.383 1_655 S
C282 C281 1.379 . S
H283 C277 0.959 . S
H284 C277 0.961 . S
H285 C277 0.960 . S
H286 C278 0.930 . S
H287 C279 0.929 . S
H288 C296 0.929 . S
H289 C298 0.930 . S
H290 C300 0.930 1_565 S
H291 C303 0.929 1_565 S
H292 C306 0.930 . S
H293 C308 0.960 . S
H294 C308 0.960 . S
H295 C308 0.960 1_565 S
C296 H288 0.929 . S
C296 C297 1.377 . S
C296 C298 1.384 . S
C297 C296 1.377 . S
C297 C303 1.390 . S
C298 H289 0.930 . S
C298 C296 1.384 . S
C298 C299 1.372 . S
C299 C298 1.372 . S
C299 C300 1.400 . S
C299 C304 1.490 . S
C300 H290 0.930 1_545 S
C300 C299 1.400 . S
C300 C303 1.386 . S
H301 C317 0.930 . S
H302 C318 0.914 1_565 S
C303 H291 0.929 1_545 S
C303 C297 1.390 . S
C303 C300 1.386 . S
C304 C299 1.490 . S
C304 C306 1.395 . S
C304 C307 1.403 . S
H305 C311 0.930 . S
C306 H292 0.930 . S
C306 C304 1.395 . S
C306 C309 1.403 . S
C307 C304 1.403 . S
C307 C308 1.524 . S
C307 C311 1.400 . S
C308 H293 0.960 . S
C308 H294 0.960 . S
C308 H295 0.960 1_545 S
C308 C307 1.524 . S
C309 C306 1.403 . S
C309 C310 1.392 . S
C309 C313 1.495 . S
C310 C309 1.392 . S
C310 C311 1.385 . S
C310 C312 1.478 . S
C311 H305 0.930 . S
C311 C307 1.400 . S
C311 C310 1.385 . S
C312 C310 1.478 . S
C312 C314 1.381 . S
C312 C318 1.383 . S
C313 C309 1.495 . S
C313 H319 0.959 . S
C313 H320 0.961 . S
C313 H321 0.960 . S
C314 C312 1.381 . S
C314 C315 1.394 . S
C314 H322 0.930 . S
C315 C314 1.394 . S
C315 C316 1.383 . S
C315 H323 0.929 . S
C316 C315 1.383 . S
C316 C317 1.377 . S
C317 H301 0.930 . S
C317 C316 1.377 . S
C317 C318 1.379 . S
C318 H302 0.914 1_545 S
C318 C312 1.383 . S
C318 C317 1.379 . S
H319 C313 0.959 . S
H320 C313 0.961 . S
H321 C313 0.960 . S
H322 C314 0.930 . S
H323 C315 0.929 . S
H324 C332 0.929 . S
H325 C334 0.930 . S
H326 C336 0.930 . S
H327 C339 0.929 . S
H328 C342 0.930 . S
H329 C344 0.960 . S
H330 C344 0.960 . S
H331 C344 0.960 . S
C332 H324 0.929 . S
C332 C333 1.377 . S
C332 C334 1.384 . S
C333 C332 1.377 . S
C333 C339 1.390 . S
C334 H325 0.930 . S
C334 C332 1.384 . S
C334 C335 1.372 . S
C335 C334 1.372 . S
C335 C336 1.400 . S
C335 C340 1.490 . S
C336 H326 0.930 . S
C336 C335 1.400 . S
C336 C339 1.386 . S
H337 C353 0.930 . S
H338 C354 0.931 . S
C339 H327 0.929 . S
C339 C333 1.390 . S
C339 C336 1.386 . S
C340 C335 1.490 . S
C340 C342 1.395 . S
C340 C343 1.403 . S
H341 C347 0.930 . S
C342 H328 0.930 . S
C342 C340 1.395 . S
C342 C345 1.403 . S
C343 C340 1.403 . S
C343 C344 1.524 . S
C343 C347 1.400 . S
C344 H329 0.960 . S
C344 H330 0.960 . S
C344 H331 0.960 . S
C344 C343 1.524 . S
C345 C342 1.403 . S
C345 C346 1.392 . S
C345 C349 1.495 . S
C346 C345 1.392 . S
C346 C347 1.385 . S
C346 C348 1.478 . S
C347 H341 0.930 . S
C347 C343 1.400 . S
C347 C346 1.385 . S
C348 C346 1.478 . S
C348 C350 1.381 . S
C348 C354 1.383 . S
C349 C345 1.495 . S
C349 H355 0.959 . S
C349 H356 0.961 . S
C349 H357 0.960 . S
C350 C348 1.381 . S
C350 C351 1.394 . S
C350 H358 0.930 . S
C351 C350 1.394 . S
C351 C352 1.383 . S
C351 H359 0.929 . S
C352 C351 1.383 . S
C352 C353 1.377 . S
C353 H337 0.930 . S
C353 C352 1.377 . S
C353 C354 1.379 . S
C354 H338 0.931 . S
C354 C348 1.383 . S
C354 C353 1.379 . S
H355 C349 0.959 . S
H356 C349 0.961 . S
H357 C349 0.960 . S
H358 C350 0.930 . S
H359 C351 0.929 . S
H360 C368 0.929 . S
H361 C370 0.930 . S
H362 C372 0.930 . S
H363 C375 0.929 . S
H364 C378 0.930 . S
H365 C380 0.960 . S
H366 C380 0.960 . S
H367 C380 0.960 . S
C368 H360 0.929 . S
C368 C369 1.377 . S
C368 C370 1.384 . S
C369 C368 1.377 . S
C369 C375 1.390 . S
C370 H361 0.930 . S
C370 C368 1.384 . S
C370 C371 1.372 . S
C371 C370 1.372 . S
C371 C372 1.400 . S
C371 C376 1.490 . S
C372 H362 0.930 . S
C372 C371 1.400 . S
C372 C375 1.386 . S
H373 C389 0.930 1_655 S
H374 C390 0.931 1_655 S
C375 H363 0.929 . S
C375 C369 1.390 . S
C375 C372 1.386 . S
C376 C371 1.490 . S
C376 C378 1.395 . S
C376 C379 1.403 . S
H377 C383 0.930 . S
C378 H364 0.930 . S
C378 C376 1.395 . S
C378 C381 1.403 . S
C379 C376 1.403 . S
C379 C380 1.524 . S
C379 C383 1.400 . S
C380 H365 0.960 . S
C380 H366 0.960 . S
C380 H367 0.960 . S
C380 C379 1.524 . S
C381 C378 1.403 . S
C381 C382 1.392 . S
C381 C385 1.495 1_455 S
C382 C381 1.392 . S
C382 C383 1.385 . S
C382 C384 1.478 . S
C383 H377 0.930 . S
C383 C379 1.400 . S
C383 C382 1.385 . S
C384 C382 1.478 . S
C384 C386 1.381 . S
C384 C390 1.383 . S
C385 C381 1.495 1_655 S
C385 H391 0.959 . S
C385 H392 0.961 . S
C385 H393 0.960 1_655 S
C386 C384 1.381 . S
C386 C387 1.394 . S
C386 H394 0.930 . S
C387 C386 1.394 . S
C387 C388 1.383 . S
C387 H395 0.929 . S
C388 C387 1.383 . S
C388 C389 1.377 . S
C389 H373 0.930 1_455 S
C389 C388 1.377 . S
C389 C390 1.379 . S
C390 H374 0.931 1_455 S
C390 C384 1.383 . S
C390 C389 1.379 . S
H391 C385 0.959 . S
H392 C385 0.961 . S
H393 C385 0.960 1_455 S
H394 C386 0.930 . S
H395 C387 0.929 . S
H396 C404 0.929 1_565 S
H397 C406 0.930 1_565 S
H398 C408 0.930 . S
H399 C411 0.929 . S
H400 C414 0.930 . S
H401 C416 0.960 . S
H402 C416 0.960 . S
H403 C416 0.960 . S
C404 H396 0.929 1_545 S
C404 C405 1.377 . S
C404 C406 1.384 . S
C405 C404 1.377 . S
C405 C411 1.390 . S
C406 H397 0.930 1_545 S
C406 C404 1.384 . S
C406 C407 1.372 . S
C407 C406 1.372 . S
C407 C408 1.400 . S
C407 C412 1.490 . S
C408 H398 0.930 . S
C408 C407 1.400 . S
C408 C411 1.386 . S
H409 C425 0.930 . S
H410 C426 0.931 . S
C411 H399 0.929 . S
C411 C405 1.390 . S
C411 C408 1.386 . S
C412 C407 1.490 . S
C412 C414 1.395 . S
C412 C415 1.403 . S
H413 C419 0.930 . S
C414 H400 0.930 . S
C414 C412 1.395 . S
C414 C417 1.403 . S
C415 C412 1.403 . S
C415 C416 1.524 . S
C415 C419 1.400 . S
C416 H401 0.960 . S
C416 H402 0.960 . S
C416 H403 0.960 . S
C416 C415 1.524 . S
C417 C414 1.403 . S
C417 C418 1.392 . S
C417 C421 1.495 . S
C418 C417 1.392 . S
C418 C419 1.385 . S
C418 C420 1.478 . S
C419 H413 0.930 . S
C419 C415 1.400 . S
C419 C418 1.385 . S
C420 C418 1.478 . S
C420 C422 1.381 . S
C420 C426 1.383 . S
C421 C417 1.495 . S
C421 H427 0.959 1_545 S
C421 H428 0.961 . S
C421 H429 0.960 1_545 S
C422 C420 1.381 . S
C422 C423 1.394 . S
C422 H430 0.930 1_545 S
C423 C422 1.394 . S
C423 C424 1.383 . S
C423 H431 0.929 . S
C424 C423 1.383 . S
C424 C425 1.377 . S
C425 H409 0.930 . S
C425 C424 1.377 . S
C425 C426 1.379 . S
C426 H410 0.931 . S
C426 C420 1.383 . S
C426 C425 1.379 . S
H427 C421 0.959 1_565 S
H428 C421 0.961 . S
H429 C421 0.960 1_565 S
H430 C422 0.930 1_565 S
H431 C423 0.929 . S
H432 C440 0.929 . S
H433 C442 0.930 . S
H434 C444 0.930 . S
H435 C447 0.929 . S
H436 C450 0.930 . S
H437 C452 0.960 . S
H438 C452 0.960 . S
H439 C452 0.960 . S
C440 H432 0.929 . S
C440 C441 1.377 . S
C440 C442 1.384 . S
C441 C440 1.377 . S
C441 C447 1.390 . S
C442 H433 0.930 . S
C442 C440 1.384 . S
C442 C443 1.372 . S
C443 C442 1.372 . S
C443 C444 1.400 . S
C443 C448 1.490 . S
C444 H434 0.930 . S
C444 C443 1.400 . S
C444 C447 1.386 . S
H445 C461 0.930 . S
H446 C462 0.931 . S
C447 H435 0.929 . S
C447 C441 1.390 . S
C447 C444 1.386 . S
C448 C443 1.490 . S
C448 C450 1.395 . S
C448 C451 1.403 . S
H449 C455 0.930 . S
C450 H436 0.930 . S
C450 C448 1.395 . S
C450 C453 1.403 . S
C451 C448 1.403 . S
C451 C452 1.524 . S
C451 C455 1.400 . S
C452 H437 0.960 . S
C452 H438 0.960 . S
C452 H439 0.960 . S
C452 C451 1.524 . S
C453 C450 1.403 . S
C453 C454 1.392 . S
C453 C457 1.495 . S
C454 C453 1.392 . S
C454 C455 1.385 . S
C454 C456 1.478 . S
C455 H449 0.930 . S
C455 C451 1.400 . S
C455 C454 1.385 . S
C456 C454 1.478 . S
C456 C458 1.381 . S
C456 C462 1.383 . S
C457 C453 1.495 . S
C457 H463 0.959 . S
C457 H464 0.961 . S
C457 H465 0.960 . S
C458 C456 1.381 . S
C458 C459 1.394 . S
C458 H466 0.930 . S
C459 C458 1.394 . S
C459 C460 1.383 . S
C459 H467 0.929 . S
C460 C459 1.383 . S
C460 C461 1.377 . S
C461 H445 0.930 . S
C461 C460 1.377 . S
C461 C462 1.379 . S
C462 H446 0.931 . S
C462 C456 1.383 . S
C462 C461 1.379 . S
H463 C457 0.959 . S
H464 C457 0.961 . S
H465 C457 0.960 . S
H466 C458 0.930 . S
H467 C459 0.929 . S
H468 C476 0.929 . S
H469 C478 0.930 . S
H470 C480 0.930 . S
H471 C483 0.929 . S
H472 C486 0.930 . S
H473 C488 0.960 . S
H474 C488 0.960 . S
H475 C488 0.960 . S
C476 H468 0.929 . S
C476 C477 1.377 . S
C476 C478 1.384 . S
C477 C476 1.377 . S
C477 C483 1.390 . S
C478 H469 0.930 . S
C478 C476 1.384 . S
C478 C479 1.372 . S
C479 C478 1.372 . S
C479 C480 1.400 . S
C479 C484 1.490 . S
C480 H470 0.930 . S
C480 C479 1.400 . S
C480 C483 1.386 . S
H481 C497 0.930 . S
H482 C498 0.931 . S
C483 H471 0.929 . S
C483 C477 1.390 . S
C483 C480 1.386 . S
C484 C479 1.490 . S
C484 C486 1.395 . S
C484 C487 1.403 . S
H485 C491 0.930 . S
C486 H472 0.930 . S
C486 C484 1.395 . S
C486 C489 1.403 . S
C487 C484 1.403 . S
C487 C488 1.524 1_545 S
C487 C491 1.400 . S
C488 H473 0.960 . S
C488 H474 0.960 . S
C488 H475 0.960 . S
C488 C487 1.524 1_565 S
C489 C486 1.403 . S
C489 C490 1.392 . S
C489 C493 1.495 . S
C490 C489 1.392 . S
C490 C491 1.385 . S
C490 C492 1.478 . S
C491 H485 0.930 . S
C491 C487 1.400 . S
C491 C490 1.385 . S
C492 C490 1.478 . S
C492 C494 1.381 . S
C492 C498 1.383 . S
C493 C489 1.495 . S
C493 H499 0.959 . S
C493 H500 0.961 . S
C493 H501 0.960 . S
C494 C492 1.381 . S
C494 C495 1.394 . S
C494 H502 0.930 . S
C495 C494 1.394 . S
C495 C496 1.383 . S
C495 H503 0.929 . S
C496 C495 1.383 . S
C496 C497 1.377 . S
C497 H481 0.930 . S
C497 C496 1.377 . S
C497 C498 1.379 . S
C498 H482 0.931 . S
C498 C492 1.383 . S
C498 C497 1.379 . S
H499 C493 0.959 . S
H500 C493 0.961 . S
H501 C493 0.960 . S
H502 C494 0.930 . S
H503 C495 0.929 . S
H504 C512 0.929 . S
H505 C514 0.930 . S
H506 C516 0.930 . S
H507 C519 0.929 . S
H508 C522 0.930 . S
H509 C524 0.960 . S
H510 C524 0.960 . S
H511 C524 0.960 . S
C512 H504 0.929 . S
C512 C513 1.377 . S
C512 C514 1.384 . S
C513 C512 1.377 . S
C513 C519 1.390 1_554 S
C514 H505 0.930 . S
C514 C512 1.384 . S
C514 C515 1.372 1_554 S
C515 C514 1.372 1_556 S
C515 C516 1.400 . S
C515 C520 1.490 . S
C516 H506 0.930 . S
C516 C515 1.400 . S
C516 C519 1.386 . S
H517 C533 0.930 . S
H518 C534 0.931 . S
C519 H507 0.929 . S
C519 C513 1.390 1_556 S
C519 C516 1.386 . S
C520 C515 1.490 . S
C520 C522 1.395 . S
C520 C523 1.403 . S
H521 C527 0.930 . S
C522 H508 0.930 . S
C522 C520 1.395 . S
C522 C525 1.403 . S
C523 C520 1.403 . S
C523 C524 1.524 . S
C523 C527 1.400 . S
C524 H509 0.960 . S
C524 H510 0.960 . S
C524 H511 0.960 . S
C524 C523 1.524 . S
C525 C522 1.403 . S
C525 C526 1.392 . S
C525 C529 1.495 . S
C526 C525 1.392 . S
C526 C527 1.385 . S
C526 C528 1.478 . S
C527 H521 0.930 . S
C527 C523 1.400 . S
C527 C526 1.385 . S
C528 C526 1.478 . S
C528 C530 1.381 . S
C528 C534 1.383 . S
C529 C525 1.495 . S
C529 H535 0.959 . S
C529 H536 0.961 . S
C529 H537 0.960 . S
C530 C528 1.381 . S
C530 C531 1.394 . S
C530 H538 0.930 . S
C531 C530 1.394 . S
C531 C532 1.383 . S
C531 H539 0.929 . S
C532 C531 1.383 . S
C532 C533 1.377 . S
C533 H517 0.930 . S
C533 C532 1.377 . S
C533 C534 1.379 . S
C534 H518 0.931 . S
C534 C528 1.383 . S
C534 C533 1.379 . S
H535 C529 0.959 . S
H536 C529 0.961 . S
H537 C529 0.960 . S
H538 C530 0.930 . S
H539 C531 0.929 . S
H540 C548 0.929 . S
H541 C550 0.930 . S
H542 C552 0.930 . S
H543 C555 0.929 . S
H544 C558 0.930 1_655 S
H545 C560 0.960 . S
H546 C560 0.960 . S
H547 C560 0.960 . S
C548 H540 0.929 . S
C548 C549 1.377 . S
C548 C550 1.384 . S
C549 C548 1.377 . S
C549 C555 1.390 1_455 S
C550 H541 0.930 . S
C550 C548 1.384 . S
C550 C551 1.372 . S
C551 C550 1.372 . S
C551 C552 1.400 1_455 S
C551 C556 1.490 . S
C552 H542 0.930 . S
C552 C551 1.400 1_655 S
C552 C555 1.386 . S
H553 C569 0.930 . S
H554 C570 0.931 . S
C555 H543 0.929 . S
C555 C549 1.390 1_655 S
C555 C552 1.386 . S
C556 C551 1.490 . S
C556 C558 1.395 . S
C556 C559 1.403 . S
H557 C563 0.930 . S
C558 H544 0.930 1_455 S
C558 C556 1.395 . S
C558 C561 1.403 . S
C559 C556 1.403 . S
C559 C560 1.524 . S
C559 C563 1.400 . S
C560 H545 0.960 . S
C560 H546 0.960 . S
C560 H547 0.960 . S
C560 C559 1.524 . S
C561 C558 1.403 . S
C561 C562 1.392 . S
C561 C565 1.495 1_455 S
C562 C561 1.392 . S
C562 C563 1.385 . S
C562 C564 1.478 . S
C563 H557 0.930 . S
C563 C559 1.400 . S
C563 C562 1.385 . S
C564 C562 1.478 . S
C564 C566 1.381 . S
C564 C570 1.383 1_455 S
C565 C561 1.495 1_655 S
C565 H571 0.959 . S
C565 H572 0.961 . S
C565 H573 0.960 1_655 S
C566 C564 1.381 . S
C566 C567 1.394 . S
C566 H574 0.930 . S
C567 C566 1.394 . S
C567 C568 1.383 . S
C567 H575 0.929 . S
C568 C567 1.383 . S
C568 C569 1.377 1_455 S
C569 H553 0.930 . S
C569 C568 1.377 1_655 S
C569 C570 1.379 . S
C570 H554 0.931 . S
C570 C564 1.383 1_655 S
C570 C569 1.379 . S
H571 C565 0.959 . S
H572 C565 0.961 . S
H573 C565 0.960 1_455 S
H574 C566 0.930 . S
H575 C567 0.929 . S
H576 C584 0.929 1_565 S
H577 C586 0.930 1_565 S
H578 C588 0.930 . S
H579 C591 0.929 . S
H580 C594 0.930 . S
H581 C596 0.960 . S
H582 C596 0.960 . S
H583 C596 0.960 . S
C584 H576 0.929 1_545 S
C584 C585 1.377 . S
C584 C586 1.384 . S
C585 C584 1.377 . S
C585 C591 1.390 . S
C586 H577 0.930 1_545 S
C586 C584 1.384 . S
C586 C587 1.372 . S
C587 C586 1.372 . S
C587 C588 1.400 . S
C587 C592 1.490 . S
C588 H578 0.930 . S
C588 C587 1.400 . S
C588 C591 1.386 . S
H589 C605 0.930 . S
H590 C606 0.931 . S
C591 H579 0.929 . S
C591 C585 1.390 . S
C591 C588 1.386 . S
C592 C587 1.490 . S
C592 C594 1.395 . S
C592 C595 1.403 . S
H593 C599 0.930 . S
C594 H580 0.930 . S
C594 C592 1.395 . S
C594 C597 1.403 . S
C595 C592 1.403 . S
C595 C596 1.524 . S
C595 C599 1.400 . S
C596 H581 0.960 . S
C596 H582 0.960 . S
C596 H583 0.960 . S
C596 C595 1.524 . S
C597 C594 1.403 . S
C597 C598 1.392 . S
C597 C601 1.495 . S
C598 C597 1.392 . S
C598 C599 1.385 . S
C598 C600 1.478 . S
C599 H593 0.930 . S
C599 C595 1.400 . S
C599 C598 1.385 . S
C600 C598 1.478 . S
C600 C602 1.381 . S
C600 C606 1.383 . S
C601 C597 1.495 . S
C601 H607 0.959 . S
C601 H608 0.961 . S
C601 H609 0.960 1_545 S
C602 C600 1.381 . S
C602 C603 1.394 . S
C602 H610 0.930 1_545 S
C603 C602 1.394 . S
C603 C604 1.383 . S
C603 H611 0.929 . S
C604 C603 1.383 . S
C604 C605 1.377 . S
C605 H589 0.930 . S
C605 C604 1.377 . S
C605 C606 1.379 . S
C606 H590 0.931 . S
C606 C600 1.383 . S
C606 C605 1.379 . S
H607 C601 0.959 . S
H608 C601 0.961 . S
H609 C601 0.960 1_565 S
H610 C602 0.930 1_565 S
H611 C603 0.929 . S
H612 C620 0.929 . S
H613 C622 0.926 1_554 S
H614 C624 0.930 . S
H615 C627 0.929 . S
H616 C630 0.930 . S
H617 C632 0.960 . S
H618 C632 0.960 . S
H619 C632 0.960 . S
C620 H612 0.929 . S
C620 C621 1.377 . S
C620 C622 1.349 1_554 S
C621 C620 1.377 . S
C621 C627 1.390 1_554 S
C622 H613 0.926 1_556 S
C622 C620 1.349 1_556 S
C622 C623 1.413 . S
C623 C622 1.413 . S
C623 C624 1.400 . S
C623 C628 1.490 . S
C624 H614 0.930 . S
C624 C623 1.400 . S
C624 C627 1.386 . S
H625 C641 0.930 . S
H626 C642 0.931 . S
C627 H615 0.929 . S
C627 C621 1.390 1_556 S
C627 C624 1.386 . S
C628 C623 1.490 . S
C628 C630 1.395 . S
C628 C631 1.403 . S
H629 C635 0.930 . S
C630 H616 0.930 . S
C630 C628 1.395 . S
C630 C633 1.403 . S
C631 C628 1.403 . S
C631 C632 1.524 . S
C631 C635 1.400 . S
C632 H617 0.960 . S
C632 H618 0.960 . S
C632 H619 0.960 . S
C632 C631 1.524 . S
C633 C630 1.403 . S
C633 C634 1.392 . S
C633 C637 1.495 . S
C634 C633 1.392 . S
C634 C635 1.385 . S
C634 C636 1.478 . S
C635 H629 0.930 . S
C635 C631 1.400 . S
C635 C634 1.385 . S
C636 C634 1.478 . S
C636 C638 1.381 . S
C636 C642 1.383 . S
C637 C633 1.495 . S
C637 H643 0.959 . S
C637 H644 0.961 . S
C637 H645 0.960 . S
C638 C636 1.381 . S
C638 C639 1.394 . S
C638 H646 0.930 . S
C639 C638 1.394 . S
C639 C640 1.383 . S
C639 H647 0.929 . S
C640 C639 1.383 . S
C640 C641 1.377 . S
C641 H625 0.930 . S
C641 C640 1.377 . S
C641 C642 1.379 . S
C642 H626 0.931 . S
C642 C636 1.383 . S
C642 C641 1.379 . S
H643 C637 0.959 . S
H644 C637 0.961 . S
H645 C637 0.960 . S
H646 C638 0.930 . S
H647 C639 0.929 . S
H648 C656 0.929 . S
H649 C658 0.930 . S
H650 C660 0.930 . S
H651 C663 0.929 . S
H652 C666 0.930 . S
H653 C668 0.960 . S
H654 C668 0.960 . S
H655 C668 0.960 . S
C656 H648 0.929 . S
C656 C657 1.377 . S
C656 C658 1.384 . S
C657 C656 1.377 . S
C657 C663 1.390 1_455 S
C658 H649 0.930 . S
C658 C656 1.384 . S
C658 C659 1.372 . S
C659 C658 1.372 . S
C659 C660 1.400 1_455 S
C659 C664 1.490 . S
C660 H650 0.930 . S
C660 C659 1.400 1_655 S
C660 C663 1.386 . S
H661 C677 0.930 . S
H662 C678 0.931 . S
C663 H651 0.929 . S
C663 C657 1.390 1_655 S
C663 C660 1.386 . S
C664 C659 1.490 . S
C664 C666 1.395 . S
C664 C667 1.403 1_455 S
H665 C671 0.930 . S
C666 H652 0.930 . S
C666 C664 1.395 . S
C666 C669 1.403 . S
C667 C664 1.403 1_655 S
C667 C668 1.524 . S
C667 C671 1.400 . S
C668 H653 0.960 . S
C668 H654 0.960 . S
C668 H655 0.960 . S
C668 C667 1.524 . S
C669 C666 1.403 . S
C669 C670 1.392 . S
C669 C673 1.495 . S
C670 C669 1.392 . S
C670 C671 1.385 1_455 S
C670 C672 1.478 . S
C671 H665 0.930 . S
C671 C667 1.400 . S
C671 C670 1.385 1_655 S
C672 C670 1.478 . S
C672 C674 1.381 . S
C672 C678 1.383 1_455 S
C673 C669 1.495 . S
C673 H679 0.959 . S
C673 H680 0.961 . S
C673 H681 0.960 . S
C674 C672 1.381 . S
C674 C675 1.394 . S
C674 H682 0.930 . S
C675 C674 1.394 . S
C675 C676 1.383 . S
C675 H683 0.929 . S
C676 C675 1.383 . S
C676 C677 1.377 1_455 S
C677 H661 0.930 . S
C677 C676 1.377 1_655 S
C677 C678 1.379 . S
C678 H662 0.931 . S
C678 C672 1.383 1_655 S
C678 C677 1.379 . S
H679 C673 0.959 . S
H680 C673 0.961 . S
H681 C673 0.960 . S
H682 C674 0.930 . S
H683 C675 0.929 . S
C280 C129 1.484 . S
C261 C14 1.439 . S
C297 C40 1.503 . S
C316 C177 1.518 . S
C333 C76 1.487 . S
C352 C249 1.478 . S
C369 C3 1.479 . S
C388 C153 1.478 . S
C424 C201 1.508 . S
C405 C38 1.499 . S
C441 C74 1.474 . S
C460 C225 1.488 . S
C496 C186 1.463 . S
C477 C86 1.410 . S
C513 C2 1.475 . S
C532 C240 1.484 . S
C568 C144 1.476 . S
C549 C39 1.480 . S
C604 C192 1.466 . S
C585 C75 1.476 . S
C640 C234 1.489 . S
C621 C4 1.483 . S
C657 C50 1.429 . S
C676 C138 1.487 . S
