# Generated by pormake.
# Topology rtl, (3,6)-cn, num edge types: 1
# Building blocks:
#     Node 0, Type 0, BuildingBlock: BETDAH_clean_linker_0, # of connection points: 3
#     Node 1, Type 0, BuildingBlock: BETDAH_clean_linker_0, # of connection points: 3
#     Node 2, Type 0, BuildingBlock: BETDAH_clean_linker_0, # of connection points: 3
#     Node 3, Type 0, BuildingBlock: BETDAH_clean_linker_0, # of connection points: 3
#     Node 4, Type 1, BuildingBlock: KUMBOL_clean_sbu_1, # of connection points: 6
#     Node 5, Type 1, BuildingBlock: KUMBOL_clean_sbu_1, # of connection points: 6
#     Edge 6, Type (0, 1), BuildingBlock: UVAHIK_clean_linker_0, # of connection points: 2
#     Edge 7, Type (0, 1), BuildingBlock: UVAHIK_clean_linker_0, # of connection points: 2
#     Edge 8, Type (0, 1), BuildingBlock: UVAHIK_clean_linker_0, # of connection points: 2
#     Edge 9, Type (0, 1), BuildingBlock: UVAHIK_clean_linker_0, # of connection points: 2
#     Edge 10, Type (0, 1), BuildingBlock: UVAHIK_clean_linker_0, # of connection points: 2
#     Edge 11, Type (0, 1), BuildingBlock: UVAHIK_clean_linker_0, # of connection points: 2
#     Edge 12, Type (0, 1), BuildingBlock: UVAHIK_clean_linker_0, # of connection points: 2
#     Edge 13, Type (0, 1), BuildingBlock: UVAHIK_clean_linker_0, # of connection points: 2
#     Edge 14, Type (0, 1), BuildingBlock: UVAHIK_clean_linker_0, # of connection points: 2
#     Edge 15, Type (0, 1), BuildingBlock: UVAHIK_clean_linker_0, # of connection points: 2
#     Edge 16, Type (0, 1), BuildingBlock: UVAHIK_clean_linker_0, # of connection points: 2
#     Edge 17, Type (0, 1), BuildingBlock: UVAHIK_clean_linker_0, # of connection points: 2
# Relax obj value: 0.048
# Max RMSD: 0.206
# Mean RMSD: 0.150
data_MOF--net-rtl--node1-KUMBOL_clean_sbu_1--node2-BETDAH_clean_linker_0--edge1-UVAHIK_clean_linker_0
_symmetry_space_group_name_H-M    P1
_symmetry_Int_Tables_number       1
_symmetry_cell_setting            triclinic
loop_
_symmetry_equiv_pos_as_xyz
'x, y, z'
_cell_length_a     45.572718
_cell_length_b     45.472688
_cell_length_c     34.38426
_cell_angle_alpha  80.998153
_cell_angle_beta   100.74236
_cell_angle_gamma 90.810184
loop_
_atom_site_label
_atom_site_type_symbol
_atom_site_fract_x
_atom_site_fract_y
_atom_site_fract_z
_atom_type_partial_charge
H0 H 0.16983 0.87968 0.99848 0.0
H1 H 0.20217 0.80554 0.08918 0.0
H2 H 0.2183 0.80773 0.96952 0.0
C3 C 0.18248 0.85894 0.00754 0.0
C4 C 0.19377 0.84563 0.97895 0.0
C5 C 0.18538 0.84462 0.04725 0.0
C6 C 0.2001 0.81692 0.05861 0.0
C7 C 0.21268 0.80389 0.03114 0.0
C8 C 0.20946 0.81823 0.99118 0.0
N9 N 0.22704 0.77568 0.04453 0.0
C10 C 0.2488 0.76421 0.0274 0.0
H11 H 0.65152 0.65713 0.61551 0.0
H12 H 0.71022 0.72585 0.57562 0.0
H13 H 0.69079 0.71724 0.69457 0.0
C14 C 0.66592 0.67576 0.62124 0.0
C15 C 0.66963 0.68519 0.65873 0.0
C16 C 0.68054 0.69015 0.59107 0.0
C17 C 0.69903 0.7145 0.59873 0.0
C18 C 0.70278 0.72417 0.63632 0.0
C19 C 0.68801 0.70949 0.66586 0.0
N20 N 0.72049 0.74897 0.64559 0.0
C21 C 0.74233 0.76167 0.6252 0.0
H22 H 0.84638 0.13463 0.05617 0.0
H23 H 0.78101 0.19055 0.08564 0.0
H24 H 0.78172 0.18415 0.96242 0.0
C25 C 0.82741 0.14986 0.04654 0.0
C26 C 0.81614 0.15841 0.00549 0.0
C27 C 0.8148 0.16123 0.07553 0.0
C28 C 0.79095 0.18193 0.06336 0.0
C29 C 0.77899 0.19003 0.0223 0.0
C30 C 0.79147 0.17804 0.99387 0.0
N31 N 0.75351 0.20893 0.00813 0.0
C32 C 0.74426 0.23052 0.02787 0.0
H33 H 0.36681 0.35973 0.45661 0.0
H34 H 0.30205 0.29657 0.4928 0.0
H35 H 0.31588 0.31002 0.37114 0.0
C36 C 0.34978 0.34363 0.44908 0.0
C37 C 0.34347 0.33672 0.40998 0.0
C38 C 0.33475 0.32959 0.47901 0.0
C39 C 0.31375 0.30746 0.46996 0.0
C40 C 0.30718 0.30037 0.43087 0.0
C41 C 0.32181 0.31522 0.40129 0.0
N42 N 0.28551 0.27907 0.41938 0.0
C43 C 0.27128 0.25954 0.44493 0.0
C44 C 0.94683 0.08537 0.49165 0.0
C45 C 0.89815 0.06471 0.47058 0.0
C46 C 0.92739 0.06154 0.4934 0.0
C47 C 0.88922 0.09156 0.44503 0.0
C48 C 0.93774 0.11257 0.46664 0.0
C49 C 0.90893 0.11544 0.44312 0.0
N50 N 0.97503 0.08161 0.51342 0.0
C51 C 0.99486 0.10436 0.51292 0.0
C52 C 0.95812 0.13589 0.46546 0.0
C53 C 0.98675 0.1318 0.48884 0.0
Gd54 Gd 0.0266 0.97963 0.49666 0.0
Gd55 Gd 0.98665 0.03501 0.55285 0.0
N56 N 0.93682 0.03556 0.51793 0.0
C57 C 0.87849 0.04103 0.47482 0.0
C58 C 0.91669 0.0138 0.52518 0.0
C59 C 0.88761 0.01574 0.50292 0.0
H60 H 0.9224 0.99541 0.54914 0.0
H61 H 0.87204 0.99801 0.50814 0.0
H62 H 0.09583 0.99718 0.54026 0.0
H63 H 0.01695 0.10125 0.53105 0.0
H64 H 0.14036 0.97135 0.58299 0.0
H65 H 0.85586 0.04259 0.45784 0.0
H66 H 0.86696 0.09424 0.42701 0.0
H67 H 0.97906 0.92623 0.47032 0.0
H68 H 0.95199 0.1571 0.44657 0.0
H69 H 1.00259 0.14974 0.48825 0.0
H70 H 0.11378 0.86821 0.59859 0.0
H71 H 0.90166 0.13604 0.42339 0.0
H72 H 0.01735 0.84222 0.53123 0.0
H73 H 0.97542 0.87151 0.48649 0.0
N74 N 0.0217 0.92783 0.5074 0.0
C75 C 0.04539 0.91214 0.53104 0.0
C76 C 0.99706 0.91365 0.49073 0.0
C77 C 0.01888 0.86622 0.52463 0.0
C78 C 0.99513 0.88268 0.49943 0.0
C79 C 0.04455 0.88087 0.54046 0.0
H80 H 0.06901 0.8412 0.57279 0.0
N81 N 0.07069 0.95763 0.5365 0.0
C82 C 0.07078 0.92738 0.54549 0.0
C83 C 0.12092 0.92785 0.58373 0.0
C84 C 0.09577 0.91172 0.56986 0.0
C85 C 0.09555 0.97336 0.54863 0.0
C86 C 0.12088 0.95876 0.57279 0.0
O87 O 0.9914 0.04623 0.48745 0.0
O88 O 0.98273 1.00154 0.46639 0.0
O89 O 0.0455 1.00183 0.44636 0.0
O90 O 0.03533 0.95497 0.45083 0.0
O91 O 0.97616 0.98554 0.56197 0.0
O92 O 0.97811 0.9733 0.50026 0.0
O93 O 0.03521 0.96898 0.56419 0.0
O94 O 0.0274 0.01104 0.59182 0.0
O95 O 0.95997 0.03249 0.59949 0.0
O96 O 0.99081 0.06834 0.59242 0.0
O97 O 0.04927 0.02384 0.50392 0.0
O98 O 0.03507 0.04603 0.55468 0.0
C99 C 0.97961 0.03053 0.45974 0.0
C100 C 0.96916 0.96786 0.53479 0.0
C101 C 0.03189 0.98163 0.38615 0.0
C102 C 0.03647 0.9726 0.31923 0.0
C103 C 0.99032 0.99332 0.33074 0.0
C104 C 1.00261 0.99217 0.37127 0.0
C105 C 0.00696 0.9834 0.3049 0.0
C106 C 0.04883 0.97225 0.36009 0.0
C107 C 0.04439 0.97809 0.4292 0.0
C108 C 0.09484 0.88061 0.57973 0.0
C109 C 0.06931 0.86523 0.56508 0.0
H110 H 0.14054 0.91664 0.60262 0.0
C111 C 0.03895 0.98434 0.59402 0.0
C112 C 0.05284 0.04338 0.52914 0.0
C113 C 0.98269 0.05096 0.65774 0.0
C114 C 0.97365 0.05528 0.72444 0.0
C115 C 0.01964 0.03227 0.7166 0.0
C116 C 0.01035 0.03715 0.67508 0.0
C117 C 1.00143 0.0412 0.74121 0.0
C118 C 0.96443 0.06009 0.68246 0.0
C119 C 0.97241 0.05531 0.61404 0.0
H120 H 0.9676 1.00133 0.31947 0.0
H121 H 0.98917 0.99896 0.39112 0.0
H122 H 0.99634 0.98352 0.27398 0.0
H123 H 0.07155 0.96442 0.37198 0.0
H124 H 0.04105 0.02159 0.72974 0.0
H125 H 0.02473 0.0302 0.65652 0.0
H126 H 0.0093 0.03752 0.77334 0.0
H127 H 0.94291 0.07053 0.66904 0.0
C128 C 0.60706 0.54378 0.06045 0.0
C129 C 0.60382 0.59226 0.01842 0.0
C130 C 0.59018 0.56847 0.03955 0.0
C131 C 0.63462 0.5909 0.01862 0.0
C132 C 0.63798 0.54237 0.06074 0.0
C133 C 0.65164 0.56603 0.0397 0.0
N134 N 0.59319 0.52105 0.08014 0.0
C135 C 0.60903 0.49678 0.10188 0.0
C136 C 0.65425 0.51715 0.08211 0.0
C137 C 0.63972 0.49433 0.10291 0.0
Gd138 Gd 0.48109 0.48509 0.00216 0.0
Gd139 Gd 0.54165 0.52708 0.07565 0.0
N140 N 0.56017 0.56862 0.03855 0.0
C141 C 0.58601 0.61655 0.99733 0.0
C142 C 0.54288 0.59267 0.01921 0.0
C143 C 0.55546 0.61683 0.99797 0.0
H144 H 0.51941 0.59335 0.01998 0.0
H145 H 0.54159 0.63568 0.98217 0.0
H146 H 0.51803 0.41857 0.03608 0.0
H147 H 0.59807 0.47954 0.119 0.0
H148 H 0.5124 0.37251 0.08148 0.0
H149 H 0.59564 0.63523 0.98065 0.0
H150 H 0.64547 0.60892 0.00244 0.0
H151 H 0.41604 0.52161 0.98536 0.0
H152 H 0.67805 0.5152 0.083 0.0
H153 H 0.65218 0.47494 0.11995 0.0
H154 H 0.41438 0.38128 0.11053 0.0
H155 H 0.67537 0.5653 0.0395 0.0
H156 H 0.35599 0.46859 0.04804 0.0
H157 H 0.36643 0.51475 0.00452 0.0
N158 N 0.43341 0.4802 0.01821 0.0
C159 C 0.42797 0.45431 0.04126 0.0
C160 C 0.4117 0.5016 0.00461 0.0
C161 C 0.37774 0.47149 0.03964 0.0
C162 C 0.38357 0.49764 0.0152 0.0
C163 C 0.40003 0.44942 0.053 0.0
H164 H 0.3742 0.41902 0.08787 0.0
N165 N 0.47771 0.43863 0.04276 0.0
C166 C 0.45088 0.43316 0.0544 0.0
C167 C 0.46892 0.38485 0.09013 0.0
C168 C 0.44602 0.40636 0.07907 0.0
C169 C 0.49886 0.41647 0.05028 0.0
C170 C 0.4952 0.38969 0.07495 0.0
O171 O 0.54973 0.52781 0.01245 0.0
O172 O 0.50421 0.52345 0.97072 0.0
O173 O 0.48225 0.45256 0.96257 0.0
O174 O 0.44873 0.48743 0.9464 0.0
O175 O 0.4956 0.54841 0.05407 0.0
O176 O 0.47221 0.53467 0.99334 0.0
O177 O 0.4719 0.49396 0.06206 0.0
O178 O 0.51791 0.48735 0.10229 0.0
O179 O 0.52887 0.55807 0.11172 0.0
O180 O 0.56918 0.53136 0.13332 0.0
O181 O 0.53002 0.47096 0.01454 0.0
O182 O 0.54539 0.47743 0.08007 0.0
C183 C 0.53231 0.53153 0.97691 0.0
C184 C 0.47554 0.55269 0.02047 0.0
C185 C 0.46644 0.46964 0.894 0.0
C186 C 0.45731 0.45634 0.82666 0.0
C187 C 0.49509 0.49268 0.8449 0.0
C188 C 0.48877 0.48914 0.8835 0.0
C189 C 0.47953 0.47641 0.81663 0.0
C190 C 0.45068 0.45331 0.86553 0.0
C191 C 0.46059 0.4651 0.93514 0.0
C192 C 0.41836 0.40161 0.09129 0.0
C193 C 0.39542 0.42304 0.07823 0.0
H194 H 0.46607 0.36399 0.10902 0.0
C195 C 0.48876 0.48544 0.09726 0.0
C196 C 0.54883 0.46531 0.04898 0.0
C197 C 0.5443 0.54568 0.18174 0.0
C198 C 0.55338 0.55726 0.24995 0.0
C199 C 0.51554 0.52141 0.22991 0.0
C200 C 0.52205 0.52579 0.19135 0.0
C201 C 0.53104 0.53704 0.25906 0.0
C202 C 0.55995 0.56131 0.21104 0.0
C203 C 0.55126 0.55068 0.14121 0.0
H204 H 0.51227 0.50791 0.83698 0.0
H205 H 0.50155 0.5013 0.90529 0.0
H206 H 0.48482 0.47961 0.78684 0.0
H207 H 0.4339 0.43773 0.87399 0.0
H208 H 0.4984 0.50591 0.23719 0.0
H209 H 0.50967 0.51383 0.169 0.0
H210 H 0.52573 0.53307 0.28884 0.0
H211 H 0.57684 0.57702 0.20325 0.0
C212 C 0.25254 0.20868 0.45086 0.0
C213 C 0.25426 0.23642 0.46385 0.0
C214 C 0.23342 0.18697 0.46489 0.0
C215 C 0.16479 0.17911 0.50824 0.0
H216 H 0.18377 0.09495 0.51976 0.0
C217 C 0.08261 0.08658 0.55238 0.0
C218 C 0.07833 0.0641 0.52806 0.0
C219 C 0.10573 0.10698 0.54975 0.0
C220 C 0.17813 0.11837 0.51656 0.0
H221 H 0.23819 0.26353 0.50206 0.0
H222 H 0.20501 0.22524 0.52767 0.0
H223 H 0.22191 0.13161 0.50768 0.0
H224 H 0.09581 0.04515 0.48264 0.0
H225 H 0.13615 0.08045 0.47852 0.0
H226 H 0.12091 0.16568 0.51702 0.0
C227 C 0.2181 0.22026 0.5062 0.0
C228 C 0.19996 0.13943 0.50955 0.0
C229 C 0.23724 0.24208 0.49192 0.0
C230 C 0.09828 0.06212 0.50184 0.0
C231 C 0.12157 0.08229 0.49958 0.0
C232 C 0.14302 0.158 0.51561 0.0
C233 C 0.2156 0.19256 0.49236 0.0
C234 C 0.19342 0.17012 0.50441 0.0
C235 C 0.12539 0.10513 0.5232 0.0
C236 C 0.14927 0.12742 0.51904 0.0
H237 H 0.26528 0.2041 0.42876 0.0
H238 H 0.23178 0.16624 0.4529 0.0
H239 H 0.15875 0.20249 0.50394 0.0
H240 H 0.06791 0.08872 0.57319 0.0
H241 H 0.10829 0.12418 0.56862 0.0
C242 C 0.30138 0.74854 0.04296 0.0
C243 C 0.27342 0.74898 0.01776 0.0
C244 C 0.3243 0.73 0.03854 0.0
C245 C 0.35114 0.68478 0.9718 0.0
H246 H 0.38801 0.63681 0.07193 0.0
C247 C 0.43112 0.58379 0.98113 0.0
C248 C 0.45435 0.57826 0.01475 0.0
C249 C 0.40969 0.60625 0.97828 0.0
C250 C 0.37841 0.65032 0.04371 0.0
H251 H 0.24729 0.73157 0.9674 0.0
H252 H 0.28772 0.6991 0.95919 0.0
H253 H 0.35016 0.67379 0.07191 0.0
H254 H 0.47441 0.5938 0.0702 0.0
H255 H 0.43805 0.6332 0.06449 0.0
H256 H 0.37976 0.66137 0.94366 0.0
C257 C 0.29199 0.71319 0.98222 0.0
C258 C 0.35659 0.6715 0.04374 0.0
C259 C 0.26892 0.73168 0.98686 0.0
C260 C 0.45658 0.59687 0.04419 0.0
C261 C 0.43548 0.61944 0.0411 0.0
C262 C 0.37331 0.66368 0.9718 0.0
C263 C 0.31965 0.71154 0.0088 0.0
C264 C 0.34281 0.68911 0.00789 0.0
C265 C 0.41127 0.62396 0.0087 0.0
C266 C 0.38739 0.6463 0.00787 0.0
H267 H 0.30515 0.76165 0.06714 0.0
H268 H 0.34548 0.7295 0.05914 0.0
H269 H 0.3409 0.69809 0.94372 0.0
H270 H 0.42904 0.57039 0.9574 0.0
H271 H 0.3914 0.60906 0.95284 0.0
C272 C 0.76628 0.78896 0.57133 0.0
C273 C 0.76714 0.77763 0.61183 0.0
C274 C 0.78952 0.80681 0.5598 0.0
C275 C 0.86757 0.82963 0.59729 0.0
H276 H 0.84623 0.90021 0.51809 0.0
C277 C 0.94565 0.93021 0.58036 0.0
C278 C 0.94773 0.94364 0.54135 0.0
C279 C 0.92474 0.90798 0.58662 0.0
C280 C 0.85262 0.8804 0.53991 0.0
H281 H 0.79234 0.7755 0.67205 0.0
H282 H 0.83258 0.80684 0.65239 0.0
H283 H 0.80783 0.86441 0.53255 0.0
H284 H 0.92918 0.94479 0.4783 0.0
H285 H 0.89268 0.90593 0.48922 0.0
H286 H 0.91221 0.84616 0.60542 0.0
C287 C 0.81462 0.80166 0.62917 0.0
C288 C 0.83061 0.85979 0.54813 0.0
C289 C 0.79152 0.78382 0.64055 0.0
C290 C 0.92841 0.9345 0.50871 0.0
C291 C 0.90731 0.91246 0.51496 0.0
C292 C 0.8895 0.85034 0.58928 0.0
C293 C 0.81385 0.81368 0.58869 0.0
C294 C 0.83771 0.83431 0.57734 0.0
C295 C 0.90519 0.89898 0.554 0.0
C296 C 0.88222 0.87614 0.56085 0.0
H297 H 0.74747 0.78448 0.54878 0.0
H298 H 0.78832 0.81539 0.52833 0.0
H299 H 0.87404 0.81 0.61938 0.0
H300 H 0.9602 0.93691 0.60607 0.0
H301 H 0.92342 0.89829 0.61708 0.0
C302 C 0.72097 0.25414 0.0752 0.0
C303 C 0.73124 0.25595 0.03898 0.0
C304 C 0.70523 0.27822 0.08294 0.0
C305 C 0.68609 0.35883 0.04565 0.0
H306 H 0.61518 0.34045 0.09147 0.0
C307 C 0.58576 0.4397 0.02001 0.0
C308 C 0.573 0.44309 0.0532 0.0
C309 C 0.60804 0.41816 0.02342 0.0
C310 C 0.63513 0.34594 0.07914 0.0
H311 H 0.73378 0.28367 0.98264 0.0
H312 H 0.70603 0.32533 0.99544 0.0
H313 H 0.64948 0.30034 0.08898 0.0
H314 H 0.57316 0.42651 0.11584 0.0
H315 H 0.61191 0.38836 0.12167 0.0
H316 H 0.67086 0.40428 0.03416 0.0
C317 C 0.71052 0.306 0.01855 0.0
C318 C 0.6549 0.32298 0.07784 0.0
C319 C 0.7263 0.28208 0.01103 0.0
C320 C 0.58287 0.42451 0.0899 0.0
C321 C 0.60486 0.40262 0.09317 0.0
C322 C 0.66616 0.38168 0.04653 0.0
C323 C 0.69941 0.30432 0.05437 0.0
C324 C 0.68033 0.32904 0.06031 0.0
C325 C 0.61765 0.39923 0.05993 0.0
C326 C 0.64021 0.37541 0.0626 0.0
H327 H 0.72448 0.23396 0.09701 0.0
H328 H 0.69731 0.27624 0.11102 0.0
H329 H 0.70578 0.36449 0.0328 0.0
H330 H 0.57853 0.45376 0.99138 0.0
H331 H 0.61726 0.41583 0.9972 0.0
C332 C 0.15126 0.8419 0.09675 0.0
C333 C 0.17177 0.85801 0.07636 0.0
C334 C 0.13766 0.85477 0.12335 0.0
C335 C 0.12368 0.92835 0.15278 0.0
H336 H 0.10106 0.87795 0.24382 0.0
C337 C 0.04999 0.97289 0.2512 0.0
C338 C 0.05383 0.96072 0.29209 0.0
C339 C 0.06529 0.96087 0.22551 0.0
C340 C 0.1076 0.89257 0.21899 0.0
H341 H 0.19471 0.89984 0.06811 0.0
H342 H 0.17223 0.92196 0.11605 0.0
H343 H 0.12714 0.85632 0.19972 0.0
H344 H 0.07728 0.92615 0.3377 0.0
H345 H 0.10531 0.90675 0.29385 0.0
H346 H 0.10564 0.96489 0.17339 0.0
C347 C 0.16567 0.89978 0.11063 0.0
C348 C 0.12213 0.87997 0.19306 0.0
C349 C 0.17878 0.88708 0.08337 0.0
C350 C 0.07396 0.93659 0.30665 0.0
C351 C 0.0897 0.92497 0.28115 0.0
C352 C 0.10967 0.94106 0.17918 0.0
C353 C 0.14473 0.88388 0.13085 0.0
C354 C 0.13013 0.89759 0.15931 0.0
C355 C 0.08534 0.93667 0.24007 0.0
C356 C 0.10117 0.92333 0.21251 0.0
H357 H 0.14524 0.81954 0.0914 0.0
H358 H 0.12119 0.84197 0.13745 0.0
H359 H 0.12903 0.94272 0.12692 0.0
H360 H 0.03512 0.99176 0.23883 0.0
H361 H 0.0609 0.97033 0.19406 0.0
C362 C 0.67063 0.66058 0.7295 0.0
C363 C 0.65448 0.66952 0.69052 0.0
C364 C 0.6566 0.64518 0.75926 0.0
C365 C 0.58399 0.63232 0.78925 0.0
H366 H 0.62195 0.56066 0.85408 0.0
C367 C 0.52684 0.55912 0.90651 0.0
C368 C 0.54523 0.54618 0.94243 0.0
C369 C 0.53936 0.57348 0.87452 0.0
C370 C 0.61119 0.58086 0.83671 0.0
H371 H 0.61089 0.66988 0.65229 0.0
H372 H 0.5862 0.64324 0.70461 0.0
H373 H 0.6455 0.58767 0.8014 0.0
H374 H 0.59125 0.5377 0.9725 0.0
H375 H 0.61295 0.56402 0.91807 0.0
H376 H 0.55011 0.62613 0.82517 0.0
C377 C 0.60976 0.64804 0.71198 0.0
C378 C 0.62468 0.59624 0.80639 0.0
C379 C 0.6239 0.66308 0.68203 0.0
C380 C 0.57637 0.54781 0.94554 0.0
C381 C 0.58887 0.56254 0.91393 0.0
C382 C 0.57066 0.61714 0.81996 0.0
C383 C 0.62603 0.63874 0.75082 0.0
C384 C 0.61129 0.62219 0.78246 0.0
C385 C 0.57058 0.57553 0.87789 0.0
C386 C 0.58416 0.59126 0.84426 0.0
H387 H 0.69426 0.6651 0.73679 0.0
H388 H 0.66963 0.63848 0.78903 0.0
H389 H 0.5733 0.65242 0.77144 0.0
H390 H 0.50274 0.55831 0.90314 0.0
H391 H 0.52453 0.5828 0.84708 0.0
C392 C 0.82478 0.1196 0.13267 0.0
C393 C 0.82629 0.15008 0.11833 0.0
C394 C 0.83892 0.10786 0.17146 0.0
C395 C 0.87686 0.12785 0.26968 0.0
H396 H 0.915 0.05058 0.27979 0.0
C397 C 0.9656 0.07515 0.40682 0.0
C398 C 0.96108 0.04525 0.42196 0.0
C399 C 0.94777 0.089 0.37122 0.0
C400 C 0.90426 0.07205 0.27751 0.0
H401 H 0.8429 0.19247 0.13321 0.0
H402 H 0.86859 0.1719 0.201 0.0
H403 H 0.88616 0.07301 0.2155 0.0
H404 H 0.93438 0.00638 0.41191 0.0
H405 H 0.90387 0.03027 0.34911 0.0
H406 H 0.89608 0.12693 0.33189 0.0
C407 C 0.85593 0.15706 0.18267 0.0
C408 C 0.88754 0.08491 0.24068 0.0
C409 C 0.8413 0.1689 0.14388 0.0
C410 C 0.93853 0.02939 0.40076 0.0
C411 C 0.92104 0.04306 0.36491 0.0
C412 C 0.89396 0.11507 0.30654 0.0
C413 C 0.85549 0.12623 0.19663 0.0
C414 C 0.87337 0.11288 0.23625 0.0
C415 C 0.92551 0.07298 0.34973 0.0
C416 C 0.90764 0.08695 0.31082 0.0
H417 H 0.81315 0.10473 0.11344 0.0
H418 H 0.83729 0.0842 0.18142 0.0
H419 H 0.86608 0.14925 0.26758 0.0
H420 H 0.98304 0.08778 0.4224 0.0
H421 H 0.95184 0.11201 0.36001 0.0
C422 C 0.34214 0.36935 0.52241 0.0
C423 C 0.34094 0.3389 0.51924 0.0
C424 C 0.35048 0.37863 0.55967 0.0
C425 C 0.39494 0.35442 0.65946 0.0
H426 H 0.35987 0.42489 0.68414 0.0
C427 C 0.41044 0.43481 0.79124 0.0
C428 C 0.44156 0.43844 0.79662 0.0
C429 C 0.39562 0.41929 0.76139 0.0
C430 C 0.36969 0.40494 0.67807 0.0
H431 H 0.3466 0.29425 0.55279 0.0
H432 H 0.36129 0.31052 0.61835 0.0
H433 H 0.33688 0.40384 0.62492 0.0
H434 H 0.48162 0.42751 0.77599 0.0
H435 H 0.45583 0.40088 0.72376 0.0
H436 H 0.428 0.35579 0.71232 0.0
C437 C 0.3559 0.32718 0.5918 0.0
C438 C 0.35667 0.39304 0.6439 0.0
C439 C 0.34729 0.31786 0.55438 0.0
C440 C 0.45759 0.42547 0.77228 0.0
C441 C 0.44283 0.40986 0.74264 0.0
C442 C 0.40803 0.36639 0.69358 0.0
C443 C 0.35794 0.35771 0.59478 0.0
C444 C 0.3695 0.36802 0.63371 0.0
C445 C 0.41163 0.40685 0.7365 0.0
C446 C 0.39592 0.39217 0.70284 0.0
H447 H 0.33708 0.38608 0.49587 0.0
H448 H 0.35211 0.40229 0.56075 0.0
H449 H 0.4055 0.33525 0.65237 0.0
H450 H 0.39744 0.44464 0.8094 0.0
H451 H 0.3716 0.41717 0.75765 0.0
C452 C 0.67624 0.64911 0.54967 0.0
C453 C 0.67546 0.67973 0.55154 0.0
C454 C 0.66745 0.63868 0.51323 0.0
C455 C 0.61813 0.65932 0.41585 0.0
H456 H 0.65386 0.58947 0.39053 0.0
C457 C 0.60061 0.57822 0.28522 0.0
C458 C 0.56958 0.57419 0.28089 0.0
C459 C 0.61583 0.59362 0.31491 0.0
C460 C 0.64379 0.60921 0.39682 0.0
H461 H 0.66617 0.72356 0.51641 0.0
H462 H 0.65095 0.70533 0.45236 0.0
H463 H 0.67839 0.61229 0.44749 0.0
H464 H 0.53014 0.5839 0.30376 0.0
H465 H 0.55668 0.61026 0.35587 0.0
H466 H 0.58341 0.65611 0.36539 0.0
C467 C 0.6581 0.68938 0.47927 0.0
C468 C 0.65772 0.62214 0.42971 0.0
C469 C 0.66709 0.69985 0.51583 0.0
C470 C 0.55409 0.58628 0.30658 0.0
C471 C 0.56927 0.60175 0.33613 0.0
C472 C 0.60416 0.64636 0.38303 0.0
C473 C 0.65758 0.65862 0.47771 0.0
C474 C 0.64478 0.64702 0.44006 0.0
C475 C 0.60035 0.60548 0.34083 0.0
C476 C 0.61653 0.62081 0.37355 0.0
H477 H 0.68285 0.6331 0.57668 0.0
H478 H 0.66711 0.61486 0.51326 0.0
H479 H 0.6074 0.67831 0.42315 0.0
H480 H 0.61325 0.569 0.26612 0.0
H481 H 0.63974 0.59628 0.31752 0.0
C482 C 0.84066 0.11757 0.98055 0.0
C483 C 0.83023 0.14718 0.97479 0.0
C484 C 0.85455 0.10738 0.95206 0.0
C485 C 0.89344 0.13466 0.86816 0.0
H486 H 0.88026 0.05465 0.84342 0.0
C487 C 0.94074 0.09341 0.74135 0.0
C488 C 0.95462 0.06513 0.75082 0.0
C489 C 0.92405 0.10321 0.76724 0.0
C490 C 0.8843 0.07699 0.85022 0.0
H491 H 0.8263 0.18926 0.93438 0.0
H492 H 0.84963 0.17128 0.88428 0.0
H493 H 0.85393 0.07216 0.89129 0.0
H494 H 0.96108 0.02459 0.79421 0.0
H495 H 0.9321 0.04176 0.83951 0.0
H496 H 0.92375 0.13948 0.82701 0.0
C497 C 0.84752 0.15602 0.9111 0.0
C498 C 0.86928 0.08702 0.87772 0.0
C499 C 0.83375 0.16623 0.93963 0.0
C500 C 0.95091 0.04662 0.7863 0.0
C501 C 0.93407 0.05634 0.81204 0.0
C502 C 0.90833 0.12469 0.84053 0.0
C503 C 0.85828 0.12651 0.91705 0.0
C504 C 0.87376 0.11594 0.88718 0.0
C505 C 0.9207 0.08486 0.80301 0.0
C506 C 0.90404 0.0957 0.83138 0.0
H507 H 0.83801 0.10218 0.00703 0.0
H508 H 0.86283 0.0846 0.95785 0.0
H509 H 0.89786 0.15688 0.87521 0.0
H510 H 0.94335 0.10825 0.71437 0.0
H511 H 0.91377 0.12519 0.75927 0.0
C512 C 0.36652 0.33669 0.34867 0.0
C513 C 0.35926 0.35204 0.37825 0.0
C514 C 0.38089 0.35116 0.31863 0.0
C515 C 0.42979 0.41315 0.29561 0.0
H516 H 0.3973 0.40822 0.18421 0.0
C517 C 0.49155 0.45265 0.16368 0.0
C518 C 0.47472 0.47125 0.13084 0.0
C519 C 0.47792 0.43837 0.1946 0.0
C520 C 0.40657 0.40977 0.21521 0.0
H521 H 0.36143 0.395 0.39875 0.0
H522 H 0.38748 0.41976 0.34717 0.0
H523 H 0.37265 0.38229 0.23704 0.0
H524 H 0.43079 0.4906 0.10564 0.0
H525 H 0.40674 0.46461 0.15878 0.0
H526 H 0.46392 0.44036 0.27373 0.0
C527 C 0.38192 0.3965 0.34742 0.0
C528 C 0.39261 0.39482 0.24538 0.0
C529 C 0.36712 0.3822 0.37711 0.0
C530 C 0.44416 0.47577 0.13 0.0
C531 C 0.43043 0.46103 0.16046 0.0
C532 C 0.44406 0.42767 0.26547 0.0
C533 C 0.38879 0.38117 0.31777 0.0
C534 C 0.40397 0.39653 0.28585 0.0
C535 C 0.44716 0.44212 0.19297 0.0
C536 C 0.43245 0.42627 0.225 0.0
H537 H 0.36144 0.31334 0.34891 0.0
H538 H 0.38623 0.33874 0.29635 0.0
H539 H 0.4391 0.41467 0.32659 0.0
H540 H 0.51517 0.44879 0.16524 0.0
H541 H 0.49129 0.42386 0.21936 0.0
C542 C 0.18666 0.89017 0.9245 0.0
C543 C 0.18622 0.85911 0.93596 0.0
C544 C 0.17457 0.90326 0.88531 0.0
C545 C 0.11737 0.88828 0.80079 0.0
H546 H 0.14826 0.95841 0.74298 0.0
C547 C 0.05982 0.93906 0.64147 0.0
C548 C 0.05739 0.97024 0.6323 0.0
C549 C 0.07762 0.92538 0.67704 0.0
C550 C 0.13921 0.939 0.75894 0.0
H551 H 0.17422 0.81735 0.91459 0.0
H552 H 0.15369 0.84014 0.84603 0.0
H553 H 0.17724 0.93426 0.80685 0.0
H554 H 0.07246 0.01157 0.65274 0.0
H555 H 0.10265 0.98768 0.71586 0.0
H556 H 0.07916 0.8932 0.75354 0.0
C557 C 0.16294 0.85441 0.86756 0.0
C558 C 0.15586 0.92511 0.79545 0.0
C559 C 0.17508 0.84132 0.90673 0.0
C560 C 0.07333 0.98749 0.65941 0.0
C561 C 0.09104 0.97379 0.69524 0.0
C562 C 0.10073 0.90217 0.76444 0.0
C563 C 0.16173 0.88558 0.85671 0.0
C564 C 0.14509 0.89961 0.81684 0.0
C565 C 0.09329 0.94254 0.70455 0.0
C566 C 0.11138 0.92773 0.74306 0.0
H567 H 0.19539 0.90445 0.94625 0.0
H568 H 0.17393 0.92732 0.87803 0.0
H569 H 0.10807 0.86909 0.81688 0.0
H570 H 0.04779 0.92511 0.62124 0.0
H571 H 0.0792 0.9013 0.68286 0.0
loop_
_geom_bond_atom_site_label_1
_geom_bond_atom_site_label_2
_geom_bond_distance
_geom_bond_site_symmetry_2
_ccdc_geom_bond_type
H0 C3 0.929 . S
H1 C6 0.929 . S
H2 C8 0.930 . S
C3 H0 0.929 . S
C3 C4 1.398 1_554 S
C3 C5 1.396 . S
C4 C3 1.398 1_556 S
C4 C8 1.407 . S
C5 C3 1.396 . S
C5 C6 1.394 . S
C6 H1 0.929 . S
C6 C5 1.394 . S
C6 C7 1.382 . S
C7 C6 1.382 . S
C7 C8 1.392 1_554 S
C7 N9 1.420 . S
C8 H2 0.930 . S
C8 C4 1.407 . S
C8 C7 1.392 1_556 S
N9 C7 1.420 . S
N9 C10 1.244 . S
C10 N9 1.244 . S
H11 C14 0.929 . S
H12 C17 0.929 . S
H13 C19 0.930 . S
C14 H11 0.929 . S
C14 C15 1.398 . S
C14 C16 1.396 . S
C15 C14 1.398 . S
C15 C19 1.407 . S
C16 C14 1.396 . S
C16 C17 1.394 . S
C17 H12 0.929 . S
C17 C16 1.394 . S
C17 C18 1.382 . S
C18 C17 1.382 . S
C18 C19 1.392 . S
C18 N20 1.420 . S
C19 H13 0.930 . S
C19 C15 1.407 . S
C19 C18 1.392 . S
N20 C18 1.420 . S
N20 C21 1.244 . S
C21 N20 1.244 . S
H22 C25 0.929 . S
H23 C28 0.929 . S
H24 C30 0.930 . S
C25 H22 0.929 . S
C25 C26 1.398 1_554 S
C25 C27 1.396 . S
C26 C25 1.398 1_556 S
C26 C30 1.407 . S
C27 C25 1.396 . S
C27 C28 1.394 . S
C28 H23 0.929 . S
C28 C27 1.394 . S
C28 C29 1.382 . S
C29 C28 1.382 . S
C29 C30 1.392 1_554 S
C29 N31 1.420 . S
C30 H24 0.930 . S
C30 C26 1.407 . S
C30 C29 1.392 1_556 S
N31 C29 1.420 . S
N31 C32 1.244 . S
C32 N31 1.244 . S
H33 C36 0.929 . S
H34 C39 0.929 . S
H35 C41 0.930 . S
C36 H33 0.929 . S
C36 C37 1.398 . S
C36 C38 1.396 . S
C37 C36 1.398 . S
C37 C41 1.407 . S
C38 C36 1.396 . S
C38 C39 1.394 . S
C39 H34 0.929 . S
C39 C38 1.394 . S
C39 C40 1.382 . S
C40 C39 1.382 . S
C40 C41 1.392 . S
C40 N42 1.420 . S
C41 H35 0.930 . S
C41 C37 1.407 . S
C41 C40 1.392 . S
N42 C40 1.420 . S
N42 C43 1.244 . S
C43 N42 1.244 . S
C44 C46 1.422 . S
C44 C48 1.415 . S
C44 N50 1.369 . S
C45 C46 1.421 . S
C45 C47 1.417 . S
C45 C57 1.422 . S
C46 C44 1.422 . S
C46 C45 1.421 . S
C46 N56 1.359 . S
C47 C45 1.417 . S
C47 C49 1.329 . S
C47 H66 0.930 . S
C48 C44 1.415 . S
C48 C49 1.437 . S
C48 C52 1.413 . S
C49 C47 1.329 . S
C49 C48 1.437 . S
C49 H71 0.929 . S
N50 C44 1.369 . S
N50 C51 1.338 1_655 S
N50 Gd55 2.622 . S
C51 N50 1.338 1_455 S
C51 C53 1.378 . S
C51 H63 0.929 . S
C52 C48 1.413 . S
C52 C53 1.348 1_655 S
C52 H68 0.931 . S
C53 C51 1.378 . S
C53 C52 1.348 1_455 S
C53 H69 0.930 . S
Gd54 N74 2.622 . S
Gd54 N81 2.570 . S
Gd54 O88 2.353 1_465 S
Gd54 O89 2.468 . S
Gd54 O90 2.427 . S
Gd54 O92 2.388 1_455 S
Gd54 O93 2.386 . S
Gd54 O97 2.307 1_565 S
Gd54 C107 2.805 . S
Gd55 N50 2.622 . S
Gd55 N56 2.570 . S
Gd55 O87 2.386 . S
Gd55 O91 2.307 1_545 S
Gd55 O94 2.353 1_655 S
Gd55 O95 2.468 . S
Gd55 O96 2.427 . S
Gd55 O98 2.388 1_655 S
Gd55 C119 2.805 . S
N56 C46 1.359 . S
N56 Gd55 2.570 . S
N56 C58 1.343 . S
C57 C45 1.422 . S
C57 C59 1.321 . S
C57 H65 0.931 . S
C58 N56 1.343 . S
C58 C59 1.390 . S
C58 H60 0.931 . S
C59 C57 1.321 . S
C59 C58 1.390 . S
C59 H61 0.930 . S
H60 C58 0.931 . S
H61 C59 0.930 . S
H62 C85 0.931 . S
H63 C51 0.929 . S
H64 C86 0.930 . S
H65 C57 0.931 . S
H66 C47 0.930 . S
H67 C76 0.929 1_655 S
H68 C52 0.931 . S
H69 C53 0.930 . S
H70 C108 0.930 . S
H71 C49 0.929 . S
H72 C77 0.931 . S
H73 C78 0.930 1_655 S
N74 Gd54 2.622 . S
N74 C75 1.369 . S
N74 C76 1.338 . S
C75 N74 1.369 . S
C75 C79 1.415 . S
C75 C82 1.422 . S
C76 H67 0.929 1_455 S
C76 N74 1.338 . S
C76 C78 1.378 . S
C77 H72 0.931 . S
C77 C78 1.348 . S
C77 C79 1.413 . S
C78 H73 0.930 1_455 S
C78 C76 1.378 . S
C78 C77 1.348 . S
C79 C75 1.415 . S
C79 C77 1.413 . S
C79 C109 1.437 . S
H80 C109 0.929 . S
N81 Gd54 2.570 . S
N81 C82 1.359 . S
N81 C85 1.343 . S
C82 C75 1.422 . S
C82 N81 1.359 . S
C82 C84 1.421 . S
C83 C84 1.422 . S
C83 C86 1.321 . S
C83 H110 0.931 . S
C84 C82 1.421 . S
C84 C83 1.422 . S
C84 C108 1.417 . S
C85 H62 0.931 . S
C85 N81 1.343 . S
C85 C86 1.390 . S
C86 H64 0.930 . S
C86 C83 1.321 . S
C86 C85 1.390 . S
O87 Gd55 2.386 . S
O87 C99 1.265 . S
O88 Gd54 2.353 1_645 S
O88 C99 1.242 . S
O89 Gd54 2.468 . S
O89 C107 1.263 . S
O90 Gd54 2.427 . S
O90 C107 1.252 . S
O91 Gd55 2.307 1_565 S
O91 C100 1.261 . S
O92 Gd54 2.388 1_655 S
O92 C100 1.252 . S
O93 Gd54 2.386 . S
O93 C111 1.265 . S
O94 Gd55 2.353 1_455 S
O94 C111 1.242 1_545 S
O95 Gd55 2.468 . S
O95 C119 1.263 . S
O96 Gd55 2.427 . S
O96 C119 1.252 . S
O97 Gd54 2.307 1_545 S
O97 C112 1.261 . S
O98 Gd55 2.388 1_455 S
O98 C112 1.252 . S
C99 O87 1.265 . S
C99 O88 1.242 . S
C100 O91 1.261 . S
C100 O92 1.252 . S
C101 C104 1.394 . S
C101 C106 1.370 . S
C101 C107 1.500 . S
C102 C105 1.383 . S
C102 C106 1.395 . S
C103 C104 1.396 . S
C103 C105 1.365 . S
C103 H120 0.929 . S
C104 C101 1.394 . S
C104 C103 1.396 . S
C104 H121 0.930 . S
C105 C102 1.383 . S
C105 C103 1.365 . S
C105 H122 0.931 . S
C106 C101 1.370 . S
C106 C102 1.395 . S
C106 H123 0.930 . S
C107 Gd54 2.805 . S
C107 O89 1.263 . S
C107 O90 1.252 . S
C107 C101 1.500 . S
C108 H70 0.930 . S
C108 C84 1.417 . S
C108 C109 1.329 . S
C109 C79 1.437 . S
C109 H80 0.929 . S
C109 C108 1.329 . S
H110 C83 0.931 . S
C111 O93 1.265 . S
C111 O94 1.242 1_565 S
C112 O97 1.261 . S
C112 O98 1.252 . S
C113 C116 1.394 . S
C113 C118 1.370 . S
C113 C119 1.500 . S
C114 C117 1.383 . S
C114 C118 1.395 . S
C115 C116 1.396 . S
C115 C117 1.365 . S
C115 H124 0.929 . S
C116 C113 1.394 . S
C116 C115 1.396 . S
C116 H125 0.930 . S
C117 C114 1.383 . S
C117 C115 1.365 . S
C117 H126 0.931 . S
C118 C113 1.370 . S
C118 C114 1.395 . S
C118 H127 0.930 . S
C119 Gd55 2.805 . S
C119 O95 1.263 . S
C119 O96 1.252 . S
C119 C113 1.500 . S
H120 C103 0.929 . S
H121 C104 0.930 . S
H122 C105 0.931 . S
H123 C106 0.930 . S
H124 C115 0.929 . S
H125 C116 0.930 . S
H126 C117 0.931 . S
H127 C118 0.930 . S
C128 C130 1.422 . S
C128 C132 1.415 . S
C128 N134 1.369 . S
C129 C130 1.421 . S
C129 C131 1.417 . S
C129 C141 1.422 . S
C130 C128 1.422 . S
C130 C129 1.421 . S
C130 N140 1.359 . S
C131 C129 1.417 . S
C131 C133 1.329 . S
C131 H150 0.930 . S
C132 C128 1.415 . S
C132 C133 1.437 . S
C132 C136 1.413 . S
C133 C131 1.329 . S
C133 C132 1.437 . S
C133 H155 0.929 . S
N134 C128 1.369 . S
N134 C135 1.338 . S
N134 Gd139 2.622 . S
C135 N134 1.338 . S
C135 C137 1.378 . S
C135 H147 0.929 . S
C136 C132 1.413 . S
C136 C137 1.348 . S
C136 H152 0.931 . S
C137 C135 1.378 . S
C137 C136 1.348 . S
C137 H153 0.930 . S
Gd138 N158 2.622 1_556 S
Gd138 N165 2.570 1_556 S
Gd138 O172 2.353 . S
Gd138 O173 2.468 . S
Gd138 O174 2.427 . S
Gd138 O176 2.388 1_556 S
Gd138 O177 2.386 1_556 S
Gd138 O181 2.307 1_556 S
Gd138 C191 2.805 . S
Gd139 N134 2.622 . S
Gd139 N140 2.570 . S
Gd139 O171 2.386 . S
Gd139 O175 2.307 . S
Gd139 O178 2.353 . S
Gd139 O179 2.468 . S
Gd139 O180 2.427 . S
Gd139 O182 2.388 . S
Gd139 C203 2.805 . S
N140 C130 1.359 . S
N140 Gd139 2.570 . S
N140 C142 1.343 . S
C141 C129 1.422 . S
C141 C143 1.321 . S
C141 H149 0.931 . S
C142 N140 1.343 . S
C142 C143 1.390 . S
C142 H144 0.931 . S
C143 C141 1.321 . S
C143 C142 1.390 . S
C143 H145 0.930 . S
H144 C142 0.931 . S
H145 C143 0.930 . S
H146 C169 0.931 . S
H147 C135 0.929 . S
H148 C170 0.930 . S
H149 C141 0.931 . S
H150 C131 0.930 . S
H151 C160 0.929 . S
H152 C136 0.931 . S
H153 C137 0.930 . S
H154 C192 0.930 . S
H155 C133 0.929 . S
H156 C161 0.931 . S
H157 C162 0.930 . S
N158 Gd138 2.622 1_554 S
N158 C159 1.368 . S
N158 C160 1.337 1_554 S
C159 N158 1.368 . S
C159 C163 1.415 . S
C159 C166 1.422 . S
C160 H151 0.929 . S
C160 N158 1.337 1_556 S
C160 C162 1.384 . S
C161 H156 0.931 . S
C161 C162 1.342 1_554 S
C161 C163 1.413 . S
C162 H157 0.930 . S
C162 C160 1.384 . S
C162 C161 1.342 1_556 S
C163 C159 1.415 . S
C163 C161 1.413 . S
C163 C193 1.437 . S
H164 C193 0.929 . S
N165 Gd138 2.570 1_554 S
N165 C166 1.359 . S
N165 C169 1.343 . S
C166 C159 1.422 . S
C166 N165 1.359 . S
C166 C168 1.421 . S
C167 C168 1.422 . S
C167 C170 1.321 . S
C167 H194 0.931 . S
C168 C166 1.421 . S
C168 C167 1.422 . S
C168 C192 1.417 . S
C169 H146 0.931 . S
C169 N165 1.343 . S
C169 C170 1.390 . S
C170 H148 0.930 . S
C170 C167 1.321 . S
C170 C169 1.390 . S
O171 Gd139 2.386 . S
O171 C183 1.265 1_554 S
O172 Gd138 2.353 . S
O172 C183 1.242 . S
O173 Gd138 2.468 . S
O173 C191 1.263 . S
O174 Gd138 2.427 . S
O174 C191 1.252 . S
O175 Gd139 2.307 . S
O175 C184 1.261 . S
O176 Gd138 2.388 1_554 S
O176 C184 1.252 . S
O177 Gd138 2.386 1_554 S
O177 C195 1.265 . S
O178 Gd139 2.353 . S
O178 C195 1.242 . S
O179 Gd139 2.468 . S
O179 C203 1.263 . S
O180 Gd139 2.427 . S
O180 C203 1.252 . S
O181 Gd138 2.307 1_554 S
O181 C196 1.261 . S
O182 Gd139 2.388 . S
O182 C196 1.252 . S
C183 O171 1.265 1_556 S
C183 O172 1.242 . S
C184 O175 1.261 . S
C184 O176 1.252 . S
C185 C188 1.394 . S
C185 C190 1.370 . S
C185 C191 1.500 . S
C186 C189 1.383 . S
C186 C190 1.395 . S
C187 C188 1.396 . S
C187 C189 1.365 . S
C187 H204 0.929 . S
C188 C185 1.394 . S
C188 C187 1.396 . S
C188 H205 0.930 . S
C189 C186 1.383 . S
C189 C187 1.365 . S
C189 H206 0.931 . S
C190 C185 1.370 . S
C190 C186 1.395 . S
C190 H207 0.930 . S
C191 Gd138 2.805 . S
C191 O173 1.263 . S
C191 O174 1.252 . S
C191 C185 1.500 . S
C192 H154 0.930 . S
C192 C168 1.417 . S
C192 C193 1.329 . S
C193 C163 1.437 . S
C193 H164 0.929 . S
C193 C192 1.329 . S
H194 C167 0.931 . S
C195 O177 1.265 . S
C195 O178 1.242 . S
C196 O181 1.261 . S
C196 O182 1.252 . S
C197 C200 1.394 . S
C197 C202 1.370 . S
C197 C203 1.500 . S
C198 C201 1.383 . S
C198 C202 1.395 . S
C199 C200 1.396 . S
C199 C201 1.365 . S
C199 H208 0.929 . S
C200 C197 1.394 . S
C200 C199 1.396 . S
C200 H209 0.930 . S
C201 C198 1.383 . S
C201 C199 1.365 . S
C201 H210 0.931 . S
C202 C197 1.370 . S
C202 C198 1.395 . S
C202 H211 0.930 . S
C203 Gd139 2.805 . S
C203 O179 1.263 . S
C203 O180 1.252 . S
C203 C197 1.500 . S
H204 C187 0.929 . S
H205 C188 0.930 . S
H206 C189 0.931 . S
H207 C190 0.930 . S
H208 C199 0.929 . S
H209 C200 0.930 . S
H210 C201 0.931 . S
H211 C202 0.930 . S
C212 C213 1.349 . S
C212 C214 1.327 . S
C212 H237 0.950 . S
C213 C212 1.349 . S
C213 C229 1.349 . S
C214 C212 1.327 . S
C214 C233 1.429 . S
C214 H238 0.950 . S
C215 C232 1.574 . S
C215 C234 1.368 . S
C215 H239 0.949 . S
H216 C220 0.949 . S
C217 C218 1.349 . S
C217 C219 1.327 . S
C217 H240 0.950 . S
C218 C217 1.349 . S
C218 C230 1.349 . S
C219 C217 1.327 . S
C219 C235 1.429 . S
C219 H241 0.950 . S
C220 H216 0.949 . S
C220 C228 1.574 . S
C220 C236 1.368 . S
H221 C229 0.950 . S
H222 C227 0.950 . S
H223 C228 0.949 . S
H224 C230 0.950 . S
H225 C231 0.950 . S
H226 C232 0.949 . S
C227 H222 0.950 . S
C227 C229 1.327 . S
C227 C233 1.429 . S
C228 C220 1.574 . S
C228 H223 0.949 . S
C228 C234 1.368 . S
C229 C213 1.349 . S
C229 H221 0.950 . S
C229 C227 1.327 . S
C230 C218 1.349 . S
C230 H224 0.950 . S
C230 C231 1.327 . S
C231 H225 0.950 . S
C231 C230 1.327 . S
C231 C235 1.429 . S
C232 C215 1.574 . S
C232 H226 0.949 . S
C232 C236 1.368 . S
C233 C214 1.429 . S
C233 C227 1.429 . S
C233 C234 1.523 . S
C234 C215 1.368 . S
C234 C228 1.368 . S
C234 C233 1.523 . S
C235 C219 1.429 . S
C235 C231 1.429 . S
C235 C236 1.523 . S
C236 C220 1.368 . S
C236 C232 1.368 . S
C236 C235 1.523 . S
H237 C212 0.950 . S
H238 C214 0.950 . S
H239 C215 0.949 . S
H240 C217 0.950 . S
H241 C219 0.950 . S
C242 C243 1.349 . S
C242 C244 1.327 . S
C242 H267 0.950 . S
C243 C242 1.349 . S
C243 C259 1.349 . S
C244 C242 1.327 . S
C244 C263 1.429 . S
C244 H268 0.950 . S
C245 C262 1.574 . S
C245 C264 1.368 . S
C245 H269 0.949 1_554 S
H246 C250 0.949 . S
C247 C248 1.349 . S
C247 C249 1.327 . S
C247 H270 0.950 1_554 S
C248 C247 1.349 . S
C248 C260 1.349 . S
C249 C247 1.327 . S
C249 C265 1.429 . S
C249 H271 0.950 1_554 S
C250 H246 0.949 . S
C250 C258 1.574 . S
C250 C266 1.368 . S
H251 C259 0.950 1_556 S
H252 C257 0.950 1_556 S
H253 C258 0.949 . S
H254 C260 0.950 . S
H255 C261 0.950 . S
H256 C262 0.949 1_556 S
C257 H252 0.950 1_554 S
C257 C259 1.327 . S
C257 C263 1.429 . S
C258 C250 1.574 . S
C258 H253 0.949 . S
C258 C264 1.368 . S
C259 C243 1.349 . S
C259 H251 0.950 1_554 S
C259 C257 1.327 . S
C260 C248 1.349 . S
C260 H254 0.950 . S
C260 C261 1.327 . S
C261 H255 0.950 . S
C261 C260 1.327 . S
C261 C265 1.429 . S
C262 C245 1.574 . S
C262 H256 0.949 1_554 S
C262 C266 1.368 . S
C263 C244 1.429 . S
C263 C257 1.429 . S
C263 C264 1.523 . S
C264 C245 1.368 . S
C264 C258 1.368 . S
C264 C263 1.523 . S
C265 C249 1.429 . S
C265 C261 1.429 . S
C265 C266 1.523 . S
C266 C250 1.368 . S
C266 C262 1.368 . S
C266 C265 1.523 . S
H267 C242 0.950 . S
H268 C244 0.950 . S
H269 C245 0.949 1_556 S
H270 C247 0.950 1_556 S
H271 C249 0.950 1_556 S
C272 C273 1.349 . S
C272 C274 1.327 . S
C272 H297 0.950 . S
C273 C272 1.349 . S
C273 C289 1.349 . S
C274 C272 1.327 . S
C274 C293 1.429 . S
C274 H298 0.950 . S
C275 C292 1.574 . S
C275 C294 1.368 . S
C275 H299 0.949 . S
H276 C280 0.949 . S
C277 C278 1.349 . S
C277 C279 1.327 . S
C277 H300 0.950 . S
C278 C277 1.349 . S
C278 C290 1.349 . S
C279 C277 1.327 . S
C279 C295 1.429 . S
C279 H301 0.950 . S
C280 H276 0.949 . S
C280 C288 1.574 . S
C280 C296 1.368 . S
H281 C289 0.950 . S
H282 C287 0.950 . S
H283 C288 0.949 . S
H284 C290 0.950 . S
H285 C291 0.950 . S
H286 C292 0.949 . S
C287 H282 0.950 . S
C287 C289 1.327 . S
C287 C293 1.429 . S
C288 C280 1.574 . S
C288 H283 0.949 . S
C288 C294 1.368 . S
C289 C273 1.349 . S
C289 H281 0.950 . S
C289 C287 1.327 . S
C290 C278 1.349 . S
C290 H284 0.950 . S
C290 C291 1.327 . S
C291 H285 0.950 . S
C291 C290 1.327 . S
C291 C295 1.429 . S
C292 C275 1.574 . S
C292 H286 0.949 . S
C292 C296 1.368 . S
C293 C274 1.429 . S
C293 C287 1.429 . S
C293 C294 1.523 . S
C294 C275 1.368 . S
C294 C288 1.368 . S
C294 C293 1.523 . S
C295 C279 1.429 . S
C295 C291 1.429 . S
C295 C296 1.523 . S
C296 C280 1.368 . S
C296 C292 1.368 . S
C296 C295 1.523 . S
H297 C272 0.950 . S
H298 C274 0.950 . S
H299 C275 0.949 . S
H300 C277 0.950 . S
H301 C279 0.950 . S
C302 C303 1.349 . S
C302 C304 1.327 . S
C302 H327 0.950 . S
C303 C302 1.349 . S
C303 C319 1.349 1_554 S
C304 C302 1.327 . S
C304 C323 1.429 . S
C304 H328 0.950 . S
C305 C322 1.574 . S
C305 C324 1.368 1_556 S
C305 H329 0.949 . S
H306 C310 0.949 . S
C307 C308 1.349 1_556 S
C307 C309 1.327 . S
C307 H330 0.950 . S
C308 C307 1.349 1_554 S
C308 C320 1.349 . S
C309 C307 1.327 . S
C309 C325 1.429 1_556 S
C309 H331 0.950 . S
C310 H306 0.949 . S
C310 C318 1.574 . S
C310 C326 1.368 . S
H311 C319 0.950 . S
H312 C317 0.950 . S
H313 C318 0.949 . S
H314 C320 0.950 . S
H315 C321 0.950 . S
H316 C322 0.949 . S
C317 H312 0.950 . S
C317 C319 1.327 . S
C317 C323 1.429 1_556 S
C318 C310 1.574 . S
C318 H313 0.949 . S
C318 C324 1.368 . S
C319 C303 1.349 1_556 S
C319 H311 0.950 . S
C319 C317 1.327 . S
C320 C308 1.349 . S
C320 H314 0.950 . S
C320 C321 1.327 . S
C321 H315 0.950 . S
C321 C320 1.327 . S
C321 C325 1.429 . S
C322 C305 1.574 . S
C322 H316 0.949 . S
C322 C326 1.368 1_556 S
C323 C304 1.429 . S
C323 C317 1.429 1_554 S
C323 C324 1.523 . S
C324 C305 1.368 1_554 S
C324 C318 1.368 . S
C324 C323 1.523 . S
C325 C309 1.429 1_554 S
C325 C321 1.429 . S
C325 C326 1.523 . S
C326 C310 1.368 . S
C326 C322 1.368 1_554 S
C326 C325 1.523 . S
H327 C302 0.950 . S
H328 C304 0.950 . S
H329 C305 0.949 . S
H330 C307 0.950 . S
H331 C309 0.950 . S
C332 C333 1.349 . S
C332 C334 1.327 . S
C332 H357 0.950 . S
C333 C332 1.349 . S
C333 C349 1.349 . S
C334 C332 1.327 . S
C334 C353 1.429 . S
C334 H358 0.950 . S
C335 C352 1.574 . S
C335 C354 1.368 . S
C335 H359 0.949 . S
H336 C340 0.949 . S
C337 C338 1.349 . S
C337 C339 1.327 . S
C337 H360 0.950 . S
C338 C337 1.349 . S
C338 C350 1.349 . S
C339 C337 1.327 . S
C339 C355 1.429 . S
C339 H361 0.950 . S
C340 H336 0.949 . S
C340 C348 1.574 . S
C340 C356 1.368 . S
H341 C349 0.950 . S
H342 C347 0.950 . S
H343 C348 0.949 . S
H344 C350 0.950 . S
H345 C351 0.950 . S
H346 C352 0.949 . S
C347 H342 0.950 . S
C347 C349 1.327 . S
C347 C353 1.429 . S
C348 C340 1.574 . S
C348 H343 0.949 . S
C348 C354 1.368 . S
C349 C333 1.349 . S
C349 H341 0.950 . S
C349 C347 1.327 . S
C350 C338 1.349 . S
C350 H344 0.950 . S
C350 C351 1.327 . S
C351 H345 0.950 . S
C351 C350 1.327 . S
C351 C355 1.429 . S
C352 C335 1.574 . S
C352 H346 0.949 . S
C352 C356 1.368 . S
C353 C334 1.429 . S
C353 C347 1.429 . S
C353 C354 1.523 . S
C354 C335 1.368 . S
C354 C348 1.368 . S
C354 C353 1.523 . S
C355 C339 1.429 . S
C355 C351 1.429 . S
C355 C356 1.523 . S
C356 C340 1.368 . S
C356 C352 1.368 . S
C356 C355 1.523 . S
H357 C332 0.950 . S
H358 C334 0.950 . S
H359 C335 0.949 . S
H360 C337 0.950 . S
H361 C339 0.950 . S
C362 C363 1.349 . S
C362 C364 1.327 . S
C362 H387 0.950 . S
C363 C362 1.349 . S
C363 C379 1.349 . S
C364 C362 1.327 . S
C364 C383 1.429 . S
C364 H388 0.950 . S
C365 C382 1.574 . S
C365 C384 1.368 . S
C365 H389 0.949 . S
H366 C370 0.949 . S
C367 C368 1.349 . S
C367 C369 1.327 . S
C367 H390 0.950 . S
C368 C367 1.349 . S
C368 C380 1.349 . S
C369 C367 1.327 . S
C369 C385 1.429 . S
C369 H391 0.950 . S
C370 H366 0.949 . S
C370 C378 1.574 . S
C370 C386 1.368 . S
H371 C379 0.950 . S
H372 C377 0.950 . S
H373 C378 0.949 . S
H374 C380 0.950 . S
H375 C381 0.950 . S
H376 C382 0.949 . S
C377 H372 0.950 . S
C377 C379 1.327 . S
C377 C383 1.429 . S
C378 C370 1.574 . S
C378 H373 0.949 . S
C378 C384 1.368 . S
C379 C363 1.349 . S
C379 H371 0.950 . S
C379 C377 1.327 . S
C380 C368 1.349 . S
C380 H374 0.950 . S
C380 C381 1.327 . S
C381 H375 0.950 . S
C381 C380 1.327 . S
C381 C385 1.429 . S
C382 C365 1.574 . S
C382 H376 0.949 . S
C382 C386 1.368 . S
C383 C364 1.429 . S
C383 C377 1.429 . S
C383 C384 1.523 . S
C384 C365 1.368 . S
C384 C378 1.368 . S
C384 C383 1.523 . S
C385 C369 1.429 . S
C385 C381 1.429 . S
C385 C386 1.523 . S
C386 C370 1.368 . S
C386 C382 1.368 . S
C386 C385 1.523 . S
H387 C362 0.950 . S
H388 C364 0.950 . S
H389 C365 0.949 . S
H390 C367 0.950 . S
H391 C369 0.950 . S
C392 C393 1.349 . S
C392 C394 1.327 . S
C392 H417 0.950 . S
C393 C392 1.349 . S
C393 C409 1.349 . S
C394 C392 1.327 . S
C394 C413 1.429 . S
C394 H418 0.950 . S
C395 C412 1.574 . S
C395 C414 1.368 . S
C395 H419 0.949 . S
H396 C400 0.949 . S
C397 C398 1.349 . S
C397 C399 1.327 . S
C397 H420 0.950 . S
C398 C397 1.349 . S
C398 C410 1.349 . S
C399 C397 1.327 . S
C399 C415 1.429 . S
C399 H421 0.950 . S
C400 H396 0.949 . S
C400 C408 1.574 . S
C400 C416 1.368 . S
H401 C409 0.950 . S
H402 C407 0.950 . S
H403 C408 0.949 . S
H404 C410 0.950 . S
H405 C411 0.950 . S
H406 C412 0.949 . S
C407 H402 0.950 . S
C407 C409 1.327 . S
C407 C413 1.429 . S
C408 C400 1.574 . S
C408 H403 0.949 . S
C408 C414 1.368 . S
C409 C393 1.349 . S
C409 H401 0.950 . S
C409 C407 1.327 . S
C410 C398 1.349 . S
C410 H404 0.950 . S
C410 C411 1.327 . S
C411 H405 0.950 . S
C411 C410 1.327 . S
C411 C415 1.429 . S
C412 C395 1.574 . S
C412 H406 0.949 . S
C412 C416 1.368 . S
C413 C394 1.429 . S
C413 C407 1.429 . S
C413 C414 1.523 . S
C414 C395 1.368 . S
C414 C408 1.368 . S
C414 C413 1.523 . S
C415 C399 1.429 . S
C415 C411 1.429 . S
C415 C416 1.523 . S
C416 C400 1.368 . S
C416 C412 1.368 . S
C416 C415 1.523 . S
H417 C392 0.950 . S
H418 C394 0.950 . S
H419 C395 0.949 . S
H420 C397 0.950 . S
H421 C399 0.950 . S
C422 C423 1.349 . S
C422 C424 1.327 . S
C422 H447 0.950 . S
C423 C422 1.349 . S
C423 C439 1.349 . S
C424 C422 1.327 . S
C424 C443 1.429 . S
C424 H448 0.950 . S
C425 C442 1.574 . S
C425 C444 1.368 . S
C425 H449 0.949 . S
H426 C430 0.949 . S
C427 C428 1.349 . S
C427 C429 1.327 . S
C427 H450 0.950 . S
C428 C427 1.349 . S
C428 C440 1.349 . S
C429 C427 1.327 . S
C429 C445 1.429 . S
C429 H451 0.950 . S
C430 H426 0.949 . S
C430 C438 1.574 . S
C430 C446 1.368 . S
H431 C439 0.950 . S
H432 C437 0.950 . S
H433 C438 0.949 . S
H434 C440 0.950 . S
H435 C441 0.950 . S
H436 C442 0.949 . S
C437 H432 0.950 . S
C437 C439 1.327 . S
C437 C443 1.429 . S
C438 C430 1.574 . S
C438 H433 0.949 . S
C438 C444 1.368 . S
C439 C423 1.349 . S
C439 H431 0.950 . S
C439 C437 1.327 . S
C440 C428 1.349 . S
C440 H434 0.950 . S
C440 C441 1.327 . S
C441 H435 0.950 . S
C441 C440 1.327 . S
C441 C445 1.429 . S
C442 C425 1.574 . S
C442 H436 0.949 . S
C442 C446 1.368 . S
C443 C424 1.429 . S
C443 C437 1.429 . S
C443 C444 1.523 . S
C444 C425 1.368 . S
C444 C438 1.368 . S
C444 C443 1.523 . S
C445 C429 1.429 . S
C445 C441 1.429 . S
C445 C446 1.523 . S
C446 C430 1.368 . S
C446 C442 1.368 . S
C446 C445 1.523 . S
H447 C422 0.950 . S
H448 C424 0.950 . S
H449 C425 0.949 . S
H450 C427 0.950 . S
H451 C429 0.950 . S
C452 C453 1.349 . S
C452 C454 1.327 . S
C452 H477 0.950 . S
C453 C452 1.349 . S
C453 C469 1.349 . S
C454 C452 1.327 . S
C454 C473 1.429 . S
C454 H478 0.950 . S
C455 C472 1.574 . S
C455 C474 1.368 . S
C455 H479 0.949 . S
H456 C460 0.949 . S
C457 C458 1.349 . S
C457 C459 1.327 . S
C457 H480 0.950 . S
C458 C457 1.349 . S
C458 C470 1.349 . S
C459 C457 1.327 . S
C459 C475 1.429 . S
C459 H481 0.950 . S
C460 H456 0.949 . S
C460 C468 1.574 . S
C460 C476 1.368 . S
H461 C469 0.950 . S
H462 C467 0.950 . S
H463 C468 0.949 . S
H464 C470 0.950 . S
H465 C471 0.950 . S
H466 C472 0.949 . S
C467 H462 0.950 . S
C467 C469 1.327 . S
C467 C473 1.429 . S
C468 C460 1.574 . S
C468 H463 0.949 . S
C468 C474 1.368 . S
C469 C453 1.349 . S
C469 H461 0.950 . S
C469 C467 1.327 . S
C470 C458 1.349 . S
C470 H464 0.950 . S
C470 C471 1.327 . S
C471 H465 0.950 . S
C471 C470 1.327 . S
C471 C475 1.429 . S
C472 C455 1.574 . S
C472 H466 0.949 . S
C472 C476 1.368 . S
C473 C454 1.429 . S
C473 C467 1.429 . S
C473 C474 1.523 . S
C474 C455 1.368 . S
C474 C468 1.368 . S
C474 C473 1.523 . S
C475 C459 1.429 . S
C475 C471 1.429 . S
C475 C476 1.523 . S
C476 C460 1.368 . S
C476 C472 1.368 . S
C476 C475 1.523 . S
H477 C452 0.950 . S
H478 C454 0.950 . S
H479 C455 0.949 . S
H480 C457 0.950 . S
H481 C459 0.950 . S
C482 C483 1.349 . S
C482 C484 1.327 . S
C482 H507 0.950 . S
C483 C482 1.349 . S
C483 C499 1.349 . S
C484 C482 1.327 . S
C484 C503 1.429 . S
C484 H508 0.950 . S
C485 C502 1.574 . S
C485 C504 1.368 . S
C485 H509 0.949 . S
H486 C490 0.949 . S
C487 C488 1.349 . S
C487 C489 1.327 . S
C487 H510 0.950 . S
C488 C487 1.349 . S
C488 C500 1.349 . S
C489 C487 1.327 . S
C489 C505 1.429 . S
C489 H511 0.950 . S
C490 H486 0.949 . S
C490 C498 1.574 . S
C490 C506 1.368 . S
H491 C499 0.950 . S
H492 C497 0.950 . S
H493 C498 0.949 . S
H494 C500 0.950 . S
H495 C501 0.950 . S
H496 C502 0.949 . S
C497 H492 0.950 . S
C497 C499 1.327 . S
C497 C503 1.429 . S
C498 C490 1.574 . S
C498 H493 0.949 . S
C498 C504 1.368 . S
C499 C483 1.349 . S
C499 H491 0.950 . S
C499 C497 1.327 . S
C500 C488 1.349 . S
C500 H494 0.950 . S
C500 C501 1.327 . S
C501 H495 0.950 . S
C501 C500 1.327 . S
C501 C505 1.429 . S
C502 C485 1.574 . S
C502 H496 0.949 . S
C502 C506 1.368 . S
C503 C484 1.429 . S
C503 C497 1.429 . S
C503 C504 1.523 . S
C504 C485 1.368 . S
C504 C498 1.368 . S
C504 C503 1.523 . S
C505 C489 1.429 . S
C505 C501 1.429 . S
C505 C506 1.523 . S
C506 C490 1.368 . S
C506 C502 1.368 . S
C506 C505 1.523 . S
H507 C482 0.950 . S
H508 C484 0.950 . S
H509 C485 0.949 . S
H510 C487 0.950 . S
H511 C489 0.950 . S
C512 C513 1.349 . S
C512 C514 1.327 . S
C512 H537 0.950 . S
C513 C512 1.349 . S
C513 C529 1.349 . S
C514 C512 1.327 . S
C514 C533 1.429 . S
C514 H538 0.950 . S
C515 C532 1.574 . S
C515 C534 1.368 . S
C515 H539 0.949 . S
H516 C520 0.949 . S
C517 C518 1.349 . S
C517 C519 1.327 . S
C517 H540 0.950 . S
C518 C517 1.349 . S
C518 C530 1.349 . S
C519 C517 1.327 . S
C519 C535 1.429 . S
C519 H541 0.950 . S
C520 H516 0.949 . S
C520 C528 1.574 . S
C520 C536 1.368 . S
H521 C529 0.950 . S
H522 C527 0.950 . S
H523 C528 0.949 . S
H524 C530 0.950 . S
H525 C531 0.950 . S
H526 C532 0.949 . S
C527 H522 0.950 . S
C527 C529 1.327 . S
C527 C533 1.429 . S
C528 C520 1.574 . S
C528 H523 0.949 . S
C528 C534 1.368 . S
C529 C513 1.349 . S
C529 H521 0.950 . S
C529 C527 1.327 . S
C530 C518 1.349 . S
C530 H524 0.950 . S
C530 C531 1.327 . S
C531 H525 0.950 . S
C531 C530 1.327 . S
C531 C535 1.429 . S
C532 C515 1.574 . S
C532 H526 0.949 . S
C532 C536 1.368 . S
C533 C514 1.429 . S
C533 C527 1.429 . S
C533 C534 1.523 . S
C534 C515 1.368 . S
C534 C528 1.368 . S
C534 C533 1.523 . S
C535 C519 1.429 . S
C535 C531 1.429 . S
C535 C536 1.523 . S
C536 C520 1.368 . S
C536 C532 1.368 . S
C536 C535 1.523 . S
H537 C512 0.950 . S
H538 C514 0.950 . S
H539 C515 0.949 . S
H540 C517 0.950 . S
H541 C519 0.950 . S
C542 C543 1.349 . S
C542 C544 1.327 . S
C542 H567 0.950 . S
C543 C542 1.349 . S
C543 C559 1.349 . S
C544 C542 1.327 . S
C544 C563 1.429 . S
C544 H568 0.950 . S
C545 C562 1.574 . S
C545 C564 1.368 . S
C545 H569 0.949 . S
H546 C550 0.949 . S
C547 C548 1.349 . S
C547 C549 1.327 . S
C547 H570 0.950 . S
C548 C547 1.349 . S
C548 C560 1.349 . S
C549 C547 1.327 . S
C549 C565 1.429 . S
C549 H571 0.950 . S
C550 H546 0.949 . S
C550 C558 1.574 . S
C550 C566 1.368 . S
H551 C559 0.950 . S
H552 C557 0.950 . S
H553 C558 0.949 . S
H554 C560 0.950 1_545 S
H555 C561 0.950 . S
H556 C562 0.949 . S
C557 H552 0.950 . S
C557 C559 1.327 . S
C557 C563 1.429 . S
C558 C550 1.574 . S
C558 H553 0.949 . S
C558 C564 1.368 . S
C559 C543 1.349 . S
C559 H551 0.950 . S
C559 C557 1.327 . S
C560 C548 1.349 . S
C560 H554 0.950 1_565 S
C560 C561 1.327 . S
C561 H555 0.950 . S
C561 C560 1.327 . S
C561 C565 1.429 . S
C562 C545 1.574 . S
C562 H556 0.949 . S
C562 C566 1.368 . S
C563 C544 1.429 . S
C563 C557 1.429 . S
C563 C564 1.523 . S
C564 C545 1.368 . S
C564 C558 1.368 . S
C564 C563 1.523 . S
C565 C549 1.429 . S
C565 C561 1.429 . S
C565 C566 1.523 . S
C566 C550 1.368 . S
C566 C562 1.368 . S
C566 C565 1.523 . S
H567 C542 0.950 . S
H568 C544 0.950 . S
H569 C545 0.949 . S
H570 C547 0.950 . S
H571 C549 0.950 . S
C218 C112 1.671 . S
C213 C43 1.687 . S
C243 C10 1.686 . S
C248 C184 1.665 . S
C273 C21 1.692 . S
C278 C100 1.689 . S
C303 C32 1.659 . S
C308 C196 1.651 . S
C338 C102 1.463 . S
C333 C5 1.630 . S
C368 C183 1.735 . S
C363 C15 1.734 . S
C393 C27 1.655 . S
C398 C99 1.668 . S
C423 C38 1.623 . S
C428 C186 1.454 . S
C458 C198 1.402 . S
C453 C16 1.568 . S
C488 C114 1.401 . S
C483 C26 1.575 . S
C518 C195 1.647 . S
C513 C37 1.640 . S
C543 C4 1.579 . S
C548 C111 1.588 . S
